# Generated by pormake.
# Topology unm, (4)-cn, num edge types: 1
# Building blocks:
#     Node 0, Type 0, BuildingBlock: AZAVOO_clean_sbu_0, # of connection points: 4
#     Node 1, Type 0, BuildingBlock: AZAVOO_clean_sbu_0, # of connection points: 4
#     Node 2, Type 0, BuildingBlock: AZAVOO_clean_sbu_0, # of connection points: 4
#     Node 3, Type 0, BuildingBlock: AZAVOO_clean_sbu_0, # of connection points: 4
#     Node 4, Type 0, BuildingBlock: AZAVOO_clean_sbu_0, # of connection points: 4
#     Node 5, Type 0, BuildingBlock: AZAVOO_clean_sbu_0, # of connection points: 4
#     Node 6, Type 0, BuildingBlock: AZAVOO_clean_sbu_0, # of connection points: 4
#     Node 7, Type 0, BuildingBlock: AZAVOO_clean_sbu_0, # of connection points: 4
#     Edge 8, Type (0, 0), BuildingBlock: FUNLAD_clean_linker_0, # of connection points: 2
#     Edge 9, Type (0, 0), BuildingBlock: FUNLAD_clean_linker_0, # of connection points: 2
#     Edge 10, Type (0, 0), BuildingBlock: FUNLAD_clean_linker_0, # of connection points: 2
#     Edge 11, Type (0, 0), BuildingBlock: FUNLAD_clean_linker_0, # of connection points: 2
#     Edge 12, Type (0, 0), BuildingBlock: FUNLAD_clean_linker_0, # of connection points: 2
#     Edge 13, Type (0, 0), BuildingBlock: FUNLAD_clean_linker_0, # of connection points: 2
#     Edge 14, Type (0, 0), BuildingBlock: FUNLAD_clean_linker_0, # of connection points: 2
#     Edge 15, Type (0, 0), BuildingBlock: FUNLAD_clean_linker_0, # of connection points: 2
#     Edge 16, Type (0, 0), BuildingBlock: FUNLAD_clean_linker_0, # of connection points: 2
#     Edge 17, Type (0, 0), BuildingBlock: FUNLAD_clean_linker_0, # of connection points: 2
#     Edge 18, Type (0, 0), BuildingBlock: FUNLAD_clean_linker_0, # of connection points: 2
#     Edge 19, Type (0, 0), BuildingBlock: FUNLAD_clean_linker_0, # of connection points: 2
#     Edge 20, Type (0, 0), BuildingBlock: FUNLAD_clean_linker_0, # of connection points: 2
#     Edge 21, Type (0, 0), BuildingBlock: FUNLAD_clean_linker_0, # of connection points: 2
#     Edge 22, Type (0, 0), BuildingBlock: FUNLAD_clean_linker_0, # of connection points: 2
#     Edge 23, Type (0, 0), BuildingBlock: FUNLAD_clean_linker_0, # of connection points: 2
# Relax obj value: 0.173
# Max RMSD: 0.157
# Mean RMSD: 0.157
data_MOF--net-unm--node1-AZAVOO_clean_sbu_0--edge1-FUNLAD_clean_linker_0
_symmetry_space_group_name_H-M    P1
_symmetry_Int_Tables_number       1
_symmetry_cell_setting            triclinic
loop_
_symmetry_equiv_pos_as_xyz
'x, y, z'
_cell_length_a     30.229268
_cell_length_b     30.004462
_cell_length_c     51.438333
_cell_angle_alpha  90.16768
_cell_angle_beta   89.94660608
_cell_angle_gamma 90.235923
loop_
_atom_site_label
_atom_site_type_symbol
_atom_site_fract_x
_atom_site_fract_y
_atom_site_fract_z
_atom_type_partial_charge
Mg0 Mg 0.05626 0.21464 0.13273 0.0
O1 O 0.04222 0.2841 0.11614 0.0
O2 O 0.09709 0.30557 0.08994 0.0
Mg3 Mg 0.14845 0.24995 0.09091 0.0
C4 C 0.05993 0.31261 0.10095 0.0
C5 C 0.96013 0.2321 0.14901 0.0
O6 O 0.95941 0.23946 0.12385 0.0
O7 O 0.10529 0.24617 0.16147 0.0
O8 O 0.15974 0.26568 0.13406 0.0
O9 O 0.02798 0.18059 0.09765 0.0
O10 O 0.09804 0.20032 0.10177 0.0
C11 C 0.14328 0.26346 0.15692 0.0
C12 C 0.06733 0.18274 0.08778 0.0
O13 O 0.99665 0.22189 0.15972 0.0
Mg14 Mg 0.28564 0.56565 0.63079 0.0
O15 O 0.21576 0.55837 0.61404 0.0
O16 O 0.20291 0.61432 0.5866 0.0
Mg17 Mg 0.26534 0.65776 0.58575 0.0
C18 C 0.19046 0.57896 0.59831 0.0
C19 C 0.29884 0.48006 0.66101 0.0
O20 O 0.33521 0.48427 0.64721 0.0
O21 O 0.26136 0.6218 0.65755 0.0
O22 O 0.2518 0.67605 0.62829 0.0
O23 O 0.31371 0.52851 0.59686 0.0
O24 O 0.30616 0.60167 0.59855 0.0
C25 C 0.25081 0.6618 0.65168 0.0
C26 C 0.31752 0.56684 0.5856 0.0
O27 O 0.26993 0.51064 0.65979 0.0
Mg28 Mg 0.93251 0.79204 0.1309 0.0
O29 O 0.94348 0.72433 0.11112 0.0
O30 O 0.89054 0.71077 0.08191 0.0
Mg31 Mg 0.84251 0.76926 0.08478 0.0
C32 C 0.92584 0.69958 0.09375 0.0
C33 C 0.02551 0.76549 0.14879 0.0
O34 O 0.0279 0.76131 0.12339 0.0
O35 O 0.87894 0.76 0.15641 0.0
O36 O 0.82625 0.74779 0.12653 0.0
O37 O 0.96656 0.82823 0.09852 0.0
O38 O 0.89496 0.81351 0.09958 0.0
C39 C 0.84056 0.74574 0.14987 0.0
C40 C 0.92827 0.83011 0.08735 0.0
O41 O 0.98887 0.77685 0.15903 0.0
Mg42 Mg 0.70975 0.43955 0.62409 0.0
O43 O 0.78228 0.44642 0.61102 0.0
O44 O 0.79709 0.3903 0.58371 0.0
Mg45 Mg 0.73374 0.34958 0.57776 0.0
C46 C 0.80902 0.42502 0.59636 0.0
C47 C 0.68768 0.50869 0.66634 0.0
O48 O 0.6481 0.4952 0.65918 0.0
O49 O 0.72829 0.38046 0.64998 0.0
O50 O 0.73767 0.32683 0.6202 0.0
O51 O 0.68673 0.48095 0.59061 0.0
O52 O 0.69504 0.40772 0.58951 0.0
C53 C 0.73608 0.33988 0.64386 0.0
C54 C 0.68629 0.44411 0.57748 0.0
O55 O 0.7214 0.49049 0.65615 0.0
Mg56 Mg 0.55717 0.28208 0.3207 0.0
O57 O 0.54188 0.21481 0.33982 0.0
O58 O 0.59772 0.19606 0.36585 0.0
Mg59 Mg 0.64859 0.25261 0.36416 0.0
C60 C 0.56016 0.18778 0.35558 0.0
C61 C 0.46912 0.30088 0.29385 0.0
O62 O 0.47599 0.33695 0.30785 0.0
O63 O 0.60742 0.24867 0.29342 0.0
O64 O 0.6621 0.23476 0.3216 0.0
O65 O 0.52773 0.31909 0.35438 0.0
O66 O 0.59804 0.30031 0.35142 0.0
C67 C 0.64616 0.23406 0.29859 0.0
C68 C 0.56684 0.3187 0.36457 0.0
O69 O 0.49858 0.27075 0.29358 0.0
Mg70 Mg 0.21735 0.06522 0.82675 0.0
O71 O 0.28896 0.04894 0.83833 0.0
O72 O 0.3129 0.1003 0.86663 0.0
Mg73 Mg 0.25703 0.15028 0.8727 0.0
C74 C 0.31907 0.06519 0.85304 0.0
C75 C 0.18581 0.99005 0.7906 0.0
O76 O 0.14909 0.00107 0.80265 0.0
O77 O 0.24324 0.12082 0.8004 0.0
O78 O 0.26533 0.17101 0.83006 0.0
O79 O 0.19001 0.02763 0.86064 0.0
O80 O 0.20878 0.09899 0.86155 0.0
C81 C 0.25995 0.15866 0.80647 0.0
C82 C 0.19503 0.06419 0.87371 0.0
O83 O 0.22082 0.01234 0.79513 0.0
Mg84 Mg 0.43192 0.70554 0.32033 0.0
O85 O 0.44402 0.77434 0.3384 0.0
O86 O 0.38991 0.79026 0.36641 0.0
Mg87 Mg 0.34248 0.7305 0.36627 0.0
C88 C 0.42579 0.80056 0.35475 0.0
C89 C 0.51687 0.68983 0.28945 0.0
O90 O 0.51165 0.65243 0.30234 0.0
O91 O 0.37747 0.73444 0.29429 0.0
O92 O 0.32469 0.74657 0.32405 0.0
O93 O 0.46694 0.67345 0.35365 0.0
O94 O 0.39498 0.68591 0.35239 0.0
C95 C 0.33856 0.74729 0.30058 0.0
C96 C 0.42876 0.67173 0.36501 0.0
O97 O 0.48737 0.71974 0.29145 0.0
Mg98 Mg 0.8013 0.93438 0.82294 0.0
O99 O 0.73035 0.94482 0.8381 0.0
O100 O 0.71601 0.89336 0.86836 0.0
Mg101 Mg 0.77706 0.84926 0.87224 0.0
C102 C 0.70447 0.92687 0.85475 0.0
C103 C 0.77776 0.0231 0.79697 0.0
O104 O 0.7726 0.03203 0.82181 0.0
O105 O 0.77709 0.87458 0.79909 0.0
O106 O 0.76574 0.82438 0.83051 0.0
O107 O 0.82944 0.97689 0.85485 0.0
O108 O 0.81787 0.90423 0.85777 0.0
C109 C 0.76609 0.83542 0.80652 0.0
C110 C 0.82927 0.94105 0.86874 0.0
O111 O 0.78872 0.98383 0.79022 0.0
C112 C 0.12097 0.16669 0.05221 0.0
C113 C 0.0774 0.16503 0.06162 0.0
C114 C 0.13175 0.14785 0.02829 0.0
C115 C 0.09931 0.12601 0.01329 0.0
C116 C 0.05547 0.12522 0.02237 0.0
C117 C 0.04458 0.1444 0.04638 0.0
C118 C 0.10991 0.1059 -0.0124 0.0
C119 C 0.15108 0.09321 -0.01911 0.0
C120 C 0.16323 0.08098 0.95398 0.0
C121 C 0.20414 0.09563 0.94431 0.0
C122 C 0.21513 0.08889 0.91828 0.0
C123 C 0.18588 0.06628 0.90169 0.0
H124 H 0.10334 0.04402 0.94481 0.0
C125 C 0.14619 0.04894 0.91168 0.0
C126 C 0.13466 0.05663 0.93765 0.0
H127 H 0.12326 0.03127 0.89914 0.0
H128 H 0.14715 0.18219 0.0634 0.0
H129 H 0.16553 0.15117 0.02162 0.0
H130 H 0.02967 0.10929 0.01101 0.0
H131 H 0.01067 0.14258 0.05312 0.0
H132 H 0.08323 0.10301 0.97354 0.0
H133 H 0.17795 0.09571 -0.00521 0.0
H134 H 0.22688 0.11399 0.95665 0.0
H135 H 0.2463 0.10175 0.91108 0.0
C136 C 0.34837 0.61244 0.54955 0.0
C137 C 0.33308 0.57102 0.55856 0.0
C138 C 0.36312 0.61719 0.52404 0.0
C139 C 0.36254 0.58063 0.50691 0.0
C140 C 0.34697 0.53926 0.51582 0.0
C141 C 0.3329 0.53429 0.54157 0.0
C142 C 0.37445 0.58618 0.47919 0.0
C143 C 0.40552 0.61536 0.47122 0.0
C144 C 0.41199 0.62677 0.44351 0.0
C145 C 0.45401 0.63977 0.43461 0.0
C146 C 0.45996 0.65363 0.40888 0.0
C147 C 0.42366 0.65582 0.39192 0.0
H148 H 0.34279 0.6199 0.43282 0.0
C149 C 0.38165 0.64295 0.4009 0.0
C150 C 0.37586 0.62842 0.42638 0.0
H151 H 0.35306 0.64423 0.38825 0.0
H152 H 0.34896 0.64133 0.56223 0.0
H153 H 0.37367 0.64986 0.51758 0.0
H154 H 0.34567 0.51079 0.50282 0.0
H155 H 0.32112 0.50202 0.54803 0.0
H156 H 0.35661 0.56614 0.46499 0.0
H157 H 0.42646 0.63204 0.48543 0.0
H158 H 0.4822 0.63933 0.4476 0.0
H159 H 0.49268 0.66354 0.40245 0.0
C160 C 0.87985 0.85416 0.05092 0.0
C161 C 0.92251 0.84995 0.06134 0.0
C162 C 0.87349 0.87353 0.02667 0.0
C163 C 0.90966 0.88997 0.01231 0.0
C164 C 0.95244 0.8854 0.02258 0.0
C165 C 0.95884 0.86577 0.04696 0.0
C166 C 0.90381 0.90894 -0.01412 0.0
C167 C 0.86522 0.92624 -0.02227 0.0
C168 C 0.85588 0.935 0.95005 0.0
C169 C 0.81412 0.92314 0.94036 0.0
C170 C 0.80521 0.9262 0.91386 0.0
C171 C 0.83746 0.94253 0.89677 0.0
H172 H 0.92002 0.96299 0.94015 0.0
C173 C 0.87839 0.957 0.90652 0.0
C174 C 0.88781 0.9528 0.93304 0.0
H175 H 0.90362 0.96974 0.89351 0.0
H176 H 0.85108 0.84251 0.06147 0.0
H177 H 0.84012 0.87446 0.01914 0.0
H178 H 0.98095 0.89711 0.01176 0.0
H179 H 0.99216 0.86298 0.05449 0.0
H180 H 0.93136 0.90621 0.97238 0.0
H181 H 0.83762 0.9294 -0.0089 0.0
H182 H 0.78895 0.90962 0.95315 0.0
H183 H 0.77329 0.91529 0.9067 0.0
C184 C 0.61948 0.33963 0.3998 0.0
C185 C 0.57606 0.33911 0.39017 0.0
C186 C 0.62937 0.36066 0.42325 0.0
C187 C 0.59612 0.3825 0.43753 0.0
C188 C 0.55248 0.38129 0.42818 0.0
C189 C 0.54251 0.35996 0.40464 0.0
C190 C 0.60565 0.40419 0.46293 0.0
C191 C 0.64639 0.41829 0.46973 0.0
C192 C 0.65785 0.43039 0.49674 0.0
C193 C 0.6981 0.41514 0.50682 0.0
C194 C 0.708 0.42101 0.53306 0.0
C195 C 0.67842 0.44347 0.54941 0.0
H196 H 0.59809 0.46742 0.5054 0.0
C197 C 0.63949 0.46148 0.53907 0.0
C198 C 0.62896 0.45455 0.51288 0.0
H199 H 0.61631 0.47893 0.5515 0.0
H200 H 0.64619 0.32402 0.38918 0.0
H201 H 0.66306 0.35887 0.43018 0.0
H202 H 0.5261 0.39717 0.43901 0.0
H203 H 0.5087 0.36014 0.3977 0.0
H204 H 0.57869 0.40655 0.47685 0.0
H205 H 0.67356 0.41631 0.45598 0.0
H206 H 0.72099 0.39676 0.49466 0.0
H207 H 0.73844 0.40733 0.54066 0.0
C208 C 0.17489 0.25381 0.20148 0.0
C209 C 0.17139 0.27886 0.17856 0.0
C210 C 0.20821 0.26357 0.21955 0.0
C211 C 0.2379 0.29901 0.2151 0.0
C212 C 0.23203 0.32602 0.1932 0.0
C213 C 0.19952 0.31567 0.1749 0.0
C214 C 0.27659 0.30754 0.23209 0.0
C215 C 0.30062 0.27428 0.24241 0.0
C216 C 0.34351 0.28186 0.25586 0.0
C217 C 0.37526 0.24782 0.25569 0.0
C218 C 0.4164 0.25411 0.26762 0.0
C219 C 0.42642 0.2945 0.28023 0.0
H220 H 0.32938 0.34869 0.26996 0.0
C221 C 0.39441 0.32836 0.2807 0.0
C222 C 0.35339 0.32212 0.26872 0.0
H223 H 0.40084 0.35971 0.29051 0.0
H224 H 0.15364 0.22518 0.20467 0.0
H225 H 0.21134 0.24284 0.23664 0.0
H226 H 0.25418 0.35379 0.1895 0.0
H227 H 0.19731 0.33561 0.15742 0.0
H228 H 0.28865 0.34162 0.23327 0.0
H229 H 0.29068 0.23996 0.23878 0.0
H230 H 0.36842 0.21638 0.24605 0.0
H231 H 0.44016 0.22719 0.26711 0.0
C232 C 0.2155 0.73283 0.66566 0.0
C233 C 0.23872 0.694 0.6723 0.0
C234 C 0.20821 0.76623 0.68402 0.0
C235 C 0.22394 0.76165 0.70958 0.0
C236 C 0.24615 0.72235 0.71646 0.0
C237 C 0.25311 0.68856 0.69805 0.0
C238 C 0.2211 0.79901 0.72852 0.0
C239 C 0.18924 0.83022 0.72753 0.0
C240 C 0.18919 0.8706 0.74422 0.0
C241 C 0.14872 0.89062 0.75057 0.0
C242 C 0.14762 0.9296 0.76549 0.0
C243 C 0.18709 0.9499 0.77388 0.0
H244 H 0.26059 0.87728 0.74722 0.0
C245 C 0.22769 0.93039 0.76706 0.0
C246 C 0.22875 0.89105 0.75245 0.0
H247 H 0.25868 0.94523 0.77324 0.0
H248 H 0.20391 0.73805 0.64598 0.0
H249 H 0.19201 0.79641 0.67771 0.0
H250 H 0.25891 0.71816 0.73597 0.0
H251 H 0.27133 0.65913 0.7037 0.0
H252 H 0.2462 0.80089 0.7436 0.0
H253 H 0.16163 0.82596 0.71424 0.0
H254 H 0.11782 0.87586 0.74414 0.0
H255 H 0.11582 0.9439 0.77036 0.0
C256 C 0.58932 0.66377 0.27155 0.0
C257 C 0.5581 0.69799 0.27461 0.0
C258 C 0.62925 0.67168 0.25863 0.0
C259 C 0.63885 0.71408 0.24842 0.0
C260 C 0.60784 0.74838 0.25168 0.0
C261 C 0.56774 0.74039 0.26448 0.0
C262 C 0.68091 0.72374 0.23452 0.0
C263 C 0.70316 0.69262 0.22092 0.0
C264 C 0.74177 0.70374 0.20435 0.0
C265 C 0.74627 0.68202 0.18035 0.0
C266 C 0.77961 0.69462 0.16307 0.0
C267 C 0.80994 0.72832 0.16978 0.0
H268 H 0.77115 0.75272 0.23031 0.0
C269 C 0.80736 0.74808 0.19451 0.0
C270 C 0.77324 0.73618 0.21162 0.0
H271 H 0.83032 0.77421 0.20011 0.0
H272 H 0.58314 0.63083 0.27934 0.0
H273 H 0.65279 0.64472 0.25714 0.0
H274 H 0.6145 0.78141 0.24414 0.0
H275 H 0.54459 0.76759 0.26672 0.0
H276 H 0.69184 0.75827 0.23366 0.0
H277 H 0.68989 0.65901 0.21943 0.0
H278 H 0.72273 0.65661 0.17444 0.0
H279 H 0.78107 0.67866 0.14416 0.0
C280 C 0.74746 0.26093 0.65768 0.0
C281 C 0.7418 0.30598 0.66451 0.0
C282 C 0.75064 0.22815 0.67673 0.0
C283 C 0.74885 0.23956 0.70326 0.0
C284 C 0.74326 0.28456 0.71014 0.0
C285 C 0.73989 0.3175 0.691 0.0
C286 C 0.75058 0.20525 0.7241 0.0
C287 C 0.7686 0.16454 0.72068 0.0
C288 C 0.76925 0.12892 0.74078 0.0
C289 C 0.77843 0.08504 0.73286 0.0
C290 C 0.78046 0.05047 0.75097 0.0
C291 C 0.77354 0.05906 0.7775 0.0
H292 H 0.75608 0.17073 0.77459 0.0
C293 C 0.76414 0.10287 0.78548 0.0
C294 C 0.76216 0.13746 0.76738 0.0
H295 H 0.75896 0.11071 0.80582 0.0
H296 H 0.74859 0.2506 0.63749 0.0
H297 H 0.75322 0.19389 0.67038 0.0
H298 H 0.74134 0.2943 0.73041 0.0
H299 H 0.73534 0.3518 0.69697 0.0
H300 H 0.7363 0.21431 0.7427 0.0
H301 H 0.78347 0.15618 0.7021 0.0
H302 H 0.78419 0.07741 0.71253 0.0
H303 H 0.78789 0.01713 0.74418 0.0
C304 C 0.67252 0.23771 0.25234 0.0
C305 C 0.67598 0.21962 0.27741 0.0
C306 C 0.70622 0.23085 0.23405 0.0
C307 C 0.74377 0.20552 0.24056 0.0
C308 C 0.7452 0.18455 0.26486 0.0
C309 C 0.71192 0.19178 0.28316 0.0
C310 C 0.78319 0.20178 0.2234 0.0
C311 C 0.79469 0.23286 0.20577 0.0
C312 C 0.83747 0.23191 0.19156 0.0
C313 C 0.83995 0.25075 0.16669 0.0
C314 C 0.87988 0.25106 0.15298 0.0
C315 C 0.91844 0.23328 0.16409 0.0
H316 H 0.87593 0.20139 0.22241 0.0
C317 C 0.91629 0.2155 0.18928 0.0
C318 C 0.87621 0.21473 0.20288 0.0
H319 H 0.94545 0.20175 0.19842 0.0
H320 H 0.64507 0.25912 0.24732 0.0
H321 H 0.70311 0.24621 0.21515 0.0
H322 H 0.77332 0.1643 0.27027 0.0
H323 H 0.71524 0.17689 0.30222 0.0
H324 H 0.80538 0.17407 0.22694 0.0
H325 H 0.77273 0.26053 0.20177 0.0
H326 H 0.81078 0.26482 0.15771 0.0
H327 H 0.88049 0.26529 0.13365 0.0
C328 C 0.32414 0.40655 0.67807 0.0
C329 C 0.29099 0.43912 0.67634 0.0
C330 C 0.31674 0.36718 0.69182 0.0
C331 C 0.27599 0.35953 0.70428 0.0
C332 C 0.2426 0.39172 0.70222 0.0
C333 C 0.25008 0.43129 0.68853 0.0
C334 C 0.26738 0.31836 0.71947 0.0
C335 C 0.29963 0.29649 0.73212 0.0
C336 C 0.29061 0.25858 0.74975 0.0
C337 C 0.31621 0.25444 0.7723 0.0
C338 C 0.30684 0.22114 0.79037 0.0
C339 C 0.2724 0.19051 0.78589 0.0
H340 H 0.23746 0.22882 0.72717 0.0
C341 C 0.24826 0.19301 0.76262 0.0
C342 C 0.25703 0.22706 0.74475 0.0
H343 H 0.22155 0.16976 0.75872 0.0
H344 H 0.35587 0.41128 0.66865 0.0
H345 H 0.34282 0.3426 0.6923 0.0
H346 H 0.2108 0.3865 0.71149 0.0
H347 H 0.2237 0.45552 0.68736 0.0
H348 H 0.23317 0.30802 0.72208 0.0
H349 H 0.33321 0.30951 0.73178 0.0
H350 H 0.34256 0.27801 0.77643 0.0
H351 H 0.32624 0.21973 0.80805 0.0
C352 C 0.30975 0.74424 0.25477 0.0
C353 C 0.30665 0.76071 0.2803 0.0
C354 C 0.27536 0.75143 0.23702 0.0
C355 C 0.23746 0.77549 0.24454 0.0
C356 C 0.236 0.79439 0.26947 0.0
C357 C 0.26996 0.78683 0.28721 0.0
C358 C 0.19809 0.7807 0.22755 0.0
C359 C 0.18695 0.75172 0.20859 0.0
C360 C 0.14489 0.75503 0.19382 0.0
C361 C 0.14341 0.73935 0.16813 0.0
C362 C 0.10444 0.74221 0.15365 0.0
C363 C 0.06584 0.76012 0.16474 0.0
H364 H 0.1054 0.78285 0.22523 0.0
C365 C 0.06684 0.77443 0.19075 0.0
C366 C 0.10597 0.77197 0.20516 0.0
H367 H 0.03759 0.78812 0.1999 0.0
H368 H 0.33775 0.7242 0.24885 0.0
H369 H 0.27844 0.73763 0.21765 0.0
H370 H 0.20758 0.8136 0.27567 0.0
H371 H 0.26683 0.80048 0.30665 0.0
H372 H 0.17593 0.80809 0.23203 0.0
H373 H 0.20892 0.72448 0.20362 0.0
H374 H 0.17271 0.72552 0.15908 0.0
H375 H 0.10468 0.73057 0.1337 0.0
C376 C 0.73388 0.56801 0.68757 0.0
C377 C 0.69269 0.54674 0.68446 0.0
C378 C 0.73803 0.6054 0.70369 0.0
C379 C 0.70105 0.62214 0.71711 0.0
C380 C 0.6602 0.60024 0.71446 0.0
C381 C 0.65593 0.56318 0.69813 0.0
C382 C 0.70445 0.66084 0.73503 0.0
C383 C 0.73416 0.69403 0.73198 0.0
C384 C 0.73916 0.73116 0.75095 0.0
C385 C 0.75691 0.77209 0.74269 0.0
C386 C 0.76441 0.8067 0.7605 0.0
C387 C 0.75494 0.8007 0.78703 0.0
H388 H 0.71659 0.69409 0.78475 0.0
C389 C 0.73677 0.75983 0.79518 0.0
C390 C 0.72906 0.72549 0.77742 0.0
H391 H 0.72916 0.75393 0.81547 0.0
H392 H 0.76288 0.55608 0.67735 0.0
H393 H 0.77035 0.62058 0.7059 0.0
H394 H 0.63134 0.61211 0.72486 0.0
H395 H 0.62378 0.54743 0.69624 0.0
H396 H 0.68052 0.6626 0.75076 0.0
H397 H 0.75505 0.69465 0.71479 0.0
H398 H 0.76534 0.77719 0.72243 0.0
H399 H 0.77868 0.83764 0.75358 0.0
C400 C 0.97345 0.63553 0.107 0.0
C401 C 0.94503 0.65503 0.08868 0.0
C402 C 0.98829 0.59188 0.10364 0.0
C403 C 0.97548 0.56694 0.08171 0.0
C404 C 0.94892 0.58704 0.06275 0.0
C405 C 0.93333 0.63051 0.06635 0.0
C406 C 0.98954 0.51996 0.07842 0.0
C407 C 0.9906 0.49164 0.09865 0.0
C408 C 0.00528 0.44461 0.09668 0.0
C409 C 0.98894 0.41364 0.11471 0.0
C410 C 0.00511 0.37012 0.11522 0.0
C411 C 0.03876 0.35681 0.098 0.0
H412 H 0.05161 0.45418 0.06488 0.0
C413 C 0.05433 0.38751 0.07945 0.0
C414 C 0.03766 0.43094 0.07873 0.0
H415 H 0.08026 0.37838 0.06593 0.0
H416 H 0.98326 0.6535 0.12438 0.0
H417 H 0.00973 0.57763 0.11825 0.0
H418 H 0.93908 0.56861 0.04554 0.0
H419 H 0.91177 0.64471 0.05178 0.0
H420 H 0.99662 0.50802 0.0589 0.0
H421 H 0.97898 0.50303 0.11754 0.0
H422 H 0.9641 0.42338 0.12881 0.0
H423 H 0.99241 0.34747 0.12982 0.0
C424 C 0.86888 0.48167 0.60467 0.0
C425 C 0.85566 0.44023 0.59437 0.0
C426 C 0.91312 0.49534 0.60333 0.0
C427 C 0.94516 0.46776 0.59173 0.0
C428 C 0.93198 0.42636 0.58156 0.0
C429 C 0.88772 0.41288 0.58265 0.0
C430 C 0.99284 0.47998 0.59122 0.0
C431 C 0.00745 0.52243 0.59068 0.0
C432 C 0.05516 0.53465 0.59126 0.0
C433 C 0.06869 0.57544 0.58053 0.0
C434 C 0.11286 0.5892 0.58206 0.0
C435 C 0.14443 0.56273 0.59476 0.0
H436 H 0.07752 0.47665 0.61272 0.0
C437 C 0.13093 0.52166 0.60531 0.0
C438 C 0.08683 0.50776 0.60359 0.0
H439 H 0.15427 0.50051 0.61535 0.0
H440 H 0.84511 0.50348 0.61393 0.0
H441 H 0.92223 0.52695 0.61203 0.0
H442 H 0.95604 0.40431 0.57274 0.0
H443 H 0.87883 0.38064 0.57465 0.0
H444 H 0.01652 0.45289 0.59033 0.0
H445 H 0.98377 0.54939 0.58894 0.0
H446 H 0.04492 0.59694 0.5711 0.0
H447 H 0.12197 0.62115 0.57384 0.0
C448 C 0.56106 0.11032 0.37396 0.0
C449 C 0.53832 0.14434 0.36084 0.0
C450 C 0.54194 0.06812 0.37693 0.0
C451 C 0.49958 0.05902 0.36687 0.0
C452 C 0.47607 0.09353 0.35487 0.0
C453 C 0.4953 0.13563 0.35169 0.0
C454 C 0.47923 0.01389 0.36818 0.0
C455 C 0.50331 0.97618 0.3676 0.0
C456 C 0.48325 0.93098 0.36572 0.0
C457 C 0.50713 0.89708 0.35323 0.0
C458 C 0.48872 0.85465 0.34997 0.0
C459 C 0.44617 0.8449 0.35951 0.0
H460 H 0.42232 0.94592 0.38635 0.0
C461 C 0.42288 0.87839 0.37288 0.0
C462 C 0.44117 0.92101 0.37593 0.0
H463 H 0.39015 0.87196 0.38064 0.0
H464 H 0.59409 0.11592 0.38145 0.0
H465 H 0.56048 0.04275 0.38705 0.0
H466 H 0.44319 0.08756 0.3472 0.0
H467 H 0.47664 0.16111 0.3417 0.0
H468 H 0.4434 0.01179 0.36709 0.0
H469 H 0.53909 0.97846 0.36603 0.0
H470 H 0.53979 0.90372 0.34541 0.0
H471 H 0.50779 0.8296 0.33977 0.0
C472 C 0.39559 0.05772 0.87132 0.0
C473 C 0.36358 0.0446 0.85297 0.0
C474 C 0.43868 0.04113 0.86998 0.0
C475 C 0.45076 0.01109 0.85019 0.0
C476 C 0.4187 0.9976 0.83205 0.0
C477 C 0.37547 0.01382 0.83354 0.0
C478 C 0.49697 0.99532 0.84702 0.0
C479 C 0.52531 0.99101 0.86703 0.0
C480 C 0.57145 0.97538 0.86354 0.0
C481 C 0.59118 0.95011 0.88324 0.0
C482 C 0.6344 0.93446 0.88041 0.0
C483 C 0.65919 0.94467 0.85804 0.0
H484 H 0.58253 0.0067 0.82608 0.0
C485 C 0.63989 0.97117 0.83865 0.0
C486 C 0.59637 0.9862 0.8413 0.0
H487 H 0.65816 0.97978 0.82123 0.0
H488 H 0.38763 0.0815 0.88649 0.0
H489 H 0.46273 0.05314 0.88394 0.0
H490 H 0.42721 0.9747 0.81652 0.0
H491 H 0.35178 0.00321 0.81898 0.0
H492 H 0.50736 0.98525 0.82765 0.0
H493 H 0.5138 0.99662 0.88678 0.0
H494 H 0.57284 0.9418 0.90069 0.0
H495 H 0.64843 0.91447 0.89582 0.0
loop_
_geom_bond_atom_site_label_1
_geom_bond_atom_site_label_2
_geom_bond_distance
_geom_bond_site_symmetry_2
_ccdc_geom_bond_type
Mg0 O1 2.028 . S
Mg0 O7 1.986 . S
Mg0 O9 2.114 . S
Mg0 O10 2.251 . S
Mg0 O13 2.010 . S
O1 Mg0 2.028 . S
O1 C4 1.250 . S
O2 Mg3 2.028 . S
O2 C4 1.248 . S
Mg3 O2 2.028 . S
Mg3 O8 2.032 . S
Mg3 O10 2.079 . S
C4 O1 1.250 . S
C4 O2 1.248 . S
C5 O6 1.264 . S
C5 O13 1.249 1_655 S
O6 C5 1.264 . S
O7 Mg0 1.986 . S
O7 C11 1.246 . S
O8 Mg3 2.032 . S
O8 C11 1.259 . S
O9 Mg0 2.114 . S
O9 C12 1.252 . S
O10 Mg0 2.251 . S
O10 Mg3 2.079 . S
O10 C12 1.273 . S
C11 O7 1.246 . S
C11 O8 1.259 . S
C12 O9 1.252 . S
C12 O10 1.273 . S
O13 Mg0 2.010 . S
O13 C5 1.249 1_455 S
Mg14 O15 2.028 . S
Mg14 O21 1.986 . S
Mg14 O23 2.114 . S
Mg14 O24 2.251 . S
Mg14 O27 2.010 . S
O15 Mg14 2.028 . S
O15 C18 1.250 . S
O16 Mg17 2.028 . S
O16 C18 1.248 . S
Mg17 O16 2.028 . S
Mg17 O22 2.032 . S
Mg17 O24 2.079 . S
C18 O15 1.250 . S
C18 O16 1.248 . S
C19 O20 1.264 . S
C19 O27 1.249 . S
O20 C19 1.264 . S
O21 Mg14 1.986 . S
O21 C25 1.246 . S
O22 Mg17 2.032 . S
O22 C25 1.259 . S
O23 Mg14 2.114 . S
O23 C26 1.252 . S
O24 Mg14 2.251 . S
O24 Mg17 2.079 . S
O24 C26 1.273 . S
C25 O21 1.246 . S
C25 O22 1.259 . S
C26 O23 1.252 . S
C26 O24 1.273 . S
O27 Mg14 2.010 . S
O27 C19 1.249 . S
Mg28 O29 2.028 . S
Mg28 O35 1.986 . S
Mg28 O37 2.114 . S
Mg28 O38 2.251 . S
Mg28 O41 2.010 . S
O29 Mg28 2.028 . S
O29 C32 1.250 . S
O30 Mg31 2.028 . S
O30 C32 1.248 . S
Mg31 O30 2.028 . S
Mg31 O36 2.032 . S
Mg31 O38 2.079 . S
C32 O29 1.250 . S
C32 O30 1.248 . S
C33 O34 1.264 . S
C33 O41 1.249 1_455 S
O34 C33 1.264 . S
O35 Mg28 1.986 . S
O35 C39 1.246 . S
O36 Mg31 2.032 . S
O36 C39 1.259 . S
O37 Mg28 2.114 . S
O37 C40 1.252 . S
O38 Mg28 2.251 . S
O38 Mg31 2.079 . S
O38 C40 1.273 . S
C39 O35 1.246 . S
C39 O36 1.259 . S
C40 O37 1.252 . S
C40 O38 1.273 . S
O41 Mg28 2.010 . S
O41 C33 1.249 1_655 S
Mg42 O43 2.028 . S
Mg42 O49 1.986 . S
Mg42 O51 2.114 . S
Mg42 O52 2.251 . S
Mg42 O55 2.010 . S
O43 Mg42 2.028 . S
O43 C46 1.250 . S
O44 Mg45 2.028 . S
O44 C46 1.248 . S
Mg45 O44 2.028 . S
Mg45 O50 2.032 . S
Mg45 O52 2.079 . S
C46 O43 1.250 . S
C46 O44 1.248 . S
C47 O48 1.264 . S
C47 O55 1.249 . S
O48 C47 1.264 . S
O49 Mg42 1.986 . S
O49 C53 1.246 . S
O50 Mg45 2.032 . S
O50 C53 1.259 . S
O51 Mg42 2.114 . S
O51 C54 1.252 . S
O52 Mg42 2.251 . S
O52 Mg45 2.079 . S
O52 C54 1.273 . S
C53 O49 1.246 . S
C53 O50 1.259 . S
C54 O51 1.252 . S
C54 O52 1.273 . S
O55 Mg42 2.010 . S
O55 C47 1.249 . S
Mg56 O57 2.028 . S
Mg56 O63 1.986 . S
Mg56 O65 2.114 . S
Mg56 O66 2.251 . S
Mg56 O69 2.010 . S
O57 Mg56 2.028 . S
O57 C60 1.250 . S
O58 Mg59 2.028 . S
O58 C60 1.248 . S
Mg59 O58 2.028 . S
Mg59 O64 2.032 . S
Mg59 O66 2.079 . S
C60 O57 1.250 . S
C60 O58 1.248 . S
C61 O62 1.264 . S
C61 O69 1.249 . S
O62 C61 1.264 . S
O63 Mg56 1.986 . S
O63 C67 1.246 . S
O64 Mg59 2.032 . S
O64 C67 1.259 . S
O65 Mg56 2.114 . S
O65 C68 1.252 . S
O66 Mg56 2.251 . S
O66 Mg59 2.079 . S
O66 C68 1.273 . S
C67 O63 1.246 . S
C67 O64 1.259 . S
C68 O65 1.252 . S
C68 O66 1.273 . S
O69 Mg56 2.010 . S
O69 C61 1.249 . S
Mg70 O71 2.028 . S
Mg70 O77 1.986 . S
Mg70 O79 2.114 . S
Mg70 O80 2.251 . S
Mg70 O83 2.010 . S
O71 Mg70 2.028 . S
O71 C74 1.250 . S
O72 Mg73 2.028 . S
O72 C74 1.248 . S
Mg73 O72 2.028 . S
Mg73 O78 2.032 . S
Mg73 O80 2.079 . S
C74 O71 1.250 . S
C74 O72 1.248 . S
C75 O76 1.264 . S
C75 O83 1.249 1_565 S
O76 C75 1.264 . S
O77 Mg70 1.986 . S
O77 C81 1.246 . S
O78 Mg73 2.032 . S
O78 C81 1.259 . S
O79 Mg70 2.114 . S
O79 C82 1.252 . S
O80 Mg70 2.251 . S
O80 Mg73 2.079 . S
O80 C82 1.273 . S
C81 O77 1.246 . S
C81 O78 1.259 . S
C82 O79 1.252 . S
C82 O80 1.273 . S
O83 Mg70 2.010 . S
O83 C75 1.249 1_545 S
Mg84 O85 2.028 . S
Mg84 O91 1.986 . S
Mg84 O93 2.114 . S
Mg84 O94 2.251 . S
Mg84 O97 2.010 . S
O85 Mg84 2.028 . S
O85 C88 1.250 . S
O86 Mg87 2.028 . S
O86 C88 1.248 . S
Mg87 O86 2.028 . S
Mg87 O92 2.032 . S
Mg87 O94 2.079 . S
C88 O85 1.250 . S
C88 O86 1.248 . S
C89 O90 1.264 . S
C89 O97 1.249 . S
O90 C89 1.264 . S
O91 Mg84 1.986 . S
O91 C95 1.246 . S
O92 Mg87 2.032 . S
O92 C95 1.259 . S
O93 Mg84 2.114 . S
O93 C96 1.252 . S
O94 Mg84 2.251 . S
O94 Mg87 2.079 . S
O94 C96 1.273 . S
C95 O91 1.246 . S
C95 O92 1.259 . S
C96 O93 1.252 . S
C96 O94 1.273 . S
O97 Mg84 2.010 . S
O97 C89 1.249 . S
Mg98 O99 2.028 . S
Mg98 O105 1.986 . S
Mg98 O107 2.114 . S
Mg98 O108 2.251 . S
Mg98 O111 2.010 . S
O99 Mg98 2.028 . S
O99 C102 1.250 . S
O100 Mg101 2.028 . S
O100 C102 1.248 . S
Mg101 O100 2.028 . S
Mg101 O106 2.032 . S
Mg101 O108 2.079 . S
C102 O99 1.250 . S
C102 O100 1.248 . S
C103 O104 1.264 . S
C103 O111 1.249 1_545 S
O104 C103 1.264 . S
O105 Mg98 1.986 . S
O105 C109 1.246 . S
O106 Mg101 2.032 . S
O106 C109 1.259 . S
O107 Mg98 2.114 . S
O107 C110 1.252 . S
O108 Mg98 2.251 . S
O108 Mg101 2.079 . S
O108 C110 1.273 . S
C109 O105 1.246 . S
C109 O106 1.259 . S
C110 O107 1.252 . S
C110 O108 1.273 . S
O111 Mg98 2.010 . S
O111 C103 1.249 1_565 S
C112 C113 1.386 . S
C112 C114 1.383 . S
C112 H128 0.951 . S
C113 C112 1.386 . S
C113 C117 1.383 . S
C114 C112 1.383 . S
C114 C115 1.402 . S
C114 H129 0.951 . S
C115 C114 1.402 . S
C115 C116 1.375 . S
C115 C118 1.481 . S
C116 C115 1.375 . S
C116 C117 1.367 . S
C116 H130 0.951 . S
C117 C113 1.383 . S
C117 C116 1.367 . S
C117 H131 0.950 . S
C118 C115 1.481 . S
C118 C119 1.297 1_554 S
C118 H132 0.950 . S
C119 C118 1.297 1_556 S
C119 C120 1.479 . S
C119 H133 0.950 . S
C120 C119 1.479 . S
C120 C121 1.375 . S
C120 C126 1.404 . S
C121 C120 1.375 . S
C121 C122 1.369 . S
C121 H134 0.950 . S
C122 C121 1.369 . S
C122 C123 1.392 . S
C122 H135 0.951 . S
C123 C122 1.392 . S
C123 C125 1.384 . S
H124 C126 0.949 . S
C125 C123 1.384 . S
C125 C126 1.385 . S
C125 H127 0.950 . S
C126 C120 1.404 . S
C126 H124 0.949 . S
C126 C125 1.385 . S
H127 C125 0.950 . S
H128 C112 0.951 . S
H129 C114 0.951 . S
H130 C116 0.951 . S
H131 C117 0.950 . S
H132 C118 0.950 . S
H133 C119 0.950 . S
H134 C121 0.950 . S
H135 C122 0.951 . S
C136 C137 1.386 . S
C136 C138 1.383 . S
C136 H152 0.951 . S
C137 C136 1.386 . S
C137 C141 1.383 . S
C138 C136 1.383 . S
C138 C139 1.402 . S
C138 H153 0.951 . S
C139 C138 1.402 . S
C139 C140 1.375 . S
C139 C142 1.481 . S
C140 C139 1.375 . S
C140 C141 1.367 . S
C140 H154 0.951 . S
C141 C137 1.383 . S
C141 C140 1.367 . S
C141 H155 0.950 . S
C142 C139 1.481 . S
C142 C143 1.297 . S
C142 H156 0.950 . S
C143 C142 1.297 . S
C143 C144 1.479 . S
C143 H157 0.950 . S
C144 C143 1.479 . S
C144 C145 1.375 . S
C144 C150 1.404 . S
C145 C144 1.375 . S
C145 C146 1.369 . S
C145 H158 0.950 . S
C146 C145 1.369 . S
C146 C147 1.392 . S
C146 H159 0.951 . S
C147 C146 1.392 . S
C147 C149 1.384 . S
H148 C150 0.949 . S
C149 C147 1.384 . S
C149 C150 1.385 . S
C149 H151 0.950 . S
C150 C144 1.404 . S
C150 H148 0.949 . S
C150 C149 1.385 . S
H151 C149 0.950 . S
H152 C136 0.951 . S
H153 C138 0.951 . S
H154 C140 0.951 . S
H155 C141 0.950 . S
H156 C142 0.950 . S
H157 C143 0.950 . S
H158 C145 0.950 . S
H159 C146 0.951 . S
C160 C161 1.386 . S
C160 C162 1.383 . S
C160 H176 0.951 . S
C161 C160 1.386 . S
C161 C165 1.383 . S
C162 C160 1.383 . S
C162 C163 1.402 . S
C162 H177 0.951 . S
C163 C162 1.402 . S
C163 C164 1.375 . S
C163 C166 1.481 . S
C164 C163 1.375 . S
C164 C165 1.367 . S
C164 H178 0.951 . S
C165 C161 1.383 . S
C165 C164 1.367 . S
C165 H179 0.950 . S
C166 C163 1.481 . S
C166 C167 1.297 1_554 S
C166 H180 0.950 . S
C167 C166 1.297 1_556 S
C167 C168 1.479 . S
C167 H181 0.950 . S
C168 C167 1.479 . S
C168 C169 1.375 . S
C168 C174 1.404 . S
C169 C168 1.375 . S
C169 C170 1.369 . S
C169 H182 0.950 . S
C170 C169 1.369 . S
C170 C171 1.392 . S
C170 H183 0.951 . S
C171 C170 1.392 . S
C171 C173 1.384 . S
H172 C174 0.949 . S
C173 C171 1.384 . S
C173 C174 1.385 . S
C173 H175 0.950 . S
C174 C168 1.404 . S
C174 H172 0.949 . S
C174 C173 1.385 . S
H175 C173 0.950 . S
H176 C160 0.951 . S
H177 C162 0.951 . S
H178 C164 0.951 . S
H179 C165 0.950 . S
H180 C166 0.950 . S
H181 C167 0.950 . S
H182 C169 0.950 . S
H183 C170 0.951 . S
C184 C185 1.386 . S
C184 C186 1.383 . S
C184 H200 0.951 . S
C185 C184 1.386 . S
C185 C189 1.383 . S
C186 C184 1.383 . S
C186 C187 1.402 . S
C186 H201 0.951 . S
C187 C186 1.402 . S
C187 C188 1.375 . S
C187 C190 1.481 . S
C188 C187 1.375 . S
C188 C189 1.367 . S
C188 H202 0.951 . S
C189 C185 1.383 . S
C189 C188 1.367 . S
C189 H203 0.950 . S
C190 C187 1.481 . S
C190 C191 1.297 . S
C190 H204 0.950 . S
C191 C190 1.297 . S
C191 C192 1.479 . S
C191 H205 0.950 . S
C192 C191 1.479 . S
C192 C193 1.375 . S
C192 C198 1.404 . S
C193 C192 1.375 . S
C193 C194 1.369 . S
C193 H206 0.950 . S
C194 C193 1.369 . S
C194 C195 1.392 . S
C194 H207 0.951 . S
C195 C194 1.392 . S
C195 C197 1.384 . S
H196 C198 0.949 . S
C197 C195 1.384 . S
C197 C198 1.385 . S
C197 H199 0.950 . S
C198 C192 1.404 . S
C198 H196 0.949 . S
C198 C197 1.385 . S
H199 C197 0.950 . S
H200 C184 0.951 . S
H201 C186 0.951 . S
H202 C188 0.951 . S
H203 C189 0.950 . S
H204 C190 0.950 . S
H205 C191 0.950 . S
H206 C193 0.950 . S
H207 C194 0.951 . S
C208 C209 1.386 . S
C208 C210 1.383 . S
C208 H224 0.951 . S
C209 C208 1.386 . S
C209 C213 1.383 . S
C210 C208 1.383 . S
C210 C211 1.402 . S
C210 H225 0.951 . S
C211 C210 1.402 . S
C211 C212 1.375 . S
C211 C214 1.481 . S
C212 C211 1.375 . S
C212 C213 1.367 . S
C212 H226 0.951 . S
C213 C209 1.383 . S
C213 C212 1.367 . S
C213 H227 0.950 . S
C214 C211 1.481 . S
C214 C215 1.297 . S
C214 H228 0.950 . S
C215 C214 1.297 . S
C215 C216 1.479 . S
C215 H229 0.950 . S
C216 C215 1.479 . S
C216 C217 1.375 . S
C216 C222 1.404 . S
C217 C216 1.375 . S
C217 C218 1.369 . S
C217 H230 0.950 . S
C218 C217 1.369 . S
C218 C219 1.392 . S
C218 H231 0.951 . S
C219 C218 1.392 . S
C219 C221 1.384 . S
H220 C222 0.949 . S
C221 C219 1.384 . S
C221 C222 1.385 . S
C221 H223 0.950 . S
C222 C216 1.404 . S
C222 H220 0.949 . S
C222 C221 1.385 . S
H223 C221 0.950 . S
H224 C208 0.951 . S
H225 C210 0.951 . S
H226 C212 0.951 . S
H227 C213 0.950 . S
H228 C214 0.950 . S
H229 C215 0.950 . S
H230 C217 0.950 . S
H231 C218 0.951 . S
C232 C233 1.386 . S
C232 C234 1.383 . S
C232 H248 0.951 . S
C233 C232 1.386 . S
C233 C237 1.383 . S
C234 C232 1.383 . S
C234 C235 1.402 . S
C234 H249 0.951 . S
C235 C234 1.402 . S
C235 C236 1.375 . S
C235 C238 1.481 . S
C236 C235 1.375 . S
C236 C237 1.367 . S
C236 H250 0.951 . S
C237 C233 1.383 . S
C237 C236 1.367 . S
C237 H251 0.950 . S
C238 C235 1.481 . S
C238 C239 1.297 . S
C238 H252 0.950 . S
C239 C238 1.297 . S
C239 C240 1.479 . S
C239 H253 0.950 . S
C240 C239 1.479 . S
C240 C241 1.375 . S
C240 C246 1.404 . S
C241 C240 1.375 . S
C241 C242 1.369 . S
C241 H254 0.950 . S
C242 C241 1.369 . S
C242 C243 1.392 . S
C242 H255 0.951 . S
C243 C242 1.392 . S
C243 C245 1.384 . S
H244 C246 0.949 . S
C245 C243 1.384 . S
C245 C246 1.385 . S
C245 H247 0.950 . S
C246 C240 1.404 . S
C246 H244 0.949 . S
C246 C245 1.385 . S
H247 C245 0.950 . S
H248 C232 0.951 . S
H249 C234 0.951 . S
H250 C236 0.951 . S
H251 C237 0.950 . S
H252 C238 0.950 . S
H253 C239 0.950 . S
H254 C241 0.950 . S
H255 C242 0.951 . S
C256 C257 1.386 . S
C256 C258 1.383 . S
C256 H272 0.951 . S
C257 C256 1.386 . S
C257 C261 1.383 . S
C258 C256 1.383 . S
C258 C259 1.402 . S
C258 H273 0.951 . S
C259 C258 1.402 . S
C259 C260 1.375 . S
C259 C262 1.481 . S
C260 C259 1.375 . S
C260 C261 1.367 . S
C260 H274 0.951 . S
C261 C257 1.383 . S
C261 C260 1.367 . S
C261 H275 0.950 . S
C262 C259 1.481 . S
C262 C263 1.297 . S
C262 H276 0.950 . S
C263 C262 1.297 . S
C263 C264 1.479 . S
C263 H277 0.950 . S
C264 C263 1.479 . S
C264 C265 1.375 . S
C264 C270 1.404 . S
C265 C264 1.375 . S
C265 C266 1.369 . S
C265 H278 0.950 . S
C266 C265 1.369 . S
C266 C267 1.392 . S
C266 H279 0.951 . S
C267 C266 1.392 . S
C267 C269 1.384 . S
H268 C270 0.949 . S
C269 C267 1.384 . S
C269 C270 1.385 . S
C269 H271 0.950 . S
C270 C264 1.404 . S
C270 H268 0.949 . S
C270 C269 1.385 . S
H271 C269 0.950 . S
H272 C256 0.951 . S
H273 C258 0.951 . S
H274 C260 0.951 . S
H275 C261 0.950 . S
H276 C262 0.950 . S
H277 C263 0.950 . S
H278 C265 0.950 . S
H279 C266 0.951 . S
C280 C281 1.386 . S
C280 C282 1.383 . S
C280 H296 0.951 . S
C281 C280 1.386 . S
C281 C285 1.383 . S
C282 C280 1.383 . S
C282 C283 1.402 . S
C282 H297 0.951 . S
C283 C282 1.402 . S
C283 C284 1.375 . S
C283 C286 1.481 . S
C284 C283 1.375 . S
C284 C285 1.367 . S
C284 H298 0.951 . S
C285 C281 1.383 . S
C285 C284 1.367 . S
C285 H299 0.950 . S
C286 C283 1.481 . S
C286 C287 1.297 . S
C286 H300 0.950 . S
C287 C286 1.297 . S
C287 C288 1.479 . S
C287 H301 0.950 . S
C288 C287 1.479 . S
C288 C289 1.375 . S
C288 C294 1.404 . S
C289 C288 1.375 . S
C289 C290 1.369 . S
C289 H302 0.950 . S
C290 C289 1.369 . S
C290 C291 1.392 . S
C290 H303 0.951 . S
C291 C290 1.392 . S
C291 C293 1.384 . S
H292 C294 0.949 . S
C293 C291 1.384 . S
C293 C294 1.385 . S
C293 H295 0.950 . S
C294 C288 1.404 . S
C294 H292 0.949 . S
C294 C293 1.385 . S
H295 C293 0.950 . S
H296 C280 0.951 . S
H297 C282 0.951 . S
H298 C284 0.951 . S
H299 C285 0.950 . S
H300 C286 0.950 . S
H301 C287 0.950 . S
H302 C289 0.950 . S
H303 C290 0.951 . S
C304 C305 1.386 . S
C304 C306 1.383 . S
C304 H320 0.951 . S
C305 C304 1.386 . S
C305 C309 1.383 . S
C306 C304 1.383 . S
C306 C307 1.402 . S
C306 H321 0.951 . S
C307 C306 1.402 . S
C307 C308 1.375 . S
C307 C310 1.481 . S
C308 C307 1.375 . S
C308 C309 1.367 . S
C308 H322 0.951 . S
C309 C305 1.383 . S
C309 C308 1.367 . S
C309 H323 0.950 . S
C310 C307 1.481 . S
C310 C311 1.297 . S
C310 H324 0.950 . S
C311 C310 1.297 . S
C311 C312 1.479 . S
C311 H325 0.950 . S
C312 C311 1.479 . S
C312 C313 1.375 . S
C312 C318 1.404 . S
C313 C312 1.375 . S
C313 C314 1.369 . S
C313 H326 0.950 . S
C314 C313 1.369 . S
C314 C315 1.392 . S
C314 H327 0.951 . S
C315 C314 1.392 . S
C315 C317 1.384 . S
H316 C318 0.949 . S
C317 C315 1.384 . S
C317 C318 1.385 . S
C317 H319 0.950 . S
C318 C312 1.404 . S
C318 H316 0.949 . S
C318 C317 1.385 . S
H319 C317 0.950 . S
H320 C304 0.951 . S
H321 C306 0.951 . S
H322 C308 0.951 . S
H323 C309 0.950 . S
H324 C310 0.950 . S
H325 C311 0.950 . S
H326 C313 0.950 . S
H327 C314 0.951 . S
C328 C329 1.386 . S
C328 C330 1.383 . S
C328 H344 0.951 . S
C329 C328 1.386 . S
C329 C333 1.383 . S
C330 C328 1.383 . S
C330 C331 1.402 . S
C330 H345 0.951 . S
C331 C330 1.402 . S
C331 C332 1.375 . S
C331 C334 1.481 . S
C332 C331 1.375 . S
C332 C333 1.367 . S
C332 H346 0.951 . S
C333 C329 1.383 . S
C333 C332 1.367 . S
C333 H347 0.950 . S
C334 C331 1.481 . S
C334 C335 1.297 . S
C334 H348 0.950 . S
C335 C334 1.297 . S
C335 C336 1.479 . S
C335 H349 0.950 . S
C336 C335 1.479 . S
C336 C337 1.375 . S
C336 C342 1.404 . S
C337 C336 1.375 . S
C337 C338 1.369 . S
C337 H350 0.950 . S
C338 C337 1.369 . S
C338 C339 1.392 . S
C338 H351 0.951 . S
C339 C338 1.392 . S
C339 C341 1.384 . S
H340 C342 0.949 . S
C341 C339 1.384 . S
C341 C342 1.385 . S
C341 H343 0.950 . S
C342 C336 1.404 . S
C342 H340 0.949 . S
C342 C341 1.385 . S
H343 C341 0.950 . S
H344 C328 0.951 . S
H345 C330 0.951 . S
H346 C332 0.951 . S
H347 C333 0.950 . S
H348 C334 0.950 . S
H349 C335 0.950 . S
H350 C337 0.950 . S
H351 C338 0.951 . S
C352 C353 1.386 . S
C352 C354 1.383 . S
C352 H368 0.951 . S
C353 C352 1.386 . S
C353 C357 1.383 . S
C354 C352 1.383 . S
C354 C355 1.402 . S
C354 H369 0.951 . S
C355 C354 1.402 . S
C355 C356 1.375 . S
C355 C358 1.481 . S
C356 C355 1.375 . S
C356 C357 1.367 . S
C356 H370 0.951 . S
C357 C353 1.383 . S
C357 C356 1.367 . S
C357 H371 0.950 . S
C358 C355 1.481 . S
C358 C359 1.297 . S
C358 H372 0.950 . S
C359 C358 1.297 . S
C359 C360 1.479 . S
C359 H373 0.950 . S
C360 C359 1.479 . S
C360 C361 1.375 . S
C360 C366 1.404 . S
C361 C360 1.375 . S
C361 C362 1.369 . S
C361 H374 0.950 . S
C362 C361 1.369 . S
C362 C363 1.392 . S
C362 H375 0.951 . S
C363 C362 1.392 . S
C363 C365 1.384 . S
H364 C366 0.949 . S
C365 C363 1.384 . S
C365 C366 1.385 . S
C365 H367 0.950 . S
C366 C360 1.404 . S
C366 H364 0.949 . S
C366 C365 1.385 . S
H367 C365 0.950 . S
H368 C352 0.951 . S
H369 C354 0.951 . S
H370 C356 0.951 . S
H371 C357 0.950 . S
H372 C358 0.950 . S
H373 C359 0.950 . S
H374 C361 0.950 . S
H375 C362 0.951 . S
C376 C377 1.386 . S
C376 C378 1.383 . S
C376 H392 0.951 . S
C377 C376 1.386 . S
C377 C381 1.383 . S
C378 C376 1.383 . S
C378 C379 1.402 . S
C378 H393 0.951 . S
C379 C378 1.402 . S
C379 C380 1.375 . S
C379 C382 1.481 . S
C380 C379 1.375 . S
C380 C381 1.367 . S
C380 H394 0.951 . S
C381 C377 1.383 . S
C381 C380 1.367 . S
C381 H395 0.950 . S
C382 C379 1.481 . S
C382 C383 1.297 . S
C382 H396 0.950 . S
C383 C382 1.297 . S
C383 C384 1.479 . S
C383 H397 0.950 . S
C384 C383 1.479 . S
C384 C385 1.375 . S
C384 C390 1.404 . S
C385 C384 1.375 . S
C385 C386 1.369 . S
C385 H398 0.950 . S
C386 C385 1.369 . S
C386 C387 1.392 . S
C386 H399 0.951 . S
C387 C386 1.392 . S
C387 C389 1.384 . S
H388 C390 0.949 . S
C389 C387 1.384 . S
C389 C390 1.385 . S
C389 H391 0.950 . S
C390 C384 1.404 . S
C390 H388 0.949 . S
C390 C389 1.385 . S
H391 C389 0.950 . S
H392 C376 0.951 . S
H393 C378 0.951 . S
H394 C380 0.951 . S
H395 C381 0.950 . S
H396 C382 0.950 . S
H397 C383 0.950 . S
H398 C385 0.950 . S
H399 C386 0.951 . S
C400 C401 1.386 . S
C400 C402 1.383 . S
C400 H416 0.951 . S
C401 C400 1.386 . S
C401 C405 1.383 . S
C402 C400 1.383 . S
C402 C403 1.402 . S
C402 H417 0.951 . S
C403 C402 1.402 . S
C403 C404 1.375 . S
C403 C406 1.481 . S
C404 C403 1.375 . S
C404 C405 1.367 . S
C404 H418 0.951 1_655 S
C405 C401 1.383 . S
C405 C404 1.367 . S
C405 H419 0.950 . S
C406 C403 1.481 . S
C406 C407 1.297 . S
C406 H420 0.950 1_655 S
C407 C406 1.297 . S
C407 C408 1.475 1_655 S
C407 H421 0.950 . S
C408 C407 1.475 1_455 S
C408 C409 1.373 1_455 S
C408 C414 1.411 . S
C409 C408 1.373 1_655 S
C409 C410 1.369 1_655 S
C409 H422 0.950 . S
C410 C409 1.369 1_455 S
C410 C411 1.392 . S
C410 H423 0.951 . S
C411 C410 1.392 . S
C411 C413 1.384 . S
H412 C414 0.949 . S
C413 C411 1.384 . S
C413 C414 1.385 . S
C413 H415 0.950 . S
C414 C408 1.411 . S
C414 H412 0.949 . S
C414 C413 1.385 . S
H415 C413 0.950 . S
H416 C400 0.951 . S
H417 C402 0.951 . S
H418 C404 0.951 1_455 S
H419 C405 0.950 . S
H420 C406 0.950 1_455 S
H421 C407 0.950 . S
H422 C409 0.950 . S
H423 C410 0.951 . S
C424 C425 1.386 . S
C424 C426 1.383 . S
C424 H440 0.951 . S
C425 C424 1.386 . S
C425 C429 1.383 . S
C426 C424 1.383 . S
C426 C427 1.402 . S
C426 H441 0.951 . S
C427 C426 1.402 . S
C427 C428 1.375 . S
C427 C430 1.481 . S
C428 C427 1.375 . S
C428 C429 1.367 . S
C428 H442 0.951 . S
C429 C425 1.383 . S
C429 C428 1.367 . S
C429 H443 0.950 . S
C430 C427 1.481 . S
C430 C431 1.297 1_655 S
C430 H444 0.950 1_655 S
C431 C430 1.297 1_455 S
C431 C432 1.479 . S
C431 H445 0.950 . S
C432 C431 1.479 . S
C432 C433 1.375 . S
C432 C438 1.404 . S
C433 C432 1.375 . S
C433 C434 1.369 . S
C433 H446 0.950 . S
C434 C433 1.369 . S
C434 C435 1.392 . S
C434 H447 0.951 . S
C435 C434 1.392 . S
C435 C437 1.384 . S
H436 C438 0.949 . S
C437 C435 1.384 . S
C437 C438 1.385 . S
C437 H439 0.950 . S
C438 C432 1.404 . S
C438 H436 0.949 . S
C438 C437 1.385 . S
H439 C437 0.950 . S
H440 C424 0.951 . S
H441 C426 0.951 . S
H442 C428 0.951 . S
H443 C429 0.950 . S
H444 C430 0.950 1_455 S
H445 C431 0.950 . S
H446 C433 0.950 . S
H447 C434 0.951 . S
C448 C449 1.386 . S
C448 C450 1.383 . S
C448 H464 0.951 . S
C449 C448 1.386 . S
C449 C453 1.383 . S
C450 C448 1.383 . S
C450 C451 1.402 . S
C450 H465 0.951 . S
C451 C450 1.402 . S
C451 C452 1.375 . S
C451 C454 1.481 . S
C452 C451 1.375 . S
C452 C453 1.367 . S
C452 H466 0.951 . S
C453 C449 1.383 . S
C453 C452 1.367 . S
C453 H467 0.950 . S
C454 C451 1.481 . S
C454 C455 1.297 1_545 S
C454 H468 0.950 . S
C455 C454 1.297 1_565 S
C455 C456 1.479 . S
C455 H469 0.950 . S
C456 C455 1.479 . S
C456 C457 1.375 . S
C456 C462 1.404 . S
C457 C456 1.375 . S
C457 C458 1.369 . S
C457 H470 0.950 . S
C458 C457 1.369 . S
C458 C459 1.392 . S
C458 H471 0.951 . S
C459 C458 1.392 . S
C459 C461 1.384 . S
H460 C462 0.949 . S
C461 C459 1.384 . S
C461 C462 1.385 . S
C461 H463 0.950 . S
C462 C456 1.404 . S
C462 H460 0.949 . S
C462 C461 1.385 . S
H463 C461 0.950 . S
H464 C448 0.951 . S
H465 C450 0.951 . S
H466 C452 0.951 . S
H467 C453 0.950 . S
H468 C454 0.950 . S
H469 C455 0.950 . S
H470 C457 0.950 . S
H471 C458 0.951 . S
C472 C473 1.386 . S
C472 C474 1.383 . S
C472 H488 0.951 . S
C473 C472 1.386 . S
C473 C477 1.383 . S
C474 C472 1.383 . S
C474 C475 1.402 . S
C474 H489 0.951 . S
C475 C474 1.402 . S
C475 C476 1.375 . S
C475 C478 1.481 1_545 S
C476 C475 1.375 . S
C476 C477 1.367 . S
C476 H490 0.951 1_545 S
C477 C473 1.383 . S
C477 C476 1.367 . S
C477 H491 0.950 . S
C478 C475 1.481 1_565 S
C478 C479 1.297 . S
C478 H492 0.950 . S
C479 C478 1.297 . S
C479 C480 1.479 . S
C479 H493 0.950 . S
C480 C479 1.479 . S
C480 C481 1.375 . S
C480 C486 1.404 . S
C481 C480 1.375 . S
C481 C482 1.369 . S
C481 H494 0.950 . S
C482 C481 1.369 . S
C482 C483 1.392 . S
C482 H495 0.951 . S
C483 C482 1.392 . S
C483 C485 1.384 . S
H484 C486 0.949 . S
C485 C483 1.384 . S
C485 C486 1.385 . S
C485 H487 0.950 . S
C486 C480 1.404 . S
C486 H484 0.949 . S
C486 C485 1.385 . S
H487 C485 0.950 . S
H488 C472 0.951 . S
H489 C474 0.951 . S
H490 C476 0.951 1_565 S
H491 C477 0.950 . S
H492 C478 0.950 . S
H493 C479 0.950 . S
H494 C481 0.950 . S
H495 C482 0.951 . S
C113 C12 1.367 . S
C123 C82 1.369 . S
C137 C26 1.386 . S
C147 C96 1.378 . S
C161 C40 1.368 . S
C171 C110 1.371 . S
C185 C68 1.381 . S
C195 C54 1.387 . S
C209 C11 1.321 . S
C219 C61 1.281 . S
C233 C25 1.378 . S
C243 C75 1.324 . S
C257 C89 1.330 . S
C267 C39 1.312 . S
C281 C53 1.326 . S
C291 C103 1.246 . S
C305 C67 1.340 . S
C315 C5 1.358 . S
C329 C19 1.316 . S
C339 C81 1.299 . S
C353 C95 1.341 . S
C363 C33 1.359 . S
C377 C47 1.277 . S
C387 C109 1.381 . S
C401 C32 0.737 . S
C411 C4 0.783 . S
C425 C46 0.716 . S
C435 C18 0.788 . S
C449 C60 0.742 . S
C459 C88 0.778 . S
C473 C74 0.771 . S
C483 C102 0.698 . S
