# Generated by pormake.
# Topology fcu, (12)-cn, num edge types: 1
# Building blocks:
#     Node 0, Type 0, BuildingBlock: ENOWUB_clean_sbu_0, # of connection points: 12
#     Node 1, Type 0, BuildingBlock: ENOWUB_clean_sbu_0, # of connection points: 12
#     Node 2, Type 0, BuildingBlock: ENOWUB_clean_sbu_0, # of connection points: 12
#     Node 3, Type 0, BuildingBlock: ENOWUB_clean_sbu_0, # of connection points: 12
#     Edge 4, Type (0, 0), BuildingBlock: XIVTED_clean_linker_0, # of connection points: 2
#     Edge 5, Type (0, 0), BuildingBlock: XIVTED_clean_linker_0, # of connection points: 2
#     Edge 6, Type (0, 0), BuildingBlock: XIVTED_clean_linker_0, # of connection points: 2
#     Edge 7, Type (0, 0), BuildingBlock: XIVTED_clean_linker_0, # of connection points: 2
#     Edge 8, Type (0, 0), BuildingBlock: XIVTED_clean_linker_0, # of connection points: 2
#     Edge 9, Type (0, 0), BuildingBlock: XIVTED_clean_linker_0, # of connection points: 2
#     Edge 10, Type (0, 0), BuildingBlock: XIVTED_clean_linker_0, # of connection points: 2
#     Edge 11, Type (0, 0), BuildingBlock: XIVTED_clean_linker_0, # of connection points: 2
#     Edge 12, Type (0, 0), BuildingBlock: XIVTED_clean_linker_0, # of connection points: 2
#     Edge 13, Type (0, 0), BuildingBlock: XIVTED_clean_linker_0, # of connection points: 2
#     Edge 14, Type (0, 0), BuildingBlock: XIVTED_clean_linker_0, # of connection points: 2
#     Edge 15, Type (0, 0), BuildingBlock: XIVTED_clean_linker_0, # of connection points: 2
#     Edge 16, Type (0, 0), BuildingBlock: XIVTED_clean_linker_0, # of connection points: 2
#     Edge 17, Type (0, 0), BuildingBlock: XIVTED_clean_linker_0, # of connection points: 2
#     Edge 18, Type (0, 0), BuildingBlock: XIVTED_clean_linker_0, # of connection points: 2
#     Edge 19, Type (0, 0), BuildingBlock: XIVTED_clean_linker_0, # of connection points: 2
#     Edge 20, Type (0, 0), BuildingBlock: XIVTED_clean_linker_0, # of connection points: 2
#     Edge 21, Type (0, 0), BuildingBlock: XIVTED_clean_linker_0, # of connection points: 2
#     Edge 22, Type (0, 0), BuildingBlock: XIVTED_clean_linker_0, # of connection points: 2
#     Edge 23, Type (0, 0), BuildingBlock: XIVTED_clean_linker_0, # of connection points: 2
#     Edge 24, Type (0, 0), BuildingBlock: XIVTED_clean_linker_0, # of connection points: 2
#     Edge 25, Type (0, 0), BuildingBlock: XIVTED_clean_linker_0, # of connection points: 2
#     Edge 26, Type (0, 0), BuildingBlock: XIVTED_clean_linker_0, # of connection points: 2
#     Edge 27, Type (0, 0), BuildingBlock: XIVTED_clean_linker_0, # of connection points: 2
# Relax obj value: 0.000
# Max RMSD: 0.000
# Mean RMSD: 0.000
data_MOF--net-fcu--node1-ENOWUB_clean_sbu_0--edge1-XIVTED_clean_linker_0
_symmetry_space_group_name_H-M    P1
_symmetry_Int_Tables_number       1
_symmetry_cell_setting            triclinic
loop_
_symmetry_equiv_pos_as_xyz
'x, y, z'
_cell_length_a     26.890938
_cell_length_b     26.921122
_cell_length_c     26.960501
_cell_angle_alpha  89.952619
_cell_angle_beta   89.937904
_cell_angle_gamma 90.072832
loop_
_atom_site_label
_atom_site_type_symbol
_atom_site_fract_x
_atom_site_fract_y
_atom_site_fract_z
_atom_type_partial_charge
O0 O 0.14495 0.93852 0.97226 0.0
O1 O 0.06051 0.96162 0.03948 0.0
O2 O 0.02426 0.0406 0.92504 0.0
O3 O 0.04216 0.94422 0.94301 0.0
O4 O 0.04057 0.06018 0.02352 0.0
Zr5 Zr 0.0896 0.00959 0.97308 0.0
Zr6 Zr 0.00942 0.01165 0.08845 0.0
Zr7 Zr 0.01233 0.89649 0.00818 0.0
O8 O 0.94386 0.04138 0.04127 0.0
O9 O 0.94553 0.92541 0.96075 0.0
O10 O 0.96184 0.94496 0.05926 0.0
Zr11 Zr 0.97375 0.08906 0.97612 0.0
Zr12 Zr 0.97659 0.97398 0.89578 0.0
Zr13 Zr 0.89651 0.97595 0.01124 0.0
O14 O 0.92555 0.02395 0.94484 0.0
O15 O 0.84116 0.047 0.01216 0.0
O16 O 0.87432 0.89187 0.03463 0.0
O17 O 0.11181 0.09368 0.94974 0.0
O18 O 0.94989 0.11188 0.89265 0.0
O19 O 0.03585 0.87378 0.09186 0.0
O20 O 0.01215 0.84141 0.93701 0.0
O21 O 0.97375 0.14416 0.0472 0.0
O22 O 0.93804 0.01205 0.14349 0.0
O23 O 0.04803 0.97358 0.84077 0.0
O24 O 0.89242 0.95104 0.8733 0.0
O25 O 0.09337 0.03498 0.11101 0.0
O26 O 0.88926 0.1149 -0.00674 0.0
O27 O 0.09685 0.87064 0.99122 0.0
O28 O 0.94336 0.8423 0.02915 0.0
O29 O 0.04275 0.14324 0.95519 0.0
O30 O 0.14355 0.02979 0.04239 0.0
O31 O 0.84246 0.95585 0.94209 0.0
O32 O 0.87034 0.99243 0.09559 0.0
O33 O 0.11574 -0.00684 0.8887 0.0
C34 C 0.13813 0.8915 0.97839 0.0
O35 O -0.00654 0.09621 0.11471 0.0
O36 O 0.03009 0.94227 0.142 0.0
C37 C 0.848 0.09403 0.00611 0.0
C38 C 0.89676 0.84964 0.03771 0.0
C39 C 0.08936 0.13592 0.94667 0.0
C40 C 0.94706 0.08995 0.85022 0.0
C41 C 0.03873 0.89581 0.13425 0.0
C42 C 0.00517 0.84806 0.89015 0.0
C43 C 0.98055 0.13748 0.09406 0.0
C44 C 0.89103 0.0055 0.13671 0.0
C45 C 0.09505 0.98013 0.84755 0.0
C46 C 0.85 0.94787 0.89552 0.0
C47 C 0.13584 0.03807 0.0889 0.0
O48 O 0.99226 0.88934 0.86953 0.0
O49 O 0.95592 0.04354 0.84232 0.0
O50 O 0.11167 0.39147 0.45002 0.0
O51 O 0.04058 0.42527 0.52362 0.0
O52 O 0.04238 0.54087 0.44232 0.0
O53 O 0.02405 0.44424 0.42517 0.0
O54 O 0.0609 0.52388 0.53889 0.0
Zr55 Zr 0.08961 0.47558 0.4727 0.0
Zr56 Zr 0.00985 0.47413 0.58838 0.0
Zr57 Zr 0.97358 0.396 0.47662 0.0
O58 O 0.96242 0.54064 0.55881 0.0
O59 O 0.92546 0.46102 0.44519 0.0
O60 O 0.94396 0.44397 0.54171 0.0
Zr61 Zr 0.01288 0.58893 0.50733 0.0
Zr62 Zr 0.9765 0.51068 0.3957 0.0
Zr63 Zr 0.89678 0.50939 0.51135 0.0
O64 O 0.94581 0.55968 0.46038 0.0
O65 O 0.87481 0.59372 0.5336 0.0
O66 O 0.8412 0.43845 0.51221 0.0
O67 O 0.14521 0.54645 0.47175 0.0
O68 O 0.01344 0.6433 0.4356 0.0
O69 O 0.97398 0.34141 0.54803 0.0
O70 O 0.95006 0.37262 0.39316 0.0
O71 O 0.03598 0.61233 0.59092 0.0
O72 O 0.93886 0.47482 0.64376 0.0
O73 O 0.04741 0.50994 0.34023 0.0
O74 O 0.89255 0.53399 0.37325 0.0
O75 O 0.09392 0.45126 0.61085 0.0
O76 O 0.9439 0.64334 0.52744 0.0
O77 O 0.04264 0.34172 0.45612 0.0
O78 O 0.88871 0.37037 0.4931 0.0
O79 O 0.09778 0.61452 0.49106 0.0
O80 O 0.14381 0.45582 0.54197 0.0
O81 O 0.84261 0.5292 0.44209 0.0
O82 O 0.87094 0.49444 0.59624 0.0
O83 O 0.1154 0.49081 0.38784 0.0
C84 C 0.08924 0.34916 0.44738 0.0
O85 O 0.0304 0.54402 0.64149 0.0
O86 O -0.00599 0.38959 0.61526 0.0
C87 C 0.89727 0.63603 0.53608 0.0
C88 C 0.84754 0.39143 0.50581 0.0
C89 C 0.13891 0.59346 0.47824 0.0
C90 C 0.00665 0.63615 0.38881 0.0
C91 C 0.9811 0.3482 0.5948 0.0
C92 C 0.94702 0.39447 0.35066 0.0
C93 C 0.03883 0.59054 0.63347 0.0
C94 C 0.89189 0.48186 0.63742 0.0
C95 C 0.09442 0.50321 0.34662 0.0
C96 C 0.85017 0.5372 0.39549 0.0
C97 C 0.13628 0.448 0.5886 0.0
O98 O 0.95555 0.44095 0.34264 0.0
O99 O -0.00668 0.59481 0.36861 0.0
O100 O 0.64361 0.02978 0.44234 0.0
O101 O 0.54058 0.0599 0.4608 0.0
O102 O 0.54186 0.9436 0.5411 0.0
O103 O 0.56059 0.96131 0.44469 0.0
O104 O 0.52388 0.04008 0.55914 0.0
Zr105 Zr 0.58934 0.00906 0.51124 0.0
Zr106 Zr 0.4736 0.08882 0.50809 0.0
Zr107 Zr 0.50978 0.01157 0.39571 0.0
O108 O 0.42541 0.02349 0.53915 0.0
O109 O 0.46208 0.94486 0.42473 0.0
O110 O 0.44394 0.04142 0.44266 0.0
Zr111 Zr 0.47622 0.97336 0.58827 0.0
Zr112 Zr 0.51222 0.8961 0.4758 0.0
Zr113 Zr 0.39659 0.97579 0.47257 0.0
O114 O 0.4453 0.92502 0.52316 0.0
O115 O 0.34236 0.95502 0.54154 0.0
O116 O 0.37082 0.99164 0.3879 0.0
O117 O 0.61528 0.99237 0.59556 0.0
O118 O 0.49227 0.88878 0.61445 0.0
O119 O 0.49369 0.0961 0.36942 0.0
O120 O 0.53067 0.94229 0.34209 0.0
O121 O 0.4559 0.04273 0.642 0.0
O122 O 0.38868 0.11457 0.49253 0.0
O123 O 0.59672 0.87018 0.49265 0.0
O124 O 0.44312 0.84207 0.45485 0.0
O125 O 0.54285 0.14285 0.5288 0.0
O126 O 0.39201 0.95017 0.61045 0.0
O127 O 0.59391 0.03496 0.37349 0.0
O128 O 0.43884 0.01121 0.34029 0.0
O129 O 0.54748 0.97268 0.64345 0.0
O130 O 0.6116 0.09293 0.5349 0.0
O131 O 0.3743 0.89192 0.44901 0.0
O132 O 0.3411 0.04663 0.4728 0.0
O133 O 0.6447 0.93799 0.5119 0.0
C134 C 0.63622 0.03813 0.39582 0.0
O135 O 0.45058 0.1114 0.59195 0.0
O136 O 0.47343 0.14389 0.43686 0.0
C137 C 0.34972 0.94689 0.5881 0.0
C138 C 0.3918 0.00435 0.34672 0.0
C139 C 0.59452 0.97922 0.63668 0.0
C140 C 0.50544 0.8476 0.59384 0.0
C141 C 0.48048 0.13728 0.39001 0.0
C142 C 0.53906 0.89575 0.34977 0.0
C143 C 0.44762 0.08929 0.63434 0.0
C144 C 0.34746 0.09358 0.47979 0.0
C145 C 0.63793 0.89099 0.50559 0.0
C146 C 0.3966 0.84962 0.44604 0.0
C147 C 0.58936 0.13527 0.53769 0.0
O148 O 0.53591 0.8736 0.39212 0.0
O149 O 0.51235 0.84097 0.54698 0.0
O150 O 0.61149 0.39142 0.03383 0.0
O151 O 0.52388 0.44421 0.05883 0.0
O152 O 0.5611 0.52444 0.94539 0.0
O153 O 0.54073 0.42575 0.96032 0.0
O154 O 0.54216 0.54089 0.04186 0.0
Zr155 Zr 0.58961 0.47578 0.01149 0.0
Zr156 Zr 0.47627 0.51055 0.08845 0.0
Zr157 Zr 0.47358 0.39623 0.00712 0.0
O158 O 0.44566 0.55975 0.02387 0.0
O159 O 0.44419 0.44459 0.94228 0.0
O160 O 0.4253 0.46105 0.0388 0.0
Zr161 Zr 0.51279 0.58926 0.97702 0.0
Zr162 Zr 0.51012 0.47495 0.89575 0.0
Zr163 Zr 0.39676 0.50971 0.97271 0.0
O164 O 0.46248 0.54127 0.92534 0.0
O165 O 0.37485 0.5941 0.95052 0.0
O166 O 0.34135 0.43858 0.97075 0.0
O167 O 0.64501 0.54691 0.01351 0.0
O168 O 0.53686 0.61297 0.89367 0.0
O169 O 0.44955 0.3725 0.09046 0.0
O170 O 0.47369 0.342 0.93535 0.0
O171 O 0.5129 0.64344 0.04879 0.0
O172 O 0.39236 0.53419 0.11075 0.0
O173 O 0.59404 0.45136 0.87347 0.0
O174 O 0.43928 0.47589 0.84016 0.0
O175 O 0.5471 0.50966 0.14404 0.0
O176 O 0.44392 0.64371 0.95682 0.0
O177 O 0.54242 0.34181 0.02751 0.0
O178 O 0.38914 0.37056 0.98949 0.0
O179 O 0.59722 0.61493 -0.00526 0.0
O180 O 0.61515 0.49044 0.09644 0.0
O181 O 0.37124 0.4952 0.88773 0.0
O182 O 0.34252 0.52949 0.04194 0.0
O183 O 0.64387 0.456 0.94228 0.0
C184 C 0.589 0.34911 0.03629 0.0
O185 O 0.49311 0.5946 0.11575 0.0
O186 O 0.45501 0.44058 0.14119 0.0
C187 C 0.39733 0.63642 0.94811 0.0
C188 C 0.34804 0.39151 0.97653 0.0
C189 C 0.6383 0.59398 0.00775 0.0
C190 C 0.54003 0.59128 0.85112 0.0
C191 C 0.44643 0.39415 0.13303 0.0
C192 C 0.48051 0.34934 0.88856 0.0
C193 C 0.50624 0.63608 0.09559 0.0
C194 C 0.35005 0.53756 0.0885 0.0
C195 C 0.63635 0.44797 0.89572 0.0
C196 C 0.39226 0.48282 0.84651 0.0
C197 C 0.59412 0.50281 0.13767 0.0
O198 O 0.4936 0.39085 0.86844 0.0
O199 O 0.53146 0.54485 0.84299 0.0
H200 H 0.98074 0.23763 0.07357 0.0
H201 H 0.90062 0.30458 0.35066 0.0
H202 H 0.9516 0.13134 0.1902 0.0
H203 H 0.97058 0.41107 0.25296 0.0
H204 H 0.8989 0.24481 0.2831 0.0
H205 H 0.95999 0.30501 0.13147 0.0
C206 C 0.96999 0.22853 0.11123 0.0
C207 C 0.96889 0.17899 0.12751 0.0
C208 C 0.91417 0.28143 0.27625 0.0
C209 C 0.94416 0.25517 0.19291 0.0
C210 C 0.91509 0.31559 0.31477 0.0
C211 C 0.93687 0.36239 0.30767 0.0
C212 C 0.93557 0.29395 0.23044 0.0
C213 C 0.95396 0.37511 0.26009 0.0
C214 C 0.95804 0.26684 0.14405 0.0
C215 C 0.95416 0.16905 0.17641 0.0
N216 N 0.95377 0.34064 0.2233 0.0
N217 N 0.94246 0.20679 0.20733 0.0
H218 H 0.79744 0.0412 0.12899 0.0
H219 H 0.73396 0.01512 0.41387 0.0
H220 H 0.90874 0.00087 0.23706 0.0
H221 H 0.63749 0.08371 0.30574 0.0
H222 H 0.80173 0.01701 0.3532 0.0
H223 H 0.74085 0.06233 0.19566 0.0
C224 C 0.80981 0.03641 0.16694 0.0
C225 C 0.85736 0.01816 0.17767 0.0
C226 C 0.76596 0.03246 0.34318 0.0
C227 C 0.79272 0.04275 0.25448 0.0
C228 C 0.72733 0.03157 0.3778 0.0
C229 C 0.67977 0.0482 0.3643 0.0
C230 C 0.75658 0.04996 0.29502 0.0
C231 C 0.67325 0.06932 0.31726 0.0
C232 C 0.77765 0.04907 0.20507 0.0
C233 C 0.87204 0.01423 0.22742 0.0
N234 N 0.71103 0.06894 0.2841 0.0
N235 N 0.83944 0.02577 0.26423 0.0
H236 H 0.01667 0.91371 0.23207 0.0
H237 H 0.04006 0.62807 0.29447 0.0
H238 H 0.08331 0.80511 0.13472 0.0
H239 H 0.00357 0.73666 0.40653 0.0
H240 H 0.06083 0.69469 0.23759 0.0
H241 H 0.0185 0.85273 0.29942 0.0
C242 C 0.03266 0.87745 0.22513 0.0
C243 C 0.04876 0.86396 0.17746 0.0
C244 C 0.04851 0.7042 0.27463 0.0
C245 C 0.05044 0.79433 0.25383 0.0
C246 C 0.03605 0.66612 0.30697 0.0
C247 C 0.01903 0.67701 0.35487 0.0
C248 C 0.04324 0.75373 0.28989 0.0
C249 C 0.01602 0.72688 0.36961 0.0
C250 C 0.03352 0.84267 0.26353 0.0
C251 C 0.06933 0.81667 0.17058 0.0
N252 N 0.02737 0.76364 0.33688 0.0
N253 N 0.06891 0.78335 0.20815 0.0
H254 H 0.41289 0.00311 0.24683 0.0
H255 H 0.13655 0.0857 0.17779 0.0
H256 H 0.29551 0.03349 0.35201 0.0
H257 H 0.23337 0.01279 0.07276 0.0
H258 H 0.20413 0.08701 0.23764 0.0
H259 H 0.35536 0.02356 0.17899 0.0
C260 C 0.37514 0.01408 0.25559 0.0
C261 C 0.35856 0.01568 0.30495 0.0
C262 C 0.2108 0.07118 0.20131 0.0
C263 C 0.29362 0.04009 0.22827 0.0
C264 C 0.17229 0.07051 0.16711 0.0
C265 C 0.1791 0.04804 0.12073 0.0
C266 C 0.25633 0.04884 0.18927 0.0
C267 C 0.22649 0.03 0.10839 0.0
C268 C 0.34255 0.02585 0.21702 0.0
C269 C 0.30956 0.03061 0.31446 0.0
N270 N 0.26328 0.02997 0.14293 0.0
N271 N 0.27888 0.04218 0.27647 0.0
H272 H 0.0048 0.74787 0.91065 0.0
H273 H 0.08492 0.68059 0.63357 0.0
H274 H 0.03357 0.85405 0.79383 0.0
H275 H 0.01468 0.57413 0.7311 0.0
H276 H 0.08614 0.74049 0.701 0.0
H277 H 0.02509 0.68041 0.85265 0.0
C278 C 0.01538 0.75694 0.87293 0.0
C279 C 0.01655 0.80647 0.85666 0.0
C280 C 0.07091 0.70385 0.70785 0.0
C281 C 0.04075 0.73019 0.79113 0.0
C282 C 0.07028 0.6696 0.6694 0.0
C283 C 0.04861 0.62275 0.67647 0.0
C284 C 0.04935 0.69137 0.7536 0.0
C285 C 0.03126 0.61011 0.72399 0.0
C286 C 0.02705 0.71857 0.84005 0.0
C287 C 0.03101 0.81635 0.80766 0.0
N288 N 0.03121 0.64465 0.76073 0.0
N289 N 0.04247 0.77856 0.7767 0.0
H290 H 0.18884 0.94489 0.85519 0.0
H291 H 0.25202 0.97021 0.57014 0.0
H292 H 0.07723 0.98453 0.74718 0.0
H293 H 0.34839 0.90144 0.67824 0.0
H294 H 0.18433 0.9687 0.63094 0.0
H295 H 0.24541 0.92382 0.78848 0.0
C296 C 0.17639 0.94954 0.81724 0.0
C297 C 0.12874 0.96755 0.80655 0.0
C298 C 0.22006 0.95312 0.64092 0.0
C299 C 0.19337 0.94302 0.72969 0.0
C300 C 0.25863 0.9538 0.60623 0.0
C301 C 0.30616 0.93699 0.61967 0.0
C302 C 0.22944 0.93567 0.68909 0.0
C303 C 0.31266 0.91594 0.66675 0.0
C304 C 0.20854 0.93691 0.77909 0.0
C305 C 0.11399 0.97133 0.7568 0.0
N306 N 0.27493 0.91653 0.69997 0.0
N307 N 0.14658 0.95981 0.71997 0.0
H308 H 0.98121 0.24829 0.57393 0.0
H309 H 0.8997 0.17918 0.85007 0.0
H310 H 0.95322 0.35377 0.69135 0.0
H311 H 0.97139 0.07388 0.75269 0.0
H312 H 0.89841 0.23937 0.78277 0.0
H313 H 0.96031 0.18054 0.63142 0.0
C314 C 0.9707 0.25714 0.6117 0.0
C315 C 0.96985 0.30655 0.62827 0.0
C316 C 0.91394 0.2029 0.77594 0.0
C317 C 0.94492 0.22994 0.6932 0.0
C318 C 0.91461 0.1685 0.81428 0.0
C319 C 0.93681 0.12196 0.80722 0.0
C320 C 0.93598 0.19085 0.73036 0.0
C321 C 0.95445 0.10964 0.75978 0.0
C322 C 0.95865 0.21861 0.64427 0.0
C323 C 0.95549 0.31616 0.67731 0.0
N324 N 0.95448 0.14434 0.72317 0.0
N325 N 0.94364 0.27819 0.708 0.0
H326 H 0.68799 0.94328 0.62887 0.0
H327 H 0.75214 0.97067 0.91365 0.0
H328 H 0.57704 0.9844 0.73716 0.0
H329 H 0.84897 0.90321 0.80504 0.0
H330 H 0.68434 0.96869 0.85311 0.0
H331 H 0.74491 0.92293 0.6954 0.0
C332 C 0.67575 0.94838 0.66684 0.0
C333 C 0.6282 0.96665 0.67764 0.0
C334 C 0.72022 0.95354 0.84295 0.0
C335 C 0.69327 0.94299 0.75434 0.0
C336 C 0.75886 0.95448 0.87748 0.0
C337 C 0.80651 0.93811 0.86387 0.0
C338 C 0.72963 0.93621 0.79474 0.0
C339 C 0.81314 0.91735 0.81669 0.0
C340 C 0.70811 0.93619 0.70491 0.0
C341 C 0.61372 0.971 0.72745 0.0
N342 N 0.77532 0.91762 0.78365 0.0
N343 N 0.64652 0.95992 0.76419 0.0
H344 H 0.35581 0.29924 0.938 0.0
H345 H 0.07094 0.23362 0.96908 0.0
H346 H 0.24742 0.40855 0.98291 0.0
H347 H 0.1795 0.13728 0.90076 0.0
H348 H 0.13122 0.30175 0.9659 0.0
H349 H 0.28901 0.24248 0.91723 0.0
C350 C 0.31775 0.31114 0.94381 0.0
C351 C 0.30698 0.35811 0.96334 0.0
C352 C 0.14142 0.26591 0.95081 0.0
C353 C 0.23003 0.29328 0.93931 0.0
C354 C 0.10703 0.22707 0.95246 0.0
C355 C 0.12076 0.17948 0.93624 0.0
C356 C 0.1896 0.25675 0.93293 0.0
C357 C 0.16781 0.17308 0.91484 0.0
C358 C 0.27954 0.27889 0.9314 0.0
C359 C 0.25709 0.37227 0.96855 0.0
N360 N 0.20074 0.2111 0.91444 0.0
N361 N 0.22023 0.33956 0.9573 0.0
H362 H 0.41537 0.73388 0.97217 0.0
H363 H 0.13059 0.7986 0.94124 0.0
H364 H 0.30756 0.63812 0.90175 0.0
H365 H 0.23874 0.90894 0.98466 0.0
H366 H 0.19752 0.74196 0.92094 0.0
H367 H 0.35494 0.80179 0.96968 0.0
C368 C 0.37942 0.72743 0.95525 0.0
C369 C 0.36593 0.68003 0.9382 0.0
C370 C 0.20691 0.77857 0.93469 0.0
C371 C 0.29693 0.75702 0.93569 0.0
C372 C 0.16861 0.81076 0.94684 0.0
C373 C 0.17927 0.85802 0.96575 0.0
C374 C 0.25639 0.79331 0.94221 0.0
C375 C 0.22915 0.87246 0.97075 0.0
C376 C 0.34494 0.76613 0.95399 0.0
C377 C 0.31905 0.67374 0.91645 0.0
N378 N 0.26609 0.83981 0.95972 0.0
N379 N 0.28604 0.7116 0.91645 0.0
H380 H 0.57086 0.2516 0.01256 0.0
H381 H 0.8556 0.18679 0.04359 0.0
H382 H 0.67876 0.34749 0.08267 0.0
H383 H 0.7474 0.07665 -0.0002 0.0
H384 H 0.78869 0.24341 0.06405 0.0
H385 H 0.63123 0.18366 0.01524 0.0
C386 C 0.60682 0.25808 0.02945 0.0
C387 C 0.62035 0.30552 0.04634 0.0
C388 C 0.77929 0.20685 0.05019 0.0
C389 C 0.68928 0.22848 0.04908 0.0
C390 C 0.81757 0.17468 0.03794 0.0
C391 C 0.80688 0.12748 0.01886 0.0
C392 C 0.7298 0.19216 0.04258 0.0
C393 C 0.75701 0.11308 0.01383 0.0
C394 C 0.64126 0.21935 0.03082 0.0
C395 C 0.66723 0.31183 0.06808 0.0
N396 N 0.72008 0.14572 0.02494 0.0
N397 N 0.70022 0.27394 0.06819 0.0
H398 H 0.91529 0.75189 0.01558 0.0
H399 H 0.63044 0.68612 0.04659 0.0
H400 H 0.80657 0.84832 0.08354 0.0
H401 H 0.73892 0.57704 0.00135 0.0
H402 H 0.6972 0.74287 0.06753 0.0
H403 H 0.85507 0.68373 0.01887 0.0
C404 C 0.87917 0.75846 0.03214 0.0
C405 C 0.86538 0.80608 0.04822 0.0
C406 C 0.7067 0.70651 0.05325 0.0
C407 C 0.79661 0.72876 0.05166 0.0
C408 C 0.66851 0.67427 0.04075 0.0
C409 C 0.67933 0.62738 0.02106 0.0
C410 C 0.75622 0.6922 0.04528 0.0
C411 C 0.72923 0.61326 0.01581 0.0
C412 C 0.84482 0.71959 0.03385 0.0
C413 C 0.8183 0.8125 0.06956 0.0
N414 N 0.76606 0.64598 0.02715 0.0
N415 N 0.78541 0.77445 0.07002 0.0
H416 H 0.63724 0.39952 0.80734 0.0
H417 H 0.91312 0.48353 0.73717 0.0
H418 H 0.73377 0.4737 0.9117 0.0
H419 H 0.79558 0.45255 0.63251 0.0
H420 H 0.85582 0.46281 0.80526 0.0
H421 H 0.70488 0.39815 0.74739 0.0
C422 C 0.67294 0.41496 0.81785 0.0
C423 C 0.67966 0.43784 0.86402 0.0
C424 C 0.84292 0.46046 0.76729 0.0
C425 C 0.75688 0.43701 0.79541 0.0
C426 C 0.87538 0.4724 0.72858 0.0
C427 C 0.85868 0.47068 0.6793 0.0
C428 C 0.79403 0.44593 0.75625 0.0
C429 C 0.8097 0.45553 0.67 0.0
C430 C 0.71147 0.41426 0.7836 0.0
C431 C 0.72698 0.4562 0.8762 0.0
N432 N 0.77915 0.44379 0.70812 0.0
N433 N 0.76377 0.45622 0.84161 0.0
H434 H 0.13737 0.40029 0.67747 0.0
H435 H 0.41342 0.48446 0.74658 0.0
H436 H 0.23364 0.47419 0.57236 0.0
H437 H 0.29591 0.45369 0.85163 0.0
H438 H 0.35593 0.46399 0.67868 0.0
H439 H 0.20498 0.39953 0.7373 0.0
C440 C 0.173 0.41581 0.66677 0.0
C441 C 0.17965 0.43837 0.62038 0.0
C442 C 0.34308 0.46166 0.71669 0.0
C443 C 0.25691 0.43825 0.6889 0.0
C444 C 0.37565 0.47344 0.7553 0.0
C445 C 0.35903 0.47172 0.80466 0.0
C446 C 0.29415 0.44724 0.72791 0.0
C447 C 0.31 0.45669 0.8141 0.0
C448 C 0.21153 0.41546 0.70096 0.0
C449 C 0.22691 0.45687 0.60801 0.0
N450 N 0.27937 0.44508 0.77609 0.0
N451 N 0.26372 0.45722 0.64253 0.0
H452 H 0.07322 0.50175 0.24684 0.0
H453 H 0.34914 0.58589 0.17696 0.0
H454 H 0.19065 0.53279 0.35161 0.0
H455 H 0.25261 0.51195 0.07243 0.0
H456 H 0.28146 0.58727 0.23686 0.0
H457 H 0.13052 0.52269 0.17882 0.0
C458 C 0.11094 0.51293 0.25547 0.0
C459 C 0.12762 0.51457 0.30476 0.0
C460 C 0.27487 0.57121 0.20062 0.0
C461 C 0.19226 0.53958 0.22788 0.0
C462 C 0.31343 0.5705 0.1664 0.0
C463 C 0.30672 0.54769 0.12019 0.0
C464 C 0.22944 0.54853 0.18875 0.0
C465 C 0.25939 0.5294 0.10796 0.0
C466 C 0.14339 0.525 0.21679 0.0
C467 C 0.17656 0.52983 0.31411 0.0
N468 N 0.22257 0.52938 0.14252 0.0
N469 N 0.20711 0.54168 0.27602 0.0
H470 H 0.57305 0.50097 0.2376 0.0
H471 H 0.84916 0.58505 0.30667 0.0
H472 H 0.69035 0.53236 0.1325 0.0
H473 H 0.75276 0.51122 0.41171 0.0
H474 H 0.78151 0.58606 0.24687 0.0
H475 H 0.63055 0.52146 0.30549 0.0
C476 C 0.61078 0.51214 0.22887 0.0
C477 C 0.62735 0.51401 0.1795 0.0
C478 C 0.77494 0.57009 0.28319 0.0
C479 C 0.69224 0.5385 0.25624 0.0
C480 C 0.81349 0.5696 0.31736 0.0
C481 C 0.80681 0.54698 0.36373 0.0
C482 C 0.72952 0.54739 0.29524 0.0
C483 C 0.75951 0.52857 0.37609 0.0
C484 C 0.64335 0.52394 0.26747 0.0
C485 C 0.67631 0.52923 0.17004 0.0
N486 N 0.7227 0.52836 0.34158 0.0
N487 N 0.70696 0.54083 0.20804 0.0
H488 H 0.30825 0.8487 0.39709 0.0
H489 H 0.23898 0.57264 0.48017 0.0
H490 H 0.41289 0.75218 0.47094 0.0
H491 H 0.13357 0.68896 0.44702 0.0
H492 H 0.30704 0.63005 0.45931 0.0
H493 H 0.24862 0.78076 0.39448 0.0
C494 C 0.31889 0.81296 0.41222 0.0
C495 C 0.36503 0.80632 0.43538 0.0
C496 C 0.26892 0.64266 0.45647 0.0
C497 C 0.29677 0.72871 0.4331 0.0
C498 C 0.23023 0.61013 0.46847 0.0
C499 C 0.18075 0.62653 0.46632 0.0
C500 C 0.25767 0.69131 0.44147 0.0
C501 C 0.17123 0.67516 0.45041 0.0
C502 C 0.28483 0.77424 0.41078 0.0
C503 C 0.37739 0.75893 0.45327 0.0
N504 N 0.20935 0.7058 0.4387 0.0
N505 N 0.34297 0.72196 0.4526 0.0
H506 H 0.17749 0.34788 0.39815 0.0
H507 H 0.24739 0.07246 0.48221 0.0
H508 H 0.07314 0.25199 0.47375 0.0
H509 H 0.35257 0.18951 0.44975 0.0
H510 H 0.17919 0.12975 0.46198 0.0
H511 H 0.23729 0.28021 0.39637 0.0
C512 C 0.16694 0.31232 0.41383 0.0
C513 C 0.12082 0.3058 0.43721 0.0
C514 C 0.2173 0.14255 0.45918 0.0
C515 C 0.18928 0.2285 0.43587 0.0
C516 C 0.25607 0.11009 0.47082 0.0
C517 C 0.30553 0.12668 0.46858 0.0
C518 C 0.22846 0.19132 0.44441 0.0
C519 C 0.31494 0.17551 0.45313 0.0
C520 C 0.20111 0.27376 0.41289 0.0
C521 C 0.1086 0.25863 0.45586 0.0
N522 N 0.27676 0.20605 0.44169 0.0
N523 N 0.14311 0.2218 0.45561 0.0
H524 H 0.91531 0.73354 0.51201 0.0
H525 H 0.63035 0.79791 0.54244 0.0
H526 H 0.80737 0.6376 0.58237 0.0
H527 H 0.73856 0.90855 0.4995 0.0
H528 H 0.69726 0.74126 0.56275 0.0
H529 H 0.85479 0.80138 0.51438 0.0
C530 C 0.87932 0.72704 0.5289 0.0
C531 C 0.86582 0.6796 0.54596 0.0
C532 C 0.70666 0.77794 0.5491 0.0
C533 C 0.79673 0.75652 0.54833 0.0
C534 C 0.66838 0.81013 0.53694 0.0
C535 C 0.67906 0.85749 0.51817 0.0
C536 C 0.75616 0.79277 0.54174 0.0
C537 C 0.72895 0.87199 0.51331 0.0
C538 C 0.84479 0.7657 0.53008 0.0
C539 C 0.81888 0.67325 0.56766 0.0
N540 N 0.76588 0.83935 0.52434 0.0
N541 N 0.78582 0.71107 0.56759 0.0
H542 H 0.67775 0.13619 0.58657 0.0
H543 H 0.74745 0.41224 0.50363 0.0
H544 H 0.57329 0.23269 0.51244 0.0
H545 H 0.85273 0.29581 0.53679 0.0
H546 H 0.6793 0.35477 0.52409 0.0
H547 H 0.73752 0.20402 0.58897 0.0
C548 C 0.66717 0.1719 0.57133 0.0
C549 C 0.62103 0.17857 0.54819 0.0
C550 C 0.71741 0.34215 0.52702 0.0
C551 C 0.68946 0.25606 0.55023 0.0
C552 C 0.75616 0.37472 0.51525 0.0
C553 C 0.80563 0.35833 0.51755 0.0
C554 C 0.7286 0.29346 0.54193 0.0
C555 C 0.81509 0.30964 0.53332 0.0
C556 C 0.70132 0.21057 0.57264 0.0
C557 C 0.60877 0.22592 0.53013 0.0
N558 N 0.77692 0.27897 0.54482 0.0
N559 N 0.64327 0.26284 0.5307 0.0
H560 H 0.44898 0.35733 0.79356 0.0
H561 H 0.47052 0.0715 0.732 0.0
H562 H 0.48271 0.24878 0.90665 0.0
H563 H 0.40324 0.18005 0.63502 0.0
H564 H 0.46947 0.13267 0.79916 0.0
H565 H 0.42856 0.29071 0.73674 0.0
C566 C 0.45247 0.3193 0.80632 0.0
C567 C 0.46856 0.30844 0.85453 0.0
C568 C 0.45413 0.14267 0.7634 0.0
C569 C 0.44469 0.23169 0.78959 0.0
C570 C 0.45454 0.10778 0.72512 0.0
C571 C 0.43801 0.12119 0.67759 0.0
C572 C 0.43724 0.19103 0.7537 0.0
C573 C 0.41752 0.16854 0.67076 0.0
C574 C 0.4402 0.28121 0.774 0.0
C575 C 0.47096 0.25857 0.86951 0.0
N576 N 0.41838 0.20195 0.7082 0.0
N577 N 0.45977 0.2218 0.83682 0.0
H578 H 0.50635 0.74742 0.57362 0.0
H579 H 0.58545 0.68173 0.85125 0.0
H580 H 0.53418 0.85416 0.68993 0.0
H581 H 0.51769 0.57434 0.7533 0.0
H582 H 0.58719 0.74142 0.78351 0.0
H583 H 0.52767 0.68034 0.63173 0.0
C584 C 0.51692 0.75668 0.61126 0.0
C585 C 0.51745 0.80624 0.62738 0.0
C586 C 0.57241 0.70461 0.77665 0.0
C587 C 0.54284 0.73043 0.69302 0.0
C588 C 0.57148 0.6705 0.81528 0.0
C589 C 0.55028 0.62346 0.80815 0.0
C590 C 0.55159 0.6918 0.73072 0.0
C591 C 0.53383 0.61049 0.76047 0.0
C592 C 0.52921 0.71854 0.64419 0.0
C593 C 0.53202 0.81641 0.67625 0.0
N594 N 0.53401 0.6449 0.72358 0.0
N595 N 0.54402 0.77884 0.70729 0.0
H596 H 0.53909 0.62795 0.19012 0.0
H597 H 0.51682 0.91371 0.25201 0.0
H598 H 0.50353 0.73662 0.07774 0.0
H599 H 0.5836 0.80505 0.34921 0.0
H600 H 0.51828 0.85267 0.18478 0.0
H601 H 0.55994 0.69453 0.24687 0.0
C602 C 0.53528 0.666 0.17752 0.0
C603 C 0.51852 0.67692 0.12956 0.0
C604 C 0.53342 0.8426 0.2206 0.0
C605 C 0.54285 0.75361 0.19439 0.0
C606 C 0.53278 0.87743 0.25892 0.0
C607 C 0.54903 0.86394 0.30653 0.0
C608 C 0.55026 0.79423 0.23032 0.0
C609 C 0.56953 0.81661 0.3134 0.0
C610 C 0.5478 0.70407 0.20979 0.0
C611 C 0.51577 0.7268 0.1147 0.0
N612 N 0.56889 0.78325 0.27591 0.0
N613 N 0.52719 0.76354 0.14735 0.0
H614 H 0.47985 0.23743 0.41033 0.0
H615 H 0.40087 0.30379 0.13283 0.0
H616 H 0.45208 0.13093 0.29379 0.0
H617 H 0.46905 0.41086 0.23084 0.0
H618 H 0.39922 0.24395 0.20043 0.0
H619 H 0.45888 0.30465 0.35226 0.0
C620 C 0.46935 0.22825 0.37266 0.0
C621 C 0.4687 0.17871 0.35647 0.0
C622 C 0.41408 0.28072 0.20733 0.0
C623 C 0.44371 0.25469 0.29086 0.0
C624 C 0.41495 0.31492 0.16879 0.0
C625 C 0.43623 0.36191 0.17596 0.0
C626 C 0.43502 0.2934 0.25325 0.0
C627 C 0.45283 0.37476 0.22363 0.0
C628 C 0.45728 0.26647 0.33974 0.0
C629 C 0.45428 0.16865 0.30754 0.0
N630 N 0.4527 0.34026 0.26044 0.0
N631 N 0.44246 0.2063 0.27652 0.0
loop_
_geom_bond_atom_site_label_1
_geom_bond_atom_site_label_2
_geom_bond_distance
_geom_bond_site_symmetry_2
_ccdc_geom_bond_type
O0 Zr5 2.207 1_565 S
O0 C34 1.295 . S
O1 Zr5 2.133 1_565 S
O1 Zr6 2.133 1_565 S
O1 Zr7 2.133 . S
O2 Zr5 2.133 1_556 S
O2 Zr11 2.133 1_556 S
O2 Zr12 2.133 . S
O3 Zr5 2.133 1_566 S
O3 Zr7 2.133 1_556 S
O3 Zr12 2.133 1_565 S
O4 Zr5 2.133 . S
O4 Zr6 2.133 . S
O4 Zr11 2.133 . S
Zr5 O0 2.207 1_545 S
Zr5 O1 2.133 1_545 S
Zr5 O2 2.133 1_554 S
Zr5 O3 2.133 1_544 S
Zr5 O4 2.133 . S
Zr5 O17 2.207 . S
Zr5 O30 2.207 . S
Zr5 O33 2.207 1_554 S
Zr6 O1 2.133 1_545 S
Zr6 O4 2.133 . S
Zr6 O8 2.133 1_455 S
Zr6 O10 2.133 1_445 S
Zr6 O22 2.207 1_455 S
Zr6 O25 2.207 . S
Zr6 O35 2.207 . S
Zr6 O36 2.207 1_545 S
Zr7 O1 2.133 . S
Zr7 O3 2.133 1_554 S
Zr7 O9 2.133 1_454 S
Zr7 O10 2.133 1_455 S
Zr7 O19 2.207 . S
Zr7 O20 2.207 1_554 S
Zr7 O27 2.207 . S
Zr7 O28 2.207 1_455 S
O8 Zr6 2.133 1_655 S
O8 Zr11 2.133 1_655 S
O8 Zr13 2.133 . S
O9 Zr7 2.133 1_656 S
O9 Zr12 2.133 1_665 S
O9 Zr13 2.133 1_566 S
O10 Zr6 2.133 1_665 S
O10 Zr7 2.133 1_655 S
O10 Zr13 2.133 1_565 S
Zr11 O2 2.133 1_554 S
Zr11 O4 2.133 . S
Zr11 O8 2.133 1_455 S
Zr11 O14 2.133 1_454 S
Zr11 O18 2.207 1_554 S
Zr11 O21 2.207 . S
Zr11 O26 2.207 1_455 S
Zr11 O29 2.207 . S
Zr12 O2 2.133 . S
Zr12 O3 2.133 1_545 S
Zr12 O9 2.133 1_445 S
Zr12 O14 2.133 1_455 S
Zr12 O23 2.207 . S
Zr12 O24 2.207 1_455 S
Zr12 O48 2.207 1_545 S
Zr12 O49 2.207 . S
Zr13 O8 2.133 . S
Zr13 O9 2.133 1_544 S
Zr13 O10 2.133 1_545 S
Zr13 O14 2.133 1_554 S
Zr13 O15 2.207 . S
Zr13 O16 2.207 1_545 S
Zr13 O31 2.207 1_554 S
Zr13 O32 2.207 . S
O14 Zr11 2.133 1_656 S
O14 Zr12 2.133 1_655 S
O14 Zr13 2.133 1_556 S
O15 Zr13 2.207 . S
O15 C37 1.295 . S
O16 Zr13 2.207 1_565 S
O16 C38 1.295 . S
O17 Zr5 2.207 . S
O17 C39 1.295 . S
O18 Zr11 2.207 1_556 S
O18 C40 1.295 . S
O19 Zr7 2.207 . S
O19 C41 1.295 . S
O20 Zr7 2.207 1_556 S
O20 C42 1.295 . S
O21 Zr11 2.207 . S
O21 C43 1.295 . S
O22 Zr6 2.207 1_655 S
O22 C44 1.295 . S
O23 Zr12 2.207 . S
O23 C45 1.295 . S
O24 Zr12 2.207 1_655 S
O24 C46 1.295 . S
O25 Zr6 2.207 . S
O25 C47 1.295 . S
O26 Zr11 2.207 1_655 S
O26 C37 1.295 . S
O27 Zr7 2.207 . S
O27 C34 1.295 . S
O28 Zr7 2.207 1_655 S
O28 C38 1.295 . S
O29 Zr11 2.207 . S
O29 C39 1.295 . S
O30 Zr5 2.207 . S
O30 C47 1.295 . S
O31 Zr13 2.207 1_556 S
O31 C46 1.295 . S
O32 Zr13 2.207 . S
O32 C44 1.295 . S
O33 Zr5 2.207 1_556 S
O33 C45 1.295 . S
C34 O0 1.295 . S
C34 O27 1.295 . S
O35 Zr6 2.207 . S
O35 C43 1.295 . S
O36 Zr6 2.207 1_565 S
O36 C41 1.295 . S
C37 O15 1.295 . S
C37 O26 1.295 . S
C38 O16 1.295 . S
C38 O28 1.295 . S
C39 O17 1.295 . S
C39 O29 1.295 . S
C40 O18 1.295 . S
C40 O49 1.295 . S
C41 O19 1.295 . S
C41 O36 1.295 . S
C42 O20 1.295 . S
C42 O48 1.295 . S
C43 O21 1.295 . S
C43 O35 1.295 . S
C44 O22 1.295 . S
C44 O32 1.295 . S
C45 O23 1.295 . S
C45 O33 1.295 . S
C46 O24 1.295 . S
C46 O31 1.295 . S
C47 O25 1.295 . S
C47 O30 1.295 . S
O48 Zr12 2.207 1_565 S
O48 C42 1.295 . S
O49 Zr12 2.207 . S
O49 C40 1.295 . S
O50 Zr55 2.207 . S
O50 C84 1.295 . S
O51 Zr55 2.133 . S
O51 Zr56 2.133 . S
O51 Zr57 2.133 . S
O52 Zr55 2.133 . S
O52 Zr61 2.133 . S
O52 Zr62 2.133 . S
O53 Zr55 2.133 . S
O53 Zr57 2.133 . S
O53 Zr62 2.133 . S
O54 Zr55 2.133 . S
O54 Zr56 2.133 . S
O54 Zr61 2.133 . S
Zr55 O50 2.207 . S
Zr55 O51 2.133 . S
Zr55 O52 2.133 . S
Zr55 O53 2.133 . S
Zr55 O54 2.133 . S
Zr55 O67 2.207 . S
Zr55 O80 2.207 . S
Zr55 O83 2.207 . S
Zr56 O51 2.133 . S
Zr56 O54 2.133 . S
Zr56 O58 2.133 1_455 S
Zr56 O60 2.133 1_455 S
Zr56 O72 2.207 1_455 S
Zr56 O75 2.207 . S
Zr56 O85 2.207 . S
Zr56 O86 2.207 . S
Zr57 O51 2.133 . S
Zr57 O53 2.133 . S
Zr57 O59 2.133 1_455 S
Zr57 O60 2.133 1_455 S
Zr57 O69 2.207 . S
Zr57 O70 2.207 . S
Zr57 O77 2.207 . S
Zr57 O78 2.207 1_455 S
O58 Zr56 2.133 1_655 S
O58 Zr61 2.133 1_655 S
O58 Zr63 2.133 . S
O59 Zr57 2.133 1_655 S
O59 Zr62 2.133 1_655 S
O59 Zr63 2.133 . S
O60 Zr56 2.133 1_655 S
O60 Zr57 2.133 1_655 S
O60 Zr63 2.133 . S
Zr61 O52 2.133 . S
Zr61 O54 2.133 . S
Zr61 O58 2.133 1_455 S
Zr61 O64 2.133 1_455 S
Zr61 O68 2.207 . S
Zr61 O71 2.207 . S
Zr61 O76 2.207 1_455 S
Zr61 O79 2.207 . S
Zr62 O52 2.133 . S
Zr62 O53 2.133 . S
Zr62 O59 2.133 1_455 S
Zr62 O64 2.133 1_455 S
Zr62 O73 2.207 . S
Zr62 O74 2.207 1_455 S
Zr62 O98 2.207 . S
Zr62 O99 2.207 . S
Zr63 O58 2.133 . S
Zr63 O59 2.133 . S
Zr63 O60 2.133 . S
Zr63 O64 2.133 . S
Zr63 O65 2.207 . S
Zr63 O66 2.207 . S
Zr63 O81 2.207 . S
Zr63 O82 2.207 . S
O64 Zr61 2.133 1_655 S
O64 Zr62 2.133 1_655 S
O64 Zr63 2.133 . S
O65 Zr63 2.207 . S
O65 C87 1.295 . S
O66 Zr63 2.207 . S
O66 C88 1.295 . S
O67 Zr55 2.207 . S
O67 C89 1.295 . S
O68 Zr61 2.207 . S
O68 C90 1.295 . S
O69 Zr57 2.207 . S
O69 C91 1.295 . S
O70 Zr57 2.207 . S
O70 C92 1.295 . S
O71 Zr61 2.207 . S
O71 C93 1.295 . S
O72 Zr56 2.207 1_655 S
O72 C94 1.295 . S
O73 Zr62 2.207 . S
O73 C95 1.295 . S
O74 Zr62 2.207 1_655 S
O74 C96 1.295 . S
O75 Zr56 2.207 . S
O75 C97 1.295 . S
O76 Zr61 2.207 1_655 S
O76 C87 1.295 . S
O77 Zr57 2.207 . S
O77 C84 1.295 . S
O78 Zr57 2.207 1_655 S
O78 C88 1.295 . S
O79 Zr61 2.207 . S
O79 C89 1.295 . S
O80 Zr55 2.207 . S
O80 C97 1.295 . S
O81 Zr63 2.207 . S
O81 C96 1.295 . S
O82 Zr63 2.207 . S
O82 C94 1.295 . S
O83 Zr55 2.207 . S
O83 C95 1.295 . S
C84 O50 1.295 . S
C84 O77 1.295 . S
O85 Zr56 2.207 . S
O85 C93 1.295 . S
O86 Zr56 2.207 . S
O86 C91 1.295 . S
C87 O65 1.295 . S
C87 O76 1.295 . S
C88 O66 1.295 . S
C88 O78 1.295 . S
C89 O67 1.295 . S
C89 O79 1.295 . S
C90 O68 1.295 . S
C90 O99 1.295 . S
C91 O69 1.295 . S
C91 O86 1.295 . S
C92 O70 1.295 . S
C92 O98 1.295 . S
C93 O71 1.295 . S
C93 O85 1.295 . S
C94 O72 1.295 . S
C94 O82 1.295 . S
C95 O73 1.295 . S
C95 O83 1.295 . S
C96 O74 1.295 . S
C96 O81 1.295 . S
C97 O75 1.295 . S
C97 O80 1.295 . S
O98 Zr62 2.207 . S
O98 C92 1.295 . S
O99 Zr62 2.207 . S
O99 C90 1.295 . S
O100 Zr105 2.207 . S
O100 C134 1.295 . S
O101 Zr105 2.133 . S
O101 Zr106 2.133 . S
O101 Zr107 2.133 . S
O102 Zr105 2.133 1_565 S
O102 Zr111 2.133 1_565 S
O102 Zr112 2.133 . S
O103 Zr105 2.133 1_565 S
O103 Zr107 2.133 1_565 S
O103 Zr112 2.133 . S
O104 Zr105 2.133 . S
O104 Zr106 2.133 . S
O104 Zr111 2.133 . S
Zr105 O100 2.207 . S
Zr105 O101 2.133 . S
Zr105 O102 2.133 1_545 S
Zr105 O103 2.133 1_545 S
Zr105 O104 2.133 . S
Zr105 O117 2.207 . S
Zr105 O130 2.207 . S
Zr105 O133 2.207 1_545 S
Zr106 O101 2.133 . S
Zr106 O104 2.133 . S
Zr106 O108 2.133 . S
Zr106 O110 2.133 . S
Zr106 O122 2.207 . S
Zr106 O125 2.207 . S
Zr106 O135 2.207 . S
Zr106 O136 2.207 . S
Zr107 O101 2.133 . S
Zr107 O103 2.133 1_545 S
Zr107 O109 2.133 1_545 S
Zr107 O110 2.133 . S
Zr107 O119 2.207 . S
Zr107 O120 2.207 1_545 S
Zr107 O127 2.207 . S
Zr107 O128 2.207 . S
O108 Zr106 2.133 . S
O108 Zr111 2.133 . S
O108 Zr113 2.133 . S
O109 Zr107 2.133 1_565 S
O109 Zr112 2.133 . S
O109 Zr113 2.133 1_565 S
O110 Zr106 2.133 . S
O110 Zr107 2.133 . S
O110 Zr113 2.133 . S
Zr111 O102 2.133 1_545 S
Zr111 O104 2.133 . S
Zr111 O108 2.133 . S
Zr111 O114 2.133 1_545 S
Zr111 O118 2.207 1_545 S
Zr111 O121 2.207 . S
Zr111 O126 2.207 . S
Zr111 O129 2.207 . S
Zr112 O102 2.133 . S
Zr112 O103 2.133 . S
Zr112 O109 2.133 . S
Zr112 O114 2.133 . S
Zr112 O123 2.207 . S
Zr112 O124 2.207 . S
Zr112 O148 2.207 . S
Zr112 O149 2.207 . S
Zr113 O108 2.133 . S
Zr113 O109 2.133 1_545 S
Zr113 O110 2.133 . S
Zr113 O114 2.133 1_545 S
Zr113 O115 2.207 . S
Zr113 O116 2.207 . S
Zr113 O131 2.207 1_545 S
Zr113 O132 2.207 . S
O114 Zr111 2.133 1_565 S
O114 Zr112 2.133 . S
O114 Zr113 2.133 1_565 S
O115 Zr113 2.207 . S
O115 C137 1.295 . S
O116 Zr113 2.207 . S
O116 C138 1.295 . S
O117 Zr105 2.207 . S
O117 C139 1.295 . S
O118 Zr111 2.207 1_565 S
O118 C140 1.295 . S
O119 Zr107 2.207 . S
O119 C141 1.295 . S
O120 Zr107 2.207 1_565 S
O120 C142 1.295 . S
O121 Zr111 2.207 . S
O121 C143 1.295 . S
O122 Zr106 2.207 . S
O122 C144 1.295 . S
O123 Zr112 2.207 . S
O123 C145 1.295 . S
O124 Zr112 2.207 . S
O124 C146 1.295 . S
O125 Zr106 2.207 . S
O125 C147 1.295 . S
O126 Zr111 2.207 . S
O126 C137 1.295 . S
O127 Zr107 2.207 . S
O127 C134 1.295 . S
O128 Zr107 2.207 . S
O128 C138 1.295 . S
O129 Zr111 2.207 . S
O129 C139 1.295 . S
O130 Zr105 2.207 . S
O130 C147 1.295 . S
O131 Zr113 2.207 1_565 S
O131 C146 1.295 . S
O132 Zr113 2.207 . S
O132 C144 1.295 . S
O133 Zr105 2.207 1_565 S
O133 C145 1.295 . S
C134 O100 1.295 . S
C134 O127 1.295 . S
O135 Zr106 2.207 . S
O135 C143 1.295 . S
O136 Zr106 2.207 . S
O136 C141 1.295 . S
C137 O115 1.295 . S
C137 O126 1.295 . S
C138 O116 1.295 . S
C138 O128 1.295 . S
C139 O117 1.295 . S
C139 O129 1.295 . S
C140 O118 1.295 . S
C140 O149 1.295 . S
C141 O119 1.295 . S
C141 O136 1.295 . S
C142 O120 1.295 . S
C142 O148 1.295 . S
C143 O121 1.295 . S
C143 O135 1.295 . S
C144 O122 1.295 . S
C144 O132 1.295 . S
C145 O123 1.295 . S
C145 O133 1.295 . S
C146 O124 1.295 . S
C146 O131 1.295 . S
C147 O125 1.295 . S
C147 O130 1.295 . S
O148 Zr112 2.207 . S
O148 C142 1.295 . S
O149 Zr112 2.207 . S
O149 C140 1.295 . S
O150 Zr155 2.207 . S
O150 C184 1.295 . S
O151 Zr155 2.133 . S
O151 Zr156 2.133 . S
O151 Zr157 2.133 . S
O152 Zr155 2.133 1_556 S
O152 Zr161 2.133 1_556 S
O152 Zr162 2.133 . S
O153 Zr155 2.133 1_556 S
O153 Zr157 2.133 1_556 S
O153 Zr162 2.133 . S
O154 Zr155 2.133 . S
O154 Zr156 2.133 . S
O154 Zr161 2.133 . S
Zr155 O150 2.207 . S
Zr155 O151 2.133 . S
Zr155 O152 2.133 1_554 S
Zr155 O153 2.133 1_554 S
Zr155 O154 2.133 . S
Zr155 O167 2.207 . S
Zr155 O180 2.207 . S
Zr155 O183 2.207 1_554 S
Zr156 O151 2.133 . S
Zr156 O154 2.133 . S
Zr156 O158 2.133 . S
Zr156 O160 2.133 . S
Zr156 O172 2.207 . S
Zr156 O175 2.207 . S
Zr156 O185 2.207 . S
Zr156 O186 2.207 . S
Zr157 O151 2.133 . S
Zr157 O153 2.133 1_554 S
Zr157 O159 2.133 1_554 S
Zr157 O160 2.133 . S
Zr157 O169 2.207 . S
Zr157 O170 2.207 1_554 S
Zr157 O177 2.207 . S
Zr157 O178 2.207 . S
O158 Zr156 2.133 . S
O158 Zr161 2.133 . S
O158 Zr163 2.133 . S
O159 Zr157 2.133 1_556 S
O159 Zr162 2.133 . S
O159 Zr163 2.133 1_556 S
O160 Zr156 2.133 . S
O160 Zr157 2.133 . S
O160 Zr163 2.133 . S
Zr161 O152 2.133 1_554 S
Zr161 O154 2.133 . S
Zr161 O158 2.133 . S
Zr161 O164 2.133 1_554 S
Zr161 O168 2.207 1_554 S
Zr161 O171 2.207 . S
Zr161 O176 2.207 . S
Zr161 O179 2.207 . S
Zr162 O152 2.133 . S
Zr162 O153 2.133 . S
Zr162 O159 2.133 . S
Zr162 O164 2.133 . S
Zr162 O173 2.207 . S
Zr162 O174 2.207 . S
Zr162 O198 2.207 . S
Zr162 O199 2.207 . S
Zr163 O158 2.133 . S
Zr163 O159 2.133 1_554 S
Zr163 O160 2.133 . S
Zr163 O164 2.133 1_554 S
Zr163 O165 2.207 . S
Zr163 O166 2.207 . S
Zr163 O181 2.207 1_554 S
Zr163 O182 2.207 . S
O164 Zr161 2.133 1_556 S
O164 Zr162 2.133 . S
O164 Zr163 2.133 1_556 S
O165 Zr163 2.207 . S
O165 C187 1.295 . S
O166 Zr163 2.207 . S
O166 C188 1.295 . S
O167 Zr155 2.207 . S
O167 C189 1.295 . S
O168 Zr161 2.207 1_556 S
O168 C190 1.295 . S
O169 Zr157 2.207 . S
O169 C191 1.295 . S
O170 Zr157 2.207 1_556 S
O170 C192 1.295 . S
O171 Zr161 2.207 . S
O171 C193 1.295 . S
O172 Zr156 2.207 . S
O172 C194 1.295 . S
O173 Zr162 2.207 . S
O173 C195 1.295 . S
O174 Zr162 2.207 . S
O174 C196 1.295 . S
O175 Zr156 2.207 . S
O175 C197 1.295 . S
O176 Zr161 2.207 . S
O176 C187 1.295 . S
O177 Zr157 2.207 . S
O177 C184 1.295 . S
O178 Zr157 2.207 . S
O178 C188 1.295 . S
O179 Zr161 2.207 . S
O179 C189 1.295 . S
O180 Zr155 2.207 . S
O180 C197 1.295 . S
O181 Zr163 2.207 1_556 S
O181 C196 1.295 . S
O182 Zr163 2.207 . S
O182 C194 1.295 . S
O183 Zr155 2.207 1_556 S
O183 C195 1.295 . S
C184 O150 1.295 . S
C184 O177 1.295 . S
O185 Zr156 2.207 . S
O185 C193 1.295 . S
O186 Zr156 2.207 . S
O186 C191 1.295 . S
C187 O165 1.295 . S
C187 O176 1.295 . S
C188 O166 1.295 . S
C188 O178 1.295 . S
C189 O167 1.295 . S
C189 O179 1.295 . S
C190 O168 1.295 . S
C190 O199 1.295 . S
C191 O169 1.295 . S
C191 O186 1.295 . S
C192 O170 1.295 . S
C192 O198 1.295 . S
C193 O171 1.295 . S
C193 O185 1.295 . S
C194 O172 1.295 . S
C194 O182 1.295 . S
C195 O173 1.295 . S
C195 O183 1.295 . S
C196 O174 1.295 . S
C196 O181 1.295 . S
C197 O175 1.295 . S
C197 O180 1.295 . S
O198 Zr162 2.207 . S
O198 C192 1.295 . S
O199 Zr162 2.207 . S
O199 C190 1.295 . S
H200 C206 0.930 . S
H201 C210 0.930 . S
H202 C215 0.929 . S
H203 C213 0.929 . S
H204 C208 0.929 . S
H205 C214 0.929 . S
C206 H200 0.930 . S
C206 C207 1.385 . S
C206 C214 1.378 . S
C207 C206 1.385 . S
C207 C215 1.415 1_655 S
C208 H204 0.929 . S
C208 C210 1.378 . S
C208 C212 1.350 . S
C209 C212 1.463 1_655 S
C209 C214 1.350 . S
C209 N217 1.427 1_655 S
C210 H201 0.930 . S
C210 C208 1.378 . S
C210 C211 1.367 . S
C211 C210 1.367 . S
C211 C213 1.433 1_455 S
C212 C208 1.350 . S
C212 C209 1.463 1_455 S
C212 N216 1.427 1_455 S
C213 H203 0.929 . S
C213 C211 1.433 1_655 S
C213 N216 1.384 . S
C214 H205 0.929 . S
C214 C206 1.378 . S
C214 C209 1.350 . S
C215 H202 0.929 . S
C215 C207 1.415 1_455 S
C215 N217 1.384 . S
N216 C212 1.427 1_655 S
N216 C213 1.384 . S
N217 C209 1.427 1_455 S
N217 C215 1.384 . S
H218 C224 0.930 . S
H219 C228 0.930 . S
H220 C233 0.929 . S
H221 C231 0.929 . S
H222 C226 0.929 . S
H223 C232 0.929 . S
C224 H218 0.930 . S
C224 C225 1.374 . S
C224 C232 1.378 . S
C225 C224 1.374 . S
C225 C233 1.426 1_565 S
C226 H222 0.929 . S
C226 C228 1.378 . S
C226 C230 1.350 . S
C227 C230 1.462 1_565 S
C227 C232 1.362 . S
C227 N235 1.415 1_565 S
C228 H219 0.930 . S
C228 C226 1.378 . S
C228 C229 1.377 . S
C229 C228 1.377 . S
C229 C231 1.423 1_545 S
C230 C226 1.350 . S
C230 C227 1.462 1_545 S
C230 N234 1.427 1_545 S
C231 H221 0.929 . S
C231 C229 1.423 1_565 S
C231 N234 1.384 . S
C232 H223 0.929 . S
C232 C224 1.378 . S
C232 C227 1.362 . S
C233 H220 0.929 . S
C233 C225 1.426 1_545 S
C233 N235 1.384 . S
N234 C230 1.427 1_565 S
N234 C231 1.384 . S
N235 C227 1.415 1_545 S
N235 C233 1.384 . S
H236 C242 0.930 . S
H237 C246 0.930 . S
H238 C251 0.929 . S
H239 C249 0.929 . S
H240 C244 0.929 . S
H241 C250 0.929 . S
C242 H236 0.930 . S
C242 C243 1.377 . S
C242 C250 1.378 . S
C243 C242 1.377 . S
C243 C251 1.423 1_655 S
C244 H240 0.929 . S
C244 C246 1.378 . S
C244 C248 1.350 . S
C245 C248 1.463 1_655 S
C245 C250 1.350 . S
C245 N253 1.427 1_655 S
C246 H237 0.930 . S
C246 C244 1.378 . S
C246 C247 1.380 . S
C247 C246 1.380 . S
C247 C249 1.420 1_455 S
C248 C244 1.350 . S
C248 C245 1.463 1_455 S
C248 N252 1.427 1_455 S
C249 H239 0.929 . S
C249 C247 1.420 1_655 S
C249 N252 1.384 . S
C250 H241 0.929 . S
C250 C242 1.378 . S
C250 C245 1.350 . S
C251 H238 0.929 . S
C251 C243 1.423 1_455 S
C251 N253 1.384 . S
N252 C248 1.427 1_655 S
N252 C249 1.384 . S
N253 C245 1.427 1_455 S
N253 C251 1.384 . S
H254 C260 0.930 . S
H255 C264 0.930 . S
H256 C269 0.929 . S
H257 C267 0.929 . S
H258 C262 0.929 . S
H259 C268 0.929 . S
C260 H254 0.930 . S
C260 C261 1.384 . S
C260 C268 1.378 . S
C261 C260 1.384 . S
C261 C269 1.416 1_545 S
C262 H258 0.929 . S
C262 C264 1.378 . S
C262 C266 1.350 . S
C263 C266 1.463 1_545 S
C263 C268 1.350 . S
C263 N271 1.427 1_545 S
C264 H255 0.930 . S
C264 C262 1.378 . S
C264 C265 1.380 . S
C265 C264 1.380 . S
C265 C267 1.420 1_565 S
C266 C262 1.350 . S
C266 C263 1.463 1_565 S
C266 N270 1.427 1_565 S
C267 H257 0.929 . S
C267 C265 1.420 1_545 S
C267 N270 1.384 . S
C268 H259 0.929 . S
C268 C260 1.378 . S
C268 C263 1.350 . S
C269 H256 0.929 . S
C269 C261 1.416 1_565 S
C269 N271 1.384 . S
N270 C266 1.427 1_545 S
N270 C267 1.384 . S
N271 C263 1.427 1_565 S
N271 C269 1.384 . S
H272 C278 0.930 . S
H273 C282 0.930 . S
H274 C287 0.929 . S
H275 C285 0.929 . S
H276 C280 0.929 . S
H277 C286 0.929 . S
C278 H272 0.930 . S
C278 C279 1.368 . S
C278 C286 1.378 . S
C279 C278 1.368 . S
C279 C287 1.432 1_655 S
C280 H276 0.929 . S
C280 C282 1.378 . S
C280 C284 1.353 . S
C281 C284 1.462 1_655 S
C281 C286 1.352 . S
C281 N289 1.425 1_655 S
C282 H273 0.930 . S
C282 C280 1.378 . S
C282 C283 1.369 . S
C283 C282 1.369 . S
C283 C285 1.431 1_455 S
C284 C280 1.353 . S
C284 C281 1.462 1_455 S
C284 N288 1.424 1_455 S
C285 H275 0.929 . S
C285 C283 1.431 1_655 S
C285 N288 1.384 . S
C286 H277 0.929 . S
C286 C278 1.378 . S
C286 C281 1.352 . S
C287 H274 0.929 . S
C287 C279 1.432 1_455 S
C287 N289 1.384 . S
N288 C284 1.424 1_655 S
N288 C285 1.384 . S
N289 C281 1.425 1_455 S
N289 C287 1.384 . S
H290 C296 0.930 . S
H291 C300 0.930 . S
H292 C305 0.929 . S
H293 C303 0.929 . S
H294 C298 0.929 . S
H295 C304 0.929 . S
C296 H290 0.930 . S
C296 C297 1.382 . S
C296 C304 1.378 . S
C297 C296 1.382 . S
C297 C305 1.418 1_545 S
C298 H294 0.929 . S
C298 C300 1.378 . S
C298 C302 1.350 . S
C299 C302 1.463 1_545 S
C299 C304 1.350 . S
C299 N307 1.427 1_545 S
C300 H291 0.930 . S
C300 C298 1.378 . S
C300 C301 1.378 . S
C301 C300 1.378 . S
C301 C303 1.422 1_565 S
C302 C298 1.350 . S
C302 C299 1.463 1_565 S
C302 N306 1.427 1_565 S
C303 H293 0.929 . S
C303 C301 1.422 1_545 S
C303 N306 1.384 . S
C304 H295 0.929 . S
C304 C296 1.378 . S
C304 C299 1.350 . S
C305 H292 0.929 . S
C305 C297 1.418 1_565 S
C305 N307 1.384 . S
N306 C302 1.427 1_545 S
N306 C303 1.384 . S
N307 C299 1.427 1_565 S
N307 C305 1.384 . S
H308 C314 0.930 . S
H309 C318 0.930 . S
H310 C323 0.929 . S
H311 C321 0.929 . S
H312 C316 0.929 . S
H313 C322 0.929 . S
C314 H308 0.930 . S
C314 C315 1.369 . S
C314 C322 1.378 . S
C315 C314 1.369 . S
C315 C323 1.431 1_655 S
C316 H312 0.929 . S
C316 C318 1.378 . S
C316 C320 1.356 . S
C317 C320 1.462 1_655 S
C317 C322 1.354 . S
C317 N325 1.423 1_655 S
C318 H309 0.930 . S
C318 C316 1.378 . S
C318 C319 1.371 . S
C319 C318 1.371 . S
C319 C321 1.429 1_455 S
C320 C316 1.356 . S
C320 C317 1.462 1_455 S
C320 N324 1.421 1_455 S
C321 H311 0.929 . S
C321 C319 1.429 1_655 S
C321 N324 1.384 . S
C322 H313 0.929 . S
C322 C314 1.378 . S
C322 C317 1.354 . S
C323 H310 0.929 . S
C323 C315 1.431 1_455 S
C323 N325 1.384 . S
N324 C320 1.421 1_655 S
N324 C321 1.384 . S
N325 C317 1.423 1_455 S
N325 C323 1.384 . S
H326 C332 0.930 . S
H327 C336 0.930 . S
H328 C341 0.929 . S
H329 C339 0.929 . S
H330 C334 0.929 . S
H331 C340 0.929 . S
C332 H326 0.930 . S
C332 C333 1.368 . S
C332 C340 1.378 . S
C333 C332 1.368 . S
C333 C341 1.432 1_545 S
C334 H330 0.929 . S
C334 C336 1.378 . S
C334 C338 1.351 . S
C335 C338 1.462 1_545 S
C335 C340 1.352 . S
C335 N343 1.425 1_545 S
C336 H327 0.930 . S
C336 C334 1.378 . S
C336 C337 1.367 . S
C337 C336 1.367 . S
C337 C339 1.433 1_565 S
C338 C334 1.351 . S
C338 C335 1.462 1_565 S
C338 N342 1.426 1_565 S
C339 H329 0.929 . S
C339 C337 1.433 1_545 S
C339 N342 1.384 . S
C340 H331 0.929 . S
C340 C332 1.378 . S
C340 C335 1.352 . S
C341 H328 0.929 . S
C341 C333 1.432 1_565 S
C341 N343 1.384 . S
N342 C338 1.426 1_545 S
N342 C339 1.384 . S
N343 C335 1.425 1_565 S
N343 C341 1.384 . S
H344 C350 0.930 . S
H345 C354 0.930 . S
H346 C359 0.929 . S
H347 C357 0.929 . S
H348 C352 0.929 . S
H349 C358 0.929 . S
C350 H344 0.930 . S
C350 C351 1.386 . S
C350 C358 1.378 . S
C351 C350 1.386 . S
C351 C359 1.414 1_556 S
C352 H348 0.929 . S
C352 C354 1.378 . S
C352 C356 1.350 . S
C353 C356 1.463 1_556 S
C353 C358 1.350 . S
C353 N361 1.427 1_556 S
C354 H345 0.930 . S
C354 C352 1.378 . S
C354 C355 1.367 . S
C355 C354 1.367 . S
C355 C357 1.433 1_554 S
C356 C352 1.350 . S
C356 C353 1.463 1_554 S
C356 N360 1.427 1_554 S
C357 H347 0.929 . S
C357 C355 1.433 1_556 S
C357 N360 1.384 . S
C358 H349 0.929 . S
C358 C350 1.378 . S
C358 C353 1.350 . S
C359 H346 0.929 . S
C359 C351 1.414 1_554 S
C359 N361 1.384 . S
N360 C356 1.427 1_556 S
N360 C357 1.384 . S
N361 C353 1.427 1_554 S
N361 C359 1.384 . S
H362 C368 0.930 . S
H363 C372 0.930 . S
H364 C377 0.929 . S
H365 C375 0.929 . S
H366 C370 0.929 . S
H367 C376 0.929 . S
C368 H362 0.930 . S
C368 C369 1.367 . S
C368 C376 1.378 . S
C369 C368 1.367 . S
C369 C377 1.433 1_554 S
C370 H366 0.929 . S
C370 C372 1.378 . S
C370 C374 1.350 . S
C371 C374 1.463 1_554 S
C371 C376 1.350 . S
C371 N379 1.427 1_554 S
C372 H363 0.930 . S
C372 C370 1.378 . S
C372 C373 1.382 . S
C373 C372 1.382 . S
C373 C375 1.418 1_556 S
C374 C370 1.350 . S
C374 C371 1.463 1_556 S
C374 N378 1.427 1_556 S
C375 H365 0.929 . S
C375 C373 1.418 1_554 S
C375 N378 1.384 . S
C376 H367 0.929 . S
C376 C368 1.378 . S
C376 C371 1.350 . S
C377 H364 0.929 . S
C377 C369 1.433 1_556 S
C377 N379 1.384 . S
N378 C374 1.427 1_554 S
N378 C375 1.384 . S
N379 C371 1.427 1_556 S
N379 C377 1.384 . S
H380 C386 0.930 . S
H381 C390 0.930 . S
H382 C395 0.929 . S
H383 C393 0.929 . S
H384 C388 0.929 . S
H385 C394 0.929 . S
C386 H380 0.930 . S
C386 C387 1.377 . S
C386 C394 1.378 . S
C387 C386 1.377 . S
C387 C395 1.423 1_554 S
C388 H384 0.929 . S
C388 C390 1.378 . S
C388 C392 1.361 . S
C389 C392 1.462 1_554 S
C389 C394 1.350 . S
C389 N397 1.427 1_554 S
C390 H381 0.930 . S
C390 C388 1.378 . S
C390 C391 1.374 . S
C391 C390 1.374 . S
C391 C393 1.426 1_556 S
C392 C388 1.361 . S
C392 C389 1.462 1_556 S
C392 N396 1.416 1_556 S
C393 H383 0.929 . S
C393 C391 1.426 1_554 S
C393 N396 1.384 . S
C394 H385 0.929 . S
C394 C386 1.378 . S
C394 C389 1.350 . S
C395 H382 0.929 . S
C395 C387 1.423 1_556 S
C395 N397 1.384 . S
N396 C392 1.416 1_554 S
N396 C393 1.384 . S
N397 C389 1.427 1_556 S
N397 C395 1.384 . S
H398 C404 0.930 . S
H399 C408 0.930 . S
H400 C413 0.929 . S
H401 C411 0.929 . S
H402 C406 0.929 . S
H403 C412 0.929 . S
C404 H398 0.930 . S
C404 C405 1.387 . S
C404 C412 1.378 . S
C405 C404 1.387 . S
C405 C413 1.413 1_556 S
C406 H402 0.929 . S
C406 C408 1.378 . S
C406 C410 1.350 . S
C407 C410 1.463 1_556 S
C407 C412 1.350 . S
C407 N415 1.427 1_556 S
C408 H399 0.930 . S
C408 C406 1.378 . S
C408 C409 1.367 . S
C409 C408 1.367 . S
C409 C411 1.433 1_554 S
C410 C406 1.350 . S
C410 C407 1.463 1_554 S
C410 N414 1.427 1_554 S
C411 H401 0.929 . S
C411 C409 1.433 1_556 S
C411 N414 1.384 . S
C412 H403 0.929 . S
C412 C404 1.378 . S
C412 C407 1.350 . S
C413 H400 0.929 . S
C413 C405 1.413 1_554 S
C413 N415 1.384 . S
N414 C410 1.427 1_556 S
N414 C411 1.384 . S
N415 C407 1.427 1_554 S
N415 C413 1.384 . S
H416 C422 0.930 . S
H417 C426 0.930 . S
H418 C431 0.929 . S
H419 C429 0.929 . S
H420 C424 0.929 . S
H421 C430 0.929 . S
C422 H416 0.930 . S
C422 C423 1.367 . S
C422 C430 1.378 . S
C423 C422 1.367 . S
C423 C431 1.433 . S
C424 H420 0.929 . S
C424 C426 1.378 . S
C424 C428 1.350 . S
C425 C428 1.463 . S
C425 C430 1.350 . S
C425 N433 1.427 . S
C426 H417 0.930 . S
C426 C424 1.378 . S
C426 C427 1.367 . S
C427 C426 1.367 . S
C427 C429 1.433 . S
C428 C424 1.350 . S
C428 C425 1.463 . S
C428 N432 1.427 . S
C429 H419 0.929 . S
C429 C427 1.433 . S
C429 N432 1.384 . S
C430 H421 0.929 . S
C430 C422 1.378 . S
C430 C425 1.350 . S
C431 H418 0.929 . S
C431 C423 1.433 . S
C431 N433 1.384 . S
N432 C428 1.427 . S
N432 C429 1.384 . S
N433 C425 1.427 . S
N433 C431 1.384 . S
H434 C440 0.930 . S
H435 C444 0.930 . S
H436 C449 0.929 . S
H437 C447 0.929 . S
H438 C442 0.929 . S
H439 C448 0.929 . S
C440 H434 0.930 . S
C440 C441 1.367 . S
C440 C448 1.378 . S
C441 C440 1.367 . S
C441 C449 1.433 . S
C442 H438 0.929 . S
C442 C444 1.378 . S
C442 C446 1.350 . S
C443 C446 1.463 . S
C443 C448 1.350 . S
C443 N451 1.427 . S
C444 H435 0.930 . S
C444 C442 1.378 . S
C444 C445 1.367 . S
C445 C444 1.367 . S
C445 C447 1.433 . S
C446 C442 1.350 . S
C446 C443 1.463 . S
C446 N450 1.427 . S
C447 H437 0.929 . S
C447 C445 1.433 . S
C447 N450 1.384 . S
C448 H439 0.929 . S
C448 C440 1.378 . S
C448 C443 1.350 . S
C449 H436 0.929 . S
C449 C441 1.433 . S
C449 N451 1.384 . S
N450 C446 1.427 . S
N450 C447 1.384 . S
N451 C443 1.427 . S
N451 C449 1.384 . S
H452 C458 0.930 . S
H453 C462 0.930 . S
H454 C467 0.929 . S
H455 C465 0.929 . S
H456 C460 0.929 . S
H457 C466 0.929 . S
C458 H452 0.930 . S
C458 C459 1.367 . S
C458 C466 1.378 . S
C459 C458 1.367 . S
C459 C467 1.433 . S
C460 H456 0.929 . S
C460 C462 1.378 . S
C460 C464 1.350 . S
C461 C464 1.463 . S
C461 C466 1.350 . S
C461 N469 1.427 . S
C462 H453 0.930 . S
C462 C460 1.378 . S
C462 C463 1.367 . S
C463 C462 1.367 . S
C463 C465 1.433 . S
C464 C460 1.350 . S
C464 C461 1.463 . S
C464 N468 1.427 . S
C465 H455 0.929 . S
C465 C463 1.433 . S
C465 N468 1.384 . S
C466 H457 0.929 . S
C466 C458 1.378 . S
C466 C461 1.350 . S
C467 H454 0.929 . S
C467 C459 1.433 . S
C467 N469 1.384 . S
N468 C464 1.427 . S
N468 C465 1.384 . S
N469 C461 1.427 . S
N469 C467 1.384 . S
H470 C476 0.930 . S
H471 C480 0.930 . S
H472 C485 0.929 . S
H473 C483 0.929 . S
H474 C478 0.929 . S
H475 C484 0.929 . S
C476 H470 0.930 . S
C476 C477 1.367 . S
C476 C484 1.378 . S
C477 C476 1.367 . S
C477 C485 1.433 . S
C478 H474 0.929 . S
C478 C480 1.378 . S
C478 C482 1.350 . S
C479 C482 1.463 . S
C479 C484 1.350 . S
C479 N487 1.427 . S
C480 H471 0.930 . S
C480 C478 1.378 . S
C480 C481 1.367 . S
C481 C480 1.367 . S
C481 C483 1.433 . S
C482 C478 1.350 . S
C482 C479 1.463 . S
C482 N486 1.427 . S
C483 H473 0.929 . S
C483 C481 1.433 . S
C483 N486 1.384 . S
C484 H475 0.929 . S
C484 C476 1.378 . S
C484 C479 1.350 . S
C485 H472 0.929 . S
C485 C477 1.433 . S
C485 N487 1.384 . S
N486 C482 1.427 . S
N486 C483 1.384 . S
N487 C479 1.427 . S
N487 C485 1.384 . S
H488 C494 0.930 . S
H489 C498 0.930 . S
H490 C503 0.929 . S
H491 C501 0.929 . S
H492 C496 0.929 . S
H493 C502 0.929 . S
C494 H488 0.930 . S
C494 C495 1.367 . S
C494 C502 1.378 . S
C495 C494 1.367 . S
C495 C503 1.433 . S
C496 H492 0.929 . S
C496 C498 1.378 . S
C496 C500 1.350 . S
C497 C500 1.463 . S
C497 C502 1.350 . S
C497 N505 1.427 . S
C498 H489 0.930 . S
C498 C496 1.378 . S
C498 C499 1.367 . S
C499 C498 1.367 . S
C499 C501 1.433 . S
C500 C496 1.350 . S
C500 C497 1.463 . S
C500 N504 1.427 . S
C501 H491 0.929 . S
C501 C499 1.433 . S
C501 N504 1.384 . S
C502 H493 0.929 . S
C502 C494 1.378 . S
C502 C497 1.350 . S
C503 H490 0.929 . S
C503 C495 1.433 . S
C503 N505 1.384 . S
N504 C500 1.427 . S
N504 C501 1.384 . S
N505 C497 1.427 . S
N505 C503 1.384 . S
H506 C512 0.930 . S
H507 C516 0.930 . S
H508 C521 0.929 . S
H509 C519 0.929 . S
H510 C514 0.929 . S
H511 C520 0.929 . S
C512 H506 0.930 . S
C512 C513 1.367 . S
C512 C520 1.378 . S
C513 C512 1.367 . S
C513 C521 1.433 . S
C514 H510 0.929 . S
C514 C516 1.378 . S
C514 C518 1.350 . S
C515 C518 1.463 . S
C515 C520 1.350 . S
C515 N523 1.427 . S
C516 H507 0.930 . S
C516 C514 1.378 . S
C516 C517 1.367 . S
C517 C516 1.367 . S
C517 C519 1.433 . S
C518 C514 1.350 . S
C518 C515 1.463 . S
C518 N522 1.427 . S
C519 H509 0.929 . S
C519 C517 1.433 . S
C519 N522 1.384 . S
C520 H511 0.929 . S
C520 C512 1.378 . S
C520 C515 1.350 . S
C521 H508 0.929 . S
C521 C513 1.433 . S
C521 N523 1.384 . S
N522 C518 1.427 . S
N522 C519 1.384 . S
N523 C515 1.427 . S
N523 C521 1.384 . S
H524 C530 0.930 . S
H525 C534 0.930 . S
H526 C539 0.929 . S
H527 C537 0.929 . S
H528 C532 0.929 . S
H529 C538 0.929 . S
C530 H524 0.930 . S
C530 C531 1.367 . S
C530 C538 1.378 . S
C531 C530 1.367 . S
C531 C539 1.433 . S
C532 H528 0.929 . S
C532 C534 1.378 . S
C532 C536 1.350 . S
C533 C536 1.463 . S
C533 C538 1.350 . S
C533 N541 1.427 . S
C534 H525 0.930 . S
C534 C532 1.378 . S
C534 C535 1.367 . S
C535 C534 1.367 . S
C535 C537 1.433 . S
C536 C532 1.350 . S
C536 C533 1.463 . S
C536 N540 1.427 . S
C537 H527 0.929 . S
C537 C535 1.433 . S
C537 N540 1.384 . S
C538 H529 0.929 . S
C538 C530 1.378 . S
C538 C533 1.350 . S
C539 H526 0.929 . S
C539 C531 1.433 . S
C539 N541 1.384 . S
N540 C536 1.427 . S
N540 C537 1.384 . S
N541 C533 1.427 . S
N541 C539 1.384 . S
H542 C548 0.930 . S
H543 C552 0.930 . S
H544 C557 0.929 . S
H545 C555 0.929 . S
H546 C550 0.929 . S
H547 C556 0.929 . S
C548 H542 0.930 . S
C548 C549 1.367 . S
C548 C556 1.378 . S
C549 C548 1.367 . S
C549 C557 1.433 . S
C550 H546 0.929 . S
C550 C552 1.378 . S
C550 C554 1.350 . S
C551 C554 1.463 . S
C551 C556 1.350 . S
C551 N559 1.427 . S
C552 H543 0.930 . S
C552 C550 1.378 . S
C552 C553 1.367 . S
C553 C552 1.367 . S
C553 C555 1.433 . S
C554 C550 1.350 . S
C554 C551 1.463 . S
C554 N558 1.427 . S
C555 H545 0.929 . S
C555 C553 1.433 . S
C555 N558 1.384 . S
C556 H547 0.929 . S
C556 C548 1.378 . S
C556 C551 1.350 . S
C557 H544 0.929 . S
C557 C549 1.433 . S
C557 N559 1.384 . S
N558 C554 1.427 . S
N558 C555 1.384 . S
N559 C551 1.427 . S
N559 C557 1.384 . S
H560 C566 0.930 . S
H561 C570 0.930 . S
H562 C575 0.929 . S
H563 C573 0.929 . S
H564 C568 0.929 . S
H565 C574 0.929 . S
C566 H560 0.930 . S
C566 C567 1.367 . S
C566 C574 1.378 . S
C567 C566 1.367 . S
C567 C575 1.433 . S
C568 H564 0.929 . S
C568 C570 1.378 . S
C568 C572 1.350 . S
C569 C572 1.463 . S
C569 C574 1.350 . S
C569 N577 1.427 . S
C570 H561 0.930 . S
C570 C568 1.378 . S
C570 C571 1.367 . S
C571 C570 1.367 . S
C571 C573 1.433 . S
C572 C568 1.350 . S
C572 C569 1.463 . S
C572 N576 1.427 . S
C573 H563 0.929 . S
C573 C571 1.433 . S
C573 N576 1.384 . S
C574 H565 0.929 . S
C574 C566 1.378 . S
C574 C569 1.350 . S
C575 H562 0.929 . S
C575 C567 1.433 . S
C575 N577 1.384 . S
N576 C572 1.427 . S
N576 C573 1.384 . S
N577 C569 1.427 . S
N577 C575 1.384 . S
H578 C584 0.930 . S
H579 C588 0.930 . S
H580 C593 0.929 . S
H581 C591 0.929 . S
H582 C586 0.929 . S
H583 C592 0.929 . S
C584 H578 0.930 . S
C584 C585 1.367 . S
C584 C592 1.378 . S
C585 C584 1.367 . S
C585 C593 1.433 . S
C586 H582 0.929 . S
C586 C588 1.378 . S
C586 C590 1.350 . S
C587 C590 1.463 . S
C587 C592 1.350 . S
C587 N595 1.427 . S
C588 H579 0.930 . S
C588 C586 1.378 . S
C588 C589 1.367 . S
C589 C588 1.367 . S
C589 C591 1.433 . S
C590 C586 1.350 . S
C590 C587 1.463 . S
C590 N594 1.427 . S
C591 H581 0.929 . S
C591 C589 1.433 . S
C591 N594 1.384 . S
C592 H583 0.929 . S
C592 C584 1.378 . S
C592 C587 1.350 . S
C593 H580 0.929 . S
C593 C585 1.433 . S
C593 N595 1.384 . S
N594 C590 1.427 . S
N594 C591 1.384 . S
N595 C587 1.427 . S
N595 C593 1.384 . S
H596 C602 0.930 . S
H597 C606 0.930 . S
H598 C611 0.929 . S
H599 C609 0.929 . S
H600 C604 0.929 . S
H601 C610 0.929 . S
C602 H596 0.930 . S
C602 C603 1.367 . S
C602 C610 1.378 . S
C603 C602 1.367 . S
C603 C611 1.433 . S
C604 H600 0.929 . S
C604 C606 1.378 . S
C604 C608 1.350 . S
C605 C608 1.463 . S
C605 C610 1.350 . S
C605 N613 1.427 . S
C606 H597 0.930 . S
C606 C604 1.378 . S
C606 C607 1.367 . S
C607 C606 1.367 . S
C607 C609 1.433 . S
C608 C604 1.350 . S
C608 C605 1.463 . S
C608 N612 1.427 . S
C609 H599 0.929 . S
C609 C607 1.433 . S
C609 N612 1.384 . S
C610 H601 0.929 . S
C610 C602 1.378 . S
C610 C605 1.350 . S
C611 H598 0.929 . S
C611 C603 1.433 . S
C611 N613 1.384 . S
N612 C608 1.427 . S
N612 C609 1.384 . S
N613 C605 1.427 . S
N613 C611 1.384 . S
H614 C620 0.930 . S
H615 C624 0.930 . S
H616 C629 0.929 . S
H617 C627 0.929 . S
H618 C622 0.929 . S
H619 C628 0.929 . S
C620 H614 0.930 . S
C620 C621 1.367 . S
C620 C628 1.378 . S
C621 C620 1.367 . S
C621 C629 1.433 . S
C622 H618 0.929 . S
C622 C624 1.378 . S
C622 C626 1.350 . S
C623 C626 1.463 . S
C623 C628 1.350 . S
C623 N631 1.427 . S
C624 H615 0.930 . S
C624 C622 1.378 . S
C624 C625 1.367 . S
C625 C624 1.367 . S
C625 C627 1.433 . S
C626 C622 1.350 . S
C626 C623 1.463 . S
C626 N630 1.427 . S
C627 H617 0.929 . S
C627 C625 1.433 . S
C627 N630 1.384 . S
C628 H619 0.929 . S
C628 C620 1.378 . S
C628 C623 1.350 . S
C629 H616 0.929 . S
C629 C621 1.433 . S
C629 N631 1.384 . S
N630 C626 1.427 . S
N630 C627 1.384 . S
N631 C623 1.427 . S
N631 C629 1.384 . S
C207 C43 1.500 1_655 S
C211 C92 1.496 . S
C225 C44 1.500 1_565 S
C229 C134 1.500 . S
C243 C41 1.500 1_655 S
C247 C90 1.500 . S
C261 C138 1.500 . S
C265 C47 1.496 1_565 S
C279 C42 1.500 1_655 S
C283 C93 1.503 . S
C297 C45 1.500 . S
C301 C137 1.500 1_565 S
C315 C91 1.500 1_655 S
C319 C40 1.500 . S
C333 C139 1.500 . S
C337 C46 1.503 1_565 S
C351 C188 1.499 1_556 S
C355 C39 1.496 . S
C369 C187 1.500 . S
C373 C34 1.500 1_556 S
C387 C184 1.500 . S
C391 C37 1.500 1_556 S
C405 C38 1.499 1_556 S
C409 C189 1.503 . S
C423 C195 1.500 . S
C427 C94 1.503 . S
C441 C97 1.500 . S
C445 C196 1.500 . S
C459 C95 1.500 . S
C463 C194 1.496 . S
C477 C197 1.500 . S
C481 C96 1.500 . S
C495 C146 1.500 . S
C499 C89 1.500 . S
C513 C84 1.500 . S
C517 C144 1.496 . S
C531 C87 1.500 . S
C535 C145 1.503 . S
C549 C147 1.500 . S
C553 C88 1.500 . S
C567 C192 1.500 . S
C571 C143 1.500 . S
C585 C140 1.500 . S
C589 C190 1.503 . S
C603 C193 1.500 . S
C607 C142 1.500 . S
C621 C141 1.500 . S
C625 C191 1.496 . S
