# Generated by pormake.
# Topology tfs, (6)-cn, num edge types: 1
# Building blocks:
#     Node 0, Type 0, BuildingBlock: BETDEL_clean_sbu_0, # of connection points: 6
#     Node 1, Type 0, BuildingBlock: BETDEL_clean_sbu_0, # of connection points: 6
#     Node 2, Type 0, BuildingBlock: BETDEL_clean_sbu_0, # of connection points: 6
#     Node 3, Type 0, BuildingBlock: BETDEL_clean_sbu_0, # of connection points: 6
#     Node 4, Type 0, BuildingBlock: BETDEL_clean_sbu_0, # of connection points: 6
#     Node 5, Type 0, BuildingBlock: BETDEL_clean_sbu_0, # of connection points: 6
#     Edge 6, Type (0, 0), BuildingBlock: FUNLAD_clean_linker_0, # of connection points: 2
#     Edge 7, Type (0, 0), BuildingBlock: FUNLAD_clean_linker_0, # of connection points: 2
#     Edge 8, Type (0, 0), BuildingBlock: FUNLAD_clean_linker_0, # of connection points: 2
#     Edge 9, Type (0, 0), BuildingBlock: FUNLAD_clean_linker_0, # of connection points: 2
#     Edge 10, Type (0, 0), BuildingBlock: FUNLAD_clean_linker_0, # of connection points: 2
#     Edge 11, Type (0, 0), BuildingBlock: FUNLAD_clean_linker_0, # of connection points: 2
#     Edge 12, Type (0, 0), BuildingBlock: FUNLAD_clean_linker_0, # of connection points: 2
#     Edge 13, Type (0, 0), BuildingBlock: FUNLAD_clean_linker_0, # of connection points: 2
#     Edge 14, Type (0, 0), BuildingBlock: FUNLAD_clean_linker_0, # of connection points: 2
#     Edge 15, Type (0, 0), BuildingBlock: FUNLAD_clean_linker_0, # of connection points: 2
#     Edge 16, Type (0, 0), BuildingBlock: FUNLAD_clean_linker_0, # of connection points: 2
#     Edge 17, Type (0, 0), BuildingBlock: FUNLAD_clean_linker_0, # of connection points: 2
#     Edge 18, Type (0, 0), BuildingBlock: FUNLAD_clean_linker_0, # of connection points: 2
#     Edge 19, Type (0, 0), BuildingBlock: FUNLAD_clean_linker_0, # of connection points: 2
#     Edge 20, Type (0, 0), BuildingBlock: FUNLAD_clean_linker_0, # of connection points: 2
#     Edge 21, Type (0, 0), BuildingBlock: FUNLAD_clean_linker_0, # of connection points: 2
#     Edge 22, Type (0, 0), BuildingBlock: FUNLAD_clean_linker_0, # of connection points: 2
#     Edge 23, Type (0, 0), BuildingBlock: FUNLAD_clean_linker_0, # of connection points: 2
# Relax obj value: 0.422
# Max RMSD: 0.274
# Mean RMSD: 0.253
data_MOF--net-tfs--node1-BETDEL_clean_sbu_0--edge1-FUNLAD_clean_linker_0
_symmetry_space_group_name_H-M    P1
_symmetry_Int_Tables_number       1
_symmetry_cell_setting            triclinic
loop_
_symmetry_equiv_pos_as_xyz
'x, y, z'
_cell_length_a     51.365363
_cell_length_b     50.77067
_cell_length_c     17.038423
_cell_angle_alpha  90.048705
_cell_angle_beta   91.504713
_cell_angle_gamma 121.213
loop_
_atom_site_label
_atom_site_type_symbol
_atom_site_fract_x
_atom_site_fract_y
_atom_site_fract_z
_atom_type_partial_charge
Dy0 Dy 0.18266 0.45233 0.25431 0.0
C1 C 0.21708 0.36158 0.19757 0.0
C2 C 0.17851 0.50356 0.26501 0.0
Dy3 Dy 0.19971 0.40159 0.24127 0.0
O4 O 0.19411 0.49881 0.21445 0.0
O5 O 0.16531 0.48031 0.31242 0.0
O6 O 0.1633 0.43972 0.13224 0.0
O7 O 0.20177 0.43685 0.16298 0.0
C8 C 0.1823 0.43206 0.10912 0.0
C9 C 0.18785 0.40687 0.39193 0.0
O10 O 0.24546 0.44459 0.24259 0.0
O11 O 0.23117 0.4769 0.29745 0.0
O12 O 0.22923 0.3815 0.25496 0.0
O13 O 0.19557 0.36383 0.16196 0.0
O14 O 0.19425 0.3868 0.36728 0.0
O15 O 0.18692 0.42171 0.33394 0.0
O16 O 0.13684 0.40974 0.26255 0.0
O17 O 0.15009 0.37619 0.20845 0.0
C18 C 0.25226 0.47082 0.27727 0.0
C19 C 0.12947 0.38303 0.22879 0.0
Dy20 Dy 0.75436 0.17892 0.99916 0.0
C21 C 0.88218 0.23949 0.92253 0.0
C22 C 0.6957 0.15629 0.04005 0.0
Dy23 Dy 0.82489 0.21208 0.9783 0.0
O24 O 0.70417 0.14573 0.98317 0.0
O25 O 0.71939 0.17912 0.07547 0.0
O26 O 0.74698 0.15908 0.87688 0.0
O27 O 0.78571 0.20198 0.90294 0.0
C28 C 0.77253 0.18115 0.85101 0.0
C29 C 0.81225 0.20302 0.13255 0.0
O30 O 0.81791 0.2521 0.9713 0.0
O31 O 0.76668 0.22817 1.00269 0.0
O32 O 0.8631 0.20991 0.92287 0.0
O33 O 0.86954 0.25374 0.95093 0.0
O34 O 0.83973 0.21646 0.1069 0.0
O35 O 0.79431 0.1958 0.07425 0.0
O36 O 0.76534 0.14401 0.03854 0.0
O37 O 0.80738 0.16158 0.96049 0.0
C38 C 0.79337 0.25312 0.98836 0.0
C39 C 0.78546 0.13977 1.00268 0.0
Dy40 Dy 0.53856 0.75515 0.09678 0.0
C41 C 0.64065 0.87213 0.01883 0.0
C42 C 0.48858 0.70331 0.14769 0.0
Dy43 Dy 0.59126 0.81958 0.07065 0.0
O44 O 0.4887 0.71989 0.08974 0.0
O45 O 0.51591 0.71478 0.17766 0.0
O46 O 0.54076 0.74127 0.97299 0.0
O47 O 0.55242 0.78665 0.9977 0.0
C48 C 0.55161 0.7687 0.94514 0.0
C49 C 0.57815 0.80604 0.22229 0.0
O50 O 0.55322 0.82924 0.06916 0.0
O51 O 0.5198 0.78445 0.1329 0.0
O52 O 0.6403 0.85763 0.08177 0.0
O53 O 0.61388 0.85809 0.98429 0.0
O54 O 0.58889 0.83346 0.19442 0.0
O55 O 0.57744 0.78817 0.16963 0.0
O56 O 0.57572 0.74503 0.10216 0.0
O57 O 0.61058 0.78973 0.04003 0.0
C58 C 0.52745 0.81194 0.10615 0.0
C59 C 0.60187 0.76188 0.06696 0.0
Dy60 Dy 0.77966 0.54198 1.00247 0.0
C61 C 0.747 0.63379 0.97416 0.0
C62 C 0.7893 0.49456 0.02951 0.0
Dy63 Dy 0.75952 0.58782 0.9941 0.0
O64 O 0.79621 0.51079 0.96651 0.0
O65 O 0.77742 0.50451 0.07915 0.0
O66 O 0.80059 0.55684 0.88537 0.0
O67 O 0.76069 0.55693 0.90748 0.0
C68 C 0.78107 0.56369 0.85826 0.0
C69 C 0.75713 0.56476 0.13707 0.0
O70 O 0.71436 0.54513 0.96526 0.0
O71 O 0.72872 0.51081 0.00602 0.0
O72 O 0.75811 0.62882 0.03769 0.0
O73 O 0.74326 0.61393 0.92009 0.0
O74 O 0.73704 0.57064 0.10878 0.0
O75 O 0.77813 0.5726 0.08914 0.0
O76 O 0.82385 0.58418 0.03533 0.0
O77 O 0.81072 0.61763 0.98064 0.0
C78 C 0.70753 0.51687 0.9831 0.0
C79 C 0.83158 0.61177 0.00909 0.0
Dy80 Dy 0.23889 0.81682 0.10696 0.0
C81 C 0.11323 0.77691 0.02923 0.0
C82 C 0.29595 0.82612 0.1344 0.0
Dy83 Dy 0.17169 0.79561 0.07957 0.0
O84 O 0.27875 0.8133 0.07235 0.0
O85 O 0.28189 0.83393 0.18333 0.0
O86 O 0.24765 0.83542 0.98585 0.0
O87 O 0.20592 0.79517 0.0079 0.0
C88 C 0.22126 0.81473 0.95666 0.0
C89 C 0.18853 0.79809 0.23079 0.0
O90 O 0.16874 0.74996 0.0819 0.0
O91 O 0.21561 0.76776 0.1447 0.0
O92 O 0.12676 0.7931 0.09249 0.0
O93 O 0.13215 0.77204 0.99195 0.0
O94 O 0.16157 0.77851 0.20209 0.0
O95 O 0.20441 0.81705 0.17901 0.0
O96 O 0.24279 0.86243 0.11511 0.0
O97 O 0.19574 0.84679 0.05413 0.0
C98 C 0.18848 0.74496 0.12045 0.0
C99 C 0.2233 0.86883 0.08045 0.0
Dy100 Dy 0.43802 0.19904 0.93978 0.0
C101 C 0.35094 0.23604 0.99887 0.0
C102 C 0.48504 0.18978 0.92207 0.0
Dy103 Dy 0.38968 0.21776 0.95454 0.0
O104 O 0.48427 0.20825 0.9733 0.0
O105 O 0.46025 0.17677 0.8782 0.0
O106 O 0.42307 0.1754 0.05495 0.0
O107 O 0.42219 0.21575 0.03634 0.0
C108 C 0.41587 0.19429 0.0837 0.0
C109 C 0.39768 0.21157 0.80077 0.0
O110 O 0.43382 0.26286 0.97592 0.0
O111 O 0.46549 0.24949 0.916 0.0
O112 O 0.37293 0.25043 0.95058 0.0
O113 O 0.3504 0.21168 0.0253 0.0
O114 O 0.37812 0.21818 0.8257 0.0
O115 O 0.41076 0.208 0.85945 0.0
O116 O 0.39566 0.15504 0.90628 0.0
O117 O 0.36202 0.16588 0.96614 0.0
C118 C 0.46041 0.27041 0.94612 0.0
C119 C 0.36856 0.14603 0.93469 0.0
C120 C 0.30705 0.2309 0.07306 0.0
C121 C 0.32862 0.24511 0.01466 0.0
C122 C 0.28613 0.24012 0.08672 0.0
C123 C 0.28643 0.26351 0.04153 0.0
C124 C 0.30741 0.27687 0.9817 0.0
C125 C 0.32847 0.268 0.96889 0.0
C126 C 0.26619 0.27556 0.05661 0.0
C127 C 0.25802 0.27798 0.12928 0.0
C128 C 0.24497 0.2973 0.1469 0.0
C129 C 0.25364 0.31397 0.21799 0.0
C130 C 0.24443 0.3348 0.23394 0.0
C131 C 0.22581 0.33889 0.17976 0.0
H132 H 0.21793 0.28759 0.03873 0.0
C133 C 0.21593 0.32128 0.10996 0.0
C134 C 0.22556 0.30068 0.09337 0.0
H135 H 0.20127 0.32383 0.06775 0.0
H136 H 0.30652 0.21292 0.10843 0.0
H137 H 0.26977 0.2289 0.13226 0.0
H138 H 0.30804 0.29484 0.94599 0.0
H139 H 0.34465 0.2791 0.92281 0.0
H140 H 0.2617 0.28678 0.00833 0.0
H141 H 0.26523 0.26954 0.17879 0.0
H142 H 0.26846 0.31168 0.26027 0.0
H143 H 0.25207 0.34784 0.28871 0.0
C144 C 0.09014 0.33579 0.15536 0.0
C145 C 0.09782 0.36244 0.19945 0.0
C146 C 0.06233 0.31964 0.11377 0.0
C147 C 0.04161 0.32986 0.11542 0.0
C148 C 0.04841 0.35517 0.16386 0.0
C149 C 0.07624 0.37137 0.20533 0.0
C150 C 0.01288 0.31526 0.06747 0.0
C151 C 0.00666 0.29626 0.00519 0.0
C152 C 0.97699 0.28268 0.96239 0.0
C153 C 0.96004 0.25092 0.94609 0.0
C154 C 0.9292 0.23668 0.92382 0.0
C155 C 0.91532 0.25427 0.91722 0.0
H156 H 0.97702 0.32534 0.95533 0.0
C157 C 0.93335 0.28647 0.92344 0.0
C158 C 0.96401 0.3006 0.94585 0.0
H159 H 0.92323 0.30055 0.91745 0.0
H160 H 0.1061 0.32804 0.15017 0.0
H161 H 0.05756 0.29955 0.0798 0.0
H162 H 0.03262 0.36323 0.16733 0.0
H163 H 0.08132 0.39169 0.23893 0.0
H164 H 0.99606 0.32105 0.0836 0.0
H165 H 0.0222 0.289 0.98815 0.0
H166 H 0.96987 0.23681 0.95723 0.0
H167 H 0.91573 0.21179 0.91892 0.0
C168 C 0.78703 0.09561 0.94308 0.0
C169 C 0.78209 0.10928 0.00814 0.0
C170 C 0.77874 0.06464 0.94508 0.0
C171 C 0.76595 0.04728 0.01278 0.0
C172 C 0.76336 0.06181 0.07959 0.0
C173 C 0.77095 0.09239 0.07697 0.0
C174 C 0.75258 0.01353 0.01449 0.0
C175 C 0.73663 0.99502 0.9528 0.0
C176 C 0.71453 0.96163 0.9622 0.0
C177 C 0.68762 0.94752 0.91548 0.0
C178 C 0.6639 0.91777 0.93171 0.0
C179 C 0.66685 0.90162 0.99466 0.0
H180 H 0.73917 0.95415 0.05663 0.0
C181 C 0.69457 0.91476 0.03766 0.0
C182 C 0.7183 0.94445 0.02135 0.0
H183 H 0.6976 0.9025 0.08561 0.0
H184 H 0.79568 0.10829 0.88942 0.0
H185 H 0.78158 0.05415 0.89323 0.0
H186 H 0.75378 0.04897 0.13259 0.0
H187 H 0.76727 0.1026 0.12817 0.0
H188 H 0.75109 0.00359 0.07182 0.0
H189 H 0.73575 0.00525 0.89752 0.0
H190 H 0.68425 0.96013 0.86905 0.0
H191 H 0.64283 0.90795 0.89712 0.0
C192 C 0.73892 0.67336 0.03605 0.0
C193 C 0.73608 0.65558 0.96957 0.0
C194 C 0.72536 0.69113 0.03651 0.0
C195 C 0.70855 0.69147 0.97041 0.0
C196 C 0.70722 0.67512 0.9023 0.0
C197 C 0.72068 0.65712 0.90201 0.0
C198 C 0.69152 0.70791 0.97228 0.0
C199 C 0.67821 0.70945 0.03791 0.0
C200 C 0.65886 0.72327 0.042 0.0
C201 C 0.63602 0.71198 0.0977 0.0
C202 C 0.61751 0.72443 0.1051 0.0
C203 C 0.62177 0.74898 0.058 0.0
H204 H 0.68109 0.75757 0.95217 0.0
C205 C 0.64496 0.76072 1.00286 0.0
C206 C 0.66324 0.74786 0.99454 0.0
H207 H 0.64883 0.77966 0.96578 0.0
H208 H 0.75092 0.67288 0.08876 0.0
H209 H 0.72777 0.70429 0.08912 0.0
H210 H 0.69472 0.67528 0.85027 0.0
H211 H 0.71825 0.64371 0.84986 0.0
H212 H 0.6877 0.71644 0.91741 0.0
H213 H 0.67964 0.698 0.09029 0.0
H214 H 0.63229 0.69324 0.13544 0.0
H215 H 0.60004 0.71496 0.14858 0.0
C216 C 0.06082 0.76565 0.0596 0.0
C217 C 0.07999 0.76107 0.01139 0.0
C218 C 0.02902 0.74734 0.0497 0.0
C219 C 0.01573 0.72393 0.99141 0.0
C220 C 0.03504 0.72019 0.94169 0.0
C221 C 0.06676 0.73864 0.95115 0.0
C222 C 0.98226 0.70111 0.98541 0.0
C223 C 0.96055 0.70615 0.01136 0.0
C224 C 0.9275 0.68175 0.00926 0.0
C225 C 0.9053 0.68991 0.99993 0.0
C226 C 0.87412 0.66732 0.99919 0.0
C227 C 0.86449 0.63612 0.0097 0.0
H228 H 0.93415 0.64339 0.02965 0.0
C229 C 0.88677 0.62809 0.02042 0.0
C230 C 0.91781 0.65054 0.01997 0.0
H231 H 0.88028 0.60433 0.02881 0.0
H232 H 0.07037 0.78261 0.10696 0.0
H233 H 0.01504 0.75063 0.09024 0.0
H234 H 0.02556 0.70232 0.8965 0.0
H235 H 0.08088 0.73443 0.9133 0.0
H236 H 0.97524 0.6791 0.95726 0.0
H237 H 0.96689 0.72892 0.0328 0.0
H238 H 0.91208 0.7138 0.99247 0.0
H239 H 0.85761 0.67435 0.99116 0.0
C240 C 0.26446 0.92456 0.08295 0.0
C241 C 0.23382 0.90178 0.06682 0.0
C242 C 0.27542 0.95538 0.06564 0.0
C243 C 0.25606 0.96442 0.03179 0.0
C244 C 0.22514 0.942 0.01852 0.0
C245 C 0.21416 0.91091 0.03508 0.0
C246 C 0.26801 0.99715 0.01051 0.0
C247 C 0.29597 0.01463 0.98103 0.0
C248 C 0.3107 0.0479 0.96187 0.0
C249 C 0.33511 0.06021 0.91074 0.0
C250 C 0.35264 0.09187 0.89869 0.0
C251 C 0.34647 0.11229 0.93812 0.0
H252 H 0.285 0.05947 0.0392 0.0
C253 C 0.32111 0.09997 0.98659 0.0
C254 C 0.30336 0.06803 0.99845 0.0
H255 H 0.31582 0.11504 0.01826 0.0
H256 H 0.28033 0.91861 0.10786 0.0
H257 H 0.29916 0.97216 0.079 0.0
H258 H 0.20965 0.9484 0.99336 0.0
H259 H 0.1904 0.89404 0.02232 0.0
H260 H 0.25324 0.0064 0.01626 0.0
H261 H 0.30899 0.00377 0.96892 0.0
H262 H 0.34131 0.04534 0.88162 0.0
H263 H 0.37179 0.10036 0.86044 0.0
C264 C 0.19564 0.70784 0.20052 0.0
C265 C 0.18011 0.71309 0.13914 0.0
C266 C 0.18906 0.67806 0.21662 0.0
C267 C 0.16692 0.65282 0.1712 0.0
C268 C 0.15109 0.658 0.11055 0.0
C269 C 0.15733 0.6878 0.09525 0.0
C270 C 0.16249 0.62166 0.18 0.0
C271 C 0.16763 0.61125 0.248 0.0
C272 C 0.16879 0.58264 0.25149 0.0
C273 C 0.15992 0.56454 0.31925 0.0
C274 C 0.16251 0.53837 0.32418 0.0
C275 C 0.17484 0.53053 0.26219 0.0
H276 H 0.18891 0.5884 0.13755 0.0
C277 C 0.18401 0.54887 0.19507 0.0
C278 C 0.18093 0.57449 0.18958 0.0
H279 H 0.19365 0.54343 0.14633 0.0
H280 H 0.21322 0.72683 0.23575 0.0
H281 H 0.20228 0.67512 0.26248 0.0
H282 H 0.13418 0.63898 0.0741 0.0
H283 H 0.14503 0.69113 0.04751 0.0
H284 H 0.15547 0.60703 0.12764 0.0
H285 H 0.17169 0.62424 0.30229 0.0
H286 H 0.15091 0.57062 0.36821 0.0
H287 H 0.15537 0.52463 0.37664 0.0
C288 C 0.53213 0.19521 0.98076 0.0
C289 C 0.50808 0.18092 0.92494 0.0
C290 C 0.55187 0.18443 0.99268 0.0
C291 C 0.5479 0.15902 0.94908 0.0
C292 C 0.52485 0.14575 0.89021 0.0
C293 C 0.50484 0.15646 0.87859 0.0
C294 C 0.56869 0.14732 0.96189 0.0
C295 C 0.58109 0.14825 0.03329 0.0
C296 C 0.60763 0.14451 0.0444 0.0
C297 C 0.62946 0.16218 0.10344 0.0
C298 C 0.65768 0.16434 0.10591 0.0
C299 C 0.6642 0.14848 0.04997 0.0
H300 H 0.5963 0.11154 0.94898 0.0
C301 C 0.64127 0.12831 0.99608 0.0
C302 C 0.61313 0.12633 0.99321 0.0
H303 H 0.64566 0.11548 0.953 0.0
H304 H 0.53532 0.21432 0.01677 0.0
H305 H 0.5703 0.19616 0.03595 0.0
H306 H 0.52184 0.12659 0.85473 0.0
H307 H 0.48643 0.14511 0.8351 0.0
H308 H 0.57506 0.13953 0.91053 0.0
H309 H 0.57417 0.15589 0.084 0.0
H310 H 0.62554 0.17606 0.14426 0.0
H311 H 0.67495 0.17983 0.14849 0.0
C312 C 0.46294 0.65731 0.2334 0.0
C313 C 0.46103 0.67652 0.17732 0.0
C314 C 0.43641 0.63202 0.26144 0.0
C315 C 0.40769 0.62593 0.23417 0.0
C316 C 0.40597 0.64555 0.17921 0.0
C317 C 0.43238 0.67043 0.15042 0.0
C318 C 0.37894 0.59955 0.26154 0.0
C319 C 0.37568 0.57232 0.28057 0.0
C320 C 0.34511 0.54506 0.29237 0.0
C321 C 0.33793 0.51646 0.26088 0.0
C322 C 0.30784 0.49172 0.25889 0.0
C323 C 0.28456 0.49522 0.28907 0.0
H324 H 0.3274 0.56934 0.35534 0.0
C325 C 0.29229 0.52316 0.32634 0.0
C326 C 0.32229 0.54781 0.32819 0.0
H327 H 0.27504 0.52644 0.35174 0.0
H328 H 0.48488 0.66179 0.25536 0.0
H329 H 0.43841 0.61763 0.30507 0.0
H330 H 0.38408 0.64136 0.15762 0.0
H331 H 0.43033 0.68509 0.10762 0.0
H332 H 0.35891 0.60161 0.25718 0.0
H333 H 0.39485 0.56896 0.27676 0.0
H334 H 0.35527 0.51375 0.23374 0.0
H335 H 0.30271 0.47035 0.23071 0.0
C336 C 0.80343 0.4581 0.97711 0.0
C337 C 0.79147 0.46686 0.03803 0.0
C338 C 0.80312 0.43048 0.98032 0.0
C339 C 0.79105 0.41104 0.04517 0.0
C340 C 0.7795 0.42011 0.10671 0.0
C341 C 0.7798 0.44783 0.10337 0.0
C342 C 0.78836 0.38041 0.04785 0.0
C343 C 0.80567 0.37316 0.00546 0.0
C344 C 0.80187 0.34207 0.00328 0.0
C345 C 0.82633 0.33934 0.97943 0.0
C346 C 0.82353 0.31051 0.97415 0.0
C347 C 0.79602 0.28361 0.99189 0.0
H348 H 0.75445 0.31608 0.03633 0.0
C349 C 0.77134 0.28626 0.01477 0.0
C350 C 0.77418 0.31514 0.02025 0.0
H351 H 0.74976 0.26603 0.02855 0.0
H352 H 0.8123 0.4722 0.92562 0.0
H353 H 0.81134 0.42409 0.93036 0.0
H354 H 0.76983 0.4055 0.15705 0.0
H355 H 0.77024 0.45398 0.15089 0.0
H356 H 0.77183 0.36354 0.0871 0.0
H357 H 0.82414 0.39092 0.97214 0.0
H358 H 0.8478 0.35963 0.96508 0.0
H359 H 0.84302 0.30941 0.95616 0.0
C360 C 0.34051 0.82609 0.0805 0.0
C361 C 0.32673 0.83062 0.14511 0.0
C362 C 0.36883 0.82858 0.08899 0.0
C363 C 0.38414 0.83556 0.16265 0.0
C364 C 0.37043 0.84026 0.22737 0.0
C365 C 0.34211 0.83816 0.21856 0.0
C366 C 0.41291 0.83527 0.17433 0.0
C367 C 0.43292 0.84185 0.11675 0.0
C368 C 0.45912 0.83687 0.12265 0.0
C369 C 0.48345 0.85253 0.07154 0.0
C370 C 0.50655 0.84562 0.06859 0.0
C371 C 0.50552 0.82243 0.11577 0.0
H372 H 0.4402 0.80139 0.21101 0.0
C373 C 0.48167 0.80741 0.16857 0.0
C374 C 0.4588 0.81453 0.17211 0.0
H375 H 0.48014 0.78944 0.20594 0.0
H376 H 0.32916 0.82014 0.02312 0.0
H377 H 0.37805 0.82385 0.03815 0.0
H378 H 0.38151 0.8453 0.28501 0.0
H379 H 0.33195 0.84162 0.26942 0.0
H380 H 0.41741 0.82912 0.23197 0.0
H381 H 0.42981 0.85087 0.06181 0.0
H382 H 0.4842 0.86967 0.03228 0.0
H383 H 0.52448 0.85752 0.02702 0.0
C384 C 0.66538 0.46459 0.02129 0.0
C385 C 0.67558 0.4908 0.97462 0.0
C386 C 0.63584 0.43908 0.01066 0.0
C387 C 0.61599 0.43896 0.952 0.0
C388 C 0.62615 0.46517 0.90549 0.0
C389 C 0.65547 0.49105 0.9175 0.0
C390 C 0.58569 0.41086 0.93438 0.0
C391 C 0.56789 0.39182 0.99059 0.0
C392 C 0.53898 0.36214 0.97312 0.0
C393 C 0.51498 0.3513 0.0255 0.0
C394 C 0.48869 0.32211 0.01446 0.0
C395 C 0.48628 0.30276 0.95209 0.0
H396 H 0.55437 0.35059 0.8684 0.0
C397 C 0.51013 0.31377 0.89905 0.0
C398 C 0.53606 0.34323 0.90898 0.0
H399 H 0.50898 0.29936 0.85054 0.0
H400 H 0.68036 0.4637 0.06576 0.0
H401 H 0.62899 0.41903 0.04644 0.0
H402 H 0.61142 0.46556 0.8594 0.0
H403 H 0.66277 0.5108 0.88021 0.0
H404 H 0.5777 0.40601 0.8734 0.0
H405 H 0.57453 0.3983 0.05194 0.0
H406 H 0.51676 0.36528 0.07579 0.0
H407 H 0.47086 0.31418 0.05678 0.0
C408 C 0.20863 0.43733 0.98343 0.0
C409 C 0.1822 0.42264 0.02752 0.0
C410 C 0.20673 0.43226 0.90194 0.0
C411 C 0.17847 0.41191 0.86422 0.0
C412 C 0.15248 0.39604 0.90944 0.0
C413 C 0.15422 0.4018 0.99007 0.0
C414 C 0.17537 0.40604 0.77825 0.0
C415 C 0.19017 0.42841 0.7255 0.0
C416 C 0.18683 0.42201 0.63935 0.0
C417 C 0.19081 0.44499 0.58628 0.0
C418 C 0.18948 0.43979 0.50486 0.0
C419 C 0.18473 0.41173 0.47566 0.0
H420 H 0.17893 0.37573 0.64798 0.0
C421 C 0.18028 0.3887 0.52865 0.0
C422 C 0.18129 0.39371 0.60935 0.0
H423 H 0.17686 0.36692 0.50773 0.0
H424 H 0.23037 0.45378 0.01121 0.0
H425 H 0.22725 0.44427 0.86854 0.0
H426 H 0.13055 0.37997 0.88186 0.0
H427 H 0.13353 0.39039 0.0231 0.0
H428 H 0.15866 0.38284 0.75792 0.0
H429 H 0.2044 0.45217 0.74582 0.0
H430 H 0.19532 0.46709 0.60788 0.0
H431 H 0.19339 0.45806 0.46512 0.0
C432 C 0.76216 0.16144 0.71235 0.0
C433 C 0.78078 0.18465 0.76762 0.0
C434 C 0.76881 0.16529 0.63258 0.0
C435 C 0.79424 0.1926 0.60627 0.0
C436 C 0.8133 0.21539 0.66216 0.0
C437 C 0.80662 0.21152 0.74195 0.0
C438 C 0.80219 0.19792 0.52184 0.0
C439 C 0.78225 0.18279 0.46139 0.0
C440 C 0.79047 0.18833 0.37709 0.0
C441 C 0.7672 0.17905 0.31902 0.0
C442 C 0.77404 0.18368 0.23925 0.0
C443 C 0.80432 0.19762 0.21606 0.0
H444 H 0.83933 0.20825 0.39511 0.0
C445 C 0.82753 0.20648 0.27371 0.0
C446 C 0.82074 0.20176 0.35318 0.0
H447 H 0.85107 0.21695 0.25738 0.0
H448 H 0.74225 0.14033 0.73068 0.0
H449 H 0.75411 0.14664 0.59227 0.0
H450 H 0.83326 0.23649 0.64395 0.0
H451 H 0.82149 0.22972 0.78337 0.0
H452 H 0.82521 0.21613 0.50962 0.0
H453 H 0.75855 0.16651 0.47335 0.0
H454 H 0.74364 0.16831 0.33541 0.0
H455 H 0.7557 0.17641 0.1959 0.0
C456 C 0.5539 0.75383 0.80646 0.0
C457 C 0.55684 0.77612 0.86079 0.0
C458 C 0.5581 0.76038 0.72633 0.0
C459 C 0.56522 0.78945 0.69854 0.0
C460 C 0.56869 0.81187 0.75342 0.0
C461 C 0.56444 0.80527 0.83352 0.0
C462 C 0.57003 0.7977 0.61369 0.0
C463 C 0.55956 0.77691 0.55366 0.0
C464 C 0.56436 0.78516 0.46879 0.0
C465 C 0.56063 0.76267 0.41378 0.0
C466 C 0.56491 0.76929 0.33368 0.0
C467 C 0.57282 0.79855 0.30657 0.0
H468 H 0.57387 0.8321 0.48042 0.0
C469 C 0.57598 0.8209 0.361 0.0
C470 C 0.57174 0.81433 0.4411 0.0
H471 H 0.58174 0.84357 0.34168 0.0
H472 H 0.54837 0.73124 0.8259 0.0
H473 H 0.55616 0.74268 0.68705 0.0
H474 H 0.57443 0.83455 0.73418 0.0
H475 H 0.56686 0.82292 0.87396 0.0
H476 H 0.58252 0.82209 0.60097 0.0
H477 H 0.54707 0.75253 0.56642 0.0
H478 H 0.55467 0.73992 0.43292 0.0
H479 H 0.56225 0.75157 0.2931 0.0
C480 C 0.79976 0.57091 0.72217 0.0
C481 C 0.77759 0.56789 0.7739 0.0
C482 C 0.79536 0.57169 0.64124 0.0
C483 C 0.76851 0.56927 0.61034 0.0
C484 C 0.74704 0.56777 0.66244 0.0
C485 C 0.75145 0.56696 0.74357 0.0
C486 C 0.76235 0.56857 0.52444 0.0
C487 C 0.77415 0.55831 0.47105 0.0
C488 C 0.76828 0.55788 0.38509 0.0
C489 C 0.78994 0.55946 0.33352 0.0
C490 C 0.78595 0.56069 0.25237 0.0
C491 C 0.76005 0.56007 0.22142 0.0
H492 H 0.72381 0.5532 0.39097 0.0
C493 C 0.73765 0.55692 0.27256 0.0
C494 C 0.74165 0.55577 0.35357 0.0
H495 H 0.71723 0.55594 0.25011 0.0
H496 H 0.82036 0.57215 0.74414 0.0
H497 H 0.81309 0.57424 0.60343 0.0
H498 H 0.72639 0.56639 0.64024 0.0
H499 H 0.73408 0.56481 0.78231 0.0
H500 H 0.7471 0.57628 0.50529 0.0
H501 H 0.78936 0.55056 0.49027 0.0
H502 H 0.81042 0.56062 0.35618 0.0
H503 H 0.80347 0.5629 0.2141 0.0
C504 C 0.17419 0.78129 0.36784 0.0
C505 C 0.19583 0.80199 0.31576 0.0
C506 C 0.17951 0.78567 0.44881 0.0
C507 C 0.2069 0.81075 0.47971 0.0
C508 C 0.22874 0.8312 0.4273 0.0
C509 C 0.22332 0.82684 0.34601 0.0
C510 C 0.21294 0.81718 0.56565 0.0
C511 C 0.19813 0.79594 0.62119 0.0
C512 C 0.20386 0.80224 0.70731 0.0
C513 C 0.18267 0.78065 0.75916 0.0
C514 C 0.18773 0.78491 0.84055 0.0
C515 C 0.21418 0.81084 0.87156 0.0
H516 H 0.24761 0.84532 0.7022 0.0
C517 C 0.23513 0.83266 0.8201 0.0
C518 C 0.23019 0.82839 0.739 0.0
H519 H 0.25583 0.85283 0.84248 0.0
H520 H 0.15269 0.76198 0.34605 0.0
H521 H 0.16159 0.76979 0.48629 0.0
H522 H 0.24999 0.8508 0.44932 0.0
H523 H 0.24036 0.84316 0.30702 0.0
H524 H 0.23035 0.84048 0.58274 0.0
H525 H 0.1809 0.7726 0.60365 0.0
H526 H 0.16223 0.76024 0.73664 0.0
H527 H 0.17127 0.76766 0.87899 0.0
C528 C 0.38009 0.20477 0.66128 0.0
C529 C 0.40239 0.20842 0.71704 0.0
C530 C 0.38462 0.20399 0.58116 0.0
C531 C 0.41179 0.20721 0.55475 0.0
C532 C 0.43417 0.21085 0.61051 0.0
C533 C 0.42934 0.21102 0.69123 0.0
C534 C 0.4176 0.20844 0.46938 0.0
C535 C 0.39526 0.19147 0.41564 0.0
C536 C 0.40052 0.19294 0.33021 0.0
C537 C 0.38681 0.16553 0.28556 0.0
C538 C 0.39149 0.16617 0.20498 0.0
C539 C 0.40898 0.19432 0.16706 0.0
H540 H 0.42816 0.24274 0.32521 0.0
C541 C 0.42172 0.22192 0.21092 0.0
C542 C 0.41786 0.22122 0.29223 0.0
H543 H 0.43546 0.24389 0.18288 0.0
H544 H 0.35916 0.2029 0.6796 0.0
H545 H 0.3672 0.20188 0.53995 0.0
H546 H 0.4554 0.21361 0.59157 0.0
H547 H 0.44699 0.21415 0.73316 0.0
H548 H 0.44088 0.2229 0.45058 0.0
H549 H 0.37264 0.1746 0.43498 0.0
H550 H 0.37306 0.14351 0.31343 0.0
H551 H 0.38148 0.14461 0.1722 0.0
loop_
_geom_bond_atom_site_label_1
_geom_bond_atom_site_label_2
_geom_bond_distance
_geom_bond_site_symmetry_2
_ccdc_geom_bond_type
Dy0 O4 2.398 . S
Dy0 O5 2.491 . S
Dy0 O6 2.403 1_554 S
Dy0 O7 2.664 . S
Dy0 O11 2.326 . S
Dy0 O15 2.310 . S
Dy0 O16 2.351 . S
C1 O12 1.185 . S
C1 O13 1.355 . S
C2 O4 1.185 . S
C2 O5 1.355 . S
Dy3 O7 2.310 . S
Dy3 O10 2.351 . S
Dy3 O12 2.398 . S
Dy3 O13 2.491 . S
Dy3 O14 2.403 . S
Dy3 O15 2.664 . S
Dy3 O17 2.326 . S
O4 Dy0 2.398 . S
O4 C2 1.185 . S
O5 Dy0 2.491 . S
O5 C2 1.355 . S
O6 Dy0 2.403 1_556 S
O6 C8 1.254 . S
O7 Dy0 2.664 . S
O7 Dy3 2.310 . S
O7 C8 1.268 1_554 S
C8 O6 1.254 . S
C8 O7 1.268 1_556 S
C9 O14 1.254 . S
C9 O15 1.268 . S
O10 Dy3 2.351 . S
O10 C18 1.249 . S
O11 Dy0 2.326 . S
O11 C18 1.267 . S
O12 C1 1.185 . S
O12 Dy3 2.398 . S
O13 C1 1.355 . S
O13 Dy3 2.491 . S
O14 Dy3 2.403 . S
O14 C9 1.254 . S
O15 Dy0 2.310 . S
O15 Dy3 2.664 . S
O15 C9 1.268 . S
O16 Dy0 2.351 . S
O16 C19 1.249 . S
O17 Dy3 2.326 . S
O17 C19 1.267 . S
C18 O10 1.249 . S
C18 O11 1.267 . S
C19 O16 1.249 . S
C19 O17 1.267 . S
Dy20 O24 2.398 . S
Dy20 O25 2.491 1_556 S
Dy20 O26 2.403 . S
Dy20 O27 2.664 . S
Dy20 O31 2.326 . S
Dy20 O35 2.310 1_556 S
Dy20 O36 2.351 . S
C21 O32 1.185 . S
C21 O33 1.355 1_554 S
C22 O24 1.185 . S
C22 O25 1.355 1_556 S
Dy23 O27 2.310 1_554 S
Dy23 O30 2.351 . S
Dy23 O32 2.398 . S
Dy23 O33 2.491 1_554 S
Dy23 O34 2.403 . S
Dy23 O35 2.664 . S
Dy23 O37 2.326 . S
O24 Dy20 2.398 . S
O24 C22 1.185 . S
O25 Dy20 2.491 1_554 S
O25 C22 1.355 1_554 S
O26 Dy20 2.403 . S
O26 C28 1.254 . S
O27 Dy20 2.664 . S
O27 Dy23 2.310 1_556 S
O27 C28 1.268 . S
C28 O26 1.254 . S
C28 O27 1.268 . S
C29 O34 1.254 . S
C29 O35 1.268 . S
O30 Dy23 2.351 . S
O30 C38 1.249 1_554 S
O31 Dy20 2.326 . S
O31 C38 1.267 . S
O32 C21 1.185 . S
O32 Dy23 2.398 . S
O33 C21 1.355 1_556 S
O33 Dy23 2.491 1_556 S
O34 Dy23 2.403 . S
O34 C29 1.254 . S
O35 Dy20 2.310 1_554 S
O35 Dy23 2.664 . S
O35 C29 1.268 . S
O36 Dy20 2.351 . S
O36 C39 1.249 1_556 S
O37 Dy23 2.326 . S
O37 C39 1.267 . S
C38 O30 1.249 1_556 S
C38 O31 1.267 . S
C39 O36 1.249 1_554 S
C39 O37 1.267 . S
Dy40 O44 2.398 . S
Dy40 O45 2.491 . S
Dy40 O46 2.403 1_554 S
Dy40 O47 2.664 . S
Dy40 O51 2.326 . S
Dy40 O55 2.310 . S
Dy40 O56 2.351 . S
C41 O52 1.185 . S
C41 O53 1.355 . S
C42 O44 1.185 . S
C42 O45 1.355 . S
Dy43 O47 2.310 . S
Dy43 O50 2.351 . S
Dy43 O52 2.398 . S
Dy43 O53 2.491 . S
Dy43 O54 2.403 . S
Dy43 O55 2.664 . S
Dy43 O57 2.326 . S
O44 Dy40 2.398 . S
O44 C42 1.185 . S
O45 Dy40 2.491 . S
O45 C42 1.355 . S
O46 Dy40 2.403 1_556 S
O46 C48 1.254 . S
O47 Dy40 2.664 . S
O47 Dy43 2.310 . S
O47 C48 1.268 1_554 S
C48 O46 1.254 . S
C48 O47 1.268 1_556 S
C49 O54 1.254 . S
C49 O55 1.268 . S
O50 Dy43 2.351 . S
O50 C58 1.249 . S
O51 Dy40 2.326 . S
O51 C58 1.267 . S
O52 C41 1.185 . S
O52 Dy43 2.398 . S
O53 C41 1.355 . S
O53 Dy43 2.491 . S
O54 Dy43 2.403 . S
O54 C49 1.254 . S
O55 Dy40 2.310 . S
O55 Dy43 2.664 . S
O55 C49 1.268 . S
O56 Dy40 2.351 . S
O56 C59 1.249 . S
O57 Dy43 2.326 . S
O57 C59 1.267 . S
C58 O50 1.249 . S
C58 O51 1.267 . S
C59 O56 1.249 . S
C59 O57 1.267 . S
Dy60 O64 2.398 . S
Dy60 O65 2.491 1_556 S
Dy60 O66 2.403 . S
Dy60 O67 2.664 . S
Dy60 O71 2.326 . S
Dy60 O75 2.310 1_556 S
Dy60 O76 2.351 1_556 S
C61 O72 1.185 . S
C61 O73 1.355 1_554 S
C62 O64 1.185 1_554 S
C62 O65 1.355 . S
Dy63 O67 2.310 1_554 S
Dy63 O70 2.351 . S
Dy63 O72 2.398 . S
Dy63 O73 2.491 1_554 S
Dy63 O74 2.403 . S
Dy63 O75 2.664 . S
Dy63 O77 2.326 . S
O64 Dy60 2.398 . S
O64 C62 1.185 1_556 S
O65 Dy60 2.491 1_554 S
O65 C62 1.355 . S
O66 Dy60 2.403 . S
O66 C68 1.254 . S
O67 Dy60 2.664 . S
O67 Dy63 2.310 1_556 S
O67 C68 1.268 . S
C68 O66 1.254 . S
C68 O67 1.268 . S
C69 O74 1.254 . S
C69 O75 1.268 . S
O70 Dy63 2.351 . S
O70 C78 1.249 1_554 S
O71 Dy60 2.326 . S
O71 C78 1.267 . S
O72 C61 1.185 . S
O72 Dy63 2.398 . S
O73 C61 1.355 1_556 S
O73 Dy63 2.491 1_556 S
O74 Dy63 2.403 . S
O74 C69 1.254 . S
O75 Dy60 2.310 1_554 S
O75 Dy63 2.664 . S
O75 C69 1.268 . S
O76 Dy60 2.351 1_554 S
O76 C79 1.249 . S
O77 Dy63 2.326 . S
O77 C79 1.267 . S
C78 O70 1.249 1_556 S
C78 O71 1.267 . S
C79 O76 1.249 . S
C79 O77 1.267 . S
Dy80 O84 2.398 . S
Dy80 O85 2.491 . S
Dy80 O86 2.403 1_554 S
Dy80 O87 2.664 . S
Dy80 O91 2.326 . S
Dy80 O95 2.310 . S
Dy80 O96 2.351 . S
C81 O92 1.185 . S
C81 O93 1.355 . S
C82 O84 1.185 . S
C82 O85 1.355 . S
Dy83 O87 2.310 . S
Dy83 O90 2.351 . S
Dy83 O92 2.398 . S
Dy83 O93 2.491 . S
Dy83 O94 2.403 . S
Dy83 O95 2.664 . S
Dy83 O97 2.326 . S
O84 Dy80 2.398 . S
O84 C82 1.185 . S
O85 Dy80 2.491 . S
O85 C82 1.355 . S
O86 Dy80 2.403 1_556 S
O86 C88 1.254 . S
O87 Dy80 2.664 . S
O87 Dy83 2.310 . S
O87 C88 1.268 1_554 S
C88 O86 1.254 . S
C88 O87 1.268 1_556 S
C89 O94 1.254 . S
C89 O95 1.268 . S
O90 Dy83 2.351 . S
O90 C98 1.249 . S
O91 Dy80 2.326 . S
O91 C98 1.267 . S
O92 C81 1.185 . S
O92 Dy83 2.398 . S
O93 C81 1.355 . S
O93 Dy83 2.491 . S
O94 Dy83 2.403 . S
O94 C89 1.254 . S
O95 Dy80 2.310 . S
O95 Dy83 2.664 . S
O95 C89 1.268 . S
O96 Dy80 2.351 . S
O96 C99 1.249 . S
O97 Dy83 2.326 . S
O97 C99 1.267 . S
C98 O90 1.249 . S
C98 O91 1.267 . S
C99 O96 1.249 . S
C99 O97 1.267 . S
Dy100 O104 2.398 . S
Dy100 O105 2.491 1_554 S
Dy100 O106 2.403 . S
Dy100 O107 2.664 . S
Dy100 O111 2.326 . S
Dy100 O115 2.310 1_554 S
Dy100 O116 2.351 . S
C101 O112 1.185 1_554 S
C101 O113 1.355 . S
C102 O104 1.185 1_556 S
C102 O105 1.355 . S
Dy103 O107 2.310 1_556 S
Dy103 O110 2.351 1_556 S
Dy103 O112 2.398 . S
Dy103 O113 2.491 1_556 S
Dy103 O114 2.403 . S
Dy103 O115 2.664 . S
Dy103 O117 2.326 . S
O104 Dy100 2.398 . S
O104 C102 1.185 1_554 S
O105 Dy100 2.491 1_556 S
O105 C102 1.355 . S
O106 Dy100 2.403 . S
O106 C108 1.254 . S
O107 Dy100 2.664 . S
O107 Dy103 2.310 1_554 S
O107 C108 1.268 . S
C108 O106 1.254 . S
C108 O107 1.268 . S
C109 O114 1.254 . S
C109 O115 1.268 . S
O110 Dy103 2.351 1_554 S
O110 C118 1.249 . S
O111 Dy100 2.326 . S
O111 C118 1.267 . S
O112 C101 1.185 1_556 S
O112 Dy103 2.398 . S
O113 C101 1.355 . S
O113 Dy103 2.491 1_554 S
O114 Dy103 2.403 . S
O114 C109 1.254 . S
O115 Dy100 2.310 1_556 S
O115 Dy103 2.664 . S
O115 C109 1.268 . S
O116 Dy100 2.351 . S
O116 C119 1.249 . S
O117 Dy103 2.326 . S
O117 C119 1.267 1_556 S
C118 O110 1.249 . S
C118 O111 1.267 . S
C119 O116 1.249 . S
C119 O117 1.267 1_554 S
C120 C121 1.386 . S
C120 C122 1.383 . S
C120 H136 0.951 . S
C121 C120 1.386 . S
C121 C125 1.383 1_554 S
C122 C120 1.383 . S
C122 C123 1.402 . S
C122 H137 0.951 . S
C123 C122 1.402 . S
C123 C124 1.375 1_554 S
C123 C126 1.481 . S
C124 C123 1.375 1_556 S
C124 C125 1.367 . S
C124 H138 0.951 . S
C125 C121 1.383 1_556 S
C125 C124 1.367 . S
C125 H139 0.950 . S
C126 C123 1.481 . S
C126 C127 1.297 . S
C126 H140 0.950 1_554 S
C127 C126 1.297 . S
C127 C128 1.479 . S
C127 H141 0.950 . S
C128 C127 1.479 . S
C128 C129 1.375 . S
C128 C134 1.404 . S
C129 C128 1.375 . S
C129 C130 1.369 . S
C129 H142 0.950 . S
C130 C129 1.369 . S
C130 C131 1.392 . S
C130 H143 0.951 . S
C131 C130 1.392 . S
C131 C133 1.384 . S
H132 C134 0.949 1_556 S
C133 C131 1.384 . S
C133 C134 1.385 . S
C133 H135 0.950 1_554 S
C134 C128 1.404 . S
C134 H132 0.949 1_554 S
C134 C133 1.385 . S
H135 C133 0.950 1_556 S
H136 C120 0.951 . S
H137 C122 0.951 . S
H138 C124 0.951 . S
H139 C125 0.950 . S
H140 C126 0.950 1_556 S
H141 C127 0.950 . S
H142 C129 0.950 . S
H143 C130 0.951 . S
C144 C145 1.386 . S
C144 C146 1.383 . S
C144 H160 0.951 . S
C145 C144 1.386 . S
C145 C149 1.383 . S
C146 C144 1.383 . S
C146 C147 1.402 . S
C146 H161 0.951 . S
C147 C146 1.402 . S
C147 C148 1.375 . S
C147 C150 1.481 . S
C148 C147 1.375 . S
C148 C149 1.367 . S
C148 H162 0.951 . S
C149 C145 1.383 . S
C149 C148 1.367 . S
C149 H163 0.950 . S
C150 C147 1.481 . S
C150 C151 1.297 1_455 S
C150 H164 0.950 . S
C151 C150 1.297 1_655 S
C151 C152 1.479 . S
C151 H165 0.950 1_655 S
C152 C151 1.479 . S
C152 C153 1.375 . S
C152 C158 1.404 . S
C153 C152 1.375 . S
C153 C154 1.369 . S
C153 H166 0.950 . S
C154 C153 1.369 . S
C154 C155 1.392 . S
C154 H167 0.951 . S
C155 C154 1.392 . S
C155 C157 1.384 1_554 S
H156 C158 0.949 . S
C157 C155 1.384 1_556 S
C157 C158 1.384 1_556 S
C157 H159 0.951 . S
C158 C152 1.404 . S
C158 H156 0.949 . S
C158 C157 1.384 1_554 S
H159 C157 0.951 . S
H160 C144 0.951 . S
H161 C146 0.951 . S
H162 C148 0.951 . S
H163 C149 0.950 . S
H164 C150 0.950 . S
H165 C151 0.950 1_455 S
H166 C153 0.950 . S
H167 C154 0.951 . S
C168 C169 1.386 1_556 S
C168 C170 1.383 . S
C168 H184 0.951 . S
C169 C168 1.386 1_554 S
C169 C173 1.383 . S
C170 C168 1.383 . S
C170 C171 1.402 1_556 S
C170 H185 0.951 . S
C171 C170 1.402 1_554 S
C171 C172 1.375 . S
C171 C174 1.481 . S
C172 C171 1.375 . S
C172 C173 1.367 . S
C172 H186 0.951 . S
C173 C169 1.383 . S
C173 C172 1.367 . S
C173 H187 0.950 . S
C174 C171 1.481 . S
C174 C175 1.297 . S
C174 H188 0.950 . S
C175 C174 1.297 . S
C175 C176 1.479 1_545 S
C175 H189 0.950 . S
C176 C175 1.479 1_565 S
C176 C177 1.375 . S
C176 C182 1.404 . S
C177 C176 1.375 . S
C177 C178 1.369 . S
C177 H190 0.950 1_554 S
C178 C177 1.369 . S
C178 C179 1.392 . S
C178 H191 0.951 1_554 S
C179 C178 1.392 . S
C179 C181 1.384 . S
H180 C182 0.949 . S
C181 C179 1.384 . S
C181 C182 1.385 . S
C181 H183 0.950 . S
C182 C176 1.404 . S
C182 H180 0.949 . S
C182 C181 1.385 . S
H183 C181 0.950 . S
H184 C168 0.951 . S
H185 C170 0.951 . S
H186 C172 0.951 . S
H187 C173 0.950 . S
H188 C174 0.950 . S
H189 C175 0.950 . S
H190 C177 0.950 1_556 S
H191 C178 0.951 1_556 S
C192 C193 1.386 . S
C192 C194 1.383 . S
C192 H208 0.951 . S
C193 C192 1.386 . S
C193 C197 1.383 1_554 S
C194 C192 1.383 . S
C194 C195 1.402 . S
C194 H209 0.951 . S
C195 C194 1.402 . S
C195 C196 1.375 1_554 S
C195 C198 1.481 . S
C196 C195 1.375 1_556 S
C196 C197 1.367 . S
C196 H210 0.951 . S
C197 C193 1.383 1_556 S
C197 C196 1.367 . S
C197 H211 0.950 . S
C198 C195 1.481 . S
C198 C199 1.297 . S
C198 H212 0.950 1_554 S
C199 C198 1.297 . S
C199 C200 1.479 . S
C199 H213 0.950 . S
C200 C199 1.479 . S
C200 C201 1.375 . S
C200 C206 1.404 . S
C201 C200 1.375 . S
C201 C202 1.369 . S
C201 H214 0.950 . S
C202 C201 1.369 . S
C202 C203 1.392 . S
C202 H215 0.951 . S
C203 C202 1.392 . S
C203 C205 1.384 . S
H204 C206 0.949 1_556 S
C205 C203 1.384 . S
C205 C206 1.385 . S
C205 H207 0.950 1_554 S
C206 C200 1.404 . S
C206 H204 0.949 1_554 S
C206 C205 1.385 . S
H207 C205 0.950 1_556 S
H208 C192 0.951 . S
H209 C194 0.951 . S
H210 C196 0.951 . S
H211 C197 0.950 . S
H212 C198 0.950 1_556 S
H213 C199 0.950 . S
H214 C201 0.950 . S
H215 C202 0.951 . S
C216 C217 1.386 . S
C216 C218 1.383 . S
C216 H232 0.951 . S
C217 C216 1.386 . S
C217 C221 1.383 . S
C218 C216 1.383 . S
C218 C219 1.402 . S
C218 H233 0.951 1_455 S
C219 C218 1.402 . S
C219 C220 1.375 1_554 S
C219 C222 1.481 1_455 S
C220 C219 1.375 1_556 S
C220 C221 1.367 1_556 S
C220 H234 0.951 . S
C221 C217 1.383 . S
C221 C220 1.367 1_554 S
C221 H235 0.950 1_554 S
C222 C219 1.481 1_655 S
C222 C223 1.297 . S
C222 H236 0.950 1_554 S
C223 C222 1.297 . S
C223 C224 1.479 . S
C223 H237 0.950 . S
C224 C223 1.479 . S
C224 C225 1.375 . S
C224 C230 1.404 1_554 S
C225 C224 1.375 . S
C225 C226 1.369 . S
C225 H238 0.950 . S
C226 C225 1.369 . S
C226 C227 1.392 . S
C226 H239 0.951 . S
C227 C226 1.392 . S
C227 C229 1.384 1_554 S
H228 C230 0.949 . S
C229 C227 1.384 1_556 S
C229 C230 1.385 . S
C229 H231 0.950 . S
C230 C224 1.404 1_556 S
C230 H228 0.949 . S
C230 C229 1.385 . S
H231 C229 0.950 . S
H232 C216 0.951 . S
H233 C218 0.951 1_655 S
H234 C220 0.951 . S
H235 C221 0.950 1_556 S
H236 C222 0.950 1_556 S
H237 C223 0.950 . S
H238 C225 0.950 . S
H239 C226 0.951 . S
C240 C241 1.386 . S
C240 C242 1.383 . S
C240 H256 0.951 . S
C241 C240 1.386 . S
C241 C245 1.383 . S
C242 C240 1.383 . S
C242 C243 1.402 . S
C242 H257 0.951 . S
C243 C242 1.402 . S
C243 C244 1.372 1_554 S
C243 C246 1.481 . S
C244 C243 1.372 1_556 S
C244 C245 1.365 1_556 S
C244 H258 0.956 . S
C245 C241 1.383 . S
C245 C244 1.365 1_554 S
C245 H259 0.950 1_554 S
C246 C243 1.481 . S
C246 C247 1.297 1_565 S
C246 H260 0.950 1_554 S
C247 C246 1.297 1_545 S
C247 C248 1.479 . S
C247 H261 0.950 . S
C248 C247 1.479 . S
C248 C249 1.375 . S
C248 C254 1.404 1_554 S
C249 C248 1.375 . S
C249 C250 1.369 . S
C249 H262 0.950 . S
C250 C249 1.369 . S
C250 C251 1.392 . S
C250 H263 0.951 . S
C251 C250 1.392 . S
C251 C253 1.384 1_554 S
H252 C254 0.949 . S
C253 C251 1.384 1_556 S
C253 C254 1.385 . S
C253 H255 0.950 . S
C254 C248 1.404 1_556 S
C254 H252 0.949 . S
C254 C253 1.385 . S
H255 C253 0.950 . S
H256 C240 0.951 . S
H257 C242 0.951 . S
H258 C244 0.956 . S
H259 C245 0.950 1_556 S
H260 C246 0.950 1_556 S
H261 C247 0.950 . S
H262 C249 0.950 . S
H263 C250 0.951 . S
C264 C265 1.386 . S
C264 C266 1.383 . S
C264 H280 0.951 . S
C265 C264 1.386 . S
C265 C269 1.383 . S
C266 C264 1.383 . S
C266 C267 1.402 . S
C266 H281 0.951 . S
C267 C266 1.402 . S
C267 C268 1.375 . S
C267 C270 1.481 . S
C268 C267 1.375 . S
C268 C269 1.367 . S
C268 H282 0.951 1_554 S
C269 C265 1.383 . S
C269 C268 1.367 . S
C269 H283 0.956 . S
C270 C267 1.481 . S
C270 C271 1.297 . S
C270 H284 0.950 . S
C271 C270 1.297 . S
C271 C272 1.479 . S
C271 H285 0.950 . S
C272 C271 1.479 . S
C272 C273 1.375 . S
C272 C278 1.404 . S
C273 C272 1.375 . S
C273 C274 1.369 . S
C273 H286 0.950 . S
C274 C273 1.369 . S
C274 C275 1.392 . S
C274 H287 0.951 . S
C275 C274 1.392 . S
C275 C277 1.384 . S
H276 C278 0.949 . S
C277 C275 1.384 . S
C277 C278 1.385 . S
C277 H279 0.950 . S
C278 C272 1.404 . S
C278 H276 0.949 . S
C278 C277 1.385 . S
H279 C277 0.950 . S
H280 C264 0.951 . S
H281 C266 0.951 . S
H282 C268 0.951 1_556 S
H283 C269 0.956 . S
H284 C270 0.950 . S
H285 C271 0.950 . S
H286 C273 0.950 . S
H287 C274 0.951 . S
C288 C289 1.386 1_554 S
C288 C290 1.383 . S
C288 H304 0.951 . S
C289 C288 1.386 1_556 S
C289 C293 1.383 . S
C290 C288 1.383 . S
C290 C291 1.402 1_554 S
C290 H305 0.951 . S
C291 C290 1.402 1_556 S
C291 C292 1.375 . S
C291 C294 1.481 . S
C292 C291 1.375 . S
C292 C293 1.367 . S
C292 H306 0.951 . S
C293 C289 1.383 . S
C293 C292 1.367 . S
C293 H307 0.950 . S
C294 C291 1.481 . S
C294 C295 1.297 . S
C294 H308 0.950 . S
C295 C294 1.297 . S
C295 C296 1.479 . S
C295 H309 0.950 . S
C296 C295 1.479 . S
C296 C297 1.375 1_556 S
C296 C302 1.404 . S
C297 C296 1.375 1_554 S
C297 C298 1.369 . S
C297 H310 0.950 . S
C298 C297 1.369 . S
C298 C299 1.392 1_554 S
C298 H311 0.951 . S
C299 C298 1.392 1_556 S
C299 C301 1.384 . S
H300 C302 0.949 . S
C301 C299 1.384 . S
C301 C302 1.385 . S
C301 H303 0.950 . S
C302 C296 1.404 . S
C302 H300 0.949 . S
C302 C301 1.385 . S
H303 C301 0.950 . S
H304 C288 0.951 . S
H305 C290 0.951 . S
H306 C292 0.951 . S
H307 C293 0.950 . S
H308 C294 0.950 . S
H309 C295 0.950 . S
H310 C297 0.950 . S
H311 C298 0.951 . S
C312 C313 1.386 . S
C312 C314 1.383 . S
C312 H328 0.951 . S
C313 C312 1.386 . S
C313 C317 1.383 . S
C314 C312 1.383 . S
C314 C315 1.402 . S
C314 H329 0.951 . S
C315 C314 1.402 . S
C315 C316 1.375 . S
C315 C318 1.481 . S
C316 C315 1.375 . S
C316 C317 1.367 . S
C316 H330 0.951 . S
C317 C313 1.383 . S
C317 C316 1.367 . S
C317 H331 0.950 . S
C318 C315 1.481 . S
C318 C319 1.297 . S
C318 H332 0.950 . S
C319 C318 1.297 . S
C319 C320 1.479 . S
C319 H333 0.950 . S
C320 C319 1.479 . S
C320 C321 1.375 . S
C320 C326 1.404 . S
C321 C320 1.375 . S
C321 C322 1.369 . S
C321 H334 0.950 . S
C322 C321 1.369 . S
C322 C323 1.392 . S
C322 H335 0.951 . S
C323 C322 1.392 . S
C323 C325 1.384 . S
H324 C326 0.949 . S
C325 C323 1.384 . S
C325 C326 1.385 . S
C325 H327 0.950 . S
C326 C320 1.404 . S
C326 H324 0.949 . S
C326 C325 1.385 . S
H327 C325 0.950 . S
H328 C312 0.951 . S
H329 C314 0.951 . S
H330 C316 0.951 . S
H331 C317 0.950 . S
H332 C318 0.950 . S
H333 C319 0.950 . S
H334 C321 0.950 . S
H335 C322 0.951 . S
C336 C337 1.386 1_556 S
C336 C338 1.383 . S
C336 H352 0.951 . S
C337 C336 1.386 1_554 S
C337 C341 1.383 . S
C338 C336 1.383 . S
C338 C339 1.402 1_556 S
C338 H353 0.951 . S
C339 C338 1.402 1_554 S
C339 C340 1.375 . S
C339 C342 1.481 . S
C340 C339 1.375 . S
C340 C341 1.367 . S
C340 H354 0.951 . S
C341 C337 1.383 . S
C341 C340 1.367 . S
C341 H355 0.950 . S
C342 C339 1.481 . S
C342 C343 1.297 . S
C342 H356 0.950 . S
C343 C342 1.297 . S
C343 C344 1.479 . S
C343 H357 0.950 . S
C344 C343 1.479 . S
C344 C345 1.375 1_554 S
C344 C350 1.404 . S
C345 C344 1.375 1_556 S
C345 C346 1.369 . S
C345 H358 0.950 . S
C346 C345 1.369 . S
C346 C347 1.392 1_556 S
C346 H359 0.951 . S
C347 C346 1.392 1_554 S
C347 C349 1.384 . S
H348 C350 0.949 . S
C349 C347 1.384 . S
C349 C350 1.385 . S
C349 H351 0.950 . S
C350 C344 1.404 . S
C350 H348 0.949 . S
C350 C349 1.385 . S
H351 C349 0.950 . S
H352 C336 0.951 . S
H353 C338 0.951 . S
H354 C340 0.951 . S
H355 C341 0.950 . S
H356 C342 0.950 . S
H357 C343 0.950 . S
H358 C345 0.950 . S
H359 C346 0.951 . S
C360 C361 1.386 . S
C360 C362 1.383 . S
C360 H376 0.951 . S
C361 C360 1.386 . S
C361 C365 1.383 . S
C362 C360 1.383 . S
C362 C363 1.402 . S
C362 H377 0.951 . S
C363 C362 1.402 . S
C363 C364 1.375 . S
C363 C366 1.481 . S
C364 C363 1.375 . S
C364 C365 1.367 . S
C364 H378 0.951 . S
C365 C361 1.383 . S
C365 C364 1.367 . S
C365 H379 0.950 . S
C366 C363 1.481 . S
C366 C367 1.297 . S
C366 H380 0.950 . S
C367 C366 1.297 . S
C367 C368 1.479 . S
C367 H381 0.950 . S
C368 C367 1.479 . S
C368 C369 1.375 . S
C368 C374 1.404 . S
C369 C368 1.375 . S
C369 C370 1.369 . S
C369 H382 0.950 . S
C370 C369 1.369 . S
C370 C371 1.392 . S
C370 H383 0.951 . S
C371 C370 1.392 . S
C371 C373 1.384 . S
H372 C374 0.949 . S
C373 C371 1.384 . S
C373 C374 1.385 . S
C373 H375 0.950 . S
C374 C368 1.404 . S
C374 H372 0.949 . S
C374 C373 1.385 . S
H375 C373 0.950 . S
H376 C360 0.951 . S
H377 C362 0.951 . S
H378 C364 0.951 . S
H379 C365 0.950 . S
H380 C366 0.950 . S
H381 C367 0.950 . S
H382 C369 0.950 . S
H383 C370 0.951 . S
C384 C385 1.386 1_554 S
C384 C386 1.383 . S
C384 H400 0.951 . S
C385 C384 1.386 1_556 S
C385 C389 1.383 . S
C386 C384 1.383 . S
C386 C387 1.402 1_554 S
C386 H401 0.951 . S
C387 C386 1.402 1_556 S
C387 C388 1.375 . S
C387 C390 1.481 . S
C388 C387 1.375 . S
C388 C389 1.367 . S
C388 H402 0.951 . S
C389 C385 1.383 . S
C389 C388 1.367 . S
C389 H403 0.950 . S
C390 C387 1.481 . S
C390 C391 1.297 1_556 S
C390 H404 0.950 . S
C391 C390 1.297 1_554 S
C391 C392 1.479 . S
C391 H405 0.950 . S
C392 C391 1.479 . S
C392 C393 1.375 . S
C392 C398 1.404 1_554 S
C393 C392 1.375 . S
C393 C394 1.369 . S
C393 H406 0.950 . S
C394 C393 1.369 . S
C394 C395 1.392 . S
C394 H407 0.951 . S
C395 C394 1.392 . S
C395 C397 1.384 1_554 S
H396 C398 0.949 . S
C397 C395 1.384 1_556 S
C397 C398 1.385 . S
C397 H399 0.950 . S
C398 C392 1.404 1_556 S
C398 H396 0.949 . S
C398 C397 1.385 . S
H399 C397 0.950 . S
H400 C384 0.951 . S
H401 C386 0.951 . S
H402 C388 0.951 . S
H403 C389 0.950 . S
H404 C390 0.950 . S
H405 C391 0.950 . S
H406 C393 0.950 . S
H407 C394 0.951 . S
C408 C409 1.386 . S
C408 C410 1.383 . S
C408 H424 0.951 . S
C409 C408 1.386 . S
C409 C413 1.383 . S
C410 C408 1.383 . S
C410 C411 1.402 . S
C410 H425 0.951 . S
C411 C410 1.402 . S
C411 C412 1.375 . S
C411 C414 1.481 . S
C412 C411 1.375 . S
C412 C413 1.367 . S
C412 H426 0.951 . S
C413 C409 1.383 . S
C413 C412 1.367 . S
C413 H427 0.950 . S
C414 C411 1.481 . S
C414 C415 1.297 . S
C414 H428 0.950 . S
C415 C414 1.297 . S
C415 C416 1.479 . S
C415 H429 0.950 . S
C416 C415 1.479 . S
C416 C417 1.375 . S
C416 C422 1.404 . S
C417 C416 1.375 . S
C417 C418 1.369 . S
C417 H430 0.950 . S
C418 C417 1.369 . S
C418 C419 1.392 . S
C418 H431 0.951 . S
C419 C418 1.392 . S
C419 C421 1.384 . S
H420 C422 0.949 . S
C421 C419 1.384 . S
C421 C422 1.385 . S
C421 H423 0.950 . S
C422 C416 1.404 . S
C422 H420 0.949 . S
C422 C421 1.385 . S
H423 C421 0.950 . S
H424 C408 0.951 . S
H425 C410 0.951 . S
H426 C412 0.951 . S
H427 C413 0.950 . S
H428 C414 0.950 . S
H429 C415 0.950 . S
H430 C417 0.950 . S
H431 C418 0.951 . S
C432 C433 1.386 . S
C432 C434 1.383 . S
C432 H448 0.951 . S
C433 C432 1.386 . S
C433 C437 1.383 . S
C434 C432 1.383 . S
C434 C435 1.402 . S
C434 H449 0.951 . S
C435 C434 1.402 . S
C435 C436 1.375 . S
C435 C438 1.481 . S
C436 C435 1.375 . S
C436 C437 1.367 . S
C436 H450 0.951 . S
C437 C433 1.383 . S
C437 C436 1.367 . S
C437 H451 0.950 . S
C438 C435 1.481 . S
C438 C439 1.297 . S
C438 H452 0.950 . S
C439 C438 1.297 . S
C439 C440 1.479 . S
C439 H453 0.950 . S
C440 C439 1.479 . S
C440 C441 1.375 . S
C440 C446 1.404 . S
C441 C440 1.375 . S
C441 C442 1.369 . S
C441 H454 0.950 . S
C442 C441 1.369 . S
C442 C443 1.392 . S
C442 H455 0.951 . S
C443 C442 1.392 . S
C443 C445 1.384 . S
H444 C446 0.949 . S
C445 C443 1.384 . S
C445 C446 1.385 . S
C445 H447 0.950 . S
C446 C440 1.404 . S
C446 H444 0.949 . S
C446 C445 1.385 . S
H447 C445 0.950 . S
H448 C432 0.951 . S
H449 C434 0.951 . S
H450 C436 0.951 . S
H451 C437 0.950 . S
H452 C438 0.950 . S
H453 C439 0.950 . S
H454 C441 0.950 . S
H455 C442 0.951 . S
C456 C457 1.386 . S
C456 C458 1.383 . S
C456 H472 0.951 . S
C457 C456 1.386 . S
C457 C461 1.383 . S
C458 C456 1.383 . S
C458 C459 1.402 . S
C458 H473 0.951 . S
C459 C458 1.402 . S
C459 C460 1.375 . S
C459 C462 1.481 . S
C460 C459 1.375 . S
C460 C461 1.367 . S
C460 H474 0.951 . S
C461 C457 1.383 . S
C461 C460 1.367 . S
C461 H475 0.950 . S
C462 C459 1.481 . S
C462 C463 1.297 . S
C462 H476 0.950 . S
C463 C462 1.297 . S
C463 C464 1.479 . S
C463 H477 0.950 . S
C464 C463 1.479 . S
C464 C465 1.375 . S
C464 C470 1.404 . S
C465 C464 1.375 . S
C465 C466 1.369 . S
C465 H478 0.950 . S
C466 C465 1.369 . S
C466 C467 1.392 . S
C466 H479 0.951 . S
C467 C466 1.392 . S
C467 C469 1.384 . S
H468 C470 0.949 . S
C469 C467 1.384 . S
C469 C470 1.385 . S
C469 H471 0.950 . S
C470 C464 1.404 . S
C470 H468 0.949 . S
C470 C469 1.385 . S
H471 C469 0.950 . S
H472 C456 0.951 . S
H473 C458 0.951 . S
H474 C460 0.951 . S
H475 C461 0.950 . S
H476 C462 0.950 . S
H477 C463 0.950 . S
H478 C465 0.950 . S
H479 C466 0.951 . S
C480 C481 1.386 . S
C480 C482 1.383 . S
C480 H496 0.951 . S
C481 C480 1.386 . S
C481 C485 1.383 . S
C482 C480 1.383 . S
C482 C483 1.402 . S
C482 H497 0.951 . S
C483 C482 1.402 . S
C483 C484 1.375 . S
C483 C486 1.481 . S
C484 C483 1.375 . S
C484 C485 1.367 . S
C484 H498 0.951 . S
C485 C481 1.383 . S
C485 C484 1.367 . S
C485 H499 0.950 . S
C486 C483 1.481 . S
C486 C487 1.297 . S
C486 H500 0.950 . S
C487 C486 1.297 . S
C487 C488 1.479 . S
C487 H501 0.950 . S
C488 C487 1.479 . S
C488 C489 1.375 . S
C488 C494 1.404 . S
C489 C488 1.375 . S
C489 C490 1.369 . S
C489 H502 0.950 . S
C490 C489 1.369 . S
C490 C491 1.392 . S
C490 H503 0.951 . S
C491 C490 1.392 . S
C491 C493 1.384 . S
H492 C494 0.949 . S
C493 C491 1.384 . S
C493 C494 1.385 . S
C493 H495 0.950 . S
C494 C488 1.404 . S
C494 H492 0.949 . S
C494 C493 1.385 . S
H495 C493 0.950 . S
H496 C480 0.951 . S
H497 C482 0.951 . S
H498 C484 0.951 . S
H499 C485 0.950 . S
H500 C486 0.950 . S
H501 C487 0.950 . S
H502 C489 0.950 . S
H503 C490 0.951 . S
C504 C505 1.386 . S
C504 C506 1.383 . S
C504 H520 0.951 . S
C505 C504 1.386 . S
C505 C509 1.383 . S
C506 C504 1.383 . S
C506 C507 1.402 . S
C506 H521 0.951 . S
C507 C506 1.402 . S
C507 C508 1.375 . S
C507 C510 1.481 . S
C508 C507 1.375 . S
C508 C509 1.367 . S
C508 H522 0.951 . S
C509 C505 1.383 . S
C509 C508 1.367 . S
C509 H523 0.950 . S
C510 C507 1.481 . S
C510 C511 1.297 . S
C510 H524 0.950 . S
C511 C510 1.297 . S
C511 C512 1.479 . S
C511 H525 0.950 . S
C512 C511 1.479 . S
C512 C513 1.375 . S
C512 C518 1.404 . S
C513 C512 1.375 . S
C513 C514 1.369 . S
C513 H526 0.950 . S
C514 C513 1.369 . S
C514 C515 1.392 . S
C514 H527 0.951 . S
C515 C514 1.392 . S
C515 C517 1.384 . S
H516 C518 0.949 . S
C517 C515 1.384 . S
C517 C518 1.385 . S
C517 H519 0.950 . S
C518 C512 1.404 . S
C518 H516 0.949 . S
C518 C517 1.385 . S
H519 C517 0.950 . S
H520 C504 0.951 . S
H521 C506 0.951 . S
H522 C508 0.951 . S
H523 C509 0.950 . S
H524 C510 0.950 . S
H525 C511 0.950 . S
H526 C513 0.950 . S
H527 C514 0.951 . S
C528 C529 1.386 . S
C528 C530 1.383 . S
C528 H544 0.951 . S
C529 C528 1.386 . S
C529 C533 1.383 . S
C530 C528 1.383 . S
C530 C531 1.402 . S
C530 H545 0.951 . S
C531 C530 1.402 . S
C531 C532 1.375 . S
C531 C534 1.481 . S
C532 C531 1.375 . S
C532 C533 1.367 . S
C532 H546 0.951 . S
C533 C529 1.383 . S
C533 C532 1.367 . S
C533 H547 0.950 . S
C534 C531 1.481 . S
C534 C535 1.297 . S
C534 H548 0.950 . S
C535 C534 1.297 . S
C535 C536 1.479 . S
C535 H549 0.950 . S
C536 C535 1.479 . S
C536 C537 1.375 . S
C536 C542 1.404 . S
C537 C536 1.375 . S
C537 C538 1.369 . S
C537 H550 0.950 . S
C538 C537 1.369 . S
C538 C539 1.392 . S
C538 H551 0.951 . S
C539 C538 1.392 . S
C539 C541 1.384 . S
H540 C542 0.949 . S
C541 C539 1.384 . S
C541 C542 1.385 . S
C541 H543 0.950 . S
C542 C536 1.404 . S
C542 H540 0.949 . S
C542 C541 1.385 . S
H543 C541 0.950 . S
H544 C528 0.951 . S
H545 C530 0.951 . S
H546 C532 0.951 . S
H547 C533 0.950 . S
H548 C534 0.950 . S
H549 C535 0.950 . S
H550 C537 0.950 . S
H551 C538 0.951 . S
C121 C101 1.228 . S
C131 C1 1.210 . S
C145 C19 1.127 . S
C155 C21 0.965 . S
C169 C39 0.878 . S
C179 C41 0.984 . S
C193 C61 1.655 . S
C203 C59 1.750 . S
C217 C81 1.548 . S
C227 C79 1.726 . S
C241 C99 1.233 . S
C251 C119 1.171 . S
C265 C98 1.733 . S
C275 C2 1.696 . S
C289 C102 1.346 . S
C299 C22 1.306 . S
C313 C42 1.505 . S
C323 C18 1.511 . S
C337 C62 1.796 . S
C347 C38 1.816 1_554 S
C361 C82 2.077 . S
C371 C58 2.070 . S
C385 C78 2.256 . S
C395 C118 2.240 . S
C409 C8 1.449 . S
C419 C9 1.377 . S
C433 C28 1.450 . S
C443 C29 1.438 . S
C457 C48 1.423 . S
C467 C49 1.466 . S
C481 C68 1.439 . S
C491 C69 1.446 . S
C505 C89 1.440 . S
C515 C88 1.367 . S
C529 C109 1.414 . S
C539 C108 1.467 . S
