# Generated by pormake.
# Topology sod, (4)-cn, num edge types: 1
# Building blocks:
#     Node 0, Type 0, BuildingBlock: UXUYUI_clean_sbu_0, # of connection points: 4
#     Node 1, Type 0, BuildingBlock: UXUYUI_clean_sbu_0, # of connection points: 4
#     Node 2, Type 0, BuildingBlock: UXUYUI_clean_sbu_0, # of connection points: 4
#     Node 3, Type 0, BuildingBlock: UXUYUI_clean_sbu_0, # of connection points: 4
#     Node 4, Type 0, BuildingBlock: UXUYUI_clean_sbu_0, # of connection points: 4
#     Node 5, Type 0, BuildingBlock: UXUYUI_clean_sbu_0, # of connection points: 4
#     Node 6, Type 0, BuildingBlock: UXUYUI_clean_sbu_0, # of connection points: 4
#     Node 7, Type 0, BuildingBlock: UXUYUI_clean_sbu_0, # of connection points: 4
#     Node 8, Type 0, BuildingBlock: UXUYUI_clean_sbu_0, # of connection points: 4
#     Node 9, Type 0, BuildingBlock: UXUYUI_clean_sbu_0, # of connection points: 4
#     Node 10, Type 0, BuildingBlock: UXUYUI_clean_sbu_0, # of connection points: 4
#     Node 11, Type 0, BuildingBlock: UXUYUI_clean_sbu_0, # of connection points: 4
#     Edge 12, Type (0, 0), BuildingBlock: ZUJKAS_clean_linker_0, # of connection points: 2
#     Edge 13, Type (0, 0), BuildingBlock: ZUJKAS_clean_linker_0, # of connection points: 2
#     Edge 14, Type (0, 0), BuildingBlock: ZUJKAS_clean_linker_0, # of connection points: 2
#     Edge 15, Type (0, 0), BuildingBlock: ZUJKAS_clean_linker_0, # of connection points: 2
#     Edge 16, Type (0, 0), BuildingBlock: ZUJKAS_clean_linker_0, # of connection points: 2
#     Edge 17, Type (0, 0), BuildingBlock: ZUJKAS_clean_linker_0, # of connection points: 2
#     Edge 18, Type (0, 0), BuildingBlock: ZUJKAS_clean_linker_0, # of connection points: 2
#     Edge 19, Type (0, 0), BuildingBlock: ZUJKAS_clean_linker_0, # of connection points: 2
#     Edge 20, Type (0, 0), BuildingBlock: ZUJKAS_clean_linker_0, # of connection points: 2
#     Edge 21, Type (0, 0), BuildingBlock: ZUJKAS_clean_linker_0, # of connection points: 2
#     Edge 22, Type (0, 0), BuildingBlock: ZUJKAS_clean_linker_0, # of connection points: 2
#     Edge 23, Type (0, 0), BuildingBlock: ZUJKAS_clean_linker_0, # of connection points: 2
#     Edge 24, Type (0, 0), BuildingBlock: ZUJKAS_clean_linker_0, # of connection points: 2
#     Edge 25, Type (0, 0), BuildingBlock: ZUJKAS_clean_linker_0, # of connection points: 2
#     Edge 26, Type (0, 0), BuildingBlock: ZUJKAS_clean_linker_0, # of connection points: 2
#     Edge 27, Type (0, 0), BuildingBlock: ZUJKAS_clean_linker_0, # of connection points: 2
#     Edge 28, Type (0, 0), BuildingBlock: ZUJKAS_clean_linker_0, # of connection points: 2
#     Edge 29, Type (0, 0), BuildingBlock: ZUJKAS_clean_linker_0, # of connection points: 2
#     Edge 30, Type (0, 0), BuildingBlock: ZUJKAS_clean_linker_0, # of connection points: 2
#     Edge 31, Type (0, 0), BuildingBlock: ZUJKAS_clean_linker_0, # of connection points: 2
#     Edge 32, Type (0, 0), BuildingBlock: ZUJKAS_clean_linker_0, # of connection points: 2
#     Edge 33, Type (0, 0), BuildingBlock: ZUJKAS_clean_linker_0, # of connection points: 2
#     Edge 34, Type (0, 0), BuildingBlock: ZUJKAS_clean_linker_0, # of connection points: 2
#     Edge 35, Type (0, 0), BuildingBlock: ZUJKAS_clean_linker_0, # of connection points: 2
# Relax obj value: 0.150
# Max RMSD: 0.167
# Mean RMSD: 0.167
data_MOF--net-sod--node1-UXUYUI_clean_sbu_0--edge1-ZUJKAS_clean_linker_0
_symmetry_space_group_name_H-M    P1
_symmetry_Int_Tables_number       1
_symmetry_cell_setting            triclinic
loop_
_symmetry_equiv_pos_as_xyz
'x, y, z'
_cell_length_a     74.817859
_cell_length_b     74.812584
_cell_length_c     74.834844
_cell_angle_alpha  90.006301
_cell_angle_beta   90.002385
_cell_angle_gamma 89.994771
loop_
_atom_site_label
_atom_site_type_symbol
_atom_site_fract_x
_atom_site_fract_y
_atom_site_fract_z
_atom_type_partial_charge
Li0 Li 0.98101 0.23583 0.49671 0.0
Li1 Li -0.00184 0.25789 0.51357 0.0
Li2 Li -0.00225 0.25835 0.47989 0.0
Li3 Li 0.01468 0.23601 0.49653 0.0
C4 C 0.96011 0.26659 0.49571 0.0
N5 N 0.92432 0.27538 0.49298 0.0
C6 C 0.95077 0.27275 0.51067 0.0
C7 C 0.95132 0.26526 0.47929 0.0
C8 C 0.93266 0.27702 0.50904 0.0
C9 C 0.93322 0.26967 0.47819 0.0
C10 C -0.00229 0.22857 0.53474 0.0
C11 C 0.01233 0.22911 0.56347 0.0
N12 N 0.99706 0.22309 0.57127 0.0
C13 C 0.98223 0.22218 0.54302 0.0
C14 C 0.01295 0.23186 0.54502 0.0
C15 C 0.98214 0.21957 0.5615 0.0
C16 C 0.96002 0.20659 0.48609 0.0
N17 N 0.96027 0.22126 0.49678 0.0
C18 C 0.93122 0.21433 0.50805 0.0
C19 C 0.94633 0.22524 0.50773 0.0
C20 C 0.93051 0.19918 0.49701 0.0
C21 C 0.94514 0.19536 0.48589 0.0
H22 H 0.97147 0.20346 0.47787 0.0
H23 H 0.94708 0.23666 0.51651 0.0
C24 C 0.01101 0.2851 0.53592 0.0
N25 N -0.00162 0.27215 0.5345 0.0
C26 C 0.01185 0.29576 0.55118 0.0
C27 C 0.98651 0.27967 0.56315 0.0
C28 C 0.98614 0.26936 0.54763 0.0
C29 C -0.00049 0.29308 0.56507 0.0
H30 H 0.02037 0.28726 0.52514 0.0
H31 H 0.97607 0.25914 0.54605 0.0
C32 C 0.99585 0.22789 0.45872 0.0
N33 N 0.99192 0.21965 0.42292 0.0
C34 C 0.01042 0.22159 0.44886 0.0
C35 C 0.9792 0.22965 0.45043 0.0
C36 C 0.00819 0.21759 0.43076 0.0
C37 C 0.9775 0.22551 0.43231 0.0
C38 C 0.03617 0.26495 0.49594 0.0
C39 C 0.04434 0.27067 0.48014 0.0
C40 C 0.04662 0.26194 0.51112 0.0
C41 C 0.06287 0.27291 0.4797 0.0
C42 C 0.06512 0.2643 0.51014 0.0
N43 N 0.0728 0.26967 0.49457 0.0
C44 C 0.987 0.28803 0.4597 0.0
C45 C 0.0079 0.26931 0.44498 0.0
C46 C 0.98649 0.29952 0.44505 0.0
N47 N -0.00253 0.2732 0.45934 0.0
C48 C 0.0079 0.28051 0.43007 0.0
C49 C 0.99708 0.29583 0.43001 0.0
H50 H 0.97921 0.29107 0.47147 0.0
H51 H 0.0165 0.25773 0.44522 0.0
C52 C 0.03708 0.20883 0.50924 0.0
N53 N 0.03546 0.22152 0.49636 0.0
C54 C 0.05219 0.19796 0.50985 0.0
C55 C 0.06358 0.21319 0.48373 0.0
C56 C 0.04824 0.2238 0.48365 0.0
C57 C 0.06569 0.20008 0.49699 0.0
H58 H 0.02657 0.20704 0.51895 0.0
H59 H 0.04652 0.23384 0.47342 0.0
O60 O 0.97785 0.26227 0.4971 0.0
O61 O -0.00202 0.23136 0.51665 0.0
O62 O -0.00217 0.23194 0.47645 0.0
O63 O 0.01804 0.26252 0.49657 0.0
H64 H 0.95737 0.27413 0.52343 0.0
H65 H 0.95844 0.26109 0.46746 0.0
H66 H 0.92524 0.28166 0.52055 0.0
H67 H 0.92625 0.26863 0.46556 0.0
H68 H 0.02401 0.23172 0.57159 0.0
H69 H 0.97039 0.21929 0.53529 0.0
H70 H 0.02513 0.23648 0.53884 0.0
H71 H 0.97021 0.21474 0.56808 0.0
H72 H 0.92022 0.21771 0.51684 0.0
H73 H 0.94526 0.1836 0.47745 0.0
H74 H 0.02185 0.30619 0.55193 0.0
H75 H 0.9768 0.27708 0.57357 0.0
H76 H 0.02333 0.21988 0.45507 0.0
H77 H 0.96767 0.23394 0.45794 0.0
H78 H 0.01939 0.21284 0.42295 0.0
H79 H 0.9647 0.22687 0.42573 0.0
H80 H 0.03648 0.27331 0.46833 0.0
H81 H 0.04053 0.25785 0.52354 0.0
H82 H 0.06936 0.27722 0.46752 0.0
H83 H 0.07336 0.2619 0.52177 0.0
H84 H 0.97823 0.3114 0.44566 0.0
H85 H 0.01628 0.27722 0.41873 0.0
H86 H 0.05311 0.18775 0.52008 0.0
H87 H 0.07371 0.2153 0.47361 0.0
Li88 Li 0.73648 -0.00267 0.51437 0.0
Li89 Li 0.75913 0.98066 0.49813 0.0
Li90 Li 0.75898 0.01315 0.49821 0.0
Li91 Li 0.73651 0.99626 0.48192 0.0
C92 C 0.77669 0.00421 0.52708 0.0
N93 N 0.80623 0.02024 0.54241 0.0
C94 C 0.79363 0.99661 0.52501 0.0
C95 C 0.77476 0.01992 0.53702 0.0
C96 C 0.8084 0.00492 0.53287 0.0
C97 C 0.78986 0.02784 0.54463 0.0
C98 C 0.7325 0.95839 0.50131 0.0
C99 C 0.73651 0.92829 0.49045 0.0
N100 N 0.73313 0.92192 0.50713 0.0
C101 C 0.72906 0.95154 0.51834 0.0
C102 C 0.73621 0.94668 0.48722 0.0
C103 C 0.72943 0.93306 0.52101 0.0
C104 C 0.7041 0.99224 0.532 0.0
N105 N 0.72137 0.9972 0.5346 0.0
C106 C 0.71608 0.00187 0.5657 0.0
C107 C 0.72757 0.00185 0.55102 0.0
C108 C 0.69812 0.99689 0.56341 0.0
C109 C 0.69217 0.99203 0.54628 0.0
H110 H 0.69961 0.98852 0.51877 0.0
H111 H 0.74143 0.00549 0.55272 0.0
C112 C 0.78338 0.95533 0.48423 0.0
N113 N 0.77395 0.96021 0.49893 0.0
C114 C 0.79459 0.94045 0.48482 0.0
C115 C 0.78614 0.93598 0.5157 0.0
C116 C 0.77514 0.95097 0.51452 0.0
C117 C 0.79612 0.9306 0.50074 0.0
H118 H 0.7824 0.96312 0.47213 0.0
H119 H 0.76759 0.95534 0.52604 0.0
C120 C 0.71863 0.02561 0.50466 0.0
N121 N 0.68889 0.04072 0.52052 0.0
C122 C 0.70162 0.02248 0.49761 0.0
C123 C 0.72053 0.0365 0.51973 0.0
C124 C 0.68675 0.03024 0.50582 0.0
C125 C 0.70533 0.04398 0.52758 0.0
C126 C 0.76318 -0.0008 0.45974 0.0
C127 C 0.76636 0.01619 0.45265 0.0
C128 C 0.75972 0.98488 0.44825 0.0
C129 C 0.76595 0.01857 0.43413 0.0
C130 C 0.75938 0.98782 0.42982 0.0
N131 N 0.76248 0.00447 0.4232 0.0
C132 C 0.79155 0.03086 0.4942 0.0
C133 C 0.76714 0.05012 0.50035 0.0
C134 C 0.80332 0.04529 0.49404 0.0
N135 N 0.77391 0.03351 0.49756 0.0
C136 C 0.77842 0.06497 0.50021 0.0
C137 C 0.79681 0.06264 0.49711 0.0
H138 H 0.79648 0.01748 0.49183 0.0
H139 H 0.75299 0.05184 0.50266 0.0
C140 C 0.71248 0.98145 0.45692 0.0
N141 N 0.7217 0.99641 0.46146 0.0
C142 C 0.70113 0.98157 0.44216 0.0
C143 C 0.70897 0.01253 0.43705 0.0
C144 C 0.72016 0.0118 0.45194 0.0
C145 C 0.69918 0.9973 0.43208 0.0
H146 H 0.71378 0.96949 0.46488 0.0
H147 H 0.72746 0.02356 0.45609 0.0
O148 O 0.76211 0.99647 0.51922 0.0
O149 O 0.73251 0.97646 0.49848 0.0
O150 O 0.73332 0.0178 0.49707 0.0
O151 O 0.76316 0.99666 0.47785 0.0
H152 H 0.79542 0.98454 0.51727 0.0
H153 H 0.76179 0.02612 0.53858 0.0
H154 H 0.8216 -0.00078 0.53132 0.0
H155 H 0.78858 0.04008 0.55223 0.0
H156 H 0.73949 0.91909 0.47971 0.0
H157 H 0.72633 0.96038 0.52944 0.0
H158 H 0.73915 0.95174 0.47401 0.0
H159 H 0.72686 0.92758 0.53414 0.0
H160 H 0.72122 0.0055 0.57874 0.0
H161 H 0.67838 0.98832 0.5439 0.0
H162 H 0.8023 0.93697 0.47308 0.0
H163 H 0.78683 0.9287 0.52819 0.0
H164 H 0.69986 0.01398 0.48605 0.0
H165 H 0.73357 0.0389 0.52549 0.0
H166 H 0.67349 0.02786 0.50056 0.0
H167 H 0.70659 0.05231 0.53933 0.0
H168 H 0.76895 0.02745 0.46132 0.0
H169 H 0.75702 0.97168 0.45351 0.0
H170 H 0.76832 0.03166 0.42846 0.0
H171 H 0.75658 0.97689 0.42078 0.0
H172 H 0.81741 0.04282 0.49182 0.0
H173 H 0.77279 0.07814 0.50232 0.0
H174 H 0.69393 0.9695 0.43868 0.0
H175 H 0.70764 0.02499 0.42982 0.0
Li176 Li 0.01515 0.75796 0.49625 0.0
Li177 Li -0.00195 0.7358 0.51278 0.0
Li178 Li -0.00171 0.7361 0.48025 0.0
Li179 Li 0.98265 0.75897 0.49719 0.0
C180 C 0.03641 0.73023 0.49891 0.0
N181 N 0.07293 0.7289 0.50427 0.0
C182 C 0.04328 0.72582 0.51571 0.0
C183 C 0.04812 0.73389 0.48481 0.0
C184 C 0.06178 0.72522 0.51815 0.0
C185 C 0.06654 0.73319 0.48781 0.0
C186 C 0.99299 0.77625 0.5257 0.0
C187 C 0.97052 0.79026 0.54408 0.0
N188 N 0.97834 0.80641 0.54117 0.0
C189 C 0.00084 0.79297 0.52293 0.0
C190 C 0.97775 0.77485 0.53642 0.0
C191 C 0.99323 0.80807 0.53088 0.0
C192 C 0.04058 0.78164 0.48181 0.0
N193 N 0.03618 0.77197 0.49651 0.0
C194 C 0.06215 0.78224 0.51193 0.0
C195 C 0.04645 0.7722 0.51149 0.0
C196 C 0.06715 0.79228 0.49687 0.0
C197 C 0.05611 0.79192 0.48168 0.0
H198 H 0.03196 0.78149 0.47024 0.0
H199 H 0.04245 0.76452 0.52306 0.0
C200 C 0.00021 0.70298 0.53072 0.0
N201 N -0.00195 0.72085 0.53314 0.0
C202 C -0.00024 0.69144 0.54532 0.0
C203 C 0.99559 0.71699 0.5647 0.0
C204 C 0.99595 0.72803 0.54969 0.0
C205 C -0.00263 0.69843 0.56256 0.0
H206 H 0.00219 0.69773 0.5174 0.0
H207 H 0.99453 0.74232 0.55122 0.0
C208 C 0.99593 0.76324 0.45843 0.0
N209 N 0.99008 0.76343 0.42197 0.0
C210 C 0.97895 0.76712 0.45167 0.0
C211 C 0.00995 0.75952 0.44665 0.0
C212 C 0.97627 0.76716 0.43319 0.0
C213 C 0.00671 0.75964 0.42827 0.0
C214 C 0.96871 0.71901 0.50335 0.0
C215 C 0.97018 0.70219 0.49536 0.0
C216 C 0.95883 0.72093 0.5191 0.0
C217 C 0.9618 0.68752 0.50332 0.0
C218 C 0.95069 0.70593 0.52666 0.0
N219 N 0.95233 0.68968 0.51868 0.0
C220 C 0.01209 0.71261 0.45425 0.0
C221 C 0.98183 0.72105 0.45 0.0
C222 C 0.01169 0.70224 0.43879 0.0
N223 N -0.00267 0.72181 0.45944 0.0
C224 C 0.98082 0.71083 0.43445 0.0
C225 C 0.99591 0.70126 0.42867 0.0
H226 H 0.02413 0.71323 0.46217 0.0
H227 H 0.97027 0.72843 0.45458 0.0
C228 C 0.96551 0.79197 0.49324 0.0
N229 N 0.96273 0.7745 0.49732 0.0
C230 C 0.95133 0.80404 0.49363 0.0
C231 C 0.93165 0.77981 0.50206 0.0
C232 C 0.94623 0.76821 0.5015 0.0
C233 C 0.93414 0.79801 0.49816 0.0
H234 H 0.9788 0.79652 0.48984 0.0
H235 H 0.94438 0.75419 0.5044 0.0
O236 O 0.01833 0.73116 0.49632 0.0
O237 O 1e-05 0.76137 0.51773 0.0
O238 O -0.00125 0.7628 0.47649 0.0
O239 O 0.97706 0.73349 0.49592 0.0
H240 H 0.03445 0.72304 0.5268 0.0
H241 H 0.04305 0.73755 0.47178 0.0
H242 H 0.06728 0.72188 0.53109 0.0
H243 H 0.07574 0.73613 0.47706 0.0
H244 H 0.95864 0.7894 0.55228 0.0
H245 H 0.01257 0.79433 0.5146 0.0
H246 H 0.9714 0.76204 0.53856 0.0
H247 H -0.00089 0.82111 0.52879 0.0
H248 H 0.07032 0.78206 0.52387 0.0
H249 H 0.05923 0.79978 0.46994 0.0
H250 H 0.00148 0.67722 0.54317 0.0
H251 H 0.99369 0.72285 0.5778 0.0
H252 H 0.96791 0.76988 0.46057 0.0
H253 H 0.02312 0.75627 0.45165 0.0
H254 H 0.96319 0.77007 0.42777 0.0
H255 H 0.0174 0.75666 0.419 0.0
H256 H 0.97785 0.70041 0.48325 0.0
H257 H 0.95773 0.7338 0.52559 0.0
H258 H 0.96288 0.67441 0.49732 0.0
H259 H 0.94313 0.70719 0.53892 0.0
H260 H 0.0235 0.69477 0.435 0.0
H261 H 0.96843 0.7105 0.42699 0.0
H262 H 0.95386 0.81799 0.4907 0.0
H263 H 0.91856 0.77458 0.50534 0.0
Li264 Li 0.23558 0.01266 0.49752 0.0
Li265 Li 0.25803 0.99624 0.5145 0.0
Li266 Li 0.2586 0.99663 0.4808 0.0
Li267 Li 0.23667 0.97894 0.49732 0.0
C268 C 0.26545 0.03448 0.49663 0.0
N269 N 0.2726 0.07063 0.49389 0.0
C270 C 0.2714 0.04405 0.51153 0.0
C271 C 0.26347 0.04325 0.48026 0.0
C272 C 0.27485 0.06233 0.5099 0.0
C273 C 0.26706 0.06153 0.47916 0.0
C274 C 0.22819 0.99472 0.53536 0.0
C275 C 0.22801 0.97838 0.56314 0.0
N276 N 0.22161 0.99311 0.57166 0.0
C277 C 0.22139 0.00962 0.54435 0.0
C278 C 0.23133 0.97891 0.54478 0.0
C279 C 0.21823 0.00857 0.56272 0.0
C280 C 0.20675 0.03398 0.48607 0.0
N281 N 0.22075 0.03316 0.4976 0.0
C282 C 0.21364 0.06197 0.50934 0.0
C283 C 0.22424 0.04665 0.50924 0.0
C284 C 0.19919 0.06332 0.49743 0.0
C285 C 0.19577 0.04905 0.48571 0.0
H286 H 0.20401 0.02288 0.47725 0.0
H287 H 0.23517 0.04545 0.51859 0.0
C288 C 0.28598 0.98505 0.53693 0.0
N289 N 0.27212 0.99668 0.53549 0.0
C290 C 0.29671 0.98507 0.55216 0.0
C291 C 0.27874 0.00914 0.56411 0.0
C292 C 0.26842 0.00869 0.54861 0.0
C293 C 0.29314 0.99724 0.56602 0.0
H294 H 0.28886 0.9759 0.52613 0.0
H295 H 0.25755 0.01805 0.54696 0.0
C296 C 0.22808 0.99652 0.45948 0.0
N297 N 0.2198 -0.00204 0.42351 0.0
C298 C 0.22211 0.98121 0.45058 0.0
C299 C 0.22953 0.01263 0.45014 0.0
C300 C 0.21807 0.98219 0.43238 0.0
C301 C 0.22537 0.01307 0.43195 0.0
C302 C 0.26734 0.95871 0.4971 0.0
C303 C 0.27396 0.95096 0.48145 0.0
C304 C 0.26518 0.9482 0.51239 0.0
C305 C 0.27795 0.93272 0.48124 0.0
C306 C 0.2693 0.93 0.51164 0.0
N307 N 0.27552 0.92269 0.49621 0.0
C308 C 0.28802 0.00836 0.4609 0.0
C309 C 0.2698 0.9874 0.44568 0.0
C310 C 0.29934 0.0097 0.44617 0.0
N311 N 0.27348 -0.0025 0.46032 0.0
C312 C 0.28073 0.98835 0.43061 0.0
C313 C 0.29571 -0.00034 0.43072 0.0
H314 H 0.29089 0.01591 0.47288 0.0
H315 H 0.2585 0.97843 0.44574 0.0
C316 C 0.20883 0.95648 0.50852 0.0
N317 N 0.22285 0.95771 0.49706 0.0
C318 C 0.19832 0.94109 0.50888 0.0
C319 C 0.2168 0.92858 0.48551 0.0
C320 C 0.22686 0.94426 0.48553 0.0
C321 C 0.20228 0.92685 0.49729 0.0
H322 H 0.20569 0.96753 0.51727 0.0
H323 H 0.23778 0.94574 0.47622 0.0
O324 O 0.26189 0.01659 0.49802 0.0
O325 O 0.23151 0.99556 0.51739 0.0
O326 O 0.23217 0.99576 0.4773 0.0
O327 O 0.26328 0.97655 0.49751 0.0
H328 H 0.27325 0.03747 0.52425 0.0
H329 H 0.25936 0.03598 0.4685 0.0
H330 H 0.27933 0.06992 0.52136 0.0
H331 H 0.2655 0.06848 0.46658 0.0
H332 H 0.23049 0.96625 0.57061 0.0
H333 H 0.21864 0.0219 0.53725 0.0
H334 H 0.23622 0.96716 0.53799 0.0
H335 H 0.21308 0.02004 0.56986 0.0
H336 H 0.21679 0.07267 0.51856 0.0
H337 H 0.18453 0.04936 0.47659 0.0
H338 H 0.3079 0.97593 0.55289 0.0
H339 H 0.27545 0.01868 0.57449 0.0
H340 H 0.22067 0.96869 0.45762 0.0
H341 H 0.23366 0.0247 0.45688 0.0
H342 H 0.21356 0.97042 0.42531 0.0
H343 H 0.22651 0.02544 0.42455 0.0
H344 H 0.27592 0.95891 0.46956 0.0
H345 H 0.26045 0.95402 0.52471 0.0
H346 H 0.28296 0.92653 0.46918 0.0
H347 H 0.2676 0.9217 0.52335 0.0
H348 H 0.31098 0.01826 0.447 0.0
H349 H 0.27741 0.98039 0.41899 0.0
H350 H 0.18701 0.94053 0.51789 0.0
H351 H 0.22039 0.91792 0.4764 0.0
Li352 Li 0.49683 0.01403 0.23651 0.0
Li353 Li 0.48095 0.99704 0.25906 0.0
Li354 Li 0.51386 -0.00249 0.25979 0.0
Li355 Li 0.49764 0.98127 0.23747 0.0
C356 C 0.50607 0.03282 0.26797 0.0
N357 N 0.52513 0.06253 0.27881 0.0
C358 C 0.50081 0.0423 0.28317 0.0
C359 C 0.52104 0.03842 0.2583 0.0
C360 C 0.51061 0.0573 0.28843 0.0
C361 C 0.5305 0.05347 0.26399 0.0
C362 C 0.45904 -0.00153 0.23171 0.0
C363 C 0.42977 0.98501 0.23242 0.0
N364 N 0.42226 0.00144 0.2303 0.0
C365 C 0.45106 0.0152 0.22937 0.0
C366 C 0.44834 0.98323 0.23309 0.0
C367 C 0.43244 0.01643 0.22875 0.0
C368 C 0.49922 0.0318 0.20397 0.0
N369 N 0.49572 0.03437 0.22158 0.0
C370 C 0.49014 0.06541 0.21665 0.0
C371 C 0.49096 0.05067 0.22805 0.0
C372 C 0.49399 0.06321 0.19842 0.0
C373 C 0.4985 0.04612 0.19209 0.0
H374 H 0.50241 0.01858 0.19916 0.0
H375 H 0.48761 0.05223 0.24201 0.0
C376 C 0.45488 0.98325 0.28273 0.0
N377 N 0.46021 -0.00212 0.27341 0.0
C378 C 0.43966 0.98403 0.29346 0.0
C379 C 0.43573 0.01491 0.28474 0.0
C380 C 0.45111 0.01356 0.2743 0.0
C381 C 0.42986 2e-05 0.29458 0.0
H382 H 0.46257 0.97107 0.28206 0.0
H383 H 0.45583 0.02503 0.26687 0.0
C384 C 0.53127 0.98835 0.22565 0.0
N385 N 0.55752 0.96822 0.20916 0.0
C386 C 0.54104 0.97578 0.23543 0.0
C387 C 0.53487 0.99068 0.20748 0.0
C388 C 0.55425 0.96574 0.22686 0.0
C389 C 0.54818 0.98038 0.19938 0.0
C390 C 0.49858 0.959 0.26571 0.0
C391 C 0.514 0.95112 0.27272 0.0
C392 C 0.48412 0.94822 0.26081 0.0
C393 C 0.51479 0.93254 0.27447 0.0
C394 C 0.48544 0.9297 0.26274 0.0
N395 N 0.50062 0.92231 0.26947 0.0
C396 C 0.53179 0.9941 0.29229 0.0
C397 C 0.54984 0.00518 0.26871 0.0
C398 C 0.54613 0.99505 0.30413 0.0
N399 N 0.53395 -0.001 0.27496 0.0
C400 C 0.56456 0.00635 0.28009 0.0
C401 C 0.5628 0.0012 0.29805 0.0
H402 H 0.51891 0.98936 0.29685 0.0
H403 H 0.55107 0.00924 0.2549 0.0
C404 C 0.48716 0.9622 0.20734 0.0
N405 N 0.49806 0.96113 0.22183 0.0
C406 C 0.48692 0.9485 0.19472 0.0
C407 C 0.50911 0.93277 0.21215 0.0
C408 C 0.50903 0.94685 0.22436 0.0
C409 C 0.498 0.93356 0.19706 0.0
H410 H 0.47876 0.9738 0.20548 0.0
H411 H 0.51787 0.9464 0.23573 0.0
O412 O 0.49669 0.018 0.26281 0.0
O413 O 0.47724 0.99703 0.23269 0.0
O414 O 0.51817 -0.00178 0.2338 0.0
O415 O 0.49754 0.97718 0.26397 0.0
H416 H 0.48927 0.03809 0.29082 0.0
H417 H 0.52532 0.03123 0.24651 0.0
H418 H 0.50669 0.06478 0.30017 0.0
H419 H 0.5421 0.05795 0.25663 0.0
H420 H 0.42132 0.97334 0.23358 0.0
H421 H 0.45914 0.02713 0.22825 0.0
H422 H 0.45431 0.97017 0.23469 0.0
H423 H 0.42607 0.0293 0.22708 0.0
H424 H 0.48627 0.0783 0.22198 0.0
H425 H 0.50162 0.04387 0.17814 0.0
H426 H 0.43588 0.97234 0.30111 0.0
H427 H 0.42852 0.02745 0.28507 0.0
H428 H 0.53828 0.97356 0.24942 0.0
H429 H 0.52751 0.00033 0.19966 0.0
H430 H 0.56183 0.95591 0.23427 0.0
H431 H 0.5511 0.98205 0.18532 0.0
H432 H 0.52528 0.95923 0.2767 0.0
H433 H 0.47208 0.95409 0.2554 0.0
H434 H 0.52667 0.92626 0.27979 0.0
H435 H 0.4744 0.9212 0.25888 0.0
H436 H 0.54426 0.99077 0.31783 0.0
H437 H 0.57711 0.0114 0.27494 0.0
H438 H 0.47809 0.94955 0.1833 0.0
H439 H 0.51804 0.92157 0.21428 0.0
Li440 Li 0.98024 0.49889 0.23642 0.0
Li441 Li -0.00267 0.48256 0.25878 0.0
Li442 Li 0.99682 0.51505 0.25843 0.0
Li443 Li 0.01271 0.49819 0.23565 0.0
C444 C 0.95878 0.4961 0.2639 0.0
N445 N 0.92229 0.49042 0.26486 0.0
C446 C 0.95201 0.47926 0.26834 0.0
C447 C 0.94698 0.51006 0.26001 0.0
C448 C 0.93352 0.47666 0.26876 0.0
C449 C 0.92858 0.50691 0.26053 0.0
C450 C 0.00282 0.46962 0.2184 0.0
C451 C 0.0255 0.4513 0.20464 0.0
N452 N 0.01802 0.45444 0.18837 0.0
C453 C 0.99532 0.47262 0.20155 0.0
C454 C 0.01798 0.45881 0.21999 0.0
C455 C 0.00321 0.46482 0.18653 0.0
C456 C 0.95507 0.51306 0.21231 0.0
N457 N 0.95939 0.49845 0.22216 0.0
C458 C 0.93374 0.48277 0.21147 0.0
C459 C 0.94923 0.4834 0.22183 0.0
C460 C 0.92884 0.49773 0.20122 0.0
C461 C 0.93975 0.51301 0.20172 0.0
H462 H 0.96362 0.52468 0.21252 0.0
H463 H 0.95317 0.47189 0.22964 0.0
C464 C 0.99449 0.46519 0.2917 0.0
N465 N 0.99721 0.46237 0.27398 0.0
C466 C 0.99436 0.45084 0.30355 0.0
C467 C -0.00063 0.43089 0.27861 0.0
C468 C -0.00048 0.44567 0.26724 0.0
C469 C 0.99679 0.43338 0.29705 0.0
H470 H 0.99247 0.47864 0.2966 0.0
H471 H 0.00133 0.44383 0.25304 0.0
C472 C -0.00084 0.5369 0.23147 0.0
N473 N 0.0047 0.57342 0.23163 0.0
C474 C 0.01618 0.54383 0.22811 0.0
C475 C 0.98495 0.54855 0.23487 0.0
C476 C 0.0187 0.56233 0.22824 0.0
C477 C 0.98803 0.56697 0.23493 0.0
C478 C 0.02655 0.49211 0.27562 0.0
C479 C 0.02499 0.50004 0.29246 0.0
C480 C 0.03649 0.47641 0.27367 0.0
C481 C 0.03335 0.49205 0.30712 0.0
C482 C 0.04461 0.46881 0.28867 0.0
N483 N 0.04289 0.47673 0.30494 0.0
C484 C 0.98239 0.54093 0.28158 0.0
C485 C 0.01285 0.54536 0.27402 0.0
C486 C 0.98241 0.55633 0.29204 0.0
N487 N -0.00258 0.53585 0.27278 0.0
C488 C 0.0135 0.56085 0.28438 0.0
C489 C -0.00189 0.5665 0.29354 0.0
H490 H 0.97041 0.53295 0.2806 0.0
H491 H 0.02463 0.54088 0.26694 0.0
C492 C 0.02937 0.50345 0.2028 0.0
N493 N 0.0325 0.49834 0.21993 0.0
C494 C 0.04328 0.50372 0.19043 0.0
C495 C 0.06339 0.49354 0.21361 0.0
C496 C 0.04908 0.49354 0.22557 0.0
C497 C 0.06055 0.49871 0.19579 0.0
H498 H 0.01602 0.50726 0.19877 0.0
H499 H 0.05119 0.48974 0.23933 0.0
O500 O 0.97685 0.49885 0.26316 0.0
O501 O 0.99556 0.47749 0.23322 0.0
O502 O 0.99649 0.51881 0.23177 0.0
O503 O 0.01822 0.49957 0.26115 0.0
H504 H 0.9609 0.46825 0.27128 0.0
H505 H 0.95196 0.52311 0.2563 0.0
H506 H 0.9281 0.46368 0.27212 0.0
H507 H 0.91931 0.51756 0.25741 0.0
H508 H 0.03732 0.44303 0.20565 0.0
H509 H 0.98366 0.48103 0.20005 0.0
H510 H 0.02406 0.4565 0.2329 0.0
H511 H -0.00239 0.4671 0.1734 0.0
H512 H 0.92566 0.47076 0.21155 0.0
H513 H 0.93671 0.52468 0.19371 0.0
H514 H 0.99255 0.45343 0.31767 0.0
H515 H 0.001 0.41765 0.27299 0.0
H516 H 0.02738 0.53504 0.22564 0.0
H517 H 0.97174 0.54342 0.23774 0.0
H518 H 0.03182 0.56788 0.22572 0.0
H519 H 0.97718 0.57613 0.23767 0.0
H520 H 0.01726 0.51212 0.29426 0.0
H521 H 0.03765 0.46996 0.26079 0.0
H522 H 0.03219 0.498 0.32025 0.0
H523 H 0.05222 0.45658 0.28738 0.0
H524 H 0.97037 0.56002 0.29919 0.0
H525 H 0.02585 0.56836 0.28514 0.0
H526 H 0.04049 0.5076 0.17676 0.0
H527 H 0.07656 0.48979 0.2183 0.0
Li528 Li 0.4795 -0.00184 0.73671 0.0
Li529 Li 0.49607 0.98085 0.75885 0.0
Li530 Li 0.49579 0.01422 0.75899 0.0
Li531 Li 0.51304 -0.00182 0.73659 0.0
C532 C 0.45766 0.99535 0.76458 0.0
N533 N 0.42108 0.99097 0.76708 0.0
C534 C 0.45052 0.97896 0.76999 0.0
C535 C 0.4462 0.00957 0.76062 0.0
C536 C 0.43198 0.977 0.77114 0.0
C537 C 0.42774 0.00707 0.7619 0.0
C538 C 0.49978 0.96154 0.72552 0.0
C539 C 0.52064 0.93807 0.71811 0.0
N540 N 0.50704 0.9283 0.71105 0.0
C541 C 0.48605 0.95135 0.71795 0.0
C542 C 0.51725 0.95492 0.7254 0.0
C543 C 0.48997 0.93455 0.71081 0.0
C544 C 0.45654 0.01202 0.71049 0.0
N545 N 0.45895 -0.00186 0.72194 0.0
C546 C 0.43169 0.98462 0.71233 0.0
C547 C 0.44699 0.98451 0.72297 0.0
C548 C 0.42878 -0.00116 0.70042 0.0
C549 C 0.44147 0.01266 0.69956 0.0
H550 H 0.4664 0.02255 0.70976 0.0
H551 H 0.44927 0.9736 0.73216 0.0
C552 C 0.50204 0.96229 0.79049 0.0
N553 N 0.49607 0.9602 0.77347 0.0
C554 C 0.50238 0.94777 0.80215 0.0
C555 C 0.49022 0.92925 0.77862 0.0
C556 C 0.49005 0.94416 0.76742 0.0
C557 C 0.49643 0.93098 0.79623 0.0
H558 H 0.50657 0.97527 0.79496 0.0
H559 H 0.48487 0.94295 0.75404 0.0
C560 C 0.49788 0.03649 0.73189 0.0
N561 N 0.5015 0.07323 0.73113 0.0
C562 C 0.51442 0.0442 0.7279 0.0
C563 C 0.48313 0.04745 0.73528 0.0
C564 C 0.51598 0.06281 0.72762 0.0
C565 C 0.48526 0.066 0.73491 0.0
C566 C 0.53279 0.99272 0.76883 0.0
C567 C 0.54396 0.00509 0.77728 0.0
C568 C 0.53849 0.97505 0.76683 0.0
C569 C 0.56081 -0.00035 0.78322 0.0
C570 C 0.55542 0.97011 0.77296 0.0
N571 N 0.56616 0.98242 0.78094 0.0
C572 C 0.48118 0.03871 0.78358 0.0
C573 C 0.51053 0.04555 0.77381 0.0
C574 C 0.48075 0.05411 0.79407 0.0
N575 N 0.49588 0.03482 0.77368 0.0
C576 C 0.51071 0.06107 0.78413 0.0
C577 C 0.49566 0.06552 0.79444 0.0
H578 H 0.46976 0.0299 0.7833 0.0
H579 H 0.52204 0.0421 0.76579 0.0
C580 C 0.53091 0.9926 0.70461 0.0
N581 N 0.53338 -0.00154 0.7216 0.0
C582 C 0.54517 0.99223 0.69265 0.0
C583 C 0.56419 0.0044 0.71578 0.0
C584 C 0.54953 0.0045 0.72731 0.0
C585 C 0.56211 -0.00189 0.69822 0.0
H586 H 0.51781 0.9882 0.70036 0.0
H587 H 0.55104 0.00954 0.74073 0.0
O588 O 0.47578 -0.00253 0.76324 0.0
O589 O 0.49613 0.97808 0.73248 0.0
O590 O 0.49616 0.0183 0.73254 0.0
O591 O 0.51623 -0.00212 0.76296 0.0
H592 H 0.45918 0.96784 0.77319 0.0
H593 H 0.45149 0.02234 0.7564 0.0
H594 H 0.42627 0.96436 0.77523 0.0
H595 H 0.41872 0.01791 0.75874 0.0
H596 H 0.5341 0.9328 0.71798 0.0
H597 H 0.4725 0.9563 0.71768 0.0
H598 H 0.52817 0.96278 0.73062 0.0
H599 H 0.47944 0.92649 0.70504 0.0
H600 H 0.42217 0.97378 0.71354 0.0
H601 H 0.43994 0.02369 0.69032 0.0
H602 H 0.50739 0.94963 0.8156 0.0
H603 H 0.48521 0.9166 0.77366 0.0
H604 H 0.52595 0.03593 0.7252 0.0
H605 H 0.47024 0.0417 0.73837 0.0
H606 H 0.52872 0.06897 0.72466 0.0
H607 H 0.474 0.07465 0.73766 0.0
H608 H 0.53972 0.01876 0.77919 0.0
H609 H 0.52987 0.96515 0.76085 0.0
H610 H 0.56963 0.00912 0.78968 0.0
H611 H 0.55999 0.95648 0.77146 0.0
H612 H 0.46881 0.05711 0.80168 0.0
H613 H 0.52258 0.06935 0.78421 0.0
H614 H 0.54289 0.98763 0.67912 0.0
H615 H 0.57702 0.00903 0.72061 0.0
Li616 Li -0.00182 0.51296 0.73439 0.0
Li617 Li 0.98124 0.49686 0.75711 0.0
Li618 Li 0.01497 0.49669 0.75724 0.0
Li619 Li -0.00213 0.4793 0.73552 0.0
C620 C -0.00071 0.5349 0.76418 0.0
N621 N 0.00152 0.5711 0.77127 0.0
C622 C 0.98402 0.54449 0.76906 0.0
C623 C 0.01576 0.54367 0.76326 0.0
C624 C 0.9854 0.5628 0.7725 0.0
C625 C 0.0166 0.56198 0.7668 0.0
C626 C 0.9599 0.49575 0.72754 0.0
C627 C 0.93169 0.48013 0.72794 0.0
N628 N 0.92346 0.49499 0.72146 0.0
C629 C 0.9512 0.51079 0.72066 0.0
C630 C 0.95011 0.48023 0.73101 0.0
C631 C 0.93276 0.51016 0.71775 0.0
C632 C 0.00991 0.53342 0.70519 0.0
N633 N -0.00162 0.53325 0.71921 0.0
C634 C 0.987 0.56192 0.71099 0.0
C635 C 0.98693 0.54703 0.7222 0.0
C636 C -0.00107 0.56258 0.69651 0.0
C637 C 0.01052 0.54806 0.6937 0.0
H638 H 0.01858 0.52212 0.70284 0.0
H639 H 0.97748 0.54632 0.73308 0.0
C640 C 0.96038 0.4865 0.78633 0.0
N641 N 0.96066 0.49744 0.77185 0.0
C642 C 0.94578 0.48662 0.7979 0.0
C643 C 0.93199 0.50929 0.77944 0.0
C644 C 0.94693 0.5088 0.76829 0.0
C645 C 0.93137 0.49816 0.79452 0.0
H646 H 0.97159 0.4778 0.78901 0.0
H647 H 0.94769 0.51773 0.75697 0.0
C648 C 0.03587 0.49712 0.72659 0.0
N649 N 0.07172 0.49984 0.71807 0.0
C650 C 0.04503 0.48238 0.71967 0.0
C651 C 0.04489 0.51332 0.7289 0.0
C652 C 0.06317 0.484 0.71552 0.0
C653 C 0.06302 0.51441 0.72459 0.0
C654 C -0.00202 0.45896 0.76579 0.0
C655 C 0.01364 0.45055 0.77157 0.0
C656 C 0.98226 0.44901 0.76414 0.0
C657 C 0.0134 0.43223 0.77517 0.0
C658 C 0.98256 0.43071 0.76786 0.0
N659 N -0.002 0.42277 0.77323 0.0
C660 C 0.03562 0.50736 0.78666 0.0
C661 C 0.04984 0.48629 0.76775 0.0
C662 C 0.05042 0.50764 0.79798 0.0
N663 N 0.03565 0.49687 0.77184 0.0
C664 C 0.06494 0.48619 0.77865 0.0
C665 C 0.06534 0.49693 0.79404 0.0
H666 H 0.02399 0.51533 0.7898 0.0
H667 H 0.04933 0.47767 0.75619 0.0
C668 C 0.98586 0.45632 0.70834 0.0
N669 N -0.002 0.4581 0.72171 0.0
C670 C 0.98586 0.44106 0.69764 0.0
C671 C 0.01091 0.42977 0.71466 0.0
C672 C 0.01045 0.44529 0.72498 0.0
C673 C -0.00145 0.42755 0.70071 0.0
H674 H 0.97637 0.4669 0.70576 0.0
H675 H 0.02024 0.44723 0.73541 0.0
O676 O -0.00184 0.51696 0.76074 0.0
O677 O 0.97793 0.49618 0.73062 0.0
O678 O 0.01813 0.49574 0.73084 0.0
O679 O -0.002 0.47687 0.76207 0.0
H680 H 0.9712 0.53791 0.77007 0.0
H681 H 0.0278 0.5364 0.76004 0.0
H682 H 0.97365 0.5704 0.77614 0.0
H683 H 0.02925 0.56894 0.76606 0.0
H684 H 0.92395 0.46823 0.73068 0.0
H685 H 0.95856 0.52283 0.71764 0.0
H686 H 0.95666 0.46837 0.73595 0.0
H687 H 0.92584 0.52174 0.71254 0.0
H688 H 0.97755 0.57261 0.71342 0.0
H689 H 0.02003 0.54803 0.6828 0.0
H690 H 0.94575 0.47777 0.80935 0.0
H691 H 0.92128 0.51859 0.77656 0.0
H692 H 0.03825 0.46981 0.71756 0.0
H693 H 0.03792 0.52497 0.73378 0.0
H694 H 0.07044 0.47266 0.71026 0.0
H695 H 0.07016 0.52685 0.72637 0.0
H696 H 0.02587 0.45805 0.77315 0.0
H697 H 0.96993 0.45535 0.76013 0.0
H698 H 0.02546 0.42554 0.77952 0.0
H699 H 0.9705 0.42285 0.76654 0.0
H700 H 0.05001 0.51583 0.8099 0.0
H701 H 0.07617 0.47778 0.77507 0.0
H702 H 0.97634 0.4401 0.68679 0.0
H703 H 0.02086 0.41967 0.71755 0.0
Li704 Li 0.23642 0.49648 0.01283 0.0
Li705 Li 0.25885 0.47927 0.99662 0.0
Li706 Li 0.25946 0.51275 0.99581 0.0
Li707 Li 0.23733 0.49546 0.97936 0.0
C708 C 0.26823 0.50072 0.03342 0.0
N709 N 0.27953 0.50954 0.06748 0.0
C710 C 0.27566 0.48767 0.04455 0.0
C711 C 0.26687 0.51832 0.03953 0.0
C712 C 0.28119 0.49237 0.06175 0.0
C713 C 0.27257 0.5225 0.0568 0.0
C714 C 0.23067 0.45784 -0.00121 0.0
C715 C 0.2326 0.42779 0.98727 0.0
N716 N 0.22773 0.42133 0.00355 0.0
C717 C 0.22555 0.45092 0.01536 0.0
C718 C 0.23408 0.44621 0.98458 0.0
C719 C 0.22418 0.43242 0.01751 0.0
C720 C 0.20437 0.50387 0.03021 0.0
N721 N 0.22102 0.49713 0.03291 0.0
C722 C 0.21433 0.49116 0.06353 0.0
C723 C 0.22612 0.49067 0.0491 0.0
C724 C 0.19709 0.49823 0.0612 0.0
C725 C 0.19215 0.50462 0.04425 0.0
H726 H 0.20058 0.50859 0.01709 0.0
H727 H 0.23921 0.48489 0.05078 0.0
C728 C 0.28462 0.455 0.984 0.0
N729 N 0.2732 0.45844 -0.00231 0.0
C730 C 0.29541 0.43981 0.98439 0.0
C731 C 0.28255 0.43205 0.013 0.0
C732 C 0.27201 0.4474 0.01206 0.0
C733 C 0.29448 0.42813 -0.00095 0.0
H734 H 0.2855 0.46415 0.97288 0.0
H735 H 0.26286 0.45051 0.02279 0.0
C736 C 0.22747 0.53331 -0.00156 0.0
N737 N 0.21563 0.56774 0.00482 0.0
C738 C 0.221 0.5438 0.9844 0.0
C739 C 0.22754 0.54023 0.01579 0.0
C740 C 0.21519 0.5612 0.98787 0.0
C741 C 0.2216 0.55768 0.01873 0.0
C742 C 0.26564 0.49605 0.95801 0.0
C743 C 0.27151 0.51174 0.94975 0.0
C744 C 0.26163 0.48107 0.94759 0.0
C745 C 0.27298 0.51227 0.93114 0.0
C746 C 0.26325 0.48214 0.92902 0.0
N747 N 0.26883 0.4976 0.92125 0.0
C748 C 0.29038 0.5322 0.00391 0.0
C749 C 0.26956 0.54798 0.98598 0.0
C750 C 0.30202 0.54675 0.00376 0.0
N751 N 0.27443 0.53316 0.99529 0.0
C752 C 0.28085 0.5628 0.98535 0.0
C753 C 0.29729 0.56229 0.99438 0.0
H754 H 0.29412 0.52006 0.01081 0.0
H755 H 0.25709 0.54817 0.97874 0.0
C756 C 0.21125 0.48176 0.95607 0.0
N757 N 0.22305 0.49534 0.95847 0.0
C758 C 0.20041 0.48133 0.94092 0.0
C759 C 0.21409 0.50889 0.93102 0.0
C760 C 0.22463 0.5088 0.94638 0.0
C761 C 0.20173 0.49505 0.92817 0.0
H762 H 0.2101 0.47136 0.96602 0.0
H763 H 0.23409 0.51946 0.94868 0.0
O764 O 0.26274 0.49629 0.01653 0.0
O765 O 0.23229 0.47592 0.99649 0.0
O766 O 0.23313 0.51618 0.99525 0.0
O767 O 0.26391 0.49535 0.9762 0.0
H768 H 0.27707 0.47404 0.04 0.0
H769 H 0.26175 0.52872 0.03095 0.0
H770 H 0.28684 0.48237 0.07053 0.0
H771 H 0.27156 0.53608 0.06168 0.0
H772 H 0.23533 0.41863 0.97642 0.0
H773 H 0.22276 0.45971 0.02648 0.0
H774 H 0.23794 0.45133 0.97164 0.0
H775 H 0.22033 0.42687 0.03029 0.0
H776 H 0.2187 0.48613 0.07638 0.0
H777 H 0.17888 0.50983 0.04176 0.0
H778 H 0.30467 0.43747 0.97351 0.0
H779 H 0.28132 0.42333 0.02448 0.0
H780 H 0.22057 0.53862 0.97093 0.0
H781 H 0.23188 0.53217 0.02694 0.0
H782 H 0.2103 0.5695 0.97709 0.0
H783 H 0.22163 0.5632 0.03209 0.0
H784 H 0.27482 0.52341 0.95759 0.0
H785 H 0.25718 0.4688 0.95376 0.0
H786 H 0.27742 0.52436 0.92456 0.0
H787 H 0.26006 0.47069 0.9208 0.0
H788 H 0.31474 0.5457 0.01058 0.0
H789 H 0.27674 0.57454 0.97794 0.0
H790 H 0.19084 0.47058 0.93941 0.0
H791 H 0.21564 0.51965 0.92146 0.0
Li792 Li 0.51405 0.25824 0.99628 0.0
Li793 Li 0.49815 0.23482 0.0125 0.0
Li794 Li 0.49877 0.23607 0.97912 0.0
Li795 Li 0.48053 0.25714 0.99588 0.0
C796 C 0.53689 0.23104 -0.00193 0.0
N797 N 0.57354 0.22958 0.00243 0.0
C798 C 0.5442 0.22517 0.01422 0.0
C799 C 0.54823 0.23597 0.98406 0.0
C800 C 0.56276 0.22456 0.01618 0.0
C801 C 0.56672 0.23521 0.98655 0.0
C802 C 0.49317 0.26686 0.03324 0.0
C803 C 0.47211 0.27161 0.0572 0.0
N804 N 0.48534 0.27893 0.06729 0.0
C805 C 0.50649 0.27466 0.04376 0.0
C806 C 0.47578 0.26552 0.03995 0.0
C807 C 0.5023 0.28058 0.06097 0.0
C808 C 0.53602 0.28609 0.9841 0.0
N809 N 0.53402 0.27374 -0.00275 0.0
C810 C 0.56063 0.28381 0.0117 0.0
C811 C 0.54588 0.27245 0.01095 0.0
C812 C 0.56303 0.29674 -0.00168 0.0
C813 C 0.55052 0.29779 0.98437 0.0
H814 H 0.52631 0.28692 0.97345 0.0
H815 H 0.54385 0.26262 0.02133 0.0
C816 C 0.49206 0.20269 0.0304 0.0
N817 N 0.49843 0.21955 0.03265 0.0
C818 C 0.49162 0.19084 0.04476 0.0
C819 C 0.50469 0.21379 0.0634 0.0
C820 C 0.50492 0.22518 0.04865 0.0
C821 C 0.49791 0.1964 0.06155 0.0
H822 H 0.48721 0.19852 0.01744 0.0
H823 H 0.51049 0.23841 0.04995 0.0
C824 C 0.49598 0.26408 0.95797 0.0
N825 N 0.49292 0.26648 0.92125 0.0
C826 C 0.47945 0.26793 0.95016 0.0
C827 C 0.511 0.26167 0.94712 0.0
C828 C 0.47817 0.26904 0.93157 0.0
C829 C 0.50916 0.26286 0.92858 0.0
C830 C 0.4617 0.22425 -0.00078 0.0
C831 C 0.45109 0.21654 0.98591 0.0
C832 C 0.45536 0.22492 0.01678 0.0
C833 C 0.43414 0.21005 0.9903 0.0
C834 C 0.43835 0.21827 0.02065 0.0
N835 N 0.42817 0.21107 0.00743 0.0
C836 C 0.5144 0.21228 0.95456 0.0
C837 C 0.48529 0.22205 0.94677 0.0
C838 C 0.51538 0.20186 0.93915 0.0
N839 N 0.49953 0.22209 0.95803 0.0
C840 C 0.48566 0.21179 0.93121 0.0
C841 C 0.50083 0.20145 0.92728 0.0
H842 H 0.52548 0.21246 0.9638 0.0
H843 H 0.47362 0.22996 0.94989 0.0
C844 C 0.46096 0.28765 0.00399 0.0
N845 N 0.45957 0.2713 0.99623 0.0
C846 C 0.44608 0.29876 0.00522 0.0
C847 C 0.4287 0.27629 0.9898 0.0
C848 C 0.44394 0.26556 0.98896 0.0
C849 C 0.42965 0.29307 -0.00184 0.0
H850 H 0.47368 0.29202 0.0093 0.0
H851 H 0.4433 0.25273 0.98239 0.0
O852 O 0.51874 0.23187 0.99597 0.0
O853 O 0.49709 0.26104 0.01633 0.0
O854 O 0.49744 0.26266 0.97613 0.0
O855 O 0.47835 0.23066 0.9951 0.0
H856 H 0.53564 0.22119 0.02516 0.0
H857 H 0.54281 0.24052 0.97146 0.0
H858 H 0.5686 0.22013 0.02864 0.0
H859 H 0.57564 0.23912 0.97587 0.0
H860 H 0.45871 0.27062 0.06254 0.0
H861 H 0.51996 0.27607 0.03876 0.0
H862 H 0.46513 0.26012 0.03185 0.0
H863 H 0.51253 0.28652 0.06928 0.0
H864 H 0.56985 0.28273 0.02281 0.0
H865 H 0.55198 0.30749 0.97372 0.0
H866 H 0.4862 0.17756 0.04281 0.0
H867 H 0.51 0.21845 0.07604 0.0
H868 H 0.46771 0.26989 0.95835 0.0
H869 H 0.52389 0.25875 0.95295 0.0
H870 H 0.46544 0.27191 0.92534 0.0
H871 H 0.52064 0.26089 0.92002 0.0
H872 H 0.45584 0.21565 0.9723 0.0
H873 H 0.46355 0.23026 0.02737 0.0
H874 H 0.42575 0.20418 0.9801 0.0
H875 H 0.43329 0.21876 0.03418 0.0
H876 H 0.52741 0.19424 0.93655 0.0
H877 H 0.47405 0.21169 0.92256 0.0
H878 H 0.44747 0.31177 0.01142 0.0
H879 H 0.41628 0.27144 0.98415 0.0
Li880 Li 0.73721 0.51379 0.99631 0.0
Li881 Li 0.75945 0.4974 0.01359 0.0
Li882 Li 0.75949 0.49752 0.97996 0.0
Li883 Li 0.73717 0.48034 0.99645 0.0
C884 C 0.7649 0.53579 -0.00218 0.0
N885 N 0.76705 0.5726 -6e-05 0.0
C886 C 0.7695 0.54401 0.01395 0.0
C887 C 0.76163 0.54628 0.98272 0.0
C888 C 0.77046 0.56265 0.01476 0.0
C889 C 0.76271 0.56487 0.98408 0.0
C890 C 0.72767 0.4932 0.03353 0.0
C891 C 0.7241 0.47196 0.05752 0.0
N892 N 0.71663 0.48496 0.0678 0.0
C893 C 0.71974 0.50628 0.04426 0.0
C894 C 0.72969 0.47585 0.04014 0.0
C895 C 0.71434 0.50188 0.06158 0.0
C896 C 0.71102 0.53692 0.98259 0.0
N897 N 0.7224 0.5343 0.99648 0.0
C898 C 0.71198 0.5608 0.01089 0.0
C899 C 0.72307 0.54581 0.01051 0.0
C900 C 0.70003 0.56384 0.99673 0.0
C901 C 0.69969 0.5517 0.98242 0.0
H902 H 0.71056 0.52739 0.97176 0.0
H903 H 0.73216 0.5433 0.02145 0.0
C904 C 0.78999 0.48914 0.03351 0.0
N905 N 0.7739 0.49751 0.03432 0.0
C906 C 0.80114 0.48879 0.04844 0.0
C907 C 0.77911 0.50605 0.06461 0.0
C908 C 0.7684 0.50607 0.04936 0.0
C909 C 0.79571 0.49729 0.06428 0.0
H910 H 0.79419 0.4828 0.02123 0.0
H911 H 0.75581 0.5131 0.04948 0.0
C912 C 0.73108 0.49538 0.95813 0.0
N913 N 0.72727 0.49192 0.92157 0.0
C914 C 0.72546 0.47915 0.95077 0.0
C915 C 0.73454 0.50991 0.94692 0.0
C916 C 0.72366 0.47766 0.93224 0.0
C917 C 0.73261 0.50787 0.92846 0.0
C918 C 0.76925 0.46008 -0.00114 0.0
C919 C 0.77567 0.45037 0.98425 0.0
C920 C 0.76913 0.4522 0.0158 0.0
C921 C 0.78142 0.43278 0.98674 0.0
C922 C 0.775 0.43458 0.01776 0.0
N923 N 0.78094 0.4253 0.0033 0.0
C924 C 0.7871 0.51076 0.95852 0.0
C925 C 0.77268 0.48525 0.94645 0.0
C926 C 0.79854 0.51162 0.94385 0.0
N927 N 0.77446 0.49776 0.95951 0.0
C928 C 0.78375 0.48569 0.93145 0.0
C929 C 0.79693 0.49897 0.93009 0.0
H930 H 0.78836 0.52041 0.96918 0.0
H931 H 0.76273 0.47486 0.9477 0.0
C932 C 0.7059 0.46202 0.00441 0.0
N933 N 0.72219 0.45993 0.99667 0.0
C934 C 0.69397 0.44775 0.00521 0.0
C935 C 0.71562 0.42948 0.98966 0.0
C936 C 0.72715 0.44413 0.98918 0.0
C937 C 0.69878 0.43121 -0.00223 0.0
H938 H 0.70219 0.47483 0.00998 0.0
H939 H 0.73989 0.44295 0.98255 0.0
O940 O 0.76368 0.51758 0.99682 0.0
O941 O 0.73311 0.49734 0.01655 0.0
O942 O 0.73299 0.49706 0.97624 0.0
O943 O 0.7636 0.47735 0.99663 0.0
H944 H 0.77219 0.53611 0.02574 0.0
H945 H 0.75821 0.54013 0.9701 0.0
H946 H 0.77391 0.56919 0.02719 0.0
H947 H 0.76009 0.57315 0.97252 0.0
H948 H 0.72563 0.45859 0.0628 0.0
H949 H 0.71785 0.51972 0.03931 0.0
H950 H 0.73527 0.46543 0.03188 0.0
H951 H 0.7083 0.51191 0.07006 0.0
H952 H 0.71276 0.56989 0.02212 0.0
H953 H 0.69044 0.55334 0.9714 0.0
H954 H 0.814 0.48222 0.04747 0.0
H955 H 0.7744 0.51275 0.07655 0.0
H956 H 0.72259 0.46781 0.95924 0.0
H957 H 0.73877 0.52259 0.95239 0.0
H958 H 0.71941 0.46516 0.92636 0.0
H959 H 0.73537 0.51897 0.91962 0.0
H960 H 0.7761 0.45628 0.97109 0.0
H961 H 0.76478 0.45965 0.02737 0.0
H962 H 0.78627 0.42507 0.97552 0.0
H963 H 0.77491 0.42832 0.03078 0.0
H964 H 0.80848 0.52213 0.94324 0.0
H965 H 0.78227 0.47554 0.92123 0.0
H966 H 0.68118 0.44963 0.01171 0.0
H967 H 0.7197 0.41705 0.98344 0.0
Li968 Li 0.49961 0.75925 0.01261 0.0
Li969 Li 0.48173 0.73629 -0.00219 0.0
Li970 Li 0.51392 0.73612 -0.00281 0.0
Li971 Li 0.4975 0.75889 0.98056 0.0
C972 C 0.50667 0.72043 0.02781 0.0
N973 N 0.52441 0.6936 0.04601 0.0
C974 C 0.49865 0.70371 0.03009 0.0
C975 C 0.52357 0.72359 0.03513 0.0
C976 C 0.50786 0.6903 0.03925 0.0
C977 C 0.53237 0.70983 0.04416 0.0
C978 C 0.46345 0.76746 0.00799 0.0
C979 C 0.43636 0.78436 0.01252 0.0
N980 N 0.43467 0.77707 0.02908 0.0
C981 C 0.46144 0.76013 0.02508 0.0
C982 C 0.45083 0.77969 0.00167 0.0
C983 C 0.4468 0.76517 0.03552 0.0
C984 C 0.49515 0.79222 0.02955 0.0
N985 N 0.5005 0.7751 0.03238 0.0
C986 C 0.50669 0.7814 0.06302 0.0
C987 C 0.50609 0.76947 0.04871 0.0
C988 C 0.50133 0.79923 0.06049 0.0
C989 C 0.49545 0.80457 0.04348 0.0
H990 H 0.49061 0.79625 0.01643 0.0
H991 H 0.51008 0.75574 0.05063 0.0
C992 C 0.46523 0.70341 0.99405 0.0
N993 N 0.46144 0.72088 -0.00277 0.0
C994 C 0.45152 0.69086 0.99272 0.0
C995 C 0.43013 0.71459 -0.00247 0.0
C996 C 0.44427 0.72668 -0.00133 0.0
C997 C 0.43367 0.69639 0.99457 0.0
H998 H 0.47898 0.69926 0.99237 0.0
H999 H 0.44137 0.74066 0.00048 0.0
C1000 C 0.52763 0.77673 0.00155 0.0
N1001 N 0.54323 0.80719 0.01549 0.0
C1002 C 0.52392 0.79345 0.9941 0.0
C1003 C 0.53946 0.77549 0.01597 0.0
C1004 C 0.53191 0.80869 0.00136 0.0
C1005 C 0.54715 0.79105 0.02287 0.0
C1006 C 0.4872 0.72839 0.96227 0.0
C1007 C 0.49259 0.71469 0.95079 0.0
C1008 C 0.47135 0.73767 0.95881 0.0
C1009 C 0.48204 0.7105 0.93597 0.0
C1010 C 0.46117 0.73308 0.94385 0.0
N1011 N 0.46668 0.71971 0.93284 0.0
C1012 C 0.53059 0.70289 0.99374 0.0
C1013 C 0.55065 0.72716 -0.00252 0.0
C1014 C 0.54477 0.69081 0.99335 0.0
N1015 N 0.53378 0.72062 0.99595 0.0
C1016 C 0.56524 0.71556 0.99716 0.0
C1017 C 0.56237 0.69711 0.99514 0.0
H1018 H 0.51698 0.69814 0.99254 0.0
H1019 H 0.55275 0.74137 -0.00098 0.0
C1020 C 0.48642 0.78742 0.95901 0.0
N1021 N 0.49675 0.77252 0.95943 0.0
C1022 C 0.48593 0.79803 0.94372 0.0
C1023 C 0.50652 0.77754 0.9295 0.0
C1024 C 0.50666 0.76735 0.94512 0.0
C1025 C 0.49614 0.79318 0.92871 0.0
H1026 H 0.47886 0.79124 0.9707 0.0
H1027 H 0.51471 0.75537 0.9459 0.0
O1028 O 0.49794 0.73366 0.01864 0.0
O1029 O 0.47782 0.76303 -0.00245 0.0
O1030 O 0.51959 0.76169 0.99489 0.0
O1031 O 0.49738 0.73249 0.9769 0.0
H1032 H 0.4854 0.70113 0.02496 0.0
H1033 H 0.52997 0.73643 0.03356 0.0
H1034 H 0.50183 0.67728 0.04103 0.0
H1035 H 0.54556 0.71205 0.04967 0.0
H1036 H 0.42649 0.79379 0.00777 0.0
H1037 H 0.47099 0.75064 0.03027 0.0
H1038 H 0.45214 0.78549 0.98849 0.0
H1039 H 0.44509 0.7596 0.04875 0.0
H1040 H 0.51146 0.77676 0.07587 0.0
H1041 H 0.49088 0.81807 0.04098 0.0
H1042 H 0.45486 0.67704 0.99001 0.0
H1043 H 0.41658 0.71944 -0.00093 0.0
H1044 H 0.51485 0.7947 0.98295 0.0
H1045 H 0.54253 0.7627 0.02192 0.0
H1046 H 0.52905 0.82173 0.99578 0.0
H1047 H 0.55619 0.79029 0.03412 0.0
H1048 H 0.5048 0.70735 0.95335 0.0
H1049 H 0.4669 0.74827 0.96756 0.0
H1050 H 0.48605 0.69992 0.92697 0.0
H1051 H 0.44887 0.74014 0.94101 0.0
H1052 H 0.54196 0.67668 0.99197 0.0
H1053 H 0.57861 0.72098 -0.00168 0.0
H1054 H 0.47801 0.81014 0.94383 0.0
H1055 H 0.51444 0.77321 0.91818 0.0
H1056 H 0.02612 0.30828 0.41176 0.0
H1057 H 0.02648 0.33028 0.3875 0.0
H1058 H 0.96899 0.33368 0.38954 0.0
H1059 H 0.96847 0.31156 0.4137 0.0
H1060 H 0.98711 0.33049 0.35302 0.0
H1061 H 0.01206 0.38471 0.39758 0.0
H1062 H 0.02356 0.36357 0.39832 0.0
H1063 H 0.00095 0.36505 0.40613 0.0
C1064 C 0.01354 0.31352 0.40686 0.0
C1065 C 0.99726 0.30828 0.41465 0.0
C1066 C 0.01379 0.32613 0.39311 0.0
C1067 C -0.00223 0.3336 0.3869 0.0
C1068 C 0.98147 0.32803 0.39425 0.0
H1069 H 0.97488 0.4281 0.32584 0.0
H1070 H 0.97538 0.40324 0.34701 0.0
C1071 C 0.98121 0.31552 0.40808 0.0
C1072 C -0.00196 0.34778 0.37324 0.0
H1073 H 0.00804 0.39184 0.36717 0.0
C1074 C 0.99174 0.34389 0.35603 0.0
C1075 C 0.00396 0.36522 0.37739 0.0
C1076 C 0.01044 0.37005 0.39587 0.0
C1077 C 0.9913 0.35711 0.34273 0.0
C1078 C -0.0027 0.37452 0.34687 0.0
C1079 C 0.00354 0.3784 0.3641 0.0
C1080 C 0.99675 0.38911 0.33365 0.0
C1081 C 0.98413 0.35254 0.32446 0.0
C1082 C 0.00868 0.38933 0.31921 0.0
C1083 C 0.00861 0.40363 0.30721 0.0
C1084 C 0.99658 0.41792 0.30946 0.0
C1085 C 0.98452 0.41748 0.32388 0.0
C1086 C 0.98468 0.40324 0.33591 0.0
H1087 H 0.97761 0.3392 0.32418 0.0
H1088 H 0.97431 0.36277 0.32007 0.0
H1089 H 0.99528 0.35251 0.31469 0.0
H1090 H 0.01824 0.3786 0.31744 0.0
H1091 H 0.01824 0.40367 0.29641 0.0
H1092 H 0.70411 0.01298 0.39937 0.0
H1093 H 0.68272 0.01455 0.37461 0.0
H1094 H 0.64443 0.98474 0.40571 0.0
H1095 H 0.66559 0.98321 0.4305 0.0
H1096 H 0.64875 0.97241 0.37025 0.0
H1097 H 0.63713 0.04581 0.37363 0.0
H1098 H 0.66007 0.03887 0.37176 0.0
H1099 H 0.6476 0.0335 0.39155 0.0
C1100 C 0.69108 0.00687 0.40096 0.0
C1101 C 0.68652 -0.00202 0.41688 0.0
C1102 C 0.67891 0.00778 0.38682 0.0
C1103 C 0.66197 -9e-05 0.38845 0.0
C1104 C 0.65746 0.99087 0.40423 0.0
H1105 H 0.56315 0.0129 0.33262 0.0
H1106 H 0.58834 0.0128 0.35345 0.0
C1107 C 0.6696 0.98994 0.41833 0.0
C1108 C 0.64884 0.00097 0.37377 0.0
H1109 H 0.62215 0.02998 0.35083 0.0
C1110 C 0.643 0.98499 0.36589 0.0
C1111 C 0.64131 0.01741 0.3683 0.0
C1112 C 0.6467 0.0349 0.3768 0.0
C1113 C 0.62961 0.98498 0.35279 0.0
C1114 C 0.6221 0.00143 0.3473 0.0
C1115 C 0.62808 0.01743 0.35502 0.0
C1116 C 0.60725 0.00217 0.33433 0.0
C1117 C 0.62318 0.96735 0.34538 0.0
C1118 C 0.60969 0.99649 0.31664 0.0
C1119 C 0.5953 0.9964 0.30475 0.0
C1120 C 0.57827 0.00206 0.31038 0.0
C1121 C 0.57603 0.00818 0.32799 0.0
C1122 C 0.59042 0.00827 0.33985 0.0
H1123 H 0.62772 0.95586 0.35362 0.0
H1124 H 0.60835 0.96708 0.3446 0.0
H1125 H 0.62851 0.96558 0.33166 0.0
H1126 H 0.62266 0.99196 0.3121 0.0
H1127 H 0.59741 0.99152 0.29129 0.0
H1128 H 0.02423 0.57627 0.31709 0.0
H1129 H 0.02374 0.60137 0.33806 0.0
H1130 H 0.97235 0.61763 0.31766 0.0
H1131 H 0.97289 0.59278 0.29635 0.0
H1132 H -0.00195 0.64642 0.32404 0.0
H1133 H 0.98896 0.60047 0.38174 0.0
H1134 H 0.00758 0.59545 0.36742 0.0
H1135 H 0.98521 0.59357 0.35893 0.0
C1136 C 0.01297 0.58537 0.31685 0.0
C1137 C -0.00148 0.58249 0.30519 0.0
C1138 C 0.01266 0.59959 0.32891 0.0
C1139 C -0.0021 0.61113 0.32951 0.0
C1140 C 0.9838 0.60877 0.31742 0.0
H1141 H 0.96892 0.67882 0.41866 0.0
H1142 H 0.96846 0.65832 0.39322 0.0
C1143 C 0.98407 0.59452 0.30537 0.0
C1144 C 0.99678 0.62512 0.34334 0.0
H1145 H 0.99343 0.63104 0.38839 0.0
C1146 C 0.99701 0.64313 0.33812 0.0
C1147 C 0.99515 0.62067 0.36162 0.0
C1148 C 0.99405 0.6015 0.36784 0.0
C1149 C 0.99601 0.65688 0.35084 0.0
C1150 C 0.9949 0.65241 0.36916 0.0
C1151 C 0.99435 0.63439 0.37431 0.0
C1152 C 0.99449 0.66612 0.38334 0.0
C1153 C 0.99594 0.67605 0.34459 0.0
C1154 C 0.00924 0.67735 0.38609 0.0
C1155 C 0.00951 0.68913 0.40056 0.0
C1156 C 0.99507 0.68979 0.41256 0.0
C1157 C 0.98015 0.67878 0.40952 0.0
C1158 C 0.9799 0.66701 0.39507 0.0
H1159 H 0.99231 0.67714 0.33024 0.0
H1160 H 0.98642 0.68419 0.35256 0.0
H1161 H 0.0095 0.6818 0.34636 0.0
H1162 H 0.02076 0.67664 0.37734 0.0
H1163 H 0.02112 0.69756 0.40247 0.0
H1164 H 0.30696 0.97227 0.40921 0.0
H1165 H 0.3279 0.97391 0.38415 0.0
H1166 H 0.33297 0.03078 0.39189 0.0
H1167 H 0.31171 0.02941 0.4167 0.0
H1168 H 0.32634 -0.00207 0.35145 0.0
H1169 H 0.38489 0.00815 0.39628 0.0
H1170 H 0.36411 -0.00131 0.4041 0.0
H1171 H 0.36574 0.02224 0.39991 0.0
C1172 C 0.31228 0.98518 0.40541 0.0
C1173 C 0.30775 0.0007 0.41502 0.0
C1174 C 0.32428 0.98606 0.39115 0.0
C1175 C 0.33201 0.00243 0.38636 0.0
C1176 C 0.32723 0.01801 0.39558 0.0
H1177 H 0.42007 0.02814 0.31583 0.0
H1178 H 0.39494 0.02968 0.33655 0.0
C1179 C 0.31518 0.01717 0.40979 0.0
C1180 C 0.34563 0.00308 0.37215 0.0
H1181 H 0.39032 0.00855 0.36532 0.0
C1182 C 0.34034 0.00027 0.3544 0.0
C1183 C 0.3638 0.0062 0.37617 0.0
C1184 C 0.37011 0.00889 0.39514 0.0
C1185 C 0.35285 0.00066 0.34043 0.0
C1186 C 0.37111 0.0035 0.34448 0.0
C1187 C 0.37631 0.00642 0.36226 0.0
C1188 C 0.3852 0.0031 0.33062 0.0
C1189 C 0.34636 -0.00169 0.32148 0.0
C1190 C 0.38799 0.98767 0.32034 0.0
C1191 C 0.4022 0.98683 0.30828 0.0
C1192 C 0.41404 0.00133 0.30647 0.0
C1193 C 0.41106 0.01684 0.31666 0.0
C1194 C 0.39677 0.01771 0.32862 0.0
H1195 H 0.33197 0.00174 0.32019 0.0
H1196 H 0.35412 0.00674 0.31206 0.0
H1197 H 0.34801 0.98412 0.31749 0.0
H1198 H 0.37945 0.9761 0.32196 0.0
H1199 H 0.404 0.97476 0.30051 0.0
H1200 H 0.00257 0.5622 0.66015 0.0
H1201 H 0.00299 0.58775 0.63985 0.0
H1202 H 0.99531 0.62355 0.68432 0.0
H1203 H 0.99536 0.59809 0.7049 0.0
H1204 H 0.9715 0.62826 0.65297 0.0
H1205 H 0.04385 0.62637 0.63624 0.0
H1206 H 0.03243 0.60527 0.63486 0.0
H1207 H 0.03478 0.61611 0.65614 0.0
C1208 C 0.00125 0.57551 0.66569 0.0
C1209 C -0.00094 0.57811 0.68418 0.0
C1210 C 0.00143 0.59007 0.65405 0.0
C1211 C -0.00063 0.60746 0.66067 0.0
C1212 C 0.99696 0.61017 0.67904 0.0
H1213 H 0.01467 0.70248 0.59444 0.0
H1214 H 0.01457 0.68186 0.61993 0.0
C1215 C 0.99689 0.59561 0.69073 0.0
C1216 C -0.00066 0.62274 0.64822 0.0
H1217 H 0.02536 0.64461 0.61787 0.0
C1218 C 0.98329 0.632 0.64541 0.0
C1219 C 0.01482 0.62762 0.63858 0.0
C1220 C 0.03252 0.61845 0.64166 0.0
C1221 C 0.98215 0.64562 0.63259 0.0
C1222 C -0.00257 0.64992 0.62236 0.0
C1223 C 0.01365 0.64116 0.6257 0.0
C1224 C 0.99666 0.66286 0.60751 0.0
C1225 C 0.9646 0.65519 0.62992 0.0
C1226 C 0.98669 0.65887 0.59216 0.0
C1227 C 0.98678 0.67053 0.57762 0.0
C1228 C 0.99684 0.68638 0.57822 0.0
C1229 C 0.00666 0.69044 0.59371 0.0
C1230 C 0.00667 0.67868 0.60821 0.0
H1231 H 0.95554 0.65341 0.64155 0.0
H1232 H 0.96679 0.6697 0.62771 0.0
H1233 H 0.95783 0.64969 0.61792 0.0
H1234 H 0.97909 0.64657 0.59132 0.0
H1235 H 0.97898 0.66716 0.56589 0.0
H1236 H 0.4138 0.97077 0.68242 0.0
H1237 H 0.38842 0.97156 0.66182 0.0
H1238 H 0.38257 0.02816 0.67092 0.0
H1239 H 0.40774 0.02749 0.6918 0.0
H1240 H 0.35166 0.98485 0.66769 0.0
H1241 H 0.38984 0.02197 0.6157 0.0
H1242 H 0.40066 0.01032 0.63385 0.0
H1243 H 0.38991 0.0314 0.63781 0.0
C1244 C 0.40695 0.98334 0.68026 0.0
C1245 C 0.41285 -0.0009 0.68865 0.0
C1246 C 0.39252 0.98377 0.66845 0.0
C1247 C 0.38383 -5e-05 0.66477 0.0
C1248 C 0.38933 0.01561 0.67345 0.0
H1249 H 0.30516 0.02683 0.58381 0.0
H1250 H 0.32546 0.02787 0.60936 0.0
C1251 C 0.40373 0.0152 0.6853 0.0
C1252 C 0.36942 0.00051 0.65134 0.0
H1253 H 0.35968 0.01557 0.60947 0.0
C1254 C 0.35334 0.9916 0.65497 0.0
C1255 C 0.37174 0.00937 0.63484 0.0
C1256 C 0.38899 0.01872 0.63016 0.0
C1257 C 0.33938 0.99136 0.64244 0.0
C1258 C 0.34183 -6e-05 0.62577 0.0
C1259 C 0.35785 0.00905 0.62229 0.0
C1260 C 0.32826 -0.00084 0.61144 0.0
C1261 C 0.32212 0.98212 0.64724 0.0
C1262 C 0.32309 0.98266 0.60419 0.0
C1263 C 0.31135 0.98201 0.58971 0.0
C1264 C 0.30473 -0.00214 0.58208 0.0
C1265 C 0.3098 0.01437 0.58953 0.0
C1266 C 0.32147 0.015 0.60405 0.0
H1267 H 0.32041 0.98108 0.66195 0.0
H1268 H 0.31043 0.9893 0.64158 0.0
H1269 H 0.32226 0.96836 0.64171 0.0
H1270 H 0.32847 0.97029 0.60944 0.0
H1271 H 0.30758 0.96908 0.58439 0.0
H1272 H 0.02887 0.30476 0.58349 0.0
H1273 H 0.02956 0.32535 0.60889 0.0
H1274 H 0.97198 0.32784 0.6086 0.0
H1275 H 0.97113 0.30752 0.58304 0.0
H1276 H 0.0147 0.3604 0.60808 0.0
H1277 H 0.98476 0.31873 0.66172 0.0
H1278 H 0.99409 0.30927 0.64155 0.0
H1279 H 0.9723 0.31934 0.64119 0.0
C1280 C 0.01635 0.30967 0.58885 0.0
C1281 C -6e-05 0.30454 0.58123 0.0
C1282 C 0.01677 0.32131 0.60342 0.0
C1283 C 0.00082 0.32789 0.61071 0.0
C1284 C 0.98442 0.32258 0.60337 0.0
H1285 H 0.97054 0.4083 0.68713 0.0
H1286 H 0.97188 0.38355 0.66581 0.0
C1287 C 0.98397 0.31097 0.58877 0.0
C1288 C 0.00135 0.34141 0.62506 0.0
H1289 H 0.98807 0.34977 0.66787 0.0
C1290 C 0.00905 0.35805 0.62122 0.0
C1291 C 0.99384 0.33825 0.64209 0.0
C1292 C 0.9859 0.32039 0.64701 0.0
C1293 C 0.00901 0.37188 0.63385 0.0
C1294 C 0.00143 0.36878 0.65088 0.0
C1295 C 0.99389 0.35205 0.65479 0.0
C1296 C 0.00077 0.38296 0.66461 0.0
C1297 C 0.01654 0.38986 0.62862 0.0
C1298 C 0.01658 0.39051 0.67125 0.0
C1299 C 0.01587 0.40478 0.68324 0.0
C1300 C -0.00069 0.41163 0.68893 0.0
C1301 C 0.98349 0.40355 0.68275 0.0
C1302 C 0.98423 0.38932 0.6707 0.0
H1303 H 0.01771 0.39129 0.61388 0.0
H1304 H 0.00806 0.40089 0.63379 0.0
H1305 H 0.03011 0.39134 0.63442 0.0
H1306 H 0.02948 0.38555 0.66692 0.0
H1307 H 0.02829 0.41076 0.68763 0.0
H1308 H 0.58778 0.02377 0.69351 0.0
H1309 H 0.6122 0.02374 0.67168 0.0
H1310 H 0.5953 0.97202 0.65269 0.0
H1311 H 0.57103 0.9718 0.67455 0.0
H1312 H 0.64053 -0.00217 0.66618 0.0
H1313 H 0.59523 0.00455 0.60772 0.0
H1314 H 0.58811 0.00922 0.6303 0.0
H1315 H 0.58981 0.98652 0.62264 0.0
C1316 C 0.5894 0.01229 0.68482 0.0
C1317 C 0.57739 -0.00215 0.68563 0.0
C1318 C 0.60329 0.01235 0.67235 0.0
C1319 C 0.60532 -0.00199 0.66046 0.0
C1320 C 0.5937 0.98335 0.66156 0.0
H1321 H 0.67319 0.97157 0.57158 0.0
H1322 H 0.65149 0.97208 0.596 0.0
C1323 C 0.57984 0.98328 0.67401 0.0
C1324 C 0.6194 -0.00157 0.64666 0.0
H1325 H 0.62573 -0.00139 0.60154 0.0
C1326 C 0.63736 -0.00189 0.65204 0.0
C1327 C 0.61512 -0.00116 0.62827 0.0
C1328 C 0.59603 -4e-05 0.62182 0.0
C1329 C 0.65122 -0.00235 0.63941 0.0
C1330 C 0.64691 -0.00218 0.62101 0.0
C1331 C 0.62895 -0.00161 0.61568 0.0
C1332 C 0.66076 0.99719 0.60696 0.0
C1333 C 0.6703 0.99649 0.64582 0.0
C1334 C 0.67312 0.01116 0.60508 0.0
C1335 C 0.6855 0.01093 0.59111 0.0
C1336 C 0.68559 0.99679 0.57872 0.0
C1337 C 0.67329 0.98274 0.58078 0.0
C1338 C 0.66096 0.98297 0.59476 0.0
H1339 H 0.67111 0.99223 0.66002 0.0
H1340 H 0.6781 0.98696 0.63752 0.0
H1341 H 0.67665 0.00984 0.64466 0.0
H1342 H 0.67292 0.02243 0.61416 0.0
H1343 H 0.69466 0.02205 0.5897 0.0
H1344 H 0.41834 0.31251 0.02686 0.0
H1345 H 0.39321 0.33338 0.02817 0.0
H1346 H 0.38004 0.3211 0.97341 0.0
H1347 H 0.40516 0.3002 0.972 0.0
H1348 H 0.38951 0.36325 0.00677 0.0
H1349 H 0.33155 0.31769 -0.00159 0.0
H1350 H 0.35357 0.30976 0.00433 0.0
H1351 H 0.34845 0.31532 0.98153 0.0
C1352 C 0.41004 0.31421 0.01513 0.0
C1353 C 0.41373 0.30477 -0.00069 0.0
C1354 C 0.39565 0.32604 0.01593 0.0
C1355 C 0.38466 0.3286 0.00097 0.0
C1356 C 0.38812 0.319 0.98523 0.0
H1357 H 0.303 0.40481 0.97221 0.0
H1358 H 0.32446 0.38013 0.97334 0.0
C1359 C 0.40249 0.3071 0.98443 0.0
C1360 C 0.37048 0.34233 0.00142 0.0
H1361 H 0.32564 0.34891 0.99609 0.0
C1362 C 0.37552 0.36011 0.00459 0.0
C1363 C 0.35228 0.33815 -0.00153 0.0
C1364 C 0.34607 0.31918 0.99565 0.0
C1365 C 0.36289 0.37392 0.00456 0.0
C1366 C 0.34471 0.36976 0.00155 0.0
C1367 C 0.33962 0.35199 -0.00158 0.0
C1368 C 0.33088 0.38383 0.00128 0.0
C1369 C 0.36915 0.39291 0.00729 0.0
C1370 C 0.32717 0.39377 0.01673 0.0
C1371 C 0.31504 0.40793 0.0161 0.0
C1372 C 0.30637 0.41232 2e-05 0.0
C1373 C 0.30969 0.40192 0.98472 0.0
C1374 C 0.32182 0.38775 0.98537 0.0
H1375 H 0.38382 0.39424 0.00541 0.0
H1376 H 0.36229 0.40214 -0.0021 0.0
H1377 H 0.36589 0.39719 0.02111 0.0
H1378 H 0.33391 0.39076 0.02918 0.0
H1379 H 0.31287 0.41576 0.02808 0.0
H1380 H 0.31619 0.57697 0.0219 0.0
H1381 H 0.33785 0.60145 0.0204 0.0
H1382 H 0.32805 0.60684 0.96387 0.0
H1383 H 0.30653 0.58218 0.9652 0.0
H1384 H 0.365 0.60409 0.97419 0.0
H1385 H 0.32822 0.65575 0.01281 0.0
H1386 H 0.32955 0.63423 0.0234 0.0
H1387 H 0.31729 0.63662 0.0029 0.0
C1388 C 0.31863 0.5834 0.00917 0.0
C1389 C 0.30969 0.57769 0.99367 0.0
C1390 C 0.33086 0.59746 0.00837 0.0
C1391 C 0.33434 0.60603 0.99207 0.0
C1392 C 0.32539 0.60045 0.97659 0.0
H1393 H 0.40112 0.70057 0.97826 0.0
H1394 H 0.37664 0.67892 0.97673 0.0
C1395 C 0.31307 0.58645 0.97739 0.0
C1396 C 0.34808 0.62014 0.99105 0.0
H1397 H 0.35899 0.66147 0.00694 0.0
C1398 C 0.36365 0.61671 0.98121 0.0
C1399 C 0.34614 0.63659 0.00012 0.0
C1400 C 0.32934 0.64116 0.01029 0.0
C1401 C 0.37766 0.62913 0.98067 0.0
C1402 C 0.37602 0.64528 0.99032 0.0
C1403 C 0.36021 0.64897 -0.00032 0.0
C1404 C 0.39079 0.65831 0.99122 0.0
C1405 C 0.39414 0.6249 0.96983 0.0
C1406 C 0.40669 0.65386 6e-05 0.0
C1407 C 0.42061 0.66622 0.00114 0.0
C1408 C 0.41886 0.68326 0.99338 0.0
C1409 C 0.40283 0.68766 0.98457 0.0
C1410 C 0.38887 0.6753 0.98358 0.0
H1411 H 0.39166 0.61402 0.96004 0.0
H1412 H 0.39887 0.63693 0.96254 0.0
H1413 H 0.40498 0.62052 0.97896 0.0
H1414 H 0.40825 0.64089 0.00629 0.0
H1415 H 0.43264 0.66253 0.00829 0.0
H1416 H 0.59797 0.28932 0.00617 0.0
H1417 H 0.62294 0.31051 0.00787 0.0
H1418 H 0.58737 0.35361 0.99374 0.0
H1419 H 0.56235 0.33265 0.99232 0.0
H1420 H 0.6354 0.33422 0.97982 0.0
H1421 H 0.61249 0.37054 0.04029 0.0
H1422 H 0.60426 0.34863 0.03432 0.0
H1423 H 0.59571 0.36818 0.02328 0.0
C1424 C 0.59548 0.30334 0.00358 0.0
C1425 C 0.57823 0.30936 -0.00086 0.0
C1426 C 0.60973 0.31537 0.00447 0.0
C1427 C 0.60688 0.33359 0.00115 0.0
C1428 C 0.58973 0.33961 0.99659 0.0
H1429 H 0.66284 0.43195 0.99165 0.0
H1430 H 0.64182 0.40703 0.99309 0.0
C1431 C 0.57552 0.32761 0.99561 0.0
C1432 C 0.62183 0.34641 0.00206 0.0
H1433 H 0.63542 0.38448 0.0231 0.0
C1434 C 0.63559 0.34509 0.98941 0.0
C1435 C 0.62197 0.36048 0.01465 0.0
C1436 C 0.60791 0.36201 0.02903 0.0
C1437 C 0.64911 0.35806 0.98847 0.0
C1438 C 0.64889 0.37247 0.00069 0.0
C1439 C 0.63545 0.37343 0.01371 0.0
C1440 C 0.66189 0.38727 -0.0004 0.0
C1441 C 0.66307 0.35667 0.97398 0.0
C1442 C 0.68012 0.38435 0.00287 0.0
C1443 C 0.69218 0.39859 0.00213 0.0
C1444 C 0.68615 0.41597 -0.00177 0.0
C1445 C 0.66786 0.41878 0.99494 0.0
C1446 C 0.65585 0.40456 0.99567 0.0
H1447 H 0.65938 0.34669 0.96362 0.0
H1448 H 0.66511 0.36983 0.96742 0.0
H1449 H 0.67598 0.35253 0.98 0.0
H1450 H 0.68496 0.37112 0.00622 0.0
H1451 H 0.70615 0.39607 0.00496 0.0
H1452 H 0.68106 0.57648 0.0253 0.0
H1453 H 0.65901 0.60061 0.02548 0.0
H1454 H 0.66814 0.60958 0.96929 0.0
H1455 H 0.69064 0.58584 0.96909 0.0
H1456 H 0.66567 0.64131 0.99005 0.0
H1457 H 0.60925 0.5946 0.00247 0.0
H1458 H 0.62722 0.59323 0.01834 0.0
H1459 H 0.63106 0.58704 0.99546 0.0
C1460 C 0.67859 0.58378 0.01304 0.0
C1461 C 0.6875 0.57918 0.99714 0.0
C1462 C 0.66587 0.59742 0.01314 0.0
C1463 C 0.66178 0.60662 -0.00266 0.0
C1464 C 0.67106 0.60251 0.98159 0.0
H1465 H 0.56731 0.66828 0.97327 0.0
H1466 H 0.59205 0.64691 0.9737 0.0
C1467 C 0.68379 0.58888 0.98147 0.0
C1468 C 0.64745 0.62019 0.99707 0.0
H1469 H 0.60251 0.62549 0.00266 0.0
C1470 C 0.65186 0.63791 0.99281 0.0
C1471 C 0.62944 0.61556 0.00045 0.0
C1472 C 0.62386 0.59656 0.00429 0.0
C1473 C 0.63868 0.65123 0.99202 0.0
C1474 C 0.62074 0.64667 0.99578 0.0
C1475 C 0.61633 0.62892 -0.00011 0.0
C1476 C 0.6062 0.66002 0.99524 0.0
C1477 C 0.64399 0.66998 0.98683 0.0
C1478 C 0.60598 0.67436 0.00729 0.0
C1479 C 0.59183 0.68654 0.00714 0.0
C1480 C 0.57763 0.68448 0.995 0.0
C1481 C 0.57795 0.6701 0.98292 0.0
C1482 C 0.5921 0.65795 0.98308 0.0
H1483 H 0.65734 0.67034 0.98034 0.0
H1484 H 0.63402 0.67592 0.97758 0.0
H1485 H 0.64456 0.67844 -0.001 0.0
H1486 H 0.61658 0.67596 0.01702 0.0
H1487 H 0.59181 0.69732 0.0168 0.0
H1488 H 0.52495 0.80201 0.90795 0.0
H1489 H 0.52577 0.82305 0.88297 0.0
H1490 H 0.46915 0.83224 0.88867 0.0
H1491 H 0.46804 0.81067 0.91317 0.0
H1492 H 0.48023 0.82957 0.85309 0.0
H1493 H 0.52242 0.87694 0.89181 0.0
H1494 H 0.53162 0.8549 0.88936 0.0
H1495 H 0.51144 0.85806 0.90201 0.0
C1496 C 0.5126 0.80824 0.90367 0.0
C1497 C 0.49645 0.80481 0.91267 0.0
C1498 C 0.51314 0.82039 0.88953 0.0
C1499 C 0.49759 0.82942 0.88425 0.0
C1500 C 0.48132 0.82548 0.89266 0.0
H1501 H 0.48577 0.93015 0.83106 0.0
H1502 H 0.48626 0.90467 0.85148 0.0
C1503 C 0.48074 0.81328 0.90675 0.0
C1504 C 0.49832 0.8436 0.87052 0.0
H1505 H 0.51556 0.88497 0.86212 0.0
C1506 C 0.488 0.84167 0.85498 0.0
C1507 C 0.50831 0.85943 0.87321 0.0
C1508 C 0.51896 0.86261 0.89006 0.0
C1509 C 0.48732 0.85523 0.84205 0.0
C1510 C 0.49746 0.87097 0.84467 0.0
C1511 C 0.50789 0.87282 0.86014 0.0
C1512 C 0.49684 0.8861 0.83199 0.0
C1513 C 0.47534 0.85286 0.82601 0.0
C1514 C 0.50272 0.88407 0.81431 0.0
C1515 C 0.50244 0.89862 0.8026 0.0
C1516 C 0.49646 0.91545 0.80848 0.0
C1517 C 0.49064 0.9174 0.82622 0.0
C1518 C 0.49084 0.90286 0.83787 0.0
H1519 H 0.46539 0.84203 0.82808 0.0
H1520 H 0.46809 0.86544 0.82292 0.0
H1521 H 0.48361 0.8493 0.81423 0.0
H1522 H 0.50775 0.87133 0.80964 0.0
H1523 H 0.50723 0.8968 0.78907 0.0
H1524 H 0.19202 0.46673 0.90716 0.0
H1525 H 0.17078 0.46675 0.88228 0.0
H1526 H 0.16333 0.52357 0.88855 0.0
H1527 H 0.18434 0.52366 0.91354 0.0
H1528 H 0.1348 0.47784 0.88498 0.0
H1529 H 0.17188 0.51757 0.83445 0.0
H1530 H 0.18269 0.50734 0.85346 0.0
H1531 H 0.17042 0.52782 0.85611 0.0
C1532 C 0.18589 0.47924 0.90321 0.0
C1533 C 0.18984 0.4952 0.91232 0.0
C1534 C 0.17386 0.47924 0.88895 0.0
C1535 C 0.1657 0.49519 0.88347 0.0
C1536 C 0.16981 0.51119 0.89234 0.0
H1537 H 0.08103 0.5251 0.81135 0.0
H1538 H 0.10576 0.52409 0.83272 0.0
C1539 C 0.18181 0.51121 0.90661 0.0
C1540 C 0.1519 0.49492 0.86937 0.0
H1541 H 0.14112 0.512 0.8285 0.0
C1542 C 0.13622 0.48516 0.87254 0.0
C1543 C 0.15382 0.50459 0.85327 0.0
C1544 C 0.17067 0.51481 0.84899 0.0
C1545 C 0.12214 0.48516 0.86019 0.0
C1546 C 0.12402 0.4949 0.8441 0.0
C1547 C 0.13977 0.50455 0.84086 0.0
C1548 C 0.10958 0.4955 0.83065 0.0
C1549 C 0.10519 0.4752 0.86472 0.0
C1550 C 0.10379 0.47979 0.82223 0.0
C1551 C 0.08956 0.48028 0.81019 0.0
C1552 C 0.08097 0.49654 0.80624 0.0
C1553 C 0.08716 0.51233 0.81434 0.0
C1554 C 0.10137 0.51181 0.82643 0.0
H1555 H 0.10424 0.47224 0.87924 0.0
H1556 H 0.09321 0.48297 0.86067 0.0
H1557 H 0.10502 0.4623 0.85742 0.0
H1558 H 0.11017 0.46712 0.82511 0.0
H1559 H 0.08503 0.46786 0.8043 0.0
H1560 H 0.48254 0.06902 0.82832 0.0
H1561 H 0.48303 0.09555 0.84729 0.0
H1562 H 0.50961 0.12516 0.80561 0.0
H1563 H 0.50893 0.09869 0.78633 0.0
H1564 H 0.52591 0.1278 0.83958 0.0
H1565 H 0.45323 0.14174 0.84299 0.0
H1566 H 0.45878 0.11893 0.84799 0.0
H1567 H 0.46302 0.12765 0.826 0.0
C1568 C 0.4882 0.08125 0.82304 0.0
C1569 C 0.49563 0.08177 0.80579 0.0
C1570 C 0.48847 0.09639 0.8339 0.0
C1571 C 0.4961 0.11235 0.82771 0.0
C1572 C 0.50357 0.11296 0.81054 0.0
H1573 H 0.48844 0.20903 0.89363 0.0
H1574 H 0.48813 0.18918 0.86757 0.0
C1575 C 0.50327 0.09781 0.79962 0.0
C1576 C 0.49712 0.12802 0.83967 0.0
H1577 H 0.47148 0.15542 0.86554 0.0
C1578 C 0.51403 0.13404 0.84507 0.0
C1579 C 0.48159 0.13627 0.84657 0.0
C1580 C 0.46312 0.13095 0.84047 0.0
C1581 C 0.51581 0.1475 0.85798 0.0
C1582 C 0.50026 0.1549 0.86577 0.0
C1583 C 0.48337 0.14957 0.85965 0.0
C1584 C 0.50122 0.16725 0.88113 0.0
C1585 C 0.53428 0.15348 0.8634 0.0
C1586 C 0.50852 0.16137 0.89734 0.0
C1587 C 0.50858 0.17256 0.91224 0.0
C1588 C 0.50127 0.18985 0.91121 0.0
C1589 C 0.49402 0.19573 0.89489 0.0
C1590 C 0.49392 0.18448 0.87998 0.0
H1591 H 0.54428 0.15054 0.85281 0.0
H1592 H 0.53455 0.16803 0.86633 0.0
H1593 H 0.53836 0.1462 0.87566 0.0
H1594 H 0.51381 0.14795 0.89859 0.0
H1595 H 0.51393 0.16749 0.92469 0.0
H1596 H 0.89573 0.49894 0.78634 0.0
H1597 H 0.87051 0.50045 0.80728 0.0
H1598 H 0.90731 0.5006 0.85163 0.0
H1599 H 0.93252 0.49927 0.83087 0.0
H1600 H 0.86359 0.47486 0.83704 0.0
H1601 H 0.8736 0.54507 0.859 0.0
H1602 H 0.88249 0.53649 0.83825 0.0
H1603 H 0.89338 0.53142 0.85903 0.0
C1604 C 0.89841 0.49943 0.80055 0.0
C1605 C 0.91606 0.49898 0.80701 0.0
C1606 C 0.88403 0.50022 0.81245 0.0
C1607 C 0.88714 0.50082 0.83091 0.0
C1608 C 0.90471 0.50034 0.83738 0.0
H1609 H 0.83302 0.5036 0.93069 0.0
H1610 H 0.85351 0.50423 0.90527 0.0
C1611 C 0.91906 0.49942 0.82554 0.0
C1612 C 0.87209 0.50153 0.84361 0.0
H1613 H 0.85397 0.52726 0.87654 0.0
C1614 C 0.86126 0.48636 0.84555 0.0
C1615 C 0.86922 0.51659 0.8546 0.0
C1616 C 0.88017 0.5334 0.85258 0.0
C1617 C 0.8481 0.48554 0.85888 0.0
C1618 C 0.84555 0.50045 0.87024 0.0
C1619 C 0.85601 0.51584 0.86784 0.0
C1620 C 0.8329 0.50003 0.88541 0.0
C1621 C 0.83764 0.46845 0.86122 0.0
C1622 C 0.81451 0.49759 0.88262 0.0
C1623 C 0.80278 0.49715 0.89714 0.0
C1624 C 0.80926 0.49939 0.91464 0.0
C1625 C 0.82765 0.50203 0.91734 0.0
C1626 C 0.83935 0.50234 0.90285 0.0
H1627 H 0.84399 0.45704 0.85415 0.0
H1628 H 0.83632 0.46499 0.87559 0.0
H1629 H 0.82401 0.47027 0.85566 0.0
H1630 H 0.80923 0.49617 0.86922 0.0
H1631 H 0.78863 0.49533 0.89469 0.0
H1632 H 0.47955 0.06421 0.16495 0.0
H1633 H 0.48003 0.0891 0.14377 0.0
H1634 H 0.50695 0.12196 0.18273 0.0
H1635 H 0.50689 0.09697 0.20391 0.0
H1636 H 0.46609 0.12494 0.14784 0.0
H1637 H 0.5398 0.12256 0.13769 0.0
H1638 H 0.52752 0.10435 0.14768 0.0
H1639 H 0.53213 0.12414 0.16042 0.0
C1640 C 0.48565 0.07671 0.16898 0.0
C1641 C 0.49334 0.0786 0.18601 0.0
C1642 C 0.48579 0.09092 0.15694 0.0
C1643 C 0.49369 0.10723 0.16168 0.0
C1644 C 0.50097 0.10937 0.17881 0.0
H1645 H 0.48772 0.20382 0.09584 0.0
H1646 H 0.48679 0.18318 0.12127 0.0
C1647 C 0.5008 0.09515 0.1909 0.0
C1648 C 0.49468 0.12177 0.14841 0.0
H1649 H 0.52383 0.14452 0.12174 0.0
C1650 C 0.4787 0.12936 0.14221 0.0
C1651 C 0.51118 0.1273 0.14105 0.0
C1652 C 0.52867 0.11913 0.1469 0.0
C1653 C 0.47876 0.14227 0.12863 0.0
C1654 C 0.49526 0.14774 0.12123 0.0
C1655 C 0.51125 0.14031 0.12757 0.0
C1656 C 0.49613 0.16038 0.10614 0.0
C1657 C 0.46121 0.14955 0.12187 0.0
C1658 C 0.502 0.15439 0.08939 0.0
C1659 C 0.50262 0.16611 0.07492 0.0
C1660 C 0.49749 0.18405 0.077 0.0
C1661 C 0.49186 0.19008 0.09389 0.0
C1662 C 0.49118 0.17831 0.10836 0.0
H1663 H 0.44962 0.14172 0.12686 0.0
H1664 H 0.45964 0.16358 0.12643 0.0
H1665 H 0.46094 0.14954 0.10703 0.0
H1666 H 0.50596 0.14058 0.0875 0.0
H1667 H 0.50726 0.16116 0.06213 0.0
H1668 H 0.90444 0.5244 0.1956 0.0
H1669 H 0.87939 0.52436 0.17459 0.0
H1670 H 0.89184 0.4701 0.15966 0.0
H1671 H 0.9171 0.4701 0.18036 0.0
H1672 H 0.88337 0.51809 0.13716 0.0
H1673 H 0.83717 0.46942 0.16889 0.0
H1674 H 0.85488 0.48044 0.18107 0.0
H1675 H 0.85987 0.46188 0.16666 0.0
C1676 C 0.90183 0.51245 0.18787 0.0
C1677 C 0.91279 0.49727 0.1896 0.0
C1678 C 0.88745 0.51242 0.17599 0.0
C1679 C 0.88369 0.49717 0.16578 0.0
C1680 C 0.89434 0.48187 0.16772 0.0
H1681 H 0.81572 0.46965 0.07738 0.0
H1682 H 0.83647 0.47027 0.10264 0.0
C1683 C 0.90875 0.4819 0.17956 0.0
C1684 C 0.86955 0.49772 0.15204 0.0
H1685 H 0.83057 0.478 0.13898 0.0
C1686 C 0.87172 0.50947 0.13761 0.0
C1687 C 0.85449 0.48636 0.1527 0.0
C1688 C 0.85131 0.4739 0.16823 0.0
C1689 C 0.85943 0.50983 0.12349 0.0
C1690 C 0.8444 0.49838 0.12407 0.0
C1691 C 0.84212 0.48676 0.13862 0.0
C1692 C 0.83122 0.4979 0.10939 0.0
C1693 C 0.86297 0.522 0.1078 0.0
C1694 C 0.8212 0.51314 0.10508 0.0
C1695 C 0.8095 0.51289 0.09055 0.0
C1696 C 0.80751 0.49733 0.08019 0.0
C1697 C 0.81719 0.48193 0.08491 0.0
C1698 C 0.82892 0.48221 0.09941 0.0
H1699 H 0.87708 0.5266 0.10743 0.0
H1700 H 0.85987 0.51517 0.09499 0.0
H1701 H 0.85429 0.53398 0.10885 0.0
H1702 H 0.8226 0.52529 0.11282 0.0
H1703 H 0.80233 0.52501 0.0872 0.0
H1704 H 0.51123 0.83442 0.0595 0.0
H1705 H 0.51041 0.85609 0.08396 0.0
H1706 H 0.49185 0.8151 0.11992 0.0
H1707 H 0.49207 0.79338 0.09544 0.0
H1708 H 0.4763 0.86216 0.10729 0.0
H1709 H 0.53826 0.84124 0.14302 0.0
H1710 H 0.53526 0.83742 0.11936 0.0
H1711 H 0.52304 0.82427 0.13521 0.0
C1712 C 0.50685 0.83001 0.07257 0.0
C1713 C 0.50165 0.81218 0.0755 0.0
C1714 C 0.50651 0.84238 0.08652 0.0
C1715 C 0.50116 0.83709 0.10365 0.0
C1716 C 0.49618 0.81931 0.10676 0.0
H1717 H 0.49716 0.89755 0.20307 0.0
H1718 H 0.49713 0.87361 0.1807 0.0
C1719 C 0.4964 0.80694 0.09279 0.0
C1720 C 0.5002 0.85039 0.11812 0.0
H1721 H 0.52193 0.86517 0.15533 0.0
C1722 C 0.48622 0.86285 0.11784 0.0
C1723 C 0.51309 0.85101 0.13186 0.0
C1724 C 0.52836 0.83786 0.13249 0.0
C1725 C 0.48482 0.87608 0.13103 0.0
C1726 C 0.49805 0.8771 0.14451 0.0
C1727 C 0.51186 0.86439 0.14494 0.0
C1728 C 0.49805 0.89153 0.15801 0.0
C1729 C 0.46905 0.88865 0.13052 0.0
C1730 C 0.49888 0.90948 0.15264 0.0
C1731 C 0.49881 0.92312 0.16534 0.0
C1732 C 0.49817 0.91904 0.18365 0.0
C1733 C 0.49773 0.90104 0.18903 0.0
C1734 C 0.49766 0.88739 0.1763 0.0
H1735 H 0.45764 0.88278 0.12304 0.0
H1736 H 0.46448 0.89212 0.1442 0.0
H1737 H 0.47301 0.90116 0.12361 0.0
H1738 H 0.49972 0.91294 0.13861 0.0
H1739 H 0.4995 0.93687 0.16085 0.0
H1740 H 0.17375 0.52497 0.06995 0.0
H1741 H 0.15153 0.52501 0.09392 0.0
H1742 H 0.169 0.47262 0.11041 0.0
H1743 H 0.19109 0.47231 0.08631 0.0
H1744 H 0.12378 0.49891 0.09827 0.0
H1745 H 0.16896 0.50252 0.15718 0.0
H1746 H 0.17615 0.50844 0.13491 0.0
H1747 H 0.17407 0.48536 0.14115 0.0
C1748 C 0.17285 0.51343 0.07865 0.0
C1749 C 0.18418 0.49863 0.07623 0.0
C1750 C 0.16023 0.51353 0.09238 0.0
C1751 C 0.15881 0.49891 0.10401 0.0
C1752 C 0.17016 0.48417 0.10176 0.0
H1753 H 0.08654 0.47343 0.19115 0.0
H1754 H 0.11056 0.47339 0.1689 0.0
C1755 C 0.18277 0.48404 0.088 0.0
C1756 C 0.14481 0.49873 0.1179 0.0
H1757 H 0.13816 0.4981 0.163 0.0
C1758 C 0.12689 0.4988 0.11244 0.0
C1759 C 0.149 0.49845 0.13631 0.0
C1760 C 0.16808 0.49883 0.14283 0.0
C1761 C 0.11295 0.49843 0.12494 0.0
C1762 C 0.11712 0.49838 0.14337 0.0
C1763 C 0.13506 0.49818 0.14885 0.0
C1764 C 0.10299 0.49871 0.15716 0.0
C1765 C 0.09392 0.49775 0.11829 0.0
C1766 C 0.09106 0.51314 0.15811 0.0
C1767 C 0.07736 0.51319 0.17076 0.0
C1768 C 0.07547 0.49889 0.18279 0.0
C1769 C 0.08775 0.48468 0.18212 0.0
C1770 C 0.10141 0.4846 0.1694 0.0
H1771 H 0.09317 0.49301 0.10424 0.0
H1772 H 0.08562 0.48882 0.12676 0.0
H1773 H 0.08808 0.51138 0.11881 0.0
H1774 H 0.09233 0.52435 0.14905 0.0
H1775 H 0.06831 0.52449 0.1712 0.0
H1776 H 0.80204 0.90458 0.47571 0.0
H1777 H 0.82428 0.88065 0.47678 0.0
H1778 H 0.84036 0.89777 0.52941 0.0
H1779 H 0.81861 0.92211 0.52822 0.0
H1780 H 0.8686 0.89357 0.50624 0.0
H1781 H 0.82465 0.83386 0.50498 0.0
H1782 H 0.82026 0.84948 0.48729 0.0
H1783 H 0.81642 0.85597 0.51011 0.0
C1784 C 0.81029 0.90323 0.48753 0.0
C1785 C 0.80859 0.91525 0.50187 0.0
C1786 C 0.82283 0.88942 0.4882 0.0
C1787 C 0.83377 0.88732 0.50328 0.0
C1788 C 0.83192 0.89911 0.51773 0.0
H1789 H 0.90771 0.79978 0.52334 0.0
H1790 H 0.88309 0.82129 0.52494 0.0
C1791 C 0.81941 0.91293 0.51706 0.0
C1792 C 0.84801 0.87364 0.50346 0.0
H1793 H 0.85573 0.82883 0.49974 0.0
C1794 C 0.86579 0.8794 0.50495 0.0
C1795 C 0.84426 0.85518 0.50194 0.0
C1796 C 0.82535 0.8482 0.50116 0.0
C1797 C 0.87999 0.86721 0.50455 0.0
C1798 C 0.87628 0.84883 0.5023 0.0
C1799 C 0.85849 0.84299 0.50126 0.0
C1800 C 0.89075 0.83548 0.50095 0.0
C1801 C 0.89884 0.8741 0.50667 0.0
C1802 C 0.90295 0.8362 0.48674 0.0
C1803 C 0.91696 0.82393 0.48575 0.0
C1804 C 0.91894 0.81067 0.49891 0.0
C1805 C 0.90644 0.80976 0.51292 0.0
C1806 C 0.89243 0.82205 0.5139 0.0
H1807 H 0.8991 0.88763 0.51278 0.0
H1808 H 0.90694 0.86492 0.51506 0.0
H1809 H 0.90523 0.87499 0.49332 0.0
H1810 H 0.90162 0.84626 0.47642 0.0
H1811 H 0.92618 0.82476 0.47463 0.0
H1812 H 0.91314 0.18399 0.46873 0.0
H1813 H 0.88841 0.16257 0.46971 0.0
H1814 H 0.88792 0.16558 0.52726 0.0
H1815 H 0.91283 0.1868 0.52642 0.0
H1816 H 0.88951 0.13013 0.5123 0.0
H1817 H 0.83497 0.17123 0.48305 0.0
H1818 H 0.85556 0.17116 0.47066 0.0
H1819 H 0.85493 0.18093 0.49257 0.0
C1820 C 0.90771 0.18012 0.48159 0.0
C1821 C 0.91489 0.18705 0.4975 0.0
C1822 C 0.8935 0.16804 0.48211 0.0
C1823 C 0.88626 0.16271 0.49855 0.0
C1824 C 0.89328 0.16969 0.51445 0.0
H1825 H 0.7965 0.09155 0.51959 0.0
H1826 H 0.81761 0.11657 0.52023 0.0
C1827 C 0.90742 0.18185 0.51394 0.0
C1828 C 0.87215 0.14896 0.49916 0.0
H1829 H 0.82929 0.14007 0.48628 0.0
C1830 C 0.8763 0.13232 0.50674 0.0
C1831 C 0.85494 0.15197 0.49196 0.0
C1832 C 0.8497 0.16983 0.48422 0.0
C1833 C 0.86378 0.1184 0.50687 0.0
C1834 C 0.84678 0.12125 0.49922 0.0
C1835 C 0.84243 0.138 0.49204 0.0
C1836 C 0.83353 0.10674 0.49822 0.0
C1837 C 0.86878 0.10065 0.51502 0.0
C1838 C 0.83548 0.0932 0.48545 0.0
C1839 C 0.82338 0.07903 0.4849 0.0
C1840 C 0.80918 0.07813 0.4972 0.0
C1841 C 0.80715 0.09195 0.50981 0.0
C1842 C 0.81922 0.10618 0.51027 0.0
H1843 H 0.88162 0.10132 0.52246 0.0
H1844 H 0.85811 0.09605 0.52426 0.0
H1845 H 0.87009 0.0905 0.50428 0.0
H1846 H 0.84644 0.09356 0.47599 0.0
H1847 H 0.82514 0.06879 0.47482 0.0
H1848 H 0.07975 0.8129 0.52433 0.0
H1849 H 0.10551 0.83305 0.52392 0.0
H1850 H 0.11688 0.81772 0.46958 0.0
H1851 H 0.09141 0.79718 0.46994 0.0
H1852 H 0.14438 0.82517 0.5134 0.0
H1853 H 0.10785 0.87408 0.47072 0.0
H1854 H 0.09641 0.85734 0.48382 0.0
H1855 H 0.10785 0.85106 0.46372 0.0
C1856 C 0.08793 0.81353 0.5124 0.0
C1857 C 0.08346 0.80354 0.49711 0.0
C1858 C 0.10257 0.82509 0.51219 0.0
C1859 C 0.1129 0.82689 0.49668 0.0
C1860 C 0.10889 0.81656 0.4816 0.0
H1861 H 0.19134 0.90741 0.4683 0.0
H1862 H 0.17157 0.88146 0.46798 0.0
C1863 C 0.0943 0.80494 0.48181 0.0
C1864 C 0.12726 0.84035 0.49598 0.0
H1865 H 0.1373 0.88132 0.47881 0.0
C1866 C 0.14293 0.83744 0.50581 0.0
C1867 C 0.12522 0.85623 0.486 0.0
C1868 C 0.10841 0.86004 0.47551 0.0
C1869 C 0.15678 0.8501 0.50587 0.0
C1870 C 0.15459 0.8662 0.49619 0.0
C1871 C 0.13896 0.86895 0.48619 0.0
C1872 C 0.16798 0.88073 0.49666 0.0
C1873 C 0.17366 0.84601 0.51611 0.0
C1874 C 0.17258 0.88886 0.51291 0.0
C1875 C 0.18408 0.90356 0.51317 0.0
C1876 C 0.19098 0.91055 0.49715 0.0
C1877 C 0.18649 0.90221 0.4809 0.0
C1878 C 0.1751 0.88745 0.48068 0.0
H1879 H 0.1755 0.83138 0.51793 0.0
H1880 H 0.18561 0.85148 0.5092 0.0
H1881 H 0.17282 0.85218 0.52956 0.0
H1882 H 0.16693 0.88415 0.52537 0.0
H1883 H 0.18741 0.90954 0.52592 0.0
H1884 H 0.08186 0.18388 0.46851 0.0
H1885 H 0.10671 0.16261 0.46917 0.0
H1886 H 0.11014 0.16822 0.52642 0.0
H1887 H 0.08538 0.18959 0.52589 0.0
H1888 H 0.14252 0.16574 0.4833 0.0
H1889 H 0.10175 0.11413 0.51795 0.0
H1890 H 0.09193 0.13341 0.50728 0.0
H1891 H 0.1025 0.13558 0.52872 0.0
C1892 C 0.08808 0.18079 0.48121 0.0
C1893 C 0.08157 0.18826 0.49717 0.0
C1894 C 0.10222 0.16861 0.48156 0.0
C1895 C 0.11001 0.16369 0.49787 0.0
C1896 C 0.10403 0.17163 0.51375 0.0
H1897 H 0.1867 0.08169 0.52644 0.0
H1898 H 0.16653 0.10739 0.52662 0.0
C1899 C 0.08989 0.18379 0.51342 0.0
C1900 C 0.12394 0.14973 0.49833 0.0
H1901 H 0.13217 0.1074 0.5131 0.0
C1902 C 0.14031 0.15298 0.48981 0.0
C1903 C 0.12092 0.13313 0.50683 0.0
C1904 C 0.10328 0.12871 0.5156 0.0
C1905 C 0.15391 0.14005 0.48974 0.0
C1906 C 0.15083 0.1234 0.49814 0.0
C1907 C 0.13448 0.12022 0.50674 0.0
C1908 C 0.16416 0.10883 0.49784 0.0
C1909 C 0.1715 0.1444 0.48091 0.0
C1910 C 0.16948 0.10117 0.48159 0.0
C1911 C 0.18109 0.08657 0.48143 0.0
C1912 C 0.18748 0.0793 0.49754 0.0
C1913 C 0.18223 0.08714 0.51379 0.0
C1914 C 0.17064 0.10174 0.51394 0.0
H1915 H 0.17347 0.15906 0.47955 0.0
H1916 H 0.18287 0.13875 0.4886 0.0
H1917 H 0.17173 0.13849 0.46732 0.0
H1918 H 0.16434 0.10623 0.46904 0.0
H1919 H 0.18502 0.08093 0.46869 0.0
loop_
_geom_bond_atom_site_label_1
_geom_bond_atom_site_label_2
_geom_bond_distance
_geom_bond_site_symmetry_2
_ccdc_geom_bond_type
Li0 N17 1.990 . S
Li0 O60 1.956 . S
Li0 O61 1.971 . S
Li0 O62 1.950 1_655 S
Li1 N25 1.991 . S
Li1 O60 1.955 1_455 S
Li1 O61 1.956 1_455 S
Li1 O63 1.976 . S
Li2 N47 1.990 . S
Li2 O60 1.966 . S
Li2 O62 1.956 1_655 S
Li2 O63 1.965 1_655 S
Li3 N53 1.990 . S
Li3 O61 1.960 1_455 S
Li3 O62 1.981 . S
Li3 O63 1.956 . S
C4 C6 1.348 . S
C4 C7 1.356 . S
C4 O60 1.325 . S
N5 C8 1.314 . S
N5 C9 1.279 . S
C6 C4 1.348 . S
C6 C8 1.353 . S
C6 H64 0.929 . S
C7 C4 1.356 . S
C7 C9 1.358 . S
C7 H65 0.930 . S
C8 N5 1.314 . S
C8 C6 1.353 . S
C8 H66 0.930 . S
C9 N5 1.279 . S
C9 C7 1.358 . S
C9 H67 0.930 . S
C10 C13 1.345 1_455 S
C10 C14 1.359 . S
C10 O61 1.325 1_455 S
C11 N12 1.327 . S
C11 C14 1.358 . S
C11 H68 0.930 . S
N12 C11 1.327 . S
N12 C15 1.267 1_455 S
C13 C10 1.345 1_655 S
C13 C15 1.353 . S
C13 H69 0.929 . S
C14 C10 1.359 . S
C14 C11 1.358 . S
C14 H70 0.930 . S
C15 N12 1.267 1_655 S
C15 C13 1.353 . S
C15 H71 0.930 . S
C16 N17 1.314 . S
C16 C21 1.353 . S
C16 H22 0.930 . S
N17 Li0 1.990 . S
N17 C16 1.314 . S
N17 C19 1.279 . S
C18 C19 1.358 . S
C18 C20 1.356 . S
C18 H72 0.930 . S
C19 N17 1.279 . S
C19 C18 1.358 . S
C19 H23 0.930 . S
C20 C18 1.356 . S
C20 C21 1.348 . S
C21 C16 1.353 . S
C21 C20 1.348 . S
C21 H73 0.929 . S
H22 C16 0.930 . S
H23 C19 0.930 . S
C24 N25 1.314 . S
C24 C26 1.353 . S
C24 H30 0.930 . S
N25 Li1 1.991 . S
N25 C24 1.314 . S
N25 C28 1.279 1_455 S
C26 C24 1.353 . S
C26 C29 1.346 . S
C26 H74 0.929 . S
C27 C28 1.358 . S
C27 C29 1.357 1_655 S
C27 H75 0.930 . S
C28 N25 1.279 1_655 S
C28 C27 1.358 . S
C28 H31 0.930 . S
C29 C26 1.346 . S
C29 C27 1.357 1_455 S
H30 C24 0.930 . S
H31 C28 0.930 . S
C32 C34 1.345 . S
C32 C35 1.359 1_455 S
C32 O62 1.325 . S
N33 C36 1.279 1_655 S
N33 C37 1.315 . S
C34 C32 1.345 . S
C34 C36 1.353 . S
C34 H76 0.929 . S
C35 C32 1.359 1_655 S
C35 C37 1.358 . S
C35 H77 0.930 . S
C36 N33 1.279 1_455 S
C36 C34 1.353 . S
C36 H78 0.930 . S
C37 N33 1.315 . S
C37 C35 1.358 . S
C37 H79 0.930 . S
C38 C39 1.348 . S
C38 C40 1.356 . S
C38 O63 1.325 . S
C39 C38 1.348 . S
C39 C41 1.353 . S
C39 H80 0.929 . S
C40 C38 1.356 . S
C40 C42 1.358 . S
C40 H81 0.930 . S
C41 C39 1.353 . S
C41 N43 1.314 . S
C41 H82 0.930 . S
C42 C40 1.358 . S
C42 N43 1.279 . S
C42 H83 0.930 . S
N43 C41 1.314 . S
N43 C42 1.279 . S
C44 C46 1.353 . S
C44 N47 1.314 . S
C44 H50 0.930 . S
C45 N47 1.279 1_455 S
C45 C48 1.358 . S
C45 H51 0.930 . S
C46 C44 1.353 . S
C46 C49 1.346 1_655 S
C46 H84 0.929 . S
N47 Li2 1.990 . S
N47 C44 1.314 . S
N47 C45 1.279 1_655 S
C48 C45 1.358 . S
C48 C49 1.357 . S
C48 H85 0.930 . S
C49 C46 1.346 1_455 S
C49 C48 1.357 . S
H50 C44 0.930 . S
H51 C45 0.930 . S
C52 N53 1.314 . S
C52 C54 1.353 . S
C52 H58 0.930 . S
N53 Li3 1.990 . S
N53 C52 1.314 . S
N53 C56 1.279 . S
C54 C52 1.353 . S
C54 C57 1.348 . S
C54 H86 0.929 . S
C55 C56 1.358 . S
C55 C57 1.356 . S
C55 H87 0.930 . S
C56 N53 1.279 . S
C56 C55 1.358 . S
C56 H59 0.930 . S
C57 C54 1.348 . S
C57 C55 1.356 . S
H58 C52 0.930 . S
H59 C56 0.930 . S
O60 Li0 1.956 . S
O60 Li1 1.955 1_655 S
O60 Li2 1.966 . S
O60 C4 1.325 . S
O61 Li0 1.971 . S
O61 Li1 1.956 1_655 S
O61 Li3 1.960 1_655 S
O61 C10 1.325 1_655 S
O62 Li0 1.950 1_455 S
O62 Li2 1.956 1_455 S
O62 Li3 1.981 . S
O62 C32 1.325 . S
O63 Li1 1.976 . S
O63 Li2 1.965 1_455 S
O63 Li3 1.956 . S
O63 C38 1.325 . S
H64 C6 0.929 . S
H65 C7 0.930 . S
H66 C8 0.930 . S
H67 C9 0.930 . S
H68 C11 0.930 . S
H69 C13 0.929 . S
H70 C14 0.930 . S
H71 C15 0.930 . S
H72 C18 0.930 . S
H73 C21 0.929 . S
H74 C26 0.929 . S
H75 C27 0.930 . S
H76 C34 0.929 . S
H77 C35 0.930 . S
H78 C36 0.930 . S
H79 C37 0.930 . S
H80 C39 0.929 . S
H81 C40 0.930 . S
H82 C41 0.930 . S
H83 C42 0.930 . S
H84 C46 0.929 . S
H85 C48 0.930 . S
H86 C54 0.929 . S
H87 C55 0.930 . S
Li88 N105 1.991 . S
Li88 O148 1.956 1_545 S
Li88 O149 1.955 1_545 S
Li88 O150 1.976 . S
Li89 N113 1.990 . S
Li89 O148 1.971 . S
Li89 O149 1.956 . S
Li89 O151 1.950 1_565 S
Li90 N135 1.990 . S
Li90 O148 1.960 1_545 S
Li90 O150 1.956 . S
Li90 O151 1.981 . S
Li91 N141 1.990 . S
Li91 O149 1.966 . S
Li91 O150 1.965 1_565 S
Li91 O151 1.956 1_565 S
C92 C94 1.345 1_545 S
C92 C95 1.359 . S
C92 O148 1.325 1_545 S
N93 C96 1.267 1_545 S
N93 C97 1.327 . S
C94 C92 1.345 1_565 S
C94 C96 1.353 . S
C94 H152 0.929 . S
C95 C92 1.359 . S
C95 C97 1.358 . S
C95 H153 0.930 . S
C96 N93 1.267 1_565 S
C96 C94 1.353 . S
C96 H154 0.930 . S
C97 N93 1.327 . S
C97 C95 1.358 . S
C97 H155 0.930 . S
C98 C101 1.348 . S
C98 C102 1.356 . S
C98 O149 1.325 . S
C99 N100 1.279 . S
C99 C102 1.358 . S
C99 H156 0.930 . S
N100 C99 1.279 . S
N100 C103 1.314 . S
C101 C98 1.348 . S
C101 C103 1.353 . S
C101 H157 0.929 . S
C102 C98 1.356 . S
C102 C99 1.358 . S
C102 H158 0.930 . S
C103 N100 1.314 . S
C103 C101 1.353 . S
C103 H159 0.930 . S
C104 N105 1.314 . S
C104 C109 1.353 . S
C104 H110 0.930 . S
N105 Li88 1.991 . S
N105 C104 1.314 . S
N105 C107 1.279 1_545 S
C106 C107 1.358 . S
C106 C108 1.357 1_565 S
C106 H160 0.930 . S
C107 N105 1.279 1_565 S
C107 C106 1.358 . S
C107 H111 0.930 . S
C108 C106 1.357 1_545 S
C108 C109 1.346 . S
C109 C104 1.353 . S
C109 C108 1.346 . S
C109 H161 0.929 . S
H110 C104 0.930 . S
H111 C107 0.930 . S
C112 N113 1.314 . S
C112 C114 1.353 . S
C112 H118 0.930 . S
N113 Li89 1.990 . S
N113 C112 1.314 . S
N113 C116 1.279 . S
C114 C112 1.353 . S
C114 C117 1.348 . S
C114 H162 0.929 . S
C115 C116 1.358 . S
C115 C117 1.356 . S
C115 H163 0.930 . S
C116 N113 1.279 . S
C116 C115 1.358 . S
C116 H119 0.930 . S
C117 C114 1.348 . S
C117 C115 1.356 . S
H118 C112 0.930 . S
H119 C116 0.930 . S
C120 C122 1.348 . S
C120 C123 1.356 . S
C120 O150 1.325 . S
N121 C124 1.314 . S
N121 C125 1.279 . S
C122 C120 1.348 . S
C122 C124 1.353 . S
C122 H164 0.929 . S
C123 C120 1.356 . S
C123 C125 1.358 . S
C123 H165 0.930 . S
C124 N121 1.314 . S
C124 C122 1.353 . S
C124 H166 0.930 . S
C125 N121 1.279 . S
C125 C123 1.358 . S
C125 H167 0.930 . S
C126 C127 1.345 . S
C126 C128 1.359 1_545 S
C126 O151 1.325 . S
C127 C126 1.345 . S
C127 C129 1.353 . S
C127 H168 0.929 . S
C128 C126 1.359 1_565 S
C128 C130 1.358 . S
C128 H169 0.930 . S
C129 C127 1.353 . S
C129 N131 1.279 1_545 S
C129 H170 0.930 . S
C130 C128 1.358 . S
C130 N131 1.315 . S
C130 H171 0.930 . S
N131 C129 1.279 1_565 S
N131 C130 1.315 . S
C132 C134 1.353 . S
C132 N135 1.314 . S
C132 H138 0.930 . S
C133 N135 1.279 . S
C133 C136 1.358 . S
C133 H139 0.930 . S
C134 C132 1.353 . S
C134 C137 1.348 . S
C134 H172 0.929 . S
N135 Li90 1.990 . S
N135 C132 1.314 . S
N135 C133 1.279 . S
C136 C133 1.358 . S
C136 C137 1.356 . S
C136 H173 0.930 . S
C137 C134 1.348 . S
C137 C136 1.356 . S
H138 C132 0.930 . S
H139 C133 0.930 . S
C140 N141 1.314 . S
C140 C142 1.353 . S
C140 H146 0.930 . S
N141 Li91 1.990 . S
N141 C140 1.314 . S
N141 C144 1.279 1_565 S
C142 C140 1.353 . S
C142 C145 1.346 1_565 S
C142 H174 0.929 . S
C143 C144 1.358 . S
C143 C145 1.357 . S
C143 H175 0.930 . S
C144 N141 1.279 1_545 S
C144 C143 1.358 . S
C144 H147 0.930 . S
C145 C142 1.346 1_545 S
C145 C143 1.357 . S
H146 C140 0.930 . S
H147 C144 0.930 . S
O148 Li88 1.956 1_565 S
O148 Li89 1.971 . S
O148 Li90 1.960 1_565 S
O148 C92 1.325 1_565 S
O149 Li88 1.955 1_565 S
O149 Li89 1.956 . S
O149 Li91 1.966 . S
O149 C98 1.325 . S
O150 Li88 1.976 . S
O150 Li90 1.956 . S
O150 Li91 1.965 1_545 S
O150 C120 1.325 . S
O151 Li89 1.950 1_545 S
O151 Li90 1.981 . S
O151 Li91 1.956 1_545 S
O151 C126 1.325 . S
H152 C94 0.929 . S
H153 C95 0.930 . S
H154 C96 0.930 . S
H155 C97 0.930 . S
H156 C99 0.930 . S
H157 C101 0.929 . S
H158 C102 0.930 . S
H159 C103 0.930 . S
H160 C106 0.930 . S
H161 C109 0.929 . S
H162 C114 0.929 . S
H163 C115 0.930 . S
H164 C122 0.929 . S
H165 C123 0.930 . S
H166 C124 0.930 . S
H167 C125 0.930 . S
H168 C127 0.929 . S
H169 C128 0.930 . S
H170 C129 0.930 . S
H171 C130 0.930 . S
H172 C134 0.929 . S
H173 C136 0.930 . S
H174 C142 0.929 . S
H175 C143 0.930 . S
Li176 N193 1.990 . S
Li176 O236 1.956 . S
Li176 O237 1.981 . S
Li176 O238 1.960 1_455 S
Li177 N201 1.990 . S
Li177 O236 1.965 1_655 S
Li177 O237 1.956 1_655 S
Li177 O239 1.966 . S
Li178 N223 1.991 . S
Li178 O236 1.976 . S
Li178 O238 1.956 1_455 S
Li178 O239 1.955 1_455 S
Li179 N229 1.990 . S
Li179 O237 1.950 1_655 S
Li179 O238 1.971 . S
Li179 O239 1.956 . S
C180 C182 1.348 . S
C180 C183 1.356 . S
C180 O236 1.325 . S
N181 C184 1.314 . S
N181 C185 1.279 . S
C182 C180 1.348 . S
C182 C184 1.353 . S
C182 H240 0.929 . S
C183 C180 1.356 . S
C183 C185 1.358 . S
C183 H241 0.930 . S
C184 N181 1.314 . S
C184 C182 1.353 . S
C184 H242 0.930 . S
C185 N181 1.279 . S
C185 C183 1.358 . S
C185 H243 0.930 . S
C186 C189 1.345 . S
C186 C190 1.359 1_455 S
C186 O237 1.325 . S
C187 N188 1.314 . S
C187 C190 1.358 . S
C187 H244 0.930 . S
N188 C187 1.314 . S
N188 C191 1.279 1_655 S
C189 C186 1.345 . S
C189 C191 1.353 . S
C189 H245 0.929 . S
C190 C186 1.359 1_655 S
C190 C187 1.358 . S
C190 H246 0.930 . S
C191 N188 1.279 1_455 S
C191 C189 1.353 . S
C191 H247 0.930 . S
C192 N193 1.314 . S
C192 C197 1.353 . S
C192 H198 0.930 . S
N193 Li176 1.990 . S
N193 C192 1.314 . S
N193 C195 1.279 . S
C194 C195 1.358 . S
C194 C196 1.356 . S
C194 H248 0.930 . S
C195 N193 1.279 . S
C195 C194 1.358 . S
C195 H199 0.930 . S
C196 C194 1.356 . S
C196 C197 1.348 . S
C197 C192 1.353 . S
C197 C196 1.348 . S
C197 H249 0.929 . S
H198 C192 0.930 . S
H199 C195 0.930 . S
C200 N201 1.314 . S
C200 C202 1.353 . S
C200 H206 0.930 . S
N201 Li177 1.990 . S
N201 C200 1.314 . S
N201 C204 1.279 1_655 S
C202 C200 1.353 . S
C202 C205 1.346 1_655 S
C202 H250 0.929 . S
C203 C204 1.358 . S
C203 C205 1.357 . S
C203 H251 0.930 . S
C204 N201 1.279 1_455 S
C204 C203 1.358 . S
C204 H207 0.930 . S
C205 C202 1.346 1_455 S
C205 C203 1.357 . S
H206 C200 0.930 . S
H207 C204 0.930 . S
C208 C210 1.345 1_455 S
C208 C211 1.359 . S
C208 O238 1.325 1_455 S
N209 C212 1.267 1_455 S
N209 C213 1.327 . S
C210 C208 1.345 1_655 S
C210 C212 1.353 . S
C210 H252 0.929 . S
C211 C208 1.359 . S
C211 C213 1.358 . S
C211 H253 0.930 . S
C212 N209 1.267 1_655 S
C212 C210 1.353 . S
C212 H254 0.930 . S
C213 N209 1.327 . S
C213 C211 1.358 . S
C213 H255 0.930 . S
C214 C215 1.348 . S
C214 C216 1.356 . S
C214 O239 1.325 . S
C215 C214 1.348 . S
C215 C217 1.353 . S
C215 H256 0.929 . S
C216 C214 1.356 . S
C216 C218 1.358 . S
C216 H257 0.930 . S
C217 C215 1.353 . S
C217 N219 1.314 . S
C217 H258 0.930 . S
C218 C216 1.358 . S
C218 N219 1.279 . S
C218 H259 0.930 . S
N219 C217 1.314 . S
N219 C218 1.279 . S
C220 C222 1.353 . S
C220 N223 1.314 . S
C220 H226 0.930 . S
C221 N223 1.279 1_655 S
C221 C224 1.358 . S
C221 H227 0.930 . S
C222 C220 1.353 . S
C222 C225 1.346 . S
C222 H260 0.929 . S
N223 Li178 1.991 . S
N223 C220 1.314 . S
N223 C221 1.279 1_455 S
C224 C221 1.358 . S
C224 C225 1.357 1_655 S
C224 H261 0.930 . S
C225 C222 1.346 . S
C225 C224 1.357 1_455 S
H226 C220 0.930 . S
H227 C221 0.930 . S
C228 N229 1.314 . S
C228 C230 1.353 . S
C228 H234 0.930 . S
N229 Li179 1.990 . S
N229 C228 1.314 . S
N229 C232 1.279 . S
C230 C228 1.353 . S
C230 C233 1.348 . S
C230 H262 0.929 . S
C231 C232 1.358 . S
C231 C233 1.356 . S
C231 H263 0.930 . S
C232 N229 1.279 . S
C232 C231 1.358 . S
C232 H235 0.930 . S
C233 C230 1.348 . S
C233 C231 1.356 . S
H234 C228 0.930 . S
H235 C232 0.930 . S
O236 Li176 1.956 . S
O236 Li177 1.965 1_455 S
O236 Li178 1.976 . S
O236 C180 1.325 . S
O237 Li176 1.981 . S
O237 Li177 1.956 1_455 S
O237 Li179 1.950 1_455 S
O237 C186 1.325 . S
O238 Li176 1.960 1_655 S
O238 Li178 1.956 1_655 S
O238 Li179 1.971 . S
O238 C208 1.325 1_655 S
O239 Li177 1.966 . S
O239 Li178 1.955 1_655 S
O239 Li179 1.956 . S
O239 C214 1.325 . S
H240 C182 0.929 . S
H241 C183 0.930 . S
H242 C184 0.930 . S
H243 C185 0.930 . S
H244 C187 0.930 . S
H245 C189 0.929 . S
H246 C190 0.930 . S
H247 C191 0.930 . S
H248 C194 0.930 . S
H249 C197 0.929 . S
H250 C202 0.929 . S
H251 C203 0.930 . S
H252 C210 0.929 . S
H253 C211 0.930 . S
H254 C212 0.930 . S
H255 C213 0.930 . S
H256 C215 0.929 . S
H257 C216 0.930 . S
H258 C217 0.930 . S
H259 C218 0.930 . S
H260 C222 0.929 . S
H261 C224 0.930 . S
H262 C230 0.929 . S
H263 C231 0.930 . S
Li264 N281 1.990 . S
Li264 O324 1.956 . S
Li264 O325 1.981 . S
Li264 O326 1.960 1_545 S
Li265 N289 1.990 . S
Li265 O324 1.965 1_565 S
Li265 O325 1.956 1_565 S
Li265 O327 1.966 . S
Li266 N311 1.991 . S
Li266 O324 1.976 . S
Li266 O326 1.956 1_545 S
Li266 O327 1.955 1_545 S
Li267 N317 1.990 . S
Li267 O325 1.950 1_565 S
Li267 O326 1.971 . S
Li267 O327 1.956 . S
C268 C270 1.348 . S
C268 C271 1.356 . S
C268 O324 1.325 . S
N269 C272 1.314 . S
N269 C273 1.279 . S
C270 C268 1.348 . S
C270 C272 1.353 . S
C270 H328 0.929 . S
C271 C268 1.356 . S
C271 C273 1.358 . S
C271 H329 0.930 . S
C272 N269 1.314 . S
C272 C270 1.353 . S
C272 H330 0.930 . S
C273 N269 1.279 . S
C273 C271 1.358 . S
C273 H331 0.930 . S
C274 C277 1.345 . S
C274 C278 1.359 1_545 S
C274 O325 1.325 . S
C275 N276 1.315 . S
C275 C278 1.358 . S
C275 H332 0.930 . S
N276 C275 1.315 . S
N276 C279 1.279 1_565 S
C277 C274 1.345 . S
C277 C279 1.353 . S
C277 H333 0.929 . S
C278 C274 1.359 1_565 S
C278 C275 1.358 . S
C278 H334 0.930 . S
C279 N276 1.279 1_545 S
C279 C277 1.353 . S
C279 H335 0.930 . S
C280 N281 1.314 . S
C280 C285 1.353 . S
C280 H286 0.930 . S
N281 Li264 1.990 . S
N281 C280 1.314 . S
N281 C283 1.279 . S
C282 C283 1.358 . S
C282 C284 1.356 . S
C282 H336 0.930 . S
C283 N281 1.279 . S
C283 C282 1.358 . S
C283 H287 0.930 . S
C284 C282 1.356 . S
C284 C285 1.348 . S
C285 C280 1.353 . S
C285 C284 1.348 . S
C285 H337 0.929 . S
H286 C280 0.930 . S
H287 C283 0.930 . S
C288 N289 1.314 . S
C288 C290 1.353 . S
C288 H294 0.930 . S
N289 Li265 1.990 . S
N289 C288 1.314 . S
N289 C292 1.279 1_565 S
C290 C288 1.353 . S
C290 C293 1.346 1_565 S
C290 H338 0.929 . S
C291 C292 1.358 . S
C291 C293 1.357 . S
C291 H339 0.930 . S
C292 N289 1.279 1_545 S
C292 C291 1.358 . S
C292 H295 0.930 . S
C293 C290 1.346 1_545 S
C293 C291 1.357 . S
H294 C288 0.930 . S
H295 C292 0.930 . S
C296 C298 1.345 1_545 S
C296 C299 1.359 . S
C296 O326 1.325 1_545 S
N297 C300 1.267 1_545 S
N297 C301 1.327 . S
C298 C296 1.345 1_565 S
C298 C300 1.353 . S
C298 H340 0.929 . S
C299 C296 1.359 . S
C299 C301 1.358 . S
C299 H341 0.930 . S
C300 N297 1.267 1_565 S
C300 C298 1.353 . S
C300 H342 0.930 . S
C301 N297 1.327 . S
C301 C299 1.358 . S
C301 H343 0.930 . S
C302 C303 1.348 . S
C302 C304 1.356 . S
C302 O327 1.325 . S
C303 C302 1.348 . S
C303 C305 1.353 . S
C303 H344 0.929 . S
C304 C302 1.356 . S
C304 C306 1.358 . S
C304 H345 0.930 . S
C305 C303 1.353 . S
C305 N307 1.314 . S
C305 H346 0.930 . S
C306 C304 1.358 . S
C306 N307 1.279 . S
C306 H347 0.930 . S
N307 C305 1.314 . S
N307 C306 1.279 . S
C308 C310 1.353 . S
C308 N311 1.314 . S
C308 H314 0.930 . S
C309 N311 1.279 1_565 S
C309 C312 1.358 . S
C309 H315 0.930 . S
C310 C308 1.353 . S
C310 C313 1.346 . S
C310 H348 0.929 . S
N311 Li266 1.991 . S
N311 C308 1.314 . S
N311 C309 1.279 1_545 S
C312 C309 1.358 . S
C312 C313 1.357 1_565 S
C312 H349 0.930 . S
C313 C310 1.346 . S
C313 C312 1.357 1_545 S
H314 C308 0.930 . S
H315 C309 0.930 . S
C316 N317 1.314 . S
C316 C318 1.353 . S
C316 H322 0.930 . S
N317 Li267 1.990 . S
N317 C316 1.314 . S
N317 C320 1.279 . S
C318 C316 1.353 . S
C318 C321 1.348 . S
C318 H350 0.929 . S
C319 C320 1.358 . S
C319 C321 1.356 . S
C319 H351 0.930 . S
C320 N317 1.279 . S
C320 C319 1.358 . S
C320 H323 0.930 . S
C321 C318 1.348 . S
C321 C319 1.356 . S
H322 C316 0.930 . S
H323 C320 0.930 . S
O324 Li264 1.956 . S
O324 Li265 1.965 1_545 S
O324 Li266 1.976 . S
O324 C268 1.325 . S
O325 Li264 1.981 . S
O325 Li265 1.956 1_545 S
O325 Li267 1.950 1_545 S
O325 C274 1.325 . S
O326 Li264 1.960 1_565 S
O326 Li266 1.956 1_565 S
O326 Li267 1.971 . S
O326 C296 1.325 1_565 S
O327 Li265 1.966 . S
O327 Li266 1.955 1_565 S
O327 Li267 1.956 . S
O327 C302 1.325 . S
H328 C270 0.929 . S
H329 C271 0.930 . S
H330 C272 0.930 . S
H331 C273 0.930 . S
H332 C275 0.930 . S
H333 C277 0.929 . S
H334 C278 0.930 . S
H335 C279 0.930 . S
H336 C282 0.930 . S
H337 C285 0.929 . S
H338 C290 0.929 . S
H339 C291 0.930 . S
H340 C298 0.929 . S
H341 C299 0.930 . S
H342 C300 0.930 . S
H343 C301 0.930 . S
H344 C303 0.929 . S
H345 C304 0.930 . S
H346 C305 0.930 . S
H347 C306 0.930 . S
H348 C310 0.929 . S
H349 C312 0.930 . S
H350 C318 0.929 . S
H351 C319 0.930 . S
Li352 N369 1.990 . S
Li352 O412 1.956 . S
Li352 O413 1.981 . S
Li352 O414 1.960 1_545 S
Li353 N377 1.990 . S
Li353 O412 1.965 1_565 S
Li353 O413 1.956 1_565 S
Li353 O415 1.966 . S
Li354 N399 1.991 . S
Li354 O412 1.976 . S
Li354 O414 1.956 1_545 S
Li354 O415 1.955 1_545 S
Li355 N405 1.990 . S
Li355 O413 1.950 1_565 S
Li355 O414 1.971 . S
Li355 O415 1.956 . S
C356 C358 1.348 . S
C356 C359 1.356 . S
C356 O412 1.325 . S
N357 C360 1.314 . S
N357 C361 1.279 . S
C358 C356 1.348 . S
C358 C360 1.353 . S
C358 H416 0.929 . S
C359 C356 1.356 . S
C359 C361 1.358 . S
C359 H417 0.930 . S
C360 N357 1.314 . S
C360 C358 1.353 . S
C360 H418 0.930 . S
C361 N357 1.279 . S
C361 C359 1.358 . S
C361 H419 0.930 . S
C362 C365 1.345 . S
C362 C366 1.359 1_545 S
C362 O413 1.325 . S
C363 N364 1.315 . S
C363 C366 1.358 . S
C363 H420 0.930 . S
N364 C363 1.315 . S
N364 C367 1.279 1_565 S
C365 C362 1.345 . S
C365 C367 1.353 . S
C365 H421 0.929 . S
C366 C362 1.359 1_565 S
C366 C363 1.358 . S
C366 H422 0.930 . S
C367 N364 1.279 1_545 S
C367 C365 1.353 . S
C367 H423 0.930 . S
C368 N369 1.314 . S
C368 C373 1.353 . S
C368 H374 0.930 . S
N369 Li352 1.990 . S
N369 C368 1.314 . S
N369 C371 1.279 . S
C370 C371 1.358 . S
C370 C372 1.356 . S
C370 H424 0.930 . S
C371 N369 1.279 . S
C371 C370 1.358 . S
C371 H375 0.930 . S
C372 C370 1.356 . S
C372 C373 1.348 . S
C373 C368 1.353 . S
C373 C372 1.348 . S
C373 H425 0.929 . S
H374 C368 0.930 . S
H375 C371 0.930 . S
C376 N377 1.314 . S
C376 C378 1.353 . S
C376 H382 0.930 . S
N377 Li353 1.990 . S
N377 C376 1.314 . S
N377 C380 1.279 1_565 S
C378 C376 1.353 . S
C378 C381 1.346 1_565 S
C378 H426 0.929 . S
C379 C380 1.358 . S
C379 C381 1.357 . S
C379 H427 0.930 . S
C380 N377 1.279 1_545 S
C380 C379 1.358 . S
C380 H383 0.930 . S
C381 C378 1.346 1_545 S
C381 C379 1.357 . S
H382 C376 0.930 . S
H383 C380 0.930 . S
C384 C386 1.345 1_545 S
C384 C387 1.359 . S
C384 O414 1.325 1_545 S
N385 C388 1.267 1_545 S
N385 C389 1.327 . S
C386 C384 1.345 1_565 S
C386 C388 1.353 . S
C386 H428 0.929 . S
C387 C384 1.359 . S
C387 C389 1.358 . S
C387 H429 0.930 . S
C388 N385 1.267 1_565 S
C388 C386 1.353 . S
C388 H430 0.930 . S
C389 N385 1.327 . S
C389 C387 1.358 . S
C389 H431 0.930 . S
C390 C391 1.348 . S
C390 C392 1.356 . S
C390 O415 1.325 . S
C391 C390 1.348 . S
C391 C393 1.353 . S
C391 H432 0.929 . S
C392 C390 1.356 . S
C392 C394 1.358 . S
C392 H433 0.930 . S
C393 C391 1.353 . S
C393 N395 1.314 . S
C393 H434 0.930 . S
C394 C392 1.358 . S
C394 N395 1.279 . S
C394 H435 0.930 . S
N395 C393 1.314 . S
N395 C394 1.279 . S
C396 C398 1.353 . S
C396 N399 1.314 . S
C396 H402 0.930 . S
C397 N399 1.279 1_565 S
C397 C400 1.358 . S
C397 H403 0.930 . S
C398 C396 1.353 . S
C398 C401 1.346 . S
C398 H436 0.929 . S
N399 Li354 1.991 . S
N399 C396 1.314 . S
N399 C397 1.279 1_545 S
C400 C397 1.358 . S
C400 C401 1.357 1_565 S
C400 H437 0.930 . S
C401 C398 1.346 . S
C401 C400 1.357 1_545 S
H402 C396 0.930 . S
H403 C397 0.930 . S
C404 N405 1.314 . S
C404 C406 1.353 . S
C404 H410 0.930 . S
N405 Li355 1.990 . S
N405 C404 1.314 . S
N405 C408 1.279 . S
C406 C404 1.353 . S
C406 C409 1.348 . S
C406 H438 0.929 . S
C407 C408 1.358 . S
C407 C409 1.356 . S
C407 H439 0.930 . S
C408 N405 1.279 . S
C408 C407 1.358 . S
C408 H411 0.930 . S
C409 C406 1.348 . S
C409 C407 1.356 . S
H410 C404 0.930 . S
H411 C408 0.930 . S
O412 Li352 1.956 . S
O412 Li353 1.965 1_545 S
O412 Li354 1.976 . S
O412 C356 1.325 . S
O413 Li352 1.981 . S
O413 Li353 1.956 1_545 S
O413 Li355 1.950 1_545 S
O413 C362 1.325 . S
O414 Li352 1.960 1_565 S
O414 Li354 1.956 1_565 S
O414 Li355 1.971 . S
O414 C384 1.325 1_565 S
O415 Li353 1.966 . S
O415 Li354 1.955 1_565 S
O415 Li355 1.956 . S
O415 C390 1.325 . S
H416 C358 0.929 . S
H417 C359 0.930 . S
H418 C360 0.930 . S
H419 C361 0.930 . S
H420 C363 0.930 . S
H421 C365 0.929 . S
H422 C366 0.930 . S
H423 C367 0.930 . S
H424 C370 0.930 . S
H425 C373 0.929 . S
H426 C378 0.929 . S
H427 C379 0.930 . S
H428 C386 0.929 . S
H429 C387 0.930 . S
H430 C388 0.930 . S
H431 C389 0.930 . S
H432 C391 0.929 . S
H433 C392 0.930 . S
H434 C393 0.930 . S
H435 C394 0.930 . S
H436 C398 0.929 . S
H437 C400 0.930 . S
H438 C406 0.929 . S
H439 C407 0.930 . S
Li440 N457 1.990 . S
Li440 O500 1.956 . S
Li440 O501 1.971 . S
Li440 O502 1.950 1_655 S
Li441 N465 1.991 . S
Li441 O500 1.955 1_455 S
Li441 O501 1.956 1_455 S
Li441 O503 1.976 . S
Li442 N487 1.990 . S
Li442 O500 1.966 . S
Li442 O502 1.956 1_655 S
Li442 O503 1.965 1_655 S
Li443 N493 1.990 . S
Li443 O501 1.960 1_455 S
Li443 O502 1.981 . S
Li443 O503 1.956 . S
C444 C446 1.348 . S
C444 C447 1.356 . S
C444 O500 1.325 . S
N445 C448 1.314 . S
N445 C449 1.279 . S
C446 C444 1.348 . S
C446 C448 1.353 . S
C446 H504 0.929 . S
C447 C444 1.356 . S
C447 C449 1.358 . S
C447 H505 0.930 . S
C448 N445 1.314 . S
C448 C446 1.353 . S
C448 H506 0.930 . S
C449 N445 1.279 . S
C449 C447 1.358 . S
C449 H507 0.930 . S
C450 C453 1.345 1_455 S
C450 C454 1.359 . S
C450 O501 1.325 1_455 S
C451 N452 1.326 . S
C451 C454 1.358 . S
C451 H508 0.930 . S
N452 C451 1.326 . S
N452 C455 1.267 1_455 S
C453 C450 1.345 1_655 S
C453 C455 1.353 . S
C453 H509 0.929 . S
C454 C450 1.359 . S
C454 C451 1.358 . S
C454 H510 0.930 . S
C455 N452 1.267 1_655 S
C455 C453 1.353 . S
C455 H511 0.930 . S
C456 N457 1.314 . S
C456 C461 1.353 . S
C456 H462 0.930 . S
N457 Li440 1.990 . S
N457 C456 1.314 . S
N457 C459 1.279 . S
C458 C459 1.358 . S
C458 C460 1.356 . S
C458 H512 0.930 . S
C459 N457 1.279 . S
C459 C458 1.358 . S
C459 H463 0.930 . S
C460 C458 1.356 . S
C460 C461 1.348 . S
C461 C456 1.353 . S
C461 C460 1.348 . S
C461 H513 0.929 . S
H462 C456 0.930 . S
H463 C459 0.930 . S
C464 N465 1.314 . S
C464 C466 1.353 . S
C464 H470 0.930 . S
N465 Li441 1.991 . S
N465 C464 1.314 . S
N465 C468 1.279 1_455 S
C466 C464 1.353 . S
C466 C469 1.346 . S
C466 H514 0.929 . S
C467 C468 1.358 . S
C467 C469 1.357 1_655 S
C467 H515 0.930 . S
C468 N465 1.279 1_655 S
C468 C467 1.358 . S
C468 H471 0.930 . S
C469 C466 1.346 . S
C469 C467 1.357 1_455 S
H470 C464 0.930 . S
H471 C468 0.930 . S
C472 C474 1.345 . S
C472 C475 1.359 1_455 S
C472 O502 1.325 . S
N473 C476 1.279 1_655 S
N473 C477 1.315 . S
C474 C472 1.345 . S
C474 C476 1.353 . S
C474 H516 0.929 . S
C475 C472 1.359 1_655 S
C475 C477 1.358 . S
C475 H517 0.930 . S
C476 N473 1.279 1_455 S
C476 C474 1.353 . S
C476 H518 0.930 . S
C477 N473 1.315 . S
C477 C475 1.358 . S
C477 H519 0.930 . S
C478 C479 1.348 . S
C478 C480 1.356 . S
C478 O503 1.325 . S
C479 C478 1.348 . S
C479 C481 1.353 . S
C479 H520 0.929 . S
C480 C478 1.356 . S
C480 C482 1.358 . S
C480 H521 0.930 . S
C481 C479 1.353 . S
C481 N483 1.314 . S
C481 H522 0.930 . S
C482 C480 1.358 . S
C482 N483 1.279 . S
C482 H523 0.930 . S
N483 C481 1.314 . S
N483 C482 1.279 . S
C484 C486 1.353 . S
C484 N487 1.314 . S
C484 H490 0.930 . S
C485 N487 1.279 1_455 S
C485 C488 1.358 . S
C485 H491 0.930 . S
C486 C484 1.353 . S
C486 C489 1.346 1_655 S
C486 H524 0.929 . S
N487 Li442 1.990 . S
N487 C484 1.314 . S
N487 C485 1.279 1_655 S
C488 C485 1.358 . S
C488 C489 1.357 . S
C488 H525 0.930 . S
C489 C486 1.346 1_455 S
C489 C488 1.357 . S
H490 C484 0.930 . S
H491 C485 0.930 . S
C492 N493 1.314 . S
C492 C494 1.353 . S
C492 H498 0.930 . S
N493 Li443 1.990 . S
N493 C492 1.314 . S
N493 C496 1.279 . S
C494 C492 1.353 . S
C494 C497 1.348 . S
C494 H526 0.929 . S
C495 C496 1.358 . S
C495 C497 1.356 . S
C495 H527 0.930 . S
C496 N493 1.279 . S
C496 C495 1.358 . S
C496 H499 0.930 . S
C497 C494 1.348 . S
C497 C495 1.356 . S
H498 C492 0.930 . S
H499 C496 0.930 . S
O500 Li440 1.956 . S
O500 Li441 1.955 1_655 S
O500 Li442 1.966 . S
O500 C444 1.325 . S
O501 Li440 1.971 . S
O501 Li441 1.956 1_655 S
O501 Li443 1.960 1_655 S
O501 C450 1.325 1_655 S
O502 Li440 1.950 1_455 S
O502 Li442 1.956 1_455 S
O502 Li443 1.981 . S
O502 C472 1.325 . S
O503 Li441 1.976 . S
O503 Li442 1.965 1_455 S
O503 Li443 1.956 . S
O503 C478 1.325 . S
H504 C446 0.929 . S
H505 C447 0.930 . S
H506 C448 0.930 . S
H507 C449 0.930 . S
H508 C451 0.930 . S
H509 C453 0.929 . S
H510 C454 0.930 . S
H511 C455 0.930 . S
H512 C458 0.930 . S
H513 C461 0.929 . S
H514 C466 0.929 . S
H515 C467 0.930 . S
H516 C474 0.929 . S
H517 C475 0.930 . S
H518 C476 0.930 . S
H519 C477 0.930 . S
H520 C479 0.929 . S
H521 C480 0.930 . S
H522 C481 0.930 . S
H523 C482 0.930 . S
H524 C486 0.929 . S
H525 C488 0.930 . S
H526 C494 0.929 . S
H527 C495 0.930 . S
Li528 N545 1.991 . S
Li528 O588 1.956 1_545 S
Li528 O589 1.955 1_545 S
Li528 O590 1.976 . S
Li529 N553 1.990 . S
Li529 O588 1.971 . S
Li529 O589 1.956 . S
Li529 O591 1.950 1_565 S
Li530 N575 1.990 . S
Li530 O588 1.960 1_545 S
Li530 O590 1.956 . S
Li530 O591 1.981 . S
Li531 N581 1.990 . S
Li531 O589 1.966 . S
Li531 O590 1.965 1_565 S
Li531 O591 1.956 1_565 S
C532 C534 1.345 1_545 S
C532 C535 1.359 . S
C532 O588 1.325 1_545 S
N533 C536 1.267 1_545 S
N533 C537 1.326 . S
C534 C532 1.345 1_565 S
C534 C536 1.353 . S
C534 H592 0.929 . S
C535 C532 1.359 . S
C535 C537 1.358 . S
C535 H593 0.930 . S
C536 N533 1.267 1_565 S
C536 C534 1.353 . S
C536 H594 0.930 . S
C537 N533 1.326 . S
C537 C535 1.358 . S
C537 H595 0.930 . S
C538 C541 1.348 . S
C538 C542 1.356 . S
C538 O589 1.325 . S
C539 N540 1.279 . S
C539 C542 1.358 . S
C539 H596 0.930 . S
N540 C539 1.279 . S
N540 C543 1.314 . S
C541 C538 1.348 . S
C541 C543 1.353 . S
C541 H597 0.929 . S
C542 C538 1.356 . S
C542 C539 1.358 . S
C542 H598 0.930 . S
C543 N540 1.314 . S
C543 C541 1.353 . S
C543 H599 0.930 . S
C544 N545 1.314 . S
C544 C549 1.353 . S
C544 H550 0.930 . S
N545 Li528 1.991 . S
N545 C544 1.314 . S
N545 C547 1.279 1_545 S
C546 C547 1.358 . S
C546 C548 1.357 1_565 S
C546 H600 0.930 . S
C547 N545 1.279 1_565 S
C547 C546 1.358 . S
C547 H551 0.930 . S
C548 C546 1.357 1_545 S
C548 C549 1.346 . S
C549 C544 1.353 . S
C549 C548 1.346 . S
C549 H601 0.929 . S
H550 C544 0.930 . S
H551 C547 0.930 . S
C552 N553 1.314 . S
C552 C554 1.353 . S
C552 H558 0.930 . S
N553 Li529 1.990 . S
N553 C552 1.314 . S
N553 C556 1.279 . S
C554 C552 1.353 . S
C554 C557 1.348 . S
C554 H602 0.929 . S
C555 C556 1.358 . S
C555 C557 1.356 . S
C555 H603 0.930 . S
C556 N553 1.279 . S
C556 C555 1.358 . S
C556 H559 0.930 . S
C557 C554 1.348 . S
C557 C555 1.356 . S
H558 C552 0.930 . S
H559 C556 0.930 . S
C560 C562 1.348 . S
C560 C563 1.356 . S
C560 O590 1.325 . S
N561 C564 1.314 . S
N561 C565 1.279 . S
C562 C560 1.348 . S
C562 C564 1.353 . S
C562 H604 0.929 . S
C563 C560 1.356 . S
C563 C565 1.358 . S
C563 H605 0.930 . S
C564 N561 1.314 . S
C564 C562 1.353 . S
C564 H606 0.930 . S
C565 N561 1.279 . S
C565 C563 1.358 . S
C565 H607 0.930 . S
C566 C567 1.345 . S
C566 C568 1.359 1_545 S
C566 O591 1.325 . S
C567 C566 1.345 . S
C567 C569 1.353 . S
C567 H608 0.929 . S
C568 C566 1.359 1_565 S
C568 C570 1.358 . S
C568 H609 0.930 . S
C569 C567 1.353 . S
C569 N571 1.279 1_545 S
C569 H610 0.930 . S
C570 C568 1.358 . S
C570 N571 1.315 . S
C570 H611 0.930 . S
N571 C569 1.279 1_565 S
N571 C570 1.315 . S
C572 C574 1.353 . S
C572 N575 1.314 . S
C572 H578 0.930 . S
C573 N575 1.279 . S
C573 C576 1.358 . S
C573 H579 0.930 . S
C574 C572 1.353 . S
C574 C577 1.348 . S
C574 H612 0.929 . S
N575 Li530 1.990 . S
N575 C572 1.314 . S
N575 C573 1.279 . S
C576 C573 1.358 . S
C576 C577 1.356 . S
C576 H613 0.930 . S
C577 C574 1.348 . S
C577 C576 1.356 . S
H578 C572 0.930 . S
H579 C573 0.930 . S
C580 N581 1.314 . S
C580 C582 1.353 . S
C580 H586 0.930 . S
N581 Li531 1.990 . S
N581 C580 1.314 . S
N581 C584 1.279 1_565 S
C582 C580 1.353 . S
C582 C585 1.346 1_565 S
C582 H614 0.929 . S
C583 C584 1.358 . S
C583 C585 1.357 . S
C583 H615 0.930 . S
C584 N581 1.279 1_545 S
C584 C583 1.358 . S
C584 H587 0.930 . S
C585 C582 1.346 1_545 S
C585 C583 1.357 . S
H586 C580 0.930 . S
H587 C584 0.930 . S
O588 Li528 1.956 1_565 S
O588 Li529 1.971 . S
O588 Li530 1.960 1_565 S
O588 C532 1.325 1_565 S
O589 Li528 1.955 1_565 S
O589 Li529 1.956 . S
O589 Li531 1.966 . S
O589 C538 1.325 . S
O590 Li528 1.976 . S
O590 Li530 1.956 . S
O590 Li531 1.965 1_545 S
O590 C560 1.325 . S
O591 Li529 1.950 1_545 S
O591 Li530 1.981 . S
O591 Li531 1.956 1_545 S
O591 C566 1.325 . S
H592 C534 0.929 . S
H593 C535 0.930 . S
H594 C536 0.930 . S
H595 C537 0.930 . S
H596 C539 0.930 . S
H597 C541 0.929 . S
H598 C542 0.930 . S
H599 C543 0.930 . S
H600 C546 0.930 . S
H601 C549 0.929 . S
H602 C554 0.929 . S
H603 C555 0.930 . S
H604 C562 0.929 . S
H605 C563 0.930 . S
H606 C564 0.930 . S
H607 C565 0.930 . S
H608 C567 0.929 . S
H609 C568 0.930 . S
H610 C569 0.930 . S
H611 C570 0.930 . S
H612 C574 0.929 . S
H613 C576 0.930 . S
H614 C582 0.929 . S
H615 C583 0.930 . S
Li616 N633 1.991 . S
Li616 O676 1.956 1_455 S
Li616 O677 1.955 1_455 S
Li616 O678 1.976 . S
Li617 N641 1.990 . S
Li617 O676 1.971 . S
Li617 O677 1.956 . S
Li617 O679 1.950 1_655 S
Li618 N663 1.990 . S
Li618 O676 1.960 1_455 S
Li618 O678 1.956 . S
Li618 O679 1.981 . S
Li619 N669 1.990 . S
Li619 O677 1.966 . S
Li619 O678 1.965 1_655 S
Li619 O679 1.956 1_655 S
C620 C622 1.345 1_455 S
C620 C623 1.359 . S
C620 O676 1.325 1_455 S
N621 C624 1.267 1_455 S
N621 C625 1.327 . S
C622 C620 1.345 1_655 S
C622 C624 1.353 . S
C622 H680 0.929 . S
C623 C620 1.359 . S
C623 C625 1.358 . S
C623 H681 0.930 . S
C624 N621 1.267 1_655 S
C624 C622 1.353 . S
C624 H682 0.930 . S
C625 N621 1.327 . S
C625 C623 1.358 . S
C625 H683 0.930 . S
C626 C629 1.348 . S
C626 C630 1.356 . S
C626 O677 1.325 . S
C627 N628 1.279 . S
C627 C630 1.358 . S
C627 H684 0.930 . S
N628 C627 1.279 . S
N628 C631 1.314 . S
C629 C626 1.348 . S
C629 C631 1.353 . S
C629 H685 0.929 . S
C630 C626 1.356 . S
C630 C627 1.358 . S
C630 H686 0.930 . S
C631 N628 1.314 . S
C631 C629 1.353 . S
C631 H687 0.930 . S
C632 N633 1.314 . S
C632 C637 1.353 . S
C632 H638 0.930 . S
N633 Li616 1.991 . S
N633 C632 1.314 . S
N633 C635 1.279 1_455 S
C634 C635 1.358 . S
C634 C636 1.357 1_655 S
C634 H688 0.930 . S
C635 N633 1.279 1_655 S
C635 C634 1.358 . S
C635 H639 0.930 . S
C636 C634 1.357 1_455 S
C636 C637 1.346 . S
C637 C632 1.353 . S
C637 C636 1.346 . S
C637 H689 0.929 . S
H638 C632 0.930 . S
H639 C635 0.930 . S
C640 N641 1.314 . S
C640 C642 1.353 . S
C640 H646 0.930 . S
N641 Li617 1.990 . S
N641 C640 1.314 . S
N641 C644 1.279 . S
C642 C640 1.353 . S
C642 C645 1.348 . S
C642 H690 0.929 . S
C643 C644 1.358 . S
C643 C645 1.356 . S
C643 H691 0.930 . S
C644 N641 1.279 . S
C644 C643 1.358 . S
C644 H647 0.930 . S
C645 C642 1.348 . S
C645 C643 1.356 . S
H646 C640 0.930 . S
H647 C644 0.930 . S
C648 C650 1.348 . S
C648 C651 1.356 . S
C648 O678 1.325 . S
N649 C652 1.314 . S
N649 C653 1.279 . S
C650 C648 1.348 . S
C650 C652 1.353 . S
C650 H692 0.929 . S
C651 C648 1.356 . S
C651 C653 1.358 . S
C651 H693 0.930 . S
C652 N649 1.314 . S
C652 C650 1.353 . S
C652 H694 0.930 . S
C653 N649 1.279 . S
C653 C651 1.358 . S
C653 H695 0.930 . S
C654 C655 1.345 . S
C654 C656 1.359 1_455 S
C654 O679 1.325 . S
C655 C654 1.345 . S
C655 C657 1.353 . S
C655 H696 0.929 . S
C656 C654 1.359 1_655 S
C656 C658 1.358 . S
C656 H697 0.930 . S
C657 C655 1.353 . S
C657 N659 1.279 1_455 S
C657 H698 0.930 . S
C658 C656 1.358 . S
C658 N659 1.315 . S
C658 H699 0.930 . S
N659 C657 1.279 1_655 S
N659 C658 1.315 . S
C660 C662 1.353 . S
C660 N663 1.314 . S
C660 H666 0.930 . S
C661 N663 1.279 . S
C661 C664 1.358 . S
C661 H667 0.930 . S
C662 C660 1.353 . S
C662 C665 1.348 . S
C662 H700 0.929 . S
N663 Li618 1.990 . S
N663 C660 1.314 . S
N663 C661 1.279 . S
C664 C661 1.358 . S
C664 C665 1.356 . S
C664 H701 0.930 . S
C665 C662 1.348 . S
C665 C664 1.356 . S
H666 C660 0.930 . S
H667 C661 0.930 . S
C668 N669 1.314 . S
C668 C670 1.353 . S
C668 H674 0.930 . S
N669 Li619 1.990 . S
N669 C668 1.314 . S
N669 C672 1.279 1_655 S
C670 C668 1.353 . S
C670 C673 1.346 1_655 S
C670 H702 0.929 . S
C671 C672 1.358 . S
C671 C673 1.357 . S
C671 H703 0.930 . S
C672 N669 1.279 1_455 S
C672 C671 1.358 . S
C672 H675 0.930 . S
C673 C670 1.346 1_455 S
C673 C671 1.357 . S
H674 C668 0.930 . S
H675 C672 0.930 . S
O676 Li616 1.956 1_655 S
O676 Li617 1.971 . S
O676 Li618 1.960 1_655 S
O676 C620 1.325 1_655 S
O677 Li616 1.955 1_655 S
O677 Li617 1.956 . S
O677 Li619 1.966 . S
O677 C626 1.325 . S
O678 Li616 1.976 . S
O678 Li618 1.956 . S
O678 Li619 1.965 1_455 S
O678 C648 1.325 . S
O679 Li617 1.950 1_455 S
O679 Li618 1.981 . S
O679 Li619 1.956 1_455 S
O679 C654 1.325 . S
H680 C622 0.929 . S
H681 C623 0.930 . S
H682 C624 0.930 . S
H683 C625 0.930 . S
H684 C627 0.930 . S
H685 C629 0.929 . S
H686 C630 0.930 . S
H687 C631 0.930 . S
H688 C634 0.930 . S
H689 C637 0.929 . S
H690 C642 0.929 . S
H691 C643 0.930 . S
H692 C650 0.929 . S
H693 C651 0.930 . S
H694 C652 0.930 . S
H695 C653 0.930 . S
H696 C655 0.929 . S
H697 C656 0.930 . S
H698 C657 0.930 . S
H699 C658 0.930 . S
H700 C662 0.929 . S
H701 C664 0.930 . S
H702 C670 0.929 . S
H703 C671 0.930 . S
Li704 N721 1.990 . S
Li704 O764 1.956 . S
Li704 O765 1.981 . S
Li704 O766 1.960 1_554 S
Li705 N729 1.990 . S
Li705 O764 1.965 1_556 S
Li705 O765 1.956 1_556 S
Li705 O767 1.966 . S
Li706 N751 1.991 . S
Li706 O764 1.976 . S
Li706 O766 1.956 1_554 S
Li706 O767 1.955 1_554 S
Li707 N757 1.990 . S
Li707 O765 1.950 1_556 S
Li707 O766 1.971 . S
Li707 O767 1.956 . S
C708 C710 1.348 . S
C708 C711 1.356 . S
C708 O764 1.325 . S
N709 C712 1.314 . S
N709 C713 1.279 . S
C710 C708 1.348 . S
C710 C712 1.353 . S
C710 H768 0.929 . S
C711 C708 1.356 . S
C711 C713 1.358 . S
C711 H769 0.930 . S
C712 N709 1.314 . S
C712 C710 1.353 . S
C712 H770 0.930 . S
C713 N709 1.279 . S
C713 C711 1.358 . S
C713 H771 0.930 . S
C714 C717 1.345 . S
C714 C718 1.359 1_554 S
C714 O765 1.325 . S
C715 N716 1.315 . S
C715 C718 1.358 . S
C715 H772 0.930 . S
N716 C715 1.315 . S
N716 C719 1.279 1_556 S
C717 C714 1.345 . S
C717 C719 1.353 . S
C717 H773 0.929 . S
C718 C714 1.359 1_556 S
C718 C715 1.358 . S
C718 H774 0.930 . S
C719 N716 1.279 1_554 S
C719 C717 1.353 . S
C719 H775 0.930 . S
C720 N721 1.314 . S
C720 C725 1.353 . S
C720 H726 0.930 . S
N721 Li704 1.990 . S
N721 C720 1.314 . S
N721 C723 1.279 . S
C722 C723 1.358 . S
C722 C724 1.356 . S
C722 H776 0.930 . S
C723 N721 1.279 . S
C723 C722 1.358 . S
C723 H727 0.930 . S
C724 C722 1.356 . S
C724 C725 1.348 . S
C725 C720 1.353 . S
C725 C724 1.348 . S
C725 H777 0.929 . S
H726 C720 0.930 . S
H727 C723 0.930 . S
C728 N729 1.314 . S
C728 C730 1.353 . S
C728 H734 0.930 . S
N729 Li705 1.990 . S
N729 C728 1.314 . S
N729 C732 1.279 1_556 S
C730 C728 1.353 . S
C730 C733 1.346 1_556 S
C730 H778 0.929 . S
C731 C732 1.358 . S
C731 C733 1.357 . S
C731 H779 0.930 . S
C732 N729 1.279 1_554 S
C732 C731 1.358 . S
C732 H735 0.930 . S
C733 C730 1.346 1_554 S
C733 C731 1.357 . S
H734 C728 0.930 . S
H735 C732 0.930 . S
C736 C738 1.345 1_554 S
C736 C739 1.359 . S
C736 O766 1.325 1_554 S
N737 C740 1.267 1_554 S
N737 C741 1.327 . S
C738 C736 1.345 1_556 S
C738 C740 1.353 . S
C738 H780 0.929 . S
C739 C736 1.359 . S
C739 C741 1.358 . S
C739 H781 0.930 . S
C740 N737 1.267 1_556 S
C740 C738 1.353 . S
C740 H782 0.930 . S
C741 N737 1.327 . S
C741 C739 1.358 . S
C741 H783 0.930 . S
C742 C743 1.348 . S
C742 C744 1.356 . S
C742 O767 1.325 . S
C743 C742 1.348 . S
C743 C745 1.353 . S
C743 H784 0.929 . S
C744 C742 1.356 . S
C744 C746 1.358 . S
C744 H785 0.930 . S
C745 C743 1.353 . S
C745 N747 1.314 . S
C745 H786 0.930 . S
C746 C744 1.358 . S
C746 N747 1.279 . S
C746 H787 0.930 . S
N747 C745 1.314 . S
N747 C746 1.279 . S
C748 C750 1.353 . S
C748 N751 1.314 . S
C748 H754 0.930 . S
C749 N751 1.279 1_556 S
C749 C752 1.358 . S
C749 H755 0.930 . S
C750 C748 1.353 . S
C750 C753 1.346 . S
C750 H788 0.929 . S
N751 Li706 1.991 . S
N751 C748 1.314 . S
N751 C749 1.279 1_554 S
C752 C749 1.358 . S
C752 C753 1.357 1_556 S
C752 H789 0.930 . S
C753 C750 1.346 . S
C753 C752 1.357 1_554 S
H754 C748 0.930 . S
H755 C749 0.930 . S
C756 N757 1.314 . S
C756 C758 1.353 . S
C756 H762 0.930 . S
N757 Li707 1.990 . S
N757 C756 1.314 . S
N757 C760 1.279 . S
C758 C756 1.353 . S
C758 C761 1.348 . S
C758 H790 0.929 . S
C759 C760 1.358 . S
C759 C761 1.356 . S
C759 H791 0.930 . S
C760 N757 1.279 . S
C760 C759 1.358 . S
C760 H763 0.930 . S
C761 C758 1.348 . S
C761 C759 1.356 . S
H762 C756 0.930 . S
H763 C760 0.930 . S
O764 Li704 1.956 . S
O764 Li705 1.965 1_554 S
O764 Li706 1.976 . S
O764 C708 1.325 . S
O765 Li704 1.981 . S
O765 Li705 1.956 1_554 S
O765 Li707 1.950 1_554 S
O765 C714 1.325 . S
O766 Li704 1.960 1_556 S
O766 Li706 1.956 1_556 S
O766 Li707 1.971 . S
O766 C736 1.325 1_556 S
O767 Li705 1.966 . S
O767 Li706 1.955 1_556 S
O767 Li707 1.956 . S
O767 C742 1.325 . S
H768 C710 0.929 . S
H769 C711 0.930 . S
H770 C712 0.930 . S
H771 C713 0.930 . S
H772 C715 0.930 . S
H773 C717 0.929 . S
H774 C718 0.930 . S
H775 C719 0.930 . S
H776 C722 0.930 . S
H777 C725 0.929 . S
H778 C730 0.929 . S
H779 C731 0.930 . S
H780 C738 0.929 . S
H781 C739 0.930 . S
H782 C740 0.930 . S
H783 C741 0.930 . S
H784 C743 0.929 . S
H785 C744 0.930 . S
H786 C745 0.930 . S
H787 C746 0.930 . S
H788 C750 0.929 . S
H789 C752 0.930 . S
H790 C758 0.929 . S
H791 C759 0.930 . S
Li792 N809 1.990 . S
Li792 O852 1.956 1_556 S
Li792 O853 1.965 1_556 S
Li792 O854 1.966 . S
Li793 N817 1.990 . S
Li793 O852 1.981 . S
Li793 O853 1.956 . S
Li793 O855 1.960 1_554 S
Li794 N839 1.990 . S
Li794 O852 1.950 1_556 S
Li794 O854 1.956 . S
Li794 O855 1.971 . S
Li795 N845 1.991 . S
Li795 O853 1.976 . S
Li795 O854 1.955 1_554 S
Li795 O855 1.956 1_554 S
C796 C798 1.345 . S
C796 C799 1.359 1_554 S
C796 O852 1.325 . S
N797 C800 1.279 1_556 S
N797 C801 1.315 . S
C798 C796 1.345 . S
C798 C800 1.353 . S
C798 H856 0.929 . S
C799 C796 1.359 1_556 S
C799 C801 1.358 . S
C799 H857 0.930 . S
C800 N797 1.279 1_554 S
C800 C798 1.353 . S
C800 H858 0.930 . S
C801 N797 1.315 . S
C801 C799 1.358 . S
C801 H859 0.930 . S
C802 C805 1.348 . S
C802 C806 1.356 . S
C802 O853 1.325 . S
C803 N804 1.279 . S
C803 C806 1.358 . S
C803 H860 0.930 . S
N804 C803 1.279 . S
N804 C807 1.314 . S
C805 C802 1.348 . S
C805 C807 1.353 . S
C805 H861 0.929 . S
C806 C802 1.356 . S
C806 C803 1.358 . S
C806 H862 0.930 . S
C807 N804 1.314 . S
C807 C805 1.353 . S
C807 H863 0.930 . S
C808 N809 1.314 . S
C808 C813 1.353 . S
C808 H814 0.930 . S
N809 Li792 1.990 . S
N809 C808 1.314 . S
N809 C811 1.279 1_556 S
C810 C811 1.358 . S
C810 C812 1.357 . S
C810 H864 0.930 . S
C811 N809 1.279 1_554 S
C811 C810 1.358 . S
C811 H815 0.930 . S
C812 C810 1.357 . S
C812 C813 1.346 1_554 S
C813 C808 1.353 . S
C813 C812 1.346 1_556 S
C813 H865 0.929 . S
H814 C808 0.930 . S
H815 C811 0.930 . S
C816 N817 1.314 . S
C816 C818 1.353 . S
C816 H822 0.930 . S
N817 Li793 1.990 . S
N817 C816 1.314 . S
N817 C820 1.279 . S
C818 C816 1.353 . S
C818 C821 1.348 . S
C818 H866 0.929 . S
C819 C820 1.358 . S
C819 C821 1.356 . S
C819 H867 0.930 . S
C820 N817 1.279 . S
C820 C819 1.358 . S
C820 H823 0.930 . S
C821 C818 1.348 . S
C821 C819 1.356 . S
H822 C816 0.930 . S
H823 C820 0.930 . S
C824 C826 1.348 . S
C824 C827 1.356 . S
C824 O854 1.325 . S
N825 C828 1.314 . S
N825 C829 1.279 . S
C826 C824 1.348 . S
C826 C828 1.353 . S
C826 H868 0.929 . S
C827 C824 1.356 . S
C827 C829 1.358 . S
C827 H869 0.930 . S
C828 N825 1.314 . S
C828 C826 1.353 . S
C828 H870 0.930 . S
C829 N825 1.279 . S
C829 C827 1.358 . S
C829 H871 0.930 . S
C830 C831 1.345 1_554 S
C830 C832 1.359 . S
C830 O855 1.325 1_554 S
C831 C830 1.345 1_556 S
C831 C833 1.353 . S
C831 H872 0.929 . S
C832 C830 1.359 . S
C832 C834 1.358 . S
C832 H873 0.930 . S
C833 C831 1.353 . S
C833 N835 1.267 1_556 S
C833 H874 0.930 . S
C834 C832 1.358 . S
C834 N835 1.327 . S
C834 H875 0.930 . S
N835 C833 1.267 1_554 S
N835 C834 1.327 . S
C836 C838 1.353 . S
C836 N839 1.314 . S
C836 H842 0.930 . S
C837 N839 1.279 . S
C837 C840 1.358 . S
C837 H843 0.930 . S
C838 C836 1.353 . S
C838 C841 1.348 . S
C838 H876 0.929 . S
N839 Li794 1.990 . S
N839 C836 1.314 . S
N839 C837 1.279 . S
C840 C837 1.358 . S
C840 C841 1.356 . S
C840 H877 0.930 . S
C841 C838 1.348 . S
C841 C840 1.356 . S
H842 C836 0.930 . S
H843 C837 0.930 . S
C844 N845 1.314 . S
C844 C846 1.353 . S
C844 H850 0.930 . S
N845 Li795 1.991 . S
N845 C844 1.314 . S
N845 C848 1.279 1_554 S
C846 C844 1.353 . S
C846 C849 1.346 . S
C846 H878 0.929 . S
C847 C848 1.358 . S
C847 C849 1.357 1_556 S
C847 H879 0.930 . S
C848 N845 1.279 1_556 S
C848 C847 1.358 . S
C848 H851 0.930 . S
C849 C846 1.346 . S
C849 C847 1.357 1_554 S
H850 C844 0.930 . S
H851 C848 0.930 . S
O852 Li792 1.956 1_554 S
O852 Li793 1.981 . S
O852 Li794 1.950 1_554 S
O852 C796 1.325 . S
O853 Li792 1.965 1_554 S
O853 Li793 1.956 . S
O853 Li795 1.976 . S
O853 C802 1.325 . S
O854 Li792 1.966 . S
O854 Li794 1.956 . S
O854 Li795 1.955 1_556 S
O854 C824 1.325 . S
O855 Li793 1.960 1_556 S
O855 Li794 1.971 . S
O855 Li795 1.956 1_556 S
O855 C830 1.325 1_556 S
H856 C798 0.929 . S
H857 C799 0.930 . S
H858 C800 0.930 . S
H859 C801 0.930 . S
H860 C803 0.930 . S
H861 C805 0.929 . S
H862 C806 0.930 . S
H863 C807 0.930 . S
H864 C810 0.930 . S
H865 C813 0.929 . S
H866 C818 0.929 . S
H867 C819 0.930 . S
H868 C826 0.929 . S
H869 C827 0.930 . S
H870 C828 0.930 . S
H871 C829 0.930 . S
H872 C831 0.929 . S
H873 C832 0.930 . S
H874 C833 0.930 . S
H875 C834 0.930 . S
H876 C838 0.929 . S
H877 C840 0.930 . S
H878 C846 0.929 . S
H879 C847 0.930 . S
Li880 N897 1.990 . S
Li880 O940 1.956 1_556 S
Li880 O941 1.965 1_556 S
Li880 O942 1.966 . S
Li881 N905 1.990 . S
Li881 O940 1.981 . S
Li881 O941 1.956 . S
Li881 O943 1.960 1_554 S
Li882 N927 1.990 . S
Li882 O940 1.950 1_556 S
Li882 O942 1.956 . S
Li882 O943 1.971 . S
Li883 N933 1.991 . S
Li883 O941 1.976 . S
Li883 O942 1.955 1_554 S
Li883 O943 1.956 1_554 S
C884 C886 1.345 . S
C884 C887 1.359 1_554 S
C884 O940 1.325 . S
N885 C888 1.279 1_556 S
N885 C889 1.315 . S
C886 C884 1.345 . S
C886 C888 1.353 . S
C886 H944 0.929 . S
C887 C884 1.359 1_556 S
C887 C889 1.358 . S
C887 H945 0.930 . S
C888 N885 1.279 1_554 S
C888 C886 1.353 . S
C888 H946 0.930 . S
C889 N885 1.315 . S
C889 C887 1.358 . S
C889 H947 0.930 . S
C890 C893 1.348 . S
C890 C894 1.356 . S
C890 O941 1.325 . S
C891 N892 1.279 . S
C891 C894 1.358 . S
C891 H948 0.930 . S
N892 C891 1.279 . S
N892 C895 1.314 . S
C893 C890 1.348 . S
C893 C895 1.353 . S
C893 H949 0.929 . S
C894 C890 1.356 . S
C894 C891 1.358 . S
C894 H950 0.930 . S
C895 N892 1.314 . S
C895 C893 1.353 . S
C895 H951 0.930 . S
C896 N897 1.314 . S
C896 C901 1.353 . S
C896 H902 0.930 . S
N897 Li880 1.990 . S
N897 C896 1.314 . S
N897 C899 1.279 1_556 S
C898 C899 1.358 . S
C898 C900 1.357 . S
C898 H952 0.930 . S
C899 N897 1.279 1_554 S
C899 C898 1.358 . S
C899 H903 0.930 . S
C900 C898 1.357 . S
C900 C901 1.346 1_554 S
C901 C896 1.353 . S
C901 C900 1.346 1_556 S
C901 H953 0.929 . S
H902 C896 0.930 . S
H903 C899 0.930 . S
C904 N905 1.314 . S
C904 C906 1.353 . S
C904 H910 0.930 . S
N905 Li881 1.990 . S
N905 C904 1.314 . S
N905 C908 1.279 . S
C906 C904 1.353 . S
C906 C909 1.348 . S
C906 H954 0.929 . S
C907 C908 1.358 . S
C907 C909 1.356 . S
C907 H955 0.930 . S
C908 N905 1.279 . S
C908 C907 1.358 . S
C908 H911 0.930 . S
C909 C906 1.348 . S
C909 C907 1.356 . S
H910 C904 0.930 . S
H911 C908 0.930 . S
C912 C914 1.348 . S
C912 C915 1.356 . S
C912 O942 1.325 . S
N913 C916 1.314 . S
N913 C917 1.279 . S
C914 C912 1.348 . S
C914 C916 1.353 . S
C914 H956 0.929 . S
C915 C912 1.356 . S
C915 C917 1.358 . S
C915 H957 0.930 . S
C916 N913 1.314 . S
C916 C914 1.353 . S
C916 H958 0.930 . S
C917 N913 1.279 . S
C917 C915 1.358 . S
C917 H959 0.930 . S
C918 C919 1.345 1_554 S
C918 C920 1.359 . S
C918 O943 1.325 1_554 S
C919 C918 1.345 1_556 S
C919 C921 1.353 . S
C919 H960 0.929 . S
C920 C918 1.359 . S
C920 C922 1.358 . S
C920 H961 0.930 . S
C921 C919 1.353 . S
C921 N923 1.267 1_556 S
C921 H962 0.930 . S
C922 C920 1.358 . S
C922 N923 1.327 . S
C922 H963 0.930 . S
N923 C921 1.267 1_554 S
N923 C922 1.327 . S
C924 C926 1.353 . S
C924 N927 1.314 . S
C924 H930 0.930 . S
C925 N927 1.279 . S
C925 C928 1.358 . S
C925 H931 0.930 . S
C926 C924 1.353 . S
C926 C929 1.348 . S
C926 H964 0.929 . S
N927 Li882 1.990 . S
N927 C924 1.314 . S
N927 C925 1.279 . S
C928 C925 1.358 . S
C928 C929 1.356 . S
C928 H965 0.930 . S
C929 C926 1.348 . S
C929 C928 1.356 . S
H930 C924 0.930 . S
H931 C925 0.930 . S
C932 N933 1.314 . S
C932 C934 1.353 . S
C932 H938 0.930 . S
N933 Li883 1.991 . S
N933 C932 1.314 . S
N933 C936 1.279 1_554 S
C934 C932 1.353 . S
C934 C937 1.346 . S
C934 H966 0.929 . S
C935 C936 1.358 . S
C935 C937 1.357 1_556 S
C935 H967 0.930 . S
C936 N933 1.279 1_556 S
C936 C935 1.358 . S
C936 H939 0.930 . S
C937 C934 1.346 . S
C937 C935 1.357 1_554 S
H938 C932 0.930 . S
H939 C936 0.930 . S
O940 Li880 1.956 1_554 S
O940 Li881 1.981 . S
O940 Li882 1.950 1_554 S
O940 C884 1.325 . S
O941 Li880 1.965 1_554 S
O941 Li881 1.956 . S
O941 Li883 1.976 . S
O941 C890 1.325 . S
O942 Li880 1.966 . S
O942 Li882 1.956 . S
O942 Li883 1.955 1_556 S
O942 C912 1.325 . S
O943 Li881 1.960 1_556 S
O943 Li882 1.971 . S
O943 Li883 1.956 1_556 S
O943 C918 1.325 1_556 S
H944 C886 0.929 . S
H945 C887 0.930 . S
H946 C888 0.930 . S
H947 C889 0.930 . S
H948 C891 0.930 . S
H949 C893 0.929 . S
H950 C894 0.930 . S
H951 C895 0.930 . S
H952 C898 0.930 . S
H953 C901 0.929 . S
H954 C906 0.929 . S
H955 C907 0.930 . S
H956 C914 0.929 . S
H957 C915 0.930 . S
H958 C916 0.930 . S
H959 C917 0.930 . S
H960 C919 0.929 . S
H961 C920 0.930 . S
H962 C921 0.930 . S
H963 C922 0.930 . S
H964 C926 0.929 . S
H965 C928 0.930 . S
H966 C934 0.929 . S
H967 C935 0.930 . S
Li968 N985 1.990 . S
Li968 O1028 1.956 . S
Li968 O1029 1.981 . S
Li968 O1030 1.960 1_554 S
Li969 N993 1.990 . S
Li969 O1028 1.965 1_556 S
Li969 O1029 1.956 1_556 S
Li969 O1031 1.966 . S
Li970 N1015 1.991 . S
Li970 O1028 1.976 . S
Li970 O1030 1.956 1_554 S
Li970 O1031 1.955 1_554 S
Li971 N1021 1.990 . S
Li971 O1029 1.950 1_556 S
Li971 O1030 1.971 . S
Li971 O1031 1.956 . S
C972 C974 1.348 . S
C972 C975 1.356 . S
C972 O1028 1.325 . S
N973 C976 1.314 . S
N973 C977 1.279 . S
C974 C972 1.348 . S
C974 C976 1.353 . S
C974 H1032 0.929 . S
C975 C972 1.356 . S
C975 C977 1.358 . S
C975 H1033 0.930 . S
C976 N973 1.314 . S
C976 C974 1.353 . S
C976 H1034 0.930 . S
C977 N973 1.279 . S
C977 C975 1.358 . S
C977 H1035 0.930 . S
C978 C981 1.345 . S
C978 C982 1.359 1_554 S
C978 O1029 1.325 . S
C979 N980 1.315 . S
C979 C982 1.358 . S
C979 H1036 0.930 . S
N980 C979 1.315 . S
N980 C983 1.279 1_556 S
C981 C978 1.345 . S
C981 C983 1.353 . S
C981 H1037 0.929 . S
C982 C978 1.359 1_556 S
C982 C979 1.358 . S
C982 H1038 0.930 . S
C983 N980 1.279 1_554 S
C983 C981 1.353 . S
C983 H1039 0.930 . S
C984 N985 1.314 . S
C984 C989 1.353 . S
C984 H990 0.930 . S
N985 Li968 1.990 . S
N985 C984 1.314 . S
N985 C987 1.279 . S
C986 C987 1.358 . S
C986 C988 1.356 . S
C986 H1040 0.930 . S
C987 N985 1.279 . S
C987 C986 1.358 . S
C987 H991 0.930 . S
C988 C986 1.356 . S
C988 C989 1.348 . S
C989 C984 1.353 . S
C989 C988 1.348 . S
C989 H1041 0.929 . S
H990 C984 0.930 . S
H991 C987 0.930 . S
C992 N993 1.314 . S
C992 C994 1.353 . S
C992 H998 0.930 . S
N993 Li969 1.990 . S
N993 C992 1.314 . S
N993 C996 1.279 1_556 S
C994 C992 1.353 . S
C994 C997 1.346 1_556 S
C994 H1042 0.929 . S
C995 C996 1.358 . S
C995 C997 1.357 . S
C995 H1043 0.930 . S
C996 N993 1.279 1_554 S
C996 C995 1.358 . S
C996 H999 0.930 . S
C997 C994 1.346 1_554 S
C997 C995 1.357 . S
H998 C992 0.930 . S
H999 C996 0.930 . S
C1000 C1002 1.345 1_554 S
C1000 C1003 1.359 . S
C1000 O1030 1.325 1_554 S
N1001 C1004 1.267 1_554 S
N1001 C1005 1.327 . S
C1002 C1000 1.345 1_556 S
C1002 C1004 1.353 . S
C1002 H1044 0.929 . S
C1003 C1000 1.359 . S
C1003 C1005 1.358 . S
C1003 H1045 0.930 . S
C1004 N1001 1.267 1_556 S
C1004 C1002 1.353 . S
C1004 H1046 0.930 . S
C1005 N1001 1.327 . S
C1005 C1003 1.358 . S
C1005 H1047 0.930 . S
C1006 C1007 1.348 . S
C1006 C1008 1.356 . S
C1006 O1031 1.325 . S
C1007 C1006 1.348 . S
C1007 C1009 1.353 . S
C1007 H1048 0.929 . S
C1008 C1006 1.356 . S
C1008 C1010 1.358 . S
C1008 H1049 0.930 . S
C1009 C1007 1.353 . S
C1009 N1011 1.314 . S
C1009 H1050 0.930 . S
C1010 C1008 1.358 . S
C1010 N1011 1.279 . S
C1010 H1051 0.930 . S
N1011 C1009 1.314 . S
N1011 C1010 1.279 . S
C1012 C1014 1.353 . S
C1012 N1015 1.314 . S
C1012 H1018 0.930 . S
C1013 N1015 1.279 1_556 S
C1013 C1016 1.358 . S
C1013 H1019 0.930 . S
C1014 C1012 1.353 . S
C1014 C1017 1.346 . S
C1014 H1052 0.929 . S
N1015 Li970 1.991 . S
N1015 C1012 1.314 . S
N1015 C1013 1.279 1_554 S
C1016 C1013 1.358 . S
C1016 C1017 1.357 1_556 S
C1016 H1053 0.930 . S
C1017 C1014 1.346 . S
C1017 C1016 1.357 1_554 S
H1018 C1012 0.930 . S
H1019 C1013 0.930 . S
C1020 N1021 1.314 . S
C1020 C1022 1.353 . S
C1020 H1026 0.930 . S
N1021 Li971 1.990 . S
N1021 C1020 1.314 . S
N1021 C1024 1.279 . S
C1022 C1020 1.353 . S
C1022 C1025 1.348 . S
C1022 H1054 0.929 . S
C1023 C1024 1.358 . S
C1023 C1025 1.356 . S
C1023 H1055 0.930 . S
C1024 N1021 1.279 . S
C1024 C1023 1.358 . S
C1024 H1027 0.930 . S
C1025 C1022 1.348 . S
C1025 C1023 1.356 . S
H1026 C1020 0.930 . S
H1027 C1024 0.930 . S
O1028 Li968 1.956 . S
O1028 Li969 1.965 1_554 S
O1028 Li970 1.976 . S
O1028 C972 1.325 . S
O1029 Li968 1.981 . S
O1029 Li969 1.956 1_554 S
O1029 Li971 1.950 1_554 S
O1029 C978 1.325 . S
O1030 Li968 1.960 1_556 S
O1030 Li970 1.956 1_556 S
O1030 Li971 1.971 . S
O1030 C1000 1.325 1_556 S
O1031 Li969 1.966 . S
O1031 Li970 1.955 1_556 S
O1031 Li971 1.956 . S
O1031 C1006 1.325 . S
H1032 C974 0.929 . S
H1033 C975 0.930 . S
H1034 C976 0.930 . S
H1035 C977 0.930 . S
H1036 C979 0.930 . S
H1037 C981 0.929 . S
H1038 C982 0.930 . S
H1039 C983 0.930 . S
H1040 C986 0.930 . S
H1041 C989 0.929 . S
H1042 C994 0.929 . S
H1043 C995 0.930 . S
H1044 C1002 0.929 . S
H1045 C1003 0.930 . S
H1046 C1004 0.930 . S
H1047 C1005 0.930 . S
H1048 C1007 0.929 . S
H1049 C1008 0.930 . S
H1050 C1009 0.930 . S
H1051 C1010 0.930 . S
H1052 C1014 0.929 . S
H1053 C1016 0.930 . S
H1054 C1022 0.929 . S
H1055 C1023 0.930 . S
H1056 C1064 0.929 . S
H1057 C1066 0.930 . S
H1058 C1068 0.930 . S
H1059 C1071 0.929 . S
H1060 C1074 0.929 . S
H1061 C1076 0.960 . S
H1062 C1076 0.960 . S
H1063 C1076 0.960 1_655 S
C1064 H1056 0.929 . S
C1064 C1065 1.408 . S
C1064 C1066 1.384 . S
C1065 C1064 1.408 . S
C1065 C1071 1.360 1_455 S
C1066 H1057 0.930 . S
C1066 C1064 1.384 . S
C1066 C1067 1.372 . S
C1067 C1066 1.372 . S
C1067 C1068 1.400 1_455 S
C1067 C1072 1.490 . S
C1068 H1058 0.930 . S
C1068 C1067 1.400 1_655 S
C1068 C1071 1.386 . S
H1069 C1085 0.930 . S
H1070 C1086 0.931 . S
C1071 H1059 0.929 . S
C1071 C1065 1.360 1_655 S
C1071 C1068 1.386 . S
C1072 C1067 1.490 . S
C1072 C1074 1.394 1_455 S
C1072 C1075 1.403 . S
H1073 C1079 0.930 . S
C1074 H1060 0.929 . S
C1074 C1072 1.394 1_655 S
C1074 C1077 1.403 . S
C1075 C1072 1.403 . S
C1075 C1076 1.524 . S
C1075 C1079 1.400 . S
C1076 H1061 0.960 . S
C1076 H1062 0.960 . S
C1076 H1063 0.960 1_455 S
C1076 C1075 1.524 . S
C1077 C1074 1.403 . S
C1077 C1078 1.391 1_655 S
C1077 C1081 1.499 . S
C1078 C1077 1.391 1_455 S
C1078 C1079 1.386 . S
C1078 C1080 1.477 1_455 S
C1079 H1073 0.930 . S
C1079 C1075 1.400 . S
C1079 C1078 1.386 . S
C1080 C1078 1.477 1_655 S
C1080 C1082 1.371 1_655 S
C1080 C1086 1.392 . S
C1081 C1077 1.499 . S
C1081 H1087 0.959 . S
C1081 H1088 0.961 . S
C1081 H1089 0.960 1_655 S
C1082 C1080 1.371 1_455 S
C1082 C1083 1.394 . S
C1082 H1090 0.930 . S
C1083 C1082 1.394 . S
C1083 C1084 1.365 1_455 S
C1083 H1091 0.929 . S
C1084 C1083 1.365 1_655 S
C1084 C1085 1.395 . S
C1085 H1069 0.930 . S
C1085 C1084 1.395 . S
C1085 C1086 1.379 . S
C1086 H1070 0.931 . S
C1086 C1080 1.392 . S
C1086 C1085 1.379 . S
H1087 C1081 0.959 . S
H1088 C1081 0.961 . S
H1089 C1081 0.960 1_455 S
H1090 C1082 0.930 . S
H1091 C1083 0.929 . S
H1092 C1100 0.929 . S
H1093 C1102 0.930 . S
H1094 C1104 0.930 . S
H1095 C1107 0.929 . S
H1096 C1110 0.930 . S
H1097 C1112 0.960 . S
H1098 C1112 0.960 . S
H1099 C1112 0.960 . S
C1100 H1092 0.929 . S
C1100 C1101 1.364 1_565 S
C1100 C1102 1.384 . S
C1101 C1100 1.364 1_545 S
C1101 C1107 1.404 . S
C1102 H1093 0.930 . S
C1102 C1100 1.384 . S
C1102 C1103 1.375 . S
C1103 C1102 1.375 . S
C1103 C1104 1.396 1_565 S
C1103 C1108 1.489 . S
C1104 H1094 0.930 . S
C1104 C1103 1.396 1_545 S
C1104 C1107 1.386 . S
H1105 C1121 0.930 . S
H1106 C1122 0.931 . S
C1107 H1095 0.929 . S
C1107 C1101 1.404 . S
C1107 C1104 1.386 . S
C1108 C1103 1.489 . S
C1108 C1110 1.449 . S
C1108 C1111 1.352 1_565 S
H1109 C1115 0.930 . S
C1110 H1096 0.930 . S
C1110 C1108 1.449 . S
C1110 C1113 1.403 . S
C1111 C1108 1.352 1_545 S
C1111 C1112 1.524 . S
C1111 C1115 1.400 . S
C1112 H1097 0.960 . S
C1112 H1098 0.960 . S
C1112 H1099 0.960 . S
C1112 C1111 1.524 . S
C1113 C1110 1.403 . S
C1113 C1114 1.392 . S
C1113 C1117 1.495 . S
C1114 C1113 1.392 . S
C1114 C1115 1.385 1_565 S
C1114 C1116 1.478 . S
C1115 H1109 0.930 . S
C1115 C1111 1.400 . S
C1115 C1114 1.385 1_545 S
C1116 C1114 1.478 . S
C1116 C1118 1.381 . S
C1116 C1122 1.383 1_565 S
C1117 C1113 1.495 . S
C1117 H1123 0.959 . S
C1117 H1124 0.961 . S
C1117 H1125 0.960 . S
C1118 C1116 1.381 . S
C1118 C1119 1.394 . S
C1118 H1126 0.930 . S
C1119 C1118 1.394 . S
C1119 C1120 1.383 . S
C1119 H1127 0.929 . S
C1120 C1119 1.383 . S
C1120 C1121 1.377 1_565 S
C1121 H1105 0.930 . S
C1121 C1120 1.377 1_545 S
C1121 C1122 1.379 . S
C1122 H1106 0.931 . S
C1122 C1116 1.383 1_545 S
C1122 C1121 1.379 . S
H1123 C1117 0.959 . S
H1124 C1117 0.961 . S
H1125 C1117 0.960 . S
H1126 C1118 0.930 . S
H1127 C1119 0.929 . S
H1128 C1136 0.929 . S
H1129 C1138 0.930 . S
H1130 C1140 0.930 . S
H1131 C1143 0.929 . S
H1132 C1146 0.930 . S
H1133 C1148 0.960 . S
H1134 C1148 0.960 . S
H1135 C1148 0.960 . S
C1136 H1128 0.929 . S
C1136 C1137 1.408 . S
C1136 C1138 1.384 . S
C1137 C1136 1.408 . S
C1137 C1143 1.359 1_455 S
C1138 H1129 0.930 . S
C1138 C1136 1.384 . S
C1138 C1139 1.372 . S
C1139 C1138 1.372 . S
C1139 C1140 1.400 1_455 S
C1139 C1144 1.490 . S
C1140 H1130 0.930 . S
C1140 C1139 1.400 1_655 S
C1140 C1143 1.386 . S
H1141 C1157 0.930 . S
H1142 C1158 0.931 . S
C1143 H1131 0.929 . S
C1143 C1137 1.359 1_655 S
C1143 C1140 1.386 . S
C1144 C1139 1.490 . S
C1144 C1146 1.395 . S
C1144 C1147 1.403 1_455 S
H1145 C1151 0.930 . S
C1146 H1132 0.930 . S
C1146 C1144 1.395 . S
C1146 C1149 1.403 . S
C1147 C1144 1.403 1_655 S
C1147 C1148 1.524 . S
C1147 C1151 1.400 . S
C1148 H1133 0.960 . S
C1148 H1134 0.960 . S
C1148 H1135 0.960 . S
C1148 C1147 1.524 . S
C1149 C1146 1.403 . S
C1149 C1150 1.392 . S
C1149 C1153 1.495 . S
C1150 C1149 1.392 . S
C1150 C1151 1.385 1_455 S
C1150 C1152 1.478 . S
C1151 H1145 0.930 . S
C1151 C1147 1.400 . S
C1151 C1150 1.385 1_655 S
C1152 C1150 1.478 . S
C1152 C1154 1.381 . S
C1152 C1158 1.383 1_455 S
C1153 C1149 1.495 . S
C1153 H1159 0.959 . S
C1153 H1160 0.961 . S
C1153 H1161 0.960 . S
C1154 C1152 1.381 . S
C1154 C1155 1.394 . S
C1154 H1162 0.930 . S
C1155 C1154 1.394 . S
C1155 C1156 1.396 . S
C1155 H1163 0.929 . S
C1156 C1155 1.396 . S
C1156 C1157 1.364 1_455 S
C1157 H1141 0.930 . S
C1157 C1156 1.364 1_655 S
C1157 C1158 1.379 . S
C1158 H1142 0.931 . S
C1158 C1152 1.383 1_655 S
C1158 C1157 1.379 . S
H1159 C1153 0.959 . S
H1160 C1153 0.961 . S
H1161 C1153 0.960 . S
H1162 C1154 0.930 . S
H1163 C1155 0.929 . S
H1164 C1172 0.929 . S
H1165 C1174 0.930 . S
H1166 C1176 0.930 . S
H1167 C1179 0.929 . S
H1168 C1182 0.930 . S
H1169 C1184 0.960 . S
H1170 C1184 0.960 . S
H1171 C1184 0.960 . S
C1172 H1164 0.929 . S
C1172 C1173 1.395 . S
C1172 C1174 1.384 . S
C1173 C1172 1.395 . S
C1173 C1179 1.372 1_565 S
C1174 H1165 0.930 . S
C1174 C1172 1.384 . S
C1174 C1175 1.372 . S
C1175 C1174 1.372 . S
C1175 C1176 1.400 1_565 S
C1175 C1180 1.490 . S
C1176 H1166 0.930 . S
C1176 C1175 1.400 1_545 S
C1176 C1179 1.386 . S
H1177 C1193 0.930 . S
H1178 C1194 0.931 . S
C1179 H1167 0.929 . S
C1179 C1173 1.372 1_545 S
C1179 C1176 1.386 . S
C1180 C1175 1.490 . S
C1180 C1182 1.395 . S
C1180 C1183 1.403 1_565 S
H1181 C1187 0.930 . S
C1182 H1168 0.930 . S
C1182 C1180 1.395 . S
C1182 C1185 1.403 . S
C1183 C1180 1.403 1_545 S
C1183 C1184 1.524 . S
C1183 C1187 1.400 . S
C1184 H1169 0.960 . S
C1184 H1170 0.960 . S
C1184 H1171 0.960 . S
C1184 C1183 1.524 . S
C1185 C1182 1.403 . S
C1185 C1186 1.392 . S
C1185 C1189 1.495 . S
C1186 C1185 1.392 . S
C1186 C1187 1.385 1_565 S
C1186 C1188 1.478 . S
C1187 H1181 0.930 . S
C1187 C1183 1.400 . S
C1187 C1186 1.385 1_545 S
C1188 C1186 1.478 . S
C1188 C1190 1.381 . S
C1188 C1194 1.383 1_565 S
C1189 C1185 1.495 . S
C1189 H1195 0.959 . S
C1189 H1196 0.961 . S
C1189 H1197 0.960 . S
C1190 C1188 1.381 . S
C1190 C1191 1.394 . S
C1190 H1198 0.930 . S
C1191 C1190 1.394 . S
C1191 C1192 1.383 . S
C1191 H1199 0.929 . S
C1192 C1191 1.383 . S
C1192 C1193 1.377 1_565 S
C1193 H1177 0.930 . S
C1193 C1192 1.377 1_545 S
C1193 C1194 1.379 . S
C1194 H1178 0.931 . S
C1194 C1188 1.383 1_545 S
C1194 C1193 1.379 . S
H1195 C1189 0.959 . S
H1196 C1189 0.961 . S
H1197 C1189 0.960 . S
H1198 C1190 0.930 . S
H1199 C1191 0.929 . S
H1200 C1208 0.929 . S
H1201 C1210 0.930 . S
H1202 C1212 0.930 . S
H1203 C1215 0.929 . S
H1204 C1218 0.930 . S
H1205 C1220 0.960 . S
H1206 C1220 0.960 . S
H1207 C1220 0.960 . S
C1208 H1200 0.929 . S
C1208 C1209 1.380 . S
C1208 C1210 1.384 . S
C1209 C1208 1.380 . S
C1209 C1215 1.387 1_655 S
C1210 H1201 0.930 . S
C1210 C1208 1.384 . S
C1210 C1211 1.395 . S
C1211 C1210 1.395 . S
C1211 C1212 1.377 1_655 S
C1211 C1216 1.491 . S
C1212 H1202 0.930 . S
C1212 C1211 1.377 1_455 S
C1212 C1215 1.386 . S
H1213 C1229 0.930 . S
H1214 C1230 0.931 . S
C1215 H1203 0.929 . S
C1215 C1209 1.387 1_455 S
C1215 C1212 1.386 . S
C1216 C1211 1.491 . S
C1216 C1218 1.395 . S
C1216 C1219 1.403 1_655 S
H1217 C1223 0.930 . S
C1218 H1204 0.930 . S
C1218 C1216 1.395 . S
C1218 C1221 1.403 . S
C1219 C1216 1.403 1_455 S
C1219 C1220 1.524 . S
C1219 C1223 1.400 . S
C1220 H1205 0.960 . S
C1220 H1206 0.960 . S
C1220 H1207 0.960 . S
C1220 C1219 1.524 . S
C1221 C1218 1.403 . S
C1221 C1222 1.392 . S
C1221 C1225 1.495 . S
C1222 C1221 1.392 . S
C1222 C1223 1.385 1_655 S
C1222 C1224 1.478 . S
C1223 H1217 0.930 . S
C1223 C1219 1.400 . S
C1223 C1222 1.385 1_455 S
C1224 C1222 1.478 . S
C1224 C1226 1.381 . S
C1224 C1230 1.383 1_655 S
C1225 C1221 1.495 . S
C1225 H1231 0.959 . S
C1225 H1232 0.961 . S
C1225 H1233 0.960 . S
C1226 C1224 1.381 . S
C1226 C1227 1.394 . S
C1226 H1234 0.930 . S
C1227 C1226 1.394 . S
C1227 C1228 1.417 . S
C1227 H1235 0.929 . S
C1228 C1227 1.417 . S
C1228 C1229 1.349 1_655 S
C1229 H1213 0.930 . S
C1229 C1228 1.349 1_455 S
C1229 C1230 1.379 . S
C1230 H1214 0.931 . S
C1230 C1224 1.383 1_455 S
C1230 C1229 1.379 . S
H1231 C1225 0.959 . S
H1232 C1225 0.961 . S
H1233 C1225 0.960 . S
H1234 C1226 0.930 . S
H1235 C1227 0.929 . S
H1236 C1244 0.929 . S
H1237 C1246 0.930 . S
H1238 C1248 0.930 . S
H1239 C1251 0.929 . S
H1240 C1254 0.930 . S
H1241 C1256 0.959 . S
H1242 C1256 1.004 . S
H1243 C1256 0.920 1_545 S
C1244 H1236 0.929 . S
C1244 C1245 1.397 . S
C1244 C1246 1.384 . S
C1245 C1244 1.397 . S
C1245 C1251 1.370 1_565 S
C1246 H1237 0.930 . S
C1246 C1244 1.384 . S
C1246 C1247 1.372 . S
C1247 C1246 1.372 . S
C1247 C1248 1.400 1_565 S
C1247 C1252 1.491 . S
C1248 H1238 0.930 . S
C1248 C1247 1.400 1_545 S
C1248 C1251 1.386 . S
H1249 C1265 0.930 . S
H1250 C1266 0.931 . S
C1251 H1239 0.929 . S
C1251 C1245 1.370 1_545 S
C1251 C1248 1.386 . S
C1252 C1247 1.491 . S
C1252 C1254 1.398 . S
C1252 C1255 1.402 . S
H1253 C1259 0.929 1_545 S
C1254 H1240 0.930 . S
C1254 C1252 1.398 . S
C1254 C1257 1.403 . S
C1255 C1252 1.402 . S
C1255 C1256 1.523 . S
C1255 C1259 1.400 . S
C1256 H1241 0.959 . S
C1256 H1242 1.004 . S
C1256 H1243 0.920 1_565 S
C1256 C1255 1.523 . S
C1257 C1254 1.403 . S
C1257 C1258 1.394 . S
C1257 C1261 1.495 . S
C1258 C1257 1.394 . S
C1258 C1259 1.385 . S
C1258 C1260 1.477 1_565 S
C1259 H1253 0.929 1_565 S
C1259 C1255 1.400 . S
C1259 C1258 1.385 . S
C1260 C1258 1.477 1_545 S
C1260 C1262 1.383 1_545 S
C1260 C1266 1.381 . S
C1261 C1257 1.495 . S
C1261 H1267 0.959 . S
C1261 H1268 0.961 1_565 S
C1261 H1269 0.960 . S
C1262 C1260 1.383 1_565 S
C1262 C1263 1.394 . S
C1262 H1270 0.930 . S
C1263 C1262 1.394 . S
C1263 C1264 1.361 1_565 S
C1263 H1271 0.929 . S
C1264 C1263 1.361 1_545 S
C1264 C1265 1.399 . S
C1265 H1249 0.930 . S
C1265 C1264 1.399 . S
C1265 C1266 1.379 . S
C1266 H1250 0.931 . S
C1266 C1260 1.381 . S
C1266 C1265 1.379 . S
H1267 C1261 0.959 . S
H1268 C1261 0.961 1_545 S
H1269 C1261 0.960 . S
H1270 C1262 0.930 . S
H1271 C1263 0.929 . S
H1272 C1280 0.929 . S
H1273 C1282 0.930 . S
H1274 C1284 0.930 . S
H1275 C1287 0.929 . S
H1276 C1290 0.930 . S
H1277 C1292 0.960 . S
H1278 C1292 0.960 . S
H1279 C1292 0.960 . S
C1280 H1272 0.929 . S
C1280 C1281 1.371 . S
C1280 C1282 1.384 . S
C1281 C1280 1.371 . S
C1281 C1287 1.396 1_455 S
C1282 H1273 0.930 . S
C1282 C1280 1.384 . S
C1282 C1283 1.426 . S
C1283 C1282 1.426 . S
C1283 C1284 1.345 1_455 S
C1283 C1288 1.492 . S
C1284 H1274 0.930 . S
C1284 C1283 1.345 1_655 S
C1284 C1287 1.386 . S
H1285 C1301 0.930 . S
H1286 C1302 0.931 . S
C1287 H1275 0.929 . S
C1287 C1281 1.396 1_655 S
C1287 C1284 1.386 . S
C1288 C1283 1.492 . S
C1288 C1290 1.395 . S
C1288 C1291 1.403 1_455 S
H1289 C1295 0.930 . S
C1290 H1276 0.930 . S
C1290 C1288 1.395 . S
C1290 C1293 1.403 . S
C1291 C1288 1.403 1_655 S
C1291 C1292 1.524 . S
C1291 C1295 1.400 . S
C1292 H1277 0.960 . S
C1292 H1278 0.960 . S
C1292 H1279 0.960 . S
C1292 C1291 1.524 . S
C1293 C1290 1.403 . S
C1293 C1294 1.392 . S
C1293 C1297 1.495 . S
C1294 C1293 1.392 . S
C1294 C1295 1.385 1_455 S
C1294 C1296 1.478 . S
C1295 H1289 0.930 . S
C1295 C1291 1.400 . S
C1295 C1294 1.385 1_655 S
C1296 C1294 1.478 . S
C1296 C1298 1.381 . S
C1296 C1302 1.383 1_455 S
C1297 C1293 1.495 . S
C1297 H1303 0.959 . S
C1297 H1304 0.961 . S
C1297 H1305 0.960 . S
C1298 C1296 1.381 . S
C1298 C1299 1.394 . S
C1298 H1306 0.930 . S
C1299 C1298 1.394 . S
C1299 C1300 1.429 . S
C1299 H1307 0.929 . S
C1300 C1299 1.429 . S
C1300 C1301 1.333 1_455 S
C1301 H1285 0.930 . S
C1301 C1300 1.333 1_655 S
C1301 C1302 1.379 . S
C1302 H1286 0.931 . S
C1302 C1296 1.383 1_655 S
C1302 C1301 1.379 . S
H1303 C1297 0.959 . S
H1304 C1297 0.961 . S
H1305 C1297 0.960 . S
H1306 C1298 0.930 . S
H1307 C1299 0.929 . S
H1308 C1316 0.929 . S
H1309 C1318 0.930 . S
H1310 C1320 0.930 . S
H1311 C1323 0.929 . S
H1312 C1326 0.933 . S
H1313 C1328 0.960 . S
H1314 C1328 0.960 . S
H1315 C1328 0.960 1_565 S
C1316 H1308 0.929 . S
C1316 C1317 1.408 . S
C1316 C1318 1.384 . S
C1317 C1316 1.408 . S
C1317 C1323 1.361 1_545 S
C1318 H1309 0.930 . S
C1318 C1316 1.384 . S
C1318 C1319 1.372 . S
C1319 C1318 1.372 . S
C1319 C1320 1.400 1_545 S
C1319 C1324 1.490 . S
C1320 H1310 0.930 . S
C1320 C1319 1.400 1_565 S
C1320 C1323 1.386 . S
H1321 C1337 0.930 . S
H1322 C1338 0.931 . S
C1323 H1311 0.929 . S
C1323 C1317 1.361 1_565 S
C1323 C1320 1.386 . S
C1324 C1319 1.490 . S
C1324 C1326 1.392 1_545 S
C1324 C1327 1.403 . S
H1325 C1331 0.930 . S
C1326 H1312 0.933 . S
C1326 C1324 1.392 1_565 S
C1326 C1329 1.405 . S
C1327 C1324 1.403 . S
C1327 C1328 1.524 . S
C1327 C1331 1.400 . S
C1328 H1313 0.960 . S
C1328 H1314 0.960 . S
C1328 H1315 0.960 1_545 S
C1328 C1327 1.524 . S
C1329 C1326 1.405 . S
C1329 C1330 1.392 1_565 S
C1329 C1333 1.495 . S
C1330 C1329 1.392 1_545 S
C1330 C1331 1.386 . S
C1330 C1332 1.477 1_545 S
C1331 H1325 0.930 . S
C1331 C1327 1.400 . S
C1331 C1330 1.386 . S
C1332 C1330 1.477 1_565 S
C1332 C1334 1.367 1_565 S
C1332 C1338 1.397 . S
C1333 C1329 1.495 . S
C1333 H1339 0.959 . S
C1333 H1340 0.961 . S
C1333 H1341 0.960 1_565 S
C1334 C1332 1.367 1_545 S
C1334 C1335 1.394 . S
C1334 H1342 0.930 . S
C1335 C1334 1.394 . S
C1335 C1336 1.364 1_545 S
C1335 H1343 0.929 . S
C1336 C1335 1.364 1_565 S
C1336 C1337 1.396 . S
C1337 H1321 0.930 . S
C1337 C1336 1.396 . S
C1337 C1338 1.379 . S
C1338 H1322 0.931 . S
C1338 C1332 1.397 . S
C1338 C1337 1.379 . S
H1339 C1333 0.959 . S
H1340 C1333 0.961 . S
H1341 C1333 0.960 1_545 S
H1342 C1334 0.930 . S
H1343 C1335 0.929 . S
H1344 C1352 0.929 . S
H1345 C1354 0.930 . S
H1346 C1356 0.930 . S
H1347 C1359 0.929 . S
H1348 C1362 0.930 . S
H1349 C1364 0.960 . S
H1350 C1364 0.960 1_554 S
H1351 C1364 0.960 . S
C1352 H1344 0.929 . S
C1352 C1353 1.374 . S
C1352 C1354 1.384 . S
C1353 C1352 1.374 . S
C1353 C1359 1.393 1_554 S
C1354 H1345 0.930 . S
C1354 C1352 1.384 . S
C1354 C1355 1.422 . S
C1355 C1354 1.422 . S
C1355 C1356 1.349 1_554 S
C1355 C1360 1.492 . S
C1356 H1346 0.930 . S
C1356 C1355 1.349 1_556 S
C1356 C1359 1.386 . S
H1357 C1373 0.930 . S
H1358 C1374 0.931 . S
C1359 H1347 0.929 . S
C1359 C1353 1.393 1_556 S
C1359 C1356 1.386 . S
C1360 C1355 1.492 . S
C1360 C1362 1.395 . S
C1360 C1363 1.403 1_554 S
H1361 C1367 0.930 . S
C1362 H1348 0.930 . S
C1362 C1360 1.395 . S
C1362 C1365 1.403 . S
C1363 C1360 1.403 1_556 S
C1363 C1364 1.524 . S
C1363 C1367 1.400 . S
C1364 H1349 0.960 . S
C1364 H1350 0.960 1_556 S
C1364 H1351 0.960 . S
C1364 C1363 1.524 . S
C1365 C1362 1.403 . S
C1365 C1366 1.392 . S
C1365 C1369 1.495 . S
C1366 C1365 1.392 . S
C1366 C1367 1.385 1_554 S
C1366 C1368 1.480 . S
C1367 H1361 0.930 . S
C1367 C1363 1.400 . S
C1367 C1366 1.385 1_556 S
C1368 C1366 1.480 . S
C1368 C1370 1.431 . S
C1368 C1374 1.332 1_554 S
C1369 C1365 1.495 . S
C1369 H1375 0.959 . S
C1369 H1376 0.961 1_554 S
C1369 H1377 0.960 . S
C1370 C1368 1.431 . S
C1370 C1371 1.394 . S
C1370 H1378 0.930 . S
C1371 C1370 1.394 . S
C1371 C1372 1.408 . S
C1371 H1379 0.929 . S
C1372 C1371 1.408 . S
C1372 C1373 1.353 1_554 S
C1373 H1357 0.930 . S
C1373 C1372 1.353 1_556 S
C1373 C1374 1.379 . S
C1374 H1358 0.931 . S
C1374 C1368 1.332 1_556 S
C1374 C1373 1.379 . S
H1375 C1369 0.959 . S
H1376 C1369 0.961 1_556 S
H1377 C1369 0.960 . S
H1378 C1370 0.930 . S
H1379 C1371 0.929 . S
H1380 C1388 0.929 . S
H1381 C1390 0.930 . S
H1382 C1392 0.930 . S
H1383 C1395 0.929 . S
H1384 C1398 0.930 . S
H1385 C1400 0.960 . S
H1386 C1400 0.960 . S
H1387 C1400 0.992 . S
C1388 H1380 0.929 . S
C1388 C1389 1.377 . S
C1388 C1390 1.384 . S
C1389 C1388 1.377 . S
C1389 C1395 1.390 1_554 S
C1390 H1381 0.930 . S
C1390 C1388 1.384 . S
C1390 C1391 1.404 . S
C1391 C1390 1.404 . S
C1391 C1392 1.368 1_554 S
C1391 C1396 1.490 . S
C1392 H1382 0.930 . S
C1392 C1391 1.368 1_556 S
C1392 C1395 1.386 . S
H1393 C1409 0.930 . S
H1394 C1410 0.931 . S
C1395 H1383 0.929 . S
C1395 C1389 1.390 1_556 S
C1395 C1392 1.386 . S
C1396 C1391 1.490 . S
C1396 C1398 1.386 1_554 S
C1396 C1399 1.413 . S
H1397 C1403 0.930 . S
C1398 H1384 0.930 . S
C1398 C1396 1.386 1_556 S
C1398 C1401 1.403 . S
C1399 C1396 1.413 . S
C1399 C1400 1.524 . S
C1399 C1403 1.400 . S
C1400 H1385 0.960 . S
C1400 H1386 0.960 . S
C1400 H1387 0.992 . S
C1400 C1399 1.524 . S
C1401 C1398 1.403 . S
C1401 C1402 1.393 . S
C1401 C1405 1.495 . S
C1402 C1401 1.393 . S
C1402 C1403 1.384 1_556 S
C1402 C1404 1.477 . S
C1403 H1397 0.930 . S
C1403 C1399 1.400 . S
C1403 C1402 1.384 1_554 S
C1404 C1402 1.477 . S
C1404 C1406 1.356 1_556 S
C1404 C1410 1.408 . S
C1405 C1401 1.495 . S
C1405 H1411 0.959 . S
C1405 H1412 0.961 . S
C1405 H1413 0.960 1_556 S
C1406 C1404 1.356 1_554 S
C1406 C1407 1.394 . S
C1406 H1414 0.930 . S
C1407 C1406 1.394 . S
C1407 C1408 1.386 1_554 S
C1407 H1415 0.929 . S
C1408 C1407 1.386 1_556 S
C1408 C1409 1.374 . S
C1409 H1393 0.930 . S
C1409 C1408 1.374 . S
C1409 C1410 1.379 . S
C1410 H1394 0.931 . S
C1410 C1404 1.408 . S
C1410 C1409 1.379 . S
H1411 C1405 0.959 . S
H1412 C1405 0.961 . S
H1413 C1405 0.960 1_554 S
H1414 C1406 0.930 . S
H1415 C1407 0.929 . S
H1416 C1424 0.929 . S
H1417 C1426 0.930 . S
H1418 C1428 0.930 . S
H1419 C1431 0.929 . S
H1420 C1434 0.930 . S
H1421 C1436 0.960 . S
H1422 C1436 0.960 . S
H1423 C1436 0.960 . S
C1424 H1416 0.929 . S
C1424 C1425 1.388 . S
C1424 C1426 1.384 . S
C1425 C1424 1.388 . S
C1425 C1431 1.381 1_554 S
C1426 H1417 0.930 . S
C1426 C1424 1.384 . S
C1426 C1427 1.383 . S
C1427 C1426 1.383 . S
C1427 C1428 1.391 1_554 S
C1427 C1432 1.489 . S
C1428 H1418 0.930 . S
C1428 C1427 1.391 1_556 S
C1428 C1431 1.386 . S
H1429 C1445 0.930 . S
H1430 C1446 0.931 . S
C1431 H1419 0.929 . S
C1431 C1425 1.381 1_556 S
C1431 C1428 1.386 . S
C1432 C1427 1.489 . S
C1432 C1434 1.392 1_554 S
C1432 C1435 1.405 . S
H1433 C1439 0.930 . S
C1434 H1420 0.930 . S
C1434 C1432 1.392 1_556 S
C1434 C1437 1.403 . S
C1435 C1432 1.405 . S
C1435 C1436 1.524 . S
C1435 C1439 1.400 . S
C1436 H1421 0.960 . S
C1436 H1422 0.960 . S
C1436 H1423 0.960 . S
C1436 C1435 1.524 . S
C1437 C1434 1.403 . S
C1437 C1438 1.392 . S
C1437 C1441 1.495 . S
C1438 C1437 1.392 . S
C1438 C1439 1.385 1_556 S
C1438 C1440 1.478 . S
C1439 H1433 0.930 . S
C1439 C1435 1.400 . S
C1439 C1438 1.385 1_554 S
C1440 C1438 1.478 . S
C1440 C1442 1.381 1_556 S
C1440 C1446 1.383 . S
C1441 C1437 1.495 . S
C1441 H1447 0.959 . S
C1441 H1448 0.961 . S
C1441 H1449 0.960 . S
C1442 C1440 1.381 1_554 S
C1442 C1443 1.394 . S
C1442 H1450 0.930 . S
C1443 C1442 1.394 . S
C1443 C1444 1.383 1_554 S
C1443 H1451 0.929 . S
C1444 C1443 1.383 1_556 S
C1444 C1445 1.377 . S
C1445 H1429 0.930 . S
C1445 C1444 1.377 . S
C1445 C1446 1.379 . S
C1446 H1430 0.931 . S
C1446 C1440 1.383 . S
C1446 C1445 1.379 . S
H1447 C1441 0.959 . S
H1448 C1441 0.961 . S
H1449 C1441 0.960 . S
H1450 C1442 0.930 . S
H1451 C1443 0.929 . S
H1452 C1460 0.929 . S
H1453 C1462 0.930 . S
H1454 C1464 0.930 . S
H1455 C1467 0.929 . S
H1456 C1470 0.930 . S
H1457 C1472 0.960 . S
H1458 C1472 0.960 . S
H1459 C1472 0.960 1_556 S
C1460 H1452 0.929 . S
C1460 C1461 1.408 . S
C1460 C1462 1.384 . S
C1461 C1460 1.408 . S
C1461 C1467 1.360 1_554 S
C1462 H1453 0.930 . S
C1462 C1460 1.384 . S
C1462 C1463 1.372 . S
C1463 C1462 1.372 . S
C1463 C1464 1.400 1_554 S
C1463 C1468 1.490 . S
C1464 H1454 0.930 . S
C1464 C1463 1.400 1_556 S
C1464 C1467 1.386 . S
H1465 C1481 0.930 . S
H1466 C1482 0.931 . S
C1467 H1455 0.929 . S
C1467 C1461 1.360 1_556 S
C1467 C1464 1.386 . S
C1468 C1463 1.490 . S
C1468 C1470 1.395 . S
C1468 C1471 1.403 . S
H1469 C1475 0.930 . S
C1470 H1456 0.930 . S
C1470 C1468 1.395 . S
C1470 C1473 1.403 1_554 S
C1471 C1468 1.403 . S
C1471 C1472 1.524 . S
C1471 C1475 1.400 . S
C1472 H1457 0.960 . S
C1472 H1458 0.960 . S
C1472 H1459 0.960 1_554 S
C1472 C1471 1.524 . S
C1473 C1470 1.403 1_556 S
C1473 C1474 1.392 1_556 S
C1473 C1477 1.495 . S
C1474 C1473 1.392 1_554 S
C1474 C1475 1.386 . S
C1474 C1476 1.477 1_554 S
C1475 H1469 0.930 . S
C1475 C1471 1.400 . S
C1475 C1474 1.386 . S
C1476 C1474 1.477 1_556 S
C1476 C1478 1.377 1_556 S
C1476 C1482 1.387 . S
C1477 C1473 1.495 . S
C1477 H1483 0.959 . S
C1477 H1484 0.961 . S
C1477 H1485 0.960 1_556 S
C1478 C1476 1.377 1_554 S
C1478 C1479 1.394 . S
C1478 H1486 0.930 . S
C1479 C1478 1.394 . S
C1479 C1480 1.367 1_554 S
C1479 H1487 0.929 . S
C1480 C1479 1.367 1_556 S
C1480 C1481 1.393 . S
C1481 H1465 0.930 . S
C1481 C1480 1.393 . S
C1481 C1482 1.379 . S
C1482 H1466 0.931 . S
C1482 C1476 1.387 . S
C1482 C1481 1.379 . S
H1483 C1477 0.959 . S
H1484 C1477 0.961 . S
H1485 C1477 0.960 1_554 S
H1486 C1478 0.930 . S
H1487 C1479 0.929 . S
H1488 C1496 0.929 . S
H1489 C1498 0.930 . S
H1490 C1500 0.930 . S
H1491 C1503 0.929 . S
H1492 C1506 0.930 . S
H1493 C1508 0.960 . S
H1494 C1508 0.960 . S
H1495 C1508 0.960 . S
C1496 H1488 0.929 . S
C1496 C1497 1.377 . S
C1496 C1498 1.384 . S
C1497 C1496 1.377 . S
C1497 C1503 1.390 . S
C1498 H1489 0.930 . S
C1498 C1496 1.384 . S
C1498 C1499 1.372 . S
C1499 C1498 1.372 . S
C1499 C1500 1.400 . S
C1499 C1504 1.490 . S
C1500 H1490 0.930 . S
C1500 C1499 1.400 . S
C1500 C1503 1.386 . S
H1501 C1517 0.930 . S
H1502 C1518 0.931 . S
C1503 H1491 0.929 . S
C1503 C1497 1.390 . S
C1503 C1500 1.386 . S
C1504 C1499 1.490 . S
C1504 C1506 1.395 . S
C1504 C1507 1.403 . S
H1505 C1511 0.930 . S
C1506 H1492 0.930 . S
C1506 C1504 1.395 . S
C1506 C1509 1.403 . S
C1507 C1504 1.403 . S
C1507 C1508 1.524 . S
C1507 C1511 1.400 . S
C1508 H1493 0.960 . S
C1508 H1494 0.960 . S
C1508 H1495 0.960 . S
C1508 C1507 1.524 . S
C1509 C1506 1.403 . S
C1509 C1510 1.392 . S
C1509 C1513 1.495 . S
C1510 C1509 1.392 . S
C1510 C1511 1.385 . S
C1510 C1512 1.478 . S
C1511 H1505 0.930 . S
C1511 C1507 1.400 . S
C1511 C1510 1.385 . S
C1512 C1510 1.478 . S
C1512 C1514 1.381 . S
C1512 C1518 1.383 . S
C1513 C1509 1.495 . S
C1513 H1519 0.959 . S
C1513 H1520 0.961 . S
C1513 H1521 0.960 . S
C1514 C1512 1.381 . S
C1514 C1515 1.394 . S
C1514 H1522 0.930 . S
C1515 C1514 1.394 . S
C1515 C1516 1.383 . S
C1515 H1523 0.929 . S
C1516 C1515 1.383 . S
C1516 C1517 1.377 . S
C1517 H1501 0.930 . S
C1517 C1516 1.377 . S
C1517 C1518 1.379 . S
C1518 H1502 0.931 . S
C1518 C1512 1.383 . S
C1518 C1517 1.379 . S
H1519 C1513 0.959 . S
H1520 C1513 0.961 . S
H1521 C1513 0.960 . S
H1522 C1514 0.930 . S
H1523 C1515 0.929 . S
H1524 C1532 0.929 . S
H1525 C1534 0.930 . S
H1526 C1536 0.930 . S
H1527 C1539 0.929 . S
H1528 C1542 0.930 . S
H1529 C1544 0.960 . S
H1530 C1544 0.960 . S
H1531 C1544 0.960 . S
C1532 H1524 0.929 . S
C1532 C1533 1.377 . S
C1532 C1534 1.384 . S
C1533 C1532 1.377 . S
C1533 C1539 1.390 . S
C1534 H1525 0.930 . S
C1534 C1532 1.384 . S
C1534 C1535 1.372 . S
C1535 C1534 1.372 . S
C1535 C1536 1.400 . S
C1535 C1540 1.490 . S
C1536 H1526 0.930 . S
C1536 C1535 1.400 . S
C1536 C1539 1.386 . S
H1537 C1553 0.930 . S
H1538 C1554 0.931 . S
C1539 H1527 0.929 . S
C1539 C1533 1.390 . S
C1539 C1536 1.386 . S
C1540 C1535 1.490 . S
C1540 C1542 1.395 . S
C1540 C1543 1.403 . S
H1541 C1547 0.930 . S
C1542 H1528 0.930 . S
C1542 C1540 1.395 . S
C1542 C1545 1.403 . S
C1543 C1540 1.403 . S
C1543 C1544 1.524 . S
C1543 C1547 1.400 . S
C1544 H1529 0.960 . S
C1544 H1530 0.960 . S
C1544 H1531 0.960 . S
C1544 C1543 1.524 . S
C1545 C1542 1.403 . S
C1545 C1546 1.392 . S
C1545 C1549 1.495 . S
C1546 C1545 1.392 . S
C1546 C1547 1.385 . S
C1546 C1548 1.478 . S
C1547 H1541 0.930 . S
C1547 C1543 1.400 . S
C1547 C1546 1.385 . S
C1548 C1546 1.478 . S
C1548 C1550 1.381 . S
C1548 C1554 1.383 . S
C1549 C1545 1.495 . S
C1549 H1555 0.959 . S
C1549 H1556 0.961 . S
C1549 H1557 0.960 . S
C1550 C1548 1.381 . S
C1550 C1551 1.394 . S
C1550 H1558 0.930 . S
C1551 C1550 1.394 . S
C1551 C1552 1.383 . S
C1551 H1559 0.929 . S
C1552 C1551 1.383 . S
C1552 C1553 1.377 . S
C1553 H1537 0.930 . S
C1553 C1552 1.377 . S
C1553 C1554 1.379 . S
C1554 H1538 0.931 . S
C1554 C1548 1.383 . S
C1554 C1553 1.379 . S
H1555 C1549 0.959 . S
H1556 C1549 0.961 . S
H1557 C1549 0.960 . S
H1558 C1550 0.930 . S
H1559 C1551 0.929 . S
H1560 C1568 0.929 . S
H1561 C1570 0.930 . S
H1562 C1572 0.930 . S
H1563 C1575 0.929 . S
H1564 C1578 0.930 . S
H1565 C1580 0.960 . S
H1566 C1580 0.960 . S
H1567 C1580 0.960 . S
C1568 H1560 0.929 . S
C1568 C1569 1.377 . S
C1568 C1570 1.384 . S
C1569 C1568 1.377 . S
C1569 C1575 1.390 . S
C1570 H1561 0.930 . S
C1570 C1568 1.384 . S
C1570 C1571 1.372 . S
C1571 C1570 1.372 . S
C1571 C1572 1.400 . S
C1571 C1576 1.490 . S
C1572 H1562 0.930 . S
C1572 C1571 1.400 . S
C1572 C1575 1.386 . S
H1573 C1589 0.930 . S
H1574 C1590 0.931 . S
C1575 H1563 0.929 . S
C1575 C1569 1.390 . S
C1575 C1572 1.386 . S
C1576 C1571 1.490 . S
C1576 C1578 1.395 . S
C1576 C1579 1.403 . S
H1577 C1583 0.930 . S
C1578 H1564 0.930 . S
C1578 C1576 1.395 . S
C1578 C1581 1.403 . S
C1579 C1576 1.403 . S
C1579 C1580 1.524 . S
C1579 C1583 1.400 . S
C1580 H1565 0.960 . S
C1580 H1566 0.960 . S
C1580 H1567 0.960 . S
C1580 C1579 1.524 . S
C1581 C1578 1.403 . S
C1581 C1582 1.392 . S
C1581 C1585 1.495 . S
C1582 C1581 1.392 . S
C1582 C1583 1.385 . S
C1582 C1584 1.478 . S
C1583 H1577 0.930 . S
C1583 C1579 1.400 . S
C1583 C1582 1.385 . S
C1584 C1582 1.478 . S
C1584 C1586 1.381 . S
C1584 C1590 1.383 . S
C1585 C1581 1.495 . S
C1585 H1591 0.959 . S
C1585 H1592 0.961 . S
C1585 H1593 0.960 . S
C1586 C1584 1.381 . S
C1586 C1587 1.394 . S
C1586 H1594 0.930 . S
C1587 C1586 1.394 . S
C1587 C1588 1.383 . S
C1587 H1595 0.929 . S
C1588 C1587 1.383 . S
C1588 C1589 1.377 . S
C1589 H1573 0.930 . S
C1589 C1588 1.377 . S
C1589 C1590 1.379 . S
C1590 H1574 0.931 . S
C1590 C1584 1.383 . S
C1590 C1589 1.379 . S
H1591 C1585 0.959 . S
H1592 C1585 0.961 . S
H1593 C1585 0.960 . S
H1594 C1586 0.930 . S
H1595 C1587 0.929 . S
H1596 C1604 0.929 . S
H1597 C1606 0.930 . S
H1598 C1608 0.930 . S
H1599 C1611 0.929 . S
H1600 C1614 0.930 . S
H1601 C1616 0.960 . S
H1602 C1616 0.960 . S
H1603 C1616 0.960 . S
C1604 H1596 0.929 . S
C1604 C1605 1.377 . S
C1604 C1606 1.384 . S
C1605 C1604 1.377 . S
C1605 C1611 1.390 . S
C1606 H1597 0.930 . S
C1606 C1604 1.384 . S
C1606 C1607 1.372 . S
C1607 C1606 1.372 . S
C1607 C1608 1.400 . S
C1607 C1612 1.490 . S
C1608 H1598 0.930 . S
C1608 C1607 1.400 . S
C1608 C1611 1.386 . S
H1609 C1625 0.930 . S
H1610 C1626 0.931 . S
C1611 H1599 0.929 . S
C1611 C1605 1.390 . S
C1611 C1608 1.386 . S
C1612 C1607 1.490 . S
C1612 C1614 1.395 . S
C1612 C1615 1.403 . S
H1613 C1619 0.930 . S
C1614 H1600 0.930 . S
C1614 C1612 1.395 . S
C1614 C1617 1.403 . S
C1615 C1612 1.403 . S
C1615 C1616 1.524 . S
C1615 C1619 1.400 . S
C1616 H1601 0.960 . S
C1616 H1602 0.960 . S
C1616 H1603 0.960 . S
C1616 C1615 1.524 . S
C1617 C1614 1.403 . S
C1617 C1618 1.392 . S
C1617 C1621 1.495 . S
C1618 C1617 1.392 . S
C1618 C1619 1.385 . S
C1618 C1620 1.478 . S
C1619 H1613 0.930 . S
C1619 C1615 1.400 . S
C1619 C1618 1.385 . S
C1620 C1618 1.478 . S
C1620 C1622 1.381 . S
C1620 C1626 1.383 . S
C1621 C1617 1.495 . S
C1621 H1627 0.959 . S
C1621 H1628 0.961 . S
C1621 H1629 0.960 . S
C1622 C1620 1.381 . S
C1622 C1623 1.394 . S
C1622 H1630 0.930 . S
C1623 C1622 1.394 . S
C1623 C1624 1.383 . S
C1623 H1631 0.929 . S
C1624 C1623 1.383 . S
C1624 C1625 1.377 . S
C1625 H1609 0.930 . S
C1625 C1624 1.377 . S
C1625 C1626 1.379 . S
C1626 H1610 0.931 . S
C1626 C1620 1.383 . S
C1626 C1625 1.379 . S
H1627 C1621 0.959 . S
H1628 C1621 0.961 . S
H1629 C1621 0.960 . S
H1630 C1622 0.930 . S
H1631 C1623 0.929 . S
H1632 C1640 0.929 . S
H1633 C1642 0.930 . S
H1634 C1644 0.930 . S
H1635 C1647 0.929 . S
H1636 C1650 0.930 . S
H1637 C1652 0.960 . S
H1638 C1652 0.960 . S
H1639 C1652 0.960 . S
C1640 H1632 0.929 . S
C1640 C1641 1.377 . S
C1640 C1642 1.384 . S
C1641 C1640 1.377 . S
C1641 C1647 1.390 . S
C1642 H1633 0.930 . S
C1642 C1640 1.384 . S
C1642 C1643 1.372 . S
C1643 C1642 1.372 . S
C1643 C1644 1.400 . S
C1643 C1648 1.490 . S
C1644 H1634 0.930 . S
C1644 C1643 1.400 . S
C1644 C1647 1.386 . S
H1645 C1661 0.930 . S
H1646 C1662 0.931 . S
C1647 H1635 0.929 . S
C1647 C1641 1.390 . S
C1647 C1644 1.386 . S
C1648 C1643 1.490 . S
C1648 C1650 1.395 . S
C1648 C1651 1.403 . S
H1649 C1655 0.930 . S
C1650 H1636 0.930 . S
C1650 C1648 1.395 . S
C1650 C1653 1.403 . S
C1651 C1648 1.403 . S
C1651 C1652 1.524 . S
C1651 C1655 1.400 . S
C1652 H1637 0.960 . S
C1652 H1638 0.960 . S
C1652 H1639 0.960 . S
C1652 C1651 1.524 . S
C1653 C1650 1.403 . S
C1653 C1654 1.392 . S
C1653 C1657 1.495 . S
C1654 C1653 1.392 . S
C1654 C1655 1.385 . S
C1654 C1656 1.478 . S
C1655 H1649 0.930 . S
C1655 C1651 1.400 . S
C1655 C1654 1.385 . S
C1656 C1654 1.478 . S
C1656 C1658 1.381 . S
C1656 C1662 1.383 . S
C1657 C1653 1.495 . S
C1657 H1663 0.959 . S
C1657 H1664 0.961 . S
C1657 H1665 0.960 . S
C1658 C1656 1.381 . S
C1658 C1659 1.394 . S
C1658 H1666 0.930 . S
C1659 C1658 1.394 . S
C1659 C1660 1.383 . S
C1659 H1667 0.929 . S
C1660 C1659 1.383 . S
C1660 C1661 1.377 . S
C1661 H1645 0.930 . S
C1661 C1660 1.377 . S
C1661 C1662 1.379 . S
C1662 H1646 0.931 . S
C1662 C1656 1.383 . S
C1662 C1661 1.379 . S
H1663 C1657 0.959 . S
H1664 C1657 0.961 . S
H1665 C1657 0.960 . S
H1666 C1658 0.930 . S
H1667 C1659 0.929 . S
H1668 C1676 0.929 . S
H1669 C1678 0.930 . S
H1670 C1680 0.930 . S
H1671 C1683 0.929 . S
H1672 C1686 0.930 . S
H1673 C1688 0.960 . S
H1674 C1688 0.960 . S
H1675 C1688 0.960 . S
C1676 H1668 0.929 . S
C1676 C1677 1.377 . S
C1676 C1678 1.384 . S
C1677 C1676 1.377 . S
C1677 C1683 1.390 . S
C1678 H1669 0.930 . S
C1678 C1676 1.384 . S
C1678 C1679 1.372 . S
C1679 C1678 1.372 . S
C1679 C1680 1.400 . S
C1679 C1684 1.490 . S
C1680 H1670 0.930 . S
C1680 C1679 1.400 . S
C1680 C1683 1.386 . S
H1681 C1697 0.930 . S
H1682 C1698 0.931 . S
C1683 H1671 0.929 . S
C1683 C1677 1.390 . S
C1683 C1680 1.386 . S
C1684 C1679 1.490 . S
C1684 C1686 1.395 . S
C1684 C1687 1.403 . S
H1685 C1691 0.930 . S
C1686 H1672 0.930 . S
C1686 C1684 1.395 . S
C1686 C1689 1.403 . S
C1687 C1684 1.403 . S
C1687 C1688 1.524 . S
C1687 C1691 1.400 . S
C1688 H1673 0.960 . S
C1688 H1674 0.960 . S
C1688 H1675 0.960 . S
C1688 C1687 1.524 . S
C1689 C1686 1.403 . S
C1689 C1690 1.392 . S
C1689 C1693 1.495 . S
C1690 C1689 1.392 . S
C1690 C1691 1.385 . S
C1690 C1692 1.478 . S
C1691 H1685 0.930 . S
C1691 C1687 1.400 . S
C1691 C1690 1.385 . S
C1692 C1690 1.478 . S
C1692 C1694 1.381 . S
C1692 C1698 1.383 . S
C1693 C1689 1.495 . S
C1693 H1699 0.959 . S
C1693 H1700 0.961 . S
C1693 H1701 0.960 . S
C1694 C1692 1.381 . S
C1694 C1695 1.394 . S
C1694 H1702 0.930 . S
C1695 C1694 1.394 . S
C1695 C1696 1.383 . S
C1695 H1703 0.929 . S
C1696 C1695 1.383 . S
C1696 C1697 1.377 . S
C1697 H1681 0.930 . S
C1697 C1696 1.377 . S
C1697 C1698 1.379 . S
C1698 H1682 0.931 . S
C1698 C1692 1.383 . S
C1698 C1697 1.379 . S
H1699 C1693 0.959 . S
H1700 C1693 0.961 . S
H1701 C1693 0.960 . S
H1702 C1694 0.930 . S
H1703 C1695 0.929 . S
H1704 C1712 0.929 . S
H1705 C1714 0.930 . S
H1706 C1716 0.930 . S
H1707 C1719 0.929 . S
H1708 C1722 0.930 . S
H1709 C1724 0.960 . S
H1710 C1724 0.960 . S
H1711 C1724 0.960 . S
C1712 H1704 0.929 . S
C1712 C1713 1.377 . S
C1712 C1714 1.384 . S
C1713 C1712 1.377 . S
C1713 C1719 1.390 . S
C1714 H1705 0.930 . S
C1714 C1712 1.384 . S
C1714 C1715 1.372 . S
C1715 C1714 1.372 . S
C1715 C1716 1.400 . S
C1715 C1720 1.490 . S
C1716 H1706 0.930 . S
C1716 C1715 1.400 . S
C1716 C1719 1.386 . S
H1717 C1733 0.930 . S
H1718 C1734 0.931 . S
C1719 H1707 0.929 . S
C1719 C1713 1.390 . S
C1719 C1716 1.386 . S
C1720 C1715 1.490 . S
C1720 C1722 1.395 . S
C1720 C1723 1.403 . S
H1721 C1727 0.930 . S
C1722 H1708 0.930 . S
C1722 C1720 1.395 . S
C1722 C1725 1.403 . S
C1723 C1720 1.403 . S
C1723 C1724 1.524 . S
C1723 C1727 1.400 . S
C1724 H1709 0.960 . S
C1724 H1710 0.960 . S
C1724 H1711 0.960 . S
C1724 C1723 1.524 . S
C1725 C1722 1.403 . S
C1725 C1726 1.392 . S
C1725 C1729 1.495 . S
C1726 C1725 1.392 . S
C1726 C1727 1.385 . S
C1726 C1728 1.478 . S
C1727 H1721 0.930 . S
C1727 C1723 1.400 . S
C1727 C1726 1.385 . S
C1728 C1726 1.478 . S
C1728 C1730 1.381 . S
C1728 C1734 1.383 . S
C1729 C1725 1.495 . S
C1729 H1735 0.959 . S
C1729 H1736 0.961 . S
C1729 H1737 0.960 . S
C1730 C1728 1.381 . S
C1730 C1731 1.394 . S
C1730 H1738 0.930 . S
C1731 C1730 1.394 . S
C1731 C1732 1.383 . S
C1731 H1739 0.929 . S
C1732 C1731 1.383 . S
C1732 C1733 1.377 . S
C1733 H1717 0.930 . S
C1733 C1732 1.377 . S
C1733 C1734 1.379 . S
C1734 H1718 0.931 . S
C1734 C1728 1.383 . S
C1734 C1733 1.379 . S
H1735 C1729 0.959 . S
H1736 C1729 0.961 . S
H1737 C1729 0.960 . S
H1738 C1730 0.930 . S
H1739 C1731 0.929 . S
H1740 C1748 0.929 . S
H1741 C1750 0.930 . S
H1742 C1752 0.930 . S
H1743 C1755 0.929 . S
H1744 C1758 0.930 . S
H1745 C1760 0.960 . S
H1746 C1760 0.960 . S
H1747 C1760 0.960 . S
C1748 H1740 0.929 . S
C1748 C1749 1.377 . S
C1748 C1750 1.384 . S
C1749 C1748 1.377 . S
C1749 C1755 1.390 . S
C1750 H1741 0.930 . S
C1750 C1748 1.384 . S
C1750 C1751 1.372 . S
C1751 C1750 1.372 . S
C1751 C1752 1.400 . S
C1751 C1756 1.490 . S
C1752 H1742 0.930 . S
C1752 C1751 1.400 . S
C1752 C1755 1.386 . S
H1753 C1769 0.930 . S
H1754 C1770 0.931 . S
C1755 H1743 0.929 . S
C1755 C1749 1.390 . S
C1755 C1752 1.386 . S
C1756 C1751 1.490 . S
C1756 C1758 1.395 . S
C1756 C1759 1.403 . S
H1757 C1763 0.930 . S
C1758 H1744 0.930 . S
C1758 C1756 1.395 . S
C1758 C1761 1.403 . S
C1759 C1756 1.403 . S
C1759 C1760 1.524 . S
C1759 C1763 1.400 . S
C1760 H1745 0.960 . S
C1760 H1746 0.960 . S
C1760 H1747 0.960 . S
C1760 C1759 1.524 . S
C1761 C1758 1.403 . S
C1761 C1762 1.392 . S
C1761 C1765 1.495 . S
C1762 C1761 1.392 . S
C1762 C1763 1.385 . S
C1762 C1764 1.478 . S
C1763 H1757 0.930 . S
C1763 C1759 1.400 . S
C1763 C1762 1.385 . S
C1764 C1762 1.478 . S
C1764 C1766 1.381 . S
C1764 C1770 1.383 . S
C1765 C1761 1.495 . S
C1765 H1771 0.959 . S
C1765 H1772 0.961 . S
C1765 H1773 0.960 . S
C1766 C1764 1.381 . S
C1766 C1767 1.394 . S
C1766 H1774 0.930 . S
C1767 C1766 1.394 . S
C1767 C1768 1.383 . S
C1767 H1775 0.929 . S
C1768 C1767 1.383 . S
C1768 C1769 1.377 . S
C1769 H1753 0.930 . S
C1769 C1768 1.377 . S
C1769 C1770 1.379 . S
C1770 H1754 0.931 . S
C1770 C1764 1.383 . S
C1770 C1769 1.379 . S
H1771 C1765 0.959 . S
H1772 C1765 0.961 . S
H1773 C1765 0.960 . S
H1774 C1766 0.930 . S
H1775 C1767 0.929 . S
H1776 C1784 0.929 . S
H1777 C1786 0.930 . S
H1778 C1788 0.930 . S
H1779 C1791 0.929 . S
H1780 C1794 0.930 . S
H1781 C1796 0.960 . S
H1782 C1796 0.960 . S
H1783 C1796 0.960 . S
C1784 H1776 0.929 . S
C1784 C1785 1.377 . S
C1784 C1786 1.384 . S
C1785 C1784 1.377 . S
C1785 C1791 1.390 . S
C1786 H1777 0.930 . S
C1786 C1784 1.384 . S
C1786 C1787 1.372 . S
C1787 C1786 1.372 . S
C1787 C1788 1.400 . S
C1787 C1792 1.490 . S
C1788 H1778 0.930 . S
C1788 C1787 1.400 . S
C1788 C1791 1.386 . S
H1789 C1805 0.930 . S
H1790 C1806 0.931 . S
C1791 H1779 0.929 . S
C1791 C1785 1.390 . S
C1791 C1788 1.386 . S
C1792 C1787 1.490 . S
C1792 C1794 1.395 . S
C1792 C1795 1.403 . S
H1793 C1799 0.930 . S
C1794 H1780 0.930 . S
C1794 C1792 1.395 . S
C1794 C1797 1.403 . S
C1795 C1792 1.403 . S
C1795 C1796 1.524 . S
C1795 C1799 1.400 . S
C1796 H1781 0.960 . S
C1796 H1782 0.960 . S
C1796 H1783 0.960 . S
C1796 C1795 1.524 . S
C1797 C1794 1.403 . S
C1797 C1798 1.392 . S
C1797 C1801 1.495 . S
C1798 C1797 1.392 . S
C1798 C1799 1.385 . S
C1798 C1800 1.478 . S
C1799 H1793 0.930 . S
C1799 C1795 1.400 . S
C1799 C1798 1.385 . S
C1800 C1798 1.478 . S
C1800 C1802 1.381 . S
C1800 C1806 1.383 . S
C1801 C1797 1.495 . S
C1801 H1807 0.959 . S
C1801 H1808 0.961 . S
C1801 H1809 0.960 . S
C1802 C1800 1.381 . S
C1802 C1803 1.394 . S
C1802 H1810 0.930 . S
C1803 C1802 1.394 . S
C1803 C1804 1.383 . S
C1803 H1811 0.929 . S
C1804 C1803 1.383 . S
C1804 C1805 1.377 . S
C1805 H1789 0.930 . S
C1805 C1804 1.377 . S
C1805 C1806 1.379 . S
C1806 H1790 0.931 . S
C1806 C1800 1.383 . S
C1806 C1805 1.379 . S
H1807 C1801 0.959 . S
H1808 C1801 0.961 . S
H1809 C1801 0.960 . S
H1810 C1802 0.930 . S
H1811 C1803 0.929 . S
H1812 C1820 0.929 . S
H1813 C1822 0.930 . S
H1814 C1824 0.930 . S
H1815 C1827 0.929 . S
H1816 C1830 0.930 . S
H1817 C1832 0.960 . S
H1818 C1832 0.960 . S
H1819 C1832 0.960 . S
C1820 H1812 0.929 . S
C1820 C1821 1.377 . S
C1820 C1822 1.384 . S
C1821 C1820 1.377 . S
C1821 C1827 1.390 . S
C1822 H1813 0.930 . S
C1822 C1820 1.384 . S
C1822 C1823 1.372 . S
C1823 C1822 1.372 . S
C1823 C1824 1.400 . S
C1823 C1828 1.490 . S
C1824 H1814 0.930 . S
C1824 C1823 1.400 . S
C1824 C1827 1.386 . S
H1825 C1841 0.930 . S
H1826 C1842 0.931 . S
C1827 H1815 0.929 . S
C1827 C1821 1.390 . S
C1827 C1824 1.386 . S
C1828 C1823 1.490 . S
C1828 C1830 1.395 . S
C1828 C1831 1.403 . S
H1829 C1835 0.930 . S
C1830 H1816 0.930 . S
C1830 C1828 1.395 . S
C1830 C1833 1.403 . S
C1831 C1828 1.403 . S
C1831 C1832 1.524 . S
C1831 C1835 1.400 . S
C1832 H1817 0.960 . S
C1832 H1818 0.960 . S
C1832 H1819 0.960 . S
C1832 C1831 1.524 . S
C1833 C1830 1.403 . S
C1833 C1834 1.392 . S
C1833 C1837 1.495 . S
C1834 C1833 1.392 . S
C1834 C1835 1.385 . S
C1834 C1836 1.478 . S
C1835 H1829 0.930 . S
C1835 C1831 1.400 . S
C1835 C1834 1.385 . S
C1836 C1834 1.478 . S
C1836 C1838 1.381 . S
C1836 C1842 1.383 . S
C1837 C1833 1.495 . S
C1837 H1843 0.959 . S
C1837 H1844 0.961 . S
C1837 H1845 0.960 . S
C1838 C1836 1.381 . S
C1838 C1839 1.394 . S
C1838 H1846 0.930 . S
C1839 C1838 1.394 . S
C1839 C1840 1.383 . S
C1839 H1847 0.929 . S
C1840 C1839 1.383 . S
C1840 C1841 1.377 . S
C1841 H1825 0.930 . S
C1841 C1840 1.377 . S
C1841 C1842 1.379 . S
C1842 H1826 0.931 . S
C1842 C1836 1.383 . S
C1842 C1841 1.379 . S
H1843 C1837 0.959 . S
H1844 C1837 0.961 . S
H1845 C1837 0.960 . S
H1846 C1838 0.930 . S
H1847 C1839 0.929 . S
H1848 C1856 0.929 . S
H1849 C1858 0.930 . S
H1850 C1860 0.930 . S
H1851 C1863 0.929 . S
H1852 C1866 0.930 . S
H1853 C1868 0.960 . S
H1854 C1868 0.960 . S
H1855 C1868 0.960 . S
C1856 H1848 0.929 . S
C1856 C1857 1.377 . S
C1856 C1858 1.384 . S
C1857 C1856 1.377 . S
C1857 C1863 1.390 . S
C1858 H1849 0.930 . S
C1858 C1856 1.384 . S
C1858 C1859 1.372 . S
C1859 C1858 1.372 . S
C1859 C1860 1.400 . S
C1859 C1864 1.490 . S
C1860 H1850 0.930 . S
C1860 C1859 1.400 . S
C1860 C1863 1.386 . S
H1861 C1877 0.930 . S
H1862 C1878 0.931 . S
C1863 H1851 0.929 . S
C1863 C1857 1.390 . S
C1863 C1860 1.386 . S
C1864 C1859 1.490 . S
C1864 C1866 1.395 . S
C1864 C1867 1.403 . S
H1865 C1871 0.930 . S
C1866 H1852 0.930 . S
C1866 C1864 1.395 . S
C1866 C1869 1.403 . S
C1867 C1864 1.403 . S
C1867 C1868 1.524 . S
C1867 C1871 1.400 . S
C1868 H1853 0.960 . S
C1868 H1854 0.960 . S
C1868 H1855 0.960 . S
C1868 C1867 1.524 . S
C1869 C1866 1.403 . S
C1869 C1870 1.392 . S
C1869 C1873 1.495 . S
C1870 C1869 1.392 . S
C1870 C1871 1.385 . S
C1870 C1872 1.478 . S
C1871 H1865 0.930 . S
C1871 C1867 1.400 . S
C1871 C1870 1.385 . S
C1872 C1870 1.478 . S
C1872 C1874 1.381 . S
C1872 C1878 1.383 . S
C1873 C1869 1.495 . S
C1873 H1879 0.959 . S
C1873 H1880 0.961 . S
C1873 H1881 0.960 . S
C1874 C1872 1.381 . S
C1874 C1875 1.394 . S
C1874 H1882 0.930 . S
C1875 C1874 1.394 . S
C1875 C1876 1.383 . S
C1875 H1883 0.929 . S
C1876 C1875 1.383 . S
C1876 C1877 1.377 . S
C1877 H1861 0.930 . S
C1877 C1876 1.377 . S
C1877 C1878 1.379 . S
C1878 H1862 0.931 . S
C1878 C1872 1.383 . S
C1878 C1877 1.379 . S
H1879 C1873 0.959 . S
H1880 C1873 0.961 . S
H1881 C1873 0.960 . S
H1882 C1874 0.930 . S
H1883 C1875 0.929 . S
H1884 C1892 0.929 . S
H1885 C1894 0.930 . S
H1886 C1896 0.930 . S
H1887 C1899 0.929 . S
H1888 C1902 0.930 . S
H1889 C1904 0.960 . S
H1890 C1904 0.960 . S
H1891 C1904 0.960 . S
C1892 H1884 0.929 . S
C1892 C1893 1.377 . S
C1892 C1894 1.384 . S
C1893 C1892 1.377 . S
C1893 C1899 1.390 . S
C1894 H1885 0.930 . S
C1894 C1892 1.384 . S
C1894 C1895 1.372 . S
C1895 C1894 1.372 . S
C1895 C1896 1.400 . S
C1895 C1900 1.490 . S
C1896 H1886 0.930 . S
C1896 C1895 1.400 . S
C1896 C1899 1.386 . S
H1897 C1913 0.930 . S
H1898 C1914 0.931 . S
C1899 H1887 0.929 . S
C1899 C1893 1.390 . S
C1899 C1896 1.386 . S
C1900 C1895 1.490 . S
C1900 C1902 1.395 . S
C1900 C1903 1.403 . S
H1901 C1907 0.930 . S
C1902 H1888 0.930 . S
C1902 C1900 1.395 . S
C1902 C1905 1.403 . S
C1903 C1900 1.403 . S
C1903 C1904 1.524 . S
C1903 C1907 1.400 . S
C1904 H1889 0.960 . S
C1904 H1890 0.960 . S
C1904 H1891 0.960 . S
C1904 C1903 1.524 . S
C1905 C1902 1.403 . S
C1905 C1906 1.392 . S
C1905 C1909 1.495 . S
C1906 C1905 1.392 . S
C1906 C1907 1.385 . S
C1906 C1908 1.478 . S
C1907 H1901 0.930 . S
C1907 C1903 1.400 . S
C1907 C1906 1.385 . S
C1908 C1906 1.478 . S
C1908 C1910 1.381 . S
C1908 C1914 1.383 . S
C1909 C1905 1.495 . S
C1909 H1915 0.959 . S
C1909 H1916 0.961 . S
C1909 H1917 0.960 . S
C1910 C1908 1.381 . S
C1910 C1911 1.394 . S
C1910 H1918 0.930 . S
C1911 C1910 1.394 . S
C1911 C1912 1.383 . S
C1911 H1919 0.929 . S
C1912 C1911 1.383 . S
C1912 C1913 1.377 . S
C1913 H1897 0.930 . S
C1913 C1912 1.377 . S
C1913 C1914 1.379 . S
C1914 H1898 0.931 . S
C1914 C1908 1.383 . S
C1914 C1913 1.379 . S
H1915 C1909 0.959 . S
H1916 C1909 0.961 . S
H1917 C1909 0.960 . S
H1918 C1910 0.930 . S
H1919 C1911 0.929 . S
C1065 C49 1.143 . S
C1084 C469 1.151 1_655 S
C1101 C145 1.146 . S
C1120 C401 1.142 1_565 S
C1137 C489 1.142 . S
C1156 C225 1.149 . S
C1173 C313 1.142 1_565 S
C1192 C381 1.149 1_565 S
C1209 C636 1.142 1_655 S
C1228 C205 1.141 1_655 S
C1245 C548 1.143 1_565 S
C1264 C293 1.151 . S
C1281 C29 1.145 . S
C1300 C673 1.133 . S
C1317 C585 1.143 . S
C1336 C108 1.151 1_565 S
C1353 C849 1.145 . S
C1372 C733 1.132 . S
C1389 C753 1.144 . S
C1408 C997 1.132 1_556 S
C1425 C812 1.144 . S
C1444 C937 1.149 1_556 S
C1461 C900 1.143 . S
C1480 C1017 1.151 1_556 S
C1497 C1025 1.144 . S
C1516 C557 1.156 . S
C1533 C761 1.145 . S
C1552 C665 1.135 . S
C1569 C577 1.142 . S
C1588 C841 1.140 . S
C1605 C645 1.146 . S
C1624 C929 1.151 . S
C1641 C372 1.142 . S
C1660 C821 1.135 . S
C1677 C460 1.145 . S
C1696 C909 1.132 . S
C1713 C988 1.144 . S
C1732 C409 1.132 . S
C1749 C724 1.144 . S
C1768 C497 1.127 . S
C1785 C117 1.144 . S
C1804 C233 1.136 . S
C1821 C20 1.144 . S
C1840 C137 1.133 . S
C1857 C196 1.143 . S
C1876 C321 1.151 . S
C1893 C57 1.143 . S
C1912 C284 1.147 . S
