# Generated by pormake.
# Topology ukh, (4)-cn, num edge types: 1
# Building blocks:
#     Node 0, Type 0, BuildingBlock: AZAVOO_clean_sbu_0, # of connection points: 4
#     Node 1, Type 0, BuildingBlock: AZAVOO_clean_sbu_0, # of connection points: 4
#     Node 2, Type 0, BuildingBlock: AZAVOO_clean_sbu_0, # of connection points: 4
#     Node 3, Type 0, BuildingBlock: AZAVOO_clean_sbu_0, # of connection points: 4
#     Node 4, Type 0, BuildingBlock: AZAVOO_clean_sbu_0, # of connection points: 4
#     Node 5, Type 0, BuildingBlock: AZAVOO_clean_sbu_0, # of connection points: 4
#     Node 6, Type 0, BuildingBlock: AZAVOO_clean_sbu_0, # of connection points: 4
#     Node 7, Type 0, BuildingBlock: AZAVOO_clean_sbu_0, # of connection points: 4
#     Node 8, Type 0, BuildingBlock: AZAVOO_clean_sbu_0, # of connection points: 4
#     Node 9, Type 0, BuildingBlock: AZAVOO_clean_sbu_0, # of connection points: 4
#     Node 10, Type 0, BuildingBlock: AZAVOO_clean_sbu_0, # of connection points: 4
#     Node 11, Type 0, BuildingBlock: AZAVOO_clean_sbu_0, # of connection points: 4
#     Edge 12, Type (0, 0), BuildingBlock: XIVTED_clean_linker_0, # of connection points: 2
#     Edge 13, Type (0, 0), BuildingBlock: XIVTED_clean_linker_0, # of connection points: 2
#     Edge 14, Type (0, 0), BuildingBlock: XIVTED_clean_linker_0, # of connection points: 2
#     Edge 15, Type (0, 0), BuildingBlock: XIVTED_clean_linker_0, # of connection points: 2
#     Edge 16, Type (0, 0), BuildingBlock: XIVTED_clean_linker_0, # of connection points: 2
#     Edge 17, Type (0, 0), BuildingBlock: XIVTED_clean_linker_0, # of connection points: 2
#     Edge 18, Type (0, 0), BuildingBlock: XIVTED_clean_linker_0, # of connection points: 2
#     Edge 19, Type (0, 0), BuildingBlock: XIVTED_clean_linker_0, # of connection points: 2
#     Edge 20, Type (0, 0), BuildingBlock: XIVTED_clean_linker_0, # of connection points: 2
#     Edge 21, Type (0, 0), BuildingBlock: XIVTED_clean_linker_0, # of connection points: 2
#     Edge 22, Type (0, 0), BuildingBlock: XIVTED_clean_linker_0, # of connection points: 2
#     Edge 23, Type (0, 0), BuildingBlock: XIVTED_clean_linker_0, # of connection points: 2
#     Edge 24, Type (0, 0), BuildingBlock: XIVTED_clean_linker_0, # of connection points: 2
#     Edge 25, Type (0, 0), BuildingBlock: XIVTED_clean_linker_0, # of connection points: 2
#     Edge 26, Type (0, 0), BuildingBlock: XIVTED_clean_linker_0, # of connection points: 2
#     Edge 27, Type (0, 0), BuildingBlock: XIVTED_clean_linker_0, # of connection points: 2
#     Edge 28, Type (0, 0), BuildingBlock: XIVTED_clean_linker_0, # of connection points: 2
#     Edge 29, Type (0, 0), BuildingBlock: XIVTED_clean_linker_0, # of connection points: 2
#     Edge 30, Type (0, 0), BuildingBlock: XIVTED_clean_linker_0, # of connection points: 2
#     Edge 31, Type (0, 0), BuildingBlock: XIVTED_clean_linker_0, # of connection points: 2
#     Edge 32, Type (0, 0), BuildingBlock: XIVTED_clean_linker_0, # of connection points: 2
#     Edge 33, Type (0, 0), BuildingBlock: XIVTED_clean_linker_0, # of connection points: 2
#     Edge 34, Type (0, 0), BuildingBlock: XIVTED_clean_linker_0, # of connection points: 2
#     Edge 35, Type (0, 0), BuildingBlock: XIVTED_clean_linker_0, # of connection points: 2
# Relax obj value: 0.220
# Max RMSD: 0.237
# Mean RMSD: 0.237
data_MOF--net-ukh--node1-AZAVOO_clean_sbu_0--edge1-XIVTED_clean_linker_0
_symmetry_space_group_name_H-M    P1
_symmetry_Int_Tables_number       1
_symmetry_cell_setting            triclinic
loop_
_symmetry_equiv_pos_as_xyz
'x, y, z'
_cell_length_a     31.437965
_cell_length_b     31.445251
_cell_length_c     61.941054
_cell_angle_alpha  90.29265
_cell_angle_beta   89.83274
_cell_angle_gamma 119.92619
loop_
_atom_site_label
_atom_site_type_symbol
_atom_site_fract_x
_atom_site_fract_y
_atom_site_fract_z
_atom_type_partial_charge
Mg0 Mg 0.38161 0.27171 0.03916 0.0
O1 O 0.31017 0.25814 0.02118 0.0
O2 O 0.25391 0.18172 0.03052 0.0
Mg3 Mg 0.28402 0.14612 0.05274 0.0
C4 C 0.26644 0.22131 0.02025 0.0
C5 C 0.43606 0.37639 0.015 0.0
O6 O 0.42064 0.35036 -0.00285 0.0
O7 O 0.35297 0.28048 0.0719 0.0
O8 O 0.29803 0.20205 0.07913 0.0
O9 O 0.40351 0.23584 0.01268 0.0
O10 O 0.35674 0.1972 0.04042 0.0
C11 C 0.32177 0.24733 0.08444 0.0
C12 C 0.37858 0.19539 0.02332 0.0
O13 O 0.42333 0.35481 0.03316 0.0
Mg14 Mg 0.01482 0.242 0.36103 0.0
O15 O 0.94909 0.16479 0.35146 0.0
O16 O 0.96573 0.11193 0.36828 0.0
Mg17 Mg 0.03817 0.14929 0.38631 0.0
C18 C 0.93824 0.12081 0.35621 0.0
C19 C 0.9965 0.31979 0.33769 0.0
O20 O 0.03576 0.32638 0.32725 0.0
O21 O 0.98816 0.23656 0.39575 0.0
O22 O 0.00984 0.18483 0.40996 0.0
O23 O 0.06227 0.24309 0.33303 0.0
O24 O 0.05872 0.21102 0.36489 0.0
C25 C 0.99285 0.21399 0.41184 0.0
C26 C 0.07666 0.22037 0.34585 0.0
O27 O 0.9764 0.28489 0.35123 0.0
Mg28 Mg 0.76953 0.08894 0.70664 0.0
O29 O 0.77748 0.02267 0.694 0.0
O30 O 0.85138 0.03954 0.706 0.0
Mg31 Mg 0.89207 0.1123 0.7237 0.0
C32 C 0.81156 0.01173 0.69591 0.0
C33 C 0.66601 0.04554 0.68246 0.0
O34 O 0.69342 0.05821 0.66501 0.0
O35 O 0.75877 0.06275 0.74178 0.0
O36 O 0.83581 0.08357 0.75062 0.0
O37 O 0.80733 0.1358 0.67721 0.0
O38 O 0.84515 0.13312 0.70651 0.0
C39 C 0.79083 0.06679 0.75554 0.0
C40 C 0.84797 0.15052 0.68763 0.0
O41 O 0.68614 0.05076 0.70083 0.0
Mg42 Mg 0.77807 0.82927 0.03696 0.0
O43 O 0.85474 0.83805 0.02951 0.0
O44 O 0.90793 0.90572 0.04755 0.0
Mg45 Mg 0.87037 0.94338 0.06387 0.0
C46 C 0.89863 0.86928 0.03531 0.0
C47 C 0.69795 0.7321 0.01477 0.0
O48 O 0.68713 0.7636 0.00613 0.0
O49 O 0.77862 0.80743 0.07196 0.0
O50 O 0.82756 0.88049 0.08717 0.0
O51 O 0.78263 0.87656 0.0084 0.0
O52 O 0.81088 0.90425 0.04097 0.0
C53 C 0.79719 0.8346 0.08863 0.0
C54 C 0.80505 0.9134 0.0215 0.0
O55 O 0.73564 0.74811 0.02683 0.0
Mg56 Mg 0.88839 0.66265 0.3628 0.0
O57 O 0.94693 0.7343 0.34533 0.0
O58 O 0.92783 0.79096 0.35583 0.0
Mg59 Mg 0.86192 0.76085 0.37803 0.0
C60 C 0.95448 0.77833 0.34511 0.0
C61 C 0.92691 0.59884 0.33818 0.0
O62 O 0.90667 0.60705 0.32137 0.0
O63 O 0.92601 0.68994 0.39547 0.0
O64 O 0.90258 0.7445 0.40406 0.0
O65 O 0.83087 0.64188 0.3366 0.0
O66 O 0.83948 0.68862 0.36457 0.0
C67 C 0.92383 0.72015 0.4087 0.0
C68 C 0.81565 0.667 0.34748 0.0
O69 O 0.92844 0.61959 0.35609 0.0
Mg70 Mg 0.20935 0.93022 0.69644 0.0
O71 O 0.19376 0.99022 0.68243 0.0
O72 O 0.11913 0.96886 0.69534 0.0
Mg73 Mg 0.08526 0.89904 0.71515 0.0
C74 C 0.15713 0.99739 0.68431 0.0
C75 C 0.31085 0.95494 0.67638 0.0
O76 O 0.28129 0.91522 0.66537 0.0
O77 O 0.22141 0.96345 0.73039 0.0
O78 O 0.14384 0.93579 0.74077 0.0
O79 O 0.17116 0.87726 0.66841 0.0
O80 O 0.13482 0.88165 0.69801 0.0
C81 C 0.18972 0.95768 0.74479 0.0
C82 C 0.13131 0.86197 0.67955 0.0
O83 O 0.29234 0.97299 0.68929 0.0
Mg84 Mg 0.7678 0.61805 0.60205 0.0
O85 O 0.78669 0.69521 0.61457 0.0
O86 O 0.8672 0.73634 0.62117 0.0
Mg87 Mg 0.90084 0.68991 0.61062 0.0
C88 C 0.82521 0.7334 0.6214 0.0
C89 C 0.65886 0.55817 0.5891 0.0
O90 O 0.67228 0.52472 0.58883 0.0
O91 O 0.79845 0.648 0.56834 0.0
O92 O 0.87887 0.69129 0.57589 0.0
O93 O 0.76499 0.59636 0.63695 0.0
O94 O 0.83 0.6235 0.61579 0.0
C95 C 0.84318 0.67583 0.56265 0.0
C96 C 0.81114 0.61061 0.63462 0.0
O97 O 0.69069 0.60225 0.59367 0.0
Mg98 Mg 0.24791 0.83823 0.93482 0.0
O99 O 0.19285 0.85521 0.95171 0.0
O100 O 0.22944 0.93604 0.95732 0.0
Mg101 Mg 0.30699 0.97143 0.94272 0.0
C102 C 0.19233 0.89294 0.95905 0.0
C103 C 0.19749 0.72831 0.92298 0.0
O104 O 0.244 0.74202 0.92008 0.0
O105 O 0.23478 0.86603 0.90285 0.0
O106 O 0.27602 0.94729 0.90891 0.0
O107 O 0.27951 0.83847 0.96763 0.0
O108 O 0.30694 0.90225 0.94589 0.0
C109 C 0.25127 0.9103 0.89663 0.0
C110 C 0.30901 0.88474 0.96419 0.0
O111 O 0.18615 0.76013 0.92892 0.0
Mg112 Mg 0.36528 0.14603 0.27945 0.0
O113 O 0.28443 0.08434 0.28305 0.0
O114 O 0.23831 0.11891 0.28874 0.0
Mg115 Mg 0.28791 0.20207 0.28633 0.0
C116 C 0.24295 0.08097 0.28695 0.0
C117 C 0.37163 0.05176 0.28183 0.0
O118 O 0.34585 0.04854 0.2991 0.0
O119 O 0.35188 0.16172 0.24456 0.0
O120 O 0.30412 0.19445 0.25134 0.0
O121 O 0.36864 0.14787 0.31581 0.0
O122 O 0.35137 0.19522 0.29576 0.0
C123 C 0.3263 0.18073 0.23823 0.0
C124 C 0.35418 0.17978 0.3145 0.0
O125 O 0.38548 0.08841 0.2694 0.0
Mg126 Mg 0.19226 0.39123 0.59547 0.0
O127 O 0.17528 0.31511 0.6081 0.0
O128 O 0.09627 0.2746 0.61766 0.0
Mg129 Mg 0.06131 0.32085 0.60912 0.0
C130 C 0.13809 0.27738 0.61602 0.0
C131 C 0.30121 0.4518 0.58516 0.0
O132 O 0.28845 0.48468 0.58993 0.0
O133 O 0.15562 0.35728 0.56281 0.0
O134 O 0.07736 0.31549 0.57392 0.0
O135 O 0.20178 0.41596 0.63025 0.0
O136 O 0.13291 0.38722 0.6117 0.0
C137 C 0.1098 0.32864 0.55916 0.0
C138 C 0.15534 0.40142 0.6298 0.0
O139 O 0.26826 0.40673 0.58501 0.0
Mg140 Mg 0.90487 0.26467 0.94249 0.0
O141 O 0.96678 0.24694 0.94949 0.0
O142 O 0.93058 0.16795 0.95874 0.0
Mg143 Mg 0.8474 0.13444 0.95639 0.0
C144 C 0.96912 0.20944 0.95569 0.0
C145 C 0.94842 0.37127 0.92903 0.0
O146 O 0.90368 0.35875 0.93523 0.0
O147 O 0.88787 0.22586 0.90933 0.0
O148 O 0.85313 0.14776 0.92031 0.0
O149 O 0.90342 0.27698 0.97833 0.0
O150 O 0.85575 0.20718 0.96123 0.0
C151 C 0.86713 0.17974 0.90537 0.0
C152 C 0.87086 0.2308 0.97907 0.0
O153 O 0.96142 0.33895 0.92916 0.0
Mg154 Mg 0.54891 0.75962 0.26634 0.0
O155 O 0.62396 0.81853 0.27953 0.0
O156 O 0.67097 0.7842 0.2828 0.0
Mg157 Mg 0.62807 0.705 0.26998 0.0
C158 C 0.66424 0.82087 0.28494 0.0
C159 C 0.48481 0.80599 0.26977 0.0
O160 O 0.45864 0.7624 0.27849 0.0
O161 O 0.58196 0.7707 0.2323 0.0
O162 O 0.62548 0.73238 0.23651 0.0
O163 O 0.5277 0.73268 0.30059 0.0
O164 O 0.55935 0.70334 0.27701 0.0
C165 C 0.60935 0.75462 0.22489 0.0
C166 C 0.54552 0.70428 0.29636 0.0
O167 O 0.52692 0.81798 0.2622 0.0
H168 H 0.69235 0.65835 0.04016 0.0
H169 H 0.46109 0.43951 0.9806 0.0
H170 H 0.62232 0.6841 0.98596 0.0
H171 H 0.49643 0.43404 0.04744 0.0
H172 H 0.52649 0.52591 0.97938 0.0
H173 H 0.62836 0.57184 0.03971 0.0
C174 C 0.66392 0.64573 0.02797 0.0
C175 C 0.66268 0.67864 0.0131 0.0
C176 C 0.51968 0.50571 -0.0057 0.0
C177 C 0.5892 0.57954 0.01256 0.0
C178 C 0.4824 0.45647 -0.00498 0.0
C179 C 0.47309 0.42947 0.01417 0.0
C180 C 0.5485 0.52777 0.01272 0.0
C181 C 0.50198 0.45339 0.03236 0.0
C182 C 0.62717 0.59641 0.02785 0.0
C183 C 0.62463 0.66009 -0.00222 0.0
N184 N 0.53856 0.50093 0.03113 0.0
N185 N 0.58943 0.61178 -0.00213 0.0
H186 H 0.94186 0.33834 0.36678 0.0
H187 H 0.9462 0.55928 0.30237 0.0
H188 H 0.01788 0.38815 0.30597 0.0
H189 H 0.93701 0.54853 0.37184 0.0
H190 H 0.96122 0.48973 0.30129 0.0
H191 H 0.92604 0.4071 0.36651 0.0
C192 C 0.95459 0.36327 0.3532 0.0
C193 C 0.98131 0.35747 0.33637 0.0
C194 C 0.95616 0.50288 0.31675 0.0
C195 C 0.96336 0.43633 0.33603 0.0
C196 C 0.94767 0.54256 0.31739 0.0
C197 C 0.94053 0.55993 0.33723 0.0
C198 C 0.95636 0.4797 0.33604 0.0
C199 C 0.94266 0.53668 0.35618 0.0
C200 C 0.94594 0.40277 0.35317 0.0
C201 C 0.99726 0.39129 0.3193 0.0
N202 N 0.94986 0.49751 0.3551 0.0
N203 N 0.98794 0.42921 0.31953 0.0
H204 H 0.38014 0.01507 0.7059 0.0
H205 H 0.6067 0.01539 0.64662 0.0
H206 H 0.36384 0.93617 0.64647 0.0
H207 H 0.60516 0.04305 0.71485 0.0
H208 H 0.521 0.99605 0.64429 0.0
H209 H 0.46671 0.03726 0.70714 0.0
C210 C 0.39487 0.00297 0.69295 0.0
C211 C 0.36457 0.9736 0.67607 0.0
C212 C 0.53944 0.0062 0.65977 0.0
C213 C 0.46366 0.99878 0.67745 0.0
C214 C 0.58834 0.01721 0.66112 0.0
C215 C 0.6132 0.03068 0.68098 0.0
C216 C 0.51541 0.00953 0.67832 0.0
C217 C 0.58746 0.03252 0.69923 0.0
C218 C 0.4442 0.0153 0.69378 0.0
C219 C 0.38574 0.95871 0.65983 0.0
N220 N 0.54018 0.02243 0.69743 0.0
N221 N 0.43393 0.97148 0.66091 0.0
H222 H 0.6178 0.61735 0.58914 0.0
H223 H 0.34231 0.39355 0.57827 0.0
H224 H 0.58128 0.46644 0.58091 0.0
H225 H 0.37984 0.54497 0.58546 0.0
H226 H 0.42981 0.4199 0.57661 0.0
H227 H 0.53098 0.59198 0.58536 0.0
C228 C 0.59159 0.57892 0.58642 0.0
C229 C 0.60687 0.54395 0.58548 0.0
C230 C 0.41887 0.44738 0.5784 0.0
C231 C 0.50726 0.51456 0.58122 0.0
C232 C 0.36889 0.43235 0.57932 0.0
C233 C 0.35366 0.46706 0.58216 0.0
C234 C 0.45388 0.49747 0.58041 0.0
C235 C 0.3898 0.51685 0.58338 0.0
C236 C 0.54197 0.56442 0.58426 0.0
C237 C 0.5712 0.49467 0.58185 0.0
N238 N 0.43814 0.5305 0.58263 0.0
N239 N 0.52308 0.48142 0.57997 0.0
H240 H 0.04562 0.41155 0.91806 0.0
H241 H 0.09787 0.68737 0.92734 0.0
H242 H 0.93296 0.44945 0.92933 0.0
H243 H 0.21006 0.65018 0.9134 0.0
H244 H 0.03612 0.60035 0.92571 0.0
H245 H 0.10554 0.49865 0.91371 0.0
C246 C 0.03337 0.43812 0.91943 0.0
C247 C 0.98425 0.42318 0.92425 0.0
C248 C 0.07421 0.61123 0.92287 0.0
C249 C 0.0527 0.52296 0.91943 0.0
C250 C 0.10952 0.66095 0.92382 0.0
C251 C 0.15929 0.6761 0.92067 0.0
C252 C 0.08875 0.5763 0.91884 0.0
C253 C 0.17216 0.64019 0.91605 0.0
C254 C 0.06763 0.48787 0.91697 0.0
C255 C 0.97048 0.45925 0.92577 0.0
N256 N 0.13716 0.59196 0.91542 0.0
N257 N 0.00457 0.50743 0.92354 0.0
H258 H 0.4403 0.05553 0.25312 0.0
H259 H 0.4003 0.79336 0.28805 0.0
H260 H 0.33623 0.96297 0.30137 0.0
H261 H 0.52625 0.89769 0.25145 0.0
H262 H 0.37072 0.85164 0.28925 0.0
H263 H 0.46664 0.99456 0.24854 0.0
C264 C 0.42276 0.02227 0.26262 0.0
C265 C 0.38618 0.01441 0.27773 0.0
C266 C 0.40479 0.86183 0.28091 0.0
C267 C 0.41602 0.94472 0.27254 0.0
C268 C 0.4217 0.82849 0.28017 0.0
C269 C 0.46599 0.84073 0.26972 0.0
C270 C 0.43215 0.90782 0.27104 0.0
C271 C 0.49203 0.88682 0.25977 0.0
C272 C 0.43794 0.98763 0.26006 0.0
C273 C 0.36477 0.97074 0.28964 0.0
N274 N 0.47474 0.91878 0.26069 0.0
N275 N 0.38002 0.93762 0.28679 0.0
H276 H 0.24921 0.17717 0.21728 0.0
H277 H 0.40083 0.30128 0.11006 0.0
H278 H 0.39866 0.21055 0.20753 0.0
H279 H 0.24306 0.21245 0.11131 0.0
H280 H 0.40266 0.28868 0.14899 0.0
H281 H 0.24846 0.2061 0.18085 0.0
C282 C 0.28173 0.19014 0.20732 0.0
C283 C 0.32393 0.19105 0.21526 0.0
C284 C 0.36762 0.27306 0.1408 0.0
C285 C 0.32375 0.2256 0.17391 0.0
C286 C 0.36645 0.28109 0.11871 0.0
C287 C 0.32168 0.25773 0.10756 0.0
C288 C 0.32365 0.24215 0.15166 0.0
C289 C 0.27826 0.23105 0.11941 0.0
C290 C 0.28135 0.20695 0.18664 0.0
C291 C 0.36518 0.20853 0.20182 0.0
N292 N 0.28033 0.22345 0.14082 0.0
N293 N 0.3642 0.22549 0.18176 0.0
H294 H 0.02591 0.30771 0.42536 0.0
H295 H 0.03422 0.23957 0.54848 0.0
H296 H 0.96122 0.15891 0.44827 0.0
H297 H 0.14184 0.3772 0.52052 0.0
H298 H 0.99493 0.21273 0.51331 0.0
H299 H 0.0528 0.33744 0.46224 0.0
C300 C 0.01551 0.2813 0.43831 0.0
C301 C 0.99145 0.23079 0.43385 0.0
C302 C 0.02724 0.24871 0.51481 0.0
C303 C 0.02306 0.26442 0.47568 0.0
C304 C 0.04987 0.26394 0.53481 0.0
C305 C 0.09153 0.31049 0.53728 0.0
C306 C 0.04593 0.28049 0.49716 0.0
C307 C 0.1102 0.34075 0.51914 0.0
C308 C 0.03173 0.29831 0.45922 0.0
C309 C 0.97973 0.19814 0.4511 0.0
N310 N 0.08699 0.32532 0.49976 0.0
N311 N 0.99612 0.21553 0.47126 0.0
H312 H 0.74518 0.10838 0.77687 0.0
H313 H 0.8616 0.09673 0.88947 0.0
H314 H 0.81771 0.02439 0.78665 0.0
H315 H 0.84165 0.21787 0.8712 0.0
H316 H 0.82946 0.05831 0.85447 0.0
H317 H 0.75987 0.13385 0.81489 0.0
C318 C 0.76207 0.09342 0.78729 0.0
C319 C 0.78028 0.06425 0.77874 0.0
C320 C 0.83224 0.09336 0.85807 0.0
C321 C 0.79841 0.09425 0.82176 0.0
C322 C 0.85088 0.11549 0.87795 0.0
C323 C 0.8547 0.16078 0.88312 0.0
C324 C 0.8166 0.11627 0.84328 0.0
C325 C 0.84001 0.18333 0.86768 0.0
C326 C 0.77137 0.1088 0.80882 0.0
C327 C 0.80301 0.0468 0.79273 0.0
N328 N 0.82128 0.16064 0.84843 0.0
N329 N 0.81198 0.06254 0.81353 0.0
H330 H 0.82327 0.88333 0.12722 0.0
H331 H 0.59903 0.68671 0.19535 0.0
H332 H 0.71781 0.74454 0.09866 0.0
H333 H 0.66193 0.8425 0.2048 0.0
H334 H 0.64641 0.70245 0.16189 0.0
H335 H 0.77215 0.86258 0.15935 0.0
C336 C 0.7899 0.848 0.12782 0.0
C337 C 0.77445 0.81599 0.10997 0.0
C338 C 0.64907 0.7331 0.17106 0.0
C339 C 0.71563 0.7925 0.14673 0.0
C340 C 0.62181 0.72419 0.18995 0.0
C341 C 0.62632 0.76348 0.2025 0.0
C342 C 0.68207 0.78163 0.16518 0.0
C343 C 0.65695 0.81138 0.19527 0.0
C344 C 0.76045 0.83658 0.14609 0.0
C345 C 0.73104 0.77052 0.11193 0.0
N346 N 0.68442 0.81921 0.17719 0.0
N347 N 0.70284 0.76022 0.12996 0.0
H348 H 0.91494 0.76093 0.54561 0.0
H349 H 0.9055 0.63918 0.4315 0.0
H350 H 0.80363 0.61396 0.5282 0.0
H351 H 0.95878 0.79429 0.43835 0.0
H352 H 0.88851 0.62924 0.47029 0.0
H353 H 0.94705 0.77357 0.50867 0.0
C354 C 0.89683 0.73164 0.53386 0.0
C355 C 0.85623 0.68657 0.53975 0.0
C356 C 0.90504 0.66559 0.46333 0.0
C357 C 0.89401 0.70002 0.49803 0.0
C358 C 0.91569 0.67148 0.44131 0.0
C359 C 0.9332 0.7176 0.43176 0.0
C360 C 0.91284 0.70625 0.47578 0.0
C361 C 0.94504 0.75811 0.44516 0.0
C362 C 0.91542 0.73873 0.51294 0.0
C363 C 0.83443 0.64951 0.52412 0.0
N364 N 0.93406 0.75143 0.46653 0.0
N365 N 0.85395 0.65688 0.50395 0.0
H366 H 0.17012 0.85788 0.87135 0.0
H367 H 0.28156 0.99196 0.76258 0.0
H368 H 0.31478 0.98593 0.87154 0.0
H369 H 0.13053 0.9428 0.77952 0.0
H370 H 0.29834 0.98491 0.80069 0.0
H371 H 0.15743 0.87922 0.83473 0.0
C372 C 0.1992 0.89018 0.8636 0.0
C373 C 0.24338 0.92034 0.87434 0.0
C374 C 0.26182 0.97653 0.79594 0.0
C375 C 0.22948 0.94452 0.83285 0.0
C376 C 0.25227 0.98082 0.77429 0.0
C377 C 0.20435 0.96703 0.76774 0.0
C378 C 0.22298 0.95743 0.81083 0.0
C379 C 0.16785 0.95297 0.78368 0.0
C380 C 0.19186 0.90257 0.8429 0.0
C381 C 0.28002 0.96202 0.86374 0.0
N382 N 0.17765 0.94738 0.80441 0.0
N383 N 0.27249 0.97272 0.84341 0.0
H384 H 0.27247 0.89086 0.00328 0.0
H385 H 0.41912 0.17566 -0.01215 0.0
H386 H 0.40059 0.96222 0.9627 0.0
H387 H 0.33389 0.10909 0.0453 0.0
H388 H 0.41433 0.09723 0.97894 0.0
H389 H 0.29803 0.9693 0.0214 0.0
C390 C 0.30739 0.92246 -0.00097 0.0
C391 C 0.33444 0.92043 0.98147 0.0
C392 C 0.39694 0.10007 -0.00644 0.0
C393 C 0.36242 0.01029 0.00112 0.0
C394 C 0.39923 0.14463 -0.0015 0.0
C395 C 0.37578 0.14867 0.01701 0.0
C396 C 0.37068 0.05938 0.00717 0.0
C397 C 0.35123 0.10746 0.03048 0.0
C398 C 0.32154 0.96748 0.00906 0.0
C399 C 0.37879 0.96264 0.97619 0.0
N400 N 0.34885 0.06447 0.02517 0.0
N401 N 0.39073 0.00628 0.98552 0.0
H402 H 0.16149 0.27988 0.3246 0.0
H403 H 0.27685 0.10865 0.33663 0.0
H404 H 0.08281 0.13949 0.35611 0.0
H405 H 0.36311 0.26519 0.32834 0.0
H406 H 0.20581 0.11735 0.34586 0.0
H407 H 0.23505 0.27178 0.32401 0.0
C408 C 0.15949 0.24686 0.33093 0.0
C409 C 0.11632 0.21035 0.34045 0.0
C410 C 0.24076 0.15 0.34279 0.0
C411 C 0.20021 0.20142 0.34051 0.0
C412 C 0.28163 0.14515 0.33806 0.0
C413 C 0.32556 0.18629 0.33152 0.0
C414 C 0.24443 0.19625 0.34087 0.0
C415 C 0.32962 0.23262 0.3332 0.0
C416 C 0.20163 0.24269 0.33104 0.0
C417 C 0.11571 0.16868 0.34884 0.0
N418 N 0.2891 0.23629 0.33705 0.0
N419 N 0.15709 0.16525 0.34867 0.0
H420 H 0.93644 0.15547 0.69227 0.0
H421 H 0.08431 0.42181 0.64061 0.0
H422 H 0.86859 0.23342 0.66555 0.0
H423 H 0.15222 0.33861 0.66046 0.0
H424 H 0.00779 0.36113 0.65752 0.0
H425 H 0.01711 0.22665 0.68562 0.0
C426 C 0.93859 0.1876 0.68493 0.0
C427 C 0.8959 0.18876 0.67953 0.0
C428 C 0.03976 0.35677 0.65878 0.0
C429 C 0.98807 0.27066 0.67214 0.0
C430 C 0.08379 0.39208 0.64961 0.0
C431 C 0.12432 0.38487 0.64907 0.0
C432 C 0.03648 0.31401 0.66733 0.0
C433 C 0.12173 0.3455 0.66063 0.0
C434 C 0.98466 0.2283 0.68122 0.0
C435 C 0.90071 0.23091 0.66968 0.0
N436 N 0.07796 0.31061 0.6688 0.0
N437 N 0.94606 0.27037 0.66639 0.0
H438 H 0.89076 0.99609 0.03124 0.0
H439 H 0.78298 0.16676 -0.00407 0.0
H440 H 0.75114 0.94527 5e-05 0.0
H441 H 0.9381 0.22289 0.00348 0.0
H442 H 0.76709 0.08728 0.00926 0.0
H443 H 0.90642 0.08058 0.02918 0.0
C444 C 0.86374 0.00294 0.0237 0.0
C445 C 0.81978 0.96401 0.01564 0.0
C446 C 0.80457 0.1174 0.00867 0.0
C447 C 0.83648 0.0597 0.01404 0.0
C448 C 0.81357 0.16312 0.00165 0.0
C449 C 0.86189 0.20095 -0.00165 0.0
C450 C 0.8443 0.10996 0.01251 0.0
C451 C 0.9003 0.19441 0.00577 0.0
C452 C 0.87249 0.05094 0.02272 0.0
C453 C 0.78586 0.9745 0.00606 0.0
N454 N 0.89082 0.14904 0.01192 0.0
N455 N 0.79472 0.02143 0.0057 0.0
H456 H 0.59741 0.75199 0.33232 0.0
H457 H 0.74981 0.61793 0.31484 0.0
H458 H 0.54173 0.61677 0.29652 0.0
H459 H 0.77769 0.71759 0.3681 0.0
H460 H 0.67257 0.61703 0.30803 0.0
H461 H 0.66049 0.73757 0.34796 0.0
C462 C 0.59682 0.71796 0.32868 0.0
C463 C 0.56467 0.68556 0.31309 0.0
C464 C 0.69571 0.63899 0.32125 0.0
C465 C 0.63782 0.67012 0.32987 0.0
C466 C 0.74004 0.63999 0.32494 0.0
C467 C 0.77085 0.66862 0.34178 0.0
C468 C 0.68243 0.66715 0.33439 0.0
C469 C 0.75589 0.69584 0.35462 0.0
C470 C 0.63344 0.71017 0.33724 0.0
C471 C 0.56614 0.6426 0.30849 0.0
N472 N 0.71301 0.69473 0.35056 0.0
N473 N 0.60306 0.63672 0.31636 0.0
H474 H 0.10914 0.77346 0.662 0.0
H475 H 0.82106 0.67569 0.66579 0.0
H476 H 0.04411 0.85966 0.68217 0.0
H477 H 0.88327 0.5897 0.64195 0.0
H478 H 0.90182 0.73693 0.6792 0.0
H479 H 0.02649 0.70179 0.65823 0.0
C480 C 0.07739 0.77742 0.66523 0.0
C481 C 0.08317 0.82223 0.67247 0.0
C482 C 0.89762 0.70389 0.67166 0.0
C483 C 0.98915 0.74066 0.66903 0.0
C484 C 0.85115 0.66827 0.66455 0.0
C485 C 0.84585 0.62799 0.65262 0.0
C486 C 0.93857 0.69871 0.66679 0.0
C487 C 0.88618 0.62055 0.65105 0.0
C488 C 0.03036 0.73644 0.6635 0.0
C489 C 0.04112 0.82544 0.67692 0.0
N490 N 0.93127 0.65631 0.65748 0.0
N491 N 0.99591 0.78522 0.67517 0.0
H492 H 0.05868 0.29402 0.96138 0.0
H493 H 0.18534 0.14341 0.00347 0.0
H494 H 0.9898 0.13609 0.96293 0.0
H495 H 0.25908 0.30152 0.00656 0.0
H496 H 0.1173 0.14254 0.98486 0.0
H497 H 0.13533 0.29979 0.97425 0.0
C498 C 0.05976 0.26059 0.96413 0.0
C499 C 0.01747 0.21445 0.96115 0.0
C500 C 0.14826 0.17761 -0.01054 0.0
C501 C 0.10497 0.22089 0.97593 0.0
C502 C 0.18735 0.17817 0.00017 0.0
C503 C 0.22791 0.22262 0.00688 0.0
C504 C 0.14896 0.22183 0.98545 0.0
C505 C 0.2285 0.26641 0.00174 0.0
C506 C 0.1035 0.26397 0.97156 0.0
C507 C 0.02113 0.17248 0.9651 0.0
N508 N 0.18928 0.26492 -0.00848 0.0
N509 N 0.06382 0.17677 0.97232 0.0
H510 H 0.67293 0.91262 0.28596 0.0
H511 H 0.90805 0.02417 0.36263 0.0
H512 H 0.7457 0.83412 0.30658 0.0
H513 H 0.86884 0.1181 0.32758 0.0
H514 H 0.84146 0.95325 0.34521 0.0
H515 H 0.73791 0.98708 0.30343 0.0
C516 C 0.70252 0.91098 0.2941 0.0
C517 C 0.70379 0.86689 0.29475 0.0
C518 C 0.84722 0.98927 0.34127 0.0
C519 C 0.77778 0.95179 0.31492 0.0
C520 C 0.88532 0.03011 0.35132 0.0
C521 C 0.8946 0.07767 0.34654 0.0
C522 C 0.81737 0.99533 0.3263 0.0
C523 C 0.86325 0.08229 0.33176 0.0
C524 C 0.7396 0.95354 0.30401 0.0
C525 C 0.74313 0.86711 0.30552 0.0
N526 N 0.82598 0.04158 0.32213 0.0
N527 N 0.77822 0.90868 0.31523 0.0
H528 H 0.8964 0.81294 0.64289 0.0
H529 H 0.73985 0.94475 0.66793 0.0
H530 H 0.74505 0.74771 0.62287 0.0
H531 H 0.87478 0.97679 0.69978 0.0
H532 H 0.74055 0.87573 0.64907 0.0
H533 H 0.88971 0.87809 0.66078 0.0
C534 C 0.8617 0.81237 0.6421 0.0
C535 C 0.82123 0.77453 0.63128 0.0
C536 C 0.76972 0.89793 0.6603 0.0
C537 C 0.81317 0.84971 0.65212 0.0
C538 C 0.7693 0.93721 0.6711 0.0
C539 C 0.80748 0.96709 0.6854 0.0
C540 C 0.80876 0.88891 0.66375 0.0
C541 C 0.84469 0.95543 0.68882 0.0
C542 C 0.85781 0.84964 0.65249 0.0
C543 C 0.77721 0.77607 0.63103 0.0
N544 N 0.84447 0.91775 0.67804 0.0
N545 N 0.77433 0.81311 0.64128 0.0
H546 H 0.99578 0.9296 0.04437 0.0
H547 H 0.09937 0.81218 0.95905 0.0
H548 H 0.8994 0.80474 0.00486 0.0
H549 H 0.18371 0.95861 0.98527 0.0
H550 H 0.027 0.80241 0.97859 0.0
H551 H 0.06609 0.933 0.02636 0.0
C552 C 0.98921 0.90249 0.03202 0.0
C553 C 0.94122 0.867 0.02606 0.0
C554 C 0.06138 0.83663 0.98 0.0
C555 C 0.0225 0.87104 0.00517 0.0
C556 C 0.10275 0.84226 0.9689 0.0
C557 C 0.1478 0.8864 0.97044 0.0
C558 C 0.06524 0.87511 -0.007 0.0
C559 C 0.14983 0.92407 0.98344 0.0
C560 C 0.02962 0.90469 0.02165 0.0
C561 C 0.93559 0.83282 0.00998 0.0
N562 N 0.10931 0.91746 -0.00575 0.0
N563 N 0.97577 0.83579 2e-05 0.0
H564 H 0.95683 0.85837 0.32787 0.0
H565 H 0.23915 0.99201 0.2925 0.0
H566 H 0.04381 0.78758 0.33287 0.0
H567 H 0.14742 0.05821 0.29175 0.0
H568 H 0.16768 0.91401 0.30342 0.0
H569 H 0.02509 0.92795 0.31052 0.0
C570 C 0.99038 0.85733 0.3252 0.0
C571 C 0.99472 0.81722 0.33211 0.0
C572 C 0.16324 0.94554 0.30065 0.0
C573 C 0.07405 0.89785 0.31224 0.0
C574 C 0.20398 0.9901 0.29436 0.0
C575 C 0.1995 0.03203 0.2913 0.0
C576 C 0.11768 0.94285 0.30382 0.0
C577 C 0.15295 0.02719 0.29401 0.0
C578 C 0.02951 0.89727 0.31524 0.0
C579 C 0.03893 0.81779 0.32784 0.0
N580 N 0.11417 0.98368 0.30018 0.0
N581 N 0.07722 0.85785 0.3184 0.0
H582 H 0.07934 0.01193 0.67984 0.0
H583 H 0.22133 0.2685 0.61787 0.0
H584 H 0.2326 0.07713 0.66285 0.0
H585 H 0.06683 0.19157 0.63348 0.0
H586 H 0.22814 0.20031 0.6334 0.0
H587 H 0.07627 0.07865 0.66229 0.0
C588 C 0.11264 0.0404 0.67245 0.0
C589 C 0.15648 0.03877 0.67303 0.0
C590 C 0.19281 0.19845 0.6333 0.0
C591 C 0.15299 0.11642 0.65256 0.0
C592 C 0.18883 0.23731 0.62443 0.0
C593 C 0.14341 0.23599 0.62436 0.0
C594 C 0.1511 0.1581 0.64218 0.0
C595 C 0.10266 0.19458 0.63313 0.0
C596 C 0.11074 0.0787 0.6623 0.0
C597 C 0.19804 0.07685 0.66286 0.0
N598 N 0.10757 0.15764 0.64167 0.0
N599 N 0.19535 0.11433 0.6531 0.0
loop_
_geom_bond_atom_site_label_1
_geom_bond_atom_site_label_2
_geom_bond_distance
_geom_bond_site_symmetry_2
_ccdc_geom_bond_type
Mg0 O1 2.028 . S
Mg0 O7 1.986 . S
Mg0 O9 2.114 . S
Mg0 O10 2.251 . S
Mg0 O13 2.010 . S
O1 Mg0 2.028 . S
O1 C4 1.250 . S
O2 Mg3 2.028 . S
O2 C4 1.248 . S
Mg3 O2 2.028 . S
Mg3 O8 2.032 . S
Mg3 O10 2.079 . S
C4 O1 1.250 . S
C4 O2 1.248 . S
C5 O6 1.264 . S
C5 O13 1.249 . S
O6 C5 1.264 . S
O7 Mg0 1.986 . S
O7 C11 1.246 . S
O8 Mg3 2.032 . S
O8 C11 1.259 . S
O9 Mg0 2.114 . S
O9 C12 1.252 . S
O10 Mg0 2.251 . S
O10 Mg3 2.079 . S
O10 C12 1.273 . S
C11 O7 1.246 . S
C11 O8 1.259 . S
C12 O9 1.252 . S
C12 O10 1.273 . S
O13 Mg0 2.010 . S
O13 C5 1.249 . S
Mg14 O15 2.028 . S
Mg14 O21 1.986 . S
Mg14 O23 2.114 . S
Mg14 O24 2.251 . S
Mg14 O27 2.010 . S
O15 Mg14 2.028 . S
O15 C18 1.250 . S
O16 Mg17 2.028 . S
O16 C18 1.248 . S
Mg17 O16 2.028 . S
Mg17 O22 2.032 . S
Mg17 O24 2.079 . S
C18 O15 1.250 . S
C18 O16 1.248 . S
C19 O20 1.264 . S
C19 O27 1.249 . S
O20 C19 1.264 . S
O21 Mg14 1.986 . S
O21 C25 1.246 . S
O22 Mg17 2.032 . S
O22 C25 1.259 . S
O23 Mg14 2.114 . S
O23 C26 1.252 . S
O24 Mg14 2.251 . S
O24 Mg17 2.079 . S
O24 C26 1.273 . S
C25 O21 1.246 . S
C25 O22 1.259 . S
C26 O23 1.252 . S
C26 O24 1.273 . S
O27 Mg14 2.010 . S
O27 C19 1.249 . S
Mg28 O29 2.028 . S
Mg28 O35 1.986 . S
Mg28 O37 2.114 . S
Mg28 O38 2.251 . S
Mg28 O41 2.010 . S
O29 Mg28 2.028 . S
O29 C32 1.250 . S
O30 Mg31 2.028 . S
O30 C32 1.248 . S
Mg31 O30 2.028 . S
Mg31 O36 2.032 . S
Mg31 O38 2.079 . S
C32 O29 1.250 . S
C32 O30 1.248 . S
C33 O34 1.264 . S
C33 O41 1.249 . S
O34 C33 1.264 . S
O35 Mg28 1.986 . S
O35 C39 1.246 . S
O36 Mg31 2.032 . S
O36 C39 1.259 . S
O37 Mg28 2.114 . S
O37 C40 1.252 . S
O38 Mg28 2.251 . S
O38 Mg31 2.079 . S
O38 C40 1.273 . S
C39 O35 1.246 . S
C39 O36 1.259 . S
C40 O37 1.252 . S
C40 O38 1.273 . S
O41 Mg28 2.010 . S
O41 C33 1.249 . S
Mg42 O43 2.028 . S
Mg42 O49 1.986 . S
Mg42 O51 2.114 . S
Mg42 O52 2.251 . S
Mg42 O55 2.010 . S
O43 Mg42 2.028 . S
O43 C46 1.250 . S
O44 Mg45 2.028 . S
O44 C46 1.248 . S
Mg45 O44 2.028 . S
Mg45 O50 2.032 . S
Mg45 O52 2.079 . S
C46 O43 1.250 . S
C46 O44 1.248 . S
C47 O48 1.264 . S
C47 O55 1.249 . S
O48 C47 1.264 . S
O49 Mg42 1.986 . S
O49 C53 1.246 . S
O50 Mg45 2.032 . S
O50 C53 1.259 . S
O51 Mg42 2.114 . S
O51 C54 1.252 . S
O52 Mg42 2.251 . S
O52 Mg45 2.079 . S
O52 C54 1.273 . S
C53 O49 1.246 . S
C53 O50 1.259 . S
C54 O51 1.252 . S
C54 O52 1.273 . S
O55 Mg42 2.010 . S
O55 C47 1.249 . S
Mg56 O57 2.028 . S
Mg56 O63 1.986 . S
Mg56 O65 2.114 . S
Mg56 O66 2.251 . S
Mg56 O69 2.010 . S
O57 Mg56 2.028 . S
O57 C60 1.250 . S
O58 Mg59 2.028 . S
O58 C60 1.248 . S
Mg59 O58 2.028 . S
Mg59 O64 2.032 . S
Mg59 O66 2.079 . S
C60 O57 1.250 . S
C60 O58 1.248 . S
C61 O62 1.264 . S
C61 O69 1.249 . S
O62 C61 1.264 . S
O63 Mg56 1.986 . S
O63 C67 1.246 . S
O64 Mg59 2.032 . S
O64 C67 1.259 . S
O65 Mg56 2.114 . S
O65 C68 1.252 . S
O66 Mg56 2.251 . S
O66 Mg59 2.079 . S
O66 C68 1.273 . S
C67 O63 1.246 . S
C67 O64 1.259 . S
C68 O65 1.252 . S
C68 O66 1.273 . S
O69 Mg56 2.010 . S
O69 C61 1.249 . S
Mg70 O71 2.028 . S
Mg70 O77 1.986 . S
Mg70 O79 2.114 . S
Mg70 O80 2.251 . S
Mg70 O83 2.010 . S
O71 Mg70 2.028 . S
O71 C74 1.250 . S
O72 Mg73 2.028 . S
O72 C74 1.248 . S
Mg73 O72 2.028 . S
Mg73 O78 2.032 . S
Mg73 O80 2.079 . S
C74 O71 1.250 . S
C74 O72 1.248 . S
C75 O76 1.264 . S
C75 O83 1.249 . S
O76 C75 1.264 . S
O77 Mg70 1.986 . S
O77 C81 1.246 . S
O78 Mg73 2.032 . S
O78 C81 1.259 . S
O79 Mg70 2.114 . S
O79 C82 1.252 . S
O80 Mg70 2.251 . S
O80 Mg73 2.079 . S
O80 C82 1.273 . S
C81 O77 1.246 . S
C81 O78 1.259 . S
C82 O79 1.252 . S
C82 O80 1.273 . S
O83 Mg70 2.010 . S
O83 C75 1.249 . S
Mg84 O85 2.028 . S
Mg84 O91 1.986 . S
Mg84 O93 2.114 . S
Mg84 O94 2.251 . S
Mg84 O97 2.010 . S
O85 Mg84 2.028 . S
O85 C88 1.250 . S
O86 Mg87 2.028 . S
O86 C88 1.248 . S
Mg87 O86 2.028 . S
Mg87 O92 2.032 . S
Mg87 O94 2.079 . S
C88 O85 1.250 . S
C88 O86 1.248 . S
C89 O90 1.264 . S
C89 O97 1.249 . S
O90 C89 1.264 . S
O91 Mg84 1.986 . S
O91 C95 1.246 . S
O92 Mg87 2.032 . S
O92 C95 1.259 . S
O93 Mg84 2.114 . S
O93 C96 1.252 . S
O94 Mg84 2.251 . S
O94 Mg87 2.079 . S
O94 C96 1.273 . S
C95 O91 1.246 . S
C95 O92 1.259 . S
C96 O93 1.252 . S
C96 O94 1.273 . S
O97 Mg84 2.010 . S
O97 C89 1.249 . S
Mg98 O99 2.028 . S
Mg98 O105 1.986 . S
Mg98 O107 2.114 . S
Mg98 O108 2.251 . S
Mg98 O111 2.010 . S
O99 Mg98 2.028 . S
O99 C102 1.250 . S
O100 Mg101 2.028 . S
O100 C102 1.248 . S
Mg101 O100 2.028 . S
Mg101 O106 2.032 . S
Mg101 O108 2.079 . S
C102 O99 1.250 . S
C102 O100 1.248 . S
C103 O104 1.264 . S
C103 O111 1.249 . S
O104 C103 1.264 . S
O105 Mg98 1.986 . S
O105 C109 1.246 . S
O106 Mg101 2.032 . S
O106 C109 1.259 . S
O107 Mg98 2.114 . S
O107 C110 1.252 . S
O108 Mg98 2.251 . S
O108 Mg101 2.079 . S
O108 C110 1.273 . S
C109 O105 1.246 . S
C109 O106 1.259 . S
C110 O107 1.252 . S
C110 O108 1.273 . S
O111 Mg98 2.010 . S
O111 C103 1.249 . S
Mg112 O113 2.028 . S
Mg112 O119 1.986 . S
Mg112 O121 2.114 . S
Mg112 O122 2.251 . S
Mg112 O125 2.010 . S
O113 Mg112 2.028 . S
O113 C116 1.250 . S
O114 Mg115 2.028 . S
O114 C116 1.248 . S
Mg115 O114 2.028 . S
Mg115 O120 2.032 . S
Mg115 O122 2.079 . S
C116 O113 1.250 . S
C116 O114 1.248 . S
C117 O118 1.264 . S
C117 O125 1.249 . S
O118 C117 1.264 . S
O119 Mg112 1.986 . S
O119 C123 1.246 . S
O120 Mg115 2.032 . S
O120 C123 1.259 . S
O121 Mg112 2.114 . S
O121 C124 1.252 . S
O122 Mg112 2.251 . S
O122 Mg115 2.079 . S
O122 C124 1.273 . S
C123 O119 1.246 . S
C123 O120 1.259 . S
C124 O121 1.252 . S
C124 O122 1.273 . S
O125 Mg112 2.010 . S
O125 C117 1.249 . S
Mg126 O127 2.028 . S
Mg126 O133 1.986 . S
Mg126 O135 2.114 . S
Mg126 O136 2.251 . S
Mg126 O139 2.010 . S
O127 Mg126 2.028 . S
O127 C130 1.250 . S
O128 Mg129 2.028 . S
O128 C130 1.248 . S
Mg129 O128 2.028 . S
Mg129 O134 2.032 . S
Mg129 O136 2.079 . S
C130 O127 1.250 . S
C130 O128 1.248 . S
C131 O132 1.264 . S
C131 O139 1.249 . S
O132 C131 1.264 . S
O133 Mg126 1.986 . S
O133 C137 1.246 . S
O134 Mg129 2.032 . S
O134 C137 1.259 . S
O135 Mg126 2.114 . S
O135 C138 1.252 . S
O136 Mg126 2.251 . S
O136 Mg129 2.079 . S
O136 C138 1.273 . S
C137 O133 1.246 . S
C137 O134 1.259 . S
C138 O135 1.252 . S
C138 O136 1.273 . S
O139 Mg126 2.010 . S
O139 C131 1.249 . S
Mg140 O141 2.028 . S
Mg140 O147 1.986 . S
Mg140 O149 2.114 . S
Mg140 O150 2.251 . S
Mg140 O153 2.010 . S
O141 Mg140 2.028 . S
O141 C144 1.250 . S
O142 Mg143 2.028 . S
O142 C144 1.248 . S
Mg143 O142 2.028 . S
Mg143 O148 2.032 . S
Mg143 O150 2.079 . S
C144 O141 1.250 . S
C144 O142 1.248 . S
C145 O146 1.264 . S
C145 O153 1.249 . S
O146 C145 1.264 . S
O147 Mg140 1.986 . S
O147 C151 1.246 . S
O148 Mg143 2.032 . S
O148 C151 1.259 . S
O149 Mg140 2.114 . S
O149 C152 1.252 . S
O150 Mg140 2.251 . S
O150 Mg143 2.079 . S
O150 C152 1.273 . S
C151 O147 1.246 . S
C151 O148 1.259 . S
C152 O149 1.252 . S
C152 O150 1.273 . S
O153 Mg140 2.010 . S
O153 C145 1.249 . S
Mg154 O155 2.028 . S
Mg154 O161 1.986 . S
Mg154 O163 2.114 . S
Mg154 O164 2.251 . S
Mg154 O167 2.010 . S
O155 Mg154 2.028 . S
O155 C158 1.250 . S
O156 Mg157 2.028 . S
O156 C158 1.248 . S
Mg157 O156 2.028 . S
Mg157 O162 2.032 . S
Mg157 O164 2.079 . S
C158 O155 1.250 . S
C158 O156 1.248 . S
C159 O160 1.264 . S
C159 O167 1.249 . S
O160 C159 1.264 . S
O161 Mg154 1.986 . S
O161 C165 1.246 . S
O162 Mg157 2.032 . S
O162 C165 1.259 . S
O163 Mg154 2.114 . S
O163 C166 1.252 . S
O164 Mg154 2.251 . S
O164 Mg157 2.079 . S
O164 C166 1.273 . S
C165 O161 1.246 . S
C165 O162 1.259 . S
C166 O163 1.252 . S
C166 O164 1.273 . S
O167 Mg154 2.010 . S
O167 C159 1.249 . S
H168 C174 0.930 . S
H169 C178 0.930 . S
H170 C183 0.929 . S
H171 C181 0.929 . S
H172 C176 0.929 . S
H173 C182 0.929 . S
C174 H168 0.930 . S
C174 C175 1.367 . S
C174 C182 1.378 . S
C175 C174 1.367 . S
C175 C183 1.433 . S
C176 H172 0.929 . S
C176 C178 1.378 . S
C176 C180 1.350 . S
C177 C180 1.463 . S
C177 C182 1.350 . S
C177 N185 1.427 . S
C178 H169 0.930 . S
C178 C176 1.378 . S
C178 C179 1.367 . S
C179 C178 1.367 . S
C179 C181 1.433 . S
C180 C176 1.350 . S
C180 C177 1.463 . S
C180 N184 1.427 . S
C181 H171 0.929 . S
C181 C179 1.433 . S
C181 N184 1.384 . S
C182 H173 0.929 . S
C182 C174 1.378 . S
C182 C177 1.350 . S
C183 H170 0.929 . S
C183 C175 1.433 . S
C183 N185 1.384 . S
N184 C180 1.427 . S
N184 C181 1.384 . S
N185 C177 1.427 . S
N185 C183 1.384 . S
H186 C192 0.930 . S
H187 C196 0.930 . S
H188 C201 0.929 . S
H189 C199 0.929 . S
H190 C194 0.929 . S
H191 C200 0.929 . S
C192 H186 0.930 . S
C192 C193 1.367 . S
C192 C200 1.378 . S
C193 C192 1.367 . S
C193 C201 1.433 . S
C194 H190 0.929 . S
C194 C196 1.378 . S
C194 C198 1.350 . S
C195 C198 1.463 1_455 S
C195 C200 1.350 . S
C195 N203 1.427 . S
C196 H187 0.930 . S
C196 C194 1.378 . S
C196 C197 1.367 . S
C197 C196 1.367 . S
C197 C199 1.433 . S
C198 C194 1.350 . S
C198 C195 1.463 1_655 S
C198 N202 1.427 . S
C199 H189 0.929 . S
C199 C197 1.433 . S
C199 N202 1.384 . S
C200 H191 0.929 . S
C200 C192 1.378 . S
C200 C195 1.350 . S
C201 H188 0.929 . S
C201 C193 1.433 . S
C201 N203 1.384 . S
N202 C198 1.427 . S
N202 C199 1.384 . S
N203 C195 1.427 . S
N203 C201 1.384 . S
H204 C210 0.930 . S
H205 C214 0.930 . S
H206 C219 0.929 . S
H207 C217 0.929 . S
H208 C212 0.929 1_565 S
H209 C218 0.929 1_545 S
C210 H204 0.930 . S
C210 C211 1.367 . S
C210 C218 1.378 . S
C211 C210 1.367 . S
C211 C219 1.433 . S
C212 H208 0.929 1_545 S
C212 C214 1.378 . S
C212 C216 1.350 . S
C213 C216 1.463 1_565 S
C213 C218 1.350 . S
C213 N221 1.427 . S
C214 H205 0.930 . S
C214 C212 1.378 . S
C214 C215 1.367 . S
C215 C214 1.367 . S
C215 C217 1.433 . S
C216 C212 1.350 . S
C216 C213 1.463 1_545 S
C216 N220 1.427 . S
C217 H207 0.929 . S
C217 C215 1.433 . S
C217 N220 1.384 . S
C218 H209 0.929 1_565 S
C218 C210 1.378 . S
C218 C213 1.350 . S
C219 H206 0.929 . S
C219 C211 1.433 . S
C219 N221 1.384 . S
N220 C216 1.427 . S
N220 C217 1.384 . S
N221 C213 1.427 . S
N221 C219 1.384 . S
H222 C228 0.930 . S
H223 C232 0.930 . S
H224 C237 0.929 . S
H225 C235 0.929 . S
H226 C230 0.929 . S
H227 C236 0.929 . S
C228 H222 0.930 . S
C228 C229 1.367 . S
C228 C236 1.378 . S
C229 C228 1.367 . S
C229 C237 1.433 . S
C230 H226 0.929 . S
C230 C232 1.378 . S
C230 C234 1.350 . S
C231 C234 1.463 . S
C231 C236 1.350 . S
C231 N239 1.427 . S
C232 H223 0.930 . S
C232 C230 1.378 . S
C232 C233 1.367 . S
C233 C232 1.367 . S
C233 C235 1.433 . S
C234 C230 1.350 . S
C234 C231 1.463 . S
C234 N238 1.427 . S
C235 H225 0.929 . S
C235 C233 1.433 . S
C235 N238 1.384 . S
C236 H227 0.929 . S
C236 C228 1.378 . S
C236 C231 1.350 . S
C237 H224 0.929 . S
C237 C229 1.433 . S
C237 N239 1.384 . S
N238 C234 1.427 . S
N238 C235 1.384 . S
N239 C231 1.427 . S
N239 C237 1.384 . S
H240 C246 0.930 . S
H241 C250 0.930 . S
H242 C255 0.929 . S
H243 C253 0.929 . S
H244 C248 0.929 . S
H245 C254 0.929 . S
C246 H240 0.930 . S
C246 C247 1.367 . S
C246 C254 1.378 1_655 S
C247 C246 1.367 . S
C247 C255 1.433 . S
C248 H244 0.929 . S
C248 C250 1.378 1_655 S
C248 C252 1.350 1_655 S
C249 C252 1.463 1_655 S
C249 C254 1.350 1_655 S
C249 N257 1.427 . S
C250 H241 0.930 . S
C250 C248 1.378 1_455 S
C250 C251 1.367 . S
C251 C250 1.367 . S
C251 C253 1.433 . S
C252 C248 1.350 1_455 S
C252 C249 1.463 1_455 S
C252 N256 1.427 . S
C253 H243 0.929 . S
C253 C251 1.433 . S
C253 N256 1.384 . S
C254 H245 0.929 . S
C254 C246 1.378 1_455 S
C254 C249 1.350 1_455 S
C255 H242 0.929 . S
C255 C247 1.433 . S
C255 N257 1.384 . S
N256 C252 1.427 . S
N256 C253 1.384 . S
N257 C249 1.427 . S
N257 C255 1.384 . S
H258 C264 0.930 . S
H259 C268 0.930 . S
H260 C273 0.929 . S
H261 C271 0.929 . S
H262 C266 0.929 . S
H263 C272 0.929 . S
C264 H258 0.930 . S
C264 C265 1.367 . S
C264 C272 1.378 . S
C265 C264 1.367 . S
C265 C273 1.433 . S
C266 H262 0.929 . S
C266 C268 1.378 . S
C266 C270 1.350 . S
C267 C270 1.463 1_545 S
C267 C272 1.350 . S
C267 N275 1.427 . S
C268 H259 0.930 . S
C268 C266 1.378 . S
C268 C269 1.367 . S
C269 C268 1.367 . S
C269 C271 1.433 . S
C270 C266 1.350 . S
C270 C267 1.463 1_565 S
C270 N274 1.427 . S
C271 H261 0.929 . S
C271 C269 1.433 . S
C271 N274 1.384 . S
C272 H263 0.929 . S
C272 C264 1.378 . S
C272 C267 1.350 . S
C273 H260 0.929 . S
C273 C265 1.433 . S
C273 N275 1.384 . S
N274 C270 1.427 . S
N274 C271 1.384 . S
N275 C267 1.427 . S
N275 C273 1.384 . S
H276 C282 0.930 . S
H277 C286 0.930 . S
H278 C291 0.929 . S
H279 C289 0.929 . S
H280 C284 0.929 . S
H281 C290 0.929 . S
C282 H276 0.930 . S
C282 C283 1.367 . S
C282 C290 1.378 . S
C283 C282 1.367 . S
C283 C291 1.433 . S
C284 H280 0.929 . S
C284 C286 1.378 . S
C284 C288 1.350 . S
C285 C288 1.463 . S
C285 C290 1.350 . S
C285 N293 1.427 . S
C286 H277 0.930 . S
C286 C284 1.378 . S
C286 C287 1.367 . S
C287 C286 1.367 . S
C287 C289 1.433 . S
C288 C284 1.350 . S
C288 C285 1.463 . S
C288 N292 1.427 . S
C289 H279 0.929 . S
C289 C287 1.433 . S
C289 N292 1.384 . S
C290 H281 0.929 . S
C290 C282 1.378 . S
C290 C285 1.350 . S
C291 H278 0.929 . S
C291 C283 1.433 . S
C291 N293 1.384 . S
N292 C288 1.427 . S
N292 C289 1.384 . S
N293 C285 1.427 . S
N293 C291 1.384 . S
H294 C300 0.930 . S
H295 C304 0.930 . S
H296 C309 0.929 . S
H297 C307 0.929 . S
H298 C302 0.929 . S
H299 C308 0.929 . S
C300 H294 0.930 . S
C300 C301 1.367 . S
C300 C308 1.378 . S
C301 C300 1.367 . S
C301 C309 1.433 . S
C302 H298 0.929 . S
C302 C304 1.378 . S
C302 C306 1.350 . S
C303 C306 1.463 . S
C303 C308 1.350 . S
C303 N311 1.427 . S
C304 H295 0.930 . S
C304 C302 1.378 . S
C304 C305 1.367 . S
C305 C304 1.367 . S
C305 C307 1.433 . S
C306 C302 1.350 . S
C306 C303 1.463 . S
C306 N310 1.427 . S
C307 H297 0.929 . S
C307 C305 1.433 . S
C307 N310 1.384 . S
C308 H299 0.929 . S
C308 C300 1.378 . S
C308 C303 1.350 . S
C309 H296 0.929 . S
C309 C301 1.433 . S
C309 N311 1.384 . S
N310 C306 1.427 . S
N310 C307 1.384 . S
N311 C303 1.427 . S
N311 C309 1.384 . S
H312 C318 0.930 . S
H313 C322 0.930 . S
H314 C327 0.929 . S
H315 C325 0.929 . S
H316 C320 0.929 . S
H317 C326 0.929 . S
C318 H312 0.930 . S
C318 C319 1.367 . S
C318 C326 1.378 . S
C319 C318 1.367 . S
C319 C327 1.433 . S
C320 H316 0.929 . S
C320 C322 1.378 . S
C320 C324 1.350 . S
C321 C324 1.463 . S
C321 C326 1.350 . S
C321 N329 1.427 . S
C322 H313 0.930 . S
C322 C320 1.378 . S
C322 C323 1.367 . S
C323 C322 1.367 . S
C323 C325 1.433 . S
C324 C320 1.350 . S
C324 C321 1.463 . S
C324 N328 1.427 . S
C325 H315 0.929 . S
C325 C323 1.433 . S
C325 N328 1.384 . S
C326 H317 0.929 . S
C326 C318 1.378 . S
C326 C321 1.350 . S
C327 H314 0.929 . S
C327 C319 1.433 . S
C327 N329 1.384 . S
N328 C324 1.427 . S
N328 C325 1.384 . S
N329 C321 1.427 . S
N329 C327 1.384 . S
H330 C336 0.930 . S
H331 C340 0.930 . S
H332 C345 0.929 . S
H333 C343 0.929 . S
H334 C338 0.929 . S
H335 C344 0.929 . S
C336 H330 0.930 . S
C336 C337 1.367 . S
C336 C344 1.378 . S
C337 C336 1.367 . S
C337 C345 1.433 . S
C338 H334 0.929 . S
C338 C340 1.378 . S
C338 C342 1.350 . S
C339 C342 1.463 . S
C339 C344 1.350 . S
C339 N347 1.427 . S
C340 H331 0.930 . S
C340 C338 1.378 . S
C340 C341 1.367 . S
C341 C340 1.367 . S
C341 C343 1.433 . S
C342 C338 1.350 . S
C342 C339 1.463 . S
C342 N346 1.427 . S
C343 H333 0.929 . S
C343 C341 1.433 . S
C343 N346 1.384 . S
C344 H335 0.929 . S
C344 C336 1.378 . S
C344 C339 1.350 . S
C345 H332 0.929 . S
C345 C337 1.433 . S
C345 N347 1.384 . S
N346 C342 1.427 . S
N346 C343 1.384 . S
N347 C339 1.427 . S
N347 C345 1.384 . S
H348 C354 0.930 . S
H349 C358 0.930 . S
H350 C363 0.929 . S
H351 C361 0.929 . S
H352 C356 0.929 . S
H353 C362 0.929 . S
C354 H348 0.930 . S
C354 C355 1.367 . S
C354 C362 1.378 . S
C355 C354 1.367 . S
C355 C363 1.433 . S
C356 H352 0.929 . S
C356 C358 1.378 . S
C356 C360 1.350 . S
C357 C360 1.463 . S
C357 C362 1.350 . S
C357 N365 1.427 . S
C358 H349 0.930 . S
C358 C356 1.378 . S
C358 C359 1.367 . S
C359 C358 1.367 . S
C359 C361 1.433 . S
C360 C356 1.350 . S
C360 C357 1.463 . S
C360 N364 1.427 . S
C361 H351 0.929 . S
C361 C359 1.433 . S
C361 N364 1.384 . S
C362 H353 0.929 . S
C362 C354 1.378 . S
C362 C357 1.350 . S
C363 H350 0.929 . S
C363 C355 1.433 . S
C363 N365 1.384 . S
N364 C360 1.427 . S
N364 C361 1.384 . S
N365 C357 1.427 . S
N365 C363 1.384 . S
H366 C372 0.930 . S
H367 C376 0.930 . S
H368 C381 0.929 . S
H369 C379 0.929 . S
H370 C374 0.929 . S
H371 C380 0.929 . S
C372 H366 0.930 . S
C372 C373 1.367 . S
C372 C380 1.378 . S
C373 C372 1.367 . S
C373 C381 1.433 . S
C374 H370 0.929 . S
C374 C376 1.378 . S
C374 C378 1.350 . S
C375 C378 1.463 . S
C375 C380 1.350 . S
C375 N383 1.427 . S
C376 H367 0.930 . S
C376 C374 1.378 . S
C376 C377 1.367 . S
C377 C376 1.367 . S
C377 C379 1.433 . S
C378 C374 1.350 . S
C378 C375 1.463 . S
C378 N382 1.427 . S
C379 H369 0.929 . S
C379 C377 1.433 . S
C379 N382 1.384 . S
C380 H371 0.929 . S
C380 C372 1.378 . S
C380 C375 1.350 . S
C381 H368 0.929 . S
C381 C373 1.433 . S
C381 N383 1.384 . S
N382 C378 1.427 . S
N382 C379 1.384 . S
N383 C375 1.427 . S
N383 C381 1.384 . S
H384 C390 0.930 . S
H385 C394 0.930 . S
H386 C399 0.929 . S
H387 C397 0.929 . S
H388 C392 0.929 . S
H389 C398 0.929 . S
C390 H384 0.930 . S
C390 C391 1.367 1_554 S
C390 C398 1.378 . S
C391 C390 1.367 1_556 S
C391 C399 1.433 . S
C392 H388 0.929 . S
C392 C394 1.378 . S
C392 C396 1.350 1_556 S
C393 C396 1.463 1_566 S
C393 C398 1.350 1_556 S
C393 N401 1.427 . S
C394 H385 0.930 . S
C394 C392 1.378 . S
C394 C395 1.367 1_556 S
C395 C394 1.367 1_554 S
C395 C397 1.433 . S
C396 C392 1.350 1_554 S
C396 C393 1.463 1_544 S
C396 N400 1.427 . S
C397 H387 0.929 . S
C397 C395 1.433 . S
C397 N400 1.384 . S
C398 H389 0.929 . S
C398 C390 1.378 . S
C398 C393 1.350 1_554 S
C399 H386 0.929 . S
C399 C391 1.433 . S
C399 N401 1.384 . S
N400 C396 1.427 . S
N400 C397 1.384 . S
N401 C393 1.427 . S
N401 C399 1.384 . S
H402 C408 0.930 . S
H403 C412 0.930 . S
H404 C417 0.929 . S
H405 C415 0.929 . S
H406 C410 0.929 . S
H407 C416 0.929 . S
C408 H402 0.930 . S
C408 C409 1.367 . S
C408 C416 1.378 . S
C409 C408 1.367 . S
C409 C417 1.433 . S
C410 H406 0.929 . S
C410 C412 1.378 . S
C410 C414 1.350 . S
C411 C414 1.463 . S
C411 C416 1.350 . S
C411 N419 1.427 . S
C412 H403 0.930 . S
C412 C410 1.378 . S
C412 C413 1.367 . S
C413 C412 1.367 . S
C413 C415 1.433 . S
C414 C410 1.350 . S
C414 C411 1.463 . S
C414 N418 1.427 . S
C415 H405 0.929 . S
C415 C413 1.433 . S
C415 N418 1.384 . S
C416 H407 0.929 . S
C416 C408 1.378 . S
C416 C411 1.350 . S
C417 H404 0.929 . S
C417 C409 1.433 . S
C417 N419 1.384 . S
N418 C414 1.427 . S
N418 C415 1.384 . S
N419 C411 1.427 . S
N419 C417 1.384 . S
H420 C426 0.930 . S
H421 C430 0.930 . S
H422 C435 0.929 . S
H423 C433 0.929 . S
H424 C428 0.929 . S
H425 C434 0.929 . S
C426 H420 0.930 . S
C426 C427 1.367 . S
C426 C434 1.378 . S
C427 C426 1.367 . S
C427 C435 1.433 . S
C428 H424 0.929 . S
C428 C430 1.378 . S
C428 C432 1.350 . S
C429 C432 1.463 1_655 S
C429 C434 1.350 . S
C429 N437 1.427 . S
C430 H421 0.930 . S
C430 C428 1.378 . S
C430 C431 1.367 . S
C431 C430 1.367 . S
C431 C433 1.433 . S
C432 C428 1.350 . S
C432 C429 1.463 1_455 S
C432 N436 1.427 . S
C433 H423 0.929 . S
C433 C431 1.433 . S
C433 N436 1.384 . S
C434 H425 0.929 . S
C434 C426 1.378 . S
C434 C429 1.350 . S
C435 H422 0.929 . S
C435 C427 1.433 . S
C435 N437 1.384 . S
N436 C432 1.427 . S
N436 C433 1.384 . S
N437 C429 1.427 . S
N437 C435 1.384 . S
H438 C444 0.930 . S
H439 C448 0.930 . S
H440 C453 0.929 . S
H441 C451 0.929 . S
H442 C446 0.929 . S
H443 C452 0.929 . S
C444 H438 0.930 . S
C444 C445 1.367 . S
C444 C452 1.378 . S
C445 C444 1.367 . S
C445 C453 1.433 1_554 S
C446 H442 0.929 . S
C446 C448 1.378 . S
C446 C450 1.350 . S
C447 C450 1.463 1_564 S
C447 C452 1.350 . S
C447 N455 1.427 1_554 S
C448 H439 0.930 . S
C448 C446 1.378 . S
C448 C449 1.367 . S
C449 C448 1.367 . S
C449 C451 1.433 1_556 S
C450 C446 1.350 . S
C450 C447 1.463 1_546 S
C450 N454 1.427 1_556 S
C451 H441 0.929 . S
C451 C449 1.433 1_554 S
C451 N454 1.384 . S
C452 H443 0.929 . S
C452 C444 1.378 . S
C452 C447 1.350 . S
C453 H440 0.929 . S
C453 C445 1.433 1_556 S
C453 N455 1.384 . S
N454 C450 1.427 1_554 S
N454 C451 1.384 . S
N455 C447 1.427 1_556 S
N455 C453 1.384 . S
H456 C462 0.930 . S
H457 C466 0.930 . S
H458 C471 0.929 . S
H459 C469 0.929 . S
H460 C464 0.929 . S
H461 C470 0.929 . S
C462 H456 0.930 . S
C462 C463 1.367 . S
C462 C470 1.378 . S
C463 C462 1.367 . S
C463 C471 1.433 . S
C464 H460 0.929 . S
C464 C466 1.378 . S
C464 C468 1.350 . S
C465 C468 1.463 . S
C465 C470 1.350 . S
C465 N473 1.427 . S
C466 H457 0.930 . S
C466 C464 1.378 . S
C466 C467 1.367 . S
C467 C466 1.367 . S
C467 C469 1.433 . S
C468 C464 1.350 . S
C468 C465 1.463 . S
C468 N472 1.427 . S
C469 H459 0.929 . S
C469 C467 1.433 . S
C469 N472 1.384 . S
C470 H461 0.929 . S
C470 C462 1.378 . S
C470 C465 1.350 . S
C471 H458 0.929 . S
C471 C463 1.433 . S
C471 N473 1.384 . S
N472 C468 1.427 . S
N472 C469 1.384 . S
N473 C465 1.427 . S
N473 C471 1.384 . S
H474 C480 0.930 . S
H475 C484 0.930 . S
H476 C489 0.929 . S
H477 C487 0.929 . S
H478 C482 0.929 . S
H479 C488 0.929 . S
C480 H474 0.930 . S
C480 C481 1.367 . S
C480 C488 1.378 . S
C481 C480 1.367 . S
C481 C489 1.433 . S
C482 H478 0.929 . S
C482 C484 1.378 . S
C482 C486 1.350 . S
C483 C486 1.463 1_455 S
C483 C488 1.350 . S
C483 N491 1.427 . S
C484 H475 0.930 . S
C484 C482 1.378 . S
C484 C485 1.367 . S
C485 C484 1.367 . S
C485 C487 1.433 . S
C486 C482 1.350 . S
C486 C483 1.463 1_655 S
C486 N490 1.427 . S
C487 H477 0.929 . S
C487 C485 1.433 . S
C487 N490 1.384 . S
C488 H479 0.929 . S
C488 C480 1.378 . S
C488 C483 1.350 . S
C489 H476 0.929 . S
C489 C481 1.433 . S
C489 N491 1.384 . S
N490 C486 1.427 . S
N490 C487 1.384 . S
N491 C483 1.427 . S
N491 C489 1.384 . S
H492 C498 0.930 . S
H493 C502 0.930 . S
H494 C507 0.929 1_655 S
H495 C505 0.929 . S
H496 C500 0.929 . S
H497 C506 0.929 . S
C498 H492 0.930 . S
C498 C499 1.367 . S
C498 C506 1.378 . S
C499 C498 1.367 . S
C499 C507 1.433 . S
C500 H496 0.929 . S
C500 C502 1.378 . S
C500 C504 1.350 . S
C501 C504 1.463 1_556 S
C501 C506 1.350 . S
C501 N509 1.427 . S
C502 H493 0.930 . S
C502 C500 1.378 . S
C502 C503 1.367 . S
C503 C502 1.367 . S
C503 C505 1.433 . S
C504 C500 1.350 . S
C504 C501 1.463 1_554 S
C504 N508 1.427 . S
C505 H495 0.929 . S
C505 C503 1.433 . S
C505 N508 1.384 . S
C506 H497 0.929 . S
C506 C498 1.378 . S
C506 C501 1.350 . S
C507 H494 0.929 1_455 S
C507 C499 1.433 . S
C507 N509 1.384 . S
N508 C504 1.427 . S
N508 C505 1.384 . S
N509 C501 1.427 . S
N509 C507 1.384 . S
H510 C516 0.930 . S
H511 C520 0.930 . S
H512 C525 0.929 1_565 S
H513 C523 0.929 . S
H514 C518 0.929 . S
H515 C524 0.929 . S
C516 H510 0.930 . S
C516 C517 1.367 . S
C516 C524 1.378 . S
C517 C516 1.367 . S
C517 C525 1.433 . S
C518 H514 0.929 . S
C518 C520 1.378 . S
C518 C522 1.350 . S
C519 C522 1.463 . S
C519 C524 1.350 . S
C519 N527 1.427 . S
C520 H511 0.930 . S
C520 C518 1.378 . S
C520 C521 1.367 . S
C521 C520 1.367 . S
C521 C523 1.433 . S
C522 C518 1.350 . S
C522 C519 1.463 . S
C522 N526 1.427 . S
C523 H513 0.929 . S
C523 C521 1.433 . S
C523 N526 1.384 . S
C524 H515 0.929 . S
C524 C516 1.378 . S
C524 C519 1.350 . S
C525 H512 0.929 1_545 S
C525 C517 1.433 . S
C525 N527 1.384 . S
N526 C522 1.427 . S
N526 C523 1.384 . S
N527 C519 1.427 . S
N527 C525 1.384 . S
H528 C534 0.930 . S
H529 C538 0.930 . S
H530 C543 0.929 . S
H531 C541 0.929 . S
H532 C536 0.929 . S
H533 C542 0.929 . S
C534 H528 0.930 . S
C534 C535 1.367 . S
C534 C542 1.378 . S
C535 C534 1.367 . S
C535 C543 1.433 . S
C536 H532 0.929 . S
C536 C538 1.378 . S
C536 C540 1.350 . S
C537 C540 1.463 . S
C537 C542 1.350 . S
C537 N545 1.427 . S
C538 H529 0.930 . S
C538 C536 1.378 . S
C538 C539 1.367 . S
C539 C538 1.367 . S
C539 C541 1.433 . S
C540 C536 1.350 . S
C540 C537 1.463 . S
C540 N544 1.427 . S
C541 H531 0.929 . S
C541 C539 1.433 . S
C541 N544 1.384 . S
C542 H533 0.929 . S
C542 C534 1.378 . S
C542 C537 1.350 . S
C543 H530 0.929 . S
C543 C535 1.433 . S
C543 N545 1.384 . S
N544 C540 1.427 . S
N544 C541 1.384 . S
N545 C537 1.427 . S
N545 C543 1.384 . S
H546 C552 0.930 . S
H547 C556 0.930 . S
H548 C561 0.929 1_556 S
H549 C559 0.929 1_554 S
H550 C554 0.929 . S
H551 C560 0.929 . S
C552 H546 0.930 . S
C552 C553 1.367 . S
C552 C560 1.378 . S
C553 C552 1.367 . S
C553 C561 1.433 . S
C554 H550 0.929 . S
C554 C556 1.378 . S
C554 C558 1.350 . S
C555 C558 1.463 1_554 S
C555 C560 1.350 . S
C555 N563 1.427 1_554 S
C556 H547 0.930 . S
C556 C554 1.378 . S
C556 C557 1.367 . S
C557 C556 1.367 . S
C557 C559 1.433 . S
C558 C554 1.350 . S
C558 C555 1.463 1_556 S
C558 N562 1.427 1_556 S
C559 H549 0.929 1_556 S
C559 C557 1.433 . S
C559 N562 1.384 1_556 S
C560 H551 0.929 . S
C560 C552 1.378 . S
C560 C555 1.350 . S
C561 H548 0.929 1_554 S
C561 C553 1.433 . S
C561 N563 1.384 1_554 S
N562 C558 1.427 1_554 S
N562 C559 1.384 1_554 S
N563 C555 1.427 1_556 S
N563 C561 1.384 1_556 S
H564 C570 0.930 1_655 S
H565 C574 0.930 . S
H566 C579 0.929 . S
H567 C577 0.929 . S
H568 C572 0.929 . S
H569 C578 0.929 . S
C570 H564 0.930 1_455 S
C570 C571 1.367 . S
C570 C578 1.378 . S
C571 C570 1.367 . S
C571 C579 1.433 . S
C572 H568 0.929 . S
C572 C574 1.378 . S
C572 C576 1.350 . S
C573 C576 1.463 . S
C573 C578 1.350 . S
C573 N581 1.427 . S
C574 H565 0.930 . S
C574 C572 1.378 . S
C574 C575 1.367 . S
C575 C574 1.367 . S
C575 C577 1.433 . S
C576 C572 1.350 . S
C576 C573 1.463 . S
C576 N580 1.427 . S
C577 H567 0.929 . S
C577 C575 1.433 . S
C577 N580 1.384 . S
C578 H569 0.929 . S
C578 C570 1.378 . S
C578 C573 1.350 . S
C579 H566 0.929 . S
C579 C571 1.433 . S
C579 N581 1.384 . S
N580 C576 1.427 . S
N580 C577 1.384 . S
N581 C573 1.427 . S
N581 C579 1.384 . S
H582 C588 0.930 . S
H583 C592 0.930 . S
H584 C597 0.929 . S
H585 C595 0.929 . S
H586 C590 0.929 . S
H587 C596 0.929 . S
C588 H582 0.930 . S
C588 C589 1.367 . S
C588 C596 1.378 . S
C589 C588 1.367 . S
C589 C597 1.433 . S
C590 H586 0.929 . S
C590 C592 1.378 . S
C590 C594 1.350 . S
C591 C594 1.463 . S
C591 C596 1.350 . S
C591 N599 1.427 . S
C592 H583 0.930 . S
C592 C590 1.378 . S
C592 C593 1.367 . S
C593 C592 1.367 . S
C593 C595 1.433 . S
C594 C590 1.350 . S
C594 C591 1.463 . S
C594 N598 1.427 . S
C595 H585 0.929 . S
C595 C593 1.433 . S
C595 N598 1.384 . S
C596 H587 0.929 . S
C596 C588 1.378 . S
C596 C591 1.350 . S
C597 H584 0.929 . S
C597 C589 1.433 . S
C597 N599 1.384 . S
N598 C594 1.427 . S
N598 C595 1.384 . S
N599 C591 1.427 . S
N599 C597 1.384 . S
C175 C47 1.302 . S
C179 C5 1.309 . S
C193 C19 1.306 . S
C197 C61 1.316 . S
C211 C75 1.314 . S
C215 C33 1.323 . S
C229 C89 1.320 . S
C233 C131 1.325 . S
C247 C145 1.325 . S
C251 C103 1.320 . S
C265 C117 1.305 . S
C269 C159 1.316 . S
C283 C123 1.521 . S
C287 C11 1.525 . S
C301 C25 1.525 . S
C305 C137 1.521 . S
C319 C39 1.525 . S
C323 C151 1.520 . S
C337 C53 1.516 . S
C341 C165 1.518 . S
C355 C95 1.516 . S
C359 C67 1.522 . S
C373 C109 1.523 . S
C377 C81 1.524 . S
C391 C110 0.927 . S
C395 C12 0.925 . S
C409 C26 0.926 . S
C413 C124 0.911 . S
C427 C40 0.906 . S
C431 C138 0.914 . S
C445 C54 0.907 . S
C449 C152 0.920 . S
C463 C166 0.926 . S
C467 C68 0.927 . S
C481 C82 0.927 . S
C485 C96 0.913 . S
C499 C144 1.322 1_455 S
C503 C4 1.306 . S
C517 C158 1.316 1_545 S
C521 C18 1.313 1_655 S
C535 C88 1.317 . S
C539 C32 1.312 1_565 S
C553 C46 1.317 . S
C557 C102 1.313 1_655 S
C571 C60 1.312 1_455 S
C575 C116 1.314 1_565 S
C589 C74 1.312 1_545 S
C593 C130 1.318 . S
