# Generated by pormake.
# Topology msp, (4)-cn, num edge types: 1
# Building blocks:
#     Node 0, Type 0, BuildingBlock: QUQFOY_clean_sbu_1, # of connection points: 4
#     Node 1, Type 0, BuildingBlock: QUQFOY_clean_sbu_1, # of connection points: 4
#     Node 2, Type 0, BuildingBlock: QUQFOY_clean_sbu_1, # of connection points: 4
#     Node 3, Type 0, BuildingBlock: QUQFOY_clean_sbu_1, # of connection points: 4
#     Node 4, Type 0, BuildingBlock: QUQFOY_clean_sbu_1, # of connection points: 4
#     Node 5, Type 0, BuildingBlock: QUQFOY_clean_sbu_1, # of connection points: 4
#     Node 6, Type 0, BuildingBlock: QUQFOY_clean_sbu_1, # of connection points: 4
#     Node 7, Type 0, BuildingBlock: QUQFOY_clean_sbu_1, # of connection points: 4
#     Edge 8, Type (0, 0), BuildingBlock: KIFKEQ_clean_linker_1, # of connection points: 2
#     Edge 9, Type (0, 0), BuildingBlock: KIFKEQ_clean_linker_1, # of connection points: 2
#     Edge 10, Type (0, 0), BuildingBlock: KIFKEQ_clean_linker_1, # of connection points: 2
#     Edge 11, Type (0, 0), BuildingBlock: KIFKEQ_clean_linker_1, # of connection points: 2
#     Edge 12, Type (0, 0), BuildingBlock: KIFKEQ_clean_linker_1, # of connection points: 2
#     Edge 13, Type (0, 0), BuildingBlock: KIFKEQ_clean_linker_1, # of connection points: 2
#     Edge 14, Type (0, 0), BuildingBlock: KIFKEQ_clean_linker_1, # of connection points: 2
#     Edge 15, Type (0, 0), BuildingBlock: KIFKEQ_clean_linker_1, # of connection points: 2
#     Edge 16, Type (0, 0), BuildingBlock: KIFKEQ_clean_linker_1, # of connection points: 2
#     Edge 17, Type (0, 0), BuildingBlock: KIFKEQ_clean_linker_1, # of connection points: 2
#     Edge 18, Type (0, 0), BuildingBlock: KIFKEQ_clean_linker_1, # of connection points: 2
#     Edge 19, Type (0, 0), BuildingBlock: KIFKEQ_clean_linker_1, # of connection points: 2
#     Edge 20, Type (0, 0), BuildingBlock: KIFKEQ_clean_linker_1, # of connection points: 2
#     Edge 21, Type (0, 0), BuildingBlock: KIFKEQ_clean_linker_1, # of connection points: 2
#     Edge 22, Type (0, 0), BuildingBlock: KIFKEQ_clean_linker_1, # of connection points: 2
#     Edge 23, Type (0, 0), BuildingBlock: KIFKEQ_clean_linker_1, # of connection points: 2
# Relax obj value: 0.066
# Max RMSD: 0.123
# Mean RMSD: 0.123
data_MOF--net-msp--node1-QUQFOY_clean_sbu_1--edge1-KIFKEQ_clean_linker_1
_symmetry_space_group_name_H-M    P1
_symmetry_Int_Tables_number       1
_symmetry_cell_setting            triclinic
loop_
_symmetry_equiv_pos_as_xyz
'x, y, z'
_cell_length_a     24.378872
_cell_length_b     37.481036
_cell_length_c     34.684098
_cell_angle_alpha  89.974216
_cell_angle_beta   94.421223
_cell_angle_gamma 89.980011
loop_
_atom_site_label
_atom_site_type_symbol
_atom_site_fract_x
_atom_site_fract_y
_atom_site_fract_z
_atom_type_partial_charge
O0 O 0.05312 0.3117 0.34079 0.0
Cd1 Cd -0.0001 0.30734 0.38287 0.0
Cd2 Cd 0.06197 0.36632 0.40887 0.0
O3 O 0.09843 0.36112 0.35658 0.0
O4 O 0.94888 0.27117 0.35786 0.0
O5 O 0.92195 0.32541 0.37229 0.0
C6 C 0.91085 0.29504 0.35594 0.0
C7 C 0.03742 0.42146 0.43549 0.0
C8 C 0.08989 0.33434 0.33428 0.0
C9 C 0.07467 0.29584 0.45294 0.0
O10 O 0.08916 0.3281 0.44857 0.0
O11 O 0.03604 0.28208 0.43112 0.0
O12 O 0.08812 0.41285 0.43253 0.0
O13 O 0.00016 0.39942 0.42166 0.0
O14 O 0.43451 0.32369 0.67179 0.0
Cd15 Cd 0.49022 0.31123 0.63301 0.0
Cd16 Cd 0.43448 0.36717 0.59205 0.0
O17 O 0.38703 0.36573 0.63947 0.0
O18 O 0.53609 0.27612 0.66452 0.0
O19 O 0.56979 0.3263 0.6431 0.0
C20 C 0.57698 0.29768 0.6636 0.0
C21 C 0.45759 0.42163 0.56286 0.0
C22 C 0.39403 0.345 0.66855 0.0
C23 C 0.42434 0.29245 0.55925 0.0
O24 O 0.41532 0.32567 0.55471 0.0
O25 O 0.45487 0.28096 0.58799 0.0
O26 O 0.40752 0.41059 0.56217 0.0
O27 O 0.49492 0.40231 0.58123 0.0
O28 O 0.94269 0.75976 0.67626 0.0
Cd29 Cd 0.99286 0.76036 0.63202 0.0
Cd30 Cd 0.93066 0.7005 0.61185 0.0
O31 O 0.8958 0.7101 0.66409 0.0
O32 O 0.05055 0.79495 0.65139 0.0
O33 O 0.06803 0.73804 0.64115 0.0
C34 C 0.08495 0.76883 0.65389 0.0
C35 C 0.95129 0.64337 0.58824 0.0
C36 C 0.90588 0.73784 0.68474 0.0
C37 C 0.91662 0.76767 0.56222 0.0
O38 O 0.90311 0.73573 0.56923 0.0
O39 O 0.95496 0.78313 0.58277 0.0
O40 O 0.90131 0.65386 0.59053 0.0
O41 O 0.99008 0.66449 0.60164 0.0
O42 O 0.55573 0.76081 0.32372 0.0
Cd43 Cd 0.50005 0.76294 0.36444 0.0
Cd44 Cd 0.56175 0.70212 0.38801 0.0
O45 O 0.6014 0.71101 0.33756 0.0
O46 O 0.44831 0.7991 0.3401 0.0
O47 O 0.42325 0.74379 0.35169 0.0
C48 C 0.41132 0.77459 0.33655 0.0
C49 C 0.54268 0.64476 0.41182 0.0
C50 C 0.59335 0.73889 0.3168 0.0
C51 C 0.56986 0.77045 0.43706 0.0
O52 O 0.58415 0.73849 0.43077 0.0
O53 O 0.53322 0.7859 0.41494 0.0
O54 O 0.59222 0.65666 0.41172 0.0
O55 O 0.50365 0.66462 0.39629 0.0
O56 O 0.57303 0.83747 0.82471 0.0
Cd57 Cd 0.51699 0.81916 0.86079 0.0
Cd58 Cd 0.57105 0.86789 0.91134 0.0
O59 O 0.62726 0.86478 0.8692 0.0
O60 O 0.4746 0.78605 0.82452 0.0
O61 O 0.43608 0.83175 0.85177 0.0
C62 C 0.43159 0.80523 0.82802 0.0
C63 C 0.55006 0.92286 0.9403 0.0
C64 C 0.61908 0.85142 0.83549 0.0
C65 C 0.57519 0.79194 0.93508 0.0
O66 O 0.57682 0.82401 0.94702 0.0
O67 O 0.55326 0.78455 0.90159 0.0
O68 O 0.59736 0.90781 0.9468 0.0
O69 O 0.51465 0.90723 0.91635 0.0
O70 O 0.92813 0.81516 0.16004 0.0
Cd71 Cd 0.98571 0.80981 0.12088 0.0
Cd72 Cd 0.92897 0.86704 0.08682 0.0
O73 O 0.88342 0.86209 0.13505 0.0
O74 O 0.04034 0.77689 0.1479 0.0
O75 O 0.05984 0.83264 0.13331 0.0
C76 C 0.07472 0.80302 0.15009 0.0
C77 C 0.95449 0.92271 0.06166 0.0
C78 C 0.88921 0.83756 0.16053 0.0
C79 C 0.92142 0.79555 0.04593 0.0
O80 O 0.9084 0.8284 0.04623 0.0
O81 O 0.95489 0.78254 0.07219 0.0
O82 O 0.9038 0.91285 0.06088 0.0
O83 O 0.991 0.90158 0.07821 0.0
O84 O 0.42627 0.25672 0.18039 0.0
Cd85 Cd 0.4842 0.26165 0.14143 0.0
Cd86 Cd 0.42885 0.20426 0.10768 0.0
O87 O 0.38104 0.21038 0.15459 0.0
O88 O 0.53916 0.29434 0.16827 0.0
O89 O 0.558 0.23844 0.15381 0.0
C90 C 0.57326 0.26804 0.17046 0.0
C91 C 0.45376 0.1479 0.08396 0.0
C92 C 0.38661 0.23484 0.18013 0.0
C93 C 0.42167 0.27513 0.06575 0.0
O94 O 0.40998 0.24209 0.06594 0.0
O95 O 0.45358 0.28869 0.09254 0.0
O96 O 0.40338 0.15852 0.0819 0.0
O97 O 0.49026 0.16866 0.10107 0.0
O98 O 0.06201 0.2646 0.83082 0.0
Cd99 Cd 0.00746 0.26314 0.87233 0.0
Cd100 Cd 0.07082 0.20508 0.89445 0.0
O101 O 0.1091 0.21514 0.84361 0.0
O102 O 0.94847 0.29584 0.85067 0.0
O103 O 0.93498 0.23825 0.85982 0.0
C104 C 0.9165 0.26854 0.84659 0.0
C105 C 0.04939 0.14774 0.91706 0.0
C106 C 0.10016 0.24327 0.82336 0.0
C107 C 0.07795 0.27233 0.94425 0.0
O108 O 0.09423 0.24088 0.93757 0.0
O109 O 0.03942 0.28665 0.92282 0.0
O110 O 0.09949 0.15867 0.9169 0.0
O111 O 0.01116 0.1686 0.90221 0.0
H112 H 0.10303 0.47922 0.45315 0.0
H113 H 0.93991 0.43828 0.46543 0.0
H114 H 0.08189 0.53197 0.49011 0.0
H115 H 0.91938 0.49006 0.50423 0.0
H116 H 0.87989 0.60261 0.54265 0.0
H117 H 0.89983 0.5503 0.50491 0.0
H118 H 0.06956 0.55406 0.55129 0.0
H119 H 0.0498 0.60776 0.58748 0.0
C120 C 0.06259 0.48146 0.46387 0.0
C121 C 0.02309 0.45456 0.45615 0.0
C122 C 0.05057 0.51163 0.48554 0.0
C123 C -0.00107 0.51555 0.50075 0.0
C124 C 0.95931 0.48859 0.49268 0.0
C125 C 0.97109 0.45869 0.47045 0.0
C126 C 0.92144 0.59215 0.54501 0.0
C127 C 0.96324 0.60946 0.56816 0.0
C128 C 0.93293 0.56187 0.52339 0.0
C129 C 0.98649 0.54757 0.52466 0.0
C130 C 0.02804 0.56449 0.54868 0.0
C131 C 0.01666 0.59517 0.56986 0.0
H132 H 0.61182 0.60742 0.46255 0.0
H133 H 0.4474 0.60531 0.40678 0.0
H134 H 0.59189 0.55462 0.49952 0.0
H135 H 0.42803 0.55105 0.44214 0.0
H136 H 0.38837 0.4757 0.53837 0.0
H137 H 0.40929 0.5287 0.50179 0.0
H138 H 0.57834 0.49386 0.50058 0.0
H139 H 0.55763 0.44192 0.53917 0.0
C140 C 0.57159 0.59525 0.45764 0.0
C141 C 0.5312 0.61066 0.43166 0.0
C142 C 0.56015 0.56468 0.4788 0.0
C143 C 0.50816 0.54816 0.4742 0.0
C144 C 0.46817 0.5632 0.44736 0.0
C145 C 0.47938 0.59421 0.42667 0.0
C146 C 0.43011 0.47954 0.53052 0.0
C147 C 0.47137 0.45463 0.54185 0.0
C148 C 0.44211 0.50985 0.50907 0.0
C149 C 0.49557 0.51586 0.49765 0.0
C150 C 0.53687 0.4908 0.50919 0.0
C151 C 0.52502 0.46079 0.53127 0.0
H152 H 0.38503 0.09495 0.05556 0.0
H153 H 0.55665 0.12417 0.06937 0.0
H154 H 0.40852 0.04095 0.02154 0.0
H155 H 0.58023 0.07082 0.03392 0.0
H156 H 0.61067 0.95538 0.99983 0.0
H157 H 0.58784 1.0084 0.03568 0.0
H158 H 0.43711 1.0199 0.96251 0.0
H159 H 0.45916 0.96585 0.92767 0.0
C160 C 0.42788 0.08985 0.0513 0.0
C161 C 0.46895 0.11391 0.06531 0.0
C162 C 0.44137 0.05896 0.03137 0.0
C163 C 0.49634 0.05136 0.02448 0.0
C164 C 0.53752 0.07531 0.03898 0.0
C165 C 0.52402 0.10607 0.05928 0.0
C166 C 0.57267 0.96925 0.9913 0.0
C167 C 0.53672 0.95626 0.96083 0.0
C168 C 0.55966 0.99991 0.0118 0.0
C169 C 0.51049 1.01873 0.00224 0.0
C170 C 0.47486 1.00591 0.97135 0.0
C171 C 0.48768 0.975 0.95107 0.0
H172 H 0.88824 0.97934 0.04054 0.0
H173 H 0.0552 0.94171 0.03816 0.0
H174 H 0.91155 1.03294 0.00576 0.0
H175 H 0.07818 0.99433 0.00141 0.0
H176 H 0.11737 0.10782 0.96613 0.0
H177 H 0.09521 0.05479 0.00203 0.0
H178 H 0.9302 0.05618 0.94642 0.0
H179 H 0.95193 0.11061 0.91216 0.0
C180 C 0.93 0.98249 0.03244 0.0
C181 C 0.9699 0.95627 0.04229 0.0
C182 C 0.94334 1.01315 0.01201 0.0
C183 C 0.99681 1.01826 1.00017 0.0
C184 C 0.03679 0.99196 0.01037 0.0
C185 C 0.02362 0.96157 0.03141 0.0
C186 C 0.07641 0.0967 0.96138 0.0
C187 C 0.03644 0.11354 0.93621 0.0
C188 C 0.06366 0.066 0.98193 0.0
C189 C 0.01071 0.05079 0.9775 0.0
C190 C 0.97109 0.06729 0.95149 0.0
C191 C 0.98365 0.0984 0.93141 0.0
H192 H 0.63685 0.21409 0.20246 0.0
H193 H 0.62694 0.32886 0.19422 0.0
H194 H 0.71569 0.21933 0.24967 0.0
H195 H 0.70747 0.3343 0.23984 0.0
H196 H 0.81744 0.33625 0.35047 0.0
H197 H 0.73623 0.32866 0.30552 0.0
H198 H 0.80831 0.23365 0.25985 0.0
H199 H 0.88752 0.24027 0.30596 0.0
C200 C 0.65238 0.24044 0.21008 0.0
C201 C 0.62573 0.27105 0.19463 0.0
C202 C 0.69768 0.24352 0.23721 0.0
C203 C 0.71797 0.2773 0.24906 0.0
C204 C 0.69232 0.30786 0.23236 0.0
C205 C 0.64652 0.30476 0.20574 0.0
C206 C 0.81537 0.31346 0.33123 0.0
C207 C 0.85884 0.28884 0.33191 0.0
C208 C 0.76912 0.30929 0.30506 0.0
C209 C 0.76567 0.28071 0.27855 0.0
C210 C 0.80881 0.2557 0.28001 0.0
C211 C 0.85452 0.25958 0.3065 0.0
H212 H 0.59731 0.24391 0.71567 0.0
H213 H 0.67238 0.33673 0.66792 0.0
H214 H 0.67687 0.23643 0.7616 0.0
H215 H 0.75324 0.32849 0.71306 0.0
H216 H 0.86128 0.3294 0.82483 0.0
H217 H 0.77981 0.33514 0.78014 0.0
H218 H 0.77112 0.22033 0.76952 0.0
H219 H 0.85166 0.21465 0.81539 0.0
C220 C 0.63127 0.26241 0.71451 0.0
C221 C 0.62841 0.29101 0.68816 0.0
C222 C 0.67708 0.25803 0.74086 0.0
C223 C 0.72145 0.282 0.74138 0.0
C224 C 0.71933 0.30995 0.71411 0.0
C225 C 0.67324 0.31449 0.6879 0.0
C226 C 0.84151 0.30535 0.81337 0.0
C227 C 0.86291 0.27156 0.82367 0.0
C228 C 0.79514 0.30865 0.78734 0.0
C229 C 0.76925 0.27824 0.77062 0.0
C230 C 0.78966 0.24435 0.78196 0.0
C231 C 0.83585 0.24105 0.80832 0.0
H232 H 0.15813 0.71708 0.67976 0.0
H233 H 0.13489 0.83132 0.67628 0.0
H234 H 0.24136 0.72487 0.72267 0.0
H235 H 0.21877 0.83922 0.71814 0.0
H236 H 0.33247 0.83986 0.82823 0.0
H237 H 0.25042 0.83028 0.78454 0.0
H238 H 0.334 0.74601 0.72739 0.0
H239 H 0.41504 0.75482 0.77171 0.0
C240 C 0.17143 0.74389 0.68748 0.0
C241 C 0.13981 0.77356 0.6747 0.0
C242 C 0.21916 0.74839 0.71213 0.0
C243 C 0.23648 0.78269 0.72435 0.0
C244 C 0.20598 0.81238 0.71015 0.0
C245 C 0.15818 0.80787 0.68575 0.0
C246 C 0.33307 0.81909 0.80657 0.0
C247 C 0.38027 0.79812 0.80351 0.0
C248 C 0.28624 0.81379 0.78124 0.0
C249 C 0.28567 0.78755 0.75213 0.0
C250 C 0.33264 0.76619 0.74963 0.0
C251 C 0.37927 0.77136 0.77504 0.0
H252 H 0.38768 0.83008 0.28752 0.0
H253 H 0.31875 0.7327 0.32951 0.0
H254 H 0.30881 0.83704 0.24117 0.0
H255 H 0.23777 0.74061 0.28442 0.0
H256 H 0.12853 0.742 0.17318 0.0
H257 H 0.20888 0.73612 0.21891 0.0
H258 H 0.21637 0.85097 0.23051 0.0
H259 H 0.13782 0.85665 0.18312 0.0
C260 C 0.35498 0.81052 0.28745 0.0
C261 C 0.35955 0.78079 0.31222 0.0
C262 C 0.30944 0.81459 0.26083 0.0
C263 C 0.26667 0.78932 0.25861 0.0
C264 C 0.27038 0.76022 0.28449 0.0
C265 C 0.3165 0.75584 0.31075 0.0
C266 C 0.14794 0.76598 0.18511 0.0
C267 C 0.12707 0.79979 0.1744 0.0
C268 C 0.19364 0.76263 0.2118 0.0
C269 C 0.21906 0.79302 0.22903 0.0
C270 C 0.19861 0.82691 0.21763 0.0
C271 C 0.15346 0.83024 0.19039 0.0
H272 H 0.39498 0.26483 0.2518 0.0
H273 H 0.27678 0.22662 0.16233 0.0
H274 H 0.32101 0.29123 0.28561 0.0
H275 H 0.20298 0.25476 0.19457 0.0
H276 H 0.07801 0.28098 0.28129 0.0
H277 H 0.14862 0.25457 0.24554 0.0
H278 H 0.26026 0.33954 0.2831 0.0
H279 H 0.18983 0.36484 0.32142 0.0
C280 C 0.35294 0.26162 0.23973 0.0
C281 C 0.34155 0.24327 0.20473 0.0
C282 C 0.31055 0.27741 0.25865 0.0
C283 C 0.25578 0.27592 0.24258 0.0
C284 C 0.24434 0.25629 0.20822 0.0
C285 C 0.28667 0.23986 0.18975 0.0
C286 C 0.11734 0.29447 0.28161 0.0
C287 C 0.12838 0.32485 0.30479 0.0
C288 C 0.15806 0.27926 0.2608 0.0
C289 C 0.21088 0.29435 0.26183 0.0
C290 C 0.22066 0.32642 0.28256 0.0
C291 C 0.17993 0.34142 0.30399 0.0
H292 H 0.40306 0.31957 0.74232 0.0
H293 H 0.28386 0.35381 0.65132 0.0
H294 H 0.32967 0.29392 0.77729 0.0
H295 H 0.21059 0.32689 0.68532 0.0
H296 H 0.08726 0.29933 0.77361 0.0
H297 H 0.15701 0.32781 0.73834 0.0
H298 H 0.27114 0.24323 0.77266 0.0
H299 H 0.20153 0.21545 0.80988 0.0
C300 C 0.36095 0.32227 0.7302 0.0
C301 C 0.34922 0.33887 0.69416 0.0
C302 C 0.31894 0.30693 0.74986 0.0
C303 C 0.26421 0.30742 0.73373 0.0
C304 C 0.25213 0.32602 0.69879 0.0
C305 C 0.29414 0.34179 0.67936 0.0
C306 C 0.12698 0.28641 0.77331 0.0
C307 C 0.13889 0.25519 0.79499 0.0
C308 C 0.16712 0.30283 0.75288 0.0
C309 C 0.22022 0.2883 0.75311 0.0
C310 C 0.23114 0.25578 0.77273 0.0
C311 C 0.19095 0.23944 0.79355 0.0
H312 H 0.61614 0.83355 0.75913 0.0
H313 H 0.72794 0.84749 0.86082 0.0
H314 H 0.68821 0.80342 0.72675 0.0
H315 H 0.79966 0.81654 0.82879 0.0
H316 H 0.92719 0.78709 0.7415 0.0
H317 H 0.8604 0.81792 0.77787 0.0
H318 H 0.73351 0.74594 0.73159 0.0
H319 H 0.80038 0.71567 0.694 0.0
C320 C 0.65649 0.83088 0.77428 0.0
C321 C 0.66621 0.84295 0.81257 0.0
C322 C 0.69753 0.813 0.75598 0.0
C323 C 0.74927 0.8066 0.77554 0.0
C324 C 0.76025 0.82088 0.81287 0.0
C325 C 0.71922 0.83898 0.83113 0.0
C326 C 0.88526 0.7773 0.73967 0.0
C327 C 0.869 0.74911 0.7145 0.0
C328 C 0.8469 0.79506 0.76058 0.0
C329 C 0.79127 0.78501 0.75697 0.0
C330 C 0.7758 0.75501 0.73416 0.0
C331 C 0.8143 0.7372 0.71315 0.0
H332 H 0.89959 0.80592 0.23138 0.0
H333 H 0.77933 0.84932 0.14624 0.0
H334 H 0.82617 0.78071 0.26666 0.0
H335 H 0.70588 0.82255 0.18005 0.0
H336 H 0.58425 0.79618 0.26864 0.0
H337 H 0.65501 0.82282 0.23321 0.0
H338 H 0.76253 0.73366 0.26345 0.0
H339 H 0.69201 0.70786 0.3014 0.0
C340 C 0.85728 0.81054 0.22058 0.0
C341 C 0.84515 0.82989 0.18627 0.0
C342 C 0.81515 0.79548 0.24037 0.0
C343 C 0.75985 0.79881 0.22592 0.0
C344 C 0.74776 0.81957 0.19242 0.0
C345 C 0.7899 0.83521 0.17305 0.0
C346 C 0.6227 0.78187 0.2675 0.0
C347 C 0.63252 0.74994 0.28833 0.0
C348 C 0.66347 0.79723 0.24686 0.0
C349 C 0.71512 0.78084 0.24575 0.0
C350 C 0.72383 0.74766 0.26452 0.0
C351 C 0.68306 0.73245 0.28576 0.0
H352 H 0.38612 0.29456 0.48335 0.0
H353 H 0.36944 0.23822 0.59035 0.0
H354 H 0.29425 0.27484 0.45954 0.0
H355 H 0.27646 0.22013 0.56721 0.0
H356 H 0.118 0.3059 0.52669 0.0
H357 H 0.2079 0.28369 0.55204 0.0
H358 H 0.21491 0.21578 0.45221 0.0
H359 H 0.12348 0.23654 0.42786 0.0
C360 C 0.36412 0.2763 0.50084 0.0
C361 C 0.38477 0.26806 0.53868 0.0
C362 C 0.31146 0.2651 0.48731 0.0
C363 C 0.27839 0.24629 0.51181 0.0
C364 C 0.30145 0.2344 0.5478 0.0
C365 C 0.35484 0.24463 0.56086 0.0
C366 C 0.13711 0.28451 0.51153 0.0
C367 C 0.1138 0.27273 0.47557 0.0
C368 C 0.18859 0.27187 0.5259 0.0
C369 C 0.2181 0.24814 0.50389 0.0
C370 C 0.19255 0.23374 0.4698 0.0
C371 C 0.14015 0.24549 0.45608 0.0
H372 H 0.87593 0.75186 0.48926 0.0
H373 H 0.86413 0.8277 0.58177 0.0
H374 H 0.78559 0.77072 0.46096 0.0
H375 H 0.77237 0.84531 0.55434 0.0
H376 H 0.6238 0.83024 0.41885 0.0
H377 H 0.71553 0.84614 0.44748 0.0
H378 H 0.69642 0.77213 0.54062 0.0
H379 H 0.606 0.75493 0.51112 0.0
C380 C 0.85532 0.7739 0.5023 0.0
C381 C 0.87707 0.7886 0.53737 0.0
C382 C 0.8036 0.78455 0.48631 0.0
C383 C 0.77245 0.80937 0.50566 0.0
C384 C 0.79615 0.82649 0.53877 0.0
C385 C 0.84873 0.81657 0.5542 0.0
C386 C 0.6378 0.81899 0.44667 0.0
C387 C 0.6079 0.79145 0.46296 0.0
C388 C 0.69042 0.82793 0.4628 0.0
C389 C 0.71256 0.8103 0.49608 0.0
C390 C 0.67965 0.78631 0.51512 0.0
C391 C 0.62785 0.77663 0.49844 0.0
H392 H 0.87179 0.73588 0.06982 0.0
H393 H 0.88367 0.80408 0.97057 0.0
H394 H 0.78217 0.71456 0.04275 0.0
H395 H 0.79547 0.78149 0.94271 0.0
H396 H 0.63501 0.74204 0.89998 0.0
H397 H 0.72746 0.72362 0.92355 0.0
H398 H 0.70196 0.76763 0.03561 0.0
H399 H 0.61026 0.78751 0.01171 0.0
C400 C 0.85703 0.74451 0.04104 0.0
C401 C 0.88449 0.77173 0.02226 0.0
C402 C 0.80555 0.73246 0.02575 0.0
C403 C 0.78195 0.74654 0.99085 0.0
C404 C 0.81304 0.76997 0.96954 0.0
C405 C 0.86363 0.78284 0.98538 0.0
C406 C 0.6478 0.74611 0.93027 0.0
C407 C 0.61566 0.7668 0.95388 0.0
C408 C 0.70098 0.73565 0.94361 0.0
C409 C 0.72187 0.74457 0.98116 0.0
C410 C 0.68663 0.76028 0.00654 0.0
C411 C 0.63404 0.77163 0.9929 0.0
H412 H 0.3662 0.33203 0.09033 0.0
H413 H 0.38715 0.26727 0.98971 0.0
H414 H 0.27439 0.34921 0.06333 0.0
H415 H 0.29657 0.28606 0.96189 0.0
H416 H 0.12803 0.33273 0.92371 0.0
H417 H 0.21869 0.35205 0.95128 0.0
H418 H 0.20595 0.27987 0.04697 0.0
H419 H 0.11684 0.2591 0.01837 0.0
C420 C 0.35289 0.32353 0.06125 0.0
C421 C 0.38365 0.29824 0.04205 0.0
C422 C 0.30017 0.33321 0.04601 0.0
C423 C 0.27876 0.31885 0.01073 0.0
C424 C 0.31267 0.29773 0.98903 0.0
C425 C 0.36458 0.28711 0.00479 0.0
C426 C 0.14318 0.32253 0.95178 0.0
C427 C 0.11547 0.29458 0.96915 0.0
C428 C 0.19517 0.33344 0.96731 0.0
C429 C 0.21884 0.31744 0.00113 0.0
C430 C 0.18797 0.29287 0.02108 0.0
C431 C 0.13693 0.28112 0.0049 0.0
loop_
_geom_bond_atom_site_label_1
_geom_bond_atom_site_label_2
_geom_bond_distance
_geom_bond_site_symmetry_2
_ccdc_geom_bond_type
O0 Cd1 2.223 . S
O0 C8 1.315 . S
Cd1 O0 2.223 . S
Cd1 O4 2.297 1_455 S
Cd1 O5 2.439 1_455 S
Cd1 O11 2.240 . S
Cd2 O3 2.240 . S
Cd2 O10 2.223 . S
Cd2 O12 2.297 . S
Cd2 O13 2.439 1_455 S
O3 Cd2 2.240 . S
O3 C8 1.279 . S
O4 Cd1 2.297 1_655 S
O4 C6 1.247 . S
O5 Cd1 2.439 1_655 S
O5 C6 1.208 . S
C6 O4 1.247 . S
C6 O5 1.208 . S
C7 O12 1.247 . S
C7 O13 1.208 1_455 S
C8 O0 1.315 . S
C8 O3 1.279 . S
C9 O10 1.315 . S
C9 O11 1.279 . S
O10 Cd2 2.223 . S
O10 C9 1.315 . S
O11 Cd1 2.240 . S
O11 C9 1.279 . S
O12 Cd2 2.297 . S
O12 C7 1.247 . S
O13 Cd2 2.439 1_655 S
O13 C7 1.208 1_655 S
O14 Cd15 2.223 . S
O14 C22 1.315 . S
Cd15 O14 2.223 . S
Cd15 O18 2.297 . S
Cd15 O19 2.439 . S
Cd15 O25 2.240 . S
Cd16 O17 2.240 . S
Cd16 O24 2.223 . S
Cd16 O26 2.297 . S
Cd16 O27 2.439 . S
O17 Cd16 2.240 . S
O17 C22 1.279 . S
O18 Cd15 2.297 . S
O18 C20 1.247 . S
O19 Cd15 2.439 . S
O19 C20 1.208 . S
C20 O18 1.247 . S
C20 O19 1.208 . S
C21 O26 1.247 . S
C21 O27 1.208 . S
C22 O14 1.315 . S
C22 O17 1.279 . S
C23 O24 1.315 . S
C23 O25 1.279 . S
O24 Cd16 2.223 . S
O24 C23 1.315 . S
O25 Cd15 2.240 . S
O25 C23 1.279 . S
O26 Cd16 2.297 . S
O26 C21 1.247 . S
O27 Cd16 2.439 . S
O27 C21 1.208 . S
O28 Cd29 2.223 . S
O28 C36 1.315 . S
Cd29 O28 2.223 . S
Cd29 O32 2.297 1_655 S
Cd29 O33 2.439 1_655 S
Cd29 O39 2.240 . S
Cd30 O31 2.240 . S
Cd30 O38 2.223 . S
Cd30 O40 2.297 . S
Cd30 O41 2.439 1_655 S
O31 Cd30 2.240 . S
O31 C36 1.279 . S
O32 Cd29 2.297 1_455 S
O32 C34 1.247 . S
O33 Cd29 2.439 1_455 S
O33 C34 1.208 . S
C34 O32 1.247 . S
C34 O33 1.208 . S
C35 O40 1.247 . S
C35 O41 1.208 1_655 S
C36 O28 1.315 . S
C36 O31 1.279 . S
C37 O38 1.315 . S
C37 O39 1.279 . S
O38 Cd30 2.223 . S
O38 C37 1.315 . S
O39 Cd29 2.240 . S
O39 C37 1.279 . S
O40 Cd30 2.297 . S
O40 C35 1.247 . S
O41 Cd30 2.439 1_455 S
O41 C35 1.208 1_455 S
O42 Cd43 2.223 . S
O42 C50 1.315 . S
Cd43 O42 2.223 . S
Cd43 O46 2.297 . S
Cd43 O47 2.439 . S
Cd43 O53 2.240 . S
Cd44 O45 2.240 . S
Cd44 O52 2.223 . S
Cd44 O54 2.297 . S
Cd44 O55 2.439 . S
O45 Cd44 2.240 . S
O45 C50 1.279 . S
O46 Cd43 2.297 . S
O46 C48 1.247 . S
O47 Cd43 2.439 . S
O47 C48 1.208 . S
C48 O46 1.247 . S
C48 O47 1.208 . S
C49 O54 1.247 . S
C49 O55 1.208 . S
C50 O42 1.315 . S
C50 O45 1.279 . S
C51 O52 1.315 . S
C51 O53 1.279 . S
O52 Cd44 2.223 . S
O52 C51 1.315 . S
O53 Cd43 2.240 . S
O53 C51 1.279 . S
O54 Cd44 2.297 . S
O54 C49 1.247 . S
O55 Cd44 2.439 . S
O55 C49 1.208 . S
O56 Cd57 2.223 . S
O56 C64 1.315 . S
Cd57 O56 2.223 . S
Cd57 O60 2.297 . S
Cd57 O61 2.439 . S
Cd57 O67 2.240 . S
Cd58 O59 2.240 . S
Cd58 O66 2.223 . S
Cd58 O68 2.297 . S
Cd58 O69 2.439 . S
O59 Cd58 2.240 . S
O59 C64 1.279 . S
O60 Cd57 2.297 . S
O60 C62 1.247 . S
O61 Cd57 2.439 . S
O61 C62 1.208 . S
C62 O60 1.247 . S
C62 O61 1.208 . S
C63 O68 1.247 . S
C63 O69 1.208 . S
C64 O56 1.315 . S
C64 O59 1.279 . S
C65 O66 1.315 . S
C65 O67 1.279 . S
O66 Cd58 2.223 . S
O66 C65 1.315 . S
O67 Cd57 2.240 . S
O67 C65 1.279 . S
O68 Cd58 2.297 . S
O68 C63 1.247 . S
O69 Cd58 2.439 . S
O69 C63 1.208 . S
O70 Cd71 2.223 . S
O70 C78 1.315 . S
Cd71 O70 2.223 . S
Cd71 O74 2.297 1_655 S
Cd71 O75 2.439 1_655 S
Cd71 O81 2.240 . S
Cd72 O73 2.240 . S
Cd72 O80 2.223 . S
Cd72 O82 2.297 . S
Cd72 O83 2.439 1_655 S
O73 Cd72 2.240 . S
O73 C78 1.279 . S
O74 Cd71 2.297 1_455 S
O74 C76 1.247 . S
O75 Cd71 2.439 1_455 S
O75 C76 1.208 . S
C76 O74 1.247 . S
C76 O75 1.208 . S
C77 O82 1.247 . S
C77 O83 1.208 1_655 S
C78 O70 1.315 . S
C78 O73 1.279 . S
C79 O80 1.315 . S
C79 O81 1.279 . S
O80 Cd72 2.223 . S
O80 C79 1.315 . S
O81 Cd71 2.240 . S
O81 C79 1.279 . S
O82 Cd72 2.297 . S
O82 C77 1.247 . S
O83 Cd72 2.439 1_455 S
O83 C77 1.208 1_455 S
O84 Cd85 2.223 . S
O84 C92 1.315 . S
Cd85 O84 2.223 . S
Cd85 O88 2.297 . S
Cd85 O89 2.439 . S
Cd85 O95 2.240 . S
Cd86 O87 2.240 . S
Cd86 O94 2.223 . S
Cd86 O96 2.297 . S
Cd86 O97 2.439 . S
O87 Cd86 2.240 . S
O87 C92 1.279 . S
O88 Cd85 2.297 . S
O88 C90 1.247 . S
O89 Cd85 2.439 . S
O89 C90 1.208 . S
C90 O88 1.247 . S
C90 O89 1.208 . S
C91 O96 1.247 . S
C91 O97 1.208 . S
C92 O84 1.315 . S
C92 O87 1.279 . S
C93 O94 1.315 . S
C93 O95 1.279 . S
O94 Cd86 2.223 . S
O94 C93 1.315 . S
O95 Cd85 2.240 . S
O95 C93 1.279 . S
O96 Cd86 2.297 . S
O96 C91 1.247 . S
O97 Cd86 2.439 . S
O97 C91 1.208 . S
O98 Cd99 2.223 . S
O98 C106 1.315 . S
Cd99 O98 2.223 . S
Cd99 O102 2.297 1_455 S
Cd99 O103 2.439 1_455 S
Cd99 O109 2.240 . S
Cd100 O101 2.240 . S
Cd100 O108 2.223 . S
Cd100 O110 2.297 . S
Cd100 O111 2.439 1_455 S
O101 Cd100 2.240 . S
O101 C106 1.279 . S
O102 Cd99 2.297 1_655 S
O102 C104 1.247 . S
O103 Cd99 2.439 1_655 S
O103 C104 1.208 . S
C104 O102 1.247 . S
C104 O103 1.208 . S
C105 O110 1.247 . S
C105 O111 1.208 1_455 S
C106 O98 1.315 . S
C106 O101 1.279 . S
C107 O108 1.315 . S
C107 O109 1.279 . S
O108 Cd100 2.223 . S
O108 C107 1.315 . S
O109 Cd99 2.240 . S
O109 C107 1.279 . S
O110 Cd100 2.297 . S
O110 C105 1.247 . S
O111 Cd100 2.439 1_655 S
O111 C105 1.208 1_655 S
H112 C120 0.950 . S
H113 C125 0.950 . S
H114 C122 0.950 . S
H115 C124 0.950 . S
H116 C126 0.950 . S
H117 C128 0.950 . S
H118 C130 0.950 . S
H119 C131 0.950 . S
C120 H112 0.950 . S
C120 C121 1.386 . S
C120 C122 1.391 . S
C121 C120 1.386 . S
C121 C125 1.393 1_455 S
C122 H114 0.950 . S
C122 C120 1.391 . S
C122 C123 1.411 . S
C123 C122 1.411 . S
C123 C124 1.389 1_455 S
C123 C129 1.490 1_455 S
C124 H115 0.950 . S
C124 C123 1.389 1_655 S
C124 C125 1.391 . S
C125 H113 0.950 . S
C125 C121 1.393 1_655 S
C125 C124 1.391 . S
C126 H116 0.950 . S
C126 C127 1.386 . S
C126 C128 1.391 . S
C127 C126 1.386 . S
C127 C131 1.393 1_655 S
C128 H117 0.950 . S
C128 C126 1.391 . S
C128 C129 1.411 . S
C129 C123 1.490 1_655 S
C129 C128 1.411 . S
C129 C130 1.389 1_655 S
C130 H118 0.950 . S
C130 C129 1.389 1_455 S
C130 C131 1.391 . S
C131 H119 0.950 . S
C131 C127 1.393 1_455 S
C131 C130 1.391 . S
H132 C140 0.950 . S
H133 C145 0.950 . S
H134 C142 0.950 . S
H135 C144 0.950 . S
H136 C146 0.950 . S
H137 C148 0.950 . S
H138 C150 0.950 . S
H139 C151 0.950 . S
C140 H132 0.950 . S
C140 C141 1.386 . S
C140 C142 1.391 . S
C141 C140 1.386 . S
C141 C145 1.393 . S
C142 H134 0.950 . S
C142 C140 1.391 . S
C142 C143 1.400 . S
C143 C142 1.400 . S
C143 C144 1.398 . S
C143 C149 1.491 . S
C144 H135 0.950 . S
C144 C143 1.398 . S
C144 C145 1.391 . S
C145 H133 0.950 . S
C145 C141 1.393 . S
C145 C144 1.391 . S
C146 H136 0.950 . S
C146 C147 1.386 . S
C146 C148 1.391 . S
C147 C146 1.386 . S
C147 C151 1.393 . S
C148 H137 0.950 . S
C148 C146 1.391 . S
C148 C149 1.400 . S
C149 C143 1.491 . S
C149 C148 1.400 . S
C149 C150 1.398 . S
C150 H138 0.950 . S
C150 C149 1.398 . S
C150 C151 1.391 . S
C151 H139 0.950 . S
C151 C147 1.393 . S
C151 C150 1.391 . S
H152 C160 0.950 . S
H153 C165 0.950 . S
H154 C162 0.955 . S
H155 C164 0.950 . S
H156 C166 0.950 . S
H157 C168 0.955 . S
H158 C170 0.950 . S
H159 C171 0.950 . S
C160 H152 0.950 . S
C160 C161 1.386 . S
C160 C162 1.388 1_554 S
C161 C160 1.386 . S
C161 C165 1.393 . S
C162 H154 0.955 . S
C162 C160 1.388 1_556 S
C162 C163 1.398 1_556 S
C163 C162 1.398 1_554 S
C163 C164 1.398 . S
C163 C169 1.491 1_544 S
C164 H155 0.950 . S
C164 C163 1.398 . S
C164 C165 1.391 . S
C165 H153 0.950 . S
C165 C161 1.393 . S
C165 C164 1.391 . S
C166 H156 0.950 . S
C166 C167 1.386 . S
C166 C168 1.388 1_556 S
C167 C166 1.386 . S
C167 C171 1.393 . S
C168 H157 0.955 . S
C168 C166 1.388 1_554 S
C168 C169 1.398 1_554 S
C169 C163 1.491 1_566 S
C169 C168 1.398 1_556 S
C169 C170 1.398 . S
C170 H158 0.950 . S
C170 C169 1.398 . S
C170 C171 1.391 . S
C171 H159 0.950 . S
C171 C167 1.393 . S
C171 C170 1.391 . S
H172 C180 0.950 . S
H173 C185 0.950 . S
H174 C182 0.950 1_556 S
H175 C184 0.950 . S
H176 C186 0.950 . S
H177 C188 0.950 1_554 S
H178 C190 0.950 . S
H179 C191 0.950 . S
C180 H172 0.950 . S
C180 C181 1.386 . S
C180 C182 1.391 . S
C181 C180 1.386 . S
C181 C185 1.393 1_655 S
C182 H174 0.950 1_554 S
C182 C180 1.391 . S
C182 C183 1.411 . S
C183 C182 1.411 . S
C183 C184 1.388 1_655 S
C183 C189 1.489 1_664 S
C184 H175 0.950 . S
C184 C183 1.388 1_455 S
C184 C185 1.391 . S
C185 H173 0.950 . S
C185 C181 1.393 1_455 S
C185 C184 1.391 . S
C186 H176 0.950 . S
C186 C187 1.386 . S
C186 C188 1.391 . S
C187 C186 1.386 . S
C187 C191 1.393 1_455 S
C188 H177 0.950 1_556 S
C188 C186 1.391 . S
C188 C189 1.411 . S
C189 C183 1.489 1_446 S
C189 C188 1.411 . S
C189 C190 1.388 1_455 S
C190 H178 0.950 . S
C190 C189 1.388 1_655 S
C190 C191 1.391 . S
C191 H179 0.950 . S
C191 C187 1.393 1_655 S
C191 C190 1.391 . S
H192 C200 0.950 . S
H193 C205 0.950 . S
H194 C202 0.950 . S
H195 C204 0.950 . S
H196 C206 0.950 . S
H197 C208 0.950 . S
H198 C210 0.950 . S
H199 C211 0.950 . S
C200 H192 0.950 . S
C200 C201 1.386 . S
C200 C202 1.391 . S
C201 C200 1.386 . S
C201 C205 1.393 . S
C202 H194 0.950 . S
C202 C200 1.391 . S
C202 C203 1.400 . S
C203 C202 1.400 . S
C203 C204 1.398 . S
C203 C209 1.491 . S
C204 H195 0.950 . S
C204 C203 1.398 . S
C204 C205 1.391 . S
C205 H193 0.950 . S
C205 C201 1.393 . S
C205 C204 1.391 . S
C206 H196 0.950 . S
C206 C207 1.386 . S
C206 C208 1.391 . S
C207 C206 1.386 . S
C207 C211 1.393 . S
C208 H197 0.950 . S
C208 C206 1.391 . S
C208 C209 1.400 . S
C209 C203 1.491 . S
C209 C208 1.400 . S
C209 C210 1.398 . S
C210 H198 0.950 . S
C210 C209 1.398 . S
C210 C211 1.391 . S
C211 H199 0.950 . S
C211 C207 1.393 . S
C211 C210 1.391 . S
H212 C220 0.950 . S
H213 C225 0.950 . S
H214 C222 0.950 . S
H215 C224 0.950 . S
H216 C226 0.950 . S
H217 C228 0.950 . S
H218 C230 0.950 . S
H219 C231 0.950 . S
C220 H212 0.950 . S
C220 C221 1.386 . S
C220 C222 1.391 . S
C221 C220 1.386 . S
C221 C225 1.393 . S
C222 H214 0.950 . S
C222 C220 1.391 . S
C222 C223 1.400 . S
C223 C222 1.400 . S
C223 C224 1.398 . S
C223 C229 1.491 . S
C224 H215 0.950 . S
C224 C223 1.398 . S
C224 C225 1.391 . S
C225 H213 0.950 . S
C225 C221 1.393 . S
C225 C224 1.391 . S
C226 H216 0.950 . S
C226 C227 1.386 . S
C226 C228 1.391 . S
C227 C226 1.386 . S
C227 C231 1.393 . S
C228 H217 0.950 . S
C228 C226 1.391 . S
C228 C229 1.400 . S
C229 C223 1.491 . S
C229 C228 1.400 . S
C229 C230 1.398 . S
C230 H218 0.950 . S
C230 C229 1.398 . S
C230 C231 1.391 . S
C231 H219 0.950 . S
C231 C227 1.393 . S
C231 C230 1.391 . S
H232 C240 0.950 . S
H233 C245 0.950 . S
H234 C242 0.950 . S
H235 C244 0.950 . S
H236 C246 0.950 . S
H237 C248 0.950 . S
H238 C250 0.950 . S
H239 C251 0.950 . S
C240 H232 0.950 . S
C240 C241 1.386 . S
C240 C242 1.391 . S
C241 C240 1.386 . S
C241 C245 1.393 . S
C242 H234 0.950 . S
C242 C240 1.391 . S
C242 C243 1.400 . S
C243 C242 1.400 . S
C243 C244 1.398 . S
C243 C249 1.491 . S
C244 H235 0.950 . S
C244 C243 1.398 . S
C244 C245 1.391 . S
C245 H233 0.950 . S
C245 C241 1.393 . S
C245 C244 1.391 . S
C246 H236 0.950 . S
C246 C247 1.386 . S
C246 C248 1.391 . S
C247 C246 1.386 . S
C247 C251 1.393 . S
C248 H237 0.950 . S
C248 C246 1.391 . S
C248 C249 1.400 . S
C249 C243 1.491 . S
C249 C248 1.400 . S
C249 C250 1.398 . S
C250 H238 0.950 . S
C250 C249 1.398 . S
C250 C251 1.391 . S
C251 H239 0.950 . S
C251 C247 1.393 . S
C251 C250 1.391 . S
H252 C260 0.950 . S
H253 C265 0.950 . S
H254 C262 0.950 . S
H255 C264 0.950 . S
H256 C266 0.950 . S
H257 C268 0.950 . S
H258 C270 0.950 . S
H259 C271 0.950 . S
C260 H252 0.950 . S
C260 C261 1.386 . S
C260 C262 1.391 . S
C261 C260 1.386 . S
C261 C265 1.393 . S
C262 H254 0.950 . S
C262 C260 1.391 . S
C262 C263 1.400 . S
C263 C262 1.400 . S
C263 C264 1.398 . S
C263 C269 1.491 . S
C264 H255 0.950 . S
C264 C263 1.398 . S
C264 C265 1.391 . S
C265 H253 0.950 . S
C265 C261 1.393 . S
C265 C264 1.391 . S
C266 H256 0.950 . S
C266 C267 1.386 . S
C266 C268 1.391 . S
C267 C266 1.386 . S
C267 C271 1.393 . S
C268 H257 0.950 . S
C268 C266 1.391 . S
C268 C269 1.400 . S
C269 C263 1.491 . S
C269 C268 1.400 . S
C269 C270 1.398 . S
C270 H258 0.950 . S
C270 C269 1.398 . S
C270 C271 1.391 . S
C271 H259 0.950 . S
C271 C267 1.393 . S
C271 C270 1.391 . S
H272 C280 0.950 . S
H273 C285 0.950 . S
H274 C282 0.950 . S
H275 C284 0.950 . S
H276 C286 0.950 . S
H277 C288 0.950 . S
H278 C290 0.950 . S
H279 C291 0.950 . S
C280 H272 0.950 . S
C280 C281 1.386 . S
C280 C282 1.391 . S
C281 C280 1.386 . S
C281 C285 1.393 . S
C282 H274 0.950 . S
C282 C280 1.391 . S
C282 C283 1.400 . S
C283 C282 1.400 . S
C283 C284 1.398 . S
C283 C289 1.491 . S
C284 H275 0.950 . S
C284 C283 1.398 . S
C284 C285 1.391 . S
C285 H273 0.950 . S
C285 C281 1.393 . S
C285 C284 1.391 . S
C286 H276 0.950 . S
C286 C287 1.386 . S
C286 C288 1.391 . S
C287 C286 1.386 . S
C287 C291 1.393 . S
C288 H277 0.950 . S
C288 C286 1.391 . S
C288 C289 1.400 . S
C289 C283 1.491 . S
C289 C288 1.400 . S
C289 C290 1.398 . S
C290 H278 0.950 . S
C290 C289 1.398 . S
C290 C291 1.391 . S
C291 H279 0.950 . S
C291 C287 1.393 . S
C291 C290 1.391 . S
H292 C300 0.950 . S
H293 C305 0.950 . S
H294 C302 0.950 . S
H295 C304 0.950 . S
H296 C306 0.950 . S
H297 C308 0.950 . S
H298 C310 0.950 . S
H299 C311 0.950 . S
C300 H292 0.950 . S
C300 C301 1.386 . S
C300 C302 1.391 . S
C301 C300 1.386 . S
C301 C305 1.393 . S
C302 H294 0.950 . S
C302 C300 1.391 . S
C302 C303 1.400 . S
C303 C302 1.400 . S
C303 C304 1.398 . S
C303 C309 1.491 . S
C304 H295 0.950 . S
C304 C303 1.398 . S
C304 C305 1.391 . S
C305 H293 0.950 . S
C305 C301 1.393 . S
C305 C304 1.391 . S
C306 H296 0.950 . S
C306 C307 1.386 . S
C306 C308 1.391 . S
C307 C306 1.386 . S
C307 C311 1.393 . S
C308 H297 0.950 . S
C308 C306 1.391 . S
C308 C309 1.400 . S
C309 C303 1.491 . S
C309 C308 1.400 . S
C309 C310 1.398 . S
C310 H298 0.950 . S
C310 C309 1.398 . S
C310 C311 1.391 . S
C311 H299 0.950 . S
C311 C307 1.393 . S
C311 C310 1.391 . S
H312 C320 0.950 . S
H313 C325 0.950 . S
H314 C322 0.950 . S
H315 C324 0.950 . S
H316 C326 0.950 . S
H317 C328 0.950 . S
H318 C330 0.950 . S
H319 C331 0.950 . S
C320 H312 0.950 . S
C320 C321 1.386 . S
C320 C322 1.391 . S
C321 C320 1.386 . S
C321 C325 1.393 . S
C322 H314 0.950 . S
C322 C320 1.391 . S
C322 C323 1.400 . S
C323 C322 1.400 . S
C323 C324 1.398 . S
C323 C329 1.491 . S
C324 H315 0.950 . S
C324 C323 1.398 . S
C324 C325 1.391 . S
C325 H313 0.950 . S
C325 C321 1.393 . S
C325 C324 1.391 . S
C326 H316 0.950 . S
C326 C327 1.386 . S
C326 C328 1.391 . S
C327 C326 1.386 . S
C327 C331 1.393 . S
C328 H317 0.950 . S
C328 C326 1.391 . S
C328 C329 1.400 . S
C329 C323 1.491 . S
C329 C328 1.400 . S
C329 C330 1.398 . S
C330 H318 0.950 . S
C330 C329 1.398 . S
C330 C331 1.391 . S
C331 H319 0.950 . S
C331 C327 1.393 . S
C331 C330 1.391 . S
H332 C340 0.950 . S
H333 C345 0.950 . S
H334 C342 0.950 . S
H335 C344 0.950 . S
H336 C346 0.950 . S
H337 C348 0.950 . S
H338 C350 0.950 . S
H339 C351 0.950 . S
C340 H332 0.950 . S
C340 C341 1.386 . S
C340 C342 1.391 . S
C341 C340 1.386 . S
C341 C345 1.393 . S
C342 H334 0.950 . S
C342 C340 1.391 . S
C342 C343 1.400 . S
C343 C342 1.400 . S
C343 C344 1.398 . S
C343 C349 1.491 . S
C344 H335 0.950 . S
C344 C343 1.398 . S
C344 C345 1.391 . S
C345 H333 0.950 . S
C345 C341 1.393 . S
C345 C344 1.391 . S
C346 H336 0.950 . S
C346 C347 1.386 . S
C346 C348 1.391 . S
C347 C346 1.386 . S
C347 C351 1.393 . S
C348 H337 0.950 . S
C348 C346 1.391 . S
C348 C349 1.400 . S
C349 C343 1.491 . S
C349 C348 1.400 . S
C349 C350 1.398 . S
C350 H338 0.950 . S
C350 C349 1.398 . S
C350 C351 1.391 . S
C351 H339 0.950 . S
C351 C347 1.393 . S
C351 C350 1.391 . S
H352 C360 0.950 . S
H353 C365 0.950 . S
H354 C362 0.950 . S
H355 C364 0.950 . S
H356 C366 0.950 . S
H357 C368 0.950 . S
H358 C370 0.950 . S
H359 C371 0.950 . S
C360 H352 0.950 . S
C360 C361 1.386 . S
C360 C362 1.391 . S
C361 C360 1.386 . S
C361 C365 1.393 . S
C362 H354 0.950 . S
C362 C360 1.391 . S
C362 C363 1.400 . S
C363 C362 1.400 . S
C363 C364 1.398 . S
C363 C369 1.491 . S
C364 H355 0.950 . S
C364 C363 1.398 . S
C364 C365 1.391 . S
C365 H353 0.950 . S
C365 C361 1.393 . S
C365 C364 1.391 . S
C366 H356 0.950 . S
C366 C367 1.386 . S
C366 C368 1.391 . S
C367 C366 1.386 . S
C367 C371 1.393 . S
C368 H357 0.950 . S
C368 C366 1.391 . S
C368 C369 1.400 . S
C369 C363 1.491 . S
C369 C368 1.400 . S
C369 C370 1.398 . S
C370 H358 0.950 . S
C370 C369 1.398 . S
C370 C371 1.391 . S
C371 H359 0.950 . S
C371 C367 1.393 . S
C371 C370 1.391 . S
H372 C380 0.950 . S
H373 C385 0.950 . S
H374 C382 0.950 . S
H375 C384 0.950 . S
H376 C386 0.950 . S
H377 C388 0.950 . S
H378 C390 0.950 . S
H379 C391 0.950 . S
C380 H372 0.950 . S
C380 C381 1.386 . S
C380 C382 1.391 . S
C381 C380 1.386 . S
C381 C385 1.393 . S
C382 H374 0.950 . S
C382 C380 1.391 . S
C382 C383 1.400 . S
C383 C382 1.400 . S
C383 C384 1.398 . S
C383 C389 1.491 . S
C384 H375 0.950 . S
C384 C383 1.398 . S
C384 C385 1.391 . S
C385 H373 0.950 . S
C385 C381 1.393 . S
C385 C384 1.391 . S
C386 H376 0.950 . S
C386 C387 1.386 . S
C386 C388 1.391 . S
C387 C386 1.386 . S
C387 C391 1.393 . S
C388 H377 0.950 . S
C388 C386 1.391 . S
C388 C389 1.400 . S
C389 C383 1.491 . S
C389 C388 1.400 . S
C389 C390 1.398 . S
C390 H378 0.950 . S
C390 C389 1.398 . S
C390 C391 1.391 . S
C391 H379 0.950 . S
C391 C387 1.393 . S
C391 C390 1.391 . S
H392 C400 0.950 . S
H393 C405 0.948 1_556 S
H394 C402 0.950 . S
H395 C404 0.950 . S
H396 C406 0.950 . S
H397 C408 0.950 . S
H398 C410 0.950 . S
H399 C411 0.948 1_554 S
C400 H392 0.950 . S
C400 C401 1.386 . S
C400 C402 1.391 . S
C401 C400 1.386 . S
C401 C405 1.393 . S
C402 H394 0.950 . S
C402 C400 1.391 . S
C402 C403 1.400 . S
C403 C402 1.400 . S
C403 C404 1.398 1_554 S
C403 C409 1.491 1_554 S
C404 H395 0.950 . S
C404 C403 1.398 1_556 S
C404 C405 1.391 1_556 S
C405 H393 0.948 1_554 S
C405 C401 1.393 . S
C405 C404 1.391 1_554 S
C406 H396 0.950 . S
C406 C407 1.386 . S
C406 C408 1.391 . S
C407 C406 1.386 . S
C407 C411 1.393 . S
C408 H397 0.950 . S
C408 C406 1.391 . S
C408 C409 1.400 . S
C409 C403 1.491 1_556 S
C409 C408 1.400 . S
C409 C410 1.398 1_556 S
C410 H398 0.950 . S
C410 C409 1.398 1_554 S
C410 C411 1.391 1_554 S
C411 H399 0.948 1_556 S
C411 C407 1.393 . S
C411 C410 1.391 1_556 S
H412 C420 0.950 . S
H413 C425 0.950 . S
H414 C422 0.950 . S
H415 C424 0.950 . S
H416 C426 0.950 . S
H417 C428 0.950 . S
H418 C430 0.950 . S
H419 C431 0.950 . S
C420 H412 0.950 . S
C420 C421 1.386 . S
C420 C422 1.391 . S
C421 C420 1.386 . S
C421 C425 1.393 . S
C422 H414 0.950 . S
C422 C420 1.391 . S
C422 C423 1.400 . S
C423 C422 1.400 . S
C423 C424 1.398 1_554 S
C423 C429 1.491 1_554 S
C424 H415 0.950 . S
C424 C423 1.398 1_556 S
C424 C425 1.391 1_556 S
C425 H413 0.950 . S
C425 C421 1.393 . S
C425 C424 1.391 1_554 S
C426 H416 0.950 . S
C426 C427 1.386 . S
C426 C428 1.391 . S
C427 C426 1.386 . S
C427 C431 1.393 . S
C428 H417 0.950 . S
C428 C426 1.391 . S
C428 C429 1.400 . S
C429 C423 1.491 1_556 S
C429 C428 1.400 . S
C429 C430 1.398 1_556 S
C430 H418 0.950 . S
C430 C429 1.398 1_554 S
C430 C431 1.391 1_554 S
C431 H419 0.950 . S
C431 C427 1.393 . S
C431 C430 1.391 1_556 S
C121 C7 1.494 . S
C127 C35 1.494 . S
C141 C49 1.487 . S
C147 C21 1.487 . S
C161 C91 1.507 . S
C167 C63 1.507 . S
C181 C77 1.493 . S
C187 C105 1.493 . S
C201 C90 1.675 . S
C207 C6 1.675 . S
C221 C20 1.670 . S
C227 C104 1.670 . S
C241 C34 1.668 . S
C247 C62 1.668 . S
C261 C48 1.668 . S
C267 C76 1.668 . S
C281 C92 1.579 . S
C287 C8 1.579 . S
C301 C22 1.594 . S
C307 C106 1.594 . S
C321 C64 1.592 . S
C327 C36 1.592 . S
C341 C78 1.581 . S
C347 C50 1.581 . S
C361 C23 0.633 . S
C367 C9 0.569 . S
C381 C37 0.562 . S
C387 C51 0.588 . S
C401 C79 0.564 . S
C407 C65 0.631 . S
C421 C93 0.626 . S
C427 C107 0.557 . S
