# Generated by pormake.
# Topology bsn, (6)-cn, num edge types: 1
# Building blocks:
#     Node 0, Type 0, BuildingBlock: BETDEL_clean_sbu_0, # of connection points: 6
#     Node 1, Type 0, BuildingBlock: BETDEL_clean_sbu_0, # of connection points: 6
#     Node 2, Type 0, BuildingBlock: BETDEL_clean_sbu_0, # of connection points: 6
#     Node 3, Type 0, BuildingBlock: BETDEL_clean_sbu_0, # of connection points: 6
#     Edge 4, Type (0, 0), BuildingBlock: TEMPAE_clean_linker_10, # of connection points: 2
#     Edge 5, Type (0, 0), BuildingBlock: TEMPAE_clean_linker_10, # of connection points: 2
#     Edge 6, Type (0, 0), BuildingBlock: TEMPAE_clean_linker_10, # of connection points: 2
#     Edge 7, Type (0, 0), BuildingBlock: TEMPAE_clean_linker_10, # of connection points: 2
#     Edge 8, Type (0, 0), BuildingBlock: TEMPAE_clean_linker_10, # of connection points: 2
#     Edge 9, Type (0, 0), BuildingBlock: TEMPAE_clean_linker_10, # of connection points: 2
#     Edge 10, Type (0, 0), BuildingBlock: TEMPAE_clean_linker_10, # of connection points: 2
#     Edge 11, Type (0, 0), BuildingBlock: TEMPAE_clean_linker_10, # of connection points: 2
#     Edge 12, Type (0, 0), BuildingBlock: TEMPAE_clean_linker_10, # of connection points: 2
#     Edge 13, Type (0, 0), BuildingBlock: TEMPAE_clean_linker_10, # of connection points: 2
#     Edge 14, Type (0, 0), BuildingBlock: TEMPAE_clean_linker_10, # of connection points: 2
#     Edge 15, Type (0, 0), BuildingBlock: TEMPAE_clean_linker_10, # of connection points: 2
# Relax obj value: 0.363
# Max RMSD: 0.268
# Mean RMSD: 0.267
data_MOF--net-bsn--node1-BETDEL_clean_sbu_0--edge1-TEMPAE_clean_linker_10
_symmetry_space_group_name_H-M    P1
_symmetry_Int_Tables_number       1
_symmetry_cell_setting            triclinic
loop_
_symmetry_equiv_pos_as_xyz
'x, y, z'
_cell_length_a     33.250274
_cell_length_b     33.071436
_cell_length_c     14.442604
_cell_angle_alpha  93.714698
_cell_angle_beta   91.212199
_cell_angle_gamma 89.827153
loop_
_atom_site_label
_atom_site_type_symbol
_atom_site_fract_x
_atom_site_fract_y
_atom_site_fract_z
_atom_type_partial_charge
Dy0 Dy 0.06079 0.257 0.34024 0.0
C1 C 0.88767 0.25172 0.35047 0.0
C2 C 0.13744 0.26503 0.27948 0.0
Dy3 Dy 0.96928 0.26081 0.35266 0.0
O4 O 0.12746 0.26406 0.36573 0.0
O5 O 0.10554 0.26143 0.22622 0.0
O6 O 0.06758 0.22737 0.47312 0.0
O7 O 0.01909 0.26727 0.45394 0.0
C8 C 0.03437 0.24233 0.50729 0.0
C9 C 1.00026 0.27661 0.18962 0.0
O10 O 0.98201 0.32365 0.40894 0.0
O11 O 0.04902 0.32434 0.36483 0.0
O12 O 0.91235 0.23259 0.29486 0.0
O13 O 0.90777 0.27505 0.41099 0.0
O14 O 0.96928 0.29533 0.22405 0.0
O15 O 0.01152 0.24959 0.24137 0.0
O16 O 0.04614 0.19124 0.31275 0.0
O17 O 0.98256 0.1957 0.37616 0.0
C18 C 0.01631 0.3429 0.39834 0.0
C19 C 0.01368 0.17404 0.34486 0.0
Dy20 Dy 1.00823 0.8105 0.59046 0.0
C21 C 0.02193 0.63822 0.60586 0.0
C22 C 0.01484 0.88503 0.52187 0.0
Dy23 Dy 1.00644 0.7191 0.60816 0.0
O24 O 0.02781 0.87566 0.60334 0.0
O25 O 0.99816 0.85367 0.47794 0.0
O26 O 0.97786 0.82351 0.72526 0.0
O27 O 0.01489 0.77178 0.70647 0.0
C28 C 0.99061 0.79042 0.76028 0.0
C29 C 0.99196 0.7444 0.4382 0.0
O30 O 0.94358 0.73368 0.6457 0.0
O31 O 0.94214 0.79455 0.57338 0.0
O32 O 0.03769 0.66351 0.5522 0.0
O33 O 0.99799 0.65736 0.66445 0.0
O34 O 0.97325 0.71463 0.47155 0.0
O35 O 0.01818 0.75836 0.49548 0.0
O36 O 0.07459 0.79931 0.6124 0.0
O37 O 0.06973 0.73277 0.65371 0.0
C38 C 0.92361 0.76451 0.61255 0.0
C39 C 0.09096 0.76598 0.64373 0.0
Dy40 Dy 0.55579 0.75598 0.84431 0.0
C41 C 0.38278 0.75171 0.84145 0.0
C42 C 0.63267 0.76436 0.78574 0.0
Dy43 Dy 0.46441 0.75999 0.85199 0.0
O44 O 0.6223 0.76361 0.87181 0.0
O45 O 0.60106 0.76036 0.73169 0.0
O46 O 0.56102 0.72504 -0.02433 0.0
O47 O 0.51313 0.76555 0.95622 0.0
C48 C 0.52778 0.74016 0.00936 0.0
C49 C 0.49721 0.77741 0.69196 0.0
O50 O 0.47671 0.82251 0.91161 0.0
O51 O 0.54419 0.8232 0.87137 0.0
O52 O 0.40811 0.73527 0.78342 0.0
O53 O 0.40216 0.77174 0.90904 0.0
O54 O 0.4664 0.7964 0.72656 0.0
O55 O 0.50763 0.74963 0.7425 0.0
O56 O 0.54163 0.69035 0.81472 0.0
O57 O 0.47676 0.69423 0.87143 0.0
C58 C 0.51129 0.84169 0.904 0.0
C59 C 0.50852 0.67288 0.84258 0.0
Dy60 Dy 0.51583 0.30994 0.09601 0.0
C61 C 0.525 0.13663 0.11462 0.0
C62 C 0.51218 0.38525 0.0286 0.0
Dy63 Dy 0.51248 0.21805 0.11233 0.0
O64 O 0.50929 0.3777 0.11531 0.0
O65 O 0.51702 0.35162 -0.02148 0.0
O66 O 0.53784 0.3212 0.24181 0.0
O67 O 0.49973 0.2711 0.20538 0.0
C68 C 0.52141 0.28843 0.26891 0.0
C69 C 0.50479 0.24389 0.94168 0.0
O70 O 0.44775 0.2308 0.13444 0.0
O71 O 0.44877 0.29658 0.08532 0.0
O72 O 0.54316 0.16102 0.06283 0.0
O73 O 0.50039 0.15701 0.16935 0.0
O74 O 0.48612 0.2127 0.9687 0.0
O75 O 0.52876 0.25769 0.00418 0.0
O76 O 0.58189 0.29523 0.10385 0.0
O77 O 0.57372 0.23362 0.16954 0.0
C78 C 0.42898 0.2641 0.11036 0.0
C79 C 0.59653 0.26433 0.14856 0.0
C80 C 0.05391 0.40014 0.48042 0.0
C81 C 0.01902 0.38561 0.4336 0.0
C82 C 0.05581 0.44006 0.51979 0.0
C83 C 0.02251 0.46629 0.50916 0.0
C84 C 0.98724 0.45164 0.46166 0.0
C85 C 0.9857 0.41123 0.42578 0.0
C86 C 0.09347 0.45424 0.57227 0.0
C87 C 0.95154 0.47895 0.44638 0.0
C88 C 1.01037 0.56692 0.64982 0.0
C89 C 0.0255 0.59392 0.58846 0.0
C90 C 0.01089 0.52486 0.62709 0.0
C91 C 0.02571 0.50996 0.53997 0.0
C92 C 0.04169 0.53723 0.47893 0.0
C93 C 0.04193 0.57873 0.50458 0.0
C94 C 0.99476 0.4965 0.69508 0.0
C95 C 0.0569 0.52281 0.38452 0.0
H96 H 0.07936 0.37998 0.48823 0.0
H97 H 0.95867 0.39984 0.38988 0.0
H98 H 0.10868 0.47767 0.53411 0.0
H99 H 0.08566 0.46838 0.64136 0.0
H100 H 0.11502 0.42906 0.58212 0.0
H101 H 0.92616 0.46263 0.40947 0.0
H102 H 0.94077 0.49229 0.51381 0.0
H103 H 0.96063 0.50441 0.40501 0.0
H104 H 0.99778 0.57866 0.7148 0.0
H105 H 0.05353 0.59952 0.45664 0.0
H106 H 0.01644 0.47149 0.70517 0.0
H107 H 0.96635 0.48259 0.66709 0.0
H108 H 0.98872 0.51232 0.7636 0.0
H109 H 0.08105 0.49998 0.39169 0.0
H110 H 0.06884 0.54797 0.34581 0.0
H111 H 0.03211 0.50791 0.34256 0.0
C112 C 0.70577 0.77543 0.81874 0.0
C113 C 0.67427 0.76808 0.75405 0.0
C114 C 0.74573 0.77742 0.79008 0.0
C115 C 0.75432 0.77152 0.69449 0.0
C116 C 0.72245 0.76495 0.62867 0.0
C117 C 0.6827 0.76347 0.6593 0.0
C118 C 0.77885 0.7848 0.86234 0.0
C119 C 0.73043 0.75822 0.52631 0.0
C120 C 0.8584 0.80273 0.62136 0.0
C121 C 0.87952 0.76605 0.62418 0.0
C122 C 0.81727 0.80489 0.64185 0.0
C123 C 0.79685 0.76946 0.66461 0.0
C124 C 0.8177 0.73208 0.66381 0.0
C125 C 0.85878 0.73088 0.64407 0.0
C126 C 0.79606 0.84533 0.6426 0.0
C127 C 0.79692 0.69351 0.68662 0.0
H128 H 0.69924 0.77924 0.89202 0.0
H129 H 0.6583 0.75783 0.60918 0.0
H130 H 0.79852 0.75768 0.86376 0.0
H131 H 0.79793 0.81052 0.84447 0.0
H132 H 0.76693 0.79152 0.93298 0.0
H133 H 0.70221 0.75607 0.4837 0.0
H134 H 0.74894 0.78327 0.50264 0.0
H135 H 0.74779 0.72978 0.51345 0.0
H136 H 0.8743 0.83005 0.60644 0.0
H137 H 0.8748 0.70232 0.64551 0.0
H138 H 0.78696 0.85465 0.71434 0.0
H139 H 0.76822 0.84292 0.59891 0.0
H140 H 0.81539 0.86942 0.61712 0.0
H141 H 0.7872 0.69613 0.75978 0.0
H142 H 0.81674 0.66652 0.67696 0.0
H143 H 0.76953 0.68853 0.6422 0.0
C144 C 0.509 0.43096 0.8973 0.0
C145 C 0.51096 0.42608 -0.00703 0.0
C146 C 0.50795 0.46982 0.86311 0.0
C147 C 0.50945 0.50444 0.92623 0.0
C148 C 0.51159 0.49951 0.02293 0.0
C149 C 0.51204 0.46038 0.05509 0.0
C150 C 0.5051 0.47383 0.75966 0.0
C151 C 0.51364 0.5356 0.09256 0.0
C152 C 0.54464 0.60676 0.85412 0.0
C153 C 0.50836 0.62846 0.85142 0.0
C154 C 0.54533 0.56584 0.87487 0.0
C155 C 0.5088 0.546 0.89211 0.0
C156 C 0.47191 0.56713 0.88442 0.0
C157 C 0.47215 0.60817 0.86484 0.0
C158 C 0.58532 0.54449 0.88318 0.0
C159 C 0.43227 0.5469 0.90078 0.0
H160 H 0.50803 0.4044 0.84917 0.0
H161 H 0.51367 0.45664 0.1291 0.0
H162 H 0.47802 0.49173 0.74222 0.0
H163 H 0.53162 0.49048 0.7366 0.0
H164 H 0.50348 0.44393 0.72 0.0
H165 H 0.51587 0.52655 0.16524 0.0
H166 H 0.5401 0.55455 0.07908 0.0
H167 H 0.48647 0.55477 0.08522 0.0
H168 H 0.57279 0.62219 0.84416 0.0
H169 H 0.44394 0.6246 0.86206 0.0
H170 H 0.58487 0.5152 0.84121 0.0
H171 H 0.59106 0.53766 0.95652 0.0
H172 H 0.61064 0.56303 0.86036 0.0
H173 H 0.43006 0.5175 0.85939 0.0
H174 H 0.40615 0.56607 0.88257 0.0
H175 H 0.43036 0.54041 0.97497 0.0
C176 C 0.82723 0.22806 0.25925 0.0
C177 C 0.84375 0.25246 0.33336 0.0
C178 C 0.7867 0.23159 0.2325 0.0
C179 C 0.7619 0.26007 0.28152 0.0
C180 C 0.77808 0.28401 0.35832 0.0
C181 C 0.81898 0.27999 0.38328 0.0
C182 C 0.77064 0.20535 0.1505 0.0
C183 C 0.75237 0.31433 0.41287 0.0
C184 C 0.66726 0.29132 0.15111 0.0
C185 C 0.63869 0.26501 0.18407 0.0
C186 C 0.70736 0.29097 0.18426 0.0
C187 C 0.71891 0.26399 0.25253 0.0
C188 C 0.68986 0.23837 0.28811 0.0
C189 C 0.65025 0.23908 0.25327 0.0
C190 C 0.73762 0.31861 0.1444 0.0
C191 C 0.7008 0.2094 0.36139 0.0
H192 H 0.84632 0.20679 0.22027 0.0
H193 H 0.83178 0.29907 0.44022 0.0
H194 H 0.74515 0.18678 0.17198 0.0
H195 H 0.75901 0.22471 0.09596 0.0
H196 H 0.79394 0.18472 0.1198 0.0
H197 H 0.76912 0.32962 0.47257 0.0
H198 H 0.74117 0.33771 0.36695 0.0
H199 H 0.72565 0.29907 0.43928 0.0
H200 H 0.65851 0.31158 0.09815 0.0
H201 H 0.62828 0.21911 0.28062 0.0
H202 H 0.76066 0.30021 0.10631 0.0
H203 H 0.75349 0.33685 0.20102 0.0
H204 H 0.72341 0.33951 0.09608 0.0
H205 H 0.72198 0.18611 0.3325 0.0
H206 H 0.67405 0.1938 0.38688 0.0
H207 H 0.7163 0.2258 0.4213 0.0
C208 C 0.36386 0.30285 0.11826 0.0
C209 C 0.38465 0.26589 0.11947 0.0
C210 C 0.32254 0.30511 0.13693 0.0
C211 C 0.30157 0.26957 0.1568 0.0
C212 C 0.32204 0.23196 0.15408 0.0
C213 C 0.36325 0.23059 0.1356 0.0
C214 C 0.30171 0.34577 0.13917 0.0
C215 C 0.30076 0.19329 0.17422 0.0
C216 C 0.21071 0.27516 0.31169 0.0
C217 C 0.179 0.26863 0.24716 0.0
C218 C 0.25064 0.27697 0.28276 0.0
C219 C 0.25904 0.27179 0.18697 0.0
C220 C 0.22698 0.26609 0.12129 0.0
C221 C 0.18724 0.26469 0.15224 0.0
C222 C 0.28393 0.28334 0.35499 0.0
C223 C 0.23474 0.26025 0.01869 0.0
H224 H 0.38009 0.33028 0.10585 0.0
H225 H 0.37888 0.20178 0.13581 0.0
H226 H 0.27378 0.34391 0.09572 0.0
H227 H 0.29283 0.35476 0.21124 0.0
H228 H 0.32123 0.36984 0.11431 0.0
H229 H 0.32025 0.16615 0.16287 0.0
H230 H 0.29104 0.19514 0.2474 0.0
H231 H 0.27333 0.18917 0.12958 0.0
H232 H 0.20435 0.27844 0.38511 0.0
H233 H 0.1627 0.25969 0.10222 0.0
H234 H 0.30312 0.30918 0.33848 0.0
H235 H 0.30342 0.25604 0.35458 0.0
H236 H 0.27218 0.28935 0.42601 0.0
H237 H 0.25364 0.28526 -0.00377 0.0
H238 H 0.20643 0.25899 -0.02369 0.0
H239 H 0.25161 0.23162 0.00418 0.0
C240 C 0.32415 0.73572 0.73687 0.0
C241 C 0.33909 0.75324 0.82165 0.0
C242 C 0.2837 0.73993 0.71035 0.0
C243 C 0.25725 0.76173 0.77071 0.0
C244 C 0.27192 0.77887 0.85741 0.0
C245 C 0.31288 0.77463 0.88172 0.0
C246 C 0.26936 0.72127 0.61721 0.0
C247 C 0.24439 0.80176 0.92409 0.0
C248 C 0.15976 0.79763 0.65945 0.0
C249 C 0.13344 0.76616 0.67731 0.0
C250 C 0.19999 0.79728 0.69171 0.0
C251 C 0.21398 0.76493 0.74369 0.0
C252 C 0.18725 0.7337 0.76381 0.0
C253 C 0.14749 0.73459 0.73011 0.0
C254 C 0.22781 0.83094 0.6682 0.0
C255 C 0.20086 0.69876 0.81932 0.0
H256 H 0.34436 0.71935 0.68986 0.0
H257 H 0.32445 0.7884 0.94703 0.0
H258 H 0.24568 0.69847 0.627 0.0
H259 H 0.25577 0.74491 0.57522 0.0
H260 H 0.29408 0.70627 0.5773 0.0
H261 H 0.2604 0.8131 -0.01114 0.0
H262 H 0.23074 0.82791 0.89056 0.0
H263 H 0.21938 0.78186 0.94256 0.0
H264 H 0.14913 0.82221 0.61917 0.0
H265 H 0.12736 0.71032 0.74558 0.0
H266 H 0.252 0.8184 0.62295 0.0
H267 H 0.2425 0.84475 0.73225 0.0
H268 H 0.21179 0.85506 0.63194 0.0
H269 H 0.22373 0.68055 0.78024 0.0
H270 H 0.17561 0.67849 0.83472 0.0
H271 H 0.21524 0.71027 0.88583 0.0
C272 C 0.54923 0.89805 -0.0114 0.0
C273 C 0.51417 0.88412 0.94151 0.0
C274 C 0.5517 0.93783 0.02859 0.0
C275 C 0.5188 0.96459 0.01839 0.0
C276 C 0.48324 0.9505 0.97119 0.0
C277 C 0.48114 0.91018 0.93462 0.0
C278 C 0.58966 0.95135 0.0807 0.0
C279 C 0.44795 0.97837 0.95639 0.0
C280 C 0.51015 0.0659 0.15848 0.0
C281 C 0.52636 0.09221 0.09696 0.0
C282 C 0.50895 0.02383 0.13578 0.0
C283 C 0.52298 1.00828 0.04842 0.0
C284 C 0.53974 0.03488 -0.01311 0.0
C285 C 0.54181 0.07633 0.01261 0.0
C286 C 0.49212 0.99614 0.20435 0.0
C287 C 0.55407 0.01983 0.89212 0.0
H288 H 0.57448 0.87757 -0.00427 0.0
H289 H 0.45396 0.89928 0.89854 0.0
H290 H 0.60553 0.97402 0.04155 0.0
H291 H 0.5822 0.96622 0.14931 0.0
H292 H 0.61053 0.9257 0.09151 0.0
H293 H 0.42206 0.96234 0.92087 0.0
H294 H 0.43786 0.99234 0.02383 0.0
H295 H 0.45725 1.00336 0.91382 0.0
H296 H 0.49827 0.07819 0.22375 0.0
H297 H 0.55413 0.0966 0.96443 0.0
H298 H 0.51329 0.97078 0.21508 0.0
H299 H 0.46349 0.98268 0.17652 0.0
H300 H 0.48631 1.01237 0.27255 0.0
H301 H 0.57796 0.99669 0.89897 0.0
H302 H 0.56611 0.04461 0.85236 0.0
H303 H 0.52883 1.00513 0.85136 0.0
C304 C 0.03292 0.95815 0.54292 0.0
C305 C 0.01727 0.92576 0.48619 0.0
C306 C 0.03351 0.99752 0.51219 0.0
C307 C 0.01822 1.0046 0.42235 0.0
C308 C 1.00344 0.97172 0.36373 0.0
C309 C 1.00305 0.93263 0.39652 0.0
C310 C 0.04945 0.03174 0.57692 0.0
C311 C 0.98712 0.978 0.26738 0.0
C312 C 0.98038 0.11151 0.39452 0.0
C313 C 0.01344 0.12964 0.35484 0.0
C314 C 0.98106 0.0705 0.4138 0.0
C315 C 0.01558 0.04682 0.39261 0.0
C316 C 0.04839 0.06439 0.34893 0.0
C317 C 0.04697 0.10563 0.3307 0.0
C318 C 0.94542 0.05294 0.46037 0.0
C319 C 0.08558 0.04 0.32459 0.0
H320 H 0.04403 0.95286 0.61221 0.0
H321 H 0.99113 0.90753 0.35234 0.0
H322 H 0.07339 0.04831 0.54279 0.0
H323 H 0.02495 0.05371 0.59357 0.0
H324 H 0.0619 0.02089 0.64288 0.0
H325 H 0.97966 0.94891 0.22801 0.0
H326 H 0.95952 0.99689 0.27196 0.0
H327 H 1.00932 0.99453 0.22782 0.0
H328 H 0.95419 0.12962 0.41312 0.0
H329 H 0.07262 0.11923 0.29971 0.0
H330 H 0.95454 0.04428 0.53075 0.0
H331 H 0.93479 0.02506 0.42056 0.0
H332 H 0.91993 0.07466 0.46706 0.0
H333 H 0.10129 0.03163 0.38915 0.0
H334 H 0.10687 0.057 0.28343 0.0
H335 H 0.07724 1.0114 0.28449 0.0
C336 C 0.99355 0.30529 0.03571 0.0
C337 C 0.011 0.27688 0.09201 0.0
C338 C 0.99912 0.30232 0.93978 0.0
C339 C 0.02238 0.27 0.90032 0.0
C340 C 0.04172 0.24246 0.9576 0.0
C341 C 0.03589 0.24636 0.05324 0.0
C342 C 0.9788 0.33266 0.88042 0.0
C343 C 0.06689 0.20773 0.91753 0.0
C344 C 0.99879 0.23263 0.65246 0.0
C345 C 0.03088 0.24898 0.60704 0.0
C346 C 0.99557 0.23938 0.7487 0.0
C347 C 0.02483 0.2636 0.79872 0.0
C348 C 0.05686 0.28082 0.75208 0.0
C349 C 0.05965 0.27299 0.65628 0.0
C350 C 0.96126 0.22029 0.79695 0.0
C351 C 0.08812 0.3073 0.80325 0.0
H352 H 0.97454 0.32906 0.06623 0.0
H353 H 0.04941 0.22441 0.09708 0.0
H354 H 1.00074 0.34532 0.83327 0.0
H355 H 0.95494 0.31734 0.83633 0.0
H356 H 0.96493 0.35804 0.92275 0.0
H357 H 0.08183 0.19057 0.97229 0.0
H358 H 0.04753 0.18658 0.87376 0.0
H359 H 0.09032 0.21909 0.87231 0.0
H360 H 0.97663 0.2143 0.61291 0.0
H361 H 0.08411 0.28592 0.61946 0.0
H362 H 0.94319 0.24411 0.83445 0.0
H363 H 0.97331 0.20005 0.84932 0.0
H364 H 0.9411 0.20237 0.7477 0.0
H365 H 0.07332 0.33304 0.84226 0.0
H366 H 0.11019 0.31957 0.75568 0.0
H367 H 0.10467 0.28969 0.85468 0.0
C368 C 1.00925 0.75202 0.89726 0.0
C369 C 0.98678 0.78282 0.8587 0.0
C370 C 1.00842 0.74681 -0.00735 0.0
C371 C 0.98438 0.77294 0.0501 0.0
C372 C 0.96077 0.80338 0.01096 0.0
C373 C 0.96227 0.80796 0.91539 0.0
C374 C 0.03383 0.71387 0.0322 0.0
C375 C 0.93457 0.83155 0.0702 0.0
C376 C 0.95882 0.73514 0.28307 0.0
C377 C 0.988 0.7547 0.34111 0.0
C378 C 0.95658 0.74166 0.18835 0.0
C379 C 0.9842 0.76841 0.15133 0.0
C380 C 0.01278 0.78943 0.21036 0.0
C381 C 0.01439 0.78224 0.30495 0.0
C382 C 0.92552 0.71899 0.1275 0.0
C383 C 0.04243 0.81848 0.17312 0.0
H384 H 0.02815 0.73254 0.85321 0.0
H385 H 0.94473 0.83168 0.88528 0.0
H386 H 0.05603 0.7275 0.08345 0.0
H387 H 0.01461 0.69317 0.0694 0.0
H388 H 0.05033 0.69574 -0.02227 0.0
H389 H 0.917 0.85271 0.02834 0.0
H390 H 0.91334 0.81379 0.10965 0.0
H391 H 0.95352 0.84959 0.12169 0.0
H392 H 0.93823 0.71401 0.31133 0.0
H393 H 0.03692 0.79737 0.35004 0.0
H394 H 0.94076 0.69794 0.0765 0.0
H395 H 0.90753 0.74045 0.08755 0.0
H396 H 0.90473 0.70119 0.16821 0.0
H397 H 0.06266 0.80178 0.12383 0.0
H398 H 0.06111 0.83414 0.22914 0.0
H399 H 0.02633 0.84167 0.13424 0.0
C400 C 0.49346 0.73077 0.1565 0.0
C401 C 0.52479 0.74744 0.1091 0.0
C402 C 0.49082 0.73824 0.2527 0.0
C403 C 0.51994 0.76338 0.30068 0.0
C404 C 0.55119 0.78088 0.25203 0.0
C405 C 0.55334 0.77245 0.15632 0.0
C406 C 0.45727 0.71896 0.30312 0.0
C407 C 0.58235 0.80821 0.30099 0.0
C408 C 0.48983 0.80587 0.53788 0.0
C409 C 0.50787 0.77784 0.5943 0.0
C410 C 0.49483 0.80255 0.44176 0.0
C411 C 0.51826 0.77037 0.40228 0.0
C412 C 0.5384 0.7434 0.45964 0.0
C413 C 0.53299 0.74754 0.55541 0.0
C414 C 0.47359 0.83224 0.38226 0.0
C415 C 0.56389 0.70892 0.41959 0.0
H416 H 0.47143 0.71169 0.11851 0.0
H417 H 0.5772 0.78561 0.11797 0.0
H418 H 0.47009 0.69918 0.35553 0.0
H419 H 0.43919 0.74271 0.34084 0.0
H420 H 0.43696 0.70051 0.25525 0.0
H421 H 0.6037 0.82063 0.25197 0.0
H422 H 0.56743 0.83385 0.34005 0.0
H423 H 0.59973 0.79119 0.35215 0.0
H424 H 0.47062 0.82947 0.56842 0.0
H425 H 0.54697 0.72587 0.59929 0.0
H426 H 0.44952 0.81637 0.33987 0.0
H427 H 0.49488 0.84482 0.33352 0.0
H428 H 0.4598 0.85772 0.42444 0.0
H429 H 0.54455 0.68706 0.37773 0.0
H430 H 0.57978 0.69252 0.47433 0.0
H431 H 0.58657 0.72037 0.37255 0.0
C432 C 0.55269 0.29359 0.4257 0.0
C433 C 0.52257 0.27749 0.36522 0.0
C434 C 0.55248 0.28651 0.52002 0.0
C435 C 0.52096 0.26339 0.55395 0.0
C436 C 0.49119 0.24592 0.49239 0.0
C437 C 0.49259 0.2529 0.39802 0.0
C438 C 0.58521 0.30474 0.58363 0.0
C439 C 0.45703 0.22129 0.52672 0.0
C440 C 0.53139 0.22098 0.78963 0.0
C441 C 0.51017 0.24987 0.84408 0.0
C442 C 0.53583 0.22535 0.69477 0.0
C443 C 0.51801 0.25908 0.65451 0.0
C444 C 0.49672 0.28849 0.70999 0.0
C445 C 0.49312 0.28349 0.80488 0.0
C446 C 0.55926 0.19386 0.6377 0.0
C447 C 0.47722 0.32475 0.66891 0.0
H448 H 0.57616 0.31218 0.39942 0.0
H449 H 0.46938 0.24046 0.35064 0.0
H450 H 0.57214 0.32825 0.63246 0.0
H451 H 0.59883 0.2812 0.62585 0.0
H452 H 0.60938 0.31886 0.54475 0.0
H453 H 0.43736 0.20841 0.4691 0.0
H454 H 0.46897 0.19608 0.56634 0.0
H455 H 0.43842 0.24067 0.57469 0.0
H456 H 0.54443 0.19501 0.82143 0.0
H457 H 0.47629 0.30531 0.84798 0.0
H458 H 0.58384 0.20854 0.60146 0.0
H459 H 0.5393 0.17876 0.58358 0.0
H460 H 0.57254 0.17035 0.68071 0.0
H461 H 0.5001 0.34261 0.63459 0.0
H462 H 0.46215 0.34495 0.72207 0.0
H463 H 0.45458 0.31445 0.61497 0.0
loop_
_geom_bond_atom_site_label_1
_geom_bond_atom_site_label_2
_geom_bond_distance
_geom_bond_site_symmetry_2
_ccdc_geom_bond_type
Dy0 O4 2.398 . S
Dy0 O5 2.491 . S
Dy0 O6 2.403 . S
Dy0 O7 2.664 1_455 S
Dy0 O11 2.326 . S
Dy0 O15 2.310 . S
Dy0 O16 2.351 . S
C1 O12 1.185 . S
C1 O13 1.355 . S
C2 O4 1.185 . S
C2 O5 1.355 . S
Dy3 O7 2.310 . S
Dy3 O10 2.351 . S
Dy3 O12 2.398 . S
Dy3 O13 2.491 . S
Dy3 O14 2.403 . S
Dy3 O15 2.664 1_655 S
Dy3 O17 2.326 . S
O4 Dy0 2.398 . S
O4 C2 1.185 . S
O5 Dy0 2.491 . S
O5 C2 1.355 . S
O6 Dy0 2.403 . S
O6 C8 1.254 . S
O7 Dy0 2.664 1_655 S
O7 Dy3 2.310 . S
O7 C8 1.268 1_655 S
C8 O6 1.254 . S
C8 O7 1.268 1_455 S
C9 O14 1.254 . S
C9 O15 1.268 1_655 S
O10 Dy3 2.351 . S
O10 C18 1.249 1_655 S
O11 Dy0 2.326 . S
O11 C18 1.267 . S
O12 C1 1.185 . S
O12 Dy3 2.398 . S
O13 C1 1.355 . S
O13 Dy3 2.491 . S
O14 Dy3 2.403 . S
O14 C9 1.254 . S
O15 Dy0 2.310 . S
O15 Dy3 2.664 1_455 S
O15 C9 1.268 1_455 S
O16 Dy0 2.351 . S
O16 C19 1.249 1_455 S
O17 Dy3 2.326 . S
O17 C19 1.267 . S
C18 O10 1.249 1_455 S
C18 O11 1.267 . S
C19 O16 1.249 1_655 S
C19 O17 1.267 . S
Dy20 O24 2.398 1_455 S
Dy20 O25 2.491 1_455 S
Dy20 O26 2.403 . S
Dy20 O27 2.664 . S
Dy20 O31 2.326 1_455 S
Dy20 O35 2.310 1_455 S
Dy20 O36 2.351 . S
C21 O32 1.185 . S
C21 O33 1.355 . S
C22 O24 1.185 . S
C22 O25 1.355 . S
Dy23 O27 2.310 1_655 S
Dy23 O30 2.351 . S
Dy23 O32 2.398 1_655 S
Dy23 O33 2.491 1_655 S
Dy23 O34 2.403 . S
Dy23 O35 2.664 . S
Dy23 O37 2.326 1_655 S
O24 Dy20 2.398 1_655 S
O24 C22 1.185 . S
O25 Dy20 2.491 1_655 S
O25 C22 1.355 . S
O26 Dy20 2.403 . S
O26 C28 1.254 . S
O27 Dy20 2.664 . S
O27 Dy23 2.310 1_455 S
O27 C28 1.268 . S
C28 O26 1.254 . S
C28 O27 1.268 . S
C29 O34 1.254 . S
C29 O35 1.268 . S
O30 Dy23 2.351 . S
O30 C38 1.249 . S
O31 Dy20 2.326 1_655 S
O31 C38 1.267 . S
O32 C21 1.185 . S
O32 Dy23 2.398 1_455 S
O33 C21 1.355 . S
O33 Dy23 2.491 1_455 S
O34 Dy23 2.403 . S
O34 C29 1.254 . S
O35 Dy20 2.310 1_655 S
O35 Dy23 2.664 . S
O35 C29 1.268 . S
O36 Dy20 2.351 . S
O36 C39 1.249 . S
O37 Dy23 2.326 1_455 S
O37 C39 1.267 . S
C38 O30 1.249 . S
C38 O31 1.267 . S
C39 O36 1.249 . S
C39 O37 1.267 . S
Dy40 O44 2.398 . S
Dy40 O45 2.491 . S
Dy40 O46 2.403 1_556 S
Dy40 O47 2.664 . S
Dy40 O51 2.326 . S
Dy40 O55 2.310 . S
Dy40 O56 2.351 . S
C41 O52 1.185 . S
C41 O53 1.355 . S
C42 O44 1.185 . S
C42 O45 1.355 . S
Dy43 O47 2.310 . S
Dy43 O50 2.351 . S
Dy43 O52 2.398 . S
Dy43 O53 2.491 . S
Dy43 O54 2.403 . S
Dy43 O55 2.664 . S
Dy43 O57 2.326 . S
O44 Dy40 2.398 . S
O44 C42 1.185 . S
O45 Dy40 2.491 . S
O45 C42 1.355 . S
O46 Dy40 2.403 1_554 S
O46 C48 1.254 . S
O47 Dy40 2.664 . S
O47 Dy43 2.310 . S
O47 C48 1.268 1_556 S
C48 O46 1.254 . S
C48 O47 1.268 1_554 S
C49 O54 1.254 . S
C49 O55 1.268 . S
O50 Dy43 2.351 . S
O50 C58 1.249 . S
O51 Dy40 2.326 . S
O51 C58 1.267 . S
O52 C41 1.185 . S
O52 Dy43 2.398 . S
O53 C41 1.355 . S
O53 Dy43 2.491 . S
O54 Dy43 2.403 . S
O54 C49 1.254 . S
O55 Dy40 2.310 . S
O55 Dy43 2.664 . S
O55 C49 1.268 . S
O56 Dy40 2.351 . S
O56 C59 1.249 . S
O57 Dy43 2.326 . S
O57 C59 1.267 . S
C58 O50 1.249 . S
C58 O51 1.267 . S
C59 O56 1.249 . S
C59 O57 1.267 . S
Dy60 O64 2.398 . S
Dy60 O65 2.491 . S
Dy60 O66 2.403 . S
Dy60 O67 2.664 . S
Dy60 O71 2.326 . S
Dy60 O75 2.310 . S
Dy60 O76 2.351 . S
C61 O72 1.185 . S
C61 O73 1.355 . S
C62 O64 1.185 . S
C62 O65 1.355 . S
Dy63 O67 2.310 . S
Dy63 O70 2.351 . S
Dy63 O72 2.398 . S
Dy63 O73 2.491 . S
Dy63 O74 2.403 1_554 S
Dy63 O75 2.664 . S
Dy63 O77 2.326 . S
O64 Dy60 2.398 . S
O64 C62 1.185 . S
O65 Dy60 2.491 . S
O65 C62 1.355 . S
O66 Dy60 2.403 . S
O66 C68 1.254 . S
O67 Dy60 2.664 . S
O67 Dy63 2.310 . S
O67 C68 1.268 . S
C68 O66 1.254 . S
C68 O67 1.268 . S
C69 O74 1.254 . S
C69 O75 1.268 1_556 S
O70 Dy63 2.351 . S
O70 C78 1.249 . S
O71 Dy60 2.326 . S
O71 C78 1.267 . S
O72 C61 1.185 . S
O72 Dy63 2.398 . S
O73 C61 1.355 . S
O73 Dy63 2.491 . S
O74 Dy63 2.403 1_556 S
O74 C69 1.254 . S
O75 Dy60 2.310 . S
O75 Dy63 2.664 . S
O75 C69 1.268 1_554 S
O76 Dy60 2.351 . S
O76 C79 1.249 . S
O77 Dy63 2.326 . S
O77 C79 1.267 . S
C78 O70 1.249 . S
C78 O71 1.267 . S
C79 O76 1.249 . S
C79 O77 1.267 . S
C80 C81 1.391 . S
C80 C82 1.394 . S
C80 H96 0.931 . S
C81 C80 1.391 . S
C81 C85 1.376 . S
C82 C80 1.394 . S
C82 C83 1.369 . S
C82 C86 1.531 . S
C83 C82 1.369 . S
C83 C84 1.410 . S
C83 C91 1.503 . S
C84 C83 1.410 . S
C84 C85 1.392 . S
C84 C87 1.511 1_455 S
C85 C81 1.376 . S
C85 C84 1.392 . S
C85 H97 0.929 1_455 S
C86 C82 1.531 . S
C86 H98 0.960 . S
C86 H99 0.962 . S
C86 H100 0.960 . S
C87 C84 1.511 1_655 S
C87 H101 0.961 . S
C87 H102 0.961 . S
C87 H103 0.961 1_655 S
C88 C89 1.370 . S
C88 C90 1.363 . S
C88 H104 0.931 1_455 S
C89 C88 1.370 . S
C89 C93 1.408 . S
C90 C88 1.363 . S
C90 C91 1.370 . S
C90 C94 1.524 1_455 S
C91 C83 1.503 . S
C91 C90 1.370 . S
C91 C92 1.403 . S
C92 C91 1.403 . S
C92 C93 1.404 . S
C92 C95 1.539 . S
C93 C89 1.408 . S
C93 C92 1.404 . S
C93 H105 0.930 . S
C94 C90 1.524 1_655 S
C94 H106 0.956 . S
C94 H107 0.961 . S
C94 H108 0.961 . S
C95 C92 1.539 . S
C95 H109 0.958 . S
C95 H110 0.961 . S
C95 H111 0.960 . S
H96 C80 0.931 . S
H97 C85 0.929 1_655 S
H98 C86 0.960 . S
H99 C86 0.962 . S
H100 C86 0.960 . S
H101 C87 0.961 . S
H102 C87 0.961 . S
H103 C87 0.961 1_455 S
H104 C88 0.931 1_655 S
H105 C93 0.930 . S
H106 C94 0.956 . S
H107 C94 0.961 . S
H108 C94 0.961 . S
H109 C95 0.958 . S
H110 C95 0.961 . S
H111 C95 0.960 . S
C112 C113 1.391 . S
C112 C114 1.394 . S
C112 H128 0.931 . S
C113 C112 1.391 . S
C113 C117 1.376 . S
C114 C112 1.394 . S
C114 C115 1.369 . S
C114 C118 1.531 . S
C115 C114 1.369 . S
C115 C116 1.410 . S
C115 C123 1.503 . S
C116 C115 1.410 . S
C116 C117 1.392 . S
C116 C119 1.511 . S
C117 C113 1.376 . S
C117 C116 1.392 . S
C117 H129 0.929 . S
C118 C114 1.531 . S
C118 H130 0.960 . S
C118 H131 0.962 . S
C118 H132 0.960 . S
C119 C116 1.511 . S
C119 H133 0.961 . S
C119 H134 0.961 . S
C119 H135 0.961 . S
C120 C121 1.370 . S
C120 C122 1.363 . S
C120 H136 0.931 . S
C121 C120 1.370 . S
C121 C125 1.408 . S
C122 C120 1.363 . S
C122 C123 1.370 . S
C122 C126 1.524 . S
C123 C115 1.503 . S
C123 C122 1.370 . S
C123 C124 1.403 . S
C124 C123 1.403 . S
C124 C125 1.404 . S
C124 C127 1.539 . S
C125 C121 1.408 . S
C125 C124 1.404 . S
C125 H137 0.930 . S
C126 C122 1.524 . S
C126 H138 0.956 . S
C126 H139 0.961 . S
C126 H140 0.961 . S
C127 C124 1.539 . S
C127 H141 0.958 . S
C127 H142 0.961 . S
C127 H143 0.960 . S
H128 C112 0.931 . S
H129 C117 0.929 . S
H130 C118 0.960 . S
H131 C118 0.962 . S
H132 C118 0.960 . S
H133 C119 0.961 . S
H134 C119 0.961 . S
H135 C119 0.961 . S
H136 C120 0.931 . S
H137 C125 0.930 . S
H138 C126 0.956 . S
H139 C126 0.961 . S
H140 C126 0.961 . S
H141 C127 0.958 . S
H142 C127 0.961 . S
H143 C127 0.960 . S
C144 C145 1.391 . S
C144 C146 1.394 1_554 S
C144 H160 0.931 1_554 S
C145 C144 1.391 . S
C145 C149 1.376 . S
C146 C144 1.394 1_556 S
C146 C147 1.370 . S
C146 C150 1.531 . S
C147 C146 1.370 . S
C147 C148 1.407 1_556 S
C147 C155 1.505 . S
C148 C147 1.407 1_554 S
C148 C149 1.392 . S
C148 C151 1.511 . S
C149 C145 1.376 . S
C149 C148 1.392 . S
C149 H161 0.929 . S
C150 C146 1.531 . S
C150 H162 0.960 . S
C150 H163 0.962 . S
C150 H164 0.960 . S
C151 C148 1.511 . S
C151 H165 0.961 . S
C151 H166 0.961 . S
C151 H167 0.961 . S
C152 C153 1.370 . S
C152 C154 1.363 1_556 S
C152 H168 0.931 1_556 S
C153 C152 1.370 . S
C153 C157 1.408 . S
C154 C152 1.363 1_554 S
C154 C155 1.370 1_554 S
C154 C158 1.524 . S
C155 C147 1.505 . S
C155 C154 1.370 1_556 S
C155 C156 1.403 . S
C156 C155 1.403 . S
C156 C157 1.404 . S
C156 C159 1.539 . S
C157 C153 1.408 . S
C157 C156 1.404 . S
C157 H169 0.930 . S
C158 C154 1.524 . S
C158 H170 0.956 . S
C158 H171 0.961 . S
C158 H172 0.961 . S
C159 C156 1.539 . S
C159 H173 0.958 . S
C159 H174 0.961 . S
C159 H175 0.960 . S
H160 C144 0.931 1_556 S
H161 C149 0.929 . S
H162 C150 0.960 . S
H163 C150 0.962 . S
H164 C150 0.960 . S
H165 C151 0.961 . S
H166 C151 0.961 . S
H167 C151 0.961 . S
H168 C152 0.931 1_554 S
H169 C157 0.930 . S
H170 C158 0.956 . S
H171 C158 0.961 . S
H172 C158 0.961 . S
H173 C159 0.958 . S
H174 C159 0.961 . S
H175 C159 0.960 . S
C176 C177 1.391 . S
C176 C178 1.394 . S
C176 H192 0.931 . S
C177 C176 1.391 . S
C177 C181 1.376 . S
C178 C176 1.394 . S
C178 C179 1.369 . S
C178 C182 1.531 . S
C179 C178 1.369 . S
C179 C180 1.410 . S
C179 C187 1.503 . S
C180 C179 1.410 . S
C180 C181 1.392 . S
C180 C183 1.511 . S
C181 C177 1.376 . S
C181 C180 1.392 . S
C181 H193 0.929 . S
C182 C178 1.531 . S
C182 H194 0.960 . S
C182 H195 0.962 . S
C182 H196 0.960 . S
C183 C180 1.511 . S
C183 H197 0.961 . S
C183 H198 0.961 . S
C183 H199 0.961 . S
C184 C185 1.370 . S
C184 C186 1.363 . S
C184 H200 0.931 . S
C185 C184 1.370 . S
C185 C189 1.408 . S
C186 C184 1.363 . S
C186 C187 1.370 . S
C186 C190 1.524 . S
C187 C179 1.503 . S
C187 C186 1.370 . S
C187 C188 1.403 . S
C188 C187 1.403 . S
C188 C189 1.404 . S
C188 C191 1.539 . S
C189 C185 1.408 . S
C189 C188 1.404 . S
C189 H201 0.930 . S
C190 C186 1.524 . S
C190 H202 0.956 . S
C190 H203 0.961 . S
C190 H204 0.961 . S
C191 C188 1.539 . S
C191 H205 0.958 . S
C191 H206 0.961 . S
C191 H207 0.960 . S
H192 C176 0.931 . S
H193 C181 0.929 . S
H194 C182 0.960 . S
H195 C182 0.962 . S
H196 C182 0.960 . S
H197 C183 0.961 . S
H198 C183 0.961 . S
H199 C183 0.961 . S
H200 C184 0.931 . S
H201 C189 0.930 . S
H202 C190 0.956 . S
H203 C190 0.961 . S
H204 C190 0.961 . S
H205 C191 0.958 . S
H206 C191 0.961 . S
H207 C191 0.960 . S
C208 C209 1.391 . S
C208 C210 1.394 . S
C208 H224 0.931 . S
C209 C208 1.391 . S
C209 C213 1.376 . S
C210 C208 1.394 . S
C210 C211 1.369 . S
C210 C214 1.531 . S
C211 C210 1.369 . S
C211 C212 1.410 . S
C211 C219 1.503 . S
C212 C211 1.410 . S
C212 C213 1.392 . S
C212 C215 1.511 . S
C213 C209 1.376 . S
C213 C212 1.392 . S
C213 H225 0.929 . S
C214 C210 1.531 . S
C214 H226 0.960 . S
C214 H227 0.962 . S
C214 H228 0.960 1_554 S
C215 C212 1.511 . S
C215 H229 0.961 . S
C215 H230 0.961 . S
C215 H231 0.961 . S
C216 C217 1.370 . S
C216 C218 1.363 . S
C216 H232 0.931 . S
C217 C216 1.370 . S
C217 C221 1.408 . S
C218 C216 1.363 . S
C218 C219 1.370 . S
C218 C222 1.524 . S
C219 C211 1.503 . S
C219 C218 1.370 . S
C219 C220 1.403 . S
C220 C219 1.403 . S
C220 C221 1.404 . S
C220 C223 1.539 . S
C221 C217 1.408 . S
C221 C220 1.404 . S
C221 H233 0.930 . S
C222 C218 1.524 . S
C222 H234 0.956 . S
C222 H235 0.961 . S
C222 H236 0.961 . S
C223 C220 1.539 . S
C223 H237 0.958 . S
C223 H238 0.961 . S
C223 H239 0.960 . S
H224 C208 0.931 . S
H225 C213 0.929 . S
H226 C214 0.960 . S
H227 C214 0.962 . S
H228 C214 0.960 1_556 S
H229 C215 0.961 . S
H230 C215 0.961 . S
H231 C215 0.961 . S
H232 C216 0.931 . S
H233 C221 0.930 . S
H234 C222 0.956 . S
H235 C222 0.961 . S
H236 C222 0.961 . S
H237 C223 0.958 . S
H238 C223 0.961 . S
H239 C223 0.960 . S
C240 C241 1.391 . S
C240 C242 1.394 . S
C240 H256 0.931 . S
C241 C240 1.391 . S
C241 C245 1.376 . S
C242 C240 1.394 . S
C242 C243 1.369 . S
C242 C246 1.531 . S
C243 C242 1.369 . S
C243 C244 1.410 . S
C243 C251 1.503 . S
C244 C243 1.410 . S
C244 C245 1.392 . S
C244 C247 1.511 . S
C245 C241 1.376 . S
C245 C244 1.392 . S
C245 H257 0.929 . S
C246 C242 1.531 . S
C246 H258 0.960 . S
C246 H259 0.962 . S
C246 H260 0.960 . S
C247 C244 1.511 . S
C247 H261 0.961 . S
C247 H262 0.961 . S
C247 H263 0.961 . S
C248 C249 1.370 . S
C248 C250 1.363 . S
C248 H264 0.931 . S
C249 C248 1.370 . S
C249 C253 1.408 . S
C250 C248 1.363 . S
C250 C251 1.370 . S
C250 C254 1.524 . S
C251 C243 1.503 . S
C251 C250 1.370 . S
C251 C252 1.403 . S
C252 C251 1.403 . S
C252 C253 1.404 . S
C252 C255 1.539 . S
C253 C249 1.408 . S
C253 C252 1.404 . S
C253 H265 0.930 . S
C254 C250 1.524 . S
C254 H266 0.956 . S
C254 H267 0.961 . S
C254 H268 0.961 . S
C255 C252 1.539 . S
C255 H269 0.958 . S
C255 H270 0.961 . S
C255 H271 0.960 . S
H256 C240 0.931 . S
H257 C245 0.929 . S
H258 C246 0.960 . S
H259 C246 0.962 . S
H260 C246 0.960 . S
H261 C247 0.961 . S
H262 C247 0.961 . S
H263 C247 0.961 . S
H264 C248 0.931 . S
H265 C253 0.930 . S
H266 C254 0.956 . S
H267 C254 0.961 . S
H268 C254 0.961 . S
H269 C255 0.958 . S
H270 C255 0.961 . S
H271 C255 0.960 . S
C272 C273 1.391 . S
C272 C274 1.394 . S
C272 H288 0.931 . S
C273 C272 1.391 . S
C273 C277 1.376 . S
C274 C272 1.394 . S
C274 C275 1.369 . S
C274 C278 1.531 . S
C275 C274 1.369 . S
C275 C276 1.406 1_556 S
C275 C283 1.503 1_556 S
C276 C275 1.406 1_554 S
C276 C277 1.390 1_554 S
C276 C279 1.517 . S
C277 C273 1.376 . S
C277 C276 1.390 1_556 S
C277 H289 0.929 . S
C278 C274 1.531 . S
C278 H290 0.960 . S
C278 H291 0.962 . S
C278 H292 0.960 . S
C279 C276 1.517 . S
C279 H293 0.961 . S
C279 H294 0.961 . S
C279 H295 0.961 . S
C280 C281 1.370 . S
C280 C282 1.363 . S
C280 H296 0.931 . S
C281 C280 1.370 . S
C281 C285 1.408 . S
C282 C280 1.363 . S
C282 C283 1.370 1_545 S
C282 C286 1.524 1_545 S
C283 C275 1.503 1_554 S
C283 C282 1.370 1_565 S
C283 C284 1.403 1_564 S
C284 C283 1.403 1_546 S
C284 C285 1.404 1_556 S
C284 C287 1.539 . S
C285 C281 1.408 . S
C285 C284 1.404 1_554 S
C285 H297 0.930 1_554 S
C286 C282 1.524 1_565 S
C286 H298 0.956 . S
C286 H299 0.961 . S
C286 H300 0.961 . S
C287 C284 1.539 . S
C287 H301 0.958 . S
C287 H302 0.961 . S
C287 H303 0.960 1_545 S
H288 C272 0.931 . S
H289 C277 0.929 . S
H290 C278 0.960 . S
H291 C278 0.962 . S
H292 C278 0.960 . S
H293 C279 0.961 . S
H294 C279 0.961 . S
H295 C279 0.961 . S
H296 C280 0.931 . S
H297 C285 0.930 1_556 S
H298 C286 0.956 . S
H299 C286 0.961 . S
H300 C286 0.961 . S
H301 C287 0.958 . S
H302 C287 0.961 . S
H303 C287 0.960 1_565 S
C304 C305 1.391 . S
C304 C306 1.394 1_565 S
C304 H320 0.931 . S
C305 C304 1.391 . S
C305 C309 1.376 . S
C306 C304 1.394 1_545 S
C306 C307 1.369 . S
C306 C310 1.531 . S
C307 C306 1.369 . S
C307 C308 1.410 1_545 S
C307 C315 1.503 . S
C308 C307 1.410 1_565 S
C308 C309 1.392 . S
C308 C311 1.511 . S
C309 C305 1.376 . S
C309 C308 1.392 . S
C309 H321 0.929 . S
C310 C306 1.531 . S
C310 H322 0.960 . S
C310 H323 0.962 . S
C310 H324 0.960 . S
C311 C308 1.511 . S
C311 H325 0.961 . S
C311 H326 0.961 . S
C311 H327 0.961 1_655 S
C312 C313 1.370 . S
C312 C314 1.363 . S
C312 H328 0.931 . S
C313 C312 1.370 . S
C313 C317 1.408 1_655 S
C314 C312 1.363 . S
C314 C315 1.370 . S
C314 C318 1.524 . S
C315 C307 1.503 . S
C315 C314 1.370 . S
C315 C316 1.403 1_655 S
C316 C315 1.403 1_455 S
C316 C317 1.404 . S
C316 C319 1.539 . S
C317 C313 1.408 1_455 S
C317 C316 1.404 . S
C317 H329 0.930 . S
C318 C314 1.524 . S
C318 H330 0.956 . S
C318 H331 0.961 . S
C318 H332 0.961 . S
C319 C316 1.539 . S
C319 H333 0.958 . S
C319 H334 0.961 . S
C319 H335 0.960 . S
H320 C304 0.931 . S
H321 C309 0.929 . S
H322 C310 0.960 . S
H323 C310 0.962 . S
H324 C310 0.960 . S
H325 C311 0.961 . S
H326 C311 0.961 . S
H327 C311 0.961 1_455 S
H328 C312 0.931 . S
H329 C317 0.930 . S
H330 C318 0.956 . S
H331 C318 0.961 . S
H332 C318 0.961 . S
H333 C319 0.958 . S
H334 C319 0.961 . S
H335 C319 0.960 . S
C336 C337 1.391 1_655 S
C336 C338 1.394 1_554 S
C336 H352 0.931 . S
C337 C336 1.391 1_455 S
C337 C341 1.376 . S
C338 C336 1.394 1_556 S
C338 C339 1.369 1_655 S
C338 C342 1.531 . S
C339 C338 1.369 1_455 S
C339 C340 1.410 . S
C339 C347 1.503 . S
C340 C339 1.410 . S
C340 C341 1.392 1_556 S
C340 C343 1.511 . S
C341 C337 1.376 . S
C341 C340 1.392 1_554 S
C341 H353 0.929 . S
C342 C338 1.531 . S
C342 H354 0.960 . S
C342 H355 0.962 . S
C342 H356 0.960 . S
C343 C340 1.511 . S
C343 H357 0.961 . S
C343 H358 0.961 . S
C343 H359 0.961 . S
C344 C345 1.354 1_655 S
C344 C346 1.363 . S
C344 H360 0.931 . S
C345 C344 1.354 1_455 S
C345 C349 1.426 . S
C346 C344 1.363 . S
C346 C347 1.370 1_655 S
C346 C350 1.524 . S
C347 C339 1.503 . S
C347 C346 1.370 1_455 S
C347 C348 1.403 . S
C348 C347 1.403 . S
C348 C349 1.404 . S
C348 C351 1.539 . S
C349 C345 1.426 . S
C349 C348 1.404 . S
C349 H361 0.930 . S
C350 C346 1.524 . S
C350 H362 0.956 . S
C350 H363 0.961 . S
C350 H364 0.961 . S
C351 C348 1.539 . S
C351 H365 0.958 . S
C351 H366 0.961 . S
C351 H367 0.960 . S
H352 C336 0.931 . S
H353 C341 0.929 . S
H354 C342 0.960 . S
H355 C342 0.962 . S
H356 C342 0.960 . S
H357 C343 0.961 . S
H358 C343 0.961 . S
H359 C343 0.961 . S
H360 C344 0.931 . S
H361 C349 0.930 . S
H362 C350 0.956 . S
H363 C350 0.961 . S
H364 C350 0.961 . S
H365 C351 0.958 . S
H366 C351 0.961 . S
H367 C351 0.960 . S
C368 C369 1.391 . S
C368 C370 1.394 1_556 S
C368 H384 0.931 . S
C369 C368 1.391 . S
C369 C373 1.376 1_455 S
C370 C368 1.394 1_554 S
C370 C371 1.369 1_455 S
C370 C374 1.531 . S
C371 C370 1.369 1_655 S
C371 C372 1.410 . S
C371 C379 1.503 . S
C372 C371 1.410 . S
C372 C373 1.392 1_554 S
C372 C375 1.511 . S
C373 C369 1.376 1_655 S
C373 C372 1.392 1_556 S
C373 H385 0.929 . S
C374 C370 1.531 . S
C374 H386 0.960 . S
C374 H387 0.962 . S
C374 H388 0.960 . S
C375 C372 1.511 . S
C375 H389 0.961 . S
C375 H390 0.961 . S
C375 H391 0.961 . S
C376 C377 1.370 1_455 S
C376 C378 1.363 . S
C376 H392 0.931 . S
C377 C376 1.370 1_655 S
C377 C381 1.408 . S
C378 C376 1.363 . S
C378 C379 1.370 1_455 S
C378 C382 1.524 . S
C379 C371 1.503 . S
C379 C378 1.370 1_655 S
C379 C380 1.403 . S
C380 C379 1.403 . S
C380 C381 1.404 . S
C380 C383 1.539 . S
C381 C377 1.408 . S
C381 C380 1.404 . S
C381 H393 0.930 . S
C382 C378 1.524 . S
C382 H394 0.956 . S
C382 H395 0.961 . S
C382 H396 0.961 . S
C383 C380 1.539 . S
C383 H397 0.958 . S
C383 H398 0.961 . S
C383 H399 0.960 . S
H384 C368 0.931 . S
H385 C373 0.929 . S
H386 C374 0.960 . S
H387 C374 0.962 . S
H388 C374 0.960 . S
H389 C375 0.961 . S
H390 C375 0.961 . S
H391 C375 0.961 . S
H392 C376 0.931 . S
H393 C381 0.930 . S
H394 C382 0.956 . S
H395 C382 0.961 . S
H396 C382 0.961 . S
H397 C383 0.958 . S
H398 C383 0.961 . S
H399 C383 0.960 . S
C400 C401 1.391 . S
C400 C402 1.394 . S
C400 H416 0.931 . S
C401 C400 1.391 . S
C401 C405 1.376 . S
C402 C400 1.394 . S
C402 C403 1.369 . S
C402 C406 1.531 . S
C403 C402 1.369 . S
C403 C404 1.410 . S
C403 C411 1.503 . S
C404 C403 1.410 . S
C404 C405 1.392 . S
C404 C407 1.511 . S
C405 C401 1.376 . S
C405 C404 1.392 . S
C405 H417 0.929 . S
C406 C402 1.531 . S
C406 H418 0.960 . S
C406 H419 0.962 . S
C406 H420 0.960 . S
C407 C404 1.511 . S
C407 H421 0.961 . S
C407 H422 0.961 . S
C407 H423 0.961 . S
C408 C409 1.370 . S
C408 C410 1.363 . S
C408 H424 0.931 . S
C409 C408 1.370 . S
C409 C413 1.408 . S
C410 C408 1.363 . S
C410 C411 1.370 . S
C410 C414 1.524 . S
C411 C403 1.503 . S
C411 C410 1.370 . S
C411 C412 1.403 . S
C412 C411 1.403 . S
C412 C413 1.404 . S
C412 C415 1.539 . S
C413 C409 1.408 . S
C413 C412 1.404 . S
C413 H425 0.930 . S
C414 C410 1.524 . S
C414 H426 0.956 . S
C414 H427 0.961 . S
C414 H428 0.961 . S
C415 C412 1.539 . S
C415 H429 0.958 . S
C415 H430 0.961 . S
C415 H431 0.960 . S
H416 C400 0.931 . S
H417 C405 0.929 . S
H418 C406 0.960 . S
H419 C406 0.962 . S
H420 C406 0.960 . S
H421 C407 0.961 . S
H422 C407 0.961 . S
H423 C407 0.961 . S
H424 C408 0.931 . S
H425 C413 0.930 . S
H426 C414 0.956 . S
H427 C414 0.961 . S
H428 C414 0.961 . S
H429 C415 0.958 . S
H430 C415 0.961 . S
H431 C415 0.960 . S
C432 C433 1.391 . S
C432 C434 1.394 . S
C432 H448 0.931 . S
C433 C432 1.391 . S
C433 C437 1.376 . S
C434 C432 1.394 . S
C434 C435 1.369 . S
C434 C438 1.531 . S
C435 C434 1.369 . S
C435 C436 1.410 . S
C435 C443 1.503 . S
C436 C435 1.410 . S
C436 C437 1.392 . S
C436 C439 1.511 . S
C437 C433 1.376 . S
C437 C436 1.392 . S
C437 H449 0.929 . S
C438 C434 1.531 . S
C438 H450 0.960 . S
C438 H451 0.962 . S
C438 H452 0.960 . S
C439 C436 1.511 . S
C439 H453 0.961 . S
C439 H454 0.961 . S
C439 H455 0.961 . S
C440 C441 1.370 . S
C440 C442 1.363 . S
C440 H456 0.931 . S
C441 C440 1.370 . S
C441 C445 1.408 . S
C442 C440 1.363 . S
C442 C443 1.370 . S
C442 C446 1.524 . S
C443 C435 1.503 . S
C443 C442 1.370 . S
C443 C444 1.403 . S
C444 C443 1.403 . S
C444 C445 1.404 . S
C444 C447 1.539 . S
C445 C441 1.408 . S
C445 C444 1.404 . S
C445 H457 0.930 . S
C446 C442 1.524 . S
C446 H458 0.956 . S
C446 H459 0.961 . S
C446 H460 0.961 . S
C447 C444 1.539 . S
C447 H461 0.958 . S
C447 H462 0.961 . S
C447 H463 0.960 . S
H448 C432 0.931 . S
H449 C437 0.929 . S
H450 C438 0.960 . S
H451 C438 0.962 . S
H452 C438 0.960 . S
H453 C439 0.961 . S
H454 C439 0.961 . S
H455 C439 0.961 . S
H456 C440 0.931 . S
H457 C445 0.930 . S
H458 C446 0.956 . S
H459 C446 0.961 . S
H460 C446 0.961 . S
H461 C447 0.958 . S
H462 C447 0.961 . S
H463 C447 0.960 . S
C81 C18 1.787 . S
C89 C21 1.730 . S
C113 C42 1.803 . S
C121 C38 1.823 . S
C145 C62 1.888 . S
C153 C59 1.966 . S
C177 C1 1.809 . S
C185 C79 1.907 . S
C209 C78 1.810 . S
C217 C2 1.815 . S
C241 C41 1.787 . S
C249 C39 1.914 . S
C273 C58 1.770 . S
C281 C61 1.713 . S
C305 C22 1.853 . S
C313 C19 1.955 . S
C337 C9 0.923 1_455 S
C345 C8 0.888 . S
C369 C28 0.865 . S
C377 C29 0.908 . S
C401 C48 0.870 . S
C409 C49 0.908 . S
C433 C68 0.860 . S
C441 C69 0.910 . S
