# Generated by pormake.
# Topology cag, (4)-cn, num edge types: 1
# Building blocks:
#     Node 0, Type 0, BuildingBlock: UXUYUI_clean_sbu_0, # of connection points: 4
#     Node 1, Type 0, BuildingBlock: UXUYUI_clean_sbu_0, # of connection points: 4
#     Node 2, Type 0, BuildingBlock: UXUYUI_clean_sbu_0, # of connection points: 4
#     Node 3, Type 0, BuildingBlock: UXUYUI_clean_sbu_0, # of connection points: 4
#     Node 4, Type 0, BuildingBlock: UXUYUI_clean_sbu_0, # of connection points: 4
#     Node 5, Type 0, BuildingBlock: UXUYUI_clean_sbu_0, # of connection points: 4
#     Node 6, Type 0, BuildingBlock: UXUYUI_clean_sbu_0, # of connection points: 4
#     Node 7, Type 0, BuildingBlock: UXUYUI_clean_sbu_0, # of connection points: 4
#     Node 8, Type 0, BuildingBlock: UXUYUI_clean_sbu_0, # of connection points: 4
#     Node 9, Type 0, BuildingBlock: UXUYUI_clean_sbu_0, # of connection points: 4
#     Node 10, Type 0, BuildingBlock: UXUYUI_clean_sbu_0, # of connection points: 4
#     Node 11, Type 0, BuildingBlock: UXUYUI_clean_sbu_0, # of connection points: 4
#     Node 12, Type 0, BuildingBlock: UXUYUI_clean_sbu_0, # of connection points: 4
#     Node 13, Type 0, BuildingBlock: UXUYUI_clean_sbu_0, # of connection points: 4
#     Node 14, Type 0, BuildingBlock: UXUYUI_clean_sbu_0, # of connection points: 4
#     Node 15, Type 0, BuildingBlock: UXUYUI_clean_sbu_0, # of connection points: 4
#     Edge 16, Type (0, 0), BuildingBlock: TEMPAE_clean_linker_10, # of connection points: 2
#     Edge 17, Type (0, 0), BuildingBlock: TEMPAE_clean_linker_10, # of connection points: 2
#     Edge 18, Type (0, 0), BuildingBlock: TEMPAE_clean_linker_10, # of connection points: 2
#     Edge 19, Type (0, 0), BuildingBlock: TEMPAE_clean_linker_10, # of connection points: 2
#     Edge 20, Type (0, 0), BuildingBlock: TEMPAE_clean_linker_10, # of connection points: 2
#     Edge 21, Type (0, 0), BuildingBlock: TEMPAE_clean_linker_10, # of connection points: 2
#     Edge 22, Type (0, 0), BuildingBlock: TEMPAE_clean_linker_10, # of connection points: 2
#     Edge 23, Type (0, 0), BuildingBlock: TEMPAE_clean_linker_10, # of connection points: 2
#     Edge 24, Type (0, 0), BuildingBlock: TEMPAE_clean_linker_10, # of connection points: 2
#     Edge 25, Type (0, 0), BuildingBlock: TEMPAE_clean_linker_10, # of connection points: 2
#     Edge 26, Type (0, 0), BuildingBlock: TEMPAE_clean_linker_10, # of connection points: 2
#     Edge 27, Type (0, 0), BuildingBlock: TEMPAE_clean_linker_10, # of connection points: 2
#     Edge 28, Type (0, 0), BuildingBlock: TEMPAE_clean_linker_10, # of connection points: 2
#     Edge 29, Type (0, 0), BuildingBlock: TEMPAE_clean_linker_10, # of connection points: 2
#     Edge 30, Type (0, 0), BuildingBlock: TEMPAE_clean_linker_10, # of connection points: 2
#     Edge 31, Type (0, 0), BuildingBlock: TEMPAE_clean_linker_10, # of connection points: 2
#     Edge 32, Type (0, 0), BuildingBlock: TEMPAE_clean_linker_10, # of connection points: 2
#     Edge 33, Type (0, 0), BuildingBlock: TEMPAE_clean_linker_10, # of connection points: 2
#     Edge 34, Type (0, 0), BuildingBlock: TEMPAE_clean_linker_10, # of connection points: 2
#     Edge 35, Type (0, 0), BuildingBlock: TEMPAE_clean_linker_10, # of connection points: 2
#     Edge 36, Type (0, 0), BuildingBlock: TEMPAE_clean_linker_10, # of connection points: 2
#     Edge 37, Type (0, 0), BuildingBlock: TEMPAE_clean_linker_10, # of connection points: 2
#     Edge 38, Type (0, 0), BuildingBlock: TEMPAE_clean_linker_10, # of connection points: 2
#     Edge 39, Type (0, 0), BuildingBlock: TEMPAE_clean_linker_10, # of connection points: 2
#     Edge 40, Type (0, 0), BuildingBlock: TEMPAE_clean_linker_10, # of connection points: 2
#     Edge 41, Type (0, 0), BuildingBlock: TEMPAE_clean_linker_10, # of connection points: 2
#     Edge 42, Type (0, 0), BuildingBlock: TEMPAE_clean_linker_10, # of connection points: 2
#     Edge 43, Type (0, 0), BuildingBlock: TEMPAE_clean_linker_10, # of connection points: 2
#     Edge 44, Type (0, 0), BuildingBlock: TEMPAE_clean_linker_10, # of connection points: 2
#     Edge 45, Type (0, 0), BuildingBlock: TEMPAE_clean_linker_10, # of connection points: 2
#     Edge 46, Type (0, 0), BuildingBlock: TEMPAE_clean_linker_10, # of connection points: 2
#     Edge 47, Type (0, 0), BuildingBlock: TEMPAE_clean_linker_10, # of connection points: 2
# Relax obj value: 0.065
# Max RMSD: 0.090
# Mean RMSD: 0.089
data_MOF--net-cag--node1-UXUYUI_clean_sbu_0--edge1-TEMPAE_clean_linker_10
_symmetry_space_group_name_H-M    P1
_symmetry_Int_Tables_number       1
_symmetry_cell_setting            triclinic
loop_
_symmetry_equiv_pos_as_xyz
'x, y, z'
_cell_length_a     62.023061
_cell_length_b     73.537536
_cell_length_c     64.633983
_cell_angle_alpha  89.992244
_cell_angle_beta   89.9941
_cell_angle_gamma 90.008982
loop_
_atom_site_label
_atom_site_type_symbol
_atom_site_fract_x
_atom_site_fract_y
_atom_site_fract_z
_atom_type_partial_charge
Li0 Li 0.30948 0.14873 0.07717 0.0
Li1 Li 0.34292 0.13667 0.09085 0.0
Li2 Li 0.31477 0.11517 0.07872 0.0
Li3 Li 0.31063 0.13275 0.11102 0.0
C4 C 0.34358 0.14231 0.04798 0.0
N5 N 0.36905 0.15977 0.01905 0.0
C6 C 0.34699 0.16105 0.04929 0.0
C7 C 0.35302 0.13246 0.03186 0.0
C8 C 0.35994 0.16963 0.03455 0.0
C9 C 0.36588 0.14153 0.01741 0.0
C10 C 0.33878 0.16798 0.11152 0.0
C11 C 0.36607 0.17492 0.13693 0.0
N12 N 0.36844 0.19175 0.1285 0.0
C13 C 0.34137 0.18541 0.10322 0.0
C14 C 0.35111 0.16274 0.12861 0.0
C15 C 0.35648 0.1972 0.11199 0.0
C16 C 0.28947 0.18301 0.07232 0.0
N17 N 0.29598 0.16793 0.06191 0.0
C18 C 0.28414 0.18075 0.02985 0.0
C19 C 0.29345 0.16654 0.04107 0.0
C20 C 0.27762 0.19673 0.04008 0.0
C21 C 0.28039 0.19767 0.06167 0.0
H22 H 0.29164 0.18375 0.0889 0.0
H23 H 0.29881 0.15442 0.03312 0.0
C24 C 0.38512 0.12431 0.09762 0.0
N25 N 0.37376 0.13933 0.09201 0.0
C26 C 0.40761 0.12483 0.09861 0.0
C27 C 0.40645 0.15627 0.08788 0.0
C28 C 0.38397 0.15514 0.08709 0.0
C29 C 0.4186 0.14097 0.09369 0.0
H30 H 0.37672 0.11181 0.10115 0.0
H31 H 0.37476 0.16692 0.08256 0.0
C32 C 0.27185 0.12797 0.07527 0.0
N33 N 0.23672 0.12526 0.04918 0.0
C34 C 0.25098 0.1297 0.08315 0.0
C35 C 0.27488 0.12488 0.05413 0.0
C36 C 0.23342 0.12828 0.0697 0.0
C37 C 0.25691 0.12355 0.0412 0.0
C38 C 0.33291 0.10245 0.12049 0.0
C39 C 0.32044 0.08662 0.12019 0.0
C40 C 0.34565 0.10633 0.13777 0.0
C41 C 0.32062 0.07509 0.13737 0.0
C42 C 0.34538 0.09446 0.15465 0.0
N43 N 0.33296 0.07923 0.15411 0.0
C44 C 0.32791 0.08594 0.05441 0.0
C45 C 0.29178 0.08294 0.06581 0.0
C46 C 0.32659 0.0695 0.0437 0.0
N47 N 0.31062 0.09239 0.06502 0.0
C48 C 0.28976 0.06636 0.05535 0.0
C49 C 0.30733 0.05943 0.04404 0.0
H50 H 0.34278 0.09361 0.05432 0.0
H51 H 0.27837 0.0882 0.07467 0.0
C52 C 0.30133 0.14643 0.15119 0.0
N53 N 0.29849 0.13199 0.13834 0.0
C54 C 0.29303 0.14611 0.17128 0.0
C55 C 0.27859 0.11621 0.16453 0.0
C56 C 0.28701 0.11718 0.14448 0.0
C57 C 0.28163 0.13078 0.17832 0.0
H58 H 0.30989 0.1583 0.14581 0.0
H59 H 0.28444 0.10606 0.13382 0.0
O60 O 0.3309 0.13363 0.06223 0.0
O61 O 0.32417 0.15616 0.10307 0.0
O62 O 0.28918 0.12947 0.08824 0.0
O63 O 0.33281 0.11399 0.10388 0.0
H64 H 0.33982 0.16887 0.06163 0.0
H65 H 0.35043 0.11797 0.03046 0.0
H66 H 0.36276 0.18413 0.03546 0.0
H67 H 0.37331 0.13407 0.00488 0.0
H68 H 0.37579 0.17098 0.15008 0.0
H69 H 0.33192 0.18978 0.09007 0.0
H70 H 0.34918 0.1494 0.13533 0.0
H71 H 0.35873 0.21068 0.10564 0.0
H72 H 0.28202 0.17916 0.01332 0.0
H73 H 0.27598 0.20974 0.07028 0.0
H74 H 0.4163 0.11261 0.10282 0.0
H75 H 0.41422 0.16904 0.08413 0.0
H76 H 0.24839 0.13212 0.09948 0.0
H77 H 0.29093 0.12352 0.04777 0.0
H78 H 0.21716 0.12958 0.07558 0.0
H79 H 0.25902 0.12116 0.02481 0.0
H80 H 0.31051 0.08337 0.10695 0.0
H81 H 0.35571 0.11832 0.13813 0.0
H82 H 0.31091 0.06286 0.13741 0.0
H83 H 0.35509 0.09735 0.16816 0.0
H84 H 0.34048 0.06485 0.03504 0.0
H85 H 0.27471 0.05894 0.05634 0.0
H86 H 0.29532 0.15789 0.1811 0.0
H87 H 0.27001 0.10406 0.16921 0.0
Li88 Li 0.18672 0.88756 0.58014 0.0
Li89 Li 0.19172 0.87186 0.61363 0.0
Li90 Li 0.1907 0.85458 0.57969 0.0
Li91 Li 0.15731 0.86731 0.59473 0.0
C92 C 0.22957 0.88281 0.58357 0.0
N93 N 0.26468 0.90319 0.57116 0.0
C94 C 0.24156 0.89255 0.59813 0.0
C95 C 0.23559 0.88323 0.56274 0.0
C96 C 0.25923 0.90282 0.59154 0.0
C97 C 0.25334 0.89368 0.55676 0.0
C98 C 0.16392 0.90136 0.62199 0.0
C99 C 0.14417 0.90666 0.65356 0.0
N100 N 0.15234 0.92381 0.65442 0.0
C101 C 0.1719 0.91911 0.62303 0.0
C102 C 0.14976 0.89513 0.63725 0.0
C103 C 0.16594 0.93022 0.63961 0.0
C104 C 0.17931 0.91204 0.54752 0.0
N105 N 0.19125 0.90965 0.56495 0.0
C106 C 0.20742 0.93898 0.56058 0.0
C107 C 0.20506 0.92276 0.57168 0.0
C108 C 0.19515 0.94185 0.5426 0.0
C109 C 0.18101 0.92808 0.53607 0.0
H110 H 0.1682 0.90157 0.54264 0.0
H111 H 0.21398 0.9208 0.58585 0.0
C112 C 0.2089 0.857 0.65048 0.0
N113 N 0.20449 0.87294 0.64068 0.0
C114 C 0.2177 0.857 0.67039 0.0
C115 C 0.21785 0.88983 0.66964 0.0
C116 C 0.20907 0.88919 0.64973 0.0
C117 C 0.22219 0.87358 0.68032 0.0
H118 H 0.20547 0.84424 0.64286 0.0
H119 H 0.20612 0.90168 0.64144 0.0
C120 C 0.16453 0.86143 0.54715 0.0
N121 N 0.15769 0.84463 0.50949 0.0
C122 C 0.14592 0.85109 0.54391 0.0
C123 C 0.1795 0.86344 0.53116 0.0
C124 C 0.14279 0.84266 0.52477 0.0
C125 C 0.1758 0.85477 0.51226 0.0
C126 C 0.166 0.83623 0.61856 0.0
C127 C 0.16291 0.81846 0.6115 0.0
C128 C 0.15812 0.84129 0.63797 0.0
C129 C 0.15163 0.80611 0.62386 0.0
C130 C 0.14693 0.82855 0.64988 0.0
N131 N 0.14391 0.81138 0.64262 0.0
C132 C 0.22412 0.83296 0.56249 0.0
C133 C 0.1889 0.82171 0.55636 0.0
C134 C 0.2331 0.81853 0.55134 0.0
N135 N 0.20237 0.83436 0.56466 0.0
C136 C 0.19716 0.80722 0.54484 0.0
C137 C 0.21954 0.80551 0.54221 0.0
H138 H 0.23451 0.84306 0.56942 0.0
H139 H 0.17171 0.82285 0.55868 0.0
C140 C 0.11505 0.88055 0.59789 0.0
N141 N 0.12669 0.8649 0.59738 0.0
C142 C 0.09258 0.88001 0.59918 0.0
C143 C 0.09436 0.8472 0.59925 0.0
C144 C 0.11681 0.84839 0.59788 0.0
C145 C 0.08189 0.86316 0.59987 0.0
H146 H 0.12325 0.89351 0.59703 0.0
H147 H 0.12628 0.83611 0.59687 0.0
O148 O 0.21213 0.87278 0.58972 0.0
O149 O 0.1696 0.89031 0.60586 0.0
O150 O 0.16798 0.86962 0.56585 0.0
O151 O 0.17694 0.8485 0.6066 0.0
H152 H 0.23722 0.89226 0.61433 0.0
H153 H 0.22663 0.87561 0.55132 0.0
H154 H 0.26859 0.91051 0.60262 0.0
H155 H 0.2581 0.89422 0.54067 0.0
H156 H 0.13328 0.90199 0.66551 0.0
H157 H 0.18271 0.92421 0.61126 0.0
H158 H 0.14298 0.88162 0.6364 0.0
H159 H 0.17212 0.94394 0.64069 0.0
H160 H 0.21827 0.94936 0.56631 0.0
H161 H 0.17135 0.92969 0.52223 0.0
H162 H 0.22065 0.84414 0.67804 0.0
H163 H 0.22147 0.90292 0.67649 0.0
H164 H 0.13411 0.84948 0.55607 0.0
H165 H 0.19384 0.87156 0.53334 0.0
H166 H 0.12853 0.83452 0.52208 0.0
H167 H 0.18733 0.85612 0.49979 0.0
H168 H 0.16907 0.81426 0.59659 0.0
H169 H 0.16079 0.85484 0.64388 0.0
H170 H 0.14901 0.79234 0.61854 0.0
H171 H 0.1407 0.8323 0.66492 0.0
H172 H 0.25045 0.81771 0.54963 0.0
H173 H 0.18619 0.79731 0.5383 0.0
H174 H 0.08368 0.89267 0.59917 0.0
H175 H 0.08687 0.83391 0.59984 0.0
Li176 Li 0.31296 0.87217 0.89271 0.0
Li177 Li 0.31725 0.88733 0.92642 0.0
Li178 Li 0.34698 0.86761 0.91242 0.0
Li179 Li 0.31328 0.85457 0.9265 0.0
C180 C 0.34357 0.8999 0.88463 0.0
N181 N 0.36136 0.91858 0.85167 0.0
C182 C 0.33922 0.9184 0.88192 0.0
C183 C 0.35723 0.89099 0.87076 0.0
C184 C 0.34829 0.92758 0.86511 0.0
C185 C 0.366 0.90064 0.85415 0.0
C186 C 0.27548 0.88393 0.92211 0.0
C187 C 0.25198 0.89592 0.94851 0.0
N188 N 0.2427 0.90701 0.93421 0.0
C189 C 0.26563 0.89535 0.90765 0.0
C190 C 0.26853 0.8841 0.94268 0.0
C191 C 0.2491 0.90695 0.91408 0.0
C192 C 0.29378 0.85756 0.85678 0.0
N193 N 0.30058 0.87336 0.86555 0.0
C194 C 0.28988 0.89009 0.83548 0.0
C195 C 0.29854 0.88949 0.85544 0.0
C196 C 0.28306 0.87393 0.82585 0.0
C197 C 0.28501 0.85752 0.83685 0.0
H198 H 0.29534 0.84493 0.86522 0.0
H199 H 0.30345 0.90195 0.86291 0.0
C200 C 0.31782 0.91023 0.96163 0.0
N201 N 0.31174 0.90935 0.94145 0.0
C202 C 0.31492 0.92623 0.97294 0.0
C203 C 0.2996 0.94023 0.94249 0.0
C204 C 0.3027 0.9239 0.93179 0.0
C205 C 0.30585 0.94157 0.96334 0.0
H206 H 0.32532 0.89863 0.96889 0.0
H207 H 0.29806 0.92289 0.91572 0.0
C208 C 0.33783 0.83605 0.88792 0.0
N209 N 0.35781 0.80994 0.86384 0.0
C210 C 0.34159 0.81865 0.89586 0.0
C211 C 0.3439 0.84005 0.86759 0.0
C212 C 0.35181 0.80568 0.88349 0.0
C213 C 0.35407 0.8267 0.8557 0.0
C214 C 0.33913 0.86031 0.95924 0.0
C215 C 0.35845 0.85091 0.96231 0.0
C216 C 0.32345 0.86031 0.97478 0.0
C217 C 0.36165 0.84147 0.98082 0.0
C218 C 0.32724 0.85068 0.99305 0.0
N219 N 0.3461 0.84153 0.99566 0.0
C220 C 0.38913 0.88118 0.91227 0.0
C221 C 0.38787 0.8492 0.90814 0.0
C222 C 0.41163 0.88097 0.91145 0.0
N223 N 0.37773 0.86547 0.9105 0.0
C224 C 0.41037 0.84835 0.90721 0.0
C225 C 0.42258 0.86439 0.90893 0.0
H226 H 0.3807 0.89392 0.91436 0.0
H227 H 0.37859 0.83682 0.90735 0.0
C228 C 0.27929 0.83281 0.94233 0.0
N229 N 0.30112 0.83412 0.94087 0.0
C230 C 0.26983 0.81835 0.95308 0.0
C231 C 0.30545 0.80683 0.96062 0.0
C232 C 0.3142 0.82136 0.94951 0.0
C233 C 0.28298 0.80521 0.96254 0.0
H234 H 0.26921 0.84303 0.9352 0.0
H235 H 0.33148 0.8225 0.9479 0.0
O236 O 0.33475 0.89071 0.90099 0.0
O237 O 0.29196 0.87274 0.91619 0.0
O238 O 0.32774 0.84889 0.89982 0.0
O239 O 0.33566 0.86951 0.94115 0.0
H240 H 0.32888 0.92559 0.89261 0.0
H241 H 0.36125 0.87684 0.87291 0.0
H242 H 0.34494 0.94187 0.86275 0.0
H243 H 0.37657 0.89388 0.84329 0.0
H244 H 0.24653 0.89628 0.9644 0.0
H245 H 0.27081 0.89536 0.89167 0.0
H246 H 0.27594 0.87529 0.95403 0.0
H247 H 0.2414 0.91594 0.90309 0.0
H248 H 0.28829 0.90309 0.82777 0.0
H249 H 0.28013 0.84472 0.83002 0.0
H250 H 0.3203 0.92674 0.98887 0.0
H251 H 0.29241 0.95168 0.93453 0.0
H252 H 0.33679 0.81523 0.91145 0.0
H253 H 0.34059 0.85322 0.86092 0.0
H254 H 0.35495 0.79221 0.88951 0.0
H255 H 0.3589 0.82964 0.83997 0.0
H256 H 0.37081 0.85083 0.95051 0.0
H257 H 0.30841 0.86752 0.97266 0.0
H258 H 0.37649 0.83407 0.98338 0.0
H259 H 0.31517 0.85046 0.00513 0.0
H260 H 0.42035 0.89369 0.91266 0.0
H261 H 0.41814 0.83524 0.90562 0.0
H262 H 0.25243 0.81762 0.95426 0.0
H263 H 0.31614 0.79685 0.96746 0.0
Li264 Li 0.19189 0.14739 0.42525 0.0
Li265 Li 0.1583 0.13443 0.41117 0.0
Li266 Li 0.18813 0.11449 0.42534 0.0
Li267 Li 0.19234 0.1299 0.39152 0.0
C268 C 0.16707 0.14104 0.45843 0.0
N269 N 0.16216 0.15878 0.49581 0.0
C270 C 0.14859 0.15138 0.46226 0.0
C271 C 0.18292 0.13953 0.47369 0.0
C272 C 0.14643 0.16028 0.48124 0.0
C273 C 0.18019 0.14866 0.49246 0.0
C274 C 0.16669 0.16493 0.38586 0.0
C275 C 0.14892 0.17151 0.35353 0.0
N276 N 0.14509 0.18877 0.36012 0.0
C277 C 0.16281 0.1828 0.39222 0.0
C278 C 0.15988 0.15928 0.36629 0.0
C279 C 0.15177 0.19462 0.37902 0.0
C280 C 0.22532 0.16918 0.44222 0.0
N281 N 0.20361 0.1679 0.43968 0.0
C282 C 0.19831 0.19567 0.45828 0.0
C283 C 0.19012 0.18089 0.44722 0.0
C284 C 0.22065 0.1973 0.46126 0.0
C285 C 0.23424 0.18389 0.45295 0.0
H286 H 0.23573 0.15877 0.43593 0.0
H287 H 0.17295 0.17976 0.44468 0.0
C288 C 0.11598 0.12113 0.40883 0.0
N289 N 0.12766 0.13677 0.40917 0.0
C290 C 0.0935 0.12172 0.40777 0.0
C291 C 0.09536 0.15453 0.40786 0.0
C292 C 0.11783 0.15331 0.40888 0.0
C293 C 0.08287 0.13859 0.40726 0.0
H294 H 0.12414 0.10816 0.40958 0.0
H295 H 0.12737 0.16555 0.40976 0.0
C296 C 0.23069 0.11879 0.4201 0.0
N297 N 0.2658 0.0975 0.43031 0.0
C298 C 0.24144 0.10889 0.40479 0.0
C299 C 0.23794 0.11803 0.44055 0.0
C300 C 0.25914 0.09817 0.41028 0.0
C301 C 0.25567 0.10713 0.44542 0.0
C302 C 0.16345 0.10023 0.3845 0.0
C303 C 0.17024 0.08212 0.3838 0.0
C304 C 0.14907 0.10669 0.36956 0.0
C305 C 0.16284 0.07086 0.3679 0.0
C306 C 0.14203 0.09501 0.35393 0.0
N307 N 0.14902 0.07749 0.35341 0.0
C308 C 0.18241 0.09047 0.45877 0.0
C309 C 0.20612 0.07909 0.43315 0.0
C310 C 0.18449 0.07449 0.47028 0.0
N311 N 0.19316 0.0925 0.44059 0.0
C312 C 0.2088 0.06291 0.44424 0.0
C313 C 0.1978 0.06037 0.46306 0.0
H314 H 0.17182 0.10112 0.46417 0.0
H315 H 0.21417 0.08082 0.41846 0.0
C316 C 0.21163 0.14476 0.35586 0.0
N317 N 0.20462 0.12888 0.36427 0.0
C318 C 0.22028 0.14509 0.33588 0.0
C319 C 0.2147 0.11266 0.33365 0.0
C320 C 0.20628 0.11294 0.35372 0.0
C321 C 0.22177 0.1289 0.32438 0.0
H322 H 0.21044 0.15722 0.36467 0.0
H323 H 0.20115 0.1004 0.36083 0.0
O324 O 0.16959 0.13242 0.43985 0.0
O325 O 0.17748 0.1532 0.39861 0.0
O326 O 0.21327 0.12927 0.41504 0.0
O327 O 0.17056 0.11143 0.39997 0.0
H328 H 0.13612 0.15261 0.45065 0.0
H329 H 0.19723 0.13146 0.47103 0.0
H330 H 0.13228 0.16842 0.48438 0.0
H331 H 0.1924 0.14772 0.50436 0.0
H332 H 0.14352 0.16729 0.33835 0.0
H333 H 0.16815 0.18747 0.40723 0.0
H334 H 0.16322 0.14567 0.36089 0.0
H335 H 0.14853 0.20845 0.3838 0.0
H336 H 0.18731 0.20586 0.46421 0.0
H337 H 0.25155 0.18462 0.45498 0.0
H338 H 0.08454 0.10908 0.40777 0.0
H339 H 0.08786 0.16783 0.40747 0.0
H340 H 0.2361 0.10939 0.38888 0.0
H341 H 0.22992 0.12573 0.45254 0.0
H342 H 0.26754 0.09036 0.39862 0.0
H343 H 0.26138 0.10633 0.46121 0.0
H344 H 0.18121 0.07684 0.39532 0.0
H345 H 0.1432 0.12051 0.37016 0.0
H346 H 0.16808 0.05684 0.3671 0.0
H347 H 0.13093 0.09985 0.34225 0.0
H348 H 0.1753 0.07306 0.48443 0.0
H349 H 0.21935 0.0525 0.43809 0.0
H350 H 0.2259 0.1579 0.32962 0.0
H351 H 0.21537 0.09985 0.32542 0.0
Li352 Li 0.69022 0.88699 0.92582 0.0
Li353 Li 0.69421 0.85463 0.92658 0.0
Li354 Li 0.69506 0.87177 0.89237 0.0
Li355 Li 0.66123 0.86765 0.91368 0.0
C356 C 0.73322 0.8833 0.92004 0.0
N357 N 0.76893 0.90466 0.92803 0.0
C358 C 0.74005 0.88611 0.9404 0.0
C359 C 0.74459 0.89132 0.90374 0.0
C360 C 0.75811 0.89698 0.94413 0.0
C361 C 0.7626 0.90207 0.9081 0.0
C362 C 0.67421 0.86107 0.96069 0.0
C363 C 0.66558 0.83584 0.98308 0.0
N364 N 0.67812 0.84325 0.99815 0.0
C365 C 0.68701 0.86842 0.97641 0.0
C366 C 0.66337 0.84466 0.96406 0.0
C367 C 0.68876 0.85922 0.99524 0.0
C368 C 0.6802 0.91342 0.95561 0.0
N369 N 0.69451 0.90983 0.94021 0.0
C370 C 0.71126 0.93886 0.94523 0.0
C371 C 0.70963 0.92233 0.93464 0.0
C372 C 0.69687 0.94282 0.96145 0.0
C373 C 0.68108 0.92982 0.96644 0.0
H374 H 0.66776 0.90363 0.95926 0.0
H375 H 0.72023 0.91968 0.92176 0.0
C376 C 0.70035 0.81694 0.93503 0.0
N377 N 0.70644 0.83397 0.94077 0.0
C378 C 0.70824 0.80172 0.94557 0.0
C379 C 0.7288 0.82179 0.96759 0.0
C380 C 0.72058 0.83659 0.95656 0.0
C381 C 0.7226 0.80402 0.9622 0.0
H382 H 0.68932 0.81514 0.92227 0.0
H383 H 0.72522 0.8502 0.9609 0.0
C384 C 0.6677 0.90764 0.9005 0.0
N385 N 0.65828 0.94425 0.90346 0.0
C386 C 0.64927 0.91339 0.91108 0.0
C387 C 0.68129 0.92048 0.89133 0.0
C388 C 0.6448 0.93197 0.91243 0.0
C389 C 0.67625 0.93894 0.89302 0.0
C390 C 0.66409 0.83891 0.88976 0.0
C391 C 0.66157 0.84089 0.86839 0.0
C392 C 0.65037 0.82726 0.90068 0.0
C393 C 0.64524 0.83126 0.8583 0.0
C394 C 0.63422 0.81789 0.89003 0.0
N395 N 0.63201 0.82007 0.86924 0.0
C396 C 0.72253 0.86059 0.85987 0.0
C397 C 0.69886 0.88468 0.85105 0.0
C398 C 0.73111 0.86051 0.83986 0.0
N399 N 0.70674 0.87258 0.86505 0.0
C400 C 0.70706 0.88513 0.8309 0.0
C401 C 0.72338 0.87291 0.82505 0.0
H402 H 0.72842 0.85107 0.87131 0.0
H403 H 0.68604 0.89384 0.85547 0.0
C404 C 0.61884 0.86281 0.92918 0.0
N405 N 0.63054 0.86551 0.91167 0.0
C406 C 0.59638 0.86168 0.92826 0.0
C407 C 0.59834 0.86636 0.8913 0.0
C408 C 0.62078 0.86744 0.89295 0.0
C409 C 0.5858 0.86346 0.90913 0.0
H410 H 0.6269 0.86185 0.94394 0.0
H411 H 0.63045 0.86989 0.87931 0.0
O412 O 0.71572 0.87257 0.916 0.0
O413 O 0.67263 0.8697 0.94198 0.0
O414 O 0.67269 0.88956 0.89959 0.0
O415 O 0.67973 0.84848 0.89997 0.0
H416 H 0.73126 0.8803 0.95322 0.0
H417 H 0.73955 0.88932 0.88789 0.0
H418 H 0.76348 0.89937 0.95982 0.0
H419 H 0.77153 0.90838 0.89564 0.0
H420 H 0.6574 0.82308 0.98584 0.0
H421 H 0.69578 0.88096 0.97402 0.0
H422 H 0.65361 0.83865 0.952 0.0
H423 H 0.69868 0.86471 0.0075 0.0
H424 H 0.72371 0.9484 0.94075 0.0
H425 H 0.66919 0.93241 0.97835 0.0
H426 H 0.70329 0.78829 0.94061 0.0
H427 H 0.73959 0.82429 0.98044 0.0
H428 H 0.63868 0.90361 0.9184 0.0
H429 H 0.69578 0.91626 0.88333 0.0
H430 H 0.63067 0.93663 0.92067 0.0
H431 H 0.6867 0.94905 0.88614 0.0
H432 H 0.67199 0.84986 0.85969 0.0
H433 H 0.65199 0.82565 0.91723 0.0
H434 H 0.64306 0.83271 0.84178 0.0
H435 H 0.6234 0.80894 0.89831 0.0
H436 H 0.7438 0.85096 0.83608 0.0
H437 H 0.7004 0.89473 0.81991 0.0
H438 H 0.58738 0.85984 0.94246 0.0
H439 H 0.59091 0.86772 0.87623 0.0
Li440 Li 0.81214 0.14865 0.42365 0.0
Li441 Li 0.81661 0.11496 0.42378 0.0
Li442 Li 0.84423 0.13436 0.41 0.0
Li443 Li 0.81132 0.13103 0.39131 0.0
C444 C 0.85136 0.13877 0.44947 0.0
N445 N 0.88893 0.14909 0.46923 0.0
C446 C 0.86389 0.12584 0.45978 0.0
C447 C 0.85787 0.15698 0.44932 0.0
C448 C 0.88285 0.13132 0.46964 0.0
C449 C 0.87692 0.16191 0.45939 0.0
C450 C 0.77424 0.12891 0.42884 0.0
C451 C 0.73628 0.12685 0.43654 0.0
N452 N 0.74082 0.12789 0.45709 0.0
C453 C 0.77855 0.12997 0.45005 0.0
C454 C 0.75295 0.12737 0.42201 0.0
C455 C 0.76142 0.12943 0.46408 0.0
C456 C 0.787 0.18063 0.42789 0.0
N457 N 0.80023 0.16896 0.43815 0.0
C458 C 0.7963 0.18609 0.46938 0.0
C459 C 0.80482 0.17131 0.45855 0.0
C460 C 0.78266 0.19842 0.4592 0.0
C461 C 0.77791 0.19549 0.43821 0.0
H462 H 0.78352 0.17835 0.4117 0.0
H463 H 0.81503 0.16165 0.46648 0.0
C464 C 0.8307 0.08312 0.4427 0.0
N465 N 0.81235 0.09251 0.43849 0.0
C466 C 0.82988 0.06679 0.4537 0.0
C467 C 0.79114 0.06969 0.45537 0.0
C468 C 0.79272 0.08592 0.44416 0.0
C469 C 0.80992 0.05994 0.46048 0.0
H470 H 0.84604 0.08832 0.43738 0.0
H471 H 0.77821 0.09315 0.44006 0.0
C472 C 0.83552 0.16088 0.37935 0.0
N473 N 0.85231 0.17443 0.34288 0.0
C474 C 0.84869 0.14997 0.36695 0.0
C475 C 0.83088 0.17867 0.37321 0.0
C476 C 0.85703 0.15707 0.34857 0.0
C477 C 0.83953 0.18527 0.35471 0.0
C478 C 0.82666 0.09579 0.38868 0.0
C479 C 0.84205 0.08438 0.37972 0.0
C480 C 0.80492 0.09073 0.38846 0.0
C481 C 0.83545 0.06806 0.37065 0.0
C482 C 0.79897 0.0743 0.37924 0.0
N483 N 0.81423 0.0634 0.37059 0.0
C484 C 0.8865 0.12082 0.40977 0.0
C485 C 0.8848 0.15283 0.40572 0.0
C486 C 0.90899 0.12131 0.4094 0.0
N487 N 0.87493 0.13643 0.40803 0.0
C488 C 0.90729 0.15395 0.40524 0.0
C489 C 0.91971 0.13805 0.4072 0.0
H490 H 0.87819 0.10799 0.41168 0.0
H491 H 0.8752 0.16507 0.40461 0.0
C492 C 0.77859 0.13669 0.36116 0.0
N493 N 0.79873 0.12993 0.36422 0.0
C494 C 0.76932 0.13642 0.34142 0.0
C495 C 0.80173 0.12229 0.32835 0.0
C496 C 0.81028 0.12272 0.34833 0.0
C497 C 0.78096 0.12922 0.32461 0.0
H498 H 0.76974 0.14235 0.37407 0.0
H499 H 0.82629 0.11745 0.35109 0.0
O500 O 0.83306 0.13363 0.43919 0.0
O501 O 0.79065 0.12972 0.41473 0.0
O502 O 0.827 0.15424 0.39735 0.0
O503 O 0.83302 0.11178 0.39762 0.0
H504 H 0.85908 0.11172 0.46013 0.0
H505 H 0.84853 0.16713 0.44116 0.0
H506 H 0.89275 0.12143 0.47761 0.0
H507 H 0.88223 0.17593 0.45926 0.0
H508 H 0.71972 0.12564 0.43147 0.0
H509 H 0.7949 0.13107 0.45566 0.0
H510 H 0.74936 0.12658 0.40565 0.0
H511 H 0.76452 0.13022 0.48052 0.0
H512 H 0.8001 0.18771 0.48564 0.0
H513 H 0.76752 0.20474 0.42979 0.0
H514 H 0.84475 0.05954 0.45669 0.0
H515 H 0.77538 0.06501 0.46023 0.0
H516 H 0.8524 0.13615 0.3714 0.0
H517 H 0.82067 0.18726 0.38264 0.0
H518 H 0.86722 0.14877 0.33881 0.0
H519 H 0.83607 0.19902 0.34976 0.0
H520 H 0.85894 0.08812 0.37978 0.0
H521 H 0.79274 0.09933 0.39529 0.0
H522 H 0.8472 0.0591 0.36365 0.0
H523 H 0.78222 0.07021 0.37895 0.0
H524 H 0.9179 0.10869 0.4107 0.0
H525 H 0.91487 0.16715 0.40379 0.0
H526 H 0.75316 0.1417 0.3394 0.0
H527 H 0.81149 0.11687 0.31591 0.0
Li528 Li 0.6575 0.13651 0.09271 0.0
Li529 Li 0.69068 0.13206 0.11208 0.0
Li530 Li 0.69013 0.14899 0.0789 0.0
Li531 Li 0.68559 0.11591 0.07848 0.0
C532 C 0.66222 0.16768 0.11397 0.0
N533 N 0.63344 0.19218 0.13099 0.0
C534 C 0.66122 0.17002 0.13542 0.0
C535 C 0.64875 0.17797 0.10119 0.0
C536 C 0.64652 0.18243 0.14372 0.0
C537 C 0.63426 0.19023 0.11008 0.0
C538 C 0.6554 0.10725 0.12008 0.0
C539 C 0.63157 0.08439 0.13404 0.0
N540 N 0.62805 0.09505 0.15089 0.0
C541 C 0.6516 0.11793 0.13758 0.0
C542 C 0.64537 0.09029 0.11832 0.0
C543 C 0.63771 0.11155 0.15297 0.0
C544 C 0.61557 0.13492 0.07672 0.0
N545 N 0.62663 0.13894 0.09429 0.0
C546 C 0.59361 0.1447 0.11233 0.0
C547 C 0.61611 0.14373 0.11196 0.0
C548 C 0.58177 0.14056 0.09441 0.0
C549 C 0.59307 0.13568 0.07641 0.0
H550 H 0.62422 0.13097 0.06292 0.0
H551 H 0.62509 0.14673 0.12584 0.0
C552 C 0.71378 0.14564 0.14646 0.0
N553 N 0.7039 0.13054 0.13887 0.0
C554 C 0.72277 0.14552 0.16631 0.0
C555 C 0.71164 0.1142 0.17002 0.0
C556 C 0.70302 0.11489 0.15006 0.0
C557 C 0.72154 0.12971 0.17847 0.0
H558 H 0.71434 0.15788 0.1372 0.0
H559 H 0.69538 0.10296 0.14359 0.0
C560 C 0.66857 0.14176 0.04469 0.0
N561 N 0.67048 0.15732 0.00582 0.0
C562 C 0.6817 0.13416 0.02939 0.0
C563 C 0.6562 0.15713 0.04014 0.0
C564 C 0.68249 0.14226 0.00985 0.0
C565 C 0.65746 0.16485 0.02043 0.0
C566 C 0.72779 0.11862 0.09325 0.0
C567 C 0.74915 0.1238 0.0897 0.0
C568 C 0.7234 0.10177 0.10235 0.0
C569 C 0.76581 0.11201 0.09534 0.0
C570 C 0.74051 0.09037 0.10777 0.0
N571 N 0.76118 0.09569 0.10418 0.0
C572 C 0.6972 0.18619 0.06859 0.0
C573 C 0.71668 0.16516 0.0481 0.0
C574 C 0.7055 0.20074 0.05719 0.0
N575 N 0.70266 0.16881 0.06374 0.0
C576 C 0.7253 0.17931 0.03621 0.0
C577 C 0.71964 0.19742 0.04061 0.0
H578 H 0.68643 0.18882 0.08134 0.0
H579 H 0.72098 0.15123 0.0447 0.0
C580 C 0.67285 0.08236 0.06228 0.0
N581 N 0.68986 0.09397 0.06314 0.0
C582 C 0.6743 0.06617 0.0511 0.0
C583 C 0.71065 0.07432 0.04136 0.0
C584 C 0.70855 0.09031 0.05294 0.0
C585 C 0.69335 0.06195 0.04029 0.0
H586 H 0.65804 0.0858 0.07015 0.0
H587 H 0.72172 0.09994 0.05353 0.0
O588 O 0.67649 0.15555 0.10556 0.0
O589 O 0.66892 0.11328 0.1048 0.0
O590 O 0.66793 0.13425 0.06404 0.0
O591 O 0.71136 0.13009 0.08787 0.0
H592 H 0.67162 0.16231 0.14558 0.0
H593 H 0.64933 0.17638 0.08458 0.0
H594 H 0.6455 0.1843 0.16029 0.0
H595 H 0.62364 0.19818 0.10035 0.0
H596 H 0.62369 0.0713 0.13285 0.0
H597 H 0.65922 0.13104 0.13922 0.0
H598 H 0.64823 0.08173 0.10501 0.0
H599 H 0.6346 0.11974 0.16655 0.0
H600 H 0.58557 0.1483 0.12663 0.0
H601 H 0.58463 0.13256 0.06218 0.0
H602 H 0.73015 0.1578 0.17225 0.0
H603 H 0.71065 0.10165 0.17874 0.0
H604 H 0.69139 0.12228 0.03263 0.0
H605 H 0.64576 0.16305 0.05171 0.0
H606 H 0.69271 0.1366 0.99791 0.0
H607 H 0.64806 0.17681 0.01673 0.0
H608 H 0.75279 0.13681 0.08267 0.0
H609 H 0.70699 0.09749 0.10517 0.0
H610 H 0.78242 0.11585 0.09268 0.0
H611 H 0.73735 0.0773 0.11482 0.0
H612 H 0.70104 0.21447 0.06149 0.0
H613 H 0.73601 0.17605 0.02351 0.0
H614 H 0.66062 0.05702 0.05104 0.0
H615 H 0.72551 0.07188 0.03303 0.0
Li616 Li 0.80893 0.86964 0.61063 0.0
Li617 Li 0.84346 0.86619 0.5904 0.0
Li618 Li 0.815 0.88634 0.57691 0.0
Li619 Li 0.81096 0.85405 0.57688 0.0
C620 C 0.83447 0.90622 0.6056 0.0
N621 N 0.84 0.94345 0.60725 0.0
C622 C 0.85375 0.91402 0.59881 0.0
C623 C 0.81802 0.91731 0.6133 0.0
C624 C 0.85623 0.93288 0.59976 0.0
C625 C 0.82113 0.93611 0.61398 0.0
C626 C 0.83993 0.83679 0.61304 0.0
C627 C 0.86927 0.8153 0.6119 0.0
N628 N 0.87176 0.81702 0.63272 0.0
C629 C 0.84268 0.83827 0.63443 0.0
C630 C 0.85321 0.82514 0.60168 0.0
C631 C 0.8589 0.82818 0.64409 0.0
C632 C 0.7793 0.86113 0.64302 0.0
N633 N 0.79714 0.87093 0.63801 0.0
C634 C 0.79967 0.88222 0.67268 0.0
C635 C 0.80739 0.88134 0.65236 0.0
C636 C 0.78123 0.87225 0.67833 0.0
C637 C 0.77101 0.86162 0.66313 0.0
H638 H 0.77162 0.85274 0.63149 0.0
H639 H 0.82168 0.88886 0.64807 0.0
C640 C 0.88605 0.86214 0.57568 0.0
N641 N 0.87406 0.86416 0.59313 0.0
C642 C 0.9085 0.86138 0.57682 0.0
C643 C 0.90597 0.86477 0.61393 0.0
C644 C 0.88352 0.86559 0.61204 0.0
C645 C 0.91877 0.86277 0.59613 0.0
H646 H 0.87819 0.86136 0.56079 0.0
H647 H 0.87363 0.86759 0.62564 0.0
C648 C 0.77095 0.86694 0.57663 0.0
N649 N 0.73446 0.85433 0.55668 0.0
C650 C 0.76346 0.87563 0.55878 0.0
C651 C 0.75987 0.85182 0.58431 0.0
C652 C 0.74497 0.86907 0.54895 0.0
C653 C 0.74148 0.84564 0.57399 0.0
C654 C 0.83263 0.86157 0.54249 0.0
C655 C 0.82209 0.87075 0.52648 0.0
C656 C 0.8428 0.84498 0.53847 0.0
C657 C 0.82177 0.86309 0.5067 0.0
C658 C 0.84208 0.83775 0.51849 0.0
N659 N 0.83167 0.84687 0.50316 0.0
C660 C 0.82881 0.91481 0.5517 0.0
C661 C 0.79337 0.91932 0.56436 0.0
C662 C 0.82803 0.93122 0.5409 0.0
N663 N 0.81159 0.90911 0.56296 0.0
C664 C 0.7918 0.9358 0.5536 0.0
C665 C 0.80925 0.94192 0.54152 0.0
H666 H 0.84324 0.90655 0.55116 0.0
H667 H 0.78003 0.91463 0.57372 0.0
C668 C 0.8016 0.81667 0.57005 0.0
N669 N 0.79924 0.83355 0.56177 0.0
C670 C 0.79348 0.8014 0.55977 0.0
C671 C 0.78041 0.82112 0.53267 0.0
C672 C 0.78885 0.83597 0.54342 0.0
C673 C 0.78268 0.80352 0.54081 0.0
H674 H 0.8097 0.81503 0.58473 0.0
H675 H 0.78704 0.84945 0.53707 0.0
O676 O 0.83145 0.88787 0.60416 0.0
O677 O 0.82442 0.84681 0.60323 0.0
O678 O 0.78909 0.87314 0.58642 0.0
O679 O 0.8331 0.86884 0.56196 0.0
H680 H 0.86657 0.90559 0.59269 0.0
H681 H 0.80292 0.91145 0.61843 0.0
H682 H 0.87103 0.93914 0.59447 0.0
H683 H 0.8085 0.94488 0.61979 0.0
H684 H 0.87976 0.80633 0.60329 0.0
H685 H 0.83253 0.84721 0.64346 0.0
H686 H 0.85126 0.82382 0.58512 0.0
H687 H 0.86129 0.82926 0.66063 0.0
H688 H 0.80798 0.89071 0.6838 0.0
H689 H 0.75699 0.85348 0.66683 0.0
H690 H 0.91774 0.8597 0.56273 0.0
H691 H 0.91324 0.86614 0.62908 0.0
H692 H 0.772 0.88714 0.55237 0.0
H693 H 0.7657 0.84463 0.59776 0.0
H694 H 0.73906 0.87563 0.53508 0.0
H695 H 0.73287 0.83386 0.57967 0.0
H696 H 0.81398 0.88352 0.52932 0.0
H697 H 0.851 0.83768 0.55068 0.0
H698 H 0.81358 0.86999 0.49419 0.0
H699 H 0.84976 0.82487 0.51519 0.0
H700 H 0.84211 0.93553 0.53229 0.0
H701 H 0.77695 0.9435 0.5545 0.0
H702 H 0.79537 0.7881 0.56674 0.0
H703 H 0.77241 0.82339 0.518 0.0
Li704 Li 0.81112 0.64693 0.07862 0.0
Li705 Li 0.84377 0.6337 0.09224 0.0
Li706 Li 0.81506 0.61415 0.07956 0.0
Li707 Li 0.81059 0.63101 0.11158 0.0
C708 C 0.82729 0.63044 0.04307 0.0
N709 N 0.81662 0.62761 1.00169 0.0
C710 C 0.84347 0.63003 0.02804 0.0
C711 C 0.80567 0.62943 0.03705 0.0
C712 C 0.83775 0.62859 0.0072 0.0
C713 C 0.80061 0.62799 0.01606 0.0
C714 C 0.83661 0.67007 0.10178 0.0
C715 C 0.84484 0.70048 0.11332 0.0
N716 N 0.85698 0.70312 0.09606 0.0
C717 C 0.84921 0.67308 0.08417 0.0
C718 C 0.83443 0.68386 0.1165 0.0
C719 C 0.85936 0.68988 0.08155 0.0
C720 C 0.77995 0.67393 0.06945 0.0
N721 N 0.79939 0.66714 0.06356 0.0
C722 C 0.8019 0.68905 0.03628 0.0
C723 C 0.81045 0.67444 0.04738 0.0
C724 C 0.7818 0.69634 0.04192 0.0
C725 C 0.77083 0.68862 0.05882 0.0
H726 H 0.77152 0.66791 0.08239 0.0
H727 H 0.82598 0.66895 0.04307 0.0
C728 C 0.88611 0.62756 0.07876 0.0
N729 N 0.87445 0.63566 0.09397 0.0
C730 C 0.90861 0.6283 0.07903 0.0
C731 C 0.90673 0.64557 0.11079 0.0
C732 C 0.88424 0.64465 0.10977 0.0
C733 C 0.91929 0.63731 0.09528 0.0
H734 H 0.87788 0.62051 0.06638 0.0
H735 H 0.87461 0.65104 0.12167 0.0
C736 C 0.77273 0.618 0.09441 0.0
N737 N 0.73875 0.59627 0.10683 0.0
C738 C 0.77666 0.60082 0.10288 0.0
C739 C 0.75152 0.62411 0.09224 0.0
C740 C 0.75927 0.59005 0.10907 0.0
C741 C 0.73456 0.61293 0.09861 0.0
C742 C 0.84387 0.60698 0.1224 0.0
C743 C 0.85152 0.58924 0.12476 0.0
C744 C 0.84862 0.62006 0.13742 0.0
C745 C 0.86385 0.58486 0.14215 0.0
C746 C 0.86099 0.61514 0.15459 0.0
N747 N 0.8683 0.59779 0.15658 0.0
C748 C 0.8278 0.58047 0.06421 0.0
C749 C 0.79157 0.58741 0.05572 0.0
C750 C 0.82649 0.56398 0.05358 0.0
N751 N 0.8105 0.59176 0.06512 0.0
C752 C 0.78949 0.57097 0.045 0.0
C753 C 0.80713 0.55897 0.04379 0.0
H754 H 0.84274 0.58441 0.07159 0.0
H755 H 0.77809 0.59671 0.05645 0.0
C756 C 0.79284 0.64676 0.1477 0.0
N757 N 0.7982 0.63064 0.1388 0.0
C758 C 0.7844 0.64723 0.16776 0.0
C759 C 0.78674 0.61444 0.16898 0.0
C760 C 0.79539 0.61463 0.14902 0.0
C761 C 0.78122 0.6309 0.17865 0.0
H762 H 0.79523 0.65929 0.13924 0.0
H763 H 0.80008 0.60199 0.14177 0.0
O764 O 0.83274 0.63181 0.06354 0.0
O765 O 0.82646 0.65375 0.10476 0.0
O766 O 0.78944 0.62889 0.0883 0.0
O767 O 0.8318 0.61141 0.10542 0.0
H768 H 0.86028 0.63085 0.03243 0.0
H769 H 0.79289 0.62979 0.04841 0.0
H770 H 0.85011 0.62827 0.99539 0.0
H771 H 0.78395 0.6272 0.0112 0.0
H772 H 0.84327 0.71128 0.12459 0.0
H773 H 0.85122 0.66258 0.07264 0.0
H774 H 0.82479 0.68175 0.13025 0.0
H775 H 0.86915 0.69238 0.06799 0.0
H776 H 0.81107 0.69473 0.02357 0.0
H777 H 0.75522 0.69372 0.06361 0.0
H778 H 0.91749 0.62201 0.06652 0.0
H779 H 0.91417 0.65246 0.12376 0.0
H780 H 0.79294 0.59582 0.10465 0.0
H781 H 0.74822 0.63738 0.0857 0.0
H782 H 0.76208 0.57673 0.11566 0.0
H783 H 0.71806 0.6175 0.09703 0.0
H784 H 0.84796 0.57896 0.11327 0.0
H785 H 0.84284 0.63386 0.13588 0.0
H786 H 0.86989 0.57117 0.14418 0.0
H787 H 0.8648 0.62513 0.16632 0.0
H788 H 0.84066 0.55541 0.05274 0.0
H789 H 0.77419 0.56765 0.03787 0.0
H790 H 0.7802 0.66019 0.17462 0.0
H791 H 0.78478 0.60159 0.17694 0.0
Li792 Li 0.68859 0.38705 0.57886 0.0
Li793 Li 0.69215 0.3707 0.61067 0.0
Li794 Li 0.69272 0.35405 0.5761 0.0
Li795 Li 0.65909 0.36822 0.59123 0.0
C796 C 0.73145 0.3804 0.57998 0.0
N797 N 0.76753 0.3976 0.56431 0.0
C798 C 0.738 0.39716 0.58803 0.0
C799 C 0.7433 0.37235 0.56403 0.0
C800 C 0.75627 0.40565 0.57986 0.0
C801 C 0.76149 0.38127 0.55631 0.0
C802 C 0.67186 0.39967 0.62228 0.0
C803 C 0.66173 0.40293 0.65812 0.0
N804 N 0.67434 0.41801 0.65952 0.0
C805 C 0.68468 0.41523 0.62405 0.0
C806 C 0.66022 0.39349 0.63942 0.0
C807 C 0.68571 0.42431 0.64301 0.0
C808 C 0.68015 0.42353 0.56857 0.0
N809 N 0.69364 0.40951 0.56404 0.0
C810 C 0.71028 0.42707 0.53721 0.0
C811 C 0.70839 0.41095 0.54853 0.0
C812 C 0.69658 0.44181 0.54159 0.0
C813 C 0.68136 0.43984 0.55756 0.0
H814 H 0.66799 0.42187 0.5804 0.0
H815 H 0.71834 0.39944 0.5445 0.0
C816 C 0.69855 0.35653 0.65115 0.0
N817 N 0.70422 0.37027 0.63816 0.0
C818 C 0.70645 0.35601 0.6714 0.0
C819 C 0.72615 0.38368 0.66455 0.0
C820 C 0.71796 0.3836 0.6444 0.0
C821 C 0.7204 0.36977 0.67842 0.0
H822 H 0.68789 0.34591 0.6458 0.0
H823 H 0.72235 0.39434 0.63386 0.0
C824 C 0.66502 0.37957 0.54596 0.0
N825 N 0.65446 0.40165 0.51289 0.0
C826 C 0.64679 0.39071 0.54691 0.0
C827 C 0.67784 0.37961 0.52817 0.0
C828 C 0.64173 0.40178 0.53003 0.0
C829 C 0.67223 0.39088 0.51162 0.0
C830 C 0.66202 0.3349 0.607 0.0
C831 C 0.65989 0.31957 0.59438 0.0
C832 C 0.64842 0.33704 0.62408 0.0
C833 C 0.64402 0.30669 0.59897 0.0
C834 C 0.63273 0.32388 0.62812 0.0
N835 N 0.63087 0.30911 0.61559 0.0
C836 C 0.71896 0.32306 0.56999 0.0
C837 C 0.69706 0.33087 0.54127 0.0
C838 C 0.72748 0.30821 0.55923 0.0
N839 N 0.7041 0.33404 0.56086 0.0
C840 C 0.70534 0.31631 0.52987 0.0
C841 C 0.72075 0.30475 0.53884 0.0
H842 H 0.72417 0.32588 0.58563 0.0
H843 H 0.68491 0.33957 0.53454 0.0
C844 C 0.61689 0.37916 0.6022 0.0
N845 N 0.62838 0.36597 0.59242 0.0
C846 C 0.5944 0.37833 0.6028 0.0
C847 C 0.59592 0.35034 0.58327 0.0
C848 C 0.61838 0.35185 0.58279 0.0
C849 C 0.58365 0.36375 0.5933 0.0
H850 H 0.62516 0.39049 0.60929 0.0
H851 H 0.62785 0.34184 0.57459 0.0
O852 O 0.71371 0.37178 0.58782 0.0
O853 O 0.67093 0.39038 0.60396 0.0
O854 O 0.67061 0.36909 0.56259 0.0
O855 O 0.67731 0.34775 0.60262 0.0
H856 H 0.72887 0.4037 0.60015 0.0
H857 H 0.73847 0.35938 0.55763 0.0
H858 H 0.76143 0.41869 0.58583 0.0
H859 H 0.77079 0.37521 0.54393 0.0
H860 H 0.65292 0.39824 0.67154 0.0
H861 H 0.69398 0.42011 0.61103 0.0
H862 H 0.65029 0.38145 0.63836 0.0
H863 H 0.69566 0.43631 0.64463 0.0
H864 H 0.72227 0.42791 0.52508 0.0
H865 H 0.67006 0.4506 0.56117 0.0
H866 H 0.70186 0.34482 0.68137 0.0
H867 H 0.73663 0.3947 0.66927 0.0
H868 H 0.63681 0.39099 0.56063 0.0
H869 H 0.69223 0.37132 0.52732 0.0
H870 H 0.62774 0.41055 0.53059 0.0
H871 H 0.6821 0.39116 0.49782 0.0
H872 H 0.67025 0.31767 0.5811 0.0
H873 H 0.64981 0.34884 0.63397 0.0
H874 H 0.64213 0.2948 0.58929 0.0
H875 H 0.622 0.32544 0.6412 0.0
H876 H 0.73942 0.29968 0.56666 0.0
H877 H 0.69951 0.31395 0.5143 0.0
H878 H 0.5855 0.38894 0.61069 0.0
H879 H 0.5882 0.33904 0.57548 0.0
Li880 Li 0.80972 0.36988 0.89134 0.0
Li881 Li 0.81436 0.38694 0.92439 0.0
Li882 Li 0.84224 0.36739 0.91157 0.0
Li883 Li 0.81009 0.35403 0.9248 0.0
C884 C 0.84792 0.39541 0.88718 0.0
N885 N 0.88439 0.40623 0.86591 0.0
C886 C 0.86122 0.409 0.89527 0.0
C887 C 0.85312 0.38737 0.86822 0.0
C888 C 0.87961 0.41426 0.8843 0.0
C889 C 0.87162 0.39303 0.85771 0.0
C890 C 0.7717 0.38274 0.90892 0.0
C891 C 0.73341 0.38816 0.90716 0.0
N892 N 0.73715 0.40372 0.89635 0.0
C893 C 0.77518 0.39877 0.89777 0.0
C894 C 0.75066 0.37736 0.91362 0.0
C895 C 0.7575 0.40919 0.89157 0.0
C896 C 0.78699 0.35496 0.85748 0.0
N897 N 0.79726 0.37014 0.86429 0.0
C898 C 0.79 0.38539 0.83235 0.0
C899 C 0.79881 0.38525 0.85225 0.0
C900 C 0.77938 0.36986 0.82476 0.0
C901 C 0.77787 0.35452 0.8377 0.0
H902 H 0.78589 0.34317 0.86745 0.0
H903 H 0.80704 0.39717 0.85804 0.0
C904 C 0.82819 0.41703 0.94669 0.0
N905 N 0.80984 0.40911 0.93956 0.0
C906 C 0.82729 0.43318 0.95801 0.0
C907 C 0.78849 0.4326 0.95503 0.0
C908 C 0.79015 0.41635 0.94387 0.0
C909 C 0.80725 0.44134 0.96216 0.0
H910 H 0.84358 0.41063 0.94376 0.0
H911 H 0.77566 0.40955 0.93881 0.0
C912 C 0.83521 0.33085 0.90126 0.0
N913 N 0.85458 0.29731 0.90633 0.0
C914 C 0.84803 0.32743 0.91862 0.0
C915 C 0.83225 0.31722 0.88648 0.0
C916 C 0.85768 0.31039 0.9209 0.0
C917 C 0.84218 0.30035 0.88932 0.0
C918 C 0.8255 0.37001 0.9606 0.0
C919 C 0.84112 0.36911 0.97614 0.0
C920 C 0.80378 0.37201 0.96599 0.0
C921 C 0.83477 0.37022 0.99684 0.0
C922 C 0.79809 0.37308 0.98686 0.0
N923 N 0.81357 0.37217 1.00173 0.0
C924 C 0.88472 0.37243 0.92556 0.0
C925 C 0.88253 0.35736 0.89323 0.0
C926 C 0.90721 0.37185 0.92493 0.0
N927 N 0.87292 0.36529 0.90984 0.0
C928 C 0.90501 0.3567 0.89182 0.0
C929 C 0.91773 0.36405 0.9078 0.0
H930 H 0.87662 0.37867 0.93856 0.0
H931 H 0.87273 0.35182 0.88091 0.0
C932 C 0.77876 0.32699 0.93351 0.0
N933 N 0.7982 0.33372 0.93951 0.0
C934 C 0.76969 0.31211 0.94382 0.0
C935 C 0.8008 0.31137 0.9663 0.0
C936 C 0.80931 0.32617 0.9555 0.0
C937 C 0.78072 0.30413 0.96053 0.0
H938 H 0.77031 0.33321 0.92069 0.0
H939 H 0.82485 0.33158 0.95987 0.0
O940 O 0.83014 0.38973 0.89792 0.0
O941 O 0.78869 0.37209 0.91487 0.0
O942 O 0.82548 0.34738 0.89865 0.0
O943 O 0.83162 0.36898 0.94028 0.0
H944 H 0.85745 0.4154 0.90987 0.0
H945 H 0.84322 0.37661 0.86189 0.0
H946 H 0.89009 0.42471 0.89042 0.0
H947 H 0.87591 0.38684 0.8431 0.0
H948 H 0.71703 0.38417 0.91071 0.0
H949 H 0.79134 0.40322 0.89409 0.0
H950 H 0.74771 0.36494 0.92218 0.0
H951 H 0.75996 0.42164 0.88297 0.0
H952 H 0.79184 0.39744 0.82289 0.0
H953 H 0.76957 0.34234 0.83267 0.0
H954 H 0.84216 0.43906 0.96368 0.0
H955 H 0.77268 0.43832 0.95783 0.0
H956 H 0.85052 0.3378 0.93024 0.0
H957 H 0.82236 0.31966 0.87296 0.0
H958 H 0.86762 0.30756 0.93427 0.0
H959 H 0.84003 0.28967 0.878 0.0
H960 H 0.85799 0.36754 0.97223 0.0
H961 H 0.79141 0.37273 0.95426 0.0
H962 H 0.8467 0.36953 0.00902 0.0
H963 H 0.78136 0.37463 0.99124 0.0
H964 H 0.91622 0.37738 0.93782 0.0
H965 H 0.91229 0.35079 0.87816 0.0
H966 H 0.7541 0.30705 0.93895 0.0
H967 H 0.81001 0.30549 0.97887 0.0
Li968 Li 0.69005 0.64768 0.42506 0.0
Li969 Li 0.65794 0.63631 0.41109 0.0
Li970 Li 0.68484 0.61483 0.42505 0.0
Li971 Li 0.6907 0.63306 0.39065 0.0
C972 C 0.66773 0.64007 0.45938 0.0
N973 N 0.66784 0.65421 0.49899 0.0
C974 C 0.65669 0.6562 0.46369 0.0
C975 C 0.67862 0.63102 0.47527 0.0
C976 C 0.65701 0.66317 0.48379 0.0
C977 C 0.67853 0.63841 0.49518 0.0
C978 C 0.66157 0.66762 0.39118 0.0
C979 C 0.64195 0.68009 0.36224 0.0
N980 N 0.63125 0.69138 0.37536 0.0
C981 C 0.65049 0.67946 0.40434 0.0
C982 C 0.65737 0.66799 0.36994 0.0
C983 C 0.63517 0.69132 0.39606 0.0
C984 C 0.70252 0.68427 0.43231 0.0
N985 N 0.70328 0.66724 0.44051 0.0
C986 C 0.72246 0.67839 0.47006 0.0
C987 C 0.7133 0.66408 0.45889 0.0
C988 C 0.72158 0.69616 0.46213 0.0
C989 C 0.71158 0.69897 0.44289 0.0
H990 H 0.69487 0.68646 0.4175 0.0
H991 H 0.71432 0.65042 0.46489 0.0
C992 C 0.61558 0.63699 0.42689 0.0
N993 N 0.62704 0.639 0.40911 0.0
C994 C 0.59308 0.63774 0.42663 0.0
C995 C 0.59443 0.64264 0.38971 0.0
C996 C 0.61691 0.6417 0.39068 0.0
C997 C 0.5822 0.64054 0.40784 0.0
H998 H 0.62387 0.63449 0.44131 0.0
H999 H 0.6262 0.64269 0.37661 0.0
C1000 C 0.72994 0.63485 0.42145 0.0
N1001 N 0.76865 0.64867 0.43548 0.0
C1002 C 0.7399 0.64914 0.41089 0.0
C1003 C 0.7397 0.62746 0.43902 0.0
C1004 C 0.75946 0.65599 0.41828 0.0
C1005 C 0.75928 0.63466 0.44589 0.0
C1006 C 0.65153 0.60627 0.38896 0.0
C1007 C 0.63714 0.59633 0.40116 0.0
C1008 C 0.6472 0.60886 0.36795 0.0
C1009 C 0.61844 0.5893 0.39215 0.0
C1010 C 0.62835 0.60156 0.35951 0.0
N1011 N 0.61447 0.59204 0.37169 0.0
C1012 C 0.67259 0.58675 0.45169 0.0
C1013 C 0.70631 0.58159 0.43549 0.0
C1014 C 0.67408 0.57026 0.46227 0.0
N1015 N 0.6886 0.59211 0.4387 0.0
C1016 C 0.70841 0.56488 0.44569 0.0
C1017 C 0.69213 0.55899 0.45931 0.0
H1018 H 0.65868 0.59541 0.45394 0.0
H1019 H 0.71874 0.58615 0.42495 0.0
C1020 C 0.70924 0.64831 0.35466 0.0
N1021 N 0.7036 0.63238 0.36387 0.0
C1022 C 0.71794 0.64836 0.33471 0.0
C1023 C 0.71569 0.61554 0.3344 0.0
C1024 C 0.70677 0.61615 0.35428 0.0
C1025 C 0.72119 0.63182 0.3243 0.0
H1026 H 0.70676 0.66102 0.36275 0.0
H1027 H 0.70217 0.60368 0.362 0.0
O1028 O 0.66763 0.63306 0.43977 0.0
O1029 O 0.67662 0.6559 0.39903 0.0
O1030 O 0.71059 0.62824 0.41472 0.0
O1031 O 0.66966 0.61361 0.39758 0.0
H1032 H 0.64793 0.66324 0.45166 0.0
H1033 H 0.68739 0.6186 0.47221 0.0
H1034 H 0.64862 0.67568 0.48732 0.0
H1035 H 0.68703 0.63163 0.50759 0.0
H1036 H 0.63842 0.68042 0.34586 0.0
H1037 H 0.6537 0.67949 0.42077 0.0
H1038 H 0.6656 0.65882 0.35953 0.0
H1039 H 0.62642 0.7005 0.40609 0.0
H1040 H 0.73037 0.67555 0.48464 0.0
H1041 H 0.71047 0.71245 0.43622 0.0
H1042 H 0.5843 0.63615 0.441 0.0
H1043 H 0.58668 0.6445 0.37484 0.0
H1044 H 0.73247 0.65502 0.39729 0.0
H1045 H 0.73211 0.61643 0.44738 0.0
H1046 H 0.76729 0.66714 0.41037 0.0
H1047 H 0.76699 0.62916 0.45954 0.0
H1048 H 0.64025 0.59428 0.41747 0.0
H1049 H 0.65815 0.61661 0.35833 0.0
H1050 H 0.60706 0.58171 0.40143 0.0
H1051 H 0.62471 0.60354 0.3433 0.0
H1052 H 0.6613 0.5665 0.47285 0.0
H1053 H 0.72249 0.55658 0.44271 0.0
H1054 H 0.72222 0.66118 0.32756 0.0
H1055 H 0.71784 0.60252 0.32685 0.0
Li1056 Li 0.18571 0.38764 0.92349 0.0
Li1057 Li 0.18912 0.35455 0.92443 0.0
Li1058 Li 0.19118 0.37179 0.89032 0.0
Li1059 Li 0.15655 0.36817 0.91012 0.0
C1060 C 0.23058 0.38059 0.9155 0.0
N1061 N 0.27076 0.39675 0.91705 0.0
C1062 C 0.24516 0.37583 0.93108 0.0
C1063 C 0.23649 0.39344 0.90062 0.0
C1064 C 0.26538 0.38419 0.93163 0.0
C1065 C 0.25686 0.40149 0.90169 0.0
C1066 C 0.16612 0.36343 0.95815 0.0
C1067 C 0.15397 0.34042 0.98204 0.0
N1068 N 0.16391 0.34942 0.99775 0.0
C1069 C 0.17611 0.37252 0.97454 0.0
C1070 C 0.15483 0.34731 0.96192 0.0
C1071 C 0.17484 0.36519 0.99445 0.0
C1072 C 0.17149 0.41786 0.94556 0.0
N1073 N 0.18998 0.40975 0.93906 0.0
C1074 C 0.21101 0.43285 0.95566 0.0
C1075 C 0.20957 0.41687 0.944 0.0
C1076 C 0.19213 0.44179 0.96218 0.0
C1077 C 0.17216 0.43404 0.95683 0.0
H1078 H 0.15611 0.41175 0.94189 0.0
H1079 H 0.22415 0.41015 0.93918 0.0
C1080 C 0.19953 0.3174 0.93076 0.0
N1081 N 0.20068 0.33425 0.93935 0.0
C1082 C 0.20773 0.3023 0.94129 0.0
C1083 C 0.21814 0.32213 0.96935 0.0
C1084 C 0.21005 0.33687 0.95813 0.0
C1085 C 0.21709 0.30448 0.96097 0.0
H1086 H 0.19239 0.3157 0.91563 0.0
H1087 H 0.21119 0.35042 0.96447 0.0
C1088 C 0.16336 0.40814 0.89628 0.0
N1089 N 0.15223 0.44452 0.89636 0.0
C1090 C 0.14205 0.41336 0.90008 0.0
C1091 C 0.17896 0.42141 0.89232 0.0
C1092 C 0.13676 0.43183 0.90009 0.0
C1093 C 0.17303 0.43974 0.8925 0.0
C1094 C 0.16108 0.33741 0.88799 0.0
C1095 C 0.15872 0.33785 0.86649 0.0
C1096 C 0.14869 0.32533 0.89971 0.0
C1097 C 0.1438 0.32627 0.85707 0.0
C1098 C 0.13392 0.314 0.88972 0.0
N1099 N 0.1318 0.3147 0.86878 0.0
C1100 C 0.21525 0.35755 0.8569 0.0
C1101 C 0.20079 0.38692 0.85096 0.0
C1102 C 0.22412 0.35721 0.837 0.0
N1103 N 0.20381 0.37224 0.86341 0.0
C1104 C 0.20956 0.38724 0.83104 0.0
C1105 C 0.22132 0.3722 0.82378 0.0
H1106 H 0.21732 0.34603 0.86713 0.0
H1107 H 0.19144 0.39834 0.85644 0.0
C1108 C 0.11426 0.3674 0.92565 0.0
N1109 N 0.12592 0.36587 0.90793 0.0
C1110 C 0.09179 0.36639 0.92513 0.0
C1111 C 0.09362 0.36222 0.88811 0.0
C1112 C 0.11608 0.36358 0.88931 0.0
C1113 C 0.0811 0.36366 0.90619 0.0
H1114 H 0.12239 0.36973 0.94019 0.0
H1115 H 0.12565 0.36291 0.87537 0.0
O1116 O 0.21077 0.37248 0.91472 0.0
O1117 O 0.16731 0.3703 0.93853 0.0
O1118 O 0.1689 0.39014 0.89656 0.0
O1119 O 0.17547 0.34873 0.8975 0.0
H1120 H 0.24087 0.36583 0.94265 0.0
H1121 H 0.22548 0.39719 0.8884 0.0
H1122 H 0.2768 0.38069 0.94363 0.0
H1123 H 0.26162 0.4115 0.89032 0.0
H1124 H 0.14539 0.3279 0.98517 0.0
H1125 H 0.18493 0.385 0.9719 0.0
H1126 H 0.14691 0.34018 0.94942 0.0
H1127 H 0.1826 0.37202 0.00727 0.0
H1128 H 0.22682 0.43795 0.95974 0.0
H1129 H 0.15709 0.44042 0.96112 0.0
H1130 H 0.20696 0.2891 0.93391 0.0
H1131 H 0.22493 0.32457 0.98452 0.0
H1132 H 0.12975 0.40329 0.90316 0.0
H1133 H 0.19552 0.41763 0.88942 0.0
H1134 H 0.12036 0.43607 0.90311 0.0
H1135 H 0.18497 0.45016 0.88963 0.0
H1136 H 0.16817 0.34714 0.8572 0.0
H1137 H 0.1504 0.32479 0.91635 0.0
H1138 H 0.14173 0.32651 0.84046 0.0
H1139 H 0.12414 0.30465 0.8986 0.0
H1140 H 0.23321 0.3454 0.83207 0.0
H1141 H 0.20682 0.39898 0.82127 0.0
H1142 H 0.08292 0.36809 0.93943 0.0
H1143 H 0.08621 0.36 0.87316 0.0
Li1144 Li 0.31011 0.64853 0.4269 0.0
Li1145 Li 0.31509 0.61624 0.42568 0.0
Li1146 Li 0.34369 0.63597 0.41335 0.0
Li1147 Li 0.30945 0.63128 0.39247 0.0
C1148 C 0.33521 0.64349 0.45957 0.0
N1149 N 0.34065 0.66337 0.49549 0.0
C1150 C 0.32639 0.63729 0.47819 0.0
C1151 C 0.34687 0.65975 0.45926 0.0
C1152 C 0.32931 0.64755 0.49618 0.0
C1153 C 0.34942 0.66962 0.47756 0.0
C1154 C 0.27204 0.61994 0.42251 0.0
C1155 C 0.24153 0.60088 0.41449 0.0
N1156 N 0.23737 0.5991 0.43505 0.0
C1157 C 0.2674 0.61802 0.44356 0.0
C1158 C 0.25899 0.61137 0.40783 0.0
C1159 C 0.24983 0.60738 0.44959 0.0
C1160 C 0.29754 0.68543 0.43194 0.0
N1161 N 0.29745 0.66883 0.44121 0.0
C1162 C 0.28005 0.68127 0.47107 0.0
C1163 C 0.28858 0.66649 0.46026 0.0
C1164 C 0.28006 0.69867 0.46203 0.0
C1165 C 0.28884 0.70056 0.44205 0.0
H1166 H 0.30429 0.68692 0.41661 0.0
H1167 H 0.28827 0.65316 0.46722 0.0
C1168 C 0.32381 0.59039 0.45666 0.0
N1169 N 0.31081 0.5935 0.4401 0.0
C1170 C 0.32229 0.57415 0.46775 0.0
C1171 C 0.29446 0.5642 0.4442 0.0
C1172 C 0.29651 0.58068 0.43357 0.0
C1173 C 0.3074 0.56079 0.46163 0.0
H1174 H 0.3357 0.6004 0.46105 0.0
H1175 H 0.28688 0.5831 0.41993 0.0
C1176 C 0.33778 0.66605 0.38945 0.0
N1177 N 0.36505 0.68887 0.36778 0.0
C1178 C 0.34073 0.66368 0.36818 0.0
C1179 C 0.34848 0.68017 0.39965 0.0
C1180 C 0.35464 0.67533 0.35752 0.0
C1181 C 0.36227 0.69152 0.38844 0.0
C1182 C 0.33753 0.59583 0.40015 0.0
C1183 C 0.35537 0.59002 0.41156 0.0
C1184 C 0.32458 0.58308 0.39002 0.0
C1185 C 0.35989 0.57144 0.41279 0.0
C1186 C 0.32966 0.56462 0.39162 0.0
N1187 N 0.34704 0.55923 0.40289 0.0
C1188 C 0.38632 0.63792 0.42873 0.0
C1189 C 0.38387 0.64014 0.39225 0.0
C1190 C 0.40876 0.63915 0.42781 0.0
N1191 N 0.37434 0.63867 0.41113 0.0
C1192 C 0.4063 0.64145 0.39061 0.0
C1193 C 0.41908 0.64098 0.40857 0.0
H1194 H 0.37851 0.63596 0.44349 0.0
H1195 H 0.37409 0.64003 0.37843 0.0
C1196 C 0.28014 0.64097 0.36085 0.0
N1197 N 0.29747 0.63037 0.36533 0.0
C1198 C 0.27148 0.6411 0.34087 0.0
C1199 C 0.2986 0.61931 0.33055 0.0
C1200 C 0.30678 0.61966 0.3507 0.0
C1201 C 0.28076 0.63019 0.32537 0.0
H1202 H 0.27313 0.64941 0.37279 0.0
H1203 H 0.32077 0.61158 0.35462 0.0
O1204 O 0.33235 0.63375 0.44172 0.0
O1205 O 0.28915 0.63028 0.41626 0.0
O1206 O 0.32428 0.65474 0.40017 0.0
O1207 O 0.33247 0.6139 0.39931 0.0
H1208 H 0.31705 0.62488 0.47872 0.0
H1209 H 0.35389 0.66469 0.44503 0.0
H1210 H 0.32247 0.64297 0.51066 0.0
H1211 H 0.35836 0.68225 0.4775 0.0
H1212 H 0.23133 0.59412 0.40331 0.0
H1213 H 0.2775 0.62438 0.45511 0.0
H1214 H 0.26238 0.61274 0.39147 0.0
H1215 H 0.24615 0.60565 0.46583 0.0
H1216 H 0.27379 0.67905 0.4865 0.0
H1217 H 0.28882 0.71355 0.43416 0.0
H1218 H 0.333 0.57192 0.48074 0.0
H1219 H 0.28281 0.55429 0.43889 0.0
H1220 H 0.33256 0.65287 0.36002 0.0
H1221 H 0.34612 0.68241 0.41602 0.0
H1222 H 0.35718 0.67357 0.34108 0.0
H1223 H 0.37071 0.70246 0.39615 0.0
H1224 H 0.36546 0.59974 0.41959 0.0
H1225 H 0.31057 0.58736 0.38132 0.0
H1226 H 0.37357 0.56672 0.42168 0.0
H1227 H 0.31971 0.55457 0.38399 0.0
H1228 H 0.41796 0.63823 0.44202 0.0
H1229 H 0.41355 0.64282 0.37545 0.0
H1230 H 0.25759 0.64955 0.33763 0.0
H1231 H 0.30645 0.6109 0.31904 0.0
Li1232 Li 0.15817 0.63529 0.09156 0.0
Li1233 Li 0.19281 0.63143 0.11204 0.0
Li1234 Li 0.19133 0.64827 0.07725 0.0
Li1235 Li 0.18708 0.61567 0.07915 0.0
C1236 C 0.16412 0.66653 0.11388 0.0
N1237 N 0.13711 0.69076 0.13373 0.0
C1238 C 0.16221 0.66617 0.13542 0.0
C1239 C 0.15249 0.67933 0.10245 0.0
C1240 C 0.14843 0.67852 0.14517 0.0
C1241 C 0.13885 0.69142 0.11277 0.0
C1242 C 0.16674 0.59518 0.10589 0.0
C1243 C 0.17929 0.56476 0.11278 0.0
N1244 N 0.16067 0.558 0.10476 0.0
C1245 C 0.14768 0.58797 0.0978 0.0
C1246 C 0.18266 0.58353 0.11352 0.0
C1247 C 0.14493 0.56911 0.09734 0.0
C1248 C 0.11582 0.63417 0.07622 0.0
N1249 N 0.12751 0.63768 0.09355 0.0
C1250 C 0.0952 0.643 0.11287 0.0
C1251 C 0.11768 0.64178 0.11176 0.0
C1252 C 0.08266 0.63956 0.09516 0.0
C1253 C 0.09334 0.63503 0.07667 0.0
H1254 H 0.12395 0.63036 0.06208 0.0
H1255 H 0.12723 0.64394 0.12551 0.0
C1256 C 0.22162 0.6422 0.14385 0.0
N1257 N 0.20497 0.63092 0.13911 0.0
C1258 C 0.23029 0.64233 0.16383 0.0
C1259 C 0.20456 0.61919 0.17362 0.0
C1260 C 0.19636 0.61955 0.15348 0.0
C1261 C 0.22172 0.63074 0.17909 0.0
H1262 H 0.22803 0.65121 0.13213 0.0
H1263 H 0.18302 0.61082 0.14933 0.0
C1264 C 0.16636 0.64043 0.04424 0.0
N1265 N 0.16052 0.65594 0.00573 0.0
C1266 C 0.17561 0.63245 0.02674 0.0
C1267 C 0.15398 0.6562 0.04214 0.0
C1268 C 0.1725 0.64052 0.0074 0.0
C1269 C 0.15127 0.66386 0.02254 0.0
C1270 C 0.23098 0.62149 0.08194 0.0
C1271 C 0.23644 0.62047 0.061 0.0
C1272 C 0.24444 0.61358 0.09676 0.0
C1273 C 0.25529 0.61141 0.05519 0.0
C1274 C 0.26317 0.60467 0.09033 0.0
N1275 N 0.26815 0.60377 0.06986 0.0
C1276 C 0.20368 0.68511 0.07179 0.0
C1277 C 0.21116 0.66636 0.04292 0.0
C1278 C 0.21215 0.70026 0.06152 0.0
N1279 N 0.20322 0.66858 0.06236 0.0
C1280 C 0.21954 0.68114 0.03199 0.0
C1281 C 0.2202 0.69844 0.04126 0.0
H1282 H 0.1976 0.68652 0.08738 0.0
H1283 H 0.21098 0.65311 0.03578 0.0
C1284 C 0.17448 0.58821 0.05198 0.0
N1285 N 0.19105 0.59295 0.06464 0.0
C1286 C 0.17498 0.57187 0.04102 0.0
C1287 C 0.20969 0.56541 0.05621 0.0
C1288 C 0.20828 0.58173 0.06723 0.0
C1289 C 0.19288 0.56022 0.04281 0.0
H1290 H 0.16063 0.59707 0.05064 0.0
H1291 H 0.22089 0.58526 0.07798 0.0
O1292 O 0.17747 0.65452 0.10407 0.0
O1293 O 0.17003 0.61355 0.10584 0.0
O1294 O 0.16931 0.63278 0.06332 0.0
O1295 O 0.21268 0.63036 0.08799 0.0
H1296 H 0.17116 0.65639 0.14451 0.0
H1297 H 0.15398 0.67992 0.08579 0.0
H1298 H 0.1467 0.67834 0.16182 0.0
H1299 H 0.12967 0.70135 0.10411 0.0
H1300 H 0.19154 0.55556 0.11848 0.0
H1301 H 0.13526 0.59683 0.09174 0.0
H1302 H 0.1976 0.58894 0.11963 0.0
H1303 H 0.13032 0.56331 0.09102 0.0
H1304 H 0.08778 0.64662 0.12746 0.0
H1305 H 0.08444 0.63177 0.06274 0.0
H1306 H 0.24329 0.65165 0.16737 0.0
H1307 H 0.19761 0.60986 0.18473 0.0
H1308 H 0.18535 0.6203 0.0281 0.0
H1309 H 0.14656 0.66244 0.05551 0.0
H1310 H 0.17968 0.63457 0.99374 0.0
H1311 H 0.14179 0.67611 0.0207 0.0
H1312 H 0.22606 0.62633 0.04934 0.0
H1313 H 0.24041 0.61426 0.11304 0.0
H1314 H 0.25966 0.61041 0.03903 0.0
H1315 H 0.27373 0.59844 0.10161 0.0
H1316 H 0.21267 0.71318 0.06951 0.0
H1317 H 0.22525 0.67903 0.01635 0.0
H1318 H 0.16126 0.56833 0.03149 0.0
H1319 H 0.2239 0.55705 0.05813 0.0
Li1320 Li 0.31172 0.37093 0.61111 0.0
Li1321 Li 0.34508 0.36632 0.59071 0.0
Li1322 Li 0.31563 0.38746 0.57796 0.0
Li1323 Li 0.31116 0.3541 0.57674 0.0
C1324 C 0.33706 0.40184 0.61826 0.0
N1325 N 0.34329 0.4275 0.64888 0.0
C1326 C 0.35577 0.40147 0.6303 0.0
C1327 C 0.32168 0.4154 0.62158 0.0
C1328 C 0.35858 0.41453 0.64577 0.0
C1329 C 0.32508 0.42822 0.63719 0.0
C1330 C 0.33848 0.33411 0.61125 0.0
C1331 C 0.36155 0.30803 0.60666 0.0
N1332 N 0.36438 0.30709 0.6275 0.0
C1333 C 0.34143 0.33278 0.63263 0.0
C1334 C 0.34844 0.32154 0.59816 0.0
C1335 C 0.35465 0.31906 0.64055 0.0
C1336 C 0.27872 0.36793 0.64132 0.0
N1337 N 0.29998 0.37172 0.63856 0.0
C1338 C 0.30465 0.37584 0.67502 0.0
C1339 C 0.31299 0.37547 0.65495 0.0
C1340 C 0.28272 0.37199 0.67842 0.0
C1341 C 0.26972 0.36797 0.66117 0.0
H1342 H 0.26877 0.36465 0.62809 0.0
H1343 H 0.32995 0.37795 0.65251 0.0
C1344 C 0.38721 0.36811 0.57491 0.0
N1345 N 0.37571 0.36346 0.59201 0.0
C1346 C 0.40969 0.36704 0.57497 0.0
C1347 C 0.4082 0.35638 0.61029 0.0
C1348 C 0.38574 0.35783 0.60959 0.0
C1349 C 0.42055 0.36109 0.59283 0.0
H1350 H 0.37892 0.37299 0.56128 0.0
H1351 H 0.37636 0.35473 0.62321 0.0
C1352 C 0.27192 0.38184 0.58409 0.0
N1353 N 0.23411 0.40055 0.57659 0.0
C1354 C 0.25885 0.37702 0.56736 0.0
C1355 C 0.2656 0.39598 0.5972 0.0
C1356 C 0.23984 0.3867 0.56377 0.0
C1357 C 0.24647 0.40533 0.59309 0.0
C1358 C 0.33644 0.36256 0.54305 0.0
C1359 C 0.3277 0.37133 0.52579 0.0
C1360 C 0.34878 0.34685 0.54036 0.0
C1361 C 0.33111 0.364 0.50612 0.0
C1362 C 0.35182 0.33993 0.52045 0.0
N1363 N 0.34298 0.34857 0.50388 0.0
C1364 C 0.32526 0.42364 0.56767 0.0
C1365 C 0.29539 0.41197 0.54912 0.0
C1366 C 0.32394 0.4401 0.55698 0.0
N1367 N 0.31108 0.40999 0.56365 0.0
C1368 C 0.29345 0.42824 0.53805 0.0
C1369 C 0.30797 0.44255 0.54181 0.0
H1370 H 0.3379 0.42164 0.57895 0.0
H1371 H 0.28476 0.40076 0.54564 0.0
C1372 C 0.29698 0.31781 0.57139 0.0
N1373 N 0.2986 0.33421 0.5618 0.0
C1374 C 0.28835 0.30284 0.56094 0.0
C1375 C 0.28297 0.32191 0.53097 0.0
C1376 C 0.2915 0.33655 0.54207 0.0
C1377 C 0.28134 0.3047 0.54034 0.0
H1378 H 0.30232 0.31636 0.58722 0.0
H1379 H 0.29245 0.34979 0.53491 0.0
O1380 O 0.33403 0.38913 0.60309 0.0
O1381 O 0.32567 0.34751 0.60323 0.0
O1382 O 0.29059 0.37252 0.58783 0.0
O1383 O 0.33314 0.36948 0.56243 0.0
H1384 H 0.36791 0.39114 0.62782 0.0
H1385 H 0.30735 0.41611 0.6121 0.0
H1386 H 0.37292 0.41434 0.6553 0.0
H1387 H 0.31327 0.43876 0.63997 0.0
H1388 H 0.36944 0.29826 0.59669 0.0
H1389 H 0.3337 0.34229 0.643 0.0
H1390 H 0.34601 0.32217 0.58162 0.0
H1391 H 0.35719 0.31793 0.65706 0.0
H1392 H 0.31532 0.37918 0.68772 0.0
H1393 H 0.25284 0.36456 0.66297 0.0
H1394 H 0.41845 0.37124 0.56129 0.0
H1395 H 0.41577 0.35163 0.62438 0.0
H1396 H 0.26342 0.36601 0.55717 0.0
H1397 H 0.27527 0.3996 0.61048 0.0
H1398 H 0.22964 0.38321 0.55079 0.0
H1399 H 0.24142 0.41634 0.60307 0.0
H1400 H 0.31824 0.38358 0.52758 0.0
H1401 H 0.356 0.3401 0.5535 0.0
H1402 H 0.32432 0.37057 0.49264 0.0
H1403 H 0.36125 0.32773 0.51815 0.0
H1404 H 0.33537 0.45079 0.56052 0.0
H1405 H 0.28113 0.4294 0.52625 0.0
H1406 H 0.28699 0.29 0.56903 0.0
H1407 H 0.27798 0.32406 0.5151 0.0
C1408 C 0.27582 0.21661 0.00836 0.0
C1409 C 0.2683 0.21237 0.0283 0.0
C1410 C 0.2673 0.23131 0.99715 0.0
C1411 C 0.25114 0.24234 0.00619 0.0
C1412 C 0.24353 0.23824 0.0263 0.0
C1413 C 0.25203 0.22323 0.03701 0.0
C1414 C 0.27567 0.23509 0.97563 0.0
C1415 C 0.22649 0.24979 0.03659 0.0
C1416 C 0.24431 0.29027 0.985 0.0
C1417 C 0.2258 0.28852 0.97261 0.0
C1418 C 0.25255 0.27543 0.99618 0.0
C1419 C 0.24235 0.25826 0.99466 0.0
C1420 C 0.22382 0.25631 0.98207 0.0
C1421 C 0.21566 0.27146 0.97138 0.0
C1422 C 0.2722 0.27814 0.00963 0.0
C1423 C 0.21263 0.23817 0.97983 0.0
H1424 H 0.28864 0.2086 1.00155 0.0
H1425 H 0.24576 0.21997 0.05221 0.0
H1426 H 0.2621 0.23523 0.96443 0.0
H1427 H 0.28332 0.24871 0.97512 0.0
H1428 H 0.28767 0.22482 0.9705 0.0
H1429 H 0.22255 0.24498 0.05243 0.0
H1430 H 0.23207 0.26411 0.03754 0.0
H1431 H 0.21152 0.24972 0.02719 0.0
H1432 H 0.25258 0.30322 0.98583 0.0
H1433 H 0.20116 0.26993 0.96221 0.0
H1434 H 0.28555 0.26935 0.00412 0.0
H1435 H 0.26854 0.27405 0.02578 0.0
H1436 H 0.27784 0.29248 0.00966 0.0
H1437 H 0.22418 0.22784 0.97404 0.0
H1438 H 0.1987 0.23881 0.96905 0.0
H1439 H 0.2068 0.23344 0.99514 0.0
C1440 C 0.25309 0.71266 0.48648 0.0
C1441 C 0.27102 0.71467 0.47337 0.0
C1442 C 0.24479 0.72744 0.49769 0.0
C1443 C 0.25429 0.74484 0.49546 0.0
C1444 C 0.27212 0.74709 0.48203 0.0
C1445 C 0.28039 0.73198 0.47133 0.0
C1446 C 0.22589 0.72442 0.51202 0.0
C1447 C 0.28254 0.76546 0.47902 0.0
C1448 C 0.2202 0.78576 0.51063 0.0
C1449 C 0.22866 0.79015 0.53011 0.0
C1450 C 0.22859 0.77122 0.49905 0.0
C1451 C 0.24563 0.76063 0.5073 0.0
C1452 C 0.25419 0.765 0.52701 0.0
C1453 C 0.24572 0.7798 0.5381 0.0
C1454 C 0.21927 0.76721 0.47796 0.0
C1455 C 0.2721 0.75388 0.5365 0.0
H1456 H 0.24537 0.6995 0.48792 0.0
H1457 H 0.29443 0.73374 0.46156 0.0
H1458 H 0.23023 0.72864 0.52797 0.0
H1459 H 0.21205 0.73294 0.5071 0.0
H1460 H 0.22064 0.70998 0.51238 0.0
H1461 H 0.29575 0.76509 0.46742 0.0
H1462 H 0.2703 0.77551 0.47391 0.0
H1463 H 0.28921 0.77039 0.49393 0.0
H1464 H 0.20716 0.79386 0.50432 0.0
H1465 H 0.25216 0.78306 0.55324 0.0
H1466 H 0.21235 0.7533 0.47772 0.0
H1467 H 0.2322 0.76764 0.4661 0.0
H1468 H 0.20646 0.77702 0.47353 0.0
H1469 H 0.26687 0.73952 0.53813 0.0
H1470 H 0.27696 0.75905 0.55197 0.0
H1471 H 0.28642 0.75397 0.52623 0.0
C1472 C 0.25628 0.77976 0.96598 0.0
C1473 C 0.27336 0.78987 0.97434 0.0
C1474 C 0.24737 0.76498 0.9768 0.0
C1475 C 0.25554 0.76036 0.99658 0.0
C1476 C 0.27258 0.77069 0.00522 0.0
C1477 C 0.28138 0.78524 0.99393 0.0
C1478 C 0.22943 0.75415 0.96692 0.0
C1479 C 0.28152 0.76638 0.02638 0.0
C1480 C 0.22016 0.73175 0.03208 0.0
C1481 C 0.22932 0.71438 0.02991 0.0
C1482 C 0.22861 0.74684 0.02147 0.0
C1483 C 0.24648 0.74452 0.00811 0.0
C1484 C 0.25576 0.72706 0.00575 0.0
C1485 C 0.2472 0.71227 0.01678 0.0
C1486 C 0.21837 0.76527 0.02454 0.0
C1487 C 0.27475 0.72399 0.99155 0.0
H1488 H 0.25018 0.7832 0.95076 0.0
H1489 H 0.29442 0.79315 1.00054 0.0
H1490 H 0.2345 0.73977 0.9651 0.0
H1491 H 0.21499 0.75423 0.97705 0.0
H1492 H 0.22482 0.75957 0.9515 0.0
H1493 H 0.29441 0.77601 0.03111 0.0
H1494 H 0.26842 0.76683 0.03806 0.0
H1495 H 0.28823 0.75239 0.02654 0.0
H1496 H 0.20616 0.73355 0.0419 0.0
H1497 H 0.2547 0.69904 0.01523 0.0
H1498 H 0.2121 0.77044 0.00958 0.0
H1499 H 0.23062 0.77514 0.03006 0.0
H1500 H 0.2049 0.76489 0.03586 0.0
H1501 H 0.27065 0.72841 0.97562 0.0
H1502 H 0.27979 0.7095 0.99106 0.0
H1503 H 0.28866 0.73231 0.99672 0.0
C1504 C 0.2552 0.29109 0.51484 0.0
C1505 C 0.27239 0.28883 0.52875 0.0
C1506 C 0.24679 0.2763 0.50368 0.0
C1507 C 0.25554 0.25872 0.50668 0.0
C1508 C 0.27276 0.25627 0.52079 0.0
C1509 C 0.28106 0.27134 0.53152 0.0
C1510 C 0.22853 0.2795 0.48867 0.0
C1511 C 0.28244 0.23772 0.52454 0.0
C1512 C 0.22075 0.21808 0.492 0.0
C1513 C 0.22969 0.21295 0.47295 0.0
C1514 C 0.22912 0.23284 0.50322 0.0
C1515 C 0.24667 0.24287 0.49506 0.0
C1516 C 0.25569 0.23779 0.47577 0.0
C1517 C 0.2472 0.22281 0.46502 0.0
C1518 C 0.21926 0.23764 0.52387 0.0
C1519 C 0.2742 0.24829 0.4664 0.0
H1520 H 0.2481 0.30443 0.5128 0.0
H1521 H 0.29456 0.26942 0.54193 0.0
H1522 H 0.23323 0.27481 0.47299 0.0
H1523 H 0.21421 0.27148 0.49341 0.0
H1524 H 0.22386 0.29407 0.48775 0.0
H1525 H 0.29542 0.23803 0.53637 0.0
H1526 H 0.26973 0.22812 0.52973 0.0
H1527 H 0.28922 0.23227 0.50992 0.0
H1528 H 0.20736 0.21037 0.49827 0.0
H1529 H 0.25401 0.21899 0.4502 0.0
H1530 H 0.21295 0.25175 0.52348 0.0
H1531 H 0.23176 0.2371 0.53614 0.0
H1532 H 0.20589 0.22832 0.52819 0.0
H1533 H 0.26949 0.26273 0.46424 0.0
H1534 H 0.27929 0.24267 0.45122 0.0
H1535 H 0.28823 0.24811 0.47703 0.0
C1536 C 0.76278 0.72649 0.04074 0.0
C1537 C 0.77244 0.71192 0.03025 0.0
C1538 C 0.75435 0.74146 0.0299 0.0
C1539 C 0.7555 0.74184 0.00801 0.0
C1540 C 0.76503 0.72708 0.99732 0.0
C1541 C 0.77341 0.71233 0.00856 0.0
C1542 C 0.74444 0.75698 0.04188 0.0
C1543 C 0.76642 0.72688 0.974 0.0
C1544 C 0.71754 0.77326 0.97858 0.0
C1545 C 0.73104 0.78803 0.97389 0.0
C1546 C 0.72527 0.75815 0.98964 0.0
C1547 C 0.74702 0.75779 0.9963 0.0
C1548 C 0.76072 0.77265 0.99166 0.0
C1549 C 0.7526 0.78754 0.98049 0.0
C1550 C 0.71014 0.74258 0.99425 0.0
C1551 C 0.78401 0.7728 0.99847 0.0
H1552 H 0.76218 0.72637 0.0575 0.0
H1553 H 0.78059 0.70101 1.00032 0.0
H1554 H 0.75347 0.76971 0.03874 0.0
H1555 H 0.72758 0.75922 0.03676 0.0
H1556 H 0.74447 0.75448 0.05883 0.0
H1557 H 0.77404 0.71427 0.96801 0.0
H1558 H 0.75005 0.72811 0.96722 0.0
H1559 H 0.77593 0.73873 0.96854 0.0
H1560 H 0.70078 0.77361 0.97384 0.0
H1561 H 0.76326 0.79873 0.9767 0.0
H1562 H 0.70878 0.74063 0.01122 0.0
H1563 H 0.71668 0.72978 0.98768 0.0
H1564 H 0.69375 0.74486 0.98783 0.0
H1565 H 0.785 0.77133 0.01553 0.0
H1566 H 0.79247 0.7855 0.99391 0.0
H1567 H 0.79266 0.76106 0.99158 0.0
C1568 C 0.78671 0.22506 0.48307 0.0
C1569 C 0.77348 0.21423 0.4705 0.0
C1570 C 0.77827 0.23994 0.49402 0.0
C1571 C 0.75599 0.24396 0.4926 0.0
C1572 C 0.74254 0.23305 0.47996 0.0
C1573 C 0.75147 0.21839 0.46895 0.0
C1574 C 0.79322 0.25139 0.50707 0.0
C1575 C 0.71866 0.23674 0.47825 0.0
C1576 C 0.73115 0.27189 0.53607 0.0
C1577 C 0.72971 0.28917 0.527 0.0
C1578 C 0.73944 0.25702 0.52498 0.0
C1579 C 0.74677 0.25954 0.50442 0.0
C1580 C 0.74546 0.27699 0.49522 0.0
C1581 C 0.73682 0.29156 0.50657 0.0
C1582 C 0.74029 0.23858 0.53524 0.0
C1583 C 0.75338 0.28031 0.47346 0.0
H1584 H 0.80377 0.222 0.48413 0.0
H1585 H 0.74115 0.20994 0.45942 0.0
H1586 H 0.79253 0.26577 0.50194 0.0
H1587 H 0.78797 0.25103 0.52348 0.0
H1588 H 0.81021 0.24667 0.50621 0.0
H1589 H 0.7104 0.22694 0.46785 0.0
H1590 H 0.71109 0.23598 0.49378 0.0
H1591 H 0.71592 0.25069 0.47228 0.0
H1592 H 0.72545 0.26994 0.55177 0.0
H1593 H 0.73594 0.30494 0.49958 0.0
H1594 H 0.7572 0.23374 0.53601 0.0
H1595 H 0.7311 0.22855 0.52593 0.0
H1596 H 0.73356 0.23882 0.55117 0.0
H1597 H 0.77071 0.2767 0.47229 0.0
H1598 H 0.75133 0.29469 0.46859 0.0
H1599 H 0.74452 0.27147 0.46245 0.0
C1600 C 0.76177 0.27392 0.96116 0.0
C1601 C 0.77141 0.28837 0.97191 0.0
C1602 C 0.75324 0.25884 0.97175 0.0
C1603 C 0.75425 0.25824 0.99364 0.0
C1604 C 0.76384 0.27284 0.00458 0.0
C1605 C 0.77233 0.28768 0.99359 0.0
C1606 C 0.74329 0.2435 0.95952 0.0
C1607 C 0.76507 0.27281 0.02791 0.0
C1608 C 0.71528 0.22767 0.02295 0.0
C1609 C 0.72841 0.21279 0.0281 0.0
C1610 C 0.72343 0.24247 0.01164 0.0
C1611 C 0.74523 0.24239 0.00515 0.0
C1612 C 0.75851 0.22732 0.01002 0.0
C1613 C 0.74997 0.21274 0.02147 0.0
C1614 C 0.70873 0.25827 0.00676 0.0
C1615 C 0.78183 0.22669 0.00336 0.0
H1616 H 0.76123 0.27425 0.9444 0.0
H1617 H 0.77949 0.29891 0.00202 0.0
H1618 H 0.75197 0.23062 0.96279 0.0
H1619 H 0.72627 0.24151 0.9643 0.0
H1620 H 0.74372 0.24605 0.94259 0.0
H1621 H 0.77302 0.28521 0.03409 0.0
H1622 H 0.74861 0.27188 0.03456 0.0
H1623 H 0.77416 0.26072 0.03331 0.0
H1624 H 0.69851 0.22772 0.02767 0.0
H1625 H 0.76034 0.20144 0.02556 0.0
H1626 H 0.70785 0.26035 0.98979 0.0
H1627 H 0.71534 0.27093 0.0136 0.0
H1628 H 0.69213 0.25618 0.01278 0.0
H1629 H 0.78302 0.22837 0.98634 0.0
H1630 H 0.78981 0.21373 0.00777 0.0
H1631 H 0.79081 0.23812 0.01053 0.0
C1632 C 0.7858 0.77141 0.52787 0.0
C1633 C 0.77379 0.78751 0.52958 0.0
C1634 C 0.7777 0.7563 0.51707 0.0
C1635 C 0.75703 0.75727 0.5078 0.0
C1636 C 0.74477 0.77343 0.50959 0.0
C1637 C 0.7533 0.78835 0.52041 0.0
C1638 C 0.79131 0.73934 0.51542 0.0
C1639 C 0.72262 0.77498 0.50006 0.0
C1640 C 0.7432 0.725 0.46372 0.0
C1641 C 0.73096 0.71167 0.47388 0.0
C1642 C 0.75194 0.73981 0.4746 0.0
C1643 C 0.74825 0.74141 0.49615 0.0
C1644 C 0.73597 0.72796 0.5065 0.0
C1645 C 0.72753 0.71324 0.49526 0.0
C1646 C 0.76508 0.75378 0.46301 0.0
C1647 C 0.73155 0.72923 0.52943 0.0
H1648 H 0.80174 0.77072 0.5347 0.0
H1649 H 0.7438 0.80065 0.52191 0.0
H1650 H 0.7825 0.72757 0.52203 0.0
H1651 H 0.79452 0.73621 0.49891 0.0
H1652 H 0.80698 0.74073 0.52359 0.0
H1653 H 0.71509 0.78844 0.50297 0.0
H1654 H 0.72363 0.77282 0.4831 0.0
H1655 H 0.71191 0.76425 0.50639 0.0
H1656 H 0.74615 0.72375 0.44725 0.0
H1657 H 0.71787 0.7031 0.50317 0.0
H1658 H 0.78143 0.75482 0.46989 0.0
H1659 H 0.75743 0.76736 0.46443 0.0
H1660 H 0.76673 0.75043 0.44633 0.0
H1661 H 0.74697 0.72972 0.53811 0.0
H1662 H 0.7219 0.71756 0.53521 0.0
H1663 H 0.72271 0.74199 0.53289 0.0
C1664 C 0.28691 0.03724 0.02176 0.0
C1665 C 0.30571 0.04183 0.03268 0.0
C1666 C 0.28553 0.02093 0.01047 0.0
C1667 C 0.30339 0.00895 0.00999 0.0
C1668 C 0.32231 0.0134 0.02116 0.0
C1669 C 0.3232 0.02971 0.0324 0.0
C1670 C 0.26505 0.01663 0.99883 0.0
C1671 C 0.34172 1.001 0.02108 0.0
C1672 C 0.2965 0.95916 0.99541 0.0
C1673 C 0.30379 0.95901 0.97486 0.0
C1674 C 0.29573 0.97539 0.00686 0.0
C1675 C 0.30254 0.99186 0.99759 0.0
C1676 C 0.30949 0.99186 0.97671 0.0
C1677 C 0.30997 0.97546 0.96559 0.0
C1678 C 0.28802 0.97484 0.02901 0.0
C1679 C 0.31702 0.00911 0.9663 0.0
H1680 H 0.2734 0.04657 0.02166 0.0
H1681 H 0.33765 0.03294 0.04109 0.0
H1682 H 0.26848 0.01579 0.98201 0.0
H1683 H 0.25872 0.00318 0.0037 0.0
H1684 H 0.25233 0.02703 1.00137 0.0
H1685 H 0.35517 0.00639 0.03062 0.0
H1686 H 0.33719 0.98738 0.02706 0.0
H1687 H 0.34758 0.99912 0.005 0.0
H1688 H 0.29144 0.94653 0.00258 0.0
H1689 H 0.31586 0.97542 0.9498 0.0
H1690 H 0.27475 0.98475 0.03131 0.0
H1691 H 0.30134 0.97884 0.03952 0.0
H1692 H 0.28222 0.96112 0.0336 0.0
H1693 H 0.30441 0.01976 0.96744 0.0
H1694 H 0.32098 0.00698 0.94971 0.0
H1695 H 0.33158 0.01437 0.97429 0.0
C1696 C 0.17777 0.96808 0.52435 0.0
C1697 C 0.19659 0.95927 0.53099 0.0
C1698 C 0.17875 0.98454 0.51339 0.0
C1699 C 0.19907 0.99235 0.50878 0.0
C1700 C 0.21815 0.98351 0.5154 0.0
C1701 C 0.21668 0.96712 0.52653 0.0
C1702 C 0.15801 0.99363 0.50683 0.0
C1703 C 0.24011 0.9913 0.51061 0.0
C1704 C 0.20008 0.02622 0.46429 0.0
C1705 C 0.19951 0.04294 0.47477 0.0
C1706 C 0.20054 0.00967 0.47516 0.0
C1707 C 0.20023 0.00979 0.49707 0.0
C1708 C 0.20007 0.02659 0.50776 0.0
C1709 C 0.19983 0.04293 0.4965 0.0
C1710 C 0.20084 0.99205 0.46318 0.0
C1711 C 0.19967 0.02731 0.5311 0.0
H1712 H 0.16219 0.96221 0.528 0.0
H1713 H 0.23128 0.96028 0.53147 0.0
H1714 H 0.15709 0.00749 0.51356 0.0
H1715 H 0.15764 0.99515 0.48975 0.0
H1716 H 0.14353 0.98585 0.51173 0.0
H1717 H 0.25338 0.98274 0.5168 0.0
H1718 H 0.24217 0.9926 0.49362 0.0
H1719 H 0.24156 0.00514 0.51727 0.0
H1720 H 0.19955 0.02601 0.44754 0.0
H1721 H 0.19979 0.05575 0.50477 0.0
H1722 H 0.18571 0.98441 0.46609 0.0
H1723 H 0.21438 0.98336 0.46848 0.0
H1724 H 0.20246 0.99428 0.44625 0.0
H1725 H 0.18478 0.02068 0.53693 0.0
H1726 H 0.20021 0.04146 0.53709 0.0
H1727 H 0.21355 0.01967 0.53754 0.0
C1728 C 0.70296 0.97671 0.96245 0.0
C1729 C 0.69796 0.96047 0.97285 0.0
C1730 C 0.70339 0.99345 0.97295 0.0
C1731 C 0.69838 0.99406 0.99432 0.0
C1732 C 0.69353 0.97774 0.00495 0.0
C1733 C 0.69355 0.96117 0.99415 0.0
C1734 C 0.70887 0.01053 0.9611 0.0
C1735 C 0.68794 0.9778 0.0277 0.0
C1736 C 0.71434 0.03496 0.0271 0.0
C1737 C 0.69497 0.04484 0.02791 0.0
C1738 C 0.71583 0.01862 0.01588 0.0
C1739 C 0.69745 0.01182 0.00544 0.0
C1740 C 0.67793 0.02178 0.00603 0.0
C1741 C 0.67698 0.03819 0.01708 0.0
C1742 C 0.737 0.0085 0.01543 0.0
C1743 C 0.65791 0.01495 0.99521 0.0
H1744 H 0.70611 0.97644 0.94597 0.0
H1745 H 0.69009 0.94871 0.00247 0.0
H1746 H 0.69475 0.01979 0.96092 0.0
H1747 H 0.72225 0.01787 0.96885 0.0
H1748 H 0.71364 0.00764 0.94486 0.0
H1749 H 0.68479 0.96392 0.03376 0.0
H1750 H 0.70128 0.98394 0.03674 0.0
H1751 H 0.67339 0.98628 0.03034 0.0
H1752 H 0.72828 0.03979 0.03557 0.0
H1753 H 0.66207 0.04586 0.01716 0.0
H1754 H 0.742 0.006 0.99919 0.0
H1755 H 0.73511 0.99504 0.02296 0.0
H1756 H 0.75007 0.01606 0.02345 0.0
H1757 H 0.66113 0.01321 0.97845 0.0
H1758 H 0.64401 0.02433 0.99711 0.0
H1759 H 0.65335 1.00143 1.00144 0.0
C1760 C 0.79195 0.03028 0.46971 0.0
C1761 C 0.80878 0.04278 0.47278 0.0
C1762 C 0.79091 0.014 0.48107 0.0
C1763 C 0.8072 0.00997 0.49572 0.0
C1764 C 0.82415 0.02255 0.49899 0.0
C1765 C 0.82465 0.03881 0.48761 0.0
C1766 C 0.77249 1.001 0.47723 0.0
C1767 C 0.84191 0.01873 0.51438 0.0
C1768 C 0.79753 0.97458 0.53775 0.0
C1769 C 0.80801 0.95926 0.52956 0.0
C1770 C 0.79677 0.99107 0.52675 0.0
C1771 C 0.80694 0.99238 0.50719 0.0
C1772 C 0.81736 0.97695 0.49875 0.0
C1773 C 0.81763 0.96058 0.50993 0.0
C1774 C 0.78533 0.00718 0.5362 0.0
C1775 C 0.8285 0.97778 0.47799 0.0
H1776 H 0.77975 0.03305 0.45814 0.0
H1777 H 0.8375 0.04848 0.49044 0.0
H1778 H 0.77881 0.98795 0.47112 0.0
H1779 H 0.76407 0.99794 0.49197 0.0
H1780 H 0.76058 0.00651 0.46603 0.0
H1781 H 0.85385 0.02996 0.51523 0.0
H1782 H 0.83496 0.01658 0.53 0.0
H1783 H 0.85047 0.00604 0.51003 0.0
H1784 H 0.79026 0.97382 0.55297 0.0
H1785 H 0.82537 0.94877 0.50322 0.0
H1786 H 0.77296 0.01244 0.52533 0.0
H1787 H 0.79701 0.01834 0.53899 0.0
H1788 H 0.77736 0.00372 0.55108 0.0
H1789 H 0.81686 0.98189 0.46583 0.0
H1790 H 0.83577 0.96454 0.47353 0.0
H1791 H 0.84142 0.98822 0.47835 0.0
C1792 C 0.82153 0.47243 0.97076 0.0
C1793 C 0.80605 0.45877 0.97393 0.0
C1794 C 0.82104 0.48871 0.98209 0.0
C1795 C 0.80452 0.49158 0.99685 0.0
C1796 C 0.78862 0.47802 0.99992 0.0
C1797 C 0.78962 0.46176 0.98851 0.0
C1798 C 0.83834 0.5028 0.97838 0.0
C1799 C 0.77068 0.48061 0.01543 0.0
C1800 C 0.81583 0.52577 0.03964 0.0
C1801 C 0.80556 0.54148 0.03218 0.0
C1802 C 0.8154 0.50942 0.02843 0.0
C1803 C 0.80422 0.50862 0.00935 0.0
C1804 C 0.79339 0.52427 0.00194 0.0
C1805 C 0.79426 0.54051 0.01338 0.0
C1806 C 0.82721 0.49305 0.03684 0.0
C1807 C 0.78118 0.52395 0.98173 0.0
H1808 H 0.83405 0.47044 0.95929 0.0
H1809 H 0.77774 0.45125 0.9913 0.0
H1810 H 0.83091 0.51585 0.9736 0.0
H1811 H 0.84732 0.50538 0.99294 0.0
H1812 H 0.85001 0.49853 0.96628 0.0
H1813 H 0.7591 0.46908 0.01542 0.0
H1814 H 0.77754 0.482 0.0312 0.0
H1815 H 0.76175 0.49333 0.01202 0.0
H1816 H 0.82426 0.52623 0.05431 0.0
H1817 H 0.78649 0.55259 0.00732 0.0
H1818 H 0.83998 0.48882 0.02582 0.0
H1819 H 0.81595 0.48143 0.03853 0.0
H1820 H 0.8348 0.4958 0.0521 0.0
H1821 H 0.79249 0.52126 0.96879 0.0
H1822 H 0.77268 0.53697 0.97865 0.0
H1823 H 0.76916 0.51277 0.98183 0.0
C1824 C 0.70105 0.45835 0.50776 0.0
C1825 C 0.69761 0.45893 0.52923 0.0
C1826 C 0.70126 0.47434 0.49584 0.0
C1827 C 0.69773 0.49133 0.50556 0.0
C1828 C 0.69451 0.49205 0.52723 0.0
C1829 C 0.69461 0.47588 0.53879 0.0
C1830 C 0.70488 0.47301 0.47279 0.0
C1831 C 0.69059 0.50989 0.53817 0.0
C1832 C 0.71369 0.53532 0.47846 0.0
C1833 C 0.69386 0.54127 0.47046 0.0
C1834 C 0.71529 0.51895 0.4896 0.0
C1835 C 0.69658 0.50832 0.49299 0.0
C1836 C 0.67658 0.51412 0.48477 0.0
C1837 C 0.67549 0.53043 0.47353 0.0
C1838 C 0.73694 0.51316 0.498 0.0
C1839 C 0.65623 0.5032 0.48806 0.0
H1840 H 0.70308 0.44534 0.50013 0.0
H1841 H 0.69231 0.47653 0.5554 0.0
H1842 H 0.69028 0.47772 0.46445 0.0
H1843 H 0.71838 0.482 0.46808 0.0
H1844 H 0.70858 0.4589 0.46777 0.0
H1845 H 0.6888 0.50817 0.55516 0.0
H1846 H 0.70414 0.51939 0.53518 0.0
H1847 H 0.67574 0.51635 0.53204 0.0
H1848 H 0.72794 0.54366 0.47641 0.0
H1849 H 0.66016 0.53468 0.46708 0.0
H1850 H 0.74089 0.49924 0.49255 0.0
H1851 H 0.73635 0.5127 0.51514 0.0
H1852 H 0.7501 0.52251 0.49324 0.0
H1853 H 0.65832 0.48925 0.48187 0.0
H1854 H 0.64199 0.50949 0.48049 0.0
H1855 H 0.65289 0.50192 0.50487 0.0
C1856 C 0.18451 0.54149 0.01115 0.0
C1857 C 0.19382 0.54277 0.03093 0.0
C1858 C 0.18455 0.52506 1.00009 0.0
C1859 C 0.19468 0.50956 0.00867 0.0
C1860 C 0.2046 0.5108 0.02835 0.0
C1861 C 0.2038 0.52728 0.03934 0.0
C1862 C 0.17347 0.52423 0.9793 0.0
C1863 C 0.21594 0.49467 0.03786 0.0
C1864 C 0.17745 0.46286 0.98955 0.0
C1865 C 0.19317 0.45899 0.97451 0.0
C1866 C 0.17772 0.47925 1.00069 0.0
C1867 C 0.19447 0.49196 0.99722 0.0
C1868 C 0.21072 0.48801 0.98251 0.0
C1869 C 0.20973 0.47172 0.97116 0.0
C1870 C 0.15989 0.48307 0.016 0.0
C1871 C 0.22909 0.50105 0.97864 0.0
H1872 H 0.17719 0.55338 0.00418 0.0
H1873 H 0.21075 0.52788 0.05469 0.0
H1874 H 0.1852 0.52036 0.96713 0.0
H1875 H 0.16073 0.51363 0.97954 0.0
H1876 H 0.16598 0.53741 0.97494 0.0
H1877 H 0.22397 0.49815 0.05271 0.0
H1878 H 0.2042 0.48359 0.04076 0.0
H1879 H 0.22825 0.48929 0.027 0.0
H1880 H 0.16486 0.45305 0.99273 0.0
H1881 H 0.2218 0.46914 0.95942 0.0
H1882 H 0.15149 0.49586 0.01175 0.0
H1883 H 0.16673 0.48502 0.03169 0.0
H1884 H 0.14783 0.47191 0.01666 0.0
H1885 H 0.22276 0.51401 0.97231 0.0
H1886 H 0.24114 0.49549 0.96761 0.0
H1887 H 0.23736 0.50429 0.99342 0.0
C1888 C 0.30397 0.52674 0.46257 0.0
C1889 C 0.30578 0.54332 0.47318 0.0
C1890 C 0.30337 0.51012 0.47332 0.0
C1891 C 0.30459 0.51007 0.4952 0.0
C1892 C 0.306 0.52677 0.50601 0.0
C1893 C 0.30658 0.54317 0.49488 0.0
C1894 C 0.3019 0.4926 0.46122 0.0
C1895 C 0.30726 0.52731 0.52933 0.0
C1896 C 0.28706 0.46794 0.52511 0.0
C1897 C 0.30694 0.45972 0.52961 0.0
C1898 C 0.28601 0.48425 0.51381 0.0
C1899 C 0.30529 0.49254 0.50678 0.0
C1900 C 0.32538 0.48421 0.5111 0.0
C1901 C 0.32595 0.46794 0.52243 0.0
C1902 C 0.2643 0.49273 0.50956 0.0
C1903 C 0.3463 0.49255 0.50381 0.0
H1904 H 0.30358 0.52671 0.44581 0.0
H1905 H 0.30764 0.55593 0.50321 0.0
H1906 H 0.31665 0.48438 0.46382 0.0
H1907 H 0.288 0.48442 0.4667 0.0
H1908 H 0.30009 0.495 0.44434 0.0
H1909 H 0.30751 0.54143 0.53544 0.0
H1910 H 0.29328 0.52004 0.53615 0.0
H1911 H 0.32205 0.52022 0.53463 0.0
H1912 H 0.27232 0.46177 0.53075 0.0
H1913 H 0.34136 0.46152 0.52551 0.0
H1914 H 0.262 0.49451 0.49266 0.0
H1915 H 0.26351 0.50644 0.51668 0.0
H1916 H 0.25079 0.4844 0.51571 0.0
H1917 H 0.34611 0.49406 0.48674 0.0
H1918 H 0.36055 0.48426 0.50823 0.0
H1919 H 0.34818 0.50635 0.5105 0.0
C1920 C 0.5467 0.15517 0.10455 0.0
C1921 C 0.55778 0.14105 0.09454 0.0
C1922 C 0.52406 0.15574 0.10476 0.0
C1923 C 0.51219 0.14184 0.09475 0.0
C1924 C 0.52327 0.12755 0.08464 0.0
C1925 C 0.5459 0.12732 0.08466 0.0
C1926 C 0.51283 0.17124 0.11564 0.0
C1927 C 0.5112 0.11242 0.07387 0.0
C1928 C 0.45398 0.13321 0.11039 0.0
C1929 C 0.44258 0.1417 0.09431 0.0
C1930 C 0.47661 0.13333 0.11085 0.0
C1931 C 0.48817 0.14218 0.09487 0.0
C1932 C 0.47678 0.15098 0.07873 0.0
C1933 C 0.45414 0.15063 0.07864 0.0
C1934 C 0.48817 0.12385 0.12836 0.0
C1935 C 0.48853 0.16052 0.06138 0.0
H1936 H 0.55576 0.16594 0.112 0.0
H1937 H 0.55432 0.11622 0.07716 0.0
H1938 H 0.50254 0.17877 0.10452 0.0
H1939 H 0.50209 0.16586 0.12793 0.0
H1940 H 0.52439 0.18094 0.12276 0.0
H1941 H 0.52222 0.10237 0.0666 0.0
H1942 H 0.50072 0.10522 0.08511 0.0
H1943 H 0.50056 0.11816 0.06171 0.0
H1944 H 0.44517 0.12652 0.12272 0.0
H1945 H 0.44548 0.15702 0.06603 0.0
H1946 H 0.4989 0.13357 0.13649 0.0
H1947 H 0.4985 0.11282 0.12212 0.0
H1948 H 0.47682 0.11787 0.13979 0.0
H1949 H 0.49959 0.17096 0.06778 0.0
H1950 H 0.47731 0.16722 0.05036 0.0
H1951 H 0.49854 0.1506 0.05273 0.0
C1952 C 0.95512 0.87266 0.58347 0.0
C1953 C 0.94271 0.86258 0.59754 0.0
C1954 C 0.97772 0.87256 0.58442 0.0
C1955 C 0.98824 0.86206 0.59976 0.0
C1956 C 0.97582 0.85188 0.61406 0.0
C1957 C 0.95319 0.85232 0.61283 0.0
C1958 C 0.99036 0.88373 0.56901 0.0
C1959 C 0.98644 0.84041 0.63053 0.0
C1960 C 0.0466 0.84933 0.58895 0.0
C1961 C 0.05788 0.86231 0.60064 0.0
C1962 C 0.02395 0.84883 0.5889 0.0
C1963 C 0.01225 0.8617 0.6007 0.0
C1964 C 0.0235 0.87466 0.61277 0.0
C1965 C 0.04615 0.87477 0.61264 0.0
C1966 C 0.01255 0.83476 0.57586 0.0
C1967 C 0.01161 0.88863 0.62554 0.0
H1968 H 0.94711 0.88083 0.57182 0.0
H1969 H 0.94369 0.84437 0.62362 0.0
H1970 H 1.00073 0.89365 0.57727 0.0
H1971 H 0.00116 0.87477 0.55988 0.0
H1972 H 0.97974 0.89128 0.55815 0.0
H1973 H 0.9745 0.83341 0.64057 0.0
H1974 H 0.9969 0.83001 0.6232 0.0
H1975 H 0.99693 0.84903 0.64039 0.0
H1976 H 0.05545 0.8398 0.5794 0.0
H1977 H 0.05469 0.88466 0.62199 0.0
H1978 H 0.00307 0.8416 0.56357 0.0
H1979 H 1.00105 0.82691 0.5855 0.0
H1980 H 0.02397 0.82512 0.56844 0.0
H1981 H 0.00165 0.89734 0.61529 0.0
H1982 H 0.02273 0.89747 0.63451 0.0
H1983 H 1.00048 0.88177 0.63648 0.0
C1984 C 0.45744 0.85273 0.89417 0.0
C1985 C 0.44658 0.86384 0.90842 0.0
C1986 C 0.48009 0.85216 0.89354 0.0
C1987 C 0.49217 0.86292 0.90754 0.0
C1988 C 0.4813 0.87411 0.92199 0.0
C1989 C 0.45867 0.87444 0.92225 0.0
C1990 C 0.49108 0.84012 0.87784 0.0
C1991 C 0.49359 0.8857 0.93726 0.0
C1992 C 0.55019 0.85018 0.9199 0.0
C1993 C 0.56182 0.86277 0.90797 0.0
C1994 C 0.52755 0.84989 0.91967 0.0
C1995 C 0.5162 0.86247 0.90716 0.0
C1996 C 0.52781 0.87499 0.89479 0.0
C1997 C 0.55046 0.875 0.89536 0.0
C1998 C 0.51577 0.83629 0.93303 0.0
C1999 C 0.51631 0.88863 0.88126 0.0
H2000 H 0.44822 0.84466 0.88328 0.0
H2001 H 0.45041 0.88284 0.93352 0.0
H2002 H 0.50151 0.84845 0.86761 0.0
H2003 H 0.50166 0.83018 0.88582 0.0
H2004 H 0.47938 0.83254 0.8681 0.0
H2005 H 0.48273 0.89372 0.94743 0.0
H2006 H 0.50395 0.87696 0.9471 0.0
H2007 H 0.50436 0.89523 0.92888 0.0
H2008 H 0.55883 0.84049 0.92944 0.0
H2009 H 0.55927 0.88493 0.88629 0.0
H2010 H 0.50484 0.82788 0.92338 0.0
H2011 H 0.5056 0.84354 0.9445 0.0
H2012 H 0.52696 0.82713 0.94147 0.0
H2013 H 0.50505 0.88154 0.87063 0.0
H2014 H 0.52767 0.89692 0.8719 0.0
H2015 H 0.50652 0.8979 0.89101 0.0
C2016 C 0.04724 0.12745 0.39388 0.0
C2017 C 0.0589 0.13945 0.40653 0.0
C2018 C 0.0246 0.12764 0.39358 0.0
C2019 C 0.0133 0.14014 0.40622 0.0
C2020 C 0.02495 0.15247 0.4188 0.0
C2021 C 0.04759 0.15198 0.4188 0.0
C2022 C 0.01278 0.11431 0.3799 0.0
C2023 C 0.01348 0.16598 0.43252 0.0
C2024 C 0.95466 0.15018 0.39317 0.0
C2025 C 0.9437 0.13887 0.40714 0.0
C2026 C 0.9773 0.15085 0.39278 0.0
C2027 C 0.98928 0.13994 0.40671 0.0
C2028 C 0.97831 0.12861 0.42096 0.0
C2029 C 0.95568 0.12823 0.42101 0.0
C2030 C 0.98841 0.16308 0.37734 0.0
C2031 C 0.99049 0.11683 0.43612 0.0
H2032 H 0.05585 0.11792 0.38412 0.0
H2033 H 0.05645 0.16115 0.4288 0.0
H2034 H 0.00258 0.10525 0.38951 0.0
H2035 H 0.00189 0.12171 0.36919 0.0
H2036 H 0.02395 0.10578 0.37061 0.0
H2037 H 0.02488 0.17506 0.44083 0.0
H2038 H 0.00236 0.17448 0.42318 0.0
H2039 H 0.00356 0.15865 0.44411 0.0
H2040 H 0.94554 0.1583 0.38225 0.0
H2041 H 0.94734 0.11968 0.43209 0.0
H2042 H 0.99862 0.15482 0.36683 0.0
H2043 H 0.99922 0.17272 0.3855 0.0
H2044 H 0.97678 0.17098 0.36786 0.0
H2045 H 1.001 0.10718 0.42762 0.0
H2046 H 0.97955 0.10892 0.44634 0.0
H2047 H 0.0011 0.12539 0.44592 0.0
C2048 C 0.04674 0.64683 0.07906 0.0
C2049 C 0.05862 0.64023 0.09598 0.0
C2050 C 0.0241 0.64676 0.0792 0.0
C2051 C 0.01297 0.64019 0.0968 0.0
C2052 C 0.02479 0.63392 0.11412 0.0
C2053 C 0.04743 0.63389 0.11345 0.0
C2054 C 0.01209 0.65347 0.06036 0.0
C2055 C 0.01351 0.62696 0.13325 0.0
C2056 C 0.95407 0.65367 0.10299 0.0
C2057 C 0.94333 0.638 0.09601 0.0
C2058 C 0.9767 0.65449 0.10361 0.0
C2059 C 0.98895 0.63939 0.09681 0.0
C2060 C 0.97827 0.62355 0.08976 0.0
C2061 C 0.95565 0.623 0.0896 0.0
C2062 C 0.9875 0.67157 0.11141 0.0
C2063 C 0.99075 0.6072 0.08226 0.0
H2064 H 0.05515 0.65209 0.06564 0.0
H2065 H 0.05636 0.62852 0.1265 0.0
H2066 H 0.00195 0.64236 0.05399 0.0
H2067 H 0.00112 0.66475 0.06469 0.0
H2068 H 0.02313 0.65831 0.048 0.0
H2069 H 0.025 0.62346 0.14582 0.0
H2070 H 0.00206 0.63735 0.13912 0.0
H2071 H 0.00396 0.61467 0.12939 0.0
H2072 H 0.94479 0.66544 0.10771 0.0
H2073 H 0.9476 0.61069 0.08456 0.0
H2074 H 0.99743 0.67767 0.09894 0.0
H2075 H 0.99852 0.66823 0.12438 0.0
H2076 H 0.97568 0.68188 0.11681 0.0
H2077 H 0.00133 0.61114 0.06916 0.0
H2078 H 0.98003 0.59598 0.07709 0.0
H2079 H 0.00133 0.60203 0.09478 0.0
C2080 C 0.54919 0.34658 0.59874 0.0
C2081 C 0.55974 0.36279 0.59345 0.0
C2082 C 0.52656 0.34558 0.59908 0.0
C2083 C 0.51424 0.36109 0.5937 0.0
C2084 C 0.52484 0.37745 0.58818 0.0
C2085 C 0.54746 0.37812 0.58826 0.0
C2086 C 0.51585 0.32799 0.60535 0.0
C2087 C 0.5123 0.3942 0.58205 0.0
C2088 C 0.45629 0.35492 0.5758 0.0
C2089 C 0.44459 0.36032 0.59336 0.0
C2090 C 0.47893 0.35495 0.57575 0.0
C2091 C 0.49023 0.36027 0.5938 0.0
C2092 C 0.47857 0.36533 0.61173 0.0
C2093 C 0.45593 0.36541 0.61125 0.0
C2094 C 0.49078 0.34956 0.55628 0.0
C2095 C 0.49003 0.37096 0.63132 0.0
H2096 H 0.55866 0.33475 0.60293 0.0
H2097 H 0.55559 0.39061 0.58393 0.0
H2098 H 0.50531 0.33032 0.61897 0.0
H2099 H 0.50543 0.32298 0.59262 0.0
H2100 H 0.52773 0.31722 0.60927 0.0
H2101 H 0.52299 0.40578 0.57795 0.0
H2102 H 0.50183 0.3911 0.56858 0.0
H2103 H 0.50161 0.39846 0.59493 0.0
H2104 H 0.44774 0.35064 0.56201 0.0
H2105 H 0.44713 0.36988 0.62481 0.0
H2106 H 0.50176 0.338 0.55951 0.0
H2107 H 0.50089 0.36106 0.55085 0.0
H2108 H 0.47962 0.34559 0.54361 0.0
H2109 H 0.50156 0.36023 0.63613 0.0
H2110 H 0.47865 0.37354 0.64427 0.0
H2111 H 0.4995 0.38351 0.62849 0.0
C2112 C 0.04566 0.37046 0.88877 0.0
C2113 C 0.05706 0.36275 0.90538 0.0
C2114 C 0.02301 0.37021 0.8882 0.0
C2115 C 0.01141 0.36235 0.90481 0.0
C2116 C 0.02275 0.3544 0.92151 0.0
C2117 C 0.04539 0.35454 0.9215 0.0
C2118 C 0.0115 0.37862 0.86998 0.0
C2119 C 0.01097 0.34601 0.93961 0.0
C2120 C 0.95397 0.3783 0.91434 0.0
C2121 C 0.94177 0.36371 0.90661 0.0
C2122 C 0.9766 0.37801 0.91386 0.0
C2123 C 0.98739 0.36292 0.90506 0.0
C2124 C 0.97525 0.34831 0.89685 0.0
C2125 C 0.95262 0.3488 0.89789 0.0
C2126 C 0.98896 0.39381 0.92294 0.0
C2127 C 0.98617 0.33208 0.88711 0.0
H2128 H 0.0544 0.37708 0.87636 0.0
H2129 H 0.05395 0.34819 0.9342 0.0
H2130 H 1.00007 0.3687 0.86314 0.0
H2131 H 0.00191 0.3905 0.8752 0.0
H2132 H 0.02285 0.3832 0.85774 0.0
H2133 H 0.02217 0.34027 0.95133 0.0
H2134 H 1.00072 0.35642 0.9472 0.0
H2135 H 1.00014 0.33502 0.93413 0.0
H2136 H 0.94584 0.39008 0.92071 0.0
H2137 H 0.94346 0.33733 0.89212 0.0
H2138 H 0.99932 0.40009 0.91092 0.0
H2139 H 0.99974 0.3889 0.93546 0.0
H2140 H 0.97815 0.40444 0.92939 0.0
H2141 H 0.9971 0.33661 0.87453 0.0
H2142 H 0.97442 0.32221 0.88062 0.0
H2143 H 0.99622 0.32499 0.89878 0.0
C2144 C 0.54621 0.62804 0.41831 0.0
C2145 C 0.55823 0.64089 0.40716 0.0
C2146 C 0.52358 0.62823 0.41798 0.0
C2147 C 0.51266 0.64164 0.40627 0.0
C2148 C 0.52469 0.65461 0.39489 0.0
C2149 C 0.54733 0.65405 0.39542 0.0
C2150 C 0.51136 0.61408 0.43021 0.0
C2151 C 0.51363 0.66917 0.3823 0.0
C2152 C 0.45422 0.63212 0.39202 0.0
C2153 C 0.44304 0.64184 0.40732 0.0
C2154 C 0.47686 0.63218 0.39126 0.0
C2155 C 0.48864 0.64219 0.40618 0.0
C2156 C 0.47746 0.65228 0.42144 0.0
C2157 C 0.45483 0.65199 0.42182 0.0
C2158 C 0.48818 0.62122 0.37477 0.0
C2159 C 0.48943 0.66318 0.43758 0.0
H2160 H 0.55454 0.61766 0.42715 0.0
H2161 H 0.55653 0.66412 0.38693 0.0
H2162 H 0.50095 0.62082 0.44188 0.0
H2163 H 0.50064 0.60623 0.41978 0.0
H2164 H 0.52227 0.60445 0.43831 0.0
H2165 H 0.52529 0.67809 0.37411 0.0
H2166 H 0.50278 0.66285 0.3707 0.0
H2167 H 0.50346 0.67773 0.39253 0.0
H2168 H 0.44527 0.62406 0.38091 0.0
H2169 H 0.44633 0.65976 0.43351 0.0
H2170 H 0.49805 0.61041 0.3821 0.0
H2171 H 0.49934 0.63005 0.36587 0.0
H2172 H 0.4767 0.61476 0.36382 0.0
H2173 H 0.49956 0.65399 0.44711 0.0
H2174 H 0.47835 0.67074 0.44799 0.0
H2175 H 0.5004 0.67305 0.42998 0.0
C2176 C 0.28469 0.1375 0.21639 0.0
C2177 C 0.2729 0.13011 0.19984 0.0
C2178 C 0.27654 0.13728 0.23667 0.0
C2179 C 0.25618 0.1293 0.24063 0.0
C2180 C 0.24429 0.12163 0.2241 0.0
C2181 C 0.25272 0.1222 0.20392 0.0
C2182 C 0.2897 0.14567 0.25385 0.0
C2183 C 0.22257 0.1129 0.2277 0.0
C2184 C 0.24368 0.11466 0.29585 0.0
C2185 C 0.2306 0.12897 0.30289 0.0
C2186 C 0.25196 0.11451 0.27561 0.0
C2187 C 0.24727 0.12913 0.26207 0.0
C2188 C 0.23417 0.14365 0.26906 0.0
C2189 C 0.22592 0.14335 0.2893 0.0
C2190 C 0.26579 0.09874 0.26873 0.0
C2191 C 0.22887 0.15952 0.25514 0.0
H2192 H 0.30045 0.14335 0.21353 0.0
H2193 H 0.24331 0.11669 0.19127 0.0
H2194 H 0.28035 0.15667 0.26144 0.0
H2195 H 0.29328 0.13531 0.26584 0.0
H2196 H 0.30517 0.15144 0.24819 0.0
H2197 H 0.2156 0.10714 0.21329 0.0
H2198 H 0.22405 0.10186 0.23931 0.0
H2199 H 0.21115 0.12308 0.23405 0.0
H2200 H 0.24769 0.10362 0.30626 0.0
H2201 H 0.21556 0.15433 0.29441 0.0
H2202 H 0.28206 0.10368 0.26434 0.0
H2203 H 0.25865 0.09227 0.25481 0.0
H2204 H 0.26757 0.08824 0.28097 0.0
H2205 H 0.24395 0.16619 0.24988 0.0
H2206 H 0.21864 0.16983 0.26298 0.0
H2207 H 0.2203 0.15465 0.24113 0.0
C2208 C 0.28336 0.88508 0.78908 0.0
C2209 C 0.27399 0.87418 0.80449 0.0
C2210 C 0.27513 0.88529 0.76882 0.0
C2211 C 0.25708 0.87435 0.7638 0.0
C2212 C 0.24749 0.86339 0.77929 0.0
C2213 C 0.25605 0.86343 0.79942 0.0
C2214 C 0.28586 0.89712 0.75274 0.0
C2215 C 0.22817 0.85159 0.7746 0.0
C2216 C 0.22374 0.88648 0.7163 0.0
C2217 C 0.23131 0.87392 0.70165 0.0
C2218 C 0.23201 0.88681 0.73654 0.0
C2219 C 0.24828 0.87429 0.74232 0.0
C2220 C 0.25607 0.86163 0.72759 0.0
C2221 C 0.24749 0.86159 0.70747 0.0
C2222 C 0.22323 0.90048 0.75179 0.0
C2223 C 0.27346 0.84811 0.73311 0.0
H2224 H 0.29739 0.89324 0.79278 0.0
H2225 H 0.24853 0.85517 0.81128 0.0
H2226 H 0.29183 0.88859 0.7398 0.0
H2227 H 0.274 0.90682 0.74616 0.0
H2228 H 0.29962 0.90497 0.75918 0.0
H2229 H 0.22254 0.84391 0.78838 0.0
H2230 H 0.21469 0.86012 0.76884 0.0
H2231 H 0.23221 0.84175 0.76219 0.0
H2232 H 0.21105 0.89589 0.71204 0.0
H2233 H 0.25366 0.85201 0.69619 0.0
H2234 H 0.23649 0.90913 0.75778 0.0
H2235 H 0.21606 0.89331 0.76524 0.0
H2236 H 0.21074 0.90941 0.74482 0.0
H2237 H 0.28815 0.85539 0.73836 0.0
H2238 H 0.27783 0.83922 0.71986 0.0
H2239 H 0.26801 0.83941 0.74612 0.0
C2240 C 0.73577 0.85656 0.79305 0.0
C2241 C 0.73213 0.87297 0.80357 0.0
C2242 C 0.74381 0.85641 0.77272 0.0
C2243 C 0.74843 0.87307 0.76265 0.0
C2244 C 0.74489 0.88968 0.77321 0.0
C2245 C 0.73674 0.88943 0.7935 0.0
C2246 C 0.74721 0.83841 0.76196 0.0
C2247 C 0.74976 0.90772 0.76308 0.0
C2248 C 0.78707 0.87228 0.71685 0.0
C2249 C 0.77284 0.87273 0.69995 0.0
C2250 C 0.77936 0.87247 0.7373 0.0
C2251 C 0.75687 0.87311 0.74102 0.0
C2252 C 0.74243 0.87365 0.72406 0.0
C2253 C 0.75058 0.87347 0.70377 0.0
C2254 C 0.7953 0.87183 0.75494 0.0
C2255 C 0.71834 0.8744 0.72735 0.0
H2256 H 0.73199 0.8438 0.80062 0.0
H2257 H 0.73422 0.90215 0.80161 0.0
H2258 H 0.73724 0.8378 0.74772 0.0
H2259 H 0.7643 0.83705 0.75714 0.0
H2260 H 0.74296 0.82666 0.77197 0.0
H2261 H 0.74619 0.91942 0.77341 0.0
H2262 H 0.767 0.90831 0.75858 0.0
H2263 H 0.74012 0.9092 0.74872 0.0
H2264 H 0.80427 0.87145 0.71408 0.0
H2265 H 0.73947 0.87409 0.69084 0.0
H2266 H 0.79246 0.85949 0.76444 0.0
H2267 H 0.79299 0.88377 0.76519 0.0
H2268 H 0.81228 0.87169 0.74947 0.0
H2269 H 0.71299 0.86236 0.73634 0.0
H2270 H 0.70928 0.87476 0.71253 0.0
H2271 H 0.71407 0.88664 0.73651 0.0
C2272 C 0.77542 0.11434 0.28993 0.0
C2273 C 0.77168 0.12908 0.30328 0.0
C2274 C 0.76733 0.11425 0.26962 0.0
C2275 C 0.75498 0.12917 0.26246 0.0
C2276 C 0.7509 0.14399 0.2759 0.0
C2277 C 0.75936 0.14381 0.29607 0.0
C2278 C 0.77209 0.0982 0.25578 0.0
C2279 C 0.73771 0.16011 0.2689 0.0
C2280 C 0.7504 0.13712 0.2044 0.0
C2281 C 0.73021 0.12947 0.19995 0.0
C2282 C 0.75869 0.13705 0.22464 0.0
C2283 C 0.74641 0.1293 0.24089 0.0
C2284 C 0.72598 0.12162 0.2365 0.0
C2285 C 0.71817 0.12173 0.21609 0.0
C2286 C 0.78065 0.1452 0.22863 0.0
C2287 C 0.71228 0.11339 0.25339 0.0
H2288 H 0.78458 0.10275 0.29539 0.0
H2289 H 0.75662 0.15539 0.30609 0.0
H2290 H 0.7568 0.09178 0.25068 0.0
H2291 H 0.78067 0.10284 0.24167 0.0
H2292 H 0.78212 0.08775 0.26361 0.0
H2293 H 0.73552 0.17033 0.28138 0.0
H2294 H 0.74569 0.16681 0.25556 0.0
H2295 H 0.72159 0.15552 0.26359 0.0
H2296 H 0.75988 0.14296 0.19197 0.0
H2297 H 0.70243 0.11601 0.2128 0.0
H2298 H 0.7915 0.13477 0.23537 0.0
H2299 H 0.77933 0.15639 0.24006 0.0
H2300 H 0.7882 0.15063 0.21431 0.0
H2301 H 0.72113 0.10212 0.26101 0.0
H2302 H 0.69672 0.10804 0.24745 0.0
H2303 H 0.70886 0.12375 0.26544 0.0
C2304 C 0.7468 0.61967 0.2976 0.0
C2305 C 0.73005 0.6316 0.30292 0.0
C2306 C 0.75542 0.61947 0.27748 0.0
C2307 C 0.74685 0.63128 0.26223 0.0
C2308 C 0.72981 0.64324 0.26749 0.0
C2309 C 0.72173 0.64334 0.2878 0.0
C2310 C 0.77379 0.60672 0.27258 0.0
C2311 C 0.72001 0.65585 0.25163 0.0
C2312 C 0.78065 0.64304 0.2149 0.0
C2313 C 0.77238 0.63104 0.20003 0.0
C2314 C 0.77264 0.64315 0.23524 0.0
C2315 C 0.75572 0.63115 0.24077 0.0
C2316 C 0.7472 0.61909 0.22576 0.0
C2317 C 0.75574 0.61909 0.20562 0.0
C2318 C 0.78238 0.65603 0.25085 0.0
C2319 C 0.72894 0.60629 0.23093 0.0
H2320 H 0.75341 0.6107 0.30929 0.0
H2321 H 0.70862 0.65244 0.2918 0.0
H2322 H 0.76903 0.59728 0.26 0.0
H2323 H 0.7879 0.61458 0.26696 0.0
H2324 H 0.7788 0.59857 0.28623 0.0
H2325 H 0.70664 0.66411 0.25813 0.0
H2326 H 0.73252 0.66518 0.24548 0.0
H2327 H 0.71373 0.64785 0.23838 0.0
H2328 H 0.79368 0.65215 0.2107 0.0
H2329 H 0.74916 0.60991 0.19411 0.0
H2330 H 0.78873 0.64825 0.26424 0.0
H2331 H 0.76982 0.66538 0.25685 0.0
H2332 H 0.79568 0.66427 0.24418 0.0
H2333 H 0.73381 0.59707 0.24368 0.0
H2334 H 0.72398 0.59791 0.21745 0.0
H2335 H 0.71478 0.61414 0.23642 0.0
C2336 C 0.75025 0.37475 0.70416 0.0
C2337 C 0.72887 0.36962 0.70003 0.0
C2338 C 0.75841 0.37479 0.72444 0.0
C2339 C 0.74493 0.36947 0.74106 0.0
C2340 C 0.72337 0.3642 0.73703 0.0
C2341 C 0.7156 0.3644 0.7166 0.0
C2342 C 0.78147 0.38054 0.72809 0.0
C2343 C 0.7085 0.3584 0.7543 0.0
C2344 C 0.77185 0.35404 0.791 0.0
C2345 C 0.77015 0.36963 0.80343 0.0
C2346 C 0.76355 0.35374 0.77077 0.0
C2347 C 0.75339 0.36945 0.76267 0.0
C2348 C 0.75153 0.3852 0.77513 0.0
C2349 C 0.75986 0.38509 0.79535 0.0
C2350 C 0.7658 0.33665 0.758 0.0
C2351 C 0.74084 0.40223 0.76706 0.0
H2352 H 0.76076 0.37854 0.69148 0.0
H2353 H 0.69897 0.36068 0.71366 0.0
H2354 H 0.78195 0.39225 0.7389 0.0
H2355 H 0.79058 0.36927 0.73544 0.0
H2356 H 0.78979 0.38446 0.71354 0.0
H2357 H 0.69227 0.35446 0.74857 0.0
H2358 H 0.71556 0.34669 0.76274 0.0
H2359 H 0.70663 0.36964 0.76561 0.0
H2360 H 0.78003 0.34212 0.79695 0.0
H2361 H 0.75814 0.39711 0.8049 0.0
H2362 H 0.7755 0.33952 0.74395 0.0
H2363 H 0.7497 0.33197 0.75275 0.0
H2364 H 0.77366 0.32545 0.76673 0.0
H2365 H 0.74942 0.40713 0.75307 0.0
H2366 H 0.74065 0.41334 0.77871 0.0
H2367 H 0.72399 0.39922 0.76243 0.0
C2368 C 0.25265 0.37845 0.70359 0.0
C2369 C 0.27358 0.37194 0.69981 0.0
C2370 C 0.24387 0.37843 0.72364 0.0
C2371 C 0.25637 0.37195 0.74043 0.0
C2372 C 0.2775 0.36543 0.73678 0.0
C2373 C 0.28578 0.36539 0.71654 0.0
C2374 C 0.22122 0.38539 0.72687 0.0
C2375 C 0.2914 0.3585 0.75427 0.0
C2376 C 0.2413 0.38738 0.79477 0.0
C2377 C 0.2304 0.3721 0.80248 0.0
C2378 C 0.2499 0.38749 0.77465 0.0
C2379 C 0.24736 0.37202 0.76184 0.0
C2380 C 0.23628 0.35658 0.76951 0.0
C2381 C 0.22805 0.35677 0.78976 0.0
C2382 C 0.26184 0.40414 0.76716 0.0
C2383 C 0.233 0.33989 0.75626 0.0
H2384 H 0.24317 0.3838 0.6909 0.0
H2385 H 0.30179 0.36001 0.71383 0.0
H2386 H 0.21118 0.37471 0.73424 0.0
H2387 H 0.22143 0.39723 0.73751 0.0
H2388 H 0.21343 0.38957 0.71214 0.0
H2389 H 0.30764 0.35421 0.74891 0.0
H2390 H 0.29334 0.36924 0.76618 0.0
H2391 H 0.28345 0.34674 0.76185 0.0
H2392 H 0.24336 0.3992 0.8046 0.0
H2393 H 0.21941 0.345 0.79556 0.0
H2394 H 0.25391 0.40966 0.75313 0.0
H2395 H 0.27856 0.40041 0.76277 0.0
H2396 H 0.26252 0.41502 0.77907 0.0
H2397 H 0.22411 0.34359 0.74197 0.0
H2398 H 0.22388 0.32907 0.76447 0.0
H2399 H 0.24883 0.3343 0.75143 0.0
C2400 C 0.26609 0.64671 0.29439 0.0
C2401 C 0.27204 0.6303 0.30389 0.0
C2402 C 0.258 0.64704 0.27408 0.0
C2403 C 0.25572 0.63055 0.26298 0.0
C2404 C 0.26165 0.61393 0.27248 0.0
C2405 C 0.26977 0.61401 0.29278 0.0
C2406 C 0.25199 0.66505 0.26446 0.0
C2407 C 0.25932 0.59604 0.26123 0.0
C2408 C 0.21656 0.62928 0.21766 0.0
C2409 C 0.23048 0.63077 0.2006 0.0
C2410 C 0.22455 0.62915 0.238 0.0
C2411 C 0.24702 0.63066 0.24145 0.0
C2412 C 0.26116 0.63227 0.22434 0.0
C2413 C 0.25274 0.63226 0.20415 0.0
C2414 C 0.20892 0.62743 0.25581 0.0
C2415 C 0.28522 0.63392 0.22737 0.0
H2416 H 0.26806 0.65938 0.30274 0.0
H2417 H 0.27409 0.60125 0.30009 0.0
H2418 H 0.26158 0.6673 0.2502 0.0
H2419 H 0.23475 0.66494 0.25989 0.0
H2420 H 0.25474 0.67666 0.27514 0.0
H2421 H 0.26474 0.58432 0.27075 0.0
H2422 H 0.24222 0.59387 0.25684 0.0
H2423 H 0.26888 0.59629 0.24673 0.0
H2424 H 0.19932 0.62842 0.21513 0.0
H2425 H 0.26367 0.63317 0.19111 0.0
H2426 H 0.21024 0.63948 0.26605 0.0
H2427 H 0.21299 0.61531 0.26526 0.0
H2428 H 0.19194 0.62619 0.25052 0.0
H2429 H 0.28891 0.64592 0.23716 0.0
H2430 H 0.29401 0.63532 0.21248 0.0
H2431 H 0.29143 0.62176 0.23559 0.0
loop_
_geom_bond_atom_site_label_1
_geom_bond_atom_site_label_2
_geom_bond_distance
_geom_bond_site_symmetry_2
_ccdc_geom_bond_type
Li0 N17 1.990 . S
Li0 O60 1.956 . S
Li0 O61 1.970 . S
Li0 O62 1.961 . S
Li1 N25 1.990 . S
Li1 O60 1.970 . S
Li1 O61 1.956 . S
Li1 O63 1.961 . S
Li2 N47 1.990 . S
Li2 O60 1.961 . S
Li2 O62 1.956 . S
Li2 O63 1.970 . S
Li3 N53 1.990 . S
Li3 O61 1.961 . S
Li3 O62 1.970 . S
Li3 O63 1.956 . S
C4 C6 1.348 . S
C4 C7 1.356 . S
C4 O60 1.325 . S
N5 C8 1.314 . S
N5 C9 1.279 . S
C6 C4 1.348 . S
C6 C8 1.353 . S
C6 H64 0.929 . S
C7 C4 1.356 . S
C7 C9 1.358 . S
C7 H65 0.930 . S
C8 N5 1.314 . S
C8 C6 1.353 . S
C8 H66 0.930 . S
C9 N5 1.279 . S
C9 C7 1.358 . S
C9 H67 0.930 1_554 S
C10 C13 1.348 . S
C10 C14 1.356 . S
C10 O61 1.325 . S
C11 N12 1.279 . S
C11 C14 1.358 . S
C11 H68 0.930 . S
N12 C11 1.279 . S
N12 C15 1.314 . S
C13 C10 1.348 . S
C13 C15 1.353 . S
C13 H69 0.929 . S
C14 C10 1.356 . S
C14 C11 1.358 . S
C14 H70 0.930 . S
C15 N12 1.314 . S
C15 C13 1.353 . S
C15 H71 0.930 . S
C16 N17 1.314 . S
C16 C21 1.353 . S
C16 H22 0.930 . S
N17 Li0 1.990 . S
N17 C16 1.314 . S
N17 C19 1.279 . S
C18 C19 1.358 . S
C18 C20 1.356 . S
C18 H72 0.930 . S
C19 N17 1.279 . S
C19 C18 1.358 . S
C19 H23 0.930 . S
C20 C18 1.356 . S
C20 C21 1.348 . S
C21 C16 1.353 . S
C21 C20 1.348 . S
C21 H73 0.929 . S
H22 C16 0.930 . S
H23 C19 0.930 . S
C24 N25 1.314 . S
C24 C26 1.353 . S
C24 H30 0.930 . S
N25 Li1 1.990 . S
N25 C24 1.314 . S
N25 C28 1.279 . S
C26 C24 1.353 . S
C26 C29 1.348 . S
C26 H74 0.929 . S
C27 C28 1.358 . S
C27 C29 1.356 . S
C27 H75 0.930 . S
C28 N25 1.279 . S
C28 C27 1.358 . S
C28 H31 0.930 . S
C29 C26 1.348 . S
C29 C27 1.356 . S
H30 C24 0.930 . S
H31 C28 0.930 . S
C32 C34 1.348 . S
C32 C35 1.356 . S
C32 O62 1.325 . S
N33 C36 1.314 . S
N33 C37 1.279 . S
C34 C32 1.348 . S
C34 C36 1.353 . S
C34 H76 0.929 . S
C35 C32 1.356 . S
C35 C37 1.358 . S
C35 H77 0.930 . S
C36 N33 1.314 . S
C36 C34 1.353 . S
C36 H78 0.930 . S
C37 N33 1.279 . S
C37 C35 1.358 . S
C37 H79 0.930 . S
C38 C39 1.348 . S
C38 C40 1.356 . S
C38 O63 1.325 . S
C39 C38 1.348 . S
C39 C41 1.353 . S
C39 H80 0.929 . S
C40 C38 1.356 . S
C40 C42 1.358 . S
C40 H81 0.930 . S
C41 C39 1.353 . S
C41 N43 1.314 . S
C41 H82 0.930 . S
C42 C40 1.358 . S
C42 N43 1.279 . S
C42 H83 0.930 . S
N43 C41 1.314 . S
N43 C42 1.279 . S
C44 C46 1.353 . S
C44 N47 1.314 . S
C44 H50 0.930 . S
C45 N47 1.279 . S
C45 C48 1.358 . S
C45 H51 0.930 . S
C46 C44 1.353 . S
C46 C49 1.348 . S
C46 H84 0.929 . S
N47 Li2 1.990 . S
N47 C44 1.314 . S
N47 C45 1.279 . S
C48 C45 1.358 . S
C48 C49 1.356 . S
C48 H85 0.930 . S
C49 C46 1.348 . S
C49 C48 1.356 . S
H50 C44 0.930 . S
H51 C45 0.930 . S
C52 N53 1.314 . S
C52 C54 1.353 . S
C52 H58 0.930 . S
N53 Li3 1.990 . S
N53 C52 1.314 . S
N53 C56 1.279 . S
C54 C52 1.353 . S
C54 C57 1.348 . S
C54 H86 0.929 . S
C55 C56 1.358 . S
C55 C57 1.356 . S
C55 H87 0.930 . S
C56 N53 1.279 . S
C56 C55 1.358 . S
C56 H59 0.930 . S
C57 C54 1.348 . S
C57 C55 1.356 . S
H58 C52 0.930 . S
H59 C56 0.930 . S
O60 Li0 1.956 . S
O60 Li1 1.970 . S
O60 Li2 1.961 . S
O60 C4 1.325 . S
O61 Li0 1.970 . S
O61 Li1 1.956 . S
O61 Li3 1.961 . S
O61 C10 1.325 . S
O62 Li0 1.961 . S
O62 Li2 1.956 . S
O62 Li3 1.970 . S
O62 C32 1.325 . S
O63 Li1 1.961 . S
O63 Li2 1.970 . S
O63 Li3 1.956 . S
O63 C38 1.325 . S
H64 C6 0.929 . S
H65 C7 0.930 . S
H66 C8 0.930 . S
H67 C9 0.930 1_556 S
H68 C11 0.930 . S
H69 C13 0.929 . S
H70 C14 0.930 . S
H71 C15 0.930 . S
H72 C18 0.930 . S
H73 C21 0.929 . S
H74 C26 0.929 . S
H75 C27 0.930 . S
H76 C34 0.929 . S
H77 C35 0.930 . S
H78 C36 0.930 . S
H79 C37 0.930 . S
H80 C39 0.929 . S
H81 C40 0.930 . S
H82 C41 0.930 . S
H83 C42 0.930 . S
H84 C46 0.929 . S
H85 C48 0.930 . S
H86 C54 0.929 . S
H87 C55 0.930 . S
Li88 N105 1.990 . S
Li88 O148 1.956 . S
Li88 O149 1.970 . S
Li88 O150 1.961 . S
Li89 N113 1.990 . S
Li89 O148 1.970 . S
Li89 O149 1.956 . S
Li89 O151 1.961 . S
Li90 N135 1.990 . S
Li90 O148 1.961 . S
Li90 O150 1.956 . S
Li90 O151 1.970 . S
Li91 N141 1.990 . S
Li91 O149 1.961 . S
Li91 O150 1.970 . S
Li91 O151 1.956 . S
C92 C94 1.348 . S
C92 C95 1.356 . S
C92 O148 1.325 . S
N93 C96 1.314 . S
N93 C97 1.279 . S
C94 C92 1.348 . S
C94 C96 1.353 . S
C94 H152 0.929 . S
C95 C92 1.356 . S
C95 C97 1.358 . S
C95 H153 0.930 . S
C96 N93 1.314 . S
C96 C94 1.353 . S
C96 H154 0.930 . S
C97 N93 1.279 . S
C97 C95 1.358 . S
C97 H155 0.930 . S
C98 C101 1.348 . S
C98 C102 1.356 . S
C98 O149 1.325 . S
C99 N100 1.279 . S
C99 C102 1.358 . S
C99 H156 0.930 . S
N100 C99 1.279 . S
N100 C103 1.314 . S
C101 C98 1.348 . S
C101 C103 1.353 . S
C101 H157 0.929 . S
C102 C98 1.356 . S
C102 C99 1.358 . S
C102 H158 0.930 . S
C103 N100 1.314 . S
C103 C101 1.353 . S
C103 H159 0.930 . S
C104 N105 1.314 . S
C104 C109 1.353 . S
C104 H110 0.930 . S
N105 Li88 1.990 . S
N105 C104 1.314 . S
N105 C107 1.279 . S
C106 C107 1.358 . S
C106 C108 1.356 . S
C106 H160 0.930 . S
C107 N105 1.279 . S
C107 C106 1.358 . S
C107 H111 0.930 . S
C108 C106 1.356 . S
C108 C109 1.348 . S
C109 C104 1.353 . S
C109 C108 1.348 . S
C109 H161 0.929 . S
H110 C104 0.930 . S
H111 C107 0.930 . S
C112 N113 1.314 . S
C112 C114 1.353 . S
C112 H118 0.930 . S
N113 Li89 1.990 . S
N113 C112 1.314 . S
N113 C116 1.279 . S
C114 C112 1.353 . S
C114 C117 1.348 . S
C114 H162 0.929 . S
C115 C116 1.358 . S
C115 C117 1.356 . S
C115 H163 0.930 . S
C116 N113 1.279 . S
C116 C115 1.358 . S
C116 H119 0.930 . S
C117 C114 1.348 . S
C117 C115 1.356 . S
H118 C112 0.930 . S
H119 C116 0.930 . S
C120 C122 1.348 . S
C120 C123 1.356 . S
C120 O150 1.325 . S
N121 C124 1.314 . S
N121 C125 1.279 . S
C122 C120 1.348 . S
C122 C124 1.353 . S
C122 H164 0.929 . S
C123 C120 1.356 . S
C123 C125 1.358 . S
C123 H165 0.930 . S
C124 N121 1.314 . S
C124 C122 1.353 . S
C124 H166 0.930 . S
C125 N121 1.279 . S
C125 C123 1.358 . S
C125 H167 0.930 . S
C126 C127 1.348 . S
C126 C128 1.356 . S
C126 O151 1.325 . S
C127 C126 1.348 . S
C127 C129 1.353 . S
C127 H168 0.929 . S
C128 C126 1.356 . S
C128 C130 1.358 . S
C128 H169 0.930 . S
C129 C127 1.353 . S
C129 N131 1.314 . S
C129 H170 0.930 . S
C130 C128 1.358 . S
C130 N131 1.279 . S
C130 H171 0.930 . S
N131 C129 1.314 . S
N131 C130 1.279 . S
C132 C134 1.353 . S
C132 N135 1.314 . S
C132 H138 0.930 . S
C133 N135 1.279 . S
C133 C136 1.358 . S
C133 H139 0.930 . S
C134 C132 1.353 . S
C134 C137 1.348 . S
C134 H172 0.929 . S
N135 Li90 1.990 . S
N135 C132 1.314 . S
N135 C133 1.279 . S
C136 C133 1.358 . S
C136 C137 1.356 . S
C136 H173 0.930 . S
C137 C134 1.348 . S
C137 C136 1.356 . S
H138 C132 0.930 . S
H139 C133 0.930 . S
C140 N141 1.314 . S
C140 C142 1.353 . S
C140 H146 0.930 . S
N141 Li91 1.990 . S
N141 C140 1.314 . S
N141 C144 1.279 . S
C142 C140 1.353 . S
C142 C145 1.348 . S
C142 H174 0.929 . S
C143 C144 1.358 . S
C143 C145 1.356 . S
C143 H175 0.930 . S
C144 N141 1.279 . S
C144 C143 1.358 . S
C144 H147 0.930 . S
C145 C142 1.348 . S
C145 C143 1.356 . S
H146 C140 0.930 . S
H147 C144 0.930 . S
O148 Li88 1.956 . S
O148 Li89 1.970 . S
O148 Li90 1.961 . S
O148 C92 1.325 . S
O149 Li88 1.970 . S
O149 Li89 1.956 . S
O149 Li91 1.961 . S
O149 C98 1.325 . S
O150 Li88 1.961 . S
O150 Li90 1.956 . S
O150 Li91 1.970 . S
O150 C120 1.325 . S
O151 Li89 1.961 . S
O151 Li90 1.970 . S
O151 Li91 1.956 . S
O151 C126 1.325 . S
H152 C94 0.929 . S
H153 C95 0.930 . S
H154 C96 0.930 . S
H155 C97 0.930 . S
H156 C99 0.930 . S
H157 C101 0.929 . S
H158 C102 0.930 . S
H159 C103 0.930 . S
H160 C106 0.930 . S
H161 C109 0.929 . S
H162 C114 0.929 . S
H163 C115 0.930 . S
H164 C122 0.929 . S
H165 C123 0.930 . S
H166 C124 0.930 . S
H167 C125 0.930 . S
H168 C127 0.929 . S
H169 C128 0.930 . S
H170 C129 0.930 . S
H171 C130 0.930 . S
H172 C134 0.929 . S
H173 C136 0.930 . S
H174 C142 0.929 . S
H175 C143 0.930 . S
Li176 N193 1.990 . S
Li176 O236 1.956 . S
Li176 O237 1.970 . S
Li176 O238 1.961 . S
Li177 N201 1.990 . S
Li177 O236 1.970 . S
Li177 O237 1.956 . S
Li177 O239 1.961 . S
Li178 N223 1.990 . S
Li178 O236 1.961 . S
Li178 O238 1.956 . S
Li178 O239 1.970 . S
Li179 N229 1.990 . S
Li179 O237 1.961 . S
Li179 O238 1.970 . S
Li179 O239 1.956 . S
C180 C182 1.348 . S
C180 C183 1.356 . S
C180 O236 1.325 . S
N181 C184 1.314 . S
N181 C185 1.279 . S
C182 C180 1.348 . S
C182 C184 1.353 . S
C182 H240 0.929 . S
C183 C180 1.356 . S
C183 C185 1.358 . S
C183 H241 0.930 . S
C184 N181 1.314 . S
C184 C182 1.353 . S
C184 H242 0.930 . S
C185 N181 1.279 . S
C185 C183 1.358 . S
C185 H243 0.930 . S
C186 C189 1.348 . S
C186 C190 1.356 . S
C186 O237 1.325 . S
C187 N188 1.279 . S
C187 C190 1.358 . S
C187 H244 0.930 . S
N188 C187 1.279 . S
N188 C191 1.314 . S
C189 C186 1.348 . S
C189 C191 1.353 . S
C189 H245 0.929 . S
C190 C186 1.356 . S
C190 C187 1.358 . S
C190 H246 0.930 . S
C191 N188 1.314 . S
C191 C189 1.353 . S
C191 H247 0.930 . S
C192 N193 1.314 . S
C192 C197 1.353 . S
C192 H198 0.930 . S
N193 Li176 1.990 . S
N193 C192 1.314 . S
N193 C195 1.279 . S
C194 C195 1.358 . S
C194 C196 1.356 . S
C194 H248 0.930 . S
C195 N193 1.279 . S
C195 C194 1.358 . S
C195 H199 0.930 . S
C196 C194 1.356 . S
C196 C197 1.348 . S
C197 C192 1.353 . S
C197 C196 1.348 . S
C197 H249 0.929 . S
H198 C192 0.930 . S
H199 C195 0.930 . S
C200 N201 1.314 . S
C200 C202 1.353 . S
C200 H206 0.930 . S
N201 Li177 1.990 . S
N201 C200 1.314 . S
N201 C204 1.279 . S
C202 C200 1.353 . S
C202 C205 1.348 . S
C202 H250 0.929 . S
C203 C204 1.358 . S
C203 C205 1.356 . S
C203 H251 0.930 . S
C204 N201 1.279 . S
C204 C203 1.358 . S
C204 H207 0.930 . S
C205 C202 1.348 . S
C205 C203 1.356 . S
H206 C200 0.930 . S
H207 C204 0.930 . S
C208 C210 1.348 . S
C208 C211 1.356 . S
C208 O238 1.325 . S
N209 C212 1.314 . S
N209 C213 1.279 . S
C210 C208 1.348 . S
C210 C212 1.353 . S
C210 H252 0.929 . S
C211 C208 1.356 . S
C211 C213 1.358 . S
C211 H253 0.930 . S
C212 N209 1.314 . S
C212 C210 1.353 . S
C212 H254 0.930 . S
C213 N209 1.279 . S
C213 C211 1.358 . S
C213 H255 0.930 . S
C214 C215 1.348 . S
C214 C216 1.356 . S
C214 O239 1.325 . S
C215 C214 1.348 . S
C215 C217 1.353 . S
C215 H256 0.929 . S
C216 C214 1.356 . S
C216 C218 1.358 . S
C216 H257 0.930 . S
C217 C215 1.353 . S
C217 N219 1.314 . S
C217 H258 0.930 . S
C218 C216 1.358 . S
C218 N219 1.279 . S
C218 H259 0.930 1_556 S
N219 C217 1.314 . S
N219 C218 1.279 . S
C220 C222 1.353 . S
C220 N223 1.314 . S
C220 H226 0.930 . S
C221 N223 1.279 . S
C221 C224 1.358 . S
C221 H227 0.930 . S
C222 C220 1.353 . S
C222 C225 1.348 . S
C222 H260 0.929 . S
N223 Li178 1.990 . S
N223 C220 1.314 . S
N223 C221 1.279 . S
C224 C221 1.358 . S
C224 C225 1.356 . S
C224 H261 0.930 . S
C225 C222 1.348 . S
C225 C224 1.356 . S
H226 C220 0.930 . S
H227 C221 0.930 . S
C228 N229 1.314 . S
C228 C230 1.353 . S
C228 H234 0.930 . S
N229 Li179 1.990 . S
N229 C228 1.314 . S
N229 C232 1.279 . S
C230 C228 1.353 . S
C230 C233 1.348 . S
C230 H262 0.929 . S
C231 C232 1.358 . S
C231 C233 1.356 . S
C231 H263 0.930 . S
C232 N229 1.279 . S
C232 C231 1.358 . S
C232 H235 0.930 . S
C233 C230 1.348 . S
C233 C231 1.356 . S
H234 C228 0.930 . S
H235 C232 0.930 . S
O236 Li176 1.956 . S
O236 Li177 1.970 . S
O236 Li178 1.961 . S
O236 C180 1.325 . S
O237 Li176 1.970 . S
O237 Li177 1.956 . S
O237 Li179 1.961 . S
O237 C186 1.325 . S
O238 Li176 1.961 . S
O238 Li178 1.956 . S
O238 Li179 1.970 . S
O238 C208 1.325 . S
O239 Li177 1.961 . S
O239 Li178 1.970 . S
O239 Li179 1.956 . S
O239 C214 1.325 . S
H240 C182 0.929 . S
H241 C183 0.930 . S
H242 C184 0.930 . S
H243 C185 0.930 . S
H244 C187 0.930 . S
H245 C189 0.929 . S
H246 C190 0.930 . S
H247 C191 0.930 . S
H248 C194 0.930 . S
H249 C197 0.929 . S
H250 C202 0.929 . S
H251 C203 0.930 . S
H252 C210 0.929 . S
H253 C211 0.930 . S
H254 C212 0.930 . S
H255 C213 0.930 . S
H256 C215 0.929 . S
H257 C216 0.930 . S
H258 C217 0.930 . S
H259 C218 0.930 1_554 S
H260 C222 0.929 . S
H261 C224 0.930 . S
H262 C230 0.929 . S
H263 C231 0.930 . S
Li264 N281 1.990 . S
Li264 O324 1.956 . S
Li264 O325 1.970 . S
Li264 O326 1.961 . S
Li265 N289 1.990 . S
Li265 O324 1.970 . S
Li265 O325 1.956 . S
Li265 O327 1.961 . S
Li266 N311 1.990 . S
Li266 O324 1.961 . S
Li266 O326 1.956 . S
Li266 O327 1.970 . S
Li267 N317 1.990 . S
Li267 O325 1.961 . S
Li267 O326 1.970 . S
Li267 O327 1.956 . S
C268 C270 1.348 . S
C268 C271 1.356 . S
C268 O324 1.325 . S
N269 C272 1.314 . S
N269 C273 1.279 . S
C270 C268 1.348 . S
C270 C272 1.353 . S
C270 H328 0.929 . S
C271 C268 1.356 . S
C271 C273 1.358 . S
C271 H329 0.930 . S
C272 N269 1.314 . S
C272 C270 1.353 . S
C272 H330 0.930 . S
C273 N269 1.279 . S
C273 C271 1.358 . S
C273 H331 0.930 . S
C274 C277 1.348 . S
C274 C278 1.356 . S
C274 O325 1.325 . S
C275 N276 1.279 . S
C275 C278 1.358 . S
C275 H332 0.930 . S
N276 C275 1.279 . S
N276 C279 1.314 . S
C277 C274 1.348 . S
C277 C279 1.353 . S
C277 H333 0.929 . S
C278 C274 1.356 . S
C278 C275 1.358 . S
C278 H334 0.930 . S
C279 N276 1.314 . S
C279 C277 1.353 . S
C279 H335 0.930 . S
C280 N281 1.314 . S
C280 C285 1.353 . S
C280 H286 0.930 . S
N281 Li264 1.990 . S
N281 C280 1.314 . S
N281 C283 1.279 . S
C282 C283 1.358 . S
C282 C284 1.356 . S
C282 H336 0.930 . S
C283 N281 1.279 . S
C283 C282 1.358 . S
C283 H287 0.930 . S
C284 C282 1.356 . S
C284 C285 1.348 . S
C285 C280 1.353 . S
C285 C284 1.348 . S
C285 H337 0.929 . S
H286 C280 0.930 . S
H287 C283 0.930 . S
C288 N289 1.314 . S
C288 C290 1.353 . S
C288 H294 0.930 . S
N289 Li265 1.990 . S
N289 C288 1.314 . S
N289 C292 1.279 . S
C290 C288 1.353 . S
C290 C293 1.348 . S
C290 H338 0.929 . S
C291 C292 1.358 . S
C291 C293 1.356 . S
C291 H339 0.930 . S
C292 N289 1.279 . S
C292 C291 1.358 . S
C292 H295 0.930 . S
C293 C290 1.348 . S
C293 C291 1.356 . S
H294 C288 0.930 . S
H295 C292 0.930 . S
C296 C298 1.348 . S
C296 C299 1.356 . S
C296 O326 1.325 . S
N297 C300 1.314 . S
N297 C301 1.279 . S
C298 C296 1.348 . S
C298 C300 1.353 . S
C298 H340 0.929 . S
C299 C296 1.356 . S
C299 C301 1.358 . S
C299 H341 0.930 . S
C300 N297 1.314 . S
C300 C298 1.353 . S
C300 H342 0.930 . S
C301 N297 1.279 . S
C301 C299 1.358 . S
C301 H343 0.930 . S
C302 C303 1.348 . S
C302 C304 1.356 . S
C302 O327 1.325 . S
C303 C302 1.348 . S
C303 C305 1.353 . S
C303 H344 0.929 . S
C304 C302 1.356 . S
C304 C306 1.358 . S
C304 H345 0.930 . S
C305 C303 1.353 . S
C305 N307 1.314 . S
C305 H346 0.930 . S
C306 C304 1.358 . S
C306 N307 1.279 . S
C306 H347 0.930 . S
N307 C305 1.314 . S
N307 C306 1.279 . S
C308 C310 1.353 . S
C308 N311 1.314 . S
C308 H314 0.930 . S
C309 N311 1.279 . S
C309 C312 1.358 . S
C309 H315 0.930 . S
C310 C308 1.353 . S
C310 C313 1.348 . S
C310 H348 0.929 . S
N311 Li266 1.990 . S
N311 C308 1.314 . S
N311 C309 1.279 . S
C312 C309 1.358 . S
C312 C313 1.356 . S
C312 H349 0.930 . S
C313 C310 1.348 . S
C313 C312 1.356 . S
H314 C308 0.930 . S
H315 C309 0.930 . S
C316 N317 1.314 . S
C316 C318 1.353 . S
C316 H322 0.930 . S
N317 Li267 1.990 . S
N317 C316 1.314 . S
N317 C320 1.279 . S
C318 C316 1.353 . S
C318 C321 1.348 . S
C318 H350 0.929 . S
C319 C320 1.358 . S
C319 C321 1.356 . S
C319 H351 0.930 . S
C320 N317 1.279 . S
C320 C319 1.358 . S
C320 H323 0.930 . S
C321 C318 1.348 . S
C321 C319 1.356 . S
H322 C316 0.930 . S
H323 C320 0.930 . S
O324 Li264 1.956 . S
O324 Li265 1.970 . S
O324 Li266 1.961 . S
O324 C268 1.325 . S
O325 Li264 1.970 . S
O325 Li265 1.956 . S
O325 Li267 1.961 . S
O325 C274 1.325 . S
O326 Li264 1.961 . S
O326 Li266 1.956 . S
O326 Li267 1.970 . S
O326 C296 1.325 . S
O327 Li265 1.961 . S
O327 Li266 1.970 . S
O327 Li267 1.956 . S
O327 C302 1.325 . S
H328 C270 0.929 . S
H329 C271 0.930 . S
H330 C272 0.930 . S
H331 C273 0.930 . S
H332 C275 0.930 . S
H333 C277 0.929 . S
H334 C278 0.930 . S
H335 C279 0.930 . S
H336 C282 0.930 . S
H337 C285 0.929 . S
H338 C290 0.929 . S
H339 C291 0.930 . S
H340 C298 0.929 . S
H341 C299 0.930 . S
H342 C300 0.930 . S
H343 C301 0.930 . S
H344 C303 0.929 . S
H345 C304 0.930 . S
H346 C305 0.930 . S
H347 C306 0.930 . S
H348 C310 0.929 . S
H349 C312 0.930 . S
H350 C318 0.929 . S
H351 C319 0.930 . S
Li352 N369 1.990 . S
Li352 O412 1.956 . S
Li352 O413 1.970 . S
Li352 O414 1.961 . S
Li353 N377 1.990 . S
Li353 O412 1.970 . S
Li353 O413 1.956 . S
Li353 O415 1.961 . S
Li354 N399 1.990 . S
Li354 O412 1.961 . S
Li354 O414 1.956 . S
Li354 O415 1.970 . S
Li355 N405 1.990 . S
Li355 O413 1.961 . S
Li355 O414 1.970 . S
Li355 O415 1.956 . S
C356 C358 1.348 . S
C356 C359 1.356 . S
C356 O412 1.325 . S
N357 C360 1.314 . S
N357 C361 1.279 . S
C358 C356 1.348 . S
C358 C360 1.353 . S
C358 H416 0.929 . S
C359 C356 1.356 . S
C359 C361 1.358 . S
C359 H417 0.930 . S
C360 N357 1.314 . S
C360 C358 1.353 . S
C360 H418 0.930 . S
C361 N357 1.279 . S
C361 C359 1.358 . S
C361 H419 0.930 . S
C362 C365 1.348 . S
C362 C366 1.356 . S
C362 O413 1.325 . S
C363 N364 1.279 . S
C363 C366 1.358 . S
C363 H420 0.930 . S
N364 C363 1.279 . S
N364 C367 1.314 . S
C365 C362 1.348 . S
C365 C367 1.353 . S
C365 H421 0.929 . S
C366 C362 1.356 . S
C366 C363 1.358 . S
C366 H422 0.930 . S
C367 N364 1.314 . S
C367 C365 1.353 . S
C367 H423 0.965 . S
C368 N369 1.314 . S
C368 C373 1.353 . S
C368 H374 0.930 . S
N369 Li352 1.990 . S
N369 C368 1.314 . S
N369 C371 1.279 . S
C370 C371 1.358 . S
C370 C372 1.356 . S
C370 H424 0.930 . S
C371 N369 1.279 . S
C371 C370 1.358 . S
C371 H375 0.930 . S
C372 C370 1.356 . S
C372 C373 1.348 . S
C373 C368 1.353 . S
C373 C372 1.348 . S
C373 H425 0.929 . S
H374 C368 0.930 . S
H375 C371 0.930 . S
C376 N377 1.314 . S
C376 C378 1.353 . S
C376 H382 0.930 . S
N377 Li353 1.990 . S
N377 C376 1.314 . S
N377 C380 1.279 . S
C378 C376 1.353 . S
C378 C381 1.348 . S
C378 H426 0.929 . S
C379 C380 1.358 . S
C379 C381 1.356 . S
C379 H427 0.930 . S
C380 N377 1.279 . S
C380 C379 1.358 . S
C380 H383 0.930 . S
C381 C378 1.348 . S
C381 C379 1.356 . S
H382 C376 0.930 . S
H383 C380 0.930 . S
C384 C386 1.348 . S
C384 C387 1.356 . S
C384 O414 1.325 . S
N385 C388 1.314 . S
N385 C389 1.279 . S
C386 C384 1.348 . S
C386 C388 1.353 . S
C386 H428 0.929 . S
C387 C384 1.356 . S
C387 C389 1.358 . S
C387 H429 0.930 . S
C388 N385 1.314 . S
C388 C386 1.353 . S
C388 H430 0.930 . S
C389 N385 1.279 . S
C389 C387 1.358 . S
C389 H431 0.930 . S
C390 C391 1.348 . S
C390 C392 1.356 . S
C390 O415 1.325 . S
C391 C390 1.348 . S
C391 C393 1.353 . S
C391 H432 0.929 . S
C392 C390 1.356 . S
C392 C394 1.358 . S
C392 H433 0.930 . S
C393 C391 1.353 . S
C393 N395 1.314 . S
C393 H434 0.930 . S
C394 C392 1.358 . S
C394 N395 1.279 . S
C394 H435 0.930 . S
N395 C393 1.314 . S
N395 C394 1.279 . S
C396 C398 1.353 . S
C396 N399 1.314 . S
C396 H402 0.930 . S
C397 N399 1.279 . S
C397 C400 1.358 . S
C397 H403 0.930 . S
C398 C396 1.353 . S
C398 C401 1.348 . S
C398 H436 0.929 . S
N399 Li354 1.990 . S
N399 C396 1.314 . S
N399 C397 1.279 . S
C400 C397 1.358 . S
C400 C401 1.356 . S
C400 H437 0.930 . S
C401 C398 1.348 . S
C401 C400 1.356 . S
H402 C396 0.930 . S
H403 C397 0.930 . S
C404 N405 1.314 . S
C404 C406 1.353 . S
C404 H410 0.930 . S
N405 Li355 1.990 . S
N405 C404 1.314 . S
N405 C408 1.279 . S
C406 C404 1.353 . S
C406 C409 1.348 . S
C406 H438 0.929 . S
C407 C408 1.358 . S
C407 C409 1.356 . S
C407 H439 0.930 . S
C408 N405 1.279 . S
C408 C407 1.358 . S
C408 H411 0.930 . S
C409 C406 1.348 . S
C409 C407 1.356 . S
H410 C404 0.930 . S
H411 C408 0.930 . S
O412 Li352 1.956 . S
O412 Li353 1.970 . S
O412 Li354 1.961 . S
O412 C356 1.325 . S
O413 Li352 1.970 . S
O413 Li353 1.956 . S
O413 Li355 1.961 . S
O413 C362 1.325 . S
O414 Li352 1.961 . S
O414 Li354 1.956 . S
O414 Li355 1.970 . S
O414 C384 1.325 . S
O415 Li353 1.961 . S
O415 Li354 1.970 . S
O415 Li355 1.956 . S
O415 C390 1.325 . S
H416 C358 0.929 . S
H417 C359 0.930 . S
H418 C360 0.930 . S
H419 C361 0.930 . S
H420 C363 0.930 . S
H421 C365 0.929 . S
H422 C366 0.930 . S
H423 C367 0.965 . S
H424 C370 0.930 . S
H425 C373 0.929 . S
H426 C378 0.929 . S
H427 C379 0.930 . S
H428 C386 0.929 . S
H429 C387 0.930 . S
H430 C388 0.930 . S
H431 C389 0.930 . S
H432 C391 0.929 . S
H433 C392 0.930 . S
H434 C393 0.930 . S
H435 C394 0.930 . S
H436 C398 0.929 . S
H437 C400 0.930 . S
H438 C406 0.929 . S
H439 C407 0.930 . S
Li440 N457 1.990 . S
Li440 O500 1.956 . S
Li440 O501 1.970 . S
Li440 O502 1.961 . S
Li441 N465 1.990 . S
Li441 O500 1.970 . S
Li441 O501 1.956 . S
Li441 O503 1.961 . S
Li442 N487 1.990 . S
Li442 O500 1.961 . S
Li442 O502 1.956 . S
Li442 O503 1.970 . S
Li443 N493 1.990 . S
Li443 O501 1.961 . S
Li443 O502 1.970 . S
Li443 O503 1.956 . S
C444 C446 1.348 . S
C444 C447 1.356 . S
C444 O500 1.325 . S
N445 C448 1.314 . S
N445 C449 1.279 . S
C446 C444 1.348 . S
C446 C448 1.353 . S
C446 H504 0.929 . S
C447 C444 1.356 . S
C447 C449 1.358 . S
C447 H505 0.930 . S
C448 N445 1.314 . S
C448 C446 1.353 . S
C448 H506 0.930 . S
C449 N445 1.279 . S
C449 C447 1.358 . S
C449 H507 0.930 . S
C450 C453 1.348 . S
C450 C454 1.356 . S
C450 O501 1.325 . S
C451 N452 1.279 . S
C451 C454 1.358 . S
C451 H508 0.930 . S
N452 C451 1.279 . S
N452 C455 1.314 . S
C453 C450 1.348 . S
C453 C455 1.353 . S
C453 H509 0.929 . S
C454 C450 1.356 . S
C454 C451 1.358 . S
C454 H510 0.930 . S
C455 N452 1.314 . S
C455 C453 1.353 . S
C455 H511 0.930 . S
C456 N457 1.314 . S
C456 C461 1.353 . S
C456 H462 0.930 . S
N457 Li440 1.990 . S
N457 C456 1.314 . S
N457 C459 1.279 . S
C458 C459 1.358 . S
C458 C460 1.356 . S
C458 H512 0.930 . S
C459 N457 1.279 . S
C459 C458 1.358 . S
C459 H463 0.930 . S
C460 C458 1.356 . S
C460 C461 1.348 . S
C461 C456 1.353 . S
C461 C460 1.348 . S
C461 H513 0.929 . S
H462 C456 0.930 . S
H463 C459 0.930 . S
C464 N465 1.314 . S
C464 C466 1.353 . S
C464 H470 0.930 . S
N465 Li441 1.990 . S
N465 C464 1.314 . S
N465 C468 1.279 . S
C466 C464 1.353 . S
C466 C469 1.348 . S
C466 H514 0.929 . S
C467 C468 1.358 . S
C467 C469 1.356 . S
C467 H515 0.930 . S
C468 N465 1.279 . S
C468 C467 1.358 . S
C468 H471 0.930 . S
C469 C466 1.348 . S
C469 C467 1.356 . S
H470 C464 0.930 . S
H471 C468 0.930 . S
C472 C474 1.348 . S
C472 C475 1.356 . S
C472 O502 1.325 . S
N473 C476 1.314 . S
N473 C477 1.279 . S
C474 C472 1.348 . S
C474 C476 1.353 . S
C474 H516 0.929 . S
C475 C472 1.356 . S
C475 C477 1.358 . S
C475 H517 0.930 . S
C476 N473 1.314 . S
C476 C474 1.353 . S
C476 H518 0.930 . S
C477 N473 1.279 . S
C477 C475 1.358 . S
C477 H519 0.930 . S
C478 C479 1.348 . S
C478 C480 1.356 . S
C478 O503 1.325 . S
C479 C478 1.348 . S
C479 C481 1.353 . S
C479 H520 0.929 . S
C480 C478 1.356 . S
C480 C482 1.358 . S
C480 H521 0.930 . S
C481 C479 1.353 . S
C481 N483 1.314 . S
C481 H522 0.930 . S
C482 C480 1.358 . S
C482 N483 1.279 . S
C482 H523 0.930 . S
N483 C481 1.314 . S
N483 C482 1.279 . S
C484 C486 1.353 . S
C484 N487 1.314 . S
C484 H490 0.930 . S
C485 N487 1.279 . S
C485 C488 1.358 . S
C485 H491 0.930 . S
C486 C484 1.353 . S
C486 C489 1.348 . S
C486 H524 0.929 . S
N487 Li442 1.990 . S
N487 C484 1.314 . S
N487 C485 1.279 . S
C488 C485 1.358 . S
C488 C489 1.356 . S
C488 H525 0.930 . S
C489 C486 1.348 . S
C489 C488 1.356 . S
H490 C484 0.930 . S
H491 C485 0.930 . S
C492 N493 1.314 . S
C492 C494 1.353 . S
C492 H498 0.930 . S
N493 Li443 1.990 . S
N493 C492 1.314 . S
N493 C496 1.279 . S
C494 C492 1.353 . S
C494 C497 1.348 . S
C494 H526 0.929 . S
C495 C496 1.358 . S
C495 C497 1.356 . S
C495 H527 0.930 . S
C496 N493 1.279 . S
C496 C495 1.358 . S
C496 H499 0.930 . S
C497 C494 1.348 . S
C497 C495 1.356 . S
H498 C492 0.930 . S
H499 C496 0.930 . S
O500 Li440 1.956 . S
O500 Li441 1.970 . S
O500 Li442 1.961 . S
O500 C444 1.325 . S
O501 Li440 1.970 . S
O501 Li441 1.956 . S
O501 Li443 1.961 . S
O501 C450 1.325 . S
O502 Li440 1.961 . S
O502 Li442 1.956 . S
O502 Li443 1.970 . S
O502 C472 1.325 . S
O503 Li441 1.961 . S
O503 Li442 1.970 . S
O503 Li443 1.956 . S
O503 C478 1.325 . S
H504 C446 0.929 . S
H505 C447 0.930 . S
H506 C448 0.930 . S
H507 C449 0.930 . S
H508 C451 0.930 . S
H509 C453 0.929 . S
H510 C454 0.930 . S
H511 C455 0.930 . S
H512 C458 0.930 . S
H513 C461 0.929 . S
H514 C466 0.929 . S
H515 C467 0.930 . S
H516 C474 0.929 . S
H517 C475 0.930 . S
H518 C476 0.930 . S
H519 C477 0.930 . S
H520 C479 0.929 . S
H521 C480 0.930 . S
H522 C481 0.930 . S
H523 C482 0.930 . S
H524 C486 0.929 . S
H525 C488 0.930 . S
H526 C494 0.929 . S
H527 C495 0.930 . S
Li528 N545 1.990 . S
Li528 O588 1.956 . S
Li528 O589 1.970 . S
Li528 O590 1.961 . S
Li529 N553 1.990 . S
Li529 O588 1.970 . S
Li529 O589 1.956 . S
Li529 O591 1.961 . S
Li530 N575 1.990 . S
Li530 O588 1.961 . S
Li530 O590 1.956 . S
Li530 O591 1.970 . S
Li531 N581 1.990 . S
Li531 O589 1.961 . S
Li531 O590 1.970 . S
Li531 O591 1.956 . S
C532 C534 1.348 . S
C532 C535 1.356 . S
C532 O588 1.325 . S
N533 C536 1.314 . S
N533 C537 1.279 . S
C534 C532 1.348 . S
C534 C536 1.353 . S
C534 H592 0.929 . S
C535 C532 1.356 . S
C535 C537 1.358 . S
C535 H593 0.930 . S
C536 N533 1.314 . S
C536 C534 1.353 . S
C536 H594 0.930 . S
C537 N533 1.279 . S
C537 C535 1.358 . S
C537 H595 0.930 . S
C538 C541 1.348 . S
C538 C542 1.356 . S
C538 O589 1.325 . S
C539 N540 1.279 . S
C539 C542 1.358 . S
C539 H596 0.930 . S
N540 C539 1.279 . S
N540 C543 1.314 . S
C541 C538 1.348 . S
C541 C543 1.353 . S
C541 H597 0.929 . S
C542 C538 1.356 . S
C542 C539 1.358 . S
C542 H598 0.930 . S
C543 N540 1.314 . S
C543 C541 1.353 . S
C543 H599 0.930 . S
C544 N545 1.314 . S
C544 C549 1.353 . S
C544 H550 0.930 . S
N545 Li528 1.990 . S
N545 C544 1.314 . S
N545 C547 1.279 . S
C546 C547 1.358 . S
C546 C548 1.356 . S
C546 H600 0.930 . S
C547 N545 1.279 . S
C547 C546 1.358 . S
C547 H551 0.930 . S
C548 C546 1.356 . S
C548 C549 1.348 . S
C549 C544 1.353 . S
C549 C548 1.348 . S
C549 H601 0.929 . S
H550 C544 0.930 . S
H551 C547 0.930 . S
C552 N553 1.314 . S
C552 C554 1.353 . S
C552 H558 0.930 . S
N553 Li529 1.990 . S
N553 C552 1.314 . S
N553 C556 1.279 . S
C554 C552 1.353 . S
C554 C557 1.348 . S
C554 H602 0.929 . S
C555 C556 1.358 . S
C555 C557 1.356 . S
C555 H603 0.930 . S
C556 N553 1.279 . S
C556 C555 1.358 . S
C556 H559 0.930 . S
C557 C554 1.348 . S
C557 C555 1.356 . S
H558 C552 0.930 . S
H559 C556 0.930 . S
C560 C562 1.348 . S
C560 C563 1.356 . S
C560 O590 1.325 . S
N561 C564 1.314 . S
N561 C565 1.279 . S
C562 C560 1.348 . S
C562 C564 1.353 . S
C562 H604 0.929 . S
C563 C560 1.356 . S
C563 C565 1.358 . S
C563 H605 0.930 . S
C564 N561 1.314 . S
C564 C562 1.353 . S
C564 H606 0.965 . S
C565 N561 1.279 . S
C565 C563 1.358 . S
C565 H607 0.930 . S
C566 C567 1.348 . S
C566 C568 1.356 . S
C566 O591 1.325 . S
C567 C566 1.348 . S
C567 C569 1.353 . S
C567 H608 0.929 . S
C568 C566 1.356 . S
C568 C570 1.358 . S
C568 H609 0.930 . S
C569 C567 1.353 . S
C569 N571 1.314 . S
C569 H610 0.930 . S
C570 C568 1.358 . S
C570 N571 1.279 . S
C570 H611 0.930 . S
N571 C569 1.314 . S
N571 C570 1.279 . S
C572 C574 1.353 . S
C572 N575 1.314 . S
C572 H578 0.930 . S
C573 N575 1.279 . S
C573 C576 1.358 . S
C573 H579 0.930 . S
C574 C572 1.353 . S
C574 C577 1.348 . S
C574 H612 0.929 . S
N575 Li530 1.990 . S
N575 C572 1.314 . S
N575 C573 1.279 . S
C576 C573 1.358 . S
C576 C577 1.356 . S
C576 H613 0.930 . S
C577 C574 1.348 . S
C577 C576 1.356 . S
H578 C572 0.930 . S
H579 C573 0.930 . S
C580 N581 1.314 . S
C580 C582 1.353 . S
C580 H586 0.930 . S
N581 Li531 1.990 . S
N581 C580 1.314 . S
N581 C584 1.279 . S
C582 C580 1.353 . S
C582 C585 1.348 . S
C582 H614 0.929 . S
C583 C584 1.358 . S
C583 C585 1.356 . S
C583 H615 0.930 . S
C584 N581 1.279 . S
C584 C583 1.358 . S
C584 H587 0.930 . S
C585 C582 1.348 . S
C585 C583 1.356 . S
H586 C580 0.930 . S
H587 C584 0.930 . S
O588 Li528 1.956 . S
O588 Li529 1.970 . S
O588 Li530 1.961 . S
O588 C532 1.325 . S
O589 Li528 1.970 . S
O589 Li529 1.956 . S
O589 Li531 1.961 . S
O589 C538 1.325 . S
O590 Li528 1.961 . S
O590 Li530 1.956 . S
O590 Li531 1.970 . S
O590 C560 1.325 . S
O591 Li529 1.961 . S
O591 Li530 1.970 . S
O591 Li531 1.956 . S
O591 C566 1.325 . S
H592 C534 0.929 . S
H593 C535 0.930 . S
H594 C536 0.930 . S
H595 C537 0.930 . S
H596 C539 0.930 . S
H597 C541 0.929 . S
H598 C542 0.930 . S
H599 C543 0.930 . S
H600 C546 0.930 . S
H601 C549 0.929 . S
H602 C554 0.929 . S
H603 C555 0.930 . S
H604 C562 0.929 . S
H605 C563 0.930 . S
H606 C564 0.965 . S
H607 C565 0.930 . S
H608 C567 0.929 . S
H609 C568 0.930 . S
H610 C569 0.930 . S
H611 C570 0.930 . S
H612 C574 0.929 . S
H613 C576 0.930 . S
H614 C582 0.929 . S
H615 C583 0.930 . S
Li616 N633 1.990 . S
Li616 O676 1.956 . S
Li616 O677 1.970 . S
Li616 O678 1.961 . S
Li617 N641 1.990 . S
Li617 O676 1.970 . S
Li617 O677 1.956 . S
Li617 O679 1.961 . S
Li618 N663 1.990 . S
Li618 O676 1.961 . S
Li618 O678 1.956 . S
Li618 O679 1.970 . S
Li619 N669 1.990 . S
Li619 O677 1.961 . S
Li619 O678 1.970 . S
Li619 O679 1.956 . S
C620 C622 1.348 . S
C620 C623 1.356 . S
C620 O676 1.325 . S
N621 C624 1.314 . S
N621 C625 1.279 . S
C622 C620 1.348 . S
C622 C624 1.353 . S
C622 H680 0.929 . S
C623 C620 1.356 . S
C623 C625 1.358 . S
C623 H681 0.930 . S
C624 N621 1.314 . S
C624 C622 1.353 . S
C624 H682 0.930 . S
C625 N621 1.279 . S
C625 C623 1.358 . S
C625 H683 0.930 . S
C626 C629 1.348 . S
C626 C630 1.356 . S
C626 O677 1.325 . S
C627 N628 1.279 . S
C627 C630 1.358 . S
C627 H684 0.930 . S
N628 C627 1.279 . S
N628 C631 1.314 . S
C629 C626 1.348 . S
C629 C631 1.353 . S
C629 H685 0.929 . S
C630 C626 1.356 . S
C630 C627 1.358 . S
C630 H686 0.930 . S
C631 N628 1.314 . S
C631 C629 1.353 . S
C631 H687 0.930 . S
C632 N633 1.314 . S
C632 C637 1.353 . S
C632 H638 0.930 . S
N633 Li616 1.990 . S
N633 C632 1.314 . S
N633 C635 1.279 . S
C634 C635 1.358 . S
C634 C636 1.356 . S
C634 H688 0.930 . S
C635 N633 1.279 . S
C635 C634 1.358 . S
C635 H639 0.930 . S
C636 C634 1.356 . S
C636 C637 1.348 . S
C637 C632 1.353 . S
C637 C636 1.348 . S
C637 H689 0.929 . S
H638 C632 0.930 . S
H639 C635 0.930 . S
C640 N641 1.314 . S
C640 C642 1.353 . S
C640 H646 0.930 . S
N641 Li617 1.990 . S
N641 C640 1.314 . S
N641 C644 1.279 . S
C642 C640 1.353 . S
C642 C645 1.348 . S
C642 H690 0.929 . S
C643 C644 1.358 . S
C643 C645 1.356 . S
C643 H691 0.930 . S
C644 N641 1.279 . S
C644 C643 1.358 . S
C644 H647 0.930 . S
C645 C642 1.348 . S
C645 C643 1.356 . S
H646 C640 0.930 . S
H647 C644 0.930 . S
C648 C650 1.348 . S
C648 C651 1.356 . S
C648 O678 1.325 . S
N649 C652 1.314 . S
N649 C653 1.279 . S
C650 C648 1.348 . S
C650 C652 1.353 . S
C650 H692 0.929 . S
C651 C648 1.356 . S
C651 C653 1.358 . S
C651 H693 0.930 . S
C652 N649 1.314 . S
C652 C650 1.353 . S
C652 H694 0.930 . S
C653 N649 1.279 . S
C653 C651 1.358 . S
C653 H695 0.930 . S
C654 C655 1.348 . S
C654 C656 1.356 . S
C654 O679 1.325 . S
C655 C654 1.348 . S
C655 C657 1.353 . S
C655 H696 0.929 . S
C656 C654 1.356 . S
C656 C658 1.358 . S
C656 H697 0.930 . S
C657 C655 1.353 . S
C657 N659 1.314 . S
C657 H698 0.930 . S
C658 C656 1.358 . S
C658 N659 1.279 . S
C658 H699 0.930 . S
N659 C657 1.314 . S
N659 C658 1.279 . S
C660 C662 1.353 . S
C660 N663 1.314 . S
C660 H666 0.930 . S
C661 N663 1.279 . S
C661 C664 1.358 . S
C661 H667 0.930 . S
C662 C660 1.353 . S
C662 C665 1.348 . S
C662 H700 0.929 . S
N663 Li618 1.990 . S
N663 C660 1.314 . S
N663 C661 1.279 . S
C664 C661 1.358 . S
C664 C665 1.356 . S
C664 H701 0.930 . S
C665 C662 1.348 . S
C665 C664 1.356 . S
H666 C660 0.930 . S
H667 C661 0.930 . S
C668 N669 1.314 . S
C668 C670 1.353 . S
C668 H674 0.930 . S
N669 Li619 1.990 . S
N669 C668 1.314 . S
N669 C672 1.279 . S
C670 C668 1.353 . S
C670 C673 1.348 . S
C670 H702 0.929 . S
C671 C672 1.358 . S
C671 C673 1.356 . S
C671 H703 0.930 . S
C672 N669 1.279 . S
C672 C671 1.358 . S
C672 H675 0.930 . S
C673 C670 1.348 . S
C673 C671 1.356 . S
H674 C668 0.930 . S
H675 C672 0.930 . S
O676 Li616 1.956 . S
O676 Li617 1.970 . S
O676 Li618 1.961 . S
O676 C620 1.325 . S
O677 Li616 1.970 . S
O677 Li617 1.956 . S
O677 Li619 1.961 . S
O677 C626 1.325 . S
O678 Li616 1.961 . S
O678 Li618 1.956 . S
O678 Li619 1.970 . S
O678 C648 1.325 . S
O679 Li617 1.961 . S
O679 Li618 1.970 . S
O679 Li619 1.956 . S
O679 C654 1.325 . S
H680 C622 0.929 . S
H681 C623 0.930 . S
H682 C624 0.930 . S
H683 C625 0.930 . S
H684 C627 0.930 . S
H685 C629 0.929 . S
H686 C630 0.930 . S
H687 C631 0.930 . S
H688 C634 0.930 . S
H689 C637 0.929 . S
H690 C642 0.929 . S
H691 C643 0.930 . S
H692 C650 0.929 . S
H693 C651 0.930 . S
H694 C652 0.930 . S
H695 C653 0.930 . S
H696 C655 0.929 . S
H697 C656 0.930 . S
H698 C657 0.930 . S
H699 C658 0.930 . S
H700 C662 0.929 . S
H701 C664 0.930 . S
H702 C670 0.929 . S
H703 C671 0.930 . S
Li704 N721 1.990 . S
Li704 O764 1.956 . S
Li704 O765 1.970 . S
Li704 O766 1.961 . S
Li705 N729 1.990 . S
Li705 O764 1.970 . S
Li705 O765 1.956 . S
Li705 O767 1.961 . S
Li706 N751 1.990 . S
Li706 O764 1.961 . S
Li706 O766 1.956 . S
Li706 O767 1.970 . S
Li707 N757 1.990 . S
Li707 O765 1.961 . S
Li707 O766 1.970 . S
Li707 O767 1.956 . S
C708 C710 1.348 . S
C708 C711 1.356 . S
C708 O764 1.325 . S
N709 C712 1.314 . S
N709 C713 1.279 . S
C710 C708 1.348 . S
C710 C712 1.353 . S
C710 H768 0.929 . S
C711 C708 1.356 . S
C711 C713 1.358 . S
C711 H769 0.930 . S
C712 N709 1.314 . S
C712 C710 1.353 . S
C712 H770 0.930 . S
C713 N709 1.279 . S
C713 C711 1.358 . S
C713 H771 0.930 1_554 S
C714 C717 1.348 . S
C714 C718 1.356 . S
C714 O765 1.325 . S
C715 N716 1.279 . S
C715 C718 1.358 . S
C715 H772 0.930 . S
N716 C715 1.279 . S
N716 C719 1.314 . S
C717 C714 1.348 . S
C717 C719 1.353 . S
C717 H773 0.929 . S
C718 C714 1.356 . S
C718 C715 1.358 . S
C718 H774 0.930 . S
C719 N716 1.314 . S
C719 C717 1.353 . S
C719 H775 0.930 . S
C720 N721 1.314 . S
C720 C725 1.353 . S
C720 H726 0.930 . S
N721 Li704 1.990 . S
N721 C720 1.314 . S
N721 C723 1.279 . S
C722 C723 1.358 . S
C722 C724 1.356 . S
C722 H776 0.930 . S
C723 N721 1.279 . S
C723 C722 1.358 . S
C723 H727 0.930 . S
C724 C722 1.356 . S
C724 C725 1.348 . S
C725 C720 1.353 . S
C725 C724 1.348 . S
C725 H777 0.929 . S
H726 C720 0.930 . S
H727 C723 0.930 . S
C728 N729 1.314 . S
C728 C730 1.353 . S
C728 H734 0.930 . S
N729 Li705 1.990 . S
N729 C728 1.314 . S
N729 C732 1.279 . S
C730 C728 1.353 . S
C730 C733 1.348 . S
C730 H778 0.929 . S
C731 C732 1.358 . S
C731 C733 1.356 . S
C731 H779 0.930 . S
C732 N729 1.279 . S
C732 C731 1.358 . S
C732 H735 0.930 . S
C733 C730 1.348 . S
C733 C731 1.356 . S
H734 C728 0.930 . S
H735 C732 0.930 . S
C736 C738 1.348 . S
C736 C739 1.356 . S
C736 O766 1.325 . S
N737 C740 1.314 . S
N737 C741 1.279 . S
C738 C736 1.348 . S
C738 C740 1.353 . S
C738 H780 0.929 . S
C739 C736 1.356 . S
C739 C741 1.358 . S
C739 H781 0.930 . S
C740 N737 1.314 . S
C740 C738 1.353 . S
C740 H782 0.930 . S
C741 N737 1.279 . S
C741 C739 1.358 . S
C741 H783 0.930 . S
C742 C743 1.348 . S
C742 C744 1.356 . S
C742 O767 1.325 . S
C743 C742 1.348 . S
C743 C745 1.353 . S
C743 H784 0.929 . S
C744 C742 1.356 . S
C744 C746 1.358 . S
C744 H785 0.930 . S
C745 C743 1.353 . S
C745 N747 1.314 . S
C745 H786 0.930 . S
C746 C744 1.358 . S
C746 N747 1.279 . S
C746 H787 0.930 . S
N747 C745 1.314 . S
N747 C746 1.279 . S
C748 C750 1.353 . S
C748 N751 1.314 . S
C748 H754 0.930 . S
C749 N751 1.279 . S
C749 C752 1.358 . S
C749 H755 0.930 . S
C750 C748 1.353 . S
C750 C753 1.348 . S
C750 H788 0.929 . S
N751 Li706 1.990 . S
N751 C748 1.314 . S
N751 C749 1.279 . S
C752 C749 1.358 . S
C752 C753 1.356 . S
C752 H789 0.930 . S
C753 C750 1.348 . S
C753 C752 1.356 . S
H754 C748 0.930 . S
H755 C749 0.930 . S
C756 N757 1.314 . S
C756 C758 1.353 . S
C756 H762 0.930 . S
N757 Li707 1.990 . S
N757 C756 1.314 . S
N757 C760 1.279 . S
C758 C756 1.353 . S
C758 C761 1.348 . S
C758 H790 0.929 . S
C759 C760 1.358 . S
C759 C761 1.356 . S
C759 H791 0.930 . S
C760 N757 1.279 . S
C760 C759 1.358 . S
C760 H763 0.930 . S
C761 C758 1.348 . S
C761 C759 1.356 . S
H762 C756 0.930 . S
H763 C760 0.930 . S
O764 Li704 1.956 . S
O764 Li705 1.970 . S
O764 Li706 1.961 . S
O764 C708 1.325 . S
O765 Li704 1.970 . S
O765 Li705 1.956 . S
O765 Li707 1.961 . S
O765 C714 1.325 . S
O766 Li704 1.961 . S
O766 Li706 1.956 . S
O766 Li707 1.970 . S
O766 C736 1.325 . S
O767 Li705 1.961 . S
O767 Li706 1.970 . S
O767 Li707 1.956 . S
O767 C742 1.325 . S
H768 C710 0.929 . S
H769 C711 0.930 . S
H770 C712 0.930 . S
H771 C713 0.930 1_556 S
H772 C715 0.930 . S
H773 C717 0.929 . S
H774 C718 0.930 . S
H775 C719 0.930 . S
H776 C722 0.930 . S
H777 C725 0.929 . S
H778 C730 0.929 . S
H779 C731 0.930 . S
H780 C738 0.929 . S
H781 C739 0.930 . S
H782 C740 0.930 . S
H783 C741 0.930 . S
H784 C743 0.929 . S
H785 C744 0.930 . S
H786 C745 0.930 . S
H787 C746 0.930 . S
H788 C750 0.929 . S
H789 C752 0.930 . S
H790 C758 0.929 . S
H791 C759 0.930 . S
Li792 N809 1.990 . S
Li792 O852 1.956 . S
Li792 O853 1.970 . S
Li792 O854 1.961 . S
Li793 N817 1.990 . S
Li793 O852 1.970 . S
Li793 O853 1.956 . S
Li793 O855 1.961 . S
Li794 N839 1.990 . S
Li794 O852 1.961 . S
Li794 O854 1.956 . S
Li794 O855 1.970 . S
Li795 N845 1.990 . S
Li795 O853 1.961 . S
Li795 O854 1.970 . S
Li795 O855 1.956 . S
C796 C798 1.348 . S
C796 C799 1.356 . S
C796 O852 1.325 . S
N797 C800 1.314 . S
N797 C801 1.279 . S
C798 C796 1.348 . S
C798 C800 1.353 . S
C798 H856 0.929 . S
C799 C796 1.356 . S
C799 C801 1.358 . S
C799 H857 0.930 . S
C800 N797 1.314 . S
C800 C798 1.353 . S
C800 H858 0.930 . S
C801 N797 1.279 . S
C801 C799 1.358 . S
C801 H859 0.930 . S
C802 C805 1.348 . S
C802 C806 1.356 . S
C802 O853 1.325 . S
C803 N804 1.279 . S
C803 C806 1.358 . S
C803 H860 0.930 . S
N804 C803 1.279 . S
N804 C807 1.314 . S
C805 C802 1.348 . S
C805 C807 1.353 . S
C805 H861 0.929 . S
C806 C802 1.356 . S
C806 C803 1.358 . S
C806 H862 0.930 . S
C807 N804 1.314 . S
C807 C805 1.353 . S
C807 H863 0.930 . S
C808 N809 1.314 . S
C808 C813 1.353 . S
C808 H814 0.930 . S
N809 Li792 1.990 . S
N809 C808 1.314 . S
N809 C811 1.279 . S
C810 C811 1.358 . S
C810 C812 1.356 . S
C810 H864 0.930 . S
C811 N809 1.279 . S
C811 C810 1.358 . S
C811 H815 0.930 . S
C812 C810 1.356 . S
C812 C813 1.348 . S
C813 C808 1.353 . S
C813 C812 1.348 . S
C813 H865 0.929 . S
H814 C808 0.930 . S
H815 C811 0.930 . S
C816 N817 1.314 . S
C816 C818 1.353 . S
C816 H822 0.930 . S
N817 Li793 1.990 . S
N817 C816 1.314 . S
N817 C820 1.279 . S
C818 C816 1.353 . S
C818 C821 1.348 . S
C818 H866 0.929 . S
C819 C820 1.358 . S
C819 C821 1.356 . S
C819 H867 0.930 . S
C820 N817 1.279 . S
C820 C819 1.358 . S
C820 H823 0.930 . S
C821 C818 1.348 . S
C821 C819 1.356 . S
H822 C816 0.930 . S
H823 C820 0.930 . S
C824 C826 1.348 . S
C824 C827 1.356 . S
C824 O854 1.325 . S
N825 C828 1.314 . S
N825 C829 1.279 . S
C826 C824 1.348 . S
C826 C828 1.353 . S
C826 H868 0.929 . S
C827 C824 1.356 . S
C827 C829 1.358 . S
C827 H869 0.930 . S
C828 N825 1.314 . S
C828 C826 1.353 . S
C828 H870 0.930 . S
C829 N825 1.279 . S
C829 C827 1.358 . S
C829 H871 0.930 . S
C830 C831 1.348 . S
C830 C832 1.356 . S
C830 O855 1.325 . S
C831 C830 1.348 . S
C831 C833 1.353 . S
C831 H872 0.929 . S
C832 C830 1.356 . S
C832 C834 1.358 . S
C832 H873 0.930 . S
C833 C831 1.353 . S
C833 N835 1.314 . S
C833 H874 0.930 . S
C834 C832 1.358 . S
C834 N835 1.279 . S
C834 H875 0.930 . S
N835 C833 1.314 . S
N835 C834 1.279 . S
C836 C838 1.353 . S
C836 N839 1.314 . S
C836 H842 0.930 . S
C837 N839 1.279 . S
C837 C840 1.358 . S
C837 H843 0.930 . S
C838 C836 1.353 . S
C838 C841 1.348 . S
C838 H876 0.929 . S
N839 Li794 1.990 . S
N839 C836 1.314 . S
N839 C837 1.279 . S
C840 C837 1.358 . S
C840 C841 1.356 . S
C840 H877 0.930 . S
C841 C838 1.348 . S
C841 C840 1.356 . S
H842 C836 0.930 . S
H843 C837 0.930 . S
C844 N845 1.314 . S
C844 C846 1.353 . S
C844 H850 0.930 . S
N845 Li795 1.990 . S
N845 C844 1.314 . S
N845 C848 1.279 . S
C846 C844 1.353 . S
C846 C849 1.348 . S
C846 H878 0.929 . S
C847 C848 1.358 . S
C847 C849 1.356 . S
C847 H879 0.930 . S
C848 N845 1.279 . S
C848 C847 1.358 . S
C848 H851 0.930 . S
C849 C846 1.348 . S
C849 C847 1.356 . S
H850 C844 0.930 . S
H851 C848 0.930 . S
O852 Li792 1.956 . S
O852 Li793 1.970 . S
O852 Li794 1.961 . S
O852 C796 1.325 . S
O853 Li792 1.970 . S
O853 Li793 1.956 . S
O853 Li795 1.961 . S
O853 C802 1.325 . S
O854 Li792 1.961 . S
O854 Li794 1.956 . S
O854 Li795 1.970 . S
O854 C824 1.325 . S
O855 Li793 1.961 . S
O855 Li794 1.970 . S
O855 Li795 1.956 . S
O855 C830 1.325 . S
H856 C798 0.929 . S
H857 C799 0.930 . S
H858 C800 0.930 . S
H859 C801 0.930 . S
H860 C803 0.930 . S
H861 C805 0.929 . S
H862 C806 0.930 . S
H863 C807 0.930 . S
H864 C810 0.930 . S
H865 C813 0.929 . S
H866 C818 0.929 . S
H867 C819 0.930 . S
H868 C826 0.929 . S
H869 C827 0.930 . S
H870 C828 0.930 . S
H871 C829 0.930 . S
H872 C831 0.929 . S
H873 C832 0.930 . S
H874 C833 0.930 . S
H875 C834 0.930 . S
H876 C838 0.929 . S
H877 C840 0.930 . S
H878 C846 0.929 . S
H879 C847 0.930 . S
Li880 N897 1.990 . S
Li880 O940 1.956 . S
Li880 O941 1.970 . S
Li880 O942 1.961 . S
Li881 N905 1.990 . S
Li881 O940 1.970 . S
Li881 O941 1.956 . S
Li881 O943 1.961 . S
Li882 N927 1.990 . S
Li882 O940 1.961 . S
Li882 O942 1.956 . S
Li882 O943 1.970 . S
Li883 N933 1.990 . S
Li883 O941 1.961 . S
Li883 O942 1.970 . S
Li883 O943 1.956 . S
C884 C886 1.348 . S
C884 C887 1.356 . S
C884 O940 1.325 . S
N885 C888 1.314 . S
N885 C889 1.279 . S
C886 C884 1.348 . S
C886 C888 1.353 . S
C886 H944 0.929 . S
C887 C884 1.356 . S
C887 C889 1.358 . S
C887 H945 0.930 . S
C888 N885 1.314 . S
C888 C886 1.353 . S
C888 H946 0.930 . S
C889 N885 1.279 . S
C889 C887 1.358 . S
C889 H947 0.930 . S
C890 C893 1.348 . S
C890 C894 1.356 . S
C890 O941 1.325 . S
C891 N892 1.279 . S
C891 C894 1.358 . S
C891 H948 0.930 . S
N892 C891 1.279 . S
N892 C895 1.314 . S
C893 C890 1.348 . S
C893 C895 1.353 . S
C893 H949 0.929 . S
C894 C890 1.356 . S
C894 C891 1.358 . S
C894 H950 0.930 . S
C895 N892 1.314 . S
C895 C893 1.353 . S
C895 H951 0.930 . S
C896 N897 1.314 . S
C896 C901 1.353 . S
C896 H902 0.930 . S
N897 Li880 1.990 . S
N897 C896 1.314 . S
N897 C899 1.279 . S
C898 C899 1.358 . S
C898 C900 1.356 . S
C898 H952 0.930 . S
C899 N897 1.279 . S
C899 C898 1.358 . S
C899 H903 0.930 . S
C900 C898 1.356 . S
C900 C901 1.348 . S
C901 C896 1.353 . S
C901 C900 1.348 . S
C901 H953 0.929 . S
H902 C896 0.930 . S
H903 C899 0.930 . S
C904 N905 1.314 . S
C904 C906 1.353 . S
C904 H910 0.930 . S
N905 Li881 1.990 . S
N905 C904 1.314 . S
N905 C908 1.279 . S
C906 C904 1.353 . S
C906 C909 1.348 . S
C906 H954 0.929 . S
C907 C908 1.358 . S
C907 C909 1.356 . S
C907 H955 0.930 . S
C908 N905 1.279 . S
C908 C907 1.358 . S
C908 H911 0.930 . S
C909 C906 1.348 . S
C909 C907 1.356 . S
H910 C904 0.930 . S
H911 C908 0.930 . S
C912 C914 1.348 . S
C912 C915 1.356 . S
C912 O942 1.325 . S
N913 C916 1.314 . S
N913 C917 1.279 . S
C914 C912 1.348 . S
C914 C916 1.353 . S
C914 H956 0.929 . S
C915 C912 1.356 . S
C915 C917 1.358 . S
C915 H957 0.930 . S
C916 N913 1.314 . S
C916 C914 1.353 . S
C916 H958 0.930 . S
C917 N913 1.279 . S
C917 C915 1.358 . S
C917 H959 0.930 . S
C918 C919 1.348 . S
C918 C920 1.356 . S
C918 O943 1.325 . S
C919 C918 1.348 . S
C919 C921 1.353 . S
C919 H960 0.929 . S
C920 C918 1.356 . S
C920 C922 1.358 . S
C920 H961 0.930 . S
C921 C919 1.353 . S
C921 N923 1.314 . S
C921 H962 0.930 . S
C922 C920 1.358 . S
C922 N923 1.279 . S
C922 H963 0.930 1_556 S
N923 C921 1.314 . S
N923 C922 1.279 . S
C924 C926 1.353 . S
C924 N927 1.314 . S
C924 H930 0.930 . S
C925 N927 1.279 . S
C925 C928 1.358 . S
C925 H931 0.930 . S
C926 C924 1.353 . S
C926 C929 1.348 . S
C926 H964 0.929 . S
N927 Li882 1.990 . S
N927 C924 1.314 . S
N927 C925 1.279 . S
C928 C925 1.358 . S
C928 C929 1.356 . S
C928 H965 0.930 . S
C929 C926 1.348 . S
C929 C928 1.356 . S
H930 C924 0.930 . S
H931 C925 0.930 . S
C932 N933 1.314 . S
C932 C934 1.353 . S
C932 H938 0.930 . S
N933 Li883 1.990 . S
N933 C932 1.314 . S
N933 C936 1.279 . S
C934 C932 1.353 . S
C934 C937 1.348 . S
C934 H966 0.929 . S
C935 C936 1.358 . S
C935 C937 1.356 . S
C935 H967 0.930 . S
C936 N933 1.279 . S
C936 C935 1.358 . S
C936 H939 0.930 . S
C937 C934 1.348 . S
C937 C935 1.356 . S
H938 C932 0.930 . S
H939 C936 0.930 . S
O940 Li880 1.956 . S
O940 Li881 1.970 . S
O940 Li882 1.961 . S
O940 C884 1.325 . S
O941 Li880 1.970 . S
O941 Li881 1.956 . S
O941 Li883 1.961 . S
O941 C890 1.325 . S
O942 Li880 1.961 . S
O942 Li882 1.956 . S
O942 Li883 1.970 . S
O942 C912 1.325 . S
O943 Li881 1.961 . S
O943 Li882 1.970 . S
O943 Li883 1.956 . S
O943 C918 1.325 . S
H944 C886 0.929 . S
H945 C887 0.930 . S
H946 C888 0.930 . S
H947 C889 0.930 . S
H948 C891 0.930 . S
H949 C893 0.929 . S
H950 C894 0.930 . S
H951 C895 0.930 . S
H952 C898 0.930 . S
H953 C901 0.929 . S
H954 C906 0.929 . S
H955 C907 0.930 . S
H956 C914 0.929 . S
H957 C915 0.930 . S
H958 C916 0.930 . S
H959 C917 0.930 . S
H960 C919 0.929 . S
H961 C920 0.930 . S
H962 C921 0.930 . S
H963 C922 0.930 1_554 S
H964 C926 0.929 . S
H965 C928 0.930 . S
H966 C934 0.929 . S
H967 C935 0.930 . S
Li968 N985 1.990 . S
Li968 O1028 1.956 . S
Li968 O1029 1.970 . S
Li968 O1030 1.961 . S
Li969 N993 1.990 . S
Li969 O1028 1.970 . S
Li969 O1029 1.956 . S
Li969 O1031 1.961 . S
Li970 N1015 1.990 . S
Li970 O1028 1.961 . S
Li970 O1030 1.956 . S
Li970 O1031 1.970 . S
Li971 N1021 1.990 . S
Li971 O1029 1.961 . S
Li971 O1030 1.970 . S
Li971 O1031 1.956 . S
C972 C974 1.348 . S
C972 C975 1.356 . S
C972 O1028 1.325 . S
N973 C976 1.314 . S
N973 C977 1.279 . S
C974 C972 1.348 . S
C974 C976 1.353 . S
C974 H1032 0.929 . S
C975 C972 1.356 . S
C975 C977 1.358 . S
C975 H1033 0.930 . S
C976 N973 1.314 . S
C976 C974 1.353 . S
C976 H1034 0.930 . S
C977 N973 1.279 . S
C977 C975 1.358 . S
C977 H1035 0.930 . S
C978 C981 1.348 . S
C978 C982 1.356 . S
C978 O1029 1.325 . S
C979 N980 1.279 . S
C979 C982 1.358 . S
C979 H1036 0.930 . S
N980 C979 1.279 . S
N980 C983 1.314 . S
C981 C978 1.348 . S
C981 C983 1.353 . S
C981 H1037 0.929 . S
C982 C978 1.356 . S
C982 C979 1.358 . S
C982 H1038 0.930 . S
C983 N980 1.314 . S
C983 C981 1.353 . S
C983 H1039 0.930 . S
C984 N985 1.314 . S
C984 C989 1.353 . S
C984 H990 0.930 . S
N985 Li968 1.990 . S
N985 C984 1.314 . S
N985 C987 1.279 . S
C986 C987 1.358 . S
C986 C988 1.356 . S
C986 H1040 0.930 . S
C987 N985 1.279 . S
C987 C986 1.358 . S
C987 H991 0.930 . S
C988 C986 1.356 . S
C988 C989 1.348 . S
C989 C984 1.353 . S
C989 C988 1.348 . S
C989 H1041 0.929 . S
H990 C984 0.930 . S
H991 C987 0.930 . S
C992 N993 1.314 . S
C992 C994 1.353 . S
C992 H998 0.930 . S
N993 Li969 1.990 . S
N993 C992 1.314 . S
N993 C996 1.279 . S
C994 C992 1.353 . S
C994 C997 1.348 . S
C994 H1042 0.929 . S
C995 C996 1.358 . S
C995 C997 1.356 . S
C995 H1043 0.930 . S
C996 N993 1.279 . S
C996 C995 1.358 . S
C996 H999 0.930 . S
C997 C994 1.348 . S
C997 C995 1.356 . S
H998 C992 0.930 . S
H999 C996 0.930 . S
C1000 C1002 1.348 . S
C1000 C1003 1.356 . S
C1000 O1030 1.325 . S
N1001 C1004 1.314 . S
N1001 C1005 1.279 . S
C1002 C1000 1.348 . S
C1002 C1004 1.353 . S
C1002 H1044 0.929 . S
C1003 C1000 1.356 . S
C1003 C1005 1.358 . S
C1003 H1045 0.930 . S
C1004 N1001 1.314 . S
C1004 C1002 1.353 . S
C1004 H1046 0.930 . S
C1005 N1001 1.279 . S
C1005 C1003 1.358 . S
C1005 H1047 0.930 . S
C1006 C1007 1.348 . S
C1006 C1008 1.356 . S
C1006 O1031 1.325 . S
C1007 C1006 1.348 . S
C1007 C1009 1.353 . S
C1007 H1048 0.929 . S
C1008 C1006 1.356 . S
C1008 C1010 1.358 . S
C1008 H1049 0.930 . S
C1009 C1007 1.353 . S
C1009 N1011 1.314 . S
C1009 H1050 0.930 . S
C1010 C1008 1.358 . S
C1010 N1011 1.279 . S
C1010 H1051 0.930 . S
N1011 C1009 1.314 . S
N1011 C1010 1.279 . S
C1012 C1014 1.353 . S
C1012 N1015 1.314 . S
C1012 H1018 0.930 . S
C1013 N1015 1.279 . S
C1013 C1016 1.358 . S
C1013 H1019 0.930 . S
C1014 C1012 1.353 . S
C1014 C1017 1.348 . S
C1014 H1052 0.929 . S
N1015 Li970 1.990 . S
N1015 C1012 1.314 . S
N1015 C1013 1.279 . S
C1016 C1013 1.358 . S
C1016 C1017 1.356 . S
C1016 H1053 0.930 . S
C1017 C1014 1.348 . S
C1017 C1016 1.356 . S
H1018 C1012 0.930 . S
H1019 C1013 0.930 . S
C1020 N1021 1.314 . S
C1020 C1022 1.353 . S
C1020 H1026 0.930 . S
N1021 Li971 1.990 . S
N1021 C1020 1.314 . S
N1021 C1024 1.279 . S
C1022 C1020 1.353 . S
C1022 C1025 1.348 . S
C1022 H1054 0.929 . S
C1023 C1024 1.358 . S
C1023 C1025 1.356 . S
C1023 H1055 0.930 . S
C1024 N1021 1.279 . S
C1024 C1023 1.358 . S
C1024 H1027 0.930 . S
C1025 C1022 1.348 . S
C1025 C1023 1.356 . S
H1026 C1020 0.930 . S
H1027 C1024 0.930 . S
O1028 Li968 1.956 . S
O1028 Li969 1.970 . S
O1028 Li970 1.961 . S
O1028 C972 1.325 . S
O1029 Li968 1.970 . S
O1029 Li969 1.956 . S
O1029 Li971 1.961 . S
O1029 C978 1.325 . S
O1030 Li968 1.961 . S
O1030 Li970 1.956 . S
O1030 Li971 1.970 . S
O1030 C1000 1.325 . S
O1031 Li969 1.961 . S
O1031 Li970 1.970 . S
O1031 Li971 1.956 . S
O1031 C1006 1.325 . S
H1032 C974 0.929 . S
H1033 C975 0.930 . S
H1034 C976 0.930 . S
H1035 C977 0.930 . S
H1036 C979 0.930 . S
H1037 C981 0.929 . S
H1038 C982 0.930 . S
H1039 C983 0.930 . S
H1040 C986 0.930 . S
H1041 C989 0.929 . S
H1042 C994 0.929 . S
H1043 C995 0.930 . S
H1044 C1002 0.929 . S
H1045 C1003 0.930 . S
H1046 C1004 0.930 . S
H1047 C1005 0.930 . S
H1048 C1007 0.929 . S
H1049 C1008 0.930 . S
H1050 C1009 0.930 . S
H1051 C1010 0.930 . S
H1052 C1014 0.929 . S
H1053 C1016 0.930 . S
H1054 C1022 0.929 . S
H1055 C1023 0.930 . S
Li1056 N1073 1.990 . S
Li1056 O1116 1.956 . S
Li1056 O1117 1.970 . S
Li1056 O1118 1.961 . S
Li1057 N1081 1.990 . S
Li1057 O1116 1.970 . S
Li1057 O1117 1.956 . S
Li1057 O1119 1.961 . S
Li1058 N1103 1.990 . S
Li1058 O1116 1.961 . S
Li1058 O1118 1.956 . S
Li1058 O1119 1.970 . S
Li1059 N1109 1.990 . S
Li1059 O1117 1.961 . S
Li1059 O1118 1.970 . S
Li1059 O1119 1.956 . S
C1060 C1062 1.348 . S
C1060 C1063 1.356 . S
C1060 O1116 1.325 . S
N1061 C1064 1.314 . S
N1061 C1065 1.279 . S
C1062 C1060 1.348 . S
C1062 C1064 1.353 . S
C1062 H1120 0.929 . S
C1063 C1060 1.356 . S
C1063 C1065 1.358 . S
C1063 H1121 0.930 . S
C1064 N1061 1.314 . S
C1064 C1062 1.353 . S
C1064 H1122 0.930 . S
C1065 N1061 1.279 . S
C1065 C1063 1.358 . S
C1065 H1123 0.930 . S
C1066 C1069 1.348 . S
C1066 C1070 1.356 . S
C1066 O1117 1.325 . S
C1067 N1068 1.279 . S
C1067 C1070 1.358 . S
C1067 H1124 0.930 . S
N1068 C1067 1.279 . S
N1068 C1071 1.314 . S
C1069 C1066 1.348 . S
C1069 C1071 1.353 . S
C1069 H1125 0.929 . S
C1070 C1066 1.356 . S
C1070 C1067 1.358 . S
C1070 H1126 0.930 . S
C1071 N1068 1.314 . S
C1071 C1069 1.353 . S
C1071 H1127 0.965 . S
C1072 N1073 1.314 . S
C1072 C1077 1.353 . S
C1072 H1078 0.930 . S
N1073 Li1056 1.990 . S
N1073 C1072 1.314 . S
N1073 C1075 1.279 . S
C1074 C1075 1.358 . S
C1074 C1076 1.356 . S
C1074 H1128 0.930 . S
C1075 N1073 1.279 . S
C1075 C1074 1.358 . S
C1075 H1079 0.930 . S
C1076 C1074 1.356 . S
C1076 C1077 1.348 . S
C1077 C1072 1.353 . S
C1077 C1076 1.348 . S
C1077 H1129 0.929 . S
H1078 C1072 0.930 . S
H1079 C1075 0.930 . S
C1080 N1081 1.314 . S
C1080 C1082 1.353 . S
C1080 H1086 0.930 . S
N1081 Li1057 1.990 . S
N1081 C1080 1.314 . S
N1081 C1084 1.279 . S
C1082 C1080 1.353 . S
C1082 C1085 1.348 . S
C1082 H1130 0.929 . S
C1083 C1084 1.358 . S
C1083 C1085 1.356 . S
C1083 H1131 0.930 . S
C1084 N1081 1.279 . S
C1084 C1083 1.358 . S
C1084 H1087 0.930 . S
C1085 C1082 1.348 . S
C1085 C1083 1.356 . S
H1086 C1080 0.930 . S
H1087 C1084 0.930 . S
C1088 C1090 1.348 . S
C1088 C1091 1.356 . S
C1088 O1118 1.325 . S
N1089 C1092 1.314 . S
N1089 C1093 1.279 . S
C1090 C1088 1.348 . S
C1090 C1092 1.353 . S
C1090 H1132 0.929 . S
C1091 C1088 1.356 . S
C1091 C1093 1.358 . S
C1091 H1133 0.930 . S
C1092 N1089 1.314 . S
C1092 C1090 1.353 . S
C1092 H1134 0.930 . S
C1093 N1089 1.279 . S
C1093 C1091 1.358 . S
C1093 H1135 0.930 . S
C1094 C1095 1.348 . S
C1094 C1096 1.356 . S
C1094 O1119 1.325 . S
C1095 C1094 1.348 . S
C1095 C1097 1.353 . S
C1095 H1136 0.929 . S
C1096 C1094 1.356 . S
C1096 C1098 1.358 . S
C1096 H1137 0.930 . S
C1097 C1095 1.353 . S
C1097 N1099 1.314 . S
C1097 H1138 0.930 . S
C1098 C1096 1.358 . S
C1098 N1099 1.279 . S
C1098 H1139 0.930 . S
N1099 C1097 1.314 . S
N1099 C1098 1.279 . S
C1100 C1102 1.353 . S
C1100 N1103 1.314 . S
C1100 H1106 0.930 . S
C1101 N1103 1.279 . S
C1101 C1104 1.358 . S
C1101 H1107 0.930 . S
C1102 C1100 1.353 . S
C1102 C1105 1.348 . S
C1102 H1140 0.929 . S
N1103 Li1058 1.990 . S
N1103 C1100 1.314 . S
N1103 C1101 1.279 . S
C1104 C1101 1.358 . S
C1104 C1105 1.356 . S
C1104 H1141 0.930 . S
C1105 C1102 1.348 . S
C1105 C1104 1.356 . S
H1106 C1100 0.930 . S
H1107 C1101 0.930 . S
C1108 N1109 1.314 . S
C1108 C1110 1.353 . S
C1108 H1114 0.930 . S
N1109 Li1059 1.990 . S
N1109 C1108 1.314 . S
N1109 C1112 1.279 . S
C1110 C1108 1.353 . S
C1110 C1113 1.348 . S
C1110 H1142 0.929 . S
C1111 C1112 1.358 . S
C1111 C1113 1.356 . S
C1111 H1143 0.930 . S
C1112 N1109 1.279 . S
C1112 C1111 1.358 . S
C1112 H1115 0.930 . S
C1113 C1110 1.348 . S
C1113 C1111 1.356 . S
H1114 C1108 0.930 . S
H1115 C1112 0.930 . S
O1116 Li1056 1.956 . S
O1116 Li1057 1.970 . S
O1116 Li1058 1.961 . S
O1116 C1060 1.325 . S
O1117 Li1056 1.970 . S
O1117 Li1057 1.956 . S
O1117 Li1059 1.961 . S
O1117 C1066 1.325 . S
O1118 Li1056 1.961 . S
O1118 Li1058 1.956 . S
O1118 Li1059 1.970 . S
O1118 C1088 1.325 . S
O1119 Li1057 1.961 . S
O1119 Li1058 1.970 . S
O1119 Li1059 1.956 . S
O1119 C1094 1.325 . S
H1120 C1062 0.929 . S
H1121 C1063 0.930 . S
H1122 C1064 0.930 . S
H1123 C1065 0.930 . S
H1124 C1067 0.930 . S
H1125 C1069 0.929 . S
H1126 C1070 0.930 . S
H1127 C1071 0.965 . S
H1128 C1074 0.930 . S
H1129 C1077 0.929 . S
H1130 C1082 0.929 . S
H1131 C1083 0.930 . S
H1132 C1090 0.929 . S
H1133 C1091 0.930 . S
H1134 C1092 0.930 . S
H1135 C1093 0.930 . S
H1136 C1095 0.929 . S
H1137 C1096 0.930 . S
H1138 C1097 0.930 . S
H1139 C1098 0.930 . S
H1140 C1102 0.929 . S
H1141 C1104 0.930 . S
H1142 C1110 0.929 . S
H1143 C1111 0.930 . S
Li1144 N1161 1.990 . S
Li1144 O1204 1.956 . S
Li1144 O1205 1.970 . S
Li1144 O1206 1.961 . S
Li1145 N1169 1.990 . S
Li1145 O1204 1.970 . S
Li1145 O1205 1.956 . S
Li1145 O1207 1.961 . S
Li1146 N1191 1.990 . S
Li1146 O1204 1.961 . S
Li1146 O1206 1.956 . S
Li1146 O1207 1.970 . S
Li1147 N1197 1.990 . S
Li1147 O1205 1.961 . S
Li1147 O1206 1.970 . S
Li1147 O1207 1.956 . S
C1148 C1150 1.348 . S
C1148 C1151 1.356 . S
C1148 O1204 1.325 . S
N1149 C1152 1.314 . S
N1149 C1153 1.279 . S
C1150 C1148 1.348 . S
C1150 C1152 1.353 . S
C1150 H1208 0.929 . S
C1151 C1148 1.356 . S
C1151 C1153 1.358 . S
C1151 H1209 0.930 . S
C1152 N1149 1.314 . S
C1152 C1150 1.353 . S
C1152 H1210 0.930 . S
C1153 N1149 1.279 . S
C1153 C1151 1.358 . S
C1153 H1211 0.930 . S
C1154 C1157 1.348 . S
C1154 C1158 1.356 . S
C1154 O1205 1.325 . S
C1155 N1156 1.279 . S
C1155 C1158 1.358 . S
C1155 H1212 0.930 . S
N1156 C1155 1.279 . S
N1156 C1159 1.314 . S
C1157 C1154 1.348 . S
C1157 C1159 1.353 . S
C1157 H1213 0.929 . S
C1158 C1154 1.356 . S
C1158 C1155 1.358 . S
C1158 H1214 0.930 . S
C1159 N1156 1.314 . S
C1159 C1157 1.353 . S
C1159 H1215 0.930 . S
C1160 N1161 1.314 . S
C1160 C1165 1.353 . S
C1160 H1166 0.930 . S
N1161 Li1144 1.990 . S
N1161 C1160 1.314 . S
N1161 C1163 1.279 . S
C1162 C1163 1.358 . S
C1162 C1164 1.356 . S
C1162 H1216 0.930 . S
C1163 N1161 1.279 . S
C1163 C1162 1.358 . S
C1163 H1167 0.930 . S
C1164 C1162 1.356 . S
C1164 C1165 1.348 . S
C1165 C1160 1.353 . S
C1165 C1164 1.348 . S
C1165 H1217 0.929 . S
H1166 C1160 0.930 . S
H1167 C1163 0.930 . S
C1168 N1169 1.314 . S
C1168 C1170 1.353 . S
C1168 H1174 0.930 . S
N1169 Li1145 1.990 . S
N1169 C1168 1.314 . S
N1169 C1172 1.279 . S
C1170 C1168 1.353 . S
C1170 C1173 1.348 . S
C1170 H1218 0.929 . S
C1171 C1172 1.358 . S
C1171 C1173 1.356 . S
C1171 H1219 0.930 . S
C1172 N1169 1.279 . S
C1172 C1171 1.358 . S
C1172 H1175 0.930 . S
C1173 C1170 1.348 . S
C1173 C1171 1.356 . S
H1174 C1168 0.930 . S
H1175 C1172 0.930 . S
C1176 C1178 1.348 . S
C1176 C1179 1.356 . S
C1176 O1206 1.325 . S
N1177 C1180 1.314 . S
N1177 C1181 1.279 . S
C1178 C1176 1.348 . S
C1178 C1180 1.353 . S
C1178 H1220 0.929 . S
C1179 C1176 1.356 . S
C1179 C1181 1.358 . S
C1179 H1221 0.930 . S
C1180 N1177 1.314 . S
C1180 C1178 1.353 . S
C1180 H1222 0.930 . S
C1181 N1177 1.279 . S
C1181 C1179 1.358 . S
C1181 H1223 0.930 . S
C1182 C1183 1.348 . S
C1182 C1184 1.356 . S
C1182 O1207 1.325 . S
C1183 C1182 1.348 . S
C1183 C1185 1.353 . S
C1183 H1224 0.929 . S
C1184 C1182 1.356 . S
C1184 C1186 1.358 . S
C1184 H1225 0.930 . S
C1185 C1183 1.353 . S
C1185 N1187 1.314 . S
C1185 H1226 0.930 . S
C1186 C1184 1.358 . S
C1186 N1187 1.279 . S
C1186 H1227 0.930 . S
N1187 C1185 1.314 . S
N1187 C1186 1.279 . S
C1188 C1190 1.353 . S
C1188 N1191 1.314 . S
C1188 H1194 0.930 . S
C1189 N1191 1.279 . S
C1189 C1192 1.358 . S
C1189 H1195 0.930 . S
C1190 C1188 1.353 . S
C1190 C1193 1.348 . S
C1190 H1228 0.929 . S
N1191 Li1146 1.990 . S
N1191 C1188 1.314 . S
N1191 C1189 1.279 . S
C1192 C1189 1.358 . S
C1192 C1193 1.356 . S
C1192 H1229 0.930 . S
C1193 C1190 1.348 . S
C1193 C1192 1.356 . S
H1194 C1188 0.930 . S
H1195 C1189 0.930 . S
C1196 N1197 1.314 . S
C1196 C1198 1.353 . S
C1196 H1202 0.930 . S
N1197 Li1147 1.990 . S
N1197 C1196 1.314 . S
N1197 C1200 1.279 . S
C1198 C1196 1.353 . S
C1198 C1201 1.348 . S
C1198 H1230 0.929 . S
C1199 C1200 1.358 . S
C1199 C1201 1.356 . S
C1199 H1231 0.930 . S
C1200 N1197 1.279 . S
C1200 C1199 1.358 . S
C1200 H1203 0.930 . S
C1201 C1198 1.348 . S
C1201 C1199 1.356 . S
H1202 C1196 0.930 . S
H1203 C1200 0.930 . S
O1204 Li1144 1.956 . S
O1204 Li1145 1.970 . S
O1204 Li1146 1.961 . S
O1204 C1148 1.325 . S
O1205 Li1144 1.970 . S
O1205 Li1145 1.956 . S
O1205 Li1147 1.961 . S
O1205 C1154 1.325 . S
O1206 Li1144 1.961 . S
O1206 Li1146 1.956 . S
O1206 Li1147 1.970 . S
O1206 C1176 1.325 . S
O1207 Li1145 1.961 . S
O1207 Li1146 1.970 . S
O1207 Li1147 1.956 . S
O1207 C1182 1.325 . S
H1208 C1150 0.929 . S
H1209 C1151 0.930 . S
H1210 C1152 0.930 . S
H1211 C1153 0.930 . S
H1212 C1155 0.930 . S
H1213 C1157 0.929 . S
H1214 C1158 0.930 . S
H1215 C1159 0.930 . S
H1216 C1162 0.930 . S
H1217 C1165 0.929 . S
H1218 C1170 0.929 . S
H1219 C1171 0.930 . S
H1220 C1178 0.929 . S
H1221 C1179 0.930 . S
H1222 C1180 0.930 . S
H1223 C1181 0.930 . S
H1224 C1183 0.929 . S
H1225 C1184 0.930 . S
H1226 C1185 0.930 . S
H1227 C1186 0.930 . S
H1228 C1190 0.929 . S
H1229 C1192 0.930 . S
H1230 C1198 0.929 . S
H1231 C1199 0.930 . S
Li1232 N1249 1.990 . S
Li1232 O1292 1.956 . S
Li1232 O1293 1.970 . S
Li1232 O1294 1.961 . S
Li1233 N1257 1.990 . S
Li1233 O1292 1.970 . S
Li1233 O1293 1.956 . S
Li1233 O1295 1.961 . S
Li1234 N1279 1.990 . S
Li1234 O1292 1.961 . S
Li1234 O1294 1.956 . S
Li1234 O1295 1.970 . S
Li1235 N1285 1.990 . S
Li1235 O1293 1.961 . S
Li1235 O1294 1.970 . S
Li1235 O1295 1.956 . S
C1236 C1238 1.348 . S
C1236 C1239 1.356 . S
C1236 O1292 1.325 . S
N1237 C1240 1.314 . S
N1237 C1241 1.279 . S
C1238 C1236 1.348 . S
C1238 C1240 1.353 . S
C1238 H1296 0.929 . S
C1239 C1236 1.356 . S
C1239 C1241 1.358 . S
C1239 H1297 0.930 . S
C1240 N1237 1.314 . S
C1240 C1238 1.353 . S
C1240 H1298 0.930 . S
C1241 N1237 1.279 . S
C1241 C1239 1.358 . S
C1241 H1299 0.930 . S
C1242 C1245 1.348 . S
C1242 C1246 1.356 . S
C1242 O1293 1.325 . S
C1243 N1244 1.279 . S
C1243 C1246 1.358 . S
C1243 H1300 0.930 . S
N1244 C1243 1.279 . S
N1244 C1247 1.314 . S
C1245 C1242 1.348 . S
C1245 C1247 1.353 . S
C1245 H1301 0.929 . S
C1246 C1242 1.356 . S
C1246 C1243 1.358 . S
C1246 H1302 0.930 . S
C1247 N1244 1.314 . S
C1247 C1245 1.353 . S
C1247 H1303 0.930 . S
C1248 N1249 1.314 . S
C1248 C1253 1.353 . S
C1248 H1254 0.930 . S
N1249 Li1232 1.990 . S
N1249 C1248 1.314 . S
N1249 C1251 1.279 . S
C1250 C1251 1.358 . S
C1250 C1252 1.356 . S
C1250 H1304 0.930 . S
C1251 N1249 1.279 . S
C1251 C1250 1.358 . S
C1251 H1255 0.930 . S
C1252 C1250 1.356 . S
C1252 C1253 1.348 . S
C1253 C1248 1.353 . S
C1253 C1252 1.348 . S
C1253 H1305 0.929 . S
H1254 C1248 0.930 . S
H1255 C1251 0.930 . S
C1256 N1257 1.314 . S
C1256 C1258 1.353 . S
C1256 H1262 0.930 . S
N1257 Li1233 1.990 . S
N1257 C1256 1.314 . S
N1257 C1260 1.279 . S
C1258 C1256 1.353 . S
C1258 C1261 1.348 . S
C1258 H1306 0.929 . S
C1259 C1260 1.358 . S
C1259 C1261 1.356 . S
C1259 H1307 0.930 . S
C1260 N1257 1.279 . S
C1260 C1259 1.358 . S
C1260 H1263 0.930 . S
C1261 C1258 1.348 . S
C1261 C1259 1.356 . S
H1262 C1256 0.930 . S
H1263 C1260 0.930 . S
C1264 C1266 1.348 . S
C1264 C1267 1.356 . S
C1264 O1294 1.325 . S
N1265 C1268 1.314 . S
N1265 C1269 1.279 . S
C1266 C1264 1.348 . S
C1266 C1268 1.353 . S
C1266 H1308 0.929 . S
C1267 C1264 1.356 . S
C1267 C1269 1.358 . S
C1267 H1309 0.930 . S
C1268 N1265 1.314 . S
C1268 C1266 1.353 . S
C1268 H1310 0.965 . S
C1269 N1265 1.279 . S
C1269 C1267 1.358 . S
C1269 H1311 0.930 . S
C1270 C1271 1.348 . S
C1270 C1272 1.356 . S
C1270 O1295 1.325 . S
C1271 C1270 1.348 . S
C1271 C1273 1.353 . S
C1271 H1312 0.929 . S
C1272 C1270 1.356 . S
C1272 C1274 1.358 . S
C1272 H1313 0.930 . S
C1273 C1271 1.353 . S
C1273 N1275 1.314 . S
C1273 H1314 0.930 . S
C1274 C1272 1.358 . S
C1274 N1275 1.279 . S
C1274 H1315 0.930 . S
N1275 C1273 1.314 . S
N1275 C1274 1.279 . S
C1276 C1278 1.353 . S
C1276 N1279 1.314 . S
C1276 H1282 0.930 . S
C1277 N1279 1.279 . S
C1277 C1280 1.358 . S
C1277 H1283 0.930 . S
C1278 C1276 1.353 . S
C1278 C1281 1.348 . S
C1278 H1316 0.929 . S
N1279 Li1234 1.990 . S
N1279 C1276 1.314 . S
N1279 C1277 1.279 . S
C1280 C1277 1.358 . S
C1280 C1281 1.356 . S
C1280 H1317 0.930 . S
C1281 C1278 1.348 . S
C1281 C1280 1.356 . S
H1282 C1276 0.930 . S
H1283 C1277 0.930 . S
C1284 N1285 1.314 . S
C1284 C1286 1.353 . S
C1284 H1290 0.930 . S
N1285 Li1235 1.990 . S
N1285 C1284 1.314 . S
N1285 C1288 1.279 . S
C1286 C1284 1.353 . S
C1286 C1289 1.348 . S
C1286 H1318 0.929 . S
C1287 C1288 1.358 . S
C1287 C1289 1.356 . S
C1287 H1319 0.930 . S
C1288 N1285 1.279 . S
C1288 C1287 1.358 . S
C1288 H1291 0.930 . S
C1289 C1286 1.348 . S
C1289 C1287 1.356 . S
H1290 C1284 0.930 . S
H1291 C1288 0.930 . S
O1292 Li1232 1.956 . S
O1292 Li1233 1.970 . S
O1292 Li1234 1.961 . S
O1292 C1236 1.325 . S
O1293 Li1232 1.970 . S
O1293 Li1233 1.956 . S
O1293 Li1235 1.961 . S
O1293 C1242 1.325 . S
O1294 Li1232 1.961 . S
O1294 Li1234 1.956 . S
O1294 Li1235 1.970 . S
O1294 C1264 1.325 . S
O1295 Li1233 1.961 . S
O1295 Li1234 1.970 . S
O1295 Li1235 1.956 . S
O1295 C1270 1.325 . S
H1296 C1238 0.929 . S
H1297 C1239 0.930 . S
H1298 C1240 0.930 . S
H1299 C1241 0.930 . S
H1300 C1243 0.930 . S
H1301 C1245 0.929 . S
H1302 C1246 0.930 . S
H1303 C1247 0.930 . S
H1304 C1250 0.930 . S
H1305 C1253 0.929 . S
H1306 C1258 0.929 . S
H1307 C1259 0.930 . S
H1308 C1266 0.929 . S
H1309 C1267 0.930 . S
H1310 C1268 0.965 . S
H1311 C1269 0.930 . S
H1312 C1271 0.929 . S
H1313 C1272 0.930 . S
H1314 C1273 0.930 . S
H1315 C1274 0.930 . S
H1316 C1278 0.929 . S
H1317 C1280 0.930 . S
H1318 C1286 0.929 . S
H1319 C1287 0.930 . S
Li1320 N1337 1.990 . S
Li1320 O1380 1.956 . S
Li1320 O1381 1.970 . S
Li1320 O1382 1.961 . S
Li1321 N1345 1.990 . S
Li1321 O1380 1.970 . S
Li1321 O1381 1.956 . S
Li1321 O1383 1.961 . S
Li1322 N1367 1.990 . S
Li1322 O1380 1.961 . S
Li1322 O1382 1.956 . S
Li1322 O1383 1.970 . S
Li1323 N1373 1.990 . S
Li1323 O1381 1.961 . S
Li1323 O1382 1.970 . S
Li1323 O1383 1.956 . S
C1324 C1326 1.348 . S
C1324 C1327 1.356 . S
C1324 O1380 1.325 . S
N1325 C1328 1.314 . S
N1325 C1329 1.279 . S
C1326 C1324 1.348 . S
C1326 C1328 1.353 . S
C1326 H1384 0.929 . S
C1327 C1324 1.356 . S
C1327 C1329 1.358 . S
C1327 H1385 0.930 . S
C1328 N1325 1.314 . S
C1328 C1326 1.353 . S
C1328 H1386 0.930 . S
C1329 N1325 1.279 . S
C1329 C1327 1.358 . S
C1329 H1387 0.930 . S
C1330 C1333 1.348 . S
C1330 C1334 1.356 . S
C1330 O1381 1.325 . S
C1331 N1332 1.279 . S
C1331 C1334 1.358 . S
C1331 H1388 0.930 . S
N1332 C1331 1.279 . S
N1332 C1335 1.314 . S
C1333 C1330 1.348 . S
C1333 C1335 1.353 . S
C1333 H1389 0.929 . S
C1334 C1330 1.356 . S
C1334 C1331 1.358 . S
C1334 H1390 0.930 . S
C1335 N1332 1.314 . S
C1335 C1333 1.353 . S
C1335 H1391 0.930 . S
C1336 N1337 1.314 . S
C1336 C1341 1.353 . S
C1336 H1342 0.930 . S
N1337 Li1320 1.990 . S
N1337 C1336 1.314 . S
N1337 C1339 1.279 . S
C1338 C1339 1.358 . S
C1338 C1340 1.356 . S
C1338 H1392 0.930 . S
C1339 N1337 1.279 . S
C1339 C1338 1.358 . S
C1339 H1343 0.930 . S
C1340 C1338 1.356 . S
C1340 C1341 1.348 . S
C1341 C1336 1.353 . S
C1341 C1340 1.348 . S
C1341 H1393 0.929 . S
H1342 C1336 0.930 . S
H1343 C1339 0.930 . S
C1344 N1345 1.314 . S
C1344 C1346 1.353 . S
C1344 H1350 0.930 . S
N1345 Li1321 1.990 . S
N1345 C1344 1.314 . S
N1345 C1348 1.279 . S
C1346 C1344 1.353 . S
C1346 C1349 1.348 . S
C1346 H1394 0.929 . S
C1347 C1348 1.358 . S
C1347 C1349 1.356 . S
C1347 H1395 0.930 . S
C1348 N1345 1.279 . S
C1348 C1347 1.358 . S
C1348 H1351 0.930 . S
C1349 C1346 1.348 . S
C1349 C1347 1.356 . S
H1350 C1344 0.930 . S
H1351 C1348 0.930 . S
C1352 C1354 1.348 . S
C1352 C1355 1.356 . S
C1352 O1382 1.325 . S
N1353 C1356 1.314 . S
N1353 C1357 1.279 . S
C1354 C1352 1.348 . S
C1354 C1356 1.353 . S
C1354 H1396 0.929 . S
C1355 C1352 1.356 . S
C1355 C1357 1.358 . S
C1355 H1397 0.930 . S
C1356 N1353 1.314 . S
C1356 C1354 1.353 . S
C1356 H1398 0.930 . S
C1357 N1353 1.279 . S
C1357 C1355 1.358 . S
C1357 H1399 0.930 . S
C1358 C1359 1.348 . S
C1358 C1360 1.356 . S
C1358 O1383 1.325 . S
C1359 C1358 1.348 . S
C1359 C1361 1.353 . S
C1359 H1400 0.929 . S
C1360 C1358 1.356 . S
C1360 C1362 1.358 . S
C1360 H1401 0.930 . S
C1361 C1359 1.353 . S
C1361 N1363 1.314 . S
C1361 H1402 0.930 . S
C1362 C1360 1.358 . S
C1362 N1363 1.279 . S
C1362 H1403 0.930 . S
N1363 C1361 1.314 . S
N1363 C1362 1.279 . S
C1364 C1366 1.353 . S
C1364 N1367 1.314 . S
C1364 H1370 0.930 . S
C1365 N1367 1.279 . S
C1365 C1368 1.358 . S
C1365 H1371 0.930 . S
C1366 C1364 1.353 . S
C1366 C1369 1.348 . S
C1366 H1404 0.929 . S
N1367 Li1322 1.990 . S
N1367 C1364 1.314 . S
N1367 C1365 1.279 . S
C1368 C1365 1.358 . S
C1368 C1369 1.356 . S
C1368 H1405 0.930 . S
C1369 C1366 1.348 . S
C1369 C1368 1.356 . S
H1370 C1364 0.930 . S
H1371 C1365 0.930 . S
C1372 N1373 1.314 . S
C1372 C1374 1.353 . S
C1372 H1378 0.930 . S
N1373 Li1323 1.990 . S
N1373 C1372 1.314 . S
N1373 C1376 1.279 . S
C1374 C1372 1.353 . S
C1374 C1377 1.348 . S
C1374 H1406 0.929 . S
C1375 C1376 1.358 . S
C1375 C1377 1.356 . S
C1375 H1407 0.930 . S
C1376 N1373 1.279 . S
C1376 C1375 1.358 . S
C1376 H1379 0.930 . S
C1377 C1374 1.348 . S
C1377 C1375 1.356 . S
H1378 C1372 0.930 . S
H1379 C1376 0.930 . S
O1380 Li1320 1.956 . S
O1380 Li1321 1.970 . S
O1380 Li1322 1.961 . S
O1380 C1324 1.325 . S
O1381 Li1320 1.970 . S
O1381 Li1321 1.956 . S
O1381 Li1323 1.961 . S
O1381 C1330 1.325 . S
O1382 Li1320 1.961 . S
O1382 Li1322 1.956 . S
O1382 Li1323 1.970 . S
O1382 C1352 1.325 . S
O1383 Li1321 1.961 . S
O1383 Li1322 1.970 . S
O1383 Li1323 1.956 . S
O1383 C1358 1.325 . S
H1384 C1326 0.929 . S
H1385 C1327 0.930 . S
H1386 C1328 0.930 . S
H1387 C1329 0.930 . S
H1388 C1331 0.930 . S
H1389 C1333 0.929 . S
H1390 C1334 0.930 . S
H1391 C1335 0.930 . S
H1392 C1338 0.930 . S
H1393 C1341 0.929 . S
H1394 C1346 0.929 . S
H1395 C1347 0.930 . S
H1396 C1354 0.929 . S
H1397 C1355 0.930 . S
H1398 C1356 0.930 . S
H1399 C1357 0.930 . S
H1400 C1359 0.929 . S
H1401 C1360 0.930 . S
H1402 C1361 0.930 . S
H1403 C1362 0.930 . S
H1404 C1366 0.929 . S
H1405 C1368 0.930 . S
H1406 C1374 0.929 . S
H1407 C1375 0.930 . S
C1408 C1409 1.391 . S
C1408 C1410 1.394 1_554 S
C1408 H1424 0.931 . S
C1409 C1408 1.391 . S
C1409 C1413 1.376 . S
C1410 C1408 1.394 1_556 S
C1410 C1411 1.369 1_556 S
C1410 C1414 1.531 . S
C1411 C1410 1.369 1_554 S
C1411 C1412 1.410 . S
C1411 C1419 1.503 1_554 S
C1412 C1411 1.410 . S
C1412 C1413 1.392 . S
C1412 C1415 1.511 . S
C1413 C1409 1.376 . S
C1413 C1412 1.392 . S
C1413 H1425 0.929 . S
C1414 C1410 1.531 . S
C1414 H1426 0.960 . S
C1414 H1427 0.962 . S
C1414 H1428 0.960 . S
C1415 C1412 1.511 . S
C1415 H1429 0.961 . S
C1415 H1430 0.961 . S
C1415 H1431 0.961 . S
C1416 C1417 1.370 . S
C1416 C1418 1.363 . S
C1416 H1432 0.931 . S
C1417 C1416 1.370 . S
C1417 C1421 1.408 . S
C1418 C1416 1.363 . S
C1418 C1419 1.370 . S
C1418 C1422 1.524 1_556 S
C1419 C1411 1.503 1_556 S
C1419 C1418 1.370 . S
C1419 C1420 1.403 . S
C1420 C1419 1.403 . S
C1420 C1421 1.404 . S
C1420 C1423 1.539 . S
C1421 C1417 1.408 . S
C1421 C1420 1.404 . S
C1421 H1433 0.930 . S
C1422 C1418 1.524 1_554 S
C1422 H1434 0.956 . S
C1422 H1435 0.961 . S
C1422 H1436 0.961 . S
C1423 C1420 1.539 . S
C1423 H1437 0.958 . S
C1423 H1438 0.961 . S
C1423 H1439 0.960 . S
H1424 C1408 0.931 . S
H1425 C1413 0.929 . S
H1426 C1414 0.960 . S
H1427 C1414 0.962 . S
H1428 C1414 0.960 . S
H1429 C1415 0.961 . S
H1430 C1415 0.961 . S
H1431 C1415 0.961 . S
H1432 C1416 0.931 . S
H1433 C1421 0.930 . S
H1434 C1422 0.956 . S
H1435 C1422 0.961 . S
H1436 C1422 0.961 . S
H1437 C1423 0.958 . S
H1438 C1423 0.961 . S
H1439 C1423 0.960 . S
C1440 C1441 1.391 . S
C1440 C1442 1.394 . S
C1440 H1456 0.931 . S
C1441 C1440 1.391 . S
C1441 C1445 1.376 . S
C1442 C1440 1.394 . S
C1442 C1443 1.369 . S
C1442 C1446 1.531 . S
C1443 C1442 1.369 . S
C1443 C1444 1.410 . S
C1443 C1451 1.503 . S
C1444 C1443 1.410 . S
C1444 C1445 1.392 . S
C1444 C1447 1.511 . S
C1445 C1441 1.376 . S
C1445 C1444 1.392 . S
C1445 H1457 0.929 . S
C1446 C1442 1.531 . S
C1446 H1458 0.960 . S
C1446 H1459 0.962 . S
C1446 H1460 0.960 . S
C1447 C1444 1.511 . S
C1447 H1461 0.961 . S
C1447 H1462 0.961 . S
C1447 H1463 0.961 . S
C1448 C1449 1.370 . S
C1448 C1450 1.363 . S
C1448 H1464 0.931 . S
C1449 C1448 1.370 . S
C1449 C1453 1.408 . S
C1450 C1448 1.363 . S
C1450 C1451 1.370 . S
C1450 C1454 1.524 . S
C1451 C1443 1.503 . S
C1451 C1450 1.370 . S
C1451 C1452 1.403 . S
C1452 C1451 1.403 . S
C1452 C1453 1.404 . S
C1452 C1455 1.539 . S
C1453 C1449 1.408 . S
C1453 C1452 1.404 . S
C1453 H1465 0.930 . S
C1454 C1450 1.524 . S
C1454 H1466 0.956 . S
C1454 H1467 0.961 . S
C1454 H1468 0.961 . S
C1455 C1452 1.539 . S
C1455 H1469 0.958 . S
C1455 H1470 0.961 . S
C1455 H1471 0.960 . S
H1456 C1440 0.931 . S
H1457 C1445 0.929 . S
H1458 C1446 0.960 . S
H1459 C1446 0.962 . S
H1460 C1446 0.960 . S
H1461 C1447 0.961 . S
H1462 C1447 0.961 . S
H1463 C1447 0.961 . S
H1464 C1448 0.931 . S
H1465 C1453 0.930 . S
H1466 C1454 0.956 . S
H1467 C1454 0.961 . S
H1468 C1454 0.961 . S
H1469 C1455 0.958 . S
H1470 C1455 0.961 . S
H1471 C1455 0.960 . S
C1472 C1473 1.391 . S
C1472 C1474 1.394 . S
C1472 H1488 0.931 . S
C1473 C1472 1.391 . S
C1473 C1477 1.376 . S
C1474 C1472 1.394 . S
C1474 C1475 1.369 . S
C1474 C1478 1.531 . S
C1475 C1474 1.369 . S
C1475 C1476 1.387 1_556 S
C1475 C1483 1.503 1_556 S
C1476 C1475 1.387 1_554 S
C1476 C1477 1.365 1_554 S
C1476 C1479 1.562 . S
C1477 C1473 1.376 . S
C1477 C1476 1.365 1_556 S
C1477 H1489 0.929 . S
C1478 C1474 1.531 . S
C1478 H1490 0.960 . S
C1478 H1491 0.962 . S
C1478 H1492 0.960 . S
C1479 C1476 1.562 . S
C1479 H1493 0.961 . S
C1479 H1494 0.961 . S
C1479 H1495 0.961 . S
C1480 C1481 1.370 . S
C1480 C1482 1.363 . S
C1480 H1496 0.931 . S
C1481 C1480 1.370 . S
C1481 C1485 1.408 . S
C1482 C1480 1.363 . S
C1482 C1483 1.370 . S
C1482 C1486 1.524 . S
C1483 C1475 1.503 1_554 S
C1483 C1482 1.370 . S
C1483 C1484 1.403 . S
C1484 C1483 1.403 . S
C1484 C1485 1.404 . S
C1484 C1487 1.539 1_554 S
C1485 C1481 1.408 . S
C1485 C1484 1.404 . S
C1485 H1497 0.930 . S
C1486 C1482 1.524 . S
C1486 H1498 0.956 . S
C1486 H1499 0.961 . S
C1486 H1500 0.961 . S
C1487 C1484 1.539 1_556 S
C1487 H1501 0.958 . S
C1487 H1502 0.961 . S
C1487 H1503 0.960 . S
H1488 C1472 0.931 . S
H1489 C1477 0.929 . S
H1490 C1478 0.960 . S
H1491 C1478 0.962 . S
H1492 C1478 0.960 . S
H1493 C1479 0.961 . S
H1494 C1479 0.961 . S
H1495 C1479 0.961 . S
H1496 C1480 0.931 . S
H1497 C1485 0.930 . S
H1498 C1486 0.956 . S
H1499 C1486 0.961 . S
H1500 C1486 0.961 . S
H1501 C1487 0.958 . S
H1502 C1487 0.961 . S
H1503 C1487 0.960 . S
C1504 C1505 1.391 . S
C1504 C1506 1.394 . S
C1504 H1520 0.931 . S
C1505 C1504 1.391 . S
C1505 C1509 1.376 . S
C1506 C1504 1.394 . S
C1506 C1507 1.369 . S
C1506 C1510 1.531 . S
C1507 C1506 1.369 . S
C1507 C1508 1.410 . S
C1507 C1515 1.503 . S
C1508 C1507 1.410 . S
C1508 C1509 1.392 . S
C1508 C1511 1.511 . S
C1509 C1505 1.376 . S
C1509 C1508 1.392 . S
C1509 H1521 0.929 . S
C1510 C1506 1.531 . S
C1510 H1522 0.960 . S
C1510 H1523 0.962 . S
C1510 H1524 0.960 . S
C1511 C1508 1.511 . S
C1511 H1525 0.961 . S
C1511 H1526 0.961 . S
C1511 H1527 0.961 . S
C1512 C1513 1.370 . S
C1512 C1514 1.363 . S
C1512 H1528 0.931 . S
C1513 C1512 1.370 . S
C1513 C1517 1.408 . S
C1514 C1512 1.363 . S
C1514 C1515 1.370 . S
C1514 C1518 1.524 . S
C1515 C1507 1.503 . S
C1515 C1514 1.370 . S
C1515 C1516 1.403 . S
C1516 C1515 1.403 . S
C1516 C1517 1.404 . S
C1516 C1519 1.539 . S
C1517 C1513 1.408 . S
C1517 C1516 1.404 . S
C1517 H1529 0.930 . S
C1518 C1514 1.524 . S
C1518 H1530 0.956 . S
C1518 H1531 0.961 . S
C1518 H1532 0.961 . S
C1519 C1516 1.539 . S
C1519 H1533 0.958 . S
C1519 H1534 0.961 . S
C1519 H1535 0.960 . S
H1520 C1504 0.931 . S
H1521 C1509 0.929 . S
H1522 C1510 0.960 . S
H1523 C1510 0.962 . S
H1524 C1510 0.960 . S
H1525 C1511 0.961 . S
H1526 C1511 0.961 . S
H1527 C1511 0.961 . S
H1528 C1512 0.931 . S
H1529 C1517 0.930 . S
H1530 C1518 0.956 . S
H1531 C1518 0.961 . S
H1532 C1518 0.961 . S
H1533 C1519 0.958 . S
H1534 C1519 0.961 . S
H1535 C1519 0.960 . S
C1536 C1537 1.391 . S
C1536 C1538 1.394 . S
C1536 H1552 0.931 . S
C1537 C1536 1.391 . S
C1537 C1541 1.376 . S
C1538 C1536 1.394 . S
C1538 C1539 1.369 . S
C1538 C1542 1.531 . S
C1539 C1538 1.369 . S
C1539 C1540 1.410 . S
C1539 C1547 1.503 1_554 S
C1540 C1539 1.410 . S
C1540 C1541 1.392 . S
C1540 C1543 1.511 1_554 S
C1541 C1537 1.376 . S
C1541 C1540 1.392 . S
C1541 H1553 0.929 . S
C1542 C1538 1.531 . S
C1542 H1554 0.960 . S
C1542 H1555 0.962 . S
C1542 H1556 0.960 . S
C1543 C1540 1.511 1_556 S
C1543 H1557 0.961 . S
C1543 H1558 0.961 . S
C1543 H1559 0.961 . S
C1544 C1545 1.370 . S
C1544 C1546 1.363 . S
C1544 H1560 0.931 . S
C1545 C1544 1.370 . S
C1545 C1549 1.408 . S
C1546 C1544 1.363 . S
C1546 C1547 1.370 . S
C1546 C1550 1.524 . S
C1547 C1539 1.503 1_556 S
C1547 C1546 1.370 . S
C1547 C1548 1.402 . S
C1548 C1547 1.402 . S
C1548 C1549 1.402 . S
C1548 C1551 1.541 1_556 S
C1549 C1545 1.408 . S
C1549 C1548 1.402 . S
C1549 H1561 0.930 . S
C1550 C1546 1.524 . S
C1550 H1562 0.956 . S
C1550 H1563 0.961 . S
C1550 H1564 0.961 . S
C1551 C1548 1.541 1_554 S
C1551 H1565 0.958 . S
C1551 H1566 0.961 . S
C1551 H1567 0.960 . S
H1552 C1536 0.931 . S
H1553 C1541 0.929 . S
H1554 C1542 0.960 . S
H1555 C1542 0.962 . S
H1556 C1542 0.960 . S
H1557 C1543 0.961 . S
H1558 C1543 0.961 . S
H1559 C1543 0.961 . S
H1560 C1544 0.931 . S
H1561 C1549 0.930 . S
H1562 C1550 0.956 . S
H1563 C1550 0.961 . S
H1564 C1550 0.961 . S
H1565 C1551 0.958 . S
H1566 C1551 0.961 . S
H1567 C1551 0.960 . S
C1568 C1569 1.391 . S
C1568 C1570 1.394 . S
C1568 H1584 0.931 . S
C1569 C1568 1.391 . S
C1569 C1573 1.376 . S
C1570 C1568 1.394 . S
C1570 C1571 1.369 . S
C1570 C1574 1.531 . S
C1571 C1570 1.369 . S
C1571 C1572 1.410 . S
C1571 C1579 1.503 . S
C1572 C1571 1.410 . S
C1572 C1573 1.392 . S
C1572 C1575 1.511 . S
C1573 C1569 1.376 . S
C1573 C1572 1.392 . S
C1573 H1585 0.929 . S
C1574 C1570 1.531 . S
C1574 H1586 0.960 . S
C1574 H1587 0.962 . S
C1574 H1588 0.960 . S
C1575 C1572 1.511 . S
C1575 H1589 0.961 . S
C1575 H1590 0.961 . S
C1575 H1591 0.961 . S
C1576 C1577 1.370 . S
C1576 C1578 1.363 . S
C1576 H1592 0.931 . S
C1577 C1576 1.370 . S
C1577 C1581 1.408 . S
C1578 C1576 1.363 . S
C1578 C1579 1.370 . S
C1578 C1582 1.524 . S
C1579 C1571 1.503 . S
C1579 C1578 1.370 . S
C1579 C1580 1.403 . S
C1580 C1579 1.403 . S
C1580 C1581 1.404 . S
C1580 C1583 1.539 . S
C1581 C1577 1.408 . S
C1581 C1580 1.404 . S
C1581 H1593 0.930 . S
C1582 C1578 1.524 . S
C1582 H1594 0.956 . S
C1582 H1595 0.961 . S
C1582 H1596 0.961 . S
C1583 C1580 1.539 . S
C1583 H1597 0.958 . S
C1583 H1598 0.961 . S
C1583 H1599 0.960 . S
H1584 C1568 0.931 . S
H1585 C1573 0.929 . S
H1586 C1574 0.960 . S
H1587 C1574 0.962 . S
H1588 C1574 0.960 . S
H1589 C1575 0.961 . S
H1590 C1575 0.961 . S
H1591 C1575 0.961 . S
H1592 C1576 0.931 . S
H1593 C1581 0.930 . S
H1594 C1582 0.956 . S
H1595 C1582 0.961 . S
H1596 C1582 0.961 . S
H1597 C1583 0.958 . S
H1598 C1583 0.961 . S
H1599 C1583 0.960 . S
C1600 C1601 1.391 . S
C1600 C1602 1.394 . S
C1600 H1616 0.931 . S
C1601 C1600 1.391 . S
C1601 C1605 1.376 . S
C1602 C1600 1.394 . S
C1602 C1603 1.369 . S
C1602 C1606 1.531 . S
C1603 C1602 1.369 . S
C1603 C1604 1.411 . S
C1603 C1611 1.503 1_556 S
C1604 C1603 1.411 . S
C1604 C1605 1.394 . S
C1604 C1607 1.508 1_556 S
C1605 C1601 1.376 . S
C1605 C1604 1.394 . S
C1605 H1617 0.929 . S
C1606 C1602 1.531 . S
C1606 H1618 0.960 . S
C1606 H1619 0.962 . S
C1606 H1620 0.960 . S
C1607 C1604 1.508 1_554 S
C1607 H1621 0.961 . S
C1607 H1622 0.961 . S
C1607 H1623 0.961 . S
C1608 C1609 1.370 . S
C1608 C1610 1.363 . S
C1608 H1624 0.931 . S
C1609 C1608 1.370 . S
C1609 C1613 1.408 . S
C1610 C1608 1.363 . S
C1610 C1611 1.370 . S
C1610 C1614 1.524 . S
C1611 C1603 1.503 1_554 S
C1611 C1610 1.370 . S
C1611 C1612 1.403 . S
C1612 C1611 1.403 . S
C1612 C1613 1.404 . S
C1612 C1615 1.539 1_554 S
C1613 C1609 1.408 . S
C1613 C1612 1.404 . S
C1613 H1625 0.930 . S
C1614 C1610 1.524 . S
C1614 H1626 0.956 . S
C1614 H1627 0.961 . S
C1614 H1628 0.961 . S
C1615 C1612 1.539 1_556 S
C1615 H1629 0.958 . S
C1615 H1630 0.961 . S
C1615 H1631 0.960 . S
H1616 C1600 0.931 . S
H1617 C1605 0.929 . S
H1618 C1606 0.960 . S
H1619 C1606 0.962 . S
H1620 C1606 0.960 . S
H1621 C1607 0.961 . S
H1622 C1607 0.961 . S
H1623 C1607 0.961 . S
H1624 C1608 0.931 . S
H1625 C1613 0.930 . S
H1626 C1614 0.956 . S
H1627 C1614 0.961 . S
H1628 C1614 0.961 . S
H1629 C1615 0.958 . S
H1630 C1615 0.961 . S
H1631 C1615 0.960 . S
C1632 C1633 1.391 . S
C1632 C1634 1.394 . S
C1632 H1648 0.931 . S
C1633 C1632 1.391 . S
C1633 C1637 1.376 . S
C1634 C1632 1.394 . S
C1634 C1635 1.369 . S
C1634 C1638 1.531 . S
C1635 C1634 1.369 . S
C1635 C1636 1.410 . S
C1635 C1643 1.503 . S
C1636 C1635 1.410 . S
C1636 C1637 1.392 . S
C1636 C1639 1.511 . S
C1637 C1633 1.376 . S
C1637 C1636 1.392 . S
C1637 H1649 0.929 . S
C1638 C1634 1.531 . S
C1638 H1650 0.960 . S
C1638 H1651 0.962 . S
C1638 H1652 0.960 . S
C1639 C1636 1.511 . S
C1639 H1653 0.961 . S
C1639 H1654 0.961 . S
C1639 H1655 0.961 . S
C1640 C1641 1.370 . S
C1640 C1642 1.363 . S
C1640 H1656 0.931 . S
C1641 C1640 1.370 . S
C1641 C1645 1.408 . S
C1642 C1640 1.363 . S
C1642 C1643 1.370 . S
C1642 C1646 1.524 . S
C1643 C1635 1.503 . S
C1643 C1642 1.370 . S
C1643 C1644 1.403 . S
C1644 C1643 1.403 . S
C1644 C1645 1.404 . S
C1644 C1647 1.539 . S
C1645 C1641 1.408 . S
C1645 C1644 1.404 . S
C1645 H1657 0.930 . S
C1646 C1642 1.524 . S
C1646 H1658 0.956 . S
C1646 H1659 0.961 . S
C1646 H1660 0.961 . S
C1647 C1644 1.539 . S
C1647 H1661 0.958 . S
C1647 H1662 0.961 . S
C1647 H1663 0.960 . S
H1648 C1632 0.931 . S
H1649 C1637 0.929 . S
H1650 C1638 0.960 . S
H1651 C1638 0.962 . S
H1652 C1638 0.960 . S
H1653 C1639 0.961 . S
H1654 C1639 0.961 . S
H1655 C1639 0.961 . S
H1656 C1640 0.931 . S
H1657 C1645 0.930 . S
H1658 C1646 0.956 . S
H1659 C1646 0.961 . S
H1660 C1646 0.961 . S
H1661 C1647 0.958 . S
H1662 C1647 0.961 . S
H1663 C1647 0.960 . S
C1664 C1665 1.391 . S
C1664 C1666 1.394 . S
C1664 H1680 0.931 . S
C1665 C1664 1.391 . S
C1665 C1669 1.376 . S
C1666 C1664 1.394 . S
C1666 C1667 1.369 . S
C1666 C1670 1.531 1_554 S
C1667 C1666 1.369 . S
C1667 C1668 1.410 . S
C1667 C1675 1.503 1_544 S
C1668 C1667 1.410 . S
C1668 C1669 1.392 . S
C1668 C1671 1.511 . S
C1669 C1665 1.376 . S
C1669 C1668 1.392 . S
C1669 H1681 0.929 . S
C1670 C1666 1.531 1_556 S
C1670 H1682 0.960 . S
C1670 H1683 0.977 . S
C1670 H1684 0.960 . S
C1671 C1668 1.511 . S
C1671 H1685 0.961 . S
C1671 H1686 0.961 1_545 S
C1671 H1687 0.977 . S
C1672 C1673 1.370 . S
C1672 C1674 1.349 1_556 S
C1672 H1688 0.931 . S
C1673 C1672 1.370 . S
C1673 C1677 1.408 . S
C1674 C1672 1.349 1_554 S
C1674 C1675 1.358 1_554 S
C1674 C1678 1.551 . S
C1675 C1667 1.503 1_566 S
C1675 C1674 1.358 1_556 S
C1675 C1676 1.403 . S
C1676 C1675 1.403 . S
C1676 C1677 1.404 . S
C1676 C1679 1.539 1_565 S
C1677 C1673 1.408 . S
C1677 C1676 1.404 . S
C1677 H1689 0.930 . S
C1678 C1674 1.551 . S
C1678 H1690 0.956 . S
C1678 H1691 0.961 . S
C1678 H1692 0.961 . S
C1679 C1676 1.539 1_545 S
C1679 H1693 0.958 . S
C1679 H1694 0.961 . S
C1679 H1695 0.960 . S
H1680 C1664 0.931 . S
H1681 C1669 0.929 . S
H1682 C1670 0.960 . S
H1683 C1670 0.977 . S
H1684 C1670 0.960 . S
H1685 C1671 0.961 . S
H1686 C1671 0.961 1_565 S
H1687 C1671 0.977 . S
H1688 C1672 0.931 . S
H1689 C1677 0.930 . S
H1690 C1678 0.956 . S
H1691 C1678 0.961 . S
H1692 C1678 0.961 . S
H1693 C1679 0.958 . S
H1694 C1679 0.961 . S
H1695 C1679 0.960 . S
C1696 C1697 1.391 . S
C1696 C1698 1.394 . S
C1696 H1712 0.931 . S
C1697 C1696 1.391 . S
C1697 C1701 1.376 . S
C1698 C1696 1.394 . S
C1698 C1699 1.369 . S
C1698 C1702 1.531 . S
C1699 C1698 1.369 . S
C1699 C1700 1.410 . S
C1699 C1707 1.503 1_565 S
C1700 C1699 1.410 . S
C1700 C1701 1.392 . S
C1700 C1703 1.511 . S
C1701 C1697 1.376 . S
C1701 C1700 1.392 . S
C1701 H1713 0.929 . S
C1702 C1698 1.531 . S
C1702 H1714 0.960 1_565 S
C1702 H1715 0.962 . S
C1702 H1716 0.960 . S
C1703 C1700 1.511 . S
C1703 H1717 0.961 . S
C1703 H1718 0.961 1_565 S
C1703 H1719 0.961 1_565 S
C1704 C1705 1.370 . S
C1704 C1706 1.363 . S
C1704 H1720 0.931 . S
C1705 C1704 1.370 . S
C1705 C1709 1.408 . S
C1706 C1704 1.363 . S
C1706 C1707 1.370 . S
C1706 C1710 1.524 1_545 S
C1707 C1699 1.503 1_545 S
C1707 C1706 1.370 . S
C1707 C1708 1.403 . S
C1708 C1707 1.403 . S
C1708 C1709 1.404 . S
C1708 C1711 1.539 . S
C1709 C1705 1.408 . S
C1709 C1708 1.404 . S
C1709 H1721 0.930 . S
C1710 C1706 1.524 1_565 S
C1710 H1722 0.956 . S
C1710 H1723 0.961 . S
C1710 H1724 0.961 . S
C1711 C1708 1.539 . S
C1711 H1725 0.958 . S
C1711 H1726 0.961 . S
C1711 H1727 0.960 . S
H1712 C1696 0.931 . S
H1713 C1701 0.929 . S
H1714 C1702 0.960 1_545 S
H1715 C1702 0.962 . S
H1716 C1702 0.960 . S
H1717 C1703 0.961 . S
H1718 C1703 0.961 1_545 S
H1719 C1703 0.961 1_545 S
H1720 C1704 0.931 . S
H1721 C1709 0.930 . S
H1722 C1710 0.956 . S
H1723 C1710 0.961 . S
H1724 C1710 0.961 . S
H1725 C1711 0.958 . S
H1726 C1711 0.961 . S
H1727 C1711 0.960 . S
C1728 C1729 1.391 . S
C1728 C1730 1.394 . S
C1728 H1744 0.931 . S
C1729 C1728 1.391 . S
C1729 C1733 1.376 . S
C1730 C1728 1.394 . S
C1730 C1731 1.369 . S
C1730 C1734 1.531 1_565 S
C1731 C1730 1.369 . S
C1731 C1732 1.410 . S
C1731 C1739 1.503 1_566 S
C1732 C1731 1.410 . S
C1732 C1733 1.393 . S
C1732 C1735 1.510 1_556 S
C1733 C1729 1.376 . S
C1733 C1732 1.393 . S
C1733 H1745 0.929 . S
C1734 C1730 1.531 1_545 S
C1734 H1746 0.960 . S
C1734 H1747 0.962 . S
C1734 H1748 0.960 . S
C1735 C1732 1.510 1_554 S
C1735 H1749 0.961 . S
C1735 H1750 0.961 . S
C1735 H1751 0.961 . S
C1736 C1737 1.370 . S
C1736 C1738 1.363 . S
C1736 H1752 0.931 . S
C1737 C1736 1.370 . S
C1737 C1741 1.408 . S
C1738 C1736 1.363 . S
C1738 C1739 1.370 . S
C1738 C1742 1.524 1_545 S
C1739 C1731 1.503 1_544 S
C1739 C1738 1.370 . S
C1739 C1740 1.403 . S
C1740 C1739 1.403 . S
C1740 C1741 1.404 . S
C1740 C1743 1.539 1_554 S
C1741 C1737 1.408 . S
C1741 C1740 1.404 . S
C1741 H1753 0.930 . S
C1742 C1738 1.524 1_565 S
C1742 H1754 0.956 . S
C1742 H1755 0.961 . S
C1742 H1756 0.961 1_565 S
C1743 C1740 1.539 1_556 S
C1743 H1757 0.958 . S
C1743 H1758 0.961 . S
C1743 H1759 0.960 . S
H1744 C1728 0.931 . S
H1745 C1733 0.929 . S
H1746 C1734 0.960 . S
H1747 C1734 0.962 . S
H1748 C1734 0.960 . S
H1749 C1735 0.961 . S
H1750 C1735 0.961 . S
H1751 C1735 0.961 . S
H1752 C1736 0.931 . S
H1753 C1741 0.930 . S
H1754 C1742 0.956 . S
H1755 C1742 0.961 . S
H1756 C1742 0.961 1_545 S
H1757 C1743 0.958 . S
H1758 C1743 0.961 . S
H1759 C1743 0.960 . S
C1760 C1761 1.391 . S
C1760 C1762 1.394 . S
C1760 H1776 0.931 . S
C1761 C1760 1.391 . S
C1761 C1765 1.376 . S
C1762 C1760 1.394 . S
C1762 C1763 1.369 . S
C1762 C1766 1.531 1_545 S
C1763 C1762 1.369 . S
C1763 C1764 1.410 . S
C1763 C1771 1.503 1_545 S
C1764 C1763 1.410 . S
C1764 C1765 1.392 . S
C1764 C1767 1.511 . S
C1765 C1761 1.376 . S
C1765 C1764 1.392 . S
C1765 H1777 0.929 . S
C1766 C1762 1.531 1_565 S
C1766 H1778 0.960 . S
C1766 H1779 0.962 . S
C1766 H1780 0.960 . S
C1767 C1764 1.511 . S
C1767 H1781 0.961 . S
C1767 H1782 0.961 . S
C1767 H1783 0.961 . S
C1768 C1769 1.370 . S
C1768 C1770 1.363 . S
C1768 H1784 0.931 . S
C1769 C1768 1.370 . S
C1769 C1773 1.408 . S
C1770 C1768 1.363 . S
C1770 C1771 1.370 . S
C1770 C1774 1.524 1_565 S
C1771 C1763 1.503 1_565 S
C1771 C1770 1.370 . S
C1771 C1772 1.403 . S
C1772 C1771 1.403 . S
C1772 C1773 1.404 . S
C1772 C1775 1.539 . S
C1773 C1769 1.408 . S
C1773 C1772 1.404 . S
C1773 H1785 0.930 . S
C1774 C1770 1.524 1_545 S
C1774 H1786 0.956 . S
C1774 H1787 0.961 . S
C1774 H1788 0.961 . S
C1775 C1772 1.539 . S
C1775 H1789 0.958 . S
C1775 H1790 0.961 . S
C1775 H1791 0.960 . S
H1776 C1760 0.931 . S
H1777 C1765 0.929 . S
H1778 C1766 0.960 . S
H1779 C1766 0.962 . S
H1780 C1766 0.960 . S
H1781 C1767 0.961 . S
H1782 C1767 0.961 . S
H1783 C1767 0.961 . S
H1784 C1768 0.931 . S
H1785 C1773 0.930 . S
H1786 C1774 0.956 . S
H1787 C1774 0.961 . S
H1788 C1774 0.961 . S
H1789 C1775 0.958 . S
H1790 C1775 0.961 . S
H1791 C1775 0.960 . S
C1792 C1793 1.391 . S
C1792 C1794 1.394 . S
C1792 H1808 0.931 . S
C1793 C1792 1.391 . S
C1793 C1797 1.376 . S
C1794 C1792 1.394 . S
C1794 C1795 1.369 . S
C1794 C1798 1.531 . S
C1795 C1794 1.369 . S
C1795 C1796 1.410 . S
C1795 C1803 1.503 1_556 S
C1796 C1795 1.410 . S
C1796 C1797 1.392 . S
C1796 C1799 1.511 1_556 S
C1797 C1793 1.376 . S
C1797 C1796 1.392 . S
C1797 H1809 0.929 . S
C1798 C1794 1.531 . S
C1798 H1810 0.960 . S
C1798 H1811 0.962 . S
C1798 H1812 0.960 . S
C1799 C1796 1.511 1_554 S
C1799 H1813 0.961 . S
C1799 H1814 0.961 . S
C1799 H1815 0.961 1_554 S
C1800 C1801 1.370 . S
C1800 C1802 1.363 . S
C1800 H1816 0.931 . S
C1801 C1800 1.370 . S
C1801 C1805 1.408 . S
C1802 C1800 1.363 . S
C1802 C1803 1.370 . S
C1802 C1806 1.524 . S
C1803 C1795 1.503 1_554 S
C1803 C1802 1.370 . S
C1803 C1804 1.403 1_554 S
C1804 C1803 1.403 1_556 S
C1804 C1805 1.404 1_556 S
C1804 C1807 1.539 . S
C1805 C1801 1.408 . S
C1805 C1804 1.404 1_554 S
C1805 H1817 0.930 . S
C1806 C1802 1.524 . S
C1806 H1818 0.956 . S
C1806 H1819 0.961 . S
C1806 H1820 0.961 . S
C1807 C1804 1.539 . S
C1807 H1821 0.958 . S
C1807 H1822 0.961 . S
C1807 H1823 0.960 . S
H1808 C1792 0.931 . S
H1809 C1797 0.929 . S
H1810 C1798 0.960 . S
H1811 C1798 0.962 . S
H1812 C1798 0.960 . S
H1813 C1799 0.961 . S
H1814 C1799 0.961 . S
H1815 C1799 0.961 1_556 S
H1816 C1800 0.931 . S
H1817 C1805 0.930 . S
H1818 C1806 0.956 . S
H1819 C1806 0.961 . S
H1820 C1806 0.961 . S
H1821 C1807 0.958 . S
H1822 C1807 0.961 . S
H1823 C1807 0.960 . S
C1824 C1825 1.391 . S
C1824 C1826 1.394 . S
C1824 H1840 0.931 . S
C1825 C1824 1.391 . S
C1825 C1829 1.376 . S
C1826 C1824 1.394 . S
C1826 C1827 1.369 . S
C1826 C1830 1.531 . S
C1827 C1826 1.369 . S
C1827 C1828 1.410 . S
C1827 C1835 1.503 . S
C1828 C1827 1.410 . S
C1828 C1829 1.392 . S
C1828 C1831 1.511 . S
C1829 C1825 1.376 . S
C1829 C1828 1.392 . S
C1829 H1841 0.929 . S
C1830 C1826 1.531 . S
C1830 H1842 0.960 . S
C1830 H1843 0.962 . S
C1830 H1844 0.960 . S
C1831 C1828 1.511 . S
C1831 H1845 0.961 . S
C1831 H1846 0.961 . S
C1831 H1847 0.961 . S
C1832 C1833 1.370 . S
C1832 C1834 1.363 . S
C1832 H1848 0.931 . S
C1833 C1832 1.370 . S
C1833 C1837 1.408 . S
C1834 C1832 1.363 . S
C1834 C1835 1.370 . S
C1834 C1838 1.524 . S
C1835 C1827 1.503 . S
C1835 C1834 1.370 . S
C1835 C1836 1.403 . S
C1836 C1835 1.403 . S
C1836 C1837 1.404 . S
C1836 C1839 1.539 . S
C1837 C1833 1.408 . S
C1837 C1836 1.404 . S
C1837 H1849 0.930 . S
C1838 C1834 1.524 . S
C1838 H1850 0.956 . S
C1838 H1851 0.961 . S
C1838 H1852 0.961 . S
C1839 C1836 1.539 . S
C1839 H1853 0.958 . S
C1839 H1854 0.961 . S
C1839 H1855 0.960 . S
H1840 C1824 0.931 . S
H1841 C1829 0.929 . S
H1842 C1830 0.960 . S
H1843 C1830 0.962 . S
H1844 C1830 0.960 . S
H1845 C1831 0.961 . S
H1846 C1831 0.961 . S
H1847 C1831 0.961 . S
H1848 C1832 0.931 . S
H1849 C1837 0.930 . S
H1850 C1838 0.956 . S
H1851 C1838 0.961 . S
H1852 C1838 0.961 . S
H1853 C1839 0.958 . S
H1854 C1839 0.961 . S
H1855 C1839 0.960 . S
C1856 C1857 1.391 . S
C1856 C1858 1.394 1_554 S
C1856 H1872 0.931 . S
C1857 C1856 1.391 . S
C1857 C1861 1.376 . S
C1858 C1856 1.394 1_556 S
C1858 C1859 1.369 1_556 S
C1858 C1862 1.531 . S
C1859 C1858 1.369 1_554 S
C1859 C1860 1.410 . S
C1859 C1867 1.503 1_554 S
C1860 C1859 1.410 . S
C1860 C1861 1.392 . S
C1860 C1863 1.511 . S
C1861 C1857 1.376 . S
C1861 C1860 1.392 . S
C1861 H1873 0.929 . S
C1862 C1858 1.531 . S
C1862 H1874 0.960 . S
C1862 H1875 0.962 . S
C1862 H1876 0.960 . S
C1863 C1860 1.511 . S
C1863 H1877 0.961 . S
C1863 H1878 0.961 . S
C1863 H1879 0.961 . S
C1864 C1865 1.370 . S
C1864 C1866 1.363 . S
C1864 H1880 0.931 . S
C1865 C1864 1.370 . S
C1865 C1869 1.408 . S
C1866 C1864 1.363 . S
C1866 C1867 1.370 . S
C1866 C1870 1.524 1_556 S
C1867 C1859 1.503 1_556 S
C1867 C1866 1.370 . S
C1867 C1868 1.403 . S
C1868 C1867 1.403 . S
C1868 C1869 1.404 . S
C1868 C1871 1.539 . S
C1869 C1865 1.408 . S
C1869 C1868 1.404 . S
C1869 H1881 0.930 . S
C1870 C1866 1.524 1_554 S
C1870 H1882 0.956 . S
C1870 H1883 0.961 . S
C1870 H1884 0.961 . S
C1871 C1868 1.539 . S
C1871 H1885 0.958 . S
C1871 H1886 0.961 . S
C1871 H1887 0.960 . S
H1872 C1856 0.931 . S
H1873 C1861 0.929 . S
H1874 C1862 0.960 . S
H1875 C1862 0.962 . S
H1876 C1862 0.960 . S
H1877 C1863 0.961 . S
H1878 C1863 0.961 . S
H1879 C1863 0.961 . S
H1880 C1864 0.931 . S
H1881 C1869 0.930 . S
H1882 C1870 0.956 . S
H1883 C1870 0.961 . S
H1884 C1870 0.961 . S
H1885 C1871 0.958 . S
H1886 C1871 0.961 . S
H1887 C1871 0.960 . S
C1888 C1889 1.391 . S
C1888 C1890 1.394 . S
C1888 H1904 0.931 . S
C1889 C1888 1.391 . S
C1889 C1893 1.376 . S
C1890 C1888 1.394 . S
C1890 C1891 1.369 . S
C1890 C1894 1.531 . S
C1891 C1890 1.369 . S
C1891 C1892 1.410 . S
C1891 C1899 1.503 . S
C1892 C1891 1.410 . S
C1892 C1893 1.392 . S
C1892 C1895 1.511 . S
C1893 C1889 1.376 . S
C1893 C1892 1.392 . S
C1893 H1905 0.929 . S
C1894 C1890 1.531 . S
C1894 H1906 0.960 . S
C1894 H1907 0.962 . S
C1894 H1908 0.960 . S
C1895 C1892 1.511 . S
C1895 H1909 0.961 . S
C1895 H1910 0.961 . S
C1895 H1911 0.961 . S
C1896 C1897 1.370 . S
C1896 C1898 1.363 . S
C1896 H1912 0.931 . S
C1897 C1896 1.370 . S
C1897 C1901 1.408 . S
C1898 C1896 1.363 . S
C1898 C1899 1.370 . S
C1898 C1902 1.524 . S
C1899 C1891 1.503 . S
C1899 C1898 1.370 . S
C1899 C1900 1.403 . S
C1900 C1899 1.403 . S
C1900 C1901 1.404 . S
C1900 C1903 1.539 . S
C1901 C1897 1.408 . S
C1901 C1900 1.404 . S
C1901 H1913 0.930 . S
C1902 C1898 1.524 . S
C1902 H1914 0.956 . S
C1902 H1915 0.961 . S
C1902 H1916 0.961 . S
C1903 C1900 1.539 . S
C1903 H1917 0.958 . S
C1903 H1918 0.961 . S
C1903 H1919 0.960 . S
H1904 C1888 0.931 . S
H1905 C1893 0.929 . S
H1906 C1894 0.960 . S
H1907 C1894 0.962 . S
H1908 C1894 0.960 . S
H1909 C1895 0.961 . S
H1910 C1895 0.961 . S
H1911 C1895 0.961 . S
H1912 C1896 0.931 . S
H1913 C1901 0.930 . S
H1914 C1902 0.956 . S
H1915 C1902 0.961 . S
H1916 C1902 0.961 . S
H1917 C1903 0.958 . S
H1918 C1903 0.961 . S
H1919 C1903 0.960 . S
C1920 C1921 1.391 . S
C1920 C1922 1.394 . S
C1920 H1936 0.931 . S
C1921 C1920 1.391 . S
C1921 C1925 1.376 . S
C1922 C1920 1.394 . S
C1922 C1923 1.369 . S
C1922 C1926 1.531 . S
C1923 C1922 1.369 . S
C1923 C1924 1.410 . S
C1923 C1931 1.503 . S
C1924 C1923 1.410 . S
C1924 C1925 1.392 . S
C1924 C1927 1.511 . S
C1925 C1921 1.376 . S
C1925 C1924 1.392 . S
C1925 H1937 0.929 . S
C1926 C1922 1.531 . S
C1926 H1938 0.960 . S
C1926 H1939 0.962 . S
C1926 H1940 0.960 . S
C1927 C1924 1.511 . S
C1927 H1941 0.961 . S
C1927 H1942 0.961 . S
C1927 H1943 0.961 . S
C1928 C1929 1.370 . S
C1928 C1930 1.363 . S
C1928 H1944 0.931 . S
C1929 C1928 1.370 . S
C1929 C1933 1.408 . S
C1930 C1928 1.363 . S
C1930 C1931 1.370 . S
C1930 C1934 1.524 . S
C1931 C1923 1.503 . S
C1931 C1930 1.370 . S
C1931 C1932 1.403 . S
C1932 C1931 1.403 . S
C1932 C1933 1.404 . S
C1932 C1935 1.539 . S
C1933 C1929 1.408 . S
C1933 C1932 1.404 . S
C1933 H1945 0.930 . S
C1934 C1930 1.524 . S
C1934 H1946 0.956 . S
C1934 H1947 0.961 . S
C1934 H1948 0.961 . S
C1935 C1932 1.539 . S
C1935 H1949 0.958 . S
C1935 H1950 0.961 . S
C1935 H1951 0.960 . S
H1936 C1920 0.931 . S
H1937 C1925 0.929 . S
H1938 C1926 0.960 . S
H1939 C1926 0.962 . S
H1940 C1926 0.960 . S
H1941 C1927 0.961 . S
H1942 C1927 0.961 . S
H1943 C1927 0.961 . S
H1944 C1928 0.931 . S
H1945 C1933 0.930 . S
H1946 C1934 0.956 . S
H1947 C1934 0.961 . S
H1948 C1934 0.961 . S
H1949 C1935 0.958 . S
H1950 C1935 0.961 . S
H1951 C1935 0.960 . S
C1952 C1953 1.391 . S
C1952 C1954 1.394 . S
C1952 H1968 0.931 . S
C1953 C1952 1.391 . S
C1953 C1957 1.376 . S
C1954 C1952 1.394 . S
C1954 C1955 1.369 . S
C1954 C1958 1.531 . S
C1955 C1954 1.369 . S
C1955 C1956 1.410 . S
C1955 C1963 1.503 1_655 S
C1956 C1955 1.410 . S
C1956 C1957 1.392 . S
C1956 C1959 1.511 . S
C1957 C1953 1.376 . S
C1957 C1956 1.392 . S
C1957 H1969 0.929 . S
C1958 C1954 1.531 . S
C1958 H1970 0.960 1_655 S
C1958 H1971 0.962 . S
C1958 H1972 0.960 . S
C1959 C1956 1.511 . S
C1959 H1973 0.961 . S
C1959 H1974 0.961 1_655 S
C1959 H1975 0.961 . S
C1960 C1961 1.370 . S
C1960 C1962 1.363 . S
C1960 H1976 0.931 . S
C1961 C1960 1.370 . S
C1961 C1965 1.408 . S
C1962 C1960 1.363 . S
C1962 C1963 1.370 . S
C1962 C1966 1.524 . S
C1963 C1955 1.503 1_455 S
C1963 C1962 1.370 . S
C1963 C1964 1.403 . S
C1964 C1963 1.403 . S
C1964 C1965 1.404 . S
C1964 C1967 1.539 . S
C1965 C1961 1.408 . S
C1965 C1964 1.404 . S
C1965 H1977 0.930 . S
C1966 C1962 1.524 . S
C1966 H1978 0.960 . S
C1966 H1979 0.961 1_455 S
C1966 H1980 0.961 . S
C1967 C1964 1.539 . S
C1967 H1981 0.958 . S
C1967 H1982 0.961 . S
C1967 H1983 0.953 1_455 S
H1968 C1952 0.931 . S
H1969 C1957 0.929 . S
H1970 C1958 0.960 1_455 S
H1971 C1958 0.962 . S
H1972 C1958 0.960 . S
H1973 C1959 0.961 . S
H1974 C1959 0.961 1_455 S
H1975 C1959 0.961 . S
H1976 C1960 0.931 . S
H1977 C1965 0.930 . S
H1978 C1966 0.960 . S
H1979 C1966 0.961 1_655 S
H1980 C1966 0.961 . S
H1981 C1967 0.958 . S
H1982 C1967 0.961 . S
H1983 C1967 0.953 1_655 S
C1984 C1985 1.391 . S
C1984 C1986 1.394 . S
C1984 H2000 0.931 . S
C1985 C1984 1.391 . S
C1985 C1989 1.376 . S
C1986 C1984 1.394 . S
C1986 C1987 1.369 . S
C1986 C1990 1.531 . S
C1987 C1986 1.369 . S
C1987 C1988 1.410 . S
C1987 C1995 1.503 . S
C1988 C1987 1.410 . S
C1988 C1989 1.392 . S
C1988 C1991 1.511 . S
C1989 C1985 1.376 . S
C1989 C1988 1.392 . S
C1989 H2001 0.929 . S
C1990 C1986 1.531 . S
C1990 H2002 0.960 . S
C1990 H2003 0.962 . S
C1990 H2004 0.960 . S
C1991 C1988 1.511 . S
C1991 H2005 0.961 . S
C1991 H2006 0.961 . S
C1991 H2007 0.961 . S
C1992 C1993 1.370 . S
C1992 C1994 1.363 . S
C1992 H2008 0.931 . S
C1993 C1992 1.370 . S
C1993 C1997 1.408 . S
C1994 C1992 1.363 . S
C1994 C1995 1.370 . S
C1994 C1998 1.524 . S
C1995 C1987 1.503 . S
C1995 C1994 1.370 . S
C1995 C1996 1.403 . S
C1996 C1995 1.403 . S
C1996 C1997 1.404 . S
C1996 C1999 1.539 . S
C1997 C1993 1.408 . S
C1997 C1996 1.404 . S
C1997 H2009 0.930 . S
C1998 C1994 1.524 . S
C1998 H2010 0.956 . S
C1998 H2011 0.961 . S
C1998 H2012 0.961 . S
C1999 C1996 1.539 . S
C1999 H2013 0.958 . S
C1999 H2014 0.961 . S
C1999 H2015 0.960 . S
H2000 C1984 0.931 . S
H2001 C1989 0.929 . S
H2002 C1990 0.960 . S
H2003 C1990 0.962 . S
H2004 C1990 0.960 . S
H2005 C1991 0.961 . S
H2006 C1991 0.961 . S
H2007 C1991 0.961 . S
H2008 C1992 0.931 . S
H2009 C1997 0.930 . S
H2010 C1998 0.956 . S
H2011 C1998 0.961 . S
H2012 C1998 0.961 . S
H2013 C1999 0.958 . S
H2014 C1999 0.961 . S
H2015 C1999 0.960 . S
C2016 C2017 1.391 . S
C2016 C2018 1.394 . S
C2016 H2032 0.931 . S
C2017 C2016 1.391 . S
C2017 C2021 1.376 . S
C2018 C2016 1.394 . S
C2018 C2019 1.369 . S
C2018 C2022 1.531 . S
C2019 C2018 1.369 . S
C2019 C2020 1.410 . S
C2019 C2027 1.503 1_455 S
C2020 C2019 1.410 . S
C2020 C2021 1.392 . S
C2020 C2023 1.511 . S
C2021 C2017 1.376 . S
C2021 C2020 1.392 . S
C2021 H2033 0.929 . S
C2022 C2018 1.531 . S
C2022 H2034 0.960 1_455 S
C2022 H2035 0.962 . S
C2022 H2036 0.960 . S
C2023 C2020 1.511 . S
C2023 H2037 0.961 . S
C2023 H2038 0.961 1_455 S
C2023 H2039 0.961 . S
C2024 C2025 1.370 . S
C2024 C2026 1.363 . S
C2024 H2040 0.931 . S
C2025 C2024 1.370 . S
C2025 C2029 1.408 . S
C2026 C2024 1.363 . S
C2026 C2027 1.370 . S
C2026 C2030 1.524 . S
C2027 C2019 1.503 1_655 S
C2027 C2026 1.370 . S
C2027 C2028 1.403 . S
C2028 C2027 1.403 . S
C2028 C2029 1.404 . S
C2028 C2031 1.539 . S
C2029 C2025 1.408 . S
C2029 C2028 1.404 . S
C2029 H2041 0.930 . S
C2030 C2026 1.524 . S
C2030 H2042 0.956 . S
C2030 H2043 0.942 1_655 S
C2030 H2044 0.961 . S
C2031 C2028 1.539 . S
C2031 H2045 0.958 . S
C2031 H2046 0.961 . S
C2031 H2047 1.005 . S
H2032 C2016 0.931 . S
H2033 C2021 0.929 . S
H2034 C2022 0.960 1_655 S
H2035 C2022 0.962 . S
H2036 C2022 0.960 . S
H2037 C2023 0.961 . S
H2038 C2023 0.961 1_655 S
H2039 C2023 0.961 . S
H2040 C2024 0.931 . S
H2041 C2029 0.930 . S
H2042 C2030 0.956 . S
H2043 C2030 0.942 1_455 S
H2044 C2030 0.961 . S
H2045 C2031 0.958 . S
H2046 C2031 0.961 . S
H2047 C2031 1.005 . S
C2048 C2049 1.391 . S
C2048 C2050 1.394 . S
C2048 H2064 0.931 . S
C2049 C2048 1.391 . S
C2049 C2053 1.376 . S
C2050 C2048 1.394 . S
C2050 C2051 1.369 . S
C2050 C2054 1.531 . S
C2051 C2050 1.369 . S
C2051 C2052 1.410 . S
C2051 C2059 1.503 1_455 S
C2052 C2051 1.410 . S
C2052 C2053 1.392 . S
C2052 C2055 1.511 . S
C2053 C2049 1.376 . S
C2053 C2052 1.392 . S
C2053 H2065 0.929 . S
C2054 C2050 1.531 . S
C2054 H2066 0.960 1_455 S
C2054 H2067 0.962 . S
C2054 H2068 0.960 . S
C2055 C2052 1.511 . S
C2055 H2069 0.961 . S
C2055 H2070 0.961 1_455 S
C2055 H2071 0.961 . S
C2056 C2057 1.370 . S
C2056 C2058 1.363 . S
C2056 H2072 0.931 . S
C2057 C2056 1.370 . S
C2057 C2061 1.408 . S
C2058 C2056 1.363 . S
C2058 C2059 1.370 . S
C2058 C2062 1.524 . S
C2059 C2051 1.503 1_655 S
C2059 C2058 1.370 . S
C2059 C2060 1.403 . S
C2060 C2059 1.403 . S
C2060 C2061 1.404 . S
C2060 C2063 1.539 . S
C2061 C2057 1.408 . S
C2061 C2060 1.404 . S
C2061 H2073 0.930 . S
C2062 C2058 1.524 . S
C2062 H2074 0.960 . S
C2062 H2075 0.961 1_655 S
C2062 H2076 0.961 . S
C2063 C2060 1.539 . S
C2063 H2077 0.958 . S
C2063 H2078 0.961 . S
C2063 H2079 0.953 1_655 S
H2064 C2048 0.931 . S
H2065 C2053 0.929 . S
H2066 C2054 0.960 1_655 S
H2067 C2054 0.962 . S
H2068 C2054 0.960 . S
H2069 C2055 0.961 . S
H2070 C2055 0.961 1_655 S
H2071 C2055 0.961 . S
H2072 C2056 0.931 . S
H2073 C2061 0.930 . S
H2074 C2062 0.960 . S
H2075 C2062 0.961 1_455 S
H2076 C2062 0.961 . S
H2077 C2063 0.958 . S
H2078 C2063 0.961 . S
H2079 C2063 0.953 1_455 S
C2080 C2081 1.391 . S
C2080 C2082 1.394 . S
C2080 H2096 0.931 . S
C2081 C2080 1.391 . S
C2081 C2085 1.376 . S
C2082 C2080 1.394 . S
C2082 C2083 1.369 . S
C2082 C2086 1.531 . S
C2083 C2082 1.369 . S
C2083 C2084 1.410 . S
C2083 C2091 1.503 . S
C2084 C2083 1.410 . S
C2084 C2085 1.392 . S
C2084 C2087 1.511 . S
C2085 C2081 1.376 . S
C2085 C2084 1.392 . S
C2085 H2097 0.929 . S
C2086 C2082 1.531 . S
C2086 H2098 0.960 . S
C2086 H2099 0.962 . S
C2086 H2100 0.960 . S
C2087 C2084 1.511 . S
C2087 H2101 0.961 . S
C2087 H2102 0.961 . S
C2087 H2103 0.961 . S
C2088 C2089 1.370 . S
C2088 C2090 1.363 . S
C2088 H2104 0.931 . S
C2089 C2088 1.370 . S
C2089 C2093 1.408 . S
C2090 C2088 1.363 . S
C2090 C2091 1.370 . S
C2090 C2094 1.524 . S
C2091 C2083 1.503 . S
C2091 C2090 1.370 . S
C2091 C2092 1.403 . S
C2092 C2091 1.403 . S
C2092 C2093 1.404 . S
C2092 C2095 1.539 . S
C2093 C2089 1.408 . S
C2093 C2092 1.404 . S
C2093 H2105 0.930 . S
C2094 C2090 1.524 . S
C2094 H2106 0.956 . S
C2094 H2107 0.961 . S
C2094 H2108 0.961 . S
C2095 C2092 1.539 . S
C2095 H2109 0.958 . S
C2095 H2110 0.961 . S
C2095 H2111 0.960 . S
H2096 C2080 0.931 . S
H2097 C2085 0.929 . S
H2098 C2086 0.960 . S
H2099 C2086 0.962 . S
H2100 C2086 0.960 . S
H2101 C2087 0.961 . S
H2102 C2087 0.961 . S
H2103 C2087 0.961 . S
H2104 C2088 0.931 . S
H2105 C2093 0.930 . S
H2106 C2094 0.956 . S
H2107 C2094 0.961 . S
H2108 C2094 0.961 . S
H2109 C2095 0.958 . S
H2110 C2095 0.961 . S
H2111 C2095 0.960 . S
C2112 C2113 1.391 . S
C2112 C2114 1.394 . S
C2112 H2128 0.931 . S
C2113 C2112 1.391 . S
C2113 C2117 1.376 . S
C2114 C2112 1.394 . S
C2114 C2115 1.369 . S
C2114 C2118 1.531 . S
C2115 C2114 1.369 . S
C2115 C2116 1.410 . S
C2115 C2123 1.503 1_455 S
C2116 C2115 1.410 . S
C2116 C2117 1.392 . S
C2116 C2119 1.511 . S
C2117 C2113 1.376 . S
C2117 C2116 1.392 . S
C2117 H2129 0.929 . S
C2118 C2114 1.531 . S
C2118 H2130 0.960 1_455 S
C2118 H2131 0.962 . S
C2118 H2132 0.960 . S
C2119 C2116 1.511 . S
C2119 H2133 0.961 . S
C2119 H2134 0.961 1_455 S
C2119 H2135 0.961 . S
C2120 C2121 1.370 . S
C2120 C2122 1.363 . S
C2120 H2136 0.931 . S
C2121 C2120 1.370 . S
C2121 C2125 1.408 . S
C2122 C2120 1.363 . S
C2122 C2123 1.370 . S
C2122 C2126 1.524 . S
C2123 C2115 1.503 1_655 S
C2123 C2122 1.370 . S
C2123 C2124 1.403 . S
C2124 C2123 1.403 . S
C2124 C2125 1.404 . S
C2124 C2127 1.539 . S
C2125 C2121 1.408 . S
C2125 C2124 1.404 . S
C2125 H2137 0.930 . S
C2126 C2122 1.524 . S
C2126 H2138 0.967 . S
C2126 H2139 0.961 1_655 S
C2126 H2140 0.961 . S
C2127 C2124 1.539 . S
C2127 H2141 0.958 . S
C2127 H2142 0.961 . S
C2127 H2143 0.941 1_655 S
H2128 C2112 0.931 . S
H2129 C2117 0.929 . S
H2130 C2118 0.960 1_655 S
H2131 C2118 0.962 . S
H2132 C2118 0.960 . S
H2133 C2119 0.961 . S
H2134 C2119 0.961 1_655 S
H2135 C2119 0.961 . S
H2136 C2120 0.931 . S
H2137 C2125 0.930 . S
H2138 C2126 0.967 . S
H2139 C2126 0.961 1_455 S
H2140 C2126 0.961 . S
H2141 C2127 0.958 . S
H2142 C2127 0.961 . S
H2143 C2127 0.941 1_455 S
C2144 C2145 1.391 . S
C2144 C2146 1.394 . S
C2144 H2160 0.931 . S
C2145 C2144 1.391 . S
C2145 C2149 1.376 . S
C2146 C2144 1.394 . S
C2146 C2147 1.369 . S
C2146 C2150 1.531 . S
C2147 C2146 1.369 . S
C2147 C2148 1.410 . S
C2147 C2155 1.503 . S
C2148 C2147 1.410 . S
C2148 C2149 1.392 . S
C2148 C2151 1.511 . S
C2149 C2145 1.376 . S
C2149 C2148 1.392 . S
C2149 H2161 0.929 . S
C2150 C2146 1.531 . S
C2150 H2162 0.960 . S
C2150 H2163 0.962 . S
C2150 H2164 0.960 . S
C2151 C2148 1.511 . S
C2151 H2165 0.961 . S
C2151 H2166 0.961 . S
C2151 H2167 0.961 . S
C2152 C2153 1.370 . S
C2152 C2154 1.363 . S
C2152 H2168 0.931 . S
C2153 C2152 1.370 . S
C2153 C2157 1.408 . S
C2154 C2152 1.363 . S
C2154 C2155 1.370 . S
C2154 C2158 1.524 . S
C2155 C2147 1.503 . S
C2155 C2154 1.370 . S
C2155 C2156 1.403 . S
C2156 C2155 1.403 . S
C2156 C2157 1.404 . S
C2156 C2159 1.539 . S
C2157 C2153 1.408 . S
C2157 C2156 1.404 . S
C2157 H2169 0.930 . S
C2158 C2154 1.524 . S
C2158 H2170 0.956 . S
C2158 H2171 0.961 . S
C2158 H2172 0.961 . S
C2159 C2156 1.539 . S
C2159 H2173 0.958 . S
C2159 H2174 0.961 . S
C2159 H2175 0.960 . S
H2160 C2144 0.931 . S
H2161 C2149 0.929 . S
H2162 C2150 0.960 . S
H2163 C2150 0.962 . S
H2164 C2150 0.960 . S
H2165 C2151 0.961 . S
H2166 C2151 0.961 . S
H2167 C2151 0.961 . S
H2168 C2152 0.931 . S
H2169 C2157 0.930 . S
H2170 C2158 0.956 . S
H2171 C2158 0.961 . S
H2172 C2158 0.961 . S
H2173 C2159 0.958 . S
H2174 C2159 0.961 . S
H2175 C2159 0.960 . S
C2176 C2177 1.391 . S
C2176 C2178 1.394 . S
C2176 H2192 0.931 . S
C2177 C2176 1.391 . S
C2177 C2181 1.376 . S
C2178 C2176 1.394 . S
C2178 C2179 1.369 . S
C2178 C2182 1.531 . S
C2179 C2178 1.369 . S
C2179 C2180 1.410 . S
C2179 C2187 1.503 . S
C2180 C2179 1.410 . S
C2180 C2181 1.392 . S
C2180 C2183 1.511 . S
C2181 C2177 1.376 . S
C2181 C2180 1.392 . S
C2181 H2193 0.929 . S
C2182 C2178 1.531 . S
C2182 H2194 0.960 . S
C2182 H2195 0.962 . S
C2182 H2196 0.960 . S
C2183 C2180 1.511 . S
C2183 H2197 0.961 . S
C2183 H2198 0.961 . S
C2183 H2199 0.961 . S
C2184 C2185 1.370 . S
C2184 C2186 1.363 . S
C2184 H2200 0.931 . S
C2185 C2184 1.370 . S
C2185 C2189 1.408 . S
C2186 C2184 1.363 . S
C2186 C2187 1.370 . S
C2186 C2190 1.524 . S
C2187 C2179 1.503 . S
C2187 C2186 1.370 . S
C2187 C2188 1.403 . S
C2188 C2187 1.403 . S
C2188 C2189 1.404 . S
C2188 C2191 1.539 . S
C2189 C2185 1.408 . S
C2189 C2188 1.404 . S
C2189 H2201 0.930 . S
C2190 C2186 1.524 . S
C2190 H2202 0.956 . S
C2190 H2203 0.961 . S
C2190 H2204 0.961 . S
C2191 C2188 1.539 . S
C2191 H2205 0.958 . S
C2191 H2206 0.961 . S
C2191 H2207 0.960 . S
H2192 C2176 0.931 . S
H2193 C2181 0.929 . S
H2194 C2182 0.960 . S
H2195 C2182 0.962 . S
H2196 C2182 0.960 . S
H2197 C2183 0.961 . S
H2198 C2183 0.961 . S
H2199 C2183 0.961 . S
H2200 C2184 0.931 . S
H2201 C2189 0.930 . S
H2202 C2190 0.956 . S
H2203 C2190 0.961 . S
H2204 C2190 0.961 . S
H2205 C2191 0.958 . S
H2206 C2191 0.961 . S
H2207 C2191 0.960 . S
C2208 C2209 1.391 . S
C2208 C2210 1.394 . S
C2208 H2224 0.931 . S
C2209 C2208 1.391 . S
C2209 C2213 1.376 . S
C2210 C2208 1.394 . S
C2210 C2211 1.369 . S
C2210 C2214 1.531 . S
C2211 C2210 1.369 . S
C2211 C2212 1.410 . S
C2211 C2219 1.503 . S
C2212 C2211 1.410 . S
C2212 C2213 1.392 . S
C2212 C2215 1.511 . S
C2213 C2209 1.376 . S
C2213 C2212 1.392 . S
C2213 H2225 0.929 . S
C2214 C2210 1.531 . S
C2214 H2226 0.960 . S
C2214 H2227 0.962 . S
C2214 H2228 0.960 . S
C2215 C2212 1.511 . S
C2215 H2229 0.961 . S
C2215 H2230 0.961 . S
C2215 H2231 0.961 . S
C2216 C2217 1.370 . S
C2216 C2218 1.363 . S
C2216 H2232 0.931 . S
C2217 C2216 1.370 . S
C2217 C2221 1.408 . S
C2218 C2216 1.363 . S
C2218 C2219 1.370 . S
C2218 C2222 1.524 . S
C2219 C2211 1.503 . S
C2219 C2218 1.370 . S
C2219 C2220 1.403 . S
C2220 C2219 1.403 . S
C2220 C2221 1.404 . S
C2220 C2223 1.539 . S
C2221 C2217 1.408 . S
C2221 C2220 1.404 . S
C2221 H2233 0.930 . S
C2222 C2218 1.524 . S
C2222 H2234 0.956 . S
C2222 H2235 0.961 . S
C2222 H2236 0.961 . S
C2223 C2220 1.539 . S
C2223 H2237 0.958 . S
C2223 H2238 0.961 . S
C2223 H2239 0.960 . S
H2224 C2208 0.931 . S
H2225 C2213 0.929 . S
H2226 C2214 0.960 . S
H2227 C2214 0.962 . S
H2228 C2214 0.960 . S
H2229 C2215 0.961 . S
H2230 C2215 0.961 . S
H2231 C2215 0.961 . S
H2232 C2216 0.931 . S
H2233 C2221 0.930 . S
H2234 C2222 0.956 . S
H2235 C2222 0.961 . S
H2236 C2222 0.961 . S
H2237 C2223 0.958 . S
H2238 C2223 0.961 . S
H2239 C2223 0.960 . S
C2240 C2241 1.391 . S
C2240 C2242 1.394 . S
C2240 H2256 0.931 . S
C2241 C2240 1.391 . S
C2241 C2245 1.376 . S
C2242 C2240 1.394 . S
C2242 C2243 1.369 . S
C2242 C2246 1.531 . S
C2243 C2242 1.369 . S
C2243 C2244 1.410 . S
C2243 C2251 1.503 . S
C2244 C2243 1.410 . S
C2244 C2245 1.392 . S
C2244 C2247 1.511 . S
C2245 C2241 1.376 . S
C2245 C2244 1.392 . S
C2245 H2257 0.929 . S
C2246 C2242 1.531 . S
C2246 H2258 0.960 . S
C2246 H2259 0.962 . S
C2246 H2260 0.960 . S
C2247 C2244 1.511 . S
C2247 H2261 0.961 . S
C2247 H2262 0.961 . S
C2247 H2263 0.961 . S
C2248 C2249 1.370 . S
C2248 C2250 1.363 . S
C2248 H2264 0.931 . S
C2249 C2248 1.370 . S
C2249 C2253 1.408 . S
C2250 C2248 1.363 . S
C2250 C2251 1.370 . S
C2250 C2254 1.524 . S
C2251 C2243 1.503 . S
C2251 C2250 1.370 . S
C2251 C2252 1.403 . S
C2252 C2251 1.403 . S
C2252 C2253 1.404 . S
C2252 C2255 1.539 . S
C2253 C2249 1.408 . S
C2253 C2252 1.404 . S
C2253 H2265 0.930 . S
C2254 C2250 1.524 . S
C2254 H2266 0.956 . S
C2254 H2267 0.961 . S
C2254 H2268 0.961 . S
C2255 C2252 1.539 . S
C2255 H2269 0.958 . S
C2255 H2270 0.961 . S
C2255 H2271 0.960 . S
H2256 C2240 0.931 . S
H2257 C2245 0.929 . S
H2258 C2246 0.960 . S
H2259 C2246 0.962 . S
H2260 C2246 0.960 . S
H2261 C2247 0.961 . S
H2262 C2247 0.961 . S
H2263 C2247 0.961 . S
H2264 C2248 0.931 . S
H2265 C2253 0.930 . S
H2266 C2254 0.956 . S
H2267 C2254 0.961 . S
H2268 C2254 0.961 . S
H2269 C2255 0.958 . S
H2270 C2255 0.961 . S
H2271 C2255 0.960 . S
C2272 C2273 1.391 . S
C2272 C2274 1.394 . S
C2272 H2288 0.931 . S
C2273 C2272 1.391 . S
C2273 C2277 1.376 . S
C2274 C2272 1.394 . S
C2274 C2275 1.369 . S
C2274 C2278 1.531 . S
C2275 C2274 1.369 . S
C2275 C2276 1.410 . S
C2275 C2283 1.503 . S
C2276 C2275 1.410 . S
C2276 C2277 1.392 . S
C2276 C2279 1.511 . S
C2277 C2273 1.376 . S
C2277 C2276 1.392 . S
C2277 H2289 0.929 . S
C2278 C2274 1.531 . S
C2278 H2290 0.960 . S
C2278 H2291 0.962 . S
C2278 H2292 0.960 . S
C2279 C2276 1.511 . S
C2279 H2293 0.961 . S
C2279 H2294 0.961 . S
C2279 H2295 0.961 . S
C2280 C2281 1.370 . S
C2280 C2282 1.363 . S
C2280 H2296 0.931 . S
C2281 C2280 1.370 . S
C2281 C2285 1.408 . S
C2282 C2280 1.363 . S
C2282 C2283 1.370 . S
C2282 C2286 1.524 . S
C2283 C2275 1.503 . S
C2283 C2282 1.370 . S
C2283 C2284 1.403 . S
C2284 C2283 1.403 . S
C2284 C2285 1.404 . S
C2284 C2287 1.539 . S
C2285 C2281 1.408 . S
C2285 C2284 1.404 . S
C2285 H2297 0.930 . S
C2286 C2282 1.524 . S
C2286 H2298 0.956 . S
C2286 H2299 0.961 . S
C2286 H2300 0.961 . S
C2287 C2284 1.539 . S
C2287 H2301 0.958 . S
C2287 H2302 0.961 . S
C2287 H2303 0.960 . S
H2288 C2272 0.931 . S
H2289 C2277 0.929 . S
H2290 C2278 0.960 . S
H2291 C2278 0.962 . S
H2292 C2278 0.960 . S
H2293 C2279 0.961 . S
H2294 C2279 0.961 . S
H2295 C2279 0.961 . S
H2296 C2280 0.931 . S
H2297 C2285 0.930 . S
H2298 C2286 0.956 . S
H2299 C2286 0.961 . S
H2300 C2286 0.961 . S
H2301 C2287 0.958 . S
H2302 C2287 0.961 . S
H2303 C2287 0.960 . S
C2304 C2305 1.391 . S
C2304 C2306 1.394 . S
C2304 H2320 0.931 . S
C2305 C2304 1.391 . S
C2305 C2309 1.376 . S
C2306 C2304 1.394 . S
C2306 C2307 1.369 . S
C2306 C2310 1.531 . S
C2307 C2306 1.369 . S
C2307 C2308 1.410 . S
C2307 C2315 1.503 . S
C2308 C2307 1.410 . S
C2308 C2309 1.392 . S
C2308 C2311 1.511 . S
C2309 C2305 1.376 . S
C2309 C2308 1.392 . S
C2309 H2321 0.929 . S
C2310 C2306 1.531 . S
C2310 H2322 0.960 . S
C2310 H2323 0.962 . S
C2310 H2324 0.960 . S
C2311 C2308 1.511 . S
C2311 H2325 0.961 . S
C2311 H2326 0.961 . S
C2311 H2327 0.961 . S
C2312 C2313 1.370 . S
C2312 C2314 1.363 . S
C2312 H2328 0.931 . S
C2313 C2312 1.370 . S
C2313 C2317 1.408 . S
C2314 C2312 1.363 . S
C2314 C2315 1.370 . S
C2314 C2318 1.524 . S
C2315 C2307 1.503 . S
C2315 C2314 1.370 . S
C2315 C2316 1.403 . S
C2316 C2315 1.403 . S
C2316 C2317 1.404 . S
C2316 C2319 1.539 . S
C2317 C2313 1.408 . S
C2317 C2316 1.404 . S
C2317 H2329 0.930 . S
C2318 C2314 1.524 . S
C2318 H2330 0.956 . S
C2318 H2331 0.961 . S
C2318 H2332 0.961 . S
C2319 C2316 1.539 . S
C2319 H2333 0.958 . S
C2319 H2334 0.961 . S
C2319 H2335 0.960 . S
H2320 C2304 0.931 . S
H2321 C2309 0.929 . S
H2322 C2310 0.960 . S
H2323 C2310 0.962 . S
H2324 C2310 0.960 . S
H2325 C2311 0.961 . S
H2326 C2311 0.961 . S
H2327 C2311 0.961 . S
H2328 C2312 0.931 . S
H2329 C2317 0.930 . S
H2330 C2318 0.956 . S
H2331 C2318 0.961 . S
H2332 C2318 0.961 . S
H2333 C2319 0.958 . S
H2334 C2319 0.961 . S
H2335 C2319 0.960 . S
C2336 C2337 1.391 . S
C2336 C2338 1.394 . S
C2336 H2352 0.931 . S
C2337 C2336 1.391 . S
C2337 C2341 1.376 . S
C2338 C2336 1.394 . S
C2338 C2339 1.369 . S
C2338 C2342 1.531 . S
C2339 C2338 1.369 . S
C2339 C2340 1.410 . S
C2339 C2347 1.503 . S
C2340 C2339 1.410 . S
C2340 C2341 1.392 . S
C2340 C2343 1.511 . S
C2341 C2337 1.376 . S
C2341 C2340 1.392 . S
C2341 H2353 0.929 . S
C2342 C2338 1.531 . S
C2342 H2354 0.960 . S
C2342 H2355 0.962 . S
C2342 H2356 0.960 . S
C2343 C2340 1.511 . S
C2343 H2357 0.961 . S
C2343 H2358 0.961 . S
C2343 H2359 0.961 . S
C2344 C2345 1.370 . S
C2344 C2346 1.363 . S
C2344 H2360 0.931 . S
C2345 C2344 1.370 . S
C2345 C2349 1.408 . S
C2346 C2344 1.363 . S
C2346 C2347 1.370 . S
C2346 C2350 1.524 . S
C2347 C2339 1.503 . S
C2347 C2346 1.370 . S
C2347 C2348 1.403 . S
C2348 C2347 1.403 . S
C2348 C2349 1.404 . S
C2348 C2351 1.539 . S
C2349 C2345 1.408 . S
C2349 C2348 1.404 . S
C2349 H2361 0.930 . S
C2350 C2346 1.524 . S
C2350 H2362 0.956 . S
C2350 H2363 0.961 . S
C2350 H2364 0.961 . S
C2351 C2348 1.539 . S
C2351 H2365 0.958 . S
C2351 H2366 0.961 . S
C2351 H2367 0.960 . S
H2352 C2336 0.931 . S
H2353 C2341 0.929 . S
H2354 C2342 0.960 . S
H2355 C2342 0.962 . S
H2356 C2342 0.960 . S
H2357 C2343 0.961 . S
H2358 C2343 0.961 . S
H2359 C2343 0.961 . S
H2360 C2344 0.931 . S
H2361 C2349 0.930 . S
H2362 C2350 0.956 . S
H2363 C2350 0.961 . S
H2364 C2350 0.961 . S
H2365 C2351 0.958 . S
H2366 C2351 0.961 . S
H2367 C2351 0.960 . S
C2368 C2369 1.391 . S
C2368 C2370 1.394 . S
C2368 H2384 0.931 . S
C2369 C2368 1.391 . S
C2369 C2373 1.376 . S
C2370 C2368 1.394 . S
C2370 C2371 1.369 . S
C2370 C2374 1.531 . S
C2371 C2370 1.369 . S
C2371 C2372 1.410 . S
C2371 C2379 1.503 . S
C2372 C2371 1.410 . S
C2372 C2373 1.392 . S
C2372 C2375 1.511 . S
C2373 C2369 1.376 . S
C2373 C2372 1.392 . S
C2373 H2385 0.929 . S
C2374 C2370 1.531 . S
C2374 H2386 0.960 . S
C2374 H2387 0.962 . S
C2374 H2388 0.960 . S
C2375 C2372 1.511 . S
C2375 H2389 0.961 . S
C2375 H2390 0.961 . S
C2375 H2391 0.961 . S
C2376 C2377 1.370 . S
C2376 C2378 1.363 . S
C2376 H2392 0.931 . S
C2377 C2376 1.370 . S
C2377 C2381 1.408 . S
C2378 C2376 1.363 . S
C2378 C2379 1.370 . S
C2378 C2382 1.524 . S
C2379 C2371 1.503 . S
C2379 C2378 1.370 . S
C2379 C2380 1.403 . S
C2380 C2379 1.403 . S
C2380 C2381 1.404 . S
C2380 C2383 1.539 . S
C2381 C2377 1.408 . S
C2381 C2380 1.404 . S
C2381 H2393 0.930 . S
C2382 C2378 1.524 . S
C2382 H2394 0.956 . S
C2382 H2395 0.961 . S
C2382 H2396 0.961 . S
C2383 C2380 1.539 . S
C2383 H2397 0.958 . S
C2383 H2398 0.961 . S
C2383 H2399 0.960 . S
H2384 C2368 0.931 . S
H2385 C2373 0.929 . S
H2386 C2374 0.960 . S
H2387 C2374 0.962 . S
H2388 C2374 0.960 . S
H2389 C2375 0.961 . S
H2390 C2375 0.961 . S
H2391 C2375 0.961 . S
H2392 C2376 0.931 . S
H2393 C2381 0.930 . S
H2394 C2382 0.956 . S
H2395 C2382 0.961 . S
H2396 C2382 0.961 . S
H2397 C2383 0.958 . S
H2398 C2383 0.961 . S
H2399 C2383 0.960 . S
C2400 C2401 1.391 . S
C2400 C2402 1.394 . S
C2400 H2416 0.931 . S
C2401 C2400 1.391 . S
C2401 C2405 1.376 . S
C2402 C2400 1.394 . S
C2402 C2403 1.369 . S
C2402 C2406 1.531 . S
C2403 C2402 1.369 . S
C2403 C2404 1.410 . S
C2403 C2411 1.503 . S
C2404 C2403 1.410 . S
C2404 C2405 1.392 . S
C2404 C2407 1.511 . S
C2405 C2401 1.376 . S
C2405 C2404 1.392 . S
C2405 H2417 0.929 . S
C2406 C2402 1.531 . S
C2406 H2418 0.960 . S
C2406 H2419 0.962 . S
C2406 H2420 0.960 . S
C2407 C2404 1.511 . S
C2407 H2421 0.961 . S
C2407 H2422 0.961 . S
C2407 H2423 0.961 . S
C2408 C2409 1.370 . S
C2408 C2410 1.363 . S
C2408 H2424 0.931 . S
C2409 C2408 1.370 . S
C2409 C2413 1.408 . S
C2410 C2408 1.363 . S
C2410 C2411 1.370 . S
C2410 C2414 1.524 . S
C2411 C2403 1.503 . S
C2411 C2410 1.370 . S
C2411 C2412 1.403 . S
C2412 C2411 1.403 . S
C2412 C2413 1.404 . S
C2412 C2415 1.539 . S
C2413 C2409 1.408 . S
C2413 C2412 1.404 . S
C2413 H2425 0.930 . S
C2414 C2410 1.524 . S
C2414 H2426 0.956 . S
C2414 H2427 0.961 . S
C2414 H2428 0.961 . S
C2415 C2412 1.539 . S
C2415 H2429 0.958 . S
C2415 H2430 0.961 . S
C2415 H2431 0.960 . S
H2416 C2400 0.931 . S
H2417 C2405 0.929 . S
H2418 C2406 0.960 . S
H2419 C2406 0.962 . S
H2420 C2406 0.960 . S
H2421 C2407 0.961 . S
H2422 C2407 0.961 . S
H2423 C2407 0.961 . S
H2424 C2408 0.931 . S
H2425 C2413 0.930 . S
H2426 C2414 0.956 . S
H2427 C2414 0.961 . S
H2428 C2414 0.961 . S
H2429 C2415 0.958 . S
H2430 C2415 0.961 . S
H2431 C2415 0.960 . S
C1409 C20 1.322 . S
C1417 C1085 1.322 . S
C1441 C1164 1.316 . S
C1449 C137 1.327 . S
C1473 C233 1.319 . S
C1481 C1281 1.327 . S
C1505 C1377 1.315 . S
C1513 C284 1.327 . S
C1537 C724 1.320 . S
C1545 C381 1.326 . S
C1569 C460 1.319 . S
C1577 C841 1.324 . S
C1601 C937 1.319 . S
C1609 C577 1.327 . S
C1633 C673 1.328 . S
C1641 C988 1.323 . S
C1665 C49 1.472 . S
C1673 C205 1.485 . S
C1697 C108 1.485 . S
C1705 C313 1.482 . S
C1729 C372 1.469 . S
C1737 C585 1.476 . S
C1761 C469 1.471 . S
C1769 C665 1.476 . S
C1793 C909 1.490 . S
C1801 C753 1.485 . S
C1825 C812 1.470 . S
C1833 C1017 1.483 . S
C1857 C1289 1.484 . S
C1865 C1076 1.484 . S
C1889 C1173 1.469 . S
C1897 C1369 1.476 . S
C1921 C548 1.514 . S
C1929 C29 1.519 . S
C1953 C645 1.515 . S
C1961 C145 1.518 . S
C1985 C225 1.513 . S
C1993 C409 1.519 . S
C2017 C293 1.509 . S
C2025 C489 1.516 . S
C2049 C1252 1.509 . S
C2057 C733 1.516 . S
C2081 C849 1.512 . S
C2089 C1349 1.518 . S
C2113 C1113 1.520 . S
C2121 C929 1.521 . S
C2145 C997 1.513 . S
C2153 C1193 1.517 . S
C2177 C57 1.325 . S
C2185 C321 1.318 . S
C2209 C196 1.313 . S
C2217 C117 1.323 . S
C2241 C401 1.295 . S
C2249 C636 1.308 . S
C2273 C497 1.308 . S
C2281 C557 1.303 . S
C2305 C1025 1.314 . S
C2313 C761 1.325 . S
C2337 C821 1.312 . S
C2345 C900 1.326 . S
C2369 C1340 1.305 . S
C2377 C1105 1.305 . S
C2401 C1201 1.296 . S
C2409 C1261 1.308 . S
