# Generated by pormake.
# Topology vby, (6)-cn, num edge types: 1
# Building blocks:
#     Node 0, Type 0, BuildingBlock: BETGAK_clean_sbu_0, # of connection points: 6
#     Node 1, Type 0, BuildingBlock: BETGAK_clean_sbu_0, # of connection points: 6
#     Node 2, Type 0, BuildingBlock: BETGAK_clean_sbu_0, # of connection points: 6
#     Node 3, Type 0, BuildingBlock: BETGAK_clean_sbu_0, # of connection points: 6
#     Node 4, Type 0, BuildingBlock: BETGAK_clean_sbu_0, # of connection points: 6
#     Node 5, Type 0, BuildingBlock: BETGAK_clean_sbu_0, # of connection points: 6
#     Node 6, Type 0, BuildingBlock: BETGAK_clean_sbu_0, # of connection points: 6
#     Node 7, Type 0, BuildingBlock: BETGAK_clean_sbu_0, # of connection points: 6
#     Edge 8, Type (0, 0), BuildingBlock: TEMPAE_clean_linker_10, # of connection points: 2
#     Edge 9, Type (0, 0), BuildingBlock: TEMPAE_clean_linker_10, # of connection points: 2
#     Edge 10, Type (0, 0), BuildingBlock: TEMPAE_clean_linker_10, # of connection points: 2
#     Edge 11, Type (0, 0), BuildingBlock: TEMPAE_clean_linker_10, # of connection points: 2
#     Edge 12, Type (0, 0), BuildingBlock: TEMPAE_clean_linker_10, # of connection points: 2
#     Edge 13, Type (0, 0), BuildingBlock: TEMPAE_clean_linker_10, # of connection points: 2
#     Edge 14, Type (0, 0), BuildingBlock: TEMPAE_clean_linker_10, # of connection points: 2
#     Edge 15, Type (0, 0), BuildingBlock: TEMPAE_clean_linker_10, # of connection points: 2
#     Edge 16, Type (0, 0), BuildingBlock: TEMPAE_clean_linker_10, # of connection points: 2
#     Edge 17, Type (0, 0), BuildingBlock: TEMPAE_clean_linker_10, # of connection points: 2
#     Edge 18, Type (0, 0), BuildingBlock: TEMPAE_clean_linker_10, # of connection points: 2
#     Edge 19, Type (0, 0), BuildingBlock: TEMPAE_clean_linker_10, # of connection points: 2
#     Edge 20, Type (0, 0), BuildingBlock: TEMPAE_clean_linker_10, # of connection points: 2
#     Edge 21, Type (0, 0), BuildingBlock: TEMPAE_clean_linker_10, # of connection points: 2
#     Edge 22, Type (0, 0), BuildingBlock: TEMPAE_clean_linker_10, # of connection points: 2
#     Edge 23, Type (0, 0), BuildingBlock: TEMPAE_clean_linker_10, # of connection points: 2
#     Edge 24, Type (0, 0), BuildingBlock: TEMPAE_clean_linker_10, # of connection points: 2
#     Edge 25, Type (0, 0), BuildingBlock: TEMPAE_clean_linker_10, # of connection points: 2
#     Edge 26, Type (0, 0), BuildingBlock: TEMPAE_clean_linker_10, # of connection points: 2
#     Edge 27, Type (0, 0), BuildingBlock: TEMPAE_clean_linker_10, # of connection points: 2
#     Edge 28, Type (0, 0), BuildingBlock: TEMPAE_clean_linker_10, # of connection points: 2
#     Edge 29, Type (0, 0), BuildingBlock: TEMPAE_clean_linker_10, # of connection points: 2
#     Edge 30, Type (0, 0), BuildingBlock: TEMPAE_clean_linker_10, # of connection points: 2
#     Edge 31, Type (0, 0), BuildingBlock: TEMPAE_clean_linker_10, # of connection points: 2
# Relax obj value: 0.195
# Max RMSD: 0.212
# Mean RMSD: 0.212
data_MOF--net-vby--node1-BETGAK_clean_sbu_0--edge1-TEMPAE_clean_linker_10
_symmetry_space_group_name_H-M    P1
_symmetry_Int_Tables_number       1
_symmetry_cell_setting            triclinic
loop_
_symmetry_equiv_pos_as_xyz
'x, y, z'
_cell_length_a     15.773947
_cell_length_b     104.42324
_cell_length_c     29.888446
_cell_angle_alpha  89.902401
_cell_angle_beta   85.819899
_cell_angle_gamma 89.973325
loop_
_atom_site_label
_atom_site_type_symbol
_atom_site_fract_x
_atom_site_fract_y
_atom_site_fract_z
_atom_type_partial_charge
La0 La 0.0599 0.40813 0.01416 0.0
La1 La 0.05681 0.38019 0.0237 0.0
C2 C 1.03388 0.43144 0.99454 0.0
C3 C 0.0556 0.44519 1.00122 0.0
C4 C 0.04792 0.451 0.04383 0.0
C5 C 0.05406 0.46439 0.04823 0.0
C6 C 0.06741 0.47234 0.01017 0.0
C7 C 0.07831 0.46642 0.96779 0.0
C8 C 0.07235 0.45307 0.96343 0.0
C9 C 0.07361 0.40013 0.09828 0.0
C10 C 0.88425 0.39358 0.02201 0.0
C11 C 0.07227 0.357 0.04829 0.0
C12 C 0.11968 0.34473 0.03986 0.0
C13 C 0.11593 0.33791 0.99942 0.0
C14 C 0.14944 0.32546 0.99484 0.0
C15 C 0.18756 0.31941 0.03055 0.0
C16 C 0.1937 0.32644 0.07043 0.0
C17 C 0.16003 0.33887 0.07502 0.0
C18 C 0.04065 0.38783 0.93939 0.0
C19 C 0.23754 0.39484 0.01311 0.0
O20 O 0.99398 0.4253 0.0279 0.0
O21 O 0.08768 0.42404 0.9713 0.0
O22 O 0.11149 0.40999 0.07979 0.0
O23 O 1.02586 0.39539 0.07032 0.0
O24 O 0.92956 0.40253 1.00001 0.0
O25 O 0.92377 0.38464 0.04393 0.0
O26 O 1.02205 0.36088 0.01814 0.0
O27 O 0.11068 0.36662 0.06626 0.0
O28 O 1.00694 0.37771 0.95809 0.0
O29 O 0.08856 0.39288 0.9668 0.0
O30 O 0.1951 0.38395 0.02 0.0
O31 O 0.19769 0.4058 0.00709 0.0
H32 H 1.03411 0.44527 0.07369 0.0
H33 H 0.04475 0.46853 0.08141 0.0
H34 H 0.09021 0.47213 0.93772 0.0
H35 H 0.07776 0.44892 0.93014 0.0
H36 H 0.08498 0.34204 0.97161 0.0
H37 H 0.14458 0.3205 0.96334 0.0
H38 H 0.2216 0.32214 0.09891 0.0
H39 H 0.16282 0.34375 0.10684 0.0
La40 La 1.02301 0.66373 0.02346 0.0
La41 La 1.01612 0.63578 0.02105 0.0
C42 C 1.01217 0.68791 0.01378 0.0
C43 C 0.95911 0.69978 0.01276 0.0
C44 C 0.9136 0.70444 0.05167 0.0
C45 C 0.8784 0.71683 0.0527 0.0
C46 C 0.88775 0.72496 0.01494 0.0
C47 C 0.93017 0.72005 0.97547 0.0
C48 C 0.96554 0.70768 0.9745 0.0
C49 C 0.04641 0.65275 0.10227 0.0
C50 C 0.84166 0.64966 0.02895 0.0
C51 C 1.02952 0.61169 0.02704 0.0
C52 C 0.03865 0.59744 0.02869 0.0
C53 C 0.06869 0.59064 0.99011 0.0
C54 C 0.0744 0.57723 0.99048 0.0
C55 C 0.05018 0.57014 0.02947 0.0
C56 C 1.0205 0.57696 0.06822 0.0
C57 C 1.01493 0.59043 0.06784 0.0
C58 C 0.9979 0.64691 0.94166 0.0
C59 C 0.19688 0.64979 0.01709 0.0
O60 O 1.01696 0.68206 0.05211 0.0
O61 O 1.01458 0.67982 0.98028 0.0
O62 O 0.08624 0.66268 0.08581 0.0
O63 O 0.99252 0.6493 0.07507 0.0
O64 O 0.88561 0.66022 0.01879 0.0
O65 O 0.88052 0.6388 0.0373 0.0
O66 O 0.04908 0.61818 0.9904 0.0
O67 O 1.00374 0.61887 0.06127 0.0
O68 O 0.95477 0.63724 0.95806 0.0
O69 O 0.04972 0.65019 0.97008 0.0
O70 O 0.15268 0.63934 0.02854 0.0
O71 O 0.15815 0.66051 0.00691 0.0
H72 H 0.90774 0.69872 0.08199 0.0
H73 H 0.84502 0.72011 0.0835 0.0
H74 H 0.93961 0.72599 0.94579 0.0
H75 H 1.00144 0.70451 0.94425 0.0
H76 H 0.08706 0.59568 0.95921 0.0
H77 H 0.09624 0.57241 0.95973 0.0
H78 H 1.00207 0.57191 0.09906 0.0
H79 H 0.99139 0.59533 0.09815 0.0
La80 La 0.06627 0.66526 0.52538 0.0
La81 La 0.06858 0.63571 0.51977 0.0
C82 C 0.07197 0.6879 0.55552 0.0
C83 C 0.11314 0.70065 0.54751 0.0
C84 C 0.11304 0.70707 0.50603 0.0
C85 C 0.14441 0.71966 0.50115 0.0
C86 C 0.17635 0.7262 0.53763 0.0
C87 C 0.17819 0.71959 0.5787 0.0
C88 C 0.14697 0.70703 0.58353 0.0
C89 C 0.07137 0.65811 0.43876 0.0
C90 C 0.24464 0.65008 0.51278 0.0
C91 C 0.05008 0.61192 0.51009 0.0
C92 C 1.03715 0.59779 0.5062 0.0
C93 C 0.99092 0.59104 0.54071 0.0
C94 C 0.98443 0.57764 0.53961 0.0
C95 C 1.02389 0.5705 0.50392 0.0
C96 C 0.06896 0.57731 0.46892 0.0
C97 C 0.07552 0.59075 0.47007 0.0
C98 C 0.08676 0.64583 0.60097 0.0
C99 C 0.89261 0.65075 0.5205 0.0
O100 O 1.01774 0.68401 0.52719 0.0
O101 O 0.119 0.67847 0.56903 0.0
O102 O 0.07022 0.6698 0.45317 0.0
O103 O 0.0719 0.65111 0.47331 0.0
O104 O 0.20346 0.66086 0.52398 0.0
O105 O 0.20433 0.63926 0.5047 0.0
O106 O 1.01226 0.61852 0.54304 0.0
O107 O 0.09633 0.61891 0.48096 0.0
O108 O 0.12458 0.6357 0.58474 0.0
O109 O 0.03838 0.6498 0.57197 0.0
O110 O 0.93714 0.64064 0.50544 0.0
O111 O 0.93035 0.66084 0.53723 0.0
H112 H 0.08706 0.70248 0.47759 0.0
H113 H 0.14116 0.7244 0.46907 0.0
H114 H 0.20355 0.72413 0.60739 0.0
H115 H 0.14766 0.70238 0.61593 0.0
H116 H 0.96117 0.59608 0.56934 0.0
H117 H 0.95033 0.57285 0.5676 0.0
H118 H 0.09935 0.57224 0.44051 0.0
H119 H 0.11184 0.59562 0.44298 0.0
La120 La 1.01769 0.40841 0.52388 0.0
La121 La 1.02115 0.38048 0.51542 0.0
C122 C 0.04311 0.43182 0.54219 0.0
C123 C 1.02118 0.44552 0.53405 0.0
C124 C 0.04087 0.45147 0.49224 0.0
C125 C 1.03414 0.46483 0.48741 0.0
C126 C 1.00799 0.47266 0.52428 0.0
C127 C 0.98524 0.4666 0.56562 0.0
C128 C 0.99201 0.45326 0.57042 0.0
C129 C 1.00405 0.40024 0.44005 0.0
C130 C 0.19359 0.3939 0.51669 0.0
C131 C 1.00677 0.35723 0.49156 0.0
C132 C 0.95872 0.345 0.49893 0.0
C133 C 0.94243 0.33958 0.54186 0.0
C134 C 0.90843 0.32715 0.547 0.0
C135 C 0.89001 0.31977 0.50938 0.0
C136 C 0.90414 0.32542 0.46661 0.0
C137 C 0.93799 0.33782 0.46153 0.0
C138 C 1.0379 0.38832 0.59932 0.0
C139 C 0.84022 0.39507 0.52564 0.0
O140 O 0.08432 0.4255 0.50975 0.0
O141 O 0.98875 0.4245 0.5655 0.0
O142 O 0.96594 0.4101 0.45822 0.0
O143 O 0.05191 0.39557 0.46817 0.0
O144 O 0.14817 0.4029 0.53827 0.0
O145 O 0.15422 0.38488 0.49519 0.0
O146 O 0.05343 0.36113 0.52321 0.0
O147 O 0.97057 0.36683 0.47211 0.0
O148 O 0.07242 0.37824 0.58081 0.0
O149 O 0.98933 0.39326 0.57192 0.0
O150 O 0.88275 0.38417 0.51916 0.0
O151 O 0.87998 0.40605 0.53117 0.0
H152 H 0.06459 0.44588 0.46351 0.0
H153 H 0.053 0.46906 0.45511 0.0
H154 H 0.96335 0.4722 0.59467 0.0
H155 H 0.97725 0.44903 0.6032 0.0
H156 H 0.95793 0.34481 0.57144 0.0
H157 H 0.89732 0.32329 0.58055 0.0
H158 H 0.89213 0.32009 0.43669 0.0
H159 H 0.95091 0.34165 0.428 0.0
La160 La 0.56649 0.90789 0.01599 0.0
La161 La 0.56017 0.87988 0.01479 0.0
C162 C 0.55452 0.93199 0.01021 0.0
C163 C 0.54574 0.94624 0.00842 0.0
C164 C 0.50276 0.95288 0.04421 0.0
C165 C 0.49987 0.96632 0.04475 0.0
C166 C 0.54026 0.97358 0.0096 0.0
C167 C 0.58227 0.96691 0.97341 0.0
C168 C 0.58479 0.95343 0.97279 0.0
C169 C 0.58677 0.89705 0.09558 0.0
C170 C 0.38595 0.89387 0.02045 0.0
C171 C 0.57067 0.85569 0.02408 0.0
C172 C 0.62182 0.84376 0.02852 0.0
C173 C 0.68005 0.83949 0.99372 0.0
C174 C 0.71425 0.82705 0.9943 0.0
C175 C 0.69086 0.81845 0.02951 0.0
C176 C 0.63548 0.82296 0.06521 0.0
C177 C 0.60142 0.8354 0.06463 0.0
C178 C 0.5331 0.89054 0.93584 0.0
C179 C 0.74072 0.89396 0.00909 0.0
O180 O 0.52715 0.92539 0.04547 0.0
O181 O 0.5863 0.9249 0.97697 0.0
O182 O 0.62874 0.90676 0.07879 0.0
O183 O 0.53484 0.89358 0.06756 0.0
O184 O 0.43023 0.90424 0.00797 0.0
O185 O 0.42498 0.88322 0.03141 0.0
O186 O 0.57649 0.86171 0.98566 0.0
O187 O 0.55857 0.86362 0.05787 0.0
O188 O 0.49488 0.88059 0.95322 0.0
O189 O 0.58781 0.8942 0.96231 0.0
O190 O 0.6969 0.88352 0.02089 0.0
O191 O 0.70189 0.90471 0.9993 0.0
H192 H 0.47239 0.94769 0.07241 0.0
H193 H 0.46778 0.97102 0.07347 0.0
H194 H 0.61329 0.97211 0.94544 0.0
H195 H 0.61876 0.94865 0.94477 0.0
H196 H 0.69656 0.84557 0.965 0.0
H197 H 0.75606 0.82398 0.966 0.0
H198 H 0.61695 0.81679 0.09336 0.0
H199 H 0.55604 0.8383 0.09169 0.0
La200 La 0.51608 0.16498 0.01628 0.0
La201 La 0.5108 0.13703 0.01846 0.0
C202 C 0.50353 0.18858 0.99616 0.0
C203 C 0.45438 0.20076 1.0026 0.0
C204 C 0.44412 0.20696 0.04449 0.0
C205 C 0.41004 0.21941 0.04813 0.0
C206 C 0.38586 0.22607 0.00997 0.0
C207 C 0.39357 0.21965 0.96843 0.0
C208 C 0.42741 0.20722 0.96483 0.0
C209 C 0.53488 0.1557 0.09803 0.0
C210 C 0.33429 0.15075 0.02529 0.0
C211 C 0.52539 0.11302 0.02556 0.0
C212 C 0.53561 0.09879 0.02728 0.0
C213 C 0.56962 0.09212 0.9892 0.0
C214 C 0.57212 0.07869 0.98854 0.0
C215 C 0.54082 0.07146 0.02597 0.0
C216 C 0.50884 0.07814 0.06459 0.0
C217 C 0.50595 0.09163 0.06516 0.0
C218 C 0.49556 0.14726 0.93722 0.0
C219 C 0.68838 0.151 0.01448 0.0
O220 O 0.54428 0.18422 0.02952 0.0
O221 O 0.47207 0.17928 0.97317 0.0
O222 O 0.5696 0.16598 0.08102 0.0
O223 O 0.48491 0.15122 0.07034 0.0
O224 O 0.37713 0.16165 0.02013 0.0
O225 O 0.37384 0.13967 0.02883 0.0
O226 O 0.55897 0.11971 0.99181 0.0
O227 O 0.48634 0.12001 0.05713 0.0
O228 O 0.45286 0.13766 0.95414 0.0
O229 O 0.54588 0.15084 0.96578 0.0
O230 O 0.64313 0.14139 0.03263 0.0
O231 O 0.64934 0.16068 0.99616 0.0
H232 H 0.46502 0.20237 0.07429 0.0
H233 H 0.40587 0.224 0.08067 0.0
H234 H 0.37445 0.2243 0.93836 0.0
H235 H 0.43518 0.20279 0.93202 0.0
H236 H 0.59286 0.09727 0.95931 0.0
H237 H 0.59853 0.07396 0.95845 0.0
H238 H 0.48362 0.07295 0.09399 0.0
H239 H 0.47882 0.09643 0.09494 0.0
La240 La 0.5602 0.16513 0.51636 0.0
La241 La 0.56717 0.13711 0.51748 0.0
C242 C 0.57077 0.18922 0.52818 0.0
C243 C 0.62409 0.20105 0.52942 0.0
C244 C 0.66323 0.20644 0.48989 0.0
C245 C 0.69845 0.21881 0.4899 0.0
C246 C 0.69539 0.22623 0.52938 0.0
C247 C 0.6593 0.22059 0.56926 0.0
C248 C 0.62399 0.20823 0.56921 0.0
C249 C 0.53526 0.15469 0.43707 0.0
C250 C 0.74173 0.15106 0.50931 0.0
C251 C 0.55556 0.11301 0.51208 0.0
C252 C 0.54731 0.09874 0.51109 0.0
C253 C 0.51711 0.09205 0.54995 0.0
C254 C 0.515 0.07862 0.55079 0.0
C255 C 0.54316 0.07139 0.51281 0.0
C256 C 0.5717 0.07811 0.47354 0.0
C257 C 0.5739 0.0916 0.47273 0.0
C258 C 0.58614 0.14801 0.597 0.0
C259 C 0.38655 0.15106 0.5218 0.0
O260 O 0.56369 0.18371 0.48949 0.0
O261 O 0.57051 0.18084 0.56082 0.0
O262 O 0.49732 0.16469 0.45417 0.0
O263 O 0.58914 0.15088 0.46389 0.0
O264 O 0.69788 0.16163 0.51956 0.0
O265 O 0.70272 0.14021 0.5011 0.0
O266 O 0.53237 0.11958 0.54799 0.0
O267 O 0.58305 0.12013 0.47791 0.0
O268 O 0.62937 0.13842 0.58027 0.0
O269 O 0.53396 0.15134 0.56887 0.0
O270 O 0.43083 0.14069 0.50958 0.0
O271 O 0.42509 0.16172 0.53282 0.0
H272 H 0.66358 0.20134 0.45837 0.0
H273 H 0.72464 0.22276 0.45836 0.0
H274 H 0.65685 0.22583 0.60056 0.0
H275 H 0.59344 0.20447 0.60013 0.0
H276 H 0.49601 0.09719 0.58018 0.0
H277 H 0.49108 0.07389 0.58142 0.0
H278 H 0.59457 0.07294 0.44368 0.0
H279 H 0.59802 0.09642 0.4423 0.0
La280 La 0.50989 0.90794 0.51716 0.0
La281 La 0.51504 0.88002 0.51495 0.0
C282 C 0.52488 0.93191 0.52493 0.0
C283 C 0.53551 0.94611 0.52789 0.0
C284 C 0.58078 0.95285 0.49301 0.0
C285 C 0.58431 0.96628 0.49307 0.0
C286 C 0.54255 0.97345 0.52799 0.0
C287 C 0.4986 0.96667 0.5634 0.0
C288 C 0.49516 0.9532 0.56334 0.0
C289 C 0.49524 0.89791 0.43573 0.0
C290 C 0.68721 0.89395 0.51305 0.0
C291 C 0.50136 0.85642 0.49538 0.0
C292 C 0.45261 0.84427 0.50444 0.0
C293 C 0.46348 0.83687 0.54306 0.0
C294 C 0.42871 0.82451 0.54775 0.0
C295 C 0.38224 0.81911 0.51392 0.0
C296 C 0.36909 0.82669 0.47597 0.0
C297 C 0.40406 0.83905 0.47125 0.0
C298 C 0.53322 0.88922 0.59684 0.0
C299 C 0.33325 0.89428 0.52354 0.0
O300 O 0.56044 0.92531 0.49154 0.0
O301 O 0.4836 0.92486 0.5556 0.0
O302 O 0.45298 0.90756 0.45257 0.0
O303 O 0.54501 0.89417 0.46438 0.0
O304 O 0.64192 0.90348 0.53165 0.0
O305 O 0.64805 0.88437 0.49431 0.0
O306 O 0.54715 0.86083 0.52663 0.0
O307 O 0.46643 0.86571 0.47369 0.0
O308 O 0.56768 0.87892 0.57997 0.0
O309 O 0.48347 0.8937 0.56903 0.0
O310 O 0.37614 0.88338 0.51865 0.0
O311 O 0.3728 0.90535 0.52697 0.0
H312 H 0.61203 0.94776 0.4649 0.0
H313 H 0.61783 0.97106 0.46487 0.0
H314 H 0.46657 0.97178 0.59124 0.0
H315 H 0.45942 0.94834 0.59066 0.0
H316 H 0.5011 0.84046 0.56922 0.0
H317 H 0.43925 0.8191 0.5778 0.0
H318 H 0.3346 0.82289 0.44893 0.0
H319 H 0.39568 0.84435 0.44069 0.0
C320 C 0.37675 0.4053 0.02838 0.0
C321 C 0.33256 0.39469 0.01307 0.0
C322 C 0.46589 0.40504 0.03084 0.0
C323 C 0.51321 0.39406 0.01625 0.0
C324 C 0.46893 0.38341 0.99987 0.0
C325 C 0.37944 0.38377 0.99925 0.0
C326 C 0.50934 0.41648 0.0498 0.0
C327 C 0.51623 0.37165 0.98257 0.0
C328 C 0.75121 0.39881 0.9839 0.0
C329 C 0.78949 0.39349 0.02065 0.0
C330 C 0.6621 0.39883 0.98167 0.0
C331 C 0.60879 0.39376 0.01772 0.0
C332 C 0.64716 0.38849 0.05518 0.0
C333 C 0.73675 0.38823 0.05586 0.0
C334 C 0.62501 0.40418 0.94041 0.0
C335 C 0.59347 0.38331 0.09497 0.0
H336 H 0.34122 0.41373 0.03969 0.0
H337 H 0.34613 0.37552 0.98721 0.0
H338 H 0.54555 0.41346 0.0785 0.0
H339 H 0.55563 0.42063 0.02406 0.0
H340 H 0.46354 0.42408 0.06138 0.0
H341 H 0.47321 0.36438 0.96933 0.0
H342 H 0.56471 0.37437 0.95544 0.0
H343 H 0.55041 0.36721 0.00979 0.0
H344 H 0.79124 0.40279 0.95629 0.0
H345 H 0.7655 0.38417 0.08453 0.0
H346 H 0.58432 0.41258 0.9496 0.0
H347 H 0.584 0.3969 0.92576 0.0
H348 H 0.67489 0.40719 0.91436 0.0
H349 H 0.54946 0.39085 0.10879 0.0
H350 H 0.63253 0.37989 0.12207 0.0
H351 H 0.55389 0.37524 0.08438 0.0
C352 C 0.33205 0.65962 0.04033 0.0
C353 C 0.2912 0.64972 0.01859 0.0
C354 C 0.4209 0.65955 0.04355 0.0
C355 C 0.47125 0.64963 0.02286 0.0
C356 C 0.43014 0.63974 1.00008 0.0
C357 C 0.34067 0.63975 0.99913 0.0
C358 C 0.46074 0.67002 0.06976 0.0
C359 C 0.48082 0.62923 0.97604 0.0
C360 C 0.70785 0.65701 0.99574 0.0
C361 C 0.74699 0.64985 0.02829 0.0
C362 C 0.61885 0.65681 0.99303 0.0
C363 C 0.56665 0.64969 0.02476 0.0
C364 C 0.60592 0.64268 0.05839 0.0
C365 C 0.69543 0.64263 0.05914 0.0
C366 C 0.58082 0.66405 0.95559 0.0
C367 C 0.55329 0.63534 0.094 0.0
H368 H 0.294 0.66726 0.05595 0.0
H369 H 0.30946 0.6321 0.98216 0.0
H370 H 0.49827 0.66575 0.09603 0.0
H371 H 0.50526 0.6757 0.04723 0.0
H372 H 0.41256 0.6766 0.08606 0.0
H373 H 0.44003 0.6226 0.95807 0.0
H374 H 0.52901 0.63347 0.95144 0.0
H375 H 0.51559 0.62361 1.00034 0.0
H376 H 0.74725 0.66249 0.9714 0.0
H377 H 0.72509 0.63711 0.0845 0.0
H378 H 0.53744 0.67162 0.96967 0.0
H379 H 0.54239 0.65746 0.93614 0.0
H380 H 0.6301 0.66859 0.9323 0.0
H381 H 0.50598 0.64182 0.11153 0.0
H382 H 0.59285 0.63097 0.11923 0.0
H383 H 0.5174 0.62763 0.07831 0.0
C384 C 0.75973 0.64464 0.48319 0.0
C385 C 0.7978 0.65072 0.51854 0.0
C386 C 0.67054 0.64469 0.48051 0.0
C387 C 0.61691 0.65052 0.51491 0.0
C388 C 0.65518 0.65648 0.55109 0.0
C389 C 0.74474 0.65672 0.552 0.0
C390 C 0.63375 0.63862 0.44044 0.0
C391 C 0.60138 0.66243 0.58939 0.0
C392 C 0.38766 0.66061 0.49526 0.0
C393 C 0.3399 0.65002 0.51157 0.0
C394 C 0.47743 0.66075 0.49498 0.0
C395 C 0.52113 0.65029 0.51327 0.0
C396 C 0.47283 0.63965 0.53037 0.0
C397 C 0.38347 0.63954 0.5285 0.0
C398 C 0.52559 0.6721 0.47479 0.0
C399 C 0.51536 0.62848 0.55172 0.0
H400 H 0.79999 0.64007 0.45694 0.0
H401 H 0.77328 0.66136 0.57963 0.0
H402 H 0.5926 0.63042 0.45139 0.0
H403 H 0.59327 0.64564 0.42398 0.0
H404 H 0.68382 0.63513 0.41532 0.0
H405 H 0.64028 0.66619 0.61598 0.0
H406 H 0.56319 0.67041 0.57682 0.0
H407 H 0.5561 0.65524 0.60454 0.0
H408 H 0.35477 0.66874 0.48198 0.0
H409 H 0.34722 0.63139 0.54175 0.0
H410 H 0.57464 0.66881 0.44882 0.0
H411 H 0.55912 0.67711 0.501 0.0
H412 H 0.4832 0.67906 0.45928 0.0
H413 H 0.56136 0.62387 0.52695 0.0
H414 H 0.46896 0.62115 0.56487 0.0
H415 H 0.55176 0.63192 0.57976 0.0
C416 C 0.70105 0.40551 0.51006 0.0
C417 C 0.7452 0.39491 0.52571 0.0
C418 C 0.6119 0.40527 0.50765 0.0
C419 C 0.56455 0.39432 0.52264 0.0
C420 C 0.60878 0.38369 0.53936 0.0
C421 C 0.69829 0.38403 0.53993 0.0
C422 C 0.5685 0.41668 0.48832 0.0
C423 C 0.56141 0.37197 0.55708 0.0
C424 C 0.32654 0.39918 0.55472 0.0
C425 C 0.28832 0.39381 0.51811 0.0
C426 C 0.41565 0.39917 0.55701 0.0
C427 C 0.46898 0.39403 0.52116 0.0
C428 C 0.43065 0.38871 0.48384 0.0
C429 C 0.34108 0.38847 0.48312 0.0
C430 C 0.4527 0.40459 0.59811 0.0
C431 C 0.48437 0.38344 0.44425 0.0
H432 H 0.7366 0.41391 0.49844 0.0
H433 H 0.73157 0.3758 0.55223 0.0
H434 H 0.53229 0.41362 0.45971 0.0
H435 H 0.52223 0.42087 0.51392 0.0
H436 H 0.61434 0.42425 0.47649 0.0
H437 H 0.6044 0.36472 0.57057 0.0
H438 H 0.51295 0.37475 0.58411 0.0
H439 H 0.52723 0.36749 0.53001 0.0
H440 H 0.28648 0.40322 0.58217 0.0
H441 H 0.31236 0.38437 0.45456 0.0
H442 H 0.49343 0.41296 0.58867 0.0
H443 H 0.49366 0.39733 0.61301 0.0
H444 H 0.4028 0.40765 0.62405 0.0
H445 H 0.52845 0.39095 0.4302 0.0
H446 H 0.44533 0.37998 0.41726 0.0
H447 H 0.52387 0.37539 0.45514 0.0
C448 C 0.888 0.89746 0.97263 0.0
C449 C 0.83505 0.89387 0.01029 0.0
C450 C 0.97748 0.89731 0.97361 0.0
C451 C 1.01525 0.89406 0.01385 0.0
C452 C 0.96146 0.89072 0.05227 0.0
C453 C 0.87243 0.89041 0.04973 0.0
C454 C 1.03168 0.90046 0.93134 0.0
C455 C 0.9979 0.88766 0.09636 0.0
C456 C 0.24696 0.88262 0.01111 0.0
C457 C 0.29113 0.89394 0.01955 0.0
C458 C 0.15794 0.88257 0.00839 0.0
C459 C 0.11069 0.89405 0.01572 0.0
C460 C 0.15493 0.90547 0.02505 0.0
C461 C 0.2444 0.90532 0.02607 0.0
C462 C 0.11457 0.87025 0.99697 0.0
C463 C 0.10761 0.91785 0.03451 0.0
H464 H 0.85936 0.9001 0.94204 0.0
H465 H 0.83165 0.88778 0.07908 0.0
H466 H 0.07049 0.90911 0.93663 0.0
H467 H 0.0764 0.89247 0.92287 0.0
H468 H 0.99299 0.90222 0.90232 0.0
H469 H 0.94762 0.88593 0.12369 0.0
H470 H 0.03882 0.87904 0.09276 0.0
H471 H 0.03853 0.89569 0.10635 0.0
H472 H 0.28238 0.8738 0.00548 0.0
H473 H 0.27772 0.91411 0.03278 0.0
H474 H 0.07833 0.87166 0.96687 0.0
H475 H 0.06834 0.86739 0.02492 0.0
H476 H 0.16043 0.86228 0.99032 0.0
H477 H 0.07392 0.92074 0.00481 0.0
H478 H 0.15055 0.92576 0.04308 0.0
H479 H 0.05873 0.91648 0.06274 0.0
C480 C 0.19128 0.16136 0.04199 0.0
C481 C 0.23935 0.15086 0.02528 0.0
C482 C 0.10169 0.16153 0.04146 0.0
C483 C 0.05878 0.15118 0.02217 0.0
C484 C 0.10742 0.14066 0.0046 0.0
C485 C 0.19646 0.14053 0.00707 0.0
C486 C 0.05284 0.17276 0.06196 0.0
C487 C 0.06551 0.1296 0.98241 0.0
C488 C 0.82124 0.14503 0.05162 0.0
C489 C 0.78298 0.15107 0.01622 0.0
C490 C 0.91021 0.14525 0.05451 0.0
C491 C 0.96331 0.15131 0.0204 0.0
C492 C 0.92492 0.15729 0.98423 0.0
C493 C 0.83549 0.15729 0.983 0.0
C494 C 0.94733 0.1391 0.09443 0.0
C495 C 0.97847 0.16352 0.94635 0.0
H496 H 0.22366 0.16937 0.05624 0.0
H497 H 0.23298 0.13245 0.9935 0.0
H498 H 1.01844 0.17776 0.03597 0.0
H499 H 1.00443 0.16933 0.08805 0.0
H500 H 0.09485 0.17977 0.0774 0.0
H501 H 0.11231 0.12239 0.96879 0.0
H502 H 1.0197 0.12479 0.00683 0.0
H503 H 1.02903 0.13318 0.95457 0.0
H504 H 0.78129 0.14032 0.07774 0.0
H505 H 0.80668 0.16194 0.95542 0.0
H506 H 0.98697 0.14613 0.11126 0.0
H507 H 0.98936 0.13103 0.0832 0.0
H508 H 0.89747 0.13541 0.11931 0.0
H509 H 1.01642 0.17143 0.95946 0.0
H510 H 0.93941 0.16743 0.92003 0.0
H511 H 1.02398 0.15644 0.93071 0.0
C512 C 0.24193 0.14174 0.54311 0.0
C513 C 0.29234 0.15102 0.52006 0.0
C514 C 0.15249 0.14178 0.54195 0.0
C515 C 0.1124 0.15097 0.51542 0.0
C516 C 0.16377 0.16016 0.49116 0.0
C517 C 0.25259 0.16024 0.49455 0.0
C518 C 0.10075 0.13209 0.56973 0.0
C519 C 0.12503 0.16983 0.46106 0.0
C520 C 0.88767 0.14317 0.48163 0.0
C521 C 0.83656 0.15125 0.50975 0.0
C522 C 0.97718 0.14316 0.48245 0.0
C523 C 1.01701 0.15106 0.51337 0.0
C524 C 0.96536 0.1591 0.5423 0.0
C525 C 0.87635 0.15926 0.53958 0.0
C526 C 1.02924 0.13477 0.44985 0.0
C527 C 1.00399 0.16738 0.57682 0.0
H528 H 0.2724 0.13462 0.56297 0.0
H529 H 0.29147 0.16734 0.47622 0.0
H530 H 0.05299 0.13709 0.59259 0.0
H531 H 0.06541 0.12584 0.54762 0.0
H532 H 0.14085 0.12597 0.5901 0.0
H533 H 0.17389 0.17583 0.44242 0.0
H534 H 0.08719 0.16484 0.43651 0.0
H535 H 0.08098 0.1762 0.48124 0.0
H536 H 0.85768 0.13697 0.45837 0.0
H537 H 0.83747 0.16543 0.56186 0.0
H538 H 0.06449 0.12754 0.4684 0.0
H539 H 0.07708 0.14065 0.43001 0.0
H540 H 0.98936 0.12969 0.42639 0.0
H541 H 0.04151 0.16136 0.5988 0.0
H542 H 0.95512 0.17268 0.59811 0.0
H543 H 0.04832 0.17441 0.56 0.0
C544 C 0.82007 0.89974 0.55038 0.0
C545 C 0.78183 0.89386 0.51473 0.0
C546 C 0.90906 0.89952 0.55319 0.0
C547 C 0.96221 0.89365 0.51872 0.0
C548 C 0.92383 0.88784 0.48231 0.0
C549 C 0.83437 0.88782 0.48117 0.0
C550 C 0.94617 0.90549 0.59336 0.0
C551 C 0.97741 0.88181 0.44408 0.0
C552 C 0.19513 0.90456 0.5058 0.0
C553 C 0.2383 0.89415 0.52352 0.0
C554 C 0.10606 0.90441 0.50336 0.0
C555 C 0.0577 0.8938 0.52043 0.0
C556 C 0.10089 0.88337 0.53921 0.0
C557 C 0.19047 0.88357 0.53976 0.0
C558 C 0.06385 0.91558 0.48174 0.0
C559 C 0.05234 0.87202 0.55916 0.0
H560 H 0.78009 0.90431 0.57677 0.0
H561 H 0.80557 0.8833 0.45338 0.0
H562 H 0.98604 0.89838 0.60981 0.0
H563 H 0.98797 0.91362 0.5825 0.0
H564 H 0.89629 0.90904 0.61847 0.0
H565 H 0.93836 0.87802 0.41762 0.0
H566 H 1.02268 0.88898 0.42874 0.0
H567 H 1.01563 0.87386 0.45676 0.0
H568 H 0.23143 0.91271 0.49261 0.0
H569 H 0.22303 0.8755 0.55363 0.0
H570 H 1.01798 0.92025 0.50642 0.0
H571 H 1.02739 0.91212 0.45376 0.0
H572 H 0.11045 0.92286 0.46846 0.0
H573 H 1.00393 0.87531 0.58546 0.0
H574 H 0.09455 0.86494 0.57421 0.0
H575 H 1.01797 0.86716 0.53295 0.0
C576 C 0.12263 0.54933 0.00543 0.0
C577 C 0.05494 0.55572 0.0292 0.0
C578 C 0.12641 0.53584 1.00334 0.0
C579 C 0.061 0.52839 0.02555 0.0
C580 C 0.99312 0.53474 0.05015 0.0
C581 C 0.99093 0.54826 0.0517 0.0
C582 C 0.20023 0.52956 0.97687 0.0
C583 C 0.9218 0.52725 0.07427 0.0
C584 C 1.02658 0.49431 0.98304 0.0
C585 C 0.06646 0.48672 0.01428 0.0
C586 C 1.02411 0.50778 0.98644 0.0
C587 C 0.06249 0.51399 0.02197 0.0
C588 C 0.10273 0.50641 0.0537 0.0
C589 C 0.10409 0.49293 0.04956 0.0
C590 C 0.98004 0.51539 0.95193 0.0
C591 C 0.14483 0.51255 0.09201 0.0
H592 H 0.17332 0.5549 0.98849 0.0
H593 H 0.9377 0.55299 0.06973 0.0
H594 H 0.23319 0.52287 0.99868 0.0
H595 H 0.17664 0.52384 0.94912 0.0
H596 H 0.24709 0.53665 0.9624 0.0
H597 H 0.87506 0.53354 0.09314 0.0
H598 H 0.88802 0.52159 0.04971 0.0
H599 H 0.94783 0.52036 0.09804 0.0
H600 H 0.99581 0.48971 0.9561 0.0
H601 H 0.13579 0.48725 0.07372 0.0
H602 H 1.0255 0.52217 0.93453 0.0
H603 H 0.92792 0.52117 0.96866 0.0
H604 H 0.953 0.50917 0.92641 0.0
H605 H 0.19585 0.51913 0.07869 0.0
H606 H 0.17289 0.50537 0.1141 0.0
H607 H 0.09787 0.51838 0.11254 0.0
C608 C 1.03444 0.49477 0.55512 0.0
C609 C 1.00793 0.48706 0.5202 0.0
C610 C 1.03647 0.50825 0.55167 0.0
C611 C 1.01163 0.51434 0.51224 0.0
C612 C 0.98477 0.50664 0.47685 0.0
C613 C 0.98324 0.49317 0.48122 0.0
C614 C 0.06577 0.51598 0.59028 0.0
C615 C 0.95753 0.51266 0.43424 0.0
C616 C 0.94551 0.54964 0.52081 0.0
C617 C 1.01957 0.55607 0.50405 0.0
C618 C 0.94178 0.53615 0.52317 0.0
C619 C 1.01365 0.52873 0.50825 0.0
C620 C 0.0881 0.53512 0.49056 0.0
C621 C 0.09021 0.54864 0.48874 0.0
C622 C 0.86095 0.52983 0.54219 0.0
C623 C 0.16631 0.52768 0.47422 0.0
H624 H 0.05527 0.49026 0.5851 0.0
H625 H 0.96173 0.48741 0.45412 0.0
H626 H 0.12231 0.52176 0.57884 0.0
H627 H 1.01517 0.52278 0.60247 0.0
H628 H 0.08236 0.50986 0.61879 0.0
H629 H 0.9387 0.5054 0.4097 0.0
H630 H 0.90305 0.5192 0.4421 0.0
H631 H 1.01016 0.51851 0.41829 0.0
H632 H 0.88986 0.55516 0.53207 0.0
H633 H 0.14828 0.55339 0.47628 0.0
H634 H 0.87384 0.52418 0.57244 0.0
H635 H 0.83738 0.52305 0.51738 0.0
H636 H 0.81001 0.53688 0.55154 0.0
H637 H 0.21808 0.53399 0.45985 0.0
H638 H 0.1502 0.52068 0.44826 0.0
H639 H 0.19032 0.52214 0.50239 0.0
C640 C 0.46669 0.99472 0.02767 0.0
C641 C 0.53976 0.988 0.01132 0.0
C642 C 0.46587 1.00822 0.0305 0.0
C643 C 0.53997 1.01531 0.01683 0.0
C644 C 0.61387 1.00859 1.00022 0.0
C645 C 0.61283 0.9951 0.99758 0.0
C646 C 0.38534 1.0149 0.04805 0.0
C647 C 0.69449 1.01569 0.98544 0.0
C648 C 0.5179 0.05067 0.98515 0.0
C649 C 0.54002 0.05705 0.02406 0.0
C650 C 0.51737 0.03719 0.98245 0.0
C651 C 0.53986 0.02973 0.01945 0.0
C652 C 0.56207 0.03608 0.05889 0.0
C653 C 0.56157 0.0496 0.06078 0.0
C654 C 0.49241 0.03092 0.93988 0.0
C655 C 0.587 0.02857 0.09908 0.0
H656 H 0.40942 0.98943 0.03787 0.0
H657 H 0.67011 0.99007 0.9855 0.0
H658 H 0.39765 1.02071 0.07793 0.0
H659 H 0.36385 1.02157 0.02224 0.0
H660 H 0.33311 1.00806 0.05744 0.0
H661 H 0.7467 1.00912 0.97349 0.0
H662 H 0.68232 0.02246 0.95801 0.0
H663 H 0.71589 1.02143 0.01371 0.0
H664 H 0.49973 0.05625 0.95678 0.0
H665 H 0.57958 0.05435 0.09087 0.0
H666 H 0.43676 0.02457 0.94739 0.0
H667 H 0.54522 0.02482 0.92554 0.0
H668 H 0.47622 0.03802 0.91414 0.0
H669 H 0.53445 1.02209 0.11106 0.0
H670 H 0.6026 0.03488 0.12722 0.0
H671 H 0.64305 0.02249 0.08947 0.0
C672 C 0.52103 0.04957 0.4782 0.0
C673 C 0.54388 0.05697 0.5147 0.0
C674 C 0.52058 0.03605 0.48002 0.0
C675 C 0.54377 0.02964 0.51922 0.0
C676 C 0.56735 0.03704 0.55604 0.0
C677 C 0.56715 0.05053 0.55334 0.0
C678 C 0.49476 0.02861 0.43997 0.0
C679 C 0.59305 0.0307 0.59842 0.0
C680 C 0.47049 0.995 0.54072 0.0
C681 C 0.5434 0.98788 0.52673 0.0
C682 C 0.46971 1.0085 0.53845 0.0
C683 C 0.54357 1.01522 0.52176 0.0
C684 C 0.61747 1.00812 0.50781 0.0
C685 C 0.61653 0.99463 0.51048 0.0
C686 C 0.3894 1.0156 0.55369 0.0
C687 C 0.69786 1.0148 0.49001 0.0
H688 H 0.50201 0.05435 0.44833 0.0
H689 H 0.58641 0.05605 0.58154 0.0
H690 H 0.54697 1.02209 0.42776 0.0
H691 H 0.43866 0.02255 0.44982 0.0
H692 H 0.47887 0.03495 0.41191 0.0
H693 H 0.60953 0.03777 0.62414 0.0
H694 H 0.54051 0.02457 0.61291 0.0
H695 H 0.64871 0.02438 0.59063 0.0
H696 H 0.4131 0.98999 0.55271 0.0
H697 H 0.67375 0.98934 0.50014 0.0
H698 H 0.36731 1.02136 0.52555 0.0
H699 H 0.40225 0.02237 0.58096 0.0
H700 H 0.3374 1.00904 0.56604 0.0
H701 H 0.68512 1.02069 0.46029 0.0
H702 H 0.74988 1.00796 0.48029 0.0
H703 H 0.71988 1.0214 0.51579 0.0
C704 C 0.29261 0.30179 0.04586 0.0
C705 C 0.21782 0.30573 0.02689 0.0
C706 C 0.32039 0.28893 0.04349 0.0
C707 C 0.27243 0.27963 0.02172 0.0
C708 C 0.19703 0.28354 1.00244 0.0
C709 C 0.17083 0.29646 0.0052 0.0
C710 C 0.4014 0.2853 0.06429 0.0
C711 C 0.1435 0.27402 0.97905 0.0
C712 C 0.38173 0.24868 0.97938 0.0
C713 C 0.3559 0.23977 0.01303 0.0
C714 C 0.35532 0.26159 0.98183 0.0
C715 C 0.30134 0.26587 0.01882 0.0
C716 C 0.27494 0.25695 0.05291 0.0
C717 C 0.30252 0.24408 0.04967 0.0
C718 C 0.38567 0.2707 0.94478 0.0
C719 C 0.21715 0.26099 0.09286 0.0
H720 H 0.33023 0.30881 0.06225 0.0
H721 H 0.11228 0.29925 0.99102 0.0
H722 H 0.38807 0.2778 0.09019 0.0
H723 H 0.44747 0.2812 0.03835 0.0
H724 H 0.43152 0.2936 0.08006 0.0
H725 H 0.08673 0.27853 0.96569 0.0
H726 H 0.18199 0.26947 0.95086 0.0
H727 H 0.12202 0.26628 1.0027 0.0
H728 H 0.4241 0.24562 0.95127 0.0
H729 H 0.28122 0.23734 0.0757 0.0
H730 H 0.42142 0.27872 0.95883 0.0
H731 H 0.33041 0.27493 0.92916 0.0
H732 H 0.42729 0.26593 0.91823 0.0
H733 H 0.24728 0.26881 0.11113 0.0
H734 H 0.20227 0.25296 0.11656 0.0
H735 H 0.15671 0.26481 0.08142 0.0
C736 C 0.66528 0.79473 0.04242 0.0
C737 C 0.72066 0.80472 0.02805 0.0
C738 C 0.69121 0.78179 0.04039 0.0
C739 C 0.7749 0.77859 0.02357 0.0
C740 C 0.83126 0.7886 0.00908 0.0
C741 C 0.8036 0.80147 0.01142 0.0
C742 C 0.62858 0.77151 0.05605 0.0
C743 C 0.92112 0.78572 0.99111 0.0
C744 C 0.86633 0.74608 0.05585 0.0
C745 C 0.85705 0.73864 0.01732 0.0
C746 C 0.8402 0.75901 0.05827 0.0
C747 C 0.8034 0.7648 0.02133 0.0
C748 C 0.79348 0.75734 0.9824 0.0
C749 C 0.82041 0.74443 0.98083 0.0
C750 C 0.8526 0.76652 0.1004 0.0
C751 C 0.75419 0.76301 0.94228 0.0
H752 H 0.60062 0.79699 0.05456 0.0
H753 H 0.84752 0.80903 1.00062 0.0
H754 H 0.61882 0.76481 0.02812 0.0
H755 H 0.65425 0.76584 0.08343 0.0
H756 H 0.56597 0.77553 0.06839 0.0
H757 H 0.95725 0.79452 0.98114 0.0
H758 H 0.95527 0.78058 0.0169 0.0
H759 H 0.92043 0.77932 0.96153 0.0
H760 H 0.89577 0.74187 0.08403 0.0
H761 H 0.81189 0.73882 0.95103 0.0
H762 H 0.79054 0.7702 0.11485 0.0
H763 H 0.89377 0.77495 0.09227 0.0
H764 H 0.88193 0.76068 0.12625 0.0
H765 H 0.689 0.76646 0.95223 0.0
H766 H 0.75078 0.75601 0.91454 0.0
H767 H 0.79173 0.77141 0.92959 0.0
C768 C 0.25131 0.74439 0.49427 0.0
C769 C 0.20575 0.73992 0.53341 0.0
C770 C 0.27949 0.75721 0.49027 0.0
C771 C 0.26182 0.76591 0.52616 0.0
C772 C 0.21542 0.7615 0.56559 0.0
C773 C 0.18811 0.74864 0.56872 0.0
C774 C 0.32892 0.76142 0.44765 0.0
C775 C 0.19454 0.77037 0.60466 0.0
C776 C 0.40087 0.7958 0.53473 0.0
C777 C 0.35061 0.8055 0.5174 0.0
C778 C 0.37306 0.78296 0.53754 0.0
C779 C 0.29264 0.77958 0.52278 0.0
C780 C 0.2415 0.7893 0.50528 0.0
C781 C 0.271 0.80207 0.50274 0.0
C782 C 0.43013 0.77298 0.55623 0.0
C783 C 0.15522 0.78621 0.48937 0.0
H784 H 0.26632 0.73779 0.46689 0.0
H785 H 0.15175 0.74546 0.59884 0.0
H786 H 0.29627 0.76959 0.43246 0.0
H787 H 0.3929 0.7648 0.45536 0.0
H788 H 0.33656 0.75359 0.42255 0.0
H789 H 0.15744 0.76554 0.63284 0.0
H790 H 0.25402 0.77419 0.61719 0.0
H791 H 0.15745 0.77868 0.59363 0.0
H792 H 0.46305 0.7982 0.54546 0.0
H793 H 0.23097 0.80942 0.48973 0.0
H794 H 0.44472 0.76539 0.53089 0.0
H795 H 0.39713 0.76832 0.586 0.0
H796 H 0.4909 0.7771 0.56615 0.0
H797 H 0.16154 0.7789 0.46244 0.0
H798 H 0.12329 0.79479 0.47634 0.0
H799 H 0.11386 0.78208 0.51735 0.0
C800 C 0.79976 0.30114 0.48609 0.0
C801 C 0.8592 0.30612 0.51435 0.0
C802 C 0.77316 0.28824 0.48908 0.0
C803 C 0.8062 0.27996 0.52124 0.0
C804 C 0.86535 0.28495 0.55024 0.0
C805 C 0.89107 0.29788 0.54643 0.0
C806 C 0.70984 0.28344 0.45752 0.0
C807 C 0.90233 0.27655 0.58509 0.0
C808 C 0.68171 0.24941 0.55425 0.0
C809 C 0.7259 0.23993 0.52847 0.0
C810 C 0.70747 0.26236 0.55258 0.0
C811 C 0.77928 0.26611 0.52429 0.0
C812 C 0.82463 0.25661 0.49845 0.0
C813 C 0.79763 0.24371 0.50087 0.0
C814 C 0.65698 0.27208 0.58076 0.0
C815 C 0.90158 0.26009 0.46788 0.0
H816 H 0.77338 0.30736 0.46161 0.0
H817 H 0.93788 0.30145 0.56808 0.0
H818 H 0.73796 0.27543 0.43708 0.0
H819 H 0.65267 0.27964 0.47696 0.0
H820 H 0.68966 0.29105 0.43455 0.0
H821 H 0.94602 0.28189 0.60583 0.0
H822 H 0.85054 0.27235 0.60757 0.0
H823 H 0.9378 0.26848 0.56845 0.0
H824 H 0.62541 0.24677 0.57515 0.0
H825 H 0.8333 0.23656 0.48119 0.0
H826 H 0.62985 0.27934 0.55873 0.0
H827 H 0.69919 0.27721 0.60282 0.0
H828 H 0.60422 0.26762 0.602 0.0
H829 H 0.88355 0.26713 0.44239 0.0
H830 H 0.93058 0.25162 0.45029 0.0
H831 H 0.95022 0.2647 0.48748 0.0
C832 C 1.00878 0.38926 0.16903 0.0
C833 C 0.06631 0.39807 0.14815 0.0
C834 C 0.99866 0.38814 0.21643 0.0
C835 C 0.0469 0.39602 0.2439 0.0
C836 C 0.10667 0.40464 0.22273 0.0
C837 C 0.11568 0.40552 0.1755 0.0
C838 C 0.93465 0.37874 0.23715 0.0
C839 C 0.15951 0.41329 0.25004 0.0
C840 C 0.96154 0.40546 0.36272 0.0
C841 C 1.01152 0.39812 0.39023 0.0
C842 C 0.97066 0.40455 0.31552 0.0
C843 C 1.03118 0.39603 0.29452 0.0
C844 C 0.08005 0.38826 0.32216 0.0
C845 C 0.06979 0.3894 0.36954 0.0
C846 C 0.91709 0.41308 0.28803 0.0
C847 C 0.14489 0.37897 0.30162 0.0
H848 H 0.97045 0.38342 0.14836 0.0
H849 H 0.16069 0.41231 0.15993 0.0
H850 H 0.9646 0.37256 0.26181 0.0
H851 H 0.88203 0.38402 0.25563 0.0
H852 H 0.90741 0.37256 0.21161 0.0
H853 H 0.20627 0.41899 0.22874 0.0
H854 H 0.11735 0.41999 0.27002 0.0
H855 H 0.19432 0.40755 0.27404 0.0
H856 H 0.91595 0.41218 0.37816 0.0
H857 H 0.1086 0.38366 0.39032 0.0
H858 H 0.88279 0.40726 0.26414 0.0
H859 H 0.95869 0.41984 0.26793 0.0
H860 H 0.86984 0.41871 0.30922 0.0
H861 H 0.11549 0.37271 0.27708 0.0
H862 H 0.17264 0.37286 0.32728 0.0
H863 H 0.19706 0.38432 0.28306 0.0
C864 C 0.12345 0.65146 0.17226 0.0
C865 C 0.04813 0.64938 0.15099 0.0
C866 C 0.12606 0.65059 0.21925 0.0
C867 C 0.05094 0.64782 0.24656 0.0
C868 C 0.97537 0.64506 0.22508 0.0
C869 C 0.97497 0.64577 0.17762 0.0
C870 C 0.2086 0.65344 0.23981 0.0
C871 C 0.89345 0.64216 0.25237 0.0
C872 C 0.07408 0.6422 0.37332 0.0
C873 C 0.06202 0.65463 0.39058 0.0
C874 C 0.06859 0.63967 0.32683 0.0
C875 C 0.04955 0.64975 0.29692 0.0
C876 C 1.03483 0.66217 0.31483 0.0
C877 C 0.04178 0.66443 0.36084 0.0
C878 C 0.08547 0.6263 0.30951 0.0
C879 C 1.01361 0.67326 0.28509 0.0
H880 H 0.18044 0.65421 0.15204 0.0
H881 H 0.91626 0.64424 0.16168 0.0
H882 H 0.20399 0.66287 0.25685 0.0
H883 H 0.22129 0.64614 0.2655 0.0
H884 H 0.26342 0.65371 0.21428 0.0
H885 H 0.84382 0.63845 0.23126 0.0
H886 H 0.90421 0.63505 0.27899 0.0
H887 H 0.86927 0.65104 0.26919 0.0
H888 H 0.08967 0.63455 0.39582 0.0
H889 H 1.03161 0.67407 0.37358 0.0
H890 H 0.1446 0.62624 0.287 0.0
H891 H 1.03303 0.62311 0.28939 0.0
H892 H 0.09257 0.61932 0.33708 0.0
H893 H 0.06832 0.67529 0.26064 0.0
H894 H 0.9982 0.68213 0.3045 0.0
H895 H 0.95861 0.6708 0.26563 0.0
C896 C 0.95619 0.64267 0.8635 0.0
C897 C 1.00772 0.64938 0.89197 0.0
C898 C 0.96846 0.64357 0.81637 0.0
C899 C 1.03341 0.65155 0.79634 0.0
C900 C 0.08334 0.65882 0.82489 0.0
C901 C 0.07032 0.6576 0.87221 0.0
C902 C 0.91389 0.63551 0.78796 0.0
C903 C 0.15231 0.66762 0.80542 0.0
C904 C 0.12355 0.64099 0.67958 0.0
C905 C 0.0779 0.6485 0.6505 0.0
C906 C 0.11158 0.64219 0.72662 0.0
C907 C 0.0531 0.6513 0.74592 0.0
C908 C 1.00931 0.65932 0.71672 0.0
C909 C 1.02176 0.65778 0.6695 0.0
C910 C 0.15934 0.63329 0.75574 0.0
C911 C 0.94745 0.66931 0.73539 0.0
H912 H 0.90726 0.63633 0.87813 0.0
H913 H 0.11037 0.66287 0.89368 0.0
H914 H 0.88362 0.6416 0.76319 0.0
H915 H 0.9542 0.6284 0.76882 0.0
H916 H 0.86326 0.63031 0.80838 0.0
H917 H 0.1788 0.6737 0.83148 0.0
H918 H 0.20471 0.66186 0.78885 0.0
H919 H 0.12736 0.6739 0.77942 0.0
H920 H 0.16741 0.63381 0.66551 0.0
H921 H 0.98634 0.66369 0.64753 0.0
H922 H 0.11367 0.62702 0.77544 0.0
H923 H 0.19428 0.63888 0.78002 0.0
H924 H 0.20543 0.62714 0.7358 0.0
H925 H 0.89095 0.66455 0.75229 0.0
H926 H 0.92588 0.67574 0.70882 0.0
H927 H 0.97693 0.67519 0.76097 0.0
C928 C 0.09989 0.38432 0.67278 0.0
C929 C 0.04068 0.39099 0.64856 0.0
C930 C 0.10153 0.38549 0.71968 0.0
C931 C 0.04251 0.39359 0.74389 0.0
C932 C 0.98458 0.40079 0.71946 0.0
C933 C 0.9843 0.39942 0.67217 0.0
C934 C 0.16451 0.37757 0.74357 0.0
C935 C 0.9209 0.40963 0.74347 0.0
C936 C 0.98571 0.38281 0.86489 0.0
C937 C 0.03844 0.39041 0.89 0.0
C938 C 0.9843 0.38411 0.81801 0.0
C939 C 1.03654 0.39336 0.79475 0.0
C940 C 0.08785 0.40142 0.82005 0.0
C941 C 0.08841 0.39984 0.86727 0.0
C942 C 0.92884 0.3752 0.79315 0.0
C943 C 0.14393 0.4115 0.79706 0.0
H944 H 0.14446 0.37787 0.65503 0.0
H945 H 0.93854 0.40467 0.65394 0.0
H946 H 0.20087 0.38374 0.76548 0.0
H947 H 0.12999 0.37039 0.76539 0.0
H948 H 0.21016 0.37244 0.71984 0.0
H949 H 0.8872 0.41566 0.71976 0.0
H950 H 0.87311 0.4039 0.76389 0.0
H951 H 0.95289 0.41596 0.76681 0.0
H952 H 0.94612 0.37556 0.88191 0.0
H953 H 0.12899 0.40583 0.88619 0.0
H954 H 0.96932 0.36894 0.77049 0.0
H955 H 0.88721 0.38078 0.77196 0.0
H956 H 0.88825 0.36903 0.8162 0.0
H957 H 0.19581 0.40682 0.776 0.0
H958 H 0.17271 0.41791 0.82144 0.0
H959 H 0.10694 0.41739 0.77445 0.0
C960 C 0.51627 0.88624 0.165 0.0
C961 C 0.57752 0.89467 0.14521 0.0
C962 C 0.50321 0.88508 0.21227 0.0
C963 C 0.55169 0.89262 0.24067 0.0
C964 C 0.61536 0.90081 0.22063 0.0
C965 C 0.62777 0.90165 0.17352 0.0
C966 C 0.4357 0.87605 0.23184 0.0
C967 C 0.66827 0.90916 0.24897 0.0
C968 C 0.45887 0.90284 0.35716 0.0
C969 C 0.50555 0.89548 0.38618 0.0
C970 C 0.47158 0.90172 0.31014 0.0
C971 C 0.53187 0.89286 0.29095 0.0
C972 C 0.57695 0.88501 0.3201 0.0
C973 C 0.56371 0.88647 0.36725 0.0
C974 C 0.42249 0.91041 0.28095 0.0
C975 C 0.6408 0.8753 0.30146 0.0
H976 H 0.47729 0.88076 0.14358 0.0
H977 H 0.67562 0.90815 0.15879 0.0
H978 H 0.4617 0.86989 0.25788 0.0
H979 H 0.3824 0.88162 0.24839 0.0
H980 H 0.41017 0.86983 0.20586 0.0
H981 H 0.71803 0.91454 0.22852 0.0
H982 H 0.62658 0.91615 0.26792 0.0
H983 H 0.69949 0.90325 0.2739 0.0
H984 H 0.41351 0.90981 0.37123 0.0
H985 H 0.59987 0.88069 0.38926 0.0
H986 H 0.38851 0.90468 0.25669 0.0
H987 H 0.46717 0.91683 0.26124 0.0
H988 H 0.37539 0.91641 0.30084 0.0
H989 H 0.61223 0.86919 0.27618 0.0
H990 H 0.66417 0.86906 0.32808 0.0
H991 H 0.69599 0.88029 0.28419 0.0
C992 C 0.48693 0.1431 0.16898 0.0
C993 C 0.53722 0.15264 0.14707 0.0
C994 C 0.4875 0.14119 0.21606 0.0
C995 C 0.53869 0.14908 0.24207 0.0
C996 C 0.59139 0.1584 0.21958 0.0
C997 C 0.59041 0.15998 0.17283 0.0
C998 C 0.4315 0.13096 0.23817 0.0
C999 C 0.6464 0.16719 0.24521 0.0
C1000 C 0.47198 0.15795 0.36361 0.0
C1001 C 0.53233 0.15161 0.38812 0.0
C1002 C 0.47108 0.1567 0.31674 0.0
C1003 C 0.53136 0.14873 0.29288 0.0
C1004 C 0.58978 0.14173 0.31765 0.0
C1005 C 0.58997 0.1433 0.36488 0.0
C1006 C 0.40805 0.16452 0.29249 0.0
C1007 C 0.65412 0.13291 0.29406 0.0
H1008 H 0.44613 0.1373 0.14956 0.0
H1009 H 0.63038 0.1673 0.15648 0.0
H1010 H 0.46775 0.12516 0.26139 0.0
H1011 H 0.37794 0.13549 0.2584 0.0
H1012 H 0.40497 0.12449 0.21323 0.0
H1013 H 0.68706 0.1735 0.2227 0.0
H1014 H 0.60555 0.17332 0.26819 0.0
H1015 H 0.68797 0.16153 0.26614 0.0
H1016 H 0.42636 0.1643 0.38104 0.0
H1017 H 0.63653 0.13828 0.38331 0.0
H1018 H 0.37241 0.15829 0.27044 0.0
H1019 H 0.44253 0.17173 0.27076 0.0
H1020 H 0.36174 0.1696 0.31597 0.0
H1021 H 0.62324 0.12674 0.26981 0.0
H1022 H 0.68605 0.12673 0.31802 0.0
H1023 H 0.70331 0.13867 0.27475 0.0
C1024 C 0.45818 0.14244 0.85881 0.0
C1025 C 0.50561 0.14971 0.88765 0.0
C1026 C 0.47059 0.14356 0.81177 0.0
C1027 C 0.5313 0.15233 0.79235 0.0
C1028 C 0.5771 0.1601 0.82132 0.0
C1029 C 0.56418 0.15864 0.8685 0.0
C1030 C 0.42075 0.13494 0.7828 0.0
C1031 C 0.64139 0.16973 0.80243 0.0
C1032 C 0.6265 0.14335 0.67506 0.0
C1033 C 0.57662 0.15039 0.64661 0.0
C1034 C 0.61415 0.14422 0.72215 0.0
C1035 C 0.55097 0.15251 0.74205 0.0
C1036 C 0.50282 0.16009 0.7135 0.0
C1037 C 0.51574 0.15889 0.66624 0.0
C1038 C 0.66661 0.13581 0.75065 0.0
C1039 C 0.43589 0.16923 0.73291 0.0
H1040 H 0.41247 0.13554 0.87305 0.0
H1041 H 0.60091 0.16435 0.89036 0.0
H1042 H 0.38705 0.14072 0.75848 0.0
H1043 H 0.46492 0.12844 0.76315 0.0
H1044 H 0.37334 0.12902 0.80285 0.0
H1045 H 0.66507 0.17596 0.82891 0.0
H1046 H 0.69634 0.16465 0.78528 0.0
H1047 H 0.61311 0.17584 0.77701 0.0
H1048 H 0.67404 0.13679 0.66047 0.0
H1049 H 0.47705 0.16441 0.64471 0.0
H1050 H 0.6245 0.12892 0.76985 0.0
H1051 H 0.69839 0.14169 0.77536 0.0
H1052 H 0.71588 0.13033 0.73028 0.0
H1053 H 0.38228 0.16374 0.7496 0.0
H1054 H 0.41068 0.17547 0.7068 0.0
H1055 H 0.46231 0.17537 0.7588 0.0
C1056 C 0.58655 0.88469 0.67202 0.0
C1057 C 0.5351 0.89224 0.64589 0.0
C1058 C 0.58735 0.88629 0.71874 0.0
C1059 C 0.53634 0.89587 0.7408 0.0
C1060 C 0.48684 0.90395 0.71444 0.0
C1061 C 0.48633 0.902 0.6674 0.0
C1062 C 0.64043 0.87729 0.74479 0.0
C1063 C 0.43272 0.91445 0.7361 0.0
C1064 C 0.46839 0.88749 0.86271 0.0
C1065 C 0.53004 0.8936 0.88687 0.0
C1066 C 0.46742 0.88868 0.81581 0.0
C1067 C 0.52908 0.89635 0.79158 0.0
C1068 C 0.58891 0.90314 0.816 0.0
C1069 C 0.58903 0.90164 0.86326 0.0
C1070 C 0.40284 0.88111 0.79192 0.0
C1071 C 0.65488 0.91163 0.79199 0.0
H1072 H 0.62531 0.87719 0.65599 0.0
H1073 H 0.44692 0.90797 0.64768 0.0
H1074 H 0.68317 0.88279 0.76547 0.0
H1075 H 0.59829 0.87141 0.76803 0.0
H1076 H 0.67974 0.87074 0.72258 0.0
H1077 H 0.40711 0.92095 0.7109 0.0
H1078 H 0.37854 0.91018 0.75668 0.0
H1079 H 0.47013 0.92017 0.75895 0.0
H1080 H 0.42179 0.88134 0.88044 0.0
H1081 H 0.63666 0.90647 0.88143 0.0
H1082 H 0.43584 0.87368 0.77057 0.0
H1083 H 0.36851 0.88744 0.76954 0.0
H1084 H 0.35551 0.8763 0.81564 0.0
H1085 H 0.70285 0.90562 0.77288 0.0
H1086 H 0.6881 0.9177 0.81568 0.0
H1087 H 0.62512 0.9179 0.76753 0.0
loop_
_geom_bond_atom_site_label_1
_geom_bond_atom_site_label_2
_geom_bond_distance
_geom_bond_site_symmetry_2
_ccdc_geom_bond_type
La0 C2 2.928 1_455 S
La0 O20 2.521 . S
La0 O21 2.628 1_454 S
La0 O22 2.554 . S
La0 O23 2.757 . S
La0 O24 2.470 1_455 S
La0 O29 2.482 1_554 S
La0 O31 2.503 . S
La1 C11 2.928 . S
La1 O23 2.482 . S
La1 O25 2.503 1_455 S
La1 O26 2.521 1_554 S
La1 O27 2.628 . S
La1 O28 2.554 1_554 S
La1 O29 2.757 1_554 S
La1 O30 2.470 1_554 S
C2 La0 2.928 1_655 S
C2 C3 1.503 . S
C2 O20 1.261 1_655 S
C2 O21 1.243 1_554 S
C3 C2 1.503 . S
C3 C4 1.394 . S
C3 C8 1.373 1_554 S
C4 C3 1.394 . S
C4 C5 1.380 . S
C4 H32 0.930 . S
C5 C4 1.380 . S
C5 C6 1.376 . S
C5 H33 0.930 . S
C6 C5 1.376 . S
C6 C7 1.370 1_554 S
C7 C6 1.370 1_556 S
C7 C8 1.396 . S
C7 H34 0.929 . S
C8 C3 1.373 1_556 S
C8 C7 1.396 . S
C8 H35 0.929 . S
C9 O22 1.240 . S
C9 O23 1.289 . S
C10 O24 1.258 . S
C10 O25 1.256 . S
C11 La1 2.928 . S
C11 C12 1.503 . S
C11 O26 1.261 1_554 S
C11 O27 1.243 . S
C12 C11 1.503 . S
C12 C13 1.394 1_554 S
C12 C17 1.373 . S
C13 C12 1.394 1_556 S
C13 C14 1.380 . S
C13 H36 0.930 . S
C14 C13 1.380 . S
C14 C15 1.376 1_556 S
C14 H37 0.930 . S
C15 C14 1.376 1_554 S
C15 C16 1.370 . S
C16 C15 1.370 . S
C16 C17 1.396 . S
C16 H38 0.929 . S
C17 C12 1.373 . S
C17 C16 1.396 . S
C17 H39 0.929 . S
C18 O28 1.240 . S
C18 O29 1.289 . S
C19 O30 1.258 1_554 S
C19 O31 1.256 . S
O20 La0 2.521 . S
O20 C2 1.261 1_455 S
O21 La0 2.628 1_656 S
O21 C2 1.243 1_556 S
O22 La0 2.554 . S
O22 C9 1.240 . S
O23 La0 2.757 . S
O23 La1 2.482 . S
O23 C9 1.289 . S
O24 La0 2.470 1_655 S
O24 C10 1.258 . S
O25 La1 2.503 1_655 S
O25 C10 1.256 . S
O26 La1 2.521 1_556 S
O26 C11 1.261 1_556 S
O27 La1 2.628 . S
O27 C11 1.243 . S
O28 La1 2.554 1_556 S
O28 C18 1.240 . S
O29 La0 2.482 1_556 S
O29 La1 2.757 1_556 S
O29 C18 1.289 . S
O30 La1 2.470 1_556 S
O30 C19 1.258 1_556 S
O31 La0 2.503 . S
O31 C19 1.256 . S
H32 C4 0.930 . S
H33 C5 0.930 . S
H34 C7 0.929 . S
H35 C8 0.929 . S
H36 C13 0.930 . S
H37 C14 0.930 . S
H38 C16 0.929 . S
H39 C17 0.929 . S
La40 C42 2.928 . S
La40 O60 2.521 . S
La40 O61 2.628 1_554 S
La40 O62 2.554 . S
La40 O63 2.757 . S
La40 O64 2.470 . S
La40 O69 2.482 1_554 S
La40 O71 2.503 1_655 S
La41 C51 2.928 1_655 S
La41 O63 2.482 . S
La41 O65 2.503 . S
La41 O66 2.521 1_554 S
La41 O67 2.628 1_655 S
La41 O68 2.554 1_554 S
La41 O69 2.757 1_554 S
La41 O70 2.470 1_654 S
C42 La40 2.928 . S
C42 C43 1.503 . S
C42 O60 1.261 . S
C42 O61 1.243 1_554 S
C43 C42 1.503 . S
C43 C44 1.394 . S
C43 C48 1.373 1_554 S
C44 C43 1.394 . S
C44 C45 1.380 . S
C44 H72 0.930 . S
C45 C44 1.380 . S
C45 C46 1.376 . S
C45 H73 0.930 . S
C46 C45 1.376 . S
C46 C47 1.370 1_554 S
C47 C46 1.370 1_556 S
C47 C48 1.396 . S
C47 H74 0.929 . S
C48 C43 1.373 1_556 S
C48 C47 1.396 . S
C48 H75 0.929 . S
C49 O62 1.240 . S
C49 O63 1.289 . S
C50 O64 1.258 . S
C50 O65 1.256 . S
C51 La41 2.928 1_455 S
C51 C52 1.503 . S
C51 O66 1.261 1_454 S
C51 O67 1.243 . S
C52 C51 1.503 . S
C52 C53 1.394 1_554 S
C52 C57 1.373 . S
C53 C52 1.394 1_556 S
C53 C54 1.380 . S
C53 H76 0.930 . S
C54 C53 1.380 . S
C54 C55 1.376 1_556 S
C54 H77 0.930 . S
C55 C54 1.376 1_554 S
C55 C56 1.370 . S
C56 C55 1.370 . S
C56 C57 1.396 . S
C56 H78 0.929 . S
C57 C52 1.373 . S
C57 C56 1.396 . S
C57 H79 0.929 . S
C58 O68 1.240 . S
C58 O69 1.289 . S
C59 O70 1.258 1_554 S
C59 O71 1.256 . S
O60 La40 2.521 . S
O60 C42 1.261 . S
O61 La40 2.628 1_556 S
O61 C42 1.243 1_556 S
O62 La40 2.554 . S
O62 C49 1.240 . S
O63 La40 2.757 . S
O63 La41 2.482 . S
O63 C49 1.289 . S
O64 La40 2.470 . S
O64 C50 1.258 . S
O65 La41 2.503 . S
O65 C50 1.256 . S
O66 La41 2.521 1_556 S
O66 C51 1.261 1_656 S
O67 La41 2.628 1_455 S
O67 C51 1.243 . S
O68 La41 2.554 1_556 S
O68 C58 1.240 . S
O69 La40 2.482 1_556 S
O69 La41 2.757 1_556 S
O69 C58 1.289 . S
O70 La41 2.470 1_456 S
O70 C59 1.258 1_556 S
O71 La40 2.503 1_455 S
O71 C59 1.256 . S
H72 C44 0.930 . S
H73 C45 0.930 . S
H74 C47 0.929 . S
H75 C48 0.929 . S
H76 C53 0.930 . S
H77 C54 0.930 . S
H78 C56 0.929 . S
H79 C57 0.929 . S
La80 C82 2.928 . S
La80 O100 2.521 . S
La80 O101 2.628 . S
La80 O102 2.554 . S
La80 O103 2.757 . S
La80 O104 2.470 . S
La80 O109 2.482 . S
La80 O111 2.503 1_455 S
La81 C91 2.928 1_455 S
La81 O103 2.482 . S
La81 O105 2.503 . S
La81 O106 2.521 . S
La81 O107 2.620 1_455 S
La81 O108 2.554 . S
La81 O109 2.757 . S
La81 O110 2.470 1_455 S
C82 La80 2.928 . S
C82 C83 1.503 . S
C82 O100 1.261 . S
C82 O101 1.243 . S
C83 C82 1.503 . S
C83 C84 1.394 . S
C83 C88 1.373 . S
C84 C83 1.394 . S
C84 C85 1.380 . S
C84 H112 0.930 . S
C85 C84 1.380 . S
C85 C86 1.376 . S
C85 H113 0.930 . S
C86 C85 1.376 . S
C86 C87 1.370 . S
C87 C86 1.370 . S
C87 C88 1.396 . S
C87 H114 0.929 . S
C88 C83 1.373 . S
C88 C87 1.396 . S
C88 H115 0.929 . S
C89 O102 1.240 . S
C89 O103 1.289 . S
C90 O104 1.258 . S
C90 O105 1.256 . S
C91 La81 2.928 1_655 S
C91 C92 1.503 . S
C91 O106 1.261 1_655 S
C91 O107 1.242 . S
C92 C91 1.503 . S
C92 C93 1.394 . S
C92 C97 1.373 . S
C93 C92 1.394 . S
C93 C94 1.380 . S
C93 H116 0.930 . S
C94 C93 1.380 . S
C94 C95 1.376 . S
C94 H117 0.930 . S
C95 C94 1.376 . S
C95 C96 1.370 . S
C96 C95 1.370 . S
C96 C97 1.396 . S
C96 H118 0.929 . S
C97 C92 1.373 . S
C97 C96 1.396 . S
C97 H119 0.929 . S
C98 O108 1.240 . S
C98 O109 1.289 . S
C99 O110 1.258 . S
C99 O111 1.256 . S
O100 La80 2.521 . S
O100 C82 1.261 . S
O101 La80 2.628 . S
O101 C82 1.243 . S
O102 La80 2.554 . S
O102 C89 1.240 . S
O103 La80 2.757 . S
O103 La81 2.482 . S
O103 C89 1.289 . S
O104 La80 2.470 . S
O104 C90 1.258 . S
O105 La81 2.503 . S
O105 C90 1.256 . S
O106 La81 2.521 . S
O106 C91 1.261 1_455 S
O107 La81 2.620 1_655 S
O107 C91 1.242 . S
O108 La81 2.554 . S
O108 C98 1.240 . S
O109 La80 2.482 . S
O109 La81 2.757 . S
O109 C98 1.289 . S
O110 La81 2.470 1_655 S
O110 C99 1.258 . S
O111 La80 2.503 1_655 S
O111 C99 1.256 . S
H112 C84 0.930 . S
H113 C85 0.930 . S
H114 C87 0.929 . S
H115 C88 0.929 . S
H116 C93 0.930 . S
H117 C94 0.930 . S
H118 C96 0.929 . S
H119 C97 0.929 . S
La120 C122 2.928 1_655 S
La120 O140 2.521 . S
La120 O141 2.620 1_655 S
La120 O142 2.554 . S
La120 O143 2.757 . S
La120 O144 2.470 1_655 S
La120 O149 2.482 . S
La120 O151 2.503 . S
La121 C131 2.928 . S
La121 O143 2.482 . S
La121 O145 2.503 1_655 S
La121 O146 2.521 . S
La121 O147 2.628 . S
La121 O148 2.554 . S
La121 O149 2.757 . S
La121 O150 2.470 . S
C122 La120 2.928 1_455 S
C122 C123 1.503 . S
C122 O140 1.261 1_455 S
C122 O141 1.242 . S
C123 C122 1.503 . S
C123 C124 1.394 . S
C123 C128 1.373 . S
C124 C123 1.394 . S
C124 C125 1.380 . S
C124 H152 0.930 . S
C125 C124 1.380 . S
C125 C126 1.376 . S
C125 H153 0.930 . S
C126 C125 1.376 . S
C126 C127 1.370 . S
C127 C126 1.370 . S
C127 C128 1.396 . S
C127 H154 0.929 . S
C128 C123 1.373 . S
C128 C127 1.396 . S
C128 H155 0.929 . S
C129 O142 1.240 . S
C129 O143 1.289 . S
C130 O144 1.258 . S
C130 O145 1.256 . S
C131 La121 2.928 . S
C131 C132 1.503 . S
C131 O146 1.261 . S
C131 O147 1.243 . S
C132 C131 1.503 . S
C132 C133 1.394 . S
C132 C137 1.373 . S
C133 C132 1.394 . S
C133 C134 1.380 . S
C133 H156 0.930 . S
C134 C133 1.380 . S
C134 C135 1.376 . S
C134 H157 0.930 . S
C135 C134 1.376 . S
C135 C136 1.370 . S
C136 C135 1.370 . S
C136 C137 1.396 . S
C136 H158 0.929 . S
C137 C132 1.373 . S
C137 C136 1.396 . S
C137 H159 0.929 . S
C138 O148 1.240 . S
C138 O149 1.289 . S
C139 O150 1.258 . S
C139 O151 1.256 . S
O140 La120 2.521 . S
O140 C122 1.261 1_655 S
O141 La120 2.620 1_455 S
O141 C122 1.242 . S
O142 La120 2.554 . S
O142 C129 1.240 . S
O143 La120 2.757 . S
O143 La121 2.482 . S
O143 C129 1.289 . S
O144 La120 2.470 1_455 S
O144 C130 1.258 . S
O145 La121 2.503 1_455 S
O145 C130 1.256 . S
O146 La121 2.521 . S
O146 C131 1.261 . S
O147 La121 2.628 . S
O147 C131 1.243 . S
O148 La121 2.554 . S
O148 C138 1.240 . S
O149 La120 2.482 . S
O149 La121 2.757 . S
O149 C138 1.289 . S
O150 La121 2.470 . S
O150 C139 1.258 . S
O151 La120 2.503 . S
O151 C139 1.256 . S
H152 C124 0.930 . S
H153 C125 0.930 . S
H154 C127 0.929 . S
H155 C128 0.929 . S
H156 C133 0.930 . S
H157 C134 0.930 . S
H158 C136 0.929 . S
H159 C137 0.929 . S
La160 C162 2.928 . S
La160 O180 2.521 . S
La160 O181 2.628 1_554 S
La160 O182 2.554 . S
La160 O183 2.757 . S
La160 O184 2.470 . S
La160 O189 2.482 1_554 S
La160 O191 2.503 . S
La161 C171 2.928 . S
La161 O183 2.482 . S
La161 O185 2.503 . S
La161 O186 2.521 1_554 S
La161 O187 2.628 . S
La161 O188 2.554 1_554 S
La161 O189 2.757 1_554 S
La161 O190 2.470 1_554 S
C162 La160 2.928 . S
C162 C163 1.503 . S
C162 O180 1.261 . S
C162 O181 1.243 1_554 S
C163 C162 1.503 . S
C163 C164 1.394 . S
C163 C168 1.373 1_554 S
C164 C163 1.394 . S
C164 C165 1.380 . S
C164 H192 0.930 . S
C165 C164 1.380 . S
C165 C166 1.376 . S
C165 H193 0.930 . S
C166 C165 1.376 . S
C166 C167 1.370 1_554 S
C167 C166 1.370 1_556 S
C167 C168 1.396 . S
C167 H194 0.929 . S
C168 C163 1.373 1_556 S
C168 C167 1.396 . S
C168 H195 0.929 . S
C169 O182 1.240 . S
C169 O183 1.289 . S
C170 O184 1.258 . S
C170 O185 1.256 . S
C171 La161 2.928 . S
C171 C172 1.503 . S
C171 O186 1.261 1_554 S
C171 O187 1.243 . S
C172 C171 1.503 . S
C172 C173 1.394 1_554 S
C172 C177 1.373 . S
C173 C172 1.394 1_556 S
C173 C174 1.380 . S
C173 H196 0.930 . S
C174 C173 1.380 . S
C174 C175 1.376 1_556 S
C174 H197 0.930 . S
C175 C174 1.376 1_554 S
C175 C176 1.370 . S
C176 C175 1.370 . S
C176 C177 1.396 . S
C176 H198 0.929 . S
C177 C172 1.373 . S
C177 C176 1.396 . S
C177 H199 0.929 . S
C178 O188 1.240 . S
C178 O189 1.289 . S
C179 O190 1.258 1_554 S
C179 O191 1.256 . S
O180 La160 2.521 . S
O180 C162 1.261 . S
O181 La160 2.628 1_556 S
O181 C162 1.243 1_556 S
O182 La160 2.554 . S
O182 C169 1.240 . S
O183 La160 2.757 . S
O183 La161 2.482 . S
O183 C169 1.289 . S
O184 La160 2.470 . S
O184 C170 1.258 . S
O185 La161 2.503 . S
O185 C170 1.256 . S
O186 La161 2.521 1_556 S
O186 C171 1.261 1_556 S
O187 La161 2.628 . S
O187 C171 1.243 . S
O188 La161 2.554 1_556 S
O188 C178 1.240 . S
O189 La160 2.482 1_556 S
O189 La161 2.757 1_556 S
O189 C178 1.289 . S
O190 La161 2.470 1_556 S
O190 C179 1.258 1_556 S
O191 La160 2.503 . S
O191 C179 1.256 . S
H192 C164 0.930 . S
H193 C165 0.930 . S
H194 C167 0.929 . S
H195 C168 0.929 . S
H196 C173 0.930 . S
H197 C174 0.930 . S
H198 C176 0.929 . S
H199 C177 0.929 . S
La200 C202 2.928 . S
La200 O220 2.521 . S
La200 O221 2.628 1_554 S
La200 O222 2.554 . S
La200 O223 2.757 . S
La200 O224 2.470 . S
La200 O229 2.482 1_554 S
La200 O231 2.503 . S
La201 C211 2.928 . S
La201 O223 2.482 . S
La201 O225 2.503 . S
La201 O226 2.521 1_554 S
La201 O227 2.628 . S
La201 O228 2.554 1_554 S
La201 O229 2.757 1_554 S
La201 O230 2.470 1_554 S
C202 La200 2.928 . S
C202 C203 1.503 . S
C202 O220 1.261 . S
C202 O221 1.243 1_554 S
C203 C202 1.503 . S
C203 C204 1.394 . S
C203 C208 1.373 1_554 S
C204 C203 1.394 . S
C204 C205 1.380 . S
C204 H232 0.930 . S
C205 C204 1.380 . S
C205 C206 1.376 . S
C205 H233 0.930 . S
C206 C205 1.376 . S
C206 C207 1.370 1_554 S
C207 C206 1.370 1_556 S
C207 C208 1.396 . S
C207 H234 0.929 . S
C208 C203 1.373 1_556 S
C208 C207 1.396 . S
C208 H235 0.929 . S
C209 O222 1.240 . S
C209 O223 1.289 . S
C210 O224 1.258 . S
C210 O225 1.256 . S
C211 La201 2.928 . S
C211 C212 1.503 . S
C211 O226 1.261 1_554 S
C211 O227 1.243 . S
C212 C211 1.503 . S
C212 C213 1.394 1_554 S
C212 C217 1.373 . S
C213 C212 1.394 1_556 S
C213 C214 1.380 . S
C213 H236 0.930 . S
C214 C213 1.380 . S
C214 C215 1.376 1_556 S
C214 H237 0.930 . S
C215 C214 1.376 1_554 S
C215 C216 1.370 . S
C216 C215 1.370 . S
C216 C217 1.396 . S
C216 H238 0.929 . S
C217 C212 1.373 . S
C217 C216 1.396 . S
C217 H239 0.929 . S
C218 O228 1.240 . S
C218 O229 1.289 . S
C219 O230 1.258 1_554 S
C219 O231 1.256 . S
O220 La200 2.521 . S
O220 C202 1.261 . S
O221 La200 2.628 1_556 S
O221 C202 1.243 1_556 S
O222 La200 2.554 . S
O222 C209 1.240 . S
O223 La200 2.757 . S
O223 La201 2.482 . S
O223 C209 1.289 . S
O224 La200 2.470 . S
O224 C210 1.258 . S
O225 La201 2.503 . S
O225 C210 1.256 . S
O226 La201 2.521 1_556 S
O226 C211 1.261 1_556 S
O227 La201 2.628 . S
O227 C211 1.243 . S
O228 La201 2.554 1_556 S
O228 C218 1.240 . S
O229 La200 2.482 1_556 S
O229 La201 2.757 1_556 S
O229 C218 1.289 . S
O230 La201 2.470 1_556 S
O230 C219 1.258 1_556 S
O231 La200 2.503 . S
O231 C219 1.256 . S
H232 C204 0.930 . S
H233 C205 0.930 . S
H234 C207 0.929 . S
H235 C208 0.929 . S
H236 C213 0.930 . S
H237 C214 0.930 . S
H238 C216 0.929 . S
H239 C217 0.929 . S
La240 C242 2.928 . S
La240 O260 2.521 . S
La240 O261 2.628 . S
La240 O262 2.554 . S
La240 O263 2.757 . S
La240 O264 2.470 . S
La240 O269 2.482 . S
La240 O271 2.503 . S
La241 C251 2.928 . S
La241 O263 2.482 . S
La241 O265 2.503 . S
La241 O266 2.521 . S
La241 O267 2.628 . S
La241 O268 2.554 . S
La241 O269 2.757 . S
La241 O270 2.470 . S
C242 La240 2.928 . S
C242 C243 1.503 . S
C242 O260 1.261 . S
C242 O261 1.243 . S
C243 C242 1.503 . S
C243 C244 1.394 . S
C243 C248 1.373 . S
C244 C243 1.394 . S
C244 C245 1.380 . S
C244 H272 0.930 . S
C245 C244 1.380 . S
C245 C246 1.376 . S
C245 H273 0.930 . S
C246 C245 1.376 . S
C246 C247 1.370 . S
C247 C246 1.370 . S
C247 C248 1.396 . S
C247 H274 0.929 . S
C248 C243 1.373 . S
C248 C247 1.396 . S
C248 H275 0.929 . S
C249 O262 1.240 . S
C249 O263 1.289 . S
C250 O264 1.258 . S
C250 O265 1.256 . S
C251 La241 2.928 . S
C251 C252 1.503 . S
C251 O266 1.261 . S
C251 O267 1.243 . S
C252 C251 1.503 . S
C252 C253 1.394 . S
C252 C257 1.373 . S
C253 C252 1.394 . S
C253 C254 1.380 . S
C253 H276 0.930 . S
C254 C253 1.380 . S
C254 C255 1.376 . S
C254 H277 0.930 . S
C255 C254 1.376 . S
C255 C256 1.370 . S
C256 C255 1.370 . S
C256 C257 1.396 . S
C256 H278 0.929 . S
C257 C252 1.373 . S
C257 C256 1.396 . S
C257 H279 0.929 . S
C258 O268 1.240 . S
C258 O269 1.289 . S
C259 O270 1.258 . S
C259 O271 1.256 . S
O260 La240 2.521 . S
O260 C242 1.261 . S
O261 La240 2.628 . S
O261 C242 1.243 . S
O262 La240 2.554 . S
O262 C249 1.240 . S
O263 La240 2.757 . S
O263 La241 2.482 . S
O263 C249 1.289 . S
O264 La240 2.470 . S
O264 C250 1.258 . S
O265 La241 2.503 . S
O265 C250 1.256 . S
O266 La241 2.521 . S
O266 C251 1.261 . S
O267 La241 2.628 . S
O267 C251 1.243 . S
O268 La241 2.554 . S
O268 C258 1.240 . S
O269 La240 2.482 . S
O269 La241 2.757 . S
O269 C258 1.289 . S
O270 La241 2.470 . S
O270 C259 1.258 . S
O271 La240 2.503 . S
O271 C259 1.256 . S
H272 C244 0.930 . S
H273 C245 0.930 . S
H274 C247 0.929 . S
H275 C248 0.929 . S
H276 C253 0.930 . S
H277 C254 0.930 . S
H278 C256 0.929 . S
H279 C257 0.929 . S
La280 C282 2.928 . S
La280 O300 2.521 . S
La280 O301 2.628 . S
La280 O302 2.554 . S
La280 O303 2.757 . S
La280 O304 2.470 . S
La280 O309 2.482 . S
La280 O311 2.503 . S
La281 C291 2.928 . S
La281 O303 2.482 . S
La281 O305 2.503 . S
La281 O306 2.521 . S
La281 O307 2.628 . S
La281 O308 2.554 . S
La281 O309 2.757 . S
La281 O310 2.470 . S
C282 La280 2.928 . S
C282 C283 1.503 . S
C282 O300 1.261 . S
C282 O301 1.243 . S
C283 C282 1.503 . S
C283 C284 1.394 . S
C283 C288 1.373 . S
C284 C283 1.394 . S
C284 C285 1.380 . S
C284 H312 0.930 . S
C285 C284 1.380 . S
C285 C286 1.376 . S
C285 H313 0.930 . S
C286 C285 1.376 . S
C286 C287 1.370 . S
C287 C286 1.370 . S
C287 C288 1.396 . S
C287 H314 0.929 . S
C288 C283 1.373 . S
C288 C287 1.396 . S
C288 H315 0.929 . S
C289 O302 1.240 . S
C289 O303 1.289 . S
C290 O304 1.258 . S
C290 O305 1.256 . S
C291 La281 2.928 . S
C291 C292 1.503 . S
C291 O306 1.261 . S
C291 O307 1.243 . S
C292 C291 1.503 . S
C292 C293 1.394 . S
C292 C297 1.373 . S
C293 C292 1.394 . S
C293 C294 1.380 . S
C293 H316 0.930 . S
C294 C293 1.380 . S
C294 C295 1.376 . S
C294 H317 0.930 . S
C295 C294 1.376 . S
C295 C296 1.370 . S
C296 C295 1.370 . S
C296 C297 1.396 . S
C296 H318 0.929 . S
C297 C292 1.373 . S
C297 C296 1.396 . S
C297 H319 0.929 . S
C298 O308 1.240 . S
C298 O309 1.289 . S
C299 O310 1.258 . S
C299 O311 1.256 . S
O300 La280 2.521 . S
O300 C282 1.261 . S
O301 La280 2.628 . S
O301 C282 1.243 . S
O302 La280 2.554 . S
O302 C289 1.240 . S
O303 La280 2.757 . S
O303 La281 2.482 . S
O303 C289 1.289 . S
O304 La280 2.470 . S
O304 C290 1.258 . S
O305 La281 2.503 . S
O305 C290 1.256 . S
O306 La281 2.521 . S
O306 C291 1.261 . S
O307 La281 2.628 . S
O307 C291 1.243 . S
O308 La281 2.554 . S
O308 C298 1.240 . S
O309 La280 2.482 . S
O309 La281 2.757 . S
O309 C298 1.289 . S
O310 La281 2.470 . S
O310 C299 1.258 . S
O311 La280 2.503 . S
O311 C299 1.256 . S
H312 C284 0.930 . S
H313 C285 0.930 . S
H314 C287 0.929 . S
H315 C288 0.929 . S
H316 C293 0.930 . S
H317 C294 0.930 . S
H318 C296 0.929 . S
H319 C297 0.929 . S
C320 C321 1.391 . S
C320 C322 1.394 . S
C320 H336 0.931 . S
C321 C320 1.391 . S
C321 C325 1.376 1_554 S
C322 C320 1.394 . S
C322 C323 1.369 . S
C322 C326 1.531 . S
C323 C322 1.369 . S
C323 C324 1.410 1_554 S
C323 C331 1.503 . S
C324 C323 1.410 1_556 S
C324 C325 1.392 . S
C324 C327 1.511 . S
C325 C321 1.376 1_556 S
C325 C324 1.392 . S
C325 H337 0.929 . S
C326 C322 1.531 . S
C326 H338 0.960 . S
C326 H339 0.962 . S
C326 H340 0.960 . S
C327 C324 1.511 . S
C327 H341 0.961 . S
C327 H342 0.961 . S
C327 H343 0.961 . S
C328 C329 1.370 1_556 S
C328 C330 1.363 . S
C328 H344 0.931 . S
C329 C328 1.370 1_554 S
C329 C333 1.408 . S
C330 C328 1.363 . S
C330 C331 1.370 1_556 S
C330 C334 1.524 . S
C331 C323 1.503 . S
C331 C330 1.370 1_554 S
C331 C332 1.403 . S
C332 C331 1.403 . S
C332 C333 1.404 . S
C332 C335 1.539 . S
C333 C329 1.408 . S
C333 C332 1.404 . S
C333 H345 0.930 . S
C334 C330 1.524 . S
C334 H346 0.956 . S
C334 H347 0.961 . S
C334 H348 0.961 . S
C335 C332 1.539 . S
C335 H349 0.958 . S
C335 H350 0.961 . S
C335 H351 0.960 . S
H336 C320 0.931 . S
H337 C325 0.929 . S
H338 C326 0.960 . S
H339 C326 0.962 . S
H340 C326 0.960 . S
H341 C327 0.961 . S
H342 C327 0.961 . S
H343 C327 0.961 . S
H344 C328 0.931 . S
H345 C333 0.930 . S
H346 C334 0.956 . S
H347 C334 0.961 . S
H348 C334 0.961 . S
H349 C335 0.958 . S
H350 C335 0.961 . S
H351 C335 0.960 . S
C352 C353 1.391 . S
C352 C354 1.394 . S
C352 H368 0.931 . S
C353 C352 1.391 . S
C353 C357 1.376 1_554 S
C354 C352 1.394 . S
C354 C355 1.369 . S
C354 C358 1.531 . S
C355 C354 1.369 . S
C355 C356 1.410 1_554 S
C355 C363 1.503 . S
C356 C355 1.410 1_556 S
C356 C357 1.392 . S
C356 C359 1.511 . S
C357 C353 1.376 1_556 S
C357 C356 1.392 . S
C357 H369 0.929 . S
C358 C354 1.531 . S
C358 H370 0.960 . S
C358 H371 0.962 . S
C358 H372 0.960 . S
C359 C356 1.511 . S
C359 H373 0.961 . S
C359 H374 0.961 . S
C359 H375 0.961 . S
C360 C361 1.370 1_556 S
C360 C362 1.363 . S
C360 H376 0.931 . S
C361 C360 1.370 1_554 S
C361 C365 1.408 . S
C362 C360 1.363 . S
C362 C363 1.370 1_556 S
C362 C366 1.524 . S
C363 C355 1.503 . S
C363 C362 1.370 1_554 S
C363 C364 1.403 . S
C364 C363 1.403 . S
C364 C365 1.404 . S
C364 C367 1.539 . S
C365 C361 1.408 . S
C365 C364 1.404 . S
C365 H377 0.930 . S
C366 C362 1.524 . S
C366 H378 0.956 . S
C366 H379 0.961 . S
C366 H380 0.961 . S
C367 C364 1.539 . S
C367 H381 0.958 . S
C367 H382 0.961 . S
C367 H383 0.960 . S
H368 C352 0.931 . S
H369 C357 0.929 . S
H370 C358 0.960 . S
H371 C358 0.962 . S
H372 C358 0.960 . S
H373 C359 0.961 . S
H374 C359 0.961 . S
H375 C359 0.961 . S
H376 C360 0.931 . S
H377 C365 0.930 . S
H378 C366 0.956 . S
H379 C366 0.961 . S
H380 C366 0.961 . S
H381 C367 0.958 . S
H382 C367 0.961 . S
H383 C367 0.960 . S
C384 C385 1.391 . S
C384 C386 1.394 . S
C384 H400 0.931 . S
C385 C384 1.391 . S
C385 C389 1.376 . S
C386 C384 1.394 . S
C386 C387 1.369 . S
C386 C390 1.531 . S
C387 C386 1.369 . S
C387 C388 1.410 . S
C387 C395 1.503 . S
C388 C387 1.410 . S
C388 C389 1.392 . S
C388 C391 1.511 . S
C389 C385 1.376 . S
C389 C388 1.392 . S
C389 H401 0.929 . S
C390 C386 1.531 . S
C390 H402 0.960 . S
C390 H403 0.962 . S
C390 H404 0.960 . S
C391 C388 1.511 . S
C391 H405 0.961 . S
C391 H406 0.961 . S
C391 H407 0.961 . S
C392 C393 1.370 . S
C392 C394 1.363 . S
C392 H408 0.931 . S
C393 C392 1.370 . S
C393 C397 1.408 . S
C394 C392 1.363 . S
C394 C395 1.370 . S
C394 C398 1.524 . S
C395 C387 1.503 . S
C395 C394 1.370 . S
C395 C396 1.403 . S
C396 C395 1.403 . S
C396 C397 1.404 . S
C396 C399 1.539 . S
C397 C393 1.408 . S
C397 C396 1.404 . S
C397 H409 0.930 . S
C398 C394 1.524 . S
C398 H410 0.956 . S
C398 H411 0.961 . S
C398 H412 0.961 . S
C399 C396 1.539 . S
C399 H413 0.958 . S
C399 H414 0.961 . S
C399 H415 0.960 . S
H400 C384 0.931 . S
H401 C389 0.929 . S
H402 C390 0.960 . S
H403 C390 0.962 . S
H404 C390 0.960 . S
H405 C391 0.961 . S
H406 C391 0.961 . S
H407 C391 0.961 . S
H408 C392 0.931 . S
H409 C397 0.930 . S
H410 C398 0.956 . S
H411 C398 0.961 . S
H412 C398 0.961 . S
H413 C399 0.958 . S
H414 C399 0.961 . S
H415 C399 0.960 . S
C416 C417 1.391 . S
C416 C418 1.394 . S
C416 H432 0.931 . S
C417 C416 1.391 . S
C417 C421 1.376 . S
C418 C416 1.394 . S
C418 C419 1.369 . S
C418 C422 1.531 . S
C419 C418 1.369 . S
C419 C420 1.410 . S
C419 C427 1.503 . S
C420 C419 1.410 . S
C420 C421 1.392 . S
C420 C423 1.511 . S
C421 C417 1.376 . S
C421 C420 1.392 . S
C421 H433 0.929 . S
C422 C418 1.531 . S
C422 H434 0.960 . S
C422 H435 0.962 . S
C422 H436 0.960 . S
C423 C420 1.511 . S
C423 H437 0.961 . S
C423 H438 0.961 . S
C423 H439 0.961 . S
C424 C425 1.370 . S
C424 C426 1.363 . S
C424 H440 0.931 . S
C425 C424 1.370 . S
C425 C429 1.408 . S
C426 C424 1.363 . S
C426 C427 1.370 . S
C426 C430 1.524 . S
C427 C419 1.503 . S
C427 C426 1.370 . S
C427 C428 1.403 . S
C428 C427 1.403 . S
C428 C429 1.404 . S
C428 C431 1.539 . S
C429 C425 1.408 . S
C429 C428 1.404 . S
C429 H441 0.930 . S
C430 C426 1.524 . S
C430 H442 0.956 . S
C430 H443 0.961 . S
C430 H444 0.961 . S
C431 C428 1.539 . S
C431 H445 0.958 . S
C431 H446 0.961 . S
C431 H447 0.960 . S
H432 C416 0.931 . S
H433 C421 0.929 . S
H434 C422 0.960 . S
H435 C422 0.962 . S
H436 C422 0.960 . S
H437 C423 0.961 . S
H438 C423 0.961 . S
H439 C423 0.961 . S
H440 C424 0.931 . S
H441 C429 0.930 . S
H442 C430 0.956 . S
H443 C430 0.961 . S
H444 C430 0.961 . S
H445 C431 0.958 . S
H446 C431 0.961 . S
H447 C431 0.960 . S
C448 C449 1.391 1_556 S
C448 C450 1.394 . S
C448 H464 0.931 . S
C449 C448 1.391 1_554 S
C449 C453 1.376 . S
C450 C448 1.394 . S
C450 C451 1.369 1_656 S
C450 C454 1.531 1_655 S
C451 C450 1.369 1_454 S
C451 C452 1.410 1_455 S
C451 C459 1.503 . S
C452 C451 1.410 1_655 S
C452 C453 1.392 . S
C452 C455 1.511 . S
C453 C449 1.376 . S
C453 C452 1.392 . S
C453 H465 0.929 . S
C454 C450 1.531 1_455 S
C454 H466 0.960 . S
C454 H467 0.962 . S
C454 H468 0.960 . S
C455 C452 1.511 . S
C455 H469 0.961 . S
C455 H470 0.961 1_655 S
C455 H471 0.961 . S
C456 C457 1.370 . S
C456 C458 1.363 . S
C456 H472 0.931 . S
C457 C456 1.370 . S
C457 C461 1.408 . S
C458 C456 1.363 . S
C458 C459 1.370 . S
C458 C462 1.524 . S
C459 C451 1.503 . S
C459 C458 1.370 . S
C459 C460 1.403 . S
C460 C459 1.403 . S
C460 C461 1.404 . S
C460 C463 1.539 . S
C461 C457 1.408 . S
C461 C460 1.404 . S
C461 H473 0.930 . S
C462 C458 1.524 . S
C462 H474 0.956 1_554 S
C462 H475 0.961 . S
C462 H476 0.961 . S
C463 C460 1.539 . S
C463 H477 0.958 1_554 S
C463 H478 0.961 . S
C463 H479 0.960 . S
H464 C448 0.931 . S
H465 C453 0.929 . S
H466 C454 0.960 . S
H467 C454 0.962 . S
H468 C454 0.960 . S
H469 C455 0.961 . S
H470 C455 0.961 1_455 S
H471 C455 0.961 . S
H472 C456 0.931 . S
H473 C461 0.930 . S
H474 C462 0.956 1_556 S
H475 C462 0.961 . S
H476 C462 0.961 . S
H477 C463 0.958 1_556 S
H478 C463 0.961 . S
H479 C463 0.960 . S
C480 C481 1.391 . S
C480 C482 1.394 . S
C480 H496 0.931 . S
C481 C480 1.391 . S
C481 C485 1.376 1_554 S
C482 C480 1.394 . S
C482 C483 1.369 1_455 S
C482 C486 1.531 1_455 S
C483 C482 1.369 1_655 S
C483 C484 1.410 1_654 S
C483 C491 1.503 . S
C484 C483 1.410 1_456 S
C484 C485 1.392 . S
C484 C487 1.511 1_455 S
C485 C481 1.376 1_556 S
C485 C484 1.392 . S
C485 H497 0.929 . S
C486 C482 1.531 1_655 S
C486 H498 0.960 . S
C486 H499 0.962 . S
C486 H500 0.960 . S
C487 C484 1.511 1_655 S
C487 H501 0.961 1_655 S
C487 H502 0.961 . S
C487 H503 0.961 . S
C488 C489 1.370 . S
C488 C490 1.363 . S
C488 H504 0.931 . S
C489 C488 1.370 . S
C489 C493 1.408 . S
C490 C488 1.363 . S
C490 C491 1.370 . S
C490 C494 1.524 . S
C491 C483 1.503 . S
C491 C490 1.370 . S
C491 C492 1.403 . S
C492 C491 1.403 . S
C492 C493 1.404 . S
C492 C495 1.539 . S
C493 C489 1.408 . S
C493 C492 1.404 . S
C493 H505 0.930 . S
C494 C490 1.524 . S
C494 H506 0.956 . S
C494 H507 0.961 1_554 S
C494 H508 0.961 . S
C495 C492 1.539 . S
C495 H509 0.958 . S
C495 H510 0.961 1_554 S
C495 H511 0.960 1_554 S
H496 C480 0.931 . S
H497 C485 0.929 . S
H498 C486 0.960 . S
H499 C486 0.962 . S
H500 C486 0.960 . S
H501 C487 0.961 1_455 S
H502 C487 0.961 . S
H503 C487 0.961 . S
H504 C488 0.931 . S
H505 C493 0.930 . S
H506 C494 0.956 . S
H507 C494 0.961 1_556 S
H508 C494 0.961 . S
H509 C495 0.958 . S
H510 C495 0.961 1_556 S
H511 C495 0.960 1_556 S
C512 C513 1.391 . S
C512 C514 1.394 . S
C512 H528 0.931 . S
C513 C512 1.391 . S
C513 C517 1.376 . S
C514 C512 1.394 . S
C514 C515 1.369 . S
C514 C518 1.531 . S
C515 C514 1.369 . S
C515 C516 1.410 . S
C515 C523 1.503 . S
C516 C515 1.410 . S
C516 C517 1.392 . S
C516 C519 1.511 . S
C517 C513 1.376 . S
C517 C516 1.392 . S
C517 H529 0.929 . S
C518 C514 1.531 . S
C518 H530 0.960 . S
C518 H531 0.962 . S
C518 H532 0.960 . S
C519 C516 1.511 . S
C519 H533 0.961 . S
C519 H534 0.961 . S
C519 H535 0.961 . S
C520 C521 1.370 . S
C520 C522 1.363 . S
C520 H536 0.931 . S
C521 C520 1.370 . S
C521 C525 1.408 . S
C522 C520 1.363 . S
C522 C523 1.370 1_655 S
C522 C526 1.524 1_655 S
C523 C515 1.503 . S
C523 C522 1.370 1_455 S
C523 C524 1.403 1_455 S
C524 C523 1.403 1_655 S
C524 C525 1.404 . S
C524 C527 1.539 1_655 S
C525 C521 1.408 . S
C525 C524 1.404 . S
C525 H537 0.930 . S
C526 C522 1.524 1_455 S
C526 H538 0.956 . S
C526 H539 0.961 . S
C526 H540 0.961 1_455 S
C527 C524 1.539 1_455 S
C527 H541 0.958 . S
C527 H542 0.961 . S
C527 H543 0.960 . S
H528 C512 0.931 . S
H529 C517 0.929 . S
H530 C518 0.960 . S
H531 C518 0.962 . S
H532 C518 0.960 . S
H533 C519 0.961 . S
H534 C519 0.961 . S
H535 C519 0.961 . S
H536 C520 0.931 . S
H537 C525 0.930 . S
H538 C526 0.956 . S
H539 C526 0.961 . S
H540 C526 0.961 1_655 S
H541 C527 0.958 . S
H542 C527 0.961 . S
H543 C527 0.960 . S
C544 C545 1.391 . S
C544 C546 1.394 . S
C544 H560 0.931 . S
C545 C544 1.391 . S
C545 C549 1.376 . S
C546 C544 1.394 . S
C546 C547 1.369 . S
C546 C550 1.531 . S
C547 C546 1.369 . S
C547 C548 1.410 . S
C547 C555 1.503 . S
C548 C547 1.410 . S
C548 C549 1.392 . S
C548 C551 1.511 . S
C549 C545 1.376 . S
C549 C548 1.392 . S
C549 H561 0.929 . S
C550 C546 1.531 . S
C550 H562 0.960 . S
C550 H563 0.962 . S
C550 H564 0.960 . S
C551 C548 1.511 . S
C551 H565 0.961 . S
C551 H566 0.961 . S
C551 H567 0.961 . S
C552 C553 1.370 . S
C552 C554 1.363 . S
C552 H568 0.931 . S
C553 C552 1.370 . S
C553 C557 1.408 . S
C554 C552 1.363 . S
C554 C555 1.370 1_455 S
C554 C558 1.524 1_455 S
C555 C547 1.503 . S
C555 C554 1.370 1_655 S
C555 C556 1.403 1_655 S
C556 C555 1.403 1_455 S
C556 C557 1.404 . S
C556 C559 1.539 1_455 S
C557 C553 1.408 . S
C557 C556 1.404 . S
C557 H569 0.930 . S
C558 C554 1.524 1_655 S
C558 H570 0.956 . S
C558 H571 0.961 . S
C558 H572 0.961 1_655 S
C559 C556 1.539 1_655 S
C559 H573 0.958 . S
C559 H574 0.961 . S
C559 H575 0.960 . S
H560 C544 0.931 . S
H561 C549 0.929 . S
H562 C550 0.960 . S
H563 C550 0.962 . S
H564 C550 0.960 . S
H565 C551 0.961 . S
H566 C551 0.961 . S
H567 C551 0.961 . S
H568 C552 0.931 . S
H569 C557 0.930 . S
H570 C558 0.956 . S
H571 C558 0.961 . S
H572 C558 0.961 1_455 S
H573 C559 0.958 . S
H574 C559 0.961 . S
H575 C559 0.960 . S
C576 C577 1.391 1_556 S
C576 C578 1.394 . S
C576 H592 0.931 . S
C577 C576 1.391 1_554 S
C577 C581 1.376 . S
C578 C576 1.394 . S
C578 C579 1.369 1_556 S
C578 C582 1.531 . S
C579 C578 1.369 1_554 S
C579 C580 1.410 . S
C579 C587 1.503 1_455 S
C580 C579 1.410 . S
C580 C581 1.392 . S
C580 C583 1.511 . S
C581 C577 1.376 . S
C581 C580 1.392 . S
C581 H593 0.929 . S
C582 C578 1.531 . S
C582 H594 0.960 . S
C582 H595 0.962 . S
C582 H596 0.960 . S
C583 C580 1.511 . S
C583 H597 0.961 1_455 S
C583 H598 0.961 1_455 S
C583 H599 0.961 . S
C584 C585 1.370 . S
C584 C586 1.363 . S
C584 H600 0.931 . S
C585 C584 1.370 . S
C585 C589 1.408 . S
C586 C584 1.363 . S
C586 C587 1.370 . S
C586 C590 1.524 . S
C587 C579 1.503 1_655 S
C587 C586 1.370 . S
C587 C588 1.403 1_655 S
C588 C587 1.403 1_455 S
C588 C589 1.404 1_455 S
C588 C591 1.539 . S
C589 C585 1.408 . S
C589 C588 1.404 1_655 S
C589 H601 0.930 1_655 S
C590 C586 1.524 . S
C590 H602 0.956 1_554 S
C590 H603 0.961 . S
C590 H604 0.961 . S
C591 C588 1.539 . S
C591 H605 0.958 1_554 S
C591 H606 0.961 . S
C591 H607 0.960 . S
H592 C576 0.931 . S
H593 C581 0.929 . S
H594 C582 0.960 . S
H595 C582 0.962 . S
H596 C582 0.960 . S
H597 C583 0.961 1_655 S
H598 C583 0.961 1_655 S
H599 C583 0.961 . S
H600 C584 0.931 . S
H601 C589 0.930 1_455 S
H602 C590 0.956 1_556 S
H603 C590 0.961 . S
H604 C590 0.961 . S
H605 C591 0.958 1_556 S
H606 C591 0.961 . S
H607 C591 0.960 . S
C608 C609 1.391 . S
C608 C610 1.394 . S
C608 H624 0.931 . S
C609 C608 1.391 . S
C609 C613 1.376 . S
C610 C608 1.394 . S
C610 C611 1.369 . S
C610 C614 1.531 . S
C611 C610 1.369 . S
C611 C612 1.410 1_455 S
C611 C619 1.503 1_455 S
C612 C611 1.410 1_655 S
C612 C613 1.392 1_655 S
C612 C615 1.511 . S
C613 C609 1.376 . S
C613 C612 1.392 1_455 S
C613 H625 0.929 1_455 S
C614 C610 1.531 . S
C614 H626 0.960 . S
C614 H627 0.962 . S
C614 H628 0.960 . S
C615 C612 1.511 . S
C615 H629 0.961 . S
C615 H630 0.961 . S
C615 H631 0.961 . S
C616 C617 1.370 . S
C616 C618 1.363 . S
C616 H632 0.931 . S
C617 C616 1.370 . S
C617 C621 1.408 . S
C618 C616 1.363 . S
C618 C619 1.370 . S
C618 C622 1.524 . S
C619 C611 1.503 1_655 S
C619 C618 1.370 . S
C619 C620 1.403 . S
C620 C619 1.403 . S
C620 C621 1.404 . S
C620 C623 1.539 1_655 S
C621 C617 1.408 . S
C621 C620 1.404 . S
C621 H633 0.930 . S
C622 C618 1.524 . S
C622 H634 0.956 . S
C622 H635 0.961 . S
C622 H636 0.961 . S
C623 C620 1.539 1_455 S
C623 H637 0.958 . S
C623 H638 0.961 . S
C623 H639 0.960 . S
H624 C608 0.931 . S
H625 C613 0.929 1_655 S
H626 C614 0.960 . S
H627 C614 0.962 . S
H628 C614 0.960 . S
H629 C615 0.961 . S
H630 C615 0.961 . S
H631 C615 0.961 . S
H632 C616 0.931 . S
H633 C621 0.930 . S
H634 C622 0.956 . S
H635 C622 0.961 . S
H636 C622 0.961 . S
H637 C623 0.958 . S
H638 C623 0.961 . S
H639 C623 0.960 . S
C640 C641 1.391 . S
C640 C642 1.394 . S
C640 H656 0.931 . S
C641 C640 1.391 . S
C641 C645 1.376 1_554 S
C642 C640 1.394 . S
C642 C643 1.369 . S
C642 C646 1.531 1_565 S
C643 C642 1.369 . S
C643 C644 1.410 1_554 S
C643 C651 1.503 1_565 S
C644 C643 1.410 1_556 S
C644 C645 1.392 . S
C644 C647 1.511 . S
C645 C641 1.376 1_556 S
C645 C644 1.392 . S
C645 H657 0.929 . S
C646 C642 1.531 1_545 S
C646 H658 0.960 . S
C646 H659 0.962 . S
C646 H660 0.960 1_545 S
C647 C644 1.511 . S
C647 H661 0.961 . S
C647 H662 0.961 . S
C647 H663 0.961 . S
C648 C649 1.370 1_556 S
C648 C650 1.363 . S
C648 H664 0.931 . S
C649 C648 1.370 1_554 S
C649 C653 1.408 . S
C650 C648 1.363 . S
C650 C651 1.370 1_556 S
C650 C654 1.524 . S
C651 C643 1.503 1_545 S
C651 C650 1.370 1_554 S
C651 C652 1.403 . S
C652 C651 1.403 . S
C652 C653 1.404 . S
C652 C655 1.539 1_545 S
C653 C649 1.408 . S
C653 C652 1.404 . S
C653 H665 0.930 . S
C654 C650 1.524 . S
C654 H666 0.956 . S
C654 H667 0.961 . S
C654 H668 0.961 . S
C655 C652 1.539 1_565 S
C655 H669 0.968 . S
C655 H670 0.962 . S
C655 H671 0.960 . S
H656 C640 0.931 . S
H657 C645 0.929 . S
H658 C646 0.960 . S
H659 C646 0.962 . S
H660 C646 0.960 1_565 S
H661 C647 0.961 . S
H662 C647 0.961 . S
H663 C647 0.961 . S
H664 C648 0.931 . S
H665 C653 0.930 . S
H666 C654 0.956 . S
H667 C654 0.961 . S
H668 C654 0.961 . S
H669 C655 0.968 . S
H670 C655 0.962 . S
H671 C655 0.960 . S
C672 C673 1.391 . S
C672 C674 1.394 . S
C672 H688 0.931 . S
C673 C672 1.391 . S
C673 C677 1.376 . S
C674 C672 1.394 . S
C674 C675 1.369 . S
C674 C678 1.491 1_545 S
C675 C674 1.369 . S
C675 C676 1.410 . S
C675 C683 1.503 1_545 S
C676 C675 1.410 . S
C676 C677 1.392 . S
C676 C679 1.511 . S
C677 C673 1.376 . S
C677 C676 1.392 . S
C677 H689 0.929 . S
C678 C674 1.491 1_565 S
C678 H690 0.992 . S
C678 H691 0.998 . S
C678 H692 0.936 1_565 S
C679 C676 1.511 . S
C679 H693 0.961 . S
C679 H694 0.961 . S
C679 H695 0.961 . S
C680 C681 1.370 . S
C680 C682 1.363 . S
C680 H696 0.931 . S
C681 C680 1.370 . S
C681 C685 1.408 . S
C682 C680 1.363 . S
C682 C683 1.370 . S
C682 C686 1.524 . S
C683 C675 1.503 1_565 S
C683 C682 1.370 . S
C683 C684 1.403 . S
C684 C683 1.403 . S
C684 C685 1.404 . S
C684 C687 1.539 1_565 S
C685 C681 1.408 . S
C685 C684 1.404 . S
C685 H697 0.930 . S
C686 C682 1.524 . S
C686 H698 0.956 . S
C686 H699 0.961 . S
C686 H700 0.961 . S
C687 C684 1.539 1_545 S
C687 H701 0.958 . S
C687 H702 0.969 . S
C687 H703 0.960 . S
H688 C672 0.931 . S
H689 C677 0.929 . S
H690 C678 0.992 . S
H691 C678 0.998 . S
H692 C678 0.936 1_545 S
H693 C679 0.961 . S
H694 C679 0.961 . S
H695 C679 0.961 . S
H696 C680 0.931 . S
H697 C685 0.930 . S
H698 C686 0.956 . S
H699 C686 0.961 . S
H700 C686 0.961 . S
H701 C687 0.958 . S
H702 C687 0.969 . S
H703 C687 0.960 . S
C704 C705 1.391 . S
C704 C706 1.394 . S
C704 H720 0.931 . S
C705 C704 1.391 . S
C705 C709 1.376 . S
C706 C704 1.394 . S
C706 C707 1.369 . S
C706 C710 1.531 . S
C707 C706 1.369 . S
C707 C708 1.410 . S
C707 C715 1.503 . S
C708 C707 1.410 . S
C708 C709 1.392 . S
C708 C711 1.511 1_554 S
C709 C705 1.376 . S
C709 C708 1.392 . S
C709 H721 0.929 1_554 S
C710 C706 1.531 . S
C710 H722 0.960 . S
C710 H723 0.962 . S
C710 H724 0.960 . S
C711 C708 1.511 1_556 S
C711 H725 0.961 . S
C711 H726 0.961 . S
C711 H727 0.961 1_556 S
C712 C713 1.370 1_556 S
C712 C714 1.363 . S
C712 H728 0.931 . S
C713 C712 1.370 1_554 S
C713 C717 1.408 . S
C714 C712 1.363 . S
C714 C715 1.370 1_556 S
C714 C718 1.524 . S
C715 C707 1.503 . S
C715 C714 1.370 1_554 S
C715 C716 1.403 . S
C716 C715 1.403 . S
C716 C717 1.404 . S
C716 C719 1.539 . S
C717 C713 1.408 . S
C717 C716 1.404 . S
C717 H729 0.930 . S
C718 C714 1.524 . S
C718 H730 0.956 . S
C718 H731 0.961 . S
C718 H732 0.961 . S
C719 C716 1.539 . S
C719 H733 0.958 . S
C719 H734 0.961 . S
C719 H735 0.960 . S
H720 C704 0.931 . S
H721 C709 0.929 1_556 S
H722 C710 0.960 . S
H723 C710 0.962 . S
H724 C710 0.960 . S
H725 C711 0.961 . S
H726 C711 0.961 . S
H727 C711 0.961 1_554 S
H728 C712 0.931 . S
H729 C717 0.930 . S
H730 C718 0.956 . S
H731 C718 0.961 . S
H732 C718 0.961 . S
H733 C719 0.958 . S
H734 C719 0.961 . S
H735 C719 0.960 . S
C736 C737 1.391 . S
C736 C738 1.394 . S
C736 H752 0.931 . S
C737 C736 1.391 . S
C737 C741 1.376 1_554 S
C738 C736 1.394 . S
C738 C739 1.369 . S
C738 C742 1.531 . S
C739 C738 1.369 . S
C739 C740 1.410 1_554 S
C739 C747 1.503 . S
C740 C739 1.410 1_556 S
C740 C741 1.392 . S
C740 C743 1.511 . S
C741 C737 1.376 1_556 S
C741 C740 1.392 . S
C741 H753 0.929 . S
C742 C738 1.531 . S
C742 H754 0.960 . S
C742 H755 0.962 . S
C742 H756 0.960 . S
C743 C740 1.511 . S
C743 H757 0.961 . S
C743 H758 0.961 . S
C743 H759 0.961 . S
C744 C745 1.370 . S
C744 C746 1.363 . S
C744 H760 0.931 . S
C745 C744 1.370 . S
C745 C749 1.408 1_554 S
C746 C744 1.363 . S
C746 C747 1.370 . S
C746 C750 1.524 . S
C747 C739 1.503 . S
C747 C746 1.370 . S
C747 C748 1.403 1_554 S
C748 C747 1.403 1_556 S
C748 C749 1.404 . S
C748 C751 1.539 . S
C749 C745 1.408 1_556 S
C749 C748 1.404 . S
C749 H761 0.930 . S
C750 C746 1.524 . S
C750 H762 0.956 . S
C750 H763 0.961 . S
C750 H764 0.961 . S
C751 C748 1.539 . S
C751 H765 0.958 . S
C751 H766 0.961 . S
C751 H767 0.960 . S
H752 C736 0.931 . S
H753 C741 0.929 . S
H754 C742 0.960 . S
H755 C742 0.962 . S
H756 C742 0.960 . S
H757 C743 0.961 . S
H758 C743 0.961 . S
H759 C743 0.961 . S
H760 C744 0.931 . S
H761 C749 0.930 . S
H762 C750 0.956 . S
H763 C750 0.961 . S
H764 C750 0.961 . S
H765 C751 0.958 . S
H766 C751 0.961 . S
H767 C751 0.960 . S
C768 C769 1.391 . S
C768 C770 1.394 . S
C768 H784 0.931 . S
C769 C768 1.391 . S
C769 C773 1.376 . S
C770 C768 1.394 . S
C770 C771 1.369 . S
C770 C774 1.531 . S
C771 C770 1.369 . S
C771 C772 1.410 . S
C771 C779 1.503 . S
C772 C771 1.410 . S
C772 C773 1.392 . S
C772 C775 1.511 . S
C773 C769 1.376 . S
C773 C772 1.392 . S
C773 H785 0.929 . S
C774 C770 1.531 . S
C774 H786 0.960 . S
C774 H787 0.962 . S
C774 H788 0.960 . S
C775 C772 1.511 . S
C775 H789 0.961 . S
C775 H790 0.961 . S
C775 H791 0.961 . S
C776 C777 1.370 . S
C776 C778 1.363 . S
C776 H792 0.931 . S
C777 C776 1.370 . S
C777 C781 1.408 . S
C778 C776 1.363 . S
C778 C779 1.370 . S
C778 C782 1.524 . S
C779 C771 1.503 . S
C779 C778 1.370 . S
C779 C780 1.403 . S
C780 C779 1.403 . S
C780 C781 1.404 . S
C780 C783 1.539 . S
C781 C777 1.408 . S
C781 C780 1.404 . S
C781 H793 0.930 . S
C782 C778 1.524 . S
C782 H794 0.956 . S
C782 H795 0.961 . S
C782 H796 0.961 . S
C783 C780 1.539 . S
C783 H797 0.958 . S
C783 H798 0.961 . S
C783 H799 0.960 . S
H784 C768 0.931 . S
H785 C773 0.929 . S
H786 C774 0.960 . S
H787 C774 0.962 . S
H788 C774 0.960 . S
H789 C775 0.961 . S
H790 C775 0.961 . S
H791 C775 0.961 . S
H792 C776 0.931 . S
H793 C781 0.930 . S
H794 C782 0.956 . S
H795 C782 0.961 . S
H796 C782 0.961 . S
H797 C783 0.958 . S
H798 C783 0.961 . S
H799 C783 0.960 . S
C800 C801 1.391 . S
C800 C802 1.394 . S
C800 H816 0.931 . S
C801 C800 1.391 . S
C801 C805 1.376 . S
C802 C800 1.394 . S
C802 C803 1.369 . S
C802 C806 1.531 . S
C803 C802 1.369 . S
C803 C804 1.410 . S
C803 C811 1.503 . S
C804 C803 1.410 . S
C804 C805 1.392 . S
C804 C807 1.511 . S
C805 C801 1.376 . S
C805 C804 1.392 . S
C805 H817 0.929 . S
C806 C802 1.531 . S
C806 H818 0.960 . S
C806 H819 0.962 . S
C806 H820 0.960 . S
C807 C804 1.511 . S
C807 H821 0.961 . S
C807 H822 0.961 . S
C807 H823 0.961 . S
C808 C809 1.370 . S
C808 C810 1.363 . S
C808 H824 0.931 . S
C809 C808 1.370 . S
C809 C813 1.408 . S
C810 C808 1.363 . S
C810 C811 1.370 . S
C810 C814 1.524 . S
C811 C803 1.503 . S
C811 C810 1.370 . S
C811 C812 1.403 . S
C812 C811 1.403 . S
C812 C813 1.404 . S
C812 C815 1.539 . S
C813 C809 1.408 . S
C813 C812 1.404 . S
C813 H825 0.930 . S
C814 C810 1.524 . S
C814 H826 0.956 . S
C814 H827 0.961 . S
C814 H828 0.961 . S
C815 C812 1.539 . S
C815 H829 0.958 . S
C815 H830 0.961 . S
C815 H831 0.960 . S
H816 C800 0.931 . S
H817 C805 0.929 . S
H818 C806 0.960 . S
H819 C806 0.962 . S
H820 C806 0.960 . S
H821 C807 0.961 . S
H822 C807 0.961 . S
H823 C807 0.961 . S
H824 C808 0.931 . S
H825 C813 0.930 . S
H826 C814 0.956 . S
H827 C814 0.961 . S
H828 C814 0.961 . S
H829 C815 0.958 . S
H830 C815 0.961 . S
H831 C815 0.960 . S
C832 C833 1.391 1_655 S
C832 C834 1.394 . S
C832 H848 0.931 . S
C833 C832 1.391 1_455 S
C833 C837 1.376 . S
C834 C832 1.394 . S
C834 C835 1.369 1_655 S
C834 C838 1.531 . S
C835 C834 1.369 1_455 S
C835 C836 1.410 . S
C835 C843 1.503 1_455 S
C836 C835 1.410 . S
C836 C837 1.392 . S
C836 C839 1.511 . S
C837 C833 1.376 . S
C837 C836 1.392 . S
C837 H849 0.929 . S
C838 C834 1.531 . S
C838 H850 0.960 . S
C838 H851 0.962 . S
C838 H852 0.960 . S
C839 C836 1.511 . S
C839 H853 0.961 . S
C839 H854 0.961 . S
C839 H855 0.961 . S
C840 C841 1.370 . S
C840 C842 1.363 . S
C840 H856 0.931 . S
C841 C840 1.370 . S
C841 C845 1.408 . S
C842 C840 1.363 . S
C842 C843 1.370 . S
C842 C846 1.524 . S
C843 C835 1.503 1_655 S
C843 C842 1.370 . S
C843 C844 1.403 1_655 S
C844 C843 1.403 1_455 S
C844 C845 1.404 1_455 S
C844 C847 1.539 . S
C845 C841 1.408 . S
C845 C844 1.404 1_655 S
C845 H857 0.930 1_655 S
C846 C842 1.524 . S
C846 H858 0.956 . S
C846 H859 0.961 . S
C846 H860 0.961 . S
C847 C844 1.539 . S
C847 H861 0.958 . S
C847 H862 0.961 . S
C847 H863 0.960 . S
H848 C832 0.931 . S
H849 C837 0.929 . S
H850 C838 0.960 . S
H851 C838 0.962 . S
H852 C838 0.960 . S
H853 C839 0.961 . S
H854 C839 0.961 . S
H855 C839 0.961 . S
H856 C840 0.931 . S
H857 C845 0.930 1_455 S
H858 C846 0.956 . S
H859 C846 0.961 . S
H860 C846 0.961 . S
H861 C847 0.958 . S
H862 C847 0.961 . S
H863 C847 0.960 . S
C864 C865 1.391 1_455 S
C864 C866 1.394 . S
C864 H880 0.931 . S
C865 C864 1.391 1_655 S
C865 C869 1.376 . S
C866 C864 1.394 . S
C866 C867 1.369 1_455 S
C866 C870 1.531 . S
C867 C866 1.369 1_655 S
C867 C868 1.410 . S
C867 C875 1.503 1_655 S
C868 C867 1.410 . S
C868 C869 1.392 . S
C868 C871 1.511 . S
C869 C865 1.376 . S
C869 C868 1.392 . S
C869 H881 0.929 . S
C870 C866 1.531 . S
C870 H882 0.960 . S
C870 H883 0.962 . S
C870 H884 0.960 . S
C871 C868 1.511 . S
C871 H885 0.961 . S
C871 H886 0.961 . S
C871 H887 0.961 . S
C872 C873 1.370 . S
C872 C874 1.363 . S
C872 H888 0.931 . S
C873 C872 1.370 . S
C873 C877 1.408 . S
C874 C872 1.363 . S
C874 C875 1.370 . S
C874 C878 1.524 . S
C875 C867 1.503 1_455 S
C875 C874 1.370 . S
C875 C876 1.403 1_455 S
C876 C875 1.403 1_655 S
C876 C877 1.404 1_655 S
C876 C879 1.539 . S
C877 C873 1.408 . S
C877 C876 1.404 1_455 S
C877 H889 0.930 . S
C878 C874 1.524 . S
C878 H890 0.956 . S
C878 H891 0.961 . S
C878 H892 0.961 . S
C879 C876 1.539 . S
C879 H893 0.958 . S
C879 H894 0.961 . S
C879 H895 0.960 . S
H880 C864 0.931 . S
H881 C869 0.929 . S
H882 C870 0.960 . S
H883 C870 0.962 . S
H884 C870 0.960 . S
H885 C871 0.961 . S
H886 C871 0.961 . S
H887 C871 0.961 . S
H888 C872 0.931 . S
H889 C877 0.930 . S
H890 C878 0.956 . S
H891 C878 0.961 . S
H892 C878 0.961 . S
H893 C879 0.958 . S
H894 C879 0.961 . S
H895 C879 0.960 . S
C896 C897 1.391 . S
C896 C898 1.394 . S
C896 H912 0.931 . S
C897 C896 1.391 . S
C897 C901 1.376 1_655 S
C898 C896 1.394 . S
C898 C899 1.369 1_655 S
C898 C902 1.531 . S
C899 C898 1.369 1_455 S
C899 C900 1.410 . S
C899 C907 1.503 . S
C900 C899 1.410 . S
C900 C901 1.392 . S
C900 C903 1.511 . S
C901 C897 1.376 1_455 S
C901 C900 1.392 . S
C901 H913 0.929 . S
C902 C898 1.531 . S
C902 H914 0.960 . S
C902 H915 0.962 . S
C902 H916 0.960 . S
C903 C900 1.511 . S
C903 H917 0.961 . S
C903 H918 0.961 . S
C903 H919 0.961 . S
C904 C905 1.370 1_655 S
C904 C906 1.363 . S
C904 H920 0.931 . S
C905 C904 1.370 1_455 S
C905 C909 1.408 . S
C906 C904 1.363 . S
C906 C907 1.370 1_655 S
C906 C910 1.524 . S
C907 C899 1.503 . S
C907 C906 1.370 1_455 S
C907 C908 1.403 . S
C908 C907 1.403 . S
C908 C909 1.404 . S
C908 C911 1.539 . S
C909 C905 1.408 . S
C909 C908 1.404 . S
C909 H921 0.930 . S
C910 C906 1.524 . S
C910 H922 0.956 . S
C910 H923 0.961 . S
C910 H924 0.961 . S
C911 C908 1.539 . S
C911 H925 0.958 . S
C911 H926 0.961 . S
C911 H927 0.960 . S
H912 C896 0.931 . S
H913 C901 0.929 . S
H914 C902 0.960 . S
H915 C902 0.962 . S
H916 C902 0.960 . S
H917 C903 0.961 . S
H918 C903 0.961 . S
H919 C903 0.961 . S
H920 C904 0.931 . S
H921 C909 0.930 . S
H922 C910 0.956 . S
H923 C910 0.961 . S
H924 C910 0.961 . S
H925 C911 0.958 . S
H926 C911 0.961 . S
H927 C911 0.960 . S
C928 C929 1.391 1_455 S
C928 C930 1.394 . S
C928 H944 0.931 . S
C929 C928 1.391 1_655 S
C929 C933 1.376 . S
C930 C928 1.394 . S
C930 C931 1.369 1_455 S
C930 C934 1.531 . S
C931 C930 1.369 1_655 S
C931 C932 1.410 . S
C931 C939 1.503 1_655 S
C932 C931 1.410 . S
C932 C933 1.392 . S
C932 C935 1.511 . S
C933 C929 1.376 . S
C933 C932 1.392 . S
C933 H945 0.929 . S
C934 C930 1.531 . S
C934 H946 0.960 . S
C934 H947 0.962 . S
C934 H948 0.960 . S
C935 C932 1.511 . S
C935 H949 0.961 . S
C935 H950 0.961 . S
C935 H951 0.961 . S
C936 C937 1.370 . S
C936 C938 1.363 . S
C936 H952 0.931 . S
C937 C936 1.370 . S
C937 C941 1.408 1_455 S
C938 C936 1.363 . S
C938 C939 1.370 . S
C938 C942 1.524 . S
C939 C931 1.503 1_455 S
C939 C938 1.370 . S
C939 C940 1.403 1_455 S
C940 C939 1.403 1_655 S
C940 C941 1.404 . S
C940 C943 1.539 . S
C941 C937 1.408 1_655 S
C941 C940 1.404 . S
C941 H953 0.930 . S
C942 C938 1.524 . S
C942 H954 0.956 . S
C942 H955 0.961 . S
C942 H956 0.961 . S
C943 C940 1.539 . S
C943 H957 0.958 . S
C943 H958 0.961 . S
C943 H959 0.960 . S
H944 C928 0.931 . S
H945 C933 0.929 . S
H946 C934 0.960 . S
H947 C934 0.962 . S
H948 C934 0.960 . S
H949 C935 0.961 . S
H950 C935 0.961 . S
H951 C935 0.961 . S
H952 C936 0.931 . S
H953 C941 0.930 . S
H954 C942 0.956 . S
H955 C942 0.961 . S
H956 C942 0.961 . S
H957 C943 0.958 . S
H958 C943 0.961 . S
H959 C943 0.960 . S
C960 C961 1.391 . S
C960 C962 1.394 . S
C960 H976 0.931 . S
C961 C960 1.391 . S
C961 C965 1.376 . S
C962 C960 1.394 . S
C962 C963 1.369 . S
C962 C966 1.531 . S
C963 C962 1.369 . S
C963 C964 1.410 . S
C963 C971 1.503 . S
C964 C963 1.410 . S
C964 C965 1.392 . S
C964 C967 1.511 . S
C965 C961 1.376 . S
C965 C964 1.392 . S
C965 H977 0.929 . S
C966 C962 1.531 . S
C966 H978 0.960 . S
C966 H979 0.962 . S
C966 H980 0.960 . S
C967 C964 1.511 . S
C967 H981 0.961 . S
C967 H982 0.961 . S
C967 H983 0.961 . S
C968 C969 1.370 . S
C968 C970 1.363 . S
C968 H984 0.931 . S
C969 C968 1.370 . S
C969 C973 1.408 . S
C970 C968 1.363 . S
C970 C971 1.370 . S
C970 C974 1.524 . S
C971 C963 1.503 . S
C971 C970 1.370 . S
C971 C972 1.403 . S
C972 C971 1.403 . S
C972 C973 1.404 . S
C972 C975 1.539 . S
C973 C969 1.408 . S
C973 C972 1.404 . S
C973 H985 0.930 . S
C974 C970 1.524 . S
C974 H986 0.956 . S
C974 H987 0.961 . S
C974 H988 0.961 . S
C975 C972 1.539 . S
C975 H989 0.958 . S
C975 H990 0.961 . S
C975 H991 0.960 . S
H976 C960 0.931 . S
H977 C965 0.929 . S
H978 C966 0.960 . S
H979 C966 0.962 . S
H980 C966 0.960 . S
H981 C967 0.961 . S
H982 C967 0.961 . S
H983 C967 0.961 . S
H984 C968 0.931 . S
H985 C973 0.930 . S
H986 C974 0.956 . S
H987 C974 0.961 . S
H988 C974 0.961 . S
H989 C975 0.958 . S
H990 C975 0.961 . S
H991 C975 0.960 . S
C992 C993 1.391 . S
C992 C994 1.394 . S
C992 H1008 0.931 . S
C993 C992 1.391 . S
C993 C997 1.376 . S
C994 C992 1.394 . S
C994 C995 1.369 . S
C994 C998 1.531 . S
C995 C994 1.369 . S
C995 C996 1.410 . S
C995 C1003 1.503 . S
C996 C995 1.410 . S
C996 C997 1.392 . S
C996 C999 1.511 . S
C997 C993 1.376 . S
C997 C996 1.392 . S
C997 H1009 0.929 . S
C998 C994 1.531 . S
C998 H1010 0.960 . S
C998 H1011 0.962 . S
C998 H1012 0.960 . S
C999 C996 1.511 . S
C999 H1013 0.961 . S
C999 H1014 0.961 . S
C999 H1015 0.961 . S
C1000 C1001 1.370 . S
C1000 C1002 1.363 . S
C1000 H1016 0.931 . S
C1001 C1000 1.370 . S
C1001 C1005 1.408 . S
C1002 C1000 1.363 . S
C1002 C1003 1.370 . S
C1002 C1006 1.524 . S
C1003 C995 1.503 . S
C1003 C1002 1.370 . S
C1003 C1004 1.403 . S
C1004 C1003 1.403 . S
C1004 C1005 1.404 . S
C1004 C1007 1.539 . S
C1005 C1001 1.408 . S
C1005 C1004 1.404 . S
C1005 H1017 0.930 . S
C1006 C1002 1.524 . S
C1006 H1018 0.956 . S
C1006 H1019 0.961 . S
C1006 H1020 0.961 . S
C1007 C1004 1.539 . S
C1007 H1021 0.958 . S
C1007 H1022 0.961 . S
C1007 H1023 0.960 . S
H1008 C992 0.931 . S
H1009 C997 0.929 . S
H1010 C998 0.960 . S
H1011 C998 0.962 . S
H1012 C998 0.960 . S
H1013 C999 0.961 . S
H1014 C999 0.961 . S
H1015 C999 0.961 . S
H1016 C1000 0.931 . S
H1017 C1005 0.930 . S
H1018 C1006 0.956 . S
H1019 C1006 0.961 . S
H1020 C1006 0.961 . S
H1021 C1007 0.958 . S
H1022 C1007 0.961 . S
H1023 C1007 0.960 . S
C1024 C1025 1.391 . S
C1024 C1026 1.394 . S
C1024 H1040 0.931 . S
C1025 C1024 1.391 . S
C1025 C1029 1.376 . S
C1026 C1024 1.394 . S
C1026 C1027 1.369 . S
C1026 C1030 1.531 . S
C1027 C1026 1.369 . S
C1027 C1028 1.410 . S
C1027 C1035 1.503 . S
C1028 C1027 1.410 . S
C1028 C1029 1.392 . S
C1028 C1031 1.511 . S
C1029 C1025 1.376 . S
C1029 C1028 1.392 . S
C1029 H1041 0.929 . S
C1030 C1026 1.531 . S
C1030 H1042 0.960 . S
C1030 H1043 0.962 . S
C1030 H1044 0.960 . S
C1031 C1028 1.511 . S
C1031 H1045 0.961 . S
C1031 H1046 0.961 . S
C1031 H1047 0.961 . S
C1032 C1033 1.370 . S
C1032 C1034 1.363 . S
C1032 H1048 0.931 . S
C1033 C1032 1.370 . S
C1033 C1037 1.408 . S
C1034 C1032 1.363 . S
C1034 C1035 1.370 . S
C1034 C1038 1.524 . S
C1035 C1027 1.503 . S
C1035 C1034 1.370 . S
C1035 C1036 1.403 . S
C1036 C1035 1.403 . S
C1036 C1037 1.404 . S
C1036 C1039 1.539 . S
C1037 C1033 1.408 . S
C1037 C1036 1.404 . S
C1037 H1049 0.930 . S
C1038 C1034 1.524 . S
C1038 H1050 0.956 . S
C1038 H1051 0.961 . S
C1038 H1052 0.961 . S
C1039 C1036 1.539 . S
C1039 H1053 0.958 . S
C1039 H1054 0.961 . S
C1039 H1055 0.960 . S
H1040 C1024 0.931 . S
H1041 C1029 0.929 . S
H1042 C1030 0.960 . S
H1043 C1030 0.962 . S
H1044 C1030 0.960 . S
H1045 C1031 0.961 . S
H1046 C1031 0.961 . S
H1047 C1031 0.961 . S
H1048 C1032 0.931 . S
H1049 C1037 0.930 . S
H1050 C1038 0.956 . S
H1051 C1038 0.961 . S
H1052 C1038 0.961 . S
H1053 C1039 0.958 . S
H1054 C1039 0.961 . S
H1055 C1039 0.960 . S
C1056 C1057 1.391 . S
C1056 C1058 1.394 . S
C1056 H1072 0.931 . S
C1057 C1056 1.391 . S
C1057 C1061 1.376 . S
C1058 C1056 1.394 . S
C1058 C1059 1.369 . S
C1058 C1062 1.531 . S
C1059 C1058 1.369 . S
C1059 C1060 1.410 . S
C1059 C1067 1.503 . S
C1060 C1059 1.410 . S
C1060 C1061 1.392 . S
C1060 C1063 1.511 . S
C1061 C1057 1.376 . S
C1061 C1060 1.392 . S
C1061 H1073 0.929 . S
C1062 C1058 1.531 . S
C1062 H1074 0.960 . S
C1062 H1075 0.962 . S
C1062 H1076 0.960 . S
C1063 C1060 1.511 . S
C1063 H1077 0.961 . S
C1063 H1078 0.961 . S
C1063 H1079 0.961 . S
C1064 C1065 1.370 . S
C1064 C1066 1.363 . S
C1064 H1080 0.931 . S
C1065 C1064 1.370 . S
C1065 C1069 1.408 . S
C1066 C1064 1.363 . S
C1066 C1067 1.370 . S
C1066 C1070 1.524 . S
C1067 C1059 1.503 . S
C1067 C1066 1.370 . S
C1067 C1068 1.403 . S
C1068 C1067 1.403 . S
C1068 C1069 1.404 . S
C1068 C1071 1.539 . S
C1069 C1065 1.408 . S
C1069 C1068 1.404 . S
C1069 H1081 0.930 . S
C1070 C1066 1.524 . S
C1070 H1082 0.956 . S
C1070 H1083 0.961 . S
C1070 H1084 0.961 . S
C1071 C1068 1.539 . S
C1071 H1085 0.958 . S
C1071 H1086 0.961 . S
C1071 H1087 0.960 . S
H1072 C1056 0.931 . S
H1073 C1061 0.929 . S
H1074 C1062 0.960 . S
H1075 C1062 0.962 . S
H1076 C1062 0.960 . S
H1077 C1063 0.961 . S
H1078 C1063 0.961 . S
H1079 C1063 0.961 . S
H1080 C1064 0.931 . S
H1081 C1069 0.930 . S
H1082 C1070 0.956 . S
H1083 C1070 0.961 . S
H1084 C1070 0.961 . S
H1085 C1071 0.958 . S
H1086 C1071 0.961 . S
H1087 C1071 0.960 . S
C321 C19 2.303 . S
C329 C10 2.280 . S
C353 C59 2.302 . S
C361 C50 2.280 . S
C385 C99 2.282 . S
C393 C90 2.290 . S
C417 C139 2.301 . S
C425 C130 2.280 . S
C449 C179 2.264 . S
C457 C170 2.295 . S
C481 C210 2.302 . S
C489 C219 2.280 . S
C513 C259 2.262 . S
C521 C250 2.296 . S
C545 C290 2.288 . S
C553 C299 2.287 . S
C577 C55 2.640 . S
C585 C6 2.607 . S
C609 C126 2.616 . S
C617 C95 2.617 . S
C641 C166 2.593 . S
C649 C215 2.626 . S
C673 C255 2.592 . S
C681 C286 2.627 . S
C705 C15 1.817 . S
C713 C206 1.832 . S
C737 C175 1.802 . S
C745 C46 1.835 . S
C769 C86 1.801 . S
C777 C295 1.838 . S
C801 C135 1.813 . S
C809 C246 1.834 . S
C833 C9 1.500 . S
C841 C129 1.483 . S
C865 C49 1.562 . S
C873 C89 1.571 . S
C897 C58 1.489 . S
C905 C98 1.482 . S
C929 C138 1.614 . S
C937 C18 1.587 . S
C961 C169 1.498 . S
C969 C289 1.482 . S
C993 C209 1.610 . S
C1001 C249 1.598 . S
C1025 C218 1.496 . S
C1033 C258 1.485 . S
C1057 C298 1.565 . S
C1065 C178 1.595 . S
