# Generated by pormake.
# Topology unv, (4)-cn, num edge types: 1
# Building blocks:
#     Node 0, Type 0, BuildingBlock: CEKHIL_clean_sbu_0, # of connection points: 4
#     Node 1, Type 0, BuildingBlock: CEKHIL_clean_sbu_0, # of connection points: 4
#     Node 2, Type 0, BuildingBlock: CEKHIL_clean_sbu_0, # of connection points: 4
#     Node 3, Type 0, BuildingBlock: CEKHIL_clean_sbu_0, # of connection points: 4
#     Node 4, Type 0, BuildingBlock: CEKHIL_clean_sbu_0, # of connection points: 4
#     Node 5, Type 0, BuildingBlock: CEKHIL_clean_sbu_0, # of connection points: 4
#     Node 6, Type 0, BuildingBlock: CEKHIL_clean_sbu_0, # of connection points: 4
#     Node 7, Type 0, BuildingBlock: CEKHIL_clean_sbu_0, # of connection points: 4
#     Node 8, Type 0, BuildingBlock: CEKHIL_clean_sbu_0, # of connection points: 4
#     Node 9, Type 0, BuildingBlock: CEKHIL_clean_sbu_0, # of connection points: 4
#     Node 10, Type 0, BuildingBlock: CEKHIL_clean_sbu_0, # of connection points: 4
#     Node 11, Type 0, BuildingBlock: CEKHIL_clean_sbu_0, # of connection points: 4
#     Node 12, Type 0, BuildingBlock: CEKHIL_clean_sbu_0, # of connection points: 4
#     Node 13, Type 0, BuildingBlock: CEKHIL_clean_sbu_0, # of connection points: 4
#     Node 14, Type 0, BuildingBlock: CEKHIL_clean_sbu_0, # of connection points: 4
#     Node 15, Type 0, BuildingBlock: CEKHIL_clean_sbu_0, # of connection points: 4
#     Node 16, Type 0, BuildingBlock: CEKHIL_clean_sbu_0, # of connection points: 4
#     Node 17, Type 0, BuildingBlock: CEKHIL_clean_sbu_0, # of connection points: 4
#     Node 18, Type 0, BuildingBlock: CEKHIL_clean_sbu_0, # of connection points: 4
#     Node 19, Type 0, BuildingBlock: CEKHIL_clean_sbu_0, # of connection points: 4
#     Node 20, Type 0, BuildingBlock: CEKHIL_clean_sbu_0, # of connection points: 4
#     Node 21, Type 0, BuildingBlock: CEKHIL_clean_sbu_0, # of connection points: 4
#     Node 22, Type 0, BuildingBlock: CEKHIL_clean_sbu_0, # of connection points: 4
#     Node 23, Type 0, BuildingBlock: CEKHIL_clean_sbu_0, # of connection points: 4
#     Edge 24, Type (0, 0), BuildingBlock: TEMPAE_clean_linker_10, # of connection points: 2
#     Edge 25, Type (0, 0), BuildingBlock: TEMPAE_clean_linker_10, # of connection points: 2
#     Edge 26, Type (0, 0), BuildingBlock: TEMPAE_clean_linker_10, # of connection points: 2
#     Edge 27, Type (0, 0), BuildingBlock: TEMPAE_clean_linker_10, # of connection points: 2
#     Edge 28, Type (0, 0), BuildingBlock: TEMPAE_clean_linker_10, # of connection points: 2
#     Edge 29, Type (0, 0), BuildingBlock: TEMPAE_clean_linker_10, # of connection points: 2
#     Edge 30, Type (0, 0), BuildingBlock: TEMPAE_clean_linker_10, # of connection points: 2
#     Edge 31, Type (0, 0), BuildingBlock: TEMPAE_clean_linker_10, # of connection points: 2
#     Edge 32, Type (0, 0), BuildingBlock: TEMPAE_clean_linker_10, # of connection points: 2
#     Edge 33, Type (0, 0), BuildingBlock: TEMPAE_clean_linker_10, # of connection points: 2
#     Edge 34, Type (0, 0), BuildingBlock: TEMPAE_clean_linker_10, # of connection points: 2
#     Edge 35, Type (0, 0), BuildingBlock: TEMPAE_clean_linker_10, # of connection points: 2
#     Edge 36, Type (0, 0), BuildingBlock: TEMPAE_clean_linker_10, # of connection points: 2
#     Edge 37, Type (0, 0), BuildingBlock: TEMPAE_clean_linker_10, # of connection points: 2
#     Edge 38, Type (0, 0), BuildingBlock: TEMPAE_clean_linker_10, # of connection points: 2
#     Edge 39, Type (0, 0), BuildingBlock: TEMPAE_clean_linker_10, # of connection points: 2
#     Edge 40, Type (0, 0), BuildingBlock: TEMPAE_clean_linker_10, # of connection points: 2
#     Edge 41, Type (0, 0), BuildingBlock: TEMPAE_clean_linker_10, # of connection points: 2
#     Edge 42, Type (0, 0), BuildingBlock: TEMPAE_clean_linker_10, # of connection points: 2
#     Edge 43, Type (0, 0), BuildingBlock: TEMPAE_clean_linker_10, # of connection points: 2
#     Edge 44, Type (0, 0), BuildingBlock: TEMPAE_clean_linker_10, # of connection points: 2
#     Edge 45, Type (0, 0), BuildingBlock: TEMPAE_clean_linker_10, # of connection points: 2
#     Edge 46, Type (0, 0), BuildingBlock: TEMPAE_clean_linker_10, # of connection points: 2
#     Edge 47, Type (0, 0), BuildingBlock: TEMPAE_clean_linker_10, # of connection points: 2
#     Edge 48, Type (0, 0), BuildingBlock: TEMPAE_clean_linker_10, # of connection points: 2
#     Edge 49, Type (0, 0), BuildingBlock: TEMPAE_clean_linker_10, # of connection points: 2
#     Edge 50, Type (0, 0), BuildingBlock: TEMPAE_clean_linker_10, # of connection points: 2
#     Edge 51, Type (0, 0), BuildingBlock: TEMPAE_clean_linker_10, # of connection points: 2
#     Edge 52, Type (0, 0), BuildingBlock: TEMPAE_clean_linker_10, # of connection points: 2
#     Edge 53, Type (0, 0), BuildingBlock: TEMPAE_clean_linker_10, # of connection points: 2
#     Edge 54, Type (0, 0), BuildingBlock: TEMPAE_clean_linker_10, # of connection points: 2
#     Edge 55, Type (0, 0), BuildingBlock: TEMPAE_clean_linker_10, # of connection points: 2
#     Edge 56, Type (0, 0), BuildingBlock: TEMPAE_clean_linker_10, # of connection points: 2
#     Edge 57, Type (0, 0), BuildingBlock: TEMPAE_clean_linker_10, # of connection points: 2
#     Edge 58, Type (0, 0), BuildingBlock: TEMPAE_clean_linker_10, # of connection points: 2
#     Edge 59, Type (0, 0), BuildingBlock: TEMPAE_clean_linker_10, # of connection points: 2
#     Edge 60, Type (0, 0), BuildingBlock: TEMPAE_clean_linker_10, # of connection points: 2
#     Edge 61, Type (0, 0), BuildingBlock: TEMPAE_clean_linker_10, # of connection points: 2
#     Edge 62, Type (0, 0), BuildingBlock: TEMPAE_clean_linker_10, # of connection points: 2
#     Edge 63, Type (0, 0), BuildingBlock: TEMPAE_clean_linker_10, # of connection points: 2
#     Edge 64, Type (0, 0), BuildingBlock: TEMPAE_clean_linker_10, # of connection points: 2
#     Edge 65, Type (0, 0), BuildingBlock: TEMPAE_clean_linker_10, # of connection points: 2
#     Edge 66, Type (0, 0), BuildingBlock: TEMPAE_clean_linker_10, # of connection points: 2
#     Edge 67, Type (0, 0), BuildingBlock: TEMPAE_clean_linker_10, # of connection points: 2
#     Edge 68, Type (0, 0), BuildingBlock: TEMPAE_clean_linker_10, # of connection points: 2
#     Edge 69, Type (0, 0), BuildingBlock: TEMPAE_clean_linker_10, # of connection points: 2
#     Edge 70, Type (0, 0), BuildingBlock: TEMPAE_clean_linker_10, # of connection points: 2
#     Edge 71, Type (0, 0), BuildingBlock: TEMPAE_clean_linker_10, # of connection points: 2
# Relax obj value: 0.327
# Max RMSD: 0.239
# Mean RMSD: 0.214
data_MOF--net-unv--node1-CEKHIL_clean_sbu_0--edge1-TEMPAE_clean_linker_10
_symmetry_space_group_name_H-M    P1
_symmetry_Int_Tables_number       1
_symmetry_cell_setting            triclinic
loop_
_symmetry_equiv_pos_as_xyz
'x, y, z'
_cell_length_a     49.105224
_cell_length_b     49.06833
_cell_length_c     49.11943
_cell_angle_alpha  89.988242
_cell_angle_beta   90.08411
_cell_angle_gamma 89.934157
loop_
_atom_site_label
_atom_site_type_symbol
_atom_site_fract_x
_atom_site_fract_y
_atom_site_fract_z
_atom_type_partial_charge
Co0 Co 0.9901 0.09585 0.36671 0.0
O1 O 0.00419 0.12808 0.35098 0.0
O2 O 0.96117 0.12238 0.36153 0.0
C3 C 0.02127 0.0919 0.3993 0.0
O4 O 0.96957 0.06402 0.38411 0.0
Co5 Co 0.02807 0.04378 0.36347 0.0
O6 O -0.00365 0.02666 0.38186 0.0
C7 C 0.00447 0.06832 0.31738 0.0
C8 C 0.98058 0.1383 0.35287 0.0
C9 C 0.97469 0.03851 0.38848 0.0
O10 O 0.98498 0.07932 0.3298 0.0
O11 O 0.02738 0.06657 0.32941 0.0
O12 O 0.00073 0.10818 0.40273 0.0
O13 O 0.02331 0.08101 0.37552 0.0
Co14 Co -0.00656 0.38293 0.36123 0.0
O15 O 0.9757 0.35306 0.34483 0.0
O16 O 0.01979 0.35529 0.35016 0.0
C17 C 0.96643 0.38355 0.39754 0.0
O18 O 0.01822 0.41143 0.37867 0.0
Co19 Co 0.95889 0.43555 0.372 0.0
O20 O 0.99196 0.4466 0.39196 0.0
C21 C 0.9772 0.42074 0.31665 0.0
C22 C -0.00159 0.34087 0.34366 0.0
C23 C 0.01433 0.43449 0.39066 0.0
O24 O -0.0057 0.40332 0.32538 0.0
O25 O 0.9584 0.43065 0.33174 0.0
O26 O 0.98729 0.3674 0.39738 0.0
O27 O 0.96198 0.39699 0.37561 0.0
Co28 Co -0.00584 0.8899 0.13779 0.0
O29 O 0.01029 0.85783 0.15154 0.0
O30 O 0.96628 0.86363 0.1454 0.0
C31 C 0.02258 0.89449 0.1022 0.0
O32 O 0.97275 0.92203 0.12361 0.0
Co33 Co 0.03375 0.94119 0.13894 0.0
O34 O 0.00012 0.95896 0.1249 0.0
C35 C 0.01066 0.91904 0.18666 0.0
C36 C 0.98654 0.84788 0.15239 0.0
C37 C 0.97766 0.94766 0.12041 0.0
O38 O 0.99218 0.90568 0.17511 0.0
O39 O 0.03362 0.92154 0.17487 0.0
O40 O 0.00163 0.8785 0.10052 0.0
O41 O 0.02716 0.90452 0.12605 0.0
Co42 Co 0.99116 0.60626 0.14593 0.0
O43 O 0.97563 0.63817 0.16087 0.0
O44 O 0.01955 0.63085 0.15632 0.0
C45 C 0.96481 0.60466 0.10833 0.0
O46 O 0.01205 0.57464 0.13046 0.0
Co47 Co 0.94919 0.55678 0.14293 0.0
O48 O 0.98239 0.53973 0.12726 0.0
C49 C 0.97149 0.57478 0.19257 0.0
C50 C -0.0003 0.64732 0.16275 0.0
C51 C 0.00555 0.55001 0.12417 0.0
O52 O 0.99141 0.58795 0.18232 0.0
O53 O 0.94879 0.57399 0.18003 0.0
O54 O 0.98591 0.62047 0.1092 0.0
O55 O 0.95852 0.59325 0.13118 0.0
Co56 Co 0.36692 0.9915 0.09538 0.0
O57 O 0.35248 0.00256 0.1293 0.0
O58 O 0.3646 0.96055 0.1199 0.0
C59 C 0.39767 0.0244 0.09204 0.0
O60 O 0.38332 0.97391 0.06123 0.0
Co61 Co 0.35858 0.03217 0.04656 0.0
O62 O 0.37796 0.00297 0.02613 0.0
C63 C 0.31456 0.00364 0.07067 0.0
C64 C 0.35608 0.97844 0.1376 0.0
C65 C 0.38606 0.98079 0.03592 0.0
O66 O 0.32952 0.98533 0.08059 0.0
O67 O 0.32408 0.02768 0.06835 0.0
O68 O 0.40295 0.00291 0.1065 0.0
O69 O 0.37317 0.02609 0.08266 0.0
Co70 Co 0.61568 0.52885 0.09933 0.0
O71 O 0.6311 0.50822 0.12853 0.0
O72 O 0.6214 0.55165 0.13234 0.0
C73 C 0.58188 0.49901 0.09154 0.0
O74 O 0.59882 0.55316 0.06922 0.0
Co75 Co 0.62047 0.49297 0.0452 0.0
O76 O 0.60064 0.52562 0.03179 0.0
C77 C 0.66605 0.52011 0.06757 0.0
C78 C 0.62942 0.52908 0.14408 0.0
C79 C 0.59438 0.54806 0.04353 0.0
O80 O 0.65285 0.53641 0.08316 0.0
O81 O 0.657 0.49615 0.06335 0.0
O82 O 0.57895 0.51764 0.10989 0.0
O83 O 0.60586 0.49717 0.08124 0.0
Co84 Co 0.36116 -0.00312 0.38283 0.0
O85 O 0.34872 0.97705 0.3527 0.0
O86 O 0.35178 0.02144 0.35289 0.0
C87 C 0.39883 0.9721 0.38984 0.0
O88 O 0.3755 0.02234 0.41248 0.0
Co89 Co 0.36242 0.96281 0.43769 0.0
O90 O 0.35613 0.00142 0.44747 0.0
C91 C 0.31433 0.97607 0.41127 0.0
C92 C 0.34793 -0.00104 0.33915 0.0
C93 C 0.37119 0.0201 0.43821 0.0
O94 O 0.32336 -0.00326 0.39903 0.0
O95 O 0.33014 0.95567 0.41354 0.0
O96 O 0.39886 0.9912 0.3716 0.0
O97 O 0.37557 0.96707 0.40075 0.0
Co98 Co 0.61854 0.45347 0.37876 0.0
O99 O 0.63446 0.47742 0.35275 0.0
O100 O 0.63157 0.43316 0.34662 0.0
C101 C 0.57959 0.47998 0.38106 0.0
O102 O 0.60257 0.42659 0.40505 0.0
Co103 Co 0.61561 0.4976 0.42741 0.0
O104 O 0.60155 0.46004 0.43668 0.0
C105 C 0.66476 0.46348 0.42118 0.0
C106 C 0.6369 0.45718 0.33638 0.0
C107 C 0.59789 0.43516 0.42942 0.0
O108 O 0.65447 0.4501 0.40073 0.0
O109 O 0.65349 0.48433 0.43205 0.0
O110 O 0.58185 0.46148 0.36252 0.0
O111 O 0.60036 0.48109 0.3964 0.0
Co112 Co 0.09472 0.36731 0.9863 0.0
O113 O 0.1277 0.35517 0.00181 0.0
O114 O 0.12264 0.3619 0.95822 0.0
C115 C 0.08798 0.40168 0.0148 0.0
O116 O 0.06051 0.38056 0.96606 0.0
Co117 Co 0.04748 0.35795 0.02879 0.0
O118 O 0.02777 0.37398 -0.00284 0.0
C119 C 0.0739 0.31483 0.00308 0.0
C120 C 0.13831 0.35533 0.97877 0.0
C121 C 0.03549 0.38246 0.97449 0.0
O122 O 0.08152 0.32885 0.98331 0.0
O123 O 0.07296 0.32608 0.02637 0.0
O124 O 0.10392 0.40512 -0.00595 0.0
O125 O 0.08015 0.37698 0.01859 0.0
Co126 Co 0.09987 0.616 0.53034 0.0
O127 O 0.13033 0.63018 0.51078 0.0
O128 O 0.13129 0.62236 0.55485 0.0
C129 C 0.0927 0.58141 0.50093 0.0
O130 O 0.06828 0.60066 0.55351 0.0
Co131 Co 0.04813 0.6221 0.49042 0.0
O132 O 0.03291 0.60428 0.52354 0.0
C133 C 0.07154 0.6671 0.51683 0.0
C134 C 0.14436 0.62949 0.53277 0.0
C135 C 0.04274 0.59763 0.54683 0.0
O136 O 0.08411 0.65373 0.53545 0.0
O137 O 0.0694 0.65691 0.4931 0.0
O138 O 0.11056 0.57871 0.52016 0.0
O139 O 0.08243 0.60537 0.49894 0.0
Co140 Co 0.88896 0.85279 0.52786 0.0
O141 O 0.86232 0.83786 0.50372 0.0
O142 O 0.85704 0.8412 0.54837 0.0
C143 C 0.89518 0.88957 0.5006 0.0
O144 O 0.91354 0.86695 0.55853 0.0
Co145 Co 0.94775 0.8684 0.50862 0.0
O146 O 0.93833 0.89676 0.53613 0.0
C147 C 0.93256 0.81031 0.52209 0.0
C148 C 0.84671 0.83514 0.52466 0.0
C149 C 0.93134 0.88612 0.55852 0.0
O150 O 0.90843 0.81637 0.53079 0.0
O151 O 0.94918 0.82769 0.51184 0.0
O152 O 0.87581 0.88967 0.51859 0.0
O153 O 0.90968 0.86777 0.4999 0.0
Co154 Co 0.38082 0.62317 0.45917 0.0
O155 O 0.35492 0.63896 0.48363 0.0
O156 O 0.34752 0.63548 0.4398 0.0
C157 C 0.38478 0.58551 0.48518 0.0
O158 O 0.4048 0.60627 0.42914 0.0
Co159 Co 0.43791 0.60733 0.48459 0.0
O160 O 0.43826 0.58412 0.452 0.0
C161 C 0.42582 0.66463 0.46659 0.0
C162 C 0.33772 0.64078 0.46395 0.0
C163 C 0.42517 0.58951 0.43026 0.0
O164 O 0.40201 0.6591 0.45646 0.0
O165 O 0.44071 0.64718 0.47904 0.0
O166 O 0.36588 0.58687 0.4669 0.0
O167 O 0.39942 0.60689 0.48806 0.0
Co168 Co 0.45601 0.60807 0.8454 0.0
O169 O 0.47957 0.63445 0.8292 0.0
O170 O 0.43594 0.64158 0.83703 0.0
C171 C 0.48316 0.59839 0.88193 0.0
O172 O 0.42736 0.58465 0.86425 0.0
Co173 Co 0.47698 0.54926 0.8454 0.0
O174 O 0.43635 0.54718 0.84173 0.0
C175 C 0.46267 0.5727 0.7948 0.0
C176 C 0.45951 0.6515 0.82984 0.0
C177 C 0.42299 0.55926 0.8601 0.0
O178 O 0.44813 0.59034 0.80802 0.0
O179 O 0.48202 0.55999 0.80652 0.0
O180 O 0.46757 0.61967 0.88159 0.0
O181 O 0.48494 0.58573 0.85883 0.0
Co182 Co 0.5319 0.88866 0.85539 0.0
O183 O 0.50546 0.86319 0.84195 0.0
O184 O 0.5496 0.85472 0.84442 0.0
C185 C 0.50505 0.89809 0.89363 0.0
O186 O 0.56488 0.91142 0.86886 0.0
Co187 Co 0.49381 0.9496 0.85947 0.0
O188 O 0.52975 0.93352 0.86333 0.0
C189 C 0.52179 0.92794 0.80732 0.0
C190 C 0.52508 0.84587 0.83939 0.0
C191 C 0.55442 0.93483 0.86897 0.0
O192 O 0.53449 0.90691 0.81755 0.0
O193 O 0.50533 0.94367 0.82048 0.0
O194 O 0.5218 0.87756 0.89339 0.0
O195 O 0.50527 0.91212 0.87153 0.0
Co196 Co 0.45557 0.3808 0.62328 0.0
O197 O 0.47925 0.35409 0.63912 0.0
O198 O 0.43573 0.34687 0.63118 0.0
C199 C 0.48258 0.39121 0.58746 0.0
O200 O 0.42706 0.40494 0.60508 0.0
Co201 Co 0.47735 0.44006 0.62319 0.0
O202 O 0.43691 0.44455 0.62441 0.0
C203 C 0.46385 0.41552 0.67277 0.0
C204 C 0.45936 0.33694 0.63839 0.0
C205 C 0.42265 0.4306 0.60801 0.0
O206 O 0.44802 0.39851 0.66039 0.0
O207 O 0.48438 0.42538 0.6605 0.0
O208 O 0.46704 0.36993 0.58678 0.0
O209 O 0.48432 0.40311 0.61083 0.0
Co210 Co 0.52759 0.09693 0.61715 0.0
O211 O 0.50546 0.12586 0.63109 0.0
O212 O 0.54885 0.13087 0.62096 0.0
C213 C 0.49802 0.08419 0.58468 0.0
O214 O 0.55455 0.06878 0.60137 0.0
Co215 Co 0.49944 0.03895 0.62479 0.0
O216 O 0.53349 0.0277 0.60598 0.0
C217 C 0.51994 0.06873 0.66908 0.0
C218 C 0.52597 0.14198 0.62886 0.0
C219 C 0.55359 0.04247 0.59853 0.0
O220 O 0.53628 0.08358 0.65516 0.0
O221 O 0.49723 0.06193 0.65862 0.0
O222 O 0.51468 0.10414 0.58015 0.0
O223 O 0.49765 0.07508 0.60924 0.0
Co224 Co 0.846 0.45634 0.60933 0.0
O225 O 0.83132 0.48193 0.63448 0.0
O226 O 0.83357 0.4377 0.6423 0.0
C227 C 0.88533 0.48231 0.60348 0.0
O228 O 0.86085 0.42584 0.58584 0.0
Co229 Co 0.84735 0.5001 0.55644 0.0
O230 O 0.85659 0.4607 0.55991 0.0
C231 C 0.79845 0.46497 0.56784 0.0
C232 C 0.82934 0.46222 0.65173 0.0
C233 C 0.86244 0.43579 0.56208 0.0
O234 O 0.8094 0.45272 0.58871 0.0
O235 O 0.80925 0.48514 0.55508 0.0
O236 O 0.88332 0.46505 0.62329 0.0
O237 O 0.86398 0.48319 0.58847 0.0
Co238 Co 0.14254 0.98853 0.60383 0.0
O239 O 0.15886 0.96947 0.63317 0.0
O240 O 0.15527 0.0139 0.63072 0.0
C241 C 0.10514 0.96206 0.60346 0.0
O242 O 0.12605 0.01394 0.57625 0.0
Co243 Co 0.12945 0.95535 0.5507 0.0
O244 O 0.11011 0.9894 0.54113 0.0
C245 C 0.18566 0.97336 0.56369 0.0
C246 C 0.16114 0.99288 0.64504 0.0
C247 C 0.11317 0.01136 0.55362 0.0
O248 O 0.17781 0.989 0.58316 0.0
O249 O 0.1701 0.95628 0.55157 0.0
O250 O 0.10648 0.98266 0.61987 0.0
O251 O 0.12662 0.9571 0.58943 0.0
Co252 Co 0.85018 0.52568 0.8893 0.0
O253 O 0.83553 0.50461 0.8602 0.0
O254 O 0.84135 0.54904 0.8579 0.0
C255 C 0.88661 0.49768 0.89434 0.0
O256 O 0.86605 0.55265 0.91684 0.0
Co257 Co 0.85779 0.49444 0.94478 0.0
O258 O 0.88073 0.52661 0.95201 0.0
C259 C 0.80355 0.51716 0.92895 0.0
C260 C 0.83591 0.52623 0.84534 0.0
C261 C 0.87898 0.5493 0.9395 0.0
O262 O 0.81286 0.52924 0.90744 0.0
O263 O 0.81783 0.50102 0.9437 0.0
O264 O 0.88741 0.51731 0.87682 0.0
O265 O 0.86375 0.49449 0.90655 0.0
Co266 Co 0.13996 0.99395 0.891 0.0
O267 O 0.15031 0.00934 0.85762 0.0
O268 O 0.14535 0.96535 0.86413 0.0
C269 C 0.10514 0.0217 0.89885 0.0
O270 O 0.12807 0.97244 0.92453 0.0
Co271 Co 0.14604 0.0342 0.94142 0.0
O272 O 0.12837 0.00246 0.95931 0.0
C273 C 0.19067 0.01123 0.91454 0.0
C274 C 0.15003 0.98565 0.84759 0.0
C275 C 0.12323 0.97945 0.94944 0.0
O276 O 0.17855 0.99177 0.90335 0.0
O277 O 0.17827 0.03393 0.91631 0.0
O278 O 0.10176 0.0007 0.88316 0.0
O279 O 0.12981 0.02655 0.90632 0.0
Co280 Co 0.61063 0.84465 0.46249 0.0
O281 O 0.63825 0.82915 0.48454 0.0
O282 O 0.64132 0.83261 0.43984 0.0
C283 C 0.60597 0.88298 0.48818 0.0
O284 O 0.58362 0.86042 0.4353 0.0
Co285 Co 0.55545 0.8509 0.49667 0.0
O286 O 0.5451 0.8659 0.46056 0.0
C287 C 0.57368 0.79962 0.47738 0.0
C288 C 0.65293 0.82643 0.46299 0.0
C289 C 0.55841 0.86739 0.43822 0.0
O290 O 0.59058 0.8087 0.45966 0.0
O291 O 0.56982 0.81265 0.4995 0.0
O292 O 0.62482 0.88145 0.46982 0.0
O293 O 0.59301 0.86057 0.49205 0.0
Co294 Co 0.6044 0.14391 0.98993 0.0
O295 O 0.63725 0.15913 0.97625 0.0
O296 O 0.62924 0.14997 0.01914 0.0
C297 C 0.60169 0.1097 0.95972 0.0
O298 O 0.57308 0.12763 0.01008 0.0
Co299 Co 0.55387 0.14478 0.95125 0.0
O300 O 0.53648 0.12594 0.98261 0.0
C301 C 0.5723 0.1943 0.97699 0.0
C302 C 0.64627 0.15763 0.00035 0.0
C303 C 0.54813 0.12181 0.00487 0.0
O304 O 0.58731 0.18077 -0.00687 0.0
O305 O 0.56451 0.18424 0.9543 0.0
O306 O 0.61695 0.10728 0.98112 0.0
O307 O 0.59119 0.13348 0.9557 0.0
Co308 Co 0.38146 0.35939 -0.00361 0.0
O309 O 0.34948 0.34357 0.98229 0.0
O310 O 0.35482 0.35276 0.0253 0.0
C311 C 0.38408 0.39386 0.96727 0.0
O312 O 0.41363 0.37691 0.01617 0.0
Co313 Co 0.42917 0.35458 0.95527 0.0
O314 O 0.44669 0.37566 0.98498 0.0
C315 C 0.41071 0.30753 0.98377 0.0
C316 C 0.33904 0.34457 0.00548 0.0
C317 C 0.43784 0.38278 0.0076 0.0
O318 O 0.39907 0.32254 0.00083 0.0
O319 O 0.416 0.31624 0.9599 0.0
O320 O 0.36825 0.39587 0.9882 0.0
O321 O 0.39407 0.36993 0.96307 0.0
Co322 Co 0.89062 0.13688 0.99295 0.0
O323 O 0.86069 0.15156 0.01094 0.0
O324 O 0.86141 0.14357 0.9672 0.0
C325 C 0.89811 0.10245 0.02168 0.0
O326 O 0.91978 0.11984 0.9687 0.0
Co327 Co 0.94575 0.14018 0.02467 0.0
O328 O 0.95599 0.1407 0.98604 0.0
C329 C 0.91879 0.18683 0.008 0.0
C330 C 0.84754 0.15056 0.98877 0.0
C331 C 0.94544 0.12481 0.96875 0.0
O332 O 0.90682 0.17456 0.98884 0.0
O333 O 0.92304 0.17372 0.02991 0.0
O334 O 0.87977 0.10002 0.00277 0.0
O335 O 0.9089 0.12625 0.02381 0.0
C336 C 0.07581 0.04063 0.53819 0.0
C337 C 0.10373 0.03546 0.53916 0.0
C338 C 0.0645 0.05485 0.51622 0.0
C339 C 0.08172 0.06362 0.49481 0.0
C340 C 0.11032 0.06084 0.49722 0.0
C341 C 0.12106 0.04692 0.5197 0.0
C342 C 0.03387 0.05714 0.51448 0.0
C343 C 0.12926 0.07005 0.47481 0.0
C344 C 0.04824 0.05833 0.42574 0.0
C345 C 0.03959 0.08518 0.42178 0.0
C346 C 0.06288 0.05119 0.44916 0.0
C347 C 0.06952 0.07164 0.46846 0.0
C348 C 0.06232 0.09909 0.46352 0.0
C349 C 0.04692 0.10546 0.44039 0.0
C350 C 0.07006 0.02159 0.45387 0.0
C351 C 0.0693 0.12148 0.48339 0.0
H352 H 0.06254 0.03123 0.55313 0.0
H353 H 0.14269 0.04244 0.52054 0.0
H354 H 0.02736 0.07558 0.50316 0.0
H355 H 0.02575 0.039 0.50368 0.0
H356 H 0.02458 0.05765 0.53509 0.0
H357 H 0.15093 0.06543 0.47946 0.0
H358 H 0.12377 0.05994 0.45535 0.0
H359 H 0.12707 0.09233 0.47166 0.0
H360 H 0.04237 0.04271 0.41129 0.0
H361 H 0.04026 0.12628 0.43703 0.0
H362 H 0.05842 0.01372 0.47155 0.0
H363 H 0.09203 0.01948 0.45877 0.0
H364 H 0.06536 0.00866 0.4359 0.0
H365 H 0.05455 0.12101 0.50048 0.0
H366 H 0.06824 0.14191 0.47368 0.0
H367 H 0.08997 0.11859 0.49208 0.0
C368 C 0.96072 0.40478 0.44259 0.0
C369 C 0.95026 0.38856 0.42173 0.0
C370 C 0.94428 0.41231 0.46457 0.0
C371 C 0.91741 0.40194 0.46612 0.0
C372 C 0.90665 0.38602 0.44463 0.0
C373 C 0.92325 0.37977 0.42241 0.0
C374 C 0.95581 0.43149 0.48573 0.0
C375 C 0.87749 0.37619 0.44483 0.0
C376 C 0.88923 0.39935 0.53786 0.0
C377 C 0.87218 0.42214 0.53741 0.0
C378 C 0.90325 0.39171 0.51408 0.0
C379 C 0.90047 0.40774 0.49015 0.0
C380 C 0.88223 0.42991 0.48951 0.0
C381 C 0.86767 0.4361 0.51283 0.0
C382 C 0.92217 0.36749 0.51484 0.0
C383 C 0.87979 0.44905 0.46548 0.0
H384 H 0.98142 0.41229 0.44125 0.0
H385 H 0.91518 0.36801 0.40553 0.0
H386 H 0.93981 0.44432 0.49524 0.0
H387 H 0.96582 0.4194 0.50201 0.0
H388 H 0.97144 0.44514 0.47671 0.0
H389 H 0.87315 0.36192 0.42782 0.0
H390 H 0.87289 0.36583 0.46439 0.0
H391 H 0.86347 0.39384 0.44302 0.0
H392 H 0.89268 0.38855 0.5568 0.0
H393 H 0.85407 0.45355 0.51218 0.0
H394 H 0.94357 0.37462 0.51355 0.0
H395 H 0.91837 0.35407 0.49703 0.0
H396 H 0.91979 0.35538 0.53379 0.0
H397 H 0.8953 0.46536 0.46766 0.0
H398 H 0.85945 0.45899 0.46483 0.0
H399 H 0.88337 0.43874 0.44575 0.0
C400 C 0.06373 0.91506 0.08091 0.0
C401 C 0.03855 0.90205 0.07806 0.0
C402 C 0.07847 0.9234 0.05795 0.0
C403 C 0.0674 0.91911 0.03162 0.0
C404 C 0.04224 0.90536 0.02868 0.0
C405 C 0.02829 0.89668 0.05198 0.0
C406 C 0.10516 0.93811 0.062 0.0
C407 C 0.0297 0.90021 0.00105 0.0
C408 C 0.08551 0.97349 0.98142 0.0
C409 C 0.10714 0.96152 0.96724 0.0
C410 C 0.07214 0.95948 0.00129 0.0
C411 C 0.08012 0.93256 0.00774 0.0
C412 C 0.1006 0.91957 0.99302 0.0
C413 C 0.11421 0.93434 0.97248 0.0
C414 C 0.05008 0.97418 0.01697 0.0
C415 C 0.10964 0.89069 -0.00159 0.0
H416 H 0.07178 0.91902 0.10109 0.0
H417 H 0.00886 0.88643 0.04974 0.0
H418 H 0.12067 0.93076 0.04732 0.0
H419 H 0.10211 0.96022 0.0583 0.0
H420 H 0.11323 0.93543 0.08298 0.0
H421 H 0.00784 0.8946 0.00256 0.0
H422 H 0.03126 0.91837 0.98838 0.0
H423 H 0.04052 0.88323 0.9918 0.0
H424 H 0.07976 -0.00619 0.97699 0.0
H425 H 0.131 0.92512 0.96152 0.0
H426 H 0.05695 0.97754 0.03824 0.0
H427 H 0.0313 0.96166 0.01776 0.0
H428 H 0.0449 0.99427 0.00787 0.0
H429 H 0.12497 0.89102 0.01503 0.0
H430 H 0.11893 0.88104 0.98105 0.0
H431 H 0.09228 0.87795 0.00521 0.0
C432 C 0.94629 0.62229 0.06502 0.0
C433 C 0.9502 0.60016 0.08259 0.0
C434 C 0.93449 0.61878 0.03929 0.0
C435 C 0.92694 0.59235 0.0307 0.0
C436 C 0.93103 0.56977 0.04839 0.0
C437 C 0.94235 0.57403 0.07436 0.0
C438 C 0.92984 0.64344 0.02148 0.0
C439 C 0.92436 0.54103 0.03958 0.0
C440 C 0.87371 0.58184 0.97632 0.0
C441 C 0.88988 0.57235 0.95485 0.0
C442 C 0.88573 0.58936 0.00048 0.0
C443 C 0.91441 0.58841 0.00339 0.0
C444 C 0.93067 0.58215 0.98129 0.0
C445 C 0.91822 0.5744 0.95674 0.0
C446 C 0.86743 0.59509 0.02451 0.0
C447 C 0.96135 0.58138 0.98337 0.0
H448 H 0.95244 0.6425 0.07151 0.0
H449 H 0.94596 0.55687 0.08779 0.0
H450 H 0.93674 0.63947 0.00035 0.0
H451 H 0.90772 0.64801 0.02064 0.0
H452 H 0.94059 0.66175 0.02931 0.0
H453 H 0.92462 0.52654 0.05697 0.0
H454 H 0.90407 0.54014 0.02965 0.0
H455 H 0.93964 0.53414 0.02444 0.0
H456 H 0.85176 0.57965 0.97496 0.0
H457 H 0.93063 0.56669 0.94018 0.0
H458 H 0.87382 0.61406 0.03499 0.0
H459 H 0.86919 0.57818 0.03943 0.0
H460 H 0.84572 0.59707 0.01843 0.0
H461 H 0.96913 0.60235 0.98667 0.0
H462 H 0.97099 0.57293 0.96474 0.0
H463 H 0.96807 0.56885 0.00034 0.0
C464 C 0.41811 0.05807 0.06035 0.0
C465 C 0.41918 0.04377 0.08493 0.0
C466 C 0.44047 0.07342 0.05161 0.0
C467 C 0.46416 0.07455 0.0681 0.0
C468 C 0.4645 0.06168 0.09386 0.0
C469 C 0.44195 0.04628 0.10193 0.0
C470 C 0.43936 0.08672 0.02389 0.0
C471 C 0.48894 0.06342 0.11248 0.0
C472 C 0.52728 0.08117 0.02527 0.0
C473 C 0.5316 0.10923 0.02608 0.0
C474 C 0.50645 0.06931 0.04055 0.0
C475 C 0.48949 0.08616 0.05672 0.0
C476 C 0.49526 0.11431 0.0593 0.0
C477 C 0.51649 0.12555 0.04387 0.0
C478 C 0.50121 0.03913 0.03744 0.0
C479 C 0.47766 0.13308 0.07613 0.0
H480 H 0.40045 0.05611 0.04724 0.0
H481 H 0.4424 0.03561 0.12126 0.0
H482 H 0.44899 0.10715 0.02425 0.0
H483 H 0.45076 0.07395 0.00913 0.0
H484 H 0.4181 0.08889 0.01641 0.0
H485 H 0.48742 0.04912 0.12995 0.0
H486 H 0.50799 0.05894 0.10119 0.0
H487 H 0.49059 0.08447 0.12055 0.0
H488 H 0.53912 0.0687 0.01146 0.0
H489 H 0.5202 0.14728 0.04445 0.0
H490 H 0.48326 0.03604 0.02404 0.0
H491 H 0.49663 0.02963 0.05741 0.0
H492 H 0.51886 0.02837 0.02823 0.0
H493 H 0.46077 0.14085 0.06323 0.0
H494 H 0.48947 0.15092 0.0835 0.0
H495 H 0.46861 0.12248 0.09389 0.0
C496 C 0.56134 0.45453 0.08055 0.0
C497 C 0.55895 0.48279 0.0821 0.0
C498 C 0.53921 0.43862 0.07223 0.0
C499 C 0.51464 0.45157 0.06424 0.0
C500 C 0.51234 0.48035 0.0656 0.0
C501 C 0.53444 0.4956 0.07522 0.0
C502 C 0.54264 0.40808 0.07076 0.0
C503 C 0.48691 0.49521 0.05658 0.0
C504 C 0.47669 0.41469 0.009 0.0
C505 C 0.45605 0.40104 0.02334 0.0
C506 C 0.49528 0.43157 0.02209 0.0
C507 C 0.49329 0.43531 0.05047 0.0
C508 C 0.47193 0.42267 0.06524 0.0
C509 C 0.45348 0.40542 0.05146 0.0
C510 C 0.51733 0.44516 0.00541 0.0
C511 C 0.46906 0.42678 0.09555 0.0
H512 H 0.58043 0.44487 0.08615 0.0
H513 H 0.53289 0.51762 0.07653 0.0
H514 H 0.52455 0.3976 0.07928 0.0
H515 H 0.5446 0.40182 0.04914 0.0
H516 H 0.56104 0.40103 0.08193 0.0
H517 H 0.49111 0.51698 0.05194 0.0
H518 H 0.47763 0.48571 0.03831 0.0
H519 H 0.47168 0.49439 0.07323 0.0
H520 H 0.47829 0.41229 0.98787 0.0
H521 H 0.43748 0.39519 0.06266 0.0
H522 H 0.53763 0.43784 0.01217 0.0
H523 H 0.51677 0.46756 0.00849 0.0
H524 H 0.51503 0.44103 0.984 0.0
H525 H 0.48427 0.41391 0.10628 0.0
H526 H 0.44845 0.42103 0.10283 0.0
H527 H 0.47306 0.44831 0.10122 0.0
C528 C 0.51769 0.86309 0.41114 0.0
C529 C 0.5421 0.87723 0.41534 0.0
C530 C 0.49339 0.87726 0.40663 0.0
C531 C 0.49435 0.90576 0.40233 0.0
C532 C 0.51985 0.91933 0.40166 0.0
C533 C 0.54355 0.9049 0.40874 0.0
C534 C 0.46676 0.86209 0.40958 0.0
C535 C 0.52184 0.94968 0.39696 0.0
C536 C 0.43328 0.94096 0.37131 0.0
C537 C 0.42235 0.95442 0.39383 0.0
C538 C 0.45613 0.92417 0.37406 0.0
C539 C 0.46876 0.92162 0.39982 0.0
C540 C 0.45741 0.93497 0.42286 0.0
C541 C 0.43393 0.951 0.41959 0.0
C542 C 0.46709 0.90967 0.34927 0.0
C543 C 0.46952 0.93195 0.45101 0.0
H544 H 0.51682 0.8416 0.41634 0.0
H545 H 0.56238 0.9159 0.41227 0.0
H546 H 0.45175 0.87421 0.42135 0.0
H547 H 0.45796 0.85812 0.38918 0.0
H548 H 0.46951 0.84215 0.41999 0.0
H549 H 0.54238 0.95545 0.38947 0.0
H550 H 0.50638 0.95686 0.38209 0.0
H551 H 0.5183 0.96046 0.41651 0.0
H552 H 0.42377 0.94348 0.35151 0.0
H553 H 0.42501 0.96133 0.43696 0.0
H554 H 0.46718 0.88735 0.3527 0.0
H555 H 0.48847 0.91599 0.34559 0.0
H556 H 0.45488 0.91398 0.33069 0.0
H557 H 0.46356 0.91183 0.45942 0.0
H558 H 0.46212 0.94805 0.4651 0.0
H559 H 0.49207 0.93267 0.45051 0.0
C560 C 0.43733 0.54953 0.40391 0.0
C561 C 0.4379 0.57797 0.40588 0.0
C562 C 0.46076 0.53486 0.39665 0.0
C563 C 0.485 0.54914 0.39026 0.0
C564 C 0.48453 0.57797 0.38864 0.0
C565 C 0.46065 0.59205 0.39591 0.0
C566 C 0.46039 0.50422 0.39957 0.0
C567 C 0.50991 0.59397 0.38191 0.0
C568 C 0.54947 0.51028 0.40866 0.0
C569 C 0.55619 0.49851 0.38354 0.0
C570 C 0.5269 0.52777 0.411 0.0
C571 C 0.51107 0.53383 0.38754 0.0
C572 C 0.51883 0.52305 0.36198 0.0
C573 C 0.54097 0.50509 0.36041 0.0
C574 C 0.51962 0.53919 0.43863 0.0
C575 C 0.50316 0.52946 0.33633 0.0
H576 H 0.41995 0.53862 0.41209 0.0
H577 H 0.46119 0.61408 0.39773 0.0
H578 H 0.47317 0.49419 0.38389 0.0
H579 H 0.46867 0.49865 0.41987 0.0
H580 H 0.43936 0.49602 0.3981 0.0
H581 H 0.50672 0.61632 0.38371 0.0
H582 H 0.52686 0.58797 0.39565 0.0
H583 H 0.51643 0.58928 0.36081 0.0
H584 H 0.56145 0.50531 0.42655 0.0
H585 H 0.54652 0.49634 0.34091 0.0
H586 H 0.50019 0.53009 0.44566 0.0
H587 H 0.51652 0.56156 0.43737 0.0
H588 H 0.53558 0.53492 0.45413 0.0
H589 H 0.48499 0.51608 0.33531 0.0
H590 H 0.51566 0.52582 0.31784 0.0
H591 H 0.49601 0.5509 0.33612 0.0
C592 C 0.0872 0.45104 0.02509 0.0
C593 C 0.07791 0.42471 0.03089 0.0
C594 C 0.07754 0.47349 0.03965 0.0
C595 C 0.0584 0.46933 0.06069 0.0
C596 C 0.04864 0.44277 0.06645 0.0
C597 C 0.05861 0.42068 0.05142 0.0
C598 C 0.08818 0.50152 0.03272 0.0
C599 C 0.02682 0.43778 0.08754 0.0
C600 C 0.04661 0.52078 0.11695 0.0
C601 C 0.02359 0.5342 0.1068 0.0
C602 C 0.05919 0.50031 0.10135 0.0
C603 C 0.04763 0.49288 0.07592 0.0
C604 C 0.0249 0.50718 0.06551 0.0
C605 C 0.01377 0.52827 0.08079 0.0
C606 C 0.08373 0.48551 0.11262 0.0
C607 C 0.01141 0.49965 0.03886 0.0
H608 H 0.10204 0.45417 0.00907 0.0
H609 H 0.05107 0.40035 0.05557 0.0
H610 H 0.07141 0.51662 0.03154 0.0
H611 H 0.10228 0.50829 0.04905 0.0
H612 H 0.09935 0.50173 0.01306 0.0
H613 H 0.02495 0.41583 0.09276 0.0
H614 H 0.03096 0.44937 0.10648 0.0
H615 H 0.00695 0.44491 0.07941 0.0
H616 H 0.05381 0.52528 0.13733 0.0
H617 H -0.00411 0.53891 0.07322 0.0
H618 H 0.10003 0.48441 0.09703 0.0
H619 H 0.07803 0.46428 0.1179 0.0
H620 H 0.09196 0.49557 0.13114 0.0
H621 H 0.02393 0.5073 0.02172 0.0
H622 H 0.99128 0.50865 0.03696 0.0
H623 H 0.00966 0.47722 0.03665 0.0
C624 C 0.03824 0.44667 0.43262 0.0
C625 C 0.03673 0.4485 0.40427 0.0
C626 C 0.05012 0.46757 0.44794 0.0
C627 C 0.06098 0.49057 0.43436 0.0
C628 C 0.06153 0.4914 0.40554 0.0
C629 C 0.04932 0.4702 0.39077 0.0
C630 C 0.04813 0.46628 0.47861 0.0
C631 C 0.07317 0.51554 0.39043 0.0
C632 C 0.05814 0.55719 0.47315 0.0
C633 C 0.08463 0.55869 0.48348 0.0
C634 C 0.0502 0.53516 0.45687 0.0
C635 C 0.06952 0.51467 0.45035 0.0
C636 C 0.09653 0.51663 0.46019 0.0
C637 C 0.1036 0.53838 0.47718 0.0
C638 C 0.02109 0.53363 0.44699 0.0
C639 C 0.11778 0.49543 0.45347 0.0
H640 H 0.02778 0.4302 0.44295 0.0
H641 H 0.04748 0.47177 0.36881 0.0
H642 H 0.06632 0.47526 0.48854 0.0
H643 H 0.03003 0.47809 0.48529 0.0
H644 H 0.04567 0.44498 0.48588 0.0
H645 H 0.07015 0.51393 0.36807 0.0
H646 H 0.0636 0.53473 0.39759 0.0
H647 H 0.09532 0.51708 0.39468 0.0
H648 H 0.0435 0.5729 0.47825 0.0
H649 H 0.12414 0.53973 0.48522 0.0
H650 H 0.01106 0.51538 0.45577 0.0
H651 H 0.02056 0.53144 0.42451 0.0
H652 H 0.00907 0.55194 0.45274 0.0
H653 H 0.11441 0.4772 0.46641 0.0
H654 H 0.13874 0.50305 0.45729 0.0
H655 H 0.11625 0.48891 0.4319 0.0
C656 C 0.89045 0.93891 0.48719 0.0
C657 C 0.90424 0.91398 0.4855 0.0
C658 C 0.89992 0.96187 0.47284 0.0
C659 C 0.92361 0.95966 0.45646 0.0
C660 C 0.93788 0.93463 0.45527 0.0
C661 C 0.92788 0.91216 0.46955 0.0
C662 C 0.88425 0.98825 0.47472 0.0
C663 C 0.96423 0.93159 0.43963 0.0
C664 C 0.93768 0.00442 0.3954 0.0
C665 C 0.95669 0.02268 0.40627 0.0
C666 C 0.92556 0.98507 0.41202 0.0
C667 C 0.93326 0.98307 0.43982 0.0
C668 C 0.95232 0.00113 0.45076 0.0
C669 C 0.96338 0.02133 0.43391 0.0
C670 C 0.90613 0.9648 0.39944 0.0
C671 C 0.96226 -0.00102 0.4798 0.0
H672 H 0.87226 0.94045 0.49959 0.0
H673 H 0.9389 0.89306 0.46827 0.0
H674 H 0.89821 0.00518 0.4775 0.0
H675 H 0.87296 0.99155 0.45541 0.0
H676 H 0.86941 0.98807 0.49177 0.0
H677 H 0.96998 0.90987 0.43675 0.0
H678 H 0.96294 0.9414 0.41933 0.0
H679 H 0.98082 0.94179 0.4511 0.0
H680 H 0.93333 0.0049 0.37376 0.0
H681 H 0.97878 0.03501 0.44193 0.0
H682 H 0.8876 0.96273 0.41221 0.0
H683 H 0.91601 0.94447 0.39848 0.0
H684 H 0.89995 0.97077 0.37851 0.0
H685 H 0.94583 0.00558 0.4938 0.0
H686 H 0.98046 0.01189 0.48359 0.0
H687 H 0.96752 0.97818 0.485 0.0
C688 C 0.39284 0.53559 0.4869 0.0
C689 C 0.3912 0.56071 0.50019 0.0
C690 C 0.40011 0.51206 0.50139 0.0
C691 C 0.40421 0.51378 0.52989 0.0
C692 C 0.40348 0.53945 0.54309 0.0
C693 C 0.39738 0.56271 0.52787 0.0
C694 C 0.4029 0.48546 0.48619 0.0
C695 C 0.40942 0.54258 0.57315 0.0
C696 C 0.38943 0.45498 0.57769 0.0
C697 C 0.41586 0.4461 0.58347 0.0
C698 C 0.38522 0.47611 0.55872 0.0
C699 C 0.40803 0.48878 0.54626 0.0
C700 C 0.43458 0.47919 0.55161 0.0
C701 C 0.43802 0.45764 0.56972 0.0
C702 C 0.3567 0.48643 0.55357 0.0
C703 C 0.45952 0.49292 0.53996 0.0
H704 H 0.38903 0.53448 0.46518 0.0
H705 H 0.39683 0.58247 0.53776 0.0
H706 H 0.41954 0.47271 0.49466 0.0
H707 H 0.38363 0.47383 0.48813 0.0
H708 H 0.40692 0.48889 0.4642 0.0
H709 H 0.40286 0.56278 0.58101 0.0
H710 H 0.39919 0.5265 0.58526 0.0
H711 H 0.43166 0.5406 0.57663 0.0
H712 H 0.37243 0.44659 0.58896 0.0
H713 H 0.4585 0.45141 0.57521 0.0
H714 H 0.35274 0.48763 0.53134 0.0
H715 H 0.35458 0.50734 0.56195 0.0
H716 H 0.34103 0.47321 0.56309 0.0
H717 H 0.45833 0.49333 0.51742 0.0
H718 H 0.47872 0.48254 0.54606 0.0
H719 H 0.4605 0.51436 0.547 0.0
C720 C 0.59304 0.57077 -0.00098 0.0
C721 C 0.58104 0.56767 0.0248 0.0
C722 C 0.57712 0.57646 0.9765 0.0
C723 C 0.54884 0.58141 0.97924 0.0
C724 C 0.53737 0.58151 0.00502 0.0
C725 C 0.55341 0.57413 0.02782 0.0
C726 C 0.59059 0.57494 0.94887 0.0
C727 C 0.50742 0.58688 0.00921 0.0
C728 C 0.51381 0.6151 0.91852 0.0
C729 C 0.50098 0.59303 0.90573 0.0
C730 C 0.52938 0.61158 0.94229 0.0
C731 C 0.5316 0.5854 0.95425 0.0
C732 C 0.51836 0.56296 0.94151 0.0
C733 C 0.50364 0.56699 0.9171 0.0
C734 C 0.5433 0.63603 0.95471 0.0
C735 C 0.52017 0.53451 0.95312 0.0
H736 H 0.61437 0.56551 -0.00346 0.0
H737 H 0.54378 0.57111 0.04744 0.0
H738 H 0.57802 0.56292 0.93443 0.0
H739 H 0.59277 0.59575 0.94036 0.0
H740 H 0.61116 0.56552 0.94993 0.0
H741 H 0.50336 0.59453 0.0301 0.0
H742 H 0.49943 0.60189 -0.00572 0.0
H743 H 0.49604 0.56753 0.00652 0.0
H744 H 0.51176 0.63529 0.90975 0.0
H745 H 0.49366 0.54991 0.90737 0.0
H746 H 0.56569 0.63313 0.95433 0.0
H747 H 0.53717 0.63821 0.97635 0.0
H748 H 0.53838 0.65523 0.94376 0.0
H749 H 0.53977 0.52521 0.94679 0.0
H750 H 0.50335 0.52136 0.9456 0.0
H751 H 0.51964 0.53467 0.97569 0.0
C752 C 0.39117 0.95962 0.99086 0.0
C753 C 0.40078 0.96265 0.01696 0.0
C754 C 0.4073 0.9469 0.97094 0.0
C755 C 0.43354 0.93715 0.97807 0.0
C756 C 0.44291 0.93941 0.00465 0.0
C757 C 0.42617 0.95191 0.02421 0.0
C758 C 0.39659 0.9448 0.94215 0.0
C759 C 0.47131 0.93085 0.01284 0.0
C760 C 0.47231 0.88882 0.93123 0.0
C761 C 0.48912 0.90703 0.91726 0.0
C762 C 0.45353 0.8984 0.95063 0.0
C763 C 0.45238 0.92665 0.95672 0.0
C764 C 0.4699 0.94494 0.94293 0.0
C765 C 0.48786 0.9349 0.92321 0.0
C766 C 0.43451 0.87845 0.96416 0.0
C767 C 0.46895 0.9753 0.94805 0.0
H768 H 0.37148 0.96799 0.98527 0.0
H769 H 0.43371 0.95488 0.04475 0.0
H770 H 0.412 0.95198 0.92731 0.0
H771 H 0.39219 0.92315 0.93736 0.0
H772 H 0.3776 0.95678 0.93918 0.0
H773 H 0.47309 0.92804 0.03521 0.0
H774 H 0.47743 0.91163 0.00263 0.0
H775 H 0.48588 0.94696 0.00661 0.0
H776 H 0.47291 0.86735 0.92603 0.0
H777 H 0.50071 0.94897 0.91205 0.0
H778 H 0.41307 0.88461 0.96052 0.0
H779 H 0.43791 0.87869 0.98651 0.0
H780 H 0.43737 0.85732 0.95657 0.0
H781 H 0.4499 0.98376 0.93926 0.0
H782 H 0.48648 0.98608 0.93867 0.0
H783 H 0.46881 0.97974 0.97019 0.0
C784 C 0.49419 0.41235 0.54281 0.0
C785 C 0.50179 0.3966 0.56533 0.0
C786 C 0.51224 0.41618 0.521 0.0
C787 C 0.53752 0.40217 0.52103 0.0
C788 C 0.54512 0.38614 0.54379 0.0
C789 C 0.52724 0.38388 0.56586 0.0
C790 C 0.50408 0.43508 0.49807 0.0
C791 C 0.57222 0.37158 0.545 0.0
C792 C 0.56861 0.39779 0.4501 0.0
C793 C 0.5886 0.41799 0.4523 0.0
C794 C 0.5532 0.39056 0.47332 0.0
C795 C 0.55668 0.40543 0.49797 0.0
C796 C 0.57807 0.42437 0.5003 0.0
C797 C 0.59513 0.42832 0.47823 0.0
C798 C 0.53202 0.36844 0.47118 0.0
C799 C 0.58133 0.44318 0.52452 0.0
H800 H 0.47416 0.42153 0.5421 0.0
H801 H 0.53285 0.37155 0.58333 0.0
H802 H 0.52182 0.44656 0.49008 0.0
H803 H 0.49539 0.42294 0.48112 0.0
H804 H 0.48835 0.44992 0.50471 0.0
H805 H 0.57291 0.35625 0.56164 0.0
H806 H 0.57656 0.3612 0.52539 0.0
H807 H 0.58871 0.38657 0.54862 0.0
H808 H 0.56388 0.38908 0.43038 0.0
H809 H 0.61158 0.44292 0.48047 0.0
H810 H 0.51145 0.37775 0.47041 0.0
H811 H 0.53282 0.35503 0.48938 0.0
H812 H 0.53488 0.35582 0.45263 0.0
H813 H 0.56756 0.46094 0.52175 0.0
H814 H 0.60247 0.45108 0.52621 0.0
H815 H 0.57585 0.43329 0.544 0.0
C816 C 0.49035 0.05888 0.5418 0.0
C817 C 0.47991 0.07392 0.56353 0.0
C818 C 0.47343 0.0502 0.52057 0.0
C819 C 0.44561 0.05784 0.52084 0.0
C820 C 0.43492 0.07268 0.54317 0.0
C821 C 0.45227 0.08036 0.56445 0.0
C822 C 0.48562 0.0323 0.49869 0.0
C823 C 0.40505 0.07974 0.545 0.0
C824 C 0.40463 0.05582 0.45499 0.0
C825 C 0.39036 0.0314 0.45851 0.0
C826 C 0.42307 0.06471 0.47518 0.0
C827 C 0.42711 0.0487 0.49895 0.0
C828 C 0.41344 0.02372 0.502 0.0
C829 C 0.39539 0.01549 0.48189 0.0
C830 C 0.4386 0.09089 0.47112 0.0
C831 C 0.41861 0.00484 0.52583 0.0
H832 H 0.51167 0.05372 0.54148 0.0
H833 H 0.44437 0.09186 0.58157 0.0
H834 H 0.47199 0.0289 0.48101 0.0
H835 H 0.50491 0.04141 0.49124 0.0
H836 H 0.4908 0.01218 0.50768 0.0
H837 H 0.40082 0.09468 0.56147 0.0
H838 H 0.39761 0.08825 0.52542 0.0
H839 H 0.39324 0.06093 0.54922 0.0
H840 H 0.40136 0.06784 0.43676 0.0
H841 H 0.3856 -0.00414 0.48447 0.0
H842 H 0.4608 0.08653 0.47105 0.0
H843 H 0.43456 0.10499 0.48833 0.0
H844 H 0.43309 0.10121 0.45175 0.0
H845 H 0.43812 -0.00608 0.52245 0.0
H846 H 0.40227 0.98998 0.5281 0.0
H847 H 0.42038 0.01623 0.54525 0.0
C848 C -0.00524 0.59166 0.56028 0.0
C849 C 0.02216 0.58445 0.56484 0.0
C850 C 0.974 0.57377 0.56624 0.0
C851 C 0.97952 0.5495 0.58072 0.0
C852 C 0.00624 0.54363 0.58864 0.0
C853 C 0.02772 0.56084 0.57996 0.0
C854 C 0.94591 0.58036 0.55535 0.0
C855 C 0.01298 0.51814 0.60443 0.0
C856 C 0.91754 0.51913 0.61611 0.0
C857 C 0.91002 0.49842 0.59812 0.0
C858 C 0.94026 0.53568 0.61077 0.0
C859 C 0.95653 0.53063 0.58746 0.0
C860 C 0.94921 0.50913 0.56948 0.0
C861 C 0.92576 0.49352 0.57487 0.0
C862 C 0.94641 0.55909 0.62972 0.0
C863 C 0.96503 0.50354 0.54373 0.0
H864 H 0.99068 0.61021 0.54915 0.0
H865 H 0.0487 0.5549 0.5835 0.0
H866 H 0.93533 0.5618 0.54799 0.0
H867 H 0.93343 0.58947 0.57179 0.0
H868 H 0.94678 0.59517 0.53825 0.0
H869 H 0.03329 0.51958 0.61432 0.0
H870 H -0.00258 0.51406 0.62029 0.0
H871 H 0.01322 0.5005 0.5903 0.0
H872 H 0.9051 0.52293 0.63394 0.0
H873 H 0.9197 0.47751 0.56091 0.0
H874 H 0.94468 0.57867 0.61856 0.0
H875 H 0.96766 0.55745 0.6373 0.0
H876 H 0.93235 0.55976 0.64741 0.0
H877 H 0.95876 0.51843 0.52789 0.0
H878 H 0.96105 0.48271 0.5358 0.0
H879 H 0.98725 0.50592 0.54702 0.0
C880 C 0.95815 0.90257 0.59837 0.0
C881 C 0.95446 0.8837 0.57736 0.0
C882 C 0.98461 0.90978 0.60672 0.0
C883 C 0.00674 0.89993 0.59175 0.0
C884 C 0.00293 0.87917 0.57214 0.0
C885 C 0.97714 0.86981 0.56694 0.0
C886 C 0.98806 0.93026 0.62937 0.0
C887 C 0.02589 0.869 0.55429 0.0
C888 C 0.05932 0.95568 0.58365 0.0
C889 C 0.08044 0.94596 0.60001 0.0
C890 C 0.03582 0.94003 0.57962 0.0
C891 C 0.03308 0.91468 0.59333 0.0
C892 C 0.05508 0.90434 0.60892 0.0
C893 C 0.07862 0.92021 0.61201 0.0
C894 C 0.01409 0.95053 0.56045 0.0
C895 C 0.0537 0.87721 0.62336 0.0
H896 H 0.94068 0.91323 0.60666 0.0
H897 H 0.9741 0.85493 0.55092 0.0
H898 H 0.00698 0.92708 0.64044 0.0
H899 H 0.98816 0.95114 0.6207 0.0
H900 H 0.97097 0.92897 0.64411 0.0
H901 H 0.01819 0.85867 0.53568 0.0
H902 H 0.03938 0.88595 0.54787 0.0
H903 H 0.03842 0.85409 0.56576 0.0
H904 H 0.06137 0.97534 0.57376 0.0
H905 H 0.09545 0.91269 0.62423 0.0
H906 H -0.00392 0.95726 0.57227 0.0
H907 H 0.00735 0.9341 0.54644 0.0
H908 H 0.02135 0.96805 0.5481 0.0
H909 H 0.04518 0.88045 0.64401 0.0
H910 H 0.07431 0.86813 0.6257 0.0
H911 H 0.04046 0.86239 0.61272 0.0
C912 C 0.01803 0.40724 0.93215 0.0
C913 C 0.01442 0.39805 0.95898 0.0
C914 C -0.002 0.42372 0.91948 0.0
C915 C 0.97497 0.43161 0.93421 0.0
C916 C 0.97133 0.42232 0.96113 0.0
C917 C 0.99093 0.40541 0.97282 0.0
C918 C 0.0021 0.43303 0.8905 0.0
C919 C 0.94644 0.42961 0.97777 0.0
C920 C 0.93321 0.49374 0.91379 0.0
C921 C 0.91048 0.48144 0.90184 0.0
C922 C 0.95456 0.47774 0.92428 0.0
C923 C 0.95348 0.44894 0.92158 0.0
C924 C 0.9304 0.43662 0.90935 0.0
C925 C 0.90916 0.4531 0.89968 0.0
C926 C 0.97738 0.4915 0.93965 0.0
C927 C 0.92761 0.40608 0.90661 0.0
H928 H 0.03636 0.40174 0.9212 0.0
H929 H 0.98742 0.39859 0.9935 0.0
H930 H 0.98432 0.42837 0.87812 0.0
H931 H 0.00494 0.45546 0.89014 0.0
H932 H 0.0201 0.42325 0.8809 0.0
H933 H 0.95051 0.42736 -0.00076 0.0
H934 H 0.93953 0.45078 0.97385 0.0
H935 H 0.92956 0.41565 0.9722 0.0
H936 H 0.93363 0.51571 0.91613 0.0
H937 H 0.89126 0.44378 0.89068 0.0
H938 H -0.00354 0.48757 0.92923 0.0
H939 H 0.97899 0.48289 0.96049 0.0
H940 H 0.97432 0.51388 0.94135 0.0
H941 H 0.93766 0.39954 0.88747 0.0
H942 H 0.90588 0.39986 0.90551 0.0
H943 H 0.93734 0.39494 0.92368 0.0
C944 C 0.06038 0.02094 0.9213 0.0
C945 C 0.08195 0.03602 0.91055 0.0
C946 C 0.03745 0.03403 0.93188 0.0
C947 C 0.03561 0.06275 0.93012 0.0
C948 C 0.05791 0.07814 0.92018 0.0
C949 C 0.08115 0.06447 0.91081 0.0
C950 C 0.01516 0.01704 0.94453 0.0
C951 C 0.05754 0.10892 0.92011 0.0
C952 C 0.96701 0.09782 0.93036 0.0
C953 C 0.96517 0.10511 0.95783 0.0
C954 C 0.98986 0.083 0.92112 0.0
C955 C 0.01074 0.07673 0.9396 0.0
C956 C 0.00846 0.08384 0.96727 0.0
C957 C 0.98544 0.09652 0.97613 0.0
C958 C 0.99174 0.07482 0.89156 0.0
C959 C 0.03078 0.07858 0.9879 0.0
H960 H 0.06163 -0.00114 0.92171 0.0
H961 H 0.09831 0.07593 0.90297 0.0
H962 H 0.00797 0.02619 0.96386 0.0
H963 H -0.00246 0.01621 0.93038 0.0
H964 H 0.02204 -0.00412 0.9488 0.0
H965 H 0.07453 0.11759 0.90798 0.0
H966 H 0.03801 0.11676 0.91184 0.0
H967 H 0.05942 0.1164 0.94136 0.0
H968 H 0.95135 0.10435 0.91622 0.0
H969 H 0.98386 0.10126 -0.00308 0.0
H970 H -0.00532 0.05252 0.88998 0.0
H971 H 0.00885 0.0851 0.88195 0.0
H972 H 0.97302 0.08016 0.88 0.0
H973 H 0.02779 0.05821 -0.00346 0.0
H974 H 0.03052 0.09389 0.0038 0.0
H975 H 0.05135 0.07889 0.97863 0.0
C976 C 0.58896 0.00681 0.59238 0.0
C977 C 0.57314 0.02784 0.58108 0.0
C978 C 0.59664 0.9846 0.57664 0.0
C979 C 0.58644 0.98192 0.54974 0.0
C980 C 0.57129 0.003 0.53814 0.0
C981 C 0.5666 0.02669 0.55341 0.0
C982 C 0.61425 0.96271 0.58922 0.0
C983 C 0.55689 -0.0 0.5111 0.0
C984 C 0.61608 0.9316 0.49888 0.0
C985 C 0.60013 0.90836 0.50332 0.0
C986 C 0.61194 0.95549 0.51403 0.0
C987 C 0.59103 0.95638 0.53384 0.0
C988 C 0.57416 0.9332 0.53771 0.0
C989 C 0.57917 0.90936 0.52263 0.0
C990 C 0.63004 0.97981 0.50885 0.0
C991 C 0.55092 0.93313 0.55784 0.0
H992 H 0.59372 0.00732 0.61394 0.0
H993 H 0.55457 0.04292 0.54468 0.0
H994 H 0.60292 0.94321 0.59023 0.0
H995 H 0.63243 0.95921 0.57627 0.0
H996 H 0.62108 0.96817 0.61009 0.0
H997 H 0.55073 0.02005 0.50259 0.0
H998 H 0.5696 0.98984 0.49587 0.0
H999 H 0.53824 0.98825 0.51421 0.0
H1000 H 0.63218 0.93101 0.48381 0.0
H1001 H 0.56666 0.8915 0.52604 0.0
H1002 H 0.63959 0.98655 0.5282 0.0
H1003 H 0.61771 -0.00351 0.501 0.0
H1004 H 0.64636 0.97531 0.49386 0.0
H1005 H 0.55868 0.92674 0.57808 0.0
H1006 H 0.53484 0.91843 0.55173 0.0
H1007 H 0.54154 0.9536 0.55997 0.0
C1008 C 0.57747 0.06595 0.95503 0.0
C1009 C 0.59421 0.08586 0.94357 0.0
C1010 C 0.57165 0.04184 0.94092 0.0
C1011 C 0.58424 0.03707 0.9154 0.0
C1012 C 0.60083 0.05752 0.90355 0.0
C1013 C 0.60532 0.08195 0.91772 0.0
C1014 C 0.55237 0.02159 0.95377 0.0
C1015 C 0.61379 0.05362 0.87596 0.0
C1016 C 0.58826 0.96262 0.89588 0.0
C1017 C 0.56671 0.96088 0.87731 0.0
C1018 C 0.59504 0.98793 0.9077 0.0
C1019 C 0.57964 0.01094 0.90086 0.0
C1020 C 0.55879 0.00924 0.8811 0.0
C1021 C 0.5531 0.98469 0.86922 0.0
C1022 C 0.6176 0.98919 0.92856 0.0
C1023 C 0.54037 0.03302 0.87438 0.0
H1024 H 0.56899 0.06924 0.97509 0.0
H1025 H 0.61825 0.0976 0.90903 0.0
H1026 H 0.54083 0.00983 0.9383 0.0
H1027 H 0.56424 0.007 0.96634 0.0
H1028 H 0.53757 0.03196 0.96739 0.0
H1029 H 0.62909 0.06964 0.87142 0.0
H1030 H 0.62383 0.03337 0.87474 0.0
H1031 H 0.59784 0.0543 0.85996 0.0
H1032 H 0.59872 0.94422 0.90222 0.0
H1033 H 0.53649 0.9834 0.85468 0.0
H1034 H 0.60869 0.99216 0.94908 0.0
H1035 H 0.63112 0.00621 0.92442 0.0
H1036 H 0.63 0.97024 0.92883 0.0
H1037 H 0.52343 0.03345 0.88932 0.0
H1038 H 0.53133 0.0309 0.85373 0.0
H1039 H 0.55104 0.05286 0.87554 0.0
C1040 C 0.43964 0.52424 0.89108 0.0
C1041 C 0.4182 0.54175 0.88395 0.0
C1042 C 0.43527 0.50096 0.90648 0.0
C1043 C 0.40914 0.49623 0.91732 0.0
C1044 C 0.3881 0.51583 0.9135 0.0
C1045 C 0.39264 0.53825 0.89604 0.0
C1046 C 0.45787 0.48002 0.90781 0.0
C1047 C 0.36075 0.51246 0.92708 0.0
C1048 C 0.38763 0.42262 0.92598 0.0
C1049 C 0.39353 0.41837 0.95344 0.0
C1050 C 0.3924 0.44812 0.91402 0.0
C1051 C 0.40341 0.46952 0.93007 0.0
C1052 C 0.41059 0.46472 0.95756 0.0
C1053 C 0.40535 0.43914 0.96897 0.0
C1054 C 0.3854 0.45226 0.88434 0.0
C1055 C 0.42383 0.48641 0.97494 0.0
H1056 H 0.45952 0.52713 0.88201 0.0
H1057 H 0.37615 0.55203 0.89092 0.0
H1058 H 0.45857 0.46936 0.92766 0.0
H1059 H 0.45422 0.46441 0.89186 0.0
H1060 H 0.47814 0.4893 0.90399 0.0
H1061 H 0.34608 0.52857 0.92091 0.0
H1062 H 0.35187 0.49226 0.9222 0.0
H1063 H 0.36349 0.51328 0.9495 0.0
H1064 H 0.37832 0.40639 0.91424 0.0
H1065 H 0.41 0.43549 0.99026 0.0
H1066 H 0.40351 0.45978 0.87312 0.0
H1067 H 0.36925 0.46796 0.88235 0.0
H1068 H 0.37814 0.43322 0.87449 0.0
H1069 H 0.44545 0.48885 0.96892 0.0
H1070 H 0.42359 0.48107 -0.00379 0.0
H1071 H 0.41361 0.50639 0.97198 0.0
C1072 C 0.93092 0.07944 0.05262 0.0
C1073 C 0.90549 0.07983 0.03977 0.0
C1074 C 0.93868 0.05731 0.06889 0.0
C1075 C 0.92048 0.03517 0.0723 0.0
C1076 C 0.89413 0.0363 0.06064 0.0
C1077 C 0.88703 0.05858 0.04425 0.0
C1078 C 0.96693 0.05712 0.08109 0.0
C1079 C 0.87364 0.01384 0.06517 0.0
C1080 C 0.95675 0.96839 0.0802 0.0
C1081 C 0.95688 0.96524 0.10842 0.0
C1082 C 0.9438 0.99074 0.06813 0.0
C1083 C 0.93036 0.00951 0.08482 0.0
C1084 C 0.92876 0.00529 0.11332 0.0
C1085 C 0.94248 0.98355 0.12488 0.0
C1086 C 0.94644 -0.00584 0.03775 0.0
C1087 C 0.91489 0.02544 0.13195 0.0
H1088 H 0.94512 0.09599 0.04924 0.0
H1089 H 0.86705 0.05932 0.03484 0.0
H1090 H 0.96704 0.04766 0.1016 0.0
H1091 H 0.98064 0.045 0.06782 0.0
H1092 H 0.97541 0.07804 0.08274 0.0
H1093 H 0.85505 0.01654 0.05255 0.0
H1094 H 0.88278 0.99426 0.06046 0.0
H1095 H 0.86759 0.0136 0.08693 0.0
H1096 H 0.9686 0.9545 0.06774 0.0
H1097 H 0.94332 0.98133 0.14684 0.0
H1098 H 0.96061 0.01129 0.03369 0.0
H1099 H 0.92646 -0.0005 0.02861 0.0
H1100 H 0.95448 0.97627 0.02741 0.0
H1101 H 0.9299 0.04109 0.13833 0.0
H1102 H 0.90721 0.01523 0.15061 0.0
H1103 H 0.89767 0.03598 0.12176 0.0
C1104 C 0.99053 0.18073 0.32824 0.0
C1105 C 0.97774 0.16788 0.35016 0.0
C1106 C -0.0051 0.2088 0.32852 0.0
C1107 C 0.9879 0.22434 0.35159 0.0
C1108 C 0.97494 0.2114 0.37394 0.0
C1109 C 0.96954 0.18329 0.3727 0.0
C1110 C 0.0091 0.22168 0.30447 0.0
C1111 C 0.96681 0.22696 0.39918 0.0
C1112 C 0.01906 0.29515 0.35409 0.0
C1113 C -0.00162 0.31079 0.34201 0.0
C1114 C 0.01545 0.26699 0.3585 0.0
C1115 C 0.99121 0.25441 0.35061 0.0
C1116 C 0.9703 0.27025 0.33875 0.0
C1117 C 0.97473 0.29793 0.33392 0.0
C1118 C 0.03777 0.25085 0.37223 0.0
C1119 C 0.94316 0.25808 0.33078 0.0
H1120 H -0.0029 0.16852 0.31126 0.0
H1121 H 0.96058 0.17308 0.3901 0.0
H1122 H -0.00262 0.23951 0.29695 0.0
H1123 H 0.02946 0.22911 0.31085 0.0
H1124 H 0.01181 0.20714 0.28735 0.0
H1125 H 0.96614 0.21341 0.4173 0.0
H1126 H 0.98094 0.24406 0.40345 0.0
H1127 H 0.94613 0.2356 0.39616 0.0
H1128 H 0.03747 0.30508 0.36116 0.0
H1129 H 0.9585 0.30987 0.32481 0.0
H1130 H 0.04652 0.23603 0.3576 0.0
H1131 H 0.02934 0.239 0.38952 0.0
H1132 H 0.05441 0.26411 0.37992 0.0
H1133 H 0.94509 0.24845 0.31043 0.0
H1134 H 0.92697 0.27388 0.32959 0.0
H1135 H 0.93648 0.2422 0.34537 0.0
C1136 C 0.98334 0.69109 0.17951 0.0
C1137 C 0.00325 0.67671 0.1659 0.0
C1138 C 0.97994 0.71898 0.17551 0.0
C1139 C -0.00261 0.73295 0.158 0.0
C1140 C 0.01893 0.7188 0.14498 0.0
C1141 C 0.02178 0.69066 0.14935 0.0
C1142 C 0.95617 0.73323 0.18896 0.0
C1143 C 0.0387 0.73306 0.12625 0.0
C1144 C 0.97149 0.80236 0.13739 0.0
C1145 C 0.98405 0.8187 0.15704 0.0
C1146 C 0.97705 0.77432 0.13629 0.0
C1147 C -0.00545 0.76274 0.15565 0.0
C1148 C 0.00709 0.77932 0.17553 0.0
C1149 C 0.00098 0.80703 0.17627 0.0
C1150 C 0.96434 0.7573 0.11405 0.0
C1151 C 0.02687 0.76792 0.19622 0.0
H1152 H 0.96879 0.68011 0.19197 0.0
H1153 H 0.03725 0.67936 0.13835 0.0
H1154 H 0.96324 0.75136 0.20046 0.0
H1155 H 0.94173 0.74046 0.17312 0.0
H1156 H 0.94497 0.71966 0.20317 0.0
H1157 H 0.04821 0.7186 0.11168 0.0
H1158 H 0.02866 0.74963 0.11457 0.0
H1159 H 0.05517 0.74235 0.13864 0.0
H1160 H 0.95889 0.81175 0.12184 0.0
H1161 H 0.01114 0.81999 0.19102 0.0
H1162 H 0.94955 0.74283 0.12309 0.0
H1163 H 0.98017 0.74503 0.10357 0.0
H1164 H 0.95356 0.76998 0.09868 0.0
H1165 H 0.01523 0.75878 0.21328 0.0
H1166 H 0.0403 0.78404 0.20469 0.0
H1167 H 0.03991 0.75176 0.1873 0.0
C1168 C 0.33406 0.9696 0.18194 0.0
C1169 C 0.35771 0.97425 0.16693 0.0
C1170 C 0.33346 0.975 0.21 0.0
C1171 C 0.35681 0.98614 0.22287 0.0
C1172 C 0.38095 0.99031 0.20773 0.0
C1173 C 0.38118 0.98383 0.17999 0.0
C1174 C 0.3075 0.96995 0.22563 0.0
C1175 C 0.40648 0.00117 0.2205 0.0
C1176 C 0.34447 0.01908 0.29179 0.0
C1177 C 0.34979 -0.00289 0.3092 0.0
C1178 C 0.34748 0.01603 0.26338 0.0
C1179 C 0.3564 0.99125 0.25261 0.0
C1180 C 0.36336 0.96975 0.27032 0.0
C1181 C 0.3595 0.97308 0.29818 0.0
C1182 C 0.34117 0.03977 0.24488 0.0
C1183 C 0.37402 0.94273 0.25999 0.0
H1184 H 0.3157 0.96311 0.1715 0.0
H1185 H 0.39923 0.98813 0.168 0.0
H1186 H 0.3117 0.95753 0.24405 0.0
H1187 H 0.29893 0.98971 0.23255 0.0
H1188 H 0.29192 0.95931 0.21314 0.0
H1189 H 0.4197 0.01111 0.20508 0.0
H1190 H 0.40178 0.01621 0.23669 0.0
H1191 H 0.41827 0.98486 0.2299 0.0
H1192 H 0.33771 0.03832 0.30026 0.0
H1193 H 0.36461 0.95616 0.31145 0.0
H1194 H 0.32363 0.0346 0.23159 0.0
H1195 H 0.35881 0.04392 0.2314 0.0
H1196 H 0.33623 0.05858 0.25645 0.0
H1197 H 0.35665 0.93028 0.25262 0.0
H1198 H 0.38466 0.93109 0.27624 0.0
H1199 H 0.38832 0.94548 0.24277 0.0
C1200 C 0.61113 0.53027 0.19199 0.0
C1201 C 0.63229 0.52398 0.17382 0.0
C1202 C 0.60925 0.51716 0.21767 0.0
C1203 C 0.62924 0.49764 0.22552 0.0
C1204 C 0.65042 0.49127 0.20709 0.0
C1205 C 0.65187 0.5047 0.18188 0.0
C1206 C 0.58541 0.52361 0.23593 0.0
C1207 C 0.67082 0.46903 0.2133 0.0
C1208 C 0.65024 0.48888 0.29952 0.0
C1209 C 0.63875 0.46373 0.30684 0.0
C1210 C 0.64614 0.50038 0.27367 0.0
C1211 C 0.63056 0.48627 0.25395 0.0
C1212 C 0.6192 0.4605 0.26091 0.0
C1213 C 0.62334 0.4496 0.28733 0.0
C1214 C 0.65834 0.52796 0.26755 0.0
C1215 C 0.60147 0.44505 0.24115 0.0
H1216 H 0.59511 0.54403 0.18547 0.0
H1217 H 0.66758 0.49879 0.16753 0.0
H1218 H 0.57802 0.50504 0.24647 0.0
H1219 H 0.59195 0.53837 0.25174 0.0
H1220 H 0.56823 0.53278 0.22436 0.0
H1221 H 0.68769 0.46844 0.19826 0.0
H1222 H 0.6797 0.47171 0.23391 0.0
H1223 H 0.66032 0.44901 0.21295 0.0
H1224 H 0.66164 0.50031 0.31461 0.0
H1225 H 0.61332 0.4308 0.29311 0.0
H1226 H 0.64209 0.54236 0.26118 0.0
H1227 H 0.67295 0.52619 0.25042 0.0
H1228 H 0.66917 0.53677 0.28535 0.0
H1229 H 0.58079 0.4542 0.24113 0.0
H1230 H 0.59954 0.42324 0.24693 0.0
H1231 H 0.6095 0.44633 0.22009 0.0
C1232 C 0.29576 0.32918 0.98597 0.0
C1233 C 0.30916 0.34183 0.0072 0.0
C1234 C 0.26812 0.3333 0.98088 0.0
C1235 C 0.2529 0.34937 -0.00174 0.0
C1236 C 0.26559 0.36098 0.02156 0.0
C1237 C 0.29376 0.3571 0.02574 0.0
C1238 C 0.25575 0.32144 0.95526 0.0
C1239 C 0.2497 0.37764 0.04192 0.0
C1240 C 0.18496 0.37184 0.96855 0.0
C1241 C 0.16784 0.35098 0.97767 0.0
C1242 C 0.21249 0.37262 0.97663 0.0
C1243 C 0.22316 0.35185 -0.00679 0.0
C1244 C 0.20579 0.33084 0.00238 0.0
C1245 C 0.17867 0.33039 -0.00628 0.0
C1246 C 0.23019 0.39591 0.96723 0.0
C1247 C 0.21571 0.30858 0.02124 0.0
H1248 H 0.30756 0.31736 0.97152 0.0
H1249 H 0.3039 0.36721 0.04255 0.0
H1250 H 0.23775 0.30877 0.96031 0.0
H1251 H 0.24868 0.3382 0.94181 0.0
H1252 H 0.27042 0.30868 0.9437 0.0
H1253 H 0.26311 0.39199 0.05316 0.0
H1254 H 0.23311 0.38941 0.03202 0.0
H1255 H 0.24027 0.36368 0.05697 0.0
H1256 H 0.17644 0.38841 0.95667 0.0
H1257 H 0.16517 0.31472 0.00149 0.0
H1258 H 0.24509 0.38832 0.95206 0.0
H1259 H 0.24193 0.40442 0.98458 0.0
H1260 H 0.21808 0.41255 0.95776 0.0
H1261 H 0.22526 0.29219 0.00894 0.0
H1262 H 0.19867 0.29948 0.03298 0.0
H1263 H 0.23116 0.31623 0.03585 0.0
C1264 C 0.18394 0.65576 0.51653 0.0
C1265 C 0.17423 0.63243 0.52981 0.0
C1266 C 0.20943 0.65606 0.50346 0.0
C1267 C 0.2259 0.63232 0.50332 0.0
C1268 C 0.21627 0.60858 0.51688 0.0
C1269 C 0.19072 0.60904 0.53018 0.0
C1270 C 0.21816 0.68155 0.48863 0.0
C1271 C 0.2327 0.58258 0.5173 0.0
C1272 C 0.28726 0.63226 0.45417 0.0
C1273 C 0.30808 0.6421 0.47123 0.0
C1274 C 0.26041 0.6283 0.46423 0.0
C1275 C 0.25439 0.63388 0.49206 0.0
C1276 C 0.27549 0.64341 0.50917 0.0
C1277 C 0.30148 0.64819 0.49842 0.0
C1278 C 0.2387 0.6175 0.44535 0.0
C1279 C 0.27087 0.64889 0.5391 0.0
H1280 H 0.17074 0.67344 0.51497 0.0
H1281 H 0.18282 0.5905 0.53921 0.0
H1282 H 0.23899 0.68765 0.49495 0.0
H1283 H 0.21871 0.67746 0.46642 0.0
H1284 H 0.20413 0.69892 0.49236 0.0
H1285 H 0.21959 0.56449 0.52089 0.0
H1286 H 0.24399 0.5796 0.49798 0.0
H1287 H 0.24785 0.58369 0.53404 0.0
H1288 H 0.29211 0.62677 0.43337 0.0
H1289 H 0.3172 0.65569 0.51201 0.0
H1290 H 0.22247 0.63304 0.44276 0.0
H1291 H 0.22905 0.59914 0.45431 0.0
H1292 H 0.24695 0.61218 0.42498 0.0
H1293 H 0.26235 0.6697 0.54153 0.0
H1294 H 0.2902 0.64777 0.55084 0.0
H1295 H 0.25631 0.63425 0.54821 0.0
C1296 C 0.69077 0.81184 0.4924 0.0
C1297 C 0.68251 0.82207 0.46702 0.0
C1298 C 0.71726 0.81549 0.50206 0.0
C1299 C 0.73681 0.82818 0.48527 0.0
C1300 C 0.72922 0.83715 0.45877 0.0
C1301 C 0.70198 0.83408 0.44995 0.0
C1302 C 0.72371 0.80741 0.53108 0.0
C1303 C 0.74959 0.85043 0.44001 0.0
C1304 C 0.79961 0.85301 0.52347 0.0
C1305 C 0.81748 0.83104 0.51978 0.0
C1306 C 0.77368 0.85311 0.5112 0.0
C1307 C 0.76533 0.83036 0.49545 0.0
C1308 C 0.78325 0.80797 0.49216 0.0
C1309 C 0.80916 0.80868 0.50422 0.0
C1310 C 0.75559 0.8778 0.51445 0.0
C1311 C 0.77503 0.78312 0.47601 0.0
H1312 H 0.67581 0.80266 0.5058 0.0
H1313 H 0.69567 0.84241 0.4305 0.0
H1314 H 0.74279 0.79532 0.5321 0.0
H1315 H 0.72679 0.82606 0.54348 0.0
H1316 H 0.70709 0.79532 0.54051 0.0
H1317 H 0.73945 0.86184 0.42328 0.0
H1318 H 0.76313 0.86457 0.4513 0.0
H1319 H 0.76264 0.83442 0.43082 0.0
H1320 H 0.80658 0.87085 0.53449 0.0
H1321 H 0.82336 0.7921 0.50073 0.0
H1322 H 0.73683 0.8721 0.52564 0.0
H1323 H 0.74918 0.88549 0.49418 0.0
H1324 H 0.76588 0.89458 0.52563 0.0
H1325 H 0.76038 0.77092 0.48813 0.0
H1326 H 0.79277 0.76999 0.47099 0.0
H1327 H 0.76472 0.78906 0.45678 0.0
C1328 C 0.5226 0.79896 0.8583 0.0
C1329 C 0.5182 0.81676 0.83639 0.0
C1330 C 0.51007 0.77315 0.85912 0.0
C1331 C 0.49378 0.76446 0.83687 0.0
C1332 C 0.48944 0.78245 0.81468 0.0
C1333 C 0.50132 0.8085 0.81496 0.0
C1334 C 0.51395 0.7555 0.88402 0.0
C1335 C 0.47142 0.77459 0.79101 0.0
C1336 C 0.49165 0.68916 0.81957 0.0
C1337 C 0.46563 0.68117 0.82829 0.0
C1338 C 0.50108 0.71586 0.82312 0.0
C1339 C 0.48388 0.73567 0.83502 0.0
C1340 C 0.45724 0.72807 0.84337 0.0
C1341 C 0.44844 0.70084 0.83998 0.0
C1342 C 0.52982 0.72274 0.81457 0.0
C1343 C 0.43856 0.74814 0.85729 0.0
H1344 H 0.53458 0.80586 0.87553 0.0
H1345 H 0.49693 0.82273 0.79863 0.0
H1346 H 0.49487 0.74465 0.88931 0.0
H1347 H 0.52978 0.73993 0.87981 0.0
H1348 H 0.52061 0.76765 0.90192 0.0
H1349 H 0.47355 0.7889 0.77361 0.0
H1350 H 0.47618 0.75369 0.7838 0.0
H1351 H 0.44985 0.77478 0.79774 0.0
H1352 H 0.50526 0.67414 0.81079 0.0
H1353 H 0.42864 0.69474 0.84755 0.0
H1354 H 0.54169 0.72976 0.83247 0.0
H1355 H 0.52953 0.73964 0.79955 0.0
H1356 H 0.54058 0.70506 0.80541 0.0
H1357 H 0.44482 0.75017 0.87892 0.0
H1358 H 0.41703 0.74125 0.85679 0.0
H1359 H 0.43987 0.76863 0.84784 0.0
C1360 C 0.49086 0.29964 0.65216 0.0
C1361 C 0.46581 0.30726 0.64058 0.0
C1362 C 0.50126 0.2731 0.64957 0.0
C1363 C 0.48626 0.25315 0.63518 0.0
C1364 C 0.46044 0.26034 0.62405 0.0
C1365 C 0.45046 0.28729 0.62699 0.0
C1366 C 0.52899 0.2668 0.66137 0.0
C1367 C 0.44336 0.23969 0.60897 0.0
C1368 C 0.52693 0.19039 0.61184 0.0
C1369 C 0.52101 0.17162 0.63256 0.0
C1370 C 0.51516 0.21676 0.61189 0.0
C1371 C 0.49733 0.2246 0.63331 0.0
C1372 C 0.49169 0.2057 0.65435 0.0
C1373 C 0.50367 0.17969 0.65376 0.0
C1374 C 0.52094 0.23586 0.58852 0.0
C1375 C 0.47293 0.21278 0.67764 0.0
H1376 H 0.50304 0.31488 0.66251 0.0
H1377 H 0.43128 0.29298 0.61761 0.0
H1378 H 0.5284 0.24778 0.67357 0.0
H1379 H 0.5437 0.2636 0.64454 0.0
H1380 H 0.5367 0.28353 0.67452 0.0
H1381 H 0.42759 0.24963 0.59611 0.0
H1382 H 0.45616 0.22644 0.59589 0.0
H1383 H 0.43293 0.22639 0.62396 0.0
H1384 H 0.5394 0.18394 0.59482 0.0
H1385 H 0.49856 0.16507 0.66951 0.0
H1386 H 0.53121 0.25447 0.59621 0.0
H1387 H 0.50154 0.24241 0.57891 0.0
H1388 H 0.53402 0.22632 0.57273 0.0
H1389 H 0.48407 0.22577 0.69241 0.0
H1390 H 0.46567 0.19431 0.6885 0.0
H1391 H 0.45493 0.22442 0.67045 0.0
C1392 C 0.82451 0.5354 0.79567 0.0
C1393 C 0.83974 0.52202 0.81574 0.0
C1394 C 0.82552 0.52636 0.76834 0.0
C1395 C 0.84158 0.50323 0.76139 0.0
C1396 C 0.85859 0.4913 0.78131 0.0
C1397 C 0.85762 0.50103 0.80803 0.0
C1398 C 0.80847 0.54069 0.74714 0.0
C1399 C 0.87747 0.46785 0.7747 0.0
C1400 C 0.81685 0.4597 0.70173 0.0
C1401 C 0.83334 0.46938 0.68068 0.0
C1402 C 0.81979 0.4702 0.72837 0.0
C1403 C 0.83963 0.49063 0.73379 0.0
C1404 C 0.85754 0.49881 0.71285 0.0
C1405 C 0.85393 0.48833 0.68663 0.0
C1406 C 0.8015 0.45977 0.75071 0.0
C1407 C 0.87984 0.51951 0.71741 0.0
H1408 H 0.81098 0.55187 0.80145 0.0
H1409 H 0.87021 0.49128 0.82339 0.0
H1410 H 0.82009 0.54331 0.72795 0.0
H1411 H 0.79031 0.52807 0.74246 0.0
H1412 H 0.8015 0.56101 0.75426 0.0
H1413 H 0.88569 0.45795 0.79333 0.0
H1414 H 0.8669 0.45216 0.76233 0.0
H1415 H 0.89489 0.47551 0.76255 0.0
H1416 H 0.80119 0.4448 0.69724 0.0
H1417 H 0.86714 0.49546 0.67044 0.0
H1418 H 0.78857 0.47666 0.7584 0.0
H1419 H 0.81397 0.45233 0.76806 0.0
H1420 H 0.78811 0.44295 0.74367 0.0
H1421 H 0.87131 0.54025 0.71443 0.0
H1422 H 0.89674 0.51676 0.70262 0.0
H1423 H 0.88836 0.51843 0.73829 0.0
C1424 C 0.14421 0.97366 0.6876 0.0
C1425 C 0.16058 0.99323 0.67483 0.0
C1426 C 0.14167 0.97274 0.71577 0.0
C1427 C 0.15631 0.99164 0.73168 0.0
C1428 C 0.17231 0.01151 0.71901 0.0
C1429 C 0.17411 0.01221 0.69042 0.0
C1430 C 0.1228 0.95189 0.72833 0.0
C1431 C 0.18801 0.03212 0.73556 0.0
C1432 C 0.13187 -0.00034 0.80377 0.0
C1433 C 0.14985 0.98322 0.81802 0.0
C1434 C 0.13404 0.003 0.77568 0.0
C1435 C 0.15477 0.98946 0.7616 0.0
C1436 C 0.17252 0.97154 0.7758 0.0
C1437 C 0.16974 0.96849 0.8041 0.0
C1438 C 0.11438 0.02185 0.76123 0.0
C1439 C 0.1942 0.9554 0.76114 0.0
H1440 H 0.13275 0.95921 0.67542 0.0
H1441 H 0.18635 0.02759 0.68038 0.0
H1442 H 0.13299 0.94093 0.74527 0.0
H1443 H 0.10472 0.96238 0.73689 0.0
H1444 H 0.11561 0.93662 0.71325 0.0
H1445 H 0.1947 0.04969 0.72297 0.0
H1446 H 0.17567 0.03988 0.75281 0.0
H1447 H 0.20635 0.02212 0.74426 0.0
H1448 H 0.11653 0.01107 0.81487 0.0
H1449 H 0.18372 0.95561 0.81537 0.0
H1450 H 0.10161 0.00999 0.74685 0.0
H1451 H 0.12569 0.03717 0.74909 0.0
H1452 H 0.10073 0.03275 0.77561 0.0
H1453 H 0.18466 0.93735 0.75143 0.0
H1454 H 0.21027 0.9481 0.77533 0.0
H1455 H 0.20393 0.96766 0.74486 0.0
C1456 C 0.80186 0.14046 0.9686 0.0
C1457 C 0.81766 0.15184 0.98944 0.0
C1458 C 0.77362 0.1373 0.97191 0.0
C1459 C 0.76143 0.1462 -0.00434 0.0
C1460 C 0.77748 0.15679 0.017 0.0
C1461 C 0.80538 0.1599 0.01308 0.0
C1462 C 0.75722 0.12464 0.9492 0.0
C1463 C 0.76523 0.16467 0.04414 0.0
C1464 C 0.69123 0.17737 0.99278 0.0
C1465 C 0.67562 0.1574 0.00469 0.0
C1466 C 0.71921 0.17357 0.98939 0.0
C1467 C 0.73159 0.14894 -0.00232 0.0
C1468 C 0.71571 0.12883 0.01085 0.0
C1469 C 0.68779 0.13351 0.01451 0.0
C1470 C 0.73572 0.19567 0.97577 0.0
C1471 C 0.72765 0.10177 0.01945 0.0
H1472 H 0.81158 0.13331 0.95013 0.0
H1473 H 0.81756 0.16809 0.02958 0.0
H1474 H 0.74017 0.11224 0.9573 0.0
H1475 H 0.74839 0.14104 0.93638 0.0
H1476 H 0.7701 0.11153 0.936 0.0
H1477 H 0.78022 0.1748 0.05774 0.0
H1478 H 0.74763 0.17859 0.04126 0.0
H1479 H 0.75764 0.14612 0.05457 0.0
H1480 H 0.68146 0.19544 0.98459 0.0
H1481 H 0.67514 0.11762 0.02317 0.0
H1482 H 0.74569 0.18749 0.95724 0.0
H1483 H 0.75205 0.20276 0.98971 0.0
H1484 H 0.72307 0.2135 0.96985 0.0
H1485 H 0.73064 0.08889 0.00113 0.0
H1486 H 0.71402 0.09069 0.03369 0.0
H1487 H 0.74784 0.10439 0.02925 0.0
C1488 C 0.01157 0.96794 0.198 0.0
C1489 C 0.00192 0.94178 0.20402 0.0
C1490 C 0.00372 0.9904 0.21343 0.0
C1491 C 0.98718 0.98645 0.23619 0.0
C1492 C 0.9753 0.96056 0.24095 0.0
C1493 C 0.98296 0.93838 0.22451 0.0
C1494 C 0.01618 0.01716 0.20693 0.0
C1495 C 0.95595 0.95605 0.26437 0.0
C1496 C 0.01643 0.02549 0.29395 0.0
C1497 C -0.00106 0.04802 0.29594 0.0
C1498 C 0.01119 0.00433 0.27592 0.0
C1499 C 0.98892 0.00601 0.25846 0.0
C1500 C 0.97079 0.02843 0.26038 0.0
C1501 C 0.97622 0.04924 0.27939 0.0
C1502 C 0.03084 0.98108 0.27512 0.0
C1503 C 0.94643 0.03111 0.24182 0.0
H1504 H 0.02559 0.97097 0.18124 0.0
H1505 H 0.97456 0.91831 0.22828 0.0
H1506 H 0.00227 0.03416 0.21226 0.0
H1507 H 0.03523 0.0196 0.21886 0.0
H1508 H 0.02143 0.01877 0.18499 0.0
H1509 H 0.94927 0.93448 0.26591 0.0
H1510 H 0.96574 0.962 0.28386 0.0
H1511 H 0.9377 0.96913 0.26171 0.0
H1512 H 0.03419 0.02395 0.30698 0.0
H1513 H 0.96251 0.06649 0.28107 0.0
H1514 H 0.04287 0.98184 0.25603 0.0
H1515 H 0.01962 0.96148 0.27544 0.0
H1516 H 0.04529 0.98122 0.29254 0.0
H1517 H 0.9529 0.0409 0.22253 0.0
H1518 H 0.93035 0.04403 0.25113 0.0
H1519 H 0.93762 0.01094 0.2367 0.0
C1520 C 0.00535 0.4379 0.27763 0.0
C1521 C 0.9804 0.43466 0.29012 0.0
C1522 C 0.00944 0.45875 0.25824 0.0
C1523 C 0.98868 0.47762 0.25309 0.0
C1524 C 0.96274 0.47344 0.26485 0.0
C1525 C 0.95855 0.4509 0.28141 0.0
C1526 C 0.03673 0.46121 0.24437 0.0
C1527 C 0.93923 0.49311 0.26097 0.0
C1528 C -0.00659 0.55114 0.23184 0.0
C1529 C 0.97909 0.55007 0.20758 0.0
C1530 C -0.00034 0.527 0.24602 0.0
C1531 C 0.99209 0.5015 0.23496 0.0
C1532 C 0.97972 0.50048 0.209 0.0
C1533 C 0.97285 0.52477 0.19595 0.0
C1534 C 0.01256 0.52897 0.27384 0.0
C1535 C 0.97222 0.47373 0.19574 0.0
H1536 H 0.02233 0.42525 0.28395 0.0
H1537 H 0.93846 0.44788 0.29007 0.0
H1538 H 0.03434 0.46792 0.22291 0.0
H1539 H 0.04931 0.47657 0.25511 0.0
H1540 H 0.04797 0.44155 0.24474 0.0
H1541 H 0.92482 0.49227 0.27838 0.0
H1542 H 0.94613 0.51451 0.25883 0.0
H1543 H 0.9278 0.48746 0.24231 0.0
H1544 H -0.00108 0.57079 0.2403 0.0
H1545 H 0.96235 0.52391 0.17656 0.0
H1546 H 0.02991 0.51462 0.27556 0.0
H1547 H -0.0026 0.52316 0.28955 0.0
H1548 H 0.01995 0.54989 0.27836 0.0
H1549 H 0.99065 0.46073 0.19402 0.0
H1550 H 0.9633 0.47655 0.17512 0.0
H1551 H 0.95727 0.46253 0.2084 0.0
C1552 C 0.21761 0.02557 0.95471 0.0
C1553 C 0.21051 0.00495 0.93628 0.0
C1554 C 0.2319 0.0197 0.97852 0.0
C1555 C 0.2407 0.99326 0.98347 0.0
C1556 C 0.23422 0.97229 0.96479 0.0
C1557 C 0.21899 0.97865 0.94141 0.0
C1558 C 0.23853 0.04292 -0.00304 0.0
C1559 C 0.24329 0.94327 0.96957 0.0
C1560 C 0.30536 -0.00163 0.02219 0.0
C1561 C 0.29607 -0.0046 0.0489 0.0
C1562 C 0.28802 -0.00552 0.00016 0.0
C1563 C 0.26051 0.98845 0.00506 0.0
C1564 C 0.25147 0.98309 0.03199 0.0
C1565 C 0.26958 0.98698 0.05387 0.0
C1566 C 0.29847 3e-05 0.97255 0.0
C1567 C 0.22225 0.97587 0.03804 0.0
H1568 H 0.21128 0.04643 0.95103 0.0
H1569 H 0.21332 0.9625 0.92746 0.0
H1570 H 0.23986 0.03618 0.01846 0.0
H1571 H 0.25819 0.05201 0.9919 0.0
H1572 H 0.22288 0.05923 -0.00441 0.0
H1573 H 0.23848 0.92981 0.95202 0.0
H1574 H 0.26555 0.94248 0.97344 0.0
H1575 H 0.23301 0.93508 0.98792 0.0
H1576 H 0.32604 0.00501 0.01853 0.0
H1577 H 0.26264 0.98444 0.07466 0.0
H1578 H 0.29104 0.02021 0.96551 0.0
H1579 H 0.29101 0.98504 0.958 0.0
H1580 H 0.3211 0.00021 0.97193 0.0
H1581 H 0.21059 -0.00567 0.04179 0.0
H1582 H 0.22081 0.96305 0.05663 0.0
H1583 H 0.21248 0.96497 0.02084 0.0
C1584 C 0.67241 0.52754 0.0182 0.0
C1585 C 0.68178 0.53209 0.04481 0.0
C1586 C 0.68848 0.53369 -0.00446 0.0
C1587 C 0.71506 0.54401 -0.00052 0.0
C1588 C 0.72328 0.55198 0.02613 0.0
C1589 C 0.70639 0.54597 0.04864 0.0
C1590 C 0.67801 0.52579 0.96839 0.0
C1591 C 0.75085 0.56466 0.03104 0.0
C1592 C 0.7651 0.5039 0.9581 0.0
C1593 C 0.77631 0.52346 0.94057 0.0
C1594 C 0.74628 0.51098 0.97811 0.0
C1595 C 0.73575 0.53783 0.979 0.0
C1596 C 0.74461 0.5572 0.95939 0.0
C1597 C 0.7653 0.54992 0.94063 0.0
C1598 C 0.73911 0.48976 -0.00144 0.0
C1599 C 0.73259 0.58548 0.95837 0.0
H1600 H 0.65293 0.51764 0.01504 0.0
H1601 H 0.71325 0.55033 0.06916 0.0
H1602 H 0.68597 0.53973 0.95249 0.0
H1603 H 0.68502 0.50483 0.96357 0.0
H1604 H 0.65539 0.52594 0.96758 0.0
H1605 H 0.75497 0.56795 0.05303 0.0
H1606 H 0.76718 0.55154 0.02251 0.0
H1607 H 0.75194 0.58462 0.02049 0.0
H1608 H 0.77307 0.48327 0.95787 0.0
H1609 H 0.77378 0.5652 0.92715 0.0
H1610 H 0.71755 0.48358 -0.00399 0.0
H1611 H 0.74148 0.49825 0.01937 0.0
H1612 H 0.75198 0.47118 -0.0029 0.0
H1613 H 0.71228 0.58448 0.94848 0.0
H1614 H 0.74554 0.59972 0.9465 0.0
H1615 H 0.72957 0.59387 0.9791 0.0
C1616 C 0.26912 0.98921 0.43179 0.0
C1617 C 0.29616 0.98069 0.43474 0.0
C1618 C 0.25227 0.99169 0.45491 0.0
C1619 C 0.26383 0.98855 0.48132 0.0
C1620 C 0.29175 0.98272 0.48409 0.0
C1621 C 0.30661 0.97622 0.46098 0.0
C1622 C 0.22212 -0.00407 0.45096 0.0
C1623 C 0.30557 0.98083 0.51157 0.0
C1624 C 0.21971 0.00368 0.54289 0.0
C1625 C 0.21198 0.97783 0.55044 0.0
C1626 C 0.23735 0.00773 0.52073 0.0
C1627 C 0.24653 0.98541 0.50574 0.0
C1628 C 0.24039 0.95873 0.51489 0.0
C1629 C 0.22401 0.95538 0.53776 0.0
C1630 C 0.24516 0.03635 0.51265 0.0
C1631 C 0.24843 0.93354 0.49901 0.0
H1632 H 0.26082 0.99222 0.41155 0.0
H1633 H 0.32667 0.96764 0.46382 0.0
H1634 H 0.21 0.98337 0.46474 0.0
H1635 H 0.21723 0.01744 0.4558 0.0
H1636 H 0.21571 0.99251 0.42964 0.0
H1637 H 0.32774 0.98504 0.50986 0.0
H1638 H 0.29656 -0.00518 0.52632 0.0
H1639 H 0.30315 0.95993 0.51983 0.0
H1640 H 0.21029 0.02108 0.55271 0.0
H1641 H 0.21793 0.935 0.5438 0.0
H1642 H 0.23617 0.04137 0.49256 0.0
H1643 H 0.26762 0.03791 0.51061 0.0
H1644 H 0.23808 0.05171 0.52768 0.0
H1645 H 0.23628 0.93275 0.47995 0.0
H1646 H 0.24468 0.9145 0.51065 0.0
H1647 H 0.27019 0.93385 0.49318 0.0
C1648 C 0.78562 0.43753 0.52812 0.0
C1649 C 0.777 0.4511 0.55175 0.0
C1650 C 0.76814 0.43385 0.50575 0.0
C1651 C 0.74079 0.44285 0.50737 0.0
C1652 C 0.73109 0.45361 0.53249 0.0
C1653 C 0.74948 0.45819 0.55422 0.0
C1654 C 0.77998 0.42337 0.47939 0.0
C1655 C 0.70165 0.46184 0.53582 0.0
C1656 C 0.70803 0.47405 0.44429 0.0
C1657 C 0.68947 0.45402 0.43601 0.0
C1658 C 0.72499 0.47035 0.46701 0.0
C1659 C 0.72408 0.44555 0.4818 0.0
C1660 C 0.70693 0.42424 0.47235 0.0
C1661 C 0.68974 0.42873 0.44953 0.0
C1662 C 0.74253 0.49388 0.47628 0.0
C1663 C 0.70583 0.39723 0.48703 0.0
H1664 H 0.807 0.43242 0.52598 0.0
H1665 H 0.74278 0.46891 0.57231 0.0
H1666 H 0.76574 0.40912 0.46919 0.0
H1667 H 0.7834 0.4408 0.4654 0.0
H1668 H 0.79979 0.41287 0.48261 0.0
H1669 H 0.69793 0.47251 0.55542 0.0
H1670 H 0.69508 0.47533 0.51891 0.0
H1671 H 0.6887 0.44333 0.5351 0.0
H1672 H 0.70757 0.49376 0.43427 0.0
H1673 H 0.67503 0.41332 0.44373 0.0
H1674 H 0.76415 0.48738 0.47745 0.0
H1675 H 0.73628 0.50043 0.49697 0.0
H1676 H 0.74105 0.51173 0.46244 0.0
H1677 H 0.7246 0.38548 0.48254 0.0
H1678 H 0.68801 0.38485 0.48062 0.0
H1679 H 0.70495 0.40027 0.5094 0.0
C1680 C 0.0426 0.28792 0.97344 0.0
C1681 C 0.05431 0.29251 -0.00148 0.0
C1682 C 0.01913 0.2718 0.97058 0.0
C1683 C 0.00687 0.26083 -0.0066 0.0
C1684 C 0.01904 0.26469 0.01929 0.0
C1685 C 0.04302 0.27968 0.02132 0.0
C1686 C 0.00759 0.26676 0.94252 0.0
C1687 C 0.0072 0.25271 0.0451 0.0
C1688 C 0.93484 0.23408 -0.00398 0.0
C1689 C 0.94025 0.20655 0.00109 0.0
C1690 C 0.95637 0.25257 0.99328 0.0
C1691 C 0.98351 0.24246 0.99206 0.0
C1692 C 0.98868 0.21431 -0.00585 0.0
C1693 C 0.9673 0.19746 0.00158 0.0
C1694 C 0.9506 0.28277 0.9931 0.0
C1695 C 0.01602 0.20217 0.99134 0.0
H1696 H 0.05123 0.29771 0.95565 0.0
H1697 H 0.05209 0.28268 0.04125 0.0
H1698 H 0.00357 0.2447 0.93951 0.0
H1699 H 0.98848 0.27762 0.94029 0.0
H1700 H 0.02151 0.2739 0.9262 0.0
H1701 H 0.0132 0.26475 0.0633 0.0
H1702 H 0.98521 0.25171 0.04437 0.0
H1703 H 0.01514 0.23171 0.0479 0.0
H1704 H 0.91401 0.24137 -0.00326 0.0
H1705 H 0.97221 0.17733 0.00872 0.0
H1706 H 0.95885 0.29219 0.97436 0.0
H1707 H 0.9612 0.29248 0.00994 0.0
H1708 H 0.92868 0.28723 -0.00637 0.0
H1709 H 0.02378 0.20724 0.97074 0.0
H1710 H 0.01602 0.17964 0.99366 0.0
H1711 H 0.03075 0.21078 0.00558 0.0
C1712 C 0.05225 0.71019 0.53704 0.0
C1713 C 0.0485 0.68448 0.52535 0.0
C1714 C 0.0299 0.72797 0.5405 0.0
C1715 C 0.00335 0.71934 0.53271 0.0
C1716 C -0.00056 0.69247 0.52314 0.0
C1717 C 0.02203 0.67555 0.51938 0.0
C1718 C 0.03492 0.75647 0.55096 0.0
C1719 C 0.97238 0.68235 0.51413 0.0
C1720 C 0.94525 0.76818 0.54831 0.0
C1721 C 0.94341 0.7823 0.52355 0.0
C1722 C 0.96396 0.7465 0.5514 0.0
C1723 C 0.98148 0.73959 0.52948 0.0
C1724 C 0.9781 0.75263 0.50397 0.0
C1725 C 0.95873 0.7733 0.50127 0.0
C1726 C 0.96599 0.73194 0.57838 0.0
C1727 C -0.0038 0.74709 0.48013 0.0
H1728 H 0.0727 0.71694 0.54193 0.0
H1729 H 0.01903 0.65554 0.51057 0.0
H1730 H 0.02574 0.77179 0.53706 0.0
H1731 H 0.02511 0.75892 0.57114 0.0
H1732 H 0.05698 0.76099 0.55316 0.0
H1733 H 0.97146 0.65972 0.51399 0.0
H1734 H 0.956 0.69026 0.52752 0.0
H1735 H 0.96828 0.68964 0.49312 0.0
H1736 H 0.93359 0.77525 0.56566 0.0
H1737 H 0.95736 0.78431 0.48214 0.0
H1738 H 0.98565 0.73697 0.5883 0.0
H1739 H 0.96558 0.70955 0.57521 0.0
H1740 H 0.94919 0.73771 0.59238 0.0
H1741 H 0.01548 0.75848 0.48321 0.0
H1742 H 0.98761 0.75394 0.46059 0.0
H1743 H 0.00137 0.7252 0.47824 0.0
C1744 C 0.55417 0.75841 0.45301 0.0
C1745 C 0.55064 0.78246 0.468 0.0
C1746 C 0.53164 0.74145 0.44708 0.0
C1747 C 0.50509 0.74934 0.45565 0.0
C1748 C 0.50145 0.77486 0.46852 0.0
C1749 C 0.52415 0.79085 0.47468 0.0
C1750 C 0.53645 0.71451 0.43306 0.0
C1751 C 0.4739 0.7841 0.47866 0.0
C1752 C 0.44239 0.70529 0.43941 0.0
C1753 C 0.43909 0.6917 0.46437 0.0
C1754 C 0.46344 0.7248 0.43611 0.0
C1755 C 0.48248 0.72908 0.45755 0.0
C1756 C 0.47866 0.71559 0.48267 0.0
C1757 C 0.45608 0.69881 0.48624 0.0
C1758 C 0.46591 0.74006 0.40958 0.0
C1759 C 0.4997 0.7167 0.5052 0.0
H1760 H 0.57455 0.75223 0.44722 0.0
H1761 H 0.52109 0.80986 0.48553 0.0
H1762 H 0.52711 0.69764 0.44485 0.0
H1763 H 0.52668 0.71479 0.4127 0.0
H1764 H 0.55848 0.71009 0.43036 0.0
H1765 H 0.47312 0.80656 0.48143 0.0
H1766 H 0.45743 0.77798 0.46444 0.0
H1767 H 0.46983 0.77447 0.4987 0.0
H1768 H 0.42963 0.69974 0.42227 0.0
H1769 H 0.45363 0.68843 0.5056 0.0
H1770 H 0.4847 0.73363 0.39886 0.0
H1771 H 0.46761 0.76227 0.41352 0.0
H1772 H 0.44821 0.73636 0.39596 0.0
H1773 H 0.51805 0.70523 0.49863 0.0
H1774 H 0.49221 0.70749 0.52444 0.0
H1775 H 0.50614 0.73788 0.50959 0.0
C1776 C 0.43073 0.53884 0.77574 0.0
C1777 C 0.45146 0.55791 0.77089 0.0
C1778 C 0.42854 0.51484 0.76012 0.0
C1779 C 0.44624 0.51061 0.73775 0.0
C1780 C 0.46469 0.53172 0.73047 0.0
C1781 C 0.46754 0.55474 0.74752 0.0
C1782 C 0.40942 0.49272 0.76957 0.0
C1783 C 0.48227 0.5296 0.70534 0.0
C1784 C 0.47094 0.43974 0.71661 0.0
C1785 C 0.45348 0.43329 0.69495 0.0
C1786 C 0.46779 0.46405 0.73156 0.0
C1787 C 0.44745 0.48323 0.72391 0.0
C1788 C 0.42905 0.47627 0.70272 0.0
C1789 C 0.43161 0.45091 0.68935 0.0
C1790 C 0.48735 0.46996 0.75455 0.0
C1791 C 0.40767 0.4961 0.69285 0.0
H1792 H 0.41824 0.54102 0.79375 0.0
H1793 H 0.48365 0.56932 0.74364 0.0
H1794 H 0.39724 0.48472 0.75234 0.0
H1795 H 0.42153 0.47548 0.77786 0.0
H1796 H 0.3953 0.49997 0.78567 0.0
H1797 H 0.4991 0.54472 0.70547 0.0
H1798 H 0.49116 0.50894 0.7031 0.0
H1799 H 0.4694 0.53344 0.68713 0.0
H1800 H 0.48818 0.42653 0.72072 0.0
H1801 H 0.41804 0.4462 0.67262 0.0
H1802 H 0.47582 0.47461 0.77341 0.0
H1803 H 0.4998 0.48815 0.74959 0.0
H1804 H 0.50133 0.45261 0.75863 0.0
H1805 H 0.3894 0.49458 0.70599 0.0
H1806 H 0.40128 0.49156 0.67161 0.0
H1807 H 0.41511 0.51744 0.69367 0.0
C1808 C 0.50627 0.95078 0.76596 0.0
C1809 C 0.52803 0.93852 0.77984 0.0
C1810 C 0.51035 0.97321 0.74895 0.0
C1811 C 0.53721 0.98154 0.74267 0.0
C1812 C 0.55958 0.96678 0.75362 0.0
C1813 C 0.55475 0.94581 0.77277 0.0
C1814 C 0.48553 0.98864 0.73904 0.0
C1815 C 0.58849 0.97437 0.74663 0.0
C1816 C 0.53321 0.02117 0.67773 0.0
C1817 C 0.53189 0.04802 0.68735 0.0
C1818 C 0.5377 -0.00075 0.69532 0.0
C1819 C 0.54107 0.00418 0.72345 0.0
C1820 C 0.54235 0.03154 0.73304 0.0
C1821 C 0.53754 0.05327 0.71477 0.0
C1822 C 0.53613 0.97124 0.68404 0.0
C1823 C 0.54575 0.03803 0.76287 0.0
H1824 H 0.48559 0.94511 0.77131 0.0
H1825 H 0.5717 0.93675 0.78368 0.0
H1826 H 0.48942 0.0102 0.73704 0.0
H1827 H 0.47942 0.98068 0.71881 0.0
H1828 H 0.468 0.98595 0.75308 0.0
H1829 H 0.6031 0.95809 0.75252 0.0
H1830 H 0.59056 0.97844 0.7245 0.0
H1831 H 0.59412 0.9933 0.75762 0.0
H1832 H 0.5288 0.01704 0.65655 0.0
H1833 H 0.53639 0.07402 0.72228 0.0
H1834 H 0.51608 0.96223 0.68922 0.0
H1835 H 0.55216 0.95814 0.69319 0.0
H1836 H 0.53836 0.97089 0.66153 0.0
H1837 H 0.52531 0.03996 0.77229 0.0
H1838 H 0.55651 0.05774 0.76564 0.0
H1839 H 0.55711 0.02188 0.77388 0.0
C1840 C 0.44737 0.2915 0.01361 0.0
C1841 C 0.42871 0.28562 0.99331 0.0
C1842 C 0.47205 0.27728 0.01585 0.0
C1843 C 0.47803 0.25642 -0.00308 0.0
C1844 C 0.45793 0.24855 0.9782 0.0
C1845 C 0.43355 0.2633 0.97631 0.0
C1846 C 0.49266 0.28617 0.03688 0.0
C1847 C 0.46263 0.22525 0.95861 0.0
C1848 C 0.54926 0.23932 0.97432 0.0
C1849 C 0.55389 0.21491 0.98824 0.0
C1850 C 0.52535 0.25436 0.97893 0.0
C1851 C 0.50553 0.24389 -0.00377 0.0
C1852 C 0.51081 0.21988 0.01123 0.0
C1853 C 0.53547 0.20611 0.00727 0.0
C1854 C 0.52048 0.28013 0.96283 0.0
C1855 C 0.48985 0.20776 0.03021 0.0
H1856 H 0.44387 0.30911 0.0265 0.0
H1857 H 0.41922 0.25879 0.96011 0.0
H1858 H 0.50105 0.26826 0.04784 0.0
H1859 H 0.50991 0.29649 0.02658 0.0
H1860 H 0.48377 0.30049 0.05198 0.0
H1861 H 0.44928 0.22683 0.94039 0.0
H1862 H 0.48407 0.2242 0.95164 0.0
H1863 H 0.45787 0.2058 0.96911 0.0
H1864 H 0.56347 0.2457 0.9587 0.0
H1865 H 0.53889 0.18687 0.01759 0.0
H1866 H 0.51555 0.29718 0.97683 0.0
H1867 H 0.50274 0.27733 0.94909 0.0
H1868 H 0.53841 0.28593 0.95035 0.0
H1869 H 0.49022 0.21901 0.04979 0.0
H1870 H 0.49397 0.18596 0.03453 0.0
H1871 H 0.46898 0.20939 0.02169 0.0
loop_
_geom_bond_atom_site_label_1
_geom_bond_atom_site_label_2
_geom_bond_distance
_geom_bond_site_symmetry_2
_ccdc_geom_bond_type
Co0 O1 2.216 1_655 S
Co0 O2 2.091 . S
Co0 O4 2.004 . S
Co0 O10 2.021 . S
Co0 O12 2.137 1_655 S
Co0 O13 2.244 1_655 S
O1 Co0 2.216 1_455 S
O1 C8 1.247 1_455 S
O2 Co0 2.091 . S
O2 C8 1.261 . S
C3 O12 1.247 . S
C3 O13 1.272 . S
O4 Co0 2.004 . S
O4 C9 1.259 . S
Co5 O6 2.061 1_455 S
Co5 O11 2.052 . S
Co5 O13 2.135 . S
O6 Co5 2.061 1_655 S
O6 C9 1.235 . S
C7 O10 1.238 1_455 S
C7 O11 1.241 . S
C8 O1 1.247 1_655 S
C8 O2 1.261 . S
C9 O4 1.259 . S
C9 O6 1.235 . S
O10 Co0 2.021 . S
O10 C7 1.238 1_655 S
O11 Co5 2.052 . S
O11 C7 1.241 . S
O12 Co0 2.137 1_455 S
O12 C3 1.247 . S
O13 Co0 2.244 1_455 S
O13 C3 1.272 . S
O13 Co5 2.135 . S
Co14 O15 2.216 1_455 S
Co14 O16 2.091 . S
Co14 O18 2.004 . S
Co14 O24 2.021 . S
Co14 O26 2.137 1_455 S
Co14 O27 2.244 1_455 S
O15 Co14 2.216 1_655 S
O15 C22 1.247 1_655 S
O16 Co14 2.091 . S
O16 C22 1.261 . S
C17 O26 1.247 . S
C17 O27 1.272 . S
O18 Co14 2.004 . S
O18 C23 1.259 . S
Co19 O20 2.061 1_655 S
Co19 O25 2.052 . S
Co19 O27 2.135 . S
O20 Co19 2.061 1_455 S
O20 C23 1.235 . S
C21 O24 1.238 1_655 S
C21 O25 1.241 . S
C22 O15 1.247 1_455 S
C22 O16 1.261 . S
C23 O18 1.259 . S
C23 O20 1.235 . S
O24 Co14 2.021 . S
O24 C21 1.238 1_455 S
O25 Co19 2.052 . S
O25 C21 1.241 . S
O26 Co14 2.137 1_655 S
O26 C17 1.247 . S
O27 Co14 2.244 1_655 S
O27 C17 1.272 . S
O27 Co19 2.135 . S
Co28 O29 2.216 1_655 S
Co28 O30 2.091 . S
Co28 O32 2.004 . S
Co28 O38 2.021 . S
Co28 O40 2.137 1_655 S
Co28 O41 2.244 1_655 S
O29 Co28 2.216 1_455 S
O29 C36 1.247 1_455 S
O30 Co28 2.091 . S
O30 C36 1.261 . S
C31 O40 1.247 . S
C31 O41 1.272 . S
O32 Co28 2.004 . S
O32 C37 1.259 . S
Co33 O34 2.061 1_455 S
Co33 O39 2.052 . S
Co33 O41 2.135 . S
O34 Co33 2.061 1_655 S
O34 C37 1.235 . S
C35 O38 1.238 1_455 S
C35 O39 1.241 . S
C36 O29 1.247 1_655 S
C36 O30 1.261 . S
C37 O32 1.259 . S
C37 O34 1.235 . S
O38 Co28 2.021 . S
O38 C35 1.238 1_655 S
O39 Co33 2.052 . S
O39 C35 1.241 . S
O40 Co28 2.137 1_455 S
O40 C31 1.247 . S
O41 Co28 2.244 1_455 S
O41 C31 1.272 . S
O41 Co33 2.135 . S
Co42 O43 2.216 1_455 S
Co42 O44 2.091 . S
Co42 O46 2.004 . S
Co42 O52 2.021 . S
Co42 O54 2.137 1_455 S
Co42 O55 2.244 1_455 S
O43 Co42 2.216 1_655 S
O43 C50 1.247 1_655 S
O44 Co42 2.091 . S
O44 C50 1.261 . S
C45 O54 1.247 . S
C45 O55 1.272 . S
O46 Co42 2.004 . S
O46 C51 1.259 . S
Co47 O48 2.061 1_655 S
Co47 O53 2.052 . S
Co47 O55 2.135 . S
O48 Co47 2.061 1_455 S
O48 C51 1.235 . S
C49 O52 1.238 1_655 S
C49 O53 1.241 . S
C50 O43 1.247 1_455 S
C50 O44 1.261 . S
C51 O46 1.259 . S
C51 O48 1.235 . S
O52 Co42 2.021 . S
O52 C49 1.238 1_455 S
O53 Co47 2.052 . S
O53 C49 1.241 . S
O54 Co42 2.137 1_655 S
O54 C45 1.247 . S
O55 Co42 2.244 1_655 S
O55 C45 1.272 . S
O55 Co47 2.135 . S
Co56 O57 2.216 1_565 S
Co56 O58 2.091 . S
Co56 O60 2.004 . S
Co56 O66 2.021 . S
Co56 O68 2.137 1_565 S
Co56 O69 2.244 1_565 S
O57 Co56 2.216 1_545 S
O57 C64 1.247 1_545 S
O58 Co56 2.091 . S
O58 C64 1.261 . S
C59 O68 1.247 . S
C59 O69 1.272 . S
O60 Co56 2.004 . S
O60 C65 1.259 . S
Co61 O62 2.061 1_545 S
Co61 O67 2.052 . S
Co61 O69 2.135 . S
O62 Co61 2.061 1_565 S
O62 C65 1.235 . S
C63 O66 1.238 1_545 S
C63 O67 1.241 . S
C64 O57 1.247 1_565 S
C64 O58 1.261 . S
C65 O60 1.259 . S
C65 O62 1.235 . S
O66 Co56 2.021 . S
O66 C63 1.238 1_565 S
O67 Co61 2.052 . S
O67 C63 1.241 . S
O68 Co56 2.137 1_545 S
O68 C59 1.247 . S
O69 Co56 2.244 1_545 S
O69 C59 1.272 . S
O69 Co61 2.135 . S
Co70 O71 2.216 . S
Co70 O72 2.091 . S
Co70 O74 2.004 . S
Co70 O80 2.021 . S
Co70 O82 2.137 . S
Co70 O83 2.244 . S
O71 Co70 2.216 . S
O71 C78 1.247 . S
O72 Co70 2.091 . S
O72 C78 1.261 . S
C73 O82 1.247 . S
C73 O83 1.272 . S
O74 Co70 2.004 . S
O74 C79 1.259 . S
Co75 O76 2.061 . S
Co75 O81 2.052 . S
Co75 O83 2.135 . S
O76 Co75 2.061 . S
O76 C79 1.235 . S
C77 O80 1.238 . S
C77 O81 1.241 . S
C78 O71 1.247 . S
C78 O72 1.261 . S
C79 O74 1.259 . S
C79 O76 1.235 . S
O80 Co70 2.021 . S
O80 C77 1.238 . S
O81 Co75 2.052 . S
O81 C77 1.241 . S
O82 Co70 2.137 . S
O82 C73 1.247 . S
O83 Co70 2.244 . S
O83 C73 1.272 . S
O83 Co75 2.135 . S
Co84 O85 2.216 1_545 S
Co84 O86 2.091 . S
Co84 O88 2.004 . S
Co84 O94 2.021 . S
Co84 O96 2.137 1_545 S
Co84 O97 2.244 1_545 S
O85 Co84 2.216 1_565 S
O85 C92 1.247 1_565 S
O86 Co84 2.091 . S
O86 C92 1.261 . S
C87 O96 1.247 . S
C87 O97 1.272 . S
O88 Co84 2.004 . S
O88 C93 1.259 . S
Co89 O90 2.061 1_565 S
Co89 O95 2.052 . S
Co89 O97 2.135 . S
O90 Co89 2.061 1_545 S
O90 C93 1.235 . S
C91 O94 1.238 1_565 S
C91 O95 1.241 . S
C92 O85 1.247 1_545 S
C92 O86 1.261 . S
C93 O88 1.259 . S
C93 O90 1.235 . S
O94 Co84 2.021 . S
O94 C91 1.238 1_545 S
O95 Co89 2.052 . S
O95 C91 1.241 . S
O96 Co84 2.137 1_565 S
O96 C87 1.247 . S
O97 Co84 2.244 1_565 S
O97 C87 1.272 . S
O97 Co89 2.135 . S
Co98 O99 2.216 . S
Co98 O100 2.091 . S
Co98 O102 2.004 . S
Co98 O108 2.021 . S
Co98 O110 2.137 . S
Co98 O111 2.244 . S
O99 Co98 2.216 . S
O99 C106 1.247 . S
O100 Co98 2.091 . S
O100 C106 1.261 . S
C101 O110 1.247 . S
C101 O111 1.272 . S
O102 Co98 2.004 . S
O102 C107 1.259 . S
Co103 O104 2.061 . S
Co103 O109 2.052 . S
Co103 O111 2.135 . S
O104 Co103 2.061 . S
O104 C107 1.235 . S
C105 O108 1.238 . S
C105 O109 1.241 . S
C106 O99 1.247 . S
C106 O100 1.261 . S
C107 O102 1.259 . S
C107 O104 1.235 . S
O108 Co98 2.021 . S
O108 C105 1.238 . S
O109 Co103 2.052 . S
O109 C105 1.241 . S
O110 Co98 2.137 . S
O110 C101 1.247 . S
O111 Co98 2.244 . S
O111 C101 1.272 . S
O111 Co103 2.135 . S
Co112 O113 2.216 1_556 S
Co112 O114 2.091 . S
Co112 O116 2.004 . S
Co112 O122 2.021 . S
Co112 O124 2.137 1_556 S
Co112 O125 2.244 1_556 S
O113 Co112 2.216 1_554 S
O113 C120 1.247 1_554 S
O114 Co112 2.091 . S
O114 C120 1.261 . S
C115 O124 1.247 . S
C115 O125 1.272 . S
O116 Co112 2.004 . S
O116 C121 1.259 . S
Co117 O118 2.061 1_554 S
Co117 O123 2.052 . S
Co117 O125 2.135 . S
O118 Co117 2.061 1_556 S
O118 C121 1.235 . S
C119 O122 1.238 1_554 S
C119 O123 1.241 . S
C120 O113 1.247 1_556 S
C120 O114 1.261 . S
C121 O116 1.259 . S
C121 O118 1.235 . S
O122 Co112 2.021 . S
O122 C119 1.238 1_556 S
O123 Co117 2.052 . S
O123 C119 1.241 . S
O124 Co112 2.137 1_554 S
O124 C115 1.247 . S
O125 Co112 2.244 1_554 S
O125 C115 1.272 . S
O125 Co117 2.135 . S
Co126 O127 2.216 . S
Co126 O128 2.091 . S
Co126 O130 2.004 . S
Co126 O136 2.021 . S
Co126 O138 2.137 . S
Co126 O139 2.244 . S
O127 Co126 2.216 . S
O127 C134 1.247 . S
O128 Co126 2.091 . S
O128 C134 1.261 . S
C129 O138 1.247 . S
C129 O139 1.272 . S
O130 Co126 2.004 . S
O130 C135 1.259 . S
Co131 O132 2.061 . S
Co131 O137 2.052 . S
Co131 O139 2.135 . S
O132 Co131 2.061 . S
O132 C135 1.235 . S
C133 O136 1.238 . S
C133 O137 1.241 . S
C134 O127 1.247 . S
C134 O128 1.261 . S
C135 O130 1.259 . S
C135 O132 1.235 . S
O136 Co126 2.021 . S
O136 C133 1.238 . S
O137 Co131 2.052 . S
O137 C133 1.241 . S
O138 Co126 2.137 . S
O138 C129 1.247 . S
O139 Co126 2.244 . S
O139 C129 1.272 . S
O139 Co131 2.135 . S
Co140 O141 2.216 . S
Co140 O142 2.091 . S
Co140 O144 2.004 . S
Co140 O150 2.021 . S
Co140 O152 2.137 . S
Co140 O153 2.244 . S
O141 Co140 2.216 . S
O141 C148 1.247 . S
O142 Co140 2.091 . S
O142 C148 1.261 . S
C143 O152 1.247 . S
C143 O153 1.272 . S
O144 Co140 2.004 . S
O144 C149 1.259 . S
Co145 O146 2.061 . S
Co145 O151 2.052 . S
Co145 O153 2.135 . S
O146 Co145 2.061 . S
O146 C149 1.235 . S
C147 O150 1.238 . S
C147 O151 1.241 . S
C148 O141 1.247 . S
C148 O142 1.261 . S
C149 O144 1.259 . S
C149 O146 1.235 . S
O150 Co140 2.021 . S
O150 C147 1.238 . S
O151 Co145 2.052 . S
O151 C147 1.241 . S
O152 Co140 2.137 . S
O152 C143 1.247 . S
O153 Co140 2.244 . S
O153 C143 1.272 . S
O153 Co145 2.135 . S
Co154 O155 2.216 . S
Co154 O156 2.091 . S
Co154 O158 2.004 . S
Co154 O164 2.021 . S
Co154 O166 2.137 . S
Co154 O167 2.244 . S
O155 Co154 2.216 . S
O155 C162 1.247 . S
O156 Co154 2.091 . S
O156 C162 1.261 . S
C157 O166 1.247 . S
C157 O167 1.272 . S
O158 Co154 2.004 . S
O158 C163 1.259 . S
Co159 O160 2.061 . S
Co159 O165 2.052 . S
Co159 O167 2.135 . S
O160 Co159 2.061 . S
O160 C163 1.235 . S
C161 O164 1.238 . S
C161 O165 1.241 . S
C162 O155 1.247 . S
C162 O156 1.261 . S
C163 O158 1.259 . S
C163 O160 1.235 . S
O164 Co154 2.021 . S
O164 C161 1.238 . S
O165 Co159 2.052 . S
O165 C161 1.241 . S
O166 Co154 2.137 . S
O166 C157 1.247 . S
O167 Co154 2.244 . S
O167 C157 1.272 . S
O167 Co159 2.135 . S
Co168 O169 2.216 . S
Co168 O170 2.091 . S
Co168 O172 2.004 . S
Co168 O178 2.021 . S
Co168 O180 2.137 . S
Co168 O181 2.244 . S
O169 Co168 2.216 . S
O169 C176 1.247 . S
O170 Co168 2.091 . S
O170 C176 1.261 . S
C171 O180 1.247 . S
C171 O181 1.272 . S
O172 Co168 2.004 . S
O172 C177 1.259 . S
Co173 O174 2.061 . S
Co173 O179 2.052 . S
Co173 O181 2.135 . S
O174 Co173 2.061 . S
O174 C177 1.235 . S
C175 O178 1.238 . S
C175 O179 1.241 . S
C176 O169 1.247 . S
C176 O170 1.261 . S
C177 O172 1.259 . S
C177 O174 1.235 . S
O178 Co168 2.021 . S
O178 C175 1.238 . S
O179 Co173 2.052 . S
O179 C175 1.241 . S
O180 Co168 2.137 . S
O180 C171 1.247 . S
O181 Co168 2.244 . S
O181 C171 1.272 . S
O181 Co173 2.135 . S
Co182 O183 2.216 . S
Co182 O184 2.091 . S
Co182 O186 2.004 . S
Co182 O192 2.021 . S
Co182 O194 2.137 . S
Co182 O195 2.244 . S
O183 Co182 2.216 . S
O183 C190 1.247 . S
O184 Co182 2.091 . S
O184 C190 1.261 . S
C185 O194 1.247 . S
C185 O195 1.272 . S
O186 Co182 2.004 . S
O186 C191 1.259 . S
Co187 O188 2.061 . S
Co187 O193 2.052 . S
Co187 O195 2.135 . S
O188 Co187 2.061 . S
O188 C191 1.235 . S
C189 O192 1.238 . S
C189 O193 1.241 . S
C190 O183 1.247 . S
C190 O184 1.261 . S
C191 O186 1.259 . S
C191 O188 1.235 . S
O192 Co182 2.021 . S
O192 C189 1.238 . S
O193 Co187 2.052 . S
O193 C189 1.241 . S
O194 Co182 2.137 . S
O194 C185 1.247 . S
O195 Co182 2.244 . S
O195 C185 1.272 . S
O195 Co187 2.135 . S
Co196 O197 2.216 . S
Co196 O198 2.091 . S
Co196 O200 2.004 . S
Co196 O206 2.021 . S
Co196 O208 2.137 . S
Co196 O209 2.244 . S
O197 Co196 2.216 . S
O197 C204 1.247 . S
O198 Co196 2.091 . S
O198 C204 1.261 . S
C199 O208 1.247 . S
C199 O209 1.272 . S
O200 Co196 2.004 . S
O200 C205 1.259 . S
Co201 O202 2.061 . S
Co201 O207 2.052 . S
Co201 O209 2.135 . S
O202 Co201 2.061 . S
O202 C205 1.235 . S
C203 O206 1.238 . S
C203 O207 1.241 . S
C204 O197 1.247 . S
C204 O198 1.261 . S
C205 O200 1.259 . S
C205 O202 1.235 . S
O206 Co196 2.021 . S
O206 C203 1.238 . S
O207 Co201 2.052 . S
O207 C203 1.241 . S
O208 Co196 2.137 . S
O208 C199 1.247 . S
O209 Co196 2.244 . S
O209 C199 1.272 . S
O209 Co201 2.135 . S
Co210 O211 2.216 . S
Co210 O212 2.091 . S
Co210 O214 2.004 . S
Co210 O220 2.021 . S
Co210 O222 2.137 . S
Co210 O223 2.244 . S
O211 Co210 2.216 . S
O211 C218 1.247 . S
O212 Co210 2.091 . S
O212 C218 1.261 . S
C213 O222 1.247 . S
C213 O223 1.272 . S
O214 Co210 2.004 . S
O214 C219 1.259 . S
Co215 O216 2.061 . S
Co215 O221 2.052 . S
Co215 O223 2.135 . S
O216 Co215 2.061 . S
O216 C219 1.235 . S
C217 O220 1.238 . S
C217 O221 1.241 . S
C218 O211 1.247 . S
C218 O212 1.261 . S
C219 O214 1.259 . S
C219 O216 1.235 . S
O220 Co210 2.021 . S
O220 C217 1.238 . S
O221 Co215 2.052 . S
O221 C217 1.241 . S
O222 Co210 2.137 . S
O222 C213 1.247 . S
O223 Co210 2.244 . S
O223 C213 1.272 . S
O223 Co215 2.135 . S
Co224 O225 2.216 . S
Co224 O226 2.091 . S
Co224 O228 2.004 . S
Co224 O234 2.021 . S
Co224 O236 2.137 . S
Co224 O237 2.244 . S
O225 Co224 2.216 . S
O225 C232 1.247 . S
O226 Co224 2.091 . S
O226 C232 1.261 . S
C227 O236 1.247 . S
C227 O237 1.272 . S
O228 Co224 2.004 . S
O228 C233 1.259 . S
Co229 O230 2.061 . S
Co229 O235 2.052 . S
Co229 O237 2.135 . S
O230 Co229 2.061 . S
O230 C233 1.235 . S
C231 O234 1.238 . S
C231 O235 1.241 . S
C232 O225 1.247 . S
C232 O226 1.261 . S
C233 O228 1.259 . S
C233 O230 1.235 . S
O234 Co224 2.021 . S
O234 C231 1.238 . S
O235 Co229 2.052 . S
O235 C231 1.241 . S
O236 Co224 2.137 . S
O236 C227 1.247 . S
O237 Co224 2.244 . S
O237 C227 1.272 . S
O237 Co229 2.135 . S
Co238 O239 2.216 1_545 S
Co238 O240 2.091 . S
Co238 O242 2.004 . S
Co238 O248 2.021 . S
Co238 O250 2.137 1_545 S
Co238 O251 2.244 1_545 S
O239 Co238 2.216 1_565 S
O239 C246 1.247 1_565 S
O240 Co238 2.091 . S
O240 C246 1.261 . S
C241 O250 1.247 . S
C241 O251 1.272 . S
O242 Co238 2.004 . S
O242 C247 1.259 . S
Co243 O244 2.061 1_565 S
Co243 O249 2.052 . S
Co243 O251 2.135 . S
O244 Co243 2.061 1_545 S
O244 C247 1.235 . S
C245 O248 1.238 1_565 S
C245 O249 1.241 . S
C246 O239 1.247 1_545 S
C246 O240 1.261 . S
C247 O242 1.259 . S
C247 O244 1.235 . S
O248 Co238 2.021 . S
O248 C245 1.238 1_545 S
O249 Co243 2.052 . S
O249 C245 1.241 . S
O250 Co238 2.137 1_565 S
O250 C241 1.247 . S
O251 Co238 2.244 1_565 S
O251 C241 1.272 . S
O251 Co243 2.135 . S
Co252 O253 2.216 . S
Co252 O254 2.091 . S
Co252 O256 2.004 . S
Co252 O262 2.021 . S
Co252 O264 2.137 . S
Co252 O265 2.244 . S
O253 Co252 2.216 . S
O253 C260 1.247 . S
O254 Co252 2.091 . S
O254 C260 1.261 . S
C255 O264 1.247 . S
C255 O265 1.272 . S
O256 Co252 2.004 . S
O256 C261 1.259 . S
Co257 O258 2.061 . S
Co257 O263 2.052 . S
Co257 O265 2.135 . S
O258 Co257 2.061 . S
O258 C261 1.235 . S
C259 O262 1.238 . S
C259 O263 1.241 . S
C260 O253 1.247 . S
C260 O254 1.261 . S
C261 O256 1.259 . S
C261 O258 1.235 . S
O262 Co252 2.021 . S
O262 C259 1.238 . S
O263 Co257 2.052 . S
O263 C259 1.241 . S
O264 Co252 2.137 . S
O264 C255 1.247 . S
O265 Co252 2.244 . S
O265 C255 1.272 . S
O265 Co257 2.135 . S
Co266 O267 2.216 1_565 S
Co266 O268 2.091 . S
Co266 O270 2.004 . S
Co266 O276 2.021 . S
Co266 O278 2.137 1_565 S
Co266 O279 2.244 1_565 S
O267 Co266 2.216 1_545 S
O267 C274 1.247 1_545 S
O268 Co266 2.091 . S
O268 C274 1.261 . S
C269 O278 1.247 . S
C269 O279 1.272 . S
O270 Co266 2.004 . S
O270 C275 1.259 . S
Co271 O272 2.061 1_545 S
Co271 O277 2.052 . S
Co271 O279 2.135 . S
O272 Co271 2.061 1_565 S
O272 C275 1.235 . S
C273 O276 1.238 1_545 S
C273 O277 1.241 . S
C274 O267 1.247 1_565 S
C274 O268 1.261 . S
C275 O270 1.259 . S
C275 O272 1.235 . S
O276 Co266 2.021 . S
O276 C273 1.238 1_565 S
O277 Co271 2.052 . S
O277 C273 1.241 . S
O278 Co266 2.137 1_545 S
O278 C269 1.247 . S
O279 Co266 2.244 1_545 S
O279 C269 1.272 . S
O279 Co271 2.135 . S
Co280 O281 2.216 . S
Co280 O282 2.091 . S
Co280 O284 2.004 . S
Co280 O290 2.021 . S
Co280 O292 2.137 . S
Co280 O293 2.244 . S
O281 Co280 2.216 . S
O281 C288 1.247 . S
O282 Co280 2.091 . S
O282 C288 1.261 . S
C283 O292 1.247 . S
C283 O293 1.272 . S
O284 Co280 2.004 . S
O284 C289 1.259 . S
Co285 O286 2.061 . S
Co285 O291 2.052 . S
Co285 O293 2.135 . S
O286 Co285 2.061 . S
O286 C289 1.235 . S
C287 O290 1.238 . S
C287 O291 1.241 . S
C288 O281 1.247 . S
C288 O282 1.261 . S
C289 O284 1.259 . S
C289 O286 1.235 . S
O290 Co280 2.021 . S
O290 C287 1.238 . S
O291 Co285 2.052 . S
O291 C287 1.241 . S
O292 Co280 2.137 . S
O292 C283 1.247 . S
O293 Co280 2.244 . S
O293 C283 1.272 . S
O293 Co285 2.135 . S
Co294 O295 2.216 1_554 S
Co294 O296 2.091 . S
Co294 O298 2.004 . S
Co294 O304 2.021 . S
Co294 O306 2.137 1_554 S
Co294 O307 2.244 1_554 S
O295 Co294 2.216 1_556 S
O295 C302 1.247 1_556 S
O296 Co294 2.091 . S
O296 C302 1.261 . S
C297 O306 1.247 . S
C297 O307 1.272 . S
O298 Co294 2.004 . S
O298 C303 1.259 . S
Co299 O300 2.061 1_556 S
Co299 O305 2.052 . S
Co299 O307 2.135 . S
O300 Co299 2.061 1_554 S
O300 C303 1.235 . S
C301 O304 1.238 1_556 S
C301 O305 1.241 . S
C302 O295 1.247 1_554 S
C302 O296 1.261 . S
C303 O298 1.259 . S
C303 O300 1.235 . S
O304 Co294 2.021 . S
O304 C301 1.238 1_554 S
O305 Co299 2.052 . S
O305 C301 1.241 . S
O306 Co294 2.137 1_556 S
O306 C297 1.247 . S
O307 Co294 2.244 1_556 S
O307 C297 1.272 . S
O307 Co299 2.135 . S
Co308 O309 2.216 1_554 S
Co308 O310 2.091 . S
Co308 O312 2.004 . S
Co308 O318 2.021 . S
Co308 O320 2.137 1_554 S
Co308 O321 2.244 1_554 S
O309 Co308 2.216 1_556 S
O309 C316 1.247 1_556 S
O310 Co308 2.091 . S
O310 C316 1.261 . S
C311 O320 1.247 . S
C311 O321 1.272 . S
O312 Co308 2.004 . S
O312 C317 1.259 . S
Co313 O314 2.061 1_556 S
Co313 O319 2.052 . S
Co313 O321 2.135 . S
O314 Co313 2.061 1_554 S
O314 C317 1.235 . S
C315 O318 1.238 1_556 S
C315 O319 1.241 . S
C316 O309 1.247 1_554 S
C316 O310 1.261 . S
C317 O312 1.259 . S
C317 O314 1.235 . S
O318 Co308 2.021 . S
O318 C315 1.238 1_554 S
O319 Co313 2.052 . S
O319 C315 1.241 . S
O320 Co308 2.137 1_556 S
O320 C311 1.247 . S
O321 Co308 2.244 1_556 S
O321 C311 1.272 . S
O321 Co313 2.135 . S
Co322 O323 2.216 1_556 S
Co322 O324 2.091 . S
Co322 O326 2.004 . S
Co322 O332 2.021 . S
Co322 O334 2.137 1_556 S
Co322 O335 2.244 1_556 S
O323 Co322 2.216 1_554 S
O323 C330 1.247 1_554 S
O324 Co322 2.091 . S
O324 C330 1.261 . S
C325 O334 1.247 . S
C325 O335 1.272 . S
O326 Co322 2.004 . S
O326 C331 1.259 . S
Co327 O328 2.061 1_554 S
Co327 O333 2.052 . S
Co327 O335 2.135 . S
O328 Co327 2.061 1_556 S
O328 C331 1.235 . S
C329 O332 1.238 1_554 S
C329 O333 1.241 . S
C330 O323 1.247 1_556 S
C330 O324 1.261 . S
C331 O326 1.259 . S
C331 O328 1.235 . S
O332 Co322 2.021 . S
O332 C329 1.238 1_556 S
O333 Co327 2.052 . S
O333 C329 1.241 . S
O334 Co322 2.137 1_554 S
O334 C325 1.247 . S
O335 Co322 2.244 1_554 S
O335 C325 1.272 . S
O335 Co327 2.135 . S
C336 C337 1.391 . S
C336 C338 1.394 . S
C336 H352 0.931 . S
C337 C336 1.391 . S
C337 C341 1.376 . S
C338 C336 1.394 . S
C338 C339 1.369 . S
C338 C342 1.531 . S
C339 C338 1.369 . S
C339 C340 1.410 . S
C339 C347 1.503 . S
C340 C339 1.410 . S
C340 C341 1.392 . S
C340 C343 1.511 . S
C341 C337 1.376 . S
C341 C340 1.392 . S
C341 H353 0.929 . S
C342 C338 1.531 . S
C342 H354 0.960 . S
C342 H355 0.962 . S
C342 H356 0.960 . S
C343 C340 1.511 . S
C343 H357 0.961 . S
C343 H358 0.961 . S
C343 H359 0.961 . S
C344 C345 1.370 . S
C344 C346 1.363 . S
C344 H360 0.931 . S
C345 C344 1.370 . S
C345 C349 1.408 . S
C346 C344 1.363 . S
C346 C347 1.370 . S
C346 C350 1.524 . S
C347 C339 1.503 . S
C347 C346 1.370 . S
C347 C348 1.403 . S
C348 C347 1.403 . S
C348 C349 1.404 . S
C348 C351 1.539 . S
C349 C345 1.408 . S
C349 C348 1.404 . S
C349 H361 0.930 . S
C350 C346 1.524 . S
C350 H362 0.956 . S
C350 H363 0.961 . S
C350 H364 0.961 . S
C351 C348 1.539 . S
C351 H365 0.958 . S
C351 H366 0.961 . S
C351 H367 0.960 . S
H352 C336 0.931 . S
H353 C341 0.929 . S
H354 C342 0.960 . S
H355 C342 0.962 . S
H356 C342 0.960 . S
H357 C343 0.961 . S
H358 C343 0.961 . S
H359 C343 0.961 . S
H360 C344 0.931 . S
H361 C349 0.930 . S
H362 C350 0.956 . S
H363 C350 0.961 . S
H364 C350 0.961 . S
H365 C351 0.958 . S
H366 C351 0.961 . S
H367 C351 0.960 . S
C368 C369 1.391 . S
C368 C370 1.394 . S
C368 H384 0.931 . S
C369 C368 1.391 . S
C369 C373 1.376 . S
C370 C368 1.394 . S
C370 C371 1.369 . S
C370 C374 1.531 . S
C371 C370 1.369 . S
C371 C372 1.410 . S
C371 C379 1.503 . S
C372 C371 1.410 . S
C372 C373 1.392 . S
C372 C375 1.511 . S
C373 C369 1.376 . S
C373 C372 1.392 . S
C373 H385 0.929 . S
C374 C370 1.531 . S
C374 H386 0.960 . S
C374 H387 0.962 . S
C374 H388 0.960 . S
C375 C372 1.511 . S
C375 H389 0.961 . S
C375 H390 0.961 . S
C375 H391 0.961 . S
C376 C377 1.370 . S
C376 C378 1.363 . S
C376 H392 0.931 . S
C377 C376 1.370 . S
C377 C381 1.408 . S
C378 C376 1.363 . S
C378 C379 1.370 . S
C378 C382 1.524 . S
C379 C371 1.503 . S
C379 C378 1.370 . S
C379 C380 1.403 . S
C380 C379 1.403 . S
C380 C381 1.404 . S
C380 C383 1.539 . S
C381 C377 1.408 . S
C381 C380 1.404 . S
C381 H393 0.930 . S
C382 C378 1.524 . S
C382 H394 0.956 . S
C382 H395 0.961 . S
C382 H396 0.961 . S
C383 C380 1.539 . S
C383 H397 0.958 . S
C383 H398 0.961 . S
C383 H399 0.960 . S
H384 C368 0.931 . S
H385 C373 0.929 . S
H386 C374 0.960 . S
H387 C374 0.962 . S
H388 C374 0.960 . S
H389 C375 0.961 . S
H390 C375 0.961 . S
H391 C375 0.961 . S
H392 C376 0.931 . S
H393 C381 0.930 . S
H394 C382 0.956 . S
H395 C382 0.961 . S
H396 C382 0.961 . S
H397 C383 0.958 . S
H398 C383 0.961 . S
H399 C383 0.960 . S
C400 C401 1.391 . S
C400 C402 1.394 . S
C400 H416 0.931 . S
C401 C400 1.391 . S
C401 C405 1.376 . S
C402 C400 1.394 . S
C402 C403 1.369 . S
C402 C406 1.531 . S
C403 C402 1.369 . S
C403 C404 1.410 . S
C403 C411 1.503 . S
C404 C403 1.410 . S
C404 C405 1.392 . S
C404 C407 1.511 . S
C405 C401 1.376 . S
C405 C404 1.392 . S
C405 H417 0.929 . S
C406 C402 1.531 . S
C406 H418 0.960 . S
C406 H419 0.962 . S
C406 H420 0.960 . S
C407 C404 1.511 . S
C407 H421 0.961 . S
C407 H422 0.961 . S
C407 H423 0.961 . S
C408 C409 1.370 . S
C408 C410 1.363 1_556 S
C408 H424 0.931 . S
C409 C408 1.370 . S
C409 C413 1.408 . S
C410 C408 1.363 1_554 S
C410 C411 1.370 . S
C410 C414 1.524 . S
C411 C403 1.503 . S
C411 C410 1.370 . S
C411 C412 1.403 . S
C412 C411 1.403 . S
C412 C413 1.404 1_554 S
C412 C415 1.539 . S
C413 C409 1.408 . S
C413 C412 1.404 1_556 S
C413 H425 0.930 . S
C414 C410 1.524 . S
C414 H426 0.956 . S
C414 H427 0.961 . S
C414 H428 0.953 1_565 S
C415 C412 1.539 . S
C415 H429 0.958 . S
C415 H430 0.961 1_554 S
C415 H431 0.960 . S
H416 C400 0.931 . S
H417 C405 0.929 . S
H418 C406 0.960 . S
H419 C406 0.962 . S
H420 C406 0.960 . S
H421 C407 0.961 . S
H422 C407 0.961 . S
H423 C407 0.961 . S
H424 C408 0.931 . S
H425 C413 0.930 . S
H426 C414 0.956 . S
H427 C414 0.961 . S
H428 C414 0.953 1_545 S
H429 C415 0.958 . S
H430 C415 0.961 1_556 S
H431 C415 0.960 . S
C432 C433 1.391 . S
C432 C434 1.394 . S
C432 H448 0.931 . S
C433 C432 1.391 . S
C433 C437 1.376 . S
C434 C432 1.394 . S
C434 C435 1.369 . S
C434 C438 1.531 . S
C435 C434 1.369 . S
C435 C436 1.410 . S
C435 C443 1.503 . S
C436 C435 1.410 . S
C436 C437 1.392 . S
C436 C439 1.511 . S
C437 C433 1.376 . S
C437 C436 1.392 . S
C437 H449 0.929 . S
C438 C434 1.531 . S
C438 H450 0.960 . S
C438 H451 0.962 . S
C438 H452 0.960 . S
C439 C436 1.511 . S
C439 H453 0.961 . S
C439 H454 0.961 . S
C439 H455 0.961 . S
C440 C441 1.370 . S
C440 C442 1.363 1_556 S
C440 H456 0.931 . S
C441 C440 1.370 . S
C441 C445 1.408 . S
C442 C440 1.363 1_554 S
C442 C443 1.370 . S
C442 C446 1.524 . S
C443 C435 1.503 . S
C443 C442 1.370 . S
C443 C444 1.403 1_554 S
C444 C443 1.403 1_556 S
C444 C445 1.404 . S
C444 C447 1.539 . S
C445 C441 1.408 . S
C445 C444 1.404 . S
C445 H457 0.930 . S
C446 C442 1.524 . S
C446 H458 0.956 . S
C446 H459 0.961 . S
C446 H460 0.961 . S
C447 C444 1.539 . S
C447 H461 0.958 . S
C447 H462 0.961 . S
C447 H463 0.960 1_556 S
H448 C432 0.931 . S
H449 C437 0.929 . S
H450 C438 0.960 . S
H451 C438 0.962 . S
H452 C438 0.960 . S
H453 C439 0.961 . S
H454 C439 0.961 . S
H455 C439 0.961 . S
H456 C440 0.931 . S
H457 C445 0.930 . S
H458 C446 0.956 . S
H459 C446 0.961 . S
H460 C446 0.961 . S
H461 C447 0.958 . S
H462 C447 0.961 . S
H463 C447 0.960 1_554 S
C464 C465 1.391 . S
C464 C466 1.394 . S
C464 H480 0.931 . S
C465 C464 1.391 . S
C465 C469 1.376 . S
C466 C464 1.394 . S
C466 C467 1.369 . S
C466 C470 1.531 . S
C467 C466 1.369 . S
C467 C468 1.410 . S
C467 C475 1.503 . S
C468 C467 1.410 . S
C468 C469 1.392 . S
C468 C471 1.511 . S
C469 C465 1.376 . S
C469 C468 1.392 . S
C469 H481 0.929 . S
C470 C466 1.531 . S
C470 H482 0.960 . S
C470 H483 0.962 . S
C470 H484 0.960 . S
C471 C468 1.511 . S
C471 H485 0.961 . S
C471 H486 0.961 . S
C471 H487 0.961 . S
C472 C473 1.370 . S
C472 C474 1.363 . S
C472 H488 0.931 . S
C473 C472 1.370 . S
C473 C477 1.408 . S
C474 C472 1.363 . S
C474 C475 1.370 . S
C474 C478 1.524 . S
C475 C467 1.503 . S
C475 C474 1.370 . S
C475 C476 1.403 . S
C476 C475 1.403 . S
C476 C477 1.404 . S
C476 C479 1.539 . S
C477 C473 1.408 . S
C477 C476 1.404 . S
C477 H489 0.930 . S
C478 C474 1.524 . S
C478 H490 0.956 . S
C478 H491 0.961 . S
C478 H492 0.961 . S
C479 C476 1.539 . S
C479 H493 0.958 . S
C479 H494 0.961 . S
C479 H495 0.960 . S
H480 C464 0.931 . S
H481 C469 0.929 . S
H482 C470 0.960 . S
H483 C470 0.962 . S
H484 C470 0.960 . S
H485 C471 0.961 . S
H486 C471 0.961 . S
H487 C471 0.961 . S
H488 C472 0.931 . S
H489 C477 0.930 . S
H490 C478 0.956 . S
H491 C478 0.961 . S
H492 C478 0.961 . S
H493 C479 0.958 . S
H494 C479 0.961 . S
H495 C479 0.960 . S
C496 C497 1.391 . S
C496 C498 1.394 . S
C496 H512 0.931 . S
C497 C496 1.391 . S
C497 C501 1.376 . S
C498 C496 1.394 . S
C498 C499 1.369 . S
C498 C502 1.531 . S
C499 C498 1.369 . S
C499 C500 1.410 . S
C499 C507 1.503 . S
C500 C499 1.410 . S
C500 C501 1.392 . S
C500 C503 1.511 . S
C501 C497 1.376 . S
C501 C500 1.392 . S
C501 H513 0.929 . S
C502 C498 1.531 . S
C502 H514 0.960 . S
C502 H515 0.962 . S
C502 H516 0.960 . S
C503 C500 1.511 . S
C503 H517 0.961 . S
C503 H518 0.961 . S
C503 H519 0.961 . S
C504 C505 1.370 . S
C504 C506 1.363 . S
C504 H520 0.931 . S
C505 C504 1.370 . S
C505 C509 1.408 . S
C506 C504 1.363 . S
C506 C507 1.370 . S
C506 C510 1.524 . S
C507 C499 1.503 . S
C507 C506 1.370 . S
C507 C508 1.403 . S
C508 C507 1.403 . S
C508 C509 1.404 . S
C508 C511 1.539 . S
C509 C505 1.408 . S
C509 C508 1.404 . S
C509 H521 0.930 . S
C510 C506 1.524 . S
C510 H522 0.956 . S
C510 H523 0.961 . S
C510 H524 0.961 1_554 S
C511 C508 1.539 . S
C511 H525 0.958 . S
C511 H526 0.961 . S
C511 H527 0.960 . S
H512 C496 0.931 . S
H513 C501 0.929 . S
H514 C502 0.960 . S
H515 C502 0.962 . S
H516 C502 0.960 . S
H517 C503 0.961 . S
H518 C503 0.961 . S
H519 C503 0.961 . S
H520 C504 0.931 . S
H521 C509 0.930 . S
H522 C510 0.956 . S
H523 C510 0.961 . S
H524 C510 0.961 1_556 S
H525 C511 0.958 . S
H526 C511 0.961 . S
H527 C511 0.960 . S
C528 C529 1.391 . S
C528 C530 1.394 . S
C528 H544 0.931 . S
C529 C528 1.391 . S
C529 C533 1.376 . S
C530 C528 1.394 . S
C530 C531 1.369 . S
C530 C534 1.531 . S
C531 C530 1.369 . S
C531 C532 1.410 . S
C531 C539 1.503 . S
C532 C531 1.410 . S
C532 C533 1.392 . S
C532 C535 1.511 . S
C533 C529 1.376 . S
C533 C532 1.392 . S
C533 H545 0.929 . S
C534 C530 1.531 . S
C534 H546 0.960 . S
C534 H547 0.962 . S
C534 H548 0.960 . S
C535 C532 1.511 . S
C535 H549 0.961 . S
C535 H550 0.961 . S
C535 H551 0.961 . S
C536 C537 1.370 . S
C536 C538 1.363 . S
C536 H552 0.931 . S
C537 C536 1.370 . S
C537 C541 1.408 . S
C538 C536 1.363 . S
C538 C539 1.370 . S
C538 C542 1.524 . S
C539 C531 1.503 . S
C539 C538 1.370 . S
C539 C540 1.403 . S
C540 C539 1.403 . S
C540 C541 1.404 . S
C540 C543 1.539 . S
C541 C537 1.408 . S
C541 C540 1.404 . S
C541 H553 0.930 . S
C542 C538 1.524 . S
C542 H554 0.956 . S
C542 H555 0.961 . S
C542 H556 0.961 . S
C543 C540 1.539 . S
C543 H557 0.958 . S
C543 H558 0.961 . S
C543 H559 0.960 . S
H544 C528 0.931 . S
H545 C533 0.929 . S
H546 C534 0.960 . S
H547 C534 0.962 . S
H548 C534 0.960 . S
H549 C535 0.961 . S
H550 C535 0.961 . S
H551 C535 0.961 . S
H552 C536 0.931 . S
H553 C541 0.930 . S
H554 C542 0.956 . S
H555 C542 0.961 . S
H556 C542 0.961 . S
H557 C543 0.958 . S
H558 C543 0.961 . S
H559 C543 0.960 . S
C560 C561 1.391 . S
C560 C562 1.394 . S
C560 H576 0.931 . S
C561 C560 1.391 . S
C561 C565 1.376 . S
C562 C560 1.394 . S
C562 C563 1.369 . S
C562 C566 1.531 . S
C563 C562 1.369 . S
C563 C564 1.410 . S
C563 C571 1.503 . S
C564 C563 1.410 . S
C564 C565 1.392 . S
C564 C567 1.511 . S
C565 C561 1.376 . S
C565 C564 1.392 . S
C565 H577 0.929 . S
C566 C562 1.531 . S
C566 H578 0.960 . S
C566 H579 0.962 . S
C566 H580 0.960 . S
C567 C564 1.511 . S
C567 H581 0.961 . S
C567 H582 0.961 . S
C567 H583 0.961 . S
C568 C569 1.370 . S
C568 C570 1.363 . S
C568 H584 0.931 . S
C569 C568 1.370 . S
C569 C573 1.408 . S
C570 C568 1.363 . S
C570 C571 1.370 . S
C570 C574 1.524 . S
C571 C563 1.503 . S
C571 C570 1.370 . S
C571 C572 1.403 . S
C572 C571 1.403 . S
C572 C573 1.404 . S
C572 C575 1.539 . S
C573 C569 1.408 . S
C573 C572 1.404 . S
C573 H585 0.930 . S
C574 C570 1.524 . S
C574 H586 0.956 . S
C574 H587 0.961 . S
C574 H588 0.961 . S
C575 C572 1.539 . S
C575 H589 0.958 . S
C575 H590 0.961 . S
C575 H591 0.960 . S
H576 C560 0.931 . S
H577 C565 0.929 . S
H578 C566 0.960 . S
H579 C566 0.962 . S
H580 C566 0.960 . S
H581 C567 0.961 . S
H582 C567 0.961 . S
H583 C567 0.961 . S
H584 C568 0.931 . S
H585 C573 0.930 . S
H586 C574 0.956 . S
H587 C574 0.961 . S
H588 C574 0.961 . S
H589 C575 0.958 . S
H590 C575 0.961 . S
H591 C575 0.960 . S
C592 C593 1.391 . S
C592 C594 1.394 . S
C592 H608 0.931 . S
C593 C592 1.391 . S
C593 C597 1.376 . S
C594 C592 1.394 . S
C594 C595 1.369 . S
C594 C598 1.531 . S
C595 C594 1.369 . S
C595 C596 1.410 . S
C595 C603 1.503 . S
C596 C595 1.410 . S
C596 C597 1.392 . S
C596 C599 1.511 . S
C597 C593 1.376 . S
C597 C596 1.392 . S
C597 H609 0.929 . S
C598 C594 1.531 . S
C598 H610 0.960 . S
C598 H611 0.962 . S
C598 H612 0.960 . S
C599 C596 1.511 . S
C599 H613 0.961 . S
C599 H614 0.961 . S
C599 H615 0.961 . S
C600 C601 1.370 . S
C600 C602 1.363 . S
C600 H616 0.931 . S
C601 C600 1.370 . S
C601 C605 1.408 . S
C602 C600 1.363 . S
C602 C603 1.370 . S
C602 C606 1.524 . S
C603 C595 1.503 . S
C603 C602 1.370 . S
C603 C604 1.403 . S
C604 C603 1.403 . S
C604 C605 1.404 . S
C604 C607 1.539 . S
C605 C601 1.408 . S
C605 C604 1.404 . S
C605 H617 0.930 . S
C606 C602 1.524 . S
C606 H618 0.956 . S
C606 H619 0.961 . S
C606 H620 0.961 . S
C607 C604 1.539 . S
C607 H621 0.958 . S
C607 H622 0.961 1_455 S
C607 H623 0.960 . S
H608 C592 0.931 . S
H609 C597 0.929 . S
H610 C598 0.960 . S
H611 C598 0.962 . S
H612 C598 0.960 . S
H613 C599 0.961 . S
H614 C599 0.961 . S
H615 C599 0.961 . S
H616 C600 0.931 . S
H617 C605 0.930 . S
H618 C606 0.956 . S
H619 C606 0.961 . S
H620 C606 0.961 . S
H621 C607 0.958 . S
H622 C607 0.961 1_655 S
H623 C607 0.960 . S
C624 C625 1.391 . S
C624 C626 1.394 . S
C624 H640 0.931 . S
C625 C624 1.391 . S
C625 C629 1.376 . S
C626 C624 1.394 . S
C626 C627 1.369 . S
C626 C630 1.531 . S
C627 C626 1.369 . S
C627 C628 1.410 . S
C627 C635 1.503 . S
C628 C627 1.410 . S
C628 C629 1.392 . S
C628 C631 1.511 . S
C629 C625 1.376 . S
C629 C628 1.392 . S
C629 H641 0.929 . S
C630 C626 1.531 . S
C630 H642 0.960 . S
C630 H643 0.962 . S
C630 H644 0.960 . S
C631 C628 1.511 . S
C631 H645 0.961 . S
C631 H646 0.961 . S
C631 H647 0.961 . S
C632 C633 1.370 . S
C632 C634 1.363 . S
C632 H648 0.931 . S
C633 C632 1.370 . S
C633 C637 1.408 . S
C634 C632 1.363 . S
C634 C635 1.370 . S
C634 C638 1.524 . S
C635 C627 1.503 . S
C635 C634 1.370 . S
C635 C636 1.403 . S
C636 C635 1.403 . S
C636 C637 1.404 . S
C636 C639 1.539 . S
C637 C633 1.408 . S
C637 C636 1.404 . S
C637 H649 0.930 . S
C638 C634 1.524 . S
C638 H650 0.956 . S
C638 H651 0.961 . S
C638 H652 0.961 . S
C639 C636 1.539 . S
C639 H653 0.958 . S
C639 H654 0.961 . S
C639 H655 0.960 . S
H640 C624 0.931 . S
H641 C629 0.929 . S
H642 C630 0.960 . S
H643 C630 0.962 . S
H644 C630 0.960 . S
H645 C631 0.961 . S
H646 C631 0.961 . S
H647 C631 0.961 . S
H648 C632 0.931 . S
H649 C637 0.930 . S
H650 C638 0.956 . S
H651 C638 0.961 . S
H652 C638 0.961 . S
H653 C639 0.958 . S
H654 C639 0.961 . S
H655 C639 0.960 . S
C656 C657 1.391 . S
C656 C658 1.394 . S
C656 H672 0.931 . S
C657 C656 1.391 . S
C657 C661 1.376 . S
C658 C656 1.394 . S
C658 C659 1.369 . S
C658 C662 1.531 . S
C659 C658 1.369 . S
C659 C660 1.410 . S
C659 C667 1.503 . S
C660 C659 1.410 . S
C660 C661 1.392 . S
C660 C663 1.511 . S
C661 C657 1.376 . S
C661 C660 1.392 . S
C661 H673 0.929 . S
C662 C658 1.531 . S
C662 H674 0.962 1_565 S
C662 H675 0.962 . S
C662 H676 0.960 . S
C663 C660 1.511 . S
C663 H677 0.961 . S
C663 H678 0.961 . S
C663 H679 0.961 . S
C664 C665 1.370 . S
C664 C666 1.363 1_545 S
C664 H680 0.931 . S
C665 C664 1.370 . S
C665 C669 1.408 . S
C666 C664 1.363 1_565 S
C666 C667 1.370 . S
C666 C670 1.524 . S
C667 C659 1.503 . S
C667 C666 1.370 . S
C667 C668 1.403 1_565 S
C668 C667 1.403 1_545 S
C668 C669 1.404 . S
C668 C671 1.539 . S
C669 C665 1.408 . S
C669 C668 1.404 . S
C669 H681 0.930 . S
C670 C666 1.524 . S
C670 H682 0.956 . S
C670 H683 0.961 . S
C670 H684 0.961 . S
C671 C668 1.539 . S
C671 H685 0.958 . S
C671 H686 0.961 . S
C671 H687 0.960 1_545 S
H672 C656 0.931 . S
H673 C661 0.929 . S
H674 C662 0.962 1_545 S
H675 C662 0.962 . S
H676 C662 0.960 . S
H677 C663 0.961 . S
H678 C663 0.961 . S
H679 C663 0.961 . S
H680 C664 0.931 . S
H681 C669 0.930 . S
H682 C670 0.956 . S
H683 C670 0.961 . S
H684 C670 0.961 . S
H685 C671 0.958 . S
H686 C671 0.961 . S
H687 C671 0.960 1_565 S
C688 C689 1.391 . S
C688 C690 1.394 . S
C688 H704 0.931 . S
C689 C688 1.391 . S
C689 C693 1.376 . S
C690 C688 1.394 . S
C690 C691 1.369 . S
C690 C694 1.531 . S
C691 C690 1.369 . S
C691 C692 1.410 . S
C691 C699 1.503 . S
C692 C691 1.410 . S
C692 C693 1.392 . S
C692 C695 1.511 . S
C693 C689 1.376 . S
C693 C692 1.392 . S
C693 H705 0.929 . S
C694 C690 1.531 . S
C694 H706 0.960 . S
C694 H707 0.962 . S
C694 H708 0.960 . S
C695 C692 1.511 . S
C695 H709 0.961 . S
C695 H710 0.961 . S
C695 H711 0.961 . S
C696 C697 1.370 . S
C696 C698 1.363 . S
C696 H712 0.931 . S
C697 C696 1.370 . S
C697 C701 1.408 . S
C698 C696 1.363 . S
C698 C699 1.370 . S
C698 C702 1.524 . S
C699 C691 1.503 . S
C699 C698 1.370 . S
C699 C700 1.403 . S
C700 C699 1.403 . S
C700 C701 1.404 . S
C700 C703 1.539 . S
C701 C697 1.408 . S
C701 C700 1.404 . S
C701 H713 0.930 . S
C702 C698 1.524 . S
C702 H714 0.956 . S
C702 H715 0.961 . S
C702 H716 0.961 . S
C703 C700 1.539 . S
C703 H717 0.958 . S
C703 H718 0.961 . S
C703 H719 0.960 . S
H704 C688 0.931 . S
H705 C693 0.929 . S
H706 C694 0.960 . S
H707 C694 0.962 . S
H708 C694 0.960 . S
H709 C695 0.961 . S
H710 C695 0.961 . S
H711 C695 0.961 . S
H712 C696 0.931 . S
H713 C701 0.930 . S
H714 C702 0.956 . S
H715 C702 0.961 . S
H716 C702 0.961 . S
H717 C703 0.958 . S
H718 C703 0.961 . S
H719 C703 0.960 . S
C720 C721 1.391 . S
C720 C722 1.394 1_554 S
C720 H736 0.931 . S
C721 C720 1.391 . S
C721 C725 1.376 . S
C722 C720 1.394 1_556 S
C722 C723 1.369 . S
C722 C726 1.531 . S
C723 C722 1.369 . S
C723 C724 1.410 1_556 S
C723 C731 1.503 . S
C724 C723 1.410 1_554 S
C724 C725 1.392 . S
C724 C727 1.511 . S
C725 C721 1.376 . S
C725 C724 1.392 . S
C725 H737 0.929 . S
C726 C722 1.531 . S
C726 H738 0.960 . S
C726 H739 0.962 . S
C726 H740 0.960 . S
C727 C724 1.511 . S
C727 H741 0.961 . S
C727 H742 0.961 1_554 S
C727 H743 0.961 . S
C728 C729 1.370 . S
C728 C730 1.363 . S
C728 H744 0.931 . S
C729 C728 1.370 . S
C729 C733 1.408 . S
C730 C728 1.363 . S
C730 C731 1.370 . S
C730 C734 1.524 . S
C731 C723 1.503 . S
C731 C730 1.370 . S
C731 C732 1.403 . S
C732 C731 1.403 . S
C732 C733 1.404 . S
C732 C735 1.539 . S
C733 C729 1.408 . S
C733 C732 1.404 . S
C733 H745 0.930 . S
C734 C730 1.524 . S
C734 H746 0.956 . S
C734 H747 0.961 . S
C734 H748 0.961 . S
C735 C732 1.539 . S
C735 H749 0.958 . S
C735 H750 0.961 . S
C735 H751 0.960 . S
H736 C720 0.931 . S
H737 C725 0.929 . S
H738 C726 0.960 . S
H739 C726 0.962 . S
H740 C726 0.960 . S
H741 C727 0.961 . S
H742 C727 0.961 1_556 S
H743 C727 0.961 . S
H744 C728 0.931 . S
H745 C733 0.930 . S
H746 C734 0.956 . S
H747 C734 0.961 . S
H748 C734 0.961 . S
H749 C735 0.958 . S
H750 C735 0.961 . S
H751 C735 0.960 . S
C752 C753 1.391 . S
C752 C754 1.394 1_554 S
C752 H768 0.929 1_554 S
C753 C752 1.391 . S
C753 C757 1.376 . S
C754 C752 1.394 1_556 S
C754 C755 1.369 . S
C754 C758 1.531 . S
C755 C754 1.369 . S
C755 C756 1.410 1_556 S
C755 C763 1.503 . S
C756 C755 1.410 1_554 S
C756 C757 1.392 . S
C756 C759 1.511 . S
C757 C753 1.376 . S
C757 C756 1.392 . S
C757 H769 0.929 . S
C758 C754 1.531 . S
C758 H770 0.960 . S
C758 H771 0.962 . S
C758 H772 0.960 . S
C759 C756 1.511 . S
C759 H773 0.961 . S
C759 H774 0.961 1_554 S
C759 H775 0.961 . S
C760 C761 1.370 . S
C760 C762 1.363 . S
C760 H776 0.931 . S
C761 C760 1.370 . S
C761 C765 1.408 . S
C762 C760 1.363 . S
C762 C763 1.370 . S
C762 C766 1.524 . S
C763 C755 1.503 . S
C763 C762 1.370 . S
C763 C764 1.403 . S
C764 C763 1.403 . S
C764 C765 1.404 . S
C764 C767 1.539 . S
C765 C761 1.408 . S
C765 C764 1.404 . S
C765 H777 0.930 . S
C766 C762 1.524 . S
C766 H778 0.956 . S
C766 H779 0.961 . S
C766 H780 0.961 . S
C767 C764 1.539 . S
C767 H781 0.937 1_565 S
C767 H782 0.961 . S
C767 H783 0.960 . S
H768 C752 0.929 1_556 S
H769 C757 0.929 . S
H770 C758 0.960 . S
H771 C758 0.962 . S
H772 C758 0.960 . S
H773 C759 0.961 . S
H774 C759 0.961 1_556 S
H775 C759 0.961 . S
H776 C760 0.931 . S
H777 C765 0.930 . S
H778 C766 0.956 . S
H779 C766 0.961 . S
H780 C766 0.961 . S
H781 C767 0.937 1_545 S
H782 C767 0.961 . S
H783 C767 0.960 . S
C784 C785 1.391 . S
C784 C786 1.394 . S
C784 H800 0.931 . S
C785 C784 1.391 . S
C785 C789 1.376 . S
C786 C784 1.394 . S
C786 C787 1.369 . S
C786 C790 1.531 . S
C787 C786 1.369 . S
C787 C788 1.410 . S
C787 C795 1.503 . S
C788 C787 1.410 . S
C788 C789 1.392 . S
C788 C791 1.511 . S
C789 C785 1.376 . S
C789 C788 1.392 . S
C789 H801 0.929 . S
C790 C786 1.531 . S
C790 H802 0.960 . S
C790 H803 0.962 . S
C790 H804 0.960 . S
C791 C788 1.511 . S
C791 H805 0.961 . S
C791 H806 0.961 . S
C791 H807 0.961 . S
C792 C793 1.370 . S
C792 C794 1.363 . S
C792 H808 0.931 . S
C793 C792 1.370 . S
C793 C797 1.408 . S
C794 C792 1.363 . S
C794 C795 1.370 . S
C794 C798 1.524 . S
C795 C787 1.503 . S
C795 C794 1.370 . S
C795 C796 1.403 . S
C796 C795 1.403 . S
C796 C797 1.404 . S
C796 C799 1.539 . S
C797 C793 1.408 . S
C797 C796 1.404 . S
C797 H809 0.930 . S
C798 C794 1.524 . S
C798 H810 0.956 . S
C798 H811 0.961 . S
C798 H812 0.961 . S
C799 C796 1.539 . S
C799 H813 0.958 . S
C799 H814 0.961 . S
C799 H815 0.960 . S
H800 C784 0.931 . S
H801 C789 0.929 . S
H802 C790 0.960 . S
H803 C790 0.962 . S
H804 C790 0.960 . S
H805 C791 0.961 . S
H806 C791 0.961 . S
H807 C791 0.961 . S
H808 C792 0.931 . S
H809 C797 0.930 . S
H810 C798 0.956 . S
H811 C798 0.961 . S
H812 C798 0.961 . S
H813 C799 0.958 . S
H814 C799 0.961 . S
H815 C799 0.960 . S
C816 C817 1.391 . S
C816 C818 1.394 . S
C816 H832 0.931 . S
C817 C816 1.391 . S
C817 C821 1.376 . S
C818 C816 1.394 . S
C818 C819 1.369 . S
C818 C822 1.531 . S
C819 C818 1.369 . S
C819 C820 1.410 . S
C819 C827 1.503 . S
C820 C819 1.410 . S
C820 C821 1.392 . S
C820 C823 1.511 . S
C821 C817 1.376 . S
C821 C820 1.392 . S
C821 H833 0.929 . S
C822 C818 1.531 . S
C822 H834 0.960 . S
C822 H835 0.962 . S
C822 H836 0.960 . S
C823 C820 1.511 . S
C823 H837 0.961 . S
C823 H838 0.961 . S
C823 H839 0.961 . S
C824 C825 1.370 . S
C824 C826 1.363 . S
C824 H840 0.931 . S
C825 C824 1.370 . S
C825 C829 1.408 . S
C826 C824 1.363 . S
C826 C827 1.370 . S
C826 C830 1.524 . S
C827 C819 1.503 . S
C827 C826 1.370 . S
C827 C828 1.403 . S
C828 C827 1.403 . S
C828 C829 1.404 . S
C828 C831 1.539 . S
C829 C825 1.408 . S
C829 C828 1.404 . S
C829 H841 0.930 . S
C830 C826 1.524 . S
C830 H842 0.956 . S
C830 H843 0.961 . S
C830 H844 0.961 . S
C831 C828 1.539 . S
C831 H845 0.958 1_545 S
C831 H846 0.961 1_545 S
C831 H847 0.960 . S
H832 C816 0.931 . S
H833 C821 0.929 . S
H834 C822 0.960 . S
H835 C822 0.962 . S
H836 C822 0.960 . S
H837 C823 0.961 . S
H838 C823 0.961 . S
H839 C823 0.961 . S
H840 C824 0.931 . S
H841 C829 0.930 . S
H842 C830 0.956 . S
H843 C830 0.961 . S
H844 C830 0.961 . S
H845 C831 0.958 1_565 S
H846 C831 0.961 1_565 S
H847 C831 0.960 . S
C848 C849 1.391 . S
C848 C850 1.394 1_455 S
C848 H864 0.931 . S
C849 C848 1.391 . S
C849 C853 1.376 . S
C850 C848 1.394 1_655 S
C850 C851 1.369 . S
C850 C854 1.531 . S
C851 C850 1.369 . S
C851 C852 1.410 1_655 S
C851 C859 1.503 . S
C852 C851 1.410 1_455 S
C852 C853 1.392 . S
C852 C855 1.511 . S
C853 C849 1.376 . S
C853 C852 1.392 . S
C853 H865 0.929 . S
C854 C850 1.531 . S
C854 H866 0.960 . S
C854 H867 0.962 . S
C854 H868 0.960 . S
C855 C852 1.511 . S
C855 H869 0.961 . S
C855 H870 0.961 1_455 S
C855 H871 0.961 . S
C856 C857 1.370 . S
C856 C858 1.363 . S
C856 H872 0.931 . S
C857 C856 1.370 . S
C857 C861 1.408 . S
C858 C856 1.363 . S
C858 C859 1.370 . S
C858 C862 1.524 . S
C859 C851 1.503 . S
C859 C858 1.370 . S
C859 C860 1.403 . S
C860 C859 1.403 . S
C860 C861 1.404 . S
C860 C863 1.539 . S
C861 C857 1.408 . S
C861 C860 1.404 . S
C861 H873 0.930 . S
C862 C858 1.524 . S
C862 H874 0.956 . S
C862 H875 0.961 . S
C862 H876 0.961 . S
C863 C860 1.539 . S
C863 H877 0.958 . S
C863 H878 0.961 . S
C863 H879 0.960 . S
H864 C848 0.931 . S
H865 C853 0.929 . S
H866 C854 0.960 . S
H867 C854 0.962 . S
H868 C854 0.960 . S
H869 C855 0.961 . S
H870 C855 0.961 1_655 S
H871 C855 0.961 . S
H872 C856 0.931 . S
H873 C861 0.930 . S
H874 C862 0.956 . S
H875 C862 0.961 . S
H876 C862 0.961 . S
H877 C863 0.958 . S
H878 C863 0.961 . S
H879 C863 0.960 . S
C880 C881 1.391 . S
C880 C882 1.394 . S
C880 H896 0.931 . S
C881 C880 1.391 . S
C881 C885 1.376 . S
C882 C880 1.394 . S
C882 C883 1.369 1_655 S
C882 C886 1.531 1_655 S
C883 C882 1.369 1_455 S
C883 C884 1.410 . S
C883 C891 1.503 . S
C884 C883 1.410 . S
C884 C885 1.392 1_455 S
C884 C887 1.511 . S
C885 C881 1.376 . S
C885 C884 1.392 1_655 S
C885 H897 0.929 . S
C886 C882 1.531 1_455 S
C886 H898 0.960 . S
C886 H899 0.962 1_455 S
C886 H900 0.960 1_455 S
C887 C884 1.511 . S
C887 H901 0.961 . S
C887 H902 0.961 . S
C887 H903 0.961 . S
C888 C889 1.370 . S
C888 C890 1.363 . S
C888 H904 0.931 . S
C889 C888 1.370 . S
C889 C893 1.408 . S
C890 C888 1.363 . S
C890 C891 1.370 . S
C890 C894 1.524 . S
C891 C883 1.503 . S
C891 C890 1.370 . S
C891 C892 1.403 . S
C892 C891 1.403 . S
C892 C893 1.404 . S
C892 C895 1.539 . S
C893 C889 1.408 . S
C893 C892 1.404 . S
C893 H905 0.930 . S
C894 C890 1.524 . S
C894 H906 0.956 . S
C894 H907 0.961 . S
C894 H908 0.961 . S
C895 C892 1.539 . S
C895 H909 0.958 . S
C895 H910 0.961 . S
C895 H911 0.960 . S
H896 C880 0.931 . S
H897 C885 0.929 . S
H898 C886 0.960 . S
H899 C886 0.962 1_655 S
H900 C886 0.960 1_655 S
H901 C887 0.961 . S
H902 C887 0.961 . S
H903 C887 0.961 . S
H904 C888 0.931 . S
H905 C893 0.930 . S
H906 C894 0.956 . S
H907 C894 0.961 . S
H908 C894 0.961 . S
H909 C895 0.958 . S
H910 C895 0.961 . S
H911 C895 0.960 . S
C912 C913 1.391 . S
C912 C914 1.383 1_455 S
C912 H928 0.931 . S
C913 C912 1.391 . S
C913 C917 1.376 . S
C914 C912 1.383 1_655 S
C914 C915 1.378 . S
C914 C918 1.532 . S
C915 C914 1.378 . S
C915 C916 1.410 . S
C915 C923 1.503 . S
C916 C915 1.410 . S
C916 C917 1.392 1_655 S
C916 C919 1.511 . S
C917 C913 1.376 . S
C917 C916 1.392 1_455 S
C917 H929 0.929 . S
C918 C914 1.532 . S
C918 H930 0.960 . S
C918 H931 0.962 1_655 S
C918 H932 0.960 1_655 S
C919 C916 1.511 . S
C919 H933 0.961 1_556 S
C919 H934 0.961 . S
C919 H935 0.961 . S
C920 C921 1.370 . S
C920 C922 1.363 . S
C920 H936 0.931 . S
C921 C920 1.370 . S
C921 C925 1.408 . S
C922 C920 1.363 . S
C922 C923 1.370 . S
C922 C926 1.524 . S
C923 C915 1.503 . S
C923 C922 1.370 . S
C923 C924 1.403 . S
C924 C923 1.403 . S
C924 C925 1.404 . S
C924 C927 1.539 . S
C925 C921 1.408 . S
C925 C924 1.404 . S
C925 H937 0.930 . S
C926 C922 1.524 . S
C926 H938 0.956 . S
C926 H939 0.961 . S
C926 H940 0.961 . S
C927 C924 1.539 . S
C927 H941 0.958 . S
C927 H942 0.961 . S
C927 H943 0.960 . S
H928 C912 0.931 . S
H929 C917 0.929 . S
H930 C918 0.960 . S
H931 C918 0.962 1_455 S
H932 C918 0.960 1_455 S
H933 C919 0.961 1_554 S
H934 C919 0.961 . S
H935 C919 0.961 . S
H936 C920 0.931 . S
H937 C925 0.930 . S
H938 C926 0.956 . S
H939 C926 0.961 . S
H940 C926 0.961 . S
H941 C927 0.958 . S
H942 C927 0.961 . S
H943 C927 0.960 . S
C944 C945 1.391 . S
C944 C946 1.394 . S
C944 H960 0.931 . S
C945 C944 1.391 . S
C945 C949 1.376 . S
C946 C944 1.394 . S
C946 C947 1.369 . S
C946 C950 1.531 . S
C947 C946 1.369 . S
C947 C948 1.410 . S
C947 C955 1.503 . S
C948 C947 1.410 . S
C948 C949 1.392 . S
C948 C951 1.511 . S
C949 C945 1.376 . S
C949 C948 1.392 . S
C949 H961 0.929 . S
C950 C946 1.531 . S
C950 H962 0.960 . S
C950 H963 0.962 . S
C950 H964 0.960 . S
C951 C948 1.511 . S
C951 H965 0.961 . S
C951 H966 0.961 . S
C951 H967 0.961 . S
C952 C953 1.370 . S
C952 C954 1.394 . S
C952 H968 0.931 . S
C953 C952 1.370 . S
C953 C957 1.408 . S
C954 C952 1.394 . S
C954 C955 1.347 1_655 S
C954 C958 1.518 1_655 S
C955 C947 1.503 . S
C955 C954 1.347 1_455 S
C955 C956 1.403 . S
C956 C955 1.403 . S
C956 C957 1.404 1_455 S
C956 C959 1.539 . S
C957 C953 1.408 . S
C957 C956 1.404 1_655 S
C957 H969 0.930 . S
C958 C954 1.518 1_455 S
C958 H970 0.956 . S
C958 H971 0.961 . S
C958 H972 0.961 1_455 S
C959 C956 1.539 . S
C959 H973 0.958 1_556 S
C959 H974 0.961 1_556 S
C959 H975 0.960 . S
H960 C944 0.931 . S
H961 C949 0.929 . S
H962 C950 0.960 . S
H963 C950 0.962 . S
H964 C950 0.960 . S
H965 C951 0.961 . S
H966 C951 0.961 . S
H967 C951 0.961 . S
H968 C952 0.931 . S
H969 C957 0.930 . S
H970 C958 0.956 . S
H971 C958 0.961 . S
H972 C958 0.961 1_655 S
H973 C959 0.958 1_554 S
H974 C959 0.961 1_554 S
H975 C959 0.960 . S
C976 C977 1.391 . S
C976 C978 1.394 1_545 S
C976 H992 0.931 . S
C977 C976 1.391 . S
C977 C981 1.376 . S
C978 C976 1.394 1_565 S
C978 C979 1.369 . S
C978 C982 1.531 . S
C979 C978 1.369 . S
C979 C980 1.410 1_565 S
C979 C987 1.503 . S
C980 C979 1.410 1_545 S
C980 C981 1.392 . S
C980 C983 1.511 1_545 S
C981 C977 1.376 . S
C981 C980 1.392 . S
C981 H993 0.929 . S
C982 C978 1.531 . S
C982 H994 0.960 . S
C982 H995 0.962 . S
C982 H996 0.960 . S
C983 C980 1.511 1_565 S
C983 H997 0.961 1_565 S
C983 H998 0.961 . S
C983 H999 0.961 . S
C984 C985 1.370 . S
C984 C986 1.363 . S
C984 H1000 0.931 . S
C985 C984 1.370 . S
C985 C989 1.408 . S
C986 C984 1.363 . S
C986 C987 1.370 . S
C986 C990 1.524 . S
C987 C979 1.503 . S
C987 C986 1.370 . S
C987 C988 1.403 . S
C988 C987 1.403 . S
C988 C989 1.404 . S
C988 C991 1.539 . S
C989 C985 1.408 . S
C989 C988 1.404 . S
C989 H1001 0.930 . S
C990 C986 1.524 . S
C990 H1002 0.956 . S
C990 H1003 0.961 . S
C990 H1004 0.961 . S
C991 C988 1.539 . S
C991 H1005 0.958 . S
C991 H1006 0.961 . S
C991 H1007 0.960 . S
H992 C976 0.931 . S
H993 C981 0.929 . S
H994 C982 0.960 . S
H995 C982 0.962 . S
H996 C982 0.960 . S
H997 C983 0.961 1_545 S
H998 C983 0.961 . S
H999 C983 0.961 . S
H1000 C984 0.931 . S
H1001 C989 0.930 . S
H1002 C990 0.956 . S
H1003 C990 0.961 . S
H1004 C990 0.961 . S
H1005 C991 0.958 . S
H1006 C991 0.961 . S
H1007 C991 0.960 . S
C1008 C1009 1.391 . S
C1008 C1010 1.394 . S
C1008 H1024 0.931 . S
C1009 C1008 1.391 . S
C1009 C1013 1.376 . S
C1010 C1008 1.394 . S
C1010 C1011 1.369 . S
C1010 C1014 1.531 . S
C1011 C1010 1.369 . S
C1011 C1012 1.410 . S
C1011 C1019 1.503 . S
C1012 C1011 1.410 . S
C1012 C1013 1.392 . S
C1012 C1015 1.511 . S
C1013 C1009 1.376 . S
C1013 C1012 1.392 . S
C1013 H1025 0.929 . S
C1014 C1010 1.531 . S
C1014 H1026 0.960 . S
C1014 H1027 0.962 . S
C1014 H1028 0.960 . S
C1015 C1012 1.511 . S
C1015 H1029 0.961 . S
C1015 H1030 0.961 . S
C1015 H1031 0.961 . S
C1016 C1017 1.370 . S
C1016 C1018 1.363 . S
C1016 H1032 0.931 . S
C1017 C1016 1.370 . S
C1017 C1021 1.408 . S
C1018 C1016 1.363 . S
C1018 C1019 1.370 1_565 S
C1018 C1022 1.524 1_565 S
C1019 C1011 1.503 . S
C1019 C1018 1.370 1_545 S
C1019 C1020 1.403 . S
C1020 C1019 1.403 . S
C1020 C1021 1.404 1_545 S
C1020 C1023 1.539 . S
C1021 C1017 1.408 . S
C1021 C1020 1.404 1_565 S
C1021 H1033 0.930 . S
C1022 C1018 1.524 1_545 S
C1022 H1034 0.956 . S
C1022 H1035 0.961 . S
C1022 H1036 0.961 1_545 S
C1023 C1020 1.539 . S
C1023 H1037 0.958 . S
C1023 H1038 0.961 . S
C1023 H1039 0.960 . S
H1024 C1008 0.931 . S
H1025 C1013 0.929 . S
H1026 C1014 0.960 . S
H1027 C1014 0.962 . S
H1028 C1014 0.960 . S
H1029 C1015 0.961 . S
H1030 C1015 0.961 . S
H1031 C1015 0.961 . S
H1032 C1016 0.931 . S
H1033 C1021 0.930 . S
H1034 C1022 0.956 . S
H1035 C1022 0.961 . S
H1036 C1022 0.961 1_565 S
H1037 C1023 0.958 . S
H1038 C1023 0.961 . S
H1039 C1023 0.960 . S
C1040 C1041 1.391 . S
C1040 C1042 1.394 . S
C1040 H1056 0.931 . S
C1041 C1040 1.391 . S
C1041 C1045 1.376 . S
C1042 C1040 1.394 . S
C1042 C1043 1.369 . S
C1042 C1046 1.531 . S
C1043 C1042 1.369 . S
C1043 C1044 1.410 . S
C1043 C1051 1.503 . S
C1044 C1043 1.410 . S
C1044 C1045 1.392 . S
C1044 C1047 1.511 . S
C1045 C1041 1.376 . S
C1045 C1044 1.392 . S
C1045 H1057 0.929 . S
C1046 C1042 1.531 . S
C1046 H1058 0.960 . S
C1046 H1059 0.962 . S
C1046 H1060 0.960 . S
C1047 C1044 1.511 . S
C1047 H1061 0.961 . S
C1047 H1062 0.961 . S
C1047 H1063 0.961 . S
C1048 C1049 1.370 . S
C1048 C1050 1.363 . S
C1048 H1064 0.931 . S
C1049 C1048 1.370 . S
C1049 C1053 1.408 . S
C1050 C1048 1.363 . S
C1050 C1051 1.370 . S
C1050 C1054 1.524 . S
C1051 C1043 1.503 . S
C1051 C1050 1.370 . S
C1051 C1052 1.403 . S
C1052 C1051 1.403 . S
C1052 C1053 1.404 . S
C1052 C1055 1.539 . S
C1053 C1049 1.408 . S
C1053 C1052 1.404 . S
C1053 H1065 0.930 . S
C1054 C1050 1.524 . S
C1054 H1066 0.956 . S
C1054 H1067 0.961 . S
C1054 H1068 0.961 . S
C1055 C1052 1.539 . S
C1055 H1069 0.958 . S
C1055 H1070 0.961 . S
C1055 H1071 0.960 . S
H1056 C1040 0.931 . S
H1057 C1045 0.929 . S
H1058 C1046 0.960 . S
H1059 C1046 0.962 . S
H1060 C1046 0.960 . S
H1061 C1047 0.961 . S
H1062 C1047 0.961 . S
H1063 C1047 0.961 . S
H1064 C1048 0.931 . S
H1065 C1053 0.930 . S
H1066 C1054 0.956 . S
H1067 C1054 0.961 . S
H1068 C1054 0.961 . S
H1069 C1055 0.958 . S
H1070 C1055 0.961 . S
H1071 C1055 0.960 . S
C1072 C1073 1.391 . S
C1072 C1074 1.394 . S
C1072 H1088 0.931 . S
C1073 C1072 1.391 . S
C1073 C1077 1.376 . S
C1074 C1072 1.394 . S
C1074 C1075 1.369 . S
C1074 C1078 1.531 . S
C1075 C1074 1.369 . S
C1075 C1076 1.410 . S
C1075 C1083 1.503 . S
C1076 C1075 1.410 . S
C1076 C1077 1.392 . S
C1076 C1079 1.511 . S
C1077 C1073 1.376 . S
C1077 C1076 1.392 . S
C1077 H1089 0.929 . S
C1078 C1074 1.531 . S
C1078 H1090 0.960 . S
C1078 H1091 0.962 . S
C1078 H1092 0.960 . S
C1079 C1076 1.511 . S
C1079 H1093 0.961 . S
C1079 H1094 0.961 . S
C1079 H1095 0.961 . S
C1080 C1081 1.370 . S
C1080 C1082 1.363 . S
C1080 H1096 0.931 . S
C1081 C1080 1.370 . S
C1081 C1085 1.408 . S
C1082 C1080 1.363 . S
C1082 C1083 1.370 1_565 S
C1082 C1086 1.524 1_565 S
C1083 C1075 1.503 . S
C1083 C1082 1.370 1_545 S
C1083 C1084 1.403 . S
C1084 C1083 1.403 . S
C1084 C1085 1.404 1_545 S
C1084 C1087 1.539 . S
C1085 C1081 1.408 . S
C1085 C1084 1.404 1_565 S
C1085 H1097 0.930 . S
C1086 C1082 1.524 1_545 S
C1086 H1098 0.956 . S
C1086 H1099 0.961 . S
C1086 H1100 0.961 1_545 S
C1087 C1084 1.539 . S
C1087 H1101 0.958 . S
C1087 H1102 0.961 . S
C1087 H1103 0.960 . S
H1088 C1072 0.931 . S
H1089 C1077 0.929 . S
H1090 C1078 0.960 . S
H1091 C1078 0.962 . S
H1092 C1078 0.960 . S
H1093 C1079 0.961 . S
H1094 C1079 0.961 . S
H1095 C1079 0.961 . S
H1096 C1080 0.931 . S
H1097 C1085 0.930 . S
H1098 C1086 0.956 . S
H1099 C1086 0.961 . S
H1100 C1086 0.961 1_565 S
H1101 C1087 0.958 . S
H1102 C1087 0.961 . S
H1103 C1087 0.960 . S
C1104 C1105 1.391 1_455 S
C1104 C1106 1.394 . S
C1104 H1120 0.931 . S
C1105 C1104 1.391 1_655 S
C1105 C1109 1.376 . S
C1106 C1104 1.394 . S
C1106 C1107 1.369 1_455 S
C1106 C1110 1.531 . S
C1107 C1106 1.369 1_655 S
C1107 C1108 1.410 . S
C1107 C1115 1.503 . S
C1108 C1107 1.410 . S
C1108 C1109 1.392 . S
C1108 C1111 1.511 . S
C1109 C1105 1.376 . S
C1109 C1108 1.392 . S
C1109 H1121 0.929 . S
C1110 C1106 1.531 . S
C1110 H1122 0.960 . S
C1110 H1123 0.962 . S
C1110 H1124 0.960 . S
C1111 C1108 1.511 . S
C1111 H1125 0.961 . S
C1111 H1126 0.961 . S
C1111 H1127 0.961 . S
C1112 C1113 1.370 . S
C1112 C1114 1.363 . S
C1112 H1128 0.931 . S
C1113 C1112 1.370 . S
C1113 C1117 1.408 1_455 S
C1114 C1112 1.363 . S
C1114 C1115 1.370 1_455 S
C1114 C1118 1.524 . S
C1115 C1107 1.503 . S
C1115 C1114 1.370 1_655 S
C1115 C1116 1.403 . S
C1116 C1115 1.403 . S
C1116 C1117 1.404 . S
C1116 C1119 1.539 . S
C1117 C1113 1.408 1_655 S
C1117 C1116 1.404 . S
C1117 H1129 0.930 . S
C1118 C1114 1.524 . S
C1118 H1130 0.956 . S
C1118 H1131 0.961 . S
C1118 H1132 0.961 . S
C1119 C1116 1.539 . S
C1119 H1133 0.958 . S
C1119 H1134 0.961 . S
C1119 H1135 0.960 . S
H1120 C1104 0.931 . S
H1121 C1109 0.929 . S
H1122 C1110 0.960 . S
H1123 C1110 0.962 . S
H1124 C1110 0.960 . S
H1125 C1111 0.961 . S
H1126 C1111 0.961 . S
H1127 C1111 0.961 . S
H1128 C1112 0.931 . S
H1129 C1117 0.930 . S
H1130 C1118 0.956 . S
H1131 C1118 0.961 . S
H1132 C1118 0.961 . S
H1133 C1119 0.958 . S
H1134 C1119 0.961 . S
H1135 C1119 0.960 . S
C1136 C1137 1.391 1_655 S
C1136 C1138 1.394 . S
C1136 H1152 0.931 . S
C1137 C1136 1.391 1_455 S
C1137 C1141 1.376 . S
C1138 C1136 1.394 . S
C1138 C1139 1.369 1_655 S
C1138 C1142 1.531 . S
C1139 C1138 1.369 1_455 S
C1139 C1140 1.410 . S
C1139 C1147 1.503 . S
C1140 C1139 1.410 . S
C1140 C1141 1.392 . S
C1140 C1143 1.511 . S
C1141 C1137 1.376 . S
C1141 C1140 1.392 . S
C1141 H1153 0.929 . S
C1142 C1138 1.531 . S
C1142 H1154 0.960 . S
C1142 H1155 0.962 . S
C1142 H1156 0.960 . S
C1143 C1140 1.511 . S
C1143 H1157 0.961 . S
C1143 H1158 0.961 . S
C1143 H1159 0.961 . S
C1144 C1145 1.370 . S
C1144 C1146 1.363 . S
C1144 H1160 0.931 . S
C1145 C1144 1.370 . S
C1145 C1149 1.408 1_655 S
C1146 C1144 1.363 . S
C1146 C1147 1.370 1_655 S
C1146 C1150 1.524 . S
C1147 C1139 1.503 . S
C1147 C1146 1.370 1_455 S
C1147 C1148 1.403 . S
C1148 C1147 1.403 . S
C1148 C1149 1.404 . S
C1148 C1151 1.539 . S
C1149 C1145 1.408 1_455 S
C1149 C1148 1.404 . S
C1149 H1161 0.930 . S
C1150 C1146 1.524 . S
C1150 H1162 0.956 . S
C1150 H1163 0.961 . S
C1150 H1164 0.961 . S
C1151 C1148 1.539 . S
C1151 H1165 0.958 . S
C1151 H1166 0.961 . S
C1151 H1167 0.960 . S
H1152 C1136 0.931 . S
H1153 C1141 0.929 . S
H1154 C1142 0.960 . S
H1155 C1142 0.962 . S
H1156 C1142 0.960 . S
H1157 C1143 0.961 . S
H1158 C1143 0.961 . S
H1159 C1143 0.961 . S
H1160 C1144 0.931 . S
H1161 C1149 0.930 . S
H1162 C1150 0.956 . S
H1163 C1150 0.961 . S
H1164 C1150 0.961 . S
H1165 C1151 0.958 . S
H1166 C1151 0.961 . S
H1167 C1151 0.960 . S
C1168 C1169 1.391 . S
C1168 C1170 1.394 . S
C1168 H1184 0.931 . S
C1169 C1168 1.391 . S
C1169 C1173 1.367 1_565 S
C1170 C1168 1.394 . S
C1170 C1171 1.369 . S
C1170 C1174 1.531 . S
C1171 C1170 1.369 . S
C1171 C1172 1.410 1_565 S
C1171 C1179 1.503 . S
C1172 C1171 1.410 1_545 S
C1172 C1173 1.393 . S
C1172 C1175 1.511 . S
C1173 C1169 1.367 1_545 S
C1173 C1172 1.393 . S
C1173 H1185 0.939 . S
C1174 C1170 1.531 . S
C1174 H1186 0.960 . S
C1174 H1187 0.962 . S
C1174 H1188 0.960 . S
C1175 C1172 1.511 . S
C1175 H1189 0.961 . S
C1175 H1190 0.961 . S
C1175 H1191 0.961 1_545 S
C1176 C1177 1.370 . S
C1176 C1178 1.363 . S
C1176 H1192 0.931 . S
C1177 C1176 1.370 . S
C1177 C1181 1.408 1_545 S
C1178 C1176 1.363 . S
C1178 C1179 1.370 1_545 S
C1178 C1182 1.524 . S
C1179 C1171 1.503 . S
C1179 C1178 1.370 1_565 S
C1179 C1180 1.403 . S
C1180 C1179 1.403 . S
C1180 C1181 1.404 . S
C1180 C1183 1.539 . S
C1181 C1177 1.408 1_565 S
C1181 C1180 1.404 . S
C1181 H1193 0.930 . S
C1182 C1178 1.524 . S
C1182 H1194 0.956 . S
C1182 H1195 0.961 . S
C1182 H1196 0.961 . S
C1183 C1180 1.539 . S
C1183 H1197 0.958 . S
C1183 H1198 0.961 . S
C1183 H1199 0.960 . S
H1184 C1168 0.931 . S
H1185 C1173 0.939 . S
H1186 C1174 0.960 . S
H1187 C1174 0.962 . S
H1188 C1174 0.960 . S
H1189 C1175 0.961 . S
H1190 C1175 0.961 . S
H1191 C1175 0.961 1_565 S
H1192 C1176 0.931 . S
H1193 C1181 0.930 . S
H1194 C1182 0.956 . S
H1195 C1182 0.961 . S
H1196 C1182 0.961 . S
H1197 C1183 0.958 . S
H1198 C1183 0.961 . S
H1199 C1183 0.960 . S
C1200 C1201 1.391 . S
C1200 C1202 1.394 . S
C1200 H1216 0.931 . S
C1201 C1200 1.391 . S
C1201 C1205 1.376 . S
C1202 C1200 1.394 . S
C1202 C1203 1.369 . S
C1202 C1206 1.531 . S
C1203 C1202 1.369 . S
C1203 C1204 1.410 . S
C1203 C1211 1.503 . S
C1204 C1203 1.410 . S
C1204 C1205 1.392 . S
C1204 C1207 1.511 . S
C1205 C1201 1.376 . S
C1205 C1204 1.392 . S
C1205 H1217 0.929 . S
C1206 C1202 1.531 . S
C1206 H1218 0.960 . S
C1206 H1219 0.962 . S
C1206 H1220 0.960 . S
C1207 C1204 1.511 . S
C1207 H1221 0.961 . S
C1207 H1222 0.961 . S
C1207 H1223 0.961 . S
C1208 C1209 1.370 . S
C1208 C1210 1.363 . S
C1208 H1224 0.931 . S
C1209 C1208 1.370 . S
C1209 C1213 1.408 . S
C1210 C1208 1.363 . S
C1210 C1211 1.370 . S
C1210 C1214 1.524 . S
C1211 C1203 1.503 . S
C1211 C1210 1.370 . S
C1211 C1212 1.403 . S
C1212 C1211 1.403 . S
C1212 C1213 1.404 . S
C1212 C1215 1.539 . S
C1213 C1209 1.408 . S
C1213 C1212 1.404 . S
C1213 H1225 0.930 . S
C1214 C1210 1.524 . S
C1214 H1226 0.956 . S
C1214 H1227 0.961 . S
C1214 H1228 0.961 . S
C1215 C1212 1.539 . S
C1215 H1229 0.958 . S
C1215 H1230 0.961 . S
C1215 H1231 0.960 . S
H1216 C1200 0.931 . S
H1217 C1205 0.929 . S
H1218 C1206 0.960 . S
H1219 C1206 0.962 . S
H1220 C1206 0.960 . S
H1221 C1207 0.961 . S
H1222 C1207 0.961 . S
H1223 C1207 0.961 . S
H1224 C1208 0.931 . S
H1225 C1213 0.930 . S
H1226 C1214 0.956 . S
H1227 C1214 0.961 . S
H1228 C1214 0.961 . S
H1229 C1215 0.958 . S
H1230 C1215 0.961 . S
H1231 C1215 0.960 . S
C1232 C1233 1.391 1_556 S
C1232 C1234 1.394 . S
C1232 H1248 0.931 . S
C1233 C1232 1.391 1_554 S
C1233 C1237 1.376 . S
C1234 C1232 1.394 . S
C1234 C1235 1.369 1_556 S
C1234 C1238 1.531 . S
C1235 C1234 1.369 1_554 S
C1235 C1236 1.410 . S
C1235 C1243 1.503 . S
C1236 C1235 1.410 . S
C1236 C1237 1.392 . S
C1236 C1239 1.511 . S
C1237 C1233 1.376 . S
C1237 C1236 1.392 . S
C1237 H1249 0.929 . S
C1238 C1234 1.531 . S
C1238 H1250 0.960 . S
C1238 H1251 0.962 . S
C1238 H1252 0.960 . S
C1239 C1236 1.511 . S
C1239 H1253 0.961 . S
C1239 H1254 0.961 . S
C1239 H1255 0.961 . S
C1240 C1241 1.370 . S
C1240 C1242 1.363 . S
C1240 H1256 0.931 . S
C1241 C1240 1.370 . S
C1241 C1245 1.408 1_556 S
C1242 C1240 1.363 . S
C1242 C1243 1.370 1_556 S
C1242 C1246 1.524 . S
C1243 C1235 1.503 . S
C1243 C1242 1.370 1_554 S
C1243 C1244 1.403 . S
C1244 C1243 1.403 . S
C1244 C1245 1.404 . S
C1244 C1247 1.539 . S
C1245 C1241 1.408 1_554 S
C1245 C1244 1.404 . S
C1245 H1257 0.930 . S
C1246 C1242 1.524 . S
C1246 H1258 0.956 . S
C1246 H1259 0.961 . S
C1246 H1260 0.961 . S
C1247 C1244 1.539 . S
C1247 H1261 0.958 . S
C1247 H1262 0.961 . S
C1247 H1263 0.960 . S
H1248 C1232 0.931 . S
H1249 C1237 0.929 . S
H1250 C1238 0.960 . S
H1251 C1238 0.962 . S
H1252 C1238 0.960 . S
H1253 C1239 0.961 . S
H1254 C1239 0.961 . S
H1255 C1239 0.961 . S
H1256 C1240 0.931 . S
H1257 C1245 0.930 . S
H1258 C1246 0.956 . S
H1259 C1246 0.961 . S
H1260 C1246 0.961 . S
H1261 C1247 0.958 . S
H1262 C1247 0.961 . S
H1263 C1247 0.960 . S
C1264 C1265 1.391 . S
C1264 C1266 1.394 . S
C1264 H1280 0.931 . S
C1265 C1264 1.391 . S
C1265 C1269 1.376 . S
C1266 C1264 1.394 . S
C1266 C1267 1.369 . S
C1266 C1270 1.531 . S
C1267 C1266 1.369 . S
C1267 C1268 1.410 . S
C1267 C1275 1.503 . S
C1268 C1267 1.410 . S
C1268 C1269 1.392 . S
C1268 C1271 1.511 . S
C1269 C1265 1.376 . S
C1269 C1268 1.392 . S
C1269 H1281 0.929 . S
C1270 C1266 1.531 . S
C1270 H1282 0.960 . S
C1270 H1283 0.962 . S
C1270 H1284 0.960 . S
C1271 C1268 1.511 . S
C1271 H1285 0.961 . S
C1271 H1286 0.961 . S
C1271 H1287 0.961 . S
C1272 C1273 1.370 . S
C1272 C1274 1.363 . S
C1272 H1288 0.931 . S
C1273 C1272 1.370 . S
C1273 C1277 1.408 . S
C1274 C1272 1.363 . S
C1274 C1275 1.370 . S
C1274 C1278 1.524 . S
C1275 C1267 1.503 . S
C1275 C1274 1.370 . S
C1275 C1276 1.403 . S
C1276 C1275 1.403 . S
C1276 C1277 1.404 . S
C1276 C1279 1.539 . S
C1277 C1273 1.408 . S
C1277 C1276 1.404 . S
C1277 H1289 0.930 . S
C1278 C1274 1.524 . S
C1278 H1290 0.956 . S
C1278 H1291 0.961 . S
C1278 H1292 0.961 . S
C1279 C1276 1.539 . S
C1279 H1293 0.958 . S
C1279 H1294 0.961 . S
C1279 H1295 0.960 . S
H1280 C1264 0.931 . S
H1281 C1269 0.929 . S
H1282 C1270 0.960 . S
H1283 C1270 0.962 . S
H1284 C1270 0.960 . S
H1285 C1271 0.961 . S
H1286 C1271 0.961 . S
H1287 C1271 0.961 . S
H1288 C1272 0.931 . S
H1289 C1277 0.930 . S
H1290 C1278 0.956 . S
H1291 C1278 0.961 . S
H1292 C1278 0.961 . S
H1293 C1279 0.958 . S
H1294 C1279 0.961 . S
H1295 C1279 0.960 . S
C1296 C1297 1.391 . S
C1296 C1298 1.394 . S
C1296 H1312 0.931 . S
C1297 C1296 1.391 . S
C1297 C1301 1.376 . S
C1298 C1296 1.394 . S
C1298 C1299 1.369 . S
C1298 C1302 1.531 . S
C1299 C1298 1.369 . S
C1299 C1300 1.410 . S
C1299 C1307 1.503 . S
C1300 C1299 1.410 . S
C1300 C1301 1.392 . S
C1300 C1303 1.511 . S
C1301 C1297 1.376 . S
C1301 C1300 1.392 . S
C1301 H1313 0.929 . S
C1302 C1298 1.531 . S
C1302 H1314 0.960 . S
C1302 H1315 0.962 . S
C1302 H1316 0.960 . S
C1303 C1300 1.511 . S
C1303 H1317 0.961 . S
C1303 H1318 0.961 . S
C1303 H1319 0.961 . S
C1304 C1305 1.370 . S
C1304 C1306 1.363 . S
C1304 H1320 0.931 . S
C1305 C1304 1.370 . S
C1305 C1309 1.408 . S
C1306 C1304 1.363 . S
C1306 C1307 1.370 . S
C1306 C1310 1.524 . S
C1307 C1299 1.503 . S
C1307 C1306 1.370 . S
C1307 C1308 1.403 . S
C1308 C1307 1.403 . S
C1308 C1309 1.404 . S
C1308 C1311 1.539 . S
C1309 C1305 1.408 . S
C1309 C1308 1.404 . S
C1309 H1321 0.930 . S
C1310 C1306 1.524 . S
C1310 H1322 0.956 . S
C1310 H1323 0.961 . S
C1310 H1324 0.961 . S
C1311 C1308 1.539 . S
C1311 H1325 0.958 . S
C1311 H1326 0.961 . S
C1311 H1327 0.960 . S
H1312 C1296 0.931 . S
H1313 C1301 0.929 . S
H1314 C1302 0.960 . S
H1315 C1302 0.962 . S
H1316 C1302 0.960 . S
H1317 C1303 0.961 . S
H1318 C1303 0.961 . S
H1319 C1303 0.961 . S
H1320 C1304 0.931 . S
H1321 C1309 0.930 . S
H1322 C1310 0.956 . S
H1323 C1310 0.961 . S
H1324 C1310 0.961 . S
H1325 C1311 0.958 . S
H1326 C1311 0.961 . S
H1327 C1311 0.960 . S
C1328 C1329 1.391 . S
C1328 C1330 1.394 . S
C1328 H1344 0.931 . S
C1329 C1328 1.391 . S
C1329 C1333 1.376 . S
C1330 C1328 1.394 . S
C1330 C1331 1.369 . S
C1330 C1334 1.531 . S
C1331 C1330 1.369 . S
C1331 C1332 1.410 . S
C1331 C1339 1.503 . S
C1332 C1331 1.410 . S
C1332 C1333 1.392 . S
C1332 C1335 1.511 . S
C1333 C1329 1.376 . S
C1333 C1332 1.392 . S
C1333 H1345 0.929 . S
C1334 C1330 1.531 . S
C1334 H1346 0.960 . S
C1334 H1347 0.962 . S
C1334 H1348 0.960 . S
C1335 C1332 1.511 . S
C1335 H1349 0.961 . S
C1335 H1350 0.961 . S
C1335 H1351 0.961 . S
C1336 C1337 1.370 . S
C1336 C1338 1.363 . S
C1336 H1352 0.931 . S
C1337 C1336 1.370 . S
C1337 C1341 1.408 . S
C1338 C1336 1.363 . S
C1338 C1339 1.370 . S
C1338 C1342 1.524 . S
C1339 C1331 1.503 . S
C1339 C1338 1.370 . S
C1339 C1340 1.403 . S
C1340 C1339 1.403 . S
C1340 C1341 1.404 . S
C1340 C1343 1.539 . S
C1341 C1337 1.408 . S
C1341 C1340 1.404 . S
C1341 H1353 0.930 . S
C1342 C1338 1.524 . S
C1342 H1354 0.956 . S
C1342 H1355 0.961 . S
C1342 H1356 0.961 . S
C1343 C1340 1.539 . S
C1343 H1357 0.958 . S
C1343 H1358 0.961 . S
C1343 H1359 0.960 . S
H1344 C1328 0.931 . S
H1345 C1333 0.929 . S
H1346 C1334 0.960 . S
H1347 C1334 0.962 . S
H1348 C1334 0.960 . S
H1349 C1335 0.961 . S
H1350 C1335 0.961 . S
H1351 C1335 0.961 . S
H1352 C1336 0.931 . S
H1353 C1341 0.930 . S
H1354 C1342 0.956 . S
H1355 C1342 0.961 . S
H1356 C1342 0.961 . S
H1357 C1343 0.958 . S
H1358 C1343 0.961 . S
H1359 C1343 0.960 . S
C1360 C1361 1.391 . S
C1360 C1362 1.394 . S
C1360 H1376 0.931 . S
C1361 C1360 1.391 . S
C1361 C1365 1.376 . S
C1362 C1360 1.394 . S
C1362 C1363 1.369 . S
C1362 C1366 1.531 . S
C1363 C1362 1.369 . S
C1363 C1364 1.410 . S
C1363 C1371 1.503 . S
C1364 C1363 1.410 . S
C1364 C1365 1.392 . S
C1364 C1367 1.511 . S
C1365 C1361 1.376 . S
C1365 C1364 1.392 . S
C1365 H1377 0.929 . S
C1366 C1362 1.531 . S
C1366 H1378 0.960 . S
C1366 H1379 0.962 . S
C1366 H1380 0.960 . S
C1367 C1364 1.511 . S
C1367 H1381 0.961 . S
C1367 H1382 0.961 . S
C1367 H1383 0.961 . S
C1368 C1369 1.370 . S
C1368 C1370 1.363 . S
C1368 H1384 0.931 . S
C1369 C1368 1.370 . S
C1369 C1373 1.408 . S
C1370 C1368 1.363 . S
C1370 C1371 1.370 . S
C1370 C1374 1.524 . S
C1371 C1363 1.503 . S
C1371 C1370 1.370 . S
C1371 C1372 1.403 . S
C1372 C1371 1.403 . S
C1372 C1373 1.404 . S
C1372 C1375 1.539 . S
C1373 C1369 1.408 . S
C1373 C1372 1.404 . S
C1373 H1385 0.930 . S
C1374 C1370 1.524 . S
C1374 H1386 0.956 . S
C1374 H1387 0.961 . S
C1374 H1388 0.961 . S
C1375 C1372 1.539 . S
C1375 H1389 0.958 . S
C1375 H1390 0.961 . S
C1375 H1391 0.960 . S
H1376 C1360 0.931 . S
H1377 C1365 0.929 . S
H1378 C1366 0.960 . S
H1379 C1366 0.962 . S
H1380 C1366 0.960 . S
H1381 C1367 0.961 . S
H1382 C1367 0.961 . S
H1383 C1367 0.961 . S
H1384 C1368 0.931 . S
H1385 C1373 0.930 . S
H1386 C1374 0.956 . S
H1387 C1374 0.961 . S
H1388 C1374 0.961 . S
H1389 C1375 0.958 . S
H1390 C1375 0.961 . S
H1391 C1375 0.960 . S
C1392 C1393 1.391 . S
C1392 C1394 1.394 . S
C1392 H1408 0.931 . S
C1393 C1392 1.391 . S
C1393 C1397 1.376 . S
C1394 C1392 1.394 . S
C1394 C1395 1.369 . S
C1394 C1398 1.531 . S
C1395 C1394 1.369 . S
C1395 C1396 1.410 . S
C1395 C1403 1.503 . S
C1396 C1395 1.410 . S
C1396 C1397 1.392 . S
C1396 C1399 1.511 . S
C1397 C1393 1.376 . S
C1397 C1396 1.392 . S
C1397 H1409 0.929 . S
C1398 C1394 1.531 . S
C1398 H1410 0.960 . S
C1398 H1411 0.962 . S
C1398 H1412 0.960 . S
C1399 C1396 1.511 . S
C1399 H1413 0.961 . S
C1399 H1414 0.961 . S
C1399 H1415 0.961 . S
C1400 C1401 1.370 . S
C1400 C1402 1.363 . S
C1400 H1416 0.931 . S
C1401 C1400 1.370 . S
C1401 C1405 1.408 . S
C1402 C1400 1.363 . S
C1402 C1403 1.370 . S
C1402 C1406 1.524 . S
C1403 C1395 1.503 . S
C1403 C1402 1.370 . S
C1403 C1404 1.403 . S
C1404 C1403 1.403 . S
C1404 C1405 1.404 . S
C1404 C1407 1.539 . S
C1405 C1401 1.408 . S
C1405 C1404 1.404 . S
C1405 H1417 0.930 . S
C1406 C1402 1.524 . S
C1406 H1418 0.956 . S
C1406 H1419 0.961 . S
C1406 H1420 0.961 . S
C1407 C1404 1.539 . S
C1407 H1421 0.958 . S
C1407 H1422 0.961 . S
C1407 H1423 0.960 . S
H1408 C1392 0.931 . S
H1409 C1397 0.929 . S
H1410 C1398 0.960 . S
H1411 C1398 0.962 . S
H1412 C1398 0.960 . S
H1413 C1399 0.961 . S
H1414 C1399 0.961 . S
H1415 C1399 0.961 . S
H1416 C1400 0.931 . S
H1417 C1405 0.930 . S
H1418 C1406 0.956 . S
H1419 C1406 0.961 . S
H1420 C1406 0.961 . S
H1421 C1407 0.958 . S
H1422 C1407 0.961 . S
H1423 C1407 0.960 . S
C1424 C1425 1.391 1_565 S
C1424 C1426 1.394 . S
C1424 H1440 0.931 . S
C1425 C1424 1.391 1_545 S
C1425 C1429 1.376 . S
C1426 C1424 1.394 . S
C1426 C1427 1.369 . S
C1426 C1430 1.531 . S
C1427 C1426 1.369 . S
C1427 C1428 1.410 1_565 S
C1427 C1435 1.503 . S
C1428 C1427 1.410 1_545 S
C1428 C1429 1.392 . S
C1428 C1431 1.511 . S
C1429 C1425 1.376 . S
C1429 C1428 1.392 . S
C1429 H1441 0.929 . S
C1430 C1426 1.531 . S
C1430 H1442 0.960 . S
C1430 H1443 0.962 . S
C1430 H1444 0.960 . S
C1431 C1428 1.511 . S
C1431 H1445 0.961 . S
C1431 H1446 0.961 . S
C1431 H1447 0.961 . S
C1432 C1433 1.370 1_545 S
C1432 C1434 1.363 . S
C1432 H1448 0.931 . S
C1433 C1432 1.370 1_565 S
C1433 C1437 1.408 . S
C1434 C1432 1.363 . S
C1434 C1435 1.370 1_545 S
C1434 C1438 1.524 . S
C1435 C1427 1.503 . S
C1435 C1434 1.370 1_565 S
C1435 C1436 1.403 . S
C1436 C1435 1.403 . S
C1436 C1437 1.404 . S
C1436 C1439 1.539 . S
C1437 C1433 1.408 . S
C1437 C1436 1.404 . S
C1437 H1449 0.930 . S
C1438 C1434 1.524 . S
C1438 H1450 0.956 . S
C1438 H1451 0.961 . S
C1438 H1452 0.961 . S
C1439 C1436 1.539 . S
C1439 H1453 0.958 . S
C1439 H1454 0.961 . S
C1439 H1455 0.960 . S
H1440 C1424 0.931 . S
H1441 C1429 0.929 . S
H1442 C1430 0.960 . S
H1443 C1430 0.962 . S
H1444 C1430 0.960 . S
H1445 C1431 0.961 . S
H1446 C1431 0.961 . S
H1447 C1431 0.961 . S
H1448 C1432 0.931 . S
H1449 C1437 0.930 . S
H1450 C1438 0.956 . S
H1451 C1438 0.961 . S
H1452 C1438 0.961 . S
H1453 C1439 0.958 . S
H1454 C1439 0.961 . S
H1455 C1439 0.960 . S
C1456 C1457 1.391 . S
C1456 C1458 1.394 . S
C1456 H1472 0.931 . S
C1457 C1456 1.391 . S
C1457 C1461 1.376 1_556 S
C1458 C1456 1.394 . S
C1458 C1459 1.369 1_556 S
C1458 C1462 1.531 . S
C1459 C1458 1.369 1_554 S
C1459 C1460 1.410 . S
C1459 C1467 1.503 . S
C1460 C1459 1.410 . S
C1460 C1461 1.392 . S
C1460 C1463 1.511 . S
C1461 C1457 1.376 1_554 S
C1461 C1460 1.392 . S
C1461 H1473 0.929 . S
C1462 C1458 1.531 . S
C1462 H1474 0.960 . S
C1462 H1475 0.962 . S
C1462 H1476 0.960 . S
C1463 C1460 1.511 . S
C1463 H1477 0.961 . S
C1463 H1478 0.961 . S
C1463 H1479 0.961 . S
C1464 C1465 1.370 1_556 S
C1464 C1466 1.363 . S
C1464 H1480 0.931 . S
C1465 C1464 1.370 1_554 S
C1465 C1469 1.408 . S
C1466 C1464 1.363 . S
C1466 C1467 1.370 1_556 S
C1466 C1470 1.524 . S
C1467 C1459 1.503 . S
C1467 C1466 1.370 1_554 S
C1467 C1468 1.403 . S
C1468 C1467 1.403 . S
C1468 C1469 1.404 . S
C1468 C1471 1.539 . S
C1469 C1465 1.408 . S
C1469 C1468 1.404 . S
C1469 H1481 0.930 . S
C1470 C1466 1.524 . S
C1470 H1482 0.956 . S
C1470 H1483 0.961 . S
C1470 H1484 0.961 . S
C1471 C1468 1.539 . S
C1471 H1485 0.958 . S
C1471 H1486 0.961 . S
C1471 H1487 0.960 . S
H1472 C1456 0.931 . S
H1473 C1461 0.929 . S
H1474 C1462 0.960 . S
H1475 C1462 0.962 . S
H1476 C1462 0.960 . S
H1477 C1463 0.961 . S
H1478 C1463 0.961 . S
H1479 C1463 0.961 . S
H1480 C1464 0.931 . S
H1481 C1469 0.930 . S
H1482 C1470 0.956 . S
H1483 C1470 0.961 . S
H1484 C1470 0.961 . S
H1485 C1471 0.958 . S
H1486 C1471 0.961 . S
H1487 C1471 0.960 . S
C1488 C1489 1.403 . S
C1488 C1490 1.394 . S
C1488 H1504 0.931 . S
C1489 C1488 1.403 . S
C1489 C1493 1.362 1_455 S
C1490 C1488 1.394 . S
C1490 C1491 1.369 1_455 S
C1490 C1494 1.531 1_565 S
C1491 C1490 1.369 1_655 S
C1491 C1492 1.410 . S
C1491 C1499 1.503 1_565 S
C1492 C1491 1.410 . S
C1492 C1493 1.392 . S
C1492 C1495 1.511 . S
C1493 C1489 1.362 1_655 S
C1493 C1492 1.392 . S
C1493 H1505 0.929 . S
C1494 C1490 1.531 1_545 S
C1494 H1506 0.960 . S
C1494 H1507 0.962 . S
C1494 H1508 0.960 . S
C1495 C1492 1.511 . S
C1495 H1509 0.961 . S
C1495 H1510 0.961 . S
C1495 H1511 0.961 . S
C1496 C1497 1.365 1_455 S
C1496 C1498 1.363 . S
C1496 H1512 0.931 . S
C1497 C1496 1.365 1_655 S
C1497 C1501 1.413 . S
C1498 C1496 1.363 . S
C1498 C1499 1.370 1_455 S
C1498 C1502 1.524 1_545 S
C1499 C1491 1.503 1_545 S
C1499 C1498 1.370 1_655 S
C1499 C1500 1.403 . S
C1500 C1499 1.403 . S
C1500 C1501 1.404 . S
C1500 C1503 1.539 . S
C1501 C1497 1.413 . S
C1501 C1500 1.404 . S
C1501 H1513 0.930 . S
C1502 C1498 1.524 1_565 S
C1502 H1514 0.956 . S
C1502 H1515 0.961 . S
C1502 H1516 0.961 . S
C1503 C1500 1.539 . S
C1503 H1517 0.958 . S
C1503 H1518 0.961 . S
C1503 H1519 0.960 . S
H1504 C1488 0.931 . S
H1505 C1493 0.929 . S
H1506 C1494 0.960 . S
H1507 C1494 0.962 . S
H1508 C1494 0.960 . S
H1509 C1495 0.961 . S
H1510 C1495 0.961 . S
H1511 C1495 0.961 . S
H1512 C1496 0.931 . S
H1513 C1501 0.930 . S
H1514 C1502 0.956 . S
H1515 C1502 0.961 . S
H1516 C1502 0.961 . S
H1517 C1503 0.958 . S
H1518 C1503 0.961 . S
H1519 C1503 0.960 . S
C1520 C1521 1.391 1_455 S
C1520 C1522 1.394 . S
C1520 H1536 0.931 . S
C1521 C1520 1.391 1_655 S
C1521 C1525 1.376 . S
C1522 C1520 1.394 . S
C1522 C1523 1.369 1_455 S
C1522 C1526 1.531 . S
C1523 C1522 1.369 1_655 S
C1523 C1524 1.410 . S
C1523 C1531 1.503 . S
C1524 C1523 1.410 . S
C1524 C1525 1.392 . S
C1524 C1527 1.511 . S
C1525 C1521 1.376 . S
C1525 C1524 1.392 . S
C1525 H1537 0.929 . S
C1526 C1522 1.531 . S
C1526 H1538 0.960 . S
C1526 H1539 0.962 . S
C1526 H1540 0.960 . S
C1527 C1524 1.511 . S
C1527 H1541 0.961 . S
C1527 H1542 0.961 . S
C1527 H1543 0.961 . S
C1528 C1529 1.370 1_455 S
C1528 C1530 1.363 . S
C1528 H1544 0.931 . S
C1529 C1528 1.370 1_655 S
C1529 C1533 1.408 . S
C1530 C1528 1.363 . S
C1530 C1531 1.370 1_455 S
C1530 C1534 1.524 . S
C1531 C1523 1.503 . S
C1531 C1530 1.370 1_655 S
C1531 C1532 1.403 . S
C1532 C1531 1.403 . S
C1532 C1533 1.404 . S
C1532 C1535 1.539 . S
C1533 C1529 1.408 . S
C1533 C1532 1.404 . S
C1533 H1545 0.930 . S
C1534 C1530 1.524 . S
C1534 H1546 0.956 . S
C1534 H1547 0.961 . S
C1534 H1548 0.961 . S
C1535 C1532 1.539 . S
C1535 H1549 0.958 . S
C1535 H1550 0.961 . S
C1535 H1551 0.960 . S
H1536 C1520 0.931 . S
H1537 C1525 0.929 . S
H1538 C1526 0.960 . S
H1539 C1526 0.962 . S
H1540 C1526 0.960 . S
H1541 C1527 0.961 . S
H1542 C1527 0.961 . S
H1543 C1527 0.961 . S
H1544 C1528 0.931 . S
H1545 C1533 0.930 . S
H1546 C1534 0.956 . S
H1547 C1534 0.961 . S
H1548 C1534 0.961 . S
H1549 C1535 0.958 . S
H1550 C1535 0.961 . S
H1551 C1535 0.960 . S
C1552 C1553 1.391 . S
C1552 C1554 1.394 . S
C1552 H1568 0.931 . S
C1553 C1552 1.391 . S
C1553 C1557 1.376 1_545 S
C1554 C1552 1.394 . S
C1554 C1555 1.384 . S
C1554 C1558 1.531 1_556 S
C1555 C1554 1.384 . S
C1555 C1556 1.394 1_545 S
C1555 C1563 1.503 1_556 S
C1556 C1555 1.394 1_565 S
C1556 C1557 1.392 . S
C1556 C1559 1.511 . S
C1557 C1553 1.376 1_565 S
C1557 C1556 1.392 . S
C1557 H1569 0.929 . S
C1558 C1554 1.531 1_554 S
C1558 H1570 0.960 . S
C1558 H1571 0.962 1_554 S
C1558 H1572 0.960 . S
C1559 C1556 1.511 . S
C1559 H1573 0.961 . S
C1559 H1574 0.961 . S
C1559 H1575 0.961 . S
C1560 C1561 1.372 . S
C1560 C1562 1.363 . S
C1560 H1576 0.931 . S
C1561 C1560 1.372 . S
C1561 C1565 1.407 1_545 S
C1562 C1560 1.363 . S
C1562 C1563 1.373 . S
C1562 C1566 1.524 1_554 S
C1563 C1555 1.503 1_554 S
C1563 C1562 1.373 . S
C1563 C1564 1.400 1_545 S
C1564 C1563 1.400 1_565 S
C1564 C1565 1.404 . S
C1564 C1567 1.539 . S
C1565 C1561 1.407 1_565 S
C1565 C1564 1.404 . S
C1565 H1577 0.930 . S
C1566 C1562 1.524 1_556 S
C1566 H1578 0.956 . S
C1566 H1579 0.929 1_545 S
C1566 H1580 0.961 . S
C1567 C1564 1.539 . S
C1567 H1581 0.928 1_565 S
C1567 H1582 0.961 . S
C1567 H1583 0.960 . S
H1568 C1552 0.931 . S
H1569 C1557 0.929 . S
H1570 C1558 0.960 . S
H1571 C1558 0.962 1_556 S
H1572 C1558 0.960 . S
H1573 C1559 0.961 . S
H1574 C1559 0.961 . S
H1575 C1559 0.961 . S
H1576 C1560 0.931 . S
H1577 C1565 0.930 . S
H1578 C1566 0.956 . S
H1579 C1566 0.929 1_565 S
H1580 C1566 0.961 . S
H1581 C1567 0.928 1_545 S
H1582 C1567 0.961 . S
H1583 C1567 0.960 . S
C1584 C1585 1.391 . S
C1584 C1586 1.394 . S
C1584 H1600 0.931 . S
C1585 C1584 1.391 . S
C1585 C1589 1.376 . S
C1586 C1584 1.394 . S
C1586 C1587 1.369 . S
C1586 C1590 1.531 1_554 S
C1587 C1586 1.369 . S
C1587 C1588 1.410 . S
C1587 C1595 1.503 1_554 S
C1588 C1587 1.410 . S
C1588 C1589 1.392 . S
C1588 C1591 1.511 . S
C1589 C1585 1.376 . S
C1589 C1588 1.392 . S
C1589 H1601 0.929 . S
C1590 C1586 1.531 1_556 S
C1590 H1602 0.960 . S
C1590 H1603 0.962 . S
C1590 H1604 0.960 . S
C1591 C1588 1.511 . S
C1591 H1605 0.961 . S
C1591 H1606 0.961 . S
C1591 H1607 0.961 . S
C1592 C1593 1.370 . S
C1592 C1594 1.363 . S
C1592 H1608 0.931 . S
C1593 C1592 1.370 . S
C1593 C1597 1.408 . S
C1594 C1592 1.363 . S
C1594 C1595 1.370 . S
C1594 C1598 1.524 1_556 S
C1595 C1587 1.503 1_556 S
C1595 C1594 1.370 . S
C1595 C1596 1.403 . S
C1596 C1595 1.403 . S
C1596 C1597 1.404 . S
C1596 C1599 1.539 . S
C1597 C1593 1.408 . S
C1597 C1596 1.404 . S
C1597 H1609 0.930 . S
C1598 C1594 1.524 1_554 S
C1598 H1610 0.956 . S
C1598 H1611 0.961 . S
C1598 H1612 0.961 . S
C1599 C1596 1.539 . S
C1599 H1613 0.958 . S
C1599 H1614 0.961 . S
C1599 H1615 0.960 . S
H1600 C1584 0.931 . S
H1601 C1589 0.929 . S
H1602 C1590 0.960 . S
H1603 C1590 0.962 . S
H1604 C1590 0.960 . S
H1605 C1591 0.961 . S
H1606 C1591 0.961 . S
H1607 C1591 0.961 . S
H1608 C1592 0.931 . S
H1609 C1597 0.930 . S
H1610 C1598 0.956 . S
H1611 C1598 0.961 . S
H1612 C1598 0.961 . S
H1613 C1599 0.958 . S
H1614 C1599 0.961 . S
H1615 C1599 0.960 . S
C1616 C1617 1.391 . S
C1616 C1618 1.394 . S
C1616 H1632 0.931 . S
C1617 C1616 1.391 . S
C1617 C1621 1.376 . S
C1618 C1616 1.394 . S
C1618 C1619 1.369 . S
C1618 C1622 1.531 . S
C1619 C1618 1.369 . S
C1619 C1620 1.410 . S
C1619 C1627 1.503 . S
C1620 C1619 1.410 . S
C1620 C1621 1.392 . S
C1620 C1623 1.511 . S
C1621 C1617 1.376 . S
C1621 C1620 1.392 . S
C1621 H1633 0.929 . S
C1622 C1618 1.531 . S
C1622 H1634 0.960 . S
C1622 H1635 0.962 1_565 S
C1622 H1636 0.960 . S
C1623 C1620 1.511 . S
C1623 H1637 0.961 . S
C1623 H1638 0.961 . S
C1623 H1639 0.961 . S
C1624 C1625 1.370 1_545 S
C1624 C1626 1.363 . S
C1624 H1640 0.931 . S
C1625 C1624 1.370 1_565 S
C1625 C1629 1.408 . S
C1626 C1624 1.363 . S
C1626 C1627 1.370 1_545 S
C1626 C1630 1.524 . S
C1627 C1619 1.503 . S
C1627 C1626 1.370 1_565 S
C1627 C1628 1.403 . S
C1628 C1627 1.403 . S
C1628 C1629 1.404 . S
C1628 C1631 1.539 . S
C1629 C1625 1.408 . S
C1629 C1628 1.404 . S
C1629 H1641 0.930 . S
C1630 C1626 1.524 . S
C1630 H1642 0.956 . S
C1630 H1643 0.961 . S
C1630 H1644 0.961 . S
C1631 C1628 1.539 . S
C1631 H1645 0.958 . S
C1631 H1646 0.961 . S
C1631 H1647 0.960 . S
H1632 C1616 0.931 . S
H1633 C1621 0.929 . S
H1634 C1622 0.960 . S
H1635 C1622 0.962 1_545 S
H1636 C1622 0.960 . S
H1637 C1623 0.961 . S
H1638 C1623 0.961 . S
H1639 C1623 0.961 . S
H1640 C1624 0.931 . S
H1641 C1629 0.930 . S
H1642 C1630 0.956 . S
H1643 C1630 0.961 . S
H1644 C1630 0.961 . S
H1645 C1631 0.958 . S
H1646 C1631 0.961 . S
H1647 C1631 0.960 . S
C1648 C1649 1.391 . S
C1648 C1650 1.394 . S
C1648 H1664 0.931 . S
C1649 C1648 1.391 . S
C1649 C1653 1.376 . S
C1650 C1648 1.394 . S
C1650 C1651 1.369 . S
C1650 C1654 1.531 . S
C1651 C1650 1.369 . S
C1651 C1652 1.410 . S
C1651 C1659 1.503 . S
C1652 C1651 1.410 . S
C1652 C1653 1.392 . S
C1652 C1655 1.511 . S
C1653 C1649 1.376 . S
C1653 C1652 1.392 . S
C1653 H1665 0.929 . S
C1654 C1650 1.531 . S
C1654 H1666 0.960 . S
C1654 H1667 0.962 . S
C1654 H1668 0.960 . S
C1655 C1652 1.511 . S
C1655 H1669 0.961 . S
C1655 H1670 0.961 . S
C1655 H1671 0.961 . S
C1656 C1657 1.370 . S
C1656 C1658 1.363 . S
C1656 H1672 0.931 . S
C1657 C1656 1.370 . S
C1657 C1661 1.408 . S
C1658 C1656 1.363 . S
C1658 C1659 1.370 . S
C1658 C1662 1.524 . S
C1659 C1651 1.503 . S
C1659 C1658 1.370 . S
C1659 C1660 1.403 . S
C1660 C1659 1.403 . S
C1660 C1661 1.404 . S
C1660 C1663 1.539 . S
C1661 C1657 1.408 . S
C1661 C1660 1.404 . S
C1661 H1673 0.930 . S
C1662 C1658 1.524 . S
C1662 H1674 0.956 . S
C1662 H1675 0.961 . S
C1662 H1676 0.961 . S
C1663 C1660 1.539 . S
C1663 H1677 0.958 . S
C1663 H1678 0.961 . S
C1663 H1679 0.960 . S
H1664 C1648 0.931 . S
H1665 C1653 0.929 . S
H1666 C1654 0.960 . S
H1667 C1654 0.962 . S
H1668 C1654 0.960 . S
H1669 C1655 0.961 . S
H1670 C1655 0.961 . S
H1671 C1655 0.961 . S
H1672 C1656 0.931 . S
H1673 C1661 0.930 . S
H1674 C1662 0.956 . S
H1675 C1662 0.961 . S
H1676 C1662 0.961 . S
H1677 C1663 0.958 . S
H1678 C1663 0.961 . S
H1679 C1663 0.960 . S
C1680 C1681 1.379 1_556 S
C1680 C1682 1.394 . S
C1680 H1696 0.931 . S
C1681 C1680 1.379 1_554 S
C1681 C1685 1.388 . S
C1682 C1680 1.394 . S
C1682 C1683 1.363 1_556 S
C1682 C1686 1.531 . S
C1683 C1682 1.363 1_554 S
C1683 C1684 1.416 . S
C1683 C1691 1.504 1_455 S
C1684 C1683 1.416 . S
C1684 C1685 1.392 . S
C1684 C1687 1.511 . S
C1685 C1681 1.388 . S
C1685 C1684 1.392 . S
C1685 H1697 0.929 . S
C1686 C1682 1.531 . S
C1686 H1698 0.960 . S
C1686 H1699 0.962 1_455 S
C1686 H1700 0.960 . S
C1687 C1684 1.511 . S
C1687 H1701 0.961 . S
C1687 H1702 0.942 1_455 S
C1687 H1703 0.961 . S
C1688 C1689 1.370 . S
C1688 C1690 1.363 . S
C1688 H1704 0.931 . S
C1689 C1688 1.370 . S
C1689 C1693 1.405 1_554 S
C1690 C1688 1.363 . S
C1690 C1691 1.370 . S
C1690 C1694 1.524 . S
C1691 C1683 1.504 1_655 S
C1691 C1690 1.370 . S
C1691 C1692 1.403 1_554 S
C1692 C1691 1.403 1_556 S
C1692 C1693 1.405 . S
C1692 C1695 1.539 1_655 S
C1693 C1689 1.405 1_556 S
C1693 C1692 1.405 . S
C1693 H1705 0.933 . S
C1694 C1690 1.524 . S
C1694 H1706 0.956 1_554 S
C1694 H1707 0.961 . S
C1694 H1708 0.961 . S
C1695 C1692 1.539 1_455 S
C1695 H1709 0.958 . S
C1695 H1710 0.961 1_556 S
C1695 H1711 0.960 1_556 S
H1696 C1680 0.931 . S
H1697 C1685 0.929 . S
H1698 C1686 0.960 . S
H1699 C1686 0.962 1_655 S
H1700 C1686 0.960 . S
H1701 C1687 0.961 . S
H1702 C1687 0.942 1_655 S
H1703 C1687 0.961 . S
H1704 C1688 0.931 . S
H1705 C1693 0.933 . S
H1706 C1694 0.956 1_556 S
H1707 C1694 0.961 . S
H1708 C1694 0.961 . S
H1709 C1695 0.958 . S
H1710 C1695 0.961 1_554 S
H1711 C1695 0.960 1_554 S
C1712 C1713 1.391 . S
C1712 C1714 1.394 . S
C1712 H1728 0.931 . S
C1713 C1712 1.391 . S
C1713 C1717 1.376 . S
C1714 C1712 1.394 . S
C1714 C1715 1.369 . S
C1714 C1718 1.531 . S
C1715 C1714 1.369 . S
C1715 C1716 1.410 . S
C1715 C1723 1.503 1_455 S
C1716 C1715 1.410 . S
C1716 C1717 1.392 . S
C1716 C1719 1.511 1_455 S
C1717 C1713 1.376 . S
C1717 C1716 1.392 . S
C1717 H1729 0.929 . S
C1718 C1714 1.531 . S
C1718 H1730 0.960 . S
C1718 H1731 0.962 . S
C1718 H1732 0.960 . S
C1719 C1716 1.511 1_655 S
C1719 H1733 0.961 . S
C1719 H1734 0.961 . S
C1719 H1735 0.961 . S
C1720 C1721 1.370 . S
C1720 C1722 1.363 . S
C1720 H1736 0.931 . S
C1721 C1720 1.370 . S
C1721 C1725 1.408 . S
C1722 C1720 1.363 . S
C1722 C1723 1.370 . S
C1722 C1726 1.524 . S
C1723 C1715 1.503 1_655 S
C1723 C1722 1.370 . S
C1723 C1724 1.403 . S
C1724 C1723 1.403 . S
C1724 C1725 1.404 . S
C1724 C1727 1.521 1_655 S
C1725 C1721 1.408 . S
C1725 C1724 1.404 . S
C1725 H1737 0.930 . S
C1726 C1722 1.524 . S
C1726 H1738 0.956 . S
C1726 H1739 0.961 . S
C1726 H1740 0.961 . S
C1727 C1724 1.521 1_455 S
C1727 H1741 0.985 . S
C1727 H1742 0.942 1_455 S
C1727 H1743 0.972 . S
H1728 C1712 0.931 . S
H1729 C1717 0.929 . S
H1730 C1718 0.960 . S
H1731 C1718 0.962 . S
H1732 C1718 0.960 . S
H1733 C1719 0.961 . S
H1734 C1719 0.961 . S
H1735 C1719 0.961 . S
H1736 C1720 0.931 . S
H1737 C1725 0.930 . S
H1738 C1726 0.956 . S
H1739 C1726 0.961 . S
H1740 C1726 0.961 . S
H1741 C1727 0.985 . S
H1742 C1727 0.942 1_655 S
H1743 C1727 0.972 . S
C1744 C1745 1.391 . S
C1744 C1746 1.394 . S
C1744 H1760 0.931 . S
C1745 C1744 1.391 . S
C1745 C1749 1.376 . S
C1746 C1744 1.394 . S
C1746 C1747 1.369 . S
C1746 C1750 1.531 . S
C1747 C1746 1.369 . S
C1747 C1748 1.410 . S
C1747 C1755 1.503 . S
C1748 C1747 1.410 . S
C1748 C1749 1.392 . S
C1748 C1751 1.511 . S
C1749 C1745 1.376 . S
C1749 C1748 1.392 . S
C1749 H1761 0.929 . S
C1750 C1746 1.531 . S
C1750 H1762 0.960 . S
C1750 H1763 0.962 . S
C1750 H1764 0.960 . S
C1751 C1748 1.511 . S
C1751 H1765 0.961 . S
C1751 H1766 0.961 . S
C1751 H1767 0.961 . S
C1752 C1753 1.370 . S
C1752 C1754 1.363 . S
C1752 H1768 0.931 . S
C1753 C1752 1.370 . S
C1753 C1757 1.408 . S
C1754 C1752 1.363 . S
C1754 C1755 1.370 . S
C1754 C1758 1.524 . S
C1755 C1747 1.503 . S
C1755 C1754 1.370 . S
C1755 C1756 1.403 . S
C1756 C1755 1.403 . S
C1756 C1757 1.404 . S
C1756 C1759 1.539 . S
C1757 C1753 1.408 . S
C1757 C1756 1.404 . S
C1757 H1769 0.930 . S
C1758 C1754 1.524 . S
C1758 H1770 0.956 . S
C1758 H1771 0.961 . S
C1758 H1772 0.961 . S
C1759 C1756 1.539 . S
C1759 H1773 0.958 . S
C1759 H1774 0.961 . S
C1759 H1775 0.960 . S
H1760 C1744 0.931 . S
H1761 C1749 0.929 . S
H1762 C1750 0.960 . S
H1763 C1750 0.962 . S
H1764 C1750 0.960 . S
H1765 C1751 0.961 . S
H1766 C1751 0.961 . S
H1767 C1751 0.961 . S
H1768 C1752 0.931 . S
H1769 C1757 0.930 . S
H1770 C1758 0.956 . S
H1771 C1758 0.961 . S
H1772 C1758 0.961 . S
H1773 C1759 0.958 . S
H1774 C1759 0.961 . S
H1775 C1759 0.960 . S
C1776 C1777 1.391 . S
C1776 C1778 1.394 . S
C1776 H1792 0.931 . S
C1777 C1776 1.391 . S
C1777 C1781 1.376 . S
C1778 C1776 1.394 . S
C1778 C1779 1.369 . S
C1778 C1782 1.531 . S
C1779 C1778 1.369 . S
C1779 C1780 1.410 . S
C1779 C1787 1.503 . S
C1780 C1779 1.410 . S
C1780 C1781 1.392 . S
C1780 C1783 1.511 . S
C1781 C1777 1.376 . S
C1781 C1780 1.392 . S
C1781 H1793 0.929 . S
C1782 C1778 1.531 . S
C1782 H1794 0.960 . S
C1782 H1795 0.962 . S
C1782 H1796 0.960 . S
C1783 C1780 1.511 . S
C1783 H1797 0.961 . S
C1783 H1798 0.961 . S
C1783 H1799 0.961 . S
C1784 C1785 1.370 . S
C1784 C1786 1.363 . S
C1784 H1800 0.931 . S
C1785 C1784 1.370 . S
C1785 C1789 1.408 . S
C1786 C1784 1.363 . S
C1786 C1787 1.370 . S
C1786 C1790 1.524 . S
C1787 C1779 1.503 . S
C1787 C1786 1.370 . S
C1787 C1788 1.403 . S
C1788 C1787 1.403 . S
C1788 C1789 1.404 . S
C1788 C1791 1.539 . S
C1789 C1785 1.408 . S
C1789 C1788 1.404 . S
C1789 H1801 0.930 . S
C1790 C1786 1.524 . S
C1790 H1802 0.956 . S
C1790 H1803 0.961 . S
C1790 H1804 0.961 . S
C1791 C1788 1.539 . S
C1791 H1805 0.958 . S
C1791 H1806 0.961 . S
C1791 H1807 0.960 . S
H1792 C1776 0.931 . S
H1793 C1781 0.929 . S
H1794 C1782 0.960 . S
H1795 C1782 0.962 . S
H1796 C1782 0.960 . S
H1797 C1783 0.961 . S
H1798 C1783 0.961 . S
H1799 C1783 0.961 . S
H1800 C1784 0.931 . S
H1801 C1789 0.930 . S
H1802 C1790 0.956 . S
H1803 C1790 0.961 . S
H1804 C1790 0.961 . S
H1805 C1791 0.958 . S
H1806 C1791 0.961 . S
H1807 C1791 0.960 . S
C1808 C1809 1.391 . S
C1808 C1810 1.394 . S
C1808 H1824 0.931 . S
C1809 C1808 1.391 . S
C1809 C1813 1.376 . S
C1810 C1808 1.394 . S
C1810 C1811 1.369 . S
C1810 C1814 1.531 . S
C1811 C1810 1.369 . S
C1811 C1812 1.410 . S
C1811 C1819 1.503 1_565 S
C1812 C1811 1.410 . S
C1812 C1813 1.392 . S
C1812 C1815 1.511 . S
C1813 C1809 1.376 . S
C1813 C1812 1.392 . S
C1813 H1825 0.929 . S
C1814 C1810 1.531 . S
C1814 H1826 0.960 1_565 S
C1814 H1827 0.962 . S
C1814 H1828 0.960 . S
C1815 C1812 1.511 . S
C1815 H1829 0.961 . S
C1815 H1830 0.961 . S
C1815 H1831 0.961 1_565 S
C1816 C1817 1.370 . S
C1816 C1818 1.363 . S
C1816 H1832 0.931 . S
C1817 C1816 1.370 . S
C1817 C1821 1.408 . S
C1818 C1816 1.363 . S
C1818 C1819 1.370 . S
C1818 C1822 1.524 1_545 S
C1819 C1811 1.503 1_545 S
C1819 C1818 1.370 . S
C1819 C1820 1.403 . S
C1820 C1819 1.403 . S
C1820 C1821 1.404 . S
C1820 C1823 1.539 . S
C1821 C1817 1.408 . S
C1821 C1820 1.404 . S
C1821 H1833 0.930 . S
C1822 C1818 1.524 1_565 S
C1822 H1834 0.956 . S
C1822 H1835 0.961 . S
C1822 H1836 0.961 . S
C1823 C1820 1.539 . S
C1823 H1837 0.958 . S
C1823 H1838 0.961 . S
C1823 H1839 0.960 . S
H1824 C1808 0.931 . S
H1825 C1813 0.929 . S
H1826 C1814 0.960 1_545 S
H1827 C1814 0.962 . S
H1828 C1814 0.960 . S
H1829 C1815 0.961 . S
H1830 C1815 0.961 . S
H1831 C1815 0.961 1_545 S
H1832 C1816 0.931 . S
H1833 C1821 0.930 . S
H1834 C1822 0.956 . S
H1835 C1822 0.961 . S
H1836 C1822 0.961 . S
H1837 C1823 0.958 . S
H1838 C1823 0.961 . S
H1839 C1823 0.960 . S
C1840 C1841 1.382 1_554 S
C1840 C1842 1.394 . S
C1840 H1856 0.931 . S
C1841 C1840 1.382 1_556 S
C1841 C1845 1.384 . S
C1842 C1840 1.394 . S
C1842 C1843 1.369 . S
C1842 C1846 1.531 . S
C1843 C1842 1.369 . S
C1843 C1844 1.410 1_554 S
C1843 C1851 1.504 . S
C1844 C1843 1.410 1_556 S
C1844 C1845 1.392 . S
C1844 C1847 1.511 . S
C1845 C1841 1.384 . S
C1845 C1844 1.392 . S
C1845 H1857 0.929 . S
C1846 C1842 1.531 . S
C1846 H1858 0.960 . S
C1846 H1859 0.962 . S
C1846 H1860 0.960 . S
C1847 C1844 1.511 . S
C1847 H1861 0.961 . S
C1847 H1862 0.961 . S
C1847 H1863 0.961 . S
C1848 C1849 1.370 . S
C1848 C1850 1.363 . S
C1848 H1864 0.931 . S
C1849 C1848 1.370 . S
C1849 C1853 1.408 1_556 S
C1850 C1848 1.363 . S
C1850 C1851 1.367 1_556 S
C1850 C1854 1.524 . S
C1851 C1843 1.504 . S
C1851 C1850 1.367 1_554 S
C1851 C1852 1.405 . S
C1852 C1851 1.405 . S
C1852 C1853 1.404 . S
C1852 C1855 1.539 . S
C1853 C1849 1.408 1_554 S
C1853 C1852 1.404 . S
C1853 H1865 0.930 . S
C1854 C1850 1.524 . S
C1854 H1866 0.956 . S
C1854 H1867 0.961 . S
C1854 H1868 0.961 . S
C1855 C1852 1.539 . S
C1855 H1869 0.958 . S
C1855 H1870 0.961 . S
C1855 H1871 0.960 . S
H1856 C1840 0.931 . S
H1857 C1845 0.929 . S
H1858 C1846 0.960 . S
H1859 C1846 0.962 . S
H1860 C1846 0.960 . S
H1861 C1847 0.961 . S
H1862 C1847 0.961 . S
H1863 C1847 0.961 . S
H1864 C1848 0.931 . S
H1865 C1853 0.930 . S
H1866 C1854 0.956 . S
H1867 C1854 0.961 . S
H1868 C1854 0.961 . S
H1869 C1855 0.958 . S
H1870 C1855 0.961 . S
H1871 C1855 0.960 . S
C337 C247 0.703 . S
C345 C3 0.584 . S
C369 C17 0.685 . S
C377 C233 0.651 . S
C401 C31 0.774 . S
C409 C275 0.778 . S
C433 C45 0.767 . S
C441 C261 0.787 . S
C465 C59 0.642 . S
C473 C303 0.635 . S
C497 C73 0.721 . S
C505 C317 0.762 . S
C529 C289 0.595 . S
C537 C87 0.638 . S
C561 C163 0.859 . S
C569 C101 0.774 . S
C593 C115 0.534 . S
C601 C51 0.586 . S
C625 C23 0.801 . S
C633 C129 0.724 . S
C657 C143 0.868 . S
C665 C9 0.860 . S
C689 C157 0.788 . S
C697 C205 0.729 . S
C721 C79 0.816 . S
C729 C171 0.948 . S
C753 C65 0.810 . S
C761 C185 0.891 . S
C785 C199 0.810 . S
C793 C107 0.739 . S
C817 C213 0.737 . S
C825 C93 0.705 . S
C849 C135 0.835 . S
C857 C227 0.944 . S
C881 C149 0.830 . S
C889 C241 0.825 . S
C913 C121 0.889 . S
C921 C255 0.910 . S
C945 C269 0.748 . S
C953 C331 0.718 . S
C977 C219 0.822 . S
C985 C283 0.960 . S
C1009 C297 0.841 . S
C1017 C191 0.757 . S
C1041 C177 0.668 . S
C1049 C311 0.623 . S
C1073 C325 0.793 . S
C1081 C37 0.761 . S
C1105 C8 1.771 . S
C1113 C22 1.751 . S
C1137 C50 1.675 . S
C1145 C36 1.674 . S
C1169 C64 1.764 . S
C1177 C92 1.746 . S
C1201 C78 1.940 . S
C1209 C106 1.951 . S
C1233 C316 1.765 . S
C1241 C120 1.767 . S
C1265 C134 1.979 . S
C1273 C162 1.940 . S
C1297 C288 1.889 . S
C1305 C148 1.890 . S
C1329 C190 1.864 . S
C1337 C176 1.880 . S
C1361 C204 1.963 . S
C1369 C218 1.963 . S
C1393 C260 1.891 . S
C1401 C232 1.864 . S
C1425 C246 1.663 . S
C1433 C274 1.678 . S
C1457 C330 1.657 . S
C1465 C302 1.658 . S
C1489 C35 1.102 . S
C1497 C7 1.148 1_655 S
C1521 C21 1.384 . S
C1529 C49 1.324 . S
C1553 C273 1.073 . S
C1561 C63 1.158 . S
C1585 C77 1.271 . S
C1593 C259 1.296 . S
C1617 C91 1.340 . S
C1625 C245 1.342 . S
C1649 C231 1.517 . S
C1657 C105 1.499 . S
C1681 C119 1.191 . S
C1689 C329 1.106 . S
C1713 C133 1.297 . S
C1721 C147 1.279 . S
C1745 C287 1.518 . S
C1753 C161 1.495 . S
C1777 C175 1.533 . S
C1785 C203 1.492 . S
C1809 C189 1.232 . S
C1817 C217 1.310 . S
C1841 C315 1.387 . S
C1849 C301 1.325 . S
