# Generated by pormake.
# Topology wiv, (6)-cn, num edge types: 1
# Building blocks:
#     Node 0, Type 0, BuildingBlock: BETFAJ_clean_sbu_0, # of connection points: 6
#     Node 1, Type 0, BuildingBlock: BETFAJ_clean_sbu_0, # of connection points: 6
#     Node 2, Type 0, BuildingBlock: BETFAJ_clean_sbu_0, # of connection points: 6
#     Node 3, Type 0, BuildingBlock: BETFAJ_clean_sbu_0, # of connection points: 6
#     Node 4, Type 0, BuildingBlock: BETFAJ_clean_sbu_0, # of connection points: 6
#     Node 5, Type 0, BuildingBlock: BETFAJ_clean_sbu_0, # of connection points: 6
#     Node 6, Type 0, BuildingBlock: BETFAJ_clean_sbu_0, # of connection points: 6
#     Node 7, Type 0, BuildingBlock: BETFAJ_clean_sbu_0, # of connection points: 6
#     Node 8, Type 0, BuildingBlock: BETFAJ_clean_sbu_0, # of connection points: 6
#     Node 9, Type 0, BuildingBlock: BETFAJ_clean_sbu_0, # of connection points: 6
#     Node 10, Type 0, BuildingBlock: BETFAJ_clean_sbu_0, # of connection points: 6
#     Node 11, Type 0, BuildingBlock: BETFAJ_clean_sbu_0, # of connection points: 6
#     Node 12, Type 0, BuildingBlock: BETFAJ_clean_sbu_0, # of connection points: 6
#     Node 13, Type 0, BuildingBlock: BETFAJ_clean_sbu_0, # of connection points: 6
#     Node 14, Type 0, BuildingBlock: BETFAJ_clean_sbu_0, # of connection points: 6
#     Node 15, Type 0, BuildingBlock: BETFAJ_clean_sbu_0, # of connection points: 6
#     Edge 16, Type (0, 0), BuildingBlock: ZUJKAS_clean_linker_0, # of connection points: 2
#     Edge 17, Type (0, 0), BuildingBlock: ZUJKAS_clean_linker_0, # of connection points: 2
#     Edge 18, Type (0, 0), BuildingBlock: ZUJKAS_clean_linker_0, # of connection points: 2
#     Edge 19, Type (0, 0), BuildingBlock: ZUJKAS_clean_linker_0, # of connection points: 2
#     Edge 20, Type (0, 0), BuildingBlock: ZUJKAS_clean_linker_0, # of connection points: 2
#     Edge 21, Type (0, 0), BuildingBlock: ZUJKAS_clean_linker_0, # of connection points: 2
#     Edge 22, Type (0, 0), BuildingBlock: ZUJKAS_clean_linker_0, # of connection points: 2
#     Edge 23, Type (0, 0), BuildingBlock: ZUJKAS_clean_linker_0, # of connection points: 2
#     Edge 24, Type (0, 0), BuildingBlock: ZUJKAS_clean_linker_0, # of connection points: 2
#     Edge 25, Type (0, 0), BuildingBlock: ZUJKAS_clean_linker_0, # of connection points: 2
#     Edge 26, Type (0, 0), BuildingBlock: ZUJKAS_clean_linker_0, # of connection points: 2
#     Edge 27, Type (0, 0), BuildingBlock: ZUJKAS_clean_linker_0, # of connection points: 2
#     Edge 28, Type (0, 0), BuildingBlock: ZUJKAS_clean_linker_0, # of connection points: 2
#     Edge 29, Type (0, 0), BuildingBlock: ZUJKAS_clean_linker_0, # of connection points: 2
#     Edge 30, Type (0, 0), BuildingBlock: ZUJKAS_clean_linker_0, # of connection points: 2
#     Edge 31, Type (0, 0), BuildingBlock: ZUJKAS_clean_linker_0, # of connection points: 2
#     Edge 32, Type (0, 0), BuildingBlock: ZUJKAS_clean_linker_0, # of connection points: 2
#     Edge 33, Type (0, 0), BuildingBlock: ZUJKAS_clean_linker_0, # of connection points: 2
#     Edge 34, Type (0, 0), BuildingBlock: ZUJKAS_clean_linker_0, # of connection points: 2
#     Edge 35, Type (0, 0), BuildingBlock: ZUJKAS_clean_linker_0, # of connection points: 2
#     Edge 36, Type (0, 0), BuildingBlock: ZUJKAS_clean_linker_0, # of connection points: 2
#     Edge 37, Type (0, 0), BuildingBlock: ZUJKAS_clean_linker_0, # of connection points: 2
#     Edge 38, Type (0, 0), BuildingBlock: ZUJKAS_clean_linker_0, # of connection points: 2
#     Edge 39, Type (0, 0), BuildingBlock: ZUJKAS_clean_linker_0, # of connection points: 2
#     Edge 40, Type (0, 0), BuildingBlock: ZUJKAS_clean_linker_0, # of connection points: 2
#     Edge 41, Type (0, 0), BuildingBlock: ZUJKAS_clean_linker_0, # of connection points: 2
#     Edge 42, Type (0, 0), BuildingBlock: ZUJKAS_clean_linker_0, # of connection points: 2
#     Edge 43, Type (0, 0), BuildingBlock: ZUJKAS_clean_linker_0, # of connection points: 2
#     Edge 44, Type (0, 0), BuildingBlock: ZUJKAS_clean_linker_0, # of connection points: 2
#     Edge 45, Type (0, 0), BuildingBlock: ZUJKAS_clean_linker_0, # of connection points: 2
#     Edge 46, Type (0, 0), BuildingBlock: ZUJKAS_clean_linker_0, # of connection points: 2
#     Edge 47, Type (0, 0), BuildingBlock: ZUJKAS_clean_linker_0, # of connection points: 2
#     Edge 48, Type (0, 0), BuildingBlock: ZUJKAS_clean_linker_0, # of connection points: 2
#     Edge 49, Type (0, 0), BuildingBlock: ZUJKAS_clean_linker_0, # of connection points: 2
#     Edge 50, Type (0, 0), BuildingBlock: ZUJKAS_clean_linker_0, # of connection points: 2
#     Edge 51, Type (0, 0), BuildingBlock: ZUJKAS_clean_linker_0, # of connection points: 2
#     Edge 52, Type (0, 0), BuildingBlock: ZUJKAS_clean_linker_0, # of connection points: 2
#     Edge 53, Type (0, 0), BuildingBlock: ZUJKAS_clean_linker_0, # of connection points: 2
#     Edge 54, Type (0, 0), BuildingBlock: ZUJKAS_clean_linker_0, # of connection points: 2
#     Edge 55, Type (0, 0), BuildingBlock: ZUJKAS_clean_linker_0, # of connection points: 2
#     Edge 56, Type (0, 0), BuildingBlock: ZUJKAS_clean_linker_0, # of connection points: 2
#     Edge 57, Type (0, 0), BuildingBlock: ZUJKAS_clean_linker_0, # of connection points: 2
#     Edge 58, Type (0, 0), BuildingBlock: ZUJKAS_clean_linker_0, # of connection points: 2
#     Edge 59, Type (0, 0), BuildingBlock: ZUJKAS_clean_linker_0, # of connection points: 2
#     Edge 60, Type (0, 0), BuildingBlock: ZUJKAS_clean_linker_0, # of connection points: 2
#     Edge 61, Type (0, 0), BuildingBlock: ZUJKAS_clean_linker_0, # of connection points: 2
#     Edge 62, Type (0, 0), BuildingBlock: ZUJKAS_clean_linker_0, # of connection points: 2
#     Edge 63, Type (0, 0), BuildingBlock: ZUJKAS_clean_linker_0, # of connection points: 2
# Relax obj value: 0.102
# Max RMSD: 0.163
# Mean RMSD: 0.163
data_MOF--net-wiv--node1-BETFAJ_clean_sbu_0--edge1-ZUJKAS_clean_linker_0
_symmetry_space_group_name_H-M    P1
_symmetry_Int_Tables_number       1
_symmetry_cell_setting            triclinic
loop_
_symmetry_equiv_pos_as_xyz
'x, y, z'
_cell_length_a     68.884345
_cell_length_b     68.80357
_cell_length_c     29.812236
_cell_angle_alpha  90.010723
_cell_angle_beta   90.002436
_cell_angle_gamma 89.986711
loop_
_atom_site_label
_atom_site_type_symbol
_atom_site_fract_x
_atom_site_fract_y
_atom_site_fract_z
_atom_type_partial_charge
Sm0 Sm 0.35161 0.10941 0.15531 0.0
Sm1 Sm 0.37782 0.11647 0.06944 0.0
C2 C 0.33828 0.09245 0.22881 0.0
C3 C 0.33999 0.09535 0.27792 0.0
C4 C 0.34519 0.07957 0.30524 0.0
C5 C 0.3478 0.08204 0.35147 0.0
C6 C 0.34517 0.10037 0.37157 0.0
C7 C 0.33974 0.11614 0.34418 0.0
C8 C 0.33727 0.11368 0.29782 0.0
C9 C 0.35593 0.14907 0.14391 0.0
C10 C 0.39863 0.1214 0.16482 0.0
C11 C 0.39196 0.12639 0.98984 0.0
C12 C 0.38677 0.12396 0.94166 0.0
C13 C 0.37869 0.13951 0.91742 0.0
C14 C 0.37433 0.13756 0.87171 0.0
C15 C 0.37808 0.12004 0.84891 0.0
C16 C 0.38609 0.10445 0.87326 0.0
C17 C 0.3904 0.10638 0.91897 0.0
C18 C 0.37768 0.07951 0.10534 0.0
C19 C 0.3303 0.10833 0.0562 0.0
O20 O 0.35415 0.08687 0.20827 0.0
O21 O 0.32824 0.10526 0.20583 0.0
O22 O 0.36306 0.13593 0.11926 0.0
O23 O 0.34556 0.14119 0.17535 0.0
O24 O 0.38348 0.11196 0.18186 0.0
O25 O 0.39871 0.12774 0.12295 0.0
O26 O 0.381 0.13793 1.01398 0.0
O27 O 0.3975 0.11089 1.01187 0.0
O28 O 0.36308 0.09039 0.10033 0.0
O29 O 0.39316 0.08781 0.0894 0.0
O30 O 0.34739 0.11268 0.03864 0.0
O31 O 0.32794 0.10557 0.10003 0.0
H32 H 0.34741 0.06531 0.29069 0.0
H33 H 0.35175 0.06954 0.37156 0.0
H34 H 0.33781 0.13049 0.35843 0.0
H35 H 0.33347 0.12618 0.27755 0.0
H36 H 0.37591 0.15331 0.93371 0.0
H37 H 0.36843 0.14997 0.854 0.0
H38 H 0.38895 0.09066 0.85704 0.0
H39 H 0.39668 0.09409 0.93639 0.0
Sm40 Sm 0.11519 0.62632 0.96462 0.0
Sm41 Sm 0.11273 0.65256 0.88522 0.0
C42 C 0.12213 0.60981 0.04366 0.0
C43 C 0.12056 0.61456 0.092 0.0
C44 C 0.12545 0.63303 0.10867 0.0
C45 C 0.12407 0.63705 0.15469 0.0
C46 C 0.11779 0.62268 0.18509 0.0
C47 C 0.11282 0.60424 0.16807 0.0
C48 C 0.11419 0.60026 0.12211 0.0
C49 C 0.07893 0.62809 0.9254 0.0
C50 C 0.10874 0.67355 0.9819 0.0
C51 C 0.10468 0.66858 0.80612 0.0
C52 C 0.10625 0.66398 0.75771 0.0
C53 C 0.10203 0.64537 0.74091 0.0
C54 C 0.1033 0.64154 0.69478 0.0
C55 C 0.10888 0.65622 0.66446 0.0
C56 C 0.11322 0.67479 0.68161 0.0
C57 C 0.1119 0.6786 0.72765 0.0
C58 C 0.14986 0.64953 0.91906 0.0
C59 C 0.12071 0.60492 0.87065 0.0
O60 O 0.13532 0.61907 0.02039 0.0
O61 O 0.10586 0.60758 0.02169 0.0
O62 O 0.08977 0.64254 0.93313 0.0
O63 O 0.08685 0.61215 0.93978 0.0
O64 O 0.11476 0.65667 0.99764 0.0
O65 O 0.10472 0.67572 0.93876 0.0
O66 O 0.09208 0.65869 0.8297 0.0
O67 O 0.1209 0.6716 0.8277 0.0
O68 O 0.13817 0.63549 0.91428 0.0
O69 O 0.14192 0.66571 0.90615 0.0
O70 O 0.11397 0.62138 0.85342 0.0
O71 O 0.12517 0.60372 0.91356 0.0
H72 H 0.1304 0.64435 0.08618 0.0
H73 H 0.12778 0.65149 0.16636 0.0
H74 H 0.10821 0.59272 0.19038 0.0
H75 H 0.11039 0.58589 0.11007 0.0
H76 H 0.09769 0.63379 0.76339 0.0
H77 H 0.10008 0.62701 0.68294 0.0
H78 H 0.1173 0.68653 0.65934 0.0
H79 H 0.11518 0.69308 0.7398 0.0
Sm80 Sm 0.65592 0.89331 0.15957 0.0
Sm81 Sm 0.62838 0.89381 0.07336 0.0
C82 C 0.67236 0.89743 0.23954 0.0
C83 C 0.66652 0.89988 0.2869 0.0
C84 C 0.67859 0.91016 0.31639 0.0
C85 C 0.67409 0.9113 0.36213 0.0
C86 C 0.6574 0.90214 0.3794 0.0
C87 C 0.64505 0.89227 0.34939 0.0
C88 C 0.64957 0.89115 0.30365 0.0
C89 C 0.65162 0.85825 0.11621 0.0
C90 C 0.6074 0.88919 0.17055 0.0
C91 C 0.61175 0.88298 0.99723 0.0
C92 C 0.61416 0.88731 0.94914 0.0
C93 C 0.60213 0.87824 0.91756 0.0
C94 C 0.60512 0.88116 0.87159 0.0
C95 C 0.62031 0.89316 0.85629 0.0
C96 C 0.63218 0.90245 0.88826 0.0
C97 C 0.62911 0.89957 0.93424 0.0
C98 C 0.63381 0.93139 0.1066 0.0
C99 C 0.67618 0.8999 0.06116 0.0
O100 O 0.66936 0.91206 0.21231 0.0
O101 O 0.66847 0.8806 0.22126 0.0
O102 O 0.63813 0.87045 0.12303 0.0
O103 O 0.66801 0.86483 0.1316 0.0
O104 O 0.62452 0.89268 0.18971 0.0
O105 O 0.60538 0.88725 0.12662 0.0
O106 O 0.62616 0.87353 1.01593 0.0
O107 O 0.60489 0.89696 0.02259 0.0
O108 O 0.64101 0.91566 0.11979 0.0
O109 O 0.62319 0.92763 0.07161 0.0
O110 O 0.6592 0.89523 0.04339 0.0
O111 O 0.67851 0.90215 0.10516 0.0
H112 H 0.69172 0.91703 0.30416 0.0
H113 H 0.68375 0.91931 0.38401 0.0
H114 H 0.63219 0.88486 0.36139 0.0
H115 H 0.64006 0.88308 0.28155 0.0
H116 H 0.59061 0.86861 0.92843 0.0
H117 H 0.59586 0.87358 0.84802 0.0
H118 H 0.64385 0.91196 0.87775 0.0
H119 H 0.63854 0.90671 0.95818 0.0
Sm120 Sm 0.89174 0.37785 0.96085 0.0
Sm121 Sm 0.89713 0.35147 0.87466 0.0
C122 C 0.88247 0.39306 0.03989 0.0
C123 C 0.8835 0.38784 0.08793 0.0
C124 C 0.88202 0.36846 0.10239 0.0
C125 C 0.88338 0.36389 0.14813 0.0
C126 C 0.88615 0.37862 0.18034 0.0
C127 C 0.88762 0.398 0.16553 0.0
C128 C 0.88634 0.40253 0.11985 0.0
C129 C 0.92823 0.37718 0.92284 0.0
C130 C 0.89873 0.33011 0.97379 0.0
C131 C 0.91261 0.33752 0.80006 0.0
C132 C 0.90922 0.33993 0.75127 0.0
C133 C 0.90652 0.35845 0.73231 0.0
C134 C 0.90387 0.36061 0.68602 0.0
C135 C 0.90369 0.34429 0.65746 0.0
C136 C 0.90616 0.32574 0.67672 0.0
C137 C 0.90893 0.32361 0.72306 0.0
C138 C 0.85778 0.35682 0.88808 0.0
C139 C 0.88657 0.3989 0.86536 0.0
O140 O 0.87019 0.38337 1.01487 0.0
O141 O 0.89903 0.39629 0.01981 0.0
O142 O 0.91719 0.36267 0.928 0.0
O143 O 0.92038 0.39272 0.93979 0.0
O144 O 0.89508 0.34732 0.99167 0.0
O145 O 0.9008 0.32767 0.92977 0.0
O146 O 0.91944 0.35271 0.82141 0.0
O147 O 0.89934 0.32811 0.82295 0.0
O148 O 0.87126 0.36364 0.91224 0.0
O149 O 0.86513 0.34619 0.85643 0.0
O150 O 0.89463 0.3832 0.84721 0.0
O151 O 0.88142 0.39954 0.90803 0.0
H152 H 0.87977 0.35688 0.07837 0.0
H153 H 0.882 0.34884 0.15829 0.0
H154 H 0.89006 0.40968 0.1892 0.0
H155 H 0.88764 0.41755 0.10941 0.0
H156 H 0.90663 0.37134 0.75317 0.0
H157 H 0.90232 0.37514 0.6726 0.0
H158 H 0.9058 0.31281 0.65606 0.0
H159 H 0.91089 0.30918 0.73688 0.0
Sm160 Sm 0.35439 0.39532 0.13119 0.0
Sm161 Sm 0.37991 0.39163 0.21156 0.0
C162 C 0.33907 0.40525 0.05247 0.0
C163 C 0.34366 0.40379 1.00421 0.0
C164 C 0.3331 0.41495 0.97337 0.0
C165 C 0.33703 0.41369 0.92738 0.0
C166 C 0.35164 0.40122 0.91115 0.0
C167 C 0.36229 0.3901 0.94235 0.0
C168 C 0.35837 0.39141 0.98845 0.0
C169 C 0.35742 0.35749 0.16118 0.0
C170 C 0.40201 0.38725 0.11795 0.0
C171 C 0.39602 0.38357 0.2905 0.0
C172 C 0.39121 0.38493 0.3387 0.0
C173 C 0.40154 0.37363 0.36967 0.0
C174 C 0.39743 0.37483 0.41559 0.0
C175 C 0.38285 0.38739 0.43162 0.0
C176 C 0.37242 0.39865 0.4003 0.0
C177 C 0.37656 0.39742 0.35429 0.0
C178 C 0.37821 0.42852 0.1752 0.0
C179 C 0.33263 0.39773 0.22733 0.0
O180 O 0.35002 0.41683 0.07629 0.0
O181 O 0.33499 0.38907 0.07334 0.0
O182 O 0.37133 0.36946 0.15875 0.0
O183 O 0.34138 0.36545 0.14751 0.0
O184 O 0.38573 0.39426 0.10051 0.0
O185 O 0.40285 0.38224 0.16061 0.0
O186 O 0.38627 0.37084 0.26696 0.0
O187 O 0.39865 0.39994 0.26911 0.0
O188 O 0.36383 0.41747 0.1817 0.0
O189 O 0.39407 0.42046 0.18951 0.0
O190 O 0.3493 0.39125 0.2432 0.0
O191 O 0.33096 0.40271 0.18459 0.0
H192 H 0.3217 0.42459 0.98487 0.0
H193 H 0.32836 0.42228 0.90446 0.0
H194 H 0.3738 0.38053 0.93119 0.0
H195 H 0.36679 0.38275 1.01176 0.0
H196 H 0.41293 0.36393 0.35835 0.0
H197 H 0.40595 0.36614 0.43862 0.0
H198 H 0.36094 0.4083 0.41127 0.0
H199 H 0.36835 0.40624 0.33091 0.0
Sm200 Sm 0.39184 0.62815 0.82063 0.0
Sm201 Sm 0.39476 0.65412 0.90049 0.0
C202 C 0.3836 0.61233 0.74164 0.0
C203 C 0.38504 0.61725 0.6933 0.0
C204 C 0.36815 0.61766 0.66696 0.0
C205 C 0.36916 0.62165 0.62098 0.0
C206 C 0.38713 0.62521 0.60004 0.0
C207 C 0.40403 0.62501 0.62664 0.0
C208 C 0.40301 0.6211 0.67271 0.0
C209 C 0.42855 0.6302 0.8574 0.0
C210 C 0.39813 0.67544 0.8039 0.0
C211 C 0.4039 0.66962 0.97936 0.0
C212 C 0.40208 0.66519 0.02784 0.0
C213 C 0.41884 0.66459 0.05458 0.0
C214 C 0.41754 0.66098 0.10068 0.0
C215 C 0.3994 0.65799 0.12131 0.0
C216 C 0.38262 0.65839 0.09431 0.0
C217 C 0.38393 0.66192 0.04811 0.0
C218 C 0.35732 0.65079 0.86882 0.0
C219 C 0.38727 0.60628 0.91457 0.0
O220 O 0.37094 0.62211 0.76535 0.0
O221 O 0.39975 0.60904 0.76344 0.0
O222 O 0.41733 0.64451 0.85123 0.0
O223 O 0.42088 0.61433 0.8419 0.0
O224 O 0.39224 0.65856 0.78794 0.0
O225 O 0.40229 0.67749 0.84701 0.0
O226 O 0.41579 0.65871 0.95621 0.0
O227 O 0.38809 0.67397 0.95725 0.0
O228 O 0.36925 0.63687 0.87242 0.0
O229 O 0.36515 0.66697 0.88202 0.0
O230 O 0.39311 0.62298 0.93234 0.0
O231 O 0.38328 0.60489 0.87145 0.0
H232 H 0.35412 0.61478 0.68197 0.0
H233 H 0.3558 0.62201 0.60188 0.0
H234 H 0.41816 0.62745 0.61174 0.0
H235 H 0.41632 0.62091 0.69202 0.0
H236 H 0.433 0.66699 0.03977 0.0
H237 H 0.43081 0.66044 0.12011 0.0
H238 H 0.36838 0.65637 0.10899 0.0
H239 H 0.37072 0.66227 0.02843 0.0
Sm240 Sm 0.65281 0.61362 0.13439 0.0
Sm241 Sm 0.62705 0.61645 0.21404 0.0
C242 C 0.66853 0.60511 0.05528 0.0
C243 C 0.66401 0.60696 1.0069 0.0
C244 C 0.64548 0.60269 0.98979 0.0
C245 C 0.64175 0.60414 0.94366 0.0
C246 C 0.65645 0.60996 0.91367 0.0
C247 C 0.67492 0.61438 0.93112 0.0
C248 C 0.67864 0.61287 0.97716 0.0
C249 C 0.64979 0.65109 0.16666 0.0
C250 C 0.60523 0.62162 0.1204 0.0
C251 C 0.61061 0.62356 0.29305 0.0
C252 C 0.61525 0.62192 0.34141 0.0
C253 C 0.63349 0.62729 0.35852 0.0
C254 C 0.6374 0.62583 0.40456 0.0
C255 C 0.62314 0.61897 0.43453 0.0
C256 C 0.60493 0.61353 0.4171 0.0
C257 C 0.60106 0.61499 0.37111 0.0
C258 C 0.62872 0.57996 0.17566 0.0
C259 C 0.67426 0.61007 0.23056 0.0
O260 O 0.65817 0.59283 0.0787 0.0
O261 O 0.67217 0.62117 0.07706 0.0
O262 O 0.63582 0.63926 0.16291 0.0
O263 O 0.6659 0.6431 0.15365 0.0
O264 O 0.62159 0.61475 0.103 0.0
O265 O 0.60426 0.6263 0.16322 0.0
O266 O 0.62003 0.63667 0.26984 0.0
O267 O 0.60822 0.6073 0.27106 0.0
O268 O 0.64315 0.59082 0.18316 0.0
O269 O 0.61282 0.588 0.18981 0.0
O270 O 0.65753 0.61633 0.24654 0.0
O271 O 0.6761 0.60566 0.18755 0.0
H272 H 0.63389 0.59817 1.012 0.0
H273 H 0.62729 0.60086 0.93155 0.0
H274 H 0.68666 0.61866 0.90907 0.0
H275 H 0.69305 0.61618 0.98955 0.0
H276 H 0.64472 0.63268 0.33635 0.0
H277 H 0.65166 0.62991 0.41659 0.0
H278 H 0.5935 0.60846 0.4391 0.0
H279 H 0.58687 0.61082 0.35874 0.0
Sm280 Sm 0.61537 0.38179 0.81794 0.0
Sm281 Sm 0.61314 0.35558 0.89745 0.0
C282 C 0.62241 0.39839 0.73909 0.0
C283 C 0.62125 0.39369 0.69065 0.0
C284 C 0.62833 0.37604 0.67336 0.0
C285 C 0.62723 0.37209 0.62727 0.0
C286 C 0.61912 0.38573 0.59741 0.0
C287 C 0.61194 0.40331 0.61504 0.0
C288 C 0.613 0.40722 0.66107 0.0
C289 C 0.57891 0.37937 0.85596 0.0
C290 C 0.60985 0.33451 0.80066 0.0
C291 C 0.60506 0.33961 0.97651 0.0
C292 C 0.6072 0.34405 0.0249 0.0
C293 C 0.60232 0.36235 0.04262 0.0
C294 C 0.6038 0.36591 0.08881 0.0
C295 C 0.61029 0.35129 0.11836 0.0
C296 C 0.61547 0.33311 0.10021 0.0
C297 C 0.61389 0.32954 0.05411 0.0
C298 C 0.65045 0.35961 0.86522 0.0
C299 C 0.61997 0.40342 0.91216 0.0
O300 O 0.6357 0.38952 0.76287 0.0
O301 O 0.60595 0.40021 0.76046 0.0
O302 O 0.59015 0.36512 0.84911 0.0
O303 O 0.58646 0.39534 0.8408 0.0
O304 O 0.616 0.35138 0.78523 0.0
O305 O 0.60532 0.33244 0.84358 0.0
O306 O 0.59269 0.35008 0.95361 0.0
O307 O 0.62093 0.33588 0.95412 0.0
O308 O 0.63829 0.37332 0.8692 0.0
O309 O 0.64283 0.34324 0.8778 0.0
O310 O 0.61425 0.38664 0.92967 0.0
O311 O 0.62391 0.40496 0.86904 0.0
H312 H 0.63484 0.36535 0.69537 0.0
H313 H 0.63309 0.35849 0.61495 0.0
H314 H 0.60531 0.41403 0.59329 0.0
H315 H 0.60738 0.42089 0.6736 0.0
H316 H 0.59716 0.37386 0.02088 0.0
H317 H 0.59948 0.38002 0.1014 0.0
H318 H 0.62088 0.3216 0.12159 0.0
H319 H 0.61784 0.31535 0.04124 0.0
Sm320 Sm 0.85373 0.61265 0.651 0.0
Sm321 Sm 0.87968 0.61457 0.57163 0.0
C322 C 0.83777 0.60457 0.7301 0.0
C323 C 0.84217 0.60635 0.77853 0.0
C324 C 0.8609 0.60295 0.79557 0.0
C325 C 0.86448 0.60415 0.84181 0.0
C326 C 0.84944 0.6088 0.87203 0.0
C327 C 0.8308 0.61249 0.85455 0.0
C328 C 0.82723 0.61124 0.80841 0.0
C329 C 0.85722 0.64989 0.61763 0.0
C330 C 0.90146 0.61992 0.66537 0.0
C331 C 0.8964 0.62108 0.49264 0.0
C332 C 0.89175 0.62002 0.44423 0.0
C333 C 0.87333 0.62504 0.42762 0.0
C334 C 0.86943 0.62412 0.38147 0.0
C335 C 0.88391 0.61825 0.35094 0.0
C336 C 0.90228 0.61308 0.36793 0.0
C337 C 0.90612 0.61395 0.41399 0.0
C338 C 0.8776 0.57839 0.61134 0.0
C339 C 0.83241 0.60892 0.55469 0.0
O340 O 0.848 0.59209 0.70691 0.0
O341 O 0.83445 0.62067 0.7082 0.0
O342 O 0.87107 0.63791 0.62181 0.0
O343 O 0.841 0.64212 0.63061 0.0
O344 O 0.88475 0.61422 0.68319 0.0
O345 O 0.9029 0.62358 0.62211 0.0
O346 O 0.88774 0.6346 0.51621 0.0
O347 O 0.89778 0.60458 0.51409 0.0
O348 O 0.86326 0.58933 0.60332 0.0
O349 O 0.89359 0.58618 0.59702 0.0
O350 O 0.84933 0.61462 0.53868 0.0
O351 O 0.83032 0.60499 0.59788 0.0
H352 H 0.87272 0.59919 0.77323 0.0
H353 H 0.87897 0.60103 0.85392 0.0
H354 H 0.81893 0.61648 0.8765 0.0
H355 H 0.8127 0.61403 0.79602 0.0
H356 H 0.86199 0.62982 0.45024 0.0
H357 H 0.85518 0.62838 0.36967 0.0
H358 H 0.91368 0.60817 0.34564 0.0
H359 H 0.92041 0.60992 0.42605 0.0
Sm360 Sm 0.61411 0.1311 0.45669 0.0
Sm361 Sm 0.60811 0.15758 0.37062 0.0
C362 C 0.62396 0.11632 0.53577 0.0
C363 C 0.62217 0.12149 0.58377 0.0
C364 C 0.62257 0.14092 0.59825 0.0
C365 C 0.62055 0.14545 0.64388 0.0
C366 C 0.61813 0.13063 0.67605 0.0
C367 C 0.61783 0.11119 0.66121 0.0
C368 C 0.6198 0.1067 0.61563 0.0
C369 C 0.57741 0.13169 0.4198 0.0
C370 C 0.60649 0.17875 0.46999 0.0
C371 C 0.59239 0.17158 0.29627 0.0
C372 C 0.59552 0.169 0.24742 0.0
C373 C 0.59848 0.15043 0.22895 0.0
C374 C 0.60075 0.14802 0.18263 0.0
C375 C 0.60024 0.16413 0.15359 0.0
C376 C 0.59764 0.18276 0.17224 0.0
C377 C 0.59524 0.18515 0.21865 0.0
C378 C 0.64756 0.15241 0.38351 0.0
C379 C 0.61902 0.11027 0.36097 0.0
O380 O 0.63568 0.1269 0.51127 0.0
O381 O 0.60785 0.11186 0.51496 0.0
O382 O 0.58845 0.14622 0.42461 0.0
O383 O 0.58536 0.11618 0.43662 0.0
O384 O 0.61025 0.16153 0.48767 0.0
O385 O 0.60444 0.1813 0.42599 0.0
O386 O 0.5855 0.15651 0.31797 0.0
O387 O 0.60589 0.18087 0.31871 0.0
O388 O 0.63412 0.14553 0.40762 0.0
O389 O 0.6401 0.16296 0.35187 0.0
O390 O 0.61015 0.12572 0.34365 0.0
O391 O 0.62493 0.10991 0.40317 0.0
H392 H 0.6244 0.1526 0.5743 0.0
H393 H 0.62062 0.16059 0.65385 0.0
H394 H 0.61633 0.09936 0.6849 0.0
H395 H 0.6195 0.09161 0.60524 0.0
H396 H 0.59893 0.13771 0.25028 0.0
H397 H 0.60303 0.1335 0.16958 0.0
H398 H 0.59705 0.19547 0.15085 0.0
H399 H 0.59298 0.19961 0.23206 0.0
Sm400 Sm 0.15307 0.39463 0.64823 0.0
Sm401 Sm 0.12746 0.39198 0.56822 0.0
C402 C 0.1689 0.40285 0.7274 0.0
C403 C 0.16436 0.40112 0.77574 0.0
C404 C 0.14559 0.40462 0.7924 0.0
C405 C 0.14179 0.40326 0.83849 0.0
C406 C 0.15666 0.39833 0.86889 0.0
C407 C 0.17538 0.3947 0.85188 0.0
C408 C 0.17916 0.39609 0.80586 0.0
C409 C 0.14991 0.35719 0.61577 0.0
C410 C 0.10543 0.38705 0.66173 0.0
C411 C 0.1112 0.3845 0.48923 0.0
C412 C 0.11582 0.3863 0.44094 0.0
C413 C 0.1345 0.38238 0.42428 0.0
C414 C 0.1384 0.38388 0.37826 0.0
C415 C 0.1237 0.38932 0.34789 0.0
C416 C 0.10506 0.39336 0.36489 0.0
C417 C 0.10118 0.39186 0.41086 0.0
C418 C 0.12927 0.42856 0.60617 0.0
C419 C 0.1747 0.39834 0.55216 0.0
O420 O 0.15872 0.41528 0.70401 0.0
O421 O 0.17223 0.38671 0.70569 0.0
O422 O 0.13599 0.36909 0.61949 0.0
O423 O 0.16604 0.36513 0.62873 0.0
O424 O 0.12179 0.39382 0.67932 0.0
O425 O 0.10454 0.38234 0.61892 0.0
O426 O 0.12102 0.37165 0.51232 0.0
O427 O 0.10835 0.40066 0.51129 0.0
O428 O 0.14364 0.4175 0.59943 0.0
O429 O 0.11343 0.42075 0.59099 0.0
O430 O 0.15792 0.39242 0.53577 0.0
O431 O 0.17657 0.40237 0.59537 0.0
H432 H 0.13389 0.40847 0.76984 0.0
H433 H 0.12715 0.40591 0.85026 0.0
H434 H 0.18724 0.39113 0.87425 0.0
H435 H 0.19375 0.39338 0.79379 0.0
H436 H 0.14606 0.37807 0.44678 0.0
H437 H 0.15299 0.38092 0.36655 0.0
H438 H 0.09331 0.39732 0.34256 0.0
H439 H 0.08666 0.3949 0.42292 0.0
Sm440 Sm 0.39189 0.88069 0.46235 0.0
Sm441 Sm 0.39506 0.85484 0.3822 0.0
C442 C 0.38372 0.89678 0.54121 0.0
C443 C 0.38475 0.89186 0.58943 0.0
C444 C 0.37176 0.90063 0.61942 0.0
C445 C 0.37276 0.89664 0.66542 0.0
C446 C 0.38686 0.88379 0.68259 0.0
C447 C 0.39969 0.87477 0.65217 0.0
C448 C 0.39863 0.87875 0.60607 0.0
C449 C 0.42861 0.87882 0.42562 0.0
C450 C 0.39799 0.83338 0.47871 0.0
C451 C 0.40462 0.83922 0.30358 0.0
C452 C 0.40291 0.84354 0.25521 0.0
C453 C 0.41579 0.83474 0.22502 0.0
C454 C 0.41434 0.83834 0.17893 0.0
C455 C 0.3999 0.85082 0.16187 0.0
C456 C 0.38712 0.85981 0.19247 0.0
C457 C 0.38863 0.85623 0.23868 0.0
C458 C 0.35746 0.85825 0.41304 0.0
C459 C 0.38762 0.90266 0.3684 0.0
O460 O 0.37091 0.88735 0.51719 0.0
O461 O 0.40021 0.89921 0.52023 0.0
O462 O 0.41751 0.86443 0.4319 0.0
O463 O 0.42075 0.89468 0.44063 0.0
O464 O 0.39184 0.85018 0.49461 0.0
O465 O 0.40251 0.83148 0.43576 0.0
O466 O 0.41629 0.85033 0.32678 0.0
O467 O 0.3886 0.83511 0.32508 0.0
O468 O 0.36949 0.87211 0.41001 0.0
O469 O 0.36527 0.84208 0.39964 0.0
O470 O 0.39355 0.886 0.35061 0.0
O471 O 0.38346 0.90399 0.41146 0.0
H472 H 0.36085 0.91067 0.60726 0.0
H473 H 0.36238 0.90357 0.6875 0.0
H474 H 0.41083 0.86493 0.66401 0.0
H475 H 0.40877 0.87173 0.58351 0.0
H476 H 0.42701 0.82503 0.23713 0.0
H477 H 0.42468 0.83144 0.15668 0.0
H478 H 0.37572 0.86937 0.1807 0.0
H479 H 0.37857 0.86325 0.26145 0.0
Sm480 Sm 0.85513 0.89424 0.63954 0.0
Sm481 Sm 0.8812 0.89248 0.7191 0.0
C482 C 0.83902 0.90193 0.5604 0.0
C483 C 0.84348 0.90015 0.51199 0.0
C484 C 0.86209 0.90405 0.49491 0.0
C485 C 0.86571 0.90288 0.44868 0.0
C486 C 0.8508 0.89773 0.41853 0.0
C487 C 0.83228 0.89353 0.43606 0.0
C488 C 0.82868 0.89476 0.48219 0.0
C489 C 0.85863 0.85717 0.67369 0.0
C490 C 0.90294 0.88741 0.6252 0.0
C491 C 0.89786 0.88579 0.79805 0.0
C492 C 0.8932 0.88687 0.84645 0.0
C493 C 0.87492 0.88142 0.86317 0.0
C494 C 0.87103 0.88234 0.90931 0.0
C495 C 0.88536 0.88865 0.93973 0.0
C496 C 0.90358 0.89425 0.92263 0.0
C497 C 0.90743 0.89337 0.87657 0.0
C498 C 0.87887 0.92869 0.67951 0.0
C499 C 0.83396 0.8983 0.73609 0.0
O500 O 0.84904 0.91461 0.58348 0.0
O501 O 0.83596 0.88582 0.58244 0.0
O502 O 0.87252 0.86908 0.66908 0.0
O503 O 0.84239 0.86491 0.6607 0.0
O504 O 0.88617 0.89295 0.60742 0.0
O505 O 0.90445 0.88374 0.66844 0.0
O506 O 0.88913 0.87235 0.77441 0.0
O507 O 0.89938 0.90229 0.77665 0.0
O508 O 0.86464 0.91756 0.68712 0.0
O509 O 0.89485 0.92117 0.69468 0.0
O510 O 0.85086 0.89254 0.75206 0.0
O511 O 0.83183 0.90218 0.69286 0.0
H512 H 0.87381 0.9082 0.51719 0.0
H513 H 0.8801 0.90639 0.43653 0.0
H514 H 0.82053 0.88915 0.41416 0.0
H515 H 0.81424 0.89158 0.49462 0.0
H516 H 0.86369 0.87631 0.84065 0.0
H517 H 0.8569 0.87775 0.92121 0.0
H518 H 0.91487 0.8995 0.94483 0.0
H519 H 0.9216 0.89773 0.86443 0.0
Sm520 Sm 0.89016 0.12629 0.31969 0.0
Sm521 Sm 0.89295 0.15233 0.39935 0.0
C522 C 0.88311 0.10978 0.24071 0.0
C523 C 0.88461 0.11454 0.19235 0.0
C524 C 0.87809 0.1324 0.17512 0.0
C525 C 0.87951 0.13644 0.12913 0.0
C526 C 0.88747 0.12269 0.09929 0.0
C527 C 0.89402 0.10485 0.11681 0.0
C528 C 0.89261 0.10085 0.16276 0.0
C529 C 0.92665 0.12823 0.35777 0.0
C530 C 0.89612 0.17358 0.3028 0.0
C531 C 0.90145 0.16809 0.47843 0.0
C532 C 0.89978 0.16341 0.5268 0.0
C533 C 0.90508 0.1451 0.54384 0.0
C534 C 0.90375 0.14122 0.58992 0.0
C535 C 0.89701 0.15553 0.61995 0.0
C536 C 0.89158 0.17376 0.6026 0.0
C537 C 0.89298 0.17764 0.55661 0.0
C538 C 0.85553 0.14891 0.36731 0.0
C539 C 0.88534 0.10464 0.41362 0.0
O540 O 0.86992 0.11897 0.26418 0.0
O541 O 0.89941 0.10756 0.26253 0.0
O542 O 0.91566 0.14261 0.35053 0.0
O543 O 0.91875 0.11227 0.3435 0.0
O544 O 0.88982 0.15677 0.28721 0.0
O545 O 0.90074 0.17553 0.34569 0.0
O546 O 0.91382 0.15798 0.45468 0.0
O547 O 0.88531 0.17158 0.4569 0.0
O548 O 0.86748 0.13503 0.37115 0.0
O549 O 0.86336 0.16514 0.3802 0.0
O550 O 0.89214 0.12108 0.43081 0.0
O551 O 0.88056 0.10354 0.37087 0.0
H552 H 0.87185 0.14325 0.19715 0.0
H553 H 0.87454 0.15042 0.11705 0.0
H554 H 0.89996 0.09379 0.09492 0.0
H555 H 0.89767 0.08694 0.17519 0.0
H556 H 0.9103 0.1338 0.52161 0.0
H557 H 0.90783 0.12695 0.60197 0.0
H558 H 0.88656 0.1852 0.6247 0.0
H559 H 0.88887 0.19188 0.54431 0.0
Sm560 Sm 0.15163 0.11251 0.63419 0.0
Sm561 Sm 0.12554 0.11433 0.71348 0.0
C562 C 0.16763 0.10458 0.55505 0.0
C563 C 0.16321 0.10645 0.50663 0.0
C564 C 0.1446 0.10263 0.48943 0.0
C565 C 0.14101 0.10392 0.4432 0.0
C566 C 0.15594 0.10911 0.41314 0.0
C567 C 0.17446 0.11322 0.43079 0.0
C568 C 0.17803 0.11187 0.47692 0.0
C569 C 0.14827 0.14961 0.66827 0.0
C570 C 0.1039 0.11982 0.61966 0.0
C571 C 0.10872 0.1206 0.79247 0.0
C572 C 0.11331 0.11951 0.84093 0.0
C573 C 0.13142 0.12535 0.85795 0.0
C574 C 0.13526 0.12436 0.90412 0.0
C575 C 0.12103 0.11761 0.93428 0.0
C576 C 0.10297 0.11165 0.9169 0.0
C577 C 0.09919 0.11259 0.87081 0.0
C578 C 0.12781 0.07822 0.67345 0.0
C579 C 0.17278 0.10865 0.73062 0.0
O580 O 0.15744 0.09204 0.57813 0.0
O581 O 0.17094 0.12064 0.57714 0.0
O582 O 0.13434 0.13775 0.6637 0.0
O583 O 0.16448 0.14183 0.65517 0.0
O584 O 0.12063 0.11413 0.60192 0.0
O585 O 0.1024 0.12343 0.66293 0.0
O586 O 0.11724 0.13422 0.76901 0.0
O587 O 0.10752 0.10411 0.7709 0.0
O588 O 0.14208 0.08919 0.68174 0.0
O589 O 0.11175 0.08595 0.68755 0.0
O590 O 0.15589 0.11455 0.74646 0.0
O591 O 0.17486 0.10455 0.6875 0.0
H592 H 0.13286 0.09847 0.51162 0.0
H593 H 0.12661 0.10046 0.43098 0.0
H594 H 0.18623 0.11763 0.40899 0.0
H595 H 0.19247 0.11498 0.48942 0.0
H596 H 0.14256 0.13081 0.83564 0.0
H597 H 0.14925 0.12924 0.91624 0.0
H598 H 0.09177 0.10608 0.93889 0.0
H599 H 0.08514 0.10793 0.85845 0.0
Sm600 Sm 0.11597 0.87811 0.3225 0.0
Sm601 Sm 0.10976 0.85177 0.40859 0.0
C602 C 0.1254 0.8927 0.24294 0.0
C603 C 0.12391 0.88701 0.1952 0.0
C604 C 0.13734 0.89431 0.16413 0.0
C605 C 0.13578 0.88965 0.11851 0.0
C606 C 0.1207 0.87759 0.10292 0.0
C607 C 0.1074 0.87008 0.13436 0.0
C608 C 0.10902 0.8747 0.18003 0.0
C609 C 0.07934 0.87777 0.35981 0.0
C610 C 0.10848 0.83043 0.30948 0.0
C611 C 0.09312 0.83819 0.48236 0.0
C612 C 0.0963 0.84011 0.53112 0.0
C613 C 0.08248 0.83282 0.56123 0.0
C614 C 0.08484 0.83539 0.60755 0.0
C615 C 0.10107 0.84538 0.62476 0.0
C616 C 0.11495 0.85259 0.59426 0.0
C617 C 0.11256 0.85002 0.54792 0.0
C618 C 0.14925 0.85635 0.39585 0.0
C619 C 0.12114 0.89906 0.41791 0.0
O620 O 0.13758 0.88286 0.26785 0.0
O621 O 0.10909 0.89656 0.2636 0.0
O622 O 0.09024 0.86318 0.35452 0.0
O623 O 0.08745 0.8933 0.34356 0.0
O624 O 0.11271 0.84756 0.29188 0.0
O625 O 0.10578 0.82808 0.35333 0.0
O626 O 0.08741 0.85403 0.46186 0.0
O627 O 0.10622 0.82845 0.45963 0.0
O628 O 0.13596 0.86346 0.37155 0.0
O629 O 0.14161 0.84585 0.42738 0.0
O630 O 0.11271 0.88351 0.43583 0.0
O631 O 0.12656 0.89962 0.3754 0.0
H632 H 0.14893 0.90384 0.17509 0.0
H633 H 0.14616 0.89587 0.0953 0.0
H634 H 0.09578 0.86054 0.12371 0.0
H635 H 0.09855 0.86878 0.20343 0.0
H636 H 0.06977 0.82524 0.5489 0.0
H637 H 0.07397 0.82942 0.62989 0.0
H638 H 0.12748 0.86059 0.60611 0.0
H639 H 0.12328 0.85598 0.52515 0.0
H640 H 0.38737 0.94064 0.39497 0.0
H641 H 0.38459 0.96967 0.34848 0.0
H642 H 0.37975 0.9338 0.23029 0.0
H643 H 0.38356 0.90462 0.27669 0.0
H644 H 0.40184 0.96258 0.21166 0.0
H645 H 0.33804 0.9941 0.29661 0.0
H646 H 0.35747 0.99068 0.3357 0.0
H647 H 0.34655 0.9699 0.30878 0.0
C648 C 0.38559 0.93889 0.35909 0.0
C649 C 0.38553 0.92025 0.33965 0.0
C650 C 0.38382 0.95557 0.33247 0.0
C651 C 0.38136 0.95411 0.28575 0.0
C652 C 0.38146 0.93546 0.26621 0.0
H653 H 0.34665 0.0565 0.12768 0.0
H654 H 0.34714 0.02558 0.16872 0.0
C655 C 0.38362 0.91874 0.2928 0.0
C656 C 0.3795 0.972 0.2573 0.0
H657 H 0.35614 0.0158 0.24947 0.0
C658 C 0.39168 0.97411 0.21978 0.0
C659 C 0.366 0.98703 0.26693 0.0
C660 C 0.35114 0.98522 0.30389 0.0
C661 C 0.39115 0.99085 0.1926 0.0
C662 C 0.3786 0.00644 0.20409 0.0
C663 C 0.36602 0.00411 0.24084 0.0
C664 C 0.3783 0.02523 0.17861 0.0
C665 C 0.4038 0.99136 0.15129 0.0
C666 C 0.39554 0.03568 0.17086 0.0
C667 C 0.3953 0.05313 0.14665 0.0
C668 C 0.37775 0.0609 0.13061 0.0
C669 C 0.36041 0.05082 0.13939 0.0
C670 C 0.3607 0.03315 0.16298 0.0
H671 H 0.40699 0.97646 0.13891 0.0
H672 H 0.39686 0.9997 0.12374 0.0
H673 H 0.41786 0.99832 0.15973 0.0
H674 H 0.40924 0.03042 0.18385 0.0
H675 H 0.40886 0.06072 0.14108 0.0
H676 H 0.90336 0.62408 0.75713 0.0
H677 H 0.93246 0.62809 0.80361 0.0
H678 H 0.96836 0.62347 0.68552 0.0
H679 H 0.93942 0.62046 0.63897 0.0
H680 H 0.96133 0.60613 0.8223 0.0
H681 H 0.99256 0.67015 0.73769 0.0
H682 H 0.96841 0.66157 0.72548 0.0
H683 H 0.9892 0.65077 0.69837 0.0
C684 C 0.91746 0.62412 0.74106 0.0
C685 C 0.919 0.62219 0.6942 0.0
C686 C 0.93414 0.6264 0.7677 0.0
C687 C 0.95278 0.62662 0.74821 0.0
C688 C 0.95427 0.62416 0.7015 0.0
H689 H 0.05938 0.59766 0.88881 0.0
H690 H 0.02885 0.59813 0.84731 0.0
C691 C 0.93763 0.62225 0.67484 0.0
C692 C 0.97065 0.62854 0.77669 0.0
H693 H 0.01446 0.65184 0.78416 0.0
C694 C 0.97282 0.6163 0.81412 0.0
C695 C 0.98564 0.64207 0.76706 0.0
C696 C 0.98373 0.65702 0.73027 0.0
C697 C 0.98964 0.61674 0.84101 0.0
C698 C 0.00522 0.62924 0.82935 0.0
C699 C 1.00278 0.64197 0.79288 0.0
C700 C 0.02421 0.62914 0.85402 0.0
C701 C 0.99026 0.60398 0.88216 0.0
C702 C 0.03255 0.64652 0.86995 0.0
C703 C 0.0504 0.64633 0.89286 0.0
C704 C 0.06021 0.62873 0.90063 0.0
C705 C 0.05203 0.61143 0.8841 0.0
C706 C 0.03442 0.61167 0.86062 0.0
H707 H 0.97541 0.60098 0.89501 0.0
H708 H 0.99693 0.58981 0.87331 0.0
H709 H 0.99887 0.61074 0.90949 0.0
H710 H 0.02517 0.66026 0.86502 0.0
H711 H 0.05641 0.65991 0.90491 0.0
H712 H 0.62108 0.96664 0.07661 0.0
H713 H 0.61998 0.99752 0.11772 0.0
H714 H 0.64543 0.96958 0.23305 0.0
H715 H 0.64652 0.9388 0.19195 0.0
H716 H 0.60045 0.00605 0.19581 0.0
H717 H 0.67932 0.01766 0.22126 0.0
H718 H 0.66994 1.00014 0.18172 0.0
H719 H 0.67085 0.99445 0.24056 0.0
C720 C 0.62668 0.96715 0.11054 0.0
C721 C 0.63427 0.95032 0.13075 0.0
C722 C 0.626 0.98481 0.13407 0.0
C723 C 0.63295 0.98607 0.17833 0.0
C724 C 0.64048 0.96922 0.19858 0.0
H725 H 0.63543 0.07542 0.38519 0.0
H726 H 0.63859 0.04589 0.3402 0.0
C727 C 0.64116 0.95158 0.17501 0.0
C728 C 0.63146 0.00473 0.20391 0.0
H729 H 0.65806 0.03841 0.26196 0.0
C730 C 0.61307 0.01319 0.20998 0.0
C731 C 0.64789 0.01407 0.22268 0.0
C732 C 0.66814 0.00624 0.21595 0.0
C733 C 0.61061 0.0304 0.23498 0.0
C734 C 0.62704 0.03975 0.2538 0.0
C735 C 0.64544 0.03132 0.2476 0.0
C736 C 0.6254 0.05806 0.28064 0.0
C737 C 0.59031 0.03806 0.24216 0.0
C738 C 0.61725 0.075 0.26212 0.0
C739 C 0.61535 0.09197 0.2879 0.0
C740 C 0.62172 0.09251 0.33278 0.0
C741 C 0.6303 0.07564 0.35087 0.0
C742 C 0.63214 0.05868 0.3251 0.0
H743 H 0.57918 0.02664 0.23639 0.0
H744 H 0.58851 0.04384 0.27669 0.0
H745 H 0.58752 0.05005 0.21813 0.0
H746 H 0.61235 0.07512 0.22761 0.0
H747 H 0.60879 0.10463 0.27262 0.0
H748 H 0.95015 0.40846 0.89901 0.0
H749 H 0.98032 0.40891 0.85577 0.0
H750 H 0.97863 0.34644 0.84536 0.0
H751 H 0.94848 0.34589 0.88949 0.0
H752 H 0.01561 0.36045 0.86574 0.0
H753 H 0.9849 0.40045 0.7209 0.0
H754 H 0.98138 0.41268 0.77345 0.0
H755 H 0.96986 0.3896 0.76367 0.0
C756 C 0.9562 0.3948 0.88759 0.0
C757 C 0.94681 0.37715 0.89737 0.0
C758 C 0.97341 0.39509 0.86256 0.0
C759 C 0.98164 0.37775 0.84647 0.0
C760 C 0.97253 0.36003 0.85708 0.0
H761 H 0.07002 0.37237 0.63712 0.0
H762 H 0.04071 0.36926 0.6826 0.0
C763 C 0.95527 0.35973 0.88221 0.0
C764 C 0.99978 0.37819 0.81888 0.0
H765 H 0.01927 0.39713 0.7228 0.0
C766 C 0.01639 0.3684 0.8344 0.0
C767 C 1.0008 0.38834 0.77759 0.0
C768 C 0.98325 0.39821 0.75761 0.0
C769 C 0.03402 0.36884 0.81036 0.0
C770 C 0.03524 0.37962 0.76993 0.0
C771 C 0.0185 0.38906 0.75399 0.0
C772 C 0.05354 0.381 0.74304 0.0
C773 C 0.05108 0.35745 0.8281 0.0
C774 C 0.07067 0.38873 0.76155 0.0
C775 C 0.08759 0.3905 0.73552 0.0
C776 C 0.08774 0.3847 0.69021 0.0
C777 C 0.07055 0.37698 0.67183 0.0
C778 C 0.0537 0.3752 0.69785 0.0
H779 H 0.0464 0.34589 0.85178 0.0
H780 H 0.05939 0.35062 0.80035 0.0
H781 H 0.06094 0.36742 0.84645 0.0
H782 H 0.0709 0.39373 0.79599 0.0
H783 H 0.10046 0.39662 0.75081 0.0
H784 H 0.34661 0.45115 0.15376 0.0
H785 H 0.34648 0.48202 0.11243 0.0
H786 H 0.40863 0.47816 0.09643 0.0
H787 H 0.40885 0.44798 0.13947 0.0
H788 H 0.4001 0.51337 0.11624 0.0
H789 H 0.3495 0.49107 0.98153 0.0
H790 H 0.33871 0.48933 0.03608 0.0
H791 H 0.35903 0.47403 0.02181 0.0
C792 C 0.36021 0.45695 0.1414 0.0
C793 C 0.37773 0.44714 0.14993 0.0
C794 C 0.36013 0.47453 0.11734 0.0
C795 C 0.37752 0.48241 0.1003 0.0
C796 C 0.39499 0.47253 0.10902 0.0
H797 H 0.3872 0.56831 0.88795 0.0
H798 H 0.38472 0.53922 0.9344 0.0
C799 C 0.39511 0.45521 0.13366 0.0
C800 C 0.3778 0.50109 0.07428 0.0
H801 H 0.35817 0.52444 0.98364 0.0
C802 C 0.39094 0.51573 0.08716 0.0
C803 C 0.36609 0.50425 0.03583 0.0
C804 C 0.3527 0.48877 0.01768 0.0
C805 C 0.39283 0.53317 0.06281 0.0
C806 C 0.38065 0.53663 0.02527 0.0
C807 C 0.3674 0.52204 1.01257 0.0
C808 C 0.38203 0.55473 0.99732 0.0
C809 C 0.40848 0.5473 0.07668 0.0
C810 C 0.38119 0.57339 0.0167 0.0
C811 C 0.38307 0.59015 0.9901 0.0
C812 C 0.38523 0.58867 0.9433 0.0
C813 C 0.38551 0.57004 0.92385 0.0
C814 C 0.38405 0.55332 0.95049 0.0
H815 H 0.42013 0.53999 0.09618 0.0
H816 H 0.41519 0.55444 0.04711 0.0
H817 H 0.40204 0.55868 0.09847 0.0
H818 H 0.379 0.57506 0.05244 0.0
H819 H 0.38255 0.60427 1.00614 0.0
H820 H 0.56949 0.63549 0.14512 0.0
H821 H 0.54022 0.63829 0.0994 0.0
H822 H 0.57127 0.61587 0.98506 0.0
H823 H 0.60082 0.6132 0.03055 0.0
H824 H 0.54741 0.64784 0.96393 0.0
H825 H 0.50643 0.59248 0.06046 0.0
H826 H 0.51601 0.61186 0.09417 0.0
H827 H 0.53234 0.59554 0.06593 0.0
C828 C 0.57019 0.63115 0.11023 0.0
C829 C 0.5876 0.62396 0.09174 0.0
C830 C 0.55334 0.63269 0.08413 0.0
C831 C 0.55336 0.62698 0.03889 0.0
C832 C 0.57082 0.62027 0.01993 0.0
H833 H 0.45222 0.59973 0.87702 0.0
H834 H 0.48255 0.59988 0.91955 0.0
C835 C 0.58773 0.61871 0.04607 0.0
C836 C 0.53515 0.62785 1.01166 0.0
H837 H 0.4887 0.61039 1.00634 0.0
C838 C 0.53457 0.63963 0.97316 0.0
C839 C 0.51841 0.61701 0.02335 0.0
C840 C 0.51829 0.60336 0.06297 0.0
C841 C 0.51773 0.64101 0.94642 0.0
C842 C 0.50085 0.63051 0.95872 0.0
C843 C 0.50151 0.6186 0.99701 0.0
C844 C 0.48261 0.6309 0.93145 0.0
C845 C 0.51831 0.65337 0.90466 0.0
C846 C 0.47235 0.6483 0.92381 0.0
C847 C 0.45494 0.64825 0.89915 0.0
C848 C 0.44736 0.63078 0.88197 0.0
C849 C 0.45767 0.61345 0.88962 0.0
C850 C 0.47502 0.6135 0.9141 0.0
H851 H 0.53344 0.65649 0.89395 0.0
H852 H 0.51056 0.64615 0.87656 0.0
H853 H 0.51101 0.66744 0.91149 0.0
H854 H 0.47762 0.66187 0.93753 0.0
H855 H 0.44731 0.66183 0.89399 0.0
H856 H 0.59827 0.56069 0.13858 0.0
H857 H 0.59863 0.53027 0.09652 0.0
H858 H 0.66063 0.52615 0.11471 0.0
H859 H 0.6604 0.55729 0.15517 0.0
H860 H 0.65226 0.51583 0.03352 0.0
H861 H 0.60111 0.4766 0.14324 0.0
H862 H 0.59009 0.49829 0.12197 0.0
H863 H 0.61098 0.49997 0.15828 0.0
C864 C 0.61199 0.55326 0.13387 0.0
C865 C 0.62928 0.56128 0.15069 0.0
C866 C 0.61216 0.53572 0.11007 0.0
C867 C 0.62956 0.52543 0.10343 0.0
C868 C 0.64695 0.53361 0.11967 0.0
H869 H 0.62389 0.40495 1.00394 0.0
H870 H 0.62799 0.43387 0.05104 0.0
C871 C 0.64682 0.55139 0.1429 0.0
C872 C 0.62958 0.50653 0.07838 0.0
H873 H 0.6062 0.46279 0.07019 0.0
C874 C 0.64231 0.50417 0.04192 0.0
C875 C 0.61697 0.49096 0.08962 0.0
C876 C 0.6042 0.49149 0.13074 0.0
C877 C 0.64233 0.48712 1.0157 0.0
C878 C 0.62869 0.47217 0.02492 0.0
C879 C 0.61644 0.47426 0.06233 0.0
C880 C 0.62669 0.45443 0.99605 0.0
C881 C 0.65728 0.48527 0.97894 0.0
C882 C 0.62429 0.45613 0.94937 0.0
C883 C 0.62233 0.43959 0.92234 0.0
C884 C 0.62216 0.42087 0.94133 0.0
C885 C 0.62401 0.41913 0.98817 0.0
C886 C 0.62634 0.4357 1.01516 0.0
H887 H 0.67044 0.49399 0.98662 0.0
H888 H 0.66173 0.46992 0.97383 0.0
H889 H 0.6511 0.49091 0.94713 0.0
H890 H 0.6237 0.4703 0.93369 0.0
H891 H 0.62062 0.44151 0.8865 0.0
H892 H 0.43775 0.37347 0.14286 0.0
H893 H 0.46707 0.37071 0.09727 0.0
H894 H 0.43608 0.39312 0.98282 0.0
H895 H 0.40647 0.39575 0.02819 0.0
H896 H 0.46005 0.3611 0.96189 0.0
H897 H 0.50074 0.41668 0.05847 0.0
H898 H 0.49114 0.39731 0.09219 0.0
H899 H 0.47482 0.41356 0.06371 0.0
C900 C 0.43708 0.37781 0.10798 0.0
C901 C 0.41968 0.38499 0.08942 0.0
C902 C 0.45395 0.3763 0.08195 0.0
C903 C 0.45395 0.38201 0.03673 0.0
C904 C 0.43651 0.38871 0.01769 0.0
H905 H 0.55503 0.40964 0.87554 0.0
H906 H 0.52467 0.40927 0.91786 0.0
C907 C 0.41958 0.39025 0.04376 0.0
C908 C 0.47219 0.38117 1.00961 0.0
H909 H 0.51859 0.39877 1.00457 0.0
C910 C 0.47285 0.36935 0.97117 0.0
C911 C 0.48888 0.39207 0.02138 0.0
C912 C 0.48889 0.40577 0.06093 0.0
C913 C 0.48974 0.36799 0.94457 0.0
C914 C 0.50656 0.37856 0.95695 0.0
C915 C 0.50581 0.3905 0.99519 0.0
C916 C 0.52482 0.37826 0.92976 0.0
C917 C 0.48926 0.35559 0.90285 0.0
C918 C 0.5352 0.36093 0.92218 0.0
C919 C 0.55265 0.36109 0.89764 0.0
C920 C 0.56012 0.37861 0.88051 0.0
C921 C 0.54968 0.39587 0.88811 0.0
C922 C 0.5323 0.3957 0.91246 0.0
H923 H 0.47415 0.35236 0.89211 0.0
H924 H 0.49697 0.36284 0.87476 0.0
H925 H 0.49664 0.34157 0.90975 0.0
H926 H 0.53 0.34732 0.93585 0.0
H927 H 0.56038 0.34756 0.89252 0.0
H928 H 0.8835 0.40176 0.77362 0.0
H929 H 0.87972 0.43131 0.72861 0.0
H930 H 0.88112 0.46598 0.84917 0.0
H931 H 0.88378 0.43649 0.89423 0.0
H932 H 0.85552 0.48054 0.79727 0.0
H933 H 0.9206 0.46806 0.69239 0.0
H934 H 0.90324 0.44885 0.68658 0.0
H935 H 0.91491 0.45292 0.73988 0.0
C936 C 0.88299 0.41569 0.79049 0.0
C937 C 0.88403 0.41672 0.83756 0.0
C938 C 0.88099 0.43265 0.76465 0.0
C939 C 0.88062 0.45111 0.78514 0.0
C940 C 0.88141 0.45205 0.83224 0.0
H941 H 0.90775 0.55955 0.65065 0.0
H942 H 0.90725 0.52919 0.69294 0.0
C943 C 0.88296 0.43511 0.85808 0.0
C944 C 0.87933 0.46945 0.75801 0.0
H945 H 0.90018 0.49416 0.67086 0.0
C946 C 0.86536 0.48351 0.76971 0.0
C947 C 0.89229 0.47365 0.72232 0.0
C948 C 0.90872 0.46017 0.70984 0.0
C949 C 0.86407 0.5015 0.74724 0.0
C950 C 0.87657 0.50538 0.71051 0.0
C951 C 0.89042 0.49126 0.6986 0.0
C952 C 0.87636 0.5243 0.68541 0.0
C953 C 0.84981 0.51639 0.76446 0.0
C954 C 0.85918 0.53195 0.66674 0.0
C955 C 0.85939 0.54967 0.6432 0.0
C956 C 0.87687 0.55982 0.63675 0.0
C957 C 0.89404 0.55204 0.65482 0.0
C958 C 0.89377 0.53461 0.67902 0.0
H959 H 0.84589 0.51365 0.80006 0.0
H960 H 0.85576 0.53134 0.7618 0.0
H961 H 0.83627 0.51558 0.74439 0.0
H962 H 0.84561 0.52414 0.66983 0.0
H963 H 0.84595 0.55525 0.62939 0.0
H964 H 0.55696 0.163 0.38736 0.0
H965 H 0.52635 0.16255 0.34507 0.0
H966 H 0.52475 0.10004 0.35477 0.0
H967 H 0.5554 0.10041 0.39627 0.0
H968 H 0.51701 0.11286 0.26929 0.0
H969 H 0.4715 0.15286 0.3921 0.0
H970 H 0.49317 0.16542 0.37532 0.0
H971 H 0.49504 0.14309 0.40629 0.0
C972 C 0.55003 0.14918 0.38057 0.0
C973 C 0.55861 0.13174 0.39519 0.0
C974 C 0.53245 0.14894 0.35664 0.0
C975 C 0.52302 0.13126 0.34714 0.0
C976 C 0.53164 0.11387 0.36174 0.0
H977 H 0.40486 0.1102 0.25235 0.0
H978 H 0.43484 0.11305 0.29616 0.0
C979 C 0.54917 0.11411 0.38561 0.0
C980 C 0.50448 0.13071 0.32103 0.0
H981 H 0.4571 0.14582 0.32163 0.0
C982 C 0.50393 0.12009 0.28077 0.0
C983 C 0.48727 0.13993 0.33614 0.0
C984 C 0.48662 0.15083 0.38002 0.0
C985 C 0.48682 0.11858 0.25514 0.0
C986 C 0.46973 0.12815 0.26971 0.0
C987 C 0.4702 0.13861 0.31021 0.0
C988 C 0.45122 0.12722 0.24361 0.0
C989 C 0.48708 0.10637 0.21309 0.0
C990 C 0.45023 0.1346 0.19974 0.0
C991 C 0.4331 0.13302 0.17459 0.0
C992 C 0.41646 0.12406 0.19271 0.0
C993 C 0.41734 0.11713 0.23713 0.0
C994 C 0.4345 0.11876 0.26231 0.0
H995 H 0.4996 0.09619 0.21259 0.0
H996 H 0.47348 0.09783 0.20978 0.0
H997 H 0.48831 0.11604 0.18345 0.0
H998 H 0.46277 0.14153 0.18479 0.0
H999 H 0.43302 0.13865 0.14067 0.0
H1000 H 0.11241 0.60082 0.78067 0.0
H1001 H 0.11502 0.57136 0.73473 0.0
H1002 H 0.13725 0.53987 0.84867 0.0
H1003 H 0.13449 0.56905 0.89484 0.0
H1004 H 0.14683 0.54743 0.7133 0.0
H1005 H 0.09138 0.50635 0.80921 0.0
H1006 H 0.09455 0.53226 0.81509 0.0
H1007 H 0.11076 0.51576 0.84313 0.0
C1008 C 0.11787 0.58765 0.796 0.0
C1009 C 0.12307 0.58736 0.84169 0.0
C1010 C 0.11939 0.57079 0.76961 0.0
C1011 C 0.12603 0.55325 0.78834 0.0
C1012 C 0.1317 0.55307 0.83359 0.0
H1013 H 0.16083 0.44739 0.64265 0.0
H1014 H 0.16083 0.47772 0.68622 0.0
C1015 C 0.13019 0.56987 0.85994 0.0
C1016 C 0.12684 0.53509 0.76088 0.0
H1017 H 0.10933 0.48863 0.75509 0.0
C1018 C 0.13861 0.53458 0.72238 0.0
C1019 C 0.11597 0.51833 0.77237 0.0
C1020 C 0.1023 0.51817 0.81195 0.0
C1021 C 0.13997 0.51776 0.69547 0.0
C1022 C 0.12945 0.50086 0.70762 0.0
C1023 C 0.11755 0.50147 0.74589 0.0
C1024 C 0.12987 0.48263 0.68028 0.0
C1025 C 0.15231 0.51841 0.65371 0.0
C1026 C 0.1125 0.47499 0.66301 0.0
C1027 C 0.11247 0.45762 0.63853 0.0
C1028 C 0.12981 0.44736 0.63078 0.0
C1029 C 0.14725 0.45499 0.64788 0.0
C1030 C 0.14727 0.47241 0.67255 0.0
H1031 H 0.15537 0.53358 0.64306 0.0
H1032 H 0.16639 0.51116 0.66052 0.0
H1033 H 0.14513 0.51064 0.62558 0.0
H1034 H 0.09888 0.48249 0.66854 0.0
H1035 H 0.09877 0.45214 0.62598 0.0
H1036 H 0.60509 0.88182 0.26132 0.0
H1037 H 0.57576 0.87751 0.30681 0.0
H1038 H 0.54032 0.88865 0.19034 0.0
H1039 H 0.56944 0.89212 0.14459 0.0
H1040 H 0.54756 0.90015 0.32985 0.0
H1041 H 0.51443 0.84068 0.23215 0.0
H1042 H 0.53895 0.84877 0.22229 0.0
H1043 H 0.51874 0.86138 0.19714 0.0
C1044 C 0.59105 0.88324 0.24535 0.0
C1045 C 0.58971 0.88712 0.19909 0.0
C1046 C 0.57423 0.88075 0.27143 0.0
C1047 C 0.55564 0.88221 0.252 0.0
C1048 C 0.55435 0.88667 0.20607 0.0
H1049 H 0.44938 0.90961 0.3948 0.0
H1050 H 0.48017 0.90946 0.35439 0.0
C1051 C 0.5711 0.88884 0.17991 0.0
C1052 C 0.53765 0.87984 0.27987 0.0
H1053 H 0.4931 0.85775 0.28233 0.0
C1054 C 0.53576 0.8907 0.31958 0.0
C1055 C 0.52226 0.86721 0.26744 0.0
C1056 C 0.52378 0.8537 0.22771 0.0
C1057 C 0.51884 0.88984 0.34608 0.0
C1058 C 0.50291 0.8783 0.33187 0.0
C1059 C 0.50506 0.86688 0.29307 0.0
C1060 C 0.48383 0.8782 0.35614 0.0
C1061 C 0.51845 0.90113 0.38948 0.0
C1062 C 0.47489 0.86064 0.36904 0.0
C1063 C 0.45692 0.86069 0.39146 0.0
C1064 C 0.44755 0.87831 0.40165 0.0
C1065 C 0.45635 0.89579 0.38817 0.0
C1066 C 0.47411 0.89573 0.3653 0.0
H1067 H 0.53333 0.90323 0.40306 0.0
H1068 H 0.5122 0.91574 0.38324 0.0
H1069 H 0.50954 0.89368 0.41532 0.0
H1070 H 0.48189 0.84687 0.36207 0.0
H1071 H 0.45044 0.84697 0.40112 0.0
H1072 H 0.84686 0.9474 0.64474 0.0
H1073 H 0.84638 0.97738 0.59972 0.0
H1074 H 0.90857 0.98184 0.61211 0.0
H1075 H 0.90916 0.95194 0.65632 0.0
H1076 H 0.85926 0.01541 0.61966 0.0
H1077 H 0.90029 0.98464 0.4764 0.0
H1078 H 0.88962 0.96962 0.51947 0.0
H1079 H 0.91238 0.9817 0.52931 0.0
C1080 C 0.86041 0.95479 0.6378 0.0
C1081 C 0.87806 0.94721 0.65386 0.0
C1082 C 0.86012 0.97194 0.61214 0.0
C1083 C 0.87748 0.98175 0.60183 0.0
C1084 C 0.89503 0.97438 0.61874 0.0
H1085 H 0.8947 0.10024 0.50294 0.0
H1086 H 0.89194 0.07085 0.5489 0.0
C1087 C 0.89532 0.95731 0.64431 0.0
C1088 C 0.87742 0.99967 0.57349 0.0
H1089 H 0.89622 0.01898 0.47711 0.0
C1090 C 0.86726 0.01617 0.58837 0.0
C1091 C 0.88763 1.00064 0.53231 0.0
C1092 C 0.89795 0.98316 0.51311 0.0
C1093 C 0.86744 0.0337 0.56383 0.0
C1094 C 0.87831 0.03489 0.52355 0.0
C1095 C 0.88807 0.01823 0.50819 0.0
C1096 C 0.87951 0.0531 0.49625 0.0
C1097 C 0.85573 0.05068 0.58094 0.0
C1098 C 0.87382 0.05296 0.451 0.0
C1099 C 0.87552 0.06971 0.42455 0.0
C1100 C 0.88306 0.08707 0.44254 0.0
C1101 C 0.88873 0.08722 0.48793 0.0
C1102 C 0.88704 0.07041 0.51441 0.0
H1103 H 0.84422 0.04593 0.60462 0.0
H1104 H 0.86549 0.06082 0.59909 0.0
H1105 H 0.84884 0.05873 0.55286 0.0
H1106 H 0.86804 0.03983 0.43604 0.0
H1107 H 0.87101 0.06896 0.38979 0.0
H1108 H 0.06593 0.12 0.64596 0.0
H1109 H 0.03695 0.12244 0.59923 0.0
H1110 H 0.07293 0.12802 0.48148 0.0
H1111 H 0.10204 0.12451 0.52805 0.0
H1112 H 0.02226 0.14896 0.54968 0.0
H1113 H 0.03801 0.08676 0.43774 0.0
H1114 H 0.05236 0.09179 0.48688 0.0
H1115 H 0.05665 0.10489 0.43548 0.0
C1116 C 0.06771 0.12167 0.61006 0.0
C1117 C 0.08635 0.12192 0.59078 0.0
C1118 C 0.05106 0.1231 0.58327 0.0
C1119 C 0.05254 0.12506 0.53644 0.0
C1120 C 0.07121 0.12587 0.51721 0.0
H1121 H 0.94912 0.16 0.379 0.0
H1122 H 0.97992 0.1603 0.4205 0.0
C1123 C 0.08791 0.12403 0.54397 0.0
C1124 C 0.0345 0.12639 0.50833 0.0
H1125 H 0.01136 0.1067 0.41746 0.0
C1126 C 0.0199 0.13966 0.52083 0.0
C1127 C 0.0311 0.11412 0.47089 0.0
C1128 C 0.04526 0.09846 0.45721 0.0
C1129 C 1.00213 0.1409 0.49748 0.0
C1130 C 0.99902 0.12909 0.45915 0.0
C1131 C 0.01368 0.11594 0.44645 0.0
C1132 C 0.98038 0.12927 0.43311 0.0
C1133 C 0.98664 0.15432 0.51542 0.0
C1134 C 0.97054 0.11174 0.42466 0.0
C1135 C 0.95326 0.11151 0.39995 0.0
C1136 C 0.94518 0.12884 0.38331 0.0
C1137 C 0.95493 0.14643 0.39163 0.0
C1138 C 0.97247 0.14661 0.41578 0.0
H1139 H 0.98893 0.15763 0.55152 0.0
H1140 H 0.98715 0.16827 0.4968 0.0
H1141 H 0.97194 0.14793 0.51138 0.0
H1142 H 0.97619 0.09813 0.43749 0.0
H1143 H 0.94608 0.09772 0.39431 0.0
H1144 H 0.12372 0.90191 0.50968 0.0
H1145 H 0.12714 0.93147 0.55483 0.0
H1146 H 0.1265 0.96613 0.43424 0.0
H1147 H 0.12424 0.93662 0.38908 0.0
H1148 H 0.15153 0.98087 0.48722 0.0
H1149 H 0.08573 0.96794 0.58929 0.0
H1150 H 0.10316 0.94882 0.59586 0.0
H1151 H 0.0919 0.95285 0.54204 0.0
C1152 C 0.12436 0.91585 0.49283 0.0
C1153 C 0.12363 0.91688 0.44573 0.0
C1154 C 0.12613 0.93281 0.51874 0.0
C1155 C 0.12657 0.95126 0.49828 0.0
C1156 C 0.12614 0.9522 0.45115 0.0
H1157 H 0.09793 0.05938 0.63298 0.0
H1158 H 0.09879 0.02914 0.59022 0.0
C1159 C 0.12483 0.93526 0.42525 0.0
C1160 C 0.12751 0.9696 0.52548 0.0
H1161 H 0.10586 0.9941 0.61195 0.0
C1162 C 0.14147 0.98375 0.5144 0.0
C1163 C 0.11425 0.97369 0.56065 0.0
C1164 C 0.0978 0.96012 0.57236 0.0
C1165 C 0.14248 1.00172 0.53703 0.0
C1166 C 0.1297 0.00549 0.5733 0.0
C1167 C 0.11583 0.99128 0.58456 0.0
C1168 C 0.12966 0.02434 0.59865 0.0
C1169 C 0.15676 0.01673 0.52043 0.0
C1170 C 0.14669 0.03199 0.618 0.0
C1171 C 0.14627 0.04964 0.64178 0.0
C1172 C 0.12871 0.05971 0.64783 0.0
C1173 C 0.11168 0.05193 0.62912 0.0
C1174 C 0.11217 0.03456 0.60466 0.0
H1175 H 0.16089 0.01408 0.48492 0.0
H1176 H 0.15072 0.03165 0.52311 0.0
H1177 H 0.17019 0.01593 0.5409 0.0
H1178 H 0.16031 0.02423 0.61524 0.0
H1179 H 0.15961 0.05522 0.65609 0.0
H1180 H 0.06068 0.90904 0.39568 0.0
H1181 H 0.03088 0.90943 0.44025 0.0
H1182 H 0.0261 0.8472 0.42599 0.0
H1183 H 0.0565 0.84672 0.38314 0.0
H1184 H 0.99533 0.90114 0.42258 0.0
H1185 H 0.01848 0.85095 0.55727 0.0
H1186 H 0.03519 0.86016 0.51593 0.0
H1187 H 0.01975 0.83977 0.50307 0.0
C1188 C 0.05332 0.89542 0.40224 0.0
C1189 C 0.06099 0.87783 0.38607 0.0
C1190 C 0.03623 0.89565 0.42775 0.0
C1191 C 0.02623 0.87832 0.43743 0.0
C1192 C 0.03371 0.86074 0.42039 0.0
H1193 H 0.90493 0.88288 0.53355 0.0
H1194 H 0.93411 0.87973 0.48709 0.0
C1195 C 0.05102 0.86048 0.39547 0.0
C1196 C 0.00782 0.87887 0.46434 0.0
H1197 H 0.98495 0.85924 0.55562 0.0
C1198 C 0.99313 0.89201 0.45178 0.0
C1199 C 0.00489 0.86722 0.503 0.0
C1200 C 0.02049 0.8539 0.52092 0.0
C1201 C 0.97579 0.89385 0.47649 0.0
C1202 C 0.9725 0.88163 0.51408 0.0
C1203 C 0.9872 0.86848 0.52661 0.0
C1204 C 0.95443 0.88284 0.54214 0.0
C1205 C 0.96155 0.90945 0.46284 0.0
C1206 C 0.95585 0.88475 0.589 0.0
C1207 C 0.93916 0.88597 0.61573 0.0
C1208 C 0.92053 0.88555 0.59638 0.0
C1209 C 0.91904 0.88349 0.54954 0.0
C1210 C 0.93578 0.88186 0.52284 0.0
H1211 H 0.96876 0.92119 0.44343 0.0
H1212 H 0.95022 0.90297 0.44104 0.0
H1213 H 0.9544 0.91607 0.49251 0.0
H1214 H 0.96994 0.88553 0.60503 0.0
H1215 H 0.9409 0.88761 0.65165 0.0
H1216 H 0.34045 0.17647 0.19772 0.0
H1217 H 0.34513 0.21149 0.19581 0.0
H1218 H 0.38296 0.20548 0.0814 0.0
H1219 H 0.3782 0.1699 0.08306 0.0
H1220 H 0.38015 0.23242 0.20393 0.0
H1221 H 0.34258 0.24709 0.04204 0.0
H1222 H 0.33967 0.22444 0.07187 0.0
H1223 H 0.36169 0.22925 0.04175 0.0
C1224 C 0.34974 0.18251 0.17192 0.0
C1225 C 0.3589 0.17038 0.14037 0.0
C1226 C 0.35244 0.2026 0.17101 0.0
C1227 C 0.36431 0.2112 0.13842 0.0
C1228 C 0.37355 0.19919 0.10661 0.0
H1229 H 0.39145 0.33669 0.16562 0.0
H1230 H 0.39543 0.30132 0.15868 0.0
C1231 C 0.37086 0.17889 0.10758 0.0
C1232 C 0.36672 0.23274 0.13876 0.0
H1233 H 0.35337 0.27411 0.08325 0.0
C1234 C 0.37456 0.24156 0.17725 0.0
C1235 C 0.35923 0.24465 0.10417 0.0
C1236 C 0.35019 0.236 0.06264 0.0
C1237 C 0.37459 0.26189 0.1827 0.0
C1238 C 0.36674 0.27379 0.14851 0.0
C1239 C 0.35942 0.26499 0.10942 0.0
C1240 C 0.36466 0.29525 0.15394 0.0
C1241 C 0.38217 0.27039 0.22595 0.0
C1242 C 0.34609 0.30367 0.15351 0.0
C1243 C 0.34379 0.32381 0.15744 0.0
C1244 C 0.36003 0.33606 0.16163 0.0
C1245 C 0.37864 0.32763 0.16279 0.0
C1246 C 0.38093 0.30742 0.15883 0.0
H1247 H 0.38404 0.25915 0.25234 0.0
H1248 H 0.3965 0.27723 0.21973 0.0
H1249 H 0.37219 0.2818 0.23877 0.0
H1250 H 0.33331 0.29463 0.14994 0.0
H1251 H 0.32927 0.32982 0.15638 0.0
H1252 H 0.33632 0.61675 0.86859 0.0
H1253 H 0.30106 0.61319 0.87823 0.0
H1254 H 0.29479 0.67554 0.87892 0.0
H1255 H 0.32985 0.67917 0.86965 0.0
H1256 H 0.27695 0.657 0.95227 0.0
H1257 H 0.25544 0.6224 0.79113 0.0
H1258 H 0.27491 0.61087 0.82126 0.0
H1259 H 0.27839 0.63472 0.79823 0.0
C1260 C 0.32736 0.62967 0.86998 0.0
C1261 C 0.33589 0.64825 0.86845 0.0
C1262 C 0.3072 0.62763 0.87543 0.0
C1263 C 0.29522 0.64411 0.87916 0.0
C1264 C 0.3037 0.66261 0.87621 0.0
H1265 H 0.17692 0.67825 0.92233 0.0
H1266 H 0.21213 0.67519 0.91608 0.0
C1267 C 0.32377 0.66466 0.87077 0.0
C1268 C 0.27404 0.64234 0.88882 0.0
H1269 H 0.23073 0.62728 0.84476 0.0
C1270 C 0.26686 0.65043 0.92879 0.0
C1271 C 0.26087 0.63358 0.85849 0.0
C1272 C 0.26767 0.625 0.81468 0.0
C1273 C 0.24693 0.65028 0.93896 0.0
C1274 C 0.23365 0.64218 0.9079 0.0
C1275 C 0.24087 0.63352 0.86855 0.0
C1276 C 0.21221 0.64374 0.91424 0.0
C1277 C 0.2403 0.65879 0.98302 0.0
C1278 C 0.20036 0.62709 0.91495 0.0
C1279 C 0.18009 0.62883 0.91847 0.0
C1280 C 0.1713 0.64726 0.92081 0.0
C1281 C 0.18323 0.66384 0.92085 0.0
C1282 C 0.20341 0.6621 0.91745 0.0
H1283 H 0.25211 0.65854 1.0084 0.0
H1284 H 0.23602 0.67417 0.97781 0.0
H1285 H 0.2276 0.65078 0.99661 0.0
H1286 H 0.20679 0.61277 0.91231 0.0
H1287 H 0.1713 0.61578 0.91805 0.0
H1288 H 0.6171 0.83808 0.12001 0.0
H1289 H 0.61319 0.80271 0.1287 0.0
H1290 H 0.67499 0.79518 0.11417 0.0
H1291 H 0.67899 0.83027 0.10559 0.0
H1292 H 0.62622 0.76887 0.07368 0.0
H1293 H 0.66131 0.77282 0.24095 0.0
H1294 H 0.65166 0.79395 0.21277 0.0
H1295 H 0.67482 0.7842 0.19658 0.0
C1296 C 0.62978 0.82882 0.11769 0.0
C1297 C 0.64838 0.83698 0.11253 0.0
C1298 C 0.62754 0.80864 0.12286 0.0
C1299 C 0.64386 0.79636 0.12304 0.0
C1300 C 0.66224 0.8044 0.11497 0.0
H1301 H 0.67822 0.67851 0.16532 0.0
H1302 H 0.67462 0.71364 0.15677 0.0
C1303 C 0.66449 0.82447 0.10982 0.0
C1304 C 0.64207 0.77532 0.13399 0.0
H1305 H 0.65708 0.74127 0.20995 0.0
C1306 C 0.63273 0.76281 0.10371 0.0
C1307 C 0.65051 0.76747 0.17331 0.0
C1308 C 0.66 0.78029 0.20805 0.0
C1309 C 0.63245 0.74254 0.11063 0.0
C1310 C 0.64145 0.73463 0.14933 0.0
C1311 C 0.65022 0.74727 0.18027 0.0
C1312 C 0.6432 0.71326 0.15685 0.0
C1313 C 0.62332 0.7297 0.07546 0.0
C1314 C 0.62675 0.70131 0.16111 0.0
C1315 C 0.62879 0.68111 0.16609 0.0
C1316 C 0.64733 0.67253 0.16703 0.0
C1317 C 0.66374 0.68463 0.16455 0.0
C1318 C 0.66169 0.70474 0.15961 0.0
H1319 H 0.62079 0.73762 0.0435 0.0
H1320 H 0.63261 0.71686 0.0685 0.0
H1321 H 0.60909 0.72439 0.08788 0.0
H1322 H 0.61233 0.70756 0.16015 0.0
H1323 H 0.61586 0.67218 0.16805 0.0
H1324 H 0.83006 0.34331 0.83258 0.0
H1325 H 0.79531 0.34926 0.83422 0.0
H1326 H 0.80208 0.38459 0.9526 0.0
H1327 H 0.8375 0.37869 0.95104 0.0
H1328 H 0.77057 0.35574 0.95518 0.0
H1329 H 0.7676 0.4009 0.80174 0.0
H1330 H 0.7812 0.37887 0.79427 0.0
H1331 H 0.78976 0.39702 0.83295 0.0
C1332 C 0.82428 0.35241 0.85907 0.0
C1333 C 0.8366 0.36057 0.89167 0.0
C1334 C 0.80435 0.35588 0.85974 0.0
C1335 C 0.79608 0.36764 0.89298 0.0
C1336 C 0.80819 0.37561 0.92633 0.0
H1337 H 0.6708 0.39404 0.86467 0.0
H1338 H 0.70599 0.39835 0.87462 0.0
C1339 C 0.82838 0.37221 0.9255 0.0
C1340 C 0.77467 0.37081 0.89267 0.0
H1341 H 0.73773 0.38553 0.82388 0.0
C1342 C 0.76338 0.36258 0.92693 0.0
C1343 C 0.76523 0.3799 0.85603 0.0
C1344 C 0.77657 0.38986 0.81935 0.0
C1345 C 0.74297 0.36218 0.92414 0.0
C1346 C 0.7336 0.36997 0.88578 0.0
C1347 C 0.74485 0.37929 0.85295 0.0
C1348 C 0.71233 0.36757 0.87804 0.0
C1349 C 0.73163 0.35312 0.96202 0.0
C1350 C 0.70426 0.34888 0.87499 0.0
C1351 C 0.68426 0.3464 0.86904 0.0
C1352 C 0.67183 0.36255 0.86582 0.0
C1353 C 0.67999 0.3813 0.86705 0.0
C1354 C 0.70008 0.38378 0.87295 0.0
H1355 H 0.74 0.35335 0.99388 0.0
H1356 H 0.71762 0.36075 0.96735 0.0
H1357 H 0.7285 0.33771 0.9537 0.0
H1358 H 0.71343 0.33615 0.87755 0.0
H1359 H 0.67849 0.33176 0.86792 0.0
H1360 H 0.82902 0.67756 0.61894 0.0
H1361 H 0.83285 0.71257 0.6294 0.0
H1362 H 0.89508 0.70595 0.6287 0.0
H1363 H 0.89134 0.67072 0.61797 0.0
H1364 H 0.8518 0.72976 0.70389 0.0
H1365 H 0.88583 0.7523 0.54286 0.0
H1366 H 0.87323 0.72944 0.54915 0.0
H1367 H 0.89716 0.7324 0.57196 0.0
C1368 C 0.84355 0.68355 0.62028 0.0
C1369 C 0.85987 0.67133 0.61768 0.0
C1370 C 0.84571 0.7036 0.62642 0.0
C1371 C 0.86424 0.71196 0.62974 0.0
C1372 C 0.88063 0.6999 0.62566 0.0
H1373 H 0.89253 0.83596 0.67126 0.0
H1374 H 0.89573 0.80046 0.66474 0.0
C1375 C 0.87847 0.67976 0.61956 0.0
C1376 C 0.86613 0.73308 0.64019 0.0
H1377 H 0.88103 0.77671 0.59729 0.0
C1378 C 0.85827 0.74001 0.68063 0.0
C1379 C 0.87477 0.74645 0.61014 0.0
C1380 C 0.88314 0.7399 0.56591 0.0
C1381 C 0.85851 0.75989 0.69152 0.0
C1382 C 0.86645 0.77339 0.66072 0.0
C1383 C 0.87491 0.76641 0.6209 0.0
C1384 C 0.86484 0.79482 0.66772 0.0
C1385 C 0.85026 0.76624 0.73606 0.0
C1386 C 0.84647 0.8035 0.67179 0.0
C1387 C 0.84464 0.82368 0.67566 0.0
C1388 C 0.86111 0.83573 0.67521 0.0
C1389 C 0.87957 0.82706 0.67205 0.0
C1390 C 0.8814 0.80679 0.66806 0.0
H1391 H 0.85076 0.75428 0.76107 0.0
H1392 H 0.85826 0.77893 0.74976 0.0
H1393 H 0.83483 0.77043 0.73151 0.0
H1394 H 0.83345 0.7947 0.6707 0.0
H1395 H 0.83021 0.82988 0.67778 0.0
H1396 H 0.83478 0.11477 0.36508 0.0
H1397 H 0.79945 0.11086 0.37231 0.0
H1398 H 0.7927 0.17313 0.37656 0.0
H1399 H 0.82784 0.17712 0.36976 0.0
H1400 H 0.77234 0.15375 0.44507 0.0
H1401 H 0.75718 0.12117 0.2779 0.0
H1402 H 0.77536 0.10921 0.31117 0.0
H1403 H 0.77976 0.13331 0.29049 0.0
C1404 C 0.82572 0.12762 0.36695 0.0
C1405 C 0.83412 0.14626 0.36676 0.0
C1406 C 0.80552 0.12537 0.37109 0.0
C1407 C 0.79336 0.14171 0.37487 0.0
C1408 C 0.80175 0.1603 0.37388 0.0
H1409 H 0.67541 0.16719 0.33009 0.0
H1410 H 0.71026 0.16185 0.33266 0.0
C1411 C 0.82186 0.16256 0.36974 0.0
C1412 C 0.77193 0.1397 0.38056 0.0
H1413 H 0.73051 0.12596 0.3259 0.0
C1414 C 0.76319 0.14746 0.41927 0.0
C1415 C 0.75999 0.13153 0.34685 0.0
C1416 C 0.76844 0.12344 0.30406 0.0
C1417 C 0.74287 0.1478 0.42453 0.0
C1418 C 0.73092 0.14006 0.39033 0.0
C1419 C 0.73968 0.13174 0.3523 0.0
C1420 C 0.70944 0.14283 0.39031 0.0
C1421 C 0.73427 0.15732 0.46555 0.0
C1422 C 0.69719 0.1339 0.42207 0.0
C1423 C 0.67696 0.13695 0.4207 0.0
C1424 C 0.66878 0.149 0.38758 0.0
C1425 C 0.68117 0.15785 0.35614 0.0
C1426 C 0.70117 0.15477 0.35742 0.0
H1427 H 0.74543 0.16478 0.48622 0.0
H1428 H 0.72304 0.16808 0.45565 0.0
H1429 H 0.72712 0.14611 0.4866 0.0
H1430 H 0.70323 0.12446 0.44755 0.0
H1431 H 0.66776 0.12984 0.44516 0.0
H1432 H 0.11593 0.33614 0.61596 0.0
H1433 H 0.11242 0.30086 0.62679 0.0
H1434 H 0.17469 0.29468 0.6274 0.0
H1435 H 0.17829 0.32972 0.61687 0.0
H1436 H 0.12693 0.26784 0.577 0.0
H1437 H 0.15765 0.27114 0.74867 0.0
H1438 H 0.14931 0.29248 0.71914 0.0
H1439 H 0.17275 0.28228 0.70683 0.0
C1440 C 0.12885 0.3272 0.61783 0.0
C1441 C 0.1474 0.33574 0.61598 0.0
C1442 C 0.12683 0.30706 0.62415 0.0
C1443 C 0.1433 0.29517 0.62893 0.0
C1444 C 0.16178 0.30359 0.62483 0.0
H1445 H 0.1767 0.17696 0.67124 0.0
H1446 H 0.17334 0.21216 0.66386 0.0
C1447 C 0.16381 0.32363 0.61851 0.0
C1448 C 0.14141 0.27406 0.63927 0.0
H1449 H 0.15466 0.23965 0.71614 0.0
C1450 C 0.13276 0.26166 0.60764 0.0
C1451 C 0.14894 0.26603 0.67939 0.0
C1452 C 0.15752 0.27867 0.7157 0.0
C1453 C 0.1323 0.24137 0.61407 0.0
C1454 C 0.14041 0.23328 0.6536 0.0
C1455 C 0.14849 0.24579 0.68582 0.0
C1456 C 0.14196 0.21187 0.66077 0.0
C1457 C 0.12395 0.22869 0.57757 0.0
C1458 C 0.12541 0.19993 0.66291 0.0
C1459 C 0.12731 0.17968 0.66726 0.0
C1460 C 0.1458 0.17105 0.66962 0.0
C1461 C 0.16226 0.18313 0.66933 0.0
C1462 C 0.16035 0.20328 0.66506 0.0
H1463 H 0.12208 0.23675 0.54557 0.0
H1464 H 0.13341 0.2159 0.57134 0.0
H1465 H 0.10949 0.22329 0.58824 0.0
H1466 H 0.11104 0.20623 0.66069 0.0
H1467 H 0.11435 0.17077 0.66749 0.0
H1468 H 0.33676 0.89243 0.41642 0.0
H1469 H 0.30144 0.89648 0.40926 0.0
H1470 H 0.29458 0.83426 0.40249 0.0
H1471 H 0.32971 0.83015 0.40921 0.0
H1472 H 0.27419 0.85406 0.33493 0.0
H1473 H 0.25912 0.88568 0.50311 0.0
H1474 H 0.27729 0.89786 0.47023 0.0
H1475 H 0.2817 0.87362 0.49006 0.0
C1476 C 0.32767 0.87963 0.41399 0.0
C1477 C 0.33605 0.86096 0.41347 0.0
C1478 C 0.30748 0.88195 0.4099 0.0
C1479 C 0.29528 0.86567 0.40546 0.0
C1480 C 0.30365 0.84705 0.40569 0.0
H1481 H 0.17683 0.84111 0.44941 0.0
H1482 H 0.21176 0.846 0.44723 0.0
C1483 C 0.32375 0.84472 0.40978 0.0
C1484 C 0.27384 0.86776 0.39985 0.0
H1485 H 0.23245 0.8814 0.45483 0.0
C1486 C 0.26507 0.86025 0.36092 0.0
C1487 C 0.26191 0.87578 0.43379 0.0
C1488 C 0.27038 0.88358 0.47685 0.0
C1489 C 0.24474 0.86003 0.35561 0.0
C1490 C 0.23281 0.86766 0.38998 0.0
C1491 C 0.24161 0.8757 0.42829 0.0
C1492 C 0.21129 0.86513 0.38974 0.0
C1493 C 0.23612 0.85078 0.31429 0.0
C1494 C 0.1992 0.87426 0.35793 0.0
C1495 C 0.17893 0.87146 0.35907 0.0
C1496 C 0.17053 0.85947 0.39199 0.0
C1497 C 0.18276 0.85041 0.42349 0.0
C1498 C 0.2028 0.85324 0.42244 0.0
H1499 H 0.24724 0.84322 0.29367 0.0
H1500 H 0.22472 0.84015 0.3238 0.0
H1501 H 0.22921 0.86216 0.29332 0.0
H1502 H 0.2054 0.88367 0.33261 0.0
H1503 H 0.16987 0.87873 0.33457 0.0
H1504 H 0.21213 0.10405 0.71342 0.0
H1505 H 0.23877 0.10244 0.76844 0.0
H1506 H 0.19745 0.10786 0.87624 0.0
H1507 H 0.17103 0.10924 0.82216 0.0
H1508 H 0.24944 0.13031 0.83405 0.0
H1509 H 0.22932 0.06098 0.91632 0.0
H1510 H 0.21947 0.06827 0.86277 0.0
H1511 H 0.20987 0.07831 0.91386 0.0
C1512 C 0.20871 0.10471 0.74884 0.0
C1513 C 0.18932 0.1068 0.76307 0.0
C1514 C 0.22398 0.10384 0.78034 0.0
C1515 C 0.22019 0.10474 0.82677 0.0
C1516 C 0.20085 0.10674 0.84086 0.0
H1517 H 0.29068 0.10655 0.07392 0.0
H1518 H 0.26395 0.10582 0.01904 0.0
C1519 C 0.18569 0.10771 0.8096 0.0
C1520 C 0.23634 0.10439 0.86064 0.0
H1521 H 0.25327 0.08011 0.95316 0.0
C1522 C 0.25035 0.11923 0.85983 0.0
C1523 C 0.2375 0.09011 0.89485 0.0
C1524 C 0.22335 0.0734 0.89693 0.0
C1525 C 0.26516 0.12038 0.89247 0.0
C1526 C 0.26643 0.10601 0.92655 0.0
C1527 C 0.25239 0.09118 0.92737 0.0
C1528 C 0.28258 0.10582 0.96053 0.0
C1529 C 0.27896 0.1374 0.89073 0.0
C1530 C 0.30201 0.10549 0.94639 0.0
C1531 C 0.31723 0.10601 0.97753 0.0
C1532 C 0.31359 0.10659 0.02411 0.0
C1533 C 0.29411 0.10617 0.03848 0.0
C1534 C 0.27879 0.10578 1.00703 0.0
H1535 H 0.27248 0.14996 0.8727 0.0
H1536 H 0.28319 0.1422 0.92492 0.0
H1537 H 0.29228 0.13304 0.87236 0.0
H1538 H 0.30549 0.10488 0.91099 0.0
H1539 H 0.33195 0.10602 0.96479 0.0
H1540 H 0.10613 0.71323 0.96569 0.0
H1541 H 0.10515 0.7396 0.02159 0.0
H1542 H 0.1053 0.69723 0.12805 0.0
H1543 H 0.10655 0.67114 0.07306 0.0
H1544 H 0.07956 0.74937 0.08843 0.0
H1545 H 0.15004 0.73074 0.16653 0.0
H1546 H 0.14224 0.72031 0.11402 0.0
H1547 H 0.13342 0.71069 0.16636 0.0
C1548 C 0.10592 0.70956 1.001 0.0
C1549 C 0.10675 0.68998 1.01464 0.0
C1550 C 0.1054 0.72466 0.03304 0.0
C1551 C 0.1057 0.72054 0.07938 0.0
C1552 C 0.10574 0.70097 0.09279 0.0
H1553 H 0.10466 0.79093 0.32746 0.0
H1554 H 0.10301 0.76409 0.27284 0.0
C1555 C 0.10637 0.68598 0.06102 0.0
C1556 C 0.10579 0.73648 0.11391 0.0
H1557 H 0.13041 0.75353 0.20591 0.0
C1558 C 0.09076 0.75031 0.1139 0.0
C1559 C 0.12033 0.73782 0.14758 0.0
C1560 C 0.13752 0.72422 0.14847 0.0
C1561 C 0.08968 0.76508 0.14672 0.0
C1562 C 0.10417 0.76636 0.18043 0.0
C1563 C 0.11917 0.75252 0.18053 0.0
C1564 C 0.10462 0.78256 0.21418 0.0
C1565 C 0.07278 0.77902 0.14543 0.0
C1566 C 0.10629 0.8019 0.19977 0.0
C1567 C 0.1073 0.81717 0.23076 0.0
C1568 C 0.10672 0.81367 0.27742 0.0
C1569 C 0.10503 0.79427 0.29198 0.0
C1570 C 0.10413 0.77889 0.2607 0.0
H1571 H 0.06028 0.77286 0.12665 0.0
H1572 H 0.0679 0.78285 0.17982 0.0
H1573 H 0.07733 0.79257 0.12823 0.0
H1574 H 0.10713 0.80522 0.16431 0.0
H1575 H 0.10866 0.8318 0.2178 0.0
H1576 H 0.71564 0.9029 0.0797 0.0
H1577 H 0.74259 0.90442 0.02549 0.0
H1578 H 0.70164 0.90256 0.91633 0.0
H1579 H 0.67494 0.9012 0.9695 0.0
H1580 H 0.75255 0.87732 0.9581 0.0
H1581 H 0.73556 0.94841 0.88033 0.0
H1582 H 0.72508 0.94079 0.93297 0.0
H1583 H 0.71538 0.93192 0.88081 0.0
C1584 C 0.71236 0.90306 0.04418 0.0
C1585 C 0.69297 0.90201 0.02934 0.0
C1586 C 0.72781 0.90386 1.01312 0.0
C1587 C 0.72424 0.90391 0.96654 0.0
C1588 C 0.70491 0.90298 0.95185 0.0
H1589 H 0.79442 0.90183 0.71929 0.0
H1590 H 0.76791 0.90311 0.77469 0.0
C1591 C 0.68956 0.90207 0.98264 0.0
C1592 C 0.74055 0.90405 0.93302 0.0
H1593 H 0.75857 0.92861 0.84198 0.0
C1594 C 0.75396 0.88865 0.93302 0.0
C1595 C 0.74237 0.91866 0.89969 0.0
C1596 C 0.72895 0.93598 0.89855 0.0
C1597 C 0.76874 0.88723 0.90036 0.0
C1598 C 0.77062 0.90188 0.86706 0.0
C1599 C 0.75722 0.91731 0.86714 0.0
C1600 C 0.78669 0.90168 0.83285 0.0
C1601 C 0.78183 0.86964 0.90113 0.0
C1602 C 0.80618 0.901 0.84662 0.0
C1603 C 0.82126 0.90019 0.81514 0.0
C1604 C 0.81745 0.90027 0.76864 0.0
C1605 C 0.79796 0.90167 0.75468 0.0
C1606 C 0.78277 0.90238 0.78643 0.0
H1607 H 0.77489 0.85721 0.91868 0.0
H1608 H 0.78577 0.86497 0.86666 0.0
H1609 H 0.79537 0.87328 0.91947 0.0
H1610 H 0.8098 0.90111 0.88197 0.0
H1611 H 0.83602 0.89953 0.82749 0.0
H1612 H 0.90513 0.33162 0.06412 0.0
H1613 H 0.906 0.30517 0.11818 0.0
H1614 H 0.8969 0.26381 1.01158 0.0
H1615 H 0.89628 0.29048 0.95665 0.0
H1616 H 0.87871 0.28006 0.14195 0.0
H1617 H 0.94127 0.23824 0.0761 0.0
H1618 H 0.93556 0.2624 0.05664 0.0
H1619 H 0.92234 0.24177 0.03556 0.0
C1620 C 0.90336 0.31692 0.05182 0.0
C1621 C 0.90055 0.31332 1.00568 0.0
C1622 C 0.9039 0.30171 0.08305 0.0
C1623 C 0.90171 0.2823 0.06939 0.0
C1624 C 0.89907 0.27855 0.02323 0.0
H1625 H 0.89207 0.17233 0.21163 0.0
H1626 H 0.89363 0.19879 0.15765 0.0
C1627 C 0.89864 0.29386 0.99171 0.0
C1628 C 0.9015 0.26634 0.10396 0.0
H1629 H 0.92306 0.22342 0.13446 0.0
C1630 C 0.88851 0.26774 0.14032 0.0
C1631 C 0.91425 0.25016 0.10232 0.0
C1632 C 0.92928 0.24808 0.06583 0.0
C1633 C 0.88765 0.25342 0.17419 0.0
C1634 C 0.90034 0.23722 0.17245 0.0
C1635 C 0.91334 0.2358 0.13614 0.0
C1636 C 0.89974 0.22114 0.20662 0.0
C1637 C 0.87272 0.25552 0.21091 0.0
C1638 C 0.90292 0.22459 0.2527 0.0
C1639 C 0.90197 0.20929 0.28417 0.0
C1640 C 0.89785 0.19016 0.27029 0.0
C1641 C 0.89506 0.1868 0.22403 0.0
C1642 C 0.89604 0.202 0.1928 0.0
H1643 H 0.86109 0.26596 0.2016 0.0
H1644 H 0.86594 0.2413 0.21888 0.0
H1645 H 0.87991 0.26102 0.2417 0.0
H1646 H 0.90621 0.23912 0.26438 0.0
H1647 H 0.90432 0.21249 0.31931 0.0
H1648 H 0.33331 0.39317 0.31846 0.0
H1649 H 0.30651 0.39477 0.37163 0.0
H1650 H 0.26688 0.40739 0.26367 0.0
H1651 H 0.29387 0.40584 0.20964 0.0
H1652 H 0.28054 0.42552 0.3915 0.0
H1653 H 0.24134 0.3606 0.32781 0.0
H1654 H 0.26623 0.36574 0.31301 0.0
H1655 H 0.24682 0.37891 0.2867 0.0
C1656 C 0.31894 0.39632 0.30566 0.0
C1657 C 0.31587 0.3993 0.25934 0.0
C1658 C 0.30356 0.39726 0.33639 0.0
C1659 C 0.28454 0.40098 0.32193 0.0
C1660 C 0.28135 0.4042 0.27579 0.0
H1661 H 0.17306 0.40164 0.46101 0.0
H1662 H 0.19961 0.40316 0.40723 0.0
C1663 C 0.29684 0.40341 0.24486 0.0
C1664 C 0.26824 0.40141 0.35542 0.0
H1665 H 0.2265 0.37803 0.38658 0.0
C1666 C 0.2687 0.41515 0.39038 0.0
C1667 C 0.25276 0.38788 0.35429 0.0
C1668 C 0.25172 0.37232 0.31873 0.0
C1669 C 0.25404 0.41596 0.42349 0.0
C1670 C 0.23862 0.40228 0.4227 0.0
C1671 C 0.23821 0.38855 0.38762 0.0
C1672 C 0.2225 0.40216 0.45688 0.0
C1673 C 0.25499 0.43189 0.45822 0.0
C1674 C 0.22619 0.40112 0.5034 0.0
C1675 C 0.21083 0.40043 0.53467 0.0
C1676 C 0.19138 0.40037 0.52017 0.0
C1677 C 0.18778 0.40145 0.47367 0.0
C1678 C 0.20305 0.40234 0.44264 0.0
H1679 H 0.26392 0.44433 0.44647 0.0
H1680 H 0.24028 0.43733 0.4668 0.0
H1681 H 0.26182 0.4261 0.48916 0.0
H1682 H 0.24097 0.40043 0.51562 0.0
H1683 H 0.2142 0.39941 0.57008 0.0
H1684 H 0.40139 0.715 0.82102 0.0
H1685 H 0.40212 0.74165 0.76591 0.0
H1686 H 0.40033 0.69988 0.65823 0.0
H1687 H 0.39902 0.6735 0.71247 0.0
H1688 H 0.42665 0.75209 0.69969 0.0
H1689 H 0.35626 0.73384 0.62113 0.0
H1690 H 0.36425 0.72275 0.67272 0.0
H1691 H 0.37283 0.71377 0.61951 0.0
C1692 C 0.40114 0.71152 0.78561 0.0
C1693 C 0.39989 0.69202 0.77147 0.0
C1694 C 0.40154 0.72679 0.75401 0.0
C1695 C 0.40073 0.72295 0.70755 0.0
C1696 C 0.40027 0.70345 0.6936 0.0
H1697 H 0.40367 0.79414 0.4612 0.0
H1698 H 0.4052 0.76732 0.51587 0.0
C1699 C 0.39967 0.68828 0.72495 0.0
C1700 C 0.40057 0.73912 0.67351 0.0
H1701 H 0.37605 0.75656 0.58173 0.0
C1702 C 0.41549 0.75309 0.67414 0.0
C1703 C 0.38606 0.74062 0.6398 0.0
C1704 C 0.36884 0.72707 0.63845 0.0
C1705 C 0.41649 0.7681 0.64187 0.0
C1706 C 0.40212 0.76941 0.60793 0.0
C1707 C 0.38721 0.75549 0.60726 0.0
C1708 C 0.40176 0.78566 0.57432 0.0
C1709 C 0.43315 0.78229 0.64392 0.0
C1710 C 0.39914 0.80492 0.58861 0.0
C1711 C 0.39812 0.82018 0.55754 0.0
C1712 C 0.39974 0.81673 0.51101 0.0
C1713 C 0.40247 0.79742 0.49662 0.0
C1714 C 0.40331 0.78205 0.52791 0.0
H1715 H 0.44545 0.77653 0.66403 0.0
H1716 H 0.43847 0.78587 0.60974 0.0
H1717 H 0.42811 0.79596 0.65992 0.0
H1718 H 0.39756 0.80817 0.62398 0.0
H1719 H 0.39598 0.83477 0.57024 0.0
H1720 H 0.71346 0.60485 0.21255 0.0
H1721 H 0.74033 0.60305 0.26694 0.0
H1722 H 0.69961 0.60944 0.37564 0.0
H1723 H 0.67295 0.61104 0.32216 0.0
H1724 H 0.75168 0.63104 0.33212 0.0
H1725 H 0.73104 0.56208 0.4154 0.0
H1726 H 0.72113 0.56938 0.36191 0.0
H1727 H 0.7118 0.57966 0.41302 0.0
C1728 C 0.71022 0.60569 0.24804 0.0
C1729 C 0.69093 0.60812 0.26269 0.0
C1730 C 0.72562 0.60471 0.27918 0.0
C1731 C 0.72207 0.60583 0.32569 0.0
C1732 C 0.70283 0.60816 0.34021 0.0
H1733 H 0.79285 0.60695 0.57195 0.0
H1734 H 0.7662 0.60629 0.51688 0.0
C1735 C 0.68753 0.60925 0.30929 0.0
C1736 C 0.73838 0.60532 0.35916 0.0
H1737 H 0.75539 0.58095 0.45149 0.0
C1738 C 0.75257 0.61998 0.35795 0.0
C1739 C 0.73952 0.59106 0.39343 0.0
C1740 C 0.72517 0.57454 0.39595 0.0
C1741 C 0.76751 0.62102 0.39029 0.0
C1742 C 0.76876 0.60668 0.42447 0.0
C1743 C 0.75455 0.592 0.42562 0.0
C1744 C 0.78491 0.60645 0.45849 0.0
C1745 C 0.78146 0.63791 0.38821 0.0
C1746 C 0.80439 0.60619 0.44452 0.0
C1747 C 0.81955 0.60669 0.47584 0.0
C1748 C 0.81582 0.60718 0.52234 0.0
C1749 C 0.79632 0.60665 0.53654 0.0
C1750 C 0.78106 0.6063 0.50497 0.0
H1751 H 0.77505 0.65049 0.37014 0.0
H1752 H 0.78581 0.64273 0.4223 0.0
H1753 H 0.7947 0.6334 0.36972 0.0
H1754 H 0.80793 0.60562 0.40917 0.0
H1755 H 0.83431 0.60666 0.46339 0.0
H1756 H 0.61024 0.21841 0.45441 0.0
H1757 H 0.6099 0.24472 0.51054 0.0
H1758 H 0.59762 0.20294 0.61444 0.0
H1759 H 0.59817 0.17688 0.55931 0.0
H1760 H 0.58252 0.25834 0.56987 0.0
H1761 H 0.64446 0.22916 0.66718 0.0
H1762 H 0.63814 0.22002 0.61239 0.0
H1763 H 0.62509 0.21194 0.66127 0.0
C1764 C 0.60739 0.21487 0.48918 0.0
C1765 C 0.60458 0.1954 0.5022 0.0
C1766 C 0.60724 0.22993 0.52137 0.0
C1767 C 0.6043 0.22586 0.56726 0.0
C1768 C 0.60062 0.20654 0.57976 0.0
H1769 H 0.60093 0.29565 0.81619 0.0
H1770 H 0.59866 0.26928 0.76048 0.0
C1771 C 0.60087 0.19158 0.54789 0.0
C1772 C 0.60491 0.24163 0.6022 0.0
H1773 H 0.62662 0.25483 0.70122 0.0
C1774 C 0.59227 0.2576 0.59839 0.0
C1775 C 0.61751 0.24077 0.63988 0.0
C1776 C 0.6322 0.22465 0.64531 0.0
C1777 C 0.59164 0.27239 0.63124 0.0
C1778 C 0.60423 0.27151 0.66888 0.0
C1779 C 0.61683 0.25553 0.67276 0.0
C1780 C 0.60525 0.28749 0.70324 0.0
C1781 C 0.57714 0.28865 0.62569 0.0
C1782 C 0.60996 0.3065 0.69012 0.0
C1783 C 0.61126 0.3215 0.72176 0.0
C1784 C 0.60805 0.31804 0.76783 0.0
C1785 C 0.60344 0.29895 0.78116 0.0
C1786 C 0.60217 0.28383 0.74925 0.0
H1787 H 0.56484 0.28426 0.6038 0.0
H1788 H 0.57125 0.29339 0.6586 0.0
H1789 H 0.58441 0.30126 0.60973 0.0
H1790 H 0.61289 0.30976 0.65523 0.0
H1791 H 0.61486 0.3359 0.7098 0.0
H1792 H 0.32308 0.1213 0.43121 0.0
H1793 H 0.32839 0.12548 0.512 0.0
H1794 H 0.37942 0.08938 0.50422 0.0
H1795 H 0.37442 0.08538 0.42348 0.0
H1796 H 0.33071 0.09587 0.57949 0.0
H1797 H 0.39871 0.1389 0.56883 0.0
H1798 H 0.38253 0.13583 0.52168 0.0
H1799 H 0.39891 0.11665 0.53724 0.0
C1800 C 0.33555 0.11441 0.4466 0.0
C1801 C 0.34834 0.10303 0.42076 0.0
C1802 C 0.3385 0.11673 0.49283 0.0
C1803 C 0.35443 0.10793 0.51411 0.0
C1804 C 0.36718 0.09653 0.48847 0.0
H1805 H 0.40023 0.10189 0.78482 0.0
H1806 H 0.39364 0.0988 0.70455 0.0
C1807 C 0.36419 0.09411 0.44234 0.0
C1808 C 0.35751 0.1103 0.56325 0.0
H1809 H 0.38967 0.12754 0.641 0.0
C1810 C 0.34353 0.1029 0.59299 0.0
C1811 C 0.37427 0.11944 0.58083 0.0
C1812 C 0.38941 0.12833 0.55058 0.0
C1813 C 0.34609 0.10395 0.63978 0.0
C1814 C 0.36291 0.11302 0.6574 0.0
C1815 C 0.3768 0.12056 0.62759 0.0
C1816 C 0.36653 0.11465 0.70658 0.0
C1817 C 0.33104 0.09481 0.66988 0.0
C1818 C 0.35357 0.12472 0.7346 0.0
C1819 C 0.35723 0.1264 0.7807 0.0
C1820 C 0.374 0.11812 0.79983 0.0
C1821 C 0.38701 0.10816 0.77153 0.0
C1822 C 0.38334 0.10651 0.72548 0.0
H1823 H 0.32196 0.0841 0.65151 0.0
H1824 H 0.33796 0.08738 0.69883 0.0
H1825 H 0.3213 0.10631 0.68308 0.0
H1826 H 0.34068 0.13146 0.72076 0.0
H1827 H 0.34682 0.13405 0.80141 0.0
H1828 H 0.13632 0.66896 0.60439 0.0
H1829 H 0.1374 0.66357 0.52328 0.0
H1830 H 0.08545 0.62885 0.53159 0.0
H1831 H 0.08394 0.6346 0.61253 0.0
H1832 H 0.13985 0.62877 0.47503 0.0
H1833 H 0.07191 0.66824 0.4335 0.0
H1834 H 0.08382 0.67057 0.48718 0.0
H1835 H 0.06912 0.64962 0.47521 0.0
C1836 C 0.12499 0.66034 0.58897 0.0
C1837 C 0.10995 0.65235 0.61514 0.0
C1838 C 0.12571 0.65717 0.54256 0.0
C1839 C 0.11134 0.64607 0.52112 0.0
C1840 C 0.0965 0.63777 0.54718 0.0
H1841 H 0.08991 0.61075 0.24504 0.0
H1842 H 0.08883 0.61628 0.32607 0.0
C1843 C 0.09579 0.64089 0.59362 0.0
C1844 C 0.11206 0.64298 0.47164 0.0
H1845 H 0.08677 0.65057 0.37445 0.0
C1846 C 0.12828 0.63361 0.45301 0.0
C1847 C 0.09695 0.64928 0.44285 0.0
C1848 C 0.07953 0.66015 0.46052 0.0
C1849 C 0.12966 0.63004 0.40662 0.0
C1850 C 0.11456 0.63635 0.37782 0.0
C1851 C 0.09834 0.64573 0.39646 0.0
C1852 C 0.11526 0.63323 0.32832 0.0
C1853 C 0.14705 0.61909 0.38905 0.0
C1854 C 0.13029 0.64118 0.3023 0.0
C1855 C 0.13103 0.63793 0.25591 0.0
C1856 C 0.11668 0.62673 0.23435 0.0
C1857 C 0.10141 0.61915 0.26047 0.0
C1858 C 0.10069 0.62241 0.30684 0.0
H1859 H 0.15451 0.61085 0.41606 0.0
H1860 H 0.14278 0.60878 0.36214 0.0
H1861 H 0.1576 0.62959 0.37478 0.0
H1862 H 0.14149 0.64992 0.31788 0.0
H1863 H 0.14307 0.64392 0.23708 0.0
H1864 H 0.68326 0.89877 0.44903 0.0
H1865 H 0.67638 0.89832 0.52946 0.0
H1866 H 0.61532 0.90518 0.50214 0.0
H1867 H 0.62206 0.9059 0.42155 0.0
H1868 H 0.65811 0.92643 0.58384 0.0
H1869 H 0.61706 0.85696 0.58332 0.0
H1870 H 0.63197 0.86458 0.53673 0.0
H1871 H 0.60826 0.87493 0.54464 0.0
C1872 C 0.66837 0.9004 0.46002 0.0
C1873 C 0.65322 0.90233 0.42859 0.0
C1874 C 0.66446 0.90002 0.50609 0.0
C1875 C 0.64531 0.90142 0.52186 0.0
C1876 C 0.63017 0.90365 0.49074 0.0
H1877 H 0.59362 0.89761 0.78862 0.0
H1878 H 0.59973 0.90041 0.70801 0.0
C1879 C 0.63406 0.90405 0.44463 0.0
C1880 C 0.64127 0.90069 0.57087 0.0
H1881 H 0.61777 0.87445 0.65165 0.0
C1882 C 0.64932 0.91504 0.59872 0.0
C1883 C 0.62979 0.88584 0.59024 0.0
C1884 C 0.62139 0.86959 0.56235 0.0
C1885 C 0.64597 0.91513 0.64527 0.0
C1886 C 0.63457 0.90021 0.6647 0.0
C1887 C 0.62647 0.8859 0.63679 0.0
C1888 C 0.631 0.89905 0.71391 0.0
C1889 C 0.65435 0.93143 0.67305 0.0
C1890 C 0.64653 0.8972 0.74416 0.0
C1891 C 0.64308 0.89557 0.79031 0.0
C1892 C 0.624 0.89557 0.80724 0.0
C1893 C 0.60848 0.89738 0.77679 0.0
C1894 C 0.61195 0.89905 0.73067 0.0
H1895 H 0.65785 0.94433 0.65214 0.0
H1896 H 0.64414 0.93592 0.69994 0.0
H1897 H 0.668 0.9264 0.68905 0.0
H1898 H 0.66133 0.89665 0.73203 0.0
H1899 H 0.65536 0.89383 0.81261 0.0
H1900 H 0.87019 0.39846 0.25113 0.0
H1901 H 0.87327 0.39136 0.33121 0.0
H1902 H 0.90775 0.34079 0.30058 0.0
H1903 H 0.90515 0.34803 0.22034 0.0
H1904 H 0.8621 0.35735 0.37875 0.0
H1905 H 0.94145 0.37082 0.39158 0.0
H1906 H 0.9272 0.37893 0.34432 0.0
H1907 H 0.93425 0.35387 0.34885 0.0
C1908 C 0.8786 0.38592 0.26136 0.0
C1909 C 0.88754 0.37391 0.22916 0.0
C1910 C 0.88023 0.38181 0.3072 0.0
C1911 C 0.89096 0.3657 0.32198 0.0
C1912 C 0.89966 0.35348 0.29001 0.0
H1913 H 0.92136 0.32381 0.58945 0.0
H1914 H 0.91738 0.32799 0.50855 0.0
C1915 C 0.89798 0.35754 0.2441 0.0
C1916 C 0.89285 0.36165 0.37085 0.0
H1917 H 0.92576 0.3589 0.45643 0.0
C1918 C 0.87601 0.3577 0.39578 0.0
C1919 C 0.91102 0.36203 0.39301 0.0
C1920 C 0.92952 0.36679 0.36828 0.0
C1921 C 0.87686 0.35393 0.44212 0.0
C1922 C 0.895 0.35459 0.46448 0.0
C1923 C 0.91186 0.35839 0.43941 0.0
C1924 C 0.89682 0.35166 0.51389 0.0
C1925 C 0.85832 0.34887 0.46643 0.0
C1926 C 0.8867 0.36363 0.54408 0.0
C1927 C 0.88873 0.36109 0.59045 0.0
C1928 C 0.90115 0.34668 0.60789 0.0
C1929 C 0.91139 0.33482 0.57748 0.0
C1930 C 0.90927 0.3373 0.53109 0.0
H1931 H 0.84714 0.34314 0.44303 0.0
H1932 H 0.86093 0.33789 0.49305 0.0
H1933 H 0.85235 0.36217 0.48233 0.0
H1934 H 0.87736 0.37511 0.53181 0.0
H1935 H 0.88045 0.37041 0.61261 0.0
H1936 H 0.3817 0.35794 0.4938 0.0
H1937 H 0.37613 0.36045 0.57462 0.0
H1938 H 0.36929 0.42249 0.56212 0.0
H1939 H 0.37493 0.42013 0.48126 0.0
H1940 H 0.39714 0.38071 0.63815 0.0
H1941 H 0.32123 0.40755 0.63354 0.0
H1942 H 0.33309 0.39733 0.58498 0.0
H1943 H 0.3379 0.422 0.60148 0.0
C1944 C 0.37906 0.37215 0.50817 0.0
C1945 C 0.37875 0.38883 0.4808 0.0
C1946 C 0.37579 0.37354 0.55445 0.0
C1947 C 0.37202 0.39162 0.57452 0.0
C1948 C 0.37171 0.40831 0.54737 0.0
H1949 H 0.35245 0.43061 0.84882 0.0
H1950 H 0.35783 0.42804 0.76793 0.0
C1951 C 0.37494 0.40693 0.50104 0.0
C1952 C 0.36907 0.39304 0.624 0.0
H1953 H 0.33689 0.40777 0.70447 0.0
C1954 C 0.38392 0.38654 0.65265 0.0
C1955 C 0.35185 0.40068 0.64301 0.0
C1956 C 0.33502 0.40713 0.61423 0.0
C1957 C 0.38218 0.3878 0.6996 0.0
C1958 C 0.36495 0.39545 0.71863 0.0
C1959 C 0.3501 0.40194 0.68998 0.0
C1960 C 0.36203 0.39688 0.76811 0.0
C1961 C 0.39902 0.38138 0.72837 0.0
C1962 C 0.36245 0.38021 0.79533 0.0
C1963 C 0.35934 0.38163 0.8417 0.0
C1964 C 0.35555 0.39974 0.86191 0.0
C1965 C 0.3551 0.4164 0.83446 0.0
C1966 C 0.35825 0.41497 0.78815 0.0
H1967 H 0.41281 0.38098 0.70905 0.0
H1968 H 0.40094 0.39118 0.75763 0.0
H1969 H 0.39617 0.3665 0.7411 0.0
H1970 H 0.36487 0.36603 0.78062 0.0
H1971 H 0.35946 0.36845 0.86156 0.0
H1972 H 0.37519 0.63304 0.16682 0.0
H1973 H 0.37275 0.62815 0.24794 0.0
H1974 H 0.41853 0.66987 0.269 0.0
H1975 H 0.42055 0.67544 0.18824 0.0
H1976 H 0.4006 0.61518 0.30762 0.0
H1977 H 0.37677 0.68956 0.35381 0.0
H1978 H 0.37643 0.68084 0.2967 0.0
H1979 H 0.39878 0.68894 0.32165 0.0
C1980 C 0.38455 0.6414 0.18869 0.0
C1981 C 0.398 0.65472 0.17078 0.0
C1982 C 0.38323 0.63847 0.23509 0.0
C1983 C 0.39523 0.64886 0.26469 0.0
C1984 C 0.40883 0.66197 0.24697 0.0
H1985 H 0.41079 0.65075 0.55466 0.0
H1986 H 0.41306 0.65585 0.4736 0.0
C1987 C 0.41014 0.66495 0.20062 0.0
C1988 C 0.39387 0.64561 0.31398 0.0
H1989 H 0.38544 0.66859 0.41381 0.0
C1990 C 0.39718 0.62684 0.33083 0.0
C1991 C 0.38948 0.66083 0.34432 0.0
C1992 C 0.38498 0.68114 0.32827 0.0
C1993 C 0.39658 0.62294 0.37712 0.0
C1994 C 0.39217 0.63816 0.40746 0.0
C1995 C 0.38886 0.65694 0.39061 0.0
C1996 C 0.39081 0.6349 0.45676 0.0
C1997 C 0.40116 0.60265 0.39313 0.0
C1998 C 0.37738 0.6216 0.47444 0.0
C1999 C 0.37619 0.61849 0.52076 0.0
C2000 C 0.38827 0.62876 0.55063 0.0
C2001 C 0.40149 0.64233 0.53278 0.0
C2002 C 0.40271 0.64538 0.4864 0.0
H2003 H 0.40948 0.5943 0.36765 0.0
H2004 H 0.40964 0.60296 0.4248 0.0
H2005 H 0.38739 0.59476 0.39952 0.0
H2006 H 0.36774 0.61364 0.4524 0.0
H2007 H 0.36596 0.6078 0.53306 0.0
H2008 H 0.63548 0.58481 0.86097 0.0
H2009 H 0.63016 0.58639 0.77985 0.0
H2010 H 0.6634 0.6394 0.77351 0.0
H2011 H 0.66879 0.63793 0.85452 0.0
H2012 H 0.61254 0.61435 0.72774 0.0
H2013 H 0.68975 0.60647 0.67823 0.0
H2014 H 0.68136 0.60167 0.7345 0.0
H2015 H 0.68538 0.62625 0.71616 0.0
C2016 C 0.64157 0.59688 0.8424 0.0
C2017 C 0.65269 0.61117 0.86437 0.0
C2018 C 0.63858 0.59772 0.79594 0.0
C2019 C 0.64669 0.6128 0.77032 0.0
C2020 C 0.65744 0.62732 0.79226 0.0
H2021 H 0.64329 0.64472 0.48756 0.0
H2022 H 0.64888 0.64302 0.56856 0.0
C2023 C 0.66048 0.62647 0.83868 0.0
C2024 C 0.64363 0.61352 0.72083 0.0
H2025 H 0.6675 0.61448 0.62022 0.0
C2026 C 0.62456 0.61427 0.70424 0.0
C2027 C 0.65931 0.61344 0.69006 0.0
C2028 C 0.6801 0.61173 0.70552 0.0
C2029 C 0.62075 0.61532 0.65792 0.0
C2030 C 0.63642 0.61529 0.62719 0.0
C2031 C 0.65549 0.61454 0.64375 0.0
C2032 C 0.63333 0.61601 0.57775 0.0
C2033 C 0.59996 0.61689 0.64235 0.0
C2034 C 0.62306 0.60119 0.5557 0.0
C2035 C 0.61991 0.60206 0.50932 0.0
C2036 C 0.62707 0.61773 0.48379 0.0
C2037 C 0.63771 0.63235 0.50592 0.0
C2038 C 0.64084 0.63146 0.55233 0.0
H2039 H 0.59018 0.62179 0.66976 0.0
H2040 H 0.59865 0.62719 0.61383 0.0
H2041 H 0.5949 0.60241 0.63089 0.0
H2042 H 0.61753 0.58888 0.57435 0.0
H2043 H 0.61201 0.59033 0.4934 0.0
H2044 H 0.62594 0.41117 0.52829 0.0
H2045 H 0.62408 0.40495 0.44765 0.0
H2046 H 0.60936 0.34512 0.4737 0.0
H2047 H 0.61062 0.35134 0.55452 0.0
H2048 H 0.64538 0.37863 0.3958 0.0
H2049 H 0.56655 0.36225 0.38695 0.0
H2050 H 0.57754 0.37374 0.43511 0.0
H2051 H 0.5798 0.34796 0.427 0.0
C2052 C 0.62205 0.39674 0.51697 0.0
C2053 C 0.61828 0.38181 0.54811 0.0
C2054 C 0.62113 0.39317 0.47077 0.0
C2055 C 0.61631 0.37465 0.45451 0.0
C2056 C 0.61277 0.35963 0.48538 0.0
H2057 H 0.60173 0.32599 0.18695 0.0
H2058 H 0.60405 0.33161 0.26766 0.0
C2059 C 0.61371 0.36317 0.53165 0.0
C2060 C 0.61535 0.37103 0.40526 0.0
H2061 H 0.58482 0.35714 0.32072 0.0
C2062 C 0.63212 0.37399 0.37934 0.0
C2063 C 0.59807 0.36492 0.38377 0.0
C2064 C 0.5794 0.36218 0.40948 0.0
C2065 C 0.63218 0.37071 0.33274 0.0
C2066 C 0.61486 0.36472 0.31115 0.0
C2067 C 0.5981 0.36173 0.33714 0.0
C2068 C 0.6138 0.36138 0.26175 0.0
C2069 C 0.65095 0.37323 0.30731 0.0
C2070 C 0.61831 0.37629 0.23126 0.0
C2071 C 0.61725 0.37304 0.1849 0.0
C2072 C 0.61144 0.35485 0.16785 0.0
C2073 C 0.60664 0.34006 0.1986 0.0
C2074 C 0.60779 0.3433 0.2449 0.0
H2075 H 0.66375 0.37229 0.32989 0.0
H2076 H 0.65247 0.36209 0.28059 0.0
H2077 H 0.65111 0.38779 0.29132 0.0
H2078 H 0.62256 0.39051 0.2433 0.0
H2079 H 0.62119 0.38476 0.16246 0.0
H2080 H 0.88155 0.62287 0.91652 0.0
H2081 H 0.88731 0.62394 0.99751 0.0
H2082 H 0.83101 0.59855 0.02092 0.0
H2083 H 0.82545 0.59668 0.94017 0.0
H2084 H 0.86706 0.64307 0.06352 0.0
H2085 H 0.86551 0.56374 0.09602 0.0
H2086 H 0.86728 0.5737 0.04016 0.0
H2087 H 0.84417 0.57257 0.06816 0.0
C2088 C 0.87049 0.61723 0.93881 0.0
C2089 C 0.85304 0.60961 0.92153 0.0
C2090 C 0.87376 0.61799 0.9852 0.0
C2091 C 0.85974 0.61105 1.01544 0.0
C2092 C 0.84224 0.60363 0.99837 0.0
H2093 H 0.85092 0.60586 0.30741 0.0
H2094 H 0.84483 0.60483 0.22645 0.0
C2095 C 0.83897 0.60282 0.95204 0.0
C2096 C 0.86319 0.61203 0.0648 0.0
H2097 H 0.86542 0.58436 0.16001 0.0
C2098 C 0.86681 0.63021 0.08456 0.0
C2099 C 0.86281 0.59526 0.0924 0.0
C2100 C 0.85992 0.57519 0.07312 0.0
C2101 C 0.86972 0.63213 0.13108 0.0
C2102 C 0.86931 0.61538 0.15865 0.0
C2103 C 0.86566 0.5972 0.13894 0.0
C2104 C 0.87292 0.61636 0.2079 0.0
C2105 C 0.87281 0.65216 0.15044 0.0
C2106 C 0.89078 0.62303 0.22452 0.0
C2107 C 0.89428 0.62373 0.27076 0.0
C2108 C 0.88002 0.61766 0.30159 0.0
C2109 C 0.86214 0.6109 0.28479 0.0
C2110 C 0.85868 0.61017 0.23846 0.0
H2111 H 0.86762 0.66371 0.12731 0.0
H2112 H 0.8652 0.65376 0.18307 0.0
H2113 H 0.88855 0.65448 0.1562 0.0
H2114 H 0.90213 0.62758 0.20166 0.0
H2115 H 0.90814 0.62919 0.28235 0.0
H2116 H 0.59435 0.11311 0.73801 0.0
H2117 H 0.59175 0.11993 0.81825 0.0
H2118 H 0.63418 0.16562 0.8053 0.0
H2119 H 0.63712 0.15872 0.72504 0.0
H2120 H 0.62168 0.11841 0.88294 0.0
H2121 H 0.5894 0.19229 0.87299 0.0
H2122 H 0.58966 0.1758 0.82586 0.0
H2123 H 0.61126 0.18886 0.84104 0.0
C2124 C 0.60323 0.12456 0.75214 0.0
C2125 C 0.61599 0.13532 0.72481 0.0
C2126 C 0.60163 0.12851 0.79806 0.0
C2127 C 0.6126 0.14343 0.81779 0.0
C2128 C 0.62528 0.15429 0.79072 0.0
H2129 H 0.62141 0.18595 0.0938 0.0
H2130 H 0.6249 0.18092 1.01278 0.0
C2131 C 0.62692 0.15032 0.74474 0.0
C2132 C 0.61124 0.14707 0.86696 0.0
H2133 H 0.59831 0.18106 0.94513 0.0
C2134 C 0.61653 0.1321 0.89655 0.0
C2135 C 0.60465 0.16497 0.88472 0.0
C2136 C 0.59825 0.18139 0.85462 0.0
C2137 C 0.61557 0.13457 0.94333 0.0
C2138 C 0.60867 0.15237 0.96118 0.0
C2139 C 0.60356 0.16742 0.93155 0.0
C2140 C 0.60638 0.15554 1.01042 0.0
C2141 C 0.62238 0.1182 0.97312 0.0
C2142 C 0.59453 0.14319 0.03609 0.0
C2143 C 0.59257 0.14599 0.08237 0.0
C2144 C 0.6022 0.16139 0.1041 0.0
C2145 C 0.61371 0.17402 0.07816 0.0
C2146 C 0.61577 0.17112 0.03184 0.0
H2147 H 0.63251 0.10833 0.95515 0.0
H2148 H 0.62978 0.12383 1.00355 0.0
H2149 H 0.60967 0.10947 0.98387 0.0
H2150 H 0.58667 0.13141 0.02026 0.0
H2151 H 0.58328 0.13623 0.1011 0.0
H2152 H 0.11048 0.41655 0.28777 0.0
H2153 H 0.11588 0.41767 0.20669 0.0
H2154 H 0.15177 0.36649 0.21537 0.0
H2155 H 0.14595 0.36486 0.29621 0.0
H2156 H 0.15023 0.42099 0.15833 0.0
H2157 H 0.11298 0.35169 0.11767 0.0
H2158 H 0.11046 0.36354 0.17137 0.0
H2159 H 0.13178 0.34942 0.15908 0.0
C2160 C 0.11936 0.40538 0.27243 0.0
C2161 C 0.12764 0.39051 0.29865 0.0
C2162 C 0.12254 0.40614 0.22606 0.0
C2163 C 0.13396 0.39198 0.20474 0.0
C2164 C 0.14259 0.37735 0.23087 0.0
H2165 H 0.17037 0.37149 0.92925 0.0
H2166 H 0.16501 0.37043 1.01037 0.0
C2167 C 0.13943 0.37659 0.27726 0.0
C2168 C 0.137 0.39268 0.15529 0.0
H2169 H 0.13029 0.36687 0.05847 0.0
C2170 C 0.14579 0.4092 0.13647 0.0
C2171 C 0.13122 0.37729 0.12672 0.0
C2172 C 0.12092 0.35955 0.14457 0.0
C2173 C 0.14928 0.41058 0.09007 0.0
C2174 C 0.14351 0.39518 0.06153 0.0
C2175 C 0.13472 0.37867 0.08033 0.0
C2176 C 0.14657 0.39587 1.01209 0.0
C2177 C 0.15952 0.42834 0.07216 0.0
C2178 C 0.13774 0.41034 0.98585 0.0
C2179 C 0.14085 0.41104 0.93943 0.0
C2180 C 0.15281 0.39723 0.91816 0.0
C2181 C 0.16134 0.38254 0.94452 0.0
C2182 C 0.15819 0.38184 0.9909 0.0
H2183 H 0.16733 0.43633 0.09907 0.0
H2184 H 0.17009 0.42433 0.04558 0.0
H2185 H 0.14865 0.43835 0.05729 0.0
H2186 H 0.12842 0.42111 1.00128 0.0
H2187 H 0.13414 0.42262 0.92034 0.0
H2188 H 0.40468 0.82455 0.09331 0.0
H2189 H 0.40285 0.83038 1.01258 0.0
H2190 H 0.38849 0.89043 0.03716 0.0
H2191 H 0.39106 0.88493 0.118 0.0
H2192 H 0.37234 0.84279 0.9607 0.0
H2193 H 0.43316 0.89537 0.94904 0.0
H2194 H 0.42901 0.88067 0.99825 0.0
H2195 H 0.41475 0.90217 0.98865 0.0
C2196 C 0.40142 0.83909 0.08167 0.0
C2197 C 0.39822 0.8543 0.11245 0.0
C2198 C 0.40022 0.84236 0.03539 0.0
C2199 C 0.39586 0.86092 0.01861 0.0
C2200 C 0.39229 0.87607 0.04915 0.0
H2201 H 0.38203 0.90983 0.75159 0.0
H2202 H 0.38367 0.90372 0.83219 0.0
C2203 C 0.39352 0.87283 0.0955 0.0
C2204 C 0.39475 0.86427 0.96924 0.0
H2205 H 0.41401 0.89115 0.88363 0.0
C2206 C 0.38151 0.85331 0.94382 0.0
C2207 C 0.40671 0.87799 0.94711 0.0
C2208 C 0.42184 0.88961 0.97203 0.0
C2209 C 0.37963 0.85595 0.8972 0.0
C2210 C 0.39157 0.86969 0.87508 0.0
C2211 C 0.40483 0.88063 0.90049 0.0
C2212 C 0.39041 0.87314 0.82573 0.0
C2213 C 0.36449 0.84433 0.87229 0.0
C2214 C 0.39386 0.85805 0.79497 0.0
C2215 C 0.39271 0.86144 0.74866 0.0
C2216 C 0.38824 0.88007 0.73197 0.0
C2217 C 0.38511 0.89521 0.76299 0.0
C2218 C 0.38621 0.89179 0.80922 0.0
H2219 H 0.35318 0.83858 0.89529 0.0
H2220 H 0.35733 0.85327 0.84607 0.0
H2221 H 0.37158 0.83176 0.85568 0.0
H2222 H 0.39754 0.84363 0.80675 0.0
H2223 H 0.39511 0.84939 0.72598 0.0
H2224 H 0.88331 0.88456 0.37411 0.0
H2225 H 0.88908 0.88357 0.29313 0.0
H2226 H 0.83203 0.90723 0.26962 0.0
H2227 H 0.82643 0.90904 0.35036 0.0
H2228 H 0.86938 0.86376 0.22729 0.0
H2229 H 0.86547 0.94297 0.1943 0.0
H2230 H 0.86755 0.93314 0.25021 0.0
H2231 H 0.84441 0.93354 0.22224 0.0
C2232 C 0.87208 0.88984 0.3518 0.0
C2233 C 0.85441 0.89696 0.36905 0.0
C2234 C 0.87536 0.88913 0.30542 0.0
C2235 C 0.86112 0.89561 0.27515 0.0
C2236 C 0.84342 0.90252 0.29219 0.0
H2237 H 0.85207 0.90022 0.98324 0.0
H2238 H 0.84599 0.90119 0.0642 0.0
C2239 C 0.84014 0.90329 0.33851 0.0
C2240 C 0.86459 0.89467 0.22581 0.0
H2241 H 0.86597 0.92228 0.13044 0.0
C2242 C 0.86874 0.87658 0.20617 0.0
C2243 C 0.86371 0.91139 0.19812 0.0
C2244 C 0.86022 0.93139 0.21727 0.0
C2245 C 0.87169 0.87469 0.15966 0.0
C2246 C 0.87078 0.89139 0.13199 0.0
C2247 C 0.8666 0.90948 0.15159 0.0
C2248 C 0.8744 0.89045 0.08275 0.0
C2249 C 0.87536 0.85474 0.14043 0.0
C2250 C 0.89244 0.88426 0.06615 0.0
C2251 C 0.89593 0.8836 0.01991 0.0
C2252 C 0.88149 0.88923 0.98907 0.0
C2253 C 0.86344 0.89552 1.00586 0.0
C2254 C 0.85998 0.89621 0.05219 0.0
H2255 H 0.87051 0.84307 0.16362 0.0
H2256 H 0.86781 0.85288 0.1078 0.0
H2257 H 0.89117 0.85286 0.1347 0.0
H2258 H 0.90392 0.88006 0.08901 0.0
H2259 H 0.90993 0.87849 1.00833 0.0
H2260 H 0.91698 0.11339 0.04103 0.0
H2261 H 0.91853 0.11922 0.96016 0.0
H2262 H 0.86248 0.14701 0.96483 0.0
H2263 H 0.86071 0.14109 0.04562 0.0
H2264 H 0.89322 0.10629 0.89327 0.0
H2265 H 0.8955 0.18689 0.89761 0.0
H2266 H 0.89995 0.17217 0.94666 0.0
H2267 H 0.87553 0.17641 0.92781 0.0
C2268 C 0.90493 0.12068 0.02491 0.0
C2269 C 0.88872 0.12678 0.05008 0.0
C2270 C 0.90589 0.12409 0.97863 0.0
C2271 C 0.89075 0.13379 0.95641 0.0
C2272 C 0.87455 0.13989 0.98132 0.0
H2273 H 0.86822 0.16616 0.67878 0.0
H2274 H 0.86674 0.16038 0.7597 0.0
C2275 C 0.87356 0.13649 0.02762 0.0
C2276 C 0.89167 0.13696 0.90698 0.0
H2277 H 0.89152 0.17223 0.82618 0.0
C2278 C 0.89295 0.12071 0.8786 0.0
C2279 C 0.89124 0.15578 0.88779 0.0
C2280 C 0.89066 0.17384 0.91647 0.0
C2281 C 0.89344 0.12273 0.83163 0.0
C2282 C 0.89306 0.14155 0.8124 0.0
C2283 C 0.89179 0.1578 0.84082 0.0
C2284 C 0.89395 0.14473 0.76294 0.0
C2285 C 0.89386 0.10463 0.80305 0.0
C2286 C 0.90981 0.13803 0.73767 0.0
C2287 C 0.9107 0.14131 0.69132 0.0
C2288 C 0.89584 0.15158 0.66919 0.0
C2289 C 0.88002 0.15838 0.69468 0.0
C2290 C 0.87911 0.15502 0.74099 0.0
H2291 H 0.88861 0.09171 0.82183 0.0
H2292 H 0.88482 0.10642 0.77249 0.0
H2293 H 0.90902 0.10172 0.79241 0.0
H2294 H 0.92169 0.13049 0.7539 0.0
H2295 H 0.92327 0.13617 0.67298 0.0
H2296 H 0.15453 0.10666 0.97785 0.0
H2297 H 0.16038 0.10514 0.05884 0.0
H2298 H 0.10219 0.12555 0.08356 0.0
H2299 H 0.09623 0.12717 1.00286 0.0
H2300 H 0.15903 0.13389 0.12352 0.0
H2301 H 0.10437 0.07704 0.16109 0.0
H2302 H 0.1122 0.08245 0.10469 0.0
H2303 H 0.09454 0.09765 0.13202 0.0
C2304 C 0.14299 0.11092 1.00048 0.0
C2305 C 0.12483 0.11689 0.98365 0.0
C2306 C 0.14634 0.10996 0.04684 0.0
C2307 C 0.13161 0.11486 0.07743 0.0
C2308 C 0.11362 0.12117 0.06075 0.0
H2309 H 0.12334 0.1222 0.36883 0.0
H2310 H 0.1177 0.12366 0.2878 0.0
C2311 C 0.11024 0.1221 1.01448 0.0
C2312 C 0.13516 0.11375 0.12673 0.0
H2313 H 0.11856 0.09302 0.22374 0.0
C2314 C 0.15025 0.12486 0.14538 0.0
C2315 C 0.1237 0.10198 0.15538 0.0
C2316 C 0.10791 0.08895 0.13731 0.0
C2317 C 0.15393 0.12484 0.19182 0.0
C2318 C 0.1424 0.11316 0.22045 0.0
C2319 C 0.12734 0.10203 0.20184 0.0
C2320 C 0.14586 0.11216 0.26975 0.0
C2321 C 0.16987 0.13765 0.21001 0.0
C2322 C 0.16344 0.10491 0.28668 0.0
C2323 C 0.16666 0.10388 0.333 0.0
C2324 C 0.15235 0.11006 0.36364 0.0
C2325 C 0.13464 0.11712 0.34646 0.0
C2326 C 0.13142 0.11808 0.30007 0.0
H2327 H 0.17404 0.14917 0.18576 0.0
H2328 H 0.16536 0.14463 0.24194 0.0
H2329 H 0.1829 0.12864 0.21686 0.0
H2330 H 0.17464 0.09983 0.26401 0.0
H2331 H 0.1803 0.09796 0.34478 0.0
H2332 H 0.07287 0.85424 0.68672 0.0
H2333 H 0.07665 0.85918 0.76751 0.0
H2334 H 0.13811 0.84852 0.75596 0.0
H2335 H 0.13447 0.84341 0.67516 0.0
H2336 H 0.09077 0.83378 0.83291 0.0
H2337 H 0.13638 0.90016 0.82363 0.0
H2338 H 0.12316 0.89089 0.77592 0.0
H2339 H 0.14568 0.87983 0.79256 0.0
C2340 C 0.0872 0.85281 0.70131 0.0
C2341 C 0.10337 0.84846 0.67418 0.0
C2342 C 0.08934 0.85574 0.74756 0.0
C2343 C 0.1077 0.85451 0.76783 0.0
C2344 C 0.12385 0.85 0.74101 0.0
H2345 H 0.14947 0.86909 0.04216 0.0
H2346 H 0.14615 0.86283 0.96168 0.0
C2347 C 0.12174 0.84707 0.69473 0.0
C2348 C 0.10983 0.8576 0.81712 0.0
H2349 H 0.13207 0.88622 0.89559 0.0
C2350 C 0.09975 0.84529 0.84663 0.0
C2351 C 0.1216 0.87257 0.83508 0.0
C2352 C 0.1322 0.88675 0.80524 0.0
C2353 C 0.10134 0.84734 0.89347 0.0
C2354 C 0.11302 0.86239 0.91147 0.0
C2355 C 0.12314 0.87466 0.88192 0.0
C2356 C 0.11487 0.86577 0.96076 0.0
C2357 C 0.09084 0.83304 0.9232 0.0
C2358 C 0.09844 0.86967 0.98722 0.0
C2359 C 0.1003 0.87323 0.03331 0.0
C2360 C 0.11867 0.8732 0.05401 0.0
C2361 C 0.13512 0.8694 0.02736 0.0
C2362 C 0.13323 0.86575 0.9813 0.0
H2363 H 0.08739 0.81937 0.90503 0.0
H2364 H 0.0996 0.8294 0.95333 0.0
H2365 H 0.07694 0.83956 0.93449 0.0
H2366 H 0.08417 0.8703 0.97209 0.0
H2367 H 0.08736 0.87646 0.05255 0.0
loop_
_geom_bond_atom_site_label_1
_geom_bond_atom_site_label_2
_geom_bond_distance
_geom_bond_site_symmetry_2
_ccdc_geom_bond_type
Sm0 C2 2.846 . S
Sm0 O20 2.543 . S
Sm0 O21 2.450 . S
Sm0 O22 2.681 . S
Sm0 O23 2.464 . S
Sm0 O24 2.396 . S
Sm0 O28 2.386 . S
Sm0 O31 2.408 . S
Sm1 C11 2.846 1_554 S
Sm1 O22 2.386 . S
Sm1 O25 2.408 . S
Sm1 O26 2.543 . S
Sm1 O27 2.450 . S
Sm1 O28 2.681 . S
Sm1 O29 2.464 . S
Sm1 O30 2.396 . S
C2 Sm0 2.846 . S
C2 C3 1.506 . S
C2 O20 1.261 . S
C2 O21 1.242 . S
C3 C2 1.506 . S
C3 C4 1.358 . S
C3 C8 1.382 . S
C4 C3 1.358 . S
C4 C5 1.385 . S
C4 H32 0.930 . S
C5 C4 1.385 . S
C5 C6 1.395 . S
C5 H33 0.929 . S
C6 C5 1.395 . S
C6 C7 1.335 . S
C7 C6 1.335 . S
C7 C8 1.398 . S
C7 H34 0.930 . S
C8 C3 1.382 . S
C8 C7 1.398 . S
C8 H35 0.929 . S
C9 O22 1.271 . S
C9 O23 1.251 . S
C10 O24 1.252 . S
C10 O25 1.272 . S
C11 Sm1 2.846 1_556 S
C11 C12 1.506 . S
C11 O26 1.261 1_556 S
C11 O27 1.242 1_556 S
C12 C11 1.506 . S
C12 C13 1.358 . S
C12 C17 1.382 . S
C13 C12 1.358 . S
C13 C14 1.385 . S
C13 H36 0.930 . S
C14 C13 1.385 . S
C14 C15 1.395 . S
C14 H37 0.929 . S
C15 C14 1.395 . S
C15 C16 1.335 . S
C16 C15 1.335 . S
C16 C17 1.398 . S
C16 H38 0.930 . S
C17 C12 1.382 . S
C17 C16 1.398 . S
C17 H39 0.929 . S
C18 O28 1.271 . S
C18 O29 1.251 . S
C19 O30 1.252 . S
C19 O31 1.272 . S
O20 Sm0 2.543 . S
O20 C2 1.261 . S
O21 Sm0 2.450 . S
O21 C2 1.242 . S
O22 Sm0 2.681 . S
O22 Sm1 2.386 . S
O22 C9 1.271 . S
O23 Sm0 2.464 . S
O23 C9 1.251 . S
O24 Sm0 2.396 . S
O24 C10 1.252 . S
O25 Sm1 2.408 . S
O25 C10 1.272 . S
O26 Sm1 2.543 . S
O26 C11 1.261 1_554 S
O27 Sm1 2.450 . S
O27 C11 1.242 1_554 S
O28 Sm0 2.386 . S
O28 Sm1 2.681 . S
O28 C18 1.271 . S
O29 Sm1 2.464 . S
O29 C18 1.251 . S
O30 Sm1 2.396 . S
O30 C19 1.252 . S
O31 Sm0 2.408 . S
O31 C19 1.272 . S
H32 C4 0.930 . S
H33 C5 0.929 . S
H34 C7 0.930 . S
H35 C8 0.929 . S
H36 C13 0.930 . S
H37 C14 0.929 . S
H38 C16 0.930 . S
H39 C17 0.929 . S
Sm40 C42 2.846 1_556 S
Sm40 O60 2.543 . S
Sm40 O61 2.450 . S
Sm40 O62 2.681 . S
Sm40 O63 2.464 . S
Sm40 O64 2.396 . S
Sm40 O68 2.386 . S
Sm40 O71 2.408 . S
Sm41 C51 2.846 . S
Sm41 O62 2.386 . S
Sm41 O65 2.408 . S
Sm41 O66 2.543 . S
Sm41 O67 2.450 . S
Sm41 O68 2.681 . S
Sm41 O69 2.464 . S
Sm41 O70 2.396 . S
C42 Sm40 2.846 1_554 S
C42 C43 1.506 . S
C42 O60 1.261 1_554 S
C42 O61 1.242 1_554 S
C43 C42 1.506 . S
C43 C44 1.358 . S
C43 C48 1.382 . S
C44 C43 1.358 . S
C44 C45 1.385 . S
C44 H72 0.930 . S
C45 C44 1.385 . S
C45 C46 1.395 . S
C45 H73 0.929 . S
C46 C45 1.395 . S
C46 C47 1.335 . S
C47 C46 1.335 . S
C47 C48 1.398 . S
C47 H74 0.930 . S
C48 C43 1.382 . S
C48 C47 1.398 . S
C48 H75 0.929 . S
C49 O62 1.271 . S
C49 O63 1.251 . S
C50 O64 1.252 . S
C50 O65 1.272 . S
C51 Sm41 2.846 . S
C51 C52 1.506 . S
C51 O66 1.261 . S
C51 O67 1.242 . S
C52 C51 1.506 . S
C52 C53 1.358 . S
C52 C57 1.382 . S
C53 C52 1.358 . S
C53 C54 1.385 . S
C53 H76 0.930 . S
C54 C53 1.385 . S
C54 C55 1.395 . S
C54 H77 0.929 . S
C55 C54 1.395 . S
C55 C56 1.335 . S
C56 C55 1.335 . S
C56 C57 1.398 . S
C56 H78 0.930 . S
C57 C52 1.382 . S
C57 C56 1.398 . S
C57 H79 0.929 . S
C58 O68 1.271 . S
C58 O69 1.251 . S
C59 O70 1.252 . S
C59 O71 1.272 . S
O60 Sm40 2.543 . S
O60 C42 1.261 1_556 S
O61 Sm40 2.450 . S
O61 C42 1.242 1_556 S
O62 Sm40 2.681 . S
O62 Sm41 2.386 . S
O62 C49 1.271 . S
O63 Sm40 2.464 . S
O63 C49 1.251 . S
O64 Sm40 2.396 . S
O64 C50 1.252 . S
O65 Sm41 2.408 . S
O65 C50 1.272 . S
O66 Sm41 2.543 . S
O66 C51 1.261 . S
O67 Sm41 2.450 . S
O67 C51 1.242 . S
O68 Sm40 2.386 . S
O68 Sm41 2.681 . S
O68 C58 1.271 . S
O69 Sm41 2.464 . S
O69 C58 1.251 . S
O70 Sm41 2.396 . S
O70 C59 1.252 . S
O71 Sm40 2.408 . S
O71 C59 1.272 . S
H72 C44 0.930 . S
H73 C45 0.929 . S
H74 C47 0.930 . S
H75 C48 0.929 . S
H76 C53 0.930 . S
H77 C54 0.929 . S
H78 C56 0.930 . S
H79 C57 0.929 . S
Sm80 C82 2.846 . S
Sm80 O100 2.543 . S
Sm80 O101 2.450 . S
Sm80 O102 2.681 . S
Sm80 O103 2.464 . S
Sm80 O104 2.396 . S
Sm80 O108 2.386 . S
Sm80 O111 2.408 . S
Sm81 C91 2.846 1_554 S
Sm81 O102 2.386 . S
Sm81 O105 2.408 . S
Sm81 O106 2.543 . S
Sm81 O107 2.450 . S
Sm81 O108 2.681 . S
Sm81 O109 2.464 . S
Sm81 O110 2.396 . S
C82 Sm80 2.846 . S
C82 C83 1.506 . S
C82 O100 1.261 . S
C82 O101 1.242 . S
C83 C82 1.506 . S
C83 C84 1.358 . S
C83 C88 1.382 . S
C84 C83 1.358 . S
C84 C85 1.385 . S
C84 H112 0.930 . S
C85 C84 1.385 . S
C85 C86 1.395 . S
C85 H113 0.929 . S
C86 C85 1.395 . S
C86 C87 1.335 . S
C87 C86 1.335 . S
C87 C88 1.398 . S
C87 H114 0.930 . S
C88 C83 1.382 . S
C88 C87 1.398 . S
C88 H115 0.929 . S
C89 O102 1.271 . S
C89 O103 1.251 . S
C90 O104 1.252 . S
C90 O105 1.272 . S
C91 Sm81 2.846 1_556 S
C91 C92 1.506 . S
C91 O106 1.261 1_556 S
C91 O107 1.242 1_556 S
C92 C91 1.506 . S
C92 C93 1.358 . S
C92 C97 1.382 . S
C93 C92 1.358 . S
C93 C94 1.385 . S
C93 H116 0.930 . S
C94 C93 1.385 . S
C94 C95 1.395 . S
C94 H117 0.929 . S
C95 C94 1.395 . S
C95 C96 1.335 . S
C96 C95 1.335 . S
C96 C97 1.398 . S
C96 H118 0.930 . S
C97 C92 1.382 . S
C97 C96 1.398 . S
C97 H119 0.929 . S
C98 O108 1.271 . S
C98 O109 1.251 . S
C99 O110 1.252 . S
C99 O111 1.272 . S
O100 Sm80 2.543 . S
O100 C82 1.261 . S
O101 Sm80 2.450 . S
O101 C82 1.242 . S
O102 Sm80 2.681 . S
O102 Sm81 2.386 . S
O102 C89 1.271 . S
O103 Sm80 2.464 . S
O103 C89 1.251 . S
O104 Sm80 2.396 . S
O104 C90 1.252 . S
O105 Sm81 2.408 . S
O105 C90 1.272 . S
O106 Sm81 2.543 . S
O106 C91 1.261 1_554 S
O107 Sm81 2.450 . S
O107 C91 1.242 1_554 S
O108 Sm80 2.386 . S
O108 Sm81 2.681 . S
O108 C98 1.271 . S
O109 Sm81 2.464 . S
O109 C98 1.251 . S
O110 Sm81 2.396 . S
O110 C99 1.252 . S
O111 Sm80 2.408 . S
O111 C99 1.272 . S
H112 C84 0.930 . S
H113 C85 0.929 . S
H114 C87 0.930 . S
H115 C88 0.929 . S
H116 C93 0.930 . S
H117 C94 0.929 . S
H118 C96 0.930 . S
H119 C97 0.929 . S
Sm120 C122 2.846 1_556 S
Sm120 O140 2.543 . S
Sm120 O141 2.450 . S
Sm120 O142 2.681 . S
Sm120 O143 2.464 . S
Sm120 O144 2.396 . S
Sm120 O148 2.386 . S
Sm120 O151 2.408 . S
Sm121 C131 2.846 . S
Sm121 O142 2.386 . S
Sm121 O145 2.408 . S
Sm121 O146 2.543 . S
Sm121 O147 2.450 . S
Sm121 O148 2.681 . S
Sm121 O149 2.464 . S
Sm121 O150 2.396 . S
C122 Sm120 2.846 1_554 S
C122 C123 1.506 . S
C122 O140 1.261 1_554 S
C122 O141 1.242 1_554 S
C123 C122 1.506 . S
C123 C124 1.358 . S
C123 C128 1.382 . S
C124 C123 1.358 . S
C124 C125 1.385 . S
C124 H152 0.930 . S
C125 C124 1.385 . S
C125 C126 1.395 . S
C125 H153 0.929 . S
C126 C125 1.395 . S
C126 C127 1.335 . S
C127 C126 1.335 . S
C127 C128 1.398 . S
C127 H154 0.930 . S
C128 C123 1.382 . S
C128 C127 1.398 . S
C128 H155 0.929 . S
C129 O142 1.271 . S
C129 O143 1.251 . S
C130 O144 1.252 . S
C130 O145 1.272 . S
C131 Sm121 2.846 . S
C131 C132 1.506 . S
C131 O146 1.261 . S
C131 O147 1.242 . S
C132 C131 1.506 . S
C132 C133 1.358 . S
C132 C137 1.382 . S
C133 C132 1.358 . S
C133 C134 1.385 . S
C133 H156 0.930 . S
C134 C133 1.385 . S
C134 C135 1.395 . S
C134 H157 0.929 . S
C135 C134 1.395 . S
C135 C136 1.335 . S
C136 C135 1.335 . S
C136 C137 1.398 . S
C136 H158 0.930 . S
C137 C132 1.382 . S
C137 C136 1.398 . S
C137 H159 0.929 . S
C138 O148 1.271 . S
C138 O149 1.251 . S
C139 O150 1.252 . S
C139 O151 1.272 . S
O140 Sm120 2.543 . S
O140 C122 1.261 1_556 S
O141 Sm120 2.450 . S
O141 C122 1.242 1_556 S
O142 Sm120 2.681 . S
O142 Sm121 2.386 . S
O142 C129 1.271 . S
O143 Sm120 2.464 . S
O143 C129 1.251 . S
O144 Sm120 2.396 . S
O144 C130 1.252 . S
O145 Sm121 2.408 . S
O145 C130 1.272 . S
O146 Sm121 2.543 . S
O146 C131 1.261 . S
O147 Sm121 2.450 . S
O147 C131 1.242 . S
O148 Sm120 2.386 . S
O148 Sm121 2.681 . S
O148 C138 1.271 . S
O149 Sm121 2.464 . S
O149 C138 1.251 . S
O150 Sm121 2.396 . S
O150 C139 1.252 . S
O151 Sm120 2.408 . S
O151 C139 1.272 . S
H152 C124 0.930 . S
H153 C125 0.929 . S
H154 C127 0.930 . S
H155 C128 0.929 . S
H156 C133 0.930 . S
H157 C134 0.929 . S
H158 C136 0.930 . S
H159 C137 0.929 . S
Sm160 C162 2.846 1_554 S
Sm160 O180 2.543 1_554 S
Sm160 O181 2.450 1_554 S
Sm160 O182 2.681 . S
Sm160 O183 2.464 . S
Sm160 O184 2.396 . S
Sm160 O188 2.386 . S
Sm160 O191 2.408 . S
Sm161 C171 2.846 . S
Sm161 O182 2.386 . S
Sm161 O185 2.408 . S
Sm161 O186 2.543 . S
Sm161 O187 2.450 . S
Sm161 O188 2.681 . S
Sm161 O189 2.464 . S
Sm161 O190 2.396 . S
C162 Sm160 2.846 1_556 S
C162 C163 1.506 . S
C162 O180 1.261 . S
C162 O181 1.242 . S
C163 C162 1.506 . S
C163 C164 1.358 . S
C163 C168 1.382 . S
C164 C163 1.358 . S
C164 C165 1.385 . S
C164 H192 0.930 . S
C165 C164 1.385 . S
C165 C166 1.395 . S
C165 H193 0.929 . S
C166 C165 1.395 . S
C166 C167 1.335 . S
C167 C166 1.335 . S
C167 C168 1.398 . S
C167 H194 0.930 . S
C168 C163 1.382 . S
C168 C167 1.398 . S
C168 H195 0.929 . S
C169 O182 1.271 . S
C169 O183 1.251 . S
C170 O184 1.252 . S
C170 O185 1.272 . S
C171 Sm161 2.846 . S
C171 C172 1.506 . S
C171 O186 1.261 . S
C171 O187 1.242 . S
C172 C171 1.506 . S
C172 C173 1.358 . S
C172 C177 1.382 . S
C173 C172 1.358 . S
C173 C174 1.385 . S
C173 H196 0.930 . S
C174 C173 1.385 . S
C174 C175 1.395 . S
C174 H197 0.929 . S
C175 C174 1.395 . S
C175 C176 1.335 . S
C176 C175 1.335 . S
C176 C177 1.398 . S
C176 H198 0.930 . S
C177 C172 1.382 . S
C177 C176 1.398 . S
C177 H199 0.929 . S
C178 O188 1.271 . S
C178 O189 1.251 . S
C179 O190 1.252 . S
C179 O191 1.272 . S
O180 Sm160 2.543 1_556 S
O180 C162 1.261 . S
O181 Sm160 2.450 1_556 S
O181 C162 1.242 . S
O182 Sm160 2.681 . S
O182 Sm161 2.386 . S
O182 C169 1.271 . S
O183 Sm160 2.464 . S
O183 C169 1.251 . S
O184 Sm160 2.396 . S
O184 C170 1.252 . S
O185 Sm161 2.408 . S
O185 C170 1.272 . S
O186 Sm161 2.543 . S
O186 C171 1.261 . S
O187 Sm161 2.450 . S
O187 C171 1.242 . S
O188 Sm160 2.386 . S
O188 Sm161 2.681 . S
O188 C178 1.271 . S
O189 Sm161 2.464 . S
O189 C178 1.251 . S
O190 Sm161 2.396 . S
O190 C179 1.252 . S
O191 Sm160 2.408 . S
O191 C179 1.272 . S
H192 C164 0.930 . S
H193 C165 0.929 . S
H194 C167 0.930 . S
H195 C168 0.929 . S
H196 C173 0.930 . S
H197 C174 0.929 . S
H198 C176 0.930 . S
H199 C177 0.929 . S
Sm200 C202 2.846 . S
Sm200 O220 2.543 . S
Sm200 O221 2.450 . S
Sm200 O222 2.681 . S
Sm200 O223 2.464 . S
Sm200 O224 2.396 . S
Sm200 O228 2.386 . S
Sm200 O231 2.408 . S
Sm201 C211 2.846 1_556 S
Sm201 O222 2.386 . S
Sm201 O225 2.408 . S
Sm201 O226 2.543 1_556 S
Sm201 O227 2.450 1_556 S
Sm201 O228 2.681 . S
Sm201 O229 2.464 . S
Sm201 O230 2.396 . S
C202 Sm200 2.846 . S
C202 C203 1.506 . S
C202 O220 1.261 . S
C202 O221 1.242 . S
C203 C202 1.506 . S
C203 C204 1.358 . S
C203 C208 1.382 . S
C204 C203 1.358 . S
C204 C205 1.385 . S
C204 H232 0.930 . S
C205 C204 1.385 . S
C205 C206 1.395 . S
C205 H233 0.929 . S
C206 C205 1.395 . S
C206 C207 1.335 . S
C207 C206 1.335 . S
C207 C208 1.398 . S
C207 H234 0.930 . S
C208 C203 1.382 . S
C208 C207 1.398 . S
C208 H235 0.929 . S
C209 O222 1.271 . S
C209 O223 1.251 . S
C210 O224 1.252 . S
C210 O225 1.272 . S
C211 Sm201 2.846 1_554 S
C211 C212 1.506 . S
C211 O226 1.261 . S
C211 O227 1.242 . S
C212 C211 1.506 . S
C212 C213 1.358 . S
C212 C217 1.382 . S
C213 C212 1.358 . S
C213 C214 1.385 . S
C213 H236 0.930 . S
C214 C213 1.385 . S
C214 C215 1.395 . S
C214 H237 0.929 . S
C215 C214 1.395 . S
C215 C216 1.335 . S
C216 C215 1.335 . S
C216 C217 1.398 . S
C216 H238 0.930 . S
C217 C212 1.382 . S
C217 C216 1.398 . S
C217 H239 0.929 . S
C218 O228 1.271 . S
C218 O229 1.251 . S
C219 O230 1.252 . S
C219 O231 1.272 . S
O220 Sm200 2.543 . S
O220 C202 1.261 . S
O221 Sm200 2.450 . S
O221 C202 1.242 . S
O222 Sm200 2.681 . S
O222 Sm201 2.386 . S
O222 C209 1.271 . S
O223 Sm200 2.464 . S
O223 C209 1.251 . S
O224 Sm200 2.396 . S
O224 C210 1.252 . S
O225 Sm201 2.408 . S
O225 C210 1.272 . S
O226 Sm201 2.543 1_554 S
O226 C211 1.261 . S
O227 Sm201 2.450 1_554 S
O227 C211 1.242 . S
O228 Sm200 2.386 . S
O228 Sm201 2.681 . S
O228 C218 1.271 . S
O229 Sm201 2.464 . S
O229 C218 1.251 . S
O230 Sm201 2.396 . S
O230 C219 1.252 . S
O231 Sm200 2.408 . S
O231 C219 1.272 . S
H232 C204 0.930 . S
H233 C205 0.929 . S
H234 C207 0.930 . S
H235 C208 0.929 . S
H236 C213 0.930 . S
H237 C214 0.929 . S
H238 C216 0.930 . S
H239 C217 0.929 . S
Sm240 C242 2.846 1_554 S
Sm240 O260 2.543 1_554 S
Sm240 O261 2.450 1_554 S
Sm240 O262 2.681 . S
Sm240 O263 2.464 . S
Sm240 O264 2.396 . S
Sm240 O268 2.386 . S
Sm240 O271 2.408 . S
Sm241 C251 2.846 . S
Sm241 O262 2.386 . S
Sm241 O265 2.408 . S
Sm241 O266 2.543 . S
Sm241 O267 2.450 . S
Sm241 O268 2.681 . S
Sm241 O269 2.464 . S
Sm241 O270 2.396 . S
C242 Sm240 2.846 1_556 S
C242 C243 1.506 . S
C242 O260 1.261 . S
C242 O261 1.242 . S
C243 C242 1.506 . S
C243 C244 1.358 . S
C243 C248 1.382 . S
C244 C243 1.358 . S
C244 C245 1.385 . S
C244 H272 0.930 . S
C245 C244 1.385 . S
C245 C246 1.395 . S
C245 H273 0.929 . S
C246 C245 1.395 . S
C246 C247 1.335 . S
C247 C246 1.335 . S
C247 C248 1.398 . S
C247 H274 0.930 . S
C248 C243 1.382 . S
C248 C247 1.398 . S
C248 H275 0.929 . S
C249 O262 1.271 . S
C249 O263 1.251 . S
C250 O264 1.252 . S
C250 O265 1.272 . S
C251 Sm241 2.846 . S
C251 C252 1.506 . S
C251 O266 1.261 . S
C251 O267 1.242 . S
C252 C251 1.506 . S
C252 C253 1.358 . S
C252 C257 1.382 . S
C253 C252 1.358 . S
C253 C254 1.385 . S
C253 H276 0.930 . S
C254 C253 1.385 . S
C254 C255 1.395 . S
C254 H277 0.929 . S
C255 C254 1.395 . S
C255 C256 1.335 . S
C256 C255 1.335 . S
C256 C257 1.398 . S
C256 H278 0.930 . S
C257 C252 1.382 . S
C257 C256 1.398 . S
C257 H279 0.929 . S
C258 O268 1.271 . S
C258 O269 1.251 . S
C259 O270 1.252 . S
C259 O271 1.272 . S
O260 Sm240 2.543 1_556 S
O260 C242 1.261 . S
O261 Sm240 2.450 1_556 S
O261 C242 1.242 . S
O262 Sm240 2.681 . S
O262 Sm241 2.386 . S
O262 C249 1.271 . S
O263 Sm240 2.464 . S
O263 C249 1.251 . S
O264 Sm240 2.396 . S
O264 C250 1.252 . S
O265 Sm241 2.408 . S
O265 C250 1.272 . S
O266 Sm241 2.543 . S
O266 C251 1.261 . S
O267 Sm241 2.450 . S
O267 C251 1.242 . S
O268 Sm240 2.386 . S
O268 Sm241 2.681 . S
O268 C258 1.271 . S
O269 Sm241 2.464 . S
O269 C258 1.251 . S
O270 Sm241 2.396 . S
O270 C259 1.252 . S
O271 Sm240 2.408 . S
O271 C259 1.272 . S
H272 C244 0.930 . S
H273 C245 0.929 . S
H274 C247 0.930 . S
H275 C248 0.929 . S
H276 C253 0.930 . S
H277 C254 0.929 . S
H278 C256 0.930 . S
H279 C257 0.929 . S
Sm280 C282 2.846 . S
Sm280 O300 2.543 . S
Sm280 O301 2.450 . S
Sm280 O302 2.681 . S
Sm280 O303 2.464 . S
Sm280 O304 2.396 . S
Sm280 O308 2.386 . S
Sm280 O311 2.408 . S
Sm281 C291 2.846 1_556 S
Sm281 O302 2.386 . S
Sm281 O305 2.408 . S
Sm281 O306 2.543 1_556 S
Sm281 O307 2.450 1_556 S
Sm281 O308 2.681 . S
Sm281 O309 2.464 . S
Sm281 O310 2.396 . S
C282 Sm280 2.846 . S
C282 C283 1.506 . S
C282 O300 1.261 . S
C282 O301 1.242 . S
C283 C282 1.506 . S
C283 C284 1.358 . S
C283 C288 1.382 . S
C284 C283 1.358 . S
C284 C285 1.385 . S
C284 H312 0.930 . S
C285 C284 1.385 . S
C285 C286 1.395 . S
C285 H313 0.929 . S
C286 C285 1.395 . S
C286 C287 1.335 . S
C287 C286 1.335 . S
C287 C288 1.398 . S
C287 H314 0.930 . S
C288 C283 1.382 . S
C288 C287 1.398 . S
C288 H315 0.929 . S
C289 O302 1.271 . S
C289 O303 1.251 . S
C290 O304 1.252 . S
C290 O305 1.272 . S
C291 Sm281 2.846 1_554 S
C291 C292 1.506 . S
C291 O306 1.261 . S
C291 O307 1.242 . S
C292 C291 1.506 . S
C292 C293 1.358 . S
C292 C297 1.382 . S
C293 C292 1.358 . S
C293 C294 1.385 . S
C293 H316 0.930 . S
C294 C293 1.385 . S
C294 C295 1.395 . S
C294 H317 0.929 . S
C295 C294 1.395 . S
C295 C296 1.335 . S
C296 C295 1.335 . S
C296 C297 1.398 . S
C296 H318 0.930 . S
C297 C292 1.382 . S
C297 C296 1.398 . S
C297 H319 0.929 . S
C298 O308 1.271 . S
C298 O309 1.251 . S
C299 O310 1.252 . S
C299 O311 1.272 . S
O300 Sm280 2.543 . S
O300 C282 1.261 . S
O301 Sm280 2.450 . S
O301 C282 1.242 . S
O302 Sm280 2.681 . S
O302 Sm281 2.386 . S
O302 C289 1.271 . S
O303 Sm280 2.464 . S
O303 C289 1.251 . S
O304 Sm280 2.396 . S
O304 C290 1.252 . S
O305 Sm281 2.408 . S
O305 C290 1.272 . S
O306 Sm281 2.543 1_554 S
O306 C291 1.261 . S
O307 Sm281 2.450 1_554 S
O307 C291 1.242 . S
O308 Sm280 2.386 . S
O308 Sm281 2.681 . S
O308 C298 1.271 . S
O309 Sm281 2.464 . S
O309 C298 1.251 . S
O310 Sm281 2.396 . S
O310 C299 1.252 . S
O311 Sm280 2.408 . S
O311 C299 1.272 . S
H312 C284 0.930 . S
H313 C285 0.929 . S
H314 C287 0.930 . S
H315 C288 0.929 . S
H316 C293 0.930 . S
H317 C294 0.929 . S
H318 C296 0.930 . S
H319 C297 0.929 . S
Sm320 C322 2.846 . S
Sm320 O340 2.543 . S
Sm320 O341 2.450 . S
Sm320 O342 2.681 . S
Sm320 O343 2.464 . S
Sm320 O344 2.396 . S
Sm320 O348 2.386 . S
Sm320 O351 2.408 . S
Sm321 C331 2.846 . S
Sm321 O342 2.386 . S
Sm321 O345 2.408 . S
Sm321 O346 2.543 . S
Sm321 O347 2.450 . S
Sm321 O348 2.681 . S
Sm321 O349 2.464 . S
Sm321 O350 2.396 . S
C322 Sm320 2.846 . S
C322 C323 1.506 . S
C322 O340 1.261 . S
C322 O341 1.242 . S
C323 C322 1.506 . S
C323 C324 1.358 . S
C323 C328 1.382 . S
C324 C323 1.358 . S
C324 C325 1.385 . S
C324 H352 0.930 . S
C325 C324 1.385 . S
C325 C326 1.395 . S
C325 H353 0.929 . S
C326 C325 1.395 . S
C326 C327 1.335 . S
C327 C326 1.335 . S
C327 C328 1.398 . S
C327 H354 0.930 . S
C328 C323 1.382 . S
C328 C327 1.398 . S
C328 H355 0.929 . S
C329 O342 1.271 . S
C329 O343 1.251 . S
C330 O344 1.252 . S
C330 O345 1.272 . S
C331 Sm321 2.846 . S
C331 C332 1.506 . S
C331 O346 1.261 . S
C331 O347 1.242 . S
C332 C331 1.506 . S
C332 C333 1.358 . S
C332 C337 1.382 . S
C333 C332 1.358 . S
C333 C334 1.385 . S
C333 H356 0.930 . S
C334 C333 1.385 . S
C334 C335 1.395 . S
C334 H357 0.929 . S
C335 C334 1.395 . S
C335 C336 1.335 . S
C336 C335 1.335 . S
C336 C337 1.398 . S
C336 H358 0.930 . S
C337 C332 1.382 . S
C337 C336 1.398 . S
C337 H359 0.929 . S
C338 O348 1.271 . S
C338 O349 1.251 . S
C339 O350 1.252 . S
C339 O351 1.272 . S
O340 Sm320 2.543 . S
O340 C322 1.261 . S
O341 Sm320 2.450 . S
O341 C322 1.242 . S
O342 Sm320 2.681 . S
O342 Sm321 2.386 . S
O342 C329 1.271 . S
O343 Sm320 2.464 . S
O343 C329 1.251 . S
O344 Sm320 2.396 . S
O344 C330 1.252 . S
O345 Sm321 2.408 . S
O345 C330 1.272 . S
O346 Sm321 2.543 . S
O346 C331 1.261 . S
O347 Sm321 2.450 . S
O347 C331 1.242 . S
O348 Sm320 2.386 . S
O348 Sm321 2.681 . S
O348 C338 1.271 . S
O349 Sm321 2.464 . S
O349 C338 1.251 . S
O350 Sm321 2.396 . S
O350 C339 1.252 . S
O351 Sm320 2.408 . S
O351 C339 1.272 . S
H352 C324 0.930 . S
H353 C325 0.929 . S
H354 C327 0.930 . S
H355 C328 0.929 . S
H356 C333 0.930 . S
H357 C334 0.929 . S
H358 C336 0.930 . S
H359 C337 0.929 . S
Sm360 C362 2.846 . S
Sm360 O380 2.543 . S
Sm360 O381 2.450 . S
Sm360 O382 2.681 . S
Sm360 O383 2.464 . S
Sm360 O384 2.396 . S
Sm360 O388 2.386 . S
Sm360 O391 2.408 . S
Sm361 C371 2.846 . S
Sm361 O382 2.386 . S
Sm361 O385 2.408 . S
Sm361 O386 2.543 . S
Sm361 O387 2.450 . S
Sm361 O388 2.681 . S
Sm361 O389 2.464 . S
Sm361 O390 2.396 . S
C362 Sm360 2.846 . S
C362 C363 1.506 . S
C362 O380 1.261 . S
C362 O381 1.242 . S
C363 C362 1.506 . S
C363 C364 1.358 . S
C363 C368 1.382 . S
C364 C363 1.358 . S
C364 C365 1.385 . S
C364 H392 0.930 . S
C365 C364 1.385 . S
C365 C366 1.395 . S
C365 H393 0.929 . S
C366 C365 1.395 . S
C366 C367 1.335 . S
C367 C366 1.335 . S
C367 C368 1.398 . S
C367 H394 0.930 . S
C368 C363 1.382 . S
C368 C367 1.398 . S
C368 H395 0.929 . S
C369 O382 1.271 . S
C369 O383 1.251 . S
C370 O384 1.252 . S
C370 O385 1.272 . S
C371 Sm361 2.846 . S
C371 C372 1.506 . S
C371 O386 1.261 . S
C371 O387 1.242 . S
C372 C371 1.506 . S
C372 C373 1.358 . S
C372 C377 1.382 . S
C373 C372 1.358 . S
C373 C374 1.385 . S
C373 H396 0.930 . S
C374 C373 1.385 . S
C374 C375 1.395 . S
C374 H397 0.929 . S
C375 C374 1.395 . S
C375 C376 1.335 . S
C376 C375 1.335 . S
C376 C377 1.398 . S
C376 H398 0.930 . S
C377 C372 1.382 . S
C377 C376 1.398 . S
C377 H399 0.929 . S
C378 O388 1.271 . S
C378 O389 1.251 . S
C379 O390 1.252 . S
C379 O391 1.272 . S
O380 Sm360 2.543 . S
O380 C362 1.261 . S
O381 Sm360 2.450 . S
O381 C362 1.242 . S
O382 Sm360 2.681 . S
O382 Sm361 2.386 . S
O382 C369 1.271 . S
O383 Sm360 2.464 . S
O383 C369 1.251 . S
O384 Sm360 2.396 . S
O384 C370 1.252 . S
O385 Sm361 2.408 . S
O385 C370 1.272 . S
O386 Sm361 2.543 . S
O386 C371 1.261 . S
O387 Sm361 2.450 . S
O387 C371 1.242 . S
O388 Sm360 2.386 . S
O388 Sm361 2.681 . S
O388 C378 1.271 . S
O389 Sm361 2.464 . S
O389 C378 1.251 . S
O390 Sm361 2.396 . S
O390 C379 1.252 . S
O391 Sm360 2.408 . S
O391 C379 1.272 . S
H392 C364 0.930 . S
H393 C365 0.929 . S
H394 C367 0.930 . S
H395 C368 0.929 . S
H396 C373 0.930 . S
H397 C374 0.929 . S
H398 C376 0.930 . S
H399 C377 0.929 . S
Sm400 C402 2.846 . S
Sm400 O420 2.543 . S
Sm400 O421 2.450 . S
Sm400 O422 2.681 . S
Sm400 O423 2.464 . S
Sm400 O424 2.396 . S
Sm400 O428 2.386 . S
Sm400 O431 2.408 . S
Sm401 C411 2.846 . S
Sm401 O422 2.386 . S
Sm401 O425 2.408 . S
Sm401 O426 2.543 . S
Sm401 O427 2.450 . S
Sm401 O428 2.681 . S
Sm401 O429 2.464 . S
Sm401 O430 2.396 . S
C402 Sm400 2.846 . S
C402 C403 1.506 . S
C402 O420 1.261 . S
C402 O421 1.242 . S
C403 C402 1.506 . S
C403 C404 1.358 . S
C403 C408 1.382 . S
C404 C403 1.358 . S
C404 C405 1.385 . S
C404 H432 0.930 . S
C405 C404 1.385 . S
C405 C406 1.395 . S
C405 H433 0.929 . S
C406 C405 1.395 . S
C406 C407 1.335 . S
C407 C406 1.335 . S
C407 C408 1.398 . S
C407 H434 0.930 . S
C408 C403 1.382 . S
C408 C407 1.398 . S
C408 H435 0.929 . S
C409 O422 1.271 . S
C409 O423 1.251 . S
C410 O424 1.252 . S
C410 O425 1.272 . S
C411 Sm401 2.846 . S
C411 C412 1.506 . S
C411 O426 1.261 . S
C411 O427 1.242 . S
C412 C411 1.506 . S
C412 C413 1.358 . S
C412 C417 1.382 . S
C413 C412 1.358 . S
C413 C414 1.385 . S
C413 H436 0.930 . S
C414 C413 1.385 . S
C414 C415 1.395 . S
C414 H437 0.929 . S
C415 C414 1.395 . S
C415 C416 1.335 . S
C416 C415 1.335 . S
C416 C417 1.398 . S
C416 H438 0.930 . S
C417 C412 1.382 . S
C417 C416 1.398 . S
C417 H439 0.929 . S
C418 O428 1.271 . S
C418 O429 1.251 . S
C419 O430 1.252 . S
C419 O431 1.272 . S
O420 Sm400 2.543 . S
O420 C402 1.261 . S
O421 Sm400 2.450 . S
O421 C402 1.242 . S
O422 Sm400 2.681 . S
O422 Sm401 2.386 . S
O422 C409 1.271 . S
O423 Sm400 2.464 . S
O423 C409 1.251 . S
O424 Sm400 2.396 . S
O424 C410 1.252 . S
O425 Sm401 2.408 . S
O425 C410 1.272 . S
O426 Sm401 2.543 . S
O426 C411 1.261 . S
O427 Sm401 2.450 . S
O427 C411 1.242 . S
O428 Sm400 2.386 . S
O428 Sm401 2.681 . S
O428 C418 1.271 . S
O429 Sm401 2.464 . S
O429 C418 1.251 . S
O430 Sm401 2.396 . S
O430 C419 1.252 . S
O431 Sm400 2.408 . S
O431 C419 1.272 . S
H432 C404 0.930 . S
H433 C405 0.929 . S
H434 C407 0.930 . S
H435 C408 0.929 . S
H436 C413 0.930 . S
H437 C414 0.929 . S
H438 C416 0.930 . S
H439 C417 0.929 . S
Sm440 C442 2.846 . S
Sm440 O460 2.543 . S
Sm440 O461 2.450 . S
Sm440 O462 2.681 . S
Sm440 O463 2.464 . S
Sm440 O464 2.396 . S
Sm440 O468 2.386 . S
Sm440 O471 2.408 . S
Sm441 C451 2.846 . S
Sm441 O462 2.386 . S
Sm441 O465 2.408 . S
Sm441 O466 2.543 . S
Sm441 O467 2.450 . S
Sm441 O468 2.681 . S
Sm441 O469 2.464 . S
Sm441 O470 2.396 . S
C442 Sm440 2.846 . S
C442 C443 1.506 . S
C442 O460 1.261 . S
C442 O461 1.242 . S
C443 C442 1.506 . S
C443 C444 1.358 . S
C443 C448 1.382 . S
C444 C443 1.358 . S
C444 C445 1.385 . S
C444 H472 0.930 . S
C445 C444 1.385 . S
C445 C446 1.395 . S
C445 H473 0.929 . S
C446 C445 1.395 . S
C446 C447 1.335 . S
C447 C446 1.335 . S
C447 C448 1.398 . S
C447 H474 0.930 . S
C448 C443 1.382 . S
C448 C447 1.398 . S
C448 H475 0.929 . S
C449 O462 1.271 . S
C449 O463 1.251 . S
C450 O464 1.252 . S
C450 O465 1.272 . S
C451 Sm441 2.846 . S
C451 C452 1.506 . S
C451 O466 1.261 . S
C451 O467 1.242 . S
C452 C451 1.506 . S
C452 C453 1.358 . S
C452 C457 1.382 . S
C453 C452 1.358 . S
C453 C454 1.385 . S
C453 H476 0.930 . S
C454 C453 1.385 . S
C454 C455 1.395 . S
C454 H477 0.929 . S
C455 C454 1.395 . S
C455 C456 1.335 . S
C456 C455 1.335 . S
C456 C457 1.398 . S
C456 H478 0.930 . S
C457 C452 1.382 . S
C457 C456 1.398 . S
C457 H479 0.929 . S
C458 O468 1.271 . S
C458 O469 1.251 . S
C459 O470 1.252 . S
C459 O471 1.272 . S
O460 Sm440 2.543 . S
O460 C442 1.261 . S
O461 Sm440 2.450 . S
O461 C442 1.242 . S
O462 Sm440 2.681 . S
O462 Sm441 2.386 . S
O462 C449 1.271 . S
O463 Sm440 2.464 . S
O463 C449 1.251 . S
O464 Sm440 2.396 . S
O464 C450 1.252 . S
O465 Sm441 2.408 . S
O465 C450 1.272 . S
O466 Sm441 2.543 . S
O466 C451 1.261 . S
O467 Sm441 2.450 . S
O467 C451 1.242 . S
O468 Sm440 2.386 . S
O468 Sm441 2.681 . S
O468 C458 1.271 . S
O469 Sm441 2.464 . S
O469 C458 1.251 . S
O470 Sm441 2.396 . S
O470 C459 1.252 . S
O471 Sm440 2.408 . S
O471 C459 1.272 . S
H472 C444 0.930 . S
H473 C445 0.929 . S
H474 C447 0.930 . S
H475 C448 0.929 . S
H476 C453 0.930 . S
H477 C454 0.929 . S
H478 C456 0.930 . S
H479 C457 0.929 . S
Sm480 C482 2.846 . S
Sm480 O500 2.543 . S
Sm480 O501 2.450 . S
Sm480 O502 2.681 . S
Sm480 O503 2.464 . S
Sm480 O504 2.396 . S
Sm480 O508 2.386 . S
Sm480 O511 2.408 . S
Sm481 C491 2.846 . S
Sm481 O502 2.386 . S
Sm481 O505 2.408 . S
Sm481 O506 2.543 . S
Sm481 O507 2.450 . S
Sm481 O508 2.681 . S
Sm481 O509 2.464 . S
Sm481 O510 2.396 . S
C482 Sm480 2.846 . S
C482 C483 1.506 . S
C482 O500 1.261 . S
C482 O501 1.242 . S
C483 C482 1.506 . S
C483 C484 1.358 . S
C483 C488 1.382 . S
C484 C483 1.358 . S
C484 C485 1.385 . S
C484 H512 0.930 . S
C485 C484 1.385 . S
C485 C486 1.395 . S
C485 H513 0.929 . S
C486 C485 1.395 . S
C486 C487 1.335 . S
C487 C486 1.335 . S
C487 C488 1.398 . S
C487 H514 0.930 . S
C488 C483 1.382 . S
C488 C487 1.398 . S
C488 H515 0.929 . S
C489 O502 1.271 . S
C489 O503 1.251 . S
C490 O504 1.252 . S
C490 O505 1.272 . S
C491 Sm481 2.846 . S
C491 C492 1.506 . S
C491 O506 1.261 . S
C491 O507 1.242 . S
C492 C491 1.506 . S
C492 C493 1.358 . S
C492 C497 1.382 . S
C493 C492 1.358 . S
C493 C494 1.385 . S
C493 H516 0.930 . S
C494 C493 1.385 . S
C494 C495 1.395 . S
C494 H517 0.929 . S
C495 C494 1.395 . S
C495 C496 1.335 . S
C496 C495 1.335 . S
C496 C497 1.398 . S
C496 H518 0.930 . S
C497 C492 1.382 . S
C497 C496 1.398 . S
C497 H519 0.929 . S
C498 O508 1.271 . S
C498 O509 1.251 . S
C499 O510 1.252 . S
C499 O511 1.272 . S
O500 Sm480 2.543 . S
O500 C482 1.261 . S
O501 Sm480 2.450 . S
O501 C482 1.242 . S
O502 Sm480 2.681 . S
O502 Sm481 2.386 . S
O502 C489 1.271 . S
O503 Sm480 2.464 . S
O503 C489 1.251 . S
O504 Sm480 2.396 . S
O504 C490 1.252 . S
O505 Sm481 2.408 . S
O505 C490 1.272 . S
O506 Sm481 2.543 . S
O506 C491 1.261 . S
O507 Sm481 2.450 . S
O507 C491 1.242 . S
O508 Sm480 2.386 . S
O508 Sm481 2.681 . S
O508 C498 1.271 . S
O509 Sm481 2.464 . S
O509 C498 1.251 . S
O510 Sm481 2.396 . S
O510 C499 1.252 . S
O511 Sm480 2.408 . S
O511 C499 1.272 . S
H512 C484 0.930 . S
H513 C485 0.929 . S
H514 C487 0.930 . S
H515 C488 0.929 . S
H516 C493 0.930 . S
H517 C494 0.929 . S
H518 C496 0.930 . S
H519 C497 0.929 . S
Sm520 C522 2.846 . S
Sm520 O540 2.543 . S
Sm520 O541 2.450 . S
Sm520 O542 2.681 . S
Sm520 O543 2.464 . S
Sm520 O544 2.396 . S
Sm520 O548 2.386 . S
Sm520 O551 2.408 . S
Sm521 C531 2.846 . S
Sm521 O542 2.386 . S
Sm521 O545 2.408 . S
Sm521 O546 2.543 . S
Sm521 O547 2.450 . S
Sm521 O548 2.681 . S
Sm521 O549 2.464 . S
Sm521 O550 2.396 . S
C522 Sm520 2.846 . S
C522 C523 1.506 . S
C522 O540 1.261 . S
C522 O541 1.242 . S
C523 C522 1.506 . S
C523 C524 1.358 . S
C523 C528 1.382 . S
C524 C523 1.358 . S
C524 C525 1.385 . S
C524 H552 0.930 . S
C525 C524 1.385 . S
C525 C526 1.395 . S
C525 H553 0.929 . S
C526 C525 1.395 . S
C526 C527 1.335 . S
C527 C526 1.335 . S
C527 C528 1.398 . S
C527 H554 0.930 . S
C528 C523 1.382 . S
C528 C527 1.398 . S
C528 H555 0.929 . S
C529 O542 1.271 . S
C529 O543 1.251 . S
C530 O544 1.252 . S
C530 O545 1.272 . S
C531 Sm521 2.846 . S
C531 C532 1.506 . S
C531 O546 1.261 . S
C531 O547 1.242 . S
C532 C531 1.506 . S
C532 C533 1.358 . S
C532 C537 1.382 . S
C533 C532 1.358 . S
C533 C534 1.385 . S
C533 H556 0.930 . S
C534 C533 1.385 . S
C534 C535 1.395 . S
C534 H557 0.929 . S
C535 C534 1.395 . S
C535 C536 1.335 . S
C536 C535 1.335 . S
C536 C537 1.398 . S
C536 H558 0.930 . S
C537 C532 1.382 . S
C537 C536 1.398 . S
C537 H559 0.929 . S
C538 O548 1.271 . S
C538 O549 1.251 . S
C539 O550 1.252 . S
C539 O551 1.272 . S
O540 Sm520 2.543 . S
O540 C522 1.261 . S
O541 Sm520 2.450 . S
O541 C522 1.242 . S
O542 Sm520 2.681 . S
O542 Sm521 2.386 . S
O542 C529 1.271 . S
O543 Sm520 2.464 . S
O543 C529 1.251 . S
O544 Sm520 2.396 . S
O544 C530 1.252 . S
O545 Sm521 2.408 . S
O545 C530 1.272 . S
O546 Sm521 2.543 . S
O546 C531 1.261 . S
O547 Sm521 2.450 . S
O547 C531 1.242 . S
O548 Sm520 2.386 . S
O548 Sm521 2.681 . S
O548 C538 1.271 . S
O549 Sm521 2.464 . S
O549 C538 1.251 . S
O550 Sm521 2.396 . S
O550 C539 1.252 . S
O551 Sm520 2.408 . S
O551 C539 1.272 . S
H552 C524 0.930 . S
H553 C525 0.929 . S
H554 C527 0.930 . S
H555 C528 0.929 . S
H556 C533 0.930 . S
H557 C534 0.929 . S
H558 C536 0.930 . S
H559 C537 0.929 . S
Sm560 C562 2.846 . S
Sm560 O580 2.543 . S
Sm560 O581 2.450 . S
Sm560 O582 2.681 . S
Sm560 O583 2.464 . S
Sm560 O584 2.396 . S
Sm560 O588 2.386 . S
Sm560 O591 2.408 . S
Sm561 C571 2.846 . S
Sm561 O582 2.386 . S
Sm561 O585 2.408 . S
Sm561 O586 2.543 . S
Sm561 O587 2.450 . S
Sm561 O588 2.681 . S
Sm561 O589 2.464 . S
Sm561 O590 2.396 . S
C562 Sm560 2.846 . S
C562 C563 1.506 . S
C562 O580 1.261 . S
C562 O581 1.242 . S
C563 C562 1.506 . S
C563 C564 1.358 . S
C563 C568 1.382 . S
C564 C563 1.358 . S
C564 C565 1.385 . S
C564 H592 0.930 . S
C565 C564 1.385 . S
C565 C566 1.395 . S
C565 H593 0.929 . S
C566 C565 1.395 . S
C566 C567 1.335 . S
C567 C566 1.335 . S
C567 C568 1.398 . S
C567 H594 0.930 . S
C568 C563 1.382 . S
C568 C567 1.398 . S
C568 H595 0.929 . S
C569 O582 1.271 . S
C569 O583 1.251 . S
C570 O584 1.252 . S
C570 O585 1.272 . S
C571 Sm561 2.846 . S
C571 C572 1.506 . S
C571 O586 1.261 . S
C571 O587 1.242 . S
C572 C571 1.506 . S
C572 C573 1.358 . S
C572 C577 1.382 . S
C573 C572 1.358 . S
C573 C574 1.385 . S
C573 H596 0.930 . S
C574 C573 1.385 . S
C574 C575 1.395 . S
C574 H597 0.929 . S
C575 C574 1.395 . S
C575 C576 1.335 . S
C576 C575 1.335 . S
C576 C577 1.398 . S
C576 H598 0.930 . S
C577 C572 1.382 . S
C577 C576 1.398 . S
C577 H599 0.929 . S
C578 O588 1.271 . S
C578 O589 1.251 . S
C579 O590 1.252 . S
C579 O591 1.272 . S
O580 Sm560 2.543 . S
O580 C562 1.261 . S
O581 Sm560 2.450 . S
O581 C562 1.242 . S
O582 Sm560 2.681 . S
O582 Sm561 2.386 . S
O582 C569 1.271 . S
O583 Sm560 2.464 . S
O583 C569 1.251 . S
O584 Sm560 2.396 . S
O584 C570 1.252 . S
O585 Sm561 2.408 . S
O585 C570 1.272 . S
O586 Sm561 2.543 . S
O586 C571 1.261 . S
O587 Sm561 2.450 . S
O587 C571 1.242 . S
O588 Sm560 2.386 . S
O588 Sm561 2.681 . S
O588 C578 1.271 . S
O589 Sm561 2.464 . S
O589 C578 1.251 . S
O590 Sm561 2.396 . S
O590 C579 1.252 . S
O591 Sm560 2.408 . S
O591 C579 1.272 . S
H592 C564 0.930 . S
H593 C565 0.929 . S
H594 C567 0.930 . S
H595 C568 0.929 . S
H596 C573 0.930 . S
H597 C574 0.929 . S
H598 C576 0.930 . S
H599 C577 0.929 . S
Sm600 C602 2.846 . S
Sm600 O620 2.543 . S
Sm600 O621 2.450 . S
Sm600 O622 2.681 . S
Sm600 O623 2.464 . S
Sm600 O624 2.396 . S
Sm600 O628 2.386 . S
Sm600 O631 2.408 . S
Sm601 C611 2.846 . S
Sm601 O622 2.386 . S
Sm601 O625 2.408 . S
Sm601 O626 2.543 . S
Sm601 O627 2.450 . S
Sm601 O628 2.681 . S
Sm601 O629 2.464 . S
Sm601 O630 2.396 . S
C602 Sm600 2.846 . S
C602 C603 1.506 . S
C602 O620 1.261 . S
C602 O621 1.242 . S
C603 C602 1.506 . S
C603 C604 1.358 . S
C603 C608 1.382 . S
C604 C603 1.358 . S
C604 C605 1.385 . S
C604 H632 0.930 . S
C605 C604 1.385 . S
C605 C606 1.395 . S
C605 H633 0.929 . S
C606 C605 1.395 . S
C606 C607 1.335 . S
C607 C606 1.335 . S
C607 C608 1.398 . S
C607 H634 0.930 . S
C608 C603 1.382 . S
C608 C607 1.398 . S
C608 H635 0.929 . S
C609 O622 1.271 . S
C609 O623 1.251 . S
C610 O624 1.252 . S
C610 O625 1.272 . S
C611 Sm601 2.846 . S
C611 C612 1.506 . S
C611 O626 1.261 . S
C611 O627 1.242 . S
C612 C611 1.506 . S
C612 C613 1.358 . S
C612 C617 1.382 . S
C613 C612 1.358 . S
C613 C614 1.385 . S
C613 H636 0.930 . S
C614 C613 1.385 . S
C614 C615 1.395 . S
C614 H637 0.929 . S
C615 C614 1.395 . S
C615 C616 1.335 . S
C616 C615 1.335 . S
C616 C617 1.398 . S
C616 H638 0.930 . S
C617 C612 1.382 . S
C617 C616 1.398 . S
C617 H639 0.929 . S
C618 O628 1.271 . S
C618 O629 1.251 . S
C619 O630 1.252 . S
C619 O631 1.272 . S
O620 Sm600 2.543 . S
O620 C602 1.261 . S
O621 Sm600 2.450 . S
O621 C602 1.242 . S
O622 Sm600 2.681 . S
O622 Sm601 2.386 . S
O622 C609 1.271 . S
O623 Sm600 2.464 . S
O623 C609 1.251 . S
O624 Sm600 2.396 . S
O624 C610 1.252 . S
O625 Sm601 2.408 . S
O625 C610 1.272 . S
O626 Sm601 2.543 . S
O626 C611 1.261 . S
O627 Sm601 2.450 . S
O627 C611 1.242 . S
O628 Sm600 2.386 . S
O628 Sm601 2.681 . S
O628 C618 1.271 . S
O629 Sm601 2.464 . S
O629 C618 1.251 . S
O630 Sm601 2.396 . S
O630 C619 1.252 . S
O631 Sm600 2.408 . S
O631 C619 1.272 . S
H632 C604 0.930 . S
H633 C605 0.929 . S
H634 C607 0.930 . S
H635 C608 0.929 . S
H636 C613 0.930 . S
H637 C614 0.929 . S
H638 C616 0.930 . S
H639 C617 0.929 . S
H640 C648 0.929 . S
H641 C650 0.930 . S
H642 C652 0.930 . S
H643 C655 0.929 . S
H644 C658 0.930 . S
H645 C660 0.960 . S
H646 C660 0.960 . S
H647 C660 0.960 . S
C648 H640 0.929 . S
C648 C649 1.377 . S
C648 C650 1.384 . S
C649 C648 1.377 . S
C649 C655 1.390 . S
C650 H641 0.930 . S
C650 C648 1.384 . S
C650 C651 1.372 . S
C651 C650 1.372 . S
C651 C652 1.400 . S
C651 C656 1.490 . S
C652 H642 0.930 . S
C652 C651 1.400 . S
C652 C655 1.386 . S
H653 C669 0.930 . S
H654 C670 0.931 . S
C655 H643 0.929 . S
C655 C649 1.390 . S
C655 C652 1.386 . S
C656 C651 1.490 . S
C656 C658 1.395 . S
C656 C659 1.403 . S
H657 C663 0.930 . S
C658 H644 0.930 . S
C658 C656 1.395 . S
C658 C661 1.403 . S
C659 C656 1.403 . S
C659 C660 1.524 . S
C659 C663 1.400 . S
C660 H645 0.960 . S
C660 H646 0.960 . S
C660 H647 0.960 . S
C660 C659 1.524 . S
C661 C658 1.403 . S
C661 C662 1.392 1_565 S
C661 C665 1.495 1_565 S
C662 C661 1.392 1_545 S
C662 C663 1.385 1_545 S
C662 C664 1.478 . S
C663 H657 0.930 . S
C663 C659 1.400 . S
C663 C662 1.385 1_565 S
C664 C662 1.478 . S
C664 C666 1.381 . S
C664 C670 1.383 . S
C665 C661 1.495 1_545 S
C665 H671 0.959 . S
C665 H672 0.961 . S
C665 H673 0.960 . S
C666 C664 1.381 . S
C666 C667 1.394 . S
C666 H674 0.930 . S
C667 C666 1.394 . S
C667 C668 1.383 . S
C667 H675 0.929 . S
C668 C667 1.383 . S
C668 C669 1.377 . S
C669 H653 0.930 . S
C669 C668 1.377 . S
C669 C670 1.379 . S
C670 H654 0.931 . S
C670 C664 1.383 . S
C670 C669 1.379 . S
H671 C665 0.959 . S
H672 C665 0.961 . S
H673 C665 0.960 . S
H674 C666 0.930 . S
H675 C667 0.929 . S
H676 C684 0.929 . S
H677 C686 0.930 . S
H678 C688 0.930 . S
H679 C691 0.929 . S
H680 C694 0.930 . S
H681 C696 0.960 . S
H682 C696 0.960 . S
H683 C696 0.960 . S
C684 H676 0.929 . S
C684 C685 1.377 . S
C684 C686 1.384 . S
C685 C684 1.377 . S
C685 C691 1.390 . S
C686 H677 0.930 . S
C686 C684 1.384 . S
C686 C687 1.372 . S
C687 C686 1.372 . S
C687 C688 1.400 . S
C687 C692 1.490 . S
C688 H678 0.930 . S
C688 C687 1.400 . S
C688 C691 1.386 . S
H689 C705 0.930 . S
H690 C706 0.931 . S
C691 H679 0.929 . S
C691 C685 1.390 . S
C691 C688 1.386 . S
C692 C687 1.490 . S
C692 C694 1.395 . S
C692 C695 1.403 . S
H693 C699 0.930 1_455 S
C694 H680 0.930 . S
C694 C692 1.395 . S
C694 C697 1.403 . S
C695 C692 1.403 . S
C695 C696 1.524 . S
C695 C699 1.400 . S
C696 H681 0.960 . S
C696 H682 0.960 . S
C696 H683 0.960 . S
C696 C695 1.524 . S
C697 C694 1.403 . S
C697 C698 1.392 . S
C697 C701 1.495 . S
C698 C697 1.392 . S
C698 C699 1.385 . S
C698 C700 1.478 1_655 S
C699 H693 0.930 1_655 S
C699 C695 1.400 . S
C699 C698 1.385 . S
C700 C698 1.478 1_455 S
C700 C702 1.381 . S
C700 C706 1.383 . S
C701 C697 1.495 . S
C701 H707 0.959 . S
C701 H708 0.971 . S
C701 H709 0.960 . S
C702 C700 1.381 . S
C702 C703 1.394 . S
C702 H710 0.930 . S
C703 C702 1.394 . S
C703 C704 1.383 . S
C703 H711 0.929 . S
C704 C703 1.383 . S
C704 C705 1.377 . S
C705 H689 0.930 . S
C705 C704 1.377 . S
C705 C706 1.379 . S
C706 H690 0.931 . S
C706 C700 1.383 . S
C706 C705 1.379 . S
H707 C701 0.959 . S
H708 C701 0.971 . S
H709 C701 0.960 . S
H710 C702 0.930 . S
H711 C703 0.929 . S
H712 C720 0.929 . S
H713 C722 0.930 . S
H714 C724 0.930 . S
H715 C727 0.929 . S
H716 C730 0.930 . S
H717 C732 0.960 1_545 S
H718 C732 0.960 . S
H719 C732 0.960 . S
C720 H712 0.929 . S
C720 C721 1.377 . S
C720 C722 1.384 . S
C721 C720 1.377 . S
C721 C727 1.390 . S
C722 H713 0.930 . S
C722 C720 1.384 . S
C722 C723 1.372 . S
C723 C722 1.372 . S
C723 C724 1.400 . S
C723 C728 1.490 1_565 S
C724 H714 0.930 . S
C724 C723 1.400 . S
C724 C727 1.386 . S
H725 C741 0.930 . S
H726 C742 0.931 . S
C727 H715 0.929 . S
C727 C721 1.390 . S
C727 C724 1.386 . S
C728 C723 1.490 1_545 S
C728 C730 1.395 . S
C728 C731 1.403 . S
H729 C735 0.930 . S
C730 H716 0.930 . S
C730 C728 1.395 . S
C730 C733 1.403 . S
C731 C728 1.403 . S
C731 C732 1.524 1_545 S
C731 C735 1.400 . S
C732 H717 0.960 1_565 S
C732 H718 0.960 . S
C732 H719 0.960 . S
C732 C731 1.524 1_565 S
C733 C730 1.403 . S
C733 C734 1.392 . S
C733 C737 1.495 . S
C734 C733 1.392 . S
C734 C735 1.385 . S
C734 C736 1.478 . S
C735 H729 0.930 . S
C735 C731 1.400 . S
C735 C734 1.385 . S
C736 C734 1.478 . S
C736 C738 1.381 . S
C736 C742 1.383 . S
C737 C733 1.495 . S
C737 H743 0.959 . S
C737 H744 0.961 . S
C737 H745 0.960 . S
C738 C736 1.381 . S
C738 C739 1.394 . S
C738 H746 0.930 . S
C739 C738 1.394 . S
C739 C740 1.383 . S
C739 H747 0.929 . S
C740 C739 1.383 . S
C740 C741 1.377 . S
C741 H725 0.930 . S
C741 C740 1.377 . S
C741 C742 1.379 . S
C742 H726 0.931 . S
C742 C736 1.383 . S
C742 C741 1.379 . S
H743 C737 0.959 . S
H744 C737 0.961 . S
H745 C737 0.960 . S
H746 C738 0.930 . S
H747 C739 0.929 . S
H748 C756 0.929 . S
H749 C758 0.930 . S
H750 C760 0.930 . S
H751 C763 0.929 . S
H752 C766 0.930 . S
H753 C768 0.960 . S
H754 C768 0.960 . S
H755 C768 0.960 . S
C756 H748 0.929 . S
C756 C757 1.377 . S
C756 C758 1.384 . S
C757 C756 1.377 . S
C757 C763 1.390 . S
C758 H749 0.930 . S
C758 C756 1.384 . S
C758 C759 1.372 . S
C759 C758 1.372 . S
C759 C760 1.400 . S
C759 C764 1.490 1_655 S
C760 H750 0.930 . S
C760 C759 1.400 . S
C760 C763 1.386 . S
H761 C777 0.930 . S
H762 C778 0.931 . S
C763 H751 0.929 . S
C763 C757 1.390 . S
C763 C760 1.386 . S
C764 C759 1.490 1_455 S
C764 C766 1.395 . S
C764 C767 1.403 . S
H765 C771 0.930 . S
C766 H752 0.930 . S
C766 C764 1.395 . S
C766 C769 1.403 . S
C767 C764 1.403 . S
C767 C768 1.524 1_455 S
C767 C771 1.400 . S
C768 H753 0.960 . S
C768 H754 0.960 . S
C768 H755 0.960 . S
C768 C767 1.524 1_655 S
C769 C766 1.403 . S
C769 C770 1.392 . S
C769 C773 1.495 . S
C770 C769 1.392 . S
C770 C771 1.385 . S
C770 C772 1.478 . S
C771 H765 0.930 . S
C771 C767 1.400 . S
C771 C770 1.385 . S
C772 C770 1.478 . S
C772 C774 1.381 . S
C772 C778 1.383 . S
C773 C769 1.495 . S
C773 H779 0.959 . S
C773 H780 0.961 . S
C773 H781 0.960 . S
C774 C772 1.381 . S
C774 C775 1.394 . S
C774 H782 0.930 . S
C775 C774 1.394 . S
C775 C776 1.383 . S
C775 H783 0.929 . S
C776 C775 1.383 . S
C776 C777 1.377 . S
C777 H761 0.930 . S
C777 C776 1.377 . S
C777 C778 1.379 . S
C778 H762 0.931 . S
C778 C772 1.383 . S
C778 C777 1.379 . S
H779 C773 0.959 . S
H780 C773 0.961 . S
H781 C773 0.960 . S
H782 C774 0.930 . S
H783 C775 0.929 . S
H784 C792 0.929 . S
H785 C794 0.930 . S
H786 C796 0.930 . S
H787 C799 0.929 . S
H788 C802 0.930 . S
H789 C804 0.960 . S
H790 C804 0.960 . S
H791 C804 0.960 . S
C792 H784 0.929 . S
C792 C793 1.377 . S
C792 C794 1.384 . S
C793 C792 1.377 . S
C793 C799 1.390 . S
C794 H785 0.930 . S
C794 C792 1.384 . S
C794 C795 1.372 . S
C795 C794 1.372 . S
C795 C796 1.400 . S
C795 C800 1.490 . S
C796 H786 0.930 . S
C796 C795 1.400 . S
C796 C799 1.386 . S
H797 C813 0.930 . S
H798 C814 0.931 . S
C799 H787 0.929 . S
C799 C793 1.390 . S
C799 C796 1.386 . S
C800 C795 1.490 . S
C800 C802 1.395 . S
C800 C803 1.403 . S
H801 C807 0.930 . S
C802 H788 0.930 . S
C802 C800 1.395 . S
C802 C805 1.403 . S
C803 C800 1.403 . S
C803 C804 1.524 1_554 S
C803 C807 1.400 1_554 S
C804 H789 0.960 . S
C804 H790 0.960 . S
C804 H791 0.960 . S
C804 C803 1.524 1_556 S
C805 C802 1.403 . S
C805 C806 1.392 . S
C805 C809 1.495 . S
C806 C805 1.392 . S
C806 C807 1.385 1_554 S
C806 C808 1.478 1_554 S
C807 H801 0.930 . S
C807 C803 1.400 1_556 S
C807 C806 1.385 1_556 S
C808 C806 1.478 1_556 S
C808 C810 1.381 1_556 S
C808 C814 1.383 . S
C809 C805 1.495 . S
C809 H815 0.959 . S
C809 H816 0.961 . S
C809 H817 0.960 . S
C810 C808 1.381 1_554 S
C810 C811 1.394 1_554 S
C810 H818 0.930 . S
C811 C810 1.394 1_556 S
C811 C812 1.383 . S
C811 H819 0.929 1_556 S
C812 C811 1.383 . S
C812 C813 1.377 . S
C813 H797 0.930 . S
C813 C812 1.377 . S
C813 C814 1.379 . S
C814 H798 0.931 . S
C814 C808 1.383 . S
C814 C813 1.379 . S
H815 C809 0.959 . S
H816 C809 0.961 . S
H817 C809 0.960 . S
H818 C810 0.930 . S
H819 C811 0.929 1_554 S
H820 C828 0.929 . S
H821 C830 0.930 . S
H822 C832 0.930 . S
H823 C835 0.929 1_556 S
H824 C838 0.930 . S
H825 C840 0.960 . S
H826 C840 0.960 1_554 S
H827 C840 0.960 . S
C828 H820 0.929 . S
C828 C829 1.377 . S
C828 C830 1.384 . S
C829 C828 1.377 . S
C829 C835 1.390 . S
C830 H821 0.930 . S
C830 C828 1.384 . S
C830 C831 1.372 . S
C831 C830 1.372 . S
C831 C832 1.400 1_554 S
C831 C836 1.490 1_554 S
C832 H822 0.930 . S
C832 C831 1.400 1_556 S
C832 C835 1.386 1_556 S
H833 C849 0.930 . S
H834 C850 0.931 . S
C835 H823 0.929 1_554 S
C835 C829 1.390 . S
C835 C832 1.386 1_554 S
C836 C831 1.490 1_556 S
C836 C838 1.395 . S
C836 C839 1.403 . S
H837 C843 0.930 . S
C838 H824 0.930 . S
C838 C836 1.395 . S
C838 C841 1.403 . S
C839 C836 1.403 . S
C839 C840 1.524 . S
C839 C843 1.400 . S
C840 H825 0.960 . S
C840 H826 0.960 1_556 S
C840 H827 0.960 . S
C840 C839 1.524 . S
C841 C838 1.403 . S
C841 C842 1.392 . S
C841 C845 1.495 . S
C842 C841 1.392 . S
C842 C843 1.385 . S
C842 C844 1.478 . S
C843 H837 0.930 . S
C843 C839 1.400 . S
C843 C842 1.385 . S
C844 C842 1.478 . S
C844 C846 1.381 . S
C844 C850 1.383 . S
C845 C841 1.495 . S
C845 H851 0.959 . S
C845 H852 0.961 . S
C845 H853 0.960 . S
C846 C844 1.381 . S
C846 C847 1.394 . S
C846 H854 0.930 . S
C847 C846 1.394 . S
C847 C848 1.383 . S
C847 H855 0.929 . S
C848 C847 1.383 . S
C848 C849 1.377 . S
C849 H833 0.930 . S
C849 C848 1.377 . S
C849 C850 1.379 . S
C850 H834 0.931 . S
C850 C844 1.383 . S
C850 C849 1.379 . S
H851 C845 0.959 . S
H852 C845 0.961 . S
H853 C845 0.960 . S
H854 C846 0.930 . S
H855 C847 0.929 . S
H856 C864 0.929 . S
H857 C866 0.930 . S
H858 C868 0.930 . S
H859 C871 0.929 . S
H860 C874 0.930 . S
H861 C876 0.960 . S
H862 C876 0.960 . S
H863 C876 0.960 . S
C864 H856 0.929 . S
C864 C865 1.377 . S
C864 C866 1.384 . S
C865 C864 1.377 . S
C865 C871 1.390 . S
C866 H857 0.930 . S
C866 C864 1.384 . S
C866 C867 1.372 . S
C867 C866 1.372 . S
C867 C868 1.400 . S
C867 C872 1.490 . S
C868 H858 0.930 . S
C868 C867 1.400 . S
C868 C871 1.386 . S
H869 C885 0.930 . S
H870 C886 0.931 1_554 S
C871 H859 0.929 . S
C871 C865 1.390 . S
C871 C868 1.386 . S
C872 C867 1.490 . S
C872 C874 1.395 1_554 S
C872 C875 1.403 . S
H873 C879 0.930 . S
C874 H860 0.930 . S
C874 C872 1.395 1_556 S
C874 C877 1.403 . S
C875 C872 1.403 . S
C875 C876 1.524 . S
C875 C879 1.400 . S
C876 H861 0.960 . S
C876 H862 0.960 . S
C876 H863 0.960 . S
C876 C875 1.524 . S
C877 C874 1.403 . S
C877 C878 1.395 . S
C877 C881 1.495 . S
C878 C877 1.395 . S
C878 C879 1.380 1_556 S
C878 C880 1.479 . S
C879 H873 0.930 . S
C879 C875 1.400 . S
C879 C878 1.380 1_554 S
C880 C878 1.479 . S
C880 C882 1.381 . S
C880 C886 1.383 . S
C881 C877 1.495 . S
C881 H887 0.959 . S
C881 H888 0.961 . S
C881 H889 0.960 . S
C882 C880 1.381 . S
C882 C883 1.394 . S
C882 H890 0.930 . S
C883 C882 1.394 . S
C883 C884 1.383 . S
C883 H891 0.929 . S
C884 C883 1.383 . S
C884 C885 1.377 . S
C885 H869 0.930 . S
C885 C884 1.377 . S
C885 C886 1.379 . S
C886 H870 0.931 1_556 S
C886 C880 1.383 . S
C886 C885 1.379 . S
H887 C881 0.959 . S
H888 C881 0.961 . S
H889 C881 0.960 . S
H890 C882 0.930 . S
H891 C883 0.929 . S
H892 C900 0.929 . S
H893 C902 0.930 . S
H894 C904 0.930 . S
H895 C907 0.929 . S
H896 C910 0.930 . S
H897 C912 0.960 . S
H898 C912 0.960 . S
H899 C912 0.960 . S
C900 H892 0.929 . S
C900 C901 1.377 . S
C900 C902 1.384 . S
C901 C900 1.377 . S
C901 C907 1.390 . S
C902 H893 0.930 . S
C902 C900 1.384 . S
C902 C903 1.372 . S
C903 C902 1.372 . S
C903 C904 1.400 . S
C903 C908 1.490 1_554 S
C904 H894 0.930 . S
C904 C903 1.400 . S
C904 C907 1.386 . S
H905 C921 0.930 . S
H906 C922 0.931 . S
C907 H895 0.929 . S
C907 C901 1.390 . S
C907 C904 1.386 . S
C908 C903 1.490 1_556 S
C908 C910 1.395 . S
C908 C911 1.403 1_556 S
H909 C915 0.930 1_554 S
C910 H896 0.930 . S
C910 C908 1.395 . S
C910 C913 1.403 . S
C911 C908 1.403 1_554 S
C911 C912 1.524 . S
C911 C915 1.400 1_554 S
C912 H897 0.960 . S
C912 H898 0.960 . S
C912 H899 0.960 . S
C912 C911 1.524 . S
C913 C910 1.403 . S
C913 C914 1.392 . S
C913 C917 1.495 . S
C914 C913 1.392 . S
C914 C915 1.385 . S
C914 C916 1.478 . S
C915 H909 0.930 1_556 S
C915 C911 1.400 1_556 S
C915 C914 1.385 . S
C916 C914 1.478 . S
C916 C918 1.381 . S
C916 C922 1.383 . S
C917 C913 1.495 . S
C917 H923 0.959 . S
C917 H924 0.961 . S
C917 H925 0.960 . S
C918 C916 1.381 . S
C918 C919 1.394 . S
C918 H926 0.930 . S
C919 C918 1.394 . S
C919 C920 1.383 . S
C919 H927 0.929 . S
C920 C919 1.383 . S
C920 C921 1.377 . S
C921 H905 0.930 . S
C921 C920 1.377 . S
C921 C922 1.379 . S
C922 H906 0.931 . S
C922 C916 1.383 . S
C922 C921 1.379 . S
H923 C917 0.959 . S
H924 C917 0.961 . S
H925 C917 0.960 . S
H926 C918 0.930 . S
H927 C919 0.929 . S
H928 C936 0.929 . S
H929 C938 0.930 . S
H930 C940 0.930 . S
H931 C943 0.929 . S
H932 C946 0.930 . S
H933 C948 0.960 . S
H934 C948 0.960 . S
H935 C948 0.960 . S
C936 H928 0.929 . S
C936 C937 1.377 . S
C936 C938 1.384 . S
C937 C936 1.377 . S
C937 C943 1.390 . S
C938 H929 0.930 . S
C938 C936 1.384 . S
C938 C939 1.372 . S
C939 C938 1.372 . S
C939 C940 1.400 . S
C939 C944 1.490 . S
C940 H930 0.930 . S
C940 C939 1.400 . S
C940 C943 1.386 . S
H941 C957 0.930 . S
H942 C958 0.931 . S
C943 H931 0.929 . S
C943 C937 1.390 . S
C943 C940 1.386 . S
C944 C939 1.490 . S
C944 C946 1.395 . S
C944 C947 1.403 . S
H945 C951 0.930 . S
C946 H932 0.930 . S
C946 C944 1.395 . S
C946 C949 1.403 . S
C947 C944 1.403 . S
C947 C948 1.524 . S
C947 C951 1.400 . S
C948 H933 0.960 . S
C948 H934 0.960 . S
C948 H935 0.960 . S
C948 C947 1.524 . S
C949 C946 1.403 . S
C949 C950 1.392 . S
C949 C953 1.495 . S
C950 C949 1.392 . S
C950 C951 1.385 . S
C950 C952 1.478 . S
C951 H945 0.930 . S
C951 C947 1.400 . S
C951 C950 1.385 . S
C952 C950 1.478 . S
C952 C954 1.381 . S
C952 C958 1.383 . S
C953 C949 1.495 . S
C953 H959 0.959 . S
C953 H960 0.961 . S
C953 H961 0.960 . S
C954 C952 1.381 . S
C954 C955 1.394 . S
C954 H962 0.930 . S
C955 C954 1.394 . S
C955 C956 1.383 . S
C955 H963 0.929 . S
C956 C955 1.383 . S
C956 C957 1.377 . S
C957 H941 0.930 . S
C957 C956 1.377 . S
C957 C958 1.379 . S
C958 H942 0.931 . S
C958 C952 1.383 . S
C958 C957 1.379 . S
H959 C953 0.959 . S
H960 C953 0.961 . S
H961 C953 0.960 . S
H962 C954 0.930 . S
H963 C955 0.929 . S
H964 C972 0.929 . S
H965 C974 0.930 . S
H966 C976 0.930 . S
H967 C979 0.929 . S
H968 C982 0.930 . S
H969 C984 0.960 . S
H970 C984 0.960 . S
H971 C984 0.960 . S
C972 H964 0.929 . S
C972 C973 1.377 . S
C972 C974 1.384 . S
C973 C972 1.377 . S
C973 C979 1.390 . S
C974 H965 0.930 . S
C974 C972 1.384 . S
C974 C975 1.372 . S
C975 C974 1.372 . S
C975 C976 1.400 . S
C975 C980 1.490 . S
C976 H966 0.930 . S
C976 C975 1.400 . S
C976 C979 1.386 . S
H977 C993 0.930 . S
H978 C994 0.931 . S
C979 H967 0.929 . S
C979 C973 1.390 . S
C979 C976 1.386 . S
C980 C975 1.490 . S
C980 C982 1.395 . S
C980 C983 1.403 . S
H981 C987 0.930 . S
C982 H968 0.930 . S
C982 C980 1.395 . S
C982 C985 1.403 . S
C983 C980 1.403 . S
C983 C984 1.524 . S
C983 C987 1.400 . S
C984 H969 0.960 . S
C984 H970 0.960 . S
C984 H971 0.960 . S
C984 C983 1.524 . S
C985 C982 1.403 . S
C985 C986 1.392 . S
C985 C989 1.495 . S
C986 C985 1.392 . S
C986 C987 1.385 . S
C986 C988 1.478 . S
C987 H981 0.930 . S
C987 C983 1.400 . S
C987 C986 1.385 . S
C988 C986 1.478 . S
C988 C990 1.381 . S
C988 C994 1.383 . S
C989 C985 1.495 . S
C989 H995 0.959 . S
C989 H996 0.961 . S
C989 H997 0.960 . S
C990 C988 1.381 . S
C990 C991 1.394 . S
C990 H998 0.930 . S
C991 C990 1.394 . S
C991 C992 1.383 . S
C991 H999 0.929 . S
C992 C991 1.383 . S
C992 C993 1.377 . S
C993 H977 0.930 . S
C993 C992 1.377 . S
C993 C994 1.379 . S
C994 H978 0.931 . S
C994 C988 1.383 . S
C994 C993 1.379 . S
H995 C989 0.959 . S
H996 C989 0.961 . S
H997 C989 0.960 . S
H998 C990 0.930 . S
H999 C991 0.929 . S
H1000 C1008 0.929 . S
H1001 C1010 0.930 . S
H1002 C1012 0.930 . S
H1003 C1015 0.929 . S
H1004 C1018 0.930 . S
H1005 C1020 0.960 . S
H1006 C1020 0.960 . S
H1007 C1020 0.960 . S
C1008 H1000 0.929 . S
C1008 C1009 1.377 . S
C1008 C1010 1.384 . S
C1009 C1008 1.377 . S
C1009 C1015 1.390 . S
C1010 H1001 0.930 . S
C1010 C1008 1.384 . S
C1010 C1011 1.372 . S
C1011 C1010 1.372 . S
C1011 C1012 1.400 . S
C1011 C1016 1.490 . S
C1012 H1002 0.930 . S
C1012 C1011 1.400 . S
C1012 C1015 1.386 . S
H1013 C1029 0.930 . S
H1014 C1030 0.931 . S
C1015 H1003 0.929 . S
C1015 C1009 1.390 . S
C1015 C1012 1.386 . S
C1016 C1011 1.490 . S
C1016 C1018 1.395 . S
C1016 C1019 1.403 . S
H1017 C1023 0.930 . S
C1018 H1004 0.930 . S
C1018 C1016 1.395 . S
C1018 C1021 1.403 . S
C1019 C1016 1.403 . S
C1019 C1020 1.524 . S
C1019 C1023 1.400 . S
C1020 H1005 0.960 . S
C1020 H1006 0.960 . S
C1020 H1007 0.960 . S
C1020 C1019 1.524 . S
C1021 C1018 1.403 . S
C1021 C1022 1.392 . S
C1021 C1025 1.495 . S
C1022 C1021 1.392 . S
C1022 C1023 1.385 . S
C1022 C1024 1.478 . S
C1023 H1017 0.930 . S
C1023 C1019 1.400 . S
C1023 C1022 1.385 . S
C1024 C1022 1.478 . S
C1024 C1026 1.381 . S
C1024 C1030 1.383 . S
C1025 C1021 1.495 . S
C1025 H1031 0.959 . S
C1025 H1032 0.961 . S
C1025 H1033 0.960 . S
C1026 C1024 1.381 . S
C1026 C1027 1.394 . S
C1026 H1034 0.930 . S
C1027 C1026 1.394 . S
C1027 C1028 1.383 . S
C1027 H1035 0.929 . S
C1028 C1027 1.383 . S
C1028 C1029 1.377 . S
C1029 H1013 0.930 . S
C1029 C1028 1.377 . S
C1029 C1030 1.379 . S
C1030 H1014 0.931 . S
C1030 C1024 1.383 . S
C1030 C1029 1.379 . S
H1031 C1025 0.959 . S
H1032 C1025 0.961 . S
H1033 C1025 0.960 . S
H1034 C1026 0.930 . S
H1035 C1027 0.929 . S
H1036 C1044 0.929 . S
H1037 C1046 0.930 . S
H1038 C1048 0.930 . S
H1039 C1051 0.929 . S
H1040 C1054 0.930 . S
H1041 C1056 0.960 . S
H1042 C1056 0.960 . S
H1043 C1056 0.960 . S
C1044 H1036 0.929 . S
C1044 C1045 1.377 . S
C1044 C1046 1.384 . S
C1045 C1044 1.377 . S
C1045 C1051 1.390 . S
C1046 H1037 0.930 . S
C1046 C1044 1.384 . S
C1046 C1047 1.372 . S
C1047 C1046 1.372 . S
C1047 C1048 1.400 . S
C1047 C1052 1.490 . S
C1048 H1038 0.930 . S
C1048 C1047 1.400 . S
C1048 C1051 1.386 . S
H1049 C1065 0.930 . S
H1050 C1066 0.931 . S
C1051 H1039 0.929 . S
C1051 C1045 1.390 . S
C1051 C1048 1.386 . S
C1052 C1047 1.490 . S
C1052 C1054 1.395 . S
C1052 C1055 1.403 . S
H1053 C1059 0.930 . S
C1054 H1040 0.930 . S
C1054 C1052 1.395 . S
C1054 C1057 1.403 . S
C1055 C1052 1.403 . S
C1055 C1056 1.524 . S
C1055 C1059 1.400 . S
C1056 H1041 0.960 . S
C1056 H1042 0.960 . S
C1056 H1043 0.960 . S
C1056 C1055 1.524 . S
C1057 C1054 1.403 . S
C1057 C1058 1.392 . S
C1057 C1061 1.495 . S
C1058 C1057 1.392 . S
C1058 C1059 1.385 . S
C1058 C1060 1.478 . S
C1059 H1053 0.930 . S
C1059 C1055 1.400 . S
C1059 C1058 1.385 . S
C1060 C1058 1.478 . S
C1060 C1062 1.381 . S
C1060 C1066 1.383 . S
C1061 C1057 1.495 . S
C1061 H1067 0.959 . S
C1061 H1068 0.961 . S
C1061 H1069 0.960 . S
C1062 C1060 1.381 . S
C1062 C1063 1.394 . S
C1062 H1070 0.930 . S
C1063 C1062 1.394 . S
C1063 C1064 1.383 . S
C1063 H1071 0.929 . S
C1064 C1063 1.383 . S
C1064 C1065 1.377 . S
C1065 H1049 0.930 . S
C1065 C1064 1.377 . S
C1065 C1066 1.379 . S
C1066 H1050 0.931 . S
C1066 C1060 1.383 . S
C1066 C1065 1.379 . S
H1067 C1061 0.959 . S
H1068 C1061 0.961 . S
H1069 C1061 0.960 . S
H1070 C1062 0.930 . S
H1071 C1063 0.929 . S
H1072 C1080 0.929 . S
H1073 C1082 0.930 . S
H1074 C1084 0.930 . S
H1075 C1087 0.929 . S
H1076 C1090 0.930 . S
H1077 C1092 0.960 1_545 S
H1078 C1092 0.960 . S
H1079 C1092 0.960 . S
C1080 H1072 0.929 . S
C1080 C1081 1.377 . S
C1080 C1082 1.384 . S
C1081 C1080 1.377 . S
C1081 C1087 1.390 . S
C1082 H1073 0.930 . S
C1082 C1080 1.384 . S
C1082 C1083 1.372 . S
C1083 C1082 1.372 . S
C1083 C1084 1.400 . S
C1083 C1088 1.473 1_565 S
C1084 H1074 0.930 . S
C1084 C1083 1.400 . S
C1084 C1087 1.386 . S
H1085 C1101 0.930 . S
H1086 C1102 0.931 . S
C1087 H1075 0.929 . S
C1087 C1081 1.390 . S
C1087 C1084 1.386 . S
C1088 C1083 1.473 1_545 S
C1088 C1090 1.405 . S
C1088 C1091 1.409 . S
H1089 C1095 0.930 . S
C1090 H1076 0.930 . S
C1090 C1088 1.405 . S
C1090 C1093 1.403 . S
C1091 C1088 1.409 . S
C1091 C1092 1.524 1_545 S
C1091 C1095 1.400 . S
C1092 H1077 0.960 1_565 S
C1092 H1078 0.960 . S
C1092 H1079 0.960 . S
C1092 C1091 1.524 1_565 S
C1093 C1090 1.403 . S
C1093 C1094 1.392 . S
C1093 C1097 1.495 . S
C1094 C1093 1.392 . S
C1094 C1095 1.385 . S
C1094 C1096 1.478 . S
C1095 H1089 0.930 . S
C1095 C1091 1.400 . S
C1095 C1094 1.385 . S
C1096 C1094 1.478 . S
C1096 C1098 1.381 . S
C1096 C1102 1.383 . S
C1097 C1093 1.495 . S
C1097 H1103 0.959 . S
C1097 H1104 0.961 . S
C1097 H1105 0.960 . S
C1098 C1096 1.381 . S
C1098 C1099 1.394 . S
C1098 H1106 0.930 . S
C1099 C1098 1.394 . S
C1099 C1100 1.383 . S
C1099 H1107 0.929 . S
C1100 C1099 1.383 . S
C1100 C1101 1.377 . S
C1101 H1085 0.930 . S
C1101 C1100 1.377 . S
C1101 C1102 1.379 . S
C1102 H1086 0.931 . S
C1102 C1096 1.383 . S
C1102 C1101 1.379 . S
H1103 C1097 0.959 . S
H1104 C1097 0.961 . S
H1105 C1097 0.960 . S
H1106 C1098 0.930 . S
H1107 C1099 0.929 . S
H1108 C1116 0.929 . S
H1109 C1118 0.930 . S
H1110 C1120 0.930 . S
H1111 C1123 0.929 . S
H1112 C1126 0.930 . S
H1113 C1128 0.960 . S
H1114 C1128 0.960 . S
H1115 C1128 0.960 . S
C1116 H1108 0.929 . S
C1116 C1117 1.377 . S
C1116 C1118 1.384 . S
C1117 C1116 1.377 . S
C1117 C1123 1.390 . S
C1118 H1109 0.930 . S
C1118 C1116 1.384 . S
C1118 C1119 1.372 . S
C1119 C1118 1.372 . S
C1119 C1120 1.400 . S
C1119 C1124 1.490 . S
C1120 H1110 0.930 . S
C1120 C1119 1.400 . S
C1120 C1123 1.386 . S
H1121 C1137 0.930 . S
H1122 C1138 0.931 . S
C1123 H1111 0.929 . S
C1123 C1117 1.390 . S
C1123 C1120 1.386 . S
C1124 C1119 1.490 . S
C1124 C1126 1.395 . S
C1124 C1127 1.403 . S
H1125 C1131 0.930 . S
C1126 H1112 0.930 . S
C1126 C1124 1.395 . S
C1126 C1129 1.403 . S
C1127 C1124 1.403 . S
C1127 C1128 1.524 . S
C1127 C1131 1.400 . S
C1128 H1113 0.960 . S
C1128 H1114 0.960 . S
C1128 H1115 0.960 . S
C1128 C1127 1.524 . S
C1129 C1126 1.403 . S
C1129 C1130 1.392 1_455 S
C1129 C1133 1.495 1_455 S
C1130 C1129 1.392 1_655 S
C1130 C1131 1.385 1_655 S
C1130 C1132 1.478 . S
C1131 H1125 0.930 . S
C1131 C1127 1.400 . S
C1131 C1130 1.385 1_455 S
C1132 C1130 1.478 . S
C1132 C1134 1.381 . S
C1132 C1138 1.383 . S
C1133 C1129 1.495 1_655 S
C1133 H1139 0.959 . S
C1133 H1140 0.961 . S
C1133 H1141 0.960 . S
C1134 C1132 1.381 . S
C1134 C1135 1.394 . S
C1134 H1142 0.930 . S
C1135 C1134 1.394 . S
C1135 C1136 1.383 . S
C1135 H1143 0.929 . S
C1136 C1135 1.383 . S
C1136 C1137 1.377 . S
C1137 H1121 0.930 . S
C1137 C1136 1.377 . S
C1137 C1138 1.379 . S
C1138 H1122 0.931 . S
C1138 C1132 1.383 . S
C1138 C1137 1.379 . S
H1139 C1133 0.959 . S
H1140 C1133 0.961 . S
H1141 C1133 0.960 . S
H1142 C1134 0.930 . S
H1143 C1135 0.929 . S
H1144 C1152 0.929 . S
H1145 C1154 0.930 . S
H1146 C1156 0.930 . S
H1147 C1159 0.929 . S
H1148 C1162 0.930 . S
H1149 C1164 0.960 . S
H1150 C1164 0.960 . S
H1151 C1164 0.960 . S
C1152 H1144 0.929 . S
C1152 C1153 1.377 . S
C1152 C1154 1.384 . S
C1153 C1152 1.377 . S
C1153 C1159 1.390 . S
C1154 H1145 0.930 . S
C1154 C1152 1.384 . S
C1154 C1155 1.372 . S
C1155 C1154 1.372 . S
C1155 C1156 1.400 . S
C1155 C1160 1.490 . S
C1156 H1146 0.930 . S
C1156 C1155 1.400 . S
C1156 C1159 1.386 . S
H1157 C1173 0.930 . S
H1158 C1174 0.931 . S
C1159 H1147 0.929 . S
C1159 C1153 1.390 . S
C1159 C1156 1.386 . S
C1160 C1155 1.490 . S
C1160 C1162 1.395 . S
C1160 C1163 1.403 . S
H1161 C1167 0.930 1_545 S
C1162 H1148 0.930 . S
C1162 C1160 1.395 . S
C1162 C1165 1.403 . S
C1163 C1160 1.403 . S
C1163 C1164 1.524 . S
C1163 C1167 1.400 . S
C1164 H1149 0.960 . S
C1164 H1150 0.960 . S
C1164 H1151 0.960 . S
C1164 C1163 1.524 . S
C1165 C1162 1.403 . S
C1165 C1166 1.423 . S
C1165 C1169 1.495 . S
C1166 C1165 1.423 . S
C1166 C1167 1.402 . S
C1166 C1168 1.431 1_565 S
C1167 H1161 0.930 1_565 S
C1167 C1163 1.400 . S
C1167 C1166 1.402 . S
C1168 C1166 1.431 1_545 S
C1168 C1170 1.381 . S
C1168 C1174 1.383 . S
C1169 C1165 1.495 . S
C1169 H1175 0.959 . S
C1169 H1176 0.961 1_565 S
C1169 H1177 0.960 . S
C1170 C1168 1.381 . S
C1170 C1171 1.394 . S
C1170 H1178 0.930 . S
C1171 C1170 1.394 . S
C1171 C1172 1.383 . S
C1171 H1179 0.929 . S
C1172 C1171 1.383 . S
C1172 C1173 1.377 . S
C1173 H1157 0.930 . S
C1173 C1172 1.377 . S
C1173 C1174 1.379 . S
C1174 H1158 0.931 . S
C1174 C1168 1.383 . S
C1174 C1173 1.379 . S
H1175 C1169 0.959 . S
H1176 C1169 0.961 1_545 S
H1177 C1169 0.960 . S
H1178 C1170 0.930 . S
H1179 C1171 0.929 . S
H1180 C1188 0.929 . S
H1181 C1190 0.930 . S
H1182 C1192 0.930 . S
H1183 C1195 0.929 . S
H1184 C1198 0.930 . S
H1185 C1200 0.960 1_655 S
H1186 C1200 0.960 . S
H1187 C1200 0.960 . S
C1188 H1180 0.929 . S
C1188 C1189 1.377 . S
C1188 C1190 1.384 . S
C1189 C1188 1.377 . S
C1189 C1195 1.390 . S
C1190 H1181 0.930 . S
C1190 C1188 1.384 . S
C1190 C1191 1.372 . S
C1191 C1190 1.372 . S
C1191 C1192 1.400 . S
C1191 C1196 1.467 1_455 S
C1192 H1182 0.930 . S
C1192 C1191 1.400 . S
C1192 C1195 1.386 . S
H1193 C1209 0.930 . S
H1194 C1210 0.931 . S
C1195 H1183 0.929 . S
C1195 C1189 1.390 . S
C1195 C1192 1.386 . S
C1196 C1191 1.467 1_655 S
C1196 C1198 1.410 . S
C1196 C1199 1.411 . S
H1197 C1203 0.930 . S
C1198 H1184 0.930 . S
C1198 C1196 1.410 . S
C1198 C1201 1.403 . S
C1199 C1196 1.411 . S
C1199 C1200 1.524 1_655 S
C1199 C1203 1.400 . S
C1200 H1185 0.960 1_455 S
C1200 H1186 0.960 . S
C1200 H1187 0.960 . S
C1200 C1199 1.524 1_455 S
C1201 C1198 1.403 . S
C1201 C1202 1.392 . S
C1201 C1205 1.495 . S
C1202 C1201 1.392 . S
C1202 C1203 1.385 . S
C1202 C1204 1.478 . S
C1203 H1197 0.930 . S
C1203 C1199 1.400 . S
C1203 C1202 1.385 . S
C1204 C1202 1.478 . S
C1204 C1206 1.381 . S
C1204 C1210 1.383 . S
C1205 C1201 1.495 . S
C1205 H1211 0.959 . S
C1205 H1212 0.961 . S
C1205 H1213 0.960 . S
C1206 C1204 1.381 . S
C1206 C1207 1.394 . S
C1206 H1214 0.930 . S
C1207 C1206 1.394 . S
C1207 C1208 1.383 . S
C1207 H1215 0.929 . S
C1208 C1207 1.383 . S
C1208 C1209 1.377 . S
C1209 H1193 0.930 . S
C1209 C1208 1.377 . S
C1209 C1210 1.379 . S
C1210 H1194 0.931 . S
C1210 C1204 1.383 . S
C1210 C1209 1.379 . S
H1211 C1205 0.959 . S
H1212 C1205 0.961 . S
H1213 C1205 0.960 . S
H1214 C1206 0.930 . S
H1215 C1207 0.929 . S
H1216 C1224 0.929 . S
H1217 C1226 0.930 . S
H1218 C1228 0.930 . S
H1219 C1231 0.929 . S
H1220 C1234 0.930 . S
H1221 C1236 0.960 . S
H1222 C1236 0.960 . S
H1223 C1236 0.960 . S
C1224 H1216 0.929 . S
C1224 C1225 1.377 . S
C1224 C1226 1.384 . S
C1225 C1224 1.377 . S
C1225 C1231 1.390 . S
C1226 H1217 0.930 . S
C1226 C1224 1.384 . S
C1226 C1227 1.372 . S
C1227 C1226 1.372 . S
C1227 C1228 1.400 . S
C1227 C1232 1.490 . S
C1228 H1218 0.930 . S
C1228 C1227 1.400 . S
C1228 C1231 1.386 . S
H1229 C1245 0.930 . S
H1230 C1246 0.931 . S
C1231 H1219 0.929 . S
C1231 C1225 1.390 . S
C1231 C1228 1.386 . S
C1232 C1227 1.490 . S
C1232 C1234 1.395 . S
C1232 C1235 1.403 . S
H1233 C1239 0.930 . S
C1234 H1220 0.930 . S
C1234 C1232 1.395 . S
C1234 C1237 1.403 . S
C1235 C1232 1.403 . S
C1235 C1236 1.524 . S
C1235 C1239 1.400 . S
C1236 H1221 0.960 . S
C1236 H1222 0.960 . S
C1236 H1223 0.960 . S
C1236 C1235 1.524 . S
C1237 C1234 1.403 . S
C1237 C1238 1.392 . S
C1237 C1241 1.495 . S
C1238 C1237 1.392 . S
C1238 C1239 1.385 . S
C1238 C1240 1.478 . S
C1239 H1233 0.930 . S
C1239 C1235 1.400 . S
C1239 C1238 1.385 . S
C1240 C1238 1.478 . S
C1240 C1242 1.381 . S
C1240 C1246 1.383 . S
C1241 C1237 1.495 . S
C1241 H1247 0.959 . S
C1241 H1248 0.961 . S
C1241 H1249 0.960 . S
C1242 C1240 1.381 . S
C1242 C1243 1.394 . S
C1242 H1250 0.930 . S
C1243 C1242 1.394 . S
C1243 C1244 1.383 . S
C1243 H1251 0.929 . S
C1244 C1243 1.383 . S
C1244 C1245 1.377 . S
C1245 H1229 0.930 . S
C1245 C1244 1.377 . S
C1245 C1246 1.379 . S
C1246 H1230 0.931 . S
C1246 C1240 1.383 . S
C1246 C1245 1.379 . S
H1247 C1241 0.959 . S
H1248 C1241 0.961 . S
H1249 C1241 0.960 . S
H1250 C1242 0.930 . S
H1251 C1243 0.929 . S
H1252 C1260 0.929 . S
H1253 C1262 0.930 . S
H1254 C1264 0.930 . S
H1255 C1267 0.929 . S
H1256 C1270 0.930 . S
H1257 C1272 0.960 . S
H1258 C1272 0.960 . S
H1259 C1272 0.960 . S
C1260 H1252 0.929 . S
C1260 C1261 1.377 . S
C1260 C1262 1.384 . S
C1261 C1260 1.377 . S
C1261 C1267 1.390 . S
C1262 H1253 0.930 . S
C1262 C1260 1.384 . S
C1262 C1263 1.372 . S
C1263 C1262 1.372 . S
C1263 C1264 1.400 . S
C1263 C1268 1.490 . S
C1264 H1254 0.930 . S
C1264 C1263 1.400 . S
C1264 C1267 1.386 . S
H1265 C1281 0.930 . S
H1266 C1282 0.931 . S
C1267 H1255 0.929 . S
C1267 C1261 1.390 . S
C1267 C1264 1.386 . S
C1268 C1263 1.490 . S
C1268 C1270 1.395 . S
C1268 C1271 1.403 . S
H1269 C1275 0.930 . S
C1270 H1256 0.930 . S
C1270 C1268 1.395 . S
C1270 C1273 1.403 . S
C1271 C1268 1.403 . S
C1271 C1272 1.524 . S
C1271 C1275 1.400 . S
C1272 H1257 0.960 . S
C1272 H1258 0.960 . S
C1272 H1259 0.960 . S
C1272 C1271 1.524 . S
C1273 C1270 1.403 . S
C1273 C1274 1.392 . S
C1273 C1277 1.495 . S
C1274 C1273 1.392 . S
C1274 C1275 1.385 . S
C1274 C1276 1.478 . S
C1275 H1269 0.930 . S
C1275 C1271 1.400 . S
C1275 C1274 1.385 . S
C1276 C1274 1.478 . S
C1276 C1278 1.381 . S
C1276 C1282 1.383 . S
C1277 C1273 1.495 . S
C1277 H1283 0.959 . S
C1277 H1284 0.961 . S
C1277 H1285 0.960 . S
C1278 C1276 1.381 . S
C1278 C1279 1.394 . S
C1278 H1286 0.930 . S
C1279 C1278 1.394 . S
C1279 C1280 1.383 . S
C1279 H1287 0.929 . S
C1280 C1279 1.383 . S
C1280 C1281 1.377 . S
C1281 H1265 0.930 . S
C1281 C1280 1.377 . S
C1281 C1282 1.379 . S
C1282 H1266 0.931 . S
C1282 C1276 1.383 . S
C1282 C1281 1.379 . S
H1283 C1277 0.959 . S
H1284 C1277 0.961 . S
H1285 C1277 0.960 . S
H1286 C1278 0.930 . S
H1287 C1279 0.929 . S
H1288 C1296 0.929 . S
H1289 C1298 0.930 . S
H1290 C1300 0.930 . S
H1291 C1303 0.929 . S
H1292 C1306 0.930 . S
H1293 C1308 0.960 . S
H1294 C1308 0.960 . S
H1295 C1308 0.960 . S
C1296 H1288 0.929 . S
C1296 C1297 1.377 . S
C1296 C1298 1.384 . S
C1297 C1296 1.377 . S
C1297 C1303 1.390 . S
C1298 H1289 0.930 . S
C1298 C1296 1.384 . S
C1298 C1299 1.372 . S
C1299 C1298 1.372 . S
C1299 C1300 1.400 . S
C1299 C1304 1.490 . S
C1300 H1290 0.930 . S
C1300 C1299 1.400 . S
C1300 C1303 1.386 . S
H1301 C1317 0.930 . S
H1302 C1318 0.931 . S
C1303 H1291 0.929 . S
C1303 C1297 1.390 . S
C1303 C1300 1.386 . S
C1304 C1299 1.490 . S
C1304 C1306 1.395 . S
C1304 C1307 1.403 . S
H1305 C1311 0.930 . S
C1306 H1292 0.930 . S
C1306 C1304 1.395 . S
C1306 C1309 1.403 . S
C1307 C1304 1.403 . S
C1307 C1308 1.524 . S
C1307 C1311 1.400 . S
C1308 H1293 0.960 . S
C1308 H1294 0.960 . S
C1308 H1295 0.960 . S
C1308 C1307 1.524 . S
C1309 C1306 1.403 . S
C1309 C1310 1.392 . S
C1309 C1313 1.495 . S
C1310 C1309 1.392 . S
C1310 C1311 1.385 . S
C1310 C1312 1.478 . S
C1311 H1305 0.930 . S
C1311 C1307 1.400 . S
C1311 C1310 1.385 . S
C1312 C1310 1.478 . S
C1312 C1314 1.381 . S
C1312 C1318 1.383 . S
C1313 C1309 1.495 . S
C1313 H1319 0.959 . S
C1313 H1320 0.961 . S
C1313 H1321 0.960 . S
C1314 C1312 1.381 . S
C1314 C1315 1.394 . S
C1314 H1322 0.930 . S
C1315 C1314 1.394 . S
C1315 C1316 1.383 . S
C1315 H1323 0.929 . S
C1316 C1315 1.383 . S
C1316 C1317 1.377 . S
C1317 H1301 0.930 . S
C1317 C1316 1.377 . S
C1317 C1318 1.379 . S
C1318 H1302 0.931 . S
C1318 C1312 1.383 . S
C1318 C1317 1.379 . S
H1319 C1313 0.959 . S
H1320 C1313 0.961 . S
H1321 C1313 0.960 . S
H1322 C1314 0.930 . S
H1323 C1315 0.929 . S
H1324 C1332 0.929 . S
H1325 C1334 0.930 . S
H1326 C1336 0.930 . S
H1327 C1339 0.929 . S
H1328 C1342 0.930 . S
H1329 C1344 0.960 . S
H1330 C1344 0.960 . S
H1331 C1344 0.960 . S
C1332 H1324 0.929 . S
C1332 C1333 1.377 . S
C1332 C1334 1.384 . S
C1333 C1332 1.377 . S
C1333 C1339 1.390 . S
C1334 H1325 0.930 . S
C1334 C1332 1.384 . S
C1334 C1335 1.372 . S
C1335 C1334 1.372 . S
C1335 C1336 1.400 . S
C1335 C1340 1.490 . S
C1336 H1326 0.930 . S
C1336 C1335 1.400 . S
C1336 C1339 1.386 . S
H1337 C1353 0.930 . S
H1338 C1354 0.931 . S
C1339 H1327 0.929 . S
C1339 C1333 1.390 . S
C1339 C1336 1.386 . S
C1340 C1335 1.490 . S
C1340 C1342 1.395 . S
C1340 C1343 1.403 . S
H1341 C1347 0.930 . S
C1342 H1328 0.930 . S
C1342 C1340 1.395 . S
C1342 C1345 1.403 . S
C1343 C1340 1.403 . S
C1343 C1344 1.524 . S
C1343 C1347 1.400 . S
C1344 H1329 0.960 . S
C1344 H1330 0.960 . S
C1344 H1331 0.960 . S
C1344 C1343 1.524 . S
C1345 C1342 1.403 . S
C1345 C1346 1.392 . S
C1345 C1349 1.495 . S
C1346 C1345 1.392 . S
C1346 C1347 1.385 . S
C1346 C1348 1.478 . S
C1347 H1341 0.930 . S
C1347 C1343 1.400 . S
C1347 C1346 1.385 . S
C1348 C1346 1.478 . S
C1348 C1350 1.381 . S
C1348 C1354 1.383 . S
C1349 C1345 1.495 . S
C1349 H1355 0.959 . S
C1349 H1356 0.961 . S
C1349 H1357 0.960 . S
C1350 C1348 1.381 . S
C1350 C1351 1.394 . S
C1350 H1358 0.930 . S
C1351 C1350 1.394 . S
C1351 C1352 1.383 . S
C1351 H1359 0.929 . S
C1352 C1351 1.383 . S
C1352 C1353 1.377 . S
C1353 H1337 0.930 . S
C1353 C1352 1.377 . S
C1353 C1354 1.379 . S
C1354 H1338 0.931 . S
C1354 C1348 1.383 . S
C1354 C1353 1.379 . S
H1355 C1349 0.959 . S
H1356 C1349 0.961 . S
H1357 C1349 0.960 . S
H1358 C1350 0.930 . S
H1359 C1351 0.929 . S
H1360 C1368 0.929 . S
H1361 C1370 0.930 . S
H1362 C1372 0.930 . S
H1363 C1375 0.929 . S
H1364 C1378 0.930 . S
H1365 C1380 0.960 . S
H1366 C1380 0.960 . S
H1367 C1380 0.960 . S
C1368 H1360 0.929 . S
C1368 C1369 1.377 . S
C1368 C1370 1.384 . S
C1369 C1368 1.377 . S
C1369 C1375 1.390 . S
C1370 H1361 0.930 . S
C1370 C1368 1.384 . S
C1370 C1371 1.372 . S
C1371 C1370 1.372 . S
C1371 C1372 1.400 . S
C1371 C1376 1.490 . S
C1372 H1362 0.930 . S
C1372 C1371 1.400 . S
C1372 C1375 1.386 . S
H1373 C1389 0.930 . S
H1374 C1390 0.931 . S
C1375 H1363 0.929 . S
C1375 C1369 1.390 . S
C1375 C1372 1.386 . S
C1376 C1371 1.490 . S
C1376 C1378 1.395 . S
C1376 C1379 1.403 . S
H1377 C1383 0.930 . S
C1378 H1364 0.930 . S
C1378 C1376 1.395 . S
C1378 C1381 1.403 . S
C1379 C1376 1.403 . S
C1379 C1380 1.524 . S
C1379 C1383 1.400 . S
C1380 H1365 0.960 . S
C1380 H1366 0.960 . S
C1380 H1367 0.960 . S
C1380 C1379 1.524 . S
C1381 C1378 1.403 . S
C1381 C1382 1.392 . S
C1381 C1385 1.495 . S
C1382 C1381 1.392 . S
C1382 C1383 1.385 . S
C1382 C1384 1.478 . S
C1383 H1377 0.930 . S
C1383 C1379 1.400 . S
C1383 C1382 1.385 . S
C1384 C1382 1.478 . S
C1384 C1386 1.381 . S
C1384 C1390 1.383 . S
C1385 C1381 1.495 . S
C1385 H1391 0.959 . S
C1385 H1392 0.961 . S
C1385 H1393 0.960 . S
C1386 C1384 1.381 . S
C1386 C1387 1.394 . S
C1386 H1394 0.930 . S
C1387 C1386 1.394 . S
C1387 C1388 1.383 . S
C1387 H1395 0.929 . S
C1388 C1387 1.383 . S
C1388 C1389 1.377 . S
C1389 H1373 0.930 . S
C1389 C1388 1.377 . S
C1389 C1390 1.379 . S
C1390 H1374 0.931 . S
C1390 C1384 1.383 . S
C1390 C1389 1.379 . S
H1391 C1385 0.959 . S
H1392 C1385 0.961 . S
H1393 C1385 0.960 . S
H1394 C1386 0.930 . S
H1395 C1387 0.929 . S
H1396 C1404 0.929 . S
H1397 C1406 0.930 . S
H1398 C1408 0.930 . S
H1399 C1411 0.929 . S
H1400 C1414 0.930 . S
H1401 C1416 0.960 . S
H1402 C1416 0.960 . S
H1403 C1416 0.960 . S
C1404 H1396 0.929 . S
C1404 C1405 1.377 . S
C1404 C1406 1.384 . S
C1405 C1404 1.377 . S
C1405 C1411 1.390 . S
C1406 H1397 0.930 . S
C1406 C1404 1.384 . S
C1406 C1407 1.372 . S
C1407 C1406 1.372 . S
C1407 C1408 1.400 . S
C1407 C1412 1.490 . S
C1408 H1398 0.930 . S
C1408 C1407 1.400 . S
C1408 C1411 1.386 . S
H1409 C1425 0.930 . S
H1410 C1426 0.931 . S
C1411 H1399 0.929 . S
C1411 C1405 1.390 . S
C1411 C1408 1.386 . S
C1412 C1407 1.490 . S
C1412 C1414 1.395 . S
C1412 C1415 1.403 . S
H1413 C1419 0.930 . S
C1414 H1400 0.930 . S
C1414 C1412 1.395 . S
C1414 C1417 1.403 . S
C1415 C1412 1.403 . S
C1415 C1416 1.524 . S
C1415 C1419 1.400 . S
C1416 H1401 0.960 . S
C1416 H1402 0.960 . S
C1416 H1403 0.960 . S
C1416 C1415 1.524 . S
C1417 C1414 1.403 . S
C1417 C1418 1.392 . S
C1417 C1421 1.495 . S
C1418 C1417 1.392 . S
C1418 C1419 1.385 . S
C1418 C1420 1.478 . S
C1419 H1413 0.930 . S
C1419 C1415 1.400 . S
C1419 C1418 1.385 . S
C1420 C1418 1.478 . S
C1420 C1422 1.381 . S
C1420 C1426 1.383 . S
C1421 C1417 1.495 . S
C1421 H1427 0.959 . S
C1421 H1428 0.961 . S
C1421 H1429 0.960 . S
C1422 C1420 1.381 . S
C1422 C1423 1.394 . S
C1422 H1430 0.930 . S
C1423 C1422 1.394 . S
C1423 C1424 1.383 . S
C1423 H1431 0.929 . S
C1424 C1423 1.383 . S
C1424 C1425 1.377 . S
C1425 H1409 0.930 . S
C1425 C1424 1.377 . S
C1425 C1426 1.379 . S
C1426 H1410 0.931 . S
C1426 C1420 1.383 . S
C1426 C1425 1.379 . S
H1427 C1421 0.959 . S
H1428 C1421 0.961 . S
H1429 C1421 0.960 . S
H1430 C1422 0.930 . S
H1431 C1423 0.929 . S
H1432 C1440 0.929 . S
H1433 C1442 0.930 . S
H1434 C1444 0.930 . S
H1435 C1447 0.929 . S
H1436 C1450 0.930 . S
H1437 C1452 0.960 . S
H1438 C1452 0.960 . S
H1439 C1452 0.960 . S
C1440 H1432 0.929 . S
C1440 C1441 1.377 . S
C1440 C1442 1.384 . S
C1441 C1440 1.377 . S
C1441 C1447 1.390 . S
C1442 H1433 0.930 . S
C1442 C1440 1.384 . S
C1442 C1443 1.372 . S
C1443 C1442 1.372 . S
C1443 C1444 1.400 . S
C1443 C1448 1.490 . S
C1444 H1434 0.930 . S
C1444 C1443 1.400 . S
C1444 C1447 1.386 . S
H1445 C1461 0.930 . S
H1446 C1462 0.931 . S
C1447 H1435 0.929 . S
C1447 C1441 1.390 . S
C1447 C1444 1.386 . S
C1448 C1443 1.490 . S
C1448 C1450 1.395 . S
C1448 C1451 1.403 . S
H1449 C1455 0.930 . S
C1450 H1436 0.930 . S
C1450 C1448 1.395 . S
C1450 C1453 1.403 . S
C1451 C1448 1.403 . S
C1451 C1452 1.524 . S
C1451 C1455 1.400 . S
C1452 H1437 0.960 . S
C1452 H1438 0.960 . S
C1452 H1439 0.960 . S
C1452 C1451 1.524 . S
C1453 C1450 1.403 . S
C1453 C1454 1.392 . S
C1453 C1457 1.495 . S
C1454 C1453 1.392 . S
C1454 C1455 1.385 . S
C1454 C1456 1.478 . S
C1455 H1449 0.930 . S
C1455 C1451 1.400 . S
C1455 C1454 1.385 . S
C1456 C1454 1.478 . S
C1456 C1458 1.381 . S
C1456 C1462 1.383 . S
C1457 C1453 1.495 . S
C1457 H1463 0.959 . S
C1457 H1464 0.961 . S
C1457 H1465 0.960 . S
C1458 C1456 1.381 . S
C1458 C1459 1.394 . S
C1458 H1466 0.930 . S
C1459 C1458 1.394 . S
C1459 C1460 1.383 . S
C1459 H1467 0.929 . S
C1460 C1459 1.383 . S
C1460 C1461 1.377 . S
C1461 H1445 0.930 . S
C1461 C1460 1.377 . S
C1461 C1462 1.379 . S
C1462 H1446 0.931 . S
C1462 C1456 1.383 . S
C1462 C1461 1.379 . S
H1463 C1457 0.959 . S
H1464 C1457 0.961 . S
H1465 C1457 0.960 . S
H1466 C1458 0.930 . S
H1467 C1459 0.929 . S
H1468 C1476 0.929 . S
H1469 C1478 0.930 . S
H1470 C1480 0.930 . S
H1471 C1483 0.929 . S
H1472 C1486 0.930 . S
H1473 C1488 0.960 . S
H1474 C1488 0.960 . S
H1475 C1488 0.960 . S
C1476 H1468 0.929 . S
C1476 C1477 1.377 . S
C1476 C1478 1.384 . S
C1477 C1476 1.377 . S
C1477 C1483 1.390 . S
C1478 H1469 0.930 . S
C1478 C1476 1.384 . S
C1478 C1479 1.372 . S
C1479 C1478 1.372 . S
C1479 C1480 1.400 . S
C1479 C1484 1.490 . S
C1480 H1470 0.930 . S
C1480 C1479 1.400 . S
C1480 C1483 1.386 . S
H1481 C1497 0.930 . S
H1482 C1498 0.931 . S
C1483 H1471 0.929 . S
C1483 C1477 1.390 . S
C1483 C1480 1.386 . S
C1484 C1479 1.490 . S
C1484 C1486 1.395 . S
C1484 C1487 1.403 . S
H1485 C1491 0.930 . S
C1486 H1472 0.930 . S
C1486 C1484 1.395 . S
C1486 C1489 1.403 . S
C1487 C1484 1.403 . S
C1487 C1488 1.524 . S
C1487 C1491 1.400 . S
C1488 H1473 0.960 . S
C1488 H1474 0.960 . S
C1488 H1475 0.960 . S
C1488 C1487 1.524 . S
C1489 C1486 1.403 . S
C1489 C1490 1.392 . S
C1489 C1493 1.495 . S
C1490 C1489 1.392 . S
C1490 C1491 1.385 . S
C1490 C1492 1.478 . S
C1491 H1485 0.930 . S
C1491 C1487 1.400 . S
C1491 C1490 1.385 . S
C1492 C1490 1.478 . S
C1492 C1494 1.381 . S
C1492 C1498 1.383 . S
C1493 C1489 1.495 . S
C1493 H1499 0.959 . S
C1493 H1500 0.961 . S
C1493 H1501 0.960 . S
C1494 C1492 1.381 . S
C1494 C1495 1.394 . S
C1494 H1502 0.930 . S
C1495 C1494 1.394 . S
C1495 C1496 1.383 . S
C1495 H1503 0.929 . S
C1496 C1495 1.383 . S
C1496 C1497 1.377 . S
C1497 H1481 0.930 . S
C1497 C1496 1.377 . S
C1497 C1498 1.379 . S
C1498 H1482 0.931 . S
C1498 C1492 1.383 . S
C1498 C1497 1.379 . S
H1499 C1493 0.959 . S
H1500 C1493 0.961 . S
H1501 C1493 0.960 . S
H1502 C1494 0.930 . S
H1503 C1495 0.929 . S
H1504 C1512 0.929 . S
H1505 C1514 0.930 . S
H1506 C1516 0.930 . S
H1507 C1519 0.929 . S
H1508 C1522 0.930 . S
H1509 C1524 0.960 . S
H1510 C1524 0.960 . S
H1511 C1524 0.960 . S
C1512 H1504 0.929 . S
C1512 C1513 1.377 . S
C1512 C1514 1.384 . S
C1513 C1512 1.377 . S
C1513 C1519 1.390 . S
C1514 H1505 0.930 . S
C1514 C1512 1.384 . S
C1514 C1515 1.372 . S
C1515 C1514 1.372 . S
C1515 C1516 1.400 . S
C1515 C1520 1.490 . S
C1516 H1506 0.930 . S
C1516 C1515 1.400 . S
C1516 C1519 1.386 . S
H1517 C1533 0.930 . S
H1518 C1534 0.931 . S
C1519 H1507 0.929 . S
C1519 C1513 1.390 . S
C1519 C1516 1.386 . S
C1520 C1515 1.490 . S
C1520 C1522 1.395 . S
C1520 C1523 1.403 . S
H1521 C1527 0.930 . S
C1522 H1508 0.930 . S
C1522 C1520 1.395 . S
C1522 C1525 1.403 . S
C1523 C1520 1.403 . S
C1523 C1524 1.524 . S
C1523 C1527 1.400 . S
C1524 H1509 0.960 . S
C1524 H1510 0.960 . S
C1524 H1511 0.960 . S
C1524 C1523 1.524 . S
C1525 C1522 1.403 . S
C1525 C1526 1.392 . S
C1525 C1529 1.495 . S
C1526 C1525 1.392 . S
C1526 C1527 1.385 . S
C1526 C1528 1.478 . S
C1527 H1521 0.930 . S
C1527 C1523 1.400 . S
C1527 C1526 1.385 . S
C1528 C1526 1.478 . S
C1528 C1530 1.381 . S
C1528 C1534 1.383 . S
C1529 C1525 1.495 . S
C1529 H1535 0.959 . S
C1529 H1536 0.961 . S
C1529 H1537 0.960 . S
C1530 C1528 1.381 . S
C1530 C1531 1.394 . S
C1530 H1538 0.930 . S
C1531 C1530 1.394 . S
C1531 C1532 1.383 1_556 S
C1531 H1539 0.929 . S
C1532 C1531 1.383 1_554 S
C1532 C1533 1.377 . S
C1533 H1517 0.930 . S
C1533 C1532 1.377 . S
C1533 C1534 1.379 1_554 S
C1534 H1518 0.931 . S
C1534 C1528 1.383 . S
C1534 C1533 1.379 1_556 S
H1535 C1529 0.959 . S
H1536 C1529 0.961 . S
H1537 C1529 0.960 . S
H1538 C1530 0.930 . S
H1539 C1531 0.929 . S
H1540 C1548 0.929 . S
H1541 C1550 0.930 . S
H1542 C1552 0.930 . S
H1543 C1555 0.929 1_556 S
H1544 C1558 0.930 . S
H1545 C1560 0.960 . S
H1546 C1560 0.960 . S
H1547 C1560 0.960 . S
C1548 H1540 0.929 . S
C1548 C1549 1.377 . S
C1548 C1550 1.384 1_556 S
C1549 C1548 1.377 . S
C1549 C1555 1.390 1_556 S
C1550 H1541 0.930 . S
C1550 C1548 1.384 1_554 S
C1550 C1551 1.372 . S
C1551 C1550 1.372 . S
C1551 C1552 1.400 . S
C1551 C1556 1.490 . S
C1552 H1542 0.930 . S
C1552 C1551 1.400 . S
C1552 C1555 1.386 . S
H1553 C1569 0.930 . S
H1554 C1570 0.931 . S
C1555 H1543 0.929 1_554 S
C1555 C1549 1.390 1_554 S
C1555 C1552 1.386 . S
C1556 C1551 1.490 . S
C1556 C1558 1.395 . S
C1556 C1559 1.403 . S
H1557 C1563 0.930 . S
C1558 H1544 0.930 . S
C1558 C1556 1.395 . S
C1558 C1561 1.403 . S
C1559 C1556 1.403 . S
C1559 C1560 1.524 . S
C1559 C1563 1.400 . S
C1560 H1545 0.960 . S
C1560 H1546 0.960 . S
C1560 H1547 0.960 . S
C1560 C1559 1.524 . S
C1561 C1558 1.403 . S
C1561 C1562 1.392 . S
C1561 C1565 1.495 . S
C1562 C1561 1.392 . S
C1562 C1563 1.385 . S
C1562 C1564 1.478 . S
C1563 H1557 0.930 . S
C1563 C1559 1.400 . S
C1563 C1562 1.385 . S
C1564 C1562 1.478 . S
C1564 C1566 1.381 . S
C1564 C1570 1.383 . S
C1565 C1561 1.495 . S
C1565 H1571 0.959 . S
C1565 H1572 0.961 . S
C1565 H1573 0.960 . S
C1566 C1564 1.381 . S
C1566 C1567 1.394 . S
C1566 H1574 0.930 . S
C1567 C1566 1.394 . S
C1567 C1568 1.383 . S
C1567 H1575 0.929 . S
C1568 C1567 1.383 . S
C1568 C1569 1.377 . S
C1569 H1553 0.930 . S
C1569 C1568 1.377 . S
C1569 C1570 1.379 . S
C1570 H1554 0.931 . S
C1570 C1564 1.383 . S
C1570 C1569 1.379 . S
H1571 C1565 0.959 . S
H1572 C1565 0.961 . S
H1573 C1565 0.960 . S
H1574 C1566 0.930 . S
H1575 C1567 0.929 . S
H1576 C1584 0.929 . S
H1577 C1586 0.930 . S
H1578 C1588 0.930 . S
H1579 C1591 0.929 . S
H1580 C1594 0.930 . S
H1581 C1596 0.960 . S
H1582 C1596 0.960 . S
H1583 C1596 0.960 . S
C1584 H1576 0.929 . S
C1584 C1585 1.377 . S
C1584 C1586 1.384 1_554 S
C1585 C1584 1.377 . S
C1585 C1591 1.390 1_554 S
C1586 H1577 0.930 . S
C1586 C1584 1.384 1_556 S
C1586 C1587 1.372 . S
C1587 C1586 1.372 . S
C1587 C1588 1.400 . S
C1587 C1592 1.490 . S
C1588 H1578 0.930 . S
C1588 C1587 1.400 . S
C1588 C1591 1.386 . S
H1589 C1605 0.930 . S
H1590 C1606 0.931 . S
C1591 H1579 0.929 . S
C1591 C1585 1.390 1_556 S
C1591 C1588 1.386 . S
C1592 C1587 1.490 . S
C1592 C1594 1.395 . S
C1592 C1595 1.403 . S
H1593 C1599 0.930 . S
C1594 H1580 0.930 . S
C1594 C1592 1.395 . S
C1594 C1597 1.403 . S
C1595 C1592 1.403 . S
C1595 C1596 1.524 . S
C1595 C1599 1.400 . S
C1596 H1581 0.960 . S
C1596 H1582 0.960 . S
C1596 H1583 0.960 . S
C1596 C1595 1.524 . S
C1597 C1594 1.403 . S
C1597 C1598 1.392 . S
C1597 C1601 1.495 . S
C1598 C1597 1.392 . S
C1598 C1599 1.385 . S
C1598 C1600 1.478 . S
C1599 H1593 0.930 . S
C1599 C1595 1.400 . S
C1599 C1598 1.385 . S
C1600 C1598 1.478 . S
C1600 C1602 1.381 . S
C1600 C1606 1.383 . S
C1601 C1597 1.495 . S
C1601 H1607 0.959 . S
C1601 H1608 0.961 . S
C1601 H1609 0.960 . S
C1602 C1600 1.381 . S
C1602 C1603 1.394 . S
C1602 H1610 0.930 . S
C1603 C1602 1.394 . S
C1603 C1604 1.383 . S
C1603 H1611 0.929 . S
C1604 C1603 1.383 . S
C1604 C1605 1.377 . S
C1605 H1589 0.930 . S
C1605 C1604 1.377 . S
C1605 C1606 1.379 . S
C1606 H1590 0.931 . S
C1606 C1600 1.383 . S
C1606 C1605 1.379 . S
H1607 C1601 0.959 . S
H1608 C1601 0.961 . S
H1609 C1601 0.960 . S
H1610 C1602 0.930 . S
H1611 C1603 0.929 . S
H1612 C1620 0.929 . S
H1613 C1622 0.930 . S
H1614 C1624 0.930 . S
H1615 C1627 0.929 . S
H1616 C1630 0.930 . S
H1617 C1632 0.960 . S
H1618 C1632 0.960 . S
H1619 C1632 0.960 . S
C1620 H1612 0.929 . S
C1620 C1621 1.377 1_554 S
C1620 C1622 1.384 . S
C1621 C1620 1.377 1_556 S
C1621 C1627 1.390 . S
C1622 H1613 0.930 . S
C1622 C1620 1.384 . S
C1622 C1623 1.372 . S
C1623 C1622 1.372 . S
C1623 C1624 1.400 . S
C1623 C1628 1.490 . S
C1624 H1614 0.930 . S
C1624 C1623 1.400 . S
C1624 C1627 1.386 1_554 S
H1625 C1641 0.930 . S
H1626 C1642 0.931 . S
C1627 H1615 0.929 . S
C1627 C1621 1.390 . S
C1627 C1624 1.386 1_556 S
C1628 C1623 1.490 . S
C1628 C1630 1.395 . S
C1628 C1631 1.403 . S
H1629 C1635 0.930 . S
C1630 H1616 0.930 . S
C1630 C1628 1.395 . S
C1630 C1633 1.403 . S
C1631 C1628 1.403 . S
C1631 C1632 1.524 . S
C1631 C1635 1.400 . S
C1632 H1617 0.960 . S
C1632 H1618 0.960 . S
C1632 H1619 0.960 . S
C1632 C1631 1.524 . S
C1633 C1630 1.403 . S
C1633 C1634 1.392 . S
C1633 C1637 1.495 . S
C1634 C1633 1.392 . S
C1634 C1635 1.385 . S
C1634 C1636 1.478 . S
C1635 H1629 0.930 . S
C1635 C1631 1.400 . S
C1635 C1634 1.385 . S
C1636 C1634 1.478 . S
C1636 C1638 1.381 . S
C1636 C1642 1.383 . S
C1637 C1633 1.495 . S
C1637 H1643 0.959 . S
C1637 H1644 0.961 . S
C1637 H1645 0.960 . S
C1638 C1636 1.381 . S
C1638 C1639 1.394 . S
C1638 H1646 0.930 . S
C1639 C1638 1.394 . S
C1639 C1640 1.383 . S
C1639 H1647 0.929 . S
C1640 C1639 1.383 . S
C1640 C1641 1.377 . S
C1641 H1625 0.930 . S
C1641 C1640 1.377 . S
C1641 C1642 1.379 . S
C1642 H1626 0.931 . S
C1642 C1636 1.383 . S
C1642 C1641 1.379 . S
H1643 C1637 0.959 . S
H1644 C1637 0.961 . S
H1645 C1637 0.960 . S
H1646 C1638 0.930 . S
H1647 C1639 0.929 . S
H1648 C1656 0.929 . S
H1649 C1658 0.930 . S
H1650 C1660 0.930 . S
H1651 C1663 0.929 . S
H1652 C1666 0.930 . S
H1653 C1668 0.960 . S
H1654 C1668 0.960 . S
H1655 C1668 0.960 . S
C1656 H1648 0.929 . S
C1656 C1657 1.377 . S
C1656 C1658 1.384 . S
C1657 C1656 1.377 . S
C1657 C1663 1.390 . S
C1658 H1649 0.930 . S
C1658 C1656 1.384 . S
C1658 C1659 1.372 . S
C1659 C1658 1.372 . S
C1659 C1660 1.400 . S
C1659 C1664 1.490 . S
C1660 H1650 0.930 . S
C1660 C1659 1.400 . S
C1660 C1663 1.386 . S
H1661 C1677 0.930 . S
H1662 C1678 0.931 . S
C1663 H1651 0.929 . S
C1663 C1657 1.390 . S
C1663 C1660 1.386 . S
C1664 C1659 1.490 . S
C1664 C1666 1.395 . S
C1664 C1667 1.403 . S
H1665 C1671 0.930 . S
C1666 H1652 0.930 . S
C1666 C1664 1.395 . S
C1666 C1669 1.403 . S
C1667 C1664 1.403 . S
C1667 C1668 1.524 . S
C1667 C1671 1.400 . S
C1668 H1653 0.960 . S
C1668 H1654 0.960 . S
C1668 H1655 0.960 . S
C1668 C1667 1.524 . S
C1669 C1666 1.403 . S
C1669 C1670 1.392 . S
C1669 C1673 1.495 . S
C1670 C1669 1.392 . S
C1670 C1671 1.385 . S
C1670 C1672 1.478 . S
C1671 H1665 0.930 . S
C1671 C1667 1.400 . S
C1671 C1670 1.385 . S
C1672 C1670 1.478 . S
C1672 C1674 1.381 . S
C1672 C1678 1.383 . S
C1673 C1669 1.495 . S
C1673 H1679 0.959 . S
C1673 H1680 0.961 . S
C1673 H1681 0.960 . S
C1674 C1672 1.381 . S
C1674 C1675 1.394 . S
C1674 H1682 0.930 . S
C1675 C1674 1.394 . S
C1675 C1676 1.383 . S
C1675 H1683 0.929 . S
C1676 C1675 1.383 . S
C1676 C1677 1.377 . S
C1677 H1661 0.930 . S
C1677 C1676 1.377 . S
C1677 C1678 1.379 . S
C1678 H1662 0.931 . S
C1678 C1672 1.383 . S
C1678 C1677 1.379 . S
H1679 C1673 0.959 . S
H1680 C1673 0.961 . S
H1681 C1673 0.960 . S
H1682 C1674 0.930 . S
H1683 C1675 0.929 . S
H1684 C1692 0.929 . S
H1685 C1694 0.930 . S
H1686 C1696 0.930 . S
H1687 C1699 0.929 . S
H1688 C1702 0.930 . S
H1689 C1704 0.960 . S
H1690 C1704 0.960 . S
H1691 C1704 0.960 . S
C1692 H1684 0.929 . S
C1692 C1693 1.377 . S
C1692 C1694 1.384 . S
C1693 C1692 1.377 . S
C1693 C1699 1.390 . S
C1694 H1685 0.930 . S
C1694 C1692 1.384 . S
C1694 C1695 1.372 . S
C1695 C1694 1.372 . S
C1695 C1696 1.400 . S
C1695 C1700 1.490 . S
C1696 H1686 0.930 . S
C1696 C1695 1.400 . S
C1696 C1699 1.386 . S
H1697 C1713 0.930 . S
H1698 C1714 0.931 . S
C1699 H1687 0.929 . S
C1699 C1693 1.390 . S
C1699 C1696 1.386 . S
C1700 C1695 1.490 . S
C1700 C1702 1.395 . S
C1700 C1703 1.403 . S
H1701 C1707 0.930 . S
C1702 H1688 0.930 . S
C1702 C1700 1.395 . S
C1702 C1705 1.403 . S
C1703 C1700 1.403 . S
C1703 C1704 1.524 . S
C1703 C1707 1.400 . S
C1704 H1689 0.960 . S
C1704 H1690 0.960 . S
C1704 H1691 0.960 . S
C1704 C1703 1.524 . S
C1705 C1702 1.403 . S
C1705 C1706 1.392 . S
C1705 C1709 1.495 . S
C1706 C1705 1.392 . S
C1706 C1707 1.385 . S
C1706 C1708 1.478 . S
C1707 H1701 0.930 . S
C1707 C1703 1.400 . S
C1707 C1706 1.385 . S
C1708 C1706 1.478 . S
C1708 C1710 1.381 . S
C1708 C1714 1.383 . S
C1709 C1705 1.495 . S
C1709 H1715 0.959 . S
C1709 H1716 0.961 . S
C1709 H1717 0.960 . S
C1710 C1708 1.381 . S
C1710 C1711 1.394 . S
C1710 H1718 0.930 . S
C1711 C1710 1.394 . S
C1711 C1712 1.383 . S
C1711 H1719 0.929 . S
C1712 C1711 1.383 . S
C1712 C1713 1.377 . S
C1713 H1697 0.930 . S
C1713 C1712 1.377 . S
C1713 C1714 1.379 . S
C1714 H1698 0.931 . S
C1714 C1708 1.383 . S
C1714 C1713 1.379 . S
H1715 C1709 0.959 . S
H1716 C1709 0.961 . S
H1717 C1709 0.960 . S
H1718 C1710 0.930 . S
H1719 C1711 0.929 . S
H1720 C1728 0.929 . S
H1721 C1730 0.930 . S
H1722 C1732 0.930 . S
H1723 C1735 0.929 . S
H1724 C1738 0.930 . S
H1725 C1740 0.960 . S
H1726 C1740 0.960 . S
H1727 C1740 0.960 . S
C1728 H1720 0.929 . S
C1728 C1729 1.377 . S
C1728 C1730 1.384 . S
C1729 C1728 1.377 . S
C1729 C1735 1.390 . S
C1730 H1721 0.930 . S
C1730 C1728 1.384 . S
C1730 C1731 1.372 . S
C1731 C1730 1.372 . S
C1731 C1732 1.400 . S
C1731 C1736 1.490 . S
C1732 H1722 0.930 . S
C1732 C1731 1.400 . S
C1732 C1735 1.386 . S
H1733 C1749 0.930 . S
H1734 C1750 0.931 . S
C1735 H1723 0.929 . S
C1735 C1729 1.390 . S
C1735 C1732 1.386 . S
C1736 C1731 1.490 . S
C1736 C1738 1.395 . S
C1736 C1739 1.403 . S
H1737 C1743 0.930 . S
C1738 H1724 0.930 . S
C1738 C1736 1.395 . S
C1738 C1741 1.403 . S
C1739 C1736 1.403 . S
C1739 C1740 1.524 . S
C1739 C1743 1.400 . S
C1740 H1725 0.960 . S
C1740 H1726 0.960 . S
C1740 H1727 0.960 . S
C1740 C1739 1.524 . S
C1741 C1738 1.403 . S
C1741 C1742 1.392 . S
C1741 C1745 1.495 . S
C1742 C1741 1.392 . S
C1742 C1743 1.385 . S
C1742 C1744 1.478 . S
C1743 H1737 0.930 . S
C1743 C1739 1.400 . S
C1743 C1742 1.385 . S
C1744 C1742 1.478 . S
C1744 C1746 1.381 . S
C1744 C1750 1.383 . S
C1745 C1741 1.495 . S
C1745 H1751 0.959 . S
C1745 H1752 0.961 . S
C1745 H1753 0.960 . S
C1746 C1744 1.381 . S
C1746 C1747 1.394 . S
C1746 H1754 0.930 . S
C1747 C1746 1.394 . S
C1747 C1748 1.383 . S
C1747 H1755 0.929 . S
C1748 C1747 1.383 . S
C1748 C1749 1.377 . S
C1749 H1733 0.930 . S
C1749 C1748 1.377 . S
C1749 C1750 1.379 . S
C1750 H1734 0.931 . S
C1750 C1744 1.383 . S
C1750 C1749 1.379 . S
H1751 C1745 0.959 . S
H1752 C1745 0.961 . S
H1753 C1745 0.960 . S
H1754 C1746 0.930 . S
H1755 C1747 0.929 . S
H1756 C1764 0.929 . S
H1757 C1766 0.930 . S
H1758 C1768 0.930 . S
H1759 C1771 0.929 . S
H1760 C1774 0.930 . S
H1761 C1776 0.960 . S
H1762 C1776 0.960 . S
H1763 C1776 0.960 . S
C1764 H1756 0.929 . S
C1764 C1765 1.377 . S
C1764 C1766 1.384 . S
C1765 C1764 1.377 . S
C1765 C1771 1.390 . S
C1766 H1757 0.930 . S
C1766 C1764 1.384 . S
C1766 C1767 1.372 . S
C1767 C1766 1.372 . S
C1767 C1768 1.400 . S
C1767 C1772 1.490 . S
C1768 H1758 0.930 . S
C1768 C1767 1.400 . S
C1768 C1771 1.386 . S
H1769 C1785 0.930 . S
H1770 C1786 0.931 . S
C1771 H1759 0.929 . S
C1771 C1765 1.390 . S
C1771 C1768 1.386 . S
C1772 C1767 1.490 . S
C1772 C1774 1.395 . S
C1772 C1775 1.403 . S
H1773 C1779 0.930 . S
C1774 H1760 0.930 . S
C1774 C1772 1.395 . S
C1774 C1777 1.403 . S
C1775 C1772 1.403 . S
C1775 C1776 1.524 . S
C1775 C1779 1.400 . S
C1776 H1761 0.960 . S
C1776 H1762 0.960 . S
C1776 H1763 0.960 . S
C1776 C1775 1.524 . S
C1777 C1774 1.403 . S
C1777 C1778 1.392 . S
C1777 C1781 1.495 . S
C1778 C1777 1.392 . S
C1778 C1779 1.385 . S
C1778 C1780 1.478 . S
C1779 H1773 0.930 . S
C1779 C1775 1.400 . S
C1779 C1778 1.385 . S
C1780 C1778 1.478 . S
C1780 C1782 1.381 . S
C1780 C1786 1.383 . S
C1781 C1777 1.495 . S
C1781 H1787 0.959 . S
C1781 H1788 0.961 . S
C1781 H1789 0.960 . S
C1782 C1780 1.381 . S
C1782 C1783 1.394 . S
C1782 H1790 0.930 . S
C1783 C1782 1.394 . S
C1783 C1784 1.383 . S
C1783 H1791 0.929 . S
C1784 C1783 1.383 . S
C1784 C1785 1.377 . S
C1785 H1769 0.930 . S
C1785 C1784 1.377 . S
C1785 C1786 1.379 . S
C1786 H1770 0.931 . S
C1786 C1780 1.383 . S
C1786 C1785 1.379 . S
H1787 C1781 0.959 . S
H1788 C1781 0.961 . S
H1789 C1781 0.960 . S
H1790 C1782 0.930 . S
H1791 C1783 0.929 . S
H1792 C1800 0.929 . S
H1793 C1802 0.930 . S
H1794 C1804 0.930 . S
H1795 C1807 0.929 . S
H1796 C1810 0.930 . S
H1797 C1812 0.960 . S
H1798 C1812 0.960 . S
H1799 C1812 0.960 . S
C1800 H1792 0.929 . S
C1800 C1801 1.377 . S
C1800 C1802 1.384 . S
C1801 C1800 1.377 . S
C1801 C1807 1.390 . S
C1802 H1793 0.930 . S
C1802 C1800 1.384 . S
C1802 C1803 1.372 . S
C1803 C1802 1.372 . S
C1803 C1804 1.400 . S
C1803 C1808 1.490 . S
C1804 H1794 0.930 . S
C1804 C1803 1.400 . S
C1804 C1807 1.386 . S
H1805 C1821 0.930 . S
H1806 C1822 0.931 . S
C1807 H1795 0.929 . S
C1807 C1801 1.390 . S
C1807 C1804 1.386 . S
C1808 C1803 1.490 . S
C1808 C1810 1.395 . S
C1808 C1811 1.403 . S
H1809 C1815 0.930 . S
C1810 H1796 0.930 . S
C1810 C1808 1.395 . S
C1810 C1813 1.403 . S
C1811 C1808 1.403 . S
C1811 C1812 1.524 . S
C1811 C1815 1.400 . S
C1812 H1797 0.960 . S
C1812 H1798 0.960 . S
C1812 H1799 0.960 . S
C1812 C1811 1.524 . S
C1813 C1810 1.403 . S
C1813 C1814 1.392 . S
C1813 C1817 1.495 . S
C1814 C1813 1.392 . S
C1814 C1815 1.385 . S
C1814 C1816 1.478 . S
C1815 H1809 0.930 . S
C1815 C1811 1.400 . S
C1815 C1814 1.385 . S
C1816 C1814 1.478 . S
C1816 C1818 1.381 . S
C1816 C1822 1.383 . S
C1817 C1813 1.495 . S
C1817 H1823 0.959 . S
C1817 H1824 0.961 . S
C1817 H1825 0.960 . S
C1818 C1816 1.381 . S
C1818 C1819 1.394 . S
C1818 H1826 0.930 . S
C1819 C1818 1.394 . S
C1819 C1820 1.383 . S
C1819 H1827 0.929 . S
C1820 C1819 1.383 . S
C1820 C1821 1.377 . S
C1821 H1805 0.930 . S
C1821 C1820 1.377 . S
C1821 C1822 1.379 . S
C1822 H1806 0.931 . S
C1822 C1816 1.383 . S
C1822 C1821 1.379 . S
H1823 C1817 0.959 . S
H1824 C1817 0.961 . S
H1825 C1817 0.960 . S
H1826 C1818 0.930 . S
H1827 C1819 0.929 . S
H1828 C1836 0.929 . S
H1829 C1838 0.930 . S
H1830 C1840 0.930 . S
H1831 C1843 0.929 . S
H1832 C1846 0.930 . S
H1833 C1848 0.960 . S
H1834 C1848 0.960 . S
H1835 C1848 0.960 . S
C1836 H1828 0.929 . S
C1836 C1837 1.377 . S
C1836 C1838 1.384 . S
C1837 C1836 1.377 . S
C1837 C1843 1.390 . S
C1838 H1829 0.930 . S
C1838 C1836 1.384 . S
C1838 C1839 1.372 . S
C1839 C1838 1.372 . S
C1839 C1840 1.400 . S
C1839 C1844 1.490 . S
C1840 H1830 0.930 . S
C1840 C1839 1.400 . S
C1840 C1843 1.386 . S
H1841 C1857 0.930 . S
H1842 C1858 0.931 . S
C1843 H1831 0.929 . S
C1843 C1837 1.390 . S
C1843 C1840 1.386 . S
C1844 C1839 1.490 . S
C1844 C1846 1.395 . S
C1844 C1847 1.403 . S
H1845 C1851 0.930 . S
C1846 H1832 0.930 . S
C1846 C1844 1.395 . S
C1846 C1849 1.403 . S
C1847 C1844 1.403 . S
C1847 C1848 1.524 . S
C1847 C1851 1.400 . S
C1848 H1833 0.960 . S
C1848 H1834 0.960 . S
C1848 H1835 0.960 . S
C1848 C1847 1.524 . S
C1849 C1846 1.403 . S
C1849 C1850 1.392 . S
C1849 C1853 1.495 . S
C1850 C1849 1.392 . S
C1850 C1851 1.385 . S
C1850 C1852 1.478 . S
C1851 H1845 0.930 . S
C1851 C1847 1.400 . S
C1851 C1850 1.385 . S
C1852 C1850 1.478 . S
C1852 C1854 1.381 . S
C1852 C1858 1.383 . S
C1853 C1849 1.495 . S
C1853 H1859 0.959 . S
C1853 H1860 0.961 . S
C1853 H1861 0.960 . S
C1854 C1852 1.381 . S
C1854 C1855 1.394 . S
C1854 H1862 0.930 . S
C1855 C1854 1.394 . S
C1855 C1856 1.383 . S
C1855 H1863 0.929 . S
C1856 C1855 1.383 . S
C1856 C1857 1.377 . S
C1857 H1841 0.930 . S
C1857 C1856 1.377 . S
C1857 C1858 1.379 . S
C1858 H1842 0.931 . S
C1858 C1852 1.383 . S
C1858 C1857 1.379 . S
H1859 C1853 0.959 . S
H1860 C1853 0.961 . S
H1861 C1853 0.960 . S
H1862 C1854 0.930 . S
H1863 C1855 0.929 . S
H1864 C1872 0.929 . S
H1865 C1874 0.930 . S
H1866 C1876 0.930 . S
H1867 C1879 0.929 . S
H1868 C1882 0.930 . S
H1869 C1884 0.960 . S
H1870 C1884 0.960 . S
H1871 C1884 0.960 . S
C1872 H1864 0.929 . S
C1872 C1873 1.377 . S
C1872 C1874 1.384 . S
C1873 C1872 1.377 . S
C1873 C1879 1.390 . S
C1874 H1865 0.930 . S
C1874 C1872 1.384 . S
C1874 C1875 1.372 . S
C1875 C1874 1.372 . S
C1875 C1876 1.400 . S
C1875 C1880 1.490 . S
C1876 H1866 0.930 . S
C1876 C1875 1.400 . S
C1876 C1879 1.386 . S
H1877 C1893 0.930 . S
H1878 C1894 0.931 . S
C1879 H1867 0.929 . S
C1879 C1873 1.390 . S
C1879 C1876 1.386 . S
C1880 C1875 1.490 . S
C1880 C1882 1.395 . S
C1880 C1883 1.403 . S
H1881 C1887 0.930 . S
C1882 H1868 0.930 . S
C1882 C1880 1.395 . S
C1882 C1885 1.403 . S
C1883 C1880 1.403 . S
C1883 C1884 1.524 . S
C1883 C1887 1.400 . S
C1884 H1869 0.960 . S
C1884 H1870 0.960 . S
C1884 H1871 0.960 . S
C1884 C1883 1.524 . S
C1885 C1882 1.403 . S
C1885 C1886 1.392 . S
C1885 C1889 1.495 . S
C1886 C1885 1.392 . S
C1886 C1887 1.385 . S
C1886 C1888 1.478 . S
C1887 H1881 0.930 . S
C1887 C1883 1.400 . S
C1887 C1886 1.385 . S
C1888 C1886 1.478 . S
C1888 C1890 1.381 . S
C1888 C1894 1.383 . S
C1889 C1885 1.495 . S
C1889 H1895 0.959 . S
C1889 H1896 0.961 . S
C1889 H1897 0.960 . S
C1890 C1888 1.381 . S
C1890 C1891 1.394 . S
C1890 H1898 0.930 . S
C1891 C1890 1.394 . S
C1891 C1892 1.383 . S
C1891 H1899 0.929 . S
C1892 C1891 1.383 . S
C1892 C1893 1.377 . S
C1893 H1877 0.930 . S
C1893 C1892 1.377 . S
C1893 C1894 1.379 . S
C1894 H1878 0.931 . S
C1894 C1888 1.383 . S
C1894 C1893 1.379 . S
H1895 C1889 0.959 . S
H1896 C1889 0.961 . S
H1897 C1889 0.960 . S
H1898 C1890 0.930 . S
H1899 C1891 0.929 . S
H1900 C1908 0.929 . S
H1901 C1910 0.930 . S
H1902 C1912 0.930 . S
H1903 C1915 0.929 . S
H1904 C1918 0.930 . S
H1905 C1920 0.960 . S
H1906 C1920 0.960 . S
H1907 C1920 0.960 . S
C1908 H1900 0.929 . S
C1908 C1909 1.377 . S
C1908 C1910 1.384 . S
C1909 C1908 1.377 . S
C1909 C1915 1.390 . S
C1910 H1901 0.930 . S
C1910 C1908 1.384 . S
C1910 C1911 1.372 . S
C1911 C1910 1.372 . S
C1911 C1912 1.400 . S
C1911 C1916 1.490 . S
C1912 H1902 0.930 . S
C1912 C1911 1.400 . S
C1912 C1915 1.386 . S
H1913 C1929 0.930 . S
H1914 C1930 0.931 . S
C1915 H1903 0.929 . S
C1915 C1909 1.390 . S
C1915 C1912 1.386 . S
C1916 C1911 1.490 . S
C1916 C1918 1.395 . S
C1916 C1919 1.403 . S
H1917 C1923 0.930 . S
C1918 H1904 0.930 . S
C1918 C1916 1.395 . S
C1918 C1921 1.403 . S
C1919 C1916 1.403 . S
C1919 C1920 1.524 . S
C1919 C1923 1.400 . S
C1920 H1905 0.960 . S
C1920 H1906 0.960 . S
C1920 H1907 0.960 . S
C1920 C1919 1.524 . S
C1921 C1918 1.403 . S
C1921 C1922 1.392 . S
C1921 C1925 1.495 . S
C1922 C1921 1.392 . S
C1922 C1923 1.385 . S
C1922 C1924 1.478 . S
C1923 H1917 0.930 . S
C1923 C1919 1.400 . S
C1923 C1922 1.385 . S
C1924 C1922 1.478 . S
C1924 C1926 1.381 . S
C1924 C1930 1.383 . S
C1925 C1921 1.495 . S
C1925 H1931 0.959 . S
C1925 H1932 0.961 . S
C1925 H1933 0.960 . S
C1926 C1924 1.381 . S
C1926 C1927 1.394 . S
C1926 H1934 0.930 . S
C1927 C1926 1.394 . S
C1927 C1928 1.383 . S
C1927 H1935 0.929 . S
C1928 C1927 1.383 . S
C1928 C1929 1.377 . S
C1929 H1913 0.930 . S
C1929 C1928 1.377 . S
C1929 C1930 1.379 . S
C1930 H1914 0.931 . S
C1930 C1924 1.383 . S
C1930 C1929 1.379 . S
H1931 C1925 0.959 . S
H1932 C1925 0.961 . S
H1933 C1925 0.960 . S
H1934 C1926 0.930 . S
H1935 C1927 0.929 . S
H1936 C1944 0.929 . S
H1937 C1946 0.930 . S
H1938 C1948 0.930 . S
H1939 C1951 0.929 . S
H1940 C1954 0.930 . S
H1941 C1956 0.960 . S
H1942 C1956 0.960 . S
H1943 C1956 0.960 . S
C1944 H1936 0.929 . S
C1944 C1945 1.377 . S
C1944 C1946 1.384 . S
C1945 C1944 1.377 . S
C1945 C1951 1.390 . S
C1946 H1937 0.930 . S
C1946 C1944 1.384 . S
C1946 C1947 1.372 . S
C1947 C1946 1.372 . S
C1947 C1948 1.400 . S
C1947 C1952 1.490 . S
C1948 H1938 0.930 . S
C1948 C1947 1.400 . S
C1948 C1951 1.386 . S
H1949 C1965 0.930 . S
H1950 C1966 0.931 . S
C1951 H1939 0.929 . S
C1951 C1945 1.390 . S
C1951 C1948 1.386 . S
C1952 C1947 1.490 . S
C1952 C1954 1.395 . S
C1952 C1955 1.403 . S
H1953 C1959 0.930 . S
C1954 H1940 0.930 . S
C1954 C1952 1.395 . S
C1954 C1957 1.403 . S
C1955 C1952 1.403 . S
C1955 C1956 1.524 . S
C1955 C1959 1.400 . S
C1956 H1941 0.960 . S
C1956 H1942 0.960 . S
C1956 H1943 0.960 . S
C1956 C1955 1.524 . S
C1957 C1954 1.403 . S
C1957 C1958 1.392 . S
C1957 C1961 1.495 . S
C1958 C1957 1.392 . S
C1958 C1959 1.385 . S
C1958 C1960 1.478 . S
C1959 H1953 0.930 . S
C1959 C1955 1.400 . S
C1959 C1958 1.385 . S
C1960 C1958 1.478 . S
C1960 C1962 1.381 . S
C1960 C1966 1.383 . S
C1961 C1957 1.495 . S
C1961 H1967 0.959 . S
C1961 H1968 0.961 . S
C1961 H1969 0.960 . S
C1962 C1960 1.381 . S
C1962 C1963 1.394 . S
C1962 H1970 0.930 . S
C1963 C1962 1.394 . S
C1963 C1964 1.383 . S
C1963 H1971 0.929 . S
C1964 C1963 1.383 . S
C1964 C1965 1.377 . S
C1965 H1949 0.930 . S
C1965 C1964 1.377 . S
C1965 C1966 1.379 . S
C1966 H1950 0.931 . S
C1966 C1960 1.383 . S
C1966 C1965 1.379 . S
H1967 C1961 0.959 . S
H1968 C1961 0.961 . S
H1969 C1961 0.960 . S
H1970 C1962 0.930 . S
H1971 C1963 0.929 . S
H1972 C1980 0.929 . S
H1973 C1982 0.930 . S
H1974 C1984 0.930 . S
H1975 C1987 0.929 . S
H1976 C1990 0.930 . S
H1977 C1992 0.960 . S
H1978 C1992 0.960 . S
H1979 C1992 0.960 . S
C1980 H1972 0.929 . S
C1980 C1981 1.377 . S
C1980 C1982 1.384 . S
C1981 C1980 1.377 . S
C1981 C1987 1.390 . S
C1982 H1973 0.930 . S
C1982 C1980 1.384 . S
C1982 C1983 1.372 . S
C1983 C1982 1.372 . S
C1983 C1984 1.400 . S
C1983 C1988 1.490 . S
C1984 H1974 0.930 . S
C1984 C1983 1.400 . S
C1984 C1987 1.386 . S
H1985 C2001 0.930 . S
H1986 C2002 0.931 . S
C1987 H1975 0.929 . S
C1987 C1981 1.390 . S
C1987 C1984 1.386 . S
C1988 C1983 1.490 . S
C1988 C1990 1.395 . S
C1988 C1991 1.403 . S
H1989 C1995 0.930 . S
C1990 H1976 0.930 . S
C1990 C1988 1.395 . S
C1990 C1993 1.403 . S
C1991 C1988 1.403 . S
C1991 C1992 1.524 . S
C1991 C1995 1.400 . S
C1992 H1977 0.960 . S
C1992 H1978 0.960 . S
C1992 H1979 0.960 . S
C1992 C1991 1.524 . S
C1993 C1990 1.403 . S
C1993 C1994 1.392 . S
C1993 C1997 1.495 . S
C1994 C1993 1.392 . S
C1994 C1995 1.385 . S
C1994 C1996 1.478 . S
C1995 H1989 0.930 . S
C1995 C1991 1.400 . S
C1995 C1994 1.385 . S
C1996 C1994 1.478 . S
C1996 C1998 1.381 . S
C1996 C2002 1.383 . S
C1997 C1993 1.495 . S
C1997 H2003 0.959 . S
C1997 H2004 0.961 . S
C1997 H2005 0.960 . S
C1998 C1996 1.381 . S
C1998 C1999 1.394 . S
C1998 H2006 0.930 . S
C1999 C1998 1.394 . S
C1999 C2000 1.383 . S
C1999 H2007 0.929 . S
C2000 C1999 1.383 . S
C2000 C2001 1.377 . S
C2001 H1985 0.930 . S
C2001 C2000 1.377 . S
C2001 C2002 1.379 . S
C2002 H1986 0.931 . S
C2002 C1996 1.383 . S
C2002 C2001 1.379 . S
H2003 C1997 0.959 . S
H2004 C1997 0.961 . S
H2005 C1997 0.960 . S
H2006 C1998 0.930 . S
H2007 C1999 0.929 . S
H2008 C2016 0.929 . S
H2009 C2018 0.930 . S
H2010 C2020 0.930 . S
H2011 C2023 0.929 . S
H2012 C2026 0.930 . S
H2013 C2028 0.960 . S
H2014 C2028 0.960 . S
H2015 C2028 0.960 . S
C2016 H2008 0.929 . S
C2016 C2017 1.377 . S
C2016 C2018 1.384 . S
C2017 C2016 1.377 . S
C2017 C2023 1.390 . S
C2018 H2009 0.930 . S
C2018 C2016 1.384 . S
C2018 C2019 1.372 . S
C2019 C2018 1.372 . S
C2019 C2020 1.400 . S
C2019 C2024 1.490 . S
C2020 H2010 0.930 . S
C2020 C2019 1.400 . S
C2020 C2023 1.386 . S
H2021 C2037 0.930 . S
H2022 C2038 0.931 . S
C2023 H2011 0.929 . S
C2023 C2017 1.390 . S
C2023 C2020 1.386 . S
C2024 C2019 1.490 . S
C2024 C2026 1.395 . S
C2024 C2027 1.403 . S
H2025 C2031 0.930 . S
C2026 H2012 0.930 . S
C2026 C2024 1.395 . S
C2026 C2029 1.403 . S
C2027 C2024 1.403 . S
C2027 C2028 1.524 . S
C2027 C2031 1.400 . S
C2028 H2013 0.960 . S
C2028 H2014 0.960 . S
C2028 H2015 0.960 . S
C2028 C2027 1.524 . S
C2029 C2026 1.403 . S
C2029 C2030 1.392 . S
C2029 C2033 1.495 . S
C2030 C2029 1.392 . S
C2030 C2031 1.385 . S
C2030 C2032 1.478 . S
C2031 H2025 0.930 . S
C2031 C2027 1.400 . S
C2031 C2030 1.385 . S
C2032 C2030 1.478 . S
C2032 C2034 1.381 . S
C2032 C2038 1.383 . S
C2033 C2029 1.495 . S
C2033 H2039 0.959 . S
C2033 H2040 0.961 . S
C2033 H2041 0.960 . S
C2034 C2032 1.381 . S
C2034 C2035 1.394 . S
C2034 H2042 0.930 . S
C2035 C2034 1.394 . S
C2035 C2036 1.383 . S
C2035 H2043 0.929 . S
C2036 C2035 1.383 . S
C2036 C2037 1.377 . S
C2037 H2021 0.930 . S
C2037 C2036 1.377 . S
C2037 C2038 1.379 . S
C2038 H2022 0.931 . S
C2038 C2032 1.383 . S
C2038 C2037 1.379 . S
H2039 C2033 0.959 . S
H2040 C2033 0.961 . S
H2041 C2033 0.960 . S
H2042 C2034 0.930 . S
H2043 C2035 0.929 . S
H2044 C2052 0.929 . S
H2045 C2054 0.930 . S
H2046 C2056 0.930 . S
H2047 C2059 0.929 . S
H2048 C2062 0.930 . S
H2049 C2064 0.960 . S
H2050 C2064 0.960 . S
H2051 C2064 0.960 . S
C2052 H2044 0.929 . S
C2052 C2053 1.377 . S
C2052 C2054 1.384 . S
C2053 C2052 1.377 . S
C2053 C2059 1.390 . S
C2054 H2045 0.930 . S
C2054 C2052 1.384 . S
C2054 C2055 1.372 . S
C2055 C2054 1.372 . S
C2055 C2056 1.400 . S
C2055 C2060 1.490 . S
C2056 H2046 0.930 . S
C2056 C2055 1.400 . S
C2056 C2059 1.386 . S
H2057 C2073 0.930 . S
H2058 C2074 0.931 . S
C2059 H2047 0.929 . S
C2059 C2053 1.390 . S
C2059 C2056 1.386 . S
C2060 C2055 1.490 . S
C2060 C2062 1.395 . S
C2060 C2063 1.403 . S
H2061 C2067 0.930 . S
C2062 H2048 0.930 . S
C2062 C2060 1.395 . S
C2062 C2065 1.403 . S
C2063 C2060 1.403 . S
C2063 C2064 1.524 . S
C2063 C2067 1.400 . S
C2064 H2049 0.960 . S
C2064 H2050 0.960 . S
C2064 H2051 0.960 . S
C2064 C2063 1.524 . S
C2065 C2062 1.403 . S
C2065 C2066 1.392 . S
C2065 C2069 1.495 . S
C2066 C2065 1.392 . S
C2066 C2067 1.385 . S
C2066 C2068 1.478 . S
C2067 H2061 0.930 . S
C2067 C2063 1.400 . S
C2067 C2066 1.385 . S
C2068 C2066 1.478 . S
C2068 C2070 1.381 . S
C2068 C2074 1.383 . S
C2069 C2065 1.495 . S
C2069 H2075 0.959 . S
C2069 H2076 0.961 . S
C2069 H2077 0.960 . S
C2070 C2068 1.381 . S
C2070 C2071 1.394 . S
C2070 H2078 0.930 . S
C2071 C2070 1.394 . S
C2071 C2072 1.383 . S
C2071 H2079 0.929 . S
C2072 C2071 1.383 . S
C2072 C2073 1.377 . S
C2073 H2057 0.930 . S
C2073 C2072 1.377 . S
C2073 C2074 1.379 . S
C2074 H2058 0.931 . S
C2074 C2068 1.383 . S
C2074 C2073 1.379 . S
H2075 C2069 0.959 . S
H2076 C2069 0.961 . S
H2077 C2069 0.960 . S
H2078 C2070 0.930 . S
H2079 C2071 0.929 . S
H2080 C2088 0.929 . S
H2081 C2090 0.930 . S
H2082 C2092 0.930 . S
H2083 C2095 0.929 . S
H2084 C2098 0.930 . S
H2085 C2100 0.960 . S
H2086 C2100 0.960 . S
H2087 C2100 0.960 . S
C2088 H2080 0.929 . S
C2088 C2089 1.377 . S
C2088 C2090 1.384 1_556 S
C2089 C2088 1.377 . S
C2089 C2095 1.390 . S
C2090 H2081 0.930 . S
C2090 C2088 1.384 1_554 S
C2090 C2091 1.372 . S
C2091 C2090 1.372 . S
C2091 C2092 1.400 . S
C2091 C2096 1.490 . S
C2092 H2082 0.930 . S
C2092 C2091 1.400 . S
C2092 C2095 1.386 1_554 S
H2093 C2109 0.930 . S
H2094 C2110 0.931 . S
C2095 H2083 0.929 . S
C2095 C2089 1.390 . S
C2095 C2092 1.386 1_556 S
C2096 C2091 1.490 . S
C2096 C2098 1.395 . S
C2096 C2099 1.403 . S
H2097 C2103 0.930 . S
C2098 H2084 0.930 . S
C2098 C2096 1.395 . S
C2098 C2101 1.403 . S
C2099 C2096 1.403 . S
C2099 C2100 1.524 . S
C2099 C2103 1.400 . S
C2100 H2085 0.960 . S
C2100 H2086 0.960 . S
C2100 H2087 0.960 . S
C2100 C2099 1.524 . S
C2101 C2098 1.403 . S
C2101 C2102 1.392 . S
C2101 C2105 1.495 . S
C2102 C2101 1.392 . S
C2102 C2103 1.385 . S
C2102 C2104 1.478 . S
C2103 H2097 0.930 . S
C2103 C2099 1.400 . S
C2103 C2102 1.385 . S
C2104 C2102 1.478 . S
C2104 C2106 1.381 . S
C2104 C2110 1.383 . S
C2105 C2101 1.495 . S
C2105 H2111 0.959 . S
C2105 H2112 0.961 . S
C2105 H2113 0.960 . S
C2106 C2104 1.381 . S
C2106 C2107 1.394 . S
C2106 H2114 0.930 . S
C2107 C2106 1.394 . S
C2107 C2108 1.383 . S
C2107 H2115 0.929 . S
C2108 C2107 1.383 . S
C2108 C2109 1.377 . S
C2109 H2093 0.930 . S
C2109 C2108 1.377 . S
C2109 C2110 1.379 . S
C2110 H2094 0.931 . S
C2110 C2104 1.383 . S
C2110 C2109 1.379 . S
H2111 C2105 0.959 . S
H2112 C2105 0.961 . S
H2113 C2105 0.960 . S
H2114 C2106 0.930 . S
H2115 C2107 0.929 . S
H2116 C2124 0.929 . S
H2117 C2126 0.930 . S
H2118 C2128 0.930 . S
H2119 C2131 0.929 . S
H2120 C2134 0.930 . S
H2121 C2136 0.960 . S
H2122 C2136 0.960 . S
H2123 C2136 0.960 . S
C2124 H2116 0.929 . S
C2124 C2125 1.377 . S
C2124 C2126 1.384 . S
C2125 C2124 1.377 . S
C2125 C2131 1.390 . S
C2126 H2117 0.930 . S
C2126 C2124 1.384 . S
C2126 C2127 1.372 . S
C2127 C2126 1.372 . S
C2127 C2128 1.400 . S
C2127 C2132 1.490 . S
C2128 H2118 0.930 . S
C2128 C2127 1.400 . S
C2128 C2131 1.386 . S
H2129 C2145 0.930 . S
H2130 C2146 0.931 . S
C2131 H2119 0.929 . S
C2131 C2125 1.390 . S
C2131 C2128 1.386 . S
C2132 C2127 1.490 . S
C2132 C2134 1.395 . S
C2132 C2135 1.403 . S
H2133 C2139 0.930 . S
C2134 H2120 0.930 . S
C2134 C2132 1.395 . S
C2134 C2137 1.403 . S
C2135 C2132 1.403 . S
C2135 C2136 1.524 . S
C2135 C2139 1.400 . S
C2136 H2121 0.960 . S
C2136 H2122 0.960 . S
C2136 H2123 0.960 . S
C2136 C2135 1.524 . S
C2137 C2134 1.403 . S
C2137 C2138 1.392 . S
C2137 C2141 1.495 . S
C2138 C2137 1.392 . S
C2138 C2139 1.385 . S
C2138 C2140 1.478 . S
C2139 H2133 0.930 . S
C2139 C2135 1.400 . S
C2139 C2138 1.385 . S
C2140 C2138 1.478 . S
C2140 C2142 1.381 . S
C2140 C2146 1.383 . S
C2141 C2137 1.495 . S
C2141 H2147 0.959 . S
C2141 H2148 0.961 . S
C2141 H2149 0.960 . S
C2142 C2140 1.381 . S
C2142 C2143 1.394 1_556 S
C2142 H2150 0.930 . S
C2143 C2142 1.394 1_554 S
C2143 C2144 1.383 . S
C2143 H2151 0.929 . S
C2144 C2143 1.383 . S
C2144 C2145 1.377 . S
C2145 H2129 0.930 . S
C2145 C2144 1.377 . S
C2145 C2146 1.379 1_554 S
C2146 H2130 0.931 . S
C2146 C2140 1.383 . S
C2146 C2145 1.379 1_556 S
H2147 C2141 0.959 . S
H2148 C2141 0.961 . S
H2149 C2141 0.960 . S
H2150 C2142 0.930 . S
H2151 C2143 0.929 . S
H2152 C2160 0.929 . S
H2153 C2162 0.930 . S
H2154 C2164 0.930 . S
H2155 C2167 0.929 . S
H2156 C2170 0.930 . S
H2157 C2172 0.960 . S
H2158 C2172 0.960 . S
H2159 C2172 0.960 . S
C2160 H2152 0.929 . S
C2160 C2161 1.377 . S
C2160 C2162 1.384 . S
C2161 C2160 1.377 . S
C2161 C2167 1.390 . S
C2162 H2153 0.930 . S
C2162 C2160 1.384 . S
C2162 C2163 1.372 . S
C2163 C2162 1.372 . S
C2163 C2164 1.400 . S
C2163 C2168 1.490 . S
C2164 H2154 0.930 . S
C2164 C2163 1.400 . S
C2164 C2167 1.386 . S
H2165 C2181 0.930 . S
H2166 C2182 0.931 . S
C2167 H2155 0.929 . S
C2167 C2161 1.390 . S
C2167 C2164 1.386 . S
C2168 C2163 1.490 . S
C2168 C2170 1.395 . S
C2168 C2171 1.403 . S
H2169 C2175 0.930 . S
C2170 H2156 0.930 . S
C2170 C2168 1.395 . S
C2170 C2173 1.403 . S
C2171 C2168 1.403 . S
C2171 C2172 1.524 . S
C2171 C2175 1.400 . S
C2172 H2157 0.960 . S
C2172 H2158 0.960 . S
C2172 H2159 0.960 . S
C2172 C2171 1.524 . S
C2173 C2170 1.403 . S
C2173 C2174 1.392 . S
C2173 C2177 1.495 . S
C2174 C2173 1.392 . S
C2174 C2175 1.385 . S
C2174 C2176 1.478 . S
C2175 H2169 0.930 . S
C2175 C2171 1.400 . S
C2175 C2174 1.385 . S
C2176 C2174 1.478 . S
C2176 C2178 1.381 . S
C2176 C2182 1.383 . S
C2177 C2173 1.495 . S
C2177 H2183 0.959 . S
C2177 H2184 0.961 . S
C2177 H2185 0.960 . S
C2178 C2176 1.381 . S
C2178 C2179 1.394 1_554 S
C2178 H2186 0.930 . S
C2179 C2178 1.394 1_556 S
C2179 C2180 1.383 . S
C2179 H2187 0.929 . S
C2180 C2179 1.383 . S
C2180 C2181 1.377 . S
C2181 H2165 0.930 . S
C2181 C2180 1.377 . S
C2181 C2182 1.379 1_556 S
C2182 H2166 0.931 . S
C2182 C2176 1.383 . S
C2182 C2181 1.379 1_554 S
H2183 C2177 0.959 . S
H2184 C2177 0.961 . S
H2185 C2177 0.960 . S
H2186 C2178 0.930 . S
H2187 C2179 0.929 . S
H2188 C2196 0.929 . S
H2189 C2198 0.930 . S
H2190 C2200 0.930 . S
H2191 C2203 0.929 . S
H2192 C2206 0.930 . S
H2193 C2208 0.960 . S
H2194 C2208 0.960 . S
H2195 C2208 0.960 . S
C2196 H2188 0.929 . S
C2196 C2197 1.377 . S
C2196 C2198 1.384 1_554 S
C2197 C2196 1.377 . S
C2197 C2203 1.390 . S
C2198 H2189 0.930 . S
C2198 C2196 1.384 1_556 S
C2198 C2199 1.372 . S
C2199 C2198 1.372 . S
C2199 C2200 1.400 . S
C2199 C2204 1.490 . S
C2200 H2190 0.930 . S
C2200 C2199 1.400 . S
C2200 C2203 1.386 1_556 S
H2201 C2217 0.930 . S
H2202 C2218 0.931 . S
C2203 H2191 0.929 . S
C2203 C2197 1.390 . S
C2203 C2200 1.386 1_554 S
C2204 C2199 1.490 . S
C2204 C2206 1.395 . S
C2204 C2207 1.403 . S
H2205 C2211 0.930 . S
C2206 H2192 0.930 . S
C2206 C2204 1.395 . S
C2206 C2209 1.403 . S
C2207 C2204 1.403 . S
C2207 C2208 1.524 . S
C2207 C2211 1.400 . S
C2208 H2193 0.960 . S
C2208 H2194 0.960 . S
C2208 H2195 0.960 . S
C2208 C2207 1.524 . S
C2209 C2206 1.403 . S
C2209 C2210 1.392 . S
C2209 C2213 1.495 . S
C2210 C2209 1.392 . S
C2210 C2211 1.385 . S
C2210 C2212 1.478 . S
C2211 H2205 0.930 . S
C2211 C2207 1.400 . S
C2211 C2210 1.385 . S
C2212 C2210 1.478 . S
C2212 C2214 1.381 . S
C2212 C2218 1.383 . S
C2213 C2209 1.495 . S
C2213 H2219 0.959 . S
C2213 H2220 0.961 . S
C2213 H2221 0.960 . S
C2214 C2212 1.381 . S
C2214 C2215 1.394 . S
C2214 H2222 0.930 . S
C2215 C2214 1.394 . S
C2215 C2216 1.383 . S
C2215 H2223 0.929 . S
C2216 C2215 1.383 . S
C2216 C2217 1.377 . S
C2217 H2201 0.930 . S
C2217 C2216 1.377 . S
C2217 C2218 1.379 . S
C2218 H2202 0.931 . S
C2218 C2212 1.383 . S
C2218 C2217 1.379 . S
H2219 C2213 0.959 . S
H2220 C2213 0.961 . S
H2221 C2213 0.960 . S
H2222 C2214 0.930 . S
H2223 C2215 0.929 . S
H2224 C2232 0.929 . S
H2225 C2234 0.930 . S
H2226 C2236 0.930 . S
H2227 C2239 0.929 . S
H2228 C2242 0.930 . S
H2229 C2244 0.960 . S
H2230 C2244 0.960 . S
H2231 C2244 0.960 . S
C2232 H2224 0.929 . S
C2232 C2233 1.377 . S
C2232 C2234 1.384 . S
C2233 C2232 1.377 . S
C2233 C2239 1.390 . S
C2234 H2225 0.930 . S
C2234 C2232 1.384 . S
C2234 C2235 1.372 . S
C2235 C2234 1.372 . S
C2235 C2236 1.400 . S
C2235 C2240 1.490 . S
C2236 H2226 0.930 . S
C2236 C2235 1.400 . S
C2236 C2239 1.386 . S
H2237 C2253 0.930 . S
H2238 C2254 0.931 . S
C2239 H2227 0.929 . S
C2239 C2233 1.390 . S
C2239 C2236 1.386 . S
C2240 C2235 1.490 . S
C2240 C2242 1.395 . S
C2240 C2243 1.403 . S
H2241 C2247 0.930 . S
C2242 H2228 0.930 . S
C2242 C2240 1.395 . S
C2242 C2245 1.403 . S
C2243 C2240 1.403 . S
C2243 C2244 1.524 . S
C2243 C2247 1.400 . S
C2244 H2229 0.960 . S
C2244 H2230 0.960 . S
C2244 H2231 0.960 . S
C2244 C2243 1.524 . S
C2245 C2242 1.403 . S
C2245 C2246 1.392 . S
C2245 C2249 1.495 . S
C2246 C2245 1.392 . S
C2246 C2247 1.385 . S
C2246 C2248 1.478 . S
C2247 H2241 0.930 . S
C2247 C2243 1.400 . S
C2247 C2246 1.385 . S
C2248 C2246 1.478 . S
C2248 C2250 1.381 . S
C2248 C2254 1.383 . S
C2249 C2245 1.495 . S
C2249 H2255 0.959 . S
C2249 H2256 0.961 . S
C2249 H2257 0.960 . S
C2250 C2248 1.381 . S
C2250 C2251 1.394 1_554 S
C2250 H2258 0.930 . S
C2251 C2250 1.394 1_556 S
C2251 C2252 1.383 . S
C2251 H2259 0.929 . S
C2252 C2251 1.383 . S
C2252 C2253 1.377 . S
C2253 H2237 0.930 . S
C2253 C2252 1.377 . S
C2253 C2254 1.379 1_556 S
C2254 H2238 0.931 . S
C2254 C2248 1.383 . S
C2254 C2253 1.379 1_554 S
H2255 C2249 0.959 . S
H2256 C2249 0.961 . S
H2257 C2249 0.960 . S
H2258 C2250 0.930 . S
H2259 C2251 0.929 . S
H2260 C2268 0.929 . S
H2261 C2270 0.930 . S
H2262 C2272 0.930 . S
H2263 C2275 0.929 . S
H2264 C2278 0.930 . S
H2265 C2280 0.960 . S
H2266 C2280 0.960 . S
H2267 C2280 0.960 . S
C2268 H2260 0.929 . S
C2268 C2269 1.377 . S
C2268 C2270 1.384 1_554 S
C2269 C2268 1.377 . S
C2269 C2275 1.390 . S
C2270 H2261 0.930 . S
C2270 C2268 1.384 1_556 S
C2270 C2271 1.372 . S
C2271 C2270 1.372 . S
C2271 C2272 1.400 . S
C2271 C2276 1.490 . S
C2272 H2262 0.930 . S
C2272 C2271 1.400 . S
C2272 C2275 1.386 1_556 S
H2273 C2289 0.930 . S
H2274 C2290 0.931 . S
C2275 H2263 0.929 . S
C2275 C2269 1.390 . S
C2275 C2272 1.386 1_554 S
C2276 C2271 1.490 . S
C2276 C2278 1.395 . S
C2276 C2279 1.403 . S
H2277 C2283 0.930 . S
C2278 H2264 0.930 . S
C2278 C2276 1.395 . S
C2278 C2281 1.403 . S
C2279 C2276 1.403 . S
C2279 C2280 1.524 . S
C2279 C2283 1.400 . S
C2280 H2265 0.960 . S
C2280 H2266 0.960 . S
C2280 H2267 0.960 . S
C2280 C2279 1.524 . S
C2281 C2278 1.403 . S
C2281 C2282 1.392 . S
C2281 C2285 1.495 . S
C2282 C2281 1.392 . S
C2282 C2283 1.385 . S
C2282 C2284 1.478 . S
C2283 H2277 0.930 . S
C2283 C2279 1.400 . S
C2283 C2282 1.385 . S
C2284 C2282 1.478 . S
C2284 C2286 1.381 . S
C2284 C2290 1.383 . S
C2285 C2281 1.495 . S
C2285 H2291 0.959 . S
C2285 H2292 0.961 . S
C2285 H2293 0.960 . S
C2286 C2284 1.381 . S
C2286 C2287 1.394 . S
C2286 H2294 0.930 . S
C2287 C2286 1.394 . S
C2287 C2288 1.383 . S
C2287 H2295 0.929 . S
C2288 C2287 1.383 . S
C2288 C2289 1.377 . S
C2289 H2273 0.930 . S
C2289 C2288 1.377 . S
C2289 C2290 1.379 . S
C2290 H2274 0.931 . S
C2290 C2284 1.383 . S
C2290 C2289 1.379 . S
H2291 C2285 0.959 . S
H2292 C2285 0.961 . S
H2293 C2285 0.960 . S
H2294 C2286 0.930 . S
H2295 C2287 0.929 . S
H2296 C2304 0.929 . S
H2297 C2306 0.930 . S
H2298 C2308 0.930 . S
H2299 C2311 0.929 . S
H2300 C2314 0.930 . S
H2301 C2316 0.960 . S
H2302 C2316 0.960 . S
H2303 C2316 0.960 . S
C2304 H2296 0.929 . S
C2304 C2305 1.377 . S
C2304 C2306 1.384 1_556 S
C2305 C2304 1.377 . S
C2305 C2311 1.390 . S
C2306 H2297 0.930 . S
C2306 C2304 1.384 1_554 S
C2306 C2307 1.372 . S
C2307 C2306 1.372 . S
C2307 C2308 1.400 . S
C2307 C2312 1.490 . S
C2308 H2298 0.930 . S
C2308 C2307 1.400 . S
C2308 C2311 1.386 1_554 S
H2309 C2325 0.930 . S
H2310 C2326 0.931 . S
C2311 H2299 0.929 . S
C2311 C2305 1.390 . S
C2311 C2308 1.386 1_556 S
C2312 C2307 1.490 . S
C2312 C2314 1.395 . S
C2312 C2315 1.403 . S
H2313 C2319 0.930 . S
C2314 H2300 0.930 . S
C2314 C2312 1.395 . S
C2314 C2317 1.403 . S
C2315 C2312 1.403 . S
C2315 C2316 1.524 . S
C2315 C2319 1.400 . S
C2316 H2301 0.960 . S
C2316 H2302 0.960 . S
C2316 H2303 0.960 . S
C2316 C2315 1.524 . S
C2317 C2314 1.403 . S
C2317 C2318 1.392 . S
C2317 C2321 1.495 . S
C2318 C2317 1.392 . S
C2318 C2319 1.385 . S
C2318 C2320 1.478 . S
C2319 H2313 0.930 . S
C2319 C2315 1.400 . S
C2319 C2318 1.385 . S
C2320 C2318 1.478 . S
C2320 C2322 1.381 . S
C2320 C2326 1.383 . S
C2321 C2317 1.495 . S
C2321 H2327 0.959 . S
C2321 H2328 0.961 . S
C2321 H2329 0.960 . S
C2322 C2320 1.381 . S
C2322 C2323 1.394 . S
C2322 H2330 0.930 . S
C2323 C2322 1.394 . S
C2323 C2324 1.383 . S
C2323 H2331 0.929 . S
C2324 C2323 1.383 . S
C2324 C2325 1.377 . S
C2325 H2309 0.930 . S
C2325 C2324 1.377 . S
C2325 C2326 1.379 . S
C2326 H2310 0.931 . S
C2326 C2320 1.383 . S
C2326 C2325 1.379 . S
H2327 C2321 0.959 . S
H2328 C2321 0.961 . S
H2329 C2321 0.960 . S
H2330 C2322 0.930 . S
H2331 C2323 0.929 . S
H2332 C2340 0.929 . S
H2333 C2342 0.930 . S
H2334 C2344 0.930 . S
H2335 C2347 0.929 . S
H2336 C2350 0.930 . S
H2337 C2352 0.960 . S
H2338 C2352 0.960 . S
H2339 C2352 0.960 . S
C2340 H2332 0.929 . S
C2340 C2341 1.377 . S
C2340 C2342 1.384 . S
C2341 C2340 1.377 . S
C2341 C2347 1.390 . S
C2342 H2333 0.930 . S
C2342 C2340 1.384 . S
C2342 C2343 1.372 . S
C2343 C2342 1.372 . S
C2343 C2344 1.400 . S
C2343 C2348 1.490 . S
C2344 H2334 0.930 . S
C2344 C2343 1.400 . S
C2344 C2347 1.386 . S
H2345 C2361 0.930 . S
H2346 C2362 0.931 . S
C2347 H2335 0.929 . S
C2347 C2341 1.390 . S
C2347 C2344 1.386 . S
C2348 C2343 1.490 . S
C2348 C2350 1.395 . S
C2348 C2351 1.403 . S
H2349 C2355 0.930 . S
C2350 H2336 0.930 . S
C2350 C2348 1.395 . S
C2350 C2353 1.403 . S
C2351 C2348 1.403 . S
C2351 C2352 1.524 . S
C2351 C2355 1.400 . S
C2352 H2337 0.960 . S
C2352 H2338 0.960 . S
C2352 H2339 0.960 . S
C2352 C2351 1.524 . S
C2353 C2350 1.403 . S
C2353 C2354 1.392 . S
C2353 C2357 1.495 . S
C2354 C2353 1.392 . S
C2354 C2355 1.385 . S
C2354 C2356 1.478 . S
C2355 H2349 0.930 . S
C2355 C2351 1.400 . S
C2355 C2354 1.385 . S
C2356 C2354 1.478 . S
C2356 C2358 1.381 . S
C2356 C2362 1.383 . S
C2357 C2353 1.495 . S
C2357 H2363 0.959 . S
C2357 H2364 0.961 . S
C2357 H2365 0.960 . S
C2358 C2356 1.381 . S
C2358 C2359 1.394 1_556 S
C2358 H2366 0.930 . S
C2359 C2358 1.394 1_554 S
C2359 C2360 1.383 . S
C2359 H2367 0.929 . S
C2360 C2359 1.383 . S
C2360 C2361 1.377 . S
C2361 H2345 0.930 . S
C2361 C2360 1.377 . S
C2361 C2362 1.379 1_554 S
C2362 H2346 0.931 . S
C2362 C2356 1.383 . S
C2362 C2361 1.379 1_556 S
H2363 C2357 0.959 . S
H2364 C2357 0.961 . S
H2365 C2357 0.960 . S
H2366 C2358 0.930 . S
H2367 C2359 0.929 . S
C649 C459 1.705 . S
C668 C18 1.698 . S
C685 C330 1.707 . S
C704 C49 1.695 . S
C721 C98 1.717 . S
C740 C379 1.723 . S
C757 C129 1.711 . S
C776 C410 1.707 . S
C793 C178 1.718 . S
C812 C219 1.724 . S
C829 C250 1.707 . S
C848 C209 1.726 . S
C865 C258 1.711 . S
C884 C299 1.689 . S
C901 C170 1.705 . S
C920 C289 1.709 . S
C937 C139 1.711 . S
C956 C338 1.728 . S
C973 C369 1.718 . S
C992 C10 1.703 . S
C1009 C59 1.707 . S
C1028 C418 1.697 . S
C1045 C90 1.705 . S
C1064 C449 1.703 . S
C1081 C498 1.715 . S
C1100 C539 1.696 . S
C1117 C570 1.712 . S
C1136 C529 1.715 . S
C1153 C619 1.712 . S
C1172 C578 1.727 . S
C1189 C609 1.715 . S
C1208 C490 1.723 . S
C1225 C9 1.133 . S
C1244 C169 1.174 . S
C1261 C218 1.141 . S
C1280 C58 1.164 . S
C1297 C89 1.128 . S
C1316 C249 1.150 . S
C1333 C138 1.129 . S
C1352 C298 1.106 . S
C1369 C329 1.143 . S
C1388 C489 1.152 . S
C1405 C538 1.139 . S
C1424 C378 1.159 . S
C1441 C409 1.128 . S
C1460 C569 1.155 . S
C1477 C458 1.137 . S
C1496 C618 1.149 . S
C1513 C579 2.240 . S
C1532 C19 2.234 . S
C1549 C50 2.241 . S
C1568 C610 2.238 . S
C1585 C99 2.240 . S
C1604 C499 2.236 . S
C1621 C130 2.240 . S
C1640 C530 2.244 . S
C1657 C179 2.241 . S
C1676 C419 2.240 . S
C1693 C210 2.241 . S
C1712 C450 2.228 . S
C1729 C259 2.239 . S
C1748 C339 2.233 . S
C1765 C370 2.242 . S
C1784 C290 2.232 . S
C1801 C6 1.101 . S
C1820 C15 1.106 . S
C1837 C55 1.099 . S
C1856 C46 1.089 . S
C1873 C86 1.099 . S
C1892 C95 1.102 . S
C1909 C126 1.100 . S
C1928 C135 1.106 . S
C1945 C175 1.101 . S
C1964 C166 1.106 . S
C1981 C215 1.100 . S
C2000 C206 1.092 . S
C2017 C246 1.098 . S
C2036 C255 1.094 . S
C2053 C286 1.101 . S
C2072 C295 1.106 . S
C2089 C326 1.100 . S
C2108 C335 1.090 . S
C2125 C366 1.101 . S
C2144 C375 1.101 . S
C2161 C415 1.099 . S
C2180 C406 1.089 . S
C2197 C455 1.098 . S
C2216 C446 1.102 . S
C2233 C486 1.098 . S
C2252 C495 1.088 . S
C2269 C526 1.101 . S
C2288 C535 1.096 . S
C2305 C575 1.101 . S
C2324 C566 1.101 . S
C2341 C615 1.101 . S
C2360 C606 1.104 . S
