# Generated by pormake.
# Topology zfs, (5)-cn, num edge types: 1
# Building blocks:
#     Node 0, Type 0, BuildingBlock: XOMCOT_clean_sbu_0, # of connection points: 5
#     Node 1, Type 0, BuildingBlock: XOMCOT_clean_sbu_0, # of connection points: 5
#     Node 2, Type 0, BuildingBlock: XOMCOT_clean_sbu_0, # of connection points: 5
#     Node 3, Type 0, BuildingBlock: XOMCOT_clean_sbu_0, # of connection points: 5
#     Node 4, Type 0, BuildingBlock: XOMCOT_clean_sbu_0, # of connection points: 5
#     Node 5, Type 0, BuildingBlock: XOMCOT_clean_sbu_0, # of connection points: 5
#     Node 6, Type 0, BuildingBlock: XOMCOT_clean_sbu_0, # of connection points: 5
#     Node 7, Type 0, BuildingBlock: XOMCOT_clean_sbu_0, # of connection points: 5
#     Edge 8, Type (0, 0), BuildingBlock: UVAHIK_clean_linker_0, # of connection points: 2
#     Edge 9, Type (0, 0), BuildingBlock: UVAHIK_clean_linker_0, # of connection points: 2
#     Edge 10, Type (0, 0), BuildingBlock: UVAHIK_clean_linker_0, # of connection points: 2
#     Edge 11, Type (0, 0), BuildingBlock: UVAHIK_clean_linker_0, # of connection points: 2
#     Edge 12, Type (0, 0), BuildingBlock: UVAHIK_clean_linker_0, # of connection points: 2
#     Edge 13, Type (0, 0), BuildingBlock: UVAHIK_clean_linker_0, # of connection points: 2
#     Edge 14, Type (0, 0), BuildingBlock: UVAHIK_clean_linker_0, # of connection points: 2
#     Edge 15, Type (0, 0), BuildingBlock: UVAHIK_clean_linker_0, # of connection points: 2
#     Edge 16, Type (0, 0), BuildingBlock: UVAHIK_clean_linker_0, # of connection points: 2
#     Edge 17, Type (0, 0), BuildingBlock: UVAHIK_clean_linker_0, # of connection points: 2
#     Edge 18, Type (0, 0), BuildingBlock: UVAHIK_clean_linker_0, # of connection points: 2
#     Edge 19, Type (0, 0), BuildingBlock: UVAHIK_clean_linker_0, # of connection points: 2
#     Edge 20, Type (0, 0), BuildingBlock: UVAHIK_clean_linker_0, # of connection points: 2
#     Edge 21, Type (0, 0), BuildingBlock: UVAHIK_clean_linker_0, # of connection points: 2
#     Edge 22, Type (0, 0), BuildingBlock: UVAHIK_clean_linker_0, # of connection points: 2
#     Edge 23, Type (0, 0), BuildingBlock: UVAHIK_clean_linker_0, # of connection points: 2
#     Edge 24, Type (0, 0), BuildingBlock: UVAHIK_clean_linker_0, # of connection points: 2
#     Edge 25, Type (0, 0), BuildingBlock: UVAHIK_clean_linker_0, # of connection points: 2
#     Edge 26, Type (0, 0), BuildingBlock: UVAHIK_clean_linker_0, # of connection points: 2
#     Edge 27, Type (0, 0), BuildingBlock: UVAHIK_clean_linker_0, # of connection points: 2
# Relax obj value: 0.120
# Max RMSD: 0.155
# Mean RMSD: 0.155
data_MOF--net-zfs--node1-XOMCOT_clean_sbu_0--edge1-UVAHIK_clean_linker_0
_symmetry_space_group_name_H-M    P1
_symmetry_Int_Tables_number       1
_symmetry_cell_setting            triclinic
loop_
_symmetry_equiv_pos_as_xyz
'x, y, z'
_cell_length_a     43.89275
_cell_length_b     44.021421
_cell_length_c     50.747643
_cell_angle_alpha  90.034977
_cell_angle_beta   90.005631
_cell_angle_gamma 90.054542
loop_
_atom_site_label
_atom_site_type_symbol
_atom_site_fract_x
_atom_site_fract_y
_atom_site_fract_z
_atom_type_partial_charge
Co0 Co 0.02617 0.24109 0.20422 0.0
C1 C 0.99824 0.25288 0.15344 0.0
C2 C 0.9718 0.22028 0.17495 0.0
C3 C 0.96012 0.22267 0.14976 0.0
N4 N 0.9958 0.23917 0.17698 0.0
N5 N 0.97705 0.24302 0.13618 0.0
H6 H 0.01695 0.26779 0.14845 0.0
H7 H 0.96452 0.20452 0.19002 0.0
C8 C 0.99246 0.23376 0.2555 0.0
O9 O 0.00967 0.25507 0.26591 0.0
N10 N 0.05732 0.24281 0.23115 0.0
C11 C 0.07926 0.26394 0.23441 0.0
C12 C 0.09841 0.25477 0.25422 0.0
C13 C 0.064 0.22066 0.24857 0.0
N14 N 0.08877 0.22759 0.26319 0.0
C15 C 0.03531 0.30532 0.19798 0.0
C16 C 0.98392 0.32433 0.22466 0.0
C17 C 1.00472 0.34616 0.21572 0.0
C18 C 0.03019 0.33637 0.20148 0.0
C19 C 0.98966 0.29348 0.22024 0.0
N20 N 0.01631 0.28415 0.20884 0.0
H21 H 0.05502 0.29839 0.18681 0.0
H22 H 0.97235 0.27738 0.22581 0.0
H23 H 0.08238 0.28407 0.22271 0.0
H24 H 0.05095 0.1999 0.25038 0.0
O25 O 0.05783 0.24418 0.17756 0.0
O26 O 0.04047 0.20113 0.19421 0.0
O27 O 0.99507 0.22705 0.23107 0.0
C28 C 0.0588 0.21465 0.17786 0.0
H29 H 0.94168 0.2092 0.14177 0.0
H30 H 0.11859 0.26673 0.26074 0.0
H31 H 0.9632 0.33108 0.23466 0.0
H32 H 0.04645 0.35254 0.19364 0.0
Co33 Co 0.7741 0.02289 0.45344 0.0
C34 C 0.75967 0.99675 0.40246 0.0
C35 C 0.79099 0.96806 0.42319 0.0
C36 C 0.78744 0.95705 0.39789 0.0
N37 N 0.77363 0.99305 0.42579 0.0
N38 N 0.76791 0.97538 0.3848 0.0
H39 H 0.74582 0.01636 0.39792 0.0
H40 H 0.80656 0.95958 0.43797 0.0
C41 C 0.77967 0.98822 0.50418 0.0
O42 O 0.7593 1.00639 0.51472 0.0
N43 N 0.77489 0.05354 0.48081 0.0
C44 C 0.7554 0.07689 0.48445 0.0
C45 C 0.76679 0.0957 0.50359 0.0
C46 C 0.79818 0.05891 0.49756 0.0
N47 N 0.79368 0.08444 0.51173 0.0
C48 C 0.71045 0.03659 0.44861 0.0
C49 C 0.68816 0.98503 0.47284 0.0
C50 C 0.66767 0.00798 0.46559 0.0
C51 C 0.67915 0.03359 0.4526 0.0
C52 C 0.71945 0.98912 0.46861 0.0
N53 N 0.73046 0.01571 0.45838 0.0
H54 H 0.71856 0.05614 0.43789 0.0
H55 H 0.73458 0.97068 0.47344 0.0
H56 H 0.73498 0.08127 0.47343 0.0
H57 H 0.81851 0.04504 0.49859 0.0
O58 O 0.77266 0.05509 0.42726 0.0
O59 O 0.81488 0.03474 0.44312 0.0
O60 O 0.78647 0.99066 0.47976 0.0
C61 C 0.80228 0.0542 0.42725 0.0
H62 H 0.79962 0.93802 0.38948 0.0
H63 H 0.75628 0.11639 0.51068 0.0
H64 H 0.68019 0.96433 0.48209 0.0
H65 H 0.66404 0.05119 0.44544 0.0
Co66 Co 0.99051 0.77091 0.70271 0.0
C67 C 0.01463 0.75447 0.65136 0.0
C68 C 0.04528 0.7849 0.67107 0.0
C69 C 0.05563 0.78018 0.6457 0.0
N70 N 0.01949 0.76882 0.67436 0.0
N71 N 0.03609 0.76122 0.63325 0.0
H72 H 0.99433 0.74131 0.64741 0.0
H73 H 0.0549 0.8003 0.68546 0.0
C74 C 0.02695 0.77658 0.75249 0.0
O75 O 0.0088 0.75643 0.76339 0.0
N76 N 0.96081 0.77342 0.73084 0.0
C77 C 0.93719 0.75471 0.73608 0.0
C78 C 0.91966 0.76738 0.75557 0.0
C79 C 0.95692 0.79747 0.74698 0.0
N80 N 0.93205 0.79427 0.76233 0.0
C81 C 0.9749 0.70761 0.70011 0.0
C82 C 0.02784 0.68505 0.72198 0.0
C83 C 1.0041 0.6648 0.71608 0.0
C84 C 0.9777 0.67642 0.70433 0.0
C85 C 0.02393 0.71622 0.71757 0.0
N86 N 0.99682 0.72742 0.70849 0.0
H87 H 0.9548 0.71581 0.69019 0.0
H88 H 0.04296 0.73114 0.72126 0.0
H89 H 0.9318 0.7339 0.72604 0.0
H90 H 0.97138 0.8174 0.74675 0.0
O91 O 0.95731 0.76938 0.67737 0.0
O92 O 0.9793 0.81147 0.69167 0.0
O93 O 0.02394 0.78328 0.72809 0.0
C94 C 0.95894 0.79887 0.67659 0.0
H95 H 0.07518 0.79112 0.63683 0.0
H96 H 0.8991 0.75772 0.76386 0.0
H97 H 0.04907 0.677 0.73028 0.0
H98 H 0.95939 0.66148 0.69821 0.0
Co99 Co 0.23948 0.98711 0.95525 0.0
C100 C 0.24484 0.01726 0.90366 0.0
C101 C 0.21423 0.04118 0.92895 0.0
C102 C 0.21189 0.05319 0.90398 0.0
N103 N 0.2354 0.01891 0.92893 0.0
N104 N 0.23113 0.03794 0.88812 0.0
H105 H 0.25815 0.99876 0.89582 0.0
H106 H 0.1992 0.0464 0.94519 0.0
C107 C 0.2347 0.0433 0.98879 0.0
O108 O 0.25557 0.05631 0.97403 0.0
N109 N 0.24252 0.95528 0.98092 0.0
C110 C 0.26305 0.93259 0.98141 0.0
C111 C 0.25712 0.91461 0.00298 0.0
C112 C 0.22433 0.95088 0.00188 0.0
N113 N 0.23279 0.92619 0.01581 0.0
C114 C 0.30279 0.99298 0.9407 0.0
C115 C 0.32458 1.00408 0.99087 0.0
C116 C 0.34558 1.00164 0.9701 0.0
C117 C 0.33413 0.99626 0.94469 0.0
C118 C 0.29335 1.00102 0.98594 0.0
N119 N 0.28263 0.99612 0.96098 0.0
H120 H 0.29509 0.98652 0.92143 0.0
H121 H 0.27789 1.0013 0.00249 0.0
H122 H 0.28109 0.92948 0.96715 0.0
H123 H 0.20499 0.96514 0.0065 0.0
O124 O 0.24282 0.95685 0.92752 0.0
O125 O 0.19954 0.97262 0.94527 0.0
O126 O 0.22632 0.01604 0.98402 0.0
C127 C 0.21319 0.95531 0.92816 0.0
H128 H 0.1956 0.07011 0.89762 0.0
H129 H 0.26995 0.89477 0.0089 0.0
H130 H 0.33216 0.00714 0.011 0.0
H131 H 0.34922 0.99404 0.92794 0.0
Co132 Co 0.0231 0.76989 0.29227 0.0
C133 C 0.99483 0.75661 0.3426 0.0
C134 C 0.96939 0.79095 0.32231 0.0
C135 C 0.95755 0.78759 0.34737 0.0
N136 N 0.99283 0.77154 0.31959 0.0
N137 N 0.97382 0.76608 0.36016 0.0
H138 H 0.01308 0.74095 0.34706 0.0
H139 H 0.96258 0.8076 0.3078 0.0
C140 C 0.98907 0.77817 0.24115 0.0
O141 O 1.00609 0.75701 0.23035 0.0
N142 N 0.05423 0.76828 0.26529 0.0
C143 C 0.07609 0.74707 0.26217 0.0
C144 C 0.09504 0.75581 0.24209 0.0
C145 C 0.06086 0.79014 0.24755 0.0
N146 N 0.08541 0.78281 0.2328 0.0
C147 C 0.03183 0.70556 0.29802 0.0
C148 C 0.98073 0.68696 0.27068 0.0
C149 C 1.00145 0.665 0.27945 0.0
C150 C 0.02674 0.67457 0.29406 0.0
C151 C 0.98643 0.71774 0.27556 0.0
N152 N 0.01299 0.72691 0.28725 0.0
H153 H 0.05142 0.7123 0.30945 0.0
H154 H 0.96919 0.73391 0.27006 0.0
H155 H 0.07926 0.72715 0.27411 0.0
H156 H 0.04788 0.81089 0.2455 0.0
O157 O 0.05473 0.76629 0.31891 0.0
O158 O 0.03772 0.80965 0.30266 0.0
O159 O 0.99195 0.78446 0.26565 0.0
C160 C 0.0559 0.79582 0.31892 0.0
H161 H 0.93943 0.80106 0.35585 0.0
H162 H 0.11506 0.74365 0.2355 0.0
H163 H 0.96013 0.68036 0.2604 0.0
H164 H 0.04295 0.65831 0.30178 0.0
Co165 Co 0.24095 0.02265 0.54068 0.0
C166 C 0.24699 0.99656 0.59343 0.0
C167 C 0.21224 0.97392 0.57144 0.0
C168 C 0.2093 0.96592 0.59758 0.0
N169 N 0.2361 0.99309 0.56875 0.0
N170 N 0.23088 0.98075 0.61136 0.0
H171 H 0.26363 0.01341 0.5989 0.0
H172 H 0.19568 0.96912 0.55623 0.0
C173 C 0.23086 0.96421 0.51106 0.0
O174 O 0.25022 0.95061 0.52689 0.0
N175 N 0.24509 0.05243 0.51336 0.0
C176 C 0.26704 0.07367 0.51143 0.0
C177 C 0.26158 0.09081 0.48929 0.0
C178 C 0.22652 0.05683 0.49264 0.0
N179 N 0.23611 0.08017 0.47753 0.0
C180 C 0.30461 0.01813 0.55353 0.0
C181 C 0.32387 0.99724 0.50495 0.0
C182 C 0.34575 1.004 0.52419 0.0
C183 C 0.33572 0.01439 0.54879 0.0
C184 C 0.29294 1.00159 0.51043 0.0
N185 N 0.28344 0.01121 0.53473 0.0
H186 H 0.2979 0.02845 0.5718 0.0
H187 H 0.27688 0.9988 0.49452 0.0
H188 H 0.28566 0.07648 0.52518 0.0
H189 H 0.20611 0.04365 0.48907 0.0
O190 O 0.24651 0.05448 0.56679 0.0
O191 O 0.20204 0.03982 0.55062 0.0
O192 O 0.22535 0.99254 0.51377 0.0
C193 C 0.21699 0.05728 0.5668 0.0
H194 H 0.19052 0.95338 0.60613 0.0
H195 H 0.27544 0.10949 0.48231 0.0
H196 H 0.33067 0.99021 0.48536 0.0
H197 H 0.35185 0.02041 0.56409 0.0
Co198 Co 0.99433 0.23869 0.79286 0.0
C199 C 0.02124 0.24998 0.84493 0.0
C200 C 0.04673 0.21647 0.82398 0.0
C201 C 0.05744 0.21782 0.8495 0.0
N202 N 0.02435 0.23717 0.82094 0.0
N203 N 0.04115 0.23887 0.8627 0.0
H204 H 1.00229 0.26419 0.85032 0.0
H205 H 0.05315 0.19968 0.80946 0.0
C206 C 0.05314 0.23082 0.76259 0.0
O207 O 0.0661 0.25173 0.77732 0.0
N208 N 0.96415 0.23974 0.76556 0.0
C209 C 0.94175 0.26036 0.7629 0.0
C210 C 0.92534 0.25345 0.74061 0.0
C211 C 0.96104 0.2204 0.74522 0.0
N212 N 0.93755 0.22836 0.72954 0.0
C213 C 0.99531 0.30276 0.80381 0.0
C214 C 0.01564 0.32143 0.7549 0.0
C215 C 0.00824 0.3435 0.77376 0.0
C216 C 0.99802 0.33375 0.7985 0.0
C217 C 0.01237 0.29057 0.76099 0.0
N218 N 1.00321 0.28142 0.78552 0.0
H219 H 0.98519 0.2962 0.82221 0.0
H220 H 0.01585 0.2742 0.74545 0.0
H221 H 0.93771 0.27912 0.77622 0.0
H222 H 0.97588 0.20118 0.74183 0.0
O223 O 0.9622 0.24347 0.81885 0.0
O224 O 0.97946 0.1994 0.80414 0.0
O225 O 0.0252 0.22377 0.76623 0.0
C226 C 0.96093 0.21394 0.81967 0.0
H227 H 0.07439 0.20295 0.85802 0.0
H228 H 0.90568 0.26568 0.73336 0.0
H229 H 0.02257 0.32795 0.73521 0.0
H230 H 0.99154 0.34997 0.81354 0.0
Co231 Co 0.77499 0.99136 0.04209 0.0
C232 C 0.7618 0.01788 0.09397 0.0
C233 C 0.7927 0.04607 0.07256 0.0
C234 C 0.79028 0.05716 0.09792 0.0
N235 N 0.77423 0.02172 0.0699 0.0
N236 N 0.7708 0.03924 0.11134 0.0
H237 H 0.74951 0.99778 0.09977 0.0
H238 H 0.80882 0.05383 0.05794 0.0
C239 C 0.78026 0.04956 0.01043 0.0
O240 O 0.75788 0.06188 0.02391 0.0
N241 N 0.77638 0.96094 0.01505 0.0
C242 C 0.75708 0.93746 0.01179 0.0
C243 C 0.76576 0.9216 0.98965 0.0
C244 C 0.79667 0.95899 0.99529 0.0
N245 N 0.79062 0.93523 0.97935 0.0
C246 C 0.71038 0.99148 0.05246 0.0
C247 C 0.69209 0.00777 0.00234 0.0
C248 C 0.66982 1.00282 0.02167 0.0
C249 C 0.67935 0.99446 0.04698 0.0
C250 C 0.72298 1.00495 0.00879 0.0
N251 N 0.73193 0.99788 0.03388 0.0
H252 H 0.71681 0.9827 0.07139 0.0
H253 H 0.73964 0.00757 0.99331 0.0
H254 H 0.73796 0.93243 0.02451 0.0
H255 H 0.81512 0.97495 0.99243 0.0
O256 O 0.77152 0.95928 0.06828 0.0
O257 O 0.81487 0.97913 0.05405 0.0
O258 O 0.78888 0.02246 0.01539 0.0
C259 C 0.80118 0.95986 0.06944 0.0
H260 H 0.80337 0.07569 0.10618 0.0
H261 H 0.75477 0.90147 0.98189 0.0
H262 H 0.68573 0.01363 0.98236 0.0
H263 H 0.66289 0.98913 0.0622 0.0
C264 C 0.99179 0.62335 0.24685 0.0
C265 C 0.99723 0.63239 0.27299 0.0
C266 C 0.99025 0.59252 0.24027 0.0
C267 C 0.9752 0.51668 0.26664 0.0
H268 H 0.02764 0.4883 0.21034 0.0
C269 C 0.99449 0.38863 0.24736 0.0
C270 C 1.00023 0.3789 0.22149 0.0
C271 C 0.99235 0.41961 0.25324 0.0
C272 C 0.01235 0.49577 0.22576 0.0
H273 H 1.0043 0.61637 0.31288 0.0
H274 H 1.00088 0.56237 0.30146 0.0
H275 H 0.02619 0.54217 0.22112 0.0
H276 H 1.00712 0.39379 0.18129 0.0
H277 H 1.00208 0.44776 0.19117 0.0
H278 H 0.96068 0.47059 0.27099 0.0
C279 C 0.99809 0.57918 0.28606 0.0
C280 C 0.01169 0.5267 0.23202 0.0
C281 C 1.0002 0.61001 0.29256 0.0
C282 C 1.00298 0.40071 0.20146 0.0
C283 C 1.00031 0.43168 0.20723 0.0
C284 C 0.97543 0.48578 0.26011 0.0
C285 C 0.99355 0.57013 0.25978 0.0
C286 C 0.99329 0.53743 0.25263 0.0
C287 C 0.99539 0.44164 0.23328 0.0
C288 C 0.99421 0.4748 0.23969 0.0
H289 H 0.98966 0.64013 0.23135 0.0
H290 H 0.98657 0.58615 0.21989 0.0
H291 H 0.9606 0.52442 0.28249 0.0
H292 H 0.99264 0.37227 0.26323 0.0
H293 H 0.98913 0.42621 0.27359 0.0
C294 C 0.61894 0.03099 0.48164 0.0
C295 C 0.63459 1.00567 0.47159 0.0
C296 C 0.58776 0.02946 0.4869 0.0
C297 C 0.52379 0.97534 0.49745 0.0
H298 H 0.47492 0.0469 0.48351 0.0
C299 C 0.39129 0.97758 0.50455 0.0
C300 C 0.37883 1.00258 0.51802 0.0
C301 C 0.42242 0.97673 0.49846 0.0
C302 C 0.48829 0.02679 0.48766 0.0
H303 H 0.62973 0.95879 0.45929 0.0
H304 H 0.57499 0.95619 0.46802 0.0
H305 H 0.52911 0.04748 0.47337 0.0
H306 H 0.38917 0.04649 0.53524 0.0
H307 H 0.44332 0.04504 0.52456 0.0
H308 H 0.48255 0.95463 0.51141 0.0
C309 C 0.58697 0.97713 0.47227 0.0
C310 C 0.51943 0.02713 0.48195 0.0
C311 C 0.61834 0.97861 0.4672 0.0
C312 C 0.39813 0.02673 0.52514 0.0
C313 C 0.42909 0.02605 0.51879 0.0
C314 C 0.4925 0.97493 0.50294 0.0
C315 C 0.57122 1.00263 0.48204 0.0
C316 C 0.53772 1.00156 0.48708 0.0
C317 C 0.4416 1.00108 0.50535 0.0
C318 C 0.47451 1.00079 0.49841 0.0
H319 H 0.63093 0.052 0.48571 0.0
H320 H 0.57668 0.04933 0.49504 0.0
H321 H 0.53715 0.95534 0.50194 0.0
H322 H 0.37699 0.9586 0.49889 0.0
H323 H 0.43139 0.95727 0.48795 0.0
C324 C 0.98168 0.61635 0.73334 0.0
C325 C 1.00654 0.63182 0.72215 0.0
C326 C 0.98358 0.58538 0.73911 0.0
C327 C 0.02431 0.51533 0.72153 0.0
H328 H 0.99202 0.48598 0.78792 0.0
C329 C 0.03425 0.38902 0.75375 0.0
C330 C 0.00933 0.37646 0.76732 0.0
C331 C 0.03532 0.42021 0.74827 0.0
C332 C 1.00081 0.49367 0.76913 0.0
H333 H 0.05288 0.62676 0.70807 0.0
H334 H 0.0562 0.57245 0.71815 0.0
H335 H 0.99135 0.54016 0.77839 0.0
H336 H 0.96546 0.38659 0.78484 0.0
H337 H 0.96702 0.44061 0.77498 0.0
H338 H 0.03322 0.46876 0.71201 0.0
C339 C 0.03522 0.58441 0.72241 0.0
C340 C 1.0005 0.52479 0.76372 0.0
C341 C 0.03341 0.61554 0.71685 0.0
C342 C 0.98529 0.39565 0.77485 0.0
C343 C 0.98624 0.4267 0.76923 0.0
C344 C 0.02442 0.4841 0.72685 0.0
C345 C 0.01033 0.56901 0.73369 0.0
C346 C 0.01201 0.53599 0.73978 0.0
C347 C 0.01137 0.4395 0.75608 0.0
C348 C 0.01241 0.47282 0.75064 0.0
H349 H 0.96076 0.62828 0.7379 0.0
H350 H 0.9639 0.57415 0.74755 0.0
H351 H 0.03309 0.52322 0.70279 0.0
H352 H 0.0532 0.37484 0.74783 0.0
H353 H 0.05519 0.42927 0.73836 0.0
C354 C 0.39118 0.02258 0.99457 0.0
C355 C 0.37914 1.00324 0.97504 0.0
C356 C 0.42257 0.02358 -0.00056 0.0
C357 C 0.49699 0.00823 0.96892 0.0
H358 H 0.52653 1.00328 0.04076 0.0
C359 C 0.62487 0.99132 0.99258 0.0
C360 C 0.63678 1.00498 0.0154 0.0
C361 C 0.59354 0.99205 0.98743 0.0
C362 C 0.51878 1.00522 0.02058 0.0
H363 H 0.39121 0.96934 0.9457 0.0
H364 H 0.44582 0.97187 0.95371 0.0
H365 H 0.47187 1.00337 0.0323 0.0
H366 H 0.6253 0.03093 0.05027 0.0
H367 H 0.57087 0.03308 0.04097 0.0
H368 H 0.5437 0.01066 0.9571 0.0
C369 C 0.43087 0.98638 0.96511 0.0
C370 C 0.48738 1.00515 0.01576 0.0
C371 C 0.39949 0.98508 0.96045 0.0
C372 C 0.61674 0.01989 0.03268 0.0
C373 C 0.58548 0.02096 0.02738 0.0
C374 C 0.52839 0.00868 0.97374 0.0
C375 C 0.44277 1.00556 0.98471 0.0
C376 C 0.47614 1.00647 0.98987 0.0
C377 C 0.57334 0.00679 0.00481 0.0
C378 C 0.53978 0.007 -0.00036 0.0
H379 H 0.3764 0.03724 0.00596 0.0
H380 H 0.43111 0.03881 0.01451 0.0
H381 H 0.489 0.00965 0.94876 0.0
H382 H 0.63968 0.97929 0.97907 0.0
H383 H 0.58513 0.98041 0.97009 0.0
C384 C 0.2039 0.07296 0.43803 0.0
C385 C 0.22178 0.09188 0.45416 0.0
C386 C 0.18997 0.08451 0.41539 0.0
C387 C 0.19443 0.14877 0.36878 0.0
H388 H 0.10971 0.13008 0.35415 0.0
C389 C 0.12125 0.22376 0.30266 0.0
C390 C 0.10282 0.20968 0.28357 0.0
C391 C 0.13599 0.20658 0.32181 0.0
C392 C 0.1335 0.13513 0.3578 0.0
H393 H 0.2385 0.13784 0.45949 0.0
H394 H 0.21423 0.15797 0.42021 0.0
H395 H 0.13561 0.10486 0.39078 0.0
H396 H 0.08507 0.16634 0.27003 0.0
H397 H 0.11057 0.1363 0.304 0.0
H398 H 0.19212 0.17962 0.33633 0.0
C399 C 0.21148 0.13407 0.42468 0.0
C400 C 0.14833 0.1207 0.37871 0.0
C401 C 0.22539 0.12254 0.44723 0.0
C402 C 0.09888 0.17796 0.28453 0.0
C403 C 0.11354 0.16073 0.3039 0.0
C404 C 0.17961 0.16323 0.34802 0.0
C405 C 0.1937 0.11519 0.40847 0.0
C406 C 0.17876 0.12792 0.38476 0.0
C407 C 0.13253 0.1749 0.32249 0.0
C408 C 0.14883 0.15707 0.34271 0.0
H409 H 0.20101 0.04915 0.44269 0.0
H410 H 0.17661 0.06937 0.40315 0.0
H411 H 0.21809 0.15426 0.37257 0.0
H412 H 0.1242 0.24815 0.30296 0.0
H413 H 0.14996 0.21816 0.33629 0.0
C414 C 0.81455 0.12961 0.53371 0.0
C415 C 0.81359 0.09792 0.5309 0.0
C416 C 0.83141 0.14288 0.55388 0.0
C417 C 0.89165 0.13028 0.60313 0.0
H418 H 0.84782 0.19309 0.64104 0.0
C419 C 0.93147 0.1818 0.70279 0.0
C420 C 0.92734 0.21325 0.70602 0.0
C421 C 0.92006 0.167 0.6805 0.0
C422 C 0.86054 0.17588 0.63047 0.0
H423 H 0.83059 0.05522 0.54612 0.0
H424 H 0.86011 0.07853 0.58186 0.0
H425 H 0.82397 0.16837 0.60355 0.0
H426 H 0.90957 0.25407 0.68779 0.0
H427 H 0.88973 0.22835 0.64896 0.0
H428 H 0.92824 0.13788 0.63038 0.0
C429 C 0.84791 0.09305 0.56826 0.0
C430 C 0.84688 0.1617 0.609 0.0
C431 C 0.83105 0.07973 0.54789 0.0
C432 C 0.91247 0.22973 0.68615 0.0
C433 C 0.90116 0.215 0.66391 0.0
C434 C 0.90541 0.14454 0.62472 0.0
C435 C 0.84758 0.12473 0.57181 0.0
C436 C 0.86236 0.13899 0.59493 0.0
C437 C 0.90435 0.18342 0.66106 0.0
C438 C 0.89004 0.16769 0.63843 0.0
H439 H 0.80193 0.14418 0.52046 0.0
H440 H 0.83137 0.1674 0.55573 0.0
H441 H 0.90412 0.11289 0.59256 0.0
H442 H 0.94265 0.16847 0.71786 0.0
H443 H 0.92264 0.1426 0.67893 0.0
C444 C 0.83807 0.93344 0.95322 0.0
C445 C 0.80691 0.92668 0.95591 0.0
C446 C 0.8539 0.92486 0.93055 0.0
C447 C 0.84264 0.90148 0.86137 0.0
H448 H 0.91919 0.85879 0.87041 0.0
C449 C 0.88869 0.81719 0.78571 0.0
C450 C 0.9202 0.81551 0.78121 0.0
C451 C 0.8771 0.83639 0.80506 0.0
C452 C 0.89818 0.87123 0.86748 0.0
H453 H 0.76779 0.90632 0.93668 0.0
H454 H 0.79549 0.89089 0.89734 0.0
H455 H 0.8945 0.88197 0.90848 0.0
H456 H 0.96427 0.83313 0.79291 0.0
H457 H 0.94391 0.86698 0.82696 0.0
H458 H 0.84584 0.88992 0.82051 0.0
C459 C 0.80762 0.90306 0.91265 0.0
C460 C 0.88402 0.88445 0.88928 0.0
C461 C 0.79185 0.91151 0.93534 0.0
C462 C 0.93987 0.83411 0.79595 0.0
C463 C 0.92826 0.85326 0.8155 0.0
C464 C 0.8568 0.88829 0.83959 0.0
C465 C 0.83884 0.90952 0.91007 0.0
C466 C 0.8557 0.89897 0.88654 0.0
C467 C 0.89676 0.85432 0.82041 0.0
C468 C 0.88427 0.8723 0.84256 0.0
H469 H 0.85036 0.94488 0.96882 0.0
H470 H 0.87793 0.93023 0.92903 0.0
H471 H 0.82111 0.91306 0.85861 0.0
H472 H 0.87297 0.80347 0.77438 0.0
H473 H 0.85276 0.8364 0.80858 0.0
C474 C 0.22057 0.88338 0.04531 0.0
C475 C 0.21855 0.91442 0.03922 0.0
C476 C 0.20662 0.87185 0.06786 0.0
C477 C 0.1456 0.88718 0.11553 0.0
H478 H 0.18748 0.82542 0.15618 0.0
C479 C 0.09631 0.83181 0.21067 0.0
C480 C 0.09916 0.80002 0.21182 0.0
C481 C 0.11097 0.84832 0.19081 0.0
C482 C 0.17547 0.84258 0.14496 0.0
H483 H 0.20066 0.95781 0.05232 0.0
H484 H 0.17618 0.93758 0.09177 0.0
H485 H 0.21354 0.84982 0.11949 0.0
H486 H 0.11833 0.7606 0.19223 0.0
H487 H 0.14396 0.78927 0.15795 0.0
H488 H 0.10736 0.87954 0.14099 0.0
C489 C 0.18829 0.92215 0.07886 0.0
C490 C 0.19036 0.8565 0.12395 0.0
C491 C 0.20227 0.93371 0.05625 0.0
C492 C 0.11631 0.78509 0.19236 0.0
C493 C 0.13099 0.80151 0.17268 0.0
C494 C 0.13069 0.87324 0.13667 0.0
C495 C 0.19037 0.89109 0.0849 0.0
C496 C 0.17538 0.87847 0.10865 0.0
C497 C 0.1288 0.83329 0.17186 0.0
C498 C 0.14529 0.85034 0.15118 0.0
H499 H 0.23245 0.86783 0.03239 0.0
H500 H 0.20813 0.84769 0.0717 0.0
H501 H 0.13342 0.90391 0.10399 0.0
H502 H 0.08343 0.84401 0.22545 0.0
H503 H 0.10898 0.87284 0.19062 0.0
C504 C 0.99391 0.27302 0.09767 0.0
C505 C 0.97774 0.2481 0.10807 0.0
C506 C 0.99995 0.27493 0.07075 0.0
C507 C 0.97717 0.25297 0.00545 0.0
H508 H 0.06344 0.24893 0.98868 0.0
C509 C 0.04965 0.22151 0.90866 0.0
C510 C 0.03959 0.24382 0.8908 0.0
C511 C 0.04372 0.22448 0.93562 0.0
C512 C 0.03934 0.25018 0.99317 0.0
H513 H 0.95291 0.20709 0.09759 0.0
H514 H 0.96243 0.21135 0.05037 0.0
H515 H 0.047 0.25068 0.0349 0.0
H516 H 0.01787 0.28803 0.88783 0.0
H517 H 1.00642 0.29233 0.93464 0.0
H518 H 0.96954 0.25297 0.96371 0.0
C519 C 0.97098 0.22888 0.06342 0.0
C520 C 0.02997 0.2513 0.01945 0.0
C521 C 0.96543 0.22659 0.09048 0.0
C522 C 0.02511 0.26993 0.9008 0.0
C523 C 0.01866 0.27256 0.9276 0.0
C524 C 0.98657 0.25256 0.97916 0.0
C525 C 0.98919 0.25247 0.05356 0.0
C526 C 0.99883 0.2525 0.02575 0.0
C527 C 0.02733 0.24955 0.94509 0.0
C528 C 0.0177 0.25094 0.97287 0.0
H529 H 1.00292 0.29057 0.11041 0.0
H530 H 0.01364 0.29359 0.06341 0.0
H531 H 0.95306 0.25385 0.00996 0.0
H532 H 0.06079 0.20108 0.90182 0.0
H533 H 0.05064 0.2065 0.9489 0.0
C534 C 0.73986 0.02253 0.14924 0.0
C535 C 0.76545 0.03811 0.13937 0.0
C536 C 0.73708 0.01653 0.17609 0.0
C537 C 0.75921 0.03885 0.24184 0.0
H538 H 0.75526 0.95291 0.25889 0.0
C539 C 0.73811 0.99447 0.34694 0.0
C540 C 0.76233 0.97683 0.35678 0.0
C541 C 0.7359 1.00085 0.32009 0.0
C542 C 0.75623 0.97693 0.25433 0.0
H543 H 0.807 0.06165 0.15049 0.0
H544 H 0.8014 0.05208 0.19769 0.0
H545 H 0.75591 0.9691 0.21264 0.0
H546 H 0.80173 0.94998 0.34543 0.0
H547 H 0.79694 0.96016 0.29838 0.0
H548 H 0.75917 0.04669 0.28355 0.0
C549 C 0.7839 0.04408 0.18432 0.0
C550 C 0.75648 0.98618 0.22801 0.0
C551 C 0.78699 0.04966 0.15732 0.0
C552 C 0.78278 0.96361 0.33874 0.0
C553 C 0.78017 0.96954 0.31177 0.0
C554 C 0.75829 0.02963 0.26817 0.0
C555 C 0.75944 0.02661 0.19374 0.0
C556 C 0.75819 0.01719 0.2216 0.0
C557 C 0.75734 0.98904 0.30242 0.0
C558 C 0.75701 0.9986 0.27457 0.0
H559 H 0.72239 0.01408 0.13609 0.0
H560 H 0.71776 1.00345 0.18303 0.0
H561 H 0.76052 0.06286 0.23728 0.0
H562 H 0.72135 1.00427 0.36004 0.0
H563 H 0.71778 0.01551 0.31318 0.0
C564 C 0.01505 0.73112 0.59628 0.0
C565 C 0.0341 0.75467 0.6054 0.0
C566 C 0.00859 0.72808 0.5695 0.0
C567 C 0.03382 0.74516 0.50309 0.0
H568 H 0.94793 0.75236 0.48577 0.0
C569 C 0.96262 0.78013 0.4065 0.0
C570 C 0.974 0.75921 0.38798 0.0
C571 C 0.96766 0.77578 0.43345 0.0
C572 C 0.97192 0.75015 0.4904 0.0
H573 H 0.06321 0.7919 0.59285 0.0
H574 H 0.05277 0.78567 0.54599 0.0
H575 H 0.96394 0.75089 0.53207 0.0
H576 H 0.99698 0.71579 0.38368 0.0
H577 H 1.00673 0.709 0.43055 0.0
H578 H 0.04181 0.74434 0.46143 0.0
C579 C 0.04243 0.77006 0.55986 0.0
C580 C 0.98105 0.74916 0.51676 0.0
C581 C 0.04848 0.77351 0.58675 0.0
C582 C 0.98871 0.73287 0.39723 0.0
C583 C 0.9942 0.72884 0.42407 0.0
C584 C 0.02464 0.74549 0.47674 0.0
C585 C 0.02166 0.74797 0.55116 0.0
C586 C 0.01209 0.747 0.52328 0.0
C587 C 0.98441 0.75064 0.44231 0.0
C588 C 0.99365 0.74833 0.47021 0.0
H589 H 1.00429 0.71554 0.60987 0.0
H590 H 0.9929 0.71053 0.56313 0.0
H591 H 0.05786 0.7435 0.50771 0.0
H592 H 0.95127 0.80069 0.40024 0.0
H593 H 0.9599 0.79291 0.44724 0.0
C594 C 0.22385 0.96326 0.65721 0.0
C595 C 0.23056 0.98654 0.63925 0.0
C596 C 0.22306 0.96934 0.68428 0.0
C597 C 0.21418 0.0324 0.73169 0.0
H598 H 0.25434 0.97791 0.78056 0.0
C599 C 0.20523 0.04367 0.84513 0.0
C600 C 0.23174 0.03768 0.85977 0.0
C601 C 0.20479 0.03888 0.81791 0.0
C602 C 0.24321 0.99345 0.76712 0.0
H603 H 0.24038 0.0347 0.63542 0.0
H604 H 0.23963 0.04508 0.68234 0.0
H605 H 0.25342 0.96557 0.73369 0.0
H606 H 0.27901 0.02395 0.85722 0.0
H607 H 0.27834 0.01577 0.80967 0.0
H608 H 0.20446 0.06056 0.76505 0.0
C609 C 0.23502 0.02215 0.67568 0.0
C610 C 0.24234 0.98617 0.74035 0.0
C611 C 0.23595 0.01607 0.64878 0.0
C612 C 0.25817 0.02829 0.84646 0.0
C613 C 0.25773 0.02348 0.81931 0.0
C614 C 0.21497 0.03964 0.75847 0.0
C615 C 0.22858 0.9989 0.69374 0.0
C616 C 0.22804 1.0057 0.72233 0.0
C617 C 0.23084 0.02803 0.80484 0.0
C618 C 0.22972 0.02036 0.77642 0.0
H619 H 0.21943 0.94042 0.65027 0.0
H620 H 0.21777 0.95103 0.69778 0.0
H621 H 0.20271 0.04774 0.71828 0.0
H622 H 0.1844 0.05056 0.85483 0.0
H623 H 0.18368 0.04242 0.8073 0.0
C624 C 0.07762 0.16533 0.15936 0.0
C625 C 0.07884 0.19723 0.15985 0.0
C626 C 0.09559 0.14881 0.14168 0.0
C627 C 0.16435 0.15373 0.09974 0.0
H628 H 0.12701 0.08639 0.06248 0.0
C629 C 0.22363 0.09227 0.01247 0.0
C630 C 0.21924 0.06076 0.00996 0.0
C631 C 0.20756 0.10892 0.03145 0.0
C632 C 0.13799 0.10482 0.07296 0.0
H633 H 0.10017 0.2368 0.14234 0.0
H634 H 0.1316 0.20793 0.11145 0.0
H635 H 0.0972 0.1153 0.09421 0.0
H636 H 0.19521 0.02191 0.0261 0.0
H637 H 0.16776 0.05073 0.05942 0.0
H638 H 0.20521 0.14316 0.07857 0.0
C639 C 0.11687 0.19568 0.12488 0.0
C640 C 0.12083 0.12146 0.09115 0.0
C641 C 0.09876 0.21223 0.1425 0.0
C642 C 0.19897 0.04619 0.0273 0.0
C643 C 0.18304 0.06279 0.04634 0.0
C644 C 0.18159 0.13698 0.08161 0.0
C645 C 0.11532 0.16377 0.12411 0.0
C646 C 0.13377 0.14611 0.10479 0.0
C647 C 0.18681 0.09445 0.04847 0.0
C648 C 0.16865 0.11228 0.06797 0.0
H649 H 0.06255 0.15306 0.1725 0.0
H650 H 0.09412 0.12425 0.14185 0.0
H651 H 0.17512 0.17236 0.11012 0.0
H652 H 0.23899 0.10425 -0.00062 0.0
H653 H 0.21085 0.13329 0.03229 0.0
C654 C 0.96471 0.22617 0.29831 0.0
C655 C 0.97029 0.21706 0.27219 0.0
C656 C 0.945 0.20946 0.31445 0.0
C657 C 0.91388 0.13261 0.32295 0.0
H658 H 0.85525 0.17181 0.36891 0.0
C659 C 0.85224 0.06884 0.40704 0.0
C660 C 0.82074 0.07371 0.4096 0.0
C661 C 0.86965 0.08667 0.38989 0.0
C662 C 0.8714 0.16053 0.35609 0.0
H663 H 0.95912 0.18337 0.24248 0.0
H664 H 0.92491 0.15418 0.2707 0.0
H665 H 0.88656 0.2026 0.33926 0.0
H666 H 0.78284 0.10131 0.39636 0.0
H667 H 0.81337 0.13272 0.3666 0.0
H668 H 0.89888 0.09057 0.33984 0.0
C669 C 0.93589 0.17421 0.27871 0.0
C670 C 0.88949 0.17817 0.33927 0.0
C671 C 0.95536 0.19106 0.26249 0.0
C672 C 0.80707 0.09701 0.39484 0.0
C673 C 0.82456 0.11508 0.37788 0.0
C674 C 0.89604 0.11501 0.33996 0.0
C675 C 0.93064 0.18308 0.30494 0.0
C676 C 0.91095 0.16441 0.32251 0.0
C677 C 0.85603 0.10998 0.3751 0.0
C678 C 0.87463 0.12876 0.35676 0.0
H679 H 0.97582 0.24607 0.30643 0.0
H680 H 0.94162 0.21676 0.33463 0.0
H681 H 0.93038 0.12132 0.31046 0.0
H682 H 0.86346 0.05105 0.41812 0.0
H683 H 0.89388 0.08238 0.3884 0.0
C684 C 0.78705 0.9609 0.5472 0.0
C685 C 0.79586 0.96572 0.52088 0.0
C686 C 0.80358 0.94116 0.56343 0.0
C687 C 0.88012 0.90875 0.57139 0.0
H688 H 0.84057 0.85241 0.61917 0.0
C689 C 0.94476 0.84839 0.65562 0.0
C690 C 0.93927 0.81717 0.65896 0.0
C691 C 0.92681 0.86562 0.63845 0.0
C692 C 0.85194 0.86792 0.60584 0.0
H693 H 0.82876 0.95307 0.49091 0.0
H694 H 0.85762 0.91883 0.51927 0.0
H695 H 0.80971 0.88341 0.58935 0.0
H696 H 0.91038 0.7796 0.64708 0.0
H697 H 0.87877 0.80982 0.61727 0.0
H698 H 0.9223 0.89343 0.58792 0.0
C699 C 0.83798 0.93042 0.52737 0.0
C700 C 0.83426 0.88584 0.58892 0.0
C701 C 0.8213 0.94992 0.51107 0.0
C702 C 0.91518 0.80362 0.64496 0.0
C703 C 0.89699 0.82094 0.62797 0.0
C704 C 0.89774 0.8911 0.58849 0.0
C705 C 0.82949 0.92601 0.55381 0.0
C706 C 0.84816 0.90647 0.57149 0.0
C707 C 0.90273 0.85211 0.62439 0.0
C708 C 0.88388 0.87051 0.60595 0.0
H709 H 0.7676 0.97269 0.55542 0.0
H710 H 0.79657 0.93844 0.58376 0.0
H711 H 0.89152 0.92461 0.55839 0.0
H712 H 0.96314 0.85952 0.6661 0.0
H713 H 0.93161 0.88963 0.63635 0.0
C714 C 0.05595 0.78327 0.7948 0.0
C715 C 0.04977 0.79284 0.76891 0.0
C716 C 0.07578 0.79986 0.81096 0.0
C717 C 0.10515 0.87704 0.82077 0.0
H718 H 0.1652 0.83826 0.86559 0.0
C719 C 0.164 0.9393 0.90729 0.0
C720 C 0.19571 0.93582 0.90971 0.0
C721 C 0.14744 0.92161 0.8894 0.0
C722 C 0.14865 0.84943 0.85309 0.0
H723 H 0.06009 0.82719 0.73959 0.0
H724 H 0.09444 0.85627 0.7679 0.0
H725 H 0.13472 0.80745 0.83522 0.0
H726 H 0.23487 0.91081 0.89539 0.0
H727 H 0.20579 0.87948 0.86438 0.0
H728 H 0.11876 0.91894 0.83882 0.0
C729 C 0.08389 0.83591 0.77568 0.0
C730 C 0.13105 0.83177 0.83584 0.0
C731 C 0.06435 0.81912 0.75941 0.0
C732 C 0.21046 0.91401 0.89401 0.0
C733 C 0.19381 0.896 0.87632 0.0
C734 C 0.12245 0.89463 0.83823 0.0
C735 C 0.08963 0.82663 0.80172 0.0
C736 C 0.10906 0.84537 0.81951 0.0
C737 C 0.16212 0.89974 0.8737 0.0
C738 C 0.14433 0.88103 0.85466 0.0
H739 H 0.04512 0.76315 0.80277 0.0
H740 H 0.07954 0.79223 0.83099 0.0
H741 H 0.08823 0.88819 0.80863 0.0
H742 H 0.15195 0.95595 0.91905 0.0
H743 H 0.12303 0.92483 0.88803 0.0
C744 C 0.0948 0.79747 0.35518 0.0
C745 C 0.07588 0.81286 0.33727 0.0
C746 C 0.11268 0.81365 0.37324 0.0
C747 C 0.11751 0.88817 0.40663 0.0
H748 H 0.20028 0.86361 0.42258 0.0
C749 C 0.19605 0.96169 0.47188 0.0
C750 C 0.21486 0.94673 0.49017 0.0
C751 C 0.18007 0.94528 0.45273 0.0
C752 C 0.17709 0.87059 0.41859 0.0
H753 H 0.06125 0.85735 0.32404 0.0
H754 H 0.09253 0.88553 0.35538 0.0
H755 H 0.17071 0.83512 0.39015 0.0
H756 H 0.23183 0.90269 0.50239 0.0
H757 H 0.20364 0.87401 0.46921 0.0
H758 H 0.12367 0.92343 0.43516 0.0
C759 C 0.09331 0.86095 0.35571 0.0
C760 C 0.16013 0.85425 0.39996 0.0
C761 C 0.07552 0.84478 0.33761 0.0
C762 C 0.21762 0.91496 0.48859 0.0
C763 C 0.20155 0.89851 0.46945 0.0
C764 C 0.1344 0.90443 0.42528 0.0
C765 C 0.11197 0.8456 0.37388 0.0
C766 C 0.13014 0.86289 0.3937 0.0
C767 C 0.18237 0.91344 0.45138 0.0
C768 C 0.16445 0.89593 0.43149 0.0
H769 H 0.09552 0.77288 0.35548 0.0
H770 H 0.12654 0.80109 0.38712 0.0
H771 H 0.0943 0.89514 0.40267 0.0
H772 H 0.19354 0.98616 0.47235 0.0
H773 H 0.166 0.95763 0.43887 0.0
C774 C 0.21753 0.09553 0.60355 0.0
C775 C 0.20104 0.07766 0.58555 0.0
C776 C 0.20235 0.11359 0.62212 0.0
C777 C 0.12657 0.14775 0.63697 0.0
H778 H 0.1585 0.15344 0.70804 0.0
C779 C 0.05601 0.19579 0.72363 0.0
C780 C 0.07081 0.21507 0.74168 0.0
C781 C 0.07253 0.18042 0.70419 0.0
C782 C 0.14947 0.15238 0.6882 0.0
H783 H 0.15565 0.06468 0.57299 0.0
H784 H 0.12923 0.09572 0.60545 0.0
H785 H 0.18602 0.12403 0.67496 0.0
H786 H 0.11472 0.23329 0.75332 0.0
H787 H 0.14359 0.20632 0.71939 0.0
H788 H 0.08973 0.17564 0.65039 0.0
C789 C 0.15389 0.09634 0.605 0.0
C790 C 0.16528 0.13554 0.66918 0.0
C791 C 0.16906 0.07838 0.58642 0.0
C792 C 0.10258 0.21865 0.73974 0.0
C793 C 0.11916 0.20305 0.72039 0.0
C794 C 0.11069 0.16442 0.65602 0.0
C795 C 0.1703 0.11415 0.62318 0.0
C796 C 0.15397 0.13286 0.64331 0.0
C797 C 0.10433 0.18373 0.70238 0.0
C798 C 0.12184 0.16682 0.68191 0.0
H799 H 0.24221 0.09542 0.60346 0.0
H800 H 0.21579 0.12726 0.63554 0.0
H801 H 0.11741 0.14674 0.61717 0.0
H802 H 0.03158 0.19247 0.72449 0.0
H803 H 0.06041 0.16547 0.69084 0.0
C804 C 0.92034 0.21382 0.85459 0.0
C805 C 0.94045 0.1977 0.83816 0.0
C806 C 0.90186 0.19844 0.87273 0.0
C807 C 0.89713 0.12637 0.9097 0.0
H808 H 0.8125 0.14839 0.92027 0.0
C809 C 0.8176 0.0526 0.97317 0.0
C810 C 0.79651 0.06717 0.98977 0.0
C811 C 0.83407 0.06903 0.95442 0.0
C812 C 0.83619 0.14218 0.91782 0.0
H813 H 0.95663 0.15276 0.82772 0.0
H814 H 0.92443 0.126 0.85926 0.0
H815 H 0.84323 0.17614 0.88812 0.0
H816 H 0.77591 0.11055 -0.00073 0.0
H817 H 0.80508 0.13942 0.96674 0.0
H818 H 0.8904 0.0927 0.93947 0.0
C819 C 0.92311 0.15054 0.85832 0.0
C820 C 0.8538 0.15807 0.89934 0.0
C821 C 0.94144 0.16588 0.8401 0.0
C822 C 0.79193 0.09859 0.98678 0.0
C823 C 0.80858 0.11512 0.96804 0.0
C824 C 0.87962 0.11061 0.92822 0.0
C825 C 0.90322 0.16662 0.87499 0.0
C826 C 0.88444 0.1502 0.89492 0.0
C827 C 0.83012 0.10059 0.95178 0.0
C828 C 0.84883 0.1181 0.93241 0.0
H829 H 0.91908 0.23836 0.85362 0.0
H830 H 0.88701 0.21155 0.88542 0.0
H831 H 0.92081 0.12009 0.9072 0.0
H832 H 0.82154 0.02838 0.97467 0.0
H833 H 0.8499 0.05688 0.94189 0.0
C834 C 0.96084 0.78642 0.19864 0.0
C835 C 0.96667 0.79508 0.22485 0.0
C836 C 0.94087 0.8033 0.18288 0.0
C837 C 0.90941 0.88018 0.17573 0.0
H838 H 0.85129 0.8417 0.12875 0.0
C839 C 0.85007 0.94499 0.09127 0.0
C840 C 0.81865 0.94026 0.08776 0.0
C841 C 0.86674 0.92701 0.10879 0.0
C842 C 0.86727 0.85278 0.14189 0.0
H843 H 0.95561 0.82813 0.25511 0.0
H844 H 0.92096 0.85761 0.22755 0.0
H845 H 0.88239 0.81043 0.15817 0.0
H846 H 0.78012 0.91276 0.09982 0.0
H847 H 0.80942 0.881 0.13029 0.0
H848 H 0.89454 0.92248 0.15933 0.0
C849 C 0.93195 0.8378 0.21918 0.0
C850 C 0.88525 0.83486 0.15857 0.0
C851 C 0.95169 0.82078 0.23501 0.0
C852 C 0.8043 0.91695 0.10207 0.0
C853 C 0.82109 0.89869 0.11943 0.0
C854 C 0.89169 0.89804 0.15887 0.0
C855 C 0.92646 0.8294 0.19286 0.0
C856 C 0.90661 0.84836 0.17564 0.0
C857 C 0.85249 0.90363 0.12308 0.0
C858 C 0.8705 0.88457 0.14165 0.0
H859 H 0.97196 0.76676 0.19015 0.0
H860 H 0.93735 0.79636 0.16262 0.0
H861 H 0.92581 0.89129 0.18845 0.0
H862 H 0.86183 0.96277 0.08058 0.0
H863 H 0.89094 0.93118 0.11091 0.0
loop_
_geom_bond_atom_site_label_1
_geom_bond_atom_site_label_2
_geom_bond_distance
_geom_bond_site_symmetry_2
_ccdc_geom_bond_type
Co0 N4 2.148 . S
Co0 N10 2.128 . S
Co0 N20 2.194 . S
Co0 O25 2.351 . S
Co0 O26 2.155 . S
Co0 O27 2.096 . S
C1 N4 1.301 . S
C1 N5 1.328 . S
C1 H6 0.930 . S
C2 C3 1.333 1_455 S
C2 N4 1.317 . S
C2 H7 0.930 1_455 S
C3 C2 1.333 1_655 S
C3 N5 1.350 1_655 S
C3 H29 0.931 . S
N4 Co0 2.148 . S
N4 C1 1.301 . S
N4 C2 1.317 . S
N5 C1 1.328 . S
N5 C3 1.350 1_455 S
H6 C1 0.930 . S
H7 C2 0.930 1_655 S
C8 O9 1.224 . S
C8 O27 1.247 . S
O9 C8 1.224 . S
N10 Co0 2.128 . S
N10 C11 1.355 . S
N10 C13 1.311 . S
C11 N10 1.355 . S
C11 C12 1.363 . S
C11 H23 0.929 . S
C12 C11 1.363 . S
C12 N14 1.375 . S
C12 H30 0.931 . S
C13 N10 1.311 . S
C13 N14 1.347 . S
C13 H24 0.929 . S
N14 C12 1.375 . S
N14 C13 1.347 . S
C15 C18 1.365 . S
C15 N20 1.328 . S
C15 H21 0.929 . S
C16 C17 1.362 . S
C16 C19 1.378 . S
C16 H31 0.929 . S
C17 C16 1.362 . S
C17 C18 1.366 . S
C18 C15 1.365 . S
C18 C17 1.366 . S
C18 H32 0.930 . S
C19 C16 1.378 . S
C19 N20 1.315 . S
C19 H22 0.930 . S
N20 Co0 2.194 . S
N20 C15 1.328 . S
N20 C19 1.315 . S
H21 C15 0.929 . S
H22 C19 0.930 . S
H23 C11 0.929 . S
H24 C13 0.929 . S
O25 Co0 2.351 . S
O25 C28 1.244 . S
O26 Co0 2.155 . S
O26 C28 1.240 . S
O27 Co0 2.096 . S
O27 C8 1.247 . S
C28 O25 1.244 . S
C28 O26 1.240 . S
H29 C3 0.931 . S
H30 C12 0.931 . S
H31 C16 0.929 . S
H32 C18 0.930 . S
Co33 N37 2.148 . S
Co33 N43 2.128 . S
Co33 N53 2.194 . S
Co33 O58 2.351 . S
Co33 O59 2.155 . S
Co33 O60 2.096 . S
C34 N37 1.301 . S
C34 N38 1.328 . S
C34 H39 0.930 . S
C35 C36 1.333 1_545 S
C35 N37 1.317 . S
C35 H40 0.930 1_545 S
C36 C35 1.333 1_565 S
C36 N38 1.350 1_565 S
C36 H62 0.931 . S
N37 Co33 2.148 . S
N37 C34 1.301 . S
N37 C35 1.317 . S
N38 C34 1.328 . S
N38 C36 1.350 1_545 S
H39 C34 0.930 . S
H40 C35 0.930 1_565 S
C41 O42 1.224 . S
C41 O60 1.247 . S
O42 C41 1.224 . S
N43 Co33 2.128 . S
N43 C44 1.355 . S
N43 C46 1.311 . S
C44 N43 1.355 . S
C44 C45 1.363 . S
C44 H56 0.929 . S
C45 C44 1.363 . S
C45 N47 1.375 . S
C45 H63 0.931 . S
C46 N43 1.311 . S
C46 N47 1.347 . S
C46 H57 0.929 . S
N47 C45 1.375 . S
N47 C46 1.347 . S
C48 C51 1.365 . S
C48 N53 1.328 . S
C48 H54 0.929 . S
C49 C50 1.362 . S
C49 C52 1.378 . S
C49 H64 0.929 . S
C50 C49 1.362 . S
C50 C51 1.366 . S
C51 C48 1.365 . S
C51 C50 1.366 . S
C51 H65 0.930 . S
C52 C49 1.378 . S
C52 N53 1.315 . S
C52 H55 0.930 . S
N53 Co33 2.194 . S
N53 C48 1.328 . S
N53 C52 1.315 . S
H54 C48 0.929 . S
H55 C52 0.930 . S
H56 C44 0.929 . S
H57 C46 0.929 . S
O58 Co33 2.351 . S
O58 C61 1.244 . S
O59 Co33 2.155 . S
O59 C61 1.240 . S
O60 Co33 2.096 . S
O60 C41 1.247 . S
C61 O58 1.244 . S
C61 O59 1.240 . S
H62 C36 0.931 . S
H63 C45 0.931 . S
H64 C49 0.929 . S
H65 C51 0.930 . S
Co66 N70 2.148 . S
Co66 N76 2.128 . S
Co66 N86 2.194 . S
Co66 O91 2.351 . S
Co66 O92 2.155 . S
Co66 O93 2.096 . S
C67 N70 1.301 . S
C67 N71 1.328 . S
C67 H72 0.930 . S
C68 C69 1.333 1_655 S
C68 N70 1.317 . S
C68 H73 0.930 1_655 S
C69 C68 1.333 1_455 S
C69 N71 1.350 1_455 S
C69 H95 0.931 . S
N70 Co66 2.148 . S
N70 C67 1.301 . S
N70 C68 1.317 . S
N71 C67 1.328 . S
N71 C69 1.350 1_655 S
H72 C67 0.930 . S
H73 C68 0.930 1_455 S
C74 O75 1.224 . S
C74 O93 1.247 . S
O75 C74 1.224 . S
N76 Co66 2.128 . S
N76 C77 1.355 . S
N76 C79 1.311 . S
C77 N76 1.355 . S
C77 C78 1.363 . S
C77 H89 0.929 . S
C78 C77 1.363 . S
C78 N80 1.375 . S
C78 H96 0.931 . S
C79 N76 1.311 . S
C79 N80 1.347 . S
C79 H90 0.929 . S
N80 C78 1.375 . S
N80 C79 1.347 . S
C81 C84 1.365 . S
C81 N86 1.328 . S
C81 H87 0.929 . S
C82 C83 1.362 . S
C82 C85 1.378 . S
C82 H97 0.929 . S
C83 C82 1.362 . S
C83 C84 1.366 . S
C84 C81 1.365 . S
C84 C83 1.366 . S
C84 H98 0.930 . S
C85 C82 1.378 . S
C85 N86 1.315 . S
C85 H88 0.930 . S
N86 Co66 2.194 . S
N86 C81 1.328 . S
N86 C85 1.315 . S
H87 C81 0.929 . S
H88 C85 0.930 . S
H89 C77 0.929 . S
H90 C79 0.929 . S
O91 Co66 2.351 . S
O91 C94 1.244 . S
O92 Co66 2.155 . S
O92 C94 1.240 . S
O93 Co66 2.096 . S
O93 C74 1.247 . S
C94 O91 1.244 . S
C94 O92 1.240 . S
H95 C69 0.931 . S
H96 C78 0.931 . S
H97 C82 0.929 . S
H98 C84 0.930 . S
Co99 N103 2.148 . S
Co99 N109 2.128 . S
Co99 N119 2.194 . S
Co99 O124 2.351 . S
Co99 O125 2.155 . S
Co99 O126 2.096 . S
C100 N103 1.301 . S
C100 N104 1.328 . S
C100 H105 0.930 . S
C101 C102 1.333 1_565 S
C101 N103 1.317 . S
C101 H106 0.930 1_565 S
C102 C101 1.333 1_545 S
C102 N104 1.350 1_545 S
C102 H128 0.931 . S
N103 Co99 2.148 . S
N103 C100 1.301 . S
N103 C101 1.317 . S
N104 C100 1.328 . S
N104 C102 1.350 1_565 S
H105 C100 0.930 . S
H106 C101 0.930 1_545 S
C107 O108 1.224 . S
C107 O126 1.247 . S
O108 C107 1.224 . S
N109 Co99 2.128 . S
N109 C110 1.355 . S
N109 C112 1.311 1_556 S
C110 N109 1.355 . S
C110 C111 1.363 1_556 S
C110 H122 0.929 . S
C111 C110 1.363 1_554 S
C111 N113 1.375 . S
C111 H129 0.931 . S
C112 N109 1.311 1_554 S
C112 N113 1.347 . S
C112 H123 0.929 . S
N113 C111 1.375 . S
N113 C112 1.347 . S
C114 C117 1.365 . S
C114 N119 1.328 . S
C114 H120 0.929 . S
C115 C116 1.362 . S
C115 C118 1.378 . S
C115 H130 0.929 . S
C116 C115 1.362 . S
C116 C117 1.366 . S
C117 C114 1.365 . S
C117 C116 1.366 . S
C117 H131 0.930 . S
C118 C115 1.378 . S
C118 N119 1.315 . S
C118 H121 0.930 . S
N119 Co99 2.194 . S
N119 C114 1.328 . S
N119 C118 1.315 . S
H120 C114 0.929 . S
H121 C118 0.930 . S
H122 C110 0.929 . S
H123 C112 0.929 . S
O124 Co99 2.351 . S
O124 C127 1.244 . S
O125 Co99 2.155 . S
O125 C127 1.240 . S
O126 Co99 2.096 . S
O126 C107 1.247 . S
C127 O124 1.244 . S
C127 O125 1.240 . S
H128 C102 0.931 . S
H129 C111 0.931 . S
H130 C115 0.929 . S
H131 C117 0.930 . S
Co132 N136 2.148 . S
Co132 N142 2.128 . S
Co132 N152 2.194 . S
Co132 O157 2.351 . S
Co132 O158 2.155 . S
Co132 O159 2.096 . S
C133 N136 1.301 . S
C133 N137 1.328 . S
C133 H138 0.930 . S
C134 C135 1.333 1_455 S
C134 N136 1.317 . S
C134 H139 0.930 1_455 S
C135 C134 1.333 1_655 S
C135 N137 1.350 1_655 S
C135 H161 0.931 . S
N136 Co132 2.148 . S
N136 C133 1.301 . S
N136 C134 1.317 . S
N137 C133 1.328 . S
N137 C135 1.350 1_455 S
H138 C133 0.930 . S
H139 C134 0.930 1_655 S
C140 O141 1.224 . S
C140 O159 1.247 . S
O141 C140 1.224 . S
N142 Co132 2.128 . S
N142 C143 1.355 . S
N142 C145 1.311 . S
C143 N142 1.355 . S
C143 C144 1.363 . S
C143 H155 0.929 . S
C144 C143 1.363 . S
C144 N146 1.375 . S
C144 H162 0.931 . S
C145 N142 1.311 . S
C145 N146 1.347 . S
C145 H156 0.929 . S
N146 C144 1.375 . S
N146 C145 1.347 . S
C147 C150 1.365 . S
C147 N152 1.328 . S
C147 H153 0.929 . S
C148 C149 1.362 . S
C148 C151 1.378 . S
C148 H163 0.929 . S
C149 C148 1.362 . S
C149 C150 1.366 . S
C150 C147 1.365 . S
C150 C149 1.366 . S
C150 H164 0.930 . S
C151 C148 1.378 . S
C151 N152 1.315 . S
C151 H154 0.930 . S
N152 Co132 2.194 . S
N152 C147 1.328 . S
N152 C151 1.315 . S
H153 C147 0.929 . S
H154 C151 0.930 . S
H155 C143 0.929 . S
H156 C145 0.929 . S
O157 Co132 2.351 . S
O157 C160 1.244 . S
O158 Co132 2.155 . S
O158 C160 1.240 . S
O159 Co132 2.096 . S
O159 C140 1.247 . S
C160 O157 1.244 . S
C160 O158 1.240 . S
H161 C135 0.931 . S
H162 C144 0.931 . S
H163 C148 0.929 . S
H164 C150 0.930 . S
Co165 N169 2.148 . S
Co165 N175 2.128 . S
Co165 N185 2.194 . S
Co165 O190 2.351 . S
Co165 O191 2.155 . S
Co165 O192 2.096 . S
C166 N169 1.301 . S
C166 N170 1.328 . S
C166 H171 0.930 . S
C167 C168 1.333 1_545 S
C167 N169 1.317 . S
C167 H172 0.930 1_545 S
C168 C167 1.333 1_565 S
C168 N170 1.350 1_565 S
C168 H194 0.931 . S
N169 Co165 2.148 . S
N169 C166 1.301 . S
N169 C167 1.317 . S
N170 C166 1.328 . S
N170 C168 1.350 1_545 S
H171 C166 0.930 . S
H172 C167 0.930 1_565 S
C173 O174 1.224 . S
C173 O192 1.247 . S
O174 C173 1.224 . S
N175 Co165 2.128 . S
N175 C176 1.355 . S
N175 C178 1.311 . S
C176 N175 1.355 . S
C176 C177 1.363 . S
C176 H188 0.929 . S
C177 C176 1.363 . S
C177 N179 1.375 . S
C177 H195 0.931 . S
C178 N175 1.311 . S
C178 N179 1.347 . S
C178 H189 0.929 . S
N179 C177 1.375 . S
N179 C178 1.347 . S
C180 C183 1.365 . S
C180 N185 1.328 . S
C180 H186 0.929 . S
C181 C182 1.362 . S
C181 C184 1.378 . S
C181 H196 0.929 . S
C182 C181 1.362 . S
C182 C183 1.366 . S
C183 C180 1.365 . S
C183 C182 1.366 . S
C183 H197 0.930 . S
C184 C181 1.378 . S
C184 N185 1.315 . S
C184 H187 0.930 . S
N185 Co165 2.194 . S
N185 C180 1.328 . S
N185 C184 1.315 . S
H186 C180 0.929 . S
H187 C184 0.930 . S
H188 C176 0.929 . S
H189 C178 0.929 . S
O190 Co165 2.351 . S
O190 C193 1.244 . S
O191 Co165 2.155 . S
O191 C193 1.240 . S
O192 Co165 2.096 . S
O192 C173 1.247 . S
C193 O190 1.244 . S
C193 O191 1.240 . S
H194 C168 0.931 . S
H195 C177 0.931 . S
H196 C181 0.929 . S
H197 C183 0.930 . S
Co198 N202 2.148 . S
Co198 N208 2.128 . S
Co198 N218 2.194 . S
Co198 O223 2.351 . S
Co198 O224 2.155 . S
Co198 O225 2.096 . S
C199 N202 1.301 . S
C199 N203 1.328 . S
C199 H204 0.930 . S
C200 C201 1.333 1_655 S
C200 N202 1.317 . S
C200 H205 0.930 1_655 S
C201 C200 1.333 1_455 S
C201 N203 1.350 1_455 S
C201 H227 0.931 . S
N202 Co198 2.148 . S
N202 C199 1.301 . S
N202 C200 1.317 . S
N203 C199 1.328 . S
N203 C201 1.350 1_655 S
H204 C199 0.930 . S
H205 C200 0.930 1_455 S
C206 O207 1.224 . S
C206 O225 1.247 . S
O207 C206 1.224 . S
N208 Co198 2.128 . S
N208 C209 1.355 . S
N208 C211 1.311 . S
C209 N208 1.355 . S
C209 C210 1.363 . S
C209 H221 0.929 . S
C210 C209 1.363 . S
C210 N212 1.375 . S
C210 H228 0.931 . S
C211 N208 1.311 . S
C211 N212 1.347 . S
C211 H222 0.929 . S
N212 C210 1.375 . S
N212 C211 1.347 . S
C213 C216 1.365 . S
C213 N218 1.328 . S
C213 H219 0.929 . S
C214 C215 1.362 . S
C214 C217 1.378 . S
C214 H229 0.929 . S
C215 C214 1.362 . S
C215 C216 1.366 . S
C216 C213 1.365 . S
C216 C215 1.366 . S
C216 H230 0.930 . S
C217 C214 1.378 . S
C217 N218 1.315 . S
C217 H220 0.930 . S
N218 Co198 2.194 . S
N218 C213 1.328 . S
N218 C217 1.315 . S
H219 C213 0.929 . S
H220 C217 0.930 . S
H221 C209 0.929 . S
H222 C211 0.929 . S
O223 Co198 2.351 . S
O223 C226 1.244 . S
O224 Co198 2.155 . S
O224 C226 1.240 . S
O225 Co198 2.096 . S
O225 C206 1.247 . S
C226 O223 1.244 . S
C226 O224 1.240 . S
H227 C201 0.931 . S
H228 C210 0.931 . S
H229 C214 0.929 . S
H230 C216 0.930 . S
Co231 N235 2.148 . S
Co231 N241 2.128 . S
Co231 N251 2.194 . S
Co231 O256 2.351 . S
Co231 O257 2.155 . S
Co231 O258 2.096 . S
C232 N235 1.301 . S
C232 N236 1.328 . S
C232 H237 0.930 . S
C233 C234 1.333 1_565 S
C233 N235 1.317 . S
C233 H238 0.930 1_565 S
C234 C233 1.333 1_545 S
C234 N236 1.350 1_545 S
C234 H260 0.931 . S
N235 Co231 2.148 . S
N235 C232 1.301 . S
N235 C233 1.317 . S
N236 C232 1.328 . S
N236 C234 1.350 1_565 S
H237 C232 0.930 . S
H238 C233 0.930 1_545 S
C239 O240 1.224 . S
C239 O258 1.247 . S
O240 C239 1.224 . S
N241 Co231 2.128 . S
N241 C242 1.355 . S
N241 C244 1.311 1_554 S
C242 N241 1.355 . S
C242 C243 1.363 1_554 S
C242 H254 0.929 . S
C243 C242 1.363 1_556 S
C243 N245 1.375 . S
C243 H261 0.931 . S
C244 N241 1.311 1_556 S
C244 N245 1.347 . S
C244 H255 0.929 . S
N245 C243 1.375 . S
N245 C244 1.347 . S
C246 C249 1.365 . S
C246 N251 1.328 . S
C246 H252 0.929 . S
C247 C248 1.362 . S
C247 C250 1.378 . S
C247 H262 0.929 . S
C248 C247 1.362 . S
C248 C249 1.366 . S
C249 C246 1.365 . S
C249 C248 1.366 . S
C249 H263 0.930 . S
C250 C247 1.378 . S
C250 N251 1.315 . S
C250 H253 0.930 . S
N251 Co231 2.194 . S
N251 C246 1.328 . S
N251 C250 1.315 . S
H252 C246 0.929 . S
H253 C250 0.930 . S
H254 C242 0.929 . S
H255 C244 0.929 . S
O256 Co231 2.351 . S
O256 C259 1.244 . S
O257 Co231 2.155 . S
O257 C259 1.240 . S
O258 Co231 2.096 . S
O258 C239 1.247 . S
C259 O256 1.244 . S
C259 O257 1.240 . S
H260 C234 0.931 . S
H261 C243 0.931 . S
H262 C247 0.929 . S
H263 C249 0.930 . S
C264 C265 1.349 . S
C264 C266 1.327 . S
C264 H289 0.950 . S
C265 C264 1.349 . S
C265 C281 1.349 . S
C266 C264 1.327 . S
C266 C285 1.429 . S
C266 H290 0.950 . S
C267 C284 1.574 . S
C267 C286 1.368 . S
C267 H291 0.949 . S
H268 C272 0.949 . S
C269 C270 1.349 . S
C269 C271 1.327 . S
C269 H292 0.950 . S
C270 C269 1.349 . S
C270 C282 1.349 . S
C271 C269 1.327 . S
C271 C287 1.429 . S
C271 H293 0.950 . S
C272 H268 0.949 . S
C272 C280 1.574 . S
C272 C288 1.368 . S
H273 C281 0.950 . S
H274 C279 0.950 . S
H275 C280 0.949 . S
H276 C282 0.950 . S
H277 C283 0.950 . S
H278 C284 0.949 . S
C279 H274 0.950 . S
C279 C281 1.327 . S
C279 C285 1.429 . S
C280 C272 1.574 . S
C280 H275 0.949 . S
C280 C286 1.368 . S
C281 C265 1.349 . S
C281 H273 0.950 . S
C281 C279 1.327 . S
C282 C270 1.349 . S
C282 H276 0.950 . S
C282 C283 1.327 . S
C283 H277 0.950 . S
C283 C282 1.327 . S
C283 C287 1.429 . S
C284 C267 1.574 . S
C284 H278 0.949 . S
C284 C288 1.368 . S
C285 C266 1.429 . S
C285 C279 1.429 . S
C285 C286 1.523 . S
C286 C267 1.368 . S
C286 C280 1.368 . S
C286 C285 1.523 . S
C287 C271 1.429 . S
C287 C283 1.429 . S
C287 C288 1.523 . S
C288 C272 1.368 . S
C288 C284 1.368 . S
C288 C287 1.523 . S
H289 C264 0.950 . S
H290 C266 0.950 . S
H291 C267 0.949 . S
H292 C269 0.950 . S
H293 C271 0.950 . S
C294 C295 1.349 . S
C294 C296 1.327 . S
C294 H319 0.950 . S
C295 C294 1.349 . S
C295 C311 1.349 . S
C296 C294 1.327 . S
C296 C315 1.429 . S
C296 H320 0.950 . S
C297 C314 1.574 . S
C297 C316 1.368 . S
C297 H321 0.949 . S
H298 C302 0.949 . S
C299 C300 1.349 . S
C299 C301 1.327 . S
C299 H322 0.950 . S
C300 C299 1.349 . S
C300 C312 1.349 . S
C301 C299 1.327 . S
C301 C317 1.429 . S
C301 H323 0.950 . S
C302 H298 0.949 . S
C302 C310 1.574 . S
C302 C318 1.368 . S
H303 C311 0.950 . S
H304 C309 0.950 . S
H305 C310 0.949 . S
H306 C312 0.950 . S
H307 C313 0.950 . S
H308 C314 0.949 . S
C309 H304 0.950 . S
C309 C311 1.327 . S
C309 C315 1.429 . S
C310 C302 1.574 . S
C310 H305 0.949 . S
C310 C316 1.368 . S
C311 C295 1.349 . S
C311 H303 0.950 . S
C311 C309 1.327 . S
C312 C300 1.349 . S
C312 H306 0.950 . S
C312 C313 1.327 . S
C313 H307 0.950 . S
C313 C312 1.327 . S
C313 C317 1.429 . S
C314 C297 1.574 . S
C314 H308 0.949 . S
C314 C318 1.368 . S
C315 C296 1.429 . S
C315 C309 1.429 . S
C315 C316 1.523 . S
C316 C297 1.368 . S
C316 C310 1.368 . S
C316 C315 1.523 . S
C317 C301 1.429 . S
C317 C313 1.429 . S
C317 C318 1.523 . S
C318 C302 1.368 . S
C318 C314 1.368 . S
C318 C317 1.523 . S
H319 C294 0.950 . S
H320 C296 0.950 . S
H321 C297 0.949 . S
H322 C299 0.950 . S
H323 C301 0.950 . S
C324 C325 1.349 . S
C324 C326 1.327 . S
C324 H349 0.950 . S
C325 C324 1.349 . S
C325 C341 1.349 . S
C326 C324 1.327 . S
C326 C345 1.429 . S
C326 H350 0.950 . S
C327 C344 1.574 . S
C327 C346 1.368 . S
C327 H351 0.949 . S
H328 C332 0.949 . S
C329 C330 1.349 . S
C329 C331 1.327 . S
C329 H352 0.950 . S
C330 C329 1.349 . S
C330 C342 1.349 . S
C331 C329 1.327 . S
C331 C347 1.429 . S
C331 H353 0.950 . S
C332 H328 0.949 . S
C332 C340 1.574 . S
C332 C348 1.368 . S
H333 C341 0.950 . S
H334 C339 0.950 . S
H335 C340 0.949 . S
H336 C342 0.950 . S
H337 C343 0.950 . S
H338 C344 0.949 . S
C339 H334 0.950 . S
C339 C341 1.327 . S
C339 C345 1.429 . S
C340 C332 1.574 . S
C340 H335 0.949 . S
C340 C346 1.368 . S
C341 C325 1.349 . S
C341 H333 0.950 . S
C341 C339 1.327 . S
C342 C330 1.349 . S
C342 H336 0.950 . S
C342 C343 1.327 . S
C343 H337 0.950 . S
C343 C342 1.327 . S
C343 C347 1.429 . S
C344 C327 1.574 . S
C344 H338 0.949 . S
C344 C348 1.368 . S
C345 C326 1.429 . S
C345 C339 1.429 . S
C345 C346 1.523 . S
C346 C327 1.368 . S
C346 C340 1.368 . S
C346 C345 1.523 . S
C347 C331 1.429 . S
C347 C343 1.429 . S
C347 C348 1.523 . S
C348 C332 1.368 . S
C348 C344 1.368 . S
C348 C347 1.523 . S
H349 C324 0.950 . S
H350 C326 0.950 . S
H351 C327 0.949 . S
H352 C329 0.950 . S
H353 C331 0.950 . S
C354 C355 1.349 . S
C354 C356 1.327 . S
C354 H379 0.950 . S
C355 C354 1.349 . S
C355 C371 1.349 . S
C356 C354 1.327 . S
C356 C375 1.429 . S
C356 H380 0.950 1_556 S
C357 C374 1.574 . S
C357 C376 1.368 . S
C357 H381 0.949 . S
H358 C362 0.949 . S
C359 C360 1.349 . S
C359 C361 1.327 . S
C359 H382 0.950 . S
C360 C359 1.349 . S
C360 C372 1.349 . S
C361 C359 1.327 . S
C361 C377 1.429 . S
C361 H383 0.950 1_554 S
C362 H358 0.949 . S
C362 C370 1.574 . S
C362 C378 1.368 . S
H363 C371 0.950 . S
H364 C369 0.950 . S
H365 C370 0.949 . S
H366 C372 0.950 . S
H367 C373 0.950 . S
H368 C374 0.949 . S
C369 H364 0.950 . S
C369 C371 1.327 . S
C369 C375 1.429 . S
C370 C362 1.574 . S
C370 H365 0.949 . S
C370 C376 1.368 1_554 S
C371 C355 1.349 . S
C371 H363 0.950 . S
C371 C369 1.327 . S
C372 C360 1.349 . S
C372 H366 0.950 . S
C372 C373 1.327 . S
C373 H367 0.950 . S
C373 C372 1.327 . S
C373 C377 1.429 . S
C374 C357 1.574 . S
C374 H368 0.949 . S
C374 C378 1.368 1_556 S
C375 C356 1.429 . S
C375 C369 1.429 . S
C375 C376 1.523 . S
C376 C357 1.368 . S
C376 C370 1.368 1_556 S
C376 C375 1.523 . S
C377 C361 1.429 . S
C377 C373 1.429 . S
C377 C378 1.523 . S
C378 C362 1.368 . S
C378 C374 1.368 1_554 S
C378 C377 1.523 . S
H379 C354 0.950 . S
H380 C356 0.950 1_554 S
H381 C357 0.949 . S
H382 C359 0.950 . S
H383 C361 0.950 1_556 S
C384 C385 1.349 . S
C384 C386 1.327 . S
C384 H409 0.950 . S
C385 C384 1.349 . S
C385 C401 1.349 . S
C386 C384 1.327 . S
C386 C405 1.429 . S
C386 H410 0.950 . S
C387 C404 1.574 . S
C387 C406 1.368 . S
C387 H411 0.949 . S
H388 C392 0.949 . S
C389 C390 1.349 . S
C389 C391 1.327 . S
C389 H412 0.950 . S
C390 C389 1.349 . S
C390 C402 1.349 . S
C391 C389 1.327 . S
C391 C407 1.429 . S
C391 H413 0.950 . S
C392 H388 0.949 . S
C392 C400 1.574 . S
C392 C408 1.368 . S
H393 C401 0.950 . S
H394 C399 0.950 . S
H395 C400 0.949 . S
H396 C402 0.950 . S
H397 C403 0.950 . S
H398 C404 0.949 . S
C399 H394 0.950 . S
C399 C401 1.327 . S
C399 C405 1.429 . S
C400 C392 1.574 . S
C400 H395 0.949 . S
C400 C406 1.368 . S
C401 C385 1.349 . S
C401 H393 0.950 . S
C401 C399 1.327 . S
C402 C390 1.349 . S
C402 H396 0.950 . S
C402 C403 1.327 . S
C403 H397 0.950 . S
C403 C402 1.327 . S
C403 C407 1.429 . S
C404 C387 1.574 . S
C404 H398 0.949 . S
C404 C408 1.368 . S
C405 C386 1.429 . S
C405 C399 1.429 . S
C405 C406 1.523 . S
C406 C387 1.368 . S
C406 C400 1.368 . S
C406 C405 1.523 . S
C407 C391 1.429 . S
C407 C403 1.429 . S
C407 C408 1.523 . S
C408 C392 1.368 . S
C408 C404 1.368 . S
C408 C407 1.523 . S
H409 C384 0.950 . S
H410 C386 0.950 . S
H411 C387 0.949 . S
H412 C389 0.950 . S
H413 C391 0.950 . S
C414 C415 1.349 . S
C414 C416 1.327 . S
C414 H439 0.950 . S
C415 C414 1.349 . S
C415 C431 1.349 . S
C416 C414 1.327 . S
C416 C435 1.429 . S
C416 H440 0.950 . S
C417 C434 1.574 . S
C417 C436 1.368 . S
C417 H441 0.949 . S
H418 C422 0.949 . S
C419 C420 1.349 . S
C419 C421 1.327 . S
C419 H442 0.950 . S
C420 C419 1.349 . S
C420 C432 1.349 . S
C421 C419 1.327 . S
C421 C437 1.429 . S
C421 H443 0.950 . S
C422 H418 0.949 . S
C422 C430 1.574 . S
C422 C438 1.368 . S
H423 C431 0.950 . S
H424 C429 0.950 . S
H425 C430 0.949 . S
H426 C432 0.950 . S
H427 C433 0.950 . S
H428 C434 0.949 . S
C429 H424 0.950 . S
C429 C431 1.327 . S
C429 C435 1.429 . S
C430 C422 1.574 . S
C430 H425 0.949 . S
C430 C436 1.368 . S
C431 C415 1.349 . S
C431 H423 0.950 . S
C431 C429 1.327 . S
C432 C420 1.349 . S
C432 H426 0.950 . S
C432 C433 1.327 . S
C433 H427 0.950 . S
C433 C432 1.327 . S
C433 C437 1.429 . S
C434 C417 1.574 . S
C434 H428 0.949 . S
C434 C438 1.368 . S
C435 C416 1.429 . S
C435 C429 1.429 . S
C435 C436 1.523 . S
C436 C417 1.368 . S
C436 C430 1.368 . S
C436 C435 1.523 . S
C437 C421 1.429 . S
C437 C433 1.429 . S
C437 C438 1.523 . S
C438 C422 1.368 . S
C438 C434 1.368 . S
C438 C437 1.523 . S
H439 C414 0.950 . S
H440 C416 0.950 . S
H441 C417 0.949 . S
H442 C419 0.950 . S
H443 C421 0.950 . S
C444 C445 1.349 . S
C444 C446 1.327 . S
C444 H469 0.950 . S
C445 C444 1.349 . S
C445 C461 1.349 . S
C446 C444 1.327 . S
C446 C465 1.429 . S
C446 H470 0.950 . S
C447 C464 1.574 . S
C447 C466 1.368 . S
C447 H471 0.949 . S
H448 C452 0.949 . S
C449 C450 1.349 . S
C449 C451 1.327 . S
C449 H472 0.950 . S
C450 C449 1.349 . S
C450 C462 1.349 . S
C451 C449 1.327 . S
C451 C467 1.429 . S
C451 H473 0.950 . S
C452 H448 0.949 . S
C452 C460 1.574 . S
C452 C468 1.368 . S
H453 C461 0.950 . S
H454 C459 0.950 . S
H455 C460 0.949 . S
H456 C462 0.950 . S
H457 C463 0.950 . S
H458 C464 0.949 . S
C459 H454 0.950 . S
C459 C461 1.327 . S
C459 C465 1.429 . S
C460 C452 1.574 . S
C460 H455 0.949 . S
C460 C466 1.368 . S
C461 C445 1.349 . S
C461 H453 0.950 . S
C461 C459 1.327 . S
C462 C450 1.349 . S
C462 H456 0.950 . S
C462 C463 1.327 . S
C463 H457 0.950 . S
C463 C462 1.327 . S
C463 C467 1.429 . S
C464 C447 1.574 . S
C464 H458 0.949 . S
C464 C468 1.368 . S
C465 C446 1.429 . S
C465 C459 1.429 . S
C465 C466 1.523 . S
C466 C447 1.368 . S
C466 C460 1.368 . S
C466 C465 1.523 . S
C467 C451 1.429 . S
C467 C463 1.429 . S
C467 C468 1.523 . S
C468 C452 1.368 . S
C468 C464 1.368 . S
C468 C467 1.523 . S
H469 C444 0.950 . S
H470 C446 0.950 . S
H471 C447 0.949 . S
H472 C449 0.950 . S
H473 C451 0.950 . S
C474 C475 1.349 . S
C474 C476 1.327 . S
C474 H499 0.950 . S
C475 C474 1.349 . S
C475 C491 1.349 . S
C476 C474 1.327 . S
C476 C495 1.429 . S
C476 H500 0.950 . S
C477 C494 1.574 . S
C477 C496 1.368 . S
C477 H501 0.949 . S
H478 C482 0.949 . S
C479 C480 1.349 . S
C479 C481 1.327 . S
C479 H502 0.950 . S
C480 C479 1.349 . S
C480 C492 1.349 . S
C481 C479 1.327 . S
C481 C497 1.429 . S
C481 H503 0.950 . S
C482 H478 0.949 . S
C482 C490 1.574 . S
C482 C498 1.368 . S
H483 C491 0.950 . S
H484 C489 0.950 . S
H485 C490 0.949 . S
H486 C492 0.950 . S
H487 C493 0.950 . S
H488 C494 0.949 . S
C489 H484 0.950 . S
C489 C491 1.327 . S
C489 C495 1.429 . S
C490 C482 1.574 . S
C490 H485 0.949 . S
C490 C496 1.368 . S
C491 C475 1.349 . S
C491 H483 0.950 . S
C491 C489 1.327 . S
C492 C480 1.349 . S
C492 H486 0.950 . S
C492 C493 1.327 . S
C493 H487 0.950 . S
C493 C492 1.327 . S
C493 C497 1.429 . S
C494 C477 1.574 . S
C494 H488 0.949 . S
C494 C498 1.368 . S
C495 C476 1.429 . S
C495 C489 1.429 . S
C495 C496 1.523 . S
C496 C477 1.368 . S
C496 C490 1.368 . S
C496 C495 1.523 . S
C497 C481 1.429 . S
C497 C493 1.429 . S
C497 C498 1.523 . S
C498 C482 1.368 . S
C498 C494 1.368 . S
C498 C497 1.523 . S
H499 C474 0.950 . S
H500 C476 0.950 . S
H501 C477 0.949 . S
H502 C479 0.950 . S
H503 C481 0.950 . S
C504 C505 1.349 . S
C504 C506 1.327 . S
C504 H529 0.950 . S
C505 C504 1.349 . S
C505 C521 1.351 . S
C506 C504 1.327 . S
C506 C525 1.429 . S
C506 H530 0.950 . S
C507 C524 1.574 1_554 S
C507 C526 1.368 1_655 S
C507 H531 0.949 . S
H508 C512 0.949 . S
C509 C510 1.349 . S
C509 C511 1.327 . S
C509 H532 0.950 . S
C510 C509 1.349 . S
C510 C522 1.351 . S
C511 C509 1.327 . S
C511 C527 1.429 . S
C511 H533 0.950 . S
C512 H508 0.949 . S
C512 C520 1.574 1_556 S
C512 C528 1.368 1_455 S
H513 C521 0.948 1_655 S
H514 C519 0.950 . S
H515 C520 0.949 . S
H516 C522 0.948 1_455 S
H517 C523 0.950 . S
H518 C524 0.949 . S
C519 H514 0.950 . S
C519 C521 1.326 1_655 S
C519 C525 1.429 1_655 S
C520 C512 1.574 1_554 S
C520 H515 0.949 . S
C520 C526 1.368 . S
C521 C505 1.351 . S
C521 H513 0.948 1_455 S
C521 C519 1.326 1_455 S
C522 C510 1.351 . S
C522 H516 0.948 1_655 S
C522 C523 1.326 1_655 S
C523 H517 0.950 . S
C523 C522 1.326 1_455 S
C523 C527 1.429 1_455 S
C524 C507 1.574 1_556 S
C524 H518 0.949 . S
C524 C528 1.368 . S
C525 C506 1.429 . S
C525 C519 1.429 1_455 S
C525 C526 1.523 . S
C526 C507 1.368 1_455 S
C526 C520 1.368 . S
C526 C525 1.523 . S
C527 C511 1.429 . S
C527 C523 1.429 1_655 S
C527 C528 1.523 . S
C528 C512 1.368 1_655 S
C528 C524 1.368 . S
C528 C527 1.523 . S
H529 C504 0.950 . S
H530 C506 0.950 . S
H531 C507 0.949 . S
H532 C509 0.950 . S
H533 C511 0.950 . S
C534 C535 1.349 . S
C534 C536 1.327 . S
C534 H559 0.950 . S
C535 C534 1.349 . S
C535 C551 1.349 1_565 S
C536 C534 1.327 . S
C536 C555 1.429 . S
C536 H560 0.950 . S
C537 C554 1.574 . S
C537 C556 1.368 1_545 S
C537 H561 0.949 . S
H538 C542 0.949 . S
C539 C540 1.349 . S
C539 C541 1.327 . S
C539 H562 0.950 . S
C540 C539 1.349 . S
C540 C552 1.349 1_545 S
C541 C539 1.327 . S
C541 C557 1.429 . S
C541 H563 0.950 . S
C542 H538 0.949 . S
C542 C550 1.574 . S
C542 C558 1.368 1_565 S
H543 C551 0.950 . S
H544 C549 0.950 . S
H545 C550 0.949 . S
H546 C552 0.950 . S
H547 C553 0.950 . S
H548 C554 0.949 . S
C549 H544 0.950 . S
C549 C551 1.327 . S
C549 C555 1.429 1_545 S
C550 C542 1.574 . S
C550 H545 0.949 . S
C550 C556 1.368 . S
C551 C535 1.349 1_545 S
C551 H543 0.950 . S
C551 C549 1.327 . S
C552 C540 1.349 1_565 S
C552 H546 0.950 . S
C552 C553 1.327 . S
C553 H547 0.950 . S
C553 C552 1.327 . S
C553 C557 1.429 1_565 S
C554 C537 1.574 . S
C554 H548 0.949 . S
C554 C558 1.368 . S
C555 C536 1.429 . S
C555 C549 1.429 1_565 S
C555 C556 1.523 . S
C556 C537 1.368 1_565 S
C556 C550 1.368 . S
C556 C555 1.523 . S
C557 C541 1.429 . S
C557 C553 1.429 1_545 S
C557 C558 1.523 . S
C558 C542 1.368 1_545 S
C558 C554 1.368 . S
C558 C557 1.523 . S
H559 C534 0.950 . S
H560 C536 0.950 . S
H561 C537 0.949 . S
H562 C539 0.950 . S
H563 C541 0.950 . S
C564 C565 1.349 . S
C564 C566 1.327 . S
C564 H589 0.950 . S
C565 C564 1.349 . S
C565 C581 1.351 . S
C566 C564 1.327 . S
C566 C585 1.429 . S
C566 H590 0.950 . S
C567 C584 1.574 . S
C567 C586 1.368 1_455 S
C567 H591 0.949 . S
H568 C572 0.949 . S
C569 C570 1.349 . S
C569 C571 1.327 . S
C569 H592 0.950 . S
C570 C569 1.349 . S
C570 C582 1.351 . S
C571 C569 1.327 . S
C571 C587 1.429 . S
C571 H593 0.950 . S
C572 H568 0.949 . S
C572 C580 1.574 . S
C572 C588 1.368 1_655 S
H573 C581 0.948 1_455 S
H574 C579 0.950 . S
H575 C580 0.949 . S
H576 C582 0.948 1_655 S
H577 C583 0.950 . S
H578 C584 0.949 . S
C579 H574 0.950 . S
C579 C581 1.326 1_455 S
C579 C585 1.429 1_455 S
C580 C572 1.574 . S
C580 H575 0.949 . S
C580 C586 1.368 . S
C581 C565 1.351 . S
C581 H573 0.948 1_655 S
C581 C579 1.326 1_655 S
C582 C570 1.351 . S
C582 H576 0.948 1_455 S
C582 C583 1.326 1_455 S
C583 H577 0.950 . S
C583 C582 1.326 1_655 S
C583 C587 1.429 1_655 S
C584 C567 1.574 . S
C584 H578 0.949 . S
C584 C588 1.368 . S
C585 C566 1.429 . S
C585 C579 1.429 1_655 S
C585 C586 1.523 . S
C586 C567 1.368 1_655 S
C586 C580 1.368 . S
C586 C585 1.523 . S
C587 C571 1.429 . S
C587 C583 1.429 1_455 S
C587 C588 1.523 . S
C588 C572 1.368 1_455 S
C588 C584 1.368 . S
C588 C587 1.523 . S
H589 C564 0.950 . S
H590 C566 0.950 . S
H591 C567 0.949 . S
H592 C569 0.950 . S
H593 C571 0.950 . S
C594 C595 1.349 1_565 S
C594 C596 1.327 . S
C594 H619 0.950 . S
C595 C594 1.349 1_545 S
C595 C611 1.349 . S
C596 C594 1.327 . S
C596 C615 1.429 1_565 S
C596 H620 0.950 . S
C597 C614 1.574 . S
C597 C616 1.368 . S
C597 H621 0.949 . S
H598 C602 0.949 . S
C599 C600 1.349 1_545 S
C599 C601 1.327 . S
C599 H622 0.950 . S
C600 C599 1.349 1_565 S
C600 C612 1.349 . S
C601 C599 1.327 . S
C601 C617 1.429 1_545 S
C601 H623 0.950 . S
C602 H598 0.949 . S
C602 C610 1.574 . S
C602 C618 1.368 . S
H603 C611 0.950 . S
H604 C609 0.950 . S
H605 C610 0.949 . S
H606 C612 0.950 . S
H607 C613 0.950 . S
H608 C614 0.949 . S
C609 H604 0.950 . S
C609 C611 1.327 . S
C609 C615 1.429 . S
C610 C602 1.574 . S
C610 H605 0.949 . S
C610 C616 1.368 1_565 S
C611 C595 1.349 . S
C611 H603 0.950 . S
C611 C609 1.327 . S
C612 C600 1.349 . S
C612 H606 0.950 . S
C612 C613 1.327 . S
C613 H607 0.950 . S
C613 C612 1.327 . S
C613 C617 1.429 . S
C614 C597 1.574 . S
C614 H608 0.949 . S
C614 C618 1.368 1_545 S
C615 C596 1.429 1_545 S
C615 C609 1.429 . S
C615 C616 1.523 . S
C616 C597 1.368 . S
C616 C610 1.368 1_545 S
C616 C615 1.523 . S
C617 C601 1.429 1_565 S
C617 C613 1.429 . S
C617 C618 1.523 . S
C618 C602 1.368 . S
C618 C614 1.368 1_565 S
C618 C617 1.523 . S
H619 C594 0.950 . S
H620 C596 0.950 . S
H621 C597 0.949 . S
H622 C599 0.950 . S
H623 C601 0.950 . S
C624 C625 1.349 . S
C624 C626 1.327 . S
C624 H649 0.950 . S
C625 C624 1.349 . S
C625 C641 1.349 . S
C626 C624 1.327 . S
C626 C645 1.429 . S
C626 H650 0.950 . S
C627 C644 1.574 . S
C627 C646 1.368 . S
C627 H651 0.949 . S
H628 C632 0.949 . S
C629 C630 1.349 . S
C629 C631 1.327 . S
C629 H652 0.950 1_554 S
C630 C629 1.349 . S
C630 C642 1.349 . S
C631 C629 1.327 . S
C631 C647 1.429 . S
C631 H653 0.950 . S
C632 H628 0.949 . S
C632 C640 1.574 . S
C632 C648 1.368 . S
H633 C641 0.950 . S
H634 C639 0.950 . S
H635 C640 0.949 . S
H636 C642 0.950 1_565 S
H637 C643 0.950 . S
H638 C644 0.949 . S
C639 H634 0.950 . S
C639 C641 1.327 . S
C639 C645 1.429 . S
C640 C632 1.574 . S
C640 H635 0.949 . S
C640 C646 1.368 . S
C641 C625 1.349 . S
C641 H633 0.950 . S
C641 C639 1.327 . S
C642 C630 1.349 . S
C642 H636 0.950 1_545 S
C642 C643 1.327 . S
C643 H637 0.950 . S
C643 C642 1.327 . S
C643 C647 1.429 . S
C644 C627 1.574 . S
C644 H638 0.949 . S
C644 C648 1.368 . S
C645 C626 1.429 . S
C645 C639 1.429 . S
C645 C646 1.523 . S
C646 C627 1.368 . S
C646 C640 1.368 . S
C646 C645 1.523 . S
C647 C631 1.429 . S
C647 C643 1.429 . S
C647 C648 1.523 . S
C648 C632 1.368 . S
C648 C644 1.368 . S
C648 C647 1.523 . S
H649 C624 0.950 . S
H650 C626 0.950 . S
H651 C627 0.949 . S
H652 C629 0.950 1_556 S
H653 C631 0.950 . S
C654 C655 1.349 . S
C654 C656 1.327 . S
C654 H679 0.950 . S
C655 C654 1.349 . S
C655 C671 1.349 . S
C656 C654 1.327 . S
C656 C675 1.429 . S
C656 H680 0.950 . S
C657 C674 1.574 . S
C657 C676 1.368 . S
C657 H681 0.949 . S
H658 C662 0.949 . S
C659 C660 1.349 . S
C659 C661 1.327 . S
C659 H682 0.950 . S
C660 C659 1.349 . S
C660 C672 1.349 . S
C661 C659 1.327 . S
C661 C677 1.429 . S
C661 H683 0.950 . S
C662 H658 0.949 . S
C662 C670 1.574 . S
C662 C678 1.368 . S
H663 C671 0.950 1_455 S
H664 C669 0.950 . S
H665 C670 0.949 . S
H666 C672 0.950 . S
H667 C673 0.950 . S
H668 C674 0.949 . S
C669 H664 0.950 . S
C669 C671 1.327 . S
C669 C675 1.429 . S
C670 C662 1.574 . S
C670 H665 0.949 . S
C670 C676 1.368 . S
C671 C655 1.349 . S
C671 H663 0.950 1_655 S
C671 C669 1.327 . S
C672 C660 1.349 . S
C672 H666 0.950 . S
C672 C673 1.327 . S
C673 H667 0.950 . S
C673 C672 1.327 . S
C673 C677 1.429 . S
C674 C657 1.574 . S
C674 H668 0.949 . S
C674 C678 1.368 . S
C675 C656 1.429 . S
C675 C669 1.429 . S
C675 C676 1.523 . S
C676 C657 1.368 . S
C676 C670 1.368 . S
C676 C675 1.523 . S
C677 C661 1.429 . S
C677 C673 1.429 . S
C677 C678 1.523 . S
C678 C662 1.368 . S
C678 C674 1.368 . S
C678 C677 1.523 . S
H679 C654 0.950 . S
H680 C656 0.950 . S
H681 C657 0.949 . S
H682 C659 0.950 . S
H683 C661 0.950 . S
C684 C685 1.349 . S
C684 C686 1.327 . S
C684 H709 0.950 . S
C685 C684 1.349 . S
C685 C701 1.349 . S
C686 C684 1.327 . S
C686 C705 1.429 . S
C686 H710 0.950 . S
C687 C704 1.574 . S
C687 C706 1.368 . S
C687 H711 0.949 . S
H688 C692 0.949 . S
C689 C690 1.349 . S
C689 C691 1.327 . S
C689 H712 0.950 . S
C690 C689 1.349 . S
C690 C702 1.349 . S
C691 C689 1.327 . S
C691 C707 1.429 . S
C691 H713 0.950 . S
C692 H688 0.949 . S
C692 C700 1.574 . S
C692 C708 1.368 . S
H693 C701 0.950 1_545 S
H694 C699 0.950 . S
H695 C700 0.949 . S
H696 C702 0.950 . S
H697 C703 0.950 . S
H698 C704 0.949 . S
C699 H694 0.950 . S
C699 C701 1.327 . S
C699 C705 1.429 . S
C700 C692 1.574 . S
C700 H695 0.949 . S
C700 C706 1.368 . S
C701 C685 1.349 . S
C701 H693 0.950 1_565 S
C701 C699 1.327 . S
C702 C690 1.349 . S
C702 H696 0.950 . S
C702 C703 1.327 . S
C703 H697 0.950 . S
C703 C702 1.327 . S
C703 C707 1.429 . S
C704 C687 1.574 . S
C704 H698 0.949 . S
C704 C708 1.368 . S
C705 C686 1.429 . S
C705 C699 1.429 . S
C705 C706 1.523 . S
C706 C687 1.368 . S
C706 C700 1.368 . S
C706 C705 1.523 . S
C707 C691 1.429 . S
C707 C703 1.429 . S
C707 C708 1.523 . S
C708 C692 1.368 . S
C708 C704 1.368 . S
C708 C707 1.523 . S
H709 C684 0.950 . S
H710 C686 0.950 . S
H711 C687 0.949 . S
H712 C689 0.950 . S
H713 C691 0.950 . S
C714 C715 1.349 . S
C714 C716 1.327 . S
C714 H739 0.950 . S
C715 C714 1.349 . S
C715 C731 1.349 . S
C716 C714 1.327 . S
C716 C735 1.429 . S
C716 H740 0.950 . S
C717 C734 1.574 . S
C717 C736 1.368 . S
C717 H741 0.949 . S
H718 C722 0.949 . S
C719 C720 1.349 . S
C719 C721 1.327 . S
C719 H742 0.950 . S
C720 C719 1.349 . S
C720 C732 1.349 . S
C721 C719 1.327 . S
C721 C737 1.429 . S
C721 H743 0.950 . S
C722 H718 0.949 . S
C722 C730 1.574 . S
C722 C738 1.368 . S
H723 C731 0.950 1_655 S
H724 C729 0.950 . S
H725 C730 0.949 . S
H726 C732 0.950 . S
H727 C733 0.950 . S
H728 C734 0.949 . S
C729 H724 0.950 . S
C729 C731 1.327 . S
C729 C735 1.429 . S
C730 C722 1.574 . S
C730 H725 0.949 . S
C730 C736 1.368 . S
C731 C715 1.349 . S
C731 H723 0.950 1_455 S
C731 C729 1.327 . S
C732 C720 1.349 . S
C732 H726 0.950 . S
C732 C733 1.327 . S
C733 H727 0.950 . S
C733 C732 1.327 . S
C733 C737 1.429 . S
C734 C717 1.574 . S
C734 H728 0.949 . S
C734 C738 1.368 . S
C735 C716 1.429 . S
C735 C729 1.429 . S
C735 C736 1.523 . S
C736 C717 1.368 . S
C736 C730 1.368 . S
C736 C735 1.523 . S
C737 C721 1.429 . S
C737 C733 1.429 . S
C737 C738 1.523 . S
C738 C722 1.368 . S
C738 C734 1.368 . S
C738 C737 1.523 . S
H739 C714 0.950 . S
H740 C716 0.950 . S
H741 C717 0.949 . S
H742 C719 0.950 . S
H743 C721 0.950 . S
C744 C745 1.349 . S
C744 C746 1.327 . S
C744 H769 0.950 . S
C745 C744 1.349 . S
C745 C761 1.349 . S
C746 C744 1.327 . S
C746 C765 1.429 . S
C746 H770 0.950 . S
C747 C764 1.574 . S
C747 C766 1.368 . S
C747 H771 0.949 . S
H748 C752 0.949 . S
C749 C750 1.349 . S
C749 C751 1.327 . S
C749 H772 0.950 1_565 S
C750 C749 1.349 . S
C750 C762 1.349 . S
C751 C749 1.327 . S
C751 C767 1.429 . S
C751 H773 0.950 . S
C752 H748 0.949 . S
C752 C760 1.574 . S
C752 C768 1.368 . S
H753 C761 0.950 . S
H754 C759 0.950 . S
H755 C760 0.949 . S
H756 C762 0.950 . S
H757 C763 0.950 . S
H758 C764 0.949 . S
C759 H754 0.950 . S
C759 C761 1.327 . S
C759 C765 1.429 . S
C760 C752 1.574 . S
C760 H755 0.949 . S
C760 C766 1.368 . S
C761 C745 1.349 . S
C761 H753 0.950 . S
C761 C759 1.327 . S
C762 C750 1.349 . S
C762 H756 0.950 . S
C762 C763 1.327 . S
C763 H757 0.950 . S
C763 C762 1.327 . S
C763 C767 1.429 . S
C764 C747 1.574 . S
C764 H758 0.949 . S
C764 C768 1.368 . S
C765 C746 1.429 . S
C765 C759 1.429 . S
C765 C766 1.523 . S
C766 C747 1.368 . S
C766 C760 1.368 . S
C766 C765 1.523 . S
C767 C751 1.429 . S
C767 C763 1.429 . S
C767 C768 1.523 . S
C768 C752 1.368 . S
C768 C764 1.368 . S
C768 C767 1.523 . S
H769 C744 0.950 . S
H770 C746 0.950 . S
H771 C747 0.949 . S
H772 C749 0.950 1_545 S
H773 C751 0.950 . S
C774 C775 1.349 . S
C774 C776 1.327 . S
C774 H799 0.950 . S
C775 C774 1.349 . S
C775 C791 1.349 . S
C776 C774 1.327 . S
C776 C795 1.429 . S
C776 H800 0.950 . S
C777 C794 1.574 . S
C777 C796 1.368 . S
C777 H801 0.949 . S
H778 C782 0.949 . S
C779 C780 1.349 . S
C779 C781 1.327 . S
C779 H802 0.950 1_455 S
C780 C779 1.349 . S
C780 C792 1.349 . S
C781 C779 1.327 . S
C781 C797 1.429 . S
C781 H803 0.950 . S
C782 H778 0.949 . S
C782 C790 1.574 . S
C782 C798 1.368 . S
H783 C791 0.950 . S
H784 C789 0.950 . S
H785 C790 0.949 . S
H786 C792 0.950 . S
H787 C793 0.950 . S
H788 C794 0.949 . S
C789 H784 0.950 . S
C789 C791 1.327 . S
C789 C795 1.429 . S
C790 C782 1.574 . S
C790 H785 0.949 . S
C790 C796 1.368 . S
C791 C775 1.349 . S
C791 H783 0.950 . S
C791 C789 1.327 . S
C792 C780 1.349 . S
C792 H786 0.950 . S
C792 C793 1.327 . S
C793 H787 0.950 . S
C793 C792 1.327 . S
C793 C797 1.429 . S
C794 C777 1.574 . S
C794 H788 0.949 . S
C794 C798 1.368 . S
C795 C776 1.429 . S
C795 C789 1.429 . S
C795 C796 1.523 . S
C796 C777 1.368 . S
C796 C790 1.368 . S
C796 C795 1.523 . S
C797 C781 1.429 . S
C797 C793 1.429 . S
C797 C798 1.523 . S
C798 C782 1.368 . S
C798 C794 1.368 . S
C798 C797 1.523 . S
H799 C774 0.950 . S
H800 C776 0.950 . S
H801 C777 0.949 . S
H802 C779 0.950 1_655 S
H803 C781 0.950 . S
C804 C805 1.349 . S
C804 C806 1.327 . S
C804 H829 0.950 . S
C805 C804 1.349 . S
C805 C821 1.349 . S
C806 C804 1.327 . S
C806 C825 1.429 . S
C806 H830 0.950 . S
C807 C824 1.574 . S
C807 C826 1.368 . S
C807 H831 0.949 . S
H808 C812 0.949 . S
C809 C810 1.349 . S
C809 C811 1.327 . S
C809 H832 0.950 1_556 S
C810 C809 1.349 . S
C810 C822 1.349 . S
C811 C809 1.327 . S
C811 C827 1.429 . S
C811 H833 0.950 . S
C812 H808 0.949 . S
C812 C820 1.574 . S
C812 C828 1.368 . S
H813 C821 0.950 . S
H814 C819 0.950 . S
H815 C820 0.949 . S
H816 C822 0.950 . S
H817 C823 0.950 . S
H818 C824 0.949 . S
C819 H814 0.950 . S
C819 C821 1.327 . S
C819 C825 1.429 . S
C820 C812 1.574 . S
C820 H815 0.949 . S
C820 C826 1.368 . S
C821 C805 1.349 . S
C821 H813 0.950 . S
C821 C819 1.327 . S
C822 C810 1.349 . S
C822 H816 0.950 . S
C822 C823 1.327 . S
C823 H817 0.950 . S
C823 C822 1.327 . S
C823 C827 1.429 . S
C824 C807 1.574 . S
C824 H818 0.949 . S
C824 C828 1.368 . S
C825 C806 1.429 . S
C825 C819 1.429 . S
C825 C826 1.523 . S
C826 C807 1.368 . S
C826 C820 1.368 . S
C826 C825 1.523 . S
C827 C811 1.429 . S
C827 C823 1.429 . S
C827 C828 1.523 . S
C828 C812 1.368 . S
C828 C824 1.368 . S
C828 C827 1.523 . S
H829 C804 0.950 . S
H830 C806 0.950 . S
H831 C807 0.949 . S
H832 C809 0.950 1_554 S
H833 C811 0.950 . S
C834 C835 1.349 . S
C834 C836 1.327 . S
C834 H859 0.950 . S
C835 C834 1.349 . S
C835 C851 1.349 . S
C836 C834 1.327 . S
C836 C855 1.429 . S
C836 H860 0.950 . S
C837 C854 1.574 . S
C837 C856 1.368 . S
C837 H861 0.949 . S
H838 C842 0.949 . S
C839 C840 1.349 . S
C839 C841 1.327 . S
C839 H862 0.950 . S
C840 C839 1.349 . S
C840 C852 1.349 . S
C841 C839 1.327 . S
C841 C857 1.429 . S
C841 H863 0.950 . S
C842 H838 0.949 . S
C842 C850 1.574 . S
C842 C858 1.368 . S
H843 C851 0.948 . S
H844 C849 0.950 . S
H845 C850 0.949 . S
H846 C852 0.950 . S
H847 C853 0.950 . S
H848 C854 0.949 . S
C849 H844 0.950 . S
C849 C851 1.327 . S
C849 C855 1.429 . S
C850 C842 1.574 . S
C850 H845 0.949 . S
C850 C856 1.368 . S
C851 C835 1.349 . S
C851 H843 0.948 . S
C851 C849 1.327 . S
C852 C840 1.349 . S
C852 H846 0.950 . S
C852 C853 1.327 . S
C853 H847 0.950 . S
C853 C852 1.327 . S
C853 C857 1.429 . S
C854 C837 1.574 . S
C854 H848 0.949 . S
C854 C858 1.368 . S
C855 C836 1.429 . S
C855 C849 1.429 . S
C855 C856 1.523 . S
C856 C837 1.368 . S
C856 C850 1.368 . S
C856 C855 1.523 . S
C857 C841 1.429 . S
C857 C853 1.429 . S
C857 C858 1.523 . S
C858 C842 1.368 . S
C858 C854 1.368 . S
C858 C857 1.523 . S
H859 C834 0.950 . S
H860 C836 0.950 . S
H861 C837 0.949 . S
H862 C839 0.950 . S
H863 C841 0.950 . S
C265 C149 1.344 . S
C270 C17 1.344 . S
C295 C50 1.344 . S
C300 C182 1.344 . S
C325 C83 1.344 . S
C330 C215 1.344 . S
C355 C116 1.344 . S
C360 C248 1.344 . S
C385 N179 0.680 . S
C390 N14 0.680 . S
C415 N47 0.680 . S
C420 N212 0.680 . S
C445 N245 0.680 . S
C450 N80 0.680 . S
C475 N113 0.680 . S
C480 N146 0.680 . S
C505 N5 1.028 . S
C510 N203 1.028 . S
C535 N236 1.028 . S
C540 N38 1.028 . S
C565 N71 1.028 . S
C570 N137 1.028 . S
C595 N170 1.028 . S
C600 N104 1.028 . S
C625 C28 1.917 . S
C630 C107 1.930 1_544 S
C655 C8 1.930 1_655 S
C660 C61 1.917 . S
C685 C41 1.930 1_565 S
C690 C94 1.917 . S
C715 C74 1.930 1_455 S
C720 C127 1.917 . S
C745 C160 1.917 . S
C750 C173 1.930 1_565 S
C775 C193 1.917 . S
C780 C206 1.930 1_455 S
C805 C226 1.917 . S
C810 C239 1.930 1_546 S
C835 C140 1.930 1_655 S
C840 C259 1.917 . S
