# Generated by pormake.
# Topology qdl, (4)-cn, num edge types: 1
# Building blocks:
#     Node 0, Type 0, BuildingBlock: KOZSID_clean_sbu_0, # of connection points: 4
#     Node 1, Type 0, BuildingBlock: KOZSID_clean_sbu_0, # of connection points: 4
#     Node 2, Type 0, BuildingBlock: KOZSID_clean_sbu_0, # of connection points: 4
#     Node 3, Type 0, BuildingBlock: KOZSID_clean_sbu_0, # of connection points: 4
#     Node 4, Type 0, BuildingBlock: KOZSID_clean_sbu_0, # of connection points: 4
#     Node 5, Type 0, BuildingBlock: KOZSID_clean_sbu_0, # of connection points: 4
#     Edge 6, Type (0, 0), BuildingBlock: MIFKUJ_clean_linker_0, # of connection points: 2
#     Edge 7, Type (0, 0), BuildingBlock: MIFKUJ_clean_linker_0, # of connection points: 2
#     Edge 8, Type (0, 0), BuildingBlock: MIFKUJ_clean_linker_0, # of connection points: 2
#     Edge 9, Type (0, 0), BuildingBlock: MIFKUJ_clean_linker_0, # of connection points: 2
#     Edge 10, Type (0, 0), BuildingBlock: MIFKUJ_clean_linker_0, # of connection points: 2
#     Edge 11, Type (0, 0), BuildingBlock: MIFKUJ_clean_linker_0, # of connection points: 2
#     Edge 12, Type (0, 0), BuildingBlock: MIFKUJ_clean_linker_0, # of connection points: 2
#     Edge 13, Type (0, 0), BuildingBlock: MIFKUJ_clean_linker_0, # of connection points: 2
#     Edge 14, Type (0, 0), BuildingBlock: MIFKUJ_clean_linker_0, # of connection points: 2
#     Edge 15, Type (0, 0), BuildingBlock: MIFKUJ_clean_linker_0, # of connection points: 2
#     Edge 16, Type (0, 0), BuildingBlock: MIFKUJ_clean_linker_0, # of connection points: 2
#     Edge 17, Type (0, 0), BuildingBlock: MIFKUJ_clean_linker_0, # of connection points: 2
# Relax obj value: 0.000
# Max RMSD: 0.050
# Mean RMSD: 0.047
data_MOF--net-qdl--node1-KOZSID_clean_sbu_0--edge1-MIFKUJ_clean_linker_0
_symmetry_space_group_name_H-M    P1
_symmetry_Int_Tables_number       1
_symmetry_cell_setting            triclinic
loop_
_symmetry_equiv_pos_as_xyz
'x, y, z'
_cell_length_a     21.149032
_cell_length_b     21.186365
_cell_length_c     143.71081
_cell_angle_alpha  101.65839
_cell_angle_beta   101.64124
_cell_angle_gamma 120.05147
loop_
_atom_site_label
_atom_site_type_symbol
_atom_site_fract_x
_atom_site_fract_y
_atom_site_fract_z
_atom_type_partial_charge
C0 C 0.26565 0.47002 0.09872 0.0
C1 C 0.19265 0.45814 0.09632 0.0
C2 C 0.13875 0.37941 0.09284 0.0
C3 C 0.18172 0.34789 0.09326 0.0
N4 N 0.25996 0.40175 0.09698 0.0
Co5 Co 0.34392 0.38162 0.09818 0.0
N6 N 0.26443 0.26572 0.09248 0.0
C7 C 0.18572 0.22745 0.08946 0.0
C8 C 0.14674 0.14781 0.08626 0.0
C9 C 0.20399 0.13432 0.0875 0.0
C10 C 0.2748 0.20692 0.09142 0.0
N11 N 0.42778 0.36157 0.09912 0.0
C12 C 0.42226 0.29335 0.0972 0.0
C13 C 0.49512 0.30529 0.09902 0.0
C14 C 0.5487 0.38397 0.1023 0.0
C15 C 0.50574 0.41546 0.10231 0.0
N16 N 0.4235 0.49744 0.10416 0.0
C17 C 0.50225 0.53556 0.10764 0.0
C18 C 0.54144 0.61527 0.11128 0.0
C19 C 0.48432 0.62897 0.10993 0.0
C20 C 0.4134 0.55643 0.10547 0.0
N21 N 0.34873 0.37968 0.11212 0.0
C22 C 0.35451 0.37005 0.13161 0.0
C23 C 0.42288 0.40851 0.12944 0.0
C24 C 0.41872 0.41267 0.11975 0.0
C25 C 0.28333 0.33765 0.12386 0.0
C26 C 0.28181 0.34312 0.11429 0.0
N27 N 0.33903 0.38343 0.08424 0.0
C28 C 0.40219 0.43561 0.07275 0.0
C29 C 0.33106 0.3888 0.06455 0.0
C30 C 0.26413 0.33912 0.06638 0.0
C31 C 0.2693 0.33768 0.07618 0.0
C32 C 0.40494 0.43164 0.08242 0.0
H33 H 0.21579 0.29943 0.07704 0.0
H34 H 0.46106 0.46833 0.08831 0.0
H35 H 0.47291 0.44207 0.11859 0.0
H36 H 0.22558 0.31674 0.10875 0.0
C37 C 0.15031 0.26808 0.08992 0.0
C38 C 0.3384 0.5467 0.10207 0.0
C39 C 0.35022 0.21699 0.09439 0.0
C40 C 0.53737 0.4951 0.10638 0.0
H41 H 0.17958 0.50172 0.09682 0.0
H42 H 0.07572 0.34873 0.09008 0.0
H43 H 0.08424 0.10479 0.08354 0.0
H44 H 0.19485 0.07758 0.08589 0.0
H45 H 0.50851 0.26191 0.09837 0.0
H46 H 0.61171 0.41473 0.10481 0.0
H47 H 0.60403 0.65828 0.1142 0.0
H48 H 0.49367 0.68584 0.11173 0.0
H49 H 0.47957 0.43401 0.13511 0.0
H50 H 0.22867 0.30844 0.12517 0.0
H51 H 0.45587 0.4745 0.07169 0.0
H52 H 0.20746 0.30235 0.0603 0.0
C53 C 0.36418 0.18099 0.42844 0.0
C54 C 0.43701 0.25167 0.43231 0.0
C55 C 0.42394 0.30799 0.43166 0.0
C56 C 0.34421 0.26897 0.42749 0.0
N57 N 0.30608 0.19167 0.42565 0.0
Co58 Co 0.19094 0.11445 0.41939 0.0
N59 N 0.17166 0.19783 0.42192 0.0
C60 C 0.2238 0.27406 0.42392 0.0
C61 C 0.19346 0.31765 0.42558 0.0
C62 C 0.11753 0.26542 0.42456 0.0
C63 C 0.10588 0.19271 0.42231 0.0
N64 N 0.07598 0.03796 0.41308 0.0
C65 C 0.01839 0.04647 0.41421 0.0
C66 C 0.94524 0.97812 0.40852 0.0
C67 C 0.95804 0.92496 0.40372 0.0
C68 C 0.03796 0.96381 0.40672 0.0
N69 N 0.20944 0.03036 0.41683 0.0
C70 C 0.15684 0.95622 0.4103 0.0
C71 C 0.18629 0.91134 0.40983 0.0
C72 C 0.26259 0.96053 0.41632 0.0
C73 C 0.27559 0.03311 0.4204 0.0
N74 N 0.18625 0.10743 0.43266 0.0
C75 C 0.17044 0.09857 0.45141 0.0
C76 C 0.13305 0.03075 0.44279 0.0
C77 C 0.14177 0.03643 0.43353 0.0
C78 C 0.21726 0.17081 0.45043 0.0
C79 C 0.22453 0.17392 0.44104 0.0
N80 N 0.19557 0.12182 0.40609 0.0
C81 C 0.25726 0.12627 0.39362 0.0
C82 C 0.20685 0.13794 0.38738 0.0
C83 C 0.1495 0.13988 0.39071 0.0
C84 C 0.14446 0.13108 0.4 0.0
C85 C 0.25118 0.11918 0.4029 0.0
H86 H 0.09966 0.13269 0.40232 0.0
H87 H 0.2921 0.11187 0.40749 0.0
H88 H 0.11148 0.9833 0.42704 0.0
H89 H 0.25991 0.23046 0.44053 0.0
C90 C 0.30314 0.30375 0.42622 0.0
C91 C 0.35377 0.10486 0.42631 0.0
C92 C 0.03149 0.11943 0.4202 0.0
C93 C 0.07874 0.92915 0.40553 0.0
H94 H 0.49379 0.26117 0.43504 0.0
H95 H 0.46738 0.37006 0.43403 0.0
H96 H 0.22398 0.3804 0.42782 0.0
H97 H 0.07596 0.27942 0.42548 0.0
H98 H 0.88876 0.9677 0.40797 0.0
H99 H 0.91438 0.86417 0.39905 0.0
H100 H 0.1559 0.85009 0.40535 0.0
H101 H 0.30467 0.94542 0.41761 0.0
H102 H 0.0973 0.97347 0.44318 0.0
H103 H 0.24668 0.225 0.45679 0.0
H104 H 0.30132 0.12214 0.39138 0.0
H105 H 0.10945 0.14952 0.38629 0.0
C106 C 0.20173 0.41438 0.7578 0.0
C107 C 0.201 0.48044 0.75859 0.0
C108 C 0.12524 0.45704 0.75665 0.0
C109 C 0.08414 0.37844 0.75477 0.0
N110 N 0.12917 0.3502 0.7555 0.0
Co111 Co 0.09297 0.23877 0.75307 0.0
N112 N 0.98082 0.20343 0.74919 0.0
C113 C 0.95243 0.24744 0.74824 0.0
C114 C 0.87275 0.20678 0.74553 0.0
C115 C 0.84887 0.13253 0.74485 0.0
C116 C 0.91576 0.13247 0.74724 0.0
N117 N 0.05687 0.12768 0.75098 0.0
C118 C 0.98479 0.06453 0.74917 0.0
C119 C 0.98592 0.99938 0.74905 0.0
C120 C 0.0615 0.02229 0.75093 0.0
C121 C 0.1021 0.09983 0.75215 0.0
N122 N 0.20497 0.27375 0.75664 0.0
C123 C 0.23282 0.22863 0.75685 0.0
C124 C 0.31205 0.26862 0.75912 0.0
C125 C 0.33618 0.34357 0.76024 0.0
C126 C 0.2699 0.34478 0.75856 0.0
N127 N 0.1024 0.25642 0.76758 0.0
C128 C 0.10979 0.27454 0.7879 0.0
C129 C 0.1462 0.24338 0.78357 0.0
C130 C 0.14206 0.23518 0.77352 0.0
C131 C 0.07058 0.2976 0.78191 0.0
C132 C 0.06752 0.28801 0.77186 0.0
N133 N 0.08365 0.22107 0.73853 0.0
C134 C 0.10082 0.16427 0.72363 0.0
C135 C 0.07904 0.2027 0.71824 0.0
C136 C 0.05817 0.24939 0.7232 0.0
C137 C 0.06014 0.25707 0.73319 0.0
C138 C 0.1032 0.17457 0.73365 0.0
H139 H 0.04325 0.2933 0.73645 0.0
H140 H 0.12164 0.14455 0.7373 0.0
H141 H 0.17111 0.21104 0.77071 0.0
H142 H 0.03587 0.30579 0.76766 0.0
C143 C 1.00268 0.32828 0.75113 0.0
C144 C 0.27136 0.41418 0.7585 0.0
C145 C 0.91496 0.06485 0.74811 0.0
C146 C 0.18297 0.14872 0.75477 0.0
H147 H 0.24954 0.539 0.76005 0.0
H148 H 0.10236 0.49245 0.75619 0.0
H149 H 0.83672 0.22922 0.7446 0.0
H150 H 0.78932 0.08438 0.7431 0.0
H151 H 0.93762 0.94171 0.74797 0.0
H152 H 0.08448 0.98718 0.75161 0.0
H153 H 0.34779 0.24573 0.75972 0.0
H154 H 0.39561 0.39172 0.76193 0.0
H155 H 0.17852 0.22587 0.78793 0.0
H156 H 0.04088 0.32155 0.78487 0.0
H157 H 0.11581 0.12584 0.72015 0.0
H158 H 0.04165 0.28141 0.71951 0.0
C159 C 0.97145 0.17443 0.57891 0.0
C160 C 0.98159 0.24643 0.58204 0.0
C161 C 0.05861 0.30007 0.58808 0.0
C162 C 0.09132 0.25825 0.58827 0.0
N163 N 0.03999 0.18172 0.58258 0.0
Co164 Co 0.06321 0.10104 0.58121 0.0
N165 N 0.17767 0.18131 0.58667 0.0
C166 C 0.21422 0.25747 0.59209 0.0
C167 C 0.29397 0.29857 0.5946 0.0
C168 C 0.30824 0.24474 0.5905 0.0
C169 C 0.23608 0.17369 0.5857 0.0
N170 N 0.08713 0.02108 0.57999 0.0
C171 C 0.15339 0.0272 0.57966 0.0
C172 C 0.14575 0.95692 0.5786 0.0
C173 C 0.07165 0.90505 0.57824 0.0
C174 C 0.03845 0.94651 0.57909 0.0
N175 N 0.94864 0.02004 0.57567 0.0
C176 C 0.91418 0.94479 0.5749 0.0
C177 C 0.83404 0.90256 0.57104 0.0
C178 C 0.81684 0.95469 0.56945 0.0
C179 C 0.88779 0.02624 0.57246 0.0
N180 N 0.062 0.09696 0.56741 0.0
C181 C 0.07174 0.0921 0.54809 0.0
C182 C 0.02915 0.02311 0.55001 0.0
C183 C 0.025 0.02681 0.55969 0.0
C184 C 0.10744 0.16347 0.55602 0.0
C185 C 0.10174 0.16461 0.56556 0.0
N186 N 0.06494 0.10552 0.59507 0.0
C187 C 1.00715 0.10871 0.60785 0.0
C188 C 0.06996 0.11914 0.61519 0.0
C189 C 0.12947 0.12069 0.61206 0.0
C190 C 0.12534 0.11282 0.60199 0.0
C191 C 1.00635 0.1032 0.59798 0.0
H192 H 0.17178 0.11382 0.59984 0.0
H193 H 0.95812 0.09753 0.59274 0.0
H194 H 0.99321 0.97281 0.56098 0.0
H195 H 0.13082 0.22049 0.57151 0.0
C196 C 0.17102 0.28989 0.5928 0.0
C197 C 0.89437 0.10008 0.57364 0.0
C198 C 0.22474 0.0994 0.58071 0.0
C199 C 0.95875 0.9144 0.57694 0.0
H200 H 0.93733 0.25848 0.58039 0.0
H201 H 0.08739 0.36223 0.59179 0.0
H202 H 0.3363 0.36085 0.59849 0.0
H203 H 0.365 0.25649 0.59092 0.0
H204 H 0.18884 0.94434 0.57806 0.0
H205 H 0.044 0.84348 0.57693 0.0
H206 H 0.79297 0.84114 0.56951 0.0
H207 H 0.7587 0.94216 0.56673 0.0
H208 H 1.00095 0.96653 0.54417 0.0
H209 H 0.13973 0.21835 0.55487 0.0
H210 H 0.9582 0.10455 0.60963 0.0
H211 H 0.17995 0.12941 0.61735 0.0
C212 C 0.04253 0.27285 0.92377 0.0
C213 C 0.98 0.27913 0.9235 0.0
C214 C 1.00814 0.35594 0.92543 0.0
C215 C 0.08582 0.39187 0.92675 0.0
N216 N 0.10882 0.3425 0.92559 0.0
Co217 Co 0.21725 0.37027 0.92736 0.0
N218 N 0.25986 0.48412 0.93092 0.0
C219 C 0.21939 0.51716 0.93139 0.0
C220 C 0.26369 0.59604 0.93348 0.0
C221 C 0.33666 0.61451 0.93422 0.0
C222 C 0.3326 0.54545 0.93258 0.0
N223 N 0.32595 0.3982 0.92934 0.0
C224 C 0.39253 0.46797 0.9313 0.0
C225 C 0.45571 0.46218 0.93201 0.0
C226 C 0.42773 0.38553 0.93024 0.0
C227 C 0.3495 0.34921 0.92859 0.0
N228 N 0.17438 0.25624 0.9236 0.0
C229 C 0.21437 0.22294 0.92276 0.0
C230 C 0.1695 0.14364 0.92033 0.0
C231 C 0.09665 0.12515 0.91969 0.0
C232 C 0.10134 0.19463 0.92176 0.0
N233 N 0.19818 0.35867 0.91276 0.0
C234 C 0.17516 0.3453 0.89216 0.0
C235 C 0.21331 0.3159 0.8969 0.0
C236 C 0.224 0.32306 0.90707 0.0
C237 C 0.1485 0.38137 0.89796 0.0
C238 C 0.16043 0.38728 0.90813 0.0
N239 N 0.23626 0.38169 0.94197 0.0
C240 C 0.27261 0.34619 0.95614 0.0
C241 C 0.25572 0.39089 0.96237 0.0
C242 C 0.23029 0.43215 0.95826 0.0
C243 C 0.22062 0.42643 0.94812 0.0
C244 C 0.26314 0.3429 0.9461 0.0
H245 H 0.19951 0.45802 0.94539 0.0
H246 H 0.27744 0.30803 0.94183 0.0
H247 H 0.25399 0.29984 0.91018 0.0
H248 H 0.13874 0.41546 0.9121 0.0
C249 C 0.13913 0.47202 0.92943 0.0
C250 C 0.03663 0.20005 0.92263 0.0
C251 C 0.39797 0.54018 0.93206 0.0
C252 C 0.29548 0.26855 0.92534 0.0
H253 H 0.92056 0.23309 0.92222 0.0
H254 H 0.97621 0.38268 0.92603 0.0
H255 H 0.24468 0.63509 0.93411 0.0
H256 H 0.3866 0.67199 0.93556 0.0
H257 H 0.51539 0.50832 0.9334 0.0
H258 H 0.45996 0.35898 0.92982 0.0
H259 H 0.18826 0.1044 0.91954 0.0
H260 H 0.04653 0.06739 0.9182 0.0
H261 H 0.23624 0.28848 0.89283 0.0
H262 H 0.11772 0.40431 0.89464 0.0
H263 H 0.29371 0.31414 0.95902 0.0
H264 H 0.21607 0.4673 0.96277 0.0
C265 C 0.24302 0.08137 0.25201 0.0
C266 C 0.17152 1.01022 0.24668 0.0
C267 C 0.11646 0.02637 0.24466 0.0
C268 C 0.15722 0.10603 0.24885 0.0
N269 N 0.23523 0.14193 0.25334 0.0
Co270 Co 0.31629 0.25694 0.26056 0.0
N271 N 0.23432 0.27977 0.25849 0.0
C272 C 0.15587 0.22743 0.25424 0.0
C273 C 0.11476 0.26097 0.25387 0.0
C274 C 0.17027 0.33947 0.25802 0.0
C275 C 0.24226 0.34914 0.26064 0.0
N276 N 0.39754 0.37216 0.26752 0.0
C277 C 0.38982 0.43268 0.26857 0.0
C278 C 0.46168 0.50415 0.27336 0.0
C279 C 0.51695 0.48825 0.27533 0.0
C280 C 0.4759 0.40843 0.2716 0.0
N281 N 0.39807 0.23391 0.26288 0.0
C282 C 0.47623 0.28596 0.26766 0.0
C283 C 0.51713 0.25233 0.26839 0.0
C284 C 0.46169 0.17394 0.26397 0.0
C285 C 0.38996 0.16445 0.26082 0.0
N286 N 0.32622 0.26695 0.24735 0.0
C287 C 0.33964 0.28453 0.22868 0.0
C288 C 0.40579 0.31407 0.23715 0.0
C289 C 0.39782 0.30466 0.24631 0.0
C290 C 0.26671 0.24577 0.22975 0.0
C291 C 0.26139 0.23767 0.23903 0.0
N292 N 0.30615 0.24693 0.27379 0.0
C293 C 0.36401 0.28216 0.29196 0.0
C294 C 0.29119 0.23106 0.2925 0.0
C295 C 0.2262 0.188 0.28344 0.0
C296 C 0.23479 0.19711 0.27431 0.0
C297 C 0.37015 0.28872 0.28262 0.0
H298 H 0.18268 0.16267 0.26777 0.0
H299 H 0.42743 0.32803 0.28276 0.0
H300 H 0.45052 0.32868 0.25246 0.0
H301 H 0.20409 0.20804 0.23931 0.0
C302 C 0.12317 0.1479 0.24969 0.0
C303 C 0.31572 0.08827 0.25628 0.0
C304 C 0.31639 0.4252 0.26463 0.0
C305 C 0.50931 0.36595 0.27153 0.0
H306 H 0.15989 0.95243 0.24475 0.0
H307 H 0.05381 0.98477 0.24096 0.0
H308 H 0.05206 0.23189 0.25061 0.0
H309 H 0.15925 0.38462 0.25878 0.0
H310 H 0.47324 0.56186 0.27506 0.0
H311 H 0.5797 0.52993 0.27884 0.0
H312 H 0.57966 0.28131 0.27187 0.0
H313 H 0.47258 0.12872 0.2633 0.0
H314 H 0.46364 0.34375 0.23672 0.0
H315 H 0.21362 0.22277 0.2235 0.0
H316 H 0.41636 0.31788 0.29872 0.0
H317 H 0.16853 0.14628 0.2833 0.0
H318 H 0.38207 0.13035 0.08196 0.0
H319 H 0.38213 1.0167 0.08337 0.0
H320 H 0.32284 0.04015 0.11034 0.0
H321 H 0.32443 0.15464 0.10901 0.0
H322 H 0.43324 1.00978 0.11267 0.0
H323 H 0.18498 0.90597 0.08751 0.0
H324 H 0.09716 0.89084 0.07178 0.0
H325 H 0.19805 0.80579 0.05411 0.0
H326 H 0.28756 0.8218 0.06976 0.0
H327 H 0.30597 0.6334 0.11436 0.0
H328 H 0.30819 0.74829 0.11302 0.0
H329 H 0.37143 0.72607 0.08637 0.0
H330 H 0.36811 0.61069 0.08767 0.0
H331 H 0.25961 0.75593 0.08386 0.0
H332 H 0.50733 0.85902 0.10907 0.0
H333 H 0.59482 0.87401 0.12481 0.0
H334 H 0.49437 0.96011 0.14244 0.0
H335 H 0.4052 0.94425 0.12677 0.0
C336 C 0.36975 0.11121 0.08821 0.0
C337 C 0.35346 0.15049 0.0954 0.0
C338 C 0.36938 0.04639 0.08899 0.0
C339 C 0.35165 0.01956 0.0969 0.0
C340 C 0.33667 0.05992 0.10419 0.0
C341 C 0.33733 0.12485 0.10342 0.0
C342 C 0.34725 0.94856 0.09749 0.0
C343 C 0.3946 0.95403 0.10642 0.0
C344 C 0.29789 0.87628 0.08925 0.0
C345 C 0.24353 0.86583 0.07982 0.0
C346 C 0.18888 0.88461 0.08028 0.0
C347 C 0.13875 0.87582 0.07137 0.0
C348 C 0.14214 0.84753 0.06195 0.0
C349 C 0.19557 0.82781 0.06141 0.0
C350 C 0.24601 0.83672 0.0703 0.0
C351 C 0.31977 0.65317 0.10821 0.0
C352 C 0.33668 0.61401 0.10109 0.0
C353 C 0.32141 0.71865 0.10746 0.0
C354 C 0.34071 0.74602 0.09965 0.0
C355 C 0.35639 0.70584 0.09245 0.0
C356 C 0.3547 0.6404 0.09319 0.0
C357 C 0.34555 0.81715 0.09904 0.0
C358 C 0.29828 0.81169 0.09011 0.0
C359 C 0.39491 0.88941 0.10728 0.0
C360 C 0.44902 0.89969 0.11673 0.0
C361 C 0.50344 0.88055 0.11629 0.0
C362 C 0.55339 0.88927 0.1252 0.0
C363 C 0.55004 0.91783 0.13462 0.0
C364 C 0.49683 0.93789 0.13514 0.0
C365 C 0.44657 0.92906 0.12624 0.0
H366 H 0.58879 0.92458 0.14151 0.0
H367 H 0.10326 0.84074 0.05507 0.0
H368 H 0.43499 0.0731 0.43983 0.0
H369 H 0.54963 0.07006 0.43959 0.0
H370 H 0.54102 0.12829 0.41246 0.0
H371 H 0.42644 0.13012 0.41266 0.0
H372 H 0.56555 1.01549 0.41068 0.0
H373 H 0.67277 0.26498 0.43606 0.0
H374 H 0.68722 0.3525 0.45174 0.0
H375 H 0.75949 0.24306 0.46931 0.0
H376 H 0.74426 0.154 0.45369 0.0
H377 H 0.94109 0.15288 0.40884 0.0
H378 H 0.82549 0.14637 0.41076 0.0
H379 H 0.85398 0.07715 0.43673 0.0
H380 H 0.97032 0.08435 0.43481 0.0
H381 H 0.81739 0.18632 0.4399 0.0
H382 H 0.71955 0.94329 0.41449 0.0
H383 H 0.70742 0.85834 0.39876 0.0
H384 H 0.61789 0.95649 0.38117 0.0
H385 H 0.63095 0.04322 0.39683 0.0
C386 C 0.45799 0.08516 0.43385 0.0
C387 C 0.42287 0.10242 0.42631 0.0
C388 C 0.52335 0.08365 0.43371 0.0
C389 C 0.5545 0.09967 0.42605 0.0
C390 C 0.51821 0.1157 0.41844 0.0
C391 C 0.4531 0.1171 0.41858 0.0
C392 C 0.62516 0.10056 0.4259 0.0
C393 C 0.62073 0.05333 0.41705 0.0
C394 C 0.6968 0.14839 0.43429 0.0
C395 C 0.70653 0.20226 0.44369 0.0
C396 C 0.69115 0.25917 0.44325 0.0
C397 C 0.69956 0.30911 0.45213 0.0
C398 C 0.72405 0.3032 0.46151 0.0
C399 C 0.74038 0.24747 0.46203 0.0
C400 C 0.73189 0.19726 0.45317 0.0
C401 C 0.92285 0.13709 0.415 0.0
C402 C 0.96434 0.11973 0.42173 0.0
C403 C 0.85679 0.13296 0.41607 0.0
C404 C 0.83065 0.11062 0.42384 0.0
C405 C 0.87312 0.09458 0.43069 0.0
C406 C 0.93923 0.09855 0.4296 0.0
C407 C 0.75797 0.10239 0.42461 0.0
C408 C 0.76199 0.14801 0.43358 0.0
C409 C 0.68589 0.05318 0.41631 0.0
C410 C 0.67682 1.00023 0.40685 0.0
C411 C 0.69779 0.94718 0.40728 0.0
C412 C 0.69071 0.89867 0.39838 0.0
C413 C 0.66201 0.90209 0.38897 0.0
C414 C 0.64017 0.95394 0.38846 0.0
C415 C 0.64737 1.00278 0.39735 0.0
H416 H 0.65656 0.86448 0.38209 0.0
H417 H 0.73056 0.34194 0.46838 0.0
H418 H 0.86595 0.06574 0.76412 0.0
H419 H 0.75438 0.95647 0.76597 0.0
H420 H 0.69751 0.80861 0.73585 0.0
H421 H 0.80841 0.91867 0.73396 0.0
H422 H 0.5672 0.78619 0.73935 0.0
H423 H 0.79701 0.80066 0.75664 0.0
H424 H 0.93067 0.86786 0.76895 0.0
H425 H 0.85498 0.91456 0.7935 0.0
H426 H 0.72105 0.8487 0.78131 0.0
H427 H 0.3197 0.41881 0.74244 0.0
H428 H 0.4304 0.53069 0.74088 0.0
H429 H 0.48766 0.67157 0.77149 0.0
H430 H 0.37794 0.55862 0.7731 0.0
H431 H 0.61737 0.69968 0.76798 0.0
H432 H 0.38816 0.68468 0.75101 0.0
H433 H 0.25439 0.61974 0.73888 0.0
H434 H 0.32815 0.57673 0.71397 0.0
H435 H 0.46217 0.6403 0.72597 0.0
C436 C 0.82903 1.00987 0.7579 0.0
C437 C 0.84545 0.99959 0.74896 0.0
C438 C 0.76574 0.94763 0.75896 0.0
C439 C 0.71844 0.87414 0.7511 0.0
C440 C 0.73346 0.86475 0.74201 0.0
C441 C 0.79666 0.92716 0.74095 0.0
C442 C 0.65476 0.80648 0.75247 0.0
C443 C 0.57822 0.76664 0.74553 0.0
C444 C 0.66905 0.78229 0.76069 0.0
C445 C 0.74915 0.82032 0.76805 0.0
C446 C 0.80895 0.82562 0.76466 0.0
C447 C 0.88476 0.86346 0.77162 0.0
C448 C 0.90134 0.8956 0.782 0.0
C449 C 0.84206 0.8897 0.78545 0.0
C450 C 0.76617 0.85207 0.77852 0.0
C451 C 0.35654 0.47368 0.74883 0.0
C452 C 0.34058 0.48109 0.75784 0.0
C453 C 0.41929 0.53749 0.74793 0.0
C454 C 0.46639 0.60987 0.75601 0.0
C455 C 0.45184 0.6164 0.76515 0.0
C456 C 0.38931 0.55232 0.76607 0.0
C457 C 0.52974 0.67903 0.75482 0.0
C458 C 0.60624 0.71922 0.7618 0.0
C459 C 0.51535 0.70378 0.74666 0.0
C460 C 0.43509 0.66669 0.7394 0.0
C461 C 0.37577 0.66096 0.74295 0.0
C462 C 0.2999 0.62442 0.7361 0.0
C463 C 0.28275 0.59399 0.72566 0.0
C464 C 0.34151 0.60026 0.72206 0.0
C465 C 0.41746 0.6366 0.72888 0.0
H466 H 0.22396 0.56568 0.72037 0.0
H467 H 0.96009 0.92496 0.78737 0.0
H468 H 0.33899 0.10773 0.59467 0.0
H469 H 0.45096 0.10768 0.59242 0.0
H470 H 0.37208 0.08819 0.56119 0.0
H471 H 0.25932 0.08736 0.56347 0.0
H472 H 0.42147 0.99229 0.56308 0.0
H473 H 0.52017 0.26107 0.57893 0.0
H474 H 0.54243 0.37342 0.59186 0.0
H475 H 0.67175 0.34007 0.61522 0.0
H476 H 0.64899 0.22652 0.60246 0.0
H477 H 0.78582 0.08535 0.55765 0.0
H478 H 0.67013 0.08654 0.55782 0.0
H479 H 0.73033 0.11571 0.58964 0.0
H480 H 0.84583 0.11565 0.58946 0.0
H481 H 0.68992 0.21155 0.58629 0.0
H482 H 0.58488 0.9391 0.5709 0.0
H483 H 0.56069 0.82426 0.55824 0.0
H484 H 0.44295 0.86292 0.53429 0.0
H485 H 0.46763 0.97889 0.5468 0.0
C486 C 0.34587 0.10336 0.58734 0.0
C487 C 0.29157 0.09813 0.57925 0.0
C488 C 0.40968 0.10349 0.58605 0.0
C489 C 0.42052 0.09895 0.57666 0.0
C490 C 0.36502 0.09194 0.5685 0.0
C491 C 0.30103 0.09177 0.5698 0.0
C492 C 0.49061 0.10294 0.57549 0.0
C493 C 0.48026 0.04082 0.56804 0.0
C494 C 0.5673 0.16567 0.58206 0.0
C495 C 0.58236 0.23488 0.58974 0.0
C496 C 0.55295 0.27737 0.58684 0.0
C497 C 0.56566 0.34129 0.59414 0.0
C498 C 0.60838 0.3638 0.60436 0.0
C499 C 0.63863 0.32253 0.6073 0.0
C500 C 0.62588 0.25841 0.60003 0.0
C501 C 0.77389 0.09205 0.56464 0.0
C502 C 0.82412 0.10048 0.57354 0.0
C503 C 0.70793 0.09248 0.56474 0.0
C504 C 0.69116 0.10074 0.57374 0.0
C505 C 0.74201 0.10952 0.58263 0.0
C506 C 0.80771 0.10921 0.58252 0.0
C507 C 0.62089 0.10027 0.574 0.0
C508 C 0.63122 0.16325 0.58127 0.0
C509 C 0.54427 0.03821 0.56728 0.0
C510 C 0.52888 0.96819 0.55977 0.0
C511 C 0.55439 0.9235 0.56292 0.0
C512 C 0.54052 0.85815 0.55578 0.0
C513 C 0.50048 0.83642 0.54547 0.0
C514 C 0.47407 0.87991 0.54228 0.0
C515 C 0.48798 0.94545 0.54939 0.0
H516 H 0.48977 0.78578 0.53995 0.0
H517 H 0.61814 0.41329 0.61 0.0
H518 H 0.51698 0.67666 0.94724 0.0
H519 H 0.62721 0.7891 0.94564 0.0
H520 H 0.54292 0.66299 0.91343 0.0
H521 H 0.43319 0.55049 0.9151 0.0
H522 H 0.70155 0.7424 0.92203 0.0
H523 H 0.50536 0.79463 0.92175 0.0
H524 H 0.41219 0.80812 0.92836 0.0
H525 H 0.60147 0.99396 0.95549 0.0
H526 H 0.69572 0.98053 0.94913 0.0
H527 H 0.91693 0.06419 0.90739 0.0
H528 H 0.80647 0.95165 0.90895 0.0
H529 H 0.89243 0.07586 0.94124 0.0
H530 H 1.00254 0.18835 0.93964 0.0
H531 H 0.7327 0.99744 0.93254 0.0
H532 H 0.92874 0.94447 0.93276 0.0
H533 H 0.02153 0.93117 0.92603 0.0
H534 H 0.83171 0.74661 0.89885 0.0
H535 H 0.73784 0.75988 0.90534 0.0
C536 C 0.52279 0.67326 0.93987 0.0
C537 C 0.46715 0.60605 0.93127 0.0
C538 C 0.58526 0.73718 0.93894 0.0
C539 C 0.59252 0.73463 0.92938 0.0
C540 C 0.53823 0.66614 0.92086 0.0
C541 C 0.47577 0.60225 0.92179 0.0
C542 C 0.65519 0.80427 0.92822 0.0
C543 C 0.70784 0.79792 0.92421 0.0
C544 C 0.66398 0.87695 0.93123 0.0
C545 C 0.60755 0.88606 0.935 0.0
C546 C 0.5271 0.83801 0.92916 0.0
C547 C 0.47408 0.84566 0.93286 0.0
C548 C 0.50088 0.90176 0.94235 0.0
C549 C 0.5808 0.95046 0.94815 0.0
C550 C 0.63405 0.94286 0.9445 0.0
C551 C 0.91154 0.0671 0.91478 0.0
C552 C 0.96778 0.13375 0.92342 0.0
C553 C 0.84888 1.00317 0.91568 0.0
C554 C 0.84194 1.00522 0.92524 0.0
C555 C 0.89687 0.07314 0.93381 0.0
C556 C 0.95957 0.13699 0.93291 0.0
C557 C 0.77905 0.93555 0.92636 0.0
C558 C 0.72637 0.94189 0.93036 0.0
C559 C 0.77015 0.86284 0.92333 0.0
C560 C 0.82632 0.85367 0.9195 0.0
C561 C 0.90681 0.9014 0.92532 0.0
C562 C 0.95961 0.89385 0.92155 0.0
C563 C 0.93255 0.83818 0.91201 0.0
C564 C 0.85259 0.78978 0.90623 0.0
C565 C 0.79956 0.79728 0.90995 0.0
H566 H 0.97352 0.83243 0.9091 0.0
H567 H 0.45975 0.9076 0.9452 0.0
H568 H 0.34283 0.54524 0.27985 0.0
H569 H 0.3431 0.65893 0.27838 0.0
H570 H 0.29044 0.57117 0.24603 0.0
H571 H 0.29144 0.45827 0.24758 0.0
H572 H 0.40385 0.72654 0.25456 0.0
H573 H 0.14937 0.55062 0.25513 0.0
H574 H 0.05654 0.46541 0.26207 0.0
H575 H 0.15363 0.66128 0.28934 0.0
H576 H 0.24803 0.74747 0.28263 0.0
H577 H 0.29137 0.96968 0.24101 0.0
H578 H 0.29076 0.85562 0.24237 0.0
H579 H 0.33775 0.93927 0.2746 0.0
H580 H 0.33664 0.05224 0.27316 0.0
H581 H 0.22708 0.78561 0.26608 0.0
H582 H 0.48151 0.96166 0.26567 0.0
H583 H 0.57588 0.04739 0.25894 0.0
H584 H 0.48079 0.85245 0.23164 0.0
H585 H 0.38486 0.76573 0.23814 0.0
C586 C 0.33158 0.55084 0.27247 0.0
C587 C 0.31721 0.494 0.26382 0.0
C588 C 0.33145 0.61525 0.27161 0.0
C589 C 0.3161 0.62298 0.26208 0.0
C590 C 0.30243 0.56624 0.25345 0.0
C591 C 0.3027 0.50195 0.25432 0.0
C592 C 0.31377 0.69 0.26107 0.0
C593 C 0.36451 0.73896 0.25695 0.0
C594 C 0.26361 0.70695 0.26441 0.0
C595 C 0.20626 0.65537 0.26841 0.0
C596 C 0.15132 0.57543 0.26264 0.0
C597 C 0.09838 0.52696 0.26653 0.0
C598 C 0.09929 0.55788 0.27615 0.0
C599 C 0.15305 0.63739 0.28189 0.0
C600 C 0.20627 0.68609 0.27805 0.0
C601 C 0.30111 0.963 0.24834 0.0
C602 C 0.31378 0.0187 0.25698 0.0
C603 C 0.30119 0.89843 0.24913 0.0
C604 C 0.31499 0.88947 0.25861 0.0
C605 C 0.32695 0.94508 0.26723 0.0
C606 C 0.32656 1.00941 0.26642 0.0
C607 C 0.31719 0.82226 0.25957 0.0
C608 C 0.26642 0.77323 0.26368 0.0
C609 C 0.36747 0.80537 0.25625 0.0
C610 C 0.42545 0.85734 0.25235 0.0
C611 C 0.48028 0.93717 0.25819 0.0
C612 C 0.53412 0.98594 0.25443 0.0
C613 C 0.53422 0.95543 0.24486 0.0
C614 C 0.48057 0.87603 0.23905 0.0
C615 C 0.42646 0.82703 0.24277 0.0
H616 H 0.57597 0.99327 0.24195 0.0
H617 H 0.05824 0.52026 0.27915 0.0
H618 H 0.45142 0.41219 0.22568 0.0
H619 H 0.4603 0.4285 0.20953 0.0
H620 H 0.25073 0.19684 0.19321 0.0
H621 H 0.24311 0.17894 0.20931 0.0
H622 H 0.35686 0.22192 0.18451 0.0
H623 H 0.24939 0.36257 0.19632 0.0
H624 H 0.24661 0.46027 0.20858 0.0
H625 H 0.46334 0.64364 0.20824 0.0
H626 H 0.46796 0.54686 0.19608 0.0
H627 H 0.25355 0.24424 0.13589 0.0
H628 H 0.25671 0.23297 0.15252 0.0
H629 H 0.46567 0.46677 0.16709 0.0
H630 H 0.46123 0.47965 0.15046 0.0
H631 H 0.36696 0.44456 0.17699 0.0
H632 H 0.47269 0.3055 0.16476 0.0
H633 H 0.47651 0.20849 0.15254 0.0
H634 H 0.2652 0.02313 0.15375 0.0
H635 H 0.25948 0.11915 0.16587 0.0
C636 C 0.40769 0.36428 0.21867 0.0
C637 C 0.34629 0.29433 0.21884 0.0
C638 C 0.4124 0.37403 0.20942 0.0
C639 C 0.35555 0.31433 0.20012 0.0
C640 C 0.29512 0.24394 0.20026 0.0
C641 C 0.29044 0.23408 0.2095 0.0
C642 C 0.35851 0.32505 0.19023 0.0
C643 C 0.35816 0.27013 0.18283 0.0
C644 C 0.36237 0.3891 0.1881 0.0
C645 C 0.35942 0.44738 0.19537 0.0
C646 C 0.29675 0.42367 0.19891 0.0
C647 C 0.2948 0.47888 0.20584 0.0
C648 C 0.35487 0.55809 0.20921 0.0
C649 C 0.41692 0.58226 0.20564 0.0
C650 C 0.41921 0.52726 0.19872 0.0
C651 C 0.29984 0.29368 0.14262 0.0
C652 C 0.35713 0.36293 0.14179 0.0
C653 C 0.30208 0.28678 0.15214 0.0
C654 C 0.36205 0.34861 0.16109 0.0
C655 C 0.41899 0.41807 0.16031 0.0
C656 C 0.41674 0.42509 0.15078 0.0
C657 C 0.36458 0.34101 0.17123 0.0
C658 C 0.366 0.39652 0.17868 0.0
C659 C 0.36187 0.27759 0.17342 0.0
C660 C 0.3653 0.21962 0.16616 0.0
C661 C 0.42671 0.2441 0.16236 0.0
C662 C 0.42927 0.18928 0.15546 0.0
C663 C 0.37104 0.10971 0.15235 0.0
C664 C 0.31022 0.08479 0.15615 0.0
C665 C 0.30733 0.13939 0.16305 0.0
H666 H 0.37312 0.06736 0.14701 0.0
H667 H 0.35327 0.60075 0.21457 0.0
H668 H 0.20252 0.18679 0.54419 0.0
H669 H 0.21646 0.18487 0.5277 0.0
H670 H 0.97516 0.99028 0.51254 0.0
H671 H 0.96064 0.99198 0.52905 0.0
H672 H 0.0659 0.96791 0.50365 0.0
H673 H 0.03229 0.17516 0.51379 0.0
H674 H 0.05926 0.29641 0.52525 0.0
H675 H 0.29357 0.42342 0.52525 0.0
H676 H 0.26834 0.30262 0.51391 0.0
H677 H 0.03676 0.99906 0.45453 0.0
H678 H 0.01887 0.9944 0.47072 0.0
H679 H 0.26079 0.18467 0.48691 0.0
H680 H 0.27961 0.18897 0.47076 0.0
H681 H 0.166 0.20755 0.49505 0.0
H682 H 0.19855 0.99843 0.48491 0.0
H683 H 0.16992 0.87662 0.47336 0.0
H684 H 0.93492 0.75256 0.47316 0.0
H685 H 0.96183 0.87395 0.4846 0.0
C686 C 0.15207 0.14403 0.53736 0.0
C687 C 0.08021 0.08999 0.53798 0.0
C688 C 0.16021 0.14289 0.52791 0.0
C689 C 0.09658 0.08813 0.51884 0.0
C690 C 0.02513 0.03315 0.51942 0.0
C691 C 1.01696 0.03412 0.52888 0.0
C692 C 0.10479 0.08852 0.50877 0.0
C693 C 0.08671 0.02002 0.50171 0.0
C694 C 0.13333 0.15683 0.50628 0.0
C695 C 0.14863 0.22967 0.51307 0.0
C696 C 0.08976 0.22882 0.5163 0.0
C697 C 0.1047 0.29749 0.52276 0.0
C698 C 0.17814 0.36754 0.526 0.0
C699 C 0.23674 0.36909 0.52275 0.0
C700 C 0.22213 0.30055 0.5163 0.0
C701 C 0.08658 0.03922 0.46151 0.0
C702 C 0.15975 0.09432 0.46129 0.0
C703 C 0.07612 0.03662 0.47079 0.0
C704 C 0.1386 0.08884 0.48005 0.0
C705 C 0.21161 0.14392 0.47986 0.0
C706 C 0.22218 0.14646 0.47061 0.0
C707 C 0.12765 0.08714 0.48995 0.0
C708 C 0.1451 0.15541 0.49698 0.0
C709 C 0.09825 0.01855 0.49238 0.0
C710 C 0.08198 0.94547 0.48552 0.0
C711 C 0.14057 0.94532 0.48233 0.0
C712 C 0.12469 0.87633 0.47582 0.0
C713 C 0.05059 0.80694 0.4725 0.0
C714 C 0.99226 0.80638 0.47572 0.0
C715 C 1.00781 0.87525 0.48222 0.0
H716 H 0.03842 0.75358 0.46746 0.0
H717 H 0.1896 0.42064 0.531 0.0
H718 H 0.13122 0.39641 0.80255 0.0
H719 H 0.13752 0.40958 0.82009 0.0
H720 H 0.10246 0.18482 0.81501 0.0
H721 H 0.09412 0.17036 0.7974 0.0
H722 H 1.01498 0.20089 0.82538 0.0
H723 H 0.28371 0.35352 0.82789 0.0
H724 H 0.39688 0.45585 0.82524 0.0
H725 H 0.37454 0.63073 0.84216 0.0
H726 H 0.26048 0.52923 0.84479 0.0
H727 H 0.13832 0.22194 0.87616 0.0
H728 H 0.12407 0.21255 0.85856 0.0
H729 H 0.16945 0.44247 0.86579 0.0
H730 H 0.1868 0.45357 0.88354 0.0
H731 H 0.24854 0.42725 0.85432 0.0
H732 H 0.98339 0.27657 0.85242 0.0
H733 H 0.86964 0.17499 0.85507 0.0
H734 H 0.88353 0.99757 0.83698 0.0
H735 H 0.99812 0.09822 0.83434 0.0
C736 C 0.12413 0.34944 0.80513 0.0
C737 C 0.11262 0.2825 0.79857 0.0
C738 C 0.12841 0.35736 0.8152 0.0
C739 C 0.12142 0.29861 0.81893 0.0
C740 C 0.10837 0.2311 0.81234 0.0
C741 C 0.10431 0.22323 0.80229 0.0
C742 C 0.12815 0.30751 0.82971 0.0
C743 C 0.06643 0.24994 0.83171 0.0
C744 C 0.19432 0.37257 0.83799 0.0
C745 C 0.26306 0.43369 0.83645 0.0
C746 C 0.30254 0.41373 0.83098 0.0
C747 C 0.36692 0.47159 0.82949 0.0
C748 C 0.39275 0.54972 0.8335 0.0
C749 C 0.35438 0.57017 0.83904 0.0
C750 C 0.28991 0.51251 0.84054 0.0
C751 C 0.14587 0.27086 0.87405 0.0
C752 C 0.16378 0.33857 0.88131 0.0
C753 C 0.13681 0.26502 0.86393 0.0
C754 C 0.14467 0.32638 0.86078 0.0
C755 C 0.16275 0.39417 0.86801 0.0
C756 C 0.17195 0.40013 0.87815 0.0
C757 C 0.13557 0.32028 0.85 0.0
C758 C 0.19686 0.37836 0.848 0.0
C759 C 0.06886 0.25579 0.84172 0.0
C760 C 0.99982 0.19505 0.84327 0.0
C761 C 0.96258 0.21595 0.84908 0.0
C762 C 0.89788 0.15853 0.85056 0.0
C763 C 0.86949 0.07989 0.84622 0.0
C764 C 0.90564 0.05851 0.84035 0.0
C765 C 0.97043 0.11572 0.83885 0.0
H766 H 0.81939 0.03552 0.84738 0.0
H767 H 0.4426 0.59443 0.83234 0.0
H768 H 0.40095 0.51795 0.05919 0.0
H769 H 0.39095 0.52209 0.04205 0.0
H770 H 0.2405 0.2706 0.02931 0.0
H771 H 0.25058 0.26604 0.04641 0.0
H772 H 0.35693 0.33329 0.02107 0.0
H773 H 0.16287 0.37286 0.02805 0.0
H774 H 0.11675 0.43887 0.03802 0.0
H775 H 0.27564 0.65408 0.03479 0.0
H776 H 0.32353 0.58956 0.02492 0.0
H777 H 0.20658 0.26861 0.96913 0.0
H778 H 0.22183 0.27233 0.98658 0.0
H779 H 0.33962 0.52263 0.99718 0.0
H780 H 0.32255 0.51878 0.97964 0.0
H781 H 0.24606 0.4666 0.00696 0.0
H782 H 0.44014 0.43228 0.99999 0.0
H783 H 0.49283 0.37199 0.99047 0.0
H784 H 0.34459 0.15563 0.99425 0.0
H785 H 0.29018 0.21433 1.00368 0.0
C786 C 0.36617 0.46353 0.05274 0.0
C787 C 0.32638 0.39165 0.05417 0.0
C788 C 0.36008 0.466 0.04295 0.0
C789 C 0.31448 0.39665 0.03439 0.0
C790 C 0.27584 0.32483 0.0358 0.0
C791 C 0.28125 0.32234 0.04557 0.0
C792 C 0.30683 0.39868 0.02394 0.0
C793 C 0.33186 0.36164 0.01793 0.0
C794 C 0.27651 0.43789 0.01997 0.0
C795 C 0.24736 0.47657 0.02584 0.0
C796 C 0.18843 0.43441 0.02954 0.0
C797 C 0.16189 0.47153 0.03516 0.0
C798 C 0.1934 0.55068 0.03706 0.0
C799 C 0.25137 0.59281 0.03332 0.0
C800 C 0.27819 0.55598 0.02771 0.0
C801 C 0.23606 0.32451 0.97518 0.0
C802 C 0.26395 0.39349 0.97301 0.0
C803 C 0.24495 0.32664 0.98518 0.0
C804 C 0.28339 0.39798 0.99328 0.0
C805 C 0.30998 0.46685 0.9911 0.0
C806 C 0.30018 0.46461 0.98106 0.0
C807 C 0.29551 0.40045 1.00399 0.0
C808 C 0.27144 0.43843 0.01007 0.0
C809 C 0.32778 0.363 0.00809 0.0
C810 C 0.36058 0.32753 1.00246 0.0
C811 C 0.41837 0.37168 0.99873 0.0
C812 C 0.4486 0.33781 0.99336 0.0
C813 C 0.42194 0.25997 0.99174 0.0
C814 C 0.36512 0.21589 0.99551 0.0
C815 C 0.33462 0.24945 1.00087 0.0
H816 H 0.44542 0.23386 0.98758 0.0
H817 H 0.17278 0.57932 0.04142 0.0
H818 H 0.39538 0.24019 0.30867 0.0
H819 H 0.38135 0.22653 0.3247 0.0
H820 H 0.15225 0.18336 0.3146 0.0
H821 H 0.16816 0.20279 0.29888 0.0
H822 H 0.22005 0.2705 0.33329 0.0
H823 H 0.18519 0.03388 0.31491 0.0
H824 H 0.21784 0.95148 0.30521 0.0
H825 H 0.4263 0.04931 0.33073 0.0
H826 H 0.39544 0.13312 0.34055 0.0
H827 H 0.09106 0.09317 0.3695 0.0
H828 H 0.10556 0.11104 0.35359 0.0
H829 H 0.35382 0.22041 0.36676 0.0
H830 H 0.34121 0.20724 0.38286 0.0
H831 H 0.27413 0.09719 0.3466 0.0
H832 H 0.3029 0.33405 0.36471 0.0
H833 H 0.26179 0.40917 0.37404 0.0
H834 H 0.05184 0.29885 0.34816 0.0
H835 H 0.0912 0.22215 0.33872 0.0
C836 C 0.34239 0.229 0.30988 0.0
C837 C 0.28282 0.22233 0.30236 0.0
C838 C 0.33391 0.21991 0.31903 0.0
C839 C 0.26497 0.20221 0.32084 0.0
C840 C 0.20586 0.19645 0.31341 0.0
C841 C 0.21473 0.20666 0.30433 0.0
C842 C 0.2547 0.19057 0.33049 0.0
C843 C 0.23086 0.23164 0.33609 0.0
C844 C 0.26965 0.14073 0.3343 0.0
C845 C 0.28838 0.09035 0.32843 0.0
C846 C 0.2383 0.03826 0.31843 0.0
C847 C 0.25644 0.99123 0.31291 0.0
C848 C 0.32421 0.99531 0.31734 0.0
C849 C 0.37388 0.0463 0.32731 0.0
C850 C 0.35607 0.09353 0.33285 0.0
C851 C 0.14908 0.12224 0.36912 0.0
C852 C 0.21484 0.14843 0.37757 0.0
C853 C 0.15707 0.13177 0.35996 0.0
C854 C 0.23074 0.1668 0.35899 0.0
C855 C 0.29633 0.19258 0.36732 0.0
C856 C 0.2887 0.18438 0.37653 0.0
C857 C 0.23965 0.177 0.34929 0.0
C858 C 0.26321 0.13571 0.34372 0.0
C859 C 0.22315 0.22547 0.34541 0.0
C860 C 0.19958 0.27173 0.35105 0.0
C861 C 0.24761 0.32525 0.36104 0.0
C862 C 0.22471 0.36824 0.36634 0.0
C863 C 0.15414 0.35862 0.3617 0.0
C864 C 0.10643 0.30614 0.35174 0.0
C865 C 0.12903 0.26294 0.34642 0.0
H866 H 0.13651 0.39197 0.36582 0.0
H867 H 0.33814 0.95885 0.31306 0.0
H868 H 1.00882 0.18325 0.62597 0.0
H869 H 1.00906 0.19432 0.64308 0.0
H870 H 0.14568 0.09737 0.64671 0.0
H871 H 0.13841 0.07787 0.62913 0.0
H872 H 0.04909 0.04145 0.65525 0.0
H873 H 0.22235 0.30435 0.65765 0.0
H874 H 0.26448 0.42219 0.6532 0.0
H875 H 0.08178 0.43339 0.66029 0.0
H876 H 0.03791 0.31502 0.66467 0.0
H877 H 0.17749 0.18422 0.7098 0.0
H878 H 0.17533 0.16869 0.69242 0.0
H879 H 0.98166 0.1915 0.68523 0.0
H880 H 0.98029 0.20306 0.70244 0.0
H881 H 0.1102 0.28665 0.67896 0.0
H882 H 0.94102 0.01993 0.67669 0.0
H883 H 0.90873 0.90647 0.68186 0.0
H884 H 0.09987 0.91018 0.67539 0.0
H885 H 0.13401 0.02447 0.67032 0.0
C886 C 0.03767 0.16249 0.63025 0.0
C887 C 0.0733 0.12914 0.62597 0.0
C888 C 0.03921 0.1706 0.64021 0.0
C889 C 0.07909 0.14862 0.64638 0.0
C890 C 0.11485 0.11541 0.64218 0.0
C891 C 0.11156 0.10529 0.6321 0.0
C892 C 0.08204 0.15878 0.65712 0.0
C893 C 0.06377 0.09568 0.66044 0.0
C894 C 0.09995 0.22896 0.66397 0.0
C895 C 0.12644 0.30041 0.6614 0.0
C896 C 0.19086 0.33167 0.6582 0.0
C897 C 0.21508 0.39859 0.6557 0.0
C898 C 0.17571 0.43514 0.65644 0.0
C899 C 0.11216 0.40497 0.65971 0.0
C900 C 0.08765 0.33802 0.66221 0.0
C901 C 0.13334 0.18461 0.70452 0.0
C902 C 0.07874 0.19455 0.70762 0.0
C903 C 0.13274 0.17634 0.69458 0.0
C904 C 0.07823 0.17874 0.68753 0.0
C905 C 0.02445 0.1898 0.69058 0.0
C906 C 0.02418 0.1969 0.70047 0.0
C907 C 0.07734 0.1696 0.67696 0.0
C908 C 0.09595 0.23281 0.67371 0.0
C909 C 0.0614 0.10028 0.67025 0.0
C910 C 0.04054 0.03123 0.67323 0.0
C911 C 0.97657 0.99697 0.67645 0.0
C912 C 0.95786 0.93243 0.67935 0.0
C913 C 1.00235 0.90126 0.67898 0.0
C914 C 0.06552 0.93445 0.67569 0.0
C915 C 0.08454 0.99906 0.67279 0.0
H916 H 0.98776 0.85129 0.68123 0.0
H917 H 0.19455 0.48693 0.6545 0.0
loop_
_geom_bond_atom_site_label_1
_geom_bond_atom_site_label_2
_geom_bond_distance
_geom_bond_site_symmetry_2
_ccdc_geom_bond_type
C0 C1 1.443 . S
C0 N4 1.376 . S
C0 C38 1.389 . S
C1 C0 1.443 . S
C1 C2 1.340 . S
C1 H41 0.951 . S
C2 C1 1.340 . S
C2 C3 1.439 . S
C2 H42 0.950 . S
C3 C2 1.439 . S
C3 N4 1.374 . S
C3 C37 1.395 . S
N4 C0 1.376 . S
N4 C3 1.374 . S
N4 Co5 2.008 . S
Co5 N4 2.008 . S
Co5 N6 1.995 . S
Co5 N11 2.008 . S
Co5 N16 1.995 . S
Co5 N21 2.282 . S
Co5 N27 2.282 . S
N6 Co5 1.995 . S
N6 C7 1.376 . S
N6 C10 1.383 . S
C7 N6 1.376 . S
C7 C8 1.446 . S
C7 C37 1.391 . S
C8 C7 1.446 . S
C8 C9 1.339 . S
C8 H43 0.949 . S
C9 C8 1.339 . S
C9 C10 1.439 . S
C9 H44 0.950 . S
C10 N6 1.383 . S
C10 C9 1.439 . S
C10 C39 1.392 . S
N11 Co5 2.008 . S
N11 C12 1.376 . S
N11 C15 1.374 . S
C12 N11 1.376 . S
C12 C13 1.443 . S
C12 C39 1.389 . S
C13 C12 1.443 . S
C13 C14 1.340 . S
C13 H45 0.951 . S
C14 C13 1.340 . S
C14 C15 1.439 . S
C14 H46 0.950 . S
C15 N11 1.374 . S
C15 C14 1.439 . S
C15 C40 1.395 . S
N16 Co5 1.995 . S
N16 C17 1.376 . S
N16 C20 1.383 . S
C17 N16 1.376 . S
C17 C18 1.446 . S
C17 C40 1.391 . S
C18 C17 1.446 . S
C18 C19 1.339 . S
C18 H47 0.949 . S
C19 C18 1.339 . S
C19 C20 1.439 . S
C19 H48 0.950 . S
C20 N16 1.383 . S
C20 C19 1.439 . S
C20 C38 1.392 . S
N21 Co5 2.282 . S
N21 C24 1.332 . S
N21 C26 1.332 . S
C22 C23 1.386 . S
C22 C25 1.388 . S
C23 C22 1.386 . S
C23 C24 1.382 . S
C23 H49 0.950 . S
C24 N21 1.332 . S
C24 C23 1.382 . S
C24 H35 0.952 . S
C25 C22 1.388 . S
C25 C26 1.382 . S
C25 H50 0.950 . S
C26 N21 1.332 . S
C26 C25 1.382 . S
C26 H36 0.948 . S
N27 Co5 2.282 . S
N27 C31 1.332 . S
N27 C32 1.332 . S
C28 C29 1.388 . S
C28 C32 1.382 . S
C28 H51 0.950 . S
C29 C28 1.388 . S
C29 C30 1.386 . S
C30 C29 1.386 . S
C30 C31 1.382 . S
C30 H52 0.950 . S
C31 N27 1.332 . S
C31 C30 1.382 . S
C31 H33 0.952 . S
C32 N27 1.332 . S
C32 C28 1.382 . S
C32 H34 0.948 . S
H33 C31 0.952 . S
H34 C32 0.948 . S
H35 C24 0.952 . S
H36 C26 0.948 . S
C37 C3 1.395 . S
C37 C7 1.391 . S
C38 C0 1.389 . S
C38 C20 1.392 . S
C39 C10 1.392 . S
C39 C12 1.389 . S
C40 C15 1.395 . S
C40 C17 1.391 . S
H41 C1 0.951 . S
H42 C2 0.950 . S
H43 C8 0.949 . S
H44 C9 0.950 . S
H45 C13 0.951 . S
H46 C14 0.950 . S
H47 C18 0.949 . S
H48 C19 0.950 . S
H49 C23 0.950 . S
H50 C25 0.950 . S
H51 C28 0.950 . S
H52 C30 0.950 . S
C53 C54 1.443 . S
C53 N57 1.376 . S
C53 C91 1.389 . S
C54 C53 1.443 . S
C54 C55 1.340 . S
C54 H94 0.951 . S
C55 C54 1.340 . S
C55 C56 1.439 . S
C55 H95 0.950 . S
C56 C55 1.439 . S
C56 N57 1.374 . S
C56 C90 1.395 . S
N57 C53 1.376 . S
N57 C56 1.374 . S
N57 Co58 2.008 . S
Co58 N57 2.008 . S
Co58 N59 1.995 . S
Co58 N64 2.008 1_545 S
Co58 N69 1.995 1_545 S
Co58 N74 2.282 . S
Co58 N80 2.282 . S
N59 Co58 1.995 . S
N59 C60 1.376 . S
N59 C63 1.383 . S
C60 N59 1.376 . S
C60 C61 1.446 . S
C60 C90 1.391 . S
C61 C60 1.446 . S
C61 C62 1.339 . S
C61 H96 0.949 . S
C62 C61 1.339 . S
C62 C63 1.439 . S
C62 H97 0.950 . S
C63 N59 1.383 . S
C63 C62 1.439 . S
C63 C92 1.392 1_455 S
N64 Co58 2.008 1_565 S
N64 C65 1.376 1_455 S
N64 C68 1.374 1_455 S
C65 N64 1.376 1_655 S
C65 C66 1.443 . S
C65 C92 1.389 1_565 S
C66 C65 1.443 . S
C66 C67 1.340 . S
C66 H98 0.951 . S
C67 C66 1.340 . S
C67 C68 1.439 . S
C67 H99 0.950 . S
C68 N64 1.374 1_655 S
C68 C67 1.439 . S
C68 C93 1.395 1_655 S
N69 Co58 1.995 1_565 S
N69 C70 1.376 . S
N69 C73 1.383 . S
C70 N69 1.376 . S
C70 C71 1.446 . S
C70 C93 1.391 . S
C71 C70 1.446 . S
C71 C72 1.339 . S
C71 H100 0.949 . S
C72 C71 1.339 . S
C72 C73 1.439 . S
C72 H101 0.950 . S
C73 N69 1.383 . S
C73 C72 1.439 . S
C73 C91 1.392 1_565 S
N74 Co58 2.282 . S
N74 C77 1.332 1_545 S
N74 C79 1.332 . S
C75 C76 1.386 . S
C75 C78 1.388 1_565 S
C76 C75 1.386 . S
C76 C77 1.382 . S
C76 H102 0.950 . S
C77 N74 1.332 1_565 S
C77 C76 1.382 . S
C77 H88 0.952 . S
C78 C75 1.388 1_545 S
C78 C79 1.382 . S
C78 H103 0.950 . S
C79 N74 1.332 . S
C79 C78 1.382 . S
C79 H89 0.948 . S
N80 Co58 2.282 . S
N80 C84 1.332 . S
N80 C85 1.332 1_545 S
C81 C82 1.388 1_565 S
C81 C85 1.382 . S
C81 H104 0.950 . S
C82 C81 1.388 1_545 S
C82 C83 1.386 . S
C83 C82 1.386 . S
C83 C84 1.382 . S
C83 H105 0.950 . S
C84 N80 1.332 . S
C84 C83 1.382 . S
C84 H86 0.952 . S
C85 N80 1.332 1_565 S
C85 C81 1.382 . S
C85 H87 0.948 . S
H86 C84 0.952 . S
H87 C85 0.948 . S
H88 C77 0.952 . S
H89 C79 0.948 . S
C90 C56 1.395 . S
C90 C60 1.391 . S
C91 C53 1.389 . S
C91 C73 1.392 1_545 S
C92 C63 1.392 1_655 S
C92 C65 1.389 1_545 S
C93 C68 1.395 1_455 S
C93 C70 1.391 . S
H94 C54 0.951 . S
H95 C55 0.950 . S
H96 C61 0.949 . S
H97 C62 0.950 . S
H98 C66 0.951 . S
H99 C67 0.950 . S
H100 C71 0.949 . S
H101 C72 0.950 . S
H102 C76 0.950 . S
H103 C78 0.950 . S
H104 C81 0.950 . S
H105 C83 0.950 . S
C106 C107 1.443 . S
C106 N110 1.376 . S
C106 C144 1.389 . S
C107 C106 1.443 . S
C107 C108 1.340 . S
C107 H147 0.951 . S
C108 C107 1.340 . S
C108 C109 1.439 1_455 S
C108 H148 0.950 . S
C109 C108 1.439 1_655 S
C109 N110 1.374 1_655 S
C109 C143 1.395 . S
N110 C106 1.376 . S
N110 C109 1.374 1_455 S
N110 Co111 2.008 . S
Co111 N110 2.008 . S
Co111 N112 1.995 1_455 S
Co111 N117 2.008 1_455 S
Co111 N122 1.995 . S
Co111 N127 2.282 . S
Co111 N133 2.282 . S
N112 Co111 1.995 1_655 S
N112 C113 1.376 . S
N112 C116 1.383 . S
C113 N112 1.376 . S
C113 C114 1.446 . S
C113 C143 1.391 . S
C114 C113 1.446 . S
C114 C115 1.339 . S
C114 H149 0.949 . S
C115 C114 1.339 . S
C115 C116 1.439 . S
C115 H150 0.950 . S
C116 N112 1.383 . S
C116 C115 1.439 . S
C116 C145 1.392 . S
N117 Co111 2.008 1_655 S
N117 C118 1.376 . S
N117 C121 1.374 1_655 S
C118 N117 1.376 . S
C118 C119 1.443 . S
C118 C145 1.389 . S
C119 C118 1.443 . S
C119 C120 1.340 1_655 S
C119 H151 0.951 1_545 S
C120 C119 1.340 1_455 S
C120 C121 1.439 . S
C120 H152 0.950 . S
C121 N117 1.374 1_455 S
C121 C120 1.439 . S
C121 C146 1.395 . S
N122 Co111 1.995 . S
N122 C123 1.376 . S
N122 C126 1.383 . S
C123 N122 1.376 . S
C123 C124 1.446 . S
C123 C146 1.391 . S
C124 C123 1.446 . S
C124 C125 1.339 . S
C124 H153 0.949 . S
C125 C124 1.339 . S
C125 C126 1.439 . S
C125 H154 0.950 . S
C126 N122 1.383 . S
C126 C125 1.439 . S
C126 C144 1.392 . S
N127 Co111 2.282 . S
N127 C130 1.332 . S
N127 C132 1.332 1_455 S
C128 C129 1.386 . S
C128 C131 1.388 1_455 S
C129 C128 1.386 . S
C129 C130 1.382 . S
C129 H155 0.950 . S
C130 N127 1.332 . S
C130 C129 1.382 . S
C130 H141 0.952 . S
C131 C128 1.388 1_655 S
C131 C132 1.382 . S
C131 H156 0.950 . S
C132 N127 1.332 1_655 S
C132 C131 1.382 . S
C132 H142 0.948 . S
N133 Co111 2.282 . S
N133 C137 1.332 1_455 S
N133 C138 1.332 . S
C134 C135 1.388 . S
C134 C138 1.382 . S
C134 H157 0.950 . S
C135 C134 1.388 . S
C135 C136 1.386 1_455 S
C136 C135 1.386 1_655 S
C136 C137 1.382 . S
C136 H158 0.950 . S
C137 N133 1.332 1_655 S
C137 C136 1.382 . S
C137 H139 0.952 . S
C138 N133 1.332 . S
C138 C134 1.382 . S
C138 H140 0.948 . S
H139 C137 0.952 . S
H140 C138 0.948 . S
H141 C130 0.952 . S
H142 C132 0.948 . S
C143 C109 1.395 . S
C143 C113 1.391 . S
C144 C106 1.389 . S
C144 C126 1.392 . S
C145 C116 1.392 . S
C145 C118 1.389 . S
C146 C121 1.395 . S
C146 C123 1.391 . S
H147 C107 0.951 . S
H148 C108 0.950 . S
H149 C114 0.949 . S
H150 C115 0.950 . S
H151 C119 0.951 1_565 S
H152 C120 0.950 . S
H153 C124 0.949 . S
H154 C125 0.950 . S
H155 C129 0.950 . S
H156 C131 0.950 . S
H157 C134 0.950 . S
H158 C136 0.950 . S
C159 C160 1.443 . S
C159 N163 1.376 . S
C159 C197 1.389 . S
C160 C159 1.443 . S
C160 C161 1.341 . S
C160 H200 0.951 . S
C161 C160 1.341 . S
C161 C162 1.438 1_655 S
C161 H201 0.950 1_655 S
C162 C161 1.438 1_455 S
C162 N163 1.374 1_455 S
C162 C196 1.395 . S
N163 C159 1.376 . S
N163 C162 1.374 1_655 S
N163 Co164 2.008 1_655 S
Co164 N163 2.008 1_455 S
Co164 N165 1.995 . S
Co164 N170 2.008 1_545 S
Co164 N175 1.995 1_445 S
Co164 N180 2.283 1_455 S
Co164 N186 2.282 . S
N165 Co164 1.995 . S
N165 C166 1.376 . S
N165 C169 1.383 . S
C166 N165 1.376 . S
C166 C167 1.446 . S
C166 C196 1.391 . S
C167 C166 1.446 . S
C167 C168 1.339 . S
C167 H202 0.949 . S
C168 C167 1.339 . S
C168 C169 1.439 . S
C168 H203 0.950 . S
C169 N165 1.383 . S
C169 C168 1.439 . S
C169 C198 1.392 . S
N170 Co164 2.008 1_565 S
N170 C171 1.376 . S
N170 C174 1.374 1_455 S
C171 N170 1.376 . S
C171 C172 1.443 . S
C171 C198 1.389 1_565 S
C172 C171 1.443 . S
C172 C173 1.340 . S
C172 H204 0.951 . S
C173 C172 1.340 . S
C173 C174 1.439 1_455 S
C173 H205 0.950 1_455 S
C174 N170 1.374 1_655 S
C174 C173 1.439 1_655 S
C174 C199 1.395 . S
N175 Co164 1.995 1_665 S
N175 C176 1.376 . S
N175 C179 1.383 . S
C176 N175 1.376 . S
C176 C177 1.446 . S
C176 C199 1.391 . S
C177 C176 1.446 . S
C177 C178 1.339 . S
C177 H206 0.949 . S
C178 C177 1.339 . S
C178 C179 1.439 . S
C178 H207 0.950 . S
C179 N175 1.383 . S
C179 C178 1.439 . S
C179 C197 1.392 1_565 S
N180 Co164 2.283 1_655 S
N180 C183 1.332 1_545 S
N180 C185 1.331 1_655 S
C181 C182 1.386 1_455 S
C181 C184 1.388 1_565 S
C182 C181 1.386 1_655 S
C182 C183 1.382 . S
C182 H208 0.950 . S
C183 N180 1.332 1_565 S
C183 C182 1.382 . S
C183 H194 0.952 . S
C184 C181 1.388 1_545 S
C184 C185 1.382 . S
C184 H209 0.950 . S
C185 N180 1.331 1_455 S
C185 C184 1.382 . S
C185 H195 0.948 . S
N186 Co164 2.282 . S
N186 C190 1.332 . S
N186 C191 1.332 1_445 S
C187 C188 1.388 1_565 S
C187 C191 1.382 . S
C187 H210 0.950 . S
C188 C187 1.388 1_545 S
C188 C189 1.386 1_655 S
C189 C188 1.386 1_455 S
C189 C190 1.382 . S
C189 H211 0.950 . S
C190 N186 1.332 . S
C190 C189 1.382 . S
C190 H192 0.952 . S
C191 N186 1.332 1_665 S
C191 C187 1.382 . S
C191 H193 0.948 . S
H192 C190 0.952 . S
H193 C191 0.948 . S
H194 C183 0.952 . S
H195 C185 0.948 . S
C196 C162 1.395 . S
C196 C166 1.391 . S
C197 C159 1.389 . S
C197 C179 1.392 1_545 S
C198 C169 1.392 . S
C198 C171 1.389 1_545 S
C199 C174 1.395 . S
C199 C176 1.391 . S
H200 C160 0.951 . S
H201 C161 0.950 1_455 S
H202 C167 0.949 . S
H203 C168 0.950 . S
H204 C172 0.951 . S
H205 C173 0.950 1_655 S
H206 C177 0.949 . S
H207 C178 0.950 . S
H208 C182 0.950 . S
H209 C184 0.950 . S
H210 C187 0.950 . S
H211 C189 0.950 . S
C212 C213 1.443 1_455 S
C212 N216 1.376 . S
C212 C250 1.389 . S
C213 C212 1.443 1_655 S
C213 C214 1.340 . S
C213 H253 0.951 . S
C214 C213 1.340 . S
C214 C215 1.439 1_655 S
C214 H254 0.950 . S
C215 C214 1.439 1_455 S
C215 N216 1.374 . S
C215 C249 1.395 . S
N216 C212 1.376 . S
N216 C215 1.374 . S
N216 Co217 2.008 . S
Co217 N216 2.008 . S
Co217 N218 1.995 . S
Co217 N223 2.008 . S
Co217 N228 1.995 . S
Co217 N233 2.282 . S
Co217 N239 2.282 . S
N218 Co217 1.995 . S
N218 C219 1.376 . S
N218 C222 1.383 . S
C219 N218 1.376 . S
C219 C220 1.446 . S
C219 C249 1.391 . S
C220 C219 1.446 . S
C220 C221 1.339 . S
C220 H255 0.949 . S
C221 C220 1.339 . S
C221 C222 1.439 . S
C221 H256 0.950 . S
C222 N218 1.383 . S
C222 C221 1.439 . S
C222 C251 1.392 . S
N223 Co217 2.008 . S
N223 C224 1.376 . S
N223 C227 1.374 . S
C224 N223 1.376 . S
C224 C225 1.443 . S
C224 C251 1.389 . S
C225 C224 1.443 . S
C225 C226 1.340 . S
C225 H257 0.951 . S
C226 C225 1.340 . S
C226 C227 1.439 . S
C226 H258 0.950 . S
C227 N223 1.374 . S
C227 C226 1.439 . S
C227 C252 1.395 . S
N228 Co217 1.995 . S
N228 C229 1.376 . S
N228 C232 1.383 . S
C229 N228 1.376 . S
C229 C230 1.446 . S
C229 C252 1.391 . S
C230 C229 1.446 . S
C230 C231 1.339 . S
C230 H259 0.949 . S
C231 C230 1.339 . S
C231 C232 1.439 . S
C231 H260 0.950 . S
C232 N228 1.383 . S
C232 C231 1.439 . S
C232 C250 1.392 . S
N233 Co217 2.282 . S
N233 C236 1.332 . S
N233 C238 1.332 . S
C234 C235 1.386 . S
C234 C237 1.388 . S
C235 C234 1.386 . S
C235 C236 1.382 . S
C235 H261 0.950 . S
C236 N233 1.332 . S
C236 C235 1.382 . S
C236 H247 0.952 . S
C237 C234 1.388 . S
C237 C238 1.382 . S
C237 H262 0.950 . S
C238 N233 1.332 . S
C238 C237 1.382 . S
C238 H248 0.948 . S
N239 Co217 2.282 . S
N239 C243 1.332 . S
N239 C244 1.332 . S
C240 C241 1.388 . S
C240 C244 1.382 . S
C240 H263 0.950 . S
C241 C240 1.388 . S
C241 C242 1.386 . S
C242 C241 1.386 . S
C242 C243 1.382 . S
C242 H264 0.950 . S
C243 N239 1.332 . S
C243 C242 1.382 . S
C243 H245 0.952 . S
C244 N239 1.332 . S
C244 C240 1.382 . S
C244 H246 0.948 . S
H245 C243 0.952 . S
H246 C244 0.948 . S
H247 C236 0.952 . S
H248 C238 0.948 . S
C249 C215 1.395 . S
C249 C219 1.391 . S
C250 C212 1.389 . S
C250 C232 1.392 . S
C251 C222 1.392 . S
C251 C224 1.389 . S
C252 C227 1.395 . S
C252 C229 1.391 . S
H253 C213 0.951 . S
H254 C214 0.950 . S
H255 C220 0.949 . S
H256 C221 0.950 . S
H257 C225 0.951 . S
H258 C226 0.950 . S
H259 C230 0.949 . S
H260 C231 0.950 . S
H261 C235 0.950 . S
H262 C237 0.950 . S
H263 C240 0.950 . S
H264 C242 0.950 . S
C265 C266 1.443 . S
C265 N269 1.376 . S
C265 C303 1.389 . S
C266 C265 1.443 . S
C266 C267 1.340 . S
C266 H306 0.951 1_545 S
C267 C266 1.340 . S
C267 C268 1.439 . S
C267 H307 0.950 . S
C268 C267 1.439 . S
C268 N269 1.374 . S
C268 C302 1.395 . S
N269 C265 1.376 . S
N269 C268 1.374 . S
N269 Co270 2.008 . S
Co270 N269 2.008 . S
Co270 N271 1.995 . S
Co270 N276 2.008 . S
Co270 N281 1.995 . S
Co270 N286 2.282 . S
Co270 N292 2.282 . S
N271 Co270 1.995 . S
N271 C272 1.376 . S
N271 C275 1.383 . S
C272 N271 1.376 . S
C272 C273 1.446 . S
C272 C302 1.391 . S
C273 C272 1.446 . S
C273 C274 1.339 . S
C273 H308 0.949 . S
C274 C273 1.339 . S
C274 C275 1.439 . S
C274 H309 0.950 . S
C275 N271 1.383 . S
C275 C274 1.439 . S
C275 C304 1.392 . S
N276 Co270 2.008 . S
N276 C277 1.376 . S
N276 C280 1.374 . S
C277 N276 1.376 . S
C277 C278 1.443 . S
C277 C304 1.389 . S
C278 C277 1.443 . S
C278 C279 1.340 . S
C278 H310 0.951 . S
C279 C278 1.340 . S
C279 C280 1.439 . S
C279 H311 0.950 . S
C280 N276 1.374 . S
C280 C279 1.439 . S
C280 C305 1.395 . S
N281 Co270 1.995 . S
N281 C282 1.376 . S
N281 C285 1.383 . S
C282 N281 1.376 . S
C282 C283 1.446 . S
C282 C305 1.391 . S
C283 C282 1.446 . S
C283 C284 1.339 . S
C283 H312 0.949 . S
C284 C283 1.339 . S
C284 C285 1.439 . S
C284 H313 0.950 . S
C285 N281 1.383 . S
C285 C284 1.439 . S
C285 C303 1.392 . S
N286 Co270 2.282 . S
N286 C289 1.332 . S
N286 C291 1.332 . S
C287 C288 1.386 . S
C287 C290 1.388 . S
C288 C287 1.386 . S
C288 C289 1.382 . S
C288 H314 0.950 . S
C289 N286 1.332 . S
C289 C288 1.382 . S
C289 H300 0.952 . S
C290 C287 1.388 . S
C290 C291 1.382 . S
C290 H315 0.950 . S
C291 N286 1.332 . S
C291 C290 1.382 . S
C291 H301 0.948 . S
N292 Co270 2.282 . S
N292 C296 1.332 . S
N292 C297 1.332 . S
C293 C294 1.388 . S
C293 C297 1.382 . S
C293 H316 0.950 . S
C294 C293 1.388 . S
C294 C295 1.386 . S
C295 C294 1.386 . S
C295 C296 1.382 . S
C295 H317 0.950 . S
C296 N292 1.332 . S
C296 C295 1.382 . S
C296 H298 0.952 . S
C297 N292 1.332 . S
C297 C293 1.382 . S
C297 H299 0.948 . S
H298 C296 0.952 . S
H299 C297 0.948 . S
H300 C289 0.952 . S
H301 C291 0.948 . S
C302 C268 1.395 . S
C302 C272 1.391 . S
C303 C265 1.389 . S
C303 C285 1.392 . S
C304 C275 1.392 . S
C304 C277 1.389 . S
C305 C280 1.395 . S
C305 C282 1.391 . S
H306 C266 0.951 1_565 S
H307 C267 0.950 . S
H308 C273 0.949 . S
H309 C274 0.950 . S
H310 C278 0.951 . S
H311 C279 0.950 . S
H312 C283 0.949 . S
H313 C284 0.950 . S
H314 C288 0.950 . S
H315 C290 0.950 . S
H316 C293 0.950 . S
H317 C295 0.950 . S
H318 C336 0.951 . S
H319 C338 0.951 . S
H320 C340 0.950 . S
H321 C341 0.950 . S
H322 C343 0.950 . S
H323 C346 0.950 . S
H324 C347 0.950 . S
H325 C349 0.950 . S
H326 C350 0.950 . S
H327 C351 0.951 . S
H328 C353 0.951 . S
H329 C355 0.950 . S
H330 C356 0.950 . S
H331 C358 0.950 . S
H332 C361 0.950 . S
H333 C362 0.950 . S
H334 C364 0.950 . S
H335 C365 0.950 . S
C336 H318 0.951 . S
C336 C337 1.366 . S
C336 C338 1.388 . S
C337 C336 1.366 . S
C337 C341 1.385 . S
C338 H319 0.951 . S
C338 C336 1.388 . S
C338 C339 1.366 . S
C339 C338 1.366 . S
C339 C340 1.414 . S
C339 C342 1.499 1_545 S
C340 H320 0.950 . S
C340 C339 1.414 . S
C340 C341 1.374 . S
C341 H321 0.950 . S
C341 C337 1.385 . S
C341 C340 1.374 . S
C342 C339 1.499 1_565 S
C342 C343 1.373 . S
C342 C344 1.389 . S
C343 H322 0.950 . S
C343 C342 1.373 . S
C343 C359 1.377 . S
C344 C342 1.389 . S
C344 C345 1.524 . S
C344 C358 1.377 . S
C345 C344 1.524 . S
C345 C346 1.397 . S
C345 C350 1.363 . S
C346 H323 0.950 . S
C346 C345 1.397 . S
C346 C347 1.334 . S
C347 H324 0.950 . S
C347 C346 1.334 . S
C347 C348 1.287 . S
C348 C347 1.287 . S
C348 C349 1.524 . S
C348 H367 0.913 . S
C349 H325 0.950 . S
C349 C348 1.524 . S
C349 C350 1.415 . S
C350 H326 0.950 . S
C350 C345 1.363 . S
C350 C349 1.415 . S
C351 H327 0.951 . S
C351 C352 1.366 . S
C351 C353 1.388 . S
C352 C351 1.366 . S
C352 C356 1.385 . S
C353 H328 0.951 . S
C353 C351 1.388 . S
C353 C354 1.366 . S
C354 C353 1.366 . S
C354 C355 1.414 . S
C354 C357 1.499 . S
C355 H329 0.950 . S
C355 C354 1.414 . S
C355 C356 1.374 . S
C356 H330 0.950 . S
C356 C352 1.385 . S
C356 C355 1.374 . S
C357 C354 1.499 . S
C357 C358 1.373 . S
C357 C359 1.389 . S
C358 H331 0.950 . S
C358 C344 1.377 . S
C358 C357 1.373 . S
C359 C343 1.377 . S
C359 C357 1.389 . S
C359 C360 1.524 . S
C360 C359 1.524 . S
C360 C361 1.397 . S
C360 C365 1.363 . S
C361 H332 0.950 . S
C361 C360 1.397 . S
C361 C362 1.334 . S
C362 H333 0.950 . S
C362 C361 1.334 . S
C362 C363 1.287 . S
C363 C362 1.287 . S
C363 C364 1.524 . S
C363 H366 0.999 . S
C364 H334 0.950 . S
C364 C363 1.524 . S
C364 C365 1.415 . S
C365 H335 0.950 . S
C365 C360 1.363 . S
C365 C364 1.415 . S
H366 C363 0.999 . S
H367 C348 0.913 . S
H368 C386 0.951 . S
H369 C388 0.951 . S
H370 C390 0.950 . S
H371 C391 0.950 . S
H372 C393 0.950 . S
H373 C396 0.950 . S
H374 C397 0.950 . S
H375 C399 0.950 . S
H376 C400 0.950 . S
H377 C401 0.951 . S
H378 C403 0.951 . S
H379 C405 0.950 . S
H380 C406 0.950 . S
H381 C408 0.950 . S
H382 C411 0.950 . S
H383 C412 0.950 . S
H384 C414 0.950 . S
H385 C415 0.950 . S
C386 H368 0.951 . S
C386 C387 1.366 1_565 S
C386 C388 1.388 . S
C387 C386 1.366 1_545 S
C387 C391 1.385 . S
C388 H369 0.951 . S
C388 C386 1.388 . S
C388 C389 1.366 1_565 S
C389 C388 1.366 1_545 S
C389 C390 1.414 . S
C389 C392 1.499 . S
C390 H370 0.950 . S
C390 C389 1.414 . S
C390 C391 1.374 . S
C391 H371 0.950 . S
C391 C387 1.385 . S
C391 C390 1.374 . S
C392 C389 1.499 . S
C392 C393 1.373 1_545 S
C392 C394 1.389 . S
C393 H372 0.950 . S
C393 C392 1.373 1_565 S
C393 C409 1.377 . S
C394 C392 1.389 . S
C394 C395 1.524 . S
C394 C408 1.377 . S
C395 C394 1.524 . S
C395 C396 1.397 . S
C395 C400 1.363 . S
C396 H373 0.950 . S
C396 C395 1.397 . S
C396 C397 1.334 . S
C397 H374 0.950 . S
C397 C396 1.334 . S
C397 C398 1.287 . S
C398 C397 1.287 . S
C398 C399 1.524 . S
C398 H417 0.913 . S
C399 H375 0.950 . S
C399 C398 1.524 . S
C399 C400 1.415 . S
C400 H376 0.950 . S
C400 C395 1.363 . S
C400 C399 1.415 . S
C401 H377 0.951 . S
C401 C402 1.366 . S
C401 C403 1.388 . S
C402 C401 1.366 . S
C402 C406 1.385 1_545 S
C403 H378 0.951 . S
C403 C401 1.388 . S
C403 C404 1.366 . S
C404 C403 1.366 . S
C404 C405 1.414 1_545 S
C404 C407 1.499 . S
C405 H379 0.950 . S
C405 C404 1.414 1_565 S
C405 C406 1.374 . S
C406 H380 0.950 . S
C406 C402 1.385 1_565 S
C406 C405 1.374 . S
C407 C404 1.499 . S
C407 C408 1.373 . S
C407 C409 1.389 1_545 S
C408 H381 0.950 . S
C408 C394 1.377 . S
C408 C407 1.373 . S
C409 C393 1.377 . S
C409 C407 1.389 1_565 S
C409 C410 1.524 . S
C410 C409 1.524 . S
C410 C411 1.397 . S
C410 C415 1.363 . S
C411 H382 0.950 . S
C411 C410 1.397 . S
C411 C412 1.334 . S
C412 H383 0.950 . S
C412 C411 1.334 . S
C412 C413 1.287 . S
C413 C412 1.287 . S
C413 C414 1.524 . S
C413 H416 0.999 . S
C414 H384 0.950 . S
C414 C413 1.524 . S
C414 C415 1.415 . S
C415 H385 0.950 . S
C415 C410 1.363 . S
C415 C414 1.415 . S
H416 C413 0.999 . S
H417 C398 0.913 . S
H418 C436 0.951 . S
H419 C438 0.951 . S
H420 C440 0.950 . S
H421 C441 0.950 . S
H422 C443 0.950 . S
H423 C446 0.950 . S
H424 C447 0.950 . S
H425 C449 0.950 . S
H426 C450 0.950 . S
H427 C451 0.951 . S
H428 C453 0.951 . S
H429 C455 0.950 . S
H430 C456 0.950 . S
H431 C458 0.950 . S
H432 C461 0.950 . S
H433 C462 0.950 . S
H434 C464 0.950 . S
H435 C465 0.950 . S
C436 H418 0.951 . S
C436 C437 1.366 . S
C436 C438 1.388 1_545 S
C437 C436 1.366 . S
C437 C441 1.385 1_545 S
C438 H419 0.951 . S
C438 C436 1.388 1_565 S
C438 C439 1.366 . S
C439 C438 1.366 . S
C439 C440 1.414 . S
C439 C442 1.499 . S
C440 H420 0.950 . S
C440 C439 1.414 . S
C440 C441 1.374 . S
C441 H421 0.950 . S
C441 C437 1.385 1_565 S
C441 C440 1.374 . S
C442 C439 1.499 . S
C442 C443 1.373 . S
C442 C444 1.389 . S
C443 H422 0.950 . S
C443 C442 1.373 . S
C443 C459 1.377 . S
C444 C442 1.389 . S
C444 C445 1.524 . S
C444 C458 1.377 . S
C445 C444 1.524 . S
C445 C446 1.397 . S
C445 C450 1.363 . S
C446 H423 0.950 . S
C446 C445 1.397 . S
C446 C447 1.334 . S
C447 H424 0.950 . S
C447 C446 1.334 . S
C447 C448 1.287 . S
C448 C447 1.287 . S
C448 C449 1.524 . S
C448 H467 0.913 . S
C449 H425 0.950 . S
C449 C448 1.524 . S
C449 C450 1.415 . S
C450 H426 0.950 . S
C450 C445 1.363 . S
C450 C449 1.415 . S
C451 H427 0.951 . S
C451 C452 1.366 . S
C451 C453 1.388 . S
C452 C451 1.366 . S
C452 C456 1.385 . S
C453 H428 0.951 . S
C453 C451 1.388 . S
C453 C454 1.366 . S
C454 C453 1.366 . S
C454 C455 1.414 . S
C454 C457 1.499 . S
C455 H429 0.950 . S
C455 C454 1.414 . S
C455 C456 1.374 . S
C456 H430 0.950 . S
C456 C452 1.385 . S
C456 C455 1.374 . S
C457 C454 1.499 . S
C457 C458 1.373 . S
C457 C459 1.389 . S
C458 H431 0.950 . S
C458 C444 1.377 . S
C458 C457 1.373 . S
C459 C443 1.377 . S
C459 C457 1.389 . S
C459 C460 1.524 . S
C460 C459 1.524 . S
C460 C461 1.397 . S
C460 C465 1.363 . S
C461 H432 0.950 . S
C461 C460 1.397 . S
C461 C462 1.334 . S
C462 H433 0.950 . S
C462 C461 1.334 . S
C462 C463 1.287 . S
C463 C462 1.287 . S
C463 C464 1.524 . S
C463 H466 0.999 . S
C464 H434 0.950 . S
C464 C463 1.524 . S
C464 C465 1.415 . S
C465 H435 0.950 . S
C465 C460 1.363 . S
C465 C464 1.415 . S
H466 C463 0.999 . S
H467 C448 0.913 . S
H468 C486 0.951 . S
H469 C488 0.951 . S
H470 C490 0.950 . S
H471 C491 0.950 . S
H472 C493 0.950 . S
H473 C496 0.950 . S
H474 C497 0.950 . S
H475 C499 0.950 . S
H476 C500 0.950 . S
H477 C501 0.951 . S
H478 C503 0.951 . S
H479 C505 0.950 . S
H480 C506 0.950 . S
H481 C508 0.950 . S
H482 C511 0.950 . S
H483 C512 0.950 . S
H484 C514 0.950 . S
H485 C515 0.950 . S
C486 H468 0.951 . S
C486 C487 1.366 . S
C486 C488 1.388 . S
C487 C486 1.366 . S
C487 C491 1.385 . S
C488 H469 0.951 . S
C488 C486 1.388 . S
C488 C489 1.366 . S
C489 C488 1.366 . S
C489 C490 1.414 . S
C489 C492 1.499 . S
C490 H470 0.950 . S
C490 C489 1.414 . S
C490 C491 1.374 . S
C491 H471 0.950 . S
C491 C487 1.385 . S
C491 C490 1.374 . S
C492 C489 1.499 . S
C492 C493 1.373 1_545 S
C492 C494 1.389 . S
C493 H472 0.950 . S
C493 C492 1.373 1_565 S
C493 C509 1.377 . S
C494 C492 1.389 . S
C494 C495 1.524 . S
C494 C508 1.377 . S
C495 C494 1.524 . S
C495 C496 1.397 . S
C495 C500 1.363 . S
C496 H473 0.950 . S
C496 C495 1.397 . S
C496 C497 1.334 . S
C497 H474 0.950 . S
C497 C496 1.334 . S
C497 C498 1.287 . S
C498 C497 1.287 . S
C498 C499 1.524 . S
C498 H517 0.913 . S
C499 H475 0.950 . S
C499 C498 1.524 . S
C499 C500 1.415 . S
C500 H476 0.950 . S
C500 C495 1.363 . S
C500 C499 1.415 . S
C501 H477 0.951 . S
C501 C502 1.366 . S
C501 C503 1.388 . S
C502 C501 1.366 . S
C502 C506 1.385 . S
C503 H478 0.951 . S
C503 C501 1.388 . S
C503 C504 1.366 . S
C504 C503 1.366 . S
C504 C505 1.414 . S
C504 C507 1.499 . S
C505 H479 0.950 . S
C505 C504 1.414 . S
C505 C506 1.374 . S
C506 H480 0.950 . S
C506 C502 1.385 . S
C506 C505 1.374 . S
C507 C504 1.499 . S
C507 C508 1.373 . S
C507 C509 1.389 1_545 S
C508 H481 0.950 . S
C508 C494 1.377 . S
C508 C507 1.373 . S
C509 C493 1.377 . S
C509 C507 1.389 1_565 S
C509 C510 1.524 . S
C510 C509 1.524 . S
C510 C511 1.397 . S
C510 C515 1.363 . S
C511 H482 0.950 . S
C511 C510 1.397 . S
C511 C512 1.334 . S
C512 H483 0.950 . S
C512 C511 1.334 . S
C512 C513 1.287 . S
C513 C512 1.287 . S
C513 C514 1.524 . S
C513 H516 0.999 . S
C514 H484 0.950 . S
C514 C513 1.524 . S
C514 C515 1.415 . S
C515 H485 0.950 . S
C515 C510 1.363 . S
C515 C514 1.415 . S
H516 C513 0.999 . S
H517 C498 0.913 . S
H518 C536 0.951 . S
H519 C538 0.951 . S
H520 C540 0.950 . S
H521 C541 0.950 . S
H522 C543 0.950 . S
H523 C546 0.950 . S
H524 C547 0.950 . S
H525 C549 0.950 1_545 S
H526 C550 0.950 . S
H527 C551 0.951 . S
H528 C553 0.951 1_565 S
H529 C555 0.950 . S
H530 C556 0.950 . S
H531 C558 0.950 1_545 S
H532 C561 0.950 . S
H533 C562 0.950 . S
H534 C564 0.950 . S
H535 C565 0.950 . S
C536 H518 0.951 . S
C536 C537 1.366 . S
C536 C538 1.388 . S
C537 C536 1.366 . S
C537 C541 1.385 . S
C538 H519 0.951 . S
C538 C536 1.388 . S
C538 C539 1.366 . S
C539 C538 1.366 . S
C539 C540 1.414 . S
C539 C542 1.499 . S
C540 H520 0.950 . S
C540 C539 1.414 . S
C540 C541 1.374 . S
C541 H521 0.950 . S
C541 C537 1.385 . S
C541 C540 1.374 . S
C542 C539 1.499 . S
C542 C543 1.373 . S
C542 C544 1.389 . S
C543 H522 0.950 . S
C543 C542 1.373 . S
C543 C559 1.377 . S
C544 C542 1.389 . S
C544 C545 1.524 . S
C544 C558 1.377 . S
C545 C544 1.524 . S
C545 C546 1.397 . S
C545 C550 1.363 . S
C546 H523 0.950 . S
C546 C545 1.397 . S
C546 C547 1.334 . S
C547 H524 0.950 . S
C547 C546 1.334 . S
C547 C548 1.287 . S
C548 C547 1.287 . S
C548 C549 1.524 . S
C548 H567 0.913 . S
C549 H525 0.950 1_565 S
C549 C548 1.524 . S
C549 C550 1.415 . S
C550 H526 0.950 . S
C550 C545 1.363 . S
C550 C549 1.415 . S
C551 H527 0.951 . S
C551 C552 1.366 . S
C551 C553 1.388 . S
C552 C551 1.366 . S
C552 C556 1.385 . S
C553 H528 0.951 1_545 S
C553 C551 1.388 . S
C553 C554 1.366 . S
C554 C553 1.366 . S
C554 C555 1.414 . S
C554 C557 1.499 1_545 S
C555 H529 0.950 . S
C555 C554 1.414 . S
C555 C556 1.374 . S
C556 H530 0.950 . S
C556 C552 1.385 . S
C556 C555 1.374 . S
C557 C554 1.499 1_565 S
C557 C558 1.373 . S
C557 C559 1.389 . S
C558 H531 0.950 1_565 S
C558 C544 1.377 . S
C558 C557 1.373 . S
C559 C543 1.377 . S
C559 C557 1.389 . S
C559 C560 1.524 . S
C560 C559 1.524 . S
C560 C561 1.397 . S
C560 C565 1.363 . S
C561 H532 0.950 . S
C561 C560 1.397 . S
C561 C562 1.334 . S
C562 H533 0.950 . S
C562 C561 1.334 . S
C562 C563 1.287 . S
C563 C562 1.287 . S
C563 C564 1.524 . S
C563 H566 0.999 . S
C564 H534 0.950 . S
C564 C563 1.524 . S
C564 C565 1.415 . S
C565 H535 0.950 . S
C565 C560 1.363 . S
C565 C564 1.415 . S
H566 C563 0.999 . S
H567 C548 0.913 . S
H568 C586 0.951 . S
H569 C588 0.951 . S
H570 C590 0.950 . S
H571 C591 0.950 . S
H572 C593 0.950 . S
H573 C596 0.950 . S
H574 C597 0.950 . S
H575 C599 0.950 . S
H576 C600 0.950 . S
H577 C601 0.951 . S
H578 C603 0.951 . S
H579 C605 0.950 . S
H580 C606 0.950 . S
H581 C608 0.950 . S
H582 C611 0.950 . S
H583 C612 0.950 . S
H584 C614 0.950 . S
H585 C615 0.950 . S
C586 H568 0.951 . S
C586 C587 1.366 . S
C586 C588 1.388 . S
C587 C586 1.366 . S
C587 C591 1.385 . S
C588 H569 0.951 . S
C588 C586 1.388 . S
C588 C589 1.366 . S
C589 C588 1.366 . S
C589 C590 1.414 . S
C589 C592 1.499 . S
C590 H570 0.950 . S
C590 C589 1.414 . S
C590 C591 1.374 . S
C591 H571 0.950 . S
C591 C587 1.385 . S
C591 C590 1.374 . S
C592 C589 1.499 . S
C592 C593 1.373 . S
C592 C594 1.389 . S
C593 H572 0.950 . S
C593 C592 1.373 . S
C593 C609 1.377 . S
C594 C592 1.389 . S
C594 C595 1.524 . S
C594 C608 1.377 . S
C595 C594 1.524 . S
C595 C596 1.397 . S
C595 C600 1.363 . S
C596 H573 0.950 . S
C596 C595 1.397 . S
C596 C597 1.334 . S
C597 H574 0.950 . S
C597 C596 1.334 . S
C597 C598 1.287 . S
C598 C597 1.287 . S
C598 C599 1.524 . S
C598 H617 0.913 . S
C599 H575 0.950 . S
C599 C598 1.524 . S
C599 C600 1.415 . S
C600 H576 0.950 . S
C600 C595 1.363 . S
C600 C599 1.415 . S
C601 H577 0.951 . S
C601 C602 1.366 1_565 S
C601 C603 1.388 . S
C602 C601 1.366 1_545 S
C602 C606 1.385 . S
C603 H578 0.951 . S
C603 C601 1.388 . S
C603 C604 1.366 . S
C604 C603 1.366 . S
C604 C605 1.414 . S
C604 C607 1.499 . S
C605 H579 0.950 . S
C605 C604 1.414 . S
C605 C606 1.374 1_565 S
C606 H580 0.950 . S
C606 C602 1.385 . S
C606 C605 1.374 1_545 S
C607 C604 1.499 . S
C607 C608 1.373 . S
C607 C609 1.389 . S
C608 H581 0.950 . S
C608 C594 1.377 . S
C608 C607 1.373 . S
C609 C593 1.377 . S
C609 C607 1.389 . S
C609 C610 1.524 . S
C610 C609 1.524 . S
C610 C611 1.397 . S
C610 C615 1.363 . S
C611 H582 0.950 . S
C611 C610 1.397 . S
C611 C612 1.334 . S
C612 H583 0.950 . S
C612 C611 1.334 . S
C612 C613 1.287 . S
C613 C612 1.287 . S
C613 C614 1.524 . S
C613 H616 0.999 . S
C614 H584 0.950 . S
C614 C613 1.524 . S
C614 C615 1.415 . S
C615 H585 0.950 . S
C615 C610 1.363 . S
C615 C614 1.415 . S
H616 C613 0.999 . S
H617 C598 0.913 . S
H618 C636 0.951 . S
H619 C638 0.951 . S
H620 C640 0.950 . S
H621 C641 0.950 . S
H622 C643 0.950 . S
H623 C646 0.950 . S
H624 C647 0.950 . S
H625 C649 0.950 . S
H626 C650 0.950 . S
H627 C651 0.951 . S
H628 C653 0.951 . S
H629 C655 0.950 . S
H630 C656 0.950 . S
H631 C658 0.950 . S
H632 C661 0.950 . S
H633 C662 0.950 . S
H634 C664 0.950 . S
H635 C665 0.950 . S
C636 H618 0.951 . S
C636 C637 1.366 . S
C636 C638 1.388 . S
C637 C636 1.366 . S
C637 C641 1.385 . S
C638 H619 0.951 . S
C638 C636 1.388 . S
C638 C639 1.366 . S
C639 C638 1.366 . S
C639 C640 1.414 . S
C639 C642 1.499 . S
C640 H620 0.950 . S
C640 C639 1.414 . S
C640 C641 1.374 . S
C641 H621 0.950 . S
C641 C637 1.385 . S
C641 C640 1.374 . S
C642 C639 1.499 . S
C642 C643 1.373 . S
C642 C644 1.389 . S
C643 H622 0.950 . S
C643 C642 1.373 . S
C643 C659 1.377 . S
C644 C642 1.389 . S
C644 C645 1.524 . S
C644 C658 1.377 . S
C645 C644 1.524 . S
C645 C646 1.397 . S
C645 C650 1.363 . S
C646 H623 0.950 . S
C646 C645 1.397 . S
C646 C647 1.334 . S
C647 H624 0.950 . S
C647 C646 1.334 . S
C647 C648 1.287 . S
C648 C647 1.287 . S
C648 C649 1.524 . S
C648 H667 0.913 . S
C649 H625 0.950 . S
C649 C648 1.524 . S
C649 C650 1.415 . S
C650 H626 0.950 . S
C650 C645 1.363 . S
C650 C649 1.415 . S
C651 H627 0.951 . S
C651 C652 1.366 . S
C651 C653 1.388 . S
C652 C651 1.366 . S
C652 C656 1.385 . S
C653 H628 0.951 . S
C653 C651 1.388 . S
C653 C654 1.366 . S
C654 C653 1.366 . S
C654 C655 1.414 . S
C654 C657 1.499 . S
C655 H629 0.950 . S
C655 C654 1.414 . S
C655 C656 1.374 . S
C656 H630 0.950 . S
C656 C652 1.385 . S
C656 C655 1.374 . S
C657 C654 1.499 . S
C657 C658 1.373 . S
C657 C659 1.389 . S
C658 H631 0.950 . S
C658 C644 1.377 . S
C658 C657 1.373 . S
C659 C643 1.377 . S
C659 C657 1.389 . S
C659 C660 1.524 . S
C660 C659 1.524 . S
C660 C661 1.397 . S
C660 C665 1.363 . S
C661 H632 0.950 . S
C661 C660 1.397 . S
C661 C662 1.334 . S
C662 H633 0.950 . S
C662 C661 1.334 . S
C662 C663 1.287 . S
C663 C662 1.287 . S
C663 C664 1.524 . S
C663 H666 0.999 . S
C664 H634 0.950 . S
C664 C663 1.524 . S
C664 C665 1.415 . S
C665 H635 0.950 . S
C665 C660 1.363 . S
C665 C664 1.415 . S
H666 C663 0.999 . S
H667 C648 0.913 . S
H668 C686 0.951 . S
H669 C688 0.951 . S
H670 C690 0.950 . S
H671 C691 0.950 . S
H672 C693 0.950 . S
H673 C696 0.950 . S
H674 C697 0.950 . S
H675 C699 0.950 . S
H676 C700 0.950 . S
H677 C701 0.951 1_655 S
H678 C703 0.951 1_655 S
H679 C705 0.950 . S
H680 C706 0.950 . S
H681 C708 0.950 . S
H682 C711 0.950 . S
H683 C712 0.950 . S
H684 C714 0.950 1_655 S
H685 C715 0.950 1_655 S
C686 H668 0.951 . S
C686 C687 1.366 1_545 S
C686 C688 1.388 . S
C687 C686 1.366 1_565 S
C687 C691 1.385 1_455 S
C688 H669 0.951 . S
C688 C686 1.388 . S
C688 C689 1.366 1_545 S
C689 C688 1.366 1_565 S
C689 C690 1.414 1_455 S
C689 C692 1.499 . S
C690 H670 0.950 . S
C690 C689 1.414 1_655 S
C690 C691 1.374 . S
C691 H671 0.950 . S
C691 C687 1.385 1_655 S
C691 C690 1.374 . S
C692 C689 1.499 . S
C692 C693 1.373 . S
C692 C694 1.389 1_565 S
C693 H672 0.950 . S
C693 C692 1.373 . S
C693 C709 1.377 . S
C694 C692 1.389 1_545 S
C694 C695 1.524 . S
C694 C708 1.377 . S
C695 C694 1.524 . S
C695 C696 1.397 1_455 S
C695 C700 1.363 . S
C696 H673 0.950 . S
C696 C695 1.397 1_655 S
C696 C697 1.334 . S
C697 H674 0.950 . S
C697 C696 1.334 . S
C697 C698 1.287 1_655 S
C698 C697 1.287 1_455 S
C698 C699 1.524 . S
C698 H717 0.913 1_455 S
C699 H675 0.950 . S
C699 C698 1.524 . S
C699 C700 1.415 . S
C700 H676 0.950 . S
C700 C695 1.363 . S
C700 C699 1.415 . S
C701 H677 0.951 1_455 S
C701 C702 1.366 . S
C701 C703 1.388 . S
C702 C701 1.366 . S
C702 C706 1.385 1_565 S
C703 H678 0.951 1_455 S
C703 C701 1.388 . S
C703 C704 1.366 . S
C704 C703 1.366 . S
C704 C705 1.414 1_565 S
C704 C707 1.499 . S
C705 H679 0.950 . S
C705 C704 1.414 1_545 S
C705 C706 1.374 . S
C706 H680 0.950 . S
C706 C702 1.385 1_545 S
C706 C705 1.374 . S
C707 C704 1.499 . S
C707 C708 1.373 1_565 S
C707 C709 1.389 . S
C708 H681 0.950 . S
C708 C694 1.377 . S
C708 C707 1.373 1_545 S
C709 C693 1.377 . S
C709 C707 1.389 . S
C709 C710 1.524 . S
C710 C709 1.524 . S
C710 C711 1.397 . S
C710 C715 1.363 . S
C711 H682 0.950 . S
C711 C710 1.397 . S
C711 C712 1.334 . S
C712 H683 0.950 . S
C712 C711 1.334 . S
C712 C713 1.287 . S
C713 C712 1.287 . S
C713 C714 1.524 . S
C713 H716 0.999 . S
C714 H684 0.950 1_455 S
C714 C713 1.524 . S
C714 C715 1.415 . S
C715 H685 0.950 1_455 S
C715 C710 1.363 . S
C715 C714 1.415 . S
H716 C713 0.999 . S
H717 C698 0.913 1_655 S
H718 C736 0.951 . S
H719 C738 0.951 . S
H720 C740 0.950 1_655 S
H721 C741 0.950 1_655 S
H722 C743 0.950 1_655 S
H723 C746 0.950 . S
H724 C747 0.950 . S
H725 C749 0.950 . S
H726 C750 0.950 . S
H727 C751 0.951 . S
H728 C753 0.951 . S
H729 C755 0.950 . S
H730 C756 0.950 . S
H731 C758 0.950 . S
H732 C761 0.950 . S
H733 C762 0.950 . S
H734 C764 0.950 . S
H735 C765 0.950 . S
C736 H718 0.951 . S
C736 C737 1.366 . S
C736 C738 1.388 . S
C737 C736 1.366 . S
C737 C741 1.385 . S
C738 H719 0.951 . S
C738 C736 1.388 . S
C738 C739 1.366 . S
C739 C738 1.366 . S
C739 C740 1.414 . S
C739 C742 1.499 . S
C740 H720 0.950 1_455 S
C740 C739 1.414 . S
C740 C741 1.374 . S
C741 H721 0.950 1_455 S
C741 C737 1.385 . S
C741 C740 1.374 . S
C742 C739 1.499 . S
C742 C743 1.373 . S
C742 C744 1.389 . S
C743 H722 0.950 1_455 S
C743 C742 1.373 . S
C743 C759 1.377 . S
C744 C742 1.389 . S
C744 C745 1.524 . S
C744 C758 1.377 . S
C745 C744 1.524 . S
C745 C746 1.397 . S
C745 C750 1.363 . S
C746 H723 0.950 . S
C746 C745 1.397 . S
C746 C747 1.334 . S
C747 H724 0.950 . S
C747 C746 1.334 . S
C747 C748 1.287 . S
C748 C747 1.287 . S
C748 C749 1.524 . S
C748 H767 0.913 . S
C749 H725 0.950 . S
C749 C748 1.524 . S
C749 C750 1.415 . S
C750 H726 0.950 . S
C750 C745 1.363 . S
C750 C749 1.415 . S
C751 H727 0.951 . S
C751 C752 1.366 . S
C751 C753 1.388 . S
C752 C751 1.366 . S
C752 C756 1.385 . S
C753 H728 0.951 . S
C753 C751 1.388 . S
C753 C754 1.366 . S
C754 C753 1.366 . S
C754 C755 1.414 . S
C754 C757 1.499 . S
C755 H729 0.950 . S
C755 C754 1.414 . S
C755 C756 1.374 . S
C756 H730 0.950 . S
C756 C752 1.385 . S
C756 C755 1.374 . S
C757 C754 1.499 . S
C757 C758 1.373 . S
C757 C759 1.389 . S
C758 H731 0.950 . S
C758 C744 1.377 . S
C758 C757 1.373 . S
C759 C743 1.377 . S
C759 C757 1.389 . S
C759 C760 1.524 1_455 S
C760 C759 1.524 1_655 S
C760 C761 1.397 . S
C760 C765 1.363 . S
C761 H732 0.950 . S
C761 C760 1.397 . S
C761 C762 1.334 . S
C762 H733 0.950 . S
C762 C761 1.334 . S
C762 C763 1.287 . S
C763 C762 1.287 . S
C763 C764 1.524 . S
C763 H766 0.999 . S
C764 H734 0.950 . S
C764 C763 1.524 . S
C764 C765 1.415 . S
C765 H735 0.950 . S
C765 C760 1.363 . S
C765 C764 1.415 . S
H766 C763 0.999 . S
H767 C748 0.913 . S
H768 C786 0.951 . S
H769 C788 0.951 . S
H770 C790 0.950 . S
H771 C791 0.950 . S
H772 C793 0.950 . S
H773 C796 0.950 . S
H774 C797 0.950 . S
H775 C799 0.950 . S
H776 C800 0.950 . S
H777 C801 0.951 . S
H778 C803 0.951 . S
H779 C805 0.950 . S
H780 C806 0.950 . S
H781 C808 0.950 . S
H782 C811 0.950 . S
H783 C812 0.950 . S
H784 C814 0.950 . S
H785 C815 0.950 . S
C786 H768 0.951 . S
C786 C787 1.366 . S
C786 C788 1.388 . S
C787 C786 1.366 . S
C787 C791 1.385 . S
C788 H769 0.951 . S
C788 C786 1.388 . S
C788 C789 1.366 . S
C789 C788 1.366 . S
C789 C790 1.414 . S
C789 C792 1.499 . S
C790 H770 0.950 . S
C790 C789 1.414 . S
C790 C791 1.374 . S
C791 H771 0.950 . S
C791 C787 1.385 . S
C791 C790 1.374 . S
C792 C789 1.499 . S
C792 C793 1.373 . S
C792 C794 1.389 . S
C793 H772 0.950 . S
C793 C792 1.373 . S
C793 C809 1.377 . S
C794 C792 1.389 . S
C794 C795 1.524 . S
C794 C808 1.377 . S
C795 C794 1.524 . S
C795 C796 1.397 . S
C795 C800 1.363 . S
C796 H773 0.950 . S
C796 C795 1.397 . S
C796 C797 1.334 . S
C797 H774 0.950 . S
C797 C796 1.334 . S
C797 C798 1.287 . S
C798 C797 1.287 . S
C798 C799 1.524 . S
C798 H817 0.913 . S
C799 H775 0.950 . S
C799 C798 1.524 . S
C799 C800 1.415 . S
C800 H776 0.950 . S
C800 C795 1.363 . S
C800 C799 1.415 . S
C801 H777 0.951 . S
C801 C802 1.366 . S
C801 C803 1.388 . S
C802 C801 1.366 . S
C802 C806 1.385 . S
C803 H778 0.951 . S
C803 C801 1.388 . S
C803 C804 1.366 . S
C804 C803 1.366 . S
C804 C805 1.414 . S
C804 C807 1.625 . S
C805 H779 0.950 . S
C805 C804 1.414 . S
C805 C806 1.374 . S
C806 H780 0.950 . S
C806 C802 1.385 . S
C806 C805 1.374 . S
C807 C804 1.625 . S
C807 C808 1.290 1_556 S
C807 C809 1.351 1_556 S
C808 H781 0.950 . S
C808 C794 1.377 . S
C808 C807 1.290 1_554 S
C809 C793 1.377 . S
C809 C807 1.351 1_554 S
C809 C810 1.524 1_554 S
C810 C809 1.524 1_556 S
C810 C811 1.397 . S
C810 C815 1.363 . S
C811 H782 0.950 . S
C811 C810 1.397 . S
C811 C812 1.334 . S
C812 H783 0.950 . S
C812 C811 1.334 . S
C812 C813 1.287 . S
C813 C812 1.287 . S
C813 C814 1.524 . S
C813 H816 0.999 . S
C814 H784 0.950 . S
C814 C813 1.524 . S
C814 C815 1.415 . S
C815 H785 0.950 . S
C815 C810 1.363 . S
C815 C814 1.415 . S
H816 C813 0.999 . S
H817 C798 0.913 . S
H818 C836 0.951 . S
H819 C838 0.951 . S
H820 C840 0.950 . S
H821 C841 0.950 . S
H822 C843 0.950 . S
H823 C846 0.950 . S
H824 C847 0.950 . S
H825 C849 0.950 . S
H826 C850 0.950 . S
H827 C851 0.951 . S
H828 C853 0.951 . S
H829 C855 0.950 . S
H830 C856 0.950 . S
H831 C858 0.950 . S
H832 C861 0.950 . S
H833 C862 0.950 . S
H834 C864 0.950 . S
H835 C865 0.950 . S
C836 H818 0.951 . S
C836 C837 1.366 . S
C836 C838 1.388 . S
C837 C836 1.366 . S
C837 C841 1.385 . S
C838 H819 0.951 . S
C838 C836 1.388 . S
C838 C839 1.366 . S
C839 C838 1.366 . S
C839 C840 1.414 . S
C839 C842 1.499 . S
C840 H820 0.950 . S
C840 C839 1.414 . S
C840 C841 1.374 . S
C841 H821 0.950 . S
C841 C837 1.385 . S
C841 C840 1.374 . S
C842 C839 1.499 . S
C842 C843 1.373 . S
C842 C844 1.389 . S
C843 H822 0.950 . S
C843 C842 1.373 . S
C843 C859 1.377 . S
C844 C842 1.389 . S
C844 C845 1.524 . S
C844 C858 1.377 . S
C845 C844 1.524 . S
C845 C846 1.397 . S
C845 C850 1.363 . S
C846 H823 0.950 . S
C846 C845 1.397 . S
C846 C847 1.334 1_545 S
C847 H824 0.950 . S
C847 C846 1.334 1_565 S
C847 C848 1.287 . S
C848 C847 1.287 . S
C848 C849 1.524 . S
C848 H867 0.913 . S
C849 H825 0.950 . S
C849 C848 1.524 . S
C849 C850 1.415 1_565 S
C850 H826 0.950 . S
C850 C845 1.363 . S
C850 C849 1.415 1_545 S
C851 H827 0.951 . S
C851 C852 1.366 . S
C851 C853 1.388 . S
C852 C851 1.366 . S
C852 C856 1.385 . S
C853 H828 0.951 . S
C853 C851 1.388 . S
C853 C854 1.366 . S
C854 C853 1.366 . S
C854 C855 1.414 . S
C854 C857 1.499 . S
C855 H829 0.950 . S
C855 C854 1.414 . S
C855 C856 1.374 . S
C856 H830 0.950 . S
C856 C852 1.385 . S
C856 C855 1.374 . S
C857 C854 1.499 . S
C857 C858 1.373 . S
C857 C859 1.389 . S
C858 H831 0.950 . S
C858 C844 1.377 . S
C858 C857 1.373 . S
C859 C843 1.377 . S
C859 C857 1.389 . S
C859 C860 1.524 . S
C860 C859 1.524 . S
C860 C861 1.397 . S
C860 C865 1.363 . S
C861 H832 0.950 . S
C861 C860 1.397 . S
C861 C862 1.334 . S
C862 H833 0.950 . S
C862 C861 1.334 . S
C862 C863 1.287 . S
C863 C862 1.287 . S
C863 C864 1.524 . S
C863 H866 0.999 . S
C864 H834 0.950 . S
C864 C863 1.524 . S
C864 C865 1.415 . S
C865 H835 0.950 . S
C865 C860 1.363 . S
C865 C864 1.415 . S
H866 C863 0.999 . S
H867 C848 0.913 . S
H868 C886 0.951 . S
H869 C888 0.951 . S
H870 C890 0.950 . S
H871 C891 0.950 . S
H872 C893 0.962 . S
H873 C896 0.950 . S
H874 C897 0.950 . S
H875 C899 0.950 . S
H876 C900 0.950 . S
H877 C901 0.951 . S
H878 C903 0.951 . S
H879 C905 0.950 . S
H880 C906 0.950 . S
H881 C908 0.950 . S
H882 C911 0.950 . S
H883 C912 0.950 . S
H884 C914 0.950 . S
H885 C915 0.950 1_545 S
C886 H868 0.951 . S
C886 C887 1.366 . S
C886 C888 1.388 . S
C887 C886 1.366 . S
C887 C891 1.385 1_655 S
C888 H869 0.951 . S
C888 C886 1.388 . S
C888 C889 1.366 . S
C889 C888 1.366 . S
C889 C890 1.414 1_655 S
C889 C892 1.503 1_655 S
C890 H870 0.950 . S
C890 C889 1.414 1_455 S
C890 C891 1.374 . S
C891 H871 0.950 . S
C891 C887 1.385 1_455 S
C891 C890 1.374 . S
C892 C889 1.503 1_455 S
C892 C893 1.372 . S
C892 C894 1.380 1_455 S
C893 H872 0.962 . S
C893 C892 1.372 . S
C893 C909 1.370 1_455 S
C894 C892 1.380 1_655 S
C894 C895 1.524 1_655 S
C894 C908 1.377 . S
C895 C894 1.524 1_455 S
C895 C896 1.397 . S
C895 C900 1.363 1_455 S
C896 H873 0.950 . S
C896 C895 1.397 . S
C896 C897 1.334 . S
C897 H874 0.950 . S
C897 C896 1.334 . S
C897 C898 1.287 . S
C898 C897 1.287 . S
C898 C899 1.524 1_455 S
C898 H917 0.913 . S
C899 H875 0.950 . S
C899 C898 1.524 1_655 S
C899 C900 1.415 . S
C900 H876 0.950 . S
C900 C895 1.363 1_655 S
C900 C899 1.415 . S
C901 H877 0.951 . S
C901 C902 1.366 . S
C901 C903 1.388 . S
C902 C901 1.366 . S
C902 C906 1.385 1_455 S
C903 H878 0.951 . S
C903 C901 1.388 . S
C903 C904 1.366 1_455 S
C904 C903 1.366 1_655 S
C904 C905 1.414 . S
C904 C907 1.499 . S
C905 H879 0.950 . S
C905 C904 1.414 . S
C905 C906 1.374 . S
C906 H880 0.950 . S
C906 C902 1.385 1_655 S
C906 C905 1.374 . S
C907 C904 1.499 . S
C907 C908 1.373 . S
C907 C909 1.389 . S
C908 H881 0.950 . S
C908 C894 1.377 . S
C908 C907 1.373 . S
C909 C893 1.370 1_655 S
C909 C907 1.389 . S
C909 C910 1.524 . S
C910 C909 1.524 . S
C910 C911 1.397 1_545 S
C910 C915 1.363 1_645 S
C911 H882 0.950 . S
C911 C910 1.397 1_565 S
C911 C912 1.334 . S
C912 H883 0.950 . S
C912 C911 1.334 . S
C912 C913 1.287 . S
C913 C912 1.287 . S
C913 C914 1.524 1_655 S
C913 H916 0.999 . S
C914 H884 0.950 . S
C914 C913 1.524 1_455 S
C914 C915 1.415 . S
C915 H885 0.950 1_565 S
C915 C910 1.363 1_465 S
C915 C914 1.415 . S
H916 C913 0.999 . S
H917 C898 0.913 . S
C337 C39 1.500 . S
C352 C38 1.500 . S
C387 C91 1.499 . S
C402 C92 1.499 . S
C437 C145 1.500 . S
C452 C144 1.500 . S
C487 C198 1.499 . S
C502 C197 1.498 . S
C537 C251 1.500 . S
C552 C250 1.500 1_655 S
C587 C304 1.500 . S
C602 C303 1.500 . S
C637 C287 1.553 . S
C652 C22 1.553 . S
C687 C181 1.553 . S
C702 C75 1.553 . S
C737 C128 1.547 . S
C752 C234 1.548 . S
C787 C29 1.562 . S
C802 C241 1.560 . S
C837 C294 1.572 . S
C852 C82 1.571 . S
C887 C188 1.563 . S
C902 C135 1.560 . S
