# Generated by pormake.
# Topology wio, (6)-cn, num edge types: 1
# Building blocks:
#     Node 0, Type 0, BuildingBlock: CUWYAW_clean_sbu_0, # of connection points: 6
#     Node 1, Type 0, BuildingBlock: CUWYAW_clean_sbu_0, # of connection points: 6
#     Node 2, Type 0, BuildingBlock: CUWYAW_clean_sbu_0, # of connection points: 6
#     Node 3, Type 0, BuildingBlock: CUWYAW_clean_sbu_0, # of connection points: 6
#     Node 4, Type 0, BuildingBlock: CUWYAW_clean_sbu_0, # of connection points: 6
#     Node 5, Type 0, BuildingBlock: CUWYAW_clean_sbu_0, # of connection points: 6
#     Node 6, Type 0, BuildingBlock: CUWYAW_clean_sbu_0, # of connection points: 6
#     Node 7, Type 0, BuildingBlock: CUWYAW_clean_sbu_0, # of connection points: 6
#     Node 8, Type 0, BuildingBlock: CUWYAW_clean_sbu_0, # of connection points: 6
#     Node 9, Type 0, BuildingBlock: CUWYAW_clean_sbu_0, # of connection points: 6
#     Node 10, Type 0, BuildingBlock: CUWYAW_clean_sbu_0, # of connection points: 6
#     Node 11, Type 0, BuildingBlock: CUWYAW_clean_sbu_0, # of connection points: 6
#     Node 12, Type 0, BuildingBlock: CUWYAW_clean_sbu_0, # of connection points: 6
#     Node 13, Type 0, BuildingBlock: CUWYAW_clean_sbu_0, # of connection points: 6
#     Node 14, Type 0, BuildingBlock: CUWYAW_clean_sbu_0, # of connection points: 6
#     Node 15, Type 0, BuildingBlock: CUWYAW_clean_sbu_0, # of connection points: 6
#     Node 16, Type 0, BuildingBlock: CUWYAW_clean_sbu_0, # of connection points: 6
#     Node 17, Type 0, BuildingBlock: CUWYAW_clean_sbu_0, # of connection points: 6
#     Node 18, Type 0, BuildingBlock: CUWYAW_clean_sbu_0, # of connection points: 6
#     Node 19, Type 0, BuildingBlock: CUWYAW_clean_sbu_0, # of connection points: 6
#     Node 20, Type 0, BuildingBlock: CUWYAW_clean_sbu_0, # of connection points: 6
#     Node 21, Type 0, BuildingBlock: CUWYAW_clean_sbu_0, # of connection points: 6
#     Node 22, Type 0, BuildingBlock: CUWYAW_clean_sbu_0, # of connection points: 6
#     Node 23, Type 0, BuildingBlock: CUWYAW_clean_sbu_0, # of connection points: 6
#     Node 24, Type 0, BuildingBlock: CUWYAW_clean_sbu_0, # of connection points: 6
#     Node 25, Type 0, BuildingBlock: CUWYAW_clean_sbu_0, # of connection points: 6
#     Node 26, Type 0, BuildingBlock: CUWYAW_clean_sbu_0, # of connection points: 6
#     Node 27, Type 0, BuildingBlock: CUWYAW_clean_sbu_0, # of connection points: 6
#     Node 28, Type 0, BuildingBlock: CUWYAW_clean_sbu_0, # of connection points: 6
#     Node 29, Type 0, BuildingBlock: CUWYAW_clean_sbu_0, # of connection points: 6
#     Node 30, Type 0, BuildingBlock: CUWYAW_clean_sbu_0, # of connection points: 6
#     Node 31, Type 0, BuildingBlock: CUWYAW_clean_sbu_0, # of connection points: 6
#     Edge 32, Type (0, 0), BuildingBlock: AJUNOK_clean_linker_0, # of connection points: 2
#     Edge 33, Type (0, 0), BuildingBlock: AJUNOK_clean_linker_0, # of connection points: 2
#     Edge 34, Type (0, 0), BuildingBlock: AJUNOK_clean_linker_0, # of connection points: 2
#     Edge 35, Type (0, 0), BuildingBlock: AJUNOK_clean_linker_0, # of connection points: 2
#     Edge 36, Type (0, 0), BuildingBlock: AJUNOK_clean_linker_0, # of connection points: 2
#     Edge 37, Type (0, 0), BuildingBlock: AJUNOK_clean_linker_0, # of connection points: 2
#     Edge 38, Type (0, 0), BuildingBlock: AJUNOK_clean_linker_0, # of connection points: 2
#     Edge 39, Type (0, 0), BuildingBlock: AJUNOK_clean_linker_0, # of connection points: 2
#     Edge 40, Type (0, 0), BuildingBlock: AJUNOK_clean_linker_0, # of connection points: 2
#     Edge 41, Type (0, 0), BuildingBlock: AJUNOK_clean_linker_0, # of connection points: 2
#     Edge 42, Type (0, 0), BuildingBlock: AJUNOK_clean_linker_0, # of connection points: 2
#     Edge 43, Type (0, 0), BuildingBlock: AJUNOK_clean_linker_0, # of connection points: 2
#     Edge 44, Type (0, 0), BuildingBlock: AJUNOK_clean_linker_0, # of connection points: 2
#     Edge 45, Type (0, 0), BuildingBlock: AJUNOK_clean_linker_0, # of connection points: 2
#     Edge 46, Type (0, 0), BuildingBlock: AJUNOK_clean_linker_0, # of connection points: 2
#     Edge 47, Type (0, 0), BuildingBlock: AJUNOK_clean_linker_0, # of connection points: 2
#     Edge 48, Type (0, 0), BuildingBlock: AJUNOK_clean_linker_0, # of connection points: 2
#     Edge 49, Type (0, 0), BuildingBlock: AJUNOK_clean_linker_0, # of connection points: 2
#     Edge 50, Type (0, 0), BuildingBlock: AJUNOK_clean_linker_0, # of connection points: 2
#     Edge 51, Type (0, 0), BuildingBlock: AJUNOK_clean_linker_0, # of connection points: 2
#     Edge 52, Type (0, 0), BuildingBlock: AJUNOK_clean_linker_0, # of connection points: 2
#     Edge 53, Type (0, 0), BuildingBlock: AJUNOK_clean_linker_0, # of connection points: 2
#     Edge 54, Type (0, 0), BuildingBlock: AJUNOK_clean_linker_0, # of connection points: 2
#     Edge 55, Type (0, 0), BuildingBlock: AJUNOK_clean_linker_0, # of connection points: 2
#     Edge 56, Type (0, 0), BuildingBlock: AJUNOK_clean_linker_0, # of connection points: 2
#     Edge 57, Type (0, 0), BuildingBlock: AJUNOK_clean_linker_0, # of connection points: 2
#     Edge 58, Type (0, 0), BuildingBlock: AJUNOK_clean_linker_0, # of connection points: 2
#     Edge 59, Type (0, 0), BuildingBlock: AJUNOK_clean_linker_0, # of connection points: 2
#     Edge 60, Type (0, 0), BuildingBlock: AJUNOK_clean_linker_0, # of connection points: 2
#     Edge 61, Type (0, 0), BuildingBlock: AJUNOK_clean_linker_0, # of connection points: 2
#     Edge 62, Type (0, 0), BuildingBlock: AJUNOK_clean_linker_0, # of connection points: 2
#     Edge 63, Type (0, 0), BuildingBlock: AJUNOK_clean_linker_0, # of connection points: 2
#     Edge 64, Type (0, 0), BuildingBlock: AJUNOK_clean_linker_0, # of connection points: 2
#     Edge 65, Type (0, 0), BuildingBlock: AJUNOK_clean_linker_0, # of connection points: 2
#     Edge 66, Type (0, 0), BuildingBlock: AJUNOK_clean_linker_0, # of connection points: 2
#     Edge 67, Type (0, 0), BuildingBlock: AJUNOK_clean_linker_0, # of connection points: 2
#     Edge 68, Type (0, 0), BuildingBlock: AJUNOK_clean_linker_0, # of connection points: 2
#     Edge 69, Type (0, 0), BuildingBlock: AJUNOK_clean_linker_0, # of connection points: 2
#     Edge 70, Type (0, 0), BuildingBlock: AJUNOK_clean_linker_0, # of connection points: 2
#     Edge 71, Type (0, 0), BuildingBlock: AJUNOK_clean_linker_0, # of connection points: 2
#     Edge 72, Type (0, 0), BuildingBlock: AJUNOK_clean_linker_0, # of connection points: 2
#     Edge 73, Type (0, 0), BuildingBlock: AJUNOK_clean_linker_0, # of connection points: 2
#     Edge 74, Type (0, 0), BuildingBlock: AJUNOK_clean_linker_0, # of connection points: 2
#     Edge 75, Type (0, 0), BuildingBlock: AJUNOK_clean_linker_0, # of connection points: 2
#     Edge 76, Type (0, 0), BuildingBlock: AJUNOK_clean_linker_0, # of connection points: 2
#     Edge 77, Type (0, 0), BuildingBlock: AJUNOK_clean_linker_0, # of connection points: 2
#     Edge 78, Type (0, 0), BuildingBlock: AJUNOK_clean_linker_0, # of connection points: 2
#     Edge 79, Type (0, 0), BuildingBlock: AJUNOK_clean_linker_0, # of connection points: 2
#     Edge 80, Type (0, 0), BuildingBlock: AJUNOK_clean_linker_0, # of connection points: 2
#     Edge 81, Type (0, 0), BuildingBlock: AJUNOK_clean_linker_0, # of connection points: 2
#     Edge 82, Type (0, 0), BuildingBlock: AJUNOK_clean_linker_0, # of connection points: 2
#     Edge 83, Type (0, 0), BuildingBlock: AJUNOK_clean_linker_0, # of connection points: 2
#     Edge 84, Type (0, 0), BuildingBlock: AJUNOK_clean_linker_0, # of connection points: 2
#     Edge 85, Type (0, 0), BuildingBlock: AJUNOK_clean_linker_0, # of connection points: 2
#     Edge 86, Type (0, 0), BuildingBlock: AJUNOK_clean_linker_0, # of connection points: 2
#     Edge 87, Type (0, 0), BuildingBlock: AJUNOK_clean_linker_0, # of connection points: 2
#     Edge 88, Type (0, 0), BuildingBlock: AJUNOK_clean_linker_0, # of connection points: 2
#     Edge 89, Type (0, 0), BuildingBlock: AJUNOK_clean_linker_0, # of connection points: 2
#     Edge 90, Type (0, 0), BuildingBlock: AJUNOK_clean_linker_0, # of connection points: 2
#     Edge 91, Type (0, 0), BuildingBlock: AJUNOK_clean_linker_0, # of connection points: 2
#     Edge 92, Type (0, 0), BuildingBlock: AJUNOK_clean_linker_0, # of connection points: 2
#     Edge 93, Type (0, 0), BuildingBlock: AJUNOK_clean_linker_0, # of connection points: 2
#     Edge 94, Type (0, 0), BuildingBlock: AJUNOK_clean_linker_0, # of connection points: 2
#     Edge 95, Type (0, 0), BuildingBlock: AJUNOK_clean_linker_0, # of connection points: 2
#     Edge 96, Type (0, 0), BuildingBlock: AJUNOK_clean_linker_0, # of connection points: 2
#     Edge 97, Type (0, 0), BuildingBlock: AJUNOK_clean_linker_0, # of connection points: 2
#     Edge 98, Type (0, 0), BuildingBlock: AJUNOK_clean_linker_0, # of connection points: 2
#     Edge 99, Type (0, 0), BuildingBlock: AJUNOK_clean_linker_0, # of connection points: 2
#     Edge 100, Type (0, 0), BuildingBlock: AJUNOK_clean_linker_0, # of connection points: 2
#     Edge 101, Type (0, 0), BuildingBlock: AJUNOK_clean_linker_0, # of connection points: 2
#     Edge 102, Type (0, 0), BuildingBlock: AJUNOK_clean_linker_0, # of connection points: 2
#     Edge 103, Type (0, 0), BuildingBlock: AJUNOK_clean_linker_0, # of connection points: 2
#     Edge 104, Type (0, 0), BuildingBlock: AJUNOK_clean_linker_0, # of connection points: 2
#     Edge 105, Type (0, 0), BuildingBlock: AJUNOK_clean_linker_0, # of connection points: 2
#     Edge 106, Type (0, 0), BuildingBlock: AJUNOK_clean_linker_0, # of connection points: 2
#     Edge 107, Type (0, 0), BuildingBlock: AJUNOK_clean_linker_0, # of connection points: 2
#     Edge 108, Type (0, 0), BuildingBlock: AJUNOK_clean_linker_0, # of connection points: 2
#     Edge 109, Type (0, 0), BuildingBlock: AJUNOK_clean_linker_0, # of connection points: 2
#     Edge 110, Type (0, 0), BuildingBlock: AJUNOK_clean_linker_0, # of connection points: 2
#     Edge 111, Type (0, 0), BuildingBlock: AJUNOK_clean_linker_0, # of connection points: 2
#     Edge 112, Type (0, 0), BuildingBlock: AJUNOK_clean_linker_0, # of connection points: 2
#     Edge 113, Type (0, 0), BuildingBlock: AJUNOK_clean_linker_0, # of connection points: 2
#     Edge 114, Type (0, 0), BuildingBlock: AJUNOK_clean_linker_0, # of connection points: 2
#     Edge 115, Type (0, 0), BuildingBlock: AJUNOK_clean_linker_0, # of connection points: 2
#     Edge 116, Type (0, 0), BuildingBlock: AJUNOK_clean_linker_0, # of connection points: 2
#     Edge 117, Type (0, 0), BuildingBlock: AJUNOK_clean_linker_0, # of connection points: 2
#     Edge 118, Type (0, 0), BuildingBlock: AJUNOK_clean_linker_0, # of connection points: 2
#     Edge 119, Type (0, 0), BuildingBlock: AJUNOK_clean_linker_0, # of connection points: 2
#     Edge 120, Type (0, 0), BuildingBlock: AJUNOK_clean_linker_0, # of connection points: 2
#     Edge 121, Type (0, 0), BuildingBlock: AJUNOK_clean_linker_0, # of connection points: 2
#     Edge 122, Type (0, 0), BuildingBlock: AJUNOK_clean_linker_0, # of connection points: 2
#     Edge 123, Type (0, 0), BuildingBlock: AJUNOK_clean_linker_0, # of connection points: 2
#     Edge 124, Type (0, 0), BuildingBlock: AJUNOK_clean_linker_0, # of connection points: 2
#     Edge 125, Type (0, 0), BuildingBlock: AJUNOK_clean_linker_0, # of connection points: 2
#     Edge 126, Type (0, 0), BuildingBlock: AJUNOK_clean_linker_0, # of connection points: 2
#     Edge 127, Type (0, 0), BuildingBlock: AJUNOK_clean_linker_0, # of connection points: 2
# Relax obj value: 0.200
# Max RMSD: 0.239
# Mean RMSD: 0.239
data_MOF--net-wio--node1-CUWYAW_clean_sbu_0--edge1-AJUNOK_clean_linker_0
_symmetry_space_group_name_H-M    P1
_symmetry_Int_Tables_number       1
_symmetry_cell_setting            triclinic
loop_
_symmetry_equiv_pos_as_xyz
'x, y, z'
_cell_length_a     49.446664
_cell_length_b     49.38885
_cell_length_c     41.559004
_cell_angle_alpha  89.77881
_cell_angle_beta   90.104118
_cell_angle_gamma 89.934635
loop_
_atom_site_label
_atom_site_type_symbol
_atom_site_fract_x
_atom_site_fract_y
_atom_site_fract_z
_atom_type_partial_charge
C0 C 0.06016 0.14369 0.32719 0.0
Eu1 Eu 0.10611 0.12484 0.30508 0.0
C2 C 0.04209 0.1426 0.35589 0.0
C3 C 0.02061 0.12401 0.35701 0.0
C4 C 1.00158 0.1249 0.38186 0.0
C5 C 1.00323 0.1446 0.40616 0.0
C6 C 0.02527 0.16254 0.40593 0.0
C7 C 0.0444 0.16168 0.38094 0.0
C8 C 0.1163 0.07402 0.28073 0.0
C9 C 0.1378 0.09131 0.3614 0.0
C10 C 0.21444 0.09978 0.28352 0.0
Eu11 Eu 0.16517 0.11383 0.29776 0.0
C12 C 0.23617 0.11155 0.26432 0.0
C13 C 0.23176 0.13562 0.2471 0.0
C14 C 0.25158 0.14537 0.22626 0.0
C15 C 0.27594 0.13112 0.22247 0.0
C16 C 0.28096 0.10798 0.24127 0.0
C17 C 0.26108 0.09819 0.26209 0.0
C18 C 0.15413 0.15918 0.33197 0.0
C19 C 0.13288 0.13931 0.23553 0.0
O20 O 0.08323 0.15637 0.32993 0.0
O21 O 0.06214 0.12205 0.30932 0.0
O22 O 0.09518 0.08862 0.27366 0.0
O23 O 0.12995 0.08652 0.30148 0.0
O24 O 0.11785 0.1085 0.35524 0.0
O25 O 0.15615 0.08608 0.33926 0.0
O26 O 0.19323 0.09166 0.26734 0.0
O27 O 0.20805 0.11324 0.30938 0.0
O28 O 0.17397 0.14285 0.33768 0.0
O29 O 0.1418 0.1521 0.30648 0.0
O30 O 0.1556 0.12924 0.2473 0.0
O31 O 0.11078 0.14131 0.25356 0.0
H32 H 0.01803 0.10914 0.33816 0.0
H33 H 0.98512 0.11044 0.3817 0.0
H34 H 0.02711 0.1779 0.42434 0.0
H35 H 0.06056 0.17647 0.38077 0.0
H36 H 0.21264 0.14625 0.24886 0.0
H37 H 0.24736 0.16321 0.21184 0.0
H38 H 0.29952 0.09658 0.23836 0.0
H39 H 0.26473 0.07966 0.27546 0.0
C40 C 0.13747 0.80152 0.57305 0.0
Eu41 Eu 0.15789 0.84722 0.55242 0.0
C42 C 0.13691 0.78503 0.60325 0.0
C43 C 0.15948 0.7694 0.61239 0.0
C44 C 0.15812 0.75168 0.63867 0.0
C45 C 0.13422 0.74903 0.65663 0.0
C46 C 0.11193 0.76538 0.64855 0.0
C47 C 0.11321 0.7831 0.62196 0.0
C48 C 0.20971 0.85802 0.53391 0.0
C49 C 0.18942 0.88188 0.60709 0.0
C50 C 0.17533 0.96113 0.5381 0.0
Eu51 Eu 0.1632 0.91004 0.54338 0.0
C52 C 0.16395 0.98311 0.51847 0.0
C53 C 0.14079 0.97841 0.49977 0.0
C54 C 0.13216 0.99772 0.4774 0.0
C55 C 0.14664 0.02194 0.47335 0.0
C56 C 0.1688 0.02734 0.49352 0.0
C57 C 0.17749 1.00794 0.51592 0.0
C58 C 0.11549 0.89189 0.56974 0.0
C59 C 0.14353 0.8756 0.48146 0.0
O60 O 0.12374 0.82422 0.57228 0.0
O61 O 0.16064 0.8035 0.55805 0.0
O62 O 0.19996 0.83385 0.5382 0.0
O63 O 0.19064 0.87506 0.5374 0.0
O64 O 0.17786 0.85839 0.6 0.0
O65 O 0.18827 0.90317 0.58778 0.0
O66 O 0.18741 0.94202 0.52172 0.0
O67 O 0.15956 0.9515 0.56064 0.0
O68 O 0.11701 0.91148 0.54884 0.0
O69 O 0.13906 0.88321 0.57463 0.0
O70 O 0.15273 0.89897 0.49222 0.0
O71 O 0.14161 0.85374 0.50042 0.0
H72 H 0.17808 0.77018 0.5987 0.0
H73 H 0.17561 0.73933 0.64442 0.0
H74 H 0.09322 0.76361 0.66189 0.0
H75 H 0.09542 0.79475 0.61552 0.0
H76 H 0.13015 0.95928 0.50143 0.0
H77 H 0.11501 0.99318 0.46209 0.0
H78 H 0.18038 0.04578 0.49056 0.0
H79 H 0.19544 1.0118 0.53015 0.0
C80 C 0.48521 0.89795 0.82261 0.0
Eu81 Eu 0.43604 0.90921 0.80247 0.0
C82 C 0.50173 0.89572 0.85244 0.0
C83 C 0.52849 0.88635 0.85047 0.0
C84 C 0.54519 0.88558 0.87783 0.0
C85 C 0.53554 0.89404 0.90806 0.0
C86 C 0.50831 0.90259 0.91007 0.0
C87 C 0.49176 0.90379 0.88252 0.0
C88 C 0.41732 0.95884 0.7817 0.0
C89 C 0.39849 0.93104 0.86251 0.0
C90 C 0.32464 0.92815 0.77799 0.0
Eu91 Eu 0.37285 0.91273 0.79476 0.0
C92 C 0.30344 0.91741 0.75662 0.0
C93 C 0.27617 0.92198 0.76393 0.0
C94 C 0.25587 0.91328 0.74291 0.0
C95 C 0.26254 0.9001 0.71403 0.0
C96 C 0.28985 0.89442 0.70751 0.0
C97 C 0.31013 0.90297 0.72865 0.0
C98 C 0.38683 0.86279 0.81937 0.0
C99 C 0.40932 0.89311 0.73286 0.0
O100 O 0.46665 0.87953 0.81756 0.0
O101 O 0.47703 0.92218 0.81439 0.0
O102 O 0.43891 0.94666 0.77103 0.0
O103 O 0.40608 0.9431 0.80169 0.0
O104 O 0.42242 0.92207 0.85271 0.0
O105 O 0.37699 0.93156 0.84353 0.0
O106 O 0.34674 0.93685 0.76386 0.0
O107 O 0.32949 0.9142 0.80428 0.0
O108 O 0.36226 0.87001 0.8125 0.0
O109 O 0.40203 0.88187 0.81039 0.0
O110 O 0.38573 0.90088 0.74448 0.0
O111 O 0.43174 0.89295 0.75076 0.0
H112 H 0.53673 0.88014 0.82751 0.0
H113 H 0.56598 0.87908 0.87506 0.0
H114 H 0.49972 0.9085 0.93292 0.0
H115 H 0.47124 0.91121 0.88471 0.0
H116 H 0.2706 0.93273 0.78561 0.0
H117 H 0.23496 0.9174 0.74889 0.0
H118 H 0.29559 0.88433 0.68545 0.0
H119 H 0.33106 0.89887 0.72272 0.0
C120 C 0.40109 0.22088 0.08701 0.0
Eu121 Eu 0.38136 0.17689 0.06046 0.0
C122 C 0.39713 0.2411 0.11323 0.0
C123 C 0.39598 0.26875 0.10534 0.0
C124 C 0.39414 0.28849 0.1294 0.0
C125 C 0.39354 0.28125 0.16222 0.0
C126 C 0.39477 0.25353 0.17022 0.0
C127 C 0.39658 0.23369 0.14604 0.0
C128 C 0.32996 0.16866 1.03591 0.0
C129 C 0.34724 0.14202 0.11375 0.0
C130 C 0.35143 0.07119 1.02604 0.0
Eu131 Eu 0.36832 0.11757 0.04757 0.0
C132 C 0.36093 0.0495 1.00455 0.0
C133 C 0.38594 0.03646 1.00943 0.0
C134 C 0.39397 1.01528 0.98933 0.0
C135 C 0.37725 1.00694 0.96386 0.0
C136 C 0.3524 0.02022 0.95891 0.0
C137 C 0.34431 0.04122 0.97911 0.0
C138 C 0.41457 0.12512 0.08132 0.0
C139 C 0.39745 0.15248 0.99022 0.0
O140 O 0.40822 0.19628 0.09511 0.0
O141 O 0.38444 0.22126 0.06248 0.0
O142 O 0.3441 0.1906 1.0318 0.0
O143 O 0.34306 0.15374 0.0548 0.0
O144 O 0.36408 0.1625 0.10895 0.0
O145 O 0.34214 0.12441 0.09071 0.0
O146 O 0.3451 0.09436 1.01249 0.0
O147 O 0.36425 0.07407 0.05339 0.0
O148 O 0.39866 0.1045 0.08451 0.0
O149 O 0.40683 0.13984 0.05786 0.0
O150 O 0.38504 0.13012 0.99932 0.0
O151 O 0.40039 0.17339 1.01005 0.0
H152 H 0.3968 0.27517 0.0804 0.0
H153 H 0.39337 0.3096 0.12226 0.0
H154 H 0.39385 0.24713 0.19514 0.0
H155 H 0.39761 0.21257 0.15306 0.0
H156 H 0.39921 0.04244 1.02891 0.0
H157 H 0.41305 1.0052 0.99398 0.0
H158 H 0.33924 1.01446 0.93923 0.0
H159 H 0.32497 0.05096 0.97489 0.0
C160 C 0.05985 0.88277 0.24712 0.0
Eu161 Eu 0.10487 0.90291 0.27066 0.0
C162 C 0.04008 0.88524 0.22012 0.0
C163 C 1.01232 0.88554 0.22709 0.0
C164 C 0.99305 0.8864 0.20234 0.0
C165 C 1.00091 0.88686 0.16977 0.0
C166 C 0.02876 0.88631 0.1627 0.0
C167 C 0.04814 0.8855 0.18758 0.0
C168 C 0.11454 0.95538 0.2898 0.0
C169 C 0.13944 0.9315 0.21233 0.0
C170 C 0.21177 0.93165 0.29724 0.0
Eu171 Eu 0.16405 0.91477 0.2802 0.0
C172 C 0.23318 0.9215 0.31834 0.0
C173 C 0.2293 0.89765 0.33613 0.0
C174 C 0.2492 0.88877 0.35751 0.0
C175 C 0.27318 0.90363 0.36126 0.0
C176 C 0.27758 0.92674 0.34223 0.0
C177 C 0.2576 0.93567 0.32088 0.0
C178 C 0.15507 0.86699 0.25029 0.0
C179 C 0.13072 0.88998 0.34176 0.0
O180 O 0.08398 0.87366 0.24039 0.0
O181 O 0.06041 0.90182 0.2689 0.0
O182 O 0.09299 0.94164 0.29721 0.0
O183 O 0.12874 0.94117 0.27132 0.0
O184 O 0.1176 0.91744 0.22021 0.0
O185 O 0.15811 0.93721 0.23391 0.0
O186 O 0.18943 0.93933 0.3115 0.0
O187 O 0.20729 0.91704 0.27168 0.0
O188 O 0.17573 0.88247 0.24552 0.0
O189 O 0.14099 0.87594 0.27361 0.0
O190 O 0.15332 0.90059 0.33056 0.0
O191 O 0.10904 0.88719 0.32295 0.0
H192 H 1.00548 0.88496 0.25184 0.0
H193 H 0.97182 0.88673 0.20872 0.0
H194 H 0.03558 0.88715 0.13797 0.0
H195 H 0.06939 0.88513 0.18134 0.0
H196 H 0.21064 0.88633 0.33401 0.0
H197 H 0.24549 0.8709 0.37204 0.0
H198 H 0.29583 0.93861 0.34509 0.0
H199 H 0.26089 0.95399 0.30701 0.0
C200 C 0.39354 0.81031 0.49939 0.0
Eu201 Eu 0.37782 0.85683 0.52376 0.0
C202 C 0.39124 0.79303 0.47018 0.0
C203 C 0.36616 0.78745 0.45568 0.0
C204 C 0.36432 0.76885 0.43027 0.0
C205 C 0.38748 0.75538 0.41858 0.0
C206 C 0.41268 0.76183 0.43232 0.0
C207 C 0.4145 0.78041 0.45779 0.0
C208 C 0.32721 0.86846 0.54869 0.0
C209 C 0.34612 0.89212 0.46882 0.0
C210 C 0.35744 0.96437 0.55288 0.0
Eu211 Eu 0.36922 0.91565 0.53405 0.0
C212 C 0.36784 0.9829 0.57745 0.0
C213 C 0.36909 1.01073 0.57084 0.0
C214 C 0.37847 0.02868 0.59422 0.0
C215 C 0.38665 0.01893 0.62448 0.0
C216 C 0.38616 0.99097 0.63068 0.0
C217 C 0.37695 0.97305 0.60728 0.0
C218 C 0.41377 0.90469 0.49864 0.0
C219 C 0.39435 0.88023 0.59396 0.0
O220 O 0.40736 0.83271 0.49688 0.0
O221 O 0.37221 0.81321 0.51759 0.0
O222 O 0.34176 0.84734 0.55605 0.0
O223 O 0.34029 0.88193 0.52825 0.0
O224 O 0.3619 0.87092 0.47437 0.0
O225 O 0.34212 0.91041 0.49134 0.0
O226 O 0.34483 0.94272 0.56327 0.0
O227 O 0.37394 0.9593 0.52916 0.0
O228 O 0.39754 0.92482 0.49379 0.0
O229 O 0.40673 0.8914 0.52364 0.0
O230 O 0.38457 0.90351 0.58356 0.0
O231 O 0.39551 0.85875 0.57486 0.0
H232 H 0.34785 0.79692 0.4645 0.0
H233 H 0.34459 0.7645 0.42019 0.0
H234 H 0.43086 0.75158 0.42444 0.0
H235 H 0.43409 0.78426 0.46855 0.0
H236 H 0.36236 0.0186 0.5478 0.0
H237 H 0.3783 0.05022 0.58916 0.0
H238 H 0.39233 0.98307 0.65393 0.0
H239 H 0.3765 0.95161 0.61277 0.0
C240 C 0.48205 0.14967 0.7568 0.0
Eu241 Eu 0.43805 0.12801 0.78053 0.0
C242 C 0.49727 0.14958 0.72598 0.0
C243 C 0.49807 0.12643 0.70644 0.0
C244 C 0.51505 0.12551 0.67947 0.0
C245 C 0.53145 0.14778 0.67117 0.0
C246 C 0.52951 0.17145 0.68974 0.0
C247 C 0.51263 0.1723 0.71691 0.0
C248 C 0.42849 0.07596 0.80101 0.0
C249 C 0.40257 0.09345 0.73014 0.0
C250 C 0.32479 0.1069 0.80084 0.0
Eu251 Eu 0.37525 0.12063 0.79365 0.0
C252 C 0.30134 0.11756 0.81839 0.0
C253 C 0.27584 0.1059 0.81377 0.0
C254 C 0.25395 0.1139 0.83275 0.0
C255 C 0.25724 0.13372 0.85666 0.0
C256 C 0.28261 0.14624 0.86019 0.0
C257 C 0.30449 0.13824 0.84114 0.0
C258 C 0.39127 0.16891 0.76692 0.0
C259 C 0.41239 0.14179 0.85235 0.0
O260 O 0.45865 0.16212 0.75714 0.0
O261 O 0.48164 0.12695 0.77314 0.0
O262 O 0.45231 0.08575 0.79457 0.0
O263 O 0.41161 0.0952 0.79828 0.0
O264 O 0.42509 0.10755 0.73433 0.0
O265 O 0.38236 0.09384 0.75095 0.0
O266 O 0.34448 0.09736 0.81876 0.0
O267 O 0.33348 0.12156 0.77669 0.0
O268 O 0.37235 0.16675 0.78843 0.0
O269 O 0.40022 0.14561 0.76119 0.0
O270 O 0.38918 0.13079 0.84366 0.0
O271 O 0.43299 0.14519 0.83194 0.0
H272 H 0.48628 0.10869 0.71265 0.0
H273 H 0.51605 0.107 0.66562 0.0
H274 H 0.54212 0.18878 0.68427 0.0
H275 H 0.51233 0.1904 0.73155 0.0
H276 H 0.27306 0.08996 0.79623 0.0
H277 H 0.23464 0.10391 0.82955 0.0
H278 H 0.28594 0.16112 0.87886 0.0
H279 H 0.32411 0.14745 0.84501 0.0
C280 C 0.14775 0.22938 1.00645 0.0
Eu281 Eu 0.16136 0.18069 1.02633 0.0
C282 C 0.14382 0.24516 0.97608 0.0
C283 C 0.16551 0.25093 0.95525 0.0
C284 C 0.162 0.26826 0.92869 0.0
C285 C 0.13676 0.28041 0.9223 0.0
C286 C 0.1148 0.27358 0.94228 0.0
C287 C 0.11834 0.25634 0.96891 0.0
C288 C 0.21174 0.16598 0.04785 0.0
C289 C 0.18691 0.14649 0.96634 0.0
C290 C 0.17962 0.07117 0.04651 0.0
Eu291 Eu 0.16742 0.12108 1.03188 0.0
C292 C 0.16993 0.049 0.06709 0.0
C293 C 0.17549 0.02225 0.05814 0.0
C294 C 0.16758 1.00075 0.07787 0.0
C295 C 0.15409 1.0057 0.10697 0.0
C296 C 0.14752 0.0325 0.11526 0.0
C297 C 0.15541 0.05404 0.09544 0.0
C298 C 0.12192 0.13584 0.99981 0.0
C299 C 0.14683 0.154 0.0959 0.0
O300 O 0.13016 0.21048 1.01332 0.0
O301 O 0.17237 0.2223 1.01426 0.0
O302 O 0.19794 0.18646 0.05865 0.0
O303 O 0.19784 0.15399 1.02674 0.0
O304 O 0.17283 0.16815 0.97482 0.0
O305 O 0.1919 0.12712 0.98738 0.0
O306 O 0.19028 0.09219 0.06089 0.0
O307 O 0.16393 0.07787 1.02246 0.0
O308 O 0.13564 0.11416 0.99403 0.0
O309 O 0.13095 0.14759 1.0248 0.0
O310 O 0.15332 0.13067 0.08257 0.0
O311 O 0.14758 0.17693 0.07905 0.0
H312 H 0.18545 0.24274 0.95997 0.0
H313 H 0.1794 0.27307 0.91394 0.0
H314 H 0.09493 0.28199 0.9377 0.0
H315 H 0.1012 0.25222 0.98436 0.0
H316 H 0.18638 0.01802 1.03611 0.0
H317 H 0.17255 0.98026 0.07076 0.0
H318 H 0.13724 0.03684 0.13765 0.0
H319 H 0.15069 0.07458 0.10256 0.0
C320 C 0.82048 0.92358 0.79243 0.0
Eu321 Eu 0.87073 0.91313 0.77839 0.0
C322 C 0.80031 0.91603 0.81698 0.0
C323 C 0.79257 0.88891 0.82214 0.0
C324 C 0.77356 0.88244 0.84588 0.0
C325 C 0.76233 0.90292 0.86492 0.0
C326 C 0.76969 0.92998 0.85934 0.0
C327 C 0.78842 0.93647 0.83551 0.0
C328 C 0.88698 0.86768 0.74787 0.0
C329 C 0.90293 0.89213 0.84324 0.0
C330 C 0.97937 0.89392 0.75464 0.0
Eu331 Eu 0.93086 0.90754 0.77481 0.0
C332 C 0.99738 0.89551 0.72588 0.0
C333 C 0.02514 0.90011 0.73036 0.0
C334 C 0.04315 0.89933 0.70431 0.0
C335 C 0.03398 0.89374 0.67291 0.0
C336 C 1.00597 0.89009 0.66819 0.0
C337 C 0.98788 0.89083 0.69438 0.0
C338 C 0.91421 0.95793 0.79533 0.0
C339 C 0.89673 0.9327 0.71343 0.0
O340 O 0.84072 0.93863 0.80205 0.0
O341 O 0.8279 0.90477 0.77221 0.0
O342 O 0.86622 0.88202 0.73959 0.0
O343 O 0.89785 0.87699 0.77332 0.0
O344 O 0.88048 0.90117 0.82975 0.0
O345 O 0.92585 0.89097 0.8265 0.0
O346 O 0.9582 0.87816 0.75293 0.0
O347 O 0.97431 0.91622 0.77036 0.0
O348 O 0.93546 0.94514 0.80604 0.0
O349 O 0.90355 0.9435 0.77382 0.0
O350 O 0.91932 0.92079 0.72339 0.0
O351 O 0.87623 0.93641 0.73305 0.0
H352 H 0.80139 0.87269 0.80818 0.0
H353 H 0.76828 0.86143 0.85004 0.0
H354 H 0.76114 0.94608 0.87378 0.0
H355 H 0.79387 0.9575 0.83179 0.0
H356 H 0.03306 0.90384 0.75426 0.0
H357 H 0.06441 0.90296 0.70883 0.0
H358 H 0.99814 0.88588 0.64438 0.0
H359 H 0.96658 0.88725 0.69007 0.0
C360 C 0.8585 0.06912 0.54262 0.0
Eu361 Eu 0.86996 0.11921 0.5284 0.0
C362 C 0.86677 0.04788 0.56578 0.0
C363 C 0.88856 0.03041 0.55894 0.0
C364 C 0.89528 1.00933 0.58005 0.0
C365 C 0.88008 1.00515 0.60805 0.0
C366 C 0.8587 0.02289 0.61521 0.0
C367 C 0.85202 0.04394 0.59422 0.0
C368 C 0.91627 0.13333 0.49813 0.0
C369 C 0.89019 0.15198 0.59279 0.0
C370 C 0.89349 0.22631 0.50109 0.0
Eu371 Eu 0.87796 0.17901 0.52318 0.0
C372 C 0.89279 0.24242 0.47065 0.0
C373 C 0.86835 0.25005 0.4557 0.0
C374 C 0.86839 0.26679 0.42823 0.0
C375 C 0.89285 0.27625 0.41494 0.0
C376 C 0.91723 0.26806 0.42959 0.0
C377 C 0.91719 0.25141 0.45701 0.0
C378 C 0.82709 0.16501 0.54375 0.0
C379 C 0.85045 0.14523 0.46315 0.0
O380 O 0.84487 0.08982 0.55379 0.0
O381 O 0.87626 0.07617 0.52093 0.0
O382 O 0.90125 0.11306 0.4902 0.0
O383 O 0.90706 0.14481 0.52313 0.0
O384 O 0.88016 0.12975 0.57992 0.0
O385 O 0.89395 0.17415 0.57505 0.0
O386 O 0.90898 0.20485 0.50152 0.0
O387 O 0.87082 0.22241 0.51658 0.0
O388 O 0.84067 0.18569 0.5545 0.0
O389 O 0.8411 0.15323 0.52277 0.0
O390 O 0.8642 0.16706 0.47201 0.0
O391 O 0.84596 0.12543 0.48374 0.0
H392 H 0.9002 0.03276 0.53706 0.0
H393 H 0.91188 0.99592 0.57415 0.0
H394 H 0.84701 0.02034 0.63703 0.0
H395 H 0.83507 0.05691 0.60012 0.0
H396 H 0.84915 0.24355 0.46554 0.0
H397 H 0.84918 0.27306 0.41811 0.0
H398 H 0.93645 0.27479 0.42001 0.0
H399 H 0.93634 0.24591 0.46795 0.0
C400 C 0.71352 0.11016 0.29226 0.0
Eu401 Eu 0.66299 0.12056 0.27961 0.0
C402 C 0.73426 0.11891 0.31553 0.0
C403 C 0.75816 0.13103 0.30422 0.0
C404 C 0.77857 0.13861 0.3257 0.0
C405 C 0.77538 0.13391 0.35872 0.0
C406 C 0.75127 0.12238 0.37014 0.0
C407 C 0.73078 0.11508 0.34876 0.0
C408 C 0.64759 0.16687 0.24977 0.0
C409 C 0.63219 0.14116 0.34535 0.0
C410 C 0.55577 0.14407 0.25796 0.0
Eu411 Eu 0.60361 0.12739 0.27696 0.0
C412 C 0.53671 0.14222 0.23041 0.0
C413 C 0.50885 0.14223 0.23655 0.0
C414 C 0.49016 0.14137 0.21123 0.0
C415 C 0.49881 0.14054 0.17899 0.0
C416 C 0.5268 0.14078 0.17275 0.0
C417 C 0.54559 0.14161 0.19823 0.0
C418 C 0.61815 0.0757 0.29526 0.0
C419 C 0.63561 0.10128 0.21485 0.0
O420 O 0.69347 0.09532 0.303 0.0
O421 O 0.70571 0.12847 0.27149 0.0
O422 O 0.66756 0.15185 0.24084 0.0
O423 O 0.63692 0.15756 0.27539 0.0
O424 O 0.65451 0.13229 0.33151 0.0
O425 O 0.60921 0.14266 0.32881 0.0
O426 O 0.57815 0.15756 0.25335 0.0
O427 O 0.5595 0.12241 0.27562 0.0
O428 O 0.59769 0.08907 0.3069 0.0
O429 O 0.62976 0.09048 0.27467 0.0
O430 O 0.61321 0.11296 0.22558 0.0
O431 O 0.65687 0.09815 0.2336 0.0
H432 H 0.76123 0.13421 0.27867 0.0
H433 H 0.79718 0.14719 0.31649 0.0
H434 H 0.74856 0.11855 0.39562 0.0
H435 H 0.71248 0.10606 0.35825 0.0
H436 H 0.50147 0.14296 0.26107 0.0
H437 H 0.46879 0.1413 0.21692 0.0
H438 H 0.53418 0.13968 0.14827 0.0
H439 H 0.56701 0.14166 0.19277 0.0
C440 C 0.68463 0.95973 0.05672 0.0
Eu441 Eu 0.66639 0.91305 1.03837 0.0
C442 C 0.67473 0.98308 0.0752 0.0
C443 C 0.64806 0.99267 0.07198 0.0
C444 C 0.63903 1.0144 0.09069 0.0
C445 C 0.65645 0.02666 0.11308 0.0
C446 C 0.68313 0.01704 0.11598 0.0
C447 C 0.69217 0.99551 0.0972 0.0
C448 C 0.61661 0.90305 1.01103 0.0
C449 C 0.64354 0.87426 0.09668 0.0
C450 C 0.64464 0.80294 1.00143 0.0
Eu451 Eu 0.65885 0.84974 1.02568 0.0
C452 C 0.64384 0.78769 0.97043 0.0
C453 C 0.6668 0.77361 0.95946 0.0
C454 C 0.6654 0.75697 0.93226 0.0
C455 C 0.64099 0.7537 0.91524 0.0
C456 C 0.61815 0.76827 0.9257 0.0
C457 C 0.61954 0.78496 0.953 0.0
C458 C 0.70816 0.86472 0.05118 0.0
C459 C 0.68848 0.88788 0.97129 0.0
O460 O 0.68848 0.93732 0.07321 0.0
O461 O 0.67363 0.95565 1.02839 0.0
O462 O 0.62513 0.9269 1.01914 0.0
O463 O 0.6345 0.88645 1.02 0.0
O464 O 0.65371 0.89779 0.08749 0.0
O465 O 0.64138 0.85314 0.07689 0.0
O466 O 0.62772 0.82309 1.00546 0.0
O467 O 0.66838 0.80782 1.0141 0.0
O468 O 0.69594 0.84187 0.0571 0.0
O469 O 0.69353 0.87762 1.03158 0.0
O470 O 0.67526 0.86495 0.97716 0.0
O471 O 0.68969 0.90781 0.99245 0.0
H472 H 0.63418 0.98328 0.05521 0.0
H473 H 0.61847 0.02158 0.08767 0.0
H474 H 0.69693 0.02581 0.13331 0.0
H475 H 0.71274 0.98831 0.10016 0.0
H476 H 0.68581 0.77487 0.97234 0.0
H477 H 0.68335 0.74595 0.92512 0.0
H478 H 0.59913 0.76665 0.9129 0.0
H479 H 0.60141 0.79534 0.96083 0.0
C480 C 0.82296 0.11446 0.78916 0.0
Eu481 Eu 0.87415 0.12256 0.80065 0.0
C482 C 0.80255 0.12064 0.76424 0.0
C483 C 0.77959 0.13591 0.7725 0.0
C484 C 0.75939 0.14118 0.74972 0.0
C485 C 0.7617 0.1309 0.71846 0.0
C486 C 0.78492 0.11616 0.70995 0.0
C487 C 0.80523 0.1111 0.7326 0.0
C488 C 0.89243 0.16835 0.82852 0.0
C489 C 0.9057 0.13873 0.7335 0.0
C490 C 0.98322 0.14021 0.82086 0.0
Eu491 Eu 0.9343 0.12684 0.802 0.0
C492 C 0.99997 0.14089 0.85092 0.0
C493 C 1.01168 0.11725 0.86392 0.0
C494 C 0.02907 0.11855 0.89067 0.0
C495 C 0.0354 0.14352 0.90518 0.0
C496 C 0.02307 0.16705 0.8927 0.0
C497 C 1.00575 0.16577 0.86589 0.0
C498 C 0.91657 0.0765 0.7839 0.0
C499 C 0.90136 0.10384 0.86545 0.0
O500 O 0.84188 0.09681 0.78228 0.0
O501 O 0.83213 0.13511 0.80536 0.0
O502 O 0.87165 0.15488 0.83834 0.0
O503 O 0.90212 0.15812 0.80302 0.0
O504 O 0.88353 0.13019 0.74803 0.0
O505 O 0.92865 0.14164 0.74983 0.0
O506 O 0.96313 0.15735 0.81867 0.0
O507 O 0.97712 0.11668 0.80849 0.0
O508 O 0.93726 0.0889 0.77124 0.0
O509 O 0.90644 0.09142 0.80533 0.0
O510 O 0.92389 0.11483 0.85412 0.0
O511 O 0.87982 0.10094 0.84719 0.0
H512 H 0.77712 0.14348 0.79675 0.0
H513 H 0.74163 0.15255 0.75674 0.0
H514 H 0.7872 0.1083 0.68579 0.0
H515 H 0.82278 0.09948 0.72541 0.0
H516 H 1.00785 0.09771 0.85307 0.0
H517 H 0.03822 0.10001 0.8994 0.0
H518 H 0.02689 0.18657 0.90358 0.0
H519 H 0.99713 0.18438 0.85659 0.0
C520 C 0.67891 0.07094 0.53153 0.0
Eu521 Eu 0.66639 0.12034 0.5473 0.0
C522 C 0.66753 0.05028 0.51046 0.0
C523 C 0.64536 0.05639 0.49063 0.0
C524 C 0.63573 0.03713 0.46901 0.0
C525 C 0.64818 1.01163 0.46704 0.0
C526 C 0.66935 1.00507 0.48822 0.0
C527 C 0.67902 0.02437 0.50982 0.0
C528 C 0.62055 0.13212 0.58013 0.0
C529 C 0.6448 0.15555 0.4854 0.0
C530 C 0.64498 0.22726 0.57917 0.0
Eu531 Eu 0.65875 0.17958 0.55643 0.0
C532 C 0.64443 0.24308 0.60978 0.0
C533 C 0.66792 0.25541 0.62204 0.0
C534 C 0.66666 0.2724 0.64902 0.0
C535 C 0.64187 0.27772 0.66445 0.0
C536 C 0.61851 0.26479 0.65271 0.0
C537 C 0.61975 0.24782 0.62568 0.0
C538 C 0.70904 0.16592 0.53306 0.0
C539 C 0.68642 0.14344 0.61363 0.0
O540 O 0.68903 0.09232 0.51722 0.0
O541 O 0.66413 0.07706 0.55643 0.0
O542 O 0.63559 0.11111 0.58475 0.0
O543 O 0.62901 0.14561 0.55595 0.0
O544 O 0.65378 0.13218 0.49661 0.0
O545 O 0.6431 0.17723 0.50422 0.0
O546 O 0.62826 0.20697 0.57637 0.0
O547 O 0.66842 0.22201 0.56613 0.0
O548 O 0.69548 0.18734 0.5245 0.0
O549 O 0.6955 0.15362 0.55406 0.0
O550 O 0.6714 0.165 0.60701 0.0
O551 O 0.69208 0.12579 0.59096 0.0
H552 H 0.63608 0.07626 0.49121 0.0
H553 H 0.61939 0.04254 0.45279 0.0
H554 H 0.67939 0.9856 0.48678 0.0
H555 H 0.69599 0.01937 0.52528 0.0
H556 H 0.68727 0.25247 0.6104 0.0
H557 H 0.68506 0.28207 0.65722 0.0
H558 H 0.59916 0.26792 0.66429 0.0
H559 H 0.60123 0.23877 0.61686 0.0
C560 C 0.71337 0.93168 0.27756 0.0
Eu561 Eu 0.66509 0.91645 0.29469 0.0
C562 C 0.73586 0.9222 0.25764 0.0
C563 C 0.73178 0.9034 0.23289 0.0
C564 C 0.75345 0.89543 0.21352 0.0
C565 C 0.77945 0.90607 0.21881 0.0
C566 C 0.7835 0.92427 0.24425 0.0
C567 C 0.76186 0.93223 0.26354 0.0
C568 C 0.65457 0.87105 0.32925 0.0
C569 C 0.63117 0.88964 0.23485 0.0
C570 C 0.55973 0.88832 0.3281 0.0
Eu571 Eu 0.60552 0.9063 0.30419 0.0
C572 C 0.54211 0.89013 0.35702 0.0
C573 C 0.53628 0.91498 0.37186 0.0
C574 C 0.51778 0.91626 0.39743 0.0
C575 C 0.50472 0.89276 0.40894 0.0
C576 C 0.51135 0.8678 0.39476 0.0
C577 C 0.52981 0.86654 0.36913 0.0
C578 C 0.6168 0.95732 0.27948 0.0
C579 C 0.63914 0.93912 0.3592 0.0
O580 O 0.69131 0.9393 0.26249 0.0
O581 O 0.70847 0.91739 0.30341 0.0
O582 O 0.67511 0.88676 0.33368 0.0
O583 O 0.6412 0.87868 0.30459 0.0
O584 O 0.65414 0.89977 0.24567 0.0
O585 O 0.60917 0.88866 0.25321 0.0
O586 O 0.58286 0.87585 0.33148 0.0
O587 O 0.56158 0.90951 0.30926 0.0
O588 O 0.5951 0.94338 0.27316 0.0
O589 O 0.63013 0.94386 0.29974 0.0
O590 O 0.61851 0.92268 0.35365 0.0
O591 O 0.65758 0.94344 0.33687 0.0
H592 H 0.7118 0.89539 0.22815 0.0
H593 H 0.74965 0.88183 0.19363 0.0
H594 H 0.80333 0.9328 0.24874 0.0
H595 H 0.76534 0.9466 0.28274 0.0
H596 H 0.54557 0.9335 0.36327 0.0
H597 H 0.51327 0.93582 0.40786 0.0
H598 H 0.5014 0.84938 0.40252 0.0
H599 H 0.53392 0.84712 0.35812 0.0
C600 C 0.85194 0.96181 1.02416 0.0
Eu601 Eu 0.86785 0.91428 0.04369 0.0
C602 C 0.86231 0.9838 1.00363 0.0
C603 C 0.88899 0.99336 1.00674 0.0
C604 C 0.89806 1.01492 0.98772 0.0
C605 C 0.88069 0.02709 0.96512 0.0
C606 C 0.85413 0.01726 0.96191 0.0
C607 C 0.84503 0.99587 0.98104 0.0
C608 C 0.91587 0.90489 0.0731 0.0
C609 C 0.89034 0.87829 0.98316 0.0
C610 C 0.89499 0.8087 0.07915 0.0
Eu611 Eu 0.87825 0.85498 0.05485 0.0
C612 C 0.89299 0.79141 0.1086 0.0
C613 C 0.86831 0.78019 0.11891 0.0
C614 C 0.86749 0.76218 0.14518 0.0
C615 C 0.8913 0.75481 0.16177 0.0
C616 C 0.9158 0.76676 0.15201 0.0
C617 C 0.91663 0.78468 0.12573 0.0
C618 C 0.82602 0.86667 1.03547 0.0
C619 C 0.85229 0.89149 0.11264 0.0
O620 O 0.84494 0.93934 1.00975 0.0
O621 O 0.86476 0.95758 0.05124 0.0
O622 O 0.90152 0.92657 0.07632 0.0
O623 O 0.90606 0.89022 0.05081 0.0
O624 O 0.87896 0.90088 0.99322 0.0
O625 O 0.89455 0.85755 1.00307 0.0
O626 O 0.90837 0.83139 0.08162 0.0
O627 O 0.87376 0.81111 0.06054 0.0
O628 O 0.83964 0.84549 1.02638 0.0
O629 O 0.84064 0.87997 0.05442 0.0
O630 O 0.86666 0.86973 0.10528 0.0
O631 O 0.84592 0.90955 0.09043 0.0
H632 H 0.90278 0.98433 1.024 0.0
H633 H 0.91852 0.02225 0.99094 0.0
H634 H 0.8404 0.02601 0.94437 0.0
H635 H 0.82443 0.98877 0.97824 0.0
H636 H 0.84967 0.78492 0.10636 0.0
H637 H 0.84824 0.75343 0.15194 0.0
H638 H 0.93445 0.76219 0.16463 0.0
H639 H 0.93595 0.79302 0.11846 0.0
C640 C 0.5484 0.63312 0.81986 0.0
Eu641 Eu 0.59795 0.62349 0.80069 0.0
C642 C 0.5317 0.63767 0.84895 0.0
C643 C 0.50465 0.64552 0.84513 0.0
C644 C 0.48776 0.64869 0.87187 0.0
C645 C 0.49762 0.64482 0.90342 0.0
C646 C 0.52487 0.63678 0.90713 0.0
C647 C 0.54162 0.63293 0.88018 0.0
C648 C 0.61722 0.57522 0.77685 0.0
C649 C 0.63554 0.59912 0.85858 0.0
C650 C 0.71021 0.60495 0.77925 0.0
Eu651 Eu 0.66121 0.62046 0.79168 0.0
C652 C 0.73292 0.61692 0.76182 0.0
C653 C 0.72982 0.64206 0.74645 0.0
C654 C 0.74994 0.65164 0.72588 0.0
C655 C 0.77331 0.63616 0.72049 0.0
C656 C 0.7772 0.61195 0.7377 0.0
C657 C 0.75701 0.60232 0.75823 0.0
C658 C 0.64757 0.67013 0.81654 0.0
C659 C 0.62384 0.63882 0.73014 0.0
O660 O 0.56527 0.65222 0.81107 0.0
O661 O 0.55849 0.60886 0.81616 0.0
O662 O 0.59444 0.58647 0.76849 0.0
O663 O 0.62813 0.59042 0.79737 0.0
O664 O 0.61236 0.61128 0.85122 0.0
O665 O 0.65586 0.59789 0.83808 0.0
O666 O 0.68931 0.59853 0.7613 0.0
O667 O 0.70341 0.61708 0.80603 0.0
O668 O 0.67188 0.66308 0.80859 0.0
O669 O 0.63197 0.65109 0.80861 0.0
O670 O 0.64763 0.63049 0.74091 0.0
O671 O 0.602 0.63996 0.74892 0.0
H672 H 0.49633 0.64861 0.82125 0.0
H673 H 0.46669 0.65343 0.86756 0.0
H674 H 0.53325 0.63335 0.93089 0.0
H675 H 0.5623 0.62629 0.88372 0.0
H676 H 0.71129 0.65358 0.74912 0.0
H677 H 0.74658 0.67034 0.71273 0.0
H678 H 0.79498 0.5996 0.73356 0.0
H679 H 0.75963 0.58289 0.77004 0.0
C680 C 0.6375 0.31408 0.08016 0.0
Eu681 Eu 0.65523 0.36076 0.0581 0.0
C682 C 0.63901 0.29529 0.10848 0.0
C683 C 0.65493 0.27173 0.10681 0.0
C684 C 0.65415 0.2522 0.13138 0.0
C685 C 0.6372 0.25542 0.15831 0.0
C686 C 0.62201 0.27943 0.16071 0.0
C687 C 0.62275 0.29905 0.136 0.0
C688 C 0.7066 0.37188 1.0356 0.0
C689 C 0.68704 0.3923 0.11613 0.0
C690 C 0.67891 0.46973 1.03661 0.0
Eu691 Eu 0.66621 0.42011 0.05204 0.0
C692 C 0.66806 0.48994 1.01404 0.0
C693 C 0.64714 0.48304 0.99276 0.0
C694 C 0.63801 0.50177 0.96995 0.0
C695 C 0.6495 0.52774 0.96833 0.0
C696 C 0.66948 0.53506 0.99069 0.0
C697 C 0.67878 0.5162 1.01339 0.0
C698 C 0.62058 0.40833 0.08535 0.0
C699 C 0.64211 0.38811 0.98862 0.0
O700 O 0.62457 0.33699 0.08346 0.0
O701 O 0.65884 0.3166 0.06186 0.0
O702 O 0.69199 0.35124 1.02695 0.0
O703 O 0.69355 0.38489 0.05638 0.0
O704 O 0.6704 0.37222 0.10876 0.0
O705 O 0.69261 0.41137 0.0948 0.0
O706 O 0.69027 0.44843 1.02368 0.0
O707 O 0.66309 0.46346 0.0606 0.0
O708 O 0.6368 0.42808 0.09168 0.0
O709 O 0.62793 0.39646 0.05966 0.0
O710 O 0.65341 0.40989 1.00111 0.0
O711 O 0.63811 0.36618 1.00672 0.0
H712 H 0.66756 0.268 0.08602 0.0
H713 H 0.6666 0.23426 0.12905 0.0
H714 H 0.60882 0.28261 0.18113 0.0
H715 H 0.61003 0.31681 0.13812 0.0
H716 H 0.63836 0.46297 0.99328 0.0
H717 H 0.62266 0.4957 0.95279 0.0
H718 H 0.67881 0.55488 0.98955 0.0
H719 H 0.69479 0.52189 1.02985 0.0
C720 C 0.97836 0.39971 0.31961 0.0
Eu721 Eu 0.92838 0.4095 0.30226 0.0
C722 C 0.99568 0.39654 0.34866 0.0
C723 C 0.02133 0.40862 0.34869 0.0
C724 C 0.03888 0.4053 0.37485 0.0
C725 C 0.03134 0.38966 0.40174 0.0
C726 C 1.00531 0.37816 0.40226 0.0
C727 C 0.98766 0.38146 0.37586 0.0
C728 C 0.9088 0.45748 0.27792 0.0
C729 C 0.89457 0.43233 0.36349 0.0
C730 C 0.81585 0.41921 0.29565 0.0
Eu731 Eu 0.86773 0.41023 0.29767 0.0
C732 C 0.79356 0.4089 0.2759 0.0
C733 C 0.79736 0.38593 0.25666 0.0
C734 C 0.7779 0.37881 0.23385 0.0
C735 C 0.75455 0.39467 0.22984 0.0
C736 C 0.74995 0.41656 0.25058 0.0
C737 C 0.76944 0.42369 0.27345 0.0
C738 C 0.88917 0.36113 0.3159 0.0
C739 C 0.90004 0.39393 0.2337 0.0
O740 O 0.96075 0.38065 0.31313 0.0
O741 O 0.96904 0.42398 0.31353 0.0
O742 O 0.9305 0.44521 0.26791 0.0
O743 O 0.89839 0.44318 0.29986 0.0
O744 O 0.91866 0.42571 0.35211 0.0
O745 O 0.87232 0.42921 0.34638 0.0
O746 O 0.8336 0.43383 0.28002 0.0
O747 O 0.82713 0.40188 0.31543 0.0
O748 O 0.86934 0.36395 0.29564 0.0
O749 O 0.89661 0.38432 0.32446 0.0
O750 O 0.87806 0.40548 0.2452 0.0
O751 O 0.92158 0.38995 0.25241 0.0
H752 H 0.02796 0.4205 0.3282 0.0
H753 H 0.05853 0.41496 0.37399 0.0
H754 H 0.99886 0.36615 0.42271 0.0
H755 H 0.96793 0.37204 0.37662 0.0
H756 H 0.81593 0.37432 0.25821 0.0
H757 H 0.78172 0.36178 0.21814 0.0
H758 H 0.73218 0.42919 0.24766 0.0
H759 H 0.7663 0.44155 0.28806 0.0
C760 C 0.88954 0.72647 0.57537 0.0
Eu761 Eu 0.874 0.67895 0.55408 0.0
C762 C 0.8938 0.74234 0.60539 0.0
C763 C 0.87402 0.74387 0.62966 0.0
C764 C 0.87703 0.76196 0.6555 0.0
C765 C 0.89977 0.77902 0.65758 0.0
C766 C 0.92018 0.77631 0.63422 0.0
C767 C 0.91718 0.75827 0.60845 0.0
C768 C 0.82391 0.66677 0.5285 0.0
C769 C 0.84307 0.64589 0.61029 0.0
C770 C 0.85158 0.57051 0.53032 0.0
Eu771 Eu 0.86507 0.61957 0.54645 0.0
C772 C 0.86141 0.54894 0.50908 0.0
C773 C 0.85853 0.52189 0.51876 0.0
C774 C 0.86681 0.50094 0.49856 0.0
C775 C 0.87791 0.50675 0.46822 0.0
C776 C 0.88171 0.53392 0.45907 0.0
C777 C 0.87355 0.55489 0.47938 0.0
C778 C 0.90886 0.63132 0.58305 0.0
C779 C 0.88956 0.65303 0.48472 0.0
O780 O 0.90634 0.70671 0.56907 0.0
O781 O 0.8647 0.72064 0.56722 0.0
O782 O 0.83829 0.68785 0.52075 0.0
O783 O 0.83658 0.65389 0.54989 0.0
O784 O 0.86046 0.66562 0.60451 0.0
O785 O 0.83742 0.62792 0.58787 0.0
O786 O 0.84157 0.59221 0.51649 0.0
O787 O 0.86689 0.57606 0.55507 0.0
O788 O 0.89302 0.61087 0.5875 0.0
O789 O 0.90239 0.6439 0.55733 0.0
O790 O 0.88177 0.62967 0.49708 0.0
O791 O 0.88935 0.67556 0.5021 0.0
H792 H 0.85579 0.7318 0.62811 0.0
H793 H 0.86091 0.76355 0.67301 0.0
H794 H 0.93816 0.78877 0.63534 0.0
H795 H 0.93278 0.75748 0.59021 0.0
H796 H 0.84954 0.51697 0.54181 0.0
H797 H 0.86413 0.48019 0.50644 0.0
H798 H 0.89014 0.53895 0.43576 0.0
H799 H 0.87627 0.57567 0.47161 0.0
C800 C 0.54937 0.39806 0.75825 0.0
Eu801 Eu 0.59904 0.40841 0.77695 0.0
C802 C 0.53239 0.39536 0.72884 0.0
C803 C 0.50515 0.3881 0.73219 0.0
C804 C 0.48819 0.38609 0.70523 0.0
C805 C 0.4981 0.39066 0.67387 0.0
C806 C 0.52542 0.39847 0.67063 0.0
C807 C 0.54231 0.401 0.69783 0.0
C808 C 0.61803 0.45785 0.79602 0.0
C809 C 0.63533 0.42905 0.71513 0.0
C810 C 0.71169 0.42885 0.79436 0.0
Eu811 Eu 0.66254 0.41283 0.78295 0.0
C812 C 0.73434 0.41822 0.81347 0.0
C813 C 0.73039 0.3962 0.83435 0.0
C814 C 0.75086 0.38837 0.85564 0.0
C815 C 0.77557 0.40233 0.85611 0.0
C816 C 0.78008 0.42329 0.83388 0.0
C817 C 0.75952 0.43122 0.81264 0.0
C818 C 0.64867 0.36165 0.76284 0.0
C819 C 0.6269 0.39743 0.8473 0.0
O820 O 0.56735 0.3792 0.76432 0.0
O821 O 0.55833 0.42227 0.76495 0.0
O822 O 0.59633 0.44636 0.80736 0.0
O823 O 0.62873 0.44222 0.77571 0.0
O824 O 0.61183 0.41947 0.72559 0.0
O825 O 0.65686 0.43077 0.73384 0.0
O826 O 0.69067 0.43694 0.81101 0.0
O827 O 0.70497 0.41471 0.76899 0.0
O828 O 0.67314 0.36919 0.76938 0.0
O829 O 0.6333 0.381 0.77028 0.0
O830 O 0.64964 0.40686 0.83479 0.0
O831 O 0.60493 0.39313 0.82925 0.0
H832 H 0.49679 0.38431 0.75587 0.0
H833 H 0.46709 0.38132 0.70917 0.0
H834 H 0.53384 0.40242 0.64704 0.0
H835 H 0.56312 0.40725 0.69462 0.0
H836 H 0.71104 0.38593 0.83524 0.0
H837 H 0.74687 0.37249 0.87306 0.0
H838 H 0.79881 0.43464 0.83439 0.0
H839 H 0.76285 0.44826 0.79664 0.0
C840 C 0.89044 0.30902 0.99972 0.0
Eu841 Eu 0.87479 0.35566 1.02304 0.0
C842 C 0.89395 0.29395 0.96893 0.0
C843 C 0.87148 0.28509 0.951 0.0
C844 C 0.87481 0.26773 0.92467 0.0
C845 C 0.90067 0.25863 0.91553 0.0
C846 C 0.92324 0.26851 0.93254 0.0
C847 C 0.9199 0.28583 0.95898 0.0
C848 C 0.8251 0.36916 0.04782 0.0
C849 C 0.84607 0.39358 0.9675 0.0
C850 C 0.84657 0.46509 0.05304 0.0
Eu851 Eu 0.86602 0.41863 1.03538 0.0
C852 C 0.85509 0.48872 0.07203 0.0
C853 C 0.88076 0.50056 0.06829 0.0
C854 C 0.88834 0.52269 0.08725 0.0
C855 C 0.8704 0.53329 0.1102 0.0
C856 C 0.84486 0.52116 0.11396 0.0
C857 C 0.83725 0.49925 0.09492 0.0
C858 C 0.91618 0.40892 1.00855 0.0
C859 C 0.88863 0.38041 0.09446 0.0
O860 O 0.90722 0.32879 1.00626 0.0
O861 O 0.86573 0.3142 1.00915 0.0
O862 O 0.83839 0.34707 0.05471 0.0
O863 O 0.83906 0.38283 1.02817 0.0
O864 O 0.85959 0.37085 0.97385 0.0
O865 O 0.84386 0.4133 0.98875 0.0
O866 O 0.84264 0.4426 0.06928 0.0
O867 O 0.8586 0.46123 1.02531 0.0
O868 O 0.90744 0.43281 1.0163 0.0
O869 O 0.89838 0.3925 1.0178 0.0
O870 O 0.87816 0.40375 0.08496 0.0
O871 O 0.8915 0.35936 0.07469 0.0
H872 H 0.85115 0.29079 0.9579 0.0
H873 H 0.85694 0.26048 0.91232 0.0
H874 H 0.94349 0.26242 0.92581 0.0
H875 H 0.93762 0.29224 0.97228 0.0
H876 H 0.89501 0.49262 0.05096 0.0
H877 H 0.90822 0.53147 0.08405 0.0
H878 H 0.83092 0.5282 0.13219 0.0
H879 H 0.81749 0.49024 0.09842 0.0
C880 C 0.97854 0.63826 0.2562 0.0
Eu881 Eu 0.93007 0.62501 0.27571 0.0
C882 C 0.99408 0.64337 0.22624 0.0
C883 C 0.99207 0.62618 0.19939 0.0
C884 C 1.00989 0.62906 0.17331 0.0
C885 C 0.03011 0.64908 0.17362 0.0
C886 C 0.03081 0.66736 0.19951 0.0
C887 C 1.01305 0.66448 0.22553 0.0
C888 C 0.91212 0.57524 0.29565 0.0
C889 C 0.89283 0.60502 0.21471 0.0
C890 C 0.81909 0.60076 0.29732 0.0
Eu891 Eu 0.86649 0.61996 0.28343 0.0
C892 C 0.7954 0.60806 0.31691 0.0
C893 C 0.78179 0.63288 0.31291 0.0
C894 C 0.75962 0.63927 0.33236 0.0
C895 C 0.75073 0.62097 0.35605 0.0
C896 C 0.76453 0.59626 0.36 0.0
C897 C 0.78645 0.5898 0.34045 0.0
C898 C 0.87965 0.67042 0.26038 0.0
C899 C 0.90294 0.63927 0.34565 0.0
O900 O 0.96037 0.65616 0.26475 0.0
O901 O 0.97079 0.61334 0.26172 0.0
O902 O 0.93444 0.5866 0.30544 0.0
O903 O 0.9006 0.59104 0.27595 0.0
O904 O 0.9167 0.61392 0.22476 0.0
O905 O 0.87156 0.6031 0.23379 0.0
O906 O 0.84109 0.59425 0.31333 0.0
O907 O 0.82391 0.61543 0.27158 0.0
O908 O 0.8551 0.66294 0.26705 0.0
O909 O 0.89508 0.65137 0.26896 0.0
O910 O 0.87923 0.63142 0.33414 0.0
O911 O 0.92524 0.63996 0.3277 0.0
H912 H 0.97746 0.60985 0.1991 0.0
H913 H 1.00885 0.61464 0.15378 0.0
H914 H 0.04591 0.68322 0.20024 0.0
H915 H 1.01491 0.6781 0.24579 0.0
H916 H 0.78836 0.64743 0.295 0.0
H917 H 0.74948 0.65853 0.32897 0.0
H918 H 0.75879 0.58212 0.37876 0.0
H919 H 0.79673 0.57063 0.34407 0.0
C920 C 0.63292 0.72102 0.49682 0.0
Eu921 Eu 0.65262 0.67564 0.52045 0.0
C922 C 0.63606 0.74162 0.47075 0.0
C923 C 0.63508 0.76919 0.47871 0.0
C924 C 0.63635 0.78922 0.45477 0.0
C925 C 0.63853 0.78233 0.42201 0.0
C926 C 0.63941 0.75465 0.41394 0.0
C927 C 0.63817 0.73452 0.43802 0.0
C928 C 0.70539 0.66653 0.53941 0.0
C929 C 0.67993 0.6405 0.462 0.0
C930 C 0.68219 0.56964 0.55067 0.0
Eu931 Eu 0.66518 0.61664 0.53056 0.0
C932 C 0.67268 0.54813 0.5727 0.0
C933 C 0.64698 0.53626 0.56912 0.0
C934 C 0.63884 0.51516 0.58945 0.0
C935 C 0.65612 0.5057 0.61391 0.0
C936 C 0.68166 0.51785 0.61763 0.0
C937 C 0.68986 0.53879 0.59719 0.0
C938 C 0.61699 0.625 0.50111 0.0
C939 C 0.63915 0.65005 0.59107 0.0
O940 O 0.62445 0.69693 0.48877 0.0
O941 O 0.65108 0.72015 0.51973 0.0
O942 O 0.69104 0.68746 0.54757 0.0
O943 O 0.69136 0.65213 0.52087 0.0
O944 O 0.66609 0.66242 0.47007 0.0
O945 O 0.68629 0.6218 0.48343 0.0
O946 O 0.68985 0.59251 0.56374 0.0
O947 O 0.66834 0.57318 0.52415 0.0
O948 O 0.63243 0.60422 0.49661 0.0
O949 O 0.62614 0.63935 0.52409 0.0
O950 O 0.65096 0.62789 0.58044 0.0
O951 O 0.63569 0.67145 0.57195 0.0
H952 H 0.63309 0.7753 0.50361 0.0
H953 H 0.6355 0.81027 0.46195 0.0
H954 H 0.64161 0.74855 0.38909 0.0
H955 H 0.63886 0.71343 0.43101 0.0
H956 H 0.63323 0.54306 0.55044 0.0
H957 H 0.61921 0.50598 0.58571 0.0
H958 H 0.69529 0.51122 0.63652 0.0
H959 H 0.70972 0.54763 0.60043 0.0
C960 C 0.32164 0.43474 0.30409 0.0
Eu961 Eu 0.3686 0.41711 0.28557 0.0
C962 C 0.29963 0.42505 0.32477 0.0
C963 C 0.29238 0.39755 0.32569 0.0
C964 C 0.27084 0.38892 0.34486 0.0
C965 C 0.25632 0.40764 0.36345 0.0
C966 C 0.26418 0.43501 0.36307 0.0
C967 C 0.28553 0.44365 0.34371 0.0
C968 C 0.37678 0.3695 0.25478 0.0
C969 C 0.40047 0.38951 0.34663 0.0
C970 C 0.47252 0.38437 0.25263 0.0
Eu971 Eu 0.42751 0.40382 0.27694 0.0
C972 C 0.49149 0.38799 0.22504 0.0
C973 C 0.50479 0.41267 0.21921 0.0
C974 C 0.52444 0.41473 0.19497 0.0
C975 C 0.53137 0.3922 0.17591 0.0
C976 C 0.51719 0.36788 0.18077 0.0
C977 C 0.49759 0.36578 0.20514 0.0
C978 C 0.41854 0.45602 0.29801 0.0
C979 C 0.39383 0.43449 0.21898 0.0
O980 O 0.34426 0.44127 0.31856 0.0
O981 O 0.32548 0.42135 0.27739 0.0
O982 O 0.35647 0.38552 0.24993 0.0
O983 O 0.39081 0.37783 0.27848 0.0
O984 O 0.37899 0.4023 0.33547 0.0
O985 O 0.42213 0.38575 0.3281 0.0
O986 O 0.44853 0.37481 0.24612 0.0
O987 O 0.47178 0.40294 0.27501 0.0
O988 O 0.43942 0.44138 0.30592 0.0
O989 O 0.40463 0.44272 0.27831 0.0
O990 O 0.41476 0.41888 0.22655 0.0
O991 O 0.37561 0.44086 0.24074 0.0
H992 H 0.30329 0.38277 0.31152 0.0
H993 H 0.26542 0.36767 0.34502 0.0
H994 H 0.25405 0.44974 0.37807 0.0
H995 H 0.29107 0.46487 0.34359 0.0
H996 H 0.50047 0.43027 0.23381 0.0
H997 H 0.53468 0.4339 0.19151 0.0
H998 H 0.52203 0.35018 0.16658 0.0
H999 H 0.48767 0.3465 0.20902 0.0
C1000 C 0.36247 0.57075 0.04476 0.0
Eu1001 Eu 0.36964 0.62205 1.03255 0.0
C1002 C 0.37024 0.55032 0.06897 0.0
C1003 C 0.38389 0.5268 0.05907 0.0
C1004 C 0.39036 0.50647 0.0813 0.0
C1005 C 0.38299 0.50934 0.11364 0.0
C1006 C 0.36993 0.53312 0.12369 0.0
C1007 C 0.36371 0.55353 0.10159 0.0
C1008 C 0.41383 0.63925 1.00015 0.0
C1009 C 0.38605 0.65494 0.09833 0.0
C1010 C 0.38514 0.73158 1.00905 0.0
Eu1011 Eu 0.37356 0.68213 1.02847 0.0
C1012 C 0.38742 0.74808 0.97881 0.0
C1013 C 0.36438 0.75613 0.96124 0.0
C1014 C 0.36666 0.77318 0.93422 0.0
C1015 C 0.39206 0.7827 0.92368 0.0
C1016 C 0.41515 0.77412 0.94091 0.0
C1017 C 0.41281 0.75741 0.96828 0.0
C1018 C 0.32392 0.66484 0.04977 0.0
C1019 C 0.34894 0.64737 0.96773 0.0
O1020 O 0.3454 0.58965 0.05339 0.0
O1021 O 0.38198 0.58002 1.02675 0.0
O1022 O 0.39998 0.61802 0.99298 0.0
O1023 O 0.40509 0.65004 1.02592 0.0
O1024 O 0.37826 0.63219 0.0846 0.0
O1025 O 0.38831 0.67764 0.08114 0.0
O1026 O 0.40341 0.71295 1.01451 0.0
O1027 O 0.3611 0.72376 1.01809 0.0
O1028 O 0.33656 0.68608 0.06053 0.0
O1029 O 0.33821 0.65399 1.02825 0.0
O1030 O 0.36153 0.66983 0.97679 0.0
O1031 O 0.34516 0.62728 0.98808 0.0
H1032 H 0.38912 0.52395 1.034 0.0
H1033 H 0.40022 0.48817 0.07308 0.0
H1034 H 0.36416 0.5357 0.14864 0.0
H1035 H 0.35342 0.57154 0.10997 0.0
H1036 H 0.34441 0.74967 0.96865 0.0
H1037 H 0.34832 0.77942 0.922 0.0
H1038 H 0.43516 0.78017 0.93324 0.0
H1039 H 0.431 0.75171 0.98122 0.0
C1040 C 0.21174 0.60519 0.79836 0.0
Eu1041 Eu 0.1625 0.61787 0.78175 0.0
C1042 C 0.23254 0.61413 0.82169 0.0
C1043 C 0.24884 0.63696 0.81548 0.0
C1044 C 0.2695 0.64424 0.83681 0.0
C1045 C 0.27445 0.62865 0.86448 0.0
C1046 C 0.25777 0.60628 0.87108 0.0
C1047 C 0.23714 0.59902 0.84985 0.0
C1048 C 0.14906 0.66491 0.75219 0.0
C1049 C 0.12927 0.63741 0.84621 0.0
C1050 C 0.05585 0.64463 0.75362 0.0
Eu1051 Eu 0.10235 0.62689 0.77601 0.0
C1052 C 0.03771 0.64283 0.72487 0.0
C1053 C 0.02459 0.61856 0.71662 0.0
C1054 C 1.00519 0.61807 0.69192 0.0
C1055 C 0.99828 0.64179 0.6748 0.0
C1056 C 1.01233 0.66575 0.68193 0.0
C1057 C 0.0317 0.66629 0.70678 0.0
C1058 C 0.1154 0.57522 0.79551 0.0
C1059 C 0.13642 0.59879 0.71615 0.0
O1060 O 0.19035 0.59288 0.80988 0.0
O1061 O 0.20586 0.62183 0.77481 0.0
O1062 O 0.16999 0.6504 0.74522 0.0
O1063 O 0.13706 0.65513 0.77665 0.0
O1064 O 0.15177 0.6288 0.83269 0.0
O1065 O 0.10692 0.64113 0.82878 0.0
O1066 O 0.07868 0.65767 0.75027 0.0
O1067 O 0.05835 0.62337 0.7723 0.0
O1068 O 0.0943 0.58864 0.80533 0.0
O1069 O 0.12792 0.58972 0.77547 0.0
O1070 O 0.11426 0.61201 0.72523 0.0
O1071 O 0.15657 0.59475 0.73639 0.0
H1072 H 0.24593 0.64901 0.79392 0.0
H1073 H 0.28206 0.6616 0.83129 0.0
H1074 H 0.26085 0.59424 0.89263 0.0
H1075 H 0.22501 0.58133 0.85529 0.0
H1076 H 0.02874 0.60005 0.72978 0.0
H1077 H 0.99503 0.59916 0.68669 0.0
H1078 H 1.00749 0.68435 0.66927 0.0
H1079 H 0.0414 0.68532 0.71255 0.0
C1080 C 0.16983 0.46313 0.5422 0.0
Eu1081 Eu 0.16032 0.41257 0.52841 0.0
C1082 C 0.16213 0.48346 0.56657 0.0
C1083 C 0.14466 0.50483 0.55801 0.0
C1084 C 0.13811 0.52497 0.58026 0.0
C1085 C 0.1492 0.5242 0.61131 0.0
C1086 C 0.16637 0.50268 0.62003 0.0
C1087 C 0.17274 0.48246 0.59793 0.0
C1088 C 0.11414 0.39707 0.49877 0.0
C1089 C 0.14132 0.37964 0.59362 0.0
C1090 C 0.13656 0.3055 0.50239 0.0
Eu1091 Eu 0.15342 0.35228 0.5245 0.0
C1092 C 0.13938 0.28694 0.47421 0.0
C1093 C 0.16259 0.27088 0.46994 0.0
C1094 C 0.16367 0.25143 0.44543 0.0
C1095 C 0.14151 0.24723 0.42463 0.0
C1096 C 0.11876 0.26409 0.42796 0.0
C1097 C 0.11767 0.28359 0.45253 0.0
C1098 C 0.20459 0.36691 0.54384 0.0
C1099 C 0.18073 0.38599 0.46375 0.0
O1100 O 0.18566 0.44317 0.55117 0.0
O1101 O 0.15067 0.4553 0.52271 0.0
O1102 O 0.12876 0.41741 0.48999 0.0
O1103 O 0.12384 0.38606 0.52401 0.0
O1104 O 0.15123 0.40182 0.5803 0.0
O1105 O 0.13744 0.35741 0.57624 0.0
O1106 O 0.12391 0.32841 0.49757 0.0
O1107 O 0.1569 0.30806 0.52239 0.0
O1108 O 0.19175 0.34544 0.55391 0.0
O1109 O 0.18986 0.37896 0.52351 0.0
O1110 O 0.16988 0.36305 0.47428 0.0
O1111 O 0.18288 0.40737 0.4824 0.0
H1112 H 0.13638 0.50621 0.53391 0.0
H1113 H 0.12508 0.54154 0.57294 0.0
H1114 H 0.17508 0.50168 0.64395 0.0
H1115 H 0.18625 0.46631 0.60532 0.0
H1116 H 0.17975 0.27285 0.48598 0.0
H1117 H 0.18177 0.23921 0.44313 0.0
H1118 H 0.10137 0.26146 0.4124 0.0
H1119 H 0.09943 0.29555 0.45515 0.0
C1120 C 0.3174 0.59784 0.28701 0.0
Eu1121 Eu 0.36577 0.61379 0.30313 0.0
C1122 C 0.29544 0.60795 0.26641 0.0
C1123 C 0.30051 0.62661 0.24159 0.0
C1124 C 0.27937 0.63563 0.22187 0.0
C1125 C 0.25283 0.62632 0.22691 0.0
C1126 C 0.24779 0.60832 0.25249 0.0
C1127 C 0.26893 0.59923 0.27208 0.0
C1128 C 0.37419 0.66202 0.33261 0.0
C1129 C 0.39712 0.63829 0.23967 0.0
C1130 C 0.46934 0.64774 0.33252 0.0
Eu1131 Eu 0.42409 0.62733 0.30991 0.0
C1132 C 0.48823 0.64486 0.3602 0.0
C1133 C 0.49345 0.61966 0.37469 0.0
C1134 C 0.5122 0.61745 0.4 0.0
C1135 C 0.52619 0.64038 0.41149 0.0
C1136 C 0.52037 0.66568 0.39738 0.0
C1137 C 0.50159 0.66786 0.3721 0.0
C1138 C 0.41571 0.57485 0.28975 0.0
C1139 C 0.39235 0.59648 0.36928 0.0
O1140 O 0.3394 0.58958 0.27254 0.0
O1141 O 0.3225 0.61238 0.31244 0.0
O1142 O 0.35491 0.64535 0.33921 0.0
O1143 O 0.38752 0.65362 0.30842 0.0
O1144 O 0.37606 0.62555 0.25193 0.0
O1145 O 0.41833 0.64409 0.2582 0.0
O1146 O 0.4454 0.65748 0.33883 0.0
O1147 O 0.46837 0.62816 0.31143 0.0
O1148 O 0.43597 0.58994 0.281 0.0
O1149 O 0.40186 0.58788 0.3098 0.0
O1150 O 0.4129 0.61221 0.3608 0.0
O1151 O 0.37343 0.59012 0.34825 0.0
H1152 H 0.32085 0.63379 0.2371 0.0
H1153 H 0.28399 0.64899 0.20191 0.0
H1154 H 0.22755 0.60079 0.25686 0.0
H1155 H 0.26465 0.58509 0.29141 0.0
H1156 H 0.48334 0.60161 0.36616 0.0
H1157 H 0.51605 0.59766 0.41035 0.0
H1158 H 0.53106 0.68366 0.40505 0.0
H1159 H 0.49787 0.68755 0.36136 0.0
C1160 C 0.17474 0.56561 1.03842 0.0
Eu1161 Eu 0.16338 0.61557 0.05319 0.0
C1162 C 0.16315 0.54582 1.01616 0.0
C1163 C 0.14181 0.55328 0.99568 0.0
C1164 C 0.13188 0.53493 0.97312 0.0
C1165 C 0.14314 0.50889 0.97082 0.0
C1166 C 0.16358 0.50104 0.99244 0.0
C1167 C 0.17358 0.51947 1.01497 0.0
C1168 C 0.11633 0.62948 0.08194 0.0
C1169 C 0.14315 0.64818 0.98801 0.0
C1170 C 0.13642 0.72217 0.07928 0.0
Eu1171 Eu 0.15438 0.67565 0.05756 0.0
C1172 C 0.13815 0.73946 0.10849 0.0
C1173 C 0.16273 0.74366 0.12472 0.0
C1174 C 0.16419 0.76173 0.15067 0.0
C1175 C 0.14112 0.77601 0.16116 0.0
C1176 C 0.11633 0.77095 0.14566 0.0
C1177 C 0.11489 0.75289 0.11964 0.0
C1178 C 0.20573 0.6627 1.03753 0.0
C1179 C 0.18271 0.64213 0.1179 0.0
O1180 O 0.18658 0.58652 1.02511 0.0
O1181 O 0.15921 0.57239 0.06245 0.0
O1182 O 0.13116 0.6091 0.0903 0.0
O1183 O 0.12611 0.64096 0.05717 0.0
O1184 O 0.15224 0.62596 1.00202 0.0
O1185 O 0.13953 0.67069 1.00504 0.0
O1186 O 0.12317 0.69941 0.08203 0.0
O1187 O 0.15809 0.71964 0.06151 0.0
O1188 O 0.19225 0.68402 1.02821 0.0
O1189 O 0.19174 0.65013 0.05807 0.0
O1190 O 0.16895 0.66395 0.10866 0.0
O1191 O 0.18744 0.62218 0.09774 0.0
H1192 H 0.13331 0.57349 0.99659 0.0
H1193 H 0.11611 0.54138 0.95666 0.0
H1194 H 0.17273 0.48115 0.99081 0.0
H1195 H 0.18994 0.5134 1.03082 0.0
H1196 H 0.18096 0.73347 0.11691 0.0
H1197 H 0.1836 0.76503 0.16213 0.0
H1198 H 0.09828 0.78184 0.15268 0.0
H1199 H 0.09567 0.75 0.10759 0.0
C1200 C 0.20982 0.42551 0.78582 0.0
Eu1201 Eu 0.15953 0.41428 0.79926 0.0
C1202 C 0.23096 0.41699 0.76329 0.0
C1203 C 0.22558 0.39809 0.73899 0.0
C1204 C 0.24596 0.39063 0.71745 0.0
C1205 C 0.27198 0.40194 0.71999 0.0
C1206 C 0.27728 0.42057 0.74468 0.0
C1207 C 0.25693 0.42798 0.76618 0.0
C1208 C 0.14408 0.36866 0.83041 0.0
C1209 C 0.12728 0.39361 0.73448 0.0
C1210 C 0.05128 0.39136 0.824 0.0
Eu1211 Eu 0.09908 0.40692 0.80315 0.0
C1212 C 0.03306 0.39397 0.85237 0.0
C1213 C 1.00543 0.38795 0.84907 0.0
C1214 C 0.98788 0.3893 0.87559 0.0
C1215 C 0.99744 0.39674 0.90627 0.0
C1216 C 0.02528 0.40254 0.90954 0.0
C1217 C 0.04281 0.40132 0.88291 0.0
C1218 C 0.11411 0.45723 0.78052 0.0
C1219 C 0.13185 0.43766 0.86193 0.0
O1220 O 0.18925 0.43868 0.77353 0.0
O1221 O 0.20254 0.40756 0.80727 0.0
O1222 O 0.1644 0.38346 0.83876 0.0
O1223 O 0.13321 0.37763 0.80476 0.0
O1224 O 0.14947 0.40322 0.74793 0.0
O1225 O 0.10474 0.39038 0.75161 0.0
O1226 O 0.07355 0.37745 0.82801 0.0
O1227 O 0.05508 0.41279 0.806 0.0
O1228 O 0.09253 0.44419 0.77147 0.0
O1229 O 0.12553 0.44327 0.80198 0.0
O1230 O 0.11019 0.42341 0.85357 0.0
O1231 O 0.15239 0.44041 0.84204 0.0
H1232 H 0.20557 0.38942 0.73646 0.0
H1233 H 0.24117 0.37667 0.69823 0.0
H1234 H 0.29713 0.42961 0.74712 0.0
H1235 H 0.26141 0.44252 0.78491 0.0
H1236 H 0.99737 0.38211 0.82586 0.0
H1237 H 0.96665 0.38485 0.87195 0.0
H1238 H 0.03363 0.40778 0.93279 0.0
H1239 H 0.06401 0.40596 0.88626 0.0
C1240 C 0.36057 0.46016 0.54144 0.0
Eu1241 Eu 0.36959 0.40827 0.54698 0.0
C1242 C 0.37061 0.48291 0.52196 0.0
C1243 C 0.38928 0.47867 0.49708 0.0
C1244 C 0.3962 0.49993 0.47629 0.0
C1245 C 0.38451 0.52571 0.4801 0.0
C1246 C 0.36669 0.53005 0.5059 0.0
C1247 C 0.35982 0.50882 0.52667 0.0
C1248 C 0.41804 0.38773 0.56919 0.0
C1249 C 0.38643 0.37319 0.48551 0.0
C1250 C 0.37838 0.29819 0.57628 0.0
Eu1251 Eu 0.37018 0.34763 0.55527 0.0
C1252 C 0.38186 0.283 0.60723 0.0
C1253 C 0.35992 0.27854 0.62818 0.0
C1254 C 0.36286 0.26232 0.65579 0.0
C1255 C 0.38787 0.25017 0.66349 0.0
C1256 C 0.40988 0.25498 0.64273 0.0
C1257 C 0.40687 0.27102 0.61495 0.0
C1258 C 0.32271 0.36632 0.52855 0.0
C1259 C 0.34545 0.38411 0.61339 0.0
O1260 O 0.34708 0.44168 0.52567 0.0
O1261 O 0.37733 0.44976 0.5625 0.0
O1262 O 0.41591 0.4069 0.54786 0.0
O1263 O 0.39459 0.38033 0.57673 0.0
O1264 O 0.3741 0.3953 0.49532 0.0
O1265 O 0.39119 0.35283 0.50586 0.0
O1266 O 0.39797 0.31424 0.56689 0.0
O1267 O 0.35447 0.30832 0.57006 0.0
O1268 O 0.33504 0.34415 0.52024 0.0
O1269 O 0.33669 0.37752 0.55013 0.0
O1270 O 0.3542 0.35992 0.60448 0.0
O1271 O 0.34782 0.40545 0.59437 0.0
H1272 H 0.39768 0.4587 0.493 0.0
H1273 H 0.40953 0.49583 0.45624 0.0
H1274 H 0.35736 0.54968 0.50934 0.0
H1275 H 0.34534 0.51241 0.54573 0.0
H1276 H 0.3402 0.28699 0.62286 0.0
H1277 H 0.34519 0.25853 0.67045 0.0
H1278 H 0.42947 0.24609 0.64779 0.0
H1279 H 0.42411 0.27379 0.59924 0.0
C1280 C 0.32135 0.1429 0.19948 0.0
C1281 C 0.2937 0.13725 0.19502 0.0
C1282 C 0.33871 0.14575 0.17294 0.0
C1283 C 0.32891 0.14219 0.1415 0.0
H1284 H 0.32959 0.14463 0.22355 0.0
H1285 H 0.36001 0.14959 0.17705 0.0
S1286 S 0.25802 0.12792 0.11739 0.0
N1287 N 0.25726 0.12911 0.15704 0.0
N1288 N 0.28973 0.13392 0.10737 0.0
C1289 C 0.30119 0.13719 0.13688 0.0
C1290 C 0.2836 0.13482 0.16364 0.0
C1291 C 0.13302 0.08389 0.42092 0.0
C1292 C 0.13689 0.07345 0.38986 0.0
C1293 C 0.13569 0.06709 0.44819 0.0
C1294 C 0.14144 0.03931 0.44495 0.0
H1295 H 0.12899 0.10525 0.42421 0.0
H1296 H 0.13359 0.07588 0.4719 0.0
S1297 S 0.15115 1.0019 0.36865 0.0
N1298 N 0.14531 0.03346 0.35739 0.0
N1299 N 0.14979 1.00202 0.40832 0.0
C1300 C 0.14415 0.02854 0.41393 0.0
C1301 C 0.14195 0.04559 0.38643 0.0
C1302 C 0.24008 0.86898 0.6742 0.0
C1303 C 0.24146 0.89441 0.68942 0.0
C1304 C 0.22196 0.86432 0.64867 0.0
C1305 C 0.20498 0.8851 0.63724 0.0
H1306 H 0.25349 0.85276 0.68167 0.0
H1307 H 0.22219 0.84481 0.63684 0.0
S1308 S 0.19986 0.95484 0.66966 0.0
N1309 N 0.22357 0.94024 0.69171 0.0
N1310 N 0.18953 0.93146 0.6442 0.0
C1311 C 0.20551 0.91025 0.653 0.0
C1312 C 0.22374 0.91492 0.67897 0.0
C1313 C 0.37163 0.94579 0.90963 0.0
C1314 C 0.39636 0.94593 0.89307 0.0
C1315 C 0.36628 0.96463 0.93384 0.0
C1316 C 0.38534 0.98457 0.94212 0.0
H1317 H 0.35578 0.93181 0.90278 0.0
H1318 H 0.3466 0.96429 0.94527 0.0
S1319 S 0.45383 0.99263 0.90703 0.0
N1320 N 0.4408 0.96648 0.88784 0.0
N1321 N 0.43052 1.00241 0.93293 0.0
C1322 C 0.41078 0.98396 0.92701 0.0
C1323 C 0.41635 0.9645 0.90255 0.0
C1324 C 0.33693 0.88937 0.40963 0.0
C1325 C 0.32748 0.89217 0.44129 0.0
C1326 C 0.31917 0.89247 0.3834 0.0
C1327 C 0.29148 0.89765 0.38838 0.0
H1328 H 0.35822 0.88589 0.40513 0.0
H1329 H 0.32711 0.89123 0.35918 0.0
S1330 S 0.25672 0.90503 0.46672 0.0
N1331 N 0.28867 0.89934 0.47615 0.0
N1332 N 0.25543 0.90455 0.42707 0.0
C1333 C 0.28177 0.89938 0.41995 0.0
C1334 C 0.29977 0.89676 0.4464 0.0
C1335 C 0.37684 0.03593 0.67906 0.0
C1336 C 0.39231 0.0379 0.65094 0.0
C1337 C 0.38044 0.05408 0.70426 0.0
C1338 C 0.39988 0.07486 0.70255 0.0
H1339 H 0.36141 0.02047 0.6814 0.0
H1340 H 0.36777 0.0516 0.72529 0.0
S1341 S 0.44628 0.08801 0.6342 0.0
N1342 N 0.42812 0.0617 0.62261 0.0
N1343 N 0.43528 0.09597 0.67047 0.0
C1344 C 0.41587 0.07684 0.67467 0.0
C1345 C 0.41193 0.05838 0.64869 0.0
C1346 C 0.2072 0.11883 0.92298 0.0
C1347 C 0.20047 0.14464 0.93475 0.0
C1348 C 0.22434 0.1157 0.89657 0.0
C1349 C 0.23565 0.13825 0.88089 0.0
H1350 H 0.20001 0.10076 0.9351 0.0
H1351 H 0.22993 0.09535 0.88952 0.0
S1352 S 0.22194 0.21034 0.89976 0.0
N1353 N 0.20446 0.19328 0.92693 0.0
N1354 N 0.23692 0.18739 0.87707 0.0
C1355 C 0.22789 0.16426 0.89117 0.0
C1356 C 0.21014 0.16746 0.91806 0.0
C1357 C 0.11971 0.96082 0.16918 0.0
C1358 C 0.1415 0.94547 0.18112 0.0
C1359 C 0.12359 0.97968 0.1442 0.0
C1360 C 0.14923 0.98335 0.13014 0.0
H1361 H 0.10007 0.95958 0.1806 0.0
H1362 H 0.10667 0.9921 0.13655 0.0
S1363 S 0.21212 0.94633 0.15147 0.0
N1364 N 0.18899 0.93384 0.17595 0.0
N1365 N 0.19629 0.969 0.12901 0.0
C1366 C 0.17073 0.96694 0.14076 0.0
C1367 C 0.16684 0.94804 0.16626 0.0
C1368 C 0.71897 0.88421 0.88739 0.0
C1369 C 0.74443 0.89632 0.89223 0.0
C1370 C 0.70089 0.88063 0.91321 0.0
C1371 C 0.70781 0.88931 0.94432 0.0
H1372 H 0.71273 0.87832 0.86343 0.0
H1373 H 0.68115 0.87196 0.90862 0.0
S1374 S 0.77398 0.91771 0.97001 0.0
N1375 N 0.77687 0.91374 0.93076 0.0
N1376 N 0.74319 0.90733 0.97906 0.0
C1377 C 0.73386 0.89999 0.94954 0.0
C1378 C 0.75211 0.90343 0.92351 0.0
C1379 C 0.91191 0.9792 0.64375 0.0
C1380 C 0.88603 0.98228 0.62999 0.0
C1381 C 0.91628 0.9608 0.66911 0.0
C1382 C 0.89479 0.94537 0.68146 0.0
H1383 H 0.92835 0.99225 0.6363 0.0
H1384 H 0.93594 0.96015 0.68059 0.0
S1385 S 0.82514 0.94154 0.64869 0.0
N1386 N 0.84016 0.96496 0.62662 0.0
N1387 N 0.84821 0.93087 0.67457 0.0
C1388 C 0.86967 0.94638 0.66572 0.0
C1389 C 0.8653 0.96481 0.63992 0.0
C1390 C 0.80931 0.1152 0.39631 0.0
C1391 C 0.79805 0.13797 0.3812 0.0
C1392 C 0.8281 0.118 0.4211 0.0
C1393 C 0.83611 0.14372 0.43204 0.0
H1394 H 0.80275 0.09504 0.38968 0.0
H1395 H 0.83538 0.09978 0.43287 0.0
S1396 S 0.81465 0.20973 0.39763 0.0
N1397 N 0.79788 0.18701 0.37638 0.0
N1398 N 0.8332 0.19245 0.42371 0.0
C1399 C 0.82644 0.16672 0.41559 0.0
C1400 C 0.80729 0.16379 0.39001 0.0
C1401 C 0.66393 0.07145 0.1394 0.0
C1402 C 0.6471 0.04887 0.13442 0.0
C1403 C 0.6586 0.08998 0.16396 0.0
C1404 C 0.63599 0.08693 0.18399 0.0
H1405 H 0.68216 0.07402 0.12529 0.0
H1406 H 0.67308 0.10599 0.16846 0.0
S1407 S 0.58455 0.03269 0.17981 0.0
N1408 N 0.60603 0.02542 0.15068 0.0
N1409 N 0.59574 0.0609 0.19634 0.0
C1410 C 0.61788 0.06574 0.17787 0.0
C1411 C 0.62348 0.04654 0.15312 0.0
C1412 C 0.73093 0.16021 0.68505 0.0
C1413 C 0.73945 0.13427 0.69498 0.0
C1414 C 0.71199 0.16335 0.66001 0.0
C1415 C 0.70108 0.14061 0.64439 0.0
H1416 H 0.73991 0.17809 0.69562 0.0
H1417 H 0.70713 0.18358 0.65162 0.0
S1418 S 0.71361 0.06857 0.66531 0.0
N1419 N 0.73325 0.08573 0.69006 0.0
N1420 N 0.69771 0.0915 0.64329 0.0
C1421 C 0.7081 0.11469 0.65577 0.0
C1422 C 0.72731 0.11154 0.68099 0.0
C1423 C 0.6347 0.96667 0.44406 0.0
C1424 C 0.64249 0.99382 0.43951 0.0
C1425 C 0.63234 0.94901 0.41774 0.0
C1426 C 0.63852 0.95796 0.38649 0.0
H1427 H 0.63092 0.95899 0.46808 0.0
H1428 H 0.62681 0.92808 0.422 0.0
S1429 S 0.65907 0.02742 0.36218 0.0
N1430 N 0.65542 0.02897 0.40157 0.0
N1431 N 0.65158 0.99597 0.35238 0.0
C1432 C 0.64566 0.98526 0.38173 0.0
C1433 C 0.64753 1.00317 0.40823 0.0
C1434 C 0.83275 0.91954 0.1559 0.0
C1435 C 0.83843 0.89363 0.14383 0.0
C1436 C 0.81474 0.92312 0.18138 0.0
C1437 C 0.80147 0.90093 0.1955 0.0
H1438 H 0.8414 0.93735 0.14461 0.0
H1439 H 0.81005 0.94359 0.18886 0.0
S1440 S 0.81126 0.82862 0.17471 0.0
N1441 N 0.83102 0.84517 0.14937 0.0
N1442 N 0.79687 0.85193 0.19742 0.0
C1443 C 0.80803 0.87474 0.18483 0.0
C1444 C 0.82669 0.87107 0.15901 0.0
C1445 C 0.87842 0.09168 0.91611 0.0
C1446 C 0.90122 0.08928 0.89626 0.0
C1447 C 0.87298 0.0724 0.93995 0.0
C1448 C 0.88991 0.04976 0.94437 0.0
H1449 H 0.8638 0.10767 0.91184 0.0
H1450 H 0.8546 0.07446 0.95389 0.0
S1451 S 0.95303 0.03517 0.89944 0.0
N1452 N 0.9418 0.0638 0.88366 0.0
N1453 N 0.93131 0.02698 0.92802 0.0
C1454 C 0.91375 0.04809 0.92599 0.0
C1455 C 0.91946 0.06802 0.90198 0.0
C1456 C 0.81891 0.6461 0.69671 0.0
C1457 C 0.79088 0.64238 0.69283 0.0
C1458 C 0.83591 0.6488 0.66981 0.0
C1459 C 0.82531 0.64697 0.63851 0.0
H1460 H 0.82772 0.64636 0.72059 0.0
H1461 H 0.85748 0.65108 0.67348 0.0
S1462 S 0.75325 0.6384 0.61577 0.0
N1463 N 0.75327 0.63814 0.65548 0.0
N1464 N 0.78512 0.64262 0.60514 0.0
C1465 C 0.79727 0.64404 0.63447 0.0
C1466 C 0.78004 0.64184 0.66163 0.0
C1467 C 0.62897 0.58884 0.9175 0.0
C1468 C 0.63713 0.58075 0.88661 0.0
C1469 C 0.63269 0.57155 0.94421 0.0
C1470 C 0.64378 0.54546 0.94041 0.0
H1471 H 0.62057 0.60886 0.92116 0.0
H1472 H 0.62703 0.57859 0.96791 0.0
S1473 S 0.66658 0.51414 0.86428 0.0
N1474 N 0.65597 0.54461 0.85377 0.0
N1475 N 0.6619 0.51213 0.90351 0.0
C1476 C 0.65102 0.53691 0.90951 0.0
C1477 C 0.64793 0.55456 0.8827 0.0
C1478 C 0.6931 0.38593 0.17562 0.0
C1479 C 0.70425 0.39044 0.14499 0.0
C1480 C 0.70948 0.3868 0.20332 0.0
C1481 C 0.73751 0.39134 0.20089 0.0
H1482 H 0.67156 0.38267 0.17826 0.0
H1483 H 0.70021 0.38421 0.22672 0.0
S1484 S 0.77659 0.40223 0.12591 0.0
N1485 N 0.74504 0.3983 0.11374 0.0
N1486 N 0.77571 0.39942 0.16548 0.0
C1487 C 0.74891 0.3948 0.17026 0.0
C1488 C 0.73229 0.39444 0.14235 0.0
C1489 C 0.90834 0.48402 0.42831 0.0
C1490 C 0.88362 0.48474 0.44504 0.0
C1491 C 0.91268 0.46543 0.40338 0.0
C1492 C 0.89227 0.44723 0.3941 0.0
H1493 H 0.92411 0.49849 0.43389 0.0
H1494 H 0.93148 0.46646 0.39008 0.0
S1495 S 0.82479 0.43952 0.4319 0.0
N1496 N 0.83914 0.46458 0.45177 0.0
N1497 N 0.84735 0.42958 0.4052 0.0
C1498 C 0.86805 0.44681 0.41177 0.0
C1499 C 0.8637 0.46558 0.43717 0.0
C1500 C 0.81873 0.38585 0.88206 0.0
C1501 C 0.79368 0.39927 0.88411 0.0
C1502 C 0.83574 0.3836 0.90922 0.0
C1503 C 0.82836 0.39532 0.93877 0.0
H1504 H 0.82509 0.37702 0.85949 0.0
H1505 H 0.85487 0.37309 0.90695 0.0
S1506 S 0.76416 0.43188 0.95598 0.0
N1507 N 0.76198 0.42365 0.91765 0.0
N1508 N 0.79365 0.42005 0.96827 0.0
C1509 C 0.80317 0.40866 0.94078 0.0
C1510 C 0.78592 0.41051 0.91351 0.0
C1511 C 0.90931 0.57243 0.17361 0.0
C1512 C 0.8904 0.59213 0.18298 0.0
C1513 C 0.90348 0.55442 0.14848 0.0
C1514 C 0.87864 0.55572 0.13185 0.0
H1515 H 0.92772 0.56951 0.18738 0.0
H1516 H 0.9177 0.53827 0.14355 0.0
S1517 S 0.82504 0.60742 0.14318 0.0
N1518 N 0.84772 0.61436 0.17116 0.0
N1519 N 0.8371 0.58121 0.12324 0.0
C1520 C 0.86081 0.57704 0.13912 0.0
C1521 C 0.86661 0.59508 0.16487 0.0
C1522 C 0.72849 0.65325 0.39421 0.0
C1523 C 0.72838 0.62811 0.37826 0.0
C1524 C 0.71075 0.65833 0.41981 0.0
C1525 C 0.69257 0.63836 0.43025 0.0
H1526 H 0.74356 0.66838 0.38833 0.0
H1527 H 0.7127 0.67711 0.43301 0.0
S1528 S 0.68074 0.57144 0.39303 0.0
N1529 N 0.70554 0.58484 0.37171 0.0
N1530 N 0.67303 0.59411 0.42066 0.0
C1531 C 0.6908 0.61409 0.41304 0.0
C1532 C 0.7085 0.60904 0.38678 0.0
C1533 C 0.661 0.44314 0.66674 0.0
C1534 C 0.63677 0.44384 0.68432 0.0
C1535 C 0.66639 0.46234 0.64275 0.0
C1536 C 0.6479 0.48324 0.63573 0.0
H1537 H 0.67654 0.42846 0.67274 0.0
H1538 H 0.68569 0.46148 0.6305 0.0
S1539 S 0.58099 0.49335 0.67421 0.0
N1540 N 0.59348 0.46615 0.6921 0.0
N1541 N 0.60381 0.50274 0.64745 0.0
C1542 C 0.62292 0.4833 0.65195 0.0
C1543 C 0.6173 0.46345 0.67616 0.0
C1544 C 0.21864 0.37057 0.42957 0.0
C1545 C 0.19554 0.38678 0.43336 0.0
C1546 C 0.23762 0.37646 0.40552 0.0
C1547 C 0.23391 0.39867 0.38458 0.0
H1548 H 0.2231 0.35464 0.4468 0.0
H1549 H 0.25609 0.36468 0.40471 0.0
S1550 S 0.17413 0.44408 0.38167 0.0
N1551 N 0.16834 0.42377 0.41255 0.0
N1552 N 0.20338 0.43432 0.36645 0.0
C1553 C 0.20967 0.41349 0.38659 0.0
C1554 C 0.19062 0.40767 0.41127 0.0
C1555 C 0.36653 0.45788 0.17757 0.0
C1556 C 0.39213 0.44888 0.1879 0.0
C1557 C 0.36387 0.47658 0.15255 0.0
C1558 C 0.38668 0.48687 0.13674 0.0
H1559 H 0.34836 0.45134 0.1899 0.0
H1560 H 0.34382 0.48375 0.14623 0.0
S1561 S 0.4581 0.46797 0.15222 0.0
N1562 N 0.4407 0.45012 0.17875 0.0
N1563 N 0.43558 0.48535 0.13113 0.0
C1564 C 0.41233 0.47677 0.14519 0.0
C1565 C 0.41508 0.45767 0.17093 0.0
C1566 C 0.29943 0.66101 0.9004 0.0
C1567 C 0.29719 0.63516 0.88642 0.0
C1568 C 0.31829 0.66597 0.92509 0.0
C1569 C 0.33535 0.64518 0.93631 0.0
H1570 H 0.28547 0.67696 0.89361 0.0
H1571 H 0.31811 0.68545 0.93698 0.0
S1572 S 0.34079 0.57571 0.90349 0.0
N1573 N 0.31622 0.58993 0.88242 0.0
N1574 N 0.35131 0.59911 0.92885 0.0
C1575 C 0.33476 0.62005 0.92065 0.0
C1576 C 0.31573 0.61505 0.89568 0.0
C1577 C 0.16363 0.57822 0.6728 0.0
C1578 C 0.13789 0.58439 0.68515 0.0
C1579 C 0.16686 0.55958 0.64795 0.0
C1580 C 0.14447 0.54649 0.63431 0.0
H1581 H 0.18164 0.58695 0.68342 0.0
H1582 H 0.18716 0.55468 0.64005 0.0
S1583 S 0.0725 0.55746 0.65557 0.0
N1584 N 0.08936 0.57756 0.68016 0.0
N1585 N 0.09549 0.54243 0.63296 0.0
C1586 C 0.11843 0.55379 0.64478 0.0
C1587 C 0.11512 0.57284 0.67032 0.0
C1588 C 0.19952 0.61461 0.16345 0.0
C1589 C 0.19594 0.64038 0.14963 0.0
C1590 C 0.21676 0.61066 0.18967 0.0
C1591 C 0.23129 0.63233 0.20302 0.0
H1592 H 0.18983 0.59705 0.15296 0.0
H1593 H 0.21992 0.59017 0.1983 0.0
S1594 S 0.2263 0.70445 0.17832 0.0
N1595 N 0.20615 0.68839 0.15303 0.0
N1596 N 0.23879 0.68102 0.20269 0.0
C1597 C 0.22656 0.65856 0.1908 0.0
C1598 C 0.20872 0.6626 0.16409 0.0
C1599 C 0.12471 0.44729 0.9206 0.0
C1600 C 0.13092 0.45634 0.8894 0.0
C1601 C 0.12791 0.46459 0.94717 0.0
C1602 C 0.13664 0.49153 0.94299 0.0
H1603 H 0.11866 0.4265 0.92463 0.0
H1604 H 0.12409 0.45677 0.97112 0.0
S1605 S 0.1537 0.52523 0.86585 0.0
N1606 N 0.14507 0.49415 0.85572 0.0
N1607 N 0.15036 0.52655 0.90529 0.0
C1608 C 0.14162 0.50101 0.91173 0.0
C1609 C 0.1389 0.48342 0.88499 0.0
C1610 C 0.32372 0.41367 0.65441 0.0
C1611 C 0.32969 0.38737 0.64349 0.0
C1612 C 0.30575 0.41801 0.67981 0.0
C1613 C 0.29288 0.39626 0.69533 0.0
H1614 H 0.33238 0.43124 0.64267 0.0
H1615 H 0.30111 0.43867 0.68652 0.0
S1616 S 0.30353 0.32331 0.67863 0.0
N1617 N 0.32274 0.33905 0.65204 0.0
N1618 N 0.28892 0.34736 0.69998 0.0
C1619 C 0.29949 0.36979 0.68577 0.0
C1620 C 0.31799 0.3653 0.65991 0.0
C1621 C 0.36471 0.55842 0.4408 0.0
C1622 C 0.3879 0.54684 0.45487 0.0
C1623 C 0.36664 0.57567 0.41415 0.0
C1624 C 0.39184 0.58236 0.40069 0.0
H1625 H 0.34475 0.55306 0.44946 0.0
H1626 H 0.34811 0.58314 0.40331 0.0
S1627 S 0.45888 0.5594 0.43021 0.0
N1628 N 0.43703 0.54467 0.4547 0.0
N1629 N 0.44065 0.57742 0.40454 0.0
C1630 C 0.41533 0.57214 0.41548 0.0
C1631 C 0.41335 0.55421 0.44251 0.0
C1632 C 0.13512 0.22797 0.36823 0.0
C1633 C 0.14173 0.22422 0.40108 0.0
C1634 C 0.1375 0.20658 0.34574 0.0
C1635 C 0.14657 0.18075 0.3554 0.0
H1636 H 0.12904 0.2478 0.35965 0.0
H1637 H 0.13346 0.21063 0.32055 0.0
S1638 S 0.16182 0.15918 0.43925 0.0
N1639 N 0.15424 0.1916 0.44236 0.0
N1640 N 0.1591 0.15201 0.40064 0.0
C1641 C 0.15161 0.17649 0.38842 0.0
C1642 C 0.14911 0.19801 0.41109 0.0
C1643 C 0.06933 0.90484 0.59149 0.0
C1644 C 0.09355 0.88991 0.59464 0.0
C1645 C 0.04981 0.90541 0.61633 0.0
C1646 C 0.05378 0.89131 0.64557 0.0
H1647 H 0.06566 0.9167 0.56995 0.0
H1648 H 0.03187 0.91771 0.61301 0.0
S1649 S 0.11262 0.84739 0.66522 0.0
N1650 N 0.11948 0.85947 0.62907 0.0
N1651 N 0.08301 0.86036 0.67506 0.0
C1652 C 0.07745 0.87558 0.64852 0.0
C1653 C 0.09721 0.87491 0.62331 0.0
C1654 C 0.37627 0.81735 0.84292 0.0
C1655 C 0.39286 0.84052 0.84282 0.0
C1656 C 0.37701 0.79834 0.86827 0.0
C1657 C 0.39402 0.80179 0.89525 0.0
H1658 H 0.36186 0.81429 0.8236 0.0
H1659 H 0.36358 0.78107 0.86699 0.0
S1660 S 0.44123 0.85944 0.90717 0.0
N1661 N 0.42723 0.86559 0.87179 0.0
N1662 N 0.42796 0.83072 0.91996 0.0
C1663 C 0.41127 0.8246 0.89504 0.0
C1664 C 0.41083 0.84372 0.86881 0.0
C1665 C 0.43807 0.11408 0.13263 0.0
C1666 C 0.437 0.13021 0.1046 0.0
C1667 C 0.45815 0.11757 0.15601 0.0
C1668 C 0.47838 0.13732 0.15261 0.0
H1669 H 0.42303 0.09854 0.13689 0.0
H1670 H 0.45786 0.10448 0.17699 0.0
S1671 S 0.48529 0.18482 0.0836 0.0
N1672 N 0.45839 0.16654 0.07446 0.0
N1673 N 0.49624 0.17338 0.11874 0.0
C1674 C 0.4779 0.15352 0.12454 0.0
C1675 C 0.45719 0.14996 0.10054 0.0
C1676 C 0.16743 0.83921 0.20273 0.0
C1677 C 0.15021 0.84283 0.22943 0.0
C1678 C 0.16437 0.81752 0.18145 0.0
C1679 C 0.14381 0.79823 0.18549 0.0
H1680 H 0.18354 0.85348 0.19783 0.0
H1681 H 0.17805 0.81619 0.16118 0.0
S1682 S 0.09382 0.79722 0.25214 0.0
N1683 N 0.11233 0.82437 0.25945 0.0
N1684 N 0.1061 0.78369 0.21889 0.0
C1685 C 0.12635 0.80135 0.21212 0.0
C1686 C 0.1297 0.82352 0.23422 0.0
C1687 C 0.46214 0.91456 0.42863 0.0
C1688 C 0.48235 0.8949 0.43319 0.0
C1689 C 0.44043 0.9171 0.45 0.0
C1690 C 0.43771 0.90025 0.47731 0.0
H1691 H 0.46281 0.92793 0.40792 0.0
H1692 H 0.42547 0.93256 0.44478 0.0
S1693 S 0.48561 0.84594 0.50123 0.0
N1694 N 0.49855 0.85831 0.4676 0.0
N1695 N 0.45775 0.86348 0.50817 0.0
C1696 C 0.45783 0.88054 0.48249 0.0
C1697 C 0.48005 0.87775 0.46036 0.0
C1698 C 0.40453 0.20636 0.68807 0.0
C1699 C 0.39052 0.23105 0.69163 0.0
C1700 C 0.40561 0.18705 0.713 0.0
C1701 C 0.39261 0.19137 0.74272 0.0
H1702 H 0.41401 0.2014 0.66536 0.0
H1703 H 0.41598 0.16811 0.70844 0.0
S1704 S 0.35591 0.25381 0.76611 0.0
N1705 N 0.36552 0.2597 0.72869 0.0
N1706 N 0.36703 0.22315 0.77513 0.0
C1707 C 0.37945 0.21635 0.74717 0.0
C1708 C 0.37848 0.23616 0.72179 0.0
C1709 C 0.07539 0.1243 0.98105 0.0
C1710 C 0.09716 0.14263 0.98105 0.0
C1711 C 0.05493 0.12551 0.95744 0.0
C1712 C 0.05554 0.14484 0.93236 0.0
H1713 H 0.07483 0.10809 0.99862 0.0
H1714 H 0.03889 0.11055 0.95826 0.0
S1715 S 0.10907 0.19668 0.92058 0.0
N1716 N 0.11834 0.18042 0.9536 0.0
N1717 N 0.08037 0.18262 0.90909 0.0
C1718 C 0.07696 0.16371 0.93259 0.0
C1719 C 0.09766 0.16257 0.95682 0.0
C1720 C 0.89357 0.81791 0.7372 0.0
C1721 C 0.89668 0.84504 0.72739 0.0
C1722 C 0.89548 0.79645 0.71485 0.0
C1723 C 0.90086 0.80135 0.68196 0.0
H1724 H 0.88801 0.81335 0.76183 0.0
H1725 H 0.89196 0.77596 0.72319 0.0
S1726 S 0.911 0.86891 0.6444 0.0
N1727 N 0.90561 0.87545 0.68275 0.0
N1728 N 0.90975 0.83563 0.64123 0.0
C1729 C 0.90503 0.82837 0.67231 0.0
C1730 C 0.90274 0.85005 0.69487 0.0
C1731 C 0.98641 0.14608 0.46384 0.0
C1732 C 0.98108 0.1469 0.43045 0.0
C1733 C 0.96517 0.14417 0.4865 0.0
C1734 C 0.938 0.14311 0.4764 0.0
H1735 H 1.00711 0.14539 0.47238 0.0
H1736 H 0.9701 0.1417 0.51174 0.0
S1737 S 0.91323 0.14906 0.39231 0.0
N1738 N 0.94647 0.15021 0.38909 0.0
N1739 N 0.90704 0.14578 0.43113 0.0
C1740 C 0.93254 0.14577 0.44333 0.0
C1741 C 0.95393 0.14792 0.4205 0.0
C1742 C 0.63861 0.23819 0.21614 0.0
C1743 C 0.63496 0.23318 0.18295 0.0
C1744 C 0.64017 0.21671 0.23877 0.0
C1745 C 0.63786 0.18953 0.229 0.0
H1746 H 0.64179 0.25871 0.22442 0.0
H1747 H 0.64495 0.22132 0.2636 0.0
S1748 S 0.62402 0.16576 0.14601 0.0
N1749 N 0.62576 0.19902 0.14249 0.0
N1750 N 0.62927 0.15915 0.18447 0.0
C1751 C 0.63248 0.18453 0.19633 0.0
C1752 C 0.63083 0.20618 0.17348 0.0
C1753 C 0.5735 0.87434 0.9424 0.0
C1754 C 0.55431 0.8951 0.9367 0.0
C1755 C 0.59283 0.87617 0.9674 0.0
C1756 C 0.59375 0.89875 0.98793 0.0
H1757 H 0.57396 0.8567 0.92702 0.0
H1758 H 0.60784 0.86035 0.96966 0.0
S1759 S 0.54817 0.95853 0.984 0.0
N1760 N 0.53788 0.93907 0.95422 0.0
N1761 N 0.57327 0.94196 1.00141 0.0
C1762 C 0.57425 0.91921 0.98312 0.0
C1763 C 0.55478 0.91751 0.9576 0.0
C1764 C 0.88812 0.23926 0.86129 0.0
C1765 C 0.90351 0.2375 0.88986 0.0
C1766 C 0.88689 0.2176 0.83938 0.0
C1767 C 0.9012 0.19342 0.84494 0.0
H1768 H 0.87595 0.25709 0.85651 0.0
H1769 H 0.87328 0.21915 0.81899 0.0
S1770 S 0.94502 0.17836 0.91521 0.0
N1771 N 0.93405 0.20945 0.92171 0.0
N1772 N 0.93171 0.16914 0.88049 0.0
C1773 C 0.91765 0.19183 0.87247 0.0
C1774 C 0.91891 0.21379 0.89485 0.0
C1775 C 0.57116 0.12293 0.64908 0.0
C1776 C 0.55305 0.1447 0.64627 0.0
C1777 C 0.5924 0.11944 0.62731 0.0
C1778 C 0.59664 0.13735 0.60124 0.0
H1779 H 0.56925 0.10864 0.6688 0.0
H1780 H 0.60584 0.10241 0.63133 0.0
S1781 S 0.5537 0.19682 0.58167 0.0
N1782 N 0.5401 0.18428 0.61484 0.0
N1783 N 0.57964 0.17702 0.57294 0.0
C1784 C 0.57831 0.15897 0.59756 0.0
C1785 C 0.55671 0.16284 0.62032 0.0
C1786 C 0.66361 0.84653 0.38062 0.0
C1787 C 0.64898 0.84782 0.35149 0.0
C1788 C 0.66003 0.82539 0.40279 0.0
C1789 C 0.64167 0.80423 0.39708 0.0
H1790 H 0.67812 0.86215 0.38662 0.0
H1791 H 0.67207 0.82554 0.4246 0.0
S1792 S 0.59799 0.79772 0.32465 0.0
N1793 N 0.6153 0.82581 0.31803 0.0
N1794 N 0.60824 0.78604 0.35996 0.0
C1795 C 0.62682 0.80507 0.36799 0.0
C1796 C 0.63047 0.82686 0.34524 0.0
C1797 C 0.93978 0.91434 0.1245 0.0
C1798 C 0.93817 0.89855 0.09633 0.0
C1799 C 0.96 0.91027 0.14762 0.0
C1800 C 0.97992 0.89023 0.14391 0.0
H1801 H 0.92511 0.93017 0.12902 0.0
H1802 H 0.96015 0.92325 0.16858 0.0
S1803 S 0.98521 0.84305 0.07475 0.0
N1804 N 0.95856 0.86195 0.06596 0.0
N1805 N 0.9967 0.854 0.10975 0.0
C1806 C 0.97879 0.87419 0.11583 0.0
C1807 C 0.95788 0.87833 0.09209 0.0
C1808 C 0.66158 0.71427 0.84028 0.0
C1809 C 0.64202 0.6936 0.83811 0.0
C1810 C 0.66041 0.7342 0.86429 0.0
C1811 C 0.63963 0.73444 0.88739 0.0
H1812 H 0.67861 0.71451 0.82392 0.0
H1813 H 0.67639 0.74917 0.86525 0.0
S1814 S 0.58296 0.68545 0.89207 0.0
N1815 N 0.60073 0.67516 0.86078 0.0
N1816 N 0.59849 0.71258 0.9059 0.0
C1817 C 0.61927 0.71459 0.88472 0.0
C1818 C 0.62048 0.69421 0.86015 0.0
C1819 C 0.5738 0.38955 0.09827 0.0
C1820 C 0.59875 0.40038 0.10834 0.0
C1821 C 0.55212 0.38625 0.12023 0.0
C1822 C 0.55468 0.39374 0.15291 0.0
H1823 H 0.57065 0.38467 0.07317 0.0
H1824 H 0.53298 0.37866 0.11137 0.0
S1825 S 0.61723 0.4186 0.19228 0.0
N1826 N 0.62552 0.41548 0.15404 0.0
N1827 N 0.58528 0.40921 0.19464 0.0
C1828 C 0.58002 0.40304 0.16339 0.0
C1829 C 0.60188 0.40635 0.14131 0.0
C1830 C 0.90911 0.33935 0.36508 0.0
C1831 C 0.89194 0.33735 0.3381 0.0
C1832 C 0.9097 0.31928 0.38914 0.0
C1833 C 0.89307 0.29617 0.3875 0.0
H1834 H 0.92161 0.35712 0.3683 0.0
H1835 H 0.92266 0.32244 0.40983 0.0
S1836 S 0.84631 0.27963 0.32035 0.0
N1837 N 0.85914 0.30931 0.31013 0.0
N1838 N 0.86037 0.2715 0.35516 0.0
C1839 C 0.87652 0.29334 0.36002 0.0
C1840 C 0.87598 0.31385 0.33539 0.0
C1841 C 0.95575 0.64921 0.59741 0.0
C1842 C 0.93079 0.63782 0.60658 0.0
C1843 C 0.97747 0.65116 0.61962 0.0
C1844 C 0.97494 0.64173 0.65165 0.0
H1845 H 0.95887 0.65558 0.57273 0.0
H1846 H 0.99661 0.65924 0.61141 0.0
S1847 S 0.91242 0.61459 0.68888 0.0
N1848 N 0.90408 0.62002 0.65094 0.0
N1849 N 0.94438 0.6238 0.69203 0.0
C1850 C 0.9496 0.63185 0.66134 0.0
C1851 C 0.92771 0.62988 0.639 0.0
C1852 C 0.66139 0.31651 0.74054 0.0
C1853 C 0.64281 0.33816 0.74139 0.0
C1854 C 0.66029 0.29657 0.71648 0.0
C1855 C 0.6406 0.29738 0.69195 0.0
H1856 H 0.67764 0.31549 0.75803 0.0
H1857 H 0.67545 0.28073 0.71666 0.0
S1858 S 0.58728 0.34982 0.68286 0.0
N1859 N 0.60394 0.35899 0.71552 0.0
N1860 N 0.60186 0.32172 0.6703 0.0
C1861 C 0.62132 0.31843 0.6931 0.0
C1862 C 0.62242 0.33874 0.71775 0.0
C1863 C 0.93896 0.38154 0.9647 0.0
C1864 C 0.93876 0.40417 0.98521 0.0
C1865 C 0.95823 0.37898 0.9398 0.0
C1866 C 0.97822 0.39892 0.93431 0.0
H1867 H 0.92346 0.36622 0.96696 0.0
H1868 H 0.95722 0.36135 0.92444 0.0
S1869 S 0.98641 0.46217 0.98142 0.0
N1870 N 0.96055 0.44672 0.99856 0.0
N1871 N 0.99622 0.44219 0.9519 0.0
C1872 C 0.97845 0.42139 0.95511 0.0
C1873 C 0.95887 0.42396 0.98038 0.0
C1874 C 0.87004 0.73543 0.21215 0.0
C1875 C 0.89051 0.73431 0.18863 0.0
C1876 C 0.86772 0.71539 0.23618 0.0
C1877 C 0.88583 0.69338 0.23805 0.0
H1878 H 0.8554 0.75176 0.21174 0.0
H1879 H 0.8511 0.71681 0.25305 0.0
S1880 S 0.94236 0.68016 0.18164 0.0
N1881 N 0.92894 0.70875 0.16847 0.0
N1882 N 0.92464 0.67149 0.21368 0.0
C1883 C 0.90671 0.69226 0.21513 0.0
C1884 C 0.90902 0.71259 0.19048 0.0
C1885 C 0.5893 0.61314 0.45314 0.0
C1886 C 0.593 0.63015 0.47999 0.0
C1887 C 0.56767 0.61657 0.43171 0.0
C1888 C 0.54849 0.63728 0.43583 0.0
H1889 H 0.60348 0.59694 0.44824 0.0
H1890 H 0.56629 0.60307 0.41129 0.0
S1891 S 0.5479 0.68687 0.50289 0.0
N1892 N 0.57495 0.6681 0.51011 0.0
N1893 N 0.53421 0.67486 0.46956 0.0
C1894 C 0.55172 0.65451 0.46266 0.0
C1895 C 0.5739 0.65085 0.48479 0.0
C1896 C 0.37018 0.32287 0.18262 0.0
C1897 C 0.38994 0.30276 0.18738 0.0
C1898 C 0.36635 0.34383 0.20479 0.0
C1899 C 0.3821 0.346 0.233 0.0
H1900 H 0.35732 0.32239 0.16149 0.0
H1901 H 0.35084 0.35869 0.19942 0.0
S1902 S 0.43661 0.29853 0.25744 0.0
N1903 N 0.42567 0.28632 0.2228 0.0
N1904 N 0.41809 0.32569 0.26481 0.0
C1905 C 0.40183 0.32594 0.23845 0.0
C1906 C 0.40577 0.30435 0.21567 0.0
C1907 C 0.47982 0.6279 0.9569 0.0
C1908 C 0.47901 0.64733 0.93194 0.0
C1909 C 0.45997 0.62722 0.98116 0.0
C1910 C 0.43867 0.64613 0.9819 0.0
H1911 H 0.49485 0.61194 0.95663 0.0
H1912 H 0.46034 0.61067 0.99836 0.0
S1913 S 0.42787 0.70211 0.92368 0.0
N1914 N 0.45597 0.68743 0.91136 0.0
N1915 N 0.41821 0.68509 0.95593 0.0
C1916 C 0.43827 0.66639 0.95813 0.0
C1917 C 0.45855 0.66728 0.93351 0.0
C1918 C 0.12968 0.73277 0.71444 0.0
C1919 C 0.13231 0.72711 0.68133 0.0
C1920 C 0.13272 0.71209 0.7379 0.0
C1921 C 0.13853 0.68525 0.72882 0.0
H1922 H 0.12677 0.75345 0.72228 0.0
H1923 H 0.13233 0.71746 0.76314 0.0
S1924 S 0.1434 0.65958 0.64514 0.0
N1925 N 0.13781 0.69234 0.64085 0.0
N1926 N 0.14406 0.65401 0.6843 0.0
C1927 C 0.13936 0.67931 0.69573 0.0
C1928 C 0.1361 0.70009 0.67215 0.0
C1929 C 0.0447 0.39263 0.46057 0.0
C1930 C 0.0511 0.38546 0.42864 0.0
C1931 C 0.06485 0.39356 0.48474 0.0
C1932 C 0.09196 0.38701 0.47786 0.0
H1933 H 0.02442 0.39932 0.4664 0.0
H1934 H 0.05957 0.40134 0.50824 0.0
S1935 S 0.11837 0.36339 0.3993 0.0
N1936 N 0.08587 0.36872 0.39264 0.0
N1937 N 0.12339 0.37095 0.43748 0.0
C1938 C 0.09803 0.37803 0.44664 0.0
C1939 C 0.07771 0.37706 0.42222 0.0
C1940 C 0.36488 0.71278 0.40022 0.0
C1941 C 0.38471 0.73264 0.39488 0.0
C1942 C 0.36194 0.69056 0.37966 0.0
C1943 C 0.37856 0.68691 0.35244 0.0
H1944 H 0.35174 0.71406 0.42099 0.0
H1945 H 0.34645 0.67589 0.38558 0.0
S1946 S 0.43282 0.7338 0.32627 0.0
N1947 N 0.42097 0.74766 0.35955 0.0
N1948 N 0.41501 0.70593 0.32048 0.0
C1949 C 0.39827 0.70679 0.3463 0.0
C1950 C 0.40148 0.72953 0.36761 0.0
C1951 C 0.06832 0.64379 0.09358 0.0
C1952 C 0.09522 0.6402 0.10386 0.0
C1953 C 0.04723 0.6476 0.11608 0.0
C1954 C 0.05249 0.6485 0.14947 0.0
H1955 H 0.06332 0.64201 0.0683 0.0
H1956 H 0.02663 0.64911 0.10738 0.0
S1957 S 0.11979 0.64135 0.1883 0.0
N1958 N 0.12592 0.63853 0.14946 0.0
N1959 N 0.08688 0.64635 0.19124 0.0
C1960 C 0.07951 0.64619 0.15969 0.0
C1961 C 0.1007 0.64186 0.13701 0.0
C1962 C 0.14676 0.31911 0.84301 0.0
C1963 C 0.13576 0.34475 0.84972 0.0
C1964 C 0.14592 0.29796 0.86593 0.0
C1965 C 0.1341 0.30165 0.89651 0.0
H1966 H 0.15748 0.31584 0.82065 0.0
H1967 H 0.15545 0.27885 0.86007 0.0
S1968 S 0.10236 0.36518 0.92563 0.0
N1969 N 0.1125 0.37255 0.88881 0.0
N1970 N 0.11071 0.33319 0.93165 0.0
C1971 C 0.12213 0.32699 0.90288 0.0
C1972 C 0.12312 0.34843 0.87962 0.0
C1973 C 0.48001 0.40707 0.61978 0.0
C1974 C 0.47969 0.38784 0.64505 0.0
C1975 C 0.46107 0.40615 0.59427 0.0
C1976 C 0.44086 0.38604 0.59297 0.0
H1977 H 0.49431 0.42365 0.62033 0.0
H1978 H 0.46157 0.42202 0.57624 0.0
S1979 S 0.43309 0.32903 0.65074 0.0
N1980 N 0.45908 0.34628 0.66476 0.0
N1981 N 0.42307 0.34535 0.6181 0.0
C1982 C 0.44111 0.36606 0.61725 0.0
C1983 C 0.46054 0.36677 0.64289 0.0
C1984 C 0.09153 0.02954 0.28643 0.0
C1985 C 0.11577 0.04377 0.28068 0.0
C1986 C 0.09131 1.00112 0.29043 0.0
C1987 C 0.11525 0.98568 0.28828 0.0
H1988 H 0.07265 0.0405 0.28872 0.0
H1989 H 0.07215 0.99117 0.29479 0.0
S1990 S 0.18398 1.01318 0.27348 0.0
N1991 N 0.16428 0.0402 0.27354 0.0
N1992 N 0.1638 0.98706 0.27969 0.0
C1993 C 0.1395 0.99971 0.28214 0.0
C1994 C 0.13977 0.02862 0.27873 0.0
C1995 C 0.25128 0.88547 0.54981 0.0
C1996 C 0.2396 0.86292 0.53434 0.0
C1997 C 0.27961 0.88716 0.55489 0.0
C1998 C 0.29719 0.86616 0.54524 0.0
H1999 H 0.23847 0.90153 0.55878 0.0
H2000 H 0.28778 0.90485 0.56675 0.0
S2001 S 0.27727 0.80458 0.50028 0.0
N2002 N 0.24843 0.82044 0.507 0.0
N2003 N 0.30095 0.82355 0.51678 0.0
C2004 C 0.28579 0.84412 0.52881 0.0
C2005 C 0.25725 0.84253 0.52337 0.0
C2006 C 0.39683 1.00631 0.78338 0.0
C2007 C 0.41886 0.98861 0.78861 0.0
C2008 C 0.39902 0.03453 0.7894 0.0
C2009 C 0.4233 0.046 0.80102 0.0
H2010 H 0.37804 0.99844 0.77381 0.0
H2011 H 0.38197 0.04747 0.78385 0.0
S2012 S 0.48513 1.0077 0.82402 0.0
N2013 N 0.46441 0.98438 0.80997 0.0
N2014 N 0.46851 0.0366 0.82109 0.0
C2015 C 0.44469 0.02811 0.80823 0.0
C2016 C 0.44251 0.9997 0.80207 0.0
C2017 C 0.25606 0.14759 1.02692 0.0
C2018 C 0.24207 0.16632 0.04642 0.0
C2019 C 0.28439 0.14881 1.02296 0.0
C2020 C 0.29986 0.16917 1.03772 0.0
H2021 H 0.24504 0.13183 1.01448 0.0
H2022 H 0.29425 0.13371 1.00823 0.0
S2023 S 0.274 0.22149 0.09361 0.0
N2024 N 0.24667 0.20472 0.08248 0.0
N2025 N 0.29952 0.2072 0.0745 0.0
C2026 C 0.28633 0.18767 0.05772 0.0
C2027 C 0.25759 0.18622 0.06217 0.0
C2028 C 0.90128 0.03317 0.81115 0.0
C2029 C 0.91466 0.04618 0.7853 0.0
C2030 C 0.90126 1.00467 0.81452 0.0
C2031 C 0.91444 0.98803 0.79209 0.0
H2032 H 0.89119 0.04507 0.82937 0.0
H2033 H 0.89093 0.99564 0.83486 0.0
S2034 S 0.9517 1.01143 0.71976 0.0
N2035 N 0.94097 0.03968 0.73665 0.0
N2036 N 0.94074 0.98649 0.7429 0.0
C2037 C 0.92747 1.00066 0.76596 0.0
C2038 C 0.92763 0.02959 0.76259 0.0
C2039 C 0.75502 0.15149 0.51413 0.0
C2040 C 0.73899 0.16645 0.53547 0.0
C2041 C 0.78337 0.15055 0.51759 0.0
C2042 C 0.79683 0.16459 0.54252 0.0
H2043 H 0.7456 0.14035 0.4947 0.0
H2044 H 0.79478 0.13899 0.50019 0.0
S2045 S 0.76342 0.20514 0.60608 0.0
N2046 N 0.73819 0.19441 0.58336 0.0
N2047 N 0.79131 0.19296 0.5897 0.0
C2048 C 0.7808 0.17923 0.56433 0.0
C2049 C 0.75196 0.18006 0.56086 0.0
C2050 C 0.63505 0.03223 0.26995 0.0
C2051 C 0.61805 0.04531 0.29242 0.0
C2052 C 0.63412 1.00392 0.26517 0.0
C2053 C 0.61588 0.98747 0.28225 0.0
H2054 H 0.64919 0.04396 0.25576 0.0
H2055 H 0.64787 0.99483 0.24805 0.0
S2056 S 0.56862 1.01068 0.34567 0.0
N2057 N 0.58345 0.03877 0.3332 0.0
N2058 N 0.58164 0.98598 0.32394 0.0
C2059 C 0.59907 1.0001 0.30504 0.0
C2060 C 0.60015 0.02884 0.31016 0.0
C2061 C 0.75463 0.88073 0.06726 0.0
C2062 C 0.73807 0.86509 0.04714 0.0
C2063 C 0.78289 0.88166 0.06275 0.0
C2064 C 0.79578 0.867 1.0379 0.0
H2065 H 0.7457 0.89224 0.08668 0.0
H2066 H 0.79472 0.89366 0.07933 0.0
S2067 S 0.76083 0.82532 0.97658 0.0
N2068 N 0.7362 0.83619 1.00005 0.0
N2069 N 0.78909 0.83787 0.99166 0.0
C2070 C 0.77922 0.85189 1.01713 0.0
C2071 C 0.75048 0.85097 1.02172 0.0
C2072 C 0.63274 0.52831 0.76144 0.0
C2073 C 0.61809 0.54543 0.78196 0.0
C2074 C 0.63364 0.50008 0.7669 0.0
C2075 C 0.61993 0.48797 0.7931 0.0
H2076 H 0.64335 0.53672 0.74094 0.0
H2077 H 0.64459 0.48762 0.74994 0.0
S2078 S 0.5805 0.52461 0.85514 0.0
N2079 N 0.59074 0.54862 0.83023 0.0
N2080 N 0.59256 0.49595 0.84062 0.0
C2081 C 0.60585 0.50515 0.81417 0.0
C2082 C 0.60487 0.53374 0.80854 0.0
C2083 C 0.78082 0.39385 1.03901 0.0
C2084 C 0.79473 0.36972 0.04675 0.0
C2085 C 0.75244 0.39434 1.03488 0.0
C2086 C 0.73681 0.37059 1.03738 0.0
H2087 H 0.79198 0.41256 1.03622 0.0
H2088 H 0.74264 0.41348 1.02962 0.0
S2089 S 0.76279 0.30232 0.05881 0.0
N2090 N 0.79005 0.32158 0.05818 0.0
N2091 N 0.73727 0.32249 0.04959 0.0
C2092 C 0.75037 0.34641 0.04539 0.0
C2093 C 0.77912 0.34599 0.05031 0.0
C2094 C 0.93235 0.52852 0.29979 0.0
C2095 C 0.90983 0.54507 0.29279 0.0
C2096 C 0.93196 0.50046 0.29396 0.0
C2097 C 0.90892 0.48753 0.28131 0.0
H2098 H 0.95075 0.53733 0.30923 0.0
H2099 H 0.94982 0.4887 0.29986 0.0
S2100 S 0.84417 0.52102 0.26012 0.0
N2101 N 0.86357 0.54605 0.27281 0.0
N2102 N 0.86263 0.4932 0.26316 0.0
C2103 C 0.88603 0.50357 0.27498 0.0
C2104 C 0.88655 0.53231 0.28033 0.0
C2105 C 0.74985 0.64493 0.52381 0.0
C2106 C 0.73575 0.66683 0.53777 0.0
C2107 C 0.77824 0.64526 0.52017 0.0
C2108 C 0.79373 0.66779 0.52952 0.0
H2109 H 0.73885 0.62726 0.51571 0.0
H2110 H 0.78817 0.62772 0.50998 0.0
S2111 S 0.76742 0.72953 0.56936 0.0
N2112 N 0.74015 0.71111 0.5626 0.0
N2113 N 0.79309 0.71189 0.55508 0.0
C2114 C 0.78003 0.68967 0.54379 0.0
C2115 C 0.75121 0.68916 0.54805 0.0
C2116 C 0.39346 0.52901 0.28862 0.0
C2117 C 0.41719 0.5446 0.29107 0.0
C2118 C 0.3941 0.50051 0.2914 0.0
C2119 C 0.41836 0.4864 0.29785 0.0
H2120 H 0.37425 0.53891 0.2842 0.0
H2121 H 0.37538 0.48942 0.28848 0.0
S2122 S 0.48591 0.51794 0.3086 0.0
N2123 N 0.46557 0.5438 0.30134 0.0
N2124 N 0.46666 0.49064 0.30757 0.0
C2125 C 0.44213 0.50186 0.3012 0.0
C2126 C 0.44157 0.53081 0.29756 0.0
C2127 C 0.27815 0.68745 0.05022 0.0
C2128 C 0.29371 0.66356 0.04838 0.0
C2129 C 0.24989 0.68711 0.04561 0.0
C2130 C 0.23587 0.66281 0.03962 0.0
H2131 H 0.28791 0.70672 0.05451 0.0
H2132 H 0.23889 0.70603 0.04733 0.0
S2133 S 0.26684 0.59467 1.03317 0.0
N2134 N 0.29276 0.61498 0.03985 0.0
N2135 N 0.2397 0.61422 1.03285 0.0
C2136 C 0.25108 0.63878 1.03833 0.0
C2137 C 0.27993 0.6392 0.0422 0.0
C2138 C 0.13293 0.50339 0.76773 0.0
C2139 C 0.11373 0.48724 0.78359 0.0
C2140 C 0.13379 0.53166 0.77239 0.0
C2141 C 0.11567 0.54491 0.79342 0.0
H2142 H 0.14739 0.49411 0.75159 0.0
H2143 H 0.14868 0.54322 0.75913 0.0
S2144 S 0.0637 0.51091 0.84365 0.0
N2145 N 0.07758 0.48603 0.82297 0.0
N2146 N 0.07925 0.53886 0.83198 0.0
C2147 C 0.09695 0.52869 0.81017 0.0
C2148 C 0.09597 0.49999 0.8052 0.0
C2149 C 0.25019 0.34384 0.54557 0.0
C2150 C 0.23484 0.36766 0.5413 0.0
C2151 C 0.27834 0.34342 0.54019 0.0
C2152 C 0.29254 0.36689 0.53077 0.0
H2153 H 0.24036 0.32515 0.55256 0.0
H2154 H 0.28915 0.3246 0.54408 0.0
S2155 S 0.2623 0.43463 0.51695 0.0
N2156 N 0.23628 0.41537 0.52688 0.0
N2157 N 0.28918 0.41473 0.51816 0.0
C2158 C 0.27761 0.39091 0.52694 0.0
C2159 C 0.24883 0.39124 0.53176 0.0
C2160 C 0.15212 0.17069 0.15362 0.0
C2161 C 0.13941 0.15345 0.13118 0.0
C2162 C 0.14904 0.16685 0.18734 0.0
C2163 C 0.13235 0.14625 0.20016 0.0
H2164 H 0.1658 0.18626 0.14515 0.0
H2165 H 0.16042 0.17967 0.20353 0.0
S2166 S 0.09404 0.0961 0.15208 0.0
N2167 N 0.10929 0.11503 0.12475 0.0
N2168 N 0.10276 0.10873 0.18736 0.0
C2169 C 0.11879 0.12962 0.17798 0.0
C2170 C 0.12248 0.133 0.14381 0.0
C2171 C 0.11516 0.88893 0.43266 0.0
C2172 C 0.13707 0.87421 0.44598 0.0
C2173 C 0.11182 0.89217 0.39886 0.0
C2174 C 0.13074 0.88156 0.37682 0.0
H2175 H 0.10098 0.89887 0.44857 0.0
H2176 H 0.09523 0.9045 0.39007 0.0
S2177 S 0.19177 0.84161 0.39904 0.0
N2178 N 0.1776 0.8486 0.43401 0.0
N2179 N 0.17202 0.85533 0.37129 0.0
C2180 C 0.15243 0.86645 0.38993 0.0
C2181 C 0.15543 0.86264 0.42416 0.0
C2182 C 0.42614 0.89885 0.6754 0.0
C2183 C 0.4096 0.88522 0.69783 0.0
C2184 C 0.42217 0.89597 0.64174 0.0
C2185 C 0.40213 0.87865 0.62897 0.0
H2186 H 0.44106 0.91321 0.68385 0.0
H2187 H 0.43426 0.9082 0.62555 0.0
S2188 S 0.35385 0.83797 0.67716 0.0
N2189 N 0.37243 0.8536 0.70443 0.0
N2190 N 0.3659 0.84745 0.64182 0.0
C2191 C 0.3863 0.86409 0.65114 0.0
C2192 C 0.38981 0.86755 0.68529 0.0
C2193 C 0.40457 0.17153 0.90104 0.0
C2194 C 0.41548 0.14773 0.88746 0.0
C2195 C 0.40104 0.17424 0.93477 0.0
C2196 C 0.40762 0.15294 0.95613 0.0
H2197 H 0.39738 0.18758 0.88538 0.0
H2198 H 0.39126 0.19228 0.94387 0.0
S2199 S 0.43762 0.08685 0.9328 0.0
N2200 N 0.4338 0.10312 0.89829 0.0
N2201 N 0.42682 0.10777 0.96091 0.0
C2202 C 0.41953 0.12956 0.94277 0.0
C2203 C 0.42346 0.12704 0.90871 0.0
C2204 C 0.92353 0.88557 0.89966 0.0
C2205 C 0.90116 0.88399 0.87847 0.0
C2206 C 0.92056 0.88193 0.93349 0.0
C2207 C 0.89519 0.87611 0.94753 0.0
H2208 H 0.94322 0.89103 0.89029 0.0
H2209 H 0.938 0.88491 0.94886 0.0
S2210 S 0.83062 0.86754 0.90332 0.0
N2211 N 0.85291 0.87423 0.87486 0.0
N2212 N 0.84774 0.86779 0.93744 0.0
C2213 C 0.87307 0.87335 0.92659 0.0
C2214 C 0.87594 0.87708 0.89245 0.0
C2215 C 0.88274 0.13007 0.68059 0.0
C2216 C 0.90358 0.14339 0.69752 0.0
C2217 C 0.87878 0.1336 0.64737 0.0
C2218 C 0.89511 0.15099 0.62871 0.0
H2219 H 0.86925 0.11632 0.69304 0.0
H2220 H 0.86244 0.12244 0.63619 0.0
S2221 S 0.95246 0.19137 0.66061 0.0
N2222 N 0.94095 0.17509 0.69262 0.0
N2223 N 0.93315 0.18208 0.63005 0.0
C2224 C 0.91592 0.16487 0.64513 0.0
C2225 C 0.92029 0.16091 0.67935 0.0
C2226 C 0.61503 0.14855 0.43587 0.0
C2227 C 0.6397 0.15718 0.44967 0.0
C2228 C 0.61206 0.14488 0.40209 0.0
C2229 C 0.63388 0.14891 0.38064 0.0
H2230 H 0.59816 0.14365 0.45141 0.0
H2231 H 0.59294 0.13748 0.39294 0.0
S2232 S 0.70259 0.17223 0.4046 0.0
N2233 N 0.68595 0.17035 0.43895 0.0
N2234 N 0.68084 0.16324 0.3764 0.0
C2235 C 0.65842 0.15817 0.39431 0.0
C2236 C 0.66122 0.16225 0.42844 0.0
C2237 C 0.6142 0.88549 0.14475 0.0
C2238 C 0.63678 0.87182 0.13176 0.0
C2239 C 0.61112 0.88921 0.1784 0.0
C2240 C 0.63095 0.88016 0.20042 0.0
H2241 H 0.59944 0.89453 0.12868 0.0
H2242 H 0.59407 0.9009 0.18699 0.0
S2243 S 0.69355 0.84272 0.17892 0.0
N2244 N 0.67868 0.84845 0.14392 0.0
N2245 N 0.67343 0.85587 0.20645 0.0
C2246 C 0.65312 0.86572 0.18768 0.0
C2247 C 0.65593 0.8615 0.15363 0.0
C2248 C 0.63213 0.66825 0.68078 0.0
C2249 C 0.62187 0.64417 0.6946 0.0
C2250 C 0.63574 0.67109 0.64701 0.0
C2251 C 0.62999 0.64963 0.62571 0.0
H2252 H 0.63848 0.68463 0.69631 0.0
H2253 H 0.6447 0.68954 0.63779 0.0
S2254 S 0.60232 0.58252 0.64963 0.0
N2255 N 0.60534 0.59893 0.684 0.0
N2256 N 0.61257 0.60376 0.62139 0.0
C2257 C 0.61903 0.62579 0.63934 0.0
C2258 C 0.61493 0.62316 0.67345 0.0
C2259 C 0.63853 0.41534 0.90189 0.0
C2260 C 0.62668 0.39457 0.88355 0.0
C2261 C 0.64247 0.41299 0.93533 0.0
C2262 C 0.63521 0.38947 0.95287 0.0
H2263 H 0.64535 0.43372 0.89009 0.0
H2264 H 0.65207 0.42988 0.94731 0.0
S2265 S 0.60295 0.32881 0.91657 0.0
N2266 N 0.60706 0.34956 0.88564 0.0
N2267 N 0.61479 0.34483 0.9485 0.0
C2268 C 0.6228 0.36854 0.93495 0.0
C2269 C 0.61844 0.37115 0.90051 0.0
C2270 C 0.91815 0.3884 0.1437 0.0
C2271 C 0.89428 0.37783 0.12986 0.0
C2272 C 0.92089 0.39182 0.17751 0.0
C2273 C 0.89952 0.38559 0.19878 0.0
H2274 H 0.93438 0.39518 0.12819 0.0
H2275 H 0.9392 0.40094 0.18679 0.0
S2276 S 0.83324 0.35641 0.17483 0.0
N2277 N 0.84949 0.3602 0.14043 0.0
N2278 N 0.85416 0.36704 0.20311 0.0
C2279 C 0.87594 0.37426 0.18514 0.0
C2280 C 0.87342 0.37035 0.15101 0.0
C2281 C 0.91538 0.62784 0.40308 0.0
C2282 C 0.90399 0.64617 0.38081 0.0
C2283 C 0.9118 0.63105 0.43663 0.0
C2284 C 0.89722 0.65309 0.44962 0.0
H2285 H 0.92587 0.61002 0.39446 0.0
H2286 H 0.91982 0.61558 0.45257 0.0
S2287 S 0.86385 0.70715 0.40163 0.0
N2288 N 0.87761 0.68727 0.37426 0.0
N2289 N 0.87186 0.69388 0.43696 0.0
C2290 C 0.88673 0.67217 0.4276 0.0
C2291 C 0.8898 0.66852 0.39339 0.0
C2292 C 0.42086 0.38053 0.40271 0.0
C2293 C 0.39868 0.37973 0.38121 0.0
C2294 C 0.41742 0.37643 0.43643 0.0
C2295 C 0.39175 0.37098 0.44996 0.0
H2296 H 0.44068 0.38597 0.39376 0.0
H2297 H 0.43472 0.37895 0.45215 0.0
S2298 S 0.32761 0.36417 0.4044 0.0
N2299 N 0.35039 0.37085 0.37649 0.0
N2300 N 0.34428 0.3636 0.43884 0.0
C2301 C 0.36985 0.36882 0.42857 0.0
C2302 C 0.37323 0.37297 0.39459 0.0
C2303 C 0.37531 0.63194 0.18533 0.0
C2304 C 0.39571 0.64463 0.20378 0.0
C2305 C 0.37243 0.63623 0.15204 0.0
C2306 C 0.38948 0.65379 0.1346 0.0
H2307 H 0.36132 0.61795 0.19654 0.0
H2308 H 0.35646 0.62536 0.13974 0.0
S2309 S 0.44614 0.69288 0.17034 0.0
N2310 N 0.43345 0.67612 0.20136 0.0
N2311 N 0.4277 0.68446 0.13867 0.0
C2312 C 0.40978 0.6672 0.15247 0.0
C2313 C 0.41301 0.6625 0.18683 0.0
C2314 C 0.11704 0.66065 0.90027 0.0
C2315 C 0.13036 0.64014 0.88258 0.0
C2316 C 0.12121 0.66382 0.93413 0.0
C2317 C 0.13866 0.64644 0.95179 0.0
H2318 H 0.10386 0.67473 0.8878 0.0
H2319 H 0.1106 0.67986 0.94653 0.0
S2320 S 0.17812 0.58921 0.91686 0.0
N2321 N 0.1611 0.60178 0.88615 0.0
N2322 N 0.16954 0.60808 0.94777 0.0
C2323 C 0.15182 0.62584 0.93407 0.0
C2324 C 0.1475 0.6226 0.9002 0.0
C2325 C 0.14919 0.40226 0.68097 0.0
C2326 C 0.12894 0.38852 0.69853 0.0
C2327 C 0.1528 0.39864 0.64777 0.0
C2328 C 0.13669 0.38076 0.62963 0.0
H2329 H 0.16251 0.41646 0.69289 0.0
H2330 H 0.16872 0.41016 0.6362 0.0
S2331 S 0.08077 0.33918 0.66312 0.0
N2332 N 0.09229 0.35591 0.6947 0.0
N2333 N 0.09943 0.34875 0.63211 0.0
C2334 C 0.11644 0.36646 0.64663 0.0
C2335 C 0.11243 0.3705 0.6809 0.0
loop_
_geom_bond_atom_site_label_1
_geom_bond_atom_site_label_2
_geom_bond_distance
_geom_bond_site_symmetry_2
_ccdc_geom_bond_type
C0 Eu1 2.835 . S
C0 C2 1.500 . S
C0 O20 1.257 . S
C0 O21 1.260 . S
Eu1 C0 2.835 . S
Eu1 O20 2.473 . S
Eu1 O21 2.480 . S
Eu1 O22 2.430 . S
Eu1 O23 2.670 . S
Eu1 O24 2.394 . S
Eu1 O29 2.355 . S
Eu1 O31 2.374 . S
C2 C0 1.500 . S
C2 C3 1.377 . S
C2 C7 1.377 . S
C3 C2 1.377 . S
C3 C4 1.395 1_455 S
C3 H32 0.931 . S
C4 C3 1.395 1_655 S
C4 C5 1.383 . S
C4 H33 0.931 . S
C5 C4 1.383 . S
C5 C6 1.394 1_655 S
C6 C5 1.394 1_455 S
C6 C7 1.378 . S
C6 H34 0.931 . S
C7 C2 1.377 . S
C7 C6 1.378 . S
C7 H35 0.931 . S
C8 O22 1.259 . S
C8 O23 1.270 . S
C9 O24 1.251 . S
C9 O25 1.251 . S
C10 Eu11 2.835 . S
C10 C12 1.500 . S
C10 O26 1.257 . S
C10 O27 1.260 . S
Eu11 C10 2.835 . S
Eu11 O23 2.355 . S
Eu11 O25 2.374 . S
Eu11 O26 2.473 . S
Eu11 O27 2.480 . S
Eu11 O28 2.430 . S
Eu11 O29 2.670 . S
Eu11 O30 2.394 . S
C12 C10 1.500 . S
C12 C13 1.377 . S
C12 C17 1.377 . S
C13 C12 1.377 . S
C13 C14 1.395 . S
C13 H36 0.931 . S
C14 C13 1.395 . S
C14 C15 1.383 . S
C14 H37 0.931 . S
C15 C14 1.383 . S
C15 C16 1.394 . S
C16 C15 1.394 . S
C16 C17 1.378 . S
C16 H38 0.931 . S
C17 C12 1.377 . S
C17 C16 1.378 . S
C17 H39 0.931 . S
C18 O28 1.259 . S
C18 O29 1.270 . S
C19 O30 1.251 . S
C19 O31 1.251 . S
O20 C0 1.257 . S
O20 Eu1 2.473 . S
O21 C0 1.260 . S
O21 Eu1 2.480 . S
O22 Eu1 2.430 . S
O22 C8 1.259 . S
O23 Eu1 2.670 . S
O23 C8 1.270 . S
O23 Eu11 2.355 . S
O24 Eu1 2.394 . S
O24 C9 1.251 . S
O25 C9 1.251 . S
O25 Eu11 2.374 . S
O26 C10 1.257 . S
O26 Eu11 2.473 . S
O27 C10 1.260 . S
O27 Eu11 2.480 . S
O28 Eu11 2.430 . S
O28 C18 1.259 . S
O29 Eu1 2.355 . S
O29 Eu11 2.670 . S
O29 C18 1.270 . S
O30 Eu11 2.394 . S
O30 C19 1.251 . S
O31 Eu1 2.374 . S
O31 C19 1.251 . S
H32 C3 0.931 . S
H33 C4 0.931 . S
H34 C6 0.931 . S
H35 C7 0.931 . S
H36 C13 0.931 . S
H37 C14 0.931 . S
H38 C16 0.931 . S
H39 C17 0.931 . S
C40 Eu41 2.835 . S
C40 C42 1.500 . S
C40 O60 1.257 . S
C40 O61 1.260 . S
Eu41 C40 2.835 . S
Eu41 O60 2.473 . S
Eu41 O61 2.480 . S
Eu41 O62 2.430 . S
Eu41 O63 2.670 . S
Eu41 O64 2.394 . S
Eu41 O69 2.355 . S
Eu41 O71 2.374 . S
C42 C40 1.500 . S
C42 C43 1.377 . S
C42 C47 1.377 . S
C43 C42 1.377 . S
C43 C44 1.395 . S
C43 H72 0.931 . S
C44 C43 1.395 . S
C44 C45 1.383 . S
C44 H73 0.931 . S
C45 C44 1.383 . S
C45 C46 1.394 . S
C46 C45 1.394 . S
C46 C47 1.378 . S
C46 H74 0.931 . S
C47 C42 1.377 . S
C47 C46 1.378 . S
C47 H75 0.931 . S
C48 O62 1.259 . S
C48 O63 1.270 . S
C49 O64 1.251 . S
C49 O65 1.251 . S
C50 Eu51 2.835 . S
C50 C52 1.500 . S
C50 O66 1.257 . S
C50 O67 1.260 . S
Eu51 C50 2.835 . S
Eu51 O63 2.355 . S
Eu51 O65 2.374 . S
Eu51 O66 2.473 . S
Eu51 O67 2.480 . S
Eu51 O68 2.430 . S
Eu51 O69 2.670 . S
Eu51 O70 2.394 . S
C52 C50 1.500 . S
C52 C53 1.377 . S
C52 C57 1.377 . S
C53 C52 1.377 . S
C53 C54 1.395 1_565 S
C53 H76 0.931 . S
C54 C53 1.395 1_545 S
C54 C55 1.383 . S
C54 H77 0.931 . S
C55 C54 1.383 . S
C55 C56 1.394 1_545 S
C56 C55 1.394 1_565 S
C56 C57 1.378 . S
C56 H78 0.931 . S
C57 C52 1.377 . S
C57 C56 1.378 . S
C57 H79 0.931 . S
C58 O68 1.259 . S
C58 O69 1.270 . S
C59 O70 1.251 . S
C59 O71 1.251 . S
O60 C40 1.257 . S
O60 Eu41 2.473 . S
O61 C40 1.260 . S
O61 Eu41 2.480 . S
O62 Eu41 2.430 . S
O62 C48 1.259 . S
O63 Eu41 2.670 . S
O63 C48 1.270 . S
O63 Eu51 2.355 . S
O64 Eu41 2.394 . S
O64 C49 1.251 . S
O65 C49 1.251 . S
O65 Eu51 2.374 . S
O66 C50 1.257 . S
O66 Eu51 2.473 . S
O67 C50 1.260 . S
O67 Eu51 2.480 . S
O68 Eu51 2.430 . S
O68 C58 1.259 . S
O69 Eu41 2.355 . S
O69 Eu51 2.670 . S
O69 C58 1.270 . S
O70 Eu51 2.394 . S
O70 C59 1.251 . S
O71 Eu41 2.374 . S
O71 C59 1.251 . S
H72 C43 0.931 . S
H73 C44 0.931 . S
H74 C46 0.931 . S
H75 C47 0.931 . S
H76 C53 0.931 . S
H77 C54 0.931 . S
H78 C56 0.931 . S
H79 C57 0.931 . S
C80 Eu81 2.835 . S
C80 C82 1.500 . S
C80 O100 1.257 . S
C80 O101 1.260 . S
Eu81 C80 2.835 . S
Eu81 O100 2.473 . S
Eu81 O101 2.480 . S
Eu81 O102 2.430 . S
Eu81 O103 2.670 . S
Eu81 O104 2.394 . S
Eu81 O109 2.355 . S
Eu81 O111 2.374 . S
C82 C80 1.500 . S
C82 C83 1.377 . S
C82 C87 1.377 . S
C83 C82 1.377 . S
C83 C84 1.395 . S
C83 H112 0.931 . S
C84 C83 1.395 . S
C84 C85 1.383 . S
C84 H113 0.931 . S
C85 C84 1.383 . S
C85 C86 1.394 . S
C86 C85 1.394 . S
C86 C87 1.378 . S
C86 H114 0.931 . S
C87 C82 1.377 . S
C87 C86 1.378 . S
C87 H115 0.931 . S
C88 O102 1.259 . S
C88 O103 1.270 . S
C89 O104 1.251 . S
C89 O105 1.251 . S
C90 Eu91 2.835 . S
C90 C92 1.500 . S
C90 O106 1.257 . S
C90 O107 1.260 . S
Eu91 C90 2.835 . S
Eu91 O103 2.355 . S
Eu91 O105 2.374 . S
Eu91 O106 2.473 . S
Eu91 O107 2.480 . S
Eu91 O108 2.430 . S
Eu91 O109 2.670 . S
Eu91 O110 2.394 . S
C92 C90 1.500 . S
C92 C93 1.377 . S
C92 C97 1.377 . S
C93 C92 1.377 . S
C93 C94 1.395 . S
C93 H116 0.931 . S
C94 C93 1.395 . S
C94 C95 1.383 . S
C94 H117 0.931 . S
C95 C94 1.383 . S
C95 C96 1.394 . S
C96 C95 1.394 . S
C96 C97 1.378 . S
C96 H118 0.931 . S
C97 C92 1.377 . S
C97 C96 1.378 . S
C97 H119 0.931 . S
C98 O108 1.259 . S
C98 O109 1.270 . S
C99 O110 1.251 . S
C99 O111 1.251 . S
O100 C80 1.257 . S
O100 Eu81 2.473 . S
O101 C80 1.260 . S
O101 Eu81 2.480 . S
O102 Eu81 2.430 . S
O102 C88 1.259 . S
O103 Eu81 2.670 . S
O103 C88 1.270 . S
O103 Eu91 2.355 . S
O104 Eu81 2.394 . S
O104 C89 1.251 . S
O105 C89 1.251 . S
O105 Eu91 2.374 . S
O106 C90 1.257 . S
O106 Eu91 2.473 . S
O107 C90 1.260 . S
O107 Eu91 2.480 . S
O108 Eu91 2.430 . S
O108 C98 1.259 . S
O109 Eu81 2.355 . S
O109 Eu91 2.670 . S
O109 C98 1.270 . S
O110 Eu91 2.394 . S
O110 C99 1.251 . S
O111 Eu81 2.374 . S
O111 C99 1.251 . S
H112 C83 0.931 . S
H113 C84 0.931 . S
H114 C86 0.931 . S
H115 C87 0.931 . S
H116 C93 0.931 . S
H117 C94 0.931 . S
H118 C96 0.931 . S
H119 C97 0.931 . S
C120 Eu121 2.835 . S
C120 C122 1.500 . S
C120 O140 1.257 . S
C120 O141 1.260 . S
Eu121 C120 2.835 . S
Eu121 O140 2.473 . S
Eu121 O141 2.480 . S
Eu121 O142 2.441 . S
Eu121 O143 2.666 1_554 S
Eu121 O144 2.394 . S
Eu121 O149 2.355 . S
Eu121 O151 2.374 1_554 S
C122 C120 1.500 . S
C122 C123 1.377 . S
C122 C127 1.377 . S
C123 C122 1.377 . S
C123 C124 1.395 . S
C123 H152 0.931 . S
C124 C123 1.395 . S
C124 C125 1.383 . S
C124 H153 0.931 . S
C125 C124 1.383 . S
C125 C126 1.394 . S
C126 C125 1.394 . S
C126 C127 1.378 . S
C126 H154 0.931 . S
C127 C122 1.377 . S
C127 C126 1.378 . S
C127 H155 0.931 . S
C128 O142 1.255 1_556 S
C128 O143 1.271 . S
C129 O144 1.251 . S
C129 O145 1.251 . S
C130 Eu131 2.835 1_556 S
C130 C132 1.500 . S
C130 O146 1.257 . S
C130 O147 1.260 . S
Eu131 C130 2.835 1_554 S
Eu131 O143 2.351 1_554 S
Eu131 O145 2.374 . S
Eu131 O146 2.473 1_554 S
Eu131 O147 2.480 1_554 S
Eu131 O148 2.430 . S
Eu131 O149 2.670 . S
Eu131 O150 2.394 1_554 S
C132 C130 1.500 . S
C132 C133 1.377 . S
C132 C137 1.377 . S
C133 C132 1.377 . S
C133 C134 1.395 1_545 S
C133 H156 0.931 . S
C134 C133 1.395 1_565 S
C134 C135 1.383 . S
C134 H157 0.931 . S
C135 C134 1.383 . S
C135 C136 1.394 1_565 S
C136 C135 1.394 1_545 S
C136 C137 1.378 . S
C136 H158 0.931 . S
C137 C132 1.377 . S
C137 C136 1.378 . S
C137 H159 0.931 . S
C138 O148 1.259 . S
C138 O149 1.270 . S
C139 O150 1.251 . S
C139 O151 1.251 . S
O140 C120 1.257 . S
O140 Eu121 2.473 . S
O141 C120 1.260 . S
O141 Eu121 2.480 . S
O142 Eu121 2.441 . S
O142 C128 1.255 1_554 S
O143 Eu121 2.666 1_556 S
O143 C128 1.271 . S
O143 Eu131 2.351 1_556 S
O144 Eu121 2.394 . S
O144 C129 1.251 . S
O145 C129 1.251 . S
O145 Eu131 2.374 . S
O146 C130 1.257 . S
O146 Eu131 2.473 1_556 S
O147 C130 1.260 . S
O147 Eu131 2.480 1_556 S
O148 Eu131 2.430 . S
O148 C138 1.259 . S
O149 Eu121 2.355 . S
O149 Eu131 2.670 . S
O149 C138 1.270 . S
O150 Eu131 2.394 1_556 S
O150 C139 1.251 . S
O151 Eu121 2.374 1_556 S
O151 C139 1.251 . S
H152 C123 0.931 . S
H153 C124 0.931 . S
H154 C126 0.931 . S
H155 C127 0.931 . S
H156 C133 0.931 . S
H157 C134 0.931 . S
H158 C136 0.931 . S
H159 C137 0.931 . S
C160 Eu161 2.835 . S
C160 C162 1.500 . S
C160 O180 1.257 . S
C160 O181 1.260 . S
Eu161 C160 2.835 . S
Eu161 O180 2.473 . S
Eu161 O181 2.480 . S
Eu161 O182 2.430 . S
Eu161 O183 2.670 . S
Eu161 O184 2.394 . S
Eu161 O189 2.355 . S
Eu161 O191 2.374 . S
C162 C160 1.500 . S
C162 C163 1.377 . S
C162 C167 1.377 . S
C163 C162 1.377 . S
C163 C164 1.395 1_455 S
C163 H192 0.931 . S
C164 C163 1.395 1_655 S
C164 C165 1.383 . S
C164 H193 0.931 . S
C165 C164 1.383 . S
C165 C166 1.394 1_655 S
C166 C165 1.394 1_455 S
C166 C167 1.378 . S
C166 H194 0.931 . S
C167 C162 1.377 . S
C167 C166 1.378 . S
C167 H195 0.931 . S
C168 O182 1.259 . S
C168 O183 1.270 . S
C169 O184 1.251 . S
C169 O185 1.251 . S
C170 Eu171 2.835 . S
C170 C172 1.500 . S
C170 O186 1.257 . S
C170 O187 1.260 . S
Eu171 C170 2.835 . S
Eu171 O183 2.355 . S
Eu171 O185 2.374 . S
Eu171 O186 2.473 . S
Eu171 O187 2.480 . S
Eu171 O188 2.430 . S
Eu171 O189 2.670 . S
Eu171 O190 2.394 . S
C172 C170 1.500 . S
C172 C173 1.377 . S
C172 C177 1.377 . S
C173 C172 1.377 . S
C173 C174 1.395 . S
C173 H196 0.931 . S
C174 C173 1.395 . S
C174 C175 1.383 . S
C174 H197 0.931 . S
C175 C174 1.383 . S
C175 C176 1.394 . S
C176 C175 1.394 . S
C176 C177 1.378 . S
C176 H198 0.931 . S
C177 C172 1.377 . S
C177 C176 1.378 . S
C177 H199 0.931 . S
C178 O188 1.259 . S
C178 O189 1.270 . S
C179 O190 1.251 . S
C179 O191 1.251 . S
O180 C160 1.257 . S
O180 Eu161 2.473 . S
O181 C160 1.260 . S
O181 Eu161 2.480 . S
O182 Eu161 2.430 . S
O182 C168 1.259 . S
O183 Eu161 2.670 . S
O183 C168 1.270 . S
O183 Eu171 2.355 . S
O184 Eu161 2.394 . S
O184 C169 1.251 . S
O185 C169 1.251 . S
O185 Eu171 2.374 . S
O186 C170 1.257 . S
O186 Eu171 2.473 . S
O187 C170 1.260 . S
O187 Eu171 2.480 . S
O188 Eu171 2.430 . S
O188 C178 1.259 . S
O189 Eu161 2.355 . S
O189 Eu171 2.670 . S
O189 C178 1.270 . S
O190 Eu171 2.394 . S
O190 C179 1.251 . S
O191 Eu161 2.374 . S
O191 C179 1.251 . S
H192 C163 0.931 . S
H193 C164 0.931 . S
H194 C166 0.931 . S
H195 C167 0.931 . S
H196 C173 0.931 . S
H197 C174 0.931 . S
H198 C176 0.931 . S
H199 C177 0.931 . S
C200 Eu201 2.835 . S
C200 C202 1.500 . S
C200 O220 1.257 . S
C200 O221 1.260 . S
Eu201 C200 2.835 . S
Eu201 O220 2.473 . S
Eu201 O221 2.480 . S
Eu201 O222 2.430 . S
Eu201 O223 2.670 . S
Eu201 O224 2.394 . S
Eu201 O229 2.355 . S
Eu201 O231 2.374 . S
C202 C200 1.500 . S
C202 C203 1.377 . S
C202 C207 1.377 . S
C203 C202 1.377 . S
C203 C204 1.395 . S
C203 H232 0.931 . S
C204 C203 1.395 . S
C204 C205 1.383 . S
C204 H233 0.931 . S
C205 C204 1.383 . S
C205 C206 1.394 . S
C206 C205 1.394 . S
C206 C207 1.378 . S
C206 H234 0.931 . S
C207 C202 1.377 . S
C207 C206 1.378 . S
C207 H235 0.931 . S
C208 O222 1.259 . S
C208 O223 1.270 . S
C209 O224 1.251 . S
C209 O225 1.251 . S
C210 Eu211 2.835 . S
C210 C212 1.500 . S
C210 O226 1.257 . S
C210 O227 1.260 . S
Eu211 C210 2.835 . S
Eu211 O223 2.355 . S
Eu211 O225 2.374 . S
Eu211 O226 2.473 . S
Eu211 O227 2.480 . S
Eu211 O228 2.430 . S
Eu211 O229 2.670 . S
Eu211 O230 2.394 . S
C212 C210 1.500 . S
C212 C213 1.377 . S
C212 C217 1.377 . S
C213 C212 1.377 . S
C213 C214 1.395 1_565 S
C213 H236 0.931 . S
C214 C213 1.395 1_545 S
C214 C215 1.383 . S
C214 H237 0.931 . S
C215 C214 1.383 . S
C215 C216 1.394 1_545 S
C216 C215 1.394 1_565 S
C216 C217 1.378 . S
C216 H238 0.931 . S
C217 C212 1.377 . S
C217 C216 1.378 . S
C217 H239 0.931 . S
C218 O228 1.259 . S
C218 O229 1.270 . S
C219 O230 1.251 . S
C219 O231 1.251 . S
O220 C200 1.257 . S
O220 Eu201 2.473 . S
O221 C200 1.260 . S
O221 Eu201 2.480 . S
O222 Eu201 2.430 . S
O222 C208 1.259 . S
O223 Eu201 2.670 . S
O223 C208 1.270 . S
O223 Eu211 2.355 . S
O224 Eu201 2.394 . S
O224 C209 1.251 . S
O225 C209 1.251 . S
O225 Eu211 2.374 . S
O226 C210 1.257 . S
O226 Eu211 2.473 . S
O227 C210 1.260 . S
O227 Eu211 2.480 . S
O228 Eu211 2.430 . S
O228 C218 1.259 . S
O229 Eu201 2.355 . S
O229 Eu211 2.670 . S
O229 C218 1.270 . S
O230 Eu211 2.394 . S
O230 C219 1.251 . S
O231 Eu201 2.374 . S
O231 C219 1.251 . S
H232 C203 0.931 . S
H233 C204 0.931 . S
H234 C206 0.931 . S
H235 C207 0.931 . S
H236 C213 0.931 . S
H237 C214 0.931 . S
H238 C216 0.931 . S
H239 C217 0.931 . S
C240 Eu241 2.835 . S
C240 C242 1.500 . S
C240 O260 1.257 . S
C240 O261 1.260 . S
Eu241 C240 2.835 . S
Eu241 O260 2.473 . S
Eu241 O261 2.480 . S
Eu241 O262 2.430 . S
Eu241 O263 2.670 . S
Eu241 O264 2.394 . S
Eu241 O269 2.355 . S
Eu241 O271 2.374 . S
C242 C240 1.500 . S
C242 C243 1.377 . S
C242 C247 1.377 . S
C243 C242 1.377 . S
C243 C244 1.395 . S
C243 H272 0.931 . S
C244 C243 1.395 . S
C244 C245 1.383 . S
C244 H273 0.931 . S
C245 C244 1.383 . S
C245 C246 1.394 . S
C246 C245 1.394 . S
C246 C247 1.378 . S
C246 H274 0.931 . S
C247 C242 1.377 . S
C247 C246 1.378 . S
C247 H275 0.931 . S
C248 O262 1.259 . S
C248 O263 1.270 . S
C249 O264 1.251 . S
C249 O265 1.251 . S
C250 Eu251 2.835 . S
C250 C252 1.500 . S
C250 O266 1.257 . S
C250 O267 1.260 . S
Eu251 C250 2.835 . S
Eu251 O263 2.355 . S
Eu251 O265 2.374 . S
Eu251 O266 2.473 . S
Eu251 O267 2.480 . S
Eu251 O268 2.430 . S
Eu251 O269 2.670 . S
Eu251 O270 2.394 . S
C252 C250 1.500 . S
C252 C253 1.377 . S
C252 C257 1.377 . S
C253 C252 1.377 . S
C253 C254 1.395 . S
C253 H276 0.931 . S
C254 C253 1.395 . S
C254 C255 1.383 . S
C254 H277 0.931 . S
C255 C254 1.383 . S
C255 C256 1.394 . S
C256 C255 1.394 . S
C256 C257 1.378 . S
C256 H278 0.931 . S
C257 C252 1.377 . S
C257 C256 1.378 . S
C257 H279 0.931 . S
C258 O268 1.259 . S
C258 O269 1.270 . S
C259 O270 1.251 . S
C259 O271 1.251 . S
O260 C240 1.257 . S
O260 Eu241 2.473 . S
O261 C240 1.260 . S
O261 Eu241 2.480 . S
O262 Eu241 2.430 . S
O262 C248 1.259 . S
O263 Eu241 2.670 . S
O263 C248 1.270 . S
O263 Eu251 2.355 . S
O264 Eu241 2.394 . S
O264 C249 1.251 . S
O265 C249 1.251 . S
O265 Eu251 2.374 . S
O266 C250 1.257 . S
O266 Eu251 2.473 . S
O267 C250 1.260 . S
O267 Eu251 2.480 . S
O268 Eu251 2.430 . S
O268 C258 1.259 . S
O269 Eu241 2.355 . S
O269 Eu251 2.670 . S
O269 C258 1.270 . S
O270 Eu251 2.394 . S
O270 C259 1.251 . S
O271 Eu241 2.374 . S
O271 C259 1.251 . S
H272 C243 0.931 . S
H273 C244 0.931 . S
H274 C246 0.931 . S
H275 C247 0.931 . S
H276 C253 0.931 . S
H277 C254 0.931 . S
H278 C256 0.931 . S
H279 C257 0.931 . S
C280 Eu281 2.835 . S
C280 C282 1.500 . S
C280 O300 1.257 . S
C280 O301 1.260 . S
Eu281 C280 2.835 . S
Eu281 O300 2.473 . S
Eu281 O301 2.480 . S
Eu281 O302 2.441 . S
Eu281 O303 2.666 1_556 S
Eu281 O304 2.394 . S
Eu281 O309 2.355 . S
Eu281 O311 2.374 1_556 S
C282 C280 1.500 . S
C282 C283 1.377 . S
C282 C287 1.377 . S
C283 C282 1.377 . S
C283 C284 1.395 . S
C283 H312 0.931 . S
C284 C283 1.395 . S
C284 C285 1.383 . S
C284 H313 0.931 . S
C285 C284 1.383 . S
C285 C286 1.394 . S
C286 C285 1.394 . S
C286 C287 1.378 . S
C286 H314 0.931 . S
C287 C282 1.377 . S
C287 C286 1.378 . S
C287 H315 0.931 . S
C288 O302 1.255 1_554 S
C288 O303 1.271 . S
C289 O304 1.251 . S
C289 O305 1.251 . S
C290 Eu291 2.835 1_554 S
C290 C292 1.500 . S
C290 O306 1.257 . S
C290 O307 1.260 . S
Eu291 C290 2.835 1_556 S
Eu291 O303 2.351 1_556 S
Eu291 O305 2.374 . S
Eu291 O306 2.473 1_556 S
Eu291 O307 2.480 1_556 S
Eu291 O308 2.430 . S
Eu291 O309 2.670 . S
Eu291 O310 2.394 1_556 S
C292 C290 1.500 . S
C292 C293 1.377 . S
C292 C297 1.377 . S
C293 C292 1.377 . S
C293 C294 1.395 1_545 S
C293 H316 0.931 . S
C294 C293 1.395 1_565 S
C294 C295 1.383 . S
C294 H317 0.931 . S
C295 C294 1.383 . S
C295 C296 1.394 1_565 S
C296 C295 1.394 1_545 S
C296 C297 1.378 . S
C296 H318 0.931 . S
C297 C292 1.377 . S
C297 C296 1.378 . S
C297 H319 0.931 . S
C298 O308 1.259 . S
C298 O309 1.270 . S
C299 O310 1.251 . S
C299 O311 1.251 . S
O300 C280 1.257 . S
O300 Eu281 2.473 . S
O301 C280 1.260 . S
O301 Eu281 2.480 . S
O302 Eu281 2.441 . S
O302 C288 1.255 1_556 S
O303 Eu281 2.666 1_554 S
O303 C288 1.271 . S
O303 Eu291 2.351 1_554 S
O304 Eu281 2.394 . S
O304 C289 1.251 . S
O305 C289 1.251 . S
O305 Eu291 2.374 . S
O306 C290 1.257 . S
O306 Eu291 2.473 1_554 S
O307 C290 1.260 . S
O307 Eu291 2.480 1_554 S
O308 Eu291 2.430 . S
O308 C298 1.259 . S
O309 Eu281 2.355 . S
O309 Eu291 2.670 . S
O309 C298 1.270 . S
O310 Eu291 2.394 1_554 S
O310 C299 1.251 . S
O311 Eu281 2.374 1_554 S
O311 C299 1.251 . S
H312 C283 0.931 . S
H313 C284 0.931 . S
H314 C286 0.931 . S
H315 C287 0.931 . S
H316 C293 0.931 . S
H317 C294 0.931 . S
H318 C296 0.931 . S
H319 C297 0.931 . S
C320 Eu321 2.835 . S
C320 C322 1.500 . S
C320 O340 1.257 . S
C320 O341 1.260 . S
Eu321 C320 2.835 . S
Eu321 O340 2.473 . S
Eu321 O341 2.480 . S
Eu321 O342 2.430 . S
Eu321 O343 2.670 . S
Eu321 O344 2.394 . S
Eu321 O349 2.355 . S
Eu321 O351 2.374 . S
C322 C320 1.500 . S
C322 C323 1.377 . S
C322 C327 1.377 . S
C323 C322 1.377 . S
C323 C324 1.395 . S
C323 H352 0.931 . S
C324 C323 1.395 . S
C324 C325 1.383 . S
C324 H353 0.931 . S
C325 C324 1.383 . S
C325 C326 1.394 . S
C326 C325 1.394 . S
C326 C327 1.378 . S
C326 H354 0.931 . S
C327 C322 1.377 . S
C327 C326 1.378 . S
C327 H355 0.931 . S
C328 O342 1.259 . S
C328 O343 1.270 . S
C329 O344 1.251 . S
C329 O345 1.251 . S
C330 Eu331 2.835 . S
C330 C332 1.500 . S
C330 O346 1.257 . S
C330 O347 1.260 . S
Eu331 C330 2.835 . S
Eu331 O343 2.355 . S
Eu331 O345 2.374 . S
Eu331 O346 2.473 . S
Eu331 O347 2.480 . S
Eu331 O348 2.430 . S
Eu331 O349 2.670 . S
Eu331 O350 2.394 . S
C332 C330 1.500 . S
C332 C333 1.377 . S
C332 C337 1.377 . S
C333 C332 1.377 . S
C333 C334 1.395 1_655 S
C333 H356 0.931 . S
C334 C333 1.395 1_455 S
C334 C335 1.383 . S
C334 H357 0.931 . S
C335 C334 1.383 . S
C335 C336 1.394 1_455 S
C336 C335 1.394 1_655 S
C336 C337 1.378 . S
C336 H358 0.931 . S
C337 C332 1.377 . S
C337 C336 1.378 . S
C337 H359 0.931 . S
C338 O348 1.259 . S
C338 O349 1.270 . S
C339 O350 1.251 . S
C339 O351 1.251 . S
O340 C320 1.257 . S
O340 Eu321 2.473 . S
O341 C320 1.260 . S
O341 Eu321 2.480 . S
O342 Eu321 2.430 . S
O342 C328 1.259 . S
O343 Eu321 2.670 . S
O343 C328 1.270 . S
O343 Eu331 2.355 . S
O344 Eu321 2.394 . S
O344 C329 1.251 . S
O345 C329 1.251 . S
O345 Eu331 2.374 . S
O346 C330 1.257 . S
O346 Eu331 2.473 . S
O347 C330 1.260 . S
O347 Eu331 2.480 . S
O348 Eu331 2.430 . S
O348 C338 1.259 . S
O349 Eu321 2.355 . S
O349 Eu331 2.670 . S
O349 C338 1.270 . S
O350 Eu331 2.394 . S
O350 C339 1.251 . S
O351 Eu321 2.374 . S
O351 C339 1.251 . S
H352 C323 0.931 . S
H353 C324 0.931 . S
H354 C326 0.931 . S
H355 C327 0.931 . S
H356 C333 0.931 . S
H357 C334 0.931 . S
H358 C336 0.931 . S
H359 C337 0.931 . S
C360 Eu361 2.835 . S
C360 C362 1.500 . S
C360 O380 1.257 . S
C360 O381 1.260 . S
Eu361 C360 2.835 . S
Eu361 O380 2.473 . S
Eu361 O381 2.480 . S
Eu361 O382 2.430 . S
Eu361 O383 2.670 . S
Eu361 O384 2.394 . S
Eu361 O389 2.355 . S
Eu361 O391 2.374 . S
C362 C360 1.500 . S
C362 C363 1.377 . S
C362 C367 1.377 . S
C363 C362 1.377 . S
C363 C364 1.395 1_545 S
C363 H392 0.931 . S
C364 C363 1.395 1_565 S
C364 C365 1.383 . S
C364 H393 0.931 . S
C365 C364 1.383 . S
C365 C366 1.394 1_565 S
C366 C365 1.394 1_545 S
C366 C367 1.378 . S
C366 H394 0.931 . S
C367 C362 1.377 . S
C367 C366 1.378 . S
C367 H395 0.931 . S
C368 O382 1.259 . S
C368 O383 1.270 . S
C369 O384 1.251 . S
C369 O385 1.251 . S
C370 Eu371 2.835 . S
C370 C372 1.500 . S
C370 O386 1.257 . S
C370 O387 1.260 . S
Eu371 C370 2.835 . S
Eu371 O383 2.355 . S
Eu371 O385 2.374 . S
Eu371 O386 2.473 . S
Eu371 O387 2.480 . S
Eu371 O388 2.430 . S
Eu371 O389 2.670 . S
Eu371 O390 2.394 . S
C372 C370 1.500 . S
C372 C373 1.377 . S
C372 C377 1.377 . S
C373 C372 1.377 . S
C373 C374 1.395 . S
C373 H396 0.931 . S
C374 C373 1.395 . S
C374 C375 1.383 . S
C374 H397 0.931 . S
C375 C374 1.383 . S
C375 C376 1.394 . S
C376 C375 1.394 . S
C376 C377 1.378 . S
C376 H398 0.931 . S
C377 C372 1.377 . S
C377 C376 1.378 . S
C377 H399 0.931 . S
C378 O388 1.259 . S
C378 O389 1.270 . S
C379 O390 1.251 . S
C379 O391 1.251 . S
O380 C360 1.257 . S
O380 Eu361 2.473 . S
O381 C360 1.260 . S
O381 Eu361 2.480 . S
O382 Eu361 2.430 . S
O382 C368 1.259 . S
O383 Eu361 2.670 . S
O383 C368 1.270 . S
O383 Eu371 2.355 . S
O384 Eu361 2.394 . S
O384 C369 1.251 . S
O385 C369 1.251 . S
O385 Eu371 2.374 . S
O386 C370 1.257 . S
O386 Eu371 2.473 . S
O387 C370 1.260 . S
O387 Eu371 2.480 . S
O388 Eu371 2.430 . S
O388 C378 1.259 . S
O389 Eu361 2.355 . S
O389 Eu371 2.670 . S
O389 C378 1.270 . S
O390 Eu371 2.394 . S
O390 C379 1.251 . S
O391 Eu361 2.374 . S
O391 C379 1.251 . S
H392 C363 0.931 . S
H393 C364 0.931 . S
H394 C366 0.931 . S
H395 C367 0.931 . S
H396 C373 0.931 . S
H397 C374 0.931 . S
H398 C376 0.931 . S
H399 C377 0.931 . S
C400 Eu401 2.835 . S
C400 C402 1.500 . S
C400 O420 1.257 . S
C400 O421 1.260 . S
Eu401 C400 2.835 . S
Eu401 O420 2.473 . S
Eu401 O421 2.480 . S
Eu401 O422 2.430 . S
Eu401 O423 2.670 . S
Eu401 O424 2.394 . S
Eu401 O429 2.355 . S
Eu401 O431 2.374 . S
C402 C400 1.500 . S
C402 C403 1.377 . S
C402 C407 1.377 . S
C403 C402 1.377 . S
C403 C404 1.395 . S
C403 H432 0.931 . S
C404 C403 1.395 . S
C404 C405 1.383 . S
C404 H433 0.931 . S
C405 C404 1.383 . S
C405 C406 1.394 . S
C406 C405 1.394 . S
C406 C407 1.378 . S
C406 H434 0.931 . S
C407 C402 1.377 . S
C407 C406 1.378 . S
C407 H435 0.931 . S
C408 O422 1.259 . S
C408 O423 1.270 . S
C409 O424 1.251 . S
C409 O425 1.251 . S
C410 Eu411 2.835 . S
C410 C412 1.500 . S
C410 O426 1.257 . S
C410 O427 1.260 . S
Eu411 C410 2.835 . S
Eu411 O423 2.355 . S
Eu411 O425 2.374 . S
Eu411 O426 2.473 . S
Eu411 O427 2.480 . S
Eu411 O428 2.430 . S
Eu411 O429 2.670 . S
Eu411 O430 2.394 . S
C412 C410 1.500 . S
C412 C413 1.377 . S
C412 C417 1.377 . S
C413 C412 1.377 . S
C413 C414 1.395 . S
C413 H436 0.931 . S
C414 C413 1.395 . S
C414 C415 1.383 . S
C414 H437 0.931 . S
C415 C414 1.383 . S
C415 C416 1.394 . S
C416 C415 1.394 . S
C416 C417 1.378 . S
C416 H438 0.931 . S
C417 C412 1.377 . S
C417 C416 1.378 . S
C417 H439 0.931 . S
C418 O428 1.259 . S
C418 O429 1.270 . S
C419 O430 1.251 . S
C419 O431 1.251 . S
O420 C400 1.257 . S
O420 Eu401 2.473 . S
O421 C400 1.260 . S
O421 Eu401 2.480 . S
O422 Eu401 2.430 . S
O422 C408 1.259 . S
O423 Eu401 2.670 . S
O423 C408 1.270 . S
O423 Eu411 2.355 . S
O424 Eu401 2.394 . S
O424 C409 1.251 . S
O425 C409 1.251 . S
O425 Eu411 2.374 . S
O426 C410 1.257 . S
O426 Eu411 2.473 . S
O427 C410 1.260 . S
O427 Eu411 2.480 . S
O428 Eu411 2.430 . S
O428 C418 1.259 . S
O429 Eu401 2.355 . S
O429 Eu411 2.670 . S
O429 C418 1.270 . S
O430 Eu411 2.394 . S
O430 C419 1.251 . S
O431 Eu401 2.374 . S
O431 C419 1.251 . S
H432 C403 0.931 . S
H433 C404 0.931 . S
H434 C406 0.931 . S
H435 C407 0.931 . S
H436 C413 0.931 . S
H437 C414 0.931 . S
H438 C416 0.931 . S
H439 C417 0.931 . S
C440 Eu441 2.835 1_554 S
C440 C442 1.500 . S
C440 O460 1.257 . S
C440 O461 1.260 . S
Eu441 C440 2.835 1_556 S
Eu441 O460 2.473 1_556 S
Eu441 O461 2.480 1_556 S
Eu441 O462 2.430 . S
Eu441 O463 2.670 . S
Eu441 O464 2.394 1_556 S
Eu441 O469 2.351 1_556 S
Eu441 O471 2.374 . S
C442 C440 1.500 . S
C442 C443 1.377 . S
C442 C447 1.377 . S
C443 C442 1.377 . S
C443 C444 1.395 1_565 S
C443 H472 0.931 . S
C444 C443 1.395 1_545 S
C444 C445 1.383 . S
C444 H473 0.931 . S
C445 C444 1.383 . S
C445 C446 1.394 1_545 S
C446 C445 1.394 1_565 S
C446 C447 1.378 . S
C446 H474 0.931 . S
C447 C442 1.377 . S
C447 C446 1.378 . S
C447 H475 0.931 . S
C448 O462 1.259 . S
C448 O463 1.270 . S
C449 O464 1.251 . S
C449 O465 1.251 . S
C450 Eu451 2.835 . S
C450 C452 1.500 . S
C450 O466 1.257 . S
C450 O467 1.260 . S
Eu451 C450 2.835 . S
Eu451 O463 2.355 . S
Eu451 O465 2.374 1_556 S
Eu451 O466 2.473 . S
Eu451 O467 2.480 . S
Eu451 O468 2.441 . S
Eu451 O469 2.666 1_556 S
Eu451 O470 2.394 . S
C452 C450 1.500 . S
C452 C453 1.377 . S
C452 C457 1.377 . S
C453 C452 1.377 . S
C453 C454 1.395 . S
C453 H476 0.931 . S
C454 C453 1.395 . S
C454 C455 1.383 . S
C454 H477 0.931 . S
C455 C454 1.383 . S
C455 C456 1.394 . S
C456 C455 1.394 . S
C456 C457 1.378 . S
C456 H478 0.931 . S
C457 C452 1.377 . S
C457 C456 1.378 . S
C457 H479 0.931 . S
C458 O468 1.255 1_554 S
C458 O469 1.271 . S
C459 O470 1.251 . S
C459 O471 1.251 . S
O460 C440 1.257 . S
O460 Eu441 2.473 1_554 S
O461 C440 1.260 . S
O461 Eu441 2.480 1_554 S
O462 Eu441 2.430 . S
O462 C448 1.259 . S
O463 Eu441 2.670 . S
O463 C448 1.270 . S
O463 Eu451 2.355 . S
O464 Eu441 2.394 1_554 S
O464 C449 1.251 . S
O465 C449 1.251 . S
O465 Eu451 2.374 1_554 S
O466 C450 1.257 . S
O466 Eu451 2.473 . S
O467 C450 1.260 . S
O467 Eu451 2.480 . S
O468 Eu451 2.441 . S
O468 C458 1.255 1_556 S
O469 Eu441 2.351 1_554 S
O469 Eu451 2.666 1_554 S
O469 C458 1.271 . S
O470 Eu451 2.394 . S
O470 C459 1.251 . S
O471 Eu441 2.374 . S
O471 C459 1.251 . S
H472 C443 0.931 . S
H473 C444 0.931 . S
H474 C446 0.931 . S
H475 C447 0.931 . S
H476 C453 0.931 . S
H477 C454 0.931 . S
H478 C456 0.931 . S
H479 C457 0.931 . S
C480 Eu481 2.835 . S
C480 C482 1.500 . S
C480 O500 1.257 . S
C480 O501 1.260 . S
Eu481 C480 2.835 . S
Eu481 O500 2.473 . S
Eu481 O501 2.480 . S
Eu481 O502 2.430 . S
Eu481 O503 2.670 . S
Eu481 O504 2.394 . S
Eu481 O509 2.355 . S
Eu481 O511 2.374 . S
C482 C480 1.500 . S
C482 C483 1.377 . S
C482 C487 1.377 . S
C483 C482 1.377 . S
C483 C484 1.395 . S
C483 H512 0.931 . S
C484 C483 1.395 . S
C484 C485 1.383 . S
C484 H513 0.931 . S
C485 C484 1.383 . S
C485 C486 1.394 . S
C486 C485 1.394 . S
C486 C487 1.378 . S
C486 H514 0.931 . S
C487 C482 1.377 . S
C487 C486 1.378 . S
C487 H515 0.931 . S
C488 O502 1.259 . S
C488 O503 1.270 . S
C489 O504 1.251 . S
C489 O505 1.251 . S
C490 Eu491 2.835 . S
C490 C492 1.500 . S
C490 O506 1.257 . S
C490 O507 1.260 . S
Eu491 C490 2.835 . S
Eu491 O503 2.355 . S
Eu491 O505 2.374 . S
Eu491 O506 2.473 . S
Eu491 O507 2.480 . S
Eu491 O508 2.430 . S
Eu491 O509 2.670 . S
Eu491 O510 2.394 . S
C492 C490 1.500 . S
C492 C493 1.377 . S
C492 C497 1.377 . S
C493 C492 1.377 . S
C493 C494 1.395 1_655 S
C493 H516 0.931 . S
C494 C493 1.395 1_455 S
C494 C495 1.383 . S
C494 H517 0.931 . S
C495 C494 1.383 . S
C495 C496 1.394 1_455 S
C496 C495 1.394 1_655 S
C496 C497 1.378 . S
C496 H518 0.931 . S
C497 C492 1.377 . S
C497 C496 1.378 . S
C497 H519 0.931 . S
C498 O508 1.259 . S
C498 O509 1.270 . S
C499 O510 1.251 . S
C499 O511 1.251 . S
O500 C480 1.257 . S
O500 Eu481 2.473 . S
O501 C480 1.260 . S
O501 Eu481 2.480 . S
O502 Eu481 2.430 . S
O502 C488 1.259 . S
O503 Eu481 2.670 . S
O503 C488 1.270 . S
O503 Eu491 2.355 . S
O504 Eu481 2.394 . S
O504 C489 1.251 . S
O505 C489 1.251 . S
O505 Eu491 2.374 . S
O506 C490 1.257 . S
O506 Eu491 2.473 . S
O507 C490 1.260 . S
O507 Eu491 2.480 . S
O508 Eu491 2.430 . S
O508 C498 1.259 . S
O509 Eu481 2.355 . S
O509 Eu491 2.670 . S
O509 C498 1.270 . S
O510 Eu491 2.394 . S
O510 C499 1.251 . S
O511 Eu481 2.374 . S
O511 C499 1.251 . S
H512 C483 0.931 . S
H513 C484 0.931 . S
H514 C486 0.931 . S
H515 C487 0.931 . S
H516 C493 0.931 . S
H517 C494 0.931 . S
H518 C496 0.931 . S
H519 C497 0.931 . S
C520 Eu521 2.835 . S
C520 C522 1.500 . S
C520 O540 1.257 . S
C520 O541 1.260 . S
Eu521 C520 2.835 . S
Eu521 O540 2.473 . S
Eu521 O541 2.480 . S
Eu521 O542 2.430 . S
Eu521 O543 2.670 . S
Eu521 O544 2.394 . S
Eu521 O549 2.355 . S
Eu521 O551 2.374 . S
C522 C520 1.500 . S
C522 C523 1.377 . S
C522 C527 1.377 . S
C523 C522 1.377 . S
C523 C524 1.395 1_545 S
C523 H552 0.931 . S
C524 C523 1.395 1_565 S
C524 C525 1.383 . S
C524 H553 0.931 . S
C525 C524 1.383 . S
C525 C526 1.394 1_565 S
C526 C525 1.394 1_545 S
C526 C527 1.378 . S
C526 H554 0.931 . S
C527 C522 1.377 . S
C527 C526 1.378 . S
C527 H555 0.931 . S
C528 O542 1.259 . S
C528 O543 1.270 . S
C529 O544 1.251 . S
C529 O545 1.251 . S
C530 Eu531 2.835 . S
C530 C532 1.500 . S
C530 O546 1.257 . S
C530 O547 1.260 . S
Eu531 C530 2.835 . S
Eu531 O543 2.355 . S
Eu531 O545 2.374 . S
Eu531 O546 2.473 . S
Eu531 O547 2.480 . S
Eu531 O548 2.430 . S
Eu531 O549 2.670 . S
Eu531 O550 2.394 . S
C532 C530 1.500 . S
C532 C533 1.377 . S
C532 C537 1.377 . S
C533 C532 1.377 . S
C533 C534 1.395 . S
C533 H556 0.931 . S
C534 C533 1.395 . S
C534 C535 1.383 . S
C534 H557 0.931 . S
C535 C534 1.383 . S
C535 C536 1.394 . S
C536 C535 1.394 . S
C536 C537 1.378 . S
C536 H558 0.931 . S
C537 C532 1.377 . S
C537 C536 1.378 . S
C537 H559 0.931 . S
C538 O548 1.259 . S
C538 O549 1.270 . S
C539 O550 1.251 . S
C539 O551 1.251 . S
O540 C520 1.257 . S
O540 Eu521 2.473 . S
O541 C520 1.260 . S
O541 Eu521 2.480 . S
O542 Eu521 2.430 . S
O542 C528 1.259 . S
O543 Eu521 2.670 . S
O543 C528 1.270 . S
O543 Eu531 2.355 . S
O544 Eu521 2.394 . S
O544 C529 1.251 . S
O545 C529 1.251 . S
O545 Eu531 2.374 . S
O546 C530 1.257 . S
O546 Eu531 2.473 . S
O547 C530 1.260 . S
O547 Eu531 2.480 . S
O548 Eu531 2.430 . S
O548 C538 1.259 . S
O549 Eu521 2.355 . S
O549 Eu531 2.670 . S
O549 C538 1.270 . S
O550 Eu531 2.394 . S
O550 C539 1.251 . S
O551 Eu521 2.374 . S
O551 C539 1.251 . S
H552 C523 0.931 . S
H553 C524 0.931 . S
H554 C526 0.931 . S
H555 C527 0.931 . S
H556 C533 0.931 . S
H557 C534 0.931 . S
H558 C536 0.931 . S
H559 C537 0.931 . S
C560 Eu561 2.835 . S
C560 C562 1.500 . S
C560 O580 1.257 . S
C560 O581 1.260 . S
Eu561 C560 2.835 . S
Eu561 O580 2.473 . S
Eu561 O581 2.480 . S
Eu561 O582 2.430 . S
Eu561 O583 2.670 . S
Eu561 O584 2.394 . S
Eu561 O589 2.355 . S
Eu561 O591 2.374 . S
C562 C560 1.500 . S
C562 C563 1.377 . S
C562 C567 1.377 . S
C563 C562 1.377 . S
C563 C564 1.395 . S
C563 H592 0.931 . S
C564 C563 1.395 . S
C564 C565 1.383 . S
C564 H593 0.931 . S
C565 C564 1.383 . S
C565 C566 1.394 . S
C566 C565 1.394 . S
C566 C567 1.378 . S
C566 H594 0.931 . S
C567 C562 1.377 . S
C567 C566 1.378 . S
C567 H595 0.931 . S
C568 O582 1.259 . S
C568 O583 1.270 . S
C569 O584 1.251 . S
C569 O585 1.251 . S
C570 Eu571 2.835 . S
C570 C572 1.500 . S
C570 O586 1.257 . S
C570 O587 1.260 . S
Eu571 C570 2.835 . S
Eu571 O583 2.355 . S
Eu571 O585 2.374 . S
Eu571 O586 2.473 . S
Eu571 O587 2.480 . S
Eu571 O588 2.430 . S
Eu571 O589 2.670 . S
Eu571 O590 2.394 . S
C572 C570 1.500 . S
C572 C573 1.377 . S
C572 C577 1.377 . S
C573 C572 1.377 . S
C573 C574 1.395 . S
C573 H596 0.931 . S
C574 C573 1.395 . S
C574 C575 1.383 . S
C574 H597 0.931 . S
C575 C574 1.383 . S
C575 C576 1.394 . S
C576 C575 1.394 . S
C576 C577 1.378 . S
C576 H598 0.931 . S
C577 C572 1.377 . S
C577 C576 1.378 . S
C577 H599 0.931 . S
C578 O588 1.259 . S
C578 O589 1.270 . S
C579 O590 1.251 . S
C579 O591 1.251 . S
O580 C560 1.257 . S
O580 Eu561 2.473 . S
O581 C560 1.260 . S
O581 Eu561 2.480 . S
O582 Eu561 2.430 . S
O582 C568 1.259 . S
O583 Eu561 2.670 . S
O583 C568 1.270 . S
O583 Eu571 2.355 . S
O584 Eu561 2.394 . S
O584 C569 1.251 . S
O585 C569 1.251 . S
O585 Eu571 2.374 . S
O586 C570 1.257 . S
O586 Eu571 2.473 . S
O587 C570 1.260 . S
O587 Eu571 2.480 . S
O588 Eu571 2.430 . S
O588 C578 1.259 . S
O589 Eu561 2.355 . S
O589 Eu571 2.670 . S
O589 C578 1.270 . S
O590 Eu571 2.394 . S
O590 C579 1.251 . S
O591 Eu561 2.374 . S
O591 C579 1.251 . S
H592 C563 0.931 . S
H593 C564 0.931 . S
H594 C566 0.931 . S
H595 C567 0.931 . S
H596 C573 0.931 . S
H597 C574 0.931 . S
H598 C576 0.931 . S
H599 C577 0.931 . S
C600 Eu601 2.835 1_556 S
C600 C602 1.500 . S
C600 O620 1.257 . S
C600 O621 1.260 . S
Eu601 C600 2.835 1_554 S
Eu601 O620 2.473 1_554 S
Eu601 O621 2.480 1_554 S
Eu601 O622 2.430 . S
Eu601 O623 2.670 . S
Eu601 O624 2.394 1_554 S
Eu601 O629 2.351 1_554 S
Eu601 O631 2.374 . S
C602 C600 1.500 . S
C602 C603 1.377 . S
C602 C607 1.377 . S
C603 C602 1.377 . S
C603 C604 1.395 1_565 S
C603 H632 0.931 . S
C604 C603 1.395 1_545 S
C604 C605 1.383 . S
C604 H633 0.931 . S
C605 C604 1.383 . S
C605 C606 1.394 1_545 S
C606 C605 1.394 1_565 S
C606 C607 1.378 . S
C606 H634 0.931 . S
C607 C602 1.377 . S
C607 C606 1.378 . S
C607 H635 0.931 . S
C608 O622 1.259 . S
C608 O623 1.270 . S
C609 O624 1.251 . S
C609 O625 1.251 . S
C610 Eu611 2.835 . S
C610 C612 1.500 . S
C610 O626 1.257 . S
C610 O627 1.260 . S
Eu611 C610 2.835 . S
Eu611 O623 2.355 . S
Eu611 O625 2.374 1_554 S
Eu611 O626 2.473 . S
Eu611 O627 2.480 . S
Eu611 O628 2.441 . S
Eu611 O629 2.666 1_554 S
Eu611 O630 2.394 . S
C612 C610 1.500 . S
C612 C613 1.377 . S
C612 C617 1.377 . S
C613 C612 1.377 . S
C613 C614 1.395 . S
C613 H636 0.931 . S
C614 C613 1.395 . S
C614 C615 1.383 . S
C614 H637 0.931 . S
C615 C614 1.383 . S
C615 C616 1.394 . S
C616 C615 1.394 . S
C616 C617 1.378 . S
C616 H638 0.931 . S
C617 C612 1.377 . S
C617 C616 1.378 . S
C617 H639 0.931 . S
C618 O628 1.255 1_556 S
C618 O629 1.271 . S
C619 O630 1.251 . S
C619 O631 1.251 . S
O620 C600 1.257 . S
O620 Eu601 2.473 1_556 S
O621 C600 1.260 . S
O621 Eu601 2.480 1_556 S
O622 Eu601 2.430 . S
O622 C608 1.259 . S
O623 Eu601 2.670 . S
O623 C608 1.270 . S
O623 Eu611 2.355 . S
O624 Eu601 2.394 1_556 S
O624 C609 1.251 . S
O625 C609 1.251 . S
O625 Eu611 2.374 1_556 S
O626 C610 1.257 . S
O626 Eu611 2.473 . S
O627 C610 1.260 . S
O627 Eu611 2.480 . S
O628 Eu611 2.441 . S
O628 C618 1.255 1_554 S
O629 Eu601 2.351 1_556 S
O629 Eu611 2.666 1_556 S
O629 C618 1.271 . S
O630 Eu611 2.394 . S
O630 C619 1.251 . S
O631 Eu601 2.374 . S
O631 C619 1.251 . S
H632 C603 0.931 . S
H633 C604 0.931 . S
H634 C606 0.931 . S
H635 C607 0.931 . S
H636 C613 0.931 . S
H637 C614 0.931 . S
H638 C616 0.931 . S
H639 C617 0.931 . S
C640 Eu641 2.835 . S
C640 C642 1.500 . S
C640 O660 1.257 . S
C640 O661 1.260 . S
Eu641 C640 2.835 . S
Eu641 O660 2.473 . S
Eu641 O661 2.480 . S
Eu641 O662 2.430 . S
Eu641 O663 2.670 . S
Eu641 O664 2.394 . S
Eu641 O669 2.355 . S
Eu641 O671 2.374 . S
C642 C640 1.500 . S
C642 C643 1.377 . S
C642 C647 1.377 . S
C643 C642 1.377 . S
C643 C644 1.395 . S
C643 H672 0.931 . S
C644 C643 1.395 . S
C644 C645 1.383 . S
C644 H673 0.931 . S
C645 C644 1.383 . S
C645 C646 1.394 . S
C646 C645 1.394 . S
C646 C647 1.378 . S
C646 H674 0.931 . S
C647 C642 1.377 . S
C647 C646 1.378 . S
C647 H675 0.931 . S
C648 O662 1.259 . S
C648 O663 1.270 . S
C649 O664 1.251 . S
C649 O665 1.251 . S
C650 Eu651 2.835 . S
C650 C652 1.500 . S
C650 O666 1.257 . S
C650 O667 1.260 . S
Eu651 C650 2.835 . S
Eu651 O663 2.355 . S
Eu651 O665 2.374 . S
Eu651 O666 2.473 . S
Eu651 O667 2.480 . S
Eu651 O668 2.430 . S
Eu651 O669 2.670 . S
Eu651 O670 2.394 . S
C652 C650 1.500 . S
C652 C653 1.377 . S
C652 C657 1.377 . S
C653 C652 1.377 . S
C653 C654 1.395 . S
C653 H676 0.931 . S
C654 C653 1.395 . S
C654 C655 1.383 . S
C654 H677 0.931 . S
C655 C654 1.383 . S
C655 C656 1.394 . S
C656 C655 1.394 . S
C656 C657 1.378 . S
C656 H678 0.931 . S
C657 C652 1.377 . S
C657 C656 1.378 . S
C657 H679 0.931 . S
C658 O668 1.259 . S
C658 O669 1.270 . S
C659 O670 1.251 . S
C659 O671 1.251 . S
O660 C640 1.257 . S
O660 Eu641 2.473 . S
O661 C640 1.260 . S
O661 Eu641 2.480 . S
O662 Eu641 2.430 . S
O662 C648 1.259 . S
O663 Eu641 2.670 . S
O663 C648 1.270 . S
O663 Eu651 2.355 . S
O664 Eu641 2.394 . S
O664 C649 1.251 . S
O665 C649 1.251 . S
O665 Eu651 2.374 . S
O666 C650 1.257 . S
O666 Eu651 2.473 . S
O667 C650 1.260 . S
O667 Eu651 2.480 . S
O668 Eu651 2.430 . S
O668 C658 1.259 . S
O669 Eu641 2.355 . S
O669 Eu651 2.670 . S
O669 C658 1.270 . S
O670 Eu651 2.394 . S
O670 C659 1.251 . S
O671 Eu641 2.374 . S
O671 C659 1.251 . S
H672 C643 0.931 . S
H673 C644 0.931 . S
H674 C646 0.931 . S
H675 C647 0.931 . S
H676 C653 0.931 . S
H677 C654 0.931 . S
H678 C656 0.931 . S
H679 C657 0.931 . S
C680 Eu681 2.835 . S
C680 C682 1.500 . S
C680 O700 1.257 . S
C680 O701 1.260 . S
Eu681 C680 2.835 . S
Eu681 O700 2.473 . S
Eu681 O701 2.480 . S
Eu681 O702 2.441 . S
Eu681 O703 2.666 1_554 S
Eu681 O704 2.394 . S
Eu681 O709 2.355 . S
Eu681 O711 2.374 1_554 S
C682 C680 1.500 . S
C682 C683 1.377 . S
C682 C687 1.377 . S
C683 C682 1.377 . S
C683 C684 1.395 . S
C683 H712 0.931 . S
C684 C683 1.395 . S
C684 C685 1.383 . S
C684 H713 0.931 . S
C685 C684 1.383 . S
C685 C686 1.394 . S
C686 C685 1.394 . S
C686 C687 1.378 . S
C686 H714 0.931 . S
C687 C682 1.377 . S
C687 C686 1.378 . S
C687 H715 0.931 . S
C688 O702 1.255 1_556 S
C688 O703 1.271 . S
C689 O704 1.251 . S
C689 O705 1.251 . S
C690 Eu691 2.835 1_556 S
C690 C692 1.500 . S
C690 O706 1.257 . S
C690 O707 1.260 . S
Eu691 C690 2.835 1_554 S
Eu691 O703 2.351 1_554 S
Eu691 O705 2.374 . S
Eu691 O706 2.473 1_554 S
Eu691 O707 2.480 1_554 S
Eu691 O708 2.430 . S
Eu691 O709 2.670 . S
Eu691 O710 2.394 1_554 S
C692 C690 1.500 . S
C692 C693 1.377 . S
C692 C697 1.377 . S
C693 C692 1.377 . S
C693 C694 1.395 . S
C693 H716 0.931 . S
C694 C693 1.395 . S
C694 C695 1.383 . S
C694 H717 0.931 . S
C695 C694 1.383 . S
C695 C696 1.394 . S
C696 C695 1.394 . S
C696 C697 1.378 . S
C696 H718 0.931 . S
C697 C692 1.377 . S
C697 C696 1.378 . S
C697 H719 0.931 . S
C698 O708 1.259 . S
C698 O709 1.270 . S
C699 O710 1.251 . S
C699 O711 1.251 . S
O700 C680 1.257 . S
O700 Eu681 2.473 . S
O701 C680 1.260 . S
O701 Eu681 2.480 . S
O702 Eu681 2.441 . S
O702 C688 1.255 1_554 S
O703 Eu681 2.666 1_556 S
O703 C688 1.271 . S
O703 Eu691 2.351 1_556 S
O704 Eu681 2.394 . S
O704 C689 1.251 . S
O705 C689 1.251 . S
O705 Eu691 2.374 . S
O706 C690 1.257 . S
O706 Eu691 2.473 1_556 S
O707 C690 1.260 . S
O707 Eu691 2.480 1_556 S
O708 Eu691 2.430 . S
O708 C698 1.259 . S
O709 Eu681 2.355 . S
O709 Eu691 2.670 . S
O709 C698 1.270 . S
O710 Eu691 2.394 1_556 S
O710 C699 1.251 . S
O711 Eu681 2.374 1_556 S
O711 C699 1.251 . S
H712 C683 0.931 . S
H713 C684 0.931 . S
H714 C686 0.931 . S
H715 C687 0.931 . S
H716 C693 0.931 . S
H717 C694 0.931 . S
H718 C696 0.931 . S
H719 C697 0.931 . S
C720 Eu721 2.835 . S
C720 C722 1.500 . S
C720 O740 1.257 . S
C720 O741 1.260 . S
Eu721 C720 2.835 . S
Eu721 O740 2.473 . S
Eu721 O741 2.480 . S
Eu721 O742 2.430 . S
Eu721 O743 2.670 . S
Eu721 O744 2.394 . S
Eu721 O749 2.355 . S
Eu721 O751 2.374 . S
C722 C720 1.500 . S
C722 C723 1.377 . S
C722 C727 1.377 . S
C723 C722 1.377 . S
C723 C724 1.395 1_655 S
C723 H752 0.931 . S
C724 C723 1.395 1_455 S
C724 C725 1.383 . S
C724 H753 0.931 . S
C725 C724 1.383 . S
C725 C726 1.394 1_455 S
C726 C725 1.394 1_655 S
C726 C727 1.378 . S
C726 H754 0.931 . S
C727 C722 1.377 . S
C727 C726 1.378 . S
C727 H755 0.931 . S
C728 O742 1.259 . S
C728 O743 1.270 . S
C729 O744 1.251 . S
C729 O745 1.251 . S
C730 Eu731 2.835 . S
C730 C732 1.500 . S
C730 O746 1.257 . S
C730 O747 1.260 . S
Eu731 C730 2.835 . S
Eu731 O743 2.355 . S
Eu731 O745 2.374 . S
Eu731 O746 2.473 . S
Eu731 O747 2.480 . S
Eu731 O748 2.430 . S
Eu731 O749 2.670 . S
Eu731 O750 2.394 . S
C732 C730 1.500 . S
C732 C733 1.377 . S
C732 C737 1.377 . S
C733 C732 1.377 . S
C733 C734 1.395 . S
C733 H756 0.931 . S
C734 C733 1.395 . S
C734 C735 1.383 . S
C734 H757 0.931 . S
C735 C734 1.383 . S
C735 C736 1.394 . S
C736 C735 1.394 . S
C736 C737 1.378 . S
C736 H758 0.931 . S
C737 C732 1.377 . S
C737 C736 1.378 . S
C737 H759 0.931 . S
C738 O748 1.259 . S
C738 O749 1.270 . S
C739 O750 1.251 . S
C739 O751 1.251 . S
O740 C720 1.257 . S
O740 Eu721 2.473 . S
O741 C720 1.260 . S
O741 Eu721 2.480 . S
O742 Eu721 2.430 . S
O742 C728 1.259 . S
O743 Eu721 2.670 . S
O743 C728 1.270 . S
O743 Eu731 2.355 . S
O744 Eu721 2.394 . S
O744 C729 1.251 . S
O745 C729 1.251 . S
O745 Eu731 2.374 . S
O746 C730 1.257 . S
O746 Eu731 2.473 . S
O747 C730 1.260 . S
O747 Eu731 2.480 . S
O748 Eu731 2.430 . S
O748 C738 1.259 . S
O749 Eu721 2.355 . S
O749 Eu731 2.670 . S
O749 C738 1.270 . S
O750 Eu731 2.394 . S
O750 C739 1.251 . S
O751 Eu721 2.374 . S
O751 C739 1.251 . S
H752 C723 0.931 . S
H753 C724 0.931 . S
H754 C726 0.931 . S
H755 C727 0.931 . S
H756 C733 0.931 . S
H757 C734 0.931 . S
H758 C736 0.931 . S
H759 C737 0.931 . S
C760 Eu761 2.835 . S
C760 C762 1.500 . S
C760 O780 1.257 . S
C760 O781 1.260 . S
Eu761 C760 2.835 . S
Eu761 O780 2.473 . S
Eu761 O781 2.480 . S
Eu761 O782 2.430 . S
Eu761 O783 2.670 . S
Eu761 O784 2.394 . S
Eu761 O789 2.355 . S
Eu761 O791 2.374 . S
C762 C760 1.500 . S
C762 C763 1.377 . S
C762 C767 1.377 . S
C763 C762 1.377 . S
C763 C764 1.395 . S
C763 H792 0.931 . S
C764 C763 1.395 . S
C764 C765 1.383 . S
C764 H793 0.931 . S
C765 C764 1.383 . S
C765 C766 1.394 . S
C766 C765 1.394 . S
C766 C767 1.378 . S
C766 H794 0.931 . S
C767 C762 1.377 . S
C767 C766 1.378 . S
C767 H795 0.931 . S
C768 O782 1.259 . S
C768 O783 1.270 . S
C769 O784 1.251 . S
C769 O785 1.251 . S
C770 Eu771 2.835 . S
C770 C772 1.500 . S
C770 O786 1.257 . S
C770 O787 1.260 . S
Eu771 C770 2.835 . S
Eu771 O783 2.355 . S
Eu771 O785 2.374 . S
Eu771 O786 2.473 . S
Eu771 O787 2.480 . S
Eu771 O788 2.430 . S
Eu771 O789 2.670 . S
Eu771 O790 2.394 . S
C772 C770 1.500 . S
C772 C773 1.377 . S
C772 C777 1.377 . S
C773 C772 1.377 . S
C773 C774 1.395 . S
C773 H796 0.931 . S
C774 C773 1.395 . S
C774 C775 1.383 . S
C774 H797 0.931 . S
C775 C774 1.383 . S
C775 C776 1.394 . S
C776 C775 1.394 . S
C776 C777 1.378 . S
C776 H798 0.931 . S
C777 C772 1.377 . S
C777 C776 1.378 . S
C777 H799 0.931 . S
C778 O788 1.259 . S
C778 O789 1.270 . S
C779 O790 1.251 . S
C779 O791 1.251 . S
O780 C760 1.257 . S
O780 Eu761 2.473 . S
O781 C760 1.260 . S
O781 Eu761 2.480 . S
O782 Eu761 2.430 . S
O782 C768 1.259 . S
O783 Eu761 2.670 . S
O783 C768 1.270 . S
O783 Eu771 2.355 . S
O784 Eu761 2.394 . S
O784 C769 1.251 . S
O785 C769 1.251 . S
O785 Eu771 2.374 . S
O786 C770 1.257 . S
O786 Eu771 2.473 . S
O787 C770 1.260 . S
O787 Eu771 2.480 . S
O788 Eu771 2.430 . S
O788 C778 1.259 . S
O789 Eu761 2.355 . S
O789 Eu771 2.670 . S
O789 C778 1.270 . S
O790 Eu771 2.394 . S
O790 C779 1.251 . S
O791 Eu761 2.374 . S
O791 C779 1.251 . S
H792 C763 0.931 . S
H793 C764 0.931 . S
H794 C766 0.931 . S
H795 C767 0.931 . S
H796 C773 0.931 . S
H797 C774 0.931 . S
H798 C776 0.931 . S
H799 C777 0.931 . S
C800 Eu801 2.835 . S
C800 C802 1.500 . S
C800 O820 1.257 . S
C800 O821 1.260 . S
Eu801 C800 2.835 . S
Eu801 O820 2.473 . S
Eu801 O821 2.480 . S
Eu801 O822 2.430 . S
Eu801 O823 2.670 . S
Eu801 O824 2.394 . S
Eu801 O829 2.355 . S
Eu801 O831 2.374 . S
C802 C800 1.500 . S
C802 C803 1.377 . S
C802 C807 1.377 . S
C803 C802 1.377 . S
C803 C804 1.395 . S
C803 H832 0.931 . S
C804 C803 1.395 . S
C804 C805 1.383 . S
C804 H833 0.931 . S
C805 C804 1.383 . S
C805 C806 1.394 . S
C806 C805 1.394 . S
C806 C807 1.378 . S
C806 H834 0.931 . S
C807 C802 1.377 . S
C807 C806 1.378 . S
C807 H835 0.931 . S
C808 O822 1.259 . S
C808 O823 1.270 . S
C809 O824 1.251 . S
C809 O825 1.251 . S
C810 Eu811 2.835 . S
C810 C812 1.500 . S
C810 O826 1.257 . S
C810 O827 1.260 . S
Eu811 C810 2.835 . S
Eu811 O823 2.355 . S
Eu811 O825 2.374 . S
Eu811 O826 2.473 . S
Eu811 O827 2.480 . S
Eu811 O828 2.430 . S
Eu811 O829 2.670 . S
Eu811 O830 2.394 . S
C812 C810 1.500 . S
C812 C813 1.377 . S
C812 C817 1.377 . S
C813 C812 1.377 . S
C813 C814 1.395 . S
C813 H836 0.931 . S
C814 C813 1.395 . S
C814 C815 1.383 . S
C814 H837 0.931 . S
C815 C814 1.383 . S
C815 C816 1.394 . S
C816 C815 1.394 . S
C816 C817 1.378 . S
C816 H838 0.931 . S
C817 C812 1.377 . S
C817 C816 1.378 . S
C817 H839 0.931 . S
C818 O828 1.259 . S
C818 O829 1.270 . S
C819 O830 1.251 . S
C819 O831 1.251 . S
O820 C800 1.257 . S
O820 Eu801 2.473 . S
O821 C800 1.260 . S
O821 Eu801 2.480 . S
O822 Eu801 2.430 . S
O822 C808 1.259 . S
O823 Eu801 2.670 . S
O823 C808 1.270 . S
O823 Eu811 2.355 . S
O824 Eu801 2.394 . S
O824 C809 1.251 . S
O825 C809 1.251 . S
O825 Eu811 2.374 . S
O826 C810 1.257 . S
O826 Eu811 2.473 . S
O827 C810 1.260 . S
O827 Eu811 2.480 . S
O828 Eu811 2.430 . S
O828 C818 1.259 . S
O829 Eu801 2.355 . S
O829 Eu811 2.670 . S
O829 C818 1.270 . S
O830 Eu811 2.394 . S
O830 C819 1.251 . S
O831 Eu801 2.374 . S
O831 C819 1.251 . S
H832 C803 0.931 . S
H833 C804 0.931 . S
H834 C806 0.931 . S
H835 C807 0.931 . S
H836 C813 0.931 . S
H837 C814 0.931 . S
H838 C816 0.931 . S
H839 C817 0.931 . S
C840 Eu841 2.835 . S
C840 C842 1.500 . S
C840 O860 1.257 . S
C840 O861 1.260 . S
Eu841 C840 2.835 . S
Eu841 O860 2.473 . S
Eu841 O861 2.480 . S
Eu841 O862 2.441 . S
Eu841 O863 2.666 1_556 S
Eu841 O864 2.394 . S
Eu841 O869 2.355 . S
Eu841 O871 2.374 1_556 S
C842 C840 1.500 . S
C842 C843 1.377 . S
C842 C847 1.377 . S
C843 C842 1.377 . S
C843 C844 1.395 . S
C843 H872 0.931 . S
C844 C843 1.395 . S
C844 C845 1.383 . S
C844 H873 0.931 . S
C845 C844 1.383 . S
C845 C846 1.394 . S
C846 C845 1.394 . S
C846 C847 1.378 . S
C846 H874 0.931 . S
C847 C842 1.377 . S
C847 C846 1.378 . S
C847 H875 0.931 . S
C848 O862 1.255 1_554 S
C848 O863 1.271 . S
C849 O864 1.251 . S
C849 O865 1.251 . S
C850 Eu851 2.835 1_554 S
C850 C852 1.500 . S
C850 O866 1.257 . S
C850 O867 1.260 . S
Eu851 C850 2.835 1_556 S
Eu851 O863 2.351 1_556 S
Eu851 O865 2.374 . S
Eu851 O866 2.473 1_556 S
Eu851 O867 2.480 1_556 S
Eu851 O868 2.430 . S
Eu851 O869 2.670 . S
Eu851 O870 2.394 1_556 S
C852 C850 1.500 . S
C852 C853 1.377 . S
C852 C857 1.377 . S
C853 C852 1.377 . S
C853 C854 1.395 . S
C853 H876 0.931 . S
C854 C853 1.395 . S
C854 C855 1.383 . S
C854 H877 0.931 . S
C855 C854 1.383 . S
C855 C856 1.394 . S
C856 C855 1.394 . S
C856 C857 1.378 . S
C856 H878 0.931 . S
C857 C852 1.377 . S
C857 C856 1.378 . S
C857 H879 0.931 . S
C858 O868 1.259 . S
C858 O869 1.270 . S
C859 O870 1.251 . S
C859 O871 1.251 . S
O860 C840 1.257 . S
O860 Eu841 2.473 . S
O861 C840 1.260 . S
O861 Eu841 2.480 . S
O862 Eu841 2.441 . S
O862 C848 1.255 1_556 S
O863 Eu841 2.666 1_554 S
O863 C848 1.271 . S
O863 Eu851 2.351 1_554 S
O864 Eu841 2.394 . S
O864 C849 1.251 . S
O865 C849 1.251 . S
O865 Eu851 2.374 . S
O866 C850 1.257 . S
O866 Eu851 2.473 1_554 S
O867 C850 1.260 . S
O867 Eu851 2.480 1_554 S
O868 Eu851 2.430 . S
O868 C858 1.259 . S
O869 Eu841 2.355 . S
O869 Eu851 2.670 . S
O869 C858 1.270 . S
O870 Eu851 2.394 1_554 S
O870 C859 1.251 . S
O871 Eu841 2.374 1_554 S
O871 C859 1.251 . S
H872 C843 0.931 . S
H873 C844 0.931 . S
H874 C846 0.931 . S
H875 C847 0.931 . S
H876 C853 0.931 . S
H877 C854 0.931 . S
H878 C856 0.931 . S
H879 C857 0.931 . S
C880 Eu881 2.835 . S
C880 C882 1.500 . S
C880 O900 1.257 . S
C880 O901 1.260 . S
Eu881 C880 2.835 . S
Eu881 O900 2.473 . S
Eu881 O901 2.480 . S
Eu881 O902 2.430 . S
Eu881 O903 2.670 . S
Eu881 O904 2.394 . S
Eu881 O909 2.355 . S
Eu881 O911 2.374 . S
C882 C880 1.500 . S
C882 C883 1.377 . S
C882 C887 1.377 . S
C883 C882 1.377 . S
C883 C884 1.395 1_655 S
C883 H912 0.931 . S
C884 C883 1.395 1_455 S
C884 C885 1.383 . S
C884 H913 0.931 . S
C885 C884 1.383 . S
C885 C886 1.394 1_455 S
C886 C885 1.394 1_655 S
C886 C887 1.378 . S
C886 H914 0.931 . S
C887 C882 1.377 . S
C887 C886 1.378 . S
C887 H915 0.931 . S
C888 O902 1.259 . S
C888 O903 1.270 . S
C889 O904 1.251 . S
C889 O905 1.251 . S
C890 Eu891 2.835 . S
C890 C892 1.500 . S
C890 O906 1.257 . S
C890 O907 1.260 . S
Eu891 C890 2.835 . S
Eu891 O903 2.355 . S
Eu891 O905 2.374 . S
Eu891 O906 2.473 . S
Eu891 O907 2.480 . S
Eu891 O908 2.430 . S
Eu891 O909 2.670 . S
Eu891 O910 2.394 . S
C892 C890 1.500 . S
C892 C893 1.377 . S
C892 C897 1.377 . S
C893 C892 1.377 . S
C893 C894 1.395 . S
C893 H916 0.931 . S
C894 C893 1.395 . S
C894 C895 1.383 . S
C894 H917 0.931 . S
C895 C894 1.383 . S
C895 C896 1.394 . S
C896 C895 1.394 . S
C896 C897 1.378 . S
C896 H918 0.931 . S
C897 C892 1.377 . S
C897 C896 1.378 . S
C897 H919 0.931 . S
C898 O908 1.259 . S
C898 O909 1.270 . S
C899 O910 1.251 . S
C899 O911 1.251 . S
O900 C880 1.257 . S
O900 Eu881 2.473 . S
O901 C880 1.260 . S
O901 Eu881 2.480 . S
O902 Eu881 2.430 . S
O902 C888 1.259 . S
O903 Eu881 2.670 . S
O903 C888 1.270 . S
O903 Eu891 2.355 . S
O904 Eu881 2.394 . S
O904 C889 1.251 . S
O905 C889 1.251 . S
O905 Eu891 2.374 . S
O906 C890 1.257 . S
O906 Eu891 2.473 . S
O907 C890 1.260 . S
O907 Eu891 2.480 . S
O908 Eu891 2.430 . S
O908 C898 1.259 . S
O909 Eu881 2.355 . S
O909 Eu891 2.670 . S
O909 C898 1.270 . S
O910 Eu891 2.394 . S
O910 C899 1.251 . S
O911 Eu881 2.374 . S
O911 C899 1.251 . S
H912 C883 0.931 . S
H913 C884 0.931 . S
H914 C886 0.931 . S
H915 C887 0.931 . S
H916 C893 0.931 . S
H917 C894 0.931 . S
H918 C896 0.931 . S
H919 C897 0.931 . S
C920 Eu921 2.835 . S
C920 C922 1.500 . S
C920 O940 1.257 . S
C920 O941 1.260 . S
Eu921 C920 2.835 . S
Eu921 O940 2.473 . S
Eu921 O941 2.480 . S
Eu921 O942 2.430 . S
Eu921 O943 2.670 . S
Eu921 O944 2.394 . S
Eu921 O949 2.355 . S
Eu921 O951 2.374 . S
C922 C920 1.500 . S
C922 C923 1.377 . S
C922 C927 1.377 . S
C923 C922 1.377 . S
C923 C924 1.395 . S
C923 H952 0.931 . S
C924 C923 1.395 . S
C924 C925 1.383 . S
C924 H953 0.931 . S
C925 C924 1.383 . S
C925 C926 1.394 . S
C926 C925 1.394 . S
C926 C927 1.378 . S
C926 H954 0.931 . S
C927 C922 1.377 . S
C927 C926 1.378 . S
C927 H955 0.931 . S
C928 O942 1.259 . S
C928 O943 1.270 . S
C929 O944 1.251 . S
C929 O945 1.251 . S
C930 Eu931 2.835 . S
C930 C932 1.500 . S
C930 O946 1.257 . S
C930 O947 1.260 . S
Eu931 C930 2.835 . S
Eu931 O943 2.355 . S
Eu931 O945 2.374 . S
Eu931 O946 2.473 . S
Eu931 O947 2.480 . S
Eu931 O948 2.430 . S
Eu931 O949 2.670 . S
Eu931 O950 2.394 . S
C932 C930 1.500 . S
C932 C933 1.377 . S
C932 C937 1.377 . S
C933 C932 1.377 . S
C933 C934 1.395 . S
C933 H956 0.931 . S
C934 C933 1.395 . S
C934 C935 1.383 . S
C934 H957 0.931 . S
C935 C934 1.383 . S
C935 C936 1.394 . S
C936 C935 1.394 . S
C936 C937 1.378 . S
C936 H958 0.931 . S
C937 C932 1.377 . S
C937 C936 1.378 . S
C937 H959 0.931 . S
C938 O948 1.259 . S
C938 O949 1.270 . S
C939 O950 1.251 . S
C939 O951 1.251 . S
O940 C920 1.257 . S
O940 Eu921 2.473 . S
O941 C920 1.260 . S
O941 Eu921 2.480 . S
O942 Eu921 2.430 . S
O942 C928 1.259 . S
O943 Eu921 2.670 . S
O943 C928 1.270 . S
O943 Eu931 2.355 . S
O944 Eu921 2.394 . S
O944 C929 1.251 . S
O945 C929 1.251 . S
O945 Eu931 2.374 . S
O946 C930 1.257 . S
O946 Eu931 2.473 . S
O947 C930 1.260 . S
O947 Eu931 2.480 . S
O948 Eu931 2.430 . S
O948 C938 1.259 . S
O949 Eu921 2.355 . S
O949 Eu931 2.670 . S
O949 C938 1.270 . S
O950 Eu931 2.394 . S
O950 C939 1.251 . S
O951 Eu921 2.374 . S
O951 C939 1.251 . S
H952 C923 0.931 . S
H953 C924 0.931 . S
H954 C926 0.931 . S
H955 C927 0.931 . S
H956 C933 0.931 . S
H957 C934 0.931 . S
H958 C936 0.931 . S
H959 C937 0.931 . S
C960 Eu961 2.835 . S
C960 C962 1.500 . S
C960 O980 1.257 . S
C960 O981 1.260 . S
Eu961 C960 2.835 . S
Eu961 O980 2.473 . S
Eu961 O981 2.480 . S
Eu961 O982 2.430 . S
Eu961 O983 2.670 . S
Eu961 O984 2.394 . S
Eu961 O989 2.355 . S
Eu961 O991 2.374 . S
C962 C960 1.500 . S
C962 C963 1.377 . S
C962 C967 1.377 . S
C963 C962 1.377 . S
C963 C964 1.395 . S
C963 H992 0.931 . S
C964 C963 1.395 . S
C964 C965 1.383 . S
C964 H993 0.931 . S
C965 C964 1.383 . S
C965 C966 1.394 . S
C966 C965 1.394 . S
C966 C967 1.378 . S
C966 H994 0.931 . S
C967 C962 1.377 . S
C967 C966 1.378 . S
C967 H995 0.931 . S
C968 O982 1.259 . S
C968 O983 1.270 . S
C969 O984 1.251 . S
C969 O985 1.251 . S
C970 Eu971 2.835 . S
C970 C972 1.500 . S
C970 O986 1.257 . S
C970 O987 1.260 . S
Eu971 C970 2.835 . S
Eu971 O983 2.355 . S
Eu971 O985 2.374 . S
Eu971 O986 2.473 . S
Eu971 O987 2.480 . S
Eu971 O988 2.430 . S
Eu971 O989 2.670 . S
Eu971 O990 2.394 . S
C972 C970 1.500 . S
C972 C973 1.377 . S
C972 C977 1.377 . S
C973 C972 1.377 . S
C973 C974 1.395 . S
C973 H996 0.931 . S
C974 C973 1.395 . S
C974 C975 1.383 . S
C974 H997 0.931 . S
C975 C974 1.383 . S
C975 C976 1.394 . S
C976 C975 1.394 . S
C976 C977 1.378 . S
C976 H998 0.931 . S
C977 C972 1.377 . S
C977 C976 1.378 . S
C977 H999 0.931 . S
C978 O988 1.259 . S
C978 O989 1.270 . S
C979 O990 1.251 . S
C979 O991 1.251 . S
O980 C960 1.257 . S
O980 Eu961 2.473 . S
O981 C960 1.260 . S
O981 Eu961 2.480 . S
O982 Eu961 2.430 . S
O982 C968 1.259 . S
O983 Eu961 2.670 . S
O983 C968 1.270 . S
O983 Eu971 2.355 . S
O984 Eu961 2.394 . S
O984 C969 1.251 . S
O985 C969 1.251 . S
O985 Eu971 2.374 . S
O986 C970 1.257 . S
O986 Eu971 2.473 . S
O987 C970 1.260 . S
O987 Eu971 2.480 . S
O988 Eu971 2.430 . S
O988 C978 1.259 . S
O989 Eu961 2.355 . S
O989 Eu971 2.670 . S
O989 C978 1.270 . S
O990 Eu971 2.394 . S
O990 C979 1.251 . S
O991 Eu961 2.374 . S
O991 C979 1.251 . S
H992 C963 0.931 . S
H993 C964 0.931 . S
H994 C966 0.931 . S
H995 C967 0.931 . S
H996 C973 0.931 . S
H997 C974 0.931 . S
H998 C976 0.931 . S
H999 C977 0.931 . S
C1000 Eu1001 2.835 1_554 S
C1000 C1002 1.500 . S
C1000 O1020 1.257 . S
C1000 O1021 1.260 . S
Eu1001 C1000 2.835 1_556 S
Eu1001 O1020 2.473 1_556 S
Eu1001 O1021 2.480 1_556 S
Eu1001 O1022 2.430 . S
Eu1001 O1023 2.670 . S
Eu1001 O1024 2.394 1_556 S
Eu1001 O1029 2.351 1_556 S
Eu1001 O1031 2.374 . S
C1002 C1000 1.500 . S
C1002 C1003 1.377 . S
C1002 C1007 1.377 . S
C1003 C1002 1.377 . S
C1003 C1004 1.395 . S
C1003 H1032 0.931 . S
C1004 C1003 1.395 . S
C1004 C1005 1.383 . S
C1004 H1033 0.931 . S
C1005 C1004 1.383 . S
C1005 C1006 1.394 . S
C1006 C1005 1.394 . S
C1006 C1007 1.378 . S
C1006 H1034 0.931 . S
C1007 C1002 1.377 . S
C1007 C1006 1.378 . S
C1007 H1035 0.931 . S
C1008 O1022 1.259 . S
C1008 O1023 1.270 . S
C1009 O1024 1.251 . S
C1009 O1025 1.251 . S
C1010 Eu1011 2.835 . S
C1010 C1012 1.500 . S
C1010 O1026 1.257 . S
C1010 O1027 1.260 . S
Eu1011 C1010 2.835 . S
Eu1011 O1023 2.355 . S
Eu1011 O1025 2.374 1_556 S
Eu1011 O1026 2.473 . S
Eu1011 O1027 2.480 . S
Eu1011 O1028 2.441 . S
Eu1011 O1029 2.666 1_556 S
Eu1011 O1030 2.394 . S
C1012 C1010 1.500 . S
C1012 C1013 1.377 . S
C1012 C1017 1.377 . S
C1013 C1012 1.377 . S
C1013 C1014 1.395 . S
C1013 H1036 0.931 . S
C1014 C1013 1.395 . S
C1014 C1015 1.383 . S
C1014 H1037 0.931 . S
C1015 C1014 1.383 . S
C1015 C1016 1.394 . S
C1016 C1015 1.394 . S
C1016 C1017 1.378 . S
C1016 H1038 0.931 . S
C1017 C1012 1.377 . S
C1017 C1016 1.378 . S
C1017 H1039 0.931 . S
C1018 O1028 1.255 1_554 S
C1018 O1029 1.271 . S
C1019 O1030 1.251 . S
C1019 O1031 1.251 . S
O1020 C1000 1.257 . S
O1020 Eu1001 2.473 1_554 S
O1021 C1000 1.260 . S
O1021 Eu1001 2.480 1_554 S
O1022 Eu1001 2.430 . S
O1022 C1008 1.259 . S
O1023 Eu1001 2.670 . S
O1023 C1008 1.270 . S
O1023 Eu1011 2.355 . S
O1024 Eu1001 2.394 1_554 S
O1024 C1009 1.251 . S
O1025 C1009 1.251 . S
O1025 Eu1011 2.374 1_554 S
O1026 C1010 1.257 . S
O1026 Eu1011 2.473 . S
O1027 C1010 1.260 . S
O1027 Eu1011 2.480 . S
O1028 Eu1011 2.441 . S
O1028 C1018 1.255 1_556 S
O1029 Eu1001 2.351 1_554 S
O1029 Eu1011 2.666 1_554 S
O1029 C1018 1.271 . S
O1030 Eu1011 2.394 . S
O1030 C1019 1.251 . S
O1031 Eu1001 2.374 . S
O1031 C1019 1.251 . S
H1032 C1003 0.931 . S
H1033 C1004 0.931 . S
H1034 C1006 0.931 . S
H1035 C1007 0.931 . S
H1036 C1013 0.931 . S
H1037 C1014 0.931 . S
H1038 C1016 0.931 . S
H1039 C1017 0.931 . S
C1040 Eu1041 2.835 . S
C1040 C1042 1.500 . S
C1040 O1060 1.257 . S
C1040 O1061 1.260 . S
Eu1041 C1040 2.835 . S
Eu1041 O1060 2.473 . S
Eu1041 O1061 2.480 . S
Eu1041 O1062 2.430 . S
Eu1041 O1063 2.670 . S
Eu1041 O1064 2.394 . S
Eu1041 O1069 2.355 . S
Eu1041 O1071 2.374 . S
C1042 C1040 1.500 . S
C1042 C1043 1.377 . S
C1042 C1047 1.377 . S
C1043 C1042 1.377 . S
C1043 C1044 1.395 . S
C1043 H1072 0.931 . S
C1044 C1043 1.395 . S
C1044 C1045 1.383 . S
C1044 H1073 0.931 . S
C1045 C1044 1.383 . S
C1045 C1046 1.394 . S
C1046 C1045 1.394 . S
C1046 C1047 1.378 . S
C1046 H1074 0.931 . S
C1047 C1042 1.377 . S
C1047 C1046 1.378 . S
C1047 H1075 0.931 . S
C1048 O1062 1.259 . S
C1048 O1063 1.270 . S
C1049 O1064 1.251 . S
C1049 O1065 1.251 . S
C1050 Eu1051 2.835 . S
C1050 C1052 1.500 . S
C1050 O1066 1.257 . S
C1050 O1067 1.260 . S
Eu1051 C1050 2.835 . S
Eu1051 O1063 2.355 . S
Eu1051 O1065 2.374 . S
Eu1051 O1066 2.473 . S
Eu1051 O1067 2.480 . S
Eu1051 O1068 2.430 . S
Eu1051 O1069 2.670 . S
Eu1051 O1070 2.394 . S
C1052 C1050 1.500 . S
C1052 C1053 1.377 . S
C1052 C1057 1.377 . S
C1053 C1052 1.377 . S
C1053 C1054 1.395 1_455 S
C1053 H1076 0.931 . S
C1054 C1053 1.395 1_655 S
C1054 C1055 1.383 . S
C1054 H1077 0.931 . S
C1055 C1054 1.383 . S
C1055 C1056 1.394 1_655 S
C1056 C1055 1.394 1_455 S
C1056 C1057 1.378 . S
C1056 H1078 0.931 . S
C1057 C1052 1.377 . S
C1057 C1056 1.378 . S
C1057 H1079 0.931 . S
C1058 O1068 1.259 . S
C1058 O1069 1.270 . S
C1059 O1070 1.251 . S
C1059 O1071 1.251 . S
O1060 C1040 1.257 . S
O1060 Eu1041 2.473 . S
O1061 C1040 1.260 . S
O1061 Eu1041 2.480 . S
O1062 Eu1041 2.430 . S
O1062 C1048 1.259 . S
O1063 Eu1041 2.670 . S
O1063 C1048 1.270 . S
O1063 Eu1051 2.355 . S
O1064 Eu1041 2.394 . S
O1064 C1049 1.251 . S
O1065 C1049 1.251 . S
O1065 Eu1051 2.374 . S
O1066 C1050 1.257 . S
O1066 Eu1051 2.473 . S
O1067 C1050 1.260 . S
O1067 Eu1051 2.480 . S
O1068 Eu1051 2.430 . S
O1068 C1058 1.259 . S
O1069 Eu1041 2.355 . S
O1069 Eu1051 2.670 . S
O1069 C1058 1.270 . S
O1070 Eu1051 2.394 . S
O1070 C1059 1.251 . S
O1071 Eu1041 2.374 . S
O1071 C1059 1.251 . S
H1072 C1043 0.931 . S
H1073 C1044 0.931 . S
H1074 C1046 0.931 . S
H1075 C1047 0.931 . S
H1076 C1053 0.931 . S
H1077 C1054 0.931 . S
H1078 C1056 0.931 . S
H1079 C1057 0.931 . S
C1080 Eu1081 2.835 . S
C1080 C1082 1.500 . S
C1080 O1100 1.257 . S
C1080 O1101 1.260 . S
Eu1081 C1080 2.835 . S
Eu1081 O1100 2.473 . S
Eu1081 O1101 2.480 . S
Eu1081 O1102 2.430 . S
Eu1081 O1103 2.670 . S
Eu1081 O1104 2.394 . S
Eu1081 O1109 2.355 . S
Eu1081 O1111 2.374 . S
C1082 C1080 1.500 . S
C1082 C1083 1.377 . S
C1082 C1087 1.377 . S
C1083 C1082 1.377 . S
C1083 C1084 1.395 . S
C1083 H1112 0.931 . S
C1084 C1083 1.395 . S
C1084 C1085 1.383 . S
C1084 H1113 0.931 . S
C1085 C1084 1.383 . S
C1085 C1086 1.394 . S
C1086 C1085 1.394 . S
C1086 C1087 1.378 . S
C1086 H1114 0.931 . S
C1087 C1082 1.377 . S
C1087 C1086 1.378 . S
C1087 H1115 0.931 . S
C1088 O1102 1.259 . S
C1088 O1103 1.270 . S
C1089 O1104 1.251 . S
C1089 O1105 1.251 . S
C1090 Eu1091 2.835 . S
C1090 C1092 1.500 . S
C1090 O1106 1.257 . S
C1090 O1107 1.260 . S
Eu1091 C1090 2.835 . S
Eu1091 O1103 2.355 . S
Eu1091 O1105 2.374 . S
Eu1091 O1106 2.473 . S
Eu1091 O1107 2.480 . S
Eu1091 O1108 2.430 . S
Eu1091 O1109 2.670 . S
Eu1091 O1110 2.394 . S
C1092 C1090 1.500 . S
C1092 C1093 1.377 . S
C1092 C1097 1.377 . S
C1093 C1092 1.377 . S
C1093 C1094 1.395 . S
C1093 H1116 0.931 . S
C1094 C1093 1.395 . S
C1094 C1095 1.383 . S
C1094 H1117 0.931 . S
C1095 C1094 1.383 . S
C1095 C1096 1.394 . S
C1096 C1095 1.394 . S
C1096 C1097 1.378 . S
C1096 H1118 0.931 . S
C1097 C1092 1.377 . S
C1097 C1096 1.378 . S
C1097 H1119 0.931 . S
C1098 O1108 1.259 . S
C1098 O1109 1.270 . S
C1099 O1110 1.251 . S
C1099 O1111 1.251 . S
O1100 C1080 1.257 . S
O1100 Eu1081 2.473 . S
O1101 C1080 1.260 . S
O1101 Eu1081 2.480 . S
O1102 Eu1081 2.430 . S
O1102 C1088 1.259 . S
O1103 Eu1081 2.670 . S
O1103 C1088 1.270 . S
O1103 Eu1091 2.355 . S
O1104 Eu1081 2.394 . S
O1104 C1089 1.251 . S
O1105 C1089 1.251 . S
O1105 Eu1091 2.374 . S
O1106 C1090 1.257 . S
O1106 Eu1091 2.473 . S
O1107 C1090 1.260 . S
O1107 Eu1091 2.480 . S
O1108 Eu1091 2.430 . S
O1108 C1098 1.259 . S
O1109 Eu1081 2.355 . S
O1109 Eu1091 2.670 . S
O1109 C1098 1.270 . S
O1110 Eu1091 2.394 . S
O1110 C1099 1.251 . S
O1111 Eu1081 2.374 . S
O1111 C1099 1.251 . S
H1112 C1083 0.931 . S
H1113 C1084 0.931 . S
H1114 C1086 0.931 . S
H1115 C1087 0.931 . S
H1116 C1093 0.931 . S
H1117 C1094 0.931 . S
H1118 C1096 0.931 . S
H1119 C1097 0.931 . S
C1120 Eu1121 2.835 . S
C1120 C1122 1.500 . S
C1120 O1140 1.257 . S
C1120 O1141 1.260 . S
Eu1121 C1120 2.835 . S
Eu1121 O1140 2.473 . S
Eu1121 O1141 2.480 . S
Eu1121 O1142 2.430 . S
Eu1121 O1143 2.670 . S
Eu1121 O1144 2.394 . S
Eu1121 O1149 2.355 . S
Eu1121 O1151 2.374 . S
C1122 C1120 1.500 . S
C1122 C1123 1.377 . S
C1122 C1127 1.377 . S
C1123 C1122 1.377 . S
C1123 C1124 1.395 . S
C1123 H1152 0.931 . S
C1124 C1123 1.395 . S
C1124 C1125 1.383 . S
C1124 H1153 0.931 . S
C1125 C1124 1.383 . S
C1125 C1126 1.394 . S
C1126 C1125 1.394 . S
C1126 C1127 1.378 . S
C1126 H1154 0.931 . S
C1127 C1122 1.377 . S
C1127 C1126 1.378 . S
C1127 H1155 0.931 . S
C1128 O1142 1.259 . S
C1128 O1143 1.270 . S
C1129 O1144 1.251 . S
C1129 O1145 1.251 . S
C1130 Eu1131 2.835 . S
C1130 C1132 1.500 . S
C1130 O1146 1.257 . S
C1130 O1147 1.260 . S
Eu1131 C1130 2.835 . S
Eu1131 O1143 2.355 . S
Eu1131 O1145 2.374 . S
Eu1131 O1146 2.473 . S
Eu1131 O1147 2.480 . S
Eu1131 O1148 2.430 . S
Eu1131 O1149 2.670 . S
Eu1131 O1150 2.394 . S
C1132 C1130 1.500 . S
C1132 C1133 1.377 . S
C1132 C1137 1.377 . S
C1133 C1132 1.377 . S
C1133 C1134 1.395 . S
C1133 H1156 0.931 . S
C1134 C1133 1.395 . S
C1134 C1135 1.383 . S
C1134 H1157 0.931 . S
C1135 C1134 1.383 . S
C1135 C1136 1.394 . S
C1136 C1135 1.394 . S
C1136 C1137 1.378 . S
C1136 H1158 0.931 . S
C1137 C1132 1.377 . S
C1137 C1136 1.378 . S
C1137 H1159 0.931 . S
C1138 O1148 1.259 . S
C1138 O1149 1.270 . S
C1139 O1150 1.251 . S
C1139 O1151 1.251 . S
O1140 C1120 1.257 . S
O1140 Eu1121 2.473 . S
O1141 C1120 1.260 . S
O1141 Eu1121 2.480 . S
O1142 Eu1121 2.430 . S
O1142 C1128 1.259 . S
O1143 Eu1121 2.670 . S
O1143 C1128 1.270 . S
O1143 Eu1131 2.355 . S
O1144 Eu1121 2.394 . S
O1144 C1129 1.251 . S
O1145 C1129 1.251 . S
O1145 Eu1131 2.374 . S
O1146 C1130 1.257 . S
O1146 Eu1131 2.473 . S
O1147 C1130 1.260 . S
O1147 Eu1131 2.480 . S
O1148 Eu1131 2.430 . S
O1148 C1138 1.259 . S
O1149 Eu1121 2.355 . S
O1149 Eu1131 2.670 . S
O1149 C1138 1.270 . S
O1150 Eu1131 2.394 . S
O1150 C1139 1.251 . S
O1151 Eu1121 2.374 . S
O1151 C1139 1.251 . S
H1152 C1123 0.931 . S
H1153 C1124 0.931 . S
H1154 C1126 0.931 . S
H1155 C1127 0.931 . S
H1156 C1133 0.931 . S
H1157 C1134 0.931 . S
H1158 C1136 0.931 . S
H1159 C1137 0.931 . S
C1160 Eu1161 2.835 1_556 S
C1160 C1162 1.500 . S
C1160 O1180 1.257 . S
C1160 O1181 1.260 . S
Eu1161 C1160 2.835 1_554 S
Eu1161 O1180 2.473 1_554 S
Eu1161 O1181 2.480 1_554 S
Eu1161 O1182 2.430 . S
Eu1161 O1183 2.670 . S
Eu1161 O1184 2.394 1_554 S
Eu1161 O1189 2.351 1_554 S
Eu1161 O1191 2.374 . S
C1162 C1160 1.500 . S
C1162 C1163 1.377 . S
C1162 C1167 1.377 . S
C1163 C1162 1.377 . S
C1163 C1164 1.395 . S
C1163 H1192 0.931 . S
C1164 C1163 1.395 . S
C1164 C1165 1.383 . S
C1164 H1193 0.931 . S
C1165 C1164 1.383 . S
C1165 C1166 1.394 . S
C1166 C1165 1.394 . S
C1166 C1167 1.378 . S
C1166 H1194 0.931 . S
C1167 C1162 1.377 . S
C1167 C1166 1.378 . S
C1167 H1195 0.931 . S
C1168 O1182 1.259 . S
C1168 O1183 1.270 . S
C1169 O1184 1.251 . S
C1169 O1185 1.251 . S
C1170 Eu1171 2.835 . S
C1170 C1172 1.500 . S
C1170 O1186 1.257 . S
C1170 O1187 1.260 . S
Eu1171 C1170 2.835 . S
Eu1171 O1183 2.355 . S
Eu1171 O1185 2.374 1_554 S
Eu1171 O1186 2.473 . S
Eu1171 O1187 2.480 . S
Eu1171 O1188 2.441 . S
Eu1171 O1189 2.666 1_554 S
Eu1171 O1190 2.394 . S
C1172 C1170 1.500 . S
C1172 C1173 1.377 . S
C1172 C1177 1.377 . S
C1173 C1172 1.377 . S
C1173 C1174 1.395 . S
C1173 H1196 0.931 . S
C1174 C1173 1.395 . S
C1174 C1175 1.383 . S
C1174 H1197 0.931 . S
C1175 C1174 1.383 . S
C1175 C1176 1.394 . S
C1176 C1175 1.394 . S
C1176 C1177 1.378 . S
C1176 H1198 0.931 . S
C1177 C1172 1.377 . S
C1177 C1176 1.378 . S
C1177 H1199 0.931 . S
C1178 O1188 1.255 1_556 S
C1178 O1189 1.271 . S
C1179 O1190 1.251 . S
C1179 O1191 1.251 . S
O1180 C1160 1.257 . S
O1180 Eu1161 2.473 1_556 S
O1181 C1160 1.260 . S
O1181 Eu1161 2.480 1_556 S
O1182 Eu1161 2.430 . S
O1182 C1168 1.259 . S
O1183 Eu1161 2.670 . S
O1183 C1168 1.270 . S
O1183 Eu1171 2.355 . S
O1184 Eu1161 2.394 1_556 S
O1184 C1169 1.251 . S
O1185 C1169 1.251 . S
O1185 Eu1171 2.374 1_556 S
O1186 C1170 1.257 . S
O1186 Eu1171 2.473 . S
O1187 C1170 1.260 . S
O1187 Eu1171 2.480 . S
O1188 Eu1171 2.441 . S
O1188 C1178 1.255 1_554 S
O1189 Eu1161 2.351 1_556 S
O1189 Eu1171 2.666 1_556 S
O1189 C1178 1.271 . S
O1190 Eu1171 2.394 . S
O1190 C1179 1.251 . S
O1191 Eu1161 2.374 . S
O1191 C1179 1.251 . S
H1192 C1163 0.931 . S
H1193 C1164 0.931 . S
H1194 C1166 0.931 . S
H1195 C1167 0.931 . S
H1196 C1173 0.931 . S
H1197 C1174 0.931 . S
H1198 C1176 0.931 . S
H1199 C1177 0.931 . S
C1200 Eu1201 2.835 . S
C1200 C1202 1.500 . S
C1200 O1220 1.257 . S
C1200 O1221 1.260 . S
Eu1201 C1200 2.835 . S
Eu1201 O1220 2.473 . S
Eu1201 O1221 2.480 . S
Eu1201 O1222 2.430 . S
Eu1201 O1223 2.670 . S
Eu1201 O1224 2.394 . S
Eu1201 O1229 2.355 . S
Eu1201 O1231 2.374 . S
C1202 C1200 1.500 . S
C1202 C1203 1.377 . S
C1202 C1207 1.377 . S
C1203 C1202 1.377 . S
C1203 C1204 1.395 . S
C1203 H1232 0.931 . S
C1204 C1203 1.395 . S
C1204 C1205 1.383 . S
C1204 H1233 0.931 . S
C1205 C1204 1.383 . S
C1205 C1206 1.394 . S
C1206 C1205 1.394 . S
C1206 C1207 1.378 . S
C1206 H1234 0.931 . S
C1207 C1202 1.377 . S
C1207 C1206 1.378 . S
C1207 H1235 0.931 . S
C1208 O1222 1.259 . S
C1208 O1223 1.270 . S
C1209 O1224 1.251 . S
C1209 O1225 1.251 . S
C1210 Eu1211 2.835 . S
C1210 C1212 1.500 . S
C1210 O1226 1.257 . S
C1210 O1227 1.260 . S
Eu1211 C1210 2.835 . S
Eu1211 O1223 2.355 . S
Eu1211 O1225 2.374 . S
Eu1211 O1226 2.473 . S
Eu1211 O1227 2.480 . S
Eu1211 O1228 2.430 . S
Eu1211 O1229 2.670 . S
Eu1211 O1230 2.394 . S
C1212 C1210 1.500 . S
C1212 C1213 1.377 . S
C1212 C1217 1.377 . S
C1213 C1212 1.377 . S
C1213 C1214 1.395 1_455 S
C1213 H1236 0.931 . S
C1214 C1213 1.395 1_655 S
C1214 C1215 1.383 . S
C1214 H1237 0.931 . S
C1215 C1214 1.383 . S
C1215 C1216 1.394 1_655 S
C1216 C1215 1.394 1_455 S
C1216 C1217 1.378 . S
C1216 H1238 0.931 . S
C1217 C1212 1.377 . S
C1217 C1216 1.378 . S
C1217 H1239 0.931 . S
C1218 O1228 1.259 . S
C1218 O1229 1.270 . S
C1219 O1230 1.251 . S
C1219 O1231 1.251 . S
O1220 C1200 1.257 . S
O1220 Eu1201 2.473 . S
O1221 C1200 1.260 . S
O1221 Eu1201 2.480 . S
O1222 Eu1201 2.430 . S
O1222 C1208 1.259 . S
O1223 Eu1201 2.670 . S
O1223 C1208 1.270 . S
O1223 Eu1211 2.355 . S
O1224 Eu1201 2.394 . S
O1224 C1209 1.251 . S
O1225 C1209 1.251 . S
O1225 Eu1211 2.374 . S
O1226 C1210 1.257 . S
O1226 Eu1211 2.473 . S
O1227 C1210 1.260 . S
O1227 Eu1211 2.480 . S
O1228 Eu1211 2.430 . S
O1228 C1218 1.259 . S
O1229 Eu1201 2.355 . S
O1229 Eu1211 2.670 . S
O1229 C1218 1.270 . S
O1230 Eu1211 2.394 . S
O1230 C1219 1.251 . S
O1231 Eu1201 2.374 . S
O1231 C1219 1.251 . S
H1232 C1203 0.931 . S
H1233 C1204 0.931 . S
H1234 C1206 0.931 . S
H1235 C1207 0.931 . S
H1236 C1213 0.931 . S
H1237 C1214 0.931 . S
H1238 C1216 0.931 . S
H1239 C1217 0.931 . S
C1240 Eu1241 2.835 . S
C1240 C1242 1.500 . S
C1240 O1260 1.257 . S
C1240 O1261 1.260 . S
Eu1241 C1240 2.835 . S
Eu1241 O1260 2.473 . S
Eu1241 O1261 2.480 . S
Eu1241 O1262 2.430 . S
Eu1241 O1263 2.670 . S
Eu1241 O1264 2.394 . S
Eu1241 O1269 2.355 . S
Eu1241 O1271 2.374 . S
C1242 C1240 1.500 . S
C1242 C1243 1.377 . S
C1242 C1247 1.377 . S
C1243 C1242 1.377 . S
C1243 C1244 1.395 . S
C1243 H1272 0.931 . S
C1244 C1243 1.395 . S
C1244 C1245 1.383 . S
C1244 H1273 0.931 . S
C1245 C1244 1.383 . S
C1245 C1246 1.394 . S
C1246 C1245 1.394 . S
C1246 C1247 1.378 . S
C1246 H1274 0.931 . S
C1247 C1242 1.377 . S
C1247 C1246 1.378 . S
C1247 H1275 0.931 . S
C1248 O1262 1.259 . S
C1248 O1263 1.270 . S
C1249 O1264 1.251 . S
C1249 O1265 1.251 . S
C1250 Eu1251 2.835 . S
C1250 C1252 1.500 . S
C1250 O1266 1.257 . S
C1250 O1267 1.260 . S
Eu1251 C1250 2.835 . S
Eu1251 O1263 2.355 . S
Eu1251 O1265 2.374 . S
Eu1251 O1266 2.473 . S
Eu1251 O1267 2.480 . S
Eu1251 O1268 2.430 . S
Eu1251 O1269 2.670 . S
Eu1251 O1270 2.394 . S
C1252 C1250 1.500 . S
C1252 C1253 1.377 . S
C1252 C1257 1.377 . S
C1253 C1252 1.377 . S
C1253 C1254 1.395 . S
C1253 H1276 0.931 . S
C1254 C1253 1.395 . S
C1254 C1255 1.383 . S
C1254 H1277 0.931 . S
C1255 C1254 1.383 . S
C1255 C1256 1.394 . S
C1256 C1255 1.394 . S
C1256 C1257 1.378 . S
C1256 H1278 0.931 . S
C1257 C1252 1.377 . S
C1257 C1256 1.378 . S
C1257 H1279 0.931 . S
C1258 O1268 1.259 . S
C1258 O1269 1.270 . S
C1259 O1270 1.251 . S
C1259 O1271 1.251 . S
O1260 C1240 1.257 . S
O1260 Eu1241 2.473 . S
O1261 C1240 1.260 . S
O1261 Eu1241 2.480 . S
O1262 Eu1241 2.430 . S
O1262 C1248 1.259 . S
O1263 Eu1241 2.670 . S
O1263 C1248 1.270 . S
O1263 Eu1251 2.355 . S
O1264 Eu1241 2.394 . S
O1264 C1249 1.251 . S
O1265 C1249 1.251 . S
O1265 Eu1251 2.374 . S
O1266 C1250 1.257 . S
O1266 Eu1251 2.473 . S
O1267 C1250 1.260 . S
O1267 Eu1251 2.480 . S
O1268 Eu1251 2.430 . S
O1268 C1258 1.259 . S
O1269 Eu1241 2.355 . S
O1269 Eu1251 2.670 . S
O1269 C1258 1.270 . S
O1270 Eu1251 2.394 . S
O1270 C1259 1.251 . S
O1271 Eu1241 2.374 . S
O1271 C1259 1.251 . S
H1272 C1243 0.931 . S
H1273 C1244 0.931 . S
H1274 C1246 0.931 . S
H1275 C1247 0.931 . S
H1276 C1253 0.931 . S
H1277 C1254 0.931 . S
H1278 C1256 0.931 . S
H1279 C1257 0.931 . S
C1280 C1281 1.369 . S
C1280 C1282 1.419 . S
C1280 H1284 0.930 . S
C1281 C1280 1.369 . S
C1281 C1290 1.429 . S
C1282 C1280 1.419 . S
C1282 C1283 1.363 . S
C1282 H1285 0.929 . S
C1283 C1282 1.363 . S
C1283 C1289 1.428 . S
H1284 C1280 0.930 . S
H1285 C1282 0.929 . S
S1286 N1287 1.613 . S
S1286 N1288 1.610 . S
N1287 S1286 1.613 . S
N1287 C1290 1.350 . S
N1288 S1286 1.610 . S
N1288 C1289 1.351 . S
C1289 C1283 1.428 . S
C1289 N1288 1.351 . S
C1289 C1290 1.434 . S
C1290 C1281 1.429 . S
C1290 N1287 1.350 . S
C1290 C1289 1.434 . S
C1291 C1292 1.369 . S
C1291 C1293 1.419 . S
C1291 H1295 0.930 . S
C1292 C1291 1.369 . S
C1292 C1301 1.429 . S
C1293 C1291 1.419 . S
C1293 C1294 1.363 . S
C1293 H1296 0.929 . S
C1294 C1293 1.363 . S
C1294 C1300 1.428 . S
H1295 C1291 0.930 . S
H1296 C1293 0.929 . S
S1297 N1298 1.574 1_565 S
S1297 N1299 1.615 . S
N1298 S1297 1.574 1_545 S
N1298 C1301 1.350 . S
N1299 S1297 1.615 . S
N1299 C1300 1.351 1_565 S
C1300 C1294 1.428 . S
C1300 N1299 1.351 1_545 S
C1300 C1301 1.434 . S
C1301 C1292 1.429 . S
C1301 N1298 1.350 . S
C1301 C1300 1.434 . S
C1302 C1303 1.369 . S
C1302 C1304 1.419 . S
C1302 H1306 0.930 . S
C1303 C1302 1.369 . S
C1303 C1312 1.429 . S
C1304 C1302 1.419 . S
C1304 C1305 1.363 . S
C1304 H1307 0.929 . S
C1305 C1304 1.363 . S
C1305 C1311 1.428 . S
H1306 C1302 0.930 . S
H1307 C1304 0.929 . S
S1308 N1309 1.613 . S
S1308 N1310 1.610 . S
N1309 S1308 1.613 . S
N1309 C1312 1.350 . S
N1310 S1308 1.610 . S
N1310 C1311 1.351 . S
C1311 C1305 1.428 . S
C1311 N1310 1.351 . S
C1311 C1312 1.434 . S
C1312 C1303 1.429 . S
C1312 N1309 1.350 . S
C1312 C1311 1.434 . S
C1313 C1314 1.369 . S
C1313 C1315 1.419 . S
C1313 H1317 0.930 . S
C1314 C1313 1.369 . S
C1314 C1323 1.429 . S
C1315 C1313 1.419 . S
C1315 C1316 1.363 . S
C1315 H1318 0.929 . S
C1316 C1315 1.363 . S
C1316 C1322 1.428 . S
H1317 C1313 0.930 . S
H1318 C1315 0.929 . S
S1319 N1320 1.613 . S
S1319 N1321 1.610 . S
N1320 S1319 1.613 . S
N1320 C1323 1.350 . S
N1321 S1319 1.610 . S
N1321 C1322 1.351 . S
C1322 C1316 1.428 . S
C1322 N1321 1.351 . S
C1322 C1323 1.434 . S
C1323 C1314 1.429 . S
C1323 N1320 1.350 . S
C1323 C1322 1.434 . S
C1324 C1325 1.369 . S
C1324 C1326 1.419 . S
C1324 H1328 0.930 . S
C1325 C1324 1.369 . S
C1325 C1334 1.429 . S
C1326 C1324 1.419 . S
C1326 C1327 1.363 . S
C1326 H1329 0.929 . S
C1327 C1326 1.363 . S
C1327 C1333 1.428 . S
H1328 C1324 0.930 . S
H1329 C1326 0.929 . S
S1330 N1331 1.613 . S
S1330 N1332 1.610 . S
N1331 S1330 1.613 . S
N1331 C1334 1.350 . S
N1332 S1330 1.610 . S
N1332 C1333 1.351 . S
C1333 C1327 1.428 . S
C1333 N1332 1.351 . S
C1333 C1334 1.434 . S
C1334 C1325 1.429 . S
C1334 N1331 1.350 . S
C1334 C1333 1.434 . S
C1335 C1336 1.369 . S
C1335 C1337 1.419 . S
C1335 H1339 0.930 . S
C1336 C1335 1.369 . S
C1336 C1345 1.429 . S
C1337 C1335 1.419 . S
C1337 C1338 1.363 . S
C1337 H1340 0.929 . S
C1338 C1337 1.363 . S
C1338 C1344 1.428 . S
H1339 C1335 0.930 . S
H1340 C1337 0.929 . S
S1341 N1342 1.613 . S
S1341 N1343 1.610 . S
N1342 S1341 1.613 . S
N1342 C1345 1.350 . S
N1343 S1341 1.610 . S
N1343 C1344 1.351 . S
C1344 C1338 1.428 . S
C1344 N1343 1.351 . S
C1344 C1345 1.434 . S
C1345 C1336 1.429 . S
C1345 N1342 1.350 . S
C1345 C1344 1.434 . S
C1346 C1347 1.369 . S
C1346 C1348 1.419 . S
C1346 H1350 0.930 . S
C1347 C1346 1.369 . S
C1347 C1356 1.429 . S
C1348 C1346 1.419 . S
C1348 C1349 1.363 . S
C1348 H1351 0.929 . S
C1349 C1348 1.363 . S
C1349 C1355 1.428 . S
H1350 C1346 0.930 . S
H1351 C1348 0.929 . S
S1352 N1353 1.613 . S
S1352 N1354 1.610 . S
N1353 S1352 1.613 . S
N1353 C1356 1.350 . S
N1354 S1352 1.610 . S
N1354 C1355 1.351 . S
C1355 C1349 1.428 . S
C1355 N1354 1.351 . S
C1355 C1356 1.434 . S
C1356 C1347 1.429 . S
C1356 N1353 1.350 . S
C1356 C1355 1.434 . S
C1357 C1358 1.369 . S
C1357 C1359 1.419 . S
C1357 H1361 0.930 . S
C1358 C1357 1.369 . S
C1358 C1367 1.429 . S
C1359 C1357 1.419 . S
C1359 C1360 1.363 . S
C1359 H1362 0.929 . S
C1360 C1359 1.363 . S
C1360 C1366 1.428 . S
H1361 C1357 0.930 . S
H1362 C1359 0.929 . S
S1363 N1364 1.613 . S
S1363 N1365 1.610 . S
N1364 S1363 1.613 . S
N1364 C1367 1.350 . S
N1365 S1363 1.610 . S
N1365 C1366 1.351 . S
C1366 C1360 1.428 . S
C1366 N1365 1.351 . S
C1366 C1367 1.434 . S
C1367 C1358 1.429 . S
C1367 N1364 1.350 . S
C1367 C1366 1.434 . S
C1368 C1369 1.369 . S
C1368 C1370 1.419 . S
C1368 H1372 0.930 . S
C1369 C1368 1.369 . S
C1369 C1378 1.429 . S
C1370 C1368 1.419 . S
C1370 C1371 1.363 . S
C1370 H1373 0.929 . S
C1371 C1370 1.363 . S
C1371 C1377 1.428 . S
H1372 C1368 0.930 . S
H1373 C1370 0.929 . S
S1374 N1375 1.613 . S
S1374 N1376 1.610 . S
N1375 S1374 1.613 . S
N1375 C1378 1.350 . S
N1376 S1374 1.610 . S
N1376 C1377 1.351 . S
C1377 C1371 1.428 . S
C1377 N1376 1.351 . S
C1377 C1378 1.434 . S
C1378 C1369 1.429 . S
C1378 N1375 1.350 . S
C1378 C1377 1.434 . S
C1379 C1380 1.369 . S
C1379 C1381 1.419 . S
C1379 H1383 0.930 . S
C1380 C1379 1.369 . S
C1380 C1389 1.429 . S
C1381 C1379 1.419 . S
C1381 C1382 1.363 . S
C1381 H1384 0.929 . S
C1382 C1381 1.363 . S
C1382 C1388 1.428 . S
H1383 C1379 0.930 . S
H1384 C1381 0.929 . S
S1385 N1386 1.613 . S
S1385 N1387 1.610 . S
N1386 S1385 1.613 . S
N1386 C1389 1.350 . S
N1387 S1385 1.610 . S
N1387 C1388 1.351 . S
C1388 C1382 1.428 . S
C1388 N1387 1.351 . S
C1388 C1389 1.434 . S
C1389 C1380 1.429 . S
C1389 N1386 1.350 . S
C1389 C1388 1.434 . S
C1390 C1391 1.369 . S
C1390 C1392 1.419 . S
C1390 H1394 0.930 . S
C1391 C1390 1.369 . S
C1391 C1400 1.429 . S
C1392 C1390 1.419 . S
C1392 C1393 1.363 . S
C1392 H1395 0.929 . S
C1393 C1392 1.363 . S
C1393 C1399 1.428 . S
H1394 C1390 0.930 . S
H1395 C1392 0.929 . S
S1396 N1397 1.613 . S
S1396 N1398 1.610 . S
N1397 S1396 1.613 . S
N1397 C1400 1.350 . S
N1398 S1396 1.610 . S
N1398 C1399 1.351 . S
C1399 C1393 1.428 . S
C1399 N1398 1.351 . S
C1399 C1400 1.434 . S
C1400 C1391 1.429 . S
C1400 N1397 1.350 . S
C1400 C1399 1.434 . S
C1401 C1402 1.369 . S
C1401 C1403 1.419 . S
C1401 H1405 0.930 . S
C1402 C1401 1.369 . S
C1402 C1411 1.429 . S
C1403 C1401 1.419 . S
C1403 C1404 1.363 . S
C1403 H1406 0.929 . S
C1404 C1403 1.363 . S
C1404 C1410 1.428 . S
H1405 C1401 0.930 . S
H1406 C1403 0.929 . S
S1407 N1408 1.613 . S
S1407 N1409 1.610 . S
N1408 S1407 1.613 . S
N1408 C1411 1.350 . S
N1409 S1407 1.610 . S
N1409 C1410 1.351 . S
C1410 C1404 1.428 . S
C1410 N1409 1.351 . S
C1410 C1411 1.434 . S
C1411 C1402 1.429 . S
C1411 N1408 1.350 . S
C1411 C1410 1.434 . S
C1412 C1413 1.369 . S
C1412 C1414 1.419 . S
C1412 H1416 0.930 . S
C1413 C1412 1.369 . S
C1413 C1422 1.429 . S
C1414 C1412 1.419 . S
C1414 C1415 1.363 . S
C1414 H1417 0.929 . S
C1415 C1414 1.363 . S
C1415 C1421 1.428 . S
H1416 C1412 0.930 . S
H1417 C1414 0.929 . S
S1418 N1419 1.613 . S
S1418 N1420 1.610 . S
N1419 S1418 1.613 . S
N1419 C1422 1.350 . S
N1420 S1418 1.610 . S
N1420 C1421 1.351 . S
C1421 C1415 1.428 . S
C1421 N1420 1.351 . S
C1421 C1422 1.434 . S
C1422 C1413 1.429 . S
C1422 N1419 1.350 . S
C1422 C1421 1.434 . S
C1423 C1424 1.369 . S
C1423 C1425 1.419 . S
C1423 H1427 0.930 . S
C1424 C1423 1.369 . S
C1424 C1433 1.429 . S
C1425 C1423 1.419 . S
C1425 C1426 1.363 . S
C1425 H1428 0.929 . S
C1426 C1425 1.363 . S
C1426 C1432 1.428 . S
H1427 C1423 0.930 . S
H1428 C1425 0.929 . S
S1429 N1430 1.609 1_565 S
S1429 N1431 1.650 . S
N1430 S1429 1.609 1_545 S
N1430 C1433 1.350 1_545 S
N1431 S1429 1.650 . S
N1431 C1432 1.351 . S
C1432 C1426 1.428 . S
C1432 N1431 1.351 . S
C1432 C1433 1.434 . S
C1433 C1424 1.429 . S
C1433 N1430 1.350 1_565 S
C1433 C1432 1.434 . S
C1434 C1435 1.369 . S
C1434 C1436 1.419 . S
C1434 H1438 0.930 . S
C1435 C1434 1.369 . S
C1435 C1444 1.429 . S
C1436 C1434 1.419 . S
C1436 C1437 1.363 . S
C1436 H1439 0.929 . S
C1437 C1436 1.363 . S
C1437 C1443 1.428 . S
H1438 C1434 0.930 . S
H1439 C1436 0.929 . S
S1440 N1441 1.613 . S
S1440 N1442 1.610 . S
N1441 S1440 1.613 . S
N1441 C1444 1.350 . S
N1442 S1440 1.610 . S
N1442 C1443 1.351 . S
C1443 C1437 1.428 . S
C1443 N1442 1.351 . S
C1443 C1444 1.434 . S
C1444 C1435 1.429 . S
C1444 N1441 1.350 . S
C1444 C1443 1.434 . S
C1445 C1446 1.369 . S
C1445 C1447 1.419 . S
C1445 H1449 0.930 . S
C1446 C1445 1.369 . S
C1446 C1455 1.429 . S
C1447 C1445 1.419 . S
C1447 C1448 1.363 . S
C1447 H1450 0.929 . S
C1448 C1447 1.363 . S
C1448 C1454 1.428 . S
H1449 C1445 0.930 . S
H1450 C1447 0.929 . S
S1451 N1452 1.613 . S
S1451 N1453 1.610 1_545 S
N1452 S1451 1.613 . S
N1452 C1455 1.350 . S
N1453 S1451 1.610 1_565 S
N1453 C1454 1.350 1_565 S
C1454 C1448 1.428 . S
C1454 N1453 1.350 1_545 S
C1454 C1455 1.434 . S
C1455 C1446 1.429 . S
C1455 N1452 1.350 . S
C1455 C1454 1.434 . S
C1456 C1457 1.369 . S
C1456 C1458 1.419 . S
C1456 H1460 0.930 . S
C1457 C1456 1.369 . S
C1457 C1466 1.429 . S
C1458 C1456 1.419 . S
C1458 C1459 1.363 . S
C1458 H1461 0.929 . S
C1459 C1458 1.363 . S
C1459 C1465 1.428 . S
H1460 C1456 0.930 . S
H1461 C1458 0.929 . S
S1462 N1463 1.613 . S
S1462 N1464 1.610 . S
N1463 S1462 1.613 . S
N1463 C1466 1.350 . S
N1464 S1462 1.610 . S
N1464 C1465 1.351 . S
C1465 C1459 1.428 . S
C1465 N1464 1.351 . S
C1465 C1466 1.434 . S
C1466 C1457 1.429 . S
C1466 N1463 1.350 . S
C1466 C1465 1.434 . S
C1467 C1468 1.369 . S
C1467 C1469 1.419 . S
C1467 H1471 0.930 . S
C1468 C1467 1.369 . S
C1468 C1477 1.429 . S
C1469 C1467 1.419 . S
C1469 C1470 1.363 . S
C1469 H1472 0.929 . S
C1470 C1469 1.363 . S
C1470 C1476 1.428 . S
H1471 C1467 0.930 . S
H1472 C1469 0.929 . S
S1473 N1474 1.613 . S
S1473 N1475 1.610 . S
N1474 S1473 1.613 . S
N1474 C1477 1.350 . S
N1475 S1473 1.610 . S
N1475 C1476 1.351 . S
C1476 C1470 1.428 . S
C1476 N1475 1.351 . S
C1476 C1477 1.434 . S
C1477 C1468 1.429 . S
C1477 N1474 1.350 . S
C1477 C1476 1.434 . S
C1478 C1479 1.369 . S
C1478 C1480 1.419 . S
C1478 H1482 0.930 . S
C1479 C1478 1.369 . S
C1479 C1488 1.429 . S
C1480 C1478 1.419 . S
C1480 C1481 1.363 . S
C1480 H1483 0.929 . S
C1481 C1480 1.363 . S
C1481 C1487 1.428 . S
H1482 C1478 0.930 . S
H1483 C1480 0.929 . S
S1484 N1485 1.613 . S
S1484 N1486 1.610 . S
N1485 S1484 1.613 . S
N1485 C1488 1.350 . S
N1486 S1484 1.610 . S
N1486 C1487 1.351 . S
C1487 C1481 1.428 . S
C1487 N1486 1.351 . S
C1487 C1488 1.434 . S
C1488 C1479 1.429 . S
C1488 N1485 1.350 . S
C1488 C1487 1.434 . S
C1489 C1490 1.369 . S
C1489 C1491 1.419 . S
C1489 H1493 0.930 . S
C1490 C1489 1.369 . S
C1490 C1499 1.429 . S
C1491 C1489 1.419 . S
C1491 C1492 1.363 . S
C1491 H1494 0.929 . S
C1492 C1491 1.363 . S
C1492 C1498 1.428 . S
H1493 C1489 0.930 . S
H1494 C1491 0.929 . S
S1495 N1496 1.613 . S
S1495 N1497 1.610 . S
N1496 S1495 1.613 . S
N1496 C1499 1.350 . S
N1497 S1495 1.610 . S
N1497 C1498 1.351 . S
C1498 C1492 1.428 . S
C1498 N1497 1.351 . S
C1498 C1499 1.434 . S
C1499 C1490 1.429 . S
C1499 N1496 1.350 . S
C1499 C1498 1.434 . S
C1500 C1501 1.369 . S
C1500 C1502 1.419 . S
C1500 H1504 0.930 . S
C1501 C1500 1.369 . S
C1501 C1510 1.429 . S
C1502 C1500 1.419 . S
C1502 C1503 1.363 . S
C1502 H1505 0.929 . S
C1503 C1502 1.363 . S
C1503 C1509 1.428 . S
H1504 C1500 0.930 . S
H1505 C1502 0.929 . S
S1506 N1507 1.613 . S
S1506 N1508 1.610 . S
N1507 S1506 1.613 . S
N1507 C1510 1.350 . S
N1508 S1506 1.610 . S
N1508 C1509 1.351 . S
C1509 C1503 1.428 . S
C1509 N1508 1.351 . S
C1509 C1510 1.434 . S
C1510 C1501 1.429 . S
C1510 N1507 1.350 . S
C1510 C1509 1.434 . S
C1511 C1512 1.369 . S
C1511 C1513 1.419 . S
C1511 H1515 0.930 . S
C1512 C1511 1.369 . S
C1512 C1521 1.429 . S
C1513 C1511 1.419 . S
C1513 C1514 1.363 . S
C1513 H1516 0.929 . S
C1514 C1513 1.363 . S
C1514 C1520 1.428 . S
H1515 C1511 0.930 . S
H1516 C1513 0.929 . S
S1517 N1518 1.613 . S
S1517 N1519 1.610 . S
N1518 S1517 1.613 . S
N1518 C1521 1.350 . S
N1519 S1517 1.610 . S
N1519 C1520 1.351 . S
C1520 C1514 1.428 . S
C1520 N1519 1.351 . S
C1520 C1521 1.434 . S
C1521 C1512 1.429 . S
C1521 N1518 1.350 . S
C1521 C1520 1.434 . S
C1522 C1523 1.369 . S
C1522 C1524 1.419 . S
C1522 H1526 0.930 . S
C1523 C1522 1.369 . S
C1523 C1532 1.429 . S
C1524 C1522 1.419 . S
C1524 C1525 1.363 . S
C1524 H1527 0.929 . S
C1525 C1524 1.363 . S
C1525 C1531 1.428 . S
H1526 C1522 0.930 . S
H1527 C1524 0.929 . S
S1528 N1529 1.613 . S
S1528 N1530 1.610 . S
N1529 S1528 1.613 . S
N1529 C1532 1.350 . S
N1530 S1528 1.610 . S
N1530 C1531 1.351 . S
C1531 C1525 1.428 . S
C1531 N1530 1.351 . S
C1531 C1532 1.434 . S
C1532 C1523 1.429 . S
C1532 N1529 1.350 . S
C1532 C1531 1.434 . S
C1533 C1534 1.369 . S
C1533 C1535 1.419 . S
C1533 H1537 0.930 . S
C1534 C1533 1.369 . S
C1534 C1543 1.429 . S
C1535 C1533 1.419 . S
C1535 C1536 1.363 . S
C1535 H1538 0.929 . S
C1536 C1535 1.363 . S
C1536 C1542 1.428 . S
H1537 C1533 0.930 . S
H1538 C1535 0.929 . S
S1539 N1540 1.613 . S
S1539 N1541 1.610 . S
N1540 S1539 1.613 . S
N1540 C1543 1.350 . S
N1541 S1539 1.610 . S
N1541 C1542 1.351 . S
C1542 C1536 1.428 . S
C1542 N1541 1.351 . S
C1542 C1543 1.434 . S
C1543 C1534 1.429 . S
C1543 N1540 1.350 . S
C1543 C1542 1.434 . S
C1544 C1545 1.369 . S
C1544 C1546 1.419 . S
C1544 H1548 0.930 . S
C1545 C1544 1.369 . S
C1545 C1554 1.429 . S
C1546 C1544 1.419 . S
C1546 C1547 1.363 . S
C1546 H1549 0.929 . S
C1547 C1546 1.363 . S
C1547 C1553 1.428 . S
H1548 C1544 0.930 . S
H1549 C1546 0.929 . S
S1550 N1551 1.613 . S
S1550 N1552 1.610 . S
N1551 S1550 1.613 . S
N1551 C1554 1.350 . S
N1552 S1550 1.610 . S
N1552 C1553 1.351 . S
C1553 C1547 1.428 . S
C1553 N1552 1.351 . S
C1553 C1554 1.434 . S
C1554 C1545 1.429 . S
C1554 N1551 1.350 . S
C1554 C1553 1.434 . S
C1555 C1556 1.369 . S
C1555 C1557 1.419 . S
C1555 H1559 0.930 . S
C1556 C1555 1.369 . S
C1556 C1565 1.429 . S
C1557 C1555 1.419 . S
C1557 C1558 1.363 . S
C1557 H1560 0.929 . S
C1558 C1557 1.363 . S
C1558 C1564 1.428 . S
H1559 C1555 0.930 . S
H1560 C1557 0.929 . S
S1561 N1562 1.613 . S
S1561 N1563 1.610 . S
N1562 S1561 1.613 . S
N1562 C1565 1.350 . S
N1563 S1561 1.610 . S
N1563 C1564 1.351 . S
C1564 C1558 1.428 . S
C1564 N1563 1.351 . S
C1564 C1565 1.434 . S
C1565 C1556 1.429 . S
C1565 N1562 1.350 . S
C1565 C1564 1.434 . S
C1566 C1567 1.369 . S
C1566 C1568 1.419 . S
C1566 H1570 0.930 . S
C1567 C1566 1.369 . S
C1567 C1576 1.429 . S
C1568 C1566 1.419 . S
C1568 C1569 1.363 . S
C1568 H1571 0.929 . S
C1569 C1568 1.363 . S
C1569 C1575 1.428 . S
H1570 C1566 0.930 . S
H1571 C1568 0.929 . S
S1572 N1573 1.613 . S
S1572 N1574 1.610 . S
N1573 S1572 1.613 . S
N1573 C1576 1.350 . S
N1574 S1572 1.610 . S
N1574 C1575 1.351 . S
C1575 C1569 1.428 . S
C1575 N1574 1.351 . S
C1575 C1576 1.434 . S
C1576 C1567 1.429 . S
C1576 N1573 1.350 . S
C1576 C1575 1.434 . S
C1577 C1578 1.369 . S
C1577 C1579 1.419 . S
C1577 H1581 0.930 . S
C1578 C1577 1.369 . S
C1578 C1587 1.429 . S
C1579 C1577 1.419 . S
C1579 C1580 1.363 . S
C1579 H1582 0.929 . S
C1580 C1579 1.363 . S
C1580 C1586 1.428 . S
H1581 C1577 0.930 . S
H1582 C1579 0.929 . S
S1583 N1584 1.613 . S
S1583 N1585 1.610 . S
N1584 S1583 1.613 . S
N1584 C1587 1.350 . S
N1585 S1583 1.610 . S
N1585 C1586 1.351 . S
C1586 C1580 1.428 . S
C1586 N1585 1.351 . S
C1586 C1587 1.434 . S
C1587 C1578 1.429 . S
C1587 N1584 1.350 . S
C1587 C1586 1.434 . S
C1588 C1589 1.369 . S
C1588 C1590 1.419 . S
C1588 H1592 0.930 . S
C1589 C1588 1.369 . S
C1589 C1598 1.429 . S
C1590 C1588 1.419 . S
C1590 C1591 1.363 . S
C1590 H1593 0.929 . S
C1591 C1590 1.363 . S
C1591 C1597 1.428 . S
H1592 C1588 0.930 . S
H1593 C1590 0.929 . S
S1594 N1595 1.613 . S
S1594 N1596 1.610 . S
N1595 S1594 1.613 . S
N1595 C1598 1.350 . S
N1596 S1594 1.610 . S
N1596 C1597 1.351 . S
C1597 C1591 1.428 . S
C1597 N1596 1.351 . S
C1597 C1598 1.434 . S
C1598 C1589 1.429 . S
C1598 N1595 1.350 . S
C1598 C1597 1.434 . S
C1599 C1600 1.369 . S
C1599 C1601 1.419 . S
C1599 H1603 0.930 . S
C1600 C1599 1.369 . S
C1600 C1609 1.429 . S
C1601 C1599 1.419 . S
C1601 C1602 1.363 . S
C1601 H1604 0.929 . S
C1602 C1601 1.363 . S
C1602 C1608 1.428 . S
H1603 C1599 0.930 . S
H1604 C1601 0.929 . S
S1605 N1606 1.613 . S
S1605 N1607 1.610 . S
N1606 S1605 1.613 . S
N1606 C1609 1.350 . S
N1607 S1605 1.610 . S
N1607 C1608 1.351 . S
C1608 C1602 1.428 . S
C1608 N1607 1.351 . S
C1608 C1609 1.434 . S
C1609 C1600 1.429 . S
C1609 N1606 1.350 . S
C1609 C1608 1.434 . S
C1610 C1611 1.369 . S
C1610 C1612 1.419 . S
C1610 H1614 0.930 . S
C1611 C1610 1.369 . S
C1611 C1620 1.429 . S
C1612 C1610 1.419 . S
C1612 C1613 1.363 . S
C1612 H1615 0.929 . S
C1613 C1612 1.363 . S
C1613 C1619 1.428 . S
H1614 C1610 0.930 . S
H1615 C1612 0.929 . S
S1616 N1617 1.613 . S
S1616 N1618 1.610 . S
N1617 S1616 1.613 . S
N1617 C1620 1.350 . S
N1618 S1616 1.610 . S
N1618 C1619 1.351 . S
C1619 C1613 1.428 . S
C1619 N1618 1.351 . S
C1619 C1620 1.434 . S
C1620 C1611 1.429 . S
C1620 N1617 1.350 . S
C1620 C1619 1.434 . S
C1621 C1622 1.369 . S
C1621 C1623 1.419 . S
C1621 H1625 0.930 . S
C1622 C1621 1.369 . S
C1622 C1631 1.429 . S
C1623 C1621 1.419 . S
C1623 C1624 1.363 . S
C1623 H1626 0.929 . S
C1624 C1623 1.363 . S
C1624 C1630 1.428 . S
H1625 C1621 0.930 . S
H1626 C1623 0.929 . S
S1627 N1628 1.613 . S
S1627 N1629 1.610 . S
N1628 S1627 1.613 . S
N1628 C1631 1.350 . S
N1629 S1627 1.610 . S
N1629 C1630 1.351 . S
C1630 C1624 1.428 . S
C1630 N1629 1.351 . S
C1630 C1631 1.434 . S
C1631 C1622 1.429 . S
C1631 N1628 1.350 . S
C1631 C1630 1.434 . S
C1632 C1633 1.369 . S
C1632 C1634 1.419 . S
C1632 H1636 0.930 . S
C1633 C1632 1.369 . S
C1633 C1642 1.429 . S
C1634 C1632 1.419 . S
C1634 C1635 1.363 . S
C1634 H1637 0.929 . S
C1635 C1634 1.363 . S
C1635 C1641 1.428 . S
H1636 C1632 0.930 . S
H1637 C1634 0.929 . S
S1638 N1639 1.613 . S
S1638 N1640 1.610 . S
N1639 S1638 1.613 . S
N1639 C1642 1.350 . S
N1640 S1638 1.610 . S
N1640 C1641 1.351 . S
C1641 C1635 1.428 . S
C1641 N1640 1.351 . S
C1641 C1642 1.434 . S
C1642 C1633 1.429 . S
C1642 N1639 1.350 . S
C1642 C1641 1.434 . S
C1643 C1644 1.369 . S
C1643 C1645 1.419 . S
C1643 H1647 0.930 . S
C1644 C1643 1.369 . S
C1644 C1653 1.429 . S
C1645 C1643 1.419 . S
C1645 C1646 1.363 . S
C1645 H1648 0.929 . S
C1646 C1645 1.363 . S
C1646 C1652 1.428 . S
H1647 C1643 0.930 . S
H1648 C1645 0.929 . S
S1649 N1650 1.613 . S
S1649 N1651 1.610 . S
N1650 S1649 1.613 . S
N1650 C1653 1.350 . S
N1651 S1649 1.610 . S
N1651 C1652 1.351 . S
C1652 C1646 1.428 . S
C1652 N1651 1.351 . S
C1652 C1653 1.434 . S
C1653 C1644 1.429 . S
C1653 N1650 1.350 . S
C1653 C1652 1.434 . S
C1654 C1655 1.369 . S
C1654 C1656 1.419 . S
C1654 H1658 0.930 . S
C1655 C1654 1.369 . S
C1655 C1664 1.429 . S
C1656 C1654 1.419 . S
C1656 C1657 1.363 . S
C1656 H1659 0.929 . S
C1657 C1656 1.363 . S
C1657 C1663 1.428 . S
H1658 C1654 0.930 . S
H1659 C1656 0.929 . S
S1660 N1661 1.613 . S
S1660 N1662 1.610 . S
N1661 S1660 1.613 . S
N1661 C1664 1.350 . S
N1662 S1660 1.610 . S
N1662 C1663 1.351 . S
C1663 C1657 1.428 . S
C1663 N1662 1.351 . S
C1663 C1664 1.434 . S
C1664 C1655 1.429 . S
C1664 N1661 1.350 . S
C1664 C1663 1.434 . S
C1665 C1666 1.369 . S
C1665 C1667 1.419 . S
C1665 H1669 0.930 . S
C1666 C1665 1.369 . S
C1666 C1675 1.429 . S
C1667 C1665 1.419 . S
C1667 C1668 1.363 . S
C1667 H1670 0.929 . S
C1668 C1667 1.363 . S
C1668 C1674 1.428 . S
H1669 C1665 0.930 . S
H1670 C1667 0.929 . S
S1671 N1672 1.613 . S
S1671 N1673 1.610 . S
N1672 S1671 1.613 . S
N1672 C1675 1.350 . S
N1673 S1671 1.610 . S
N1673 C1674 1.351 . S
C1674 C1668 1.428 . S
C1674 N1673 1.351 . S
C1674 C1675 1.434 . S
C1675 C1666 1.429 . S
C1675 N1672 1.350 . S
C1675 C1674 1.434 . S
C1676 C1677 1.369 . S
C1676 C1678 1.419 . S
C1676 H1680 0.930 . S
C1677 C1676 1.369 . S
C1677 C1686 1.429 . S
C1678 C1676 1.419 . S
C1678 C1679 1.363 . S
C1678 H1681 0.929 . S
C1679 C1678 1.363 . S
C1679 C1685 1.428 . S
H1680 C1676 0.930 . S
H1681 C1678 0.929 . S
S1682 N1683 1.613 . S
S1682 N1684 1.610 . S
N1683 S1682 1.613 . S
N1683 C1686 1.350 . S
N1684 S1682 1.610 . S
N1684 C1685 1.351 . S
C1685 C1679 1.428 . S
C1685 N1684 1.351 . S
C1685 C1686 1.434 . S
C1686 C1677 1.429 . S
C1686 N1683 1.350 . S
C1686 C1685 1.434 . S
C1687 C1688 1.369 . S
C1687 C1689 1.419 . S
C1687 H1691 0.930 . S
C1688 C1687 1.369 . S
C1688 C1697 1.429 . S
C1689 C1687 1.419 . S
C1689 C1690 1.363 . S
C1689 H1692 0.929 . S
C1690 C1689 1.363 . S
C1690 C1696 1.428 . S
H1691 C1687 0.930 . S
H1692 C1689 0.929 . S
S1693 N1694 1.613 . S
S1693 N1695 1.610 . S
N1694 S1693 1.613 . S
N1694 C1697 1.350 . S
N1695 S1693 1.610 . S
N1695 C1696 1.351 . S
C1696 C1690 1.428 . S
C1696 N1695 1.351 . S
C1696 C1697 1.434 . S
C1697 C1688 1.429 . S
C1697 N1694 1.350 . S
C1697 C1696 1.434 . S
C1698 C1699 1.369 . S
C1698 C1700 1.419 . S
C1698 H1702 0.930 . S
C1699 C1698 1.369 . S
C1699 C1708 1.429 . S
C1700 C1698 1.419 . S
C1700 C1701 1.363 . S
C1700 H1703 0.929 . S
C1701 C1700 1.363 . S
C1701 C1707 1.428 . S
H1702 C1698 0.930 . S
H1703 C1700 0.929 . S
S1704 N1705 1.613 . S
S1704 N1706 1.610 . S
N1705 S1704 1.613 . S
N1705 C1708 1.350 . S
N1706 S1704 1.610 . S
N1706 C1707 1.351 . S
C1707 C1701 1.428 . S
C1707 N1706 1.351 . S
C1707 C1708 1.434 . S
C1708 C1699 1.429 . S
C1708 N1705 1.350 . S
C1708 C1707 1.434 . S
C1709 C1710 1.369 . S
C1709 C1711 1.419 . S
C1709 H1713 0.930 . S
C1710 C1709 1.369 . S
C1710 C1719 1.429 . S
C1711 C1709 1.419 . S
C1711 C1712 1.363 . S
C1711 H1714 0.929 . S
C1712 C1711 1.363 . S
C1712 C1718 1.428 . S
H1713 C1709 0.930 . S
H1714 C1711 0.929 . S
S1715 N1716 1.613 . S
S1715 N1717 1.610 . S
N1716 S1715 1.613 . S
N1716 C1719 1.350 . S
N1717 S1715 1.610 . S
N1717 C1718 1.351 . S
C1718 C1712 1.428 . S
C1718 N1717 1.351 . S
C1718 C1719 1.434 . S
C1719 C1710 1.429 . S
C1719 N1716 1.350 . S
C1719 C1718 1.434 . S
C1720 C1721 1.369 . S
C1720 C1722 1.419 . S
C1720 H1724 0.930 . S
C1721 C1720 1.369 . S
C1721 C1730 1.429 . S
C1722 C1720 1.419 . S
C1722 C1723 1.363 . S
C1722 H1725 0.929 . S
C1723 C1722 1.363 . S
C1723 C1729 1.428 . S
H1724 C1720 0.930 . S
H1725 C1722 0.929 . S
S1726 N1727 1.613 . S
S1726 N1728 1.610 . S
N1727 S1726 1.613 . S
N1727 C1730 1.350 . S
N1728 S1726 1.610 . S
N1728 C1729 1.351 . S
C1729 C1723 1.428 . S
C1729 N1728 1.351 . S
C1729 C1730 1.434 . S
C1730 C1721 1.429 . S
C1730 N1727 1.350 . S
C1730 C1729 1.434 . S
C1731 C1732 1.369 . S
C1731 C1733 1.419 . S
C1731 H1735 0.930 . S
C1732 C1731 1.369 . S
C1732 C1741 1.429 . S
C1733 C1731 1.419 . S
C1733 C1734 1.363 . S
C1733 H1736 0.929 . S
C1734 C1733 1.363 . S
C1734 C1740 1.428 . S
H1735 C1731 0.930 . S
H1736 C1733 0.929 . S
S1737 N1738 1.613 . S
S1737 N1739 1.610 . S
N1738 S1737 1.613 . S
N1738 C1741 1.350 . S
N1739 S1737 1.610 . S
N1739 C1740 1.351 . S
C1740 C1734 1.428 . S
C1740 N1739 1.351 . S
C1740 C1741 1.434 . S
C1741 C1732 1.429 . S
C1741 N1738 1.350 . S
C1741 C1740 1.434 . S
C1742 C1743 1.369 . S
C1742 C1744 1.419 . S
C1742 H1746 0.930 . S
C1743 C1742 1.369 . S
C1743 C1752 1.429 . S
C1744 C1742 1.419 . S
C1744 C1745 1.363 . S
C1744 H1747 0.929 . S
C1745 C1744 1.363 . S
C1745 C1751 1.428 . S
H1746 C1742 0.930 . S
H1747 C1744 0.929 . S
S1748 N1749 1.613 . S
S1748 N1750 1.610 . S
N1749 S1748 1.613 . S
N1749 C1752 1.350 . S
N1750 S1748 1.610 . S
N1750 C1751 1.351 . S
C1751 C1745 1.428 . S
C1751 N1750 1.351 . S
C1751 C1752 1.434 . S
C1752 C1743 1.429 . S
C1752 N1749 1.350 . S
C1752 C1751 1.434 . S
C1753 C1754 1.369 . S
C1753 C1755 1.419 . S
C1753 H1757 0.930 . S
C1754 C1753 1.369 . S
C1754 C1763 1.429 . S
C1755 C1753 1.419 . S
C1755 C1756 1.363 . S
C1755 H1758 0.929 . S
C1756 C1755 1.363 . S
C1756 C1762 1.428 . S
H1757 C1753 0.930 . S
H1758 C1755 0.929 . S
S1759 N1760 1.613 . S
S1759 N1761 1.610 . S
N1760 S1759 1.613 . S
N1760 C1763 1.350 . S
N1761 S1759 1.610 . S
N1761 C1762 1.351 . S
C1762 C1756 1.428 . S
C1762 N1761 1.351 . S
C1762 C1763 1.434 . S
C1763 C1754 1.429 . S
C1763 N1760 1.350 . S
C1763 C1762 1.434 . S
C1764 C1765 1.369 . S
C1764 C1766 1.419 . S
C1764 H1768 0.930 . S
C1765 C1764 1.369 . S
C1765 C1774 1.429 . S
C1766 C1764 1.419 . S
C1766 C1767 1.363 . S
C1766 H1769 0.929 . S
C1767 C1766 1.363 . S
C1767 C1773 1.428 . S
H1768 C1764 0.930 . S
H1769 C1766 0.929 . S
S1770 N1771 1.613 . S
S1770 N1772 1.610 . S
N1771 S1770 1.613 . S
N1771 C1774 1.350 . S
N1772 S1770 1.610 . S
N1772 C1773 1.351 . S
C1773 C1767 1.428 . S
C1773 N1772 1.351 . S
C1773 C1774 1.434 . S
C1774 C1765 1.429 . S
C1774 N1771 1.350 . S
C1774 C1773 1.434 . S
C1775 C1776 1.369 . S
C1775 C1777 1.419 . S
C1775 H1779 0.930 . S
C1776 C1775 1.369 . S
C1776 C1785 1.429 . S
C1777 C1775 1.419 . S
C1777 C1778 1.363 . S
C1777 H1780 0.929 . S
C1778 C1777 1.363 . S
C1778 C1784 1.428 . S
H1779 C1775 0.930 . S
H1780 C1777 0.929 . S
S1781 N1782 1.613 . S
S1781 N1783 1.610 . S
N1782 S1781 1.613 . S
N1782 C1785 1.350 . S
N1783 S1781 1.610 . S
N1783 C1784 1.351 . S
C1784 C1778 1.428 . S
C1784 N1783 1.351 . S
C1784 C1785 1.434 . S
C1785 C1776 1.429 . S
C1785 N1782 1.350 . S
C1785 C1784 1.434 . S
C1786 C1787 1.369 . S
C1786 C1788 1.419 . S
C1786 H1790 0.930 . S
C1787 C1786 1.369 . S
C1787 C1796 1.429 . S
C1788 C1786 1.419 . S
C1788 C1789 1.363 . S
C1788 H1791 0.929 . S
C1789 C1788 1.363 . S
C1789 C1795 1.428 . S
H1790 C1786 0.930 . S
H1791 C1788 0.929 . S
S1792 N1793 1.613 . S
S1792 N1794 1.610 . S
N1793 S1792 1.613 . S
N1793 C1796 1.350 . S
N1794 S1792 1.610 . S
N1794 C1795 1.351 . S
C1795 C1789 1.428 . S
C1795 N1794 1.351 . S
C1795 C1796 1.434 . S
C1796 C1787 1.429 . S
C1796 N1793 1.350 . S
C1796 C1795 1.434 . S
C1797 C1798 1.369 . S
C1797 C1799 1.419 . S
C1797 H1801 0.930 . S
C1798 C1797 1.369 . S
C1798 C1807 1.429 . S
C1799 C1797 1.419 . S
C1799 C1800 1.363 . S
C1799 H1802 0.929 . S
C1800 C1799 1.363 . S
C1800 C1806 1.428 . S
H1801 C1797 0.930 . S
H1802 C1799 0.929 . S
S1803 N1804 1.613 . S
S1803 N1805 1.610 . S
N1804 S1803 1.613 . S
N1804 C1807 1.350 . S
N1805 S1803 1.610 . S
N1805 C1806 1.351 . S
C1806 C1800 1.428 . S
C1806 N1805 1.351 . S
C1806 C1807 1.434 . S
C1807 C1798 1.429 . S
C1807 N1804 1.350 . S
C1807 C1806 1.434 . S
C1808 C1809 1.369 . S
C1808 C1810 1.419 . S
C1808 H1812 0.930 . S
C1809 C1808 1.369 . S
C1809 C1818 1.429 . S
C1810 C1808 1.419 . S
C1810 C1811 1.363 . S
C1810 H1813 0.929 . S
C1811 C1810 1.363 . S
C1811 C1817 1.428 . S
H1812 C1808 0.930 . S
H1813 C1810 0.929 . S
S1814 N1815 1.613 . S
S1814 N1816 1.610 . S
N1815 S1814 1.613 . S
N1815 C1818 1.350 . S
N1816 S1814 1.610 . S
N1816 C1817 1.351 . S
C1817 C1811 1.428 . S
C1817 N1816 1.351 . S
C1817 C1818 1.434 . S
C1818 C1809 1.429 . S
C1818 N1815 1.350 . S
C1818 C1817 1.434 . S
C1819 C1820 1.369 . S
C1819 C1821 1.419 . S
C1819 H1823 0.930 . S
C1820 C1819 1.369 . S
C1820 C1829 1.429 . S
C1821 C1819 1.419 . S
C1821 C1822 1.363 . S
C1821 H1824 0.929 . S
C1822 C1821 1.363 . S
C1822 C1828 1.428 . S
H1823 C1819 0.930 . S
H1824 C1821 0.929 . S
S1825 N1826 1.613 . S
S1825 N1827 1.610 . S
N1826 S1825 1.613 . S
N1826 C1829 1.350 . S
N1827 S1825 1.610 . S
N1827 C1828 1.351 . S
C1828 C1822 1.428 . S
C1828 N1827 1.351 . S
C1828 C1829 1.434 . S
C1829 C1820 1.429 . S
C1829 N1826 1.350 . S
C1829 C1828 1.434 . S
C1830 C1831 1.369 . S
C1830 C1832 1.419 . S
C1830 H1834 0.930 . S
C1831 C1830 1.369 . S
C1831 C1840 1.429 . S
C1832 C1830 1.419 . S
C1832 C1833 1.363 . S
C1832 H1835 0.929 . S
C1833 C1832 1.363 . S
C1833 C1839 1.428 . S
H1834 C1830 0.930 . S
H1835 C1832 0.929 . S
S1836 N1837 1.613 . S
S1836 N1838 1.610 . S
N1837 S1836 1.613 . S
N1837 C1840 1.350 . S
N1838 S1836 1.610 . S
N1838 C1839 1.351 . S
C1839 C1833 1.428 . S
C1839 N1838 1.351 . S
C1839 C1840 1.434 . S
C1840 C1831 1.429 . S
C1840 N1837 1.350 . S
C1840 C1839 1.434 . S
C1841 C1842 1.369 . S
C1841 C1843 1.419 . S
C1841 H1845 0.930 . S
C1842 C1841 1.369 . S
C1842 C1851 1.429 . S
C1843 C1841 1.419 . S
C1843 C1844 1.363 . S
C1843 H1846 0.929 . S
C1844 C1843 1.363 . S
C1844 C1850 1.428 . S
H1845 C1841 0.930 . S
H1846 C1843 0.929 . S
S1847 N1848 1.613 . S
S1847 N1849 1.610 . S
N1848 S1847 1.613 . S
N1848 C1851 1.350 . S
N1849 S1847 1.610 . S
N1849 C1850 1.351 . S
C1850 C1844 1.428 . S
C1850 N1849 1.351 . S
C1850 C1851 1.434 . S
C1851 C1842 1.429 . S
C1851 N1848 1.350 . S
C1851 C1850 1.434 . S
C1852 C1853 1.369 . S
C1852 C1854 1.419 . S
C1852 H1856 0.930 . S
C1853 C1852 1.369 . S
C1853 C1862 1.429 . S
C1854 C1852 1.419 . S
C1854 C1855 1.363 . S
C1854 H1857 0.929 . S
C1855 C1854 1.363 . S
C1855 C1861 1.428 . S
H1856 C1852 0.930 . S
H1857 C1854 0.929 . S
S1858 N1859 1.613 . S
S1858 N1860 1.610 . S
N1859 S1858 1.613 . S
N1859 C1862 1.350 . S
N1860 S1858 1.610 . S
N1860 C1861 1.351 . S
C1861 C1855 1.428 . S
C1861 N1860 1.351 . S
C1861 C1862 1.434 . S
C1862 C1853 1.429 . S
C1862 N1859 1.350 . S
C1862 C1861 1.434 . S
C1863 C1864 1.369 . S
C1863 C1865 1.419 . S
C1863 H1867 0.930 . S
C1864 C1863 1.369 . S
C1864 C1873 1.429 . S
C1865 C1863 1.419 . S
C1865 C1866 1.363 . S
C1865 H1868 0.929 . S
C1866 C1865 1.363 . S
C1866 C1872 1.428 . S
H1867 C1863 0.930 . S
H1868 C1865 0.929 . S
S1869 N1870 1.613 . S
S1869 N1871 1.610 . S
N1870 S1869 1.613 . S
N1870 C1873 1.350 . S
N1871 S1869 1.610 . S
N1871 C1872 1.351 . S
C1872 C1866 1.428 . S
C1872 N1871 1.351 . S
C1872 C1873 1.434 . S
C1873 C1864 1.429 . S
C1873 N1870 1.350 . S
C1873 C1872 1.434 . S
C1874 C1875 1.369 . S
C1874 C1876 1.419 . S
C1874 H1878 0.930 . S
C1875 C1874 1.369 . S
C1875 C1884 1.429 . S
C1876 C1874 1.419 . S
C1876 C1877 1.363 . S
C1876 H1879 0.929 . S
C1877 C1876 1.363 . S
C1877 C1883 1.428 . S
H1878 C1874 0.930 . S
H1879 C1876 0.929 . S
S1880 N1881 1.613 . S
S1880 N1882 1.610 . S
N1881 S1880 1.613 . S
N1881 C1884 1.350 . S
N1882 S1880 1.610 . S
N1882 C1883 1.351 . S
C1883 C1877 1.428 . S
C1883 N1882 1.351 . S
C1883 C1884 1.434 . S
C1884 C1875 1.429 . S
C1884 N1881 1.350 . S
C1884 C1883 1.434 . S
C1885 C1886 1.369 . S
C1885 C1887 1.419 . S
C1885 H1889 0.930 . S
C1886 C1885 1.369 . S
C1886 C1895 1.429 . S
C1887 C1885 1.419 . S
C1887 C1888 1.363 . S
C1887 H1890 0.929 . S
C1888 C1887 1.363 . S
C1888 C1894 1.428 . S
H1889 C1885 0.930 . S
H1890 C1887 0.929 . S
S1891 N1892 1.613 . S
S1891 N1893 1.610 . S
N1892 S1891 1.613 . S
N1892 C1895 1.350 . S
N1893 S1891 1.610 . S
N1893 C1894 1.351 . S
C1894 C1888 1.428 . S
C1894 N1893 1.351 . S
C1894 C1895 1.434 . S
C1895 C1886 1.429 . S
C1895 N1892 1.350 . S
C1895 C1894 1.434 . S
C1896 C1897 1.369 . S
C1896 C1898 1.419 . S
C1896 H1900 0.930 . S
C1897 C1896 1.369 . S
C1897 C1906 1.429 . S
C1898 C1896 1.419 . S
C1898 C1899 1.363 . S
C1898 H1901 0.929 . S
C1899 C1898 1.363 . S
C1899 C1905 1.428 . S
H1900 C1896 0.930 . S
H1901 C1898 0.929 . S
S1902 N1903 1.613 . S
S1902 N1904 1.610 . S
N1903 S1902 1.613 . S
N1903 C1906 1.350 . S
N1904 S1902 1.610 . S
N1904 C1905 1.351 . S
C1905 C1899 1.428 . S
C1905 N1904 1.351 . S
C1905 C1906 1.434 . S
C1906 C1897 1.429 . S
C1906 N1903 1.350 . S
C1906 C1905 1.434 . S
C1907 C1908 1.369 . S
C1907 C1909 1.419 . S
C1907 H1911 0.930 . S
C1908 C1907 1.369 . S
C1908 C1917 1.429 . S
C1909 C1907 1.419 . S
C1909 C1910 1.363 . S
C1909 H1912 0.929 . S
C1910 C1909 1.363 . S
C1910 C1916 1.428 . S
H1911 C1907 0.930 . S
H1912 C1909 0.929 . S
S1913 N1914 1.613 . S
S1913 N1915 1.610 . S
N1914 S1913 1.613 . S
N1914 C1917 1.350 . S
N1915 S1913 1.610 . S
N1915 C1916 1.351 . S
C1916 C1910 1.428 . S
C1916 N1915 1.351 . S
C1916 C1917 1.434 . S
C1917 C1908 1.429 . S
C1917 N1914 1.350 . S
C1917 C1916 1.434 . S
C1918 C1919 1.369 . S
C1918 C1920 1.419 . S
C1918 H1922 0.930 . S
C1919 C1918 1.369 . S
C1919 C1928 1.429 . S
C1920 C1918 1.419 . S
C1920 C1921 1.363 . S
C1920 H1923 0.929 . S
C1921 C1920 1.363 . S
C1921 C1927 1.428 . S
H1922 C1918 0.930 . S
H1923 C1920 0.929 . S
S1924 N1925 1.613 . S
S1924 N1926 1.610 . S
N1925 S1924 1.613 . S
N1925 C1928 1.350 . S
N1926 S1924 1.610 . S
N1926 C1927 1.351 . S
C1927 C1921 1.428 . S
C1927 N1926 1.351 . S
C1927 C1928 1.434 . S
C1928 C1919 1.429 . S
C1928 N1925 1.350 . S
C1928 C1927 1.434 . S
C1929 C1930 1.369 . S
C1929 C1931 1.419 . S
C1929 H1933 0.930 . S
C1930 C1929 1.369 . S
C1930 C1939 1.429 . S
C1931 C1929 1.419 . S
C1931 C1932 1.363 . S
C1931 H1934 0.929 . S
C1932 C1931 1.363 . S
C1932 C1938 1.428 . S
H1933 C1929 0.930 . S
H1934 C1931 0.929 . S
S1935 N1936 1.613 . S
S1935 N1937 1.610 . S
N1936 S1935 1.613 . S
N1936 C1939 1.350 . S
N1937 S1935 1.610 . S
N1937 C1938 1.351 . S
C1938 C1932 1.428 . S
C1938 N1937 1.351 . S
C1938 C1939 1.434 . S
C1939 C1930 1.429 . S
C1939 N1936 1.350 . S
C1939 C1938 1.434 . S
C1940 C1941 1.369 . S
C1940 C1942 1.419 . S
C1940 H1944 0.930 . S
C1941 C1940 1.369 . S
C1941 C1950 1.429 . S
C1942 C1940 1.419 . S
C1942 C1943 1.363 . S
C1942 H1945 0.929 . S
C1943 C1942 1.363 . S
C1943 C1949 1.428 . S
H1944 C1940 0.930 . S
H1945 C1942 0.929 . S
S1946 N1947 1.613 . S
S1946 N1948 1.610 . S
N1947 S1946 1.613 . S
N1947 C1950 1.350 . S
N1948 S1946 1.610 . S
N1948 C1949 1.351 . S
C1949 C1943 1.428 . S
C1949 N1948 1.351 . S
C1949 C1950 1.434 . S
C1950 C1941 1.429 . S
C1950 N1947 1.350 . S
C1950 C1949 1.434 . S
C1951 C1952 1.369 . S
C1951 C1953 1.419 . S
C1951 H1955 0.930 . S
C1952 C1951 1.369 . S
C1952 C1961 1.429 . S
C1953 C1951 1.419 . S
C1953 C1954 1.363 . S
C1953 H1956 0.929 . S
C1954 C1953 1.363 . S
C1954 C1960 1.428 . S
H1955 C1951 0.930 . S
H1956 C1953 0.929 . S
S1957 N1958 1.613 . S
S1957 N1959 1.610 . S
N1958 S1957 1.613 . S
N1958 C1961 1.350 . S
N1959 S1957 1.610 . S
N1959 C1960 1.351 . S
C1960 C1954 1.428 . S
C1960 N1959 1.351 . S
C1960 C1961 1.434 . S
C1961 C1952 1.429 . S
C1961 N1958 1.350 . S
C1961 C1960 1.434 . S
C1962 C1963 1.369 . S
C1962 C1964 1.419 . S
C1962 H1966 0.930 . S
C1963 C1962 1.369 . S
C1963 C1972 1.429 . S
C1964 C1962 1.419 . S
C1964 C1965 1.363 . S
C1964 H1967 0.929 . S
C1965 C1964 1.363 . S
C1965 C1971 1.428 . S
H1966 C1962 0.930 . S
H1967 C1964 0.929 . S
S1968 N1969 1.613 . S
S1968 N1970 1.610 . S
N1969 S1968 1.613 . S
N1969 C1972 1.350 . S
N1970 S1968 1.610 . S
N1970 C1971 1.351 . S
C1971 C1965 1.428 . S
C1971 N1970 1.351 . S
C1971 C1972 1.434 . S
C1972 C1963 1.429 . S
C1972 N1969 1.350 . S
C1972 C1971 1.434 . S
C1973 C1974 1.369 . S
C1973 C1975 1.419 . S
C1973 H1977 0.930 . S
C1974 C1973 1.369 . S
C1974 C1983 1.429 . S
C1975 C1973 1.419 . S
C1975 C1976 1.363 . S
C1975 H1978 0.929 . S
C1976 C1975 1.363 . S
C1976 C1982 1.428 . S
H1977 C1973 0.930 . S
H1978 C1975 0.929 . S
S1979 N1980 1.613 . S
S1979 N1981 1.610 . S
N1980 S1979 1.613 . S
N1980 C1983 1.350 . S
N1981 S1979 1.610 . S
N1981 C1982 1.351 . S
C1982 C1976 1.428 . S
C1982 N1981 1.351 . S
C1982 C1983 1.434 . S
C1983 C1974 1.429 . S
C1983 N1980 1.350 . S
C1983 C1982 1.434 . S
C1984 C1985 1.369 . S
C1984 C1986 1.419 1_545 S
C1984 H1988 0.930 . S
C1985 C1984 1.369 . S
C1985 C1994 1.429 . S
C1986 C1984 1.419 1_565 S
C1986 C1987 1.363 . S
C1986 H1989 0.929 . S
C1987 C1986 1.363 . S
C1987 C1993 1.428 . S
H1988 C1984 0.930 . S
H1989 C1986 0.929 . S
S1990 N1991 1.613 1_565 S
S1990 N1992 1.610 . S
N1991 S1990 1.613 1_545 S
N1991 C1994 1.350 . S
N1992 S1990 1.610 . S
N1992 C1993 1.351 . S
C1993 C1987 1.428 . S
C1993 N1992 1.351 . S
C1993 C1994 1.434 1_565 S
C1994 C1985 1.429 . S
C1994 N1991 1.350 . S
C1994 C1993 1.434 1_545 S
C1995 C1996 1.369 . S
C1995 C1997 1.419 . S
C1995 H1999 0.930 . S
C1996 C1995 1.369 . S
C1996 C2005 1.429 . S
C1997 C1995 1.419 . S
C1997 C1998 1.363 . S
C1997 H2000 0.929 . S
C1998 C1997 1.363 . S
C1998 C2004 1.428 . S
H1999 C1995 0.930 . S
H2000 C1997 0.929 . S
S2001 N2002 1.613 . S
S2001 N2003 1.610 . S
N2002 S2001 1.613 . S
N2002 C2005 1.350 . S
N2003 S2001 1.610 . S
N2003 C2004 1.351 . S
C2004 C1998 1.428 . S
C2004 N2003 1.351 . S
C2004 C2005 1.434 . S
C2005 C1996 1.429 . S
C2005 N2002 1.350 . S
C2005 C2004 1.434 . S
C2006 C2007 1.369 . S
C2006 C2008 1.419 1_565 S
C2006 H2010 0.930 . S
C2007 C2006 1.369 . S
C2007 C2016 1.429 . S
C2008 C2006 1.419 1_545 S
C2008 C2009 1.363 . S
C2008 H2011 0.929 . S
C2009 C2008 1.363 . S
C2009 C2015 1.428 . S
H2010 C2006 0.930 . S
H2011 C2008 0.929 . S
S2012 N2013 1.613 . S
S2012 N2014 1.610 1_565 S
N2013 S2012 1.613 . S
N2013 C2016 1.350 . S
N2014 S2012 1.610 1_545 S
N2014 C2015 1.351 . S
C2015 C2009 1.428 . S
C2015 N2014 1.351 . S
C2015 C2016 1.434 1_545 S
C2016 C2007 1.429 . S
C2016 N2013 1.350 . S
C2016 C2015 1.434 1_565 S
C2017 C2018 1.369 1_556 S
C2017 C2019 1.419 . S
C2017 H2021 0.930 . S
C2018 C2017 1.369 1_554 S
C2018 C2027 1.429 . S
C2019 C2017 1.419 . S
C2019 C2020 1.363 . S
C2019 H2022 0.929 . S
C2020 C2019 1.363 . S
C2020 C2026 1.428 1_556 S
H2021 C2017 0.930 . S
H2022 C2019 0.929 . S
S2023 N2024 1.613 . S
S2023 N2025 1.610 . S
N2024 S2023 1.613 . S
N2024 C2027 1.350 . S
N2025 S2023 1.610 . S
N2025 C2026 1.351 . S
C2026 C2020 1.428 1_554 S
C2026 N2025 1.351 . S
C2026 C2027 1.434 . S
C2027 C2018 1.429 . S
C2027 N2024 1.350 . S
C2027 C2026 1.434 . S
C2028 C2029 1.369 . S
C2028 C2030 1.419 1_545 S
C2028 H2032 0.930 . S
C2029 C2028 1.369 . S
C2029 C2038 1.429 . S
C2030 C2028 1.419 1_565 S
C2030 C2031 1.363 . S
C2030 H2033 0.929 . S
C2031 C2030 1.363 . S
C2031 C2037 1.428 . S
H2032 C2028 0.930 . S
H2033 C2030 0.929 . S
S2034 N2035 1.613 1_565 S
S2034 N2036 1.610 . S
N2035 S2034 1.613 1_545 S
N2035 C2038 1.350 . S
N2036 S2034 1.610 . S
N2036 C2037 1.351 . S
C2037 C2031 1.428 . S
C2037 N2036 1.351 . S
C2037 C2038 1.434 1_565 S
C2038 C2029 1.429 . S
C2038 N2035 1.350 . S
C2038 C2037 1.434 1_545 S
C2039 C2040 1.369 . S
C2039 C2041 1.419 . S
C2039 H2043 0.930 . S
C2040 C2039 1.369 . S
C2040 C2049 1.429 . S
C2041 C2039 1.419 . S
C2041 C2042 1.363 . S
C2041 H2044 0.929 . S
C2042 C2041 1.363 . S
C2042 C2048 1.428 . S
H2043 C2039 0.930 . S
H2044 C2041 0.929 . S
S2045 N2046 1.613 . S
S2045 N2047 1.610 . S
N2046 S2045 1.613 . S
N2046 C2049 1.350 . S
N2047 S2045 1.610 . S
N2047 C2048 1.351 . S
C2048 C2042 1.428 . S
C2048 N2047 1.351 . S
C2048 C2049 1.434 . S
C2049 C2040 1.429 . S
C2049 N2046 1.350 . S
C2049 C2048 1.434 . S
C2050 C2051 1.369 . S
C2050 C2052 1.419 1_545 S
C2050 H2054 0.930 . S
C2051 C2050 1.369 . S
C2051 C2060 1.429 . S
C2052 C2050 1.419 1_565 S
C2052 C2053 1.363 . S
C2052 H2055 0.929 . S
C2053 C2052 1.363 . S
C2053 C2059 1.428 . S
H2054 C2050 0.930 . S
H2055 C2052 0.929 . S
S2056 N2057 1.613 1_565 S
S2056 N2058 1.610 . S
N2057 S2056 1.613 1_545 S
N2057 C2060 1.350 . S
N2058 S2056 1.610 . S
N2058 C2059 1.351 . S
C2059 C2053 1.428 . S
C2059 N2058 1.351 . S
C2059 C2060 1.434 1_565 S
C2060 C2051 1.429 . S
C2060 N2057 1.350 . S
C2060 C2059 1.434 1_545 S
C2061 C2062 1.369 . S
C2061 C2063 1.419 . S
C2061 H2065 0.930 . S
C2062 C2061 1.369 . S
C2062 C2071 1.429 1_554 S
C2063 C2061 1.419 . S
C2063 C2064 1.363 1_554 S
C2063 H2066 0.929 . S
C2064 C2063 1.363 1_556 S
C2064 C2070 1.428 . S
H2065 C2061 0.930 . S
H2066 C2063 0.929 . S
S2067 N2068 1.613 . S
S2067 N2069 1.610 . S
N2068 S2067 1.613 . S
N2068 C2071 1.350 . S
N2069 S2067 1.610 . S
N2069 C2070 1.351 . S
C2070 C2064 1.428 . S
C2070 N2069 1.351 . S
C2070 C2071 1.434 . S
C2071 C2062 1.429 1_556 S
C2071 N2068 1.350 . S
C2071 C2070 1.434 . S
C2072 C2073 1.369 . S
C2072 C2074 1.419 . S
C2072 H2076 0.930 . S
C2073 C2072 1.369 . S
C2073 C2082 1.429 . S
C2074 C2072 1.419 . S
C2074 C2075 1.363 . S
C2074 H2077 0.929 . S
C2075 C2074 1.363 . S
C2075 C2081 1.428 . S
H2076 C2072 0.930 . S
H2077 C2074 0.929 . S
S2078 N2079 1.613 . S
S2078 N2080 1.610 . S
N2079 S2078 1.613 . S
N2079 C2082 1.350 . S
N2080 S2078 1.610 . S
N2080 C2081 1.351 . S
C2081 C2075 1.428 . S
C2081 N2080 1.351 . S
C2081 C2082 1.434 . S
C2082 C2073 1.429 . S
C2082 N2079 1.350 . S
C2082 C2081 1.434 . S
C2083 C2084 1.369 1_556 S
C2083 C2085 1.419 . S
C2083 H2087 0.930 . S
C2084 C2083 1.369 1_554 S
C2084 C2093 1.429 . S
C2085 C2083 1.419 . S
C2085 C2086 1.363 . S
C2085 H2088 0.929 . S
C2086 C2085 1.363 . S
C2086 C2092 1.428 1_556 S
H2087 C2083 0.930 . S
H2088 C2085 0.929 . S
S2089 N2090 1.613 . S
S2089 N2091 1.610 . S
N2090 S2089 1.613 . S
N2090 C2093 1.350 . S
N2091 S2089 1.610 . S
N2091 C2092 1.351 . S
C2092 C2086 1.428 1_554 S
C2092 N2091 1.351 . S
C2092 C2093 1.434 . S
C2093 C2084 1.429 . S
C2093 N2090 1.350 . S
C2093 C2092 1.434 . S
C2094 C2095 1.369 . S
C2094 C2096 1.419 . S
C2094 H2098 0.930 . S
C2095 C2094 1.369 . S
C2095 C2104 1.429 . S
C2096 C2094 1.419 . S
C2096 C2097 1.363 . S
C2096 H2099 0.929 . S
C2097 C2096 1.363 . S
C2097 C2103 1.428 . S
H2098 C2094 0.930 . S
H2099 C2096 0.929 . S
S2100 N2101 1.613 . S
S2100 N2102 1.610 . S
N2101 S2100 1.613 . S
N2101 C2104 1.350 . S
N2102 S2100 1.610 . S
N2102 C2103 1.351 . S
C2103 C2097 1.428 . S
C2103 N2102 1.351 . S
C2103 C2104 1.434 . S
C2104 C2095 1.429 . S
C2104 N2101 1.350 . S
C2104 C2103 1.434 . S
C2105 C2106 1.369 . S
C2105 C2107 1.419 . S
C2105 H2109 0.930 . S
C2106 C2105 1.369 . S
C2106 C2115 1.429 . S
C2107 C2105 1.419 . S
C2107 C2108 1.363 . S
C2107 H2110 0.929 . S
C2108 C2107 1.363 . S
C2108 C2114 1.428 . S
H2109 C2105 0.930 . S
H2110 C2107 0.929 . S
S2111 N2112 1.613 . S
S2111 N2113 1.610 . S
N2112 S2111 1.613 . S
N2112 C2115 1.350 . S
N2113 S2111 1.610 . S
N2113 C2114 1.351 . S
C2114 C2108 1.428 . S
C2114 N2113 1.351 . S
C2114 C2115 1.434 . S
C2115 C2106 1.429 . S
C2115 N2112 1.350 . S
C2115 C2114 1.434 . S
C2116 C2117 1.369 . S
C2116 C2118 1.419 . S
C2116 H2120 0.930 . S
C2117 C2116 1.369 . S
C2117 C2126 1.429 . S
C2118 C2116 1.419 . S
C2118 C2119 1.363 . S
C2118 H2121 0.929 . S
C2119 C2118 1.363 . S
C2119 C2125 1.428 . S
H2120 C2116 0.930 . S
H2121 C2118 0.929 . S
S2122 N2123 1.613 . S
S2122 N2124 1.610 . S
N2123 S2122 1.613 . S
N2123 C2126 1.350 . S
N2124 S2122 1.610 . S
N2124 C2125 1.351 . S
C2125 C2119 1.428 . S
C2125 N2124 1.351 . S
C2125 C2126 1.434 . S
C2126 C2117 1.429 . S
C2126 N2123 1.350 . S
C2126 C2125 1.434 . S
C2127 C2128 1.369 . S
C2127 C2129 1.419 . S
C2127 H2131 0.930 . S
C2128 C2127 1.369 . S
C2128 C2137 1.429 1_554 S
C2129 C2127 1.419 . S
C2129 C2130 1.363 1_554 S
C2129 H2132 0.929 . S
C2130 C2129 1.363 1_556 S
C2130 C2136 1.428 . S
H2131 C2127 0.930 . S
H2132 C2129 0.929 . S
S2133 N2134 1.613 . S
S2133 N2135 1.610 . S
N2134 S2133 1.613 . S
N2134 C2137 1.350 . S
N2135 S2133 1.610 . S
N2135 C2136 1.351 . S
C2136 C2130 1.428 . S
C2136 N2135 1.351 . S
C2136 C2137 1.434 . S
C2137 C2128 1.429 1_556 S
C2137 N2134 1.350 . S
C2137 C2136 1.434 . S
C2138 C2139 1.369 . S
C2138 C2140 1.419 . S
C2138 H2142 0.930 . S
C2139 C2138 1.369 . S
C2139 C2148 1.429 . S
C2140 C2138 1.419 . S
C2140 C2141 1.363 . S
C2140 H2143 0.929 . S
C2141 C2140 1.363 . S
C2141 C2147 1.428 . S
H2142 C2138 0.930 . S
H2143 C2140 0.929 . S
S2144 N2145 1.613 . S
S2144 N2146 1.610 . S
N2145 S2144 1.613 . S
N2145 C2148 1.350 . S
N2146 S2144 1.610 . S
N2146 C2147 1.351 . S
C2147 C2141 1.428 . S
C2147 N2146 1.351 . S
C2147 C2148 1.434 . S
C2148 C2139 1.429 . S
C2148 N2145 1.350 . S
C2148 C2147 1.434 . S
C2149 C2150 1.369 . S
C2149 C2151 1.419 . S
C2149 H2153 0.930 . S
C2150 C2149 1.369 . S
C2150 C2159 1.429 . S
C2151 C2149 1.419 . S
C2151 C2152 1.363 . S
C2151 H2154 0.929 . S
C2152 C2151 1.363 . S
C2152 C2158 1.428 . S
H2153 C2149 0.930 . S
H2154 C2151 0.929 . S
S2155 N2156 1.613 . S
S2155 N2157 1.610 . S
N2156 S2155 1.613 . S
N2156 C2159 1.350 . S
N2157 S2155 1.610 . S
N2157 C2158 1.351 . S
C2158 C2152 1.428 . S
C2158 N2157 1.351 . S
C2158 C2159 1.434 . S
C2159 C2150 1.429 . S
C2159 N2156 1.350 . S
C2159 C2158 1.434 . S
C2160 C2161 1.369 . S
C2160 C2162 1.419 . S
C2160 H2164 0.930 . S
C2161 C2160 1.369 . S
C2161 C2170 1.429 . S
C2162 C2160 1.419 . S
C2162 C2163 1.363 . S
C2162 H2165 0.929 . S
C2163 C2162 1.363 . S
C2163 C2169 1.428 . S
H2164 C2160 0.930 . S
H2165 C2162 0.929 . S
S2166 N2167 1.613 . S
S2166 N2168 1.610 . S
N2167 S2166 1.613 . S
N2167 C2170 1.350 . S
N2168 S2166 1.610 . S
N2168 C2169 1.351 . S
C2169 C2163 1.428 . S
C2169 N2168 1.351 . S
C2169 C2170 1.434 . S
C2170 C2161 1.429 . S
C2170 N2167 1.350 . S
C2170 C2169 1.434 . S
C2171 C2172 1.369 . S
C2171 C2173 1.419 . S
C2171 H2175 0.930 . S
C2172 C2171 1.369 . S
C2172 C2181 1.429 . S
C2173 C2171 1.419 . S
C2173 C2174 1.363 . S
C2173 H2176 0.929 . S
C2174 C2173 1.363 . S
C2174 C2180 1.428 . S
H2175 C2171 0.930 . S
H2176 C2173 0.929 . S
S2177 N2178 1.613 . S
S2177 N2179 1.610 . S
N2178 S2177 1.613 . S
N2178 C2181 1.350 . S
N2179 S2177 1.610 . S
N2179 C2180 1.351 . S
C2180 C2174 1.428 . S
C2180 N2179 1.351 . S
C2180 C2181 1.434 . S
C2181 C2172 1.429 . S
C2181 N2178 1.350 . S
C2181 C2180 1.434 . S
C2182 C2183 1.369 . S
C2182 C2184 1.419 . S
C2182 H2186 0.930 . S
C2183 C2182 1.369 . S
C2183 C2192 1.429 . S
C2184 C2182 1.419 . S
C2184 C2185 1.363 . S
C2184 H2187 0.929 . S
C2185 C2184 1.363 . S
C2185 C2191 1.428 . S
H2186 C2182 0.930 . S
H2187 C2184 0.929 . S
S2188 N2189 1.613 . S
S2188 N2190 1.610 . S
N2189 S2188 1.613 . S
N2189 C2192 1.350 . S
N2190 S2188 1.610 . S
N2190 C2191 1.351 . S
C2191 C2185 1.428 . S
C2191 N2190 1.351 . S
C2191 C2192 1.434 . S
C2192 C2183 1.429 . S
C2192 N2189 1.350 . S
C2192 C2191 1.434 . S
C2193 C2194 1.369 . S
C2193 C2195 1.419 . S
C2193 H2197 0.930 . S
C2194 C2193 1.369 . S
C2194 C2203 1.429 . S
C2195 C2193 1.419 . S
C2195 C2196 1.363 . S
C2195 H2198 0.929 . S
C2196 C2195 1.363 . S
C2196 C2202 1.428 . S
H2197 C2193 0.930 . S
H2198 C2195 0.929 . S
S2199 N2200 1.613 . S
S2199 N2201 1.610 . S
N2200 S2199 1.613 . S
N2200 C2203 1.350 . S
N2201 S2199 1.610 . S
N2201 C2202 1.351 . S
C2202 C2196 1.428 . S
C2202 N2201 1.351 . S
C2202 C2203 1.434 . S
C2203 C2194 1.429 . S
C2203 N2200 1.350 . S
C2203 C2202 1.434 . S
C2204 C2205 1.369 . S
C2204 C2206 1.419 . S
C2204 H2208 0.930 . S
C2205 C2204 1.369 . S
C2205 C2214 1.429 . S
C2206 C2204 1.419 . S
C2206 C2207 1.363 . S
C2206 H2209 0.929 . S
C2207 C2206 1.363 . S
C2207 C2213 1.428 . S
H2208 C2204 0.930 . S
H2209 C2206 0.929 . S
S2210 N2211 1.613 . S
S2210 N2212 1.610 . S
N2211 S2210 1.613 . S
N2211 C2214 1.350 . S
N2212 S2210 1.610 . S
N2212 C2213 1.351 . S
C2213 C2207 1.428 . S
C2213 N2212 1.351 . S
C2213 C2214 1.434 . S
C2214 C2205 1.429 . S
C2214 N2211 1.350 . S
C2214 C2213 1.434 . S
C2215 C2216 1.369 . S
C2215 C2217 1.419 . S
C2215 H2219 0.930 . S
C2216 C2215 1.369 . S
C2216 C2225 1.429 . S
C2217 C2215 1.419 . S
C2217 C2218 1.363 . S
C2217 H2220 0.929 . S
C2218 C2217 1.363 . S
C2218 C2224 1.428 . S
H2219 C2215 0.930 . S
H2220 C2217 0.929 . S
S2221 N2222 1.613 . S
S2221 N2223 1.610 . S
N2222 S2221 1.613 . S
N2222 C2225 1.350 . S
N2223 S2221 1.610 . S
N2223 C2224 1.351 . S
C2224 C2218 1.428 . S
C2224 N2223 1.351 . S
C2224 C2225 1.434 . S
C2225 C2216 1.429 . S
C2225 N2222 1.350 . S
C2225 C2224 1.434 . S
C2226 C2227 1.369 . S
C2226 C2228 1.419 . S
C2226 H2230 0.930 . S
C2227 C2226 1.369 . S
C2227 C2236 1.429 . S
C2228 C2226 1.419 . S
C2228 C2229 1.363 . S
C2228 H2231 0.929 . S
C2229 C2228 1.363 . S
C2229 C2235 1.428 . S
H2230 C2226 0.930 . S
H2231 C2228 0.929 . S
S2232 N2233 1.613 . S
S2232 N2234 1.610 . S
N2233 S2232 1.613 . S
N2233 C2236 1.350 . S
N2234 S2232 1.610 . S
N2234 C2235 1.351 . S
C2235 C2229 1.428 . S
C2235 N2234 1.351 . S
C2235 C2236 1.434 . S
C2236 C2227 1.429 . S
C2236 N2233 1.350 . S
C2236 C2235 1.434 . S
C2237 C2238 1.369 . S
C2237 C2239 1.419 . S
C2237 H2241 0.930 . S
C2238 C2237 1.369 . S
C2238 C2247 1.429 . S
C2239 C2237 1.419 . S
C2239 C2240 1.363 . S
C2239 H2242 0.929 . S
C2240 C2239 1.363 . S
C2240 C2246 1.428 . S
H2241 C2237 0.930 . S
H2242 C2239 0.929 . S
S2243 N2244 1.613 . S
S2243 N2245 1.610 . S
N2244 S2243 1.613 . S
N2244 C2247 1.350 . S
N2245 S2243 1.610 . S
N2245 C2246 1.351 . S
C2246 C2240 1.428 . S
C2246 N2245 1.351 . S
C2246 C2247 1.434 . S
C2247 C2238 1.429 . S
C2247 N2244 1.350 . S
C2247 C2246 1.434 . S
C2248 C2249 1.369 . S
C2248 C2250 1.419 . S
C2248 H2252 0.930 . S
C2249 C2248 1.369 . S
C2249 C2258 1.429 . S
C2250 C2248 1.419 . S
C2250 C2251 1.363 . S
C2250 H2253 0.929 . S
C2251 C2250 1.363 . S
C2251 C2257 1.428 . S
H2252 C2248 0.930 . S
H2253 C2250 0.929 . S
S2254 N2255 1.613 . S
S2254 N2256 1.610 . S
N2255 S2254 1.613 . S
N2255 C2258 1.350 . S
N2256 S2254 1.610 . S
N2256 C2257 1.351 . S
C2257 C2251 1.428 . S
C2257 N2256 1.351 . S
C2257 C2258 1.434 . S
C2258 C2249 1.429 . S
C2258 N2255 1.350 . S
C2258 C2257 1.434 . S
C2259 C2260 1.369 . S
C2259 C2261 1.419 . S
C2259 H2263 0.930 . S
C2260 C2259 1.369 . S
C2260 C2269 1.429 . S
C2261 C2259 1.419 . S
C2261 C2262 1.363 . S
C2261 H2264 0.929 . S
C2262 C2261 1.363 . S
C2262 C2268 1.428 . S
H2263 C2259 0.930 . S
H2264 C2261 0.929 . S
S2265 N2266 1.613 . S
S2265 N2267 1.610 . S
N2266 S2265 1.613 . S
N2266 C2269 1.350 . S
N2267 S2265 1.610 . S
N2267 C2268 1.351 . S
C2268 C2262 1.428 . S
C2268 N2267 1.351 . S
C2268 C2269 1.434 . S
C2269 C2260 1.429 . S
C2269 N2266 1.350 . S
C2269 C2268 1.434 . S
C2270 C2271 1.369 . S
C2270 C2272 1.419 . S
C2270 H2274 0.930 . S
C2271 C2270 1.369 . S
C2271 C2280 1.429 . S
C2272 C2270 1.419 . S
C2272 C2273 1.363 . S
C2272 H2275 0.929 . S
C2273 C2272 1.363 . S
C2273 C2279 1.428 . S
H2274 C2270 0.930 . S
H2275 C2272 0.929 . S
S2276 N2277 1.613 . S
S2276 N2278 1.610 . S
N2277 S2276 1.613 . S
N2277 C2280 1.350 . S
N2278 S2276 1.610 . S
N2278 C2279 1.351 . S
C2279 C2273 1.428 . S
C2279 N2278 1.351 . S
C2279 C2280 1.434 . S
C2280 C2271 1.429 . S
C2280 N2277 1.350 . S
C2280 C2279 1.434 . S
C2281 C2282 1.369 . S
C2281 C2283 1.419 . S
C2281 H2285 0.930 . S
C2282 C2281 1.369 . S
C2282 C2291 1.429 . S
C2283 C2281 1.419 . S
C2283 C2284 1.363 . S
C2283 H2286 0.929 . S
C2284 C2283 1.363 . S
C2284 C2290 1.428 . S
H2285 C2281 0.930 . S
H2286 C2283 0.929 . S
S2287 N2288 1.613 . S
S2287 N2289 1.610 . S
N2288 S2287 1.613 . S
N2288 C2291 1.350 . S
N2289 S2287 1.610 . S
N2289 C2290 1.351 . S
C2290 C2284 1.428 . S
C2290 N2289 1.351 . S
C2290 C2291 1.434 . S
C2291 C2282 1.429 . S
C2291 N2288 1.350 . S
C2291 C2290 1.434 . S
C2292 C2293 1.369 . S
C2292 C2294 1.419 . S
C2292 H2296 0.930 . S
C2293 C2292 1.369 . S
C2293 C2302 1.429 . S
C2294 C2292 1.419 . S
C2294 C2295 1.363 . S
C2294 H2297 0.929 . S
C2295 C2294 1.363 . S
C2295 C2301 1.428 . S
H2296 C2292 0.930 . S
H2297 C2294 0.929 . S
S2298 N2299 1.613 . S
S2298 N2300 1.610 . S
N2299 S2298 1.613 . S
N2299 C2302 1.350 . S
N2300 S2298 1.610 . S
N2300 C2301 1.351 . S
C2301 C2295 1.428 . S
C2301 N2300 1.351 . S
C2301 C2302 1.434 . S
C2302 C2293 1.429 . S
C2302 N2299 1.350 . S
C2302 C2301 1.434 . S
C2303 C2304 1.369 . S
C2303 C2305 1.419 . S
C2303 H2307 0.930 . S
C2304 C2303 1.369 . S
C2304 C2313 1.429 . S
C2305 C2303 1.419 . S
C2305 C2306 1.363 . S
C2305 H2308 0.929 . S
C2306 C2305 1.363 . S
C2306 C2312 1.428 . S
H2307 C2303 0.930 . S
H2308 C2305 0.929 . S
S2309 N2310 1.613 . S
S2309 N2311 1.610 . S
N2310 S2309 1.613 . S
N2310 C2313 1.350 . S
N2311 S2309 1.610 . S
N2311 C2312 1.351 . S
C2312 C2306 1.428 . S
C2312 N2311 1.351 . S
C2312 C2313 1.434 . S
C2313 C2304 1.429 . S
C2313 N2310 1.350 . S
C2313 C2312 1.434 . S
C2314 C2315 1.369 . S
C2314 C2316 1.419 . S
C2314 H2318 0.930 . S
C2315 C2314 1.369 . S
C2315 C2324 1.429 . S
C2316 C2314 1.419 . S
C2316 C2317 1.363 . S
C2316 H2319 0.929 . S
C2317 C2316 1.363 . S
C2317 C2323 1.428 . S
H2318 C2314 0.930 . S
H2319 C2316 0.929 . S
S2320 N2321 1.613 . S
S2320 N2322 1.610 . S
N2321 S2320 1.613 . S
N2321 C2324 1.350 . S
N2322 S2320 1.610 . S
N2322 C2323 1.351 . S
C2323 C2317 1.428 . S
C2323 N2322 1.351 . S
C2323 C2324 1.434 . S
C2324 C2315 1.429 . S
C2324 N2321 1.350 . S
C2324 C2323 1.434 . S
C2325 C2326 1.369 . S
C2325 C2327 1.419 . S
C2325 H2329 0.930 . S
C2326 C2325 1.369 . S
C2326 C2335 1.429 . S
C2327 C2325 1.419 . S
C2327 C2328 1.363 . S
C2327 H2330 0.929 . S
C2328 C2327 1.363 . S
C2328 C2334 1.428 . S
H2329 C2325 0.930 . S
H2330 C2327 0.929 . S
S2331 N2332 1.613 . S
S2331 N2333 1.610 . S
N2332 S2331 1.613 . S
N2332 C2335 1.350 . S
N2333 S2331 1.610 . S
N2333 C2334 1.351 . S
C2334 C2328 1.428 . S
C2334 N2333 1.351 . S
C2334 C2335 1.434 . S
C2335 C2326 1.429 . S
C2335 N2332 1.350 . S
C2335 C2334 1.434 . S
C1281 C15 1.076 . S
C1283 C129 1.023 . S
C1292 C9 1.024 . S
C1294 C55 1.074 . S
C1303 C95 1.076 . S
C1305 C49 1.035 . S
C1314 C89 1.036 . S
C1316 C135 1.074 . S
C1325 C209 1.023 . S
C1327 C175 1.074 . S
C1336 C215 1.073 . S
C1338 C249 1.030 . S
C1347 C289 1.035 . S
C1349 C255 1.074 . S
C1358 C169 1.033 . S
C1360 C295 1.078 . S
C1369 C325 1.075 . S
C1371 C459 1.024 . S
C1380 C365 1.079 . S
C1382 C339 1.028 . S
C1391 C405 1.072 . S
C1393 C379 1.029 . S
C1402 C445 1.074 . S
C1404 C419 1.035 . S
C1413 C485 1.079 . S
C1415 C539 1.030 . S
C1424 C525 1.074 . S
C1426 C579 1.024 . S
C1435 C619 1.037 . S
C1437 C565 1.075 . S
C1446 C499 1.024 . S
C1448 C605 1.074 . S
C1457 C655 1.076 . S
C1459 C769 1.023 . S
C1468 C649 1.023 . S
C1470 C695 1.075 . S
C1479 C689 1.021 . S
C1481 C735 1.076 . S
C1490 C775 1.076 . S
C1492 C729 1.035 . S
C1501 C815 1.077 . S
C1503 C849 1.023 . S
C1512 C889 1.021 . S
C1514 C855 1.076 . S
C1523 C895 1.078 . S
C1525 C929 1.032 . S
C1534 C809 1.034 . S
C1536 C935 1.073 . S
C1545 C1099 1.024 . S
C1547 C965 1.077 . S
C1556 C979 1.026 . S
C1558 C1005 1.074 . S
C1567 C1045 1.078 . S
C1569 C1019 1.027 . S
C1578 C1059 1.022 . S
C1580 C1085 1.075 . S
C1589 C1179 1.037 . S
C1591 C1125 1.076 . S
C1600 C1219 1.022 . S
C1602 C1165 1.077 . S
C1611 C1259 1.037 . S
C1613 C1205 1.076 . S
C1622 C1245 1.075 . S
C1624 C1139 1.036 . S
C1633 C1095 1.623 . S
C1635 C18 1.519 . S
C1644 C58 1.518 . S
C1646 C335 1.622 . S
C1655 C98 1.529 . S
C1657 C1015 1.620 . S
C1666 C138 1.528 . S
C1668 C415 1.620 . S
C1677 C178 1.526 . S
C1679 C1175 1.622 . S
C1688 C575 1.620 . S
C1690 C218 1.528 . S
C1699 C1255 1.624 . S
C1701 C258 1.519 . S
C1710 C298 1.528 . S
C1712 C495 1.620 . S
C1721 C328 1.523 . S
C1723 C765 1.620 . S
C1732 C5 1.621 . S
C1734 C368 1.521 . S
C1743 C685 1.620 . S
C1745 C408 1.522 . S
C1754 C85 1.623 . S
C1756 C448 1.522 . S
C1765 C845 1.619 . S
C1767 C488 1.527 . S
C1776 C245 1.623 . S
C1778 C528 1.523 . S
C1787 C568 1.526 . S
C1789 C925 1.620 . S
C1798 C608 1.528 . S
C1800 C165 1.620 . S
C1809 C658 1.528 . S
C1811 C455 1.620 . S
C1820 C698 1.526 . S
C1822 C975 1.620 . S
C1831 C738 1.517 . S
C1833 C375 1.623 . S
C1842 C778 1.521 . S
C1844 C1055 1.621 . S
C1853 C818 1.528 . S
C1855 C535 1.621 . S
C1864 C858 1.523 . S
C1866 C1215 1.623 . S
C1875 C615 1.619 . S
C1877 C898 1.528 . S
C1886 C938 1.527 . S
C1888 C1135 1.621 . S
C1897 C125 1.620 . S
C1899 C968 1.528 . S
C1908 C645 1.620 . S
C1910 C1008 1.524 . S
C1919 C45 1.621 . S
C1921 C1048 1.521 . S
C1930 C725 1.622 . S
C1932 C1088 1.520 . S
C1941 C205 1.622 . S
C1943 C1128 1.525 . S
C1952 C1168 1.517 . S
C1954 C885 1.623 . S
C1963 C1208 1.524 . S
C1965 C285 1.620 . S
C1974 C805 1.622 . S
C1976 C1248 1.520 . S
C1985 C8 1.412 . S
C1987 C168 1.406 . S
C1996 C48 1.403 . S
C1998 C208 1.403 . S
C2007 C88 1.402 . S
C2009 C248 1.409 . S
C2018 C288 1.408 . S
C2020 C128 1.402 . S
C2029 C498 1.408 . S
C2031 C338 1.402 . S
C2040 C538 1.401 . S
C2042 C378 1.406 . S
C2051 C418 1.409 . S
C2053 C578 1.402 . S
C2062 C458 1.402 . S
C2064 C618 1.405 . S
C2073 C648 1.405 . S
C2075 C808 1.411 . S
C2084 C848 1.402 . S
C2086 C688 1.404 . S
C2095 C888 1.410 . S
C2097 C728 1.410 . S
C2106 C928 1.406 . S
C2108 C768 1.402 . S
C2117 C1138 1.404 . S
C2119 C978 1.403 . S
C2128 C1018 1.404 . S
C2130 C1178 1.411 . S
C2139 C1218 1.401 . S
C2141 C1058 1.408 . S
C2150 C1098 1.402 . S
C2152 C1258 1.410 . S
C2161 C299 2.613 . S
C2163 C19 2.611 . S
C2172 C59 2.611 . S
C2174 C179 2.613 . S
C2183 C99 2.613 . S
C2185 C219 2.611 . S
C2194 C259 2.611 . S
C2196 C139 2.612 . S
C2205 C329 2.611 . S
C2207 C609 2.612 . S
C2216 C489 2.613 . S
C2218 C369 2.613 . S
C2227 C529 2.612 . S
C2229 C409 2.613 . S
C2238 C449 2.612 . S
C2240 C569 2.613 . S
C2249 C659 2.611 . S
C2251 C939 2.613 . S
C2260 C819 2.613 . S
C2262 C699 2.612 . S
C2271 C859 2.611 . S
C2273 C739 2.613 . S
C2282 C899 2.613 . S
C2284 C779 2.612 . S
C2293 C969 2.612 . S
C2295 C1249 2.612 . S
C2304 C1129 2.612 . S
C2306 C1009 2.613 . S
C2315 C1049 2.611 . S
C2317 C1169 2.612 . S
C2326 C1209 2.613 . S
C2328 C1089 2.612 . S
