# Generated by pormake.
# Topology sod, (4)-cn, num edge types: 1
# Building blocks:
#     Node 0, Type 0, BuildingBlock: GALJAG_clean_sbu_0, # of connection points: 4
#     Node 1, Type 0, BuildingBlock: GALJAG_clean_sbu_0, # of connection points: 4
#     Node 2, Type 0, BuildingBlock: GALJAG_clean_sbu_0, # of connection points: 4
#     Node 3, Type 0, BuildingBlock: GALJAG_clean_sbu_0, # of connection points: 4
#     Node 4, Type 0, BuildingBlock: GALJAG_clean_sbu_0, # of connection points: 4
#     Node 5, Type 0, BuildingBlock: GALJAG_clean_sbu_0, # of connection points: 4
#     Node 6, Type 0, BuildingBlock: GALJAG_clean_sbu_0, # of connection points: 4
#     Node 7, Type 0, BuildingBlock: GALJAG_clean_sbu_0, # of connection points: 4
#     Node 8, Type 0, BuildingBlock: GALJAG_clean_sbu_0, # of connection points: 4
#     Node 9, Type 0, BuildingBlock: GALJAG_clean_sbu_0, # of connection points: 4
#     Node 10, Type 0, BuildingBlock: GALJAG_clean_sbu_0, # of connection points: 4
#     Node 11, Type 0, BuildingBlock: GALJAG_clean_sbu_0, # of connection points: 4
#     Edge 12, Type (0, 0), BuildingBlock: CIFDUS_clean_linker_0, # of connection points: 2
#     Edge 13, Type (0, 0), BuildingBlock: CIFDUS_clean_linker_0, # of connection points: 2
#     Edge 14, Type (0, 0), BuildingBlock: CIFDUS_clean_linker_0, # of connection points: 2
#     Edge 15, Type (0, 0), BuildingBlock: CIFDUS_clean_linker_0, # of connection points: 2
#     Edge 16, Type (0, 0), BuildingBlock: CIFDUS_clean_linker_0, # of connection points: 2
#     Edge 17, Type (0, 0), BuildingBlock: CIFDUS_clean_linker_0, # of connection points: 2
#     Edge 18, Type (0, 0), BuildingBlock: CIFDUS_clean_linker_0, # of connection points: 2
#     Edge 19, Type (0, 0), BuildingBlock: CIFDUS_clean_linker_0, # of connection points: 2
#     Edge 20, Type (0, 0), BuildingBlock: CIFDUS_clean_linker_0, # of connection points: 2
#     Edge 21, Type (0, 0), BuildingBlock: CIFDUS_clean_linker_0, # of connection points: 2
#     Edge 22, Type (0, 0), BuildingBlock: CIFDUS_clean_linker_0, # of connection points: 2
#     Edge 23, Type (0, 0), BuildingBlock: CIFDUS_clean_linker_0, # of connection points: 2
#     Edge 24, Type (0, 0), BuildingBlock: CIFDUS_clean_linker_0, # of connection points: 2
#     Edge 25, Type (0, 0), BuildingBlock: CIFDUS_clean_linker_0, # of connection points: 2
#     Edge 26, Type (0, 0), BuildingBlock: CIFDUS_clean_linker_0, # of connection points: 2
#     Edge 27, Type (0, 0), BuildingBlock: CIFDUS_clean_linker_0, # of connection points: 2
#     Edge 28, Type (0, 0), BuildingBlock: CIFDUS_clean_linker_0, # of connection points: 2
#     Edge 29, Type (0, 0), BuildingBlock: CIFDUS_clean_linker_0, # of connection points: 2
#     Edge 30, Type (0, 0), BuildingBlock: CIFDUS_clean_linker_0, # of connection points: 2
#     Edge 31, Type (0, 0), BuildingBlock: CIFDUS_clean_linker_0, # of connection points: 2
#     Edge 32, Type (0, 0), BuildingBlock: CIFDUS_clean_linker_0, # of connection points: 2
#     Edge 33, Type (0, 0), BuildingBlock: CIFDUS_clean_linker_0, # of connection points: 2
#     Edge 34, Type (0, 0), BuildingBlock: CIFDUS_clean_linker_0, # of connection points: 2
#     Edge 35, Type (0, 0), BuildingBlock: CIFDUS_clean_linker_0, # of connection points: 2
# Relax obj value: 0.078
# Max RMSD: 0.153
# Mean RMSD: 0.153
data_MOF--net-sod--node1-GALJAG_clean_sbu_0--edge1-CIFDUS_clean_linker_0
_symmetry_space_group_name_H-M    P1
_symmetry_Int_Tables_number       1
_symmetry_cell_setting            triclinic
loop_
_symmetry_equiv_pos_as_xyz
'x, y, z'
_cell_length_a     37.727574
_cell_length_b     37.676749
_cell_length_c     37.688066
_cell_angle_alpha  89.98257
_cell_angle_beta   90.106634
_cell_angle_gamma 90.047766
loop_
_atom_site_label
_atom_site_type_symbol
_atom_site_fract_x
_atom_site_fract_y
_atom_site_fract_z
_atom_type_partial_charge
In0 In 0.98895 0.25444 0.50257 0.0
O1 O 0.94701 0.21709 0.52541 0.0
O2 O 0.95268 0.21892 0.46944 0.0
C3 C 0.98697 0.29929 0.55851 0.0
C4 C 0.04479 0.20949 0.50642 0.0
C5 C 0.98581 0.30361 0.45032 0.0
O6 O 0.95991 0.28318 0.54714 0.0
O7 O 0.01514 0.29265 0.54177 0.0
O8 O 0.01455 0.28949 0.46007 0.0
O9 O 0.95881 0.2928 0.46678 0.0
C10 C 0.93673 0.20567 0.49566 0.0
O11 O 0.03332 0.22161 0.47739 0.0
O12 O 0.02841 0.22036 0.53343 0.0
In13 In 0.74904 0.99451 0.49988 0.0
O14 O 0.71909 0.96301 0.54195 0.0
O15 O 0.70761 0.01799 0.53714 0.0
C16 C 0.80016 0.94457 0.49597 0.0
C17 C 0.7033 0.99034 0.44473 0.0
C18 C 0.79174 0.05181 0.5069 0.0
O19 O 0.78512 0.95274 0.52469 0.0
O20 O 0.78927 0.96144 0.46917 0.0
O21 O 0.78142 0.04047 0.47715 0.0
O22 O 0.78007 0.03462 0.53311 0.0
C23 C 0.70119 0.98909 0.55281 0.0
O24 O 0.7137 0.01958 0.45735 0.0
O25 O 0.71621 0.96335 0.4597 0.0
In26 In 0.00757 0.7539 0.51487 0.0
O27 O 0.04022 0.71733 0.5505 0.0
O28 O 0.98437 0.71748 0.55727 0.0
C29 C 0.06055 0.80223 0.51655 0.0
C30 C 1.00112 0.70897 0.4593 0.0
C31 C 0.9528 0.79979 0.51773 0.0
O32 O 0.0498 0.78823 0.48808 0.0
O33 O 0.04489 0.79153 0.54409 0.0
O34 O 0.96916 0.79304 0.48936 0.0
O35 O 0.96401 0.78331 0.54465 0.0
C36 C 0.01384 0.70496 0.5669 0.0
O37 O 0.97485 0.72104 0.47599 0.0
O38 O 0.03078 0.7199 0.47031 0.0
In39 In 0.24748 0.0129 0.49092 0.0
O40 O 0.21687 0.96925 0.462 0.0
O41 O 0.21255 0.97144 0.51807 0.0
C42 C 0.29683 0.01679 0.43909 0.0
C43 C 0.19785 0.06456 0.48679 0.0
C44 C 0.29184 0.0149 0.54742 0.0
O45 O 0.2833 0.04391 0.45322 0.0
O46 O 0.2854 0.98767 0.451 0.0
O47 O 0.27723 0.04228 0.53489 0.0
O48 O 0.28389 0.98647 0.53164 0.0
C49 C 0.20355 0.9561 0.48972 0.0
O50 O 0.2091 0.05253 0.51594 0.0
O51 O 0.2117 0.05063 0.45974 0.0
In52 In 0.50242 0.00224 0.24603 0.0
O53 O 0.54392 0.97815 0.28301 0.0
O54 O 0.54097 0.03433 0.28013 0.0
C55 C 0.5091 0.9485 0.19892 0.0
C56 C 0.44825 0.99741 0.29267 0.0
C57 C 0.49674 0.05609 0.19895 0.0
O58 O 0.53537 0.9647 0.21187 0.0
O59 O 0.47942 0.95915 0.20998 0.0
O60 O 0.47012 0.04033 0.21164 0.0
O61 O 0.52618 0.04486 0.21017 0.0
C62 C 0.55582 0.00757 0.29368 0.0
O63 O 0.46029 0.02669 0.28182 0.0
O64 O 0.4633 0.97048 0.27975 0.0
In65 In 0.00542 0.51039 0.25806 0.0
O66 O 0.96418 0.4846 0.22165 0.0
O67 O 0.96076 0.54017 0.22999 0.0
C68 C 0.00739 0.45391 0.30247 0.0
C69 C 0.05612 0.51415 0.20769 0.0
C70 C 0.01227 0.56221 0.30715 0.0
O71 O 0.97896 0.46968 0.29456 0.0
O72 O 0.03464 0.46634 0.28766 0.0
O73 O 0.0385 0.54792 0.2922 0.0
O74 O 0.98253 0.55041 0.29732 0.0
C75 C 0.94821 0.51318 0.2147 0.0
O76 O 0.04186 0.54132 0.22099 0.0
O77 O 0.04482 0.48505 0.2198 0.0
In78 In 0.49378 0.99612 0.74434 0.0
O79 O 0.52685 0.02757 0.70491 0.0
O80 O 0.53956 0.97308 0.71202 0.0
C81 C 0.50222 0.04971 0.79122 0.0
C82 C 0.43927 0.99205 0.69785 0.0
C83 C 0.48894 0.94204 0.79129 0.0
O84 O 0.47229 0.04125 0.7788 0.0
O85 O 0.52768 0.03134 0.77985 0.0
O86 O 0.46283 0.96113 0.78276 0.0
O87 O 0.51749 0.94986 0.77574 0.0
C88 C 0.54642 0.00187 0.69629 0.0
O89 O 0.45848 0.96577 0.70562 0.0
O90 O 0.4472 0.02035 0.71394 0.0
In91 In 0.00528 0.49773 0.75905 0.0
O92 O 0.0495 0.47471 0.79367 0.0
O93 O 0.04269 0.53061 0.79349 0.0
C94 C 0.00939 0.44446 0.71115 0.0
C95 C 0.9522 0.49129 0.80671 0.0
C96 C 0.9992 0.55199 0.71254 0.0
O97 O 0.03643 0.46005 0.72327 0.0
O98 O 0.98036 0.45539 0.72355 0.0
O99 O 0.02873 0.53985 0.72248 0.0
O100 O 0.97268 0.53688 0.72619 0.0
C101 C 0.05974 0.50439 0.80533 0.0
O102 O 0.96295 0.5209 0.79541 0.0
O103 O 0.96809 0.46482 0.79385 0.0
In104 In 0.25585 0.49669 0.00878 0.0
O105 O 0.2164 0.52245 0.0468 0.0
O106 O 0.22144 0.46634 0.04809 0.0
C107 C 0.30542 0.44517 0.01202 0.0
C108 C 0.21146 0.49188 0.95255 0.0
C109 C 0.30008 0.55319 0.01189 0.0
O110 O 0.29571 0.45917 0.98319 0.0
O111 O 0.29011 0.45714 0.03922 0.0
O112 O 0.29051 0.53934 0.98294 0.0
O113 O 0.28691 0.53893 0.03911 0.0
C114 C 0.20638 0.49353 0.06038 0.0
O115 O 0.21951 0.52116 0.96667 0.0
O116 O 0.22619 0.46525 0.96644 0.0
In117 In 0.50729 0.24859 0.99214 0.0
O118 O 0.48337 0.21588 0.0373 0.0
O119 O 0.53911 0.21401 0.03035 0.0
C120 C 0.56272 0.29397 0.99037 0.0
C121 C 0.49802 0.20062 0.93963 0.0
C122 C 0.45532 0.29769 0.98948 0.0
O123 O 0.54475 0.28845 0.01803 0.0
O124 O 0.55296 0.27631 0.96363 0.0
O125 O 0.47186 0.28737 0.96232 0.0
O126 O 0.46484 0.28307 0.01809 0.0
C127 C 0.51261 0.20342 0.0477 0.0
O128 O 0.47255 0.21402 0.95656 0.0
O129 O 0.52823 0.21151 0.94906 0.0
In130 In 0.75488 0.50054 0.00865 0.0
O131 O 0.72485 0.45357 0.9847 0.0
O132 O 0.7147 0.46666 0.03853 0.0
C133 C 0.80319 0.50601 0.95607 0.0
C134 C 0.70776 0.55398 1.00041 0.0
C135 C 0.80039 0.49535 0.06399 0.0
O136 O 0.7887 0.47695 0.96426 0.0
O137 O 0.79316 0.53224 0.97424 0.0
O138 O 0.78567 0.5242 0.05547 0.0
O139 O 0.79182 0.46923 0.04491 0.0
C140 C 0.70777 0.44663 0.01262 0.0
O141 O 0.72164 0.54666 0.03004 0.0
O142 O 0.71791 0.53462 0.97511 0.0
In143 In 0.5034 0.74932 0.99791 0.0
O144 O 0.46127 0.71321 0.02223 0.0
O145 O 0.46556 0.71408 0.96612 0.0
C146 C 0.49712 0.7977 0.05052 0.0
C147 C 0.55799 0.70349 0.00649 0.0
C148 C 0.50778 0.79477 0.94244 0.0
O149 O 0.4708 0.78212 0.03691 0.0
O150 O 0.52668 0.7888 0.0377 0.0
O151 O 0.5347 0.78054 0.95632 0.0
O152 O 0.47874 0.78595 0.9564 0.0
C153 C 0.44999 0.70158 0.99294 0.0
O154 O 0.54547 0.71141 0.97647 0.0
O155 O 0.54316 0.71886 0.03221 0.0
H156 H 0.03998 0.33042 0.41102 0.0
H157 H 0.92704 0.33852 0.42694 0.0
H158 H 0.92355 0.38505 0.38196 0.0
H159 H 0.95275 0.42445 0.33902 0.0
H160 H 0.06572 0.4166 0.32324 0.0
H161 H 0.06899 0.36893 0.36708 0.0
C162 C 0.01461 0.34232 0.40456 0.0
C163 C 0.98385 0.33109 0.42235 0.0
C164 C 0.01279 0.36913 0.37869 0.0
C165 C 0.95114 0.3467 0.41366 0.0
C166 C 0.94911 0.37334 0.38794 0.0
C167 C 0.97805 0.41219 0.34507 0.0
C168 C 0.00893 0.42409 0.32795 0.0
C169 C 0.97978 0.3849 0.37042 0.0
C170 C 0.04154 0.40795 0.33607 0.0
C171 C 0.04345 0.38071 0.36117 0.0
H172 H 0.6708 0.04452 0.40989 0.0
H173 H 0.67745 0.93024 0.41399 0.0
H174 H 0.633 0.92552 0.36706 0.0
H175 H 0.59118 0.95374 0.32586 0.0
H176 H 0.58416 0.06797 0.32183 0.0
H177 H 0.62984 0.07282 0.36765 0.0
C178 C 0.6626 0.0186 0.4004 0.0
C179 C 0.67733 0.98779 0.41544 0.0
C180 C 0.63692 0.01606 0.37348 0.0
C181 C 0.66647 0.95438 0.40288 0.0
C182 C 0.64104 0.95164 0.37606 0.0
C183 C 0.59974 0.9797 0.33493 0.0
C184 C 0.58427 0.01044 0.32054 0.0
C185 C 0.62592 0.98228 0.36133 0.0
C186 C 0.59565 0.04389 0.33252 0.0
C187 C 0.62174 0.04669 0.35873 0.0
H188 H 0.95977 0.59698 0.34188 0.0
H189 H 0.0736 0.59031 0.33326 0.0
H190 H 0.08026 0.63585 0.37893 0.0
H191 H 0.05373 0.67675 0.42218 0.0
H192 H 0.93988 0.68306 0.431 0.0
H193 H 0.93325 0.63862 0.3843 0.0
C194 C 0.98603 0.60555 0.34996 0.0
C195 C 0.01614 0.59025 0.33429 0.0
C196 C 0.98966 0.6317 0.37626 0.0
C197 C 0.04999 0.60166 0.34496 0.0
C198 C 0.05383 0.6277 0.37107 0.0
C199 C 0.02748 0.6685 0.41375 0.0
C200 C 0.99736 0.68314 0.43004 0.0
C201 C 0.02385 0.64279 0.38701 0.0
C202 C 0.96351 0.67217 0.41889 0.0
C203 C 0.95968 0.64673 0.39222 0.0
H204 H 0.33031 0.96219 0.40606 0.0
H205 H 0.32473 0.07654 0.40944 0.0
H206 H 0.37062 0.0806 0.36399 0.0
H207 H 0.41295 0.05174 0.32393 0.0
H208 H 0.41888 0.93742 0.32064 0.0
H209 H 0.3722 0.93327 0.36535 0.0
C210 C 0.3391 0.98799 0.39679 0.0
C211 C 0.32418 0.01901 0.41113 0.0
C212 C 0.36557 0.99013 0.37069 0.0
C213 C 0.33582 0.05225 0.39885 0.0
C214 C 0.36207 0.0546 0.37286 0.0
C215 C 0.40396 0.02591 0.33293 0.0
C216 C 0.41936 0.99494 0.31902 0.0
C217 C 0.37721 0.02373 0.35869 0.0
C218 C 0.40744 0.96167 0.33094 0.0
C219 C 0.38077 0.95928 0.35652 0.0
H220 H 0.05251 0.5867 0.67896 0.0
H221 H 0.93855 0.58271 0.68788 0.0
H222 H 0.93305 0.63026 0.64409 0.0
H223 H 0.9606 0.67228 0.60259 0.0
H224 H 0.07453 0.67576 0.5932 0.0
H225 H 0.08006 0.62914 0.63794 0.0
C226 C 0.02647 0.5963 0.67138 0.0
C227 C 0.99599 0.58121 0.6866 0.0
C228 C 0.02351 0.62352 0.64611 0.0
C229 C 0.96244 0.5939 0.67651 0.0
C230 C 0.95926 0.62107 0.65148 0.0
C231 C 0.98664 0.6629 0.61043 0.0
C232 C 0.01711 0.67742 0.59462 0.0
C233 C 0.98961 0.63598 0.63602 0.0
C234 C 0.05067 0.66499 0.60498 0.0
C235 C 0.05386 0.63832 0.63054 0.0
H236 H 0.39889 0.0462 0.67256 0.0
H237 H 0.41602 0.93344 0.66243 0.0
H238 H 0.3711 0.93034 0.61578 0.0
H239 H 0.32833 0.95996 0.57649 0.0
H240 H 0.31191 0.0729 0.58581 0.0
H241 H 0.35508 0.07562 0.63415 0.0
C242 C 0.39262 0.02093 0.66028 0.0
C243 C 0.41079 0.99011 0.6709 0.0
C244 C 0.36698 0.01939 0.63323 0.0
C245 C 0.40245 0.95756 0.65469 0.0
C246 C 0.37679 0.95577 0.62798 0.0
C247 C 0.33409 0.98514 0.58921 0.0
C248 C 0.317 0.01618 0.57754 0.0
C249 C 0.35911 0.98655 0.61683 0.0
C250 C 0.32475 0.04861 0.59427 0.0
C251 C 0.34944 0.0502 0.62191 0.0
H252 H 0.04198 0.3347 0.58896 0.0
H253 H 0.92868 0.32036 0.59546 0.0
H254 H 0.92574 0.36335 0.64386 0.0
H255 H 0.9551 0.40613 0.68334 0.0
H256 H 0.06841 0.42035 0.67713 0.0
H257 H 0.07162 0.37621 0.62974 0.0
C258 C 0.01667 0.34092 0.60105 0.0
C259 C 0.98558 0.32447 0.58855 0.0
C260 C 0.01516 0.36566 0.6289 0.0
C261 C 0.953 0.3327 0.60456 0.0
C262 C 0.95128 0.3573 0.63222 0.0
C263 C 0.98051 0.39946 0.6717 0.0
C264 C 0.01145 0.41655 0.68365 0.0
C265 C 0.98215 0.3741 0.64446 0.0
C266 C 0.04419 0.40757 0.6684 0.0
C267 C 0.04605 0.38237 0.64126 0.0
H268 H 0.59075 0.9503 0.67238 0.0
H269 H 0.56572 0.0614 0.6602 0.0
H270 H 0.61182 0.0674 0.61523 0.0
H271 H 0.65863 0.04097 0.57868 0.0
H272 H 0.68351 0.92981 0.59038 0.0
H273 H 0.63817 0.92399 0.63624 0.0
C274 C 0.59546 0.97583 0.65992 0.0
C275 C 0.57483 0.00533 0.66956 0.0
C276 C 0.62196 0.97909 0.63398 0.0
C277 C 0.58122 0.03825 0.65321 0.0
C278 C 0.60757 0.04172 0.62748 0.0
C279 C 0.65419 0.01549 0.59134 0.0
C280 C 0.67436 0.98587 0.58114 0.0
C281 C 0.628 0.0123 0.61757 0.0
C282 C 0.6683 0.95303 0.59776 0.0
C283 C 0.64237 0.94966 0.62397 0.0
H284 H 0.41838 0.32596 0.04445 0.0
H285 H 0.42969 0.3309 0.93062 0.0
H286 H 0.38416 0.37681 0.92754 0.0
H287 H 0.34148 0.4159 0.95716 0.0
H288 H 0.33027 0.41134 0.071 0.0
H289 H 0.37542 0.36496 0.07409 0.0
C290 C 0.41081 0.33705 0.01898 0.0
C291 C 0.42737 0.32506 0.98782 0.0
C292 C 0.38469 0.36354 0.0174 0.0
C293 C 0.41735 0.3397 0.95501 0.0
C294 C 0.39132 0.36596 0.95321 0.0
C295 C 0.34891 0.40473 0.98264 0.0
C296 C 0.3326 0.41703 0.01379 0.0
C297 C 0.37489 0.37814 0.98423 0.0
C298 C 0.34247 0.40232 0.04662 0.0
C299 C 0.36827 0.3758 0.04842 0.0
H300 H 0.33449 0.58545 0.95732 0.0
H301 H 0.3238 0.58689 0.0713 0.0
H302 H 0.36865 0.63347 0.07542 0.0
H303 H 0.41221 0.67254 0.04687 0.0
H304 H 0.42332 0.67097 0.93296 0.0
H305 H 0.37702 0.62576 0.92859 0.0
C306 C 0.34185 0.59611 0.98303 0.0
C307 C 0.32589 0.58268 0.01395 0.0
C308 C 0.36784 0.62277 0.98524 0.0
C309 C 0.33571 0.59674 0.04709 0.0
C310 C 0.3614 0.62334 0.04949 0.0
C311 C 0.40443 0.66237 0.02108 0.0
C312 C 0.42125 0.67499 0.9903 0.0
C313 C 0.37785 0.63634 0.01878 0.0
C314 C 0.41081 0.66164 0.95707 0.0
C315 C 0.38435 0.63578 0.95455 0.0
H316 H 0.58671 0.33549 0.04409 0.0
H317 H 0.6046 0.31065 0.93381 0.0
H318 H 0.65179 0.35507 0.93117 0.0
H319 H 0.6869 0.40209 0.95982 0.0
H320 H 0.66845 0.42719 0.06997 0.0
H321 H 0.62263 0.38149 0.07304 0.0
C322 C 0.60104 0.3397 0.01952 0.0
C323 C 0.59214 0.31987 0.98918 0.0
C324 C 0.62799 0.36537 0.01815 0.0
C325 C 0.61094 0.32561 0.95754 0.0
C326 C 0.6379 0.35102 0.95599 0.0
C327 C 0.67294 0.39744 0.98453 0.0
C328 C 0.68101 0.41803 0.01459 0.0
C329 C 0.64649 0.37122 0.98607 0.0
C330 C 0.66271 0.41172 0.04642 0.0
C331 C 0.63648 0.38561 0.04821 0.0
H332 H 0.67773 0.5952 0.05147 0.0
H333 H 0.67759 0.57603 0.93858 0.0
H334 H 0.63195 0.6212 0.93041 0.0
H335 H 0.59103 0.66515 0.95538 0.0
H336 H 0.59024 0.68383 0.06832 0.0
H337 H 0.63728 0.63995 0.0764 0.0
C338 C 0.6678 0.60105 0.02508 0.0
C339 C 0.68101 0.58227 0.99569 0.0
C340 C 0.64133 0.6269 0.02058 0.0
C341 C 0.66784 0.59007 0.96166 0.0
C342 C 0.64172 0.61589 0.95695 0.0
C343 C 0.60124 0.65971 0.98175 0.0
C344 C 0.58715 0.67768 0.0112 0.0
C345 C 0.62811 0.63431 0.98622 0.0
C346 C 0.60062 0.67031 0.0452 0.0
C347 C 0.62751 0.64522 0.04986 0.0
H348 H 0.4538 0.83092 0.91146 0.0
H349 H 0.56707 0.81593 0.9068 0.0
H350 H 0.57114 0.85928 0.85869 0.0
H351 H 0.54264 0.90259 0.81894 0.0
H352 H 0.4295 0.91829 0.82463 0.0
H353 H 0.42525 0.87344 0.87121 0.0
C354 C 0.47936 0.83705 0.89983 0.0
C355 C 0.51008 0.82028 0.9127 0.0
C356 C 0.48153 0.86215 0.87237 0.0
C357 C 0.54302 0.82852 0.8974 0.0
C358 C 0.54537 0.85331 0.86989 0.0
C359 C 0.51704 0.89604 0.83025 0.0
C360 C 0.48644 0.91374 0.81836 0.0
C361 C 0.51483 0.87044 0.8573 0.0
C362 C 0.45347 0.90507 0.83335 0.0
C363 C 0.45101 0.87944 0.86001 0.0
H364 H 0.17444 0.54489 0.92057 0.0
H365 H 0.19044 0.43151 0.91878 0.0
H366 H 0.14558 0.42543 0.87239 0.0
H367 H 0.10039 0.45206 0.83369 0.0
H368 H 0.08408 0.56539 0.83568 0.0
H369 H 0.13047 0.57174 0.88053 0.0
C370 C 0.16824 0.51889 0.90987 0.0
C371 C 0.18567 0.4887 0.92315 0.0
C372 C 0.14226 0.51555 0.88332 0.0
C373 C 0.17736 0.45518 0.90904 0.0
C374 C 0.15167 0.45166 0.88254 0.0
C375 C 0.10709 0.47815 0.84385 0.0
C376 C 0.08876 0.50818 0.83147 0.0
C377 C 0.13373 0.48161 0.86971 0.0
C378 C 0.09778 0.54183 0.84482 0.0
C379 C 0.12429 0.5455 0.87049 0.0
H380 H 0.4512 0.08789 0.82482 0.0
H381 H 0.56461 0.07558 0.81676 0.0
H382 H 0.57335 0.12177 0.86135 0.0
H383 H 0.54883 0.16486 0.90348 0.0
H384 H 0.43544 0.17641 0.91261 0.0
H385 H 0.42664 0.13138 0.86677 0.0
C386 C 0.47781 0.09544 0.83275 0.0
C387 C 0.50719 0.07836 0.81753 0.0
C388 C 0.48265 0.12182 0.85864 0.0
C389 C 0.54153 0.0883 0.82813 0.0
C390 C 0.54657 0.11471 0.85363 0.0
C391 C 0.5222 0.15759 0.89535 0.0
C392 C 0.49285 0.17391 0.9114 0.0
C393 C 0.51734 0.13151 0.86919 0.0
C394 C 0.45849 0.16418 0.90067 0.0
C395 C 0.45343 0.13844 0.87446 0.0
H396 H 0.91905 0.54454 0.84185 0.0
H397 H 0.92144 0.43053 0.83136 0.0
H398 H 0.87488 0.425 0.87607 0.0
H399 H 0.83411 0.45258 0.91885 0.0
H400 H 0.83291 0.56655 0.93016 0.0
H401 H 0.87832 0.57206 0.8844 0.0
C402 C 0.9093 0.51849 0.84928 0.0
C403 C 0.92364 0.488 0.83332 0.0
C404 C 0.88277 0.5155 0.87518 0.0
C405 C 0.91084 0.45442 0.84329 0.0
C406 C 0.88423 0.45123 0.86885 0.0
C407 C 0.84373 0.47862 0.9112 0.0
C408 C 0.83017 0.50911 0.92785 0.0
C409 C 0.87009 0.48158 0.88507 0.0
C410 C 0.84296 0.54266 0.91777 0.0
C411 C 0.86893 0.54585 0.8916 0.0
H412 H 0.5503 0.09041 0.16536 0.0
H413 H 0.43627 0.08606 0.17288 0.0
H414 H 0.4311 0.1322 0.12758 0.0
H415 H 0.45897 0.17263 0.08464 0.0
H416 H 0.57299 0.17603 0.0764 0.0
H417 H 0.57817 0.13152 0.12324 0.0
C418 C 0.52432 0.09967 0.15718 0.0
C419 C 0.49372 0.08481 0.1724 0.0
C420 C 0.52154 0.126 0.13096 0.0
C421 C 0.46024 0.09704 0.16152 0.0
C422 C 0.45726 0.12341 0.13561 0.0
C423 C 0.48494 0.16375 0.09324 0.0
C424 C 0.51554 0.17756 0.07706 0.0
C425 C 0.48772 0.13791 0.11998 0.0
C426 C 0.54902 0.16576 0.0884 0.0
C427 C 0.55201 0.14029 0.11517 0.0
H428 H 0.91899 0.45931 0.17663 0.0
H429 H 0.91025 0.57183 0.19599 0.0
H430 H 0.86279 0.5761 0.15201 0.0
H431 H 0.82525 0.54825 0.1064 0.0
H432 H 0.83462 0.43586 0.08658 0.0
H433 H 0.88019 0.43115 0.13242 0.0
C434 C 0.90655 0.48472 0.17137 0.0
C435 C 0.91819 0.51521 0.18947 0.0
C436 C 0.87944 0.48704 0.14587 0.0
C437 C 0.90181 0.54795 0.18237 0.0
C438 C 0.87469 0.55044 0.15719 0.0
C439 C 0.83714 0.52271 0.11227 0.0
C440 C 0.82664 0.49248 0.09305 0.0
C441 C 0.86352 0.52022 0.13853 0.0
C442 C 0.84228 0.45956 0.10095 0.0
C443 C 0.86837 0.45683 0.12714 0.0
H444 H 0.54987 0.83371 0.08405 0.0
H445 H 0.43613 0.82195 0.08062 0.0
H446 H 0.4298 0.8671 0.12667 0.0
H447 H 0.4565 0.91064 0.16728 0.0
H448 H 0.57023 0.92245 0.17066 0.0
H449 H 0.57662 0.87653 0.12537 0.0
C450 C 0.52371 0.84099 0.09344 0.0
C451 C 0.49352 0.82456 0.0789 0.0
C452 C 0.52025 0.86699 0.11991 0.0
C453 C 0.4598 0.83423 0.09136 0.0
C454 C 0.45614 0.86005 0.11769 0.0
C455 C 0.48268 0.90308 0.15817 0.0
C456 C 0.51283 0.91995 0.17227 0.0
C457 C 0.48617 0.87671 0.13206 0.0
C458 C 0.54659 0.90987 0.16022 0.0
C459 C 0.55027 0.88364 0.1343 0.0
H460 H 0.17133 0.54831 0.09133 0.0
H461 H 0.17985 0.43409 0.09181 0.0
H462 H 0.13407 0.43037 0.13739 0.0
H463 H 0.09147 0.45952 0.17699 0.0
H464 H 0.08307 0.57374 0.17676 0.0
H465 H 0.12892 0.5775 0.13122 0.0
C466 C 0.16317 0.52262 0.10145 0.0
C467 C 0.17893 0.49154 0.08823 0.0
C468 C 0.13684 0.52067 0.12767 0.0
C469 C 0.16812 0.45843 0.10158 0.0
C470 C 0.14193 0.45627 0.12763 0.0
C471 C 0.09968 0.48523 0.16696 0.0
C472 C 0.08389 0.51629 0.18019 0.0
C473 C 0.12609 0.4872 0.14084 0.0
C474 C 0.09482 0.54942 0.16699 0.0
C475 C 0.12104 0.5516 0.14095 0.0
H476 H 0.82689 0.90498 0.54986 0.0
H477 H 0.83734 0.9242 0.43748 0.0
H478 H 0.88529 0.88078 0.43422 0.0
H479 H 0.92473 0.83792 0.46345 0.0
H480 H 0.91431 0.81875 0.57584 0.0
H481 H 0.86581 0.86156 0.57894 0.0
C482 C 0.83963 0.8996 0.52465 0.0
C483 C 0.82863 0.91778 0.49398 0.0
C484 C 0.86718 0.87466 0.52298 0.0
C485 C 0.84534 0.91054 0.46149 0.0
C486 C 0.87277 0.88574 0.4596 0.0
C487 C 0.9118 0.84308 0.4886 0.0
C488 C 0.92311 0.82526 0.51937 0.0
C489 C 0.88398 0.86774 0.49019 0.0
C490 C 0.9061 0.83217 0.55177 0.0
C491 C 0.87838 0.85664 0.55357 0.0
H492 H 0.90112 0.17172 0.54827 0.0
H493 H 0.9096 0.17859 0.43431 0.0
H494 H 0.8645 0.13249 0.4277 0.0
H495 H 0.82382 0.08908 0.45429 0.0
H496 H 0.81602 0.08152 0.56826 0.0
H497 H 0.85955 0.12913 0.57486 0.0
C498 C 0.893 0.1632 0.522 0.0
C499 C 0.90872 0.17848 0.49184 0.0
C500 C 0.86719 0.13655 0.51839 0.0
C501 C 0.89794 0.16719 0.45796 0.0
C502 C 0.87215 0.14083 0.45415 0.0
C503 C 0.8315 0.098 0.48056 0.0
C504 C 0.81674 0.08179 0.51073 0.0
C505 C 0.85676 0.12517 0.48417 0.0
C506 C 0.82701 0.09357 0.5446 0.0
C507 C 0.85194 0.12075 0.54841 0.0
H508 H 0.09649 0.83046 0.4608 0.0
H509 H 0.08679 0.83623 0.57472 0.0
H510 H 0.13084 0.88372 0.57658 0.0
H511 H 0.17092 0.92476 0.54573 0.0
H512 H 0.18036 0.91942 0.43177 0.0
H513 H 0.13772 0.87058 0.43005 0.0
C514 C 0.10415 0.84201 0.48603 0.0
C515 C 0.08835 0.82989 0.51756 0.0
C516 C 0.12939 0.86944 0.4869 0.0
C517 C 0.09854 0.8451 0.55006 0.0
C518 C 0.12371 0.87229 0.55115 0.0
C519 C 0.16374 0.91281 0.52053 0.0
C520 C 0.17869 0.92575 0.48893 0.0
C521 C 0.13911 0.88485 0.51973 0.0
C522 C 0.16916 0.90998 0.45649 0.0
C523 C 0.14477 0.88207 0.45547 0.0
H524 H 0.08062 0.17898 0.45184 0.0
H525 H 0.07497 0.18204 0.56614 0.0
H526 H 0.12222 0.13794 0.57019 0.0
H527 H 0.16433 0.09757 0.54128 0.0
H528 H 0.16962 0.09399 0.42698 0.0
H529 H 0.12338 0.1392 0.42291 0.0
C530 C 0.08985 0.1701 0.47762 0.0
C531 C 0.07429 0.18374 0.50863 0.0
C532 C 0.1169 0.14456 0.47976 0.0
C533 C 0.08648 0.17193 0.54186 0.0
C534 C 0.11348 0.14669 0.5442 0.0
C535 C 0.15541 0.10675 0.51549 0.0
C536 C 0.17034 0.09242 0.48449 0.0
C537 C 0.12874 0.13267 0.51334 0.0
C538 C 0.15853 0.10459 0.45126 0.0
C539 C 0.13208 0.13043 0.4489 0.0
loop_
_geom_bond_atom_site_label_1
_geom_bond_atom_site_label_2
_geom_bond_distance
_geom_bond_site_symmetry_2
_ccdc_geom_bond_type
In0 O1 2.292 1_455 S
In0 O2 2.326 1_455 S
In0 O6 2.266 1_455 S
In0 O7 2.327 . S
In0 O8 2.267 . S
In0 O9 2.324 1_455 S
In0 O11 2.295 . S
In0 O12 2.327 . S
O1 In0 2.292 1_655 S
O1 C10 1.240 . S
O2 In0 2.326 1_655 S
O2 C10 1.252 . S
C3 O6 1.252 1_455 S
C3 O7 1.260 . S
C4 O11 1.240 . S
C4 O12 1.252 . S
C5 O8 1.252 1_655 S
C5 O9 1.260 . S
O6 In0 2.266 1_655 S
O6 C3 1.252 1_655 S
O7 In0 2.327 . S
O7 C3 1.260 . S
O8 In0 2.267 . S
O8 C5 1.252 1_455 S
O9 In0 2.324 1_655 S
O9 C5 1.260 . S
C10 O1 1.240 . S
C10 O2 1.252 . S
O11 In0 2.295 . S
O11 C4 1.240 . S
O12 In0 2.327 . S
O12 C4 1.252 . S
In13 O14 2.293 1_545 S
In13 O15 2.327 . S
In13 O19 2.265 1_545 S
In13 O20 2.325 1_545 S
In13 O21 2.268 . S
In13 O22 2.326 . S
In13 O24 2.294 . S
In13 O25 2.325 1_545 S
O14 In13 2.293 1_565 S
O14 C23 1.240 1_565 S
O15 In13 2.327 . S
O15 C23 1.252 . S
C16 O19 1.252 . S
C16 O20 1.260 . S
C17 O24 1.240 1_565 S
C17 O25 1.252 . S
C18 O21 1.252 . S
C18 O22 1.260 . S
O19 In13 2.265 1_565 S
O19 C16 1.252 . S
O20 In13 2.325 1_565 S
O20 C16 1.260 . S
O21 In13 2.268 . S
O21 C18 1.252 . S
O22 In13 2.326 . S
O22 C18 1.260 . S
C23 O14 1.240 1_545 S
C23 O15 1.252 . S
O24 In13 2.294 . S
O24 C17 1.240 1_545 S
O25 In13 2.325 1_565 S
O25 C17 1.252 . S
In26 O27 2.294 . S
In26 O28 2.325 1_455 S
In26 O32 2.268 . S
In26 O33 2.326 . S
In26 O34 2.265 1_455 S
In26 O35 2.325 1_455 S
In26 O37 2.293 1_455 S
In26 O38 2.327 . S
O27 In26 2.294 . S
O27 C36 1.240 1_455 S
O28 In26 2.325 1_655 S
O28 C36 1.252 . S
C29 O32 1.252 . S
C29 O33 1.260 . S
C30 O37 1.240 1_455 S
C30 O38 1.252 . S
C31 O34 1.252 . S
C31 O35 1.260 . S
O32 In26 2.268 . S
O32 C29 1.252 . S
O33 In26 2.326 . S
O33 C29 1.260 . S
O34 In26 2.265 1_655 S
O34 C31 1.252 . S
O35 In26 2.325 1_655 S
O35 C31 1.260 . S
C36 O27 1.240 1_655 S
C36 O28 1.252 . S
O37 In26 2.293 1_655 S
O37 C30 1.240 1_655 S
O38 In26 2.327 . S
O38 C30 1.252 . S
In39 O40 2.292 1_545 S
In39 O41 2.325 1_545 S
In39 O45 2.266 1_545 S
In39 O46 2.327 . S
In39 O47 2.267 . S
In39 O48 2.324 1_545 S
In39 O50 2.296 . S
In39 O51 2.327 . S
O40 In39 2.292 1_565 S
O40 C49 1.240 . S
O41 In39 2.325 1_565 S
O41 C49 1.252 . S
C42 O45 1.252 1_545 S
C42 O46 1.260 . S
C43 O50 1.240 . S
C43 O51 1.252 . S
C44 O47 1.252 1_565 S
C44 O48 1.260 . S
O45 In39 2.266 1_565 S
O45 C42 1.252 1_565 S
O46 In39 2.327 . S
O46 C42 1.260 . S
O47 In39 2.267 . S
O47 C44 1.252 1_545 S
O48 In39 2.324 1_565 S
O48 C44 1.260 . S
C49 O40 1.240 . S
C49 O41 1.252 . S
O50 In39 2.296 . S
O50 C43 1.240 . S
O51 In39 2.327 . S
O51 C43 1.252 . S
In52 O53 2.294 1_545 S
In52 O54 2.327 . S
In52 O58 2.266 1_545 S
In52 O59 2.325 1_545 S
In52 O60 2.267 . S
In52 O61 2.326 . S
In52 O63 2.294 . S
In52 O64 2.326 1_545 S
O53 In52 2.294 1_565 S
O53 C62 1.240 1_565 S
O54 In52 2.327 . S
O54 C62 1.252 . S
C55 O58 1.252 . S
C55 O59 1.260 . S
C56 O63 1.240 1_565 S
C56 O64 1.252 . S
C57 O60 1.252 . S
C57 O61 1.260 . S
O58 In52 2.266 1_565 S
O58 C55 1.252 . S
O59 In52 2.325 1_565 S
O59 C55 1.260 . S
O60 In52 2.267 . S
O60 C57 1.252 . S
O61 In52 2.326 . S
O61 C57 1.260 . S
C62 O53 1.240 1_545 S
C62 O54 1.252 . S
O63 In52 2.294 . S
O63 C56 1.240 1_545 S
O64 In52 2.326 1_565 S
O64 C56 1.252 . S
In65 O66 2.291 1_455 S
In65 O67 2.325 1_455 S
In65 O71 2.265 1_455 S
In65 O72 2.327 . S
In65 O73 2.267 . S
In65 O74 2.324 1_455 S
In65 O76 2.297 . S
In65 O77 2.327 . S
O66 In65 2.291 1_655 S
O66 C75 1.240 . S
O67 In65 2.325 1_655 S
O67 C75 1.252 . S
C68 O71 1.252 1_455 S
C68 O72 1.260 . S
C69 O76 1.240 . S
C69 O77 1.252 . S
C70 O73 1.252 1_655 S
C70 O74 1.260 . S
O71 In65 2.265 1_655 S
O71 C68 1.252 1_655 S
O72 In65 2.327 . S
O72 C68 1.260 . S
O73 In65 2.267 . S
O73 C70 1.252 1_455 S
O74 In65 2.324 1_655 S
O74 C70 1.260 . S
C75 O66 1.240 . S
C75 O67 1.252 . S
O76 In65 2.297 . S
O76 C69 1.240 . S
O77 In65 2.327 . S
O77 C69 1.252 . S
In78 O79 2.295 . S
In78 O80 2.324 1_545 S
In78 O84 2.269 . S
In78 O85 2.327 . S
In78 O86 2.263 1_545 S
In78 O87 2.324 1_545 S
In78 O89 2.293 1_545 S
In78 O90 2.328 . S
O79 In78 2.295 . S
O79 C88 1.240 1_545 S
O80 In78 2.324 1_565 S
O80 C88 1.252 . S
C81 O84 1.252 . S
C81 O85 1.260 . S
C82 O89 1.240 1_545 S
C82 O90 1.252 . S
C83 O86 1.252 . S
C83 O87 1.260 . S
O84 In78 2.269 . S
O84 C81 1.252 . S
O85 In78 2.327 . S
O85 C81 1.260 . S
O86 In78 2.263 1_565 S
O86 C83 1.252 . S
O87 In78 2.324 1_565 S
O87 C83 1.260 . S
C88 O79 1.240 1_565 S
C88 O80 1.252 . S
O89 In78 2.293 1_565 S
O89 C82 1.240 1_565 S
O90 In78 2.328 . S
O90 C82 1.252 . S
In91 O92 2.294 . S
In91 O93 2.326 . S
In91 O97 2.266 . S
In91 O98 2.325 1_455 S
In91 O99 2.266 1_455 S
In91 O100 2.326 . S
In91 O102 2.293 1_455 S
In91 O103 2.326 1_455 S
O92 In91 2.294 . S
O92 C101 1.240 . S
O93 In91 2.326 . S
O93 C101 1.252 . S
C94 O97 1.252 1_655 S
C94 O98 1.260 . S
C95 O102 1.240 . S
C95 O103 1.252 . S
C96 O99 1.252 1_455 S
C96 O100 1.260 . S
O97 In91 2.266 . S
O97 C94 1.252 1_455 S
O98 In91 2.325 1_655 S
O98 C94 1.260 . S
O99 In91 2.266 1_655 S
O99 C96 1.252 1_655 S
O100 In91 2.326 . S
O100 C96 1.260 . S
C101 O92 1.240 . S
C101 O93 1.252 . S
O102 In91 2.293 1_655 S
O102 C95 1.240 . S
O103 In91 2.326 1_655 S
O103 C95 1.252 . S
In104 O105 2.297 . S
In104 O106 2.328 . S
In104 O110 2.267 . S
In104 O111 2.324 1_554 S
In104 O112 2.265 1_554 S
In104 O113 2.328 . S
In104 O115 2.291 1_554 S
In104 O116 2.325 1_554 S
O105 In104 2.297 . S
O105 C114 1.240 . S
O106 In104 2.328 . S
O106 C114 1.252 . S
C107 O110 1.252 1_556 S
C107 O111 1.260 . S
C108 O115 1.240 . S
C108 O116 1.252 . S
C109 O112 1.252 1_554 S
C109 O113 1.260 . S
O110 In104 2.267 . S
O110 C107 1.252 1_554 S
O111 In104 2.324 1_556 S
O111 C107 1.260 . S
O112 In104 2.265 1_556 S
O112 C109 1.252 1_556 S
O113 In104 2.328 . S
O113 C109 1.260 . S
C114 O105 1.240 . S
C114 O106 1.252 . S
O115 In104 2.291 1_556 S
O115 C108 1.240 . S
O116 In104 2.325 1_556 S
O116 C108 1.252 . S
In117 O118 2.299 . S
In117 O119 2.329 . S
In117 O123 2.268 . S
In117 O124 2.322 1_554 S
In117 O125 2.264 1_554 S
In117 O126 2.329 . S
In117 O128 2.289 1_554 S
In117 O129 2.324 1_554 S
O118 In117 2.299 . S
O118 C127 1.240 . S
O119 In117 2.329 . S
O119 C127 1.252 . S
C120 O123 1.252 1_556 S
C120 O124 1.260 . S
C121 O128 1.240 . S
C121 O129 1.252 . S
C122 O125 1.252 1_554 S
C122 O126 1.260 . S
O123 In117 2.268 . S
O123 C120 1.252 1_554 S
O124 In117 2.322 1_556 S
O124 C120 1.260 . S
O125 In117 2.264 1_556 S
O125 C122 1.252 1_556 S
O126 In117 2.329 . S
O126 C122 1.260 . S
C127 O118 1.240 . S
C127 O119 1.252 . S
O128 In117 2.289 1_556 S
O128 C121 1.240 . S
O129 In117 2.324 1_556 S
O129 C121 1.252 . S
In130 O131 2.292 1_554 S
In130 O132 2.330 . S
In130 O136 2.261 1_554 S
In130 O137 2.323 1_554 S
In130 O138 2.271 . S
In130 O139 2.328 . S
In130 O141 2.296 . S
In130 O142 2.323 1_554 S
O131 In130 2.292 1_556 S
O131 C140 1.240 1_556 S
O132 In130 2.330 . S
O132 C140 1.252 . S
C133 O136 1.252 . S
C133 O137 1.260 . S
C134 O141 1.240 1_556 S
C134 O142 1.252 . S
C135 O138 1.252 . S
C135 O139 1.260 . S
O136 In130 2.261 1_556 S
O136 C133 1.252 . S
O137 In130 2.323 1_556 S
O137 C133 1.260 . S
O138 In130 2.271 . S
O138 C135 1.252 . S
O139 In130 2.328 . S
O139 C135 1.260 . S
C140 O131 1.240 1_554 S
C140 O132 1.252 . S
O141 In130 2.296 . S
O141 C134 1.240 1_554 S
O142 In130 2.323 1_556 S
O142 C134 1.252 . S
In143 O144 2.295 . S
In143 O145 2.324 1_554 S
In143 O149 2.269 . S
In143 O150 2.327 . S
In143 O151 2.263 1_554 S
In143 O152 2.324 1_554 S
In143 O154 2.293 1_554 S
In143 O155 2.328 . S
O144 In143 2.295 . S
O144 C153 1.240 1_554 S
O145 In143 2.324 1_556 S
O145 C153 1.252 . S
C146 O149 1.252 . S
C146 O150 1.260 . S
C147 O154 1.240 1_554 S
C147 O155 1.252 . S
C148 O151 1.252 . S
C148 O152 1.260 . S
O149 In143 2.269 . S
O149 C146 1.252 . S
O150 In143 2.327 . S
O150 C146 1.260 . S
O151 In143 2.263 1_556 S
O151 C148 1.252 . S
O152 In143 2.324 1_556 S
O152 C148 1.260 . S
C153 O144 1.240 1_556 S
C153 O145 1.252 . S
O154 In143 2.293 1_556 S
O154 C147 1.240 1_556 S
O155 In143 2.328 . S
O155 C147 1.252 . S
H156 C162 0.930 . S
H157 C165 0.930 . S
H158 C166 0.930 . S
H159 C167 0.930 . S
H160 C170 0.930 . S
H161 C171 0.930 . S
C162 H156 0.930 . S
C162 C163 1.355 1_455 S
C162 C164 1.415 . S
C163 C162 1.355 1_655 S
C163 C165 1.419 . S
C164 C162 1.415 . S
C164 C169 1.425 1_455 S
C164 C171 1.409 . S
C165 H157 0.930 . S
C165 C163 1.419 . S
C165 C166 1.362 . S
C166 H158 0.930 . S
C166 C165 1.362 . S
C166 C169 1.409 . S
C167 H159 0.930 . S
C167 C168 1.355 1_655 S
C167 C169 1.415 . S
C168 C167 1.355 1_455 S
C168 C170 1.419 . S
C169 C164 1.425 1_655 S
C169 C166 1.409 . S
C169 C167 1.415 . S
C170 H160 0.930 . S
C170 C168 1.419 . S
C170 C171 1.362 . S
C171 H161 0.930 . S
C171 C164 1.409 . S
C171 C170 1.362 . S
H172 C178 0.930 . S
H173 C181 0.930 . S
H174 C182 0.930 . S
H175 C183 0.930 . S
H176 C186 0.930 . S
H177 C187 0.930 . S
C178 H172 0.930 . S
C178 C179 1.355 1_545 S
C178 C180 1.415 . S
C179 C178 1.355 1_565 S
C179 C181 1.419 . S
C180 C178 1.415 . S
C180 C185 1.425 1_545 S
C180 C187 1.409 . S
C181 H173 0.930 . S
C181 C179 1.419 . S
C181 C182 1.362 . S
C182 H174 0.930 . S
C182 C181 1.362 . S
C182 C185 1.409 . S
C183 H175 0.930 . S
C183 C184 1.355 1_565 S
C183 C185 1.415 . S
C184 C183 1.355 1_545 S
C184 C186 1.419 . S
C185 C180 1.425 1_565 S
C185 C182 1.409 . S
C185 C183 1.415 . S
C186 H176 0.930 . S
C186 C184 1.419 . S
C186 C187 1.362 . S
C187 H177 0.930 . S
C187 C180 1.409 . S
C187 C186 1.362 . S
H188 C194 0.930 . S
H189 C197 0.930 . S
H190 C198 0.930 . S
H191 C199 0.930 . S
H192 C202 0.930 . S
H193 C203 0.930 . S
C194 H188 0.930 . S
C194 C195 1.355 . S
C194 C196 1.415 . S
C195 C194 1.355 . S
C195 C197 1.419 1_655 S
C196 C194 1.415 . S
C196 C201 1.425 1_655 S
C196 C203 1.409 . S
C197 H189 0.930 . S
C197 C195 1.419 1_455 S
C197 C198 1.362 . S
C198 H190 0.930 . S
C198 C197 1.362 . S
C198 C201 1.409 . S
C199 H191 0.930 . S
C199 C200 1.355 . S
C199 C201 1.415 . S
C200 C199 1.355 . S
C200 C202 1.419 1_455 S
C201 C196 1.425 1_455 S
C201 C198 1.409 . S
C201 C199 1.415 . S
C202 H192 0.930 . S
C202 C200 1.419 1_655 S
C202 C203 1.362 . S
C203 H193 0.930 . S
C203 C196 1.409 . S
C203 C202 1.362 . S
H204 C210 0.930 . S
H205 C213 0.930 . S
H206 C214 0.930 . S
H207 C215 0.930 . S
H208 C218 0.930 . S
H209 C219 0.930 . S
C210 H204 0.930 . S
C210 C211 1.355 . S
C210 C212 1.410 1_545 S
C211 C210 1.355 . S
C211 C213 1.419 . S
C212 C210 1.410 1_565 S
C212 C217 1.424 1_565 S
C212 C219 1.416 . S
C213 H205 0.930 . S
C213 C211 1.419 . S
C213 C214 1.362 . S
C214 H206 0.930 . S
C214 C213 1.362 . S
C214 C217 1.409 . S
C215 H207 0.930 . S
C215 C216 1.355 . S
C215 C217 1.415 1_565 S
C216 C215 1.355 . S
C216 C218 1.419 . S
C217 C212 1.424 1_545 S
C217 C214 1.409 . S
C217 C215 1.415 1_545 S
C218 H208 0.930 . S
C218 C216 1.419 . S
C218 C219 1.362 . S
C219 H209 0.930 . S
C219 C212 1.416 . S
C219 C218 1.362 . S
H220 C226 0.930 . S
H221 C229 0.930 . S
H222 C230 0.928 1_655 S
H223 C231 0.930 . S
H224 C234 0.930 . S
H225 C235 0.930 1_455 S
C226 H220 0.930 . S
C226 C227 1.355 . S
C226 C228 1.415 . S
C227 C226 1.355 . S
C227 C229 1.419 . S
C228 C226 1.415 . S
C228 C233 1.425 1_455 S
C228 C235 1.409 1_455 S
C229 H221 0.930 . S
C229 C227 1.419 . S
C229 C230 1.362 . S
C230 H222 0.928 1_455 S
C230 C229 1.362 . S
C230 C233 1.409 1_455 S
C231 H223 0.930 . S
C231 C232 1.355 . S
C231 C233 1.415 . S
C232 C231 1.355 . S
C232 C234 1.419 . S
C233 C228 1.425 1_655 S
C233 C230 1.409 1_655 S
C233 C231 1.415 . S
C234 H224 0.930 . S
C234 C232 1.419 . S
C234 C235 1.362 . S
C235 H225 0.930 1_655 S
C235 C228 1.409 1_655 S
C235 C234 1.362 . S
H236 C242 0.930 . S
H237 C245 0.930 . S
H238 C246 0.930 . S
H239 C247 0.930 . S
H240 C250 0.930 . S
H241 C251 0.930 . S
C242 H236 0.930 . S
C242 C243 1.355 . S
C242 C244 1.415 . S
C243 C242 1.355 . S
C243 C245 1.419 1_545 S
C244 C242 1.415 . S
C244 C249 1.425 1_545 S
C244 C251 1.409 . S
C245 H237 0.930 . S
C245 C243 1.419 1_565 S
C245 C246 1.362 . S
C246 H238 0.930 . S
C246 C245 1.362 . S
C246 C249 1.409 . S
C247 H239 0.930 . S
C247 C248 1.355 . S
C247 C249 1.415 . S
C248 C247 1.355 . S
C248 C250 1.419 1_565 S
C249 C244 1.425 1_565 S
C249 C246 1.409 . S
C249 C247 1.415 . S
C250 H240 0.930 . S
C250 C248 1.419 1_545 S
C250 C251 1.362 . S
C251 H241 0.930 . S
C251 C244 1.409 . S
C251 C250 1.362 . S
H252 C258 0.930 . S
H253 C261 0.930 . S
H254 C262 0.930 . S
H255 C263 0.930 . S
H256 C266 0.930 . S
H257 C267 0.930 . S
C258 H252 0.930 . S
C258 C259 1.355 . S
C258 C260 1.415 . S
C259 C258 1.355 . S
C259 C261 1.419 1_455 S
C260 C258 1.415 . S
C260 C265 1.425 1_455 S
C260 C267 1.409 . S
C261 H253 0.930 . S
C261 C259 1.419 1_655 S
C261 C262 1.362 . S
C262 H254 0.930 . S
C262 C261 1.362 . S
C262 C265 1.409 . S
C263 H255 0.930 . S
C263 C264 1.355 . S
C263 C265 1.415 . S
C264 C263 1.355 . S
C264 C266 1.419 1_655 S
C265 C260 1.425 1_655 S
C265 C262 1.409 . S
C265 C263 1.415 . S
C266 H256 0.930 . S
C266 C264 1.419 1_455 S
C266 C267 1.362 . S
C267 H257 0.930 . S
C267 C260 1.409 . S
C267 C266 1.362 . S
H268 C274 0.930 . S
H269 C277 0.930 . S
H270 C278 0.930 . S
H271 C279 0.930 . S
H272 C282 0.930 . S
H273 C283 0.930 . S
C274 H268 0.930 . S
C274 C275 1.355 . S
C274 C276 1.415 . S
C275 C274 1.355 . S
C275 C277 1.419 1_565 S
C276 C274 1.415 . S
C276 C281 1.425 1_565 S
C276 C283 1.409 . S
C277 H269 0.930 . S
C277 C275 1.419 1_545 S
C277 C278 1.362 . S
C278 H270 0.930 . S
C278 C277 1.362 . S
C278 C281 1.409 . S
C279 H271 0.930 . S
C279 C280 1.355 . S
C279 C281 1.415 . S
C280 C279 1.355 . S
C280 C282 1.419 1_545 S
C281 C276 1.425 1_545 S
C281 C278 1.409 . S
C281 C279 1.415 . S
C282 H272 0.930 . S
C282 C280 1.419 1_565 S
C282 C283 1.362 . S
C283 H273 0.930 . S
C283 C276 1.409 . S
C283 C282 1.362 . S
H284 C290 0.930 . S
H285 C293 0.930 . S
H286 C294 0.930 . S
H287 C295 0.930 . S
H288 C298 0.930 . S
H289 C299 0.930 . S
C290 H284 0.930 . S
C290 C291 1.355 . S
C290 C292 1.415 . S
C291 C290 1.355 . S
C291 C293 1.419 1_554 S
C292 C290 1.415 . S
C292 C297 1.425 1_554 S
C292 C299 1.409 . S
C293 H285 0.930 . S
C293 C291 1.419 1_556 S
C293 C294 1.362 . S
C294 H286 0.930 . S
C294 C293 1.362 . S
C294 C297 1.409 . S
C295 H287 0.930 . S
C295 C296 1.355 . S
C295 C297 1.415 . S
C296 C295 1.355 . S
C296 C298 1.419 1_556 S
C297 C292 1.425 1_556 S
C297 C294 1.409 . S
C297 C295 1.415 . S
C298 H288 0.930 . S
C298 C296 1.419 1_554 S
C298 C299 1.362 . S
C299 H289 0.930 . S
C299 C292 1.409 . S
C299 C298 1.362 . S
H300 C306 0.930 . S
H301 C309 0.930 . S
H302 C310 0.930 . S
H303 C311 0.930 . S
H304 C314 0.930 . S
H305 C315 0.930 . S
C306 H300 0.930 . S
C306 C307 1.355 1_556 S
C306 C308 1.415 . S
C307 C306 1.355 1_554 S
C307 C309 1.419 . S
C308 C306 1.415 . S
C308 C313 1.425 1_556 S
C308 C315 1.409 . S
C309 H301 0.930 . S
C309 C307 1.419 . S
C309 C310 1.362 . S
C310 H302 0.930 . S
C310 C309 1.362 . S
C310 C313 1.409 . S
C311 H303 0.930 . S
C311 C312 1.355 1_554 S
C311 C313 1.415 . S
C312 C311 1.355 1_556 S
C312 C314 1.419 . S
C313 C308 1.425 1_554 S
C313 C310 1.409 . S
C313 C311 1.415 . S
C314 H304 0.930 . S
C314 C312 1.419 . S
C314 C315 1.362 . S
C315 H305 0.930 . S
C315 C308 1.409 . S
C315 C314 1.362 . S
H316 C322 0.930 . S
H317 C325 0.930 . S
H318 C326 0.930 . S
H319 C327 0.930 . S
H320 C330 0.930 . S
H321 C331 0.930 . S
C322 H316 0.930 . S
C322 C323 1.355 1_554 S
C322 C324 1.415 . S
C323 C322 1.355 1_556 S
C323 C325 1.419 . S
C324 C322 1.415 . S
C324 C329 1.425 1_554 S
C324 C331 1.409 . S
C325 H317 0.930 . S
C325 C323 1.419 . S
C325 C326 1.362 . S
C326 H318 0.930 . S
C326 C325 1.362 . S
C326 C329 1.409 . S
C327 H319 0.930 . S
C327 C328 1.355 1_556 S
C327 C329 1.415 . S
C328 C327 1.355 1_554 S
C328 C330 1.419 . S
C329 C324 1.425 1_556 S
C329 C326 1.409 . S
C329 C327 1.415 . S
C330 H320 0.930 . S
C330 C328 1.419 . S
C330 C331 1.362 . S
C331 H321 0.930 . S
C331 C324 1.409 . S
C331 C330 1.362 . S
H332 C338 0.930 . S
H333 C341 0.930 . S
H334 C342 0.930 . S
H335 C343 0.930 . S
H336 C346 0.930 . S
H337 C347 0.930 . S
C338 H332 0.930 . S
C338 C339 1.355 1_554 S
C338 C340 1.415 . S
C339 C338 1.355 1_556 S
C339 C341 1.419 . S
C340 C338 1.415 . S
C340 C345 1.425 1_554 S
C340 C347 1.409 . S
C341 H333 0.930 . S
C341 C339 1.419 . S
C341 C342 1.362 . S
C342 H334 0.930 . S
C342 C341 1.362 . S
C342 C345 1.409 . S
C343 H335 0.930 . S
C343 C344 1.355 1_556 S
C343 C345 1.415 . S
C344 C343 1.355 1_554 S
C344 C346 1.419 . S
C345 C340 1.425 1_556 S
C345 C342 1.409 . S
C345 C343 1.415 . S
C346 H336 0.930 . S
C346 C344 1.419 . S
C346 C347 1.362 . S
C347 H337 0.930 . S
C347 C340 1.409 . S
C347 C346 1.362 . S
H348 C354 0.930 . S
H349 C357 0.930 . S
H350 C358 0.930 . S
H351 C359 0.930 . S
H352 C362 0.930 . S
H353 C363 0.930 . S
C354 H348 0.930 . S
C354 C355 1.355 . S
C354 C356 1.415 . S
C355 C354 1.355 . S
C355 C357 1.419 . S
C356 C354 1.415 . S
C356 C361 1.425 . S
C356 C363 1.409 . S
C357 H349 0.930 . S
C357 C355 1.419 . S
C357 C358 1.362 . S
C358 H350 0.930 . S
C358 C357 1.362 . S
C358 C361 1.409 . S
C359 H351 0.930 . S
C359 C360 1.355 . S
C359 C361 1.415 . S
C360 C359 1.355 . S
C360 C362 1.419 . S
C361 C356 1.425 . S
C361 C358 1.409 . S
C361 C359 1.415 . S
C362 H352 0.930 . S
C362 C360 1.419 . S
C362 C363 1.362 . S
C363 H353 0.930 . S
C363 C356 1.409 . S
C363 C362 1.362 . S
H364 C370 0.930 . S
H365 C373 0.930 . S
H366 C374 0.930 . S
H367 C375 0.930 . S
H368 C378 0.930 . S
H369 C379 0.930 . S
C370 H364 0.930 . S
C370 C371 1.355 . S
C370 C372 1.415 . S
C371 C370 1.355 . S
C371 C373 1.419 . S
C372 C370 1.415 . S
C372 C377 1.425 . S
C372 C379 1.409 . S
C373 H365 0.930 . S
C373 C371 1.419 . S
C373 C374 1.362 . S
C374 H366 0.930 . S
C374 C373 1.362 . S
C374 C377 1.409 . S
C375 H367 0.930 . S
C375 C376 1.355 . S
C375 C377 1.415 . S
C376 C375 1.355 . S
C376 C378 1.419 . S
C377 C372 1.425 . S
C377 C374 1.409 . S
C377 C375 1.415 . S
C378 H368 0.930 . S
C378 C376 1.419 . S
C378 C379 1.362 . S
C379 H369 0.930 . S
C379 C372 1.409 . S
C379 C378 1.362 . S
H380 C386 0.930 . S
H381 C389 0.930 . S
H382 C390 0.930 . S
H383 C391 0.930 . S
H384 C394 0.930 . S
H385 C395 0.930 . S
C386 H380 0.930 . S
C386 C387 1.355 . S
C386 C388 1.415 . S
C387 C386 1.355 . S
C387 C389 1.419 . S
C388 C386 1.415 . S
C388 C393 1.425 . S
C388 C395 1.409 . S
C389 H381 0.930 . S
C389 C387 1.419 . S
C389 C390 1.362 . S
C390 H382 0.930 . S
C390 C389 1.362 . S
C390 C393 1.409 . S
C391 H383 0.930 . S
C391 C392 1.355 . S
C391 C393 1.415 . S
C392 C391 1.355 . S
C392 C394 1.419 . S
C393 C388 1.425 . S
C393 C390 1.409 . S
C393 C391 1.415 . S
C394 H384 0.930 . S
C394 C392 1.419 . S
C394 C395 1.362 . S
C395 H385 0.930 . S
C395 C388 1.409 . S
C395 C394 1.362 . S
H396 C402 0.930 . S
H397 C405 0.930 . S
H398 C406 0.930 . S
H399 C407 0.930 . S
H400 C410 0.930 . S
H401 C411 0.930 . S
C402 H396 0.930 . S
C402 C403 1.355 . S
C402 C404 1.415 . S
C403 C402 1.355 . S
C403 C405 1.419 . S
C404 C402 1.415 . S
C404 C409 1.425 . S
C404 C411 1.409 . S
C405 H397 0.930 . S
C405 C403 1.419 . S
C405 C406 1.362 . S
C406 H398 0.930 . S
C406 C405 1.362 . S
C406 C409 1.409 . S
C407 H399 0.930 . S
C407 C408 1.355 . S
C407 C409 1.415 . S
C408 C407 1.355 . S
C408 C410 1.419 . S
C409 C404 1.425 . S
C409 C406 1.409 . S
C409 C407 1.415 . S
C410 H400 0.930 . S
C410 C408 1.419 . S
C410 C411 1.362 . S
C411 H401 0.930 . S
C411 C404 1.409 . S
C411 C410 1.362 . S
H412 C418 0.930 . S
H413 C421 0.930 . S
H414 C422 0.930 . S
H415 C423 0.930 . S
H416 C426 0.930 . S
H417 C427 0.930 . S
C418 H412 0.930 . S
C418 C419 1.355 . S
C418 C420 1.415 . S
C419 C418 1.355 . S
C419 C421 1.419 . S
C420 C418 1.415 . S
C420 C425 1.425 . S
C420 C427 1.409 . S
C421 H413 0.930 . S
C421 C419 1.419 . S
C421 C422 1.362 . S
C422 H414 0.930 . S
C422 C421 1.362 . S
C422 C425 1.409 . S
C423 H415 0.930 . S
C423 C424 1.355 . S
C423 C425 1.415 . S
C424 C423 1.355 . S
C424 C426 1.419 . S
C425 C420 1.425 . S
C425 C422 1.409 . S
C425 C423 1.415 . S
C426 H416 0.930 . S
C426 C424 1.419 . S
C426 C427 1.362 . S
C427 H417 0.930 . S
C427 C420 1.409 . S
C427 C426 1.362 . S
H428 C434 0.930 . S
H429 C437 0.930 . S
H430 C438 0.930 . S
H431 C439 0.930 . S
H432 C442 0.930 . S
H433 C443 0.930 . S
C434 H428 0.930 . S
C434 C435 1.355 . S
C434 C436 1.415 . S
C435 C434 1.355 . S
C435 C437 1.419 . S
C436 C434 1.415 . S
C436 C441 1.425 . S
C436 C443 1.409 . S
C437 H429 0.930 . S
C437 C435 1.419 . S
C437 C438 1.362 . S
C438 H430 0.930 . S
C438 C437 1.362 . S
C438 C441 1.409 . S
C439 H431 0.930 . S
C439 C440 1.355 . S
C439 C441 1.415 . S
C440 C439 1.355 . S
C440 C442 1.419 . S
C441 C436 1.425 . S
C441 C438 1.409 . S
C441 C439 1.415 . S
C442 H432 0.930 . S
C442 C440 1.419 . S
C442 C443 1.362 . S
C443 H433 0.930 . S
C443 C436 1.409 . S
C443 C442 1.362 . S
H444 C450 0.930 . S
H445 C453 0.930 . S
H446 C454 0.930 . S
H447 C455 0.930 . S
H448 C458 0.930 . S
H449 C459 0.930 . S
C450 H444 0.930 . S
C450 C451 1.355 . S
C450 C452 1.415 . S
C451 C450 1.355 . S
C451 C453 1.419 . S
C452 C450 1.415 . S
C452 C457 1.425 . S
C452 C459 1.409 . S
C453 H445 0.930 . S
C453 C451 1.419 . S
C453 C454 1.362 . S
C454 H446 0.930 . S
C454 C453 1.362 . S
C454 C457 1.409 . S
C455 H447 0.930 . S
C455 C456 1.355 . S
C455 C457 1.415 . S
C456 C455 1.355 . S
C456 C458 1.419 . S
C457 C452 1.425 . S
C457 C454 1.409 . S
C457 C455 1.415 . S
C458 H448 0.930 . S
C458 C456 1.419 . S
C458 C459 1.362 . S
C459 H449 0.930 . S
C459 C452 1.409 . S
C459 C458 1.362 . S
H460 C466 0.930 . S
H461 C469 0.930 . S
H462 C470 0.930 . S
H463 C471 0.930 . S
H464 C474 0.930 . S
H465 C475 0.930 . S
C466 H460 0.930 . S
C466 C467 1.355 . S
C466 C468 1.415 . S
C467 C466 1.355 . S
C467 C469 1.419 . S
C468 C466 1.415 . S
C468 C473 1.425 . S
C468 C475 1.409 . S
C469 H461 0.930 . S
C469 C467 1.419 . S
C469 C470 1.362 . S
C470 H462 0.930 . S
C470 C469 1.362 . S
C470 C473 1.409 . S
C471 H463 0.930 . S
C471 C472 1.355 . S
C471 C473 1.415 . S
C472 C471 1.355 . S
C472 C474 1.419 . S
C473 C468 1.425 . S
C473 C470 1.409 . S
C473 C471 1.415 . S
C474 H464 0.930 . S
C474 C472 1.419 . S
C474 C475 1.362 . S
C475 H465 0.930 . S
C475 C468 1.409 . S
C475 C474 1.362 . S
H476 C482 0.930 . S
H477 C485 0.930 . S
H478 C486 0.930 . S
H479 C487 0.930 . S
H480 C490 0.930 . S
H481 C491 0.930 . S
C482 H476 0.930 . S
C482 C483 1.355 . S
C482 C484 1.415 . S
C483 C482 1.355 . S
C483 C485 1.419 . S
C484 C482 1.415 . S
C484 C489 1.425 . S
C484 C491 1.409 . S
C485 H477 0.930 . S
C485 C483 1.419 . S
C485 C486 1.362 . S
C486 H478 0.930 . S
C486 C485 1.362 . S
C486 C489 1.409 . S
C487 H479 0.930 . S
C487 C488 1.355 . S
C487 C489 1.415 . S
C488 C487 1.355 . S
C488 C490 1.419 . S
C489 C484 1.425 . S
C489 C486 1.409 . S
C489 C487 1.415 . S
C490 H480 0.930 . S
C490 C488 1.419 . S
C490 C491 1.362 . S
C491 H481 0.930 . S
C491 C484 1.409 . S
C491 C490 1.362 . S
H492 C498 0.930 . S
H493 C501 0.930 . S
H494 C502 0.930 . S
H495 C503 0.930 . S
H496 C506 0.930 . S
H497 C507 0.930 . S
C498 H492 0.930 . S
C498 C499 1.355 . S
C498 C500 1.415 . S
C499 C498 1.355 . S
C499 C501 1.419 . S
C500 C498 1.415 . S
C500 C505 1.425 . S
C500 C507 1.409 . S
C501 H493 0.930 . S
C501 C499 1.419 . S
C501 C502 1.362 . S
C502 H494 0.930 . S
C502 C501 1.362 . S
C502 C505 1.409 . S
C503 H495 0.930 . S
C503 C504 1.355 . S
C503 C505 1.415 . S
C504 C503 1.355 . S
C504 C506 1.419 . S
C505 C500 1.425 . S
C505 C502 1.409 . S
C505 C503 1.415 . S
C506 H496 0.930 . S
C506 C504 1.419 . S
C506 C507 1.362 . S
C507 H497 0.930 . S
C507 C500 1.409 . S
C507 C506 1.362 . S
H508 C514 0.930 . S
H509 C517 0.930 . S
H510 C518 0.930 . S
H511 C519 0.930 . S
H512 C522 0.930 . S
H513 C523 0.930 . S
C514 H508 0.930 . S
C514 C515 1.355 . S
C514 C516 1.415 . S
C515 C514 1.355 . S
C515 C517 1.419 . S
C516 C514 1.415 . S
C516 C521 1.425 . S
C516 C523 1.409 . S
C517 H509 0.930 . S
C517 C515 1.419 . S
C517 C518 1.362 . S
C518 H510 0.930 . S
C518 C517 1.362 . S
C518 C521 1.409 . S
C519 H511 0.930 . S
C519 C520 1.355 . S
C519 C521 1.415 . S
C520 C519 1.355 . S
C520 C522 1.419 . S
C521 C516 1.425 . S
C521 C518 1.409 . S
C521 C519 1.415 . S
C522 H512 0.930 . S
C522 C520 1.419 . S
C522 C523 1.362 . S
C523 H513 0.930 . S
C523 C516 1.409 . S
C523 C522 1.362 . S
H524 C530 0.930 . S
H525 C533 0.930 . S
H526 C534 0.930 . S
H527 C535 0.930 . S
H528 C538 0.930 . S
H529 C539 0.930 . S
C530 H524 0.930 . S
C530 C531 1.355 . S
C530 C532 1.415 . S
C531 C530 1.355 . S
C531 C533 1.419 . S
C532 C530 1.415 . S
C532 C537 1.425 . S
C532 C539 1.409 . S
C533 H525 0.930 . S
C533 C531 1.419 . S
C533 C534 1.362 . S
C534 H526 0.930 . S
C534 C533 1.362 . S
C534 C537 1.409 . S
C535 H527 0.930 . S
C535 C536 1.355 . S
C535 C537 1.415 . S
C536 C535 1.355 . S
C536 C538 1.419 . S
C537 C532 1.425 . S
C537 C534 1.409 . S
C537 C535 1.415 . S
C538 H528 0.930 . S
C538 C536 1.419 . S
C538 C539 1.362 . S
C539 H529 0.930 . S
C539 C532 1.409 . S
C539 C538 1.362 . S
C163 C5 1.604 . S
C168 C68 1.604 . S
C179 C17 1.589 . S
C184 C62 1.590 . S
C195 C70 1.559 . S
C200 C30 1.553 . S
C211 C42 1.593 . S
C216 C56 1.588 . S
C227 C96 1.570 . S
C232 C36 1.567 . S
C243 C82 1.567 . S
C248 C44 1.572 . S
C259 C3 1.580 . S
C264 C94 1.580 . S
C275 C88 1.573 . S
C280 C23 1.569 . S
C291 C122 1.592 . S
C296 C107 1.592 . S
C307 C109 1.594 . S
C312 C153 1.590 . S
C323 C120 1.590 . S
C328 C140 1.588 . S
C339 C134 1.569 . S
C344 C147 1.573 . S
C355 C148 1.574 . S
C360 C83 1.574 . S
C371 C108 1.577 . S
C376 C101 1.574 . S
C387 C81 1.566 . S
C392 C121 1.562 . S
C403 C95 1.575 . S
C408 C133 1.582 . S
C419 C57 1.578 . S
C424 C127 1.571 . S
C435 C75 1.598 . S
C440 C135 1.599 . S
C451 C146 1.574 . S
C456 C55 1.574 . S
C467 C114 1.558 . S
C472 C69 1.561 . S
C483 C16 1.608 . S
C488 C31 1.608 . S
C499 C10 1.592 . S
C504 C18 1.594 . S
C515 C29 1.574 . S
C520 C49 1.571 . S
C531 C4 1.586 . S
C536 C43 1.585 . S
