# Generated by pormake.
# Topology msp, (4)-cn, num edge types: 1
# Building blocks:
#     Node 0, Type 0, BuildingBlock: GALJAG_clean_sbu_0, # of connection points: 4
#     Node 1, Type 0, BuildingBlock: GALJAG_clean_sbu_0, # of connection points: 4
#     Node 2, Type 0, BuildingBlock: GALJAG_clean_sbu_0, # of connection points: 4
#     Node 3, Type 0, BuildingBlock: GALJAG_clean_sbu_0, # of connection points: 4
#     Node 4, Type 0, BuildingBlock: GALJAG_clean_sbu_0, # of connection points: 4
#     Node 5, Type 0, BuildingBlock: GALJAG_clean_sbu_0, # of connection points: 4
#     Node 6, Type 0, BuildingBlock: GALJAG_clean_sbu_0, # of connection points: 4
#     Node 7, Type 0, BuildingBlock: GALJAG_clean_sbu_0, # of connection points: 4
#     Edge 8, Type (0, 0), BuildingBlock: FUNLAD_clean_linker_1, # of connection points: 2
#     Edge 9, Type (0, 0), BuildingBlock: FUNLAD_clean_linker_1, # of connection points: 2
#     Edge 10, Type (0, 0), BuildingBlock: FUNLAD_clean_linker_1, # of connection points: 2
#     Edge 11, Type (0, 0), BuildingBlock: FUNLAD_clean_linker_1, # of connection points: 2
#     Edge 12, Type (0, 0), BuildingBlock: FUNLAD_clean_linker_1, # of connection points: 2
#     Edge 13, Type (0, 0), BuildingBlock: FUNLAD_clean_linker_1, # of connection points: 2
#     Edge 14, Type (0, 0), BuildingBlock: FUNLAD_clean_linker_1, # of connection points: 2
#     Edge 15, Type (0, 0), BuildingBlock: FUNLAD_clean_linker_1, # of connection points: 2
#     Edge 16, Type (0, 0), BuildingBlock: FUNLAD_clean_linker_1, # of connection points: 2
#     Edge 17, Type (0, 0), BuildingBlock: FUNLAD_clean_linker_1, # of connection points: 2
#     Edge 18, Type (0, 0), BuildingBlock: FUNLAD_clean_linker_1, # of connection points: 2
#     Edge 19, Type (0, 0), BuildingBlock: FUNLAD_clean_linker_1, # of connection points: 2
#     Edge 20, Type (0, 0), BuildingBlock: FUNLAD_clean_linker_1, # of connection points: 2
#     Edge 21, Type (0, 0), BuildingBlock: FUNLAD_clean_linker_1, # of connection points: 2
#     Edge 22, Type (0, 0), BuildingBlock: FUNLAD_clean_linker_1, # of connection points: 2
#     Edge 23, Type (0, 0), BuildingBlock: FUNLAD_clean_linker_1, # of connection points: 2
# Relax obj value: 0.108
# Max RMSD: 0.183
# Mean RMSD: 0.183
data_MOF--net-msp--node1-GALJAG_clean_sbu_0--edge1-FUNLAD_clean_linker_1
_symmetry_space_group_name_H-M    P1
_symmetry_Int_Tables_number       1
_symmetry_cell_setting            triclinic
loop_
_symmetry_equiv_pos_as_xyz
'x, y, z'
_cell_length_a     22.526564
_cell_length_b     22.250765
_cell_length_c     45.416413
_cell_angle_alpha  90.102483
_cell_angle_beta   99.697783
_cell_angle_gamma 90.029546
loop_
_atom_site_label
_atom_site_type_symbol
_atom_site_fract_x
_atom_site_fract_y
_atom_site_fract_z
_atom_type_partial_charge
In0 In 0.04697 0.28294 0.36776 0.0
O1 O 0.96756 0.2233 0.34763 0.0
O2 O 0.96397 0.31634 0.33671 0.0
C3 C 0.11605 0.20488 0.40357 0.0
C4 C 0.11327 0.29368 0.32412 0.0
C5 C 0.03251 0.36633 0.40946 0.0
O6 O 0.05925 0.20314 0.40033 0.0
O7 O 0.13708 0.24473 0.38864 0.0
O8 O 0.06466 0.37572 0.3897 0.0
O9 O 0.00707 0.3157 0.4079 0.0
C10 C 0.93883 0.26559 0.33322 0.0
O11 O 0.10293 0.33804 0.33998 0.0
O12 O 0.08927 0.24474 0.32993 0.0
In13 In 0.45601 0.29047 0.6354 0.0
O14 O 0.53981 0.24199 0.6589 0.0
O15 O 0.52236 0.33136 0.67269 0.0
C16 C 0.39788 0.21534 0.59427 0.0
C17 C 0.37366 0.29662 0.67179 0.0
C18 C 0.49534 0.36479 0.59649 0.0
O19 O 0.43548 0.19553 0.61594 0.0
O20 O 0.39024 0.27145 0.59383 0.0
O21 O 0.45166 0.37865 0.60952 0.0
O22 O 0.5197 0.31466 0.60374 0.0
C23 C 0.55615 0.28588 0.67619 0.0
O24 O 0.38754 0.34237 0.65787 0.0
O25 O 0.40082 0.24895 0.66708 0.0
In26 In 0.96648 0.71581 0.63142 0.0
O27 O 0.91009 0.67277 0.66297 0.0
O28 O 0.91906 0.76823 0.66356 0.0
C29 C 0.97376 0.61974 0.59563 0.0
C30 C 0.07443 0.73556 0.66605 0.0
C31 C 0.90786 0.78781 0.58853 0.0
O32 O 0.94014 0.62027 0.61519 0.0
O33 O 0.00513 0.66648 0.59485 0.0
O34 O 0.96456 0.78823 0.59533 0.0
O35 O 0.88146 0.75237 0.60368 0.0
C36 C 0.89681 0.72229 0.67384 0.0
O37 O 0.04725 0.77554 0.64932 0.0
O38 O 0.04807 0.68539 0.6648 0.0
In39 In 0.52727 0.70824 0.36856 0.0
O40 O 0.446 0.7569 0.34216 0.0
O41 O 0.4514 0.66137 0.33839 0.0
C42 C 0.58978 0.79081 0.40447 0.0
C43 C 0.59811 0.6969 0.32714 0.0
C44 C 0.50562 0.63459 0.41242 0.0
O45 O 0.53324 0.79465 0.39699 0.0
O46 O 0.61355 0.74708 0.39323 0.0
O47 O 0.54515 0.62232 0.39654 0.0
O48 O 0.47686 0.68253 0.4057 0.0
C49 C 0.4226 0.70884 0.3305 0.0
O50 O 0.59155 0.65446 0.34487 0.0
O51 O 0.56854 0.7441 0.33022 0.0
In52 In 0.55001 0.79212 0.87042 0.0
O53 O 0.5934 0.85407 0.83991 0.0
O54 O 0.59521 0.75921 0.83277 0.0
C55 C 0.52165 0.86861 0.91214 0.0
C56 C 0.4451 0.75846 0.83692 0.0
C57 C 0.6347 0.72804 0.90579 0.0
O58 O 0.55414 0.88445 0.89338 0.0
O59 O 0.50233 0.81545 0.90926 0.0
O60 O 0.58055 0.71049 0.90022 0.0
O61 O 0.64537 0.77665 0.89359 0.0
C62 C 0.60994 0.81087 0.82503 0.0
O63 O 0.4785 0.72169 0.85318 0.0
O64 O 0.46387 0.81203 0.83817 0.0
In65 In 0.94569 0.75481 0.12769 0.0
O66 O 0.02962 0.71246 0.15528 0.0
O67 O 0.02169 0.80787 0.15493 0.0
C68 C 0.89129 0.66063 0.09675 0.0
C69 C 0.87395 0.77108 0.1684 0.0
C70 C 0.95677 0.82621 0.08099 0.0
O71 O 0.94751 0.66863 0.09977 0.0
O72 O 0.86377 0.69849 0.10999 0.0
O73 O 0.92171 0.83947 0.09904 0.0
O74 O 0.98559 0.77799 0.08661 0.0
C75 C 0.05212 0.76246 0.16459 0.0
O76 O 0.87564 0.80853 0.14759 0.0
O77 O 0.90878 0.72648 0.16871 0.0
In78 In 0.46586 0.24419 0.12522 0.0
O79 O 0.41506 0.18323 0.15306 0.0
O80 O 0.41376 0.27808 0.16026 0.0
C81 C 0.50322 0.17093 0.08466 0.0
C82 C 0.5674 0.273 0.16253 0.0
C83 C 0.38717 0.30706 0.08623 0.0
O84 O 0.46826 0.15285 0.10187 0.0
O85 O 0.5204 0.22466 0.08858 0.0
O86 O 0.4393 0.32741 0.09594 0.0
O87 O 0.37542 0.2567 0.09645 0.0
C88 C 0.39665 0.22668 0.16713 0.0
O89 O 0.53696 0.31194 0.14625 0.0
O90 O 0.54715 0.22003 0.15951 0.0
In91 In 0.03423 0.2071 0.87403 0.0
O92 O 0.10256 0.15568 0.85133 0.0
O93 O 0.08019 0.24595 0.83802 0.0
C94 C 0.99929 0.13669 0.91598 0.0
C95 C 0.93179 0.20652 0.83466 0.0
C96 C 0.09755 0.28864 0.90983 0.0
O97 O 0.03792 0.1193 0.9005 0.0
O98 O 0.9788 0.1889 0.91024 0.0
O99 O 0.04932 0.30283 0.89269 0.0
O100 O 0.11242 0.23403 0.90897 0.0
C101 C 0.11058 0.19958 0.83471 0.0
O102 O 0.94914 0.2527 0.8501 0.0
O103 O 0.96564 0.16123 0.83936 0.0
H104 H 0.0521 0.45232 0.43353 0.0
C105 C 0.02683 0.41061 0.43307 0.0
H106 H 0.96891 0.35764 0.4544 0.0
H107 H 0.05517 0.48099 0.58039 0.0
H108 H 0.09172 0.37916 0.58948 0.0
H109 H 0.08113 0.30472 0.5486 0.0
H110 H 0.03484 0.33198 0.49834 0.0
C111 C 0.99289 0.4 0.45424 0.0
C112 C 0.99141 0.44284 0.47943 0.0
C113 C 0.01589 0.42535 0.50902 0.0
C114 C 0.02031 0.46779 0.5328 0.0
C115 C 0.04877 0.45016 0.5617 0.0
C116 C 0.07028 0.39187 0.56721 0.0
C117 C 0.06435 0.34998 0.54421 0.0
C118 C 0.03763 0.36628 0.51543 0.0
H119 H 0.94426 0.53148 0.57597 0.0
C120 C 0.97315 0.56993 0.57409 0.0
H121 H 0.03102 0.61261 0.54864 0.0
H122 H 0.93145 0.48747 0.42651 0.0
H123 H 0.88917 0.5874 0.41796 0.0
H124 H 0.89573 0.66067 0.45921 0.0
H125 H 0.94451 0.63445 0.50925 0.0
C126 C 0.00437 0.5729 0.55138 0.0
C127 C 0.99767 0.5269 0.52716 0.0
C128 C 0.96978 0.54321 0.49789 0.0
C129 C 0.96649 0.50114 0.47403 0.0
C130 C 0.93677 0.51817 0.44526 0.0
C131 C 0.91184 0.57525 0.44009 0.0
C132 C 0.9155 0.61649 0.46331 0.0
C133 C 0.94391 0.6009 0.49192 0.0
H134 H 0.45599 0.6103 0.44832 0.0
C135 C 0.49409 0.59786 0.43774 0.0
H136 H 0.57049 0.54197 0.44014 0.0
H137 H 0.57683 0.50855 0.58007 0.0
H138 H 0.66504 0.57096 0.57956 0.0
H139 H 0.68793 0.61186 0.53228 0.0
H140 H 0.62285 0.59058 0.4852 0.0
C141 C 0.5303 0.55297 0.44933 0.0
C142 C 0.5198 0.52278 0.47723 0.0
C143 C 0.55918 0.53445 0.50444 0.0
C144 C 0.54629 0.51041 0.53169 0.0
C145 C 0.58518 0.52458 0.55867 0.0
C146 C 0.63579 0.56064 0.55871 0.0
C147 C 0.64866 0.58371 0.53209 0.0
C148 C 0.6109 0.57109 0.50522 0.0
H149 H 0.5532 0.38613 0.56343 0.0
C150 C 0.51405 0.40102 0.57256 0.0
H151 H 0.43996 0.46023 0.56746 0.0
H152 H 0.43868 0.48658 0.42861 0.0
H153 H 0.35087 0.42357 0.42903 0.0
H154 H 0.3277 0.38292 0.47634 0.0
H155 H 0.39223 0.40486 0.52343 0.0
C156 C 0.48121 0.44716 0.55973 0.0
C157 C 0.49451 0.47403 0.53157 0.0
C158 C 0.45568 0.46155 0.50428 0.0
C159 C 0.46862 0.48552 0.47705 0.0
C160 C 0.43013 0.47078 0.45002 0.0
C161 C 0.37979 0.43431 0.44992 0.0
C162 C 0.36679 0.41137 0.47654 0.0
C163 C 0.4042 0.42448 0.50344 0.0
H164 H 0.5523 0.1537 0.0475 0.0
C165 C 0.52038 0.13441 0.06033 0.0
H166 H 0.46036 0.06291 0.06364 0.0
H167 H 0.43022 0.0021 0.92567 0.0
H168 H 0.33367 0.04779 0.9286 0.0
H169 H 0.31481 0.09511 0.9753 0.0
H170 H 0.39242 0.0972 0.01932 0.0
C171 C 0.4948 0.08118 0.05207 0.0
C172 C 0.50623 0.0506 0.02432 0.0
C173 C 0.45988 0.04855 0.99898 0.0
C174 C 0.47047 0.02058 0.97214 0.0
C175 C 0.42408 0.02123 0.94686 0.0
C176 C 0.36857 0.04772 0.94816 0.0
C177 C 0.35798 0.07442 0.97444 0.0
C178 C 0.40294 0.07514 -0.00042 0.0
H179 H 0.47708 0.89061 0.95032 0.0
C180 C 0.50871 0.90732 0.93663 0.0
H181 H 0.57098 0.97572 0.93124 0.0
H182 H 0.60414 0.04461 0.06908 0.0
H183 H 0.7018 0.00209 0.06556 0.0
H184 H 0.72093 0.95579 0.01874 0.0
H185 H 0.64215 0.95058 0.97519 0.0
C186 C 0.53692 0.95986 0.94372 0.0
C187 C 0.5271 0.99377 0.97083 0.0
C188 C 0.57398 0.99719 0.99592 0.0
C189 C 0.56334 0.02503 0.0228 0.0
C190 C 0.61021 0.02557 0.04786 0.0
C191 C 0.6664 0.00094 0.04622 0.0
C192 C 0.67712 0.9747 0.01986 0.0
C193 C 0.63152 0.97223 0.99501 0.0
H194 H 0.99851 0.84814 0.04206 0.0
C195 C 0.96607 0.86389 0.05556 0.0
H196 H 0.90465 0.93282 0.06157 0.0
H197 H 0.10077 0.05409 0.98297 0.0
H198 H 0.17253 0.04607 0.029 0.0
H199 H 0.14425 0.99738 0.0734 0.0
H200 H 0.04419 0.9561 0.07196 0.0
C201 C 0.9385 0.9168 0.049 0.0
C202 C 0.95299 0.95347 0.02368 0.0
C203 C 0.01142 0.97845 0.02507 0.0
C204 C 0.02735 0.00757 -0.00034 0.0
C205 C 0.08618 0.03156 0.0016 0.0
C206 C 0.12783 0.02739 0.02792 0.0
C207 C 0.11194 0.99989 0.05289 0.0
C208 C 0.05446 0.97588 0.05167 0.0
H209 H 0.94703 0.12014 0.95196 0.0
C210 C 0.97959 0.10034 0.93964 0.0
H211 H 0.03556 0.02573 0.93574 0.0
H212 H 0.83583 0.91588 0.01455 0.0
H213 H 0.76333 0.92493 0.96874 0.0
H214 H 0.79141 0.97376 0.92432 0.0
H215 H 0.89203 0.01375 0.92544 0.0
C216 C 0.00129 0.0453 0.94702 0.0
C217 C 0.98443 0.01311 0.97314 0.0
C218 C 0.92548 0.9896 0.972 0.0
C219 C 0.90958 0.96043 0.99744 0.0
C220 C 0.85041 0.93765 0.99576 0.0
C221 C 0.80834 0.94275 0.96964 0.0
C222 C 0.82413 0.97033 0.94464 0.0
C223 C 0.88196 0.99342 0.94565 0.0
H224 H 0.63701 0.33494 0.18553 0.0
C225 C 0.62153 0.28859 0.18417 0.0
H226 H 0.6339 0.20116 0.20219 0.0
H227 H 0.90428 0.31594 0.24945 0.0
H228 H 0.91512 0.3182 0.19726 0.0
H229 H 0.82924 0.29405 0.15769 0.0
H230 H 0.73199 0.2678 0.17007 0.0
C231 C 0.6506 0.24706 0.20265 0.0
C232 C 0.70241 0.2629 0.22619 0.0
C233 C 0.75901 0.27797 0.21848 0.0
C234 C 0.8087 0.29116 0.24131 0.0
C235 C 0.8649 0.30572 0.23304 0.0
C236 C 0.87184 0.30703 0.20315 0.0
C237 C 0.82348 0.29348 0.18087 0.0
C238 C 0.76773 0.27882 0.18831 0.0
H239 H 0.86325 0.21045 0.31042 0.0
C240 C 0.8819 0.25562 0.31258 0.0
H241 H 0.87457 0.34481 0.29654 0.0
H242 H 0.59974 0.23659 0.24846 0.0
H243 H 0.58879 0.23485 0.30067 0.0
H244 H 0.67482 0.25866 0.34024 0.0
H245 H 0.77234 0.28413 0.32782 0.0
C246 C 0.85482 0.30011 0.29538 0.0
C247 C 0.80193 0.28823 0.27176 0.0
C248 C 0.74517 0.27388 0.27945 0.0
C249 C 0.69545 0.26079 0.25662 0.0
C250 C 0.63916 0.24663 0.26489 0.0
C251 C 0.63217 0.24565 0.29478 0.0
C252 C 0.68061 0.25902 0.31705 0.0
C253 C 0.73647 0.27321 0.30962 0.0
H254 H 0.62106 0.32606 0.71228 0.0
C255 C 0.61025 0.28533 0.6992 0.0
H256 H 0.63419 0.19487 0.69306 0.0
H257 H 0.88303 0.32209 0.76817 0.0
H258 H 0.88959 0.37175 0.72132 0.0
H259 H 0.80872 0.36023 0.67772 0.0
H260 H 0.72082 0.29895 0.68074 0.0
C261 C 0.64537 0.23683 0.70501 0.0
C262 C 0.69709 0.23852 0.72998 0.0
C263 C 0.74837 0.27408 0.7277 0.0
C264 C 0.79521 0.28019 0.75271 0.0
C265 C 0.84602 0.31592 0.74987 0.0
C266 C 0.85042 0.34464 0.72309 0.0
C267 C 0.80487 0.33821 0.69856 0.0
C268 C 0.75445 0.30323 0.70066 0.0
H269 H 0.86619 0.16276 0.80002 0.0
C270 C 0.87714 0.20476 0.812 0.0
H271 H 0.85379 0.29604 0.81575 0.0
H272 H 0.60567 0.16544 0.74121 0.0
H273 H 0.59894 0.11574 0.78806 0.0
H274 H 0.67932 0.12792 0.83183 0.0
H275 H 0.76692 0.18969 0.82898 0.0
C276 C 0.84219 0.25301 0.80493 0.0
C277 C 0.79103 0.24991 0.7797 0.0
C278 C 0.73982 0.21416 0.78194 0.0
C279 C 0.69308 0.20791 0.75689 0.0
C280 C 0.64243 0.17187 0.75961 0.0
C281 C 0.63797 0.14311 0.78637 0.0
C282 C 0.68326 0.14989 0.811 0.0
C283 C 0.73355 0.18514 0.80898 0.0
H284 H 0.15035 0.79273 0.68656 0.0
C285 C 0.13092 0.74802 0.68667 0.0
H286 H 0.13618 0.66303 0.70754 0.0
H287 H 0.41025 0.78024 0.75111 0.0
H288 H 0.42215 0.77184 0.69917 0.0
H289 H 0.33748 0.7392 0.66072 0.0
H290 H 0.24031 0.71523 0.67394 0.0
C291 C 0.15673 0.707 0.70645 0.0
C292 C 0.20937 0.72267 0.72967 0.0
C293 C 0.26614 0.73566 0.72158 0.0
C294 C 0.31522 0.75351 0.74383 0.0
C295 C 0.37136 0.76659 0.73513 0.0
C296 C 0.3789 0.76177 0.7054 0.0
C297 C 0.33121 0.74346 0.68375 0.0
C298 C 0.2755 0.73026 0.69162 0.0
H299 H 0.37609 0.6927 0.81713 0.0
C300 C 0.39003 0.73943 0.81676 0.0
H301 H 0.37438 0.82373 0.79562 0.0
H302 H 0.10716 0.69887 0.75289 0.0
H303 H 0.09579 0.70581 0.80492 0.0
H304 H 0.18091 0.73705 0.84345 0.0
H305 H 0.27793 0.7614 0.83018 0.0
C306 C 0.35908 0.77765 0.79703 0.0
C307 C 0.30784 0.75711 0.77419 0.0
C308 C 0.25147 0.74289 0.78238 0.0
C309 C 0.20227 0.72532 0.7601 0.0
C310 C 0.14621 0.71211 0.76886 0.0
C311 C 0.13897 0.71606 0.79866 0.0
C312 C 0.1869 0.73362 0.82035 0.0
C313 C 0.24249 0.74718 0.81243 0.0
H314 H 0.34972 0.66289 0.30072 0.0
C315 C 0.36686 0.70687 0.30846 0.0
H316 H 0.3564 0.80075 0.30306 0.0
H317 H 0.21871 0.76061 0.16992 0.0
H318 H 0.31236 0.80519 0.1611 0.0
H319 H 0.39493 0.82567 0.20296 0.0
H320 H 0.38438 0.80148 0.25387 0.0
C321 C 0.33847 0.75637 0.29668 0.0
C322 C 0.28595 0.75077 0.27216 0.0
C323 C 0.29233 0.76665 0.24265 0.0
C324 C 0.24438 0.75571 0.21857 0.0
C325 C 0.25296 0.76954 0.18915 0.0
C326 C 0.3067 0.79474 0.18373 0.0
C327 C 0.35322 0.80619 0.20729 0.0
C328 C 0.34651 0.79214 0.23643 0.0
H329 H 0.1235 0.81382 0.19278 0.0
C330 C 0.10802 0.76864 0.18631 0.0
H331 H 0.12164 0.67585 0.19428 0.0
H332 H 0.25688 0.72109 0.32648 0.0
H333 H 0.16291 0.67733 0.33544 0.0
H334 H 0.08008 0.65724 0.29365 0.0
H335 H 0.09065 0.68091 0.2427 0.0
C336 C 0.1381 0.72122 0.19947 0.0
C337 C 0.18968 0.73015 0.22421 0.0
C338 C 0.18305 0.71502 0.25379 0.0
C339 C 0.23103 0.72587 0.27784 0.0
C340 C 0.22248 0.71226 0.30729 0.0
C341 C 0.16859 0.68755 0.31278 0.0
C342 C 0.12193 0.67631 0.28926 0.0
C343 C 0.12869 0.69001 0.26009 0.0
H344 H 0.34272 0.17304 0.19406 0.0
C345 C 0.35631 0.21832 0.18921 0.0
H346 H 0.3495 0.31098 0.19836 0.0
H347 H 0.099 0.21898 0.24067 0.0
H348 H 0.06422 0.19761 0.18822 0.0
H349 H 0.13341 0.20504 0.15167 0.0
H350 H 0.23778 0.23356 0.16734 0.0
C351 C 0.33494 0.26569 0.20257 0.0
C352 C 0.2934 0.25862 0.22453 0.0
C353 C 0.23238 0.24208 0.21489 0.0
C354 C 0.1923 0.23847 0.23592 0.0
C355 C 0.13148 0.2222 0.22569 0.0
C356 C 0.11084 0.20997 0.19562 0.0
C357 C 0.14981 0.21411 0.17505 0.0
C358 C 0.20979 0.23024 0.1844 0.0
H359 H 0.17136 0.34178 0.29727 0.0
C360 C 0.15343 0.298 0.30174 0.0
H361 H 0.15207 0.20501 0.29213 0.0
H362 H 0.40767 0.29086 0.25028 0.0
H363 H 0.44296 0.31059 0.30286 0.0
H364 H 0.37408 0.30212 0.33952 0.0
H365 H 0.26952 0.27435 0.32382 0.0
C366 C 0.17053 0.2488 0.28812 0.0
C367 C 0.21305 0.25224 0.26641 0.0
C368 C 0.27437 0.26769 0.27613 0.0
C369 C 0.31438 0.27153 0.25508 0.0
C370 C 0.3753 0.2874 0.26531 0.0
C371 C 0.39623 0.29865 0.29544 0.0
C372 C 0.35743 0.29394 0.31607 0.0
C373 C 0.2973 0.27839 0.30669 0.0
H374 H 0.30931 0.34109 0.6967 0.0
C375 C 0.33017 0.29851 0.69266 0.0
H376 H 0.33963 0.20645 0.70376 0.0
H377 H 0.26643 0.23112 0.83089 0.0
H378 H 0.37404 0.21602 0.84413 0.0
H379 H 0.43891 0.21563 0.80546 0.0
H380 H 0.3965 0.23108 0.75334 0.0
C381 C 0.31735 0.24864 0.7071 0.0
C382 C 0.27761 0.24953 0.73011 0.0
C383 C 0.30292 0.23899 0.76043 0.0
C384 C 0.26536 0.23799 0.78265 0.0
C385 C 0.29236 0.23031 0.81292 0.0
C386 C 0.35427 0.22204 0.8209 0.0
C387 C 0.3908 0.22191 0.79914 0.0
C388 C 0.36577 0.23058 0.76926 0.0
H389 H 0.17522 0.15551 0.80984 0.0
C390 C 0.15234 0.19742 0.81299 0.0
H391 H 0.13849 0.28815 0.80006 0.0
H392 H 0.21405 0.26683 0.67374 0.0
H393 H 0.10637 0.2819 0.66042 0.0
H394 H 0.04118 0.28062 0.69895 0.0
H395 H 0.08329 0.26393 0.751 0.0
C396 C 0.16244 0.24664 0.79736 0.0
C397 C 0.20228 0.24605 0.77436 0.0
C398 C 0.17701 0.25669 0.74404 0.0
C399 C 0.21465 0.25807 0.72185 0.0
C400 C 0.18787 0.26676 0.69162 0.0
C401 C 0.12599 0.27511 0.68362 0.0
C402 C 0.08929 0.27436 0.7053 0.0
C403 C 0.11416 0.26498 0.73515 0.0
H404 H 0.65978 0.86491 0.79634 0.0
C405 C 0.64717 0.81956 0.80166 0.0
H406 H 0.65788 0.72668 0.79452 0.0
H407 H 0.74773 0.82428 0.67256 0.0
H408 H 0.64432 0.85605 0.65655 0.0
H409 H 0.57087 0.85214 0.69113 0.0
H410 H 0.60043 0.81675 0.74196 0.0
C411 C 0.66839 0.77215 0.78832 0.0
C412 C 0.71286 0.77886 0.76788 0.0
C413 C 0.69473 0.79997 0.73831 0.0
C414 C 0.73694 0.80165 0.71829 0.0
C415 C 0.71758 0.82219 0.68873 0.0
C416 C 0.65832 0.84046 0.67923 0.0
C417 C 0.61698 0.8383 0.6987 0.0
C418 C 0.63463 0.81812 0.72788 0.0
H419 H 0.84142 0.6842 0.7049 0.0
C420 C 0.85716 0.72589 0.69641 0.0
H421 H 0.85278 0.82078 0.69695 0.0
H422 H 0.76274 0.73896 0.8236 0.0
H423 H 0.86666 0.70927 0.83991 0.0
H424 H 0.94025 0.71384 0.80542 0.0
H425 H 0.91022 0.74772 0.75436 0.0
C426 C 0.83926 0.77884 0.70612 0.0
C427 C 0.79678 0.78145 0.72782 0.0
C428 C 0.81543 0.76247 0.75772 0.0
C429 C 0.77324 0.76066 0.7777 0.0
C430 C 0.79286 0.74101 0.80741 0.0
C431 C 0.85245 0.72404 0.81712 0.0
C432 C 0.89386 0.72655 0.79769 0.0
C433 C 0.8759 0.7457 0.76836 0.0
H434 H 0.80305 0.81652 0.18844 0.0
C435 C 0.83196 0.77719 0.18979 0.0
H436 H 0.8541 0.69327 0.21044 0.0
H437 H 0.71688 0.82054 0.31222 0.0
H438 H 0.80311 0.88728 0.32143 0.0
H439 H 0.88052 0.8851 0.28895 0.0
H440 H 0.87201 0.81626 0.24701 0.0
C441 C 0.82706 0.73384 0.2098 0.0
C442 C 0.78042 0.73619 0.2293 0.0
C443 C 0.7862 0.77672 0.25372 0.0
C444 C 0.74179 0.77763 0.27256 0.0
C445 C 0.74897 0.81815 0.29702 0.0
C446 C 0.7984 0.85663 0.30264 0.0
C447 C 0.84196 0.85542 0.28435 0.0
C448 C 0.83633 0.81586 0.26023 0.0
H449 H 0.6656 0.65188 0.3046 0.0
C450 C 0.63935 0.69267 0.30529 0.0
H451 H 0.62156 0.78041 0.28845 0.0
H452 H 0.7562 0.65298 0.18435 0.0
H453 H 0.66926 0.58713 0.17464 0.0
H454 H 0.59075 0.59062 0.20647 0.0
H455 H 0.59899 0.65953 0.24834 0.0
C456 C 0.64631 0.73883 0.28712 0.0
C457 C 0.69208 0.73761 0.26708 0.0
C458 C 0.68593 0.69759 0.24241 0.0
C459 C 0.73059 0.6964 0.22372 0.0
C460 C 0.72365 0.65576 0.19931 0.0
C461 C 0.67386 0.61782 0.19341 0.0
C462 C 0.62971 0.61973 0.21135 0.0
C463 C 0.63526 0.65923 0.23549 0.0
H464 H 0.33683 0.13956 0.57931 0.0
C465 C 0.36133 0.17708 0.57185 0.0
H466 H 0.37441 0.23491 0.5372 0.0
H467 H 0.17589 0.04828 0.46012 0.0
H468 H 0.24639 0.9665 0.47494 0.0
H469 H 0.33868 0.9834 0.51182 0.0
H470 H 0.36096 0.08172 0.53428 0.0
C471 C 0.34893 0.19691 0.54361 0.0
C472 C 0.29138 0.18294 0.52363 0.0
C473 C 0.27933 0.12506 0.51089 0.0
C474 C 0.22682 0.11554 0.48913 0.0
C475 C 0.21562 0.0577 0.47648 0.0
C476 C 0.25558 0.01055 0.48482 0.0
C477 C 0.3075 0.02005 0.50564 0.0
C478 C 0.31962 0.07663 0.5185 0.0
H479 H 0.20394 0.17191 0.42479 0.0
C480 C 0.15632 0.17135 0.42649 0.0
H481 H 0.09357 0.16321 0.45574 0.0
H482 H 0.29735 0.29819 0.54614 0.0
H483 H 0.23049 0.38046 0.52887 0.0
H484 H 0.1433 0.36519 0.48883 0.0
H485 H 0.12025 0.26666 0.46725 0.0
C486 C 0.14034 0.15873 0.45291 0.0
C487 C 0.18752 0.16404 0.47983 0.0
C488 C 0.19848 0.22139 0.4933 0.0
C489 C 0.25012 0.23071 0.51542 0.0
C490 C 0.25996 0.28866 0.52849 0.0
C491 C 0.22167 0.3364 0.51894 0.0
C492 C 0.17237 0.32771 0.49655 0.0
C493 C 0.16004 0.27087 0.48418 0.0
H494 H 0.90147 0.836 0.54568 0.0
C495 C 0.87552 0.8184 0.56187 0.0
H496 H 0.78949 0.79531 0.57077 0.0
H497 H 0.68367 0.93703 0.44709 0.0
H498 H 0.70022 0.02763 0.47743 0.0
H499 H 0.75535 0.02345 0.52919 0.0
H500 H 0.79464 0.92864 0.55092 0.0
C501 C 0.81531 0.81467 0.55495 0.0
C502 C 0.78463 0.81897 0.52351 0.0
C503 C 0.76185 0.87447 0.5113 0.0
C504 C 0.72946 0.87674 0.48158 0.0
C505 C 0.7078 0.93281 0.4697 0.0
C506 C 0.71716 0.98506 0.48684 0.0
C507 C 0.74826 0.98272 0.51598 0.0
C508 C 0.77051 0.92815 0.5282 0.0
H509 H 0.60095 0.84305 0.44629 0.0
C510 C 0.62444 0.82606 0.42898 0.0
H511 H 0.70751 0.80604 0.41608 0.0
H512 H 0.82391 0.70525 0.54025 0.0
H513 H 0.80714 0.6149 0.51028 0.0
H514 H 0.74946 0.61819 0.4591 0.0
H515 H 0.70879 0.71178 0.43758 0.0
C516 C 0.6849 0.82373 0.4336 0.0
C517 C 0.7198 0.82335 0.46439 0.0
C518 C 0.74327 0.7678 0.47659 0.0
C519 C 0.77578 0.76568 0.50618 0.0
C520 C 0.7986 0.70961 0.5179 0.0
C521 C 0.7893 0.65722 0.50095 0.0
C522 C 0.75692 0.6591 0.47215 0.0
C523 C 0.73398 0.71344 0.46003 0.0
H524 H 0.81153 0.6109 0.07648 0.0
C525 C 0.85718 0.62219 0.07357 0.0
H526 H 0.91331 0.64112 0.0422 0.0
H527 H 0.68433 0.54619 0.94355 0.0
H528 H 0.73069 0.4477 0.95264 0.0
H529 H 0.81724 0.43285 0.99318 0.0
H530 H 0.85853 0.51657 0.02475 0.0
C531 C 0.86963 0.62458 0.04573 0.0
C532 C 0.81877 0.63247 0.02059 0.0
C533 C 0.79479 0.58312 0.00276 0.0
C534 C 0.7446 0.59165 0.97951 0.0
C535 C 0.72229 0.54198 0.96152 0.0
C536 C 0.74841 0.48533 0.96655 0.0
C537 C 0.79715 0.47695 0.9894 0.0
C538 C 0.82033 0.52519 0.00737 0.0
H539 H 0.72759 0.7162 0.92821 0.0
C540 C 0.6821 0.69878 0.92705 0.0
H541 H 0.62548 0.64323 0.94811 0.0
H542 H 0.85696 0.7386 0.04884 0.0
H543 H 0.80505 0.83388 0.04326 0.0
H544 H 0.71126 0.84579 0.00678 0.0
H545 H 0.66935 0.76223 0.97593 0.0
C546 C 0.67055 0.66074 0.94825 0.0
C547 C 0.7182 0.64931 0.97457 0.0
C548 C 0.74014 0.69791 0.99363 0.0
C549 C 0.79208 0.69019 0.01571 0.0
C550 C 0.81582 0.74082 0.03278 0.0
C551 C 0.78683 0.79621 0.02953 0.0
C552 C 0.73419 0.80293 0.00902 0.0
C553 C 0.71093 0.7546 0.99122 0.0
H554 H 0.29968 0.31388 0.05772 0.0
C555 C 0.3436 0.33546 0.06277 0.0
H556 H 0.40262 0.39806 0.04809 0.0
H557 H 0.27139 0.30963 0.92021 0.0
H558 H 0.37747 0.29621 0.91719 0.0
H559 H 0.45646 0.32604 0.95919 0.0
H560 H 0.42993 0.36982 0.00432 0.0
C561 C 0.35773 0.37866 0.04455 0.0
C562 C 0.31598 0.38818 0.01583 0.0
C563 C 0.33257 0.3658 0.98921 0.0
C564 C 0.28713 0.34809 0.9652 0.0
C565 C 0.30443 0.32307 0.93924 0.0
C566 C 0.365 0.31539 0.9372 0.0
C567 C 0.40947 0.33221 0.96085 0.0
C568 C 0.39369 0.35703 0.98666 0.0
H569 H 0.12507 0.38007 0.92659 0.0
C570 C 0.13507 0.33242 0.92906 0.0
H571 H 0.19214 0.26532 0.95064 0.0
H572 H 0.27259 0.4496 0.05923 0.0
H573 H 0.16668 0.46832 0.06167 0.0
H574 H 0.08673 0.43284 0.0214 0.0
H575 H 0.11163 0.3798 0.97845 0.0
C576 C 0.18184 0.31308 0.9491 0.0
C577 C 0.22558 0.35292 0.96798 0.0
C578 C 0.20934 0.3843 0.99264 0.0
C579 C 0.2551 0.40317 0.01632 0.0
C580 C 0.23878 0.43372 0.04105 0.0
C581 C 0.17853 0.44471 0.04262 0.0
C582 C 0.13352 0.42481 0.01991 0.0
C583 C 0.14846 0.39451 0.99527 0.0
loop_
_geom_bond_atom_site_label_1
_geom_bond_atom_site_label_2
_geom_bond_distance
_geom_bond_site_symmetry_2
_ccdc_geom_bond_type
In0 O1 2.294 1_455 S
In0 O2 2.326 1_455 S
In0 O6 2.266 . S
In0 O7 2.326 . S
In0 O8 2.266 . S
In0 O9 2.326 1_455 S
In0 O11 2.294 . S
In0 O12 2.326 . S
O1 In0 2.294 1_655 S
O1 C10 1.240 . S
O2 In0 2.326 1_655 S
O2 C10 1.252 . S
C3 O6 1.252 . S
C3 O7 1.260 . S
C4 O11 1.240 . S
C4 O12 1.252 . S
C5 O8 1.252 . S
C5 O9 1.260 1_455 S
O6 In0 2.266 . S
O6 C3 1.252 . S
O7 In0 2.326 . S
O7 C3 1.260 . S
O8 In0 2.266 . S
O8 C5 1.252 . S
O9 In0 2.326 1_655 S
O9 C5 1.260 1_655 S
C10 O1 1.240 . S
C10 O2 1.252 . S
O11 In0 2.294 . S
O11 C4 1.240 . S
O12 In0 2.326 . S
O12 C4 1.252 . S
In13 O14 2.294 . S
In13 O15 2.326 . S
In13 O19 2.266 . S
In13 O20 2.326 . S
In13 O21 2.266 . S
In13 O22 2.326 . S
In13 O24 2.294 . S
In13 O25 2.326 . S
O14 In13 2.294 . S
O14 C23 1.240 . S
O15 In13 2.326 . S
O15 C23 1.252 . S
C16 O19 1.252 . S
C16 O20 1.260 . S
C17 O24 1.240 . S
C17 O25 1.252 . S
C18 O21 1.252 . S
C18 O22 1.260 . S
O19 In13 2.266 . S
O19 C16 1.252 . S
O20 In13 2.326 . S
O20 C16 1.260 . S
O21 In13 2.266 . S
O21 C18 1.252 . S
O22 In13 2.326 . S
O22 C18 1.260 . S
C23 O14 1.240 . S
C23 O15 1.252 . S
O24 In13 2.294 . S
O24 C17 1.240 . S
O25 In13 2.326 . S
O25 C17 1.252 . S
In26 O27 2.294 . S
In26 O28 2.326 . S
In26 O32 2.266 . S
In26 O33 2.326 1_655 S
In26 O34 2.266 . S
In26 O35 2.326 . S
In26 O37 2.294 1_655 S
In26 O38 2.326 1_655 S
O27 In26 2.294 . S
O27 C36 1.240 . S
O28 In26 2.326 . S
O28 C36 1.252 . S
C29 O32 1.252 . S
C29 O33 1.260 1_655 S
C30 O37 1.240 . S
C30 O38 1.252 . S
C31 O34 1.252 . S
C31 O35 1.260 . S
O32 In26 2.266 . S
O32 C29 1.252 . S
O33 In26 2.326 1_455 S
O33 C29 1.260 1_455 S
O34 In26 2.266 . S
O34 C31 1.252 . S
O35 In26 2.326 . S
O35 C31 1.260 . S
C36 O27 1.240 . S
C36 O28 1.252 . S
O37 In26 2.294 1_455 S
O37 C30 1.240 . S
O38 In26 2.326 1_455 S
O38 C30 1.252 . S
In39 O40 2.294 . S
In39 O41 2.326 . S
In39 O45 2.266 . S
In39 O46 2.326 . S
In39 O47 2.266 . S
In39 O48 2.326 . S
In39 O50 2.294 . S
In39 O51 2.326 . S
O40 In39 2.294 . S
O40 C49 1.240 . S
O41 In39 2.326 . S
O41 C49 1.252 . S
C42 O45 1.252 . S
C42 O46 1.260 . S
C43 O50 1.240 . S
C43 O51 1.252 . S
C44 O47 1.252 . S
C44 O48 1.260 . S
O45 In39 2.266 . S
O45 C42 1.252 . S
O46 In39 2.326 . S
O46 C42 1.260 . S
O47 In39 2.266 . S
O47 C44 1.252 . S
O48 In39 2.326 . S
O48 C44 1.260 . S
C49 O40 1.240 . S
C49 O41 1.252 . S
O50 In39 2.294 . S
O50 C43 1.240 . S
O51 In39 2.326 . S
O51 C43 1.252 . S
In52 O53 2.294 . S
In52 O54 2.326 . S
In52 O58 2.266 . S
In52 O59 2.326 . S
In52 O60 2.266 . S
In52 O61 2.326 . S
In52 O63 2.294 . S
In52 O64 2.326 . S
O53 In52 2.294 . S
O53 C62 1.240 . S
O54 In52 2.326 . S
O54 C62 1.252 . S
C55 O58 1.252 . S
C55 O59 1.260 . S
C56 O63 1.240 . S
C56 O64 1.252 . S
C57 O60 1.252 . S
C57 O61 1.260 . S
O58 In52 2.266 . S
O58 C55 1.252 . S
O59 In52 2.326 . S
O59 C55 1.260 . S
O60 In52 2.266 . S
O60 C57 1.252 . S
O61 In52 2.326 . S
O61 C57 1.260 . S
C62 O53 1.240 . S
C62 O54 1.252 . S
O63 In52 2.294 . S
O63 C56 1.240 . S
O64 In52 2.326 . S
O64 C56 1.252 . S
In65 O66 2.294 1_655 S
In65 O67 2.326 1_655 S
In65 O71 2.266 . S
In65 O72 2.326 . S
In65 O73 2.266 . S
In65 O74 2.326 1_655 S
In65 O76 2.294 . S
In65 O77 2.326 . S
O66 In65 2.294 1_455 S
O66 C75 1.240 . S
O67 In65 2.326 1_455 S
O67 C75 1.252 . S
C68 O71 1.252 . S
C68 O72 1.260 . S
C69 O76 1.240 . S
C69 O77 1.252 . S
C70 O73 1.252 . S
C70 O74 1.260 1_655 S
O71 In65 2.266 . S
O71 C68 1.252 . S
O72 In65 2.326 . S
O72 C68 1.260 . S
O73 In65 2.266 . S
O73 C70 1.252 . S
O74 In65 2.326 1_455 S
O74 C70 1.260 1_455 S
C75 O66 1.240 . S
C75 O67 1.252 . S
O76 In65 2.294 . S
O76 C69 1.240 . S
O77 In65 2.326 . S
O77 C69 1.252 . S
In78 O79 2.294 . S
In78 O80 2.326 . S
In78 O84 2.266 . S
In78 O85 2.326 . S
In78 O86 2.266 . S
In78 O87 2.326 . S
In78 O89 2.294 . S
In78 O90 2.326 . S
O79 In78 2.294 . S
O79 C88 1.240 . S
O80 In78 2.326 . S
O80 C88 1.252 . S
C81 O84 1.252 . S
C81 O85 1.260 . S
C82 O89 1.240 . S
C82 O90 1.252 . S
C83 O86 1.252 . S
C83 O87 1.260 . S
O84 In78 2.266 . S
O84 C81 1.252 . S
O85 In78 2.326 . S
O85 C81 1.260 . S
O86 In78 2.266 . S
O86 C83 1.252 . S
O87 In78 2.326 . S
O87 C83 1.260 . S
C88 O79 1.240 . S
C88 O80 1.252 . S
O89 In78 2.294 . S
O89 C82 1.240 . S
O90 In78 2.326 . S
O90 C82 1.252 . S
In91 O92 2.294 . S
In91 O93 2.326 . S
In91 O97 2.266 . S
In91 O98 2.326 1_455 S
In91 O99 2.266 . S
In91 O100 2.326 . S
In91 O102 2.294 1_455 S
In91 O103 2.326 1_455 S
O92 In91 2.294 . S
O92 C101 1.240 . S
O93 In91 2.326 . S
O93 C101 1.252 . S
C94 O97 1.252 . S
C94 O98 1.260 1_455 S
C95 O102 1.240 . S
C95 O103 1.252 . S
C96 O99 1.252 . S
C96 O100 1.260 . S
O97 In91 2.266 . S
O97 C94 1.252 . S
O98 In91 2.326 1_655 S
O98 C94 1.260 1_655 S
O99 In91 2.266 . S
O99 C96 1.252 . S
O100 In91 2.326 . S
O100 C96 1.260 . S
C101 O92 1.240 . S
C101 O93 1.252 . S
O102 In91 2.294 1_655 S
O102 C95 1.240 . S
O103 In91 2.326 1_655 S
O103 C95 1.252 . S
H104 C105 0.951 . S
C105 H104 0.951 . S
C105 C111 1.265 1_455 S
H106 C111 0.950 . S
H107 C115 0.949 . S
H108 C116 0.950 . S
H109 C117 0.951 . S
H110 C118 0.951 . S
C111 C105 1.265 1_655 S
C111 H106 0.950 . S
C111 C112 1.478 . S
C112 C111 1.478 . S
C112 C113 1.397 . S
C112 C129 1.394 1_655 S
C113 C112 1.397 . S
C113 C114 1.438 . S
C113 C118 1.429 . S
C114 C113 1.438 . S
C114 C115 1.428 . S
C114 C127 1.394 1_655 S
C115 H107 0.949 . S
C115 C114 1.428 . S
C115 C116 1.345 . S
C116 H108 0.950 . S
C116 C115 1.345 . S
C116 C117 1.424 . S
C117 H109 0.951 . S
C117 C116 1.424 . S
C117 C118 1.347 . S
C118 H110 0.951 . S
C118 C113 1.429 . S
C118 C117 1.347 . S
H119 C120 0.951 . S
C120 H119 0.951 . S
C120 C126 1.265 1_655 S
H121 C126 0.950 . S
H122 C130 0.949 . S
H123 C131 0.950 . S
H124 C132 0.951 . S
H125 C133 0.951 . S
C126 C120 1.265 1_455 S
C126 H121 0.950 . S
C126 C127 1.478 . S
C127 C114 1.394 1_455 S
C127 C126 1.478 . S
C127 C128 1.397 . S
C128 C127 1.397 . S
C128 C129 1.438 . S
C128 C133 1.429 . S
C129 C112 1.394 1_455 S
C129 C128 1.438 . S
C129 C130 1.428 . S
C130 H122 0.949 . S
C130 C129 1.428 . S
C130 C131 1.345 . S
C131 H123 0.950 . S
C131 C130 1.345 . S
C131 C132 1.424 . S
C132 H124 0.951 . S
C132 C131 1.424 . S
C132 C133 1.347 . S
C133 H125 0.951 . S
C133 C128 1.429 . S
C133 C132 1.347 . S
H134 C135 0.951 . S
C135 H134 0.951 . S
C135 C141 1.265 . S
H136 C141 0.950 . S
H137 C145 0.949 . S
H138 C146 0.950 . S
H139 C147 0.951 . S
H140 C148 0.951 . S
C141 C135 1.265 . S
C141 H136 0.950 . S
C141 C142 1.478 . S
C142 C141 1.478 . S
C142 C143 1.397 . S
C142 C159 1.394 . S
C143 C142 1.397 . S
C143 C144 1.438 . S
C143 C148 1.429 . S
C144 C143 1.438 . S
C144 C145 1.428 . S
C144 C157 1.394 . S
C145 H137 0.949 . S
C145 C144 1.428 . S
C145 C146 1.345 . S
C146 H138 0.950 . S
C146 C145 1.345 . S
C146 C147 1.424 . S
C147 H139 0.951 . S
C147 C146 1.424 . S
C147 C148 1.347 . S
C148 H140 0.951 . S
C148 C143 1.429 . S
C148 C147 1.347 . S
H149 C150 0.951 . S
C150 H149 0.951 . S
C150 C156 1.265 . S
H151 C156 0.950 . S
H152 C160 0.949 . S
H153 C161 0.950 . S
H154 C162 0.951 . S
H155 C163 0.951 . S
C156 C150 1.265 . S
C156 H151 0.950 . S
C156 C157 1.478 . S
C157 C144 1.394 . S
C157 C156 1.478 . S
C157 C158 1.397 . S
C158 C157 1.397 . S
C158 C159 1.438 . S
C158 C163 1.429 . S
C159 C142 1.394 . S
C159 C158 1.438 . S
C159 C160 1.428 . S
C160 H152 0.949 . S
C160 C159 1.428 . S
C160 C161 1.345 . S
C161 H153 0.950 . S
C161 C160 1.345 . S
C161 C162 1.424 . S
C162 H154 0.951 . S
C162 C161 1.424 . S
C162 C163 1.347 . S
C163 H155 0.951 . S
C163 C158 1.429 . S
C163 C162 1.347 . S
H164 C165 0.951 . S
C165 H164 0.951 . S
C165 C171 1.265 . S
H166 C171 0.950 . S
H167 C175 0.949 . S
H168 C176 0.950 . S
H169 C177 0.951 . S
H170 C178 0.951 1_545 S
C171 C165 1.265 . S
C171 H166 0.950 . S
C171 C172 1.478 . S
C172 C171 1.478 . S
C172 C173 1.397 1_545 S
C172 C189 1.394 . S
C173 C172 1.397 1_565 S
C173 C174 1.438 1_554 S
C173 C178 1.429 . S
C174 C173 1.438 1_556 S
C174 C175 1.428 . S
C174 C187 1.394 . S
C175 H167 0.949 . S
C175 C174 1.428 . S
C175 C176 1.345 . S
C176 H168 0.950 . S
C176 C175 1.345 . S
C176 C177 1.424 1_556 S
C177 H169 0.951 . S
C177 C176 1.424 1_554 S
C177 C178 1.347 . S
C178 H170 0.951 1_565 S
C178 C173 1.429 . S
C178 C177 1.347 . S
H179 C180 0.951 . S
C180 H179 0.951 . S
C180 C186 1.265 . S
H181 C186 0.950 . S
H182 C190 0.949 . S
H183 C191 0.950 . S
H184 C192 0.951 . S
H185 C193 0.951 1_565 S
C186 C180 1.265 . S
C186 H181 0.950 . S
C186 C187 1.478 . S
C187 C174 1.394 . S
C187 C186 1.478 . S
C187 C188 1.397 1_565 S
C188 C187 1.397 1_545 S
C188 C189 1.438 1_556 S
C188 C193 1.429 . S
C189 C172 1.394 . S
C189 C188 1.438 1_554 S
C189 C190 1.428 . S
C190 H182 0.949 . S
C190 C189 1.428 . S
C190 C191 1.345 . S
C191 H183 0.950 . S
C191 C190 1.345 . S
C191 C192 1.424 1_554 S
C192 H184 0.951 . S
C192 C191 1.424 1_556 S
C192 C193 1.347 . S
C193 H185 0.951 1_545 S
C193 C188 1.429 . S
C193 C192 1.347 . S
H194 C195 0.951 . S
C195 H194 0.951 . S
C195 C201 1.265 1_655 S
H196 C201 0.950 . S
H197 C205 0.949 . S
H198 C206 0.953 . S
H199 C207 0.951 . S
H200 C208 0.951 . S
C201 C195 1.265 1_455 S
C201 H196 0.950 . S
C201 C202 1.478 . S
C202 C201 1.478 . S
C202 C203 1.397 . S
C202 C219 1.394 1_455 S
C203 C202 1.397 . S
C203 C204 1.438 1_564 S
C203 C208 1.429 . S
C204 C203 1.438 1_546 S
C204 C205 1.428 . S
C204 C217 1.394 1_455 S
C205 H197 0.949 . S
C205 C204 1.428 . S
C205 C206 1.345 1_556 S
C206 H198 0.953 . S
C206 C205 1.345 1_554 S
C206 C207 1.424 . S
C207 H199 0.951 . S
C207 C206 1.424 . S
C207 C208 1.347 1_545 S
C208 H200 0.951 . S
C208 C203 1.429 . S
C208 C207 1.347 1_565 S
H209 C210 0.951 . S
C210 H209 0.951 . S
C210 C216 1.265 1_455 S
H211 C216 0.950 . S
H212 C220 0.949 . S
H213 C221 0.953 . S
H214 C222 0.951 . S
H215 C223 0.951 . S
C216 C210 1.265 1_655 S
C216 H211 0.950 . S
C216 C217 1.478 . S
C217 C204 1.394 1_655 S
C217 C216 1.478 . S
C217 C218 1.397 . S
C218 C217 1.397 . S
C218 C219 1.438 1_546 S
C218 C223 1.429 . S
C219 C202 1.394 1_655 S
C219 C218 1.438 1_564 S
C219 C220 1.428 . S
C220 H212 0.949 . S
C220 C219 1.428 . S
C220 C221 1.345 1_554 S
C221 H213 0.953 . S
C221 C220 1.345 1_556 S
C221 C222 1.424 . S
C222 H214 0.951 . S
C222 C221 1.424 . S
C222 C223 1.347 1_565 S
C223 H215 0.951 . S
C223 C218 1.429 . S
C223 C222 1.347 1_545 S
H224 C225 0.951 . S
C225 H224 0.951 . S
C225 C231 1.265 . S
H226 C231 0.950 . S
H227 C235 0.949 . S
H228 C236 0.950 . S
H229 C237 0.951 . S
H230 C238 0.951 . S
C231 C225 1.265 . S
C231 H226 0.950 . S
C231 C232 1.478 . S
C232 C231 1.478 . S
C232 C233 1.397 . S
C232 C249 1.394 . S
C233 C232 1.397 . S
C233 C234 1.438 . S
C233 C238 1.429 . S
C234 C233 1.438 . S
C234 C235 1.428 . S
C234 C247 1.394 . S
C235 H227 0.949 . S
C235 C234 1.428 . S
C235 C236 1.345 . S
C236 H228 0.950 . S
C236 C235 1.345 . S
C236 C237 1.424 . S
C237 H229 0.951 . S
C237 C236 1.424 . S
C237 C238 1.347 . S
C238 H230 0.951 . S
C238 C233 1.429 . S
C238 C237 1.347 . S
H239 C240 0.951 . S
C240 H239 0.951 . S
C240 C246 1.265 . S
H241 C246 0.950 . S
H242 C250 0.949 . S
H243 C251 0.950 . S
H244 C252 0.951 . S
H245 C253 0.951 . S
C246 C240 1.265 . S
C246 H241 0.950 . S
C246 C247 1.478 . S
C247 C234 1.394 . S
C247 C246 1.478 . S
C247 C248 1.397 . S
C248 C247 1.397 . S
C248 C249 1.438 . S
C248 C253 1.429 . S
C249 C232 1.394 . S
C249 C248 1.438 . S
C249 C250 1.428 . S
C250 H242 0.949 . S
C250 C249 1.428 . S
C250 C251 1.345 . S
C251 H243 0.950 . S
C251 C250 1.345 . S
C251 C252 1.424 . S
C252 H244 0.951 . S
C252 C251 1.424 . S
C252 C253 1.347 . S
C253 H245 0.951 . S
C253 C248 1.429 . S
C253 C252 1.347 . S
H254 C255 0.951 . S
C255 H254 0.951 . S
C255 C261 1.265 . S
H256 C261 0.950 . S
H257 C265 0.949 . S
H258 C266 0.950 . S
H259 C267 0.951 . S
H260 C268 0.951 . S
C261 C255 1.265 . S
C261 H256 0.950 . S
C261 C262 1.478 . S
C262 C261 1.478 . S
C262 C263 1.397 . S
C262 C279 1.394 . S
C263 C262 1.397 . S
C263 C264 1.438 . S
C263 C268 1.429 . S
C264 C263 1.438 . S
C264 C265 1.428 . S
C264 C277 1.394 . S
C265 H257 0.949 . S
C265 C264 1.428 . S
C265 C266 1.345 . S
C266 H258 0.950 . S
C266 C265 1.345 . S
C266 C267 1.424 . S
C267 H259 0.951 . S
C267 C266 1.424 . S
C267 C268 1.347 . S
C268 H260 0.951 . S
C268 C263 1.429 . S
C268 C267 1.347 . S
H269 C270 0.951 . S
C270 H269 0.951 . S
C270 C276 1.265 . S
H271 C276 0.950 . S
H272 C280 0.949 . S
H273 C281 0.950 . S
H274 C282 0.951 . S
H275 C283 0.951 . S
C276 C270 1.265 . S
C276 H271 0.950 . S
C276 C277 1.478 . S
C277 C264 1.394 . S
C277 C276 1.478 . S
C277 C278 1.397 . S
C278 C277 1.397 . S
C278 C279 1.438 . S
C278 C283 1.429 . S
C279 C262 1.394 . S
C279 C278 1.438 . S
C279 C280 1.428 . S
C280 H272 0.949 . S
C280 C279 1.428 . S
C280 C281 1.345 . S
C281 H273 0.950 . S
C281 C280 1.345 . S
C281 C282 1.424 . S
C282 H274 0.951 . S
C282 C281 1.424 . S
C282 C283 1.347 . S
C283 H275 0.951 . S
C283 C278 1.429 . S
C283 C282 1.347 . S
H284 C285 0.951 . S
C285 H284 0.951 . S
C285 C291 1.265 . S
H286 C291 0.950 . S
H287 C295 0.949 . S
H288 C296 0.950 . S
H289 C297 0.951 . S
H290 C298 0.951 . S
C291 C285 1.265 . S
C291 H286 0.950 . S
C291 C292 1.478 . S
C292 C291 1.478 . S
C292 C293 1.397 . S
C292 C309 1.394 . S
C293 C292 1.397 . S
C293 C294 1.438 . S
C293 C298 1.429 . S
C294 C293 1.438 . S
C294 C295 1.428 . S
C294 C307 1.394 . S
C295 H287 0.949 . S
C295 C294 1.428 . S
C295 C296 1.345 . S
C296 H288 0.950 . S
C296 C295 1.345 . S
C296 C297 1.424 . S
C297 H289 0.951 . S
C297 C296 1.424 . S
C297 C298 1.347 . S
C298 H290 0.951 . S
C298 C293 1.429 . S
C298 C297 1.347 . S
H299 C300 0.951 . S
C300 H299 0.951 . S
C300 C306 1.265 . S
H301 C306 0.950 . S
H302 C310 0.949 . S
H303 C311 0.950 . S
H304 C312 0.951 . S
H305 C313 0.951 . S
C306 C300 1.265 . S
C306 H301 0.950 . S
C306 C307 1.478 . S
C307 C294 1.394 . S
C307 C306 1.478 . S
C307 C308 1.397 . S
C308 C307 1.397 . S
C308 C309 1.438 . S
C308 C313 1.429 . S
C309 C292 1.394 . S
C309 C308 1.438 . S
C309 C310 1.428 . S
C310 H302 0.949 . S
C310 C309 1.428 . S
C310 C311 1.345 . S
C311 H303 0.950 . S
C311 C310 1.345 . S
C311 C312 1.424 . S
C312 H304 0.951 . S
C312 C311 1.424 . S
C312 C313 1.347 . S
C313 H305 0.951 . S
C313 C308 1.429 . S
C313 C312 1.347 . S
H314 C315 0.951 . S
C315 H314 0.951 . S
C315 C321 1.265 . S
H316 C321 0.950 . S
H317 C325 0.949 . S
H318 C326 0.950 . S
H319 C327 0.951 . S
H320 C328 0.951 . S
C321 C315 1.265 . S
C321 H316 0.950 . S
C321 C322 1.478 . S
C322 C321 1.478 . S
C322 C323 1.397 . S
C322 C339 1.394 . S
C323 C322 1.397 . S
C323 C324 1.438 . S
C323 C328 1.429 . S
C324 C323 1.438 . S
C324 C325 1.428 . S
C324 C337 1.394 . S
C325 H317 0.949 . S
C325 C324 1.428 . S
C325 C326 1.345 . S
C326 H318 0.950 . S
C326 C325 1.345 . S
C326 C327 1.424 . S
C327 H319 0.951 . S
C327 C326 1.424 . S
C327 C328 1.347 . S
C328 H320 0.951 . S
C328 C323 1.429 . S
C328 C327 1.347 . S
H329 C330 0.951 . S
C330 H329 0.951 . S
C330 C336 1.265 . S
H331 C336 0.950 . S
H332 C340 0.949 . S
H333 C341 0.950 . S
H334 C342 0.951 . S
H335 C343 0.951 . S
C336 C330 1.265 . S
C336 H331 0.950 . S
C336 C337 1.478 . S
C337 C324 1.394 . S
C337 C336 1.478 . S
C337 C338 1.397 . S
C338 C337 1.397 . S
C338 C339 1.438 . S
C338 C343 1.429 . S
C339 C322 1.394 . S
C339 C338 1.438 . S
C339 C340 1.428 . S
C340 H332 0.949 . S
C340 C339 1.428 . S
C340 C341 1.345 . S
C341 H333 0.950 . S
C341 C340 1.345 . S
C341 C342 1.424 . S
C342 H334 0.951 . S
C342 C341 1.424 . S
C342 C343 1.347 . S
C343 H335 0.951 . S
C343 C338 1.429 . S
C343 C342 1.347 . S
H344 C345 0.951 . S
C345 H344 0.951 . S
C345 C351 1.265 . S
H346 C351 0.950 . S
H347 C355 0.949 . S
H348 C356 0.950 . S
H349 C357 0.951 . S
H350 C358 0.951 . S
C351 C345 1.265 . S
C351 H346 0.950 . S
C351 C352 1.478 . S
C352 C351 1.478 . S
C352 C353 1.397 . S
C352 C369 1.394 . S
C353 C352 1.397 . S
C353 C354 1.438 . S
C353 C358 1.429 . S
C354 C353 1.438 . S
C354 C355 1.428 . S
C354 C367 1.394 . S
C355 H347 0.949 . S
C355 C354 1.428 . S
C355 C356 1.345 . S
C356 H348 0.950 . S
C356 C355 1.345 . S
C356 C357 1.424 . S
C357 H349 0.951 . S
C357 C356 1.424 . S
C357 C358 1.347 . S
C358 H350 0.951 . S
C358 C353 1.429 . S
C358 C357 1.347 . S
H359 C360 0.951 . S
C360 H359 0.951 . S
C360 C366 1.265 . S
H361 C366 0.950 . S
H362 C370 0.949 . S
H363 C371 0.950 . S
H364 C372 0.951 . S
H365 C373 0.951 . S
C366 C360 1.265 . S
C366 H361 0.950 . S
C366 C367 1.478 . S
C367 C354 1.394 . S
C367 C366 1.478 . S
C367 C368 1.397 . S
C368 C367 1.397 . S
C368 C369 1.438 . S
C368 C373 1.429 . S
C369 C352 1.394 . S
C369 C368 1.438 . S
C369 C370 1.428 . S
C370 H362 0.949 . S
C370 C369 1.428 . S
C370 C371 1.345 . S
C371 H363 0.950 . S
C371 C370 1.345 . S
C371 C372 1.424 . S
C372 H364 0.951 . S
C372 C371 1.424 . S
C372 C373 1.347 . S
C373 H365 0.951 . S
C373 C368 1.429 . S
C373 C372 1.347 . S
H374 C375 0.951 . S
C375 H374 0.951 . S
C375 C381 1.265 . S
H376 C381 0.950 . S
H377 C385 0.949 . S
H378 C386 0.950 . S
H379 C387 0.951 . S
H380 C388 0.951 . S
C381 C375 1.265 . S
C381 H376 0.950 . S
C381 C382 1.478 . S
C382 C381 1.478 . S
C382 C383 1.397 . S
C382 C399 1.394 . S
C383 C382 1.397 . S
C383 C384 1.438 . S
C383 C388 1.429 . S
C384 C383 1.438 . S
C384 C385 1.428 . S
C384 C397 1.394 . S
C385 H377 0.949 . S
C385 C384 1.428 . S
C385 C386 1.345 . S
C386 H378 0.950 . S
C386 C385 1.345 . S
C386 C387 1.424 . S
C387 H379 0.951 . S
C387 C386 1.424 . S
C387 C388 1.347 . S
C388 H380 0.951 . S
C388 C383 1.429 . S
C388 C387 1.347 . S
H389 C390 0.951 . S
C390 H389 0.951 . S
C390 C396 1.265 . S
H391 C396 0.950 . S
H392 C400 0.949 . S
H393 C401 0.950 . S
H394 C402 0.951 . S
H395 C403 0.951 . S
C396 C390 1.265 . S
C396 H391 0.950 . S
C396 C397 1.478 . S
C397 C384 1.394 . S
C397 C396 1.478 . S
C397 C398 1.397 . S
C398 C397 1.397 . S
C398 C399 1.438 . S
C398 C403 1.429 . S
C399 C382 1.394 . S
C399 C398 1.438 . S
C399 C400 1.428 . S
C400 H392 0.949 . S
C400 C399 1.428 . S
C400 C401 1.345 . S
C401 H393 0.950 . S
C401 C400 1.345 . S
C401 C402 1.424 . S
C402 H394 0.951 . S
C402 C401 1.424 . S
C402 C403 1.347 . S
C403 H395 0.951 . S
C403 C398 1.429 . S
C403 C402 1.347 . S
H404 C405 0.951 . S
C405 H404 0.951 . S
C405 C411 1.265 . S
H406 C411 0.950 . S
H407 C415 0.949 . S
H408 C416 0.950 . S
H409 C417 0.951 . S
H410 C418 0.951 . S
C411 C405 1.265 . S
C411 H406 0.950 . S
C411 C412 1.478 . S
C412 C411 1.478 . S
C412 C413 1.397 . S
C412 C429 1.394 . S
C413 C412 1.397 . S
C413 C414 1.438 . S
C413 C418 1.429 . S
C414 C413 1.438 . S
C414 C415 1.428 . S
C414 C427 1.394 . S
C415 H407 0.949 . S
C415 C414 1.428 . S
C415 C416 1.345 . S
C416 H408 0.950 . S
C416 C415 1.345 . S
C416 C417 1.424 . S
C417 H409 0.951 . S
C417 C416 1.424 . S
C417 C418 1.347 . S
C418 H410 0.951 . S
C418 C413 1.429 . S
C418 C417 1.347 . S
H419 C420 0.951 . S
C420 H419 0.951 . S
C420 C426 1.265 . S
H421 C426 0.950 . S
H422 C430 0.949 . S
H423 C431 0.950 . S
H424 C432 0.951 . S
H425 C433 0.951 . S
C426 C420 1.265 . S
C426 H421 0.950 . S
C426 C427 1.478 . S
C427 C414 1.394 . S
C427 C426 1.478 . S
C427 C428 1.397 . S
C428 C427 1.397 . S
C428 C429 1.438 . S
C428 C433 1.429 . S
C429 C412 1.394 . S
C429 C428 1.438 . S
C429 C430 1.428 . S
C430 H422 0.949 . S
C430 C429 1.428 . S
C430 C431 1.345 . S
C431 H423 0.950 . S
C431 C430 1.345 . S
C431 C432 1.424 . S
C432 H424 0.951 . S
C432 C431 1.424 . S
C432 C433 1.347 . S
C433 H425 0.951 . S
C433 C428 1.429 . S
C433 C432 1.347 . S
H434 C435 0.951 . S
C435 H434 0.951 . S
C435 C441 1.265 . S
H436 C441 0.950 . S
H437 C445 0.949 . S
H438 C446 0.950 . S
H439 C447 0.951 . S
H440 C448 0.951 . S
C441 C435 1.265 . S
C441 H436 0.950 . S
C441 C442 1.478 . S
C442 C441 1.478 . S
C442 C443 1.397 . S
C442 C459 1.394 . S
C443 C442 1.397 . S
C443 C444 1.438 . S
C443 C448 1.429 . S
C444 C443 1.438 . S
C444 C445 1.428 . S
C444 C457 1.394 . S
C445 H437 0.949 . S
C445 C444 1.428 . S
C445 C446 1.345 . S
C446 H438 0.950 . S
C446 C445 1.345 . S
C446 C447 1.424 . S
C447 H439 0.951 . S
C447 C446 1.424 . S
C447 C448 1.347 . S
C448 H440 0.951 . S
C448 C443 1.429 . S
C448 C447 1.347 . S
H449 C450 0.951 . S
C450 H449 0.951 . S
C450 C456 1.265 . S
H451 C456 0.950 . S
H452 C460 0.949 . S
H453 C461 0.950 . S
H454 C462 0.951 . S
H455 C463 0.951 . S
C456 C450 1.265 . S
C456 H451 0.950 . S
C456 C457 1.478 . S
C457 C444 1.394 . S
C457 C456 1.478 . S
C457 C458 1.397 . S
C458 C457 1.397 . S
C458 C459 1.438 . S
C458 C463 1.429 . S
C459 C442 1.394 . S
C459 C458 1.438 . S
C459 C460 1.428 . S
C460 H452 0.949 . S
C460 C459 1.428 . S
C460 C461 1.345 . S
C461 H453 0.950 . S
C461 C460 1.345 . S
C461 C462 1.424 . S
C462 H454 0.951 . S
C462 C461 1.424 . S
C462 C463 1.347 . S
C463 H455 0.951 . S
C463 C458 1.429 . S
C463 C462 1.347 . S
H464 C465 0.951 . S
C465 H464 0.951 . S
C465 C471 1.265 . S
H466 C471 0.950 . S
H467 C475 0.949 . S
H468 C476 0.950 . S
H469 C477 0.951 . S
H470 C478 0.951 . S
C471 C465 1.265 . S
C471 H466 0.950 . S
C471 C472 1.478 . S
C472 C471 1.478 . S
C472 C473 1.397 . S
C472 C489 1.394 . S
C473 C472 1.397 . S
C473 C474 1.438 . S
C473 C478 1.429 . S
C474 C473 1.438 . S
C474 C475 1.428 . S
C474 C487 1.394 . S
C475 H467 0.949 . S
C475 C474 1.428 . S
C475 C476 1.345 . S
C476 H468 0.950 . S
C476 C475 1.345 . S
C476 C477 1.424 . S
C477 H469 0.951 . S
C477 C476 1.424 . S
C477 C478 1.347 . S
C478 H470 0.951 . S
C478 C473 1.429 . S
C478 C477 1.347 . S
H479 C480 0.951 . S
C480 H479 0.951 . S
C480 C486 1.265 . S
H481 C486 0.950 . S
H482 C490 0.949 . S
H483 C491 0.950 . S
H484 C492 0.951 . S
H485 C493 0.951 . S
C486 C480 1.265 . S
C486 H481 0.950 . S
C486 C487 1.478 . S
C487 C474 1.394 . S
C487 C486 1.478 . S
C487 C488 1.397 . S
C488 C487 1.397 . S
C488 C489 1.438 . S
C488 C493 1.429 . S
C489 C472 1.394 . S
C489 C488 1.438 . S
C489 C490 1.428 . S
C490 H482 0.949 . S
C490 C489 1.428 . S
C490 C491 1.345 . S
C491 H483 0.950 . S
C491 C490 1.345 . S
C491 C492 1.424 . S
C492 H484 0.951 . S
C492 C491 1.424 . S
C492 C493 1.347 . S
C493 H485 0.951 . S
C493 C488 1.429 . S
C493 C492 1.347 . S
H494 C495 0.951 . S
C495 H494 0.951 . S
C495 C501 1.265 . S
H496 C501 0.950 . S
H497 C505 0.949 . S
H498 C506 0.950 . S
H499 C507 0.951 1_545 S
H500 C508 0.951 . S
C501 C495 1.265 . S
C501 H496 0.950 . S
C501 C502 1.478 . S
C502 C501 1.478 . S
C502 C503 1.397 . S
C502 C519 1.394 . S
C503 C502 1.397 . S
C503 C504 1.438 . S
C503 C508 1.429 . S
C504 C503 1.438 . S
C504 C505 1.428 . S
C504 C517 1.394 . S
C505 H497 0.949 . S
C505 C504 1.428 . S
C505 C506 1.345 . S
C506 H498 0.950 . S
C506 C505 1.345 . S
C506 C507 1.424 . S
C507 H499 0.951 1_565 S
C507 C506 1.424 . S
C507 C508 1.347 . S
C508 H500 0.951 . S
C508 C503 1.429 . S
C508 C507 1.347 . S
H509 C510 0.951 . S
C510 H509 0.951 . S
C510 C516 1.265 . S
H511 C516 0.950 . S
H512 C520 0.949 . S
H513 C521 0.950 . S
H514 C522 0.951 . S
H515 C523 0.951 . S
C516 C510 1.265 . S
C516 H511 0.950 . S
C516 C517 1.478 . S
C517 C504 1.394 . S
C517 C516 1.478 . S
C517 C518 1.397 . S
C518 C517 1.397 . S
C518 C519 1.438 . S
C518 C523 1.429 . S
C519 C502 1.394 . S
C519 C518 1.438 . S
C519 C520 1.428 . S
C520 H512 0.949 . S
C520 C519 1.428 . S
C520 C521 1.345 . S
C521 H513 0.950 . S
C521 C520 1.345 . S
C521 C522 1.424 . S
C522 H514 0.951 . S
C522 C521 1.424 . S
C522 C523 1.347 . S
C523 H515 0.951 . S
C523 C518 1.429 . S
C523 C522 1.347 . S
H524 C525 0.951 . S
C525 H524 0.951 . S
C525 C531 1.265 . S
H526 C531 0.950 . S
H527 C535 0.949 . S
H528 C536 0.950 . S
H529 C537 0.951 . S
H530 C538 0.951 . S
C531 C525 1.265 . S
C531 H526 0.950 . S
C531 C532 1.478 . S
C532 C531 1.478 . S
C532 C533 1.397 . S
C532 C549 1.394 . S
C533 C532 1.397 . S
C533 C534 1.438 1_554 S
C533 C538 1.429 . S
C534 C533 1.438 1_556 S
C534 C535 1.428 . S
C534 C547 1.394 . S
C535 H527 0.949 . S
C535 C534 1.428 . S
C535 C536 1.345 . S
C536 H528 0.950 . S
C536 C535 1.345 . S
C536 C537 1.424 . S
C537 H529 0.951 . S
C537 C536 1.424 . S
C537 C538 1.347 1_556 S
C538 H530 0.951 . S
C538 C533 1.429 . S
C538 C537 1.347 1_554 S
H539 C540 0.951 . S
C540 H539 0.951 . S
C540 C546 1.265 . S
H541 C546 0.950 . S
H542 C550 0.949 . S
H543 C551 0.950 . S
H544 C552 0.951 . S
H545 C553 0.951 . S
C546 C540 1.265 . S
C546 H541 0.950 . S
C546 C547 1.478 . S
C547 C534 1.394 . S
C547 C546 1.478 . S
C547 C548 1.397 . S
C548 C547 1.397 . S
C548 C549 1.438 1_556 S
C548 C553 1.429 . S
C549 C532 1.394 . S
C549 C548 1.438 1_554 S
C549 C550 1.428 . S
C550 H542 0.949 . S
C550 C549 1.428 . S
C550 C551 1.345 . S
C551 H543 0.950 . S
C551 C550 1.345 . S
C551 C552 1.424 . S
C552 H544 0.951 . S
C552 C551 1.424 . S
C552 C553 1.347 1_554 S
C553 H545 0.951 . S
C553 C548 1.429 . S
C553 C552 1.347 1_556 S
H554 C555 0.951 . S
C555 H554 0.951 . S
C555 C561 1.265 . S
H556 C561 0.950 . S
H557 C565 0.949 . S
H558 C566 0.950 . S
H559 C567 0.951 . S
H560 C568 0.951 1_554 S
C561 C555 1.265 . S
C561 H556 0.950 . S
C561 C562 1.478 . S
C562 C561 1.478 . S
C562 C563 1.380 1_554 S
C562 C579 1.394 . S
C563 C562 1.380 1_556 S
C563 C564 1.451 . S
C563 C568 1.433 . S
C564 C563 1.451 . S
C564 C565 1.428 . S
C564 C577 1.394 . S
C565 H557 0.949 . S
C565 C564 1.428 . S
C565 C566 1.345 . S
C566 H558 0.950 . S
C566 C565 1.345 . S
C566 C567 1.424 . S
C567 H559 0.951 . S
C567 C566 1.424 . S
C567 C568 1.347 . S
C568 H560 0.951 1_556 S
C568 C563 1.433 . S
C568 C567 1.347 . S
H569 C570 0.951 . S
C570 H569 0.951 . S
C570 C576 1.265 . S
H571 C576 0.950 . S
H572 C580 0.949 . S
H573 C581 0.950 . S
H574 C582 0.951 . S
H575 C583 0.951 1_556 S
C576 C570 1.265 . S
C576 H571 0.950 . S
C576 C577 1.478 . S
C577 C564 1.394 . S
C577 C576 1.478 . S
C577 C578 1.380 1_556 S
C578 C577 1.380 1_554 S
C578 C579 1.451 . S
C578 C583 1.433 . S
C579 C562 1.394 . S
C579 C578 1.451 . S
C579 C580 1.428 . S
C580 H572 0.949 . S
C580 C579 1.428 . S
C580 C581 1.345 . S
C581 H573 0.950 . S
C581 C580 1.345 . S
C581 C582 1.424 . S
C582 H574 0.951 . S
C582 C581 1.424 . S
C582 C583 1.347 . S
C583 H575 0.951 1_554 S
C583 C578 1.433 . S
C583 C582 1.347 . S
C105 C5 1.524 . S
C120 C29 1.524 . S
C135 C44 1.546 . S
C150 C18 1.546 . S
C165 C81 1.520 . S
C180 C55 1.520 . S
C195 C70 1.517 . S
C210 C94 1.517 . S
C225 C82 1.734 . S
C240 C10 1.734 . S
C255 C23 1.720 . S
C270 C95 1.720 . S
C285 C30 1.743 . S
C300 C56 1.743 . S
C315 C49 1.707 . S
C330 C75 1.707 . S
C345 C88 1.571 . S
C360 C4 1.571 . S
C375 C17 1.571 . S
C390 C101 1.571 . S
C405 C62 1.556 . S
C420 C36 1.556 . S
C435 C69 1.555 . S
C450 C43 1.555 . S
C465 C16 0.493 . S
C480 C3 0.509 . S
C495 C31 0.534 . S
C510 C42 0.605 . S
C525 C68 0.495 . S
C540 C57 0.506 . S
C555 C83 0.484 . S
C570 C96 0.518 . S
