# Generated by pormake.
# Topology vma, (5)-cn, num edge types: 1
# Building blocks:
#     Node 0, Type 0, BuildingBlock: XOMCOT_clean_sbu_0, # of connection points: 5
#     Node 1, Type 0, BuildingBlock: XOMCOT_clean_sbu_0, # of connection points: 5
#     Node 2, Type 0, BuildingBlock: XOMCOT_clean_sbu_0, # of connection points: 5
#     Node 3, Type 0, BuildingBlock: XOMCOT_clean_sbu_0, # of connection points: 5
#     Node 4, Type 0, BuildingBlock: XOMCOT_clean_sbu_0, # of connection points: 5
#     Node 5, Type 0, BuildingBlock: XOMCOT_clean_sbu_0, # of connection points: 5
#     Node 6, Type 0, BuildingBlock: XOMCOT_clean_sbu_0, # of connection points: 5
#     Node 7, Type 0, BuildingBlock: XOMCOT_clean_sbu_0, # of connection points: 5
#     Edge 8, Type (0, 0), BuildingBlock: OJICUG_clean_linker_0, # of connection points: 2
#     Edge 9, Type (0, 0), BuildingBlock: OJICUG_clean_linker_0, # of connection points: 2
#     Edge 10, Type (0, 0), BuildingBlock: OJICUG_clean_linker_0, # of connection points: 2
#     Edge 11, Type (0, 0), BuildingBlock: OJICUG_clean_linker_0, # of connection points: 2
#     Edge 12, Type (0, 0), BuildingBlock: OJICUG_clean_linker_0, # of connection points: 2
#     Edge 13, Type (0, 0), BuildingBlock: OJICUG_clean_linker_0, # of connection points: 2
#     Edge 14, Type (0, 0), BuildingBlock: OJICUG_clean_linker_0, # of connection points: 2
#     Edge 15, Type (0, 0), BuildingBlock: OJICUG_clean_linker_0, # of connection points: 2
#     Edge 16, Type (0, 0), BuildingBlock: OJICUG_clean_linker_0, # of connection points: 2
#     Edge 17, Type (0, 0), BuildingBlock: OJICUG_clean_linker_0, # of connection points: 2
#     Edge 18, Type (0, 0), BuildingBlock: OJICUG_clean_linker_0, # of connection points: 2
#     Edge 19, Type (0, 0), BuildingBlock: OJICUG_clean_linker_0, # of connection points: 2
#     Edge 20, Type (0, 0), BuildingBlock: OJICUG_clean_linker_0, # of connection points: 2
#     Edge 21, Type (0, 0), BuildingBlock: OJICUG_clean_linker_0, # of connection points: 2
#     Edge 22, Type (0, 0), BuildingBlock: OJICUG_clean_linker_0, # of connection points: 2
#     Edge 23, Type (0, 0), BuildingBlock: OJICUG_clean_linker_0, # of connection points: 2
#     Edge 24, Type (0, 0), BuildingBlock: OJICUG_clean_linker_0, # of connection points: 2
#     Edge 25, Type (0, 0), BuildingBlock: OJICUG_clean_linker_0, # of connection points: 2
#     Edge 26, Type (0, 0), BuildingBlock: OJICUG_clean_linker_0, # of connection points: 2
#     Edge 27, Type (0, 0), BuildingBlock: OJICUG_clean_linker_0, # of connection points: 2
# Relax obj value: 0.094
# Max RMSD: 0.191
# Mean RMSD: 0.191
data_MOF--net-vma--node1-XOMCOT_clean_sbu_0--edge1-OJICUG_clean_linker_0
_symmetry_space_group_name_H-M    P1
_symmetry_Int_Tables_number       1
_symmetry_cell_setting            triclinic
loop_
_symmetry_equiv_pos_as_xyz
'x, y, z'
_cell_length_a     33.491948
_cell_length_b     19.370927
_cell_length_c     29.199732
_cell_angle_alpha  90.383165
_cell_angle_beta   109.07897
_cell_angle_gamma 89.404797
loop_
_atom_site_label
_atom_site_type_symbol
_atom_site_fract_x
_atom_site_fract_y
_atom_site_fract_z
_atom_type_partial_charge
Co0 Co 0.38607 0.10488 0.38088 0.0
C1 C 0.44459 0.06251 0.32487 0.0
C2 C 0.40036 0.14168 0.28964 0.0
C3 C 0.42464 0.12626 0.26127 0.0
N4 N 0.41203 0.10131 0.32949 0.0
N5 N 0.45257 0.07668 0.2832 0.0
H6 H 0.46263 0.0257 0.3515 0.0
H7 H 0.37655 0.18173 0.28156 0.0
C8 C 0.32581 0.22423 0.35058 0.0
O9 O 0.29634 0.18601 0.35807 0.0
N10 N 0.36015 0.11191 0.43233 0.0
C11 C 0.3398 0.06354 0.44919 0.0
C12 C 0.31839 0.09512 0.4768 0.0
C13 C 0.35285 0.17156 0.45305 0.0
N14 N 0.32564 0.16355 0.47819 0.0
C15 C 0.33321 0.98879 0.34777 0.0
C16 C 0.28631 0.03897 0.25781 0.0
C17 C 0.28308 0.96969 0.26869 0.0
C18 C 0.30575 0.94517 0.31459 0.0
C19 C 0.31342 0.08183 0.29284 0.0
N20 N 0.33721 0.05649 0.33725 0.0
H21 H 0.35349 0.9657 0.3806 0.0
H22 H 0.31675 0.13392 0.28241 0.0
H23 H 0.33861 1.00928 0.44099 0.0
H24 H 0.36491 0.22099 0.44693 0.0
O25 O 0.41777 0.02454 0.41117 0.0
O26 O 0.43982 0.13193 0.42768 0.0
O27 O 0.36275 0.19936 0.35731 0.0
C28 C 0.44702 0.06602 0.43588 0.0
H29 H 0.42349 0.15262 0.22827 0.0
H30 H 0.29671 0.06992 0.49169 0.0
H31 H 0.2697 0.05885 0.22196 0.0
H32 H 0.30481 0.89108 0.32346 0.0
Co33 Co 0.66046 0.10719 0.12392 0.0
C34 C 0.60237 0.06421 0.17949 0.0
C35 C 0.64424 0.14576 0.21421 0.0
C36 C 0.62012 0.13 0.24242 0.0
N37 N 0.63398 0.10411 0.17481 0.0
N38 N 0.59367 0.07893 0.22082 0.0
H39 H 0.58555 0.02614 0.15317 0.0
H40 H 0.66713 0.18658 0.22222 0.0
C41 C 0.72194 0.22233 0.15718 0.0
O42 O 0.75088 0.18165 0.14965 0.0
N43 N 0.68676 0.11414 0.07285 0.0
C44 C 0.70586 0.06512 0.05402 0.0
C45 C 0.72731 0.09631 0.02677 0.0
C46 C 0.69477 0.17398 0.05366 0.0
N47 N 0.72124 0.16515 0.02757 0.0
C48 C 0.71392 0.98967 0.15542 0.0
C49 C 0.75857 0.03638 0.24723 0.0
C50 C 0.76315 0.96779 0.2348 0.0
C51 C 0.7415 0.94501 0.18802 0.0
C52 C 0.73149 0.08033 0.21281 0.0
N53 N 0.70899 0.05683 0.16735 0.0
H54 H 0.69417 0.96773 0.12189 0.0
H55 H 0.72721 0.13184 0.22431 0.0
H56 H 0.70591 1.01049 0.06028 0.0
H57 H 0.68354 0.22392 0.06118 0.0
O58 O 0.62883 0.02804 0.09242 0.0
O59 O 0.60682 0.13607 0.07695 0.0
O60 O 0.68435 0.20058 0.14906 0.0
C61 C 0.59963 0.07037 0.06795 0.0
H62 H 0.62036 0.15692 0.27513 0.0
H63 H 0.74806 0.07038 0.01038 0.0
H64 H 0.77427 0.05494 0.28372 0.0
H65 H 0.74328 0.89139 0.17791 0.0
Co66 Co 0.66315 0.92361 0.62769 0.0
C67 C 0.59635 0.9432 0.67655 0.0
C68 C 0.6544 0.89815 0.722 0.0
C69 C 0.62819 0.90727 0.74905 0.0
N70 N 0.63477 0.92048 0.67644 0.0
N71 N 0.5917 0.93593 0.7208 0.0
H72 H 0.57275 0.96602 0.64559 0.0
H73 H 0.68639 0.87819 0.73526 0.0
C74 C 0.72301 0.79812 0.65419 0.0
O75 O 0.74919 0.82321 0.63376 0.0
N76 N 0.69193 0.92413 0.57942 0.0
C77 C 0.71888 0.97153 0.57333 0.0
C78 C 0.74004 0.9436 0.54404 0.0
C79 C 0.69493 0.87019 0.55103 0.0
N80 N 0.7259 0.87889 0.53117 0.0
C81 C 0.69044 0.03668 0.68817 0.0
C82 C 0.77688 0.01802 0.71747 0.0
C83 C 0.75982 0.07833 0.73064 0.0
C84 C 0.71613 0.08592 0.71708 0.0
C85 C 0.74949 0.96854 0.68852 0.0
N86 N 0.70668 0.97915 0.67326 0.0
H87 H 0.65681 0.04587 0.67697 0.0
H88 H 0.76322 0.92448 0.67715 0.0
H89 H 0.72535 0.02065 0.592 0.0
H90 H 0.67844 0.82216 0.55006 0.0
O91 O 0.62968 1.00062 0.59556 0.0
O92 O 0.61191 0.89159 0.57783 0.0
O93 O 0.69009 0.83179 0.65477 0.0
C94 C 0.60279 0.9571 0.56923 0.0
H95 H 0.63544 0.89289 0.78666 0.0
H96 H 0.76671 0.9667 0.53694 0.0
H97 H 0.81076 1.01061 0.72772 0.0
H98 H 0.70171 0.13103 0.72759 0.0
Co99 Co 0.38153 0.92669 0.88106 0.0
C100 C 0.44082 0.95781 0.82428 0.0
C101 C 0.39263 0.88537 0.78885 0.0
C102 C 0.41738 0.89459 0.76043 0.0
N103 N 0.40656 0.92536 0.82894 0.0
N104 N 0.44783 0.9399 0.78244 0.0
H105 H 0.46069 0.99257 0.85105 0.0
H106 H 0.36699 0.8493 0.78072 0.0
C107 C 0.31972 0.81033 0.85236 0.0
O108 O 0.29092 0.8502 0.8609 0.0
N109 N 0.35626 0.92373 0.93297 0.0
C110 C 0.3336 0.97221 0.94737 0.0
C111 C 0.31255 0.94145 0.9752 0.0
C112 C 0.35038 0.86509 0.95496 0.0
N113 N 0.32216 0.87351 0.97886 0.0
C114 C 0.33163 0.04701 0.84799 0.0
C115 C 0.28147 0.99767 0.75917 0.0
C116 C 0.28131 0.06817 0.76927 0.0
C117 C 0.30557 0.09239 0.81467 0.0
C118 C 0.30761 0.95327 0.79421 0.0
N119 N 0.33322 0.97817 0.83794 0.0
H120 H 0.35254 0.06918 0.88083 0.0
H121 H 0.30867 0.90003 0.78424 0.0
H122 H 0.33004 0.02552 0.93667 0.0
H123 H 0.3637 0.81568 0.94987 0.0
O124 O 0.41478 1.00526 0.91078 0.0
O125 O 0.43538 0.89702 0.92762 0.0
O126 O 0.35661 0.8334 0.85807 0.0
C127 C 0.44352 0.96263 0.93563 0.0
H128 H 0.41461 0.86665 0.72731 0.0
H129 H 0.28922 0.96639 0.98819 0.0
H130 H 0.26335 0.97772 0.72381 0.0
H131 H 0.30661 0.14706 0.82315 0.0
Co132 Co 0.88381 0.6064 0.37766 0.0
C133 C 0.94533 0.56562 0.32533 0.0
C134 C 0.89774 0.6372 0.28543 0.0
C135 C 0.92337 0.62228 0.25855 0.0
N136 N 0.91077 0.60133 0.32731 0.0
N137 N 0.95342 0.57746 0.28342 0.0
H138 H 0.96467 0.5327 0.35395 0.0
H139 H 0.87209 0.67404 0.275 0.0
C140 C 0.82286 0.72488 0.34519 0.0
O141 O 0.79357 0.68766 0.35393 0.0
N142 N 0.85667 0.61455 0.4278 0.0
C143 C 0.83428 0.56705 0.44238 0.0
C144 C 0.81218 0.59925 0.4689 0.0
C145 C 0.84967 0.67433 0.44857 0.0
N146 N 0.8209 0.66733 0.47183 0.0
C147 C 0.834 0.48669 0.34494 0.0
C148 C 0.78409 0.53513 0.25572 0.0
C149 C 0.78302 0.46533 0.26666 0.0
C150 C 0.80733 0.44156 0.31217 0.0
C151 C 0.81077 0.57932 0.29019 0.0
N152 N 0.83602 0.55495 0.33427 0.0
H153 H 0.85477 0.46474 0.37798 0.0
H154 H 0.81244 0.63179 0.27949 0.0
H155 H 0.83191 0.51317 0.43292 0.0
H156 H 0.86289 0.72315 0.44332 0.0
O157 O 0.91635 0.52825 0.41045 0.0
O158 O 0.93682 0.63656 0.42495 0.0
O159 O 0.85965 0.69954 0.35161 0.0
C160 C 0.94479 0.57121 0.43485 0.0
H161 H 0.92151 0.64598 0.22442 0.0
H162 H 0.7891 0.57461 0.48185 0.0
H163 H 0.76613 0.55457 0.22017 0.0
H164 H 0.80784 0.38729 0.32119 0.0
Co165 Co 0.16591 0.607 0.1307 0.0
C166 C 0.10699 0.56626 0.18558 0.0
C167 C 0.15059 0.64499 0.22156 0.0
C168 C 0.12583 0.63045 0.24928 0.0
N169 N 0.13952 0.60444 0.18161 0.0
N170 N 0.09828 0.58115 0.22686 0.0
H171 H 0.0895 0.52935 0.15874 0.0
H172 H 0.17436 0.68446 0.23013 0.0
C173 C 0.22599 0.72462 0.1616 0.0
O174 O 0.25551 0.68549 0.15392 0.0
N175 N 0.19223 0.61304 0.07975 0.0
C176 C 0.2141 0.56484 0.06393 0.0
C177 C 0.23519 0.59636 0.03647 0.0
C178 C 0.19846 0.67242 0.05876 0.0
N179 N 0.22627 0.66453 0.03425 0.0
C180 C 0.21837 0.48913 0.16369 0.0
C181 C 0.26495 0.53868 0.25401 0.0
C182 C 0.26809 0.46908 0.24296 0.0
C183 C 0.24554 0.44483 0.19689 0.0
C184 C 0.23809 0.58217 0.21899 0.0
N185 N 0.21451 0.55717 0.17437 0.0
H186 H 0.19829 0.4665 0.13056 0.0
H187 H 0.23473 0.63454 0.22953 0.0
H188 H 0.21672 0.51091 0.07292 0.0
H189 H 0.18532 0.72169 0.06447 0.0
O190 O 0.13433 0.52777 0.09956 0.0
O191 O 0.11238 0.63581 0.08373 0.0
O192 O 0.18915 0.70071 0.15502 0.0
C193 C 0.10519 0.57012 0.07499 0.0
H194 H 0.12644 0.65718 0.28219 0.0
H195 H 0.25783 0.57145 0.02237 0.0
H196 H 0.28144 0.55841 0.28997 0.0
H197 H 0.24643 0.39058 0.18785 0.0
Co198 Co 0.1617 0.42928 0.62688 0.0
C199 C 0.10341 0.47519 0.68212 0.0
C200 C 0.14422 0.39112 0.71597 0.0
C201 C 0.12067 0.40923 0.74464 0.0
N202 N 0.13423 0.43278 0.67682 0.0
N203 N 0.09496 0.46194 0.72362 0.0
H204 H 0.08718 0.51431 0.65628 0.0
H205 H 0.16688 0.3493 0.72378 0.0
C206 C 0.22333 0.31229 0.66004 0.0
O207 O 0.25269 0.35184 0.65354 0.0
N208 N 0.18931 0.4225 0.57696 0.0
C209 C 0.20991 0.47116 0.5607 0.0
C210 C 0.23231 0.43982 0.53407 0.0
C211 C 0.19762 0.36286 0.55701 0.0
N212 N 0.22548 0.37127 0.53277 0.0
C213 C 0.21292 0.54711 0.66098 0.0
C214 C 0.25743 0.49864 0.75232 0.0
C215 C 0.26055 0.56791 0.74134 0.0
C216 C 0.239 0.59167 0.69485 0.0
C217 C 0.2316 0.45496 0.71677 0.0
N218 N 0.20919 0.47934 0.67155 0.0
H219 H 0.19334 0.56942 0.62747 0.0
H220 H 0.22795 0.40299 0.72727 0.0
H221 H 0.21056 0.52547 0.56864 0.0
H222 H 0.18569 0.31324 0.56297 0.0
O223 O 0.12951 0.50839 0.59504 0.0
O224 O 0.10894 0.40026 0.57893 0.0
O225 O 0.18581 0.33559 0.65171 0.0
C226 C 0.10104 0.46585 0.57002 0.0
H227 H 0.12088 0.38313 0.7774 0.0
H228 H 0.25425 0.46532 0.5197 0.0
H229 H 0.27312 0.47931 0.78856 0.0
H230 H 0.23988 0.64571 0.68582 0.0
Co231 Co 0.89057 0.42492 0.88505 0.0
C232 C 0.94704 0.47474 0.82926 0.0
C233 C 0.91495 0.38079 0.8009 0.0
C234 C 0.93813 0.39948 0.77233 0.0
N235 N 0.91946 0.42831 0.83637 0.0
N236 N 0.95837 0.45832 0.78988 0.0
H237 H 0.95901 0.51885 0.85243 0.0
H238 H 0.89619 0.33467 0.79532 0.0
C239 C 0.82891 0.31386 0.84379 0.0
O240 O 0.79911 0.35568 0.84792 0.0
N241 N 0.86194 0.41691 0.93407 0.0
C242 C 0.84795 0.46626 0.95815 0.0
C243 C 0.8242 0.43596 0.98323 0.0
C244 C 0.84919 0.35705 0.94859 0.0
N245 N 0.82417 0.36705 0.97628 0.0
C246 C 0.8332 0.53855 0.85376 0.0
C247 C 0.79681 0.49717 0.75867 0.0
C248 C 0.78668 0.56226 0.77292 0.0
C249 C 0.80451 0.58218 0.82133 0.0
C250 C 0.82522 0.4545 0.79261 0.0
N251 N 0.84292 0.47484 0.83993 0.0
H252 H 0.85007 0.55907 0.88886 0.0
H253 H 0.83392 0.40626 0.77991 0.0
H254 H 0.85417 0.52069 0.95814 0.0
H255 H 0.85742 0.30658 0.93836 0.0
O256 O 0.92085 0.50437 0.9174 0.0
O257 O 0.94307 0.39623 0.93354 0.0
O258 O 0.86748 0.33209 0.85857 0.0
C259 C 0.94985 0.46205 0.94246 0.0
H260 H 0.94161 0.36999 0.74219 0.0
H261 H 0.80709 0.46321 1.00354 0.0
H262 H 0.78431 0.48062 0.7212 0.0
H263 H 0.79904 0.63346 0.83325 0.0
C264 C 0.25662 0.2529 0.5404 0.0
C265 C 0.24976 0.31818 0.51803 0.0
H266 H 0.28689 0.15377 0.54651 0.0
C267 C 0.26946 0.3321 0.48329 0.0
H268 H 0.24292 0.24046 0.56808 0.0
C269 C 0.29511 0.28232 0.47119 0.0
C270 C 0.30185 0.21693 0.49341 0.0
H271 H 0.2648 0.38143 0.46503 0.0
H272 H 0.30883 0.29482 0.44354 0.0
C273 C 0.28225 0.20311 0.52828 0.0
C274 C 0.75467 0.281 0.03802 0.0
C275 C 0.74526 0.21763 0.01298 0.0
H276 H 0.78779 0.37683 0.04725 0.0
C277 C 0.7624 0.20455 0.97573 0.0
H278 H 0.74275 0.29268 0.06746 0.0
C279 C 0.78836 0.253 0.96406 0.0
C280 C 0.79831 0.31608 0.98951 0.0
H281 H 0.75561 0.15676 0.95536 0.0
H282 H 0.80006 0.24106 0.93449 0.0
C283 C 0.78085 0.32936 0.02655 0.0
C284 C 0.77262 0.84115 0.48449 0.0
C285 C 0.74804 0.82515 0.51389 0.0
H286 H 0.81454 0.80454 0.44774 0.0
C287 C 0.7485 0.75648 0.52958 0.0
H288 H 0.77295 0.8933 0.47154 0.0
C289 C 0.77318 0.70577 0.517 0.0
C290 C 0.79776 0.72144 0.4875 0.0
H291 H 0.7307 0.74182 0.55285 0.0
H292 H 0.77309 0.65418 0.53088 0.0
C293 C 0.79694 0.79007 0.47127 0.0
C294 C 0.27869 0.83437 0.02821 0.0
C295 C 0.29918 0.82009 0.99407 0.0
H296 H 0.23963 0.79703 0.06765 0.0
C297 C 0.29417 0.75406 0.97249 0.0
H298 H 0.28192 0.88435 0.04578 0.0
C299 C 0.26951 0.70395 0.98472 0.0
C300 C 0.2491 0.71813 0.01896 0.0
H301 H 0.30852 0.74126 0.94526 0.0
H302 H 0.26623 0.65407 0.96704 0.0
C303 C 0.25403 0.78422 0.04048 0.0
C304 C 0.56395 0.05342 0.2858 0.0
C305 C 0.55892 0.05695 0.23601 0.0
H306 H 0.53359 0.05581 0.34016 0.0
C307 C 0.51811 0.05215 0.20235 0.0
H308 H 0.59518 0.05639 0.31251 0.0
C309 C 0.48291 0.05192 0.21824 0.0
C310 C 0.48785 0.05591 0.26803 0.0
H311 H 0.51324 0.05497 0.16388 0.0
H312 H 0.45164 0.05368 0.19151 0.0
C313 C 0.52876 0.05262 0.30169 0.0
C314 C 0.5143 0.94941 0.70147 0.0
C315 C 0.55515 0.9506 0.73541 0.0
H316 H 0.44788 0.94721 0.68997 0.0
C317 C 0.55953 0.96005 0.78481 0.0
H318 H 0.50959 0.94274 0.66325 0.0
C319 C 0.52409 0.96189 0.80024 0.0
C320 C 0.48345 0.95453 0.76661 0.0
H321 H 0.59049 0.96331 0.81193 0.0
H322 H 0.52871 0.96455 0.83867 0.0
C323 C 0.47891 0.95149 0.7169 0.0
C324 C 1.02259 0.55346 0.20652 0.0
C325 C 0.06276 0.56074 0.2412 0.0
H326 H 0.95579 0.55189 0.19322 0.0
C327 C 0.06642 0.55959 0.29068 0.0
H328 H 1.0187 0.55419 0.16823 0.0
C329 C 0.03043 0.55846 0.30506 0.0
C330 C 0.99004 0.55883 0.27017 0.0
H331 H 0.09712 0.56411 0.31824 0.0
H332 H 0.03415 0.56316 0.3432 0.0
C333 C 0.98659 0.5527 0.22089 0.0
C334 C 0.06683 0.4924 0.78934 0.0
C335 C 0.0608 0.48657 0.73939 0.0
H336 H 0.03794 0.48967 0.84503 0.0
C337 C 1.01953 0.48955 0.70658 0.0
H338 H 0.09844 0.49064 0.81535 0.0
C339 C 0.98502 0.48887 0.72365 0.0
C340 C 0.9912 0.48593 0.7737 0.0
H341 H 1.01396 0.4848 0.66802 0.0
H342 H 0.95353 0.48387 0.69777 0.0
C343 C 0.03228 0.49241 0.80639 0.0
C344 C 0.27314 0.827 0.17974 0.0
C345 C 0.23629 0.79472 0.18136 0.0
H346 H 0.31599 0.91084 0.20539 0.0
C347 C 0.21095 0.82806 0.205 0.0
H348 H 0.29294 0.80293 0.16124 0.0
C349 C 0.22433 0.88945 0.2304 0.0
C350 C 0.26249 0.91907 0.23122 0.0
H351 H 0.18216 0.80472 0.20644 0.0
H352 H 0.20627 0.91153 0.25174 0.0
C353 C 0.28603 0.88903 0.20434 0.0
C354 C 0.76312 0.89091 0.30196 0.0
C355 C 0.78434 0.91619 0.27145 0.0
H356 H 0.75869 0.8095 0.34925 0.0
C357 C 0.82093 0.88257 0.26937 0.0
H358 H 0.73441 0.91583 0.30333 0.0
C359 C 0.8351 0.82231 0.2959 0.0
C360 C 0.81202 0.79388 0.32359 0.0
H361 H 0.83725 0.90102 0.2454 0.0
H362 H 0.86265 0.796 0.29244 0.0
C363 C 0.7767 0.82984 0.32765 0.0
C364 C 0.77438 0.2031 0.73741 0.0
C365 C 0.78573 0.13646 0.75613 0.0
H366 H 0.77831 0.31142 0.75179 0.0
C367 C 0.81575 0.12833 0.80237 0.0
H368 H 0.75165 0.21047 0.70154 0.0
C369 C 0.83169 0.18664 0.83088 0.0
C370 C 0.81692 0.25263 0.81338 0.0
H371 H 0.82469 0.07733 0.81746 0.0
H372 H 0.85351 0.18014 0.86732 0.0
C373 C 0.78928 0.26064 0.76612 0.0
C374 C 0.20789 0.20745 0.7009 0.0
C375 C 0.23455 0.24257 0.68047 0.0
H376 H 0.20209 0.12286 0.74546 0.0
C377 C 0.2735 0.21254 0.6828 0.0
H378 H 0.1775 0.22899 0.69929 0.0
C379 C 0.28688 0.15121 0.70812 0.0
C380 C 0.26162 0.11918 0.73158 0.0
H381 H 0.29444 0.23786 0.66684 0.0
H382 H 0.31818 0.13118 0.71214 0.0
C383 C 0.2216 0.14644 0.72682 0.0
C384 C 0.72285 0.38795 0.22657 0.0
C385 C 0.76242 0.41415 0.22951 0.0
H386 H 0.67833 0.30668 0.20012 0.0
C387 C 0.78641 0.38143 0.20424 0.0
H388 H 0.70434 0.41216 0.24662 0.0
C389 C 0.77227 0.32045 0.17879 0.0
C390 C 0.73377 0.29161 0.17804 0.0
H391 H 0.81736 0.40065 0.20684 0.0
H392 H 0.79231 0.29452 0.16138 0.0
C393 C 0.70832 0.32739 0.20043 0.0
C394 C 0.32705 0.38784 0.28166 0.0
C395 C 0.28858 0.41819 0.28034 0.0
H396 H 0.36972 0.30278 0.30625 0.0
C397 C 0.2649 0.38901 0.30686 0.0
H398 H 0.34525 0.40924 0.26063 0.0
C399 C 0.27804 0.32723 0.33169 0.0
C400 C 0.31526 0.29425 0.33065 0.0
H401 H 0.23472 0.41137 0.30544 0.0
H402 H 0.25814 0.30387 0.34992 0.0
C403 C 0.34066 0.32667 0.30728 0.0
C404 C 0.25651 0.64991 0.80479 0.0
C405 C 0.2806 0.61883 0.77893 0.0
H406 H 0.25013 0.73558 0.8486 0.0
C407 C 0.31978 0.64643 0.78177 0.0
H408 H 0.22584 0.62958 0.80227 0.0
C409 C 0.33383 0.70672 0.80834 0.0
C410 C 0.30827 0.74104 0.83129 0.0
H411 H 0.33836 0.62349 0.76134 0.0
H412 H 0.36355 0.7284 0.80851 0.0
C413 C 0.27019 0.71079 0.83072 0.0
C414 C 0.76291 0.68685 0.66932 0.0
C415 C 0.73365 0.73161 0.6796 0.0
H416 H 0.80197 0.59692 0.69051 0.0
C417 C 0.7173 0.71446 0.71661 0.0
H418 H 0.77567 0.69832 0.6406 0.0
C419 C 0.73257 0.6564 0.74535 0.0
C420 C 0.76375 0.61407 0.73685 0.0
H421 H 0.69448 0.74774 0.72507 0.0
H422 H 0.72139 0.64617 0.77549 0.0
C423 C 0.77764 0.62836 0.69752 0.0
C424 C 0.51945 0.08227 0.49537 0.0
C425 C 0.48694 0.03807 0.46972 0.0
H426 H 0.58146 0.09113 0.54641 0.0
C427 C 0.49304 0.96612 0.47603 0.0
H428 H 0.51582 0.13773 0.49115 0.0
C429 C 0.53084 0.93901 0.50773 0.0
C430 C 0.5632 0.9834 0.53367 0.0
H431 H 0.46853 0.93056 0.45654 0.0
H432 H 0.53453 0.8836 0.51225 0.0
C433 C 0.55712 0.05527 0.52696 0.0
C434 C 0.52719 0.0879 0.00764 0.0
C435 C 0.55983 0.0433 0.03353 0.0
H436 H 0.46494 0.09722 0.95661 0.0
C437 C 0.55397 0.97143 0.02709 0.0
H438 H 0.53067 0.14333 0.01186 0.0
C439 C 0.51624 0.94475 0.99552 0.0
C440 C 0.48359 0.98939 0.96969 0.0
H441 H 0.57854 0.93551 0.04662 0.0
H442 H 0.51271 0.88933 0.99134 0.0
C443 C 0.48951 0.06124 0.97606 0.0
C444 C 0.05472 0.56407 0.52766 0.0
C445 C 0.06119 0.49239 0.535 0.0
H446 H 1.01292 0.64545 0.49046 0.0
C447 C 0.02903 0.44736 0.50947 0.0
H448 H 0.07891 0.60029 0.54691 0.0
C449 C 0.99123 0.4734 0.4773 0.0
C450 C 0.98473 0.54506 0.46993 0.0
H451 H 0.03298 0.39204 0.51441 0.0
H452 H 0.96707 0.43711 0.45809 0.0
C453 C 1.01689 0.59014 0.49544 0.0
C454 C 0.05978 0.47131 0.03421 0.0
C455 C 0.06537 0.54313 0.04087 0.0
H456 H 1.01887 0.38918 0.99814 0.0
C457 C 0.03247 0.58771 0.01558 0.0
H458 H 0.08455 0.43546 0.05335 0.0
C459 C 0.9948 0.56099 0.98409 0.0
C460 C 0.98928 0.48917 0.97728 0.0
H461 H 0.03578 0.64313 0.0201 0.0
H462 H 0.97004 0.59682 0.96487 0.0
C463 C 1.02212 0.4446 1.00273 0.0
loop_
_geom_bond_atom_site_label_1
_geom_bond_atom_site_label_2
_geom_bond_distance
_geom_bond_site_symmetry_2
_ccdc_geom_bond_type
Co0 N4 2.148 . S
Co0 N10 2.128 . S
Co0 N20 2.194 . S
Co0 O25 2.351 . S
Co0 O26 2.155 . S
Co0 O27 2.096 . S
C1 N4 1.301 . S
C1 N5 1.328 . S
C1 H6 0.930 . S
C2 C3 1.333 . S
C2 N4 1.317 . S
C2 H7 0.930 . S
C3 C2 1.333 . S
C3 N5 1.350 . S
C3 H29 0.931 . S
N4 Co0 2.148 . S
N4 C1 1.301 . S
N4 C2 1.317 . S
N5 C1 1.328 . S
N5 C3 1.350 . S
H6 C1 0.930 . S
H7 C2 0.930 . S
C8 O9 1.224 . S
C8 O27 1.247 . S
O9 C8 1.224 . S
N10 Co0 2.128 . S
N10 C11 1.355 . S
N10 C13 1.311 . S
C11 N10 1.355 . S
C11 C12 1.363 . S
C11 H23 0.929 . S
C12 C11 1.363 . S
C12 N14 1.375 . S
C12 H30 0.931 . S
C13 N10 1.311 . S
C13 N14 1.347 . S
C13 H24 0.929 . S
N14 C12 1.375 . S
N14 C13 1.347 . S
C15 C18 1.365 . S
C15 N20 1.328 1_565 S
C15 H21 0.929 . S
C16 C17 1.362 . S
C16 C19 1.378 1_565 S
C16 H31 0.929 . S
C17 C16 1.362 . S
C17 C18 1.366 . S
C18 C15 1.365 . S
C18 C17 1.366 . S
C18 H32 0.930 . S
C19 C16 1.378 1_545 S
C19 N20 1.315 . S
C19 H22 0.930 . S
N20 Co0 2.194 . S
N20 C15 1.328 1_545 S
N20 C19 1.315 . S
H21 C15 0.929 . S
H22 C19 0.930 . S
H23 C11 0.929 . S
H24 C13 0.929 . S
O25 Co0 2.351 . S
O25 C28 1.244 . S
O26 Co0 2.155 . S
O26 C28 1.240 . S
O27 Co0 2.096 . S
O27 C8 1.247 . S
C28 O25 1.244 . S
C28 O26 1.240 . S
H29 C3 0.931 . S
H30 C12 0.931 . S
H31 C16 0.929 . S
H32 C18 0.930 . S
Co33 N37 2.148 . S
Co33 N43 2.128 . S
Co33 N53 2.194 . S
Co33 O58 2.351 . S
Co33 O59 2.155 . S
Co33 O60 2.096 . S
C34 N37 1.301 . S
C34 N38 1.328 . S
C34 H39 0.930 . S
C35 C36 1.333 . S
C35 N37 1.317 . S
C35 H40 0.930 . S
C36 C35 1.333 . S
C36 N38 1.350 . S
C36 H62 0.931 . S
N37 Co33 2.148 . S
N37 C34 1.301 . S
N37 C35 1.317 . S
N38 C34 1.328 . S
N38 C36 1.350 . S
H39 C34 0.930 . S
H40 C35 0.930 . S
C41 O42 1.224 . S
C41 O60 1.247 . S
O42 C41 1.224 . S
N43 Co33 2.128 . S
N43 C44 1.355 . S
N43 C46 1.311 . S
C44 N43 1.355 . S
C44 C45 1.363 . S
C44 H56 0.929 . S
C45 C44 1.363 . S
C45 N47 1.375 . S
C45 H63 0.931 . S
C46 N43 1.311 . S
C46 N47 1.347 . S
C46 H57 0.929 . S
N47 C45 1.375 . S
N47 C46 1.347 . S
C48 C51 1.365 . S
C48 N53 1.328 1_565 S
C48 H54 0.929 . S
C49 C50 1.362 . S
C49 C52 1.378 1_565 S
C49 H64 0.929 . S
C50 C49 1.362 . S
C50 C51 1.366 . S
C51 C48 1.365 . S
C51 C50 1.366 . S
C51 H65 0.930 . S
C52 C49 1.378 1_545 S
C52 N53 1.315 . S
C52 H55 0.930 . S
N53 Co33 2.194 . S
N53 C48 1.328 1_545 S
N53 C52 1.315 . S
H54 C48 0.929 . S
H55 C52 0.930 . S
H56 C44 0.929 . S
H57 C46 0.929 . S
O58 Co33 2.351 . S
O58 C61 1.244 . S
O59 Co33 2.155 . S
O59 C61 1.240 . S
O60 Co33 2.096 . S
O60 C41 1.247 . S
C61 O58 1.244 . S
C61 O59 1.240 . S
H62 C36 0.931 . S
H63 C45 0.931 . S
H64 C49 0.929 . S
H65 C51 0.930 . S
Co66 N70 2.148 . S
Co66 N76 2.128 . S
Co66 N86 2.194 . S
Co66 O91 2.351 . S
Co66 O92 2.155 . S
Co66 O93 2.096 . S
C67 N70 1.301 . S
C67 N71 1.328 . S
C67 H72 0.930 . S
C68 C69 1.333 . S
C68 N70 1.317 . S
C68 H73 0.930 . S
C69 C68 1.333 . S
C69 N71 1.350 . S
C69 H95 0.931 . S
N70 Co66 2.148 . S
N70 C67 1.301 . S
N70 C68 1.317 . S
N71 C67 1.328 . S
N71 C69 1.350 . S
H72 C67 0.930 . S
H73 C68 0.930 . S
C74 O75 1.224 . S
C74 O93 1.247 . S
O75 C74 1.224 . S
N76 Co66 2.128 . S
N76 C77 1.355 . S
N76 C79 1.311 . S
C77 N76 1.355 . S
C77 C78 1.363 . S
C77 H89 0.929 . S
C78 C77 1.363 . S
C78 N80 1.375 . S
C78 H96 0.931 . S
C79 N76 1.311 . S
C79 N80 1.347 . S
C79 H90 0.929 . S
N80 C78 1.375 . S
N80 C79 1.347 . S
C81 C84 1.365 . S
C81 N86 1.328 1_545 S
C81 H87 0.929 . S
C82 C83 1.362 . S
C82 C85 1.378 1_545 S
C82 H97 0.929 . S
C83 C82 1.362 . S
C83 C84 1.366 . S
C84 C81 1.365 . S
C84 C83 1.366 . S
C84 H98 0.930 . S
C85 C82 1.378 1_565 S
C85 N86 1.315 . S
C85 H88 0.930 . S
N86 Co66 2.194 . S
N86 C81 1.328 1_565 S
N86 C85 1.315 . S
H87 C81 0.929 . S
H88 C85 0.930 . S
H89 C77 0.929 . S
H90 C79 0.929 . S
O91 Co66 2.351 . S
O91 C94 1.244 . S
O92 Co66 2.155 . S
O92 C94 1.240 . S
O93 Co66 2.096 . S
O93 C74 1.247 . S
C94 O91 1.244 . S
C94 O92 1.240 . S
H95 C69 0.931 . S
H96 C78 0.931 . S
H97 C82 0.929 . S
H98 C84 0.930 . S
Co99 N103 2.148 . S
Co99 N109 2.128 . S
Co99 N119 2.194 . S
Co99 O124 2.351 . S
Co99 O125 2.155 . S
Co99 O126 2.096 . S
C100 N103 1.301 . S
C100 N104 1.328 . S
C100 H105 0.930 . S
C101 C102 1.333 . S
C101 N103 1.317 . S
C101 H106 0.930 . S
C102 C101 1.333 . S
C102 N104 1.350 . S
C102 H128 0.931 . S
N103 Co99 2.148 . S
N103 C100 1.301 . S
N103 C101 1.317 . S
N104 C100 1.328 . S
N104 C102 1.350 . S
H105 C100 0.930 . S
H106 C101 0.930 . S
C107 O108 1.224 . S
C107 O126 1.247 . S
O108 C107 1.224 . S
N109 Co99 2.128 . S
N109 C110 1.355 . S
N109 C112 1.311 . S
C110 N109 1.355 . S
C110 C111 1.363 . S
C110 H122 0.929 . S
C111 C110 1.363 . S
C111 N113 1.375 . S
C111 H129 0.931 . S
C112 N109 1.311 . S
C112 N113 1.347 . S
C112 H123 0.929 . S
N113 C111 1.375 . S
N113 C112 1.347 . S
C114 C117 1.365 . S
C114 N119 1.328 1_545 S
C114 H120 0.929 . S
C115 C116 1.362 . S
C115 C118 1.378 1_545 S
C115 H130 0.929 . S
C116 C115 1.362 . S
C116 C117 1.366 . S
C117 C114 1.365 . S
C117 C116 1.366 . S
C117 H131 0.930 . S
C118 C115 1.378 1_565 S
C118 N119 1.315 . S
C118 H121 0.930 . S
N119 Co99 2.194 . S
N119 C114 1.328 1_565 S
N119 C118 1.315 . S
H120 C114 0.929 . S
H121 C118 0.930 . S
H122 C110 0.929 . S
H123 C112 0.929 . S
O124 Co99 2.351 . S
O124 C127 1.244 . S
O125 Co99 2.155 . S
O125 C127 1.240 . S
O126 Co99 2.096 . S
O126 C107 1.247 . S
C127 O124 1.244 . S
C127 O125 1.240 . S
H128 C102 0.931 . S
H129 C111 0.931 . S
H130 C115 0.929 . S
H131 C117 0.930 . S
Co132 N136 2.148 . S
Co132 N142 2.128 . S
Co132 N152 2.194 . S
Co132 O157 2.351 . S
Co132 O158 2.155 . S
Co132 O159 2.096 . S
C133 N136 1.301 . S
C133 N137 1.328 . S
C133 H138 0.930 . S
C134 C135 1.333 . S
C134 N136 1.317 . S
C134 H139 0.930 . S
C135 C134 1.333 . S
C135 N137 1.350 . S
C135 H161 0.931 . S
N136 Co132 2.148 . S
N136 C133 1.301 . S
N136 C134 1.317 . S
N137 C133 1.328 . S
N137 C135 1.350 . S
H138 C133 0.930 . S
H139 C134 0.930 . S
C140 O141 1.224 . S
C140 O159 1.247 . S
O141 C140 1.224 . S
N142 Co132 2.128 . S
N142 C143 1.355 . S
N142 C145 1.311 . S
C143 N142 1.355 . S
C143 C144 1.363 . S
C143 H155 0.929 . S
C144 C143 1.363 . S
C144 N146 1.375 . S
C144 H162 0.931 . S
C145 N142 1.311 . S
C145 N146 1.347 . S
C145 H156 0.929 . S
N146 C144 1.375 . S
N146 C145 1.347 . S
C147 C150 1.365 . S
C147 N152 1.328 . S
C147 H153 0.929 . S
C148 C149 1.362 . S
C148 C151 1.378 . S
C148 H163 0.929 . S
C149 C148 1.362 . S
C149 C150 1.366 . S
C150 C147 1.365 . S
C150 C149 1.366 . S
C150 H164 0.930 . S
C151 C148 1.378 . S
C151 N152 1.315 . S
C151 H154 0.930 . S
N152 Co132 2.194 . S
N152 C147 1.328 . S
N152 C151 1.315 . S
H153 C147 0.929 . S
H154 C151 0.930 . S
H155 C143 0.929 . S
H156 C145 0.929 . S
O157 Co132 2.351 . S
O157 C160 1.244 . S
O158 Co132 2.155 . S
O158 C160 1.240 . S
O159 Co132 2.096 . S
O159 C140 1.247 . S
C160 O157 1.244 . S
C160 O158 1.240 . S
H161 C135 0.931 . S
H162 C144 0.931 . S
H163 C148 0.929 . S
H164 C150 0.930 . S
Co165 N169 2.148 . S
Co165 N175 2.128 . S
Co165 N185 2.194 . S
Co165 O190 2.351 . S
Co165 O191 2.155 . S
Co165 O192 2.096 . S
C166 N169 1.301 . S
C166 N170 1.328 . S
C166 H171 0.930 . S
C167 C168 1.333 . S
C167 N169 1.317 . S
C167 H172 0.930 . S
C168 C167 1.333 . S
C168 N170 1.350 . S
C168 H194 0.931 . S
N169 Co165 2.148 . S
N169 C166 1.301 . S
N169 C167 1.317 . S
N170 C166 1.328 . S
N170 C168 1.350 . S
H171 C166 0.930 . S
H172 C167 0.930 . S
C173 O174 1.224 . S
C173 O192 1.247 . S
O174 C173 1.224 . S
N175 Co165 2.128 . S
N175 C176 1.355 . S
N175 C178 1.311 . S
C176 N175 1.355 . S
C176 C177 1.363 . S
C176 H188 0.929 . S
C177 C176 1.363 . S
C177 N179 1.375 . S
C177 H195 0.931 . S
C178 N175 1.311 . S
C178 N179 1.347 . S
C178 H189 0.929 . S
N179 C177 1.375 . S
N179 C178 1.347 . S
C180 C183 1.365 . S
C180 N185 1.328 . S
C180 H186 0.929 . S
C181 C182 1.362 . S
C181 C184 1.378 . S
C181 H196 0.929 . S
C182 C181 1.362 . S
C182 C183 1.366 . S
C183 C180 1.365 . S
C183 C182 1.366 . S
C183 H197 0.930 . S
C184 C181 1.378 . S
C184 N185 1.315 . S
C184 H187 0.930 . S
N185 Co165 2.194 . S
N185 C180 1.328 . S
N185 C184 1.315 . S
H186 C180 0.929 . S
H187 C184 0.930 . S
H188 C176 0.929 . S
H189 C178 0.929 . S
O190 Co165 2.351 . S
O190 C193 1.244 . S
O191 Co165 2.155 . S
O191 C193 1.240 . S
O192 Co165 2.096 . S
O192 C173 1.247 . S
C193 O190 1.244 . S
C193 O191 1.240 . S
H194 C168 0.931 . S
H195 C177 0.931 . S
H196 C181 0.929 . S
H197 C183 0.930 . S
Co198 N202 2.148 . S
Co198 N208 2.128 . S
Co198 N218 2.194 . S
Co198 O223 2.351 . S
Co198 O224 2.155 . S
Co198 O225 2.096 . S
C199 N202 1.301 . S
C199 N203 1.328 . S
C199 H204 0.930 . S
C200 C201 1.333 . S
C200 N202 1.317 . S
C200 H205 0.930 . S
C201 C200 1.333 . S
C201 N203 1.350 . S
C201 H227 0.931 . S
N202 Co198 2.148 . S
N202 C199 1.301 . S
N202 C200 1.317 . S
N203 C199 1.328 . S
N203 C201 1.350 . S
H204 C199 0.930 . S
H205 C200 0.930 . S
C206 O207 1.224 . S
C206 O225 1.247 . S
O207 C206 1.224 . S
N208 Co198 2.128 . S
N208 C209 1.355 . S
N208 C211 1.311 . S
C209 N208 1.355 . S
C209 C210 1.363 . S
C209 H221 0.929 . S
C210 C209 1.363 . S
C210 N212 1.375 . S
C210 H228 0.931 . S
C211 N208 1.311 . S
C211 N212 1.347 . S
C211 H222 0.929 . S
N212 C210 1.375 . S
N212 C211 1.347 . S
C213 C216 1.365 . S
C213 N218 1.328 . S
C213 H219 0.929 . S
C214 C215 1.362 . S
C214 C217 1.378 . S
C214 H229 0.929 . S
C215 C214 1.362 . S
C215 C216 1.366 . S
C216 C213 1.365 . S
C216 C215 1.366 . S
C216 H230 0.930 . S
C217 C214 1.378 . S
C217 N218 1.315 . S
C217 H220 0.930 . S
N218 Co198 2.194 . S
N218 C213 1.328 . S
N218 C217 1.315 . S
H219 C213 0.929 . S
H220 C217 0.930 . S
H221 C209 0.929 . S
H222 C211 0.929 . S
O223 Co198 2.351 . S
O223 C226 1.244 . S
O224 Co198 2.155 . S
O224 C226 1.240 . S
O225 Co198 2.096 . S
O225 C206 1.247 . S
C226 O223 1.244 . S
C226 O224 1.240 . S
H227 C201 0.931 . S
H228 C210 0.931 . S
H229 C214 0.929 . S
H230 C216 0.930 . S
Co231 N235 2.148 . S
Co231 N241 2.128 . S
Co231 N251 2.194 . S
Co231 O256 2.351 . S
Co231 O257 2.155 . S
Co231 O258 2.096 . S
C232 N235 1.301 . S
C232 N236 1.328 . S
C232 H237 0.930 . S
C233 C234 1.333 . S
C233 N235 1.317 . S
C233 H238 0.930 . S
C234 C233 1.333 . S
C234 N236 1.350 . S
C234 H260 0.931 . S
N235 Co231 2.148 . S
N235 C232 1.301 . S
N235 C233 1.317 . S
N236 C232 1.328 . S
N236 C234 1.350 . S
H237 C232 0.930 . S
H238 C233 0.930 . S
C239 O240 1.224 . S
C239 O258 1.247 . S
O240 C239 1.224 . S
N241 Co231 2.128 . S
N241 C242 1.355 . S
N241 C244 1.311 . S
C242 N241 1.355 . S
C242 C243 1.363 . S
C242 H254 0.929 . S
C243 C242 1.363 . S
C243 N245 1.375 . S
C243 H261 0.931 . S
C244 N241 1.311 . S
C244 N245 1.347 . S
C244 H255 0.929 . S
N245 C243 1.375 . S
N245 C244 1.347 . S
C246 C249 1.365 . S
C246 N251 1.328 . S
C246 H252 0.929 . S
C247 C248 1.362 . S
C247 C250 1.378 . S
C247 H262 0.929 . S
C248 C247 1.362 . S
C248 C249 1.366 . S
C249 C246 1.365 . S
C249 C248 1.366 . S
C249 H263 0.930 . S
C250 C247 1.378 . S
C250 N251 1.315 . S
C250 H253 0.930 . S
N251 Co231 2.194 . S
N251 C246 1.328 . S
N251 C250 1.315 . S
H252 C246 0.929 . S
H253 C250 0.930 . S
H254 C242 0.929 . S
H255 C244 0.929 . S
O256 Co231 2.351 . S
O256 C259 1.244 . S
O257 Co231 2.155 . S
O257 C259 1.240 . S
O258 Co231 2.096 . S
O258 C239 1.247 . S
C259 O256 1.244 . S
C259 O257 1.240 . S
H260 C234 0.931 . S
H261 C243 0.931 . S
H262 C247 0.929 . S
H263 C249 0.930 . S
C264 C265 1.387 . S
C264 H268 0.950 . S
C264 C273 1.390 . S
C265 C264 1.387 . S
C265 C267 1.387 . S
H266 C273 0.950 . S
C267 C265 1.387 . S
C267 C269 1.390 . S
C267 H271 0.950 . S
H268 C264 0.950 . S
C269 C267 1.390 . S
C269 C270 1.387 . S
C269 H272 0.950 . S
C270 C269 1.387 . S
C270 C273 1.387 . S
H271 C267 0.950 . S
H272 C269 0.950 . S
C273 C264 1.390 . S
C273 H266 0.950 . S
C273 C270 1.387 . S
C274 C275 1.387 . S
C274 H278 0.950 . S
C274 C283 1.390 1_554 S
C275 C274 1.387 . S
C275 C277 1.387 . S
H276 C283 0.950 . S
C277 C275 1.387 . S
C277 C279 1.390 1_554 S
C277 H281 0.950 . S
H278 C274 0.950 . S
C279 C277 1.390 1_556 S
C279 C280 1.387 . S
C279 H282 0.950 . S
C280 C279 1.387 . S
C280 C283 1.387 . S
H281 C277 0.950 . S
H282 C279 0.950 . S
C283 C274 1.390 1_556 S
C283 H276 0.950 . S
C283 C280 1.387 . S
C284 C285 1.387 . S
C284 H288 0.950 . S
C284 C293 1.390 . S
C285 C284 1.387 . S
C285 C287 1.387 . S
H286 C293 0.950 . S
C287 C285 1.387 . S
C287 C289 1.390 . S
C287 H291 0.950 . S
H288 C284 0.950 . S
C289 C287 1.390 . S
C289 C290 1.387 . S
C289 H292 0.950 . S
C290 C289 1.387 . S
C290 C293 1.387 . S
H291 C287 0.950 . S
H292 C289 0.950 . S
C293 C284 1.390 . S
C293 H286 0.950 . S
C293 C290 1.387 . S
C294 C295 1.387 1_554 S
C294 H298 0.950 . S
C294 C303 1.390 . S
C295 C294 1.387 1_556 S
C295 C297 1.387 . S
H296 C303 0.950 . S
C297 C295 1.387 . S
C297 C299 1.390 . S
C297 H301 0.950 . S
H298 C294 0.950 . S
C299 C297 1.390 . S
C299 C300 1.387 1_556 S
C299 H302 0.950 . S
C300 C299 1.387 1_554 S
C300 C303 1.387 . S
H301 C297 0.950 . S
H302 C299 0.950 . S
C303 C294 1.390 . S
C303 H296 0.950 . S
C303 C300 1.387 . S
C304 C305 1.387 1_565 S
C304 H308 0.950 . S
C304 C313 1.390 . S
C305 C304 1.387 1_545 S
C305 C307 1.387 . S
H306 C313 0.950 . S
C307 C305 1.387 . S
C307 C309 1.390 . S
C307 H311 0.950 . S
H308 C304 0.950 . S
C309 C307 1.390 . S
C309 C310 1.387 . S
C309 H312 0.950 . S
C310 C309 1.387 . S
C310 C313 1.387 1_545 S
H311 C307 0.950 . S
H312 C309 0.950 . S
C313 C304 1.390 . S
C313 H306 0.950 . S
C313 C310 1.387 1_565 S
C314 C315 1.387 1_545 S
C314 H318 0.950 . S
C314 C323 1.390 . S
C315 C314 1.387 1_565 S
C315 C317 1.387 . S
H316 C323 0.950 . S
C317 C315 1.387 . S
C317 C319 1.390 . S
C317 H321 0.950 . S
H318 C314 0.950 . S
C319 C317 1.390 . S
C319 C320 1.387 . S
C319 H322 0.950 . S
C320 C319 1.387 . S
C320 C323 1.387 1_565 S
H321 C317 0.950 . S
H322 C319 0.950 . S
C323 C314 1.390 . S
C323 H316 0.950 . S
C323 C320 1.387 1_545 S
C324 C325 1.387 . S
C324 H328 0.950 . S
C324 C333 1.390 1_455 S
C325 C324 1.387 . S
C325 C327 1.387 . S
H326 C333 0.950 . S
C327 C325 1.387 . S
C327 C329 1.390 1_455 S
C327 H331 0.950 . S
H328 C324 0.950 . S
C329 C327 1.390 1_655 S
C329 C330 1.387 . S
C329 H332 0.950 . S
C330 C329 1.387 . S
C330 C333 1.387 . S
H331 C327 0.950 . S
H332 C329 0.950 . S
C333 C324 1.390 1_655 S
C333 H326 0.950 . S
C333 C330 1.387 . S
C334 C335 1.387 . S
C334 H338 0.950 . S
C334 C343 1.390 1_455 S
C335 C334 1.387 . S
C335 C337 1.387 . S
H336 C343 0.950 . S
C337 C335 1.387 . S
C337 C339 1.390 1_455 S
C337 H341 0.950 . S
H338 C334 0.950 . S
C339 C337 1.390 1_655 S
C339 C340 1.387 . S
C339 H342 0.950 . S
C340 C339 1.387 . S
C340 C343 1.387 . S
H341 C337 0.950 . S
H342 C339 0.950 . S
C343 C334 1.390 1_655 S
C343 H336 0.950 . S
C343 C340 1.387 . S
C344 C345 1.387 . S
C344 H348 0.950 . S
C344 C353 1.390 . S
C345 C344 1.387 . S
C345 C347 1.387 . S
H346 C353 0.950 . S
C347 C345 1.387 . S
C347 C349 1.390 . S
C347 H351 0.950 . S
H348 C344 0.950 . S
C349 C347 1.390 . S
C349 C350 1.387 . S
C349 H352 0.950 . S
C350 C349 1.387 . S
C350 C353 1.387 . S
H351 C347 0.950 . S
H352 C349 0.950 . S
C353 C344 1.390 . S
C353 H346 0.950 . S
C353 C350 1.387 . S
C354 C355 1.387 . S
C354 H358 0.950 . S
C354 C363 1.390 . S
C355 C354 1.387 . S
C355 C357 1.387 . S
H356 C363 0.950 . S
C357 C355 1.387 . S
C357 C359 1.390 . S
C357 H361 0.950 . S
H358 C354 0.950 . S
C359 C357 1.390 . S
C359 C360 1.387 . S
C359 H362 0.950 . S
C360 C359 1.387 . S
C360 C363 1.387 . S
H361 C357 0.950 . S
H362 C359 0.950 . S
C363 C354 1.390 . S
C363 H356 0.950 . S
C363 C360 1.387 . S
C364 C365 1.387 . S
C364 H368 0.950 . S
C364 C373 1.390 . S
C365 C364 1.387 . S
C365 C367 1.387 . S
H366 C373 0.950 . S
C367 C365 1.387 . S
C367 C369 1.390 . S
C367 H371 0.950 . S
H368 C364 0.950 . S
C369 C367 1.390 . S
C369 C370 1.387 . S
C369 H372 0.950 . S
C370 C369 1.387 . S
C370 C373 1.387 . S
H371 C367 0.950 . S
H372 C369 0.950 . S
C373 C364 1.390 . S
C373 H366 0.950 . S
C373 C370 1.387 . S
C374 C375 1.387 . S
C374 H378 0.950 . S
C374 C383 1.390 . S
C375 C374 1.387 . S
C375 C377 1.387 . S
H376 C383 0.950 . S
C377 C375 1.387 . S
C377 C379 1.390 . S
C377 H381 0.950 . S
H378 C374 0.950 . S
C379 C377 1.390 . S
C379 C380 1.387 . S
C379 H382 0.950 . S
C380 C379 1.387 . S
C380 C383 1.387 . S
H381 C377 0.950 . S
H382 C379 0.950 . S
C383 C374 1.390 . S
C383 H376 0.950 . S
C383 C380 1.387 . S
C384 C385 1.387 . S
C384 H388 0.950 . S
C384 C393 1.390 . S
C385 C384 1.387 . S
C385 C387 1.387 . S
H386 C393 0.950 . S
C387 C385 1.387 . S
C387 C389 1.390 . S
C387 H391 0.950 . S
H388 C384 0.950 . S
C389 C387 1.390 . S
C389 C390 1.387 . S
C389 H392 0.950 . S
C390 C389 1.387 . S
C390 C393 1.387 . S
H391 C387 0.950 . S
H392 C389 0.950 . S
C393 C384 1.390 . S
C393 H386 0.950 . S
C393 C390 1.387 . S
C394 C395 1.387 . S
C394 H398 0.950 . S
C394 C403 1.390 . S
C395 C394 1.387 . S
C395 C397 1.387 . S
H396 C403 0.950 . S
C397 C395 1.387 . S
C397 C399 1.390 . S
C397 H401 0.950 . S
H398 C394 0.950 . S
C399 C397 1.390 . S
C399 C400 1.387 . S
C399 H402 0.950 . S
C400 C399 1.387 . S
C400 C403 1.387 . S
H401 C397 0.950 . S
H402 C399 0.950 . S
C403 C394 1.390 . S
C403 H396 0.950 . S
C403 C400 1.387 . S
C404 C405 1.387 . S
C404 H408 0.950 . S
C404 C413 1.390 . S
C405 C404 1.387 . S
C405 C407 1.387 . S
H406 C413 0.950 . S
C407 C405 1.387 . S
C407 C409 1.390 . S
C407 H411 0.950 . S
H408 C404 0.950 . S
C409 C407 1.390 . S
C409 C410 1.387 . S
C409 H412 0.950 . S
C410 C409 1.387 . S
C410 C413 1.387 . S
H411 C407 0.950 . S
H412 C409 0.950 . S
C413 C404 1.390 . S
C413 H406 0.950 . S
C413 C410 1.387 . S
C414 C415 1.387 . S
C414 H418 0.950 . S
C414 C423 1.390 . S
C415 C414 1.387 . S
C415 C417 1.387 . S
H416 C423 0.950 . S
C417 C415 1.387 . S
C417 C419 1.390 . S
C417 H421 0.950 . S
H418 C414 0.950 . S
C419 C417 1.390 . S
C419 C420 1.387 . S
C419 H422 0.950 . S
C420 C419 1.387 . S
C420 C423 1.387 . S
H421 C417 0.950 . S
H422 C419 0.950 . S
C423 C414 1.390 . S
C423 H416 0.950 . S
C423 C420 1.387 . S
C424 C425 1.387 . S
C424 H428 0.950 . S
C424 C433 1.397 . S
C425 C424 1.387 . S
C425 C427 1.381 1_545 S
H426 C433 0.950 . S
C427 C425 1.381 1_565 S
C427 C429 1.397 . S
C427 H431 0.950 . S
H428 C424 0.950 . S
C429 C427 1.397 . S
C429 C430 1.387 . S
C429 H432 0.950 . S
C430 C429 1.387 . S
C430 C433 1.381 1_565 S
H431 C427 0.950 . S
H432 C429 0.950 . S
C433 C424 1.397 . S
C433 H426 0.950 . S
C433 C430 1.381 1_545 S
C434 C435 1.387 1_556 S
C434 H438 0.950 . S
C434 C443 1.390 . S
C435 C434 1.387 1_554 S
C435 C437 1.387 1_545 S
H436 C443 0.950 . S
C437 C435 1.387 1_565 S
C437 C439 1.390 . S
C437 H441 0.950 . S
H438 C434 0.950 . S
C439 C437 1.390 . S
C439 C440 1.387 1_554 S
C439 H442 0.950 . S
C440 C439 1.387 1_556 S
C440 C443 1.387 1_565 S
H441 C437 0.950 . S
H442 C439 0.950 . S
C443 C434 1.390 . S
C443 H436 0.950 . S
C443 C440 1.387 1_545 S
C444 C445 1.387 . S
C444 H448 0.950 . S
C444 C453 1.390 . S
C445 C444 1.387 . S
C445 C447 1.387 1_455 S
H446 C453 0.950 . S
C447 C445 1.387 1_655 S
C447 C449 1.390 . S
C447 H451 0.950 . S
H448 C444 0.950 . S
C449 C447 1.390 . S
C449 C450 1.387 . S
C449 H452 0.950 . S
C450 C449 1.387 . S
C450 C453 1.387 1_655 S
H451 C447 0.950 . S
H452 C449 0.950 . S
C453 C444 1.390 . S
C453 H446 0.950 . S
C453 C450 1.387 1_455 S
C454 C455 1.387 1_556 S
C454 H458 0.950 . S
C454 C463 1.390 1_455 S
C455 C454 1.387 1_554 S
C455 C457 1.387 . S
H456 C463 0.950 . S
C457 C455 1.387 . S
C457 C459 1.390 1_455 S
C457 H461 0.950 . S
H458 C454 0.950 . S
C459 C457 1.390 1_655 S
C459 C460 1.387 1_554 S
C459 H462 0.950 . S
C460 C459 1.387 1_556 S
C460 C463 1.387 . S
H461 C457 0.950 . S
H462 C459 0.950 . S
C463 C454 1.390 1_655 S
C463 H456 0.950 . S
C463 C460 1.387 . S
C265 N212 1.994 . S
C270 N14 1.994 . S
C275 N47 1.993 . S
C280 N245 1.993 . S
C285 N80 1.994 . S
C290 N146 1.994 . S
C295 N113 1.993 . S
C300 N179 1.993 . S
C305 N38 1.477 . S
C310 N5 1.477 . S
C315 N71 1.477 . S
C320 N104 1.477 . S
C325 N170 1.477 . S
C330 N137 1.477 . S
C335 N203 1.477 . S
C340 N236 1.477 . S
C345 C173 1.218 . S
C350 C17 1.237 . S
C355 C50 1.236 . S
C360 C140 1.217 . S
C365 C83 1.237 . S
C370 C239 1.219 . S
C375 C206 1.218 . S
C380 C116 1.236 . S
C385 C149 1.237 . S
C390 C41 1.220 . S
C395 C182 1.236 . S
C400 C8 1.219 . S
C405 C215 1.236 . S
C410 C107 1.220 . S
C415 C74 1.219 . S
C420 C248 1.236 . S
C425 C28 1.534 . S
C430 C94 1.534 . S
C435 C61 1.534 . S
C440 C127 1.534 . S
C445 C226 1.532 . S
C450 C160 1.532 . S
C455 C193 1.534 . S
C460 C259 1.534 . S
