# Generated by pormake.
# Topology vby, (6)-cn, num edge types: 1
# Building blocks:
#     Node 0, Type 0, BuildingBlock: HISSIN_clean_sbu_0, # of connection points: 6
#     Node 1, Type 0, BuildingBlock: HISSIN_clean_sbu_0, # of connection points: 6
#     Node 2, Type 0, BuildingBlock: HISSIN_clean_sbu_0, # of connection points: 6
#     Node 3, Type 0, BuildingBlock: HISSIN_clean_sbu_0, # of connection points: 6
#     Node 4, Type 0, BuildingBlock: HISSIN_clean_sbu_0, # of connection points: 6
#     Node 5, Type 0, BuildingBlock: HISSIN_clean_sbu_0, # of connection points: 6
#     Node 6, Type 0, BuildingBlock: HISSIN_clean_sbu_0, # of connection points: 6
#     Node 7, Type 0, BuildingBlock: HISSIN_clean_sbu_0, # of connection points: 6
#     Edge 8, Type (0, 0), BuildingBlock: KIFKEQ_clean_linker_1, # of connection points: 2
#     Edge 9, Type (0, 0), BuildingBlock: KIFKEQ_clean_linker_1, # of connection points: 2
#     Edge 10, Type (0, 0), BuildingBlock: KIFKEQ_clean_linker_1, # of connection points: 2
#     Edge 11, Type (0, 0), BuildingBlock: KIFKEQ_clean_linker_1, # of connection points: 2
#     Edge 12, Type (0, 0), BuildingBlock: KIFKEQ_clean_linker_1, # of connection points: 2
#     Edge 13, Type (0, 0), BuildingBlock: KIFKEQ_clean_linker_1, # of connection points: 2
#     Edge 14, Type (0, 0), BuildingBlock: KIFKEQ_clean_linker_1, # of connection points: 2
#     Edge 15, Type (0, 0), BuildingBlock: KIFKEQ_clean_linker_1, # of connection points: 2
#     Edge 16, Type (0, 0), BuildingBlock: KIFKEQ_clean_linker_1, # of connection points: 2
#     Edge 17, Type (0, 0), BuildingBlock: KIFKEQ_clean_linker_1, # of connection points: 2
#     Edge 18, Type (0, 0), BuildingBlock: KIFKEQ_clean_linker_1, # of connection points: 2
#     Edge 19, Type (0, 0), BuildingBlock: KIFKEQ_clean_linker_1, # of connection points: 2
#     Edge 20, Type (0, 0), BuildingBlock: KIFKEQ_clean_linker_1, # of connection points: 2
#     Edge 21, Type (0, 0), BuildingBlock: KIFKEQ_clean_linker_1, # of connection points: 2
#     Edge 22, Type (0, 0), BuildingBlock: KIFKEQ_clean_linker_1, # of connection points: 2
#     Edge 23, Type (0, 0), BuildingBlock: KIFKEQ_clean_linker_1, # of connection points: 2
#     Edge 24, Type (0, 0), BuildingBlock: KIFKEQ_clean_linker_1, # of connection points: 2
#     Edge 25, Type (0, 0), BuildingBlock: KIFKEQ_clean_linker_1, # of connection points: 2
#     Edge 26, Type (0, 0), BuildingBlock: KIFKEQ_clean_linker_1, # of connection points: 2
#     Edge 27, Type (0, 0), BuildingBlock: KIFKEQ_clean_linker_1, # of connection points: 2
#     Edge 28, Type (0, 0), BuildingBlock: KIFKEQ_clean_linker_1, # of connection points: 2
#     Edge 29, Type (0, 0), BuildingBlock: KIFKEQ_clean_linker_1, # of connection points: 2
#     Edge 30, Type (0, 0), BuildingBlock: KIFKEQ_clean_linker_1, # of connection points: 2
#     Edge 31, Type (0, 0), BuildingBlock: KIFKEQ_clean_linker_1, # of connection points: 2
# Relax obj value: 0.199
# Max RMSD: 0.218
# Mean RMSD: 0.218
data_MOF--net-vby--node1-HISSIN_clean_sbu_0--edge1-KIFKEQ_clean_linker_1
_symmetry_space_group_name_H-M    P1
_symmetry_Int_Tables_number       1
_symmetry_cell_setting            triclinic
loop_
_symmetry_equiv_pos_as_xyz
'x, y, z'
_cell_length_a     15.673847
_cell_length_b     106.11695
_cell_length_c     30.677224
_cell_angle_alpha  89.99244
_cell_angle_beta   91.866145
_cell_angle_gamma 90.008057
loop_
_atom_site_label
_atom_site_type_symbol
_atom_site_fract_x
_atom_site_fract_y
_atom_site_fract_z
_atom_type_partial_charge
Eu0 Eu 0.10532 0.36655 0.9877 0.0
Eu1 Eu 0.11016 0.39783 0.98013 0.0
C2 C 0.09415 0.38058 0.89709 0.0
C3 C 0.14842 0.33008 0.00128 0.0
C4 C 0.20615 0.32511 0.97162 0.0
C5 C 0.15989 0.3106 0.0432 0.0
C6 C 0.23876 0.31292 0.97717 0.0
C7 C 0.12698 0.32278 0.03755 0.0
C8 C 0.21436 0.3054 0.01242 0.0
C9 C 0.10094 0.34189 0.99153 0.0
O10 O 0.96976 0.39308 0.97223 0.0
O11 O 0.9698 0.37258 -0.00233 0.0
C12 C 0.92941 0.38291 0.98518 0.0
O13 O 0.13841 0.37445 0.05446 0.0
O14 O 0.08546 0.41497 0.94201 0.0
O15 O 0.15472 0.41604 0.00454 0.0
O16 O 0.06648 0.39317 0.0473 0.0
C17 C 0.09855 0.38405 0.07171 0.0
O18 O 0.24199 0.37135 0.97377 0.0
O19 O 0.24375 0.3917 -0.00099 0.0
O20 O 0.14221 0.38928 0.91556 0.0
O21 O 0.08055 0.34918 0.02385 0.0
O22 O 0.12021 0.34825 0.9568 0.0
O23 O 0.05512 0.37232 0.9211 0.0
C24 C 0.08987 0.43511 0.97748 0.0
C25 C 0.08355 0.44039 0.01928 0.0
C26 C 0.05724 0.45563 0.94567 0.0
C27 C 0.06564 0.45324 0.02416 0.0
C28 C 0.07501 0.44281 0.94083 0.0
C29 C 0.05408 0.46108 0.98738 0.0
C30 C 0.12355 0.42226 0.9709 0.0
C31 C 0.2837 0.3815 0.98667 0.0
H32 H 0.22377 0.33043 0.94316 0.0
H33 H 0.13918 0.30503 0.07049 0.0
H34 H 0.28159 0.30926 0.95322 0.0
H35 H 0.0817 0.32627 0.0606 0.0
H36 H 0.09512 0.4347 0.0482 0.0
H37 H 0.04995 0.46136 0.91659 0.0
H38 H 0.06241 0.45708 0.05676 0.0
H39 H 0.08087 0.43903 0.90826 0.0
Eu40 Eu 0.97391 0.61983 0.02299 0.0
Eu41 Eu 0.98019 0.65126 0.02041 0.0
C42 C 0.98457 0.6348 0.93305 0.0
C43 C 0.98812 0.58246 0.01721 0.0
C44 C 0.94921 0.57604 0.98174 0.0
C45 C 0.05773 0.56286 0.03969 0.0
C46 C 0.96281 0.56313 0.9759 0.0
C47 C 0.04389 0.57577 0.04563 0.0
C48 C 1.01535 0.55632 0.00548 0.0
C49 C 0.95904 0.59531 0.02855 0.0
O50 O 0.84309 0.64634 0.03323 0.0
O51 O 0.84087 0.62633 0.00503 0.0
C52 C 0.80117 0.63638 0.01872 0.0
O53 O 0.94386 0.62755 0.08905 0.0
O54 O 1.00412 0.66927 0.98818 0.0
O55 O 0.9672 0.66894 0.05571 0.0
O56 O 1.03261 0.64435 0.08514 0.0
C57 C 0.99316 0.63595 0.10833 0.0
O58 O 0.11489 0.62441 0.02933 0.0
O59 O 0.11514 0.64536 0.00855 0.0
O60 O 0.94945 0.64457 0.95191 0.0
O61 O 1.0045 0.60207 0.05629 0.0
O62 O 0.92119 0.60213 -0.00174 0.0
O63 O 1.01323 0.62507 0.95565 0.0
C64 C 0.93789 0.68794 0.016 0.0
C65 C 0.90416 0.69413 0.05211 0.0
C66 C 0.90286 0.70638 0.97145 0.0
C67 C 0.87124 0.70634 0.04811 0.0
C68 C 0.9359 0.69415 0.97547 0.0
C69 C 0.87158 0.71272 0.00793 0.0
C70 C 0.9854 0.67595 0.02231 0.0
C71 C 0.15527 0.63479 0.01831 0.0
H72 H 0.90506 0.58084 0.9595 0.0
H73 H 0.09809 0.55787 0.06326 0.0
H74 H 0.93023 0.55842 0.94883 0.0
H75 H 0.07376 0.58038 0.0737 0.0
H76 H 0.90618 0.68974 0.084 0.0
H77 H 0.90311 0.71094 0.93987 0.0
H78 H 0.84893 0.71097 0.07706 0.0
H79 H 0.96231 0.68973 0.94709 0.0
Eu80 Eu 0.10352 0.62017 0.52646 0.0
Eu81 Eu 0.09747 0.65156 0.52127 0.0
C82 C 0.08918 0.63689 0.61019 0.0
C83 C 0.08612 0.58271 0.52722 0.0
C84 C 0.05992 0.57557 0.56293 0.0
C85 C 0.08011 0.5637 0.48259 0.0
C86 C 0.04591 0.56261 0.55886 0.0
C87 C 0.09434 0.57669 0.48671 0.0
C88 C 0.05817 0.55645 0.51897 0.0
C89 C 0.11805 0.59569 0.53478 0.0
O90 O 0.23595 0.64675 0.53588 0.0
O91 O 0.23577 0.6264 0.51047 0.0
C92 C 0.27657 0.63664 0.52299 0.0
O93 O 0.06059 0.6251 0.45786 0.0
O94 O 0.11646 0.66952 0.55442 0.0
O95 O 0.0671 0.66927 0.4874 0.0
O96 O 0.12642 0.64441 0.45432 0.0
C97 C 0.08979 0.63461 0.43523 0.0
O98 O 0.96341 0.6248 0.53141 0.0
O99 O 0.96147 0.64551 0.508 0.0
O100 O 0.04912 0.6452 0.58566 0.0
O101 O 0.14775 0.60206 0.50218 0.0
O102 O 0.08049 0.60284 0.56299 0.0
O103 O 0.13771 0.62839 0.59247 0.0
C104 C 0.13756 0.68811 0.51205 0.0
C105 C 0.10175 0.69667 0.48175 0.0
C106 C 0.24379 0.70391 0.53321 0.0
C107 C 0.13561 0.70878 0.47765 0.0
C108 C 0.20995 0.69177 0.53724 0.0
C109 C 0.20596 0.71265 0.50398 0.0
C110 C 0.09182 0.67621 0.5206 0.0
C111 C 0.92208 0.63507 0.51889 0.0
H112 H 0.05399 0.5799 0.59467 0.0
H113 H 0.0906 0.55924 0.45147 0.0
H114 H 1.02769 0.55734 0.58733 0.0
H115 H 0.11549 0.58188 0.45864 0.0
H116 H 0.04527 0.69415 0.46237 0.0
H117 H 0.29879 0.70652 0.55352 0.0
H118 H 0.10421 0.71529 0.45517 0.0
H119 H 0.23895 0.6854 0.56101 0.0
Eu120 Eu 0.98292 0.36614 0.48245 0.0
Eu121 Eu 0.97777 0.3977 0.48066 0.0
C122 C 0.99257 0.38239 0.57019 0.0
C123 C 0.9464 0.32938 0.49082 0.0
C124 C 0.98682 0.32082 0.51959 0.0
C125 C 0.84194 0.31319 0.47102 0.0
C126 C 0.95636 0.3085 0.5234 0.0
C127 C 0.87251 0.32553 0.46719 0.0
C128 C 0.88487 0.30443 0.49832 0.0
C129 C 0.98922 0.34148 0.48175 0.0
O130 O 0.11761 0.39314 0.47478 0.0
O131 O 0.11955 0.37208 0.49413 0.0
C132 C 0.15883 0.38267 0.48498 0.0
O133 O 1.02653 0.37272 0.41729 0.0
O134 O 0.92834 0.4153 0.50667 0.0
O135 O 1.0048 0.41564 0.44886 0.0
O136 O 0.94538 0.39051 0.4131 0.0
C137 C 0.98936 0.38166 0.39424 0.0
O138 O 0.84457 0.37103 0.46866 0.0
O139 O 0.84518 0.39125 0.4953 0.0
O140 O 1.02195 0.39204 0.54835 0.0
O141 O 0.96035 0.34829 0.44903 0.0
O142 O 1.01701 0.34832 0.51462 0.0
O143 O 0.95517 0.37279 0.55029 0.0
C144 C 0.99244 0.43508 0.48885 0.0
C145 C 0.05889 0.44096 0.46681 0.0
C146 C 0.96175 0.45506 0.52408 0.0
C147 C 0.07564 0.45383 0.47287 0.0
C148 C 0.94516 0.44223 0.51807 0.0
C149 C 1.02596 0.46111 0.50084 0.0
C150 C 0.96251 0.42226 0.47682 0.0
C151 C 0.80425 0.3811 0.48201 0.0
H152 H 0.04419 0.32351 0.53795 0.0
H153 H 0.78702 0.31035 0.45104 0.0
H154 H 0.99005 0.30208 0.54532 0.0
H155 H 0.84019 0.33189 0.4445 0.0
H156 H 0.096 0.43576 0.4437 0.0
H157 H 0.9213 0.46036 0.54539 0.0
H158 H 0.12639 0.45813 0.45492 0.0
H159 H 0.89244 0.43804 0.53488 0.0
Eu160 Eu 0.60493 0.86689 0.98322 0.0
Eu161 Eu 0.61002 0.8985 0.98148 0.0
C162 C 0.59374 0.8824 0.89483 0.0
C163 C 0.64073 0.83003 0.99239 0.0
C164 C 0.71285 0.82604 0.97003 0.0
C165 C 0.63087 0.80917 0.02483 0.0
C166 C 0.74261 0.81363 0.97443 0.0
C167 C 0.60126 0.82155 0.02046 0.0
C168 C 0.70055 0.80496 0.00103 0.0
C169 C 0.59834 0.84222 0.98255 0.0
O170 O 0.46952 0.89391 0.97392 0.0
O171 O 0.46923 0.87282 0.99294 0.0
C172 C 0.42919 0.88343 0.98369 0.0
O173 O 0.6368 0.87359 0.05157 0.0
O174 O 0.57985 0.91648 0.94946 0.0
O175 O 0.66108 0.91607 0.00818 0.0
O176 O 0.56977 0.89282 0.04825 0.0
C177 C 0.60003 0.88317 0.07067 0.0
O178 O 0.74201 0.87182 0.97107 0.0
O179 O 0.74401 0.89205 -0.00227 0.0
O180 O 0.63823 0.89131 0.91451 0.0
O181 O 0.57263 0.84908 0.0149 0.0
O182 O 0.62567 0.849 0.95036 0.0
O183 O 0.55749 0.87347 0.9172 0.0
C184 C 0.59258 0.93574 0.99066 0.0
C185 C 0.6203 0.94135 0.03018 0.0
C186 C 0.53101 0.95587 0.96787 0.0
C187 C 0.60517 0.95413 0.03802 0.0
C188 C 0.54634 0.94309 0.95998 0.0
C189 C 0.56227 0.96163 0.00649 0.0
C190 C 0.62375 0.92308 0.97826 0.0
C191 C 0.78363 0.88191 0.98463 0.0
H192 H 0.74436 0.83233 0.94787 0.0
H193 H 0.59791 0.80281 0.04619 0.0
H194 H 0.79614 0.81069 0.95545 0.0
H195 H 0.54521 0.82434 0.03782 0.0
H196 H 0.65691 0.93601 0.05438 0.0
H197 H 0.49854 0.96137 0.94266 0.0
H198 H 0.62905 0.95822 0.06837 0.0
H199 H 0.52546 0.93912 0.92889 0.0
Eu200 Eu 0.4797 0.12033 0.00241 0.0
Eu201 Eu 0.48597 0.1517 0.00717 0.0
C202 C 0.49267 0.13685 0.91851 0.0
C203 C 0.49754 0.08297 0.00537 0.0
C204 C 0.54202 0.07618 0.974 0.0
C205 C 0.48775 0.06377 0.04853 0.0
C206 C 0.55782 0.06329 0.97944 0.0
C207 C 0.47213 0.07667 0.04315 0.0
C208 C 0.52881 0.05685 0.01622 0.0
C209 C 0.46539 0.09582 -0.00484 0.0
O210 O 0.34761 0.14687 0.99237 0.0
O211 O 0.34783 0.12665 0.01887 0.0
C212 C 0.30694 0.13682 0.00572 0.0
O213 O 0.52423 0.1253 0.07064 0.0
O214 O 0.47059 0.16953 0.97272 0.0
O215 O 0.512 0.16955 0.04091 0.0
O216 O 0.45858 0.1446 0.07458 0.0
C217 C 0.49527 0.13477 0.09349 0.0
O218 O 0.61975 0.12503 -0.00311 0.0
O219 O 0.62207 0.14572 0.02042 0.0
O220 O 0.53388 0.14511 0.94279 0.0
O221 O 0.43167 0.1024 0.02613 0.0
O222 O 0.50611 0.10281 0.96764 0.0
O223 O 0.44389 0.12844 0.93651 0.0
C224 C 0.44315 0.1883 0.01309 0.0
C225 C 0.44666 0.19458 0.05348 0.0
C226 C 0.37038 0.20653 0.98097 0.0
C227 C 0.4133 0.20676 0.05742 0.0
C228 C 0.40355 0.19437 0.97706 0.0
C229 C 0.37621 0.21299 0.02099 0.0
C230 C 0.49079 0.17639 0.00685 0.0
C231 C 0.6613 0.13529 0.00935 0.0
H232 H 0.56109 0.08069 0.94416 0.0
H233 H 0.46563 0.05914 0.07754 0.0
H234 H 0.58882 0.05824 0.95368 0.0
H235 H 0.43687 0.08156 0.06777 0.0
H236 H 0.47767 0.19025 0.08178 0.0
H237 H 0.34359 0.21106 0.95201 0.0
H238 H 0.41796 0.21138 0.08888 0.0
H239 H 0.40113 0.18993 0.94525 0.0
Eu240 Eu 0.60151 0.12 0.51186 0.0
Eu241 Eu 0.59484 0.15131 0.50757 0.0
C242 C 0.58716 0.13637 0.59589 0.0
C243 C 0.58922 0.08253 0.50806 0.0
C244 C 0.53339 0.076 0.53505 0.0
C245 C 0.61674 0.06289 0.46985 0.0
C246 C 0.52062 0.06301 0.52999 0.0
C247 C 0.62924 0.07586 0.4748 0.0
C248 C 0.56418 0.05625 0.49815 0.0
C249 C 0.61748 0.09551 0.51906 0.0
O250 O 0.73327 0.14652 0.52247 0.0
O251 O 0.73291 0.12643 0.49501 0.0
C252 C 0.77393 0.13653 0.50857 0.0
O253 O 0.55767 0.12495 0.44349 0.0
O254 O 0.60773 0.16901 0.54303 0.0
O255 O 0.57089 0.16929 0.47424 0.0
O256 O 0.62181 0.14438 0.43991 0.0
C257 C 0.5859 0.13451 0.42083 0.0
O258 O 0.46111 0.12461 0.51656 0.0
O259 O 0.45895 0.14536 0.49356 0.0
O260 O 0.54573 0.14457 0.57147 0.0
O261 O 0.65345 0.10222 0.48911 0.0
O262 O 0.57292 0.10235 0.54543 0.0
O263 O 0.63647 0.12802 0.57801 0.0
C264 C 0.63804 0.18791 0.50416 0.0
C265 C 0.6391 0.19422 0.46387 0.0
C266 C 0.70768 0.20607 0.53847 0.0
C267 C 0.67321 0.20638 0.46103 0.0
C268 C 0.67373 0.19393 0.54129 0.0
C269 C 0.70646 0.21256 0.49847 0.0
C270 C 0.58978 0.17599 0.50894 0.0
C271 C 0.41962 0.13489 0.50418 0.0
H272 H 0.50265 0.0808 0.56146 0.0
H273 H 0.65022 0.058 0.44457 0.0
H274 H 0.48015 0.05816 0.55251 0.0
H275 H 0.67349 0.08055 0.45376 0.0
H276 H 0.61119 0.18992 0.43472 0.0
H277 H 0.73151 0.21058 0.56811 0.0
H278 H 0.67222 0.21103 0.42958 0.0
H279 H 0.67251 0.18947 0.57302 0.0
Eu280 Eu 0.48526 0.86619 0.48288 0.0
Eu281 Eu 0.4797 0.89746 0.47647 0.0
C282 C 0.49533 0.88341 0.56794 0.0
C283 C 0.44336 0.82951 0.48821 0.0
C284 C 0.43959 0.82339 0.52879 0.0
C285 C 0.3807 0.8109 0.45343 0.0
C286 C 0.40777 0.81108 0.53153 0.0
C287 C 0.41215 0.82318 0.45071 0.0
C288 C 0.38001 0.80458 0.49369 0.0
C289 C 0.49067 0.84151 0.48366 0.0
O290 O 0.61946 0.89267 0.47063 0.0
O291 O 0.62127 0.87223 0.4966 0.0
C292 C 0.66084 0.88252 0.48431 0.0
O293 O 0.53329 0.8724 0.41814 0.0
O294 O 0.43667 0.91561 0.50077 0.0
O295 O 0.5019 0.91471 0.43935 0.0
O296 O 0.44448 0.88915 0.41079 0.0
C297 C 0.49283 0.88059 0.39328 0.0
O298 O 0.34715 0.87097 0.46724 0.0
O299 O 0.34759 0.89124 0.49318 0.0
O300 O 0.5263 0.89261 0.54455 0.0
O301 O 0.47469 0.84827 0.4488 0.0
O302 O 0.50681 0.84844 0.51815 0.0
O303 O 0.45619 0.87372 0.54952 0.0
C304 C 0.49898 0.9348 0.47512 0.0
C305 C 0.51512 0.94236 0.43877 0.0
C306 C 0.52032 0.95317 0.52186 0.0
C307 C 0.53207 0.95522 0.44371 0.0
C308 C 0.50322 0.94028 0.51687 0.0
C309 C 0.53308 0.96086 0.48521 0.0
C310 C 0.46553 0.92191 0.4678 0.0
C311 C 0.30654 0.88105 0.48032 0.0
H312 H 0.46431 0.82792 0.55822 0.0
H313 H 0.35859 0.80623 0.42375 0.0
H314 H 0.40865 0.80646 0.56301 0.0
H315 H 0.415 0.82753 0.41884 0.0
H316 H 0.51078 0.93844 0.40616 0.0
H317 H 0.52187 0.95716 0.55436 0.0
H318 H 0.54033 0.96083 0.41467 0.0
H319 H 0.49051 0.93472 0.54555 0.0
H320 H 0.39156 0.36254 0.96259 0.0
H321 H 0.39074 0.40079 0.01114 0.0
H322 H 0.54705 0.36307 0.96154 0.0
H323 H 0.54591 0.40119 0.01083 0.0
H324 H 0.81863 0.4019 0.96065 0.0
H325 H 0.66288 0.4015 0.96053 0.0
H326 H 0.67027 0.36355 0.01146 0.0
H327 H 0.82517 0.36382 0.01087 0.0
C328 C 0.4244 0.37104 0.97325 0.0
C329 C 0.37842 0.38161 0.98695 0.0
C330 C 0.51364 0.37132 0.97282 0.0
C331 C 0.55903 0.38219 0.98606 0.0
C332 C 0.513 0.39274 -0.00016 0.0
C333 C 0.42388 0.39246 0.0003 0.0
C334 C 0.78707 0.39347 0.97183 0.0
C335 C 0.83471 0.3829 0.98568 0.0
C336 C 0.69773 0.39326 0.97195 0.0
C337 C 0.654 0.38247 0.98588 0.0
C338 C 0.70174 0.37193 -0.00012 0.0
C339 C 0.79083 0.37214 -0.00021 0.0
H340 H 0.2661 0.61549 0.03947 0.0
H341 H 0.25949 0.6542 -0.00457 0.0
H342 H 0.42184 0.61597 0.03999 0.0
H343 H 0.41441 0.65456 -0.00476 0.0
H344 H 0.69287 0.65501 0.04528 0.0
H345 H 0.53723 0.65444 0.04553 0.0
H346 H 0.53935 0.61701 0.99031 0.0
H347 H 0.69445 0.61745 0.99078 0.0
C348 C 0.29763 0.62407 0.02967 0.0
C349 C 0.24996 0.6348 0.0175 0.0
C350 C 0.38698 0.62433 0.0298 0.0
C351 C 0.43071 0.63532 0.01779 0.0
C352 C 0.38295 0.64601 0.00536 0.0
C353 C 0.29384 0.64575 0.0052 0.0
C354 C 0.66018 0.64667 0.03315 0.0
C355 C 0.70641 0.63629 0.01804 0.0
C356 C 0.57087 0.64636 0.03312 0.0
C357 C 0.52571 0.63566 0.018 0.0
C358 C 0.57202 0.62531 0.00278 0.0
C359 C 0.66115 0.62562 0.00278 0.0
H360 H 0.8148 0.6543 0.49393 0.0
H361 H 0.81424 0.61609 0.54288 0.0
H362 H 0.65973 0.65475 0.49493 0.0
H363 H 0.6589 0.61666 0.54461 0.0
H364 H 0.37988 0.61748 0.4973 0.0
H365 H 0.5346 0.61715 0.49569 0.0
H366 H 0.54391 0.65517 0.54591 0.0
H367 H 0.38812 0.65563 0.54675 0.0
C368 C 0.78176 0.64598 0.50496 0.0
C369 C 0.82731 0.63514 0.51828 0.0
C370 C 0.69268 0.6463 0.50583 0.0
C371 C 0.64676 0.63577 0.52 0.0
C372 C 0.6922 0.6249 0.53304 0.0
C373 C 0.78139 0.62458 0.53219 0.0
C374 C 0.4146 0.62581 0.50803 0.0
C375 C 0.37124 0.6366 0.52219 0.0
C376 C 0.50361 0.62557 0.50735 0.0
C377 C 0.55184 0.63611 0.52082 0.0
C378 C 0.50864 0.64693 0.53487 0.0
C379 C 0.41933 0.64718 0.53557 0.0
H380 H 0.70099 0.40004 0.50956 0.0
H381 H 0.69271 0.36239 0.45574 0.0
H382 H 0.54617 0.40039 0.51066 0.0
H383 H 0.53698 0.36288 0.45603 0.0
H384 H 0.26593 0.36318 0.5073 0.0
H385 H 0.42093 0.36277 0.50654 0.0
H386 H 0.42213 0.40137 0.46175 0.0
H387 H 0.26674 0.4019 0.46332 0.0
C388 C 0.66625 0.39183 0.49776 0.0
C389 C 0.7096 0.38117 0.48255 0.0
C390 C 0.57721 0.39209 0.49814 0.0
C391 C 0.529 0.38169 0.4833 0.0
C392 C 0.57221 0.371 0.46816 0.0
C393 C 0.66151 0.37074 0.46778 0.0
C394 C 0.29901 0.37162 0.49736 0.0
C395 C 0.25355 0.38259 0.48541 0.0
C396 C 0.38807 0.37133 0.49663 0.0
C397 C 0.43409 0.38201 0.48392 0.0
C398 C 0.38875 0.39301 0.47218 0.0
C399 C 0.29954 0.3933 0.47294 0.0
H400 H 0.89072 0.90084 0.0123 0.0
H401 H 0.8914 0.8633 0.95761 0.0
H402 H 0.04582 0.90126 0.01221 0.0
H403 H 0.04688 0.86385 0.95671 0.0
H404 H 0.32494 0.86396 0.00583 0.0
H405 H 0.17008 0.86364 0.00632 0.0
H406 H 0.16279 0.90232 0.96244 0.0
H407 H 0.3185 0.90276 0.96275 0.0
C408 C 0.92382 0.89267 0.00012 0.0
C409 C 0.87833 0.88202 0.985 0.0
C410 C 1.01292 0.89297 -0.0002 0.0
C411 C 0.05891 0.88262 0.98434 0.0
C412 C 1.01351 0.87194 0.96932 0.0
C413 C 0.92427 0.87164 0.96966 0.0
C414 C 0.29062 0.87243 -0.00373 0.0
C415 C 0.33452 0.8834 0.98422 0.0
C416 C 0.20155 0.8722 -0.0037 0.0
C417 C 0.15386 0.88292 0.98425 0.0
C418 C 0.19761 0.89392 0.97236 0.0
C419 C 0.28693 0.89416 0.97235 0.0
H420 H 0.19558 0.15573 0.98104 0.0
H421 H 0.20336 0.11769 0.03153 0.0
H422 H 1.03977 0.15527 0.98141 0.0
H423 H 0.04854 0.11735 0.03264 0.0
H424 H 0.76887 0.11626 0.98544 0.0
H425 H 0.92425 0.1168 0.98355 0.0
H426 H 0.9239 0.15498 0.03239 0.0
H427 H 0.76887 0.15456 0.03356 0.0
C428 C 0.16427 0.1473 0.99235 0.0
C429 C 0.21224 0.13676 0.00621 0.0
C430 C 0.07493 0.14705 0.99277 0.0
C431 C 1.03157 0.13626 0.007 0.0
C432 C 0.07967 0.12575 0.02086 0.0
C433 C 0.16873 0.12599 0.02048 0.0
C434 C 0.80185 0.12476 -0.0041 0.0
C435 C 0.75607 0.13535 0.00968 0.0
C436 C 0.89105 0.12506 -0.00505 0.0
C437 C 0.93663 0.13595 0.00774 0.0
C438 C 0.89084 0.14651 0.02169 0.0
C439 C 0.80177 0.14621 0.02267 0.0
H440 H 0.31231 0.15422 0.48026 0.0
H441 H 0.3117 0.11581 0.5273 0.0
H442 H 0.15727 0.15468 0.48148 0.0
H443 H 0.15633 0.11639 0.52921 0.0
H444 H 0.87705 0.11748 0.48186 0.0
H445 H 1.0318 0.11711 0.48033 0.0
H446 H 1.04159 0.15489 0.53267 0.0
H447 H 0.88577 0.15538 0.53349 0.0
C448 C 0.27927 0.14586 0.4909 0.0
C449 C 0.32482 0.13496 0.50362 0.0
C450 C 0.1902 0.14618 0.49191 0.0
C451 C 0.14423 0.1356 0.5056 0.0
C452 C 0.18966 0.12466 0.51803 0.0
C453 C 0.27886 0.12434 0.51706 0.0
C454 C 0.91188 0.12575 0.49306 0.0
C455 C 0.86863 0.13648 0.50781 0.0
C456 C 1.0009 0.12548 0.49243 0.0
C457 C 0.04929 0.13594 0.50651 0.0
C458 C 1.00621 0.14671 0.52116 0.0
C459 C 0.91688 0.14698 0.52184 0.0
H460 H 0.7685 0.90141 0.45938 0.0
H461 H 0.76835 0.86338 0.50999 0.0
H462 H 0.92384 0.90087 0.45772 0.0
H463 H 0.92349 0.86296 0.50902 0.0
H464 H 0.19516 0.862 0.45707 0.0
H465 H 1.03938 0.86242 0.4579 0.0
H466 H 0.04817 0.90058 0.50685 0.0
H467 H 0.20298 0.90027 0.5053 0.0
C468 C 0.80145 0.89296 0.47043 0.0
C469 C 0.75563 0.88245 0.48482 0.0
C470 C 0.89065 0.89267 0.46962 0.0
C471 C 0.93623 0.88185 0.48315 0.0
C472 C 0.89042 0.87137 0.49776 0.0
C473 C 0.80131 0.87166 0.49861 0.0
C474 C 0.16386 0.87048 0.46797 0.0
C475 C 0.21184 0.8811 0.48104 0.0
C476 C 0.07453 0.8707 0.46867 0.0
C477 C 1.03119 0.88155 0.48237 0.0
C478 C 0.0793 0.89214 0.49549 0.0
C479 C 0.16834 0.89192 0.49485 0.0
H480 H 0.1574 0.54133 0.01602 0.0
H481 H 0.88559 0.53965 0.98887 0.0
H482 H 0.16486 0.51836 0.01267 0.0
H483 H 0.89261 0.51676 0.9861 0.0
H484 H 0.95011 0.47693 0.93894 0.0
H485 H 0.94253 0.49981 0.94265 0.0
H486 H 0.12509 0.49966 0.05127 0.0
H487 H 0.13588 0.47681 0.04612 0.0
C488 C 0.09922 0.53605 0.00953 0.0
C489 C 1.02106 0.54234 0.0024 0.0
C490 C 0.10334 0.52288 0.00778 0.0
C491 C 1.0293 0.51567 -0.00089 0.0
C492 C 0.95119 0.52198 0.99207 0.0
C493 C 0.94716 0.53513 0.99362 0.0
C494 C 0.98899 0.48177 0.9635 0.0
C495 C 0.04379 0.47498 0.99213 0.0
C496 C 0.98398 0.49491 0.96594 0.0
C497 C 1.03339 0.50163 -0.00281 0.0
C498 C 0.08701 0.49483 0.02637 0.0
C499 C 0.09219 0.48168 0.02385 0.0
H500 H 0.05837 0.47778 0.43503 0.0
H501 H 1.0172 0.4761 0.57349 0.0
H502 H 0.06877 0.50066 0.43929 0.0
H503 H 1.02328 0.49899 0.57733 0.0
H504 H 0.1225 0.53931 0.57775 0.0
H505 H 0.1188 0.51643 0.57325 0.0
H506 H 0.98059 0.5189 0.44934 0.0
H507 H 0.98537 0.54188 0.45369 0.0
C508 C 0.05221 0.48227 0.46648 0.0
C509 C 1.03707 0.47505 0.50394 0.0
C510 C 0.05683 0.49542 0.46878 0.0
C511 C 0.04633 0.50173 0.5086 0.0
C512 C 1.03248 0.49449 0.54617 0.0
C513 C 1.02809 0.48134 0.54388 0.0
C514 C 0.09044 0.53498 0.54975 0.0
C515 C 0.05365 0.54245 0.51623 0.0
C516 C 0.08838 0.52184 0.54714 0.0
C517 C 0.04922 0.51577 0.51099 0.0
C518 C 1.01244 0.52324 0.47738 0.0
C519 C 1.01486 0.53641 0.47992 0.0
H520 H 0.68466 0.97782 0.03874 0.0
H521 H 0.42527 0.97695 0.98676 0.0
H522 H 0.67702 1.0007 0.04473 0.0
H523 H 0.41854 0.9999 0.99152 0.0
H524 H 0.4082 0.04013 0.04283 0.0
H525 H 0.41609 0.01719 0.04416 0.0
H526 H 0.6715 0.01889 -0.00428 0.0
H527 H 0.6646 0.04188 -0.00434 0.0
C528 C 0.62563 0.98249 0.02902 0.0
C529 C 0.55545 0.97553 0.01237 0.0
C530 C 0.62167 0.99563 0.03194 0.0
C531 C 0.54733 1.00215 0.01844 0.0
C532 C 0.47656 0.99517 0.00257 0.0
C533 C 0.48065 0.98203 -0.00053 0.0
C534 C 0.46665 0.03563 0.03318 0.0
C535 C 0.5359 0.04287 0.01925 0.0
C536 C 0.47072 0.02246 0.03342 0.0
C537 C 0.54426 0.01618 0.01989 0.0
C538 C 0.61414 0.02342 0.00673 0.0
C539 C 0.60993 0.0366 0.00631 0.0
H540 H 0.69571 0.03972 0.48874 0.0
H541 H 0.4231 0.04107 0.50437 0.0
H542 H 0.69059 0.01681 0.4876 0.0
H543 H 0.41751 0.01807 0.50255 0.0
H544 H 0.44792 0.97672 0.53944 0.0
H545 H 0.45694 0.99961 0.54377 0.0
H546 H 0.64377 0.99956 0.44325 0.0
H547 H 0.63796 0.97665 0.44054 0.0
C548 C 0.63439 0.03512 0.49131 0.0
C549 C 0.55969 0.04224 0.49633 0.0
C550 C 0.63144 0.02195 0.49068 0.0
C551 C 0.55362 0.01554 0.49488 0.0
C552 C 0.4788 0.02267 0.49991 0.0
C553 C 0.48185 0.03586 0.50077 0.0
C554 C 0.49217 0.98157 0.51885 0.0
C555 C 0.54228 0.9748 0.48966 0.0
C556 C 0.49635 0.99473 0.52085 0.0
C557 C 0.55064 1.00148 0.49366 0.0
C558 C 0.60176 0.9947 0.46499 0.0
C559 C 0.59777 0.98154 0.46309 0.0
H560 H 0.21823 0.28817 0.94641 0.0
H561 H 0.26815 0.29205 0.08505 0.0
H562 H 0.25566 0.26592 0.95089 0.0
H563 H 0.30391 0.26963 0.08969 0.0
H564 H 0.45417 0.23238 0.06621 0.0
H565 H 0.41478 0.25462 0.06603 0.0
H566 H 0.197 0.24636 0.98103 0.0
H567 H 0.23549 0.2241 0.98163 0.0
C568 C 0.23788 0.2843 0.97783 0.0
C569 C 0.24057 0.29192 0.01535 0.0
C570 C 0.25825 0.27149 0.98048 0.0
C571 C 0.28221 0.26597 0.0207 0.0
C572 C 0.28606 0.27361 0.05819 0.0
C573 C 0.26505 0.28643 0.05558 0.0
C574 C 0.39693 0.23525 0.04814 0.0
C575 C 0.34827 0.22641 0.02376 0.0
C576 C 0.37453 0.24802 0.04794 0.0
C577 C 0.30321 0.25229 0.02319 0.0
C578 C 0.25329 0.24342 -0.00024 0.0
C579 C 0.2754 0.23065 0.00012 0.0
H580 H 0.59591 0.78434 -0.0007 0.0
H581 H 0.8622 0.79487 0.00439 0.0
H582 H 0.63576 0.76218 -0.00038 0.0
H583 H 0.90232 0.77263 0.00505 0.0
H584 H 0.94418 0.73196 0.96224 0.0
H585 H 0.90225 0.75406 0.95963 0.0
H586 H 0.69687 0.74619 0.04617 0.0
H587 H 0.73636 0.72399 0.04717 0.0
C588 C 0.66307 0.78193 0.00108 0.0
C589 C 0.72584 0.79141 0.0021 0.0
C590 C 0.68596 0.76919 0.00122 0.0
C591 C 0.7723 0.76557 0.00245 0.0
C592 C 0.83519 0.77506 0.00343 0.0
C593 C 0.81223 0.78782 0.00318 0.0
C594 C 0.88916 0.73489 0.98013 0.0
C595 C 0.8436 0.72615 0.00485 0.0
C596 C 0.86588 0.74762 0.97915 0.0
C597 C 0.79641 0.75196 0.00287 0.0
C598 C 0.75023 0.74319 0.02716 0.0
C599 C 0.77345 0.73046 0.0281 0.0
H600 H 0.25551 0.72782 0.57254 0.0
H601 H 0.2243 0.72767 0.43211 0.0
H602 H 0.29963 0.74983 0.57045 0.0
H603 H 0.26496 0.74982 0.43015 0.0
H604 H 0.42455 0.78569 0.43848 0.0
H605 H 0.38582 0.76351 0.44133 0.0
H606 H 0.24082 0.77057 0.55621 0.0
H607 H 0.28051 0.79282 0.55353 0.0
C608 C 0.25866 0.73245 0.54117 0.0
C609 C 0.23653 0.72594 0.50247 0.0
C610 C 0.28279 0.74514 0.54004 0.0
C611 C 0.28551 0.75165 0.50017 0.0
C612 C 0.26438 0.74509 0.46143 0.0
C613 C 0.24023 0.73241 0.46257 0.0
C614 C 0.38366 0.78255 0.46411 0.0
C615 C 0.3551 0.79106 0.4956 0.0
C616 C 0.36146 0.76981 0.46575 0.0
C617 C 0.30992 0.76522 0.4989 0.0
C618 C 0.28159 0.77373 0.53056 0.0
C619 C 0.3041 0.78649 0.52899 0.0
H620 H 0.98786 0.28365 0.49829 0.0
H621 H 0.72256 0.29463 0.49852 0.0
H622 H 0.9462 0.26156 0.49716 0.0
H623 H 0.68066 0.27246 0.49768 0.0
H624 H 0.63368 0.23206 0.45186 0.0
H625 H 0.67739 0.25409 0.45112 0.0
H626 H 0.88571 0.24555 0.54201 0.0
H627 H 0.84437 0.22342 0.54119 0.0
C628 C 0.92057 0.28135 0.49871 0.0
C629 C 0.85857 0.29094 0.49876 0.0
C630 C 0.89665 0.26866 0.498 0.0
C631 C 0.81004 0.2652 0.49737 0.0
C632 C 0.74793 0.27478 0.49748 0.0
C633 C 0.77191 0.2875 0.49808 0.0
C634 C 0.6897 0.23483 0.47111 0.0
C635 C 0.73556 0.22592 0.49652 0.0
C636 C 0.71402 0.24752 0.4712 0.0
C637 C 0.78482 0.25164 0.4967 0.0
C638 C 0.83131 0.24271 0.52167 0.0
C639 C 0.80706 0.23002 0.52155 0.0
H640 H 0.1848 0.37072 0.13537 0.0
H641 H 0.98112 0.39771 0.11519 0.0
H642 H 0.15874 0.3705 0.2132 0.0
H643 H 0.95203 0.39705 0.1925 0.0
H644 H 0.97101 0.40193 0.33983 0.0
H645 H 1.00077 0.40292 0.26247 0.0
H646 H 0.06178 0.36317 0.26377 0.0
H647 H 1.03606 0.36239 0.34147 0.0
C648 C 0.13422 0.37657 0.14758 0.0
C649 C 0.08519 0.38425 0.11918 0.0
C650 C 0.11868 0.37637 0.19218 0.0
C651 C 0.05276 0.38369 0.20934 0.0
C652 C 1.0042 0.39144 0.18078 0.0
C653 C 1.02065 0.39178 0.13632 0.0
C654 C 0.99039 0.3934 0.32346 0.0
C655 C 1.00138 0.38209 0.3467 0.0
C656 C 1.00723 0.39395 0.27901 0.0
C657 C 1.03416 0.38314 0.25666 0.0
C658 C 0.04319 0.37176 0.27994 0.0
C659 C 1.02767 0.37127 0.32447 0.0
H660 H 0.90378 0.6227 0.16822 0.0
H661 H 0.11523 0.64847 0.15647 0.0
H662 H 0.92783 0.6223 0.24713 0.0
H663 H 0.14146 0.64771 0.23494 0.0
H664 H 0.04508 0.61475 0.38235 0.0
H665 H 1.0235 0.61487 0.3033 0.0
H666 H 0.08361 0.65463 0.30093 0.0
H667 H 0.10825 0.65438 0.3795 0.0
C668 C 0.95571 0.62822 0.18248 0.0
C669 C 1.00731 0.63567 0.15616 0.0
C670 C 0.96994 0.62792 0.22769 0.0
C671 C 1.03663 0.63497 0.24751 0.0
C672 C 0.08854 0.64234 0.22098 0.0
C673 C 0.07375 0.64274 0.1759 0.0
C674 C 0.05406 0.6235 0.36488 0.0
C675 C 0.07866 0.63454 0.38719 0.0
C676 C 1.0411 0.62359 0.31957 0.0
C677 C 0.05164 0.63477 0.29564 0.0
C678 C 0.07636 0.6458 0.31811 0.0
C679 C 0.09015 0.64567 0.36328 0.0
H680 H 0.96977 0.65496 0.87793 0.0
H681 H 1.02608 0.61509 0.88049 0.0
H682 H 0.99737 0.65554 0.80039 0.0
H683 H 0.05065 0.61557 0.80256 0.0
H684 H 0.17615 0.62336 0.67335 0.0
H685 H 0.15024 0.62293 0.75133 0.0
H686 H 0.94131 0.64912 0.73138 0.0
H687 H 0.96931 0.64991 0.65405 0.0
C688 C 0.98687 0.64628 0.86182 0.0
C689 C 0.99574 0.63498 0.88539 0.0
C690 C 1.00248 0.6466 0.81726 0.0
C691 C 1.02645 0.63561 0.79513 0.0
C692 C 1.03392 0.62426 0.81866 0.0
C693 C 1.01913 0.62397 0.86331 0.0
C694 C 0.12498 0.62906 0.68573 0.0
C695 C 0.07507 0.6367 0.65758 0.0
C696 C 0.10965 0.62875 0.73038 0.0
C697 C 0.04354 0.63598 0.74773 0.0
C698 C 0.99368 0.6436 0.71939 0.0
C699 C 1.00953 0.644 0.67492 0.0
H700 H 1.03741 0.40193 0.62428 0.0
H701 H 0.97505 0.36227 0.62478 0.0
H702 H 0.06066 0.40139 0.70309 0.0
H703 H 1.00145 0.3616 0.70335 0.0
H704 H 0.97406 0.36743 0.84935 0.0
H705 H 0.94692 0.36804 0.77081 0.0
H706 H 0.15801 0.39386 0.75774 0.0
H707 H 0.18285 0.39361 0.8365 0.0
C708 C 1.02901 0.39308 0.6412 0.0
C709 C 1.00427 0.38215 0.61824 0.0
C710 C 0.04298 0.39274 0.68641 0.0
C711 C 1.03345 0.38144 0.70972 0.0
C712 C 1.0082 0.37052 0.68667 0.0
C713 C 0.99337 0.37089 0.64152 0.0
C714 C 1.01485 0.3732 0.82968 0.0
C715 C 0.08054 0.38048 0.84916 0.0
C716 C 0.99954 0.37352 0.78456 0.0
C717 C 0.05012 0.38102 0.75778 0.0
C718 C 0.11666 0.38816 0.77734 0.0
C719 C 0.1314 0.38795 0.82251 0.0
H720 H 0.55682 0.90268 0.12363 0.0
H721 H 0.61616 0.86291 0.12533 0.0
H722 H 0.53159 0.90199 0.20145 0.0
H723 H 0.58783 0.8621 0.20282 0.0
H724 H 0.61315 0.86758 0.34963 0.0
H725 H 0.64181 0.86841 0.27233 0.0
H726 H 0.43198 0.89443 0.25203 0.0
H727 H 0.40548 0.89396 0.3299 0.0
C728 C 0.56428 0.89378 0.14061 0.0
C729 C 0.58866 0.88285 0.11832 0.0
C730 C 0.5491 0.89336 0.1852 0.0
C731 C 0.55709 0.88198 0.20848 0.0
C732 C 0.58221 0.87108 0.18615 0.0
C733 C 0.59825 0.87152 0.14164 0.0
C734 C 0.57287 0.87345 0.32867 0.0
C735 C 0.50701 0.88071 0.34589 0.0
C736 C 0.5891 0.87388 0.28423 0.0
C737 C 0.53929 0.88148 0.25581 0.0
C738 C 0.47263 0.88863 0.27303 0.0
C739 C 0.45695 0.8883 0.31763 0.0
H740 H 0.55887 0.11559 0.14449 0.0
H741 H 0.4574 0.1534 0.15147 0.0
H742 H 0.58222 0.11547 0.2234 0.0
H743 H 0.47984 0.15317 0.23047 0.0
H744 H 0.6228 0.15329 0.36324 0.0
H745 H 0.60038 0.15319 0.28425 0.0
H746 H 0.50008 0.11534 0.29048 0.0
H747 H 0.52341 0.11534 0.3694 0.0
C748 C 0.5411 0.12385 0.16282 0.0
C749 C 0.50632 0.13451 0.1416 0.0
C750 C 0.55416 0.12375 0.20809 0.0
C751 C 0.53309 0.13432 0.23314 0.0
C752 C 0.49776 0.14494 0.21198 0.0
C753 C 0.48434 0.14503 0.16673 0.0
C754 C 0.59632 0.14492 0.34781 0.0
C755 C 0.57492 0.13432 0.37271 0.0
C756 C 0.58291 0.14491 0.30255 0.0
C757 C 0.54816 0.13428 0.28116 0.0
C758 C 0.52768 0.12363 0.30598 0.0
C759 C 0.54074 0.12366 0.35125 0.0
H760 H 0.62841 0.14604 0.87554 0.0
H761 H 0.3873 0.12685 0.85477 0.0
H762 H 0.65207 0.14532 0.7972 0.0
H763 H 0.41048 0.12642 0.77611 0.0
H764 H 0.45076 0.14547 0.63845 0.0
H765 H 0.42723 0.14502 0.71681 0.0
H766 H 0.6699 0.12649 0.73872 0.0
H767 H 0.69298 0.12666 0.66001 0.0
C768 C 0.5803 0.14173 0.8542 0.0
C769 C 0.50584 0.13654 0.87114 0.0
C770 C 0.5942 0.14125 0.80952 0.0
C771 C 0.53312 0.1358 0.78091 0.0
C772 C 0.45834 0.13069 0.79769 0.0
C773 C 0.44523 0.13092 0.84255 0.0
C774 C 0.49912 0.14129 0.65997 0.0
C775 C 0.57386 0.13613 0.64325 0.0
C776 C 0.4853 0.14097 0.70467 0.0
C777 C 0.54675 0.13572 0.73352 0.0
C778 C 0.62178 0.13062 0.71695 0.0
C779 C 0.63481 0.13069 0.67207 0.0
H780 H 0.40719 0.87027 0.62835 0.0
H781 H 0.61193 0.89713 0.61573 0.0
H782 H 0.42999 0.87036 0.70722 0.0
H783 H 0.63785 0.89678 0.69432 0.0
H784 H 0.61247 0.90243 0.84012 0.0
H785 H 0.58559 0.90303 0.76154 0.0
H786 H 0.5242 0.86329 0.76262 0.0
H787 H 0.54699 0.8629 0.84142 0.0
C788 C 0.45743 0.87614 0.64246 0.0
C789 C 0.50765 0.8837 0.61588 0.0
C790 C 0.47105 0.87613 0.6877 0.0
C791 C 0.53621 0.88352 0.70737 0.0
C792 C 0.58616 0.89113 0.68058 0.0
C793 C 0.5716 0.89129 0.63542 0.0
C794 C 0.59345 0.89382 0.82347 0.0
C795 C 0.58166 0.88262 0.8469 0.0
C796 C 0.57836 0.89414 0.77833 0.0
C797 C 0.55244 0.88321 0.75549 0.0
C798 C 0.54217 0.87196 0.77906 0.0
C799 C 0.55592 0.8717 0.82426 0.0
loop_
_geom_bond_atom_site_label_1
_geom_bond_atom_site_label_2
_geom_bond_distance
_geom_bond_site_symmetry_2
_ccdc_geom_bond_type
Eu0 C9 2.828 . S
Eu0 O11 2.392 1_455 S
Eu0 O13 2.418 . S
Eu0 O18 2.373 . S
Eu0 O21 2.488 . S
Eu0 O22 2.471 1_554 S
Eu0 O23 2.349 1_554 S
Eu1 O10 2.373 1_455 S
Eu1 O14 2.488 . S
Eu1 O15 2.471 1_556 S
Eu1 O16 2.349 1_556 S
Eu1 O19 2.392 . S
Eu1 O20 2.418 . S
Eu1 C30 2.828 1_556 S
C2 O20 1.244 . S
C2 O23 1.265 . S
C3 C4 1.373 1_554 S
C3 C7 1.378 . S
C3 C9 1.506 . S
C4 C3 1.373 1_556 S
C4 C6 1.369 . S
C4 H32 0.930 . S
C5 C7 1.383 . S
C5 C8 1.382 1_554 S
C5 H33 0.930 . S
C6 C4 1.369 . S
C6 C8 1.392 . S
C6 H34 0.930 . S
C7 C3 1.378 . S
C7 C5 1.383 . S
C7 H35 0.931 . S
C8 C5 1.382 1_556 S
C8 C6 1.392 . S
C9 Eu0 2.828 . S
C9 C3 1.506 . S
C9 O21 1.249 . S
C9 O22 1.244 1_554 S
O10 Eu1 2.373 1_655 S
O10 C12 1.258 1_556 S
O11 Eu0 2.392 1_655 S
O11 C12 1.242 . S
C12 O10 1.258 1_554 S
C12 O11 1.242 . S
O13 Eu0 2.418 . S
O13 C17 1.244 . S
O14 Eu1 2.488 . S
O14 C30 1.249 1_556 S
O15 Eu1 2.471 1_554 S
O15 C30 1.244 . S
O16 Eu1 2.349 1_554 S
O16 C17 1.265 . S
C17 O13 1.244 . S
C17 O16 1.265 . S
O18 Eu0 2.373 . S
O18 C31 1.258 . S
O19 Eu1 2.392 . S
O19 C31 1.242 1_556 S
O20 Eu1 2.418 . S
O20 C2 1.244 . S
O21 Eu0 2.488 . S
O21 C9 1.249 . S
O22 Eu0 2.471 1_556 S
O22 C9 1.244 1_556 S
O23 Eu0 2.349 1_556 S
O23 C2 1.265 . S
C24 C25 1.379 . S
C24 C28 1.373 1_554 S
C24 C30 1.505 1_655 S
C25 C24 1.379 . S
C25 C27 1.369 . S
C25 H36 0.930 . S
C26 C28 1.383 . S
C26 C29 1.382 1_556 S
C26 H37 0.930 . S
C27 C25 1.369 . S
C27 C29 1.392 . S
C27 H38 0.930 . S
C28 C24 1.373 1_556 S
C28 C26 1.383 . S
C28 H39 0.931 . S
C29 C26 1.382 1_554 S
C29 C27 1.392 . S
C30 Eu1 2.828 1_554 S
C30 O14 1.249 1_554 S
C30 O15 1.244 . S
C30 C24 1.505 1_455 S
C31 O18 1.258 . S
C31 O19 1.242 1_554 S
H32 C4 0.930 . S
H33 C5 0.930 . S
H34 C6 0.930 . S
H35 C7 0.931 . S
H36 C25 0.930 . S
H37 C26 0.930 . S
H38 C27 0.930 . S
H39 C28 0.931 . S
Eu40 C49 2.828 . S
Eu40 O51 2.392 . S
Eu40 O53 2.418 . S
Eu40 O58 2.373 1_655 S
Eu40 O61 2.488 . S
Eu40 O62 2.471 1_554 S
Eu40 O63 2.349 1_554 S
Eu41 O50 2.373 . S
Eu41 O54 2.488 . S
Eu41 O55 2.471 1_556 S
Eu41 O56 2.349 1_556 S
Eu41 O59 2.392 1_655 S
Eu41 O60 2.418 . S
Eu41 C70 2.828 1_556 S
C42 O60 1.244 . S
C42 O63 1.265 . S
C43 C44 1.390 . S
C43 C47 1.364 1_556 S
C43 C49 1.504 1_456 S
C44 C43 1.390 . S
C44 C46 1.369 . S
C44 H72 0.930 . S
C45 C47 1.383 . S
C45 C48 1.382 1_554 S
C45 H73 0.930 . S
C46 C44 1.369 . S
C46 C48 1.392 . S
C46 H74 0.930 . S
C47 C43 1.364 1_554 S
C47 C45 1.383 . S
C47 H75 0.931 . S
C48 C45 1.382 1_556 S
C48 C46 1.392 . S
C49 Eu40 2.828 . S
C49 C43 1.504 1_654 S
C49 O61 1.249 . S
C49 O62 1.244 1_554 S
O50 Eu41 2.373 . S
O50 C52 1.258 1_556 S
O51 Eu40 2.392 . S
O51 C52 1.242 . S
C52 O50 1.258 1_554 S
C52 O51 1.242 . S
O53 Eu40 2.418 . S
O53 C57 1.244 . S
O54 Eu41 2.488 . S
O54 C70 1.249 1_556 S
O55 Eu41 2.471 1_554 S
O55 C70 1.244 . S
O56 Eu41 2.349 1_554 S
O56 C57 1.265 . S
C57 O53 1.244 . S
C57 O56 1.265 . S
O58 Eu40 2.373 1_455 S
O58 C71 1.258 . S
O59 Eu41 2.392 1_455 S
O59 C71 1.242 1_556 S
O60 Eu41 2.418 . S
O60 C42 1.244 . S
O61 Eu40 2.488 . S
O61 C49 1.249 . S
O62 Eu40 2.471 1_556 S
O62 C49 1.244 1_556 S
O63 Eu40 2.349 1_556 S
O63 C42 1.265 . S
C64 C65 1.379 . S
C64 C68 1.373 1_554 S
C64 C70 1.505 . S
C65 C64 1.379 . S
C65 C67 1.369 . S
C65 H76 0.930 . S
C66 C68 1.383 . S
C66 C69 1.382 1_556 S
C66 H77 0.930 . S
C67 C65 1.369 . S
C67 C69 1.392 . S
C67 H78 0.930 . S
C68 C64 1.373 1_556 S
C68 C66 1.383 . S
C68 H79 0.931 . S
C69 C66 1.382 1_554 S
C69 C67 1.392 . S
C70 Eu41 2.828 1_554 S
C70 O54 1.249 1_554 S
C70 O55 1.244 . S
C70 C64 1.505 . S
C71 O58 1.258 . S
C71 O59 1.242 1_554 S
H72 C44 0.930 . S
H73 C45 0.930 . S
H74 C46 0.930 . S
H75 C47 0.931 . S
H76 C65 0.930 . S
H77 C66 0.930 . S
H78 C67 0.930 . S
H79 C68 0.931 . S
Eu80 C89 2.828 . S
Eu80 O91 2.392 . S
Eu80 O93 2.418 . S
Eu80 O98 2.373 1_455 S
Eu80 O101 2.488 . S
Eu80 O102 2.471 . S
Eu80 O103 2.349 . S
Eu81 O90 2.373 . S
Eu81 O94 2.488 . S
Eu81 O95 2.471 . S
Eu81 O96 2.349 . S
Eu81 O99 2.392 1_455 S
Eu81 O100 2.418 . S
Eu81 C110 2.828 . S
C82 O100 1.244 . S
C82 O103 1.265 . S
C83 C84 1.379 . S
C83 C87 1.373 . S
C83 C89 1.505 1_655 S
C84 C83 1.379 . S
C84 C86 1.369 . S
C84 H112 0.930 . S
C85 C87 1.383 . S
C85 C88 1.382 . S
C85 H113 0.930 . S
C86 C84 1.369 . S
C86 C88 1.392 . S
C86 H114 0.930 . S
C87 C83 1.373 . S
C87 C85 1.383 . S
C87 H115 0.931 . S
C88 C85 1.382 . S
C88 C86 1.392 . S
C89 Eu80 2.828 . S
C89 C83 1.505 1_455 S
C89 O101 1.249 . S
C89 O102 1.244 . S
O90 Eu81 2.373 . S
O90 C92 1.258 . S
O91 Eu80 2.392 . S
O91 C92 1.242 . S
C92 O90 1.258 . S
C92 O91 1.242 . S
O93 Eu80 2.418 . S
O93 C97 1.244 . S
O94 Eu81 2.488 . S
O94 C110 1.249 . S
O95 Eu81 2.471 . S
O95 C110 1.244 . S
O96 Eu81 2.349 . S
O96 C97 1.265 . S
C97 O93 1.244 . S
C97 O96 1.265 . S
O98 Eu80 2.373 1_655 S
O98 C111 1.258 . S
O99 Eu81 2.392 1_655 S
O99 C111 1.242 . S
O100 Eu81 2.418 . S
O100 C82 1.244 . S
O101 Eu80 2.488 . S
O101 C89 1.249 . S
O102 Eu80 2.471 . S
O102 C89 1.244 . S
O103 Eu80 2.349 . S
O103 C82 1.265 . S
C104 C105 1.379 . S
C104 C108 1.373 . S
C104 C110 1.505 . S
C105 C104 1.379 . S
C105 C107 1.369 . S
C105 H116 0.930 . S
C106 C108 1.383 . S
C106 C109 1.382 . S
C106 H117 0.930 . S
C107 C105 1.369 . S
C107 C109 1.392 . S
C107 H118 0.930 . S
C108 C104 1.373 . S
C108 C106 1.383 . S
C108 H119 0.931 . S
C109 C106 1.382 . S
C109 C107 1.392 . S
C110 Eu81 2.828 . S
C110 O94 1.249 . S
C110 O95 1.244 . S
C110 C104 1.505 . S
C111 O98 1.258 . S
C111 O99 1.242 . S
H112 C84 0.930 . S
H113 C85 0.930 . S
H114 C86 0.930 . S
H115 C87 0.931 . S
H116 C105 0.930 . S
H117 C106 0.930 . S
H118 C107 0.930 . S
H119 C108 0.931 . S
Eu120 C129 2.828 . S
Eu120 O131 2.392 1_655 S
Eu120 O133 2.418 . S
Eu120 O138 2.373 . S
Eu120 O141 2.488 . S
Eu120 O142 2.471 . S
Eu120 O143 2.349 . S
Eu121 O130 2.373 1_655 S
Eu121 O134 2.488 . S
Eu121 O135 2.471 . S
Eu121 O136 2.349 . S
Eu121 O139 2.392 . S
Eu121 O140 2.418 . S
Eu121 C150 2.828 . S
C122 O140 1.244 . S
C122 O143 1.265 . S
C123 C124 1.379 . S
C123 C127 1.373 . S
C123 C129 1.505 . S
C124 C123 1.379 . S
C124 C126 1.369 . S
C124 H152 0.930 . S
C125 C127 1.383 . S
C125 C128 1.382 . S
C125 H153 0.930 . S
C126 C124 1.369 . S
C126 C128 1.392 . S
C126 H154 0.930 . S
C127 C123 1.373 . S
C127 C125 1.383 . S
C127 H155 0.931 . S
C128 C125 1.382 . S
C128 C126 1.392 . S
C129 Eu120 2.828 . S
C129 C123 1.505 . S
C129 O141 1.249 . S
C129 O142 1.244 . S
O130 Eu121 2.373 1_455 S
O130 C132 1.258 . S
O131 Eu120 2.392 1_455 S
O131 C132 1.242 . S
C132 O130 1.258 . S
C132 O131 1.242 . S
O133 Eu120 2.418 . S
O133 C137 1.244 . S
O134 Eu121 2.488 . S
O134 C150 1.249 . S
O135 Eu121 2.471 . S
O135 C150 1.244 . S
O136 Eu121 2.349 . S
O136 C137 1.265 . S
C137 O133 1.244 . S
C137 O136 1.265 . S
O138 Eu120 2.373 . S
O138 C151 1.258 . S
O139 Eu121 2.392 . S
O139 C151 1.242 . S
O140 Eu121 2.418 . S
O140 C122 1.244 . S
O141 Eu120 2.488 . S
O141 C129 1.249 . S
O142 Eu120 2.471 . S
O142 C129 1.244 . S
O143 Eu120 2.349 . S
O143 C122 1.265 . S
C144 C145 1.379 . S
C144 C148 1.373 . S
C144 C150 1.505 1_455 S
C145 C144 1.379 . S
C145 C147 1.369 . S
C145 H156 0.930 . S
C146 C148 1.383 . S
C146 C149 1.382 . S
C146 H157 0.930 . S
C147 C145 1.369 . S
C147 C149 1.392 . S
C147 H158 0.930 . S
C148 C144 1.373 . S
C148 C146 1.383 . S
C148 H159 0.931 . S
C149 C146 1.382 . S
C149 C147 1.392 . S
C150 Eu121 2.828 . S
C150 O134 1.249 . S
C150 O135 1.244 . S
C150 C144 1.505 1_655 S
C151 O138 1.258 . S
C151 O139 1.242 . S
H152 C124 0.930 . S
H153 C125 0.930 . S
H154 C126 0.930 . S
H155 C127 0.931 . S
H156 C145 0.930 . S
H157 C146 0.930 . S
H158 C147 0.930 . S
H159 C148 0.931 . S
Eu160 C169 2.828 . S
Eu160 O171 2.392 . S
Eu160 O173 2.418 . S
Eu160 O178 2.373 . S
Eu160 O181 2.488 . S
Eu160 O182 2.471 1_554 S
Eu160 O183 2.349 1_554 S
Eu161 O170 2.373 . S
Eu161 O174 2.488 . S
Eu161 O175 2.471 1_556 S
Eu161 O176 2.349 1_556 S
Eu161 O179 2.392 . S
Eu161 O180 2.418 . S
Eu161 C190 2.828 1_556 S
C162 O180 1.244 . S
C162 O183 1.265 . S
C163 C164 1.378 1_554 S
C163 C167 1.374 . S
C163 C169 1.505 . S
C164 C163 1.378 1_556 S
C164 C166 1.369 . S
C164 H192 0.930 . S
C165 C167 1.383 . S
C165 C168 1.382 1_554 S
C165 H193 0.930 . S
C166 C164 1.369 . S
C166 C168 1.392 . S
C166 H194 0.930 . S
C167 C163 1.374 . S
C167 C165 1.383 . S
C167 H195 0.931 . S
C168 C165 1.382 1_556 S
C168 C166 1.392 . S
C169 Eu160 2.828 . S
C169 C163 1.505 . S
C169 O181 1.249 . S
C169 O182 1.244 1_554 S
O170 Eu161 2.373 . S
O170 C172 1.258 1_556 S
O171 Eu160 2.392 . S
O171 C172 1.242 . S
C172 O170 1.258 1_554 S
C172 O171 1.242 . S
O173 Eu160 2.418 . S
O173 C177 1.244 . S
O174 Eu161 2.488 . S
O174 C190 1.249 1_556 S
O175 Eu161 2.471 1_554 S
O175 C190 1.244 . S
O176 Eu161 2.349 1_554 S
O176 C177 1.265 . S
C177 O173 1.244 . S
C177 O176 1.265 . S
O178 Eu160 2.373 . S
O178 C191 1.258 . S
O179 Eu161 2.392 . S
O179 C191 1.242 1_556 S
O180 Eu161 2.418 . S
O180 C162 1.244 . S
O181 Eu160 2.488 . S
O181 C169 1.249 . S
O182 Eu160 2.471 1_556 S
O182 C169 1.244 1_556 S
O183 Eu160 2.349 1_556 S
O183 C162 1.265 . S
C184 C185 1.379 . S
C184 C188 1.373 1_554 S
C184 C190 1.505 . S
C185 C184 1.379 . S
C185 C187 1.369 . S
C185 H196 0.930 . S
C186 C188 1.383 . S
C186 C189 1.382 1_556 S
C186 H197 0.930 . S
C187 C185 1.369 . S
C187 C189 1.392 . S
C187 H198 0.930 . S
C188 C184 1.373 1_556 S
C188 C186 1.383 . S
C188 H199 0.931 . S
C189 C186 1.382 1_554 S
C189 C187 1.392 . S
C190 Eu161 2.828 1_554 S
C190 O174 1.249 1_554 S
C190 O175 1.244 . S
C190 C184 1.505 . S
C191 O178 1.258 . S
C191 O179 1.242 1_554 S
H192 C164 0.930 . S
H193 C165 0.930 . S
H194 C166 0.930 . S
H195 C167 0.931 . S
H196 C185 0.930 . S
H197 C186 0.930 . S
H198 C187 0.930 . S
H199 C188 0.931 . S
Eu200 C209 2.828 . S
Eu200 O211 2.392 . S
Eu200 O213 2.418 . S
Eu200 O218 2.373 . S
Eu200 O221 2.488 . S
Eu200 O222 2.471 1_554 S
Eu200 O223 2.349 1_554 S
Eu201 O210 2.373 . S
Eu201 O214 2.488 . S
Eu201 O215 2.471 1_556 S
Eu201 O216 2.349 1_556 S
Eu201 O219 2.392 . S
Eu201 O220 2.418 . S
Eu201 C230 2.828 1_556 S
C202 O220 1.244 . S
C202 O223 1.265 . S
C203 C204 1.388 . S
C203 C207 1.366 1_556 S
C203 C209 1.504 1_556 S
C204 C203 1.388 . S
C204 C206 1.369 . S
C204 H232 0.930 . S
C205 C207 1.383 . S
C205 C208 1.382 1_554 S
C205 H233 0.930 . S
C206 C204 1.369 . S
C206 C208 1.392 . S
C206 H234 0.930 . S
C207 C203 1.366 1_554 S
C207 C205 1.383 . S
C207 H235 0.931 . S
C208 C205 1.382 1_556 S
C208 C206 1.392 . S
C209 Eu200 2.828 . S
C209 C203 1.504 1_554 S
C209 O221 1.249 . S
C209 O222 1.244 1_554 S
O210 Eu201 2.373 . S
O210 C212 1.258 1_556 S
O211 Eu200 2.392 . S
O211 C212 1.242 . S
C212 O210 1.258 1_554 S
C212 O211 1.242 . S
O213 Eu200 2.418 . S
O213 C217 1.244 . S
O214 Eu201 2.488 . S
O214 C230 1.249 1_556 S
O215 Eu201 2.471 1_554 S
O215 C230 1.244 . S
O216 Eu201 2.349 1_554 S
O216 C217 1.265 . S
C217 O213 1.244 . S
C217 O216 1.265 . S
O218 Eu200 2.373 . S
O218 C231 1.258 . S
O219 Eu201 2.392 . S
O219 C231 1.242 1_556 S
O220 Eu201 2.418 . S
O220 C202 1.244 . S
O221 Eu200 2.488 . S
O221 C209 1.249 . S
O222 Eu200 2.471 1_556 S
O222 C209 1.244 1_556 S
O223 Eu200 2.349 1_556 S
O223 C202 1.265 . S
C224 C225 1.379 . S
C224 C228 1.373 1_554 S
C224 C230 1.505 . S
C225 C224 1.379 . S
C225 C227 1.369 . S
C225 H236 0.930 . S
C226 C228 1.383 . S
C226 C229 1.382 1_556 S
C226 H237 0.930 . S
C227 C225 1.369 . S
C227 C229 1.392 . S
C227 H238 0.930 . S
C228 C224 1.373 1_556 S
C228 C226 1.383 . S
C228 H239 0.931 . S
C229 C226 1.382 1_554 S
C229 C227 1.392 . S
C230 Eu201 2.828 1_554 S
C230 O214 1.249 1_554 S
C230 O215 1.244 . S
C230 C224 1.505 . S
C231 O218 1.258 . S
C231 O219 1.242 1_554 S
H232 C204 0.930 . S
H233 C205 0.930 . S
H234 C206 0.930 . S
H235 C207 0.931 . S
H236 C225 0.930 . S
H237 C226 0.930 . S
H238 C227 0.930 . S
H239 C228 0.931 . S
Eu240 C249 2.828 . S
Eu240 O251 2.392 . S
Eu240 O253 2.418 . S
Eu240 O258 2.373 . S
Eu240 O261 2.488 . S
Eu240 O262 2.471 . S
Eu240 O263 2.349 . S
Eu241 O250 2.373 . S
Eu241 O254 2.488 . S
Eu241 O255 2.471 . S
Eu241 O256 2.349 . S
Eu241 O259 2.392 . S
Eu241 O260 2.418 . S
Eu241 C270 2.828 . S
C242 O260 1.244 . S
C242 O263 1.265 . S
C243 C244 1.379 . S
C243 C247 1.373 . S
C243 C249 1.505 . S
C244 C243 1.379 . S
C244 C246 1.369 . S
C244 H272 0.930 . S
C245 C247 1.383 . S
C245 C248 1.382 . S
C245 H273 0.930 . S
C246 C244 1.369 . S
C246 C248 1.392 . S
C246 H274 0.930 . S
C247 C243 1.373 . S
C247 C245 1.383 . S
C247 H275 0.931 . S
C248 C245 1.382 . S
C248 C246 1.392 . S
C249 Eu240 2.828 . S
C249 C243 1.505 . S
C249 O261 1.249 . S
C249 O262 1.244 . S
O250 Eu241 2.373 . S
O250 C252 1.258 . S
O251 Eu240 2.392 . S
O251 C252 1.242 . S
C252 O250 1.258 . S
C252 O251 1.242 . S
O253 Eu240 2.418 . S
O253 C257 1.244 . S
O254 Eu241 2.488 . S
O254 C270 1.249 . S
O255 Eu241 2.471 . S
O255 C270 1.244 . S
O256 Eu241 2.349 . S
O256 C257 1.265 . S
C257 O253 1.244 . S
C257 O256 1.265 . S
O258 Eu240 2.373 . S
O258 C271 1.258 . S
O259 Eu241 2.392 . S
O259 C271 1.242 . S
O260 Eu241 2.418 . S
O260 C242 1.244 . S
O261 Eu240 2.488 . S
O261 C249 1.249 . S
O262 Eu240 2.471 . S
O262 C249 1.244 . S
O263 Eu240 2.349 . S
O263 C242 1.265 . S
C264 C265 1.379 . S
C264 C268 1.373 . S
C264 C270 1.505 . S
C265 C264 1.379 . S
C265 C267 1.369 . S
C265 H276 0.930 . S
C266 C268 1.383 . S
C266 C269 1.382 . S
C266 H277 0.930 . S
C267 C265 1.369 . S
C267 C269 1.392 . S
C267 H278 0.930 . S
C268 C264 1.373 . S
C268 C266 1.383 . S
C268 H279 0.931 . S
C269 C266 1.382 . S
C269 C267 1.392 . S
C270 Eu241 2.828 . S
C270 O254 1.249 . S
C270 O255 1.244 . S
C270 C264 1.505 . S
C271 O258 1.258 . S
C271 O259 1.242 . S
H272 C244 0.930 . S
H273 C245 0.930 . S
H274 C246 0.930 . S
H275 C247 0.931 . S
H276 C265 0.930 . S
H277 C266 0.930 . S
H278 C267 0.930 . S
H279 C268 0.931 . S
Eu280 C289 2.828 . S
Eu280 O291 2.392 . S
Eu280 O293 2.418 . S
Eu280 O298 2.373 . S
Eu280 O301 2.488 . S
Eu280 O302 2.471 . S
Eu280 O303 2.349 . S
Eu281 O290 2.373 . S
Eu281 O294 2.488 . S
Eu281 O295 2.471 . S
Eu281 O296 2.349 . S
Eu281 O299 2.392 . S
Eu281 O300 2.418 . S
Eu281 C310 2.828 . S
C282 O300 1.244 . S
C282 O303 1.265 . S
C283 C284 1.379 . S
C283 C287 1.373 . S
C283 C289 1.505 . S
C284 C283 1.379 . S
C284 C286 1.369 . S
C284 H312 0.930 . S
C285 C287 1.383 . S
C285 C288 1.382 . S
C285 H313 0.930 . S
C286 C284 1.369 . S
C286 C288 1.392 . S
C286 H314 0.930 . S
C287 C283 1.373 . S
C287 C285 1.383 . S
C287 H315 0.931 . S
C288 C285 1.382 . S
C288 C286 1.392 . S
C289 Eu280 2.828 . S
C289 C283 1.505 . S
C289 O301 1.249 . S
C289 O302 1.244 . S
O290 Eu281 2.373 . S
O290 C292 1.258 . S
O291 Eu280 2.392 . S
O291 C292 1.242 . S
C292 O290 1.258 . S
C292 O291 1.242 . S
O293 Eu280 2.418 . S
O293 C297 1.244 . S
O294 Eu281 2.488 . S
O294 C310 1.249 . S
O295 Eu281 2.471 . S
O295 C310 1.244 . S
O296 Eu281 2.349 . S
O296 C297 1.265 . S
C297 O293 1.244 . S
C297 O296 1.265 . S
O298 Eu280 2.373 . S
O298 C311 1.258 . S
O299 Eu281 2.392 . S
O299 C311 1.242 . S
O300 Eu281 2.418 . S
O300 C282 1.244 . S
O301 Eu280 2.488 . S
O301 C289 1.249 . S
O302 Eu280 2.471 . S
O302 C289 1.244 . S
O303 Eu280 2.349 . S
O303 C282 1.265 . S
C304 C305 1.379 . S
C304 C308 1.373 . S
C304 C310 1.505 . S
C305 C304 1.379 . S
C305 C307 1.369 . S
C305 H316 0.930 . S
C306 C308 1.383 . S
C306 C309 1.382 . S
C306 H317 0.930 . S
C307 C305 1.369 . S
C307 C309 1.392 . S
C307 H318 0.930 . S
C308 C304 1.373 . S
C308 C306 1.383 . S
C308 H319 0.931 . S
C309 C306 1.382 . S
C309 C307 1.392 . S
C310 Eu281 2.828 . S
C310 O294 1.249 . S
C310 O295 1.244 . S
C310 C304 1.505 . S
C311 O298 1.258 . S
C311 O299 1.242 . S
H312 C284 0.930 . S
H313 C285 0.930 . S
H314 C286 0.930 . S
H315 C287 0.931 . S
H316 C305 0.930 . S
H317 C306 0.930 . S
H318 C307 0.930 . S
H319 C308 0.931 . S
H320 C328 0.950 . S
H321 C333 0.950 . S
H322 C330 0.950 . S
H323 C332 0.950 . S
H324 C334 0.950 . S
H325 C336 0.950 . S
H326 C338 0.950 . S
H327 C339 0.950 . S
C328 H320 0.950 . S
C328 C329 1.386 . S
C328 C330 1.391 . S
C329 C328 1.386 . S
C329 C333 1.393 . S
C330 H322 0.950 . S
C330 C328 1.391 . S
C330 C331 1.400 . S
C331 C330 1.400 . S
C331 C332 1.398 . S
C331 C337 1.491 . S
C332 H323 0.950 . S
C332 C331 1.398 . S
C332 C333 1.391 . S
C333 H321 0.950 . S
C333 C329 1.393 . S
C333 C332 1.391 . S
C334 H324 0.950 . S
C334 C335 1.386 . S
C334 C336 1.391 . S
C335 C334 1.386 . S
C335 C339 1.393 . S
C336 H325 0.950 . S
C336 C334 1.391 . S
C336 C337 1.400 . S
C337 C331 1.491 . S
C337 C336 1.400 . S
C337 C338 1.398 . S
C338 H326 0.950 . S
C338 C337 1.398 . S
C338 C339 1.391 . S
C339 H327 0.950 . S
C339 C335 1.393 . S
C339 C338 1.391 . S
H340 C348 0.950 . S
H341 C353 0.950 . S
H342 C350 0.950 . S
H343 C352 0.950 . S
H344 C354 0.950 . S
H345 C356 0.950 . S
H346 C358 0.950 . S
H347 C359 0.950 . S
C348 H340 0.950 . S
C348 C349 1.386 1_556 S
C348 C350 1.391 . S
C349 C348 1.386 1_554 S
C349 C353 1.393 . S
C350 H342 0.950 . S
C350 C348 1.391 . S
C350 C351 1.400 1_556 S
C351 C350 1.400 1_554 S
C351 C352 1.398 . S
C351 C357 1.491 . S
C352 H343 0.950 . S
C352 C351 1.398 . S
C352 C353 1.391 . S
C353 H341 0.950 . S
C353 C349 1.393 . S
C353 C352 1.391 . S
C354 H344 0.950 . S
C354 C355 1.386 . S
C354 C356 1.391 . S
C355 C354 1.386 . S
C355 C359 1.393 1_554 S
C356 H345 0.950 . S
C356 C354 1.391 . S
C356 C357 1.400 . S
C357 C351 1.491 . S
C357 C356 1.400 . S
C357 C358 1.398 1_554 S
C358 H346 0.950 . S
C358 C357 1.398 1_556 S
C358 C359 1.391 . S
C359 H347 0.950 . S
C359 C355 1.393 1_556 S
C359 C358 1.391 . S
H360 C368 0.950 . S
H361 C373 0.950 . S
H362 C370 0.950 . S
H363 C372 0.950 . S
H364 C374 0.950 . S
H365 C376 0.950 . S
H366 C378 0.950 . S
H367 C379 0.950 . S
C368 H360 0.950 . S
C368 C369 1.386 . S
C368 C370 1.391 . S
C369 C368 1.386 . S
C369 C373 1.393 . S
C370 H362 0.950 . S
C370 C368 1.391 . S
C370 C371 1.400 . S
C371 C370 1.400 . S
C371 C372 1.398 . S
C371 C377 1.491 . S
C372 H363 0.950 . S
C372 C371 1.398 . S
C372 C373 1.391 . S
C373 H361 0.950 . S
C373 C369 1.393 . S
C373 C372 1.391 . S
C374 H364 0.950 . S
C374 C375 1.386 . S
C374 C376 1.391 . S
C375 C374 1.386 . S
C375 C379 1.393 . S
C376 H365 0.950 . S
C376 C374 1.391 . S
C376 C377 1.400 . S
C377 C371 1.491 . S
C377 C376 1.400 . S
C377 C378 1.398 . S
C378 H366 0.950 . S
C378 C377 1.398 . S
C378 C379 1.391 . S
C379 H367 0.950 . S
C379 C375 1.393 . S
C379 C378 1.391 . S
H380 C388 0.950 . S
H381 C393 0.950 . S
H382 C390 0.950 . S
H383 C392 0.950 . S
H384 C394 0.950 . S
H385 C396 0.950 . S
H386 C398 0.950 . S
H387 C399 0.950 . S
C388 H380 0.950 . S
C388 C389 1.386 . S
C388 C390 1.391 . S
C389 C388 1.386 . S
C389 C393 1.393 . S
C390 H382 0.950 . S
C390 C388 1.391 . S
C390 C391 1.400 . S
C391 C390 1.400 . S
C391 C392 1.398 . S
C391 C397 1.491 . S
C392 H383 0.950 . S
C392 C391 1.398 . S
C392 C393 1.391 . S
C393 H381 0.950 . S
C393 C389 1.393 . S
C393 C392 1.391 . S
C394 H384 0.950 . S
C394 C395 1.386 . S
C394 C396 1.391 . S
C395 C394 1.386 . S
C395 C399 1.393 . S
C396 H385 0.950 . S
C396 C394 1.391 . S
C396 C397 1.400 . S
C397 C391 1.491 . S
C397 C396 1.400 . S
C397 C398 1.398 . S
C398 H386 0.950 . S
C398 C397 1.398 . S
C398 C399 1.391 . S
C399 H387 0.950 . S
C399 C395 1.393 . S
C399 C398 1.391 . S
H400 C408 0.950 . S
H401 C413 0.950 . S
H402 C410 0.950 . S
H403 C412 0.950 1_455 S
H404 C414 0.950 . S
H405 C416 0.950 . S
H406 C418 0.950 . S
H407 C419 0.950 . S
C408 H400 0.950 . S
C408 C409 1.386 . S
C408 C410 1.391 . S
C409 C408 1.386 . S
C409 C413 1.393 1_554 S
C410 H402 0.950 . S
C410 C408 1.391 . S
C410 C411 1.400 1_655 S
C411 C410 1.400 1_455 S
C411 C412 1.398 1_454 S
C411 C417 1.491 . S
C412 H403 0.950 1_655 S
C412 C411 1.398 1_656 S
C412 C413 1.391 . S
C413 H401 0.950 . S
C413 C409 1.393 1_556 S
C413 C412 1.391 . S
C414 H404 0.950 . S
C414 C415 1.386 1_556 S
C414 C416 1.391 . S
C415 C414 1.386 1_554 S
C415 C419 1.393 . S
C416 H405 0.950 . S
C416 C414 1.391 . S
C416 C417 1.400 1_556 S
C417 C411 1.491 . S
C417 C416 1.400 1_554 S
C417 C418 1.398 . S
C418 H406 0.950 . S
C418 C417 1.398 . S
C418 C419 1.391 . S
C419 H407 0.950 . S
C419 C415 1.393 . S
C419 C418 1.391 . S
H420 C428 0.950 . S
H421 C433 0.950 . S
H422 C430 0.950 1_655 S
H423 C432 0.950 . S
H424 C434 0.950 . S
H425 C436 0.950 . S
H426 C438 0.950 . S
H427 C439 0.950 . S
C428 H420 0.950 . S
C428 C429 1.386 . S
C428 C430 1.391 . S
C429 C428 1.386 . S
C429 C433 1.393 1_554 S
C430 H422 0.950 1_455 S
C430 C428 1.391 . S
C430 C431 1.400 1_455 S
C431 C430 1.400 1_655 S
C431 C432 1.398 1_654 S
C431 C437 1.491 . S
C432 H423 0.950 . S
C432 C431 1.398 1_456 S
C432 C433 1.391 . S
C433 H421 0.950 . S
C433 C429 1.393 1_556 S
C433 C432 1.391 . S
C434 H424 0.950 . S
C434 C435 1.386 1_556 S
C434 C436 1.391 . S
C435 C434 1.386 1_554 S
C435 C439 1.393 . S
C436 H425 0.950 . S
C436 C434 1.391 . S
C436 C437 1.400 1_556 S
C437 C431 1.491 . S
C437 C436 1.400 1_554 S
C437 C438 1.398 . S
C438 H426 0.950 . S
C438 C437 1.398 . S
C438 C439 1.391 . S
C439 H427 0.950 . S
C439 C435 1.393 . S
C439 C438 1.391 . S
H440 C448 0.950 . S
H441 C453 0.950 . S
H442 C450 0.950 . S
H443 C452 0.950 . S
H444 C454 0.950 . S
H445 C456 0.950 . S
H446 C458 0.950 1_455 S
H447 C459 0.950 . S
C448 H440 0.950 . S
C448 C449 1.386 . S
C448 C450 1.391 . S
C449 C448 1.386 . S
C449 C453 1.393 . S
C450 H442 0.950 . S
C450 C448 1.391 . S
C450 C451 1.400 . S
C451 C450 1.400 . S
C451 C452 1.398 . S
C451 C457 1.491 . S
C452 H443 0.950 . S
C452 C451 1.398 . S
C452 C453 1.391 . S
C453 H441 0.950 . S
C453 C449 1.393 . S
C453 C452 1.391 . S
C454 H444 0.950 . S
C454 C455 1.386 . S
C454 C456 1.391 . S
C455 C454 1.386 . S
C455 C459 1.393 . S
C456 H445 0.950 . S
C456 C454 1.391 . S
C456 C457 1.400 1_655 S
C457 C451 1.491 . S
C457 C456 1.400 1_455 S
C457 C458 1.398 1_455 S
C458 H446 0.950 1_655 S
C458 C457 1.398 1_655 S
C458 C459 1.391 . S
C459 H447 0.950 . S
C459 C455 1.393 . S
C459 C458 1.391 . S
H460 C468 0.950 . S
H461 C473 0.950 . S
H462 C470 0.950 . S
H463 C472 0.950 . S
H464 C474 0.950 . S
H465 C476 0.950 . S
H466 C478 0.950 1_655 S
H467 C479 0.950 . S
C468 H460 0.950 . S
C468 C469 1.386 . S
C468 C470 1.391 . S
C469 C468 1.386 . S
C469 C473 1.393 . S
C470 H462 0.950 . S
C470 C468 1.391 . S
C470 C471 1.400 . S
C471 C470 1.400 . S
C471 C472 1.398 . S
C471 C477 1.491 . S
C472 H463 0.950 . S
C472 C471 1.398 . S
C472 C473 1.391 . S
C473 H461 0.950 . S
C473 C469 1.393 . S
C473 C472 1.391 . S
C474 H464 0.950 . S
C474 C475 1.386 . S
C474 C476 1.391 . S
C475 C474 1.386 . S
C475 C479 1.393 . S
C476 H465 0.950 . S
C476 C474 1.391 . S
C476 C477 1.400 1_455 S
C477 C471 1.491 . S
C477 C476 1.400 1_655 S
C477 C478 1.398 1_655 S
C478 H466 0.950 1_455 S
C478 C477 1.398 1_455 S
C478 C479 1.391 . S
C479 H467 0.950 . S
C479 C475 1.393 . S
C479 C478 1.391 . S
H480 C488 0.950 . S
H481 C493 0.950 . S
H482 C490 0.950 . S
H483 C492 0.950 1_655 S
H484 C494 0.950 . S
H485 C496 0.950 . S
H486 C498 0.950 1_455 S
H487 C499 0.950 . S
C488 H480 0.950 . S
C488 C489 1.386 1_554 S
C488 C490 1.391 . S
C489 C488 1.386 1_556 S
C489 C493 1.393 . S
C490 H482 0.950 . S
C490 C488 1.391 . S
C490 C491 1.400 . S
C491 C490 1.400 . S
C491 C492 1.398 1_554 S
C491 C497 1.491 1_455 S
C492 H483 0.950 1_455 S
C492 C491 1.398 1_556 S
C492 C493 1.391 . S
C493 H481 0.950 . S
C493 C489 1.393 . S
C493 C492 1.391 . S
C494 H484 0.950 . S
C494 C495 1.386 1_556 S
C494 C496 1.391 . S
C495 C494 1.386 1_554 S
C495 C499 1.393 . S
C496 H485 0.950 . S
C496 C494 1.391 . S
C496 C497 1.400 1_556 S
C497 C491 1.491 1_655 S
C497 C496 1.400 1_554 S
C497 C498 1.398 . S
C498 H486 0.950 1_655 S
C498 C497 1.398 . S
C498 C499 1.391 . S
C499 H487 0.950 . S
C499 C495 1.393 . S
C499 C498 1.391 . S
H500 C508 0.950 . S
H501 C513 0.950 . S
H502 C510 0.950 . S
H503 C512 0.950 . S
H504 C514 0.950 . S
H505 C516 0.950 . S
H506 C518 0.950 . S
H507 C519 0.950 . S
C508 H500 0.950 . S
C508 C509 1.386 . S
C508 C510 1.391 1_455 S
C509 C508 1.386 . S
C509 C513 1.393 . S
C510 H502 0.950 . S
C510 C508 1.391 1_655 S
C510 C511 1.400 1_655 S
C511 C510 1.400 1_455 S
C511 C512 1.398 . S
C511 C517 1.491 1_455 S
C512 H503 0.950 . S
C512 C511 1.398 . S
C512 C513 1.391 . S
C513 H501 0.950 . S
C513 C509 1.393 . S
C513 C512 1.391 . S
C514 H504 0.950 . S
C514 C515 1.386 . S
C514 C516 1.391 1_655 S
C515 C514 1.386 . S
C515 C519 1.393 . S
C516 H505 0.950 . S
C516 C514 1.391 1_455 S
C516 C517 1.400 1_455 S
C517 C511 1.491 1_655 S
C517 C516 1.400 1_655 S
C517 C518 1.398 . S
C518 H506 0.950 . S
C518 C517 1.398 . S
C518 C519 1.391 . S
C519 H507 0.950 . S
C519 C515 1.393 . S
C519 C518 1.391 . S
H520 C528 0.950 . S
H521 C533 0.950 . S
H522 C530 0.950 . S
H523 C532 0.960 . S
H524 C534 0.950 . S
H525 C536 0.950 . S
H526 C538 0.961 . S
H527 C539 0.950 . S
C528 H520 0.950 . S
C528 C529 1.386 . S
C528 C530 1.391 . S
C529 C528 1.386 . S
C529 C533 1.393 . S
C530 H522 0.950 . S
C530 C528 1.391 . S
C530 C531 1.400 . S
C531 C530 1.400 . S
C531 C532 1.398 . S
C531 C537 1.491 1_565 S
C532 H523 0.960 . S
C532 C531 1.398 . S
C532 C533 1.391 . S
C533 H521 0.950 . S
C533 C529 1.393 . S
C533 C532 1.391 . S
C534 H524 0.950 . S
C534 C535 1.386 . S
C534 C536 1.395 . S
C535 C534 1.386 . S
C535 C539 1.391 1_556 S
C536 H525 0.950 . S
C536 C534 1.395 . S
C536 C537 1.398 1_556 S
C537 C531 1.491 1_545 S
C537 C536 1.398 1_554 S
C537 C538 1.398 . S
C538 H526 0.961 . S
C538 C537 1.398 . S
C538 C539 1.393 . S
C539 H527 0.950 . S
C539 C535 1.391 1_554 S
C539 C538 1.393 . S
H540 C548 0.950 . S
H541 C553 0.950 . S
H542 C550 0.950 . S
H543 C552 0.927 1_565 S
H544 C554 0.950 . S
H545 C556 0.950 . S
H546 C558 0.927 1_545 S
H547 C559 0.950 . S
C548 H540 0.950 . S
C548 C549 1.386 . S
C548 C550 1.391 . S
C549 C548 1.386 . S
C549 C553 1.393 . S
C550 H542 0.950 . S
C550 C548 1.391 . S
C550 C551 1.400 . S
C551 C550 1.400 . S
C551 C552 1.398 . S
C551 C557 1.491 1_545 S
C552 H543 0.927 1_545 S
C552 C551 1.398 . S
C552 C553 1.391 . S
C553 H541 0.950 . S
C553 C549 1.393 . S
C553 C552 1.391 . S
C554 H544 0.950 . S
C554 C555 1.386 . S
C554 C556 1.391 . S
C555 C554 1.386 . S
C555 C559 1.393 . S
C556 H545 0.950 . S
C556 C554 1.391 . S
C556 C557 1.400 . S
C557 C551 1.491 1_565 S
C557 C556 1.400 . S
C557 C558 1.398 . S
C558 H546 0.927 1_565 S
C558 C557 1.398 . S
C558 C559 1.391 . S
C559 H547 0.950 . S
C559 C555 1.393 . S
C559 C558 1.391 . S
H560 C568 0.950 . S
H561 C573 0.950 . S
H562 C570 0.950 . S
H563 C572 0.950 . S
H564 C574 0.950 . S
H565 C576 0.950 . S
H566 C578 0.950 . S
H567 C579 0.950 . S
C568 H560 0.950 . S
C568 C569 1.386 . S
C568 C570 1.391 . S
C569 C568 1.386 . S
C569 C573 1.393 1_556 S
C570 H562 0.950 . S
C570 C568 1.391 . S
C570 C571 1.400 1_556 S
C571 C570 1.400 1_554 S
C571 C572 1.398 . S
C571 C577 1.491 . S
C572 H563 0.950 . S
C572 C571 1.398 . S
C572 C573 1.391 . S
C573 H561 0.950 . S
C573 C569 1.393 1_554 S
C573 C572 1.391 . S
C574 H564 0.950 . S
C574 C575 1.386 . S
C574 C576 1.391 . S
C575 C574 1.386 . S
C575 C579 1.393 1_554 S
C576 H565 0.950 . S
C576 C574 1.391 . S
C576 C577 1.400 . S
C577 C571 1.491 . S
C577 C576 1.400 . S
C577 C578 1.398 1_554 S
C578 H566 0.950 . S
C578 C577 1.398 1_556 S
C578 C579 1.391 . S
C579 H567 0.950 . S
C579 C575 1.393 1_556 S
C579 C578 1.391 . S
H580 C588 0.950 . S
H581 C593 0.950 . S
H582 C590 0.950 . S
H583 C592 0.950 . S
H584 C594 0.950 . S
H585 C596 0.950 . S
H586 C598 0.950 . S
H587 C599 0.950 . S
C588 H580 0.950 . S
C588 C589 1.386 1_554 S
C588 C590 1.391 . S
C589 C588 1.386 1_556 S
C589 C593 1.393 . S
C590 H582 0.950 . S
C590 C588 1.391 . S
C590 C591 1.400 . S
C591 C590 1.400 . S
C591 C592 1.398 1_554 S
C591 C597 1.491 . S
C592 H583 0.950 . S
C592 C591 1.398 1_556 S
C592 C593 1.391 . S
C593 H581 0.950 . S
C593 C589 1.393 . S
C593 C592 1.391 . S
C594 H584 0.950 . S
C594 C595 1.386 1_556 S
C594 C596 1.391 . S
C595 C594 1.386 1_554 S
C595 C599 1.393 . S
C596 H585 0.950 . S
C596 C594 1.391 . S
C596 C597 1.400 1_556 S
C597 C591 1.491 . S
C597 C596 1.400 1_554 S
C597 C598 1.398 . S
C598 H586 0.950 . S
C598 C597 1.398 . S
C598 C599 1.391 . S
C599 H587 0.950 . S
C599 C595 1.393 . S
C599 C598 1.391 . S
H600 C608 0.950 . S
H601 C613 0.950 . S
H602 C610 0.950 . S
H603 C612 0.950 . S
H604 C614 0.950 . S
H605 C616 0.950 . S
H606 C618 0.950 . S
H607 C619 0.950 . S
C608 H600 0.950 . S
C608 C609 1.386 . S
C608 C610 1.391 . S
C609 C608 1.386 . S
C609 C613 1.393 . S
C610 H602 0.950 . S
C610 C608 1.391 . S
C610 C611 1.400 . S
C611 C610 1.400 . S
C611 C612 1.398 . S
C611 C617 1.491 . S
C612 H603 0.950 . S
C612 C611 1.398 . S
C612 C613 1.391 . S
C613 H601 0.950 . S
C613 C609 1.393 . S
C613 C612 1.391 . S
C614 H604 0.950 . S
C614 C615 1.386 . S
C614 C616 1.391 . S
C615 C614 1.386 . S
C615 C619 1.393 . S
C616 H605 0.950 . S
C616 C614 1.391 . S
C616 C617 1.400 . S
C617 C611 1.491 . S
C617 C616 1.400 . S
C617 C618 1.398 . S
C618 H606 0.950 . S
C618 C617 1.398 . S
C618 C619 1.391 . S
C619 H607 0.950 . S
C619 C615 1.393 . S
C619 C618 1.391 . S
H620 C628 0.950 . S
H621 C633 0.950 . S
H622 C630 0.950 . S
H623 C632 0.950 . S
H624 C634 0.950 . S
H625 C636 0.950 . S
H626 C638 0.950 . S
H627 C639 0.950 . S
C628 H620 0.950 . S
C628 C629 1.386 . S
C628 C630 1.391 . S
C629 C628 1.386 . S
C629 C633 1.393 . S
C630 H622 0.950 . S
C630 C628 1.391 . S
C630 C631 1.400 . S
C631 C630 1.400 . S
C631 C632 1.398 . S
C631 C637 1.491 . S
C632 H623 0.950 . S
C632 C631 1.398 . S
C632 C633 1.391 . S
C633 H621 0.950 . S
C633 C629 1.393 . S
C633 C632 1.391 . S
C634 H624 0.950 . S
C634 C635 1.386 . S
C634 C636 1.391 . S
C635 C634 1.386 . S
C635 C639 1.393 . S
C636 H625 0.950 . S
C636 C634 1.391 . S
C636 C637 1.400 . S
C637 C631 1.491 . S
C637 C636 1.400 . S
C637 C638 1.398 . S
C638 H626 0.950 . S
C638 C637 1.398 . S
C638 C639 1.391 . S
C639 H627 0.950 . S
C639 C635 1.393 . S
C639 C638 1.391 . S
H640 C648 0.950 . S
H641 C653 0.950 . S
H642 C650 0.950 1_655 S
H643 C652 0.950 . S
H644 C654 0.950 . S
H645 C656 0.950 1_455 S
H646 C658 0.950 . S
H647 C659 0.950 . S
C648 H640 0.950 . S
C648 C649 1.386 . S
C648 C650 1.391 . S
C649 C648 1.386 . S
C649 C653 1.393 . S
C650 H642 0.950 1_455 S
C650 C648 1.391 . S
C650 C651 1.400 . S
C651 C650 1.400 . S
C651 C652 1.398 . S
C651 C657 1.491 1_455 S
C652 H643 0.950 . S
C652 C651 1.398 . S
C652 C653 1.391 . S
C653 H641 0.950 . S
C653 C649 1.393 . S
C653 C652 1.391 . S
C654 H644 0.950 . S
C654 C655 1.386 . S
C654 C656 1.391 . S
C655 C654 1.386 . S
C655 C659 1.393 . S
C656 H645 0.950 1_655 S
C656 C654 1.391 . S
C656 C657 1.400 . S
C657 C651 1.491 1_655 S
C657 C656 1.400 . S
C657 C658 1.398 . S
C658 H646 0.950 . S
C658 C657 1.398 . S
C658 C659 1.391 . S
C659 H647 0.950 . S
C659 C655 1.393 . S
C659 C658 1.391 . S
H660 C668 0.950 . S
H661 C673 0.950 . S
H662 C670 0.950 . S
H663 C672 0.950 . S
H664 C674 0.950 . S
H665 C676 0.950 . S
H666 C678 0.950 . S
H667 C679 0.950 . S
C668 H660 0.950 . S
C668 C669 1.386 . S
C668 C670 1.391 . S
C669 C668 1.386 . S
C669 C673 1.393 1_655 S
C670 H662 0.950 . S
C670 C668 1.391 . S
C670 C671 1.400 . S
C671 C670 1.400 . S
C671 C672 1.398 1_655 S
C671 C677 1.491 1_655 S
C672 H663 0.950 . S
C672 C671 1.398 1_455 S
C672 C673 1.391 . S
C673 H661 0.950 . S
C673 C669 1.393 1_455 S
C673 C672 1.391 . S
C674 H664 0.950 . S
C674 C675 1.386 . S
C674 C676 1.391 . S
C675 C674 1.386 . S
C675 C679 1.393 1_455 S
C676 H665 0.950 . S
C676 C674 1.391 . S
C676 C677 1.400 . S
C677 C671 1.491 1_455 S
C677 C676 1.400 . S
C677 C678 1.398 1_455 S
C678 H666 0.950 . S
C678 C677 1.398 1_655 S
C678 C679 1.391 . S
C679 H667 0.950 . S
C679 C675 1.393 1_655 S
C679 C678 1.391 . S
H680 C688 0.950 . S
H681 C693 0.950 . S
H682 C690 0.950 . S
H683 C692 0.950 . S
H684 C694 0.950 . S
H685 C696 0.950 . S
H686 C698 0.950 . S
H687 C699 0.950 . S
C688 H680 0.950 . S
C688 C689 1.386 . S
C688 C690 1.391 . S
C689 C688 1.386 . S
C689 C693 1.393 1_655 S
C690 H682 0.950 . S
C690 C688 1.391 . S
C690 C691 1.400 . S
C691 C690 1.400 . S
C691 C692 1.398 1_655 S
C691 C697 1.491 1_655 S
C692 H683 0.950 . S
C692 C691 1.398 1_455 S
C692 C693 1.391 . S
C693 H681 0.950 . S
C693 C689 1.393 1_455 S
C693 C692 1.391 . S
C694 H684 0.950 . S
C694 C695 1.386 . S
C694 C696 1.391 . S
C695 C694 1.386 . S
C695 C699 1.393 1_455 S
C696 H685 0.950 . S
C696 C694 1.391 . S
C696 C697 1.400 . S
C697 C691 1.491 1_455 S
C697 C696 1.400 . S
C697 C698 1.398 1_455 S
C698 H686 0.950 . S
C698 C697 1.398 1_655 S
C698 C699 1.391 . S
C699 H687 0.950 . S
C699 C695 1.393 1_655 S
C699 C698 1.391 . S
H700 C708 0.950 . S
H701 C713 0.950 . S
H702 C710 0.950 . S
H703 C712 0.950 . S
H704 C714 0.950 . S
H705 C716 0.950 . S
H706 C718 0.950 . S
H707 C719 0.950 . S
C708 H700 0.950 . S
C708 C709 1.386 1_455 S
C708 C710 1.391 . S
C709 C708 1.386 1_655 S
C709 C713 1.393 . S
C710 H702 0.950 . S
C710 C708 1.391 . S
C710 C711 1.400 1_455 S
C711 C710 1.400 1_655 S
C711 C712 1.398 . S
C711 C717 1.491 1_655 S
C712 H703 0.950 . S
C712 C711 1.398 . S
C712 C713 1.391 . S
C713 H701 0.950 . S
C713 C709 1.393 . S
C713 C712 1.391 . S
C714 H704 0.950 . S
C714 C715 1.386 1_655 S
C714 C716 1.391 . S
C715 C714 1.386 1_455 S
C715 C719 1.393 . S
C716 H705 0.950 . S
C716 C714 1.391 . S
C716 C717 1.400 1_655 S
C717 C711 1.491 1_455 S
C717 C716 1.400 1_455 S
C717 C718 1.398 . S
C718 H706 0.950 . S
C718 C717 1.398 . S
C718 C719 1.391 . S
C719 H707 0.950 . S
C719 C715 1.393 . S
C719 C718 1.391 . S
H720 C728 0.950 . S
H721 C733 0.950 . S
H722 C730 0.950 . S
H723 C732 0.950 . S
H724 C734 0.950 . S
H725 C736 0.950 . S
H726 C738 0.950 . S
H727 C739 0.950 . S
C728 H720 0.950 . S
C728 C729 1.386 . S
C728 C730 1.391 . S
C729 C728 1.386 . S
C729 C733 1.393 . S
C730 H722 0.950 . S
C730 C728 1.391 . S
C730 C731 1.400 . S
C731 C730 1.400 . S
C731 C732 1.398 . S
C731 C737 1.491 . S
C732 H723 0.950 . S
C732 C731 1.398 . S
C732 C733 1.391 . S
C733 H721 0.950 . S
C733 C729 1.393 . S
C733 C732 1.391 . S
C734 H724 0.950 . S
C734 C735 1.386 . S
C734 C736 1.391 . S
C735 C734 1.386 . S
C735 C739 1.393 . S
C736 H725 0.950 . S
C736 C734 1.391 . S
C736 C737 1.400 . S
C737 C731 1.491 . S
C737 C736 1.400 . S
C737 C738 1.398 . S
C738 H726 0.950 . S
C738 C737 1.398 . S
C738 C739 1.391 . S
C739 H727 0.950 . S
C739 C735 1.393 . S
C739 C738 1.391 . S
H740 C748 0.950 . S
H741 C753 0.950 . S
H742 C750 0.950 . S
H743 C752 0.950 . S
H744 C754 0.950 . S
H745 C756 0.950 . S
H746 C758 0.950 . S
H747 C759 0.950 . S
C748 H740 0.950 . S
C748 C749 1.386 . S
C748 C750 1.391 . S
C749 C748 1.386 . S
C749 C753 1.393 . S
C750 H742 0.950 . S
C750 C748 1.391 . S
C750 C751 1.400 . S
C751 C750 1.400 . S
C751 C752 1.398 . S
C751 C757 1.491 . S
C752 H743 0.950 . S
C752 C751 1.398 . S
C752 C753 1.391 . S
C753 H741 0.950 . S
C753 C749 1.393 . S
C753 C752 1.391 . S
C754 H744 0.950 . S
C754 C755 1.386 . S
C754 C756 1.391 . S
C755 C754 1.386 . S
C755 C759 1.393 . S
C756 H745 0.950 . S
C756 C754 1.391 . S
C756 C757 1.400 . S
C757 C751 1.491 . S
C757 C756 1.400 . S
C757 C758 1.398 . S
C758 H746 0.950 . S
C758 C757 1.398 . S
C758 C759 1.391 . S
C759 H747 0.950 . S
C759 C755 1.393 . S
C759 C758 1.391 . S
H760 C768 0.950 . S
H761 C773 0.950 . S
H762 C770 0.950 . S
H763 C772 0.950 . S
H764 C774 0.950 . S
H765 C776 0.950 . S
H766 C778 0.950 . S
H767 C779 0.950 . S
C768 H760 0.950 . S
C768 C769 1.386 . S
C768 C770 1.391 . S
C769 C768 1.386 . S
C769 C773 1.393 . S
C770 H762 0.950 . S
C770 C768 1.391 . S
C770 C771 1.400 . S
C771 C770 1.400 . S
C771 C772 1.398 . S
C771 C777 1.491 . S
C772 H763 0.950 . S
C772 C771 1.398 . S
C772 C773 1.391 . S
C773 H761 0.950 . S
C773 C769 1.393 . S
C773 C772 1.391 . S
C774 H764 0.950 . S
C774 C775 1.386 . S
C774 C776 1.391 . S
C775 C774 1.386 . S
C775 C779 1.393 . S
C776 H765 0.950 . S
C776 C774 1.391 . S
C776 C777 1.400 . S
C777 C771 1.491 . S
C777 C776 1.400 . S
C777 C778 1.398 . S
C778 H766 0.950 . S
C778 C777 1.398 . S
C778 C779 1.391 . S
C779 H767 0.950 . S
C779 C775 1.393 . S
C779 C778 1.391 . S
H780 C788 0.950 . S
H781 C793 0.950 . S
H782 C790 0.950 . S
H783 C792 0.950 . S
H784 C794 0.950 . S
H785 C796 0.950 . S
H786 C798 0.950 . S
H787 C799 0.950 . S
C788 H780 0.950 . S
C788 C789 1.386 . S
C788 C790 1.391 . S
C789 C788 1.386 . S
C789 C793 1.393 . S
C790 H782 0.950 . S
C790 C788 1.391 . S
C790 C791 1.400 . S
C791 C790 1.400 . S
C791 C792 1.398 . S
C791 C797 1.491 . S
C792 H783 0.950 . S
C792 C791 1.398 . S
C792 C793 1.391 . S
C793 H781 0.950 . S
C793 C789 1.393 . S
C793 C792 1.391 . S
C794 H784 0.950 . S
C794 C795 1.386 . S
C794 C796 1.391 . S
C795 C794 1.386 . S
C795 C799 1.393 . S
C796 H785 0.950 . S
C796 C794 1.391 . S
C796 C797 1.400 . S
C797 C791 1.491 . S
C797 C796 1.400 . S
C797 C798 1.398 . S
C798 H786 0.950 . S
C798 C797 1.398 . S
C798 C799 1.391 . S
C799 H787 0.950 . S
C799 C795 1.393 . S
C799 C798 1.391 . S
C329 C31 2.295 . S
C335 C12 2.295 . S
C349 C71 2.290 . S
C355 C52 2.290 . S
C369 C111 2.303 . S
C375 C92 2.303 . S
C389 C151 2.303 . S
C395 C132 2.303 . S
C409 C191 2.301 . S
C415 C172 2.301 . S
C429 C212 2.302 . S
C435 C231 2.302 . S
C449 C271 2.301 . S
C455 C252 2.301 . S
C469 C292 2.303 . S
C475 C311 2.303 . S
C489 C48 2.522 . S
C495 C29 2.522 . S
C509 C149 2.523 . S
C515 C88 2.523 . S
C529 C189 2.532 . S
C535 C208 2.532 . S
C549 C248 2.538 . S
C555 C309 2.538 . S
C569 C8 1.823 . S
C575 C229 1.822 . S
C589 C168 1.807 . S
C595 C69 1.807 . S
C609 C109 1.805 . S
C615 C288 1.805 . S
C629 C128 1.823 . S
C635 C269 1.823 . S
C649 C17 1.588 . S
C655 C137 1.588 . S
C669 C57 1.501 . S
C675 C97 1.524 . S
C689 C42 1.569 . S
C695 C82 1.581 . S
C709 C122 1.508 . S
C715 C2 1.522 . S
C729 C177 1.569 . S
C735 C297 1.591 . S
C749 C217 1.517 . S
C755 C257 1.505 . S
C769 C202 1.593 . S
C775 C242 1.571 . S
C789 C282 1.524 . S
C795 C162 1.501 . S
