# Generated by pormake.
# Topology wkc, (5)-cn, num edge types: 1
# Building blocks:
#     Node 0, Type 0, BuildingBlock: BEQFEK_clean_sbu_0, # of connection points: 5
#     Node 1, Type 0, BuildingBlock: BEQFEK_clean_sbu_0, # of connection points: 5
#     Node 2, Type 0, BuildingBlock: BEQFEK_clean_sbu_0, # of connection points: 5
#     Node 3, Type 0, BuildingBlock: BEQFEK_clean_sbu_0, # of connection points: 5
#     Node 4, Type 0, BuildingBlock: BEQFEK_clean_sbu_0, # of connection points: 5
#     Node 5, Type 0, BuildingBlock: BEQFEK_clean_sbu_0, # of connection points: 5
#     Node 6, Type 0, BuildingBlock: BEQFEK_clean_sbu_0, # of connection points: 5
#     Node 7, Type 0, BuildingBlock: BEQFEK_clean_sbu_0, # of connection points: 5
#     Node 8, Type 0, BuildingBlock: BEQFEK_clean_sbu_0, # of connection points: 5
#     Node 9, Type 0, BuildingBlock: BEQFEK_clean_sbu_0, # of connection points: 5
#     Node 10, Type 0, BuildingBlock: BEQFEK_clean_sbu_0, # of connection points: 5
#     Node 11, Type 0, BuildingBlock: BEQFEK_clean_sbu_0, # of connection points: 5
#     Edge 12, Type (0, 0), BuildingBlock: TEMPAE_clean_linker_10, # of connection points: 2
#     Edge 13, Type (0, 0), BuildingBlock: TEMPAE_clean_linker_10, # of connection points: 2
#     Edge 14, Type (0, 0), BuildingBlock: TEMPAE_clean_linker_10, # of connection points: 2
#     Edge 15, Type (0, 0), BuildingBlock: TEMPAE_clean_linker_10, # of connection points: 2
#     Edge 16, Type (0, 0), BuildingBlock: TEMPAE_clean_linker_10, # of connection points: 2
#     Edge 17, Type (0, 0), BuildingBlock: TEMPAE_clean_linker_10, # of connection points: 2
#     Edge 18, Type (0, 0), BuildingBlock: TEMPAE_clean_linker_10, # of connection points: 2
#     Edge 19, Type (0, 0), BuildingBlock: TEMPAE_clean_linker_10, # of connection points: 2
#     Edge 20, Type (0, 0), BuildingBlock: TEMPAE_clean_linker_10, # of connection points: 2
#     Edge 21, Type (0, 0), BuildingBlock: TEMPAE_clean_linker_10, # of connection points: 2
#     Edge 22, Type (0, 0), BuildingBlock: TEMPAE_clean_linker_10, # of connection points: 2
#     Edge 23, Type (0, 0), BuildingBlock: TEMPAE_clean_linker_10, # of connection points: 2
#     Edge 24, Type (0, 0), BuildingBlock: TEMPAE_clean_linker_10, # of connection points: 2
#     Edge 25, Type (0, 0), BuildingBlock: TEMPAE_clean_linker_10, # of connection points: 2
#     Edge 26, Type (0, 0), BuildingBlock: TEMPAE_clean_linker_10, # of connection points: 2
#     Edge 27, Type (0, 0), BuildingBlock: TEMPAE_clean_linker_10, # of connection points: 2
#     Edge 28, Type (0, 0), BuildingBlock: TEMPAE_clean_linker_10, # of connection points: 2
#     Edge 29, Type (0, 0), BuildingBlock: TEMPAE_clean_linker_10, # of connection points: 2
#     Edge 30, Type (0, 0), BuildingBlock: TEMPAE_clean_linker_10, # of connection points: 2
#     Edge 31, Type (0, 0), BuildingBlock: TEMPAE_clean_linker_10, # of connection points: 2
#     Edge 32, Type (0, 0), BuildingBlock: TEMPAE_clean_linker_10, # of connection points: 2
#     Edge 33, Type (0, 0), BuildingBlock: TEMPAE_clean_linker_10, # of connection points: 2
#     Edge 34, Type (0, 0), BuildingBlock: TEMPAE_clean_linker_10, # of connection points: 2
#     Edge 35, Type (0, 0), BuildingBlock: TEMPAE_clean_linker_10, # of connection points: 2
#     Edge 36, Type (0, 0), BuildingBlock: TEMPAE_clean_linker_10, # of connection points: 2
#     Edge 37, Type (0, 0), BuildingBlock: TEMPAE_clean_linker_10, # of connection points: 2
#     Edge 38, Type (0, 0), BuildingBlock: TEMPAE_clean_linker_10, # of connection points: 2
#     Edge 39, Type (0, 0), BuildingBlock: TEMPAE_clean_linker_10, # of connection points: 2
#     Edge 40, Type (0, 0), BuildingBlock: TEMPAE_clean_linker_10, # of connection points: 2
#     Edge 41, Type (0, 0), BuildingBlock: TEMPAE_clean_linker_10, # of connection points: 2
# Relax obj value: 0.260
# Max RMSD: 0.185
# Mean RMSD: 0.185
data_MOF--net-wkc--node1-BEQFEK_clean_sbu_0--edge1-TEMPAE_clean_linker_10
_symmetry_space_group_name_H-M    P1
_symmetry_Int_Tables_number       1
_symmetry_cell_setting            triclinic
loop_
_symmetry_equiv_pos_as_xyz
'x, y, z'
_cell_length_a     41.131589
_cell_length_b     41.104542
_cell_length_c     43.958911
_cell_angle_alpha  90.036222
_cell_angle_beta   89.948282
_cell_angle_gamma 119.93728
loop_
_atom_site_label
_atom_site_type_symbol
_atom_site_fract_x
_atom_site_fract_y
_atom_site_fract_z
_atom_type_partial_charge
Co0 Co 0.26361 0.35249 0.01109 0.0
Co1 Co 0.27111 0.41942 0.05001 0.0
C2 C 0.19617 0.35582 0.0331 0.0
O3 O 0.20986 0.33957 0.01717 0.0
O4 O 0.21734 0.38676 0.04636 0.0
C5 C 0.2567 0.31623 0.95334 0.0
O6 O 0.24705 0.34014 0.94287 0.0
C7 C 0.2613 0.48256 0.06743 0.0
C8 C 0.31191 0.51697 0.09518 0.0
C9 C 0.28055 0.5163 0.08298 0.0
N10 N 0.28087 0.46453 0.06975 0.0
N11 N 0.31077 0.48491 0.08677 0.0
C12 C 0.22443 0.46689 0.05127 0.0
H13 H 0.20412 0.43996 0.06206 0.0
H14 H 0.2277 0.46086 0.02721 0.0
H15 H 0.21257 0.48585 0.05245 0.0
C16 C 0.32536 0.41767 0.9775 0.0
N17 N 0.29689 0.40271 0.9978 0.0
N18 N 0.29536 0.43009 0.01183 0.0
C19 C 0.32035 0.46308 0.99928 0.0
C20 C 0.34134 0.45674 0.97758 0.0
C21 C 0.34056 0.39542 0.96228 0.0
H22 H 0.33308 0.36963 0.97546 0.0
H23 H 0.32838 0.38724 0.93915 0.0
H24 H 0.37156 0.41219 0.96024 0.0
O25 O 0.28166 0.34433 0.05023 0.0
O26 O 0.29003 0.39382 0.077 0.0
H27 H 0.33937 0.5118 0.02747 0.0
H28 H 0.33414 0.51976 0.98771 0.0
C29 C 0.3221 0.49948 0.00678 0.0
H30 H 0.29352 0.49453 0.01124 0.0
H31 H 0.33097 0.47746 0.09184 0.0
O32 O 0.26417 0.31669 0.98145 0.0
C33 C 0.29157 0.36372 0.07457 0.0
Co34 Co 0.90742 0.2663 0.17365 0.0
Co35 Co 0.84824 0.27232 0.21455 0.0
C36 C 0.83666 0.19823 0.19336 0.0
O37 O 0.86756 0.21319 0.17883 0.0
O38 O 0.82595 0.21817 0.2076 0.0
C39 C 0.9537 0.24462 0.13932 0.0
O40 O 0.9437 0.21799 0.15977 0.0
C41 C 0.77592 0.26304 0.23275 0.0
C42 C 0.7922 0.30729 0.2676 0.0
C43 C 0.76151 0.27912 0.25242 0.0
N44 N 0.81331 0.28088 0.23621 0.0
N45 N 0.82289 0.30703 0.25729 0.0
C46 C 0.75534 0.23389 0.20888 0.0
H47 H 0.77469 0.2365 0.19022 0.0
H48 H 0.73176 0.23659 0.19949 0.0
H49 H 0.74377 0.20562 0.21921 0.0
C50 C 0.89751 0.32186 0.1377 0.0
N51 N 0.88803 0.29754 0.16105 0.0
N52 N 0.86286 0.29976 0.178 0.0
C53 C 0.8554 0.32548 0.16601 0.0
C54 C 0.87721 0.34043 0.14013 0.0
C55 C 0.92799 0.32957 0.11533 0.0
H56 H 0.95361 0.33467 0.12771 0.0
H57 H 0.91893 0.30451 0.10069 0.0
H58 H 0.93483 0.35423 0.10082 0.0
O59 O 0.93485 0.28428 0.2132 0.0
O60 O 0.89199 0.2886 0.241 0.0
H61 H 0.83829 0.34879 0.20191 0.0
H62 H 0.82417 0.35523 0.16444 0.0
C63 C 0.82814 0.33569 0.17927 0.0
H64 H 0.8006 0.30994 0.18234 0.0
H65 H 0.85044 0.32517 0.26419 0.0
O66 O 0.94189 0.26777 0.14163 0.0
C67 C 0.92426 0.29183 0.23824 0.0
Co68 Co 0.64911 0.89456 0.32135 0.0
Co69 Co 0.5821 0.83338 0.35869 0.0
C70 C 0.64618 0.8231 0.34071 0.0
O71 O 0.66322 0.85516 0.32787 0.0
O72 O 0.61412 0.81093 0.35292 0.0
C73 C 0.7174 0.95412 0.29704 0.0
O74 O 0.73089 0.95441 0.32419 0.0
C75 C 0.52009 0.76274 0.38296 0.0
C76 C 0.48321 0.78297 0.40115 0.0
C77 C 0.48519 0.75069 0.39621 0.0
N78 N 0.53702 0.80012 0.37924 0.0
N79 N 0.51529 0.81212 0.39089 0.0
C80 C 0.53866 0.74014 0.37621 0.0
H81 H 0.56839 0.75596 0.38344 0.0
H82 H 0.53785 0.7351 0.35135 0.0
H83 H 0.52506 0.713 0.38857 0.0
C84 C 0.58602 0.88589 0.28265 0.0
N85 N 0.59951 0.87504 0.30611 0.0
N86 N 0.57124 0.84803 0.32106 0.0
C87 C 0.5389 0.84 0.30706 0.0
C88 C 0.54717 0.86403 0.28246 0.0
C89 C 0.60989 0.91762 0.26166 0.0
H90 H 0.62636 0.9437 0.27509 0.0
H91 H 0.62999 0.91139 0.24983 0.0
H92 H 0.59282 0.92207 0.2444 0.0
O93 O 0.65527 0.92181 0.36031 0.0
O94 O 0.60741 0.87695 0.38585 0.0
H95 H 0.49332 0.82599 0.33747 0.0
H96 H 0.47889 0.80408 0.30097 0.0
C97 C 0.50063 0.81264 0.31881 0.0
H98 H 0.5003 0.78723 0.32761 0.0
H99 H 0.52188 0.84015 0.39089 0.0
O100 O 0.68352 0.93029 0.29116 0.0
C101 C 0.63548 0.90996 0.38438 0.0
Co102 Co 0.72522 0.63792 0.5072 0.0
Co103 Co 0.71213 0.57068 0.54881 0.0
C104 C 0.78949 0.63209 0.53176 0.0
O105 O 0.77735 0.64923 0.51529 0.0
O106 O 0.76703 0.60179 0.54546 0.0
C107 C 0.74475 0.68393 0.45254 0.0
O108 O 0.76491 0.66858 0.4447 0.0
C109 C 0.71537 0.50336 0.56383 0.0
C110 C 0.67195 0.4772 0.5995 0.0
C111 C 0.69732 0.472 0.58238 0.0
N112 N 0.70117 0.52587 0.56961 0.0
N113 N 0.67565 0.51043 0.59128 0.0
C114 C 0.74282 0.51031 0.53883 0.0
H115 H 0.74263 0.53026 0.52192 0.0
H116 H 0.73616 0.48359 0.52741 0.0
H117 H 0.77141 0.52282 0.54866 0.0
C118 C 0.67151 0.57408 0.46803 0.0
N119 N 0.69373 0.58798 0.49275 0.0
N120 N 0.68848 0.55986 0.51037 0.0
C121 C 0.66289 0.52731 0.49748 0.0
C122 C 0.65156 0.53522 0.47017 0.0
C123 C 0.66881 0.59756 0.44324 0.0
H124 H 0.69562 0.61143 0.43048 0.0
H125 H 0.64598 0.58053 0.42696 0.0
H126 H 0.66412 0.61964 0.45328 0.0
O127 O 0.70416 0.64611 0.54536 0.0
O128 O 0.6934 0.59723 0.57398 0.0
H129 H 0.62011 0.46851 0.50124 0.0
H130 H 0.66671 0.47985 0.51243 0.0
C131 C 0.64611 0.48975 0.51273 0.0
H132 H 0.63923 0.49224 0.53667 0.0
H133 H 0.65988 0.52196 0.59973 0.0
O134 O 0.7267 0.67463 0.47748 0.0
C135 C 0.69237 0.62733 0.56994 0.0
Co136 Co 0.0959 0.74693 0.66341 0.0
Co137 Co 0.15608 0.74497 0.70562 0.0
C138 C 0.16592 0.81732 0.68139 0.0
O139 O 0.13456 0.80116 0.66747 0.0
O140 O 0.17751 0.79861 0.69635 0.0
C141 C 0.03572 0.75197 0.63659 0.0
O142 O 0.0365 0.76814 0.66259 0.0
C143 C 0.22736 0.75817 0.73237 0.0
C144 C 0.20887 0.70347 0.7546 0.0
C145 C 0.24047 0.73765 0.7481 0.0
N146 N 0.19008 0.73645 0.72884 0.0
N147 N 0.1791 0.70421 0.74288 0.0
C148 C 0.24891 0.7985 0.72292 0.0
H149 H 0.23276 0.81251 0.72903 0.0
H150 H 0.2529 0.80022 0.69788 0.0
H151 H 0.27649 0.81375 0.73449 0.0
C152 C 0.10722 0.69023 0.63018 0.0
N153 N 0.11665 0.71625 0.65226 0.0
N154 N 0.14265 0.71611 0.66957 0.0
C155 C 0.15106 0.69051 0.65874 0.0
C156 C 0.12861 0.67293 0.63373 0.0
C157 C 0.07566 0.67958 0.60828 0.0
H158 H 0.04975 0.67283 0.62105 0.0
H159 H 0.08244 0.70387 0.59328 0.0
H160 H 0.07049 0.65512 0.59411 0.0
O161 O 0.06815 0.7293 0.70259 0.0
O162 O 0.11169 0.72822 0.73162 0.0
H163 H 0.16718 0.66322 0.69183 0.0
H164 H 0.18882 0.66844 0.65524 0.0
C165 C 0.17967 0.68234 0.67212 0.0
H166 H 0.20448 0.70871 0.67982 0.0
H167 H 0.1514 0.68218 0.74348 0.0
O168 O 0.05965 0.74165 0.63179 0.0
C169 C 0.07882 0.72318 0.72808 0.0
Co170 Co 0.34564 0.09429 0.83746 0.0
Co171 Co 0.41419 0.15386 0.87518 0.0
C172 C 0.35512 0.16977 0.85259 0.0
O173 O 0.33662 0.13762 0.84006 0.0
O174 O 0.38574 0.1795 0.86651 0.0
C175 C 0.30314 0.06329 0.78207 0.0
O176 O 0.32284 0.09754 0.77125 0.0
C177 C 0.4814 0.22467 0.89158 0.0
C178 C 0.50834 0.20536 0.92491 0.0
C179 C 0.51275 0.237 0.91001 0.0
N180 N 0.45957 0.18745 0.89541 0.0
N181 N 0.47557 0.17615 0.91564 0.0
C182 C 0.47401 0.24687 0.86842 0.0
H183 H 0.4556 0.22821 0.85009 0.0
H184 H 0.50068 0.26913 0.85841 0.0
H185 H 0.45963 0.26043 0.87961 0.0
C186 C 0.40835 0.09508 0.8021 0.0
N187 N 0.39521 0.10848 0.82408 0.0
N188 N 0.42386 0.13454 0.83946 0.0
C189 C 0.456 0.13909 0.82744 0.0
C190 C 0.44725 0.11408 0.80353 0.0
C191 C 0.38424 0.06204 0.7823 0.0
H192 H 0.35966 0.04086 0.79531 0.0
H193 H 0.37414 0.07154 0.76271 0.0
H194 H 0.40014 0.04881 0.7734 0.0
O195 O 0.33637 0.07023 0.87813 0.0
O196 O 0.38552 0.11276 0.90411 0.0
H197 H 0.4992 0.15818 0.86109 0.0
H198 H 0.51661 0.17009 0.82257 0.0
C199 C 0.49438 0.16709 0.83853 0.0
H200 H 0.49644 0.19484 0.84102 0.0
H201 H 0.46455 0.14832 0.92254 0.0
O202 O 0.30837 0.05667 0.80933 0.0
C203 C 0.35523 0.08136 0.90269 0.0
Co204 Co 0.65028 0.74811 0.82181 0.0
Co205 Co 0.58118 0.74744 0.79246 0.0
C206 C 0.64701 0.81921 0.80895 0.0
O207 O 0.6641 0.80234 0.81824 0.0
O208 O 0.61359 0.80107 0.799 0.0
C209 C 0.68978 0.75293 0.8763 0.0
O210 O 0.66699 0.76324 0.88817 0.0
C211 C 0.51715 0.75679 0.77413 0.0
C212 C 0.47681 0.69861 0.76014 0.0
C213 C 0.48051 0.73376 0.76413 0.0
N214 N 0.53361 0.73571 0.77677 0.0
N215 N 0.50961 0.70122 0.76779 0.0
C216 C 0.53736 0.7984 0.7789 0.0
H217 H 0.56658 0.81094 0.77051 0.0
H218 H 0.53825 0.80448 0.80358 0.0
H219 H 0.52356 0.81172 0.76651 0.0
C220 C 0.58789 0.68633 0.85737 0.0
N221 N 0.6017 0.71592 0.83823 0.0
N222 N 0.57411 0.72067 0.82893 0.0
C223 C 0.54253 0.69685 0.84384 0.0
C224 C 0.54954 0.673 0.86183 0.0
C225 C 0.60995 0.66819 0.86721 0.0
H226 H 0.63395 0.67601 0.85162 0.0
H227 H 0.62103 0.67785 0.89048 0.0
H228 H 0.59206 0.63716 0.86741 0.0
O229 O 0.65304 0.73033 0.78111 0.0
O230 O 0.60371 0.73019 0.76054 0.0
H231 H 0.48857 0.68132 0.825 0.0
H232 H 0.49277 0.69145 0.86514 0.0
C233 C 0.50768 0.69986 0.84298 0.0
H234 H 0.51493 0.72913 0.83776 0.0
H235 H 0.51533 0.67918 0.76777 0.0
O236 O 0.68781 0.74577 0.84801 0.0
C237 C 0.6315 0.72467 0.75855 0.0
Co238 Co 0.90471 0.64874 0.9812 0.0
Co239 Co 0.84202 0.58261 0.9432 0.0
C240 C 0.83212 0.6452 0.96838 0.0
O241 O 0.86434 0.66181 0.98084 0.0
O242 O 0.82084 0.61485 0.95356 0.0
C243 C 0.93902 0.69254 0.03516 0.0
O244 O 0.90446 0.67763 0.04536 0.0
C245 C 0.76846 0.51526 0.93284 0.0
C246 C 0.77916 0.493 0.89055 0.0
C247 C 0.75187 0.48576 0.91221 0.0
N248 N 0.80406 0.53837 0.92397 0.0
N249 N 0.81014 0.52506 0.89855 0.0
C250 C 0.75058 0.52236 0.95982 0.0
H251 H 0.76489 0.55263 0.96536 0.0
H252 H 0.75299 0.50744 0.97993 0.0
H253 H 0.7204 0.51199 0.95546 0.0
C254 C 0.89826 0.58348 0.01653 0.0
N255 N 0.88723 0.59822 0.99407 0.0
N256 N 0.86117 0.57061 0.97779 0.0
C257 C 0.85501 0.53758 0.9892 0.0
C258 C 0.87796 0.54464 0.01425 0.0
C259 C 0.92744 0.60612 0.03982 0.0
H260 H 0.91641 0.61983 0.05508 0.0
H261 H 0.93491 0.58857 0.05403 0.0
H262 H 0.953 0.62824 0.0284 0.0
O263 O 0.9267 0.65678 0.93953 0.0
O264 O 0.88239 0.60902 0.91332 0.0
H265 H 0.83742 0.47875 0.98306 0.0
H266 H 0.80093 0.49052 0.97972 0.0
C267 C 0.83074 0.50016 0.97458 0.0
H268 H 0.83473 0.50254 0.94959 0.0
H269 H 0.83563 0.53763 0.88686 0.0
O270 O 0.94487 0.68413 0.00866 0.0
C271 C 0.9145 0.63847 0.91476 0.0
Co272 Co 0.25366 0.89842 0.15304 0.0
Co273 Co 0.25848 0.83941 0.11152 0.0
C274 C 0.18522 0.82604 0.13637 0.0
O275 O 0.20042 0.85758 0.15002 0.0
O276 O 0.20473 0.81551 0.1213 0.0
C277 C 0.2429 0.92776 0.20975 0.0
O278 O 0.22606 0.89282 0.21931 0.0
C279 C 0.25335 0.76821 0.09571 0.0
C280 C 0.2922 0.78418 0.05662 0.0
C281 C 0.26931 0.75433 0.07541 0.0
N282 N 0.26657 0.80461 0.08934 0.0
N283 N 0.28922 0.81386 0.06562 0.0
C284 C 0.22944 0.74888 0.12286 0.0
H285 H 0.23126 0.76977 0.13979 0.0
H286 H 0.2382 0.73001 0.13356 0.0
H287 H 0.19979 0.73172 0.11551 0.0
C288 C 0.31451 0.8925 0.18556 0.0
N289 N 0.28734 0.88105 0.16423 0.0
N290 N 0.28916 0.85611 0.14657 0.0
C291 C 0.31745 0.85099 0.15601 0.0
C292 C 0.3344 0.87382 0.18096 0.0
C293 C 0.32392 0.92359 0.20774 0.0
H294 H 0.32335 0.94726 0.19616 0.0
H295 H 0.30259 0.91316 0.22611 0.0
H296 H 0.35196 0.93375 0.2181 0.0
O297 O 0.26883 0.92466 0.1131 0.0
O298 O 0.27214 0.8821 0.08422 0.0
H299 H 0.336 0.83422 0.11657 0.0
H300 H 0.35353 0.82655 0.15194 0.0
C301 C 0.32905 0.82581 0.14071 0.0
H302 H 0.30551 0.79654 0.1415 0.0
H303 H 0.30371 0.84078 0.05631 0.0
O304 O 0.25618 0.93537 0.18292 0.0
C305 C 0.27515 0.91422 0.08754 0.0
Co306 Co 0.34129 0.24072 0.32592 0.0
Co307 Co 0.40801 0.24264 0.28984 0.0
C308 C 0.34361 0.17053 0.31224 0.0
O309 O 0.32703 0.18675 0.32385 0.0
O310 O 0.37507 0.18914 0.29886 0.0
C311 C 0.29941 0.23427 0.38061 0.0
O312 O 0.31745 0.21843 0.39241 0.0
C313 C 0.47466 0.23531 0.27689 0.0
C314 C 0.49976 0.2751 0.23862 0.0
C315 C 0.50526 0.25116 0.2573 0.0
N316 N 0.45259 0.24992 0.27042 0.0
N317 N 0.46755 0.2733 0.24728 0.0
C318 C 0.46606 0.20628 0.30091 0.0
H319 H 0.43541 0.18832 0.30383 0.0
H320 H 0.47791 0.22032 0.32296 0.0
H321 H 0.47847 0.18853 0.29496 0.0
C322 C 0.40584 0.30087 0.36051 0.0
N323 N 0.39142 0.27277 0.33988 0.0
N324 N 0.41925 0.27278 0.325 0.0
C325 C 0.45208 0.30047 0.33586 0.0
C326 C 0.44466 0.31921 0.35859 0.0
C327 C 0.38319 0.31342 0.37855 0.0
H328 H 0.35986 0.31138 0.36453 0.0
H329 H 0.37122 0.29496 0.3987 0.0
H330 H 0.40065 0.34276 0.3866 0.0
O331 O 0.33566 0.25769 0.28501 0.0
O332 O 0.3833 0.25903 0.26015 0.0
H333 H 0.49245 0.31994 0.29982 0.0
H334 H 0.51299 0.33201 0.33739 0.0
C335 C 0.48983 0.31008 0.32364 0.0
H336 H 0.49267 0.28473 0.32388 0.0
H337 H 0.45614 0.28865 0.23778 0.0
O338 O 0.30537 0.24504 0.35305 0.0
C339 C 0.35516 0.26398 0.26092 0.0
Co340 Co 0.09513 0.35131 0.49339 0.0
Co341 Co 0.15741 0.41574 0.4545 0.0
C342 C 0.16592 0.35166 0.47617 0.0
O343 O 0.13384 0.33595 0.489 0.0
O344 O 0.17867 0.38302 0.46256 0.0
C345 C 0.0358 0.28393 0.51879 0.0
O346 O 0.03784 0.2692 0.49282 0.0
C347 C 0.22901 0.47567 0.42977 0.0
C348 C 0.21021 0.51241 0.40893 0.0
C349 C 0.24196 0.51002 0.41524 0.0
N350 N 0.19163 0.45953 0.43289 0.0
N351 N 0.18048 0.48111 0.41965 0.0
C352 C 0.25075 0.45673 0.43824 0.0
H353 H 0.23461 0.42674 0.43173 0.0
H354 H 0.25509 0.45845 0.46324 0.0
H355 H 0.27817 0.46937 0.42635 0.0
C356 C 0.10653 0.41696 0.53033 0.0
N357 N 0.11578 0.40184 0.50698 0.0
N358 N 0.14284 0.42899 0.49115 0.0
C359 C 0.15225 0.46223 0.50425 0.0
C360 C 0.12934 0.45574 0.5294 0.0
C361 C 0.07608 0.39457 0.55279 0.0
H362 H 0.0489 0.37888 0.54065 0.0
H363 H 0.08186 0.37374 0.56388 0.0
H364 H 0.07401 0.41264 0.57055 0.0
O365 O 0.06883 0.3436 0.45362 0.0
O366 O 0.11433 0.38978 0.42716 0.0
H367 H 0.16732 0.50564 0.47143 0.0
H368 H 0.1885 0.52275 0.50777 0.0
C369 C 0.1801 0.49961 0.49124 0.0
H370 H 0.20551 0.49906 0.48365 0.0
H371 H 0.15264 0.47503 0.41889 0.0
O372 O 0.05819 0.31849 0.52376 0.0
C373 C 0.0812 0.36203 0.42895 0.0
Co374 Co 0.72314 0.08248 0.6393 0.0
Co375 Co 0.71342 0.1413 0.60076 0.0
C376 C 0.78921 0.15425 0.62061 0.0
O377 O 0.77585 0.12356 0.63531 0.0
O378 O 0.76781 0.16342 0.60679 0.0
C379 C 0.74106 0.05261 0.69191 0.0
O380 O 0.76297 0.08806 0.69916 0.0
C381 C 0.71725 0.2138 0.59181 0.0
C382 C 0.68145 0.2027 0.55129 0.0
C383 C 0.70245 0.23003 0.57266 0.0
N384 N 0.70489 0.17838 0.58248 0.0
N385 N 0.6838 0.17203 0.55809 0.0
C386 C 0.74376 0.23181 0.61787 0.0
H387 H 0.76109 0.21848 0.62147 0.0
H388 H 0.72757 0.2281 0.63903 0.0
H389 H 0.76232 0.26231 0.61374 0.0
C390 C 0.66728 0.08955 0.67821 0.0
N391 N 0.69062 0.09965 0.65404 0.0
N392 N 0.68615 0.12378 0.63743 0.0
C393 C 0.65955 0.12938 0.65021 0.0
C394 C 0.64706 0.10827 0.67661 0.0
C395 C 0.66463 0.0627 0.70238 0.0
H396 H 0.69184 0.07477 0.71447 0.0
H397 H 0.64249 0.05721 0.71931 0.0
H398 H 0.6589 0.03586 0.69176 0.0
O399 O 0.70617 0.05839 0.59842 0.0
O400 O 0.69748 0.09956 0.57204 0.0
H401 H 0.61499 0.14257 0.64515 0.0
H402 H 0.66176 0.18125 0.63973 0.0
C403 C 0.64307 0.15083 0.63566 0.0
H404 H 0.64026 0.14564 0.61082 0.0
H405 H 0.67056 0.14657 0.54636 0.0
O406 O 0.7221 0.04438 0.66743 0.0
C407 C 0.69687 0.06837 0.57395 0.0
C408 C 0.29965 0.17945 0.85207 0.0
C409 C 0.33849 0.19434 0.85518 0.0
C410 C 0.28246 0.19969 0.86212 0.0
C411 C 0.30471 0.23553 0.87542 0.0
C412 C 0.34426 0.25221 0.87552 0.0
C413 C 0.36067 0.23139 0.8654 0.0
C414 C 0.24025 0.18124 0.8611 0.0
C415 C 0.36912 0.29062 0.88905 0.0
C416 C 0.26763 0.29933 0.90096 0.0
C417 C 0.26382 0.29232 0.93238 0.0
C418 C 0.27918 0.27974 0.8816 0.0
C419 C 0.28699 0.25263 0.89406 0.0
C420 C 0.28113 0.24406 0.92549 0.0
C421 C 0.26968 0.26402 0.94422 0.0
C422 C 0.28486 0.28947 0.8482 0.0
C423 C 0.28878 0.21506 0.93969 0.0
H424 H 0.28231 0.15094 0.84394 0.0
H425 H 0.39078 0.24336 0.86731 0.0
H426 H 0.22867 0.17039 0.88405 0.0
H427 H 0.2314 0.20174 0.8546 0.0
H428 H 0.22782 0.15736 0.84484 0.0
H429 H 0.39919 0.30166 0.88352 0.0
H430 H 0.36075 0.31086 0.88077 0.0
H431 H 0.36596 0.28901 0.91417 0.0
H432 H 0.26311 0.32116 0.89164 0.0
H433 H 0.26636 0.25815 0.96842 0.0
H434 H 0.27358 0.26372 0.83407 0.0
H435 H 0.31533 0.30658 0.84335 0.0
H436 H 0.27125 0.30579 0.84119 0.0
H437 H 0.27348 0.18807 0.92723 0.0
H438 H 0.28037 0.20993 0.96402 0.0
H439 H 0.31918 0.22463 0.93812 0.0
C440 C 0.12948 0.30293 0.02629 0.0
C441 C 0.15557 0.3365 0.04055 0.0
C442 C 0.09205 0.2827 0.03658 0.0
C443 C 0.081 0.29597 0.06211 0.0
C444 C 0.10696 0.33039 0.07586 0.0
C445 C 0.14359 0.35026 0.06476 0.0
C446 C 0.06483 0.24664 0.02081 0.0
C447 C 0.09663 0.3456 0.10331 0.0
C448 C 0.98504 0.27195 0.08974 0.0
C449 C 0.98162 0.25052 0.11563 0.0
C450 C 0.0153 0.2833 0.06965 0.0
C451 C 0.04321 0.27377 0.07608 0.0
C452 C 0.03805 0.2493 0.10063 0.0
C453 C 0.00705 0.23767 0.12001 0.0
C454 C 0.01909 0.30828 0.04314 0.0
C455 C 0.0672 0.23855 0.10836 0.0
H456 H 0.13844 0.29207 0.00757 0.0
H457 H 0.16338 0.37587 0.07627 0.0
H458 H 0.06088 0.22244 0.03472 0.0
H459 H 0.03698 0.24449 0.01823 0.0
H460 H 0.07517 0.24435 0.99799 0.0
H461 H 0.12022 0.37288 0.11124 0.0
H462 H 0.07253 0.34959 0.09789 0.0
H463 H 0.08798 0.32522 0.12236 0.0
H464 H 0.9649 0.28121 0.08585 0.0
H465 H 0.00429 0.22077 0.13981 0.0
H466 H 0.02988 0.3008 0.02273 0.0
H467 H 0.03947 0.33788 0.049 0.0
H468 H 0.9919 0.3064 0.03741 0.0
H469 H 0.07653 0.23017 0.08761 0.0
H470 H 0.05653 0.21514 0.12503 0.0
H471 H 0.09215 0.26318 0.1183 0.0
C472 C 0.83122 0.13487 0.18961 0.0
C473 C 0.81556 0.15711 0.19797 0.0
C474 C 0.81571 0.09784 0.20019 0.0
C475 C 0.78412 0.08306 0.21966 0.0
C476 C 0.76632 0.10423 0.2259 0.0
C477 C 0.78213 0.14091 0.2148 0.0
C478 C 0.83478 0.07567 0.19235 0.0
C479 C 0.73231 0.08934 0.24636 0.0
C480 C 0.72559 0.98234 0.24536 0.0
C481 C 0.73902 0.9846 0.27509 0.0
C482 C 0.74198 0.01349 0.2259 0.0
C483 C 0.77212 0.0477 0.23665 0.0
C484 C 0.78755 0.0493 0.26579 0.0
C485 C 0.77092 0.01758 0.28462 0.0
C486 C 0.72537 0.01044 0.19471 0.0
C487 C 0.8198 0.08533 0.27803 0.0
H488 H 0.85685 0.14701 0.17634 0.0
H489 H 0.76947 0.15764 0.22096 0.0
H490 H 0.8517 0.07586 0.21206 0.0
H491 H 0.81383 0.04597 0.18738 0.0
H492 H 0.85378 0.08775 0.17245 0.0
H493 H 0.72006 0.10807 0.24687 0.0
H494 H 0.71037 0.06108 0.23876 0.0
H495 H 0.74033 0.0865 0.2699 0.0
H496 H 0.70129 0.95666 0.23766 0.0
H497 H 0.78159 0.01942 0.30747 0.0
H498 H 0.74777 0.02518 0.17749 0.0
H499 H 0.70784 0.02398 0.19492 0.0
H500 H 0.70744 0.98072 0.1876 0.0
H501 H 0.84312 0.09772 0.26133 0.0
H502 H 0.83071 0.081 0.29986 0.0
H503 H 0.81037 0.10603 0.28184 0.0
C504 C 0.74317 0.70609 0.39974 0.0
C505 C 0.73884 0.70823 0.4312 0.0
C506 C 0.73259 0.72546 0.37927 0.0
C507 C 0.71775 0.74757 0.39071 0.0
C508 C 0.71542 0.75144 0.42253 0.0
C509 C 0.72579 0.73156 0.44234 0.0
C510 C 0.73541 0.72059 0.34552 0.0
C511 C 0.70028 0.77521 0.43573 0.0
C512 C 0.70493 0.82026 0.34812 0.0
C513 C 0.66572 0.80159 0.34555 0.0
C514 C 0.72304 0.80195 0.36041 0.0
C515 C 0.70134 0.76416 0.37002 0.0
C516 C 0.66224 0.74417 0.36437 0.0
C517 C 0.64488 0.7632 0.35231 0.0
C518 C 0.76482 0.82413 0.36579 0.0
C519 C 0.63815 0.70362 0.37371 0.0
H520 H 0.75314 0.68796 0.39103 0.0
H521 H 0.72281 0.73361 0.46667 0.0
H522 H 0.70693 0.70203 0.33619 0.0
H523 H 0.7472 0.74793 0.33357 0.0
H524 H 0.75309 0.70784 0.34037 0.0
H525 H 0.70305 0.77754 0.46089 0.0
H526 H 0.71528 0.80387 0.42588 0.0
H527 H 0.67016 0.76271 0.42984 0.0
H528 H 0.72123 0.84993 0.34281 0.0
H529 H 0.61464 0.74847 0.34975 0.0
H530 H 0.77814 0.80707 0.36045 0.0
H531 H 0.77019 0.8321 0.39017 0.0
H532 H 0.77845 0.85022 0.35195 0.0
H533 H 0.65135 0.68694 0.3667 0.0
H534 H 0.60957 0.69069 0.3637 0.0
H535 H 0.63538 0.70188 0.39886 0.0
C536 C 0.00423 0.72475 0.58687 0.0
C537 C 0.00443 0.74111 0.61497 0.0
C538 C 0.9725 0.70963 0.568 0.0
C539 C 0.94014 0.7105 0.57769 0.0
C540 C 0.94098 0.72891 0.60518 0.0
C541 C 0.97321 0.74419 0.62341 0.0
C542 C 0.97293 0.69091 0.53856 0.0
C543 C 0.90699 0.73038 0.61633 0.0
C544 C 0.85536 0.68634 0.52842 0.0
C545 C 0.83011 0.64985 0.53852 0.0
C546 C 0.89232 0.70584 0.53947 0.0
C547 C 0.90402 0.68849 0.56128 0.0
C548 C 0.8795 0.65078 0.56988 0.0
C549 C 0.84296 0.63186 0.55825 0.0
C550 C 0.91802 0.74571 0.52922 0.0
C551 C 0.89092 0.63117 0.59301 0.0
H552 H 0.02844 0.72265 0.58001 0.0
H553 H 0.97321 0.75695 0.64499 0.0
H554 H 0.95559 0.66001 0.54109 0.0
H555 H 0.96059 0.69935 0.51986 0.0
H556 H 0.00178 0.69787 0.53197 0.0
H557 H 0.91315 0.74825 0.63689 0.0
H558 H 0.89627 0.74139 0.59826 0.0
H559 H 0.88424 0.70159 0.62195 0.0
H560 H 0.84582 0.70038 0.51297 0.0
H561 H 0.82388 0.6035 0.56591 0.0
H562 H 0.94649 0.75039 0.52424 0.0
H563 H 0.92083 0.76531 0.54773 0.0
H564 H 0.90715 0.75284 0.50866 0.0
H565 H 0.91801 0.6334 0.58649 0.0
H566 H 0.86959 0.60099 0.5955 0.0
H567 H 0.89496 0.64498 0.61549 0.0
C568 C 0.16853 0.87934 0.68415 0.0
C569 C 0.18724 0.85867 0.68414 0.0
C570 C 0.18652 0.9166 0.69468 0.0
C571 C 0.224 0.93333 0.70522 0.0
C572 C 0.24407 0.91382 0.70217 0.0
C573 C 0.22541 0.87669 0.69168 0.0
C574 C 0.16433 0.93666 0.69716 0.0
C575 C 0.28425 0.93079 0.71266 0.0
C576 C 0.28226 0.03523 0.7301 0.0
C577 C 0.27905 0.03145 0.76185 0.0
C578 C 0.26305 0.00379 0.71102 0.0
C579 C 0.24015 0.96794 0.72411 0.0
C580 C 0.23525 0.96443 0.75607 0.0
C581 C 0.2548 0.99618 0.77451 0.0
C582 C 0.26885 0.00867 0.67707 0.0
C583 C 0.21079 0.92676 0.77098 0.0
H584 H 0.13903 0.86559 0.67822 0.0
H585 H 0.2402 0.86105 0.69102 0.0
H586 H 0.15563 0.93598 0.72117 0.0
H587 H 0.18166 0.96655 0.69045 0.0
H588 H 0.13871 0.92325 0.6828 0.0
H589 H 0.29732 0.9142 0.70492 0.0
H590 H 0.30132 0.95996 0.70416 0.0
H591 H 0.28517 0.93194 0.73789 0.0
H592 H 0.30098 0.06243 0.72015 0.0
H593 H 0.25187 0.99312 0.79901 0.0
H594 H 0.24181 0.99245 0.66485 0.0
H595 H 0.28736 0.99771 0.66964 0.0
H596 H 0.28207 0.03862 0.67021 0.0
H597 H 0.18243 0.91261 0.76062 0.0
H598 H 0.20784 0.92926 0.79587 0.0
H599 H 0.2231 0.90842 0.76725 0.0
C600 C 0.77149 0.64286 0.95829 0.0
C601 C 0.80919 0.66365 0.96718 0.0
C602 C 0.75169 0.66083 0.94953 0.0
C603 C 0.77015 0.70053 0.94953 0.0
C604 C 0.80688 0.72149 0.9615 0.0
C605 C 0.82603 0.70273 0.9703 0.0
C606 C 0.71226 0.63738 0.93745 0.0
C607 C 0.82726 0.76383 0.9623 0.0
C608 C 0.74043 0.73715 0.88267 0.0
C609 C 0.71396 0.74476 0.89594 0.0
C610 C 0.76034 0.72464 0.90029 0.0
C611 C 0.75357 0.71954 0.93199 0.0
C612 C 0.72845 0.72916 0.94584 0.0
C613 C 0.70887 0.74171 0.92759 0.0
C614 C 0.7872 0.71502 0.88463 0.0
C615 C 0.72071 0.72431 0.97958 0.0
H616 H 0.75809 0.61258 0.95639 0.0
H617 H 0.85509 0.71897 0.97739 0.0
H618 H 0.69366 0.64728 0.94677 0.0
H619 H 0.71256 0.64022 0.91232 0.0
H620 H 0.70013 0.60716 0.94308 0.0
H621 H 0.852 0.77539 0.97765 0.0
H622 H 0.83717 0.77487 0.93906 0.0
H623 H 0.80829 0.77419 0.96984 0.0
H624 H 0.74482 0.73986 0.85827 0.0
H625 H 0.68847 0.74762 0.93801 0.0
H626 H 0.77626 0.68433 0.88613 0.0
H627 H 0.81491 0.72929 0.89608 0.0
H628 H 0.79129 0.72318 0.86023 0.0
H629 H 0.70265 0.69404 0.98481 0.0
H630 H 0.70613 0.73936 0.98755 0.0
H631 H 0.74712 0.73459 0.99263 0.0
C632 C 0.12683 0.76608 0.12455 0.0
C633 C 0.14394 0.8038 0.13352 0.0
C634 C 0.08971 0.74714 0.11408 0.0
C635 C 0.06949 0.76662 0.11212 0.0
C636 C 0.0854 0.80353 0.12385 0.0
C637 C 0.12247 0.82165 0.13465 0.0
C638 C 0.07343 0.70743 0.10251 0.0
C639 C 0.06476 0.82522 0.12224 0.0
C640 C 0.00668 0.73848 0.04287 0.0
C641 C 0.97126 0.71474 0.05544 0.0
C642 C 0.03852 0.75682 0.06135 0.0
C643 C 0.03498 0.75078 0.0932 0.0
C644 C -0.0009 0.72784 0.10619 0.0
C645 C 0.96752 0.71023 0.08712 0.0
C646 C 0.0762 0.78161 0.04659 0.0
C647 C 0.99428 0.72044 0.13998 0.0
H648 H 0.14317 0.75199 0.12405 0.0
H649 H 0.13551 0.8508 0.14161 0.0
H650 H 0.04407 0.68976 0.11041 0.0
H651 H 0.07305 0.70754 0.07727 0.0
H652 H 0.09008 0.69437 0.11006 0.0
H653 H 0.07779 0.85046 0.13709 0.0
H654 H 0.06527 0.83452 0.09846 0.0
H655 H 0.03494 0.80733 0.1289 0.0
H656 H 0.0096 0.74225 0.01841 0.0
H657 H 0.94018 0.69166 0.0969 0.0
H658 H 0.09435 0.76896 0.04955 0.0
H659 H 0.09053 0.80958 0.05769 0.0
H660 H 0.07373 0.78555 0.02187 0.0
H661 H 0.00599 0.70226 0.14644 0.0
H662 H 0.96431 0.70624 0.14692 0.0
H663 H 0.00993 0.74701 0.15294 0.0
C664 C 0.34491 0.11129 0.30426 0.0
C665 C 0.32412 0.12916 0.31012 0.0
C666 C 0.32732 0.07406 0.2941 0.0
C667 C 0.28803 0.05442 0.28946 0.0
C668 C 0.26647 0.07091 0.29855 0.0
C669 C 0.28482 0.10821 0.30892 0.0
C670 C 0.35132 0.05726 0.28529 0.0
C671 C 0.22447 0.05067 0.29438 0.0
C672 C 0.26184 0.99464 0.21862 0.0
C673 C 0.24982 0.95881 0.23056 0.0
C674 C 0.27248 0.02554 0.23772 0.0
C675 C 0.27128 0.02061 0.26967 0.0
C676 C 0.25742 0.98422 0.28197 0.0
C677 C 0.24677 0.95362 0.2622 0.0
C678 C 0.2867 0.06382 0.2236 0.0
C679 C 0.2556 0.97785 0.31588 0.0
H680 H 0.37525 0.12715 0.30575 0.0
H681 H 0.26856 0.12181 0.31363 0.0
H682 H 0.33849 0.02782 0.29331 0.0
H683 H 0.3534 0.05697 0.26013 0.0
H684 H 0.38015 0.07352 0.29473 0.0
H685 H 0.21122 0.06358 0.30819 0.0
H686 H 0.21793 0.05199 0.27008 0.0
H687 H 0.21173 0.02061 0.30065 0.0
H688 H 0.2638 -0.00124 0.19418 0.0
H689 H 0.23744 0.92595 0.27157 0.0
H690 H 0.31689 0.08207 0.22899 0.0
H691 H 0.27148 0.07743 0.23317 0.0
H692 H 0.28338 0.06241 0.19847 0.0
H693 H 0.2843 0.98773 0.32469 0.0
H694 H 0.23783 0.94769 0.32177 0.0
H695 H 0.24446 0.99411 0.32769 0.0
C696 C 0.22495 0.35075 0.4654 0.0
C697 C 0.18683 0.33119 0.47324 0.0
C698 C 0.24326 0.33163 0.45556 0.0
C699 C 0.22288 0.29198 0.45344 0.0
C700 C 0.1854 0.27193 0.46406 0.0
C701 C 0.16779 0.29182 0.47396 0.0
C702 C 0.28347 0.3541 0.44492 0.0
C703 C 0.16286 0.22964 0.46245 0.0
C704 C 0.25292 0.25584 0.38621 0.0
C705 C 0.27629 0.24435 0.39989 0.0
C706 C 0.23406 0.26975 0.40365 0.0
C707 C 0.23884 0.27249 0.43563 0.0
C708 C 0.26103 0.25938 0.44978 0.0
C709 C 0.27949 0.24533 0.4317 0.0
C710 C 0.21031 0.28307 0.38765 0.0
C711 C 0.26675 0.26186 0.48379 0.0
H712 H 0.24004 0.38117 0.46548 0.0
H713 H 0.13835 0.27648 0.48014 0.0
H714 H 0.30031 0.34205 0.45405 0.0
H715 H 0.28437 0.35295 0.41973 0.0
H716 H 0.29678 0.38402 0.45192 0.0
H717 H 0.13699 0.21813 0.4765 0.0
H718 H 0.15456 0.22091 0.4385 0.0
H719 H 0.1798 0.21701 0.47011 0.0
H720 H 0.25004 0.2548 0.36166 0.0
H721 H 0.29759 0.23656 0.44242 0.0
H722 H 0.2231 0.31388 0.39052 0.0
H723 H 0.18186 0.26975 0.39787 0.0
H724 H 0.20747 0.27664 0.36292 0.0
H725 H 0.28496 0.29165 0.49044 0.0
H726 H 0.28019 0.24567 0.49162 0.0
H727 H 0.23962 0.25134 0.49583 0.0
C728 C 0.85452 0.16453 0.62494 0.0
C729 C 0.83017 0.17725 0.61552 0.0
C730 C 0.8918 0.18209 0.6146 0.0
C731 C 0.90468 0.21266 0.59417 0.0
C732 C 0.88113 0.22739 0.58657 0.0
C733 C 0.8443 0.2097 0.59755 0.0
C734 C 0.91652 0.16635 0.62393 0.0
C735 C 0.89381 0.26009 0.56493 0.0
C736 C 0.00499 0.27669 0.56931 0.0
C737 C 0.00481 0.26219 0.54034 0.0
C738 C 0.97343 0.25915 0.58832 0.0
C739 C 0.94084 0.22679 0.57783 0.0
C740 C 0.94139 0.21071 0.54945 0.0
C741 C 0.97352 0.22848 0.53113 0.0
C742 C 0.97425 0.27657 0.61875 0.0
C743 C 0.90712 0.17621 0.53743 0.0
H744 H 0.844 0.13971 0.6391 0.0
H745 H 0.82592 0.22014 0.59051 0.0
H746 H 0.91851 0.1497 0.6049 0.0
H747 H 0.94536 0.18927 0.62909 0.0
H748 H 0.90519 0.14778 0.64415 0.0
H749 H 0.87308 0.26982 0.56311 0.0
H750 H 0.92101 0.28403 0.57242 0.0
H751 H 0.89811 0.25168 0.54194 0.0
H752 H 0.02935 0.30247 0.57677 0.0
H753 H 0.97329 0.21702 0.50886 0.0
H754 H 0.96098 0.25466 0.63656 0.0
H755 H 0.95803 0.29144 0.61732 0.0
H756 H 0.00333 0.2971 0.62592 0.0
H757 H 0.89603 0.15353 0.5547 0.0
H758 H 0.91312 0.16544 0.51622 0.0
H759 H 0.88472 0.18305 0.53258 0.0
C760 C 0.70612 0.87863 0.79693 0.0
C761 C 0.66782 0.86028 0.80423 0.0
C762 C 0.72355 0.91428 0.78328 0.0
C763 C 0.70218 0.93192 0.77721 0.0
C764 C 0.66475 0.91534 0.78783 0.0
C765 C 0.64795 0.87959 0.80108 0.0
C766 C 0.7636 0.93114 0.77252 0.0
C767 C 0.64118 0.93353 0.78244 0.0
C768 C 0.74477 0.03039 0.74423 0.0
C769 C 0.73489 0.02243 0.71345 0.0
C770 C 0.73547 0.00133 0.76532 0.0
C771 C 0.71616 0.96359 0.75525 0.0
C772 C 0.70764 0.95559 0.72397 0.0
C773 C 0.71693 0.98507 0.70352 0.0
C774 C 0.74483 0.01092 0.79848 0.0
C775 C 0.68749 0.91573 0.71217 0.0
H776 H 0.72165 0.86385 0.79933 0.0
H777 H 0.61846 0.8657 0.80711 0.0
H778 H 0.76379 0.92656 0.74765 0.0
H779 H 0.77943 0.96186 0.77659 0.0
H780 H 0.77837 0.91812 0.78398 0.0
H781 H 0.61508 0.9203 0.79626 0.0
H782 H 0.65729 0.96393 0.78785 0.0
H783 H 0.63323 0.93077 0.75806 0.0
H784 H 0.75856 0.05923 0.75208 0.0
H785 H 0.70953 0.97876 0.67973 0.0
H786 H 0.75774 0.99512 0.80818 0.0
H787 H 0.71865 0.00262 0.81141 0.0
H788 H 0.76423 0.04143 0.80201 0.0
H789 H 0.70244 0.90082 0.71937 0.0
H790 H 0.68516 0.91447 0.68697 0.0
H791 H 0.65879 0.90036 0.72193 0.0
C792 C 0.30079 0.71643 0.07081 0.0
C793 C 0.26794 0.7178 0.07618 0.0
C794 C 0.30087 0.68248 0.07248 0.0
C795 C 0.26714 0.64907 0.07942 0.0
C796 C 0.23368 0.65013 0.08437 0.0
C797 C 0.23447 0.6846 0.08262 0.0
C798 C 0.33712 0.68242 0.06706 0.0
C799 C 0.19714 0.61492 0.09143 0.0
C800 C 0.26514 0.55974 0.05538 0.0
C801 C 0.27373 0.54822 0.08273 0.0
C802 C 0.26131 0.59169 0.05426 0.0
C803 C 0.26707 0.61303 0.08102 0.0
C804 C 0.2755 0.60137 0.10878 0.0
C805 C 0.27891 0.56909 0.10925 0.0
C806 C 0.25251 0.60338 0.02422 0.0
C807 C 0.28206 0.62363 0.1377 0.0
H808 H 0.32672 0.74213 0.06588 0.0
H809 H 0.20883 0.68547 0.08597 0.0
H810 H 0.34432 0.6713 0.08738 0.0
H811 H 0.3338 0.66367 0.04771 0.0
H812 H 0.36092 0.71091 0.06203 0.0
H813 H 0.1737 0.62062 0.09497 0.0
H814 H 0.18963 0.59449 0.07253 0.0
H815 H 0.20025 0.6014 0.11221 0.0
H816 H 0.26268 0.5445 0.03459 0.0
H817 H 0.28605 0.56035 0.13028 0.0
H818 H 0.27699 0.63015 0.01661 0.0
H819 H 0.22851 0.60836 0.02677 0.0
H820 H 0.24565 0.58196 0.00619 0.0
H821 H 0.30738 0.65174 0.13513 0.0
H822 H 0.28603 0.6095 0.15772 0.0
H823 H 0.25802 0.62809 0.14221 0.0
C824 C 0.71566 0.30131 0.25821 0.0
C825 C 0.7225 0.27138 0.25491 0.0
C826 C 0.67894 0.29503 0.25932 0.0
C827 C 0.64839 0.25785 0.25746 0.0
C828 C 0.65514 0.2274 0.25503 0.0
C829 C 0.69223 0.23454 0.25381 0.0
C830 C 0.67285 0.32827 0.26186 0.0
C831 C 0.62322 0.18738 0.25344 0.0
C832 C 0.5558 0.24611 0.28484 0.0
C833 C 0.53938 0.24781 0.2574 0.0
C834 C 0.59053 0.24743 0.28513 0.0
C835 C 0.60949 0.25124 0.25734 0.0
C836 C 0.59257 0.25191 0.22951 0.0
C837 C 0.55771 0.25027 0.2299 0.0
C838 C 0.60774 0.24668 0.31525 0.0
C839 C 0.61202 0.25606 0.19942 0.0
H840 H 0.73909 0.32981 0.25914 0.0
H841 H 0.6975 0.21129 0.25221 0.0
H842 H 0.6574 0.32947 0.2416 0.0
H843 H 0.65542 0.32516 0.28211 0.0
H844 H 0.69965 0.35531 0.26368 0.0
H845 H 0.63325 0.16682 0.25242 0.0
H846 H 0.60474 0.18096 0.27359 0.0
H847 H 0.60585 0.1836 0.23302 0.0
H848 H 0.54256 0.24565 0.30624 0.0
H849 H 0.54514 0.25179 0.20867 0.0
H850 H 0.63242 0.2747 0.31986 0.0
H851 H 0.61781 0.22618 0.31459 0.0
H852 H 0.58761 0.23928 0.3344 0.0
H853 H 0.63784 0.28399 0.1983 0.0
H854 H 0.59388 0.25335 0.17976 0.0
H855 H 0.62069 0.23458 0.19726 0.0
C856 C 0.42595 0.70603 0.42245 0.0
C857 C 0.45357 0.71215 0.40089 0.0
C858 C 0.39301 0.67121 0.42468 0.0
C859 C 0.38818 0.64144 0.40555 0.0
C860 C 0.41661 0.64682 0.38471 0.0
C861 C 0.44845 0.68246 0.38194 0.0
C862 C 0.36266 0.66689 0.44646 0.0
C863 C 0.41284 0.61532 0.36458 0.0
C864 C 0.30981 0.54642 0.43049 0.0
C865 C 0.28084 0.54101 0.41061 0.0
C866 C 0.34574 0.57782 0.42774 0.0
C867 C 0.35214 0.60561 0.4059 0.0
C868 C 0.32311 0.60045 0.38579 0.0
C869 C 0.288 0.56789 0.38808 0.0
C870 C 0.37642 0.58191 0.44896 0.0
C871 C 0.32852 0.63015 0.36289 0.0
H872 H 0.42949 0.72894 0.43693 0.0
H873 H 0.4683 0.68715 0.36401 0.0
H874 H 0.33677 0.65989 0.43359 0.0
H875 H 0.35559 0.64345 0.46246 0.0
H876 H 0.37103 0.6928 0.45989 0.0
H877 H 0.43967 0.6225 0.35309 0.0
H878 H 0.40345 0.58933 0.3781 0.0
H879 H 0.39133 0.6091 0.34688 0.0
H880 H 0.30432 0.52722 0.44913 0.0
H881 H 0.26565 0.56413 0.37286 0.0
H882 H 0.38232 0.60406 0.46602 0.0
H883 H 0.40276 0.5906 0.43613 0.0
H884 H 0.36859 0.55537 0.46125 0.0
H885 H 0.33527 0.65654 0.37493 0.0
H886 H 0.30317 0.62152 0.34869 0.0
H887 H 0.35247 0.63652 0.34767 0.0
C888 C 0.66755 0.40249 0.58306 0.0
C889 C 0.70023 0.43766 0.5818 0.0
C890 C 0.6693 0.36935 0.58158 0.0
C891 C 0.70468 0.37154 0.57933 0.0
C892 C 0.73785 0.40704 0.57866 0.0
C893 C 0.73521 0.43976 0.57981 0.0
C894 C 0.63327 0.33201 0.58205 0.0
C895 C 0.77607 0.41039 0.57682 0.0
C896 C 0.70671 0.28385 0.60281 0.0
C897 C 0.70563 0.26747 0.57457 0.0
C898 C 0.70778 0.31842 0.60467 0.0
C899 C 0.70675 0.33655 0.57764 0.0
C900 C 0.70564 0.32018 0.54904 0.0
C901 C 0.70512 0.28583 0.54787 0.0
C902 C 0.70896 0.33502 0.63559 0.0
C903 C 0.70405 0.33849 0.51974 0.0
H904 H 0.64047 0.4009 0.58454 0.0
H905 H 0.76053 0.46698 0.57954 0.0
H906 H 0.63105 0.31601 0.56107 0.0
H907 H 0.63327 0.31498 0.60162 0.0
H908 H 0.60807 0.33523 0.58372 0.0
H909 H 0.79913 0.44009 0.57681 0.0
H910 H 0.78008 0.39571 0.59638 0.0
H911 H 0.77818 0.39659 0.55581 0.0
H912 H 0.70538 0.26916 0.62358 0.0
H913 H 0.70397 0.27311 0.52598 0.0
H914 H 0.68246 0.33525 0.63964 0.0
H915 H 0.73219 0.36455 0.63659 0.0
H916 H 0.71277 0.31899 0.65424 0.0
H917 H 0.67802 0.34028 0.51913 0.0
H918 H 0.70461 0.32279 0.49935 0.0
H919 H 0.72806 0.3676 0.51845 0.0
C920 C 0.28684 0.72784 0.77696 0.0
C921 C 0.27946 0.74607 0.75328 0.0
C922 C 0.32184 0.73012 0.77956 0.0
C923 C 0.35049 0.75203 0.75842 0.0
C924 C 0.34402 0.77233 0.73559 0.0
C925 C 0.30824 0.76822 0.73273 0.0
C926 C 0.32731 0.7071 0.80367 0.0
C927 C 0.37425 0.79679 0.71316 0.0
C928 C 0.44713 0.76872 0.77882 0.0
C929 C 0.44941 0.7418 0.7607 0.0
C930 C 0.41595 0.77387 0.77711 0.0
C931 C 0.38552 0.75013 0.75811 0.0
C932 C 0.38756 0.72286 0.73983 0.0
C933 C 0.41969 0.71942 0.74105 0.0
C934 C 0.41511 0.80393 0.79629 0.0
C935 C 0.3552 0.69628 0.71987 0.0
H936 H 0.26464 0.71041 0.79275 0.0
H937 H 0.3026 0.78086 0.71338 0.0
H938 H 0.33139 0.68511 0.79262 0.0
H939 H 0.35283 0.725 0.81723 0.0
H940 H 0.30295 0.69323 0.81937 0.0
H941 H 0.36691 0.81557 0.70042 0.0
H942 H 0.40136 0.81426 0.72503 0.0
H943 H 0.3784 0.77888 0.69654 0.0
H944 H 0.46884 0.78487 0.79525 0.0
H945 H 0.42109 0.69835 0.72715 0.0
H946 H 0.39445 0.79074 0.81497 0.0
H947 H 0.4061 0.82057 0.7824 0.0
H948 H 0.44292 0.8233 0.80647 0.0
H949 H 0.32979 0.6797 0.73401 0.0
H950 H 0.36128 0.67651 0.70721 0.0
H951 H 0.3485 0.7123 0.70319 0.0
C952 C 0.69728 0.43456 0.94043 0.0
C953 C 0.71412 0.45196 0.91286 0.0
C954 C 0.66279 0.40093 0.9409 0.0
C955 C 0.64523 0.38387 0.9131 0.0
C956 C 0.66185 0.4015 0.8852 0.0
C957 C 0.69611 0.43535 0.88543 0.0
C958 C 0.64589 0.38294 0.97112 0.0
C959 C 0.6441 0.38395 0.85508 0.0
C960 C 0.58193 0.27825 0.91233 0.0
C961 C 0.54628 0.27471 0.91149 0.0
C962 C 0.61436 0.31367 0.91288 0.0
C963 C 0.61094 0.34627 0.91311 0.0
C964 C 0.57494 0.34285 0.91296 0.0
C965 C 0.54294 0.307 0.91208 0.0
C966 C 0.65228 0.31619 0.91276 0.0
C967 C 0.57029 0.37702 0.91373 0.0
H968 H 0.71163 0.44621 0.96168 0.0
H969 H 0.70913 0.44861 0.86405 0.0
H970 H 0.61601 0.37553 0.9722 0.0
H971 H 0.64672 0.35652 0.97364 0.0
H972 H 0.66106 0.40159 0.99062 0.0
H973 H 0.6596 0.4022 0.83548 0.0
H974 H 0.64336 0.35673 0.85244 0.0
H975 H 0.61468 0.37801 0.85433 0.0
H976 H 0.58447 0.25324 0.91188 0.0
H977 H 0.51533 0.30422 0.91221 0.0
H978 H 0.6686 0.33184 0.93306 0.0
H979 H 0.66844 0.33194 0.89241 0.0
H980 H 0.65002 0.2881 0.91265 0.0
H981 H 0.58433 0.39416 0.93417 0.0
H982 H 0.54033 0.3695 0.91405 0.0
H983 H 0.58397 0.39488 0.89355 0.0
C984 C 0.31144 0.27752 0.23101 0.0
C985 C 0.34583 0.27833 0.23338 0.0
C986 C 0.30267 0.29138 0.20499 0.0
C987 C 0.32912 0.30679 0.18103 0.0
C988 C 0.36391 0.30784 0.18335 0.0
C989 C 0.37176 0.2934 0.20941 0.0
C990 C 0.26507 0.28942 0.20308 0.0
C991 C 0.39295 0.32442 0.15838 0.0
C992 C 0.29493 0.31239 0.10221 0.0
C993 C 0.30294 0.34979 0.10121 0.0
C994 C 0.30322 0.298 0.1281 0.0
C995 C 0.32037 0.32172 0.15342 0.0
C996 C 0.32924 0.35969 0.15236 0.0
C997 C 0.32019 0.37323 0.12632 0.0
C998 C 0.29307 0.25725 0.12854 0.0
C999 C 0.34807 0.38594 0.1788 0.0
H1000 H 0.29124 0.26581 0.24938 0.0
H1001 H 0.39852 0.29437 0.21113 0.0
H1002 H 0.26914 0.31806 0.2005 0.0
H1003 H 0.24962 0.2731 0.1827 0.0
H1004 H 0.24747 0.27617 0.22352 0.0
H1005 H 0.41884 0.32351 0.1639 0.0
H1006 H 0.38121 0.30892 0.13682 0.0
H1007 H 0.40065 0.35405 0.15431 0.0
H1008 H 0.28136 0.29401 0.08299 0.0
H1009 H 0.32658 0.4022 0.12566 0.0
H1010 H 0.27341 0.24248 0.14756 0.0
H1011 H 0.31854 0.25506 0.13251 0.0
H1012 H 0.27979 0.24255 0.10696 0.0
H1013 H 0.33002 0.37532 0.19931 0.0
H1014 H 0.35389 0.41491 0.17406 0.0
H1015 H 0.37493 0.38703 0.18427 0.0
C1016 C 0.02577 0.31536 0.39851 0.0
C1017 C 0.05748 0.35114 0.40134 0.0
C1018 C 0.00446 0.30466 0.37162 0.0
C1019 C 0.01487 0.33056 0.34726 0.0
C1020 C 0.04662 0.3668 0.35015 0.0
C1021 C 0.06761 0.37656 0.37705 0.0
C1022 C 0.97088 0.26566 0.3692 0.0
C1023 C 0.05826 0.39543 0.32491 0.0
C1024 C 0.97914 0.29662 0.26712 0.0
C1025 C 0.94878 0.30307 0.26541 0.0
C1026 C 0.00067 0.30495 0.29381 0.0
C1027 C 0.99183 0.32047 0.31913 0.0
C1028 C 0.96158 0.32753 0.31733 0.0
C1029 C 0.94038 0.31863 0.29058 0.0
C1030 C 0.03266 0.2969 0.29502 0.0
C1031 C 0.95163 0.34459 0.34367 0.0
H1032 H 0.01797 0.29552 0.4171 0.0
H1033 H 0.09197 0.40437 0.3791 0.0
H1034 H 0.94504 0.26736 0.36581 0.0
H1035 H 0.9739 0.25103 0.3491 0.0
H1036 H 0.9672 0.24849 0.38979 0.0
H1037 H 0.0839 0.4223 0.33069 0.0
H1038 H 0.06363 0.38418 0.30374 0.0
H1039 H 0.03523 0.40131 0.32001 0.0
H1040 H 0.9856 0.28435 0.24786 0.0
H1041 H 0.91707 0.32389 0.28943 0.0
H1042 H 0.02837 0.27756 0.31416 0.0
H1043 H 0.05942 0.32325 0.2993 0.0
H1044 H 0.03544 0.28411 0.27361 0.0
H1045 H 0.94502 0.32653 0.3641 0.0
H1046 H 0.9272 0.34826 0.33858 0.0
H1047 H 0.97595 0.37239 0.34948 0.0
C1048 C 0.61903 0.92382 0.43554 0.0
C1049 C 0.64495 0.93431 0.41157 0.0
C1050 C 0.62745 0.94556 0.46197 0.0
C1051 C 0.6628 0.97853 0.4647 0.0
C1052 C 0.68913 0.98945 0.44062 0.0
C1053 C 0.6798 0.96728 0.41421 0.0
C1054 C 0.59846 0.93322 0.48699 0.0
C1055 C 0.7272 0.02437 0.44288 0.0
C1056 C 0.67096 0.05194 0.52124 0.0
C1057 C 0.68702 0.0444 0.54649 0.0
C1058 C 0.66314 0.03085 0.49443 0.0
C1059 C 0.67186 0.00169 0.49271 0.0
C1060 C 0.68803 0.99385 0.51808 0.0
C1061 C 0.69523 0.01517 0.54475 0.0
C1062 C 0.64539 0.03969 0.468 0.0
C1063 C 0.69786 0.96304 0.51698 0.0
H1064 H 0.59191 0.8985 0.43365 0.0
H1065 H 0.70002 0.97547 0.39587 0.0
H1066 H 0.6099 0.9285 0.50833 0.0
H1067 H 0.59154 0.95562 0.49164 0.0
H1068 H 0.57216 0.907 0.48117 0.0
H1069 H 0.74458 0.02882 0.42226 0.0
H1070 H 0.72394 0.04934 0.44621 0.0
H1071 H 0.74246 0.02242 0.46297 0.0
H1072 H 0.66444 0.07441 0.52238 0.0
H1073 H 0.70791 0.00935 0.56406 0.0
H1074 H 0.61809 0.01465 0.46223 0.0
H1075 H 0.66358 0.04679 0.44759 0.0
H1076 H 0.64058 0.06346 0.47295 0.0
H1077 H 0.6722 0.9356 0.51284 0.0
H1078 H 0.71113 0.96111 0.53839 0.0
H1079 H 0.71737 0.96801 0.49781 0.0
C1080 C 0.65923 0.61783 0.6195 0.0
C1081 C 0.67896 0.6415 0.5951 0.0
C1082 C 0.64922 0.63148 0.64491 0.0
C1083 C 0.65952 0.66984 0.64607 0.0
C1084 C 0.67828 0.69363 0.62109 0.0
C1085 C 0.68762 0.67911 0.59577 0.0
C1086 C 0.62879 0.60514 0.67096 0.0
C1087 C 0.68986 0.73474 0.62165 0.0
C1088 C 0.61248 0.69917 0.70578 0.0
C1089 C 0.63893 0.71151 0.72941 0.0
C1090 C 0.61897 0.68598 0.67829 0.0
C1091 C 0.65282 0.68542 0.67431 0.0
C1092 C 0.6799 0.69844 0.69784 0.0
C1093 C 0.67256 0.71117 0.72515 0.0
C1094 C 0.58937 0.67202 0.65375 0.0
C1095 C 0.71647 0.6985 0.69431 0.0
H1096 H 0.65209 0.58863 0.619 0.0
H1097 H 0.7029 0.69757 0.57701 0.0
H1098 H 0.64713 0.61379 0.69134 0.0
H1099 H 0.60333 0.60655 0.67704 0.0
H1100 H 0.62031 0.57556 0.6655 0.0
H1101 H 0.70179 0.74879 0.59956 0.0
H1102 H 0.6655 0.73824 0.62732 0.0
H1103 H 0.71125 0.74923 0.63964 0.0
H1104 H 0.58639 0.69929 0.70889 0.0
H1105 H 0.69327 0.7209 0.74318 0.0
H1106 H 0.57899 0.64183 0.64931 0.0
H1107 H 0.60159 0.68728 0.63218 0.0
H1108 H 0.56512 0.67552 0.66002 0.0
H1109 H 0.71082 0.66933 0.69126 0.0
H1110 H 0.73521 0.71099 0.71428 0.0
H1111 H 0.73149 0.71452 0.67368 0.0
C1112 C 0.02163 0.71508 0.75532 0.0
C1113 C 0.05307 0.7103 0.75448 0.0
C1114 C -0.0018 0.70432 0.78103 0.0
C1115 C 0.00617 0.6879 0.80617 0.0
C1116 C 0.03751 0.68247 0.8052 0.0
C1117 C 0.06069 0.69396 0.77948 0.0
C1118 C 0.96522 0.71087 0.78146 0.0
C1119 C 0.04658 0.6645 0.83135 0.0
C1120 C 0.96856 0.68807 0.88505 0.0
C1121 C 0.93776 0.65155 0.88688 0.0
C1122 C 0.99048 0.70067 0.85855 0.0
C1123 C 0.98167 0.67596 0.83351 0.0
C1124 C 0.95054 0.63915 0.83518 0.0
C1125 C 0.92883 0.62747 0.86177 0.0
C1126 C 0.02326 0.74028 0.85742 0.0
C1127 C 0.94062 0.61182 0.80913 0.0
H1128 H 0.01573 0.72789 0.73614 0.0
H1129 H 0.08479 0.68991 0.77891 0.0
H1130 H 0.93877 0.68385 0.78463 0.0
H1131 H 0.96779 0.72916 0.80096 0.0
H1132 H 0.96303 0.72422 0.76017 0.0
H1133 H 0.07166 0.66173 0.82676 0.0
H1134 H 0.05174 0.68144 0.8523 0.0
H1135 H 0.02237 0.63617 0.83598 0.0
H1136 H 0.97543 0.70693 0.90426 0.0
H1137 H 0.90512 0.59917 0.86301 0.0
H1138 H 0.02086 0.75515 0.83725 0.0
H1139 H 0.04982 0.73969 0.85505 0.0
H1140 H 0.02511 0.7566 0.87815 0.0
H1141 H 0.93624 0.62392 0.78803 0.0
H1142 H 0.91489 0.58453 0.81374 0.0
H1143 H 0.96416 0.60654 0.80476 0.0
C1144 C 0.28036 0.97043 0.06069 0.0
C1145 C 0.28611 0.93955 0.06094 0.0
C1146 C 0.29005 0.99397 0.03514 0.0
C1147 C 0.30634 0.9867 0.00952 0.0
C1148 C 0.3124 0.95572 0.00973 0.0
C1149 C 0.302 0.93241 0.03535 0.0
C1150 C 0.28283 0.02655 0.03552 0.0
C1151 C 0.33022 0.94739 0.98301 0.0
C1152 C 0.30568 0.02649 0.93176 0.0
C1153 C 0.3421 0.0575 0.93023 0.0
C1154 C 0.29326 0.00372 0.9578 0.0
C1155 C 0.31803 0.01194 0.98267 0.0
C1156 C 0.35469 0.04334 0.98135 0.0
C1157 C 0.3662 0.06584 0.95522 0.0
C1158 C 0.25383 0.97063 0.95859 0.0
C1159 C 0.38204 0.05271 0.00728 0.0
H1160 H 0.26786 0.97594 0.08031 0.0
H1161 H 0.30674 0.90872 0.03541 0.0
H1162 H 0.30967 0.05334 0.03298 0.0
H1163 H 0.26479 0.0244 0.01599 0.0
H1164 H 0.26899 0.02774 0.05688 0.0
H1165 H 0.33293 0.92213 0.9868 0.0
H1166 H 0.31326 0.94293 0.96219 0.0
H1167 H 0.35854 0.97172 0.97863 0.0
H1168 H 0.28681 0.02003 0.91264 0.0
H1169 H 0.39443 0.0897 0.95423 0.0
H1170 H 0.23886 0.97224 0.97904 0.0
H1171 H 0.25471 0.94415 0.9602 0.0
H1172 H 0.23744 0.96925 0.93806 0.0
H1173 H 0.36987 0.05637 0.02865 0.0
H1174 H 0.40921 0.0787 0.00297 0.0
H1175 H 0.38755 0.02918 0.01095 0.0
C1176 C 0.38457 0.47886 0.93199 0.0
C1177 C 0.37546 0.48559 0.96118 0.0
C1178 C 0.41623 0.50646 0.91641 0.0
C1179 C 0.43723 0.54308 0.92898 0.0
C1180 C 0.42803 0.54997 0.95847 0.0
C1181 C 0.39896 0.52055 0.97475 0.0
C1182 C 0.42617 0.4958 0.88638 0.0
C1183 C 0.44784 0.58835 0.97315 0.0
C1184 C 0.53145 0.62532 0.90419 0.0
C1185 C 0.52141 0.63869 0.87857 0.0
C1186 C 0.5051 0.59252 0.91934 0.0
C1187 C 0.46673 0.5747 0.91072 0.0
C1188 C 0.4563 0.5887 0.88534 0.0
C1189 C 0.48402 0.6188 0.86866 0.0
C1190 C 0.51911 0.57779 0.94457 0.0
C1191 C 0.41595 0.57272 0.87547 0.0
H1192 H 0.36694 0.45215 0.92097 0.0
H1193 H 0.39424 0.5256 0.99804 0.0
H1194 H 0.40503 0.49221 0.86905 0.0
H1195 H 0.45454 0.51668 0.87812 0.0
H1196 H 0.42484 0.46823 0.88856 0.0
H1197 H 0.42852 0.59225 0.98845 0.0
H1198 H 0.47119 0.59081 0.9874 0.0
H1199 H 0.45928 0.61144 0.95623 0.0
H1200 H 0.5599 0.64029 0.91268 0.0
H1201 H 0.47582 0.62672 0.84789 0.0
H1202 H 0.49836 0.54882 0.95169 0.0
H1203 H 0.52683 0.5968 0.9645 0.0
H1204 H 0.54508 0.57807 0.93716 0.0
H1205 H 0.40926 0.55102 0.85781 0.0
H1206 H 0.4115 0.59484 0.86509 0.0
H1207 H 0.39589 0.55999 0.89461 0.0
C1208 C 0.8476 0.48833 0.04741 0.0
C1209 C 0.88015 0.51649 0.03356 0.0
C1210 C 0.84846 0.46017 0.06472 0.0
C1211 C 0.88273 0.46025 0.06808 0.0
C1212 C 0.91576 0.48879 0.05415 0.0
C1213 C 0.91403 0.51662 0.03692 0.0
C1214 C 0.81267 0.43024 0.07927 0.0
C1215 C 0.95275 0.48969 0.0572 0.0
C1216 C 0.88904 0.40575 0.1351 0.0
C1217 C 0.88072 0.37173 0.12135 0.0
C1218 C 0.89058 0.43517 0.1179 0.0
C1219 C 0.8838 0.43035 0.08621 0.0
C1220 C 0.87639 0.39633 0.0721 0.0
C1221 C 0.87494 0.36733 0.08992 0.0
C1222 C 0.89862 0.47105 0.13372 0.0
C1223 C 0.86909 0.39024 0.03835 0.0
H1224 H 0.82142 0.48835 0.04458 0.0
H1225 H 0.939 0.53813 0.02564 0.0
H1226 H 0.80593 0.40215 0.07073 0.0
H1227 H 0.81637 0.43021 0.10426 0.0
H1228 H 0.78844 0.43438 0.07456 0.0
H1229 H 0.97593 0.51412 0.04532 0.0
H1230 H 0.96024 0.49088 0.08158 0.0
H1231 H 0.95032 0.46356 0.04767 0.0
H1232 H 0.89398 0.40914 0.15943 0.0
H1233 H 0.8685 0.34089 0.07944 0.0
H1234 H 0.87411 0.47526 0.13145 0.0
H1235 H 0.92287 0.49544 0.12284 0.0
H1236 H 0.90479 0.47084 0.1583 0.0
H1237 H 0.84327 0.39106 0.03251 0.0
H1238 H 0.86562 0.36291 0.0307 0.0
H1239 H 0.89255 0.4131 0.02545 0.0
C1240 C 0.49236 0.84078 0.24755 0.0
C1241 C 0.5201 0.87005 0.2648 0.0
C1242 C 0.4637 0.84451 0.23367 0.0
C1243 C 0.4631 0.8785 0.23697 0.0
C1244 C 0.49197 0.90869 0.25346 0.0
C1245 C 0.52014 0.90404 0.2673 0.0
C1246 C 0.43347 0.81169 0.21622 0.0
C1247 C 0.49248 0.94544 0.25723 0.0
C1248 C 0.40201 0.8926 0.18003 0.0
C1249 C 0.3687 0.87978 0.19654 0.0
C1250 C 0.4336 0.89385 0.19331 0.0
C1251 C 0.4316 0.88184 0.22377 0.0
C1252 C 0.39845 0.87054 0.24095 0.0
C1253 C 0.36734 0.8698 0.22709 0.0
C1254 C 0.4685 0.90647 0.17436 0.0
C1255 C 0.39526 0.85755 0.27349 0.0
H1256 H 0.49263 0.81462 0.24558 0.0
H1257 H 0.54158 0.92655 0.28087 0.0
H1258 H 0.40584 0.80209 0.2272 0.0
H1259 H 0.43163 0.82038 0.19269 0.0
H1260 H 0.43861 0.78762 0.2151 0.0
H1261 H 0.51818 0.96691 0.26903 0.0
H1262 H 0.49071 0.95661 0.2347 0.0
H1263 H 0.46764 0.94088 0.27057 0.0
H1264 H 0.4029 0.90056 0.1564 0.0
H1265 H 0.34143 0.85993 0.23971 0.0
H1266 H 0.47291 0.88232 0.1702 0.0
H1267 H 0.49351 0.92811 0.1867 0.0
H1268 H 0.46667 0.91812 0.15204 0.0
H1269 H 0.39672 0.83132 0.27423 0.0
H1270 H 0.36857 0.8521 0.28429 0.0
H1271 H 0.41904 0.87888 0.28714 0.0
C1272 C 0.49672 0.3855 0.35683 0.0
C1273 C 0.47196 0.35412 0.37401 0.0
C1274 C 0.52521 0.41768 0.37096 0.0
C1275 C 0.52875 0.41834 0.403 0.0
C1276 C 0.50261 0.38728 0.42052 0.0
C1277 C 0.47434 0.35545 0.40574 0.0
C1278 C 0.55237 0.45033 0.35156 0.0
C1279 C 0.50547 0.38704 0.45475 0.0
C1280 C 0.62462 0.47773 0.43841 0.0
C1281 C 0.62181 0.50789 0.45006 0.0
C1282 C 0.59476 0.44879 0.4224 0.0
C1283 C 0.56139 0.45022 0.41804 0.0
C1284 C 0.5589 0.48131 0.42898 0.0
C1285 C 0.58923 0.50983 0.44504 0.0
C1286 C 0.5985 0.41613 0.41102 0.0
C1287 C 0.52381 0.4838 0.42463 0.0
H1288 H 0.49427 0.38446 0.33224 0.0
H1289 H 0.45491 0.33109 0.41887 0.0
H1290 H 0.55464 0.47684 0.35996 0.0
H1291 H 0.58071 0.45343 0.35314 0.0
H1292 H 0.54387 0.4466 0.32726 0.0
H1293 H 0.48144 0.36185 0.46511 0.0
H1294 H 0.5318 0.38757 0.46124 0.0
H1295 H 0.50668 0.4125 0.46453 0.0
H1296 H 0.64991 0.47638 0.44255 0.0
H1297 H 0.58701 0.53297 0.45458 0.0
H1298 H 0.59273 0.4122 0.38624 0.0
H1299 H 0.5775 0.38993 0.42248 0.0
H1300 H 0.62688 0.42009 0.41525 0.0
H1301 H 0.51566 0.48006 0.40028 0.0
H1302 H 0.52741 0.51108 0.43257 0.0
H1303 H 0.50028 0.46088 0.43743 0.0
C1304 C 0.15755 0.51242 0.5627 0.0
C1305 C 0.12615 0.48428 0.54758 0.0
C1306 C 0.15623 0.54224 0.57702 0.0
C1307 C 0.12241 0.54345 0.57666 0.0
C1308 C 0.09012 0.51415 0.5625 0.0
C1309 C 0.09245 0.48496 0.54794 0.0
C1310 C 0.1913 0.57297 0.5918 0.0
C1311 C 0.0534 0.51412 0.56211 0.0
C1312 C 0.11471 0.60677 0.63557 0.0
C1313 C 0.12409 0.63896 0.6184 0.0
C1314 C 0.1129 0.575 0.62207 0.0
C1315 C 0.12117 0.57574 0.59074 0.0
C1316 C 0.12989 0.60802 0.57316 0.0
C1317 C 0.13101 0.63927 0.58724 0.0
C1318 C 0.10298 0.54099 0.64148 0.0
C1319 C 0.1392 0.60998 0.53976 0.0
H1320 H 0.18346 0.51152 0.56263 0.0
H1321 H 0.06822 0.46318 0.53609 0.0
H1322 H 0.19962 0.60022 0.58061 0.0
H1323 H 0.18585 0.57583 0.6161 0.0
H1324 H 0.21517 0.56758 0.59039 0.0
H1325 H 0.0304 0.48818 0.55171 0.0
H1326 H 0.04512 0.51676 0.58561 0.0
H1327 H 0.0567 0.53868 0.54906 0.0
H1328 H 0.10912 0.60665 0.65969 0.0
H1329 H 0.13841 0.66437 0.57413 0.0
H1330 H 0.12727 0.53631 0.64271 0.0
H1331 H 0.07939 0.51555 0.63108 0.0
H1332 H 0.09496 0.54407 0.665 0.0
H1333 H 0.16474 0.60762 0.53675 0.0
H1334 H 0.14416 0.63659 0.52912 0.0
H1335 H 0.11605 0.58609 0.52745 0.0
C1336 C 0.62064 0.13867 0.70932 0.0
C1337 C 0.61761 0.10577 0.69728 0.0
C1338 C 0.5918 0.13754 0.72707 0.0
C1339 C 0.55914 0.10259 0.7328 0.0
C1340 C 0.55621 0.06914 0.72104 0.0
C1341 C 0.58556 0.07116 0.70328 0.0
C1342 C 0.59603 0.17382 0.73928 0.0
C1343 C 0.52181 0.03142 0.72668 0.0
C1344 C 0.50047 0.10155 0.79971 0.0
C1345 C 0.47356 0.10751 0.78525 0.0
C1346 C 0.52779 0.09856 0.78283 0.0
C1347 C 0.52796 0.10143 0.75074 0.0
C1348 C 0.49977 0.10582 0.73598 0.0
C1349 C 0.4728 0.10877 0.75348 0.0
C1350 C 0.55726 0.09373 0.79938 0.0
C1351 C 0.49898 0.10888 0.70179 0.0
H1352 H 0.64552 0.1654 0.70451 0.0
H1353 H 0.58309 0.04582 0.69345 0.0
H1354 H 0.57341 0.17824 0.73009 0.0
H1355 H 0.59316 0.17234 0.76441 0.0
H1356 H 0.62354 0.1985 0.73325 0.0
H1357 H 0.52459 0.00796 0.71696 0.0
H1358 H 0.51648 0.02665 0.75147 0.0
H1359 H 0.49688 0.03084 0.71646 0.0
H1360 H 0.50053 0.09995 0.82433 0.0
H1361 H 0.45187 0.11333 0.7424 0.0
H1362 H 0.58518 0.11907 0.79604 0.0
H1363 H 0.55879 0.0695 0.78994 0.0
H1364 H 0.55159 0.08931 0.82419 0.0
H1365 H 0.52425 0.13495 0.69409 0.0
H1366 H 0.47367 0.10944 0.69375 0.0
H1367 H 0.49973 0.08494 0.69084 0.0
loop_
_geom_bond_atom_site_label_1
_geom_bond_atom_site_label_2
_geom_bond_distance
_geom_bond_site_symmetry_2
_ccdc_geom_bond_type
Co0 O3 1.970 . S
Co0 N17 1.989 1_554 S
Co0 O25 1.967 . S
Co0 O32 1.920 1_554 S
Co1 O4 1.966 . S
Co1 N10 2.022 . S
Co1 N18 1.993 . S
Co1 O26 1.941 . S
C2 O3 1.258 . S
C2 O4 1.263 . S
O3 Co0 1.970 . S
O3 C2 1.258 . S
O4 Co1 1.966 . S
O4 C2 1.263 . S
C5 O6 1.235 . S
C5 O32 1.289 . S
O6 C5 1.235 . S
C7 C9 1.400 . S
C7 N10 1.351 . S
C7 C12 1.501 . S
C8 C9 1.387 . S
C8 N11 1.341 . S
C9 C7 1.400 . S
C9 C8 1.387 . S
N10 Co1 2.022 . S
N10 C7 1.351 . S
N10 N11 1.365 . S
N11 C8 1.341 . S
N11 N10 1.365 . S
N11 H31 0.862 . S
C12 C7 1.501 . S
C12 H13 0.961 . S
C12 H14 0.961 . S
C12 H15 0.960 . S
H13 C12 0.961 . S
H14 C12 0.961 . S
H15 C12 0.960 . S
C16 N17 1.342 . S
C16 C20 1.401 . S
C16 C21 1.499 . S
N17 Co0 1.989 1_556 S
N17 C16 1.342 . S
N17 N18 1.388 1_556 S
N18 Co1 1.993 . S
N18 N17 1.388 1_554 S
N18 C19 1.346 1_554 S
C19 N18 1.346 1_556 S
C19 C20 1.396 . S
C19 C29 1.510 . S
C20 C16 1.401 . S
C20 C19 1.396 . S
C21 C16 1.499 . S
C21 H22 0.959 . S
C21 H23 0.960 . S
C21 H24 0.961 . S
H22 C21 0.959 . S
H23 C21 0.960 . S
H24 C21 0.961 . S
O25 Co0 1.967 . S
O25 C33 1.258 . S
O26 Co1 1.941 . S
O26 C33 1.266 . S
H27 C29 0.961 . S
H28 C29 0.961 . S
C29 C19 1.510 . S
C29 H27 0.961 . S
C29 H28 0.961 . S
C29 H30 0.960 1_556 S
H30 C29 0.960 1_554 S
H31 N11 0.862 . S
O32 Co0 1.920 1_556 S
O32 C5 1.289 . S
C33 O25 1.258 . S
C33 O26 1.266 . S
Co34 O37 1.970 . S
Co34 N51 1.989 . S
Co34 O59 1.967 . S
Co34 O66 1.920 . S
Co35 O38 1.966 . S
Co35 N44 2.022 . S
Co35 N52 1.993 . S
Co35 O60 1.941 . S
C36 O37 1.258 . S
C36 O38 1.263 . S
O37 Co34 1.970 . S
O37 C36 1.258 . S
O38 Co35 1.966 . S
O38 C36 1.263 . S
C39 O40 1.235 . S
C39 O66 1.289 . S
O40 C39 1.235 . S
C41 C43 1.400 . S
C41 N44 1.351 . S
C41 C46 1.501 . S
C42 C43 1.387 . S
C42 N45 1.341 . S
C43 C41 1.400 . S
C43 C42 1.387 . S
N44 Co35 2.022 . S
N44 C41 1.351 . S
N44 N45 1.365 . S
N45 C42 1.341 . S
N45 N44 1.365 . S
N45 H65 0.862 . S
C46 C41 1.501 . S
C46 H47 0.961 . S
C46 H48 0.961 . S
C46 H49 0.960 . S
H47 C46 0.961 . S
H48 C46 0.961 . S
H49 C46 0.960 . S
C50 N51 1.342 . S
C50 C54 1.401 . S
C50 C55 1.499 . S
N51 Co34 1.989 . S
N51 C50 1.342 . S
N51 N52 1.388 . S
N52 Co35 1.993 . S
N52 N51 1.388 . S
N52 C53 1.346 . S
C53 N52 1.346 . S
C53 C54 1.396 . S
C53 C63 1.510 . S
C54 C50 1.401 . S
C54 C53 1.396 . S
C55 C50 1.499 . S
C55 H56 0.959 . S
C55 H57 0.960 . S
C55 H58 0.961 . S
H56 C55 0.959 . S
H57 C55 0.960 . S
H58 C55 0.961 . S
O59 Co34 1.967 . S
O59 C67 1.258 . S
O60 Co35 1.941 . S
O60 C67 1.266 . S
H61 C63 0.959 . S
H62 C63 0.961 . S
C63 C53 1.510 . S
C63 H61 0.959 . S
C63 H62 0.961 . S
C63 H64 0.960 . S
H64 C63 0.960 . S
H65 N45 0.862 . S
O66 Co34 1.920 . S
O66 C39 1.289 . S
C67 O59 1.258 . S
C67 O60 1.266 . S
Co68 O71 1.970 . S
Co68 N85 1.989 . S
Co68 O93 1.967 . S
Co68 O100 1.920 . S
Co69 O72 1.966 . S
Co69 N78 2.022 . S
Co69 N86 1.993 . S
Co69 O94 1.941 . S
C70 O71 1.258 . S
C70 O72 1.263 . S
O71 Co68 1.970 . S
O71 C70 1.258 . S
O72 Co69 1.966 . S
O72 C70 1.263 . S
C73 O74 1.235 . S
C73 O100 1.289 . S
O74 C73 1.235 . S
C75 C77 1.400 . S
C75 N78 1.351 . S
C75 C80 1.501 . S
C76 C77 1.387 . S
C76 N79 1.341 . S
C77 C75 1.400 . S
C77 C76 1.387 . S
N78 Co69 2.022 . S
N78 C75 1.351 . S
N78 N79 1.365 . S
N79 C76 1.341 . S
N79 N78 1.365 . S
N79 H99 0.862 . S
C80 C75 1.501 . S
C80 H81 0.961 . S
C80 H82 0.961 . S
C80 H83 0.960 . S
H81 C80 0.961 . S
H82 C80 0.961 . S
H83 C80 0.960 . S
C84 N85 1.342 . S
C84 C88 1.401 . S
C84 C89 1.499 . S
N85 Co68 1.989 . S
N85 C84 1.342 . S
N85 N86 1.388 . S
N86 Co69 1.993 . S
N86 N85 1.388 . S
N86 C87 1.346 . S
C87 N86 1.346 . S
C87 C88 1.396 . S
C87 C97 1.510 . S
C88 C84 1.401 . S
C88 C87 1.396 . S
C89 C84 1.499 . S
C89 H90 0.959 . S
C89 H91 0.960 . S
C89 H92 0.961 . S
H90 C89 0.959 . S
H91 C89 0.960 . S
H92 C89 0.961 . S
O93 Co68 1.967 . S
O93 C101 1.258 . S
O94 Co69 1.941 . S
O94 C101 1.266 . S
H95 C97 0.959 . S
H96 C97 0.961 . S
C97 C87 1.510 . S
C97 H95 0.959 . S
C97 H96 0.961 . S
C97 H98 0.960 . S
H98 C97 0.960 . S
H99 N79 0.862 . S
O100 Co68 1.920 . S
O100 C73 1.289 . S
C101 O93 1.258 . S
C101 O94 1.266 . S
Co102 O105 1.970 . S
Co102 N119 1.989 . S
Co102 O127 1.967 . S
Co102 O134 1.920 . S
Co103 O106 1.966 . S
Co103 N112 2.022 . S
Co103 N120 1.993 . S
Co103 O128 1.941 . S
C104 O105 1.258 . S
C104 O106 1.263 . S
O105 Co102 1.970 . S
O105 C104 1.258 . S
O106 Co103 1.966 . S
O106 C104 1.263 . S
C107 O108 1.235 . S
C107 O134 1.289 . S
O108 C107 1.235 . S
C109 C111 1.400 . S
C109 N112 1.351 . S
C109 C114 1.501 . S
C110 C111 1.387 . S
C110 N113 1.341 . S
C111 C109 1.400 . S
C111 C110 1.387 . S
N112 Co103 2.022 . S
N112 C109 1.351 . S
N112 N113 1.365 . S
N113 C110 1.341 . S
N113 N112 1.365 . S
N113 H133 0.862 . S
C114 C109 1.501 . S
C114 H115 0.961 . S
C114 H116 0.961 . S
C114 H117 0.960 . S
H115 C114 0.961 . S
H116 C114 0.961 . S
H117 C114 0.960 . S
C118 N119 1.342 . S
C118 C122 1.401 . S
C118 C123 1.499 . S
N119 Co102 1.989 . S
N119 C118 1.342 . S
N119 N120 1.388 . S
N120 Co103 1.993 . S
N120 N119 1.388 . S
N120 C121 1.346 . S
C121 N120 1.346 . S
C121 C122 1.396 . S
C121 C131 1.510 . S
C122 C118 1.401 . S
C122 C121 1.396 . S
C123 C118 1.499 . S
C123 H124 0.959 . S
C123 H125 0.960 . S
C123 H126 0.961 . S
H124 C123 0.959 . S
H125 C123 0.960 . S
H126 C123 0.961 . S
O127 Co102 1.967 . S
O127 C135 1.258 . S
O128 Co103 1.941 . S
O128 C135 1.266 . S
H129 C131 0.959 . S
H130 C131 0.961 . S
C131 C121 1.510 . S
C131 H129 0.959 . S
C131 H130 0.961 . S
C131 H132 0.960 . S
H132 C131 0.960 . S
H133 N113 0.862 . S
O134 Co102 1.920 . S
O134 C107 1.289 . S
C135 O127 1.258 . S
C135 O128 1.266 . S
Co136 O139 1.970 . S
Co136 N153 1.989 . S
Co136 O161 1.967 . S
Co136 O168 1.920 . S
Co137 O140 1.966 . S
Co137 N146 2.022 . S
Co137 N154 1.993 . S
Co137 O162 1.941 . S
C138 O139 1.258 . S
C138 O140 1.263 . S
O139 Co136 1.970 . S
O139 C138 1.258 . S
O140 Co137 1.966 . S
O140 C138 1.263 . S
C141 O142 1.235 . S
C141 O168 1.289 . S
O142 C141 1.235 . S
C143 C145 1.400 . S
C143 N146 1.351 . S
C143 C148 1.501 . S
C144 C145 1.387 . S
C144 N147 1.341 . S
C145 C143 1.400 . S
C145 C144 1.387 . S
N146 Co137 2.022 . S
N146 C143 1.351 . S
N146 N147 1.365 . S
N147 C144 1.341 . S
N147 N146 1.365 . S
N147 H167 0.862 . S
C148 C143 1.501 . S
C148 H149 0.961 . S
C148 H150 0.961 . S
C148 H151 0.960 . S
H149 C148 0.961 . S
H150 C148 0.961 . S
H151 C148 0.960 . S
C152 N153 1.342 . S
C152 C156 1.401 . S
C152 C157 1.499 . S
N153 Co136 1.989 . S
N153 C152 1.342 . S
N153 N154 1.388 . S
N154 Co137 1.993 . S
N154 N153 1.388 . S
N154 C155 1.346 . S
C155 N154 1.346 . S
C155 C156 1.396 . S
C155 C165 1.510 . S
C156 C152 1.401 . S
C156 C155 1.396 . S
C157 C152 1.499 . S
C157 H158 0.959 . S
C157 H159 0.960 . S
C157 H160 0.961 . S
H158 C157 0.959 . S
H159 C157 0.960 . S
H160 C157 0.961 . S
O161 Co136 1.967 . S
O161 C169 1.258 . S
O162 Co137 1.941 . S
O162 C169 1.266 . S
H163 C165 0.959 . S
H164 C165 0.961 . S
C165 C155 1.510 . S
C165 H163 0.959 . S
C165 H164 0.961 . S
C165 H166 0.960 . S
H166 C165 0.960 . S
H167 N147 0.862 . S
O168 Co136 1.920 . S
O168 C141 1.289 . S
C169 O161 1.258 . S
C169 O162 1.266 . S
Co170 O173 1.970 . S
Co170 N187 1.989 . S
Co170 O195 1.967 . S
Co170 O202 1.920 . S
Co171 O174 1.966 . S
Co171 N180 2.022 . S
Co171 N188 1.993 . S
Co171 O196 1.941 . S
C172 O173 1.258 . S
C172 O174 1.263 . S
O173 Co170 1.970 . S
O173 C172 1.258 . S
O174 Co171 1.966 . S
O174 C172 1.263 . S
C175 O176 1.235 . S
C175 O202 1.289 . S
O176 C175 1.235 . S
C177 C179 1.400 . S
C177 N180 1.351 . S
C177 C182 1.501 . S
C178 C179 1.387 . S
C178 N181 1.341 . S
C179 C177 1.400 . S
C179 C178 1.387 . S
N180 Co171 2.022 . S
N180 C177 1.351 . S
N180 N181 1.365 . S
N181 C178 1.341 . S
N181 N180 1.365 . S
N181 H201 0.862 . S
C182 C177 1.501 . S
C182 H183 0.961 . S
C182 H184 0.961 . S
C182 H185 0.960 . S
H183 C182 0.961 . S
H184 C182 0.961 . S
H185 C182 0.960 . S
C186 N187 1.342 . S
C186 C190 1.401 . S
C186 C191 1.499 . S
N187 Co170 1.989 . S
N187 C186 1.342 . S
N187 N188 1.388 . S
N188 Co171 1.993 . S
N188 N187 1.388 . S
N188 C189 1.346 . S
C189 N188 1.346 . S
C189 C190 1.396 . S
C189 C199 1.510 . S
C190 C186 1.401 . S
C190 C189 1.396 . S
C191 C186 1.499 . S
C191 H192 0.959 . S
C191 H193 0.960 . S
C191 H194 0.961 . S
H192 C191 0.959 . S
H193 C191 0.960 . S
H194 C191 0.961 . S
O195 Co170 1.967 . S
O195 C203 1.258 . S
O196 Co171 1.941 . S
O196 C203 1.266 . S
H197 C199 0.959 . S
H198 C199 0.961 . S
C199 C189 1.510 . S
C199 H197 0.959 . S
C199 H198 0.961 . S
C199 H200 0.960 . S
H200 C199 0.960 . S
H201 N181 0.862 . S
O202 Co170 1.920 . S
O202 C175 1.289 . S
C203 O195 1.258 . S
C203 O196 1.266 . S
Co204 O207 1.970 . S
Co204 N221 1.989 . S
Co204 O229 1.967 . S
Co204 O236 1.920 . S
Co205 O208 1.966 . S
Co205 N214 2.022 . S
Co205 N222 1.993 . S
Co205 O230 1.941 . S
C206 O207 1.258 . S
C206 O208 1.263 . S
O207 Co204 1.970 . S
O207 C206 1.258 . S
O208 Co205 1.966 . S
O208 C206 1.263 . S
C209 O210 1.235 . S
C209 O236 1.289 . S
O210 C209 1.235 . S
C211 C213 1.400 . S
C211 N214 1.351 . S
C211 C216 1.501 . S
C212 C213 1.387 . S
C212 N215 1.341 . S
C213 C211 1.400 . S
C213 C212 1.387 . S
N214 Co205 2.022 . S
N214 C211 1.351 . S
N214 N215 1.365 . S
N215 C212 1.341 . S
N215 N214 1.365 . S
N215 H235 0.862 . S
C216 C211 1.501 . S
C216 H217 0.961 . S
C216 H218 0.961 . S
C216 H219 0.960 . S
H217 C216 0.961 . S
H218 C216 0.961 . S
H219 C216 0.960 . S
C220 N221 1.342 . S
C220 C224 1.401 . S
C220 C225 1.499 . S
N221 Co204 1.989 . S
N221 C220 1.342 . S
N221 N222 1.388 . S
N222 Co205 1.993 . S
N222 N221 1.388 . S
N222 C223 1.346 . S
C223 N222 1.346 . S
C223 C224 1.396 . S
C223 C233 1.510 . S
C224 C220 1.401 . S
C224 C223 1.396 . S
C225 C220 1.499 . S
C225 H226 0.959 . S
C225 H227 0.960 . S
C225 H228 0.961 . S
H226 C225 0.959 . S
H227 C225 0.960 . S
H228 C225 0.961 . S
O229 Co204 1.967 . S
O229 C237 1.258 . S
O230 Co205 1.941 . S
O230 C237 1.266 . S
H231 C233 0.959 . S
H232 C233 0.961 . S
C233 C223 1.510 . S
C233 H231 0.959 . S
C233 H232 0.961 . S
C233 H234 0.960 . S
H234 C233 0.960 . S
H235 N215 0.862 . S
O236 Co204 1.920 . S
O236 C209 1.289 . S
C237 O229 1.258 . S
C237 O230 1.266 . S
Co238 O241 1.970 . S
Co238 N255 1.989 1_556 S
Co238 O263 1.967 . S
Co238 O270 1.920 1_556 S
Co239 O242 1.966 . S
Co239 N248 2.022 . S
Co239 N256 1.993 . S
Co239 O264 1.941 . S
C240 O241 1.258 . S
C240 O242 1.263 . S
O241 Co238 1.970 . S
O241 C240 1.258 . S
O242 Co239 1.966 . S
O242 C240 1.263 . S
C243 O244 1.235 . S
C243 O270 1.289 . S
O244 C243 1.235 . S
C245 C247 1.400 . S
C245 N248 1.351 . S
C245 C250 1.501 . S
C246 C247 1.387 . S
C246 N249 1.341 . S
C247 C245 1.400 . S
C247 C246 1.387 . S
N248 Co239 2.022 . S
N248 C245 1.351 . S
N248 N249 1.365 . S
N249 C246 1.341 . S
N249 N248 1.365 . S
N249 H269 0.862 . S
C250 C245 1.501 . S
C250 H251 0.961 . S
C250 H252 0.961 . S
C250 H253 0.960 . S
H251 C250 0.961 . S
H252 C250 0.961 . S
H253 C250 0.960 . S
C254 N255 1.342 . S
C254 C258 1.401 . S
C254 C259 1.499 . S
N255 Co238 1.989 1_554 S
N255 C254 1.342 . S
N255 N256 1.388 1_554 S
N256 Co239 1.993 . S
N256 N255 1.388 1_556 S
N256 C257 1.346 1_556 S
C257 N256 1.346 1_554 S
C257 C258 1.396 . S
C257 C267 1.510 1_554 S
C258 C254 1.401 . S
C258 C257 1.396 . S
C259 C254 1.499 . S
C259 H260 0.959 . S
C259 H261 0.960 . S
C259 H262 0.961 . S
H260 C259 0.959 . S
H261 C259 0.960 . S
H262 C259 0.961 . S
O263 Co238 1.967 . S
O263 C271 1.258 . S
O264 Co239 1.941 . S
O264 C271 1.266 . S
H265 C267 0.959 . S
H266 C267 0.961 1_554 S
C267 C257 1.510 1_556 S
C267 H265 0.959 . S
C267 H266 0.961 1_556 S
C267 H268 0.960 . S
H268 C267 0.960 . S
H269 N249 0.862 . S
O270 Co238 1.920 1_554 S
O270 C243 1.289 . S
C271 O263 1.258 . S
C271 O264 1.266 . S
Co272 O275 1.970 . S
Co272 N289 1.989 . S
Co272 O297 1.967 . S
Co272 O304 1.920 . S
Co273 O276 1.966 . S
Co273 N282 2.022 . S
Co273 N290 1.993 . S
Co273 O298 1.941 . S
C274 O275 1.258 . S
C274 O276 1.263 . S
O275 Co272 1.970 . S
O275 C274 1.258 . S
O276 Co273 1.966 . S
O276 C274 1.263 . S
C277 O278 1.235 . S
C277 O304 1.289 . S
O278 C277 1.235 . S
C279 C281 1.400 . S
C279 N282 1.351 . S
C279 C284 1.501 . S
C280 C281 1.387 . S
C280 N283 1.341 . S
C281 C279 1.400 . S
C281 C280 1.387 . S
N282 Co273 2.022 . S
N282 C279 1.351 . S
N282 N283 1.365 . S
N283 C280 1.341 . S
N283 N282 1.365 . S
N283 H303 0.862 . S
C284 C279 1.501 . S
C284 H285 0.961 . S
C284 H286 0.961 . S
C284 H287 0.960 . S
H285 C284 0.961 . S
H286 C284 0.961 . S
H287 C284 0.960 . S
C288 N289 1.342 . S
C288 C292 1.401 . S
C288 C293 1.499 . S
N289 Co272 1.989 . S
N289 C288 1.342 . S
N289 N290 1.388 . S
N290 Co273 1.993 . S
N290 N289 1.388 . S
N290 C291 1.346 . S
C291 N290 1.346 . S
C291 C292 1.396 . S
C291 C301 1.510 . S
C292 C288 1.401 . S
C292 C291 1.396 . S
C293 C288 1.499 . S
C293 H294 0.959 . S
C293 H295 0.960 . S
C293 H296 0.961 . S
H294 C293 0.959 . S
H295 C293 0.960 . S
H296 C293 0.961 . S
O297 Co272 1.967 . S
O297 C305 1.258 . S
O298 Co273 1.941 . S
O298 C305 1.266 . S
H299 C301 0.959 . S
H300 C301 0.961 . S
C301 C291 1.510 . S
C301 H299 0.959 . S
C301 H300 0.961 . S
C301 H302 0.960 . S
H302 C301 0.960 . S
H303 N283 0.862 . S
O304 Co272 1.920 . S
O304 C277 1.289 . S
C305 O297 1.258 . S
C305 O298 1.266 . S
Co306 O309 1.970 . S
Co306 N323 1.989 . S
Co306 O331 1.967 . S
Co306 O338 1.920 . S
Co307 O310 1.966 . S
Co307 N316 2.022 . S
Co307 N324 1.993 . S
Co307 O332 1.941 . S
C308 O309 1.258 . S
C308 O310 1.263 . S
O309 Co306 1.970 . S
O309 C308 1.258 . S
O310 Co307 1.966 . S
O310 C308 1.263 . S
C311 O312 1.235 . S
C311 O338 1.289 . S
O312 C311 1.235 . S
C313 C315 1.400 . S
C313 N316 1.351 . S
C313 C318 1.501 . S
C314 C315 1.387 . S
C314 N317 1.341 . S
C315 C313 1.400 . S
C315 C314 1.387 . S
N316 Co307 2.022 . S
N316 C313 1.351 . S
N316 N317 1.365 . S
N317 C314 1.341 . S
N317 N316 1.365 . S
N317 H337 0.862 . S
C318 C313 1.501 . S
C318 H319 0.961 . S
C318 H320 0.961 . S
C318 H321 0.960 . S
H319 C318 0.961 . S
H320 C318 0.961 . S
H321 C318 0.960 . S
C322 N323 1.342 . S
C322 C326 1.401 . S
C322 C327 1.499 . S
N323 Co306 1.989 . S
N323 C322 1.342 . S
N323 N324 1.388 . S
N324 Co307 1.993 . S
N324 N323 1.388 . S
N324 C325 1.346 . S
C325 N324 1.346 . S
C325 C326 1.396 . S
C325 C335 1.510 . S
C326 C322 1.401 . S
C326 C325 1.396 . S
C327 C322 1.499 . S
C327 H328 0.959 . S
C327 H329 0.960 . S
C327 H330 0.961 . S
H328 C327 0.959 . S
H329 C327 0.960 . S
H330 C327 0.961 . S
O331 Co306 1.967 . S
O331 C339 1.258 . S
O332 Co307 1.941 . S
O332 C339 1.266 . S
H333 C335 0.959 . S
H334 C335 0.961 . S
C335 C325 1.510 . S
C335 H333 0.959 . S
C335 H334 0.961 . S
C335 H336 0.960 . S
H336 C335 0.960 . S
H337 N317 0.862 . S
O338 Co306 1.920 . S
O338 C311 1.289 . S
C339 O331 1.258 . S
C339 O332 1.266 . S
Co340 O343 1.970 . S
Co340 N357 1.989 . S
Co340 O365 1.967 . S
Co340 O372 1.920 . S
Co341 O344 1.966 . S
Co341 N350 2.022 . S
Co341 N358 1.993 . S
Co341 O366 1.941 . S
C342 O343 1.258 . S
C342 O344 1.263 . S
O343 Co340 1.970 . S
O343 C342 1.258 . S
O344 Co341 1.966 . S
O344 C342 1.263 . S
C345 O346 1.235 . S
C345 O372 1.289 . S
O346 C345 1.235 . S
C347 C349 1.400 . S
C347 N350 1.351 . S
C347 C352 1.501 . S
C348 C349 1.387 . S
C348 N351 1.341 . S
C349 C347 1.400 . S
C349 C348 1.387 . S
N350 Co341 2.022 . S
N350 C347 1.351 . S
N350 N351 1.365 . S
N351 C348 1.341 . S
N351 N350 1.365 . S
N351 H371 0.862 . S
C352 C347 1.501 . S
C352 H353 0.961 . S
C352 H354 0.961 . S
C352 H355 0.960 . S
H353 C352 0.961 . S
H354 C352 0.961 . S
H355 C352 0.960 . S
C356 N357 1.342 . S
C356 C360 1.401 . S
C356 C361 1.499 . S
N357 Co340 1.989 . S
N357 C356 1.342 . S
N357 N358 1.388 . S
N358 Co341 1.993 . S
N358 N357 1.388 . S
N358 C359 1.346 . S
C359 N358 1.346 . S
C359 C360 1.396 . S
C359 C369 1.510 . S
C360 C356 1.401 . S
C360 C359 1.396 . S
C361 C356 1.499 . S
C361 H362 0.959 . S
C361 H363 0.960 . S
C361 H364 0.961 . S
H362 C361 0.959 . S
H363 C361 0.960 . S
H364 C361 0.961 . S
O365 Co340 1.967 . S
O365 C373 1.258 . S
O366 Co341 1.941 . S
O366 C373 1.266 . S
H367 C369 0.959 . S
H368 C369 0.961 . S
C369 C359 1.510 . S
C369 H367 0.959 . S
C369 H368 0.961 . S
C369 H370 0.960 . S
H370 C369 0.960 . S
H371 N351 0.862 . S
O372 Co340 1.920 . S
O372 C345 1.289 . S
C373 O365 1.258 . S
C373 O366 1.266 . S
Co374 O377 1.970 . S
Co374 N391 1.989 . S
Co374 O399 1.967 . S
Co374 O406 1.920 . S
Co375 O378 1.966 . S
Co375 N384 2.022 . S
Co375 N392 1.993 . S
Co375 O400 1.941 . S
C376 O377 1.258 . S
C376 O378 1.263 . S
O377 Co374 1.970 . S
O377 C376 1.258 . S
O378 Co375 1.966 . S
O378 C376 1.263 . S
C379 O380 1.235 . S
C379 O406 1.289 . S
O380 C379 1.235 . S
C381 C383 1.400 . S
C381 N384 1.351 . S
C381 C386 1.501 . S
C382 C383 1.387 . S
C382 N385 1.341 . S
C383 C381 1.400 . S
C383 C382 1.387 . S
N384 Co375 2.022 . S
N384 C381 1.351 . S
N384 N385 1.365 . S
N385 C382 1.341 . S
N385 N384 1.365 . S
N385 H405 0.862 . S
C386 C381 1.501 . S
C386 H387 0.961 . S
C386 H388 0.961 . S
C386 H389 0.960 . S
H387 C386 0.961 . S
H388 C386 0.961 . S
H389 C386 0.960 . S
C390 N391 1.342 . S
C390 C394 1.401 . S
C390 C395 1.499 . S
N391 Co374 1.989 . S
N391 C390 1.342 . S
N391 N392 1.388 . S
N392 Co375 1.993 . S
N392 N391 1.388 . S
N392 C393 1.346 . S
C393 N392 1.346 . S
C393 C394 1.396 . S
C393 C403 1.510 . S
C394 C390 1.401 . S
C394 C393 1.396 . S
C395 C390 1.499 . S
C395 H396 0.959 . S
C395 H397 0.960 . S
C395 H398 0.961 . S
H396 C395 0.959 . S
H397 C395 0.960 . S
H398 C395 0.961 . S
O399 Co374 1.967 . S
O399 C407 1.258 . S
O400 Co375 1.941 . S
O400 C407 1.266 . S
H401 C403 0.959 . S
H402 C403 0.961 . S
C403 C393 1.510 . S
C403 H401 0.959 . S
C403 H402 0.961 . S
C403 H404 0.960 . S
H404 C403 0.960 . S
H405 N385 0.862 . S
O406 Co374 1.920 . S
O406 C379 1.289 . S
C407 O399 1.258 . S
C407 O400 1.266 . S
C408 C409 1.391 . S
C408 C410 1.394 . S
C408 H424 0.931 . S
C409 C408 1.391 . S
C409 C413 1.376 . S
C410 C408 1.394 . S
C410 C411 1.369 . S
C410 C414 1.531 . S
C411 C410 1.369 . S
C411 C412 1.410 . S
C411 C419 1.503 . S
C412 C411 1.410 . S
C412 C413 1.392 . S
C412 C415 1.511 . S
C413 C409 1.376 . S
C413 C412 1.392 . S
C413 H425 0.929 . S
C414 C410 1.531 . S
C414 H426 0.960 . S
C414 H427 0.962 . S
C414 H428 0.960 . S
C415 C412 1.511 . S
C415 H429 0.961 . S
C415 H430 0.961 . S
C415 H431 0.961 . S
C416 C417 1.370 . S
C416 C418 1.363 . S
C416 H432 0.931 . S
C417 C416 1.370 . S
C417 C421 1.408 . S
C418 C416 1.363 . S
C418 C419 1.370 . S
C418 C422 1.524 . S
C419 C411 1.503 . S
C419 C418 1.370 . S
C419 C420 1.403 . S
C420 C419 1.403 . S
C420 C421 1.404 . S
C420 C423 1.539 . S
C421 C417 1.408 . S
C421 C420 1.404 . S
C421 H433 0.930 . S
C422 C418 1.524 . S
C422 H434 0.956 . S
C422 H435 0.961 . S
C422 H436 0.961 . S
C423 C420 1.539 . S
C423 H437 0.958 . S
C423 H438 0.961 . S
C423 H439 0.960 . S
H424 C408 0.931 . S
H425 C413 0.929 . S
H426 C414 0.960 . S
H427 C414 0.962 . S
H428 C414 0.960 . S
H429 C415 0.961 . S
H430 C415 0.961 . S
H431 C415 0.961 . S
H432 C416 0.931 . S
H433 C421 0.930 . S
H434 C422 0.956 . S
H435 C422 0.961 . S
H436 C422 0.961 . S
H437 C423 0.958 . S
H438 C423 0.961 . S
H439 C423 0.960 . S
C440 C441 1.391 . S
C440 C442 1.394 . S
C440 H456 0.905 1_554 S
C441 C440 1.391 . S
C441 C445 1.376 . S
C442 C440 1.394 . S
C442 C443 1.369 . S
C442 C446 1.531 . S
C443 C442 1.369 . S
C443 C444 1.410 . S
C443 C451 1.503 . S
C444 C443 1.410 . S
C444 C445 1.392 . S
C444 C447 1.511 . S
C445 C441 1.376 . S
C445 C444 1.392 . S
C445 H457 0.929 . S
C446 C442 1.531 . S
C446 H458 0.960 . S
C446 H459 0.962 . S
C446 H460 0.927 1_554 S
C447 C444 1.511 . S
C447 H461 0.961 . S
C447 H462 0.961 . S
C447 H463 0.961 . S
C448 C449 1.370 1_455 S
C448 C450 1.363 . S
C448 H464 0.931 1_455 S
C449 C448 1.370 1_655 S
C449 C453 1.408 . S
C450 C448 1.363 . S
C450 C451 1.370 . S
C450 C454 1.524 . S
C451 C443 1.503 . S
C451 C450 1.370 . S
C451 C452 1.403 . S
C452 C451 1.403 . S
C452 C453 1.404 1_455 S
C452 C455 1.539 . S
C453 C449 1.408 . S
C453 C452 1.404 1_655 S
C453 H465 0.930 . S
C454 C450 1.524 . S
C454 H466 0.956 . S
C454 H467 0.961 . S
C454 H468 0.961 . S
C455 C452 1.539 . S
C455 H469 0.958 . S
C455 H470 0.961 . S
C455 H471 0.960 . S
H456 C440 0.905 1_556 S
H457 C445 0.929 . S
H458 C446 0.960 . S
H459 C446 0.962 . S
H460 C446 0.927 1_556 S
H461 C447 0.961 . S
H462 C447 0.961 . S
H463 C447 0.961 . S
H464 C448 0.931 1_655 S
H465 C453 0.930 . S
H466 C454 0.956 . S
H467 C454 0.961 . S
H468 C454 0.961 . S
H469 C455 0.958 . S
H470 C455 0.961 . S
H471 C455 0.960 . S
C472 C473 1.391 . S
C472 C474 1.394 . S
C472 H488 0.931 . S
C473 C472 1.391 . S
C473 C477 1.376 . S
C474 C472 1.394 . S
C474 C475 1.369 . S
C474 C478 1.531 . S
C475 C474 1.369 . S
C475 C476 1.410 . S
C475 C483 1.503 . S
C476 C475 1.410 . S
C476 C477 1.392 . S
C476 C479 1.511 . S
C477 C473 1.376 . S
C477 C476 1.392 . S
C477 H489 0.929 . S
C478 C474 1.531 . S
C478 H490 0.960 . S
C478 H491 0.962 . S
C478 H492 0.960 . S
C479 C476 1.511 . S
C479 H493 0.961 . S
C479 H494 0.961 . S
C479 H495 0.961 . S
C480 C481 1.370 1_545 S
C480 C482 1.363 . S
C480 H496 0.931 1_545 S
C481 C480 1.370 1_565 S
C481 C485 1.404 . S
C482 C480 1.363 . S
C482 C483 1.370 . S
C482 C486 1.524 . S
C483 C475 1.503 . S
C483 C482 1.370 . S
C483 C484 1.403 . S
C484 C483 1.403 . S
C484 C485 1.379 1_545 S
C484 C487 1.539 . S
C485 C481 1.404 . S
C485 C484 1.379 1_565 S
C485 H497 0.959 . S
C486 C482 1.524 . S
C486 H498 0.956 . S
C486 H499 0.961 . S
C486 H500 0.961 . S
C487 C484 1.539 . S
C487 H501 0.958 . S
C487 H502 0.961 . S
C487 H503 0.960 . S
H488 C472 0.931 . S
H489 C477 0.929 . S
H490 C478 0.960 . S
H491 C478 0.962 . S
H492 C478 0.960 . S
H493 C479 0.961 . S
H494 C479 0.961 . S
H495 C479 0.961 . S
H496 C480 0.931 1_565 S
H497 C485 0.959 . S
H498 C486 0.956 . S
H499 C486 0.961 . S
H500 C486 0.961 . S
H501 C487 0.958 . S
H502 C487 0.961 . S
H503 C487 0.960 . S
C504 C505 1.391 . S
C504 C506 1.394 . S
C504 H520 0.931 . S
C505 C504 1.391 . S
C505 C509 1.376 . S
C506 C504 1.394 . S
C506 C507 1.369 . S
C506 C510 1.531 . S
C507 C506 1.369 . S
C507 C508 1.410 . S
C507 C515 1.503 . S
C508 C507 1.410 . S
C508 C509 1.392 . S
C508 C511 1.511 . S
C509 C505 1.376 . S
C509 C508 1.392 . S
C509 H521 0.929 . S
C510 C506 1.531 . S
C510 H522 0.960 . S
C510 H523 0.962 . S
C510 H524 0.960 . S
C511 C508 1.511 . S
C511 H525 0.961 . S
C511 H526 0.961 . S
C511 H527 0.961 . S
C512 C513 1.370 . S
C512 C514 1.363 . S
C512 H528 0.931 . S
C513 C512 1.370 . S
C513 C517 1.408 . S
C514 C512 1.363 . S
C514 C515 1.370 . S
C514 C518 1.524 . S
C515 C507 1.503 . S
C515 C514 1.370 . S
C515 C516 1.403 . S
C516 C515 1.403 . S
C516 C517 1.404 . S
C516 C519 1.539 . S
C517 C513 1.408 . S
C517 C516 1.404 . S
C517 H529 0.930 . S
C518 C514 1.524 . S
C518 H530 0.956 . S
C518 H531 0.961 . S
C518 H532 0.961 . S
C519 C516 1.539 . S
C519 H533 0.958 . S
C519 H534 0.961 . S
C519 H535 0.960 . S
H520 C504 0.931 . S
H521 C509 0.929 . S
H522 C510 0.960 . S
H523 C510 0.962 . S
H524 C510 0.960 . S
H525 C511 0.961 . S
H526 C511 0.961 . S
H527 C511 0.961 . S
H528 C512 0.931 . S
H529 C517 0.930 . S
H530 C518 0.956 . S
H531 C518 0.961 . S
H532 C518 0.961 . S
H533 C519 0.958 . S
H534 C519 0.961 . S
H535 C519 0.960 . S
C536 C537 1.390 . S
C536 C538 1.385 1_455 S
C536 H552 0.940 . S
C537 C536 1.390 . S
C537 C541 1.376 1_455 S
C538 C536 1.385 1_655 S
C538 C539 1.369 . S
C538 C542 1.531 . S
C539 C538 1.369 . S
C539 C540 1.410 . S
C539 C547 1.503 . S
C540 C539 1.410 . S
C540 C541 1.392 . S
C540 C543 1.511 . S
C541 C537 1.376 1_655 S
C541 C540 1.392 . S
C541 H553 0.929 1_655 S
C542 C538 1.531 . S
C542 H554 0.960 . S
C542 H555 0.962 . S
C542 H556 0.960 . S
C543 C540 1.511 . S
C543 H557 0.961 . S
C543 H558 0.961 . S
C543 H559 0.961 . S
C544 C545 1.370 . S
C544 C546 1.363 . S
C544 H560 0.931 . S
C545 C544 1.370 . S
C545 C549 1.408 . S
C546 C544 1.363 . S
C546 C547 1.370 . S
C546 C550 1.524 . S
C547 C539 1.503 . S
C547 C546 1.370 . S
C547 C548 1.403 . S
C548 C547 1.403 . S
C548 C549 1.404 . S
C548 C551 1.539 . S
C549 C545 1.408 . S
C549 C548 1.404 . S
C549 H561 0.930 . S
C550 C546 1.524 . S
C550 H562 0.956 . S
C550 H563 0.961 . S
C550 H564 0.961 . S
C551 C548 1.539 . S
C551 H565 0.958 . S
C551 H566 0.961 . S
C551 H567 0.960 . S
H552 C536 0.940 . S
H553 C541 0.929 1_455 S
H554 C542 0.960 . S
H555 C542 0.962 . S
H556 C542 0.960 . S
H557 C543 0.961 . S
H558 C543 0.961 . S
H559 C543 0.961 . S
H560 C544 0.931 . S
H561 C549 0.930 . S
H562 C550 0.956 . S
H563 C550 0.961 . S
H564 C550 0.961 . S
H565 C551 0.958 . S
H566 C551 0.961 . S
H567 C551 0.960 . S
C568 C569 1.391 . S
C568 C570 1.394 . S
C568 H584 0.931 . S
C569 C568 1.391 . S
C569 C573 1.376 . S
C570 C568 1.394 . S
C570 C571 1.369 . S
C570 C574 1.531 . S
C571 C570 1.369 . S
C571 C572 1.410 . S
C571 C579 1.503 . S
C572 C571 1.410 . S
C572 C573 1.392 . S
C572 C575 1.511 . S
C573 C569 1.376 . S
C573 C572 1.392 . S
C573 H585 0.929 . S
C574 C570 1.531 . S
C574 H586 0.960 . S
C574 H587 0.962 . S
C574 H588 0.960 . S
C575 C572 1.511 . S
C575 H589 0.961 . S
C575 H590 0.961 . S
C575 H591 0.961 . S
C576 C577 1.370 . S
C576 C578 1.363 1_545 S
C576 H592 0.931 . S
C577 C576 1.370 . S
C577 C581 1.408 1_545 S
C578 C576 1.363 1_565 S
C578 C579 1.370 . S
C578 C582 1.524 . S
C579 C571 1.503 . S
C579 C578 1.370 . S
C579 C580 1.403 . S
C580 C579 1.403 . S
C580 C581 1.404 . S
C580 C583 1.539 . S
C581 C577 1.408 1_565 S
C581 C580 1.404 . S
C581 H593 0.930 . S
C582 C578 1.524 . S
C582 H594 0.956 . S
C582 H595 0.961 . S
C582 H596 0.959 . S
C583 C580 1.539 . S
C583 H597 0.958 . S
C583 H598 0.961 . S
C583 H599 0.960 . S
H584 C568 0.931 . S
H585 C573 0.929 . S
H586 C574 0.960 . S
H587 C574 0.962 . S
H588 C574 0.960 . S
H589 C575 0.961 . S
H590 C575 0.961 . S
H591 C575 0.961 . S
H592 C576 0.931 . S
H593 C581 0.930 . S
H594 C582 0.956 . S
H595 C582 0.961 . S
H596 C582 0.959 . S
H597 C583 0.958 . S
H598 C583 0.961 . S
H599 C583 0.960 . S
C600 C601 1.391 . S
C600 C602 1.394 . S
C600 H616 0.931 . S
C601 C600 1.391 . S
C601 C605 1.376 . S
C602 C600 1.394 . S
C602 C603 1.369 . S
C602 C606 1.531 . S
C603 C602 1.369 . S
C603 C604 1.410 . S
C603 C611 1.503 . S
C604 C603 1.410 . S
C604 C605 1.392 . S
C604 C607 1.511 . S
C605 C601 1.376 . S
C605 C604 1.392 . S
C605 H617 0.929 . S
C606 C602 1.531 . S
C606 H618 0.960 . S
C606 H619 0.962 . S
C606 H620 0.960 . S
C607 C604 1.511 . S
C607 H621 0.961 . S
C607 H622 0.961 . S
C607 H623 0.961 . S
C608 C609 1.370 . S
C608 C610 1.363 . S
C608 H624 0.931 . S
C609 C608 1.370 . S
C609 C613 1.408 . S
C610 C608 1.363 . S
C610 C611 1.370 . S
C610 C614 1.524 . S
C611 C603 1.503 . S
C611 C610 1.370 . S
C611 C612 1.403 . S
C612 C611 1.403 . S
C612 C613 1.404 . S
C612 C615 1.539 . S
C613 C609 1.408 . S
C613 C612 1.404 . S
C613 H625 0.930 . S
C614 C610 1.524 . S
C614 H626 0.956 . S
C614 H627 0.961 . S
C614 H628 0.961 . S
C615 C612 1.539 . S
C615 H629 0.958 . S
C615 H630 0.961 . S
C615 H631 0.960 . S
H616 C600 0.931 . S
H617 C605 0.929 . S
H618 C606 0.960 . S
H619 C606 0.962 . S
H620 C606 0.960 . S
H621 C607 0.961 . S
H622 C607 0.961 . S
H623 C607 0.961 . S
H624 C608 0.931 . S
H625 C613 0.930 . S
H626 C614 0.956 . S
H627 C614 0.961 . S
H628 C614 0.961 . S
H629 C615 0.958 . S
H630 C615 0.961 . S
H631 C615 0.960 . S
C632 C633 1.391 . S
C632 C634 1.394 . S
C632 H648 0.931 . S
C633 C632 1.391 . S
C633 C637 1.376 . S
C634 C632 1.394 . S
C634 C635 1.369 . S
C634 C638 1.531 . S
C635 C634 1.369 . S
C635 C636 1.410 . S
C635 C643 1.503 . S
C636 C635 1.410 . S
C636 C637 1.392 . S
C636 C639 1.511 . S
C637 C633 1.376 . S
C637 C636 1.392 . S
C637 H649 0.929 . S
C638 C634 1.531 . S
C638 H650 0.960 . S
C638 H651 0.962 . S
C638 H652 0.960 . S
C639 C636 1.511 . S
C639 H653 0.961 . S
C639 H654 0.961 . S
C639 H655 0.961 . S
C640 C641 1.370 1_455 S
C640 C642 1.363 . S
C640 H656 0.931 . S
C641 C640 1.370 1_655 S
C641 C645 1.408 . S
C642 C640 1.363 . S
C642 C643 1.370 . S
C642 C646 1.524 . S
C643 C635 1.503 . S
C643 C642 1.370 . S
C643 C644 1.403 . S
C644 C643 1.403 . S
C644 C645 1.404 1_455 S
C644 C647 1.539 . S
C645 C641 1.408 . S
C645 C644 1.404 1_655 S
C645 H657 0.930 . S
C646 C642 1.524 . S
C646 H658 0.956 . S
C646 H659 0.961 . S
C646 H660 0.961 . S
C647 C644 1.539 . S
C647 H661 0.958 . S
C647 H662 0.961 1_455 S
C647 H663 0.960 . S
H648 C632 0.931 . S
H649 C637 0.929 . S
H650 C638 0.960 . S
H651 C638 0.962 . S
H652 C638 0.960 . S
H653 C639 0.961 . S
H654 C639 0.961 . S
H655 C639 0.961 . S
H656 C640 0.931 . S
H657 C645 0.930 . S
H658 C646 0.956 . S
H659 C646 0.961 . S
H660 C646 0.961 . S
H661 C647 0.958 . S
H662 C647 0.961 1_655 S
H663 C647 0.960 . S
C664 C665 1.391 . S
C664 C666 1.394 . S
C664 H680 0.931 . S
C665 C664 1.391 . S
C665 C669 1.376 . S
C666 C664 1.394 . S
C666 C667 1.369 . S
C666 C670 1.531 . S
C667 C666 1.369 . S
C667 C668 1.410 . S
C667 C675 1.503 . S
C668 C667 1.410 . S
C668 C669 1.392 . S
C668 C671 1.511 . S
C669 C665 1.376 . S
C669 C668 1.392 . S
C669 H681 0.929 . S
C670 C666 1.531 . S
C670 H682 0.960 . S
C670 H683 0.962 . S
C670 H684 0.960 . S
C671 C668 1.511 . S
C671 H685 0.961 . S
C671 H686 0.961 . S
C671 H687 0.961 . S
C672 C673 1.370 1_545 S
C672 C674 1.363 . S
C672 H688 0.931 . S
C673 C672 1.370 1_565 S
C673 C677 1.408 . S
C674 C672 1.363 . S
C674 C675 1.370 . S
C674 C678 1.524 . S
C675 C667 1.503 . S
C675 C674 1.370 . S
C675 C676 1.403 . S
C676 C675 1.403 . S
C676 C677 1.404 1_545 S
C676 C679 1.539 . S
C677 C673 1.408 . S
C677 C676 1.404 1_565 S
C677 H689 0.930 . S
C678 C674 1.524 . S
C678 H690 0.956 . S
C678 H691 0.961 . S
C678 H692 0.961 . S
C679 C676 1.539 . S
C679 H693 0.958 . S
C679 H694 0.961 1_545 S
C679 H695 0.960 . S
H680 C664 0.931 . S
H681 C669 0.929 . S
H682 C670 0.960 . S
H683 C670 0.962 . S
H684 C670 0.960 . S
H685 C671 0.961 . S
H686 C671 0.961 . S
H687 C671 0.961 . S
H688 C672 0.931 . S
H689 C677 0.930 . S
H690 C678 0.956 . S
H691 C678 0.961 . S
H692 C678 0.961 . S
H693 C679 0.958 . S
H694 C679 0.961 1_565 S
H695 C679 0.960 . S
C696 C697 1.391 . S
C696 C698 1.394 . S
C696 H712 0.931 . S
C697 C696 1.391 . S
C697 C701 1.376 . S
C698 C696 1.394 . S
C698 C699 1.369 . S
C698 C702 1.531 . S
C699 C698 1.369 . S
C699 C700 1.410 . S
C699 C707 1.503 . S
C700 C699 1.410 . S
C700 C701 1.392 . S
C700 C703 1.511 . S
C701 C697 1.376 . S
C701 C700 1.392 . S
C701 H713 0.929 . S
C702 C698 1.531 . S
C702 H714 0.960 . S
C702 H715 0.962 . S
C702 H716 0.960 . S
C703 C700 1.511 . S
C703 H717 0.961 . S
C703 H718 0.961 . S
C703 H719 0.961 . S
C704 C705 1.370 . S
C704 C706 1.363 . S
C704 H720 0.931 . S
C705 C704 1.370 . S
C705 C709 1.408 . S
C706 C704 1.363 . S
C706 C707 1.370 . S
C706 C710 1.524 . S
C707 C699 1.503 . S
C707 C706 1.370 . S
C707 C708 1.403 . S
C708 C707 1.403 . S
C708 C709 1.404 . S
C708 C711 1.539 . S
C709 C705 1.408 . S
C709 C708 1.404 . S
C709 H721 0.930 . S
C710 C706 1.524 . S
C710 H722 0.956 . S
C710 H723 0.961 . S
C710 H724 0.961 . S
C711 C708 1.539 . S
C711 H725 0.958 . S
C711 H726 0.961 . S
C711 H727 0.960 . S
H712 C696 0.931 . S
H713 C701 0.929 . S
H714 C702 0.960 . S
H715 C702 0.962 . S
H716 C702 0.960 . S
H717 C703 0.961 . S
H718 C703 0.961 . S
H719 C703 0.961 . S
H720 C704 0.931 . S
H721 C709 0.930 . S
H722 C710 0.956 . S
H723 C710 0.961 . S
H724 C710 0.961 . S
H725 C711 0.958 . S
H726 C711 0.961 . S
H727 C711 0.960 . S
C728 C729 1.391 . S
C728 C730 1.394 . S
C728 H744 0.931 . S
C729 C728 1.391 . S
C729 C733 1.376 . S
C730 C728 1.394 . S
C730 C731 1.369 . S
C730 C734 1.531 . S
C731 C730 1.369 . S
C731 C732 1.410 . S
C731 C739 1.503 . S
C732 C731 1.410 . S
C732 C733 1.392 . S
C732 C735 1.511 . S
C733 C729 1.376 . S
C733 C732 1.392 . S
C733 H745 0.929 . S
C734 C730 1.531 . S
C734 H746 0.960 . S
C734 H747 0.962 . S
C734 H748 0.960 . S
C735 C732 1.511 . S
C735 H749 0.961 . S
C735 H750 0.961 . S
C735 H751 0.961 . S
C736 C737 1.370 . S
C736 C738 1.363 1_455 S
C736 H752 0.931 . S
C737 C736 1.370 . S
C737 C741 1.408 1_455 S
C738 C736 1.363 1_655 S
C738 C739 1.370 . S
C738 C742 1.524 . S
C739 C731 1.503 . S
C739 C738 1.370 . S
C739 C740 1.403 . S
C740 C739 1.403 . S
C740 C741 1.404 . S
C740 C743 1.539 . S
C741 C737 1.408 1_655 S
C741 C740 1.404 . S
C741 H753 0.930 1_655 S
C742 C738 1.524 . S
C742 H754 0.956 . S
C742 H755 0.961 . S
C742 H756 0.961 . S
C743 C740 1.539 . S
C743 H757 0.958 . S
C743 H758 0.961 . S
C743 H759 0.960 . S
H744 C728 0.931 . S
H745 C733 0.929 . S
H746 C734 0.960 . S
H747 C734 0.962 . S
H748 C734 0.960 . S
H749 C735 0.961 . S
H750 C735 0.961 . S
H751 C735 0.961 . S
H752 C736 0.931 . S
H753 C741 0.930 1_455 S
H754 C742 0.956 . S
H755 C742 0.961 . S
H756 C742 0.961 . S
H757 C743 0.958 . S
H758 C743 0.961 . S
H759 C743 0.960 . S
C760 C761 1.391 . S
C760 C762 1.394 . S
C760 H776 0.931 . S
C761 C760 1.391 . S
C761 C765 1.376 . S
C762 C760 1.394 . S
C762 C763 1.369 . S
C762 C766 1.531 . S
C763 C762 1.369 . S
C763 C764 1.410 . S
C763 C771 1.503 . S
C764 C763 1.410 . S
C764 C765 1.392 . S
C764 C767 1.511 . S
C765 C761 1.376 . S
C765 C764 1.392 . S
C765 H777 0.929 . S
C766 C762 1.531 . S
C766 H778 0.960 . S
C766 H779 0.962 . S
C766 H780 0.960 . S
C767 C764 1.511 . S
C767 H781 0.961 . S
C767 H782 0.961 . S
C767 H783 0.961 . S
C768 C769 1.370 . S
C768 C770 1.363 1_545 S
C768 H784 0.931 . S
C769 C768 1.370 . S
C769 C773 1.408 1_545 S
C770 C768 1.363 1_565 S
C770 C771 1.370 . S
C770 C774 1.524 . S
C771 C763 1.503 . S
C771 C770 1.370 . S
C771 C772 1.403 . S
C772 C771 1.403 . S
C772 C773 1.404 . S
C772 C775 1.539 . S
C773 C769 1.408 1_565 S
C773 C772 1.404 . S
C773 H785 0.930 1_565 S
C774 C770 1.524 . S
C774 H786 0.956 . S
C774 H787 0.961 . S
C774 H788 0.961 . S
C775 C772 1.539 . S
C775 H789 0.958 . S
C775 H790 0.961 . S
C775 H791 0.960 . S
H776 C760 0.931 . S
H777 C765 0.929 . S
H778 C766 0.960 . S
H779 C766 0.962 . S
H780 C766 0.960 . S
H781 C767 0.961 . S
H782 C767 0.961 . S
H783 C767 0.961 . S
H784 C768 0.931 . S
H785 C773 0.930 1_545 S
H786 C774 0.956 . S
H787 C774 0.961 . S
H788 C774 0.961 . S
H789 C775 0.958 . S
H790 C775 0.961 . S
H791 C775 0.960 . S
C792 C793 1.391 . S
C792 C794 1.394 . S
C792 H808 0.931 . S
C793 C792 1.391 . S
C793 C797 1.376 . S
C794 C792 1.394 . S
C794 C795 1.369 . S
C794 C798 1.531 . S
C795 C794 1.369 . S
C795 C796 1.410 . S
C795 C803 1.503 . S
C796 C795 1.410 . S
C796 C797 1.392 . S
C796 C799 1.511 . S
C797 C793 1.376 . S
C797 C796 1.392 . S
C797 H809 0.929 . S
C798 C794 1.531 . S
C798 H810 0.960 . S
C798 H811 0.962 . S
C798 H812 0.960 . S
C799 C796 1.511 . S
C799 H813 0.961 . S
C799 H814 0.961 . S
C799 H815 0.961 . S
C800 C801 1.370 . S
C800 C802 1.363 . S
C800 H816 0.931 . S
C801 C800 1.370 . S
C801 C805 1.408 . S
C802 C800 1.363 . S
C802 C803 1.370 . S
C802 C806 1.524 . S
C803 C795 1.503 . S
C803 C802 1.370 . S
C803 C804 1.403 . S
C804 C803 1.403 . S
C804 C805 1.404 . S
C804 C807 1.539 . S
C805 C801 1.408 . S
C805 C804 1.404 . S
C805 H817 0.930 . S
C806 C802 1.524 . S
C806 H818 0.956 . S
C806 H819 0.961 . S
C806 H820 0.961 . S
C807 C804 1.539 . S
C807 H821 0.958 . S
C807 H822 0.961 . S
C807 H823 0.960 . S
H808 C792 0.931 . S
H809 C797 0.929 . S
H810 C798 0.960 . S
H811 C798 0.962 . S
H812 C798 0.960 . S
H813 C799 0.961 . S
H814 C799 0.961 . S
H815 C799 0.961 . S
H816 C800 0.931 . S
H817 C805 0.930 . S
H818 C806 0.956 . S
H819 C806 0.961 . S
H820 C806 0.961 . S
H821 C807 0.958 . S
H822 C807 0.961 . S
H823 C807 0.960 . S
C824 C825 1.391 . S
C824 C826 1.394 . S
C824 H840 0.931 . S
C825 C824 1.391 . S
C825 C829 1.376 . S
C826 C824 1.394 . S
C826 C827 1.369 . S
C826 C830 1.531 . S
C827 C826 1.369 . S
C827 C828 1.410 . S
C827 C835 1.503 . S
C828 C827 1.410 . S
C828 C829 1.392 . S
C828 C831 1.511 . S
C829 C825 1.376 . S
C829 C828 1.392 . S
C829 H841 0.929 . S
C830 C826 1.531 . S
C830 H842 0.960 . S
C830 H843 0.962 . S
C830 H844 0.960 . S
C831 C828 1.511 . S
C831 H845 0.961 . S
C831 H846 0.961 . S
C831 H847 0.961 . S
C832 C833 1.370 . S
C832 C834 1.363 . S
C832 H848 0.931 . S
C833 C832 1.370 . S
C833 C837 1.408 . S
C834 C832 1.363 . S
C834 C835 1.370 . S
C834 C838 1.524 . S
C835 C827 1.503 . S
C835 C834 1.370 . S
C835 C836 1.403 . S
C836 C835 1.403 . S
C836 C837 1.404 . S
C836 C839 1.539 . S
C837 C833 1.408 . S
C837 C836 1.404 . S
C837 H849 0.930 . S
C838 C834 1.524 . S
C838 H850 0.956 . S
C838 H851 0.961 . S
C838 H852 0.961 . S
C839 C836 1.539 . S
C839 H853 0.958 . S
C839 H854 0.961 . S
C839 H855 0.960 . S
H840 C824 0.931 . S
H841 C829 0.929 . S
H842 C830 0.960 . S
H843 C830 0.962 . S
H844 C830 0.960 . S
H845 C831 0.961 . S
H846 C831 0.961 . S
H847 C831 0.961 . S
H848 C832 0.931 . S
H849 C837 0.930 . S
H850 C838 0.956 . S
H851 C838 0.961 . S
H852 C838 0.961 . S
H853 C839 0.958 . S
H854 C839 0.961 . S
H855 C839 0.960 . S
C856 C857 1.391 . S
C856 C858 1.394 . S
C856 H872 0.931 . S
C857 C856 1.391 . S
C857 C861 1.376 . S
C858 C856 1.394 . S
C858 C859 1.369 . S
C858 C862 1.531 . S
C859 C858 1.369 . S
C859 C860 1.410 . S
C859 C867 1.503 . S
C860 C859 1.410 . S
C860 C861 1.392 . S
C860 C863 1.511 . S
C861 C857 1.376 . S
C861 C860 1.392 . S
C861 H873 0.929 . S
C862 C858 1.531 . S
C862 H874 0.960 . S
C862 H875 0.962 . S
C862 H876 0.960 . S
C863 C860 1.511 . S
C863 H877 0.961 . S
C863 H878 0.961 . S
C863 H879 0.961 . S
C864 C865 1.370 . S
C864 C866 1.363 . S
C864 H880 0.931 . S
C865 C864 1.370 . S
C865 C869 1.408 . S
C866 C864 1.363 . S
C866 C867 1.370 . S
C866 C870 1.524 . S
C867 C859 1.503 . S
C867 C866 1.370 . S
C867 C868 1.403 . S
C868 C867 1.403 . S
C868 C869 1.404 . S
C868 C871 1.539 . S
C869 C865 1.408 . S
C869 C868 1.404 . S
C869 H881 0.930 . S
C870 C866 1.524 . S
C870 H882 0.956 . S
C870 H883 0.961 . S
C870 H884 0.961 . S
C871 C868 1.539 . S
C871 H885 0.958 . S
C871 H886 0.961 . S
C871 H887 0.960 . S
H872 C856 0.931 . S
H873 C861 0.929 . S
H874 C862 0.960 . S
H875 C862 0.962 . S
H876 C862 0.960 . S
H877 C863 0.961 . S
H878 C863 0.961 . S
H879 C863 0.961 . S
H880 C864 0.931 . S
H881 C869 0.930 . S
H882 C870 0.956 . S
H883 C870 0.961 . S
H884 C870 0.961 . S
H885 C871 0.958 . S
H886 C871 0.961 . S
H887 C871 0.960 . S
C888 C889 1.391 . S
C888 C890 1.394 . S
C888 H904 0.931 . S
C889 C888 1.391 . S
C889 C893 1.376 . S
C890 C888 1.394 . S
C890 C891 1.369 . S
C890 C894 1.531 . S
C891 C890 1.369 . S
C891 C892 1.410 . S
C891 C899 1.503 . S
C892 C891 1.410 . S
C892 C893 1.392 . S
C892 C895 1.511 . S
C893 C889 1.376 . S
C893 C892 1.392 . S
C893 H905 0.929 . S
C894 C890 1.531 . S
C894 H906 0.960 . S
C894 H907 0.962 . S
C894 H908 0.960 . S
C895 C892 1.511 . S
C895 H909 0.961 . S
C895 H910 0.961 . S
C895 H911 0.961 . S
C896 C897 1.370 . S
C896 C898 1.363 . S
C896 H912 0.931 . S
C897 C896 1.370 . S
C897 C901 1.408 . S
C898 C896 1.363 . S
C898 C899 1.370 . S
C898 C902 1.524 . S
C899 C891 1.503 . S
C899 C898 1.370 . S
C899 C900 1.403 . S
C900 C899 1.403 . S
C900 C901 1.404 . S
C900 C903 1.539 . S
C901 C897 1.408 . S
C901 C900 1.404 . S
C901 H913 0.930 . S
C902 C898 1.524 . S
C902 H914 0.956 . S
C902 H915 0.961 . S
C902 H916 0.961 . S
C903 C900 1.539 . S
C903 H917 0.958 . S
C903 H918 0.961 . S
C903 H919 0.960 . S
H904 C888 0.931 . S
H905 C893 0.929 . S
H906 C894 0.960 . S
H907 C894 0.962 . S
H908 C894 0.960 . S
H909 C895 0.961 . S
H910 C895 0.961 . S
H911 C895 0.961 . S
H912 C896 0.931 . S
H913 C901 0.930 . S
H914 C902 0.956 . S
H915 C902 0.961 . S
H916 C902 0.961 . S
H917 C903 0.958 . S
H918 C903 0.961 . S
H919 C903 0.960 . S
C920 C921 1.391 . S
C920 C922 1.394 . S
C920 H936 0.931 . S
C921 C920 1.391 . S
C921 C925 1.376 . S
C922 C920 1.394 . S
C922 C923 1.369 . S
C922 C926 1.531 . S
C923 C922 1.369 . S
C923 C924 1.410 . S
C923 C931 1.503 . S
C924 C923 1.410 . S
C924 C925 1.392 . S
C924 C927 1.511 . S
C925 C921 1.376 . S
C925 C924 1.392 . S
C925 H937 0.929 . S
C926 C922 1.531 . S
C926 H938 0.960 . S
C926 H939 0.962 . S
C926 H940 0.960 . S
C927 C924 1.511 . S
C927 H941 0.961 . S
C927 H942 0.961 . S
C927 H943 0.961 . S
C928 C929 1.370 . S
C928 C930 1.363 . S
C928 H944 0.931 . S
C929 C928 1.370 . S
C929 C933 1.408 . S
C930 C928 1.363 . S
C930 C931 1.370 . S
C930 C934 1.524 . S
C931 C923 1.503 . S
C931 C930 1.370 . S
C931 C932 1.403 . S
C932 C931 1.403 . S
C932 C933 1.404 . S
C932 C935 1.539 . S
C933 C929 1.408 . S
C933 C932 1.404 . S
C933 H945 0.930 . S
C934 C930 1.524 . S
C934 H946 0.956 . S
C934 H947 0.961 . S
C934 H948 0.961 . S
C935 C932 1.539 . S
C935 H949 0.958 . S
C935 H950 0.961 . S
C935 H951 0.960 . S
H936 C920 0.931 . S
H937 C925 0.929 . S
H938 C926 0.960 . S
H939 C926 0.962 . S
H940 C926 0.960 . S
H941 C927 0.961 . S
H942 C927 0.961 . S
H943 C927 0.961 . S
H944 C928 0.931 . S
H945 C933 0.930 . S
H946 C934 0.956 . S
H947 C934 0.961 . S
H948 C934 0.961 . S
H949 C935 0.958 . S
H950 C935 0.961 . S
H951 C935 0.960 . S
C952 C953 1.391 . S
C952 C954 1.394 . S
C952 H968 0.931 . S
C953 C952 1.391 . S
C953 C957 1.376 . S
C954 C952 1.394 . S
C954 C955 1.369 . S
C954 C958 1.531 . S
C955 C954 1.369 . S
C955 C956 1.410 . S
C955 C963 1.503 . S
C956 C955 1.410 . S
C956 C957 1.392 . S
C956 C959 1.511 . S
C957 C953 1.376 . S
C957 C956 1.392 . S
C957 H969 0.929 . S
C958 C954 1.531 . S
C958 H970 0.960 . S
C958 H971 0.962 . S
C958 H972 0.960 . S
C959 C956 1.511 . S
C959 H973 0.961 . S
C959 H974 0.961 . S
C959 H975 0.961 . S
C960 C961 1.370 . S
C960 C962 1.363 . S
C960 H976 0.931 . S
C961 C960 1.370 . S
C961 C965 1.408 . S
C962 C960 1.363 . S
C962 C963 1.370 . S
C962 C966 1.524 . S
C963 C955 1.503 . S
C963 C962 1.370 . S
C963 C964 1.403 . S
C964 C963 1.403 . S
C964 C965 1.404 . S
C964 C967 1.539 . S
C965 C961 1.408 . S
C965 C964 1.404 . S
C965 H977 0.930 . S
C966 C962 1.524 . S
C966 H978 0.956 . S
C966 H979 0.961 . S
C966 H980 0.961 . S
C967 C964 1.539 . S
C967 H981 0.958 . S
C967 H982 0.961 . S
C967 H983 0.960 . S
H968 C952 0.931 . S
H969 C957 0.929 . S
H970 C958 0.960 . S
H971 C958 0.962 . S
H972 C958 0.960 . S
H973 C959 0.961 . S
H974 C959 0.961 . S
H975 C959 0.961 . S
H976 C960 0.931 . S
H977 C965 0.930 . S
H978 C966 0.956 . S
H979 C966 0.961 . S
H980 C966 0.961 . S
H981 C967 0.958 . S
H982 C967 0.961 . S
H983 C967 0.960 . S
C984 C985 1.391 . S
C984 C986 1.394 . S
C984 H1000 0.931 . S
C985 C984 1.391 . S
C985 C989 1.376 . S
C986 C984 1.394 . S
C986 C987 1.369 . S
C986 C990 1.531 . S
C987 C986 1.369 . S
C987 C988 1.410 . S
C987 C995 1.503 . S
C988 C987 1.410 . S
C988 C989 1.392 . S
C988 C991 1.511 . S
C989 C985 1.376 . S
C989 C988 1.392 . S
C989 H1001 0.929 . S
C990 C986 1.531 . S
C990 H1002 0.960 . S
C990 H1003 0.962 . S
C990 H1004 0.960 . S
C991 C988 1.511 . S
C991 H1005 0.961 . S
C991 H1006 0.961 . S
C991 H1007 0.961 . S
C992 C993 1.370 . S
C992 C994 1.363 . S
C992 H1008 0.931 . S
C993 C992 1.370 . S
C993 C997 1.408 . S
C994 C992 1.363 . S
C994 C995 1.370 . S
C994 C998 1.524 . S
C995 C987 1.503 . S
C995 C994 1.370 . S
C995 C996 1.403 . S
C996 C995 1.403 . S
C996 C997 1.404 . S
C996 C999 1.539 . S
C997 C993 1.408 . S
C997 C996 1.404 . S
C997 H1009 0.930 . S
C998 C994 1.524 . S
C998 H1010 0.956 . S
C998 H1011 0.961 . S
C998 H1012 0.961 . S
C999 C996 1.539 . S
C999 H1013 0.958 . S
C999 H1014 0.961 . S
C999 H1015 0.960 . S
H1000 C984 0.931 . S
H1001 C989 0.929 . S
H1002 C990 0.960 . S
H1003 C990 0.962 . S
H1004 C990 0.960 . S
H1005 C991 0.961 . S
H1006 C991 0.961 . S
H1007 C991 0.961 . S
H1008 C992 0.931 . S
H1009 C997 0.930 . S
H1010 C998 0.956 . S
H1011 C998 0.961 . S
H1012 C998 0.961 . S
H1013 C999 0.958 . S
H1014 C999 0.961 . S
H1015 C999 0.960 . S
C1016 C1017 1.391 . S
C1016 C1018 1.394 . S
C1016 H1032 0.931 . S
C1017 C1016 1.391 . S
C1017 C1021 1.376 . S
C1018 C1016 1.394 . S
C1018 C1019 1.369 . S
C1018 C1022 1.531 . S
C1019 C1018 1.369 . S
C1019 C1020 1.425 . S
C1019 C1027 1.503 1_455 S
C1020 C1019 1.425 . S
C1020 C1021 1.409 . S
C1020 C1023 1.480 1_455 S
C1021 C1017 1.376 . S
C1021 C1020 1.409 . S
C1021 H1033 0.929 . S
C1022 C1018 1.531 . S
C1022 H1034 0.960 . S
C1022 H1035 0.962 . S
C1022 H1036 0.960 . S
C1023 C1020 1.480 1_655 S
C1023 H1037 0.961 . S
C1023 H1038 0.961 . S
C1023 H1039 0.961 . S
C1024 C1025 1.370 . S
C1024 C1026 1.363 . S
C1024 H1040 0.931 . S
C1025 C1024 1.370 . S
C1025 C1029 1.408 . S
C1026 C1024 1.363 . S
C1026 C1027 1.370 . S
C1026 C1030 1.524 1_655 S
C1027 C1019 1.503 1_655 S
C1027 C1026 1.370 . S
C1027 C1028 1.403 . S
C1028 C1027 1.403 . S
C1028 C1029 1.404 . S
C1028 C1031 1.539 . S
C1029 C1025 1.408 . S
C1029 C1028 1.404 . S
C1029 H1041 0.930 . S
C1030 C1026 1.524 1_455 S
C1030 H1042 0.956 . S
C1030 H1043 0.961 . S
C1030 H1044 0.961 . S
C1031 C1028 1.539 . S
C1031 H1045 0.958 . S
C1031 H1046 0.961 . S
C1031 H1047 0.960 . S
H1032 C1016 0.931 . S
H1033 C1021 0.929 . S
H1034 C1022 0.960 . S
H1035 C1022 0.962 . S
H1036 C1022 0.960 . S
H1037 C1023 0.961 . S
H1038 C1023 0.961 . S
H1039 C1023 0.961 . S
H1040 C1024 0.931 . S
H1041 C1029 0.930 . S
H1042 C1030 0.956 . S
H1043 C1030 0.961 . S
H1044 C1030 0.961 . S
H1045 C1031 0.958 . S
H1046 C1031 0.961 . S
H1047 C1031 0.960 . S
C1048 C1049 1.391 . S
C1048 C1050 1.394 . S
C1048 H1064 0.931 . S
C1049 C1048 1.391 . S
C1049 C1053 1.376 . S
C1050 C1048 1.394 . S
C1050 C1051 1.369 . S
C1050 C1054 1.531 . S
C1051 C1050 1.369 . S
C1051 C1052 1.410 1_565 S
C1051 C1059 1.503 1_565 S
C1052 C1051 1.410 1_545 S
C1052 C1053 1.392 1_545 S
C1052 C1055 1.511 . S
C1053 C1049 1.376 . S
C1053 C1052 1.392 1_565 S
C1053 H1065 0.929 . S
C1054 C1050 1.531 . S
C1054 H1066 0.960 . S
C1054 H1067 0.962 . S
C1054 H1068 0.960 . S
C1055 C1052 1.511 . S
C1055 H1069 0.961 . S
C1055 H1070 0.961 . S
C1055 H1071 0.961 . S
C1056 C1057 1.370 . S
C1056 C1058 1.363 . S
C1056 H1072 0.931 . S
C1057 C1056 1.370 . S
C1057 C1061 1.408 . S
C1058 C1056 1.363 . S
C1058 C1059 1.370 . S
C1058 C1062 1.524 1_545 S
C1059 C1051 1.503 1_545 S
C1059 C1058 1.370 . S
C1059 C1060 1.403 . S
C1060 C1059 1.403 . S
C1060 C1061 1.404 . S
C1060 C1063 1.539 . S
C1061 C1057 1.408 . S
C1061 C1060 1.404 . S
C1061 H1073 0.930 . S
C1062 C1058 1.524 1_565 S
C1062 H1074 0.956 . S
C1062 H1075 0.961 . S
C1062 H1076 0.961 . S
C1063 C1060 1.539 . S
C1063 H1077 0.958 . S
C1063 H1078 0.961 . S
C1063 H1079 0.960 . S
H1064 C1048 0.931 . S
H1065 C1053 0.929 . S
H1066 C1054 0.960 . S
H1067 C1054 0.962 . S
H1068 C1054 0.960 . S
H1069 C1055 0.961 . S
H1070 C1055 0.961 . S
H1071 C1055 0.961 . S
H1072 C1056 0.931 . S
H1073 C1061 0.930 . S
H1074 C1062 0.956 . S
H1075 C1062 0.961 . S
H1076 C1062 0.961 . S
H1077 C1063 0.958 . S
H1078 C1063 0.961 . S
H1079 C1063 0.960 . S
C1080 C1081 1.391 . S
C1080 C1082 1.394 . S
C1080 H1096 0.931 . S
C1081 C1080 1.391 . S
C1081 C1085 1.376 . S
C1082 C1080 1.394 . S
C1082 C1083 1.369 . S
C1082 C1086 1.531 . S
C1083 C1082 1.369 . S
C1083 C1084 1.410 . S
C1083 C1091 1.503 . S
C1084 C1083 1.410 . S
C1084 C1085 1.392 . S
C1084 C1087 1.511 . S
C1085 C1081 1.376 . S
C1085 C1084 1.392 . S
C1085 H1097 0.929 . S
C1086 C1082 1.531 . S
C1086 H1098 0.960 . S
C1086 H1099 0.962 . S
C1086 H1100 0.960 . S
C1087 C1084 1.511 . S
C1087 H1101 0.961 . S
C1087 H1102 0.961 . S
C1087 H1103 0.961 . S
C1088 C1089 1.370 . S
C1088 C1090 1.363 . S
C1088 H1104 0.931 . S
C1089 C1088 1.370 . S
C1089 C1093 1.408 . S
C1090 C1088 1.363 . S
C1090 C1091 1.370 . S
C1090 C1094 1.524 . S
C1091 C1083 1.503 . S
C1091 C1090 1.370 . S
C1091 C1092 1.403 . S
C1092 C1091 1.403 . S
C1092 C1093 1.404 . S
C1092 C1095 1.539 . S
C1093 C1089 1.408 . S
C1093 C1092 1.404 . S
C1093 H1105 0.930 . S
C1094 C1090 1.524 . S
C1094 H1106 0.956 . S
C1094 H1107 0.961 . S
C1094 H1108 0.961 . S
C1095 C1092 1.539 . S
C1095 H1109 0.958 . S
C1095 H1110 0.961 . S
C1095 H1111 0.960 . S
H1096 C1080 0.931 . S
H1097 C1085 0.929 . S
H1098 C1086 0.960 . S
H1099 C1086 0.962 . S
H1100 C1086 0.960 . S
H1101 C1087 0.961 . S
H1102 C1087 0.961 . S
H1103 C1087 0.961 . S
H1104 C1088 0.931 . S
H1105 C1093 0.930 . S
H1106 C1094 0.956 . S
H1107 C1094 0.961 . S
H1108 C1094 0.961 . S
H1109 C1095 0.958 . S
H1110 C1095 0.961 . S
H1111 C1095 0.960 . S
C1112 C1113 1.391 . S
C1112 C1114 1.381 1_455 S
C1112 H1128 0.931 . S
C1113 C1112 1.391 . S
C1113 C1117 1.376 . S
C1114 C1112 1.381 1_655 S
C1114 C1115 1.363 1_655 S
C1114 C1118 1.550 . S
C1115 C1114 1.363 1_455 S
C1115 C1116 1.410 . S
C1115 C1123 1.503 1_455 S
C1116 C1115 1.410 . S
C1116 C1117 1.392 . S
C1116 C1119 1.511 . S
C1117 C1113 1.376 . S
C1117 C1116 1.392 . S
C1117 H1129 0.929 . S
C1118 C1114 1.550 . S
C1118 H1130 0.960 . S
C1118 H1131 0.962 . S
C1118 H1132 0.960 . S
C1119 C1116 1.511 . S
C1119 H1133 0.961 . S
C1119 H1134 0.961 . S
C1119 H1135 0.961 . S
C1120 C1121 1.370 . S
C1120 C1122 1.363 . S
C1120 H1136 0.931 . S
C1121 C1120 1.370 . S
C1121 C1125 1.408 . S
C1122 C1120 1.363 . S
C1122 C1123 1.370 . S
C1122 C1126 1.524 . S
C1123 C1115 1.503 1_655 S
C1123 C1122 1.370 . S
C1123 C1124 1.403 . S
C1124 C1123 1.403 . S
C1124 C1125 1.404 . S
C1124 C1127 1.539 1_655 S
C1125 C1121 1.408 . S
C1125 C1124 1.404 . S
C1125 H1137 0.930 . S
C1126 C1122 1.524 . S
C1126 H1138 0.956 . S
C1126 H1139 0.961 1_655 S
C1126 H1140 0.961 . S
C1127 C1124 1.539 1_455 S
C1127 H1141 0.958 1_455 S
C1127 H1142 0.961 . S
C1127 H1143 0.960 . S
H1128 C1112 0.931 . S
H1129 C1117 0.929 . S
H1130 C1118 0.960 . S
H1131 C1118 0.962 . S
H1132 C1118 0.960 . S
H1133 C1119 0.961 . S
H1134 C1119 0.961 . S
H1135 C1119 0.961 . S
H1136 C1120 0.931 . S
H1137 C1125 0.930 . S
H1138 C1126 0.956 . S
H1139 C1126 0.961 1_455 S
H1140 C1126 0.961 . S
H1141 C1127 0.958 1_655 S
H1142 C1127 0.961 . S
H1143 C1127 0.960 . S
C1144 C1145 1.391 . S
C1144 C1146 1.394 . S
C1144 H1160 0.931 . S
C1145 C1144 1.391 . S
C1145 C1149 1.376 . S
C1146 C1144 1.394 . S
C1146 C1147 1.369 . S
C1146 C1150 1.531 1_554 S
C1147 C1146 1.369 . S
C1147 C1148 1.410 . S
C1147 C1155 1.503 1_564 S
C1148 C1147 1.410 . S
C1148 C1149 1.392 . S
C1148 C1151 1.511 1_565 S
C1149 C1145 1.376 . S
C1149 C1148 1.392 . S
C1149 H1161 0.929 . S
C1150 C1146 1.531 1_556 S
C1150 H1162 0.960 . S
C1150 H1163 0.962 . S
C1150 H1164 0.970 . S
C1151 C1148 1.511 1_545 S
C1151 H1165 0.961 . S
C1151 H1166 0.961 . S
C1151 H1167 0.961 . S
C1152 C1153 1.370 . S
C1152 C1154 1.363 . S
C1152 H1168 0.931 . S
C1153 C1152 1.370 . S
C1153 C1157 1.408 . S
C1154 C1152 1.363 . S
C1154 C1155 1.370 . S
C1154 C1158 1.524 1_545 S
C1155 C1147 1.503 1_546 S
C1155 C1154 1.370 . S
C1155 C1156 1.403 . S
C1156 C1155 1.403 . S
C1156 C1157 1.404 . S
C1156 C1159 1.539 1_556 S
C1157 C1153 1.408 . S
C1157 C1156 1.404 . S
C1157 H1169 0.930 . S
C1158 C1154 1.524 1_565 S
C1158 H1170 0.956 . S
C1158 H1171 0.961 . S
C1158 H1172 0.961 . S
C1159 C1156 1.539 1_554 S
C1159 H1173 0.958 . S
C1159 H1174 0.961 . S
C1159 H1175 0.960 . S
H1160 C1144 0.931 . S
H1161 C1149 0.929 . S
H1162 C1150 0.960 . S
H1163 C1150 0.962 . S
H1164 C1150 0.970 . S
H1165 C1151 0.961 . S
H1166 C1151 0.961 . S
H1167 C1151 0.961 . S
H1168 C1152 0.931 . S
H1169 C1157 0.930 . S
H1170 C1158 0.956 . S
H1171 C1158 0.961 . S
H1172 C1158 0.961 . S
H1173 C1159 0.958 . S
H1174 C1159 0.961 . S
H1175 C1159 0.960 . S
C1176 C1177 1.391 . S
C1176 C1178 1.394 . S
C1176 H1192 0.931 . S
C1177 C1176 1.391 . S
C1177 C1181 1.376 . S
C1178 C1176 1.394 . S
C1178 C1179 1.369 . S
C1178 C1182 1.531 . S
C1179 C1178 1.369 . S
C1179 C1180 1.410 . S
C1179 C1187 1.503 . S
C1180 C1179 1.410 . S
C1180 C1181 1.392 . S
C1180 C1183 1.511 . S
C1181 C1177 1.376 . S
C1181 C1180 1.392 . S
C1181 H1193 0.929 . S
C1182 C1178 1.531 . S
C1182 H1194 0.960 . S
C1182 H1195 0.962 . S
C1182 H1196 0.960 . S
C1183 C1180 1.511 . S
C1183 H1197 0.961 . S
C1183 H1198 0.961 . S
C1183 H1199 0.961 . S
C1184 C1185 1.370 . S
C1184 C1186 1.363 . S
C1184 H1200 0.931 . S
C1185 C1184 1.370 . S
C1185 C1189 1.408 . S
C1186 C1184 1.363 . S
C1186 C1187 1.370 . S
C1186 C1190 1.524 . S
C1187 C1179 1.503 . S
C1187 C1186 1.370 . S
C1187 C1188 1.403 . S
C1188 C1187 1.403 . S
C1188 C1189 1.404 . S
C1188 C1191 1.539 . S
C1189 C1185 1.408 . S
C1189 C1188 1.404 . S
C1189 H1201 0.930 . S
C1190 C1186 1.524 . S
C1190 H1202 0.956 . S
C1190 H1203 0.961 . S
C1190 H1204 0.961 . S
C1191 C1188 1.539 . S
C1191 H1205 0.958 . S
C1191 H1206 0.961 . S
C1191 H1207 0.960 . S
H1192 C1176 0.931 . S
H1193 C1181 0.929 . S
H1194 C1182 0.960 . S
H1195 C1182 0.962 . S
H1196 C1182 0.960 . S
H1197 C1183 0.961 . S
H1198 C1183 0.961 . S
H1199 C1183 0.961 . S
H1200 C1184 0.931 . S
H1201 C1189 0.930 . S
H1202 C1190 0.956 . S
H1203 C1190 0.961 . S
H1204 C1190 0.961 . S
H1205 C1191 0.958 . S
H1206 C1191 0.961 . S
H1207 C1191 0.960 . S
C1208 C1209 1.391 . S
C1208 C1210 1.394 . S
C1208 H1224 0.931 . S
C1209 C1208 1.391 . S
C1209 C1213 1.376 . S
C1210 C1208 1.394 . S
C1210 C1211 1.369 . S
C1210 C1214 1.531 . S
C1211 C1210 1.369 . S
C1211 C1212 1.410 . S
C1211 C1219 1.503 . S
C1212 C1211 1.410 . S
C1212 C1213 1.392 . S
C1212 C1215 1.511 . S
C1213 C1209 1.376 . S
C1213 C1212 1.392 . S
C1213 H1225 0.929 . S
C1214 C1210 1.531 . S
C1214 H1226 0.960 . S
C1214 H1227 0.962 . S
C1214 H1228 0.960 . S
C1215 C1212 1.511 . S
C1215 H1229 0.961 . S
C1215 H1230 0.961 . S
C1215 H1231 0.961 . S
C1216 C1217 1.370 . S
C1216 C1218 1.363 . S
C1216 H1232 0.931 . S
C1217 C1216 1.370 . S
C1217 C1221 1.408 . S
C1218 C1216 1.363 . S
C1218 C1219 1.370 . S
C1218 C1222 1.524 . S
C1219 C1211 1.503 . S
C1219 C1218 1.370 . S
C1219 C1220 1.403 . S
C1220 C1219 1.403 . S
C1220 C1221 1.404 . S
C1220 C1223 1.539 . S
C1221 C1217 1.408 . S
C1221 C1220 1.404 . S
C1221 H1233 0.930 . S
C1222 C1218 1.524 . S
C1222 H1234 0.956 . S
C1222 H1235 0.961 . S
C1222 H1236 0.961 . S
C1223 C1220 1.539 . S
C1223 H1237 0.958 . S
C1223 H1238 0.961 . S
C1223 H1239 0.960 . S
H1224 C1208 0.931 . S
H1225 C1213 0.929 . S
H1226 C1214 0.960 . S
H1227 C1214 0.962 . S
H1228 C1214 0.960 . S
H1229 C1215 0.961 . S
H1230 C1215 0.961 . S
H1231 C1215 0.961 . S
H1232 C1216 0.931 . S
H1233 C1221 0.930 . S
H1234 C1222 0.956 . S
H1235 C1222 0.961 . S
H1236 C1222 0.961 . S
H1237 C1223 0.958 . S
H1238 C1223 0.961 . S
H1239 C1223 0.960 . S
C1240 C1241 1.391 . S
C1240 C1242 1.394 . S
C1240 H1256 0.931 . S
C1241 C1240 1.391 . S
C1241 C1245 1.376 . S
C1242 C1240 1.394 . S
C1242 C1243 1.369 . S
C1242 C1246 1.531 . S
C1243 C1242 1.369 . S
C1243 C1244 1.410 . S
C1243 C1251 1.503 . S
C1244 C1243 1.410 . S
C1244 C1245 1.392 . S
C1244 C1247 1.511 . S
C1245 C1241 1.376 . S
C1245 C1244 1.392 . S
C1245 H1257 0.929 . S
C1246 C1242 1.531 . S
C1246 H1258 0.960 . S
C1246 H1259 0.962 . S
C1246 H1260 0.960 . S
C1247 C1244 1.511 . S
C1247 H1261 0.961 . S
C1247 H1262 0.961 . S
C1247 H1263 0.961 . S
C1248 C1249 1.370 . S
C1248 C1250 1.363 . S
C1248 H1264 0.931 . S
C1249 C1248 1.370 . S
C1249 C1253 1.408 . S
C1250 C1248 1.363 . S
C1250 C1251 1.370 . S
C1250 C1254 1.524 . S
C1251 C1243 1.503 . S
C1251 C1250 1.370 . S
C1251 C1252 1.403 . S
C1252 C1251 1.403 . S
C1252 C1253 1.404 . S
C1252 C1255 1.539 . S
C1253 C1249 1.408 . S
C1253 C1252 1.404 . S
C1253 H1265 0.930 . S
C1254 C1250 1.524 . S
C1254 H1266 0.956 . S
C1254 H1267 0.961 . S
C1254 H1268 0.961 . S
C1255 C1252 1.539 . S
C1255 H1269 0.958 . S
C1255 H1270 0.961 . S
C1255 H1271 0.960 . S
H1256 C1240 0.931 . S
H1257 C1245 0.929 . S
H1258 C1246 0.960 . S
H1259 C1246 0.962 . S
H1260 C1246 0.960 . S
H1261 C1247 0.961 . S
H1262 C1247 0.961 . S
H1263 C1247 0.961 . S
H1264 C1248 0.931 . S
H1265 C1253 0.930 . S
H1266 C1254 0.956 . S
H1267 C1254 0.961 . S
H1268 C1254 0.961 . S
H1269 C1255 0.958 . S
H1270 C1255 0.961 . S
H1271 C1255 0.960 . S
C1272 C1273 1.391 . S
C1272 C1274 1.394 . S
C1272 H1288 0.931 . S
C1273 C1272 1.391 . S
C1273 C1277 1.376 . S
C1274 C1272 1.394 . S
C1274 C1275 1.369 . S
C1274 C1278 1.531 . S
C1275 C1274 1.369 . S
C1275 C1276 1.410 . S
C1275 C1283 1.503 . S
C1276 C1275 1.410 . S
C1276 C1277 1.392 . S
C1276 C1279 1.511 . S
C1277 C1273 1.376 . S
C1277 C1276 1.392 . S
C1277 H1289 0.929 . S
C1278 C1274 1.531 . S
C1278 H1290 0.960 . S
C1278 H1291 0.962 . S
C1278 H1292 0.960 . S
C1279 C1276 1.511 . S
C1279 H1293 0.961 . S
C1279 H1294 0.961 . S
C1279 H1295 0.961 . S
C1280 C1281 1.370 . S
C1280 C1282 1.363 . S
C1280 H1296 0.931 . S
C1281 C1280 1.370 . S
C1281 C1285 1.408 . S
C1282 C1280 1.363 . S
C1282 C1283 1.370 . S
C1282 C1286 1.524 . S
C1283 C1275 1.503 . S
C1283 C1282 1.370 . S
C1283 C1284 1.403 . S
C1284 C1283 1.403 . S
C1284 C1285 1.404 . S
C1284 C1287 1.539 . S
C1285 C1281 1.408 . S
C1285 C1284 1.404 . S
C1285 H1297 0.930 . S
C1286 C1282 1.524 . S
C1286 H1298 0.956 . S
C1286 H1299 0.961 . S
C1286 H1300 0.961 . S
C1287 C1284 1.539 . S
C1287 H1301 0.958 . S
C1287 H1302 0.961 . S
C1287 H1303 0.960 . S
H1288 C1272 0.931 . S
H1289 C1277 0.929 . S
H1290 C1278 0.960 . S
H1291 C1278 0.962 . S
H1292 C1278 0.960 . S
H1293 C1279 0.961 . S
H1294 C1279 0.961 . S
H1295 C1279 0.961 . S
H1296 C1280 0.931 . S
H1297 C1285 0.930 . S
H1298 C1286 0.956 . S
H1299 C1286 0.961 . S
H1300 C1286 0.961 . S
H1301 C1287 0.958 . S
H1302 C1287 0.961 . S
H1303 C1287 0.960 . S
C1304 C1305 1.391 . S
C1304 C1306 1.394 . S
C1304 H1320 0.931 . S
C1305 C1304 1.391 . S
C1305 C1309 1.376 . S
C1306 C1304 1.394 . S
C1306 C1307 1.369 . S
C1306 C1310 1.531 . S
C1307 C1306 1.369 . S
C1307 C1308 1.410 . S
C1307 C1315 1.503 . S
C1308 C1307 1.410 . S
C1308 C1309 1.392 . S
C1308 C1311 1.511 . S
C1309 C1305 1.376 . S
C1309 C1308 1.392 . S
C1309 H1321 0.929 . S
C1310 C1306 1.531 . S
C1310 H1322 0.960 . S
C1310 H1323 0.962 . S
C1310 H1324 0.960 . S
C1311 C1308 1.511 . S
C1311 H1325 0.961 . S
C1311 H1326 0.961 . S
C1311 H1327 0.961 . S
C1312 C1313 1.370 . S
C1312 C1314 1.363 . S
C1312 H1328 0.931 . S
C1313 C1312 1.370 . S
C1313 C1317 1.408 . S
C1314 C1312 1.363 . S
C1314 C1315 1.370 . S
C1314 C1318 1.524 . S
C1315 C1307 1.503 . S
C1315 C1314 1.370 . S
C1315 C1316 1.403 . S
C1316 C1315 1.403 . S
C1316 C1317 1.404 . S
C1316 C1319 1.539 . S
C1317 C1313 1.408 . S
C1317 C1316 1.404 . S
C1317 H1329 0.930 . S
C1318 C1314 1.524 . S
C1318 H1330 0.956 . S
C1318 H1331 0.961 . S
C1318 H1332 0.961 . S
C1319 C1316 1.539 . S
C1319 H1333 0.958 . S
C1319 H1334 0.961 . S
C1319 H1335 0.960 . S
H1320 C1304 0.931 . S
H1321 C1309 0.929 . S
H1322 C1310 0.960 . S
H1323 C1310 0.962 . S
H1324 C1310 0.960 . S
H1325 C1311 0.961 . S
H1326 C1311 0.961 . S
H1327 C1311 0.961 . S
H1328 C1312 0.931 . S
H1329 C1317 0.930 . S
H1330 C1318 0.956 . S
H1331 C1318 0.961 . S
H1332 C1318 0.961 . S
H1333 C1319 0.958 . S
H1334 C1319 0.961 . S
H1335 C1319 0.960 . S
C1336 C1337 1.391 . S
C1336 C1338 1.394 . S
C1336 H1352 0.931 . S
C1337 C1336 1.391 . S
C1337 C1341 1.376 . S
C1338 C1336 1.394 . S
C1338 C1339 1.369 . S
C1338 C1342 1.531 . S
C1339 C1338 1.369 . S
C1339 C1340 1.410 . S
C1339 C1347 1.503 . S
C1340 C1339 1.410 . S
C1340 C1341 1.392 . S
C1340 C1343 1.511 . S
C1341 C1337 1.376 . S
C1341 C1340 1.392 . S
C1341 H1353 0.929 . S
C1342 C1338 1.531 . S
C1342 H1354 0.960 . S
C1342 H1355 0.962 . S
C1342 H1356 0.960 . S
C1343 C1340 1.511 . S
C1343 H1357 0.961 . S
C1343 H1358 0.961 . S
C1343 H1359 0.961 . S
C1344 C1345 1.370 . S
C1344 C1346 1.363 . S
C1344 H1360 0.931 . S
C1345 C1344 1.370 . S
C1345 C1349 1.408 . S
C1346 C1344 1.363 . S
C1346 C1347 1.370 . S
C1346 C1350 1.524 . S
C1347 C1339 1.503 . S
C1347 C1346 1.370 . S
C1347 C1348 1.403 . S
C1348 C1347 1.403 . S
C1348 C1349 1.404 . S
C1348 C1351 1.539 . S
C1349 C1345 1.408 . S
C1349 C1348 1.404 . S
C1349 H1361 0.930 . S
C1350 C1346 1.524 . S
C1350 H1362 0.956 . S
C1350 H1363 0.961 . S
C1350 H1364 0.961 . S
C1351 C1348 1.539 . S
C1351 H1365 0.958 . S
C1351 H1366 0.961 . S
C1351 H1367 0.960 . S
H1352 C1336 0.931 . S
H1353 C1341 0.929 . S
H1354 C1342 0.960 . S
H1355 C1342 0.962 . S
H1356 C1342 0.960 . S
H1357 C1343 0.961 . S
H1358 C1343 0.961 . S
H1359 C1343 0.961 . S
H1360 C1344 0.931 . S
H1361 C1349 0.930 . S
H1362 C1350 0.956 . S
H1363 C1350 0.961 . S
H1364 C1350 0.961 . S
H1365 C1351 0.958 . S
H1366 C1351 0.961 . S
H1367 C1351 0.960 . S
C409 C172 1.235 . S
C417 C5 1.261 . S
C441 C2 1.261 . S
C449 C39 1.265 . S
C473 C36 1.257 . S
C481 C73 1.265 . S
C505 C107 1.228 . S
C513 C70 1.255 . S
C537 C141 1.255 . S
C545 C104 1.247 . S
C569 C138 1.230 . S
C577 C175 1.255 . S
C601 C240 1.269 . S
C609 C209 1.263 . S
C633 C274 1.277 . S
C641 C243 1.255 . S
C665 C308 1.276 . S
C673 C277 1.257 . S
C697 C342 1.276 . S
C705 C311 1.252 . S
C729 C376 1.249 . S
C737 C345 1.265 . S
C761 C206 1.242 . S
C769 C379 1.246 . S
C793 C281 1.286 . S
C801 C9 1.264 . S
C825 C43 1.284 . S
C833 C315 1.263 . S
C857 C77 1.271 . S
C865 C349 1.259 . S
C889 C111 1.267 . S
C897 C383 1.258 . S
C921 C145 1.270 . S
C929 C213 1.259 . S
C953 C247 1.303 . S
C961 C179 1.280 . S
C985 C339 1.521 . S
C993 C33 1.526 . S
C1017 C373 1.522 . S
C1025 C67 1.523 . S
C1049 C101 1.521 . S
C1057 C407 1.523 . S
C1081 C135 1.518 . S
C1089 C237 1.526 . S
C1113 C169 1.521 . S
C1121 C271 1.526 . S
C1145 C305 1.522 . S
C1153 C203 1.523 . S
C1177 C20 1.566 . S
C1185 C224 1.559 . S
C1209 C258 1.550 . S
C1217 C54 1.569 . S
C1241 C88 1.548 . S
C1249 C292 1.567 . S
C1273 C326 1.561 . S
C1281 C122 1.565 . S
C1305 C360 1.547 . S
C1313 C156 1.568 . S
C1337 C394 1.552 . S
C1345 C190 1.568 . S
