# Generated by pormake.
# Topology lcy-e, (6)-cn, num edge types: 1
# Building blocks:
#     Node 0, Type 0, BuildingBlock: BETDEL_clean_sbu_0, # of connection points: 6
#     Node 1, Type 0, BuildingBlock: BETDEL_clean_sbu_0, # of connection points: 6
#     Node 2, Type 0, BuildingBlock: BETDEL_clean_sbu_0, # of connection points: 6
#     Node 3, Type 0, BuildingBlock: BETDEL_clean_sbu_0, # of connection points: 6
#     Node 4, Type 0, BuildingBlock: BETDEL_clean_sbu_0, # of connection points: 6
#     Node 5, Type 0, BuildingBlock: BETDEL_clean_sbu_0, # of connection points: 6
#     Node 6, Type 0, BuildingBlock: BETDEL_clean_sbu_0, # of connection points: 6
#     Node 7, Type 0, BuildingBlock: BETDEL_clean_sbu_0, # of connection points: 6
#     Node 8, Type 0, BuildingBlock: BETDEL_clean_sbu_0, # of connection points: 6
#     Node 9, Type 0, BuildingBlock: BETDEL_clean_sbu_0, # of connection points: 6
#     Node 10, Type 0, BuildingBlock: BETDEL_clean_sbu_0, # of connection points: 6
#     Node 11, Type 0, BuildingBlock: BETDEL_clean_sbu_0, # of connection points: 6
#     Edge 12, Type (0, 0), BuildingBlock: ZUJKAS_clean_linker_0, # of connection points: 2
#     Edge 13, Type (0, 0), BuildingBlock: ZUJKAS_clean_linker_0, # of connection points: 2
#     Edge 14, Type (0, 0), BuildingBlock: ZUJKAS_clean_linker_0, # of connection points: 2
#     Edge 15, Type (0, 0), BuildingBlock: ZUJKAS_clean_linker_0, # of connection points: 2
#     Edge 16, Type (0, 0), BuildingBlock: ZUJKAS_clean_linker_0, # of connection points: 2
#     Edge 17, Type (0, 0), BuildingBlock: ZUJKAS_clean_linker_0, # of connection points: 2
#     Edge 18, Type (0, 0), BuildingBlock: ZUJKAS_clean_linker_0, # of connection points: 2
#     Edge 19, Type (0, 0), BuildingBlock: ZUJKAS_clean_linker_0, # of connection points: 2
#     Edge 20, Type (0, 0), BuildingBlock: ZUJKAS_clean_linker_0, # of connection points: 2
#     Edge 21, Type (0, 0), BuildingBlock: ZUJKAS_clean_linker_0, # of connection points: 2
#     Edge 22, Type (0, 0), BuildingBlock: ZUJKAS_clean_linker_0, # of connection points: 2
#     Edge 23, Type (0, 0), BuildingBlock: ZUJKAS_clean_linker_0, # of connection points: 2
#     Edge 24, Type (0, 0), BuildingBlock: ZUJKAS_clean_linker_0, # of connection points: 2
#     Edge 25, Type (0, 0), BuildingBlock: ZUJKAS_clean_linker_0, # of connection points: 2
#     Edge 26, Type (0, 0), BuildingBlock: ZUJKAS_clean_linker_0, # of connection points: 2
#     Edge 27, Type (0, 0), BuildingBlock: ZUJKAS_clean_linker_0, # of connection points: 2
#     Edge 28, Type (0, 0), BuildingBlock: ZUJKAS_clean_linker_0, # of connection points: 2
#     Edge 29, Type (0, 0), BuildingBlock: ZUJKAS_clean_linker_0, # of connection points: 2
#     Edge 30, Type (0, 0), BuildingBlock: ZUJKAS_clean_linker_0, # of connection points: 2
#     Edge 31, Type (0, 0), BuildingBlock: ZUJKAS_clean_linker_0, # of connection points: 2
#     Edge 32, Type (0, 0), BuildingBlock: ZUJKAS_clean_linker_0, # of connection points: 2
#     Edge 33, Type (0, 0), BuildingBlock: ZUJKAS_clean_linker_0, # of connection points: 2
#     Edge 34, Type (0, 0), BuildingBlock: ZUJKAS_clean_linker_0, # of connection points: 2
#     Edge 35, Type (0, 0), BuildingBlock: ZUJKAS_clean_linker_0, # of connection points: 2
#     Edge 36, Type (0, 0), BuildingBlock: ZUJKAS_clean_linker_0, # of connection points: 2
#     Edge 37, Type (0, 0), BuildingBlock: ZUJKAS_clean_linker_0, # of connection points: 2
#     Edge 38, Type (0, 0), BuildingBlock: ZUJKAS_clean_linker_0, # of connection points: 2
#     Edge 39, Type (0, 0), BuildingBlock: ZUJKAS_clean_linker_0, # of connection points: 2
#     Edge 40, Type (0, 0), BuildingBlock: ZUJKAS_clean_linker_0, # of connection points: 2
#     Edge 41, Type (0, 0), BuildingBlock: ZUJKAS_clean_linker_0, # of connection points: 2
#     Edge 42, Type (0, 0), BuildingBlock: ZUJKAS_clean_linker_0, # of connection points: 2
#     Edge 43, Type (0, 0), BuildingBlock: ZUJKAS_clean_linker_0, # of connection points: 2
#     Edge 44, Type (0, 0), BuildingBlock: ZUJKAS_clean_linker_0, # of connection points: 2
#     Edge 45, Type (0, 0), BuildingBlock: ZUJKAS_clean_linker_0, # of connection points: 2
#     Edge 46, Type (0, 0), BuildingBlock: ZUJKAS_clean_linker_0, # of connection points: 2
#     Edge 47, Type (0, 0), BuildingBlock: ZUJKAS_clean_linker_0, # of connection points: 2
# Relax obj value: 0.225
# Max RMSD: 0.278
# Mean RMSD: 0.267
data_MOF--net-lcy-e--node1-BETDEL_clean_sbu_0--edge1-ZUJKAS_clean_linker_0
_symmetry_space_group_name_H-M    P1
_symmetry_Int_Tables_number       1
_symmetry_cell_setting            triclinic
loop_
_symmetry_equiv_pos_as_xyz
'x, y, z'
_cell_length_a     48.096466
_cell_length_b     46.763292
_cell_length_c     49.357125
_cell_angle_alpha  90.003596
_cell_angle_beta   91.272075
_cell_angle_gamma 88.731483
loop_
_atom_site_label
_atom_site_type_symbol
_atom_site_fract_x
_atom_site_fract_y
_atom_site_fract_z
_atom_type_partial_charge
Dy0 Dy 0.12136 0.24736 0.45397 0.0
C1 C 0.13667 0.14689 0.51889 0.0
C2 C 0.12395 0.29494 0.42231 0.0
Dy3 Dy 0.13739 0.19614 0.48957 0.0
O4 O 0.10195 0.27971 0.42516 0.0
O5 O 0.14423 0.28455 0.43731 0.0
O6 O 0.07931 0.23058 0.44539 0.0
O7 O 0.11302 0.20143 0.4517 0.0
C8 C 0.08681 0.20392 0.44855 0.0
C9 C 0.1689 0.24264 0.49607 0.0
O10 O 0.1647 0.18458 0.45545 0.0
O11 O 0.15698 0.22667 0.43118 0.0
O12 O 0.14589 0.17108 0.52788 0.0
O13 O 0.12809 0.14959 0.49391 0.0
O14 O 0.17888 0.21674 0.49939 0.0
O15 O 0.14315 0.24183 0.49203 0.0
O16 O 0.10131 0.26057 0.49298 0.0
O17 O 0.0994 0.21439 0.50971 0.0
C18 C 0.17026 0.20171 0.43506 0.0
C19 C 0.09177 0.2418 0.51059 0.0
Dy20 Dy 0.00755 0.86291 0.69096 0.0
C21 C 0.10345 0.86484 0.76365 0.0
C22 C 0.96465 0.8732 0.65493 0.0
Dy23 Dy 0.05661 0.87224 0.73196 0.0
O24 O 0.97587 0.84815 0.66 0.0
O25 O 0.97619 0.8923 0.6703 0.0
O26 O 0.02559 0.82071 0.67872 0.0
O27 O 0.05216 0.85356 0.69156 0.0
C28 C 0.05092 0.82746 0.68521 0.0
C29 C 0.01115 0.90615 0.7376 0.0
O30 O 0.07111 0.90009 0.69908 0.0
O31 O 0.02967 0.9008 0.67385 0.0
O32 O 0.08408 0.88411 0.76762 0.0
O33 O 0.09711 0.84958 0.74253 0.0
O34 O 0.03595 0.91431 0.74478 0.0
O35 O 0.01224 0.8804 0.73088 0.0
O36 O 0.99214 0.83963 0.7275 0.0
O37 O 0.03558 0.83377 0.7487 0.0
C38 C 0.05502 0.9104 0.67915 0.0
C39 C 0.00885 0.82743 0.74629 0.0
Dy40 Dy 0.36764 0.80018 0.98538 0.0
C41 C 0.37112 0.73374 0.88744 0.0
C42 C 0.36639 0.83085 0.03224 0.0
Dy43 Dy 0.37437 0.75608 0.93833 0.0
O44 O 0.34571 0.82908 0.01499 0.0
O45 O 0.38763 0.8161 0.02386 0.0
O46 O 0.35042 0.8322 0.955 0.0
O47 O 0.34372 0.78859 0.9493 0.0
C48 C 0.34031 0.81294 0.9388 0.0
C49 C 0.40003 0.74094 0.98493 0.0
O50 O 0.40686 0.78771 0.92818 0.0
O51 O 0.40631 0.81637 0.96682 0.0
O52 O 0.38002 0.71977 0.90886 0.0
O53 O 0.36431 0.75984 0.89385 0.0
O54 O 0.39285 0.72232 0.96656 0.0
O55 O 0.39679 0.76597 0.97561 0.0
O56 O 0.34259 0.76265 0.99892 0.0
O57 O 0.33535 0.74168 0.95666 0.0
C58 C 0.41682 0.80886 0.94315 0.0
C59 C 0.3302 0.74372 0.98285 0.0
Dy60 Dy 0.49558 0.11298 0.1959 0.0
C61 C 0.40549 0.12365 0.27186 0.0
C62 C 0.52961 0.10618 0.15265 0.0
Dy63 Dy 0.45017 0.10899 0.24077 0.0
O64 O 0.50296 0.1109 0.15133 0.0
O65 O 0.53809 0.10529 0.1779 0.0
O66 O 0.48178 0.15775 0.18778 0.0
O67 O 0.45247 0.1277 0.20031 0.0
C68 C 0.45643 0.15377 0.19509 0.0
C69 C 0.49343 0.07143 0.24564 0.0
O70 O 0.43295 0.07814 0.21116 0.0
O71 O 0.47375 0.07183 0.18697 0.0
O72 O 0.42503 0.10521 0.2788 0.0
O73 O 0.41046 0.13394 0.24808 0.0
O74 O 0.46946 0.06712 0.25666 0.0
O75 O 0.49332 0.09639 0.23642 0.0
O76 O 0.5165 0.1376 0.2294 0.0
O77 O 0.47651 0.14533 0.25478 0.0
C78 C 0.44815 0.06438 0.19313 0.0
C79 C 0.5029 0.15051 0.24941 0.0
Dy80 Dy 0.63579 0.26857 0.55695 0.0
C81 C 0.63516 0.36549 0.48456 0.0
C82 C 0.63735 0.23027 0.59882 0.0
Dy83 Dy 0.64666 0.31888 0.51668 0.0
O84 O 0.62193 0.25333 0.59746 0.0
O85 O 0.65157 0.22753 0.57681 0.0
O86 O 0.59138 0.28164 0.55622 0.0
O87 O 0.6219 0.31338 0.55294 0.0
C88 C 0.59609 0.30856 0.55246 0.0
C89 C 0.68381 0.27466 0.51582 0.0
O90 O 0.66564 0.33642 0.55412 0.0
O91 O 0.67168 0.29251 0.57553 0.0
O92 O 0.66006 0.35669 0.49198 0.0
O93 O 0.6168 0.34866 0.49443 0.0
O94 O 0.6898 0.30002 0.50693 0.0
O95 O 0.65849 0.27472 0.52068 0.0
O96 O 0.61861 0.24856 0.51871 0.0
O97 O 0.61797 0.29063 0.49282 0.0
C98 C 0.67756 0.31996 0.57297 0.0
C99 C 0.61182 0.26326 0.49625 0.0
Dy100 Dy 0.9544 0.38867 0.76334 0.0
C101 C 0.01349 0.37195 0.864 0.0
C102 C 0.92401 0.39043 0.71618 0.0
Dy103 Dy 0.98839 0.36969 0.81408 0.0
O104 O 0.92602 0.41136 0.73332 0.0
O105 O 0.93908 0.36868 0.72457 0.0
O106 O 0.94461 0.43065 0.78253 0.0
O107 O 0.94963 0.39393 0.80708 0.0
C108 C 0.94637 0.42082 0.80712 0.0
C109 C 0.99886 0.3399 0.76853 0.0
O110 O 0.9493 0.3468 0.82184 0.0
O111 O 0.9305 0.35099 0.7783 0.0
O112 O 0.00858 0.34847 0.85078 0.0
O113 O 0.00514 0.39396 0.84979 0.0
O114 O 0.00299 0.32899 0.7926 0.0
O115 O 0.99312 0.36597 0.77083 0.0
O116 O 0.99452 0.41019 0.75488 0.0
O117 O 0.0132 0.40639 0.79865 0.0
C118 C 0.93097 0.33941 0.80286 0.0
C119 C 0.01332 0.41723 0.77376 0.0
Dy120 Dy 0.87731 0.7422 0.05631 0.0
C121 C 0.87404 0.64056 0.99089 0.0
C122 C 0.87574 0.78491 0.09391 0.0
Dy123 Dy 0.86609 0.69123 0.01724 0.0
O124 O 0.88642 0.75951 0.0977 0.0
O125 O 0.86622 0.78743 0.06911 0.0
O126 O 0.91951 0.72359 0.06509 0.0
O127 O 0.88592 0.69623 0.05701 0.0
C128 C 0.91186 0.69739 0.06147 0.0
C129 C 0.83426 0.73858 0.00888 0.0
O130 O 0.83587 0.68057 0.04853 0.0
O131 O 0.83635 0.72486 0.06999 0.0
O132 O 0.88219 0.64591 0.01555 0.0
O133 O 0.86123 0.66293 0.98049 0.0
O134 O 0.82578 0.71311 0.00236 0.0
O135 O 0.85929 0.73694 0.01642 0.0
O136 O 0.90212 0.75613 0.02079 0.0
O137 O 0.90418 0.71115 0.00034 0.0
C138 C 0.8255 0.69927 0.06588 0.0
C139 C 0.91223 0.73811 0.00234 0.0
Dy140 Dy 0.54775 0.61811 0.24986 0.0
C141 C 0.48272 0.62147 0.34527 0.0
C142 C 0.58051 0.62382 0.20585 0.0
Dy143 Dy 0.50959 0.62981 0.29801 0.0
O144 O 0.58053 0.60164 0.22168 0.0
O145 O 0.56203 0.64253 0.21364 0.0
O146 O 0.56184 0.57674 0.26812 0.0
O147 O 0.55152 0.61137 0.29377 0.0
C148 C 0.55814 0.585 0.29291 0.0
C149 C 0.49703 0.65956 0.25231 0.0
O150 O 0.54248 0.66052 0.30929 0.0
O151 O 0.56512 0.6586 0.26822 0.0
O152 O 0.47801 0.64299 0.32899 0.0
O153 O 0.50195 0.60471 0.33568 0.0
O154 O 0.49085 0.66909 0.27629 0.0
O155 O 0.5062 0.63444 0.25455 0.0
O156 O 0.51072 0.59208 0.2369 0.0
O157 O 0.49093 0.5904 0.27941 0.0
C158 C 0.56094 0.67038 0.29236 0.0
C159 C 0.49247 0.58138 0.25394 0.0
Dy160 Dy 0.23365 0.42797 0.12152 0.0
C161 C 0.13496 0.49901 0.1175 0.0
C162 C 0.27844 0.39219 0.12996 0.0
Dy163 Dy 0.18338 0.4692 0.12782 0.0
O164 O 0.26203 0.39199 0.10875 0.0
O165 O 0.27088 0.41257 0.14626 0.0
O166 O 0.21568 0.41211 0.08267 0.0
O167 O 0.18871 0.42522 0.1137 0.0
C168 C 0.19009 0.41711 0.08933 0.0
C169 C 0.22939 0.48208 0.15729 0.0
O170 O 0.17096 0.43491 0.15592 0.0
O171 O 0.21497 0.4141 0.16073 0.0
O172 O 0.14742 0.49713 0.14109 0.0
O173 O 0.14908 0.4849 0.0996 0.0
O174 O 0.20453 0.48989 0.1646 0.0
O175 O 0.22785 0.47158 0.13407 0.0
O176 O 0.24703 0.46392 0.09495 0.0
O177 O 0.2031 0.48528 0.08994 0.0
C178 C 0.18908 0.41793 0.16893 0.0
C179 C 0.22946 0.48241 0.08269 0.0
Dy180 Dy 0.69222 0.00147 0.86021 0.0
C181 C 0.75639 0.10369 0.86274 0.0
C182 C 0.66113 0.95395 0.86667 0.0
Dy183 Dy 0.72842 0.05419 0.87002 0.0
O184 O 0.66168 0.96929 0.84478 0.0
O185 O 0.67813 0.96419 0.88482 0.0
O186 O 0.67798 0.01781 0.82005 0.0
O187 O 0.68745 0.0473 0.85118 0.0
C188 C 0.68136 0.04451 0.82619 0.0
C189 C 0.74012 0.00808 0.90129 0.0
O190 O 0.69435 0.0665 0.8976 0.0
O191 O 0.67346 0.02213 0.89722 0.0
O192 O 0.76199 0.08508 0.88175 0.0
O193 O 0.73552 0.09531 0.84792 0.0
O194 O 0.74402 0.03407 0.90976 0.0
O195 O 0.73303 0.00861 0.87677 0.0
O196 O 0.73015 0.98815 0.83697 0.0
O197 O 0.74782 0.03383 0.83353 0.0
C198 C 0.67655 0.04821 0.90743 0.0
C199 C 0.74749 0.00655 0.82612 0.0
Dy200 Dy 0.76317 0.94877 0.38331 0.0
C201 C 0.8608 0.01989 0.38598 0.0
C202 C 0.71776 0.91577 0.37318 0.0
Dy203 Dy 0.8129 0.99033 0.3773 0.0
O204 O 0.73198 0.91634 0.39587 0.0
O205 O 0.72781 0.93399 0.35633 0.0
O206 O 0.78225 0.9281 0.41993 0.0
O207 O 0.80819 0.94614 0.3908 0.0
C208 C 0.80729 0.93566 0.41441 0.0
C209 C 0.7658 0.00309 0.34874 0.0
O210 O 0.82295 0.96157 0.34309 0.0
O211 O 0.78279 0.9345 0.34419 0.0
O212 O 0.85917 0.99221 0.38511 0.0
O213 O 0.83625 0.03148 0.38172 0.0
O214 O 0.79027 0.0101 0.34042 0.0
O215 O 0.76816 0.99265 0.372 0.0
O216 O 0.75116 0.98519 0.41115 0.0
O217 O 0.79637 0.00018 0.41844 0.0
C218 C 0.80638 0.94193 0.3328 0.0
C219 C 0.76978 0.00052 0.42494 0.0
Dy220 Dy 0.31883 0.50848 0.63263 0.0
C221 C 0.24738 0.60771 0.62346 0.0
C222 C 0.35394 0.46242 0.62849 0.0
Dy223 Dy 0.27846 0.55859 0.61964 0.0
O224 O 0.35276 0.47941 0.64926 0.0
O225 O 0.33522 0.47006 0.61041 0.0
O226 O 0.33095 0.52808 0.67208 0.0
O227 O 0.31965 0.55464 0.63884 0.0
C228 C 0.32564 0.55407 0.66392 0.0
C229 C 0.27076 0.51066 0.59056 0.0
O230 O 0.3104 0.56968 0.58997 0.0
O231 O 0.33718 0.52799 0.59541 0.0
O232 O 0.23773 0.58307 0.61615 0.0
O233 O 0.27394 0.60552 0.62833 0.0
O234 O 0.26493 0.53608 0.58092 0.0
O235 O 0.27756 0.51252 0.61516 0.0
O236 O 0.28243 0.49555 0.65689 0.0
O237 O 0.2637 0.54161 0.65934 0.0
C238 C 0.33121 0.55255 0.58285 0.0
C239 C 0.26512 0.51465 0.66775 0.0
H240 H 0.14697 0.29628 0.49257 0.0
H241 H 0.16879 0.34113 0.50447 0.0
H242 H 0.24537 0.29557 0.52475 0.0
H243 H 0.2235 0.25008 0.51235 0.0
H244 H 0.19003 0.35278 0.55641 0.0
H245 H 0.27031 0.3643 0.47797 0.0
H246 H 0.24118 0.34084 0.47373 0.0
H247 H 0.27008 0.33055 0.49548 0.0
C248 C 0.1686 0.29571 0.49916 0.0
C249 C 0.18354 0.26961 0.50154 0.0
C250 C 0.18103 0.32143 0.50599 0.0
C251 C 0.20874 0.32177 0.51533 0.0
C252 C 0.22406 0.29584 0.51718 0.0
H253 H 0.27854 0.45764 0.61193 0.0
H254 H 0.26558 0.41192 0.59213 0.0
C255 C 0.21155 0.26989 0.51025 0.0
C256 C 0.2204 0.34914 0.52513 0.0
H257 H 0.26933 0.39923 0.51282 0.0
C258 C 0.2074 0.3629 0.54689 0.0
C259 C 0.24285 0.36244 0.51249 0.0
C260 C 0.25688 0.34899 0.48847 0.0
C261 C 0.21628 0.38948 0.55645 0.0
C262 C 0.239 0.4026 0.54414 0.0
C263 C 0.25195 0.38904 0.52224 0.0
C264 C 0.24972 0.43013 0.55446 0.0
C265 C 0.20106 0.40354 0.57951 0.0
C266 C 0.24585 0.45551 0.53947 0.0
C267 C 0.25333 0.48188 0.55076 0.0
C268 C 0.26484 0.4831 0.57715 0.0
C269 C 0.26964 0.45746 0.59158 0.0
C270 C 0.26223 0.43128 0.58033 0.0
H271 H 0.18053 0.39381 0.58277 0.0
H272 H 0.21373 0.40103 0.59847 0.0
H273 H 0.1978 0.42679 0.57567 0.0
H274 H 0.23621 0.45502 0.51943 0.0
H275 H 0.24949 0.50129 0.53918 0.0
H276 H 0.77971 0.03802 0.79329 0.0
H277 H 0.82371 0.0232 0.77339 0.0
H278 H 0.81247 0.93704 0.8016 0.0
H279 H 0.76838 0.95179 0.82193 0.0
H280 H 0.86328 0.96181 0.81832 0.0
H281 H 0.8445 0.97398 0.70742 0.0
H282 H 0.83414 0.00437 0.72739 0.0
H283 H 0.81657 0.97113 0.73108 0.0
C284 C 0.78625 0.01574 0.79474 0.0
C285 C 0.77062 0.99608 0.80929 0.0
C286 C 0.81137 0.0073 0.78324 0.0
C287 C 0.82129 0.97903 0.78596 0.0
C288 C 0.80508 0.95897 0.79925 0.0
H289 H 0.96011 0.88884 0.72211 0.0
H290 H 0.91526 0.91033 0.73289 0.0
C291 C 0.77981 0.96737 0.81068 0.0
C292 C 0.84974 0.97118 0.77735 0.0
H293 H 0.89131 0.96603 0.72231 0.0
C294 C 0.86945 0.96272 0.79733 0.0
C295 C 0.85766 0.97255 0.74998 0.0
C296 C 0.8371 0.98077 0.72765 0.0
C297 C 0.89688 0.95532 0.79066 0.0
C298 C 0.90486 0.9568 0.76331 0.0
C299 C 0.88519 0.96542 0.74332 0.0
C300 C 0.93248 0.94613 0.75474 0.0
C301 C 0.91688 0.94507 0.81275 0.0
C302 C 0.95716 0.95958 0.76291 0.0
C303 C 0.98312 0.94734 0.75655 0.0
C304 C 0.98454 0.92151 0.74209 0.0
C305 C 0.95974 0.9088 0.73322 0.0
C306 C 0.93402 0.92104 0.73935 0.0
H307 H 0.90624 0.94103 0.83209 0.0
H308 H 0.92785 0.92507 0.80648 0.0
H309 H 0.93278 0.96153 0.8165 0.0
H310 H 0.95632 0.97914 0.77463 0.0
H311 H 0.00194 0.95754 0.76362 0.0
H312 H 0.33129 0.72433 0.03511 0.0
H313 H 0.31177 0.67952 0.05105 0.0
H314 H 0.2721 0.66713 0.97286 0.0
H315 H 0.29153 0.71166 0.95673 0.0
H316 H 0.25584 0.65636 0.05155 0.0
H317 H 0.32776 0.59793 0.98324 0.0
H318 H 0.33182 0.63514 0.99193 0.0
H319 H 0.30606 0.62496 0.96705 0.0
C320 C 0.31772 0.71251 0.0216 0.0
C321 C 0.31316 0.72128 0.9946 0.0
C322 C 0.30675 0.68685 0.03067 0.0
C323 C 0.29113 0.66982 0.01285 0.0
C324 C 0.28462 0.67977 0.98666 0.0
H325 H 0.19983 0.51819 0.04882 0.0
H326 H 0.21572 0.56296 0.02968 0.0
C327 C 0.29561 0.70526 0.97757 0.0
C328 C 0.28334 0.64073 0.02084 0.0
H329 H 0.29478 0.57019 0.0059 0.0
C330 C 0.26431 0.63749 0.04163 0.0
C331 C 0.29488 0.61624 0.00807 0.0
C332 C 0.31646 0.61859 0.98649 0.0
C333 C 0.256 0.61027 0.04963 0.0
C334 C 0.26681 0.58583 0.0362 0.0
C335 C 0.2863 0.58904 0.01583 0.0
C336 C 0.25838 0.55675 0.04358 0.0
C337 C 0.23602 0.60783 0.07262 0.0
C338 C 0.27759 0.53769 0.05609 0.0
C339 C 0.26865 0.51193 0.06688 0.0
C340 C 0.24035 0.50502 0.06529 0.0
C341 C 0.2217 0.52308 0.05064 0.0
C342 C 0.23068 0.54873 0.03984 0.0
H343 H 0.23465 0.62787 0.08466 0.0
H344 H 0.21495 0.60338 0.06423 0.0
H345 H 0.24237 0.58994 0.08637 0.0
H346 H 0.29915 0.54349 0.05889 0.0
H347 H 0.28351 0.4985 0.07808 0.0
H348 H 0.5074 0.03925 0.29073 0.0
H349 H 0.55464 0.02282 0.30448 0.0
H350 H 0.58572 0.0523 0.22835 0.0
H351 H 0.53885 0.06872 0.21484 0.0
H352 H 0.59701 0.98591 0.28028 0.0
H353 H 0.62802 0.09958 0.28614 0.0
H354 H 0.59212 0.08918 0.28412 0.0
H355 H 0.61276 0.08913 0.25421 0.0
C356 C 0.52424 0.04151 0.27672 0.0
C357 C 0.51968 0.0556 0.25184 0.0
C358 C 0.5512 0.03228 0.28462 0.0
C359 C 0.57378 0.037 0.26768 0.0
C360 C 0.56874 0.04905 0.242 0.0
H361 H 0.7549 0.02393 0.29719 0.0
H362 H 0.7088 0.03049 0.27484 0.0
C363 C 0.54198 0.05837 0.23425 0.0
C364 C 0.60282 0.03129 0.27739 0.0
H365 H 0.66361 0.06461 0.29324 0.0
C366 C 0.61159 0.00308 0.28311 0.0
C367 C 0.62184 0.05376 0.281 0.0
C368 C 0.61325 0.08465 0.2763 0.0
C369 C 0.63895 0.99671 0.29223 0.0
C370 C 0.65787 0.01923 0.29609 0.0
C371 C 0.64918 0.04737 0.29001 0.0
C372 C 0.68591 0.01438 0.30869 0.0
C373 C 0.64741 0.96591 0.29755 0.0
C374 C 0.68824 0.00371 0.33517 0.0
C375 C 0.71425 0.00019 0.34786 0.0
C376 C 0.73865 0.00728 0.33444 0.0
C377 C 0.73645 0.01819 0.30795 0.0
C378 C 0.71019 0.02187 0.2952 0.0
H379 H 0.63392 0.95098 0.28605 0.0
H380 H 0.66939 0.96165 0.29207 0.0
H381 H 0.64534 0.96122 0.31945 0.0
H382 H 0.66983 0.99851 0.34626 0.0
H383 H 0.71515 0.99202 0.36839 0.0
H384 H 0.73478 0.26558 0.49157 0.0
H385 H 0.75625 0.21863 0.48044 0.0
H386 H 0.68884 0.17631 0.51896 0.0
H387 H 0.66762 0.22214 0.5295 0.0
H388 H 0.74124 0.15111 0.53112 0.0
H389 H 0.72125 0.16728 0.42047 0.0
H390 H 0.74165 0.19357 0.43801 0.0
H391 H 0.70556 0.19013 0.44561 0.0
C392 C 0.72495 0.24619 0.49801 0.0
C393 C 0.69963 0.24758 0.51167 0.0
C394 C 0.73709 0.21945 0.49155 0.0
C395 C 0.72401 0.19398 0.49879 0.0
C396 C 0.69942 0.19559 0.51334 0.0
H397 H 0.7184 0.0268 0.4272 0.0
H398 H 0.70791 0.07322 0.44812 0.0
C399 C 0.68736 0.22197 0.51953 0.0
C400 C 0.73416 0.16535 0.49001 0.0
H401 H 0.73698 0.12176 0.43461 0.0
C402 C 0.74076 0.14473 0.50999 0.0
C403 C 0.73284 0.157 0.46249 0.0
C404 C 0.72479 0.17799 0.4403 0.0
C405 C 0.74547 0.11586 0.50324 0.0
C406 C 0.74391 0.10748 0.47573 0.0
C407 C 0.73796 0.12822 0.45571 0.0
C408 C 0.74866 0.07741 0.46704 0.0
C409 C 0.75099 0.09444 0.52568 0.0
C410 C 0.77463 0.06388 0.47163 0.0
C411 C 0.78054 0.0373 0.45997 0.0
C412 C 0.76069 0.02381 0.44325 0.0
C413 C 0.73403 0.03645 0.44019 0.0
C414 C 0.72813 0.06313 0.45188 0.0
H415 H 0.74414 0.10278 0.54558 0.0
H416 H 0.74024 0.0741 0.5214 0.0
H417 H 0.77366 0.08967 0.52732 0.0
H418 H 0.7909 0.0746 0.48293 0.0
H419 H 0.80131 0.02815 0.46267 0.0
H420 H 0.05213 0.44124 0.80736 0.0
H421 H 0.09577 0.46274 0.79457 0.0
H422 H 0.074 0.45095 0.71011 0.0
H423 H 0.03008 0.42997 0.72267 0.0
H424 H 0.13692 0.43578 0.76759 0.0
H425 H 0.10117 0.53204 0.71042 0.0
H426 H 0.07841 0.51228 0.73177 0.0
H427 H 0.0853 0.50016 0.69789 0.0
C428 C 0.05638 0.44372 0.78604 0.0
C429 C 0.03765 0.43388 0.76601 0.0
C430 C 0.08135 0.45596 0.77879 0.0
C431 C 0.08803 0.45865 0.75141 0.0
C432 C 0.069 0.44966 0.73135 0.0
H433 H 0.24604 0.46067 0.67506 0.0
H434 H 0.20466 0.44748 0.69962 0.0
C435 C 0.04391 0.43758 0.73858 0.0
C436 C 0.1158 0.46866 0.74384 0.0
H437 H 0.14822 0.5161 0.70348 0.0
C438 C 0.13945 0.4536 0.75385 0.0
C439 C 0.11907 0.49211 0.72623 0.0
C440 C 0.09464 0.51027 0.71618 0.0
C441 C 0.16626 0.4607 0.7459 0.0
C442 C 0.16938 0.48305 0.72701 0.0
C443 C 0.1458 0.49878 0.7178 0.0
C444 C 0.19665 0.48995 0.71559 0.0
C445 C 0.19091 0.44421 0.75783 0.0
C446 C 0.20603 0.51812 0.71657 0.0
C447 C 0.22944 0.52577 0.70228 0.0
C448 C 0.24392 0.50535 0.68679 0.0
C449 C 0.23548 0.47679 0.68707 0.0
C450 C 0.21185 0.46921 0.70117 0.0
H451 H 0.18605 0.43486 0.77782 0.0
H452 H 0.19646 0.42632 0.74405 0.0
H453 H 0.20928 0.45801 0.76036 0.0
H454 H 0.19462 0.53444 0.72758 0.0
H455 H 0.23555 0.54793 0.70254 0.0
H456 H 0.75825 0.00102 0.95431 0.0
H457 H 0.77059 0.95539 0.97716 0.0
H458 H 0.7477 0.90936 0.90465 0.0
H459 H 0.73569 0.95426 0.88188 0.0
H460 H 0.73498 0.89908 0.981 0.0
H461 H 0.83367 0.89101 0.92443 0.0
H462 H 0.81554 0.9247 0.92988 0.0
H463 H 0.80271 0.90013 0.90488 0.0
C464 C 0.75568 0.98112 0.94342 0.0
C465 C 0.74617 0.98122 0.91629 0.0
C466 C 0.76259 0.95514 0.95647 0.0
C467 C 0.76009 0.9291 0.94249 0.0
C468 C 0.74981 0.92923 0.91574 0.0
H469 H 0.78206 0.74839 0.98595 0.0
H470 H 0.76163 0.79501 0.97182 0.0
C471 C 0.74299 0.95497 0.90277 0.0
C472 C 0.76997 0.90174 0.95476 0.0
H473 H 0.82112 0.85048 0.94946 0.0
C474 C 0.75389 0.88846 0.97433 0.0
C475 C 0.7946 0.88802 0.94589 0.0
C476 C 0.81283 0.90167 0.92524 0.0
C477 C 0.76178 0.8615 0.98508 0.0
C478 C 0.78617 0.84757 0.97578 0.0
C479 C 0.80231 0.8611 0.95642 0.0
C480 C 0.79644 0.8196 0.98666 0.0
C481 C 0.74427 0.84828 0.0065 0.0
C482 C 0.82263 0.81799 0.99961 0.0
C483 C 0.83428 0.79165 0.00736 0.0
C484 C 0.82004 0.76618 0.00242 0.0
C485 C 0.79342 0.7677 0.99011 0.0
C486 C 0.7817 0.79429 0.9822 0.0
H487 H 0.72931 0.86403 0.0152 0.0
H488 H 0.73227 0.83057 0.99738 0.0
H489 H 0.75764 0.83919 0.02314 0.0
H490 H 0.83443 0.83717 0.00312 0.0
H491 H 0.85493 0.79125 0.01652 0.0
H492 H 0.47282 0.57695 0.20157 0.0
H493 H 0.4285 0.55657 0.18663 0.0
H494 H 0.41462 0.52731 0.26795 0.0
H495 H 0.45884 0.54738 0.283 0.0
H496 H 0.39901 0.48765 0.22629 0.0
H497 H 0.3545 0.59703 0.20907 0.0
H498 H 0.38614 0.589 0.19161 0.0
H499 H 0.38658 0.59046 0.22798 0.0
C500 C 0.4607 0.5655 0.21611 0.0
C501 C 0.46926 0.56392 0.24351 0.0
C502 C 0.43524 0.55416 0.20761 0.0
C503 C 0.41804 0.54099 0.22633 0.0
C504 C 0.42747 0.53761 0.25324 0.0
H505 H 0.23857 0.51271 0.20429 0.0
H506 H 0.28402 0.52628 0.2239 0.0
C507 C 0.45277 0.54907 0.26178 0.0
C508 C 0.38957 0.53211 0.21837 0.0
H509 H 0.32609 0.55826 0.1964 0.0
C510 C 0.38304 0.50306 0.2198 0.0
C511 C 0.36861 0.55236 0.21049 0.0
C512 C 0.37411 0.584 0.20988 0.0
C513 C 0.35632 0.49361 0.21269 0.0
C514 C 0.33567 0.51375 0.20384 0.0
C515 C 0.34196 0.54288 0.20319 0.0
C516 C 0.30815 0.50475 0.19317 0.0
C517 C 0.35038 0.46215 0.21466 0.0
C518 C 0.30674 0.48846 0.1694 0.0
C519 C 0.28108 0.48095 0.15822 0.0
C520 C 0.25615 0.48949 0.17054 0.0
C521 C 0.25745 0.5057 0.19448 0.0
C522 C 0.28334 0.51346 0.20564 0.0
H523 H 0.36547 0.45086 0.22852 0.0
H524 H 0.32901 0.45876 0.22192 0.0
H525 H 0.35203 0.4523 0.19428 0.0
H526 H 0.32555 0.48202 0.15914 0.0
H527 H 0.28084 0.46876 0.13959 0.0
H528 H 0.55866 0.14825 0.26241 0.0
H529 H 0.58058 0.168 0.30349 0.0
H530 H 0.50262 0.20899 0.32416 0.0
H531 H 0.48105 0.19041 0.28297 0.0
H532 H 0.54481 0.24219 0.33636 0.0
H533 H 0.56616 0.13278 0.3767 0.0
H534 H 0.58265 0.14008 0.34524 0.0
H535 H 0.54532 0.13939 0.34642 0.0
C536 C 0.5465 0.16222 0.27531 0.0
C537 C 0.51809 0.16755 0.26971 0.0
C538 C 0.5589 0.17306 0.29898 0.0
C539 C 0.54294 0.18913 0.31728 0.0
C540 C 0.51521 0.19631 0.31051 0.0
H541 H 0.57194 0.22202 0.49035 0.0
H542 H 0.55475 0.2019 0.44695 0.0
C543 C 0.50292 0.1857 0.28693 0.0
C544 C 0.55432 0.19768 0.34408 0.0
H545 H 0.58129 0.17145 0.40396 0.0
C546 C 0.55282 0.22671 0.3511 0.0
C547 C 0.56407 0.17733 0.36354 0.0
C548 C 0.56444 0.14562 0.35778 0.0
C549 C 0.56103 0.23604 0.37693 0.0
C550 C 0.57187 0.21588 0.39599 0.0
C551 C 0.57309 0.18679 0.38919 0.0
C552 C 0.58346 0.22514 0.42241 0.0
C553 C 0.55763 0.26741 0.38369 0.0
C554 C 0.6058 0.24377 0.42284 0.0
C555 C 0.61514 0.25539 0.44715 0.0
C556 C 0.60271 0.2482 0.47164 0.0
C557 C 0.58159 0.228 0.47162 0.0
C558 C 0.57186 0.21658 0.44697 0.0
H559 H 0.54155 0.27808 0.37044 0.0
H560 H 0.55178 0.27052 0.40514 0.0
H561 H 0.57761 0.27819 0.38049 0.0
H562 H 0.61554 0.24997 0.40421 0.0
H563 H 0.632 0.27038 0.44674 0.0
H564 H 0.08845 0.29598 0.53167 0.0
H565 H 0.06927 0.31011 0.57547 0.0
H566 H 0.04126 0.22427 0.58769 0.0
H567 H 0.06048 0.20987 0.54413 0.0
H568 H 0.00184 0.27615 0.60124 0.0
H569 H 0.10789 0.27452 0.64897 0.0
H570 H 0.10324 0.29271 0.61696 0.0
H571 H 0.09973 0.25466 0.61851 0.0
C572 C 0.07768 0.28026 0.54339 0.0
C573 C 0.07608 0.25177 0.53446 0.0
C574 C 0.06691 0.28833 0.56847 0.0
C575 C 0.05414 0.26813 0.58486 0.0
C576 C 0.05115 0.24012 0.57535 0.0
H577 H 0.01891 0.28528 0.75867 0.0
H578 H 0.03116 0.26477 0.71433 0.0
C579 C 0.06214 0.23196 0.55045 0.0
C580 C 0.0453 0.27578 0.61256 0.0
H581 H 0.07077 0.29043 0.67612 0.0
C582 C 0.01685 0.27919 0.61766 0.0
C583 C 0.06495 0.27924 0.63398 0.0
C584 C 0.0957 0.27496 0.62958 0.0
C585 C 0.00758 0.28693 0.64352 0.0
C586 C 0.02731 0.2913 0.66474 0.0
C587 C 0.05571 0.28699 0.65982 0.0
C588 C 0.01901 0.30271 0.69149 0.0
C589 C 0.97679 0.29059 0.64799 0.0
C590 C 0.00848 0.33078 0.69326 0.0
C591 C 0.00184 0.34249 0.71834 0.0
C592 C 0.00538 0.32635 0.74226 0.0
C593 C 0.01582 0.29812 0.74055 0.0
C594 C 0.02279 0.28644 0.7153 0.0
H595 H 0.96428 0.2799 0.6319 0.0
H596 H 0.97115 0.28185 0.668 0.0
H597 H 0.97112 0.31373 0.64772 0.0
H598 H 0.00589 0.34388 0.67523 0.0
H599 H 0.99426 0.36444 0.71895 0.0
H600 H 0.95501 0.82902 0.76335 0.0
H601 H 0.9389 0.81278 0.80744 0.0
H602 H 0.01984 0.77499 0.82515 0.0
H603 H 0.03614 0.79115 0.78135 0.0
H604 H 0.93884 0.75807 0.83505 0.0
H605 H 0.00817 0.83652 0.88507 0.0
H606 H 0.99953 0.8377 0.84929 0.0
H607 H 0.02529 0.81246 0.86211 0.0
C608 C 0.96912 0.81652 0.77629 0.0
C609 C 0.99693 0.81163 0.76903 0.0
C610 C 0.95995 0.80746 0.80154 0.0
C611 C 0.97845 0.7934 0.81975 0.0
C612 C 0.00547 0.78641 0.81159 0.0
H613 H 0.94606 0.70727 0.96935 0.0
H614 H 0.96349 0.72234 0.92564 0.0
C615 C 0.01467 0.79549 0.78648 0.0
C616 C 0.9702 0.78755 0.84787 0.0
H617 H 0.98597 0.80378 0.91389 0.0
C618 C 0.94904 0.76809 0.8523 0.0
C619 C 0.98328 0.80111 0.87027 0.0
C620 C 0.00516 0.82333 0.86656 0.0
C621 C 0.94116 0.76115 0.87866 0.0
C622 C 0.95508 0.77377 0.90108 0.0
C623 C 0.97564 0.79389 0.89664 0.0
C624 C 0.94848 0.76608 0.92925 0.0
C625 C 0.91788 0.74047 0.88233 0.0
C626 C 0.93591 0.78621 0.94646 0.0
C627 C 0.92611 0.77772 0.97166 0.0
C628 C 0.92878 0.74898 0.97986 0.0
C629 C 0.94344 0.7295 0.96347 0.0
C630 C 0.95325 0.738 0.93841 0.0
H631 H 0.90505 0.73815 0.86349 0.0
H632 H 0.92686 0.71911 0.88774 0.0
H633 H 0.90415 0.74753 0.89896 0.0
H634 H 0.93231 0.80807 0.93977 0.0
H635 H 0.91478 0.79318 0.98377 0.0
H636 H 0.46494 0.70826 0.24189 0.0
H637 H 0.44654 0.72453 0.1973 0.0
H638 H 0.49001 0.65437 0.15891 0.0
H639 H 0.50763 0.63787 0.20279 0.0
H640 H 0.47336 0.73992 0.14907 0.0
H641 H 0.41014 0.64371 0.1325 0.0
H642 H 0.42492 0.65277 0.16524 0.0
H643 H 0.44592 0.63499 0.14034 0.0
C644 C 0.47062 0.6965 0.22387 0.0
C645 C 0.48762 0.67172 0.22587 0.0
C646 C 0.4601 0.70574 0.19845 0.0
C647 C 0.46639 0.69024 0.17483 0.0
C648 C 0.48427 0.66625 0.17686 0.0
H649 H 0.43515 0.69732 0.00124 0.0
H650 H 0.45104 0.68584 0.04783 0.0
C651 C 0.49457 0.657 0.20203 0.0
C652 C 0.45444 0.69866 0.14789 0.0
H653 H 0.41792 0.6725 0.09343 0.0
C654 C 0.46095 0.72536 0.13701 0.0
C655 C 0.43822 0.67961 0.13216 0.0
C656 C 0.42914 0.6513 0.14324 0.0
C657 C 0.45258 0.73306 0.11045 0.0
C658 C 0.43709 0.71363 0.09448 0.0
C659 C 0.43009 0.68721 0.10557 0.0
C660 C 0.42763 0.72047 0.06632 0.0
C661 C 0.46106 0.76158 0.09939 0.0
C662 C 0.40868 0.74316 0.06135 0.0
C663 C 0.39965 0.74956 0.0349 0.0
C664 C 0.40946 0.73367 0.01286 0.0
C665 C 0.42766 0.71028 0.01786 0.0
C666 C 0.43673 0.70376 0.04441 0.0
H667 H 0.47814 0.77103 0.11172 0.0
H668 H 0.46789 0.75944 0.07813 0.0
H669 H 0.44294 0.77668 0.09959 0.0
H670 H 0.40051 0.75566 0.07797 0.0
H671 H 0.38415 0.76622 0.03187 0.0
H672 H 0.17158 0.32108 0.40889 0.0
H673 H 0.18016 0.34633 0.36656 0.0
H674 H 0.09356 0.34006 0.3434 0.0
H675 H 0.0848 0.31452 0.38566 0.0
H676 H 0.16206 0.31411 0.31408 0.0
H677 H 0.12099 0.42583 0.32487 0.0
H678 H 0.13424 0.40539 0.35365 0.0
H679 H 0.10139 0.39679 0.33827 0.0
C680 C 0.15421 0.32581 0.39515 0.0
C681 C 0.12757 0.31573 0.40038 0.0
C682 C 0.15916 0.34016 0.37101 0.0
C683 C 0.13748 0.34495 0.35201 0.0
C684 C 0.11046 0.33669 0.35801 0.0
H685 H 0.13654 0.41395 0.18851 0.0
H686 H 0.12324 0.39462 0.23228 0.0
C687 C 0.10551 0.32215 0.3821 0.0
C688 C 0.14384 0.35495 0.32458 0.0
H689 H 0.13884 0.41262 0.28242 0.0
C690 C 0.15705 0.33564 0.30707 0.0
C691 C 0.13683 0.38286 0.31563 0.0
C692 C 0.12265 0.40412 0.33399 0.0
C693 C 0.16351 0.34355 0.28061 0.0
C694 C 0.15725 0.37179 0.27178 0.0
C695 C 0.14368 0.391 0.28927 0.0
C696 C 0.16517 0.38203 0.24471 0.0
C697 C 0.17649 0.3214 0.26227 0.0
C698 C 0.19313 0.38122 0.23717 0.0
C699 C 0.20076 0.3919 0.21207 0.0
C700 C 0.1806 0.40406 0.19424 0.0
C701 C 0.15257 0.40468 0.20177 0.0
C702 C 0.14493 0.39373 0.22679 0.0
H703 H 0.17184 0.29934 0.26889 0.0
H704 H 0.16904 0.3242 0.24096 0.0
H705 H 0.19942 0.32357 0.26295 0.0
H706 H 0.20918 0.37292 0.25095 0.0
H707 H 0.22258 0.39143 0.20705 0.0
H708 H 0.94867 0.92595 0.63642 0.0
H709 H 0.92379 0.93745 0.59378 0.0
H710 H 0.91506 0.84751 0.57732 0.0
H711 H 0.94021 0.83581 0.61984 0.0
H712 H 0.94239 0.914 0.53892 0.0
H713 H 0.83472 0.88783 0.568 0.0
H714 H 0.8613 0.89722 0.59267 0.0
H715 H 0.86195 0.86245 0.57734 0.0
C716 C 0.94104 0.90863 0.62392 0.0
C717 C 0.94624 0.87998 0.63142 0.0
C718 C 0.92703 0.91525 0.59954 0.0
C719 C 0.9177 0.89332 0.58249 0.0
C720 C 0.92206 0.8647 0.59033 0.0
H721 H 0.81994 0.88412 0.43572 0.0
H722 H 0.85093 0.87397 0.47456 0.0
C723 C 0.9363 0.85806 0.61461 0.0
C724 C 0.90414 0.90029 0.55607 0.0
H725 H 0.84179 0.89871 0.5221 0.0
C726 C 0.92037 0.91079 0.53514 0.0
C727 C 0.87551 0.89602 0.5514 0.0
C728 C 0.85717 0.88544 0.57351 0.0
C729 C 0.90875 0.91642 0.50924 0.0
C730 C 0.88006 0.91197 0.50447 0.0
C731 C 0.86383 0.90191 0.52567 0.0
C732 C 0.86611 0.91711 0.47772 0.0
C733 C 0.92743 0.92624 0.48708 0.0
C734 C 0.86528 0.94444 0.46575 0.0
C735 C 0.84802 0.95006 0.44302 0.0
C736 C 0.83113 0.92852 0.43238 0.0
C737 C 0.8331 0.90093 0.44345 0.0
C738 C 0.85062 0.8952 0.46574 0.0
H739 H 0.94965 0.92093 0.4918 0.0
H740 H 0.92162 0.91641 0.46734 0.0
H741 H 0.9253 0.94982 0.48497 0.0
H742 H 0.87654 0.96186 0.47496 0.0
H743 H 0.84619 0.97168 0.43526 0.0
H744 H 0.32811 0.61102 0.65019 0.0
H745 H 0.33403 0.65155 0.6817 0.0
H746 H 0.33341 0.59332 0.74939 0.0
H747 H 0.32765 0.55317 0.71843 0.0
H748 H 0.2966 0.65164 0.74832 0.0
H749 H 0.41107 0.65594 0.73362 0.0
H750 H 0.38724 0.65177 0.70516 0.0
H751 H 0.39313 0.6228 0.72848 0.0
C752 C 0.32895 0.60706 0.67182 0.0
C753 C 0.32756 0.57904 0.68195 0.0
C754 C 0.33237 0.6301 0.6897 0.0
C755 C 0.33418 0.62523 0.71776 0.0
C756 C 0.33203 0.5974 0.72778 0.0
H757 H 0.38586 0.68012 0.87082 0.0
H758 H 0.3769 0.65873 0.82622 0.0
C759 C 0.32885 0.57451 0.71006 0.0
C760 C 0.33953 0.64851 0.73721 0.0
H761 H 0.3931 0.67958 0.77183 0.0
C762 C 0.31754 0.6585 0.75307 0.0
C763 C 0.36695 0.65695 0.74339 0.0
C764 C 0.39111 0.64644 0.72686 0.0
C765 C 0.3225 0.67564 0.77595 0.0
C766 C 0.35014 0.68283 0.78297 0.0
C767 C 0.37196 0.67401 0.76629 0.0
C768 C 0.35704 0.69677 0.80906 0.0
C769 C 0.29844 0.68441 0.79345 0.0
C770 C 0.3492 0.72533 0.81391 0.0
C771 C 0.35437 0.73759 0.83932 0.0
C772 C 0.36739 0.7214 0.86019 0.0
C773 C 0.37578 0.69302 0.85507 0.0
C774 C 0.37073 0.68084 0.82965 0.0
H775 H 0.2787 0.67441 0.78678 0.0
H776 H 0.30296 0.67842 0.8149 0.0
H777 H 0.29543 0.708 0.79261 0.0
H778 H 0.3388 0.73799 0.79817 0.0
H779 H 0.3477 0.75954 0.84277 0.0
H780 H 0.58612 0.09659 0.15066 0.0
H781 H 0.61392 0.08939 0.10982 0.0
H782 H 0.53945 0.09812 0.05992 0.0
H783 H 0.51192 0.10579 0.10025 0.0
H784 H 0.61043 0.04769 0.07061 0.0
H785 H 0.59033 0.15401 0.02422 0.0
H786 H 0.58267 0.14646 0.0591 0.0
H787 H 0.55873 0.13657 0.03232 0.0
C788 C 0.57583 0.09717 0.13093 0.0
C789 C 0.54694 0.10196 0.12858 0.0
C790 C 0.59166 0.09304 0.10765 0.0
C791 C 0.57883 0.0938 0.08177 0.0
C792 C 0.54993 0.09821 0.07957 0.0
H793 H 0.635 0.01899 0.93172 0.0
H794 H 0.61227 0.03064 0.97425 0.0
C795 C 0.53419 0.1024 0.10269 0.0
C796 C 0.5952 0.08898 0.05694 0.0
H797 H 0.60756 0.1173 0.99468 0.0
C798 C 0.61007 0.06303 0.05411 0.0
C799 C 0.59507 0.10917 0.03556 0.0
C800 C 0.58108 0.13823 0.03803 0.0
C801 C 0.62395 0.05628 0.0301 0.0
C802 C 0.62238 0.07575 0.0081 0.0
C803 C 0.60838 0.10215 0.01134 0.0
C804 C 0.63526 0.06926 0.98162 0.0
C805 C 0.64037 0.02847 0.02867 0.0
C806 C 0.65477 0.08779 0.9709 0.0
C807 C 0.66748 0.08146 0.94634 0.0
C808 C 0.66093 0.05641 0.93195 0.0
C809 C 0.64071 0.03835 0.94232 0.0
C810 C 0.62787 0.04483 0.9668 0.0
H811 H 0.64641 0.02042 0.0492 0.0
H812 H 0.62736 0.01207 0.01867 0.0
H813 H 0.6595 0.03089 0.01678 0.0
H814 H 0.66063 0.1069 0.98184 0.0
H815 H 0.68297 0.09586 0.93903 0.0
H816 H 0.60903 0.23561 0.64556 0.0
H817 H 0.61669 0.20872 0.68767 0.0
H818 H 0.68074 0.15774 0.64975 0.0
H819 H 0.67335 0.18489 0.60752 0.0
H820 H 0.61187 0.15117 0.69729 0.0
H821 H 0.71964 0.18541 0.71946 0.0
H822 H 0.69709 0.20325 0.69474 0.0
H823 H 0.71495 0.17038 0.68623 0.0
C824 C 0.62468 0.21859 0.64616 0.0
C825 C 0.64064 0.21232 0.62332 0.0
C826 C 0.62909 0.20333 0.67026 0.0
C827 C 0.64966 0.18164 0.67202 0.0
C828 C 0.66521 0.17487 0.64902 0.0
H829 H 0.67186 0.03777 0.77271 0.0
H830 H 0.66351 0.07434 0.73831 0.0
C831 C 0.66078 0.19014 0.62484 0.0
C832 C 0.65413 0.16551 0.69769 0.0
H833 H 0.70358 0.14598 0.74539 0.0
C834 C 0.63183 0.15033 0.70797 0.0
C835 C 0.68004 0.16484 0.7119 0.0
C836 C 0.70424 0.18207 0.70271 0.0
C837 C 0.63514 0.13336 0.73129 0.0
C838 C 0.66147 0.13135 0.74455 0.0
C839 C 0.68344 0.14756 0.7351 0.0
C840 C 0.66722 0.10987 0.76607 0.0
C841 C 0.61063 0.11708 0.74124 0.0
C842 C 0.6726 0.11781 0.79313 0.0
C843 C 0.67728 0.09674 0.81312 0.0
C844 C 0.67696 0.06763 0.80607 0.0
C845 C 0.67207 0.06 0.77886 0.0
C846 C 0.66727 0.08086 0.75912 0.0
H847 H 0.59059 0.12644 0.73343 0.0
H848 H 0.61225 0.09462 0.73407 0.0
H849 H 0.61041 0.1168 0.76374 0.0
H850 H 0.67275 0.14018 0.79879 0.0
H851 H 0.68083 0.10316 0.83396 0.0
H852 H 0.13478 0.41242 0.10155 0.0
H853 H 0.09671 0.39944 0.06987 0.0
H854 H 0.15439 0.39794 0.00412 0.0
H855 H 0.19211 0.40982 0.03541 0.0
H856 H 0.07447 0.42465 0.02457 0.0
H857 H 0.12072 0.32041 0.99645 0.0
H858 H 0.13313 0.34042 0.02538 0.0
H859 H 0.14566 0.34779 0.99197 0.0
C860 C 0.13915 0.40922 0.08031 0.0
C861 C 0.16636 0.41158 0.07091 0.0
C862 C 0.11751 0.4018 0.0623 0.0
C863 C 0.12295 0.39679 0.03481 0.0
C864 C 0.1499 0.4006 0.0254 0.0
H865 H 0.03462 0.41889 0.88822 0.0
H866 H 0.05625 0.4223 0.93319 0.0
C867 C 0.17141 0.40761 0.04328 0.0
C868 C 0.10081 0.38825 0.01532 0.0
H869 H 0.09016 0.34291 0.96224 0.0
C870 C 0.07749 0.40641 0.01129 0.0
C871 C 0.10418 0.36391 0.99857 0.0
C872 C 0.12713 0.34187 0.00356 0.0
C873 C 0.05884 0.40227 0.98942 0.0
C874 C 0.0643 0.38001 0.97064 0.0
C875 C 0.08622 0.36041 0.97616 0.0
C876 C 0.04941 0.37812 0.94403 0.0
C877 C 0.03379 0.42211 0.98652 0.0
C878 C 0.03937 0.35185 0.93451 0.0
C879 C 0.02784 0.34966 0.90833 0.0
C880 C 0.02593 0.37377 0.89142 0.0
C881 C 0.03569 0.40003 0.90098 0.0
C882 C 0.04768 0.40209 0.92687 0.0
H883 H 0.02641 0.42903 0.00671 0.0
H884 H 0.03965 0.44161 0.9754 0.0
H885 H 0.01637 0.41184 0.97537 0.0
H886 H 0.04071 0.33298 0.94724 0.0
H887 H 0.02032 0.3292 0.9014 0.0
H888 H 0.7874 0.89186 0.31122 0.0
H889 H 0.80089 0.86935 0.26857 0.0
H890 H 0.8554 0.9392 0.25284 0.0
H891 H 0.84287 0.96123 0.29581 0.0
H892 H 0.7954 0.88685 0.21724 0.0
H893 H 0.90764 0.87241 0.24308 0.0
H894 H 0.88243 0.88288 0.26789 0.0
H895 H 0.89575 0.90895 0.245 0.0
C896 C 0.80241 0.90232 0.29876 0.0
C897 C 0.81435 0.92812 0.30707 0.0
C898 C 0.81004 0.88948 0.27436 0.0
C899 C 0.82956 0.90231 0.25773 0.0
C900 C 0.84094 0.92845 0.26568 0.0
H901 H 0.85191 0.83875 0.09087 0.0
H902 H 0.84176 0.87089 0.12901 0.0
C903 C 0.83366 0.94107 0.29024 0.0
C904 C 0.8378 0.88838 0.23201 0.0
H905 H 0.89372 0.86177 0.19799 0.0
C906 C 0.8169 0.88136 0.21299 0.0
C907 C 0.86586 0.8811 0.22659 0.0
C908 C 0.88918 0.88645 0.24682 0.0
C909 C 0.8232 0.86682 0.18893 0.0
C910 C 0.8513 0.85988 0.18336 0.0
C911 C 0.87223 0.86741 0.20214 0.0
C912 C 0.85924 0.84217 0.15968 0.0
C913 C 0.79958 0.85795 0.17034 0.0
C914 C 0.87358 0.8161 0.16412 0.0
C915 C 0.87984 0.79815 0.14247 0.0
C916 C 0.87174 0.8058 0.1159 0.0
C917 C 0.85825 0.83234 0.11121 0.0
C918 C 0.85222 0.85053 0.13298 0.0
H919 H 0.77926 0.85897 0.18061 0.0
H920 H 0.7982 0.87261 0.15266 0.0
H921 H 0.80308 0.83585 0.16273 0.0
H922 H 0.8793 0.80921 0.18449 0.0
H923 H 0.89029 0.77782 0.14669 0.0
H924 H 0.32519 0.60054 0.5513 0.0
H925 H 0.3519 0.61309 0.51167 0.0
H926 H 0.40267 0.5366 0.52232 0.0
H927 H 0.3759 0.52357 0.56179 0.0
H928 H 0.40931 0.62191 0.50671 0.0
H929 H 0.3737 0.53078 0.44368 0.0
H930 H 0.35685 0.54134 0.47454 0.0
H931 H 0.38881 0.52068 0.47598 0.0
C932 C 0.34205 0.58635 0.5453 0.0
C933 C 0.34825 0.56091 0.55964 0.0
C934 C 0.3573 0.59361 0.52265 0.0
C935 C 0.37893 0.57555 0.51386 0.0
C936 C 0.38568 0.55054 0.5285 0.0
H937 H 0.49168 0.57719 0.38012 0.0
H938 H 0.46693 0.56736 0.42175 0.0
C939 C 0.37042 0.54322 0.55114 0.0
C940 C 0.3943 0.58281 0.48925 0.0
H941 H 0.40925 0.55899 0.42575 0.0
C942 C 0.40925 0.60825 0.48894 0.0
C943 C 0.39405 0.56494 0.46614 0.0
C944 C 0.3773 0.53803 0.46488 0.0
C945 C 0.42449 0.616 0.46626 0.0
C946 C 0.42437 0.59802 0.44323 0.0
C947 C 0.40933 0.57267 0.44351 0.0
C948 C 0.43992 0.60489 0.41864 0.0
C949 C 0.44107 0.64301 0.46731 0.0
C950 C 0.43282 0.62922 0.40309 0.0
C951 C 0.44693 0.63489 0.37927 0.0
C952 C 0.4682 0.6162 0.37066 0.0
C953 C 0.47533 0.59195 0.38632 0.0
C954 C 0.46124 0.5863 0.41007 0.0
H955 H 0.44418 0.65078 0.48841 0.0
H956 H 0.46174 0.63953 0.45811 0.0
H957 H 0.42975 0.66002 0.45559 0.0
H958 H 0.41607 0.64355 0.40913 0.0
H959 H 0.441 0.65366 0.36746 0.0
H960 H 0.18621 0.22815 0.38824 0.0
H961 H 0.22477 0.21437 0.359 0.0
H962 H 0.24496 0.14266 0.41128 0.0
H963 H 0.20623 0.15574 0.4401 0.0
H964 H 0.27982 0.21078 0.3705 0.0
H965 H 0.24423 0.10388 0.33873 0.0
H966 H 0.22175 0.1294 0.35542 0.0
H967 H 0.24619 0.10756 0.37487 0.0
C968 C 0.19864 0.20924 0.39336 0.0
C969 C 0.19288 0.19295 0.41647 0.0
C970 C 0.22075 0.20142 0.37662 0.0
C971 C 0.23754 0.17714 0.3826 0.0
C972 C 0.2319 0.16098 0.40573 0.0
H973 H 0.39049 0.10166 0.32067 0.0
H974 H 0.34975 0.11526 0.34736 0.0
C975 C 0.20975 0.16865 0.42234 0.0
C976 C 0.26168 0.16937 0.36541 0.0
H977 H 0.29162 0.11428 0.33002 0.0
C978 C 0.28225 0.18976 0.36145 0.0
C979 C 0.26495 0.14192 0.35356 0.0
C980 C 0.24297 0.11954 0.35561 0.0
C981 C 0.30621 0.18324 0.3466 0.0
C982 C 0.30965 0.15567 0.3352 0.0
C983 C 0.28905 0.13534 0.33895 0.0
C984 C 0.3344 0.14759 0.31909 0.0
C985 C 0.32799 0.20571 0.34375 0.0
C986 C 0.33913 0.16102 0.29423 0.0
C987 C 0.36227 0.15322 0.27896 0.0
C988 C 0.38114 0.13181 0.28824 0.0
C989 C 0.37635 0.11828 0.31307 0.0
C990 C 0.35308 0.126 0.32829 0.0
H991 H 0.32526 0.22338 0.35856 0.0
H992 H 0.34921 0.19616 0.34657 0.0
H993 H 0.3264 0.21497 0.32306 0.0
H994 H 0.32477 0.1774 0.28653 0.0
H995 H 0.36537 0.16394 0.25984 0.0
H996 H 0.14858 0.14009 0.57273 0.0
H997 H 0.13939 0.09813 0.60069 0.0
H998 H 0.10832 0.0538 0.53 0.0
H999 H 0.11753 0.09555 0.50197 0.0
H1000 H 0.08567 0.07503 0.60572 0.0
H1001 H 0.16186 0.99468 0.56731 0.0
H1002 H 0.16534 0.03268 0.56214 0.0
H1003 H 0.14142 0.01283 0.5414 0.0
C1004 C 0.14021 0.1212 0.56313 0.0
C1005 C 0.13376 0.12094 0.53526 0.0
C1006 C 0.13496 0.09734 0.57909 0.0
C1007 C 0.12347 0.07285 0.5673 0.0
C1008 C 0.11766 0.07233 0.53934 0.0
H1009 H 0.02714 0.94081 0.63929 0.0
H1010 H 0.04468 0.98019 0.61243 0.0
C1011 C 0.1228 0.0962 0.52342 0.0
C1012 C 0.11539 0.04874 0.58451 0.0
H1013 H 0.12591 0.97716 0.59495 0.0
C1014 C 0.0946 0.05367 0.60354 0.0
C1015 C 0.12724 0.02102 0.58164 0.0
C1016 C 0.15039 0.01492 0.5622 0.0
C1017 C 0.08481 0.03135 0.6194 0.0
C1018 C 0.09594 0.00342 0.61584 0.0
C1019 C 0.11726 0.99861 0.59734 0.0
C1020 C 0.08571 0.97896 0.63131 0.0
C1021 C 0.06269 0.03779 0.63988 0.0
C1022 C 0.10326 0.96492 0.65029 0.0
C1023 C 0.09336 0.94243 0.66566 0.0
C1024 C 0.06578 0.93347 0.66212 0.0
C1025 C 0.04846 0.94721 0.64258 0.0
C1026 C 0.05837 0.96979 0.6273 0.0
H1027 H 0.06087 0.06103 0.64435 0.0
H1028 H 0.0423 0.03067 0.63175 0.0
H1029 H 0.06723 0.02609 0.65912 0.0
H1030 H 0.12447 0.9717 0.65352 0.0
H1031 H 0.10731 0.93223 0.68043 0.0
H1032 H 0.11756 0.89279 0.81026 0.0
H1033 H 0.16014 0.88601 0.83805 0.0
H1034 H 0.18943 0.82149 0.78246 0.0
H1035 H 0.14695 0.82815 0.75463 0.0
H1036 H 0.1795 0.83323 0.86246 0.0
H1037 H 0.25541 0.87732 0.79112 0.0
H1038 H 0.21846 0.88486 0.78813 0.0
H1039 H 0.2325 0.85107 0.77699 0.0
C1040 C 0.13315 0.87726 0.80395 0.0
C1041 C 0.12905 0.86101 0.78033 0.0
C1042 C 0.15742 0.87343 0.81979 0.0
C1043 C 0.17804 0.85354 0.81208 0.0
C1044 C 0.17396 0.83729 0.78849 0.0
H1045 H 0.30939 0.77475 0.91027 0.0
H1046 H 0.27104 0.78527 0.87818 0.0
C1047 C 0.14964 0.84099 0.77273 0.0
C1048 C 0.20328 0.84886 0.82936 0.0
H1049 H 0.27409 0.85356 0.83026 0.0
C1050 C 0.20017 0.83776 0.85548 0.0
C1051 C 0.23016 0.85503 0.82021 0.0
C1052 C 0.23447 0.86796 0.79267 0.0
C1053 C 0.22334 0.83211 0.87256 0.0
C1054 C 0.25028 0.83752 0.86315 0.0
C1055 C 0.25339 0.8492 0.83725 0.0
C1056 C 0.27536 0.83117 0.88016 0.0
C1057 C 0.21885 0.82053 0.90063 0.0
C1058 C 0.29109 0.85349 0.89106 0.0
C1059 C 0.31308 0.84755 0.90938 0.0
C1060 C 0.31967 0.81919 0.91691 0.0
C1061 C 0.30474 0.79682 0.9049 0.0
C1062 C 0.28276 0.80278 0.88666 0.0
H1063 H 0.19684 0.8231 0.90673 0.0
H1064 H 0.22446 0.79739 0.90107 0.0
H1065 H 0.23234 0.83146 0.91577 0.0
H1066 H 0.28571 0.87554 0.88615 0.0
H1067 H 0.32432 0.86517 0.9183 0.0
H1068 H 0.41093 0.02755 0.21379 0.0
H1069 H 0.39395 0.98356 0.19292 0.0
H1070 H 0.44106 0.00085 0.12154 0.0
H1071 H 0.45924 0.04388 0.14291 0.0
H1072 H 0.3639 0.97219 0.15036 0.0
H1073 H 0.46713 0.92141 0.13646 0.0
H1074 H 0.46255 0.95359 0.15611 0.0
H1075 H 0.46548 0.9554 0.11976 0.0
C1076 C 0.41767 0.02186 0.19366 0.0
C1077 C 0.43662 0.03885 0.18003 0.0
C1078 C 0.40798 0.99675 0.18178 0.0
C1079 C 0.41682 0.98848 0.15596 0.0
C1080 C 0.4348 0.00618 0.14189 0.0
H1081 H 0.33938 0.8819 0.03811 0.0
H1082 H 0.34886 0.91782 0.07279 0.0
C1083 C 0.44499 0.03089 0.154 0.0
C1084 C 0.40703 0.96159 0.14346 0.0
H1085 H 0.42984 0.90317 0.10856 0.0
C1086 C 0.37832 0.95682 0.14158 0.0
C1087 C 0.4258 0.94101 0.13279 0.0
C1088 C 0.45694 0.94297 0.1367 0.0
C1089 C 0.36785 0.93282 0.12802 0.0
C1090 C 0.38657 0.91378 0.11502 0.0
C1091 C 0.41532 0.91785 0.11814 0.0
C1092 C 0.37718 0.89062 0.09661 0.0
C1093 C 0.33691 0.92821 0.12798 0.0
C1094 C 0.38998 0.86333 0.09818 0.0
C1095 C 0.38543 0.84326 0.07773 0.0
C1096 C 0.36741 0.84987 0.05581 0.0
C1097 C 0.35308 0.87628 0.0551 0.0
C1098 C 0.35832 0.89673 0.07508 0.0
H1099 H 0.32763 0.93659 0.14689 0.0
H1100 H 0.32693 0.94013 0.11079 0.0
H1101 H 0.33193 0.90522 0.12601 0.0
H1102 H 0.40455 0.85802 0.11456 0.0
H1103 H 0.39667 0.82292 0.0786 0.0
H1104 H 0.91395 0.34597 0.68205 0.0
H1105 H 0.87215 0.33973 0.65364 0.0
H1106 H 0.84366 0.42502 0.67394 0.0
H1107 H 0.88538 0.4314 0.70239 0.0
H1108 H 0.80718 0.37955 0.68743 0.0
H1109 H 0.84126 0.3738 0.58067 0.0
H1110 H 0.86164 0.3525 0.60443 0.0
H1111 H 0.8615 0.39079 0.60717 0.0
C1112 C 0.89917 0.36368 0.67977 0.0
C1113 C 0.90269 0.38908 0.69449 0.0
C1114 C 0.87538 0.36012 0.66352 0.0
C1115 C 0.85494 0.38195 0.66175 0.0
C1116 C 0.85931 0.408 0.67506 0.0
H1117 H 0.69998 0.37291 0.56886 0.0
H1118 H 0.74187 0.39005 0.59181 0.0
C1119 C 0.88313 0.41162 0.69121 0.0
C1120 C 0.82759 0.3762 0.64909 0.0
H1121 H 0.7955 0.35815 0.58945 0.0
C1122 C 0.80451 0.37516 0.66595 0.0
C1123 C 0.82435 0.37052 0.62113 0.0
C1124 C 0.84843 0.37215 0.60218 0.0
C1125 C 0.77827 0.36782 0.65564 0.0
C1126 C 0.77521 0.36129 0.62785 0.0
C1127 C 0.79809 0.36308 0.61082 0.0
C1128 C 0.74851 0.35193 0.61607 0.0
C1129 C 0.75402 0.36694 0.67447 0.0
C1130 C 0.73827 0.32501 0.62257 0.0
C1131 C 0.71436 0.31503 0.60946 0.0
C1132 C 0.70039 0.33189 0.58964 0.0
C1133 C 0.71018 0.35936 0.58403 0.0
C1134 C 0.73416 0.3692 0.59703 0.0
H1135 H 0.75852 0.37802 0.69394 0.0
H1136 H 0.73515 0.37697 0.66479 0.0
H1137 H 0.74935 0.34433 0.67899 0.0
H1138 H 0.74931 0.31134 0.63712 0.0
H1139 H 0.7074 0.29378 0.61423 0.0
H1140 H 0.93978 0.4038 0.85992 0.0
H1141 H 0.92824 0.43483 0.89871 0.0
H1142 H 0.92998 0.50886 0.84677 0.0
H1143 H 0.94123 0.47835 0.80828 0.0
H1144 H 0.96193 0.5058 0.90579 0.0
H1145 H 0.84804 0.48672 0.89717 0.0
H1146 H 0.87319 0.45782 0.89331 0.0
H1147 H 0.86928 0.48461 0.8675 0.0
C1148 C 0.93784 0.42671 0.85694 0.0
C1149 C 0.94117 0.43872 0.83113 0.0
C1150 C 0.93128 0.44432 0.87901 0.0
C1151 C 0.92821 0.47402 0.8754 0.0
C1152 C 0.93227 0.48597 0.84984 0.0
H1153 H 0.86058 0.62702 0.93856 0.0
H1154 H 0.87367 0.58331 0.91408 0.0
C1155 C 0.93863 0.4685 0.8279 0.0
C1156 C 0.91987 0.49312 0.89773 0.0
H1157 H 0.86235 0.52515 0.92462 0.0
C1158 C 0.94025 0.50968 0.9105 0.0
C1159 C 0.89154 0.49819 0.90335 0.0
C1160 C 0.86907 0.48098 0.88973 0.0
C1161 C 0.9329 0.53215 0.92799 0.0
C1162 C 0.90443 0.53796 0.93285 0.0
C1163 C 0.88414 0.5206 0.92086 0.0
C1164 C 0.89522 0.56341 0.9484 0.0
C1165 C 0.95554 0.5505 0.93988 0.0
C1166 C 0.90257 0.56643 0.97589 0.0
C1167 C 0.89521 0.59139 0.98984 0.0
C1168 C 0.88021 0.61361 0.97653 0.0
C1169 C 0.87216 0.61022 0.94925 0.0
C1170 C 0.87958 0.58527 0.93531 0.0
H1171 H 0.97584 0.54647 0.93011 0.0
H1172 H 0.94986 0.57355 0.93772 0.0
H1173 H 0.95821 0.54573 0.96182 0.0
H1174 H 0.91426 0.54963 0.98647 0.0
H1175 H 0.9016 0.59344 0.01092 0.0
H1176 H 0.79596 0.65026 0.06056 0.0
H1177 H 0.7526 0.63853 0.08218 0.0
H1178 H 0.75313 0.71904 0.12473 0.0
H1179 H 0.79679 0.7311 0.10323 0.0
H1180 H 0.74204 0.67013 0.15735 0.0
H1181 H 0.67516 0.67534 0.06423 0.0
H1182 H 0.70603 0.65327 0.0614 0.0
H1183 H 0.70908 0.69114 0.06636 0.0
C1184 C 0.78698 0.66555 0.07453 0.0
C1185 C 0.79986 0.69172 0.08007 0.0
C1186 C 0.76205 0.65885 0.08671 0.0
C1187 C 0.74946 0.67814 0.10462 0.0
C1188 C 0.76247 0.70399 0.11073 0.0
H1189 H 0.5855 0.67137 0.1746 0.0
H1190 H 0.62595 0.68442 0.14823 0.0
C1191 C 0.78742 0.71081 0.09847 0.0
C1192 C 0.72305 0.67088 0.11746 0.0
H1193 H 0.65516 0.65533 0.10345 0.0
C1194 C 0.723 0.66703 0.14562 0.0
C1195 C 0.69824 0.66712 0.10205 0.0
C1196 C 0.69692 0.67216 0.07185 0.0
C1197 C 0.6989 0.65881 0.15876 0.0
C1198 C 0.67435 0.65407 0.14325 0.0
C1199 C 0.67416 0.65863 0.11517 0.0
C1200 C 0.64863 0.64473 0.1561 0.0
C1201 C 0.69978 0.65539 0.18918 0.0
C1202 C 0.64767 0.61767 0.16825 0.0
C1203 C 0.6246 0.61012 0.18315 0.0
C1204 C 0.60221 0.62957 0.18612 0.0
C1205 C 0.60252 0.656 0.17262 0.0
C1206 C 0.62558 0.6635 0.15763 0.0
H1207 H 0.7183 0.66554 0.19859 0.0
H1208 H 0.68076 0.66491 0.19821 0.0
H1209 H 0.70065 0.63228 0.1943 0.0
H1210 H 0.66517 0.60278 0.16695 0.0
H1211 H 0.62486 0.58959 0.19334 0.0
H1212 H 0.5848 0.38081 0.46238 0.0
H1213 H 0.57322 0.42223 0.43372 0.0
H1214 H 0.658 0.45001 0.44135 0.0
H1215 H 0.6699 0.40784 0.46919 0.0
H1216 H 0.57438 0.47873 0.44157 0.0
H1217 H 0.64797 0.44893 0.36068 0.0
H1218 H 0.64042 0.42503 0.38805 0.0
H1219 H 0.66441 0.45362 0.3933 0.0
C1220 C 0.601 0.39569 0.45783 0.0
C1221 C 0.62834 0.39093 0.46769 0.0
C1222 C 0.59433 0.41945 0.44156 0.0
C1223 C 0.6148 0.43909 0.43495 0.0
C1224 C 0.64198 0.43482 0.44554 0.0
H1225 H 0.56815 0.59935 0.3465 0.0
H1226 H 0.58236 0.56639 0.38349 0.0
C1227 C 0.64876 0.41079 0.46153 0.0
C1228 C 0.60761 0.46346 0.41644 0.0
H1229 H 0.62329 0.49264 0.35538 0.0
C1230 C 0.58513 0.48187 0.42275 0.0
C1231 C 0.6215 0.46745 0.39177 0.0
C1232 C 0.64473 0.44758 0.38286 0.0
C1233 C 0.57579 0.50365 0.40484 0.0
C1234 C 0.58972 0.50759 0.38021 0.0
C1235 C 0.61268 0.48972 0.37431 0.0
C1236 C 0.57952 0.52809 0.35894 0.0
C1237 C 0.55038 0.52139 0.4119 0.0
C1238 C 0.57328 0.51766 0.33291 0.0
C1239 C 0.5657 0.53634 0.3119 0.0
C1240 C 0.56395 0.56597 0.31637 0.0
C1241 C 0.56925 0.57657 0.34258 0.0
C1242 C 0.57723 0.55774 0.36371 0.0
H1243 H 0.5385 0.51148 0.42837 0.0
H1244 H 0.55695 0.5428 0.41891 0.0
H1245 H 0.53632 0.52441 0.39393 0.0
H1246 H 0.57469 0.49494 0.3287 0.0
H1247 H 0.56153 0.52752 0.29196 0.0
H1248 H 0.2905 0.34495 0.10023 0.0
H1249 H 0.31882 0.30334 0.1144 0.0
H1250 H 0.34008 0.34569 0.18949 0.0
H1251 H 0.31118 0.38725 0.17561 0.0
H1252 H 0.37358 0.29785 0.12734 0.0
H1253 H 0.31022 0.26983 0.21572 0.0
H1254 H 0.29841 0.29535 0.19029 0.0
H1255 H 0.32264 0.30576 0.21655 0.0
C1256 C 0.30143 0.34549 0.11965 0.0
C1257 C 0.29862 0.36917 0.13691 0.0
C1258 C 0.31747 0.32168 0.12776 0.0
C1259 C 0.33095 0.32119 0.15326 0.0
C1260 C 0.32919 0.34536 0.17005 0.0
H1261 H 0.46624 0.20977 0.20041 0.0
H1262 H 0.4335 0.24965 0.19276 0.0
C1263 C 0.313 0.36918 0.16198 0.0
C1264 C 0.3472 0.29545 0.1619 0.0
H1265 H 0.35325 0.2441 0.21109 0.0
C1266 C 0.36904 0.28604 0.14557 0.0
C1267 C 0.34088 0.2798 0.18547 0.0
C1268 C 0.31659 0.28798 0.20291 0.0
C1269 C 0.38521 0.26179 0.15249 0.0
C1270 C 0.37974 0.24692 0.17668 0.0
C1271 C 0.35746 0.25579 0.19271 0.0
C1272 C 0.39793 0.22289 0.18591 0.0
C1273 C 0.40807 0.25225 0.13381 0.0
C1274 C 0.3883 0.19475 0.18613 0.0
C1275 C 0.40702 0.17179 0.19079 0.0
C1276 C 0.4354 0.17698 0.19508 0.0
C1277 C 0.44448 0.20525 0.19671 0.0
C1278 C 0.42586 0.22802 0.19235 0.0
H1279 H 0.40483 0.26112 0.11306 0.0
H1280 H 0.42829 0.25992 0.14188 0.0
H1281 H 0.4094 0.22856 0.13246 0.0
H1282 H 0.36669 0.19051 0.18136 0.0
H1283 H 0.39963 0.15011 0.18952 0.0
H1284 H 0.92952 0.30639 0.84846 0.0
H1285 H 0.89762 0.26806 0.85815 0.0
H1286 H 0.85394 0.28421 0.78225 0.0
H1287 H 0.88622 0.32223 0.772 0.0
H1288 H 0.84135 0.26822 0.86369 0.0
H1289 H 0.87187 0.19935 0.77715 0.0
H1290 H 0.89149 0.23007 0.78752 0.0
H1291 H 0.86003 0.23463 0.76747 0.0
C1292 C 0.91311 0.30189 0.83379 0.0
C1293 C 0.91057 0.31729 0.80934 0.0
C1294 C 0.89488 0.27995 0.8394 0.0
C1295 C 0.87372 0.27293 0.82072 0.0
C1296 C 0.87055 0.2888 0.79666 0.0
H1297 H 0.748 0.14198 0.82177 0.0
H1298 H 0.77532 0.18428 0.81218 0.0
C1299 C 0.88893 0.31065 0.79091 0.0
C1300 C 0.85512 0.24891 0.82655 0.0
H1301 H 0.8341 0.18401 0.80301 0.0
C1302 C 0.83978 0.2498 0.85044 0.0
C1303 C 0.85317 0.22484 0.80927 0.0
C1304 C 0.87019 0.22193 0.78405 0.0
C1305 C 0.82238 0.22736 0.8574 0.0
C1306 C 0.82048 0.20335 0.84013 0.0
C1307 C 0.83558 0.20254 0.81614 0.0
C1308 C 0.8033 0.17853 0.84676 0.0
C1309 C 0.80593 0.22961 0.88301 0.0
C1310 C 0.81011 0.16129 0.86933 0.0
C1311 C 0.79461 0.13709 0.87481 0.0
C1312 C 0.77212 0.12979 0.85775 0.0
C1313 C 0.76521 0.14719 0.83529 0.0
C1314 C 0.78078 0.17131 0.82977 0.0
H1315 H 0.80469 0.25194 0.89066 0.0
H1316 H 0.78449 0.22181 0.87962 0.0
H1317 H 0.8162 0.2161 0.89896 0.0
H1318 H 0.82772 0.16627 0.88242 0.0
H1319 H 0.80042 0.12393 0.89218 0.0
H1320 H 0.11337 0.51399 0.06805 0.0
H1321 H 0.07168 0.5435 0.05826 0.0
H1322 H 0.05531 0.54836 0.14378 0.0
H1323 H 0.09777 0.52001 0.15369 0.0
H1324 H 0.01724 0.539 0.06679 0.0
H1325 H 0.05784 0.63131 0.12487 0.0
H1326 H 0.07902 0.60006 0.1178 0.0
H1327 H 0.05486 0.59978 0.14516 0.0
C1328 C 0.10084 0.5214 0.08473 0.0
C1329 C 0.10894 0.51521 0.11163 0.0
C1330 C 0.07697 0.53812 0.07912 0.0
C1331 C 0.06067 0.54865 0.10031 0.0
C1332 C 0.068 0.54118 0.12715 0.0
H1333 H 0.90092 0.64166 0.07404 0.0
H1334 H 0.93547 0.60293 0.08246 0.0
C1335 C 0.09217 0.52492 0.1328 0.0
C1336 C 0.03686 0.56855 0.0943 0.0
H1337 H 0.01188 0.63578 0.10761 0.0
C1338 C 0.01601 0.56019 0.07569 0.0
C1339 C 0.0355 0.59632 0.10567 0.0
C1340 C 0.05812 0.60755 0.12426 0.0
C1341 C 0.99399 0.57895 0.06796 0.0
C1342 C 0.99246 0.6065 0.07974 0.0
C1343 C 0.01304 0.6146 0.09867 0.0
C1344 C 0.97084 0.62822 0.07181 0.0
C1345 C 0.9732 0.56949 0.04663 0.0
C1346 C 0.97918 0.65518 0.063 0.0
C1347 C 0.95968 0.67727 0.05886 0.0
C1348 C 0.93138 0.67279 0.06306 0.0
C1349 C 0.92268 0.64549 0.07055 0.0
C1350 C 0.94237 0.62337 0.07519 0.0
H1351 H 0.98131 0.55108 0.03471 0.0
H1352 H 0.95399 0.56271 0.05662 0.0
H1353 H 0.96754 0.58724 0.03246 0.0
H1354 H 0.00098 0.65939 0.06011 0.0
H1355 H 0.96686 0.69809 0.05284 0.0
H1356 H 0.68827 0.91036 0.32553 0.0
H1357 H 0.65946 0.87009 0.3114 0.0
H1358 H 0.67281 0.83103 0.38989 0.0
H1359 H 0.70162 0.87112 0.40408 0.0
H1360 H 0.68532 0.79478 0.34496 0.0
H1361 H 0.58049 0.84658 0.33416 0.0
H1362 H 0.60815 0.86424 0.31739 0.0
H1363 H 0.60844 0.86228 0.35372 0.0
C1364 C 0.68461 0.89343 0.33992 0.0
C1365 C 0.69716 0.89386 0.36591 0.0
C1366 C 0.66812 0.87047 0.33184 0.0
C1367 C 0.66391 0.84759 0.34963 0.0
C1368 C 0.67576 0.84846 0.37586 0.0
H1369 H 0.55462 0.70347 0.33768 0.0
H1370 H 0.58 0.74622 0.35058 0.0
C1371 C 0.69211 0.87144 0.38398 0.0
C1372 C 0.64873 0.82186 0.34046 0.0
H1373 H 0.58494 0.79848 0.31954 0.0
C1374 C 0.66338 0.79558 0.33938 0.0
C1375 C 0.62009 0.82294 0.33331 0.0
C1376 C 0.60321 0.85044 0.33485 0.0
C1377 C 0.65018 0.77037 0.33125 0.0
C1378 C 0.62161 0.77148 0.32384 0.0
C1379 C 0.6069 0.79773 0.32505 0.0
C1380 C 0.60641 0.74541 0.3157 0.0
C1381 C 0.66675 0.74259 0.33116 0.0
C1382 C 0.61277 0.73075 0.29171 0.0
C1383 C 0.59824 0.70623 0.28419 0.0
C1384 C 0.57709 0.69586 0.30057 0.0
C1385 C 0.57085 0.71066 0.32461 0.0
C1386 C 0.58526 0.73522 0.332 0.0
H1387 H 0.68691 0.74434 0.34241 0.0
H1388 H 0.65476 0.72516 0.34029 0.0
H1389 H 0.67118 0.7365 0.30993 0.0
H1390 H 0.62881 0.73844 0.27867 0.0
H1391 H 0.60354 0.69551 0.26549 0.0
H1392 H 0.59957 0.36359 0.57132 0.0
H1393 H 0.55986 0.39432 0.58458 0.0
H1394 H 0.50315 0.33232 0.5519 0.0
H1395 H 0.54236 0.30166 0.53899 0.0
H1396 H 0.5061 0.41514 0.55339 0.0
H1397 H 0.4922 0.33829 0.63765 0.0
H1398 H 0.52456 0.34125 0.62005 0.0
H1399 H 0.49614 0.32234 0.60477 0.0
C1400 C 0.57861 0.35705 0.56632 0.0
C1401 C 0.5738 0.33023 0.55455 0.0
C1402 C 0.55605 0.37447 0.57395 0.0
C1403 C 0.52878 0.36515 0.56959 0.0
C1404 C 0.52413 0.33956 0.55569 0.0
H1405 H 0.36355 0.43269 0.58225 0.0
H1406 H 0.40743 0.40936 0.56959 0.0
C1407 C 0.54649 0.32216 0.54832 0.0
C1408 C 0.50499 0.38026 0.58173 0.0
H1409 H 0.45468 0.37115 0.62837 0.0
C1410 C 0.49499 0.40582 0.56999 0.0
C1411 C 0.4909 0.36805 0.60359 0.0
C1412 C 0.50157 0.34109 0.61747 0.0
C1413 C 0.47031 0.41891 0.57886 0.0
C1414 C 0.45531 0.40571 0.59962 0.0
C1415 C 0.46609 0.38091 0.6122 0.0
C1416 C 0.42811 0.41712 0.6082 0.0
C1417 C 0.46034 0.44658 0.56585 0.0
C1418 C 0.4249 0.42759 0.63458 0.0
C1419 C 0.39982 0.44066 0.64193 0.0
C1420 C 0.37769 0.44324 0.62299 0.0
C1421 C 0.38035 0.43099 0.59719 0.0
C1422 C 0.40543 0.41798 0.58985 0.0
H1423 H 0.47742 0.45749 0.55547 0.0
H1424 H 0.44383 0.44201 0.55049 0.0
H1425 H 0.4514 0.46137 0.58113 0.0
H1426 H 0.44215 0.42671 0.64908 0.0
H1427 H 0.39825 0.44998 0.66195 0.0
H1428 H 0.26555 0.66015 0.63858 0.0
H1429 H 0.23696 0.70202 0.6511 0.0
H1430 H 0.16263 0.6552 0.63276 0.0
H1431 H 0.19102 0.61335 0.62008 0.0
H1432 H 0.18979 0.73155 0.61793 0.0
H1433 H 0.15993 0.6827 0.71544 0.0
H1434 H 0.19055 0.67133 0.69741 0.0
H1435 H 0.15678 0.66014 0.68605 0.0
C1436 C 0.24311 0.65895 0.63693 0.0
C1437 C 0.23039 0.63359 0.62847 0.0
C1438 C 0.22688 0.68281 0.64408 0.0
C1439 C 0.19782 0.68143 0.64308 0.0
C1440 C 0.1851 0.65644 0.63384 0.0
H1441 H 0.04948 0.77101 0.67429 0.0
H1442 H 0.08859 0.73835 0.66607 0.0
C1443 C 0.20129 0.63266 0.62654 0.0
C1444 C 0.18053 0.7057 0.65248 0.0
H1445 H 0.1343 0.72424 0.70113 0.0
C1446 C 0.17793 0.73029 0.63631 0.0
C1447 C 0.16539 0.70383 0.67657 0.0
C1448 C 0.16837 0.6782 0.69507 0.0
C1449 C 0.15913 0.7525 0.64283 0.0
C1450 C 0.14304 0.75003 0.66632 0.0
C1451 C 0.14671 0.72601 0.68314 0.0
C1452 C 0.11998 0.77031 0.67212 0.0
C1453 C 0.15548 0.77764 0.62383 0.0
C1454 C 0.12479 0.79906 0.67856 0.0
C1455 C 0.10235 0.81788 0.6832 0.0
C1456 C 0.07498 0.80803 0.68155 0.0
C1457 C 0.07038 0.77917 0.67559 0.0
C1458 C 0.09268 0.76048 0.67096 0.0
H1459 H 0.16656 0.77422 0.60454 0.0
H1460 H 0.13307 0.78179 0.61908 0.0
H1461 H 0.1638 0.79705 0.63376 0.0
H1462 H 0.14579 0.8069 0.67989 0.0
H1463 H 0.10637 0.8401 0.68769 0.0
H1464 H 0.44766 0.79588 0.89869 0.0
H1465 H 0.49066 0.81781 0.88477 0.0
H1466 H 0.48638 0.87602 0.95236 0.0
H1467 H 0.44322 0.85432 0.96654 0.0
H1468 H 0.49797 0.90158 0.90084 0.0
H1469 H 0.56732 0.80797 0.9252 0.0
H1470 H 0.53722 0.80052 0.90433 0.0
H1471 H 0.53285 0.81217 0.93866 0.0
C1472 C 0.45573 0.8134 0.91062 0.0
C1473 C 0.44201 0.82324 0.93385 0.0
C1474 C 0.48043 0.82576 0.90269 0.0
C1475 C 0.49186 0.84816 0.91781 0.0
C1476 C 0.47793 0.85856 0.94058 0.0
H1477 H 0.65297 0.92574 0.91401 0.0
H1478 H 0.61245 0.89761 0.92542 0.0
C1479 C 0.45327 0.84614 0.94862 0.0
C1480 C 0.51817 0.86103 0.90963 0.0
H1481 H 0.58758 0.84677 0.9025 0.0
C1482 C 0.51757 0.88964 0.90118 0.0
C1483 C 0.54368 0.84537 0.91039 0.0
C1484 C 0.54552 0.81487 0.92033 0.0
C1485 C 0.54185 0.90302 0.89315 0.0
C1486 C 0.56727 0.88719 0.89331 0.0
C1487 C 0.56795 0.85866 0.9021 0.0
C1488 C 0.59347 0.90044 0.88533 0.0
C1489 C 0.54022 0.93415 0.88503 0.0
C1490 C 0.59669 0.9102 0.85874 0.0
C1491 C 0.61977 0.92621 0.85218 0.0
C1492 C 0.63997 0.93257 0.87213 0.0
C1493 C 0.63766 0.92114 0.89828 0.0
C1494 C 0.61454 0.90514 0.90482 0.0
H1495 H 0.52057 0.94474 0.89155 0.0
H1496 H 0.55804 0.94594 0.89388 0.0
H1497 H 0.54111 0.9358 0.86264 0.0
H1498 H 0.58081 0.90636 0.84333 0.0
H1499 H 0.62113 0.93469 0.83184 0.0
H1500 H 0.91337 0.99787 0.39426 0.0
H1501 H 0.95544 0.02389 0.40718 0.0
H1502 H 0.90806 0.10325 0.40569 0.0
H1503 H 0.86602 0.07741 0.39276 0.0
H1504 H 0.9813 0.07121 0.37956 0.0
H1505 H 0.94597 0.10012 0.4824 0.0
H1506 H 0.93043 0.07194 0.46256 0.0
H1507 H 0.92121 0.10872 0.45568 0.0
C1508 C 0.91198 0.02089 0.39659 0.0
C1509 C 0.88642 0.03564 0.39257 0.0
C1510 C 0.93601 0.0357 0.40397 0.0
C1511 C 0.9348 0.06544 0.40775 0.0
C1512 C 0.90937 0.08024 0.40328 0.0
H1513 H 0.03104 0.20923 0.44364 0.0
H1514 H 0.99728 0.17216 0.43518 0.0
C1515 C 0.8854 0.06549 0.39576 0.0
C1516 C 0.96 0.0812 0.41636 0.0
H1517 H 0.98502 0.12495 0.46617 0.0
C1518 C 0.98238 0.08266 0.39865 0.0
C1519 C 0.96141 0.09587 0.44138 0.0
C1520 C 0.93861 0.09394 0.46176 0.0
C1521 C 0.0054 0.09986 0.4046 0.0
C1522 C 0.00623 0.11555 0.42914 0.0
C1523 C 0.98439 0.11296 0.44736 0.0
C1524 C 0.02764 0.13735 0.4349 0.0
C1525 C 0.02791 0.10232 0.38398 0.0
C1526 C 0.05613 0.13015 0.43791 0.0
C1527 C 0.07573 0.15156 0.44272 0.0
C1528 C 0.06702 0.18038 0.44464 0.0
C1529 C 0.03849 0.18727 0.44213 0.0
C1530 C 0.01909 0.16606 0.43735 0.0
H1531 H 0.02187 0.09261 0.36423 0.0
H1532 H 0.03289 0.1251 0.38059 0.0
H1533 H 0.04708 0.09115 0.39168 0.0
H1534 H 0.06318 0.10806 0.43654 0.0
H1535 H 0.09758 0.14566 0.4446 0.0
loop_
_geom_bond_atom_site_label_1
_geom_bond_atom_site_label_2
_geom_bond_distance
_geom_bond_site_symmetry_2
_ccdc_geom_bond_type
Dy0 O4 2.398 . S
Dy0 O5 2.491 . S
Dy0 O6 2.403 . S
Dy0 O7 2.664 . S
Dy0 O11 2.326 . S
Dy0 O15 2.310 . S
Dy0 O16 2.351 . S
C1 O12 1.185 . S
C1 O13 1.355 . S
C2 O4 1.185 . S
C2 O5 1.355 . S
Dy3 O7 2.310 . S
Dy3 O10 2.351 . S
Dy3 O12 2.398 . S
Dy3 O13 2.491 . S
Dy3 O14 2.403 . S
Dy3 O15 2.664 . S
Dy3 O17 2.326 . S
O4 Dy0 2.398 . S
O4 C2 1.185 . S
O5 Dy0 2.491 . S
O5 C2 1.355 . S
O6 Dy0 2.403 . S
O6 C8 1.254 . S
O7 Dy0 2.664 . S
O7 Dy3 2.310 . S
O7 C8 1.268 . S
C8 O6 1.254 . S
C8 O7 1.268 . S
C9 O14 1.254 . S
C9 O15 1.268 . S
O10 Dy3 2.351 . S
O10 C18 1.249 . S
O11 Dy0 2.326 . S
O11 C18 1.267 . S
O12 C1 1.185 . S
O12 Dy3 2.398 . S
O13 C1 1.355 . S
O13 Dy3 2.491 . S
O14 Dy3 2.403 . S
O14 C9 1.254 . S
O15 Dy0 2.310 . S
O15 Dy3 2.664 . S
O15 C9 1.268 . S
O16 Dy0 2.351 . S
O16 C19 1.249 . S
O17 Dy3 2.326 . S
O17 C19 1.267 . S
C18 O10 1.249 . S
C18 O11 1.267 . S
C19 O16 1.249 . S
C19 O17 1.267 . S
Dy20 O24 2.398 . S
Dy20 O25 2.491 . S
Dy20 O26 2.403 1_655 S
Dy20 O27 2.664 1_655 S
Dy20 O31 2.326 1_655 S
Dy20 O35 2.310 1_655 S
Dy20 O36 2.351 . S
C21 O32 1.185 . S
C21 O33 1.355 . S
C22 O24 1.185 . S
C22 O25 1.355 . S
Dy23 O27 2.310 . S
Dy23 O30 2.351 . S
Dy23 O32 2.398 . S
Dy23 O33 2.491 . S
Dy23 O34 2.403 . S
Dy23 O35 2.664 . S
Dy23 O37 2.326 . S
O24 Dy20 2.398 . S
O24 C22 1.185 . S
O25 Dy20 2.491 . S
O25 C22 1.355 . S
O26 Dy20 2.403 1_455 S
O26 C28 1.254 . S
O27 Dy20 2.664 1_455 S
O27 Dy23 2.310 . S
O27 C28 1.268 . S
C28 O26 1.254 . S
C28 O27 1.268 . S
C29 O34 1.255 1_655 S
C29 O35 1.268 1_655 S
O30 Dy23 2.351 . S
O30 C38 1.249 . S
O31 Dy20 2.326 1_455 S
O31 C38 1.267 . S
O32 C21 1.185 . S
O32 Dy23 2.398 . S
O33 C21 1.355 . S
O33 Dy23 2.491 . S
O34 Dy23 2.403 . S
O34 C29 1.255 1_455 S
O35 Dy20 2.310 1_455 S
O35 Dy23 2.664 . S
O35 C29 1.268 1_455 S
O36 Dy20 2.351 . S
O36 C39 1.249 1_655 S
O37 Dy23 2.326 . S
O37 C39 1.267 . S
C38 O30 1.249 . S
C38 O31 1.267 . S
C39 O36 1.249 1_455 S
C39 O37 1.267 . S
Dy40 O44 2.398 1_556 S
Dy40 O45 2.491 1_556 S
Dy40 O46 2.403 . S
Dy40 O47 2.664 . S
Dy40 O51 2.326 . S
Dy40 O55 2.310 . S
Dy40 O56 2.351 . S
C41 O52 1.185 . S
C41 O53 1.355 . S
C42 O44 1.185 . S
C42 O45 1.355 . S
Dy43 O47 2.310 . S
Dy43 O50 2.351 . S
Dy43 O52 2.398 . S
Dy43 O53 2.491 . S
Dy43 O54 2.403 . S
Dy43 O55 2.664 . S
Dy43 O57 2.326 . S
O44 Dy40 2.398 1_554 S
O44 C42 1.185 . S
O45 Dy40 2.491 1_554 S
O45 C42 1.355 . S
O46 Dy40 2.403 . S
O46 C48 1.254 . S
O47 Dy40 2.664 . S
O47 Dy43 2.310 . S
O47 C48 1.268 . S
C48 O46 1.254 . S
C48 O47 1.268 . S
C49 O54 1.254 . S
C49 O55 1.268 . S
O50 Dy43 2.351 . S
O50 C58 1.249 . S
O51 Dy40 2.326 . S
O51 C58 1.267 . S
O52 C41 1.185 . S
O52 Dy43 2.398 . S
O53 C41 1.355 . S
O53 Dy43 2.491 . S
O54 Dy43 2.403 . S
O54 C49 1.254 . S
O55 Dy40 2.310 . S
O55 Dy43 2.664 . S
O55 C49 1.268 . S
O56 Dy40 2.351 . S
O56 C59 1.249 . S
O57 Dy43 2.326 . S
O57 C59 1.267 . S
C58 O50 1.249 . S
C58 O51 1.267 . S
C59 O56 1.249 . S
C59 O57 1.267 . S
Dy60 O64 2.398 . S
Dy60 O65 2.491 . S
Dy60 O66 2.403 . S
Dy60 O67 2.664 . S
Dy60 O71 2.326 . S
Dy60 O75 2.310 . S
Dy60 O76 2.351 . S
C61 O72 1.185 . S
C61 O73 1.355 . S
C62 O64 1.185 . S
C62 O65 1.355 . S
Dy63 O67 2.310 . S
Dy63 O70 2.351 . S
Dy63 O72 2.398 . S
Dy63 O73 2.491 . S
Dy63 O74 2.403 . S
Dy63 O75 2.664 . S
Dy63 O77 2.326 . S
O64 Dy60 2.398 . S
O64 C62 1.185 . S
O65 Dy60 2.491 . S
O65 C62 1.355 . S
O66 Dy60 2.403 . S
O66 C68 1.254 . S
O67 Dy60 2.664 . S
O67 Dy63 2.310 . S
O67 C68 1.268 . S
C68 O66 1.254 . S
C68 O67 1.268 . S
C69 O74 1.254 . S
C69 O75 1.268 . S
O70 Dy63 2.351 . S
O70 C78 1.249 . S
O71 Dy60 2.326 . S
O71 C78 1.267 . S
O72 C61 1.185 . S
O72 Dy63 2.398 . S
O73 C61 1.355 . S
O73 Dy63 2.491 . S
O74 Dy63 2.403 . S
O74 C69 1.254 . S
O75 Dy60 2.310 . S
O75 Dy63 2.664 . S
O75 C69 1.268 . S
O76 Dy60 2.351 . S
O76 C79 1.249 . S
O77 Dy63 2.326 . S
O77 C79 1.267 . S
C78 O70 1.249 . S
C78 O71 1.267 . S
C79 O76 1.249 . S
C79 O77 1.267 . S
Dy80 O84 2.398 . S
Dy80 O85 2.491 . S
Dy80 O86 2.403 . S
Dy80 O87 2.664 . S
Dy80 O91 2.326 . S
Dy80 O95 2.310 . S
Dy80 O96 2.351 . S
C81 O92 1.185 . S
C81 O93 1.355 . S
C82 O84 1.185 . S
C82 O85 1.355 . S
Dy83 O87 2.310 . S
Dy83 O90 2.351 . S
Dy83 O92 2.398 . S
Dy83 O93 2.491 . S
Dy83 O94 2.403 . S
Dy83 O95 2.664 . S
Dy83 O97 2.326 . S
O84 Dy80 2.398 . S
O84 C82 1.185 . S
O85 Dy80 2.491 . S
O85 C82 1.355 . S
O86 Dy80 2.403 . S
O86 C88 1.254 . S
O87 Dy80 2.664 . S
O87 Dy83 2.310 . S
O87 C88 1.268 . S
C88 O86 1.254 . S
C88 O87 1.268 . S
C89 O94 1.254 . S
C89 O95 1.268 . S
O90 Dy83 2.351 . S
O90 C98 1.249 . S
O91 Dy80 2.326 . S
O91 C98 1.267 . S
O92 C81 1.185 . S
O92 Dy83 2.398 . S
O93 C81 1.355 . S
O93 Dy83 2.491 . S
O94 Dy83 2.403 . S
O94 C89 1.254 . S
O95 Dy80 2.310 . S
O95 Dy83 2.664 . S
O95 C89 1.268 . S
O96 Dy80 2.351 . S
O96 C99 1.249 . S
O97 Dy83 2.326 . S
O97 C99 1.267 . S
C98 O90 1.249 . S
C98 O91 1.267 . S
C99 O96 1.249 . S
C99 O97 1.267 . S
Dy100 O104 2.398 . S
Dy100 O105 2.491 . S
Dy100 O106 2.403 . S
Dy100 O107 2.664 . S
Dy100 O111 2.326 . S
Dy100 O115 2.310 . S
Dy100 O116 2.351 . S
C101 O112 1.185 . S
C101 O113 1.355 . S
C102 O104 1.185 . S
C102 O105 1.355 . S
Dy103 O107 2.310 1_455 S
Dy103 O110 2.351 1_455 S
Dy103 O112 2.398 . S
Dy103 O113 2.491 . S
Dy103 O114 2.403 . S
Dy103 O115 2.664 1_455 S
Dy103 O117 2.326 . S
O104 Dy100 2.398 . S
O104 C102 1.185 . S
O105 Dy100 2.491 . S
O105 C102 1.355 . S
O106 Dy100 2.403 . S
O106 C108 1.254 . S
O107 Dy100 2.664 . S
O107 Dy103 2.310 1_655 S
O107 C108 1.268 . S
C108 O106 1.254 . S
C108 O107 1.268 . S
C109 O114 1.254 . S
C109 O115 1.268 1_455 S
O110 Dy103 2.351 1_655 S
O110 C118 1.249 . S
O111 Dy100 2.326 . S
O111 C118 1.267 . S
O112 C101 1.185 . S
O112 Dy103 2.398 . S
O113 C101 1.355 . S
O113 Dy103 2.491 . S
O114 Dy103 2.403 . S
O114 C109 1.254 . S
O115 Dy100 2.310 . S
O115 Dy103 2.664 1_655 S
O115 C109 1.268 1_655 S
O116 Dy100 2.351 . S
O116 C119 1.249 1_655 S
O117 Dy103 2.326 . S
O117 C119 1.267 . S
C118 O110 1.249 . S
C118 O111 1.267 . S
C119 O116 1.249 1_455 S
C119 O117 1.267 . S
Dy120 O124 2.398 . S
Dy120 O125 2.491 . S
Dy120 O126 2.403 . S
Dy120 O127 2.664 . S
Dy120 O131 2.326 . S
Dy120 O135 2.310 . S
Dy120 O136 2.351 . S
C121 O132 1.185 . S
C121 O133 1.355 . S
C122 O124 1.185 . S
C122 O125 1.355 . S
Dy123 O127 2.310 . S
Dy123 O130 2.351 . S
Dy123 O132 2.398 1_554 S
Dy123 O133 2.491 1_554 S
Dy123 O134 2.403 1_554 S
Dy123 O135 2.664 . S
Dy123 O137 2.326 1_554 S
O124 Dy120 2.398 . S
O124 C122 1.185 . S
O125 Dy120 2.491 . S
O125 C122 1.355 . S
O126 Dy120 2.403 . S
O126 C128 1.254 . S
O127 Dy120 2.664 . S
O127 Dy123 2.310 . S
O127 C128 1.268 . S
C128 O126 1.254 . S
C128 O127 1.268 . S
C129 O134 1.254 1_554 S
C129 O135 1.268 . S
O130 Dy123 2.351 . S
O130 C138 1.249 . S
O131 Dy120 2.326 . S
O131 C138 1.267 . S
O132 C121 1.185 . S
O132 Dy123 2.398 1_556 S
O133 C121 1.355 . S
O133 Dy123 2.491 1_556 S
O134 Dy123 2.403 1_556 S
O134 C129 1.254 1_556 S
O135 Dy120 2.310 . S
O135 Dy123 2.664 . S
O135 C129 1.268 . S
O136 Dy120 2.351 . S
O136 C139 1.249 1_554 S
O137 Dy123 2.326 1_556 S
O137 C139 1.267 . S
C138 O130 1.249 . S
C138 O131 1.267 . S
C139 O136 1.249 1_556 S
C139 O137 1.267 . S
Dy140 O144 2.398 . S
Dy140 O145 2.491 . S
Dy140 O146 2.403 . S
Dy140 O147 2.664 . S
Dy140 O151 2.326 . S
Dy140 O155 2.310 . S
Dy140 O156 2.351 . S
C141 O152 1.185 . S
C141 O153 1.355 . S
C142 O144 1.185 . S
C142 O145 1.355 . S
Dy143 O147 2.310 . S
Dy143 O150 2.351 . S
Dy143 O152 2.398 . S
Dy143 O153 2.491 . S
Dy143 O154 2.403 . S
Dy143 O155 2.664 . S
Dy143 O157 2.326 . S
O144 Dy140 2.398 . S
O144 C142 1.185 . S
O145 Dy140 2.491 . S
O145 C142 1.355 . S
O146 Dy140 2.403 . S
O146 C148 1.254 . S
O147 Dy140 2.664 . S
O147 Dy143 2.310 . S
O147 C148 1.268 . S
C148 O146 1.254 . S
C148 O147 1.268 . S
C149 O154 1.254 . S
C149 O155 1.268 . S
O150 Dy143 2.351 . S
O150 C158 1.249 . S
O151 Dy140 2.326 . S
O151 C158 1.267 . S
O152 C141 1.185 . S
O152 Dy143 2.398 . S
O153 C141 1.355 . S
O153 Dy143 2.491 . S
O154 Dy143 2.403 . S
O154 C149 1.254 . S
O155 Dy140 2.310 . S
O155 Dy143 2.664 . S
O155 C149 1.268 . S
O156 Dy140 2.351 . S
O156 C159 1.249 . S
O157 Dy143 2.326 . S
O157 C159 1.267 . S
C158 O150 1.249 . S
C158 O151 1.267 . S
C159 O156 1.249 . S
C159 O157 1.267 . S
Dy160 O164 2.398 . S
Dy160 O165 2.491 . S
Dy160 O166 2.403 . S
Dy160 O167 2.664 . S
Dy160 O171 2.326 . S
Dy160 O175 2.310 . S
Dy160 O176 2.351 . S
C161 O172 1.185 . S
C161 O173 1.355 . S
C162 O164 1.185 . S
C162 O165 1.355 . S
Dy163 O167 2.310 . S
Dy163 O170 2.351 . S
Dy163 O172 2.398 . S
Dy163 O173 2.491 . S
Dy163 O174 2.403 . S
Dy163 O175 2.664 . S
Dy163 O177 2.326 . S
O164 Dy160 2.398 . S
O164 C162 1.185 . S
O165 Dy160 2.491 . S
O165 C162 1.355 . S
O166 Dy160 2.403 . S
O166 C168 1.254 . S
O167 Dy160 2.664 . S
O167 Dy163 2.310 . S
O167 C168 1.268 . S
C168 O166 1.254 . S
C168 O167 1.268 . S
C169 O174 1.254 . S
C169 O175 1.268 . S
O170 Dy163 2.351 . S
O170 C178 1.249 . S
O171 Dy160 2.326 . S
O171 C178 1.267 . S
O172 C161 1.185 . S
O172 Dy163 2.398 . S
O173 C161 1.355 . S
O173 Dy163 2.491 . S
O174 Dy163 2.403 . S
O174 C169 1.254 . S
O175 Dy160 2.310 . S
O175 Dy163 2.664 . S
O175 C169 1.268 . S
O176 Dy160 2.351 . S
O176 C179 1.249 . S
O177 Dy163 2.326 . S
O177 C179 1.267 . S
C178 O170 1.249 . S
C178 O171 1.267 . S
C179 O176 1.249 . S
C179 O177 1.267 . S
Dy180 O184 2.398 1_545 S
Dy180 O185 2.491 1_545 S
Dy180 O186 2.403 . S
Dy180 O187 2.664 . S
Dy180 O191 2.326 . S
Dy180 O195 2.310 . S
Dy180 O196 2.351 . S
C181 O192 1.185 . S
C181 O193 1.355 . S
C182 O184 1.185 . S
C182 O185 1.355 . S
Dy183 O187 2.310 . S
Dy183 O190 2.351 . S
Dy183 O192 2.398 . S
Dy183 O193 2.491 . S
Dy183 O194 2.403 . S
Dy183 O195 2.664 . S
Dy183 O197 2.326 . S
O184 Dy180 2.398 1_565 S
O184 C182 1.185 . S
O185 Dy180 2.491 1_565 S
O185 C182 1.355 . S
O186 Dy180 2.403 . S
O186 C188 1.254 . S
O187 Dy180 2.664 . S
O187 Dy183 2.310 . S
O187 C188 1.268 . S
C188 O186 1.254 . S
C188 O187 1.268 . S
C189 O194 1.254 . S
C189 O195 1.268 . S
O190 Dy183 2.351 . S
O190 C198 1.249 . S
O191 Dy180 2.326 . S
O191 C198 1.267 . S
O192 C181 1.185 . S
O192 Dy183 2.398 . S
O193 C181 1.355 . S
O193 Dy183 2.491 . S
O194 Dy183 2.403 . S
O194 C189 1.254 . S
O195 Dy180 2.310 . S
O195 Dy183 2.664 . S
O195 C189 1.268 . S
O196 Dy180 2.351 . S
O196 C199 1.249 . S
O197 Dy183 2.326 . S
O197 C199 1.267 . S
C198 O190 1.249 . S
C198 O191 1.267 . S
C199 O196 1.249 . S
C199 O197 1.267 . S
Dy200 O204 2.398 . S
Dy200 O205 2.491 . S
Dy200 O206 2.403 . S
Dy200 O207 2.664 . S
Dy200 O211 2.326 . S
Dy200 O215 2.310 . S
Dy200 O216 2.351 . S
C201 O212 1.185 . S
C201 O213 1.355 . S
C202 O204 1.185 . S
C202 O205 1.355 . S
Dy203 O207 2.310 1_545 S
Dy203 O210 2.351 1_545 S
Dy203 O212 2.398 . S
Dy203 O213 2.491 . S
Dy203 O214 2.403 . S
Dy203 O215 2.664 1_545 S
Dy203 O217 2.326 . S
O204 Dy200 2.398 . S
O204 C202 1.185 . S
O205 Dy200 2.491 . S
O205 C202 1.355 . S
O206 Dy200 2.403 . S
O206 C208 1.254 . S
O207 Dy200 2.664 . S
O207 Dy203 2.310 1_565 S
O207 C208 1.268 . S
C208 O206 1.254 . S
C208 O207 1.268 . S
C209 O214 1.254 . S
C209 O215 1.268 1_545 S
O210 Dy203 2.351 1_565 S
O210 C218 1.249 . S
O211 Dy200 2.326 . S
O211 C218 1.267 . S
O212 C201 1.185 . S
O212 Dy203 2.398 . S
O213 C201 1.355 . S
O213 Dy203 2.491 . S
O214 Dy203 2.403 . S
O214 C209 1.254 . S
O215 Dy200 2.310 . S
O215 Dy203 2.664 1_565 S
O215 C209 1.268 1_565 S
O216 Dy200 2.351 . S
O216 C219 1.249 1_565 S
O217 Dy203 2.326 . S
O217 C219 1.267 . S
C218 O210 1.249 . S
C218 O211 1.267 . S
C219 O216 1.249 1_545 S
C219 O217 1.267 . S
Dy220 O224 2.398 . S
Dy220 O225 2.491 . S
Dy220 O226 2.403 . S
Dy220 O227 2.664 . S
Dy220 O231 2.326 . S
Dy220 O235 2.310 . S
Dy220 O236 2.351 . S
C221 O232 1.185 . S
C221 O233 1.355 . S
C222 O224 1.185 . S
C222 O225 1.355 . S
Dy223 O227 2.310 . S
Dy223 O230 2.351 . S
Dy223 O232 2.398 . S
Dy223 O233 2.491 . S
Dy223 O234 2.403 . S
Dy223 O235 2.664 . S
Dy223 O237 2.326 . S
O224 Dy220 2.398 . S
O224 C222 1.185 . S
O225 Dy220 2.491 . S
O225 C222 1.355 . S
O226 Dy220 2.403 . S
O226 C228 1.254 . S
O227 Dy220 2.664 . S
O227 Dy223 2.310 . S
O227 C228 1.268 . S
C228 O226 1.254 . S
C228 O227 1.268 . S
C229 O234 1.254 . S
C229 O235 1.268 . S
O230 Dy223 2.351 . S
O230 C238 1.249 . S
O231 Dy220 2.326 . S
O231 C238 1.267 . S
O232 C221 1.185 . S
O232 Dy223 2.398 . S
O233 C221 1.355 . S
O233 Dy223 2.491 . S
O234 Dy223 2.403 . S
O234 C229 1.254 . S
O235 Dy220 2.310 . S
O235 Dy223 2.664 . S
O235 C229 1.268 . S
O236 Dy220 2.351 . S
O236 C239 1.249 . S
O237 Dy223 2.326 . S
O237 C239 1.267 . S
C238 O230 1.249 . S
C238 O231 1.267 . S
C239 O236 1.249 . S
C239 O237 1.267 . S
H240 C248 0.929 . S
H241 C250 0.930 . S
H242 C252 0.930 . S
H243 C255 0.929 . S
H244 C258 0.930 . S
H245 C260 0.960 . S
H246 C260 0.960 . S
H247 C260 0.960 . S
C248 H240 0.929 . S
C248 C249 1.377 . S
C248 C250 1.384 . S
C249 C248 1.377 . S
C249 C255 1.390 . S
C250 H241 0.930 . S
C250 C248 1.384 . S
C250 C251 1.372 . S
C251 C250 1.372 . S
C251 C252 1.400 . S
C251 C256 1.490 . S
C252 H242 0.930 . S
C252 C251 1.400 . S
C252 C255 1.386 . S
H253 C269 0.930 . S
H254 C270 0.931 . S
C255 H243 0.929 . S
C255 C249 1.390 . S
C255 C252 1.386 . S
C256 C251 1.490 . S
C256 C258 1.395 . S
C256 C259 1.403 . S
H257 C263 0.930 . S
C258 H244 0.930 . S
C258 C256 1.395 . S
C258 C261 1.403 . S
C259 C256 1.403 . S
C259 C260 1.524 . S
C259 C263 1.400 . S
C260 H245 0.960 . S
C260 H246 0.960 . S
C260 H247 0.960 . S
C260 C259 1.524 . S
C261 C258 1.403 . S
C261 C262 1.392 . S
C261 C265 1.495 . S
C262 C261 1.392 . S
C262 C263 1.385 . S
C262 C264 1.478 . S
C263 H257 0.930 . S
C263 C259 1.400 . S
C263 C262 1.385 . S
C264 C262 1.478 . S
C264 C266 1.381 . S
C264 C270 1.383 . S
C265 C261 1.495 . S
C265 H271 0.959 . S
C265 H272 0.961 . S
C265 H273 0.960 . S
C266 C264 1.381 . S
C266 C267 1.394 . S
C266 H274 0.930 . S
C267 C266 1.394 . S
C267 C268 1.383 . S
C267 H275 0.929 . S
C268 C267 1.383 . S
C268 C269 1.377 . S
C269 H253 0.930 . S
C269 C268 1.377 . S
C269 C270 1.379 . S
C270 H254 0.931 . S
C270 C264 1.383 . S
C270 C269 1.379 . S
H271 C265 0.959 . S
H272 C265 0.961 . S
H273 C265 0.960 . S
H274 C266 0.930 . S
H275 C267 0.929 . S
H276 C284 0.929 . S
H277 C286 0.930 . S
H278 C288 0.930 . S
H279 C291 0.929 . S
H280 C294 0.930 . S
H281 C296 0.960 . S
H282 C296 0.960 . S
H283 C296 0.960 . S
C284 H276 0.929 . S
C284 C285 1.377 . S
C284 C286 1.384 . S
C285 C284 1.377 . S
C285 C291 1.390 1_545 S
C286 H277 0.930 . S
C286 C284 1.384 . S
C286 C287 1.372 1_545 S
C287 C286 1.372 1_565 S
C287 C288 1.400 . S
C287 C292 1.490 . S
C288 H278 0.930 . S
C288 C287 1.400 . S
C288 C291 1.386 . S
H289 C305 0.930 . S
H290 C306 0.931 . S
C291 H279 0.929 . S
C291 C285 1.390 1_565 S
C291 C288 1.386 . S
C292 C287 1.490 . S
C292 C294 1.395 . S
C292 C295 1.403 . S
H293 C299 0.930 . S
C294 H280 0.930 . S
C294 C292 1.395 . S
C294 C297 1.403 . S
C295 C292 1.403 . S
C295 C296 1.524 1_565 S
C295 C299 1.400 . S
C296 H281 0.960 . S
C296 H282 0.960 . S
C296 H283 0.960 . S
C296 C295 1.524 1_545 S
C297 C294 1.403 . S
C297 C298 1.392 . S
C297 C301 1.495 . S
C298 C297 1.392 . S
C298 C299 1.385 . S
C298 C300 1.478 . S
C299 H293 0.930 . S
C299 C295 1.400 . S
C299 C298 1.385 . S
C300 C298 1.478 . S
C300 C302 1.381 . S
C300 C306 1.383 . S
C301 C297 1.495 . S
C301 H307 0.959 . S
C301 H308 0.961 . S
C301 H309 0.960 . S
C302 C300 1.381 . S
C302 C303 1.394 . S
C302 H310 0.930 . S
C303 C302 1.394 . S
C303 C304 1.383 . S
C303 H311 0.929 . S
C304 C303 1.383 . S
C304 C305 1.377 . S
C305 H289 0.930 . S
C305 C304 1.377 . S
C305 C306 1.379 . S
C306 H290 0.931 . S
C306 C300 1.383 . S
C306 C305 1.379 . S
H307 C301 0.959 . S
H308 C301 0.961 . S
H309 C301 0.960 . S
H310 C302 0.930 . S
H311 C303 0.929 . S
H312 C320 0.929 . S
H313 C322 0.930 . S
H314 C324 0.930 . S
H315 C327 0.929 . S
H316 C330 0.930 . S
H317 C332 0.960 . S
H318 C332 0.960 . S
H319 C332 0.960 . S
C320 H312 0.929 . S
C320 C321 1.377 1_554 S
C320 C322 1.384 . S
C321 C320 1.377 1_556 S
C321 C327 1.390 . S
C322 H313 0.930 . S
C322 C320 1.384 . S
C322 C323 1.372 . S
C323 C322 1.372 . S
C323 C324 1.400 1_554 S
C323 C328 1.490 . S
C324 H314 0.930 . S
C324 C323 1.400 1_556 S
C324 C327 1.386 . S
H325 C341 0.930 . S
H326 C342 0.931 . S
C327 H315 0.929 . S
C327 C321 1.390 . S
C327 C324 1.386 . S
C328 C323 1.490 . S
C328 C330 1.395 . S
C328 C331 1.403 . S
H329 C335 0.930 . S
C330 H316 0.930 . S
C330 C328 1.395 . S
C330 C333 1.403 . S
C331 C328 1.403 . S
C331 C332 1.524 1_554 S
C331 C335 1.400 . S
C332 H317 0.960 . S
C332 H318 0.960 . S
C332 H319 0.960 . S
C332 C331 1.524 1_556 S
C333 C330 1.403 . S
C333 C334 1.392 . S
C333 C337 1.495 . S
C334 C333 1.392 . S
C334 C335 1.385 . S
C334 C336 1.478 . S
C335 H329 0.930 . S
C335 C331 1.400 . S
C335 C334 1.385 . S
C336 C334 1.478 . S
C336 C338 1.381 . S
C336 C342 1.383 . S
C337 C333 1.495 . S
C337 H343 0.959 . S
C337 H344 0.961 . S
C337 H345 0.960 . S
C338 C336 1.381 . S
C338 C339 1.394 . S
C338 H346 0.930 . S
C339 C338 1.394 . S
C339 C340 1.383 . S
C339 H347 0.929 . S
C340 C339 1.383 . S
C340 C341 1.377 . S
C341 H325 0.930 . S
C341 C340 1.377 . S
C341 C342 1.379 . S
C342 H326 0.931 . S
C342 C336 1.383 . S
C342 C341 1.379 . S
H343 C337 0.959 . S
H344 C337 0.961 . S
H345 C337 0.960 . S
H346 C338 0.930 . S
H347 C339 0.929 . S
H348 C356 0.929 . S
H349 C358 0.930 . S
H350 C360 0.930 . S
H351 C363 0.929 . S
H352 C366 0.930 . S
H353 C368 0.960 . S
H354 C368 0.960 . S
H355 C368 0.960 . S
C356 H348 0.929 . S
C356 C357 1.377 . S
C356 C358 1.384 . S
C357 C356 1.377 . S
C357 C363 1.390 . S
C358 H349 0.930 . S
C358 C356 1.384 . S
C358 C359 1.372 . S
C359 C358 1.372 . S
C359 C360 1.400 . S
C359 C364 1.490 . S
C360 H350 0.930 . S
C360 C359 1.400 . S
C360 C363 1.386 . S
H361 C377 0.930 1_565 S
H362 C378 0.931 . S
C363 H351 0.929 . S
C363 C357 1.390 . S
C363 C360 1.386 . S
C364 C359 1.490 . S
C364 C366 1.395 . S
C364 C367 1.403 . S
H365 C371 0.930 . S
C366 H352 0.930 . S
C366 C364 1.395 . S
C366 C369 1.403 . S
C367 C364 1.403 . S
C367 C368 1.524 . S
C367 C371 1.400 . S
C368 H353 0.960 . S
C368 H354 0.960 . S
C368 H355 0.960 . S
C368 C367 1.524 . S
C369 C366 1.403 . S
C369 C370 1.392 . S
C369 C373 1.495 . S
C370 C369 1.392 . S
C370 C371 1.385 . S
C370 C372 1.478 . S
C371 H365 0.930 . S
C371 C367 1.400 . S
C371 C370 1.385 . S
C372 C370 1.478 . S
C372 C374 1.381 . S
C372 C378 1.383 . S
C373 C369 1.495 . S
C373 H379 0.959 . S
C373 H380 0.961 1_545 S
C373 H381 0.960 . S
C374 C372 1.381 . S
C374 C375 1.394 . S
C374 H382 0.930 . S
C375 C374 1.394 . S
C375 C376 1.383 . S
C375 H383 0.929 . S
C376 C375 1.383 . S
C376 C377 1.377 . S
C377 H361 0.930 1_545 S
C377 C376 1.377 . S
C377 C378 1.379 . S
C378 H362 0.931 . S
C378 C372 1.383 . S
C378 C377 1.379 . S
H379 C373 0.959 . S
H380 C373 0.961 1_565 S
H381 C373 0.960 . S
H382 C374 0.930 . S
H383 C375 0.929 . S
H384 C392 0.929 . S
H385 C394 0.930 . S
H386 C396 0.930 . S
H387 C399 0.929 . S
H388 C402 0.930 . S
H389 C404 0.960 . S
H390 C404 0.960 . S
H391 C404 0.960 . S
C392 H384 0.929 . S
C392 C393 1.377 . S
C392 C394 1.384 . S
C393 C392 1.377 . S
C393 C399 1.390 . S
C394 H385 0.930 . S
C394 C392 1.384 . S
C394 C395 1.372 . S
C395 C394 1.372 . S
C395 C396 1.400 . S
C395 C400 1.490 . S
C396 H386 0.930 . S
C396 C395 1.400 . S
C396 C399 1.386 . S
H397 C413 0.930 . S
H398 C414 0.931 . S
C399 H387 0.929 . S
C399 C393 1.390 . S
C399 C396 1.386 . S
C400 C395 1.490 . S
C400 C402 1.395 . S
C400 C403 1.403 . S
H401 C407 0.930 . S
C402 H388 0.930 . S
C402 C400 1.395 . S
C402 C405 1.403 . S
C403 C400 1.403 . S
C403 C404 1.524 . S
C403 C407 1.400 . S
C404 H389 0.960 . S
C404 H390 0.960 . S
C404 H391 0.960 . S
C404 C403 1.524 . S
C405 C402 1.403 . S
C405 C406 1.392 . S
C405 C409 1.495 . S
C406 C405 1.392 . S
C406 C407 1.385 . S
C406 C408 1.478 . S
C407 H401 0.930 . S
C407 C403 1.400 . S
C407 C406 1.385 . S
C408 C406 1.478 . S
C408 C410 1.381 . S
C408 C414 1.383 . S
C409 C405 1.495 . S
C409 H415 0.959 . S
C409 H416 0.961 . S
C409 H417 0.960 . S
C410 C408 1.381 . S
C410 C411 1.394 . S
C410 H418 0.930 . S
C411 C410 1.394 . S
C411 C412 1.383 . S
C411 H419 0.929 . S
C412 C411 1.383 . S
C412 C413 1.377 . S
C413 H397 0.930 . S
C413 C412 1.377 . S
C413 C414 1.379 . S
C414 H398 0.931 . S
C414 C408 1.383 . S
C414 C413 1.379 . S
H415 C409 0.959 . S
H416 C409 0.961 . S
H417 C409 0.960 . S
H418 C410 0.930 . S
H419 C411 0.929 . S
H420 C428 0.929 . S
H421 C430 0.930 . S
H422 C432 0.930 . S
H423 C435 0.929 . S
H424 C438 0.930 . S
H425 C440 0.960 . S
H426 C440 0.960 . S
H427 C440 0.960 . S
C428 H420 0.929 . S
C428 C429 1.377 . S
C428 C430 1.384 . S
C429 C428 1.377 . S
C429 C435 1.390 . S
C430 H421 0.930 . S
C430 C428 1.384 . S
C430 C431 1.372 . S
C431 C430 1.372 . S
C431 C432 1.400 . S
C431 C436 1.490 . S
C432 H422 0.930 . S
C432 C431 1.400 . S
C432 C435 1.386 . S
H433 C449 0.930 . S
H434 C450 0.931 . S
C435 H423 0.929 . S
C435 C429 1.390 . S
C435 C432 1.386 . S
C436 C431 1.490 . S
C436 C438 1.395 . S
C436 C439 1.403 . S
H437 C443 0.930 . S
C438 H424 0.930 . S
C438 C436 1.395 . S
C438 C441 1.403 . S
C439 C436 1.403 . S
C439 C440 1.524 . S
C439 C443 1.400 . S
C440 H425 0.960 . S
C440 H426 0.960 . S
C440 H427 0.960 . S
C440 C439 1.524 . S
C441 C438 1.403 . S
C441 C442 1.392 . S
C441 C445 1.495 . S
C442 C441 1.392 . S
C442 C443 1.385 . S
C442 C444 1.478 . S
C443 H437 0.930 . S
C443 C439 1.400 . S
C443 C442 1.385 . S
C444 C442 1.478 . S
C444 C446 1.381 . S
C444 C450 1.383 . S
C445 C441 1.495 . S
C445 H451 0.959 . S
C445 H452 0.961 . S
C445 H453 0.960 . S
C446 C444 1.381 . S
C446 C447 1.394 . S
C446 H454 0.930 . S
C447 C446 1.394 . S
C447 C448 1.383 . S
C447 H455 0.929 . S
C448 C447 1.383 . S
C448 C449 1.377 . S
C449 H433 0.930 . S
C449 C448 1.377 . S
C449 C450 1.379 . S
C450 H434 0.931 . S
C450 C444 1.383 . S
C450 C449 1.379 . S
H451 C445 0.959 . S
H452 C445 0.961 . S
H453 C445 0.960 . S
H454 C446 0.930 . S
H455 C447 0.929 . S
H456 C464 0.929 . S
H457 C466 0.930 . S
H458 C468 0.930 . S
H459 C471 0.929 . S
H460 C474 0.930 . S
H461 C476 0.960 . S
H462 C476 0.960 . S
H463 C476 0.960 . S
C464 H456 0.929 . S
C464 C465 1.377 . S
C464 C466 1.384 . S
C465 C464 1.377 . S
C465 C471 1.390 . S
C466 H457 0.930 . S
C466 C464 1.384 . S
C466 C467 1.372 . S
C467 C466 1.372 . S
C467 C468 1.400 . S
C467 C472 1.490 . S
C468 H458 0.930 . S
C468 C467 1.400 . S
C468 C471 1.386 . S
H469 C485 0.930 . S
H470 C486 0.931 . S
C471 H459 0.929 . S
C471 C465 1.390 . S
C471 C468 1.386 . S
C472 C467 1.490 . S
C472 C474 1.395 . S
C472 C475 1.403 . S
H473 C479 0.930 . S
C474 H460 0.930 . S
C474 C472 1.395 . S
C474 C477 1.403 . S
C475 C472 1.403 . S
C475 C476 1.524 . S
C475 C479 1.400 . S
C476 H461 0.960 . S
C476 H462 0.960 . S
C476 H463 0.960 . S
C476 C475 1.524 . S
C477 C474 1.403 . S
C477 C478 1.392 . S
C477 C481 1.495 . S
C478 C477 1.392 . S
C478 C479 1.385 . S
C478 C480 1.478 . S
C479 H473 0.930 . S
C479 C475 1.400 . S
C479 C478 1.385 . S
C480 C478 1.478 . S
C480 C482 1.381 1_556 S
C480 C486 1.383 . S
C481 C477 1.495 . S
C481 H487 0.957 1_556 S
C481 H488 0.961 . S
C481 H489 0.960 1_556 S
C482 C480 1.381 1_554 S
C482 C483 1.394 . S
C482 H490 0.930 . S
C483 C482 1.394 . S
C483 C484 1.383 . S
C483 H491 0.929 . S
C484 C483 1.383 . S
C484 C485 1.377 1_554 S
C485 H469 0.930 . S
C485 C484 1.377 1_556 S
C485 C486 1.379 . S
C486 H470 0.931 . S
C486 C480 1.383 . S
C486 C485 1.379 . S
H487 C481 0.957 1_554 S
H488 C481 0.961 . S
H489 C481 0.960 1_554 S
H490 C482 0.930 . S
H491 C483 0.929 . S
H492 C500 0.929 . S
H493 C502 0.930 . S
H494 C504 0.930 . S
H495 C507 0.929 . S
H496 C510 0.930 . S
H497 C512 0.960 . S
H498 C512 0.960 . S
H499 C512 0.960 . S
C500 H492 0.929 . S
C500 C501 1.377 . S
C500 C502 1.384 . S
C501 C500 1.377 . S
C501 C507 1.390 . S
C502 H493 0.930 . S
C502 C500 1.384 . S
C502 C503 1.372 . S
C503 C502 1.372 . S
C503 C504 1.400 . S
C503 C508 1.490 . S
C504 H494 0.930 . S
C504 C503 1.400 . S
C504 C507 1.386 . S
H505 C521 0.930 . S
H506 C522 0.931 . S
C507 H495 0.929 . S
C507 C501 1.390 . S
C507 C504 1.386 . S
C508 C503 1.490 . S
C508 C510 1.395 . S
C508 C511 1.403 . S
H509 C515 0.930 . S
C510 H496 0.930 . S
C510 C508 1.395 . S
C510 C513 1.403 . S
C511 C508 1.403 . S
C511 C512 1.524 . S
C511 C515 1.400 . S
C512 H497 0.960 . S
C512 H498 0.960 . S
C512 H499 0.960 . S
C512 C511 1.524 . S
C513 C510 1.403 . S
C513 C514 1.392 . S
C513 C517 1.495 . S
C514 C513 1.392 . S
C514 C515 1.385 . S
C514 C516 1.478 . S
C515 H509 0.930 . S
C515 C511 1.400 . S
C515 C514 1.385 . S
C516 C514 1.478 . S
C516 C518 1.381 . S
C516 C522 1.383 . S
C517 C513 1.495 . S
C517 H523 0.959 . S
C517 H524 0.961 . S
C517 H525 0.960 . S
C518 C516 1.381 . S
C518 C519 1.394 . S
C518 H526 0.930 . S
C519 C518 1.394 . S
C519 C520 1.383 . S
C519 H527 0.929 . S
C520 C519 1.383 . S
C520 C521 1.377 . S
C521 H505 0.930 . S
C521 C520 1.377 . S
C521 C522 1.379 . S
C522 H506 0.931 . S
C522 C516 1.383 . S
C522 C521 1.379 . S
H523 C517 0.959 . S
H524 C517 0.961 . S
H525 C517 0.960 . S
H526 C518 0.930 . S
H527 C519 0.929 . S
H528 C536 0.929 . S
H529 C538 0.930 . S
H530 C540 0.930 . S
H531 C543 0.929 . S
H532 C546 0.930 . S
H533 C548 0.960 . S
H534 C548 0.960 . S
H535 C548 0.960 . S
C536 H528 0.929 . S
C536 C537 1.377 . S
C536 C538 1.384 . S
C537 C536 1.377 . S
C537 C543 1.390 . S
C538 H529 0.930 . S
C538 C536 1.384 . S
C538 C539 1.372 . S
C539 C538 1.372 . S
C539 C540 1.400 . S
C539 C544 1.490 . S
C540 H530 0.930 . S
C540 C539 1.400 . S
C540 C543 1.386 . S
H541 C557 0.930 . S
H542 C558 0.931 . S
C543 H531 0.929 . S
C543 C537 1.390 . S
C543 C540 1.386 . S
C544 C539 1.490 . S
C544 C546 1.395 . S
C544 C547 1.403 . S
H545 C551 0.930 . S
C546 H532 0.930 . S
C546 C544 1.395 . S
C546 C549 1.403 . S
C547 C544 1.403 . S
C547 C548 1.524 . S
C547 C551 1.400 . S
C548 H533 0.960 . S
C548 H534 0.960 . S
C548 H535 0.960 . S
C548 C547 1.524 . S
C549 C546 1.403 . S
C549 C550 1.392 . S
C549 C553 1.495 . S
C550 C549 1.392 . S
C550 C551 1.385 . S
C550 C552 1.478 . S
C551 H545 0.930 . S
C551 C547 1.400 . S
C551 C550 1.385 . S
C552 C550 1.478 . S
C552 C554 1.381 . S
C552 C558 1.383 . S
C553 C549 1.495 . S
C553 H559 0.959 . S
C553 H560 0.961 . S
C553 H561 0.960 . S
C554 C552 1.381 . S
C554 C555 1.394 . S
C554 H562 0.930 . S
C555 C554 1.394 . S
C555 C556 1.383 . S
C555 H563 0.929 . S
C556 C555 1.383 . S
C556 C557 1.377 . S
C557 H541 0.930 . S
C557 C556 1.377 . S
C557 C558 1.379 . S
C558 H542 0.931 . S
C558 C552 1.383 . S
C558 C557 1.379 . S
H559 C553 0.959 . S
H560 C553 0.961 . S
H561 C553 0.960 . S
H562 C554 0.930 . S
H563 C555 0.929 . S
H564 C572 0.929 . S
H565 C574 0.930 . S
H566 C576 0.930 . S
H567 C579 0.929 . S
H568 C582 0.930 . S
H569 C584 0.960 . S
H570 C584 0.960 . S
H571 C584 0.960 . S
C572 H564 0.929 . S
C572 C573 1.377 . S
C572 C574 1.384 . S
C573 C572 1.377 . S
C573 C579 1.390 . S
C574 H565 0.930 . S
C574 C572 1.384 . S
C574 C575 1.372 . S
C575 C574 1.372 . S
C575 C576 1.400 . S
C575 C580 1.490 . S
C576 H566 0.930 . S
C576 C575 1.400 . S
C576 C579 1.386 . S
H577 C593 0.930 . S
H578 C594 0.931 . S
C579 H567 0.929 . S
C579 C573 1.390 . S
C579 C576 1.386 . S
C580 C575 1.490 . S
C580 C582 1.395 . S
C580 C583 1.403 . S
H581 C587 0.930 . S
C582 H568 0.930 . S
C582 C580 1.395 . S
C582 C585 1.403 . S
C583 C580 1.403 . S
C583 C584 1.524 . S
C583 C587 1.400 . S
C584 H569 0.960 . S
C584 H570 0.960 . S
C584 H571 0.960 . S
C584 C583 1.524 . S
C585 C582 1.403 . S
C585 C586 1.392 . S
C585 C589 1.495 1_455 S
C586 C585 1.392 . S
C586 C587 1.385 . S
C586 C588 1.478 . S
C587 H581 0.930 . S
C587 C583 1.400 . S
C587 C586 1.385 . S
C588 C586 1.478 . S
C588 C590 1.381 . S
C588 C594 1.383 . S
C589 C585 1.495 1_655 S
C589 H595 0.959 . S
C589 H596 0.961 . S
C589 H597 0.960 . S
C590 C588 1.381 . S
C590 C591 1.394 . S
C590 H598 0.930 . S
C591 C590 1.394 . S
C591 C592 1.383 . S
C591 H599 0.929 . S
C592 C591 1.383 . S
C592 C593 1.377 . S
C593 H577 0.930 . S
C593 C592 1.377 . S
C593 C594 1.379 . S
C594 H578 0.931 . S
C594 C588 1.383 . S
C594 C593 1.379 . S
H595 C589 0.959 . S
H596 C589 0.961 . S
H597 C589 0.960 . S
H598 C590 0.930 . S
H599 C591 0.929 . S
H600 C608 0.929 . S
H601 C610 0.930 . S
H602 C612 0.930 . S
H603 C615 0.929 . S
H604 C618 0.930 . S
H605 C620 0.960 . S
H606 C620 0.960 . S
H607 C620 0.960 . S
C608 H600 0.929 . S
C608 C609 1.377 . S
C608 C610 1.384 . S
C609 C608 1.377 . S
C609 C615 1.390 1_455 S
C610 H601 0.930 . S
C610 C608 1.384 . S
C610 C611 1.372 1_455 S
C611 C610 1.372 1_655 S
C611 C612 1.400 . S
C611 C616 1.490 . S
C612 H602 0.930 . S
C612 C611 1.400 . S
C612 C615 1.386 . S
H613 C629 0.930 . S
H614 C630 0.931 . S
C615 H603 0.929 . S
C615 C609 1.390 1_655 S
C615 C612 1.386 . S
C616 C611 1.490 . S
C616 C618 1.395 . S
C616 C619 1.403 . S
H617 C623 0.930 . S
C618 H604 0.930 . S
C618 C616 1.395 . S
C618 C621 1.403 . S
C619 C616 1.403 . S
C619 C620 1.524 1_655 S
C619 C623 1.400 . S
C620 H605 0.960 . S
C620 H606 0.960 . S
C620 H607 0.960 . S
C620 C619 1.524 1_455 S
C621 C618 1.403 . S
C621 C622 1.392 . S
C621 C625 1.495 . S
C622 C621 1.392 . S
C622 C623 1.385 . S
C622 C624 1.478 . S
C623 H617 0.930 . S
C623 C619 1.400 . S
C623 C622 1.385 . S
C624 C622 1.478 . S
C624 C626 1.381 . S
C624 C630 1.383 . S
C625 C621 1.495 . S
C625 H631 0.959 . S
C625 H632 0.961 . S
C625 H633 0.960 . S
C626 C624 1.381 . S
C626 C627 1.394 . S
C626 H634 0.930 . S
C627 C626 1.394 . S
C627 C628 1.383 . S
C627 H635 0.929 . S
C628 C627 1.383 . S
C628 C629 1.377 . S
C629 H613 0.930 . S
C629 C628 1.377 . S
C629 C630 1.379 . S
C630 H614 0.931 . S
C630 C624 1.383 . S
C630 C629 1.379 . S
H631 C625 0.959 . S
H632 C625 0.961 . S
H633 C625 0.960 . S
H634 C626 0.930 . S
H635 C627 0.929 . S
H636 C644 0.929 . S
H637 C646 0.930 . S
H638 C648 0.930 . S
H639 C651 0.929 . S
H640 C654 0.930 . S
H641 C656 0.960 . S
H642 C656 0.960 . S
H643 C656 0.960 . S
C644 H636 0.929 . S
C644 C645 1.377 . S
C644 C646 1.384 . S
C645 C644 1.377 . S
C645 C651 1.390 . S
C646 H637 0.930 . S
C646 C644 1.384 . S
C646 C647 1.372 . S
C647 C646 1.372 . S
C647 C648 1.400 . S
C647 C652 1.490 . S
C648 H638 0.930 . S
C648 C647 1.400 . S
C648 C651 1.386 . S
H649 C665 0.930 . S
H650 C666 0.931 . S
C651 H639 0.929 . S
C651 C645 1.390 . S
C651 C648 1.386 . S
C652 C647 1.490 . S
C652 C654 1.395 . S
C652 C655 1.403 . S
H653 C659 0.930 . S
C654 H640 0.930 . S
C654 C652 1.395 . S
C654 C657 1.403 . S
C655 C652 1.403 . S
C655 C656 1.524 . S
C655 C659 1.400 . S
C656 H641 0.960 . S
C656 H642 0.960 . S
C656 H643 0.960 . S
C656 C655 1.524 . S
C657 C654 1.403 . S
C657 C658 1.392 . S
C657 C661 1.495 . S
C658 C657 1.392 . S
C658 C659 1.385 . S
C658 C660 1.478 . S
C659 H653 0.930 . S
C659 C655 1.400 . S
C659 C658 1.385 . S
C660 C658 1.478 . S
C660 C662 1.381 . S
C660 C666 1.383 . S
C661 C657 1.495 . S
C661 H667 0.959 . S
C661 H668 0.961 . S
C661 H669 0.960 . S
C662 C660 1.381 . S
C662 C663 1.394 . S
C662 H670 0.930 . S
C663 C662 1.394 . S
C663 C664 1.383 . S
C663 H671 0.929 . S
C664 C663 1.383 . S
C664 C665 1.377 . S
C665 H649 0.930 . S
C665 C664 1.377 . S
C665 C666 1.379 . S
C666 H650 0.931 . S
C666 C660 1.383 . S
C666 C665 1.379 . S
H667 C661 0.959 . S
H668 C661 0.961 . S
H669 C661 0.960 . S
H670 C662 0.930 . S
H671 C663 0.929 . S
H672 C680 0.929 . S
H673 C682 0.930 . S
H674 C684 0.930 . S
H675 C687 0.929 . S
H676 C690 0.930 . S
H677 C692 0.960 . S
H678 C692 0.960 . S
H679 C692 0.960 . S
C680 H672 0.929 . S
C680 C681 1.377 . S
C680 C682 1.384 . S
C681 C680 1.377 . S
C681 C687 1.390 . S
C682 H673 0.930 . S
C682 C680 1.384 . S
C682 C683 1.372 . S
C683 C682 1.372 . S
C683 C684 1.400 . S
C683 C688 1.490 . S
C684 H674 0.930 . S
C684 C683 1.400 . S
C684 C687 1.386 . S
H685 C701 0.930 . S
H686 C702 0.931 . S
C687 H675 0.929 . S
C687 C681 1.390 . S
C687 C684 1.386 . S
C688 C683 1.490 . S
C688 C690 1.395 . S
C688 C691 1.403 . S
H689 C695 0.930 . S
C690 H676 0.930 . S
C690 C688 1.395 . S
C690 C693 1.403 . S
C691 C688 1.403 . S
C691 C692 1.524 . S
C691 C695 1.400 . S
C692 H677 0.960 . S
C692 H678 0.960 . S
C692 H679 0.960 . S
C692 C691 1.524 . S
C693 C690 1.403 . S
C693 C694 1.392 . S
C693 C697 1.495 . S
C694 C693 1.392 . S
C694 C695 1.385 . S
C694 C696 1.478 . S
C695 H689 0.930 . S
C695 C691 1.400 . S
C695 C694 1.385 . S
C696 C694 1.478 . S
C696 C698 1.381 . S
C696 C702 1.383 . S
C697 C693 1.495 . S
C697 H703 0.959 . S
C697 H704 0.961 . S
C697 H705 0.960 . S
C698 C696 1.381 . S
C698 C699 1.394 . S
C698 H706 0.930 . S
C699 C698 1.394 . S
C699 C700 1.383 . S
C699 H707 0.929 . S
C700 C699 1.383 . S
C700 C701 1.377 . S
C701 H685 0.930 . S
C701 C700 1.377 . S
C701 C702 1.379 . S
C702 H686 0.931 . S
C702 C696 1.383 . S
C702 C701 1.379 . S
H703 C697 0.959 . S
H704 C697 0.961 . S
H705 C697 0.960 . S
H706 C698 0.930 . S
H707 C699 0.929 . S
H708 C716 0.929 . S
H709 C718 0.930 . S
H710 C720 0.930 . S
H711 C723 0.929 . S
H712 C726 0.930 . S
H713 C728 0.960 . S
H714 C728 0.960 . S
H715 C728 0.960 . S
C716 H708 0.929 . S
C716 C717 1.377 . S
C716 C718 1.384 . S
C717 C716 1.377 . S
C717 C723 1.390 . S
C718 H709 0.930 . S
C718 C716 1.384 . S
C718 C719 1.372 . S
C719 C718 1.372 . S
C719 C720 1.400 . S
C719 C724 1.490 . S
C720 H710 0.930 . S
C720 C719 1.400 . S
C720 C723 1.386 . S
H721 C737 0.930 . S
H722 C738 0.931 . S
C723 H711 0.929 . S
C723 C717 1.390 . S
C723 C720 1.386 . S
C724 C719 1.490 . S
C724 C726 1.395 . S
C724 C727 1.403 . S
H725 C731 0.930 . S
C726 H712 0.930 . S
C726 C724 1.395 . S
C726 C729 1.403 . S
C727 C724 1.403 . S
C727 C728 1.524 . S
C727 C731 1.400 . S
C728 H713 0.960 . S
C728 H714 0.960 . S
C728 H715 0.960 . S
C728 C727 1.524 . S
C729 C726 1.403 . S
C729 C730 1.392 . S
C729 C733 1.495 . S
C730 C729 1.392 . S
C730 C731 1.385 . S
C730 C732 1.478 . S
C731 H725 0.930 . S
C731 C727 1.400 . S
C731 C730 1.385 . S
C732 C730 1.478 . S
C732 C734 1.381 . S
C732 C738 1.383 . S
C733 C729 1.495 . S
C733 H739 0.959 . S
C733 H740 0.961 . S
C733 H741 0.960 . S
C734 C732 1.381 . S
C734 C735 1.394 . S
C734 H742 0.930 . S
C735 C734 1.394 . S
C735 C736 1.383 . S
C735 H743 0.929 . S
C736 C735 1.383 . S
C736 C737 1.377 . S
C737 H721 0.930 . S
C737 C736 1.377 . S
C737 C738 1.379 . S
C738 H722 0.931 . S
C738 C732 1.383 . S
C738 C737 1.379 . S
H739 C733 0.959 . S
H740 C733 0.961 . S
H741 C733 0.960 . S
H742 C734 0.930 . S
H743 C735 0.929 . S
H744 C752 0.929 . S
H745 C754 0.930 . S
H746 C756 0.930 . S
H747 C759 0.929 . S
H748 C762 0.930 . S
H749 C764 0.960 . S
H750 C764 0.960 . S
H751 C764 0.960 . S
C752 H744 0.929 . S
C752 C753 1.377 . S
C752 C754 1.384 . S
C753 C752 1.377 . S
C753 C759 1.390 . S
C754 H745 0.930 . S
C754 C752 1.384 . S
C754 C755 1.372 . S
C755 C754 1.372 . S
C755 C756 1.400 . S
C755 C760 1.490 . S
C756 H746 0.930 . S
C756 C755 1.400 . S
C756 C759 1.386 . S
H757 C773 0.930 . S
H758 C774 0.931 . S
C759 H747 0.929 . S
C759 C753 1.390 . S
C759 C756 1.386 . S
C760 C755 1.490 . S
C760 C762 1.395 . S
C760 C763 1.403 . S
H761 C767 0.930 . S
C762 H748 0.930 . S
C762 C760 1.395 . S
C762 C765 1.403 . S
C763 C760 1.403 . S
C763 C764 1.524 . S
C763 C767 1.400 . S
C764 H749 0.960 . S
C764 H750 0.960 . S
C764 H751 0.960 . S
C764 C763 1.524 . S
C765 C762 1.403 . S
C765 C766 1.392 . S
C765 C769 1.495 . S
C766 C765 1.392 . S
C766 C767 1.385 . S
C766 C768 1.478 . S
C767 H761 0.930 . S
C767 C763 1.400 . S
C767 C766 1.385 . S
C768 C766 1.478 . S
C768 C770 1.381 . S
C768 C774 1.383 . S
C769 C765 1.495 . S
C769 H775 0.959 . S
C769 H776 0.961 . S
C769 H777 0.960 . S
C770 C768 1.381 . S
C770 C771 1.394 . S
C770 H778 0.930 . S
C771 C770 1.394 . S
C771 C772 1.383 . S
C771 H779 0.929 . S
C772 C771 1.383 . S
C772 C773 1.377 . S
C773 H757 0.930 . S
C773 C772 1.377 . S
C773 C774 1.379 . S
C774 H758 0.931 . S
C774 C768 1.383 . S
C774 C773 1.379 . S
H775 C769 0.959 . S
H776 C769 0.961 . S
H777 C769 0.960 . S
H778 C770 0.930 . S
H779 C771 0.929 . S
H780 C788 0.929 . S
H781 C790 0.930 . S
H782 C792 0.930 . S
H783 C795 0.929 . S
H784 C798 0.930 . S
H785 C800 0.960 . S
H786 C800 0.960 . S
H787 C800 0.960 . S
C788 H780 0.929 . S
C788 C789 1.377 . S
C788 C790 1.384 . S
C789 C788 1.377 . S
C789 C795 1.390 . S
C790 H781 0.930 . S
C790 C788 1.384 . S
C790 C791 1.372 . S
C791 C790 1.372 . S
C791 C792 1.400 . S
C791 C796 1.490 . S
C792 H782 0.930 . S
C792 C791 1.400 . S
C792 C795 1.386 . S
H793 C809 0.930 . S
H794 C810 0.931 . S
C795 H783 0.929 . S
C795 C789 1.390 . S
C795 C792 1.386 . S
C796 C791 1.490 . S
C796 C798 1.395 . S
C796 C799 1.403 . S
H797 C803 0.949 . S
C798 H784 0.930 . S
C798 C796 1.395 . S
C798 C801 1.403 . S
C799 C796 1.403 . S
C799 C800 1.524 . S
C799 C803 1.382 1_554 S
C800 H785 0.960 . S
C800 H786 0.960 . S
C800 H787 0.960 . S
C800 C799 1.524 . S
C801 C798 1.403 . S
C801 C802 1.360 1_554 S
C801 C805 1.495 . S
C802 C801 1.360 1_556 S
C802 C803 1.385 . S
C802 C804 1.511 . S
C803 H797 0.949 . S
C803 C799 1.382 1_556 S
C803 C802 1.385 . S
C804 C802 1.511 . S
C804 C806 1.381 . S
C804 C810 1.383 . S
C805 C801 1.495 . S
C805 H811 0.959 . S
C805 H812 0.961 . S
C805 H813 0.960 . S
C806 C804 1.381 . S
C806 C807 1.394 . S
C806 H814 0.930 . S
C807 C806 1.394 . S
C807 C808 1.383 . S
C807 H815 0.929 . S
C808 C807 1.383 . S
C808 C809 1.377 . S
C809 H793 0.930 . S
C809 C808 1.377 . S
C809 C810 1.379 . S
C810 H794 0.931 . S
C810 C804 1.383 . S
C810 C809 1.379 . S
H811 C805 0.959 . S
H812 C805 0.961 . S
H813 C805 0.960 . S
H814 C806 0.930 . S
H815 C807 0.929 . S
H816 C824 0.929 . S
H817 C826 0.930 . S
H818 C828 0.930 . S
H819 C831 0.929 . S
H820 C834 0.930 . S
H821 C836 0.960 . S
H822 C836 0.960 . S
H823 C836 0.960 . S
C824 H816 0.929 . S
C824 C825 1.377 . S
C824 C826 1.384 . S
C825 C824 1.377 . S
C825 C831 1.390 . S
C826 H817 0.930 . S
C826 C824 1.384 . S
C826 C827 1.372 . S
C827 C826 1.372 . S
C827 C828 1.400 . S
C827 C832 1.490 . S
C828 H818 0.930 . S
C828 C827 1.400 . S
C828 C831 1.386 . S
H829 C845 0.930 . S
H830 C846 0.931 . S
C831 H819 0.929 . S
C831 C825 1.390 . S
C831 C828 1.386 . S
C832 C827 1.490 . S
C832 C834 1.395 . S
C832 C835 1.403 . S
H833 C839 0.930 . S
C834 H820 0.930 . S
C834 C832 1.395 . S
C834 C837 1.403 . S
C835 C832 1.403 . S
C835 C836 1.524 . S
C835 C839 1.400 . S
C836 H821 0.960 . S
C836 H822 0.960 . S
C836 H823 0.960 . S
C836 C835 1.524 . S
C837 C834 1.403 . S
C837 C838 1.392 . S
C837 C841 1.495 . S
C838 C837 1.392 . S
C838 C839 1.385 . S
C838 C840 1.478 . S
C839 H833 0.930 . S
C839 C835 1.400 . S
C839 C838 1.385 . S
C840 C838 1.478 . S
C840 C842 1.381 . S
C840 C846 1.383 . S
C841 C837 1.495 . S
C841 H847 0.959 . S
C841 H848 0.961 . S
C841 H849 0.960 . S
C842 C840 1.381 . S
C842 C843 1.394 . S
C842 H850 0.930 . S
C843 C842 1.394 . S
C843 C844 1.383 . S
C843 H851 0.929 . S
C844 C843 1.383 . S
C844 C845 1.377 . S
C845 H829 0.930 . S
C845 C844 1.377 . S
C845 C846 1.379 . S
C846 H830 0.931 . S
C846 C840 1.383 . S
C846 C845 1.379 . S
H847 C841 0.959 . S
H848 C841 0.961 . S
H849 C841 0.960 . S
H850 C842 0.930 . S
H851 C843 0.929 . S
H852 C860 0.929 . S
H853 C862 0.930 . S
H854 C864 0.930 . S
H855 C867 0.929 . S
H856 C870 0.930 1_554 S
H857 C872 0.960 . S
H858 C872 0.960 . S
H859 C872 0.960 . S
C860 H852 0.929 . S
C860 C861 1.377 . S
C860 C862 1.384 . S
C861 C860 1.377 . S
C861 C867 1.390 . S
C862 H853 0.930 . S
C862 C860 1.384 . S
C862 C863 1.372 . S
C863 C862 1.372 . S
C863 C864 1.400 . S
C863 C868 1.490 1_554 S
C864 H854 0.930 . S
C864 C863 1.400 . S
C864 C867 1.386 . S
H865 C881 0.930 . S
H866 C882 0.931 . S
C867 H855 0.929 . S
C867 C861 1.390 . S
C867 C864 1.386 . S
C868 C863 1.490 1_556 S
C868 C870 1.395 . S
C868 C871 1.403 . S
H869 C875 0.930 . S
C870 H856 0.930 1_556 S
C870 C868 1.395 . S
C870 C873 1.403 . S
C871 C868 1.403 . S
C871 C872 1.524 . S
C871 C875 1.400 . S
C872 H857 0.960 . S
C872 H858 0.960 . S
C872 H859 0.960 . S
C872 C871 1.524 . S
C873 C870 1.403 . S
C873 C874 1.392 . S
C873 C877 1.495 . S
C874 C873 1.392 . S
C874 C875 1.385 . S
C874 C876 1.478 . S
C875 H869 0.930 . S
C875 C871 1.400 . S
C875 C874 1.385 . S
C876 C874 1.478 . S
C876 C878 1.381 . S
C876 C882 1.383 . S
C877 C873 1.495 . S
C877 H883 0.959 . S
C877 H884 0.961 . S
C877 H885 0.960 . S
C878 C876 1.381 . S
C878 C879 1.394 . S
C878 H886 0.930 . S
C879 C878 1.394 . S
C879 C880 1.383 . S
C879 H887 0.929 . S
C880 C879 1.383 . S
C880 C881 1.377 . S
C881 H865 0.930 . S
C881 C880 1.377 . S
C881 C882 1.379 . S
C882 H866 0.931 . S
C882 C876 1.383 . S
C882 C881 1.379 . S
H883 C877 0.959 . S
H884 C877 0.961 . S
H885 C877 0.960 . S
H886 C878 0.930 . S
H887 C879 0.929 . S
H888 C896 0.929 . S
H889 C898 0.930 . S
H890 C900 0.930 . S
H891 C903 0.929 . S
H892 C906 0.930 . S
H893 C908 0.960 . S
H894 C908 0.960 . S
H895 C908 0.960 . S
C896 H888 0.929 . S
C896 C897 1.377 . S
C896 C898 1.384 . S
C897 C896 1.377 . S
C897 C903 1.390 . S
C898 H889 0.930 . S
C898 C896 1.384 . S
C898 C899 1.372 . S
C899 C898 1.372 . S
C899 C900 1.400 . S
C899 C904 1.490 . S
C900 H890 0.930 . S
C900 C899 1.400 . S
C900 C903 1.386 . S
H901 C917 0.930 . S
H902 C918 0.931 . S
C903 H891 0.929 . S
C903 C897 1.390 . S
C903 C900 1.386 . S
C904 C899 1.490 . S
C904 C906 1.395 . S
C904 C907 1.403 . S
H905 C911 0.930 . S
C906 H892 0.930 . S
C906 C904 1.395 . S
C906 C909 1.403 . S
C907 C904 1.403 . S
C907 C908 1.524 . S
C907 C911 1.400 . S
C908 H893 0.960 . S
C908 H894 0.960 . S
C908 H895 0.960 . S
C908 C907 1.524 . S
C909 C906 1.403 . S
C909 C910 1.392 . S
C909 C913 1.495 . S
C910 C909 1.392 . S
C910 C911 1.385 . S
C910 C912 1.478 . S
C911 H905 0.930 . S
C911 C907 1.400 . S
C911 C910 1.385 . S
C912 C910 1.478 . S
C912 C914 1.381 . S
C912 C918 1.383 . S
C913 C909 1.495 . S
C913 H919 0.959 . S
C913 H920 0.961 . S
C913 H921 0.960 . S
C914 C912 1.381 . S
C914 C915 1.394 . S
C914 H922 0.930 . S
C915 C914 1.394 . S
C915 C916 1.383 . S
C915 H923 0.929 . S
C916 C915 1.383 . S
C916 C917 1.377 . S
C917 H901 0.930 . S
C917 C916 1.377 . S
C917 C918 1.379 . S
C918 H902 0.931 . S
C918 C912 1.383 . S
C918 C917 1.379 . S
H919 C913 0.959 . S
H920 C913 0.961 . S
H921 C913 0.960 . S
H922 C914 0.930 . S
H923 C915 0.929 . S
H924 C932 0.929 . S
H925 C934 0.930 . S
H926 C936 0.930 . S
H927 C939 0.929 . S
H928 C942 0.930 . S
H929 C944 0.960 . S
H930 C944 0.960 . S
H931 C944 0.960 . S
C932 H924 0.929 . S
C932 C933 1.377 . S
C932 C934 1.384 . S
C933 C932 1.377 . S
C933 C939 1.390 . S
C934 H925 0.930 . S
C934 C932 1.384 . S
C934 C935 1.372 . S
C935 C934 1.372 . S
C935 C936 1.400 . S
C935 C940 1.490 . S
C936 H926 0.930 . S
C936 C935 1.400 . S
C936 C939 1.386 . S
H937 C953 0.930 . S
H938 C954 0.931 . S
C939 H927 0.929 . S
C939 C933 1.390 . S
C939 C936 1.386 . S
C940 C935 1.490 . S
C940 C942 1.395 . S
C940 C943 1.403 . S
H941 C947 0.930 . S
C942 H928 0.930 . S
C942 C940 1.395 . S
C942 C945 1.403 . S
C943 C940 1.403 . S
C943 C944 1.524 . S
C943 C947 1.400 . S
C944 H929 0.960 . S
C944 H930 0.960 . S
C944 H931 0.960 . S
C944 C943 1.524 . S
C945 C942 1.403 . S
C945 C946 1.392 . S
C945 C949 1.495 . S
C946 C945 1.392 . S
C946 C947 1.385 . S
C946 C948 1.478 . S
C947 H941 0.930 . S
C947 C943 1.400 . S
C947 C946 1.385 . S
C948 C946 1.478 . S
C948 C950 1.381 . S
C948 C954 1.383 . S
C949 C945 1.495 . S
C949 H955 0.959 . S
C949 H956 0.961 . S
C949 H957 0.960 . S
C950 C948 1.381 . S
C950 C951 1.394 . S
C950 H958 0.930 . S
C951 C950 1.394 . S
C951 C952 1.383 . S
C951 H959 0.929 . S
C952 C951 1.383 . S
C952 C953 1.377 . S
C953 H937 0.930 . S
C953 C952 1.377 . S
C953 C954 1.379 . S
C954 H938 0.931 . S
C954 C948 1.383 . S
C954 C953 1.379 . S
H955 C949 0.959 . S
H956 C949 0.961 . S
H957 C949 0.960 . S
H958 C950 0.930 . S
H959 C951 0.929 . S
H960 C968 0.929 . S
H961 C970 0.930 . S
H962 C972 0.930 . S
H963 C975 0.929 . S
H964 C978 0.930 . S
H965 C980 0.960 . S
H966 C980 0.960 . S
H967 C980 0.960 . S
C968 H960 0.929 . S
C968 C969 1.377 . S
C968 C970 1.384 . S
C969 C968 1.377 . S
C969 C975 1.390 . S
C970 H961 0.930 . S
C970 C968 1.384 . S
C970 C971 1.372 . S
C971 C970 1.372 . S
C971 C972 1.400 . S
C971 C976 1.490 . S
C972 H962 0.930 . S
C972 C971 1.400 . S
C972 C975 1.386 . S
H973 C989 0.930 . S
H974 C990 0.931 . S
C975 H963 0.929 . S
C975 C969 1.390 . S
C975 C972 1.386 . S
C976 C971 1.490 . S
C976 C978 1.395 . S
C976 C979 1.403 . S
H977 C983 0.930 . S
C978 H964 0.930 . S
C978 C976 1.395 . S
C978 C981 1.403 . S
C979 C976 1.403 . S
C979 C980 1.524 . S
C979 C983 1.400 . S
C980 H965 0.960 . S
C980 H966 0.960 . S
C980 H967 0.960 . S
C980 C979 1.524 . S
C981 C978 1.403 . S
C981 C982 1.392 . S
C981 C985 1.495 . S
C982 C981 1.392 . S
C982 C983 1.385 . S
C982 C984 1.478 . S
C983 H977 0.930 . S
C983 C979 1.400 . S
C983 C982 1.385 . S
C984 C982 1.478 . S
C984 C986 1.381 . S
C984 C990 1.383 . S
C985 C981 1.495 . S
C985 H991 0.959 . S
C985 H992 0.961 . S
C985 H993 0.960 . S
C986 C984 1.381 . S
C986 C987 1.394 . S
C986 H994 0.930 . S
C987 C986 1.394 . S
C987 C988 1.383 . S
C987 H995 0.929 . S
C988 C987 1.383 . S
C988 C989 1.377 . S
C989 H973 0.930 . S
C989 C988 1.377 . S
C989 C990 1.379 . S
C990 H974 0.931 . S
C990 C984 1.383 . S
C990 C989 1.379 . S
H991 C985 0.959 . S
H992 C985 0.961 . S
H993 C985 0.960 . S
H994 C986 0.930 . S
H995 C987 0.929 . S
H996 C1004 0.929 . S
H997 C1006 0.930 . S
H998 C1008 0.930 . S
H999 C1011 0.929 . S
H1000 C1014 0.930 . S
H1001 C1016 0.960 . S
H1002 C1016 0.960 . S
H1003 C1016 0.960 . S
C1004 H996 0.929 . S
C1004 C1005 1.377 . S
C1004 C1006 1.384 . S
C1005 C1004 1.377 . S
C1005 C1011 1.390 . S
C1006 H997 0.930 . S
C1006 C1004 1.384 . S
C1006 C1007 1.372 . S
C1007 C1006 1.372 . S
C1007 C1008 1.400 . S
C1007 C1012 1.490 . S
C1008 H998 0.930 . S
C1008 C1007 1.400 . S
C1008 C1011 1.386 . S
H1009 C1025 0.930 . S
H1010 C1026 0.931 . S
C1011 H999 0.929 . S
C1011 C1005 1.390 . S
C1011 C1008 1.386 . S
C1012 C1007 1.490 . S
C1012 C1014 1.395 . S
C1012 C1015 1.403 . S
H1013 C1019 0.930 1_565 S
C1014 H1000 0.930 . S
C1014 C1012 1.395 . S
C1014 C1017 1.403 . S
C1015 C1012 1.403 . S
C1015 C1016 1.524 . S
C1015 C1019 1.400 . S
C1016 H1001 0.960 . S
C1016 H1002 0.960 . S
C1016 H1003 0.960 . S
C1016 C1015 1.524 . S
C1017 C1014 1.403 . S
C1017 C1018 1.392 . S
C1017 C1021 1.495 . S
C1018 C1017 1.392 . S
C1018 C1019 1.385 . S
C1018 C1020 1.478 1_545 S
C1019 H1013 0.930 1_545 S
C1019 C1015 1.400 . S
C1019 C1018 1.385 . S
C1020 C1018 1.478 1_565 S
C1020 C1022 1.381 . S
C1020 C1026 1.383 . S
C1021 C1017 1.495 . S
C1021 H1027 0.959 . S
C1021 H1028 0.961 . S
C1021 H1029 0.960 . S
C1022 C1020 1.381 . S
C1022 C1023 1.394 . S
C1022 H1030 0.930 . S
C1023 C1022 1.394 . S
C1023 C1024 1.383 . S
C1023 H1031 0.929 . S
C1024 C1023 1.383 . S
C1024 C1025 1.377 . S
C1025 H1009 0.930 . S
C1025 C1024 1.377 . S
C1025 C1026 1.379 . S
C1026 H1010 0.931 . S
C1026 C1020 1.383 . S
C1026 C1025 1.379 . S
H1027 C1021 0.959 . S
H1028 C1021 0.961 . S
H1029 C1021 0.960 . S
H1030 C1022 0.930 . S
H1031 C1023 0.929 . S
H1032 C1040 0.929 . S
H1033 C1042 0.930 . S
H1034 C1044 0.930 . S
H1035 C1047 0.929 . S
H1036 C1050 0.930 . S
H1037 C1052 0.960 . S
H1038 C1052 0.960 . S
H1039 C1052 0.960 . S
C1040 H1032 0.929 . S
C1040 C1041 1.377 . S
C1040 C1042 1.384 . S
C1041 C1040 1.377 . S
C1041 C1047 1.390 . S
C1042 H1033 0.930 . S
C1042 C1040 1.384 . S
C1042 C1043 1.372 . S
C1043 C1042 1.372 . S
C1043 C1044 1.400 . S
C1043 C1048 1.490 . S
C1044 H1034 0.930 . S
C1044 C1043 1.400 . S
C1044 C1047 1.386 . S
H1045 C1061 0.930 . S
H1046 C1062 0.931 . S
C1047 H1035 0.929 . S
C1047 C1041 1.390 . S
C1047 C1044 1.386 . S
C1048 C1043 1.490 . S
C1048 C1050 1.395 . S
C1048 C1051 1.403 . S
H1049 C1055 0.930 . S
C1050 H1036 0.930 . S
C1050 C1048 1.395 . S
C1050 C1053 1.403 . S
C1051 C1048 1.403 . S
C1051 C1052 1.524 . S
C1051 C1055 1.400 . S
C1052 H1037 0.960 . S
C1052 H1038 0.960 . S
C1052 H1039 0.960 . S
C1052 C1051 1.524 . S
C1053 C1050 1.403 . S
C1053 C1054 1.392 . S
C1053 C1057 1.495 . S
C1054 C1053 1.392 . S
C1054 C1055 1.385 . S
C1054 C1056 1.478 . S
C1055 H1049 0.930 . S
C1055 C1051 1.400 . S
C1055 C1054 1.385 . S
C1056 C1054 1.478 . S
C1056 C1058 1.381 . S
C1056 C1062 1.383 . S
C1057 C1053 1.495 . S
C1057 H1063 0.959 . S
C1057 H1064 0.961 . S
C1057 H1065 0.960 . S
C1058 C1056 1.381 . S
C1058 C1059 1.394 . S
C1058 H1066 0.930 . S
C1059 C1058 1.394 . S
C1059 C1060 1.383 . S
C1059 H1067 0.929 . S
C1060 C1059 1.383 . S
C1060 C1061 1.377 . S
C1061 H1045 0.930 . S
C1061 C1060 1.377 . S
C1061 C1062 1.379 . S
C1062 H1046 0.931 . S
C1062 C1056 1.383 . S
C1062 C1061 1.379 . S
H1063 C1057 0.959 . S
H1064 C1057 0.961 . S
H1065 C1057 0.960 . S
H1066 C1058 0.930 . S
H1067 C1059 0.929 . S
H1068 C1076 0.929 . S
H1069 C1078 0.930 . S
H1070 C1080 0.930 . S
H1071 C1083 0.929 . S
H1072 C1086 0.915 1_545 S
H1073 C1088 0.960 . S
H1074 C1088 0.960 . S
H1075 C1088 0.960 1_545 S
C1076 H1068 0.929 . S
C1076 C1077 1.377 . S
C1076 C1078 1.384 . S
C1077 C1076 1.377 . S
C1077 C1083 1.390 . S
C1078 H1069 0.930 . S
C1078 C1076 1.384 . S
C1078 C1079 1.372 . S
C1079 C1078 1.372 . S
C1079 C1080 1.400 . S
C1079 C1084 1.490 . S
C1080 H1070 0.930 . S
C1080 C1079 1.400 . S
C1080 C1083 1.386 . S
H1081 C1097 0.930 . S
H1082 C1098 0.931 . S
C1083 H1071 0.929 . S
C1083 C1077 1.390 . S
C1083 C1080 1.386 . S
C1084 C1079 1.490 . S
C1084 C1086 1.389 1_545 S
C1084 C1087 1.403 1_545 S
H1085 C1091 0.930 . S
C1086 H1072 0.915 1_565 S
C1086 C1084 1.389 1_565 S
C1086 C1089 1.424 . S
C1087 C1084 1.403 1_565 S
C1087 C1088 1.524 . S
C1087 C1091 1.400 . S
C1088 H1073 0.960 . S
C1088 H1074 0.960 . S
C1088 H1075 0.960 1_565 S
C1088 C1087 1.524 . S
C1089 C1086 1.424 . S
C1089 C1090 1.392 . S
C1089 C1093 1.495 . S
C1090 C1089 1.392 . S
C1090 C1091 1.385 . S
C1090 C1092 1.478 . S
C1091 H1085 0.930 . S
C1091 C1087 1.400 . S
C1091 C1090 1.385 . S
C1092 C1090 1.478 . S
C1092 C1094 1.381 . S
C1092 C1098 1.383 . S
C1093 C1089 1.495 . S
C1093 H1099 0.959 . S
C1093 H1100 0.961 . S
C1093 H1101 0.960 . S
C1094 C1092 1.381 . S
C1094 C1095 1.394 . S
C1094 H1102 0.930 . S
C1095 C1094 1.394 . S
C1095 C1096 1.383 . S
C1095 H1103 0.929 . S
C1096 C1095 1.383 . S
C1096 C1097 1.377 . S
C1097 H1081 0.930 . S
C1097 C1096 1.377 . S
C1097 C1098 1.379 . S
C1098 H1082 0.931 . S
C1098 C1092 1.383 . S
C1098 C1097 1.379 . S
H1099 C1093 0.959 . S
H1100 C1093 0.961 . S
H1101 C1093 0.960 . S
H1102 C1094 0.930 . S
H1103 C1095 0.929 . S
H1104 C1112 0.929 . S
H1105 C1114 0.930 . S
H1106 C1116 0.930 . S
H1107 C1119 0.929 . S
H1108 C1122 0.930 . S
H1109 C1124 0.960 . S
H1110 C1124 0.960 . S
H1111 C1124 0.960 . S
C1112 H1104 0.929 . S
C1112 C1113 1.377 . S
C1112 C1114 1.384 . S
C1113 C1112 1.377 . S
C1113 C1119 1.390 . S
C1114 H1105 0.930 . S
C1114 C1112 1.384 . S
C1114 C1115 1.372 . S
C1115 C1114 1.372 . S
C1115 C1116 1.400 . S
C1115 C1120 1.490 . S
C1116 H1106 0.930 . S
C1116 C1115 1.400 . S
C1116 C1119 1.386 . S
H1117 C1133 0.930 . S
H1118 C1134 0.931 . S
C1119 H1107 0.929 . S
C1119 C1113 1.390 . S
C1119 C1116 1.386 . S
C1120 C1115 1.490 . S
C1120 C1122 1.395 . S
C1120 C1123 1.403 . S
H1121 C1127 0.930 . S
C1122 H1108 0.930 . S
C1122 C1120 1.395 . S
C1122 C1125 1.403 . S
C1123 C1120 1.403 . S
C1123 C1124 1.524 . S
C1123 C1127 1.400 . S
C1124 H1109 0.960 . S
C1124 H1110 0.960 . S
C1124 H1111 0.960 . S
C1124 C1123 1.524 . S
C1125 C1122 1.403 . S
C1125 C1126 1.392 . S
C1125 C1129 1.495 . S
C1126 C1125 1.392 . S
C1126 C1127 1.385 . S
C1126 C1128 1.478 . S
C1127 H1121 0.930 . S
C1127 C1123 1.400 . S
C1127 C1126 1.385 . S
C1128 C1126 1.478 . S
C1128 C1130 1.381 . S
C1128 C1134 1.383 . S
C1129 C1125 1.495 . S
C1129 H1135 0.959 . S
C1129 H1136 0.961 . S
C1129 H1137 0.960 . S
C1130 C1128 1.381 . S
C1130 C1131 1.394 . S
C1130 H1138 0.930 . S
C1131 C1130 1.394 . S
C1131 C1132 1.383 . S
C1131 H1139 0.929 . S
C1132 C1131 1.383 . S
C1132 C1133 1.377 . S
C1133 H1117 0.930 . S
C1133 C1132 1.377 . S
C1133 C1134 1.379 . S
C1134 H1118 0.931 . S
C1134 C1128 1.383 . S
C1134 C1133 1.379 . S
H1135 C1129 0.959 . S
H1136 C1129 0.961 . S
H1137 C1129 0.960 . S
H1138 C1130 0.930 . S
H1139 C1131 0.929 . S
H1140 C1148 0.929 . S
H1141 C1150 0.930 . S
H1142 C1152 0.930 . S
H1143 C1155 0.929 . S
H1144 C1158 0.930 . S
H1145 C1160 0.960 . S
H1146 C1160 0.960 . S
H1147 C1160 0.960 . S
C1148 H1140 0.929 . S
C1148 C1149 1.377 . S
C1148 C1150 1.384 . S
C1149 C1148 1.377 . S
C1149 C1155 1.390 . S
C1150 H1141 0.930 . S
C1150 C1148 1.384 . S
C1150 C1151 1.372 . S
C1151 C1150 1.372 . S
C1151 C1152 1.400 . S
C1151 C1156 1.490 . S
C1152 H1142 0.930 . S
C1152 C1151 1.400 . S
C1152 C1155 1.386 . S
H1153 C1169 0.930 . S
H1154 C1170 0.931 . S
C1155 H1143 0.929 . S
C1155 C1149 1.390 . S
C1155 C1152 1.386 . S
C1156 C1151 1.490 . S
C1156 C1158 1.395 . S
C1156 C1159 1.403 . S
H1157 C1163 0.930 . S
C1158 H1144 0.930 . S
C1158 C1156 1.395 . S
C1158 C1161 1.403 . S
C1159 C1156 1.403 . S
C1159 C1160 1.524 . S
C1159 C1163 1.400 . S
C1160 H1145 0.960 . S
C1160 H1146 0.960 . S
C1160 H1147 0.960 . S
C1160 C1159 1.524 . S
C1161 C1158 1.403 . S
C1161 C1162 1.392 . S
C1161 C1165 1.495 . S
C1162 C1161 1.392 . S
C1162 C1163 1.385 . S
C1162 C1164 1.478 . S
C1163 H1157 0.930 . S
C1163 C1159 1.400 . S
C1163 C1162 1.385 . S
C1164 C1162 1.478 . S
C1164 C1166 1.381 . S
C1164 C1170 1.383 . S
C1165 C1161 1.495 . S
C1165 H1171 0.959 . S
C1165 H1172 0.961 . S
C1165 H1173 0.960 . S
C1166 C1164 1.381 . S
C1166 C1167 1.394 . S
C1166 H1174 0.930 . S
C1167 C1166 1.394 . S
C1167 C1168 1.383 . S
C1167 H1175 0.929 . S
C1168 C1167 1.383 . S
C1168 C1169 1.377 . S
C1169 H1153 0.930 . S
C1169 C1168 1.377 . S
C1169 C1170 1.379 . S
C1170 H1154 0.931 . S
C1170 C1164 1.383 . S
C1170 C1169 1.379 . S
H1171 C1165 0.959 . S
H1172 C1165 0.961 . S
H1173 C1165 0.960 . S
H1174 C1166 0.930 . S
H1175 C1167 0.929 . S
H1176 C1184 0.929 . S
H1177 C1186 0.930 . S
H1178 C1188 0.930 . S
H1179 C1191 0.929 . S
H1180 C1194 0.930 . S
H1181 C1196 0.960 . S
H1182 C1196 0.960 . S
H1183 C1196 0.960 . S
C1184 H1176 0.929 . S
C1184 C1185 1.377 . S
C1184 C1186 1.384 . S
C1185 C1184 1.377 . S
C1185 C1191 1.390 . S
C1186 H1177 0.930 . S
C1186 C1184 1.384 . S
C1186 C1187 1.372 . S
C1187 C1186 1.372 . S
C1187 C1188 1.400 . S
C1187 C1192 1.490 . S
C1188 H1178 0.930 . S
C1188 C1187 1.400 . S
C1188 C1191 1.386 . S
H1189 C1205 0.930 . S
H1190 C1206 0.931 . S
C1191 H1179 0.929 . S
C1191 C1185 1.390 . S
C1191 C1188 1.386 . S
C1192 C1187 1.490 . S
C1192 C1194 1.395 . S
C1192 C1195 1.403 . S
H1193 C1199 0.930 . S
C1194 H1180 0.930 . S
C1194 C1192 1.395 . S
C1194 C1197 1.403 . S
C1195 C1192 1.403 . S
C1195 C1196 1.524 . S
C1195 C1199 1.400 . S
C1196 H1181 0.960 . S
C1196 H1182 0.960 . S
C1196 H1183 0.960 . S
C1196 C1195 1.524 . S
C1197 C1194 1.403 . S
C1197 C1198 1.392 . S
C1197 C1201 1.495 . S
C1198 C1197 1.392 . S
C1198 C1199 1.385 . S
C1198 C1200 1.478 . S
C1199 H1193 0.930 . S
C1199 C1195 1.400 . S
C1199 C1198 1.385 . S
C1200 C1198 1.478 . S
C1200 C1202 1.381 . S
C1200 C1206 1.383 . S
C1201 C1197 1.495 . S
C1201 H1207 0.959 . S
C1201 H1208 0.961 . S
C1201 H1209 0.960 . S
C1202 C1200 1.381 . S
C1202 C1203 1.394 . S
C1202 H1210 0.930 . S
C1203 C1202 1.394 . S
C1203 C1204 1.383 . S
C1203 H1211 0.929 . S
C1204 C1203 1.383 . S
C1204 C1205 1.377 . S
C1205 H1189 0.930 . S
C1205 C1204 1.377 . S
C1205 C1206 1.379 . S
C1206 H1190 0.931 . S
C1206 C1200 1.383 . S
C1206 C1205 1.379 . S
H1207 C1201 0.959 . S
H1208 C1201 0.961 . S
H1209 C1201 0.960 . S
H1210 C1202 0.930 . S
H1211 C1203 0.929 . S
H1212 C1220 0.929 . S
H1213 C1222 0.930 . S
H1214 C1224 0.930 . S
H1215 C1227 0.929 . S
H1216 C1230 0.930 . S
H1217 C1232 0.960 . S
H1218 C1232 0.960 . S
H1219 C1232 0.960 . S
C1220 H1212 0.929 . S
C1220 C1221 1.377 . S
C1220 C1222 1.384 . S
C1221 C1220 1.377 . S
C1221 C1227 1.390 . S
C1222 H1213 0.930 . S
C1222 C1220 1.384 . S
C1222 C1223 1.372 . S
C1223 C1222 1.372 . S
C1223 C1224 1.400 . S
C1223 C1228 1.490 . S
C1224 H1214 0.930 . S
C1224 C1223 1.400 . S
C1224 C1227 1.386 . S
H1225 C1241 0.930 . S
H1226 C1242 0.931 . S
C1227 H1215 0.929 . S
C1227 C1221 1.390 . S
C1227 C1224 1.386 . S
C1228 C1223 1.490 . S
C1228 C1230 1.395 . S
C1228 C1231 1.403 . S
H1229 C1235 0.930 . S
C1230 H1216 0.930 . S
C1230 C1228 1.395 . S
C1230 C1233 1.403 . S
C1231 C1228 1.403 . S
C1231 C1232 1.524 . S
C1231 C1235 1.400 . S
C1232 H1217 0.960 . S
C1232 H1218 0.960 . S
C1232 H1219 0.960 . S
C1232 C1231 1.524 . S
C1233 C1230 1.403 . S
C1233 C1234 1.392 . S
C1233 C1237 1.495 . S
C1234 C1233 1.392 . S
C1234 C1235 1.385 . S
C1234 C1236 1.478 . S
C1235 H1229 0.930 . S
C1235 C1231 1.400 . S
C1235 C1234 1.385 . S
C1236 C1234 1.478 . S
C1236 C1238 1.381 . S
C1236 C1242 1.383 . S
C1237 C1233 1.495 . S
C1237 H1243 0.959 . S
C1237 H1244 0.961 . S
C1237 H1245 0.960 . S
C1238 C1236 1.381 . S
C1238 C1239 1.394 . S
C1238 H1246 0.930 . S
C1239 C1238 1.394 . S
C1239 C1240 1.383 . S
C1239 H1247 0.929 . S
C1240 C1239 1.383 . S
C1240 C1241 1.377 . S
C1241 H1225 0.930 . S
C1241 C1240 1.377 . S
C1241 C1242 1.379 . S
C1242 H1226 0.931 . S
C1242 C1236 1.383 . S
C1242 C1241 1.379 . S
H1243 C1237 0.959 . S
H1244 C1237 0.961 . S
H1245 C1237 0.960 . S
H1246 C1238 0.930 . S
H1247 C1239 0.929 . S
H1248 C1256 0.929 . S
H1249 C1258 0.930 . S
H1250 C1260 0.930 . S
H1251 C1263 0.929 . S
H1252 C1266 0.930 . S
H1253 C1268 0.960 . S
H1254 C1268 0.960 . S
H1255 C1268 0.960 . S
C1256 H1248 0.929 . S
C1256 C1257 1.377 . S
C1256 C1258 1.384 . S
C1257 C1256 1.377 . S
C1257 C1263 1.390 . S
C1258 H1249 0.930 . S
C1258 C1256 1.384 . S
C1258 C1259 1.372 . S
C1259 C1258 1.372 . S
C1259 C1260 1.400 . S
C1259 C1264 1.490 . S
C1260 H1250 0.930 . S
C1260 C1259 1.400 . S
C1260 C1263 1.386 . S
H1261 C1277 0.930 . S
H1262 C1278 0.931 . S
C1263 H1251 0.929 . S
C1263 C1257 1.390 . S
C1263 C1260 1.386 . S
C1264 C1259 1.490 . S
C1264 C1266 1.395 . S
C1264 C1267 1.403 . S
H1265 C1271 0.930 . S
C1266 H1252 0.930 . S
C1266 C1264 1.395 . S
C1266 C1269 1.403 . S
C1267 C1264 1.403 . S
C1267 C1268 1.524 . S
C1267 C1271 1.400 . S
C1268 H1253 0.960 . S
C1268 H1254 0.960 . S
C1268 H1255 0.960 . S
C1268 C1267 1.524 . S
C1269 C1266 1.403 . S
C1269 C1270 1.392 . S
C1269 C1273 1.495 . S
C1270 C1269 1.392 . S
C1270 C1271 1.385 . S
C1270 C1272 1.478 . S
C1271 H1265 0.930 . S
C1271 C1267 1.400 . S
C1271 C1270 1.385 . S
C1272 C1270 1.478 . S
C1272 C1274 1.381 . S
C1272 C1278 1.383 . S
C1273 C1269 1.495 . S
C1273 H1279 0.959 . S
C1273 H1280 0.961 . S
C1273 H1281 0.960 . S
C1274 C1272 1.381 . S
C1274 C1275 1.394 . S
C1274 H1282 0.930 . S
C1275 C1274 1.394 . S
C1275 C1276 1.383 . S
C1275 H1283 0.929 . S
C1276 C1275 1.383 . S
C1276 C1277 1.377 . S
C1277 H1261 0.930 . S
C1277 C1276 1.377 . S
C1277 C1278 1.379 . S
C1278 H1262 0.931 . S
C1278 C1272 1.383 . S
C1278 C1277 1.379 . S
H1279 C1273 0.959 . S
H1280 C1273 0.961 . S
H1281 C1273 0.960 . S
H1282 C1274 0.930 . S
H1283 C1275 0.929 . S
H1284 C1292 0.929 . S
H1285 C1294 0.930 . S
H1286 C1296 0.930 . S
H1287 C1299 0.929 . S
H1288 C1302 0.930 . S
H1289 C1304 0.960 . S
H1290 C1304 0.960 . S
H1291 C1304 0.960 . S
C1292 H1284 0.929 . S
C1292 C1293 1.377 . S
C1292 C1294 1.384 . S
C1293 C1292 1.377 . S
C1293 C1299 1.390 . S
C1294 H1285 0.930 . S
C1294 C1292 1.384 . S
C1294 C1295 1.372 . S
C1295 C1294 1.372 . S
C1295 C1296 1.400 . S
C1295 C1300 1.490 . S
C1296 H1286 0.930 . S
C1296 C1295 1.400 . S
C1296 C1299 1.386 . S
H1297 C1313 0.930 . S
H1298 C1314 0.931 . S
C1299 H1287 0.929 . S
C1299 C1293 1.390 . S
C1299 C1296 1.386 . S
C1300 C1295 1.490 . S
C1300 C1302 1.395 . S
C1300 C1303 1.403 . S
H1301 C1307 0.930 . S
C1302 H1288 0.930 . S
C1302 C1300 1.395 . S
C1302 C1305 1.403 . S
C1303 C1300 1.403 . S
C1303 C1304 1.524 . S
C1303 C1307 1.400 . S
C1304 H1289 0.960 . S
C1304 H1290 0.960 . S
C1304 H1291 0.960 . S
C1304 C1303 1.524 . S
C1305 C1302 1.403 . S
C1305 C1306 1.392 . S
C1305 C1309 1.495 . S
C1306 C1305 1.392 . S
C1306 C1307 1.385 . S
C1306 C1308 1.478 . S
C1307 H1301 0.930 . S
C1307 C1303 1.400 . S
C1307 C1306 1.385 . S
C1308 C1306 1.478 . S
C1308 C1310 1.381 . S
C1308 C1314 1.383 . S
C1309 C1305 1.495 . S
C1309 H1315 0.959 . S
C1309 H1316 0.961 . S
C1309 H1317 0.960 . S
C1310 C1308 1.381 . S
C1310 C1311 1.394 . S
C1310 H1318 0.930 . S
C1311 C1310 1.394 . S
C1311 C1312 1.383 . S
C1311 H1319 0.929 . S
C1312 C1311 1.383 . S
C1312 C1313 1.377 . S
C1313 H1297 0.930 . S
C1313 C1312 1.377 . S
C1313 C1314 1.379 . S
C1314 H1298 0.931 . S
C1314 C1308 1.383 . S
C1314 C1313 1.379 . S
H1315 C1309 0.959 . S
H1316 C1309 0.961 . S
H1317 C1309 0.960 . S
H1318 C1310 0.930 . S
H1319 C1311 0.929 . S
H1320 C1328 0.929 . S
H1321 C1330 0.930 . S
H1322 C1332 0.930 . S
H1323 C1335 0.929 . S
H1324 C1338 0.930 . S
H1325 C1340 0.960 . S
H1326 C1340 0.960 . S
H1327 C1340 0.960 . S
C1328 H1320 0.929 . S
C1328 C1329 1.377 . S
C1328 C1330 1.384 . S
C1329 C1328 1.377 . S
C1329 C1335 1.390 . S
C1330 H1321 0.930 . S
C1330 C1328 1.384 . S
C1330 C1331 1.372 . S
C1331 C1330 1.372 . S
C1331 C1332 1.400 . S
C1331 C1336 1.490 . S
C1332 H1322 0.930 . S
C1332 C1331 1.400 . S
C1332 C1335 1.386 . S
H1333 C1349 0.930 . S
H1334 C1350 0.931 . S
C1335 H1323 0.929 . S
C1335 C1329 1.390 . S
C1335 C1332 1.386 . S
C1336 C1331 1.490 . S
C1336 C1338 1.395 . S
C1336 C1339 1.403 . S
H1337 C1343 0.930 . S
C1338 H1324 0.930 . S
C1338 C1336 1.395 . S
C1338 C1341 1.403 . S
C1339 C1336 1.403 . S
C1339 C1340 1.524 . S
C1339 C1343 1.400 . S
C1340 H1325 0.960 . S
C1340 H1326 0.960 . S
C1340 H1327 0.960 . S
C1340 C1339 1.524 . S
C1341 C1338 1.403 . S
C1341 C1342 1.392 . S
C1341 C1345 1.495 . S
C1342 C1341 1.392 . S
C1342 C1343 1.385 . S
C1342 C1344 1.478 1_455 S
C1343 H1337 0.930 . S
C1343 C1339 1.400 . S
C1343 C1342 1.385 . S
C1344 C1342 1.478 1_655 S
C1344 C1346 1.381 . S
C1344 C1350 1.383 . S
C1345 C1341 1.495 . S
C1345 H1351 0.959 . S
C1345 H1352 0.948 1_455 S
C1345 H1353 0.960 . S
C1346 C1344 1.381 . S
C1346 C1347 1.394 . S
C1346 H1354 0.930 1_655 S
C1347 C1346 1.394 . S
C1347 C1348 1.383 . S
C1347 H1355 0.929 . S
C1348 C1347 1.383 . S
C1348 C1349 1.377 . S
C1349 H1333 0.930 . S
C1349 C1348 1.377 . S
C1349 C1350 1.379 . S
C1350 H1334 0.931 . S
C1350 C1344 1.383 . S
C1350 C1349 1.379 . S
H1351 C1345 0.959 . S
H1352 C1345 0.948 1_655 S
H1353 C1345 0.960 . S
H1354 C1346 0.930 1_455 S
H1355 C1347 0.929 . S
H1356 C1364 0.929 . S
H1357 C1366 0.930 . S
H1358 C1368 0.930 . S
H1359 C1371 0.929 . S
H1360 C1374 0.930 . S
H1361 C1376 0.960 . S
H1362 C1376 0.960 . S
H1363 C1376 0.960 . S
C1364 H1356 0.929 . S
C1364 C1365 1.377 . S
C1364 C1366 1.384 . S
C1365 C1364 1.377 . S
C1365 C1371 1.390 . S
C1366 H1357 0.930 . S
C1366 C1364 1.384 . S
C1366 C1367 1.372 . S
C1367 C1366 1.372 . S
C1367 C1368 1.400 . S
C1367 C1372 1.490 . S
C1368 H1358 0.930 . S
C1368 C1367 1.400 . S
C1368 C1371 1.386 . S
H1369 C1385 0.930 . S
H1370 C1386 0.931 . S
C1371 H1359 0.929 . S
C1371 C1365 1.390 . S
C1371 C1368 1.386 . S
C1372 C1367 1.490 . S
C1372 C1374 1.395 . S
C1372 C1375 1.403 . S
H1373 C1379 0.930 . S
C1374 H1360 0.930 . S
C1374 C1372 1.395 . S
C1374 C1377 1.403 . S
C1375 C1372 1.403 . S
C1375 C1376 1.524 . S
C1375 C1379 1.400 . S
C1376 H1361 0.960 . S
C1376 H1362 0.960 . S
C1376 H1363 0.960 . S
C1376 C1375 1.524 . S
C1377 C1374 1.403 . S
C1377 C1378 1.392 . S
C1377 C1381 1.495 . S
C1378 C1377 1.392 . S
C1378 C1379 1.385 . S
C1378 C1380 1.478 . S
C1379 H1373 0.930 . S
C1379 C1375 1.400 . S
C1379 C1378 1.385 . S
C1380 C1378 1.478 . S
C1380 C1382 1.381 . S
C1380 C1386 1.383 . S
C1381 C1377 1.495 . S
C1381 H1387 0.959 . S
C1381 H1388 0.961 . S
C1381 H1389 0.960 . S
C1382 C1380 1.381 . S
C1382 C1383 1.394 . S
C1382 H1390 0.930 . S
C1383 C1382 1.394 . S
C1383 C1384 1.383 . S
C1383 H1391 0.929 . S
C1384 C1383 1.383 . S
C1384 C1385 1.377 . S
C1385 H1369 0.930 . S
C1385 C1384 1.377 . S
C1385 C1386 1.379 . S
C1386 H1370 0.931 . S
C1386 C1380 1.383 . S
C1386 C1385 1.379 . S
H1387 C1381 0.959 . S
H1388 C1381 0.961 . S
H1389 C1381 0.960 . S
H1390 C1382 0.930 . S
H1391 C1383 0.929 . S
H1392 C1400 0.929 . S
H1393 C1402 0.930 . S
H1394 C1404 0.930 . S
H1395 C1407 0.929 . S
H1396 C1410 0.930 . S
H1397 C1412 0.960 . S
H1398 C1412 0.960 . S
H1399 C1412 0.960 . S
C1400 H1392 0.929 . S
C1400 C1401 1.377 . S
C1400 C1402 1.384 . S
C1401 C1400 1.377 . S
C1401 C1407 1.390 . S
C1402 H1393 0.930 . S
C1402 C1400 1.384 . S
C1402 C1403 1.372 . S
C1403 C1402 1.372 . S
C1403 C1404 1.400 . S
C1403 C1408 1.490 . S
C1404 H1394 0.930 . S
C1404 C1403 1.400 . S
C1404 C1407 1.386 . S
H1405 C1421 0.930 . S
H1406 C1422 0.931 . S
C1407 H1395 0.929 . S
C1407 C1401 1.390 . S
C1407 C1404 1.386 . S
C1408 C1403 1.490 . S
C1408 C1410 1.395 . S
C1408 C1411 1.403 . S
H1409 C1415 0.930 . S
C1410 H1396 0.930 . S
C1410 C1408 1.395 . S
C1410 C1413 1.403 . S
C1411 C1408 1.403 . S
C1411 C1412 1.524 . S
C1411 C1415 1.400 . S
C1412 H1397 0.960 . S
C1412 H1398 0.960 . S
C1412 H1399 0.960 . S
C1412 C1411 1.524 . S
C1413 C1410 1.403 . S
C1413 C1414 1.392 . S
C1413 C1417 1.495 . S
C1414 C1413 1.392 . S
C1414 C1415 1.385 . S
C1414 C1416 1.478 . S
C1415 H1409 0.930 . S
C1415 C1411 1.400 . S
C1415 C1414 1.385 . S
C1416 C1414 1.478 . S
C1416 C1418 1.381 . S
C1416 C1422 1.383 . S
C1417 C1413 1.495 . S
C1417 H1423 0.959 . S
C1417 H1424 0.961 . S
C1417 H1425 0.960 . S
C1418 C1416 1.381 . S
C1418 C1419 1.394 . S
C1418 H1426 0.930 . S
C1419 C1418 1.394 . S
C1419 C1420 1.383 . S
C1419 H1427 0.929 . S
C1420 C1419 1.383 . S
C1420 C1421 1.377 . S
C1421 H1405 0.930 . S
C1421 C1420 1.377 . S
C1421 C1422 1.379 . S
C1422 H1406 0.931 . S
C1422 C1416 1.383 . S
C1422 C1421 1.379 . S
H1423 C1417 0.959 . S
H1424 C1417 0.961 . S
H1425 C1417 0.960 . S
H1426 C1418 0.930 . S
H1427 C1419 0.929 . S
H1428 C1436 0.929 . S
H1429 C1438 0.930 . S
H1430 C1440 0.930 . S
H1431 C1443 0.929 . S
H1432 C1446 0.930 . S
H1433 C1448 0.960 . S
H1434 C1448 0.960 . S
H1435 C1448 0.960 . S
C1436 H1428 0.929 . S
C1436 C1437 1.377 . S
C1436 C1438 1.384 . S
C1437 C1436 1.377 . S
C1437 C1443 1.390 . S
C1438 H1429 0.930 . S
C1438 C1436 1.384 . S
C1438 C1439 1.372 . S
C1439 C1438 1.372 . S
C1439 C1440 1.400 . S
C1439 C1444 1.490 . S
C1440 H1430 0.930 . S
C1440 C1439 1.400 . S
C1440 C1443 1.386 . S
H1441 C1457 0.930 . S
H1442 C1458 0.931 . S
C1443 H1431 0.929 . S
C1443 C1437 1.390 . S
C1443 C1440 1.386 . S
C1444 C1439 1.490 . S
C1444 C1446 1.395 . S
C1444 C1447 1.403 . S
H1445 C1451 0.930 . S
C1446 H1432 0.930 . S
C1446 C1444 1.395 . S
C1446 C1449 1.403 . S
C1447 C1444 1.403 . S
C1447 C1448 1.524 . S
C1447 C1451 1.400 . S
C1448 H1433 0.960 . S
C1448 H1434 0.960 . S
C1448 H1435 0.960 . S
C1448 C1447 1.524 . S
C1449 C1446 1.403 . S
C1449 C1450 1.392 . S
C1449 C1453 1.495 . S
C1450 C1449 1.392 . S
C1450 C1451 1.385 . S
C1450 C1452 1.478 . S
C1451 H1445 0.930 . S
C1451 C1447 1.400 . S
C1451 C1450 1.385 . S
C1452 C1450 1.478 . S
C1452 C1454 1.381 . S
C1452 C1458 1.383 . S
C1453 C1449 1.495 . S
C1453 H1459 0.959 . S
C1453 H1460 0.961 . S
C1453 H1461 0.960 . S
C1454 C1452 1.381 . S
C1454 C1455 1.394 . S
C1454 H1462 0.930 . S
C1455 C1454 1.394 . S
C1455 C1456 1.383 . S
C1455 H1463 0.929 . S
C1456 C1455 1.383 . S
C1456 C1457 1.377 . S
C1457 H1441 0.930 . S
C1457 C1456 1.377 . S
C1457 C1458 1.379 . S
C1458 H1442 0.931 . S
C1458 C1452 1.383 . S
C1458 C1457 1.379 . S
H1459 C1453 0.959 . S
H1460 C1453 0.961 . S
H1461 C1453 0.960 . S
H1462 C1454 0.930 . S
H1463 C1455 0.929 . S
H1464 C1472 0.929 . S
H1465 C1474 0.930 . S
H1466 C1476 0.930 . S
H1467 C1479 0.929 . S
H1468 C1482 0.930 . S
H1469 C1484 0.960 . S
H1470 C1484 0.960 . S
H1471 C1484 0.960 . S
C1472 H1464 0.929 . S
C1472 C1473 1.377 . S
C1472 C1474 1.384 . S
C1473 C1472 1.377 . S
C1473 C1479 1.390 . S
C1474 H1465 0.930 . S
C1474 C1472 1.384 . S
C1474 C1475 1.372 . S
C1475 C1474 1.372 . S
C1475 C1476 1.400 . S
C1475 C1480 1.490 . S
C1476 H1466 0.930 . S
C1476 C1475 1.400 . S
C1476 C1479 1.386 . S
H1477 C1493 0.930 . S
H1478 C1494 0.931 . S
C1479 H1467 0.929 . S
C1479 C1473 1.390 . S
C1479 C1476 1.386 . S
C1480 C1475 1.490 . S
C1480 C1482 1.395 . S
C1480 C1483 1.403 . S
H1481 C1487 0.930 . S
C1482 H1468 0.930 . S
C1482 C1480 1.395 . S
C1482 C1485 1.403 . S
C1483 C1480 1.403 . S
C1483 C1484 1.524 . S
C1483 C1487 1.400 . S
C1484 H1469 0.960 . S
C1484 H1470 0.960 . S
C1484 H1471 0.960 . S
C1484 C1483 1.524 . S
C1485 C1482 1.403 . S
C1485 C1486 1.392 . S
C1485 C1489 1.495 . S
C1486 C1485 1.392 . S
C1486 C1487 1.385 . S
C1486 C1488 1.478 . S
C1487 H1481 0.930 . S
C1487 C1483 1.400 . S
C1487 C1486 1.385 . S
C1488 C1486 1.478 . S
C1488 C1490 1.381 . S
C1488 C1494 1.383 . S
C1489 C1485 1.495 . S
C1489 H1495 0.959 . S
C1489 H1496 0.961 . S
C1489 H1497 0.960 . S
C1490 C1488 1.381 . S
C1490 C1491 1.394 . S
C1490 H1498 0.930 . S
C1491 C1490 1.394 . S
C1491 C1492 1.383 . S
C1491 H1499 0.929 . S
C1492 C1491 1.383 . S
C1492 C1493 1.377 . S
C1493 H1477 0.930 . S
C1493 C1492 1.377 . S
C1493 C1494 1.379 . S
C1494 H1478 0.931 . S
C1494 C1488 1.383 . S
C1494 C1493 1.379 . S
H1495 C1489 0.959 . S
H1496 C1489 0.961 . S
H1497 C1489 0.960 . S
H1498 C1490 0.930 . S
H1499 C1491 0.929 . S
H1500 C1508 0.929 . S
H1501 C1510 0.930 . S
H1502 C1512 0.930 . S
H1503 C1515 0.929 . S
H1504 C1518 0.930 . S
H1505 C1520 0.960 . S
H1506 C1520 0.960 . S
H1507 C1520 0.960 . S
C1508 H1500 0.929 . S
C1508 C1509 1.377 . S
C1508 C1510 1.384 . S
C1509 C1508 1.377 . S
C1509 C1515 1.390 . S
C1510 H1501 0.930 . S
C1510 C1508 1.384 . S
C1510 C1511 1.372 . S
C1511 C1510 1.372 . S
C1511 C1512 1.400 . S
C1511 C1516 1.490 . S
C1512 H1502 0.930 . S
C1512 C1511 1.400 . S
C1512 C1515 1.386 . S
H1513 C1529 0.930 . S
H1514 C1530 0.931 . S
C1515 H1503 0.929 . S
C1515 C1509 1.390 . S
C1515 C1512 1.386 . S
C1516 C1511 1.490 . S
C1516 C1518 1.395 . S
C1516 C1519 1.403 . S
H1517 C1523 0.930 . S
C1518 H1504 0.930 . S
C1518 C1516 1.395 . S
C1518 C1521 1.403 . S
C1519 C1516 1.403 . S
C1519 C1520 1.524 . S
C1519 C1523 1.400 . S
C1520 H1505 0.960 . S
C1520 H1506 0.960 . S
C1520 H1507 0.960 . S
C1520 C1519 1.524 . S
C1521 C1518 1.403 . S
C1521 C1522 1.392 . S
C1521 C1525 1.495 1_655 S
C1522 C1521 1.392 . S
C1522 C1523 1.385 . S
C1522 C1524 1.478 1_655 S
C1523 H1517 0.930 . S
C1523 C1519 1.400 . S
C1523 C1522 1.385 . S
C1524 C1522 1.478 1_455 S
C1524 C1526 1.381 . S
C1524 C1530 1.383 . S
C1525 C1521 1.495 1_455 S
C1525 H1531 0.959 1_455 S
C1525 H1532 0.961 . S
C1525 H1533 0.960 . S
C1526 C1524 1.381 . S
C1526 C1527 1.394 . S
C1526 H1534 0.930 . S
C1527 C1526 1.394 . S
C1527 C1528 1.383 . S
C1527 H1535 0.929 . S
C1528 C1527 1.383 . S
C1528 C1529 1.377 . S
C1529 H1513 0.930 . S
C1529 C1528 1.377 . S
C1529 C1530 1.379 . S
C1530 H1514 0.931 . S
C1530 C1524 1.383 . S
C1530 C1529 1.379 . S
H1531 C1525 0.959 1_655 S
H1532 C1525 0.961 . S
H1533 C1525 0.960 . S
H1534 C1526 0.930 . S
H1535 C1527 0.929 . S
C249 C9 1.077 . S
C268 C229 1.064 . S
C285 C199 1.355 . S
C304 C29 1.394 . S
C321 C59 1.174 . S
C340 C179 1.169 . S
C357 C69 1.666 . S
C376 C209 1.664 . S
C393 C89 1.488 . S
C412 C219 1.467 . S
C429 C119 1.168 . S
C448 C239 1.190 . S
C465 C189 1.526 1_565 S
C484 C129 1.538 . S
C501 C159 1.352 . S
C520 C169 1.435 . S
C537 C79 1.620 . S
C556 C99 1.645 . S
C573 C19 1.315 . S
C592 C109 1.381 . S
C609 C39 1.240 . S
C628 C139 1.197 . S
C645 C149 1.595 . S
C664 C49 1.605 1_554 S
C681 C2 1.597 . S
C700 C178 1.591 . S
C717 C22 1.494 . S
C736 C208 1.461 . S
C753 C228 1.478 . S
C772 C41 1.490 . S
C789 C62 1.325 . S
C808 C198 1.330 . S
C825 C82 1.256 . S
C844 C188 1.222 . S
C861 C168 1.122 . S
C880 C101 1.091 . S
C897 C218 1.141 . S
C916 C122 1.150 . S
C933 C238 2.184 . S
C952 C141 2.076 . S
C969 C18 1.634 . S
C988 C61 1.566 . S
C1005 C1 1.491 . S
C1024 C38 1.536 . S
C1041 C21 1.242 . S
C1060 C48 1.232 . S
C1077 C78 1.268 . S
C1096 C42 1.270 . S
C1113 C102 1.330 . S
C1132 C98 1.331 . S
C1149 C108 1.538 . S
C1168 C121 1.529 . S
C1185 C138 1.522 . S
C1204 C142 1.537 . S
C1221 C81 1.055 . S
C1240 C148 1.063 . S
C1257 C162 0.513 . S
C1276 C68 0.478 . S
C1293 C118 1.205 . S
C1312 C181 1.147 . S
C1329 C161 1.156 . S
C1348 C128 1.172 . S
C1365 C202 1.564 . S
C1384 C158 1.563 . S
C1401 C88 0.994 . S
C1420 C222 1.032 . S
C1437 C221 1.365 . S
C1456 C28 1.394 . S
C1473 C58 1.433 . S
C1492 C182 1.440 . S
C1509 C201 1.336 . S
C1528 C8 1.329 . S
