# Generated by pormake.
# Topology uot, (4)-cn, num edge types: 1
# Building blocks:
#     Node 0, Type 0, BuildingBlock: QUQFOY_clean_sbu_1, # of connection points: 4
#     Node 1, Type 0, BuildingBlock: QUQFOY_clean_sbu_1, # of connection points: 4
#     Node 2, Type 0, BuildingBlock: QUQFOY_clean_sbu_1, # of connection points: 4
#     Node 3, Type 0, BuildingBlock: QUQFOY_clean_sbu_1, # of connection points: 4
#     Node 4, Type 0, BuildingBlock: QUQFOY_clean_sbu_1, # of connection points: 4
#     Node 5, Type 0, BuildingBlock: QUQFOY_clean_sbu_1, # of connection points: 4
#     Node 6, Type 0, BuildingBlock: QUQFOY_clean_sbu_1, # of connection points: 4
#     Node 7, Type 0, BuildingBlock: QUQFOY_clean_sbu_1, # of connection points: 4
#     Node 8, Type 0, BuildingBlock: QUQFOY_clean_sbu_1, # of connection points: 4
#     Node 9, Type 0, BuildingBlock: QUQFOY_clean_sbu_1, # of connection points: 4
#     Node 10, Type 0, BuildingBlock: QUQFOY_clean_sbu_1, # of connection points: 4
#     Node 11, Type 0, BuildingBlock: QUQFOY_clean_sbu_1, # of connection points: 4
#     Node 12, Type 0, BuildingBlock: QUQFOY_clean_sbu_1, # of connection points: 4
#     Node 13, Type 0, BuildingBlock: QUQFOY_clean_sbu_1, # of connection points: 4
#     Node 14, Type 0, BuildingBlock: QUQFOY_clean_sbu_1, # of connection points: 4
#     Node 15, Type 0, BuildingBlock: QUQFOY_clean_sbu_1, # of connection points: 4
#     Edge 16, Type (0, 0), BuildingBlock: TEMPAE_clean_linker_10, # of connection points: 2
#     Edge 17, Type (0, 0), BuildingBlock: TEMPAE_clean_linker_10, # of connection points: 2
#     Edge 18, Type (0, 0), BuildingBlock: TEMPAE_clean_linker_10, # of connection points: 2
#     Edge 19, Type (0, 0), BuildingBlock: TEMPAE_clean_linker_10, # of connection points: 2
#     Edge 20, Type (0, 0), BuildingBlock: TEMPAE_clean_linker_10, # of connection points: 2
#     Edge 21, Type (0, 0), BuildingBlock: TEMPAE_clean_linker_10, # of connection points: 2
#     Edge 22, Type (0, 0), BuildingBlock: TEMPAE_clean_linker_10, # of connection points: 2
#     Edge 23, Type (0, 0), BuildingBlock: TEMPAE_clean_linker_10, # of connection points: 2
#     Edge 24, Type (0, 0), BuildingBlock: TEMPAE_clean_linker_10, # of connection points: 2
#     Edge 25, Type (0, 0), BuildingBlock: TEMPAE_clean_linker_10, # of connection points: 2
#     Edge 26, Type (0, 0), BuildingBlock: TEMPAE_clean_linker_10, # of connection points: 2
#     Edge 27, Type (0, 0), BuildingBlock: TEMPAE_clean_linker_10, # of connection points: 2
#     Edge 28, Type (0, 0), BuildingBlock: TEMPAE_clean_linker_10, # of connection points: 2
#     Edge 29, Type (0, 0), BuildingBlock: TEMPAE_clean_linker_10, # of connection points: 2
#     Edge 30, Type (0, 0), BuildingBlock: TEMPAE_clean_linker_10, # of connection points: 2
#     Edge 31, Type (0, 0), BuildingBlock: TEMPAE_clean_linker_10, # of connection points: 2
#     Edge 32, Type (0, 0), BuildingBlock: TEMPAE_clean_linker_10, # of connection points: 2
#     Edge 33, Type (0, 0), BuildingBlock: TEMPAE_clean_linker_10, # of connection points: 2
#     Edge 34, Type (0, 0), BuildingBlock: TEMPAE_clean_linker_10, # of connection points: 2
#     Edge 35, Type (0, 0), BuildingBlock: TEMPAE_clean_linker_10, # of connection points: 2
#     Edge 36, Type (0, 0), BuildingBlock: TEMPAE_clean_linker_10, # of connection points: 2
#     Edge 37, Type (0, 0), BuildingBlock: TEMPAE_clean_linker_10, # of connection points: 2
#     Edge 38, Type (0, 0), BuildingBlock: TEMPAE_clean_linker_10, # of connection points: 2
#     Edge 39, Type (0, 0), BuildingBlock: TEMPAE_clean_linker_10, # of connection points: 2
#     Edge 40, Type (0, 0), BuildingBlock: TEMPAE_clean_linker_10, # of connection points: 2
#     Edge 41, Type (0, 0), BuildingBlock: TEMPAE_clean_linker_10, # of connection points: 2
#     Edge 42, Type (0, 0), BuildingBlock: TEMPAE_clean_linker_10, # of connection points: 2
#     Edge 43, Type (0, 0), BuildingBlock: TEMPAE_clean_linker_10, # of connection points: 2
#     Edge 44, Type (0, 0), BuildingBlock: TEMPAE_clean_linker_10, # of connection points: 2
#     Edge 45, Type (0, 0), BuildingBlock: TEMPAE_clean_linker_10, # of connection points: 2
#     Edge 46, Type (0, 0), BuildingBlock: TEMPAE_clean_linker_10, # of connection points: 2
#     Edge 47, Type (0, 0), BuildingBlock: TEMPAE_clean_linker_10, # of connection points: 2
# Relax obj value: 0.057
# Max RMSD: 0.082
# Mean RMSD: 0.082
data_MOF--net-uot--node1-QUQFOY_clean_sbu_1--edge1-TEMPAE_clean_linker_10
_symmetry_space_group_name_H-M    P1
_symmetry_Int_Tables_number       1
_symmetry_cell_setting            triclinic
loop_
_symmetry_equiv_pos_as_xyz
'x, y, z'
_cell_length_a     46.921867
_cell_length_b     46.965692
_cell_length_c     45.208491
_cell_angle_alpha  90.033677
_cell_angle_beta   89.993844
_cell_angle_gamma 90.012582
loop_
_atom_site_label
_atom_site_type_symbol
_atom_site_fract_x
_atom_site_fract_y
_atom_site_fract_z
_atom_type_partial_charge
O0 O 0.17274 0.40285 0.29815 0.0
Cd1 Cd 0.20771 0.42765 0.30891 0.0
Cd2 Cd 0.17046 0.44824 0.34988 0.0
O3 O 0.14511 0.41494 0.33565 0.0
O4 O 0.24166 0.40817 0.29176 0.0
O5 O 0.23433 0.41223 0.33998 0.0
C6 C 0.24966 0.40259 0.31842 0.0
C7 C 0.17202 0.4617 0.39981 0.0
C8 C 0.14959 0.40011 0.31254 0.0
C9 C 0.18961 0.48745 0.30028 0.0
O10 O 0.17276 0.48235 0.3216 0.0
O11 O 0.20788 0.46892 0.29248 0.0
O12 O 0.14973 0.46583 0.38378 0.0
O13 O 0.19324 0.4484 0.38795 0.0
O14 O 0.39279 0.8413 0.69684 0.0
Cd15 Cd 0.41822 0.8054 0.69414 0.0
Cd16 Cd 0.44344 0.839 0.65094 0.0
O17 O 0.41046 0.86668 0.66011 0.0
O18 O 0.3947 0.77626 0.71486 0.0
O19 O 0.40679 0.77259 0.66771 0.0
C20 C 0.39297 0.76265 0.69017 0.0
C21 C 0.46007 0.8346 0.60223 0.0
C22 C 0.39258 0.86367 0.681 0.0
C23 C 0.47781 0.82353 0.70608 0.0
O24 O 0.47528 0.8373 0.68205 0.0
O25 O 0.4577 0.8075 0.71502 0.0
O26 O 0.46417 0.85732 0.61756 0.0
O27 O 0.44536 0.81439 0.61416 0.0
O28 O 0.83575 0.60242 0.2964 0.0
Cd29 Cd 0.80072 0.5776 0.30676 0.0
Cd30 Cd 0.83709 0.55721 0.34838 0.0
O31 O 0.86276 0.59032 0.33434 0.0
O32 O 0.76687 0.59701 0.28935 0.0
O33 O 0.77385 0.59295 0.33763 0.0
C34 C 0.75869 0.60259 0.31597 0.0
C35 C 0.83458 0.54477 0.39854 0.0
C36 C 0.85869 0.60513 0.31115 0.0
C37 C 0.81884 0.5177 0.29865 0.0
O38 O 0.83522 0.52278 0.32038 0.0
O39 O 0.80087 0.53631 0.29037 0.0
O40 O 0.85712 0.5402 0.38301 0.0
O41 O 0.81358 0.55777 0.38595 0.0
O42 O 0.61287 0.17185 0.70421 0.0
Cd43 Cd 0.58642 0.20643 0.69726 0.0
Cd44 Cd 0.56341 0.17108 0.65581 0.0
O45 O 0.59726 0.14524 0.66734 0.0
O46 O 0.60575 0.24026 0.71471 0.0
O47 O 0.59856 0.23504 0.66656 0.0
C48 C 0.60894 0.24978 0.68817 0.0
C49 C 0.54836 0.17387 0.60644 0.0
C50 C 0.61417 0.1491 0.68897 0.0
C51 C 0.52701 0.1875 0.70866 0.0
O52 O 0.53038 0.17239 0.68563 0.0
O53 O 0.54648 0.20461 0.7168 0.0
O54 O 0.54468 0.15125 0.62204 0.0
O55 O 0.56189 0.19485 0.61846 0.0
O56 O 0.16989 0.60587 0.70644 0.0
Cd57 Cd 0.20553 0.58131 0.6974 0.0
Cd58 Cd 0.16953 0.55899 0.65564 0.0
O59 O 0.1432 0.59187 0.66891 0.0
O60 O 0.23886 0.6013 0.71531 0.0
O61 O 0.23313 0.59626 0.66696 0.0
C62 C 0.24779 0.60625 0.68883 0.0
C63 C 0.17157 0.54483 0.60591 0.0
C64 C 0.14691 0.60753 0.69157 0.0
C65 C 0.18833 0.52115 0.70657 0.0
O66 O 0.17217 0.52533 0.68448 0.0
O67 O 0.2057 0.54038 0.71475 0.0
O68 O 0.14934 0.54041 0.62194 0.0
O69 O 0.19246 0.55873 0.61764 0.0
O70 O 0.61938 0.84356 0.30803 0.0
Cd71 Cd 0.59486 0.80696 0.30865 0.0
Cd72 Cd 0.56597 0.83879 0.35074 0.0
O73 O 0.59765 0.86833 0.34284 0.0
O74 O 0.62005 0.77833 0.28936 0.0
O75 O 0.60482 0.77402 0.33547 0.0
C76 C 0.62005 0.76433 0.31387 0.0
C77 C 0.54789 0.83389 0.39884 0.0
C78 C 0.61718 0.86608 0.32349 0.0
C79 C 0.53519 0.82239 0.2936 0.0
O80 O 0.53548 0.83521 0.31834 0.0
O81 O 0.55686 0.80829 0.28511 0.0
O82 O 0.5428 0.85608 0.38302 0.0
O83 O 0.56428 0.81453 0.38778 0.0
O84 O 0.83876 0.40058 0.70119 0.0
Cd85 Cd 0.80255 0.42512 0.69653 0.0
Cd86 Cd 0.83781 0.45137 0.65581 0.0
O87 O 0.86605 0.41923 0.66651 0.0
O88 O 0.77334 0.40085 0.71609 0.0
O89 O 0.7709 0.41301 0.66888 0.0
C90 C 0.76058 0.39889 0.69094 0.0
C91 C 0.83423 0.46714 0.60671 0.0
C92 C 0.86215 0.40113 0.68703 0.0
C93 C 0.81873 0.48467 0.71046 0.0
O94 O 0.83361 0.48296 0.68703 0.0
O95 O 0.80284 0.46404 0.71823 0.0
O96 O 0.85623 0.47263 0.62275 0.0
O97 O 0.81433 0.45169 0.61821 0.0
O98 O 0.39059 0.16248 0.31156 0.0
Cd99 Cd 0.41497 0.19918 0.31238 0.0
Cd100 Cd 0.44429 0.16685 0.35391 0.0
O101 O 0.41271 0.13724 0.34571 0.0
O102 O 0.3896 0.22757 0.29295 0.0
O103 O 0.40463 0.23216 0.33909 0.0
C104 C 0.38939 0.24164 0.31743 0.0
C105 C 0.46221 0.17179 0.40209 0.0
C106 C 0.39301 0.13973 0.32658 0.0
C107 C 0.47468 0.18396 0.29681 0.0
O108 O 0.47462 0.17087 0.32139 0.0
O109 O 0.45292 0.1981 0.28869 0.0
O110 O 0.46753 0.14968 0.38621 0.0
O111 O 0.44571 0.19104 0.39103 0.0
O112 O 0.66911 0.89608 0.80171 0.0
Cd113 Cd 0.70442 0.92165 0.80912 0.0
Cd114 Cd 0.6696 0.94415 0.85166 0.0
O115 O 0.64321 0.91094 0.83948 0.0
O116 O 0.73805 0.90211 0.79135 0.0
O117 O 0.73273 0.90836 0.83963 0.0
C118 C 0.74744 0.89823 0.81785 0.0
C119 C 0.67223 0.95872 0.9012 0.0
C120 C 0.64652 0.89465 0.81724 0.0
C121 C 0.68653 0.98167 0.79982 0.0
O122 O 0.67131 0.97773 0.82267 0.0
O123 O 0.7034 0.96226 0.791 0.0
O124 O 0.64971 0.96269 0.88549 0.0
O125 O 0.69314 0.94503 0.88924 0.0
O126 O 0.89851 0.33207 0.20063 0.0
Cd127 Cd 0.92601 0.29914 0.19049 0.0
Cd128 Cd 0.94306 0.33508 0.14865 0.0
O129 O 0.9068 0.35735 0.16047 0.0
O130 O 0.9093 0.26409 0.20834 0.0
O131 O 0.91208 0.27124 0.15998 0.0
C132 C 0.90361 0.25564 0.18183 0.0
C133 C 0.95543 0.32652 0.09942 0.0
C134 C 0.89301 0.35344 0.18435 0.0
C135 C 0.98405 0.32338 0.19818 0.0
O136 O 0.9772 0.33958 0.17682 0.0
O137 O 0.96754 0.30318 0.20586 0.0
O138 O 0.9556 0.3519 0.11025 0.0
O139 O 0.94706 0.30588 0.11617 0.0
O140 O 0.33945 0.11339 0.80724 0.0
Cd141 Cd 0.30383 0.08768 0.81014 0.0
Cd142 Cd 0.33816 0.06143 0.8515 0.0
O143 O 0.36602 0.09427 0.84222 0.0
O144 O 0.27413 0.11141 0.79073 0.0
O145 O 0.27141 0.09798 0.83757 0.0
C146 C 0.26092 0.11225 0.8157 0.0
C147 C 0.33407 0.04479 0.90021 0.0
C148 C 0.36239 0.1129 0.82218 0.0
C149 C 0.32137 0.02853 0.79588 0.0
O150 O 0.3354 0.0301 0.81986 0.0
O151 O 0.30562 0.04913 0.78776 0.0
O152 O 0.3565 0.04019 0.88454 0.0
O153 O 0.31396 0.05986 0.88858 0.0
O154 O 0.11192 0.6741 0.20372 0.0
Cd155 Cd 0.08428 0.70692 0.19364 0.0
Cd156 Cd 0.06798 0.67153 0.15132 0.0
O157 O 0.10439 0.64946 0.16296 0.0
O158 O 0.10064 0.74219 0.21139 0.0
O159 O 0.09801 0.73475 0.16305 0.0
C160 C 0.10628 0.75055 0.18484 0.0
C161 C 0.0558 0.6809 0.10228 0.0
C162 C 0.11785 0.65307 0.18709 0.0
C163 C 0.02641 0.68223 0.20049 0.0
O164 O 0.03368 0.66622 0.17911 0.0
O165 O 0.04262 0.70255 0.20851 0.0
O166 O 0.05589 0.6553 0.11251 0.0
O167 O 0.06384 0.70131 0.11952 0.0
O168 O 0.66268 0.11784 0.19563 0.0
Cd169 Cd 0.69901 0.09289 0.19435 0.0
Cd170 Cd 0.6661 0.06427 0.15308 0.0
O171 O 0.637 0.09627 0.16142 0.0
O172 O 0.72836 0.11773 0.213 0.0
O173 O 0.73165 0.10232 0.16686 0.0
C174 C 0.74195 0.11743 0.18823 0.0
C175 C 0.6707 0.04621 0.10494 0.0
C176 C 0.63983 0.11583 0.18066 0.0
C177 C 0.68315 0.03349 0.20992 0.0
O178 O 0.6698 0.03384 0.18548 0.0
O179 O 0.6977 0.055 0.21799 0.0
O180 O 0.64846 0.04135 0.1208 0.0
O181 O 0.69025 0.0624 0.11597 0.0
O182 O 0.11271 0.33394 0.80349 0.0
Cd183 Cd 0.08464 0.30109 0.81202 0.0
Cd184 Cd 0.06564 0.33661 0.85339 0.0
O185 O 0.10197 0.35942 0.84291 0.0
O186 O 0.10148 0.26605 0.79435 0.0
O187 O 0.09675 0.27252 0.84266 0.0
C188 C 0.10567 0.25701 0.82093 0.0
C189 C 0.05218 0.32754 0.90218 0.0
C190 C 0.11705 0.35553 0.81987 0.0
C191 C 0.02679 0.32511 0.80197 0.0
O192 O 0.03231 0.34087 0.82412 0.0
O193 O 0.04403 0.30547 0.79453 0.0
O194 O 0.05186 0.35298 0.89156 0.0
O195 O 0.06119 0.30712 0.88547 0.0
O196 O 0.34614 0.88964 0.1956 0.0
Cd197 Cd 0.30982 0.91459 0.19506 0.0
Cd198 Cd 0.34195 0.94355 0.15362 0.0
O199 O 0.37142 0.9118 0.1615 0.0
O200 O 0.28084 0.88963 0.21411 0.0
O201 O 0.27676 0.90519 0.1681 0.0
C202 C 0.26686 0.88997 0.18958 0.0
C203 C 0.33639 0.96096 0.10536 0.0
C204 C 0.36885 0.89197 0.18045 0.0
C205 C 0.32554 0.97407 0.21077 0.0
O206 O 0.33844 0.97404 0.18606 0.0
O207 O 0.31141 0.95233 0.21895 0.0
O208 O 0.35879 0.96633 0.12081 0.0
O209 O 0.31715 0.94477 0.11696 0.0
O210 O 0.89327 0.66805 0.81148 0.0
Cd211 Cd 0.92043 0.70245 0.81556 0.0
Cd212 Cd 0.94222 0.66848 0.85851 0.0
O213 O 0.90704 0.64327 0.85027 0.0
O214 O 0.89916 0.73246 0.79367 0.0
O215 O 0.90901 0.73567 0.84143 0.0
C216 C 0.89652 0.74599 0.81832 0.0
C217 C 0.95679 0.6784 0.90678 0.0
C218 C 0.89057 0.64651 0.82823 0.0
C219 C 0.97893 0.67996 0.80481 0.0
O220 O 0.97472 0.6654 0.82811 0.0
O221 O 0.96056 0.69823 0.79646 0.0
O222 O 0.95825 0.65304 0.89605 0.0
O223 O 0.94615 0.69829 0.89045 0.0
C224 C 0.27357 0.36376 0.34681 0.0
C225 C 0.27422 0.38354 0.32363 0.0
C226 C 0.2941 0.34201 0.34869 0.0
C227 C 0.31622 0.34062 0.32738 0.0
C228 C 0.31814 0.36195 0.30532 0.0
C229 C 0.29682 0.38284 0.30338 0.0
C230 C 0.29079 0.31933 0.37208 0.0
C231 C 0.34184 0.36181 0.28273 0.0
C232 C 0.37829 0.28941 0.33971 0.0
C233 C 0.37097 0.26702 0.32064 0.0
C234 C 0.36083 0.31371 0.34207 0.0
C235 C 0.33508 0.3151 0.32575 0.0
C236 C 0.32735 0.29213 0.30707 0.0
C237 C 0.3456 0.26865 0.30439 0.0
C238 C 0.3702 0.33811 0.3615 0.0
C239 C 0.29974 0.29231 0.28986 0.0
H240 H 0.25595 0.36412 0.36232 0.0
H241 H 0.29745 0.39825 0.28555 0.0
H242 H 0.28439 0.29901 0.36142 0.0
H243 H 0.31132 0.31547 0.38353 0.0
H244 H 0.27444 0.32507 0.38882 0.0
H245 H 0.34281 0.38207 0.27009 0.0
H246 H 0.36272 0.35825 0.29364 0.0
H247 H 0.33846 0.34411 0.26686 0.0
H248 H 0.39797 0.28822 0.3522 0.0
H249 H 0.33972 0.25121 0.28989 0.0
H250 H 0.35374 0.34266 0.37845 0.0
H251 H 0.37266 0.35765 0.34794 0.0
H252 H 0.39073 0.33368 0.37285 0.0
H253 H 0.28153 0.29605 0.30504 0.0
H254 H 0.29606 0.27202 0.27782 0.0
H255 H 0.29993 0.30994 0.27355 0.0
C256 C 0.38018 0.7152 0.6681 0.0
C257 C 0.37399 0.73764 0.68752 0.0
C258 C 0.3619 0.69148 0.66592 0.0
C259 C 0.33638 0.69083 0.68272 0.0
C260 C 0.32985 0.71382 0.70184 0.0
C261 C 0.34896 0.73663 0.70439 0.0
C262 C 0.37008 0.66696 0.64609 0.0
C263 C 0.30251 0.71447 0.71951 0.0
C264 C 0.27286 0.64491 0.66129 0.0
C265 C 0.27287 0.62473 0.68409 0.0
C266 C 0.29414 0.66595 0.65972 0.0
C267 C 0.31643 0.66614 0.6809 0.0
C268 C 0.31761 0.64442 0.7026 0.0
C269 C 0.2955 0.62433 0.7043 0.0
C270 C 0.29156 0.68917 0.6368 0.0
C271 C 0.34147 0.64322 0.72497 0.0
H272 H 0.39959 0.71593 0.65512 0.0
H273 H 0.34394 0.75414 0.71915 0.0
H274 H 0.37151 0.6471 0.65929 0.0
H275 H 0.35344 0.66354 0.62903 0.0
H276 H 0.39082 0.67056 0.63483 0.0
H277 H 0.29983 0.73471 0.73194 0.0
H278 H 0.28394 0.7117 0.70458 0.0
H279 H 0.30221 0.6966 0.73553 0.0
H280 H 0.2552 0.6454 0.64583 0.0
H281 H 0.29561 0.60859 0.72185 0.0
H282 H 0.31206 0.69221 0.62503 0.0
H283 H 0.28635 0.70959 0.64793 0.0
H284 H 0.27467 0.68451 0.62027 0.0
H285 H 0.36239 0.64613 0.71393 0.0
H286 H 0.3417 0.62274 0.73724 0.0
H287 H 0.33894 0.66078 0.74118 0.0
C288 C 0.63055 0.7165 0.3362 0.0
C289 C 0.63821 0.73881 0.31721 0.0
C290 C 0.64777 0.69205 0.3387 0.0
C291 C 0.67365 0.69044 0.32259 0.0
C292 C 0.68171 0.71332 0.30398 0.0
C293 C 0.66368 0.73695 0.30116 0.0
C294 C 0.63804 0.66774 0.35803 0.0
C295 C 0.70946 0.7129 0.28701 0.0
C296 C 0.73467 0.64146 0.34421 0.0
C297 C 0.73413 0.62168 0.32101 0.0
C298 C 0.71424 0.66331 0.34593 0.0
C299 C 0.69231 0.66479 0.32442 0.0
C300 C 0.69046 0.64345 0.30234 0.0
C301 C 0.71169 0.62246 0.30058 0.0
C302 C 0.71747 0.686 0.36935 0.0
C303 C 0.66694 0.64369 0.27955 0.0
H304 H 0.61078 0.71787 0.34853 0.0
H305 H 0.66982 0.75433 0.28672 0.0
H306 H 0.63558 0.6482 0.34445 0.0
H307 H 0.65432 0.6631 0.37515 0.0
H308 H 0.61745 0.67233 0.36918 0.0
H309 H 0.71339 0.73315 0.27499 0.0
H310 H 0.72752 0.70905 0.30235 0.0
H311 H 0.70928 0.69524 0.27071 0.0
H312 H 0.75216 0.64104 0.35988 0.0
H313 H 0.71115 0.60705 0.28272 0.0
H314 H 0.69685 0.69 0.3806 0.0
H315 H 0.72411 0.70626 0.35875 0.0
H316 H 0.73362 0.68017 0.38626 0.0
H317 H 0.646 0.64744 0.29026 0.0
H318 H 0.66594 0.62341 0.26693 0.0
H319 H 0.67059 0.66132 0.26368 0.0
C320 C 0.62506 0.29818 0.70324 0.0
C321 C 0.62607 0.27565 0.68297 0.0
C322 C 0.64436 0.32095 0.70137 0.0
C323 C 0.66592 0.32052 0.67945 0.0
C324 C 0.66619 0.2984 0.65809 0.0
C325 C 0.6459 0.27643 0.65983 0.0
C326 C 0.64267 0.34459 0.72395 0.0
C327 C 0.68928 0.29663 0.63491 0.0
C328 C 0.71376 0.38536 0.66794 0.0
C329 C 0.73618 0.37931 0.68741 0.0
C330 C 0.69046 0.3666 0.66522 0.0
C331 C 0.69028 0.34082 0.68151 0.0
C332 C 0.71334 0.3344 0.70058 0.0
C333 C 0.7357 0.35395 0.70369 0.0
C334 C 0.66582 0.37461 0.64546 0.0
C335 C 0.7145 0.3068 0.71771 0.0
H336 H 0.60958 0.29764 0.72105 0.0
H337 H 0.64684 0.25884 0.64432 0.0
H338 H 0.66024 0.34223 0.74018 0.0
H339 H 0.64522 0.36564 0.71312 0.0
H340 H 0.62214 0.34433 0.73618 0.0
H341 H 0.68465 0.28011 0.61797 0.0
H342 H 0.69207 0.31742 0.62366 0.0
H343 H 0.70984 0.29133 0.64573 0.0
H344 H 0.71411 0.40504 0.65543 0.0
H345 H 0.75323 0.34907 0.71847 0.0
H346 H 0.64597 0.37589 0.65875 0.0
H347 H 0.66245 0.35799 0.62839 0.0
H348 H 0.66924 0.39538 0.63424 0.0
H349 H 0.69672 0.30597 0.73385 0.0
H350 H 0.73487 0.30422 0.72996 0.0
H351 H 0.71193 0.28846 0.70246 0.0
C352 C 0.79592 0.88206 0.8028 0.0
C353 C 0.77316 0.88077 0.82281 0.0
C354 C 0.81876 0.86283 0.80471 0.0
C355 C 0.81818 0.84103 0.82635 0.0
C356 C 0.79573 0.84037 0.84734 0.0
C357 C 0.77372 0.86061 0.84562 0.0
C358 C 0.84276 0.86496 0.78257 0.0
C359 C 0.79375 0.817 0.87016 0.0
C360 C 0.85268 0.7715 0.80294 0.0
C361 C 0.87741 0.77093 0.82028 0.0
C362 C 0.83308 0.79391 0.80522 0.0
C363 C 0.83885 0.81697 0.82452 0.0
C364 C 0.86417 0.81685 0.84165 0.0
C365 C 0.88291 0.79347 0.83979 0.0
C366 C 0.80596 0.79265 0.78723 0.0
C367 C 0.87158 0.84151 0.86162 0.0
H368 H 0.79557 0.89779 0.78526 0.0
H369 H 0.75595 0.85946 0.86092 0.0
H370 H 0.86367 0.86255 0.79376 0.0
H371 H 0.84087 0.84753 0.76613 0.0
H372 H 0.84249 0.88558 0.77054 0.0
H373 H 0.77659 0.82102 0.88657 0.0
H374 H 0.78929 0.79646 0.85891 0.0
H375 H 0.81425 0.81459 0.88208 0.0
H376 H 0.84818 0.75388 0.78815 0.0
H377 H 0.90209 0.79304 0.85315 0.0
H378 H 0.80534 0.81061 0.77135 0.0
H379 H 0.78717 0.79481 0.80198 0.0
H380 H 0.80395 0.77243 0.77463 0.0
H381 H 0.87225 0.86152 0.84858 0.0
H382 H 0.89248 0.83857 0.87275 0.0
H383 H 0.85491 0.84421 0.87878 0.0
C384 C 0.78965 0.12709 0.16504 0.0
C385 C 0.76772 0.13518 0.18436 0.0
C386 C 0.81429 0.14398 0.16196 0.0
C387 C 0.81647 0.16995 0.17779 0.0
C388 C 0.79401 0.17841 0.19679 0.0
C389 C 0.77018 0.1607 0.2002 0.0
C390 C 0.83817 0.13383 0.14223 0.0
C391 C 0.79502 0.20628 0.21348 0.0
C392 C 0.88488 0.20834 0.19777 0.0
C393 C 0.88508 0.23059 0.17714 0.0
C394 C 0.86399 0.18694 0.19664 0.0
C395 C 0.84217 0.18846 0.17504 0.0
C396 C 0.84315 0.21012 0.15324 0.0
C397 C 0.86489 0.2307 0.1543 0.0
C398 C 0.8643 0.1637 0.21969 0.0
C399 C 0.81995 0.21302 0.1303 0.0
H400 H 0.78782 0.10728 0.15288 0.0
H401 H 0.75311 0.16716 0.21491 0.0
H402 H 0.84247 0.14976 0.12469 0.0
H403 H 0.85802 0.13157 0.15537 0.0
H404 H 0.83327 0.11307 0.1316 0.0
H405 H 0.77508 0.21045 0.226 0.0
H406 H 0.81308 0.20615 0.2293 0.0
H407 H 0.79861 0.22415 0.19787 0.0
H408 H 0.90058 0.20813 0.21536 0.0
H409 H 0.86484 0.24805 0.13849 0.0
H410 H 0.86013 0.14267 0.20936 0.0
H411 H 0.84716 0.16763 0.2361 0.0
H412 H 0.88497 0.16275 0.23165 0.0
H413 H 0.81564 0.19226 0.1195 0.0
H414 H 0.82547 0.22886 0.11299 0.0
H415 H 0.79993 0.2199 0.14126 0.0
C416 C 0.14308 0.23061 0.84877 0.0
C417 C 0.12289 0.23117 0.82596 0.0
C418 C 0.16376 0.209 0.85007 0.0
C419 C 0.16356 0.187 0.82859 0.0
C420 C 0.14159 0.18622 0.80711 0.0
C421 C 0.12186 0.20864 0.80567 0.0
C422 C 0.18722 0.21116 0.87281 0.0
C423 C 0.13999 0.16265 0.78444 0.0
C424 C 0.23404 0.15607 0.80305 0.0
C425 C 0.23569 0.13075 0.81932 0.0
C426 C 0.21097 0.17472 0.80644 0.0
C427 C 0.18841 0.16742 0.82582 0.0
C428 C 0.18972 0.14161 0.84201 0.0
C429 C 0.21368 0.12378 0.83898 0.0
C430 C 0.21092 0.20238 0.78937 0.0
C431 C 0.16565 0.13268 0.86211 0.0
H432 H 0.14405 0.2482 0.86429 0.0
H433 H 0.10611 0.20898 0.78812 0.0
H434 H 0.19074 0.19036 0.88379 0.0
H435 H 0.20743 0.2171 0.86164 0.0
H436 H 0.18249 0.2274 0.89 0.0
H437 H 0.11915 0.1624 0.77279 0.0
H438 H 0.15706 0.1656 0.76774 0.0
H439 H 0.14339 0.14163 0.79505 0.0
H440 H 0.25122 0.16166 0.7881 0.0
H441 H 0.21493 0.10413 0.85148 0.0
H442 H 0.20817 0.2206 0.80476 0.0
H443 H 0.19274 0.20274 0.77371 0.0
H444 H 0.2309 0.20561 0.77662 0.0
H445 H 0.16224 0.14894 0.87955 0.0
H446 H 0.16977 0.11183 0.87287 0.0
H447 H 0.14557 0.13116 0.84923 0.0
C448 C 0.21891 0.88009 0.16705 0.0
C449 C 0.24113 0.87212 0.18605 0.0
C450 C 0.19435 0.86306 0.16425 0.0
C451 C 0.19253 0.83705 0.18004 0.0
C452 C 0.21526 0.82872 0.19874 0.0
C453 C 0.23901 0.84657 0.20188 0.0
C454 C 0.17018 0.87306 0.14485 0.0
C455 C 0.21463 0.80082 0.21537 0.0
C456 C 0.12471 0.79802 0.2007 0.0
C457 C 0.12454 0.77577 0.18003 0.0
C458 C 0.14537 0.81962 0.19937 0.0
C459 C 0.16697 0.81833 0.17752 0.0
C460 C 0.16598 0.79669 0.15568 0.0
C461 C 0.14447 0.77589 0.15695 0.0
C462 C 0.14507 0.84283 0.22248 0.0
C463 C 0.18896 0.79405 0.13246 0.0
H464 H 0.22048 0.89993 0.15491 0.0
H465 H 0.2563 0.8402 0.21634 0.0
H466 H 0.16585 0.85715 0.12728 0.0
H467 H 0.15044 0.87509 0.15822 0.0
H468 H 0.17479 0.8939 0.13427 0.0
H469 H 0.23472 0.7968 0.22768 0.0
H470 H 0.19672 0.80079 0.23138 0.0
H471 H 0.21104 0.78294 0.19975 0.0
H472 H 0.10919 0.79806 0.21846 0.0
H473 H 0.14454 0.75856 0.1411 0.0
H474 H 0.14896 0.86391 0.21216 0.0
H475 H 0.1624 0.83904 0.2387 0.0
H476 H 0.12451 0.84359 0.23465 0.0
H477 H 0.19296 0.81487 0.12168 0.0
H478 H 0.1834 0.77819 0.11516 0.0
H479 H 0.20916 0.78734 0.14316 0.0
C480 C 0.1613 0.53074 0.2881 0.0
C481 C 0.18566 0.51408 0.28309 0.0
C482 C 0.15503 0.55431 0.27036 0.0
C483 C 0.17387 0.56198 0.24725 0.0
C484 C 0.19921 0.54613 0.24281 0.0
C485 C 0.20467 0.52211 0.2606 0.0
C486 C 0.12759 0.57038 0.27574 0.0
C487 C 0.22014 0.5541 0.21887 0.0
C488 C 0.13469 0.60265 0.18769 0.0
C489 C 0.1375 0.6307 0.19793 0.0
C490 C 0.14837 0.58004 0.20219 0.0
C491 C 0.16575 0.58572 0.22712 0.0
C492 C 0.17097 0.61427 0.23562 0.0
C493 C 0.15648 0.63643 0.22116 0.0
C494 C 0.14193 0.54992 0.19257 0.0
C495 C 0.19007 0.62131 0.26147 0.0
H496 H 0.14641 0.52479 0.30536 0.0
H497 H 0.22361 0.50945 0.25665 0.0
H498 H 0.13219 0.59315 0.28016 0.0
H499 H 0.11395 0.56939 0.25571 0.0
H500 H 0.11532 0.56171 0.29472 0.0
H501 H 0.24047 0.54213 0.22085 0.0
H502 H 0.21072 0.54952 0.19688 0.0
H503 H 0.22483 0.57725 0.21968 0.0
H504 H 0.12011 0.59803 0.16972 0.0
H505 H 0.15908 0.65813 0.22892 0.0
H506 H 0.1277 0.53974 0.20909 0.0
H507 H 0.16172 0.53709 0.19145 0.0
H508 H 0.13124 0.54919 0.17065 0.0
H509 H 0.17864 0.61679 0.28243 0.0
H510 H 0.19643 0.6441 0.2615 0.0
H511 H 0.20956 0.60794 0.26111 0.0
C512 C 0.52178 0.8512 0.71742 0.0
C513 C 0.50369 0.82834 0.72435 0.0
C514 C 0.54529 0.85793 0.73513 0.0
C515 C 0.55139 0.8411 0.76029 0.0
C516 C 0.53383 0.81741 0.76703 0.0
C517 C 0.50995 0.81146 0.74913 0.0
C518 C 0.56316 0.88363 0.72727 0.0
C519 C 0.54006 0.79864 0.79331 0.0
C520 C 0.62691 0.8551 0.78596 0.0
C521 C 0.62252 0.87647 0.80718 0.0
C522 C 0.60376 0.84127 0.77242 0.0
C523 C 0.5756 0.84948 0.7798 0.0
C524 C 0.57109 0.86956 0.80271 0.0
C525 C 0.59461 0.88261 0.81632 0.0
C526 C 0.6095 0.81941 0.74868 0.0
C527 C 0.54146 0.87924 0.81104 0.0
H528 H 0.51715 0.86452 0.69844 0.0
H529 H 0.49617 0.7937 0.75459 0.0
H530 H 0.56288 0.89915 0.74579 0.0
H531 H 0.58564 0.87719 0.72372 0.0
H532 H 0.55547 0.89454 0.70698 0.0
H533 H 0.52594 0.77967 0.79406 0.0
H534 H 0.56257 0.7914 0.79273 0.0
H535 H 0.53716 0.81093 0.81405 0.0
H536 H 0.64842 0.84994 0.77906 0.0
H537 H 0.59098 0.89904 0.83274 0.0
H538 H 0.60576 0.82907 0.72663 0.0
H539 H 0.59481 0.80102 0.7509 0.0
H540 H 0.63182 0.81154 0.74946 0.0
H541 H 0.53262 0.89256 0.79295 0.0
H542 H 0.54136 0.89199 0.83175 0.0
H543 H 0.52705 0.86074 0.81389 0.0
C544 C 0.85378 0.36963 0.21795 0.0
C545 C 0.87336 0.37574 0.19537 0.0
C546 C 0.83908 0.39155 0.23259 0.0
C547 C 0.84469 0.42025 0.22498 0.0
C548 C 0.86279 0.42638 0.20073 0.0
C549 C 0.87667 0.40401 0.186 0.0
C550 C 0.81922 0.38406 0.25767 0.0
C551 C 0.86967 0.45666 0.19207 0.0
C552 C 0.80482 0.48341 0.25821 0.0
C553 C 0.82313 0.4911 0.28145 0.0
C554 C 0.81078 0.45961 0.24026 0.0
C555 C 0.83592 0.44363 0.24531 0.0
C556 C 0.85399 0.45088 0.26922 0.0
C557 C 0.84722 0.47426 0.2871 0.0
C558 C 0.79064 0.45206 0.21546 0.0
C559 C 0.88119 0.43465 0.27529 0.0
H560 H 0.85082 0.34778 0.22503 0.0
H561 H 0.89174 0.40893 0.16855 0.0
H562 H 0.83003 0.38817 0.27907 0.0
H563 H 0.79977 0.39747 0.25699 0.0
H564 H 0.81283 0.36129 0.25701 0.0
H565 H 0.88117 0.45783 0.17063 0.0
H566 H 0.84995 0.46956 0.19046 0.0
H567 H 0.88327 0.46647 0.20939 0.0
H568 H 0.78609 0.49621 0.25376 0.0
H569 H 0.86157 0.47994 0.30495 0.0
H570 H 0.78593 0.4289 0.21563 0.0
H571 H 0.80076 0.45703 0.1939 0.0
H572 H 0.77026 0.46401 0.21697 0.0
H573 H 0.87641 0.4118 0.27899 0.0
H574 H 0.89278 0.44291 0.29493 0.0
H575 H 0.89554 0.43603 0.25582 0.0
C576 C 0.48193 0.16135 0.7194 0.0
C577 C 0.50126 0.1829 0.72715 0.0
C578 C 0.45915 0.15412 0.73792 0.0
C579 C 0.45519 0.16905 0.76481 0.0
C580 C 0.47382 0.19168 0.77228 0.0
C581 C 0.49681 0.19823 0.75343 0.0
C582 C 0.43987 0.12975 0.72909 0.0
C583 C 0.46992 0.20842 0.80048 0.0
C584 C 0.38126 0.1551 0.79468 0.0
C585 C 0.38628 0.13165 0.8132 0.0
C586 C 0.4039 0.16944 0.78087 0.0
C587 C 0.43214 0.15975 0.78528 0.0
C588 C 0.43747 0.13764 0.80585 0.0
C589 C 0.41446 0.12399 0.81976 0.0
C590 C 0.39734 0.19341 0.75972 0.0
C591 C 0.46724 0.12655 0.8111 0.0
H592 H 0.48504 0.14938 0.69915 0.0
H593 H 0.51157 0.21497 0.75959 0.0
H594 H 0.44099 0.11263 0.74596 0.0
H595 H 0.41743 0.13709 0.72806 0.0
H596 H 0.44567 0.12054 0.70727 0.0
H597 H 0.48408 0.22736 0.80141 0.0
H598 H 0.44747 0.21555 0.8027 0.0
H599 H 0.47469 0.19463 0.81976 0.0
H600 H 0.35954 0.16143 0.78984 0.0
H601 H 0.41855 0.10596 0.8341 0.0
H602 H 0.39912 0.18554 0.73665 0.0
H603 H 0.41284 0.21107 0.7624 0.0
H604 H 0.37546 0.20189 0.76299 0.0
H605 H 0.47446 0.11455 0.7913 0.0
H606 H 0.46828 0.11214 0.83055 0.0
H607 H 0.48238 0.14438 0.81452 0.0
C608 C 0.16084 0.47728 0.7186 0.0
C609 C 0.18455 0.49471 0.72413 0.0
C610 C 0.15465 0.45384 0.73657 0.0
C611 C 0.17292 0.44711 0.76047 0.0
C612 C 0.19765 0.46376 0.76547 0.0
C613 C 0.20302 0.48762 0.74742 0.0
C614 C 0.12786 0.43689 0.73055 0.0
C615 C 0.21799 0.45681 0.79028 0.0
C616 C 0.1328 0.40633 0.81927 0.0
C617 C 0.13669 0.3782 0.80963 0.0
C618 C 0.14642 0.42907 0.80492 0.0
C619 C 0.16481 0.42348 0.78076 0.0
C620 C 0.17111 0.39496 0.77301 0.0
C621 C 0.1567 0.37264 0.7873 0.0
C622 C 0.13885 0.45915 0.81377 0.0
C623 C 0.19127 0.38804 0.74801 0.0
H624 H 0.14636 0.4825 0.70073 0.0
H625 H 0.22146 0.50088 0.75179 0.0
H626 H 0.13325 0.41419 0.72675 0.0
H627 H 0.11354 0.43784 0.75006 0.0
H628 H 0.116 0.44486 0.71097 0.0
H629 H 0.23803 0.46933 0.78878 0.0
H630 H 0.20773 0.46149 0.81184 0.0
H631 H 0.22335 0.43379 0.79009 0.0
H632 H 0.11744 0.41084 0.83656 0.0
H633 H 0.16014 0.35091 0.78002 0.0
H634 H 0.12488 0.46864 0.79659 0.0
H635 H 0.15824 0.47256 0.8153 0.0
H636 H 0.12747 0.45994 0.8353 0.0
H637 H 0.18043 0.39184 0.72656 0.0
H638 H 0.19829 0.36546 0.74867 0.0
H639 H 0.21035 0.402 0.74879 0.0
C640 C 0.3901 0.84915 0.20493 0.0
C641 C 0.39375 0.87401 0.18815 0.0
C642 C 0.41351 0.8354 0.21797 0.0
C643 C 0.44111 0.84717 0.21468 0.0
C644 C 0.44518 0.87078 0.19564 0.0
C645 C 0.42145 0.88376 0.18237 0.0
C646 C 0.40834 0.80977 0.23736 0.0
C647 C 0.47418 0.88417 0.19164 0.0
C648 C 0.4889 0.84588 0.2821 0.0
C649 C 0.5101 0.82629 0.27397 0.0
C650 C 0.46628 0.85239 0.26312 0.0
C651 C 0.46432 0.83864 0.23534 0.0
C652 C 0.48493 0.81797 0.22734 0.0
C653 C 0.50779 0.81221 0.24666 0.0
C654 C 0.44492 0.87474 0.27256 0.0
C655 C 0.48317 0.80243 0.19818 0.0
H656 H 0.36878 0.84122 0.20913 0.0
H657 H 0.4245 0.9029 0.16935 0.0
H658 H 0.42523 0.79354 0.23409 0.0
H659 H 0.40889 0.81637 0.26093 0.0
H660 H 0.38727 0.79987 0.23287 0.0
H661 H 0.47454 0.8995 0.17294 0.0
H662 H 0.4801 0.89574 0.21216 0.0
H663 H 0.49064 0.86766 0.18774 0.0
H664 H 0.49036 0.85693 0.3031 0.0
H665 H 0.524 0.79698 0.24022 0.0
H666 H 0.42313 0.86558 0.27271 0.0
H667 H 0.44497 0.89262 0.25652 0.0
H668 H 0.44951 0.88343 0.29491 0.0
H669 H 0.46139 0.79384 0.19475 0.0
H670 H 0.49871 0.78463 0.19682 0.0
H671 H 0.48754 0.81747 0.17983 0.0
C672 C 0.84462 0.52917 0.72381 0.0
C673 C 0.8225 0.50991 0.72988 0.0
C674 C 0.85104 0.55152 0.74316 0.0
C675 C 0.8346 0.55524 0.76913 0.0
C676 C 0.81142 0.53671 0.77487 0.0
C677 C 0.80581 0.51401 0.75531 0.0
C678 C 0.87613 0.57059 0.73621 0.0
C679 C 0.793 0.54045 0.80195 0.0
C680 C 0.87745 0.59501 0.82659 0.0
C681 C 0.87108 0.62329 0.81918 0.0
C682 C 0.8638 0.57227 0.81222 0.0
C683 C 0.8429 0.57801 0.7904 0.0
C684 C 0.83419 0.60644 0.78531 0.0
C685 C 0.84864 0.62879 0.79949 0.0
C686 C 0.87394 0.54231 0.81817 0.0
C687 C 0.81137 0.61345 0.76295 0.0
H688 H 0.85772 0.52628 0.70429 0.0
H689 H 0.78862 0.4993 0.76014 0.0
H690 H 0.86904 0.59307 0.73463 0.0
H691 H 0.89206 0.56936 0.75431 0.0
H692 H 0.88679 0.56473 0.71513 0.0
H693 H 0.7737 0.52676 0.80122 0.0
H694 H 0.80541 0.5349 0.82201 0.0
H695 H 0.78628 0.563 0.80424 0.0
H696 H 0.89474 0.59059 0.84181 0.0
H697 H 0.84333 0.65062 0.79399 0.0
H698 H 0.88711 0.53492 0.79926 0.0
H699 H 0.85565 0.52751 0.82027 0.0
H700 H 0.88703 0.541 0.8386 0.0
H701 H 0.82038 0.6118 0.74033 0.0
H702 H 0.80301 0.63539 0.76599 0.0
H703 H 0.79339 0.59816 0.7645 0.0
C704 C 0.58727 0.12425 0.18317 0.0
C705 C 0.61506 0.13376 0.18894 0.0
C706 C 0.5637 0.13705 0.19694 0.0
C707 C 0.56801 0.16023 0.21651 0.0
C708 C 0.59568 0.17182 0.21984 0.0
C709 C 0.61894 0.15825 0.20627 0.0
C710 C 0.53462 0.12387 0.19287 0.0
C711 C 0.60112 0.19701 0.2398 0.0
C712 C 0.50176 0.19489 0.24987 0.0
C713 C 0.4996 0.18029 0.27688 0.0
C714 C 0.52443 0.18939 0.23021 0.0
C715 C 0.54499 0.16845 0.23755 0.0
C716 C 0.54316 0.15415 0.26503 0.0
C717 C 0.52074 0.16042 0.28436 0.0
C718 C 0.52605 0.2055 0.2014 0.0
C719 C 0.56446 0.13149 0.27376 0.0
H720 H 0.58405 0.1054 0.16973 0.0
H721 H 0.64033 0.16601 0.21047 0.0
H722 H 0.5288 0.11187 0.21314 0.0
H723 H 0.5182 0.14053 0.18952 0.0
H724 H 0.53404 0.10896 0.17379 0.0
H725 H 0.62221 0.2069 0.23538 0.0
H726 H 0.58429 0.21338 0.23703 0.0
H727 H 0.60069 0.18993 0.2632 0.0
H728 H 0.4856 0.21034 0.24392 0.0
H729 H 0.51938 0.14896 0.30512 0.0
H730 H 0.52151 0.19084 0.18274 0.0
H731 H 0.54784 0.21409 0.198 0.0
H732 H 0.51057 0.22337 0.20056 0.0
H733 H 0.56419 0.11395 0.2573 0.0
H734 H 0.55998 0.12237 0.29594 0.0
H735 H 0.5863 0.14053 0.27395 0.0
C736 C 0.66004 0.02666 0.78993 0.0
C737 C 0.68236 0.00814 0.78239 0.0
C738 C 0.65336 0.05024 0.77233 0.0
C739 C 0.66969 0.0559 0.74668 0.0
C740 C 0.69312 0.03813 0.73959 0.0
C741 C 0.69904 0.01425 0.7574 0.0
C742 C 0.62803 0.06846 0.78066 0.0
C743 C 0.71142 0.0439 0.7128 0.0
C744 C 0.62667 0.09741 0.69067 0.0
C745 C 0.63289 0.12554 0.6989 0.0
C746 C 0.64016 0.07435 0.70455 0.0
C747 C 0.66078 0.07954 0.72679 0.0
C748 C 0.6691 0.10788 0.73312 0.0
C749 C 0.65483 0.13057 0.71935 0.0
C750 C 0.63041 0.0445 0.6973 0.0
C751 C 0.69159 0.11431 0.75604 0.0
H752 H 0.647 0.02226 0.80918 0.0
H753 H 0.71641 1.00015 0.75147 0.0
H754 H 0.6347 0.09097 0.78332 0.0
H755 H 0.61189 0.06777 0.76273 0.0
H756 H 0.61777 0.06136 0.80154 0.0
H757 H 0.73092 0.03049 0.71253 0.0
H758 H 0.69903 0.03948 0.69242 0.0
H759 H 0.71779 0.06664 0.71212 0.0
H760 H 0.60981 0.0933 0.67483 0.0
H761 H 0.66006 0.15226 0.72552 0.0
H762 H 0.61781 0.03597 0.7161 0.0
H763 H 0.64894 0.0302 0.69406 0.0
H764 H 0.61693 0.04383 0.67711 0.0
H765 H 0.68248 0.11129 0.77847 0.0
H766 H 0.69947 0.13655 0.7543 0.0
H767 H 0.70992 0.09954 0.7538 0.0
C768 C 0.13222 0.36269 0.27731 0.0
C769 C 0.12652 0.38194 0.30033 0.0
C770 C 0.11 0.34878 0.26231 0.0
C771 C 0.08138 0.35461 0.27018 0.0
C772 C 0.07558 0.37265 0.29457 0.0
C773 C 0.09823 0.38593 0.30949 0.0
C774 C 0.11712 0.32923 0.23684 0.0
C775 C 0.04538 0.37961 0.30358 0.0
C776 C 0.02586 0.35453 0.20925 0.0
C777 C 0.01032 0.32967 0.21532 0.0
C778 C 0.04923 0.36252 0.22668 0.0
C779 C 0.05764 0.34507 0.25065 0.0
C780 C 0.04274 0.31942 0.25635 0.0
C781 C 0.01912 0.31209 0.23872 0.0
C782 C 0.06441 0.39015 0.21989 0.0
C783 C 0.05138 0.30007 0.28143 0.0
H784 H 0.15404 0.35922 0.2703 0.0
H785 H 0.09359 0.40073 0.32726 0.0
H786 H 0.1043 0.30942 0.23806 0.0
H787 H 0.11178 0.3399 0.21567 0.0
H788 H 0.14008 0.32348 0.23645 0.0
H789 H 0.04447 0.39144 0.32485 0.0
H790 H 0.03526 0.39286 0.28618 0.0
H791 H 0.03257 0.35988 0.30572 0.0
H792 H 0.01931 0.36831 0.19127 0.0
H793 H 0.00731 0.29281 0.24355 0.0
H794 H 0.08739 0.38611 0.21595 0.0
H795 H 0.06277 0.40474 0.23913 0.0
H796 H 0.05547 0.40107 0.20018 0.0
H797 H 0.07445 0.29505 0.27997 0.0
H798 H 0.03914 0.27981 0.28145 0.0
H799 H 0.04785 0.31101 0.30287 0.0
C800 C 0.30988 0.99938 0.75047 0.0
C801 C 0.32569 1.00332 0.77653 0.0
C802 C 0.31578 0.97647 0.73128 0.0
C803 C 0.3383 0.95749 0.73809 0.0
C804 C 0.3539 0.96112 0.76462 0.0
C805 C 0.34725 0.98374 0.78354 0.0
C806 C 0.29832 0.9729 0.7035 0.0
C807 C 0.37826 0.94154 0.77273 0.0
C808 C 0.35082 0.88321 0.7088 0.0
C809 C 0.37403 0.88776 0.68981 0.0
C810 C 0.33683 0.90615 0.72245 0.0
C811 C 0.3467 0.93422 0.71746 0.0
C812 C 0.3685 0.93906 0.69637 0.0
C813 C 0.38174 0.91576 0.68258 0.0
C814 C 0.31313 0.9001 0.74413 0.0
C815 C 0.37984 0.96862 0.69053 0.0
H816 H 0.29313 0.01434 0.74491 0.0
H817 H 0.35966 0.98651 0.80356 0.0
H818 H 0.3118 0.97723 0.68386 0.0
H819 H 0.29058 0.95064 0.70158 0.0
H820 H 0.2797 0.9875 0.70297 0.0
H821 H 0.38828 0.94735 0.79416 0.0
H822 H 0.37057 0.91925 0.77424 0.0
H823 H 0.39486 0.94223 0.75526 0.0
H824 H 0.34444 0.86163 0.71415 0.0
H825 H 0.3996 0.91948 0.66786 0.0
H826 H 0.29566 0.91584 0.74174 0.0
H827 H 0.32147 0.90185 0.76702 0.0
H828 H 0.30424 0.87836 0.74115 0.0
H829 H 0.36214 0.98399 0.68763 0.0
H830 H 0.39365 0.96931 0.67058 0.0
H831 H 0.39259 0.97576 0.70984 0.0
C832 C 0.91004 0.61951 0.30935 0.0
C833 C 0.88197 0.62325 0.29937 0.0
C834 C 0.93299 0.63279 0.29497 0.0
C835 C 0.92773 0.65056 0.27027 0.0
C836 C 0.89931 0.65613 0.26151 0.0
C837 C 0.87677 0.64225 0.27602 0.0
C838 C 0.96298 0.62612 0.30491 0.0
C839 C 0.89276 0.67538 0.23567 0.0
C840 C 0.99041 0.69336 0.2402 0.0
C841 C 0.99993 0.67569 0.21716 0.0
C842 C 0.96644 0.68594 0.25727 0.0
C843 C 0.95192 0.66011 0.25137 0.0
C844 C 0.96111 0.64253 0.22778 0.0
C845 C 0.98481 0.6506 0.21091 0.0
C846 C 0.95698 0.70543 0.28194 0.0
C847 C 0.94636 0.6147 0.22083 0.0
H848 H 0.91429 0.60492 0.32739 0.0
H849 H 0.85513 0.64553 0.26836 0.0
H850 H 0.97365 0.61277 0.28793 0.0
H851 H 0.97561 0.64596 0.30724 0.0
H852 H 0.96339 0.6145 0.3263 0.0
H853 H 0.86977 0.68094 0.23452 0.0
H854 H 0.90537 0.69532 0.2371 0.0
H855 H 0.89879 0.66456 0.21476 0.0
H856 H 1.00188 0.71282 0.24515 0.0
H857 H 0.99193 0.63675 0.19321 0.0
H858 H 0.95987 0.69463 0.30355 0.0
H859 H 0.93396 0.71037 0.27968 0.0
H860 H 0.96916 0.72571 0.28226 0.0
H861 H 0.94759 0.60031 0.24024 0.0
H862 H 0.95594 0.60367 0.20149 0.0
H863 H 0.92347 0.61849 0.21617 0.0
C864 C 0.69452 0.00593 0.2564 0.0
C865 C 0.67953 0.00847 0.22965 0.0
C866 C 0.68929 0.98299 0.27576 0.0
C867 C 0.66827 0.96253 0.26836 0.0
C868 C 0.65349 0.96479 0.24117 0.0
C869 C 0.65946 0.9875 0.22215 0.0
C870 C 0.70584 0.98094 0.30428 0.0
C871 C 0.63074 0.94359 0.23241 0.0
C872 C 0.65916 0.88791 0.29793 0.0
C873 C 0.63483 0.89117 0.31568 0.0
C874 C 0.67235 0.91157 0.28477 0.0
C875 C 0.66058 0.93902 0.28899 0.0
C876 C 0.63763 0.94268 0.309 0.0
C877 C 0.62518 0.91871 0.32232 0.0
C878 C 0.69728 0.90681 0.26426 0.0
C879 C 0.62428 0.97153 0.31403 0.0
H880 H 0.71011 0.02196 0.26235 0.0
H881 H 0.64769 0.98916 0.2016 0.0
H882 H 0.69135 0.98463 0.32328 0.0
H883 H 0.71492 0.95926 0.30687 0.0
H884 H 0.72344 0.99673 0.30535 0.0
H885 H 0.62118 0.94847 0.21051 0.0
H886 H 0.63986 0.92182 0.23155 0.0
H887 H 0.61348 0.94345 0.24919 0.0
H888 H 0.66704 0.86672 0.29306 0.0
H889 H 0.60647 0.92145 0.33609 0.0
H890 H 0.71359 0.92369 0.26717 0.0
H891 H 0.6898 0.90772 0.24099 0.0
H892 H 0.70741 0.88573 0.26796 0.0
H893 H 0.64088 0.98802 0.31736 0.0
H894 H 0.60978 0.97157 0.33346 0.0
H895 H 0.61178 0.97761 0.29417 0.0
C896 C 0.91425 0.38985 0.69 0.0
C897 C 0.88603 0.38298 0.69735 0.0
C898 C 0.93724 0.37671 0.70447 0.0
C899 C 0.93185 0.35601 0.72657 0.0
C900 C 0.90351 0.34727 0.73222 0.0
C901 C 0.88094 0.36095 0.71766 0.0
C902 C 0.96716 0.38663 0.69776 0.0
C903 C 0.89686 0.32495 0.75523 0.0
C904 C 0.99508 0.31522 0.75824 0.0
C905 C 1.00124 0.33126 0.78368 0.0
C906 C 0.9722 0.32259 0.73963 0.0
C907 C 0.95528 0.34665 0.74653 0.0
C908 C 0.96103 0.3625 0.77251 0.0
C909 C 0.9838 0.35456 0.79077 0.0
C910 C 0.96649 0.30501 0.71231 0.0
C911 C 0.94351 0.38832 0.78072 0.0
H912 H 0.91842 0.40678 0.67429 0.0
H913 H 0.8592 0.35524 0.72321 0.0
H914 H 0.9753 0.39934 0.71666 0.0
H915 H 0.98165 0.36818 0.69487 0.0
H916 H 0.96808 0.40002 0.67753 0.0
H917 H 0.87448 0.31736 0.75368 0.0
H918 H 0.91135 0.30642 0.75293 0.0
H919 H 0.90021 0.33404 0.77762 0.0
H920 H 0.0084 0.29718 0.75257 0.0
H921 H 0.9883 0.36711 0.81035 0.0
H922 H 0.97017 0.31812 0.69227 0.0
H923 H 0.94389 0.29809 0.71184 0.0
H924 H 0.98035 0.28587 0.71111 0.0
H925 H 0.94505 0.40457 0.76297 0.0
H926 H 0.95056 0.39813 0.80185 0.0
H927 H 0.92072 0.38236 0.78284 0.0
C928 C 0.38542 0.08711 0.32395 0.0
C929 C 0.37537 0.11473 0.31844 0.0
C930 C 0.37283 0.0634 0.31022 0.0
C931 C 0.34934 0.06741 0.29098 0.0
C932 C 0.33727 0.09487 0.28792 0.0
C933 C 0.35061 0.11826 0.30144 0.0
C934 C 0.38653 0.03455 0.31398 0.0
C935 C 0.31175 0.09996 0.26831 0.0
C936 C 0.34887 0.02028 0.22301 0.0
C937 C 0.3293 0.99893 0.23073 0.0
C938 C 0.35514 0.04272 0.24231 0.0
C939 C 0.34117 0.04432 0.27001 0.0
C940 C 0.32055 0.02352 0.27761 0.0
C941 C 0.31502 1.00087 0.25796 0.0
C942 C 0.37743 0.06431 0.2333 0.0
C943 C 0.30481 0.02488 0.30668 0.0
H944 H 0.40449 0.08415 0.33712 0.0
H945 H 0.34245 0.13951 0.29744 0.0
H946 H 0.37015 0.01787 0.3175 0.0
H947 H 0.39836 0.02899 0.29351 0.0
H948 H 0.4017 0.03415 0.33284 0.0
H949 H 0.3016 0.12087 0.27289 0.0
H950 H 0.31857 0.09965 0.24481 0.0
H951 H 0.29563 0.0829 0.27125 0.0
H952 H 0.36007 0.01909 0.20208 0.0
H953 H 0.2998 0.98455 0.26409 0.0
H954 H 0.39521 0.06423 0.24948 0.0
H955 H 0.36811 0.08601 0.23332 0.0
H956 H 0.38631 0.06 0.21096 0.0
H957 H 0.31983 0.02066 0.32511 0.0
H958 H 0.28723 0.00907 0.30782 0.0
H959 H 0.29586 0.04648 0.31018 0.0
C960 C 0.09508 0.62013 0.69328 0.0
C961 C 0.12307 0.62528 0.70284 0.0
C962 C 0.07174 0.63285 0.70755 0.0
C963 C 0.07649 0.65151 0.73167 0.0
C964 C 0.10476 0.6586 0.73981 0.0
C965 C 0.12771 0.64522 0.72547 0.0
C966 C 0.04196 0.62451 0.69829 0.0
C967 C 0.11078 0.67886 0.76498 0.0
C968 C 0.01237 0.69156 0.76282 0.0
C969 C 0.00468 0.67405 0.78669 0.0
C970 C 0.03612 0.68497 0.74501 0.0
C971 C 0.05219 0.66009 0.75096 0.0
C972 C 0.04465 0.64256 0.77518 0.0
C973 C 0.0212 0.64985 0.7928 0.0
C974 C 0.04384 0.70442 0.71969 0.0
C975 C 0.06099 0.61566 0.78218 0.0
H976 H 0.09124 0.60481 0.67579 0.0
H977 H 0.14927 0.64961 0.73278 0.0
H978 H 0.03235 0.61078 0.71559 0.0
H979 H 0.02824 0.6436 0.69603 0.0
H980 H 0.04179 0.61265 0.67702 0.0
H981 H 0.13343 0.68572 0.76539 0.0
H982 H 0.09702 0.698 0.76339 0.0
H983 H 0.10586 0.66824 0.7863 0.0
H984 H 0.9998 0.71035 0.75798 0.0
H985 H 0.01545 0.63608 0.81108 0.0
H986 H 0.04141 0.69291 0.69841 0.0
H987 H 0.06649 0.71098 0.72145 0.0
H988 H 0.0303 0.72382 0.71908 0.0
H989 H 0.06026 0.60097 0.76296 0.0
H990 H 0.05235 0.60436 0.80182 0.0
H991 H 0.08371 0.62077 0.7864 0.0
C992 C 0.15542 0.51013 0.56768 0.0
C993 C 0.17327 0.53285 0.57563 0.0
C994 C 0.15681 0.49782 0.53945 0.0
C995 C 0.17608 0.50889 0.5183 0.0
C996 C 0.1942 0.53186 0.52615 0.0
C997 C 0.19281 0.54336 0.55488 0.0
C998 C 0.13748 0.47304 0.53221 0.0
C999 C 0.21458 0.54465 0.504 0.0
C1000 C 0.19325 0.4632 0.45084 0.0
C1001 C 0.17348 0.47346 0.43019 0.0
C1002 C 0.19453 0.47462 0.47961 0.0
C1003 C 0.17608 0.49727 0.4876 0.0
C1004 C 0.15654 0.50806 0.46657 0.0
C1005 C 0.15526 0.49583 0.43829 0.0
C1006 C 0.2152 0.46212 0.50163 0.0
C1007 C 0.13685 0.5325 0.47395 0.0
H1008 H 0.14051 0.50164 0.58374 0.0
H1009 H 0.20665 0.5609 0.56092 0.0
H1010 H 0.12236 0.4792 0.51449 0.0
H1011 H 0.15022 0.45486 0.52378 0.0
H1012 H 0.12503 0.46579 0.55171 0.0
H1013 H 0.22761 0.56205 0.51372 0.0
H1014 H 0.22909 0.52801 0.49528 0.0
H1015 H 0.20247 0.55328 0.48493 0.0
H1016 H 0.20738 0.44593 0.44467 0.0
H1017 H 0.14017 0.50413 0.42232 0.0
H1018 H 0.20333 0.45335 0.52081 0.0
H1019 H 0.22956 0.47896 0.51023 0.0
H1020 H 0.22839 0.44487 0.49185 0.0
H1021 H 0.12196 0.5261 0.49181 0.0
H1022 H 0.12413 0.53953 0.45456 0.0
H1023 H 0.14935 0.5509 0.48227 0.0
C1024 C 0.54587 0.81238 0.44966 0.0
C1025 C 0.53454 0.83083 0.42833 0.0
C1026 C 0.53373 0.81056 0.47806 0.0
C1027 C 0.50937 0.82714 0.48498 0.0
C1028 C 0.49729 0.84499 0.46311 0.0
C1029 C 0.51018 0.84683 0.43521 0.0
C1030 C 0.5475 0.79167 0.50096 0.0
C1031 C 0.47109 0.86268 0.46938 0.0
C1032 C 0.4639 0.81057 0.55269 0.0
C1033 C 0.47285 0.83182 0.57241 0.0
C1034 C 0.4759 0.8084 0.52423 0.0
C1035 C 0.49765 0.82763 0.5156 0.0
C1036 C 0.5072 0.84863 0.53575 0.0
C1037 C 0.49454 0.85061 0.56375 0.0
C1038 C 0.46485 0.78603 0.50317 0.0
C1039 C 0.53057 0.86934 0.52759 0.0
H1040 H 0.56469 0.79997 0.44442 0.0
H1041 H 0.50108 0.86085 0.41868 0.0
H1042 H 0.55587 0.80493 0.51933 0.0
H1043 H 0.53152 0.77692 0.51057 0.0
H1044 H 0.56532 0.77894 0.49164 0.0
H1045 H 0.46301 0.87365 0.44929 0.0
H1046 H 0.45384 0.84905 0.47841 0.0
H1047 H 0.47608 0.87901 0.48635 0.0
H1048 H 0.44717 0.79597 0.55928 0.0
H1049 H 0.50182 0.8669 0.57898 0.0
H1050 H 0.48268 0.77269 0.49495 0.0
H1051 H 0.45505 0.79647 0.48365 0.0
H1052 H 0.44871 0.77197 0.51365 0.0
H1053 H 0.54968 0.85761 0.5198 0.0
H1054 H 0.53683 0.88316 0.54645 0.0
H1055 H 0.52336 0.88313 0.50914 0.0
C1056 C 0.81208 0.54431 0.44902 0.0
C1057 C 0.8327 0.534 0.42929 0.0
C1058 C 0.81044 0.53389 0.47816 0.0
C1059 C 0.82946 0.51224 0.4875 0.0
C1060 C 0.84991 0.5014 0.46743 0.0
C1061 C 0.85147 0.51261 0.43873 0.0
C1062 C 0.78872 0.54637 0.49911 0.0
C1063 C 0.8703 0.47802 0.4763 0.0
C1064 C 0.84876 0.50244 0.56839 0.0
C1065 C 0.83192 0.47902 0.57646 0.0
C1066 C 0.84733 0.51408 0.53986 0.0
C1067 C 0.82903 0.50165 0.51859 0.0
C1068 C 0.81173 0.47814 0.52664 0.0
C1069 C 0.81316 0.46728 0.55562 0.0
C1070 C 0.86577 0.53944 0.53238 0.0
C1071 C 0.79235 0.46397 0.50443 0.0
H1072 H 0.79752 0.56084 0.44183 0.0
H1073 H 0.86725 0.50428 0.4235 0.0
H1074 H 0.77479 0.5293 0.50796 0.0
H1075 H 0.79974 0.55627 0.51825 0.0
H1076 H 0.77516 0.56272 0.48831 0.0
H1077 H 0.88386 0.47085 0.45757 0.0
H1078 H 0.88439 0.48561 0.49436 0.0
H1079 H 0.85828 0.45943 0.48489 0.0
H1080 H 0.86307 0.51185 0.58449 0.0
H1081 H 0.80011 0.44917 0.56175 0.0
H1082 H 0.85256 0.55675 0.52284 0.0
H1083 H 0.88174 0.53335 0.51542 0.0
H1084 H 0.87725 0.54789 0.55201 0.0
H1085 H 0.7777 0.47985 0.49453 0.0
H1086 H 0.77948 0.44662 0.51445 0.0
H1087 H 0.80526 0.4549 0.48614 0.0
C1088 C 0.46392 0.19343 0.45289 0.0
C1089 C 0.47539 0.17491 0.43167 0.0
C1090 C 0.47593 0.1954 0.48135 0.0
C1091 C 0.5003 0.17892 0.48844 0.0
C1092 C 0.51248 0.16096 0.46671 0.0
C1093 C 0.49972 0.15896 0.43875 0.0
C1094 C 0.46203 0.2144 0.50409 0.0
C1095 C 0.53871 0.14338 0.47317 0.0
C1096 C 0.54516 0.19676 0.55629 0.0
C1097 C 0.53617 0.17577 0.57628 0.0
C1098 C 0.53349 0.19831 0.52765 0.0
C1099 C 0.51198 0.17877 0.51909 0.0
C1100 C 0.50246 0.15797 0.53946 0.0
C1101 C 0.51484 0.15656 0.56764 0.0
C1102 C 0.54457 0.22043 0.50635 0.0
C1103 C 0.4793 0.13698 0.53142 0.0
H1104 H 0.44512 0.20579 0.44751 0.0
H1105 H 0.50892 0.14487 0.42232 0.0
H1106 H 0.45382 0.20125 0.52262 0.0
H1107 H 0.4779 0.22938 0.51351 0.0
H1108 H 0.44408 0.22688 0.49469 0.0
H1109 H 0.54684 0.13225 0.45319 0.0
H1110 H 0.55591 0.15712 0.48212 0.0
H1111 H 0.53372 0.12719 0.49026 0.0
H1112 H 0.56163 0.21166 0.56287 0.0
H1113 H 0.50753 0.14048 0.58307 0.0
H1114 H 0.52676 0.23376 0.4981 0.0
H1115 H 0.55425 0.20978 0.48687 0.0
H1116 H 0.5608 0.23453 0.51664 0.0
H1117 H 0.4601 0.14849 0.52353 0.0
H1118 H 0.47314 0.12325 0.55036 0.0
H1119 H 0.48664 0.12312 0.51306 0.0
C1120 C 0.65694 0.00901 0.0683 0.0
C1121 C 0.67365 0.03281 0.07544 0.0
C1122 C 0.65886 0.99599 0.04046 0.0
C1123 C 0.67754 0.00736 0.01892 0.0
C1124 C 0.69478 0.03118 0.02608 0.0
C1125 C 0.69284 0.04347 0.05441 0.0
C1126 C 0.64043 0.97036 0.03392 0.0
C1127 C 0.71459 0.04421 0.00353 0.0
C1128 C 0.69464 0.96144 0.95163 0.0
C1129 C 0.67418 0.97097 0.93133 0.0
C1130 C 0.69625 0.97325 0.98022 0.0
C1131 C 0.67736 0.99547 0.98835 0.0
C1132 C 0.65713 0.00554 0.96765 0.0
C1133 C 0.6556 0.99299 0.93956 0.0
C1134 C 0.71773 0.96158 1.0019 0.0
C1135 C 0.63689 0.02948 0.97522 0.0
H1136 H 0.64232 1.00042 0.08458 0.0
H1137 H 0.70581 0.06185 0.05984 0.0
H1138 H 0.62464 0.97578 0.01655 0.0
H1139 H 0.65368 0.95264 0.02529 0.0
H1140 H 0.62874 0.96278 0.05378 0.0
H1141 H 0.72757 0.06178 0.01298 0.0
H1142 H 0.72914 0.02777 0.99446 0.0
H1143 H 0.70198 0.05272 0.98474 0.0
H1144 H 0.70906 0.94445 0.94536 0.0
H1145 H 0.63996 1.00073 0.92385 0.0
H1146 H 0.7065 0.95244 0.02129 0.0
H1147 H 0.7316 0.97896 0.01021 0.0
H1148 H 0.73138 0.9448 0.99192 0.0
H1149 H 0.62252 0.02279 0.99343 0.0
H1150 H 0.62361 0.03598 0.95604 0.0
H1151 H 0.64899 0.0483 0.98313 0.0
C1152 C 0.04822 0.33942 0.95565 0.0
C1153 C 0.04042 0.32204 0.93185 0.0
C1154 C 0.03472 0.33677 0.98323 0.0
C1155 C 0.01194 0.3172 0.9866 0.0
C1156 C 0.00431 0.29927 0.96265 0.0
C1157 C 0.01906 0.30154 0.93567 0.0
C1158 C 0.04428 0.35554 0.00848 0.0
C1159 C 0.9795 0.27892 0.96494 0.0
C1160 C 0.98732 0.30017 0.06491 0.0
C1161 C 0.9668 0.32137 0.0695 0.0
C1162 C 1.00192 0.29813 0.03782 0.0
C1163 C 0.99499 0.31708 0.01452 0.0
C1164 C 0.97299 0.33739 0.01861 0.0
C1165 C 0.95963 0.33972 0.0463 0.0
C1166 C 0.0259 0.27691 0.03478 0.0
C1167 C 0.96416 0.35729 0.99404 0.0
H1168 H 0.06475 0.35529 0.95258 0.0
H1169 H 0.01276 0.28845 0.91702 0.0
H1170 H 0.02758 0.37156 0.01339 0.0
H1171 H 0.04746 0.34266 0.02879 0.0
H1172 H 0.06442 0.36695 0.00336 0.0
H1173 H 0.97746 0.26519 0.94503 0.0
H1174 H 0.98176 0.26511 0.98468 0.0
H1175 H 0.95947 0.2912 0.96767 0.0
H1176 H 0.99315 0.28629 0.08309 0.0
H1177 H 0.94375 0.35612 0.04994 0.0
H1178 H 0.04642 0.28849 0.03252 0.0
H1179 H 0.02313 0.26388 0.01453 0.0
H1180 H 0.02737 0.26245 0.05416 0.0
H1181 H 0.98146 0.37283 0.98969 0.0
H1182 H 0.94446 0.36927 0.99957 0.0
H1183 H 0.96051 0.34518 0.97329 0.0
C1184 C 0.3497 0.01002 0.93853 0.0
C1185 C 0.33156 0.03235 0.9302 0.0
C1186 C 0.34815 0.99788 0.9668 0.0
C1187 C 0.3283 0.00864 0.98755 0.0
C1188 C 0.30966 0.03099 0.97922 0.0
C1189 C 0.31134 0.04244 0.9505 0.0
C1190 C 0.36815 0.97382 0.97462 0.0
C1191 C 0.28853 0.04332 1.00088 0.0
C1192 C 0.31343 0.96257 0.05518 0.0
C1193 C 0.33299 0.97366 0.07559 0.0
C1194 C 0.31115 0.9741 0.02654 0.0
C1195 C 0.32848 0.99756 0.01842 0.0
C1196 C 0.34756 0.00938 0.03933 0.0
C1197 C 0.34976 0.99714 0.06751 0.0
C1198 C 0.29088 0.96065 0.0047 0.0
C1199 C 0.36613 0.03463 0.03176 0.0
H1200 H 0.36517 1.00187 0.92285 0.0
H1201 H 0.29727 0.05969 0.94416 0.0
H1202 H 0.38297 0.98077 0.99232 0.0
H1203 H 0.35592 0.95541 0.98329 0.0
H1204 H 0.38095 0.96661 0.95534 0.0
H1205 H 0.27467 0.05974 0.99059 0.0
H1206 H 0.27485 0.02622 0.01008 0.0
H1207 H 0.30009 0.05314 0.01972 0.0
H1208 H 0.30042 0.94444 0.06132 0.0
H1209 H 0.36469 0.00605 0.0833 0.0
H1210 H 0.30313 0.95142 0.986 0.0
H1211 H 0.27641 0.97699 0.99533 0.0
H1212 H 0.27782 0.94353 0.01489 0.0
H1213 H 0.38155 0.02859 0.01424 0.0
H1214 H 0.37824 0.0426 0.05118 0.0
H1215 H 0.35291 0.05226 0.02291 0.0
C1216 C 0.96248 0.66626 0.95993 0.0
C1217 C 0.96875 0.68437 0.93625 0.0
C1218 C 0.97637 0.66934 0.98723 0.0
C1219 C 0.99801 0.69018 0.99043 0.0
C1220 C 0.00403 0.70889 0.96665 0.0
C1221 C 0.9889 0.70608 0.93994 0.0
C1222 C 0.96852 0.64963 0.01233 0.0
C1223 C 0.02759 0.73068 0.96876 0.0
C1224 C 0.02268 0.70678 0.06877 0.0
C1225 C 0.04428 0.68653 0.07255 0.0
C1226 C 0.00779 0.7088 0.04186 0.0
C1227 C 0.0155 0.69086 0.01795 0.0
C1228 C 0.03863 0.6717 0.0212 0.0
C1229 C 0.0523 0.6693 0.04871 0.0
C1230 C 0.98264 0.72873 0.03971 0.0
C1231 C 0.04826 0.65295 0.99598 0.0
H1232 H 0.94688 0.64946 0.95695 0.0
H1233 H 0.99402 0.71975 0.92137 0.0
H1234 H 0.98627 0.63459 0.01656 0.0
H1235 H 0.96499 0.66198 0.03295 0.0
H1236 H 0.94901 0.63708 0.00745 0.0
H1237 H 0.02822 0.74495 0.94918 0.0
H1238 H 0.02505 0.74387 0.98894 0.0
H1239 H 0.04841 0.7196 0.97057 0.0
H1240 H 0.01622 0.71975 0.08745 0.0
H1241 H 0.06902 0.65362 0.05175 0.0
H1242 H 0.96274 0.71607 0.03783 0.0
H1243 H 0.9842 0.7421 0.01958 0.0
H1244 H 0.98086 0.74287 0.05933 0.0
H1245 H 0.03193 0.6364 0.99159 0.0
H1246 H 0.0688 0.64215 1.00085 0.0
H1247 H 0.05073 0.66568 0.97546 0.0
loop_
_geom_bond_atom_site_label_1
_geom_bond_atom_site_label_2
_geom_bond_distance
_geom_bond_site_symmetry_2
_ccdc_geom_bond_type
O0 Cd1 2.223 . S
O0 C8 1.315 . S
Cd1 O0 2.223 . S
Cd1 O4 2.297 . S
Cd1 O5 2.439 . S
Cd1 O11 2.240 . S
Cd2 O3 2.240 . S
Cd2 O10 2.223 . S
Cd2 O12 2.297 . S
Cd2 O13 2.439 . S
O3 Cd2 2.240 . S
O3 C8 1.279 . S
O4 Cd1 2.297 . S
O4 C6 1.247 . S
O5 Cd1 2.439 . S
O5 C6 1.208 . S
C6 O4 1.247 . S
C6 O5 1.208 . S
C7 O12 1.247 . S
C7 O13 1.208 . S
C8 O0 1.315 . S
C8 O3 1.279 . S
C9 O10 1.315 . S
C9 O11 1.279 . S
O10 Cd2 2.223 . S
O10 C9 1.315 . S
O11 Cd1 2.240 . S
O11 C9 1.279 . S
O12 Cd2 2.297 . S
O12 C7 1.247 . S
O13 Cd2 2.439 . S
O13 C7 1.208 . S
O14 Cd15 2.223 . S
O14 C22 1.315 . S
Cd15 O14 2.223 . S
Cd15 O18 2.297 . S
Cd15 O19 2.439 . S
Cd15 O25 2.240 . S
Cd16 O17 2.240 . S
Cd16 O24 2.223 . S
Cd16 O26 2.297 . S
Cd16 O27 2.439 . S
O17 Cd16 2.240 . S
O17 C22 1.279 . S
O18 Cd15 2.297 . S
O18 C20 1.247 . S
O19 Cd15 2.439 . S
O19 C20 1.208 . S
C20 O18 1.247 . S
C20 O19 1.208 . S
C21 O26 1.247 . S
C21 O27 1.208 . S
C22 O14 1.315 . S
C22 O17 1.279 . S
C23 O24 1.315 . S
C23 O25 1.279 . S
O24 Cd16 2.223 . S
O24 C23 1.315 . S
O25 Cd15 2.240 . S
O25 C23 1.279 . S
O26 Cd16 2.297 . S
O26 C21 1.247 . S
O27 Cd16 2.439 . S
O27 C21 1.208 . S
O28 Cd29 2.223 . S
O28 C36 1.315 . S
Cd29 O28 2.223 . S
Cd29 O32 2.297 . S
Cd29 O33 2.439 . S
Cd29 O39 2.240 . S
Cd30 O31 2.240 . S
Cd30 O38 2.223 . S
Cd30 O40 2.297 . S
Cd30 O41 2.439 . S
O31 Cd30 2.240 . S
O31 C36 1.279 . S
O32 Cd29 2.297 . S
O32 C34 1.247 . S
O33 Cd29 2.439 . S
O33 C34 1.208 . S
C34 O32 1.247 . S
C34 O33 1.208 . S
C35 O40 1.247 . S
C35 O41 1.208 . S
C36 O28 1.315 . S
C36 O31 1.279 . S
C37 O38 1.315 . S
C37 O39 1.279 . S
O38 Cd30 2.223 . S
O38 C37 1.315 . S
O39 Cd29 2.240 . S
O39 C37 1.279 . S
O40 Cd30 2.297 . S
O40 C35 1.247 . S
O41 Cd30 2.439 . S
O41 C35 1.208 . S
O42 Cd43 2.223 . S
O42 C50 1.315 . S
Cd43 O42 2.223 . S
Cd43 O46 2.297 . S
Cd43 O47 2.439 . S
Cd43 O53 2.240 . S
Cd44 O45 2.240 . S
Cd44 O52 2.223 . S
Cd44 O54 2.297 . S
Cd44 O55 2.439 . S
O45 Cd44 2.240 . S
O45 C50 1.279 . S
O46 Cd43 2.297 . S
O46 C48 1.247 . S
O47 Cd43 2.439 . S
O47 C48 1.208 . S
C48 O46 1.247 . S
C48 O47 1.208 . S
C49 O54 1.247 . S
C49 O55 1.208 . S
C50 O42 1.315 . S
C50 O45 1.279 . S
C51 O52 1.315 . S
C51 O53 1.279 . S
O52 Cd44 2.223 . S
O52 C51 1.315 . S
O53 Cd43 2.240 . S
O53 C51 1.279 . S
O54 Cd44 2.297 . S
O54 C49 1.247 . S
O55 Cd44 2.439 . S
O55 C49 1.208 . S
O56 Cd57 2.223 . S
O56 C64 1.315 . S
Cd57 O56 2.223 . S
Cd57 O60 2.297 . S
Cd57 O61 2.439 . S
Cd57 O67 2.240 . S
Cd58 O59 2.240 . S
Cd58 O66 2.223 . S
Cd58 O68 2.297 . S
Cd58 O69 2.439 . S
O59 Cd58 2.240 . S
O59 C64 1.279 . S
O60 Cd57 2.297 . S
O60 C62 1.247 . S
O61 Cd57 2.439 . S
O61 C62 1.208 . S
C62 O60 1.247 . S
C62 O61 1.208 . S
C63 O68 1.247 . S
C63 O69 1.208 . S
C64 O56 1.315 . S
C64 O59 1.279 . S
C65 O66 1.315 . S
C65 O67 1.279 . S
O66 Cd58 2.223 . S
O66 C65 1.315 . S
O67 Cd57 2.240 . S
O67 C65 1.279 . S
O68 Cd58 2.297 . S
O68 C63 1.247 . S
O69 Cd58 2.439 . S
O69 C63 1.208 . S
O70 Cd71 2.223 . S
O70 C78 1.315 . S
Cd71 O70 2.223 . S
Cd71 O74 2.297 . S
Cd71 O75 2.439 . S
Cd71 O81 2.240 . S
Cd72 O73 2.240 . S
Cd72 O80 2.223 . S
Cd72 O82 2.297 . S
Cd72 O83 2.439 . S
O73 Cd72 2.240 . S
O73 C78 1.279 . S
O74 Cd71 2.297 . S
O74 C76 1.247 . S
O75 Cd71 2.439 . S
O75 C76 1.208 . S
C76 O74 1.247 . S
C76 O75 1.208 . S
C77 O82 1.247 . S
C77 O83 1.208 . S
C78 O70 1.315 . S
C78 O73 1.279 . S
C79 O80 1.315 . S
C79 O81 1.279 . S
O80 Cd72 2.223 . S
O80 C79 1.315 . S
O81 Cd71 2.240 . S
O81 C79 1.279 . S
O82 Cd72 2.297 . S
O82 C77 1.247 . S
O83 Cd72 2.439 . S
O83 C77 1.208 . S
O84 Cd85 2.223 . S
O84 C92 1.315 . S
Cd85 O84 2.223 . S
Cd85 O88 2.297 . S
Cd85 O89 2.439 . S
Cd85 O95 2.240 . S
Cd86 O87 2.240 . S
Cd86 O94 2.223 . S
Cd86 O96 2.297 . S
Cd86 O97 2.439 . S
O87 Cd86 2.240 . S
O87 C92 1.279 . S
O88 Cd85 2.297 . S
O88 C90 1.247 . S
O89 Cd85 2.439 . S
O89 C90 1.208 . S
C90 O88 1.247 . S
C90 O89 1.208 . S
C91 O96 1.247 . S
C91 O97 1.208 . S
C92 O84 1.315 . S
C92 O87 1.279 . S
C93 O94 1.315 . S
C93 O95 1.279 . S
O94 Cd86 2.223 . S
O94 C93 1.315 . S
O95 Cd85 2.240 . S
O95 C93 1.279 . S
O96 Cd86 2.297 . S
O96 C91 1.247 . S
O97 Cd86 2.439 . S
O97 C91 1.208 . S
O98 Cd99 2.223 . S
O98 C106 1.315 . S
Cd99 O98 2.223 . S
Cd99 O102 2.297 . S
Cd99 O103 2.439 . S
Cd99 O109 2.240 . S
Cd100 O101 2.240 . S
Cd100 O108 2.223 . S
Cd100 O110 2.297 . S
Cd100 O111 2.439 . S
O101 Cd100 2.240 . S
O101 C106 1.279 . S
O102 Cd99 2.297 . S
O102 C104 1.247 . S
O103 Cd99 2.439 . S
O103 C104 1.208 . S
C104 O102 1.247 . S
C104 O103 1.208 . S
C105 O110 1.247 . S
C105 O111 1.208 . S
C106 O98 1.315 . S
C106 O101 1.279 . S
C107 O108 1.315 . S
C107 O109 1.279 . S
O108 Cd100 2.223 . S
O108 C107 1.315 . S
O109 Cd99 2.240 . S
O109 C107 1.279 . S
O110 Cd100 2.297 . S
O110 C105 1.247 . S
O111 Cd100 2.439 . S
O111 C105 1.208 . S
O112 Cd113 2.223 . S
O112 C120 1.315 . S
Cd113 O112 2.223 . S
Cd113 O116 2.297 . S
Cd113 O117 2.439 . S
Cd113 O123 2.240 . S
Cd114 O115 2.240 . S
Cd114 O122 2.223 . S
Cd114 O124 2.297 . S
Cd114 O125 2.439 . S
O115 Cd114 2.240 . S
O115 C120 1.279 . S
O116 Cd113 2.297 . S
O116 C118 1.247 . S
O117 Cd113 2.439 . S
O117 C118 1.208 . S
C118 O116 1.247 . S
C118 O117 1.208 . S
C119 O124 1.247 . S
C119 O125 1.208 . S
C120 O112 1.315 . S
C120 O115 1.279 . S
C121 O122 1.315 . S
C121 O123 1.279 . S
O122 Cd114 2.223 . S
O122 C121 1.315 . S
O123 Cd113 2.240 . S
O123 C121 1.279 . S
O124 Cd114 2.297 . S
O124 C119 1.247 . S
O125 Cd114 2.439 . S
O125 C119 1.208 . S
O126 Cd127 2.223 . S
O126 C134 1.315 . S
Cd127 O126 2.223 . S
Cd127 O130 2.297 . S
Cd127 O131 2.439 . S
Cd127 O137 2.240 . S
Cd128 O129 2.240 . S
Cd128 O136 2.223 . S
Cd128 O138 2.297 . S
Cd128 O139 2.439 . S
O129 Cd128 2.240 . S
O129 C134 1.279 . S
O130 Cd127 2.297 . S
O130 C132 1.247 . S
O131 Cd127 2.439 . S
O131 C132 1.208 . S
C132 O130 1.247 . S
C132 O131 1.208 . S
C133 O138 1.247 . S
C133 O139 1.208 . S
C134 O126 1.315 . S
C134 O129 1.279 . S
C135 O136 1.315 . S
C135 O137 1.279 . S
O136 Cd128 2.223 . S
O136 C135 1.315 . S
O137 Cd127 2.240 . S
O137 C135 1.279 . S
O138 Cd128 2.297 . S
O138 C133 1.247 . S
O139 Cd128 2.439 . S
O139 C133 1.208 . S
O140 Cd141 2.223 . S
O140 C148 1.315 . S
Cd141 O140 2.223 . S
Cd141 O144 2.297 . S
Cd141 O145 2.439 . S
Cd141 O151 2.240 . S
Cd142 O143 2.240 . S
Cd142 O150 2.223 . S
Cd142 O152 2.297 . S
Cd142 O153 2.439 . S
O143 Cd142 2.240 . S
O143 C148 1.279 . S
O144 Cd141 2.297 . S
O144 C146 1.247 . S
O145 Cd141 2.439 . S
O145 C146 1.208 . S
C146 O144 1.247 . S
C146 O145 1.208 . S
C147 O152 1.247 . S
C147 O153 1.208 . S
C148 O140 1.315 . S
C148 O143 1.279 . S
C149 O150 1.315 . S
C149 O151 1.279 . S
O150 Cd142 2.223 . S
O150 C149 1.315 . S
O151 Cd141 2.240 . S
O151 C149 1.279 . S
O152 Cd142 2.297 . S
O152 C147 1.247 . S
O153 Cd142 2.439 . S
O153 C147 1.208 . S
O154 Cd155 2.223 . S
O154 C162 1.315 . S
Cd155 O154 2.223 . S
Cd155 O158 2.297 . S
Cd155 O159 2.439 . S
Cd155 O165 2.240 . S
Cd156 O157 2.240 . S
Cd156 O164 2.223 . S
Cd156 O166 2.297 . S
Cd156 O167 2.439 . S
O157 Cd156 2.240 . S
O157 C162 1.279 . S
O158 Cd155 2.297 . S
O158 C160 1.247 . S
O159 Cd155 2.439 . S
O159 C160 1.208 . S
C160 O158 1.247 . S
C160 O159 1.208 . S
C161 O166 1.247 . S
C161 O167 1.208 . S
C162 O154 1.315 . S
C162 O157 1.279 . S
C163 O164 1.315 . S
C163 O165 1.279 . S
O164 Cd156 2.223 . S
O164 C163 1.315 . S
O165 Cd155 2.240 . S
O165 C163 1.279 . S
O166 Cd156 2.297 . S
O166 C161 1.247 . S
O167 Cd156 2.439 . S
O167 C161 1.208 . S
O168 Cd169 2.223 . S
O168 C176 1.315 . S
Cd169 O168 2.223 . S
Cd169 O172 2.297 . S
Cd169 O173 2.439 . S
Cd169 O179 2.240 . S
Cd170 O171 2.240 . S
Cd170 O178 2.223 . S
Cd170 O180 2.297 . S
Cd170 O181 2.439 . S
O171 Cd170 2.240 . S
O171 C176 1.279 . S
O172 Cd169 2.297 . S
O172 C174 1.247 . S
O173 Cd169 2.439 . S
O173 C174 1.208 . S
C174 O172 1.247 . S
C174 O173 1.208 . S
C175 O180 1.247 . S
C175 O181 1.208 . S
C176 O168 1.315 . S
C176 O171 1.279 . S
C177 O178 1.315 . S
C177 O179 1.279 . S
O178 Cd170 2.223 . S
O178 C177 1.315 . S
O179 Cd169 2.240 . S
O179 C177 1.279 . S
O180 Cd170 2.297 . S
O180 C175 1.247 . S
O181 Cd170 2.439 . S
O181 C175 1.208 . S
O182 Cd183 2.223 . S
O182 C190 1.315 . S
Cd183 O182 2.223 . S
Cd183 O186 2.297 . S
Cd183 O187 2.439 . S
Cd183 O193 2.240 . S
Cd184 O185 2.240 . S
Cd184 O192 2.223 . S
Cd184 O194 2.297 . S
Cd184 O195 2.439 . S
O185 Cd184 2.240 . S
O185 C190 1.279 . S
O186 Cd183 2.297 . S
O186 C188 1.247 . S
O187 Cd183 2.439 . S
O187 C188 1.208 . S
C188 O186 1.247 . S
C188 O187 1.208 . S
C189 O194 1.247 . S
C189 O195 1.208 . S
C190 O182 1.315 . S
C190 O185 1.279 . S
C191 O192 1.315 . S
C191 O193 1.279 . S
O192 Cd184 2.223 . S
O192 C191 1.315 . S
O193 Cd183 2.240 . S
O193 C191 1.279 . S
O194 Cd184 2.297 . S
O194 C189 1.247 . S
O195 Cd184 2.439 . S
O195 C189 1.208 . S
O196 Cd197 2.223 . S
O196 C204 1.315 . S
Cd197 O196 2.223 . S
Cd197 O200 2.297 . S
Cd197 O201 2.439 . S
Cd197 O207 2.240 . S
Cd198 O199 2.240 . S
Cd198 O206 2.223 . S
Cd198 O208 2.297 . S
Cd198 O209 2.439 . S
O199 Cd198 2.240 . S
O199 C204 1.279 . S
O200 Cd197 2.297 . S
O200 C202 1.247 . S
O201 Cd197 2.439 . S
O201 C202 1.208 . S
C202 O200 1.247 . S
C202 O201 1.208 . S
C203 O208 1.247 . S
C203 O209 1.208 . S
C204 O196 1.315 . S
C204 O199 1.279 . S
C205 O206 1.315 . S
C205 O207 1.279 . S
O206 Cd198 2.223 . S
O206 C205 1.315 . S
O207 Cd197 2.240 . S
O207 C205 1.279 . S
O208 Cd198 2.297 . S
O208 C203 1.247 . S
O209 Cd198 2.439 . S
O209 C203 1.208 . S
O210 Cd211 2.223 . S
O210 C218 1.315 . S
Cd211 O210 2.223 . S
Cd211 O214 2.297 . S
Cd211 O215 2.439 . S
Cd211 O221 2.240 . S
Cd212 O213 2.240 . S
Cd212 O220 2.223 . S
Cd212 O222 2.297 . S
Cd212 O223 2.439 . S
O213 Cd212 2.240 . S
O213 C218 1.279 . S
O214 Cd211 2.297 . S
O214 C216 1.247 . S
O215 Cd211 2.439 . S
O215 C216 1.208 . S
C216 O214 1.247 . S
C216 O215 1.208 . S
C217 O222 1.247 . S
C217 O223 1.208 . S
C218 O210 1.315 . S
C218 O213 1.279 . S
C219 O220 1.315 . S
C219 O221 1.279 . S
O220 Cd212 2.223 . S
O220 C219 1.315 . S
O221 Cd211 2.240 . S
O221 C219 1.279 . S
O222 Cd212 2.297 . S
O222 C217 1.247 . S
O223 Cd212 2.439 . S
O223 C217 1.208 . S
C224 C225 1.391 . S
C224 C226 1.394 . S
C224 H240 0.931 . S
C225 C224 1.391 . S
C225 C229 1.376 . S
C226 C224 1.394 . S
C226 C227 1.369 . S
C226 C230 1.531 . S
C227 C226 1.369 . S
C227 C228 1.410 . S
C227 C235 1.503 . S
C228 C227 1.410 . S
C228 C229 1.392 . S
C228 C231 1.511 . S
C229 C225 1.376 . S
C229 C228 1.392 . S
C229 H241 0.929 . S
C230 C226 1.531 . S
C230 H242 0.960 . S
C230 H243 0.962 . S
C230 H244 0.960 . S
C231 C228 1.511 . S
C231 H245 0.961 . S
C231 H246 0.961 . S
C231 H247 0.961 . S
C232 C233 1.370 . S
C232 C234 1.363 . S
C232 H248 0.931 . S
C233 C232 1.370 . S
C233 C237 1.408 . S
C234 C232 1.363 . S
C234 C235 1.370 . S
C234 C238 1.524 . S
C235 C227 1.503 . S
C235 C234 1.370 . S
C235 C236 1.403 . S
C236 C235 1.403 . S
C236 C237 1.404 . S
C236 C239 1.539 . S
C237 C233 1.408 . S
C237 C236 1.404 . S
C237 H249 0.930 . S
C238 C234 1.524 . S
C238 H250 0.956 . S
C238 H251 0.961 . S
C238 H252 0.961 . S
C239 C236 1.539 . S
C239 H253 0.958 . S
C239 H254 0.961 . S
C239 H255 0.960 . S
H240 C224 0.931 . S
H241 C229 0.929 . S
H242 C230 0.960 . S
H243 C230 0.962 . S
H244 C230 0.960 . S
H245 C231 0.961 . S
H246 C231 0.961 . S
H247 C231 0.961 . S
H248 C232 0.931 . S
H249 C237 0.930 . S
H250 C238 0.956 . S
H251 C238 0.961 . S
H252 C238 0.961 . S
H253 C239 0.958 . S
H254 C239 0.961 . S
H255 C239 0.960 . S
C256 C257 1.391 . S
C256 C258 1.394 . S
C256 H272 0.931 . S
C257 C256 1.391 . S
C257 C261 1.376 . S
C258 C256 1.394 . S
C258 C259 1.369 . S
C258 C262 1.531 . S
C259 C258 1.369 . S
C259 C260 1.410 . S
C259 C267 1.503 . S
C260 C259 1.410 . S
C260 C261 1.392 . S
C260 C263 1.511 . S
C261 C257 1.376 . S
C261 C260 1.392 . S
C261 H273 0.929 . S
C262 C258 1.531 . S
C262 H274 0.960 . S
C262 H275 0.962 . S
C262 H276 0.960 . S
C263 C260 1.511 . S
C263 H277 0.961 . S
C263 H278 0.961 . S
C263 H279 0.961 . S
C264 C265 1.370 . S
C264 C266 1.363 . S
C264 H280 0.931 . S
C265 C264 1.370 . S
C265 C269 1.408 . S
C266 C264 1.363 . S
C266 C267 1.370 . S
C266 C270 1.524 . S
C267 C259 1.503 . S
C267 C266 1.370 . S
C267 C268 1.403 . S
C268 C267 1.403 . S
C268 C269 1.404 . S
C268 C271 1.539 . S
C269 C265 1.408 . S
C269 C268 1.404 . S
C269 H281 0.930 . S
C270 C266 1.524 . S
C270 H282 0.956 . S
C270 H283 0.961 . S
C270 H284 0.961 . S
C271 C268 1.539 . S
C271 H285 0.958 . S
C271 H286 0.961 . S
C271 H287 0.960 . S
H272 C256 0.931 . S
H273 C261 0.929 . S
H274 C262 0.960 . S
H275 C262 0.962 . S
H276 C262 0.960 . S
H277 C263 0.961 . S
H278 C263 0.961 . S
H279 C263 0.961 . S
H280 C264 0.931 . S
H281 C269 0.930 . S
H282 C270 0.956 . S
H283 C270 0.961 . S
H284 C270 0.961 . S
H285 C271 0.958 . S
H286 C271 0.961 . S
H287 C271 0.960 . S
C288 C289 1.391 . S
C288 C290 1.394 . S
C288 H304 0.931 . S
C289 C288 1.391 . S
C289 C293 1.376 . S
C290 C288 1.394 . S
C290 C291 1.369 . S
C290 C294 1.531 . S
C291 C290 1.369 . S
C291 C292 1.410 . S
C291 C299 1.503 . S
C292 C291 1.410 . S
C292 C293 1.392 . S
C292 C295 1.511 . S
C293 C289 1.376 . S
C293 C292 1.392 . S
C293 H305 0.929 . S
C294 C290 1.531 . S
C294 H306 0.960 . S
C294 H307 0.962 . S
C294 H308 0.960 . S
C295 C292 1.511 . S
C295 H309 0.961 . S
C295 H310 0.961 . S
C295 H311 0.961 . S
C296 C297 1.370 . S
C296 C298 1.363 . S
C296 H312 0.931 . S
C297 C296 1.370 . S
C297 C301 1.408 . S
C298 C296 1.363 . S
C298 C299 1.370 . S
C298 C302 1.524 . S
C299 C291 1.503 . S
C299 C298 1.370 . S
C299 C300 1.403 . S
C300 C299 1.403 . S
C300 C301 1.404 . S
C300 C303 1.539 . S
C301 C297 1.408 . S
C301 C300 1.404 . S
C301 H313 0.930 . S
C302 C298 1.524 . S
C302 H314 0.956 . S
C302 H315 0.961 . S
C302 H316 0.961 . S
C303 C300 1.539 . S
C303 H317 0.958 . S
C303 H318 0.961 . S
C303 H319 0.960 . S
H304 C288 0.931 . S
H305 C293 0.929 . S
H306 C294 0.960 . S
H307 C294 0.962 . S
H308 C294 0.960 . S
H309 C295 0.961 . S
H310 C295 0.961 . S
H311 C295 0.961 . S
H312 C296 0.931 . S
H313 C301 0.930 . S
H314 C302 0.956 . S
H315 C302 0.961 . S
H316 C302 0.961 . S
H317 C303 0.958 . S
H318 C303 0.961 . S
H319 C303 0.960 . S
C320 C321 1.391 . S
C320 C322 1.394 . S
C320 H336 0.931 . S
C321 C320 1.391 . S
C321 C325 1.376 . S
C322 C320 1.394 . S
C322 C323 1.369 . S
C322 C326 1.531 . S
C323 C322 1.369 . S
C323 C324 1.410 . S
C323 C331 1.503 . S
C324 C323 1.410 . S
C324 C325 1.392 . S
C324 C327 1.511 . S
C325 C321 1.376 . S
C325 C324 1.392 . S
C325 H337 0.929 . S
C326 C322 1.531 . S
C326 H338 0.960 . S
C326 H339 0.962 . S
C326 H340 0.960 . S
C327 C324 1.511 . S
C327 H341 0.961 . S
C327 H342 0.961 . S
C327 H343 0.961 . S
C328 C329 1.370 . S
C328 C330 1.363 . S
C328 H344 0.931 . S
C329 C328 1.370 . S
C329 C333 1.408 . S
C330 C328 1.363 . S
C330 C331 1.370 . S
C330 C334 1.524 . S
C331 C323 1.503 . S
C331 C330 1.370 . S
C331 C332 1.403 . S
C332 C331 1.403 . S
C332 C333 1.404 . S
C332 C335 1.539 . S
C333 C329 1.408 . S
C333 C332 1.404 . S
C333 H345 0.930 . S
C334 C330 1.524 . S
C334 H346 0.956 . S
C334 H347 0.961 . S
C334 H348 0.961 . S
C335 C332 1.539 . S
C335 H349 0.958 . S
C335 H350 0.961 . S
C335 H351 0.960 . S
H336 C320 0.931 . S
H337 C325 0.929 . S
H338 C326 0.960 . S
H339 C326 0.962 . S
H340 C326 0.960 . S
H341 C327 0.961 . S
H342 C327 0.961 . S
H343 C327 0.961 . S
H344 C328 0.931 . S
H345 C333 0.930 . S
H346 C334 0.956 . S
H347 C334 0.961 . S
H348 C334 0.961 . S
H349 C335 0.958 . S
H350 C335 0.961 . S
H351 C335 0.960 . S
C352 C353 1.391 . S
C352 C354 1.394 . S
C352 H368 0.931 . S
C353 C352 1.391 . S
C353 C357 1.376 . S
C354 C352 1.394 . S
C354 C355 1.369 . S
C354 C358 1.531 . S
C355 C354 1.369 . S
C355 C356 1.410 . S
C355 C363 1.503 . S
C356 C355 1.410 . S
C356 C357 1.392 . S
C356 C359 1.511 . S
C357 C353 1.376 . S
C357 C356 1.392 . S
C357 H369 0.929 . S
C358 C354 1.531 . S
C358 H370 0.960 . S
C358 H371 0.962 . S
C358 H372 0.960 . S
C359 C356 1.511 . S
C359 H373 0.961 . S
C359 H374 0.961 . S
C359 H375 0.961 . S
C360 C361 1.370 . S
C360 C362 1.363 . S
C360 H376 0.931 . S
C361 C360 1.370 . S
C361 C365 1.408 . S
C362 C360 1.363 . S
C362 C363 1.370 . S
C362 C366 1.524 . S
C363 C355 1.503 . S
C363 C362 1.370 . S
C363 C364 1.403 . S
C364 C363 1.403 . S
C364 C365 1.404 . S
C364 C367 1.539 . S
C365 C361 1.408 . S
C365 C364 1.404 . S
C365 H377 0.930 . S
C366 C362 1.524 . S
C366 H378 0.956 . S
C366 H379 0.961 . S
C366 H380 0.961 . S
C367 C364 1.539 . S
C367 H381 0.958 . S
C367 H382 0.961 . S
C367 H383 0.960 . S
H368 C352 0.931 . S
H369 C357 0.929 . S
H370 C358 0.960 . S
H371 C358 0.962 . S
H372 C358 0.960 . S
H373 C359 0.961 . S
H374 C359 0.961 . S
H375 C359 0.961 . S
H376 C360 0.931 . S
H377 C365 0.930 . S
H378 C366 0.956 . S
H379 C366 0.961 . S
H380 C366 0.961 . S
H381 C367 0.958 . S
H382 C367 0.961 . S
H383 C367 0.960 . S
C384 C385 1.391 . S
C384 C386 1.394 . S
C384 H400 0.931 . S
C385 C384 1.391 . S
C385 C389 1.376 . S
C386 C384 1.394 . S
C386 C387 1.369 . S
C386 C390 1.531 . S
C387 C386 1.369 . S
C387 C388 1.410 . S
C387 C395 1.503 . S
C388 C387 1.410 . S
C388 C389 1.392 . S
C388 C391 1.511 . S
C389 C385 1.376 . S
C389 C388 1.392 . S
C389 H401 0.929 . S
C390 C386 1.531 . S
C390 H402 0.960 . S
C390 H403 0.962 . S
C390 H404 0.960 . S
C391 C388 1.511 . S
C391 H405 0.961 . S
C391 H406 0.961 . S
C391 H407 0.961 . S
C392 C393 1.370 . S
C392 C394 1.363 . S
C392 H408 0.931 . S
C393 C392 1.370 . S
C393 C397 1.408 . S
C394 C392 1.363 . S
C394 C395 1.370 . S
C394 C398 1.524 . S
C395 C387 1.503 . S
C395 C394 1.370 . S
C395 C396 1.403 . S
C396 C395 1.403 . S
C396 C397 1.404 . S
C396 C399 1.539 . S
C397 C393 1.408 . S
C397 C396 1.404 . S
C397 H409 0.930 . S
C398 C394 1.524 . S
C398 H410 0.956 . S
C398 H411 0.961 . S
C398 H412 0.961 . S
C399 C396 1.539 . S
C399 H413 0.958 . S
C399 H414 0.961 . S
C399 H415 0.960 . S
H400 C384 0.931 . S
H401 C389 0.929 . S
H402 C390 0.960 . S
H403 C390 0.962 . S
H404 C390 0.960 . S
H405 C391 0.961 . S
H406 C391 0.961 . S
H407 C391 0.961 . S
H408 C392 0.931 . S
H409 C397 0.930 . S
H410 C398 0.956 . S
H411 C398 0.961 . S
H412 C398 0.961 . S
H413 C399 0.958 . S
H414 C399 0.961 . S
H415 C399 0.960 . S
C416 C417 1.391 . S
C416 C418 1.394 . S
C416 H432 0.931 . S
C417 C416 1.391 . S
C417 C421 1.376 . S
C418 C416 1.394 . S
C418 C419 1.369 . S
C418 C422 1.531 . S
C419 C418 1.369 . S
C419 C420 1.410 . S
C419 C427 1.503 . S
C420 C419 1.410 . S
C420 C421 1.392 . S
C420 C423 1.511 . S
C421 C417 1.376 . S
C421 C420 1.392 . S
C421 H433 0.929 . S
C422 C418 1.531 . S
C422 H434 0.960 . S
C422 H435 0.962 . S
C422 H436 0.960 . S
C423 C420 1.511 . S
C423 H437 0.961 . S
C423 H438 0.961 . S
C423 H439 0.961 . S
C424 C425 1.370 . S
C424 C426 1.363 . S
C424 H440 0.931 . S
C425 C424 1.370 . S
C425 C429 1.408 . S
C426 C424 1.363 . S
C426 C427 1.370 . S
C426 C430 1.524 . S
C427 C419 1.503 . S
C427 C426 1.370 . S
C427 C428 1.403 . S
C428 C427 1.403 . S
C428 C429 1.404 . S
C428 C431 1.539 . S
C429 C425 1.408 . S
C429 C428 1.404 . S
C429 H441 0.930 . S
C430 C426 1.524 . S
C430 H442 0.956 . S
C430 H443 0.961 . S
C430 H444 0.961 . S
C431 C428 1.539 . S
C431 H445 0.958 . S
C431 H446 0.961 . S
C431 H447 0.960 . S
H432 C416 0.931 . S
H433 C421 0.929 . S
H434 C422 0.960 . S
H435 C422 0.962 . S
H436 C422 0.960 . S
H437 C423 0.961 . S
H438 C423 0.961 . S
H439 C423 0.961 . S
H440 C424 0.931 . S
H441 C429 0.930 . S
H442 C430 0.956 . S
H443 C430 0.961 . S
H444 C430 0.961 . S
H445 C431 0.958 . S
H446 C431 0.961 . S
H447 C431 0.960 . S
C448 C449 1.391 . S
C448 C450 1.394 . S
C448 H464 0.931 . S
C449 C448 1.391 . S
C449 C453 1.376 . S
C450 C448 1.394 . S
C450 C451 1.369 . S
C450 C454 1.531 . S
C451 C450 1.369 . S
C451 C452 1.410 . S
C451 C459 1.503 . S
C452 C451 1.410 . S
C452 C453 1.392 . S
C452 C455 1.511 . S
C453 C449 1.376 . S
C453 C452 1.392 . S
C453 H465 0.929 . S
C454 C450 1.531 . S
C454 H466 0.960 . S
C454 H467 0.962 . S
C454 H468 0.960 . S
C455 C452 1.511 . S
C455 H469 0.961 . S
C455 H470 0.961 . S
C455 H471 0.961 . S
C456 C457 1.370 . S
C456 C458 1.363 . S
C456 H472 0.931 . S
C457 C456 1.370 . S
C457 C461 1.408 . S
C458 C456 1.363 . S
C458 C459 1.370 . S
C458 C462 1.524 . S
C459 C451 1.503 . S
C459 C458 1.370 . S
C459 C460 1.403 . S
C460 C459 1.403 . S
C460 C461 1.404 . S
C460 C463 1.539 . S
C461 C457 1.408 . S
C461 C460 1.404 . S
C461 H473 0.930 . S
C462 C458 1.524 . S
C462 H474 0.956 . S
C462 H475 0.961 . S
C462 H476 0.961 . S
C463 C460 1.539 . S
C463 H477 0.958 . S
C463 H478 0.961 . S
C463 H479 0.960 . S
H464 C448 0.931 . S
H465 C453 0.929 . S
H466 C454 0.960 . S
H467 C454 0.962 . S
H468 C454 0.960 . S
H469 C455 0.961 . S
H470 C455 0.961 . S
H471 C455 0.961 . S
H472 C456 0.931 . S
H473 C461 0.930 . S
H474 C462 0.956 . S
H475 C462 0.961 . S
H476 C462 0.961 . S
H477 C463 0.958 . S
H478 C463 0.961 . S
H479 C463 0.960 . S
C480 C481 1.391 . S
C480 C482 1.394 . S
C480 H496 0.931 . S
C481 C480 1.391 . S
C481 C485 1.376 . S
C482 C480 1.394 . S
C482 C483 1.369 . S
C482 C486 1.531 . S
C483 C482 1.369 . S
C483 C484 1.410 . S
C483 C491 1.503 . S
C484 C483 1.410 . S
C484 C485 1.392 . S
C484 C487 1.511 . S
C485 C481 1.376 . S
C485 C484 1.392 . S
C485 H497 0.929 . S
C486 C482 1.531 . S
C486 H498 0.960 . S
C486 H499 0.962 . S
C486 H500 0.960 . S
C487 C484 1.511 . S
C487 H501 0.961 . S
C487 H502 0.961 . S
C487 H503 0.961 . S
C488 C489 1.370 . S
C488 C490 1.363 . S
C488 H504 0.931 . S
C489 C488 1.370 . S
C489 C493 1.408 . S
C490 C488 1.363 . S
C490 C491 1.370 . S
C490 C494 1.524 . S
C491 C483 1.503 . S
C491 C490 1.370 . S
C491 C492 1.403 . S
C492 C491 1.403 . S
C492 C493 1.404 . S
C492 C495 1.539 . S
C493 C489 1.408 . S
C493 C492 1.404 . S
C493 H505 0.930 . S
C494 C490 1.524 . S
C494 H506 0.956 . S
C494 H507 0.961 . S
C494 H508 0.961 . S
C495 C492 1.539 . S
C495 H509 0.958 . S
C495 H510 0.961 . S
C495 H511 0.960 . S
H496 C480 0.931 . S
H497 C485 0.929 . S
H498 C486 0.960 . S
H499 C486 0.962 . S
H500 C486 0.960 . S
H501 C487 0.961 . S
H502 C487 0.961 . S
H503 C487 0.961 . S
H504 C488 0.931 . S
H505 C493 0.930 . S
H506 C494 0.956 . S
H507 C494 0.961 . S
H508 C494 0.961 . S
H509 C495 0.958 . S
H510 C495 0.961 . S
H511 C495 0.960 . S
C512 C513 1.391 . S
C512 C514 1.394 . S
C512 H528 0.931 . S
C513 C512 1.391 . S
C513 C517 1.376 . S
C514 C512 1.394 . S
C514 C515 1.369 . S
C514 C518 1.531 . S
C515 C514 1.369 . S
C515 C516 1.410 . S
C515 C523 1.503 . S
C516 C515 1.410 . S
C516 C517 1.392 . S
C516 C519 1.511 . S
C517 C513 1.376 . S
C517 C516 1.392 . S
C517 H529 0.929 . S
C518 C514 1.531 . S
C518 H530 0.960 . S
C518 H531 0.962 . S
C518 H532 0.960 . S
C519 C516 1.511 . S
C519 H533 0.961 . S
C519 H534 0.961 . S
C519 H535 0.961 . S
C520 C521 1.370 . S
C520 C522 1.363 . S
C520 H536 0.931 . S
C521 C520 1.370 . S
C521 C525 1.408 . S
C522 C520 1.363 . S
C522 C523 1.370 . S
C522 C526 1.524 . S
C523 C515 1.503 . S
C523 C522 1.370 . S
C523 C524 1.403 . S
C524 C523 1.403 . S
C524 C525 1.404 . S
C524 C527 1.539 . S
C525 C521 1.408 . S
C525 C524 1.404 . S
C525 H537 0.930 . S
C526 C522 1.524 . S
C526 H538 0.956 . S
C526 H539 0.961 . S
C526 H540 0.961 . S
C527 C524 1.539 . S
C527 H541 0.958 . S
C527 H542 0.961 . S
C527 H543 0.960 . S
H528 C512 0.931 . S
H529 C517 0.929 . S
H530 C518 0.960 . S
H531 C518 0.962 . S
H532 C518 0.960 . S
H533 C519 0.961 . S
H534 C519 0.961 . S
H535 C519 0.961 . S
H536 C520 0.931 . S
H537 C525 0.930 . S
H538 C526 0.956 . S
H539 C526 0.961 . S
H540 C526 0.961 . S
H541 C527 0.958 . S
H542 C527 0.961 . S
H543 C527 0.960 . S
C544 C545 1.391 . S
C544 C546 1.394 . S
C544 H560 0.931 . S
C545 C544 1.391 . S
C545 C549 1.376 . S
C546 C544 1.394 . S
C546 C547 1.369 . S
C546 C550 1.531 . S
C547 C546 1.369 . S
C547 C548 1.410 . S
C547 C555 1.503 . S
C548 C547 1.410 . S
C548 C549 1.392 . S
C548 C551 1.511 . S
C549 C545 1.376 . S
C549 C548 1.392 . S
C549 H561 0.929 . S
C550 C546 1.531 . S
C550 H562 0.960 . S
C550 H563 0.962 . S
C550 H564 0.960 . S
C551 C548 1.511 . S
C551 H565 0.961 . S
C551 H566 0.961 . S
C551 H567 0.961 . S
C552 C553 1.370 . S
C552 C554 1.363 . S
C552 H568 0.931 . S
C553 C552 1.370 . S
C553 C557 1.408 . S
C554 C552 1.363 . S
C554 C555 1.370 . S
C554 C558 1.524 . S
C555 C547 1.503 . S
C555 C554 1.370 . S
C555 C556 1.403 . S
C556 C555 1.403 . S
C556 C557 1.404 . S
C556 C559 1.539 . S
C557 C553 1.408 . S
C557 C556 1.404 . S
C557 H569 0.930 . S
C558 C554 1.524 . S
C558 H570 0.956 . S
C558 H571 0.961 . S
C558 H572 0.961 . S
C559 C556 1.539 . S
C559 H573 0.958 . S
C559 H574 0.961 . S
C559 H575 0.960 . S
H560 C544 0.931 . S
H561 C549 0.929 . S
H562 C550 0.960 . S
H563 C550 0.962 . S
H564 C550 0.960 . S
H565 C551 0.961 . S
H566 C551 0.961 . S
H567 C551 0.961 . S
H568 C552 0.931 . S
H569 C557 0.930 . S
H570 C558 0.956 . S
H571 C558 0.961 . S
H572 C558 0.961 . S
H573 C559 0.958 . S
H574 C559 0.961 . S
H575 C559 0.960 . S
C576 C577 1.391 . S
C576 C578 1.394 . S
C576 H592 0.931 . S
C577 C576 1.391 . S
C577 C581 1.376 . S
C578 C576 1.394 . S
C578 C579 1.369 . S
C578 C582 1.531 . S
C579 C578 1.369 . S
C579 C580 1.410 . S
C579 C587 1.503 . S
C580 C579 1.410 . S
C580 C581 1.392 . S
C580 C583 1.511 . S
C581 C577 1.376 . S
C581 C580 1.392 . S
C581 H593 0.929 . S
C582 C578 1.531 . S
C582 H594 0.960 . S
C582 H595 0.962 . S
C582 H596 0.960 . S
C583 C580 1.511 . S
C583 H597 0.961 . S
C583 H598 0.961 . S
C583 H599 0.961 . S
C584 C585 1.370 . S
C584 C586 1.363 . S
C584 H600 0.931 . S
C585 C584 1.370 . S
C585 C589 1.408 . S
C586 C584 1.363 . S
C586 C587 1.370 . S
C586 C590 1.524 . S
C587 C579 1.503 . S
C587 C586 1.370 . S
C587 C588 1.403 . S
C588 C587 1.403 . S
C588 C589 1.404 . S
C588 C591 1.539 . S
C589 C585 1.408 . S
C589 C588 1.404 . S
C589 H601 0.930 . S
C590 C586 1.524 . S
C590 H602 0.956 . S
C590 H603 0.961 . S
C590 H604 0.961 . S
C591 C588 1.539 . S
C591 H605 0.958 . S
C591 H606 0.961 . S
C591 H607 0.960 . S
H592 C576 0.931 . S
H593 C581 0.929 . S
H594 C582 0.960 . S
H595 C582 0.962 . S
H596 C582 0.960 . S
H597 C583 0.961 . S
H598 C583 0.961 . S
H599 C583 0.961 . S
H600 C584 0.931 . S
H601 C589 0.930 . S
H602 C590 0.956 . S
H603 C590 0.961 . S
H604 C590 0.961 . S
H605 C591 0.958 . S
H606 C591 0.961 . S
H607 C591 0.960 . S
C608 C609 1.391 . S
C608 C610 1.394 . S
C608 H624 0.931 . S
C609 C608 1.391 . S
C609 C613 1.376 . S
C610 C608 1.394 . S
C610 C611 1.369 . S
C610 C614 1.531 . S
C611 C610 1.369 . S
C611 C612 1.410 . S
C611 C619 1.503 . S
C612 C611 1.410 . S
C612 C613 1.392 . S
C612 C615 1.511 . S
C613 C609 1.376 . S
C613 C612 1.392 . S
C613 H625 0.929 . S
C614 C610 1.531 . S
C614 H626 0.960 . S
C614 H627 0.962 . S
C614 H628 0.960 . S
C615 C612 1.511 . S
C615 H629 0.961 . S
C615 H630 0.961 . S
C615 H631 0.961 . S
C616 C617 1.370 . S
C616 C618 1.363 . S
C616 H632 0.931 . S
C617 C616 1.370 . S
C617 C621 1.408 . S
C618 C616 1.363 . S
C618 C619 1.370 . S
C618 C622 1.524 . S
C619 C611 1.503 . S
C619 C618 1.370 . S
C619 C620 1.403 . S
C620 C619 1.403 . S
C620 C621 1.404 . S
C620 C623 1.539 . S
C621 C617 1.408 . S
C621 C620 1.404 . S
C621 H633 0.930 . S
C622 C618 1.524 . S
C622 H634 0.956 . S
C622 H635 0.961 . S
C622 H636 0.961 . S
C623 C620 1.539 . S
C623 H637 0.958 . S
C623 H638 0.961 . S
C623 H639 0.960 . S
H624 C608 0.931 . S
H625 C613 0.929 . S
H626 C614 0.960 . S
H627 C614 0.962 . S
H628 C614 0.960 . S
H629 C615 0.961 . S
H630 C615 0.961 . S
H631 C615 0.961 . S
H632 C616 0.931 . S
H633 C621 0.930 . S
H634 C622 0.956 . S
H635 C622 0.961 . S
H636 C622 0.961 . S
H637 C623 0.958 . S
H638 C623 0.961 . S
H639 C623 0.960 . S
C640 C641 1.391 . S
C640 C642 1.394 . S
C640 H656 0.931 . S
C641 C640 1.391 . S
C641 C645 1.376 . S
C642 C640 1.394 . S
C642 C643 1.369 . S
C642 C646 1.531 . S
C643 C642 1.369 . S
C643 C644 1.410 . S
C643 C651 1.503 . S
C644 C643 1.410 . S
C644 C645 1.392 . S
C644 C647 1.511 . S
C645 C641 1.376 . S
C645 C644 1.392 . S
C645 H657 0.929 . S
C646 C642 1.531 . S
C646 H658 0.960 . S
C646 H659 0.962 . S
C646 H660 0.960 . S
C647 C644 1.511 . S
C647 H661 0.961 . S
C647 H662 0.961 . S
C647 H663 0.961 . S
C648 C649 1.370 . S
C648 C650 1.363 . S
C648 H664 0.931 . S
C649 C648 1.370 . S
C649 C653 1.408 . S
C650 C648 1.363 . S
C650 C651 1.370 . S
C650 C654 1.524 . S
C651 C643 1.503 . S
C651 C650 1.370 . S
C651 C652 1.403 . S
C652 C651 1.403 . S
C652 C653 1.404 . S
C652 C655 1.539 . S
C653 C649 1.408 . S
C653 C652 1.404 . S
C653 H665 0.930 . S
C654 C650 1.524 . S
C654 H666 0.956 . S
C654 H667 0.961 . S
C654 H668 0.961 . S
C655 C652 1.539 . S
C655 H669 0.958 . S
C655 H670 0.961 . S
C655 H671 0.960 . S
H656 C640 0.931 . S
H657 C645 0.929 . S
H658 C646 0.960 . S
H659 C646 0.962 . S
H660 C646 0.960 . S
H661 C647 0.961 . S
H662 C647 0.961 . S
H663 C647 0.961 . S
H664 C648 0.931 . S
H665 C653 0.930 . S
H666 C654 0.956 . S
H667 C654 0.961 . S
H668 C654 0.961 . S
H669 C655 0.958 . S
H670 C655 0.961 . S
H671 C655 0.960 . S
C672 C673 1.391 . S
C672 C674 1.394 . S
C672 H688 0.931 . S
C673 C672 1.391 . S
C673 C677 1.376 . S
C674 C672 1.394 . S
C674 C675 1.369 . S
C674 C678 1.531 . S
C675 C674 1.369 . S
C675 C676 1.410 . S
C675 C683 1.503 . S
C676 C675 1.410 . S
C676 C677 1.392 . S
C676 C679 1.511 . S
C677 C673 1.376 . S
C677 C676 1.392 . S
C677 H689 0.929 . S
C678 C674 1.531 . S
C678 H690 0.960 . S
C678 H691 0.962 . S
C678 H692 0.960 . S
C679 C676 1.511 . S
C679 H693 0.961 . S
C679 H694 0.961 . S
C679 H695 0.961 . S
C680 C681 1.370 . S
C680 C682 1.363 . S
C680 H696 0.931 . S
C681 C680 1.370 . S
C681 C685 1.408 . S
C682 C680 1.363 . S
C682 C683 1.370 . S
C682 C686 1.524 . S
C683 C675 1.503 . S
C683 C682 1.370 . S
C683 C684 1.403 . S
C684 C683 1.403 . S
C684 C685 1.404 . S
C684 C687 1.539 . S
C685 C681 1.408 . S
C685 C684 1.404 . S
C685 H697 0.930 . S
C686 C682 1.524 . S
C686 H698 0.956 . S
C686 H699 0.961 . S
C686 H700 0.961 . S
C687 C684 1.539 . S
C687 H701 0.958 . S
C687 H702 0.961 . S
C687 H703 0.960 . S
H688 C672 0.931 . S
H689 C677 0.929 . S
H690 C678 0.960 . S
H691 C678 0.962 . S
H692 C678 0.960 . S
H693 C679 0.961 . S
H694 C679 0.961 . S
H695 C679 0.961 . S
H696 C680 0.931 . S
H697 C685 0.930 . S
H698 C686 0.956 . S
H699 C686 0.961 . S
H700 C686 0.961 . S
H701 C687 0.958 . S
H702 C687 0.961 . S
H703 C687 0.960 . S
C704 C705 1.391 . S
C704 C706 1.394 . S
C704 H720 0.931 . S
C705 C704 1.391 . S
C705 C709 1.376 . S
C706 C704 1.394 . S
C706 C707 1.369 . S
C706 C710 1.531 . S
C707 C706 1.369 . S
C707 C708 1.410 . S
C707 C715 1.503 . S
C708 C707 1.410 . S
C708 C709 1.392 . S
C708 C711 1.511 . S
C709 C705 1.376 . S
C709 C708 1.392 . S
C709 H721 0.929 . S
C710 C706 1.531 . S
C710 H722 0.960 . S
C710 H723 0.962 . S
C710 H724 0.960 . S
C711 C708 1.511 . S
C711 H725 0.961 . S
C711 H726 0.961 . S
C711 H727 0.961 . S
C712 C713 1.370 . S
C712 C714 1.363 . S
C712 H728 0.931 . S
C713 C712 1.370 . S
C713 C717 1.408 . S
C714 C712 1.363 . S
C714 C715 1.370 . S
C714 C718 1.524 . S
C715 C707 1.503 . S
C715 C714 1.370 . S
C715 C716 1.403 . S
C716 C715 1.403 . S
C716 C717 1.404 . S
C716 C719 1.539 . S
C717 C713 1.408 . S
C717 C716 1.404 . S
C717 H729 0.930 . S
C718 C714 1.524 . S
C718 H730 0.956 . S
C718 H731 0.961 . S
C718 H732 0.961 . S
C719 C716 1.539 . S
C719 H733 0.958 . S
C719 H734 0.961 . S
C719 H735 0.960 . S
H720 C704 0.931 . S
H721 C709 0.929 . S
H722 C710 0.960 . S
H723 C710 0.962 . S
H724 C710 0.960 . S
H725 C711 0.961 . S
H726 C711 0.961 . S
H727 C711 0.961 . S
H728 C712 0.931 . S
H729 C717 0.930 . S
H730 C718 0.956 . S
H731 C718 0.961 . S
H732 C718 0.961 . S
H733 C719 0.958 . S
H734 C719 0.961 . S
H735 C719 0.960 . S
C736 C737 1.391 . S
C736 C738 1.394 . S
C736 H752 0.931 . S
C737 C736 1.391 . S
C737 C741 1.377 . S
C738 C736 1.394 . S
C738 C739 1.369 . S
C738 C742 1.531 . S
C739 C738 1.369 . S
C739 C740 1.410 . S
C739 C747 1.503 . S
C740 C739 1.410 . S
C740 C741 1.412 . S
C740 C743 1.511 . S
C741 C737 1.377 . S
C741 C740 1.412 . S
C741 H753 0.907 1_545 S
C742 C738 1.531 . S
C742 H754 0.960 . S
C742 H755 0.962 . S
C742 H756 0.960 . S
C743 C740 1.511 . S
C743 H757 0.961 . S
C743 H758 0.961 . S
C743 H759 0.961 . S
C744 C745 1.370 . S
C744 C746 1.363 . S
C744 H760 0.931 . S
C745 C744 1.370 . S
C745 C749 1.408 . S
C746 C744 1.363 . S
C746 C747 1.370 . S
C746 C750 1.524 . S
C747 C739 1.503 . S
C747 C746 1.370 . S
C747 C748 1.403 . S
C748 C747 1.403 . S
C748 C749 1.404 . S
C748 C751 1.539 . S
C749 C745 1.408 . S
C749 C748 1.404 . S
C749 H761 0.930 . S
C750 C746 1.524 . S
C750 H762 0.956 . S
C750 H763 0.961 . S
C750 H764 0.961 . S
C751 C748 1.539 . S
C751 H765 0.958 . S
C751 H766 0.961 . S
C751 H767 0.960 . S
H752 C736 0.931 . S
H753 C741 0.907 1_565 S
H754 C742 0.960 . S
H755 C742 0.962 . S
H756 C742 0.960 . S
H757 C743 0.961 . S
H758 C743 0.961 . S
H759 C743 0.961 . S
H760 C744 0.931 . S
H761 C749 0.930 . S
H762 C750 0.956 . S
H763 C750 0.961 . S
H764 C750 0.961 . S
H765 C751 0.958 . S
H766 C751 0.961 . S
H767 C751 0.960 . S
C768 C769 1.391 . S
C768 C770 1.394 . S
C768 H784 0.931 . S
C769 C768 1.391 . S
C769 C773 1.376 . S
C770 C768 1.394 . S
C770 C771 1.369 . S
C770 C774 1.531 . S
C771 C770 1.369 . S
C771 C772 1.410 . S
C771 C779 1.503 . S
C772 C771 1.410 . S
C772 C773 1.392 . S
C772 C775 1.511 . S
C773 C769 1.376 . S
C773 C772 1.392 . S
C773 H785 0.929 . S
C774 C770 1.531 . S
C774 H786 0.960 . S
C774 H787 0.962 . S
C774 H788 0.960 . S
C775 C772 1.511 . S
C775 H789 0.961 . S
C775 H790 0.961 . S
C775 H791 0.961 . S
C776 C777 1.370 . S
C776 C778 1.363 . S
C776 H792 0.931 . S
C777 C776 1.370 . S
C777 C781 1.408 1_455 S
C778 C776 1.363 . S
C778 C779 1.370 . S
C778 C782 1.524 . S
C779 C771 1.503 . S
C779 C778 1.370 . S
C779 C780 1.403 . S
C780 C779 1.403 . S
C780 C781 1.397 1_455 S
C780 C783 1.539 . S
C781 C777 1.408 1_655 S
C781 C780 1.397 1_655 S
C781 H793 0.937 . S
C782 C778 1.524 . S
C782 H794 0.956 . S
C782 H795 0.961 . S
C782 H796 0.961 . S
C783 C780 1.539 . S
C783 H797 0.958 . S
C783 H798 0.961 . S
C783 H799 0.960 . S
H784 C768 0.931 . S
H785 C773 0.929 . S
H786 C774 0.960 . S
H787 C774 0.962 . S
H788 C774 0.960 . S
H789 C775 0.961 . S
H790 C775 0.961 . S
H791 C775 0.961 . S
H792 C776 0.931 . S
H793 C781 0.937 . S
H794 C782 0.956 . S
H795 C782 0.961 . S
H796 C782 0.961 . S
H797 C783 0.958 . S
H798 C783 0.961 . S
H799 C783 0.960 . S
C800 C801 1.395 . S
C800 C802 1.394 . S
C800 H816 0.943 . S
C801 C800 1.395 . S
C801 C805 1.382 . S
C802 C800 1.394 . S
C802 C803 1.369 . S
C802 C806 1.531 . S
C803 C802 1.369 . S
C803 C804 1.410 . S
C803 C811 1.503 . S
C804 C803 1.410 . S
C804 C805 1.392 . S
C804 C807 1.511 . S
C805 C801 1.382 . S
C805 C804 1.392 . S
C805 H817 0.929 . S
C806 C802 1.531 . S
C806 H818 0.960 . S
C806 H819 0.962 . S
C806 H820 0.960 . S
C807 C804 1.511 . S
C807 H821 0.961 . S
C807 H822 0.961 . S
C807 H823 0.961 . S
C808 C809 1.370 . S
C808 C810 1.363 . S
C808 H824 0.931 . S
C809 C808 1.370 . S
C809 C813 1.408 . S
C810 C808 1.363 . S
C810 C811 1.370 . S
C810 C814 1.524 . S
C811 C803 1.503 . S
C811 C810 1.370 . S
C811 C812 1.403 . S
C812 C811 1.403 . S
C812 C813 1.404 . S
C812 C815 1.539 . S
C813 C809 1.408 . S
C813 C812 1.404 . S
C813 H825 0.930 . S
C814 C810 1.524 . S
C814 H826 0.956 . S
C814 H827 0.961 . S
C814 H828 0.961 . S
C815 C812 1.539 . S
C815 H829 0.958 . S
C815 H830 0.961 . S
C815 H831 0.960 . S
H816 C800 0.943 . S
H817 C805 0.929 . S
H818 C806 0.960 . S
H819 C806 0.962 . S
H820 C806 0.960 . S
H821 C807 0.961 . S
H822 C807 0.961 . S
H823 C807 0.961 . S
H824 C808 0.931 . S
H825 C813 0.930 . S
H826 C814 0.956 . S
H827 C814 0.961 . S
H828 C814 0.961 . S
H829 C815 0.958 . S
H830 C815 0.961 . S
H831 C815 0.960 . S
C832 C833 1.391 . S
C832 C834 1.394 . S
C832 H848 0.931 . S
C833 C832 1.391 . S
C833 C837 1.376 . S
C834 C832 1.394 . S
C834 C835 1.369 . S
C834 C838 1.531 . S
C835 C834 1.369 . S
C835 C836 1.410 . S
C835 C843 1.503 . S
C836 C835 1.410 . S
C836 C837 1.392 . S
C836 C839 1.511 . S
C837 C833 1.376 . S
C837 C836 1.392 . S
C837 H849 0.929 . S
C838 C834 1.531 . S
C838 H850 0.960 . S
C838 H851 0.962 . S
C838 H852 0.960 . S
C839 C836 1.511 . S
C839 H853 0.961 . S
C839 H854 0.961 . S
C839 H855 0.961 . S
C840 C841 1.370 . S
C840 C842 1.363 . S
C840 H856 0.931 . S
C841 C840 1.370 . S
C841 C845 1.408 . S
C842 C840 1.363 . S
C842 C843 1.370 . S
C842 C846 1.524 . S
C843 C835 1.503 . S
C843 C842 1.370 . S
C843 C844 1.403 . S
C844 C843 1.403 . S
C844 C845 1.404 . S
C844 C847 1.539 . S
C845 C841 1.408 . S
C845 C844 1.404 . S
C845 H857 0.930 1_655 S
C846 C842 1.524 . S
C846 H858 0.956 . S
C846 H859 0.961 . S
C846 H860 0.961 . S
C847 C844 1.539 . S
C847 H861 0.958 . S
C847 H862 0.961 . S
C847 H863 0.960 . S
H848 C832 0.931 . S
H849 C837 0.929 . S
H850 C838 0.960 . S
H851 C838 0.962 . S
H852 C838 0.960 . S
H853 C839 0.961 . S
H854 C839 0.961 . S
H855 C839 0.961 . S
H856 C840 0.931 . S
H857 C845 0.930 1_455 S
H858 C846 0.956 . S
H859 C846 0.961 . S
H860 C846 0.961 . S
H861 C847 0.958 . S
H862 C847 0.961 . S
H863 C847 0.960 . S
C864 C865 1.397 . S
C864 C866 1.394 . S
C864 H880 0.931 . S
C865 C864 1.397 . S
C865 C869 1.381 . S
C866 C864 1.394 . S
C866 C867 1.369 . S
C866 C870 1.531 . S
C867 C866 1.369 . S
C867 C868 1.410 . S
C867 C875 1.503 . S
C868 C867 1.410 . S
C868 C869 1.392 . S
C868 C871 1.511 . S
C869 C865 1.381 . S
C869 C868 1.392 . S
C869 H881 0.929 . S
C870 C866 1.531 . S
C870 H882 0.960 . S
C870 H883 0.962 . S
C870 H884 0.960 . S
C871 C868 1.511 . S
C871 H885 0.961 . S
C871 H886 0.961 . S
C871 H887 0.961 . S
C872 C873 1.370 . S
C872 C874 1.363 . S
C872 H888 0.931 . S
C873 C872 1.370 . S
C873 C877 1.408 . S
C874 C872 1.363 . S
C874 C875 1.370 . S
C874 C878 1.524 . S
C875 C867 1.503 . S
C875 C874 1.370 . S
C875 C876 1.403 . S
C876 C875 1.403 . S
C876 C877 1.404 . S
C876 C879 1.539 . S
C877 C873 1.408 . S
C877 C876 1.404 . S
C877 H889 0.930 . S
C878 C874 1.524 . S
C878 H890 0.956 . S
C878 H891 0.961 . S
C878 H892 0.961 . S
C879 C876 1.539 . S
C879 H893 0.958 . S
C879 H894 0.961 . S
C879 H895 0.960 . S
H880 C864 0.931 . S
H881 C869 0.929 . S
H882 C870 0.960 . S
H883 C870 0.962 . S
H884 C870 0.960 . S
H885 C871 0.961 . S
H886 C871 0.961 . S
H887 C871 0.961 . S
H888 C872 0.931 . S
H889 C877 0.930 . S
H890 C878 0.956 . S
H891 C878 0.961 . S
H892 C878 0.961 . S
H893 C879 0.958 . S
H894 C879 0.961 . S
H895 C879 0.960 . S
C896 C897 1.391 . S
C896 C898 1.394 . S
C896 H912 0.931 . S
C897 C896 1.391 . S
C897 C901 1.376 . S
C898 C896 1.394 . S
C898 C899 1.369 . S
C898 C902 1.531 . S
C899 C898 1.369 . S
C899 C900 1.410 . S
C899 C907 1.503 . S
C900 C899 1.410 . S
C900 C901 1.392 . S
C900 C903 1.511 . S
C901 C897 1.376 . S
C901 C900 1.392 . S
C901 H913 0.929 . S
C902 C898 1.531 . S
C902 H914 0.960 . S
C902 H915 0.962 . S
C902 H916 0.960 . S
C903 C900 1.511 . S
C903 H917 0.961 . S
C903 H918 0.961 . S
C903 H919 0.961 . S
C904 C905 1.370 . S
C904 C906 1.363 . S
C904 H920 0.931 . S
C905 C904 1.370 . S
C905 C909 1.408 . S
C906 C904 1.363 . S
C906 C907 1.370 . S
C906 C910 1.524 . S
C907 C899 1.503 . S
C907 C906 1.370 . S
C907 C908 1.403 . S
C908 C907 1.403 . S
C908 C909 1.404 . S
C908 C911 1.539 . S
C909 C905 1.408 . S
C909 C908 1.404 . S
C909 H921 0.930 1_655 S
C910 C906 1.524 . S
C910 H922 0.956 . S
C910 H923 0.961 . S
C910 H924 0.961 . S
C911 C908 1.539 . S
C911 H925 0.958 . S
C911 H926 0.961 . S
C911 H927 0.960 . S
H912 C896 0.931 . S
H913 C901 0.929 . S
H914 C902 0.960 . S
H915 C902 0.962 . S
H916 C902 0.960 . S
H917 C903 0.961 . S
H918 C903 0.961 . S
H919 C903 0.961 . S
H920 C904 0.931 . S
H921 C909 0.930 1_455 S
H922 C910 0.956 . S
H923 C910 0.961 . S
H924 C910 0.961 . S
H925 C911 0.958 . S
H926 C911 0.961 . S
H927 C911 0.960 . S
C928 C929 1.391 . S
C928 C930 1.394 . S
C928 H944 0.931 . S
C929 C928 1.391 . S
C929 C933 1.376 . S
C930 C928 1.394 . S
C930 C931 1.369 . S
C930 C934 1.531 . S
C931 C930 1.369 . S
C931 C932 1.410 . S
C931 C939 1.503 . S
C932 C931 1.410 . S
C932 C933 1.392 . S
C932 C935 1.511 . S
C933 C929 1.376 . S
C933 C932 1.392 . S
C933 H945 0.929 . S
C934 C930 1.531 . S
C934 H946 0.960 . S
C934 H947 0.962 . S
C934 H948 0.960 . S
C935 C932 1.511 . S
C935 H949 0.961 . S
C935 H950 0.961 . S
C935 H951 0.961 . S
C936 C937 1.370 . S
C936 C938 1.363 . S
C936 H952 0.931 . S
C937 C936 1.370 . S
C937 C941 1.408 1_545 S
C938 C936 1.363 . S
C938 C939 1.370 . S
C938 C942 1.524 . S
C939 C931 1.503 . S
C939 C938 1.370 . S
C939 C940 1.403 . S
C940 C939 1.403 . S
C940 C941 1.404 1_545 S
C940 C943 1.539 . S
C941 C937 1.408 1_565 S
C941 C940 1.404 1_565 S
C941 H953 0.930 . S
C942 C938 1.524 . S
C942 H954 0.956 . S
C942 H955 0.961 . S
C942 H956 0.961 . S
C943 C940 1.539 . S
C943 H957 0.958 . S
C943 H958 0.961 . S
C943 H959 0.960 . S
H944 C928 0.931 . S
H945 C933 0.929 . S
H946 C934 0.960 . S
H947 C934 0.962 . S
H948 C934 0.960 . S
H949 C935 0.961 . S
H950 C935 0.961 . S
H951 C935 0.961 . S
H952 C936 0.931 . S
H953 C941 0.930 . S
H954 C942 0.956 . S
H955 C942 0.961 . S
H956 C942 0.961 . S
H957 C943 0.958 . S
H958 C943 0.961 . S
H959 C943 0.960 . S
C960 C961 1.391 . S
C960 C962 1.394 . S
C960 H976 0.931 . S
C961 C960 1.391 . S
C961 C965 1.376 . S
C962 C960 1.394 . S
C962 C963 1.369 . S
C962 C966 1.531 . S
C963 C962 1.369 . S
C963 C964 1.410 . S
C963 C971 1.503 . S
C964 C963 1.410 . S
C964 C965 1.392 . S
C964 C967 1.511 . S
C965 C961 1.376 . S
C965 C964 1.392 . S
C965 H977 0.929 . S
C966 C962 1.531 . S
C966 H978 0.960 . S
C966 H979 0.962 . S
C966 H980 0.960 . S
C967 C964 1.511 . S
C967 H981 0.961 . S
C967 H982 0.961 . S
C967 H983 0.961 . S
C968 C969 1.370 . S
C968 C970 1.363 . S
C968 H984 0.931 . S
C969 C968 1.370 . S
C969 C973 1.408 . S
C970 C968 1.363 . S
C970 C971 1.370 . S
C970 C974 1.524 . S
C971 C963 1.503 . S
C971 C970 1.370 . S
C971 C972 1.403 . S
C972 C971 1.403 . S
C972 C973 1.404 . S
C972 C975 1.539 . S
C973 C969 1.408 . S
C973 C972 1.404 . S
C973 H985 0.930 1_455 S
C974 C970 1.524 . S
C974 H986 0.956 . S
C974 H987 0.961 . S
C974 H988 0.961 . S
C975 C972 1.539 . S
C975 H989 0.958 . S
C975 H990 0.961 . S
C975 H991 0.960 . S
H976 C960 0.931 . S
H977 C965 0.929 . S
H978 C966 0.960 . S
H979 C966 0.962 . S
H980 C966 0.960 . S
H981 C967 0.961 . S
H982 C967 0.961 . S
H983 C967 0.961 . S
H984 C968 0.931 . S
H985 C973 0.930 1_655 S
H986 C974 0.956 . S
H987 C974 0.961 . S
H988 C974 0.961 . S
H989 C975 0.958 . S
H990 C975 0.961 . S
H991 C975 0.960 . S
C992 C993 1.391 . S
C992 C994 1.394 . S
C992 H1008 0.931 . S
C993 C992 1.391 . S
C993 C997 1.376 . S
C994 C992 1.394 . S
C994 C995 1.369 . S
C994 C998 1.531 . S
C995 C994 1.369 . S
C995 C996 1.410 . S
C995 C1003 1.503 . S
C996 C995 1.410 . S
C996 C997 1.392 . S
C996 C999 1.511 . S
C997 C993 1.376 . S
C997 C996 1.392 . S
C997 H1009 0.929 . S
C998 C994 1.531 . S
C998 H1010 0.960 . S
C998 H1011 0.962 . S
C998 H1012 0.960 . S
C999 C996 1.511 . S
C999 H1013 0.961 . S
C999 H1014 0.961 . S
C999 H1015 0.961 . S
C1000 C1001 1.370 . S
C1000 C1002 1.363 . S
C1000 H1016 0.931 . S
C1001 C1000 1.370 . S
C1001 C1005 1.408 . S
C1002 C1000 1.363 . S
C1002 C1003 1.370 . S
C1002 C1006 1.524 . S
C1003 C995 1.503 . S
C1003 C1002 1.370 . S
C1003 C1004 1.403 . S
C1004 C1003 1.403 . S
C1004 C1005 1.404 . S
C1004 C1007 1.539 . S
C1005 C1001 1.408 . S
C1005 C1004 1.404 . S
C1005 H1017 0.930 . S
C1006 C1002 1.524 . S
C1006 H1018 0.956 . S
C1006 H1019 0.961 . S
C1006 H1020 0.961 . S
C1007 C1004 1.539 . S
C1007 H1021 0.958 . S
C1007 H1022 0.961 . S
C1007 H1023 0.960 . S
H1008 C992 0.931 . S
H1009 C997 0.929 . S
H1010 C998 0.960 . S
H1011 C998 0.962 . S
H1012 C998 0.960 . S
H1013 C999 0.961 . S
H1014 C999 0.961 . S
H1015 C999 0.961 . S
H1016 C1000 0.931 . S
H1017 C1005 0.930 . S
H1018 C1006 0.956 . S
H1019 C1006 0.961 . S
H1020 C1006 0.961 . S
H1021 C1007 0.958 . S
H1022 C1007 0.961 . S
H1023 C1007 0.960 . S
C1024 C1025 1.391 . S
C1024 C1026 1.394 . S
C1024 H1040 0.931 . S
C1025 C1024 1.391 . S
C1025 C1029 1.376 . S
C1026 C1024 1.394 . S
C1026 C1027 1.369 . S
C1026 C1030 1.531 . S
C1027 C1026 1.369 . S
C1027 C1028 1.410 . S
C1027 C1035 1.503 . S
C1028 C1027 1.410 . S
C1028 C1029 1.392 . S
C1028 C1031 1.511 . S
C1029 C1025 1.376 . S
C1029 C1028 1.392 . S
C1029 H1041 0.929 . S
C1030 C1026 1.531 . S
C1030 H1042 0.960 . S
C1030 H1043 0.962 . S
C1030 H1044 0.960 . S
C1031 C1028 1.511 . S
C1031 H1045 0.961 . S
C1031 H1046 0.961 . S
C1031 H1047 0.961 . S
C1032 C1033 1.370 . S
C1032 C1034 1.363 . S
C1032 H1048 0.931 . S
C1033 C1032 1.370 . S
C1033 C1037 1.408 . S
C1034 C1032 1.363 . S
C1034 C1035 1.370 . S
C1034 C1038 1.524 . S
C1035 C1027 1.503 . S
C1035 C1034 1.370 . S
C1035 C1036 1.403 . S
C1036 C1035 1.403 . S
C1036 C1037 1.404 . S
C1036 C1039 1.539 . S
C1037 C1033 1.408 . S
C1037 C1036 1.404 . S
C1037 H1049 0.930 . S
C1038 C1034 1.524 . S
C1038 H1050 0.956 . S
C1038 H1051 0.961 . S
C1038 H1052 0.961 . S
C1039 C1036 1.539 . S
C1039 H1053 0.958 . S
C1039 H1054 0.961 . S
C1039 H1055 0.960 . S
H1040 C1024 0.931 . S
H1041 C1029 0.929 . S
H1042 C1030 0.960 . S
H1043 C1030 0.962 . S
H1044 C1030 0.960 . S
H1045 C1031 0.961 . S
H1046 C1031 0.961 . S
H1047 C1031 0.961 . S
H1048 C1032 0.931 . S
H1049 C1037 0.930 . S
H1050 C1038 0.956 . S
H1051 C1038 0.961 . S
H1052 C1038 0.961 . S
H1053 C1039 0.958 . S
H1054 C1039 0.961 . S
H1055 C1039 0.960 . S
C1056 C1057 1.391 . S
C1056 C1058 1.394 . S
C1056 H1072 0.931 . S
C1057 C1056 1.391 . S
C1057 C1061 1.376 . S
C1058 C1056 1.394 . S
C1058 C1059 1.369 . S
C1058 C1062 1.531 . S
C1059 C1058 1.369 . S
C1059 C1060 1.410 . S
C1059 C1067 1.503 . S
C1060 C1059 1.410 . S
C1060 C1061 1.392 . S
C1060 C1063 1.511 . S
C1061 C1057 1.376 . S
C1061 C1060 1.392 . S
C1061 H1073 0.929 . S
C1062 C1058 1.531 . S
C1062 H1074 0.960 . S
C1062 H1075 0.962 . S
C1062 H1076 0.960 . S
C1063 C1060 1.511 . S
C1063 H1077 0.961 . S
C1063 H1078 0.961 . S
C1063 H1079 0.961 . S
C1064 C1065 1.370 . S
C1064 C1066 1.363 . S
C1064 H1080 0.931 . S
C1065 C1064 1.370 . S
C1065 C1069 1.408 . S
C1066 C1064 1.363 . S
C1066 C1067 1.370 . S
C1066 C1070 1.524 . S
C1067 C1059 1.503 . S
C1067 C1066 1.370 . S
C1067 C1068 1.403 . S
C1068 C1067 1.403 . S
C1068 C1069 1.404 . S
C1068 C1071 1.539 . S
C1069 C1065 1.408 . S
C1069 C1068 1.404 . S
C1069 H1081 0.930 . S
C1070 C1066 1.524 . S
C1070 H1082 0.956 . S
C1070 H1083 0.961 . S
C1070 H1084 0.961 . S
C1071 C1068 1.539 . S
C1071 H1085 0.958 . S
C1071 H1086 0.961 . S
C1071 H1087 0.960 . S
H1072 C1056 0.931 . S
H1073 C1061 0.929 . S
H1074 C1062 0.960 . S
H1075 C1062 0.962 . S
H1076 C1062 0.960 . S
H1077 C1063 0.961 . S
H1078 C1063 0.961 . S
H1079 C1063 0.961 . S
H1080 C1064 0.931 . S
H1081 C1069 0.930 . S
H1082 C1070 0.956 . S
H1083 C1070 0.961 . S
H1084 C1070 0.961 . S
H1085 C1071 0.958 . S
H1086 C1071 0.961 . S
H1087 C1071 0.960 . S
C1088 C1089 1.391 . S
C1088 C1090 1.394 . S
C1088 H1104 0.931 . S
C1089 C1088 1.391 . S
C1089 C1093 1.376 . S
C1090 C1088 1.394 . S
C1090 C1091 1.369 . S
C1090 C1094 1.531 . S
C1091 C1090 1.369 . S
C1091 C1092 1.410 . S
C1091 C1099 1.503 . S
C1092 C1091 1.410 . S
C1092 C1093 1.392 . S
C1092 C1095 1.511 . S
C1093 C1089 1.376 . S
C1093 C1092 1.392 . S
C1093 H1105 0.929 . S
C1094 C1090 1.531 . S
C1094 H1106 0.960 . S
C1094 H1107 0.962 . S
C1094 H1108 0.960 . S
C1095 C1092 1.511 . S
C1095 H1109 0.961 . S
C1095 H1110 0.961 . S
C1095 H1111 0.961 . S
C1096 C1097 1.370 . S
C1096 C1098 1.363 . S
C1096 H1112 0.931 . S
C1097 C1096 1.370 . S
C1097 C1101 1.408 . S
C1098 C1096 1.363 . S
C1098 C1099 1.370 . S
C1098 C1102 1.524 . S
C1099 C1091 1.503 . S
C1099 C1098 1.370 . S
C1099 C1100 1.403 . S
C1100 C1099 1.403 . S
C1100 C1101 1.404 . S
C1100 C1103 1.539 . S
C1101 C1097 1.408 . S
C1101 C1100 1.404 . S
C1101 H1113 0.930 . S
C1102 C1098 1.524 . S
C1102 H1114 0.956 . S
C1102 H1115 0.961 . S
C1102 H1116 0.961 . S
C1103 C1100 1.539 . S
C1103 H1117 0.958 . S
C1103 H1118 0.961 . S
C1103 H1119 0.960 . S
H1104 C1088 0.931 . S
H1105 C1093 0.929 . S
H1106 C1094 0.960 . S
H1107 C1094 0.962 . S
H1108 C1094 0.960 . S
H1109 C1095 0.961 . S
H1110 C1095 0.961 . S
H1111 C1095 0.961 . S
H1112 C1096 0.931 . S
H1113 C1101 0.930 . S
H1114 C1102 0.956 . S
H1115 C1102 0.961 . S
H1116 C1102 0.961 . S
H1117 C1103 0.958 . S
H1118 C1103 0.961 . S
H1119 C1103 0.960 . S
C1120 C1121 1.391 . S
C1120 C1122 1.394 . S
C1120 H1136 0.931 . S
C1121 C1120 1.391 . S
C1121 C1125 1.376 . S
C1122 C1120 1.394 . S
C1122 C1123 1.369 . S
C1122 C1126 1.531 . S
C1123 C1122 1.369 . S
C1123 C1124 1.410 . S
C1123 C1131 1.493 1_544 S
C1124 C1123 1.410 . S
C1124 C1125 1.392 . S
C1124 C1127 1.511 1_545 S
C1125 C1121 1.376 . S
C1125 C1124 1.392 . S
C1125 H1137 0.929 . S
C1126 C1122 1.531 . S
C1126 H1138 0.960 1_554 S
C1126 H1139 0.962 . S
C1126 H1140 0.960 . S
C1127 C1124 1.511 1_565 S
C1127 H1141 0.961 . S
C1127 H1142 0.961 . S
C1127 H1143 0.961 1_565 S
C1128 C1129 1.370 . S
C1128 C1130 1.363 . S
C1128 H1144 0.931 . S
C1129 C1128 1.370 . S
C1129 C1133 1.408 1_565 S
C1130 C1128 1.363 . S
C1130 C1131 1.396 . S
C1130 C1134 1.524 1_556 S
C1131 C1123 1.493 1_566 S
C1131 C1130 1.396 . S
C1131 C1132 1.387 1_565 S
C1132 C1131 1.387 1_545 S
C1132 C1133 1.404 . S
C1132 C1135 1.539 . S
C1133 C1129 1.408 1_545 S
C1133 C1132 1.404 . S
C1133 H1145 0.930 . S
C1134 C1130 1.524 1_554 S
C1134 H1146 0.956 . S
C1134 H1147 0.961 . S
C1134 H1148 0.961 1_554 S
C1135 C1132 1.539 . S
C1135 H1149 0.958 . S
C1135 H1150 0.961 . S
C1135 H1151 0.960 . S
H1136 C1120 0.931 . S
H1137 C1125 0.929 . S
H1138 C1126 0.960 1_556 S
H1139 C1126 0.962 . S
H1140 C1126 0.960 . S
H1141 C1127 0.961 . S
H1142 C1127 0.961 . S
H1143 C1127 0.961 1_545 S
H1144 C1128 0.931 . S
H1145 C1133 0.930 . S
H1146 C1134 0.956 . S
H1147 C1134 0.961 . S
H1148 C1134 0.961 1_556 S
H1149 C1135 0.958 . S
H1150 C1135 0.961 . S
H1151 C1135 0.960 . S
C1152 C1153 1.391 . S
C1152 C1154 1.394 . S
C1152 H1168 0.931 . S
C1153 C1152 1.391 . S
C1153 C1157 1.376 1_455 S
C1154 C1152 1.394 . S
C1154 C1155 1.369 . S
C1154 C1158 1.531 . S
C1155 C1154 1.369 . S
C1155 C1156 1.410 1_455 S
C1155 C1163 1.503 1_456 S
C1156 C1155 1.410 1_655 S
C1156 C1157 1.392 . S
C1156 C1159 1.511 . S
C1157 C1153 1.376 1_655 S
C1157 C1156 1.392 . S
C1157 H1169 0.929 . S
C1158 C1154 1.531 . S
C1158 H1170 0.960 1_556 S
C1158 H1171 0.962 1_556 S
C1158 H1172 0.960 . S
C1159 C1156 1.511 . S
C1159 H1173 0.961 . S
C1159 H1174 0.961 . S
C1159 H1175 0.961 . S
C1160 C1161 1.370 . S
C1160 C1162 1.363 1_655 S
C1160 H1176 0.931 1_655 S
C1161 C1160 1.370 . S
C1161 C1165 1.408 . S
C1162 C1160 1.363 1_455 S
C1162 C1163 1.370 1_455 S
C1162 C1166 1.524 . S
C1163 C1155 1.503 1_654 S
C1163 C1162 1.370 1_655 S
C1163 C1164 1.403 . S
C1164 C1163 1.403 . S
C1164 C1165 1.404 . S
C1164 C1167 1.539 . S
C1165 C1161 1.408 . S
C1165 C1164 1.404 . S
C1165 H1177 0.930 . S
C1166 C1162 1.524 . S
C1166 H1178 0.956 . S
C1166 H1179 0.961 . S
C1166 H1180 0.961 . S
C1167 C1164 1.539 . S
C1167 H1181 0.958 . S
C1167 H1182 0.961 . S
C1167 H1183 0.960 1_554 S
H1168 C1152 0.931 . S
H1169 C1157 0.929 . S
H1170 C1158 0.960 1_554 S
H1171 C1158 0.962 1_554 S
H1172 C1158 0.960 . S
H1173 C1159 0.961 . S
H1174 C1159 0.961 . S
H1175 C1159 0.961 . S
H1176 C1160 0.931 1_455 S
H1177 C1165 0.930 . S
H1178 C1166 0.956 . S
H1179 C1166 0.961 . S
H1180 C1166 0.961 . S
H1181 C1167 0.958 . S
H1182 C1167 0.961 . S
H1183 C1167 0.960 1_556 S
C1184 C1185 1.391 . S
C1184 C1186 1.394 . S
C1184 H1200 0.931 . S
C1185 C1184 1.391 . S
C1185 C1189 1.376 . S
C1186 C1184 1.394 . S
C1186 C1187 1.369 . S
C1186 C1190 1.531 . S
C1187 C1186 1.369 . S
C1187 C1188 1.410 . S
C1187 C1195 1.499 1_546 S
C1188 C1187 1.410 . S
C1188 C1189 1.392 . S
C1188 C1191 1.511 . S
C1189 C1185 1.376 . S
C1189 C1188 1.392 . S
C1189 H1201 0.929 . S
C1190 C1186 1.531 . S
C1190 H1202 0.960 1_556 S
C1190 H1203 0.962 . S
C1190 H1204 0.960 . S
C1191 C1188 1.511 . S
C1191 H1205 0.961 1_545 S
C1191 H1206 0.973 1_545 S
C1191 H1207 0.961 . S
C1192 C1193 1.370 . S
C1192 C1194 1.363 . S
C1192 H1208 0.931 . S
C1193 C1192 1.370 . S
C1193 C1197 1.408 1_565 S
C1194 C1192 1.363 . S
C1194 C1195 1.383 . S
C1194 C1198 1.524 1_554 S
C1195 C1187 1.499 1_564 S
C1195 C1194 1.383 . S
C1195 C1196 1.395 1_565 S
C1196 C1195 1.395 1_545 S
C1196 C1197 1.404 . S
C1196 C1199 1.539 . S
C1197 C1193 1.408 1_545 S
C1197 C1196 1.404 . S
C1197 H1209 0.930 . S
C1198 C1194 1.524 1_556 S
C1198 H1210 0.956 . S
C1198 H1211 0.961 . S
C1198 H1212 0.961 1_556 S
C1199 C1196 1.539 . S
C1199 H1213 0.958 . S
C1199 H1214 0.961 . S
C1199 H1215 0.960 . S
H1200 C1184 0.931 . S
H1201 C1189 0.929 . S
H1202 C1190 0.960 1_554 S
H1203 C1190 0.962 . S
H1204 C1190 0.960 . S
H1205 C1191 0.961 1_565 S
H1206 C1191 0.973 1_565 S
H1207 C1191 0.961 . S
H1208 C1192 0.931 . S
H1209 C1197 0.930 . S
H1210 C1198 0.956 . S
H1211 C1198 0.961 . S
H1212 C1198 0.961 1_554 S
H1213 C1199 0.958 . S
H1214 C1199 0.961 . S
H1215 C1199 0.960 . S
C1216 C1217 1.391 . S
C1216 C1218 1.394 . S
C1216 H1232 0.931 . S
C1217 C1216 1.391 . S
C1217 C1221 1.376 . S
C1218 C1216 1.394 . S
C1218 C1219 1.369 . S
C1218 C1222 1.531 . S
C1219 C1218 1.369 . S
C1219 C1220 1.410 1_655 S
C1219 C1227 1.503 1_656 S
C1220 C1219 1.410 1_455 S
C1220 C1221 1.392 1_455 S
C1220 C1223 1.511 . S
C1221 C1217 1.376 . S
C1221 C1220 1.392 1_655 S
C1221 H1233 0.929 1_655 S
C1222 C1218 1.531 . S
C1222 H1234 0.960 1_556 S
C1222 H1235 0.962 1_556 S
C1222 H1236 0.960 . S
C1223 C1220 1.511 . S
C1223 H1237 0.961 . S
C1223 H1238 0.961 . S
C1223 H1239 0.961 . S
C1224 C1225 1.378 . S
C1224 C1226 1.361 1_455 S
C1224 H1240 0.925 1_455 S
C1225 C1224 1.378 . S
C1225 C1229 1.408 . S
C1226 C1224 1.361 1_655 S
C1226 C1227 1.370 1_655 S
C1226 C1230 1.524 . S
C1227 C1219 1.503 1_454 S
C1227 C1226 1.370 1_455 S
C1227 C1228 1.403 . S
C1228 C1227 1.403 . S
C1228 C1229 1.404 . S
C1228 C1231 1.539 . S
C1229 C1225 1.408 . S
C1229 C1228 1.404 . S
C1229 H1241 0.930 . S
C1230 C1226 1.524 . S
C1230 H1242 0.956 . S
C1230 H1243 0.961 . S
C1230 H1244 0.961 . S
C1231 C1228 1.539 . S
C1231 H1245 0.958 . S
C1231 H1246 0.961 . S
C1231 H1247 0.960 1_554 S
H1232 C1216 0.931 . S
H1233 C1221 0.929 1_455 S
H1234 C1222 0.960 1_554 S
H1235 C1222 0.962 1_554 S
H1236 C1222 0.960 . S
H1237 C1223 0.961 . S
H1238 C1223 0.961 . S
H1239 C1223 0.961 . S
H1240 C1224 0.925 1_655 S
H1241 C1229 0.930 . S
H1242 C1230 0.956 . S
H1243 C1230 0.961 . S
H1244 C1230 0.961 . S
H1245 C1231 0.958 . S
H1246 C1231 0.961 . S
H1247 C1231 0.960 1_556 S
C225 C6 1.346 . S
C233 C104 1.353 . S
C257 C20 1.337 . S
C265 C62 1.351 . S
C289 C76 1.337 . S
C297 C34 1.351 . S
C321 C48 1.354 . S
C329 C90 1.359 . S
C353 C118 1.349 . S
C361 C216 1.357 . S
C385 C174 1.372 . S
C393 C132 1.366 . S
C417 C188 1.358 . S
C425 C146 1.358 . S
C449 C202 1.370 . S
C457 C160 1.365 . S
C481 C9 1.448 . S
C489 C162 1.490 . S
C513 C23 1.444 . S
C521 C120 1.496 . S
C545 C134 1.483 . S
C553 C37 1.447 . S
C577 C51 1.433 . S
C585 C148 1.494 . S
C609 C65 1.431 . S
C617 C190 1.489 . S
C641 C204 1.500 . S
C649 C79 1.469 . S
C673 C93 1.454 . S
C681 C218 1.491 . S
C705 C176 1.482 . S
C713 C107 1.448 . S
C737 C121 1.481 1_545 S
C745 C50 1.496 . S
C769 C8 1.501 . S
C777 C135 1.465 1_455 S
C801 C149 1.445 1_565 S
C809 C22 1.497 . S
C833 C36 1.488 . S
C841 C163 1.448 1_655 S
C865 C177 1.450 1_565 S
C873 C78 1.497 . S
C897 C92 1.487 . S
C905 C191 1.448 1_655 S
C929 C106 1.500 . S
C937 C205 1.466 1_545 S
C961 C64 1.487 . S
C969 C219 1.448 1_455 S
C993 C63 1.553 . S
C1001 C7 1.571 . S
C1025 C77 1.550 . S
C1033 C21 1.561 . S
C1057 C35 1.589 . S
C1065 C91 1.576 . S
C1089 C105 1.547 . S
C1097 C49 1.560 . S
C1121 C175 1.571 . S
C1129 C119 1.578 . S
C1153 C189 1.551 . S
C1161 C133 1.561 . S
C1185 C147 1.564 . S
C1193 C203 1.576 . S
C1217 C217 1.557 . S
C1225 C161 1.563 . S
