# Generated by pormake.
# Topology una, (4)-cn, num edge types: 1
# Building blocks:
#     Node 0, Type 0, BuildingBlock: CEKHIL_clean_sbu_0, # of connection points: 4
#     Node 1, Type 0, BuildingBlock: CEKHIL_clean_sbu_0, # of connection points: 4
#     Node 2, Type 0, BuildingBlock: CEKHIL_clean_sbu_0, # of connection points: 4
#     Node 3, Type 0, BuildingBlock: CEKHIL_clean_sbu_0, # of connection points: 4
#     Node 4, Type 0, BuildingBlock: CEKHIL_clean_sbu_0, # of connection points: 4
#     Node 5, Type 0, BuildingBlock: CEKHIL_clean_sbu_0, # of connection points: 4
#     Node 6, Type 0, BuildingBlock: CEKHIL_clean_sbu_0, # of connection points: 4
#     Node 7, Type 0, BuildingBlock: CEKHIL_clean_sbu_0, # of connection points: 4
#     Node 8, Type 0, BuildingBlock: CEKHIL_clean_sbu_0, # of connection points: 4
#     Node 9, Type 0, BuildingBlock: CEKHIL_clean_sbu_0, # of connection points: 4
#     Node 10, Type 0, BuildingBlock: CEKHIL_clean_sbu_0, # of connection points: 4
#     Node 11, Type 0, BuildingBlock: CEKHIL_clean_sbu_0, # of connection points: 4
#     Edge 12, Type (0, 0), BuildingBlock: OJICUG_clean_linker_0, # of connection points: 2
#     Edge 13, Type (0, 0), BuildingBlock: OJICUG_clean_linker_0, # of connection points: 2
#     Edge 14, Type (0, 0), BuildingBlock: OJICUG_clean_linker_0, # of connection points: 2
#     Edge 15, Type (0, 0), BuildingBlock: OJICUG_clean_linker_0, # of connection points: 2
#     Edge 16, Type (0, 0), BuildingBlock: OJICUG_clean_linker_0, # of connection points: 2
#     Edge 17, Type (0, 0), BuildingBlock: OJICUG_clean_linker_0, # of connection points: 2
#     Edge 18, Type (0, 0), BuildingBlock: OJICUG_clean_linker_0, # of connection points: 2
#     Edge 19, Type (0, 0), BuildingBlock: OJICUG_clean_linker_0, # of connection points: 2
#     Edge 20, Type (0, 0), BuildingBlock: OJICUG_clean_linker_0, # of connection points: 2
#     Edge 21, Type (0, 0), BuildingBlock: OJICUG_clean_linker_0, # of connection points: 2
#     Edge 22, Type (0, 0), BuildingBlock: OJICUG_clean_linker_0, # of connection points: 2
#     Edge 23, Type (0, 0), BuildingBlock: OJICUG_clean_linker_0, # of connection points: 2
#     Edge 24, Type (0, 0), BuildingBlock: OJICUG_clean_linker_0, # of connection points: 2
#     Edge 25, Type (0, 0), BuildingBlock: OJICUG_clean_linker_0, # of connection points: 2
#     Edge 26, Type (0, 0), BuildingBlock: OJICUG_clean_linker_0, # of connection points: 2
#     Edge 27, Type (0, 0), BuildingBlock: OJICUG_clean_linker_0, # of connection points: 2
#     Edge 28, Type (0, 0), BuildingBlock: OJICUG_clean_linker_0, # of connection points: 2
#     Edge 29, Type (0, 0), BuildingBlock: OJICUG_clean_linker_0, # of connection points: 2
#     Edge 30, Type (0, 0), BuildingBlock: OJICUG_clean_linker_0, # of connection points: 2
#     Edge 31, Type (0, 0), BuildingBlock: OJICUG_clean_linker_0, # of connection points: 2
#     Edge 32, Type (0, 0), BuildingBlock: OJICUG_clean_linker_0, # of connection points: 2
#     Edge 33, Type (0, 0), BuildingBlock: OJICUG_clean_linker_0, # of connection points: 2
#     Edge 34, Type (0, 0), BuildingBlock: OJICUG_clean_linker_0, # of connection points: 2
#     Edge 35, Type (0, 0), BuildingBlock: OJICUG_clean_linker_0, # of connection points: 2
# Relax obj value: 0.020
# Max RMSD: 0.036
# Mean RMSD: 0.036
data_MOF--net-una--node1-CEKHIL_clean_sbu_0--edge1-OJICUG_clean_linker_0
_symmetry_space_group_name_H-M    P1
_symmetry_Int_Tables_number       1
_symmetry_cell_setting            triclinic
loop_
_symmetry_equiv_pos_as_xyz
'x, y, z'
_cell_length_a     42.072803
_cell_length_b     42.042207
_cell_length_c     15.875069
_cell_angle_alpha  90.055419
_cell_angle_beta   90.016056
_cell_angle_gamma 120.10756
loop_
_atom_site_label
_atom_site_type_symbol
_atom_site_fract_x
_atom_site_fract_y
_atom_site_fract_z
_atom_type_partial_charge
Co0 Co 0.13648 0.44319 0.02343 0.0
O1 O 0.10627 0.44136 0.93069 0.0
O2 O 0.0844 0.41053 0.04902 0.0
C3 C 0.1746 0.43572 0.93759 0.0
O4 O 0.16201 0.43819 0.13055 0.0
Co5 Co 0.21906 0.50413 0.0256 0.0
O6 O 0.22297 0.47023 0.10574 0.0
C7 C 0.16057 0.52223 0.06153 0.0
C8 C 0.07808 0.41764 0.97278 0.0
C9 C 0.19556 0.44704 0.14887 0.0
O10 O 0.13621 0.48795 0.07027 0.0
O11 O 0.19353 0.53334 0.03707 0.0
O12 O 0.14508 0.40704 0.96504 0.0
O13 O 0.17912 0.46702 0.96087 0.0
Co14 Co 0.69761 0.13289 0.1902 0.0
O15 O 0.66762 0.10326 0.09815 0.0
O16 O 0.67616 0.0805 0.21551 0.0
C17 C 0.74335 0.17005 0.10318 0.0
O18 O 0.72944 0.15736 0.29663 0.0
Co19 Co 0.72323 0.21647 0.1945 0.0
O20 O 0.76073 0.21844 0.27291 0.0
C21 C 0.64569 0.16022 0.23187 0.0
C22 C 0.66199 0.0746 0.14 0.0
C23 C 0.75539 0.19044 0.3152 0.0
O24 O 0.65402 0.1347 0.23927 0.0
O25 O 0.66868 0.19298 0.20778 0.0
O26 O 0.7413 0.13982 0.12943 0.0
O27 O 0.71763 0.17578 0.12832 0.0
Co28 Co 0.57219 0.69909 0.36005 0.0
O29 O 0.573 0.66943 0.26896 0.0
O30 O 0.60651 0.68157 0.38412 0.0
C31 C 0.57661 0.74273 0.27163 0.0
O32 O 0.57813 0.73111 0.4652 0.0
Co33 Co 0.50941 0.71765 0.36628 0.0
O34 O 0.54448 0.75815 0.43988 0.0
C35 C 0.49583 0.64465 0.42346 0.0
C36 C 0.59793 0.66645 0.3095 0.0
C37 C 0.56853 0.75532 0.48276 0.0
O38 O 0.52992 0.65432 0.41441 0.0
O39 O 0.48238 0.66507 0.40409 0.0
O40 O 0.60614 0.74317 0.29703 0.0
O41 O 0.546 0.71561 0.29783 0.0
Co42 Co 0.87463 0.5639 0.52772 0.0
O43 O 0.90455 0.56537 0.43487 0.0
O44 O 0.92684 0.59629 0.55311 0.0
C45 C 0.83664 0.57169 0.44211 0.0
O46 O 0.84929 0.56913 0.6349 0.0
Co47 Co 0.79191 0.50323 0.52947 0.0
O48 O 0.7883 0.53728 0.60986 0.0
C49 C 0.85014 0.48477 0.56526 0.0
C50 C 0.93291 0.58898 0.47679 0.0
C51 C 0.81577 0.5604 0.65314 0.0
O52 O 0.8746 0.519 0.57433 0.0
O53 O 0.81721 0.4738 0.54062 0.0
O54 O 0.86631 0.60026 0.46954 0.0
O55 O 0.83194 0.54032 0.46521 0.0
Co56 Co 0.30982 0.8752 0.69291 0.0
O57 O 0.34121 0.9048 0.60282 0.0
O58 O 0.32974 0.92752 0.71663 0.0
C59 C 0.26603 0.83737 0.60251 0.0
O60 O 0.27635 0.85077 0.79692 0.0
Co61 Co 0.28504 0.79213 0.70219 0.0
O62 O 0.24495 0.78989 0.77162 0.0
C63 C 0.35918 0.84843 0.76355 0.0
C64 C 0.34528 0.93336 0.64273 0.0
C65 C 0.24995 0.81776 0.81399 0.0
O66 O 0.35268 0.87486 0.75013 0.0
O67 O 0.33662 0.81472 0.74544 0.0
O68 O 0.26721 0.8674 0.627 0.0
O69 O 0.29154 0.83194 0.63124 0.0
Co70 Co 0.43891 0.30942 0.86178 0.0
O71 O 0.43928 0.33944 0.77014 0.0
O72 O 0.405 0.32755 0.88384 0.0
C73 C 0.43446 0.26553 0.77385 0.0
O74 O 0.4313 0.27711 0.9672 0.0
Co75 Co 0.50003 0.28875 0.87316 0.0
O76 O 0.46337 0.24827 0.94408 0.0
C77 C 0.51478 0.36225 0.93067 0.0
C78 C 0.41419 0.34266 0.80939 0.0
C79 C 0.43952 0.25198 0.98551 0.0
O80 O 0.4812 0.35377 0.91779 0.0
O81 O 0.52749 0.34096 0.91363 0.0
O82 O 0.40504 0.26569 0.79768 0.0
O83 O 0.46511 0.29222 0.80135 0.0
Co84 Co 0.56503 0.87348 0.92585 0.0
O85 O 0.56546 0.90346 0.01791 0.0
O86 O 0.5965 0.92575 0.90002 0.0
C87 C 0.57338 0.83623 0.01289 0.0
O88 O 0.57166 0.84865 0.81924 0.0
Co89 Co 0.50638 0.7901 0.92231 0.0
O90 O 0.5414 0.78759 0.84325 0.0
C91 C 0.48575 0.8468 0.88543 0.0
C92 C 0.58871 0.93192 0.97573 0.0
C93 C 0.56413 0.81547 0.80068 0.0
O94 O 0.51973 0.87211 0.87757 0.0
O95 O 0.47571 0.814 0.90956 0.0
O96 O 0.60168 0.86623 0.98589 0.0
O97 O 0.54189 0.83068 0.98832 0.0
Co98 Co 0.69814 0.56636 0.09414 0.0
O99 O 0.66968 0.56863 0.18599 0.0
O100 O 0.67974 0.59976 0.06776 0.0
C101 C 0.74301 0.57292 0.18136 0.0
O102 O 0.72894 0.57082 0.98798 0.0
Co103 Co 0.71793 0.50418 0.09378 0.0
O104 O 0.75631 0.53743 0.0137 0.0
C105 C 0.64202 0.48769 0.05561 0.0
C106 C 0.66595 0.59272 0.14368 0.0
C107 C 0.75302 0.56109 0.97025 0.0
O108 O 0.6528 0.52212 0.04628 0.0
O109 O 0.66311 0.4759 0.08147 0.0
O110 O 0.74299 0.60192 0.15351 0.0
O111 O 0.7159 0.54188 0.15758 0.0
Co112 Co 0.13177 0.69791 0.25491 0.0
O113 O 0.10252 0.66692 0.34588 0.0
O114 O 0.07942 0.67826 0.23266 0.0
C115 C 0.17025 0.74197 0.34398 0.0
O116 O 0.15593 0.73098 0.15017 0.0
Co117 Co 0.2145 0.72173 0.24372 0.0
O118 O 0.21686 0.76188 0.17425 0.0
C119 C 0.15746 0.64766 0.18382 0.0
C120 C 0.07385 0.6629 0.30674 0.0
C121 C 0.18897 0.75711 0.13244 0.0
O122 O 0.13139 0.65462 0.19781 0.0
O123 O 0.1913 0.66997 0.20103 0.0
O124 O 0.14021 0.74089 0.32029 0.0
O125 O 0.17526 0.71612 0.31548 0.0
Co126 Co 0.44178 0.13307 0.42469 0.0
O127 O 0.44292 0.10311 0.51469 0.0
O128 O 0.40891 0.0809 0.40037 0.0
C129 C 0.43597 0.17089 0.51523 0.0
O130 O 0.43329 0.15783 0.3206 0.0
Co131 Co 0.50059 0.21598 0.41623 0.0
O132 O 0.46315 0.21868 0.34616 0.0
C133 C 0.51802 0.15949 0.35485 0.0
C134 C 0.41818 0.07477 0.47448 0.0
C135 C 0.44019 0.1909 0.30356 0.0
O136 O 0.48494 0.13315 0.36801 0.0
O137 O 0.52937 0.19321 0.37307 0.0
O138 O 0.40703 0.14104 0.49002 0.0
O139 O 0.46698 0.17623 0.48703 0.0
Co140 Co 0.31322 0.44109 0.58997 0.0
O141 O 0.34184 0.43923 0.68193 0.0
O142 O 0.33171 0.40765 0.56423 0.0
C143 C 0.26838 0.43471 0.67699 0.0
O144 O 0.28228 0.43634 0.48384 0.0
Co145 Co 0.29382 0.50354 0.58929 0.0
O146 O 0.2554 0.47026 0.50902 0.0
C147 C 0.36942 0.51958 0.55025 0.0
C148 C 0.34563 0.41505 0.64008 0.0
C149 C 0.25842 0.44633 0.46586 0.0
O150 O 0.35843 0.48508 0.54143 0.0
O151 O 0.34864 0.53169 0.57641 0.0
O152 O 0.26848 0.40567 0.64954 0.0
O153 O 0.2955 0.46571 0.65319 0.0
Co154 Co 0.87808 0.30815 0.7552 0.0
O155 O 0.9081 0.33899 0.84558 0.0
O156 O 0.93026 0.32734 0.73119 0.0
C157 C 0.83996 0.26441 0.8451 0.0
O158 O 0.85268 0.27516 0.65077 0.0
Co159 Co 0.79551 0.28556 0.74836 0.0
O160 O 0.79192 0.24524 0.67726 0.0
C161 C 0.85279 0.35919 0.68726 0.0
C162 C 0.93642 0.34278 0.80539 0.0
C163 C 0.81925 0.24954 0.63388 0.0
O164 O 0.87862 0.35169 0.69927 0.0
O165 O 0.81904 0.33735 0.70603 0.0
O166 O 0.86958 0.26496 0.81998 0.0
O167 O 0.83522 0.29051 0.81739 0.0
C168 C 0.23688 0.43217 0.23312 0.0
C169 C 0.20479 0.43488 0.22877 0.0
H170 H 0.27864 0.43253 0.31184 0.0
C171 C 0.18678 0.43357 0.30412 0.0
H172 H 0.2514 0.43303 0.17604 0.0
C173 C 0.2027 0.43369 0.38199 0.0
C174 C 0.23665 0.43454 0.38629 0.0
H175 H 0.16227 0.43587 0.3032 0.0
H176 H 0.1897 0.43575 0.43901 0.0
C177 C 0.25249 0.43169 0.311 0.0
C178 C 0.77674 0.19421 0.54762 0.0
C179 C 0.80975 0.22834 0.55343 0.0
H180 H 0.73386 0.15474 0.46738 0.0
C181 C 0.82824 0.24526 0.47864 0.0
H182 H 0.76181 0.18036 0.60416 0.0
C183 C 0.81196 0.23066 0.40022 0.0
C184 C 0.77706 0.19858 0.39469 0.0
H185 H 0.85348 0.27157 0.48055 0.0
H186 H 0.82549 0.24605 0.3439 0.0
C187 C 0.76068 0.17936 0.46912 0.0
C188 C 0.5823 0.76059 0.63791 0.0
C189 C 0.57994 0.77684 0.5628 0.0
H190 H 0.57951 0.76052 0.77276 0.0
C191 C 0.58022 0.81053 0.56788 0.0
H192 H 0.58182 0.73459 0.63651 0.0
C193 C 0.57921 0.82566 0.64609 0.0
C194 C 0.57732 0.80713 0.72101 0.0
H195 H 0.57845 0.82382 0.51107 0.0
H196 H 0.57645 0.84993 0.6474 0.0
C197 C 0.58073 0.77542 0.71607 0.0
C198 C 0.77445 0.57524 0.73753 0.0
C199 C 0.80657 0.57258 0.73312 0.0
H200 H 0.73267 0.57478 0.81628 0.0
C201 C 0.82463 0.57393 0.80845 0.0
H202 H 0.7599 0.57436 0.68046 0.0
C203 C 0.80872 0.57376 0.88633 0.0
C204 C 0.77472 0.57283 0.89067 0.0
H205 H 0.84917 0.57167 0.80749 0.0
H206 H 0.82177 0.57175 0.94333 0.0
C207 C 0.75885 0.57566 0.81542 0.0
C208 C 0.19387 0.77684 0.89953 0.0
C209 C 0.2284 0.80936 0.89364 0.0
H210 H 0.15354 0.73509 0.98017 0.0
C211 C 0.24505 0.82849 0.96813 0.0
H212 H 0.18017 0.76148 0.84321 0.0
C213 C 0.22981 0.81314 0.04675 0.0
C214 C 0.19735 0.77857 0.05268 0.0
H215 H 0.27162 0.85341 0.96615 0.0
H216 H 0.24504 0.82696 0.1031 0.0
C217 C 0.1784 0.76172 0.97815 0.0
C218 C 0.42487 0.23173 0.21834 0.0
C219 C 0.4272 0.19943 0.22385 0.0
H220 H 0.42581 0.27335 0.13816 0.0
C221 C 0.42514 0.18065 0.1491 0.0
H222 H 0.42627 0.24685 0.27486 0.0
C223 C 0.4252 0.1961 0.07066 0.0
C224 C 0.42678 0.23039 0.06515 0.0
H225 H 0.4271 0.15593 0.1508 0.0
H226 H 0.42691 0.18257 0.01414 0.0
C227 C 0.4244 0.24692 0.13988 0.0
C228 C 0.12822 0.54774 0.14895 0.0
C229 C 0.1518 0.5513 0.0822 0.0
H230 H 0.11112 0.57628 0.23414 0.0
C231 C 0.17143 0.58532 0.04087 0.0
H232 H 0.11279 0.52183 0.18187 0.0
C233 C 0.17048 0.61596 0.07043 0.0
C234 C 0.14961 0.61332 0.1415 0.0
H235 H 0.18931 0.58881 0.98827 0.0
H236 H 0.18787 0.64233 0.04066 0.0
C237 C 0.12717 0.57875 0.17864 0.0
C238 C 0.5961 0.17526 0.2157 0.0
C239 C 0.60838 0.15306 0.25311 0.0
H240 H 0.55743 0.194 0.21845 0.0
C241 C 0.58664 0.12786 0.31587 0.0
H242 H 0.61172 0.19442 0.16597 0.0
C243 C 0.55487 0.1274 0.34553 0.0
C244 C 0.5448 0.15212 0.31251 0.0
H245 H 0.59541 0.11037 0.34562 0.0
H246 H 0.53982 0.10973 0.39788 0.0
C247 C 0.56487 0.17493 0.24532 0.0
C248 C 0.42359 0.54517 0.45195 0.0
C249 C 0.40724 0.54769 0.52702 0.0
H250 H 0.46565 0.57487 0.35931 0.0
C251 C 0.42478 0.5804 0.57406 0.0
H252 H 0.41039 0.52033 0.41429 0.0
C253 C 0.45607 0.6111 0.54316 0.0
C254 C 0.47058 0.6097 0.46482 0.0
H255 H 0.41292 0.58295 0.63248 0.0
H256 H 0.4675 0.63674 0.57783 0.0
C257 C 0.45512 0.57623 0.42065 0.0
C258 C 0.83897 0.42155 0.54448 0.0
C259 C 0.85875 0.45559 0.58585 0.0
H260 H 0.82234 0.36448 0.5442 0.0
C261 C 0.88236 0.45912 0.65256 0.0
H262 H 0.82105 0.41808 0.49193 0.0
C263 C 0.8833 0.42807 0.68217 0.0
C264 C 0.86075 0.3935 0.64496 0.0
H265 H 0.89789 0.48505 0.68551 0.0
H266 H 0.89938 0.43053 0.73765 0.0
C267 C 0.83983 0.39087 0.57396 0.0
C268 C 0.42816 0.88012 0.77227 0.0
C269 C 0.39333 0.85568 0.80579 0.0
H270 H 0.48565 0.89667 0.77149 0.0
C271 C 0.3905 0.83297 0.8732 0.0
H272 H 0.43083 0.89771 0.71972 0.0
C273 C 0.42132 0.8324 0.90255 0.0
C274 C 0.4558 0.85427 0.86461 0.0
H275 H 0.36396 0.81411 0.90042 0.0
H276 H 0.41771 0.81329 0.95243 0.0
C277 C 0.45939 0.87943 0.80166 0.0
C278 C 0.55647 0.39521 0.04831 0.0
C279 C 0.54037 0.39703 0.97265 0.0
H280 H 0.60082 0.42308 0.13491 0.0
C281 C 0.55434 0.43097 0.93118 0.0
H282 H 0.54613 0.36927 0.08112 0.0
C283 C 0.58611 0.46209 0.96182 0.0
C284 C 0.60407 0.4592 0.03369 0.0
H285 H 0.54249 0.43273 0.87199 0.0
H286 H 0.59814 0.48736 0.92585 0.0
C287 C 0.58786 0.42597 0.0787 0.0
C288 C 0.24896 0.46686 0.77594 0.0
C289 C 0.24291 0.43355 0.74158 0.0
H290 H 0.23294 0.49341 0.86611 0.0
C291 C 0.2146 0.4002 0.77393 0.0
H292 H 0.27073 0.49305 0.75292 0.0
C293 C 0.1925 0.40041 0.83966 0.0
C294 C 0.19886 0.43396 0.87377 0.0
H295 H 0.20967 0.37415 0.74879 0.0
H296 H 0.1704 0.37453 0.86316 0.0
C297 C 0.22741 0.46706 0.84155 0.0
C298 C 0.797 0.18792 1.00646 0.0
C299 C 0.7698 0.19433 0.03987 0.0
H300 H 0.841 0.20535 0.91702 0.0
C301 C 0.76585 0.22326 1.00796 0.0
H302 H 0.80037 0.16559 0.02977 0.0
C303 C 0.78816 0.24512 0.94333 0.0
C304 C 0.81542 0.23901 0.90963 0.0
H305 H 0.74505 0.22886 0.03198 0.0
H306 H 0.78417 0.26714 0.92048 0.0
C307 C 0.81992 0.21037 0.94176 0.0
C308 C 0.61005 0.79673 0.17491 0.0
C309 C 0.577 0.76803 0.20751 0.0
H310 H 0.63502 0.84119 0.08615 0.0
C311 C 0.54346 0.76168 0.17425 0.0
H312 H 0.63629 0.80196 0.19931 0.0
C313 C 0.54278 0.78332 0.10931 0.0
C314 C 0.57561 0.81219 0.07669 0.0
H315 H 0.51752 0.73963 0.1976 0.0
H316 H 0.51627 0.77756 0.08548 0.0
C317 C 0.60935 0.81888 0.10991 0.0
C318 C 0.78372 0.54053 0.34621 0.0
C319 C 0.81241 0.57358 0.37838 0.0
H320 H 0.74036 0.5146 0.25758 0.0
C321 C 0.81895 0.60716 0.34423 0.0
H322 H 0.77805 0.51415 0.37079 0.0
C323 C 0.79687 0.60742 0.27845 0.0
C324 C 0.76845 0.5741 0.2461 0.0
H325 H 0.84116 0.633 0.36771 0.0
H326 H 0.80193 0.63349 0.25323 0.0
C327 C 0.76223 0.54077 0.28056 0.0
C328 C 0.1896 0.79565 0.4411 0.0
C329 C 0.19502 0.76776 0.40781 0.0
H330 H 0.20804 0.8399 0.53022 0.0
C331 C 0.22329 0.76281 0.43989 0.0
H332 H 0.16779 0.79982 0.4176 0.0
C333 C 0.24556 0.78498 0.50457 0.0
C334 C 0.2404 0.81295 0.538 0.0
H335 H 0.22803 0.74141 0.41588 0.0
H336 H 0.26713 0.78035 0.52768 0.0
C337 C 0.21235 0.81831 0.50571 0.0
C338 C 0.4007 0.21175 0.67692 0.0
C339 C 0.43391 0.23988 0.71036 0.0
H340 H 0.37522 0.1676 0.58756 0.0
C341 C 0.46732 0.24525 0.67845 0.0
H342 H 0.37457 0.20723 0.70028 0.0
C343 C 0.46768 0.22326 0.61365 0.0
C344 C 0.43463 0.19512 0.57996 0.0
H345 H 0.49337 0.26685 0.70264 0.0
H346 H 0.49401 0.22819 0.59057 0.0
C347 C 0.40107 0.18934 0.6122 0.0
C348 C 0.03956 0.3959 0.8422 0.0
C349 C 0.04163 0.39805 0.931 0.0
H350 H 0.00488 0.37618 0.73257 0.0
C351 C 0.00896 0.38138 0.97746 0.0
H352 H 0.06435 0.40821 0.80448 0.0
C353 C 0.97497 0.36373 0.93594 0.0
C354 C 0.9729 0.36154 0.84716 0.0
H355 H 0.00965 0.38247 0.04565 0.0
H356 H 0.95018 0.35142 0.97365 0.0
C357 C 0.00558 0.37745 0.80075 0.0
C358 C 0.60843 0.97117 0.10553 0.0
C359 C 0.60717 0.96864 0.01677 0.0
H360 H 0.62722 0.00642 0.21437 0.0
C361 C 0.62404 1.00113 0.96955 0.0
H362 H 0.59593 0.94656 0.1439 0.0
C363 C 0.64128 0.03537 0.0102 0.0
C364 C 0.64283 0.0379 0.09895 0.0
H365 H 0.62362 1.0001 0.90135 0.0
H366 H 0.65393 0.05998 0.97184 0.0
C367 C 0.62645 0.0054 0.14618 0.0
C368 C 0.64909 0.61458 0.27371 0.0
C369 C 0.64931 0.61257 0.18492 0.0
H370 H 0.63346 0.63378 0.38301 0.0
C371 C 0.63352 0.62931 0.13808 0.0
H372 H 0.66142 0.60223 0.31172 0.0
C373 C 0.6169 0.64671 0.17925 0.0
C374 C 0.61652 0.64856 0.26804 0.0
H375 H 0.63336 0.62832 0.06989 0.0
H376 H 0.60444 0.65896 0.14129 0.0
C377 C 0.63327 0.63278 0.31482 0.0
C378 C 0.03595 0.64184 0.43823 0.0
C379 C 0.03761 0.64412 0.34945 0.0
H380 H 1.00171 0.62333 0.54859 0.0
C381 C 0.00473 0.6286 0.30372 0.0
H382 H 0.06091 0.65388 0.47541 0.0
C383 C 0.97094 0.61046 0.34578 0.0
C384 C 0.96924 0.60826 0.43456 0.0
H385 H 0.00512 0.62998 0.23557 0.0
H386 H 0.94599 0.59848 0.30853 0.0
C387 C 1.00212 0.6245 0.48041 0.0
C388 C 0.38208 0.00559 0.47026 0.0
C389 C 0.39959 0.03837 0.51654 0.0
H390 H 0.35184 0.94676 0.47438 0.0
C391 C 0.39895 0.03646 0.60535 0.0
H392 H 0.38202 0.00618 0.40205 0.0
C393 C 0.38093 1.00253 0.64703 0.0
C394 C 0.36405 0.96975 0.60072 0.0
H395 H 0.41195 0.06134 0.64293 0.0
H396 H 0.38066 1.00194 0.71525 0.0
C397 C 0.36493 0.97164 0.51192 0.0
C398 C 0.36221 0.39347 0.77072 0.0
C399 C 0.36249 0.39555 0.68194 0.0
H400 H 0.37762 0.37459 0.88081 0.0
C401 C 0.37911 0.3794 0.63589 0.0
H402 H 0.34927 0.40538 0.80812 0.0
C403 C 0.39602 0.36247 0.67792 0.0
C404 C 0.39583 0.36051 0.76674 0.0
H405 H 0.37969 0.38049 0.5677 0.0
H406 H 0.40906 0.35062 0.64064 0.0
C407 C 0.3783 0.37575 0.81263 0.0
loop_
_geom_bond_atom_site_label_1
_geom_bond_atom_site_label_2
_geom_bond_distance
_geom_bond_site_symmetry_2
_ccdc_geom_bond_type
Co0 O1 2.216 1_554 S
Co0 O2 2.091 . S
Co0 O4 2.004 . S
Co0 O10 2.021 . S
Co0 O12 2.137 1_554 S
Co0 O13 2.244 1_554 S
O1 Co0 2.216 1_556 S
O1 C8 1.247 . S
O2 Co0 2.091 . S
O2 C8 1.261 1_554 S
C3 O12 1.247 . S
C3 O13 1.272 . S
O4 Co0 2.004 . S
O4 C9 1.259 . S
Co5 O6 2.061 . S
Co5 O11 2.052 . S
Co5 O13 2.135 1_554 S
O6 Co5 2.061 . S
O6 C9 1.235 . S
C7 O10 1.238 . S
C7 O11 1.241 . S
C8 O1 1.247 . S
C8 O2 1.261 1_556 S
C9 O4 1.259 . S
C9 O6 1.235 . S
O10 Co0 2.021 . S
O10 C7 1.238 . S
O11 Co5 2.052 . S
O11 C7 1.241 . S
O12 Co0 2.137 1_556 S
O12 C3 1.247 . S
O13 Co0 2.244 1_556 S
O13 C3 1.272 . S
O13 Co5 2.135 1_556 S
Co14 O15 2.216 . S
Co14 O16 2.091 . S
Co14 O18 2.004 . S
Co14 O24 2.021 . S
Co14 O26 2.137 . S
Co14 O27 2.244 . S
O15 Co14 2.216 . S
O15 C22 1.247 . S
O16 Co14 2.091 . S
O16 C22 1.261 . S
C17 O26 1.247 . S
C17 O27 1.272 . S
O18 Co14 2.004 . S
O18 C23 1.259 . S
Co19 O20 2.061 . S
Co19 O25 2.052 . S
Co19 O27 2.135 . S
O20 Co19 2.061 . S
O20 C23 1.235 . S
C21 O24 1.238 . S
C21 O25 1.241 . S
C22 O15 1.247 . S
C22 O16 1.261 . S
C23 O18 1.259 . S
C23 O20 1.235 . S
O24 Co14 2.021 . S
O24 C21 1.238 . S
O25 Co19 2.052 . S
O25 C21 1.241 . S
O26 Co14 2.137 . S
O26 C17 1.247 . S
O27 Co14 2.244 . S
O27 C17 1.272 . S
O27 Co19 2.135 . S
Co28 O29 2.216 . S
Co28 O30 2.091 . S
Co28 O32 2.004 . S
Co28 O38 2.021 . S
Co28 O40 2.137 . S
Co28 O41 2.244 . S
O29 Co28 2.216 . S
O29 C36 1.247 . S
O30 Co28 2.091 . S
O30 C36 1.261 . S
C31 O40 1.247 . S
C31 O41 1.272 . S
O32 Co28 2.004 . S
O32 C37 1.259 . S
Co33 O34 2.061 . S
Co33 O39 2.052 . S
Co33 O41 2.135 . S
O34 Co33 2.061 . S
O34 C37 1.235 . S
C35 O38 1.238 . S
C35 O39 1.241 . S
C36 O29 1.247 . S
C36 O30 1.261 . S
C37 O32 1.259 . S
C37 O34 1.235 . S
O38 Co28 2.021 . S
O38 C35 1.238 . S
O39 Co33 2.052 . S
O39 C35 1.241 . S
O40 Co28 2.137 . S
O40 C31 1.247 . S
O41 Co28 2.244 . S
O41 C31 1.272 . S
O41 Co33 2.135 . S
Co42 O43 2.216 . S
Co42 O44 2.091 . S
Co42 O46 2.004 . S
Co42 O52 2.021 . S
Co42 O54 2.137 . S
Co42 O55 2.244 . S
O43 Co42 2.216 . S
O43 C50 1.247 . S
O44 Co42 2.091 . S
O44 C50 1.261 . S
C45 O54 1.247 . S
C45 O55 1.272 . S
O46 Co42 2.004 . S
O46 C51 1.259 . S
Co47 O48 2.061 . S
Co47 O53 2.052 . S
Co47 O55 2.135 . S
O48 Co47 2.061 . S
O48 C51 1.235 . S
C49 O52 1.238 . S
C49 O53 1.241 . S
C50 O43 1.247 . S
C50 O44 1.261 . S
C51 O46 1.259 . S
C51 O48 1.235 . S
O52 Co42 2.021 . S
O52 C49 1.238 . S
O53 Co47 2.052 . S
O53 C49 1.241 . S
O54 Co42 2.137 . S
O54 C45 1.247 . S
O55 Co42 2.244 . S
O55 C45 1.272 . S
O55 Co47 2.135 . S
Co56 O57 2.216 . S
Co56 O58 2.091 . S
Co56 O60 2.004 . S
Co56 O66 2.021 . S
Co56 O68 2.137 . S
Co56 O69 2.244 . S
O57 Co56 2.216 . S
O57 C64 1.247 . S
O58 Co56 2.091 . S
O58 C64 1.261 . S
C59 O68 1.247 . S
C59 O69 1.272 . S
O60 Co56 2.004 . S
O60 C65 1.259 . S
Co61 O62 2.061 . S
Co61 O67 2.052 . S
Co61 O69 2.135 . S
O62 Co61 2.061 . S
O62 C65 1.235 . S
C63 O66 1.238 . S
C63 O67 1.241 . S
C64 O57 1.247 . S
C64 O58 1.261 . S
C65 O60 1.259 . S
C65 O62 1.235 . S
O66 Co56 2.021 . S
O66 C63 1.238 . S
O67 Co61 2.052 . S
O67 C63 1.241 . S
O68 Co56 2.137 . S
O68 C59 1.247 . S
O69 Co56 2.244 . S
O69 C59 1.272 . S
O69 Co61 2.135 . S
Co70 O71 2.216 . S
Co70 O72 2.091 . S
Co70 O74 2.004 . S
Co70 O80 2.021 . S
Co70 O82 2.137 . S
Co70 O83 2.244 . S
O71 Co70 2.216 . S
O71 C78 1.247 . S
O72 Co70 2.091 . S
O72 C78 1.261 . S
C73 O82 1.247 . S
C73 O83 1.272 . S
O74 Co70 2.004 . S
O74 C79 1.259 1_556 S
Co75 O76 2.061 . S
Co75 O81 2.052 . S
Co75 O83 2.135 . S
O76 Co75 2.061 . S
O76 C79 1.235 1_556 S
C77 O80 1.238 . S
C77 O81 1.241 . S
C78 O71 1.247 . S
C78 O72 1.261 . S
C79 O74 1.259 1_554 S
C79 O76 1.235 1_554 S
O80 Co70 2.021 . S
O80 C77 1.238 . S
O81 Co75 2.052 . S
O81 C77 1.241 . S
O82 Co70 2.137 . S
O82 C73 1.247 . S
O83 Co70 2.244 . S
O83 C73 1.272 . S
O83 Co75 2.135 . S
Co84 O85 2.216 . S
Co84 O86 2.091 . S
Co84 O88 2.004 . S
Co84 O94 2.021 . S
Co84 O96 2.137 . S
Co84 O97 2.244 . S
O85 Co84 2.216 . S
O85 C92 1.247 . S
O86 Co84 2.091 . S
O86 C92 1.261 . S
C87 O96 1.247 1_554 S
C87 O97 1.272 1_554 S
O88 Co84 2.004 . S
O88 C93 1.259 . S
Co89 O90 2.061 . S
Co89 O95 2.052 . S
Co89 O97 2.135 . S
O90 Co89 2.061 . S
O90 C93 1.235 . S
C91 O94 1.238 . S
C91 O95 1.241 . S
C92 O85 1.247 . S
C92 O86 1.261 . S
C93 O88 1.259 . S
C93 O90 1.235 . S
O94 Co84 2.021 . S
O94 C91 1.238 . S
O95 Co89 2.052 . S
O95 C91 1.241 . S
O96 Co84 2.137 . S
O96 C87 1.247 1_556 S
O97 Co84 2.244 . S
O97 C87 1.272 1_556 S
O97 Co89 2.135 . S
Co98 O99 2.216 . S
Co98 O100 2.091 . S
Co98 O102 2.004 1_554 S
Co98 O108 2.021 . S
Co98 O110 2.137 . S
Co98 O111 2.244 . S
O99 Co98 2.216 . S
O99 C106 1.247 . S
O100 Co98 2.091 . S
O100 C106 1.261 . S
C101 O110 1.247 . S
C101 O111 1.272 . S
O102 Co98 2.004 1_556 S
O102 C107 1.259 . S
Co103 O104 2.061 1_554 S
Co103 O109 2.052 . S
Co103 O111 2.135 . S
O104 Co103 2.061 1_556 S
O104 C107 1.235 . S
C105 O108 1.238 . S
C105 O109 1.241 . S
C106 O99 1.247 . S
C106 O100 1.261 . S
C107 O102 1.259 . S
C107 O104 1.235 . S
O108 Co98 2.021 . S
O108 C105 1.238 . S
O109 Co103 2.052 . S
O109 C105 1.241 . S
O110 Co98 2.137 . S
O110 C101 1.247 . S
O111 Co98 2.244 . S
O111 C101 1.272 . S
O111 Co103 2.135 . S
Co112 O113 2.216 . S
Co112 O114 2.091 . S
Co112 O116 2.004 . S
Co112 O122 2.021 . S
Co112 O124 2.137 . S
Co112 O125 2.244 . S
O113 Co112 2.216 . S
O113 C120 1.247 . S
O114 Co112 2.091 . S
O114 C120 1.261 . S
C115 O124 1.247 . S
C115 O125 1.272 . S
O116 Co112 2.004 . S
O116 C121 1.259 . S
Co117 O118 2.061 . S
Co117 O123 2.052 . S
Co117 O125 2.135 . S
O118 Co117 2.061 . S
O118 C121 1.235 . S
C119 O122 1.238 . S
C119 O123 1.241 . S
C120 O113 1.247 . S
C120 O114 1.261 . S
C121 O116 1.259 . S
C121 O118 1.235 . S
O122 Co112 2.021 . S
O122 C119 1.238 . S
O123 Co117 2.052 . S
O123 C119 1.241 . S
O124 Co112 2.137 . S
O124 C115 1.247 . S
O125 Co112 2.244 . S
O125 C115 1.272 . S
O125 Co117 2.135 . S
Co126 O127 2.216 . S
Co126 O128 2.091 . S
Co126 O130 2.004 . S
Co126 O136 2.021 . S
Co126 O138 2.137 . S
Co126 O139 2.244 . S
O127 Co126 2.216 . S
O127 C134 1.247 . S
O128 Co126 2.091 . S
O128 C134 1.261 . S
C129 O138 1.247 . S
C129 O139 1.272 . S
O130 Co126 2.004 . S
O130 C135 1.259 . S
Co131 O132 2.061 . S
Co131 O137 2.052 . S
Co131 O139 2.135 . S
O132 Co131 2.061 . S
O132 C135 1.235 . S
C133 O136 1.238 . S
C133 O137 1.241 . S
C134 O127 1.247 . S
C134 O128 1.261 . S
C135 O130 1.259 . S
C135 O132 1.235 . S
O136 Co126 2.021 . S
O136 C133 1.238 . S
O137 Co131 2.052 . S
O137 C133 1.241 . S
O138 Co126 2.137 . S
O138 C129 1.247 . S
O139 Co126 2.244 . S
O139 C129 1.272 . S
O139 Co131 2.135 . S
Co140 O141 2.216 . S
Co140 O142 2.091 . S
Co140 O144 2.004 . S
Co140 O150 2.021 . S
Co140 O152 2.137 . S
Co140 O153 2.244 . S
O141 Co140 2.216 . S
O141 C148 1.247 . S
O142 Co140 2.091 . S
O142 C148 1.261 . S
C143 O152 1.247 . S
C143 O153 1.272 . S
O144 Co140 2.004 . S
O144 C149 1.259 . S
Co145 O146 2.061 . S
Co145 O151 2.052 . S
Co145 O153 2.135 . S
O146 Co145 2.061 . S
O146 C149 1.235 . S
C147 O150 1.238 . S
C147 O151 1.241 . S
C148 O141 1.247 . S
C148 O142 1.261 . S
C149 O144 1.259 . S
C149 O146 1.235 . S
O150 Co140 2.021 . S
O150 C147 1.238 . S
O151 Co145 2.052 . S
O151 C147 1.241 . S
O152 Co140 2.137 . S
O152 C143 1.247 . S
O153 Co140 2.244 . S
O153 C143 1.272 . S
O153 Co145 2.135 . S
Co154 O155 2.216 . S
Co154 O156 2.091 . S
Co154 O158 2.004 . S
Co154 O164 2.021 . S
Co154 O166 2.137 . S
Co154 O167 2.244 . S
O155 Co154 2.216 . S
O155 C162 1.247 . S
O156 Co154 2.091 . S
O156 C162 1.261 . S
C157 O166 1.247 . S
C157 O167 1.272 . S
O158 Co154 2.004 . S
O158 C163 1.259 . S
Co159 O160 2.061 . S
Co159 O165 2.052 . S
Co159 O167 2.135 . S
O160 Co159 2.061 . S
O160 C163 1.235 . S
C161 O164 1.238 . S
C161 O165 1.241 . S
C162 O155 1.247 . S
C162 O156 1.261 . S
C163 O158 1.259 . S
C163 O160 1.235 . S
O164 Co154 2.021 . S
O164 C161 1.238 . S
O165 Co159 2.052 . S
O165 C161 1.241 . S
O166 Co154 2.137 . S
O166 C157 1.247 . S
O167 Co154 2.244 . S
O167 C157 1.272 . S
O167 Co159 2.135 . S
C168 C169 1.387 . S
C168 H172 0.950 . S
C168 C177 1.390 . S
C169 C168 1.387 . S
C169 C171 1.387 . S
H170 C177 0.950 . S
C171 C169 1.387 . S
C171 C173 1.390 . S
C171 H175 0.950 . S
H172 C168 0.950 . S
C173 C171 1.390 . S
C173 C174 1.387 . S
C173 H176 0.950 . S
C174 C173 1.387 . S
C174 C177 1.387 . S
H175 C171 0.950 . S
H176 C173 0.950 . S
C177 C168 1.390 . S
C177 H170 0.950 . S
C177 C174 1.387 . S
C178 C179 1.387 . S
C178 H182 0.950 . S
C178 C187 1.390 . S
C179 C178 1.387 . S
C179 C181 1.387 . S
H180 C187 0.950 . S
C181 C179 1.387 . S
C181 C183 1.390 . S
C181 H185 0.950 . S
H182 C178 0.950 . S
C183 C181 1.390 . S
C183 C184 1.387 . S
C183 H186 0.950 . S
C184 C183 1.387 . S
C184 C187 1.387 . S
H185 C181 0.950 . S
H186 C183 0.950 . S
C187 C178 1.390 . S
C187 H180 0.950 . S
C187 C184 1.387 . S
C188 C189 1.387 . S
C188 H192 0.950 . S
C188 C197 1.390 . S
C189 C188 1.387 . S
C189 C191 1.387 . S
H190 C197 0.950 . S
C191 C189 1.387 . S
C191 C193 1.390 . S
C191 H195 0.950 . S
H192 C188 0.950 . S
C193 C191 1.390 . S
C193 C194 1.387 . S
C193 H196 0.950 . S
C194 C193 1.387 . S
C194 C197 1.387 . S
H195 C191 0.950 . S
H196 C193 0.950 . S
C197 C188 1.390 . S
C197 H190 0.950 . S
C197 C194 1.387 . S
C198 C199 1.387 . S
C198 H202 0.950 . S
C198 C207 1.390 . S
C199 C198 1.387 . S
C199 C201 1.387 . S
H200 C207 0.950 . S
C201 C199 1.387 . S
C201 C203 1.390 . S
C201 H205 0.950 . S
H202 C198 0.950 . S
C203 C201 1.390 . S
C203 C204 1.387 . S
C203 H206 0.950 . S
C204 C203 1.387 . S
C204 C207 1.387 . S
H205 C201 0.950 . S
H206 C203 0.950 . S
C207 C198 1.390 . S
C207 H200 0.950 . S
C207 C204 1.387 . S
C208 C209 1.387 . S
C208 H212 0.950 . S
C208 C217 1.390 . S
C209 C208 1.387 . S
C209 C211 1.387 . S
H210 C217 0.950 . S
C211 C209 1.387 . S
C211 C213 1.390 1_556 S
C211 H215 0.950 . S
H212 C208 0.950 . S
C213 C211 1.390 1_554 S
C213 C214 1.387 . S
C213 H216 0.950 . S
C214 C213 1.387 . S
C214 C217 1.387 1_554 S
H215 C211 0.950 . S
H216 C213 0.950 . S
C217 C208 1.390 . S
C217 H210 0.950 . S
C217 C214 1.387 1_556 S
C218 C219 1.387 . S
C218 H222 0.950 . S
C218 C227 1.390 . S
C219 C218 1.387 . S
C219 C221 1.387 . S
H220 C227 0.950 . S
C221 C219 1.387 . S
C221 C223 1.390 . S
C221 H225 0.950 . S
H222 C218 0.950 . S
C223 C221 1.390 . S
C223 C224 1.387 . S
C223 H226 0.950 . S
C224 C223 1.387 . S
C224 C227 1.387 . S
H225 C221 0.950 . S
H226 C223 0.950 . S
C227 C218 1.390 . S
C227 H220 0.950 . S
C227 C224 1.387 . S
C228 C229 1.387 . S
C228 H232 0.950 . S
C228 C237 1.390 . S
C229 C228 1.387 . S
C229 C231 1.387 . S
H230 C237 0.950 . S
C231 C229 1.387 . S
C231 C233 1.390 . S
C231 H235 0.950 1_554 S
H232 C228 0.950 . S
C233 C231 1.390 . S
C233 C234 1.387 . S
C233 H236 0.950 . S
C234 C233 1.387 . S
C234 C237 1.387 . S
H235 C231 0.950 1_556 S
H236 C233 0.950 . S
C237 C228 1.390 . S
C237 H230 0.950 . S
C237 C234 1.387 . S
C238 C239 1.387 . S
C238 H242 0.950 . S
C238 C247 1.390 . S
C239 C238 1.387 . S
C239 C241 1.387 . S
H240 C247 0.950 . S
C241 C239 1.387 . S
C241 C243 1.390 . S
C241 H245 0.950 . S
H242 C238 0.950 . S
C243 C241 1.390 . S
C243 C244 1.387 . S
C243 H246 0.950 . S
C244 C243 1.387 . S
C244 C247 1.387 . S
H245 C241 0.950 . S
H246 C243 0.950 . S
C247 C238 1.390 . S
C247 H240 0.950 . S
C247 C244 1.387 . S
C248 C249 1.387 . S
C248 H252 0.950 . S
C248 C257 1.390 . S
C249 C248 1.387 . S
C249 C251 1.387 . S
H250 C257 0.950 . S
C251 C249 1.387 . S
C251 C253 1.390 . S
C251 H255 0.950 . S
H252 C248 0.950 . S
C253 C251 1.390 . S
C253 C254 1.387 . S
C253 H256 0.950 . S
C254 C253 1.387 . S
C254 C257 1.387 . S
H255 C251 0.950 . S
H256 C253 0.950 . S
C257 C248 1.390 . S
C257 H250 0.950 . S
C257 C254 1.387 . S
C258 C259 1.387 . S
C258 H262 0.950 . S
C258 C267 1.390 . S
C259 C258 1.387 . S
C259 C261 1.387 . S
H260 C267 0.950 . S
C261 C259 1.387 . S
C261 C263 1.390 . S
C261 H265 0.950 . S
H262 C258 0.950 . S
C263 C261 1.390 . S
C263 C264 1.387 . S
C263 H266 0.950 . S
C264 C263 1.387 . S
C264 C267 1.387 . S
H265 C261 0.950 . S
H266 C263 0.950 . S
C267 C258 1.390 . S
C267 H260 0.950 . S
C267 C264 1.387 . S
C268 C269 1.387 . S
C268 H272 0.950 . S
C268 C277 1.390 . S
C269 C268 1.387 . S
C269 C271 1.387 . S
H270 C277 0.950 . S
C271 C269 1.387 . S
C271 C273 1.390 . S
C271 H275 0.950 . S
H272 C268 0.950 . S
C273 C271 1.390 . S
C273 C274 1.387 . S
C273 H276 0.950 . S
C274 C273 1.387 . S
C274 C277 1.387 . S
H275 C271 0.950 . S
H276 C273 0.950 . S
C277 C268 1.390 . S
C277 H270 0.950 . S
C277 C274 1.387 . S
C278 C279 1.387 1_554 S
C278 H282 0.950 . S
C278 C287 1.390 . S
C279 C278 1.387 1_556 S
C279 C281 1.387 . S
H280 C287 0.950 . S
C281 C279 1.387 . S
C281 C283 1.390 . S
C281 H285 0.950 . S
H282 C278 0.950 . S
C283 C281 1.390 . S
C283 C284 1.387 . S
C283 H286 0.950 . S
C284 C283 1.387 . S
C284 C287 1.387 1_556 S
H285 C281 0.950 . S
H286 C283 0.950 . S
C287 C278 1.390 . S
C287 H280 0.950 . S
C287 C284 1.387 1_554 S
C288 C289 1.387 . S
C288 H292 0.950 . S
C288 C297 1.390 . S
C289 C288 1.387 . S
C289 C291 1.387 . S
H290 C297 0.950 . S
C291 C289 1.387 . S
C291 C293 1.390 . S
C291 H295 0.950 . S
H292 C288 0.950 . S
C293 C291 1.390 . S
C293 C294 1.387 . S
C293 H296 0.950 . S
C294 C293 1.387 . S
C294 C297 1.387 . S
H295 C291 0.950 . S
H296 C293 0.950 . S
C297 C288 1.390 . S
C297 H290 0.950 . S
C297 C294 1.387 . S
C298 C299 1.387 . S
C298 H302 0.950 . S
C298 C307 1.390 1_554 S
C299 C298 1.387 . S
C299 C301 1.387 1_554 S
H300 C307 0.950 . S
C301 C299 1.387 1_556 S
C301 C303 1.390 . S
C301 H305 0.950 . S
H302 C298 0.950 . S
C303 C301 1.390 . S
C303 C304 1.387 . S
C303 H306 0.950 . S
C304 C303 1.387 . S
C304 C307 1.387 . S
H305 C301 0.950 . S
H306 C303 0.950 . S
C307 C298 1.390 1_556 S
C307 H300 0.950 . S
C307 C304 1.387 . S
C308 C309 1.387 . S
C308 H312 0.950 . S
C308 C317 1.390 . S
C309 C308 1.387 . S
C309 C311 1.387 . S
H310 C317 0.950 . S
C311 C309 1.387 . S
C311 C313 1.390 . S
C311 H315 0.950 . S
H312 C308 0.950 . S
C313 C311 1.390 . S
C313 C314 1.387 . S
C313 H316 0.950 . S
C314 C313 1.387 . S
C314 C317 1.387 . S
H315 C311 0.950 . S
H316 C313 0.950 . S
C317 C308 1.390 . S
C317 H310 0.950 . S
C317 C314 1.387 . S
C318 C319 1.387 . S
C318 H322 0.950 . S
C318 C327 1.390 . S
C319 C318 1.387 . S
C319 C321 1.387 . S
H320 C327 0.950 . S
C321 C319 1.387 . S
C321 C323 1.390 . S
C321 H325 0.950 . S
H322 C318 0.950 . S
C323 C321 1.390 . S
C323 C324 1.387 . S
C323 H326 0.950 . S
C324 C323 1.387 . S
C324 C327 1.387 . S
H325 C321 0.950 . S
H326 C323 0.950 . S
C327 C318 1.390 . S
C327 H320 0.950 . S
C327 C324 1.387 . S
C328 C329 1.387 . S
C328 H332 0.950 . S
C328 C337 1.390 . S
C329 C328 1.387 . S
C329 C331 1.387 . S
H330 C337 0.950 . S
C331 C329 1.387 . S
C331 C333 1.390 . S
C331 H335 0.950 . S
H332 C328 0.950 . S
C333 C331 1.390 . S
C333 C334 1.387 . S
C333 H336 0.950 . S
C334 C333 1.387 . S
C334 C337 1.387 . S
H335 C331 0.950 . S
H336 C333 0.950 . S
C337 C328 1.390 . S
C337 H330 0.950 . S
C337 C334 1.387 . S
C338 C339 1.387 . S
C338 H342 0.950 . S
C338 C347 1.390 . S
C339 C338 1.387 . S
C339 C341 1.387 . S
H340 C347 0.950 . S
C341 C339 1.387 . S
C341 C343 1.390 . S
C341 H345 0.950 . S
H342 C338 0.950 . S
C343 C341 1.390 . S
C343 C344 1.387 . S
C343 H346 0.950 . S
C344 C343 1.387 . S
C344 C347 1.387 . S
H345 C341 0.950 . S
H346 C343 0.950 . S
C347 C338 1.390 . S
C347 H340 0.950 . S
C347 C344 1.387 . S
C348 C349 1.387 . S
C348 H352 0.950 . S
C348 C357 1.390 1_455 S
C349 C348 1.387 . S
C349 C351 1.387 . S
H350 C357 0.950 . S
C351 C349 1.387 . S
C351 C353 1.390 1_455 S
C351 H355 0.950 . S
H352 C348 0.950 . S
C353 C351 1.390 1_655 S
C353 C354 1.387 . S
C353 H356 0.950 . S
C354 C353 1.387 . S
C354 C357 1.387 . S
H355 C351 0.950 . S
H356 C353 0.950 . S
C357 C348 1.390 1_655 S
C357 H350 0.950 . S
C357 C354 1.387 . S
C358 C359 1.387 1_554 S
C358 H362 0.950 . S
C358 C367 1.390 1_565 S
C359 C358 1.387 1_556 S
C359 C361 1.387 1_556 S
H360 C367 0.950 . S
C361 C359 1.387 1_554 S
C361 C363 1.390 1_565 S
C361 H365 0.950 . S
H362 C358 0.950 . S
C363 C361 1.390 1_545 S
C363 C364 1.387 . S
C363 H366 0.950 . S
C364 C363 1.387 . S
C364 C367 1.387 . S
H365 C361 0.950 . S
H366 C363 0.950 . S
C367 C358 1.390 1_545 S
C367 H360 0.950 . S
C367 C364 1.387 . S
C368 C369 1.387 . S
C368 H372 0.950 . S
C368 C377 1.390 . S
C369 C368 1.387 . S
C369 C371 1.387 . S
H370 C377 0.950 . S
C371 C369 1.387 . S
C371 C373 1.390 . S
C371 H375 0.950 . S
H372 C368 0.950 . S
C373 C371 1.390 . S
C373 C374 1.387 . S
C373 H376 0.950 . S
C374 C373 1.387 . S
C374 C377 1.387 . S
H375 C371 0.950 . S
H376 C373 0.950 . S
C377 C368 1.390 . S
C377 H370 0.950 . S
C377 C374 1.387 . S
C378 C379 1.387 . S
C378 H382 0.950 . S
C378 C387 1.378 1_455 S
C379 C378 1.387 . S
C379 C381 1.395 . S
H380 C387 0.945 . S
C381 C379 1.395 . S
C381 C383 1.377 1_455 S
C381 H385 0.945 . S
H382 C378 0.950 . S
C383 C381 1.377 1_655 S
C383 C384 1.387 . S
C383 H386 0.950 . S
C384 C383 1.387 . S
C384 C387 1.395 . S
H385 C381 0.945 . S
H386 C383 0.950 . S
C387 C378 1.378 1_655 S
C387 H380 0.945 . S
C387 C384 1.395 . S
C388 C389 1.387 . S
C388 H392 0.950 . S
C388 C397 1.390 1_545 S
C389 C388 1.387 . S
C389 C391 1.387 . S
H390 C397 0.950 . S
C391 C389 1.387 . S
C391 C393 1.390 1_545 S
C391 H395 0.950 . S
H392 C388 0.950 . S
C393 C391 1.390 1_565 S
C393 C394 1.387 . S
C393 H396 0.950 . S
C394 C393 1.387 . S
C394 C397 1.387 . S
H395 C391 0.950 . S
H396 C393 0.950 . S
C397 C388 1.390 1_565 S
C397 H390 0.950 . S
C397 C394 1.387 . S
C398 C399 1.387 . S
C398 H402 0.950 . S
C398 C407 1.390 . S
C399 C398 1.387 . S
C399 C401 1.387 . S
H400 C407 0.950 . S
C401 C399 1.387 . S
C401 C403 1.390 . S
C401 H405 0.950 . S
H402 C398 0.950 . S
C403 C401 1.390 . S
C403 C404 1.387 . S
C403 H406 0.950 . S
C404 C403 1.387 . S
C404 C407 1.387 . S
H405 C401 0.950 . S
H406 C403 0.950 . S
C407 C398 1.390 . S
C407 H400 0.950 . S
C407 C404 1.387 . S
C169 C9 1.431 . S
C174 C149 1.431 . S
C179 C163 1.429 . S
C184 C23 1.428 . S
C189 C37 1.430 . S
C194 C93 1.431 . S
C199 C51 1.431 . S
C204 C107 1.431 . S
C209 C65 1.430 . S
C214 C121 1.428 . S
C219 C135 1.431 . S
C224 C79 1.430 . S
C229 C7 1.551 . S
C234 C119 1.549 . S
C239 C21 1.550 . S
C244 C133 1.550 . S
C249 C147 1.551 . S
C254 C35 1.549 . S
C259 C49 1.549 . S
C264 C161 1.551 . S
C269 C63 1.550 . S
C274 C91 1.550 . S
C279 C77 1.551 . S
C284 C105 1.549 1_556 S
C289 C143 1.443 . S
C294 C3 1.443 . S
C299 C17 1.443 . S
C304 C157 1.443 . S
C309 C31 1.443 . S
C314 C87 1.443 . S
C319 C45 1.443 . S
C324 C101 1.443 . S
C329 C115 1.443 . S
C334 C59 1.443 . S
C339 C73 1.443 . S
C344 C129 1.443 . S
C349 C8 1.438 . S
C354 C162 1.438 . S
C359 C92 1.439 . S
C364 C22 1.438 . S
C369 C106 1.438 . S
C374 C36 1.438 . S
C379 C120 1.437 . S
C384 C50 1.437 . S
C389 C134 1.437 . S
C394 C64 1.437 . S
C399 C148 1.438 . S
C404 C78 1.438 . S
