# Generated by pormake.
# Topology wmb, (6)-cn, num edge types: 1
# Building blocks:
#     Node 0, Type 0, BuildingBlock: IZENUY_clean_sbu_0, # of connection points: 6
#     Node 1, Type 0, BuildingBlock: IZENUY_clean_sbu_0, # of connection points: 6
#     Node 2, Type 0, BuildingBlock: IZENUY_clean_sbu_0, # of connection points: 6
#     Node 3, Type 0, BuildingBlock: IZENUY_clean_sbu_0, # of connection points: 6
#     Node 4, Type 0, BuildingBlock: IZENUY_clean_sbu_0, # of connection points: 6
#     Node 5, Type 0, BuildingBlock: IZENUY_clean_sbu_0, # of connection points: 6
#     Edge 6, Type (0, 0), BuildingBlock: FUNLAD_clean_linker_0, # of connection points: 2
#     Edge 7, Type (0, 0), BuildingBlock: FUNLAD_clean_linker_0, # of connection points: 2
#     Edge 8, Type (0, 0), BuildingBlock: FUNLAD_clean_linker_0, # of connection points: 2
#     Edge 9, Type (0, 0), BuildingBlock: FUNLAD_clean_linker_0, # of connection points: 2
#     Edge 10, Type (0, 0), BuildingBlock: FUNLAD_clean_linker_0, # of connection points: 2
#     Edge 11, Type (0, 0), BuildingBlock: FUNLAD_clean_linker_0, # of connection points: 2
#     Edge 12, Type (0, 0), BuildingBlock: FUNLAD_clean_linker_0, # of connection points: 2
#     Edge 13, Type (0, 0), BuildingBlock: FUNLAD_clean_linker_0, # of connection points: 2
#     Edge 14, Type (0, 0), BuildingBlock: FUNLAD_clean_linker_0, # of connection points: 2
#     Edge 15, Type (0, 0), BuildingBlock: FUNLAD_clean_linker_0, # of connection points: 2
#     Edge 16, Type (0, 0), BuildingBlock: FUNLAD_clean_linker_0, # of connection points: 2
#     Edge 17, Type (0, 0), BuildingBlock: FUNLAD_clean_linker_0, # of connection points: 2
#     Edge 18, Type (0, 0), BuildingBlock: FUNLAD_clean_linker_0, # of connection points: 2
#     Edge 19, Type (0, 0), BuildingBlock: FUNLAD_clean_linker_0, # of connection points: 2
#     Edge 20, Type (0, 0), BuildingBlock: FUNLAD_clean_linker_0, # of connection points: 2
#     Edge 21, Type (0, 0), BuildingBlock: FUNLAD_clean_linker_0, # of connection points: 2
#     Edge 22, Type (0, 0), BuildingBlock: FUNLAD_clean_linker_0, # of connection points: 2
#     Edge 23, Type (0, 0), BuildingBlock: FUNLAD_clean_linker_0, # of connection points: 2
# Relax obj value: 0.258
# Max RMSD: 0.258
# Mean RMSD: 0.258
data_MOF--net-wmb--node1-IZENUY_clean_sbu_0--edge1-FUNLAD_clean_linker_0
_symmetry_space_group_name_H-M    P1
_symmetry_Int_Tables_number       1
_symmetry_cell_setting            triclinic
loop_
_symmetry_equiv_pos_as_xyz
'x, y, z'
_cell_length_a     31.095443
_cell_length_b     31.15995
_cell_length_c     48.742592
_cell_angle_alpha  90.268305
_cell_angle_beta   89.455349
_cell_angle_gamma 120.1892
loop_
_atom_site_label
_atom_site_type_symbol
_atom_site_fract_x
_atom_site_fract_y
_atom_site_fract_z
_atom_type_partial_charge
Fe0 Fe 0.48705 0.17761 0.03919 0.0
Fe1 Fe 0.56675 0.16853 0.00621 0.0
O2 O 0.54225 0.20546 0.01888 0.0
Fe3 Fe 0.57325 0.27002 0.01156 0.0
O4 O 0.5583 0.28784 0.04476 0.0
O5 O 0.51918 0.21782 0.06789 0.0
O6 O 0.49968 0.13207 0.05506 0.0
C7 C 0.5404 0.13304 0.05857 0.0
C8 C 0.47668 0.24854 0.00743 0.0
O9 O 0.57477 0.15194 0.04079 0.0
C10 C 0.57975 0.2263 0.96137 0.0
O11 O 0.45085 0.13445 0.01194 0.0
O12 O 0.50621 0.1121 0.0028 0.0
O13 O 0.51839 0.26521 0.99567 0.0
O14 O 0.46475 0.21889 0.02747 0.0
C15 C 0.65407 0.25868 0.01984 0.0
O16 O 0.56038 0.18284 0.97095 0.0
O17 O 0.59375 0.26343 0.97712 0.0
C18 C 0.46258 0.10501 0.00078 0.0
O19 O 0.63212 0.21795 0.00702 0.0
O20 O 0.6309 0.28058 0.02691 0.0
C21 C 0.54406 0.26459 0.0673 0.0
Fe22 Fe 0.85852 0.4031 0.67517 0.0
Fe23 Fe 0.75674 0.30805 0.67141 0.0
O24 O 0.81796 0.34057 0.6847 0.0
Fe25 Fe 0.83807 0.31078 0.70784 0.0
O26 O 0.85008 0.35623 0.73421 0.0
O27 O 0.89069 0.4223 0.70829 0.0
O28 O 0.81609 0.4221 0.68849 0.0
C29 C 0.77255 0.40524 0.67976 0.0
C30 C 0.92427 0.3696 0.67473 0.0
O31 O 0.75003 0.36323 0.66812 0.0
C32 C 0.78432 0.23353 0.67348 0.0
O33 O 0.83382 0.3951 0.64033 0.0
O34 O 0.78011 0.31513 0.63644 0.0
O35 O 0.90348 0.3442 0.6961 0.0
O36 O 0.90383 0.38873 0.66122 0.0
C37 C 0.74006 0.28012 0.72538 0.0
O38 O 0.75188 0.2467 0.67221 0.0
O39 O 0.82672 0.26239 0.68329 0.0
C40 C 0.80904 0.35685 0.6256 0.0
O41 O 0.72999 0.29963 0.70564 0.0
O42 O 0.77671 0.27298 0.72396 0.0
C43 C 0.87823 0.40239 0.73177 0.0
Fe44 Fe 0.71168 0.54646 0.37392 0.0
Fe45 Fe 0.61876 0.46459 0.34536 0.0
O46 O 0.68163 0.48941 0.35551 0.0
Fe47 Fe 0.71357 0.45688 0.34787 0.0
O48 O 0.74783 0.4729 0.38026 0.0
O49 O 0.72165 0.51682 0.40305 0.0
O50 O 0.65501 0.53636 0.39142 0.0
C51 C 0.61614 0.49601 0.39756 0.0
C52 C 0.7907 0.55235 0.34073 0.0
O53 O 0.5983 0.45995 0.38099 0.0
C54 C 0.65881 0.44732 0.29924 0.0
O55 O 0.70292 0.5802 0.34602 0.0
O56 O 0.62367 0.525 0.34092 0.0
O57 O 0.76399 0.50998 0.33026 0.0
O58 O 0.77437 0.56676 0.36045 0.0
C59 C 0.62084 0.37758 0.35946 0.0
O60 O 0.63533 0.46715 0.30934 0.0
O61 O 0.68414 0.43526 0.3143 0.0
C62 C 0.66057 0.56769 0.33637 0.0
O63 O 0.6015 0.39938 0.34741 0.0
O64 O 0.6666 0.40044 0.36486 0.0
C65 C 0.74121 0.48982 0.40259 0.0
Fe66 Fe 0.27597 0.58077 0.98676 0.0
Fe67 Fe 0.19343 0.49385 0.95507 0.0
O68 O 0.21406 0.54862 0.97466 0.0
Fe69 Fe 0.17343 0.57167 0.98205 0.0
O70 O 0.21461 0.63085 0.96564 0.0
O71 O 0.28211 0.64256 0.98614 0.0
O72 O 0.30038 0.59249 0.952 0.0
C73 C 0.29038 0.55888 0.93445 0.0
C74 C 0.22539 0.5845 0.03178 0.0
O75 O 0.25414 0.5152 0.93818 0.0
C76 C 0.10854 0.47232 0.98826 0.0
O77 O 0.28229 0.52533 0.98955 0.0
O78 O 0.20717 0.46311 0.98234 0.0
O79 O 0.19997 0.59541 0.01605 0.0
O80 O 0.25443 0.57082 0.02208 0.0
C81 C 0.14995 0.53765 0.92697 0.0
O82 O 0.12866 0.46329 0.96797 0.0
O83 O 0.12917 0.51474 -0.0009 0.0
C84 C 0.2506 0.47944 0.99127 0.0
O85 O 0.17889 0.52045 0.92642 0.0
O86 O 0.1395 0.5513 0.94938 0.0
C87 C 0.25899 0.65932 0.9728 0.0
Fe88 Fe 0.46505 0.70531 0.65333 0.0
Fe89 Fe 0.53891 0.68846 0.61924 0.0
O90 O 0.49026 0.66726 0.64401 0.0
Fe91 Fe 0.46659 0.60771 0.65893 0.0
O92 O 0.40254 0.5948 0.66236 0.0
O93 O 0.40291 0.65837 0.64284 0.0
O94 O 0.47283 0.73258 0.61904 0.0
C95 C 0.47806 0.71738 0.59577 0.0
C96 C 0.46762 0.66125 0.70389 0.0
O97 O 0.4995 0.69227 0.59334 0.0
C98 C 0.57079 0.64647 0.6569 0.0
O99 O 0.52536 0.75567 0.66437 0.0
O100 O 0.56609 0.75441 0.6277 0.0
O101 O 0.4819 0.63356 0.69318 0.0
O102 O 0.45251 0.68437 0.68917 0.0
C103 C 0.47915 0.58754 0.6058 0.0
O104 O 0.581 0.68531 0.64368 0.0
O105 O 0.52666 0.61023 0.65844 0.0
C106 C 0.56269 0.77685 0.64856 0.0
O107 O 0.52097 0.62687 0.60578 0.0
O108 O 0.44916 0.57717 0.62559 0.0
C109 C 0.37983 0.61385 0.65086 0.0
Fe110 Fe 0.33429 0.76402 0.31952 0.0
Fe111 Fe 0.33299 0.84849 0.28838 0.0
O112 O 0.36317 0.82769 0.31081 0.0
Fe113 Fe 0.42234 0.87031 0.32419 0.0
O114 O 0.45053 0.83699 0.30918 0.0
O115 O 0.39284 0.7631 0.32308 0.0
O116 O 0.33424 0.74701 0.28405 0.0
C117 C 0.31417 0.75757 0.26495 0.0
C118 C 0.37163 0.80576 0.36912 0.0
O119 O 0.30228 0.79069 0.26819 0.0
C120 C 0.37989 0.9279 0.3271 0.0
O121 O 0.27015 0.75287 0.31743 0.0
O122 O 0.27973 0.82703 0.31139 0.0
O123 O 0.41128 0.83773 0.35713 0.0
O124 O 0.3332 0.77742 0.35557 0.0
C125 C 0.42846 0.90151 0.26898 0.0
O126 O 0.3592 0.91071 0.30416 0.0
O127 O 0.39866 0.90673 0.34022 0.0
C128 C 0.25281 0.78208 0.31832 0.0
O129 O 0.38368 0.87047 0.26385 0.0
O130 O 0.44383 0.91045 0.2935 0.0
C131 C 0.43638 0.79211 0.31397 0.0
C132 C 0.3189 0.46226 0.00281 0.0
C133 C 0.26814 0.4442 -0.00223 0.0
C134 C 0.33736 0.42976 0.00498 0.0
C135 C 0.30552 0.37824 0.00222 0.0
C136 C 0.25436 0.35989 -0.00119 0.0
C137 C 0.23586 0.39249 0.9964 0.0
C138 C 0.32484 0.34314 0.00314 0.0
C139 C 0.37057 0.35546 0.99363 0.0
C140 C 0.393 0.32298 0.99515 0.0
C141 C 0.43563 0.33548 0.97922 0.0
C142 C 0.46136 0.30965 0.98208 0.0
C143 C 0.44528 0.27076 0.00117 0.0
H144 H 0.34349 0.27211 0.02644 0.0
C145 C 0.40138 0.25682 0.0163 0.0
C146 C 0.37561 0.28265 0.01341 0.0
H147 H 0.38788 0.22712 0.03125 0.0
H148 H 0.34488 0.50176 0.0043 0.0
H149 H 0.37669 0.4452 0.00872 0.0
H150 H 0.22886 0.3203 0.99711 0.0
H151 H 0.19653 0.37721 0.99268 0.0
H152 H 0.29985 0.30588 0.01066 0.0
H153 H 0.39303 0.3914 0.98385 0.0
H154 H 0.44999 0.36633 0.96497 0.0
H155 H 0.49495 0.32149 0.97006 0.0
C156 C 0.72629 0.14996 0.65351 0.0
C157 C 0.76823 0.18038 0.66949 0.0
C158 C 0.70634 0.09849 0.653 0.0
C159 C 0.72758 0.07626 0.66877 0.0
C160 C 0.77008 0.10672 0.68426 0.0
C161 C 0.79065 0.15832 0.68435 0.0
C162 C 0.70398 0.02138 0.67081 0.0
C163 C 0.68087 0.99114 0.64949 0.0
C164 C 0.65496 0.93614 0.65126 0.0
C165 C 0.65425 0.90931 0.62798 0.0
C166 C 0.62634 0.85756 0.6278 0.0
C167 C 0.59725 0.83123 0.65072 0.0
H168 H 0.62676 0.9298 0.69284 0.0
C169 C 0.59871 0.85802 0.67435 0.0
C170 C 0.62763 0.91004 0.6747 0.0
H171 H 0.57663 0.83891 0.69229 0.0
H172 H 0.708 0.16583 0.64201 0.0
H173 H 0.67297 0.07605 0.64124 0.0
H174 H 0.78698 0.09049 0.69668 0.0
H175 H 0.82261 0.18062 0.69715 0.0
H176 H 0.70697 1.00571 0.69008 0.0
H177 H 0.68233 1.00725 0.62952 0.0
H178 H 0.67476 0.92852 0.60963 0.0
H179 H 0.62602 0.83836 0.60915 0.0
C180 C 0.16624 0.70971 0.3255 0.0
C181 C 0.19842 0.76131 0.323 0.0
C182 C 0.11465 0.68956 0.3277 0.0
C183 C 0.09376 0.72051 0.32747 0.0
C184 C 0.126 0.77215 0.32591 0.0
C185 C 0.17761 0.79232 0.32351 0.0
C186 C 0.03889 0.70039 0.32982 0.0
C187 C 1.00446 0.65426 0.32155 0.0
C188 C 0.94934 0.63225 0.32466 0.0
C189 C 0.91758 0.58852 0.3102 0.0
C190 C 0.86592 0.56385 0.31431 0.0
C191 C 0.84452 0.58212 0.33319 0.0
H192 H 0.95043 0.68448 0.35484 0.0
C193 C 0.8761 0.62686 0.34694 0.0
C194 C 0.92776 0.65152 0.34284 0.0
H195 H 0.86112 0.64205 0.36174 0.0
H196 H 0.18079 0.6846 0.32537 0.0
H197 H 0.09143 0.64974 0.32986 0.0
H198 H 0.11115 0.79702 0.32608 0.0
H199 H 0.20113 0.83221 0.32175 0.0
H200 H 0.02699 0.72541 0.33767 0.0
H201 H 0.01701 0.63124 0.31155 0.0
H202 H 0.93288 0.5726 0.29607 0.0
H203 H 0.84297 0.5295 0.30336 0.0
C204 C 0.44969 0.91585 0.21906 0.0
C205 C 0.4607 0.93277 0.24627 0.0
C206 C 0.47575 0.9474 0.19719 0.0
C207 C 0.51314 0.99678 0.20209 0.0
C208 C 0.52546 0.01305 0.22932 0.0
C209 C 0.49992 0.98119 0.25123 0.0
C210 C 0.53412 0.03366 0.17949 0.0
C211 C 0.53719 0.02163 0.15325 0.0
C212 C 0.54431 0.05541 0.13009 0.0
C213 C 0.56774 0.05336 0.1057 0.0
C214 C 0.56903 0.08063 0.08257 0.0
C215 C 0.5454 0.10895 0.08332 0.0
H216 H 0.50304 0.08704 0.14915 0.0
C217 C 0.52289 0.1117 0.10785 0.0
C218 C 0.5226 0.08555 0.131 0.0
H219 H 0.50446 0.13336 0.10895 0.0
H220 H 0.41973 0.87864 0.21462 0.0
H221 H 0.46434 0.93381 0.17653 0.0
H222 H 0.55374 0.05106 0.23364 0.0
H223 H 0.50909 0.99535 0.27198 0.0
H224 H 0.54454 0.07171 0.18446 0.0
H225 H 0.53152 0.9851 0.14835 0.0
H226 H 0.58415 0.02989 0.1044 0.0
H227 H 0.58634 0.07772 0.06381 0.0
C228 C 0.89599 0.40785 0.78191 0.0
C229 C 0.9028 0.4319 0.75656 0.0
C230 C 0.9244 0.43387 0.80449 0.0
C231 C 0.95978 0.48457 0.80232 0.0
C232 C 0.96398 0.50969 0.77777 0.0
C233 C 0.93593 0.48345 0.75493 0.0
C234 C 0.99582 0.50958 0.82461 0.0
C235 C 0.02186 0.48905 0.83398 0.0
C236 C 0.05883 0.50995 0.85617 0.0
C237 C 0.09776 0.49964 0.85581 0.0
C238 C 0.12924 0.51166 0.87818 0.0
C239 C 0.12182 0.53336 0.90178 0.0
H240 H 0.02287 0.54236 0.87988 0.0
C241 C 0.08431 0.54604 0.90165 0.0
C242 C 0.05307 0.53456 0.87893 0.0
H243 H 0.0777 0.56284 0.91949 0.0
H244 H 0.87034 0.36837 0.78407 0.0
H245 H 0.9201 0.41396 0.82343 0.0
H246 H 0.99099 0.54887 0.77579 0.0
H247 H 0.94157 0.50315 0.73578 0.0
H248 H 1.00339 0.54575 0.83181 0.0
H249 H 0.01677 0.4553 0.82425 0.0
H250 H 0.10291 0.48073 0.83846 0.0
H251 H 0.15796 0.5017 0.87737 0.0
C252 C 0.54099 0.4624 0.42899 0.0
C253 C 0.59251 0.49249 0.42456 0.0
C254 C 0.52005 0.46177 0.45479 0.0
C255 C 0.55065 0.49043 0.47658 0.0
C256 C 0.60216 0.5189 0.4722 0.0
C257 C 0.62276 0.5204 0.4465 0.0
C258 C 0.53121 0.49246 0.50421 0.0
C259 C 0.48691 0.48937 0.50877 0.0
C260 C 0.47519 0.5046 0.53554 0.0
C261 C 0.44883 0.53032 0.53573 0.0
C262 C 0.44618 0.55407 0.55962 0.0
C263 C 0.46912 0.55165 0.58372 0.0
H264 H 0.51354 0.47785 0.56128 0.0
C265 C 0.49183 0.5226 0.58424 0.0
C266 C 0.4944 0.49877 0.56043 0.0
H267 H 0.51014 0.52074 0.60263 0.0
H268 H 0.51692 0.44026 0.41245 0.0
H269 H 0.48024 0.43869 0.45769 0.0
H270 H 0.62665 0.54105 0.48862 0.0
H271 H 0.66269 0.54333 0.44386 0.0
H272 H 0.55758 0.50374 0.52094 0.0
H273 H 0.46235 0.48304 0.49162 0.0
H274 H 0.43342 0.53512 0.51693 0.0
H275 H 0.42918 0.57704 0.55876 0.0
C276 C 0.43812 0.03441 0.96874 0.0
C277 C 0.42431 0.05685 0.98938 0.0
C278 C 0.40689 0.98469 0.96178 0.0
C279 C 0.36143 0.95585 0.97575 0.0
C280 C 0.34566 0.97944 0.99469 0.0
C281 C 0.37687 0.02962 0.00148 0.0
C282 C 0.33173 0.90084 0.9723 0.0
C283 C 0.35355 0.87371 0.9665 0.0
C284 C 0.3276 0.81847 0.96667 0.0
C285 C 0.35625 0.79584 0.97098 0.0
C286 C 0.33397 0.74428 0.97237 0.0
C287 C 0.28239 0.71378 0.96907 0.0
H288 H 0.25289 0.80406 0.95856 0.0
C289 C 0.2537 0.73617 0.96371 0.0
C290 C 0.27604 0.78806 0.96262 0.0
H291 H 0.21385 0.71368 0.961 0.0
H292 H 0.47418 0.05484 0.95874 0.0
H293 H 0.41936 0.96862 0.9461 0.0
H294 H 0.31045 0.95833 0.00543 0.0
H295 H 0.36531 0.046 0.01748 0.0
H296 H 0.29242 0.88224 0.97754 0.0
H297 H 0.3937 0.89272 0.9639 0.0
H298 H 0.39609 0.81821 0.97389 0.0
H299 H 0.35725 0.72831 0.9763 0.0
C300 C 0.29997 0.5328 0.65432 0.0
C301 C 0.32491 0.58401 0.64869 0.0
C302 C 0.24814 0.5044 0.65318 0.0
C303 C 0.21979 0.52668 0.64673 0.0
C304 C 0.24484 0.5776 0.64035 0.0
C305 C 0.2968 0.60599 0.64131 0.0
C306 C 0.16434 0.49838 0.64638 0.0
C307 C 0.13624 0.45458 0.65936 0.0
C308 C 0.08097 0.42897 0.6611 0.0
C309 C 0.05661 0.39673 0.68321 0.0
C310 C 1.00521 0.37527 0.68694 0.0
C311 C 0.97696 0.38541 0.66851 0.0
H312 H 0.06919 0.45936 0.62371 0.0
C313 C 1.00088 0.41513 0.6454 0.0
C314 C 0.05225 0.43654 0.64167 0.0
H315 H 0.98016 0.42311 0.63054 0.0
H316 H 0.3205 0.51443 0.65958 0.0
H317 H 0.23082 0.46505 0.65721 0.0
H318 H 0.2241 0.59574 0.63501 0.0
H319 H 0.31482 0.64527 0.63668 0.0
H320 H 0.14626 0.51629 0.6366 0.0
H321 H 0.15409 0.4386 0.67121 0.0
H322 H 0.07767 0.38957 0.69826 0.0
H323 H 0.98803 0.35236 0.70489 0.0
C324 C 0.45725 0.7241 0.31413 0.0
C325 C 0.47304 0.77492 0.31239 0.0
C326 C 0.49191 0.70801 0.31424 0.0
C327 C 0.5433 0.74243 0.3127 0.0
C328 C 0.55909 0.79317 0.31093 0.0
C329 C 0.52438 0.80926 0.31047 0.0
C330 C 0.58092 0.72637 0.31472 0.0
C331 C 0.57247 0.68234 0.30488 0.0
C332 C 0.60484 0.66045 0.30956 0.0
C333 C 0.59316 0.61655 0.29547 0.0
C334 C 0.61514 0.58876 0.30268 0.0
C335 C 0.64981 0.60437 0.32401 0.0
H336 H 0.65245 0.71146 0.34119 0.0
C337 C 0.66493 0.6503 0.33667 0.0
C338 C 0.64244 0.6781 0.32962 0.0
H339 H 0.691 0.6627 0.35349 0.0
H340 H 0.41805 0.69668 0.31577 0.0
H341 H 0.47831 0.66867 0.31644 0.0
H342 H 0.59841 0.82048 0.31001 0.0
H343 H 0.53791 0.84874 0.3093 0.0
H344 H 0.61606 0.75165 0.32437 0.0
H345 H 0.5387 0.65988 0.29326 0.0
H346 H 0.56467 0.60204 0.27986 0.0
H347 H 0.60275 0.55336 0.29265 0.0
C348 C 0.03392 0.44578 0.01884 0.0
C349 C 0.05636 0.43612 0.99627 0.0
C350 C 0.98295 0.41575 0.02419 0.0
C351 C 0.95299 0.37545 0.0069 0.0
C352 C 0.97601 0.36416 0.98533 0.0
C353 C 0.02702 0.39412 0.98002 0.0
C354 C 0.89781 0.3449 0.01023 0.0
C355 C 0.86987 0.36065 0.02351 0.0
C356 C 0.81428 0.33248 0.02432 0.0
C357 C 0.789 0.35803 0.031 0.0
C358 C 0.73695 0.33391 0.03046 0.0
C359 C 0.70887 0.28352 0.02319 0.0
H360 H 0.80343 0.25958 0.01413 0.0
C361 C 0.73402 0.25742 0.01764 0.0
C362 C 0.78597 0.28142 0.01835 0.0
H363 H 0.71354 0.21834 0.01241 0.0
H364 H 0.0555 0.4774 0.03206 0.0
H365 H 0.96737 0.42471 0.04172 0.0
H366 H 0.95414 0.33297 0.97189 0.0
H367 H 0.04299 0.38539 0.96253 0.0
H368 H 0.87959 0.30982 -0.00067 0.0
H369 H 0.88798 0.39746 0.03254 0.0
H370 H 0.80962 0.3972 0.03603 0.0
H371 H 0.71886 0.35514 0.03498 0.0
C372 C 0.64979 0.64602 0.64869 0.0
C373 C 0.61073 0.63822 0.66644 0.0
C374 C 0.68051 0.62677 0.65524 0.0
C375 C 0.67305 0.6004 0.67985 0.0
C376 C 0.63685 0.59659 0.6986 0.0
C377 C 0.60533 0.61461 0.69174 0.0
C378 C 0.69892 0.57238 0.68516 0.0
C379 C 0.70144 0.54297 0.66569 0.0
C380 C 0.71869 0.50728 0.671 0.0
C381 C 0.69806 0.46323 0.65568 0.0
C382 C 0.71406 0.4291 0.65943 0.0
C383 C 0.75191 0.43882 0.67821 0.0
H384 H 0.773 0.55067 0.70211 0.0
C385 C 0.77238 0.4828 0.69375 0.0
C386 C 0.75576 0.51665 0.69029 0.0
H387 H 0.8018 0.49144 0.70828 0.0
H388 H 0.65429 0.66375 0.62897 0.0
H389 H 0.70875 0.63074 0.64062 0.0
H390 H 0.63065 0.5766 0.71771 0.0
H391 H 0.57528 0.60815 0.70567 0.0
H392 H 0.70926 0.57029 0.70613 0.0
H393 H 0.68575 0.54152 0.64562 0.0
H394 H 0.66948 0.4552 0.64067 0.0
H395 H 0.69781 0.39585 0.64693 0.0
C396 C 0.53842 0.29879 0.35967 0.0
C397 C 0.59018 0.32311 0.36372 0.0
C398 C 0.5096 0.24704 0.36061 0.0
C399 C 0.53189 0.21814 0.36538 0.0
C400 C 0.58319 0.24252 0.37082 0.0
C401 C 0.61209 0.29443 0.36997 0.0
C402 C 0.50319 0.16278 0.36445 0.0
C403 C 0.46043 0.13641 0.35036 0.0
C404 C 0.43495 0.08153 0.34669 0.0
C405 C 0.40539 0.06018 0.32338 0.0
C406 C 0.3848 1.00952 0.31776 0.0
C407 C 0.39304 0.97895 0.33548 0.0
H408 H 0.46104 0.06485 0.38415 0.0
C409 C 0.41967 0.99968 0.35981 0.0
C410 C 0.44032 0.05032 0.36539 0.0
H411 H 0.42619 0.97715 0.37416 0.0
H412 H 0.5201 0.31973 0.35528 0.0
H413 H 0.46996 0.23006 0.35746 0.0
H414 H 0.60131 0.22128 0.37494 0.0
H415 H 0.65177 0.31191 0.37332 0.0
H416 H 0.5203 0.14353 0.3738 0.0
H417 H 0.4457 0.15586 0.33888 0.0
H418 H 0.39992 0.08316 0.30883 0.0
H419 H 0.36436 0.99489 0.29889 0.0
C420 C 0.54808 0.26815 0.11858 0.0
C421 C 0.55536 0.29269 0.09337 0.0
C422 C 0.56059 0.29471 0.14317 0.0
C423 C 0.58064 0.34648 0.14313 0.0
C424 C 0.58643 0.37082 0.11806 0.0
C425 C 0.5744 0.34431 0.09338 0.0
C426 C 0.59525 0.37556 0.16901 0.0
C427 C 0.61444 0.36328 0.19018 0.0
C428 C 0.62885 0.39016 0.21677 0.0
C429 C 0.66252 0.3848 0.23329 0.0
C430 C 0.67377 0.40524 0.25955 0.0
C431 C 0.65109 0.43115 0.27016 0.0
H432 H 0.58052 0.42176 0.21497 0.0
C433 C 0.61849 0.43795 0.25332 0.0
C434 C 0.60739 0.4176 0.22688 0.0
H435 H 0.60028 0.45761 0.26086 0.0
H436 H 0.53327 0.22841 0.11935 0.0
H437 H 0.55418 0.27451 0.16221 0.0
H438 H 0.60128 0.41059 0.11752 0.0
H439 H 0.5801 0.36429 0.07432 0.0
H440 H 0.59258 0.40897 0.16997 0.0
H441 H 0.6214 0.33259 0.18772 0.0
H442 H 0.67956 0.36383 0.22605 0.0
H443 H 0.6992 0.39935 0.27183 0.0
C444 C 0.57306 0.1957 0.91289 0.0
C445 C 0.59365 0.23491 0.93194 0.0
C446 C 0.58993 0.20354 0.88561 0.0
C447 C 0.62811 0.25062 0.87708 0.0
C448 C 0.64775 0.28987 0.89596 0.0
C449 C 0.63036 0.28232 0.92298 0.0
C450 C 0.65189 0.259 0.84966 0.0
C451 C 0.62787 0.23493 0.82677 0.0
C452 C 0.65509 0.24371 0.80038 0.0
C453 C 0.63456 0.2489 0.77596 0.0
C454 C 0.66175 0.26029 0.75132 0.0
C455 C 0.70929 0.26528 0.75068 0.0
H456 H 0.71831 0.24259 0.81798 0.0
C457 C 0.72872 0.25797 0.77499 0.0
C458 C 0.70205 0.24753 0.79956 0.0
H459 H 0.76523 0.26157 0.77525 0.0
H460 H 0.54471 0.15877 0.91918 0.0
H461 H 0.57469 0.17229 0.87164 0.0
H462 H 0.67739 0.32638 0.8899 0.0
H463 H 0.64719 0.31333 0.9371 0.0
H464 H 0.69105 0.28727 0.84819 0.0
H465 H 0.58779 0.21029 0.82711 0.0
H466 H 0.59821 0.24566 0.77612 0.0
H467 H 0.64574 0.26549 0.73288 0.0
C468 C 0.77036 0.44111 0.42963 0.0
C469 C 0.75731 0.47825 0.42863 0.0
C470 C 0.78308 0.4284 0.45451 0.0
C471 C 0.78318 0.45279 0.47888 0.0
C472 C 0.77138 0.49069 0.47773 0.0
C473 C 0.75815 0.50302 0.45296 0.0
C474 C 0.79624 0.44054 0.50576 0.0
C475 C 0.78843 0.39517 0.51233 0.0
C476 C 0.79787 0.38356 0.54036 0.0
C477 C 0.76656 0.33627 0.55156 0.0
C478 C 0.77134 0.32643 0.57903 0.0
C479 C 0.80788 0.36373 0.59563 0.0
H480 H 0.86263 0.45583 0.5481 0.0
C481 C 0.8414 0.40986 0.58374 0.0
C482 C 0.83655 0.41964 0.55643 0.0
H483 H 0.87068 0.43912 0.59576 0.0
H484 H 0.77012 0.42132 0.41125 0.0
H485 H 0.79326 0.39991 0.45451 0.0
H486 H 0.77158 0.51033 0.49619 0.0
H487 H 0.74843 0.53189 0.45292 0.0
H488 H 0.80926 0.46918 0.52144 0.0
H489 H 0.77053 0.3648 0.49778 0.0
H490 H 0.73695 0.3076 0.53942 0.0
H491 H 0.7452 0.29036 0.58748 0.0
C492 C 0.35987 0.61881 0.90372 0.0
C493 C 0.32211 0.56997 0.90963 0.0
C494 C 0.38726 0.62966 0.87925 0.0
C495 C 0.37728 0.59184 0.86013 0.0
C496 C 0.34103 0.54282 0.86661 0.0
C497 C 0.31354 0.532 0.89097 0.0
C498 C 0.40277 0.60187 0.833 0.0
C499 C 0.42128 0.64562 0.81977 0.0
C500 C 0.4387 0.65258 0.79076 0.0
C501 C 0.43398 0.68703 0.77453 0.0
C502 C 0.44505 0.69112 0.74649 0.0
C503 C 0.46166 0.66114 0.7341 0.0
H504 H 0.46395 0.59898 0.79081 0.0
C505 C 0.46936 0.62883 0.7507 0.0
C506 C 0.45804 0.62459 0.77874 0.0
H507 H 0.48279 0.6057 0.74192 0.0
H508 H 0.36772 0.6489 0.91776 0.0
H509 H 0.41601 0.66767 0.87543 0.0
H510 H 0.33288 0.51288 0.85238 0.0
H511 H 0.28499 0.4939 0.89492 0.0
H512 H 0.40135 0.57044 0.82242 0.0
H513 H 0.41844 0.67571 0.82925 0.0
H514 H 0.4198 0.70953 0.78333 0.0
H515 H 0.43927 0.71685 0.73441 0.0
C516 C 0.45608 0.70776 0.54604 0.0
C517 C 0.46275 0.73306 0.57097 0.0
C518 C 0.44164 0.72271 0.5226 0.0
C519 C 0.43394 0.7635 0.52361 0.0
C520 C 0.44117 0.7891 0.54842 0.0
C521 C 0.45486 0.7737 0.57197 0.0
C522 C 0.42136 0.7818 0.49872 0.0
C523 C 0.39317 0.7512 0.47858 0.0
C524 C 0.38484 0.7691 0.45215 0.0
C525 C 0.34279 0.73726 0.4367 0.0
C526 C 0.33691 0.75039 0.41023 0.0
C527 C 0.37354 0.79535 0.3985 0.0
H528 H 0.45379 0.84023 0.45193 0.0
C529 C 0.41468 0.82809 0.41437 0.0
C530 C 0.42032 0.81514 0.44091 0.0
H531 H 0.44354 0.86301 0.40593 0.0
H532 H 0.46195 0.67636 0.54465 0.0
H533 H 0.43775 0.70304 0.50357 0.0
H534 H 0.43603 0.82097 0.54959 0.0
H535 H 0.46005 0.79415 0.59085 0.0
H536 H 0.43501 0.82138 0.49728 0.0
H537 H 0.37551 0.71128 0.48146 0.0
H538 H 0.31506 0.7015 0.44485 0.0
H539 H 0.3048 0.72425 0.39854 0.0
C540 C 0.2575 0.58813 0.07929 0.0
C541 C 0.22577 0.59439 0.06151 0.0
C542 C 0.26032 0.6012 0.10697 0.0
C543 C 0.23157 0.62108 0.11736 0.0
C544 C 0.19818 0.62499 0.09984 0.0
C545 C 0.19536 0.61195 0.07224 0.0
C546 C 0.23605 0.63972 0.14591 0.0
C547 C 0.27597 0.65295 0.16182 0.0
C548 C 0.28259 0.67772 0.18875 0.0
C549 C 0.31156 0.67212 0.20872 0.0
C550 C 0.32096 0.69724 0.2337 0.0
C551 C 0.30217 0.72917 0.23904 0.0
H552 H 0.24246 0.71606 0.17887 0.0
C553 C 0.27323 0.73487 0.21902 0.0
C554 C 0.26353 0.70945 0.19413 0.0
H555 H 0.25852 0.75947 0.22241 0.0
H556 H 0.28085 0.57393 0.07177 0.0
H557 H 0.2852 0.59575 0.11991 0.0
H558 H 0.17516 0.63961 0.10732 0.0
H559 H 0.17 0.61667 0.05922 0.0
H560 H 0.20637 0.6455 0.15345 0.0
H561 H 0.30569 0.64678 0.15495 0.0
H562 H 0.32717 0.64839 0.20492 0.0
H563 H 0.34374 0.69232 0.24861 0.0
loop_
_geom_bond_atom_site_label_1
_geom_bond_atom_site_label_2
_geom_bond_distance
_geom_bond_site_symmetry_2
_ccdc_geom_bond_type
Fe0 O2 1.918 . S
Fe0 O5 1.997 . S
Fe0 O6 2.002 . S
Fe0 O11 1.976 . S
Fe0 O14 1.996 . S
Fe1 O2 1.918 . S
Fe1 O9 1.997 . S
Fe1 O12 1.996 . S
Fe1 O16 1.976 1_554 S
Fe1 O19 2.002 . S
O2 Fe0 1.918 . S
O2 Fe1 1.918 . S
O2 Fe3 1.918 . S
Fe3 O2 1.918 . S
Fe3 O4 2.002 . S
Fe3 O13 1.976 . S
Fe3 O17 1.996 1_554 S
Fe3 O20 1.997 . S
O4 Fe3 2.002 . S
O4 C21 1.295 . S
O5 Fe0 1.997 . S
O5 C21 1.235 . S
O6 Fe0 2.002 . S
O6 C7 1.295 . S
C7 O6 1.295 . S
C7 O9 1.235 . S
C8 O13 1.287 . S
C8 O14 1.255 . S
O9 Fe1 1.997 . S
O9 C7 1.235 . S
C10 O16 1.287 . S
C10 O17 1.255 . S
O11 Fe0 1.976 . S
O11 C18 1.287 . S
O12 Fe1 1.996 . S
O12 C18 1.255 . S
O13 Fe3 1.976 . S
O13 C8 1.287 . S
O14 Fe0 1.996 . S
O14 C8 1.255 . S
C15 O19 1.295 . S
C15 O20 1.235 . S
O16 Fe1 1.976 1_556 S
O16 C10 1.287 . S
O17 Fe3 1.996 1_556 S
O17 C10 1.255 . S
C18 O11 1.287 . S
C18 O12 1.255 . S
O19 Fe1 2.002 . S
O19 C15 1.295 . S
O20 Fe3 1.997 . S
O20 C15 1.235 . S
C21 O4 1.295 . S
C21 O5 1.235 . S
Fe22 O24 1.918 . S
Fe22 O27 1.997 . S
Fe22 O28 2.002 . S
Fe22 O33 1.976 . S
Fe22 O36 1.996 . S
Fe23 O24 1.918 . S
Fe23 O31 1.997 . S
Fe23 O34 1.996 . S
Fe23 O38 1.976 . S
Fe23 O41 2.002 . S
O24 Fe22 1.918 . S
O24 Fe23 1.918 . S
O24 Fe25 1.918 . S
Fe25 O24 1.918 . S
Fe25 O26 2.002 . S
Fe25 O35 1.976 . S
Fe25 O39 1.996 . S
Fe25 O42 1.997 . S
O26 Fe25 2.002 . S
O26 C43 1.295 . S
O27 Fe22 1.997 . S
O27 C43 1.235 . S
O28 Fe22 2.002 . S
O28 C29 1.295 . S
C29 O28 1.295 . S
C29 O31 1.235 . S
C30 O35 1.287 . S
C30 O36 1.255 . S
O31 Fe23 1.997 . S
O31 C29 1.235 . S
C32 O38 1.287 . S
C32 O39 1.255 . S
O33 Fe22 1.976 . S
O33 C40 1.287 . S
O34 Fe23 1.996 . S
O34 C40 1.255 . S
O35 Fe25 1.976 . S
O35 C30 1.287 . S
O36 Fe22 1.996 . S
O36 C30 1.255 . S
C37 O41 1.295 . S
C37 O42 1.235 . S
O38 Fe23 1.976 . S
O38 C32 1.287 . S
O39 Fe25 1.996 . S
O39 C32 1.255 . S
C40 O33 1.287 . S
C40 O34 1.255 . S
O41 Fe23 2.002 . S
O41 C37 1.295 . S
O42 Fe25 1.997 . S
O42 C37 1.235 . S
C43 O26 1.295 . S
C43 O27 1.235 . S
Fe44 O46 1.918 . S
Fe44 O49 1.997 . S
Fe44 O50 2.002 . S
Fe44 O55 1.976 . S
Fe44 O58 1.996 . S
Fe45 O46 1.918 . S
Fe45 O53 1.997 . S
Fe45 O56 1.996 . S
Fe45 O60 1.976 . S
Fe45 O63 2.002 . S
O46 Fe44 1.918 . S
O46 Fe45 1.918 . S
O46 Fe47 1.918 . S
Fe47 O46 1.918 . S
Fe47 O48 2.002 . S
Fe47 O57 1.976 . S
Fe47 O61 1.996 . S
Fe47 O64 1.997 . S
O48 Fe47 2.002 . S
O48 C65 1.295 . S
O49 Fe44 1.997 . S
O49 C65 1.235 . S
O50 Fe44 2.002 . S
O50 C51 1.295 . S
C51 O50 1.295 . S
C51 O53 1.235 . S
C52 O57 1.287 . S
C52 O58 1.255 . S
O53 Fe45 1.997 . S
O53 C51 1.235 . S
C54 O60 1.287 . S
C54 O61 1.255 . S
O55 Fe44 1.976 . S
O55 C62 1.287 . S
O56 Fe45 1.996 . S
O56 C62 1.255 . S
O57 Fe47 1.976 . S
O57 C52 1.287 . S
O58 Fe44 1.996 . S
O58 C52 1.255 . S
C59 O63 1.295 . S
C59 O64 1.235 . S
O60 Fe45 1.976 . S
O60 C54 1.287 . S
O61 Fe47 1.996 . S
O61 C54 1.255 . S
C62 O55 1.287 . S
C62 O56 1.255 . S
O63 Fe45 2.002 . S
O63 C59 1.295 . S
O64 Fe47 1.997 . S
O64 C59 1.235 . S
C65 O48 1.295 . S
C65 O49 1.235 . S
Fe66 O68 1.918 . S
Fe66 O71 1.997 . S
Fe66 O72 2.002 . S
Fe66 O77 1.976 . S
Fe66 O80 1.996 1_556 S
Fe67 O68 1.918 . S
Fe67 O75 1.997 . S
Fe67 O78 1.996 . S
Fe67 O82 1.976 . S
Fe67 O85 2.002 . S
O68 Fe66 1.918 . S
O68 Fe67 1.918 . S
O68 Fe69 1.918 . S
Fe69 O68 1.918 . S
Fe69 O70 2.002 . S
Fe69 O79 1.976 1_556 S
Fe69 O83 1.996 . S
Fe69 O86 1.997 . S
O70 Fe69 2.002 . S
O70 C87 1.295 . S
O71 Fe66 1.997 . S
O71 C87 1.235 . S
O72 Fe66 2.002 . S
O72 C73 1.295 . S
C73 O72 1.295 . S
C73 O75 1.235 . S
C74 O79 1.287 . S
C74 O80 1.255 . S
O75 Fe67 1.997 . S
O75 C73 1.235 . S
C76 O82 1.287 . S
C76 O83 1.255 . S
O77 Fe66 1.976 . S
O77 C84 1.287 . S
O78 Fe67 1.996 . S
O78 C84 1.255 . S
O79 Fe69 1.976 1_554 S
O79 C74 1.287 . S
O80 Fe66 1.996 1_554 S
O80 C74 1.255 . S
C81 O85 1.295 . S
C81 O86 1.235 . S
O82 Fe67 1.976 . S
O82 C76 1.287 . S
O83 Fe69 1.996 . S
O83 C76 1.255 . S
C84 O77 1.287 . S
C84 O78 1.255 . S
O85 Fe67 2.002 . S
O85 C81 1.295 . S
O86 Fe69 1.997 . S
O86 C81 1.235 . S
C87 O70 1.295 . S
C87 O71 1.235 . S
Fe88 O90 1.918 . S
Fe88 O93 1.997 . S
Fe88 O94 2.002 . S
Fe88 O99 1.976 . S
Fe88 O102 1.996 . S
Fe89 O90 1.918 . S
Fe89 O97 1.997 . S
Fe89 O100 1.996 . S
Fe89 O104 1.976 . S
Fe89 O107 2.002 . S
O90 Fe88 1.918 . S
O90 Fe89 1.918 . S
O90 Fe91 1.918 . S
Fe91 O90 1.918 . S
Fe91 O92 2.002 . S
Fe91 O101 1.976 . S
Fe91 O105 1.996 . S
Fe91 O108 1.997 . S
O92 Fe91 2.002 . S
O92 C109 1.295 . S
O93 Fe88 1.997 . S
O93 C109 1.235 . S
O94 Fe88 2.002 . S
O94 C95 1.295 . S
C95 O94 1.295 . S
C95 O97 1.235 . S
C96 O101 1.287 . S
C96 O102 1.255 . S
O97 Fe89 1.997 . S
O97 C95 1.235 . S
C98 O104 1.287 . S
C98 O105 1.255 . S
O99 Fe88 1.976 . S
O99 C106 1.287 . S
O100 Fe89 1.996 . S
O100 C106 1.255 . S
O101 Fe91 1.976 . S
O101 C96 1.287 . S
O102 Fe88 1.996 . S
O102 C96 1.255 . S
C103 O107 1.295 . S
C103 O108 1.235 . S
O104 Fe89 1.976 . S
O104 C98 1.287 . S
O105 Fe91 1.996 . S
O105 C98 1.255 . S
C106 O99 1.287 . S
C106 O100 1.255 . S
O107 Fe89 2.002 . S
O107 C103 1.295 . S
O108 Fe91 1.997 . S
O108 C103 1.235 . S
C109 O92 1.295 . S
C109 O93 1.235 . S
Fe110 O112 1.918 . S
Fe110 O115 1.997 . S
Fe110 O116 2.002 . S
Fe110 O121 1.976 . S
Fe110 O124 1.996 . S
Fe111 O112 1.918 . S
Fe111 O119 1.997 . S
Fe111 O122 1.996 . S
Fe111 O126 1.976 . S
Fe111 O129 2.002 . S
O112 Fe110 1.918 . S
O112 Fe111 1.918 . S
O112 Fe113 1.918 . S
Fe113 O112 1.918 . S
Fe113 O114 2.002 . S
Fe113 O123 1.976 . S
Fe113 O127 1.996 . S
Fe113 O130 1.997 . S
O114 Fe113 2.002 . S
O114 C131 1.295 . S
O115 Fe110 1.997 . S
O115 C131 1.235 . S
O116 Fe110 2.002 . S
O116 C117 1.295 . S
C117 O116 1.295 . S
C117 O119 1.235 . S
C118 O123 1.287 . S
C118 O124 1.255 . S
O119 Fe111 1.997 . S
O119 C117 1.235 . S
C120 O126 1.287 . S
C120 O127 1.255 . S
O121 Fe110 1.976 . S
O121 C128 1.287 . S
O122 Fe111 1.996 . S
O122 C128 1.255 . S
O123 Fe113 1.976 . S
O123 C118 1.287 . S
O124 Fe110 1.996 . S
O124 C118 1.255 . S
C125 O129 1.295 . S
C125 O130 1.235 . S
O126 Fe111 1.976 . S
O126 C120 1.287 . S
O127 Fe113 1.996 . S
O127 C120 1.255 . S
C128 O121 1.287 . S
C128 O122 1.255 . S
O129 Fe111 2.002 . S
O129 C125 1.295 . S
O130 Fe113 1.997 . S
O130 C125 1.235 . S
C131 O114 1.295 . S
C131 O115 1.235 . S
C132 C133 1.386 . S
C132 C134 1.383 . S
C132 H148 0.951 . S
C133 C132 1.386 . S
C133 C137 1.383 1_556 S
C134 C132 1.383 . S
C134 C135 1.402 1_556 S
C134 H149 0.951 . S
C135 C134 1.402 1_554 S
C135 C136 1.375 . S
C135 C138 1.481 . S
C136 C135 1.375 . S
C136 C137 1.367 . S
C136 H150 0.951 . S
C137 C133 1.383 1_554 S
C137 C136 1.367 . S
C137 H151 0.950 . S
C138 C135 1.481 . S
C138 C139 1.297 1_554 S
C138 H152 0.950 . S
C139 C138 1.297 1_556 S
C139 C140 1.479 1_556 S
C139 H153 0.950 . S
C140 C139 1.479 1_554 S
C140 C141 1.375 1_554 S
C140 C146 1.404 . S
C141 C140 1.375 1_556 S
C141 C142 1.369 . S
C141 H154 0.950 . S
C142 C141 1.369 . S
C142 C143 1.392 1_556 S
C142 H155 0.951 . S
C143 C142 1.392 1_554 S
C143 C145 1.384 . S
H144 C146 0.949 . S
C145 C143 1.384 . S
C145 C146 1.385 . S
C145 H147 0.950 . S
C146 C140 1.404 . S
C146 H144 0.949 . S
C146 C145 1.385 . S
H147 C145 0.950 . S
H148 C132 0.951 . S
H149 C134 0.951 . S
H150 C136 0.951 . S
H151 C137 0.950 . S
H152 C138 0.950 . S
H153 C139 0.950 . S
H154 C141 0.950 . S
H155 C142 0.951 . S
C156 C157 1.386 . S
C156 C158 1.383 . S
C156 H172 0.951 . S
C157 C156 1.386 . S
C157 C161 1.383 . S
C158 C156 1.383 . S
C158 C159 1.402 . S
C158 H173 0.951 . S
C159 C158 1.402 . S
C159 C160 1.375 . S
C159 C162 1.481 . S
C160 C159 1.375 . S
C160 C161 1.367 . S
C160 H174 0.951 . S
C161 C157 1.383 . S
C161 C160 1.367 . S
C161 H175 0.950 . S
C162 C159 1.481 . S
C162 C163 1.297 1_545 S
C162 H176 0.950 1_545 S
C163 C162 1.297 1_565 S
C163 C164 1.479 . S
C163 H177 0.945 1_565 S
C164 C163 1.479 . S
C164 C165 1.375 . S
C164 C170 1.404 . S
C165 C164 1.375 . S
C165 C166 1.369 . S
C165 H178 0.950 . S
C166 C165 1.369 . S
C166 C167 1.392 . S
C166 H179 0.951 . S
C167 C166 1.392 . S
C167 C169 1.384 . S
H168 C170 0.949 . S
C169 C167 1.384 . S
C169 C170 1.385 . S
C169 H171 0.950 . S
C170 C164 1.404 . S
C170 H168 0.949 . S
C170 C169 1.385 . S
H171 C169 0.950 . S
H172 C156 0.951 . S
H173 C158 0.951 . S
H174 C160 0.951 . S
H175 C161 0.950 . S
H176 C162 0.950 1_565 S
H177 C163 0.945 1_545 S
H178 C165 0.950 . S
H179 C166 0.951 . S
C180 C181 1.386 . S
C180 C182 1.383 . S
C180 H196 0.951 . S
C181 C180 1.386 . S
C181 C185 1.383 . S
C182 C180 1.383 . S
C182 C183 1.402 . S
C182 H197 0.951 . S
C183 C182 1.402 . S
C183 C184 1.375 . S
C183 C186 1.481 . S
C184 C183 1.375 . S
C184 C185 1.367 . S
C184 H198 0.951 . S
C185 C181 1.383 . S
C185 C184 1.367 . S
C185 H199 0.950 . S
C186 C183 1.481 . S
C186 C187 1.297 1_455 S
C186 H200 0.950 . S
C187 C186 1.297 1_655 S
C187 C188 1.479 . S
C187 H201 0.950 . S
C188 C187 1.479 . S
C188 C189 1.375 . S
C188 C194 1.404 . S
C189 C188 1.375 . S
C189 C190 1.369 . S
C189 H202 0.950 . S
C190 C189 1.369 . S
C190 C191 1.392 . S
C190 H203 0.951 . S
C191 C190 1.392 . S
C191 C193 1.384 . S
H192 C194 0.949 . S
C193 C191 1.384 . S
C193 C194 1.385 . S
C193 H195 0.950 . S
C194 C188 1.404 . S
C194 H192 0.949 . S
C194 C193 1.385 . S
H195 C193 0.950 . S
H196 C180 0.951 . S
H197 C182 0.951 . S
H198 C184 0.951 . S
H199 C185 0.950 . S
H200 C186 0.950 . S
H201 C187 0.950 . S
H202 C189 0.950 . S
H203 C190 0.951 . S
C204 C205 1.386 . S
C204 C206 1.383 . S
C204 H220 0.951 . S
C205 C204 1.386 . S
C205 C209 1.383 . S
C206 C204 1.383 . S
C206 C207 1.402 . S
C206 H221 0.951 . S
C207 C206 1.402 . S
C207 C208 1.375 . S
C207 C210 1.481 . S
C208 C207 1.375 . S
C208 C209 1.367 . S
C208 H222 0.951 . S
C209 C205 1.383 . S
C209 C208 1.367 . S
C209 H223 0.950 . S
C210 C207 1.481 . S
C210 C211 1.297 . S
C210 H224 0.950 1_565 S
C211 C210 1.297 . S
C211 C212 1.479 1_565 S
C211 H225 0.950 . S
C212 C211 1.479 1_545 S
C212 C213 1.375 . S
C212 C218 1.404 . S
C213 C212 1.375 . S
C213 C214 1.369 . S
C213 H226 0.950 1_545 S
C214 C213 1.369 . S
C214 C215 1.392 . S
C214 H227 0.951 . S
C215 C214 1.392 . S
C215 C217 1.384 . S
H216 C218 0.949 . S
C217 C215 1.384 . S
C217 C218 1.385 . S
C217 H219 0.950 . S
C218 C212 1.404 . S
C218 H216 0.949 . S
C218 C217 1.385 . S
H219 C217 0.950 . S
H220 C204 0.951 . S
H221 C206 0.951 . S
H222 C208 0.951 . S
H223 C209 0.950 . S
H224 C210 0.950 1_545 S
H225 C211 0.950 . S
H226 C213 0.950 1_565 S
H227 C214 0.951 . S
C228 C229 1.386 . S
C228 C230 1.383 . S
C228 H244 0.951 . S
C229 C228 1.386 . S
C229 C233 1.383 . S
C230 C228 1.383 . S
C230 C231 1.402 . S
C230 H245 0.951 . S
C231 C230 1.402 . S
C231 C232 1.375 . S
C231 C234 1.481 1_655 S
C232 C231 1.375 . S
C232 C233 1.367 . S
C232 H246 0.951 1_655 S
C233 C229 1.383 . S
C233 C232 1.367 . S
C233 H247 0.950 . S
C234 C231 1.481 1_455 S
C234 C235 1.297 . S
C234 H248 0.950 . S
C235 C234 1.297 . S
C235 C236 1.479 . S
C235 H249 0.950 1_455 S
C236 C235 1.479 . S
C236 C237 1.375 . S
C236 C242 1.404 . S
C237 C236 1.375 . S
C237 C238 1.369 . S
C237 H250 0.950 . S
C238 C237 1.369 . S
C238 C239 1.392 . S
C238 H251 0.951 . S
C239 C238 1.392 . S
C239 C241 1.384 . S
H240 C242 0.949 . S
C241 C239 1.384 . S
C241 C242 1.385 . S
C241 H243 0.950 . S
C242 C236 1.404 . S
C242 H240 0.949 . S
C242 C241 1.385 . S
H243 C241 0.950 . S
H244 C228 0.951 . S
H245 C230 0.951 . S
H246 C232 0.951 1_455 S
H247 C233 0.950 . S
H248 C234 0.950 . S
H249 C235 0.950 1_655 S
H250 C237 0.950 . S
H251 C238 0.951 . S
C252 C253 1.386 . S
C252 C254 1.383 . S
C252 H268 0.951 . S
C253 C252 1.386 . S
C253 C257 1.383 . S
C254 C252 1.383 . S
C254 C255 1.402 . S
C254 H269 0.951 . S
C255 C254 1.402 . S
C255 C256 1.375 . S
C255 C258 1.481 . S
C256 C255 1.375 . S
C256 C257 1.367 . S
C256 H270 0.951 . S
C257 C253 1.383 . S
C257 C256 1.367 . S
C257 H271 0.950 . S
C258 C255 1.481 . S
C258 C259 1.297 . S
C258 H272 0.950 . S
C259 C258 1.297 . S
C259 C260 1.479 . S
C259 H273 0.950 . S
C260 C259 1.479 . S
C260 C261 1.375 . S
C260 C266 1.404 . S
C261 C260 1.375 . S
C261 C262 1.369 . S
C261 H274 0.950 . S
C262 C261 1.369 . S
C262 C263 1.392 . S
C262 H275 0.951 . S
C263 C262 1.392 . S
C263 C265 1.384 . S
H264 C266 0.949 . S
C265 C263 1.384 . S
C265 C266 1.385 . S
C265 H267 0.950 . S
C266 C260 1.404 . S
C266 H264 0.949 . S
C266 C265 1.385 . S
H267 C265 0.950 . S
H268 C252 0.951 . S
H269 C254 0.951 . S
H270 C256 0.951 . S
H271 C257 0.950 . S
H272 C258 0.950 . S
H273 C259 0.950 . S
H274 C261 0.950 . S
H275 C262 0.951 . S
C276 C277 1.386 1_556 S
C276 C278 1.383 1_545 S
C276 H292 0.951 . S
C277 C276 1.386 1_554 S
C277 C281 1.383 . S
C278 C276 1.383 1_565 S
C278 C279 1.402 1_556 S
C278 H293 0.951 . S
C279 C278 1.402 1_554 S
C279 C280 1.375 . S
C279 C282 1.481 1_554 S
C280 C279 1.375 . S
C280 C281 1.367 1_565 S
C280 H294 0.951 . S
C281 C277 1.383 . S
C281 C280 1.367 1_545 S
C281 H295 0.950 . S
C282 C279 1.481 1_556 S
C282 C283 1.297 . S
C282 H296 0.950 1_556 S
C283 C282 1.297 . S
C283 C284 1.479 . S
C283 H297 0.950 . S
C284 C283 1.479 . S
C284 C285 1.375 . S
C284 C290 1.404 . S
C285 C284 1.375 . S
C285 C286 1.369 . S
C285 H298 0.950 . S
C286 C285 1.369 . S
C286 C287 1.392 . S
C286 H299 0.951 . S
C287 C286 1.392 . S
C287 C289 1.384 . S
H288 C290 0.949 1_554 S
C289 C287 1.384 . S
C289 C290 1.385 . S
C289 H291 0.950 . S
C290 C284 1.404 . S
C290 H288 0.949 1_556 S
C290 C289 1.385 . S
H291 C289 0.950 . S
H292 C276 0.951 . S
H293 C278 0.951 . S
H294 C280 0.951 . S
H295 C281 0.950 . S
H296 C282 0.950 1_554 S
H297 C283 0.950 . S
H298 C285 0.950 . S
H299 C286 0.951 . S
C300 C301 1.386 . S
C300 C302 1.383 . S
C300 H316 0.951 . S
C301 C300 1.386 . S
C301 C305 1.383 . S
C302 C300 1.383 . S
C302 C303 1.402 . S
C302 H317 0.951 . S
C303 C302 1.402 . S
C303 C304 1.375 . S
C303 C306 1.481 . S
C304 C303 1.375 . S
C304 C305 1.367 . S
C304 H318 0.951 . S
C305 C301 1.383 . S
C305 C304 1.367 . S
C305 H319 0.950 . S
C306 C303 1.481 . S
C306 C307 1.297 . S
C306 H320 0.950 . S
C307 C306 1.297 . S
C307 C308 1.479 . S
C307 H321 0.950 . S
C308 C307 1.479 . S
C308 C309 1.375 . S
C308 C314 1.404 . S
C309 C308 1.375 . S
C309 C310 1.371 1_455 S
C309 H322 0.950 . S
C310 C309 1.371 1_655 S
C310 C311 1.390 . S
C310 H323 0.951 . S
C311 C310 1.390 . S
C311 C313 1.384 . S
H312 C314 0.949 . S
C313 C311 1.384 . S
C313 C314 1.385 1_655 S
C313 H315 0.950 . S
C314 C308 1.404 . S
C314 H312 0.949 . S
C314 C313 1.385 1_455 S
H315 C313 0.950 . S
H316 C300 0.951 . S
H317 C302 0.951 . S
H318 C304 0.951 . S
H319 C305 0.950 . S
H320 C306 0.950 . S
H321 C307 0.950 . S
H322 C309 0.950 . S
H323 C310 0.951 . S
C324 C325 1.386 . S
C324 C326 1.383 . S
C324 H340 0.951 . S
C325 C324 1.386 . S
C325 C329 1.383 . S
C326 C324 1.383 . S
C326 C327 1.402 . S
C326 H341 0.951 . S
C327 C326 1.402 . S
C327 C328 1.375 . S
C327 C330 1.481 . S
C328 C327 1.375 . S
C328 C329 1.367 . S
C328 H342 0.951 . S
C329 C325 1.383 . S
C329 C328 1.367 . S
C329 H343 0.950 . S
C330 C327 1.481 . S
C330 C331 1.297 . S
C330 H344 0.950 . S
C331 C330 1.297 . S
C331 C332 1.479 . S
C331 H345 0.950 . S
C332 C331 1.479 . S
C332 C333 1.375 . S
C332 C338 1.404 . S
C333 C332 1.375 . S
C333 C334 1.369 . S
C333 H346 0.950 . S
C334 C333 1.369 . S
C334 C335 1.392 . S
C334 H347 0.951 . S
C335 C334 1.392 . S
C335 C337 1.384 . S
H336 C338 0.949 . S
C337 C335 1.384 . S
C337 C338 1.385 . S
C337 H339 0.950 . S
C338 C332 1.404 . S
C338 H336 0.949 . S
C338 C337 1.385 . S
H339 C337 0.950 . S
H340 C324 0.951 . S
H341 C326 0.951 . S
H342 C328 0.951 . S
H343 C329 0.950 . S
H344 C330 0.950 . S
H345 C331 0.950 . S
H346 C333 0.950 . S
H347 C334 0.951 . S
C348 C349 1.386 1_554 S
C348 C350 1.383 1_455 S
C348 H364 0.951 . S
C349 C348 1.386 1_556 S
C349 C353 1.387 . S
C350 C348 1.383 1_655 S
C350 C351 1.402 1_554 S
C350 H365 0.951 . S
C351 C350 1.402 1_556 S
C351 C352 1.375 . S
C351 C354 1.481 . S
C352 C351 1.375 . S
C352 C353 1.352 1_655 S
C352 H366 0.951 . S
C353 C349 1.387 . S
C353 C352 1.352 1_455 S
C353 H367 0.961 . S
C354 C351 1.481 . S
C354 C355 1.297 1_556 S
C354 H368 0.950 . S
C355 C354 1.297 1_554 S
C355 C356 1.479 . S
C355 H369 0.950 . S
C356 C355 1.479 . S
C356 C357 1.375 . S
C356 C362 1.385 1_554 S
C357 C356 1.375 . S
C357 C358 1.369 . S
C357 H370 0.950 . S
C358 C357 1.369 . S
C358 C359 1.392 . S
C358 H371 0.951 . S
C359 C358 1.392 . S
C359 C361 1.384 . S
H360 C362 0.975 . S
C361 C359 1.384 . S
C361 C362 1.378 1_554 S
C361 H363 0.950 1_554 S
C362 C356 1.385 1_556 S
C362 H360 0.975 . S
C362 C361 1.378 1_556 S
H363 C361 0.950 1_556 S
H364 C348 0.951 . S
H365 C350 0.951 . S
H366 C352 0.951 . S
H367 C353 0.961 . S
H368 C354 0.950 . S
H369 C355 0.950 . S
H370 C357 0.950 . S
H371 C358 0.951 . S
C372 C373 1.386 . S
C372 C374 1.383 . S
C372 H388 0.951 . S
C373 C372 1.386 . S
C373 C377 1.383 . S
C374 C372 1.383 . S
C374 C375 1.402 . S
C374 H389 0.951 . S
C375 C374 1.402 . S
C375 C376 1.375 . S
C375 C378 1.481 . S
C376 C375 1.375 . S
C376 C377 1.367 . S
C376 H390 0.951 . S
C377 C373 1.383 . S
C377 C376 1.367 . S
C377 H391 0.950 . S
C378 C375 1.481 . S
C378 C379 1.297 . S
C378 H392 0.950 . S
C379 C378 1.297 . S
C379 C380 1.479 . S
C379 H393 0.950 . S
C380 C379 1.479 . S
C380 C381 1.375 . S
C380 C386 1.404 . S
C381 C380 1.375 . S
C381 C382 1.369 . S
C381 H394 0.950 . S
C382 C381 1.369 . S
C382 C383 1.392 . S
C382 H395 0.951 . S
C383 C382 1.392 . S
C383 C385 1.384 . S
H384 C386 0.949 . S
C385 C383 1.384 . S
C385 C386 1.385 . S
C385 H387 0.950 . S
C386 C380 1.404 . S
C386 H384 0.949 . S
C386 C385 1.385 . S
H387 C385 0.950 . S
H388 C372 0.951 . S
H389 C374 0.951 . S
H390 C376 0.951 . S
H391 C377 0.950 . S
H392 C378 0.950 . S
H393 C379 0.950 . S
H394 C381 0.950 . S
H395 C382 0.951 . S
C396 C397 1.386 . S
C396 C398 1.383 . S
C396 H412 0.951 . S
C397 C396 1.386 . S
C397 C401 1.383 . S
C398 C396 1.383 . S
C398 C399 1.402 . S
C398 H413 0.951 . S
C399 C398 1.402 . S
C399 C400 1.375 . S
C399 C402 1.481 . S
C400 C399 1.375 . S
C400 C401 1.367 . S
C400 H414 0.951 . S
C401 C397 1.383 . S
C401 C400 1.367 . S
C401 H415 0.950 . S
C402 C399 1.481 . S
C402 C403 1.297 . S
C402 H416 0.950 . S
C403 C402 1.297 . S
C403 C404 1.479 . S
C403 H417 0.950 . S
C404 C403 1.479 . S
C404 C405 1.375 . S
C404 C410 1.404 . S
C405 C404 1.375 . S
C405 C406 1.369 1_545 S
C405 H418 0.950 . S
C406 C405 1.369 1_565 S
C406 C407 1.392 . S
C406 H419 0.951 . S
C407 C406 1.392 . S
C407 C409 1.384 . S
H408 C410 0.949 . S
C409 C407 1.384 . S
C409 C410 1.385 1_565 S
C409 H411 0.950 . S
C410 C404 1.404 . S
C410 H408 0.949 . S
C410 C409 1.385 1_545 S
H411 C409 0.950 . S
H412 C396 0.951 . S
H413 C398 0.951 . S
H414 C400 0.951 . S
H415 C401 0.950 . S
H416 C402 0.950 . S
H417 C403 0.950 . S
H418 C405 0.950 . S
H419 C406 0.951 . S
C420 C421 1.386 . S
C420 C422 1.383 . S
C420 H436 0.951 . S
C421 C420 1.386 . S
C421 C425 1.383 . S
C422 C420 1.383 . S
C422 C423 1.402 . S
C422 H437 0.951 . S
C423 C422 1.402 . S
C423 C424 1.375 . S
C423 C426 1.481 . S
C424 C423 1.375 . S
C424 C425 1.367 . S
C424 H438 0.951 . S
C425 C421 1.383 . S
C425 C424 1.367 . S
C425 H439 0.950 . S
C426 C423 1.481 . S
C426 C427 1.297 . S
C426 H440 0.950 . S
C427 C426 1.297 . S
C427 C428 1.479 . S
C427 H441 0.950 . S
C428 C427 1.479 . S
C428 C429 1.375 . S
C428 C434 1.404 . S
C429 C428 1.375 . S
C429 C430 1.369 . S
C429 H442 0.950 . S
C430 C429 1.369 . S
C430 C431 1.392 . S
C430 H443 0.951 . S
C431 C430 1.392 . S
C431 C433 1.384 . S
H432 C434 0.949 . S
C433 C431 1.384 . S
C433 C434 1.385 . S
C433 H435 0.950 . S
C434 C428 1.404 . S
C434 H432 0.949 . S
C434 C433 1.385 . S
H435 C433 0.950 . S
H436 C420 0.951 . S
H437 C422 0.951 . S
H438 C424 0.951 . S
H439 C425 0.950 . S
H440 C426 0.950 . S
H441 C427 0.950 . S
H442 C429 0.950 . S
H443 C430 0.951 . S
C444 C445 1.386 . S
C444 C446 1.383 . S
C444 H460 0.951 . S
C445 C444 1.386 . S
C445 C449 1.383 . S
C446 C444 1.383 . S
C446 C447 1.402 . S
C446 H461 0.951 . S
C447 C446 1.402 . S
C447 C448 1.375 . S
C447 C450 1.481 . S
C448 C447 1.375 . S
C448 C449 1.367 . S
C448 H462 0.951 . S
C449 C445 1.383 . S
C449 C448 1.367 . S
C449 H463 0.950 . S
C450 C447 1.481 . S
C450 C451 1.297 . S
C450 H464 0.950 . S
C451 C450 1.297 . S
C451 C452 1.479 . S
C451 H465 0.950 . S
C452 C451 1.479 . S
C452 C453 1.375 . S
C452 C458 1.404 . S
C453 C452 1.375 . S
C453 C454 1.369 . S
C453 H466 0.950 . S
C454 C453 1.369 . S
C454 C455 1.392 . S
C454 H467 0.951 . S
C455 C454 1.392 . S
C455 C457 1.384 . S
H456 C458 0.949 . S
C457 C455 1.384 . S
C457 C458 1.385 . S
C457 H459 0.950 . S
C458 C452 1.404 . S
C458 H456 0.949 . S
C458 C457 1.385 . S
H459 C457 0.950 . S
H460 C444 0.951 . S
H461 C446 0.951 . S
H462 C448 0.951 . S
H463 C449 0.950 . S
H464 C450 0.950 . S
H465 C451 0.950 . S
H466 C453 0.950 . S
H467 C454 0.951 . S
C468 C469 1.386 . S
C468 C470 1.383 . S
C468 H484 0.951 . S
C469 C468 1.386 . S
C469 C473 1.383 . S
C470 C468 1.383 . S
C470 C471 1.402 . S
C470 H485 0.951 . S
C471 C470 1.402 . S
C471 C472 1.375 . S
C471 C474 1.481 . S
C472 C471 1.375 . S
C472 C473 1.367 . S
C472 H486 0.951 . S
C473 C469 1.383 . S
C473 C472 1.367 . S
C473 H487 0.950 . S
C474 C471 1.481 . S
C474 C475 1.297 . S
C474 H488 0.950 . S
C475 C474 1.297 . S
C475 C476 1.479 . S
C475 H489 0.950 . S
C476 C475 1.479 . S
C476 C477 1.375 . S
C476 C482 1.404 . S
C477 C476 1.375 . S
C477 C478 1.369 . S
C477 H490 0.950 . S
C478 C477 1.369 . S
C478 C479 1.392 . S
C478 H491 0.951 . S
C479 C478 1.392 . S
C479 C481 1.384 . S
H480 C482 0.949 . S
C481 C479 1.384 . S
C481 C482 1.385 . S
C481 H483 0.950 . S
C482 C476 1.404 . S
C482 H480 0.949 . S
C482 C481 1.385 . S
H483 C481 0.950 . S
H484 C468 0.951 . S
H485 C470 0.951 . S
H486 C472 0.951 . S
H487 C473 0.950 . S
H488 C474 0.950 . S
H489 C475 0.950 . S
H490 C477 0.950 . S
H491 C478 0.951 . S
C492 C493 1.386 . S
C492 C494 1.383 . S
C492 H508 0.951 . S
C493 C492 1.386 . S
C493 C497 1.383 . S
C494 C492 1.383 . S
C494 C495 1.402 . S
C494 H509 0.951 . S
C495 C494 1.402 . S
C495 C496 1.375 . S
C495 C498 1.481 . S
C496 C495 1.375 . S
C496 C497 1.367 . S
C496 H510 0.951 . S
C497 C493 1.383 . S
C497 C496 1.367 . S
C497 H511 0.950 . S
C498 C495 1.481 . S
C498 C499 1.297 . S
C498 H512 0.950 . S
C499 C498 1.297 . S
C499 C500 1.479 . S
C499 H513 0.950 . S
C500 C499 1.479 . S
C500 C501 1.375 . S
C500 C506 1.404 . S
C501 C500 1.375 . S
C501 C502 1.369 . S
C501 H514 0.950 . S
C502 C501 1.369 . S
C502 C503 1.392 . S
C502 H515 0.951 . S
C503 C502 1.392 . S
C503 C505 1.384 . S
H504 C506 0.949 . S
C505 C503 1.384 . S
C505 C506 1.385 . S
C505 H507 0.950 . S
C506 C500 1.404 . S
C506 H504 0.949 . S
C506 C505 1.385 . S
H507 C505 0.950 . S
H508 C492 0.951 . S
H509 C494 0.951 . S
H510 C496 0.951 . S
H511 C497 0.950 . S
H512 C498 0.950 . S
H513 C499 0.950 . S
H514 C501 0.950 . S
H515 C502 0.951 . S
C516 C517 1.386 . S
C516 C518 1.383 . S
C516 H532 0.951 . S
C517 C516 1.386 . S
C517 C521 1.383 . S
C518 C516 1.383 . S
C518 C519 1.402 . S
C518 H533 0.951 . S
C519 C518 1.402 . S
C519 C520 1.375 . S
C519 C522 1.481 . S
C520 C519 1.375 . S
C520 C521 1.367 . S
C520 H534 0.951 . S
C521 C517 1.383 . S
C521 C520 1.367 . S
C521 H535 0.950 . S
C522 C519 1.481 . S
C522 C523 1.297 . S
C522 H536 0.950 . S
C523 C522 1.297 . S
C523 C524 1.479 . S
C523 H537 0.950 . S
C524 C523 1.479 . S
C524 C525 1.375 . S
C524 C530 1.404 . S
C525 C524 1.375 . S
C525 C526 1.369 . S
C525 H538 0.950 . S
C526 C525 1.369 . S
C526 C527 1.392 . S
C526 H539 0.951 . S
C527 C526 1.392 . S
C527 C529 1.384 . S
H528 C530 0.949 . S
C529 C527 1.384 . S
C529 C530 1.385 . S
C529 H531 0.950 . S
C530 C524 1.404 . S
C530 H528 0.949 . S
C530 C529 1.385 . S
H531 C529 0.950 . S
H532 C516 0.951 . S
H533 C518 0.951 . S
H534 C520 0.951 . S
H535 C521 0.950 . S
H536 C522 0.950 . S
H537 C523 0.950 . S
H538 C525 0.950 . S
H539 C526 0.951 . S
C540 C541 1.386 . S
C540 C542 1.383 . S
C540 H556 0.951 . S
C541 C540 1.386 . S
C541 C545 1.383 . S
C542 C540 1.383 . S
C542 C543 1.402 . S
C542 H557 0.951 . S
C543 C542 1.402 . S
C543 C544 1.375 . S
C543 C546 1.481 . S
C544 C543 1.375 . S
C544 C545 1.367 . S
C544 H558 0.951 . S
C545 C541 1.383 . S
C545 C544 1.367 . S
C545 H559 0.950 . S
C546 C543 1.481 . S
C546 C547 1.297 . S
C546 H560 0.950 . S
C547 C546 1.297 . S
C547 C548 1.479 . S
C547 H561 0.950 . S
C548 C547 1.479 . S
C548 C549 1.375 . S
C548 C554 1.404 . S
C549 C548 1.375 . S
C549 C550 1.369 . S
C549 H562 0.950 . S
C550 C549 1.369 . S
C550 C551 1.392 . S
C550 H563 0.951 . S
C551 C550 1.392 . S
C551 C553 1.384 . S
H552 C554 0.949 . S
C553 C551 1.384 . S
C553 C554 1.385 . S
C553 H555 0.950 . S
C554 C548 1.404 . S
C554 H552 0.949 . S
C554 C553 1.385 . S
H555 C553 0.950 . S
H556 C540 0.951 . S
H557 C542 0.951 . S
H558 C544 0.951 . S
H559 C545 0.950 . S
H560 C546 0.950 . S
H561 C547 0.950 . S
H562 C549 0.950 . S
H563 C550 0.951 . S
C133 C84 1.850 . S
C143 C8 1.821 . S
C157 C32 1.842 . S
C167 C106 1.845 . S
C181 C128 1.856 . S
C191 C52 1.815 . S
C205 C125 0.703 . S
C215 C7 0.706 . S
C229 C43 0.763 . S
C239 C81 0.702 . S
C253 C51 0.754 . S
C263 C103 0.816 . S
C277 C18 1.351 . S
C287 C87 1.300 . S
C301 C109 1.342 . S
C311 C30 1.306 . S
C325 C131 1.349 . S
C335 C62 1.390 . S
C349 C76 1.335 . S
C359 C15 1.316 . S
C373 C98 1.375 . S
C383 C29 1.353 . S
C397 C59 1.331 . S
C407 C120 1.326 . S
C421 C21 1.246 . S
C431 C54 1.249 . S
C445 C10 1.221 . S
C455 C37 1.227 . S
C469 C65 1.242 . S
C479 C40 1.244 . S
C493 C73 1.247 . S
C503 C96 1.250 . S
C517 C95 1.247 . S
C527 C118 1.250 . S
C541 C74 1.219 . S
C551 C117 1.225 . S
