# Generated by pormake.
# Topology irl, (4)-cn, num edge types: 1
# Building blocks:
#     Node 0, Type 0, BuildingBlock: CEKHIL_clean_sbu_0, # of connection points: 4
#     Node 1, Type 0, BuildingBlock: CEKHIL_clean_sbu_0, # of connection points: 4
#     Node 2, Type 0, BuildingBlock: CEKHIL_clean_sbu_0, # of connection points: 4
#     Node 3, Type 0, BuildingBlock: CEKHIL_clean_sbu_0, # of connection points: 4
#     Node 4, Type 0, BuildingBlock: CEKHIL_clean_sbu_0, # of connection points: 4
#     Node 5, Type 0, BuildingBlock: CEKHIL_clean_sbu_0, # of connection points: 4
#     Node 6, Type 0, BuildingBlock: CEKHIL_clean_sbu_0, # of connection points: 4
#     Node 7, Type 0, BuildingBlock: CEKHIL_clean_sbu_0, # of connection points: 4
#     Edge 8, Type (0, 0), BuildingBlock: AJUNOK_clean_linker_0, # of connection points: 2
#     Edge 9, Type (0, 0), BuildingBlock: AJUNOK_clean_linker_0, # of connection points: 2
#     Edge 10, Type (0, 0), BuildingBlock: AJUNOK_clean_linker_0, # of connection points: 2
#     Edge 11, Type (0, 0), BuildingBlock: AJUNOK_clean_linker_0, # of connection points: 2
#     Edge 12, Type (0, 0), BuildingBlock: AJUNOK_clean_linker_0, # of connection points: 2
#     Edge 13, Type (0, 0), BuildingBlock: AJUNOK_clean_linker_0, # of connection points: 2
#     Edge 14, Type (0, 0), BuildingBlock: AJUNOK_clean_linker_0, # of connection points: 2
#     Edge 15, Type (0, 0), BuildingBlock: AJUNOK_clean_linker_0, # of connection points: 2
#     Edge 16, Type (0, 0), BuildingBlock: AJUNOK_clean_linker_0, # of connection points: 2
#     Edge 17, Type (0, 0), BuildingBlock: AJUNOK_clean_linker_0, # of connection points: 2
#     Edge 18, Type (0, 0), BuildingBlock: AJUNOK_clean_linker_0, # of connection points: 2
#     Edge 19, Type (0, 0), BuildingBlock: AJUNOK_clean_linker_0, # of connection points: 2
#     Edge 20, Type (0, 0), BuildingBlock: AJUNOK_clean_linker_0, # of connection points: 2
#     Edge 21, Type (0, 0), BuildingBlock: AJUNOK_clean_linker_0, # of connection points: 2
#     Edge 22, Type (0, 0), BuildingBlock: AJUNOK_clean_linker_0, # of connection points: 2
#     Edge 23, Type (0, 0), BuildingBlock: AJUNOK_clean_linker_0, # of connection points: 2
# Relax obj value: 0.064
# Max RMSD: 0.128
# Mean RMSD: 0.128
data_MOF--net-irl--node1-CEKHIL_clean_sbu_0--edge1-AJUNOK_clean_linker_0
_symmetry_space_group_name_H-M    P1
_symmetry_Int_Tables_number       1
_symmetry_cell_setting            triclinic
loop_
_symmetry_equiv_pos_as_xyz
'x, y, z'
_cell_length_a     24.264574
_cell_length_b     33.805486
_cell_length_c     20.187348
_cell_angle_alpha  90.065361
_cell_angle_beta   89.999319
_cell_angle_gamma 89.973307
loop_
_atom_site_label
_atom_site_type_symbol
_atom_site_fract_x
_atom_site_fract_y
_atom_site_fract_z
_atom_type_partial_charge
Co0 Co 0.07798 0.16738 0.99397 0.0
O1 O 0.11095 0.21894 0.9922 0.0
O2 O 0.15374 0.16515 0.0265 0.0
C3 C 0.04261 0.17028 0.89116 0.0
O4 O 0.05378 0.10886 0.99989 0.0
Co5 Co 0.95129 0.16445 0.98988 0.0
O6 O 0.96274 0.10687 0.9783 0.0
C7 C 0.00557 0.18627 0.11414 0.0
C8 C 0.15532 0.20321 0.01576 0.0
C9 C 0.00842 0.08947 0.98942 0.0
O10 O 0.05157 0.17765 0.08652 0.0
O11 O 0.95979 0.1857 0.08261 0.0
O12 O 0.09352 0.16006 0.90059 0.0
O13 O 0.01659 0.18263 0.94336 0.0
Co14 Co 0.92499 0.83901 0.99526 0.0
O15 O 0.89186 0.78756 0.99362 0.0
O16 O 0.84938 0.84135 0.02874 0.0
C17 C 0.95923 0.83631 0.89178 0.0
O18 O 0.95027 0.8974 0.00122 0.0
Co19 Co 0.05194 0.8396 0.98957 0.0
O20 O 0.04161 0.89739 0.98036 0.0
C21 C 0.99828 0.81961 0.11485 0.0
C22 C 0.84786 0.80325 0.01809 0.0
C23 C 0.9967 0.91569 0.99192 0.0
O24 O 0.95224 0.82859 0.08754 0.0
O25 O 0.04372 0.81909 0.08267 0.0
O26 O 0.90849 0.8466 0.90212 0.0
O27 O 0.98551 0.82349 0.9434 0.0
Co28 Co 0.07556 0.84223 0.51818 0.0
O29 O 0.10946 0.79104 0.51919 0.0
O30 O 0.1501 0.84494 0.48154 0.0
C31 C 0.04448 0.83957 0.62301 0.0
O32 O 0.04955 0.9004 0.51226 0.0
Co33 Co 0.94901 0.84264 0.52872 0.0
O34 O 0.95869 0.90059 0.53585 0.0
C35 C 0.99956 0.82115 0.40221 0.0
C36 C 0.15241 0.80691 0.49249 0.0
C37 C 0.00331 0.91878 0.52255 0.0
O38 O 0.04605 0.83079 0.42751 0.0
O39 O 0.9547 0.8213 0.43561 0.0
O40 O 0.09451 0.85058 0.61024 0.0
O41 O 0.01666 0.82651 0.57264 0.0
Co42 Co 0.92467 0.17105 0.51832 0.0
O43 O 0.89302 0.22307 0.5188 0.0
O44 O 0.85013 0.16997 0.48163 0.0
C45 C 0.95563 0.17322 0.6232 0.0
O46 O 0.94782 0.11225 0.51306 0.0
Co47 Co 0.0511 0.16694 0.52992 0.0
O48 O 0.03791 0.10948 0.53974 0.0
C49 C 0.0024 0.18798 0.40196 0.0
C50 C 0.84924 0.20804 0.4926 0.0
C51 C 0.9925 0.09249 0.52567 0.0
O52 O 0.95506 0.18104 0.42757 0.0
O53 O 0.04697 0.18673 0.43584 0.0
O54 O 0.90504 0.16364 0.61037 0.0
O55 O 0.98422 0.18538 0.57287 0.0
Co56 Co 0.57513 0.66946 0.98795 0.0
O57 O 0.60978 0.72042 0.98684 0.0
O58 O 0.64959 0.66628 0.02454 0.0
C59 C 0.54406 0.6723 0.8832 0.0
O60 O 0.54844 0.61142 0.99377 0.0
Co61 Co 0.44859 0.66973 0.97733 0.0
O62 O 0.45814 0.61189 0.96776 0.0
C63 C 0.49921 0.68998 0.10442 0.0
C64 C 0.65273 0.70422 0.01304 0.0
C65 C 0.50229 0.59331 0.98187 0.0
O66 O 0.54576 0.6809 0.07867 0.0
O67 O 0.45427 0.68988 0.07118 0.0
O68 O 0.594 0.66103 0.89591 0.0
O69 O 0.51638 0.68555 0.93355 0.0
Co70 Co 0.42402 0.34092 0.98947 0.0
O71 O 0.39218 0.289 0.98906 0.0
O72 O 0.3494 0.34232 0.02584 0.0
C73 C 0.45532 0.33848 0.88478 0.0
O74 O 0.44722 0.39968 0.99459 0.0
Co75 Co 0.55039 0.34495 0.97884 0.0
O76 O 0.53763 0.40249 0.96946 0.0
C77 C 0.50106 0.32284 0.10576 0.0
C78 C 0.34847 0.30423 0.01517 0.0
C79 C 0.49199 0.41944 0.98264 0.0
O80 O 0.45399 0.33073 0.08031 0.0
O81 O 0.54588 0.32427 0.07237 0.0
O82 O 0.40476 0.3483 0.89737 0.0
O83 O 0.48378 0.32635 0.93528 0.0
Co84 Co 0.57605 0.34238 0.51313 0.0
O85 O 0.61066 0.29138 0.51455 0.0
O86 O 0.65167 0.34581 0.4801 0.0
C87 C 0.54156 0.33886 0.61642 0.0
O88 O 0.54944 0.40048 0.50764 0.0
Co89 Co 0.44916 0.34193 0.51863 0.0
O90 O 0.45849 0.39968 0.53008 0.0
C91 C 0.50338 0.32252 0.39325 0.0
C92 C 0.65447 0.30778 0.49092 0.0
C93 C 0.50293 0.41845 0.51828 0.0
O94 O 0.5493 0.33178 0.42063 0.0
O95 O 0.45793 0.32167 0.42539 0.0
O96 O 0.59202 0.34994 0.60646 0.0
O97 O 0.51577 0.32595 0.56449 0.0
Co98 Co 0.42347 0.67071 0.51157 0.0
O99 O 0.39094 0.72247 0.51282 0.0
O100 O 0.34793 0.66876 0.47845 0.0
C101 C 0.45811 0.6736 0.61477 0.0
O102 O 0.44704 0.61201 0.50636 0.0
Co103 Co 0.55014 0.66703 0.51713 0.0
O104 O 0.53805 0.60952 0.52828 0.0
C105 C 0.49715 0.68848 0.39193 0.0
C106 C 0.3465 0.70684 0.48923 0.0
C107 C 0.49218 0.5924 0.51714 0.0
O108 O 0.45071 0.68048 0.41911 0.0
O109 O 0.54256 0.68786 0.42416 0.0
O110 O 0.40714 0.66377 0.60482 0.0
O111 O 0.48466 0.68569 0.56283 0.0
C112 C 0.95315 0.98332 0.98285 0.0
C113 C 0.99993 0.95991 0.99452 0.0
C114 C 0.95667 0.02485 0.98116 0.0
C115 C 0.00707 0.0451 0.99156 0.0
H116 H 0.91362 0.96951 0.9736 0.0
H117 H 0.91913 0.04114 0.97125 0.0
S118 S 0.14143 0.99762 0.02876 0.0
N119 N 0.09825 0.96029 0.01996 0.0
N120 N 0.10445 0.03793 0.01664 0.0
C121 C 0.05399 0.02202 0.00463 0.0
C122 C 0.05051 0.97969 0.00618 0.0
C123 C 0.04717 0.9862 0.5309 0.0
C124 C 1.00023 0.96295 0.51947 0.0
C125 C 0.04388 0.02772 0.53274 0.0
C126 C 0.99354 0.04814 0.52269 0.0
H127 H 0.08665 0.97227 0.54001 0.0
H128 H 0.08155 0.04385 0.54255 0.0
S129 S 0.85889 1.00106 0.48574 0.0
N130 N 0.9019 0.96358 0.49432 0.0
N131 N 0.89608 0.04128 0.49782 0.0
C132 C 0.94649 0.02522 0.50957 0.0
C133 C 0.94975 0.98286 0.50794 0.0
C134 C 0.54657 0.5257 0.98454 0.0
C135 C 0.49868 0.54904 0.98475 0.0
C136 C 0.54365 0.48415 0.98438 0.0
C137 C 0.49267 0.46377 0.9849 0.0
H138 H 0.58681 0.53955 0.98345 0.0
H139 H 0.58213 0.46792 0.98367 0.0
S140 S 0.35456 0.51074 0.98883 0.0
N141 N 0.39803 0.54826 0.98797 0.0
N142 N 0.39313 0.47055 0.98752 0.0
C143 C 0.44442 0.48668 0.98648 0.0
C144 C 0.44727 0.52906 0.98638 0.0
C145 C 0.54701 0.48614 0.51585 0.0
C146 C 0.49917 0.46275 0.51627 0.0
C147 C 0.54399 0.52769 0.51581 0.0
C148 C 0.49297 0.54805 0.51576 0.0
H149 H 0.58729 0.47232 0.5163 0.0
H150 H 0.58244 0.54394 0.51584 0.0
S151 S 0.35491 0.50103 0.51461 0.0
N152 N 0.39846 0.46353 0.51495 0.0
N153 N 0.39343 0.54122 0.51497 0.0
C154 C 0.44476 0.52511 0.51523 0.0
C155 C 0.4477 0.48272 0.51552 0.0
C156 C 0.95579 0.1917 0.22244 0.0
C157 C 0.00552 0.19339 0.1869 0.0
C158 C 0.95531 0.19207 0.29177 0.0
C159 C 0.00455 0.19406 0.32889 0.0
H160 H 0.91688 0.18829 0.19677 0.0
H161 H 0.91578 0.18916 0.31622 0.0
S162 S 0.14536 0.20586 0.25956 0.0
N163 N 0.10505 0.20235 0.19398 0.0
N164 N 0.10406 0.2026 0.32429 0.0
C165 C 0.05434 0.19861 0.29399 0.0
C166 C 0.05484 0.19835 0.22313 0.0
C167 C 0.94943 0.82006 0.29382 0.0
C168 C 0.9981 0.81346 0.32979 0.0
C169 C 0.94954 0.81997 0.22441 0.0
C170 C 0.99834 0.81328 0.18791 0.0
H171 H 0.91146 0.8274 0.31924 0.0
H172 H 0.91125 0.82693 0.19942 0.0
S173 S 0.13474 0.78713 0.25906 0.0
N174 N 0.09486 0.79458 0.32411 0.0
N175 N 0.09517 0.7947 0.19377 0.0
C176 C 0.04644 0.80368 0.22341 0.0
C177 C 0.04628 0.80371 0.29421 0.0
C178 C 0.96685 0.83828 0.70422 0.0
C179 C 0.02371 0.83836 0.69177 0.0
C180 C 0.94664 0.83783 0.76924 0.0
C181 C 0.98254 0.83665 0.82414 0.0
H182 H 0.93775 0.83912 0.66354 0.0
H183 H 0.9024 0.83808 0.77641 0.0
S184 S 0.13514 0.83536 0.81806 0.0
N185 N 0.11589 0.83682 0.73967 0.0
N186 N 0.07758 0.83512 0.86162 0.0
C187 C 0.03946 0.83618 0.81236 0.0
C188 C 0.06012 0.83729 0.74621 0.0
C189 C 0.05442 0.17024 0.76845 0.0
C190 C 0.01892 0.17108 0.82373 0.0
C191 C 0.0338 0.17143 0.70365 0.0
C192 C 0.97688 0.17278 0.69177 0.0
H193 H 0.09869 0.16905 0.77515 0.0
H194 H 0.06261 0.17079 0.66267 0.0
S195 S 0.86637 0.1754 0.81926 0.0
N196 N 0.92419 0.17366 0.86222 0.0
N197 N 0.88509 0.17513 0.74064 0.0
C198 C 0.94085 0.17345 0.74659 0.0
C199 C 0.96195 0.17283 0.81255 0.0
C200 C 0.44886 0.69041 0.21274 0.0
C201 C 0.49778 0.69678 0.17712 0.0
C202 C 0.44877 0.68968 0.28214 0.0
C203 C 0.49762 0.69529 0.31901 0.0
H204 H 0.41075 0.68391 0.18697 0.0
H205 H 0.41024 0.68298 0.30679 0.0
S206 S 0.63498 0.7201 0.24927 0.0
N207 N 0.59508 0.71406 0.18385 0.0
N208 N 0.59498 0.71241 0.31412 0.0
C209 C 0.54608 0.70454 0.28399 0.0
C210 C 0.54614 0.70535 0.21322 0.0
C211 C 0.55161 0.32399 0.2834 0.0
C212 C 0.50335 0.31613 0.3202 0.0
C213 C 0.55147 0.32378 0.21399 0.0
C214 C 0.50307 0.3157 0.17831 0.0
H215 H 0.58958 0.33208 0.30815 0.0
H216 H 0.58895 0.33201 0.18833 0.0
S217 S 0.36813 0.28613 0.24999 0.0
N218 N 0.40753 0.295 0.315 0.0
N219 N 0.40736 0.29435 0.18467 0.0
C220 C 0.45554 0.30489 0.21422 0.0
C221 C 0.45564 0.30516 0.28501 0.0
C222 C 0.53328 0.33953 0.80399 0.0
C223 C 0.47641 0.33807 0.81614 0.0
C224 C 0.55372 0.34004 0.73907 0.0
C225 C 0.51808 0.33834 0.68396 0.0
H226 H 0.56219 0.34085 0.84484 0.0
H227 H 0.59794 0.34144 0.73213 0.0
S228 S 0.3656 0.33313 0.68922 0.0
N229 N 0.38453 0.33452 0.76774 0.0
N230 N 0.42328 0.33467 0.64597 0.0
C231 C 0.46117 0.33635 0.69545 0.0
C232 C 0.44025 0.33646 0.7615 0.0
C233 C 0.46617 0.67289 0.80234 0.0
C234 C 0.52306 0.67313 0.81455 0.0
C235 C 0.44579 0.67278 0.73739 0.0
C236 C 0.48154 0.67368 0.68233 0.0
H237 H 0.43719 0.67221 0.84315 0.0
H238 H 0.40153 0.67231 0.7304 0.0
S239 S 0.63416 0.67573 0.68785 0.0
N240 N 0.6151 0.67476 0.76633 0.0
N241 N 0.5765 0.67536 0.64449 0.0
C242 C 0.5385 0.67448 0.6939 0.0
C243 C 0.55933 0.67396 0.75998 0.0
C244 C 0.24629 0.29469 0.02283 0.0
C245 C 0.29959 0.27889 0.02737 0.0
C246 C 0.1999 0.26988 0.02201 0.0
C247 C 0.2049 0.22831 0.02638 0.0
H248 H 0.24044 0.32622 0.01629 0.0
H249 H 0.15981 0.28347 0.0157 0.0
S250 S 0.33521 0.17277 0.04945 0.0
N251 N 0.35463 0.21946 0.04374 0.0
N252 N 0.2674 0.17303 0.04262 0.0
C253 C 0.25776 0.2124 0.03568 0.0
C254 C 0.30507 0.23764 0.03599 0.0
C255 C 0.69846 0.77036 0.02213 0.0
C256 C 0.7026 0.7287 0.02547 0.0
C257 C 0.74533 0.7947 0.02411 0.0
C258 C 0.79828 0.77831 0.02881 0.0
H259 H 0.65868 0.7844 0.0157 0.0
H260 H 0.74015 0.82634 0.01836 0.0
S261 S 0.83155 0.67155 0.04808 0.0
N262 N 0.7638 0.67262 0.04066 0.0
N263 N 0.85195 0.71808 0.044 0.0
C264 C 0.80284 0.7369 0.03637 0.0
C265 C 0.75503 0.71216 0.0349 0.0
C266 C 0.25478 0.79812 0.48508 0.0
C267 C 0.20169 0.78214 0.47933 0.0
C268 C 0.30141 0.77348 0.4853 0.0
C269 C 0.29682 0.73195 0.47912 0.0
H270 H 0.26023 0.82957 0.49311 0.0
H271 H 0.34132 0.78714 0.49266 0.0
S272 S 0.16717 0.67624 0.45234 0.0
N273 N 0.14731 0.72276 0.45983 0.0
N274 N 0.23493 0.67667 0.45989 0.0
C275 C 0.24418 0.71597 0.46861 0.0
C276 C 0.19665 0.74101 0.46887 0.0
C277 C 0.70035 0.2417 0.4818 0.0
C278 C 0.70476 0.28337 0.48054 0.0
C279 C 0.74714 0.21725 0.48151 0.0
C280 C 0.80031 0.2335 0.48068 0.0
H281 H 0.6603 0.22769 0.48517 0.0
H282 H 0.74157 0.18554 0.48538 0.0
S283 S 0.83472 0.34044 0.46878 0.0
N284 N 0.76673 0.33948 0.47194 0.0
N285 N 0.85477 0.29379 0.47181 0.0
C286 C 0.80534 0.27501 0.47547 0.0
C287 C 0.75759 0.29988 0.4752 0.0
loop_
_geom_bond_atom_site_label_1
_geom_bond_atom_site_label_2
_geom_bond_distance
_geom_bond_site_symmetry_2
_ccdc_geom_bond_type
Co0 O1 2.216 . S
Co0 O2 2.091 1_556 S
Co0 O4 2.004 . S
Co0 O10 2.021 1_556 S
Co0 O12 2.137 . S
Co0 O13 2.244 1_455 S
O1 Co0 2.216 . S
O1 C8 1.247 1_556 S
O2 Co0 2.091 1_554 S
O2 C8 1.261 . S
C3 O12 1.247 . S
C3 O13 1.272 1_455 S
O4 Co0 2.004 . S
O4 C9 1.260 . S
Co5 O6 2.061 . S
Co5 O11 2.052 . S
Co5 O13 2.135 1_554 S
O6 Co5 2.061 . S
O6 C9 1.234 1_654 S
C7 O10 1.238 1_655 S
C7 O11 1.241 . S
C8 O1 1.247 1_554 S
C8 O2 1.261 . S
C9 O4 1.260 . S
C9 O6 1.234 1_456 S
O10 Co0 2.021 1_554 S
O10 C7 1.238 1_455 S
O11 Co5 2.052 . S
O11 C7 1.241 . S
O12 Co0 2.137 . S
O12 C3 1.247 . S
O13 Co0 2.244 1_655 S
O13 C3 1.272 1_655 S
O13 Co5 2.135 1_556 S
Co14 O15 2.216 . S
Co14 O16 2.091 1_556 S
Co14 O18 2.004 . S
Co14 O24 2.021 1_556 S
Co14 O26 2.137 . S
Co14 O27 2.244 1_655 S
O15 Co14 2.216 . S
O15 C22 1.247 1_556 S
O16 Co14 2.091 1_554 S
O16 C22 1.261 . S
C17 O26 1.247 . S
C17 O27 1.272 1_655 S
O18 Co14 2.004 . S
O18 C23 1.260 . S
Co19 O20 2.061 . S
Co19 O25 2.052 . S
Co19 O27 2.135 1_554 S
O20 Co19 2.061 . S
O20 C23 1.234 1_454 S
C21 O24 1.238 1_455 S
C21 O25 1.241 . S
C22 O15 1.247 1_554 S
C22 O16 1.261 . S
C23 O18 1.260 . S
C23 O20 1.234 1_656 S
O24 Co14 2.021 1_554 S
O24 C21 1.238 1_655 S
O25 Co19 2.052 . S
O25 C21 1.241 . S
O26 Co14 2.137 . S
O26 C17 1.247 . S
O27 Co14 2.244 1_455 S
O27 C17 1.272 1_455 S
O27 Co19 2.135 1_556 S
Co28 O29 2.216 . S
Co28 O30 2.091 . S
Co28 O32 2.004 . S
Co28 O38 2.021 . S
Co28 O40 2.137 . S
Co28 O41 2.244 1_455 S
O29 Co28 2.216 . S
O29 C36 1.247 . S
O30 Co28 2.091 . S
O30 C36 1.261 . S
C31 O40 1.247 . S
C31 O41 1.272 1_455 S
O32 Co28 2.004 . S
O32 C37 1.259 . S
Co33 O34 2.061 . S
Co33 O39 2.052 . S
Co33 O41 2.135 . S
O34 Co33 2.061 . S
O34 C37 1.235 1_655 S
C35 O38 1.238 1_655 S
C35 O39 1.241 . S
C36 O29 1.247 . S
C36 O30 1.261 . S
C37 O32 1.259 . S
C37 O34 1.235 1_455 S
O38 Co28 2.021 . S
O38 C35 1.238 1_455 S
O39 Co33 2.052 . S
O39 C35 1.241 . S
O40 Co28 2.137 . S
O40 C31 1.247 . S
O41 Co28 2.244 1_655 S
O41 C31 1.272 1_655 S
O41 Co33 2.135 . S
Co42 O43 2.216 . S
Co42 O44 2.091 . S
Co42 O46 2.004 . S
Co42 O52 2.021 . S
Co42 O54 2.137 . S
Co42 O55 2.244 1_655 S
O43 Co42 2.216 . S
O43 C50 1.247 . S
O44 Co42 2.091 . S
O44 C50 1.261 . S
C45 O54 1.247 . S
C45 O55 1.272 1_655 S
O46 Co42 2.004 . S
O46 C51 1.259 . S
Co47 O48 2.061 . S
Co47 O53 2.052 . S
Co47 O55 2.135 . S
O48 Co47 2.061 . S
O48 C51 1.235 1_455 S
C49 O52 1.238 1_455 S
C49 O53 1.241 . S
C50 O43 1.247 . S
C50 O44 1.261 . S
C51 O46 1.259 . S
C51 O48 1.235 1_655 S
O52 Co42 2.021 . S
O52 C49 1.238 1_655 S
O53 Co47 2.052 . S
O53 C49 1.241 . S
O54 Co42 2.137 . S
O54 C45 1.247 . S
O55 Co42 2.244 1_455 S
O55 C45 1.272 1_455 S
O55 Co47 2.135 . S
Co56 O57 2.216 . S
Co56 O58 2.091 1_556 S
Co56 O60 2.004 . S
Co56 O66 2.021 1_556 S
Co56 O68 2.137 . S
Co56 O69 2.244 . S
O57 Co56 2.216 . S
O57 C64 1.247 1_556 S
O58 Co56 2.091 1_554 S
O58 C64 1.261 . S
C59 O68 1.247 . S
C59 O69 1.272 . S
O60 Co56 2.004 . S
O60 C65 1.260 . S
Co61 O62 2.061 . S
Co61 O67 2.052 . S
Co61 O69 2.135 1_554 S
O62 Co61 2.061 . S
O62 C65 1.234 1_554 S
C63 O66 1.238 . S
C63 O67 1.241 . S
C64 O57 1.247 1_554 S
C64 O58 1.261 . S
C65 O60 1.260 . S
C65 O62 1.234 1_556 S
O66 Co56 2.021 1_554 S
O66 C63 1.238 . S
O67 Co61 2.052 . S
O67 C63 1.241 . S
O68 Co56 2.137 . S
O68 C59 1.247 . S
O69 Co56 2.244 . S
O69 C59 1.272 . S
O69 Co61 2.135 1_556 S
Co70 O71 2.216 . S
Co70 O72 2.091 1_556 S
Co70 O74 2.004 . S
Co70 O80 2.021 1_556 S
Co70 O82 2.137 . S
Co70 O83 2.244 . S
O71 Co70 2.216 . S
O71 C78 1.247 1_556 S
O72 Co70 2.091 1_554 S
O72 C78 1.261 . S
C73 O82 1.247 . S
C73 O83 1.272 . S
O74 Co70 2.004 . S
O74 C79 1.260 . S
Co75 O76 2.061 . S
Co75 O81 2.052 . S
Co75 O83 2.135 1_554 S
O76 Co75 2.061 . S
O76 C79 1.234 1_554 S
C77 O80 1.238 . S
C77 O81 1.241 . S
C78 O71 1.247 1_554 S
C78 O72 1.261 . S
C79 O74 1.260 . S
C79 O76 1.234 1_556 S
O80 Co70 2.021 1_554 S
O80 C77 1.238 . S
O81 Co75 2.052 . S
O81 C77 1.241 . S
O82 Co70 2.137 . S
O82 C73 1.247 . S
O83 Co70 2.244 . S
O83 C73 1.272 . S
O83 Co75 2.135 1_556 S
Co84 O85 2.216 . S
Co84 O86 2.091 . S
Co84 O88 2.004 . S
Co84 O94 2.021 . S
Co84 O96 2.137 . S
Co84 O97 2.244 . S
O85 Co84 2.216 . S
O85 C92 1.247 . S
O86 Co84 2.091 . S
O86 C92 1.261 . S
C87 O96 1.247 . S
C87 O97 1.272 . S
O88 Co84 2.004 . S
O88 C93 1.259 . S
Co89 O90 2.061 . S
Co89 O95 2.052 . S
Co89 O97 2.135 . S
O90 Co89 2.061 . S
O90 C93 1.235 . S
C91 O94 1.238 . S
C91 O95 1.241 . S
C92 O85 1.247 . S
C92 O86 1.261 . S
C93 O88 1.259 . S
C93 O90 1.235 . S
O94 Co84 2.021 . S
O94 C91 1.238 . S
O95 Co89 2.052 . S
O95 C91 1.241 . S
O96 Co84 2.137 . S
O96 C87 1.247 . S
O97 Co84 2.244 . S
O97 C87 1.272 . S
O97 Co89 2.135 . S
Co98 O99 2.216 . S
Co98 O100 2.091 . S
Co98 O102 2.004 . S
Co98 O108 2.021 . S
Co98 O110 2.137 . S
Co98 O111 2.244 . S
O99 Co98 2.216 . S
O99 C106 1.247 . S
O100 Co98 2.091 . S
O100 C106 1.261 . S
C101 O110 1.247 . S
C101 O111 1.272 . S
O102 Co98 2.004 . S
O102 C107 1.259 . S
Co103 O104 2.061 . S
Co103 O109 2.052 . S
Co103 O111 2.135 . S
O104 Co103 2.061 . S
O104 C107 1.235 . S
C105 O108 1.238 . S
C105 O109 1.241 . S
C106 O99 1.247 . S
C106 O100 1.261 . S
C107 O102 1.259 . S
C107 O104 1.235 . S
O108 Co98 2.021 . S
O108 C105 1.238 . S
O109 Co103 2.052 . S
O109 C105 1.241 . S
O110 Co98 2.137 . S
O110 C101 1.247 . S
O111 Co98 2.244 . S
O111 C101 1.272 . S
O111 Co103 2.135 . S
C112 C113 1.369 1_556 S
C112 C114 1.419 1_565 S
C112 H116 0.930 . S
C113 C112 1.369 1_554 S
C113 C122 1.429 1_655 S
C114 C112 1.419 1_545 S
C114 C115 1.363 1_656 S
C114 H117 0.929 . S
C115 C114 1.363 1_454 S
C115 C121 1.428 . S
H116 C112 0.930 . S
H117 C114 0.929 . S
S118 N119 1.613 . S
S118 N120 1.610 1_565 S
N119 S118 1.613 . S
N119 C122 1.350 . S
N120 S118 1.610 1_545 S
N120 C121 1.351 . S
C121 C115 1.428 . S
C121 N120 1.351 . S
C121 C122 1.434 1_545 S
C122 C113 1.429 1_455 S
C122 N119 1.350 . S
C122 C121 1.434 1_565 S
C123 C124 1.369 . S
C123 C125 1.419 1_565 S
C123 H127 0.930 . S
C124 C123 1.369 . S
C124 C133 1.429 1_455 S
C125 C123 1.419 1_545 S
C125 C126 1.363 1_455 S
C125 H128 0.929 . S
C126 C125 1.363 1_655 S
C126 C132 1.428 . S
H127 C123 0.930 . S
H128 C125 0.929 . S
S129 N130 1.613 . S
S129 N131 1.610 1_565 S
N130 S129 1.613 . S
N130 C133 1.350 . S
N131 S129 1.610 1_545 S
N131 C132 1.351 . S
C132 C126 1.428 . S
C132 N131 1.351 . S
C132 C133 1.434 1_545 S
C133 C124 1.429 1_655 S
C133 N130 1.350 . S
C133 C132 1.434 1_565 S
C134 C135 1.375 . S
C134 C136 1.419 . S
C134 H138 0.930 . S
C135 C134 1.375 . S
C135 C144 1.423 1_554 S
C136 C134 1.419 . S
C136 C137 1.370 . S
C136 H139 0.929 . S
C137 C136 1.370 . S
C137 C143 1.422 1_554 S
H138 C134 0.930 . S
H139 C136 0.929 . S
S140 N141 1.613 . S
S140 N142 1.610 . S
N141 S140 1.613 . S
N141 C144 1.350 . S
N142 S140 1.610 . S
N142 C143 1.351 . S
C143 C137 1.422 1_556 S
C143 N142 1.351 . S
C143 C144 1.434 . S
C144 C135 1.423 1_556 S
C144 N141 1.350 . S
C144 C143 1.434 . S
C145 C146 1.369 . S
C145 C147 1.419 . S
C145 H149 0.930 . S
C146 C145 1.369 . S
C146 C155 1.429 . S
C147 C145 1.419 . S
C147 C148 1.363 . S
C147 H150 0.929 . S
C148 C147 1.363 . S
C148 C154 1.428 . S
H149 C145 0.930 . S
H150 C147 0.929 . S
S151 N152 1.613 . S
S151 N153 1.610 . S
N152 S151 1.613 . S
N152 C155 1.350 . S
N153 S151 1.610 . S
N153 C154 1.351 . S
C154 C148 1.428 . S
C154 N153 1.351 . S
C154 C155 1.434 . S
C155 C146 1.429 . S
C155 N152 1.350 . S
C155 C154 1.434 . S
C156 C157 1.376 . S
C156 C158 1.419 . S
C156 H160 0.930 . S
C157 C156 1.376 . S
C157 C166 1.421 1_655 S
C158 C156 1.419 . S
C158 C159 1.363 1_655 S
C158 H161 0.929 . S
C159 C158 1.363 1_455 S
C159 C165 1.428 . S
H160 C156 0.930 . S
H161 C158 0.929 . S
S162 N163 1.613 . S
S162 N164 1.610 . S
N163 S162 1.613 . S
N163 C166 1.350 . S
N164 S162 1.610 . S
N164 C165 1.351 . S
C165 C159 1.428 . S
C165 N164 1.351 . S
C165 C166 1.434 . S
C166 C157 1.421 1_455 S
C166 N163 1.350 . S
C166 C165 1.434 . S
C167 C168 1.377 . S
C167 C169 1.419 . S
C167 H171 0.930 . S
C168 C167 1.377 . S
C168 C177 1.421 1_655 S
C169 C167 1.419 . S
C169 C170 1.363 1_655 S
C169 H172 0.929 . S
C170 C169 1.363 1_455 S
C170 C176 1.428 . S
H171 C167 0.930 . S
H172 C169 0.929 . S
S173 N174 1.613 . S
S173 N175 1.610 . S
N174 S173 1.613 . S
N174 C177 1.350 . S
N175 S173 1.610 . S
N175 C176 1.351 . S
C176 C170 1.428 . S
C176 N175 1.351 . S
C176 C177 1.434 . S
C177 C168 1.421 1_455 S
C177 N174 1.350 . S
C177 C176 1.434 . S
C178 C179 1.369 . S
C178 C180 1.419 . S
C178 H182 0.930 . S
C179 C178 1.369 . S
C179 C188 1.429 1_655 S
C180 C178 1.419 . S
C180 C181 1.363 1_655 S
C180 H183 0.929 . S
C181 C180 1.363 1_455 S
C181 C187 1.428 . S
H182 C178 0.930 . S
H183 C180 0.929 . S
S184 N185 1.613 . S
S184 N186 1.610 . S
N185 S184 1.613 . S
N185 C188 1.350 . S
N186 S184 1.610 . S
N186 C187 1.351 . S
C187 C181 1.428 . S
C187 N186 1.351 . S
C187 C188 1.434 . S
C188 C179 1.429 1_455 S
C188 N185 1.350 . S
C188 C187 1.434 . S
C189 C190 1.369 1_455 S
C189 C191 1.419 . S
C189 H193 0.930 . S
C190 C189 1.369 1_655 S
C190 C199 1.429 . S
C191 C189 1.419 . S
C191 C192 1.363 . S
C191 H194 0.929 . S
C192 C191 1.363 . S
C192 C198 1.428 1_455 S
H193 C189 0.930 . S
H194 C191 0.929 . S
S195 N196 1.613 . S
S195 N197 1.610 . S
N196 S195 1.613 . S
N196 C199 1.350 . S
N197 S195 1.610 . S
N197 C198 1.351 . S
C198 C192 1.428 1_655 S
C198 N197 1.351 . S
C198 C199 1.434 . S
C199 C190 1.429 . S
C199 N196 1.350 . S
C199 C198 1.434 . S
C200 C201 1.369 . S
C200 C202 1.419 . S
C200 H204 0.930 . S
C201 C200 1.369 . S
C201 C210 1.429 . S
C202 C200 1.419 . S
C202 C203 1.363 . S
C202 H205 0.929 . S
C203 C202 1.363 . S
C203 C209 1.428 . S
H204 C200 0.930 . S
H205 C202 0.929 . S
S206 N207 1.613 . S
S206 N208 1.610 . S
N207 S206 1.613 . S
N207 C210 1.350 . S
N208 S206 1.610 . S
N208 C209 1.351 . S
C209 C203 1.428 . S
C209 N208 1.351 . S
C209 C210 1.434 . S
C210 C201 1.429 . S
C210 N207 1.350 . S
C210 C209 1.434 . S
C211 C212 1.369 . S
C211 C213 1.419 . S
C211 H215 0.930 . S
C212 C211 1.369 . S
C212 C221 1.429 . S
C213 C211 1.419 . S
C213 C214 1.363 . S
C213 H216 0.929 . S
C214 C213 1.363 . S
C214 C220 1.428 . S
H215 C211 0.930 . S
H216 C213 0.929 . S
S217 N218 1.613 . S
S217 N219 1.610 . S
N218 S217 1.613 . S
N218 C221 1.350 . S
N219 S217 1.610 . S
N219 C220 1.351 . S
C220 C214 1.428 . S
C220 N219 1.351 . S
C220 C221 1.434 . S
C221 C212 1.429 . S
C221 N218 1.350 . S
C221 C220 1.434 . S
C222 C223 1.369 . S
C222 C224 1.419 . S
C222 H226 0.930 . S
C223 C222 1.369 . S
C223 C232 1.429 . S
C224 C222 1.419 . S
C224 C225 1.363 . S
C224 H227 0.929 . S
C225 C224 1.363 . S
C225 C231 1.428 . S
H226 C222 0.930 . S
H227 C224 0.929 . S
S228 N229 1.613 . S
S228 N230 1.610 . S
N229 S228 1.613 . S
N229 C232 1.350 . S
N230 S228 1.610 . S
N230 C231 1.351 . S
C231 C225 1.428 . S
C231 N230 1.351 . S
C231 C232 1.434 . S
C232 C223 1.429 . S
C232 N229 1.350 . S
C232 C231 1.434 . S
C233 C234 1.369 . S
C233 C235 1.419 . S
C233 H237 0.930 . S
C234 C233 1.369 . S
C234 C243 1.429 . S
C235 C233 1.419 . S
C235 C236 1.363 . S
C235 H238 0.929 . S
C236 C235 1.363 . S
C236 C242 1.428 . S
H237 C233 0.930 . S
H238 C235 0.929 . S
S239 N240 1.613 . S
S239 N241 1.610 . S
N240 S239 1.613 . S
N240 C243 1.350 . S
N241 S239 1.610 . S
N241 C242 1.351 . S
C242 C236 1.428 . S
C242 N241 1.351 . S
C242 C243 1.434 . S
C243 C234 1.429 . S
C243 N240 1.350 . S
C243 C242 1.434 . S
C244 C245 1.369 1_556 S
C244 C246 1.419 . S
C244 H248 0.930 . S
C245 C244 1.369 1_554 S
C245 C254 1.429 . S
C246 C244 1.419 . S
C246 C247 1.363 1_556 S
C246 H249 0.929 . S
C247 C246 1.363 1_554 S
C247 C253 1.428 . S
H248 C244 0.930 . S
H249 C246 0.929 . S
S250 N251 1.613 . S
S250 N252 1.610 . S
N251 S250 1.613 . S
N251 C254 1.350 . S
N252 S250 1.610 . S
N252 C253 1.351 . S
C253 C247 1.428 . S
C253 N252 1.351 . S
C253 C254 1.434 . S
C254 C245 1.429 . S
C254 N251 1.350 . S
C254 C253 1.434 . S
C255 C256 1.369 . S
C255 C257 1.419 . S
C255 H259 0.930 . S
C256 C255 1.369 . S
C256 C265 1.429 . S
C257 C255 1.419 . S
C257 C258 1.363 . S
C257 H260 0.929 . S
C258 C257 1.363 . S
C258 C264 1.428 . S
H259 C255 0.930 . S
H260 C257 0.929 . S
S261 N262 1.613 . S
S261 N263 1.610 . S
N262 S261 1.613 . S
N262 C265 1.350 . S
N263 S261 1.610 . S
N263 C264 1.351 . S
C264 C258 1.428 . S
C264 N263 1.351 . S
C264 C265 1.434 . S
C265 C256 1.429 . S
C265 N262 1.350 . S
C265 C264 1.434 . S
C266 C267 1.369 . S
C266 C268 1.419 . S
C266 H270 0.930 . S
C267 C266 1.369 . S
C267 C276 1.429 . S
C268 C266 1.419 . S
C268 C269 1.363 . S
C268 H271 0.929 . S
C269 C268 1.363 . S
C269 C275 1.428 . S
H270 C266 0.930 . S
H271 C268 0.929 . S
S272 N273 1.613 . S
S272 N274 1.610 . S
N273 S272 1.613 . S
N273 C276 1.350 . S
N274 S272 1.610 . S
N274 C275 1.351 . S
C275 C269 1.428 . S
C275 N274 1.351 . S
C275 C276 1.434 . S
C276 C267 1.429 . S
C276 N273 1.350 . S
C276 C275 1.434 . S
C277 C278 1.369 . S
C277 C279 1.419 . S
C277 H281 0.930 . S
C278 C277 1.369 . S
C278 C287 1.429 . S
C279 C277 1.419 . S
C279 C280 1.363 . S
C279 H282 0.929 . S
C280 C279 1.363 . S
C280 C286 1.428 . S
H281 C277 0.930 . S
H282 C279 0.929 . S
S283 N284 1.613 . S
S283 N285 1.610 . S
N284 S283 1.613 . S
N284 C287 1.350 . S
N285 S283 1.610 . S
N285 C286 1.351 . S
C286 C280 1.428 . S
C286 N285 1.351 . S
C286 C287 1.434 . S
C287 C278 1.429 . S
C287 N284 1.350 . S
C287 C286 1.434 . S
C113 C23 1.479 1_554 S
C115 C9 1.483 1_554 S
C124 C37 1.480 . S
C126 C51 1.483 . S
C135 C65 1.478 1_554 S
C137 C79 1.483 1_554 S
C146 C93 1.478 . S
C148 C107 1.483 . S
C157 C7 1.395 . S
C159 C49 1.396 . S
C168 C35 1.395 . S
C170 C21 1.396 . S
C179 C31 1.366 1_655 S
C181 C17 1.372 1_455 S
C190 C3 1.368 1_655 S
C192 C45 1.365 1_455 S
C201 C63 1.395 . S
C203 C105 1.396 . S
C212 C91 1.402 . S
C214 C77 1.401 . S
C223 C73 1.370 . S
C225 C87 1.371 . S
C234 C59 1.371 . S
C236 C101 1.370 . S
C245 C78 1.507 . S
C247 C8 1.505 . S
C256 C64 1.505 . S
C258 C22 1.507 . S
C267 C36 1.506 . S
C269 C106 1.505 . S
C278 C92 1.505 . S
C280 C50 1.507 . S
