# Generated by pormake.
# Topology sml, (6)-cn, num edge types: 1
# Building blocks:
#     Node 0, Type 0, BuildingBlock: KUMJIN_clean_sbu_0, # of connection points: 6
#     Node 1, Type 0, BuildingBlock: KUMJIN_clean_sbu_0, # of connection points: 6
#     Node 2, Type 0, BuildingBlock: KUMJIN_clean_sbu_0, # of connection points: 6
#     Node 3, Type 0, BuildingBlock: KUMJIN_clean_sbu_0, # of connection points: 6
#     Node 4, Type 0, BuildingBlock: KUMJIN_clean_sbu_0, # of connection points: 6
#     Node 5, Type 0, BuildingBlock: KUMJIN_clean_sbu_0, # of connection points: 6
#     Edge 6, Type (0, 0), BuildingBlock: ZUJKAS_clean_linker_0, # of connection points: 2
#     Edge 7, Type (0, 0), BuildingBlock: ZUJKAS_clean_linker_0, # of connection points: 2
#     Edge 8, Type (0, 0), BuildingBlock: ZUJKAS_clean_linker_0, # of connection points: 2
#     Edge 9, Type (0, 0), BuildingBlock: ZUJKAS_clean_linker_0, # of connection points: 2
#     Edge 10, Type (0, 0), BuildingBlock: ZUJKAS_clean_linker_0, # of connection points: 2
#     Edge 11, Type (0, 0), BuildingBlock: ZUJKAS_clean_linker_0, # of connection points: 2
#     Edge 12, Type (0, 0), BuildingBlock: ZUJKAS_clean_linker_0, # of connection points: 2
#     Edge 13, Type (0, 0), BuildingBlock: ZUJKAS_clean_linker_0, # of connection points: 2
#     Edge 14, Type (0, 0), BuildingBlock: ZUJKAS_clean_linker_0, # of connection points: 2
#     Edge 15, Type (0, 0), BuildingBlock: ZUJKAS_clean_linker_0, # of connection points: 2
#     Edge 16, Type (0, 0), BuildingBlock: ZUJKAS_clean_linker_0, # of connection points: 2
#     Edge 17, Type (0, 0), BuildingBlock: ZUJKAS_clean_linker_0, # of connection points: 2
#     Edge 18, Type (0, 0), BuildingBlock: ZUJKAS_clean_linker_0, # of connection points: 2
#     Edge 19, Type (0, 0), BuildingBlock: ZUJKAS_clean_linker_0, # of connection points: 2
#     Edge 20, Type (0, 0), BuildingBlock: ZUJKAS_clean_linker_0, # of connection points: 2
#     Edge 21, Type (0, 0), BuildingBlock: ZUJKAS_clean_linker_0, # of connection points: 2
#     Edge 22, Type (0, 0), BuildingBlock: ZUJKAS_clean_linker_0, # of connection points: 2
#     Edge 23, Type (0, 0), BuildingBlock: ZUJKAS_clean_linker_0, # of connection points: 2
# Relax obj value: 0.026
# Max RMSD: 0.145
# Mean RMSD: 0.145
data_MOF--net-sml--node1-KUMJIN_clean_sbu_0--edge1-ZUJKAS_clean_linker_0
_symmetry_space_group_name_H-M    P1
_symmetry_Int_Tables_number       1
_symmetry_cell_setting            triclinic
loop_
_symmetry_equiv_pos_as_xyz
'x, y, z'
_cell_length_a     44.680839
_cell_length_b     44.683505
_cell_length_c     28.772372
_cell_angle_alpha  90.034201
_cell_angle_beta   90.073276
_cell_angle_gamma 119.95895
loop_
_atom_site_label
_atom_site_type_symbol
_atom_site_fract_x
_atom_site_fract_y
_atom_site_fract_z
_atom_type_partial_charge
Eu0 Eu 0.1939 0.42218 0.97517 0.0
C1 C 0.2907 0.3878 0.05805 0.0
C2 C 0.258 0.32552 0.06524 0.0
C3 C 0.31763 0.35336 0.03977 0.0
C4 C 0.26004 0.3581 0.06829 0.0
C5 C 0.32015 0.38574 0.04512 0.0
C6 C 0.28658 0.32329 0.04973 0.0
C7 C 0.35365 0.44778 0.04904 0.0
N8 N 0.29237 0.41878 0.06314 0.0
C9 C 0.3239 0.44847 0.06208 0.0
C10 C 0.35161 0.41629 0.03937 0.0
Eu11 Eu 0.2395 0.41795 0.07971 0.0
N12 N 0.23265 0.36102 0.08287 0.0
C13 C 0.20408 0.33245 0.10025 0.0
C14 C 0.22756 0.29612 0.07889 0.0
C15 C 0.20081 0.29973 0.09744 0.0
H16 H 0.32666 0.47301 0.07189 0.0
H17 H 0.17774 0.27731 0.11026 0.0
H18 H 0.28522 0.29847 0.04652 0.0
H19 H 0.37821 0.47154 0.04709 0.0
H20 H 0.1836 0.3341 0.11748 0.0
H21 H 0.24176 0.56076 0.98475 0.0
H22 H 0.22499 0.27071 0.07695 0.0
H23 H 0.11391 0.35908 0.94881 0.0
H24 H 0.24607 0.50799 0.97745 0.0
H25 H 0.05434 0.34962 0.94664 0.0
H26 H 0.33981 0.35132 0.02912 0.0
H27 H 0.18439 0.55612 0.99173 0.0
H28 H 0.1198 0.51852 0.99309 0.0
H29 H 0.37475 0.41577 0.02953 0.0
H30 H 0.06862 0.46081 0.98362 0.0
N31 N 0.1919 0.47389 0.98155 0.0
C32 C 0.22097 0.50567 0.98064 0.0
C33 C 0.1862 0.5329 0.98889 0.0
C34 C 0.15643 0.50029 0.98778 0.0
C35 C 0.2186 0.53562 0.9847 0.0
C36 C 0.16018 0.47088 0.98356 0.0
H37 H 0.04394 0.39771 0.96558 0.0
N38 N 0.13629 0.41121 0.97135 0.0
C39 C 0.07574 0.37467 0.95611 0.0
C40 C 0.13144 0.43847 0.97862 0.0
C41 C 0.10938 0.38007 0.95735 0.0
C42 C 0.06998 0.40185 0.96696 0.0
C43 C 0.09809 0.43448 0.97722 0.0
O44 O 0.17914 0.39542 0.90802 0.0
O45 O 0.22565 0.40137 1.006 0.0
O46 O 0.27595 0.46651 0.03814 0.0
O47 O 0.25152 0.45299 0.96443 0.0
O48 O 0.18128 0.36646 0.97099 0.0
O49 O 0.21344 0.45043 0.90993 0.0
O50 O 0.27595 0.45531 0.13009 0.0
O51 O 0.21873 0.44836 0.04257 0.0
O52 O 0.15215 0.38927 0.02714 0.0
O53 O 0.18195 0.37986 0.08716 0.0
O54 O 0.20517 0.43575 0.11161 0.0
O55 O 0.23374 0.40644 0.15379 0.0
C56 C 0.20882 0.37061 0.99156 0.0
C57 C 0.1794 0.42749 0.84237 0.0
C58 C 0.17668 0.43204 0.75775 0.0
C59 C 0.19236 0.42758 0.79776 0.0
C60 C 0.14756 0.43605 0.7634 0.0
C61 C 0.15063 0.43191 0.84703 0.0
C62 C 0.13475 0.43602 0.80769 0.0
C63 C 0.27803 0.47073 0.99238 0.0
C64 C 0.19659 0.42338 0.8836 0.0
C65 C 0.09406 0.46341 0.98399 0.0
C66 C 0.1232 0.49627 0.98928 0.0
C67 C 0.20234 0.4517 0.07626 0.0
C68 C 0.28191 0.43385 0.20364 0.0
C69 C 0.27188 0.43433 0.24986 0.0
C70 C 0.29056 0.4314 0.28739 0.0
C71 C 0.31972 0.42821 0.27766 0.0
C72 C 0.31085 0.43039 0.19475 0.0
C73 C 0.32972 0.42774 0.23171 0.0
C74 C 0.15315 0.37434 0.06633 0.0
C75 C 0.26063 0.43555 0.1658 0.0
H76 H 0.21501 0.4248 0.79437 0.0
H77 H 0.13442 0.4389 0.73354 0.0
H78 H 0.1405 0.43229 0.88096 0.0
H79 H 0.11241 0.43921 0.81152 0.0
H80 H 0.24899 0.4362 0.25645 0.0
H81 H 0.33501 0.42636 0.30556 0.0
H82 H 0.31871 0.42952 0.15946 0.0
H83 H 0.35214 0.42519 0.22473 0.0
Eu84 Eu 0.75908 0.18419 0.29926 0.0
C85 C 0.8965 0.29656 0.39034 0.0
C86 C 0.93173 0.26945 0.38649 0.0
C87 C 0.95899 0.33202 0.38449 0.0
C88 C 0.89905 0.267 0.38943 0.0
C89 C 0.92649 0.32944 0.38905 0.0
C90 C 0.9616 0.30207 0.38316 0.0
C91 C 0.89031 0.35475 0.40111 0.0
N92 N 0.8648 0.29321 0.39499 0.0
C93 C 0.86139 0.32158 0.40241 0.0
C94 C 0.92299 0.35873 0.39374 0.0
Eu95 Eu 0.81682 0.23645 0.39656 0.0
N96 N 0.86967 0.23586 0.39239 0.0
C97 C 0.87138 0.20619 0.39494 0.0
C98 C 0.93347 0.23907 0.38772 0.0
C99 C 0.90317 0.20734 0.39224 0.0
H100 H 0.83607 0.3185 0.40813 0.0
H101 H 0.90426 0.18369 0.39357 0.0
H102 H 0.98687 0.30442 0.38041 0.0
H103 H 0.88738 0.37718 0.40583 0.0
H104 H 0.84835 0.18135 0.39801 0.0
H105 H 0.64958 0.2067 0.30673 0.0
H106 H 0.95807 0.23987 0.38592 0.0
H107 H 0.75771 0.11069 0.27288 0.0
H108 H 0.71066 0.22269 0.29911 0.0
H109 H 0.71585 0.04801 0.26917 0.0
H110 H 0.9823 0.35704 0.38297 0.0
H111 H 0.60456 0.14528 0.315 0.0
H112 H 0.58902 0.08299 0.31598 0.0
H113 H 0.9454 0.38444 0.39295 0.0
H114 H 0.60707 0.03961 0.30565 0.0
N115 N 0.70081 0.17108 0.30538 0.0
C116 C 0.69142 0.19582 0.303 0.0
C117 C 0.63144 0.15222 0.31225 0.0
C118 C 0.64098 0.1268 0.31145 0.0
C119 C 0.65675 0.18687 0.30729 0.0
C120 C 0.67631 0.13718 0.30745 0.0
H121 H 0.65423 0.02633 0.2871 0.0
N122 N 0.72028 0.124 0.29404 0.0
C123 C 0.70723 0.06593 0.27861 0.0
C124 C 0.68637 0.11282 0.30153 0.0
C125 C 0.73083 0.10139 0.28064 0.0
C126 C 0.67251 0.05379 0.28894 0.0
C127 C 0.66154 0.07736 0.29963 0.0
O128 O 0.77213 0.17357 0.23019 0.0
O129 O 0.81288 0.21694 0.32465 0.0
O130 O 0.82289 0.27347 0.33808 0.0
O131 O 0.7719 0.24038 0.29604 0.0
O132 O 0.80382 0.17454 0.28608 0.0
O133 O 0.74841 0.20526 0.237 0.0
O134 O 0.81107 0.25917 0.46089 0.0
O135 O 0.76264 0.2048 0.37134 0.0
O136 O 0.75059 0.14552 0.35568 0.0
O137 O 0.79456 0.17851 0.40937 0.0
O138 O 0.77503 0.25033 0.40598 0.0
O139 O 0.8206 0.21624 0.46408 0.0
C140 C 0.82735 0.2017 0.30692 0.0
C141 C 0.73714 0.17268 0.16806 0.0
C142 C 0.72889 0.16714 0.08374 0.0
C143 C 0.74997 0.18329 0.12283 0.0
C144 C 0.69487 0.14003 0.09087 0.0
C145 C 0.70316 0.14569 0.17428 0.0
C146 C 0.68219 0.12944 0.13581 0.0
C147 C 0.79996 0.27019 0.30615 0.0
C148 C 0.75936 0.19021 0.20837 0.0
C149 C 0.62651 0.06675 0.30648 0.0
C150 C 0.61624 0.09146 0.31238 0.0
C151 C 0.75039 0.22292 0.38685 0.0
C152 C 0.83995 0.25505 0.52748 0.0
C153 C 0.82748 0.24484 0.57294 0.0
C154 C 0.84946 0.25975 0.61163 0.0
C155 C 0.88411 0.28518 0.60382 0.0
C156 C 0.87458 0.28026 0.5206 0.0
C157 C 0.89649 0.29526 0.55865 0.0
C158 C 0.76895 0.14874 0.39345 0.0
C159 C 0.81655 0.23887 0.48774 0.0
H160 H 0.77613 0.20445 0.11819 0.0
H161 H 0.67813 0.1267 0.06167 0.0
H162 H 0.69282 0.13728 0.20877 0.0
H163 H 0.656 0.10854 0.14084 0.0
H164 H 0.8008 0.22494 0.57803 0.0
H165 H 0.90162 0.29762 0.63266 0.0
H166 H 0.88468 0.28835 0.48596 0.0
H167 H 0.92318 0.31485 0.55311 0.0
Eu168 Eu 0.5725 0.76064 0.64212 0.0
C169 C 0.58998 0.89614 0.73241 0.0
C170 C 0.65116 0.9364 0.72394 0.0
C171 C 0.61055 0.95759 0.72489 0.0
C172 C 0.62342 0.90234 0.72901 0.0
C173 C 0.58318 0.92373 0.73144 0.0
C174 C 0.64448 0.9639 0.72106 0.0
C175 C 0.52321 0.88262 0.74697 0.0
N176 N 0.56423 0.8632 0.73882 0.0
C177 C 0.53132 0.85618 0.74783 0.0
C178 C 0.54919 0.91652 0.73818 0.0
Eu179 Eu 0.57928 0.8194 0.73794 0.0
N180 N 0.62891 0.87515 0.73182 0.0
C181 C 0.66181 0.8805 0.73281 0.0
C182 C 0.68481 0.94182 0.7226 0.0
C183 C 0.69016 0.91377 0.72763 0.0
H184 H 0.51116 0.82992 0.7544 0.0
H185 H 0.71611 0.91773 0.72733 0.0
H186 H 0.66543 0.9902 0.71676 0.0
H187 H 0.49695 0.87684 0.75305 0.0
H188 H 0.66646 0.85916 0.7363 0.0
H189 H 0.44106 0.65131 0.65512 0.0
H190 H 0.70681 0.96755 0.71853 0.0
H191 H 0.64618 0.76031 0.62248 0.0
H192 H 0.48581 0.71232 0.64492 0.0
H193 H 0.66735 0.71868 0.62123 0.0
H194 H 0.60582 0.97912 0.72362 0.0
H195 H 0.45784 0.60656 0.66374 0.0
H196 H 0.50482 0.59118 0.66325 0.0
H197 H 0.54288 0.93699 0.73767 0.0
H198 H 0.56631 0.6094 0.65329 0.0
N199 N 0.52768 0.70256 0.64964 0.0
C200 C 0.49354 0.69313 0.64877 0.0
C201 C 0.47764 0.63336 0.65951 0.0
C202 C 0.51259 0.64295 0.65732 0.0
C203 C 0.46806 0.65853 0.65453 0.0
C204 C 0.53732 0.67822 0.65201 0.0
H205 H 0.62699 0.65678 0.63682 0.0
N206 N 0.59463 0.72239 0.63938 0.0
C207 C 0.64045 0.70984 0.62851 0.0
C208 C 0.57184 0.6884 0.64636 0.0
C209 C 0.62839 0.73333 0.62915 0.0
C210 C 0.6176 0.67493 0.63741 0.0
C211 C 0.58273 0.66373 0.64596 0.0
O212 O 0.5958 0.77224 0.57294 0.0
O213 O 0.59424 0.81483 0.66605 0.0
O214 O 0.54887 0.82591 0.67896 0.0
O215 O 0.52952 0.77403 0.63852 0.0
O216 O 0.6271 0.80495 0.62813 0.0
O217 O 0.54033 0.74848 0.57994 0.0
O218 O 0.55289 0.80958 0.80489 0.0
O219 O 0.55605 0.76493 0.71396 0.0
O220 O 0.59874 0.75037 0.70195 0.0
O221 O 0.61924 0.80129 0.74486 0.0
O222 O 0.52362 0.77792 0.74848 0.0
O223 O 0.60736 0.8263 0.80298 0.0
C224 C 0.62383 0.82897 0.64813 0.0
C225 C 0.56166 0.73673 0.51118 0.0
C226 C 0.56124 0.72878 0.42686 0.0
C227 C 0.56519 0.74975 0.46574 0.0
C228 C 0.55357 0.69454 0.43449 0.0
C229 C 0.55407 0.70258 0.51782 0.0
C230 C 0.55004 0.68164 0.47961 0.0
C231 C 0.52869 0.80273 0.64758 0.0
C232 C 0.56627 0.75915 0.55123 0.0
C233 C 0.55841 0.62873 0.6531 0.0
C234 C 0.52341 0.61836 0.65882 0.0
C235 C 0.5258 0.75289 0.72962 0.0
C236 C 0.58649 0.84111 0.86949 0.0
C237 C 0.58248 0.82782 0.91483 0.0
C238 C 0.58746 0.84898 0.95385 0.0
C239 C 0.59665 0.88368 0.94649 0.0
C240 C 0.5957 0.87574 0.8631 0.0
C241 C 0.60073 0.89688 0.90147 0.0
C242 C 0.61846 0.7718 0.73496 0.0
C243 C 0.58069 0.81848 0.82926 0.0
H244 H 0.57148 0.77631 0.4608 0.0
H245 H 0.5498 0.6775 0.40555 0.0
H246 H 0.5512 0.69212 0.55245 0.0
H247 H 0.54405 0.65524 0.48496 0.0
H248 H 0.57503 0.80092 0.91961 0.0
H249 H 0.60118 0.90084 0.97558 0.0
H250 H 0.599 0.88642 0.82854 0.0
H251 H 0.60793 0.92364 0.89631 0.0
Eu252 Eu 0.81543 0.57771 0.97202 0.0
C253 C 0.69557 0.59181 0.0613 0.0
C254 C 0.71535 0.65286 0.0541 0.0
C255 C 0.65385 0.61127 0.05268 0.0
C256 C 0.72233 0.62552 0.05893 0.0
C257 C 0.66097 0.58431 0.05941 0.0
C258 C 0.68101 0.6455 0.04992 0.0
C259 C 0.64316 0.52454 0.07489 0.0
N260 N 0.70338 0.56648 0.06799 0.0
C261 C 0.6779 0.53334 0.07661 0.0
C262 C 0.63463 0.55007 0.06562 0.0
Eu263 Eu 0.76255 0.58273 0.06815 0.0
N264 N 0.75518 0.63167 0.06308 0.0
C265 C 0.78214 0.66477 0.06607 0.0
C266 C 0.74307 0.68679 0.05455 0.0
C267 C 0.77656 0.69276 0.06128 0.0
H268 H 0.68447 0.51352 0.08343 0.0
H269 H 0.79813 0.71892 0.0625 0.0
H270 H 0.67515 0.66613 0.04562 0.0
H271 H 0.62302 0.49811 0.08062 0.0
H272 H 0.80821 0.66986 0.07085 0.0
H273 H 0.79489 0.44648 0.97347 0.0
H274 H 0.73882 0.70851 0.05071 0.0
H275 H 0.8892 0.65263 0.95784 0.0
H276 H 0.77796 0.4911 0.96889 0.0
H277 H 0.95207 0.67443 0.95716 0.0
H278 H 0.62743 0.60601 0.05061 0.0
H279 H 0.85658 0.46356 0.98082 0.0
H280 H 0.91857 0.51086 0.9839 0.0
H281 H 0.60771 0.54323 0.06443 0.0
H282 H 0.96135 0.57285 0.97913 0.0
N283 N 0.82933 0.5331 0.97583 0.0
C284 C 0.80493 0.49896 0.97247 0.0
C285 C 0.84923 0.48326 0.97941 0.0
C286 C 0.87426 0.51833 0.98029 0.0
C287 C 0.81443 0.47354 0.975 0.0
C288 C 0.86337 0.54297 0.97804 0.0
H289 H 0.97409 0.63395 0.96841 0.0
N290 N 0.87593 0.60054 0.97034 0.0
C291 C 0.93418 0.6472 0.96237 0.0
C292 C 0.88743 0.57777 0.97503 0.0
C293 C 0.89858 0.63477 0.96268 0.0
C294 C 0.94651 0.62428 0.96884 0.0
C295 C 0.92307 0.58902 0.97468 0.0
O296 O 0.82795 0.60223 0.90361 0.0
O297 O 0.78279 0.59906 0.99679 0.0
O298 O 0.72625 0.55321 1.00826 0.0
O299 O 0.75932 0.53437 0.96822 0.0
O300 O 0.82571 0.63252 0.95967 0.0
O301 O 0.79461 0.54684 0.90898 0.0
O302 O 0.74602 0.55622 0.135 0.0
O303 O 0.79393 0.55995 0.04313 0.0
O304 O 0.85086 0.60205 0.03344 0.0
O305 O 0.82041 0.62308 0.07507 0.0
O306 O 0.74942 0.52723 0.0792 0.0
O307 O 0.78353 0.61079 0.13321 0.0
C308 C 0.79842 0.62898 0.97989 0.0
C309 C 0.82821 0.56826 0.84088 0.0
C310 C 0.83482 0.56709 0.75657 0.0
C311 C 0.81827 0.57144 0.79558 0.0
C312 C 0.86139 0.55935 0.76388 0.0
C313 C 0.85475 0.56059 0.84725 0.0
C314 C 0.87121 0.55615 0.80889 0.0
C315 C 0.72963 0.5333 0.97688 0.0
C316 C 0.81076 0.57314 0.88106 0.0
C317 C 0.93408 0.5647 0.97899 0.0
C318 C 0.90972 0.52941 0.98176 0.0
C319 C 0.77627 0.52969 0.05892 0.0
C320 C 0.74748 0.58981 0.19919 0.0
C321 C 0.75668 0.58605 0.24467 0.0
C322 C 0.7403 0.59105 0.28335 0.0
C323 C 0.71463 0.59998 0.27554 0.0
C324 C 0.7219 0.59876 0.19227 0.0
C325 C 0.70558 0.60381 0.23033 0.0
C326 C 0.84903 0.62189 0.06616 0.0
C327 C 0.76464 0.58408 0.15939 0.0
H328 H 0.79798 0.57776 0.79083 0.0
H329 H 0.87432 0.5553 0.73478 0.0
H330 H 0.8627 0.55799 0.88178 0.0
H331 H 0.89162 0.5501 0.81404 0.0
H332 H 0.77625 0.57877 0.24983 0.0
H333 H 0.70185 0.60451 0.3044 0.0
H334 H 0.71458 0.60187 0.15755 0.0
H335 H 0.68589 0.61081 0.22478 0.0
Eu336 Eu 0.2351 0.81435 0.29849 0.0
C337 C 0.10786 0.70966 0.38262 0.0
C338 C 0.07271 0.73684 0.38831 0.0
C339 C 0.04606 0.67651 0.36628 0.0
C340 C 0.10524 0.73874 0.3913 0.0
C341 C 0.07799 0.67797 0.37131 0.0
C342 C 0.04342 0.70586 0.37489 0.0
C343 C 0.11218 0.65017 0.37662 0.0
N344 N 0.13903 0.7117 0.38784 0.0
C345 C 0.14084 0.68193 0.38826 0.0
C346 C 0.08076 0.6483 0.36704 0.0
Eu347 Eu 0.18745 0.76784 0.403 0.0
N348 N 0.1341 0.76856 0.40389 0.0
C349 C 0.13114 0.79629 0.41793 0.0
C350 C 0.07034 0.76595 0.39966 0.0
C351 C 0.09958 0.7956 0.41528 0.0
H352 H 0.16437 0.68219 0.39772 0.0
H353 H 0.09782 0.81796 0.42566 0.0
H354 H 0.01842 0.70414 0.37209 0.0
H355 H 0.11427 0.62707 0.37567 0.0
H356 H 0.15257 0.81923 0.43189 0.0
H357 H 0.32682 0.76748 0.29865 0.0
H358 H 0.0459 0.76551 0.39767 0.0
H359 H 0.25035 0.8943 0.27625 0.0
H360 H 0.26938 0.76267 0.29524 0.0
H361 H 0.30012 0.95399 0.27284 0.0
H362 H 0.02305 0.65253 0.35707 0.0
H363 H 0.37928 0.82495 0.30578 0.0
H364 H 0.40573 0.88949 0.30922 0.0
H365 H 0.05846 0.62357 0.35843 0.0
H366 H 0.39843 0.94041 0.30276 0.0
N367 N 0.28903 0.81667 0.3016 0.0
C368 C 0.29203 0.78781 0.29858 0.0
C369 C 0.35411 0.82295 0.30463 0.0
C370 C 0.3509 0.85254 0.30564 0.0
C371 C 0.32457 0.79048 0.30035 0.0
C372 C 0.31754 0.84852 0.30351 0.0
H373 H 0.35921 0.96471 0.28811 0.0
N374 N 0.28107 0.87212 0.29506 0.0
C375 C 0.3042 0.93266 0.28105 0.0
C376 C 0.31343 0.87715 0.30038 0.0
C377 C 0.27616 0.89896 0.28295 0.0
C378 C 0.3375 0.9386 0.28985 0.0
C379 C 0.34255 0.91061 0.29861 0.0
O380 O 0.22336 0.83054 0.23233 0.0
O381 O 0.18301 0.78223 0.33008 0.0
O382 O 0.20274 0.73411 0.36071 0.0
O383 O 0.20742 0.7566 0.28689 0.0
O384 O 0.19174 0.82675 0.29627 0.0
O385 O 0.24242 0.79474 0.23236 0.0
O386 O 0.18999 0.73387 0.45582 0.0
O387 O 0.23836 0.78986 0.36505 0.0
O388 O 0.24562 0.85507 0.35336 0.0
O389 O 0.20404 0.82498 0.41047 0.0
O390 O 0.2397 0.80205 0.43493 0.0
O391 O 0.1808 0.77524 0.47633 0.0
C392 C 0.16871 0.79899 0.3167 0.0
C393 C 0.25446 0.82996 0.16603 0.0
C394 C 0.26212 0.83285 0.08154 0.0
C395 C 0.24174 0.81717 0.12126 0.0
C396 C 0.29531 0.86174 0.0876 0.0
C397 C 0.28769 0.85854 0.1711 0.0
C398 C 0.30792 0.87439 0.13203 0.0
C399 C 0.2017 0.73097 0.31488 0.0
C400 C 0.23299 0.8127 0.20698 0.0
C401 C 0.37575 0.91488 0.30341 0.0
C402 C 0.37992 0.88588 0.30699 0.0
C403 C 0.25817 0.80609 0.39881 0.0
C404 C 0.16074 0.72795 0.52747 0.0
C405 C 0.17086 0.73749 0.57391 0.0
C406 C 0.14883 0.71861 0.61088 0.0
C407 C 0.11643 0.6898 0.60036 0.0
C408 C 0.12829 0.69931 0.51776 0.0
C409 C 0.10634 0.68028 0.55415 0.0
C410 C 0.22887 0.85398 0.39186 0.0
C411 C 0.18413 0.74932 0.49019 0.0
H412 H 0.21626 0.79467 0.11753 0.0
H413 H 0.31147 0.87484 0.05793 0.0
H414 H 0.29807 0.86856 0.20512 0.0
H415 H 0.3335 0.89658 0.13621 0.0
H416 H 0.19568 0.76015 0.58113 0.0
H417 H 0.09898 0.67441 0.62784 0.0
H418 H 0.11987 0.6918 0.48225 0.0
H419 H 0.08133 0.65811 0.54653 0.0
Eu420 Eu 0.42935 0.24268 0.6375 0.0
C421 C 0.41379 0.10783 0.72582 0.0
C422 C 0.35297 0.06659 0.71583 0.0
C423 C 0.39478 0.04688 0.71569 0.0
C424 C 0.3801 0.10084 0.72209 0.0
C425 C 0.42148 0.08086 0.72384 0.0
C426 C 0.36057 0.03977 0.71159 0.0
C427 C 0.48087 0.12269 0.74186 0.0
N428 N 0.43888 0.14087 0.73379 0.0
C429 C 0.47189 0.1485 0.74362 0.0
C430 C 0.45564 0.08877 0.73131 0.0
Eu431 Eu 0.42238 0.18363 0.73353 0.0
N432 N 0.37371 0.12737 0.72635 0.0
C433 C 0.34052 0.1211 0.72812 0.0
C434 C 0.31899 0.06027 0.71498 0.0
C435 C 0.31273 0.08759 0.72188 0.0
H436 H 0.49148 0.17479 0.75141 0.0
H437 H 0.28651 0.08291 0.72213 0.0
H438 H 0.34012 0.01335 0.70621 0.0
H439 H 0.50722 0.12897 0.74853 0.0
H440 H 0.33523 0.14193 0.73301 0.0
H441 H 0.56173 0.35117 0.64483 0.0
H442 H 0.29744 0.03437 0.71003 0.0
H443 H 0.3559 0.24392 0.62018 0.0
H444 H 0.51626 0.29027 0.63682 0.0
H445 H 0.33542 0.2861 0.61967 0.0
H446 H 0.4002 0.02584 0.71354 0.0
H447 H 0.54592 0.39659 0.65389 0.0
H448 H 0.49949 0.41273 0.65536 0.0
H449 H 0.46262 0.06879 0.73007 0.0
H450 H 0.43795 0.3951 0.64799 0.0
N451 N 0.47488 0.3007 0.64285 0.0
C452 C 0.50889 0.30972 0.64067 0.0
C453 C 0.52579 0.36983 0.65047 0.0
C454 C 0.49091 0.36064 0.64972 0.0
C455 C 0.53481 0.34429 0.64523 0.0
C456 C 0.46574 0.3254 0.6455 0.0
H457 H 0.37667 0.34804 0.63388 0.0
N458 N 0.40797 0.28157 0.63529 0.0
C459 C 0.36241 0.29472 0.626 0.0
C460 C 0.43121 0.31555 0.64139 0.0
C461 C 0.37408 0.27092 0.62619 0.0
C462 C 0.38576 0.32964 0.63413 0.0
C463 C 0.42073 0.34053 0.64138 0.0
O464 O 0.40521 0.23098 0.56872 0.0
O465 O 0.40726 0.18853 0.6617 0.0
O466 O 0.45249 0.17697 0.67469 0.0
O467 O 0.47231 0.22918 0.63508 0.0
O468 O 0.37449 0.19882 0.62394 0.0
O469 O 0.46048 0.25245 0.57487 0.0
O470 O 0.44774 0.19335 0.80137 0.0
O471 O 0.44555 0.23787 0.70914 0.0
O472 O 0.40349 0.25285 0.69794 0.0
O473 O 0.38191 0.20099 0.73877 0.0
O474 O 0.47762 0.22595 0.74677 0.0
O475 O 0.39303 0.17549 0.79753 0.0
C476 C 0.37755 0.17473 0.64404 0.0
C477 C 0.43962 0.26496 0.50629 0.0
C478 C 0.44047 0.27265 0.42192 0.0
C479 C 0.43581 0.25165 0.46096 0.0
C480 C 0.44914 0.30722 0.42928 0.0
C481 C 0.44818 0.29943 0.51266 0.0
C482 C 0.45293 0.32041 0.47429 0.0
C483 C 0.47298 0.20036 0.64397 0.0
C484 C 0.43436 0.24256 0.54655 0.0
C485 C 0.44552 0.37553 0.64749 0.0
C486 C 0.48055 0.38557 0.65171 0.0
C487 C 0.47544 0.25044 0.72625 0.0
C488 C 0.41335 0.1605 0.86446 0.0
C489 C 0.41731 0.17339 0.91006 0.0
C490 C 0.412 0.15181 0.94864 0.0
C491 C 0.40254 0.11709 0.94057 0.0
C492 C 0.40392 0.12586 0.85735 0.0
C493 C 0.39855 0.10431 0.89528 0.0
C494 C 0.38326 0.23087 0.73008 0.0
C495 C 0.41937 0.18353 0.82473 0.0
H496 H 0.42878 0.22485 0.45622 0.0
H497 H 0.45348 0.32429 0.4002 0.0
H498 H 0.45125 0.3101 0.54722 0.0
H499 H 0.45969 0.34706 0.47944 0.0
H500 H 0.42498 0.2003 0.91536 0.0
H501 H 0.39772 0.09962 0.9693 0.0
H502 H 0.40068 0.11551 0.82255 0.0
H503 H 0.39115 0.07755 0.88957 0.0
H504 H 0.38155 0.29124 0.72658 0.0
H505 H 0.34861 0.30896 0.77541 0.0
H506 H 0.30523 0.2125 0.84957 0.0
H507 H 0.33761 0.19395 0.79999 0.0
H508 H 0.27141 0.26982 0.79113 0.0
H509 H 0.35222 0.2943 0.9497 0.0
H510 H 0.36817 0.29395 0.89213 0.0
H511 H 0.33759 0.25412 0.91911 0.0
C512 C 0.36464 0.27341 0.75266 0.0
C513 C 0.36204 0.24093 0.75883 0.0
C514 C 0.34596 0.28375 0.78078 0.0
C515 C 0.32466 0.26213 0.81621 0.0
C516 C 0.32174 0.22963 0.82255 0.0
H517 H 0.1805 0.30138 0.97773 0.0
H518 H 0.20716 0.27165 0.93808 0.0
C519 C 0.34021 0.21907 0.79405 0.0
C520 C 0.30573 0.27397 0.84644 0.0
H521 H 0.30636 0.30588 0.95464 0.0
C522 C 0.27872 0.27731 0.82705 0.0
C523 C 0.31566 0.28405 0.8931 0.0
C524 C 0.3451 0.2817 0.915 0.0
C525 C 0.26155 0.2908 0.85305 0.0
C526 C 0.27165 0.30115 0.89958 0.0
C527 C 0.29848 0.29756 0.91912 0.0
C528 C 0.25626 0.31814 0.92708 0.0
C529 C 0.23347 0.29504 0.83023 0.0
C530 C 0.27524 0.35391 0.93448 0.0
C531 C 0.26008 0.37082 0.95676 0.0
C532 C 0.2259 0.35211 0.97303 0.0
C533 C 0.20706 0.31621 0.9662 0.0
C534 C 0.22221 0.29929 0.94357 0.0
H535 H 0.23136 0.28939 0.79238 0.0
H536 H 0.20829 0.2772 0.84671 0.0
H537 H 0.23845 0.32179 0.83534 0.0
H538 H 0.30146 0.36892 0.92174 0.0
H539 H 0.2749 0.39866 0.96039 0.0
H540 H 0.08835 0.33215 0.03071 0.0
H541 H 0.034 0.3015 0.07373 0.0
H542 H 0.08968 0.3399 0.20277 0.0
H543 H 0.14402 0.36947 0.15996 0.0
H544 H 0.042 0.2761 0.21384 0.0
H545 H 0.98179 0.34366 0.12751 0.0
H546 H 0.99323 0.32074 0.0867 0.0
H547 H 0.02654 0.35634 0.11914 0.0
C548 C 0.08893 0.3341 0.06819 0.0
C549 C 0.12039 0.35352 0.09187 0.0
C550 C 0.05782 0.3167 0.09282 0.0
C551 C 0.05749 0.3191 0.14156 0.0
C552 C 0.08909 0.33772 0.16524 0.0
H553 H 0.87087 0.27111 0.29413 0.0
H554 H 0.92812 0.29949 0.2591 0.0
C555 C 0.1202 0.35458 0.1407 0.0
C556 C 0.02441 0.30231 0.16806 0.0
H557 H 0.94499 0.29567 0.175 0.0
C558 C 0.02085 0.28054 0.20545 0.0
C559 C 0.99698 0.30858 0.15794 0.0
C560 C 0.99992 0.33389 0.12098 0.0
C561 C 0.99064 0.26459 0.23249 0.0
C562 C 0.96255 0.26947 0.22086 0.0
C563 C 0.96628 0.29156 0.1838 0.0
C564 C 0.9291 0.25219 0.24652 0.0
C565 C 0.98967 0.24354 0.27403 0.0
C566 C 0.91043 0.21609 0.25184 0.0
C567 C 0.878 0.1999 0.27333 0.0
C568 C 0.86336 0.2194 0.28949 0.0
C569 C 0.88182 0.25542 0.2836 0.0
C570 C 0.91449 0.27166 0.26298 0.0
H571 H 0.01608 0.25185 0.28718 0.0
H572 H 0.97435 0.24573 0.30273 0.0
H573 H 0.97771 0.21599 0.26376 0.0
H574 H 0.92042 0.20025 0.23813 0.0
H575 H 0.86395 0.17201 0.27635 0.0
H576 H 0.76648 0.14355 0.48793 0.0
H577 H 0.74473 0.09104 0.53477 0.0
H578 H 0.7271 0.03091 0.40985 0.0
H579 H 0.74784 0.08321 0.36318 0.0
H580 H 0.67353 1.00011 0.46258 0.0
H581 H 0.78765 0.03581 0.57372 0.0
H582 H 0.77264 0.06612 0.57885 0.0
H583 H 0.7893 0.06123 0.52411 0.0
C584 C 0.75836 0.11915 0.47057 0.0
C585 C 0.75862 0.11742 0.4218 0.0
C586 C 0.74609 0.08912 0.49742 0.0
C587 C 0.73469 0.05686 0.47608 0.0
C588 C 0.73564 0.05535 0.42731 0.0
H589 H 0.68961 0.86509 0.61519 0.0
H590 H 0.71698 0.92091 0.57483 0.0
C591 C 0.74734 0.08526 0.40052 0.0
C592 C 0.71991 0.0244 0.50402 0.0
H593 H 0.73511 0.98572 0.59658 0.0
C594 C 0.68718 0.99698 0.49168 0.0
C595 C 0.73772 0.01993 0.54179 0.0
C596 C 0.77391 0.04721 0.55511 0.0
C597 C 0.67175 0.9655 0.51589 0.0
C598 C 0.68886 0.96156 0.55493 0.0
C599 C 0.72173 0.98882 0.56711 0.0
C600 C 0.67337 0.92904 0.58267 0.0
C601 C 0.63765 0.93648 0.49834 0.0
C602 C 0.64015 0.91536 0.60166 0.0
C603 C 0.6243 0.88322 0.62372 0.0
C604 C 0.64182 0.86465 0.62925 0.0
C605 C 0.67561 0.87898 0.61192 0.0
C606 C 0.69127 0.9109 0.58896 0.0
H607 H 0.63363 0.93983 0.46101 0.0
H608 H 0.63598 0.91101 0.50272 0.0
H609 H 0.61629 0.93634 0.51816 0.0
H610 H 0.62607 0.92917 0.59854 0.0
H611 H 0.59808 0.87279 0.63563 0.0
H612 H 0.61982 0.71136 0.72971 0.0
H613 H 0.65336 0.69316 0.77623 0.0
H614 H 0.69792 0.7889 0.85266 0.0
H615 H 0.66469 0.80789 0.80533 0.0
H616 H 0.7282 0.72897 0.78731 0.0
H617 H 0.65726 0.70984 0.9536 0.0
H618 H 0.63916 0.71139 0.89807 0.0
H619 H 0.67239 0.75041 0.92409 0.0
C620 C 0.63703 0.72894 0.75585 0.0
C621 C 0.63976 0.76139 0.76315 0.0
C622 C 0.65607 0.71829 0.78272 0.0
C623 C 0.67798 0.73952 0.81812 0.0
C624 C 0.68089 0.77194 0.82578 0.0
H625 H 0.82864 0.69685 0.95626 0.0
H626 H 0.80116 0.72698 0.92019 0.0
C627 C 0.66198 0.78281 0.79853 0.0
C628 C 0.69791 0.72749 0.84623 0.0
H629 H 0.70271 0.69739 0.95371 0.0
C630 C 0.72292 0.72244 0.82382 0.0
C631 C 0.69064 0.71857 0.89371 0.0
C632 C 0.66328 0.72254 0.919 0.0
C633 C 0.74064 0.7084 0.84743 0.0
C634 C 0.73333 0.69938 0.89487 0.0
C635 C 0.70849 0.70465 0.91747 0.0
C636 C 0.74971 0.68238 0.92047 0.0
C637 C 0.76619 0.70217 0.82104 0.0
C638 C 0.72983 0.64757 0.93337 0.0
C639 C 0.74547 0.63038 0.95371 0.0
C640 C 0.7812 0.64786 0.9626 0.0
C641 C 0.80099 0.68288 0.95034 0.0
C642 C 0.78536 0.70006 0.92971 0.0
H643 H 0.76452 0.70499 0.78291 0.0
H644 H 0.79278 0.72111 0.83253 0.0
H645 H 0.76184 0.67588 0.82831 0.0
H646 H 0.70233 0.63337 0.92633 0.0
H647 H 0.72963 0.60321 0.96147 0.0
H648 H 0.13009 0.73268 0.28601 0.0
H649 H 0.07289 0.70573 0.24972 0.0
H650 H 0.0702 0.80019 0.26714 0.0
H651 H 0.12748 0.82721 0.30443 0.0
H652 H 0.0061 0.70016 0.28531 0.0
H653 H 0.05918 0.77553 0.12229 0.0
H654 H 0.08602 0.76929 0.16364 0.0
H655 H 0.07105 0.79886 0.17649 0.0
C656 C 0.11698 0.74747 0.28311 0.0
C657 C 0.1328 0.78179 0.29909 0.0
C658 C 0.08438 0.73208 0.26216 0.0
C659 C 0.06735 0.75096 0.25573 0.0
C660 C 0.08296 0.78519 0.27183 0.0
H661 H 0.85846 0.66783 0.13643 0.0
H662 H 0.9102 0.70083 0.18473 0.0
C663 C 0.11554 0.80056 0.29313 0.0
C664 C 0.03418 0.73524 0.2298 0.0
H665 H 0.99965 0.73526 0.12373 0.0
C666 C 0.00451 0.70812 0.25026 0.0
C667 C 0.03237 0.74539 0.1838 0.0
C668 C 0.06379 0.77372 0.15987 0.0
C669 C 0.97309 0.69074 0.22574 0.0
C670 C 0.9714 0.70067 0.1796 0.0
C671 C 1.00098 0.72797 0.15929 0.0
C672 C 0.93998 0.68118 0.15057 0.0
C673 C 0.94214 0.66106 0.24857 0.0
C674 C 0.93971 0.65942 0.11532 0.0
C675 C 0.91026 0.64038 0.08803 0.0
C676 C 0.88046 0.64306 0.0948 0.0
C677 C 0.88092 0.6652 0.13002 0.0
C678 C 0.91042 0.68403 0.15774 0.0
H679 H 0.9485 0.65459 0.28313 0.0
H680 H 0.92158 0.66785 0.25313 0.0
H681 H 0.93156 0.63779 0.226 0.0
H682 H 0.96222 0.65676 0.10934 0.0
H683 H 0.91085 0.62322 0.06201 0.0
H684 H 0.40357 0.132 0.62536 0.0
H685 H 0.37426 0.07571 0.58715 0.0
H686 H 0.28079 0.08128 0.57902 0.0
H687 H 0.31014 0.13781 0.61795 0.0
H688 H 0.3124 0.01234 0.60944 0.0
H689 H 0.30306 0.0697 0.44239 0.0
H690 H 0.33089 0.09546 0.48932 0.0
H691 H 0.28524 0.07954 0.49219 0.0
C692 C 0.3766 0.12099 0.61648 0.0
C693 C 0.35895 0.13905 0.62549 0.0
C694 C 0.3599 0.08883 0.59436 0.0
C695 C 0.32545 0.07444 0.57985 0.0
C696 C 0.30751 0.09209 0.58952 0.0
H697 H 0.19906 0.8653 0.46862 0.0
H698 H 0.22094 0.91807 0.51456 0.0
C699 C 0.32421 0.12425 0.61187 0.0
C700 C 0.30903 0.04183 0.55264 0.0
H701 H 0.27791 0.00907 0.44465 0.0
C702 C 0.30465 0.01151 0.57349 0.0
C703 C 0.2995 0.04101 0.50552 0.0
C704 C 0.3051 0.07316 0.48073 0.0
C705 C 0.29083 0.98031 0.54849 0.0
C706 C 0.2808 0.97939 0.50156 0.0
C707 C 0.28531 0.00976 0.48073 0.0
C708 C 0.26676 0.94748 0.47289 0.0
C709 C 0.28798 0.94886 0.5721 0.0
C710 C 0.28475 0.94664 0.43344 0.0
C711 C 0.27214 0.91654 0.40676 0.0
C712 C 0.24096 0.88664 0.4185 0.0
C713 C 0.22283 0.88777 0.45788 0.0
C714 C 0.23551 0.9179 0.48461 0.0
H715 H 0.3039 0.95573 0.60423 0.0
H716 H 0.26065 0.93118 0.58186 0.0
H717 H 0.29615 0.93467 0.54836 0.0
H718 H 0.309 0.96913 0.42381 0.0
H719 H 0.28745 0.91653 0.37776 0.0
H720 H 0.20169 0.39143 0.7229 0.0
H721 H 0.22314 0.39207 0.64434 0.0
H722 H 0.20301 0.47361 0.60591 0.0
H723 H 0.18275 0.47402 0.68453 0.0
H724 H 0.18835 0.37966 0.56047 0.0
H725 H 0.30187 0.51195 0.56211 0.0
H726 H 0.27917 0.49025 0.61443 0.0
H727 H 0.2622 0.51054 0.57707 0.0
C728 C 0.20236 0.4099 0.69798 0.0
C729 C 0.19051 0.43272 0.71024 0.0
C730 C 0.21441 0.41006 0.65295 0.0
C731 C 0.21517 0.43321 0.61931 0.0
C732 C 0.20333 0.45596 0.63141 0.0
H733 H 0.26634 0.47149 0.32602 0.0
H734 H 0.24752 0.47068 0.40612 0.0
C735 C 0.19132 0.45584 0.67634 0.0
C736 C 0.2272 0.43285 0.57114 0.0
H737 H 0.2855 0.48371 0.48863 0.0
C738 C 0.20977 0.40233 0.54488 0.0
C739 C 0.2551 0.46246 0.55069 0.0
C740 C 0.2759 0.49557 0.57764 0.0
C741 C 0.21891 0.40085 0.4985 0.0
C742 C 0.24664 0.43054 0.47796 0.0
C743 C 0.26419 0.46099 0.5043 0.0
C744 C 0.25778 0.43059 0.42918 0.0
C745 C 0.19817 0.36777 0.47148 0.0
C746 C 0.27017 0.40859 0.4155 0.0
C747 C 0.2808 0.40886 0.36964 0.0
C748 C 0.27944 0.43128 0.3364 0.0
C749 C 0.26729 0.45353 0.35041 0.0
C750 C 0.25673 0.45327 0.3963 0.0
H751 H 0.17273 0.35065 0.48792 0.0
H752 H 0.19379 0.37319 0.43521 0.0
H753 H 0.21264 0.35357 0.47025 0.0
H754 H 0.27181 0.39129 0.44038 0.0
H755 H 0.28972 0.39118 0.36012 0.0
H756 H 0.79248 0.18387 0.04864 0.0
H757 H 0.81334 0.20071 0.96887 0.0
H758 H 0.71586 0.19149 0.92998 0.0
H759 H 0.69514 0.17548 1.00971 0.0
H760 H 0.78397 0.16183 0.88679 0.0
H761 H 0.78686 0.28742 0.88083 0.0
H762 H 0.78449 0.26562 0.93468 0.0
H763 H 0.74647 0.25165 0.8996 0.0
C764 C 0.77567 0.18593 0.02328 0.0
C765 C 0.74214 0.17836 0.03564 0.0
C766 C 0.78755 0.19533 0.97764 0.0
C767 C 0.76631 0.19774 0.94358 0.0
C768 C 0.73291 0.19033 0.95582 0.0
H769 H 0.78702 0.24589 0.64812 0.0
H770 H 0.76645 0.22934 0.72796 0.0
C771 C 0.72097 0.18082 1.00134 0.0
C772 C 0.77858 0.2068 0.89487 0.0
H773 H 0.7951 0.26606 0.8093 0.0
C774 C 0.78661 0.18472 0.8699 0.0
C775 C 0.78181 0.23657 0.87281 0.0
C776 C 0.77476 0.26189 0.89839 0.0
C777 C 0.79718 0.19126 0.82321 0.0
C778 C 0.80049 0.22109 0.80115 0.0
C779 C 0.79247 0.24317 0.82616 0.0
C780 C 0.81265 0.23011 0.75235 0.0
C781 C 0.80389 0.16571 0.79763 0.0
C782 C 0.84553 0.23622 0.7395 0.0
C783 C 0.85725 0.24542 0.69383 0.0
C784 C 0.83647 0.249 0.65999 0.0
C785 C 0.80353 0.2429 0.67303 0.0
C786 C 0.79182 0.23368 0.71876 0.0
H787 H 0.79106 0.14002 0.8148 0.0
H788 H 0.7947 0.16245 0.7611 0.0
H789 H 0.83209 0.17535 0.7972 0.0
H790 H 0.86234 0.23426 0.76495 0.0
H791 H 0.88261 0.24959 0.68502 0.0
H792 H 0.5378 0.77046 0.39116 0.0
H793 H 0.54201 0.79049 0.3109 0.0
H794 H 0.59697 0.73773 0.2727 0.0
H795 H 0.59313 0.71784 0.35273 0.0
H796 H 0.60024 0.83031 0.25531 0.0
H797 H 0.51796 0.70042 0.17805 0.0
H798 H 0.5196 0.70828 0.23981 0.0
H799 H 0.55349 0.70433 0.21202 0.0
C800 C 0.55104 0.76334 0.3658 0.0
C801 C 0.56486 0.74224 0.37845 0.0
C802 C 0.55327 0.77467 0.31985 0.0
C803 C 0.56919 0.76504 0.28552 0.0
C804 C 0.58375 0.74474 0.29826 0.0
H805 H 0.60913 0.80583 0.98922 0.0
H806 H 0.60456 0.78565 0.06949 0.0
C807 C 0.58154 0.7334 0.34411 0.0
C808 C 0.57097 0.77656 0.23654 0.0
H809 H 0.54736 0.74694 0.12531 0.0
C810 C 0.58853 0.8121 0.2269 0.0
C811 C 0.55577 0.75278 0.19943 0.0
C812 C 0.53537 0.71432 0.20772 0.0
C813 C 0.59188 0.82449 0.18117 0.0
C814 C 0.57665 0.80071 0.14405 0.0
C815 C 0.55907 0.76516 0.1537 0.0
C816 C 0.57852 0.81222 0.09502 0.0
C817 C 0.61246 0.86295 0.17293 0.0
C818 C 0.56468 0.83318 0.08234 0.0
C819 C 0.5672 0.84468 0.03652 0.0
C820 C 0.58338 0.83526 1.00214 0.0
C821 C 0.59633 0.81342 1.01467 0.0
C822 C 0.59388 0.80199 0.06061 0.0
H823 H 0.63011 0.87671 0.20245 0.0
H824 H 0.628 0.86896 0.14064 0.0
H825 H 0.59447 0.87314 0.16915 0.0
H826 H 0.55185 0.84063 0.10791 0.0
H827 H 0.55628 0.86085 0.02795 0.0
H828 H 0.8769 0.59856 0.68181 0.0
H829 H 0.86001 0.60225 0.60209 0.0
H830 H 0.75274 0.54695 0.64202 0.0
H831 H 0.76939 0.54296 0.72189 0.0
H832 H 0.8188 0.54839 0.54171 0.0
H833 H 0.76101 0.63126 0.5745 0.0
H834 H 0.78806 0.62602 0.61655 0.0
H835 H 0.74362 0.59301 0.60965 0.0
C836 C 0.84968 0.58708 0.67368 0.0
C837 C 0.82451 0.57046 0.70837 0.0
C838 C 0.84009 0.58935 0.62809 0.0
C839 C 0.80515 0.57525 0.61614 0.0
C840 C 0.77991 0.55868 0.65061 0.0
H841 H 0.69731 0.56016 0.35753 0.0
H842 H 0.71322 0.55554 0.43748 0.0
C843 C 0.78948 0.55642 0.6963 0.0
C844 C 0.79521 0.57701 0.56728 0.0
H845 H 0.75399 0.60772 0.49878 0.0
C846 C 0.80474 0.56147 0.53227 0.0
C847 C 0.77678 0.59399 0.55502 0.0
C848 C 0.76699 0.61231 0.59078 0.0
C849 C 0.79591 0.56201 0.48548 0.0
C850 C 0.77761 0.57913 0.47318 0.0
C851 C 0.768 0.59458 0.50822 0.0
C852 C 0.76817 0.58137 0.4242 0.0
C853 C 0.8056 0.54355 0.44981 0.0
C854 C 0.79378 0.59762 0.39008 0.0
C855 C 0.78476 0.60035 0.34428 0.0
C856 C 0.74994 0.58718 0.33172 0.0
C857 C 0.72439 0.57094 0.36605 0.0
C858 C 0.73342 0.56815 0.41177 0.0
H859 H 0.81082 0.52408 0.46614 0.0
H860 H 0.78483 0.5304 0.42349 0.0
H861 H 0.82944 0.56266 0.43162 0.0
H862 H 0.82082 0.60874 0.39902 0.0
H863 H 0.80513 0.61352 0.31895 0.0
H864 H 0.21267 0.74176 0.65039 0.0
H865 H 0.23019 0.75982 0.73087 0.0
H866 H 0.12698 0.73777 0.76341 0.0
H867 H 0.10928 0.71984 0.68299 0.0
H868 H 0.22888 0.81233 0.78077 0.0
H869 H 0.14561 0.68562 0.86526 0.0
H870 H 0.15353 0.6899 0.80345 0.0
H871 H 0.12274 0.69994 0.82851 0.0
C872 C 0.19369 0.74085 0.67458 0.0
C873 C 0.15949 0.72918 0.66013 0.0
C874 C 0.20372 0.75105 0.72067 0.0
C875 C 0.17979 0.74964 0.75343 0.0
C876 C 0.14571 0.73828 0.7391 0.0
H877 H 0.19679 0.80871 0.04604 0.0
H878 H 0.1765 0.78851 0.96679 0.0
C879 C 0.13563 0.72804 0.69303 0.0
C880 C 0.19081 0.76106 0.80218 0.0
H881 H 0.17549 0.73398 0.91524 0.0
C882 C 0.2173 0.79515 0.81015 0.0
C883 C 0.17559 0.73868 0.84056 0.0
C884 C 0.148 0.7014 0.83418 0.0
C885 C 0.22871 0.80758 0.85537 0.0
C886 C 0.21364 0.78516 0.89372 0.0
C887 C 0.18699 0.75114 0.88583 0.0
C888 C 0.22566 0.79643 0.94219 0.0
C889 C 0.25639 0.84484 0.86175 0.0
C890 C 0.25981 0.80684 0.955 0.0
C891 C 0.27142 0.8182 1.00025 0.0
C892 C 0.24911 0.8193 0.03388 0.0
C893 C 0.21463 0.808 0.02121 0.0
C894 C 0.20302 0.79661 0.97585 0.0
H895 H 0.25862 0.8607 0.83082 0.0
H896 H 0.2511 0.8563 0.89272 0.0
H897 H 0.28167 0.84623 0.86698 0.0
H898 H 0.27752 0.80612 0.92996 0.0
H899 H 0.2979 0.82594 1.00896 0.0
H900 H 0.46218 0.22938 0.38691 0.0
H901 H 0.45756 0.20892 0.30673 0.0
H902 H 0.40532 0.2642 0.26743 0.0
H903 H 0.40955 0.2845 0.34734 0.0
H904 H 0.39911 0.17027 0.25042 0.0
H905 H 0.48477 0.29947 0.17391 0.0
H906 H 0.48266 0.29153 0.23566 0.0
H907 H 0.44966 0.29681 0.20745 0.0
C908 C 0.44944 0.23695 0.36132 0.0
C909 C 0.43653 0.25888 0.37361 0.0
C910 C 0.44698 0.22538 0.31542 0.0
C911 C 0.43173 0.23559 0.28083 0.0
C912 C 0.41802 0.25671 0.29322 0.0
H913 H 0.39131 0.1956 0.98456 0.0
H914 H 0.39625 0.2156 0.065 0.0
C915 C 0.42046 0.26829 0.339 0.0
C916 C 0.42978 0.22391 0.23188 0.0
H917 H 0.45425 0.25323 0.12088 0.0
C918 C 0.41132 0.18838 0.22211 0.0
C919 C 0.44566 0.24757 0.19492 0.0
C920 C 0.46708 0.28596 0.2034 0.0
C921 C 0.40769 0.1759 0.17635 0.0
C922 C 0.42353 0.19957 0.13937 0.0
C923 C 0.44206 0.2351 0.14917 0.0
C924 C 0.42127 0.18797 0.09031 0.0
C925 C 0.38619 0.13752 0.1679 0.0
C926 C 0.43438 0.16641 0.07748 0.0
C927 C 0.4317 0.15504 0.03153 0.0
C928 C 0.41605 0.16515 0.9972 0.0
C929 C 0.40372 0.18748 1.00994 0.0
C930 C 0.40637 0.19881 0.05599 0.0
H931 H 0.36848 0.12406 0.19738 0.0
H932 H 0.37062 0.13197 0.13564 0.0
H933 H 0.40355 0.1266 0.16389 0.0
H934 H 0.44682 0.15845 0.10302 0.0
H935 H 0.44214 0.13848 0.02283 0.0
H936 H 0.14321 0.45171 0.0963 0.0
H937 H 0.13862 0.49931 0.13161 0.0
H938 H 0.24904 0.5653 0.11975 0.0
H939 H 0.25325 0.51816 0.08299 0.0
H940 H 0.16566 0.52819 0.21251 0.0
H941 H 0.21824 0.63103 0.07941 0.0
H942 H 0.20625 0.58697 0.06626 0.0
H943 H 0.24763 0.61577 0.092 0.0
C944 C 0.16618 0.4769 0.0995 0.0
C945 C 0.19837 0.48186 0.08539 0.0
C946 C 0.16365 0.50395 0.12009 0.0
C947 C 0.19342 0.53615 0.12791 0.0
C948 C 0.22555 0.54118 0.11291 0.0
H949 H 0.22042 0.68439 0.34591 0.0
H950 H 0.2166 0.6353 0.30216 0.0
C951 C 0.22798 0.51427 0.09181 0.0
C952 C 0.19146 0.56322 0.15579 0.0
H953 H 0.21613 0.64888 0.15728 0.0
C954 C 0.17635 0.55451 0.20019 0.0
C955 C 0.20524 0.59755 0.13982 0.0
C956 C 0.21993 0.60832 0.09158 0.0
C957 C 0.17512 0.57922 0.22921 0.0
C958 C 0.19022 0.61386 0.21396 0.0
C959 C 0.20486 0.62242 0.1693 0.0
C960 C 0.19033 0.64161 0.2428 0.0
C961 C 0.15712 0.56777 0.27552 0.0
C962 C 0.17704 0.6616 0.22414 0.0
C963 C 0.17977 0.6898 0.24862 0.0
C964 C 0.19562 0.6986 0.29258 0.0
C965 C 0.20777 0.67791 0.3123 0.0
C966 C 0.20547 0.64982 0.28735 0.0
H967 H 0.13853 0.53955 0.27602 0.0
H968 H 0.17664 0.57343 0.30308 0.0
H969 H 0.14302 0.58165 0.28409 0.0
H970 H 0.16511 0.65578 0.19004 0.0
H971 H 0.16993 0.70514 0.2327 0.0
H972 H 0.70178 0.15691 0.41209 0.0
H973 H 0.64565 0.13908 0.44905 0.0
H974 H 0.66363 0.24288 0.43475 0.0
H975 H 0.71923 0.26057 0.39799 0.0
H976 H 0.63916 0.16944 0.53283 0.0
H977 H 0.56318 0.18352 0.39147 0.0
H978 H 0.6006 0.17911 0.38065 0.0
H979 H 0.60576 0.22041 0.39621 0.0
C980 C 0.69317 0.17555 0.41575 0.0
C981 C 0.71445 0.20999 0.40167 0.0
C982 C 0.66128 0.16543 0.43703 0.0
C983 C 0.65026 0.18956 0.44409 0.0
C984 C 0.67121 0.22365 0.42876 0.0
H985 H 0.52607 0.24668 0.59004 0.0
H986 H 0.5653 0.23686 0.54254 0.0
C987 C 0.70302 0.23379 0.40798 0.0
C988 C 0.61889 0.1808 0.47164 0.0
H989 H 0.54677 0.18866 0.46975 0.0
C990 C 0.61841 0.17273 0.51891 0.0
C991 C 0.5919 0.18512 0.45337 0.0
C992 C 0.59014 0.19219 0.40251 0.0
C993 C 0.59311 0.17157 0.54913 0.0
C994 C 0.56743 0.17813 0.5313 0.0
C995 C 0.56663 0.18388 0.48345 0.0
C996 C 0.5437 0.18326 0.56204 0.0
C997 C 0.5954 0.16568 0.60032 0.0
C998 C 0.51854 0.15636 0.58923 0.0
C999 C 0.49591 0.16193 0.61686 0.0
C1000 C 0.49803 0.19445 0.61749 0.0
C1001 C 0.52354 0.22128 0.59048 0.0
C1002 C 0.54603 0.21572 0.56313 0.0
H1003 H 0.61978 0.16611 0.60944 0.0
H1004 H 0.59367 0.18568 0.62119 0.0
H1005 H 0.57342 0.14014 0.61028 0.0
H1006 H 0.51597 0.13095 0.58841 0.0
H1007 H 0.4763 0.14058 0.63677 0.0
H1008 H 0.29311 0.47654 0.90033 0.0
H1009 H 0.34312 0.52135 0.86075 0.0
H1010 H 0.38792 0.56939 0.99225 0.0
H1011 H 0.33633 0.525 0.03262 0.0
H1012 H 0.39249 0.61576 0.93407 0.0
H1013 H 0.43804 0.53911 0.83969 0.0
H1014 H 0.39322 0.52225 0.82697 0.0
H1015 H 0.40659 0.52082 0.88576 0.0
C1016 C 0.31358 0.49639 0.92125 0.0
C1017 C 0.31057 0.497 0.96992 0.0
C1018 C 0.3426 0.52184 0.89836 0.0
C1019 C 0.36991 0.54836 0.92337 0.0
C1020 C 0.3674 0.54889 0.97214 0.0
H1021 H 0.54577 0.70754 0.76165 0.0
H1022 H 0.51081 0.65651 0.81019 0.0
C1023 C 0.33797 0.52341 0.99525 0.0
C1024 C 0.39888 0.57719 0.89764 0.0
H1025 H 0.45154 0.59402 0.80335 0.0
C1026 C 0.40587 0.611 0.90616 0.0
C1027 C 0.4171 0.57139 0.86166 0.0
C1028 C 0.41359 0.53643 0.85344 0.0
C1029 C 0.42865 0.63862 0.87788 0.0
C1030 C 0.44398 0.63214 0.83892 0.0
C1031 C 0.439 0.59885 0.83233 0.0
C1032 C 0.46404 0.65948 0.80406 0.0
C1033 C 0.43574 0.67448 0.88989 0.0
C1034 C 0.44885 0.67671 0.78218 0.0
C1035 C 0.46875 0.70584 0.75498 0.0
C1036 C 0.50397 0.7177 0.74789 0.0
C1037 C 0.51857 0.69872 0.76626 0.0
C1038 C 0.49867 0.66972 0.79422 0.0
H1039 H 0.43199 0.67688 0.9276 0.0
H1040 H 0.46247 0.6944 0.88037 0.0
H1041 H 0.41739 0.67985 0.87065 0.0
H1042 H 0.4219 0.66857 0.78793 0.0
H1043 H 0.45695 0.72004 0.74105 0.0
H1044 H 0.85784 0.33511 0.30349 0.0
H1045 H 0.86616 0.38493 0.25746 0.0
H1046 H 0.76284 0.3248 0.20289 0.0
H1047 H 0.75421 0.27531 0.24845 0.0
H1048 H 0.81418 0.36058 0.13428 0.0
H1049 H 0.82232 0.44657 0.28 0.0
H1050 H 0.85056 0.42871 0.28231 0.0
H1051 H 0.80479 0.40071 0.28765 0.0
C1052 C 0.83672 0.33265 0.28224 0.0
C1053 C 0.80524 0.30118 0.28013 0.0
C1054 C 0.84156 0.36115 0.25585 0.0
C1055 C 0.81502 0.35864 0.22695 0.0
C1056 C 0.78369 0.32733 0.22489 0.0
H1057 H 0.73867 0.46057 0.06564 0.0
H1058 H 0.75582 0.42167 0.10108 0.0
C1059 C 0.7788 0.29901 0.25116 0.0
C1060 C 0.81941 0.38811 0.19801 0.0
H1061 H 0.82278 0.46612 0.20411 0.0
C1062 C 0.81659 0.3839 0.14952 0.0
C1063 C 0.82275 0.41861 0.21789 0.0
C1064 C 0.82509 0.42409 0.26981 0.0
C1065 C 0.8155 0.40865 0.12059 0.0
C1066 C 0.817 0.43824 0.14063 0.0
C1067 C 0.82178 0.44344 0.18883 0.0
C1068 C 0.80882 0.46141 0.11326 0.0
C1069 C 0.81185 0.40259 0.06883 0.0
C1070 C 0.83307 0.49665 0.10779 0.0
C1071 C 0.82334 0.51893 0.08696 0.0
C1072 C 0.78913 0.5062 0.0719 0.0
C1073 C 0.76529 0.47084 0.07638 0.0
C1074 C 0.77508 0.44863 0.09653 0.0
H1075 H 0.81988 0.3838 0.05784 0.0
H1076 H 0.78443 0.39211 0.05872 0.0
H1077 H 0.82759 0.42719 0.04988 0.0
H1078 H 0.85915 0.50706 0.12086 0.0
H1079 H 0.84202 0.54623 0.08482 0.0
H1080 H 0.31322 0.86766 0.4221 0.0
H1081 H 0.36772 0.87686 0.45597 0.0
H1082 H 0.33582 0.76985 0.43087 0.0
H1083 H 0.28152 0.76077 0.39728 0.0
H1084 H 0.36638 0.8395 0.53564 0.0
H1085 H 0.43841 0.81928 0.39371 0.0
H1086 H 0.4075 0.83343 0.38341 0.0
H1087 H 0.39288 0.78868 0.39474 0.0
C1088 C 0.31867 0.84659 0.42208 0.0
C1089 C 0.29394 0.81386 0.40555 0.0
C1090 C 0.34961 0.85177 0.44167 0.0
C1091 C 0.35611 0.82418 0.44537 0.0
C1092 C 0.33186 0.79176 0.42726 0.0
H1093 H 0.47646 0.75684 0.59168 0.0
H1094 H 0.43768 0.76691 0.54327 0.0
C1095 C 0.30091 0.78658 0.40787 0.0
C1096 C 0.3855 0.82766 0.47376 0.0
H1097 H 0.45431 0.81425 0.47122 0.0
C1098 C 0.38603 0.83462 0.52148 0.0
C1099 C 0.41101 0.82122 0.45523 0.0
C1100 C 0.41277 0.8155 0.40389 0.0
C1101 C 0.41023 0.83342 0.55159 0.0
C1102 C 0.43493 0.82561 0.53332 0.0
C1103 C 0.43526 0.82005 0.48526 0.0
C1104 C 0.4588 0.82029 0.56378 0.0
C1105 C 0.40799 0.83872 0.60299 0.0
C1106 C 0.48366 0.84699 0.59175 0.0
C1107 C 0.50598 0.84127 0.61993 0.0
C1108 C 0.50395 0.8088 0.62036 0.0
C1109 C 0.4789 0.7822 0.59235 0.0
C1110 C 0.45668 0.78792 0.56443 0.0
H1111 H 0.38335 0.83762 0.61243 0.0
H1112 H 0.41031 0.81889 0.62342 0.0
H1113 H 0.42957 0.86447 0.61323 0.0
H1114 H 0.48616 0.87237 0.59127 0.0
H1115 H 0.52526 0.86245 0.64053 0.0
H1116 H 0.72499 0.48291 0.91885 0.0
H1117 H 0.67651 0.44356 0.87065 0.0
H1118 H 0.61612 0.48702 0.92327 0.0
H1119 H 0.66506 0.52714 0.97211 0.0
H1120 H 0.58078 0.41345 0.921 0.0
H1121 H 0.64242 0.4679 0.75184 0.0
H1122 H 0.66963 0.45942 0.78894 0.0
H1123 H 0.65826 0.49126 0.80588 0.0
C1124 C 0.70155 0.48438 0.92034 0.0
C1125 C 0.69907 0.50837 0.94946 0.0
C1126 C 0.67385 0.46191 0.89239 0.0
C1127 C 0.64298 0.46288 0.89252 0.0
C1128 C 0.6399 0.48613 0.92228 0.0
H1129 H 0.45747 0.29926 0.74823 0.0
H1130 H 0.49499 0.35601 0.78394 0.0
C1131 C 0.66781 0.50888 0.95037 0.0
C1132 C 0.61391 0.43843 0.86251 0.0
H1133 H 0.59594 0.40848 0.75085 0.0
C1134 C 0.5836 0.4128 0.88364 0.0
C1135 C 0.6176 0.43779 0.81372 0.0
C1136 C 0.6486 0.4658 0.78869 0.0
C1137 C 0.55816 0.38499 0.85773 0.0
C1138 C 0.56309 0.38309 0.80946 0.0
C1139 C 0.5923 0.40993 0.78789 0.0
C1140 C 0.54089 0.35129 0.78239 0.0
C1141 C 0.52733 0.35661 0.88262 0.0
C1142 C 0.55457 0.33054 0.76818 0.0
C1143 C 0.53334 0.29839 0.74774 0.0
C1144 C 0.49816 0.28664 0.74033 0.0
C1145 C 0.48465 0.308 0.75277 0.0
C1146 C 0.50596 0.34023 0.77353 0.0
H1147 H 0.52924 0.3602 0.92094 0.0
H1148 H 0.5035 0.35615 0.8706 0.0
H1149 H 0.52467 0.3311 0.87437 0.0
H1150 H 0.58144 0.33858 0.77476 0.0
H1151 H 0.54421 0.28221 0.73886 0.0
loop_
_geom_bond_atom_site_label_1
_geom_bond_atom_site_label_2
_geom_bond_distance
_geom_bond_site_symmetry_2
_ccdc_geom_bond_type
Eu0 N31 2.657 . S
Eu0 N38 2.609 . S
Eu0 O44 2.558 . S
Eu0 O45 2.612 . S
Eu0 O47 2.339 . S
Eu0 O48 2.563 . S
Eu0 O49 2.419 . S
Eu0 O51 2.380 1_556 S
Eu0 O52 2.432 1_556 S
Eu0 C64 2.848 . S
C1 C4 1.429 . S
C1 C5 1.411 . S
C1 N8 1.377 . S
C2 C4 1.420 . S
C2 C6 1.423 . S
C2 C14 1.392 . S
C3 C5 1.420 . S
C3 C6 1.351 . S
C3 H26 0.931 . S
C4 C1 1.429 . S
C4 C2 1.420 . S
C4 N12 1.362 . S
C5 C1 1.411 . S
C5 C3 1.420 . S
C5 C10 1.395 . S
C6 C2 1.423 . S
C6 C3 1.351 . S
C6 H18 0.930 . S
C7 C9 1.400 . S
C7 C10 1.386 . S
C7 H19 0.930 . S
N8 C1 1.377 . S
N8 C9 1.321 . S
N8 Eu11 2.609 . S
C9 C7 1.400 . S
C9 N8 1.321 . S
C9 H16 0.930 . S
C10 C5 1.395 . S
C10 C7 1.386 . S
C10 H29 0.930 . S
Eu11 N8 2.609 . S
Eu11 N12 2.657 . S
Eu11 O45 2.380 1_554 S
Eu11 O46 2.432 . S
Eu11 O50 2.558 . S
Eu11 O51 2.612 . S
Eu11 O53 2.339 . S
Eu11 O54 2.563 . S
Eu11 O55 2.419 . S
Eu11 C75 2.848 . S
N12 C4 1.362 . S
N12 Eu11 2.657 . S
N12 C13 1.334 . S
C13 N12 1.334 . S
C13 C15 1.413 . S
C13 H20 0.929 . S
C14 C2 1.392 . S
C14 C15 1.367 . S
C14 H22 0.930 . S
C15 C13 1.413 . S
C15 C14 1.367 . S
C15 H17 0.930 . S
H16 C9 0.930 . S
H17 C15 0.930 . S
H18 C6 0.930 . S
H19 C7 0.930 . S
H20 C13 0.929 . S
H21 C35 0.930 . S
H22 C14 0.930 . S
H23 C41 0.930 . S
H24 C32 0.929 . S
H25 C39 0.930 . S
H26 C3 0.931 . S
H27 C33 0.930 . S
H28 C66 0.930 . S
H29 C10 0.930 . S
H30 C65 0.931 . S
N31 Eu0 2.657 . S
N31 C32 1.334 . S
N31 C36 1.362 . S
C32 H24 0.929 . S
C32 N31 1.334 . S
C32 C35 1.413 . S
C33 H27 0.930 . S
C33 C34 1.392 . S
C33 C35 1.367 . S
C34 C33 1.392 . S
C34 C36 1.420 . S
C34 C66 1.423 . S
C35 H21 0.930 . S
C35 C32 1.413 . S
C35 C33 1.367 . S
C36 N31 1.362 . S
C36 C34 1.420 . S
C36 C40 1.429 . S
H37 C42 0.930 . S
N38 Eu0 2.609 . S
N38 C40 1.377 . S
N38 C41 1.321 . S
C39 H25 0.930 . S
C39 C41 1.400 . S
C39 C42 1.386 . S
C40 C36 1.429 . S
C40 N38 1.377 . S
C40 C43 1.411 . S
C41 H23 0.930 . S
C41 N38 1.321 . S
C41 C39 1.400 . S
C42 H37 0.930 . S
C42 C39 1.386 . S
C42 C43 1.395 . S
C43 C40 1.411 . S
C43 C42 1.395 . S
C43 C65 1.420 . S
O44 Eu0 2.558 . S
O44 C64 1.257 . S
O45 Eu0 2.612 . S
O45 Eu11 2.380 1_556 S
O45 C56 1.276 . S
O46 Eu11 2.432 . S
O46 C63 1.264 1_554 S
O47 Eu0 2.339 . S
O47 C63 1.254 . S
O48 Eu0 2.563 . S
O48 C56 1.235 . S
O49 Eu0 2.419 . S
O49 C64 1.249 . S
O50 Eu11 2.558 . S
O50 C75 1.257 . S
O51 Eu0 2.380 1_554 S
O51 Eu11 2.612 . S
O51 C67 1.276 . S
O52 Eu0 2.432 1_554 S
O52 C74 1.264 . S
O53 Eu11 2.339 . S
O53 C74 1.254 . S
O54 Eu11 2.563 . S
O54 C67 1.235 . S
O55 Eu11 2.419 . S
O55 C75 1.249 . S
C56 O45 1.276 . S
C56 O48 1.235 . S
C57 C59 1.393 . S
C57 C61 1.395 . S
C57 C64 1.492 . S
C58 C59 1.392 . S
C58 C60 1.386 . S
C59 C57 1.393 . S
C59 C58 1.392 . S
C59 H76 0.930 . S
C60 C58 1.386 . S
C60 C62 1.395 . S
C60 H77 0.930 . S
C61 C57 1.395 . S
C61 C62 1.379 . S
C61 H78 0.930 . S
C62 C60 1.395 . S
C62 C61 1.379 . S
C62 H79 0.930 . S
C63 O46 1.264 1_556 S
C63 O47 1.254 . S
C64 Eu0 2.848 . S
C64 O44 1.257 . S
C64 O49 1.249 . S
C64 C57 1.492 . S
C65 H30 0.931 . S
C65 C43 1.420 . S
C65 C66 1.351 . S
C66 H28 0.930 . S
C66 C34 1.423 . S
C66 C65 1.351 . S
C67 O51 1.276 . S
C67 O54 1.235 . S
C68 C69 1.393 . S
C68 C72 1.395 . S
C68 C75 1.492 . S
C69 C68 1.393 . S
C69 C70 1.392 . S
C69 H80 0.930 . S
C70 C69 1.392 . S
C70 C71 1.386 . S
C71 C70 1.386 . S
C71 C73 1.395 . S
C71 H81 0.930 . S
C72 C68 1.395 . S
C72 C73 1.379 . S
C72 H82 0.930 . S
C73 C71 1.395 . S
C73 C72 1.379 . S
C73 H83 0.930 . S
C74 O52 1.264 . S
C74 O53 1.254 . S
C75 Eu11 2.848 . S
C75 O50 1.257 . S
C75 O55 1.249 . S
C75 C68 1.492 . S
H76 C59 0.930 . S
H77 C60 0.930 . S
H78 C61 0.930 . S
H79 C62 0.930 . S
H80 C69 0.930 . S
H81 C71 0.930 . S
H82 C72 0.930 . S
H83 C73 0.930 . S
Eu84 N115 2.657 . S
Eu84 N122 2.609 . S
Eu84 O128 2.558 . S
Eu84 O129 2.612 . S
Eu84 O131 2.339 . S
Eu84 O132 2.563 . S
Eu84 O133 2.419 . S
Eu84 O135 2.380 . S
Eu84 O136 2.432 . S
Eu84 C148 2.848 . S
C85 C88 1.429 . S
C85 C89 1.411 . S
C85 N92 1.377 . S
C86 C88 1.420 . S
C86 C90 1.423 . S
C86 C98 1.392 . S
C87 C89 1.420 . S
C87 C90 1.351 . S
C87 H110 0.931 . S
C88 C85 1.429 . S
C88 C86 1.420 . S
C88 N96 1.362 . S
C89 C85 1.411 . S
C89 C87 1.420 . S
C89 C94 1.395 . S
C90 C86 1.423 . S
C90 C87 1.351 . S
C90 H102 0.930 . S
C91 C93 1.400 . S
C91 C94 1.386 . S
C91 H103 0.930 . S
N92 C85 1.377 . S
N92 C93 1.321 . S
N92 Eu95 2.609 . S
C93 C91 1.400 . S
C93 N92 1.321 . S
C93 H100 0.930 . S
C94 C89 1.395 . S
C94 C91 1.386 . S
C94 H113 0.930 . S
Eu95 N92 2.609 . S
Eu95 N96 2.657 . S
Eu95 O129 2.380 . S
Eu95 O130 2.432 . S
Eu95 O134 2.558 . S
Eu95 O135 2.612 . S
Eu95 O137 2.339 . S
Eu95 O138 2.563 . S
Eu95 O139 2.419 . S
Eu95 C159 2.848 . S
N96 C88 1.362 . S
N96 Eu95 2.657 . S
N96 C97 1.334 . S
C97 N96 1.334 . S
C97 C99 1.413 . S
C97 H104 0.929 . S
C98 C86 1.392 . S
C98 C99 1.367 . S
C98 H106 0.930 . S
C99 C97 1.413 . S
C99 C98 1.367 . S
C99 H101 0.930 . S
H100 C93 0.930 . S
H101 C99 0.930 . S
H102 C90 0.930 . S
H103 C91 0.930 . S
H104 C97 0.929 . S
H105 C119 0.930 . S
H106 C98 0.930 . S
H107 C125 0.930 . S
H108 C116 0.929 . S
H109 C123 0.930 . S
H110 C87 0.931 . S
H111 C117 0.930 . S
H112 C150 0.930 . S
H113 C94 0.930 . S
H114 C149 0.931 . S
N115 Eu84 2.657 . S
N115 C116 1.334 . S
N115 C120 1.362 . S
C116 H108 0.929 . S
C116 N115 1.334 . S
C116 C119 1.413 . S
C117 H111 0.930 . S
C117 C118 1.392 . S
C117 C119 1.367 . S
C118 C117 1.392 . S
C118 C120 1.420 . S
C118 C150 1.423 . S
C119 H105 0.930 . S
C119 C116 1.413 . S
C119 C117 1.367 . S
C120 N115 1.362 . S
C120 C118 1.420 . S
C120 C124 1.429 . S
H121 C126 0.930 . S
N122 Eu84 2.609 . S
N122 C124 1.377 . S
N122 C125 1.321 . S
C123 H109 0.930 . S
C123 C125 1.400 . S
C123 C126 1.386 . S
C124 C120 1.429 . S
C124 N122 1.377 . S
C124 C127 1.411 . S
C125 H107 0.930 . S
C125 N122 1.321 . S
C125 C123 1.400 . S
C126 H121 0.930 . S
C126 C123 1.386 . S
C126 C127 1.395 . S
C127 C124 1.411 . S
C127 C126 1.395 . S
C127 C149 1.420 . S
O128 Eu84 2.558 . S
O128 C148 1.257 . S
O129 Eu84 2.612 . S
O129 Eu95 2.380 . S
O129 C140 1.276 . S
O130 Eu95 2.432 . S
O130 C147 1.264 . S
O131 Eu84 2.339 . S
O131 C147 1.254 . S
O132 Eu84 2.563 . S
O132 C140 1.235 . S
O133 Eu84 2.419 . S
O133 C148 1.249 . S
O134 Eu95 2.558 . S
O134 C159 1.257 . S
O135 Eu84 2.380 . S
O135 Eu95 2.612 . S
O135 C151 1.276 . S
O136 Eu84 2.432 . S
O136 C158 1.264 . S
O137 Eu95 2.339 . S
O137 C158 1.254 . S
O138 Eu95 2.563 . S
O138 C151 1.235 . S
O139 Eu95 2.419 . S
O139 C159 1.249 . S
C140 O129 1.276 . S
C140 O132 1.235 . S
C141 C143 1.393 . S
C141 C145 1.395 . S
C141 C148 1.492 . S
C142 C143 1.392 . S
C142 C144 1.386 . S
C143 C141 1.393 . S
C143 C142 1.392 . S
C143 H160 0.930 . S
C144 C142 1.386 . S
C144 C146 1.395 . S
C144 H161 0.930 . S
C145 C141 1.395 . S
C145 C146 1.379 . S
C145 H162 0.930 . S
C146 C144 1.395 . S
C146 C145 1.379 . S
C146 H163 0.930 . S
C147 O130 1.264 . S
C147 O131 1.254 . S
C148 Eu84 2.848 . S
C148 O128 1.257 . S
C148 O133 1.249 . S
C148 C141 1.492 . S
C149 H114 0.931 . S
C149 C127 1.420 . S
C149 C150 1.351 . S
C150 H112 0.930 . S
C150 C118 1.423 . S
C150 C149 1.351 . S
C151 O135 1.276 . S
C151 O138 1.235 . S
C152 C153 1.393 . S
C152 C156 1.395 . S
C152 C159 1.492 . S
C153 C152 1.393 . S
C153 C154 1.392 . S
C153 H164 0.930 . S
C154 C153 1.392 . S
C154 C155 1.386 . S
C155 C154 1.386 . S
C155 C157 1.395 . S
C155 H165 0.930 . S
C156 C152 1.395 . S
C156 C157 1.379 . S
C156 H166 0.930 . S
C157 C155 1.395 . S
C157 C156 1.379 . S
C157 H167 0.930 . S
C158 O136 1.264 . S
C158 O137 1.254 . S
C159 Eu95 2.848 . S
C159 O134 1.257 . S
C159 O139 1.249 . S
C159 C152 1.492 . S
H160 C143 0.930 . S
H161 C144 0.930 . S
H162 C145 0.930 . S
H163 C146 0.930 . S
H164 C153 0.930 . S
H165 C155 0.930 . S
H166 C156 0.930 . S
H167 C157 0.930 . S
Eu168 N199 2.657 . S
Eu168 N206 2.609 . S
Eu168 O212 2.558 . S
Eu168 O213 2.612 . S
Eu168 O215 2.339 . S
Eu168 O216 2.563 . S
Eu168 O217 2.419 . S
Eu168 O219 2.380 . S
Eu168 O220 2.432 . S
Eu168 C232 2.848 . S
C169 C172 1.429 . S
C169 C173 1.411 . S
C169 N176 1.377 . S
C170 C172 1.420 . S
C170 C174 1.423 . S
C170 C182 1.392 . S
C171 C173 1.420 . S
C171 C174 1.351 . S
C171 H194 0.931 . S
C172 C169 1.429 . S
C172 C170 1.420 . S
C172 N180 1.362 . S
C173 C169 1.411 . S
C173 C171 1.420 . S
C173 C178 1.395 . S
C174 C170 1.423 . S
C174 C171 1.351 . S
C174 H186 0.930 . S
C175 C177 1.400 . S
C175 C178 1.386 . S
C175 H187 0.930 . S
N176 C169 1.377 . S
N176 C177 1.321 . S
N176 Eu179 2.609 . S
C177 C175 1.400 . S
C177 N176 1.321 . S
C177 H184 0.930 . S
C178 C173 1.395 . S
C178 C175 1.386 . S
C178 H197 0.930 . S
Eu179 N176 2.609 . S
Eu179 N180 2.657 . S
Eu179 O213 2.380 . S
Eu179 O214 2.432 . S
Eu179 O218 2.558 . S
Eu179 O219 2.612 . S
Eu179 O221 2.339 . S
Eu179 O222 2.563 . S
Eu179 O223 2.419 . S
Eu179 C243 2.848 . S
N180 C172 1.362 . S
N180 Eu179 2.657 . S
N180 C181 1.334 . S
C181 N180 1.334 . S
C181 C183 1.413 . S
C181 H188 0.929 . S
C182 C170 1.392 . S
C182 C183 1.367 . S
C182 H190 0.930 . S
C183 C181 1.413 . S
C183 C182 1.367 . S
C183 H185 0.930 . S
H184 C177 0.930 . S
H185 C183 0.930 . S
H186 C174 0.930 . S
H187 C175 0.930 . S
H188 C181 0.929 . S
H189 C203 0.930 . S
H190 C182 0.930 . S
H191 C209 0.930 . S
H192 C200 0.929 . S
H193 C207 0.930 . S
H194 C171 0.931 . S
H195 C201 0.930 . S
H196 C234 0.930 . S
H197 C178 0.930 . S
H198 C233 0.931 . S
N199 Eu168 2.657 . S
N199 C200 1.334 . S
N199 C204 1.362 . S
C200 H192 0.929 . S
C200 N199 1.334 . S
C200 C203 1.413 . S
C201 H195 0.930 . S
C201 C202 1.392 . S
C201 C203 1.367 . S
C202 C201 1.392 . S
C202 C204 1.420 . S
C202 C234 1.423 . S
C203 H189 0.930 . S
C203 C200 1.413 . S
C203 C201 1.367 . S
C204 N199 1.362 . S
C204 C202 1.420 . S
C204 C208 1.429 . S
H205 C210 0.930 . S
N206 Eu168 2.609 . S
N206 C208 1.377 . S
N206 C209 1.321 . S
C207 H193 0.930 . S
C207 C209 1.400 . S
C207 C210 1.386 . S
C208 C204 1.429 . S
C208 N206 1.377 . S
C208 C211 1.411 . S
C209 H191 0.930 . S
C209 N206 1.321 . S
C209 C207 1.400 . S
C210 H205 0.930 . S
C210 C207 1.386 . S
C210 C211 1.395 . S
C211 C208 1.411 . S
C211 C210 1.395 . S
C211 C233 1.420 . S
O212 Eu168 2.558 . S
O212 C232 1.257 . S
O213 Eu168 2.612 . S
O213 Eu179 2.380 . S
O213 C224 1.276 . S
O214 Eu179 2.432 . S
O214 C231 1.264 . S
O215 Eu168 2.339 . S
O215 C231 1.254 . S
O216 Eu168 2.563 . S
O216 C224 1.235 . S
O217 Eu168 2.419 . S
O217 C232 1.249 . S
O218 Eu179 2.558 . S
O218 C243 1.257 . S
O219 Eu168 2.380 . S
O219 Eu179 2.612 . S
O219 C235 1.276 . S
O220 Eu168 2.432 . S
O220 C242 1.264 . S
O221 Eu179 2.339 . S
O221 C242 1.254 . S
O222 Eu179 2.563 . S
O222 C235 1.235 . S
O223 Eu179 2.419 . S
O223 C243 1.249 . S
C224 O213 1.276 . S
C224 O216 1.235 . S
C225 C227 1.393 . S
C225 C229 1.395 . S
C225 C232 1.492 . S
C226 C227 1.392 . S
C226 C228 1.386 . S
C227 C225 1.393 . S
C227 C226 1.392 . S
C227 H244 0.930 . S
C228 C226 1.386 . S
C228 C230 1.395 . S
C228 H245 0.930 . S
C229 C225 1.395 . S
C229 C230 1.379 . S
C229 H246 0.930 . S
C230 C228 1.395 . S
C230 C229 1.379 . S
C230 H247 0.930 . S
C231 O214 1.264 . S
C231 O215 1.254 . S
C232 Eu168 2.848 . S
C232 O212 1.257 . S
C232 O217 1.249 . S
C232 C225 1.492 . S
C233 H198 0.931 . S
C233 C211 1.420 . S
C233 C234 1.351 . S
C234 H196 0.930 . S
C234 C202 1.423 . S
C234 C233 1.351 . S
C235 O219 1.276 . S
C235 O222 1.235 . S
C236 C237 1.393 . S
C236 C240 1.395 . S
C236 C243 1.492 . S
C237 C236 1.393 . S
C237 C238 1.392 . S
C237 H248 0.930 . S
C238 C237 1.392 . S
C238 C239 1.386 . S
C239 C238 1.386 . S
C239 C241 1.395 . S
C239 H249 0.930 . S
C240 C236 1.395 . S
C240 C241 1.379 . S
C240 H250 0.930 . S
C241 C239 1.395 . S
C241 C240 1.379 . S
C241 H251 0.930 . S
C242 O220 1.264 . S
C242 O221 1.254 . S
C243 Eu179 2.848 . S
C243 O218 1.257 . S
C243 O223 1.249 . S
C243 C236 1.492 . S
H244 C227 0.930 . S
H245 C228 0.930 . S
H246 C229 0.930 . S
H247 C230 0.930 . S
H248 C237 0.930 . S
H249 C239 0.930 . S
H250 C240 0.930 . S
H251 C241 0.930 . S
Eu252 N283 2.657 . S
Eu252 N290 2.609 . S
Eu252 O296 2.558 . S
Eu252 O297 2.612 . S
Eu252 O299 2.339 . S
Eu252 O300 2.563 . S
Eu252 O301 2.419 . S
Eu252 O303 2.380 1_556 S
Eu252 O304 2.432 1_556 S
Eu252 C316 2.848 . S
C253 C256 1.429 . S
C253 C257 1.411 . S
C253 N260 1.377 . S
C254 C256 1.420 . S
C254 C258 1.423 . S
C254 C266 1.392 . S
C255 C257 1.420 . S
C255 C258 1.351 . S
C255 H278 0.931 . S
C256 C253 1.429 . S
C256 C254 1.420 . S
C256 N264 1.362 . S
C257 C253 1.411 . S
C257 C255 1.420 . S
C257 C262 1.395 . S
C258 C254 1.423 . S
C258 C255 1.351 . S
C258 H270 0.930 . S
C259 C261 1.400 . S
C259 C262 1.386 . S
C259 H271 0.930 . S
N260 C253 1.377 . S
N260 C261 1.321 . S
N260 Eu263 2.609 . S
C261 C259 1.400 . S
C261 N260 1.321 . S
C261 H268 0.930 . S
C262 C257 1.395 . S
C262 C259 1.386 . S
C262 H281 0.930 . S
Eu263 N260 2.609 . S
Eu263 N264 2.657 . S
Eu263 O297 2.380 1_554 S
Eu263 O298 2.432 . S
Eu263 O302 2.558 . S
Eu263 O303 2.612 . S
Eu263 O305 2.339 . S
Eu263 O306 2.563 . S
Eu263 O307 2.419 . S
Eu263 C327 2.848 . S
N264 C256 1.362 . S
N264 Eu263 2.657 . S
N264 C265 1.334 . S
C265 N264 1.334 . S
C265 C267 1.413 . S
C265 H272 0.929 . S
C266 C254 1.392 . S
C266 C267 1.367 . S
C266 H274 0.930 . S
C267 C265 1.413 . S
C267 C266 1.367 . S
C267 H269 0.930 . S
H268 C261 0.930 . S
H269 C267 0.930 . S
H270 C258 0.930 . S
H271 C259 0.930 . S
H272 C265 0.929 . S
H273 C287 0.930 . S
H274 C266 0.930 . S
H275 C293 0.930 . S
H276 C284 0.929 . S
H277 C291 0.930 . S
H278 C255 0.931 . S
H279 C285 0.930 . S
H280 C318 0.930 . S
H281 C262 0.930 . S
H282 C317 0.931 . S
N283 Eu252 2.657 . S
N283 C284 1.334 . S
N283 C288 1.362 . S
C284 H276 0.929 . S
C284 N283 1.334 . S
C284 C287 1.413 . S
C285 H279 0.930 . S
C285 C286 1.392 . S
C285 C287 1.367 . S
C286 C285 1.392 . S
C286 C288 1.420 . S
C286 C318 1.423 . S
C287 H273 0.930 . S
C287 C284 1.413 . S
C287 C285 1.367 . S
C288 N283 1.362 . S
C288 C286 1.420 . S
C288 C292 1.429 . S
H289 C294 0.930 . S
N290 Eu252 2.609 . S
N290 C292 1.377 . S
N290 C293 1.321 . S
C291 H277 0.930 . S
C291 C293 1.400 . S
C291 C294 1.386 . S
C292 C288 1.429 . S
C292 N290 1.377 . S
C292 C295 1.411 . S
C293 H275 0.930 . S
C293 N290 1.321 . S
C293 C291 1.400 . S
C294 H289 0.930 . S
C294 C291 1.386 . S
C294 C295 1.395 . S
C295 C292 1.411 . S
C295 C294 1.395 . S
C295 C317 1.420 . S
O296 Eu252 2.558 . S
O296 C316 1.257 . S
O297 Eu252 2.612 . S
O297 Eu263 2.380 1_556 S
O297 C308 1.276 . S
O298 Eu263 2.432 . S
O298 C315 1.264 1_554 S
O299 Eu252 2.339 . S
O299 C315 1.254 . S
O300 Eu252 2.563 . S
O300 C308 1.235 . S
O301 Eu252 2.419 . S
O301 C316 1.249 . S
O302 Eu263 2.558 . S
O302 C327 1.257 . S
O303 Eu252 2.380 1_554 S
O303 Eu263 2.612 . S
O303 C319 1.276 . S
O304 Eu252 2.432 1_554 S
O304 C326 1.264 . S
O305 Eu263 2.339 . S
O305 C326 1.254 . S
O306 Eu263 2.563 . S
O306 C319 1.235 . S
O307 Eu263 2.419 . S
O307 C327 1.249 . S
C308 O297 1.276 . S
C308 O300 1.235 . S
C309 C311 1.393 . S
C309 C313 1.395 . S
C309 C316 1.492 . S
C310 C311 1.392 . S
C310 C312 1.386 . S
C311 C309 1.393 . S
C311 C310 1.392 . S
C311 H328 0.930 . S
C312 C310 1.386 . S
C312 C314 1.395 . S
C312 H329 0.930 . S
C313 C309 1.395 . S
C313 C314 1.379 . S
C313 H330 0.930 . S
C314 C312 1.395 . S
C314 C313 1.379 . S
C314 H331 0.930 . S
C315 O298 1.264 1_556 S
C315 O299 1.254 . S
C316 Eu252 2.848 . S
C316 O296 1.257 . S
C316 O301 1.249 . S
C316 C309 1.492 . S
C317 H282 0.931 . S
C317 C295 1.420 . S
C317 C318 1.351 . S
C318 H280 0.930 . S
C318 C286 1.423 . S
C318 C317 1.351 . S
C319 O303 1.276 . S
C319 O306 1.235 . S
C320 C321 1.393 . S
C320 C324 1.395 . S
C320 C327 1.492 . S
C321 C320 1.393 . S
C321 C322 1.392 . S
C321 H332 0.930 . S
C322 C321 1.392 . S
C322 C323 1.386 . S
C323 C322 1.386 . S
C323 C325 1.395 . S
C323 H333 0.930 . S
C324 C320 1.395 . S
C324 C325 1.379 . S
C324 H334 0.930 . S
C325 C323 1.395 . S
C325 C324 1.379 . S
C325 H335 0.930 . S
C326 O304 1.264 . S
C326 O305 1.254 . S
C327 Eu263 2.848 . S
C327 O302 1.257 . S
C327 O307 1.249 . S
C327 C320 1.492 . S
H328 C311 0.930 . S
H329 C312 0.930 . S
H330 C313 0.930 . S
H331 C314 0.930 . S
H332 C321 0.930 . S
H333 C323 0.930 . S
H334 C324 0.930 . S
H335 C325 0.930 . S
Eu336 N367 2.657 . S
Eu336 N374 2.609 . S
Eu336 O380 2.558 . S
Eu336 O381 2.612 . S
Eu336 O383 2.339 . S
Eu336 O384 2.563 . S
Eu336 O385 2.419 . S
Eu336 O387 2.380 . S
Eu336 O388 2.432 . S
Eu336 C400 2.848 . S
C337 C340 1.429 . S
C337 C341 1.411 . S
C337 N344 1.377 . S
C338 C340 1.420 . S
C338 C342 1.423 . S
C338 C350 1.392 . S
C339 C341 1.420 . S
C339 C342 1.351 . S
C339 H362 0.931 . S
C340 C337 1.429 . S
C340 C338 1.420 . S
C340 N348 1.362 . S
C341 C337 1.411 . S
C341 C339 1.420 . S
C341 C346 1.395 . S
C342 C338 1.423 . S
C342 C339 1.351 . S
C342 H354 0.930 . S
C343 C345 1.400 . S
C343 C346 1.386 . S
C343 H355 0.930 . S
N344 C337 1.377 . S
N344 C345 1.321 . S
N344 Eu347 2.609 . S
C345 C343 1.400 . S
C345 N344 1.321 . S
C345 H352 0.930 . S
C346 C341 1.395 . S
C346 C343 1.386 . S
C346 H365 0.930 . S
Eu347 N344 2.609 . S
Eu347 N348 2.657 . S
Eu347 O381 2.380 . S
Eu347 O382 2.432 . S
Eu347 O386 2.558 . S
Eu347 O387 2.612 . S
Eu347 O389 2.339 . S
Eu347 O390 2.563 . S
Eu347 O391 2.419 . S
Eu347 C411 2.848 . S
N348 C340 1.362 . S
N348 Eu347 2.657 . S
N348 C349 1.334 . S
C349 N348 1.334 . S
C349 C351 1.413 . S
C349 H356 0.929 . S
C350 C338 1.392 . S
C350 C351 1.367 . S
C350 H358 0.930 . S
C351 C349 1.413 . S
C351 C350 1.367 . S
C351 H353 0.930 . S
H352 C345 0.930 . S
H353 C351 0.930 . S
H354 C342 0.930 . S
H355 C343 0.930 . S
H356 C349 0.929 . S
H357 C371 0.930 . S
H358 C350 0.930 . S
H359 C377 0.930 . S
H360 C368 0.929 . S
H361 C375 0.930 . S
H362 C339 0.931 . S
H363 C369 0.930 . S
H364 C402 0.930 . S
H365 C346 0.930 . S
H366 C401 0.931 . S
N367 Eu336 2.657 . S
N367 C368 1.334 . S
N367 C372 1.362 . S
C368 H360 0.929 . S
C368 N367 1.334 . S
C368 C371 1.413 . S
C369 H363 0.930 . S
C369 C370 1.392 . S
C369 C371 1.367 . S
C370 C369 1.392 . S
C370 C372 1.420 . S
C370 C402 1.423 . S
C371 H357 0.930 . S
C371 C368 1.413 . S
C371 C369 1.367 . S
C372 N367 1.362 . S
C372 C370 1.420 . S
C372 C376 1.429 . S
H373 C378 0.930 . S
N374 Eu336 2.609 . S
N374 C376 1.377 . S
N374 C377 1.321 . S
C375 H361 0.930 . S
C375 C377 1.400 . S
C375 C378 1.386 . S
C376 C372 1.429 . S
C376 N374 1.377 . S
C376 C379 1.411 . S
C377 H359 0.930 . S
C377 N374 1.321 . S
C377 C375 1.400 . S
C378 H373 0.930 . S
C378 C375 1.386 . S
C378 C379 1.395 . S
C379 C376 1.411 . S
C379 C378 1.395 . S
C379 C401 1.420 . S
O380 Eu336 2.558 . S
O380 C400 1.257 . S
O381 Eu336 2.612 . S
O381 Eu347 2.380 . S
O381 C392 1.276 . S
O382 Eu347 2.432 . S
O382 C399 1.264 . S
O383 Eu336 2.339 . S
O383 C399 1.254 . S
O384 Eu336 2.563 . S
O384 C392 1.235 . S
O385 Eu336 2.419 . S
O385 C400 1.249 . S
O386 Eu347 2.558 . S
O386 C411 1.257 . S
O387 Eu336 2.380 . S
O387 Eu347 2.612 . S
O387 C403 1.276 . S
O388 Eu336 2.432 . S
O388 C410 1.264 . S
O389 Eu347 2.339 . S
O389 C410 1.254 . S
O390 Eu347 2.563 . S
O390 C403 1.235 . S
O391 Eu347 2.419 . S
O391 C411 1.249 . S
C392 O381 1.276 . S
C392 O384 1.235 . S
C393 C395 1.393 . S
C393 C397 1.395 . S
C393 C400 1.492 . S
C394 C395 1.392 . S
C394 C396 1.386 . S
C395 C393 1.393 . S
C395 C394 1.392 . S
C395 H412 0.930 . S
C396 C394 1.386 . S
C396 C398 1.395 . S
C396 H413 0.930 . S
C397 C393 1.395 . S
C397 C398 1.379 . S
C397 H414 0.930 . S
C398 C396 1.395 . S
C398 C397 1.379 . S
C398 H415 0.930 . S
C399 O382 1.264 . S
C399 O383 1.254 . S
C400 Eu336 2.848 . S
C400 O380 1.257 . S
C400 O385 1.249 . S
C400 C393 1.492 . S
C401 H366 0.931 . S
C401 C379 1.420 . S
C401 C402 1.351 . S
C402 H364 0.930 . S
C402 C370 1.423 . S
C402 C401 1.351 . S
C403 O387 1.276 . S
C403 O390 1.235 . S
C404 C405 1.393 . S
C404 C408 1.395 . S
C404 C411 1.492 . S
C405 C404 1.393 . S
C405 C406 1.392 . S
C405 H416 0.930 . S
C406 C405 1.392 . S
C406 C407 1.386 . S
C407 C406 1.386 . S
C407 C409 1.395 . S
C407 H417 0.930 . S
C408 C404 1.395 . S
C408 C409 1.379 . S
C408 H418 0.930 . S
C409 C407 1.395 . S
C409 C408 1.379 . S
C409 H419 0.930 . S
C410 O388 1.264 . S
C410 O389 1.254 . S
C411 Eu347 2.848 . S
C411 O386 1.257 . S
C411 O391 1.249 . S
C411 C404 1.492 . S
H412 C395 0.930 . S
H413 C396 0.930 . S
H414 C397 0.930 . S
H415 C398 0.930 . S
H416 C405 0.930 . S
H417 C407 0.930 . S
H418 C408 0.930 . S
H419 C409 0.930 . S
Eu420 N451 2.657 . S
Eu420 N458 2.609 . S
Eu420 O464 2.558 . S
Eu420 O465 2.612 . S
Eu420 O467 2.339 . S
Eu420 O468 2.563 . S
Eu420 O469 2.419 . S
Eu420 O471 2.380 . S
Eu420 O472 2.432 . S
Eu420 C484 2.848 . S
C421 C424 1.429 . S
C421 C425 1.411 . S
C421 N428 1.377 . S
C422 C424 1.420 . S
C422 C426 1.423 . S
C422 C434 1.392 . S
C423 C425 1.420 . S
C423 C426 1.351 . S
C423 H446 0.931 . S
C424 C421 1.429 . S
C424 C422 1.420 . S
C424 N432 1.362 . S
C425 C421 1.411 . S
C425 C423 1.420 . S
C425 C430 1.395 . S
C426 C422 1.423 . S
C426 C423 1.351 . S
C426 H438 0.930 . S
C427 C429 1.400 . S
C427 C430 1.386 . S
C427 H439 0.930 . S
N428 C421 1.377 . S
N428 C429 1.321 . S
N428 Eu431 2.609 . S
C429 C427 1.400 . S
C429 N428 1.321 . S
C429 H436 0.930 . S
C430 C425 1.395 . S
C430 C427 1.386 . S
C430 H449 0.930 . S
Eu431 N428 2.609 . S
Eu431 N432 2.657 . S
Eu431 O465 2.380 . S
Eu431 O466 2.432 . S
Eu431 O470 2.558 . S
Eu431 O471 2.612 . S
Eu431 O473 2.339 . S
Eu431 O474 2.563 . S
Eu431 O475 2.419 . S
Eu431 C495 2.848 . S
N432 C424 1.362 . S
N432 Eu431 2.657 . S
N432 C433 1.334 . S
C433 N432 1.334 . S
C433 C435 1.413 . S
C433 H440 0.929 . S
C434 C422 1.392 . S
C434 C435 1.367 . S
C434 H442 0.930 . S
C435 C433 1.413 . S
C435 C434 1.367 . S
C435 H437 0.930 . S
H436 C429 0.930 . S
H437 C435 0.930 . S
H438 C426 0.930 . S
H439 C427 0.930 . S
H440 C433 0.929 . S
H441 C455 0.930 . S
H442 C434 0.930 . S
H443 C461 0.930 . S
H444 C452 0.929 . S
H445 C459 0.930 . S
H446 C423 0.931 . S
H447 C453 0.930 . S
H448 C486 0.930 . S
H449 C430 0.930 . S
H450 C485 0.931 . S
N451 Eu420 2.657 . S
N451 C452 1.334 . S
N451 C456 1.362 . S
C452 H444 0.929 . S
C452 N451 1.334 . S
C452 C455 1.413 . S
C453 H447 0.930 . S
C453 C454 1.392 . S
C453 C455 1.367 . S
C454 C453 1.392 . S
C454 C456 1.420 . S
C454 C486 1.423 . S
C455 H441 0.930 . S
C455 C452 1.413 . S
C455 C453 1.367 . S
C456 N451 1.362 . S
C456 C454 1.420 . S
C456 C460 1.429 . S
H457 C462 0.930 . S
N458 Eu420 2.609 . S
N458 C460 1.377 . S
N458 C461 1.321 . S
C459 H445 0.930 . S
C459 C461 1.400 . S
C459 C462 1.386 . S
C460 C456 1.429 . S
C460 N458 1.377 . S
C460 C463 1.411 . S
C461 H443 0.930 . S
C461 N458 1.321 . S
C461 C459 1.400 . S
C462 H457 0.930 . S
C462 C459 1.386 . S
C462 C463 1.395 . S
C463 C460 1.411 . S
C463 C462 1.395 . S
C463 C485 1.420 . S
O464 Eu420 2.558 . S
O464 C484 1.257 . S
O465 Eu420 2.612 . S
O465 Eu431 2.380 . S
O465 C476 1.276 . S
O466 Eu431 2.432 . S
O466 C483 1.264 . S
O467 Eu420 2.339 . S
O467 C483 1.254 . S
O468 Eu420 2.563 . S
O468 C476 1.235 . S
O469 Eu420 2.419 . S
O469 C484 1.249 . S
O470 Eu431 2.558 . S
O470 C495 1.257 . S
O471 Eu420 2.380 . S
O471 Eu431 2.612 . S
O471 C487 1.276 . S
O472 Eu420 2.432 . S
O472 C494 1.264 . S
O473 Eu431 2.339 . S
O473 C494 1.254 . S
O474 Eu431 2.563 . S
O474 C487 1.235 . S
O475 Eu431 2.419 . S
O475 C495 1.249 . S
C476 O465 1.276 . S
C476 O468 1.235 . S
C477 C479 1.393 . S
C477 C481 1.395 . S
C477 C484 1.492 . S
C478 C479 1.392 . S
C478 C480 1.386 . S
C479 C477 1.393 . S
C479 C478 1.392 . S
C479 H496 0.930 . S
C480 C478 1.386 . S
C480 C482 1.395 . S
C480 H497 0.930 . S
C481 C477 1.395 . S
C481 C482 1.379 . S
C481 H498 0.930 . S
C482 C480 1.395 . S
C482 C481 1.379 . S
C482 H499 0.930 . S
C483 O466 1.264 . S
C483 O467 1.254 . S
C484 Eu420 2.848 . S
C484 O464 1.257 . S
C484 O469 1.249 . S
C484 C477 1.492 . S
C485 H450 0.931 . S
C485 C463 1.420 . S
C485 C486 1.351 . S
C486 H448 0.930 . S
C486 C454 1.423 . S
C486 C485 1.351 . S
C487 O471 1.276 . S
C487 O474 1.235 . S
C488 C489 1.393 . S
C488 C492 1.395 . S
C488 C495 1.492 . S
C489 C488 1.393 . S
C489 C490 1.392 . S
C489 H500 0.930 . S
C490 C489 1.392 . S
C490 C491 1.386 . S
C491 C490 1.386 . S
C491 C493 1.395 . S
C491 H501 0.930 . S
C492 C488 1.395 . S
C492 C493 1.379 . S
C492 H502 0.930 . S
C493 C491 1.395 . S
C493 C492 1.379 . S
C493 H503 0.930 . S
C494 O472 1.264 . S
C494 O473 1.254 . S
C495 Eu431 2.848 . S
C495 O470 1.257 . S
C495 O475 1.249 . S
C495 C488 1.492 . S
H496 C479 0.930 . S
H497 C480 0.930 . S
H498 C481 0.930 . S
H499 C482 0.930 . S
H500 C489 0.930 . S
H501 C491 0.930 . S
H502 C492 0.930 . S
H503 C493 0.930 . S
H504 C512 0.929 . S
H505 C514 0.930 . S
H506 C516 0.930 . S
H507 C519 0.929 . S
H508 C522 0.930 . S
H509 C524 0.960 . S
H510 C524 0.960 . S
H511 C524 0.960 . S
C512 H504 0.929 . S
C512 C513 1.377 . S
C512 C514 1.384 . S
C513 C512 1.377 . S
C513 C519 1.390 . S
C514 H505 0.930 . S
C514 C512 1.384 . S
C514 C515 1.372 . S
C515 C514 1.372 . S
C515 C516 1.400 . S
C515 C520 1.490 . S
C516 H506 0.930 . S
C516 C515 1.400 . S
C516 C519 1.386 . S
H517 C533 0.930 . S
H518 C534 0.931 . S
C519 H507 0.929 . S
C519 C513 1.390 . S
C519 C516 1.386 . S
C520 C515 1.490 . S
C520 C522 1.395 . S
C520 C523 1.403 . S
H521 C527 0.930 . S
C522 H508 0.930 . S
C522 C520 1.395 . S
C522 C525 1.403 . S
C523 C520 1.403 . S
C523 C524 1.524 . S
C523 C527 1.400 . S
C524 H509 0.960 . S
C524 H510 0.960 . S
C524 H511 0.960 . S
C524 C523 1.524 . S
C525 C522 1.403 . S
C525 C526 1.392 . S
C525 C529 1.495 . S
C526 C525 1.392 . S
C526 C527 1.385 . S
C526 C528 1.478 . S
C527 H521 0.930 . S
C527 C523 1.400 . S
C527 C526 1.385 . S
C528 C526 1.478 . S
C528 C530 1.381 . S
C528 C534 1.383 . S
C529 C525 1.495 . S
C529 H535 0.959 . S
C529 H536 0.961 . S
C529 H537 0.960 . S
C530 C528 1.381 . S
C530 C531 1.394 . S
C530 H538 0.930 . S
C531 C530 1.394 . S
C531 C532 1.383 . S
C531 H539 0.929 . S
C532 C531 1.383 . S
C532 C533 1.377 . S
C533 H517 0.930 . S
C533 C532 1.377 . S
C533 C534 1.379 . S
C534 H518 0.931 . S
C534 C528 1.383 . S
C534 C533 1.379 . S
H535 C529 0.959 . S
H536 C529 0.961 . S
H537 C529 0.960 . S
H538 C530 0.930 . S
H539 C531 0.929 . S
H540 C548 0.929 . S
H541 C550 0.930 . S
H542 C552 0.930 . S
H543 C555 0.929 . S
H544 C558 0.930 . S
H545 C560 0.960 1_655 S
H546 C560 0.960 . S
H547 C560 0.960 . S
C548 H540 0.929 . S
C548 C549 1.377 . S
C548 C550 1.384 . S
C549 C548 1.377 . S
C549 C555 1.390 . S
C550 H541 0.930 . S
C550 C548 1.384 . S
C550 C551 1.372 . S
C551 C550 1.372 . S
C551 C552 1.400 . S
C551 C556 1.490 . S
C552 H542 0.930 . S
C552 C551 1.400 . S
C552 C555 1.386 . S
H553 C569 0.930 . S
H554 C570 0.931 . S
C555 H543 0.929 . S
C555 C549 1.390 . S
C555 C552 1.386 . S
C556 C551 1.490 . S
C556 C558 1.395 . S
C556 C559 1.403 . S
H557 C563 0.930 . S
C558 H544 0.930 . S
C558 C556 1.395 . S
C558 C561 1.403 1_455 S
C559 C556 1.403 . S
C559 C560 1.524 . S
C559 C563 1.400 1_455 S
C560 H545 0.960 1_455 S
C560 H546 0.960 . S
C560 H547 0.960 . S
C560 C559 1.524 . S
C561 C558 1.403 1_655 S
C561 C562 1.392 . S
C561 C565 1.495 . S
C562 C561 1.392 . S
C562 C563 1.385 . S
C562 C564 1.478 . S
C563 H557 0.930 . S
C563 C559 1.400 1_655 S
C563 C562 1.385 . S
C564 C562 1.478 . S
C564 C566 1.381 . S
C564 C570 1.383 . S
C565 C561 1.495 . S
C565 H571 0.959 . S
C565 H572 0.961 . S
C565 H573 0.960 . S
C566 C564 1.381 . S
C566 C567 1.394 . S
C566 H574 0.930 . S
C567 C566 1.394 . S
C567 C568 1.383 . S
C567 H575 0.929 . S
C568 C567 1.383 . S
C568 C569 1.377 . S
C569 H553 0.930 . S
C569 C568 1.377 . S
C569 C570 1.379 . S
C570 H554 0.931 . S
C570 C564 1.383 . S
C570 C569 1.379 . S
H571 C565 0.959 . S
H572 C565 0.961 . S
H573 C565 0.960 . S
H574 C566 0.930 . S
H575 C567 0.929 . S
H576 C584 0.929 . S
H577 C586 0.930 . S
H578 C588 0.930 . S
H579 C591 0.929 . S
H580 C594 0.930 . S
H581 C596 0.960 . S
H582 C596 0.960 . S
H583 C596 0.960 . S
C584 H576 0.929 . S
C584 C585 1.377 . S
C584 C586 1.384 . S
C585 C584 1.377 . S
C585 C591 1.390 . S
C586 H577 0.930 . S
C586 C584 1.384 . S
C586 C587 1.372 . S
C587 C586 1.372 . S
C587 C588 1.400 . S
C587 C592 1.490 . S
C588 H578 0.930 . S
C588 C587 1.400 . S
C588 C591 1.386 . S
H589 C605 0.930 . S
H590 C606 0.931 . S
C591 H579 0.929 . S
C591 C585 1.390 . S
C591 C588 1.386 . S
C592 C587 1.490 . S
C592 C594 1.395 . S
C592 C595 1.403 . S
H593 C599 0.930 . S
C594 H580 0.930 . S
C594 C592 1.395 . S
C594 C597 1.403 1_545 S
C595 C592 1.403 . S
C595 C596 1.524 . S
C595 C599 1.400 1_545 S
C596 H581 0.960 . S
C596 H582 0.960 . S
C596 H583 0.960 . S
C596 C595 1.524 . S
C597 C594 1.403 1_565 S
C597 C598 1.392 . S
C597 C601 1.495 . S
C598 C597 1.392 . S
C598 C599 1.385 . S
C598 C600 1.478 . S
C599 H593 0.930 . S
C599 C595 1.400 1_565 S
C599 C598 1.385 . S
C600 C598 1.478 . S
C600 C602 1.381 . S
C600 C606 1.383 . S
C601 C597 1.495 . S
C601 H607 0.959 . S
C601 H608 0.961 . S
C601 H609 0.960 . S
C602 C600 1.381 . S
C602 C603 1.394 . S
C602 H610 0.930 . S
C603 C602 1.394 . S
C603 C604 1.383 . S
C603 H611 0.929 . S
C604 C603 1.383 . S
C604 C605 1.377 . S
C605 H589 0.930 . S
C605 C604 1.377 . S
C605 C606 1.379 . S
C606 H590 0.931 . S
C606 C600 1.383 . S
C606 C605 1.379 . S
H607 C601 0.959 . S
H608 C601 0.961 . S
H609 C601 0.960 . S
H610 C602 0.930 . S
H611 C603 0.929 . S
H612 C620 0.929 . S
H613 C622 0.930 . S
H614 C624 0.930 . S
H615 C627 0.929 . S
H616 C630 0.930 . S
H617 C632 0.960 . S
H618 C632 0.960 . S
H619 C632 0.960 . S
C620 H612 0.929 . S
C620 C621 1.377 . S
C620 C622 1.384 . S
C621 C620 1.377 . S
C621 C627 1.390 . S
C622 H613 0.930 . S
C622 C620 1.384 . S
C622 C623 1.372 . S
C623 C622 1.372 . S
C623 C624 1.400 . S
C623 C628 1.490 . S
C624 H614 0.930 . S
C624 C623 1.400 . S
C624 C627 1.386 . S
H625 C641 0.930 . S
H626 C642 0.931 . S
C627 H615 0.929 . S
C627 C621 1.390 . S
C627 C624 1.386 . S
C628 C623 1.490 . S
C628 C630 1.395 . S
C628 C631 1.403 . S
H629 C635 0.930 . S
C630 H616 0.930 . S
C630 C628 1.395 . S
C630 C633 1.403 . S
C631 C628 1.403 . S
C631 C632 1.524 . S
C631 C635 1.400 . S
C632 H617 0.960 . S
C632 H618 0.960 . S
C632 H619 0.960 . S
C632 C631 1.524 . S
C633 C630 1.403 . S
C633 C634 1.392 . S
C633 C637 1.495 . S
C634 C633 1.392 . S
C634 C635 1.385 . S
C634 C636 1.478 . S
C635 H629 0.930 . S
C635 C631 1.400 . S
C635 C634 1.385 . S
C636 C634 1.478 . S
C636 C638 1.381 . S
C636 C642 1.383 . S
C637 C633 1.495 . S
C637 H643 0.959 . S
C637 H644 0.961 . S
C637 H645 0.960 . S
C638 C636 1.381 . S
C638 C639 1.394 . S
C638 H646 0.930 . S
C639 C638 1.394 . S
C639 C640 1.383 . S
C639 H647 0.929 . S
C640 C639 1.383 . S
C640 C641 1.377 . S
C641 H625 0.930 . S
C641 C640 1.377 . S
C641 C642 1.379 . S
C642 H626 0.931 . S
C642 C636 1.383 . S
C642 C641 1.379 . S
H643 C637 0.959 . S
H644 C637 0.961 . S
H645 C637 0.960 . S
H646 C638 0.930 . S
H647 C639 0.929 . S
H648 C656 0.929 . S
H649 C658 0.930 . S
H650 C660 0.930 . S
H651 C663 0.929 . S
H652 C666 0.930 . S
H653 C668 0.960 . S
H654 C668 0.960 . S
H655 C668 0.960 . S
C656 H648 0.929 . S
C656 C657 1.377 . S
C656 C658 1.384 . S
C657 C656 1.377 . S
C657 C663 1.390 . S
C658 H649 0.930 . S
C658 C656 1.384 . S
C658 C659 1.372 . S
C659 C658 1.372 . S
C659 C660 1.400 . S
C659 C664 1.490 . S
C660 H650 0.930 . S
C660 C659 1.400 . S
C660 C663 1.386 . S
H661 C677 0.930 . S
H662 C678 0.931 . S
C663 H651 0.929 . S
C663 C657 1.390 . S
C663 C660 1.386 . S
C664 C659 1.490 . S
C664 C666 1.395 . S
C664 C667 1.403 . S
H665 C671 0.930 . S
C666 H652 0.930 . S
C666 C664 1.395 . S
C666 C669 1.403 1_455 S
C667 C664 1.403 . S
C667 C668 1.524 . S
C667 C671 1.400 1_455 S
C668 H653 0.960 . S
C668 H654 0.960 . S
C668 H655 0.960 . S
C668 C667 1.524 . S
C669 C666 1.403 1_655 S
C669 C670 1.392 . S
C669 C673 1.495 . S
C670 C669 1.392 . S
C670 C671 1.385 . S
C670 C672 1.478 . S
C671 H665 0.930 . S
C671 C667 1.400 1_655 S
C671 C670 1.385 . S
C672 C670 1.478 . S
C672 C674 1.381 . S
C672 C678 1.383 . S
C673 C669 1.495 . S
C673 H679 0.959 . S
C673 H680 0.961 . S
C673 H681 0.960 . S
C674 C672 1.381 . S
C674 C675 1.394 . S
C674 H682 0.930 . S
C675 C674 1.394 . S
C675 C676 1.383 . S
C675 H683 0.929 . S
C676 C675 1.383 . S
C676 C677 1.377 . S
C677 H661 0.930 . S
C677 C676 1.377 . S
C677 C678 1.379 . S
C678 H662 0.931 . S
C678 C672 1.383 . S
C678 C677 1.379 . S
H679 C673 0.959 . S
H680 C673 0.961 . S
H681 C673 0.960 . S
H682 C674 0.930 . S
H683 C675 0.929 . S
H684 C692 0.929 . S
H685 C694 0.930 . S
H686 C696 0.930 . S
H687 C699 0.929 . S
H688 C702 0.930 . S
H689 C704 0.960 . S
H690 C704 0.960 . S
H691 C704 0.960 . S
C692 H684 0.929 . S
C692 C693 1.377 . S
C692 C694 1.384 . S
C693 C692 1.377 . S
C693 C699 1.390 . S
C694 H685 0.930 . S
C694 C692 1.384 . S
C694 C695 1.372 . S
C695 C694 1.372 . S
C695 C696 1.400 . S
C695 C700 1.490 . S
C696 H686 0.930 . S
C696 C695 1.400 . S
C696 C699 1.386 . S
H697 C713 0.930 . S
H698 C714 0.931 . S
C699 H687 0.929 . S
C699 C693 1.390 . S
C699 C696 1.386 . S
C700 C695 1.490 . S
C700 C702 1.395 . S
C700 C703 1.403 . S
H701 C707 0.930 . S
C702 H688 0.930 . S
C702 C700 1.395 . S
C702 C705 1.403 1_545 S
C703 C700 1.403 . S
C703 C704 1.524 . S
C703 C707 1.400 1_545 S
C704 H689 0.960 . S
C704 H690 0.960 . S
C704 H691 0.960 . S
C704 C703 1.524 . S
C705 C702 1.403 1_565 S
C705 C706 1.392 . S
C705 C709 1.495 . S
C706 C705 1.392 . S
C706 C707 1.385 . S
C706 C708 1.478 . S
C707 H701 0.930 . S
C707 C703 1.400 1_565 S
C707 C706 1.385 . S
C708 C706 1.478 . S
C708 C710 1.381 . S
C708 C714 1.383 . S
C709 C705 1.495 . S
C709 H715 0.959 . S
C709 H716 0.961 . S
C709 H717 0.960 . S
C710 C708 1.381 . S
C710 C711 1.394 . S
C710 H718 0.930 . S
C711 C710 1.394 . S
C711 C712 1.383 . S
C711 H719 0.929 . S
C712 C711 1.383 . S
C712 C713 1.377 . S
C713 H697 0.930 . S
C713 C712 1.377 . S
C713 C714 1.379 . S
C714 H698 0.931 . S
C714 C708 1.383 . S
C714 C713 1.379 . S
H715 C709 0.959 . S
H716 C709 0.961 . S
H717 C709 0.960 . S
H718 C710 0.930 . S
H719 C711 0.929 . S
H720 C728 0.929 . S
H721 C730 0.930 . S
H722 C732 0.930 . S
H723 C735 0.929 . S
H724 C738 0.930 . S
H725 C740 0.960 . S
H726 C740 0.960 . S
H727 C740 0.960 . S
C728 H720 0.929 . S
C728 C729 1.377 . S
C728 C730 1.384 . S
C729 C728 1.377 . S
C729 C735 1.390 . S
C730 H721 0.930 . S
C730 C728 1.384 . S
C730 C731 1.372 . S
C731 C730 1.372 . S
C731 C732 1.400 . S
C731 C736 1.490 . S
C732 H722 0.930 . S
C732 C731 1.400 . S
C732 C735 1.386 . S
H733 C749 0.930 . S
H734 C750 0.931 . S
C735 H723 0.929 . S
C735 C729 1.390 . S
C735 C732 1.386 . S
C736 C731 1.490 . S
C736 C738 1.395 . S
C736 C739 1.403 . S
H737 C743 0.930 . S
C738 H724 0.930 . S
C738 C736 1.395 . S
C738 C741 1.403 . S
C739 C736 1.403 . S
C739 C740 1.524 . S
C739 C743 1.400 . S
C740 H725 0.960 . S
C740 H726 0.960 . S
C740 H727 0.960 . S
C740 C739 1.524 . S
C741 C738 1.403 . S
C741 C742 1.392 . S
C741 C745 1.495 . S
C742 C741 1.392 . S
C742 C743 1.385 . S
C742 C744 1.478 . S
C743 H737 0.930 . S
C743 C739 1.400 . S
C743 C742 1.385 . S
C744 C742 1.478 . S
C744 C746 1.381 . S
C744 C750 1.383 . S
C745 C741 1.495 . S
C745 H751 0.959 . S
C745 H752 0.961 . S
C745 H753 0.960 . S
C746 C744 1.381 . S
C746 C747 1.394 . S
C746 H754 0.930 . S
C747 C746 1.394 . S
C747 C748 1.383 . S
C747 H755 0.929 . S
C748 C747 1.383 . S
C748 C749 1.377 . S
C749 H733 0.930 . S
C749 C748 1.377 . S
C749 C750 1.379 . S
C750 H734 0.931 . S
C750 C744 1.383 . S
C750 C749 1.379 . S
H751 C745 0.959 . S
H752 C745 0.961 . S
H753 C745 0.960 . S
H754 C746 0.930 . S
H755 C747 0.929 . S
H756 C764 0.929 . S
H757 C766 0.930 . S
H758 C768 0.930 . S
H759 C771 0.936 . S
H760 C774 0.930 . S
H761 C776 0.960 . S
H762 C776 0.960 . S
H763 C776 0.960 . S
C764 H756 0.929 . S
C764 C765 1.377 . S
C764 C766 1.384 1_554 S
C765 C764 1.377 . S
C765 C771 1.398 . S
C766 H757 0.930 . S
C766 C764 1.384 1_556 S
C766 C767 1.372 . S
C767 C766 1.372 . S
C767 C768 1.400 . S
C767 C772 1.490 . S
C768 H758 0.930 . S
C768 C767 1.400 . S
C768 C771 1.371 1_556 S
H769 C785 0.930 . S
H770 C786 0.931 . S
C771 H759 0.936 . S
C771 C765 1.398 . S
C771 C768 1.371 1_554 S
C772 C767 1.490 . S
C772 C774 1.395 . S
C772 C775 1.403 . S
H773 C779 0.930 . S
C774 H760 0.930 . S
C774 C772 1.395 . S
C774 C777 1.403 . S
C775 C772 1.403 . S
C775 C776 1.524 . S
C775 C779 1.400 . S
C776 H761 0.960 . S
C776 H762 0.960 . S
C776 H763 0.960 . S
C776 C775 1.524 . S
C777 C774 1.403 . S
C777 C778 1.392 . S
C777 C781 1.495 . S
C778 C777 1.392 . S
C778 C779 1.385 . S
C778 C780 1.478 . S
C779 H773 0.930 . S
C779 C775 1.400 . S
C779 C778 1.385 . S
C780 C778 1.478 . S
C780 C782 1.381 . S
C780 C786 1.383 . S
C781 C777 1.495 . S
C781 H787 0.959 . S
C781 H788 0.961 . S
C781 H789 0.960 . S
C782 C780 1.381 . S
C782 C783 1.394 . S
C782 H790 0.930 . S
C783 C782 1.394 . S
C783 C784 1.383 . S
C783 H791 0.929 . S
C784 C783 1.383 . S
C784 C785 1.377 . S
C785 H769 0.930 . S
C785 C784 1.377 . S
C785 C786 1.379 . S
C786 H770 0.931 . S
C786 C780 1.383 . S
C786 C785 1.379 . S
H787 C781 0.959 . S
H788 C781 0.961 . S
H789 C781 0.960 . S
H790 C782 0.930 . S
H791 C783 0.929 . S
H792 C800 0.929 . S
H793 C802 0.930 . S
H794 C804 0.930 . S
H795 C807 0.929 . S
H796 C810 0.930 . S
H797 C812 0.960 . S
H798 C812 0.960 . S
H799 C812 0.960 . S
C800 H792 0.929 . S
C800 C801 1.377 . S
C800 C802 1.384 . S
C801 C800 1.377 . S
C801 C807 1.390 . S
C802 H793 0.930 . S
C802 C800 1.384 . S
C802 C803 1.372 . S
C803 C802 1.372 . S
C803 C804 1.400 . S
C803 C808 1.490 . S
C804 H794 0.930 . S
C804 C803 1.400 . S
C804 C807 1.386 . S
H805 C821 0.930 1_556 S
H806 C822 0.931 . S
C807 H795 0.929 . S
C807 C801 1.390 . S
C807 C804 1.386 . S
C808 C803 1.490 . S
C808 C810 1.395 . S
C808 C811 1.403 . S
H809 C815 0.930 . S
C810 H796 0.930 . S
C810 C808 1.395 . S
C810 C813 1.403 . S
C811 C808 1.403 . S
C811 C812 1.524 . S
C811 C815 1.400 . S
C812 H797 0.960 . S
C812 H798 0.960 . S
C812 H799 0.960 . S
C812 C811 1.524 . S
C813 C810 1.403 . S
C813 C814 1.392 . S
C813 C817 1.495 . S
C814 C813 1.392 . S
C814 C815 1.385 . S
C814 C816 1.478 . S
C815 H809 0.930 . S
C815 C811 1.400 . S
C815 C814 1.385 . S
C816 C814 1.478 . S
C816 C818 1.381 . S
C816 C822 1.383 . S
C817 C813 1.495 . S
C817 H823 0.959 . S
C817 H824 0.961 . S
C817 H825 0.960 . S
C818 C816 1.381 . S
C818 C819 1.394 . S
C818 H826 0.930 . S
C819 C818 1.394 . S
C819 C820 1.383 1_554 S
C819 H827 0.929 1_554 S
C820 C819 1.383 1_556 S
C820 C821 1.377 1_556 S
C821 H805 0.930 1_554 S
C821 C820 1.377 1_554 S
C821 C822 1.379 . S
C822 H806 0.931 . S
C822 C816 1.383 . S
C822 C821 1.379 . S
H823 C817 0.959 . S
H824 C817 0.961 . S
H825 C817 0.960 . S
H826 C818 0.930 . S
H827 C819 0.929 1_556 S
H828 C836 0.929 . S
H829 C838 0.930 . S
H830 C840 0.930 . S
H831 C843 0.929 . S
H832 C846 0.930 . S
H833 C848 0.960 . S
H834 C848 0.960 . S
H835 C848 0.960 . S
C836 H828 0.929 . S
C836 C837 1.377 . S
C836 C838 1.384 . S
C837 C836 1.377 . S
C837 C843 1.390 . S
C838 H829 0.930 . S
C838 C836 1.384 . S
C838 C839 1.372 . S
C839 C838 1.372 . S
C839 C840 1.400 . S
C839 C844 1.490 . S
C840 H830 0.930 . S
C840 C839 1.400 . S
C840 C843 1.386 . S
H841 C857 0.930 . S
H842 C858 0.931 . S
C843 H831 0.929 . S
C843 C837 1.390 . S
C843 C840 1.386 . S
C844 C839 1.490 . S
C844 C846 1.395 . S
C844 C847 1.403 . S
H845 C851 0.930 . S
C846 H832 0.930 . S
C846 C844 1.395 . S
C846 C849 1.403 . S
C847 C844 1.403 . S
C847 C848 1.524 . S
C847 C851 1.400 . S
C848 H833 0.960 . S
C848 H834 0.960 . S
C848 H835 0.960 . S
C848 C847 1.524 . S
C849 C846 1.403 . S
C849 C850 1.392 . S
C849 C853 1.495 . S
C850 C849 1.392 . S
C850 C851 1.385 . S
C850 C852 1.478 . S
C851 H845 0.930 . S
C851 C847 1.400 . S
C851 C850 1.385 . S
C852 C850 1.478 . S
C852 C854 1.381 . S
C852 C858 1.383 . S
C853 C849 1.495 . S
C853 H859 0.959 . S
C853 H860 0.961 . S
C853 H861 0.960 . S
C854 C852 1.381 . S
C854 C855 1.394 . S
C854 H862 0.930 . S
C855 C854 1.394 . S
C855 C856 1.383 . S
C855 H863 0.929 . S
C856 C855 1.383 . S
C856 C857 1.377 . S
C857 H841 0.930 . S
C857 C856 1.377 . S
C857 C858 1.379 . S
C858 H842 0.931 . S
C858 C852 1.383 . S
C858 C857 1.379 . S
H859 C853 0.959 . S
H860 C853 0.961 . S
H861 C853 0.960 . S
H862 C854 0.930 . S
H863 C855 0.929 . S
H864 C872 0.929 . S
H865 C874 0.930 . S
H866 C876 0.930 . S
H867 C879 0.929 . S
H868 C882 0.930 . S
H869 C884 0.960 . S
H870 C884 0.960 . S
H871 C884 0.960 . S
C872 H864 0.929 . S
C872 C873 1.377 . S
C872 C874 1.384 . S
C873 C872 1.377 . S
C873 C879 1.390 . S
C874 H865 0.930 . S
C874 C872 1.384 . S
C874 C875 1.372 . S
C875 C874 1.372 . S
C875 C876 1.400 . S
C875 C880 1.490 . S
C876 H866 0.930 . S
C876 C875 1.400 . S
C876 C879 1.386 . S
H877 C893 0.930 . S
H878 C894 0.931 . S
C879 H867 0.929 . S
C879 C873 1.390 . S
C879 C876 1.386 . S
C880 C875 1.490 . S
C880 C882 1.395 . S
C880 C883 1.403 . S
H881 C887 0.930 . S
C882 H868 0.930 . S
C882 C880 1.395 . S
C882 C885 1.403 . S
C883 C880 1.403 . S
C883 C884 1.524 . S
C883 C887 1.400 . S
C884 H869 0.960 . S
C884 H870 0.960 . S
C884 H871 0.960 . S
C884 C883 1.524 . S
C885 C882 1.403 . S
C885 C886 1.392 . S
C885 C889 1.495 . S
C886 C885 1.392 . S
C886 C887 1.385 . S
C886 C888 1.478 . S
C887 H881 0.930 . S
C887 C883 1.400 . S
C887 C886 1.385 . S
C888 C886 1.478 . S
C888 C890 1.381 . S
C888 C894 1.383 . S
C889 C885 1.495 . S
C889 H895 0.959 . S
C889 H896 0.961 . S
C889 H897 0.960 . S
C890 C888 1.381 . S
C890 C891 1.394 1_556 S
C890 H898 0.930 . S
C891 C890 1.394 1_554 S
C891 C892 1.383 . S
C891 H899 0.929 . S
C892 C891 1.383 . S
C892 C893 1.377 . S
C893 H877 0.930 . S
C893 C892 1.377 . S
C893 C894 1.379 1_554 S
C894 H878 0.931 . S
C894 C888 1.383 . S
C894 C893 1.379 1_556 S
H895 C889 0.959 . S
H896 C889 0.961 . S
H897 C889 0.960 . S
H898 C890 0.930 . S
H899 C891 0.929 . S
H900 C908 0.929 . S
H901 C910 0.930 . S
H902 C912 0.930 . S
H903 C915 0.929 . S
H904 C918 0.930 . S
H905 C920 0.960 . S
H906 C920 0.960 . S
H907 C920 0.960 . S
C908 H900 0.929 . S
C908 C909 1.377 . S
C908 C910 1.384 . S
C909 C908 1.377 . S
C909 C915 1.390 . S
C910 H901 0.930 . S
C910 C908 1.384 . S
C910 C911 1.372 . S
C911 C910 1.372 . S
C911 C912 1.400 . S
C911 C916 1.490 . S
C912 H902 0.930 . S
C912 C911 1.400 . S
C912 C915 1.386 . S
H913 C929 0.930 1_556 S
H914 C930 0.931 . S
C915 H903 0.929 . S
C915 C909 1.390 . S
C915 C912 1.386 . S
C916 C911 1.490 . S
C916 C918 1.395 . S
C916 C919 1.403 . S
H917 C923 0.930 . S
C918 H904 0.930 . S
C918 C916 1.395 . S
C918 C921 1.403 . S
C919 C916 1.403 . S
C919 C920 1.524 . S
C919 C923 1.400 . S
C920 H905 0.960 . S
C920 H906 0.960 . S
C920 H907 0.960 . S
C920 C919 1.524 . S
C921 C918 1.403 . S
C921 C922 1.392 . S
C921 C925 1.495 . S
C922 C921 1.392 . S
C922 C923 1.385 . S
C922 C924 1.478 . S
C923 H917 0.930 . S
C923 C919 1.400 . S
C923 C922 1.385 . S
C924 C922 1.478 . S
C924 C926 1.381 . S
C924 C930 1.383 . S
C925 C921 1.495 . S
C925 H931 0.959 . S
C925 H932 0.961 . S
C925 H933 0.960 . S
C926 C924 1.381 . S
C926 C927 1.394 . S
C926 H934 0.930 . S
C927 C926 1.394 . S
C927 C928 1.383 1_554 S
C927 H935 0.929 1_554 S
C928 C927 1.383 1_556 S
C928 C929 1.377 1_556 S
C929 H913 0.930 1_554 S
C929 C928 1.377 1_554 S
C929 C930 1.379 . S
C930 H914 0.931 . S
C930 C924 1.383 . S
C930 C929 1.379 . S
H931 C925 0.959 . S
H932 C925 0.961 . S
H933 C925 0.960 . S
H934 C926 0.930 . S
H935 C927 0.929 1_556 S
H936 C944 0.929 . S
H937 C946 0.930 . S
H938 C948 0.930 . S
H939 C951 0.929 . S
H940 C954 0.930 . S
H941 C956 0.960 . S
H942 C956 0.960 . S
H943 C956 0.960 . S
C944 H936 0.929 . S
C944 C945 1.377 . S
C944 C946 1.384 . S
C945 C944 1.377 . S
C945 C951 1.390 . S
C946 H937 0.930 . S
C946 C944 1.384 . S
C946 C947 1.372 . S
C947 C946 1.372 . S
C947 C948 1.400 . S
C947 C952 1.490 . S
C948 H938 0.930 . S
C948 C947 1.400 . S
C948 C951 1.386 . S
H949 C965 0.930 . S
H950 C966 0.931 . S
C951 H939 0.929 . S
C951 C945 1.390 . S
C951 C948 1.386 . S
C952 C947 1.490 . S
C952 C954 1.395 . S
C952 C955 1.403 . S
H953 C959 0.930 . S
C954 H940 0.930 . S
C954 C952 1.395 . S
C954 C957 1.403 . S
C955 C952 1.403 . S
C955 C956 1.524 . S
C955 C959 1.400 . S
C956 H941 0.960 . S
C956 H942 0.960 . S
C956 H943 0.960 . S
C956 C955 1.524 . S
C957 C954 1.403 . S
C957 C958 1.392 . S
C957 C961 1.495 . S
C958 C957 1.392 . S
C958 C959 1.385 . S
C958 C960 1.478 . S
C959 H953 0.930 . S
C959 C955 1.400 . S
C959 C958 1.385 . S
C960 C958 1.478 . S
C960 C962 1.381 . S
C960 C966 1.383 . S
C961 C957 1.495 . S
C961 H967 0.959 . S
C961 H968 0.961 . S
C961 H969 0.960 . S
C962 C960 1.381 . S
C962 C963 1.394 . S
C962 H970 0.930 . S
C963 C962 1.394 . S
C963 C964 1.383 . S
C963 H971 0.929 . S
C964 C963 1.383 . S
C964 C965 1.377 . S
C965 H949 0.930 . S
C965 C964 1.377 . S
C965 C966 1.379 . S
C966 H950 0.931 . S
C966 C960 1.383 . S
C966 C965 1.379 . S
H967 C961 0.959 . S
H968 C961 0.961 . S
H969 C961 0.960 . S
H970 C962 0.930 . S
H971 C963 0.929 . S
H972 C980 0.929 . S
H973 C982 0.930 . S
H974 C984 0.930 . S
H975 C987 0.929 . S
H976 C990 0.930 . S
H977 C992 0.960 . S
H978 C992 0.960 . S
H979 C992 0.960 . S
C980 H972 0.929 . S
C980 C981 1.377 . S
C980 C982 1.384 . S
C981 C980 1.377 . S
C981 C987 1.390 . S
C982 H973 0.930 . S
C982 C980 1.384 . S
C982 C983 1.372 . S
C983 C982 1.372 . S
C983 C984 1.400 . S
C983 C988 1.490 . S
C984 H974 0.930 . S
C984 C983 1.400 . S
C984 C987 1.386 . S
H985 C1001 0.930 . S
H986 C1002 0.931 . S
C987 H975 0.929 . S
C987 C981 1.390 . S
C987 C984 1.386 . S
C988 C983 1.490 . S
C988 C990 1.395 . S
C988 C991 1.403 . S
H989 C995 0.930 . S
C990 H976 0.930 . S
C990 C988 1.395 . S
C990 C993 1.403 . S
C991 C988 1.403 . S
C991 C992 1.524 . S
C991 C995 1.400 . S
C992 H977 0.960 . S
C992 H978 0.960 . S
C992 H979 0.960 . S
C992 C991 1.524 . S
C993 C990 1.403 . S
C993 C994 1.392 . S
C993 C997 1.495 . S
C994 C993 1.392 . S
C994 C995 1.385 . S
C994 C996 1.478 . S
C995 H989 0.930 . S
C995 C991 1.400 . S
C995 C994 1.385 . S
C996 C994 1.478 . S
C996 C998 1.381 . S
C996 C1002 1.383 . S
C997 C993 1.495 . S
C997 H1003 0.959 . S
C997 H1004 0.961 . S
C997 H1005 0.960 . S
C998 C996 1.381 . S
C998 C999 1.394 . S
C998 H1006 0.930 . S
C999 C998 1.394 . S
C999 C1000 1.383 . S
C999 H1007 0.929 . S
C1000 C999 1.383 . S
C1000 C1001 1.377 . S
C1001 H985 0.930 . S
C1001 C1000 1.377 . S
C1001 C1002 1.379 . S
C1002 H986 0.931 . S
C1002 C996 1.383 . S
C1002 C1001 1.379 . S
H1003 C997 0.959 . S
H1004 C997 0.961 . S
H1005 C997 0.960 . S
H1006 C998 0.930 . S
H1007 C999 0.929 . S
H1008 C1016 0.929 . S
H1009 C1018 0.930 . S
H1010 C1020 0.930 . S
H1011 C1023 0.929 . S
H1012 C1026 0.930 . S
H1013 C1028 0.960 . S
H1014 C1028 0.960 . S
H1015 C1028 0.960 . S
C1016 H1008 0.929 . S
C1016 C1017 1.377 . S
C1016 C1018 1.384 . S
C1017 C1016 1.377 . S
C1017 C1023 1.390 . S
C1018 H1009 0.930 . S
C1018 C1016 1.384 . S
C1018 C1019 1.372 . S
C1019 C1018 1.372 . S
C1019 C1020 1.400 . S
C1019 C1024 1.490 . S
C1020 H1010 0.930 . S
C1020 C1019 1.400 . S
C1020 C1023 1.386 . S
H1021 C1037 0.930 . S
H1022 C1038 0.931 . S
C1023 H1011 0.929 . S
C1023 C1017 1.390 . S
C1023 C1020 1.386 . S
C1024 C1019 1.490 . S
C1024 C1026 1.395 . S
C1024 C1027 1.403 . S
H1025 C1031 0.930 . S
C1026 H1012 0.930 . S
C1026 C1024 1.395 . S
C1026 C1029 1.403 . S
C1027 C1024 1.403 . S
C1027 C1028 1.524 . S
C1027 C1031 1.400 . S
C1028 H1013 0.960 . S
C1028 H1014 0.960 . S
C1028 H1015 0.960 . S
C1028 C1027 1.524 . S
C1029 C1026 1.403 . S
C1029 C1030 1.392 . S
C1029 C1033 1.495 . S
C1030 C1029 1.392 . S
C1030 C1031 1.385 . S
C1030 C1032 1.478 . S
C1031 H1025 0.930 . S
C1031 C1027 1.400 . S
C1031 C1030 1.385 . S
C1032 C1030 1.478 . S
C1032 C1034 1.381 . S
C1032 C1038 1.383 . S
C1033 C1029 1.495 . S
C1033 H1039 0.959 . S
C1033 H1040 0.961 . S
C1033 H1041 0.960 . S
C1034 C1032 1.381 . S
C1034 C1035 1.394 . S
C1034 H1042 0.930 . S
C1035 C1034 1.394 . S
C1035 C1036 1.383 . S
C1035 H1043 0.929 . S
C1036 C1035 1.383 . S
C1036 C1037 1.377 . S
C1037 H1021 0.930 . S
C1037 C1036 1.377 . S
C1037 C1038 1.379 . S
C1038 H1022 0.931 . S
C1038 C1032 1.383 . S
C1038 C1037 1.379 . S
H1039 C1033 0.959 . S
H1040 C1033 0.961 . S
H1041 C1033 0.960 . S
H1042 C1034 0.930 . S
H1043 C1035 0.929 . S
H1044 C1052 0.929 . S
H1045 C1054 0.930 . S
H1046 C1056 0.930 . S
H1047 C1059 0.929 . S
H1048 C1062 0.930 . S
H1049 C1064 0.960 . S
H1050 C1064 0.960 . S
H1051 C1064 0.960 . S
C1052 H1044 0.929 . S
C1052 C1053 1.377 . S
C1052 C1054 1.384 . S
C1053 C1052 1.377 . S
C1053 C1059 1.390 . S
C1054 H1045 0.930 . S
C1054 C1052 1.384 . S
C1054 C1055 1.372 . S
C1055 C1054 1.372 . S
C1055 C1056 1.400 . S
C1055 C1060 1.490 . S
C1056 H1046 0.930 . S
C1056 C1055 1.400 . S
C1056 C1059 1.386 . S
H1057 C1073 0.930 . S
H1058 C1074 0.931 . S
C1059 H1047 0.929 . S
C1059 C1053 1.390 . S
C1059 C1056 1.386 . S
C1060 C1055 1.490 . S
C1060 C1062 1.395 . S
C1060 C1063 1.403 . S
H1061 C1067 0.930 . S
C1062 H1048 0.930 . S
C1062 C1060 1.395 . S
C1062 C1065 1.403 . S
C1063 C1060 1.403 . S
C1063 C1064 1.524 . S
C1063 C1067 1.400 . S
C1064 H1049 0.960 . S
C1064 H1050 0.960 . S
C1064 H1051 0.960 . S
C1064 C1063 1.524 . S
C1065 C1062 1.403 . S
C1065 C1066 1.392 . S
C1065 C1069 1.495 . S
C1066 C1065 1.392 . S
C1066 C1067 1.385 . S
C1066 C1068 1.478 . S
C1067 H1061 0.930 . S
C1067 C1063 1.400 . S
C1067 C1066 1.385 . S
C1068 C1066 1.478 . S
C1068 C1070 1.381 . S
C1068 C1074 1.383 . S
C1069 C1065 1.495 . S
C1069 H1075 0.959 . S
C1069 H1076 0.961 . S
C1069 H1077 0.960 . S
C1070 C1068 1.381 . S
C1070 C1071 1.394 . S
C1070 H1078 0.930 . S
C1071 C1070 1.394 . S
C1071 C1072 1.383 . S
C1071 H1079 0.929 . S
C1072 C1071 1.383 . S
C1072 C1073 1.377 . S
C1073 H1057 0.930 . S
C1073 C1072 1.377 . S
C1073 C1074 1.379 . S
C1074 H1058 0.931 . S
C1074 C1068 1.383 . S
C1074 C1073 1.379 . S
H1075 C1069 0.959 . S
H1076 C1069 0.961 . S
H1077 C1069 0.960 . S
H1078 C1070 0.930 . S
H1079 C1071 0.929 . S
H1080 C1088 0.929 . S
H1081 C1090 0.930 . S
H1082 C1092 0.930 . S
H1083 C1095 0.929 . S
H1084 C1098 0.930 . S
H1085 C1100 0.960 . S
H1086 C1100 0.960 . S
H1087 C1100 0.960 . S
C1088 H1080 0.929 . S
C1088 C1089 1.377 . S
C1088 C1090 1.384 . S
C1089 C1088 1.377 . S
C1089 C1095 1.390 . S
C1090 H1081 0.930 . S
C1090 C1088 1.384 . S
C1090 C1091 1.372 . S
C1091 C1090 1.372 . S
C1091 C1092 1.400 . S
C1091 C1096 1.490 . S
C1092 H1082 0.930 . S
C1092 C1091 1.400 . S
C1092 C1095 1.386 . S
H1093 C1109 0.930 . S
H1094 C1110 0.931 . S
C1095 H1083 0.929 . S
C1095 C1089 1.390 . S
C1095 C1092 1.386 . S
C1096 C1091 1.490 . S
C1096 C1098 1.395 . S
C1096 C1099 1.403 . S
H1097 C1103 0.930 . S
C1098 H1084 0.930 . S
C1098 C1096 1.395 . S
C1098 C1101 1.403 . S
C1099 C1096 1.403 . S
C1099 C1100 1.524 . S
C1099 C1103 1.400 . S
C1100 H1085 0.960 . S
C1100 H1086 0.960 . S
C1100 H1087 0.960 . S
C1100 C1099 1.524 . S
C1101 C1098 1.403 . S
C1101 C1102 1.392 . S
C1101 C1105 1.495 . S
C1102 C1101 1.392 . S
C1102 C1103 1.385 . S
C1102 C1104 1.478 . S
C1103 H1097 0.930 . S
C1103 C1099 1.400 . S
C1103 C1102 1.385 . S
C1104 C1102 1.478 . S
C1104 C1106 1.381 . S
C1104 C1110 1.383 . S
C1105 C1101 1.495 . S
C1105 H1111 0.959 . S
C1105 H1112 0.961 . S
C1105 H1113 0.960 . S
C1106 C1104 1.381 . S
C1106 C1107 1.394 . S
C1106 H1114 0.930 . S
C1107 C1106 1.394 . S
C1107 C1108 1.383 . S
C1107 H1115 0.929 . S
C1108 C1107 1.383 . S
C1108 C1109 1.377 . S
C1109 H1093 0.930 . S
C1109 C1108 1.377 . S
C1109 C1110 1.379 . S
C1110 H1094 0.931 . S
C1110 C1104 1.383 . S
C1110 C1109 1.379 . S
H1111 C1105 0.959 . S
H1112 C1105 0.961 . S
H1113 C1105 0.960 . S
H1114 C1106 0.930 . S
H1115 C1107 0.929 . S
H1116 C1124 0.929 . S
H1117 C1126 0.930 . S
H1118 C1128 0.930 . S
H1119 C1131 0.929 . S
H1120 C1134 0.930 . S
H1121 C1136 0.960 . S
H1122 C1136 0.960 . S
H1123 C1136 0.960 . S
C1124 H1116 0.929 . S
C1124 C1125 1.377 . S
C1124 C1126 1.384 . S
C1125 C1124 1.377 . S
C1125 C1131 1.390 . S
C1126 H1117 0.930 . S
C1126 C1124 1.384 . S
C1126 C1127 1.372 . S
C1127 C1126 1.372 . S
C1127 C1128 1.400 . S
C1127 C1132 1.490 . S
C1128 H1118 0.930 . S
C1128 C1127 1.400 . S
C1128 C1131 1.386 . S
H1129 C1145 0.930 . S
H1130 C1146 0.931 . S
C1131 H1119 0.929 . S
C1131 C1125 1.390 . S
C1131 C1128 1.386 . S
C1132 C1127 1.490 . S
C1132 C1134 1.395 . S
C1132 C1135 1.403 . S
H1133 C1139 0.930 . S
C1134 H1120 0.930 . S
C1134 C1132 1.395 . S
C1134 C1137 1.403 . S
C1135 C1132 1.403 . S
C1135 C1136 1.524 . S
C1135 C1139 1.400 . S
C1136 H1121 0.960 . S
C1136 H1122 0.960 . S
C1136 H1123 0.960 . S
C1136 C1135 1.524 . S
C1137 C1134 1.403 . S
C1137 C1138 1.392 . S
C1137 C1141 1.495 . S
C1138 C1137 1.392 . S
C1138 C1139 1.385 . S
C1138 C1140 1.478 . S
C1139 H1133 0.930 . S
C1139 C1135 1.400 . S
C1139 C1138 1.385 . S
C1140 C1138 1.478 . S
C1140 C1142 1.381 . S
C1140 C1146 1.383 . S
C1141 C1137 1.495 . S
C1141 H1147 0.959 . S
C1141 H1148 0.961 . S
C1141 H1149 0.960 . S
C1142 C1140 1.381 . S
C1142 C1143 1.394 . S
C1142 H1150 0.930 . S
C1143 C1142 1.394 . S
C1143 C1144 1.383 . S
C1143 H1151 0.929 . S
C1144 C1143 1.383 . S
C1144 C1145 1.377 . S
C1145 H1129 0.930 . S
C1145 C1144 1.377 . S
C1145 C1146 1.379 . S
C1146 H1130 0.931 . S
C1146 C1140 1.383 . S
C1146 C1145 1.379 . S
H1147 C1141 0.959 . S
H1148 C1141 0.961 . S
H1149 C1141 0.960 . S
H1150 C1142 0.930 . S
H1151 C1143 0.929 . S
C513 C494 1.432 . S
C532 C56 1.372 . S
C549 C74 1.429 . S
C568 C140 1.398 . S
C585 C158 1.433 . S
C604 C224 1.387 . S
C621 C242 1.432 . S
C640 C308 1.369 . S
C657 C392 1.395 . S
C676 C326 1.436 . S
C693 C476 1.394 . S
C712 C410 1.438 . S
C729 C58 1.323 . S
C748 C70 1.336 . S
C765 C142 1.324 . S
C784 C154 1.335 . S
C801 C226 1.313 . S
C820 C238 1.272 . S
C837 C310 1.318 . S
C856 C322 1.353 . S
C873 C406 1.311 . S
C892 C394 1.270 . S
C909 C478 1.318 . S
C928 C490 1.285 . S
C945 C67 1.314 . S
C964 C399 1.362 . S
C981 C151 1.312 . S
C1000 C483 1.365 . S
C1017 C63 1.350 . S
C1036 C235 1.267 . S
C1053 C147 1.343 . S
C1072 C319 1.344 . S
C1089 C403 1.313 . S
C1108 C231 1.363 . S
C1125 C315 1.341 . S
C1144 C487 1.305 . S
