# Generated by pormake.
# Topology sxb, (6)-cn, num edge types: 1
# Building blocks:
#     Node 0, Type 0, BuildingBlock: JUFBIX_clean_sbu_0, # of connection points: 6
#     Node 1, Type 0, BuildingBlock: JUFBIX_clean_sbu_0, # of connection points: 6
#     Node 2, Type 0, BuildingBlock: JUFBIX_clean_sbu_0, # of connection points: 6
#     Node 3, Type 0, BuildingBlock: JUFBIX_clean_sbu_0, # of connection points: 6
#     Edge 4, Type (0, 0), BuildingBlock: KIFKEQ_clean_linker_1, # of connection points: 2
#     Edge 5, Type (0, 0), BuildingBlock: KIFKEQ_clean_linker_1, # of connection points: 2
#     Edge 6, Type (0, 0), BuildingBlock: KIFKEQ_clean_linker_1, # of connection points: 2
#     Edge 7, Type (0, 0), BuildingBlock: KIFKEQ_clean_linker_1, # of connection points: 2
#     Edge 8, Type (0, 0), BuildingBlock: KIFKEQ_clean_linker_1, # of connection points: 2
#     Edge 9, Type (0, 0), BuildingBlock: KIFKEQ_clean_linker_1, # of connection points: 2
#     Edge 10, Type (0, 0), BuildingBlock: KIFKEQ_clean_linker_1, # of connection points: 2
#     Edge 11, Type (0, 0), BuildingBlock: KIFKEQ_clean_linker_1, # of connection points: 2
#     Edge 12, Type (0, 0), BuildingBlock: KIFKEQ_clean_linker_1, # of connection points: 2
#     Edge 13, Type (0, 0), BuildingBlock: KIFKEQ_clean_linker_1, # of connection points: 2
#     Edge 14, Type (0, 0), BuildingBlock: KIFKEQ_clean_linker_1, # of connection points: 2
#     Edge 15, Type (0, 0), BuildingBlock: KIFKEQ_clean_linker_1, # of connection points: 2
# Relax obj value: 0.055
# Max RMSD: 0.078
# Mean RMSD: 0.078
data_MOF--net-sxb--node1-JUFBIX_clean_sbu_0--edge1-KIFKEQ_clean_linker_1
_symmetry_space_group_name_H-M    P1
_symmetry_Int_Tables_number       1
_symmetry_cell_setting            triclinic
loop_
_symmetry_equiv_pos_as_xyz
'x, y, z'
_cell_length_a     15.132137
_cell_length_b     36.496839
_cell_length_c     30.317285
_cell_angle_alpha  90.113527
_cell_angle_beta   94.957911
_cell_angle_gamma 90.008205
loop_
_atom_site_label
_atom_site_type_symbol
_atom_site_fract_x
_atom_site_fract_y
_atom_site_fract_z
_atom_type_partial_charge
Co0 Co 0.96211 1.01648 1.00406 0.0
C1 C 0.9642 0.05237 0.08581 0.0
Co2 Co 0.96012 0.07726 1.00031 0.0
C3 C 0.02976 0.94188 1.00031 0.0
C4 C 0.90611 0.94466 0.02938 0.0
N5 N 0.96536 0.96554 0.01012 0.0
N6 N 0.01352 0.90717 0.01308 0.0
C7 C 0.93521 0.90894 0.03112 0.0
H8 H 0.08919 0.95029 0.98565 0.0
H9 H 0.84663 0.95487 0.04253 0.0
C10 C 0.95741 1.04133 0.91854 0.0
N11 N 0.95679 0.12819 0.99422 0.0
C12 C 0.89454 0.15212 0.00593 0.0
C13 C 0.01364 0.14879 0.97297 0.0
N14 N 0.90981 0.18673 0.99245 0.0
C15 C -0.01471 0.1846 0.97196 0.0
C16 C 0.1291 0.04804 0.00691 0.0
O17 O 0.96263 1.01222 0.94166 0.0
O18 O 0.95392 0.07226 0.93776 0.0
O19 O 0.08568 0.07778 1.00252 0.0
O20 O 0.08765 1.018 0.00951 0.0
O21 O 0.96619 0.08155 0.063 0.0
H22 H 0.07084 0.13832 0.95797 0.0
H23 H 0.8372 0.14398 0.02252 0.0
O24 O 0.96154 1.02143 0.06633 0.0
O25 O 0.83585 1.01583 0.99853 0.0
O26 O 0.83523 0.07592 0.99821 0.0
C27 C 0.7931 1.04584 0.99754 0.0
H28 H 0.90142 0.88619 0.04513 0.0
H29 H 0.0176 0.20717 0.95676 0.0
Co30 Co -0.02851 1.01681 0.50081 0.0
C31 C -0.03078 0.05261 0.41916 0.0
Co32 Co -0.02644 0.07763 0.50479 0.0
C33 C 0.90645 0.94245 0.5085 0.0
C34 C 0.02053 0.94507 0.4716 0.0
N35 N 0.96735 0.96599 0.49472 0.0
N36 N 0.91895 0.90772 0.49457 0.0
C37 C -0.0088 0.90937 0.47152 0.0
H38 H 0.85301 0.95085 0.52777 0.0
H39 H 0.07525 0.95535 0.4545 0.0
C40 C -0.02371 1.0418 0.58645 0.0
N41 N -0.02282 0.12858 0.51103 0.0
C42 C 0.04139 0.15228 0.50115 0.0
C43 C 0.91812 0.14943 0.53055 0.0
N44 N 0.02514 0.18699 0.5141 0.0
C45 C 0.94707 0.18516 0.53234 0.0
C46 C 0.80449 0.04834 0.4982 0.0
O47 O -0.02558 1.01264 0.56332 0.0
O48 O -0.02347 0.07277 0.56726 0.0
O49 O 0.84736 0.07832 0.50073 0.0
O50 O 0.8465 1.01831 0.49736 0.0
O51 O -0.0293 0.08183 0.4422 0.0
H52 H 0.85883 0.13921 0.54384 0.0
H53 H 0.10067 0.14392 0.48629 0.0
O54 O -0.03139 1.02168 0.43843 0.0
O55 O 0.09711 1.01594 0.5043 0.0
O56 O 0.09904 0.07596 0.50874 0.0
C57 C 0.14047 1.04578 0.50742 0.0
H58 H 0.01885 0.88675 0.45414 0.0
H59 H 0.91331 0.20789 0.5465 0.0
Co60 Co 0.46927 0.51762 0.0111 0.0
C61 C 0.47395 0.55392 0.09273 0.0
Co62 Co 0.46598 0.57835 0.00687 0.0
C63 C 0.53413 0.44307 1.00347 0.0
C64 C 0.42141 0.44623 0.04129 0.0
N65 N 0.47388 0.46684 0.01751 0.0
N66 N 0.52181 0.40849 0.01784 0.0
C67 C 0.45044 0.4105 0.04148 0.0
H68 H 0.58697 0.45121 0.9837 0.0
H69 H 0.36739 0.45674 0.05876 0.0
C70 C 0.46165 0.54204 0.92525 0.0
N71 N 0.46135 0.62916 1.00046 0.0
C72 C 0.39886 0.65267 0.01281 0.0
C73 C 0.51604 0.65002 0.97823 0.0
N74 N 0.41191 0.68731 0.99886 0.0
C75 C 0.48609 0.68563 0.97727 0.0
C76 C 0.63547 0.54946 0.01245 0.0
O77 O 0.46331 0.513 0.94846 0.0
O78 O 0.46263 0.57311 0.9444 0.0
O79 O 0.59233 0.5794 0.01069 0.0
O80 O 0.59382 0.51932 0.01301 0.0
O81 O 0.46885 0.58294 0.06946 0.0
H82 H 0.57228 0.63975 0.96225 0.0
H83 H 0.34386 0.6443 0.03102 0.0
O84 O 0.47588 0.5229 0.07361 0.0
O85 O 0.34346 0.51663 0.0091 0.0
O86 O 0.34093 0.57651 1.00309 0.0
C87 C 0.29981 0.54637 1.00538 0.0
H88 H 0.4232 0.38811 0.05934 0.0
H89 H 0.51475 0.70816 0.96023 0.0
Co90 Co 0.47164 0.51712 0.50701 0.0
C91 C 0.46766 0.55337 0.42556 0.0
Co92 Co 0.47493 0.57789 0.51151 0.0
C93 C 0.40563 0.44264 0.5129 0.0
C94 C 0.52243 0.44561 0.47806 0.0
N95 N 0.46758 0.46632 0.50046 0.0
N96 N 0.4192 0.40802 0.49886 0.0
C97 C 0.49313 0.4099 0.4771 0.0
H98 H 0.35068 0.45086 0.53126 0.0
H99 H 0.57836 0.45604 0.462 0.0
C100 C 0.4787 0.54168 0.59296 0.0
N101 N 0.47896 0.62879 0.51801 0.0
C102 C 0.54154 0.65253 0.50631 0.0
C103 C 0.4224 0.64958 0.53927 0.0
N104 N 0.5268 0.68722 0.5198 0.0
C105 C 0.45128 0.68533 0.5403 0.0
C106 C 0.3054 0.54886 0.50536 0.0
O107 O 0.47414 0.51265 0.56956 0.0
O108 O 0.4808 0.57271 0.57401 0.0
O109 O 0.34904 0.57861 0.50915 0.0
O110 O 0.34655 0.51873 0.50309 0.0
O111 O 0.46953 0.58243 0.44889 0.0
H112 H 0.36497 0.63928 0.55419 0.0
H113 H 0.59864 0.64419 0.48964 0.0
O114 O 0.46851 0.52231 0.44459 0.0
O115 O 0.59797 0.51625 0.511 0.0
O116 O 0.59957 0.57631 0.51374 0.0
C117 C 0.64117 0.54617 0.51302 0.0
H118 H 0.52206 0.38744 0.45997 0.0
H119 H 0.41921 0.70802 0.55547 0.0
H120 H 0.23553 0.68761 0.01061 0.0
H121 H 0.45842 0.75908 0.99538 0.0
H122 H 0.13914 0.74079 0.01393 0.0
H123 H 0.36181 0.81222 0.99846 0.0
H124 H 0.14308 0.89598 0.9575 0.0
H125 H 0.23995 0.84278 0.95483 0.0
H126 H 0.11083 0.79281 0.06114 0.0
H127 H 0.01463 0.84587 0.06409 0.0
C128 C 0.26441 0.7146 0.0085 0.0
C129 C 0.35511 0.71887 1.00267 0.0
C130 C 0.20892 0.74518 0.0103 0.0
C131 C 0.24253 0.78086 0.00628 0.0
C132 C 0.3333 0.78516 1.00088 0.0
C133 C 0.38881 0.75461 0.99917 0.0
C134 C 0.13562 0.87382 0.98054 0.0
C135 C 0.07045 0.87542 0.01092 0.0
C136 C 0.19131 0.84325 0.97901 0.0
C137 C 0.18322 0.81343 0.00775 0.0
C138 C 0.11805 0.81498 0.03803 0.0
C139 C 0.06259 0.84554 0.03965 0.0
H140 H 0.69561 0.40732 1.0009 0.0
H141 H 0.47407 0.33696 0.02283 0.0
H142 H 0.78951 0.35366 0.99492 0.0
H143 H 0.56821 0.28335 0.01711 0.0
H144 H 0.78805 0.19864 0.05204 0.0
H145 H 0.69364 0.25232 0.05747 0.0
H146 H 0.81034 0.30139 0.94675 0.0
H147 H 0.90402 0.24787 0.94105 0.0
C148 C 0.66644 0.38048 1.00394 0.0
C149 C 0.57693 0.37666 0.01243 0.0
C150 C 0.72051 0.34963 1.00061 0.0
C151 C 0.68661 0.31412 1.00573 0.0
C152 C 0.59698 0.31027 0.01378 0.0
C153 C 0.54288 0.34109 0.01701 0.0
C154 C 0.79328 0.2207 0.02863 0.0
C155 C 0.85428 0.21872 0.9962 0.0
C156 C 0.73901 0.25154 0.03175 0.0
C157 C 0.7444 0.28126 1.00258 0.0
C158 C 0.80538 0.27931 0.97023 0.0
C159 C 0.85939 0.24849 0.96703 0.0
H160 H 0.02637 0.24829 0.56536 0.0
H161 H 0.1538 0.19837 0.45811 0.0
H162 H 0.12159 0.30161 0.56212 0.0
H163 H 0.24974 0.25185 0.45515 0.0
H164 H 0.46712 0.33642 0.49518 0.0
H165 H 0.37167 0.28293 0.49849 0.0
H166 H 0.14785 0.35359 0.51464 0.0
H167 H 0.24307 0.40711 0.51107 0.0
C168 C 0.0739 0.24872 0.54071 0.0
C169 C 0.08173 0.21882 0.51186 0.0
C170 C 0.12878 0.27942 0.53893 0.0
C171 C 0.19336 0.28112 0.50836 0.0
C172 C 0.20152 0.25126 0.47954 0.0
C173 C 0.14637 0.22054 0.48123 0.0
C174 C 0.3975 0.34065 0.49917 0.0
C175 C 0.36312 0.37626 0.50279 0.0
C176 C 0.34266 0.3099 0.50101 0.0
C177 C 0.25193 0.31389 0.50667 0.0
C178 C 0.21764 0.34946 0.51081 0.0
C179 C 0.27245 0.38023 0.50886 0.0
H180 H 0.96603 0.83601 0.49087 0.0
H181 H 0.74425 0.90716 0.50979 0.0
H182 H 0.87084 0.7827 0.49652 0.0
H183 H 0.64935 0.85383 0.5157 0.0
H184 H 0.53179 0.74909 0.57029 0.0
H185 H 0.62644 0.80229 0.56454 0.0
H186 H 0.74592 0.75147 0.45553 0.0
H187 H 0.65048 0.69815 0.46093 0.0
C188 C 0.89696 0.84038 0.49602 0.0
C189 C 0.86315 0.87607 0.49981 0.0
C190 C 0.84227 0.80973 0.4992 0.0
C191 C 0.75229 0.81391 0.50642 0.0
C192 C 0.7186 0.84955 0.5107 0.0
C193 C 0.77324 0.88022 0.50741 0.0
C194 C 0.57723 0.74924 0.54466 0.0
C195 C 0.58279 0.71907 0.51598 0.0
C196 C 0.63181 0.77988 0.54144 0.0
C197 C 0.69387 0.78125 0.50957 0.0
C198 C 0.69971 0.75115 0.48088 0.0
C199 C 0.64482 0.7205 0.48399 0.0
H200 H 0.23394 0.10311 0.98053 0.0
H201 H 0.2438 0.99289 0.03249 0.0
H202 H 0.39365 0.10206 0.97637 0.0
H203 H 0.40431 0.99238 0.0304 0.0
H204 H 0.67805 0.98887 0.97966 0.0
H205 H 0.51719 0.98957 0.98133 0.0
H206 H 0.52899 0.10369 0.02022 0.0
H207 H 0.68849 0.10333 0.01643 0.0
C208 C 0.27052 0.07885 0.99169 0.0
C209 C 0.2265 0.04812 0.0069 0.0
C210 C 0.36222 0.07827 0.98948 0.0
C211 C 0.41215 1.04713 1.00309 0.0
C212 C 0.36793 1.01656 0.01887 0.0
C213 C 0.27601 1.01696 0.02047 0.0
C214 C 0.64595 1.0141 0.98829 0.0
C215 C 0.69571 1.04606 0.99768 0.0
C216 C 0.55387 1.01447 0.98961 0.0
C217 C 0.5099 1.04669 1.00098 0.0
C218 C 0.56015 0.07857 0.01049 0.0
C219 C 0.65183 0.07833 0.00854 0.0
H220 H 0.24514 0.99068 0.48082 0.0
H221 H 0.25516 0.10085 0.53339 0.0
H222 H 0.4049 0.99174 0.47664 0.0
H223 H 0.41565 0.10136 0.53144 0.0
H224 H 0.68943 0.10535 0.48141 0.0
H225 H 0.52859 0.10448 0.48294 0.0
H226 H 0.54053 0.98999 0.51973 0.0
H227 H 0.70003 0.99054 0.51591 0.0
C228 C 0.28182 1.01492 0.49213 0.0
C229 C 0.23784 1.04565 0.50748 0.0
C230 C 0.37353 1.01552 0.48993 0.0
C231 C 0.42351 1.04665 0.50372 0.0
C232 C 0.3793 0.07719 0.51971 0.0
C233 C 0.28737 0.0768 0.52123 0.0
C234 C 0.65734 0.08001 0.48954 0.0
C235 C 0.70712 0.04801 0.49833 0.0
C236 C 0.56526 0.07953 0.49079 0.0
C237 C 0.52129 1.04717 0.50157 0.0
C238 C 0.57161 1.01523 0.51046 0.0
C239 C 0.6633 1.01558 0.50851 0.0
H240 H 0.73992 0.49175 0.99436 0.0
H241 H 0.75053 0.60654 0.0296 0.0
H242 H 0.8996 0.49107 0.99135 0.0
H243 H 0.91156 0.60553 0.02879 0.0
H244 H 0.18576 0.60139 0.97912 0.0
H245 H 0.02528 0.60211 0.98055 0.0
H246 H 0.03441 0.49276 0.0356 0.0
H247 H 0.19445 0.49149 0.03204 0.0
C248 C 0.77666 0.51677 1.00203 0.0
C249 C 0.73281 0.54922 0.01224 0.0
C250 C 0.86844 0.51633 1.00057 0.0
C251 C 0.9188 0.5482 0.00996 0.0
C252 C 0.87481 0.58062 0.02062 0.0
C253 C 0.78263 0.58119 0.02142 0.0
C254 C 0.15326 0.57744 0.99126 0.0
C255 C 0.20244 0.5463 1.00527 0.0
C256 C 0.06132 0.57796 0.99247 0.0
C257 C 0.01666 0.54756 0.00835 0.0
C258 C 0.06623 0.51644 0.02243 0.0
C259 C 0.15806 0.51571 0.02057 0.0
H260 H 0.19114 0.49372 0.47928 0.0
H261 H 0.20024 0.60389 0.53192 0.0
H262 H 0.03065 0.49308 0.48086 0.0
H263 H 0.04029 0.6027 0.53564 0.0
H264 H 0.7458 0.60372 0.49473 0.0
H265 H 0.90542 0.60426 0.49151 0.0
H266 H 0.91703 0.48999 0.52922 0.0
H267 H 0.75603 0.48911 0.53025 0.0
C268 C 0.15874 0.51775 0.49138 0.0
C269 C 0.20803 0.54894 0.50527 0.0
C270 C 0.0668 0.51727 0.49268 0.0
C271 C 0.02229 0.54778 0.50852 0.0
C272 C 0.07198 0.57895 0.52248 0.0
C273 C 0.16378 0.57962 0.52054 0.0
C274 C 0.78245 0.57872 0.50244 0.0
C275 C 0.73851 0.54636 0.5128 0.0
C276 C 0.8742 0.57907 0.50084 0.0
C277 C 0.92445 0.54721 0.51024 0.0
C278 C 0.88037 0.51488 0.52105 0.0
C279 C 0.78821 0.5144 0.52198 0.0
H280 H 0.01145 0.99762 0.36426 0.0
H281 H 0.92908 0.11092 0.36415 0.0
H282 H 0.01243 0.99906 0.28432 0.0
H283 H 0.92586 0.11201 0.28343 0.0
H284 H 0.00989 0.11007 0.14124 0.0
H285 H 0.01303 0.11123 0.22195 0.0
H286 H 0.91517 0.99984 0.22025 0.0
H287 H 0.9162 0.99825 0.14031 0.0
C288 C -0.00738 1.02279 0.34703 0.0
C289 C -0.03033 0.0541 0.37047 0.0
C290 C -0.00739 1.02358 0.30105 0.0
C291 C 0.96817 0.05553 0.27713 0.0
C292 C 0.94594 0.08703 0.30069 0.0
C293 C 0.94723 0.08638 0.34693 0.0
C294 C -0.01077 0.08588 0.15827 0.0
C295 C 0.96364 0.05397 0.1345 0.0
C296 C -0.00953 0.08658 0.20451 0.0
C297 C 0.96506 0.05552 0.22785 0.0
C298 C 0.93746 1.02397 0.2037 0.0
C299 C 0.93748 1.02311 0.15772 0.0
H300 H 0.90937 0.09529 0.85951 0.0
H301 H 0.0048 0.98376 0.86748 0.0
H302 H 0.91271 0.09392 0.77959 0.0
H303 H 0.01195 0.9828 0.78733 0.0
H304 H 0.93468 0.98336 0.63729 0.0
H305 H 0.92743 0.98211 0.71742 0.0
H306 H 0.0148 0.09493 0.72556 0.0
H307 H 0.01822 0.09652 0.64566 0.0
C308 C 0.93158 0.0705 0.84415 0.0
C309 C 0.95709 1.03968 0.86981 0.0
C310 C 0.93418 0.06978 0.79827 0.0
C311 C 0.96364 1.03839 0.77687 0.0
C312 C -0.01196 1.00732 0.80255 0.0
C313 C -0.01566 1.0079 0.84853 0.0
C314 C 0.95251 1.00782 0.65633 0.0
C315 C -0.02353 1.0401 0.63517 0.0
C316 C 0.94875 1.00708 0.70229 0.0
C317 C -0.0302 1.03851 0.72808 0.0
C318 C -0.00406 0.07046 0.70679 0.0
C319 C -0.00142 0.07132 0.66092 0.0
H320 H 0.50737 0.61199 0.37444 0.0
H321 H 0.4236 0.49885 0.36646 0.0
H322 H 0.51162 0.61341 0.29409 0.0
H323 H 0.42396 0.50061 0.28645 0.0
H324 H 0.52394 0.50008 0.15152 0.0
H325 H 0.52385 0.50158 0.23155 0.0
H326 H 0.42525 0.61281 0.22461 0.0
H327 H 0.4292 0.61172 0.14423 0.0
C328 C 0.48888 0.58757 0.35546 0.0
C329 C 0.46578 0.55524 0.37678 0.0
C330 C 0.4909 0.58841 0.30937 0.0
C331 C 0.46894 0.55702 0.28364 0.0
C332 C 0.44357 0.52504 0.30513 0.0
C333 C 0.44269 0.52408 0.35108 0.0
C334 C 0.50253 0.52492 0.16706 0.0
C335 C 0.47623 0.55573 0.14154 0.0
C336 C 0.50181 0.52572 0.21302 0.0
C337 C 0.47341 0.55716 0.23471 0.0
C338 C 0.44833 0.58823 0.20917 0.0
C339 C 0.45018 0.58758 0.16307 0.0
H340 H 0.52662 0.59556 0.6524 0.0
H341 H 0.43265 0.4838 0.64369 0.0
H342 H 0.52353 0.59402 0.7323 0.0
H343 H 0.4257 0.48267 0.72387 0.0
H344 H 0.5026 0.48344 0.87416 0.0
H345 H 0.50949 0.48209 0.79397 0.0
H346 H 0.42152 0.59481 0.78626 0.0
H347 H 0.41852 0.5965 0.86617 0.0
C348 C 0.5048 0.57067 0.6676 0.0
C349 C 0.47958 0.53985 0.64172 0.0
C350 C 0.50232 0.56986 0.71348 0.0
C351 C 0.47322 0.53837 0.7347 0.0
C352 C 0.44927 0.50728 0.7088 0.0
C353 C 0.45287 0.50795 0.66281 0.0
C354 C 0.48452 0.50784 0.85519 0.0
C355 C 0.46062 0.54014 0.87648 0.0
C356 C 0.48809 0.50705 0.80919 0.0
C357 C 0.46691 0.53845 0.7835 0.0
C358 C 0.44058 0.57038 0.80493 0.0
C359 C 0.43815 0.57129 0.85081 0.0
loop_
_geom_bond_atom_site_label_1
_geom_bond_atom_site_label_2
_geom_bond_distance
_geom_bond_site_symmetry_2
_ccdc_geom_bond_type
Co0 N5 2.057 1_556 S
Co0 O17 2.021 . S
Co0 O20 2.062 . S
Co0 O24 2.117 1_556 S
Co0 O25 2.020 1_455 S
C1 O21 1.259 1_455 S
C1 O24 1.258 1_545 S
Co2 N11 2.057 1_554 S
Co2 O18 2.117 1_554 S
Co2 O19 2.020 1_655 S
Co2 O21 2.021 . S
Co2 O26 2.062 . S
C3 N5 1.316 1_556 S
C3 N6 1.347 1_556 S
C3 H8 0.931 . S
C4 N5 1.375 . S
C4 C7 1.350 . S
C4 H9 0.930 . S
N5 Co0 2.057 1_554 S
N5 C3 1.316 1_554 S
N5 C4 1.375 . S
N6 C3 1.347 1_554 S
N6 C7 1.373 . S
C7 C4 1.350 . S
C7 N6 1.373 . S
C7 H28 0.931 . S
H8 C3 0.931 . S
H9 C4 0.930 . S
C10 O17 1.259 1_655 S
C10 O18 1.258 1_565 S
N11 Co2 2.057 1_556 S
N11 C12 1.316 1_556 S
N11 C13 1.375 . S
C12 N11 1.316 1_554 S
C12 N14 1.347 1_554 S
C12 H23 0.931 . S
C13 N11 1.375 . S
C13 C15 1.350 . S
C13 H22 0.930 . S
N14 C12 1.347 1_556 S
N14 C15 1.373 . S
C15 C13 1.350 . S
C15 N14 1.373 . S
C15 H29 0.931 . S
C16 O19 1.257 . S
C16 O20 1.254 1_544 S
O17 Co0 2.021 . S
O17 C10 1.259 1_455 S
O18 Co2 2.117 1_556 S
O18 C10 1.258 1_545 S
O19 Co2 2.020 1_455 S
O19 C16 1.257 . S
O20 Co0 2.062 . S
O20 C16 1.254 1_566 S
O21 C1 1.259 1_655 S
O21 Co2 2.021 . S
H22 C13 0.930 . S
H23 C12 0.931 . S
O24 Co0 2.117 1_554 S
O24 C1 1.258 1_565 S
O25 Co0 2.020 1_655 S
O25 C27 1.257 . S
O26 Co2 2.062 . S
O26 C27 1.254 1_544 S
C27 O25 1.257 . S
C27 O26 1.254 1_566 S
H28 C7 0.931 . S
H29 C15 0.931 . S
Co30 N35 2.057 . S
Co30 O47 2.021 . S
Co30 O50 2.062 . S
Co30 O54 2.117 . S
Co30 O55 2.020 1_655 S
C31 O51 1.259 1_655 S
C31 O54 1.258 1_545 S
Co32 N41 2.057 . S
Co32 O48 2.117 . S
Co32 O49 2.020 1_455 S
Co32 O51 2.021 . S
Co32 O56 2.062 . S
C33 N35 1.316 . S
C33 N36 1.347 . S
C33 H38 0.931 . S
C34 N35 1.375 . S
C34 C37 1.350 . S
C34 H39 0.930 . S
N35 Co30 2.057 . S
N35 C33 1.316 . S
N35 C34 1.375 . S
N36 C33 1.347 . S
N36 C37 1.373 . S
C37 C34 1.350 . S
C37 N36 1.373 . S
C37 H58 0.931 . S
H38 C33 0.931 . S
H39 C34 0.930 . S
C40 O47 1.259 1_455 S
C40 O48 1.258 1_565 S
N41 Co32 2.057 . S
N41 C42 1.316 . S
N41 C43 1.375 . S
C42 N41 1.316 . S
C42 N44 1.347 . S
C42 H53 0.931 . S
C43 N41 1.375 . S
C43 C45 1.350 . S
C43 H52 0.930 . S
N44 C42 1.347 . S
N44 C45 1.373 . S
C45 C43 1.350 . S
C45 N44 1.373 . S
C45 H59 0.931 . S
C46 O49 1.256 . S
C46 O50 1.255 1_545 S
O47 Co30 2.021 . S
O47 C40 1.259 1_655 S
O48 Co32 2.117 . S
O48 C40 1.258 1_545 S
O49 Co32 2.020 1_655 S
O49 C46 1.256 . S
O50 Co30 2.062 . S
O50 C46 1.255 1_565 S
O51 C31 1.259 1_455 S
O51 Co32 2.021 . S
H52 C43 0.930 . S
H53 C42 0.931 . S
O54 Co30 2.117 . S
O54 C31 1.258 1_565 S
O55 Co30 2.020 1_455 S
O55 C57 1.256 . S
O56 Co32 2.062 . S
O56 C57 1.255 1_545 S
C57 O55 1.256 . S
C57 O56 1.255 1_565 S
H58 C37 0.931 . S
H59 C45 0.931 . S
Co60 N65 2.057 1_556 S
Co60 O77 2.021 . S
Co60 O80 2.062 . S
Co60 O84 2.117 1_556 S
Co60 O85 2.020 . S
C61 O81 1.259 . S
C61 O84 1.258 . S
Co62 N71 2.057 1_554 S
Co62 O78 2.117 1_554 S
Co62 O79 2.020 . S
Co62 O81 2.021 . S
Co62 O86 2.062 . S
C63 N65 1.316 1_556 S
C63 N66 1.347 1_556 S
C63 H68 0.931 . S
C64 N65 1.375 . S
C64 C67 1.350 . S
C64 H69 0.930 . S
N65 Co60 2.057 1_554 S
N65 C63 1.316 1_554 S
N65 C64 1.375 . S
N66 C63 1.347 1_554 S
N66 C67 1.373 . S
C67 C64 1.350 . S
C67 N66 1.373 . S
C67 H88 0.931 . S
H68 C63 0.931 . S
H69 C64 0.930 . S
C70 O77 1.259 . S
C70 O78 1.258 . S
N71 Co62 2.057 1_556 S
N71 C72 1.316 1_556 S
N71 C73 1.375 . S
C72 N71 1.316 1_554 S
C72 N74 1.347 1_554 S
C72 H83 0.931 . S
C73 N71 1.375 . S
C73 C75 1.350 . S
C73 H82 0.930 . S
N74 C72 1.347 1_556 S
N74 C75 1.373 . S
C75 C73 1.350 . S
C75 N74 1.373 . S
C75 H89 0.931 . S
C76 O79 1.257 . S
C76 O80 1.254 1_554 S
O77 Co60 2.021 . S
O77 C70 1.259 . S
O78 Co62 2.117 1_556 S
O78 C70 1.258 . S
O79 Co62 2.020 . S
O79 C76 1.257 . S
O80 Co60 2.062 . S
O80 C76 1.254 1_556 S
O81 C61 1.259 . S
O81 Co62 2.021 . S
H82 C73 0.930 . S
H83 C72 0.931 . S
O84 Co60 2.117 1_554 S
O84 C61 1.258 . S
O85 Co60 2.020 . S
O85 C87 1.257 . S
O86 Co62 2.062 . S
O86 C87 1.254 1_554 S
C87 O85 1.257 . S
C87 O86 1.254 1_556 S
H88 C67 0.931 . S
H89 C75 0.931 . S
Co90 N95 2.057 . S
Co90 O107 2.021 . S
Co90 O110 2.062 . S
Co90 O114 2.117 . S
Co90 O115 2.020 . S
C91 O111 1.259 . S
C91 O114 1.258 . S
Co92 N101 2.057 . S
Co92 O108 2.117 . S
Co92 O109 2.020 . S
Co92 O111 2.021 . S
Co92 O116 2.062 . S
C93 N95 1.316 . S
C93 N96 1.347 . S
C93 H98 0.931 . S
C94 N95 1.375 . S
C94 C97 1.350 . S
C94 H99 0.930 . S
N95 Co90 2.057 . S
N95 C93 1.316 . S
N95 C94 1.375 . S
N96 C93 1.347 . S
N96 C97 1.373 . S
C97 C94 1.350 . S
C97 N96 1.373 . S
C97 H118 0.931 . S
H98 C93 0.931 . S
H99 C94 0.930 . S
C100 O107 1.259 . S
C100 O108 1.258 . S
N101 Co92 2.057 . S
N101 C102 1.316 . S
N101 C103 1.375 . S
C102 N101 1.316 . S
C102 N104 1.347 . S
C102 H113 0.931 . S
C103 N101 1.375 . S
C103 C105 1.350 . S
C103 H112 0.930 . S
N104 C102 1.347 . S
N104 C105 1.373 . S
C105 C103 1.350 . S
C105 N104 1.373 . S
C105 H119 0.931 . S
C106 O109 1.256 . S
C106 O110 1.255 . S
O107 Co90 2.021 . S
O107 C100 1.259 . S
O108 Co92 2.117 . S
O108 C100 1.258 . S
O109 Co92 2.020 . S
O109 C106 1.256 . S
O110 Co90 2.062 . S
O110 C106 1.255 . S
O111 C91 1.259 . S
O111 Co92 2.021 . S
H112 C103 0.930 . S
H113 C102 0.931 . S
O114 Co90 2.117 . S
O114 C91 1.258 . S
O115 Co90 2.020 . S
O115 C117 1.256 . S
O116 Co92 2.062 . S
O116 C117 1.255 . S
C117 O115 1.256 . S
C117 O116 1.255 . S
H118 C97 0.931 . S
H119 C105 0.931 . S
H120 C128 0.950 . S
H121 C133 0.950 . S
H122 C130 0.950 . S
H123 C132 0.950 . S
H124 C134 0.950 . S
H125 C136 0.950 . S
H126 C138 0.950 . S
H127 C139 0.950 . S
C128 H120 0.950 . S
C128 C129 1.386 . S
C128 C130 1.391 . S
C129 C128 1.386 . S
C129 C133 1.393 1_554 S
C130 H122 0.950 . S
C130 C128 1.391 . S
C130 C131 1.400 . S
C131 C130 1.400 . S
C131 C132 1.398 1_554 S
C131 C137 1.491 1_554 S
C132 H123 0.950 . S
C132 C131 1.398 1_556 S
C132 C133 1.391 . S
C133 H121 0.950 . S
C133 C129 1.393 1_556 S
C133 C132 1.391 . S
C134 H124 0.950 . S
C134 C135 1.386 . S
C134 C136 1.391 . S
C135 C134 1.386 . S
C135 C139 1.393 1_556 S
C136 H125 0.950 . S
C136 C134 1.391 . S
C136 C137 1.400 . S
C137 C131 1.491 1_556 S
C137 C136 1.400 . S
C137 C138 1.398 1_556 S
C138 H126 0.950 . S
C138 C137 1.398 1_554 S
C138 C139 1.391 . S
C139 H127 0.950 . S
C139 C135 1.393 1_554 S
C139 C138 1.391 . S
H140 C148 0.950 . S
H141 C153 0.950 . S
H142 C150 0.950 . S
H143 C152 0.950 . S
H144 C154 0.950 . S
H145 C156 0.950 . S
H146 C158 0.950 . S
H147 C159 0.950 . S
C148 H140 0.950 . S
C148 C149 1.386 . S
C148 C150 1.391 . S
C149 C148 1.386 . S
C149 C153 1.393 1_556 S
C150 H142 0.950 . S
C150 C148 1.391 . S
C150 C151 1.417 . S
C151 C150 1.417 . S
C151 C152 1.382 1_556 S
C151 C157 1.491 1_556 S
C152 H143 0.950 . S
C152 C151 1.382 1_554 S
C152 C153 1.391 . S
C153 H141 0.950 . S
C153 C149 1.393 1_554 S
C153 C152 1.391 . S
C154 H144 0.950 . S
C154 C155 1.386 . S
C154 C156 1.391 . S
C155 C154 1.386 . S
C155 C159 1.393 1_554 S
C156 H145 0.950 . S
C156 C154 1.391 . S
C156 C157 1.400 . S
C157 C151 1.491 1_554 S
C157 C156 1.400 . S
C157 C158 1.398 1_554 S
C158 H146 0.950 . S
C158 C157 1.398 1_556 S
C158 C159 1.391 . S
C159 H147 0.950 . S
C159 C155 1.393 1_556 S
C159 C158 1.391 . S
H160 C168 0.950 . S
H161 C173 0.950 . S
H162 C170 0.950 . S
H163 C172 0.950 . S
H164 C174 0.950 . S
H165 C176 0.950 . S
H166 C178 0.950 . S
H167 C179 0.950 . S
C168 H160 0.950 . S
C168 C169 1.386 . S
C168 C170 1.391 . S
C169 C168 1.386 . S
C169 C173 1.393 . S
C170 H162 0.950 . S
C170 C168 1.391 . S
C170 C171 1.400 . S
C171 C170 1.400 . S
C171 C172 1.398 . S
C171 C177 1.491 . S
C172 H163 0.950 . S
C172 C171 1.398 . S
C172 C173 1.391 . S
C173 H161 0.950 . S
C173 C169 1.393 . S
C173 C172 1.391 . S
C174 H164 0.950 . S
C174 C175 1.386 . S
C174 C176 1.391 . S
C175 C174 1.386 . S
C175 C179 1.393 . S
C176 H165 0.950 . S
C176 C174 1.391 . S
C176 C177 1.400 . S
C177 C171 1.491 . S
C177 C176 1.400 . S
C177 C178 1.398 . S
C178 H166 0.950 . S
C178 C177 1.398 . S
C178 C179 1.391 . S
C179 H167 0.950 . S
C179 C175 1.393 . S
C179 C178 1.391 . S
H180 C188 0.950 . S
H181 C193 0.950 . S
H182 C190 0.950 . S
H183 C192 0.950 . S
H184 C194 0.950 . S
H185 C196 0.950 . S
H186 C198 0.950 . S
H187 C199 0.950 . S
C188 H180 0.950 . S
C188 C189 1.386 . S
C188 C190 1.391 . S
C189 C188 1.386 . S
C189 C193 1.393 . S
C190 H182 0.950 . S
C190 C188 1.391 . S
C190 C191 1.400 . S
C191 C190 1.400 . S
C191 C192 1.398 . S
C191 C197 1.491 . S
C192 H183 0.950 . S
C192 C191 1.398 . S
C192 C193 1.391 . S
C193 H181 0.950 . S
C193 C189 1.393 . S
C193 C192 1.391 . S
C194 H184 0.950 . S
C194 C195 1.386 . S
C194 C196 1.391 . S
C195 C194 1.386 . S
C195 C199 1.393 . S
C196 H185 0.950 . S
C196 C194 1.391 . S
C196 C197 1.400 . S
C197 C191 1.491 . S
C197 C196 1.400 . S
C197 C198 1.398 . S
C198 H186 0.950 . S
C198 C197 1.398 . S
C198 C199 1.391 . S
C199 H187 0.950 . S
C199 C195 1.393 . S
C199 C198 1.391 . S
H200 C208 0.950 . S
H201 C213 0.950 . S
H202 C210 0.950 . S
H203 C212 0.950 . S
H204 C214 0.950 . S
H205 C216 0.950 . S
H206 C218 0.950 . S
H207 C219 0.950 . S
C208 H200 0.950 . S
C208 C209 1.386 1_556 S
C208 C210 1.391 . S
C209 C208 1.386 1_554 S
C209 C213 1.393 1_545 S
C210 H202 0.950 . S
C210 C208 1.391 . S
C210 C211 1.400 1_556 S
C211 C210 1.400 1_554 S
C211 C212 1.398 1_545 S
C211 C217 1.488 1_544 S
C212 H203 0.950 . S
C212 C211 1.398 1_565 S
C212 C213 1.391 . S
C213 H201 0.950 . S
C213 C209 1.393 1_565 S
C213 C212 1.391 . S
C214 H204 0.950 . S
C214 C215 1.386 1_554 S
C214 C216 1.391 . S
C215 C214 1.386 1_556 S
C215 C219 1.393 1_565 S
C216 H205 0.950 . S
C216 C214 1.391 . S
C216 C217 1.388 1_554 S
C217 C211 1.488 1_566 S
C217 C216 1.388 1_556 S
C217 C218 1.413 1_565 S
C218 H206 0.950 . S
C218 C217 1.413 1_545 S
C218 C219 1.391 . S
C219 H207 0.950 . S
C219 C215 1.393 1_545 S
C219 C218 1.391 . S
H220 C228 0.950 . S
H221 C233 0.950 . S
H222 C230 0.950 . S
H223 C232 0.950 . S
H224 C234 0.950 . S
H225 C236 0.950 . S
H226 C238 0.950 . S
H227 C239 0.950 . S
C228 H220 0.950 . S
C228 C229 1.386 . S
C228 C230 1.391 . S
C229 C228 1.386 . S
C229 C233 1.393 1_565 S
C230 H222 0.950 . S
C230 C228 1.391 . S
C230 C231 1.400 . S
C231 C230 1.400 . S
C231 C232 1.398 1_565 S
C231 C237 1.491 1_565 S
C232 H223 0.950 . S
C232 C231 1.398 1_545 S
C232 C233 1.391 . S
C233 H221 0.950 . S
C233 C229 1.393 1_545 S
C233 C232 1.391 . S
C234 H224 0.950 . S
C234 C235 1.386 . S
C234 C236 1.391 . S
C235 C234 1.386 . S
C235 C239 1.393 1_545 S
C236 H225 0.950 . S
C236 C234 1.391 . S
C236 C237 1.400 . S
C237 C231 1.491 1_545 S
C237 C236 1.400 . S
C237 C238 1.398 1_545 S
C238 H226 0.950 . S
C238 C237 1.398 1_565 S
C238 C239 1.391 . S
C239 H227 0.950 . S
C239 C235 1.393 1_565 S
C239 C238 1.391 . S
H240 C248 0.950 . S
H241 C253 0.950 . S
H242 C250 0.950 . S
H243 C252 0.950 . S
H244 C254 0.950 . S
H245 C256 0.950 . S
H246 C258 0.950 . S
H247 C259 0.950 . S
C248 H240 0.950 . S
C248 C249 1.386 1_554 S
C248 C250 1.391 . S
C249 C248 1.386 1_556 S
C249 C253 1.393 . S
C250 H242 0.950 . S
C250 C248 1.391 . S
C250 C251 1.399 1_554 S
C251 C250 1.399 1_556 S
C251 C252 1.399 . S
C251 C257 1.492 1_656 S
C252 H243 0.950 . S
C252 C251 1.399 . S
C252 C253 1.391 . S
C253 H241 0.950 . S
C253 C249 1.393 . S
C253 C252 1.391 . S
C254 H244 0.950 . S
C254 C255 1.386 1_556 S
C254 C256 1.391 . S
C255 C254 1.386 1_554 S
C255 C259 1.394 . S
C256 H245 0.950 . S
C256 C254 1.391 . S
C256 C257 1.398 1_556 S
C257 C251 1.492 1_454 S
C257 C256 1.398 1_554 S
C257 C258 1.399 . S
C258 H246 0.950 . S
C258 C257 1.399 . S
C258 C259 1.391 . S
C259 H247 0.950 . S
C259 C255 1.394 . S
C259 C258 1.391 . S
H260 C268 0.950 . S
H261 C273 0.950 . S
H262 C270 0.950 . S
H263 C272 0.950 . S
H264 C274 0.950 . S
H265 C276 0.950 . S
H266 C278 0.950 . S
H267 C279 0.950 . S
C268 H260 0.950 . S
C268 C269 1.386 . S
C268 C270 1.391 . S
C269 C268 1.386 . S
C269 C273 1.393 . S
C270 H262 0.950 . S
C270 C268 1.391 . S
C270 C271 1.400 . S
C271 C270 1.400 . S
C271 C272 1.398 . S
C271 C277 1.491 1_455 S
C272 H263 0.950 . S
C272 C271 1.398 . S
C272 C273 1.391 . S
C273 H261 0.950 . S
C273 C269 1.393 . S
C273 C272 1.391 . S
C274 H264 0.950 . S
C274 C275 1.386 . S
C274 C276 1.391 . S
C275 C274 1.386 . S
C275 C279 1.393 . S
C276 H265 0.950 . S
C276 C274 1.391 . S
C276 C277 1.400 . S
C277 C271 1.491 1_655 S
C277 C276 1.400 . S
C277 C278 1.398 . S
C278 H266 0.950 . S
C278 C277 1.398 . S
C278 C279 1.391 . S
C279 H267 0.950 . S
C279 C275 1.393 . S
C279 C278 1.391 . S
H280 C288 0.950 . S
H281 C293 0.950 . S
H282 C290 0.950 . S
H283 C292 0.950 . S
H284 C294 0.950 . S
H285 C296 0.950 . S
H286 C298 0.950 . S
H287 C299 0.950 . S
C288 H280 0.950 . S
C288 C289 1.386 1_565 S
C288 C290 1.391 . S
C289 C288 1.386 1_545 S
C289 C293 1.393 1_655 S
C290 H282 0.950 . S
C290 C288 1.391 . S
C290 C291 1.407 1_565 S
C291 C290 1.407 1_545 S
C291 C292 1.392 1_655 S
C291 C297 1.490 1_655 S
C292 H283 0.950 . S
C292 C291 1.392 1_455 S
C292 C293 1.391 . S
C293 H281 0.950 . S
C293 C289 1.393 1_455 S
C293 C292 1.391 . S
C294 H284 0.950 . S
C294 C295 1.388 . S
C294 C296 1.391 . S
C295 C294 1.388 . S
C295 C299 1.391 1_445 S
C296 H285 0.950 . S
C296 C294 1.391 . S
C296 C297 1.418 . S
C297 C291 1.490 1_455 S
C297 C296 1.418 . S
C297 C298 1.381 1_445 S
C298 H286 0.950 . S
C298 C297 1.381 1_665 S
C298 C299 1.391 . S
C299 H287 0.950 . S
C299 C295 1.391 1_665 S
C299 C298 1.391 . S
H300 C308 0.950 . S
H301 C313 0.950 . S
H302 C310 0.950 . S
H303 C312 0.950 . S
H304 C314 0.950 . S
H305 C316 0.950 . S
H306 C318 0.950 . S
H307 C319 0.950 . S
C308 H300 0.950 . S
C308 C309 1.387 1_545 S
C308 C310 1.391 . S
C309 C308 1.387 1_565 S
C309 C313 1.392 1_455 S
C310 H302 0.950 . S
C310 C308 1.391 . S
C310 C311 1.405 1_545 S
C311 C310 1.405 1_565 S
C311 C312 1.393 1_455 S
C311 C317 1.492 1_455 S
C312 H303 0.950 . S
C312 C311 1.393 1_655 S
C312 C313 1.391 . S
C313 H301 0.950 . S
C313 C309 1.392 1_655 S
C313 C312 1.391 . S
C314 H304 0.950 . S
C314 C315 1.386 . S
C314 C316 1.391 . S
C315 C314 1.386 . S
C315 C319 1.393 1_665 S
C316 H305 0.950 . S
C316 C314 1.391 . S
C316 C317 1.415 . S
C317 C311 1.492 1_655 S
C317 C316 1.415 . S
C317 C318 1.383 1_665 S
C318 H306 0.950 . S
C318 C317 1.383 1_445 S
C318 C319 1.391 . S
C319 H307 0.950 . S
C319 C315 1.393 1_445 S
C319 C318 1.391 . S
H320 C328 0.950 . S
H321 C333 0.950 . S
H322 C330 0.950 . S
H323 C332 0.950 . S
H324 C334 0.950 . S
H325 C336 0.950 . S
H326 C338 0.950 . S
H327 C339 0.950 . S
C328 H320 0.950 . S
C328 C329 1.386 . S
C328 C330 1.391 . S
C329 C328 1.386 . S
C329 C333 1.393 . S
C330 H322 0.950 . S
C330 C328 1.391 . S
C330 C331 1.400 . S
C331 C330 1.400 . S
C331 C332 1.398 . S
C331 C337 1.491 . S
C332 H323 0.950 . S
C332 C331 1.398 . S
C332 C333 1.391 . S
C333 H321 0.950 . S
C333 C329 1.393 . S
C333 C332 1.391 . S
C334 H324 0.950 . S
C334 C335 1.386 . S
C334 C336 1.391 . S
C335 C334 1.386 . S
C335 C339 1.393 . S
C336 H325 0.950 . S
C336 C334 1.391 . S
C336 C337 1.400 . S
C337 C331 1.491 . S
C337 C336 1.400 . S
C337 C338 1.398 . S
C338 H326 0.950 . S
C338 C337 1.398 . S
C338 C339 1.391 . S
C339 H327 0.950 . S
C339 C335 1.393 . S
C339 C338 1.391 . S
H340 C348 0.950 . S
H341 C353 0.950 . S
H342 C350 0.950 . S
H343 C352 0.950 . S
H344 C354 0.950 . S
H345 C356 0.950 . S
H346 C358 0.950 . S
H347 C359 0.950 . S
C348 H340 0.950 . S
C348 C349 1.386 . S
C348 C350 1.391 . S
C349 C348 1.386 . S
C349 C353 1.393 . S
C350 H342 0.950 . S
C350 C348 1.391 . S
C350 C351 1.400 . S
C351 C350 1.400 . S
C351 C352 1.398 . S
C351 C357 1.491 . S
C352 H343 0.950 . S
C352 C351 1.398 . S
C352 C353 1.391 . S
C353 H341 0.950 . S
C353 C349 1.393 . S
C353 C352 1.391 . S
C354 H344 0.950 . S
C354 C355 1.386 . S
C354 C356 1.391 . S
C355 C354 1.386 . S
C355 C359 1.393 . S
C356 H345 0.950 . S
C356 C354 1.391 . S
C356 C357 1.400 . S
C357 C351 1.491 . S
C357 C356 1.400 . S
C357 C358 1.398 . S
C358 H346 0.950 . S
C358 C357 1.398 . S
C358 C359 1.391 . S
C359 H347 0.950 . S
C359 C355 1.393 . S
C359 C358 1.391 . S
C129 N74 1.545 1_554 S
C135 N6 1.548 1_556 S
C149 N66 1.541 1_556 S
C155 N14 1.538 1_554 S
C169 N44 1.533 . S
C175 N96 1.529 . S
C189 N36 1.546 . S
C195 N104 1.550 . S
C209 C16 0.955 . S
C215 C27 0.955 . S
C229 C57 0.946 . S
C235 C46 0.946 . S
C249 C76 0.946 1_556 S
C255 C87 0.946 1_554 S
C269 C106 0.943 . S
C275 C117 0.943 . S
C289 C31 1.493 . S
C295 C1 1.497 . S
C309 C10 1.494 1_455 S
C315 C40 1.503 1_655 S
C329 C91 1.498 . S
C335 C61 1.493 . S
C349 C100 1.495 . S
C355 C70 1.502 . S
