# Generated by pormake.
# Topology qtz-e, (6)-cn, num edge types: 1
# Building blocks:
#     Node 0, Type 0, BuildingBlock: UKALOJ_clean_sbu_0, # of connection points: 6
#     Node 1, Type 0, BuildingBlock: UKALOJ_clean_sbu_0, # of connection points: 6
#     Node 2, Type 0, BuildingBlock: UKALOJ_clean_sbu_0, # of connection points: 6
#     Node 3, Type 0, BuildingBlock: UKALOJ_clean_sbu_0, # of connection points: 6
#     Node 4, Type 0, BuildingBlock: UKALOJ_clean_sbu_0, # of connection points: 6
#     Node 5, Type 0, BuildingBlock: UKALOJ_clean_sbu_0, # of connection points: 6
#     Edge 6, Type (0, 0), BuildingBlock: EZIPEK_clean_linker_0, # of connection points: 2
#     Edge 7, Type (0, 0), BuildingBlock: EZIPEK_clean_linker_0, # of connection points: 2
#     Edge 8, Type (0, 0), BuildingBlock: EZIPEK_clean_linker_0, # of connection points: 2
#     Edge 9, Type (0, 0), BuildingBlock: EZIPEK_clean_linker_0, # of connection points: 2
#     Edge 10, Type (0, 0), BuildingBlock: EZIPEK_clean_linker_0, # of connection points: 2
#     Edge 11, Type (0, 0), BuildingBlock: EZIPEK_clean_linker_0, # of connection points: 2
#     Edge 12, Type (0, 0), BuildingBlock: EZIPEK_clean_linker_0, # of connection points: 2
#     Edge 13, Type (0, 0), BuildingBlock: EZIPEK_clean_linker_0, # of connection points: 2
#     Edge 14, Type (0, 0), BuildingBlock: EZIPEK_clean_linker_0, # of connection points: 2
#     Edge 15, Type (0, 0), BuildingBlock: EZIPEK_clean_linker_0, # of connection points: 2
#     Edge 16, Type (0, 0), BuildingBlock: EZIPEK_clean_linker_0, # of connection points: 2
#     Edge 17, Type (0, 0), BuildingBlock: EZIPEK_clean_linker_0, # of connection points: 2
#     Edge 18, Type (0, 0), BuildingBlock: EZIPEK_clean_linker_0, # of connection points: 2
#     Edge 19, Type (0, 0), BuildingBlock: EZIPEK_clean_linker_0, # of connection points: 2
#     Edge 20, Type (0, 0), BuildingBlock: EZIPEK_clean_linker_0, # of connection points: 2
#     Edge 21, Type (0, 0), BuildingBlock: EZIPEK_clean_linker_0, # of connection points: 2
#     Edge 22, Type (0, 0), BuildingBlock: EZIPEK_clean_linker_0, # of connection points: 2
#     Edge 23, Type (0, 0), BuildingBlock: EZIPEK_clean_linker_0, # of connection points: 2
# Relax obj value: 0.489
# Max RMSD: 0.268
# Mean RMSD: 0.268
data_MOF--net-qtz-e--node1-UKALOJ_clean_sbu_0--edge1-EZIPEK_clean_linker_0
_symmetry_space_group_name_H-M    P1
_symmetry_Int_Tables_number       1
_symmetry_cell_setting            triclinic
loop_
_symmetry_equiv_pos_as_xyz
'x, y, z'
_cell_length_a     20.653816
_cell_length_b     20.457563
_cell_length_c     29.889281
_cell_angle_alpha  90.293039
_cell_angle_beta   89.716116
_cell_angle_gamma 119.97165
loop_
_atom_site_label
_atom_site_type_symbol
_atom_site_fract_x
_atom_site_fract_y
_atom_site_fract_z
_atom_type_partial_charge
Zn0 Zn 0.20909 0.49491 -0.00962 0.0
O1 O 0.1121 0.49277 -0.00852 0.0
C2 C 0.13704 0.35778 0.05 0.0
Zn3 Zn 0.16148 0.38654 0.95297 0.0
C4 C 0.05551 0.44619 0.96946 0.0
O5 O 0.05693 0.39265 0.9476 0.0
C6 C 0.3218 0.45035 0.97581 0.0
O7 O 0.20048 0.45037 0.89598 0.0
O8 O 0.23386 0.5567 0.93089 0.0
N9 N 0.1221 0.28599 0.91588 0.0
C10 C 0.14767 0.27316 0.87683 0.0
C11 C 0.08748 0.16729 0.90967 0.0
N12 N 0.08369 0.21948 0.93574 0.0
N13 N 0.1276 0.19957 0.87239 0.0
C14 C 0.25029 0.62195 0.06148 0.0
C15 C 0.36734 0.68907 0.04844 0.0
N16 N 0.26445 0.59418 0.02426 0.0
N17 N 0.3369 0.63733 0.01566 0.0
N18 N 0.31385 0.68005 0.07753 0.0
H19 H 0.12934 0.55872 0.06065 0.0
H20 H 0.16997 0.63899 0.09757 0.0
H21 H 0.17297 0.55638 0.1126 0.0
C22 C 0.17583 0.59165 0.08388 0.0
C23 C 0.19703 0.33293 0.84405 0.0
H24 H 0.16796 0.36251 0.83192 0.0
H25 H 0.21022 0.30876 0.81444 0.0
H26 H 0.24992 0.37408 0.86037 0.0
O27 O 0.26915 0.3888 0.95988 0.0
O28 O 0.30783 0.50023 -0.0112 0.0
C29 C 0.22524 0.5207 0.89478 0.0
O30 O 0.17977 0.42936 0.05107 0.0
O31 O 0.12 0.3243 0.01236 0.0
Zn32 Zn 0.8308 0.19885 0.30374 0.0
O33 O 0.8034 0.25806 0.25942 0.0
C34 C 0.94368 0.35233 0.33732 0.0
Zn35 Zn 0.79107 0.241 0.35969 0.0
C36 C 0.77392 0.29605 0.27295 0.0
O37 O 0.76194 0.29906 0.31429 0.0
C38 C 0.84205 0.1372 0.39272 0.0
O39 O 0.68592 0.15043 0.35126 0.0
O40 O 0.71713 0.10234 0.29489 0.0
N41 N 0.75861 0.28366 0.40959 0.0
C42 C 0.7134 0.25095 0.44469 0.0
C43 C 0.75922 0.37007 0.4516 0.0
N44 N 0.78735 0.35764 0.41389 0.0
N45 N 0.71299 0.30376 0.47126 0.0
C46 C 0.89902 0.18834 0.21164 0.0
C47 C 0.97354 0.15231 0.23454 0.0
N48 N 0.87973 0.16557 0.25441 0.0
N49 N 0.92534 0.14169 0.26802 0.0
N50 N 0.95872 0.18224 0.19876 0.0
H51 H 0.80145 0.18996 0.18874 0.0
H52 H 0.87334 0.21504 0.14685 0.0
H53 H 0.886 0.28111 0.1903 0.0
C54 C 0.86262 0.22037 0.18274 0.0
C55 C 0.66724 0.16763 0.45236 0.0
H56 H 0.6096 0.14823 0.44056 0.0
H57 H 0.6639 0.15418 0.48845 0.0
H58 H 0.69021 0.13651 0.43431 0.0
O59 O 0.81772 0.17986 0.4063 0.0
O60 O 0.85676 0.13706 0.3514 0.0
C61 C 0.66665 0.10137 0.32045 0.0
O62 O 0.93862 0.30147 0.31048 0.0
O63 O 0.89283 0.33537 0.36594 0.0
Zn64 Zn 0.50553 0.70388 0.64339 0.0
O65 O 0.52016 0.61611 0.65126 0.0
C66 C 0.63522 0.78529 0.7075 0.0
Zn67 Zn 0.61519 0.76916 0.61056 0.0
C68 C 0.57282 0.61069 0.63345 0.0
O69 O 0.62459 0.66628 0.61159 0.0
C70 C 0.5331 0.8549 0.62492 0.0
O71 O 0.55974 0.72978 0.55016 0.0
O72 O 0.45347 0.65631 0.58283 0.0
N73 N 0.712 0.83421 0.57368 0.0
C74 C 0.72162 0.88318 0.54054 0.0
C75 C 0.82658 0.88917 0.55011 0.0
N76 N 0.77741 0.83798 0.57949 0.0
N77 N 0.79261 0.91845 0.52558 0.0
C78 C 0.37685 0.6193 0.71105 0.0
C79 C 0.29501 0.64159 0.68292 0.0
N80 N 0.40297 0.65162 0.67125 0.0
N81 N 0.35123 0.66369 0.65328 0.0
N82 N 0.31034 0.61386 0.71942 0.0
H83 H 0.44891 0.57458 0.72468 0.0
H84 H 0.37835 0.55351 0.76667 0.0
H85 H 0.45671 0.64758 0.76285 0.0
C86 C 0.41777 0.59724 0.74311 0.0
C87 C 0.66321 0.89998 0.52317 0.0
H88 H 0.665 0.90234 0.48611 0.0
H89 H 0.67596 0.95646 0.53546 0.0
H90 H 0.60599 0.85819 0.53332 0.0
O91 O 0.5981 0.86824 0.61363 0.0
O92 O 0.48528 0.78949 0.63618 0.0
C93 C 0.4929 0.6765 0.54764 0.0
O94 O 0.56366 0.75046 0.70605 0.0
O95 O 0.67224 0.80232 0.67119 0.0
Zn96 Zn 0.75585 0.57646 0.02464 0.0
O97 O 0.85291 0.57154 0.01828 0.0
C98 C 0.84869 0.73158 0.05837 0.0
Zn99 Zn 0.79478 0.65718 0.96834 0.0
C100 C 0.90199 0.60501 -0.01195 0.0
O101 O 0.89563 0.65067 0.96188 0.0
C102 C 0.63811 0.6065 -0.00177 0.0
O103 O 0.74428 0.56646 0.92304 0.0
O104 O 0.70706 0.48778 0.97975 0.0
N105 N 0.8237 0.73874 0.91932 0.0
C106 C 0.80397 0.73358 0.87588 0.0
C107 C 0.82624 0.84147 0.89896 0.0
N108 N 0.83899 0.80666 0.9331 0.0
N109 N 0.80349 0.79655 0.8626 0.0
C110 C 0.74893 0.48922 0.10943 0.0
C111 C 0.63111 0.41772 0.1177 0.0
N112 N 0.71568 0.50223 0.07499 0.0
N113 N 0.6425 0.45828 0.08027 0.0
N114 N 0.69724 0.43672 0.13646 0.0
H115 H 0.85068 0.491 0.09628 0.0
H116 H 0.84667 0.52495 0.15099 0.0
H117 H 0.86058 0.58348 0.103 0.0
C118 C 0.83157 0.52476 0.11546 0.0
C119 C 0.78194 0.66605 0.84659 0.0
H120 H 0.81577 0.63938 0.85486 0.0
H121 H 0.79052 0.68278 0.81082 0.0
H122 H 0.72197 0.62444 0.85141 0.0
O123 O 0.68844 0.65404 0.97233 0.0
O124 O 0.65639 0.57548 0.02803 0.0
C125 C 0.71097 0.49946 0.93806 0.0
O126 O 0.80804 0.66413 0.07131 0.0
O127 O 0.84904 0.74689 0.01713 0.0
Zn128 Zn 0.25041 0.80131 0.33946 0.0
O129 O 0.34175 0.90014 0.33305 0.0
C130 C 0.17858 0.87755 0.38651 0.0
Zn131 Zn 0.19415 0.83982 0.29261 0.0
C132 C 0.35331 0.95558 0.30944 0.0
O133 O 0.2993 0.95192 0.28653 0.0
C134 C 0.1041 0.67639 0.32452 0.0
O135 O 0.23151 0.80245 0.2399 0.0
O136 O 0.28758 0.76222 0.28512 0.0
N137 N 0.13597 0.87063 0.24889 0.0
C138 C 0.08669 0.83206 0.21594 0.0
C139 C 0.09505 0.94009 0.22005 0.0
N140 N 0.14095 0.93776 0.25128 0.0
N141 N 0.06011 0.87413 0.19765 0.0
C142 C 0.31948 0.71715 0.38462 0.0
C143 C 0.37025 0.78768 0.44161 0.0
N144 N 0.30594 0.77482 0.3826 0.0
N145 N 0.33742 0.81863 0.4179 0.0
N146 N 0.35938 0.72423 0.42129 0.0
H147 H 0.2376 0.63547 0.33961 0.0
H148 H 0.29856 0.6065 0.36464 0.0
H149 H 0.33321 0.67655 0.32136 0.0
C150 C 0.29542 0.65504 0.35078 0.0
C151 C 0.06296 0.75265 0.20218 0.0
H152 H 0.11222 0.7453 0.19865 0.0
H153 H 0.03229 0.73749 0.16999 0.0
H154 H 0.02529 0.71325 0.22808 0.0
O155 O 0.09714 0.72322 0.29951 0.0
O156 O 0.16236 0.69901 0.34737 0.0
C157 C 0.27078 0.77158 0.24581 0.0
O158 O 0.21554 0.84422 0.39317 0.0
O159 O 0.15769 0.88095 0.34713 0.0
Zn160 Zn 0.35648 0.14048 0.65279 0.0
O161 O 0.4407 0.16813 0.60553 0.0
C162 C 0.39533 0.02364 0.6774 0.0
Zn163 Zn 0.44309 0.18037 0.70407 0.0
C164 C 0.5091 0.207 0.61609 0.0
O165 O 0.52772 0.2231 0.65668 0.0
C166 C 0.29344 0.12822 0.7446 0.0
O167 O 0.44871 0.28586 0.70427 0.0
O168 O 0.37648 0.25249 0.64564 0.0
N169 N 0.51851 0.20768 0.75358 0.0
C170 C 0.5665 0.27338 0.77309 0.0
C171 C 0.56258 0.1858 0.81347 0.0
N172 N 0.51737 0.1533 0.77816 0.0
N173 N 0.59311 0.26111 0.81105 0.0
C174 C 0.27262 0.06569 0.56463 0.0
C175 C 0.16947 0.06499 0.57161 0.0
N176 N 0.27593 0.10089 0.60358 0.0
N177 N 0.21172 0.10039 0.60783 0.0
N178 N 0.20679 0.04275 0.5442 0.0
H179 H 0.36376 0.04361 0.57294 0.0
H180 H 0.37381 0.10493 0.52739 0.0
H181 H 0.3109 0.00516 0.52246 0.0
C182 C 0.3335 0.05366 0.546 0.0
C183 C 0.58518 0.34974 0.75675 0.0
H184 H 0.58184 0.35043 0.71979 0.0
H185 H 0.64241 0.39285 0.76707 0.0
H186 H 0.54586 0.3647 0.77259 0.0
O187 O 0.3583 0.13985 0.75359 0.0
O188 O 0.27381 0.12102 0.70368 0.0
C189 C 0.42024 0.30405 0.67244 0.0
O190 O 0.34388 0.02874 0.65724 0.0
O191 O 0.44129 0.07945 0.70036 0.0
C192 C 0.287 0.67804 0.19949 0.0
C193 C 0.30033 0.75234 0.20625 0.0
C194 C 0.33921 0.78428 0.12843 0.0
C195 C 0.32479 0.71012 0.12179 0.0
N196 N 0.31157 0.59588 0.15263 0.0
N197 N 0.36248 0.88208 0.18211 0.0
C198 C 0.30861 0.66057 0.15827 0.0
C199 C 0.33449 0.8076 0.17225 0.0
N200 N 0.24806 0.62275 0.23024 0.0
N201 N 0.35299 0.83061 0.09262 0.0
H202 H 0.36144 0.90034 0.21455 0.0
H203 H 0.39322 0.92538 0.15948 0.0
H204 H 0.35737 0.81466 0.06005 0.0
H205 H 0.35544 0.88263 0.09493 0.0
H206 H 0.2302 0.566 0.22434 0.0
H207 H 0.2273 0.63215 0.25988 0.0
H208 H 0.30545 0.55996 0.17893 0.0
H209 H 0.32748 0.58254 0.12226 0.0
C210 C 0.5556 0.27733 0.5447 0.0
C211 C 0.56594 0.23863 0.58082 0.0
C212 C 0.68528 0.26443 0.54922 0.0
C213 C 0.66825 0.29117 0.51014 0.0
N214 N 0.58324 0.31384 0.46722 0.0
N215 N 0.63551 0.18537 0.61456 0.0
C216 C 0.60254 0.29564 0.50695 0.0
C217 C 0.62993 0.23011 0.58276 0.0
N218 N 0.5028 0.29884 0.54701 0.0
N219 N 0.75394 0.27071 0.55345 0.0
H220 H 0.59419 0.15586 0.63847 0.0
H221 H 0.67772 0.1716 0.61459 0.0
H222 H 0.79485 0.29513 0.52862 0.0
H223 H 0.77226 0.25798 0.58281 0.0
H224 H 0.49826 0.33354 0.52333 0.0
H225 H 0.46885 0.28892 0.5749 0.0
H226 H 0.53142 0.30943 0.46171 0.0
H227 H 0.61655 0.32737 0.43862 0.0
C228 C 0.30471 0.62622 0.84157 0.0
C229 C 0.23823 0.5573 0.85084 0.0
C230 C 0.2092 0.53603 0.7712 0.0
C231 C 0.27614 0.60307 0.76231 0.0
N232 N 0.37198 0.72503 0.78709 0.0
N233 N 0.11488 0.46282 0.82593 0.0
C234 C 0.31784 0.65315 0.79715 0.0
C235 C 0.18612 0.5177 0.81605 0.0
N236 N 0.35831 0.66229 0.87351 0.0
N237 N 0.17049 0.48778 0.73708 0.0
H238 H 0.0961 0.44849 0.85868 0.0
H239 H 0.07307 0.43697 0.80193 0.0
H240 H 0.18614 0.50074 0.70364 0.0
H241 H 0.12589 0.43341 0.74225 0.0
H242 H 0.41085 0.70818 0.86644 0.0
H243 H 0.35379 0.64295 0.90613 0.0
H244 H 0.40079 0.76618 0.81135 0.0
H245 H 0.38222 0.74499 0.75425 0.0
C246 C 0.70771 0.28856 0.20245 0.0
C247 C 0.74877 0.3315 0.24009 0.0
C248 C 0.73987 0.4389 0.21305 0.0
C249 C 0.70985 0.39945 0.17263 0.0
N250 N 0.67869 0.29259 0.1249 0.0
N251 N 0.81476 0.45225 0.27802 0.0
C252 C 0.6973 0.32576 0.16617 0.0
C253 C 0.76742 0.408 0.24495 0.0
N254 N 0.67612 0.21194 0.20203 0.0
N255 N 0.74241 0.50603 0.22045 0.0
H256 H 0.83884 0.43275 0.30107 0.0
H257 H 0.83585 0.51027 0.27996 0.0
H258 H 0.72294 0.52975 0.19699 0.0
H259 H 0.75776 0.53447 0.25099 0.0
H260 H 0.63998 0.17775 0.17696 0.0
H261 H 0.67937 0.18224 0.22923 0.0
H262 H 0.6766 0.2417 0.11755 0.0
H263 H 0.67259 0.31928 0.09694 0.0
C264 C 0.50009 0.68401 0.46474 0.0
C265 C 0.45889 0.64702 0.50344 0.0
C266 C 0.34332 0.62013 0.46803 0.0
C267 C 0.38706 0.6775 0.43706 0.0
N268 N 0.50246 0.75184 0.39779 0.0
N269 N 0.34369 0.54255 0.52935 0.0
C270 C 0.46399 0.70335 0.43174 0.0
C271 C 0.38066 0.60138 0.50056 0.0
N272 N 0.57282 0.70154 0.46079 0.0
N273 N 0.26769 0.59009 0.46877 0.0
H274 H 0.37279 0.52775 0.55183 0.0
H275 H 0.28644 0.50488 0.52788 0.0
H276 H 0.24008 0.60378 0.44464 0.0
H277 H 0.23305 0.55352 0.4935 0.0
H278 H 0.60566 0.72687 0.43265 0.0
H279 H 0.59744 0.68356 0.48456 0.0
H280 H 0.56039 0.77957 0.39457 0.0
H281 H 0.47515 0.76516 0.37324 0.0
C282 C 0.60327 0.38107 0.90837 0.0
C283 C 0.68082 0.43471 0.90736 0.0
C284 C 0.70102 0.36599 0.84679 0.0
C285 C 0.62386 0.31358 0.84719 0.0
N286 N 0.50072 0.26493 0.87866 0.0
N287 N 0.80575 0.47293 0.88197 0.0
C288 C 0.57477 0.31895 0.87841 0.0
C289 C 0.73043 0.42576 0.87827 0.0
N290 N 0.5568 0.39147 0.93664 0.0
N291 N 0.74514 0.35932 0.81494 0.0
H292 H 0.82912 0.51698 0.90498 0.0
H293 H 0.84551 0.46588 0.86456 0.0
H294 H 0.72466 0.31366 0.79283 0.0
H295 H 0.80052 0.39987 0.80881 0.0
H296 H 0.4988 0.35959 0.93611 0.0
H297 H 0.57587 0.43482 0.96016 0.0
H298 H 0.46256 0.26035 0.90298 0.0
H299 H 0.47682 0.22163 0.85514 0.0
C300 C 0.43245 0.49827 0.02373 0.0
C301 C 0.40048 0.4697 0.9812 0.0
C302 C 0.52485 0.53678 0.94721 0.0
C303 C 0.55647 0.57209 -0.01071 0.0
N304 N 0.53597 0.59647 0.06542 0.0
N305 N 0.41655 0.45764 0.90246 0.0
C306 C 0.50871 0.5554 0.02695 0.0
C307 C 0.44679 0.48778 0.94313 0.0
N308 N 0.38883 0.47033 0.06109 0.0
N309 N 0.56701 0.54606 0.91017 0.0
H310 H 0.36026 0.41778 0.8986 0.0
H311 H 0.44828 0.47084 0.87314 0.0
H312 H 0.62487 0.57909 0.90864 0.0
H313 H 0.62487 0.57909 0.90864 0.0
H314 H 0.40948 0.48381 0.09357 0.0
H315 H 0.33295 0.42756 0.05924 0.0
H316 H 0.5026 0.59197 0.09278 0.0
H317 H 0.59093 0.64088 0.06812 0.0
C318 C 0.03748 0.55685 0.36684 0.0
C319 C 0.05271 0.59336 0.32472 0.0
C320 C 0.00129 0.46971 0.28805 0.0
C321 C -0.00449 0.43473 0.33033 0.0
N322 N 0.02762 0.4512 0.40851 0.0
N323 N 0.0678 0.5841 0.24498 0.0
C324 C 0.02023 0.48061 0.36921 0.0
C325 C 0.03983 0.54984 0.28515 0.0
N326 N 0.03925 0.59527 0.40474 0.0
N327 N 0.96721 0.42792 0.25081 0.0
H328 H 0.09869 0.64232 0.2412 0.0
H329 H 0.06672 0.55428 0.21631 0.0
H330 H 0.93898 0.36951 0.24989 0.0
H331 H 0.96248 0.45199 0.22121 0.0
H332 H 0.02277 0.56973 0.43601 0.0
H333 H 0.04951 0.65063 0.4038 0.0
H334 H 0.0513 0.48381 0.4371 0.0
H335 H 0.01764 0.396 0.41083 0.0
C336 C 0.46999 0.96172 0.69501 0.0
C337 C 0.4168 0.96516 0.66662 0.0
C338 C 0.45443 0.91011 0.60557 0.0
C339 C 0.51148 0.91272 0.633 0.0
N340 N 0.58091 0.95013 0.70158 0.0
N341 N 0.33785 0.91168 0.60215 0.0
C342 C 0.52161 0.9418 0.67701 0.0
C343 C 0.40318 0.93099 0.62364 0.0
N344 N 0.46733 0.97289 0.73994 0.0
N345 N 0.4498 0.88748 0.56205 0.0
H346 H 0.29476 0.9161 0.61744 0.0
H347 H 0.32204 0.88227 0.57198 0.0
H348 H 0.48728 0.87246 0.54848 0.0
H349 H 0.41413 0.89032 0.53865 0.0
H350 H 0.50005 0.96531 0.76341 0.0
H351 H 0.42566 0.98119 0.75413 0.0
H352 H 0.59564 0.97703 0.73257 0.0
H353 H 0.61973 0.93638 0.68881 0.0
C354 C 0.56102 0.50958 0.67999 0.0
C355 C 0.56336 0.53465 0.63595 0.0
C356 C 0.45675 0.4108 0.61631 0.0
C357 C 0.45406 0.3863 0.66121 0.0
N358 N 0.47997 0.42711 0.73775 0.0
N359 N 0.52635 0.50602 0.55954 0.0
C360 C 0.49998 0.4398 0.69374 0.0
C361 C 0.51586 0.48338 0.60313 0.0
N362 N 0.61598 0.55488 0.70913 0.0
N363 N 0.39869 0.36913 0.58794 0.0
H364 H 0.56918 0.5595 0.55018 0.0
H365 H 0.49804 0.47043 0.53281 0.0
H366 H 0.34866 0.32322 0.59873 0.0
H367 H 0.39528 0.3858 0.55562 0.0
H368 H 0.62027 0.53764 0.74122 0.0
H369 H 0.66036 0.60707 0.69909 0.0
H370 H 0.50735 0.46738 0.76271 0.0
H371 H 0.43073 0.37948 0.74813 0.0
C372 C 0.97675 0.47992 0.01236 0.0
C373 C 0.99316 0.4624 0.96968 0.0
C374 C 0.97034 0.55917 0.93697 0.0
C375 C 0.95591 0.57733 0.98054 0.0
N376 N 0.98105 0.57876 0.05881 0.0
N377 N 0.98416 0.46847 0.89048 0.0
C378 C 0.97001 0.54469 0.01804 0.0
C379 C 0.98366 0.4973 0.93155 0.0
N380 N 0.9692 0.43468 0.0476 0.0
N381 N 0.97599 0.60351 0.90152 0.0
H382 H 0.985 0.41807 0.88751 0.0
H383 H 0.97481 0.48825 0.8606 0.0
H384 H 0.9744 0.6533 0.90529 0.0
H385 H 0.99079 0.59602 0.86937 0.0
H386 H 0.95266 0.4419 0.0794 0.0
H387 H 0.9726 0.38577 0.04311 0.0
H388 H -0.00217 0.56106 0.08691 0.0
H389 H 0.98072 0.62938 0.06279 0.0
C390 C 0.47537 0.03347 0.2697 0.0
C391 C 0.43267 0.01765 0.30939 0.0
C392 C 0.53993 0.03489 0.35303 0.0
C393 C 0.58404 0.05205 0.31385 0.0
N394 N 0.58487 0.04211 0.2335 0.0
N395 N 0.4324 0.0295 0.38923 0.0
C396 C 0.54967 0.04489 0.27155 0.0
C397 C 0.46869 0.02858 0.35115 0.0
N398 N 0.44605 0.04131 0.23074 0.0
N399 N 0.56484 0.01961 0.39162 0.0
H400 H 0.37951 0.0244 0.38807 0.0
H401 H 0.45747 0.04232 0.42067 0.0
H402 H 0.615 0.01881 0.39267 0.0
H403 H 0.53246 -2e-05 0.42056 0.0
H404 H 0.47648 0.06 0.20108 0.0
H405 H 0.39311 0.03598 0.22969 0.0
H406 H 0.5598 0.02996 0.2021 0.0
H407 H 0.63607 0.04377 0.23404 0.0
C408 C 0.28506 0.19431 0.81485 0.0
C409 C 0.2482 0.13831 0.78081 0.0
C410 C 0.12754 0.11868 0.8096 0.0
C411 C 0.16512 0.16996 0.84495 0.0
N412 N 0.27622 0.23557 0.88941 0.0
N413 N 0.13187 0.03453 0.75358 0.0
C414 C 0.24263 0.19975 0.85047 0.0
C415 C 0.16848 0.09651 0.78048 0.0
N416 N 0.35902 0.24782 0.81149 0.0
N417 N 0.05336 0.09299 0.80313 0.0
H418 H 0.15984 0.0144 0.73374 0.0
H419 H 0.07417 0.99869 0.75463 0.0
H420 H 0.02239 0.10733 0.82463 0.0
H421 H 0.02441 0.06214 0.77501 0.0
H422 H 0.38512 0.2931 0.83369 0.0
H423 H 0.39215 0.25452 0.78375 0.0
H424 H 0.33199 0.25333 0.89653 0.0
H425 H 0.24618 0.23995 0.91629 0.0
C426 C 0.04485 0.30545 0.16528 0.0
C427 C 0.01251 0.22632 0.16467 0.0
C428 C 0.08273 0.23757 0.09608 0.0
C429 C 0.10002 0.31406 0.09154 0.0
N430 N 0.07436 0.41098 0.11861 0.0
N431 N -0.00197 0.11482 0.12843 0.0
C432 C 0.07584 0.34602 0.12554 0.0
C433 C 0.03099 0.19151 0.12981 0.0
N434 N 0.04554 0.34197 0.2037 0.0
N435 N 0.11734 0.20972 0.06948 0.0
H436 H 0.96066 0.08047 0.15305 0.0
H437 H 0.00376 0.08567 0.10142 0.0
H438 H 0.15937 0.24321 0.04679 0.0
H439 H 0.11061 0.15614 0.07367 0.0
H440 H 0.07389 0.40073 0.20614 0.0
H441 H 0.02559 0.31372 0.23401 0.0
H442 H 0.05173 0.43244 0.14177 0.0
H443 H 0.08462 0.43651 0.08751 0.0
C444 C 0.86051 0.05213 0.50154 0.0
C445 C 0.82323 0.9744 0.49058 0.0
C446 C 0.80491 0.00306 0.41385 0.0
C447 C 0.84396 0.08172 0.42424 0.0
N448 N 0.92497 0.18132 0.47471 0.0
N449 N 0.77786 0.87728 0.43486 0.0
C450 C 0.87706 0.10632 0.46712 0.0
C451 C 0.80262 0.95083 0.44592 0.0
N452 N 0.87658 0.07369 0.54522 0.0
N453 N 0.76391 0.97705 0.37545 0.0
H454 H 0.7742 0.83804 0.45841 0.0
H455 H 0.76797 0.85733 0.40203 0.0
H456 H 0.75905 0.01168 0.35196 0.0
H457 H 0.72805 0.91997 0.36894 0.0
H458 H 0.89579 0.12868 0.55632 0.0
H459 H 0.86621 0.03513 0.5708 0.0
H460 H 0.95565 0.20214 0.50406 0.0
H461 H 0.93959 0.22201 0.44985 0.0
C462 C 0.6469 0.73629 0.78259 0.0
C463 C 0.67575 0.79525 0.75054 0.0
C464 C 0.79303 0.85822 0.79342 0.0
C465 C 0.75987 0.80198 0.82673 0.0
N466 N 0.64492 0.70825 0.86071 0.0
N467 N 0.77157 0.9225 0.73214 0.0
C468 C 0.68318 0.74827 0.82398 0.0
C469 C 0.74758 0.8597 0.75798 0.0
N470 N 0.59076 0.66573 0.77213 0.0
N471 N 0.8678 0.90852 0.79495 0.0
H472 H 0.73818 0.92677 0.70757 0.0
H473 H 0.82098 0.97281 0.73834 0.0
H474 H 0.90169 0.90846 0.82071 0.0
H475 H 0.89653 0.94607 0.7691 0.0
H476 H 0.57201 0.62043 0.79422 0.0
H477 H 0.57173 0.65026 0.73956 0.0
H478 H 0.58718 0.67184 0.86025 0.0
H479 H 0.66952 0.71862 0.89227 0.0
C480 C 0.93099 0.82303 0.16969 0.0
C481 C 0.00825 0.85426 0.16104 0.0
C482 C 0.98257 0.81871 0.08206 0.0
C483 C 0.90442 0.78699 0.09044 0.0
N484 N 0.80633 0.77534 0.13934 0.0
N485 N 0.10937 0.89973 0.10858 0.0
C486 C 0.87943 0.79482 0.13344 0.0
C487 C 0.0344 0.85853 0.11687 0.0
N488 N 0.90698 0.8173 0.21288 0.0
N489 N 0.00752 0.80545 0.04246 0.0
H490 H 0.14827 0.92766 0.13394 0.0
H491 H 0.13215 0.91186 0.07648 0.0
H492 H 0.97307 0.77641 0.01567 0.0
H493 H 0.06256 0.81846 0.03717 0.0
H494 H 0.85094 0.78764 0.2223 0.0
H495 H 0.94397 0.8388 0.23975 0.0
H496 H 0.78544 0.78505 0.16886 0.0
H497 H 0.768 0.75577 0.11306 0.0
C498 C 0.1438 0.92102 0.50415 0.0
C499 C 0.18163 0.00078 0.50307 0.0
C500 C 0.20572 -0.00013 0.42294 0.0
C501 C 0.16864 0.91956 0.424 0.0
N502 N 0.08661 0.8036 0.46208 0.0
N503 N 0.23305 0.11576 0.46159 0.0
C504 C 0.13233 0.88009 0.46358 0.0
C505 C 0.20669 0.03986 0.46221 0.0
N506 N 0.12268 0.88497 0.5444 0.0
N507 N 0.24498 0.03823 0.38579 0.0
H508 H 0.23554 0.14585 0.49046 0.0
H509 H 0.24606 0.14738 0.43235 0.0
H510 H 0.24672 0.01193 0.35628 0.0
H511 H 0.28049 0.09642 0.38506 0.0
H512 H 0.10271 0.82747 0.54837 0.0
H513 H 0.12919 0.91385 0.57441 0.0
H514 H 0.05367 0.77185 0.48886 0.0
H515 H 0.0764 0.77286 0.43244 0.0
loop_
_geom_bond_atom_site_label_1
_geom_bond_atom_site_label_2
_geom_bond_distance
_geom_bond_site_symmetry_2
_ccdc_geom_bond_type
Zn0 O1 2.055 . S
Zn0 O8 2.046 1_554 S
Zn0 N16 2.036 . S
Zn0 O28 2.053 . S
Zn0 O30 2.066 . S
O1 Zn0 2.055 . S
O1 C4 1.259 1_554 S
C2 O30 1.256 . S
C2 O31 1.244 . S
Zn3 O5 2.046 . S
Zn3 O7 2.055 . S
Zn3 N9 2.036 . S
Zn3 O27 2.066 . S
Zn3 O31 2.053 1_556 S
C4 O1 1.259 1_556 S
C4 O5 1.254 . S
O5 Zn3 2.046 . S
O5 C4 1.254 . S
C6 O27 1.256 1_554 S
C6 O28 1.244 . S
O7 Zn3 2.055 . S
O7 C29 1.259 . S
O8 Zn0 2.046 1_556 S
O8 C29 1.254 . S
N9 Zn3 2.036 . S
N9 C10 1.298 . S
N9 N12 1.398 . S
C10 N9 1.298 . S
C10 N13 1.367 . S
C10 C23 1.481 . S
C11 N12 1.299 . S
C11 N13 1.379 . S
N12 N9 1.398 . S
N12 C11 1.299 . S
N13 C10 1.367 . S
N13 C11 1.379 . S
C14 N16 1.298 . S
C14 N18 1.367 . S
C14 C22 1.481 . S
C15 N17 1.299 . S
C15 N18 1.379 . S
N16 Zn0 2.036 . S
N16 C14 1.298 . S
N16 N17 1.398 . S
N17 C15 1.299 . S
N17 N16 1.398 . S
N18 C14 1.367 . S
N18 C15 1.379 . S
H19 C22 0.980 . S
H20 C22 0.981 . S
H21 C22 0.981 . S
C22 C14 1.481 . S
C22 H19 0.980 . S
C22 H20 0.981 . S
C22 H21 0.981 . S
C23 C10 1.481 . S
C23 H24 0.980 . S
C23 H25 0.981 . S
C23 H26 0.981 . S
H24 C23 0.980 . S
H25 C23 0.981 . S
H26 C23 0.981 . S
O27 Zn3 2.066 . S
O27 C6 1.256 1_556 S
O28 Zn0 2.053 . S
O28 C6 1.244 . S
C29 O7 1.259 . S
C29 O8 1.254 . S
O30 Zn0 2.066 . S
O30 C2 1.256 . S
O31 C2 1.244 . S
O31 Zn3 2.053 1_554 S
Zn32 O33 2.055 . S
Zn32 O40 2.046 . S
Zn32 N48 2.036 . S
Zn32 O60 2.053 . S
Zn32 O62 2.066 . S
O33 Zn32 2.055 . S
O33 C36 1.259 . S
C34 O62 1.256 . S
C34 O63 1.244 . S
Zn35 O37 2.046 . S
Zn35 O39 2.055 . S
Zn35 N41 2.036 . S
Zn35 O59 2.066 . S
Zn35 O63 2.053 . S
C36 O33 1.259 . S
C36 O37 1.254 . S
O37 Zn35 2.046 . S
O37 C36 1.254 . S
C38 O59 1.256 . S
C38 O60 1.244 . S
O39 Zn35 2.055 . S
O39 C61 1.259 . S
O40 Zn32 2.046 . S
O40 C61 1.254 . S
N41 Zn35 2.036 . S
N41 C42 1.298 . S
N41 N44 1.398 . S
C42 N41 1.298 . S
C42 N45 1.367 . S
C42 C55 1.481 . S
C43 N44 1.299 . S
C43 N45 1.379 . S
N44 N41 1.398 . S
N44 C43 1.299 . S
N45 C42 1.367 . S
N45 C43 1.379 . S
C46 N48 1.298 . S
C46 N50 1.367 . S
C46 C54 1.481 . S
C47 N49 1.299 . S
C47 N50 1.379 . S
N48 Zn32 2.036 . S
N48 C46 1.298 . S
N48 N49 1.398 . S
N49 C47 1.299 . S
N49 N48 1.398 . S
N50 C46 1.367 . S
N50 C47 1.379 . S
H51 C54 0.980 . S
H52 C54 0.981 . S
H53 C54 0.981 . S
C54 C46 1.481 . S
C54 H51 0.980 . S
C54 H52 0.981 . S
C54 H53 0.981 . S
C55 C42 1.481 . S
C55 H56 0.980 . S
C55 H57 0.981 . S
C55 H58 0.981 . S
H56 C55 0.980 . S
H57 C55 0.981 . S
H58 C55 0.981 . S
O59 Zn35 2.066 . S
O59 C38 1.256 . S
O60 Zn32 2.053 . S
O60 C38 1.244 . S
C61 O39 1.259 . S
C61 O40 1.254 . S
O62 Zn32 2.066 . S
O62 C34 1.256 . S
O63 C34 1.244 . S
O63 Zn35 2.053 . S
Zn64 O65 2.055 . S
Zn64 O72 2.046 . S
Zn64 N80 2.036 . S
Zn64 O92 2.053 . S
Zn64 O94 2.066 . S
O65 Zn64 2.055 . S
O65 C68 1.259 . S
C66 O94 1.256 . S
C66 O95 1.244 . S
Zn67 O69 2.046 . S
Zn67 O71 2.055 . S
Zn67 N73 2.036 . S
Zn67 O91 2.066 . S
Zn67 O95 2.053 . S
C68 O65 1.259 . S
C68 O69 1.254 . S
O69 Zn67 2.046 . S
O69 C68 1.254 . S
C70 O91 1.256 . S
C70 O92 1.244 . S
O71 Zn67 2.055 . S
O71 C93 1.259 . S
O72 Zn64 2.046 . S
O72 C93 1.254 . S
N73 Zn67 2.036 . S
N73 C74 1.298 . S
N73 N76 1.398 . S
C74 N73 1.298 . S
C74 N77 1.367 . S
C74 C87 1.481 . S
C75 N76 1.299 . S
C75 N77 1.379 . S
N76 N73 1.398 . S
N76 C75 1.299 . S
N77 C74 1.367 . S
N77 C75 1.379 . S
C78 N80 1.298 . S
C78 N82 1.367 . S
C78 C86 1.481 . S
C79 N81 1.299 . S
C79 N82 1.379 . S
N80 Zn64 2.036 . S
N80 C78 1.298 . S
N80 N81 1.398 . S
N81 C79 1.299 . S
N81 N80 1.398 . S
N82 C78 1.367 . S
N82 C79 1.379 . S
H83 C86 0.980 . S
H84 C86 0.981 . S
H85 C86 0.981 . S
C86 C78 1.481 . S
C86 H83 0.980 . S
C86 H84 0.981 . S
C86 H85 0.981 . S
C87 C74 1.481 . S
C87 H88 0.980 . S
C87 H89 0.981 . S
C87 H90 0.981 . S
H88 C87 0.980 . S
H89 C87 0.981 . S
H90 C87 0.981 . S
O91 Zn67 2.066 . S
O91 C70 1.256 . S
O92 Zn64 2.053 . S
O92 C70 1.244 . S
C93 O71 1.259 . S
C93 O72 1.254 . S
O94 Zn64 2.066 . S
O94 C66 1.256 . S
O95 C66 1.244 . S
O95 Zn67 2.053 . S
Zn96 O97 2.055 . S
Zn96 O104 2.046 1_554 S
Zn96 N112 2.036 . S
Zn96 O124 2.053 . S
Zn96 O126 2.066 . S
O97 Zn96 2.055 . S
O97 C100 1.259 1_554 S
C98 O126 1.256 . S
C98 O127 1.244 . S
Zn99 O101 2.046 . S
Zn99 O103 2.055 . S
Zn99 N105 2.036 . S
Zn99 O123 2.066 . S
Zn99 O127 2.053 1_556 S
C100 O97 1.259 1_556 S
C100 O101 1.254 . S
O101 Zn99 2.046 . S
O101 C100 1.254 . S
C102 O123 1.256 1_554 S
C102 O124 1.244 . S
O103 Zn99 2.055 . S
O103 C125 1.259 . S
O104 Zn96 2.046 1_556 S
O104 C125 1.254 . S
N105 Zn99 2.036 . S
N105 C106 1.298 . S
N105 N108 1.398 . S
C106 N105 1.298 . S
C106 N109 1.367 . S
C106 C119 1.481 . S
C107 N108 1.299 . S
C107 N109 1.379 . S
N108 N105 1.398 . S
N108 C107 1.299 . S
N109 C106 1.367 . S
N109 C107 1.379 . S
C110 N112 1.298 . S
C110 N114 1.367 . S
C110 C118 1.481 . S
C111 N113 1.299 . S
C111 N114 1.379 . S
N112 Zn96 2.036 . S
N112 C110 1.298 . S
N112 N113 1.398 . S
N113 C111 1.299 . S
N113 N112 1.398 . S
N114 C110 1.367 . S
N114 C111 1.379 . S
H115 C118 0.980 . S
H116 C118 0.981 . S
H117 C118 0.981 . S
C118 C110 1.481 . S
C118 H115 0.980 . S
C118 H116 0.981 . S
C118 H117 0.981 . S
C119 C106 1.481 . S
C119 H120 0.980 . S
C119 H121 0.981 . S
C119 H122 0.981 . S
H120 C119 0.980 . S
H121 C119 0.981 . S
H122 C119 0.981 . S
O123 Zn99 2.066 . S
O123 C102 1.256 1_556 S
O124 Zn96 2.053 . S
O124 C102 1.244 . S
C125 O103 1.259 . S
C125 O104 1.254 . S
O126 Zn96 2.066 . S
O126 C98 1.256 . S
O127 C98 1.244 . S
O127 Zn99 2.053 1_554 S
Zn128 O129 2.055 . S
Zn128 O136 2.046 . S
Zn128 N144 2.036 . S
Zn128 O156 2.053 . S
Zn128 O158 2.066 . S
O129 Zn128 2.055 . S
O129 C132 1.259 . S
C130 O158 1.256 . S
C130 O159 1.244 . S
Zn131 O133 2.046 . S
Zn131 O135 2.055 . S
Zn131 N137 2.036 . S
Zn131 O155 2.066 . S
Zn131 O159 2.053 . S
C132 O129 1.259 . S
C132 O133 1.254 . S
O133 Zn131 2.046 . S
O133 C132 1.254 . S
C134 O155 1.256 . S
C134 O156 1.244 . S
O135 Zn131 2.055 . S
O135 C157 1.259 . S
O136 Zn128 2.046 . S
O136 C157 1.254 . S
N137 Zn131 2.036 . S
N137 C138 1.298 . S
N137 N140 1.398 . S
C138 N137 1.298 . S
C138 N141 1.367 . S
C138 C151 1.481 . S
C139 N140 1.299 . S
C139 N141 1.379 . S
N140 N137 1.398 . S
N140 C139 1.299 . S
N141 C138 1.367 . S
N141 C139 1.379 . S
C142 N144 1.298 . S
C142 N146 1.367 . S
C142 C150 1.481 . S
C143 N145 1.299 . S
C143 N146 1.379 . S
N144 Zn128 2.036 . S
N144 C142 1.298 . S
N144 N145 1.398 . S
N145 C143 1.299 . S
N145 N144 1.398 . S
N146 C142 1.367 . S
N146 C143 1.379 . S
H147 C150 0.980 . S
H148 C150 0.981 . S
H149 C150 0.981 . S
C150 C142 1.481 . S
C150 H147 0.980 . S
C150 H148 0.981 . S
C150 H149 0.981 . S
C151 C138 1.481 . S
C151 H152 0.980 . S
C151 H153 0.981 . S
C151 H154 0.981 . S
H152 C151 0.980 . S
H153 C151 0.981 . S
H154 C151 0.981 . S
O155 Zn131 2.066 . S
O155 C134 1.256 . S
O156 Zn128 2.053 . S
O156 C134 1.244 . S
C157 O135 1.259 . S
C157 O136 1.254 . S
O158 Zn128 2.066 . S
O158 C130 1.256 . S
O159 C130 1.244 . S
O159 Zn131 2.053 . S
Zn160 O161 2.055 . S
Zn160 O168 2.046 . S
Zn160 N176 2.036 . S
Zn160 O188 2.053 . S
Zn160 O190 2.066 . S
O161 Zn160 2.055 . S
O161 C164 1.259 . S
C162 O190 1.256 . S
C162 O191 1.244 . S
Zn163 O165 2.046 . S
Zn163 O167 2.055 . S
Zn163 N169 2.036 . S
Zn163 O187 2.066 . S
Zn163 O191 2.053 . S
C164 O161 1.259 . S
C164 O165 1.254 . S
O165 Zn163 2.046 . S
O165 C164 1.254 . S
C166 O187 1.256 . S
C166 O188 1.244 . S
O167 Zn163 2.055 . S
O167 C189 1.259 . S
O168 Zn160 2.046 . S
O168 C189 1.254 . S
N169 Zn163 2.036 . S
N169 C170 1.298 . S
N169 N172 1.398 . S
C170 N169 1.298 . S
C170 N173 1.367 . S
C170 C183 1.481 . S
C171 N172 1.299 . S
C171 N173 1.379 . S
N172 N169 1.398 . S
N172 C171 1.299 . S
N173 C170 1.367 . S
N173 C171 1.379 . S
C174 N176 1.298 . S
C174 N178 1.367 . S
C174 C182 1.481 . S
C175 N177 1.299 . S
C175 N178 1.379 . S
N176 Zn160 2.036 . S
N176 C174 1.298 . S
N176 N177 1.398 . S
N177 C175 1.299 . S
N177 N176 1.398 . S
N178 C174 1.367 . S
N178 C175 1.379 . S
H179 C182 0.980 . S
H180 C182 0.981 . S
H181 C182 0.981 . S
C182 C174 1.481 . S
C182 H179 0.980 . S
C182 H180 0.981 . S
C182 H181 0.981 . S
C183 C170 1.481 . S
C183 H184 0.980 . S
C183 H185 0.981 . S
C183 H186 0.981 . S
H184 C183 0.980 . S
H185 C183 0.981 . S
H186 C183 0.981 . S
O187 Zn163 2.066 . S
O187 C166 1.256 . S
O188 Zn160 2.053 . S
O188 C166 1.244 . S
C189 O167 1.259 . S
C189 O168 1.254 . S
O190 Zn160 2.066 . S
O190 C162 1.256 . S
O191 C162 1.244 . S
O191 Zn163 2.053 . S
C192 C193 1.363 . S
C192 C198 1.379 . S
C192 N200 1.356 . S
C193 C192 1.363 . S
C193 C199 1.363 . S
C194 C195 1.363 . S
C194 C199 1.379 . S
C194 N201 1.356 . S
C195 C194 1.363 . S
C195 C198 1.363 . S
N196 C198 1.356 . S
N196 H208 0.984 . S
N196 H209 0.985 . S
N197 C199 1.356 . S
N197 H202 0.984 . S
N197 H203 0.985 . S
C198 C192 1.379 . S
C198 C195 1.363 . S
C198 N196 1.356 . S
C199 C193 1.363 . S
C199 C194 1.379 . S
C199 N197 1.356 . S
N200 C192 1.356 . S
N200 H206 0.984 . S
N200 H207 0.984 . S
N201 C194 1.356 . S
N201 H204 0.984 . S
N201 H205 0.985 . S
H202 N197 0.984 . S
H203 N197 0.985 . S
H204 N201 0.984 . S
H205 N201 0.985 . S
H206 N200 0.984 . S
H207 N200 0.984 . S
H208 N196 0.984 . S
H209 N196 0.985 . S
C210 C211 1.363 . S
C210 C216 1.379 . S
C210 N218 1.356 . S
C211 C210 1.363 . S
C211 C217 1.363 . S
C212 C213 1.363 . S
C212 C217 1.379 . S
C212 N219 1.356 . S
C213 C212 1.363 . S
C213 C216 1.363 . S
N214 C216 1.356 . S
N214 H226 0.984 . S
N214 H227 0.985 . S
N215 C217 1.356 . S
N215 H220 0.984 . S
N215 H221 0.985 . S
C216 C210 1.379 . S
C216 C213 1.363 . S
C216 N214 1.356 . S
C217 C211 1.363 . S
C217 C212 1.379 . S
C217 N215 1.356 . S
N218 C210 1.356 . S
N218 H224 0.984 . S
N218 H225 0.984 . S
N219 C212 1.356 . S
N219 H222 0.984 . S
N219 H223 0.985 . S
H220 N215 0.984 . S
H221 N215 0.985 . S
H222 N219 0.984 . S
H223 N219 0.985 . S
H224 N218 0.984 . S
H225 N218 0.984 . S
H226 N214 0.984 . S
H227 N214 0.985 . S
C228 C229 1.363 . S
C228 C234 1.379 . S
C228 N236 1.356 . S
C229 C228 1.363 . S
C229 C235 1.363 . S
C230 C231 1.363 . S
C230 C235 1.379 . S
C230 N237 1.356 . S
C231 C230 1.363 . S
C231 C234 1.363 . S
N232 C234 1.356 . S
N232 H244 0.984 . S
N232 H245 0.985 . S
N233 C235 1.356 . S
N233 H238 0.984 . S
N233 H239 0.985 . S
C234 C228 1.379 . S
C234 C231 1.363 . S
C234 N232 1.356 . S
C235 C229 1.363 . S
C235 C230 1.379 . S
C235 N233 1.356 . S
N236 C228 1.356 . S
N236 H242 0.984 . S
N236 H243 0.984 . S
N237 C230 1.356 . S
N237 H240 0.984 . S
N237 H241 0.985 . S
H238 N233 0.984 . S
H239 N233 0.985 . S
H240 N237 0.984 . S
H241 N237 0.985 . S
H242 N236 0.984 . S
H243 N236 0.984 . S
H244 N232 0.984 . S
H245 N232 0.985 . S
C246 C247 1.363 . S
C246 C252 1.379 . S
C246 N254 1.356 . S
C247 C246 1.363 . S
C247 C253 1.363 . S
C248 C249 1.363 . S
C248 C253 1.379 . S
C248 N255 1.356 . S
C249 C248 1.363 . S
C249 C252 1.363 . S
N250 C252 1.356 . S
N250 H262 0.984 . S
N250 H263 0.985 . S
N251 C253 1.356 . S
N251 H256 0.984 . S
N251 H257 0.985 . S
C252 C246 1.379 . S
C252 C249 1.363 . S
C252 N250 1.356 . S
C253 C247 1.363 . S
C253 C248 1.379 . S
C253 N251 1.356 . S
N254 C246 1.356 . S
N254 H260 0.984 . S
N254 H261 0.984 . S
N255 C248 1.356 . S
N255 H258 0.984 . S
N255 H259 0.985 . S
H256 N251 0.984 . S
H257 N251 0.985 . S
H258 N255 0.984 . S
H259 N255 0.985 . S
H260 N254 0.984 . S
H261 N254 0.984 . S
H262 N250 0.984 . S
H263 N250 0.985 . S
C264 C265 1.363 . S
C264 C270 1.379 . S
C264 N272 1.356 . S
C265 C264 1.363 . S
C265 C271 1.363 . S
C266 C267 1.363 . S
C266 C271 1.379 . S
C266 N273 1.356 . S
C267 C266 1.363 . S
C267 C270 1.363 . S
N268 C270 1.356 . S
N268 H280 0.984 . S
N268 H281 0.985 . S
N269 C271 1.356 . S
N269 H274 0.984 . S
N269 H275 0.985 . S
C270 C264 1.379 . S
C270 C267 1.363 . S
C270 N268 1.356 . S
C271 C265 1.363 . S
C271 C266 1.379 . S
C271 N269 1.356 . S
N272 C264 1.356 . S
N272 H278 0.984 . S
N272 H279 0.984 . S
N273 C266 1.356 . S
N273 H276 0.984 . S
N273 H277 0.985 . S
H274 N269 0.984 . S
H275 N269 0.985 . S
H276 N273 0.984 . S
H277 N273 0.985 . S
H278 N272 0.984 . S
H279 N272 0.984 . S
H280 N268 0.984 . S
H281 N268 0.985 . S
C282 C283 1.363 . S
C282 C288 1.379 . S
C282 N290 1.356 . S
C283 C282 1.363 . S
C283 C289 1.363 . S
C284 C285 1.363 . S
C284 C289 1.379 . S
C284 N291 1.356 . S
C285 C284 1.363 . S
C285 C288 1.363 . S
N286 C288 1.356 . S
N286 H298 0.984 . S
N286 H299 0.985 . S
N287 C289 1.356 . S
N287 H292 0.984 . S
N287 H293 0.985 . S
C288 C282 1.379 . S
C288 C285 1.363 . S
C288 N286 1.356 . S
C289 C283 1.363 . S
C289 C284 1.379 . S
C289 N287 1.356 . S
N290 C282 1.356 . S
N290 H296 0.984 . S
N290 H297 0.984 . S
N291 C284 1.356 . S
N291 H294 0.984 . S
N291 H295 0.985 . S
H292 N287 0.984 . S
H293 N287 0.985 . S
H294 N291 0.984 . S
H295 N291 0.985 . S
H296 N290 0.984 . S
H297 N290 0.984 . S
H298 N286 0.984 . S
H299 N286 0.985 . S
C300 C301 1.363 . S
C300 C306 1.379 . S
C300 N308 1.356 . S
C301 C300 1.363 . S
C301 C307 1.363 1_554 S
C302 C303 1.363 1_556 S
C302 C307 1.379 . S
C302 N309 1.356 . S
C303 C302 1.363 1_554 S
C303 C306 1.363 . S
N304 C306 1.356 . S
N304 H316 0.984 . S
N304 H317 0.985 . S
N305 C307 1.356 . S
N305 H310 0.984 . S
N305 H311 0.985 . S
C306 C300 1.379 . S
C306 C303 1.363 . S
C306 N304 1.356 . S
C307 C301 1.363 1_556 S
C307 C302 1.379 . S
C307 N305 1.356 . S
N308 C300 1.356 . S
N308 H314 0.984 . S
N308 H315 0.984 . S
N309 C302 1.356 . S
N309 H312 0.984 . S
N309 H313 0.985 . S
H310 N305 0.984 . S
H311 N305 0.985 . S
H312 N309 0.984 . S
H313 N309 0.985 . S
H314 N308 0.984 . S
H315 N308 0.984 . S
H316 N304 0.984 . S
H317 N304 0.985 . S
C318 C319 1.363 . S
C318 C324 1.379 . S
C318 N326 1.356 . S
C319 C318 1.363 . S
C319 C325 1.363 1_455 S
C320 C321 1.363 . S
C320 C325 1.379 . S
C320 N327 1.356 . S
C321 C320 1.363 . S
C321 C324 1.363 1_655 S
N322 C324 1.356 . S
N322 H334 0.984 . S
N322 H335 0.985 . S
N323 C325 1.356 . S
N323 H328 0.984 . S
N323 H329 0.985 . S
C324 C318 1.379 . S
C324 C321 1.363 1_455 S
C324 N322 1.356 . S
C325 C319 1.363 1_655 S
C325 C320 1.379 . S
C325 N323 1.356 . S
N326 C318 1.356 . S
N326 H332 0.984 . S
N326 H333 0.984 . S
N327 C320 1.356 . S
N327 H330 0.984 . S
N327 H331 0.985 . S
H328 N323 0.984 . S
H329 N323 0.985 . S
H330 N327 0.984 . S
H331 N327 0.985 . S
H332 N326 0.984 . S
H333 N326 0.984 . S
H334 N322 0.984 . S
H335 N322 0.985 . S
C336 C337 1.363 . S
C336 C342 1.379 . S
C336 N344 1.356 . S
C337 C336 1.363 . S
C337 C343 1.363 1_545 S
C338 C339 1.363 . S
C338 C343 1.379 . S
C338 N345 1.356 . S
C339 C338 1.363 . S
C339 C342 1.363 1_565 S
N340 C342 1.356 . S
N340 H352 0.984 . S
N340 H353 0.985 . S
N341 C343 1.356 . S
N341 H346 0.984 . S
N341 H347 0.985 . S
C342 C336 1.379 . S
C342 C339 1.363 1_545 S
C342 N340 1.356 . S
C343 C337 1.363 1_565 S
C343 C338 1.379 . S
C343 N341 1.356 . S
N344 C336 1.356 . S
N344 H350 0.984 . S
N344 H351 0.984 . S
N345 C338 1.356 . S
N345 H348 0.984 . S
N345 H349 0.985 . S
H346 N341 0.984 . S
H347 N341 0.985 . S
H348 N345 0.984 . S
H349 N345 0.985 . S
H350 N344 0.984 . S
H351 N344 0.984 . S
H352 N340 0.984 . S
H353 N340 0.985 . S
C354 C355 1.363 . S
C354 C360 1.379 . S
C354 N362 1.356 . S
C355 C354 1.363 . S
C355 C361 1.363 . S
C356 C357 1.363 . S
C356 C361 1.379 . S
C356 N363 1.356 . S
C357 C356 1.363 . S
C357 C360 1.363 . S
N358 C360 1.356 . S
N358 H370 0.984 . S
N358 H371 0.985 . S
N359 C361 1.356 . S
N359 H364 0.984 . S
N359 H365 0.985 . S
C360 C354 1.379 . S
C360 C357 1.363 . S
C360 N358 1.356 . S
C361 C355 1.363 . S
C361 C356 1.379 . S
C361 N359 1.356 . S
N362 C354 1.356 . S
N362 H368 0.984 . S
N362 H369 0.984 . S
N363 C356 1.356 . S
N363 H366 0.984 . S
N363 H367 0.985 . S
H364 N359 0.984 . S
H365 N359 0.985 . S
H366 N363 0.984 . S
H367 N363 0.985 . S
H368 N362 0.984 . S
H369 N362 0.984 . S
H370 N358 0.984 . S
H371 N358 0.985 . S
C372 C373 1.363 1_654 S
C372 C378 1.379 . S
C372 N380 1.356 . S
C373 C372 1.363 1_456 S
C373 C379 1.363 . S
C374 C375 1.363 1_455 S
C374 C379 1.379 . S
C374 N381 1.356 . S
C375 C374 1.363 1_655 S
C375 C378 1.363 1_556 S
N376 C378 1.356 . S
N376 H388 0.984 . S
N376 H389 0.985 . S
N377 C379 1.356 . S
N377 H382 0.984 . S
N377 H383 0.985 . S
C378 C372 1.379 . S
C378 C375 1.363 1_554 S
C378 N376 1.356 . S
C379 C373 1.363 . S
C379 C374 1.379 . S
C379 N377 1.356 . S
N380 C372 1.356 . S
N380 H386 0.984 . S
N380 H387 0.984 . S
N381 C374 1.356 . S
N381 H384 0.984 . S
N381 H385 0.985 . S
H382 N377 0.984 . S
H383 N377 0.985 . S
H384 N381 0.984 . S
H385 N381 0.985 . S
H386 N380 0.984 . S
H387 N380 0.984 . S
H388 N376 0.984 . S
H389 N376 0.985 . S
C390 C391 1.363 . S
C390 C396 1.379 . S
C390 N398 1.356 . S
C391 C390 1.363 . S
C391 C397 1.363 1_565 S
C392 C393 1.363 . S
C392 C397 1.379 . S
C392 N399 1.356 . S
C393 C392 1.363 . S
C393 C396 1.363 1_545 S
N394 C396 1.356 . S
N394 H406 0.984 . S
N394 H407 0.985 . S
N395 C397 1.356 . S
N395 H400 0.984 . S
N395 H401 0.985 . S
C396 C390 1.379 . S
C396 C393 1.363 1_565 S
C396 N394 1.356 . S
C397 C391 1.363 1_545 S
C397 C392 1.379 . S
C397 N395 1.356 . S
N398 C390 1.356 . S
N398 H404 0.984 . S
N398 H405 0.984 . S
N399 C392 1.356 . S
N399 H402 0.984 . S
N399 H403 0.985 . S
H400 N395 0.984 . S
H401 N395 0.985 . S
H402 N399 0.984 . S
H403 N399 0.985 . S
H404 N398 0.984 . S
H405 N398 0.984 . S
H406 N394 0.984 . S
H407 N394 0.985 . S
C408 C409 1.363 . S
C408 C414 1.379 . S
C408 N416 1.356 . S
C409 C408 1.363 . S
C409 C415 1.363 . S
C410 C411 1.363 . S
C410 C415 1.379 . S
C410 N417 1.356 . S
C411 C410 1.363 . S
C411 C414 1.363 . S
N412 C414 1.356 . S
N412 H424 0.984 . S
N412 H425 0.985 . S
N413 C415 1.356 . S
N413 H418 0.984 . S
N413 H419 0.985 . S
C414 C408 1.379 . S
C414 C411 1.363 . S
C414 N412 1.356 . S
C415 C409 1.363 . S
C415 C410 1.379 . S
C415 N413 1.356 . S
N416 C408 1.356 . S
N416 H422 0.984 . S
N416 H423 0.984 . S
N417 C410 1.356 . S
N417 H420 0.984 . S
N417 H421 0.985 . S
H418 N413 0.984 . S
H419 N413 0.985 . S
H420 N417 0.984 . S
H421 N417 0.985 . S
H422 N416 0.984 . S
H423 N416 0.984 . S
H424 N412 0.984 . S
H425 N412 0.985 . S
C426 C427 1.363 . S
C426 C432 1.379 . S
C426 N434 1.356 1_455 S
C427 C426 1.363 . S
C427 C433 1.363 . S
C428 C429 1.363 . S
C428 C433 1.379 . S
C428 N435 1.356 . S
C429 C428 1.363 . S
C429 C432 1.363 . S
N430 C432 1.356 . S
N430 H442 0.984 . S
N430 H443 0.985 . S
N431 C433 1.356 . S
N431 H436 0.984 . S
N431 H437 0.985 . S
C432 C426 1.379 . S
C432 C429 1.363 . S
C432 N430 1.356 . S
C433 C427 1.363 . S
C433 C428 1.379 . S
C433 N431 1.356 . S
N434 C426 1.356 1_655 S
N434 H440 0.984 . S
N434 H441 0.984 . S
N435 C428 1.356 . S
N435 H438 0.984 . S
N435 H439 0.985 . S
H436 N431 0.984 . S
H437 N431 0.985 . S
H438 N435 0.984 . S
H439 N435 0.985 . S
H440 N434 0.984 . S
H441 N434 0.984 . S
H442 N430 0.984 . S
H443 N430 0.985 . S
C444 C445 1.363 . S
C444 C450 1.379 . S
C444 N452 1.356 . S
C445 C444 1.363 . S
C445 C451 1.363 . S
C446 C447 1.363 . S
C446 C451 1.379 . S
C446 N453 1.356 . S
C447 C446 1.363 . S
C447 C450 1.363 . S
N448 C450 1.356 . S
N448 H460 0.984 . S
N448 H461 0.985 . S
N449 C451 1.356 1_565 S
N449 H454 0.984 . S
N449 H455 0.985 . S
C450 C444 1.379 . S
C450 C447 1.363 . S
C450 N448 1.356 . S
C451 C445 1.363 . S
C451 C446 1.379 . S
C451 N449 1.356 1_545 S
N452 C444 1.356 . S
N452 H458 0.984 . S
N452 H459 0.984 . S
N453 C446 1.356 . S
N453 H456 0.984 . S
N453 H457 0.985 . S
H454 N449 0.984 . S
H455 N449 0.985 . S
H456 N453 0.984 . S
H457 N453 0.985 . S
H458 N452 0.984 . S
H459 N452 0.984 . S
H460 N448 0.984 . S
H461 N448 0.985 . S
C462 C463 1.363 . S
C462 C468 1.379 . S
C462 N470 1.356 . S
C463 C462 1.363 . S
C463 C469 1.363 . S
C464 C465 1.363 . S
C464 C469 1.379 . S
C464 N471 1.356 . S
C465 C464 1.363 . S
C465 C468 1.363 . S
N466 C468 1.356 . S
N466 H478 0.984 . S
N466 H479 0.985 . S
N467 C469 1.356 . S
N467 H472 0.984 . S
N467 H473 0.985 . S
C468 C462 1.379 . S
C468 C465 1.363 . S
C468 N466 1.356 . S
C469 C463 1.363 . S
C469 C464 1.379 . S
C469 N467 1.356 . S
N470 C462 1.356 . S
N470 H476 0.984 . S
N470 H477 0.984 . S
N471 C464 1.356 . S
N471 H474 0.984 . S
N471 H475 0.985 . S
H472 N467 0.984 . S
H473 N467 0.985 . S
H474 N471 0.984 . S
H475 N471 0.985 . S
H476 N470 0.984 . S
H477 N470 0.984 . S
H478 N466 0.984 . S
H479 N466 0.985 . S
C480 C481 1.363 . S
C480 C486 1.379 . S
C480 N488 1.356 . S
C481 C480 1.363 . S
C481 C487 1.363 1_655 S
C482 C483 1.363 . S
C482 C487 1.379 1_655 S
C482 N489 1.356 1_655 S
C483 C482 1.363 . S
C483 C486 1.363 . S
N484 C486 1.356 . S
N484 H496 0.984 . S
N484 H497 0.985 . S
N485 C487 1.356 . S
N485 H490 0.984 . S
N485 H491 0.985 . S
C486 C480 1.379 . S
C486 C483 1.363 . S
C486 N484 1.356 . S
C487 C481 1.363 1_455 S
C487 C482 1.379 1_455 S
C487 N485 1.356 . S
N488 C480 1.356 . S
N488 H494 0.984 . S
N488 H495 0.984 . S
N489 C482 1.356 1_455 S
N489 H492 0.984 1_455 S
N489 H493 0.985 . S
H490 N485 0.984 . S
H491 N485 0.985 . S
H492 N489 0.984 1_655 S
H493 N489 0.985 . S
H494 N488 0.984 . S
H495 N488 0.984 . S
H496 N484 0.984 . S
H497 N484 0.985 . S
C498 C499 1.363 . S
C498 C504 1.379 . S
C498 N506 1.356 . S
C499 C498 1.363 . S
C499 C505 1.363 1_565 S
C500 C501 1.363 . S
C500 C505 1.379 1_565 S
C500 N507 1.356 1_565 S
C501 C500 1.363 . S
C501 C504 1.363 . S
N502 C504 1.356 . S
N502 H514 0.984 . S
N502 H515 0.985 . S
N503 C505 1.356 . S
N503 H508 0.984 . S
N503 H509 0.985 . S
C504 C498 1.379 . S
C504 C501 1.363 . S
C504 N502 1.356 . S
C505 C499 1.363 1_545 S
C505 C500 1.379 1_545 S
C505 N503 1.356 . S
N506 C498 1.356 . S
N506 H512 0.984 . S
N506 H513 0.984 . S
N507 C500 1.356 1_545 S
N507 H510 0.984 1_545 S
N507 H511 0.985 . S
H508 N503 0.984 . S
H509 N503 0.985 . S
H510 N507 0.984 1_565 S
H511 N507 0.985 . S
H512 N506 0.984 . S
H513 N506 0.984 . S
H514 N502 0.984 . S
H515 N502 0.985 . S
C193 C157 0.869 . S
C195 N18 0.874 . S
C211 C164 0.869 . S
C213 N45 0.874 . S
C229 C29 0.869 . S
C231 N82 0.874 . S
C247 C36 0.869 . S
C249 N114 0.874 . S
C265 C93 0.869 . S
C267 N146 0.874 . S
C283 C125 0.869 . S
C285 N173 0.874 . S
C301 C6 1.817 . S
C303 C102 1.817 . S
C319 C134 1.817 . S
C321 C34 1.817 . S
C337 C162 1.817 . S
C339 C70 1.817 . S
C355 C68 1.744 . S
C357 C189 1.744 . S
C373 C4 1.744 . S
C375 C100 1.744 . S
C391 C132 1.744 . S
C393 C61 1.744 . S
C409 C166 1.266 . S
C411 N13 1.225 . S
C427 N50 1.225 1_455 S
C429 C2 1.266 . S
C445 N77 1.225 1_545 S
C447 C38 1.266 . S
C463 C66 1.266 . S
C465 N109 1.225 . S
C481 N141 1.225 1_655 S
C483 C98 1.266 . S
C499 N178 1.225 1_565 S
C501 C130 1.266 . S
