# Generated by pormake.
# Topology mdf, (4)-cn, num edge types: 1
# Building blocks:
#     Node 0, Type 0, BuildingBlock: ICAMEG_clean_sbu_1, # of connection points: 4
#     Node 1, Type 0, BuildingBlock: ICAMEG_clean_sbu_1, # of connection points: 4
#     Node 2, Type 0, BuildingBlock: ICAMEG_clean_sbu_1, # of connection points: 4
#     Node 3, Type 0, BuildingBlock: ICAMEG_clean_sbu_1, # of connection points: 4
#     Node 4, Type 0, BuildingBlock: ICAMEG_clean_sbu_1, # of connection points: 4
#     Node 5, Type 0, BuildingBlock: ICAMEG_clean_sbu_1, # of connection points: 4
#     Node 6, Type 0, BuildingBlock: ICAMEG_clean_sbu_1, # of connection points: 4
#     Node 7, Type 0, BuildingBlock: ICAMEG_clean_sbu_1, # of connection points: 4
#     Edge 8, Type (0, 0), BuildingBlock: EYOCIG_clean_linker_4, # of connection points: 2
#     Edge 9, Type (0, 0), BuildingBlock: EYOCIG_clean_linker_4, # of connection points: 2
#     Edge 10, Type (0, 0), BuildingBlock: EYOCIG_clean_linker_4, # of connection points: 2
#     Edge 11, Type (0, 0), BuildingBlock: EYOCIG_clean_linker_4, # of connection points: 2
#     Edge 12, Type (0, 0), BuildingBlock: EYOCIG_clean_linker_4, # of connection points: 2
#     Edge 13, Type (0, 0), BuildingBlock: EYOCIG_clean_linker_4, # of connection points: 2
#     Edge 14, Type (0, 0), BuildingBlock: EYOCIG_clean_linker_4, # of connection points: 2
#     Edge 15, Type (0, 0), BuildingBlock: EYOCIG_clean_linker_4, # of connection points: 2
#     Edge 16, Type (0, 0), BuildingBlock: EYOCIG_clean_linker_4, # of connection points: 2
#     Edge 17, Type (0, 0), BuildingBlock: EYOCIG_clean_linker_4, # of connection points: 2
#     Edge 18, Type (0, 0), BuildingBlock: EYOCIG_clean_linker_4, # of connection points: 2
#     Edge 19, Type (0, 0), BuildingBlock: EYOCIG_clean_linker_4, # of connection points: 2
#     Edge 20, Type (0, 0), BuildingBlock: EYOCIG_clean_linker_4, # of connection points: 2
#     Edge 21, Type (0, 0), BuildingBlock: EYOCIG_clean_linker_4, # of connection points: 2
#     Edge 22, Type (0, 0), BuildingBlock: EYOCIG_clean_linker_4, # of connection points: 2
#     Edge 23, Type (0, 0), BuildingBlock: EYOCIG_clean_linker_4, # of connection points: 2
# Relax obj value: 0.008
# Max RMSD: 0.047
# Mean RMSD: 0.046
data_MOF--net-mdf--node1-ICAMEG_clean_sbu_1--edge1-EYOCIG_clean_linker_4
_symmetry_space_group_name_H-M    P1
_symmetry_Int_Tables_number       1
_symmetry_cell_setting            triclinic
loop_
_symmetry_equiv_pos_as_xyz
'x, y, z'
_cell_length_a     32.830833
_cell_length_b     32.828294
_cell_length_c     10.053252
_cell_angle_alpha  90.258617
_cell_angle_beta   90.273098
_cell_angle_gamma 89.983523
loop_
_atom_site_label
_atom_site_type_symbol
_atom_site_fract_x
_atom_site_fract_y
_atom_site_fract_z
_atom_type_partial_charge
Co0 Co 0.24787 0.51059 0.48689 0.0
Co1 Co 0.27443 0.51012 0.15517 0.0
O2 O 0.26093 0.53818 0.32079 0.0
C3 C 0.19846 0.58739 0.49525 0.0
O4 O 0.22606 0.60605 0.42398 0.0
C5 C 0.32368 0.58729 0.14803 0.0
O6 O 0.29678 0.60584 0.22292 0.0
O7 O 0.31413 0.47377 0.24661 0.0
O8 O 0.29291 0.47051 0.45878 0.0
H9 H 0.30464 0.38264 0.89975 0.0
H10 H 0.24653 0.57632 0.7063 0.0
O11 O 0.20137 0.54945 0.51896 0.0
H12 H 0.38107 0.58474 0.49896 0.0
H13 H 0.17554 0.49164 0.92823 0.0
H14 H 0.25102 0.42438 0.56861 0.0
H15 H 0.33365 0.53188 0.43237 0.0
H16 H 0.20357 0.53172 0.74899 0.0
O17 O 0.32026 0.54951 0.12135 0.0
H18 H 0.27474 0.42345 0.07747 0.0
H19 H 0.31534 0.53165 0.8887 0.0
H20 H 0.22253 0.38349 0.74687 0.0
H21 H 0.29295 0.63084 0.77244 0.0
H22 H 0.18448 0.41683 0.92978 0.0
H23 H 0.36014 0.63637 0.66416 0.0
O24 O 0.20901 0.47305 0.39605 0.0
H25 H 0.22652 0.63013 0.87598 0.0
H26 H 0.18755 0.52846 0.20601 0.0
H27 H 0.13838 0.57916 0.13833 0.0
H28 H 0.15816 0.6321 -0.02208 0.0
H29 H 0.27471 0.57743 0.94183 0.0
H30 H 0.3444 0.49177 0.70921 0.0
H31 H 0.33992 0.41653 0.71299 0.0
O32 O 0.23036 0.46911 0.18414 0.0
C33 C 0.31589 0.45931 0.36379 0.0
C34 C 0.30578 0.41555 0.89472 0.0
C35 C 0.32774 0.47676 0.7875 0.0
N36 N 0.28926 0.48103 -0.00892 0.0
C37 C 0.28779 0.43926 -0.00588 0.0
C38 C 0.3098 0.49955 0.88939 0.0
C39 C 0.32569 0.43451 0.79034 0.0
C40 C 0.27634 0.57605 0.66531 0.0
N41 N 0.28726 0.54789 0.57156 0.0
C42 C 0.3025 0.60791 0.70159 0.0
C43 C 0.34038 0.61101 0.64185 0.0
C44 C 0.35198 0.58217 0.54851 0.0
C45 C 0.3249 0.55119 0.51358 0.0
C46 C 0.1937 0.47702 0.85236 0.0
C47 C 0.23685 0.44019 0.65039 0.0
C48 C 0.21103 0.49998 0.75043 0.0
N49 N 0.23334 0.48187 0.65132 0.0
C50 C 0.21962 0.41632 0.75009 0.0
C51 C 0.19818 0.43496 0.85231 0.0
C52 C 0.20765 0.45787 0.27943 0.0
C53 C 0.21741 0.60648 0.94422 0.0
C54 C 0.19609 0.54816 0.12634 0.0
C55 C 0.16792 0.57801 0.09101 0.0
C56 C 0.17892 0.60762 0.00046 0.0
N57 N 0.23417 0.54641 0.07059 0.0
C58 C 0.24464 0.5756 -0.01961 0.0
Co59 Co 0.51534 0.77817 0.4086 0.0
Co60 Co 0.51588 0.75161 0.74033 0.0
O61 O 0.48779 0.76512 0.57474 0.0
C62 C 0.43855 0.82756 0.40023 0.0
O63 O 0.41991 0.79992 0.4714 0.0
C64 C 0.43871 0.70234 0.74747 0.0
O65 O 0.42016 0.7292 0.67236 0.0
O66 O 0.55217 0.71186 0.64886 0.0
O67 O 0.55539 0.73308 0.43666 0.0
H68 H 0.64336 0.7212 -0.00449 0.0
H69 H 0.4497 0.77953 0.18893 0.0
O70 O 0.4765 0.82469 0.37661 0.0
H71 H 0.44102 0.64506 0.39676 0.0
H72 H 0.53431 0.85064 -0.03255 0.0
H73 H 0.60152 0.77487 0.32661 0.0
H74 H 0.49394 0.69243 0.46336 0.0
H75 H 0.49423 0.82263 0.1467 0.0
O76 O 0.47647 0.7058 0.7743 0.0
H77 H 0.60256 0.75116 0.81781 0.0
H78 H 0.49435 0.71084 0.00703 0.0
H79 H 0.64241 0.80333 0.14829 0.0
H80 H 0.39513 0.73317 0.12274 0.0
H81 H 0.60908 0.84151 -0.03441 0.0
H82 H 0.38947 0.66601 0.23127 0.0
O83 O 0.55293 0.81701 0.49934 0.0
H84 H 0.39587 0.79961 0.01918 0.0
H85 H 0.49767 0.83855 0.68965 0.0
H86 H 0.44704 0.88777 0.75732 0.0
H87 H 0.39404 0.86802 0.91747 0.0
H88 H 0.4485 0.75136 -0.04659 0.0
H89 H 0.53422 0.68173 0.18652 0.0
H90 H 0.60946 0.68603 0.18246 0.0
O91 O 0.55693 0.79565 0.71126 0.0
C92 C 0.56658 0.71009 0.53164 0.0
C93 C 0.61045 0.72013 0.00063 0.0
C94 C 0.54923 0.69833 0.10811 0.0
N95 N 0.54498 0.73677 0.9044 0.0
C96 C 0.58675 0.73816 0.90124 0.0
C97 C 0.52646 0.71631 0.00622 0.0
C98 C 0.59148 0.70028 0.10512 0.0
C99 C 0.44991 0.74973 0.23004 0.0
N100 N 0.47802 0.7388 0.32397 0.0
C101 C 0.41803 0.72361 0.19373 0.0
C102 C 0.41486 0.68575 0.25361 0.0
C103 C 0.44365 0.67413 0.34711 0.0
C104 C 0.47465 0.70119 0.38206 0.0
C105 C 0.54891 0.83241 0.0432 0.0
C106 C 0.58571 0.78911 0.24492 0.0
C107 C 0.52595 0.81509 0.14514 0.0
N108 N 0.54404 0.7927 0.24412 0.0
C109 C 0.60958 0.80631 0.14518 0.0
C110 C 0.59095 0.82782 0.04308 0.0
C111 C 0.56815 0.81835 0.61592 0.0
C112 C 0.41955 0.80871 -0.04894 0.0
C113 C 0.47795 0.83001 0.76925 0.0
C114 C 0.44813 0.85821 0.80455 0.0
C115 C 0.41849 0.84723 0.89496 0.0
N116 N 0.47963 0.7919 0.82491 0.0
C117 C 0.4504 0.78144 0.91494 0.0
Co118 Co 0.24774 0.02026 0.65734 0.0
Co119 Co 0.2743 0.02046 -0.01031 0.0
O120 O 0.26101 0.99256 0.82331 0.0
C121 C 0.19843 0.94335 0.64858 0.0
O122 O 0.22579 0.9249 0.72226 0.0
C123 C 0.32308 0.94318 -0.00086 0.0
O124 O 0.29558 0.92465 0.92573 0.0
O125 O 0.31383 0.05717 0.89991 0.0
O126 O 0.29247 0.06066 0.6873 0.0
H127 H 0.30262 0.14786 0.24887 0.0
H128 H 0.24662 0.95384 0.44026 0.0
O129 O 0.20153 0.98117 0.62318 0.0
H130 H 0.38203 0.94788 0.64649 0.0
H131 H 0.17621 0.03888 0.21228 0.0
H132 H 0.24962 0.10663 0.57789 0.0
H133 H 0.33404 1.00003 0.71263 0.0
H134 H 0.20455 0.99891 0.39234 0.0
O135 O 0.32026 0.98112 0.02401 0.0
H136 H 0.2733 0.10697 0.0696 0.0
H137 H 0.31659 0.99909 0.25557 0.0
H138 H 0.22061 0.14747 0.39926 0.0
H139 H 0.29361 0.89993 0.37481 0.0
H140 H 0.18357 0.11388 0.21349 0.0
H141 H 0.36136 0.89569 0.48233 0.0
O142 O 0.20851 0.05734 0.74748 0.0
H143 H 0.22666 0.90118 0.27137 0.0
H144 H 0.18801 1.00075 0.93284 0.0
H145 H 0.13908 0.94984 -0.00036 0.0
H146 H 0.15869 0.89803 0.1649 0.0
H147 H 0.27457 0.95408 0.20602 0.0
H148 H 0.34513 0.03907 0.43643 0.0
H149 H 0.33892 0.11419 0.43509 0.0
O150 O 0.22984 0.06115 -0.03992 0.0
C151 C 0.31546 0.07182 0.78298 0.0
C152 C 0.30444 0.11496 0.25299 0.0
C153 C 0.32791 0.05394 0.35859 0.0
N154 N 0.28902 0.04942 0.15463 0.0
C155 C 0.28676 0.09117 0.15268 0.0
C156 C 0.31024 0.03106 0.25584 0.0
C157 C 0.32491 0.09613 0.35708 0.0
C158 C 0.27659 0.9547 0.48085 0.0
N159 N 0.28744 0.9833 0.57359 0.0
C160 C 0.30309 0.92316 0.44503 0.0
C161 C 0.34126 0.92077 0.50434 0.0
C162 C 0.35274 0.94994 0.59706 0.0
C163 C 0.32529 0.98056 0.63164 0.0
C164 C 0.19383 0.05367 0.2897 0.0
C165 C 0.23584 0.0908 0.49497 0.0
C166 C 0.21137 0.03079 0.39203 0.0
N167 N 0.23306 0.04907 0.49285 0.0
C168 C 0.21834 0.1146 0.39504 0.0
C169 C 0.19746 0.09581 0.29121 0.0
C170 C 0.20693 0.07224 0.86442 0.0
C171 C 0.21759 0.92437 0.20115 0.0
C172 C 0.1964 0.9815 0.01418 0.0
C173 C 0.1684 0.95154 0.04907 0.0
C174 C 0.17932 0.92255 0.14223 0.0
N175 N 0.23423 0.98391 0.07263 0.0
C176 C 0.24463 0.95535 0.16528 0.0
Co177 Co 1.00571 0.7782 0.23772 0.0
Co178 Co 1.00551 0.75163 0.90539 0.0
O179 O 0.03341 0.76489 0.0718 0.0
C180 C 0.08266 0.82745 0.24656 0.0
O181 O 0.1011 0.80009 0.17293 0.0
C182 C 0.08273 0.70276 0.89613 0.0
O183 O 0.10127 0.73025 -0.03044 0.0
O184 O 0.96874 0.71215 -0.00485 0.0
O185 O 0.96526 0.73353 0.20772 0.0
H186 H 0.8781 0.72353 0.64596 0.0
H187 H 0.07217 0.77924 0.45476 0.0
O188 O 0.04485 0.82437 0.27193 0.0
H189 H 0.07784 0.64377 0.24886 0.0
H190 H 0.98718 0.8497 0.68278 0.0
H191 H 0.91934 0.77647 0.31699 0.0
H192 H 0.0258 0.69186 0.1826 0.0
H193 H 0.02711 0.8213 0.5028 0.0
O194 O 0.04479 0.70562 0.8712 0.0
H195 H 0.91901 0.75277 0.82529 0.0
H196 H 0.02683 0.70926 0.63965 0.0
H197 H 0.87853 0.80555 0.49554 0.0
H198 H 0.12599 0.73215 0.5203 0.0
H199 H 0.91217 0.84251 0.68139 0.0
H200 H 0.13008 0.66437 0.41297 0.0
O201 O 0.96869 0.81748 0.14748 0.0
H202 H 0.12485 0.79909 0.62373 0.0
H203 H 0.02534 0.8379 -0.03783 0.0
H204 H 0.07634 0.88675 0.89538 0.0
H205 H 0.12812 0.86705 0.73017 0.0
H206 H 0.07187 0.75126 0.68907 0.0
H207 H 0.98682 0.68078 0.45875 0.0
H208 H 0.91172 0.68715 0.45988 0.0
O209 O 0.96488 0.79614 0.93489 0.0
C210 C 0.95406 0.71055 0.11204 0.0
C211 C 0.91099 0.72164 0.64192 0.0
C212 C 0.97198 0.69804 0.53651 0.0
N213 N 0.97654 0.73694 0.74042 0.0
C214 C 0.9348 0.73928 0.74226 0.0
C215 C 0.99487 0.71567 0.63929 0.0
C216 C 0.9298 0.70113 0.53791 0.0
C217 C 0.07125 0.74927 0.41424 0.0
N218 N 0.04261 0.73844 0.32155 0.0
C219 C 0.10274 0.7227 0.45012 0.0
C220 C 0.10504 0.68452 0.3909 0.0
C221 C 0.07584 0.67308 0.29822 0.0
C222 C 0.04528 0.70058 0.26358 0.0
C223 C 0.97237 0.83213 0.60531 0.0
C224 C 0.93518 0.79021 0.39994 0.0
C225 C 0.99523 0.81455 0.50303 0.0
N226 N 0.97691 0.79291 0.40215 0.0
C227 C 0.91141 0.80775 0.49983 0.0
C228 C 0.93022 0.82859 0.60371 0.0
C229 C 0.9538 0.81907 0.0305 0.0
C230 C 0.10167 0.8082 0.69393 0.0
C231 C 0.04458 0.82948 0.88086 0.0
C232 C 0.07459 0.85743 0.84598 0.0
C233 C 0.10356 0.84646 0.75284 0.0
N234 N 0.04212 0.79165 0.82245 0.0
C235 C 0.07065 0.7812 0.72981 0.0
Co236 Co 0.74787 1.01068 -0.01348 0.0
Co237 Co 0.77443 1.01015 0.65481 0.0
O238 O 0.76094 0.03823 0.82039 0.0
C239 C 0.69855 0.08752 -0.0051 0.0
O240 O 0.72619 0.10615 0.92373 0.0
C241 C 0.82372 0.08728 0.64767 0.0
O242 O 0.79686 0.10585 0.72265 0.0
O243 O 0.81412 0.9738 0.74629 0.0
O244 O 0.79291 0.97058 -0.04153 0.0
H245 H 0.80461 0.88263 0.39954 0.0
H246 H 0.7466 0.07636 0.20607 0.0
O247 O 0.7014 0.04957 0.01851 0.0
H248 H 0.88108 0.08481 -0.00162 0.0
H249 H 0.67545 0.99179 0.42772 0.0
H250 H 0.75103 0.92448 0.06843 0.0
H251 H 0.83364 0.03196 0.93181 0.0
H252 H 0.70351 0.03184 0.24848 0.0
O253 O 0.82027 0.04952 0.62091 0.0
H254 H 0.77472 0.92347 0.57723 0.0
H255 H 0.8153 0.03164 0.38825 0.0
H256 H 0.72249 0.88361 0.24671 0.0
H257 H 0.79304 0.13086 0.27223 0.0
H258 H 0.6844 0.91699 0.42946 0.0
H259 H 0.8602 0.1364 0.16376 0.0
O260 O 0.709 0.97314 0.89575 0.0
H261 H 0.72658 0.13021 0.37579 0.0
H262 H 0.68754 0.02849 0.70556 0.0
H263 H 0.63841 0.07924 0.63801 0.0
H264 H 0.65822 0.13221 0.47776 0.0
H265 H 0.77474 0.07747 0.44153 0.0
H266 H 0.84434 0.99174 0.20877 0.0
H267 H 0.83987 0.9165 0.21269 0.0
O268 O 0.73034 0.96914 0.68384 0.0
C269 C 0.81589 0.95936 0.8635 0.0
C270 C 0.80574 0.91554 0.39445 0.0
C271 C 0.82769 0.97674 0.28711 0.0
N272 N 0.78923 0.98104 0.49074 0.0
C273 C 0.78777 0.93926 0.49384 0.0
C274 C 0.80976 0.99954 0.389 0.0
C275 C 0.82564 0.93449 0.29002 0.0
C276 C 0.7764 0.0761 0.16501 0.0
N277 N 0.78728 0.04796 0.07114 0.0
C278 C 0.80257 0.10794 0.20129 0.0
C279 C 0.84043 0.11105 0.14145 0.0
C280 C 0.85201 0.08223 0.04801 0.0
C281 C 0.82491 0.05126 0.01308 0.0
C282 C 0.69363 0.97716 0.35194 0.0
C283 C 0.73683 0.9403 0.15015 0.0
C284 C 0.71099 1.0001 0.25001 0.0
N285 N 0.73332 0.98198 0.15099 0.0
C286 C 0.71959 0.91645 0.24986 0.0
C287 C 0.69812 0.93511 0.35199 0.0
C288 C 0.70764 0.95792 0.77916 0.0
C289 C 0.71746 0.10655 0.44398 0.0
C290 C 0.69609 0.0482 0.62594 0.0
C291 C 0.66795 0.07808 0.59069 0.0
C292 C 0.67897 0.10771 0.50022 0.0
N293 N 0.73418 0.04644 0.5702 0.0
C294 C 0.74466 0.07564 0.48007 0.0
Co295 Co 0.01535 0.2782 0.90829 0.0
Co296 Co 0.0159 0.25163 0.24002 0.0
O297 O 0.98781 0.26515 0.07444 0.0
C298 C 0.93855 0.32756 0.89989 0.0
O299 O 0.91991 0.2999 -0.02902 0.0
C300 C 0.93875 0.20234 0.24712 0.0
O301 O 0.92019 0.22918 0.17196 0.0
O302 O 0.0522 0.2119 0.14853 0.0
O303 O 0.05541 0.23312 0.93634 0.0
H304 H 0.14339 0.22122 0.49515 0.0
H305 H 0.94973 0.27955 0.68855 0.0
O306 O 0.9765 0.32471 0.87633 0.0
H307 H 0.94104 0.14509 0.8965 0.0
H308 H 0.0343 0.35072 0.46722 0.0
H309 H 0.10153 0.2749 0.82622 0.0
H310 H 0.99395 0.19246 -0.03689 0.0
H311 H 0.99423 0.3227 0.64646 0.0
O312 O 0.9765 0.20582 0.274 0.0
H313 H 0.10259 0.25118 0.31745 0.0
H314 H 0.99437 0.2109 0.50676 0.0
H315 H 0.1424 0.30336 0.64788 0.0
H316 H 0.89517 0.23317 0.62234 0.0
H317 H 0.10907 0.34157 0.46526 0.0
H318 H 0.8895 0.16603 0.73092 0.0
O319 O 0.05294 0.31704 -0.00097 0.0
H320 H 0.89587 0.29962 0.51882 0.0
H321 H 0.99771 0.33859 0.18944 0.0
H322 H 0.94709 0.38781 0.25718 0.0
H323 H 0.89408 0.36806 0.41726 0.0
H324 H 0.9485 0.25136 0.453 0.0
H325 H 0.03425 0.18179 0.68625 0.0
H326 H 0.10949 0.18607 0.68214 0.0
O327 O 0.05694 0.29568 0.21093 0.0
C328 C 0.06661 0.21013 0.03131 0.0
C329 C 0.11048 0.22016 0.50029 0.0
C330 C 0.04927 0.19838 0.60782 0.0
N331 N 0.04501 0.2368 0.40407 0.0
C332 C 0.08678 0.23818 0.4009 0.0
C333 C 0.02649 0.21635 0.50593 0.0
C334 C 0.09152 0.20032 0.6048 0.0
C335 C 0.94993 0.24975 0.72969 0.0
N336 N 0.97803 0.23883 0.82367 0.0
C337 C 0.91806 0.22362 0.69337 0.0
C338 C 0.91488 0.18577 0.75329 0.0
C339 C 0.94367 0.17416 0.84683 0.0
C340 C 0.97466 0.20122 0.88179 0.0
C341 C 0.0489 0.33247 0.54292 0.0
C342 C 0.08571 0.28914 0.74456 0.0
C343 C 0.02595 0.31515 0.64486 0.0
N344 N 0.04405 0.29274 0.7438 0.0
C345 C 0.10957 0.30634 0.64481 0.0
C346 C 0.09094 0.32787 0.54274 0.0
C347 C 0.06817 0.31837 0.1156 0.0
C348 C 0.91956 0.30873 0.45074 0.0
C349 C 0.97798 0.33004 0.26901 0.0
C350 C 0.94817 0.35825 0.30435 0.0
C351 C 0.91852 0.34726 0.39472 0.0
N352 N 0.97965 0.29192 0.32461 0.0
C353 C 0.95041 0.28146 0.41459 0.0
Co354 Co 0.74771 0.5203 0.15715 0.0
Co355 Co 0.77427 0.52048 0.4895 0.0
O356 O 0.76101 0.49259 0.32307 0.0
C357 C 0.69845 0.44336 0.14835 0.0
O358 O 0.72581 0.42491 0.22206 0.0
C359 C 0.82309 0.44323 0.49888 0.0
O360 O 0.79558 0.42469 0.42555 0.0
O361 O 0.81375 0.55725 0.39977 0.0
O362 O 0.79237 0.56076 0.18718 0.0
H363 H 0.80236 0.64788 0.74898 0.0
H364 H 0.74666 0.45382 0.94021 0.0
O365 O 0.70154 0.48117 0.12291 0.0
H366 H 0.88214 0.44818 0.1461 0.0
H367 H 0.67625 0.53885 0.71196 0.0
H368 H 0.74942 0.60668 0.07789 0.0
H369 H 0.83405 0.50022 0.2123 0.0
H370 H 0.70464 0.49891 0.892 0.0
O371 O 0.82028 0.48118 0.5237 0.0
H372 H 0.77311 0.60697 0.56964 0.0
H373 H 0.81669 0.49914 0.7552 0.0
H374 H 0.72034 0.64751 0.8993 0.0
H375 H 0.79375 0.4 0.87473 0.0
H376 H 0.68342 0.61387 0.71339 0.0
H377 H 0.86154 0.39593 -0.01795 0.0
O378 O 0.70843 0.55732 0.24735 0.0
H379 H 0.72678 0.40117 0.77134 0.0
H380 H 0.68802 0.50062 0.43251 0.0
H381 H 0.63917 0.44962 0.4993 0.0
H382 H 0.65885 0.39788 0.66473 0.0
H383 H 0.77462 0.45415 0.70596 0.0
H384 H 0.84517 0.53914 0.9361 0.0
H385 H 0.83877 0.61424 0.93502 0.0
O386 O 0.72977 0.56111 0.45996 0.0
C387 C 0.81535 0.57194 0.28288 0.0
C388 C 0.80425 0.61498 0.753 0.0
C389 C 0.8279 0.55398 0.85836 0.0
N390 N 0.78897 0.54943 0.65448 0.0
C391 C 0.78662 0.59118 0.65265 0.0
C392 C 0.81026 0.5311 0.75558 0.0
C393 C 0.82479 0.59617 0.85699 0.0
C394 C 0.77664 0.45476 -0.01928 0.0
N395 N 0.78746 0.4834 0.07337 0.0
C396 C 0.8032 0.42326 0.94488 0.0
C397 C 0.84139 0.42097 0.00408 0.0
C398 C 0.85283 0.45017 0.09673 0.0
C399 C 0.82533 0.48074 0.13134 0.0
C400 C 0.69381 0.55366 0.78947 0.0
C401 C 0.73569 0.59085 -0.00508 0.0
C402 C 0.71138 0.5308 0.89178 0.0
N403 N 0.733 0.54912 -0.0073 0.0
C404 C 0.71815 0.61463 0.895 0.0
C405 C 0.69733 0.59581 0.79109 0.0
C406 C 0.70683 0.57219 0.36433 0.0
C407 C 0.71768 0.42434 0.70104 0.0
C408 C 0.69643 0.48139 0.51389 0.0
C409 C 0.66848 0.45138 0.54878 0.0
C410 C 0.67944 0.42243 0.64204 0.0
N411 N 0.73425 0.48387 0.5724 0.0
C412 C 0.74468 0.45535 0.66515 0.0
Co413 Co 0.50574 0.27814 0.73777 0.0
Co414 Co 0.50555 0.25158 0.40544 0.0
O415 O 0.53344 0.26489 0.57183 0.0
C416 C 0.58259 0.32752 0.74644 0.0
O417 O 0.60106 0.30018 0.67278 0.0
C418 C 0.58289 0.20289 0.39601 0.0
O419 O 0.60139 0.23042 0.46938 0.0
O420 O 0.46889 0.21201 0.49524 0.0
O421 O 0.46538 0.23338 0.70782 0.0
H422 H 0.37819 0.22307 0.14627 0.0
H423 H 0.57214 0.27935 -0.04511 0.0
O424 O 0.54479 0.3244 0.77188 0.0
H425 H 0.5783 0.14395 0.74866 0.0
H426 H 0.48707 0.34969 0.18272 0.0
H427 H 0.41938 0.27615 0.81728 0.0
H428 H 0.52605 0.19186 0.68259 0.0
H429 H 0.52705 0.3214 0.00267 0.0
O430 O 0.54494 0.20566 0.37117 0.0
H431 H 0.41904 0.25246 0.32551 0.0
H432 H 0.52697 0.20934 0.13959 0.0
H433 H 0.37852 0.3051 -0.00409 0.0
H434 H 0.62614 0.23244 0.02031 0.0
H435 H 0.41209 0.3422 0.1816 0.0
H436 H 0.63048 0.16471 0.91273 0.0
O437 O 0.46862 0.31734 0.64758 0.0
H438 H 0.62474 0.29941 0.12369 0.0
H439 H 0.52516 0.33789 0.46231 0.0
H440 H 0.57597 0.38692 0.3954 0.0
H441 H 0.62778 0.3674 0.23007 0.0
H442 H 0.57193 0.2514 0.18913 0.0
H443 H 0.48702 0.18074 -0.04126 0.0
H444 H 0.4119 0.18683 -0.03991 0.0
O445 O 0.46482 0.29599 0.43501 0.0
C446 C 0.45423 0.21037 0.61216 0.0
C447 C 0.41109 0.22131 0.14215 0.0
C448 C 0.47214 0.19793 0.03656 0.0
N449 N 0.47661 0.23683 0.2405 0.0
C450 C 0.43486 0.23902 0.24244 0.0
C451 C 0.49499 0.21563 0.1393 0.0
C452 C 0.42994 0.20086 0.03808 0.0
C453 C 0.57133 0.24938 0.91431 0.0
N454 N 0.54274 0.23848 0.82158 0.0
C455 C 0.60292 0.22292 -0.04989 0.0
C456 C 0.60536 0.18476 0.89077 0.0
C457 C 0.57619 0.17324 0.79809 0.0
C458 C 0.54552 0.20063 0.76355 0.0
C459 C 0.4723 0.33204 0.10534 0.0
C460 C 0.4352 0.28995 0.90015 0.0
C461 C 0.49519 0.31453 0.00301 0.0
N462 N 0.47692 0.2928 0.90224 0.0
C463 C 0.41139 0.30742 9e-05 0.0
C464 C 0.43016 0.32834 0.10388 0.0
C465 C 0.45371 0.3189 0.53064 0.0
C466 C 0.60154 0.30845 0.19393 0.0
C467 C 0.54441 0.32954 0.38095 0.0
C468 C 0.57432 0.35759 0.346 0.0
C469 C 0.6033 0.34672 0.2528 0.0
N470 N 0.54205 0.2917 0.32251 0.0
C471 C 0.57062 0.28134 0.22985 0.0
C472 C 0.39596 0.65378 0.90375 0.0
C473 C 0.41497 0.67612 0.83159 0.0
C474 C 0.37224 0.63004 -0.00823 0.0
C475 C 0.3499 0.61103 0.06391 0.0
C476 C 0.39569 0.87641 0.24389 0.0
C477 C 0.41489 0.85398 0.31579 0.0
C478 C 0.37176 0.90027 0.15609 0.0
C479 C 0.34938 0.91943 0.08378 0.0
C480 C 0.12573 0.87632 0.4034 0.0
C481 C 0.10654 0.85385 0.33106 0.0
C482 C 0.1496 0.90025 0.49173 0.0
C483 C 0.17206 0.91947 0.56405 0.0
C484 C 0.12565 0.65409 0.73926 0.0
C485 C 0.10647 0.67646 0.81151 0.0
C486 C 0.14955 0.6302 0.6515 0.0
C487 C 0.17201 0.61104 0.57962 0.0
C488 C 0.8723 0.13003 0.49142 0.0
C489 C 0.84996 0.11102 0.56355 0.0
C490 C 0.89602 0.15377 0.4034 0.0
C491 C 0.91501 0.17611 0.33123 0.0
C492 C 0.89569 0.37643 0.74359 0.0
C493 C 0.91488 0.35399 0.81547 0.0
C494 C 0.87177 0.40031 0.65581 0.0
C495 C 0.8494 0.41949 0.58353 0.0
C496 C 0.64959 0.40028 -0.00846 0.0
C497 C 0.67206 0.41947 0.06387 0.0
C498 C 0.62567 0.37639 0.90323 0.0
C499 C 0.60646 0.35392 0.83093 0.0
C500 C 0.64971 0.13037 0.15124 0.0
C501 C 0.67214 0.11119 0.07932 0.0
C502 C 0.62584 0.15428 0.23905 0.0
C503 C 0.60666 0.17662 0.31136 0.0
C504 C 0.37191 0.4052 0.42674 0.0
C505 C 0.34677 0.42994 0.39393 0.0
C506 C 0.4005 0.37583 0.46824 0.0
C507 C 0.42484 0.35026 0.50064 0.0
C508 C 0.65172 0.90343 0.71765 0.0
C509 C 0.67686 0.92836 0.74935 0.0
C510 C 0.62262 0.8743 0.67744 0.0
C511 C 0.5977 0.84914 0.64576 0.0
C512 C 0.12064 0.15405 -0.03172 0.0
C513 C 0.09593 0.17921 0.00112 0.0
C514 C 0.14999 0.12544 0.92676 0.0
C515 C 0.17556 0.10111 0.89436 0.0
C516 C 0.9006 0.65415 0.1757 0.0
C517 C 0.92504 0.67937 0.1419 0.0
C518 C 0.87179 0.62536 0.21924 0.0
C519 C 0.84655 0.60094 0.25303 0.0
C520 C 0.37199 0.12515 0.71931 0.0
C521 C 0.34671 0.10077 0.75309 0.0
C522 C 0.40082 0.15392 0.67579 0.0
C523 C 0.42524 0.17917 0.642 0.0
C524 C 0.87197 0.90534 0.92655 0.0
C525 C 0.84681 0.93004 0.89371 0.0
C526 C 0.90061 0.87601 -0.03191 0.0
C527 C 0.92494 0.85044 0.00052 0.0
C528 C 0.12264 0.3743 0.17726 0.0
C529 C 0.09772 0.34916 0.14545 0.0
C530 C 0.15173 0.4034 0.21767 0.0
C531 C 0.17688 0.42832 0.24952 0.0
C532 C 0.62056 0.65398 0.4685 0.0
C533 C 0.59588 0.67915 0.50142 0.0
C534 C 0.64988 0.62536 0.42683 0.0
C535 C 0.67546 0.60104 0.39433 0.0
loop_
_geom_bond_atom_site_label_1
_geom_bond_atom_site_label_2
_geom_bond_distance
_geom_bond_site_symmetry_2
_ccdc_geom_bond_type
Co0 O2 2.143 . S
Co0 O8 2.074 . S
Co0 O11 2.093 . S
Co0 O24 2.097 . S
Co0 N41 2.151 . S
Co0 N49 2.214 . S
Co1 O2 2.160 . S
Co1 O7 2.058 . S
Co1 O17 2.057 . S
Co1 O32 2.037 . S
Co1 N36 2.145 1_554 S
Co1 N57 2.257 . S
O2 Co0 2.143 . S
O2 Co1 2.160 . S
C3 O4 1.278 . S
C3 O11 1.224 . S
O4 C3 1.278 . S
C5 O6 1.245 . S
C5 O17 1.232 . S
O6 C5 1.245 . S
O7 Co1 2.058 . S
O7 C33 1.269 . S
O8 Co0 2.074 . S
O8 C33 1.257 . S
H9 C34 0.930 . S
H10 C40 0.930 . S
O11 Co0 2.093 . S
O11 C3 1.224 . S
H12 C44 0.929 . S
H13 C46 0.926 1_554 S
H14 C47 0.930 . S
H15 C45 0.929 . S
H16 C48 0.928 . S
O17 Co1 2.057 . S
O17 C5 1.232 . S
H18 C37 0.929 1_554 S
H19 C38 0.929 . S
H20 C50 0.931 . S
H21 C42 0.929 . S
H22 C51 0.930 1_554 S
H23 C43 0.931 1_554 S
O24 Co0 2.097 . S
O24 C52 1.214 . S
H25 C53 0.929 . S
H26 C54 0.929 . S
H27 C55 0.930 . S
H28 C56 0.929 . S
H29 C58 0.930 . S
H30 C35 0.930 . S
H31 C39 0.930 . S
O32 Co1 2.037 . S
O32 C52 1.234 . S
C33 O7 1.269 . S
C33 O8 1.257 . S
C34 H9 0.930 . S
C34 C37 1.388 . S
C34 C39 1.418 . S
C35 H30 0.930 . S
C35 C38 1.404 . S
C35 C39 1.353 . S
N36 Co1 2.145 1_556 S
N36 C37 1.397 . S
N36 C38 1.334 . S
C37 H18 0.929 1_556 S
C37 C34 1.388 . S
C37 N36 1.397 . S
C38 H19 0.929 . S
C38 C35 1.404 . S
C38 N36 1.334 . S
C39 H31 0.930 . S
C39 C34 1.418 . S
C39 C35 1.353 . S
C40 H10 0.930 . S
C40 N41 1.330 . S
C40 C42 1.446 . S
N41 Co0 2.151 . S
N41 C40 1.330 . S
N41 C45 1.418 . S
C42 H21 0.929 . S
C42 C40 1.446 . S
C42 C43 1.332 . S
C43 H23 0.931 1_556 S
C43 C42 1.332 . S
C43 C44 1.267 . S
C44 H12 0.929 . S
C44 C43 1.267 . S
C44 C45 1.251 . S
C45 H15 0.929 . S
C45 N41 1.418 . S
C45 C44 1.251 . S
C46 H13 0.926 1_556 S
C46 C48 1.409 . S
C46 C51 1.262 . S
C47 H14 0.930 . S
C47 N49 1.325 . S
C47 C50 1.357 . S
C48 H16 0.928 . S
C48 C46 1.409 . S
C48 N49 1.261 . S
N49 Co0 2.214 . S
N49 C47 1.325 . S
N49 C48 1.261 . S
C50 H20 0.931 . S
C50 C47 1.357 . S
C50 C51 1.312 . S
C51 H22 0.930 1_556 S
C51 C46 1.262 . S
C51 C50 1.312 . S
C52 O24 1.214 . S
C52 O32 1.234 . S
C53 H25 0.929 . S
C53 C56 1.391 1_554 S
C53 C58 1.391 . S
C54 H26 0.929 . S
C54 C55 1.390 . S
C54 N57 1.391 1_556 S
C55 H27 0.930 . S
C55 C54 1.390 . S
C55 C56 1.392 . S
C56 H28 0.929 . S
C56 C53 1.391 1_556 S
C56 C55 1.392 . S
N57 Co1 2.257 . S
N57 C54 1.391 1_554 S
N57 C58 1.388 . S
C58 H29 0.930 . S
C58 C53 1.391 . S
C58 N57 1.388 . S
Co59 O61 2.143 . S
Co59 O67 2.074 . S
Co59 O70 2.093 . S
Co59 O83 2.097 . S
Co59 N100 2.151 . S
Co59 N108 2.214 . S
Co60 O61 2.160 . S
Co60 O66 2.058 . S
Co60 O76 2.057 . S
Co60 O91 2.037 . S
Co60 N95 2.145 1_556 S
Co60 N116 2.257 . S
O61 Co59 2.143 . S
O61 Co60 2.160 . S
C62 O63 1.278 . S
C62 O70 1.224 . S
O63 C62 1.278 . S
C64 O65 1.245 . S
C64 O76 1.232 . S
O65 C64 1.245 . S
O66 Co60 2.058 . S
O66 C92 1.269 . S
O67 Co59 2.074 . S
O67 C92 1.257 . S
H68 C93 0.930 . S
H69 C99 0.930 . S
O70 Co59 2.093 . S
O70 C62 1.224 . S
H71 C103 0.929 . S
H72 C105 0.926 1_556 S
H73 C106 0.930 . S
H74 C104 0.929 . S
H75 C107 0.928 . S
O76 Co60 2.057 . S
O76 C64 1.232 . S
H77 C96 0.929 1_556 S
H78 C97 0.929 . S
H79 C109 0.931 . S
H80 C101 0.929 . S
H81 C110 0.930 1_556 S
H82 C102 0.931 1_556 S
O83 Co59 2.097 . S
O83 C111 1.214 . S
H84 C112 0.929 . S
H85 C113 0.929 . S
H86 C114 0.930 . S
H87 C115 0.929 . S
H88 C117 0.930 . S
H89 C94 0.930 . S
H90 C98 0.930 . S
O91 Co60 2.037 . S
O91 C111 1.234 . S
C92 O66 1.269 . S
C92 O67 1.257 . S
C93 H68 0.930 . S
C93 C96 1.388 . S
C93 C98 1.418 . S
C94 H89 0.930 . S
C94 C97 1.404 . S
C94 C98 1.353 . S
N95 Co60 2.145 1_554 S
N95 C96 1.397 . S
N95 C97 1.334 . S
C96 H77 0.929 1_554 S
C96 C93 1.388 . S
C96 N95 1.397 . S
C97 H78 0.929 . S
C97 C94 1.404 . S
C97 N95 1.334 . S
C98 H90 0.930 . S
C98 C93 1.418 . S
C98 C94 1.353 . S
C99 H69 0.930 . S
C99 N100 1.330 . S
C99 C101 1.446 . S
N100 Co59 2.151 . S
N100 C99 1.330 . S
N100 C104 1.418 . S
C101 H80 0.929 . S
C101 C99 1.446 . S
C101 C102 1.332 . S
C102 H82 0.931 1_554 S
C102 C101 1.332 . S
C102 C103 1.267 . S
C103 H71 0.929 . S
C103 C102 1.267 . S
C103 C104 1.251 . S
C104 H74 0.929 . S
C104 N100 1.418 . S
C104 C103 1.251 . S
C105 H72 0.926 1_554 S
C105 C107 1.409 . S
C105 C110 1.262 . S
C106 H73 0.930 . S
C106 N108 1.325 . S
C106 C109 1.357 . S
C107 H75 0.928 . S
C107 C105 1.409 . S
C107 N108 1.261 . S
N108 Co59 2.214 . S
N108 C106 1.325 . S
N108 C107 1.261 . S
C109 H79 0.931 . S
C109 C106 1.357 . S
C109 C110 1.312 . S
C110 H81 0.930 1_554 S
C110 C105 1.262 . S
C110 C109 1.312 . S
C111 O83 1.214 . S
C111 O91 1.234 . S
C112 H84 0.929 . S
C112 C115 1.391 1_556 S
C112 C117 1.391 . S
C113 H85 0.929 . S
C113 C114 1.390 . S
C113 N116 1.391 1_554 S
C114 H86 0.930 . S
C114 C113 1.390 . S
C114 C115 1.392 . S
C115 H87 0.929 . S
C115 C112 1.391 1_554 S
C115 C114 1.392 . S
N116 Co60 2.257 . S
N116 C113 1.391 1_556 S
N116 C117 1.388 . S
C117 H88 0.930 . S
C117 C112 1.391 . S
C117 N116 1.388 . S
Co118 O120 2.143 1_545 S
Co118 O126 2.074 . S
Co118 O129 2.093 1_545 S
Co118 O142 2.097 . S
Co118 N159 2.151 1_545 S
Co118 N167 2.214 . S
Co119 O120 2.160 1_544 S
Co119 O125 2.058 1_554 S
Co119 O135 2.057 1_545 S
Co119 O150 2.037 . S
Co119 N154 2.145 . S
Co119 N175 2.257 1_545 S
O120 Co118 2.143 1_565 S
O120 Co119 2.160 1_566 S
C121 O122 1.278 . S
C121 O129 1.224 . S
O122 C121 1.278 . S
C123 O124 1.245 1_554 S
C123 O135 1.232 . S
O124 C123 1.245 1_556 S
O125 Co119 2.058 1_556 S
O125 C151 1.269 . S
O126 Co118 2.074 . S
O126 C151 1.257 . S
H127 C152 0.930 . S
H128 C158 0.930 . S
O129 Co118 2.093 1_565 S
O129 C121 1.224 . S
H130 C162 0.929 1_545 S
H131 C164 0.930 . S
H132 C165 0.930 . S
H133 C163 0.929 . S
H134 C166 0.928 . S
O135 Co119 2.057 1_565 S
O135 C123 1.232 . S
H136 C155 0.929 . S
H137 C156 0.929 1_565 S
H138 C168 0.931 . S
H139 C160 0.929 . S
H140 C169 0.930 . S
H141 C161 0.931 . S
O142 Co118 2.097 . S
O142 C170 1.214 . S
H143 C171 0.929 . S
H144 C172 0.929 1_545 S
H145 C173 0.930 . S
H146 C174 0.929 . S
H147 C176 0.930 . S
H148 C153 0.930 . S
H149 C157 0.930 . S
O150 Co119 2.037 . S
O150 C170 1.234 1_554 S
C151 O125 1.269 . S
C151 O126 1.257 . S
C152 H127 0.930 . S
C152 C155 1.388 . S
C152 C157 1.418 . S
C153 H148 0.930 . S
C153 C156 1.404 . S
C153 C157 1.353 . S
N154 Co119 2.145 . S
N154 C155 1.397 . S
N154 C156 1.334 . S
C155 H136 0.929 . S
C155 C152 1.388 . S
C155 N154 1.397 . S
C156 H137 0.929 1_545 S
C156 C153 1.404 . S
C156 N154 1.334 . S
C157 H149 0.930 . S
C157 C152 1.418 . S
C157 C153 1.353 . S
C158 H128 0.930 . S
C158 N159 1.330 . S
C158 C160 1.446 . S
N159 Co118 2.151 1_565 S
N159 C158 1.330 . S
N159 C163 1.418 1_565 S
C160 H139 0.929 . S
C160 C158 1.446 . S
C160 C161 1.332 . S
C161 H141 0.931 . S
C161 C160 1.332 . S
C161 C162 1.267 . S
C162 H130 0.929 1_565 S
C162 C161 1.267 . S
C162 C163 1.251 1_565 S
C163 H133 0.929 . S
C163 N159 1.418 1_545 S
C163 C162 1.251 1_545 S
C164 H131 0.930 . S
C164 C166 1.406 . S
C164 C169 1.261 . S
C165 H132 0.930 . S
C165 N167 1.325 . S
C165 C168 1.357 . S
C166 H134 0.928 . S
C166 C164 1.406 . S
C166 N167 1.261 . S
N167 Co118 2.214 . S
N167 C165 1.325 . S
N167 C166 1.261 . S
C168 H138 0.931 . S
C168 C165 1.357 . S
C168 C169 1.312 . S
C169 H140 0.930 . S
C169 C164 1.261 . S
C169 C168 1.312 . S
C170 O142 1.214 . S
C170 O150 1.234 1_556 S
C171 H143 0.929 . S
C171 C174 1.391 . S
C171 C176 1.391 . S
C172 H144 0.929 1_565 S
C172 C173 1.390 . S
C172 N175 1.391 . S
C173 H145 0.930 . S
C173 C172 1.390 . S
C173 C174 1.392 . S
C174 H146 0.929 . S
C174 C171 1.391 . S
C174 C173 1.392 . S
N175 Co119 2.257 1_565 S
N175 C172 1.391 . S
N175 C176 1.388 . S
C176 H147 0.930 . S
C176 C171 1.391 . S
C176 N175 1.388 . S
Co177 O179 2.143 1_655 S
Co177 O185 2.074 . S
Co177 O188 2.093 1_655 S
Co177 O201 2.097 . S
Co177 N218 2.151 1_655 S
Co177 N226 2.214 . S
Co178 O179 2.160 1_656 S
Co178 O184 2.058 1_556 S
Co178 O194 2.057 1_655 S
Co178 O209 2.037 . S
Co178 N213 2.145 . S
Co178 N234 2.257 1_655 S
O179 Co177 2.143 1_455 S
O179 Co178 2.160 1_454 S
C180 O181 1.278 . S
C180 O188 1.224 . S
O181 C180 1.278 . S
C182 O183 1.245 1_556 S
C182 O194 1.232 . S
O183 C182 1.245 1_554 S
O184 Co178 2.058 1_554 S
O184 C210 1.269 . S
O185 Co177 2.074 . S
O185 C210 1.257 . S
H186 C211 0.930 . S
H187 C217 0.930 . S
O188 Co177 2.093 1_455 S
O188 C180 1.224 . S
H189 C221 0.929 1_655 S
H190 C223 0.930 . S
H191 C224 0.930 . S
H192 C222 0.929 . S
H193 C225 0.928 . S
O194 Co178 2.057 1_455 S
O194 C182 1.232 . S
H195 C214 0.929 . S
H196 C215 0.929 1_455 S
H197 C227 0.931 . S
H198 C219 0.929 . S
H199 C228 0.930 . S
H200 C220 0.931 . S
O201 Co177 2.097 . S
O201 C229 1.214 . S
H202 C230 0.929 . S
H203 C231 0.929 1_655 S
H204 C232 0.930 . S
H205 C233 0.929 . S
H206 C235 0.930 . S
H207 C212 0.930 . S
H208 C216 0.930 . S
O209 Co178 2.037 . S
O209 C229 1.234 1_556 S
C210 O184 1.269 . S
C210 O185 1.257 . S
C211 H186 0.930 . S
C211 C214 1.388 . S
C211 C216 1.418 . S
C212 H207 0.930 . S
C212 C215 1.404 . S
C212 C216 1.353 . S
N213 Co178 2.145 . S
N213 C214 1.397 . S
N213 C215 1.334 . S
C214 H195 0.929 . S
C214 C211 1.388 . S
C214 N213 1.397 . S
C215 H196 0.929 1_655 S
C215 C212 1.404 . S
C215 N213 1.334 . S
C216 H208 0.930 . S
C216 C211 1.418 . S
C216 C212 1.353 . S
C217 H187 0.930 . S
C217 N218 1.330 . S
C217 C219 1.446 . S
N218 Co177 2.151 1_455 S
N218 C217 1.330 . S
N218 C222 1.418 1_455 S
C219 H198 0.929 . S
C219 C217 1.446 . S
C219 C220 1.332 . S
C220 H200 0.931 . S
C220 C219 1.332 . S
C220 C221 1.267 . S
C221 H189 0.929 1_455 S
C221 C220 1.267 . S
C221 C222 1.251 1_455 S
C222 H192 0.929 . S
C222 N218 1.418 1_655 S
C222 C221 1.251 1_655 S
C223 H190 0.930 . S
C223 C225 1.406 . S
C223 C228 1.261 . S
C224 H191 0.930 . S
C224 N226 1.325 . S
C224 C227 1.357 . S
C225 H193 0.928 . S
C225 C223 1.406 . S
C225 N226 1.261 . S
N226 Co177 2.214 . S
N226 C224 1.325 . S
N226 C225 1.261 . S
C227 H197 0.931 . S
C227 C224 1.357 . S
C227 C228 1.312 . S
C228 H199 0.930 . S
C228 C223 1.261 . S
C228 C227 1.312 . S
C229 O201 1.214 . S
C229 O209 1.234 1_554 S
C230 H202 0.929 . S
C230 C233 1.391 . S
C230 C235 1.391 . S
C231 H203 0.929 1_455 S
C231 C232 1.390 . S
C231 N234 1.391 . S
C232 H204 0.930 . S
C232 C231 1.390 . S
C232 C233 1.392 . S
C233 H205 0.929 . S
C233 C230 1.391 . S
C233 C232 1.392 . S
N234 Co178 2.257 1_455 S
N234 C231 1.391 . S
N234 C235 1.388 . S
C235 H206 0.930 . S
C235 C230 1.391 . S
C235 N234 1.388 . S
Co236 O238 2.143 1_564 S
Co236 O244 2.074 . S
Co236 O247 2.093 1_565 S
Co236 O260 2.097 1_554 S
Co236 N277 2.151 1_565 S
Co236 N285 2.214 . S
Co237 O238 2.160 1_565 S
Co237 O243 2.058 . S
Co237 O253 2.057 1_565 S
Co237 O268 2.037 . S
Co237 N272 2.145 . S
Co237 N293 2.257 1_565 S
O238 Co236 2.143 1_546 S
O238 Co237 2.160 1_545 S
C239 O240 1.278 1_554 S
C239 O247 1.224 . S
O240 C239 1.278 1_556 S
C241 O242 1.245 . S
C241 O253 1.232 . S
O242 C241 1.245 . S
O243 Co237 2.058 . S
O243 C269 1.269 . S
O244 Co236 2.074 . S
O244 C269 1.257 1_554 S
H245 C270 0.930 . S
H246 C276 0.930 . S
O247 Co236 2.093 1_545 S
O247 C239 1.224 . S
H248 C280 0.929 1_565 S
H249 C282 0.930 . S
H250 C283 0.930 . S
H251 C281 0.929 . S
H252 C284 0.928 . S
O253 Co237 2.057 1_545 S
O253 C241 1.232 . S
H254 C273 0.929 . S
H255 C274 0.929 1_545 S
H256 C286 0.931 . S
H257 C278 0.929 . S
H258 C287 0.930 . S
H259 C279 0.931 . S
O260 Co236 2.097 1_556 S
O260 C288 1.214 . S
H261 C289 0.929 . S
H262 C290 0.929 1_565 S
H263 C291 0.930 . S
H264 C292 0.929 . S
H265 C294 0.930 . S
H266 C271 0.930 . S
H267 C275 0.930 . S
O268 Co237 2.037 . S
O268 C288 1.234 . S
C269 O243 1.269 . S
C269 O244 1.257 1_556 S
C270 H245 0.930 . S
C270 C273 1.388 . S
C270 C275 1.418 . S
C271 H266 0.930 . S
C271 C274 1.404 . S
C271 C275 1.353 . S
N272 Co237 2.145 . S
N272 C273 1.397 . S
N272 C274 1.334 . S
C273 H254 0.929 . S
C273 C270 1.388 . S
C273 N272 1.397 . S
C274 H255 0.929 1_565 S
C274 C271 1.404 . S
C274 N272 1.334 . S
C275 H267 0.930 . S
C275 C270 1.418 . S
C275 C271 1.353 . S
C276 H246 0.930 . S
C276 N277 1.330 . S
C276 C278 1.446 . S
N277 Co236 2.151 1_545 S
N277 C276 1.330 . S
N277 C281 1.418 1_545 S
C278 H257 0.929 . S
C278 C276 1.446 . S
C278 C279 1.332 . S
C279 H259 0.931 . S
C279 C278 1.332 . S
C279 C280 1.267 . S
C280 H248 0.929 1_545 S
C280 C279 1.267 . S
C280 C281 1.251 1_545 S
C281 H251 0.929 . S
C281 N277 1.418 1_565 S
C281 C280 1.251 1_565 S
C282 H249 0.930 . S
C282 C284 1.406 . S
C282 C287 1.261 . S
C283 H250 0.930 . S
C283 N285 1.325 . S
C283 C286 1.357 . S
C284 H252 0.928 . S
C284 C282 1.406 . S
C284 N285 1.261 . S
N285 Co236 2.214 . S
N285 C283 1.325 . S
N285 C284 1.261 . S
C286 H256 0.931 . S
C286 C283 1.357 . S
C286 C287 1.312 . S
C287 H258 0.930 . S
C287 C282 1.261 . S
C287 C286 1.312 . S
C288 O260 1.214 . S
C288 O268 1.234 . S
C289 H261 0.929 . S
C289 C292 1.391 . S
C289 C294 1.391 . S
C290 H262 0.929 1_545 S
C290 C291 1.390 . S
C290 N293 1.391 . S
C291 H263 0.930 . S
C291 C290 1.390 . S
C291 C292 1.392 . S
C292 H264 0.929 . S
C292 C289 1.391 . S
C292 C291 1.392 . S
N293 Co237 2.257 1_545 S
N293 C290 1.391 . S
N293 C294 1.388 . S
C294 H265 0.930 . S
C294 C289 1.391 . S
C294 N293 1.388 . S
Co295 O297 2.143 1_456 S
Co295 O303 2.074 . S
Co295 O306 2.093 1_455 S
Co295 O319 2.097 1_556 S
Co295 N336 2.151 1_455 S
Co295 N344 2.214 . S
Co296 O297 2.160 1_455 S
Co296 O302 2.058 . S
Co296 O312 2.057 1_455 S
Co296 O327 2.037 . S
Co296 N331 2.145 . S
Co296 N352 2.257 1_455 S
O297 Co295 2.143 1_654 S
O297 Co296 2.160 1_655 S
C298 O299 1.278 1_556 S
C298 O306 1.224 . S
O299 C298 1.278 1_554 S
C300 O301 1.245 . S
C300 O312 1.232 . S
O301 C300 1.245 . S
O302 Co296 2.058 . S
O302 C328 1.269 . S
O303 Co295 2.074 . S
O303 C328 1.257 1_556 S
H304 C329 0.930 . S
H305 C335 0.930 . S
O306 Co295 2.093 1_655 S
O306 C298 1.224 . S
H307 C339 0.929 1_455 S
H308 C341 0.930 . S
H309 C342 0.930 . S
H310 C340 0.929 . S
H311 C343 0.928 . S
O312 Co296 2.057 1_655 S
O312 C300 1.232 . S
H313 C332 0.929 . S
H314 C333 0.929 1_655 S
H315 C345 0.931 . S
H316 C337 0.929 . S
H317 C346 0.930 . S
H318 C338 0.931 . S
O319 Co295 2.097 1_554 S
O319 C347 1.214 . S
H320 C348 0.929 . S
H321 C349 0.929 1_455 S
H322 C350 0.930 . S
H323 C351 0.929 . S
H324 C353 0.930 . S
H325 C330 0.930 . S
H326 C334 0.930 . S
O327 Co296 2.037 . S
O327 C347 1.234 . S
C328 O302 1.269 . S
C328 O303 1.257 1_554 S
C329 H304 0.930 . S
C329 C332 1.388 . S
C329 C334 1.418 . S
C330 H325 0.930 . S
C330 C333 1.404 . S
C330 C334 1.353 . S
N331 Co296 2.145 . S
N331 C332 1.397 . S
N331 C333 1.334 . S
C332 H313 0.929 . S
C332 C329 1.388 . S
C332 N331 1.397 . S
C333 H314 0.929 1_455 S
C333 C330 1.404 . S
C333 N331 1.334 . S
C334 H326 0.930 . S
C334 C329 1.418 . S
C334 C330 1.353 . S
C335 H305 0.930 . S
C335 N336 1.330 . S
C335 C337 1.446 . S
N336 Co295 2.151 1_655 S
N336 C335 1.330 . S
N336 C340 1.418 1_655 S
C337 H316 0.929 . S
C337 C335 1.446 . S
C337 C338 1.332 . S
C338 H318 0.931 . S
C338 C337 1.332 . S
C338 C339 1.267 . S
C339 H307 0.929 1_655 S
C339 C338 1.267 . S
C339 C340 1.251 1_655 S
C340 H310 0.929 . S
C340 N336 1.418 1_455 S
C340 C339 1.251 1_455 S
C341 H308 0.930 . S
C341 C343 1.406 . S
C341 C346 1.261 . S
C342 H309 0.930 . S
C342 N344 1.325 . S
C342 C345 1.357 . S
C343 H311 0.928 . S
C343 C341 1.406 . S
C343 N344 1.261 . S
N344 Co295 2.214 . S
N344 C342 1.325 . S
N344 C343 1.261 . S
C345 H315 0.931 . S
C345 C342 1.357 . S
C345 C346 1.312 . S
C346 H317 0.930 . S
C346 C341 1.261 . S
C346 C345 1.312 . S
C347 O319 1.214 . S
C347 O327 1.234 . S
C348 H320 0.929 . S
C348 C351 1.391 . S
C348 C353 1.391 . S
C349 H321 0.929 1_655 S
C349 C350 1.390 . S
C349 N352 1.391 . S
C350 H322 0.930 . S
C350 C349 1.390 . S
C350 C351 1.392 . S
C351 H323 0.929 . S
C351 C348 1.391 . S
C351 C350 1.392 . S
N352 Co296 2.257 1_655 S
N352 C349 1.391 . S
N352 C353 1.388 . S
C353 H324 0.930 . S
C353 C348 1.391 . S
C353 N352 1.388 . S
Co354 O356 2.143 . S
Co354 O362 2.074 . S
Co354 O365 2.093 . S
Co354 O378 2.097 . S
Co354 N395 2.151 . S
Co354 N403 2.214 1_554 S
Co355 O356 2.160 . S
Co355 O361 2.058 . S
Co355 O371 2.057 . S
Co355 O386 2.037 . S
Co355 N390 2.145 . S
Co355 N411 2.257 . S
O356 Co354 2.143 . S
O356 Co355 2.160 . S
C357 O358 1.278 . S
C357 O365 1.224 . S
O358 C357 1.278 . S
C359 O360 1.245 . S
C359 O371 1.232 . S
O360 C359 1.245 . S
O361 Co355 2.058 . S
O361 C387 1.269 . S
O362 Co354 2.074 . S
O362 C387 1.257 . S
H363 C388 0.930 . S
H364 C394 0.930 . S
O365 Co354 2.093 . S
O365 C357 1.224 . S
H366 C398 0.929 . S
H367 C400 0.930 . S
H368 C401 0.930 . S
H369 C399 0.929 . S
H370 C402 0.928 . S
O371 Co355 2.057 . S
O371 C359 1.232 . S
H372 C391 0.929 . S
H373 C392 0.929 . S
H374 C404 0.931 . S
H375 C396 0.929 . S
H376 C405 0.930 . S
H377 C397 0.931 . S
O378 Co354 2.097 . S
O378 C406 1.214 . S
H379 C407 0.929 . S
H380 C408 0.929 . S
H381 C409 0.930 . S
H382 C410 0.929 . S
H383 C412 0.930 . S
H384 C389 0.930 . S
H385 C393 0.930 . S
O386 Co355 2.037 . S
O386 C406 1.234 . S
C387 O361 1.269 . S
C387 O362 1.257 . S
C388 H363 0.930 . S
C388 C391 1.388 . S
C388 C393 1.418 1_556 S
C389 H384 0.930 . S
C389 C392 1.404 1_554 S
C389 C393 1.353 . S
N390 Co355 2.145 . S
N390 C391 1.397 . S
N390 C392 1.334 . S
C391 H372 0.929 . S
C391 C388 1.388 . S
C391 N390 1.397 . S
C392 H373 0.929 . S
C392 C389 1.404 1_556 S
C392 N390 1.334 . S
C393 H385 0.930 . S
C393 C388 1.418 1_554 S
C393 C389 1.353 . S
C394 H364 0.930 . S
C394 N395 1.330 . S
C394 C396 1.446 1_554 S
N395 Co354 2.151 . S
N395 C394 1.330 . S
N395 C399 1.418 1_554 S
C396 H375 0.929 . S
C396 C394 1.446 1_556 S
C396 C397 1.332 . S
C397 H377 0.931 . S
C397 C396 1.332 . S
C397 C398 1.267 . S
C398 H366 0.929 . S
C398 C397 1.267 . S
C398 C399 1.251 . S
C399 H369 0.929 . S
C399 N395 1.418 1_556 S
C399 C398 1.251 . S
C400 H367 0.930 . S
C400 C402 1.406 . S
C400 C405 1.261 . S
C401 H368 0.930 . S
C401 N403 1.325 1_554 S
C401 C404 1.357 1_554 S
C402 H370 0.928 . S
C402 C400 1.406 . S
C402 N403 1.261 . S
N403 Co354 2.214 1_556 S
N403 C401 1.325 1_556 S
N403 C402 1.261 . S
C404 H374 0.931 . S
C404 C401 1.357 1_556 S
C404 C405 1.312 . S
C405 H376 0.930 . S
C405 C400 1.261 . S
C405 C404 1.312 . S
C406 O378 1.214 . S
C406 O386 1.234 . S
C407 H379 0.929 . S
C407 C410 1.391 . S
C407 C412 1.391 . S
C408 H380 0.929 . S
C408 C409 1.390 . S
C408 N411 1.391 . S
C409 H381 0.930 . S
C409 C408 1.390 . S
C409 C410 1.392 . S
C410 H382 0.929 . S
C410 C407 1.391 . S
C410 C409 1.392 . S
N411 Co355 2.257 . S
N411 C408 1.391 . S
N411 C412 1.388 . S
C412 H383 0.930 . S
C412 C407 1.391 . S
C412 N411 1.388 . S
Co413 O415 2.143 . S
Co413 O421 2.074 . S
Co413 O424 2.093 . S
Co413 O437 2.097 . S
Co413 N454 2.151 . S
Co413 N462 2.214 1_556 S
Co414 O415 2.160 . S
Co414 O420 2.058 . S
Co414 O430 2.057 . S
Co414 O445 2.037 . S
Co414 N449 2.145 . S
Co414 N470 2.257 . S
O415 Co413 2.143 . S
O415 Co414 2.160 . S
C416 O417 1.278 . S
C416 O424 1.224 . S
O417 C416 1.278 . S
C418 O419 1.245 . S
C418 O430 1.232 . S
O419 C418 1.245 . S
O420 Co414 2.058 . S
O420 C446 1.269 . S
O421 Co413 2.074 . S
O421 C446 1.257 . S
H422 C447 0.930 . S
H423 C453 0.930 . S
O424 Co413 2.093 . S
O424 C416 1.224 . S
H425 C457 0.929 . S
H426 C459 0.930 . S
H427 C460 0.930 . S
H428 C458 0.929 . S
H429 C461 0.928 . S
O430 Co414 2.057 . S
O430 C418 1.232 . S
H431 C450 0.929 . S
H432 C451 0.929 . S
H433 C463 0.931 . S
H434 C455 0.929 . S
H435 C464 0.930 . S
H436 C456 0.931 . S
O437 Co413 2.097 . S
O437 C465 1.214 . S
H438 C466 0.929 . S
H439 C467 0.929 . S
H440 C468 0.930 . S
H441 C469 0.929 . S
H442 C471 0.930 . S
H443 C448 0.930 . S
H444 C452 0.930 . S
O445 Co414 2.037 . S
O445 C465 1.234 . S
C446 O420 1.269 . S
C446 O421 1.257 . S
C447 H422 0.930 . S
C447 C450 1.388 . S
C447 C452 1.418 1_554 S
C448 H443 0.930 . S
C448 C451 1.404 1_556 S
C448 C452 1.353 . S
N449 Co414 2.145 . S
N449 C450 1.397 . S
N449 C451 1.334 . S
C450 H431 0.929 . S
C450 C447 1.388 . S
C450 N449 1.397 . S
C451 H432 0.929 . S
C451 C448 1.404 1_554 S
C451 N449 1.334 . S
C452 H444 0.930 . S
C452 C447 1.418 1_556 S
C452 C448 1.353 . S
C453 H423 0.930 . S
C453 N454 1.330 . S
C453 C455 1.446 1_556 S
N454 Co413 2.151 . S
N454 C453 1.330 . S
N454 C458 1.418 1_556 S
C455 H434 0.929 . S
C455 C453 1.446 1_554 S
C455 C456 1.332 . S
C456 H436 0.931 . S
C456 C455 1.332 . S
C456 C457 1.267 . S
C457 H425 0.929 . S
C457 C456 1.267 . S
C457 C458 1.251 . S
C458 H428 0.929 . S
C458 N454 1.418 1_554 S
C458 C457 1.251 . S
C459 H426 0.930 . S
C459 C461 1.406 . S
C459 C464 1.261 . S
C460 H427 0.930 . S
C460 N462 1.325 1_556 S
C460 C463 1.357 1_556 S
C461 H429 0.928 . S
C461 C459 1.406 . S
C461 N462 1.261 . S
N462 Co413 2.214 1_554 S
N462 C460 1.325 1_554 S
N462 C461 1.261 . S
C463 H433 0.931 . S
C463 C460 1.357 1_554 S
C463 C464 1.312 . S
C464 H435 0.930 . S
C464 C459 1.261 . S
C464 C463 1.312 . S
C465 O437 1.214 . S
C465 O445 1.234 . S
C466 H438 0.929 . S
C466 C469 1.391 . S
C466 C471 1.391 . S
C467 H439 0.929 . S
C467 C468 1.390 . S
C467 N470 1.391 . S
C468 H440 0.930 . S
C468 C467 1.390 . S
C468 C469 1.392 . S
C469 H441 0.929 . S
C469 C466 1.391 . S
C469 C468 1.392 . S
N470 Co414 2.257 . S
N470 C467 1.391 . S
N470 C471 1.388 . S
C471 H442 0.930 . S
C471 C466 1.391 . S
C471 N470 1.388 . S
C472 C473 1.170 . S
C472 C474 1.380 1_556 S
C473 C472 1.170 . S
C474 C472 1.380 1_554 S
C474 C475 1.170 . S
C475 C474 1.170 . S
C476 C477 1.170 . S
C476 C478 1.380 . S
C477 C476 1.170 . S
C478 C476 1.380 . S
C478 C479 1.170 . S
C479 C478 1.170 . S
C480 C481 1.170 . S
C480 C482 1.380 . S
C481 C480 1.170 . S
C482 C480 1.380 . S
C482 C483 1.170 . S
C483 C482 1.170 . S
C484 C485 1.170 . S
C484 C486 1.380 . S
C485 C484 1.170 . S
C486 C484 1.380 . S
C486 C487 1.170 . S
C487 C486 1.170 . S
C488 C489 1.170 . S
C488 C490 1.380 . S
C489 C488 1.170 . S
C490 C488 1.380 . S
C490 C491 1.170 . S
C491 C490 1.170 . S
C492 C493 1.170 . S
C492 C494 1.380 . S
C493 C492 1.170 . S
C494 C492 1.380 . S
C494 C495 1.170 . S
C495 C494 1.170 . S
C496 C497 1.170 . S
C496 C498 1.380 1_554 S
C497 C496 1.170 . S
C498 C496 1.380 1_556 S
C498 C499 1.170 . S
C499 C498 1.170 . S
C500 C501 1.170 . S
C500 C502 1.380 . S
C501 C500 1.170 . S
C502 C500 1.380 . S
C502 C503 1.170 . S
C503 C502 1.170 . S
C504 C505 1.170 . S
C504 C506 1.380 . S
C505 C504 1.170 . S
C506 C504 1.380 . S
C506 C507 1.170 . S
C507 C506 1.170 . S
C508 C509 1.170 . S
C508 C510 1.380 . S
C509 C508 1.170 . S
C510 C508 1.380 . S
C510 C511 1.170 . S
C511 C510 1.170 . S
C512 C513 1.170 . S
C512 C514 1.380 1_554 S
C513 C512 1.170 . S
C514 C512 1.380 1_556 S
C514 C515 1.170 . S
C515 C514 1.170 . S
C516 C517 1.170 . S
C516 C518 1.380 . S
C517 C516 1.170 . S
C518 C516 1.380 . S
C518 C519 1.170 . S
C519 C518 1.170 . S
C520 C521 1.170 . S
C520 C522 1.380 . S
C521 C520 1.170 . S
C522 C520 1.380 . S
C522 C523 1.170 . S
C523 C522 1.170 . S
C524 C525 1.170 . S
C524 C526 1.380 1_556 S
C525 C524 1.170 . S
C526 C524 1.380 1_554 S
C526 C527 1.170 . S
C527 C526 1.170 . S
C528 C529 1.170 . S
C528 C530 1.380 . S
C529 C528 1.170 . S
C530 C528 1.380 . S
C530 C531 1.170 . S
C531 C530 1.170 . S
C532 C533 1.170 . S
C532 C534 1.380 . S
C533 C532 1.170 . S
C534 C532 1.380 . S
C534 C535 1.170 . S
C535 C534 1.170 . S
C473 C64 1.505 . S
C475 C5 1.503 . S
C477 C62 1.486 . S
C479 C123 1.501 . S
C481 C180 1.503 . S
C483 C121 1.505 . S
C485 C182 1.502 . S
C487 C3 1.485 . S
C489 C241 1.505 . S
C491 C300 1.505 . S
C493 C298 1.500 . S
C495 C359 1.504 . S
C497 C357 1.505 . S
C499 C416 1.506 . S
C501 C239 1.503 . S
C503 C418 1.507 . S
C505 C33 1.514 . S
C507 C465 1.507 . S
C509 C288 1.511 . S
C511 C111 1.510 . S
C513 C328 1.512 . S
C515 C170 1.512 . S
C517 C210 1.516 . S
C519 C387 1.518 . S
C521 C151 1.517 . S
C523 C446 1.518 . S
C525 C269 1.514 . S
C527 C229 1.512 . S
C529 C347 1.509 . S
C531 C52 1.510 . S
C533 C92 1.512 . S
C535 C406 1.511 . S
