# Generated by pormake.
# Topology snz, (6)-cn, num edge types: 1
# Building blocks:
#     Node 0, Type 0, BuildingBlock: KUMBUR_clean_sbu_1, # of connection points: 6
#     Node 1, Type 0, BuildingBlock: KUMBUR_clean_sbu_1, # of connection points: 6
#     Node 2, Type 0, BuildingBlock: KUMBUR_clean_sbu_1, # of connection points: 6
#     Node 3, Type 0, BuildingBlock: KUMBUR_clean_sbu_1, # of connection points: 6
#     Node 4, Type 0, BuildingBlock: KUMBUR_clean_sbu_1, # of connection points: 6
#     Node 5, Type 0, BuildingBlock: KUMBUR_clean_sbu_1, # of connection points: 6
#     Node 6, Type 0, BuildingBlock: KUMBUR_clean_sbu_1, # of connection points: 6
#     Node 7, Type 0, BuildingBlock: KUMBUR_clean_sbu_1, # of connection points: 6
#     Node 8, Type 0, BuildingBlock: KUMBUR_clean_sbu_1, # of connection points: 6
#     Edge 9, Type (0, 0), BuildingBlock: XIVTED_clean_linker_0, # of connection points: 2
#     Edge 10, Type (0, 0), BuildingBlock: XIVTED_clean_linker_0, # of connection points: 2
#     Edge 11, Type (0, 0), BuildingBlock: XIVTED_clean_linker_0, # of connection points: 2
#     Edge 12, Type (0, 0), BuildingBlock: XIVTED_clean_linker_0, # of connection points: 2
#     Edge 13, Type (0, 0), BuildingBlock: XIVTED_clean_linker_0, # of connection points: 2
#     Edge 14, Type (0, 0), BuildingBlock: XIVTED_clean_linker_0, # of connection points: 2
#     Edge 15, Type (0, 0), BuildingBlock: XIVTED_clean_linker_0, # of connection points: 2
#     Edge 16, Type (0, 0), BuildingBlock: XIVTED_clean_linker_0, # of connection points: 2
#     Edge 17, Type (0, 0), BuildingBlock: XIVTED_clean_linker_0, # of connection points: 2
#     Edge 18, Type (0, 0), BuildingBlock: XIVTED_clean_linker_0, # of connection points: 2
#     Edge 19, Type (0, 0), BuildingBlock: XIVTED_clean_linker_0, # of connection points: 2
#     Edge 20, Type (0, 0), BuildingBlock: XIVTED_clean_linker_0, # of connection points: 2
#     Edge 21, Type (0, 0), BuildingBlock: XIVTED_clean_linker_0, # of connection points: 2
#     Edge 22, Type (0, 0), BuildingBlock: XIVTED_clean_linker_0, # of connection points: 2
#     Edge 23, Type (0, 0), BuildingBlock: XIVTED_clean_linker_0, # of connection points: 2
#     Edge 24, Type (0, 0), BuildingBlock: XIVTED_clean_linker_0, # of connection points: 2
#     Edge 25, Type (0, 0), BuildingBlock: XIVTED_clean_linker_0, # of connection points: 2
#     Edge 26, Type (0, 0), BuildingBlock: XIVTED_clean_linker_0, # of connection points: 2
#     Edge 27, Type (0, 0), BuildingBlock: XIVTED_clean_linker_0, # of connection points: 2
#     Edge 28, Type (0, 0), BuildingBlock: XIVTED_clean_linker_0, # of connection points: 2
#     Edge 29, Type (0, 0), BuildingBlock: XIVTED_clean_linker_0, # of connection points: 2
#     Edge 30, Type (0, 0), BuildingBlock: XIVTED_clean_linker_0, # of connection points: 2
#     Edge 31, Type (0, 0), BuildingBlock: XIVTED_clean_linker_0, # of connection points: 2
#     Edge 32, Type (0, 0), BuildingBlock: XIVTED_clean_linker_0, # of connection points: 2
#     Edge 33, Type (0, 0), BuildingBlock: XIVTED_clean_linker_0, # of connection points: 2
#     Edge 34, Type (0, 0), BuildingBlock: XIVTED_clean_linker_0, # of connection points: 2
#     Edge 35, Type (0, 0), BuildingBlock: XIVTED_clean_linker_0, # of connection points: 2
# Relax obj value: 0.244
# Max RMSD: 0.167
# Mean RMSD: 0.113
data_MOF--net-snz--node1-KUMBUR_clean_sbu_1--edge1-XIVTED_clean_linker_0
_symmetry_space_group_name_H-M    P1
_symmetry_Int_Tables_number       1
_symmetry_cell_setting            triclinic
loop_
_symmetry_equiv_pos_as_xyz
'x, y, z'
_cell_length_a     66.382998
_cell_length_b     53.116883
_cell_length_c     16.105125
_cell_angle_alpha  96.10014
_cell_angle_beta   94.506905
_cell_angle_gamma 121.31288
loop_
_atom_site_label
_atom_site_type_symbol
_atom_site_fract_x
_atom_site_fract_y
_atom_site_fract_z
_atom_type_partial_charge
Tb0 Tb 0.03932 0.51032 0.18698 0.0
C1 C 0.14249 0.55065 0.14975 0.0
N2 N 0.12327 0.52266 0.12167 0.0
C3 C 0.13878 0.52056 0.99307 0.0
C4 C 0.16008 0.56541 0.09884 0.0
C5 C 0.12216 0.5067 1.04708 0.0
C6 C 0.15753 0.55034 1.0182 0.0
C7 C 0.16737 0.5897 0.26982 0.0
C8 C 0.14605 0.56268 0.23361 0.0
C9 C 0.18402 0.6059 0.21779 0.0
C10 C 0.18035 0.59378 0.13219 0.0
Tb11 Tb 0.09569 0.50362 0.21138 0.0
N12 N 0.12981 0.54596 0.28176 0.0
C13 C 0.17196 0.59847 0.35778 0.0
C14 C 0.13525 0.55281 0.36811 0.0
C15 C 0.15616 0.57949 0.40733 0.0
H16 H 0.10808 0.4834 1.02846 0.0
H17 H 0.16 0.58546 0.47556 0.0
H18 H 0.01654 0.48271 0.35628 0.0
H19 H 0.99824 0.47719 0.8565 0.0
H20 H 0.12296 0.53822 0.40634 0.0
H21 H 0.18817 0.61905 0.38824 0.0
H22 H 0.02619 0.51244 0.98154 0.0
H23 H 0.13728 0.50816 0.93261 0.0
H24 H 0.20034 0.62701 0.24399 0.0
H25 H 0.19391 0.60573 0.09372 0.0
H26 H 0.98172 0.43729 0.38675 0.0
H27 H 0.17062 0.56086 0.97696 0.0
H28 H 0.96547 0.42686 0.87157 0.0
N29 N 1.00734 0.4691 0.22243 0.0
C30 C 0.99026 0.44878 0.15747 0.0
C31 C 0.98404 0.44007 0.32188 0.0
C32 C 0.96989 0.42251 0.17205 0.0
C33 C 1.00399 0.46573 0.3042 0.0
C34 C 0.96707 0.41817 0.25553 0.0
N35 N 0.01243 0.48106 1.06585 0.0
C36 C 0.01336 0.48989 0.98863 0.0
C37 C 0.97588 0.43418 1.00695 0.0
C38 C 0.99324 0.4546 1.07627 0.0
C39 C 0.97839 0.44192 0.92646 0.0
C40 C 0.99692 0.47021 0.91763 0.0
H41 H 0.95168 0.39828 0.26944 0.0
H42 H 0.9375 0.38098 0.11284 0.0
H43 H 0.94277 0.39118 0.96802 0.0
O44 O 0.01488 0.52253 0.14739 0.0
O45 O 0.03765 0.46807 0.20075 0.0
O46 O 0.06442 0.46762 0.12368 0.0
O47 O 0.03478 0.53925 0.27214 0.0
O48 O 0.05931 0.52242 1.07472 0.0
O49 O 0.08052 0.49888 1.0737 0.0
O50 O 0.08786 0.46569 0.26667 0.0
O51 O 0.09809 0.54551 0.26788 0.0
O52 O 0.07347 0.54993 0.17294 0.0
O53 O 0.12156 0.49201 0.22677 0.0
O54 O 0.07895 0.49853 0.33062 0.0
O55 O 0.05516 0.51876 0.32538 0.0
C56 C 0.04281 0.45385 0.14265 0.0
C57 C 0.02516 0.57101 0.20893 0.0
C58 C 0.01146 0.60356 0.16696 0.0
C59 C 0.03466 0.62849 0.19693 0.0
C60 C 0.04796 0.59646 0.23905 0.0
C61 C 0.05266 0.62491 0.23258 0.0
C62 C 1.00693 0.57468 0.17253 0.0
C63 C 0.0702 0.51102 1.03261 0.0
C64 C 0.02019 0.54079 0.21708 0.0
C65 C 0.95307 0.40152 0.10305 0.0
C66 C 0.95612 0.40728 1.02059 0.0
C67 C 0.09277 0.56254 0.22963 0.0
C68 C 0.10814 0.4412 0.22779 0.0
C69 C 0.11867 0.40364 0.24836 0.0
C70 C 0.1092 0.39079 0.16242 0.0
C71 C 0.09854 0.42729 0.14345 0.0
C72 C 0.11822 0.42933 0.28037 0.0
C73 C 0.09916 0.40235 0.11113 0.0
C74 C 0.06685 0.50876 0.36918 0.0
C75 C 0.10834 0.46859 0.25988 0.0
H76 H 0.03905 0.65091 0.19205 0.0
H77 H 0.06217 0.5944 0.26813 0.0
H78 H 0.07036 0.64433 0.2555 0.0
H79 H 0.98921 0.55517 0.15016 0.0
H80 H 0.1098 0.37187 0.13371 0.0
H81 H 0.09078 0.43596 0.10229 0.0
H82 H 0.12545 0.43996 0.34583 0.0
H83 H 0.09196 0.392 1.04549 0.0
Tb84 Tb 0.54845 0.52893 1.02345 0.0
C85 C 0.61989 0.48623 0.12769 0.0
N86 N 0.62391 0.51424 0.14165 0.0
C87 C 0.64968 0.52605 0.27166 0.0
C88 C 0.63014 0.47667 0.18667 0.0
C89 C 0.63922 0.53456 0.21089 0.0
C90 C 0.64485 0.49685 0.26014 0.0
C91 C 0.60414 0.43977 1.03044 0.0
C92 C 0.60714 0.4681 1.05054 0.0
C93 C 0.61314 0.42938 0.09092 0.0
C94 C 0.62615 0.44781 0.16885 0.0
Tb95 Tb 0.60452 0.52468 1.04134 0.0
N96 N 0.59916 0.4792 0.99309 0.0
C97 C 0.59299 0.42326 0.94915 0.0
C98 C 0.58984 0.46414 0.91181 0.0
C99 C 0.58615 0.43571 0.88924 0.0
H100 H 0.64286 0.5571 0.21981 0.0
H101 H 0.57805 0.42342 0.82562 0.0
H102 H 0.51147 0.49618 0.84259 0.0
H103 H 0.57168 0.62821 0.24256 0.0
H104 H 0.58438 0.47343 0.86505 0.0
H105 H 0.59028 0.40134 0.93122 0.0
H106 H 0.56865 0.58044 0.19973 0.0
H107 H 0.66143 0.54199 0.32733 0.0
H108 H 0.61082 0.40753 1.077 0.0
H109 H 0.63365 0.43989 0.21375 0.0
H110 H 0.49034 0.50906 0.73831 0.0
H111 H 0.65309 0.49038 0.30707 0.0
H112 H 0.55532 0.64764 0.14184 0.0
N113 N 0.52683 0.53755 0.92647 0.0
C114 C 0.52866 0.56428 0.94279 0.0
C115 C 0.50107 0.52481 0.79557 0.0
C116 C 0.51694 0.5726 0.88545 0.0
C117 C 0.51295 0.51753 0.85477 0.0
C118 C 0.50323 0.55258 0.81061 0.0
N119 N 0.55123 0.57279 1.07426 0.0
C120 C 0.56127 0.58833 0.15483 0.0
C121 C 0.54244 0.60972 1.04174 0.0
C122 C 0.54124 0.58252 1.01959 0.0
C123 C 0.55394 0.62656 0.12239 0.0
C124 C 0.56312 0.61561 0.17951 0.0
H125 H 0.49395 0.55813 0.76481 0.0
H126 H 0.51013 0.60717 0.86214 0.0
H127 H 0.53247 0.63971 0.99919 0.0
O128 O 0.53105 0.49498 0.09514 0.0
O129 O 0.58282 0.57186 1.03416 0.0
O130 O 0.60982 0.56609 0.11371 0.0
O131 O 0.51273 0.51383 1.03452 0.0
O132 O 0.56244 0.53194 0.15936 0.0
O133 O 0.59583 0.52819 0.17257 0.0
O134 O 0.62683 0.56042 0.98093 0.0
O135 O 0.56921 0.48185 1.02857 0.0
O136 O 0.54359 0.48891 0.94643 0.0
O137 O 0.63868 0.53299 1.02807 0.0
O138 O 0.59174 0.52363 0.90592 0.0
O139 O 0.55797 0.52659 0.89289 0.0
C140 C 0.60281 0.58336 0.08711 0.0
C141 C 0.4894 0.4635 1.05392 0.0
C142 C 0.45429 0.42146 0.09368 0.0
C143 C 0.44896 0.40529 1.01166 0.0
C144 C 0.4835 0.4474 0.97188 0.0
C145 C 0.46348 0.41829 0.95114 0.0
C146 C 0.47475 0.45054 0.11441 0.0
C147 C 0.57871 0.52964 0.20646 0.0
C148 C 0.51086 0.49364 1.07856 0.0
C149 C 0.51885 0.60023 0.90561 0.0
C150 C 0.53158 0.61877 0.98363 0.0
C151 C 0.54933 0.47086 0.97488 0.0
C152 C 0.66843 0.58317 1.02733 0.0
C153 C 0.71128 0.61392 1.02076 0.0
C154 C 0.71386 0.63365 0.09239 0.0
C155 C 0.67162 0.60303 0.09903 0.0
C156 C 0.68832 0.58858 0.9886 0.0
C157 C 0.69418 0.62818 0.13104 0.0
C158 C 0.57545 0.52595 0.85917 0.0
C159 C 0.64463 0.55643 0.99341 0.0
H160 H 0.43328 0.38293 0.99371 0.0
H161 H 0.49437 0.45727 0.92419 0.0
H162 H 0.4591 0.40586 0.8878 0.0
H163 H 0.47938 0.46309 0.17787 0.0
H164 H 0.73121 0.65307 0.11971 0.0
H165 H 0.6567 0.59898 0.13049 0.0
H166 H 0.68583 0.5732 0.93311 0.0
H167 H 0.69646 0.64341 0.18647 0.0
Tb168 Tb 0.60448 0.13474 0.96673 0.0
C169 C 0.52506 0.99383 0.81367 0.0
N170 N 0.52434 0.01872 0.80955 0.0
C171 C 0.50046 0.99663 0.67198 0.0
C172 C 0.51381 0.9694 0.74624 0.0
C173 C 0.51174 0.02017 0.74091 0.0
C174 C 0.50172 0.97125 0.67422 0.0
C175 C 0.53502 0.96569 0.89851 0.0
C176 C 0.53558 0.99208 0.88842 0.0
C177 C 0.52491 0.94178 0.83019 0.0
C178 C 0.51433 0.94365 0.75411 0.0
Tb179 Tb 0.54479 0.05667 0.92278 0.0
N180 N 0.54482 0.01548 0.95321 0.0
C181 C 0.54377 0.96371 0.97786 0.0
C182 C 0.55187 1.01282 1.03226 0.0
C183 C 0.55184 0.98717 1.04537 0.0
H184 H 0.51096 0.03989 0.73835 0.0
H185 H 0.55812 0.98559 0.10751 0.0
H186 H 0.63584 0.1566 0.15967 0.0
H187 H 0.58592 0.19654 0.75742 0.0
H188 H 0.55828 0.0307 0.08517 0.0
H189 H 0.54369 0.94384 0.98829 0.0
H190 H 0.58783 0.15415 0.79223 0.0
H191 H 0.49087 0.99812 0.61712 0.0
H192 H 0.52453 0.92143 0.83638 0.0
H193 H 0.50599 0.92472 0.70274 0.0
H194 H 0.65353 0.20046 0.27342 0.0
H195 H 0.49285 0.95298 0.62096 0.0
H196 H 0.59986 0.24084 0.86699 0.0
N197 N 0.62266 0.17474 1.07491 0.0
C198 C 0.62136 0.19868 1.06145 0.0
C199 C 0.64449 0.20024 0.21417 0.0
C200 C 0.63124 0.22426 0.12473 0.0
C201 C 0.6345 0.17544 0.14939 0.0
C202 C 0.64268 0.22467 0.20211 0.0
N203 N 0.60273 0.17343 0.92221 0.0
C204 C 0.59437 0.17316 0.84132 0.0
C205 C 0.61033 0.223 0.96467 0.0
C206 C 0.61114 0.19807 0.98241 0.0
C207 C 0.60086 0.22219 0.88307 0.0
C208 C 0.59305 0.19727 0.82102 0.0
H209 H 0.65049 0.2439 0.25233 0.0
H210 H 0.63718 0.26855 0.15617 0.0
H211 H 0.61878 0.26742 1.01599 0.0
O212 O 0.6259 0.12299 0.90281 0.0
O213 O 0.5705 0.13468 0.95456 0.0
O214 O 0.5432 0.09104 0.86445 0.0
O215 O 0.64127 0.16693 0.97462 0.0
O216 O 0.59278 0.11587 0.82724 0.0
O217 O 0.55562 0.07136 0.7981 0.0
O218 O 0.52625 0.06972 0.99894 0.0
O219 O 0.57832 0.05692 0.93329 0.0
O220 O 0.60498 0.09987 1.02627 0.0
O221 O 0.50872 0.0251 0.92554 0.0
O222 O 0.55768 0.07409 1.06287 0.0
O223 O 0.59268 0.12116 0.09196 0.0
C224 C 0.55016 0.11816 0.90114 0.0
C225 C 0.66601 0.14689 0.974 0.0
C226 C 0.70615 0.15419 0.98132 0.0
C227 C 0.70375 0.1452 1.06083 0.0
C228 C 0.66463 0.13816 1.05346 0.0
C229 C 0.68319 0.13715 0.09614 0.0
C230 C 0.68691 0.15467 0.9371 0.0
C231 C 0.57479 0.09316 0.77203 0.0
C232 C 0.64577 0.14848 0.93287 0.0
C233 C 0.62985 0.24879 0.10817 0.0
C234 C 0.61939 0.24814 1.02833 0.0
C235 C 0.59715 0.07215 0.9927 0.0
C236 C 0.48448 0.04439 0.95371 0.0
C237 C 0.44719 0.03753 0.99101 0.0
C238 C 0.44156 0.04172 0.90974 0.0
C239 C 0.47826 0.0478 0.87241 0.0
C240 C 0.46898 0.03952 1.01321 0.0
C241 C 0.45713 0.04704 0.85104 0.0
C242 C 0.57444 0.09803 0.11816 0.0
C243 C 0.50618 0.04385 0.97588 0.0
H244 H 0.71785 0.14415 0.09577 0.0
H245 H 0.64915 0.13223 0.08304 0.0
H246 H 0.68166 0.13021 0.15736 0.0
H247 H 0.68839 0.16159 0.87583 0.0
H248 H 0.42492 0.04037 0.89132 0.0
H249 H 0.48955 0.05053 0.82522 0.0
H250 H 0.47333 0.03586 1.07532 0.0
H251 H 0.45256 0.04988 0.78818 0.0
Tb252 Tb 0.69439 0.86991 0.29783 0.0
C253 C 0.7996 0.92372 0.3507 0.0
N254 N 0.78254 0.90394 0.28501 0.0
C255 C 0.80555 0.9346 0.18774 0.0
C256 C 0.81978 0.95052 0.33789 0.0
C257 C 0.78581 0.90834 0.20373 0.0
C258 C 0.82244 0.95601 0.25517 0.0
C259 C 0.81427 0.93633 0.50083 0.0
C260 C 0.79681 0.91671 0.43077 0.0
C261 C 0.83383 0.96377 0.48926 0.0
C262 C 0.83664 0.97081 0.40784 0.0
Tb263 Tb 0.75033 0.86226 0.31806 0.0
N264 N 0.77777 0.88983 0.43905 0.0
C265 C 0.81201 0.92726 0.57973 0.0
C266 C 0.77701 0.87976 0.51425 0.0
C267 C 0.7936 0.89854 0.58601 0.0
H268 H 0.77322 0.89184 0.15086 0.0
H269 H 0.79243 0.8906 0.64569 0.0
H270 H 0.68289 0.89096 0.48156 0.0
H271 H 0.62905 0.78775 1.03613 0.0
H272 H 0.76406 0.85695 0.51895 0.0
H273 H 0.82501 0.94165 0.63516 0.0
H274 H 0.66637 0.83493 0.10364 0.0
H275 H 0.80776 0.93827 0.12337 0.0
H276 H 0.84725 0.97929 0.54248 0.0
H277 H 0.85207 0.99175 0.39951 0.0
H278 H 0.65397 0.86686 0.57881 0.0
H279 H 0.83765 0.97637 0.2426 0.0
H280 H 0.60111 0.75471 0.125 0.0
N281 N 0.66713 0.85148 0.38888 0.0
C282 C 0.64773 0.82356 0.36167 0.0
C283 C 0.65217 0.85424 0.51835 0.0
C284 C 0.63031 0.80917 0.41347 0.0
C285 C 0.66862 0.86773 0.46352 0.0
C286 C 0.63323 0.82454 0.49407 0.0
N287 N 0.65992 0.82769 0.22884 0.0
C288 C 0.65419 0.82058 0.14257 0.0
C289 C 0.62236 0.78431 0.24262 0.0
C290 C 0.64384 0.81127 0.27786 0.0
C291 C 0.61746 0.77526 0.15473 0.0
C292 C 0.63313 0.79393 0.10431 0.0
H293 H 0.62027 0.81429 0.53597 0.0
H294 H 0.59643 0.76919 0.42021 0.0
H295 H 0.58941 0.7474 0.27006 0.0
O296 O 0.70249 0.90794 0.24286 0.0
O297 O 0.6916 0.82784 0.24058 0.0
O298 O 0.71623 0.82367 0.33575 0.0
O299 O 0.66888 0.88215 0.28406 0.0
O300 O 0.71045 0.87456 0.17721 0.0
O301 O 0.73449 0.85464 0.18033 0.0
O302 O 0.77414 0.84838 0.35108 0.0
O303 O 0.75207 0.90447 0.30435 0.0
O304 O 0.7261 0.90563 0.3843 0.0
O305 O 0.75283 0.83252 0.22875 0.0
O306 O 0.73102 0.85095 0.43219 0.0
O307 O 0.7098 0.87451 0.43496 0.0
C308 C 0.69701 0.8109 0.27882 0.0
C309 C 0.6831 0.93324 0.28478 0.0
C310 C 0.67316 0.97145 0.26746 0.0
C311 C 0.68344 0.98439 0.35283 0.0
C312 C 0.69351 0.94719 0.36864 0.0
C313 C 0.69359 0.97252 0.4023 0.0
C314 C 0.67294 0.94542 0.23409 0.0
C315 C 0.7226 0.8646 0.13769 0.0
C316 C 0.68226 0.90556 0.25112 0.0
C317 C 0.60986 0.78087 0.38104 0.0
C318 C 0.60586 0.76845 0.29552 0.0
C319 C 0.74751 0.91897 0.36368 0.0
C320 C 0.76114 0.7989 0.28707 0.0
C321 C 0.77247 0.76459 0.33296 0.0
C322 C 0.74984 0.74031 0.29387 0.0
C323 C 0.73884 0.77406 0.2479 0.0
C324 C 0.77791 0.79399 0.32981 0.0
C325 C 0.73324 0.74507 0.25188 0.0
C326 C 0.72026 0.86237 0.47517 0.0
C327 C 0.7673 0.82977 0.28083 0.0
H328 H 0.68339 1.00361 0.38254 0.0
H329 H 0.70136 0.93827 0.40837 0.0
H330 H 0.70141 0.98292 0.46755 0.0
H331 H 0.66512 0.93475 0.16896 0.0
H332 H 0.74482 0.71751 0.29638 0.0
H333 H 0.7257 0.77695 0.21361 0.0
H334 H 0.7953 0.81299 0.35894 0.0
H335 H 0.71593 0.72614 0.22195 0.0
Tb336 Tb 0.18801 0.84911 0.47355 0.0
C337 C 0.26615 0.81227 0.56966 0.0
N338 N 0.26674 0.83823 0.58553 0.0
C339 C 0.29266 0.85235 0.71702 0.0
C340 C 0.27869 0.80509 0.62735 0.0
C341 C 0.27997 0.85848 0.65754 0.0
C342 C 0.29191 0.82545 0.70214 0.0
C343 C 0.25363 0.76702 0.47199 0.0
C344 C 0.2538 0.79357 0.49334 0.0
C345 C 0.26544 0.75917 0.53025 0.0
C346 C 0.27796 0.77818 0.60781 0.0
Tb347 Tb 0.24401 0.84509 0.48799 0.0
N348 N 0.24285 0.80214 0.43856 0.0
C349 C 0.24209 0.74955 0.39208 0.0
C350 C 0.23259 0.7859 0.35881 0.0
C351 C 0.23175 0.75922 0.33496 0.0
H352 H 0.28018 0.87899 0.6702 0.0
H353 H 0.22307 0.74609 0.27252 0.0
H354 H 0.14957 0.81416 0.29631 0.0
H355 H 0.2115 0.95035 0.6829 0.0
H356 H 0.2243 0.79274 0.31384 0.0
H357 H 0.24148 0.72893 0.37328 0.0
H358 H 0.20687 0.90112 0.64696 0.0
H359 H 0.30288 0.86828 0.77449 0.0
H360 H 0.26538 0.73875 0.51527 0.0
H361 H 0.28734 0.77213 0.65152 0.0
H362 H 0.12967 0.82693 0.18648 0.0
H363 H 0.30178 0.82077 0.74822 0.0
H364 H 0.19802 0.97047 0.57468 0.0
N365 N 0.16751 0.85747 0.37161 0.0
C366 C 0.17061 0.885 0.3833 0.0
C367 C 0.14123 0.84351 0.24137 0.0
C368 C 0.15959 0.89326 0.32299 0.0
C369 C 0.15242 0.83631 0.30347 0.0
C370 C 0.14511 0.87225 0.25052 0.0
N371 N 0.1918 0.89391 0.5184 0.0
C372 C 0.20088 0.90958 0.59912 0.0
C373 C 0.18516 0.93171 0.47759 0.0
C374 C 0.18316 0.90389 0.45957 0.0
C375 C 0.19606 0.9489 0.55832 0.0
C376 C 0.2036 0.93756 0.6197 0.0
H377 H 0.13631 0.87771 0.20259 0.0
H378 H 0.15454 0.9286 0.29263 0.0
H379 H 0.17699 0.96233 0.42802 0.0
O380 O 0.16647 0.81282 0.53345 0.0
O381 O 0.22303 0.89239 0.48992 0.0
O382 O 0.24913 0.88489 0.56759 0.0
O383 O 0.15395 0.84025 0.49098 0.0
O384 O 0.20163 0.8517 0.60924 0.0
O385 O 0.23364 0.84515 0.61796 0.0
O386 O 0.26029 0.88019 0.41874 0.0
O387 O 0.20994 0.80167 0.47546 0.0
O388 O 0.18261 0.80781 0.39947 0.0
O389 O 0.27948 0.86107 0.47135 0.0
O390 O 0.2291 0.84031 0.3519 0.0
O391 O 0.19758 0.84781 0.34287 0.0
C392 C 0.24303 0.90308 0.54257 0.0
C393 C 0.12466 0.78975 0.4902 0.0
C394 C 0.08162 0.75975 0.49399 0.0
C395 C 0.0792 0.73951 0.42412 0.0
C396 C 0.12159 0.76948 0.41982 0.0
C397 C 0.09904 0.7444 0.38747 0.0
C398 C 0.10463 0.78483 0.52719 0.0
C399 C 0.21711 0.84749 0.65385 0.0
C400 C 0.14847 0.81656 0.52383 0.0
C401 C 0.16264 0.92167 0.33859 0.0
C402 C 0.17542 0.94088 0.41574 0.0
C403 C 0.18976 0.79038 0.4238 0.0
C404 C 0.30229 0.91191 0.45519 0.0
C405 C 0.3367 0.95482 0.4137 0.0
C406 C 0.34471 0.96828 0.49961 0.0
C407 C 0.31072 0.92573 0.54002 0.0
C408 C 0.31507 0.92668 0.39233 0.0
C409 C 0.33167 0.95391 0.56193 0.0
C410 C 0.21367 0.84456 0.30686 0.0
C411 C 0.28068 0.88175 0.43071 0.0
H412 H 0.06195 0.71972 0.39788 0.0
H413 H 0.1366 0.77315 0.38963 0.0
H414 H 0.09691 0.72875 0.33348 0.0
H415 H 0.10691 0.80087 0.58046 0.0
H416 H 0.36138 0.98955 0.51938 0.0
H417 H 0.30121 0.91469 0.58922 0.0
H418 H 0.30812 0.91595 0.32681 0.0
H419 H 0.33809 0.96442 0.62772 0.0
Tb420 Tb 0.24559 0.31827 0.60733 0.0
C421 C 0.1658 0.17696 0.45866 0.0
N422 N 0.16609 0.2023 0.45069 0.0
C423 C 0.14306 0.17977 0.31182 0.0
C424 C 0.15433 0.152 0.39277 0.0
C425 C 0.15461 0.20389 0.37906 0.0
C426 C 0.14305 0.15376 0.31842 0.0
C427 C 0.17539 0.14932 0.54705 0.0
C428 C 0.17611 0.17566 0.53473 0.0
C429 C 0.16465 0.12467 0.4808 0.0
C430 C 0.15412 0.126 0.40383 0.0
Tb431 Tb 0.18647 0.24092 0.56216 0.0
N432 N 0.1861 0.19986 0.59751 0.0
C433 C 0.1851 0.14835 0.62599 0.0
C434 C 0.19482 0.19851 0.67583 0.0
C435 C 0.19469 0.17297 0.69078 0.0
H436 H 0.15489 0.22409 0.37277 0.0
H437 H 0.20206 0.17235 0.75235 0.0
H438 H 0.28114 0.3292 0.78069 0.0
H439 H 0.23603 0.39761 0.45147 0.0
H440 H 0.20269 0.21728 0.72677 0.0
H441 H 0.18496 0.12857 0.63794 0.0
H442 H 0.23364 0.35007 0.45941 0.0
H443 H 0.13428 0.18131 0.2548 0.0
H444 H 0.16405 0.10431 0.48894 0.0
H445 H 0.14554 0.10665 0.35377 0.0
H446 H 0.30374 0.36828 0.90779 0.0
H447 H 0.13406 0.13508 0.2663 0.0
H448 H 0.25273 0.43714 0.57839 0.0
N449 N 0.2684 0.35368 0.72395 0.0
C450 C 0.26894 0.37965 0.72881 0.0
C451 C 0.29396 0.37174 0.858 0.0
C452 C 0.2817 0.40267 0.79947 0.0
C453 C 0.28123 0.3497 0.78597 0.0
C454 C 0.29396 0.3982 0.8653 0.0
N455 N 0.24782 0.36186 0.59066 0.0
C456 C 0.24088 0.36701 0.51539 0.0
C457 C 0.2603 0.41163 0.6576 0.0
C458 C 0.25831 0.38396 0.65931 0.0
C459 C 0.25157 0.4162 0.58244 0.0
C460 C 0.24223 0.394 0.51058 0.0
H461 H 0.30399 0.41533 0.92081 0.0
H462 H 0.29206 0.44759 0.8545 0.0
H463 H 0.27336 0.4555 0.72992 0.0
O464 O 0.2622 0.30357 0.52684 0.0
O465 O 0.21238 0.31882 0.59514 0.0
O466 O 0.18558 0.27568 0.503 0.0
O467 O 0.28129 0.34902 0.59675 0.0
O468 O 0.23193 0.30322 0.46692 0.0
O469 O 0.19934 0.2542 0.43794 0.0
O470 O 0.16737 0.25497 0.63243 0.0
O471 O 0.22004 0.24016 0.5726 0.0
O472 O 0.24759 0.28353 0.66313 0.0
O473 O 0.14953 0.21066 0.55938 0.0
O474 O 0.19915 0.25763 0.70233 0.0
O475 O 0.23423 0.30455 0.73191 0.0
C476 C 0.19357 0.30357 0.53561 0.0
C477 C 0.30424 0.32871 0.559 0.0
C478 C 0.34127 0.33842 0.51164 0.0
C479 C 0.3458 0.32694 0.58058 0.0
C480 C 0.30938 0.31832 0.62897 0.0
C481 C 0.32994 0.31707 0.63908 0.0
C482 C 0.32023 0.33886 0.50092 0.0
C483 C 0.21649 0.27839 0.41171 0.0
C484 C 0.28247 0.32942 0.54469 0.0
C485 C 0.28254 0.42969 0.80047 0.0
C486 C 0.27186 0.43418 0.72955 0.0
C487 C 0.24042 0.25638 0.62576 0.0
C488 C 0.12676 0.23345 0.57029 0.0
C489 C 0.0892 0.23217 0.57937 0.0
C490 C 0.09094 0.24224 0.50148 0.0
C491 C 0.12729 0.24283 0.49199 0.0
C492 C 0.10727 0.22762 0.61386 0.0
C493 C 0.10969 0.24732 0.45816 0.0
C494 C 0.21612 0.28134 0.75768 0.0
C495 C 0.14671 0.23015 0.60483 0.0
H496 H 0.36188 0.32638 0.59045 0.0
H497 H 0.29759 0.3114 0.67556 0.0
H498 H 0.33373 0.30875 0.69289 0.0
H499 H 0.31625 0.34709 0.4471 0.0
H500 H 0.07745 0.24581 0.47325 0.0
H501 H 0.14142 0.24675 0.45663 0.0
H502 H 0.10636 0.22007 0.67413 0.0
H503 H 0.11057 0.25477 0.39779 0.0
Tb504 Tb 0.39238 0.18376 0.88321 0.0
C505 C 0.43878 0.18076 0.5871 0.0
N506 N 0.43628 0.20313 0.62299 0.0
C507 C 0.47796 0.23871 0.62608 0.0
C508 C 0.4613 0.18629 0.57305 0.0
C509 C 0.4552 0.23212 0.63856 0.0
C510 C 0.4811 0.21563 0.59458 0.0
C511 C 0.42005 0.12921 0.51872 0.0
C512 C 0.41843 0.15256 0.5614 0.0
C513 C 0.44259 0.13412 0.50856 0.0
C514 C 0.46319 0.16261 0.53585 0.0
Tb515 Tb 0.39875 0.1894 0.64721 0.0
N516 N 0.39694 0.14883 0.57132 0.0
C517 C 0.39893 0.10215 0.48378 0.0
C518 C 0.37641 0.12354 0.52966 0.0
C519 C 0.37703 0.09959 0.48748 0.0
H520 H 0.45287 0.25006 0.66236 0.0
H521 H 0.36062 0.07938 0.45659 0.0
H522 H 0.35582 0.1116 0.90176 0.0
H523 H 0.39363 0.28038 1.03389 0.0
H524 H 0.35946 0.12179 0.52756 0.0
H525 H 0.39938 0.0837 0.45012 0.0
H526 H 0.41113 0.25329 0.96986 0.0
H527 H 0.49304 0.26158 0.64063 0.0
H528 H 0.4442 0.11633 0.47699 0.0
H529 H 0.48038 0.16631 0.52538 0.0
H530 H 0.31435 0.07946 0.92473 0.0
H531 H 0.49874 0.22082 0.58479 0.0
H532 H 0.35092 0.25273 1.04988 0.0
N533 N 0.35483 0.15131 0.91189 0.0
C534 C 0.34298 0.16428 0.93981 0.0
C535 C 0.322 0.10322 0.92758 0.0
C536 C 0.3196 0.14696 0.9583 0.0
C537 C 0.34535 0.12147 0.91217 0.0
C538 C 0.30884 0.11592 0.94889 0.0
N539 N 0.37838 0.21097 0.94597 0.0
C540 C 0.39242 0.24106 0.97547 0.0
C541 C 0.34459 0.20966 0.99561 0.0
C542 C 0.35529 0.19519 0.95873 0.0
C543 C 0.35846 0.24077 1.0211 0.0
C544 C 0.38259 0.25646 1.01223 0.0
H545 H 0.29092 0.10181 0.96252 0.0
H546 H 0.29021 0.1483 1.00364 0.0
H547 H 0.3121 0.20328 1.03598 0.0
O548 O 0.42487 0.19658 0.95899 0.0
O549 O 0.37786 0.20689 0.81472 0.0
O550 O 0.36427 0.17833 0.68453 0.0
O551 O 0.39207 0.17694 1.00898 0.0
O552 O 0.42322 0.22764 0.86647 0.0
O553 O 0.416 0.23395 0.72878 0.0
O554 O 0.39704 0.18988 0.51686 0.0
O555 O 0.42768 0.19387 0.74031 0.0
O556 O 0.40595 0.15879 0.81667 0.0
O557 O 0.3919 0.22003 0.59759 0.0
O558 O 0.36621 0.1472 0.66569 0.0
O559 O 0.37563 0.13969 0.79779 0.0
C560 C 0.36238 0.1955 0.74407 0.0
C561 C 0.41636 0.15783 1.03869 0.0
C562 C 0.39755 0.10755 1.0742 0.0
C563 C 0.41796 0.10691 1.06253 0.0
C564 C 0.43668 0.15684 1.02603 0.0
C565 C 0.43746 0.13155 1.03829 0.0
C566 C 0.39714 0.13318 1.06402 0.0
C567 C 0.42724 0.2448 0.80786 0.0
C568 C 0.41373 0.18272 1.01821 0.0
C569 C 0.30827 0.16125 0.99003 0.0
C570 C 0.32075 0.19257 1.00868 0.0
C571 C 0.4251 0.17254 0.78146 0.0
C572 C 0.36471 0.19441 0.4698 0.0
C573 C 0.32936 0.15144 0.38023 0.0
C574 C 0.31786 0.16733 0.38231 0.0
C575 C 0.35284 0.20992 0.47251 0.0
C576 C 0.35279 0.16533 0.42289 0.0
C577 C 0.32956 0.19642 0.42878 0.0
C578 C 0.36296 0.1292 0.721 0.0
C579 C 0.38862 0.20715 0.52024 0.0
H580 H 0.41876 0.08752 1.07176 0.0
H581 H 0.45175 0.17531 1.00553 0.0
H582 H 0.45316 0.13096 1.02824 0.0
H583 H 0.38142 0.13361 1.07539 0.0
H584 H 0.29998 0.15731 0.34815 0.0
H585 H 0.36144 0.23225 0.50899 0.0
H586 H 0.36188 0.15332 0.41807 0.0
H587 H 0.32056 0.20854 0.43107 0.0
Tb588 Tb 0.88639 0.20071 0.6678 0.0
C589 C 0.94588 0.16509 0.86998 0.0
N590 N 0.92253 0.14887 0.83445 0.0
C591 C 0.92673 0.10846 0.77791 0.0
C592 C 0.96098 0.15426 0.85717 0.0
C593 C 0.91251 0.12031 0.79188 0.0
C594 C 0.95116 0.1257 0.8095 0.0
C595 C 0.97808 0.20884 0.96436 0.0
C596 C 0.95422 0.19187 0.92302 0.0
C597 C 0.99372 0.19927 0.9472 0.0
C598 C 0.98515 0.17194 0.89395 0.0
Tb599 Tb 0.90085 0.17004 0.86216 0.0
N600 N 0.93834 0.19979 0.94002 0.0
C601 C 0.98514 0.23402 1.02485 0.0
C602 C 0.94453 0.22237 1.0055 0.0
C603 C 0.96814 0.24041 1.04687 0.0
H604 H 0.89361 0.10681 0.76817 0.0
H605 H 0.97309 0.25887 0.09677 0.0
H606 H 0.91635 0.27541 0.73666 0.0
H607 H 0.79316 0.12385 0.54334 0.0
H608 H 0.93126 0.22642 1.02651 0.0
H609 H 1.00333 0.24771 1.05795 0.0
H610 H 0.83582 0.1407 0.57076 0.0
H611 H 0.91885 0.08607 0.74286 0.0
H612 H 0.0122 0.21222 0.97745 0.0
H613 H 0.99718 0.1643 0.88359 0.0
H614 H 0.90703 0.31188 0.79637 0.0
H615 H 0.96214 0.1165 0.79841 0.0
H616 H 0.77982 0.15696 0.60061 0.0
N617 N 0.88035 0.23814 0.71857 0.0
C618 C 0.85712 0.23012 0.71256 0.0
C619 C 0.8928 0.28877 0.77479 0.0
C620 C 0.85085 0.25075 0.74166 0.0
C621 C 0.89808 0.26764 0.74324 0.0
C622 C 0.86908 0.28015 0.77573 0.0
N623 N 0.84639 0.18251 0.64431 0.0
C624 C 0.83014 0.15517 0.59645 0.0
C625 C 0.81545 0.19291 0.65852 0.0
C626 C 0.83962 0.20163 0.67183 0.0
C627 C 0.79855 0.16445 0.61257 0.0
C628 C 0.80599 0.14565 0.58046 0.0
H629 H 0.86503 0.29668 0.79891 0.0
H630 H 0.82151 0.25719 0.75546 0.0
H631 H 0.7905 0.20649 0.68244 0.0
O632 O 0.88624 0.18669 0.54042 0.0
O633 O 0.8601 0.17378 0.7467 0.0
O634 O 0.87963 0.19061 0.88081 0.0
O635 O 0.88934 0.22848 0.57923 0.0
O636 O 0.87722 0.15383 0.63465 0.0
O637 O 0.87227 0.135 0.76085 0.0
O638 O 0.90415 0.15737 0.9797 0.0
O639 O 0.91576 0.16966 0.7442 0.0
O640 O 0.92344 0.21142 0.69159 0.0
O641 O 0.8702 0.13527 0.89886 0.0
O642 O 0.91023 0.21728 0.88696 0.0
O643 O 0.91876 0.23406 0.76009 0.0
C644 C 0.8607 0.18264 0.82631 0.0
C645 C 0.86183 0.19772 0.45632 0.0
C646 C 0.82447 0.1563 0.37186 0.0
C647 C 0.81604 0.17555 0.3668 0.0
C648 C 0.85308 0.21665 0.44983 0.0
C649 C 0.83038 0.20559 0.40511 0.0
C650 C 0.84762 0.16782 0.41492 0.0
C651 C 0.868 0.13119 0.67713 0.0
C652 C 0.88389 0.2077 0.51569 0.0
C653 C 0.82667 0.24174 0.73263 0.0
C654 C 0.80901 0.21291 0.69077 0.0
C655 C 0.93024 0.19334 0.71248 0.0
C656 C 0.87696 0.10576 0.98184 0.0
C657 C 0.84936 0.05841 1.02539 0.0
C658 C 0.86614 0.05002 1.02038 0.0
C659 C 0.89365 0.09717 0.97712 0.0
C660 C 0.85484 0.0861 1.00454 0.0
C661 C 0.88806 0.0692 0.99507 0.0
C662 C 0.92214 0.23906 0.84385 0.0
C663 C 0.88202 0.13529 0.96706 0.0
H664 H 0.79837 0.16737 0.33367 0.0
H665 H 0.86347 0.23976 0.48141 0.0
H666 H 0.82371 0.22027 0.40135 0.0
H667 H 0.85438 0.15319 0.41797 0.0
H668 H 0.86255 0.02915 1.03832 0.0
H669 H 0.91109 0.11215 0.96133 0.0
H670 H 0.84237 0.09332 1.01121 0.0
H671 H 0.90105 0.06279 0.99195 0.0
Tb672 Tb 0.90322 0.72334 0.86278 0.0
C673 C 0.85049 0.59834 0.54393 0.0
N674 N 0.86268 0.60799 0.62379 0.0
C675 C 0.84201 0.55759 0.65063 0.0
C676 C 0.83299 0.56791 0.51466 0.0
C677 C 0.85931 0.58803 0.67644 0.0
C678 C 0.82861 0.54751 0.56964 0.0
C679 C 0.84498 0.60991 0.40569 0.0
C680 C 0.85645 0.61893 0.49031 0.0
C681 C 0.82692 0.57978 0.37668 0.0
C682 C 0.82096 0.5588 0.43105 0.0
Tb683 Tb 0.8908 0.65789 0.65878 0.0
N684 N 0.87436 0.64758 0.52016 0.0
C685 C 0.8524 0.63131 0.35248 0.0
C686 C 0.88235 0.66833 0.4677 0.0
C687 C 0.87129 0.66062 0.38355 0.0
H688 H 0.86966 0.59562 0.73886 0.0
H689 H 0.87737 0.67726 0.34276 0.0
H690 H 0.91055 0.76186 0.69663 0.0
H691 H 0.96064 0.75664 0.15908 0.0
H692 H 0.89722 0.69091 0.49114 0.0
H693 H 0.84398 0.62532 0.28711 0.0
H694 H 0.92903 0.72084 1.04092 0.0
H695 H 0.8391 0.54192 0.69306 0.0
H696 H 0.8178 0.57239 0.31195 0.0
H697 H 0.80735 0.53553 0.40742 0.0
H698 H 0.93091 0.81384 0.67922 0.0
H699 H 0.81533 0.5239 0.54961 0.0
H700 H 0.98273 0.81084 0.15414 0.0
N701 N 0.92308 0.77088 0.82936 0.0
C702 C 0.94002 0.79242 0.89303 0.0
C703 C 0.93321 0.80823 0.74049 0.0
C704 C 0.95313 0.82286 0.88438 0.0
C705 C 0.92089 0.77836 0.75177 0.0
C706 C 0.94899 0.83068 0.80764 0.0
N707 N 0.9338 0.75419 0.96895 0.0
C708 C 0.939 0.74431 1.0373 0.0
C709 C 0.96361 0.80508 1.03126 0.0
C710 C 0.94556 0.78373 0.96503 0.0
C711 C 0.96902 0.79515 0.10185 0.0
C712 C 0.95669 0.76458 0.1047 0.0
H713 H 0.95873 0.85376 0.79831 0.0
H714 H 0.9807 0.86784 0.94574 0.0
H715 H 0.98968 0.85226 1.07488 0.0
O716 O 0.87995 0.69573 0.93766 0.0
O717 O 0.93565 0.72981 0.81928 0.0
O718 O 0.91381 0.70645 0.69114 0.0
O719 O 0.88945 0.74124 0.94951 0.0
O720 O 0.9183 0.69593 0.88798 0.0
O721 O 0.89758 0.65042 0.79 0.0
O722 O 0.91065 0.65406 0.56855 0.0
O723 O 0.8569 0.63829 0.70941 0.0
O724 O 0.88004 0.68166 0.78252 0.0
O725 O 0.92035 0.65478 0.69933 0.0
O726 O 0.8808 0.69111 0.62881 0.0
O727 O 0.88054 0.721 0.75001 0.0
C728 C 0.93458 0.71987 0.73996 0.0
C729 C 0.88595 0.72 1.07515 0.0
C730 C 0.90012 0.70216 0.18501 0.0
C731 C 0.90883 0.72931 0.23966 0.0
C732 C 0.89432 0.74688 0.13067 0.0
C733 C 0.9053 0.7512 0.21323 0.0
C734 C 0.88741 0.69704 0.10539 0.0
C735 C 0.91235 0.66799 0.86108 0.0
C736 C 0.87949 0.71706 0.9831 0.0
C737 C 0.97065 0.84437 0.95113 0.0
C738 C 0.97584 0.8355 1.0245 0.0
C739 C 0.85849 0.65777 0.76932 0.0
C740 C 0.9259 0.62417 0.59661 0.0
C741 C 0.9308 0.59491 0.48188 0.0
C742 C 0.92419 0.57184 0.52904 0.0
C743 C 0.91972 0.60122 0.6444 0.0
C744 C 0.93218 0.62119 0.5172 0.0
C745 C 0.9192 0.57536 0.61097 0.0
C746 C 0.87482 0.70955 0.6673 0.0
C747 C 0.92394 0.65019 0.62264 0.0
H748 H 0.91864 0.73371 0.30192 0.0
H749 H 0.89332 0.76491 0.10927 0.0
H750 H 0.91213 0.77214 0.25542 0.0
H751 H 0.88111 0.6762 1.06329 0.0
H752 H 0.92228 0.55103 0.50184 0.0
H753 H 0.9147 0.60284 0.70609 0.0
H754 H 0.93627 0.63858 0.4795 0.0
H755 H 0.91402 0.55752 0.6474 0.0
H756 H 0.08029 0.47849 0.90926 0.0
H757 H 0.05016 0.53483 0.48722 0.0
H758 H 0.06036 0.54379 0.92413 0.0
H759 H 0.0842 0.48459 0.48299 0.0
H760 H 0.0513 0.53594 0.64167 0.0
H761 H 0.07987 0.4784 0.75585 0.0
C762 C 0.07589 0.49304 0.88156 0.0
C763 C 0.07032 0.51113 0.93424 0.0
C764 C 0.05856 0.52459 0.60748 0.0
C765 C 0.06922 0.51057 0.75039 0.0
C766 C 0.05788 0.52388 0.51766 0.0
C767 C 0.06709 0.50958 0.46782 0.0
C768 C 0.06829 0.51058 0.65176 0.0
C769 C 0.07678 0.49604 0.51545 0.0
C770 C 0.07551 0.4928 0.79208 0.0
C771 C 0.06445 0.52886 0.88939 0.0
N772 N 0.07698 0.49678 0.60214 0.0
N773 N 0.06396 0.52798 0.80249 0.0
H774 H 0.60588 0.52034 0.75615 0.0
H775 H 0.54858 0.53603 0.30956 0.0
H776 H 0.54653 0.53239 0.73537 0.0
H777 H 0.60741 0.523 0.33056 0.0
H778 H 0.54765 0.53504 0.46221 0.0
H779 H 0.60678 0.52145 0.60361 0.0
C780 C 0.59289 0.52315 0.72034 0.0
C781 C 0.57599 0.52609 0.76214 0.0
C782 C 0.56088 0.53247 0.43392 0.0
C783 C 0.57704 0.52755 0.58141 0.0
C784 C 0.56148 0.53309 0.34544 0.0
C785 C 0.57827 0.52986 0.30366 0.0
C786 C 0.57716 0.5285 0.48446 0.0
C787 C 0.5942 0.52595 0.35718 0.0
C788 C 0.59346 0.52381 0.63191 0.0
C789 C 0.55989 0.52976 0.70869 0.0
N790 N 0.59323 0.52541 0.44269 0.0
N791 N 0.56085 0.53038 0.62317 0.0
H792 H 0.60848 0.13661 0.68752 0.0
H793 H 0.54176 0.0535 0.2023 0.0
H794 H 0.542 0.05153 0.6291 0.0
H795 H 0.6065 0.14044 0.26136 0.0
H796 H 0.54181 0.05208 0.3549 0.0
H797 H 0.6084 0.13798 0.53493 0.0
C798 C 0.59375 0.11804 0.64348 0.0
C799 C 0.57514 0.09389 0.67501 0.0
C800 C 0.55609 0.07157 0.33499 0.0
C801 C 0.57502 0.0954 0.4938 0.0
C802 C 0.55611 0.07246 0.24648 0.0
C803 C 0.57421 0.09718 0.21514 0.0
C804 C 0.57437 0.09556 0.3963 0.0
C805 C 0.59207 0.1207 0.27925 0.0
C806 C 0.59374 0.11891 0.55497 0.0
C807 C 0.55682 0.07084 0.61103 0.0
N808 N 0.59167 0.11926 0.36464 0.0
N809 N 0.55727 0.07219 0.52561 0.0
H810 H 0.73018 0.82913 0.58028 0.0
H811 H 0.70505 0.88918 1.0272 0.0
H812 H 0.71014 0.89432 0.60123 0.0
H813 H 0.73923 0.83911 1.01684 0.0
H814 H 0.7045 0.88873 0.87365 0.0
H815 H 0.73151 0.83012 0.73418 0.0
C816 C 0.72617 0.84395 0.61619 0.0
C817 C 0.72025 0.86191 0.57333 0.0
C818 C 0.71216 0.87776 0.90427 0.0
C819 C 0.72109 0.86245 0.75696 0.0
C820 C 0.71249 0.87795 0.99359 0.0
C821 C 0.72226 0.86421 1.03926 0.0
C822 C 0.72139 0.86333 0.85564 0.0
C823 C 0.73146 0.85021 0.98769 0.0
C824 C 0.72679 0.84431 0.70572 0.0
C825 C 0.71466 0.8797 0.62771 0.0
N826 N 0.73068 0.85005 0.90093 0.0
N827 N 0.71516 0.8794 0.71417 0.0
H828 H 0.2447 0.83759 0.7727 0.0
H829 H 0.18657 0.85508 0.18799 0.0
H830 H 0.18896 0.85643 0.76221 0.0
H831 H 0.24135 0.83456 0.19828 0.0
H832 H 0.18724 0.85567 1.03555 0.0
H833 H 0.24398 0.83677 0.92518 0.0
C834 C 0.23231 0.84176 0.80161 0.0
C835 C 0.21699 0.8473 0.75103 0.0
C836 C 0.19913 0.85091 1.07055 0.0
C837 C 0.21592 0.84609 0.93188 0.0
C838 C 0.19868 0.8504 0.159 0.0
C839 C 0.21371 0.84441 0.20953 0.0
C840 C 0.21485 0.84554 1.02866 0.0
C841 C 0.22918 0.83916 0.1646 0.0
C842 C 0.23187 0.84116 0.89007 0.0
C843 C 0.20131 0.85211 0.7959 0.0
N844 N 0.22929 0.83984 1.07872 0.0
N845 N 0.20124 0.85141 0.88176 0.0
H846 H 0.18532 0.23545 0.84249 0.0
H847 H 0.24595 0.32513 0.32707 0.0
H848 H 0.24617 0.32575 0.89979 0.0
H849 H 0.18761 0.23327 0.26936 0.0
H850 H 0.24594 0.32603 0.17425 0.0
H851 H 0.18543 0.23459 0.9953 0.0
C852 C 0.19883 0.25525 0.88638 0.0
C853 C 0.21587 0.2807 0.85462 0.0
C854 C 0.23304 0.30558 0.19449 0.0
C855 C 0.21599 0.27982 1.03592 0.0
C856 C 0.233 0.305 0.28309 0.0
C857 C 0.21665 0.27907 0.31476 0.0
C858 C 0.21655 0.28006 0.13349 0.0
C859 C 0.20055 0.25403 0.25102 0.0
C860 C 0.19885 0.25469 0.97499 0.0
C861 C 0.23266 0.30535 0.91829 0.0
N862 N 0.20092 0.2552 0.16551 0.0
N863 N 0.23224 0.30426 1.00383 0.0
H864 H 0.3128 0.13536 0.21103 0.0
H865 H 0.35267 0.07075 0.98578 0.0
H866 H 0.32338 0.10043 0.42832 0.0
H867 H 0.39448 0.09085 0.22906 0.0
H868 H 0.31775 0.05789 1.05451 0.0
H869 H 0.31558 0.09805 0.12055 0.0
C870 C 0.31442 0.11874 0.23931 0.0
C871 C 0.31887 0.12166 0.32725 0.0
C872 C 0.33432 0.06399 0.09258 0.0
C873 C 0.32291 0.07942 0.22469 0.0
C874 C 0.35414 0.0708 1.0533 0.0
C875 C 0.37662 0.08315 0.1026 0.0
C876 C 0.33739 0.07008 0.18119 0.0
C877 C 0.37757 0.08231 0.18928 0.0
C878 C 0.3161 0.0973 0.18752 0.0
C879 C 0.32083 0.0995 0.36063 0.0
N880 N 0.35839 0.07707 0.22653 0.0
N881 N 0.32396 0.08014 0.3097 0.0
H882 H 0.7976 0.13379 0.21413 0.0
H883 H 0.80243 0.03756 0.96786 0.0
H884 H 0.81822 0.10642 0.43085 0.0
H885 H 0.84873 0.04404 0.1828 0.0
H886 H 0.77704 0.04181 1.06285 0.0
H887 H 0.78527 0.08629 0.12962 0.0
C888 C 0.79876 0.1173 0.24478 0.0
C889 C 0.81009 0.12464 0.32855 0.0
C890 C 0.79243 0.0416 0.08942 0.0
C891 C 0.79631 0.06987 0.23157 0.0
C892 C 0.80664 0.0385 1.03494 0.0
C893 C 0.82842 0.04235 1.06834 0.0
C894 C 0.80077 0.04956 0.1769 0.0
C895 C 0.83262 0.04239 0.15493 0.0
C896 C 0.79158 0.08981 0.1963 0.0
C897 C 0.81076 0.10219 0.3651 0.0
N898 N 0.81947 0.04738 0.20697 0.0
N899 N 0.80479 0.07619 0.31575 0.0
H900 H 0.89343 0.55764 0.35834 0.0
H901 H 0.94437 0.71369 0.24196 0.0
H902 H 0.96848 0.62443 0.39642 0.0
H903 H 0.87106 0.64131 0.16539 0.0
H904 H 0.95534 0.6774 0.26568 0.0
H905 H 0.88711 0.58014 0.24339 0.0
C906 C 0.90889 0.57591 0.33879 0.0
C907 C 0.93124 0.59062 0.39034 0.0
C908 C 0.93687 0.66935 0.2429 0.0
C909 C 0.92415 0.61717 0.26207 0.0
C910 C 0.93056 0.69014 0.23101 0.0
C911 C 0.90669 0.6805 0.20436 0.0
C912 C 0.91908 0.6387 0.22962 0.0
C913 C 0.88962 0.64966 0.18767 0.0
C914 C 0.9052 0.5893 0.27423 0.0
C915 C 0.95072 0.61346 0.36045 0.0
N916 N 0.89607 0.6299 0.202 0.0
N917 N 0.94662 0.62728 0.30113 0.0
H918 H 0.16478 0.28617 0.38259 0.0
H919 H 0.15714 0.43114 0.38113 0.0
H920 H 0.19681 0.35644 0.60084 0.0
H921 H 0.10363 0.34407 0.23911 0.0
H922 H 0.17502 0.4076 0.45635 0.0
H923 H 0.14591 0.31034 0.32116 0.0
C924 C 0.16765 0.3065 0.41842 0.0
C925 C 0.18211 0.31878 0.49826 0.0
C926 C 0.15931 0.39376 0.40877 0.0
C927 C 0.16103 0.34757 0.42564 0.0
C928 C 0.14897 0.40716 0.36589 0.0
C929 C 0.12895 0.38988 0.30174 0.0
C930 C 0.14981 0.36284 0.38697 0.0
C931 C 0.11945 0.3588 0.28543 0.0
C932 C 0.15695 0.32047 0.38274 0.0
C933 C 0.18571 0.34593 0.53948 0.0
N934 N 0.13005 0.34652 0.32664 0.0
N935 N 0.17541 0.35949 0.50261 0.0
H936 H 0.63824 0.61674 0.22773 0.0
H937 H 0.66654 0.77711 0.12936 0.0
H938 H 0.60059 0.62725 1.01723 0.0
H939 H 0.69592 0.76726 0.36267 0.0
H940 H 0.64374 0.7227 0.0853 0.0
H941 H 0.66109 0.67137 0.27479 0.0
C942 C 0.63487 0.63042 0.19077 0.0
C943 C 0.61748 0.61694 0.1174 0.0
C944 C 0.65503 0.7323 0.14646 0.0
C945 C 0.64364 0.68016 0.17218 0.0
C946 C 0.66791 0.76358 0.17226 0.0
C947 C 0.6829 0.77724 0.25102 0.0
C948 C 0.65718 0.71394 0.19892 0.0
C949 C 0.68454 0.75804 0.30169 0.0
C950 C 0.64786 0.66175 0.21819 0.0
C951 C 0.61378 0.63624 1.07377 0.0
N952 N 0.67199 0.72765 0.27491 0.0
N953 N 0.62667 0.66652 0.10144 0.0
H954 H 0.40098 0.99107 0.95821 0.0
H955 H 0.36653 0.01526 0.40873 0.0
H956 H 0.45304 0.06253 0.15631 0.0
H957 H 0.34104 0.92762 0.26656 0.0
H958 H 0.39266 0.03768 0.30418 0.0
H959 H 0.37249 0.97274 1.05804 0.0
C960 C 0.40625 1.00314 1.02248 0.0
C961 C 0.42938 0.02822 1.04944 0.0
C962 C 0.38116 1.01356 0.29618 0.0
C963 C 0.39691 1.00755 0.16332 0.0
C964 C 0.36631 1.00063 0.356 0.0
C965 C 0.35145 0.96927 0.34749 0.0
C966 C 0.38081 0.99511 0.22632 0.0
C967 C 0.35166 0.95178 0.27588 0.0
C968 C 0.39007 0.9926 1.07933 0.0
C969 C 0.43541 0.04295 0.13354 0.0
N970 N 0.36602 0.96493 0.21822 0.0
N971 N 0.41923 0.03242 0.18774 0.0
H972 H 0.55226 0.16976 0.97657 0.0
H973 H 0.42008 0.11873 0.79785 0.0
H974 H 0.51134 0.09402 0.77532 0.0
H975 H 0.47448 0.21089 0.80129 0.0
H976 H 0.45144 0.1076 0.8246 0.0
H977 H 0.52314 0.1847 0.94611 0.0
C978 C 0.53719 0.1561 0.92648 0.0
C979 C 0.53402 0.12978 0.88072 0.0
C980 C 0.45653 0.13028 0.81958 0.0
C981 C 0.50017 0.14657 0.84689 0.0
C982 C 0.43861 0.13669 0.80433 0.0
C983 C 0.44447 0.16581 0.7965 0.0
C984 C 0.48079 0.15324 0.83026 0.0
C985 C 0.46899 0.18808 0.80602 0.0
C986 C 0.52054 0.16469 0.90917 0.0
C987 C 0.51414 0.11355 0.8155 0.0
N988 N 0.48617 0.18147 0.82336 0.0
N989 N 0.4979 0.12175 0.80193 0.0
H990 H 0.92388 0.2655 1.00496 0.0
H991 H 0.03884 0.42756 0.98114 0.0
H992 H 0.96035 0.2855 0.78872 0.0
H993 H 1.00623 0.40715 0.20539 0.0
H994 H 1.00975 0.37609 0.90967 0.0
H995 H 0.95284 0.31691 1.07836 0.0
C996 C 0.93807 0.28051 0.97297 0.0
C997 C 0.93965 0.27064 0.89037 0.0
C998 C 1.00881 0.38275 0.97443 0.0
C999 C 0.97299 0.33038 0.97443 0.0
C1000 C 0.02553 0.41226 1.01554 0.0
C1001 C 0.0249 0.42209 0.09941 0.0
C1002 C 0.99116 0.36235 1.01715 0.0
C1003 C 1.00717 0.40094 0.14027 0.0
C1004 C 0.95459 0.31007 1.01496 0.0
C1005 C 0.95826 0.29175 0.85215 0.0
N1006 N 0.99108 0.3723 0.09898 0.0
N1007 N 0.97404 0.32032 0.89414 0.0
H1008 H 0.84611 0.69808 0.82734 0.0
H1009 H 0.72292 0.57362 0.95748 0.0
H1010 H 0.8228 0.6049 0.80203 0.0
H1011 H 0.74854 0.66776 0.99387 0.0
H1012 H 0.75884 0.5843 0.89787 0.0
H1013 H 0.81052 0.68735 0.88808 0.0
C1014 C 0.83377 0.67545 0.83587 0.0
C1015 C 0.83788 0.65253 0.81175 0.0
C1016 C 0.75659 0.60262 0.91886 0.0
C1017 C 0.79637 0.63975 0.87883 0.0
C1018 C 0.73597 0.5965 0.95236 0.0
C1019 C 0.73261 0.6198 0.98106 0.0
C1020 C 0.77405 0.63227 0.91352 0.0
C1021 C 0.75042 0.64908 0.97378 0.0
C1022 C 0.81324 0.66924 0.86999 0.0
C1023 C 0.82055 0.62336 0.8212 0.0
N1024 N 0.77028 0.65444 0.94085 0.0
N1025 N 0.80063 0.6178 0.85411 0.0
H1026 H 0.94834 0.69803 0.99774 0.0
H1027 H 0.9767 0.57096 1.02585 0.0
H1028 H 0.90379 0.61053 0.84372 0.0
H1029 H 1.00299 0.64736 0.22289 0.0
H1030 H 0.94956 0.58378 0.95735 0.0
H1031 H 0.96828 0.67925 1.07964 0.0
C1032 C 0.94229 0.67468 0.98178 0.0
C1033 C 0.92389 0.65589 0.91378 0.0
C1034 C 0.96113 0.59753 1.01603 0.0
C1035 C 0.94789 0.63432 1.00616 0.0
C1036 C 0.97657 0.59015 1.05543 0.0
C1037 C 0.99257 0.6084 0.12961 0.0
C1038 C 0.96177 0.62344 1.05073 0.0
C1039 C 0.99155 0.63306 0.16461 0.0
C1040 C 0.95399 0.66398 1.02845 0.0
C1041 C 0.91784 0.62602 0.89505 0.0
N1042 N 0.97672 0.64 0.12452 0.0
N1043 N 0.92995 0.61626 0.94027 0.0
H1044 H 0.54487 0.42551 1.05817 0.0
H1045 H 0.43715 0.28975 0.71419 0.0
H1046 H 0.51488 0.43881 0.8325 0.0
H1047 H 0.45957 0.27712 0.95653 0.0
H1048 H 0.46672 0.3436 0.75326 0.0
H1049 H 0.51579 0.37129 1.01894 0.0
C1050 C 0.53225 0.41714 1.00022 0.0
C1051 C 0.53233 0.43724 0.94947 0.0
C1052 C 0.46523 0.32912 0.79809 0.0
C1053 C 0.49866 0.37435 0.90325 0.0
C1054 C 0.44824 0.29812 0.77569 0.0
C1055 C 0.44552 0.27825 0.83178 0.0
C1056 C 0.48012 0.34099 0.87736 0.0
C1057 C 0.46072 0.29113 0.91072 0.0
C1058 C 0.5155 0.38601 0.97791 0.0
C1059 C 0.51545 0.42455 0.87466 0.0
N1060 N 0.47722 0.32135 0.93075 0.0
N1061 N 0.49947 0.39425 0.85414 0.0
H1062 H 0.8561 0.21778 0.95358 0.0
H1063 H 0.71269 0.13124 0.83057 0.0
H1064 H 0.81442 0.13928 0.76138 0.0
H1065 H 0.75189 0.19522 1.05946 0.0
H1066 H 0.75052 0.1388 0.79294 0.0
H1067 H 0.81887 0.21358 0.98593 0.0
C1068 C 0.83914 0.1995 0.91882 0.0
C1069 C 0.83847 0.179 0.85425 0.0
C1070 C 0.75088 0.15143 0.85102 0.0
C1071 C 0.79568 0.1743 0.88965 0.0
C1072 C 0.72928 0.14738 0.8719 0.0
C1073 C 0.72903 0.16266 0.94817 0.0
C1074 C 0.77251 0.17106 0.90649 0.0
C1075 C 0.75117 0.18294 1.00001 0.0
C1076 C 0.81787 0.19724 0.9367 0.0
C1077 C 0.81589 0.15589 0.81081 0.0
N1078 N 0.77186 0.18646 0.97851 0.0
N1079 N 0.79555 0.15428 0.82879 0.0
H1080 H 0.62681 0.08958 0.14373 0.0
H1081 H 0.63377 0.94417 0.13866 0.0
H1082 H 0.59363 0.01938 0.92523 0.0
H1083 H 0.68869 0.03119 0.2771 0.0
H1084 H 0.61573 0.96802 1.06627 0.0
H1085 H 0.64609 0.0654 0.20198 0.0
C1086 C 0.62383 0.06933 0.10704 0.0
C1087 C 0.60893 0.05705 1.0281 0.0
C1088 C 0.63178 0.98178 0.11242 0.0
C1089 C 0.63036 0.02818 0.09722 0.0
C1090 C 0.64222 0.96821 0.15366 0.0
C1091 C 0.66271 0.9854 0.21597 0.0
C1092 C 0.64165 1.01277 0.13409 0.0
C1093 C 0.67254 0.01656 0.23218 0.0
C1094 C 0.63473 0.05532 0.14096 0.0
C1095 C 0.6051 0.0299 0.9859 0.0
N1096 N 0.66184 0.02901 0.19262 0.0
N1097 N 0.61556 0.01628 1.02114 0.0
H1098 H 0.1544 0.75764 0.28253 0.0
H1099 H 0.12275 0.59593 0.38021 0.0
H1100 H 0.19153 0.74585 0.49169 0.0
H1101 H 0.09518 0.60683 0.14494 0.0
H1102 H 0.14641 0.65035 0.42427 0.0
H1103 H 0.13094 0.70302 0.23462 0.0
C1104 C 0.15756 0.74368 0.31897 0.0
C1105 C 0.17494 0.75682 0.39238 0.0
C1106 C 0.13534 0.64099 0.36268 0.0
C1107 C 0.14801 0.69354 0.33666 0.0
C1108 C 0.12196 0.60968 0.33686 0.0
C1109 C 0.10724 0.59628 0.2575 0.0
C1110 C 0.13392 0.65969 0.30975 0.0
C1111 C 0.10632 0.61581 0.20638 0.0
C1112 C 0.14419 0.71235 0.29109 0.0
C1113 C 0.17834 0.73714 0.43524 0.0
N1114 N 0.11932 0.64624 0.23326 0.0
N1115 N 0.16506 0.70686 0.40724 0.0
H1116 H 0.43315 0.36461 0.13112 0.0
H1117 H 0.35765 0.39102 0.45355 0.0
H1118 H 0.43857 0.44895 0.19933 0.0
H1119 H 0.36441 0.31419 0.43474 0.0
H1120 H 0.38543 0.411 0.35298 0.0
H1121 H 0.40604 0.34404 0.23461 0.0
C1122 C 0.42861 0.37877 0.16779 0.0
C1123 C 0.43818 0.40857 0.15681 0.0
C1124 C 0.38092 0.3898 0.37087 0.0
C1125 C 0.40726 0.38524 0.27492 0.0
C1126 C 0.36495 0.37831 0.42791 0.0
C1127 C 0.35864 0.35085 0.45215 0.0
C1128 C 0.39057 0.37364 0.33699 0.0
C1129 C 0.36892 0.33553 0.41797 0.0
C1130 C 0.41328 0.36708 0.2271 0.0
C1131 C 0.43187 0.42599 0.20644 0.0
N1132 N 0.38429 0.34704 0.36161 0.0
N1133 N 0.41675 0.41404 0.26294 0.0
H1134 H 0.86823 0.75589 0.71112 0.0
H1135 H 0.78237 0.72172 0.28091 0.0
H1136 H 0.85036 0.68558 0.50377 0.0
H1137 H 0.80246 0.79382 0.48543 0.0
H1138 H 0.80836 0.70945 0.35862 0.0
H1139 H 0.84546 0.771 0.62732 0.0
C1140 C 0.8597 0.74366 0.64767 0.0
C1141 C 0.8616 0.7195 0.61444 0.0
C1142 C 0.8072 0.72805 0.38645 0.0
C1143 C 0.83504 0.73679 0.51769 0.0
C1144 C 0.79226 0.73503 0.34221 0.0
C1145 C 0.78997 0.75872 0.37686 0.0
C1146 C 0.82003 0.74475 0.46645 0.0
C1147 C 0.80368 0.77548 0.45587 0.0
C1148 C 0.84665 0.75241 0.59971 0.0
C1149 C 0.8499 0.70464 0.53176 0.0
N1150 N 0.81794 0.76804 0.49812 0.0
N1151 N 0.83709 0.71343 0.48649 0.0
H1152 H 0.36154 0.0826 0.78842 0.0
H1153 H 0.24328 0.94933 0.47585 0.0
H1154 H 0.32309 0.09872 0.5948 0.0
H1155 H 0.28142 0.93425 0.67341 0.0
H1156 H 0.27172 1.00353 0.51825 0.0
H1157 H 0.33244 0.02868 0.74743 0.0
C1158 C 0.34692 0.07495 0.73754 0.0
C1159 C 0.34499 0.09577 0.69558 0.0
C1160 C 0.27395 0.98842 0.55234 0.0
C1161 C 0.31121 0.03299 0.64687 0.0
C1162 C 0.2576 0.95727 0.52817 0.0
C1163 C 0.25989 0.93666 0.57006 0.0
C1164 C 0.29299 0.9996 0.61954 0.0
C1165 C 0.27894 0.94887 0.63785 0.0
C1166 C 0.33027 0.04391 0.71373 0.0
C1167 C 0.32565 0.08387 0.62897 0.0
N1168 N 0.29461 0.97919 0.65999 0.0
N1169 N 0.30968 0.05357 0.60696 0.0
H1170 H 0.97197 0.24762 0.7241 0.0
H1171 H 0.05277 0.17937 0.61742 0.0
H1172 H 0.94336 0.15304 0.66596 0.0
H1173 H 0.07669 0.2723 0.62888 0.0
H1174 H 0.01428 0.16962 0.65484 0.0
H1175 H 0.01158 0.25736 0.70486 0.0
C1176 C 0.974 0.22886 0.70716 0.0
C1177 C 0.95427 0.19942 0.69768 0.0
C1178 C 0.02809 0.19223 0.65038 0.0
C1179 C 0.99988 0.21039 0.67604 0.0
C1180 C 0.05019 0.19786 0.63016 0.0
C1181 C 0.06813 0.22676 0.6208 0.0
C1182 C 0.02385 0.2157 0.66162 0.0
C1183 C 0.06348 0.24972 0.63602 0.0
C1184 C 0.99669 0.23442 0.69664 0.0
C1185 C 0.95811 0.17605 0.67583 0.0
N1186 N 0.04192 0.24371 0.65522 0.0
N1187 N 0.98036 0.18199 0.666 0.0
H1188 H 0.35771 0.23867 0.8377 0.0
H1189 H 0.24314 0.21158 0.52967 0.0
H1190 H 0.32447 0.17186 0.61204 0.0
H1191 H 0.27445 0.27343 0.76546 0.0
H1192 H 0.27195 0.1962 0.55765 0.0
H1193 H 0.32741 0.25137 0.81149 0.0
C1194 C 0.34393 0.22635 0.78312 0.0
C1195 C 0.34376 0.20373 0.72821 0.0
C1196 C 0.27252 0.21312 0.60341 0.0
C1197 C 0.30865 0.21882 0.69588 0.0
C1198 C 0.25591 0.22186 0.58756 0.0
C1199 C 0.25635 0.24431 0.64442 0.0
C1200 C 0.28985 0.22668 0.6772 0.0
C1201 C 0.27345 0.25646 0.71864 0.0
C1202 C 0.32658 0.2338 0.76767 0.0
C1203 C 0.32553 0.18935 0.65691 0.0
N1204 N 0.2894 0.24773 0.73233 0.0
N1205 N 0.3089 0.19708 0.64298 0.0
H1206 H 0.78163 0.96624 0.29561 0.0
H1207 H 0.83953 0.08 0.74129 0.0
H1208 H 0.75521 0.94392 0.52976 0.0
H1209 H 0.85738 0.10972 0.50362 0.0
H1210 H 0.8111 0.02936 0.66481 0.0
H1211 H 0.81141 0.01756 0.36931 0.0
C1212 C 0.78216 0.97206 0.3626 0.0
C1213 C 0.76592 0.95049 0.40649 0.0
C1214 C 0.82121 0.04687 0.62907 0.0
C1215 C 0.80011 1.00954 0.49185 0.0
C1216 C 0.83764 0.07601 0.67295 0.0
C1217 C 0.85111 0.09966 0.62948 0.0
C1218 C 0.81803 0.0407 0.54021 0.0
C1219 C 0.84752 0.0925 0.54045 0.0
C1220 C 0.79913 1.00146 0.40467 0.0
C1221 C 0.76729 0.95964 0.4931 0.0
N1222 N 0.83146 0.06384 0.49908 0.0
N1223 N 0.78405 0.98816 0.53266 0.0
H1224 H 0.97825 0.73762 0.82772 0.0
H1225 H 0.03707 0.73996 0.4096 0.0
H1226 H 0.94078 0.71557 0.57411 0.0
H1227 H 0.07678 0.76783 0.66181 0.0
H1228 H 1.00149 0.72979 0.46957 0.0
H1229 H 0.01428 0.74779 0.7693 0.0
C1230 C 0.97758 0.73485 0.75974 0.0
C1231 C 0.9564 0.72549 0.7057 0.0
C1232 C 0.01797 0.73817 0.51198 0.0
C1233 C 0.9976 0.73717 0.63832 0.0
C1234 C 0.03833 0.74385 0.47772 0.0
C1235 C 0.06005 0.75465 0.53061 0.0
C1236 C 0.01914 0.74327 0.60011 0.0
C1237 C 0.06055 0.75978 0.61844 0.0
C1238 C 0.99816 0.74066 0.72642 0.0
C1239 C 0.9566 0.72236 0.61816 0.0
N1240 N 0.04041 0.75396 0.65038 0.0
N1241 N 0.97681 0.72813 0.5873 0.0
loop_
_geom_bond_atom_site_label_1
_geom_bond_atom_site_label_2
_geom_bond_distance
_geom_bond_site_symmetry_2
_ccdc_geom_bond_type
Tb0 N29 2.617 . S
Tb0 N35 2.572 . S
Tb0 O44 2.465 . S
Tb0 O45 2.387 . S
Tb0 O47 2.428 . S
Tb0 O48 2.308 1_655 S
Tb0 O52 2.349 1_655 S
Tb0 O55 2.393 1_655 S
Tb0 C64 2.802 . S
C1 N2 1.379 . S
C1 C4 1.416 . S
C1 C8 1.424 . S
N2 C1 1.379 . S
N2 C5 1.334 . S
N2 Tb11 2.617 . S
C3 C5 1.390 . S
C3 C6 1.339 . S
C3 H23 0.930 1_554 S
C4 C1 1.416 . S
C4 C6 1.416 . S
C4 C10 1.448 . S
C5 N2 1.334 . S
C5 C3 1.390 . S
C5 H16 0.930 1_554 S
C6 C3 1.339 . S
C6 C4 1.416 . S
C6 H27 0.930 . S
C7 C8 1.413 . S
C7 C9 1.427 . S
C7 C13 1.416 . S
C8 C1 1.424 . S
C8 C7 1.413 . S
C8 N12 1.361 . S
C9 C7 1.427 . S
C9 C10 1.328 . S
C9 H24 0.929 . S
C10 C4 1.448 . S
C10 C9 1.328 . S
C10 H25 0.930 . S
Tb11 N2 2.617 . S
Tb11 N12 2.572 . S
Tb11 O46 2.349 . S
Tb11 O49 2.393 . S
Tb11 O50 2.465 . S
Tb11 O51 2.387 . S
Tb11 O53 2.428 . S
Tb11 O54 2.308 . S
Tb11 C75 2.802 . S
N12 C8 1.361 . S
N12 Tb11 2.572 . S
N12 C14 1.340 . S
C13 C7 1.416 . S
C13 C15 1.332 . S
C13 H21 0.931 . S
C14 N12 1.340 . S
C14 C15 1.407 . S
C14 H20 0.930 . S
C15 C13 1.332 . S
C15 C14 1.407 . S
C15 H17 0.929 . S
H16 C5 0.930 1_556 S
H17 C15 0.929 . S
H18 C33 0.930 . S
H19 C40 0.929 . S
H20 C14 0.930 . S
H21 C13 0.931 . S
H22 C36 0.930 . S
H23 C3 0.930 1_556 S
H24 C9 0.929 . S
H25 C10 0.930 . S
H26 C31 0.930 . S
H27 C6 0.930 . S
H28 C39 0.931 . S
N29 Tb0 2.617 . S
N29 C30 1.379 . S
N29 C33 1.334 . S
C30 N29 1.379 . S
C30 C32 1.416 . S
C30 C38 1.424 . S
C31 H26 0.930 . S
C31 C33 1.390 . S
C31 C34 1.339 . S
C32 C30 1.416 . S
C32 C34 1.416 . S
C32 C65 1.448 . S
C33 H18 0.930 . S
C33 N29 1.334 . S
C33 C31 1.390 . S
C34 C31 1.339 . S
C34 C32 1.416 . S
C34 H41 0.930 . S
N35 Tb0 2.572 . S
N35 C36 1.340 1_554 S
N35 C38 1.361 . S
C36 H22 0.930 . S
C36 N35 1.340 1_556 S
C36 C40 1.407 . S
C37 C38 1.413 . S
C37 C39 1.416 1_554 S
C37 C66 1.427 . S
C38 C30 1.424 . S
C38 N35 1.361 . S
C38 C37 1.413 . S
C39 H28 0.931 . S
C39 C37 1.416 1_556 S
C39 C40 1.332 . S
C40 H19 0.929 . S
C40 C36 1.407 . S
C40 C39 1.332 . S
H41 C34 0.930 . S
H42 C65 0.930 . S
H43 C66 0.929 1_556 S
O44 Tb0 2.465 . S
O44 C64 1.264 . S
O45 Tb0 2.387 . S
O45 C56 1.264 . S
O46 Tb11 2.349 . S
O46 C56 1.243 1_455 S
O47 Tb0 2.428 . S
O47 C64 1.256 . S
O48 Tb0 2.308 1_455 S
O48 C63 1.266 . S
O49 Tb11 2.393 . S
O49 C63 1.248 . S
O50 Tb11 2.465 . S
O50 C75 1.264 . S
O51 Tb11 2.387 . S
O51 C67 1.264 . S
O52 Tb0 2.349 1_455 S
O52 C67 1.243 . S
O53 Tb11 2.428 . S
O53 C75 1.256 . S
O54 Tb11 2.308 . S
O54 C74 1.266 . S
O55 Tb0 2.393 1_455 S
O55 C74 1.248 . S
C56 O45 1.264 . S
C56 O46 1.243 1_655 S
C57 C60 1.399 . S
C57 C62 1.383 . S
C57 C64 1.496 . S
C58 C59 1.399 . S
C58 C62 1.389 . S
C59 C58 1.399 . S
C59 C61 1.380 . S
C59 H76 0.929 . S
C60 C57 1.399 . S
C60 C61 1.392 . S
C60 H77 0.929 . S
C61 C59 1.380 . S
C61 C60 1.392 . S
C61 H78 0.929 . S
C62 C57 1.383 . S
C62 C58 1.389 . S
C62 H79 0.931 1_554 S
C63 O48 1.266 . S
C63 O49 1.248 . S
C64 Tb0 2.802 . S
C64 O44 1.264 . S
C64 O47 1.256 . S
C64 C57 1.496 . S
C65 C32 1.448 . S
C65 H42 0.930 . S
C65 C66 1.328 . S
C66 C37 1.427 . S
C66 H43 0.929 1_554 S
C66 C65 1.328 . S
C67 O51 1.264 . S
C67 O52 1.243 . S
C68 C71 1.399 . S
C68 C72 1.383 . S
C68 C75 1.496 . S
C69 C70 1.399 . S
C69 C72 1.389 . S
C70 C69 1.399 . S
C70 C73 1.380 . S
C70 H80 0.929 . S
C71 C68 1.399 . S
C71 C73 1.392 . S
C71 H81 0.929 . S
C72 C68 1.383 . S
C72 C69 1.389 . S
C72 H82 0.931 . S
C73 C70 1.380 . S
C73 C71 1.392 . S
C73 H83 0.929 . S
C74 O54 1.266 . S
C74 O55 1.248 . S
C75 Tb11 2.802 . S
C75 O50 1.264 . S
C75 O53 1.256 . S
C75 C68 1.496 . S
H76 C59 0.929 . S
H77 C60 0.929 . S
H78 C61 0.929 . S
H79 C62 0.931 1_556 S
H80 C70 0.929 . S
H81 C71 0.929 . S
H82 C72 0.931 . S
H83 C73 0.929 . S
Tb84 N113 2.617 1_554 S
Tb84 N119 2.572 . S
Tb84 O128 2.465 . S
Tb84 O129 2.387 . S
Tb84 O131 2.428 . S
Tb84 O132 2.308 . S
Tb84 O136 2.349 . S
Tb84 O139 2.393 1_554 S
Tb84 C148 2.802 . S
C85 N86 1.379 . S
C85 C88 1.416 . S
C85 C92 1.424 . S
N86 C85 1.379 . S
N86 C89 1.334 . S
N86 Tb95 2.617 . S
C87 C89 1.390 . S
C87 C90 1.339 . S
C87 H107 0.930 . S
C88 C85 1.416 . S
C88 C90 1.416 . S
C88 C94 1.448 . S
C89 N86 1.334 . S
C89 C87 1.390 . S
C89 H100 0.930 . S
C90 C87 1.339 . S
C90 C88 1.416 . S
C90 H111 0.930 . S
C91 C92 1.413 1_556 S
C91 C93 1.427 1_556 S
C91 C97 1.416 . S
C92 C85 1.424 . S
C92 C91 1.413 1_554 S
C92 N96 1.361 1_554 S
C93 C91 1.427 1_554 S
C93 C94 1.328 . S
C93 H108 0.929 1_554 S
C94 C88 1.448 . S
C94 C93 1.328 . S
C94 H109 0.930 . S
Tb95 N86 2.617 . S
Tb95 N96 2.572 1_554 S
Tb95 O130 2.349 . S
Tb95 O133 2.393 . S
Tb95 O134 2.465 . S
Tb95 O135 2.387 . S
Tb95 O137 2.428 . S
Tb95 O138 2.308 1_554 S
Tb95 C159 2.802 . S
N96 C92 1.361 1_556 S
N96 Tb95 2.572 1_556 S
N96 C98 1.340 . S
C97 C91 1.416 . S
C97 C99 1.332 . S
C97 H105 0.931 . S
C98 N96 1.340 . S
C98 C99 1.407 . S
C98 H104 0.930 . S
C99 C97 1.332 . S
C99 C98 1.407 . S
C99 H101 0.929 . S
H100 C89 0.930 . S
H101 C99 0.929 . S
H102 C117 0.930 . S
H103 C124 0.929 . S
H104 C98 0.930 . S
H105 C97 0.931 . S
H106 C120 0.930 . S
H107 C87 0.930 . S
H108 C93 0.929 1_556 S
H109 C94 0.930 . S
H110 C115 0.930 . S
H111 C90 0.930 . S
H112 C123 0.931 . S
N113 Tb84 2.617 1_556 S
N113 C114 1.379 1_556 S
N113 C117 1.334 . S
C114 N113 1.379 1_554 S
C114 C116 1.416 . S
C114 C122 1.424 . S
C115 H110 0.930 . S
C115 C117 1.390 . S
C115 C118 1.339 . S
C116 C114 1.416 . S
C116 C118 1.416 1_554 S
C116 C149 1.448 . S
C117 H102 0.930 . S
C117 N113 1.334 . S
C117 C115 1.390 . S
C118 C115 1.339 . S
C118 C116 1.416 1_556 S
C118 H125 0.930 . S
N119 Tb84 2.572 . S
N119 C120 1.340 . S
N119 C122 1.361 . S
C120 H106 0.930 . S
C120 N119 1.340 . S
C120 C124 1.407 . S
C121 C122 1.413 . S
C121 C123 1.416 . S
C121 C150 1.427 . S
C122 C114 1.424 . S
C122 N119 1.361 . S
C122 C121 1.413 . S
C123 H112 0.931 . S
C123 C121 1.416 . S
C123 C124 1.332 . S
C124 H103 0.929 . S
C124 C120 1.407 . S
C124 C123 1.332 . S
H125 C118 0.930 . S
H126 C149 0.930 . S
H127 C150 0.929 . S
O128 Tb84 2.465 . S
O128 C148 1.264 . S
O129 Tb84 2.387 . S
O129 C140 1.264 . S
O130 Tb95 2.349 . S
O130 C140 1.243 . S
O131 Tb84 2.428 . S
O131 C148 1.256 . S
O132 Tb84 2.308 . S
O132 C147 1.266 . S
O133 Tb95 2.393 . S
O133 C147 1.248 . S
O134 Tb95 2.465 . S
O134 C159 1.264 . S
O135 Tb95 2.387 . S
O135 C151 1.264 . S
O136 Tb84 2.349 . S
O136 C151 1.243 . S
O137 Tb95 2.428 . S
O137 C159 1.256 . S
O138 Tb95 2.308 1_556 S
O138 C158 1.266 . S
O139 Tb84 2.393 1_556 S
O139 C158 1.248 . S
C140 O129 1.264 . S
C140 O130 1.243 . S
C141 C144 1.399 . S
C141 C146 1.383 . S
C141 C148 1.496 . S
C142 C143 1.399 . S
C142 C146 1.389 . S
C143 C142 1.399 . S
C143 C145 1.380 . S
C143 H160 0.929 . S
C144 C141 1.399 . S
C144 C145 1.392 . S
C144 H161 0.929 1_554 S
C145 C143 1.380 . S
C145 C144 1.392 . S
C145 H162 0.929 1_554 S
C146 C141 1.383 . S
C146 C142 1.389 . S
C146 H163 0.931 . S
C147 O132 1.266 . S
C147 O133 1.248 . S
C148 Tb84 2.802 . S
C148 O128 1.264 . S
C148 O131 1.256 . S
C148 C141 1.496 . S
C149 C116 1.448 . S
C149 H126 0.930 . S
C149 C150 1.328 . S
C150 C121 1.427 . S
C150 H127 0.929 . S
C150 C149 1.328 . S
C151 O135 1.264 . S
C151 O136 1.243 . S
C152 C155 1.399 . S
C152 C156 1.383 1_554 S
C152 C159 1.496 . S
C153 C154 1.399 1_556 S
C153 C156 1.389 . S
C154 C153 1.399 1_554 S
C154 C157 1.380 . S
C154 H164 0.929 . S
C155 C152 1.399 . S
C155 C157 1.392 . S
C155 H165 0.929 . S
C156 C152 1.383 1_556 S
C156 C153 1.389 . S
C156 H166 0.931 . S
C157 C154 1.380 . S
C157 C155 1.392 . S
C157 H167 0.929 . S
C158 O138 1.266 . S
C158 O139 1.248 . S
C159 Tb95 2.802 . S
C159 O134 1.264 . S
C159 O137 1.256 . S
C159 C152 1.496 . S
H160 C143 0.929 . S
H161 C144 0.929 1_556 S
H162 C145 0.929 1_556 S
H163 C146 0.931 . S
H164 C154 0.929 . S
H165 C155 0.929 . S
H166 C156 0.931 . S
H167 C157 0.929 . S
Tb168 N197 2.617 . S
Tb168 N203 2.572 1_554 S
Tb168 O212 2.465 1_554 S
Tb168 O213 2.387 . S
Tb168 O215 2.428 . S
Tb168 O216 2.308 1_554 S
Tb168 O220 2.349 . S
Tb168 O223 2.393 . S
Tb168 C232 2.802 . S
C169 N170 1.379 . S
C169 C172 1.416 . S
C169 C176 1.424 1_556 S
N170 C169 1.379 . S
N170 C173 1.334 . S
N170 Tb179 2.617 1_565 S
C171 C173 1.390 . S
C171 C174 1.339 . S
C171 H191 0.930 . S
C172 C169 1.416 . S
C172 C174 1.416 . S
C172 C178 1.448 . S
C173 N170 1.334 . S
C173 C171 1.390 . S
C173 H184 0.930 . S
C174 C171 1.339 . S
C174 C172 1.416 . S
C174 H195 0.930 . S
C175 C176 1.413 . S
C175 C177 1.427 1_554 S
C175 C181 1.416 . S
C176 C169 1.424 1_554 S
C176 C175 1.413 . S
C176 N180 1.361 . S
C177 C175 1.427 1_556 S
C177 C178 1.328 . S
C177 H192 0.929 1_556 S
C178 C172 1.448 . S
C178 C177 1.328 . S
C178 H193 0.930 . S
Tb179 N170 2.617 1_545 S
Tb179 N180 2.572 1_546 S
Tb179 O214 2.349 . S
Tb179 O217 2.393 . S
Tb179 O218 2.465 1_556 S
Tb179 O219 2.387 . S
Tb179 O221 2.428 . S
Tb179 O222 2.308 1_556 S
Tb179 C243 2.802 . S
N180 C176 1.361 . S
N180 Tb179 2.572 1_564 S
N180 C182 1.340 . S
C181 C175 1.416 . S
C181 C183 1.332 . S
C181 H189 0.931 . S
C182 N180 1.340 . S
C182 C183 1.407 . S
C182 H188 0.930 1_565 S
C183 C181 1.332 . S
C183 C182 1.407 . S
C183 H185 0.929 . S
H184 C173 0.930 . S
H185 C183 0.929 . S
H186 C201 0.930 . S
H187 C208 0.929 . S
H188 C182 0.930 1_545 S
H189 C181 0.931 . S
H190 C204 0.930 . S
H191 C171 0.930 . S
H192 C177 0.929 1_554 S
H193 C178 0.930 . S
H194 C199 0.930 . S
H195 C174 0.930 . S
H196 C207 0.931 . S
N197 Tb168 2.617 . S
N197 C198 1.379 . S
N197 C201 1.334 . S
C198 N197 1.379 . S
C198 C200 1.416 . S
C198 C206 1.424 . S
C199 H194 0.930 . S
C199 C201 1.390 . S
C199 C202 1.339 . S
C200 C198 1.416 . S
C200 C202 1.416 . S
C200 C233 1.448 . S
C201 H186 0.930 . S
C201 N197 1.334 . S
C201 C199 1.390 . S
C202 C199 1.339 . S
C202 C200 1.416 . S
C202 H209 0.930 . S
N203 Tb168 2.572 1_556 S
N203 C204 1.340 . S
N203 C206 1.361 1_556 S
C204 H190 0.930 . S
C204 N203 1.340 . S
C204 C208 1.407 . S
C205 C206 1.413 1_556 S
C205 C207 1.416 . S
C205 C234 1.427 1_556 S
C206 C198 1.424 . S
C206 N203 1.361 1_554 S
C206 C205 1.413 1_554 S
C207 H196 0.931 . S
C207 C205 1.416 . S
C207 C208 1.332 . S
C208 H187 0.929 . S
C208 C204 1.407 . S
C208 C207 1.332 . S
H209 C202 0.930 . S
H210 C233 0.930 . S
H211 C234 0.929 . S
O212 Tb168 2.465 1_556 S
O212 C232 1.264 1_556 S
O213 Tb168 2.387 . S
O213 C224 1.264 . S
O214 Tb179 2.349 . S
O214 C224 1.243 1_556 S
O215 Tb168 2.428 . S
O215 C232 1.256 . S
O216 Tb168 2.308 1_556 S
O216 C231 1.266 . S
O217 Tb179 2.393 . S
O217 C231 1.248 . S
O218 Tb179 2.465 1_554 S
O218 C243 1.264 1_554 S
O219 Tb179 2.387 . S
O219 C235 1.264 1_556 S
O220 Tb168 2.349 . S
O220 C235 1.243 . S
O221 Tb179 2.428 . S
O221 C243 1.256 . S
O222 Tb179 2.308 1_554 S
O222 C242 1.266 . S
O223 Tb168 2.393 . S
O223 C242 1.248 . S
C224 O213 1.264 . S
C224 O214 1.243 1_554 S
C225 C228 1.399 . S
C225 C230 1.383 1_554 S
C225 C232 1.496 . S
C226 C227 1.399 1_556 S
C226 C230 1.389 . S
C227 C226 1.399 1_554 S
C227 C229 1.380 . S
C227 H244 0.929 . S
C228 C225 1.399 . S
C228 C229 1.392 . S
C228 H245 0.929 . S
C229 C227 1.380 . S
C229 C228 1.392 . S
C229 H246 0.929 . S
C230 C225 1.383 1_556 S
C230 C226 1.389 . S
C230 H247 0.931 . S
C231 O216 1.266 . S
C231 O217 1.248 . S
C232 Tb168 2.802 . S
C232 O212 1.264 1_554 S
C232 O215 1.256 . S
C232 C225 1.496 . S
C233 C200 1.448 . S
C233 H210 0.930 . S
C233 C234 1.328 . S
C234 C205 1.427 1_554 S
C234 H211 0.929 . S
C234 C233 1.328 . S
C235 O219 1.264 1_554 S
C235 O220 1.243 . S
C236 C239 1.399 1_545 S
C236 C240 1.383 1_556 S
C236 C243 1.496 . S
C237 C238 1.399 . S
C237 C240 1.389 1_565 S
C238 C237 1.399 . S
C238 C241 1.380 1_554 S
C238 H248 0.929 . S
C239 C236 1.399 1_565 S
C239 C241 1.392 . S
C239 H249 0.929 . S
C240 C236 1.383 1_554 S
C240 C237 1.389 1_545 S
C240 H250 0.931 . S
C241 C238 1.380 1_556 S
C241 C239 1.392 . S
C241 H251 0.929 . S
C242 O222 1.266 . S
C242 O223 1.248 . S
C243 Tb179 2.802 . S
C243 O218 1.264 1_556 S
C243 O221 1.256 . S
C243 C236 1.496 . S
H244 C227 0.929 . S
H245 C228 0.929 . S
H246 C229 0.929 . S
H247 C230 0.931 . S
H248 C238 0.929 . S
H249 C239 0.929 . S
H250 C240 0.931 . S
H251 C241 0.929 . S
Tb252 N281 2.617 . S
Tb252 N287 2.572 . S
Tb252 O296 2.465 . S
Tb252 O297 2.387 . S
Tb252 O299 2.428 . S
Tb252 O300 2.308 . S
Tb252 O304 2.349 . S
Tb252 O307 2.393 . S
Tb252 C316 2.802 . S
C253 N254 1.379 . S
C253 C256 1.416 . S
C253 C260 1.424 . S
N254 C253 1.379 . S
N254 C257 1.334 . S
N254 Tb263 2.617 . S
C255 C257 1.390 . S
C255 C258 1.339 . S
C255 H275 0.930 . S
C256 C253 1.416 . S
C256 C258 1.416 . S
C256 C262 1.448 . S
C257 N254 1.334 . S
C257 C255 1.390 . S
C257 H268 0.930 . S
C258 C255 1.339 . S
C258 C256 1.416 . S
C258 H279 0.930 . S
C259 C260 1.413 . S
C259 C261 1.427 . S
C259 C265 1.416 . S
C260 C253 1.424 . S
C260 C259 1.413 . S
C260 N264 1.361 . S
C261 C259 1.427 . S
C261 C262 1.328 . S
C261 H276 0.929 . S
C262 C256 1.448 . S
C262 C261 1.328 . S
C262 H277 0.930 . S
Tb263 N254 2.617 . S
Tb263 N264 2.572 . S
Tb263 O298 2.349 . S
Tb263 O301 2.393 . S
Tb263 O302 2.465 . S
Tb263 O303 2.387 . S
Tb263 O305 2.428 . S
Tb263 O306 2.308 . S
Tb263 C327 2.802 . S
N264 C260 1.361 . S
N264 Tb263 2.572 . S
N264 C266 1.340 . S
C265 C259 1.416 . S
C265 C267 1.332 . S
C265 H273 0.931 . S
C266 N264 1.340 . S
C266 C267 1.407 . S
C266 H272 0.930 . S
C267 C265 1.332 . S
C267 C266 1.407 . S
C267 H269 0.929 . S
H268 C257 0.930 . S
H269 C267 0.929 . S
H270 C285 0.930 . S
H271 C292 0.929 . S
H272 C266 0.930 . S
H273 C265 0.931 . S
H274 C288 0.930 . S
H275 C255 0.930 . S
H276 C261 0.929 . S
H277 C262 0.930 . S
H278 C283 0.930 . S
H279 C258 0.930 . S
H280 C291 0.931 1_556 S
N281 Tb252 2.617 . S
N281 C282 1.379 . S
N281 C285 1.334 . S
C282 N281 1.379 . S
C282 C284 1.416 . S
C282 C290 1.424 . S
C283 H278 0.930 . S
C283 C285 1.390 . S
C283 C286 1.339 . S
C284 C282 1.416 . S
C284 C286 1.416 . S
C284 C317 1.448 . S
C285 H270 0.930 . S
C285 N281 1.334 . S
C285 C283 1.390 . S
C286 C283 1.339 . S
C286 C284 1.416 . S
C286 H293 0.930 . S
N287 Tb252 2.572 . S
N287 C288 1.340 . S
N287 C290 1.361 . S
C288 H274 0.930 . S
C288 N287 1.340 . S
C288 C292 1.407 1_554 S
C289 C290 1.413 . S
C289 C291 1.416 . S
C289 C318 1.427 . S
C290 C282 1.424 . S
C290 N287 1.361 . S
C290 C289 1.413 . S
C291 H280 0.931 1_554 S
C291 C289 1.416 . S
C291 C292 1.332 1_554 S
C292 H271 0.929 . S
C292 C288 1.407 1_556 S
C292 C291 1.332 1_556 S
H293 C286 0.930 . S
H294 C317 0.930 . S
H295 C318 0.929 . S
O296 Tb252 2.465 . S
O296 C316 1.264 . S
O297 Tb252 2.387 . S
O297 C308 1.264 . S
O298 Tb263 2.349 . S
O298 C308 1.243 . S
O299 Tb252 2.428 . S
O299 C316 1.256 . S
O300 Tb252 2.308 . S
O300 C315 1.266 . S
O301 Tb263 2.393 . S
O301 C315 1.248 . S
O302 Tb263 2.465 . S
O302 C327 1.264 . S
O303 Tb263 2.387 . S
O303 C319 1.264 . S
O304 Tb252 2.349 . S
O304 C319 1.243 . S
O305 Tb263 2.428 . S
O305 C327 1.256 . S
O306 Tb263 2.308 . S
O306 C326 1.266 . S
O307 Tb252 2.393 . S
O307 C326 1.248 . S
C308 O297 1.264 . S
C308 O298 1.243 . S
C309 C312 1.399 . S
C309 C314 1.383 . S
C309 C316 1.496 . S
C310 C311 1.399 . S
C310 C314 1.389 . S
C311 C310 1.399 . S
C311 C313 1.380 . S
C311 H328 0.929 . S
C312 C309 1.399 . S
C312 C313 1.392 . S
C312 H329 0.929 . S
C313 C311 1.380 . S
C313 C312 1.392 . S
C313 H330 0.929 . S
C314 C309 1.383 . S
C314 C310 1.389 . S
C314 H331 0.931 . S
C315 O300 1.266 . S
C315 O301 1.248 . S
C316 Tb252 2.802 . S
C316 O296 1.264 . S
C316 O299 1.256 . S
C316 C309 1.496 . S
C317 C284 1.448 . S
C317 H294 0.930 . S
C317 C318 1.328 . S
C318 C289 1.427 . S
C318 H295 0.929 . S
C318 C317 1.328 . S
C319 O303 1.264 . S
C319 O304 1.243 . S
C320 C323 1.399 . S
C320 C324 1.383 . S
C320 C327 1.496 . S
C321 C322 1.399 . S
C321 C324 1.389 . S
C322 C321 1.399 . S
C322 C325 1.380 . S
C322 H332 0.929 . S
C323 C320 1.399 . S
C323 C325 1.392 . S
C323 H333 0.929 . S
C324 C320 1.383 . S
C324 C321 1.389 . S
C324 H334 0.931 . S
C325 C322 1.380 . S
C325 C323 1.392 . S
C325 H335 0.929 . S
C326 O306 1.266 . S
C326 O307 1.248 . S
C327 Tb263 2.802 . S
C327 O302 1.264 . S
C327 O305 1.256 . S
C327 C320 1.496 . S
H328 C311 0.929 . S
H329 C312 0.929 . S
H330 C313 0.929 . S
H331 C314 0.931 . S
H332 C322 0.929 . S
H333 C323 0.929 . S
H334 C324 0.931 . S
H335 C325 0.929 . S
Tb336 N365 2.617 . S
Tb336 N371 2.572 . S
Tb336 O380 2.465 . S
Tb336 O381 2.387 . S
Tb336 O383 2.428 . S
Tb336 O384 2.308 . S
Tb336 O388 2.349 . S
Tb336 O391 2.393 . S
Tb336 C400 2.802 . S
C337 N338 1.379 . S
C337 C340 1.416 . S
C337 C344 1.424 . S
N338 C337 1.379 . S
N338 C341 1.334 . S
N338 Tb347 2.617 . S
C339 C341 1.390 . S
C339 C342 1.339 . S
C339 H359 0.930 . S
C340 C337 1.416 . S
C340 C342 1.416 . S
C340 C346 1.448 . S
C341 N338 1.334 . S
C341 C339 1.390 . S
C341 H352 0.930 . S
C342 C339 1.339 . S
C342 C340 1.416 . S
C342 H363 0.930 . S
C343 C344 1.413 . S
C343 C345 1.427 . S
C343 C349 1.416 . S
C344 C337 1.424 . S
C344 C343 1.413 . S
C344 N348 1.361 . S
C345 C343 1.427 . S
C345 C346 1.328 . S
C345 H360 0.929 . S
C346 C340 1.448 . S
C346 C345 1.328 . S
C346 H361 0.930 . S
Tb347 N338 2.617 . S
Tb347 N348 2.572 . S
Tb347 O382 2.349 . S
Tb347 O385 2.393 . S
Tb347 O386 2.465 . S
Tb347 O387 2.387 . S
Tb347 O389 2.428 . S
Tb347 O390 2.308 . S
Tb347 C411 2.802 . S
N348 C344 1.361 . S
N348 Tb347 2.572 . S
N348 C350 1.340 . S
C349 C343 1.416 . S
C349 C351 1.332 . S
C349 H357 0.931 . S
C350 N348 1.340 . S
C350 C351 1.407 . S
C350 H356 0.930 . S
C351 C349 1.332 . S
C351 C350 1.407 . S
C351 H353 0.929 . S
H352 C341 0.930 . S
H353 C351 0.929 . S
H354 C369 0.930 . S
H355 C376 0.929 . S
H356 C350 0.930 . S
H357 C349 0.931 . S
H358 C372 0.930 . S
H359 C339 0.930 . S
H360 C345 0.929 . S
H361 C346 0.930 . S
H362 C367 0.930 . S
H363 C342 0.930 . S
H364 C375 0.931 . S
N365 Tb336 2.617 . S
N365 C366 1.379 . S
N365 C369 1.334 . S
C366 N365 1.379 . S
C366 C368 1.416 . S
C366 C374 1.424 . S
C367 H362 0.930 . S
C367 C369 1.390 . S
C367 C370 1.339 . S
C368 C366 1.416 . S
C368 C370 1.416 . S
C368 C401 1.448 . S
C369 H354 0.930 . S
C369 N365 1.334 . S
C369 C367 1.390 . S
C370 C367 1.339 . S
C370 C368 1.416 . S
C370 H377 0.930 . S
N371 Tb336 2.572 . S
N371 C372 1.340 . S
N371 C374 1.361 . S
C372 H358 0.930 . S
C372 N371 1.340 . S
C372 C376 1.407 . S
C373 C374 1.413 . S
C373 C375 1.416 . S
C373 C402 1.427 . S
C374 C366 1.424 . S
C374 N371 1.361 . S
C374 C373 1.413 . S
C375 H364 0.931 . S
C375 C373 1.416 . S
C375 C376 1.332 . S
C376 H355 0.929 . S
C376 C372 1.407 . S
C376 C375 1.332 . S
H377 C370 0.930 . S
H378 C401 0.930 . S
H379 C402 0.929 . S
O380 Tb336 2.465 . S
O380 C400 1.264 . S
O381 Tb336 2.387 . S
O381 C392 1.264 . S
O382 Tb347 2.349 . S
O382 C392 1.243 . S
O383 Tb336 2.428 . S
O383 C400 1.256 . S
O384 Tb336 2.308 . S
O384 C399 1.266 . S
O385 Tb347 2.393 . S
O385 C399 1.248 . S
O386 Tb347 2.465 . S
O386 C411 1.264 . S
O387 Tb347 2.387 . S
O387 C403 1.264 . S
O388 Tb336 2.349 . S
O388 C403 1.243 . S
O389 Tb347 2.428 . S
O389 C411 1.256 . S
O390 Tb347 2.308 . S
O390 C410 1.266 . S
O391 Tb336 2.393 . S
O391 C410 1.248 . S
C392 O381 1.264 . S
C392 O382 1.243 . S
C393 C396 1.399 . S
C393 C398 1.383 . S
C393 C400 1.496 . S
C394 C395 1.399 . S
C394 C398 1.389 . S
C395 C394 1.399 . S
C395 C397 1.380 . S
C395 H412 0.929 . S
C396 C393 1.399 . S
C396 C397 1.392 . S
C396 H413 0.929 . S
C397 C395 1.380 . S
C397 C396 1.392 . S
C397 H414 0.929 . S
C398 C393 1.383 . S
C398 C394 1.389 . S
C398 H415 0.931 . S
C399 O384 1.266 . S
C399 O385 1.248 . S
C400 Tb336 2.802 . S
C400 O380 1.264 . S
C400 O383 1.256 . S
C400 C393 1.496 . S
C401 C368 1.448 . S
C401 H378 0.930 . S
C401 C402 1.328 . S
C402 C373 1.427 . S
C402 H379 0.929 . S
C402 C401 1.328 . S
C403 O387 1.264 . S
C403 O388 1.243 . S
C404 C407 1.399 . S
C404 C408 1.383 . S
C404 C411 1.496 . S
C405 C406 1.399 . S
C405 C408 1.389 . S
C406 C405 1.399 . S
C406 C409 1.380 . S
C406 H416 0.929 . S
C407 C404 1.399 . S
C407 C409 1.392 . S
C407 H417 0.929 . S
C408 C404 1.383 . S
C408 C405 1.389 . S
C408 H418 0.931 . S
C409 C406 1.380 . S
C409 C407 1.392 . S
C409 H419 0.929 . S
C410 O390 1.266 . S
C410 O391 1.248 . S
C411 Tb347 2.802 . S
C411 O386 1.264 . S
C411 O389 1.256 . S
C411 C404 1.496 . S
H412 C395 0.929 . S
H413 C396 0.929 . S
H414 C397 0.929 . S
H415 C398 0.931 . S
H416 C406 0.929 . S
H417 C407 0.929 . S
H418 C408 0.931 . S
H419 C409 0.929 . S
Tb420 N449 2.617 . S
Tb420 N455 2.572 . S
Tb420 O464 2.465 . S
Tb420 O465 2.387 . S
Tb420 O467 2.428 . S
Tb420 O468 2.308 . S
Tb420 O472 2.349 . S
Tb420 O475 2.393 . S
Tb420 C484 2.802 . S
C421 N422 1.379 . S
C421 C424 1.416 . S
C421 C428 1.424 . S
N422 C421 1.379 . S
N422 C425 1.334 . S
N422 Tb431 2.617 . S
C423 C425 1.390 . S
C423 C426 1.339 . S
C423 H443 0.930 . S
C424 C421 1.416 . S
C424 C426 1.416 . S
C424 C430 1.448 . S
C425 N422 1.334 . S
C425 C423 1.390 . S
C425 H436 0.930 . S
C426 C423 1.339 . S
C426 C424 1.416 . S
C426 H447 0.930 . S
C427 C428 1.413 . S
C427 C429 1.427 . S
C427 C433 1.416 . S
C428 C421 1.424 . S
C428 C427 1.413 . S
C428 N432 1.361 . S
C429 C427 1.427 . S
C429 C430 1.328 . S
C429 H444 0.929 . S
C430 C424 1.448 . S
C430 C429 1.328 . S
C430 H445 0.930 . S
Tb431 N422 2.617 . S
Tb431 N432 2.572 . S
Tb431 O466 2.349 . S
Tb431 O469 2.393 . S
Tb431 O470 2.465 . S
Tb431 O471 2.387 . S
Tb431 O473 2.428 . S
Tb431 O474 2.308 . S
Tb431 C495 2.802 . S
N432 C428 1.361 . S
N432 Tb431 2.572 . S
N432 C434 1.340 . S
C433 C427 1.416 . S
C433 C435 1.332 . S
C433 H441 0.931 . S
C434 N432 1.340 . S
C434 C435 1.407 . S
C434 H440 0.930 . S
C435 C433 1.332 . S
C435 C434 1.407 . S
C435 H437 0.929 . S
H436 C425 0.930 . S
H437 C435 0.929 . S
H438 C453 0.930 . S
H439 C460 0.929 . S
H440 C434 0.930 . S
H441 C433 0.931 . S
H442 C456 0.930 . S
H443 C423 0.930 . S
H444 C429 0.929 . S
H445 C430 0.930 . S
H446 C451 0.930 . S
H447 C426 0.930 . S
H448 C459 0.931 . S
N449 Tb420 2.617 . S
N449 C450 1.379 . S
N449 C453 1.334 . S
C450 N449 1.379 . S
C450 C452 1.416 . S
C450 C458 1.424 . S
C451 H446 0.930 . S
C451 C453 1.390 . S
C451 C454 1.339 . S
C452 C450 1.416 . S
C452 C454 1.416 . S
C452 C485 1.448 . S
C453 H438 0.930 . S
C453 N449 1.334 . S
C453 C451 1.390 . S
C454 C451 1.339 . S
C454 C452 1.416 . S
C454 H461 0.930 . S
N455 Tb420 2.572 . S
N455 C456 1.340 . S
N455 C458 1.361 . S
C456 H442 0.930 . S
C456 N455 1.340 . S
C456 C460 1.407 . S
C457 C458 1.413 . S
C457 C459 1.416 . S
C457 C486 1.427 . S
C458 C450 1.424 . S
C458 N455 1.361 . S
C458 C457 1.413 . S
C459 H448 0.931 . S
C459 C457 1.416 . S
C459 C460 1.332 . S
C460 H439 0.929 . S
C460 C456 1.407 . S
C460 C459 1.332 . S
H461 C454 0.930 . S
H462 C485 0.930 . S
H463 C486 0.929 . S
O464 Tb420 2.465 . S
O464 C484 1.264 . S
O465 Tb420 2.387 . S
O465 C476 1.264 . S
O466 Tb431 2.349 . S
O466 C476 1.243 . S
O467 Tb420 2.428 . S
O467 C484 1.256 . S
O468 Tb420 2.308 . S
O468 C483 1.266 . S
O469 Tb431 2.393 . S
O469 C483 1.248 . S
O470 Tb431 2.465 . S
O470 C495 1.264 . S
O471 Tb431 2.387 . S
O471 C487 1.264 . S
O472 Tb420 2.349 . S
O472 C487 1.243 . S
O473 Tb431 2.428 . S
O473 C495 1.256 . S
O474 Tb431 2.308 . S
O474 C494 1.266 . S
O475 Tb420 2.393 . S
O475 C494 1.248 . S
C476 O465 1.264 . S
C476 O466 1.243 . S
C477 C480 1.399 . S
C477 C482 1.383 . S
C477 C484 1.496 . S
C478 C479 1.399 . S
C478 C482 1.389 . S
C479 C478 1.399 . S
C479 C481 1.380 . S
C479 H496 0.929 . S
C480 C477 1.399 . S
C480 C481 1.392 . S
C480 H497 0.929 . S
C481 C479 1.380 . S
C481 C480 1.392 . S
C481 H498 0.929 . S
C482 C477 1.383 . S
C482 C478 1.389 . S
C482 H499 0.931 . S
C483 O468 1.266 . S
C483 O469 1.248 . S
C484 Tb420 2.802 . S
C484 O464 1.264 . S
C484 O467 1.256 . S
C484 C477 1.496 . S
C485 C452 1.448 . S
C485 H462 0.930 . S
C485 C486 1.328 . S
C486 C457 1.427 . S
C486 H463 0.929 . S
C486 C485 1.328 . S
C487 O471 1.264 . S
C487 O472 1.243 . S
C488 C491 1.399 . S
C488 C492 1.383 . S
C488 C495 1.496 . S
C489 C490 1.399 . S
C489 C492 1.389 . S
C490 C489 1.399 . S
C490 C493 1.380 . S
C490 H500 0.929 . S
C491 C488 1.399 . S
C491 C493 1.392 . S
C491 H501 0.929 . S
C492 C488 1.383 . S
C492 C489 1.389 . S
C492 H502 0.931 . S
C493 C490 1.380 . S
C493 C491 1.392 . S
C493 H503 0.929 . S
C494 O474 1.266 . S
C494 O475 1.248 . S
C495 Tb431 2.802 . S
C495 O470 1.264 . S
C495 O473 1.256 . S
C495 C488 1.496 . S
H496 C479 0.929 . S
H497 C480 0.929 . S
H498 C481 0.929 . S
H499 C482 0.931 . S
H500 C490 0.929 . S
H501 C491 0.929 . S
H502 C492 0.931 . S
H503 C493 0.929 . S
Tb504 N533 2.617 . S
Tb504 N539 2.572 . S
Tb504 O548 2.465 . S
Tb504 O549 2.387 . S
Tb504 O551 2.428 . S
Tb504 O552 2.308 . S
Tb504 O556 2.349 . S
Tb504 O559 2.393 . S
Tb504 C568 2.802 . S
C505 N506 1.379 . S
C505 C508 1.416 . S
C505 C512 1.424 . S
N506 C505 1.379 . S
N506 C509 1.334 . S
N506 Tb515 2.617 . S
C507 C509 1.390 . S
C507 C510 1.339 . S
C507 H527 0.930 . S
C508 C505 1.416 . S
C508 C510 1.416 . S
C508 C514 1.448 . S
C509 N506 1.334 . S
C509 C507 1.390 . S
C509 H520 0.930 . S
C510 C507 1.339 . S
C510 C508 1.416 . S
C510 H531 0.930 . S
C511 C512 1.413 . S
C511 C513 1.427 . S
C511 C517 1.416 . S
C512 C505 1.424 . S
C512 C511 1.413 . S
C512 N516 1.361 . S
C513 C511 1.427 . S
C513 C514 1.328 . S
C513 H528 0.929 . S
C514 C508 1.448 . S
C514 C513 1.328 . S
C514 H529 0.930 . S
Tb515 N506 2.617 . S
Tb515 N516 2.572 . S
Tb515 O550 2.349 . S
Tb515 O553 2.393 . S
Tb515 O554 2.465 . S
Tb515 O555 2.387 . S
Tb515 O557 2.428 . S
Tb515 O558 2.308 . S
Tb515 C579 2.802 . S
N516 C512 1.361 . S
N516 Tb515 2.572 . S
N516 C518 1.340 . S
C517 C511 1.416 . S
C517 C519 1.332 . S
C517 H525 0.931 . S
C518 N516 1.340 . S
C518 C519 1.407 . S
C518 H524 0.930 . S
C519 C517 1.332 . S
C519 C518 1.407 . S
C519 H521 0.929 . S
H520 C509 0.930 . S
H521 C519 0.929 . S
H522 C537 0.930 . S
H523 C544 0.929 . S
H524 C518 0.930 . S
H525 C517 0.931 . S
H526 C540 0.930 . S
H527 C507 0.930 . S
H528 C513 0.929 . S
H529 C514 0.930 . S
H530 C535 0.930 . S
H531 C510 0.930 . S
H532 C543 0.931 . S
N533 Tb504 2.617 . S
N533 C534 1.379 . S
N533 C537 1.334 . S
C534 N533 1.379 . S
C534 C536 1.416 . S
C534 C542 1.424 . S
C535 H530 0.930 . S
C535 C537 1.390 . S
C535 C538 1.339 . S
C536 C534 1.416 . S
C536 C538 1.416 . S
C536 C569 1.448 . S
C537 H522 0.930 . S
C537 N533 1.334 . S
C537 C535 1.390 . S
C538 C535 1.339 . S
C538 C536 1.416 . S
C538 H545 0.930 . S
N539 Tb504 2.572 . S
N539 C540 1.340 . S
N539 C542 1.361 . S
C540 H526 0.930 . S
C540 N539 1.340 . S
C540 C544 1.407 . S
C541 C542 1.413 . S
C541 C543 1.416 . S
C541 C570 1.427 . S
C542 C534 1.424 . S
C542 N539 1.361 . S
C542 C541 1.413 . S
C543 H532 0.931 . S
C543 C541 1.416 . S
C543 C544 1.332 . S
C544 H523 0.929 . S
C544 C540 1.407 . S
C544 C543 1.332 . S
H545 C538 0.930 . S
H546 C569 0.930 . S
H547 C570 0.929 . S
O548 Tb504 2.465 . S
O548 C568 1.264 . S
O549 Tb504 2.387 . S
O549 C560 1.264 . S
O550 Tb515 2.349 . S
O550 C560 1.243 . S
O551 Tb504 2.428 . S
O551 C568 1.256 . S
O552 Tb504 2.308 . S
O552 C567 1.266 . S
O553 Tb515 2.393 . S
O553 C567 1.248 . S
O554 Tb515 2.465 . S
O554 C579 1.264 . S
O555 Tb515 2.387 . S
O555 C571 1.264 . S
O556 Tb504 2.349 . S
O556 C571 1.243 . S
O557 Tb515 2.428 . S
O557 C579 1.256 . S
O558 Tb515 2.308 . S
O558 C578 1.266 . S
O559 Tb504 2.393 . S
O559 C578 1.248 . S
C560 O549 1.264 . S
C560 O550 1.243 . S
C561 C564 1.399 1_556 S
C561 C566 1.383 1_556 S
C561 C568 1.496 . S
C562 C563 1.399 . S
C562 C566 1.389 . S
C563 C562 1.399 . S
C563 C565 1.380 . S
C563 H580 0.929 . S
C564 C561 1.399 1_554 S
C564 C565 1.392 . S
C564 H581 0.929 1_554 S
C565 C563 1.380 . S
C565 C564 1.392 . S
C565 H582 0.929 . S
C566 C561 1.383 1_554 S
C566 C562 1.389 . S
C566 H583 0.931 . S
C567 O552 1.266 . S
C567 O553 1.248 . S
C568 Tb504 2.802 . S
C568 O548 1.264 . S
C568 O551 1.256 . S
C568 C561 1.496 . S
C569 C536 1.448 . S
C569 H546 0.930 . S
C569 C570 1.328 . S
C570 C541 1.427 . S
C570 H547 0.929 . S
C570 C569 1.328 . S
C571 O555 1.264 . S
C571 O556 1.243 . S
C572 C575 1.399 . S
C572 C576 1.383 . S
C572 C579 1.496 . S
C573 C574 1.399 . S
C573 C576 1.389 . S
C574 C573 1.399 . S
C574 C577 1.380 . S
C574 H584 0.929 . S
C575 C572 1.399 . S
C575 C577 1.392 . S
C575 H585 0.929 . S
C576 C572 1.383 . S
C576 C573 1.389 . S
C576 H586 0.931 . S
C577 C574 1.380 . S
C577 C575 1.392 . S
C577 H587 0.929 . S
C578 O558 1.266 . S
C578 O559 1.248 . S
C579 Tb515 2.802 . S
C579 O554 1.264 . S
C579 O557 1.256 . S
C579 C572 1.496 . S
H580 C563 0.929 . S
H581 C564 0.929 1_556 S
H582 C565 0.929 . S
H583 C566 0.931 . S
H584 C574 0.929 . S
H585 C575 0.929 . S
H586 C576 0.931 . S
H587 C577 0.929 . S
Tb588 N617 2.617 . S
Tb588 N623 2.572 . S
Tb588 O632 2.465 . S
Tb588 O633 2.387 . S
Tb588 O635 2.428 . S
Tb588 O636 2.308 . S
Tb588 O640 2.349 . S
Tb588 O643 2.393 . S
Tb588 C652 2.802 . S
C589 N590 1.379 . S
C589 C592 1.416 . S
C589 C596 1.424 . S
N590 C589 1.379 . S
N590 C593 1.334 . S
N590 Tb599 2.617 . S
C591 C593 1.390 . S
C591 C594 1.339 . S
C591 H611 0.930 . S
C592 C589 1.416 . S
C592 C594 1.416 . S
C592 C598 1.448 . S
C593 N590 1.334 . S
C593 C591 1.390 . S
C593 H604 0.930 . S
C594 C591 1.339 . S
C594 C592 1.416 . S
C594 H615 0.930 . S
C595 C596 1.413 . S
C595 C597 1.427 . S
C595 C601 1.416 . S
C596 C589 1.424 . S
C596 C595 1.413 . S
C596 N600 1.361 . S
C597 C595 1.427 . S
C597 C598 1.328 . S
C597 H612 0.929 . S
C598 C592 1.448 . S
C598 C597 1.328 . S
C598 H613 0.930 . S
Tb599 N590 2.617 . S
Tb599 N600 2.572 . S
Tb599 O634 2.349 . S
Tb599 O637 2.393 . S
Tb599 O638 2.465 . S
Tb599 O639 2.387 . S
Tb599 O641 2.428 . S
Tb599 O642 2.308 . S
Tb599 C663 2.802 . S
N600 C596 1.361 . S
N600 Tb599 2.572 . S
N600 C602 1.340 . S
C601 C595 1.416 . S
C601 C603 1.332 . S
C601 H609 0.929 . S
C602 N600 1.340 . S
C602 C603 1.407 . S
C602 H608 0.930 . S
C603 C601 1.332 . S
C603 C602 1.407 . S
C603 H605 0.929 . S
H604 C593 0.930 . S
H605 C603 0.929 . S
H606 C621 0.930 . S
H607 C628 0.929 . S
H608 C602 0.930 . S
H609 C601 0.929 . S
H610 C624 0.930 . S
H611 C591 0.930 . S
H612 C597 0.929 . S
H613 C598 0.930 . S
H614 C619 0.930 . S
H615 C594 0.930 . S
H616 C627 0.931 . S
N617 Tb588 2.617 . S
N617 C618 1.379 . S
N617 C621 1.334 . S
C618 N617 1.379 . S
C618 C620 1.416 . S
C618 C626 1.424 . S
C619 H614 0.930 . S
C619 C621 1.390 . S
C619 C622 1.339 . S
C620 C618 1.416 . S
C620 C622 1.416 . S
C620 C653 1.448 . S
C621 H606 0.930 . S
C621 N617 1.334 . S
C621 C619 1.390 . S
C622 C619 1.339 . S
C622 C620 1.416 . S
C622 H629 0.930 . S
N623 Tb588 2.572 . S
N623 C624 1.340 . S
N623 C626 1.361 . S
C624 H610 0.930 . S
C624 N623 1.340 . S
C624 C628 1.407 . S
C625 C626 1.413 . S
C625 C627 1.416 . S
C625 C654 1.427 . S
C626 C618 1.424 . S
C626 N623 1.361 . S
C626 C625 1.413 . S
C627 H616 0.931 . S
C627 C625 1.416 . S
C627 C628 1.332 . S
C628 H607 0.929 . S
C628 C624 1.407 . S
C628 C627 1.332 . S
H629 C622 0.930 . S
H630 C653 0.930 . S
H631 C654 0.929 . S
O632 Tb588 2.465 . S
O632 C652 1.264 . S
O633 Tb588 2.387 . S
O633 C644 1.264 . S
O634 Tb599 2.349 . S
O634 C644 1.243 . S
O635 Tb588 2.428 . S
O635 C652 1.256 . S
O636 Tb588 2.308 . S
O636 C651 1.266 . S
O637 Tb599 2.393 . S
O637 C651 1.248 . S
O638 Tb599 2.465 . S
O638 C663 1.264 . S
O639 Tb599 2.387 . S
O639 C655 1.264 . S
O640 Tb588 2.349 . S
O640 C655 1.243 . S
O641 Tb599 2.428 . S
O641 C663 1.256 . S
O642 Tb599 2.308 . S
O642 C662 1.266 . S
O643 Tb588 2.393 . S
O643 C662 1.248 . S
C644 O633 1.264 . S
C644 O634 1.243 . S
C645 C648 1.399 . S
C645 C650 1.383 . S
C645 C652 1.496 . S
C646 C647 1.399 . S
C646 C650 1.389 . S
C647 C646 1.399 . S
C647 C649 1.380 . S
C647 H664 0.929 . S
C648 C645 1.399 . S
C648 C649 1.392 . S
C648 H665 0.929 . S
C649 C647 1.380 . S
C649 C648 1.392 . S
C649 H666 0.929 . S
C650 C645 1.383 . S
C650 C646 1.389 . S
C650 H667 0.931 . S
C651 O636 1.266 . S
C651 O637 1.248 . S
C652 Tb588 2.802 . S
C652 O632 1.264 . S
C652 O635 1.256 . S
C652 C645 1.496 . S
C653 C620 1.448 . S
C653 H630 0.930 . S
C653 C654 1.328 . S
C654 C625 1.427 . S
C654 H631 0.929 . S
C654 C653 1.328 . S
C655 O639 1.264 . S
C655 O640 1.243 . S
C656 C659 1.399 . S
C656 C660 1.383 1_556 S
C656 C663 1.496 . S
C657 C658 1.399 . S
C657 C660 1.389 . S
C658 C657 1.399 . S
C658 C661 1.380 . S
C658 H668 0.929 . S
C659 C656 1.399 . S
C659 C661 1.392 1_556 S
C659 H669 0.929 . S
C660 C656 1.383 1_554 S
C660 C657 1.389 . S
C660 H670 0.931 . S
C661 C658 1.380 . S
C661 C659 1.392 1_554 S
C661 H671 0.929 . S
C662 O642 1.266 . S
C662 O643 1.248 . S
C663 Tb599 2.802 . S
C663 O638 1.264 . S
C663 O641 1.256 . S
C663 C656 1.496 . S
H664 C647 0.929 . S
H665 C648 0.929 . S
H666 C649 0.929 . S
H667 C650 0.931 . S
H668 C658 0.929 . S
H669 C659 0.929 . S
H670 C660 0.931 . S
H671 C661 0.929 . S
Tb672 N701 2.617 . S
Tb672 N707 2.572 . S
Tb672 O716 2.465 . S
Tb672 O717 2.387 . S
Tb672 O719 2.428 . S
Tb672 O720 2.308 . S
Tb672 O724 2.349 . S
Tb672 O727 2.393 . S
Tb672 C736 2.802 . S
C673 N674 1.379 . S
C673 C676 1.416 . S
C673 C680 1.424 . S
N674 C673 1.379 . S
N674 C677 1.334 . S
N674 Tb683 2.617 . S
C675 C677 1.390 . S
C675 C678 1.339 . S
C675 H695 0.930 . S
C676 C673 1.416 . S
C676 C678 1.416 . S
C676 C682 1.448 . S
C677 N674 1.334 . S
C677 C675 1.390 . S
C677 H688 0.930 . S
C678 C675 1.339 . S
C678 C676 1.416 . S
C678 H699 0.930 . S
C679 C680 1.413 . S
C679 C681 1.427 . S
C679 C685 1.416 . S
C680 C673 1.424 . S
C680 C679 1.413 . S
C680 N684 1.361 . S
C681 C679 1.427 . S
C681 C682 1.328 . S
C681 H696 0.929 . S
C682 C676 1.448 . S
C682 C681 1.328 . S
C682 H697 0.930 . S
Tb683 N674 2.617 . S
Tb683 N684 2.572 . S
Tb683 O718 2.349 . S
Tb683 O721 2.393 . S
Tb683 O722 2.465 . S
Tb683 O723 2.387 . S
Tb683 O725 2.428 . S
Tb683 O726 2.308 . S
Tb683 C747 2.802 . S
N684 C680 1.361 . S
N684 Tb683 2.572 . S
N684 C686 1.340 . S
C685 C679 1.416 . S
C685 C687 1.332 . S
C685 H693 0.931 . S
C686 N684 1.340 . S
C686 C687 1.407 . S
C686 H692 0.930 . S
C687 C685 1.332 . S
C687 C686 1.407 . S
C687 H689 0.929 . S
H688 C677 0.930 . S
H689 C687 0.929 . S
H690 C705 0.930 . S
H691 C712 0.929 . S
H692 C686 0.930 . S
H693 C685 0.931 . S
H694 C708 0.930 . S
H695 C675 0.930 . S
H696 C681 0.929 . S
H697 C682 0.930 . S
H698 C703 0.930 . S
H699 C678 0.930 . S
H700 C711 0.931 1_455 S
N701 Tb672 2.617 . S
N701 C702 1.379 . S
N701 C705 1.334 . S
C702 N701 1.379 . S
C702 C704 1.416 . S
C702 C710 1.424 . S
C703 H698 0.930 . S
C703 C705 1.390 . S
C703 C706 1.339 . S
C704 C702 1.416 . S
C704 C706 1.416 . S
C704 C737 1.448 . S
C705 H690 0.930 . S
C705 N701 1.334 . S
C705 C703 1.390 . S
C706 C703 1.339 . S
C706 C704 1.416 . S
C706 H713 0.930 . S
N707 Tb672 2.572 . S
N707 C708 1.340 . S
N707 C710 1.361 . S
C708 H694 0.930 . S
C708 N707 1.340 . S
C708 C712 1.407 . S
C709 C710 1.413 . S
C709 C711 1.416 . S
C709 C738 1.427 . S
C710 C702 1.424 . S
C710 N707 1.361 . S
C710 C709 1.413 . S
C711 H700 0.931 1_655 S
C711 C709 1.416 . S
C711 C712 1.332 . S
C712 H691 0.929 . S
C712 C708 1.407 . S
C712 C711 1.332 . S
H713 C706 0.930 . S
H714 C737 0.930 . S
H715 C738 0.929 1_455 S
O716 Tb672 2.465 . S
O716 C736 1.264 . S
O717 Tb672 2.387 . S
O717 C728 1.264 . S
O718 Tb683 2.349 . S
O718 C728 1.243 . S
O719 Tb672 2.428 . S
O719 C736 1.256 . S
O720 Tb672 2.308 . S
O720 C735 1.266 . S
O721 Tb683 2.393 . S
O721 C735 1.248 . S
O722 Tb683 2.465 . S
O722 C747 1.264 . S
O723 Tb683 2.387 . S
O723 C739 1.264 . S
O724 Tb672 2.349 . S
O724 C739 1.243 . S
O725 Tb683 2.428 . S
O725 C747 1.256 . S
O726 Tb683 2.308 . S
O726 C746 1.266 . S
O727 Tb672 2.393 . S
O727 C746 1.248 . S
C728 O717 1.264 . S
C728 O718 1.243 . S
C729 C732 1.399 1_556 S
C729 C734 1.383 1_556 S
C729 C736 1.496 . S
C730 C731 1.399 . S
C730 C734 1.389 . S
C731 C730 1.399 . S
C731 C733 1.380 . S
C731 H748 0.929 . S
C732 C729 1.399 1_554 S
C732 C733 1.392 . S
C732 H749 0.929 1_554 S
C733 C731 1.380 . S
C733 C732 1.392 . S
C733 H750 0.929 . S
C734 C729 1.383 1_554 S
C734 C730 1.389 . S
C734 H751 0.931 . S
C735 O720 1.266 . S
C735 O721 1.248 . S
C736 Tb672 2.802 . S
C736 O716 1.264 . S
C736 O719 1.256 . S
C736 C729 1.496 . S
C737 C704 1.448 . S
C737 H714 0.930 . S
C737 C738 1.328 . S
C738 C709 1.427 . S
C738 H715 0.929 1_655 S
C738 C737 1.328 . S
C739 O723 1.264 . S
C739 O724 1.243 . S
C740 C743 1.399 . S
C740 C744 1.383 . S
C740 C747 1.496 . S
C741 C742 1.399 . S
C741 C744 1.389 . S
C742 C741 1.399 . S
C742 C745 1.380 . S
C742 H752 0.929 . S
C743 C740 1.399 . S
C743 C745 1.392 . S
C743 H753 0.929 . S
C744 C740 1.383 . S
C744 C741 1.389 . S
C744 H754 0.931 . S
C745 C742 1.380 . S
C745 C743 1.392 . S
C745 H755 0.929 . S
C746 O726 1.266 . S
C746 O727 1.248 . S
C747 Tb683 2.802 . S
C747 O722 1.264 . S
C747 O725 1.256 . S
C747 C740 1.496 . S
H748 C731 0.929 . S
H749 C732 0.929 1_556 S
H750 C733 0.929 . S
H751 C734 0.931 . S
H752 C742 0.929 . S
H753 C743 0.929 . S
H754 C744 0.931 . S
H755 C745 0.929 . S
H756 C762 0.930 . S
H757 C766 0.966 . S
H758 C771 0.933 1_655 S
H759 C769 0.929 . S
H760 C764 0.955 . S
H761 C770 0.929 . S
C762 H756 0.930 . S
C762 C763 1.367 . S
C762 C770 1.378 . S
C763 C762 1.367 . S
C763 C771 1.430 . S
C764 H760 0.955 . S
C764 C766 1.381 . S
C764 C768 1.329 1_655 S
C765 C768 1.463 . S
C765 C770 1.350 . S
C765 N773 1.432 1_455 S
C766 H757 0.966 . S
C766 C764 1.381 . S
C766 C767 1.324 1_655 S
C767 C766 1.324 1_455 S
C767 C769 1.433 . S
C768 C764 1.329 1_455 S
C768 C765 1.463 . S
C768 N772 1.427 . S
C769 H759 0.929 . S
C769 C767 1.433 . S
C769 N772 1.384 . S
C770 H761 0.929 . S
C770 C762 1.378 . S
C770 C765 1.350 . S
C771 H758 0.933 1_455 S
C771 C763 1.430 . S
C771 N773 1.382 1_455 S
N772 C768 1.427 . S
N772 C769 1.384 . S
N773 C765 1.432 1_655 S
N773 C771 1.382 1_655 S
H774 C780 0.930 . S
H775 C784 0.930 . S
H776 C789 0.929 . S
H777 C787 0.929 . S
H778 C782 0.929 . S
H779 C788 0.929 . S
C780 H774 0.930 . S
C780 C781 1.367 . S
C780 C788 1.378 . S
C781 C780 1.367 . S
C781 C789 1.433 . S
C782 H778 0.929 . S
C782 C784 1.378 . S
C782 C786 1.350 . S
C783 C786 1.463 . S
C783 C788 1.350 . S
C783 N791 1.427 . S
C784 H775 0.930 . S
C784 C782 1.378 . S
C784 C785 1.367 . S
C785 C784 1.367 . S
C785 C787 1.433 . S
C786 C782 1.350 . S
C786 C783 1.463 . S
C786 N790 1.427 . S
C787 H777 0.929 . S
C787 C785 1.433 . S
C787 N790 1.384 . S
C788 H779 0.929 . S
C788 C780 1.378 . S
C788 C783 1.350 . S
C789 H776 0.929 . S
C789 C781 1.433 . S
C789 N791 1.384 . S
N790 C786 1.427 . S
N790 C787 1.384 . S
N791 C783 1.427 . S
N791 C789 1.384 . S
H792 C798 0.930 . S
H793 C802 0.930 . S
H794 C807 0.929 . S
H795 C805 0.929 . S
H796 C800 0.929 . S
H797 C806 0.929 . S
C798 H792 0.930 . S
C798 C799 1.367 . S
C798 C806 1.378 . S
C799 C798 1.367 . S
C799 C807 1.433 . S
C800 H796 0.929 . S
C800 C802 1.378 . S
C800 C804 1.350 . S
C801 C804 1.463 . S
C801 C806 1.350 . S
C801 N809 1.427 . S
C802 H793 0.930 . S
C802 C800 1.378 . S
C802 C803 1.367 . S
C803 C802 1.367 . S
C803 C805 1.433 . S
C804 C800 1.350 . S
C804 C801 1.463 . S
C804 N808 1.427 . S
C805 H795 0.929 . S
C805 C803 1.433 . S
C805 N808 1.384 . S
C806 H797 0.929 . S
C806 C798 1.378 . S
C806 C801 1.350 . S
C807 H794 0.929 . S
C807 C799 1.433 . S
C807 N809 1.384 . S
N808 C804 1.427 . S
N808 C805 1.384 . S
N809 C801 1.427 . S
N809 C807 1.384 . S
H810 C816 0.930 . S
H811 C820 0.930 . S
H812 C825 0.929 . S
H813 C823 0.929 . S
H814 C818 0.929 . S
H815 C824 0.929 . S
C816 H810 0.930 . S
C816 C817 1.367 . S
C816 C824 1.378 . S
C817 C816 1.367 . S
C817 C825 1.433 . S
C818 H814 0.929 . S
C818 C820 1.378 . S
C818 C822 1.350 . S
C819 C822 1.463 . S
C819 C824 1.350 . S
C819 N827 1.427 . S
C820 H811 0.930 . S
C820 C818 1.378 . S
C820 C821 1.367 . S
C821 C820 1.367 . S
C821 C823 1.433 . S
C822 C818 1.350 . S
C822 C819 1.463 . S
C822 N826 1.427 . S
C823 H813 0.929 . S
C823 C821 1.433 . S
C823 N826 1.384 . S
C824 H815 0.929 . S
C824 C816 1.378 . S
C824 C819 1.350 . S
C825 H812 0.929 . S
C825 C817 1.433 . S
C825 N827 1.384 . S
N826 C822 1.427 . S
N826 C823 1.384 . S
N827 C819 1.427 . S
N827 C825 1.384 . S
H828 C834 0.930 . S
H829 C838 0.930 . S
H830 C843 0.929 . S
H831 C841 0.929 . S
H832 C836 0.929 . S
H833 C842 0.929 . S
C834 H828 0.930 . S
C834 C835 1.367 . S
C834 C842 1.378 . S
C835 C834 1.367 . S
C835 C843 1.433 . S
C836 H832 0.929 . S
C836 C838 1.378 . S
C836 C840 1.350 . S
C837 C840 1.463 . S
C837 C842 1.350 . S
C837 N845 1.427 . S
C838 H829 0.930 . S
C838 C836 1.378 . S
C838 C839 1.367 . S
C839 C838 1.367 . S
C839 C841 1.433 . S
C840 C836 1.350 . S
C840 C837 1.463 . S
C840 N844 1.427 . S
C841 H831 0.929 . S
C841 C839 1.433 . S
C841 N844 1.384 . S
C842 H833 0.929 . S
C842 C834 1.378 . S
C842 C837 1.350 . S
C843 H830 0.929 . S
C843 C835 1.433 . S
C843 N845 1.384 . S
N844 C840 1.427 . S
N844 C841 1.384 . S
N845 C837 1.427 . S
N845 C843 1.384 . S
H846 C852 0.930 . S
H847 C856 0.930 1_554 S
H848 C861 0.929 . S
H849 C859 0.929 . S
H850 C854 0.929 . S
H851 C860 0.929 . S
C852 H846 0.930 . S
C852 C853 1.367 . S
C852 C860 1.378 . S
C853 C852 1.367 . S
C853 C861 1.433 . S
C854 H850 0.929 . S
C854 C856 1.378 . S
C854 C858 1.350 . S
C855 C858 1.463 . S
C855 C860 1.350 . S
C855 N863 1.427 . S
C856 H847 0.930 1_556 S
C856 C854 1.378 . S
C856 C857 1.367 1_556 S
C857 C856 1.367 1_554 S
C857 C859 1.433 1_554 S
C858 C854 1.350 . S
C858 C855 1.463 . S
C858 N862 1.427 . S
C859 H849 0.929 . S
C859 C857 1.433 1_556 S
C859 N862 1.384 . S
C860 H851 0.929 . S
C860 C852 1.378 . S
C860 C855 1.350 . S
C861 H848 0.929 . S
C861 C853 1.433 . S
C861 N863 1.384 . S
N862 C858 1.427 . S
N862 C859 1.384 . S
N863 C855 1.427 . S
N863 C861 1.384 . S
H864 C870 0.930 . S
H865 C874 0.930 . S
H866 C879 0.929 . S
H867 C877 0.929 . S
H868 C872 0.929 . S
H869 C878 0.929 . S
C870 H864 0.930 . S
C870 C871 1.367 . S
C870 C878 1.378 . S
C871 C870 1.367 . S
C871 C879 1.433 . S
C872 H868 0.929 . S
C872 C874 1.378 . S
C872 C876 1.350 . S
C873 C876 1.463 . S
C873 C878 1.350 . S
C873 N881 1.427 . S
C874 H865 0.930 . S
C874 C872 1.378 . S
C874 C875 1.367 . S
C875 C874 1.367 . S
C875 C877 1.433 . S
C876 C872 1.350 . S
C876 C873 1.463 . S
C876 N880 1.427 . S
C877 H867 0.929 . S
C877 C875 1.433 . S
C877 N880 1.384 . S
C878 H869 0.929 . S
C878 C870 1.378 . S
C878 C873 1.350 . S
C879 H866 0.929 . S
C879 C871 1.433 . S
C879 N881 1.384 . S
N880 C876 1.427 . S
N880 C877 1.384 . S
N881 C873 1.427 . S
N881 C879 1.384 . S
H882 C888 0.930 . S
H883 C892 0.930 . S
H884 C897 0.929 . S
H885 C895 0.929 1_556 S
H886 C890 0.929 . S
H887 C896 0.929 . S
C888 H882 0.930 . S
C888 C889 1.367 . S
C888 C896 1.378 . S
C889 C888 1.367 . S
C889 C897 1.433 . S
C890 H886 0.929 . S
C890 C892 1.378 . S
C890 C894 1.350 . S
C891 C894 1.463 . S
C891 C896 1.350 . S
C891 N899 1.427 . S
C892 H883 0.930 . S
C892 C890 1.378 . S
C892 C893 1.367 . S
C893 C892 1.367 . S
C893 C895 1.433 . S
C894 C890 1.350 . S
C894 C891 1.463 . S
C894 N898 1.427 . S
C895 H885 0.929 1_554 S
C895 C893 1.433 . S
C895 N898 1.384 . S
C896 H887 0.929 . S
C896 C888 1.378 . S
C896 C891 1.350 . S
C897 H884 0.929 . S
C897 C889 1.433 . S
C897 N899 1.384 . S
N898 C894 1.427 . S
N898 C895 1.384 . S
N899 C891 1.427 . S
N899 C897 1.384 . S
H900 C906 0.930 . S
H901 C910 0.930 . S
H902 C915 0.929 . S
H903 C913 0.929 . S
H904 C908 0.929 . S
H905 C914 0.929 . S
C906 H900 0.930 . S
C906 C907 1.367 . S
C906 C914 1.378 . S
C907 C906 1.367 . S
C907 C915 1.433 . S
C908 H904 0.929 . S
C908 C910 1.378 . S
C908 C912 1.350 . S
C909 C912 1.463 . S
C909 C914 1.350 . S
C909 N917 1.427 . S
C910 H901 0.930 . S
C910 C908 1.378 . S
C910 C911 1.367 . S
C911 C910 1.367 . S
C911 C913 1.433 . S
C912 C908 1.350 . S
C912 C909 1.463 . S
C912 N916 1.427 . S
C913 H903 0.929 . S
C913 C911 1.433 . S
C913 N916 1.384 . S
C914 H905 0.929 . S
C914 C906 1.378 . S
C914 C909 1.350 . S
C915 H902 0.929 . S
C915 C907 1.433 . S
C915 N917 1.384 . S
N916 C912 1.427 . S
N916 C913 1.384 . S
N917 C909 1.427 . S
N917 C915 1.384 . S
H918 C924 0.930 . S
H919 C928 0.930 . S
H920 C933 0.929 . S
H921 C931 0.929 . S
H922 C926 0.929 . S
H923 C932 0.929 . S
C924 H918 0.930 . S
C924 C925 1.367 . S
C924 C932 1.378 . S
C925 C924 1.367 . S
C925 C933 1.433 . S
C926 H922 0.929 . S
C926 C928 1.378 . S
C926 C930 1.350 . S
C927 C930 1.463 . S
C927 C932 1.350 . S
C927 N935 1.427 . S
C928 H919 0.930 . S
C928 C926 1.378 . S
C928 C929 1.367 . S
C929 C928 1.367 . S
C929 C931 1.433 . S
C930 C926 1.350 . S
C930 C927 1.463 . S
C930 N934 1.427 . S
C931 H921 0.929 . S
C931 C929 1.433 . S
C931 N934 1.384 . S
C932 H923 0.929 . S
C932 C924 1.378 . S
C932 C927 1.350 . S
C933 H920 0.929 . S
C933 C925 1.433 . S
C933 N935 1.384 . S
N934 C930 1.427 . S
N934 C931 1.384 . S
N935 C927 1.427 . S
N935 C933 1.384 . S
H936 C942 0.930 . S
H937 C946 0.930 . S
H938 C951 0.929 . S
H939 C949 0.929 . S
H940 C944 0.929 . S
H941 C950 0.929 . S
C942 H936 0.930 . S
C942 C943 1.367 . S
C942 C950 1.378 . S
C943 C942 1.367 . S
C943 C951 1.433 . S
C944 H940 0.929 . S
C944 C946 1.378 . S
C944 C948 1.350 . S
C945 C948 1.463 . S
C945 C950 1.350 . S
C945 N953 1.427 . S
C946 H937 0.930 . S
C946 C944 1.378 . S
C946 C947 1.367 . S
C947 C946 1.367 . S
C947 C949 1.433 . S
C948 C944 1.350 . S
C948 C945 1.463 . S
C948 N952 1.427 . S
C949 H939 0.929 . S
C949 C947 1.433 . S
C949 N952 1.384 . S
C950 H941 0.929 . S
C950 C942 1.378 . S
C950 C945 1.350 . S
C951 H938 0.929 . S
C951 C943 1.433 . S
C951 N953 1.384 . S
N952 C948 1.427 . S
N952 C949 1.384 . S
N953 C945 1.427 . S
N953 C951 1.384 . S
H954 C960 0.930 . S
H955 C964 0.930 . S
H956 C969 0.929 . S
H957 C967 0.929 . S
H958 C962 0.929 . S
H959 C968 0.929 . S
C960 H954 0.930 . S
C960 C961 1.367 . S
C960 C968 1.378 . S
C961 C960 1.367 . S
C961 C969 1.433 1_565 S
C962 H958 0.929 . S
C962 C964 1.378 . S
C962 C966 1.350 . S
C963 C966 1.463 . S
C963 C968 1.350 . S
C963 N971 1.427 . S
C964 H955 0.930 . S
C964 C962 1.378 . S
C964 C965 1.367 . S
C965 C964 1.367 . S
C965 C967 1.433 . S
C966 C962 1.350 . S
C966 C963 1.463 . S
C966 N970 1.427 . S
C967 H957 0.929 . S
C967 C965 1.433 . S
C967 N970 1.384 . S
C968 H959 0.929 . S
C968 C960 1.378 . S
C968 C963 1.350 . S
C969 H956 0.929 . S
C969 C961 1.433 1_545 S
C969 N971 1.384 1_545 S
N970 C966 1.427 . S
N970 C967 1.384 . S
N971 C963 1.427 . S
N971 C969 1.384 1_565 S
H972 C978 0.930 . S
H973 C982 0.930 . S
H974 C987 0.929 . S
H975 C985 0.929 . S
H976 C980 0.929 . S
H977 C986 0.929 . S
C978 H972 0.930 . S
C978 C979 1.367 . S
C978 C986 1.378 . S
C979 C978 1.367 . S
C979 C987 1.433 . S
C980 H976 0.929 . S
C980 C982 1.378 . S
C980 C984 1.350 . S
C981 C984 1.463 . S
C981 C986 1.350 . S
C981 N989 1.427 . S
C982 H973 0.930 . S
C982 C980 1.378 . S
C982 C983 1.367 . S
C983 C982 1.367 . S
C983 C985 1.433 . S
C984 C980 1.350 . S
C984 C981 1.463 . S
C984 N988 1.427 . S
C985 H975 0.929 . S
C985 C983 1.433 . S
C985 N988 1.384 . S
C986 H977 0.929 . S
C986 C978 1.378 . S
C986 C981 1.350 . S
C987 H974 0.929 . S
C987 C979 1.433 . S
C987 N989 1.384 . S
N988 C984 1.427 . S
N988 C985 1.384 . S
N989 C981 1.427 . S
N989 C987 1.384 . S
H990 C996 0.930 . S
H991 C1000 0.930 . S
H992 C1005 0.929 . S
H993 C1003 0.929 . S
H994 C998 0.929 . S
H995 C1004 0.929 . S
C996 H990 0.930 . S
C996 C997 1.367 . S
C996 C1004 1.378 . S
C997 C996 1.367 . S
C997 C1005 1.433 . S
C998 H994 0.929 . S
C998 C1000 1.378 . S
C998 C1002 1.350 . S
C999 C1002 1.463 . S
C999 C1004 1.350 . S
C999 N1007 1.427 . S
C1000 H991 0.930 . S
C1000 C998 1.378 . S
C1000 C1001 1.367 1_556 S
C1001 C1000 1.367 1_554 S
C1001 C1003 1.433 . S
C1002 C998 1.350 . S
C1002 C999 1.463 . S
C1002 N1006 1.427 1_556 S
C1003 H993 0.929 . S
C1003 C1001 1.433 . S
C1003 N1006 1.384 . S
C1004 H995 0.929 . S
C1004 C996 1.378 . S
C1004 C999 1.350 . S
C1005 H992 0.929 . S
C1005 C997 1.433 . S
C1005 N1007 1.384 . S
N1006 C1002 1.427 1_554 S
N1006 C1003 1.384 . S
N1007 C999 1.427 . S
N1007 C1005 1.384 . S
H1008 C1014 0.930 . S
H1009 C1018 0.930 . S
H1010 C1023 0.929 . S
H1011 C1021 0.929 1_554 S
H1012 C1016 0.929 . S
H1013 C1022 0.929 . S
C1014 H1008 0.930 . S
C1014 C1015 1.367 . S
C1014 C1022 1.378 . S
C1015 C1014 1.367 . S
C1015 C1023 1.433 . S
C1016 H1012 0.929 . S
C1016 C1018 1.378 . S
C1016 C1020 1.350 . S
C1017 C1020 1.463 . S
C1017 C1022 1.350 . S
C1017 N1025 1.427 . S
C1018 H1009 0.930 . S
C1018 C1016 1.378 . S
C1018 C1019 1.367 . S
C1019 C1018 1.367 . S
C1019 C1021 1.433 . S
C1020 C1016 1.350 . S
C1020 C1017 1.463 . S
C1020 N1024 1.427 . S
C1021 H1011 0.929 1_556 S
C1021 C1019 1.433 . S
C1021 N1024 1.384 . S
C1022 H1013 0.929 . S
C1022 C1014 1.378 . S
C1022 C1017 1.350 . S
C1023 H1010 0.929 . S
C1023 C1015 1.433 . S
C1023 N1025 1.384 . S
N1024 C1020 1.427 . S
N1024 C1021 1.384 . S
N1025 C1017 1.427 . S
N1025 C1023 1.384 . S
H1026 C1032 0.930 . S
H1027 C1036 0.930 . S
H1028 C1041 0.929 . S
H1029 C1039 0.929 . S
H1030 C1034 0.929 . S
H1031 C1040 0.929 . S
C1032 H1026 0.930 . S
C1032 C1033 1.367 . S
C1032 C1040 1.378 . S
C1033 C1032 1.367 . S
C1033 C1041 1.433 . S
C1034 H1030 0.929 . S
C1034 C1036 1.378 . S
C1034 C1038 1.350 . S
C1035 C1038 1.463 . S
C1035 C1040 1.350 . S
C1035 N1043 1.427 . S
C1036 H1027 0.930 . S
C1036 C1034 1.378 . S
C1036 C1037 1.367 . S
C1037 C1036 1.367 . S
C1037 C1039 1.433 . S
C1038 C1034 1.350 . S
C1038 C1035 1.463 . S
C1038 N1042 1.427 . S
C1039 H1029 0.929 . S
C1039 C1037 1.433 . S
C1039 N1042 1.384 . S
C1040 H1031 0.929 . S
C1040 C1032 1.378 . S
C1040 C1035 1.350 . S
C1041 H1028 0.929 . S
C1041 C1033 1.433 . S
C1041 N1043 1.384 . S
N1042 C1038 1.427 . S
N1042 C1039 1.384 . S
N1043 C1035 1.427 . S
N1043 C1041 1.384 . S
H1044 C1050 0.930 . S
H1045 C1054 0.930 . S
H1046 C1059 0.929 . S
H1047 C1057 0.929 . S
H1048 C1052 0.929 . S
H1049 C1058 0.929 1_554 S
C1050 H1044 0.930 . S
C1050 C1051 1.367 1_554 S
C1050 C1058 1.378 1_554 S
C1051 C1050 1.367 1_556 S
C1051 C1059 1.433 . S
C1052 H1048 0.929 . S
C1052 C1054 1.378 . S
C1052 C1056 1.350 . S
C1053 C1056 1.463 . S
C1053 C1058 1.350 . S
C1053 N1061 1.427 . S
C1054 H1045 0.930 . S
C1054 C1052 1.378 . S
C1054 C1055 1.367 . S
C1055 C1054 1.367 . S
C1055 C1057 1.433 . S
C1056 C1052 1.350 . S
C1056 C1053 1.463 . S
C1056 N1060 1.427 . S
C1057 H1047 0.929 . S
C1057 C1055 1.433 . S
C1057 N1060 1.384 . S
C1058 H1049 0.929 1_556 S
C1058 C1050 1.378 1_556 S
C1058 C1053 1.350 . S
C1059 H1046 0.929 . S
C1059 C1051 1.433 . S
C1059 N1061 1.384 . S
N1060 C1056 1.427 . S
N1060 C1057 1.384 . S
N1061 C1053 1.427 . S
N1061 C1059 1.384 . S
H1062 C1068 0.930 . S
H1063 C1072 0.930 . S
H1064 C1077 0.929 . S
H1065 C1075 0.929 . S
H1066 C1070 0.929 . S
H1067 C1076 0.929 . S
C1068 H1062 0.930 . S
C1068 C1069 1.367 . S
C1068 C1076 1.378 . S
C1069 C1068 1.367 . S
C1069 C1077 1.433 . S
C1070 H1066 0.929 . S
C1070 C1072 1.378 . S
C1070 C1074 1.350 . S
C1071 C1074 1.463 . S
C1071 C1076 1.350 . S
C1071 N1079 1.427 . S
C1072 H1063 0.930 . S
C1072 C1070 1.378 . S
C1072 C1073 1.367 . S
C1073 C1072 1.367 . S
C1073 C1075 1.433 . S
C1074 C1070 1.350 . S
C1074 C1071 1.463 . S
C1074 N1078 1.427 . S
C1075 H1065 0.929 . S
C1075 C1073 1.433 . S
C1075 N1078 1.384 . S
C1076 H1067 0.929 . S
C1076 C1068 1.378 . S
C1076 C1071 1.350 . S
C1077 H1064 0.929 . S
C1077 C1069 1.433 . S
C1077 N1079 1.384 . S
N1078 C1074 1.427 . S
N1078 C1075 1.384 . S
N1079 C1071 1.427 . S
N1079 C1077 1.384 . S
H1080 C1086 0.930 . S
H1081 C1090 0.930 . S
H1082 C1095 0.929 . S
H1083 C1093 0.929 . S
H1084 C1088 0.929 . S
H1085 C1094 0.929 . S
C1086 H1080 0.930 . S
C1086 C1087 1.367 . S
C1086 C1094 1.378 . S
C1087 C1086 1.367 . S
C1087 C1095 1.433 1_554 S
C1088 H1084 0.929 . S
C1088 C1090 1.378 . S
C1088 C1092 1.350 1_556 S
C1089 C1092 1.463 1_545 S
C1089 C1094 1.350 . S
C1089 N1097 1.427 1_554 S
C1090 H1081 0.930 . S
C1090 C1088 1.378 . S
C1090 C1091 1.367 1_556 S
C1091 C1090 1.367 1_554 S
C1091 C1093 1.433 . S
C1092 C1088 1.350 1_554 S
C1092 C1089 1.463 1_565 S
C1092 N1096 1.427 . S
C1093 H1083 0.929 . S
C1093 C1091 1.433 . S
C1093 N1096 1.384 . S
C1094 H1085 0.929 . S
C1094 C1086 1.378 . S
C1094 C1089 1.350 . S
C1095 H1082 0.929 . S
C1095 C1087 1.433 1_556 S
C1095 N1097 1.384 . S
N1096 C1092 1.427 . S
N1096 C1093 1.384 . S
N1097 C1089 1.427 1_556 S
N1097 C1095 1.384 . S
H1098 C1104 0.930 . S
H1099 C1108 0.930 . S
H1100 C1113 0.929 . S
H1101 C1111 0.929 . S
H1102 C1106 0.929 . S
H1103 C1112 0.929 . S
C1104 H1098 0.930 . S
C1104 C1105 1.367 . S
C1104 C1112 1.378 . S
C1105 C1104 1.367 . S
C1105 C1113 1.433 . S
C1106 H1102 0.929 . S
C1106 C1108 1.378 . S
C1106 C1110 1.350 . S
C1107 C1110 1.463 . S
C1107 C1112 1.350 . S
C1107 N1115 1.427 . S
C1108 H1099 0.930 . S
C1108 C1106 1.378 . S
C1108 C1109 1.367 . S
C1109 C1108 1.367 . S
C1109 C1111 1.433 . S
C1110 C1106 1.350 . S
C1110 C1107 1.463 . S
C1110 N1114 1.427 . S
C1111 H1101 0.929 . S
C1111 C1109 1.433 . S
C1111 N1114 1.384 . S
C1112 H1103 0.929 . S
C1112 C1104 1.378 . S
C1112 C1107 1.350 . S
C1113 H1100 0.929 . S
C1113 C1105 1.433 . S
C1113 N1115 1.384 . S
N1114 C1110 1.427 . S
N1114 C1111 1.384 . S
N1115 C1107 1.427 . S
N1115 C1113 1.384 . S
H1116 C1122 0.930 . S
H1117 C1126 0.930 . S
H1118 C1131 0.929 . S
H1119 C1129 0.929 . S
H1120 C1124 0.929 . S
H1121 C1130 0.929 . S
C1122 H1116 0.930 . S
C1122 C1123 1.367 . S
C1122 C1130 1.378 . S
C1123 C1122 1.367 . S
C1123 C1131 1.433 . S
C1124 H1120 0.929 . S
C1124 C1126 1.378 . S
C1124 C1128 1.350 . S
C1125 C1128 1.463 . S
C1125 C1130 1.350 . S
C1125 N1133 1.427 . S
C1126 H1117 0.930 . S
C1126 C1124 1.378 . S
C1126 C1127 1.367 . S
C1127 C1126 1.367 . S
C1127 C1129 1.433 . S
C1128 C1124 1.350 . S
C1128 C1125 1.463 . S
C1128 N1132 1.427 . S
C1129 H1119 0.929 . S
C1129 C1127 1.433 . S
C1129 N1132 1.384 . S
C1130 H1121 0.929 . S
C1130 C1122 1.378 . S
C1130 C1125 1.350 . S
C1131 H1118 0.929 . S
C1131 C1123 1.433 . S
C1131 N1133 1.384 . S
N1132 C1128 1.427 . S
N1132 C1129 1.384 . S
N1133 C1125 1.427 . S
N1133 C1131 1.384 . S
H1134 C1140 0.930 . S
H1135 C1144 0.930 . S
H1136 C1149 0.929 . S
H1137 C1147 0.929 . S
H1138 C1142 0.929 . S
H1139 C1148 0.929 . S
C1140 H1134 0.930 . S
C1140 C1141 1.367 . S
C1140 C1148 1.378 . S
C1141 C1140 1.367 . S
C1141 C1149 1.433 . S
C1142 H1138 0.929 . S
C1142 C1144 1.378 . S
C1142 C1146 1.350 . S
C1143 C1146 1.463 . S
C1143 C1148 1.350 . S
C1143 N1151 1.427 . S
C1144 H1135 0.930 . S
C1144 C1142 1.378 . S
C1144 C1145 1.367 . S
C1145 C1144 1.367 . S
C1145 C1147 1.433 . S
C1146 C1142 1.350 . S
C1146 C1143 1.463 . S
C1146 N1150 1.427 . S
C1147 H1137 0.929 . S
C1147 C1145 1.433 . S
C1147 N1150 1.384 . S
C1148 H1139 0.929 . S
C1148 C1140 1.378 . S
C1148 C1143 1.350 . S
C1149 H1136 0.929 . S
C1149 C1141 1.433 . S
C1149 N1151 1.384 . S
N1150 C1146 1.427 . S
N1150 C1147 1.384 . S
N1151 C1143 1.427 . S
N1151 C1149 1.384 . S
H1152 C1158 0.930 . S
H1153 C1162 0.930 . S
H1154 C1167 0.929 . S
H1155 C1165 0.929 . S
H1156 C1160 0.929 . S
H1157 C1166 0.929 . S
C1158 H1152 0.930 . S
C1158 C1159 1.367 . S
C1158 C1166 1.378 . S
C1159 C1158 1.367 . S
C1159 C1167 1.433 . S
C1160 H1156 0.929 . S
C1160 C1162 1.378 . S
C1160 C1164 1.350 . S
C1161 C1164 1.463 1_545 S
C1161 C1166 1.350 . S
C1161 N1169 1.427 . S
C1162 H1153 0.930 . S
C1162 C1160 1.378 . S
C1162 C1163 1.367 . S
C1163 C1162 1.367 . S
C1163 C1165 1.433 . S
C1164 C1160 1.350 . S
C1164 C1161 1.463 1_565 S
C1164 N1168 1.427 . S
C1165 H1155 0.929 . S
C1165 C1163 1.433 . S
C1165 N1168 1.384 . S
C1166 H1157 0.929 . S
C1166 C1158 1.378 . S
C1166 C1161 1.350 . S
C1167 H1154 0.929 . S
C1167 C1159 1.433 . S
C1167 N1169 1.384 . S
N1168 C1164 1.427 . S
N1168 C1165 1.384 . S
N1169 C1161 1.427 . S
N1169 C1167 1.384 . S
H1170 C1176 0.930 . S
H1171 C1180 0.930 . S
H1172 C1185 0.929 . S
H1173 C1183 0.929 . S
H1174 C1178 0.929 . S
H1175 C1184 0.929 1_455 S
C1176 H1170 0.930 . S
C1176 C1177 1.367 . S
C1176 C1184 1.378 . S
C1177 C1176 1.367 . S
C1177 C1185 1.433 . S
C1178 H1174 0.929 . S
C1178 C1180 1.378 1_655 S
C1178 C1182 1.352 1_655 S
C1179 C1182 1.456 1_655 S
C1179 C1184 1.350 . S
C1179 N1187 1.427 . S
C1180 H1171 0.930 . S
C1180 C1178 1.378 1_455 S
C1180 C1181 1.367 . S
C1181 C1180 1.367 . S
C1181 C1183 1.433 . S
C1182 C1178 1.352 1_455 S
C1182 C1179 1.456 1_455 S
C1182 N1186 1.431 . S
C1183 H1173 0.929 . S
C1183 C1181 1.433 . S
C1183 N1186 1.384 . S
C1184 H1175 0.929 1_655 S
C1184 C1176 1.378 . S
C1184 C1179 1.350 . S
C1185 H1172 0.929 . S
C1185 C1177 1.433 . S
C1185 N1187 1.384 . S
N1186 C1182 1.431 . S
N1186 C1183 1.384 . S
N1187 C1179 1.427 . S
N1187 C1185 1.384 . S
H1188 C1194 0.930 . S
H1189 C1198 0.930 . S
H1190 C1203 0.929 . S
H1191 C1201 0.929 . S
H1192 C1196 0.929 . S
H1193 C1202 0.929 . S
C1194 H1188 0.930 . S
C1194 C1195 1.367 . S
C1194 C1202 1.378 . S
C1195 C1194 1.367 . S
C1195 C1203 1.433 . S
C1196 H1192 0.929 . S
C1196 C1198 1.378 . S
C1196 C1200 1.350 . S
C1197 C1200 1.463 . S
C1197 C1202 1.350 . S
C1197 N1205 1.427 . S
C1198 H1189 0.930 . S
C1198 C1196 1.378 . S
C1198 C1199 1.367 . S
C1199 C1198 1.367 . S
C1199 C1201 1.433 . S
C1200 C1196 1.350 . S
C1200 C1197 1.463 . S
C1200 N1204 1.427 . S
C1201 H1191 0.929 . S
C1201 C1199 1.433 . S
C1201 N1204 1.384 . S
C1202 H1193 0.929 . S
C1202 C1194 1.378 . S
C1202 C1197 1.350 . S
C1203 H1190 0.929 . S
C1203 C1195 1.433 . S
C1203 N1205 1.384 . S
N1204 C1200 1.427 . S
N1204 C1201 1.384 . S
N1205 C1197 1.427 . S
N1205 C1203 1.384 . S
H1206 C1212 0.930 . S
H1207 C1216 0.930 . S
H1208 C1221 0.929 . S
H1209 C1219 0.929 . S
H1210 C1214 0.929 . S
H1211 C1220 0.964 . S
C1212 H1206 0.930 . S
C1212 C1213 1.367 . S
C1212 C1220 1.349 1_565 S
C1213 C1212 1.367 . S
C1213 C1221 1.433 . S
C1214 H1210 0.929 . S
C1214 C1216 1.378 . S
C1214 C1218 1.350 . S
C1215 C1218 1.463 . S
C1215 C1220 1.345 . S
C1215 N1223 1.427 1_545 S
C1216 H1207 0.930 . S
C1216 C1214 1.378 . S
C1216 C1217 1.367 . S
C1217 C1216 1.367 . S
C1217 C1219 1.433 . S
C1218 C1214 1.350 . S
C1218 C1215 1.463 . S
C1218 N1222 1.427 . S
C1219 H1209 0.929 . S
C1219 C1217 1.433 . S
C1219 N1222 1.384 . S
C1220 H1211 0.964 . S
C1220 C1212 1.349 1_545 S
C1220 C1215 1.345 . S
C1221 H1208 0.929 . S
C1221 C1213 1.433 . S
C1221 N1223 1.384 . S
N1222 C1218 1.427 . S
N1222 C1219 1.384 . S
N1223 C1215 1.427 1_565 S
N1223 C1221 1.384 . S
H1224 C1230 0.930 . S
H1225 C1234 0.930 . S
H1226 C1239 0.929 . S
H1227 C1237 0.929 . S
H1228 C1232 0.929 . S
H1229 C1238 0.929 . S
C1230 H1224 0.930 . S
C1230 C1231 1.367 . S
C1230 C1238 1.378 . S
C1231 C1230 1.367 . S
C1231 C1239 1.433 . S
C1232 H1228 0.929 . S
C1232 C1234 1.378 1_655 S
C1232 C1236 1.350 . S
C1233 C1236 1.463 . S
C1233 C1238 1.350 . S
C1233 N1241 1.427 . S
C1234 H1225 0.930 . S
C1234 C1232 1.378 1_455 S
C1234 C1235 1.367 . S
C1235 C1234 1.367 . S
C1235 C1237 1.433 . S
C1236 C1232 1.350 . S
C1236 C1233 1.463 . S
C1236 N1240 1.427 1_655 S
C1237 H1227 0.929 . S
C1237 C1235 1.433 . S
C1237 N1240 1.384 . S
C1238 H1229 0.929 . S
C1238 C1230 1.378 . S
C1238 C1233 1.350 . S
C1239 H1226 0.929 . S
C1239 C1231 1.433 . S
C1239 N1241 1.384 . S
N1240 C1236 1.427 1_455 S
N1240 C1237 1.384 . S
N1241 C1233 1.427 . S
N1241 C1239 1.384 . S
C763 C63 3.458 1_556 S
C767 C74 3.458 . S
C781 C158 3.478 . S
C785 C147 3.478 . S
C799 C231 3.500 . S
C803 C242 3.500 . S
C817 C326 3.460 . S
C821 C315 3.460 1_556 S
C835 C399 3.474 . S
C839 C410 3.474 1_556 S
C853 C494 3.497 . S
C857 C483 3.497 . S
C871 C573 2.141 . S
C875 C562 2.141 . S
C889 C646 2.273 . S
C893 C657 2.273 . S
C907 C741 1.555 . S
C911 C730 1.555 . S
C925 C476 1.645 . S
C929 C69 1.381 . S
C943 C140 2.130 . S
C947 C308 2.127 . S
C961 C237 1.025 . S
C965 C405 1.032 . S
C979 C224 2.324 1_556 S
C983 C571 2.328 . S
C997 C662 1.533 . S
C1001 C56 1.528 . S
C1015 C739 1.272 . S
C1019 C153 1.251 . S
C1033 C735 0.990 . S
C1037 C58 0.963 1_556 S
C1051 C151 1.901 1_556 S
C1055 C567 1.888 . S
C1069 C644 1.812 . S
C1073 C226 1.738 . S
C1087 C235 1.646 . S
C1091 C310 1.387 . S
C1105 C403 2.130 . S
C1109 C67 2.127 . S
C1123 C142 1.034 . S
C1127 C478 1.026 . S
C1141 C746 0.981 . S
C1145 C321 0.942 . S
C1159 C578 1.888 . S
C1163 C392 1.902 . S
C1177 C655 1.813 . S
C1181 C489 1.741 . S
C1195 C560 2.326 . S
C1199 C487 2.322 . S
C1213 C319 1.535 . S
C1217 C651 1.527 . S
C1231 C728 1.281 . S
C1235 C394 1.235 . S
