# Generated by pormake.
# Topology fnd, (5)-cn, num edge types: 1
# Building blocks:
#     Node 0, Type 0, BuildingBlock: BEQFEK_clean_sbu_0, # of connection points: 5
#     Node 1, Type 0, BuildingBlock: BEQFEK_clean_sbu_0, # of connection points: 5
#     Node 2, Type 0, BuildingBlock: BEQFEK_clean_sbu_0, # of connection points: 5
#     Node 3, Type 0, BuildingBlock: BEQFEK_clean_sbu_0, # of connection points: 5
#     Node 4, Type 0, BuildingBlock: BEQFEK_clean_sbu_0, # of connection points: 5
#     Node 5, Type 0, BuildingBlock: BEQFEK_clean_sbu_0, # of connection points: 5
#     Node 6, Type 0, BuildingBlock: BEQFEK_clean_sbu_0, # of connection points: 5
#     Node 7, Type 0, BuildingBlock: BEQFEK_clean_sbu_0, # of connection points: 5
#     Node 8, Type 0, BuildingBlock: BEQFEK_clean_sbu_0, # of connection points: 5
#     Node 9, Type 0, BuildingBlock: BEQFEK_clean_sbu_0, # of connection points: 5
#     Node 10, Type 0, BuildingBlock: BEQFEK_clean_sbu_0, # of connection points: 5
#     Node 11, Type 0, BuildingBlock: BEQFEK_clean_sbu_0, # of connection points: 5
#     Node 12, Type 0, BuildingBlock: BEQFEK_clean_sbu_0, # of connection points: 5
#     Node 13, Type 0, BuildingBlock: BEQFEK_clean_sbu_0, # of connection points: 5
#     Node 14, Type 0, BuildingBlock: BEQFEK_clean_sbu_0, # of connection points: 5
#     Node 15, Type 0, BuildingBlock: BEQFEK_clean_sbu_0, # of connection points: 5
#     Node 16, Type 0, BuildingBlock: BEQFEK_clean_sbu_0, # of connection points: 5
#     Node 17, Type 0, BuildingBlock: BEQFEK_clean_sbu_0, # of connection points: 5
#     Edge 18, Type (0, 0), BuildingBlock: TEMPAE_clean_linker_10, # of connection points: 2
#     Edge 19, Type (0, 0), BuildingBlock: TEMPAE_clean_linker_10, # of connection points: 2
#     Edge 20, Type (0, 0), BuildingBlock: TEMPAE_clean_linker_10, # of connection points: 2
#     Edge 21, Type (0, 0), BuildingBlock: TEMPAE_clean_linker_10, # of connection points: 2
#     Edge 22, Type (0, 0), BuildingBlock: TEMPAE_clean_linker_10, # of connection points: 2
#     Edge 23, Type (0, 0), BuildingBlock: TEMPAE_clean_linker_10, # of connection points: 2
#     Edge 24, Type (0, 0), BuildingBlock: TEMPAE_clean_linker_10, # of connection points: 2
#     Edge 25, Type (0, 0), BuildingBlock: TEMPAE_clean_linker_10, # of connection points: 2
#     Edge 26, Type (0, 0), BuildingBlock: TEMPAE_clean_linker_10, # of connection points: 2
#     Edge 27, Type (0, 0), BuildingBlock: TEMPAE_clean_linker_10, # of connection points: 2
#     Edge 28, Type (0, 0), BuildingBlock: TEMPAE_clean_linker_10, # of connection points: 2
#     Edge 29, Type (0, 0), BuildingBlock: TEMPAE_clean_linker_10, # of connection points: 2
#     Edge 30, Type (0, 0), BuildingBlock: TEMPAE_clean_linker_10, # of connection points: 2
#     Edge 31, Type (0, 0), BuildingBlock: TEMPAE_clean_linker_10, # of connection points: 2
#     Edge 32, Type (0, 0), BuildingBlock: TEMPAE_clean_linker_10, # of connection points: 2
#     Edge 33, Type (0, 0), BuildingBlock: TEMPAE_clean_linker_10, # of connection points: 2
#     Edge 34, Type (0, 0), BuildingBlock: TEMPAE_clean_linker_10, # of connection points: 2
#     Edge 35, Type (0, 0), BuildingBlock: TEMPAE_clean_linker_10, # of connection points: 2
#     Edge 36, Type (0, 0), BuildingBlock: TEMPAE_clean_linker_10, # of connection points: 2
#     Edge 37, Type (0, 0), BuildingBlock: TEMPAE_clean_linker_10, # of connection points: 2
#     Edge 38, Type (0, 0), BuildingBlock: TEMPAE_clean_linker_10, # of connection points: 2
#     Edge 39, Type (0, 0), BuildingBlock: TEMPAE_clean_linker_10, # of connection points: 2
#     Edge 40, Type (0, 0), BuildingBlock: TEMPAE_clean_linker_10, # of connection points: 2
#     Edge 41, Type (0, 0), BuildingBlock: TEMPAE_clean_linker_10, # of connection points: 2
#     Edge 42, Type (0, 0), BuildingBlock: TEMPAE_clean_linker_10, # of connection points: 2
#     Edge 43, Type (0, 0), BuildingBlock: TEMPAE_clean_linker_10, # of connection points: 2
#     Edge 44, Type (0, 0), BuildingBlock: TEMPAE_clean_linker_10, # of connection points: 2
#     Edge 45, Type (0, 0), BuildingBlock: TEMPAE_clean_linker_10, # of connection points: 2
#     Edge 46, Type (0, 0), BuildingBlock: TEMPAE_clean_linker_10, # of connection points: 2
#     Edge 47, Type (0, 0), BuildingBlock: TEMPAE_clean_linker_10, # of connection points: 2
#     Edge 48, Type (0, 0), BuildingBlock: TEMPAE_clean_linker_10, # of connection points: 2
#     Edge 49, Type (0, 0), BuildingBlock: TEMPAE_clean_linker_10, # of connection points: 2
#     Edge 50, Type (0, 0), BuildingBlock: TEMPAE_clean_linker_10, # of connection points: 2
#     Edge 51, Type (0, 0), BuildingBlock: TEMPAE_clean_linker_10, # of connection points: 2
#     Edge 52, Type (0, 0), BuildingBlock: TEMPAE_clean_linker_10, # of connection points: 2
#     Edge 53, Type (0, 0), BuildingBlock: TEMPAE_clean_linker_10, # of connection points: 2
#     Edge 54, Type (0, 0), BuildingBlock: TEMPAE_clean_linker_10, # of connection points: 2
#     Edge 55, Type (0, 0), BuildingBlock: TEMPAE_clean_linker_10, # of connection points: 2
#     Edge 56, Type (0, 0), BuildingBlock: TEMPAE_clean_linker_10, # of connection points: 2
#     Edge 57, Type (0, 0), BuildingBlock: TEMPAE_clean_linker_10, # of connection points: 2
#     Edge 58, Type (0, 0), BuildingBlock: TEMPAE_clean_linker_10, # of connection points: 2
#     Edge 59, Type (0, 0), BuildingBlock: TEMPAE_clean_linker_10, # of connection points: 2
#     Edge 60, Type (0, 0), BuildingBlock: TEMPAE_clean_linker_10, # of connection points: 2
#     Edge 61, Type (0, 0), BuildingBlock: TEMPAE_clean_linker_10, # of connection points: 2
#     Edge 62, Type (0, 0), BuildingBlock: TEMPAE_clean_linker_10, # of connection points: 2
# Relax obj value: 0.146
# Max RMSD: 0.197
# Mean RMSD: 0.197
data_MOF--net-fnd--node1-BEQFEK_clean_sbu_0--edge1-TEMPAE_clean_linker_10
_symmetry_space_group_name_H-M    P1
_symmetry_Int_Tables_number       1
_symmetry_cell_setting            triclinic
loop_
_symmetry_equiv_pos_as_xyz
'x, y, z'
_cell_length_a     81.270724
_cell_length_b     81.25056
_cell_length_c     19.351727
_cell_angle_alpha  89.997437
_cell_angle_beta   89.995198
_cell_angle_gamma 120.0135
loop_
_atom_site_label
_atom_site_type_symbol
_atom_site_fract_x
_atom_site_fract_y
_atom_site_fract_z
_atom_type_partial_charge
Co0 Co 0.10668 0.21677 0.53132 0.0
Co1 Co 0.09966 0.20464 0.37493 0.0
C2 C 0.123 0.19465 0.46556 0.0
O3 O 0.12034 0.20279 0.51687 0.0
O4 O 0.11588 0.19419 0.40646 0.0
C5 C 0.12635 0.2287 0.66066 0.0
O6 O 0.13943 0.22681 0.62765 0.0
C7 C 0.10939 0.20712 0.22727 0.0
C8 C 0.08091 0.19344 0.17916 0.0
C9 C 0.10012 0.20258 0.16398 0.0
N10 N 0.09621 0.20118 0.27751 0.0
N11 N 0.07922 0.19285 0.24839 0.0
C12 C 0.13028 0.21598 0.24026 0.0
H13 H 0.13342 0.21866 0.29627 0.0
H14 H 0.13829 0.22951 0.21149 0.0
H15 H 0.13518 0.20626 0.22133 0.0
C16 C 0.12232 0.25497 0.46928 0.0
N17 N 0.11407 0.23595 0.46404 0.0
N18 N 0.11035 0.23093 0.39863 0.0
C19 C 0.11558 0.24667 0.36043 0.0
C20 C 0.12359 0.26239 0.40367 0.0
C21 C 0.1296 0.26565 0.53563 0.0
H22 H 0.13748 0.25999 0.56449 0.0
H23 H 0.13911 0.28109 0.52672 0.0
H24 H 0.11737 0.26345 0.5679 0.0
O25 O 0.07888 0.19925 0.52609 0.0
O26 O 0.07428 0.18972 0.4167 0.0
H27 H 0.09783 0.23395 0.27146 0.0
H28 H 0.11061 0.25955 0.2712 0.0
C29 C 0.11146 0.24674 0.28504 0.0
H30 H 0.12308 0.24696 0.2544 0.0
H31 H 0.06646 0.1871 0.27575 0.0
O32 O 0.11188 0.22656 0.62758 0.0
C33 C 0.06798 0.18922 0.47724 0.0
Co34 Co 0.77931 0.89101 0.51079 0.0
Co35 Co 0.79153 0.89608 0.35449 0.0
C36 C 0.80208 0.92948 0.44528 0.0
O37 O 0.79378 0.91865 0.4964 0.0
O38 O 0.80247 0.92285 0.38606 0.0
C39 C 0.76781 0.89922 0.64019 0.0
O40 O 0.77015 0.91436 0.60715 0.0
C41 C 0.78956 0.90359 0.20668 0.0
C42 C 0.80214 0.88769 0.159 0.0
C43 C 0.79373 0.89844 0.14353 0.0
N44 N 0.79499 0.89595 0.25713 0.0
N45 N 0.80267 0.88663 0.22825 0.0
C46 C 0.78151 0.91636 0.21937 0.0
H47 H 0.7788 0.91691 0.27529 0.0
H48 H 0.76813 0.91143 0.19021 0.0
H49 H 0.79177 0.93087 0.20074 0.0
C50 C 0.74105 0.86961 0.44826 0.0
N51 N 0.76011 0.87973 0.44333 0.0
N52 N 0.76515 0.881 0.37794 0.0
C53 C 0.74934 0.87109 0.33943 0.0
C54 C 0.73359 0.86386 0.38243 0.0
C55 C 0.73039 0.86657 0.51447 0.0
H56 H 0.73651 0.88014 0.54344 0.0
H57 H 0.71507 0.86123 0.50539 0.0
H58 H 0.73206 0.85621 0.54674 0.0
O59 O 0.79629 0.8801 0.50549 0.0
O60 O 0.80594 0.88506 0.39628 0.0
H61 H 0.73603 0.85374 0.2495 0.0
H62 H 0.74953 0.87883 0.23377 0.0
C63 C 0.74916 0.86706 0.26386 0.0
H64 H 0.7616 0.86561 0.2501 0.0
H65 H 0.80791 0.87919 0.25581 0.0
O66 O 0.7695 0.88661 0.60709 0.0
C67 C 0.80621 0.87903 0.45665 0.0
Co68 Co 0.10281 0.88879 0.51744 0.0
Co69 Co 0.09959 0.89488 0.35917 0.0
C70 C 0.0652 0.87144 0.44394 0.0
O71 O 0.07546 0.87412 0.49699 0.0
O72 O 0.07245 0.87891 0.38583 0.0
C73 C 0.09377 0.86847 0.64557 0.0
O74 O 0.07903 0.85554 0.61111 0.0
C75 C 0.09186 0.88649 0.21099 0.0
C76 C 0.11347 0.91372 0.16479 0.0
C77 C 0.09917 0.89555 0.14847 0.0
N78 N 0.1016 0.89874 0.26205 0.0
N79 N 0.11436 0.91503 0.2341 0.0
C80 C 0.07539 0.86692 0.22264 0.0
H81 H 0.06224 0.86782 0.22679 0.0
H82 H 0.07719 0.86101 0.27193 0.0
H83 H 0.07358 0.85727 0.17921 0.0
C84 C 0.12828 0.8754 0.46443 0.0
N85 N 0.1164 0.88222 0.45481 0.0
N86 N 0.11444 0.88397 0.38814 0.0
C87 C 0.1249 0.87811 0.35304 0.0
C88 C 0.13412 0.87259 0.40023 0.0
C89 C 0.13441 0.87242 0.53398 0.0
H90 H 0.13715 0.8844 0.56862 0.0
H91 H 0.12278 0.85917 0.55697 0.0
H92 H 0.14743 0.87127 0.53046 0.0
O93 O 0.11168 0.91626 0.51242 0.0
O94 O 0.11037 0.92051 0.39956 0.0
H95 H 0.13149 0.89103 0.25288 0.0
H96 H 0.13266 0.86941 0.25766 0.0
C97 C 0.12496 0.87661 0.27588 0.0
H98 H 0.11016 0.86825 0.25727 0.0
H99 H 0.12393 0.92695 0.2624 0.0
O100 O 0.10619 0.88328 0.61435 0.0
C101 C 0.11421 0.92697 0.46083 0.0
Co102 Co 0.21224 0.10536 0.48115 0.0
Co103 Co 0.20335 0.10016 0.63978 0.0
C104 C 0.19239 0.12331 0.55283 0.0
O105 O 0.19979 0.12029 0.5 0.0
O106 O 0.19229 0.11613 0.61145 0.0
C107 C 0.22455 0.12569 0.35358 0.0
O108 O 0.22409 0.13926 0.38884 0.0
C109 C 0.20506 0.1096 0.78767 0.0
C110 C 0.19714 0.08188 0.83541 0.0
C111 C 0.2025 0.10053 0.85064 0.0
N112 N 0.20155 0.09687 0.73725 0.0
N113 N 0.19667 0.08031 0.76618 0.0
C114 C 0.20991 0.12972 0.77543 0.0
H115 H 0.21425 0.13388 0.72094 0.0
H116 H 0.22145 0.13954 0.81053 0.0
H117 H 0.19723 0.13104 0.78665 0.0
C118 C 0.25122 0.119 0.53296 0.0
N119 N 0.23254 0.11217 0.54329 0.0
N120 N 0.22904 0.11067 0.61011 0.0
C121 C 0.24547 0.11663 0.64459 0.0
C122 C 0.26007 0.12205 0.5968 0.0
C123 C 0.26015 0.12185 0.46312 0.0
H124 H 0.25095 0.10967 0.42919 0.0
H125 H 0.26145 0.1349 0.43953 0.0
H126 H 0.27444 0.12328 0.4663 0.0
O127 O 0.19346 0.07797 0.48813 0.0
O128 O 0.18822 0.07432 0.6013 0.0
H129 H 0.23844 0.10411 0.74541 0.0
H130 H 0.26211 0.12449 0.73964 0.0
C131 C 0.24726 0.11831 0.72165 0.0
H132 H 0.24198 0.12774 0.73969 0.0
H133 H 0.1933 0.06798 0.73862 0.0
O134 O 0.22093 0.11038 0.3841 0.0
C135 C 0.18535 0.06756 0.54045 0.0
Co136 Co 0.88844 0.10869 0.47688 0.0
Co137 Co 0.89335 0.10284 0.63451 0.0
C138 C 0.87141 0.06983 0.54316 0.0
O139 O 0.87477 0.08094 0.49216 0.0
O140 O 0.87766 0.07616 0.60342 0.0
C141 C 0.86821 0.10059 0.3491 0.0
O142 O 0.85492 0.08627 0.38419 0.0
C143 C 0.88444 0.09447 0.78305 0.0
C144 C 0.91226 0.11441 0.82968 0.0
C145 C 0.89369 0.10106 0.84577 0.0
N146 N 0.89697 0.10374 0.73207 0.0
N147 N 0.9136 0.11547 0.76039 0.0
C148 C 0.86431 0.07912 0.77156 0.0
H149 H 0.86006 0.07906 0.71704 0.0
H150 H 0.85454 0.08094 0.80651 0.0
H151 H 0.86304 0.06517 0.78361 0.0
C152 C 0.8737 0.13243 0.5346 0.0
N153 N 0.88076 0.12068 0.54204 0.0
N154 N 0.88247 0.1181 0.60826 0.0
C155 C 0.87637 0.1281 0.64522 0.0
C156 C 0.87067 0.13755 0.59975 0.0
C157 C 0.87086 0.13924 0.46621 0.0
H158 H 0.88303 0.14255 0.4317 0.0
H159 H 0.85781 0.12774 0.4417 0.0
H160 H 0.86945 0.15207 0.47187 0.0
O161 O 0.91605 0.11903 0.4842 0.0
O162 O 0.91912 0.11353 0.59448 0.0
H163 H 0.88913 0.13276 0.74544 0.0
H164 H 0.86874 0.13607 0.74256 0.0
C165 C 0.87488 0.12756 0.72242 0.0
H166 H 0.86546 0.11271 0.73902 0.0
H167 H 0.9258 0.12453 0.73238 0.0
O168 O 0.88322 0.11272 0.38012 0.0
C169 C 0.92626 0.11965 0.53504 0.0
Co170 Co 0.8858 0.77859 0.46719 0.0
Co171 Co 0.89139 0.79064 0.62372 0.0
C172 C 0.92446 0.8006 0.53172 0.0
O173 O 0.91348 0.79255 0.48071 0.0
O174 O 0.91798 0.80098 0.59126 0.0
C175 C 0.89324 0.76632 0.33807 0.0
O176 O 0.90797 0.76778 0.37151 0.0
C177 C 0.89886 0.78807 0.77119 0.0
C178 C 0.88439 0.80202 0.81988 0.0
C179 C 0.89433 0.79271 0.83467 0.0
N180 N 0.89165 0.79412 0.72122 0.0
N181 N 0.88319 0.80261 0.7507 0.0
C182 C 0.91068 0.77901 0.75774 0.0
H183 H 0.91061 0.77585 0.70191 0.0
H184 H 0.90542 0.76575 0.78802 0.0
H185 H 0.92549 0.78886 0.77455 0.0
C186 C 0.86333 0.74035 0.52928 0.0
N187 N 0.87415 0.75937 0.53451 0.0
N188 N 0.87564 0.76437 0.6 0.0
C189 C 0.86519 0.74863 0.63828 0.0
C190 C 0.85734 0.73292 0.59501 0.0
C191 C 0.85971 0.72968 0.46281 0.0
H192 H 0.87323 0.73515 0.43389 0.0
H193 H 0.85355 0.71421 0.47151 0.0
H194 H 0.84984 0.73214 0.43068 0.0
O195 O 0.87559 0.79616 0.47343 0.0
O196 O 0.88093 0.80565 0.58283 0.0
H197 H 0.84752 0.7358 0.72795 0.0
H198 H 0.87262 0.74824 0.74398 0.0
C199 C 0.8612 0.74856 0.71385 0.0
H200 H 0.86048 0.7614 0.72782 0.0
H201 H 0.87625 0.80847 0.72361 0.0
O202 O 0.88109 0.76884 0.37081 0.0
C203 C 0.87492 0.8062 0.5227 0.0
Co204 Co 0.77252 0.55008 0.86656 0.0
Co205 Co 0.76562 0.53794 0.71012 0.0
C206 C 0.78857 0.5276 0.80154 0.0
O207 O 0.7859 0.5358 0.85269 0.0
O208 O 0.78167 0.52732 0.74217 0.0
C209 C 0.79227 0.56206 0.9957 0.0
O210 O 0.80533 0.5602 0.96245 0.0
C211 C 0.77546 0.54047 0.56243 0.0
C212 C 0.747 0.52672 0.51421 0.0
C213 C 0.76622 0.53592 0.49909 0.0
N214 N 0.76226 0.53448 0.61263 0.0
N215 N 0.74529 0.52611 0.58342 0.0
C216 C 0.79635 0.54938 0.57545 0.0
H217 H 0.79941 0.55125 0.63169 0.0
H218 H 0.80423 0.56336 0.54946 0.0
H219 H 0.80151 0.54017 0.55338 0.0
C220 C 0.78839 0.5883 0.8042 0.0
N221 N 0.78015 0.56928 0.79911 0.0
N222 N 0.77638 0.56423 0.73375 0.0
C223 C 0.78152 0.57993 0.69546 0.0
C224 C 0.78957 0.59568 0.73854 0.0
C225 C 0.79562 0.59904 0.87047 0.0
H226 H 0.80329 0.59325 0.89998 0.0
H227 H 0.80531 0.61443 0.86136 0.0
H228 H 0.78338 0.59705 0.90218 0.0
O229 O 0.74469 0.53273 0.86096 0.0
O230 O 0.74021 0.52312 0.75164 0.0
H231 H 0.76347 0.56702 0.60728 0.0
H232 H 0.776 0.59262 0.6069 0.0
C233 C 0.77709 0.57991 0.62034 0.0
H234 H 0.78865 0.58028 0.58893 0.0
H235 H 0.73252 0.52032 0.61073 0.0
O236 O 0.77775 0.55989 0.96284 0.0
C237 C 0.73383 0.5227 0.812 0.0
Co238 Co 0.44455 0.2198 0.8526 0.0
Co239 Co 0.45527 0.22593 0.69487 0.0
C240 C 0.46738 0.25881 0.78771 0.0
O241 O 0.45942 0.24755 0.8382 0.0
O242 O 0.46703 0.25262 0.72695 0.0
C243 C 0.43265 0.22826 0.97996 0.0
O244 O 0.43371 0.24249 0.94419 0.0
C245 C 0.45505 0.23475 0.54633 0.0
C246 C 0.46207 0.21424 0.49924 0.0
C247 C 0.45745 0.22804 0.48344 0.0
N248 N 0.45787 0.22512 0.59712 0.0
N249 N 0.46227 0.21304 0.56849 0.0
C250 C 0.45091 0.25053 0.5581 0.0
H251 H 0.44716 0.25093 0.61296 0.0
H252 H 0.43918 0.24887 0.52421 0.0
H253 H 0.46371 0.26424 0.54468 0.0
C254 C 0.40596 0.19693 0.79488 0.0
N255 N 0.4248 0.20851 0.78746 0.0
N256 N 0.42907 0.2113 0.72124 0.0
C257 C 0.41291 0.20166 0.68428 0.0
C258 C 0.39776 0.19216 0.72972 0.0
C259 C 0.39636 0.18974 0.86315 0.0
H260 H 0.40533 0.18645 0.89709 0.0
H261 H 0.39461 0.20102 0.88852 0.0
H262 H 0.3822 0.17682 0.85709 0.0
O263 O 0.461 0.20855 0.84412 0.0
O264 O 0.4696 0.21427 0.73391 0.0
H265 H 0.42043 0.1967 0.58346 0.0
H266 H 0.39721 0.1946 0.58727 0.0
C267 C 0.41194 0.20247 0.60718 0.0
H268 H 0.41803 0.21746 0.59119 0.0
H269 H 0.465 0.20366 0.59628 0.0
O270 O 0.43539 0.21597 0.9495 0.0
C271 C 0.47033 0.20771 0.79282 0.0
Co272 Co 0.77235 0.22473 0.85152 0.0
Co273 Co 0.76817 0.22944 0.69274 0.0
C274 C 0.73424 0.20783 0.78176 0.0
O275 O 0.74485 0.21079 0.83394 0.0
O276 O 0.74115 0.21444 0.72238 0.0
C277 C 0.76389 0.20424 0.97858 0.0
O278 O 0.74986 0.19088 0.94265 0.0
C279 C 0.75991 0.21998 0.54479 0.0
C280 C 0.7805 0.24738 0.49686 0.0
C281 C 0.76664 0.22893 0.48173 0.0
N282 N 0.76955 0.23257 0.59514 0.0
N283 N 0.78171 0.24895 0.56607 0.0
C284 C 0.74409 0.20011 0.55713 0.0
H285 H 0.73038 0.19928 0.54449 0.0
H286 H 0.74386 0.196 0.61195 0.0
H287 H 0.74557 0.18996 0.52303 0.0
C288 C 0.79664 0.20987 0.79901 0.0
N289 N 0.78495 0.21691 0.78902 0.0
N290 N 0.78264 0.21814 0.72225 0.0
C291 C 0.79271 0.21175 0.68751 0.0
C292 C 0.80199 0.20638 0.735 0.0
C293 C 0.80319 0.20748 0.86861 0.0
H294 H 0.80625 0.21981 0.90187 0.0
H295 H 0.79166 0.1945 0.8934 0.0
H296 H 0.81611 0.20617 0.86473 0.0
O297 O 0.78213 0.25233 0.84345 0.0
O298 O 0.77998 0.25549 0.73026 0.0
H299 H 0.79854 0.224 0.58621 0.0
H300 H 0.80036 0.20274 0.59258 0.0
C301 C 0.79246 0.20977 0.61051 0.0
H302 H 0.77758 0.20098 0.59309 0.0
H303 H 0.79107 0.26114 0.59352 0.0
O304 O 0.77585 0.21954 0.94862 0.0
C305 C 0.78453 0.26256 0.79052 0.0
Co306 Co 0.8822 0.44274 0.8105 0.0
Co307 Co 0.87184 0.43488 0.96781 0.0
C308 C 0.86 0.45784 0.88159 0.0
O309 O 0.8683 0.45616 0.82876 0.0
O310 O 0.85984 0.45008 0.93899 0.0
C311 C 0.89309 0.46273 0.68158 0.0
O312 O 0.89036 0.47525 0.71489 0.0
C313 C 0.87465 0.44455 0.11551 0.0
C314 C 0.8626 0.41614 0.16347 0.0
C315 C 0.87072 0.43529 0.17869 0.0
N316 N 0.86931 0.43144 0.06521 0.0
N317 N 0.86201 0.41449 0.09426 0.0
C318 C 0.8823 0.46531 0.10289 0.0
H319 H 0.88144 0.4681 0.04729 0.0
H320 H 0.89735 0.47356 0.11937 0.0
H321 H 0.87419 0.47031 0.13406 0.0
C322 C 0.92111 0.45895 0.86729 0.0
N323 N 0.90213 0.45032 0.87513 0.0
N324 N 0.89784 0.44654 0.94104 0.0
C325 C 0.91399 0.45204 0.9769 0.0
C326 C 0.92925 0.46035 0.93165 0.0
C327 C 0.93109 0.46644 0.79982 0.0
H328 H 0.92525 0.47458 0.7738 0.0
H329 H 0.94662 0.4758 0.8067 0.0
H330 H 0.92836 0.45432 0.76591 0.0
O331 O 0.8645 0.41484 0.81482 0.0
O332 O 0.85817 0.40939 0.92696 0.0
H333 H 0.90242 0.43383 0.06552 0.0
H334 H 0.92799 0.44729 0.0631 0.0
C335 C 0.91484 0.44773 0.05163 0.0
H336 H 0.91487 0.45899 0.08389 0.0
H337 H 0.85684 0.40179 0.06682 0.0
O338 O 0.89153 0.4484 0.71399 0.0
C339 C 0.85632 0.40353 0.86506 0.0
Co340 Co 0.55384 0.43756 0.81836 0.0
Co341 Co 0.55972 0.43268 0.97588 0.0
C342 C 0.53796 0.3991 0.88725 0.0
O343 O 0.54078 0.40991 0.83573 0.0
O344 O 0.5445 0.40575 0.94691 0.0
C345 C 0.53357 0.42812 0.69025 0.0
O346 O 0.52102 0.41318 0.72488 0.0
C347 C 0.55165 0.4244 0.12447 0.0
C348 C 0.57884 0.44622 0.17016 0.0
C349 C 0.56078 0.43178 0.1869 0.0
N350 N 0.56375 0.43427 0.07313 0.0
N351 N 0.58003 0.44713 0.10083 0.0
C352 C 0.53216 0.40777 0.1132 0.0
H353 H 0.5331 0.3946 0.11257 0.0
H354 H 0.52646 0.40899 0.06254 0.0
H355 H 0.52232 0.40643 0.15527 0.0
C356 C 0.53842 0.46074 0.87569 0.0
N357 N 0.54596 0.44941 0.88323 0.0
N358 N 0.54793 0.44709 0.94946 0.0
C359 C 0.54146 0.45677 0.98635 0.0
C360 C 0.5353 0.46581 0.94082 0.0
C361 C 0.53527 0.46728 0.80721 0.0
H362 H 0.54737 0.47061 0.77226 0.0
H363 H 0.5222 0.45562 0.78337 0.0
H364 H 0.53372 0.48003 0.81259 0.0
O365 O 0.58158 0.44867 0.82425 0.0
O366 O 0.58539 0.44393 0.93464 0.0
H367 H 0.55455 0.46279 0.08621 0.0
H368 H 0.53286 0.46387 0.08336 0.0
C369 C 0.5401 0.45635 0.06359 0.0
H370 H 0.5318 0.44142 0.081 0.0
H371 H 0.59182 0.45685 0.07235 0.0
O372 O 0.54806 0.441 0.72161 0.0
C373 C 0.59217 0.44991 0.87469 0.0
Co374 Co 0.55513 0.11146 0.80239 0.0
Co375 Co 0.55957 0.12389 0.95855 0.0
C376 C 0.59332 0.1354 0.86827 0.0
O377 O 0.5827 0.12672 0.81709 0.0
O378 O 0.58643 0.13558 0.92719 0.0
C379 C 0.56418 0.10073 0.67311 0.0
O380 O 0.57965 0.104 0.7061 0.0
C381 C 0.56704 0.12227 0.107 0.0
C382 C 0.55029 0.13406 0.1535 0.0
C383 C 0.56145 0.12616 0.16981 0.0
N384 N 0.55921 0.12733 0.05596 0.0
N385 N 0.54938 0.13454 0.0842 0.0
C386 C 0.58036 0.11483 0.09547 0.0
H387 H 0.58492 0.11656 0.04066 0.0
H388 H 0.57334 0.09954 0.10877 0.0
H389 H 0.59294 0.12242 0.12964 0.0
C390 C 0.53441 0.07323 0.86595 0.0
N391 N 0.5442 0.09232 0.87032 0.0
N392 N 0.54506 0.09746 0.93542 0.0
C393 C 0.53508 0.0817 0.97413 0.0
C394 C 0.52835 0.06587 0.93175 0.0
C395 C 0.53174 0.06245 0.8003 0.0
H396 H 0.54514 0.06922 0.77021 0.0
H397 H 0.52744 0.04739 0.81042 0.0
H398 H 0.52063 0.06301 0.76872 0.0
O399 O 0.54354 0.1279 0.80668 0.0
O400 O 0.54808 0.13771 0.91575 0.0
H401 H 0.52862 0.09419 0.06047 0.0
H402 H 0.51646 0.0686 0.06132 0.0
C403 C 0.53006 0.08163 0.04864 0.0
H404 H 0.54126 0.08182 0.08164 0.0
H405 H 0.54171 0.13942 0.05614 0.0
O406 O 0.55108 0.10154 0.70621 0.0
C407 C 0.5421 0.13773 0.85505 0.0
Co408 Co 0.43847 0.88005 0.19026 0.0
Co409 Co 0.43223 0.87117 0.03178 0.0
C410 C 0.45095 0.85532 0.12019 0.0
O411 O 0.44855 0.86297 0.17354 0.0
O412 O 0.44585 0.8576 0.06043 0.0
C413 C 0.45876 0.88946 0.3178 0.0
O414 O 0.47044 0.88579 0.28294 0.0
C415 C 0.44221 0.87343 0.88464 0.0
C416 C 0.41429 0.86377 0.83548 0.0
C417 C 0.43323 0.87022 0.82113 0.0
N418 N 0.42914 0.86924 0.93433 0.0
N419 N 0.41248 0.86339 0.9046 0.0
C420 C 0.46253 0.87922 0.89822 0.0
H421 H 0.46535 0.87993 0.95454 0.0
H422 H 0.47211 0.8933 0.87497 0.0
H423 H 0.46581 0.86884 0.87365 0.0
C424 C 0.45831 0.91958 0.13646 0.0
N425 N 0.4486 0.90061 0.12689 0.0
N426 N 0.44551 0.89696 0.06035 0.0
C427 C 0.45278 0.91352 0.02563 0.0
C428 C 0.46134 0.92836 0.07249 0.0
C429 C 0.46496 0.92889 0.20545 0.0
H430 H 0.47309 0.92304 0.23142 0.0
H431 H 0.47411 0.94453 0.2009 0.0
H432 H 0.45245 0.92551 0.23818 0.0
O433 O 0.41052 0.86495 0.18335 0.0
O434 O 0.4063 0.85868 0.07082 0.0
H435 H 0.45148 0.92927 0.93771 0.0
H436 H 0.46094 0.9139 0.92043 0.0
C437 C 0.45002 0.91526 0.95002 0.0
H438 H 0.43573 0.90396 0.93359 0.0
H439 H 0.39988 0.85929 0.93149 0.0
O440 O 0.44466 0.88885 0.28692 0.0
C441 C 0.39973 0.85732 0.13147 0.0
Co442 Co 0.11293 0.55618 0.19313 0.0
Co443 Co 0.12492 0.56217 0.03651 0.0
C444 C 0.13555 0.59504 0.1304 0.0
O445 O 0.12741 0.58391 0.18098 0.0
O446 O 0.13571 0.58871 0.07033 0.0
C447 C 0.10053 0.56345 0.32223 0.0
O448 O 0.10178 0.57808 0.28864 0.0
C449 C 0.12229 0.56995 0.8893 0.0
C450 C 0.13657 0.55591 0.8399 0.0
C451 C 0.12708 0.56568 0.82562 0.0
N452 N 0.12846 0.56275 0.93894 0.0
N453 N 0.13715 0.55456 0.90902 0.0
C454 C 0.11295 0.58148 0.90325 0.0
H455 H 0.10897 0.58053 0.9586 0.0
H456 H 0.10018 0.5767 0.87044 0.0
H457 H 0.12301 0.59655 0.89004 0.0
C458 C 0.07465 0.53438 0.13108 0.0
N459 N 0.09366 0.54509 0.12573 0.0
N460 N 0.09862 0.54671 0.06014 0.0
C461 C 0.08283 0.53643 0.02189 0.0
C462 C 0.06716 0.52858 0.06533 0.0
C463 C 0.06404 0.53057 0.19779 0.0
H464 H 0.06947 0.54403 0.22705 0.0
H465 H 0.04855 0.52435 0.18943 0.0
H466 H 0.06661 0.52069 0.22943 0.0
O467 O 0.12995 0.54535 0.18551 0.0
O468 O 0.13946 0.55104 0.07617 0.0
H469 H 0.06995 0.5187 0.93243 0.0
H470 H 0.08218 0.54378 0.91627 0.0
C471 C 0.08268 0.53244 0.94629 0.0
H472 H 0.09554 0.53181 0.93192 0.0
H473 H 0.14314 0.54769 0.93576 0.0
O474 O 0.10322 0.5514 0.28959 0.0
C475 C 0.13981 0.54463 0.13574 0.0
Co476 Co 0.43922 0.55571 0.18982 0.0
Co477 Co 0.43519 0.56062 0.03115 0.0
C478 C 0.40114 0.53978 0.12013 0.0
O479 O 0.41171 0.5425 0.17228 0.0
O480 O 0.40813 0.54625 0.0607 0.0
C481 C 0.43018 0.53519 0.31691 0.0
O482 O 0.41592 0.52209 0.28104 0.0
C483 C 0.42674 0.55143 0.88308 0.0
C484 C 0.44803 0.57857 0.83545 0.0
C485 C 0.43372 0.56034 0.82012 0.0
N486 N 0.43668 0.56384 0.93357 0.0
N487 N 0.44926 0.58006 0.90467 0.0
C488 C 0.41043 0.53181 0.89523 0.0
H489 H 0.41009 0.52754 0.9499 0.0
H490 H 0.41139 0.52144 0.8607 0.0
H491 H 0.39698 0.53158 0.88307 0.0
C492 C 0.46247 0.53969 0.13708 0.0
N493 N 0.45124 0.54726 0.12721 0.0
N494 N 0.44896 0.54857 0.06046 0.0
C495 C 0.45856 0.54166 0.02561 0.0
C496 C 0.46752 0.53589 0.073 0.0
C497 C 0.46892 0.53711 0.2066 0.0
H498 H 0.47232 0.54953 0.23982 0.0
H499 H 0.45722 0.52428 0.23152 0.0
H500 H 0.48162 0.53541 0.20256 0.0
O501 O 0.44995 0.58345 0.18192 0.0
O502 O 0.44775 0.58668 0.06886 0.0
H503 H 0.46475 0.55389 0.92427 0.0
H504 H 0.46558 0.5321 0.93066 0.0
C505 C 0.45818 0.53963 0.94861 0.0
H506 H 0.44325 0.53131 0.93129 0.0
H507 H 0.45892 0.59209 0.93225 0.0
O508 O 0.44248 0.5503 0.28688 0.0
C509 C 0.45266 0.59378 0.12899 0.0
Co510 Co 0.54714 0.77433 0.13138 0.0
Co511 Co 0.53867 0.7676 0.29 0.0
C512 C 0.5223 0.78622 0.20347 0.0
O513 O 0.52987 0.78411 0.14934 0.0
O514 O 0.52478 0.781 0.26267 0.0
C515 C 0.55601 0.79463 0.0038 0.0
O516 O 0.55176 0.80592 0.03839 0.0
C517 C 0.54114 0.77739 0.43744 0.0
C518 C 0.53178 0.74943 0.48588 0.0
C519 C 0.53809 0.76833 0.50073 0.0
N520 N 0.537 0.76442 0.3874 0.0
N521 N 0.53135 0.74774 0.41672 0.0
C522 C 0.54675 0.79771 0.42452 0.0
H523 H 0.54544 0.80016 0.36895 0.0
H524 H 0.56167 0.80719 0.4406 0.0
H525 H 0.53769 0.8015 0.45585 0.0
C526 C 0.58677 0.79438 0.1841 0.0
N527 N 0.56784 0.78452 0.1942 0.0
N528 N 0.56435 0.78112 0.26069 0.0
C529 C 0.58098 0.78824 0.2948 0.0
C530 C 0.5957 0.79712 0.24764 0.0
C531 C 0.59592 0.80141 0.11507 0.0
H532 H 0.59299 0.78907 0.08201 0.0
H533 H 0.58958 0.80915 0.08955 0.0
H534 H 0.61149 0.81102 0.1195 0.0
O535 O 0.53228 0.74631 0.13765 0.0
O536 O 0.52633 0.74178 0.25035 0.0
H537 H 0.57152 0.77054 0.38531 0.0
H538 H 0.59686 0.78606 0.38054 0.0
C539 C 0.58289 0.78489 0.36973 0.0
H540 H 0.58181 0.79568 0.40118 0.0
H541 H 0.52732 0.7352 0.3895 0.0
O542 O 0.55585 0.78075 0.03476 0.0
C543 C 0.52489 0.73538 0.18937 0.0
Co544 Co 0.22 0.77353 0.14573 0.0
Co545 Co 0.22631 0.77046 0.30398 0.0
C546 C 0.20435 0.73589 0.21846 0.0
O547 O 0.20656 0.74611 0.16569 0.0
O548 O 0.21153 0.74324 0.27677 0.0
C549 C 0.19961 0.76366 0.01774 0.0
O550 O 0.18712 0.7487 0.05241 0.0
C551 C 0.21799 0.7623 0.45206 0.0
C552 C 0.24483 0.78451 0.49865 0.0
C553 C 0.22689 0.76973 0.51473 0.0
N554 N 0.2301 0.77244 0.40117 0.0
N555 N 0.24617 0.78556 0.42936 0.0
C556 C 0.19872 0.7454 0.44009 0.0
H557 H 0.20015 0.73255 0.43613 0.0
H558 H 0.19271 0.74695 0.39064 0.0
H559 H 0.18889 0.74324 0.48331 0.0
C560 C 0.20522 0.79779 0.19934 0.0
N561 N 0.21245 0.78624 0.20871 0.0
N562 N 0.21426 0.78428 0.27534 0.0
C563 C 0.208 0.79437 0.31065 0.0
C564 C 0.20219 0.80339 0.26368 0.0
C565 C 0.20232 0.80406 0.12993 0.0
H566 H 0.21441 0.80701 0.09554 0.0
H567 H 0.18919 0.79242 0.1064 0.0
H568 H 0.20101 0.81699 0.13381 0.0
O569 O 0.24773 0.78384 0.15087 0.0
O570 O 0.25205 0.78258 0.26372 0.0
H571 H 0.22113 0.80155 0.41041 0.0
H572 H 0.19895 0.80168 0.40615 0.0
C573 C 0.20664 0.79447 0.38784 0.0
H574 H 0.19882 0.77966 0.40678 0.0
H575 H 0.25794 0.79547 0.40124 0.0
O576 O 0.21415 0.77654 0.04883 0.0
C577 C 0.25854 0.78688 0.20258 0.0
Co578 Co 0.22182 0.44604 0.13906 0.0
Co579 Co 0.22655 0.45768 0.29586 0.0
C580 C 0.26014 0.46877 0.20537 0.0
O581 O 0.24945 0.46056 0.15385 0.0
O582 O 0.25334 0.46885 0.26457 0.0
C583 C 0.23016 0.43449 0.01021 0.0
O584 O 0.2452 0.43674 0.04373 0.0
C585 C 0.23376 0.45514 0.44364 0.0
C586 C 0.21831 0.46816 0.49161 0.0
C587 C 0.22876 0.45942 0.50688 0.0
N588 N 0.22632 0.46084 0.39333 0.0
N589 N 0.21725 0.46875 0.4224 0.0
C590 C 0.24626 0.44679 0.4309 0.0
H591 H 0.24876 0.44632 0.37476 0.0
H592 H 0.23968 0.4322 0.45211 0.0
H593 H 0.26002 0.45545 0.45793 0.0
C594 C 0.19963 0.40761 0.19964 0.0
N595 N 0.21028 0.42662 0.20564 0.0
N596 N 0.2114 0.43143 0.27123 0.0
C597 C 0.20086 0.41556 0.30877 0.0
C598 C 0.19334 0.39997 0.26492 0.0
C599 C 0.19631 0.39714 0.13283 0.0
H600 H 0.2099 0.40288 0.10422 0.0
H601 H 0.19036 0.38168 0.14108 0.0
H602 H 0.18635 0.39946 0.10066 0.0
O603 O 0.21095 0.4631 0.14486 0.0
O604 O 0.21569 0.47225 0.25469 0.0
H605 H 0.18255 0.40241 0.39675 0.0
H606 H 0.2075 0.41503 0.41532 0.0
C607 C 0.19626 0.41528 0.38385 0.0
H608 H 0.1953 0.42801 0.39736 0.0
H609 H 0.21003 0.47426 0.39498 0.0
O610 O 0.21759 0.43637 0.0427 0.0
C611 C 0.20983 0.47283 0.19432 0.0
C612 C 0.18996 0.14908 0.49297 0.0
C613 C 0.18338 0.13504 0.54435 0.0
C614 C 0.18087 0.15956 0.48046 0.0
C615 C 0.16453 0.15556 0.51918 0.0
C616 C 0.15793 0.14155 0.57176 0.0
C617 C 0.16762 0.1316 0.58437 0.0
C618 C 0.18864 0.17476 0.42532 0.0
C619 C 0.14034 0.13671 0.61326 0.0
C620 C 0.14839 0.19192 0.5272 0.0
C621 C 0.13424 0.18519 0.47622 0.0
C622 C 0.15859 0.18259 0.54094 0.0
C623 C 0.15419 0.16588 0.50391 0.0
C624 C 0.13997 0.15905 0.45212 0.0
C625 C 0.13031 0.16896 0.43822 0.0
C626 C 0.17404 0.1906 0.59511 0.0
C627 C 0.13469 0.14107 0.41244 0.0
H628 H 0.20228 0.15189 0.46244 0.0
H629 H 0.16245 0.12064 0.62377 0.0
H630 H 0.17804 0.17095 0.38336 0.0
H631 H 0.19133 0.1885 0.44733 0.0
H632 H 0.20206 0.17677 0.40242 0.0
H633 H 0.13714 0.1255 0.65244 0.0
H634 H 0.14209 0.14955 0.64006 0.0
H635 H 0.12795 0.13171 0.57815 0.0
H636 H 0.15157 0.20458 0.55619 0.0
H637 H 0.11926 0.16367 0.39919 0.0
H638 H 0.18768 0.19326 0.57224 0.0
H639 H 0.17049 0.18017 0.63751 0.0
H640 H 0.17613 0.2041 0.61755 0.0
H641 H 0.14725 0.14258 0.38421 0.0
H642 H 0.12309 0.13751 0.37466 0.0
H643 H 0.13006 0.129 0.44888 0.0
C644 C 0.84714 0.04201 0.47677 0.0
C645 C 0.86039 0.04917 0.5308 0.0
C646 C 0.83714 0.02254 0.46178 0.0
C647 C 0.84085 0.01002 0.50073 0.0
C648 C 0.8542 0.01716 0.55547 0.0
C649 C 0.86365 0.03667 0.57049 0.0
C650 C 0.8226 0.01538 0.40433 0.0
C651 C 0.85875 0.00425 0.59728 0.0
C652 C 0.8044 0.95753 0.50588 0.0
C653 C 0.81153 0.95018 0.45618 0.0
C654 C 0.81361 0.97704 0.51992 0.0
C655 C 0.83062 0.98941 0.48454 0.0
C656 C 0.83785 0.98209 0.43396 0.0
C657 C 0.82805 0.96253 0.41966 0.0
C658 C 0.80516 0.98439 0.57276 0.0
C659 C 0.85616 0.99485 0.39616 0.0
H660 H 0.84447 0.05164 0.4464 0.0
H661 H 0.87402 0.04223 0.6119 0.0
H662 H 0.82673 0.00853 0.36359 0.0
H663 H 0.80857 0.00442 0.42461 0.0
H664 H 0.82104 0.02694 0.38031 0.0
H665 H 0.86978 0.01211 0.63716 0.0
H666 H 0.84574 0.99315 0.6233 0.0
H667 H 0.86383 0.99685 0.56257 0.0
H668 H 0.7915 0.948 0.53362 0.0
H669 H 0.83363 0.95681 0.38158 0.0
H670 H 0.80281 0.99551 0.54928 0.0
H671 H 0.81519 0.99107 0.6164 0.0
H672 H 0.79143 0.97295 0.59363 0.0
H673 H 0.85497 0.00607 0.36775 0.0
H674 H 0.85994 0.98689 0.35882 0.0
H675 H 0.86794 0.0021 0.43387 0.0
C676 C 0.95234 0.80365 0.46708 0.0
C677 C 0.94514 0.81 0.52019 0.0
C678 C 0.97185 0.81291 0.45282 0.0
C679 C 0.98438 0.82916 0.49163 0.0
C680 C 0.97721 0.83562 0.54551 0.0
C681 C 0.95766 0.82579 0.55976 0.0
C682 C 0.97903 0.80529 0.3963 0.0
C683 C 0.99015 0.8531 0.58721 0.0
C684 C 0.03679 0.84512 0.50077 0.0
C685 C 0.04443 0.85975 0.45162 0.0
C686 C 0.01719 0.8347 0.51294 0.0
C687 C 0.00502 0.83935 0.47621 0.0
C688 C 0.01263 0.85393 0.42571 0.0
C689 C 0.03229 0.86382 0.41332 0.0
C690 C 0.00955 0.81887 0.56571 0.0
C691 C 9e-05 0.85947 0.38639 0.0
H692 H 0.94271 0.79133 0.43682 0.0
H693 H 0.95209 0.8308 0.60048 0.0
H694 H 0.98608 0.81617 0.35537 0.0
H695 H 0.98982 0.80211 0.41746 0.0
H696 H 0.96745 0.79217 0.3723 0.0
H697 H 0.98226 0.85646 0.62637 0.0
H698 H 0.00104 0.85106 0.6141 0.0
H699 H -0.00223 0.86551 0.55231 0.0
H700 H 0.04617 0.84182 0.52986 0.0
H701 H 0.03823 0.87522 0.37564 0.0
H702 H -0.00169 0.80548 0.54217 0.0
H703 H 0.00294 0.82238 0.60918 0.0
H704 H 0.02081 0.81636 0.58685 0.0
H705 H 0.98882 0.84699 0.35848 0.0
H706 H 0.00821 0.871 0.34843 0.0
H707 H 0.99291 0.86433 0.42312 0.0
C708 C 0.83381 0.8748 0.42865 0.0
C709 C 0.81772 0.86994 0.46922 0.0
C710 C 0.84436 0.86559 0.43767 0.0
C711 C 0.83832 0.85085 0.48707 0.0
C712 C 0.82218 0.84601 0.52862 0.0
C713 C 0.81221 0.8558 0.5198 0.0
C714 C 0.8618 0.87149 0.39381 0.0
C715 C 0.81511 0.83009 0.58088 0.0
C716 C 0.85243 0.81335 0.45994 0.0
C717 C 0.86638 0.81825 0.51084 0.0
C718 C 0.84322 0.82391 0.45148 0.0
C719 C 0.84847 0.84001 0.49377 0.0
C720 C 0.86301 0.8454 0.54366 0.0
C721 C 0.87162 0.83428 0.55224 0.0
C722 C 0.82751 0.81752 0.39867 0.0
C723 C 0.86932 0.86277 0.58836 0.0
H724 H 0.83818 0.88584 0.38988 0.0
H725 H 0.79969 0.85194 0.55086 0.0
H726 H 0.87419 0.87483 0.42718 0.0
H727 H 0.85953 0.85959 0.35952 0.0
H728 H 0.86532 0.88409 0.36124 0.0
H729 H 0.80243 0.82822 0.60946 0.0
H730 H 0.81137 0.81655 0.55436 0.0
H731 H 0.82646 0.8329 0.61873 0.0
H732 H 0.84826 0.80087 0.42823 0.0
H733 H 0.88252 0.83818 0.59129 0.0
H734 H 0.83087 0.82909 0.36113 0.0
H735 H 0.81404 0.81423 0.42475 0.0
H736 H 0.8252 0.80472 0.36977 0.0
H737 H 0.87326 0.87542 0.55554 0.0
H738 H 0.88165 0.8657 0.62152 0.0
H739 H 0.85745 0.86083 0.62211 0.0
C740 C 0.15884 0.03975 0.48136 0.0
C741 C 0.17327 0.047 0.53103 0.0
C742 C 0.14754 0.02008 0.47127 0.0
C743 C 0.15147 0.00759 0.5096 0.0
C744 C 0.16611 0.01494 0.5598 0.0
C745 C 0.17658 0.0346 0.57094 0.0
C746 C 0.13154 0.01268 0.41935 0.0
C747 C 0.1712 0.00215 0.59984 0.0
C748 C 0.11661 0.95471 0.52458 0.0
C749 C 0.12293 0.94753 0.47154 0.0
C750 C 0.12524 0.97437 0.53568 0.0
C751 C 0.14104 0.98691 0.49473 0.0
C752 C 0.14747 0.97962 0.44124 0.0
C753 C 0.13805 0.96 0.42937 0.0
C754 C 0.11753 0.9817 0.5913 0.0
C755 C 0.1647 0.99247 0.39816 0.0
H756 H 0.15626 0.04948 0.45109 0.0
H757 H 0.18789 0.04036 0.60902 0.0
H758 H 0.13479 0.00608 0.37518 0.0
H759 H 0.11818 0.00149 0.44325 0.0
H760 H 0.12914 0.02411 0.39917 0.0
H761 H 0.18306 0.01019 0.63668 0.0
H762 H 0.15871 0.99141 0.62918 0.0
H763 H 0.1754 0.99433 0.56347 0.0
H764 H 0.10479 0.94495 0.55668 0.0
H765 H 0.14296 0.95431 0.38871 0.0
H766 H 0.11486 0.99283 0.56985 0.0
H767 H 0.12814 0.98837 0.63328 0.0
H768 H 0.10411 0.97023 0.61402 0.0
H769 H 0.16243 0.00315 0.37073 0.0
H770 H 0.168 0.98446 0.35932 0.0
H771 H 0.17726 0.00036 0.43222 0.0
C772 C 0.95743 0.12298 0.56849 0.0
C773 C 0.94695 0.1283 0.52574 0.0
C774 C 0.97722 0.1316 0.5617 0.0
C775 C 0.98671 0.14623 0.51235 0.0
C776 C 0.97617 0.1516 0.4689 0.0
C777 C 0.95636 0.14237 0.47553 0.0
C778 C 0.98796 0.12516 0.60755 0.0
C779 C 0.98586 0.16742 0.41665 0.0
C780 C 0.0386 0.18268 0.54045 0.0
C781 C 0.04741 0.17737 0.48998 0.0
C782 C 0.01882 0.17249 0.54894 0.0
C783 C 0.00773 0.15634 0.50717 0.0
C784 C 0.01665 0.15044 0.45818 0.0
C785 C 0.0364 0.16121 0.44947 0.0
C786 C 0.00975 0.17943 0.60071 0.0
C787 C 0.00531 0.13299 0.41409 0.0
H788 H 0.95014 0.11198 0.60701 0.0
H789 H 0.94829 0.1466 0.44279 0.0
H790 H 0.99676 0.12117 0.57558 0.0
H791 H -0.00222 0.13699 0.6417 0.0
H792 H 0.97833 0.11283 0.64033 0.0
H793 H 0.97559 0.16991 0.38707 0.0
H794 H 0.99602 0.1808 0.4433 0.0
H795 H 0.99416 0.16403 0.37963 0.0
H796 H 0.0471 0.19525 0.57149 0.0
H797 H 0.04323 0.15699 0.41082 0.0
H798 H 0.00092 0.16795 0.63775 0.0
H799 H 0.00018 0.18336 0.57352 0.0
H800 H 0.02044 0.19197 0.63024 0.0
H801 H 0.996 0.12061 0.44711 0.0
H802 H 0.01456 0.12942 0.3828 0.0
H803 H 0.99597 0.13533 0.37853 0.0
C804 C 0.83381 0.46414 0.91302 0.0
C805 C 0.85021 0.46889 0.87466 0.0
C806 C 0.8236 0.47364 0.90188 0.0
C807 C 0.83029 0.4885 0.85256 0.0
C808 C 0.8472 0.49375 0.81547 0.0
C809 C 0.85683 0.48373 0.82643 0.0
C810 C 0.80543 0.46747 0.94151 0.0
C811 C 0.85505 0.50986 0.76383 0.0
C812 C 0.79632 0.5023 0.77198 0.0
C813 C 0.79962 0.51793 0.81261 0.0
C814 C 0.80599 0.49236 0.78521 0.0
C815 C 0.81957 0.49853 0.83918 0.0
C816 C 0.82322 0.51454 0.87939 0.0
C817 C 0.81304 0.52392 0.86608 0.0
C818 C 0.80152 0.47514 0.74201 0.0
C819 C 0.83796 0.52185 0.93615 0.0
H820 H 0.82862 0.45257 0.94996 0.0
H821 H 0.86964 0.48756 0.79724 0.0
H822 H 0.80641 0.47962 0.97107 0.0
H823 H 0.79339 0.46274 0.90489 0.0
H824 H 0.8022 0.45569 0.97805 0.0
H825 H 0.86882 0.51267 0.74157 0.0
H826 H 0.84478 0.50648 0.72099 0.0
H827 H 0.85713 0.52305 0.78884 0.0
H828 H 0.78583 0.49755 0.73101 0.0
H829 H 0.81574 0.53611 0.89723 0.0
H830 H 0.79697 0.46258 0.77592 0.0
H831 H 0.81445 0.47749 0.71418 0.0
H832 H 0.79014 0.47185 0.70351 0.0
H833 H 0.83429 0.51063 0.97558 0.0
H834 H 0.83922 0.53463 0.96209 0.0
H835 H 0.85203 0.52549 0.91454 0.0
C836 C 0.49277 0.29202 0.76028 0.0
C837 C 0.47732 0.27944 0.80111 0.0
C838 C 0.5029 0.31152 0.77553 0.0
C839 C 0.49707 0.31857 0.83173 0.0
C840 C 0.48122 0.30596 0.87215 0.0
C841 C 0.47168 0.28652 0.85681 0.0
C842 C 0.51998 0.32453 0.73215 0.0
C843 C 0.47426 0.31302 0.93129 0.0
C844 C 0.53174 0.3663 0.91136 0.0
C845 C 0.52699 0.37841 0.87627 0.0
C846 C 0.52225 0.34675 0.89681 0.0
C847 C 0.50734 0.3392 0.84763 0.0
C848 C 0.50213 0.35134 0.81372 0.0
C849 C 0.5122 0.37085 0.8278 0.0
C850 C 0.52844 0.33426 0.93286 0.0
C851 C 0.48592 0.34373 0.76257 0.0
H852 H 0.49724 0.28654 0.71754 0.0
H853 H 0.45963 0.27685 0.88813 0.0
H854 H 0.51765 0.33544 0.70673 0.0
H855 H 0.5327 0.33215 0.76563 0.0
H856 H 0.52299 0.31671 0.69166 0.0
H857 H 0.46151 0.30136 0.95689 0.0
H858 H 0.48564 0.32012 0.97051 0.0
H859 H 0.4707 0.32374 0.9122 0.0
H860 H 0.54329 0.3722 0.94843 0.0
H861 H 0.5084 0.38022 0.80122 0.0
H862 H 0.5328 0.32714 0.894 0.0
H863 H 0.5164 0.32294 0.96241 0.0
H864 H 0.54048 0.34241 0.9689 0.0
H865 H 0.48906 0.33712 0.71815 0.0
H866 H 0.48325 0.35501 0.74263 0.0
H867 H 0.47272 0.33251 0.78722 0.0
C868 C 0.7012 0.1998 0.7503 0.0
C869 C 0.71349 0.19663 0.79168 0.0
C870 C 0.68156 0.19004 0.76304 0.0
C871 C 0.6741 0.17651 0.8172 0.0
C872 C 0.68642 0.17293 0.85788 0.0
C873 C 0.70599 0.18319 0.8451 0.0
C874 C 0.66883 0.19444 0.71944 0.0
C875 C 0.67895 0.15824 0.91485 0.0
C876 C 0.62584 0.16228 0.89446 0.0
C877 C 0.61405 0.1456 0.85777 0.0
C878 C 0.64543 0.1727 0.88099 0.0
C879 C 0.65337 0.16592 0.83108 0.0
C880 C 0.64156 0.14882 0.79518 0.0
C881 C 0.62199 0.13899 0.8084 0.0
C882 C 0.65758 0.19107 0.91931 0.0
C883 C 0.64958 0.14086 0.74306 0.0
H884 H 0.707 0.21029 0.70933 0.0
H885 H 0.71545 0.18059 0.87676 0.0
H886 H 0.65808 0.18142 0.6925 0.0
H887 H 0.66101 0.19929 0.75302 0.0
H888 H 0.67691 0.2056 0.68019 0.0
H889 H 0.69042 0.15683 0.94046 0.0
H890 H 0.67162 0.16211 0.95452 0.0
H891 H 0.66834 0.14419 0.89362 0.0
H892 H 0.61966 0.16747 0.93221 0.0
H893 H 0.61291 0.12598 0.78047 0.0
H894 H 0.665 0.2029 0.8819 0.0
H895 H 0.66866 0.19012 0.94957 0.0
H896 H 0.64912 0.19463 0.9551 0.0
H897 H 0.65658 0.15116 0.70039 0.0
H898 H 0.63847 0.12718 0.72068 0.0
H899 H 0.66058 0.13856 0.76785 0.0
C900 C 0.4768 0.18421 0.85126 0.0
C901 C 0.48177 0.19835 0.80106 0.0
C902 C 0.487 0.17458 0.8578 0.0
C903 C 0.50281 0.17958 0.81428 0.0
C904 C 0.50812 0.19411 0.76437 0.0
C905 C 0.49735 0.20316 0.75772 0.0
C906 C 0.48068 0.15887 0.91064 0.0
C907 C 0.52519 0.20014 0.71831 0.0
C908 C 0.5378 0.16539 0.8806 0.0
C909 C 0.53289 0.14908 0.84132 0.0
C910 C 0.52859 0.17587 0.87048 0.0
C911 C 0.51377 0.16956 0.82128 0.0
C912 C 0.50889 0.15321 0.78094 0.0
C913 C 0.51871 0.14329 0.79083 0.0
C914 C 0.53451 0.19353 0.91316 0.0
C915 C 0.49287 0.14583 0.72906 0.0
H916 H 0.46464 0.18034 0.88437 0.0
H917 H 0.50127 0.21418 0.71911 0.0
H918 H 0.47763 0.14544 0.8848 0.0
H919 H 0.49222 0.16241 0.94853 0.0
H920 H 0.46777 0.15639 0.93915 0.0
H921 H 0.52773 0.21206 0.68352 0.0
H922 H 0.53808 0.2046 0.75031 0.0
H923 H 0.52322 0.18797 0.68621 0.0
H924 H 0.5489 0.16998 0.91924 0.0
H925 H 0.51482 0.1306 0.76075 0.0
H926 H 0.5227 0.19134 0.94775 0.0
H927 H 0.53766 0.20573 0.87899 0.0
H928 H 0.54723 0.1973 0.94536 0.0
H929 H 0.47934 0.14194 0.75591 0.0
H930 H 0.49114 0.13316 0.70078 0.0
H931 H 0.49543 0.15706 0.69096 0.0
C932 C 0.78741 0.29129 0.84776 0.0
C933 C 0.79384 0.28325 0.79838 0.0
C934 C 0.7965 0.31107 0.85605 0.0
C935 C 0.81286 0.32286 0.81613 0.0
C936 C 0.8194 0.3147 0.76634 0.0
C937 C 0.80953 0.29495 0.75705 0.0
C938 C 0.7887 0.31934 0.90774 0.0
C939 C 0.83721 0.32672 0.72475 0.0
C940 C 0.83164 0.37587 0.79896 0.0
C941 C 0.8451 0.38302 0.85212 0.0
C942 C 0.82058 0.35621 0.7878 0.0
C943 C 0.82375 0.34363 0.82897 0.0
C944 C 0.83763 0.35091 0.8819 0.0
C945 C 0.84787 0.37054 0.89377 0.0
C946 C 0.80541 0.34888 0.73267 0.0
C947 C 0.84191 0.33803 0.92516 0.0
H948 H 0.77514 0.2821 0.87916 0.0
H949 H 0.81449 0.28857 0.71922 0.0
H950 H 0.79891 0.32605 0.95085 0.0
H951 H 0.7868 0.33061 0.88302 0.0
H952 H 0.77486 0.30839 0.92957 0.0
H953 H 0.84036 0.31811 0.68818 0.0
H954 H 0.83583 0.33762 0.69494 0.0
H955 H 0.84951 0.33437 0.76012 0.0
H956 H 0.82947 0.38564 0.76732 0.0
H957 H 0.85842 0.3762 0.93458 0.0
H958 H 0.79148 0.33851 0.75548 0.0
H959 H 0.80868 0.34129 0.69218 0.0
H960 H 0.80407 0.36048 0.7078 0.0
H961 H 0.8291 0.32791 0.95467 0.0
H962 H 0.8537 0.34608 0.96225 0.0
H963 H 0.8458 0.32951 0.89115 0.0
C964 C 0.6217 0.47322 0.81343 0.0
C965 C 0.61289 0.45922 0.86436 0.0
C966 C 0.64151 0.48308 0.80588 0.0
C967 C 0.65265 0.47844 0.84912 0.0
C968 C 0.64378 0.46392 0.89927 0.0
C969 C 0.62398 0.45465 0.90696 0.0
C970 C 0.65052 0.49877 0.75281 0.0
C971 C 0.65519 0.45827 0.94497 0.0
C972 C 0.70243 0.49443 0.78457 0.0
C973 C 0.71327 0.51074 0.82457 0.0
C974 C 0.68272 0.48337 0.79372 0.0
C975 C 0.67365 0.48912 0.84264 0.0
C976 C 0.68456 0.50549 0.8836 0.0
C977 C 0.70432 0.51598 0.87469 0.0
C978 C 0.67159 0.46571 0.75046 0.0
C979 C 0.67531 0.51228 0.93521 0.0
H980 H 0.61316 0.47688 0.78085 0.0
H981 H 0.61715 0.44373 0.94608 0.0
H982 H 0.66045 0.51238 0.77867 0.0
H983 H 0.65897 0.49565 0.71553 0.0
H984 H 0.63983 0.50068 0.72362 0.0
H985 H 0.64602 0.44599 0.97874 0.0
H986 H 0.66415 0.45452 0.91281 0.0
H987 H 0.66491 0.47042 0.97813 0.0
H988 H 0.70938 0.49027 0.74617 0.0
H989 H 0.71269 0.52868 0.90529 0.0
H990 H 0.66176 0.46752 0.71568 0.0
H991 H 0.66278 0.45332 0.78421 0.0
H992 H 0.68096 0.46246 0.71841 0.0
H993 H 0.66527 0.51559 0.90815 0.0
H994 H 0.68586 0.52516 0.96356 0.0
H995 H 0.66695 0.50091 0.97329 0.0
C996 C 0.4743 0.84561 0.08446 0.0
C997 C 0.45989 0.84361 0.12914 0.0
C998 C 0.48423 0.83591 0.09742 0.0
C999 C 0.47905 0.82347 0.15489 0.0
C1000 C 0.46393 0.82084 0.19836 0.0
C1001 C 0.45477 0.83126 0.18569 0.0
C1002 C 0.50064 0.83946 0.05111 0.0
C1003 C 0.45752 0.80716 0.25849 0.0
C1004 C 0.49514 0.78705 0.14968 0.0
C1005 C 0.51036 0.79489 0.19613 0.0
C1006 C 0.48441 0.7959 0.13739 0.0
C1007 C 0.48963 0.8134 0.17023 0.0
C1008 C 0.50505 0.82136 0.21734 0.0
C1009 C 0.51506 0.81178 0.23073 0.0
C1010 C 0.46761 0.78661 0.08898 0.0
C1011 C 0.51136 0.84028 0.25178 0.0
H1012 H 0.47833 0.85536 0.04119 0.0
H1013 H 0.44351 0.8297 0.21994 0.0
H1014 H 0.51385 0.8451 0.08217 0.0
H1015 H 0.49807 0.82594 0.02749 0.0
H1016 H 0.50296 0.84972 0.00911 0.0
H1017 H 0.44465 0.80576 0.28409 0.0
H1018 H 0.4544 0.7929 0.24065 0.0
H1019 H 0.46904 0.81207 0.29741 0.0
H1020 H 0.49163 0.77394 0.12306 0.0
H1021 H 0.52706 0.81787 0.26591 0.0
H1022 H 0.47027 0.79569 0.0428 0.0
H1023 H 0.45472 0.78508 0.11483 0.0
H1024 H 0.46466 0.77236 0.07158 0.0
H1025 H 0.51512 0.85141 0.21187 0.0
H1026 H 0.52384 0.84464 0.28606 0.0
H1027 H 0.49959 0.83961 0.2829 0.0
C1028 C 0.17871 0.70699 0.16166 0.0
C1029 C 0.19341 0.71508 0.2104 0.0
C1030 C 0.16882 0.68737 0.1497 0.0
C1031 C 0.17409 0.67564 0.18619 0.0
C1032 C 0.18883 0.6837 0.236 0.0
C1033 C 0.19817 0.70337 0.24824 0.0
C1034 C 0.15281 0.67922 0.09766 0.0
C1035 C 0.19505 0.67164 0.27495 0.0
C1036 C 0.139 0.62281 0.19692 0.0
C1037 C 0.14515 0.6157 0.14288 0.0
C1038 C 0.14821 0.64231 0.21131 0.0
C1039 C 0.16424 0.65494 0.17167 0.0
C1040 C 0.17059 0.64784 0.11721 0.0
C1041 C 0.16079 0.62828 0.10285 0.0
C1042 C 0.14071 0.64941 0.26853 0.0
C1043 C 0.18784 0.66088 0.07466 0.0
H1044 H 0.17488 0.71603 0.13293 0.0
H1045 H 0.20964 0.70966 0.28558 0.0
H1046 H 0.15635 0.67258 0.0544 0.0
H1047 H 0.13962 0.66792 0.12209 0.0
H1048 H 0.14993 0.6902 0.0761 0.0
H1049 H 0.20674 0.68011 0.31193 0.0
H1050 H 0.18289 0.66028 0.30392 0.0
H1051 H 0.19994 0.66456 0.23792 0.0
H1052 H 0.1268 0.61313 0.22762 0.0
H1053 H 0.16566 0.62279 0.06143 0.0
H1054 H 0.13697 0.65983 0.24753 0.0
H1055 H 0.15183 0.65687 0.30831 0.0
H1056 H 0.12794 0.63771 0.29391 0.0
H1057 H 0.18542 0.67148 0.04732 0.0
H1058 H 0.19132 0.65302 0.03579 0.0
H1059 H 0.20032 0.66886 0.10897 0.0
C1060 C 0.37269 0.5154 0.18327 0.0
C1061 C 0.38037 0.52886 0.12996 0.0
C1062 C 0.3531 0.50528 0.19562 0.0
C1063 C 0.34093 0.50902 0.15462 0.0
C1064 C 0.34858 0.52258 0.10059 0.0
C1065 C 0.36825 0.53219 0.08828 0.0
C1066 C 0.34542 0.49056 0.25247 0.0
C1067 C 0.33604 0.52716 0.0567 0.0
C1068 C 0.28866 0.47196 0.14543 0.0
C1069 C 0.28087 0.4787 0.19491 0.0
C1070 C 0.30823 0.48159 0.13232 0.0
C1071 C 0.32019 0.49864 0.16829 0.0
C1072 C 0.31239 0.50555 0.2182 0.0
C1073 C 0.2928 0.49532 0.23168 0.0
C1074 C 0.31611 0.47347 0.08027 0.0
C1075 C 0.32468 0.52389 0.25653 0.0
H1076 H 0.38201 0.51265 0.21514 0.0
H1077 H 0.37419 0.54268 0.04734 0.0
H1078 H 0.33816 0.49452 0.29206 0.0
H1079 H 0.33471 0.47657 0.23108 0.0
H1080 H 0.35677 0.48897 0.27821 0.0
H1081 H 0.34426 0.5383 0.01754 0.0
H1082 H 0.32524 0.5142 0.02963 0.0
H1083 H 0.32828 0.53212 0.09009 0.0
H1084 H 0.27944 0.45901 0.11737 0.0
H1085 H 0.28673 0.50062 0.26945 0.0
H1086 H 0.327 0.47102 0.10511 0.0
H1087 H 0.3232 0.48374 0.03758 0.0
H1088 H 0.3049 0.45984 0.0579 0.0
H1089 H 0.33564 0.52277 0.28697 0.0
H1090 H 0.31631 0.5276 0.29216 0.0
H1091 H 0.33226 0.53569 0.21912 0.0
C1092 C 0.14601 0.52112 0.19578 0.0
C1093 C 0.15134 0.53546 0.14615 0.0
C1094 C 0.15605 0.51133 0.20277 0.0
C1095 C 0.17207 0.51639 0.1603 0.0
C1096 C 0.17787 0.53126 0.11155 0.0
C1097 C 0.16726 0.54046 0.10441 0.0
C1098 C 0.14923 0.49529 0.25438 0.0
C1099 C 0.19518 0.53735 0.0667 0.0
C1100 C 0.20609 0.50061 0.22391 0.0
C1101 C 0.20102 0.48463 0.18247 0.0
C1102 C 0.19719 0.51146 0.21572 0.0
C1103 C 0.18254 0.50585 0.1662 0.0
C1104 C 0.17748 0.48982 0.12376 0.0
C1105 C 0.18698 0.47952 0.13181 0.0
C1106 C 0.20331 0.52878 0.26059 0.0
C1107 C 0.16165 0.4832 0.07134 0.0
H1108 H 0.1336 0.51712 0.22768 0.0
H1109 H 0.17148 0.55164 0.06629 0.0
H1110 H 0.14576 0.48189 0.22732 0.0
H1111 H 0.16065 0.49822 0.29212 0.0
H1112 H 0.13645 0.49308 0.28315 0.0
H1113 H 0.19834 0.54983 0.03396 0.0
H1114 H 0.20776 0.54099 0.09943 0.0
H1115 H 0.19301 0.52547 0.03254 0.0
H1116 H 0.21707 0.50467 0.26275 0.0
H1117 H 0.18295 0.46708 0.10008 0.0
H1118 H 0.19143 0.52659 0.2948 0.0
H1119 H 0.20695 0.54138 0.22793 0.0
H1120 H 0.21578 0.53193 0.2933 0.0
H1121 H 0.14814 0.47956 0.09788 0.0
H1122 H 0.1596 0.47057 0.04196 0.0
H1123 H 0.16469 0.49478 0.03421 0.0
C1124 C 0.49903 0.70671 0.13263 0.0
C1125 C 0.51431 0.71478 0.17875 0.0
C1126 C 0.48822 0.68693 0.12462 0.0
C1127 C 0.49342 0.67516 0.16155 0.0
C1128 C 0.50918 0.68339 0.20702 0.0
C1129 C 0.51921 0.70315 0.21623 0.0
C1130 C 0.47109 0.67861 0.07765 0.0
C1131 C 0.51559 0.67137 0.24526 0.0
C1132 C 0.45819 0.62292 0.19131 0.0
C1133 C 0.4626 0.61453 0.13664 0.0
C1134 C 0.46773 0.64275 0.19883 0.0
C1135 C 0.48251 0.65425 0.1522 0.0
C1136 C 0.48714 0.64575 0.0974 0.0
C1137 C 0.47683 0.62597 0.08947 0.0
C1138 C 0.46195 0.65137 0.25635 0.0
C1139 C 0.50326 0.65749 0.04822 0.0
H1140 H 0.49523 0.71586 0.1044 0.0
H1141 H 0.53113 0.70957 0.25171 0.0
H1142 H 0.47302 0.67067 0.03482 0.0
H1143 H 0.45826 0.66834 0.10683 0.0
H1144 H 0.4685 0.68969 0.05515 0.0
H1145 H 0.52867 0.6801 0.27605 0.0
H1146 H 0.50421 0.66141 0.2806 0.0
H1147 H 0.51837 0.66266 0.20802 0.0
H1148 H 0.44706 0.61398 0.22738 0.0
H1149 H 0.4803 0.61936 0.04757 0.0
H1150 H 0.45866 0.66208 0.23496 0.0
H1151 H 0.47386 0.65887 0.29328 0.0
H1152 H 0.44935 0.64052 0.28517 0.0
H1153 H 0.50055 0.66786 0.02058 0.0
H1154 H 0.50529 0.6486 0.00936 0.0
H1155 H 0.51668 0.66576 0.07764 0.0
C1156 C 0.37111 0.83227 0.19133 0.0
C1157 C 0.37911 0.84666 0.1416 0.0
C1158 C 0.35136 0.82163 0.20017 0.0
C1159 C 0.33953 0.82615 0.16032 0.0
C1160 C 0.34766 0.84093 0.11075 0.0
C1161 C 0.36739 0.85076 0.10092 0.0
C1162 C 0.34314 0.8055 0.25164 0.0
C1163 C 0.33557 0.84664 0.0692 0.0
C1164 C 0.28695 0.79082 0.13931 0.0
C1165 C 0.27917 0.79654 0.19217 0.0
C1166 C 0.30669 0.8 0.1295 0.0
C1167 C 0.3187 0.81575 0.17171 0.0
C1168 C 0.31079 0.82173 0.22444 0.0
C1169 C 0.2911 0.81177 0.23497 0.0
C1170 C 0.31469 0.79279 0.07451 0.0
C1171 C 0.32306 0.83889 0.26875 0.0
H1172 H 0.38031 0.82906 0.2221 0.0
H1173 H 0.37374 0.862 0.06269 0.0
H1174 H 0.33578 0.80857 0.29361 0.0
H1175 H 0.33241 0.7922 0.226 0.0
H1176 H 0.35421 0.80305 0.27509 0.0
H1177 H 0.3442 0.85883 0.03429 0.0
H1178 H 0.32517 0.83449 0.03757 0.0
H1179 H 0.32735 0.85059 0.10454 0.0
H1180 H 0.27761 0.77892 0.10666 0.0
H1181 H 0.28494 0.81623 0.27544 0.0
H1182 H 0.32533 0.78967 0.09764 0.0
H1183 H 0.32212 0.80387 0.03454 0.0
H1184 H 0.30349 0.77973 0.04892 0.0
H1185 H 0.33339 0.83656 0.29843 0.0
H1186 H 0.31457 0.84207 0.30574 0.0
H1187 H 0.33137 0.85153 0.23546 0.0
C1188 C 0.14623 0.28916 0.32966 0.0
C1189 C 0.13274 0.28252 0.38277 0.0
C1190 C 0.15531 0.30823 0.30909 0.0
C1191 C 0.15076 0.32091 0.34268 0.0
C1192 C 0.13692 0.31419 0.39583 0.0
C1193 C 0.12804 0.295 0.41531 0.0
C1194 C 0.17004 0.31487 0.25238 0.0
C1195 C 0.13168 0.32732 0.43258 0.0
C1196 C 0.18862 0.37291 0.33846 0.0
C1197 C 0.18213 0.37979 0.28494 0.0
C1198 C 0.17834 0.35382 0.3586 0.0
C1199 C 0.16117 0.34136 0.32416 0.0
C1200 C 0.15444 0.3483 0.27046 0.0
C1201 C 0.16504 0.36752 0.25144 0.0
C1202 C 0.186 0.34693 0.41593 0.0
C1203 C 0.13617 0.3354 0.23277 0.0
H1204 H 0.14993 0.27947 0.30496 0.0
H1205 H 0.1174 0.28971 0.45584 0.0
H1206 H 0.16636 0.32183 0.21061 0.0
H1207 H 0.18409 0.32561 0.27315 0.0
H1208 H 0.17133 0.30302 0.22963 0.0
H1209 H 0.12013 0.3197 0.47094 0.0
H1210 H 0.14431 0.33865 0.45972 0.0
H1211 H 0.12707 0.33442 0.39457 0.0
H1212 H 0.20193 0.38245 0.36393 0.0
H1213 H 0.15996 0.37298 0.21063 0.0
H1214 H 0.18909 0.33598 0.39568 0.0
H1215 H 0.17521 0.34016 0.45733 0.0
H1216 H 0.19921 0.35862 0.43904 0.0
H1217 H 0.13734 0.32391 0.2063 0.0
H1218 H 0.13262 0.34316 0.19371 0.0
H1219 H 0.12426 0.3285 0.27012 0.0
C1220 C 0.62844 0.8025 0.22899 0.0
C1221 C 0.61621 0.80722 0.26327 0.0
C1222 C 0.64776 0.81137 0.24664 0.0
C1223 C 0.65484 0.8252 0.29983 0.0
C1224 C 0.6425 0.83009 0.33411 0.0
C1225 C 0.6233 0.82102 0.31531 0.0
C1226 C 0.66053 0.80583 0.20904 0.0
C1227 C 0.64954 0.84482 0.3909 0.0
C1228 C 0.70041 0.83666 0.39315 0.0
C1229 C 0.71347 0.8537 0.36115 0.0
C1230 C 0.68126 0.82703 0.373 0.0
C1231 C 0.67518 0.8347 0.31961 0.0
C1232 C 0.68842 0.85183 0.28673 0.0
C1233 C 0.70743 0.86114 0.30805 0.0
C1234 C 0.66751 0.80878 0.40914 0.0
C1235 C 0.68246 0.86046 0.22978 0.0
H1236 H 0.6228 0.7916 0.18937 0.0
H1237 H 0.61375 0.82467 0.34151 0.0
H1238 H 0.67253 0.81853 0.18475 0.0
H1239 H 0.66672 0.80003 0.24627 0.0
H1240 H 0.65285 0.79501 0.16831 0.0
H1241 H 0.63807 0.84698 0.41226 0.0
H1242 H 0.65565 0.84044 0.43357 0.0
H1243 H 0.66105 0.85861 0.37095 0.0
H1244 H 0.70522 0.83085 0.43369 0.0
H1245 H 0.71757 0.87444 0.2838 0.0
H1246 H 0.6604 0.79714 0.37085 0.0
H1247 H 0.65626 0.81045 0.43505 0.0
H1248 H 0.67462 0.80449 0.44842 0.0
H1249 H 0.67544 0.85 0.18753 0.0
H1250 H 0.69467 0.87348 0.20782 0.0
H1251 H 0.67195 0.86416 0.24999 0.0
C1252 C 0.2033 0.8305 0.3281 0.0
C1253 C 0.19436 0.81591 0.27936 0.0
C1254 C 0.19492 0.84111 0.34943 0.0
C1255 C 0.17753 0.83741 0.31935 0.0
C1256 C 0.16903 0.82342 0.26708 0.0
C1257 C 0.17745 0.81266 0.24825 0.0
C1258 C 0.20425 0.85568 0.40605 0.0
C1259 C 0.15073 0.81943 0.23256 0.0
C1260 C 0.14311 0.84765 0.41585 0.0
C1261 C 0.14656 0.86464 0.38482 0.0
C1262 C 0.15369 0.83904 0.39702 0.0
C1263 C 0.16769 0.84744 0.34476 0.0
C1264 C 0.17161 0.86491 0.31478 0.0
C1265 C 0.16118 0.87348 0.33614 0.0
C1266 C 0.14948 0.82066 0.43146 0.0
C1267 C 0.18622 0.87413 0.25819 0.0
H1268 H 0.21661 0.83324 0.35103 0.0
H1269 H 0.17054 0.80135 0.21061 0.0
H1270 H 0.20646 0.86968 0.389 0.0
H1271 H 0.19479 0.85133 0.45192 0.0
H1272 H 0.21817 0.8574 0.42191 0.0
H1273 H 0.14691 0.80934 0.1887 0.0
H1274 H 0.13897 0.8133 0.27071 0.0
H1275 H 0.15193 0.83284 0.21314 0.0
H1276 H 0.13175 0.8408 0.45338 0.0
H1277 H 0.16405 0.88683 0.3132 0.0
H1278 H 0.1628 0.82167 0.45083 0.0
H1279 H 0.14323 0.80891 0.39328 0.0
H1280 H 0.13941 0.81694 0.47535 0.0
H1281 H 0.20013 0.87612 0.27517 0.0
H1282 H 0.18814 0.88814 0.24251 0.0
H1283 H 0.18175 0.8647 0.21222 0.0
C1284 C 0.36377 0.18299 0.74434 0.0
C1285 C 0.37746 0.17995 0.7124 0.0
C1286 C 0.34458 0.17224 0.72558 0.0
C1287 C 0.33912 0.15847 0.67256 0.0
C1288 C 0.35287 0.15508 0.64115 0.0
C1289 C 0.37187 0.16567 0.6624 0.0
C1290 C 0.33022 0.17592 0.76142 0.0
C1291 C 0.34764 0.14073 0.58369 0.0
C1292 C 0.28682 0.12171 0.65869 0.0
C1293 C 0.28055 0.13037 0.61114 0.0
C1294 C 0.30595 0.13055 0.67864 0.0
C1295 C 0.31913 0.14815 0.64841 0.0
C1296 C 0.31303 0.1564 0.59733 0.0
C1297 C 0.29372 0.14749 0.57985 0.0
C1298 C 0.31188 0.12147 0.734 0.0
C1299 C 0.32678 0.17493 0.56272 0.0
H1300 H 0.36813 0.19406 0.78298 0.0
H1301 H 0.38246 0.16307 0.63886 0.0
H1302 H 0.32418 0.18181 0.72396 0.0
H1303 H 0.31827 0.1624 0.78144 0.0
H1304 H 0.33656 0.18607 0.80507 0.0
H1305 H 0.35998 0.13953 0.56579 0.0
H1306 H 0.33629 0.12654 0.60106 0.0
H1307 H 0.34192 0.1449 0.53913 0.0
H1308 H 0.27662 0.10825 0.68177 0.0
H1309 H 0.28883 0.15419 0.54312 0.0
H1310 H 0.31703 0.13089 0.77998 0.0
H1311 H 0.3238 0.11969 0.71549 0.0
H1312 H 0.30002 0.10738 0.75018 0.0
H1313 H 0.33229 0.18662 0.60115 0.0
H1314 H 0.32006 0.17853 0.51977 0.0
H1315 H 0.33914 0.17422 0.54202 0.0
C1316 C 0.81096 0.18149 0.75263 0.0
C1317 C 0.81434 0.19829 0.72021 0.0
C1318 C 0.82155 0.1728 0.73479 0.0
C1319 C 0.8355 0.18095 0.68226 0.0
C1320 C 0.83935 0.19825 0.65092 0.0
C1321 C 0.8289 0.20688 0.67119 0.0
C1322 C 0.81739 0.1546 0.77057 0.0
C1323 C 0.85391 0.2072 0.59404 0.0
C1324 C 0.87134 0.16425 0.66585 0.0
C1325 C 0.86248 0.14966 0.61707 0.0
C1326 C 0.86279 0.17468 0.68747 0.0
C1327 C 0.8453 0.17079 0.6577 0.0
C1328 C 0.83679 0.1567 0.60581 0.0
C1329 C 0.8454 0.14614 0.58664 0.0
C1330 C 0.87213 0.1894 0.74363 0.0
C1331 C 0.81837 0.15247 0.5717 0.0
H1332 H 0.79968 0.17486 0.79053 0.0
H1333 H 0.83174 0.22012 0.64725 0.0
H1334 H 0.8111 0.14266 0.73316 0.0
H1335 H 0.83074 0.15572 0.79018 0.0
H1336 H 0.80737 0.1511 0.81449 0.0
H1337 H 0.85576 0.2211 0.57712 0.0
H1338 H 0.86786 0.20937 0.61141 0.0
H1339 H 0.84947 0.19752 0.54879 0.0
H1340 H 0.88477 0.1672 0.68824 0.0
H1341 H 0.83856 0.13482 0.54895 0.0
H1342 H 0.86261 0.18529 0.78927 0.0
H1343 H 0.87451 0.20339 0.72566 0.0
H1344 H 0.88597 0.19103 0.76012 0.0
H1345 H 0.80674 0.14662 0.61039 0.0
H1346 H 0.81439 0.14209 0.52874 0.0
H1347 H 0.81951 0.16575 0.55109 0.0
C1348 C 0.81168 0.62244 0.66331 0.0
C1349 C 0.79849 0.61579 0.71745 0.0
C1350 C 0.82044 0.64145 0.64216 0.0
C1351 C 0.81591 0.65408 0.67631 0.0
C1352 C 0.80242 0.64737 0.73064 0.0
C1353 C 0.79383 0.62822 0.75059 0.0
C1354 C 0.83479 0.64808 0.58414 0.0
C1355 C 0.79726 0.66045 0.76809 0.0
C1356 C 0.85338 0.70618 0.6688 0.0
C1357 C 0.8464 0.7128 0.61602 0.0
C1358 C 0.84338 0.68716 0.68986 0.0
C1359 C 0.82601 0.67448 0.65704 0.0
C1360 C 0.81879 0.68115 0.60409 0.0
C1361 C 0.82911 0.70031 0.58417 0.0
C1362 C 0.85156 0.68057 0.74638 0.0
C1363 C 0.8003 0.66801 0.56808 0.0
H1364 H 0.81536 0.6128 0.63813 0.0
H1365 H 0.78342 0.62294 0.79189 0.0
H1366 H 0.83072 0.65484 0.54283 0.0
H1367 H 0.84893 0.65898 0.6037 0.0
H1368 H 0.83609 0.63626 0.56111 0.0
H1369 H 0.78603 0.65285 0.80758 0.0
H1370 H 0.81002 0.67196 0.794 0.0
H1371 H 0.79222 0.66731 0.73067 0.0
H1372 H 0.86686 0.71587 0.69296 0.0
H1373 H 0.82366 0.70557 0.5439 0.0
H1374 H 0.8547 0.6697 0.72567 0.0
H1375 H 0.84106 0.67379 0.78866 0.0
H1376 H 0.86484 0.69242 0.76843 0.0
H1377 H 0.80143 0.65654 0.54129 0.0
H1378 H 0.79635 0.67557 0.52955 0.0
H1379 H 0.78867 0.6611 0.60653 0.0
C1380 C 0.03462 0.50028 0.0763 0.0
C1381 C 0.04702 0.51762 0.04458 0.0
C1382 C 0.01542 0.49 0.05702 0.0
C1383 C 0.00862 0.49731 0.00483 0.0
C1384 C 0.02123 0.5147 0.97195 0.0
C1385 C 0.04031 0.52466 0.99235 0.0
C1386 C 0.00236 0.47148 0.09304 0.0
C1387 C 0.0145 0.52297 0.91623 0.0
C1388 C 0.9618 0.46504 0.91483 0.0
C1389 C 0.94956 0.46963 0.94984 0.0
C1390 C 0.9811 0.47378 0.93271 0.0
C1391 C 0.98815 0.48733 0.98683 0.0
C1392 C 0.97574 0.49186 0.02258 0.0
C1393 C 0.95657 0.48295 0.00352 0.0
C1394 C 0.99395 0.46861 0.8936 0.0
C1395 C 0.98275 0.50627 0.08041 0.0
H1396 H 0.03997 0.49478 0.11606 0.0
H1397 H 0.04995 0.53817 0.96824 0.0
H1398 H 0.99107 0.47266 0.12099 0.0
H1399 H 0.99522 0.45991 0.05451 0.0
H1400 H 0.01004 0.46741 0.1306 0.0
H1401 H 0.02632 0.53619 0.8937 0.0
H1402 H 0.00746 0.51247 0.87413 0.0
H1403 H 0.00382 0.52624 0.93791 0.0
H1404 H 0.95623 0.45454 0.87388 0.0
H1405 H 0.94706 0.48654 0.03016 0.0
H1406 H 0.00086 0.46337 0.92997 0.0
H1407 H 0.00543 0.4814 0.86774 0.0
H1408 H 0.98615 0.45751 0.85387 0.0
H1409 H 0.98955 0.50212 0.12122 0.0
H1410 H 0.97111 0.50776 0.10421 0.0
H1411 H 0.99369 0.52036 0.06047 0.0
C1412 C 0.47572 0.51045 0.09089 0.0
C1413 C 0.47943 0.52732 0.05811 0.0
C1414 C 0.48601 0.50142 0.07348 0.0
C1415 C 0.50001 0.50929 0.02103 0.0
C1416 C 0.50414 0.5266 0.98907 0.0
C1417 C 0.49398 0.53558 0.00892 0.0
C1418 C 0.48155 0.48321 0.10988 0.0
C1419 C 0.51875 0.53527 0.93222 0.0
C1420 C 0.5357 0.49237 0.00692 0.0
C1421 C 0.52694 0.47778 0.95809 0.0
C1422 C 0.52712 0.50282 0.02796 0.0
C1423 C 0.50971 0.49894 0.9976 0.0
C1424 C 0.50124 0.48477 0.94593 0.0
C1425 C 0.50988 0.4742 0.92733 0.0
C1426 C 0.53641 0.51761 0.08394 0.0
C1427 C 0.48289 0.48055 0.91124 0.0
H1428 H 0.46443 0.50407 0.12889 0.0
H1429 H 0.49709 0.54887 0.9847 0.0
H1430 H 0.47528 0.47123 0.07267 0.0
H1431 H 0.49478 0.48422 0.13027 0.0
H1432 H 0.47142 0.47986 0.15334 0.0
H1433 H 0.52064 0.54908 0.9141 0.0
H1434 H 0.53267 0.5375 0.95028 0.0
H1435 H 0.51436 0.52537 0.88762 0.0
H1436 H 0.54911 0.49536 0.02961 0.0
H1437 H 0.5031 0.46286 0.88969 0.0
H1438 H 0.52671 0.51375 0.12898 0.0
H1439 H 0.5391 0.53164 0.06513 0.0
H1440 H 0.55007 0.51905 0.1016 0.0
H1441 H 0.47122 0.47491 0.94976 0.0
H1442 H 0.47889 0.47002 0.86881 0.0
H1443 H 0.48416 0.4938 0.88978 0.0
C1444 C 0.5252 0.04005 0.00917 0.0
C1445 C 0.51819 0.04579 0.95368 0.0
C1446 C 0.51586 0.0211 0.03132 0.0
C1447 C 0.49914 0.00761 0.99689 0.0
C1448 C 0.49192 0.01338 0.94105 0.0
C1449 C 0.50156 0.03247 0.92007 0.0
C1450 C 0.52403 0.01548 0.09087 0.0
C1451 C 0.4741 -0.00064 0.90325 0.0
C1452 C 0.48583 0.95585 0.00598 0.0
C1453 C 0.47152 0.94882 0.0562 0.0
C1454 C 0.49498 0.97499 0.98635 0.0
C1455 C 0.48962 0.98734 0.01779 0.0
C1456 C 0.47528 0.98032 0.06916 0.0
C1457 C 0.46636 0.96106 0.08781 0.0
C1458 C 0.51027 0.98198 0.93166 0.0
C1459 C 0.46921 0.9931 0.10369 0.0
H1460 H 0.53818 0.05038 0.03468 0.0
H1461 H 0.49606 0.03703 0.87769 0.0
H1462 H 0.51318 0.00853 0.132 0.0
H1463 H 0.52805 0.00499 0.07305 0.0
H1464 H 0.53676 0.02785 0.1136 0.0
H1465 H 0.47012 0.00624 0.86199 0.0
H1466 H 0.47617 0.9881 0.8795 0.0
H1467 H 0.46209 0.9923 0.94014 0.0
H1468 H 0.48979 0.94628 0.98184 0.0
H1469 H 0.45509 0.95547 0.12602 0.0
H1470 H 0.52379 0.99367 0.95267 0.0
H1471 H 0.50623 0.98781 0.88713 0.0
H1472 H 0.51281 0.97053 0.91264 0.0
H1473 H 0.48161 0.00526 0.12874 0.0
H1474 H 0.45803 0.98547 0.14331 0.0
H1475 H 0.4637 -0.00094 0.06439 0.0
C1476 C 0.11232 0.23109 0.77261 0.0
C1477 C 0.12658 0.22962 0.73713 0.0
C1478 C 0.11035 0.22866 0.84449 0.0
C1479 C 0.1229 0.2246 0.88173 0.0
C1480 C 0.13806 0.22431 0.84688 0.0
C1481 C 0.13976 0.22689 0.77495 0.0
C1482 C 0.09413 0.22931 0.87991 0.0
C1483 C 0.15178 0.22012 0.88485 0.0
C1484 C 0.12104 0.22692 0.07755 0.0
C1485 C 0.10813 0.20791 0.09383 0.0
C1486 C 0.1266 0.23253 0.00885 0.0
C1487 C 0.11893 0.21879 0.9555 0.0
C1488 C 0.10634 0.19948 0.97217 0.0
C1489 C 0.10097 0.19431 0.04115 0.0
C1490 C 0.13989 0.25327 0.99308 0.0
C1491 C 0.09794 0.18436 0.91686 0.0
H1492 H 0.10218 0.23337 0.7439 0.0
H1493 H 0.15088 0.2258 0.74806 0.0
H1494 H 0.08352 0.21485 0.89787 0.0
H1495 H 0.09931 0.23863 0.9261 0.0
H1496 H 0.08688 0.23456 0.84508 0.0
H1497 H 0.16403 0.22259 0.85202 0.0
H1498 H 0.15724 0.22905 0.9319 0.0
H1499 H 0.14428 0.20505 0.90182 0.0
H1500 H 0.12598 0.23758 0.11787 0.0
H1501 H 0.09082 0.17966 0.05387 0.0
H1502 H 0.13202 0.25916 0.96544 0.0
H1503 H 0.15155 0.25497 0.95861 0.0
H1504 H 0.14619 0.26177 0.04069 0.0
H1505 H 0.08865 0.18712 0.88254 0.0
H1506 H 0.08941 0.16985 0.93889 0.0
H1507 H 0.1094 0.1848 0.88433 0.0
C1508 C 0.77052 0.91481 0.75439 0.0
C1509 C 0.76695 0.89859 0.71667 0.0
C1510 C 0.77316 0.91562 0.82627 0.0
C1511 C 0.77204 0.8998 0.86121 0.0
C1512 C 0.76715 0.88294 0.8241 0.0
C1513 C 0.7647 0.88255 0.75223 0.0
C1514 C 0.77829 0.93382 0.86409 0.0
C1515 C 0.76557 0.86566 0.85965 0.0
C1516 C 0.80209 0.907 0.02038 0.0
C1517 C 0.78859 0.90127 0.07326 0.0
C1518 C 0.797 0.90731 0.95139 0.0
C1519 C 0.77785 0.90144 0.93491 0.0
C1520 C 0.76424 0.89607 0.98844 0.0
C1521 C 0.76977 0.89598 0.05714 0.0
C1522 C 0.81198 0.91324 0.89587 0.0
C1523 C 0.74367 0.88954 0.9729 0.0
H1524 H 0.77223 0.92726 0.72743 0.0
H1525 H 0.76178 0.86991 0.72358 0.0
H1526 H 0.76943 0.93081 0.91115 0.0
H1527 H 0.79333 0.94072 0.88102 0.0
H1528 H 0.77647 0.94401 0.83117 0.0
H1529 H 0.75972 0.85309 0.82496 0.0
H1530 H 0.77984 0.86881 0.87741 0.0
H1531 H 0.75636 0.862 0.90598 0.0
H1532 H 0.81659 0.91087 0.03297 0.0
H1533 H 0.75914 0.89076 0.09761 0.0
H1534 H 0.81217 0.92455 0.86315 0.0
H1535 H 0.80856 0.90096 0.86178 0.0
H1536 H 0.82641 0.91857 0.91771 0.0
H1537 H 0.74254 0.89982 0.93834 0.0
H1538 H 0.73533 0.88778 0.02058 0.0
H1539 H 0.73717 0.8757 0.94544 0.0
C1540 C 0.11098 0.87953 0.75768 0.0
C1541 C 0.09416 0.8677 0.72173 0.0
C1542 C 0.11092 0.88139 0.82967 0.0
C1543 C 0.09356 0.87139 0.86627 0.0
C1544 C 0.07675 0.85856 0.83076 0.0
C1545 C 0.07727 0.85675 0.7588 0.0
C1546 C 0.12925 0.89491 0.86594 0.0
C1547 C 0.05796 0.84774 0.86798 0.0
C1548 C 0.09686 0.8718 0.062 0.0
C1549 C 0.09502 0.8876 0.07825 0.0
C1550 C 0.09575 0.86585 0.9932 0.0
C1551 C 0.09274 0.87601 0.93996 0.0
C1552 C 0.09021 0.89157 0.9567 0.0
C1553 C 0.09161 0.89732 0.02572 0.0
C1554 C 0.09879 0.84938 0.97726 0.0
C1555 C 0.08677 0.90264 0.90145 0.0
H1556 H 0.12411 0.88786 0.72924 0.0
H1557 H 0.06421 0.84759 0.73126 0.0
H1558 H 0.12861 0.90755 0.88397 0.0
H1559 H 0.13128 0.88804 0.91215 0.0
H1560 H 0.1418 0.89981 0.8316 0.0
H1561 H 0.04672 0.83672 0.83465 0.0
H1562 H 0.05945 0.84081 0.91507 0.0
H1563 H 0.05326 0.8578 0.88479 0.0
H1564 H 0.1001 0.86468 0.10266 0.0
H1565 H 0.09042 0.90967 0.03862 0.0
H1566 H 0.11255 0.85468 0.95002 0.0
H1567 H 0.08749 0.8391 0.94236 0.0
H1568 H 0.09898 0.84179 0.02476 0.0
H1569 H 0.09951 0.91008 0.868 0.0
H1570 H 0.08361 0.91338 0.92359 0.0
H1571 H 0.07471 0.89285 0.86803 0.0
C1572 C 0.19299 0.1003 0.97228 0.0
C1573 C 0.20669 0.10873 0.92044 0.0
C1574 C 0.19749 0.10593 0.04133 0.0
C1575 C 0.21629 0.12 0.05881 0.0
C1576 C 0.23004 0.12898 0.00614 0.0
C1577 C 0.22504 0.12323 0.93727 0.0
C1578 C 0.18236 0.09618 0.09592 0.0
C1579 C 0.25026 0.14383 0.02286 0.0
C1580 C 0.22196 0.13923 0.24095 0.0
C1581 C 0.22587 0.12666 0.27744 0.0
C1582 C 0.21976 0.13794 0.16888 0.0
C1583 C 0.22176 0.1239 0.13273 0.0
C1584 C 0.2271 0.11213 0.16881 0.0
C1585 C 0.22898 0.11358 0.24085 0.0
C1586 C 0.21404 0.1507 0.13216 0.0
C1587 C 0.22971 0.09722 0.13189 0.0
H1588 H 0.17886 0.08896 0.95889 0.0
H1589 H 0.23577 0.12931 0.89716 0.0
H1590 H 0.18601 0.08738 0.12936 0.0
H1591 H 0.18163 0.10687 0.12946 0.0
H1592 H 0.16809 0.08686 0.07312 0.0
H1593 H 0.25854 0.15107 0.97572 0.0
H1594 H 0.2506 0.15468 0.05854 0.0
H1595 H 0.25739 0.13699 0.04946 0.0
H1596 H 0.21954 0.14938 0.26897 0.0
H1597 H 0.23223 0.10399 0.26879 0.0
H1598 H 0.19902 0.14219 0.1152 0.0
H1599 H 0.22282 0.15697 0.0852 0.0
H1600 H 0.21543 0.16239 0.16591 0.0
H1601 H 0.21575 0.08577 0.11292 0.0
H1602 H 0.23592 0.09074 0.16609 0.0
H1603 H 0.23908 0.10346 0.08625 0.0
C1604 C 0.8711 0.10127 0.93225 0.0
C1605 C 0.88568 0.09749 0.91598 0.0
C1606 C 0.86553 0.101 0.00113 0.0
C1607 C 0.8748 0.09684 0.05453 0.0
C1608 C 0.88903 0.09228 0.03779 0.0
C1609 C 0.89445 0.09289 0.96866 0.0
C1610 C 0.8505 0.10619 0.01697 0.0
C1611 C 0.89911 0.08755 0.09314 0.0
C1612 C 0.88054 0.11671 0.23553 0.0
C1613 C 0.86753 0.1006 0.27272 0.0
C1614 C 0.88224 0.11596 0.16363 0.0
C1615 C 0.87081 0.09863 0.12828 0.0
C1616 C 0.85689 0.08263 0.16497 0.0
C1617 C 0.85533 0.08384 0.2368 0.0
C1618 C 0.89701 0.13345 0.12612 0.0
C1619 C 0.8445 0.06389 0.12914 0.0
H1620 H 0.86479 0.10548 0.89158 0.0
H1621 H 0.90589 0.0902 0.9558 0.0
H1622 H 0.83969 0.09568 0.05275 0.0
H1623 H 0.85716 0.12021 0.04314 0.0
H1624 H 0.84325 0.107 0.96951 0.0
H1625 H 0.90867 0.0828 0.0711 0.0
H1626 H 0.90772 0.10026 0.12574 0.0
H1627 H 0.88862 0.07618 0.12738 0.0
H1628 H 0.88988 0.12975 0.26293 0.0
H1629 H 0.84524 0.07132 0.2652 0.0
H1630 H 0.89071 0.13623 0.07984 0.0
H1631 H 0.90864 0.13111 0.10803 0.0
H1632 H 0.90326 0.14628 0.1596 0.0
H1633 H 0.838 0.06599 0.08199 0.0
H1634 H 0.83299 0.05349 0.16329 0.0
H1635 H 0.85334 0.05772 0.11259 0.0
C1636 C 0.90848 0.76769 0.22422 0.0
C1637 C 0.89267 0.76541 0.26158 0.0
C1638 C 0.90955 0.77025 0.15226 0.0
C1639 C 0.8944 0.77042 0.1169 0.0
C1640 C 0.87786 0.76683 0.15368 0.0
C1641 C 0.87721 0.7644 0.2256 0.0
C1642 C 0.92738 0.77394 0.11481 0.0
C1643 C 0.86129 0.76666 0.11771 0.0
C1644 C 0.90369 0.80088 0.95734 0.0
C1645 C 0.89695 0.78727 0.9047 0.0
C1646 C 0.90373 0.79565 0.02634 0.0
C1647 C 0.89652 0.77626 0.04309 0.0
C1648 C 0.89019 0.7625 0.98974 0.0
C1649 C 0.89042 0.76818 0.92101 0.0
C1650 C 0.91075 0.81079 0.08162 0.0
C1651 C 0.88224 0.74168 0.00555 0.0
H1652 H 0.92048 0.76842 0.2515 0.0
H1653 H 0.86486 0.76247 0.25395 0.0
H1654 H 0.92377 0.76499 0.06775 0.0
H1655 H 0.93533 0.78901 0.0979 0.0
H1656 H 0.93685 0.77111 0.14798 0.0
H1657 H 0.84877 0.76174 0.15226 0.0
H1658 H 0.86556 0.78121 0.09952 0.0
H1659 H 0.85701 0.7573 0.07162 0.0
H1660 H 0.90853 0.81561 0.9446 0.0
H1661 H 0.8845 0.75752 0.88068 0.0
H1662 H 0.92151 0.80998 0.11449 0.0
H1663 H 0.89876 0.8084 0.11562 0.0
H1664 H 0.91715 0.82533 0.05955 0.0
H1665 H 0.89191 0.73967 0.04052 0.0
H1666 H 0.87997 0.73314 0.958 0.0
H1667 H 0.86843 0.73608 0.03264 0.0
C1668 C 0.80567 0.56007 0.10976 0.0
C1669 C 0.79257 0.563 0.07218 0.0
C1670 C 0.80402 0.5575 0.1817 0.0
C1671 C 0.78901 0.558 0.21682 0.0
C1672 C 0.77656 0.56226 0.17982 0.0
C1673 C 0.77847 0.56467 0.10792 0.0
C1674 C 0.81762 0.55308 0.21937 0.0
C1675 C 0.76051 0.56316 0.21554 0.0
C1676 C 0.7669 0.5277 0.37607 0.0
C1677 C 0.77423 0.54125 0.4289 0.0
C1678 C 0.77226 0.53288 0.3071 0.0
C1679 C 0.78503 0.55216 0.29056 0.0
C1680 C 0.79288 0.56584 0.34405 0.0
C1681 C 0.78732 0.56021 0.41275 0.0
C1682 C 0.76367 0.51782 0.25165 0.0
C1683 C 0.80637 0.58655 0.32844 0.0
H1684 H 0.81667 0.55883 0.08266 0.0
H1685 H 0.7684 0.5671 0.07939 0.0
H1686 H 0.82319 0.56197 0.26647 0.0
H1687 H 0.80997 0.538 0.23622 0.0
H1688 H 0.82979 0.55542 0.18637 0.0
H1689 H 0.75338 0.56858 0.18091 0.0
H1690 H 0.74977 0.54875 0.23347 0.0
H1691 H 0.76584 0.57245 0.26178 0.0
H1692 H 0.75662 0.51307 0.38867 0.0
H1693 H 0.79241 0.57086 0.45317 0.0
H1694 H 0.77503 0.51812 0.21891 0.0
H1695 H 0.75446 0.52075 0.21757 0.0
H1696 H 0.75501 0.50331 0.27356 0.0
H1697 H 0.81792 0.58812 0.2937 0.0
H1698 H 0.81279 0.59498 0.37609 0.0
H1699 H 0.79861 0.59262 0.30117 0.0
C1700 C 0.46659 0.23611 0.36065 0.0
C1701 C 0.45328 0.23192 0.41326 0.0
C1702 C 0.4619 0.23682 0.29144 0.0
C1703 C 0.44327 0.23277 0.27454 0.0
C1704 C 0.42994 0.2291 0.32788 0.0
C1705 C 0.43513 0.22873 0.39685 0.0
C1706 C 0.47661 0.24104 0.23617 0.0
C1707 C 0.40989 0.22447 0.31191 0.0
C1708 C 0.43713 0.24553 0.09144 0.0
C1709 C 0.4321 0.22854 0.05633 0.0
C1710 C 0.43999 0.24694 0.16324 0.0
C1711 C 0.43749 0.23089 0.20075 0.0
C1712 C 0.43113 0.21336 0.1662 0.0
C1713 C 0.42864 0.21243 0.09431 0.0
C1714 C 0.44685 0.26589 0.19815 0.0
C1715 C 0.42794 0.19582 0.2046 0.0
H1716 H 0.48055 0.23835 0.37361 0.0
H1717 H 0.42464 0.22484 0.43746 0.0
H1718 H 0.47221 0.22817 0.20417 0.0
H1719 H 0.47777 0.25242 0.20134 0.0
H1720 H 0.49086 0.24554 0.2583 0.0
H1721 H 0.40198 0.22412 0.35924 0.0
H1722 H 0.40994 0.23503 0.27546 0.0
H1723 H 0.40215 0.21036 0.28648 0.0
H1724 H 0.43988 0.25807 0.06241 0.0
H1725 H 0.42458 0.19922 0.06751 0.0
H1726 H 0.46184 0.27175 0.21457 0.0
H1727 H 0.43838 0.26419 0.24528 0.0
H1728 H 0.44606 0.27636 0.16343 0.0
H1729 H 0.44177 0.19785 0.22295 0.0
H1730 H 0.42108 0.1829 0.17166 0.0
H1731 H 0.41892 0.19342 0.25077 0.0
C1732 C 0.76543 0.20574 0.39504 0.0
C1733 C 0.76235 0.22075 0.4119 0.0
C1734 C 0.76459 0.20001 0.32607 0.0
C1735 C 0.76056 0.20955 0.27333 0.0
C1736 C 0.75656 0.22413 0.29084 0.0
C1737 C 0.75775 0.22971 0.35998 0.0
C1738 C 0.76917 0.1846 0.30937 0.0
C1739 C 0.75195 0.23448 0.23619 0.0
C1740 C 0.78017 0.21568 0.09212 0.0
C1741 C 0.76391 0.20311 0.05473 0.0
C1742 C 0.77955 0.21701 0.16417 0.0
C1743 C 0.76218 0.20568 0.19941 0.0
C1744 C 0.74601 0.19216 0.16242 0.0
C1745 C 0.74711 0.19094 0.09039 0.0
C1746 C 0.79721 0.23134 0.202 0.0
C1747 C 0.72723 0.17989 0.19819 0.0
H1748 H 0.76957 0.19923 0.43519 0.0
H1749 H 0.75556 0.24144 0.37339 0.0
H1750 H 0.75855 0.17412 0.27301 0.0
H1751 H 0.78324 0.19099 0.28357 0.0
H1752 H 0.76962 0.177 0.35644 0.0
H1753 H 0.74746 0.24417 0.25895 0.0
H1754 H 0.76464 0.24301 0.20342 0.0
H1755 H 0.74044 0.22417 0.20199 0.0
H1756 H 0.79325 0.22496 0.0648 0.0
H1757 H 0.73448 0.1812 0.06172 0.0
H1758 H 0.7998 0.22469 0.24766 0.0
H1759 H 0.79523 0.24312 0.22107 0.0
H1760 H 0.81001 0.23746 0.16841 0.0
H1761 H 0.72921 0.17323 0.24514 0.0
H1762 H 0.71675 0.16852 0.16384 0.0
H1763 H 0.72125 0.18888 0.21504 0.0
C1764 C 0.88979 0.47513 0.56733 0.0
C1765 C 0.89452 0.46337 0.60535 0.0
C1766 C 0.88768 0.47338 0.49528 0.0
C1767 C 0.89054 0.45968 0.46065 0.0
C1768 C 0.89671 0.4488 0.49818 0.0
C1769 C 0.89855 0.45072 0.57018 0.0
C1770 C 0.88113 0.48526 0.45697 0.0
C1771 C 0.9002 0.43424 0.46293 0.0
C1772 C 0.8618 0.4347 0.30152 0.0
C1773 C 0.87523 0.44337 0.24888 0.0
C1774 C 0.86641 0.4405 0.37037 0.0
C1775 C 0.88503 0.45512 0.38696 0.0
C1776 C 0.89853 0.46429 0.33369 0.0
C1777 C 0.89346 0.45827 0.26505 0.0
C1778 C 0.85155 0.43046 0.42564 0.0
C1779 C 0.91857 0.47977 0.34948 0.0
H1780 H 0.8867 0.485 0.59412 0.0
H1781 H 0.90243 0.44175 0.59919 0.0
H1782 H 0.88983 0.49158 0.4099 0.0
H1783 H 0.86619 0.47607 0.44004 0.0
H1784 H 0.88188 0.49687 0.48962 0.0
H1785 H 0.90702 0.42857 0.49796 0.0
H1786 H 0.88649 0.42219 0.44486 0.0
H1787 H 0.90938 0.44051 0.41685 0.0
H1788 H 0.84774 0.4231 0.28886 0.0
H1789 H 0.90407 0.46453 0.22476 0.0
H1790 H 0.85015 0.44098 0.45796 0.0
H1791 H 0.85597 0.42247 0.46017 0.0
H1792 H 0.8374 0.42035 0.40359 0.0
H1793 H 0.91847 0.49063 0.38399 0.0
H1794 H 0.92665 0.4869 0.30188 0.0
H1795 H 0.92617 0.47358 0.37708 0.0
C1796 C 0.52242 0.41107 0.57762 0.0
C1797 C 0.53298 0.42819 0.61391 0.0
C1798 C 0.52438 0.41028 0.50584 0.0
C1799 C 0.53697 0.42706 0.46955 0.0
C1800 C 0.54661 0.4446 0.50526 0.0
C1801 C 0.54461 0.44493 0.57716 0.0
C1802 C 0.51396 0.3913 0.46965 0.0
C1803 C 0.55986 0.46288 0.46815 0.0
C1804 C 0.56294 0.42492 0.3103 0.0
C1805 C 0.55292 0.42778 0.25738 0.0
C1806 C 0.55734 0.42383 0.37943 0.0
C1807 C 0.54158 0.42606 0.39591 0.0
C1808 C 0.53114 0.42852 0.34233 0.0
C1809 C 0.53697 0.42937 0.27348 0.0
C1810 C 0.56874 0.421 0.43501 0.0
C1811 C 0.51444 0.43121 0.35791 0.0
H1812 H 0.51343 0.39806 0.60572 0.0
H1813 H 0.55266 0.45822 0.60492 0.0
H1814 H 0.50679 0.39235 0.42247 0.0
H1815 H 0.5243 0.38695 0.45311 0.0
H1816 H 0.50319 0.38001 0.50355 0.0
H1817 H 0.56455 0.47553 0.50179 0.0
H1818 H 0.57263 0.46245 0.45044 0.0
H1819 H 0.55285 0.46456 0.42166 0.0
H1820 H 0.57543 0.42396 0.29759 0.0
H1821 H 0.52964 0.43226 0.2326 0.0
H1822 H 0.55921 0.409 0.46915 0.0
H1823 H 0.57598 0.43393 0.46767 0.0
H1824 H 0.57967 0.41808 0.41321 0.0
H1825 H 0.50433 0.4199 0.3932 0.0
H1826 H 0.50673 0.43108 0.31033 0.0
H1827 H 0.5195 0.445 0.3846 0.0
C1828 C 0.54696 0.0958 0.56109 0.0
C1829 C 0.56363 0.09994 0.59664 0.0
C1830 C 0.54709 0.09819 0.48924 0.0
C1831 C 0.56434 0.10509 0.45223 0.0
C1832 C 0.58094 0.1082 0.48719 0.0
C1833 C 0.58036 0.10547 0.55897 0.0
C1834 C 0.52899 0.0944 0.45361 0.0
C1835 C 0.59961 0.11558 0.44959 0.0
C1836 C 0.56147 0.10322 0.25599 0.0
C1837 C 0.56449 0.12138 0.24048 0.0
C1838 C 0.56187 0.0978 0.32464 0.0
C1839 C 0.56538 0.11089 0.37873 0.0
C1840 C 0.56899 0.12944 0.36294 0.0
C1841 C 0.56833 0.13438 0.29403 0.0
C1842 C 0.55771 0.07784 0.33947 0.0
C1843 C 0.57297 0.14388 0.41905 0.0
H1844 H 0.53394 0.09135 0.58975 0.0
H1845 H 0.59332 0.10869 0.58596 0.0
H1846 H 0.5303 0.10805 0.43668 0.0
H1847 H 0.5265 0.08559 0.40676 0.0
H1848 H 0.5164 0.08705 0.488 0.0
H1849 H 0.61064 0.11525 0.48247 0.0
H1850 H 0.59771 0.10712 0.40224 0.0
H1851 H 0.60484 0.13047 0.43317 0.0
H1852 H 0.55779 0.09289 0.21501 0.0
H1853 H 0.57052 0.14837 0.28198 0.0
H1854 H 0.54394 0.06991 0.36705 0.0
H1855 H 0.56879 0.07811 0.37374 0.0
H1856 H 0.55695 0.06998 0.29151 0.0
H1857 H 0.5603 0.13886 0.45271 0.0
H1858 H 0.57663 0.15801 0.39779 0.0
H1859 H 0.58488 0.14557 0.45209 0.0
C1860 C 0.44834 0.89613 0.43038 0.0
C1861 C 0.46007 0.89111 0.39388 0.0
C1862 C 0.44694 0.89461 0.5025 0.0
C1863 C 0.45747 0.88781 0.53885 0.0
C1864 C 0.47033 0.88398 0.50282 0.0
C1865 C 0.47154 0.88574 0.4306 0.0
C1866 C 0.43325 0.8991 0.53924 0.0
C1867 C 0.48184 0.8768 0.53991 0.0
C1868 C 0.45697 0.89167 0.73415 0.0
C1869 C 0.44147 0.8739 0.75127 0.0
C1870 C 0.46302 0.89619 0.6653 0.0
C1871 C 0.45322 0.88261 0.61285 0.0
C1872 C 0.43805 0.86436 0.63054 0.0
C1873 C 0.43227 0.8603 0.69958 0.0
C1874 C 0.47915 0.91582 0.64835 0.0
C1875 C 0.42732 0.84943 0.57616 0.0
H1876 H 0.43963 0.90053 0.40235 0.0
H1877 H 0.48071 0.88192 0.40276 0.0
H1878 H 0.42099 0.88575 0.55879 0.0
H1879 H 0.44021 0.90841 0.58448 0.0
H1880 H 0.42778 0.90621 0.50474 0.0
H1881 H 0.49301 0.87699 0.50623 0.0
H1882 H 0.48868 0.88547 0.58662 0.0
H1883 H 0.47229 0.86197 0.55729 0.0
H1884 H 0.46365 0.90244 0.77376 0.0
H1885 H 0.4202 0.8466 0.71305 0.0
H1886 H 0.47344 0.92404 0.622 0.0
H1887 H 0.48935 0.915 0.61243 0.0
H1888 H 0.48691 0.92373 0.69539 0.0
H1889 H 0.41951 0.85418 0.54206 0.0
H1890 H 0.41693 0.8355 0.5991 0.0
H1891 H 0.43735 0.84742 0.54322 0.0
C1892 C 0.09942 0.54786 0.43498 0.0
C1893 C 0.09957 0.56288 0.39874 0.0
C1894 C 0.10182 0.54868 0.50693 0.0
C1895 C 0.10446 0.56492 0.54353 0.0
C1896 C 0.10337 0.57955 0.50791 0.0
C1897 C 0.1009 0.57835 0.43589 0.0
C1898 C 0.10267 0.53265 0.54315 0.0
C1899 C 0.10599 0.59702 0.54517 0.0
C1900 C 0.10222 0.56084 0.73941 0.0
C1901 C 0.12144 0.56821 0.75583 0.0
C1902 C 0.09645 0.56035 0.67064 0.0
C1903 C 0.11027 0.56735 0.61742 0.0
C1904 C 0.12977 0.57549 0.63437 0.0
C1905 C 0.13509 0.57563 0.70337 0.0
C1906 C 0.07554 0.55139 0.65464 0.0
C1907 C 0.14497 0.58329 0.57926 0.0
H1908 H 0.09824 0.53578 0.40683 0.0
H1909 H 0.10093 0.58999 0.40843 0.0
H1910 H 0.11736 0.53772 0.56162 0.0
H1911 H 0.09324 0.52792 0.58909 0.0
H1912 H 0.09845 0.52023 0.5087 0.0
H1913 H 0.10245 0.60596 0.51184 0.0
H1914 H 0.09698 0.59298 0.59218 0.0
H1915 H 0.12099 0.60571 0.56211 0.0
H1916 H 0.0916 0.55446 0.7797 0.0
H1917 H 0.14992 0.58113 0.71624 0.0
H1918 H 0.07062 0.53763 0.62785 0.0
H1919 H 0.07291 0.56059 0.61936 0.0
H1920 H 0.06686 0.54873 0.7021 0.0
H1921 H 0.14334 0.57155 0.54536 0.0
H1922 H 0.15952 0.59044 0.60153 0.0
H1923 H 0.14345 0.59361 0.54627 0.0
C1924 C 0.42514 0.56158 0.69829 0.0
C1925 C 0.42923 0.55222 0.75021 0.0
C1926 C 0.42378 0.55597 0.62912 0.0
C1927 C 0.42708 0.54093 0.6116 0.0
C1928 C 0.43061 0.53101 0.66433 0.0
C1929 C 0.43163 0.53679 0.73331 0.0
C1930 C 0.41974 0.56675 0.57447 0.0
C1931 C 0.43444 0.51509 0.6476 0.0
C1932 C 0.41317 0.52242 0.42872 0.0
C1933 C 0.43014 0.5341 0.39307 0.0
C1934 C 0.41213 0.52377 0.50072 0.0
C1935 C 0.42851 0.53691 0.53768 0.0
C1936 C 0.44599 0.54771 0.50246 0.0
C1937 C 0.44656 0.54627 0.43045 0.0
C1938 C 0.39324 0.51208 0.53646 0.0
C1939 C 0.46386 0.56162 0.54029 0.0
H1940 H 0.42349 0.57364 0.71172 0.0
H1941 H 0.43539 0.52996 0.77346 0.0
H1942 H 0.43253 0.57492 0.54177 0.0
H1943 H 0.40806 0.55673 0.54021 0.0
H1944 H 0.41575 0.57683 0.59723 0.0
H1945 H 0.43461 0.50735 0.69466 0.0
H1946 H 0.42358 0.50482 0.61138 0.0
H1947 H 0.44845 0.52102 0.62162 0.0
H1948 H 0.40041 0.51299 0.40006 0.0
H1949 H 0.45975 0.55517 0.40313 0.0
H1950 H 0.38779 0.52153 0.55328 0.0
H1951 H 0.39486 0.50519 0.58341 0.0
H1952 H 0.38249 0.50093 0.5021 0.0
H1953 H 0.46241 0.57372 0.55926 0.0
H1954 H 0.47665 0.56732 0.50672 0.0
H1955 H 0.46612 0.55474 0.58601 0.0
C1956 C 0.55151 0.80661 0.89057 0.0
C1957 C 0.55785 0.79603 0.92782 0.0
C1958 C 0.54991 0.80526 0.81833 0.0
C1959 C 0.55494 0.79319 0.78287 0.0
C1960 C 0.56277 0.78368 0.81979 0.0
C1961 C 0.56406 0.78516 0.89193 0.0
C1962 C 0.54159 0.81568 0.78063 0.0
C1963 C 0.56857 0.77089 0.78366 0.0
C1964 C 0.52825 0.76659 0.62283 0.0
C1965 C 0.54154 0.77644 0.5708 0.0
C1966 C 0.53212 0.77252 0.69175 0.0
C1967 C 0.54986 0.78853 0.70901 0.0
C1968 C 0.5631 0.79892 0.65629 0.0
C1969 C 0.55878 0.7927 0.58754 0.0
C1970 C 0.51754 0.76115 0.74645 0.0
C1971 C 0.58221 0.81595 0.67283 0.0
H1972 H 0.54676 0.81512 0.91798 0.0
H1973 H 0.56923 0.77716 0.92042 0.0
H1974 H 0.55004 0.8228 0.7338 0.0
H1975 H 0.52696 0.80533 0.7634 0.0
H1976 H 0.54093 0.82648 0.81388 0.0
H1977 H 0.57645 0.76637 0.81846 0.0
H1978 H 0.55572 0.75799 0.76455 0.0
H1979 H 0.57762 0.7782 0.73819 0.0
H1980 H 0.51495 0.75397 0.60969 0.0
H1981 H 0.56934 0.79996 0.5477 0.0
H1982 H 0.51463 0.77065 0.77898 0.0
H1983 H 0.52316 0.75418 0.78088 0.0
H1984 H 0.50393 0.74999 0.72382 0.0
H1985 H 0.58058 0.82577 0.70829 0.0
H1986 H 0.5898 0.82389 0.62558 0.0
H1987 H 0.59116 0.81117 0.69957 0.0
C1988 C 0.20272 0.76637 0.60125 0.0
C1989 C 0.21892 0.76525 0.58492 0.0
C1990 C 0.19671 0.76503 0.67007 0.0
C1991 C 0.20721 0.76253 0.72328 0.0
C1992 C 0.22319 0.76069 0.70645 0.0
C1993 C 0.22897 0.7623 0.6374 0.0
C1994 C 0.17978 0.76732 0.68608 0.0
C1995 C 0.23464 0.75779 0.76165 0.0
C1996 C 0.21016 0.78079 0.90524 0.0
C1997 C 0.1988 0.76389 0.94153 0.0
C1998 C 0.21204 0.7807 0.83326 0.0
C1999 C 0.20254 0.76324 0.79701 0.0
C2000 C 0.19017 0.7463 0.83285 0.0
C2001 C 0.18833 0.74685 0.90479 0.0
C2002 C 0.22507 0.79914 0.79663 0.0
C2003 C 0.17989 0.72741 0.79601 0.0
H2004 H 0.19532 0.76926 0.56064 0.0
H2005 H 0.24162 0.76165 0.62445 0.0
H2006 H 0.16981 0.75586 0.72121 0.0
H2007 H 0.18463 0.78103 0.71308 0.0
H2008 H 0.17199 0.76711 0.63863 0.0
H2009 H 0.24568 0.7551 0.73945 0.0
H2010 H 0.24175 0.77061 0.79492 0.0
H2011 H 0.22517 0.74563 0.79526 0.0
H2012 H 0.21812 0.79403 0.9334 0.0
H2013 H 0.17953 0.73372 0.93259 0.0
H2014 H 0.21794 0.80081 0.75047 0.0
H2015 H 0.23794 0.79898 0.77847 0.0
H2016 H 0.22961 0.81168 0.83076 0.0
H2017 H 0.17273 0.72851 0.7489 0.0
H2018 H 0.16914 0.716 0.82957 0.0
H2019 H 0.19033 0.7232 0.77929 0.0
C2020 C 0.227 0.43571 0.5932 0.0
C2021 C 0.23175 0.45439 0.57714 0.0
C2022 C 0.22724 0.43025 0.66191 0.0
C2023 C 0.23227 0.44382 0.71543 0.0
C2024 C 0.23768 0.46285 0.69898 0.0
C2025 C 0.23719 0.46786 0.63003 0.0
C2026 C 0.22121 0.40979 0.67746 0.0
C2027 C 0.24327 0.47779 0.75449 0.0
C2028 C 0.21339 0.43065 0.89797 0.0
C2029 C 0.22956 0.43339 0.93382 0.0
C2030 C 0.21373 0.43285 0.82601 0.0
C2031 C 0.23069 0.43804 0.78913 0.0
C2032 C 0.24667 0.43962 0.8244 0.0
C2033 C 0.24589 0.43719 0.89638 0.0
C2034 C 0.19629 0.43076 0.7901 0.0
C2035 C 0.26498 0.44508 0.78684 0.0
H2036 H 0.22207 0.42509 0.55274 0.0
H2037 H 0.2407 0.48226 0.61749 0.0
H2038 H 0.23158 0.40896 0.7124 0.0
H2039 H 0.2073 0.40297 0.70448 0.0
H2040 H 0.21979 0.40156 0.6298 0.0
H2041 H 0.24832 0.49218 0.73265 0.0
H2042 H 0.2309 0.47411 0.78846 0.0
H2043 H 0.25469 0.47826 0.78734 0.0
H2044 H 0.20066 0.42751 0.92645 0.0
H2045 H 0.25844 0.43927 0.9236 0.0
H2046 H 0.1929 0.42156 0.74385 0.0
H2047 H 0.19906 0.4449 0.77218 0.0
H2048 H 0.18367 0.42463 0.82462 0.0
H2049 H 0.26218 0.43629 0.73973 0.0
H2050 H 0.27526 0.44347 0.81993 0.0
H2051 H 0.27166 0.46013 0.77003 0.0
loop_
_geom_bond_atom_site_label_1
_geom_bond_atom_site_label_2
_geom_bond_distance
_geom_bond_site_symmetry_2
_ccdc_geom_bond_type
Co0 O3 1.970 . S
Co0 N17 1.989 . S
Co0 O25 1.967 . S
Co0 O32 1.920 . S
Co1 O4 1.966 . S
Co1 N10 2.022 . S
Co1 N18 1.993 . S
Co1 O26 1.941 . S
C2 O3 1.258 . S
C2 O4 1.263 . S
O3 Co0 1.970 . S
O3 C2 1.258 . S
O4 Co1 1.966 . S
O4 C2 1.263 . S
C5 O6 1.235 . S
C5 O32 1.289 . S
O6 C5 1.235 . S
C7 C9 1.400 . S
C7 N10 1.351 . S
C7 C12 1.501 . S
C8 C9 1.387 . S
C8 N11 1.341 . S
C9 C7 1.400 . S
C9 C8 1.387 . S
N10 Co1 2.022 . S
N10 C7 1.351 . S
N10 N11 1.365 . S
N11 C8 1.341 . S
N11 N10 1.365 . S
N11 H31 0.862 . S
C12 C7 1.501 . S
C12 H13 0.961 . S
C12 H14 0.961 . S
C12 H15 0.960 . S
H13 C12 0.961 . S
H14 C12 0.961 . S
H15 C12 0.960 . S
C16 N17 1.342 . S
C16 C20 1.401 . S
C16 C21 1.499 . S
N17 Co0 1.989 . S
N17 C16 1.342 . S
N17 N18 1.388 . S
N18 Co1 1.993 . S
N18 N17 1.388 . S
N18 C19 1.346 . S
C19 N18 1.346 . S
C19 C20 1.396 . S
C19 C29 1.510 . S
C20 C16 1.401 . S
C20 C19 1.396 . S
C21 C16 1.499 . S
C21 H22 0.959 . S
C21 H23 0.960 . S
C21 H24 0.961 . S
H22 C21 0.959 . S
H23 C21 0.960 . S
H24 C21 0.961 . S
O25 Co0 1.967 . S
O25 C33 1.258 . S
O26 Co1 1.941 . S
O26 C33 1.266 . S
H27 C29 0.959 . S
H28 C29 0.961 . S
C29 C19 1.510 . S
C29 H27 0.959 . S
C29 H28 0.961 . S
C29 H30 0.960 . S
H30 C29 0.960 . S
H31 N11 0.862 . S
O32 Co0 1.920 . S
O32 C5 1.289 . S
C33 O25 1.258 . S
C33 O26 1.266 . S
Co34 O37 1.970 . S
Co34 N51 1.989 . S
Co34 O59 1.967 . S
Co34 O66 1.920 . S
Co35 O38 1.966 . S
Co35 N44 2.022 . S
Co35 N52 1.993 . S
Co35 O60 1.941 . S
C36 O37 1.258 . S
C36 O38 1.263 . S
O37 Co34 1.970 . S
O37 C36 1.258 . S
O38 Co35 1.966 . S
O38 C36 1.263 . S
C39 O40 1.235 . S
C39 O66 1.289 . S
O40 C39 1.235 . S
C41 C43 1.400 . S
C41 N44 1.351 . S
C41 C46 1.501 . S
C42 C43 1.387 . S
C42 N45 1.341 . S
C43 C41 1.400 . S
C43 C42 1.387 . S
N44 Co35 2.022 . S
N44 C41 1.351 . S
N44 N45 1.365 . S
N45 C42 1.341 . S
N45 N44 1.365 . S
N45 H65 0.862 . S
C46 C41 1.501 . S
C46 H47 0.961 . S
C46 H48 0.961 . S
C46 H49 0.960 . S
H47 C46 0.961 . S
H48 C46 0.961 . S
H49 C46 0.960 . S
C50 N51 1.342 . S
C50 C54 1.401 . S
C50 C55 1.499 . S
N51 Co34 1.989 . S
N51 C50 1.342 . S
N51 N52 1.388 . S
N52 Co35 1.993 . S
N52 N51 1.388 . S
N52 C53 1.346 . S
C53 N52 1.346 . S
C53 C54 1.396 . S
C53 C63 1.510 . S
C54 C50 1.401 . S
C54 C53 1.396 . S
C55 C50 1.499 . S
C55 H56 0.959 . S
C55 H57 0.960 . S
C55 H58 0.961 . S
H56 C55 0.959 . S
H57 C55 0.960 . S
H58 C55 0.961 . S
O59 Co34 1.967 . S
O59 C67 1.258 . S
O60 Co35 1.941 . S
O60 C67 1.266 . S
H61 C63 0.959 . S
H62 C63 0.961 . S
C63 C53 1.510 . S
C63 H61 0.959 . S
C63 H62 0.961 . S
C63 H64 0.960 . S
H64 C63 0.960 . S
H65 N45 0.862 . S
O66 Co34 1.920 . S
O66 C39 1.289 . S
C67 O59 1.258 . S
C67 O60 1.266 . S
Co68 O71 1.970 . S
Co68 N85 1.989 . S
Co68 O93 1.967 . S
Co68 O100 1.920 . S
Co69 O72 1.966 . S
Co69 N78 2.022 . S
Co69 N86 1.993 . S
Co69 O94 1.941 . S
C70 O71 1.258 . S
C70 O72 1.263 . S
O71 Co68 1.970 . S
O71 C70 1.258 . S
O72 Co69 1.966 . S
O72 C70 1.263 . S
C73 O74 1.235 . S
C73 O100 1.289 . S
O74 C73 1.235 . S
C75 C77 1.400 . S
C75 N78 1.351 . S
C75 C80 1.501 . S
C76 C77 1.387 . S
C76 N79 1.341 . S
C77 C75 1.400 . S
C77 C76 1.387 . S
N78 Co69 2.022 . S
N78 C75 1.351 . S
N78 N79 1.365 . S
N79 C76 1.341 . S
N79 N78 1.365 . S
N79 H99 0.862 . S
C80 C75 1.501 . S
C80 H81 0.961 . S
C80 H82 0.961 . S
C80 H83 0.960 . S
H81 C80 0.961 . S
H82 C80 0.961 . S
H83 C80 0.960 . S
C84 N85 1.342 . S
C84 C88 1.401 . S
C84 C89 1.499 . S
N85 Co68 1.989 . S
N85 C84 1.342 . S
N85 N86 1.388 . S
N86 Co69 1.993 . S
N86 N85 1.388 . S
N86 C87 1.346 . S
C87 N86 1.346 . S
C87 C88 1.396 . S
C87 C97 1.510 . S
C88 C84 1.401 . S
C88 C87 1.396 . S
C89 C84 1.499 . S
C89 H90 0.959 . S
C89 H91 0.960 . S
C89 H92 0.961 . S
H90 C89 0.959 . S
H91 C89 0.960 . S
H92 C89 0.961 . S
O93 Co68 1.967 . S
O93 C101 1.258 . S
O94 Co69 1.941 . S
O94 C101 1.266 . S
H95 C97 0.959 . S
H96 C97 0.961 . S
C97 C87 1.510 . S
C97 H95 0.959 . S
C97 H96 0.961 . S
C97 H98 0.960 . S
H98 C97 0.960 . S
H99 N79 0.862 . S
O100 Co68 1.920 . S
O100 C73 1.289 . S
C101 O93 1.258 . S
C101 O94 1.266 . S
Co102 O105 1.970 . S
Co102 N119 1.989 . S
Co102 O127 1.967 . S
Co102 O134 1.920 . S
Co103 O106 1.966 . S
Co103 N112 2.022 . S
Co103 N120 1.993 . S
Co103 O128 1.941 . S
C104 O105 1.258 . S
C104 O106 1.263 . S
O105 Co102 1.970 . S
O105 C104 1.258 . S
O106 Co103 1.966 . S
O106 C104 1.263 . S
C107 O108 1.235 . S
C107 O134 1.289 . S
O108 C107 1.235 . S
C109 C111 1.400 . S
C109 N112 1.351 . S
C109 C114 1.501 . S
C110 C111 1.387 . S
C110 N113 1.341 . S
C111 C109 1.400 . S
C111 C110 1.387 . S
N112 Co103 2.022 . S
N112 C109 1.351 . S
N112 N113 1.365 . S
N113 C110 1.341 . S
N113 N112 1.365 . S
N113 H133 0.862 . S
C114 C109 1.501 . S
C114 H115 0.961 . S
C114 H116 0.961 . S
C114 H117 0.960 . S
H115 C114 0.961 . S
H116 C114 0.961 . S
H117 C114 0.960 . S
C118 N119 1.342 . S
C118 C122 1.401 . S
C118 C123 1.499 . S
N119 Co102 1.989 . S
N119 C118 1.342 . S
N119 N120 1.388 . S
N120 Co103 1.993 . S
N120 N119 1.388 . S
N120 C121 1.346 . S
C121 N120 1.346 . S
C121 C122 1.396 . S
C121 C131 1.510 . S
C122 C118 1.401 . S
C122 C121 1.396 . S
C123 C118 1.499 . S
C123 H124 0.959 . S
C123 H125 0.960 . S
C123 H126 0.961 . S
H124 C123 0.959 . S
H125 C123 0.960 . S
H126 C123 0.961 . S
O127 Co102 1.967 . S
O127 C135 1.258 . S
O128 Co103 1.941 . S
O128 C135 1.266 . S
H129 C131 0.959 . S
H130 C131 0.961 . S
C131 C121 1.510 . S
C131 H129 0.959 . S
C131 H130 0.961 . S
C131 H132 0.960 . S
H132 C131 0.960 . S
H133 N113 0.862 . S
O134 Co102 1.920 . S
O134 C107 1.289 . S
C135 O127 1.258 . S
C135 O128 1.266 . S
Co136 O139 1.970 . S
Co136 N153 1.989 . S
Co136 O161 1.967 . S
Co136 O168 1.920 . S
Co137 O140 1.966 . S
Co137 N146 2.022 . S
Co137 N154 1.993 . S
Co137 O162 1.941 . S
C138 O139 1.258 . S
C138 O140 1.263 . S
O139 Co136 1.970 . S
O139 C138 1.258 . S
O140 Co137 1.966 . S
O140 C138 1.263 . S
C141 O142 1.235 . S
C141 O168 1.289 . S
O142 C141 1.235 . S
C143 C145 1.400 . S
C143 N146 1.351 . S
C143 C148 1.501 . S
C144 C145 1.387 . S
C144 N147 1.341 . S
C145 C143 1.400 . S
C145 C144 1.387 . S
N146 Co137 2.022 . S
N146 C143 1.351 . S
N146 N147 1.365 . S
N147 C144 1.341 . S
N147 N146 1.365 . S
N147 H167 0.862 . S
C148 C143 1.501 . S
C148 H149 0.961 . S
C148 H150 0.961 . S
C148 H151 0.960 . S
H149 C148 0.961 . S
H150 C148 0.961 . S
H151 C148 0.960 . S
C152 N153 1.342 . S
C152 C156 1.401 . S
C152 C157 1.499 . S
N153 Co136 1.989 . S
N153 C152 1.342 . S
N153 N154 1.388 . S
N154 Co137 1.993 . S
N154 N153 1.388 . S
N154 C155 1.346 . S
C155 N154 1.346 . S
C155 C156 1.396 . S
C155 C165 1.510 . S
C156 C152 1.401 . S
C156 C155 1.396 . S
C157 C152 1.499 . S
C157 H158 0.959 . S
C157 H159 0.960 . S
C157 H160 0.961 . S
H158 C157 0.959 . S
H159 C157 0.960 . S
H160 C157 0.961 . S
O161 Co136 1.967 . S
O161 C169 1.258 . S
O162 Co137 1.941 . S
O162 C169 1.266 . S
H163 C165 0.959 . S
H164 C165 0.961 . S
C165 C155 1.510 . S
C165 H163 0.959 . S
C165 H164 0.961 . S
C165 H166 0.960 . S
H166 C165 0.960 . S
H167 N147 0.862 . S
O168 Co136 1.920 . S
O168 C141 1.289 . S
C169 O161 1.258 . S
C169 O162 1.266 . S
Co170 O173 1.970 . S
Co170 N187 1.989 . S
Co170 O195 1.967 . S
Co170 O202 1.920 . S
Co171 O174 1.966 . S
Co171 N180 2.022 . S
Co171 N188 1.993 . S
Co171 O196 1.941 . S
C172 O173 1.258 . S
C172 O174 1.263 . S
O173 Co170 1.970 . S
O173 C172 1.258 . S
O174 Co171 1.966 . S
O174 C172 1.263 . S
C175 O176 1.235 . S
C175 O202 1.289 . S
O176 C175 1.235 . S
C177 C179 1.400 . S
C177 N180 1.351 . S
C177 C182 1.501 . S
C178 C179 1.387 . S
C178 N181 1.341 . S
C179 C177 1.400 . S
C179 C178 1.387 . S
N180 Co171 2.022 . S
N180 C177 1.351 . S
N180 N181 1.365 . S
N181 C178 1.341 . S
N181 N180 1.365 . S
N181 H201 0.862 . S
C182 C177 1.501 . S
C182 H183 0.961 . S
C182 H184 0.961 . S
C182 H185 0.960 . S
H183 C182 0.961 . S
H184 C182 0.961 . S
H185 C182 0.960 . S
C186 N187 1.342 . S
C186 C190 1.401 . S
C186 C191 1.499 . S
N187 Co170 1.989 . S
N187 C186 1.342 . S
N187 N188 1.388 . S
N188 Co171 1.993 . S
N188 N187 1.388 . S
N188 C189 1.346 . S
C189 N188 1.346 . S
C189 C190 1.396 . S
C189 C199 1.510 . S
C190 C186 1.401 . S
C190 C189 1.396 . S
C191 C186 1.499 . S
C191 H192 0.959 . S
C191 H193 0.960 . S
C191 H194 0.961 . S
H192 C191 0.959 . S
H193 C191 0.960 . S
H194 C191 0.961 . S
O195 Co170 1.967 . S
O195 C203 1.258 . S
O196 Co171 1.941 . S
O196 C203 1.266 . S
H197 C199 0.959 . S
H198 C199 0.961 . S
C199 C189 1.510 . S
C199 H197 0.959 . S
C199 H198 0.961 . S
C199 H200 0.960 . S
H200 C199 0.960 . S
H201 N181 0.862 . S
O202 Co170 1.920 . S
O202 C175 1.289 . S
C203 O195 1.258 . S
C203 O196 1.266 . S
Co204 O207 1.970 . S
Co204 N221 1.989 . S
Co204 O229 1.967 . S
Co204 O236 1.920 . S
Co205 O208 1.966 . S
Co205 N214 2.022 . S
Co205 N222 1.993 . S
Co205 O230 1.941 . S
C206 O207 1.258 . S
C206 O208 1.263 . S
O207 Co204 1.970 . S
O207 C206 1.258 . S
O208 Co205 1.966 . S
O208 C206 1.263 . S
C209 O210 1.235 . S
C209 O236 1.289 . S
O210 C209 1.235 . S
C211 C213 1.400 . S
C211 N214 1.351 . S
C211 C216 1.501 . S
C212 C213 1.387 . S
C212 N215 1.341 . S
C213 C211 1.400 . S
C213 C212 1.387 . S
N214 Co205 2.022 . S
N214 C211 1.351 . S
N214 N215 1.365 . S
N215 C212 1.341 . S
N215 N214 1.365 . S
N215 H235 0.862 . S
C216 C211 1.501 . S
C216 H217 0.961 . S
C216 H218 0.961 . S
C216 H219 0.960 . S
H217 C216 0.961 . S
H218 C216 0.961 . S
H219 C216 0.960 . S
C220 N221 1.342 . S
C220 C224 1.401 . S
C220 C225 1.499 . S
N221 Co204 1.989 . S
N221 C220 1.342 . S
N221 N222 1.388 . S
N222 Co205 1.993 . S
N222 N221 1.388 . S
N222 C223 1.346 . S
C223 N222 1.346 . S
C223 C224 1.396 . S
C223 C233 1.510 . S
C224 C220 1.401 . S
C224 C223 1.396 . S
C225 C220 1.499 . S
C225 H226 0.959 . S
C225 H227 0.960 . S
C225 H228 0.961 . S
H226 C225 0.959 . S
H227 C225 0.960 . S
H228 C225 0.961 . S
O229 Co204 1.967 . S
O229 C237 1.258 . S
O230 Co205 1.941 . S
O230 C237 1.266 . S
H231 C233 0.959 . S
H232 C233 0.961 . S
C233 C223 1.510 . S
C233 H231 0.959 . S
C233 H232 0.961 . S
C233 H234 0.960 . S
H234 C233 0.960 . S
H235 N215 0.862 . S
O236 Co204 1.920 . S
O236 C209 1.289 . S
C237 O229 1.258 . S
C237 O230 1.266 . S
Co238 O241 1.970 . S
Co238 N255 1.989 . S
Co238 O263 1.967 . S
Co238 O270 1.920 . S
Co239 O242 1.966 . S
Co239 N248 2.022 . S
Co239 N256 1.993 . S
Co239 O264 1.941 . S
C240 O241 1.258 . S
C240 O242 1.263 . S
O241 Co238 1.970 . S
O241 C240 1.258 . S
O242 Co239 1.966 . S
O242 C240 1.263 . S
C243 O244 1.235 . S
C243 O270 1.289 . S
O244 C243 1.235 . S
C245 C247 1.400 . S
C245 N248 1.351 . S
C245 C250 1.501 . S
C246 C247 1.387 . S
C246 N249 1.341 . S
C247 C245 1.400 . S
C247 C246 1.387 . S
N248 Co239 2.022 . S
N248 C245 1.351 . S
N248 N249 1.365 . S
N249 C246 1.341 . S
N249 N248 1.365 . S
N249 H269 0.862 . S
C250 C245 1.501 . S
C250 H251 0.961 . S
C250 H252 0.961 . S
C250 H253 0.960 . S
H251 C250 0.961 . S
H252 C250 0.961 . S
H253 C250 0.960 . S
C254 N255 1.342 . S
C254 C258 1.401 . S
C254 C259 1.499 . S
N255 Co238 1.989 . S
N255 C254 1.342 . S
N255 N256 1.388 . S
N256 Co239 1.993 . S
N256 N255 1.388 . S
N256 C257 1.346 . S
C257 N256 1.346 . S
C257 C258 1.396 . S
C257 C267 1.510 . S
C258 C254 1.401 . S
C258 C257 1.396 . S
C259 C254 1.499 . S
C259 H260 0.959 . S
C259 H261 0.960 . S
C259 H262 0.961 . S
H260 C259 0.959 . S
H261 C259 0.960 . S
H262 C259 0.961 . S
O263 Co238 1.967 . S
O263 C271 1.258 . S
O264 Co239 1.941 . S
O264 C271 1.266 . S
H265 C267 0.959 . S
H266 C267 0.961 . S
C267 C257 1.510 . S
C267 H265 0.959 . S
C267 H266 0.961 . S
C267 H268 0.960 . S
H268 C267 0.960 . S
H269 N249 0.862 . S
O270 Co238 1.920 . S
O270 C243 1.289 . S
C271 O263 1.258 . S
C271 O264 1.266 . S
Co272 O275 1.970 . S
Co272 N289 1.989 . S
Co272 O297 1.967 . S
Co272 O304 1.920 . S
Co273 O276 1.966 . S
Co273 N282 2.022 . S
Co273 N290 1.993 . S
Co273 O298 1.941 . S
C274 O275 1.258 . S
C274 O276 1.263 . S
O275 Co272 1.970 . S
O275 C274 1.258 . S
O276 Co273 1.966 . S
O276 C274 1.263 . S
C277 O278 1.235 . S
C277 O304 1.289 . S
O278 C277 1.235 . S
C279 C281 1.400 . S
C279 N282 1.351 . S
C279 C284 1.501 . S
C280 C281 1.387 . S
C280 N283 1.341 . S
C281 C279 1.400 . S
C281 C280 1.387 . S
N282 Co273 2.022 . S
N282 C279 1.351 . S
N282 N283 1.365 . S
N283 C280 1.341 . S
N283 N282 1.365 . S
N283 H303 0.862 . S
C284 C279 1.501 . S
C284 H285 0.961 . S
C284 H286 0.961 . S
C284 H287 0.960 . S
H285 C284 0.961 . S
H286 C284 0.961 . S
H287 C284 0.960 . S
C288 N289 1.342 . S
C288 C292 1.401 . S
C288 C293 1.499 . S
N289 Co272 1.989 . S
N289 C288 1.342 . S
N289 N290 1.388 . S
N290 Co273 1.993 . S
N290 N289 1.388 . S
N290 C291 1.346 . S
C291 N290 1.346 . S
C291 C292 1.396 . S
C291 C301 1.510 . S
C292 C288 1.401 . S
C292 C291 1.396 . S
C293 C288 1.499 . S
C293 H294 0.959 . S
C293 H295 0.960 . S
C293 H296 0.961 . S
H294 C293 0.959 . S
H295 C293 0.960 . S
H296 C293 0.961 . S
O297 Co272 1.967 . S
O297 C305 1.258 . S
O298 Co273 1.941 . S
O298 C305 1.266 . S
H299 C301 0.959 . S
H300 C301 0.961 . S
C301 C291 1.510 . S
C301 H299 0.959 . S
C301 H300 0.961 . S
C301 H302 0.960 . S
H302 C301 0.960 . S
H303 N283 0.862 . S
O304 Co272 1.920 . S
O304 C277 1.289 . S
C305 O297 1.258 . S
C305 O298 1.266 . S
Co306 O309 1.970 . S
Co306 N323 1.989 . S
Co306 O331 1.967 . S
Co306 O338 1.920 . S
Co307 O310 1.966 . S
Co307 N316 2.022 1_556 S
Co307 N324 1.993 . S
Co307 O332 1.941 . S
C308 O309 1.258 . S
C308 O310 1.263 . S
O309 Co306 1.970 . S
O309 C308 1.258 . S
O310 Co307 1.966 . S
O310 C308 1.263 . S
C311 O312 1.235 . S
C311 O338 1.289 . S
O312 C311 1.235 . S
C313 C315 1.400 . S
C313 N316 1.351 . S
C313 C318 1.501 . S
C314 C315 1.387 . S
C314 N317 1.341 . S
C315 C313 1.400 . S
C315 C314 1.387 . S
N316 Co307 2.022 1_554 S
N316 C313 1.351 . S
N316 N317 1.365 . S
N317 C314 1.341 . S
N317 N316 1.365 . S
N317 H337 0.862 . S
C318 C313 1.501 . S
C318 H319 0.961 . S
C318 H320 0.961 . S
C318 H321 0.960 . S
H319 C318 0.961 . S
H320 C318 0.961 . S
H321 C318 0.960 . S
C322 N323 1.342 . S
C322 C326 1.401 . S
C322 C327 1.499 . S
N323 Co306 1.989 . S
N323 C322 1.342 . S
N323 N324 1.388 . S
N324 Co307 1.993 . S
N324 N323 1.388 . S
N324 C325 1.346 . S
C325 N324 1.346 . S
C325 C326 1.396 . S
C325 C335 1.510 1_556 S
C326 C322 1.401 . S
C326 C325 1.396 . S
C327 C322 1.499 . S
C327 H328 0.959 . S
C327 H329 0.960 . S
C327 H330 0.961 . S
H328 C327 0.959 . S
H329 C327 0.960 . S
H330 C327 0.961 . S
O331 Co306 1.967 . S
O331 C339 1.258 . S
O332 Co307 1.941 . S
O332 C339 1.266 . S
H333 C335 0.959 . S
H334 C335 0.961 . S
C335 C325 1.510 1_554 S
C335 H333 0.959 . S
C335 H334 0.961 . S
C335 H336 0.960 . S
H336 C335 0.960 . S
H337 N317 0.862 . S
O338 Co306 1.920 . S
O338 C311 1.289 . S
C339 O331 1.258 . S
C339 O332 1.266 . S
Co340 O343 1.970 . S
Co340 N357 1.989 . S
Co340 O365 1.967 . S
Co340 O372 1.920 . S
Co341 O344 1.966 . S
Co341 N350 2.022 1_556 S
Co341 N358 1.993 . S
Co341 O366 1.941 . S
C342 O343 1.258 . S
C342 O344 1.263 . S
O343 Co340 1.970 . S
O343 C342 1.258 . S
O344 Co341 1.966 . S
O344 C342 1.263 . S
C345 O346 1.235 . S
C345 O372 1.289 . S
O346 C345 1.235 . S
C347 C349 1.400 . S
C347 N350 1.351 . S
C347 C352 1.501 . S
C348 C349 1.387 . S
C348 N351 1.341 . S
C349 C347 1.400 . S
C349 C348 1.387 . S
N350 Co341 2.022 1_554 S
N350 C347 1.351 . S
N350 N351 1.365 . S
N351 C348 1.341 . S
N351 N350 1.365 . S
N351 H371 0.862 . S
C352 C347 1.501 . S
C352 H353 0.961 . S
C352 H354 0.961 . S
C352 H355 0.960 . S
H353 C352 0.961 . S
H354 C352 0.961 . S
H355 C352 0.960 . S
C356 N357 1.342 . S
C356 C360 1.401 . S
C356 C361 1.499 . S
N357 Co340 1.989 . S
N357 C356 1.342 . S
N357 N358 1.388 . S
N358 Co341 1.993 . S
N358 N357 1.388 . S
N358 C359 1.346 . S
C359 N358 1.346 . S
C359 C360 1.396 . S
C359 C369 1.510 1_556 S
C360 C356 1.401 . S
C360 C359 1.396 . S
C361 C356 1.499 . S
C361 H362 0.959 . S
C361 H363 0.960 . S
C361 H364 0.961 . S
H362 C361 0.959 . S
H363 C361 0.960 . S
H364 C361 0.961 . S
O365 Co340 1.967 . S
O365 C373 1.258 . S
O366 Co341 1.941 . S
O366 C373 1.266 . S
H367 C369 0.959 . S
H368 C369 0.961 . S
C369 C359 1.510 1_554 S
C369 H367 0.959 . S
C369 H368 0.961 . S
C369 H370 0.960 . S
H370 C369 0.960 . S
H371 N351 0.862 . S
O372 Co340 1.920 . S
O372 C345 1.289 . S
C373 O365 1.258 . S
C373 O366 1.266 . S
Co374 O377 1.970 . S
Co374 N391 1.989 . S
Co374 O399 1.967 . S
Co374 O406 1.920 . S
Co375 O378 1.966 . S
Co375 N384 2.022 1_556 S
Co375 N392 1.993 . S
Co375 O400 1.941 . S
C376 O377 1.258 . S
C376 O378 1.263 . S
O377 Co374 1.970 . S
O377 C376 1.258 . S
O378 Co375 1.966 . S
O378 C376 1.263 . S
C379 O380 1.235 . S
C379 O406 1.289 . S
O380 C379 1.235 . S
C381 C383 1.400 . S
C381 N384 1.351 . S
C381 C386 1.501 . S
C382 C383 1.387 . S
C382 N385 1.341 . S
C383 C381 1.400 . S
C383 C382 1.387 . S
N384 Co375 2.022 1_554 S
N384 C381 1.351 . S
N384 N385 1.365 . S
N385 C382 1.341 . S
N385 N384 1.365 . S
N385 H405 0.862 . S
C386 C381 1.501 . S
C386 H387 0.961 . S
C386 H388 0.961 . S
C386 H389 0.960 . S
H387 C386 0.961 . S
H388 C386 0.961 . S
H389 C386 0.960 . S
C390 N391 1.342 . S
C390 C394 1.401 . S
C390 C395 1.499 . S
N391 Co374 1.989 . S
N391 C390 1.342 . S
N391 N392 1.388 . S
N392 Co375 1.993 . S
N392 N391 1.388 . S
N392 C393 1.346 . S
C393 N392 1.346 . S
C393 C394 1.396 . S
C393 C403 1.510 1_556 S
C394 C390 1.401 . S
C394 C393 1.396 . S
C395 C390 1.499 . S
C395 H396 0.959 . S
C395 H397 0.960 . S
C395 H398 0.961 . S
H396 C395 0.959 . S
H397 C395 0.960 . S
H398 C395 0.961 . S
O399 Co374 1.967 . S
O399 C407 1.258 . S
O400 Co375 1.941 . S
O400 C407 1.266 . S
H401 C403 0.959 . S
H402 C403 0.961 . S
C403 C393 1.510 1_554 S
C403 H401 0.959 . S
C403 H402 0.961 . S
C403 H404 0.960 . S
H404 C403 0.960 . S
H405 N385 0.862 . S
O406 Co374 1.920 . S
O406 C379 1.289 . S
C407 O399 1.258 . S
C407 O400 1.266 . S
Co408 O411 1.970 . S
Co408 N425 1.989 . S
Co408 O433 1.967 . S
Co408 O440 1.920 . S
Co409 O412 1.966 . S
Co409 N418 2.022 1_554 S
Co409 N426 1.993 . S
Co409 O434 1.941 . S
C410 O411 1.258 . S
C410 O412 1.263 . S
O411 Co408 1.970 . S
O411 C410 1.258 . S
O412 Co409 1.966 . S
O412 C410 1.263 . S
C413 O414 1.235 . S
C413 O440 1.289 . S
O414 C413 1.235 . S
C415 C417 1.400 . S
C415 N418 1.351 . S
C415 C420 1.501 . S
C416 C417 1.387 . S
C416 N419 1.341 . S
C417 C415 1.400 . S
C417 C416 1.387 . S
N418 Co409 2.022 1_556 S
N418 C415 1.351 . S
N418 N419 1.365 . S
N419 C416 1.341 . S
N419 N418 1.365 . S
N419 H439 0.862 . S
C420 C415 1.501 . S
C420 H421 0.961 . S
C420 H422 0.961 . S
C420 H423 0.960 . S
H421 C420 0.961 . S
H422 C420 0.961 . S
H423 C420 0.960 . S
C424 N425 1.342 . S
C424 C428 1.401 . S
C424 C429 1.499 . S
N425 Co408 1.989 . S
N425 C424 1.342 . S
N425 N426 1.388 . S
N426 Co409 1.993 . S
N426 N425 1.388 . S
N426 C427 1.346 . S
C427 N426 1.346 . S
C427 C428 1.396 . S
C427 C437 1.510 1_554 S
C428 C424 1.401 . S
C428 C427 1.396 . S
C429 C424 1.499 . S
C429 H430 0.959 . S
C429 H431 0.960 . S
C429 H432 0.961 . S
H430 C429 0.959 . S
H431 C429 0.960 . S
H432 C429 0.961 . S
O433 Co408 1.967 . S
O433 C441 1.258 . S
O434 Co409 1.941 . S
O434 C441 1.266 . S
H435 C437 0.959 . S
H436 C437 0.961 . S
C437 C427 1.510 1_556 S
C437 H435 0.959 . S
C437 H436 0.961 . S
C437 H438 0.960 . S
H438 C437 0.960 . S
H439 N419 0.862 . S
O440 Co408 1.920 . S
O440 C413 1.289 . S
C441 O433 1.258 . S
C441 O434 1.266 . S
Co442 O445 1.970 . S
Co442 N459 1.989 . S
Co442 O467 1.967 . S
Co442 O474 1.920 . S
Co443 O446 1.966 . S
Co443 N452 2.022 1_554 S
Co443 N460 1.993 . S
Co443 O468 1.941 . S
C444 O445 1.258 . S
C444 O446 1.263 . S
O445 Co442 1.970 . S
O445 C444 1.258 . S
O446 Co443 1.966 . S
O446 C444 1.263 . S
C447 O448 1.235 . S
C447 O474 1.289 . S
O448 C447 1.235 . S
C449 C451 1.400 . S
C449 N452 1.351 . S
C449 C454 1.501 . S
C450 C451 1.387 . S
C450 N453 1.341 . S
C451 C449 1.400 . S
C451 C450 1.387 . S
N452 Co443 2.022 1_556 S
N452 C449 1.351 . S
N452 N453 1.365 . S
N453 C450 1.341 . S
N453 N452 1.365 . S
N453 H473 0.862 . S
C454 C449 1.501 . S
C454 H455 0.961 . S
C454 H456 0.961 . S
C454 H457 0.960 . S
H455 C454 0.961 . S
H456 C454 0.961 . S
H457 C454 0.960 . S
C458 N459 1.342 . S
C458 C462 1.401 . S
C458 C463 1.499 . S
N459 Co442 1.989 . S
N459 C458 1.342 . S
N459 N460 1.388 . S
N460 Co443 1.993 . S
N460 N459 1.388 . S
N460 C461 1.346 . S
C461 N460 1.346 . S
C461 C462 1.396 . S
C461 C471 1.510 1_554 S
C462 C458 1.401 . S
C462 C461 1.396 . S
C463 C458 1.499 . S
C463 H464 0.959 . S
C463 H465 0.960 . S
C463 H466 0.961 . S
H464 C463 0.959 . S
H465 C463 0.960 . S
H466 C463 0.961 . S
O467 Co442 1.967 . S
O467 C475 1.258 . S
O468 Co443 1.941 . S
O468 C475 1.266 . S
H469 C471 0.959 . S
H470 C471 0.961 . S
C471 C461 1.510 1_556 S
C471 H469 0.959 . S
C471 H470 0.961 . S
C471 H472 0.960 . S
H472 C471 0.960 . S
H473 N453 0.862 . S
O474 Co442 1.920 . S
O474 C447 1.289 . S
C475 O467 1.258 . S
C475 O468 1.266 . S
Co476 O479 1.970 . S
Co476 N493 1.989 . S
Co476 O501 1.967 . S
Co476 O508 1.920 . S
Co477 O480 1.966 . S
Co477 N486 2.022 1_554 S
Co477 N494 1.993 . S
Co477 O502 1.941 . S
C478 O479 1.258 . S
C478 O480 1.263 . S
O479 Co476 1.970 . S
O479 C478 1.258 . S
O480 Co477 1.966 . S
O480 C478 1.263 . S
C481 O482 1.235 . S
C481 O508 1.289 . S
O482 C481 1.235 . S
C483 C485 1.400 . S
C483 N486 1.351 . S
C483 C488 1.501 . S
C484 C485 1.387 . S
C484 N487 1.341 . S
C485 C483 1.400 . S
C485 C484 1.387 . S
N486 Co477 2.022 1_556 S
N486 C483 1.351 . S
N486 N487 1.365 . S
N487 C484 1.341 . S
N487 N486 1.365 . S
N487 H507 0.862 . S
C488 C483 1.501 . S
C488 H489 0.961 . S
C488 H490 0.961 . S
C488 H491 0.960 . S
H489 C488 0.961 . S
H490 C488 0.961 . S
H491 C488 0.960 . S
C492 N493 1.342 . S
C492 C496 1.401 . S
C492 C497 1.499 . S
N493 Co476 1.989 . S
N493 C492 1.342 . S
N493 N494 1.388 . S
N494 Co477 1.993 . S
N494 N493 1.388 . S
N494 C495 1.346 . S
C495 N494 1.346 . S
C495 C496 1.396 . S
C495 C505 1.510 1_554 S
C496 C492 1.401 . S
C496 C495 1.396 . S
C497 C492 1.499 . S
C497 H498 0.959 . S
C497 H499 0.960 . S
C497 H500 0.961 . S
H498 C497 0.959 . S
H499 C497 0.960 . S
H500 C497 0.961 . S
O501 Co476 1.967 . S
O501 C509 1.258 . S
O502 Co477 1.941 . S
O502 C509 1.266 . S
H503 C505 0.959 . S
H504 C505 0.961 . S
C505 C495 1.510 1_556 S
C505 H503 0.959 . S
C505 H504 0.961 . S
C505 H506 0.960 . S
H506 C505 0.960 . S
H507 N487 0.862 . S
O508 Co476 1.920 . S
O508 C481 1.289 . S
C509 O501 1.258 . S
C509 O502 1.266 . S
Co510 O513 1.970 . S
Co510 N527 1.989 . S
Co510 O535 1.967 . S
Co510 O542 1.920 . S
Co511 O514 1.966 . S
Co511 N520 2.022 . S
Co511 N528 1.993 . S
Co511 O536 1.941 . S
C512 O513 1.258 . S
C512 O514 1.263 . S
O513 Co510 1.970 . S
O513 C512 1.258 . S
O514 Co511 1.966 . S
O514 C512 1.263 . S
C515 O516 1.235 . S
C515 O542 1.289 . S
O516 C515 1.235 . S
C517 C519 1.400 . S
C517 N520 1.351 . S
C517 C522 1.501 . S
C518 C519 1.387 . S
C518 N521 1.341 . S
C519 C517 1.400 . S
C519 C518 1.387 . S
N520 Co511 2.022 . S
N520 C517 1.351 . S
N520 N521 1.365 . S
N521 C518 1.341 . S
N521 N520 1.365 . S
N521 H541 0.862 . S
C522 C517 1.501 . S
C522 H523 0.961 . S
C522 H524 0.961 . S
C522 H525 0.960 . S
H523 C522 0.961 . S
H524 C522 0.961 . S
H525 C522 0.960 . S
C526 N527 1.342 . S
C526 C530 1.401 . S
C526 C531 1.499 . S
N527 Co510 1.989 . S
N527 C526 1.342 . S
N527 N528 1.388 . S
N528 Co511 1.993 . S
N528 N527 1.388 . S
N528 C529 1.346 . S
C529 N528 1.346 . S
C529 C530 1.396 . S
C529 C539 1.510 . S
C530 C526 1.401 . S
C530 C529 1.396 . S
C531 C526 1.499 . S
C531 H532 0.959 . S
C531 H533 0.960 . S
C531 H534 0.961 . S
H532 C531 0.959 . S
H533 C531 0.960 . S
H534 C531 0.961 . S
O535 Co510 1.967 . S
O535 C543 1.258 . S
O536 Co511 1.941 . S
O536 C543 1.266 . S
H537 C539 0.959 . S
H538 C539 0.961 . S
C539 C529 1.510 . S
C539 H537 0.959 . S
C539 H538 0.961 . S
C539 H540 0.960 . S
H540 C539 0.960 . S
H541 N521 0.862 . S
O542 Co510 1.920 . S
O542 C515 1.289 . S
C543 O535 1.258 . S
C543 O536 1.266 . S
Co544 O547 1.970 . S
Co544 N561 1.989 . S
Co544 O569 1.967 . S
Co544 O576 1.920 . S
Co545 O548 1.966 . S
Co545 N554 2.022 . S
Co545 N562 1.993 . S
Co545 O570 1.941 . S
C546 O547 1.258 . S
C546 O548 1.263 . S
O547 Co544 1.970 . S
O547 C546 1.258 . S
O548 Co545 1.966 . S
O548 C546 1.263 . S
C549 O550 1.235 . S
C549 O576 1.289 . S
O550 C549 1.235 . S
C551 C553 1.400 . S
C551 N554 1.351 . S
C551 C556 1.501 . S
C552 C553 1.387 . S
C552 N555 1.341 . S
C553 C551 1.400 . S
C553 C552 1.387 . S
N554 Co545 2.022 . S
N554 C551 1.351 . S
N554 N555 1.365 . S
N555 C552 1.341 . S
N555 N554 1.365 . S
N555 H575 0.862 . S
C556 C551 1.501 . S
C556 H557 0.961 . S
C556 H558 0.961 . S
C556 H559 0.960 . S
H557 C556 0.961 . S
H558 C556 0.961 . S
H559 C556 0.960 . S
C560 N561 1.342 . S
C560 C564 1.401 . S
C560 C565 1.499 . S
N561 Co544 1.989 . S
N561 C560 1.342 . S
N561 N562 1.388 . S
N562 Co545 1.993 . S
N562 N561 1.388 . S
N562 C563 1.346 . S
C563 N562 1.346 . S
C563 C564 1.396 . S
C563 C573 1.510 . S
C564 C560 1.401 . S
C564 C563 1.396 . S
C565 C560 1.499 . S
C565 H566 0.959 . S
C565 H567 0.960 . S
C565 H568 0.961 . S
H566 C565 0.959 . S
H567 C565 0.960 . S
H568 C565 0.961 . S
O569 Co544 1.967 . S
O569 C577 1.258 . S
O570 Co545 1.941 . S
O570 C577 1.266 . S
H571 C573 0.959 . S
H572 C573 0.961 . S
C573 C563 1.510 . S
C573 H571 0.959 . S
C573 H572 0.961 . S
C573 H574 0.960 . S
H574 C573 0.960 . S
H575 N555 0.862 . S
O576 Co544 1.920 . S
O576 C549 1.289 . S
C577 O569 1.258 . S
C577 O570 1.266 . S
Co578 O581 1.970 . S
Co578 N595 1.989 . S
Co578 O603 1.967 . S
Co578 O610 1.920 . S
Co579 O582 1.966 . S
Co579 N588 2.022 . S
Co579 N596 1.993 . S
Co579 O604 1.941 . S
C580 O581 1.258 . S
C580 O582 1.263 . S
O581 Co578 1.970 . S
O581 C580 1.258 . S
O582 Co579 1.966 . S
O582 C580 1.263 . S
C583 O584 1.235 . S
C583 O610 1.289 . S
O584 C583 1.235 . S
C585 C587 1.400 . S
C585 N588 1.351 . S
C585 C590 1.501 . S
C586 C587 1.387 . S
C586 N589 1.341 . S
C587 C585 1.400 . S
C587 C586 1.387 . S
N588 Co579 2.022 . S
N588 C585 1.351 . S
N588 N589 1.365 . S
N589 C586 1.341 . S
N589 N588 1.365 . S
N589 H609 0.862 . S
C590 C585 1.501 . S
C590 H591 0.961 . S
C590 H592 0.961 . S
C590 H593 0.960 . S
H591 C590 0.961 . S
H592 C590 0.961 . S
H593 C590 0.960 . S
C594 N595 1.342 . S
C594 C598 1.401 . S
C594 C599 1.499 . S
N595 Co578 1.989 . S
N595 C594 1.342 . S
N595 N596 1.388 . S
N596 Co579 1.993 . S
N596 N595 1.388 . S
N596 C597 1.346 . S
C597 N596 1.346 . S
C597 C598 1.396 . S
C597 C607 1.510 . S
C598 C594 1.401 . S
C598 C597 1.396 . S
C599 C594 1.499 . S
C599 H600 0.959 . S
C599 H601 0.960 . S
C599 H602 0.961 . S
H600 C599 0.959 . S
H601 C599 0.960 . S
H602 C599 0.961 . S
O603 Co578 1.967 . S
O603 C611 1.258 . S
O604 Co579 1.941 . S
O604 C611 1.266 . S
H605 C607 0.959 . S
H606 C607 0.961 . S
C607 C597 1.510 . S
C607 H605 0.959 . S
C607 H606 0.961 . S
C607 H608 0.960 . S
H608 C607 0.960 . S
H609 N589 0.862 . S
O610 Co578 1.920 . S
O610 C583 1.289 . S
C611 O603 1.258 . S
C611 O604 1.266 . S
C612 C613 1.391 . S
C612 C614 1.394 . S
C612 H628 0.931 . S
C613 C612 1.391 . S
C613 C617 1.376 . S
C614 C612 1.394 . S
C614 C615 1.369 . S
C614 C618 1.531 . S
C615 C614 1.369 . S
C615 C616 1.410 . S
C615 C623 1.503 . S
C616 C615 1.410 . S
C616 C617 1.392 . S
C616 C619 1.511 . S
C617 C613 1.376 . S
C617 C616 1.392 . S
C617 H629 0.929 . S
C618 C614 1.531 . S
C618 H630 0.960 . S
C618 H631 0.962 . S
C618 H632 0.960 . S
C619 C616 1.511 . S
C619 H633 0.961 . S
C619 H634 0.961 . S
C619 H635 0.961 . S
C620 C621 1.370 . S
C620 C622 1.363 . S
C620 H636 0.931 . S
C621 C620 1.370 . S
C621 C625 1.408 . S
C622 C620 1.363 . S
C622 C623 1.370 . S
C622 C626 1.524 . S
C623 C615 1.503 . S
C623 C622 1.370 . S
C623 C624 1.403 . S
C624 C623 1.403 . S
C624 C625 1.404 . S
C624 C627 1.539 . S
C625 C621 1.408 . S
C625 C624 1.404 . S
C625 H637 0.930 . S
C626 C622 1.524 . S
C626 H638 0.956 . S
C626 H639 0.961 . S
C626 H640 0.961 . S
C627 C624 1.539 . S
C627 H641 0.958 . S
C627 H642 0.961 . S
C627 H643 0.960 . S
H628 C612 0.931 . S
H629 C617 0.929 . S
H630 C618 0.960 . S
H631 C618 0.962 . S
H632 C618 0.960 . S
H633 C619 0.961 . S
H634 C619 0.961 . S
H635 C619 0.961 . S
H636 C620 0.931 . S
H637 C625 0.930 . S
H638 C626 0.956 . S
H639 C626 0.961 . S
H640 C626 0.961 . S
H641 C627 0.958 . S
H642 C627 0.961 . S
H643 C627 0.960 . S
C644 C645 1.391 . S
C644 C646 1.394 . S
C644 H660 0.931 . S
C645 C644 1.391 . S
C645 C649 1.376 . S
C646 C644 1.394 . S
C646 C647 1.369 . S
C646 C650 1.531 . S
C647 C646 1.369 . S
C647 C648 1.410 . S
C647 C655 1.503 1_545 S
C648 C647 1.410 . S
C648 C649 1.392 . S
C648 C651 1.511 . S
C649 C645 1.376 . S
C649 C648 1.392 . S
C649 H661 0.929 . S
C650 C646 1.531 . S
C650 H662 0.960 . S
C650 H663 0.962 . S
C650 H664 0.960 . S
C651 C648 1.511 . S
C651 H665 0.961 . S
C651 H666 0.961 1_545 S
C651 H667 0.961 . S
C652 C653 1.370 . S
C652 C654 1.363 . S
C652 H668 0.931 . S
C653 C652 1.370 . S
C653 C657 1.408 . S
C654 C652 1.363 . S
C654 C655 1.370 . S
C654 C658 1.524 . S
C655 C647 1.503 1_565 S
C655 C654 1.370 . S
C655 C656 1.403 . S
C656 C655 1.403 . S
C656 C657 1.404 . S
C656 C659 1.539 . S
C657 C653 1.408 . S
C657 C656 1.404 . S
C657 H669 0.930 . S
C658 C654 1.524 . S
C658 H670 0.956 . S
C658 H671 0.961 . S
C658 H672 0.961 . S
C659 C656 1.539 . S
C659 H673 0.958 1_565 S
C659 H674 0.961 . S
C659 H675 0.960 1_565 S
H660 C644 0.931 . S
H661 C649 0.929 . S
H662 C650 0.960 . S
H663 C650 0.962 . S
H664 C650 0.960 . S
H665 C651 0.961 . S
H666 C651 0.961 1_565 S
H667 C651 0.961 . S
H668 C652 0.931 . S
H669 C657 0.930 . S
H670 C658 0.956 . S
H671 C658 0.961 . S
H672 C658 0.961 . S
H673 C659 0.958 1_545 S
H674 C659 0.961 . S
H675 C659 0.960 1_545 S
C676 C677 1.391 . S
C676 C678 1.394 . S
C676 H692 0.931 . S
C677 C676 1.391 . S
C677 C681 1.376 . S
C678 C676 1.394 . S
C678 C679 1.369 . S
C678 C682 1.531 . S
C679 C678 1.369 . S
C679 C680 1.410 . S
C679 C687 1.503 1_655 S
C680 C679 1.410 . S
C680 C681 1.392 . S
C680 C683 1.511 . S
C681 C677 1.376 . S
C681 C680 1.392 . S
C681 H693 0.929 . S
C682 C678 1.531 . S
C682 H694 0.960 . S
C682 H695 0.962 . S
C682 H696 0.960 . S
C683 C680 1.511 . S
C683 H697 0.961 . S
C683 H698 0.961 1_655 S
C683 H699 0.931 . S
C684 C685 1.370 . S
C684 C686 1.363 . S
C684 H700 0.931 . S
C685 C684 1.370 . S
C685 C689 1.408 . S
C686 C684 1.363 . S
C686 C687 1.370 . S
C686 C690 1.524 . S
C687 C679 1.503 1_455 S
C687 C686 1.370 . S
C687 C688 1.403 . S
C688 C687 1.403 . S
C688 C689 1.404 . S
C688 C691 1.539 . S
C689 C685 1.408 . S
C689 C688 1.404 . S
C689 H701 0.930 . S
C690 C686 1.524 . S
C690 H702 0.956 . S
C690 H703 0.961 . S
C690 H704 0.961 . S
C691 C688 1.539 . S
C691 H705 0.956 . S
C691 H706 0.961 . S
C691 H707 0.960 1_455 S
H692 C676 0.931 . S
H693 C681 0.929 . S
H694 C682 0.960 . S
H695 C682 0.962 . S
H696 C682 0.960 . S
H697 C683 0.961 . S
H698 C683 0.961 1_455 S
H699 C683 0.931 . S
H700 C684 0.931 . S
H701 C689 0.930 . S
H702 C690 0.956 . S
H703 C690 0.961 . S
H704 C690 0.961 . S
H705 C691 0.956 . S
H706 C691 0.961 . S
H707 C691 0.960 1_655 S
C708 C709 1.391 . S
C708 C710 1.394 . S
C708 H724 0.931 . S
C709 C708 1.391 . S
C709 C713 1.376 . S
C710 C708 1.394 . S
C710 C711 1.369 . S
C710 C714 1.531 . S
C711 C710 1.369 . S
C711 C712 1.410 . S
C711 C719 1.503 . S
C712 C711 1.410 . S
C712 C713 1.392 . S
C712 C715 1.511 . S
C713 C709 1.376 . S
C713 C712 1.392 . S
C713 H725 0.929 . S
C714 C710 1.531 . S
C714 H726 0.960 . S
C714 H727 0.962 . S
C714 H728 0.960 . S
C715 C712 1.511 . S
C715 H729 0.961 . S
C715 H730 0.961 . S
C715 H731 0.961 . S
C716 C717 1.370 . S
C716 C718 1.363 . S
C716 H732 0.931 . S
C717 C716 1.370 . S
C717 C721 1.408 . S
C718 C716 1.363 . S
C718 C719 1.370 . S
C718 C722 1.524 . S
C719 C711 1.503 . S
C719 C718 1.370 . S
C719 C720 1.403 . S
C720 C719 1.403 . S
C720 C721 1.404 . S
C720 C723 1.539 . S
C721 C717 1.408 . S
C721 C720 1.404 . S
C721 H733 0.930 . S
C722 C718 1.524 . S
C722 H734 0.956 . S
C722 H735 0.961 . S
C722 H736 0.961 . S
C723 C720 1.539 . S
C723 H737 0.958 . S
C723 H738 0.961 . S
C723 H739 0.960 . S
H724 C708 0.931 . S
H725 C713 0.929 . S
H726 C714 0.960 . S
H727 C714 0.962 . S
H728 C714 0.960 . S
H729 C715 0.961 . S
H730 C715 0.961 . S
H731 C715 0.961 . S
H732 C716 0.931 . S
H733 C721 0.930 . S
H734 C722 0.956 . S
H735 C722 0.961 . S
H736 C722 0.961 . S
H737 C723 0.958 . S
H738 C723 0.961 . S
H739 C723 0.960 . S
C740 C741 1.391 . S
C740 C742 1.394 . S
C740 H756 0.931 . S
C741 C740 1.391 . S
C741 C745 1.376 . S
C742 C740 1.394 . S
C742 C743 1.369 . S
C742 C746 1.531 . S
C743 C742 1.369 . S
C743 C744 1.410 . S
C743 C751 1.503 1_545 S
C744 C743 1.410 . S
C744 C745 1.392 . S
C744 C747 1.511 . S
C745 C741 1.376 . S
C745 C744 1.392 . S
C745 H757 0.929 . S
C746 C742 1.531 . S
C746 H758 0.960 . S
C746 H759 0.962 . S
C746 H760 0.960 . S
C747 C744 1.511 . S
C747 H761 0.961 . S
C747 H762 0.961 1_545 S
C747 H763 0.961 . S
C748 C749 1.370 . S
C748 C750 1.363 . S
C748 H764 0.931 . S
C749 C748 1.370 . S
C749 C753 1.408 . S
C750 C748 1.363 . S
C750 C751 1.370 . S
C750 C754 1.524 . S
C751 C743 1.503 1_565 S
C751 C750 1.370 . S
C751 C752 1.403 . S
C752 C751 1.403 . S
C752 C753 1.404 . S
C752 C755 1.539 . S
C753 C749 1.408 . S
C753 C752 1.404 . S
C753 H765 0.930 . S
C754 C750 1.524 . S
C754 H766 0.956 . S
C754 H767 0.961 . S
C754 H768 0.961 . S
C755 C752 1.539 . S
C755 H769 0.958 1_565 S
C755 H770 0.961 . S
C755 H771 0.960 1_565 S
H756 C740 0.931 . S
H757 C745 0.929 . S
H758 C746 0.960 . S
H759 C746 0.962 . S
H760 C746 0.960 . S
H761 C747 0.961 . S
H762 C747 0.961 1_565 S
H763 C747 0.961 . S
H764 C748 0.931 . S
H765 C753 0.930 . S
H766 C754 0.956 . S
H767 C754 0.961 . S
H768 C754 0.961 . S
H769 C755 0.958 1_545 S
H770 C755 0.961 . S
H771 C755 0.960 1_545 S
C772 C773 1.391 . S
C772 C774 1.394 . S
C772 H788 0.931 . S
C773 C772 1.391 . S
C773 C777 1.376 . S
C774 C772 1.394 . S
C774 C775 1.369 . S
C774 C778 1.505 1_655 S
C775 C774 1.369 . S
C775 C776 1.410 . S
C775 C783 1.503 1_655 S
C776 C775 1.410 . S
C776 C777 1.392 . S
C776 C779 1.511 . S
C777 C773 1.376 . S
C777 C776 1.392 . S
C777 H789 0.929 . S
C778 C774 1.505 1_455 S
C778 H790 0.992 . S
C778 H791 0.958 . S
C778 H792 0.960 1_455 S
C779 C776 1.511 . S
C779 H793 0.961 . S
C779 H794 0.961 . S
C779 H795 0.961 . S
C780 C781 1.370 . S
C780 C782 1.363 . S
C780 H796 0.931 . S
C781 C780 1.370 . S
C781 C785 1.408 . S
C782 C780 1.363 . S
C782 C783 1.370 . S
C782 C786 1.524 . S
C783 C775 1.503 1_455 S
C783 C782 1.370 . S
C783 C784 1.403 . S
C784 C783 1.403 . S
C784 C785 1.404 . S
C784 C787 1.539 . S
C785 C781 1.408 . S
C785 C784 1.404 . S
C785 H797 0.930 . S
C786 C782 1.524 . S
C786 H798 0.956 . S
C786 H799 0.961 1_455 S
C786 H800 0.961 . S
C787 C784 1.539 . S
C787 H801 0.958 . S
C787 H802 0.961 . S
C787 H803 0.960 1_455 S
H788 C772 0.931 . S
H789 C777 0.929 . S
H790 C778 0.992 . S
H791 C778 0.958 . S
H792 C778 0.960 1_655 S
H793 C779 0.961 . S
H794 C779 0.961 . S
H795 C779 0.961 . S
H796 C780 0.931 . S
H797 C785 0.930 . S
H798 C786 0.956 . S
H799 C786 0.961 1_655 S
H800 C786 0.961 . S
H801 C787 0.958 . S
H802 C787 0.961 . S
H803 C787 0.960 1_655 S
C804 C805 1.391 . S
C804 C806 1.394 . S
C804 H820 0.931 . S
C805 C804 1.391 . S
C805 C809 1.376 . S
C806 C804 1.394 . S
C806 C807 1.369 . S
C806 C810 1.531 . S
C807 C806 1.369 . S
C807 C808 1.410 . S
C807 C815 1.503 . S
C808 C807 1.410 . S
C808 C809 1.392 . S
C808 C811 1.511 . S
C809 C805 1.376 . S
C809 C808 1.392 . S
C809 H821 0.929 . S
C810 C806 1.531 . S
C810 H822 0.960 . S
C810 H823 0.962 . S
C810 H824 0.960 1_556 S
C811 C808 1.511 . S
C811 H825 0.961 . S
C811 H826 0.961 . S
C811 H827 0.961 . S
C812 C813 1.370 . S
C812 C814 1.363 . S
C812 H828 0.931 . S
C813 C812 1.370 . S
C813 C817 1.408 . S
C814 C812 1.363 . S
C814 C815 1.370 . S
C814 C818 1.524 . S
C815 C807 1.503 . S
C815 C814 1.370 . S
C815 C816 1.403 . S
C816 C815 1.403 . S
C816 C817 1.404 . S
C816 C819 1.539 . S
C817 C813 1.408 . S
C817 C816 1.404 . S
C817 H829 0.930 . S
C818 C814 1.524 . S
C818 H830 0.956 . S
C818 H831 0.961 . S
C818 H832 0.961 . S
C819 C816 1.539 . S
C819 H833 0.958 . S
C819 H834 0.961 . S
C819 H835 0.960 . S
H820 C804 0.931 . S
H821 C809 0.929 . S
H822 C810 0.960 . S
H823 C810 0.962 . S
H824 C810 0.960 1_554 S
H825 C811 0.961 . S
H826 C811 0.961 . S
H827 C811 0.961 . S
H828 C812 0.931 . S
H829 C817 0.930 . S
H830 C818 0.956 . S
H831 C818 0.961 . S
H832 C818 0.961 . S
H833 C819 0.958 . S
H834 C819 0.961 . S
H835 C819 0.960 . S
C836 C837 1.391 . S
C836 C838 1.394 . S
C836 H852 0.931 . S
C837 C836 1.391 . S
C837 C841 1.376 . S
C838 C836 1.394 . S
C838 C839 1.369 . S
C838 C842 1.531 . S
C839 C838 1.369 . S
C839 C840 1.410 . S
C839 C847 1.503 . S
C840 C839 1.410 . S
C840 C841 1.392 . S
C840 C843 1.511 . S
C841 C837 1.376 . S
C841 C840 1.392 . S
C841 H853 0.929 . S
C842 C838 1.531 . S
C842 H854 0.960 . S
C842 H855 0.962 . S
C842 H856 0.960 . S
C843 C840 1.511 . S
C843 H857 0.961 . S
C843 H858 0.961 . S
C843 H859 0.961 . S
C844 C845 1.370 . S
C844 C846 1.363 . S
C844 H860 0.931 . S
C845 C844 1.370 . S
C845 C849 1.408 . S
C846 C844 1.363 . S
C846 C847 1.370 . S
C846 C850 1.524 . S
C847 C839 1.503 . S
C847 C846 1.370 . S
C847 C848 1.403 . S
C848 C847 1.403 . S
C848 C849 1.404 . S
C848 C851 1.539 . S
C849 C845 1.408 . S
C849 C848 1.404 . S
C849 H861 0.930 . S
C850 C846 1.524 . S
C850 H862 0.956 . S
C850 H863 0.961 . S
C850 H864 0.961 . S
C851 C848 1.539 . S
C851 H865 0.958 . S
C851 H866 0.961 . S
C851 H867 0.960 . S
H852 C836 0.931 . S
H853 C841 0.929 . S
H854 C842 0.960 . S
H855 C842 0.962 . S
H856 C842 0.960 . S
H857 C843 0.961 . S
H858 C843 0.961 . S
H859 C843 0.961 . S
H860 C844 0.931 . S
H861 C849 0.930 . S
H862 C850 0.956 . S
H863 C850 0.961 . S
H864 C850 0.961 . S
H865 C851 0.958 . S
H866 C851 0.961 . S
H867 C851 0.960 . S
C868 C869 1.391 . S
C868 C870 1.394 . S
C868 H884 0.931 . S
C869 C868 1.391 . S
C869 C873 1.376 . S
C870 C868 1.394 . S
C870 C871 1.369 . S
C870 C874 1.531 . S
C871 C870 1.369 . S
C871 C872 1.410 . S
C871 C879 1.503 . S
C872 C871 1.410 . S
C872 C873 1.392 . S
C872 C875 1.511 . S
C873 C869 1.376 . S
C873 C872 1.392 . S
C873 H885 0.929 . S
C874 C870 1.531 . S
C874 H886 0.960 . S
C874 H887 0.962 . S
C874 H888 0.960 . S
C875 C872 1.511 . S
C875 H889 0.961 . S
C875 H890 0.961 . S
C875 H891 0.961 . S
C876 C877 1.370 . S
C876 C878 1.363 . S
C876 H892 0.931 . S
C877 C876 1.370 . S
C877 C881 1.408 . S
C878 C876 1.363 . S
C878 C879 1.370 . S
C878 C882 1.524 . S
C879 C871 1.503 . S
C879 C878 1.370 . S
C879 C880 1.403 . S
C880 C879 1.403 . S
C880 C881 1.404 . S
C880 C883 1.539 . S
C881 C877 1.408 . S
C881 C880 1.404 . S
C881 H893 0.930 . S
C882 C878 1.524 . S
C882 H894 0.956 . S
C882 H895 0.961 . S
C882 H896 0.961 . S
C883 C880 1.539 . S
C883 H897 0.958 . S
C883 H898 0.961 . S
C883 H899 0.960 . S
H884 C868 0.931 . S
H885 C873 0.929 . S
H886 C874 0.960 . S
H887 C874 0.962 . S
H888 C874 0.960 . S
H889 C875 0.961 . S
H890 C875 0.961 . S
H891 C875 0.961 . S
H892 C876 0.931 . S
H893 C881 0.930 . S
H894 C882 0.956 . S
H895 C882 0.961 . S
H896 C882 0.961 . S
H897 C883 0.958 . S
H898 C883 0.961 . S
H899 C883 0.960 . S
C900 C901 1.391 . S
C900 C902 1.394 . S
C900 H916 0.931 . S
C901 C900 1.391 . S
C901 C905 1.376 . S
C902 C900 1.394 . S
C902 C903 1.369 . S
C902 C906 1.531 . S
C903 C902 1.369 . S
C903 C904 1.410 . S
C903 C911 1.503 . S
C904 C903 1.410 . S
C904 C905 1.392 . S
C904 C907 1.511 . S
C905 C901 1.376 . S
C905 C904 1.392 . S
C905 H917 0.929 . S
C906 C902 1.531 . S
C906 H918 0.960 . S
C906 H919 0.962 . S
C906 H920 0.960 . S
C907 C904 1.511 . S
C907 H921 0.961 . S
C907 H922 0.961 . S
C907 H923 0.961 . S
C908 C909 1.370 . S
C908 C910 1.363 . S
C908 H924 0.931 . S
C909 C908 1.370 . S
C909 C913 1.408 . S
C910 C908 1.363 . S
C910 C911 1.370 . S
C910 C914 1.524 . S
C911 C903 1.503 . S
C911 C910 1.370 . S
C911 C912 1.403 . S
C912 C911 1.403 . S
C912 C913 1.404 . S
C912 C915 1.539 . S
C913 C909 1.408 . S
C913 C912 1.404 . S
C913 H925 0.930 . S
C914 C910 1.524 . S
C914 H926 0.956 . S
C914 H927 0.961 . S
C914 H928 0.961 . S
C915 C912 1.539 . S
C915 H929 0.958 . S
C915 H930 0.961 . S
C915 H931 0.960 . S
H916 C900 0.931 . S
H917 C905 0.929 . S
H918 C906 0.960 . S
H919 C906 0.962 . S
H920 C906 0.960 . S
H921 C907 0.961 . S
H922 C907 0.961 . S
H923 C907 0.961 . S
H924 C908 0.931 . S
H925 C913 0.930 . S
H926 C914 0.956 . S
H927 C914 0.961 . S
H928 C914 0.961 . S
H929 C915 0.958 . S
H930 C915 0.961 . S
H931 C915 0.960 . S
C932 C933 1.391 . S
C932 C934 1.394 . S
C932 H948 0.931 . S
C933 C932 1.391 . S
C933 C937 1.376 . S
C934 C932 1.394 . S
C934 C935 1.369 . S
C934 C938 1.531 . S
C935 C934 1.369 . S
C935 C936 1.410 . S
C935 C943 1.503 . S
C936 C935 1.410 . S
C936 C937 1.392 . S
C936 C939 1.511 . S
C937 C933 1.376 . S
C937 C936 1.392 . S
C937 H949 0.929 . S
C938 C934 1.531 . S
C938 H950 0.960 . S
C938 H951 0.962 . S
C938 H952 0.960 . S
C939 C936 1.511 . S
C939 H953 0.961 . S
C939 H954 0.961 . S
C939 H955 0.961 . S
C940 C941 1.370 . S
C940 C942 1.363 . S
C940 H956 0.931 . S
C941 C940 1.370 . S
C941 C945 1.408 . S
C942 C940 1.363 . S
C942 C943 1.370 . S
C942 C946 1.524 . S
C943 C935 1.503 . S
C943 C942 1.370 . S
C943 C944 1.403 . S
C944 C943 1.403 . S
C944 C945 1.404 . S
C944 C947 1.539 . S
C945 C941 1.408 . S
C945 C944 1.404 . S
C945 H957 0.930 . S
C946 C942 1.524 . S
C946 H958 0.956 . S
C946 H959 0.961 . S
C946 H960 0.961 . S
C947 C944 1.539 . S
C947 H961 0.958 . S
C947 H962 0.961 . S
C947 H963 0.960 . S
H948 C932 0.931 . S
H949 C937 0.929 . S
H950 C938 0.960 . S
H951 C938 0.962 . S
H952 C938 0.960 . S
H953 C939 0.961 . S
H954 C939 0.961 . S
H955 C939 0.961 . S
H956 C940 0.931 . S
H957 C945 0.930 . S
H958 C946 0.956 . S
H959 C946 0.961 . S
H960 C946 0.961 . S
H961 C947 0.958 . S
H962 C947 0.961 . S
H963 C947 0.960 . S
C964 C965 1.391 . S
C964 C966 1.394 . S
C964 H980 0.931 . S
C965 C964 1.391 . S
C965 C969 1.376 . S
C966 C964 1.394 . S
C966 C967 1.369 . S
C966 C970 1.531 . S
C967 C966 1.369 . S
C967 C968 1.410 . S
C967 C975 1.503 . S
C968 C967 1.410 . S
C968 C969 1.392 . S
C968 C971 1.511 . S
C969 C965 1.376 . S
C969 C968 1.392 . S
C969 H981 0.929 . S
C970 C966 1.531 . S
C970 H982 0.960 . S
C970 H983 0.962 . S
C970 H984 0.960 . S
C971 C968 1.511 . S
C971 H985 0.961 . S
C971 H986 0.961 . S
C971 H987 0.961 . S
C972 C973 1.370 . S
C972 C974 1.363 . S
C972 H988 0.931 . S
C973 C972 1.370 . S
C973 C977 1.408 . S
C974 C972 1.363 . S
C974 C975 1.370 . S
C974 C978 1.524 . S
C975 C967 1.503 . S
C975 C974 1.370 . S
C975 C976 1.403 . S
C976 C975 1.403 . S
C976 C977 1.404 . S
C976 C979 1.539 . S
C977 C973 1.408 . S
C977 C976 1.404 . S
C977 H989 0.930 . S
C978 C974 1.524 . S
C978 H990 0.956 . S
C978 H991 0.961 . S
C978 H992 0.961 . S
C979 C976 1.539 . S
C979 H993 0.958 . S
C979 H994 0.961 . S
C979 H995 0.960 . S
H980 C964 0.931 . S
H981 C969 0.929 . S
H982 C970 0.960 . S
H983 C970 0.962 . S
H984 C970 0.960 . S
H985 C971 0.961 . S
H986 C971 0.961 . S
H987 C971 0.961 . S
H988 C972 0.931 . S
H989 C977 0.930 . S
H990 C978 0.956 . S
H991 C978 0.961 . S
H992 C978 0.961 . S
H993 C979 0.958 . S
H994 C979 0.961 . S
H995 C979 0.960 . S
C996 C997 1.391 . S
C996 C998 1.394 . S
C996 H1012 0.931 . S
C997 C996 1.391 . S
C997 C1001 1.376 . S
C998 C996 1.394 . S
C998 C999 1.369 . S
C998 C1002 1.531 . S
C999 C998 1.369 . S
C999 C1000 1.410 . S
C999 C1007 1.503 . S
C1000 C999 1.410 . S
C1000 C1001 1.392 . S
C1000 C1003 1.511 . S
C1001 C997 1.376 . S
C1001 C1000 1.392 . S
C1001 H1013 0.929 . S
C1002 C998 1.531 . S
C1002 H1014 0.960 . S
C1002 H1015 0.962 . S
C1002 H1016 0.960 . S
C1003 C1000 1.511 . S
C1003 H1017 0.961 . S
C1003 H1018 0.961 . S
C1003 H1019 0.961 . S
C1004 C1005 1.370 . S
C1004 C1006 1.363 . S
C1004 H1020 0.931 . S
C1005 C1004 1.370 . S
C1005 C1009 1.408 . S
C1006 C1004 1.363 . S
C1006 C1007 1.370 . S
C1006 C1010 1.524 . S
C1007 C999 1.503 . S
C1007 C1006 1.370 . S
C1007 C1008 1.403 . S
C1008 C1007 1.403 . S
C1008 C1009 1.404 . S
C1008 C1011 1.539 . S
C1009 C1005 1.408 . S
C1009 C1008 1.404 . S
C1009 H1021 0.930 . S
C1010 C1006 1.524 . S
C1010 H1022 0.956 . S
C1010 H1023 0.961 . S
C1010 H1024 0.961 . S
C1011 C1008 1.539 . S
C1011 H1025 0.958 . S
C1011 H1026 0.961 . S
C1011 H1027 0.960 . S
H1012 C996 0.931 . S
H1013 C1001 0.929 . S
H1014 C1002 0.960 . S
H1015 C1002 0.962 . S
H1016 C1002 0.960 . S
H1017 C1003 0.961 . S
H1018 C1003 0.961 . S
H1019 C1003 0.961 . S
H1020 C1004 0.931 . S
H1021 C1009 0.930 . S
H1022 C1010 0.956 . S
H1023 C1010 0.961 . S
H1024 C1010 0.961 . S
H1025 C1011 0.958 . S
H1026 C1011 0.961 . S
H1027 C1011 0.960 . S
C1028 C1029 1.391 . S
C1028 C1030 1.394 . S
C1028 H1044 0.931 . S
C1029 C1028 1.391 . S
C1029 C1033 1.376 . S
C1030 C1028 1.394 . S
C1030 C1031 1.369 . S
C1030 C1034 1.531 . S
C1031 C1030 1.369 . S
C1031 C1032 1.410 . S
C1031 C1039 1.503 . S
C1032 C1031 1.410 . S
C1032 C1033 1.392 . S
C1032 C1035 1.511 . S
C1033 C1029 1.376 . S
C1033 C1032 1.392 . S
C1033 H1045 0.929 . S
C1034 C1030 1.531 . S
C1034 H1046 0.960 . S
C1034 H1047 0.962 . S
C1034 H1048 0.960 . S
C1035 C1032 1.511 . S
C1035 H1049 0.961 . S
C1035 H1050 0.961 . S
C1035 H1051 0.961 . S
C1036 C1037 1.370 . S
C1036 C1038 1.363 . S
C1036 H1052 0.931 . S
C1037 C1036 1.370 . S
C1037 C1041 1.408 . S
C1038 C1036 1.363 . S
C1038 C1039 1.370 . S
C1038 C1042 1.524 . S
C1039 C1031 1.503 . S
C1039 C1038 1.370 . S
C1039 C1040 1.403 . S
C1040 C1039 1.403 . S
C1040 C1041 1.404 . S
C1040 C1043 1.539 . S
C1041 C1037 1.408 . S
C1041 C1040 1.404 . S
C1041 H1053 0.930 . S
C1042 C1038 1.524 . S
C1042 H1054 0.956 . S
C1042 H1055 0.961 . S
C1042 H1056 0.961 . S
C1043 C1040 1.539 . S
C1043 H1057 0.958 1_554 S
C1043 H1058 0.955 1_554 S
C1043 H1059 0.960 . S
H1044 C1028 0.931 . S
H1045 C1033 0.929 . S
H1046 C1034 0.960 . S
H1047 C1034 0.962 . S
H1048 C1034 0.960 . S
H1049 C1035 0.961 . S
H1050 C1035 0.961 . S
H1051 C1035 0.961 . S
H1052 C1036 0.931 . S
H1053 C1041 0.930 . S
H1054 C1042 0.956 . S
H1055 C1042 0.961 . S
H1056 C1042 0.961 . S
H1057 C1043 0.958 1_556 S
H1058 C1043 0.955 1_556 S
H1059 C1043 0.960 . S
C1060 C1061 1.391 . S
C1060 C1062 1.394 . S
C1060 H1076 0.931 . S
C1061 C1060 1.391 . S
C1061 C1065 1.376 . S
C1062 C1060 1.394 . S
C1062 C1063 1.369 . S
C1062 C1066 1.531 . S
C1063 C1062 1.369 . S
C1063 C1064 1.410 . S
C1063 C1071 1.503 . S
C1064 C1063 1.410 . S
C1064 C1065 1.392 . S
C1064 C1067 1.511 . S
C1065 C1061 1.376 . S
C1065 C1064 1.392 . S
C1065 H1077 0.929 . S
C1066 C1062 1.531 . S
C1066 H1078 0.960 . S
C1066 H1079 0.962 . S
C1066 H1080 0.960 . S
C1067 C1064 1.511 . S
C1067 H1081 0.961 1_554 S
C1067 H1082 0.961 . S
C1067 H1083 0.961 . S
C1068 C1069 1.370 . S
C1068 C1070 1.363 . S
C1068 H1084 0.931 . S
C1069 C1068 1.370 . S
C1069 C1073 1.408 . S
C1070 C1068 1.363 . S
C1070 C1071 1.370 . S
C1070 C1074 1.524 . S
C1071 C1063 1.503 . S
C1071 C1070 1.370 . S
C1071 C1072 1.403 . S
C1072 C1071 1.403 . S
C1072 C1073 1.404 . S
C1072 C1075 1.539 . S
C1073 C1069 1.408 . S
C1073 C1072 1.404 . S
C1073 H1085 0.930 . S
C1074 C1070 1.524 . S
C1074 H1086 0.956 . S
C1074 H1087 0.961 . S
C1074 H1088 0.961 . S
C1075 C1072 1.539 . S
C1075 H1089 0.958 . S
C1075 H1090 0.961 . S
C1075 H1091 0.960 . S
H1076 C1060 0.931 . S
H1077 C1065 0.929 . S
H1078 C1066 0.960 . S
H1079 C1066 0.962 . S
H1080 C1066 0.960 . S
H1081 C1067 0.961 1_556 S
H1082 C1067 0.961 . S
H1083 C1067 0.961 . S
H1084 C1068 0.931 . S
H1085 C1073 0.930 . S
H1086 C1074 0.956 . S
H1087 C1074 0.961 . S
H1088 C1074 0.961 . S
H1089 C1075 0.958 . S
H1090 C1075 0.961 . S
H1091 C1075 0.960 . S
C1092 C1093 1.391 . S
C1092 C1094 1.394 . S
C1092 H1108 0.931 . S
C1093 C1092 1.391 . S
C1093 C1097 1.376 . S
C1094 C1092 1.394 . S
C1094 C1095 1.369 . S
C1094 C1098 1.531 . S
C1095 C1094 1.369 . S
C1095 C1096 1.410 . S
C1095 C1103 1.503 . S
C1096 C1095 1.410 . S
C1096 C1097 1.392 . S
C1096 C1099 1.511 . S
C1097 C1093 1.376 . S
C1097 C1096 1.392 . S
C1097 H1109 0.929 . S
C1098 C1094 1.531 . S
C1098 H1110 0.960 . S
C1098 H1111 0.962 . S
C1098 H1112 0.960 . S
C1099 C1096 1.511 . S
C1099 H1113 0.961 . S
C1099 H1114 0.961 . S
C1099 H1115 0.961 . S
C1100 C1101 1.370 . S
C1100 C1102 1.363 . S
C1100 H1116 0.931 . S
C1101 C1100 1.370 . S
C1101 C1105 1.408 . S
C1102 C1100 1.363 . S
C1102 C1103 1.370 . S
C1102 C1106 1.524 . S
C1103 C1095 1.503 . S
C1103 C1102 1.370 . S
C1103 C1104 1.403 . S
C1104 C1103 1.403 . S
C1104 C1105 1.404 . S
C1104 C1107 1.539 . S
C1105 C1101 1.408 . S
C1105 C1104 1.404 . S
C1105 H1117 0.930 . S
C1106 C1102 1.524 . S
C1106 H1118 0.956 . S
C1106 H1119 0.961 . S
C1106 H1120 0.961 . S
C1107 C1104 1.539 . S
C1107 H1121 0.958 . S
C1107 H1122 0.961 . S
C1107 H1123 0.960 . S
H1108 C1092 0.931 . S
H1109 C1097 0.929 . S
H1110 C1098 0.960 . S
H1111 C1098 0.962 . S
H1112 C1098 0.960 . S
H1113 C1099 0.961 . S
H1114 C1099 0.961 . S
H1115 C1099 0.961 . S
H1116 C1100 0.931 . S
H1117 C1105 0.930 . S
H1118 C1106 0.956 . S
H1119 C1106 0.961 . S
H1120 C1106 0.961 . S
H1121 C1107 0.958 . S
H1122 C1107 0.961 . S
H1123 C1107 0.960 . S
C1124 C1125 1.391 . S
C1124 C1126 1.394 . S
C1124 H1140 0.931 . S
C1125 C1124 1.391 . S
C1125 C1129 1.376 . S
C1126 C1124 1.394 . S
C1126 C1127 1.369 . S
C1126 C1130 1.531 . S
C1127 C1126 1.369 . S
C1127 C1128 1.410 . S
C1127 C1135 1.503 . S
C1128 C1127 1.410 . S
C1128 C1129 1.392 . S
C1128 C1131 1.511 . S
C1129 C1125 1.376 . S
C1129 C1128 1.392 . S
C1129 H1141 0.929 . S
C1130 C1126 1.531 . S
C1130 H1142 0.960 . S
C1130 H1143 0.962 . S
C1130 H1144 0.960 . S
C1131 C1128 1.511 . S
C1131 H1145 0.961 . S
C1131 H1146 0.961 . S
C1131 H1147 0.961 . S
C1132 C1133 1.370 . S
C1132 C1134 1.363 . S
C1132 H1148 0.931 . S
C1133 C1132 1.370 . S
C1133 C1137 1.408 . S
C1134 C1132 1.363 . S
C1134 C1135 1.370 . S
C1134 C1138 1.524 . S
C1135 C1127 1.503 . S
C1135 C1134 1.370 . S
C1135 C1136 1.403 . S
C1136 C1135 1.403 . S
C1136 C1137 1.404 . S
C1136 C1139 1.539 . S
C1137 C1133 1.408 . S
C1137 C1136 1.404 . S
C1137 H1149 0.930 . S
C1138 C1134 1.524 . S
C1138 H1150 0.956 . S
C1138 H1151 0.961 . S
C1138 H1152 0.961 . S
C1139 C1136 1.539 . S
C1139 H1153 0.967 . S
C1139 H1154 0.961 . S
C1139 H1155 0.960 . S
H1140 C1124 0.931 . S
H1141 C1129 0.929 . S
H1142 C1130 0.960 . S
H1143 C1130 0.962 . S
H1144 C1130 0.960 . S
H1145 C1131 0.961 . S
H1146 C1131 0.961 . S
H1147 C1131 0.961 . S
H1148 C1132 0.931 . S
H1149 C1137 0.930 . S
H1150 C1138 0.956 . S
H1151 C1138 0.961 . S
H1152 C1138 0.961 . S
H1153 C1139 0.967 . S
H1154 C1139 0.961 . S
H1155 C1139 0.960 . S
C1156 C1157 1.391 . S
C1156 C1158 1.394 . S
C1156 H1172 0.931 . S
C1157 C1156 1.391 . S
C1157 C1161 1.376 . S
C1158 C1156 1.394 . S
C1158 C1159 1.369 . S
C1158 C1162 1.531 . S
C1159 C1158 1.369 . S
C1159 C1160 1.410 . S
C1159 C1167 1.503 . S
C1160 C1159 1.410 . S
C1160 C1161 1.392 . S
C1160 C1163 1.511 . S
C1161 C1157 1.376 . S
C1161 C1160 1.392 . S
C1161 H1173 0.929 . S
C1162 C1158 1.531 . S
C1162 H1174 0.960 . S
C1162 H1175 0.962 . S
C1162 H1176 0.960 . S
C1163 C1160 1.511 . S
C1163 H1177 0.961 . S
C1163 H1178 0.961 . S
C1163 H1179 0.961 . S
C1164 C1165 1.370 . S
C1164 C1166 1.363 . S
C1164 H1180 0.931 . S
C1165 C1164 1.370 . S
C1165 C1169 1.408 . S
C1166 C1164 1.363 . S
C1166 C1167 1.370 . S
C1166 C1170 1.524 . S
C1167 C1159 1.503 . S
C1167 C1166 1.370 . S
C1167 C1168 1.403 . S
C1168 C1167 1.403 . S
C1168 C1169 1.404 . S
C1168 C1171 1.539 . S
C1169 C1165 1.408 . S
C1169 C1168 1.404 . S
C1169 H1181 0.930 . S
C1170 C1166 1.524 . S
C1170 H1182 0.956 . S
C1170 H1183 0.961 . S
C1170 H1184 0.961 . S
C1171 C1168 1.539 . S
C1171 H1185 0.958 . S
C1171 H1186 0.961 . S
C1171 H1187 0.960 . S
H1172 C1156 0.931 . S
H1173 C1161 0.929 . S
H1174 C1162 0.960 . S
H1175 C1162 0.962 . S
H1176 C1162 0.960 . S
H1177 C1163 0.961 . S
H1178 C1163 0.961 . S
H1179 C1163 0.961 . S
H1180 C1164 0.931 . S
H1181 C1169 0.930 . S
H1182 C1170 0.956 . S
H1183 C1170 0.961 . S
H1184 C1170 0.961 . S
H1185 C1171 0.958 . S
H1186 C1171 0.961 . S
H1187 C1171 0.960 . S
C1188 C1189 1.391 . S
C1188 C1190 1.394 . S
C1188 H1204 0.931 . S
C1189 C1188 1.391 . S
C1189 C1193 1.376 . S
C1190 C1188 1.394 . S
C1190 C1191 1.369 . S
C1190 C1194 1.531 . S
C1191 C1190 1.369 . S
C1191 C1192 1.410 . S
C1191 C1199 1.503 . S
C1192 C1191 1.410 . S
C1192 C1193 1.392 . S
C1192 C1195 1.511 . S
C1193 C1189 1.376 . S
C1193 C1192 1.392 . S
C1193 H1205 0.929 . S
C1194 C1190 1.531 . S
C1194 H1206 0.960 . S
C1194 H1207 0.962 . S
C1194 H1208 0.960 . S
C1195 C1192 1.511 . S
C1195 H1209 0.961 . S
C1195 H1210 0.961 . S
C1195 H1211 0.961 . S
C1196 C1197 1.370 . S
C1196 C1198 1.363 . S
C1196 H1212 0.931 . S
C1197 C1196 1.370 . S
C1197 C1201 1.408 . S
C1198 C1196 1.363 . S
C1198 C1199 1.370 . S
C1198 C1202 1.524 . S
C1199 C1191 1.503 . S
C1199 C1198 1.370 . S
C1199 C1200 1.403 . S
C1200 C1199 1.403 . S
C1200 C1201 1.404 . S
C1200 C1203 1.539 . S
C1201 C1197 1.408 . S
C1201 C1200 1.404 . S
C1201 H1213 0.930 . S
C1202 C1198 1.524 . S
C1202 H1214 0.956 . S
C1202 H1215 0.961 . S
C1202 H1216 0.961 . S
C1203 C1200 1.539 . S
C1203 H1217 0.958 . S
C1203 H1218 0.961 . S
C1203 H1219 0.960 . S
H1204 C1188 0.931 . S
H1205 C1193 0.929 . S
H1206 C1194 0.960 . S
H1207 C1194 0.962 . S
H1208 C1194 0.960 . S
H1209 C1195 0.961 . S
H1210 C1195 0.961 . S
H1211 C1195 0.961 . S
H1212 C1196 0.931 . S
H1213 C1201 0.930 . S
H1214 C1202 0.956 . S
H1215 C1202 0.961 . S
H1216 C1202 0.961 . S
H1217 C1203 0.958 . S
H1218 C1203 0.961 . S
H1219 C1203 0.960 . S
C1220 C1221 1.391 . S
C1220 C1222 1.394 . S
C1220 H1236 0.931 . S
C1221 C1220 1.391 . S
C1221 C1225 1.376 . S
C1222 C1220 1.394 . S
C1222 C1223 1.369 . S
C1222 C1226 1.531 . S
C1223 C1222 1.369 . S
C1223 C1224 1.410 . S
C1223 C1231 1.503 . S
C1224 C1223 1.410 . S
C1224 C1225 1.392 . S
C1224 C1227 1.511 . S
C1225 C1221 1.376 . S
C1225 C1224 1.392 . S
C1225 H1237 0.929 . S
C1226 C1222 1.531 . S
C1226 H1238 0.960 . S
C1226 H1239 0.962 . S
C1226 H1240 0.960 . S
C1227 C1224 1.511 . S
C1227 H1241 0.961 . S
C1227 H1242 0.961 . S
C1227 H1243 0.961 . S
C1228 C1229 1.370 . S
C1228 C1230 1.363 . S
C1228 H1244 0.931 . S
C1229 C1228 1.370 . S
C1229 C1233 1.408 . S
C1230 C1228 1.363 . S
C1230 C1231 1.370 . S
C1230 C1234 1.524 . S
C1231 C1223 1.503 . S
C1231 C1230 1.370 . S
C1231 C1232 1.403 . S
C1232 C1231 1.403 . S
C1232 C1233 1.404 . S
C1232 C1235 1.539 . S
C1233 C1229 1.408 . S
C1233 C1232 1.404 . S
C1233 H1245 0.930 . S
C1234 C1230 1.524 . S
C1234 H1246 0.956 . S
C1234 H1247 0.961 . S
C1234 H1248 0.961 . S
C1235 C1232 1.539 . S
C1235 H1249 0.958 . S
C1235 H1250 0.961 . S
C1235 H1251 0.960 . S
H1236 C1220 0.931 . S
H1237 C1225 0.929 . S
H1238 C1226 0.960 . S
H1239 C1226 0.962 . S
H1240 C1226 0.960 . S
H1241 C1227 0.961 . S
H1242 C1227 0.961 . S
H1243 C1227 0.961 . S
H1244 C1228 0.931 . S
H1245 C1233 0.930 . S
H1246 C1234 0.956 . S
H1247 C1234 0.961 . S
H1248 C1234 0.961 . S
H1249 C1235 0.958 . S
H1250 C1235 0.961 . S
H1251 C1235 0.960 . S
C1252 C1253 1.391 . S
C1252 C1254 1.394 . S
C1252 H1268 0.931 . S
C1253 C1252 1.391 . S
C1253 C1257 1.376 . S
C1254 C1252 1.394 . S
C1254 C1255 1.369 . S
C1254 C1258 1.531 . S
C1255 C1254 1.369 . S
C1255 C1256 1.410 . S
C1255 C1263 1.503 . S
C1256 C1255 1.410 . S
C1256 C1257 1.392 . S
C1256 C1259 1.511 . S
C1257 C1253 1.376 . S
C1257 C1256 1.392 . S
C1257 H1269 0.929 . S
C1258 C1254 1.531 . S
C1258 H1270 0.960 . S
C1258 H1271 0.962 . S
C1258 H1272 0.960 . S
C1259 C1256 1.511 . S
C1259 H1273 0.961 . S
C1259 H1274 0.961 . S
C1259 H1275 0.961 . S
C1260 C1261 1.370 . S
C1260 C1262 1.363 . S
C1260 H1276 0.931 . S
C1261 C1260 1.370 . S
C1261 C1265 1.408 . S
C1262 C1260 1.363 . S
C1262 C1263 1.370 . S
C1262 C1266 1.524 . S
C1263 C1255 1.503 . S
C1263 C1262 1.370 . S
C1263 C1264 1.403 . S
C1264 C1263 1.403 . S
C1264 C1265 1.404 . S
C1264 C1267 1.539 . S
C1265 C1261 1.408 . S
C1265 C1264 1.404 . S
C1265 H1277 0.930 . S
C1266 C1262 1.524 . S
C1266 H1278 0.956 . S
C1266 H1279 0.961 . S
C1266 H1280 0.961 . S
C1267 C1264 1.539 . S
C1267 H1281 0.958 . S
C1267 H1282 0.961 . S
C1267 H1283 0.960 . S
H1268 C1252 0.931 . S
H1269 C1257 0.929 . S
H1270 C1258 0.960 . S
H1271 C1258 0.962 . S
H1272 C1258 0.960 . S
H1273 C1259 0.961 . S
H1274 C1259 0.961 . S
H1275 C1259 0.961 . S
H1276 C1260 0.931 . S
H1277 C1265 0.930 . S
H1278 C1266 0.956 . S
H1279 C1266 0.961 . S
H1280 C1266 0.961 . S
H1281 C1267 0.958 . S
H1282 C1267 0.961 . S
H1283 C1267 0.960 . S
C1284 C1285 1.391 . S
C1284 C1286 1.394 . S
C1284 H1300 0.931 . S
C1285 C1284 1.391 . S
C1285 C1289 1.376 . S
C1286 C1284 1.394 . S
C1286 C1287 1.369 . S
C1286 C1290 1.531 . S
C1287 C1286 1.369 . S
C1287 C1288 1.410 . S
C1287 C1295 1.503 . S
C1288 C1287 1.410 . S
C1288 C1289 1.392 . S
C1288 C1291 1.511 . S
C1289 C1285 1.376 . S
C1289 C1288 1.392 . S
C1289 H1301 0.929 . S
C1290 C1286 1.531 . S
C1290 H1302 0.960 . S
C1290 H1303 0.962 . S
C1290 H1304 0.960 . S
C1291 C1288 1.511 . S
C1291 H1305 0.961 . S
C1291 H1306 0.961 . S
C1291 H1307 0.961 . S
C1292 C1293 1.370 . S
C1292 C1294 1.363 . S
C1292 H1308 0.931 . S
C1293 C1292 1.370 . S
C1293 C1297 1.408 . S
C1294 C1292 1.363 . S
C1294 C1295 1.370 . S
C1294 C1298 1.524 . S
C1295 C1287 1.503 . S
C1295 C1294 1.370 . S
C1295 C1296 1.403 . S
C1296 C1295 1.403 . S
C1296 C1297 1.404 . S
C1296 C1299 1.539 . S
C1297 C1293 1.408 . S
C1297 C1296 1.404 . S
C1297 H1309 0.930 . S
C1298 C1294 1.524 . S
C1298 H1310 0.956 . S
C1298 H1311 0.961 . S
C1298 H1312 0.961 . S
C1299 C1296 1.539 . S
C1299 H1313 0.958 . S
C1299 H1314 0.961 . S
C1299 H1315 0.960 . S
H1300 C1284 0.931 . S
H1301 C1289 0.929 . S
H1302 C1290 0.960 . S
H1303 C1290 0.962 . S
H1304 C1290 0.960 . S
H1305 C1291 0.961 . S
H1306 C1291 0.961 . S
H1307 C1291 0.961 . S
H1308 C1292 0.931 . S
H1309 C1297 0.930 . S
H1310 C1298 0.956 . S
H1311 C1298 0.961 . S
H1312 C1298 0.961 . S
H1313 C1299 0.958 . S
H1314 C1299 0.961 . S
H1315 C1299 0.960 . S
C1316 C1317 1.391 . S
C1316 C1318 1.394 . S
C1316 H1332 0.931 . S
C1317 C1316 1.391 . S
C1317 C1321 1.376 . S
C1318 C1316 1.394 . S
C1318 C1319 1.369 . S
C1318 C1322 1.531 . S
C1319 C1318 1.369 . S
C1319 C1320 1.410 . S
C1319 C1327 1.503 . S
C1320 C1319 1.410 . S
C1320 C1321 1.392 . S
C1320 C1323 1.511 . S
C1321 C1317 1.376 . S
C1321 C1320 1.392 . S
C1321 H1333 0.929 . S
C1322 C1318 1.531 . S
C1322 H1334 0.960 . S
C1322 H1335 0.962 . S
C1322 H1336 0.960 . S
C1323 C1320 1.511 . S
C1323 H1337 0.961 . S
C1323 H1338 0.961 . S
C1323 H1339 0.961 . S
C1324 C1325 1.370 . S
C1324 C1326 1.363 . S
C1324 H1340 0.931 . S
C1325 C1324 1.370 . S
C1325 C1329 1.408 . S
C1326 C1324 1.363 . S
C1326 C1327 1.370 . S
C1326 C1330 1.524 . S
C1327 C1319 1.503 . S
C1327 C1326 1.370 . S
C1327 C1328 1.403 . S
C1328 C1327 1.403 . S
C1328 C1329 1.404 . S
C1328 C1331 1.539 . S
C1329 C1325 1.408 . S
C1329 C1328 1.404 . S
C1329 H1341 0.930 . S
C1330 C1326 1.524 . S
C1330 H1342 0.956 . S
C1330 H1343 0.961 . S
C1330 H1344 0.961 . S
C1331 C1328 1.539 . S
C1331 H1345 0.958 . S
C1331 H1346 0.961 . S
C1331 H1347 0.960 . S
H1332 C1316 0.931 . S
H1333 C1321 0.929 . S
H1334 C1322 0.960 . S
H1335 C1322 0.962 . S
H1336 C1322 0.960 . S
H1337 C1323 0.961 . S
H1338 C1323 0.961 . S
H1339 C1323 0.961 . S
H1340 C1324 0.931 . S
H1341 C1329 0.930 . S
H1342 C1330 0.956 . S
H1343 C1330 0.961 . S
H1344 C1330 0.961 . S
H1345 C1331 0.958 . S
H1346 C1331 0.961 . S
H1347 C1331 0.960 . S
C1348 C1349 1.391 . S
C1348 C1350 1.394 . S
C1348 H1364 0.931 . S
C1349 C1348 1.391 . S
C1349 C1353 1.376 . S
C1350 C1348 1.394 . S
C1350 C1351 1.369 . S
C1350 C1354 1.531 . S
C1351 C1350 1.369 . S
C1351 C1352 1.410 . S
C1351 C1359 1.503 . S
C1352 C1351 1.410 . S
C1352 C1353 1.392 . S
C1352 C1355 1.511 . S
C1353 C1349 1.376 . S
C1353 C1352 1.392 . S
C1353 H1365 0.929 . S
C1354 C1350 1.531 . S
C1354 H1366 0.960 . S
C1354 H1367 0.962 . S
C1354 H1368 0.960 . S
C1355 C1352 1.511 . S
C1355 H1369 0.961 . S
C1355 H1370 0.961 . S
C1355 H1371 0.961 . S
C1356 C1357 1.370 . S
C1356 C1358 1.363 . S
C1356 H1372 0.931 . S
C1357 C1356 1.370 . S
C1357 C1361 1.408 . S
C1358 C1356 1.363 . S
C1358 C1359 1.370 . S
C1358 C1362 1.524 . S
C1359 C1351 1.503 . S
C1359 C1358 1.370 . S
C1359 C1360 1.403 . S
C1360 C1359 1.403 . S
C1360 C1361 1.404 . S
C1360 C1363 1.539 . S
C1361 C1357 1.408 . S
C1361 C1360 1.404 . S
C1361 H1373 0.930 . S
C1362 C1358 1.524 . S
C1362 H1374 0.956 . S
C1362 H1375 0.961 . S
C1362 H1376 0.961 . S
C1363 C1360 1.539 . S
C1363 H1377 0.958 . S
C1363 H1378 0.961 . S
C1363 H1379 0.960 . S
H1364 C1348 0.931 . S
H1365 C1353 0.929 . S
H1366 C1354 0.960 . S
H1367 C1354 0.962 . S
H1368 C1354 0.960 . S
H1369 C1355 0.961 . S
H1370 C1355 0.961 . S
H1371 C1355 0.961 . S
H1372 C1356 0.931 . S
H1373 C1361 0.930 . S
H1374 C1362 0.956 . S
H1375 C1362 0.961 . S
H1376 C1362 0.961 . S
H1377 C1363 0.958 . S
H1378 C1363 0.961 . S
H1379 C1363 0.960 . S
C1380 C1381 1.391 . S
C1380 C1382 1.394 . S
C1380 H1396 0.931 . S
C1381 C1380 1.391 . S
C1381 C1385 1.376 1_554 S
C1382 C1380 1.394 . S
C1382 C1383 1.369 . S
C1382 C1386 1.531 . S
C1383 C1382 1.369 . S
C1383 C1384 1.410 1_554 S
C1383 C1391 1.499 1_454 S
C1384 C1383 1.410 1_556 S
C1384 C1385 1.392 . S
C1384 C1387 1.511 . S
C1385 C1381 1.376 1_556 S
C1385 C1384 1.392 . S
C1385 H1397 0.929 . S
C1386 C1382 1.531 . S
C1386 H1398 0.960 1_455 S
C1386 H1399 0.941 . S
C1386 H1400 0.960 . S
C1387 C1384 1.511 . S
C1387 H1401 0.961 . S
C1387 H1402 0.961 . S
C1387 H1403 0.961 . S
C1388 C1389 1.370 . S
C1388 C1390 1.363 . S
C1388 H1404 0.931 . S
C1389 C1388 1.370 . S
C1389 C1393 1.408 1_556 S
C1390 C1388 1.363 . S
C1390 C1391 1.381 . S
C1390 C1394 1.524 . S
C1391 C1383 1.499 1_656 S
C1391 C1390 1.381 . S
C1391 C1392 1.396 1_556 S
C1392 C1391 1.396 1_554 S
C1392 C1393 1.404 . S
C1392 C1395 1.539 . S
C1393 C1389 1.408 1_554 S
C1393 C1392 1.404 . S
C1393 H1405 0.930 . S
C1394 C1390 1.524 . S
C1394 H1406 0.956 1_655 S
C1394 H1407 0.961 1_655 S
C1394 H1408 0.961 . S
C1395 C1392 1.539 . S
C1395 H1409 0.958 . S
C1395 H1410 0.961 . S
C1395 H1411 0.960 . S
H1396 C1380 0.931 . S
H1397 C1385 0.929 . S
H1398 C1386 0.960 1_655 S
H1399 C1386 0.941 . S
H1400 C1386 0.960 . S
H1401 C1387 0.961 . S
H1402 C1387 0.961 . S
H1403 C1387 0.961 . S
H1404 C1388 0.931 . S
H1405 C1393 0.930 . S
H1406 C1394 0.956 1_455 S
H1407 C1394 0.961 1_455 S
H1408 C1394 0.961 . S
H1409 C1395 0.958 . S
H1410 C1395 0.961 . S
H1411 C1395 0.960 . S
C1412 C1413 1.391 . S
C1412 C1414 1.394 . S
C1412 H1428 0.931 . S
C1413 C1412 1.391 . S
C1413 C1417 1.376 1_554 S
C1414 C1412 1.394 . S
C1414 C1415 1.369 . S
C1414 C1418 1.531 . S
C1415 C1414 1.369 . S
C1415 C1416 1.410 1_554 S
C1415 C1423 1.503 1_554 S
C1416 C1415 1.410 1_556 S
C1416 C1417 1.392 . S
C1416 C1419 1.511 . S
C1417 C1413 1.376 1_556 S
C1417 C1416 1.392 . S
C1417 H1429 0.929 . S
C1418 C1414 1.531 . S
C1418 H1430 0.960 . S
C1418 H1431 0.962 . S
C1418 H1432 0.960 . S
C1419 C1416 1.511 . S
C1419 H1433 0.961 . S
C1419 H1434 0.961 . S
C1419 H1435 0.961 . S
C1420 C1421 1.370 . S
C1420 C1422 1.363 . S
C1420 H1436 0.931 . S
C1421 C1420 1.370 . S
C1421 C1425 1.408 . S
C1422 C1420 1.363 . S
C1422 C1423 1.370 . S
C1422 C1426 1.524 1_556 S
C1423 C1415 1.503 1_556 S
C1423 C1422 1.370 . S
C1423 C1424 1.403 . S
C1424 C1423 1.403 . S
C1424 C1425 1.404 . S
C1424 C1427 1.539 . S
C1425 C1421 1.408 . S
C1425 C1424 1.404 . S
C1425 H1437 0.930 . S
C1426 C1422 1.524 1_554 S
C1426 H1438 0.956 . S
C1426 H1439 0.961 1_554 S
C1426 H1440 0.961 . S
C1427 C1424 1.539 . S
C1427 H1441 0.958 . S
C1427 H1442 0.961 . S
C1427 H1443 0.960 . S
H1428 C1412 0.931 . S
H1429 C1417 0.929 . S
H1430 C1418 0.960 . S
H1431 C1418 0.962 . S
H1432 C1418 0.960 . S
H1433 C1419 0.961 . S
H1434 C1419 0.961 . S
H1435 C1419 0.961 . S
H1436 C1420 0.931 . S
H1437 C1425 0.930 . S
H1438 C1426 0.956 . S
H1439 C1426 0.961 1_556 S
H1440 C1426 0.961 . S
H1441 C1427 0.958 . S
H1442 C1427 0.961 . S
H1443 C1427 0.960 . S
C1444 C1445 1.391 1_554 S
C1444 C1446 1.394 . S
C1444 H1460 0.931 . S
C1445 C1444 1.391 1_556 S
C1445 C1449 1.376 . S
C1446 C1444 1.394 . S
C1446 C1447 1.369 . S
C1446 C1450 1.531 . S
C1447 C1446 1.369 . S
C1447 C1448 1.410 1_554 S
C1447 C1455 1.503 1_545 S
C1448 C1447 1.410 1_556 S
C1448 C1449 1.392 . S
C1448 C1451 1.511 . S
C1449 C1445 1.376 . S
C1449 C1448 1.392 . S
C1449 H1461 0.929 . S
C1450 C1446 1.531 . S
C1450 H1462 0.960 . S
C1450 H1463 0.962 . S
C1450 H1464 0.960 . S
C1451 C1448 1.511 . S
C1451 H1465 0.961 . S
C1451 H1466 0.961 1_545 S
C1451 H1467 0.961 . S
C1452 C1453 1.370 1_556 S
C1452 C1454 1.363 . S
C1452 H1468 0.931 . S
C1453 C1452 1.370 1_554 S
C1453 C1457 1.408 . S
C1454 C1452 1.363 . S
C1454 C1455 1.370 1_556 S
C1454 C1458 1.524 . S
C1455 C1447 1.503 1_565 S
C1455 C1454 1.370 1_554 S
C1455 C1456 1.403 . S
C1456 C1455 1.403 . S
C1456 C1457 1.404 . S
C1456 C1459 1.539 . S
C1457 C1453 1.408 . S
C1457 C1456 1.404 . S
C1457 H1469 0.930 . S
C1458 C1454 1.524 . S
C1458 H1470 0.956 . S
C1458 H1471 0.961 . S
C1458 H1472 0.961 . S
C1459 C1456 1.539 . S
C1459 H1473 0.958 . S
C1459 H1474 0.961 . S
C1459 H1475 0.960 1_565 S
H1460 C1444 0.931 . S
H1461 C1449 0.929 . S
H1462 C1450 0.960 . S
H1463 C1450 0.962 . S
H1464 C1450 0.960 . S
H1465 C1451 0.961 . S
H1466 C1451 0.961 1_565 S
H1467 C1451 0.961 . S
H1468 C1452 0.931 . S
H1469 C1457 0.930 . S
H1470 C1458 0.956 . S
H1471 C1458 0.961 . S
H1472 C1458 0.961 . S
H1473 C1459 0.958 . S
H1474 C1459 0.961 . S
H1475 C1459 0.960 1_545 S
C1476 C1477 1.391 . S
C1476 C1478 1.394 . S
C1476 H1492 0.931 . S
C1477 C1476 1.391 . S
C1477 C1481 1.376 . S
C1478 C1476 1.394 . S
C1478 C1479 1.369 . S
C1478 C1482 1.531 . S
C1479 C1478 1.369 . S
C1479 C1480 1.410 . S
C1479 C1487 1.503 . S
C1480 C1479 1.410 . S
C1480 C1481 1.392 . S
C1480 C1483 1.511 . S
C1481 C1477 1.376 . S
C1481 C1480 1.392 . S
C1481 H1493 0.929 . S
C1482 C1478 1.531 . S
C1482 H1494 0.960 . S
C1482 H1495 0.962 . S
C1482 H1496 0.960 . S
C1483 C1480 1.511 . S
C1483 H1497 0.961 . S
C1483 H1498 0.961 . S
C1483 H1499 0.961 . S
C1484 C1485 1.370 . S
C1484 C1486 1.363 1_554 S
C1484 H1500 0.931 . S
C1485 C1484 1.370 . S
C1485 C1489 1.408 . S
C1486 C1484 1.363 1_556 S
C1486 C1487 1.370 . S
C1486 C1490 1.524 . S
C1487 C1479 1.503 . S
C1487 C1486 1.370 . S
C1487 C1488 1.403 . S
C1488 C1487 1.403 . S
C1488 C1489 1.404 1_556 S
C1488 C1491 1.539 . S
C1489 C1485 1.408 . S
C1489 C1488 1.404 1_554 S
C1489 H1501 0.930 . S
C1490 C1486 1.524 . S
C1490 H1502 0.956 . S
C1490 H1503 0.961 . S
C1490 H1504 0.961 . S
C1491 C1488 1.539 . S
C1491 H1505 0.958 . S
C1491 H1506 0.961 . S
C1491 H1507 0.960 . S
H1492 C1476 0.931 . S
H1493 C1481 0.929 . S
H1494 C1482 0.960 . S
H1495 C1482 0.962 . S
H1496 C1482 0.960 . S
H1497 C1483 0.961 . S
H1498 C1483 0.961 . S
H1499 C1483 0.961 . S
H1500 C1484 0.931 . S
H1501 C1489 0.930 . S
H1502 C1490 0.956 . S
H1503 C1490 0.961 . S
H1504 C1490 0.961 . S
H1505 C1491 0.958 . S
H1506 C1491 0.961 . S
H1507 C1491 0.960 . S
C1508 C1509 1.391 . S
C1508 C1510 1.394 . S
C1508 H1524 0.931 . S
C1509 C1508 1.391 . S
C1509 C1513 1.376 . S
C1510 C1508 1.394 . S
C1510 C1511 1.369 . S
C1510 C1514 1.531 . S
C1511 C1510 1.369 . S
C1511 C1512 1.410 . S
C1511 C1519 1.503 . S
C1512 C1511 1.410 . S
C1512 C1513 1.392 . S
C1512 C1515 1.511 . S
C1513 C1509 1.376 . S
C1513 C1512 1.392 . S
C1513 H1525 0.929 . S
C1514 C1510 1.531 . S
C1514 H1526 0.960 . S
C1514 H1527 0.962 . S
C1514 H1528 0.960 . S
C1515 C1512 1.511 . S
C1515 H1529 0.961 . S
C1515 H1530 0.961 . S
C1515 H1531 0.961 . S
C1516 C1517 1.370 . S
C1516 C1518 1.363 1_554 S
C1516 H1532 0.931 . S
C1517 C1516 1.370 . S
C1517 C1521 1.408 . S
C1518 C1516 1.363 1_556 S
C1518 C1519 1.370 . S
C1518 C1522 1.524 . S
C1519 C1511 1.503 . S
C1519 C1518 1.370 . S
C1519 C1520 1.403 . S
C1520 C1519 1.403 . S
C1520 C1521 1.404 1_556 S
C1520 C1523 1.539 . S
C1521 C1517 1.408 . S
C1521 C1520 1.404 1_554 S
C1521 H1533 0.930 . S
C1522 C1518 1.524 . S
C1522 H1534 0.956 . S
C1522 H1535 0.961 . S
C1522 H1536 0.961 . S
C1523 C1520 1.539 . S
C1523 H1537 0.958 . S
C1523 H1538 0.961 . S
C1523 H1539 0.960 . S
H1524 C1508 0.931 . S
H1525 C1513 0.929 . S
H1526 C1514 0.960 . S
H1527 C1514 0.962 . S
H1528 C1514 0.960 . S
H1529 C1515 0.961 . S
H1530 C1515 0.961 . S
H1531 C1515 0.961 . S
H1532 C1516 0.931 . S
H1533 C1521 0.930 . S
H1534 C1522 0.956 . S
H1535 C1522 0.961 . S
H1536 C1522 0.961 . S
H1537 C1523 0.958 . S
H1538 C1523 0.961 . S
H1539 C1523 0.960 . S
C1540 C1541 1.391 . S
C1540 C1542 1.394 . S
C1540 H1556 0.931 . S
C1541 C1540 1.391 . S
C1541 C1545 1.376 . S
C1542 C1540 1.394 . S
C1542 C1543 1.369 . S
C1542 C1546 1.531 . S
C1543 C1542 1.369 . S
C1543 C1544 1.410 . S
C1543 C1551 1.503 . S
C1544 C1543 1.410 . S
C1544 C1545 1.392 . S
C1544 C1547 1.511 . S
C1545 C1541 1.376 . S
C1545 C1544 1.392 . S
C1545 H1557 0.929 . S
C1546 C1542 1.531 . S
C1546 H1558 0.960 . S
C1546 H1559 0.962 . S
C1546 H1560 0.960 . S
C1547 C1544 1.511 . S
C1547 H1561 0.961 . S
C1547 H1562 0.961 . S
C1547 H1563 0.961 . S
C1548 C1549 1.370 . S
C1548 C1550 1.363 1_554 S
C1548 H1564 0.931 . S
C1549 C1548 1.370 . S
C1549 C1553 1.408 . S
C1550 C1548 1.363 1_556 S
C1550 C1551 1.370 . S
C1550 C1554 1.524 . S
C1551 C1543 1.503 . S
C1551 C1550 1.370 . S
C1551 C1552 1.403 . S
C1552 C1551 1.403 . S
C1552 C1553 1.404 1_556 S
C1552 C1555 1.539 . S
C1553 C1549 1.408 . S
C1553 C1552 1.404 1_554 S
C1553 H1565 0.930 . S
C1554 C1550 1.524 . S
C1554 H1566 0.956 . S
C1554 H1567 0.961 . S
C1554 H1568 0.961 . S
C1555 C1552 1.539 . S
C1555 H1569 0.958 . S
C1555 H1570 0.961 . S
C1555 H1571 0.960 . S
H1556 C1540 0.931 . S
H1557 C1545 0.929 . S
H1558 C1546 0.960 . S
H1559 C1546 0.962 . S
H1560 C1546 0.960 . S
H1561 C1547 0.961 . S
H1562 C1547 0.961 . S
H1563 C1547 0.961 . S
H1564 C1548 0.931 . S
H1565 C1553 0.930 . S
H1566 C1554 0.956 . S
H1567 C1554 0.961 . S
H1568 C1554 0.961 . S
H1569 C1555 0.958 . S
H1570 C1555 0.961 . S
H1571 C1555 0.960 . S
C1572 C1573 1.391 . S
C1572 C1574 1.394 1_556 S
C1572 H1588 0.931 . S
C1573 C1572 1.391 . S
C1573 C1577 1.376 . S
C1574 C1572 1.394 1_554 S
C1574 C1575 1.369 . S
C1574 C1578 1.531 . S
C1575 C1574 1.369 . S
C1575 C1576 1.410 . S
C1575 C1583 1.503 . S
C1576 C1575 1.410 . S
C1576 C1577 1.392 1_554 S
C1576 C1579 1.511 . S
C1577 C1573 1.376 . S
C1577 C1576 1.392 1_556 S
C1577 H1589 0.929 . S
C1578 C1574 1.531 . S
C1578 H1590 0.960 . S
C1578 H1591 0.962 . S
C1578 H1592 0.960 . S
C1579 C1576 1.511 . S
C1579 H1593 0.961 . S
C1579 H1594 0.961 . S
C1579 H1595 0.961 . S
C1580 C1581 1.370 . S
C1580 C1582 1.363 . S
C1580 H1596 0.931 . S
C1581 C1580 1.370 . S
C1581 C1585 1.408 . S
C1582 C1580 1.363 . S
C1582 C1583 1.370 . S
C1582 C1586 1.524 . S
C1583 C1575 1.503 . S
C1583 C1582 1.370 . S
C1583 C1584 1.403 . S
C1584 C1583 1.403 . S
C1584 C1585 1.404 . S
C1584 C1587 1.539 . S
C1585 C1581 1.408 . S
C1585 C1584 1.404 . S
C1585 H1597 0.930 . S
C1586 C1582 1.524 . S
C1586 H1598 0.956 . S
C1586 H1599 0.961 . S
C1586 H1600 0.961 . S
C1587 C1584 1.539 . S
C1587 H1601 0.958 . S
C1587 H1602 0.961 . S
C1587 H1603 0.960 . S
H1588 C1572 0.931 . S
H1589 C1577 0.929 . S
H1590 C1578 0.960 . S
H1591 C1578 0.962 . S
H1592 C1578 0.960 . S
H1593 C1579 0.961 . S
H1594 C1579 0.961 . S
H1595 C1579 0.961 . S
H1596 C1580 0.931 . S
H1597 C1585 0.930 . S
H1598 C1586 0.956 . S
H1599 C1586 0.961 . S
H1600 C1586 0.961 . S
H1601 C1587 0.958 . S
H1602 C1587 0.961 . S
H1603 C1587 0.960 . S
C1604 C1605 1.391 . S
C1604 C1606 1.394 1_556 S
C1604 H1620 0.931 . S
C1605 C1604 1.391 . S
C1605 C1609 1.376 . S
C1606 C1604 1.394 1_554 S
C1606 C1607 1.369 . S
C1606 C1610 1.531 . S
C1607 C1606 1.369 . S
C1607 C1608 1.410 . S
C1607 C1615 1.503 . S
C1608 C1607 1.410 . S
C1608 C1609 1.392 1_554 S
C1608 C1611 1.511 . S
C1609 C1605 1.376 . S
C1609 C1608 1.392 1_556 S
C1609 H1621 0.929 . S
C1610 C1606 1.531 . S
C1610 H1622 0.960 . S
C1610 H1623 0.962 . S
C1610 H1624 0.960 . S
C1611 C1608 1.511 . S
C1611 H1625 0.961 . S
C1611 H1626 0.961 . S
C1611 H1627 0.961 . S
C1612 C1613 1.370 . S
C1612 C1614 1.363 . S
C1612 H1628 0.931 . S
C1613 C1612 1.370 . S
C1613 C1617 1.408 . S
C1614 C1612 1.363 . S
C1614 C1615 1.370 . S
C1614 C1618 1.524 . S
C1615 C1607 1.503 . S
C1615 C1614 1.370 . S
C1615 C1616 1.403 . S
C1616 C1615 1.403 . S
C1616 C1617 1.404 . S
C1616 C1619 1.539 . S
C1617 C1613 1.408 . S
C1617 C1616 1.404 . S
C1617 H1629 0.930 . S
C1618 C1614 1.524 . S
C1618 H1630 0.956 . S
C1618 H1631 0.961 . S
C1618 H1632 0.961 . S
C1619 C1616 1.539 . S
C1619 H1633 0.958 . S
C1619 H1634 0.961 . S
C1619 H1635 0.960 . S
H1620 C1604 0.931 . S
H1621 C1609 0.929 . S
H1622 C1610 0.960 . S
H1623 C1610 0.962 . S
H1624 C1610 0.960 . S
H1625 C1611 0.961 . S
H1626 C1611 0.961 . S
H1627 C1611 0.961 . S
H1628 C1612 0.931 . S
H1629 C1617 0.930 . S
H1630 C1618 0.956 . S
H1631 C1618 0.961 . S
H1632 C1618 0.961 . S
H1633 C1619 0.958 . S
H1634 C1619 0.961 . S
H1635 C1619 0.960 . S
C1636 C1637 1.391 . S
C1636 C1638 1.394 . S
C1636 H1652 0.931 . S
C1637 C1636 1.391 . S
C1637 C1641 1.376 . S
C1638 C1636 1.394 . S
C1638 C1639 1.369 . S
C1638 C1642 1.531 . S
C1639 C1638 1.369 . S
C1639 C1640 1.410 . S
C1639 C1647 1.503 . S
C1640 C1639 1.410 . S
C1640 C1641 1.392 . S
C1640 C1643 1.511 . S
C1641 C1637 1.376 . S
C1641 C1640 1.392 . S
C1641 H1653 0.929 . S
C1642 C1638 1.531 . S
C1642 H1654 0.960 . S
C1642 H1655 0.962 . S
C1642 H1656 0.960 . S
C1643 C1640 1.511 . S
C1643 H1657 0.961 . S
C1643 H1658 0.961 . S
C1643 H1659 0.961 . S
C1644 C1645 1.370 . S
C1644 C1646 1.363 1_556 S
C1644 H1660 0.931 . S
C1645 C1644 1.370 . S
C1645 C1649 1.408 . S
C1646 C1644 1.363 1_554 S
C1646 C1647 1.370 . S
C1646 C1650 1.524 . S
C1647 C1639 1.503 . S
C1647 C1646 1.370 . S
C1647 C1648 1.403 . S
C1648 C1647 1.403 . S
C1648 C1649 1.404 1_554 S
C1648 C1651 1.539 . S
C1649 C1645 1.408 . S
C1649 C1648 1.404 1_556 S
C1649 H1661 0.930 . S
C1650 C1646 1.524 . S
C1650 H1662 0.956 . S
C1650 H1663 0.961 . S
C1650 H1664 0.961 . S
C1651 C1648 1.539 . S
C1651 H1665 0.958 . S
C1651 H1666 0.961 . S
C1651 H1667 0.960 . S
H1652 C1636 0.931 . S
H1653 C1641 0.929 . S
H1654 C1642 0.960 . S
H1655 C1642 0.962 . S
H1656 C1642 0.960 . S
H1657 C1643 0.961 . S
H1658 C1643 0.961 . S
H1659 C1643 0.961 . S
H1660 C1644 0.931 . S
H1661 C1649 0.930 . S
H1662 C1650 0.956 . S
H1663 C1650 0.961 . S
H1664 C1650 0.961 . S
H1665 C1651 0.958 . S
H1666 C1651 0.961 . S
H1667 C1651 0.960 . S
C1668 C1669 1.391 . S
C1668 C1670 1.394 . S
C1668 H1684 0.931 . S
C1669 C1668 1.391 . S
C1669 C1673 1.376 . S
C1670 C1668 1.394 . S
C1670 C1671 1.369 . S
C1670 C1674 1.531 . S
C1671 C1670 1.369 . S
C1671 C1672 1.410 . S
C1671 C1679 1.503 . S
C1672 C1671 1.410 . S
C1672 C1673 1.392 . S
C1672 C1675 1.511 . S
C1673 C1669 1.376 . S
C1673 C1672 1.392 . S
C1673 H1685 0.929 . S
C1674 C1670 1.531 . S
C1674 H1686 0.960 . S
C1674 H1687 0.962 . S
C1674 H1688 0.960 . S
C1675 C1672 1.511 . S
C1675 H1689 0.961 . S
C1675 H1690 0.961 . S
C1675 H1691 0.961 . S
C1676 C1677 1.370 . S
C1676 C1678 1.363 . S
C1676 H1692 0.931 . S
C1677 C1676 1.370 . S
C1677 C1681 1.408 . S
C1678 C1676 1.363 . S
C1678 C1679 1.370 . S
C1678 C1682 1.524 . S
C1679 C1671 1.503 . S
C1679 C1678 1.370 . S
C1679 C1680 1.403 . S
C1680 C1679 1.403 . S
C1680 C1681 1.404 . S
C1680 C1683 1.539 . S
C1681 C1677 1.408 . S
C1681 C1680 1.404 . S
C1681 H1693 0.930 . S
C1682 C1678 1.524 . S
C1682 H1694 0.956 . S
C1682 H1695 0.961 . S
C1682 H1696 0.961 . S
C1683 C1680 1.539 . S
C1683 H1697 0.958 . S
C1683 H1698 0.961 . S
C1683 H1699 0.960 . S
H1684 C1668 0.931 . S
H1685 C1673 0.929 . S
H1686 C1674 0.960 . S
H1687 C1674 0.962 . S
H1688 C1674 0.960 . S
H1689 C1675 0.961 . S
H1690 C1675 0.961 . S
H1691 C1675 0.961 . S
H1692 C1676 0.931 . S
H1693 C1681 0.930 . S
H1694 C1682 0.956 . S
H1695 C1682 0.961 . S
H1696 C1682 0.961 . S
H1697 C1683 0.958 . S
H1698 C1683 0.961 . S
H1699 C1683 0.960 . S
C1700 C1701 1.391 . S
C1700 C1702 1.394 . S
C1700 H1716 0.931 . S
C1701 C1700 1.391 . S
C1701 C1705 1.376 . S
C1702 C1700 1.394 . S
C1702 C1703 1.369 . S
C1702 C1706 1.531 . S
C1703 C1702 1.369 . S
C1703 C1704 1.410 . S
C1703 C1711 1.503 . S
C1704 C1703 1.410 . S
C1704 C1705 1.392 . S
C1704 C1707 1.511 . S
C1705 C1701 1.376 . S
C1705 C1704 1.392 . S
C1705 H1717 0.929 . S
C1706 C1702 1.531 . S
C1706 H1718 0.960 . S
C1706 H1719 0.962 . S
C1706 H1720 0.960 . S
C1707 C1704 1.511 . S
C1707 H1721 0.961 . S
C1707 H1722 0.961 . S
C1707 H1723 0.961 . S
C1708 C1709 1.370 . S
C1708 C1710 1.363 . S
C1708 H1724 0.931 . S
C1709 C1708 1.370 . S
C1709 C1713 1.408 . S
C1710 C1708 1.363 . S
C1710 C1711 1.370 . S
C1710 C1714 1.524 . S
C1711 C1703 1.503 . S
C1711 C1710 1.370 . S
C1711 C1712 1.403 . S
C1712 C1711 1.403 . S
C1712 C1713 1.404 . S
C1712 C1715 1.539 . S
C1713 C1709 1.408 . S
C1713 C1712 1.404 . S
C1713 H1725 0.930 . S
C1714 C1710 1.524 . S
C1714 H1726 0.956 . S
C1714 H1727 0.961 . S
C1714 H1728 0.961 . S
C1715 C1712 1.539 . S
C1715 H1729 0.958 . S
C1715 H1730 0.961 . S
C1715 H1731 0.960 . S
H1716 C1700 0.931 . S
H1717 C1705 0.929 . S
H1718 C1706 0.960 . S
H1719 C1706 0.962 . S
H1720 C1706 0.960 . S
H1721 C1707 0.961 . S
H1722 C1707 0.961 . S
H1723 C1707 0.961 . S
H1724 C1708 0.931 . S
H1725 C1713 0.930 . S
H1726 C1714 0.956 . S
H1727 C1714 0.961 . S
H1728 C1714 0.961 . S
H1729 C1715 0.958 . S
H1730 C1715 0.961 . S
H1731 C1715 0.960 . S
C1732 C1733 1.391 . S
C1732 C1734 1.394 . S
C1732 H1748 0.931 . S
C1733 C1732 1.391 . S
C1733 C1737 1.376 . S
C1734 C1732 1.394 . S
C1734 C1735 1.369 . S
C1734 C1738 1.531 . S
C1735 C1734 1.369 . S
C1735 C1736 1.410 . S
C1735 C1743 1.503 . S
C1736 C1735 1.410 . S
C1736 C1737 1.392 . S
C1736 C1739 1.511 . S
C1737 C1733 1.376 . S
C1737 C1736 1.392 . S
C1737 H1749 0.929 . S
C1738 C1734 1.531 . S
C1738 H1750 0.960 . S
C1738 H1751 0.962 . S
C1738 H1752 0.960 . S
C1739 C1736 1.511 . S
C1739 H1753 0.961 . S
C1739 H1754 0.961 . S
C1739 H1755 0.961 . S
C1740 C1741 1.370 . S
C1740 C1742 1.363 . S
C1740 H1756 0.931 . S
C1741 C1740 1.370 . S
C1741 C1745 1.408 . S
C1742 C1740 1.363 . S
C1742 C1743 1.370 . S
C1742 C1746 1.524 . S
C1743 C1735 1.503 . S
C1743 C1742 1.370 . S
C1743 C1744 1.403 . S
C1744 C1743 1.403 . S
C1744 C1745 1.404 . S
C1744 C1747 1.539 . S
C1745 C1741 1.408 . S
C1745 C1744 1.404 . S
C1745 H1757 0.930 . S
C1746 C1742 1.524 . S
C1746 H1758 0.956 . S
C1746 H1759 0.961 . S
C1746 H1760 0.961 . S
C1747 C1744 1.539 . S
C1747 H1761 0.958 . S
C1747 H1762 0.961 . S
C1747 H1763 0.960 . S
H1748 C1732 0.931 . S
H1749 C1737 0.929 . S
H1750 C1738 0.960 . S
H1751 C1738 0.962 . S
H1752 C1738 0.960 . S
H1753 C1739 0.961 . S
H1754 C1739 0.961 . S
H1755 C1739 0.961 . S
H1756 C1740 0.931 . S
H1757 C1745 0.930 . S
H1758 C1746 0.956 . S
H1759 C1746 0.961 . S
H1760 C1746 0.961 . S
H1761 C1747 0.958 . S
H1762 C1747 0.961 . S
H1763 C1747 0.960 . S
C1764 C1765 1.391 . S
C1764 C1766 1.394 . S
C1764 H1780 0.931 . S
C1765 C1764 1.391 . S
C1765 C1769 1.376 . S
C1766 C1764 1.394 . S
C1766 C1767 1.369 . S
C1766 C1770 1.531 . S
C1767 C1766 1.369 . S
C1767 C1768 1.410 . S
C1767 C1775 1.503 . S
C1768 C1767 1.410 . S
C1768 C1769 1.392 . S
C1768 C1771 1.511 . S
C1769 C1765 1.376 . S
C1769 C1768 1.392 . S
C1769 H1781 0.929 . S
C1770 C1766 1.531 . S
C1770 H1782 0.960 . S
C1770 H1783 0.962 . S
C1770 H1784 0.960 . S
C1771 C1768 1.511 . S
C1771 H1785 0.961 . S
C1771 H1786 0.961 . S
C1771 H1787 0.961 . S
C1772 C1773 1.370 . S
C1772 C1774 1.363 . S
C1772 H1788 0.931 . S
C1773 C1772 1.370 . S
C1773 C1777 1.408 . S
C1774 C1772 1.363 . S
C1774 C1775 1.370 . S
C1774 C1778 1.524 . S
C1775 C1767 1.503 . S
C1775 C1774 1.370 . S
C1775 C1776 1.403 . S
C1776 C1775 1.403 . S
C1776 C1777 1.404 . S
C1776 C1779 1.539 . S
C1777 C1773 1.408 . S
C1777 C1776 1.404 . S
C1777 H1789 0.930 . S
C1778 C1774 1.524 . S
C1778 H1790 0.956 . S
C1778 H1791 0.961 . S
C1778 H1792 0.961 . S
C1779 C1776 1.539 . S
C1779 H1793 0.958 . S
C1779 H1794 0.961 . S
C1779 H1795 0.960 . S
H1780 C1764 0.931 . S
H1781 C1769 0.929 . S
H1782 C1770 0.960 . S
H1783 C1770 0.962 . S
H1784 C1770 0.960 . S
H1785 C1771 0.961 . S
H1786 C1771 0.961 . S
H1787 C1771 0.961 . S
H1788 C1772 0.931 . S
H1789 C1777 0.930 . S
H1790 C1778 0.956 . S
H1791 C1778 0.961 . S
H1792 C1778 0.961 . S
H1793 C1779 0.958 . S
H1794 C1779 0.961 . S
H1795 C1779 0.960 . S
C1796 C1797 1.391 . S
C1796 C1798 1.394 . S
C1796 H1812 0.931 . S
C1797 C1796 1.391 . S
C1797 C1801 1.376 . S
C1798 C1796 1.394 . S
C1798 C1799 1.369 . S
C1798 C1802 1.531 . S
C1799 C1798 1.369 . S
C1799 C1800 1.410 . S
C1799 C1807 1.503 . S
C1800 C1799 1.410 . S
C1800 C1801 1.392 . S
C1800 C1803 1.511 . S
C1801 C1797 1.376 . S
C1801 C1800 1.392 . S
C1801 H1813 0.929 . S
C1802 C1798 1.531 . S
C1802 H1814 0.960 . S
C1802 H1815 0.962 . S
C1802 H1816 0.960 . S
C1803 C1800 1.511 . S
C1803 H1817 0.961 . S
C1803 H1818 0.961 . S
C1803 H1819 0.961 . S
C1804 C1805 1.370 . S
C1804 C1806 1.363 . S
C1804 H1820 0.931 . S
C1805 C1804 1.370 . S
C1805 C1809 1.408 . S
C1806 C1804 1.363 . S
C1806 C1807 1.370 . S
C1806 C1810 1.524 . S
C1807 C1799 1.503 . S
C1807 C1806 1.370 . S
C1807 C1808 1.403 . S
C1808 C1807 1.403 . S
C1808 C1809 1.404 . S
C1808 C1811 1.539 . S
C1809 C1805 1.408 . S
C1809 C1808 1.404 . S
C1809 H1821 0.930 . S
C1810 C1806 1.524 . S
C1810 H1822 0.956 . S
C1810 H1823 0.961 . S
C1810 H1824 0.961 . S
C1811 C1808 1.539 . S
C1811 H1825 0.958 . S
C1811 H1826 0.961 . S
C1811 H1827 0.960 . S
H1812 C1796 0.931 . S
H1813 C1801 0.929 . S
H1814 C1802 0.960 . S
H1815 C1802 0.962 . S
H1816 C1802 0.960 . S
H1817 C1803 0.961 . S
H1818 C1803 0.961 . S
H1819 C1803 0.961 . S
H1820 C1804 0.931 . S
H1821 C1809 0.930 . S
H1822 C1810 0.956 . S
H1823 C1810 0.961 . S
H1824 C1810 0.961 . S
H1825 C1811 0.958 . S
H1826 C1811 0.961 . S
H1827 C1811 0.960 . S
C1828 C1829 1.391 . S
C1828 C1830 1.394 . S
C1828 H1844 0.931 . S
C1829 C1828 1.391 . S
C1829 C1833 1.376 . S
C1830 C1828 1.394 . S
C1830 C1831 1.369 . S
C1830 C1834 1.531 . S
C1831 C1830 1.369 . S
C1831 C1832 1.410 . S
C1831 C1839 1.503 . S
C1832 C1831 1.410 . S
C1832 C1833 1.392 . S
C1832 C1835 1.511 . S
C1833 C1829 1.376 . S
C1833 C1832 1.392 . S
C1833 H1845 0.929 . S
C1834 C1830 1.531 . S
C1834 H1846 0.960 . S
C1834 H1847 0.962 . S
C1834 H1848 0.960 . S
C1835 C1832 1.511 . S
C1835 H1849 0.961 . S
C1835 H1850 0.961 . S
C1835 H1851 0.961 . S
C1836 C1837 1.370 . S
C1836 C1838 1.363 . S
C1836 H1852 0.931 . S
C1837 C1836 1.370 . S
C1837 C1841 1.408 . S
C1838 C1836 1.363 . S
C1838 C1839 1.370 . S
C1838 C1842 1.524 . S
C1839 C1831 1.503 . S
C1839 C1838 1.370 . S
C1839 C1840 1.403 . S
C1840 C1839 1.403 . S
C1840 C1841 1.404 . S
C1840 C1843 1.539 . S
C1841 C1837 1.408 . S
C1841 C1840 1.404 . S
C1841 H1853 0.930 . S
C1842 C1838 1.524 . S
C1842 H1854 0.956 . S
C1842 H1855 0.961 . S
C1842 H1856 0.961 . S
C1843 C1840 1.539 . S
C1843 H1857 0.958 . S
C1843 H1858 0.961 . S
C1843 H1859 0.960 . S
H1844 C1828 0.931 . S
H1845 C1833 0.929 . S
H1846 C1834 0.960 . S
H1847 C1834 0.962 . S
H1848 C1834 0.960 . S
H1849 C1835 0.961 . S
H1850 C1835 0.961 . S
H1851 C1835 0.961 . S
H1852 C1836 0.931 . S
H1853 C1841 0.930 . S
H1854 C1842 0.956 . S
H1855 C1842 0.961 . S
H1856 C1842 0.961 . S
H1857 C1843 0.958 . S
H1858 C1843 0.961 . S
H1859 C1843 0.960 . S
C1860 C1861 1.391 . S
C1860 C1862 1.394 . S
C1860 H1876 0.931 . S
C1861 C1860 1.391 . S
C1861 C1865 1.376 . S
C1862 C1860 1.394 . S
C1862 C1863 1.369 . S
C1862 C1866 1.531 . S
C1863 C1862 1.369 . S
C1863 C1864 1.410 . S
C1863 C1871 1.503 . S
C1864 C1863 1.410 . S
C1864 C1865 1.392 . S
C1864 C1867 1.511 . S
C1865 C1861 1.376 . S
C1865 C1864 1.392 . S
C1865 H1877 0.929 . S
C1866 C1862 1.531 . S
C1866 H1878 0.960 . S
C1866 H1879 0.962 . S
C1866 H1880 0.960 . S
C1867 C1864 1.511 . S
C1867 H1881 0.961 . S
C1867 H1882 0.961 . S
C1867 H1883 0.961 . S
C1868 C1869 1.370 . S
C1868 C1870 1.363 . S
C1868 H1884 0.931 . S
C1869 C1868 1.370 . S
C1869 C1873 1.408 . S
C1870 C1868 1.363 . S
C1870 C1871 1.370 . S
C1870 C1874 1.524 . S
C1871 C1863 1.503 . S
C1871 C1870 1.370 . S
C1871 C1872 1.403 . S
C1872 C1871 1.403 . S
C1872 C1873 1.404 . S
C1872 C1875 1.539 . S
C1873 C1869 1.408 . S
C1873 C1872 1.404 . S
C1873 H1885 0.930 . S
C1874 C1870 1.524 . S
C1874 H1886 0.956 . S
C1874 H1887 0.961 . S
C1874 H1888 0.961 . S
C1875 C1872 1.539 . S
C1875 H1889 0.958 . S
C1875 H1890 0.961 . S
C1875 H1891 0.960 . S
H1876 C1860 0.931 . S
H1877 C1865 0.929 . S
H1878 C1866 0.960 . S
H1879 C1866 0.962 . S
H1880 C1866 0.960 . S
H1881 C1867 0.961 . S
H1882 C1867 0.961 . S
H1883 C1867 0.961 . S
H1884 C1868 0.931 . S
H1885 C1873 0.930 . S
H1886 C1874 0.956 . S
H1887 C1874 0.961 . S
H1888 C1874 0.961 . S
H1889 C1875 0.958 . S
H1890 C1875 0.961 . S
H1891 C1875 0.960 . S
C1892 C1893 1.391 . S
C1892 C1894 1.394 . S
C1892 H1908 0.931 . S
C1893 C1892 1.391 . S
C1893 C1897 1.376 . S
C1894 C1892 1.394 . S
C1894 C1895 1.369 . S
C1894 C1898 1.531 . S
C1895 C1894 1.369 . S
C1895 C1896 1.410 . S
C1895 C1903 1.503 . S
C1896 C1895 1.410 . S
C1896 C1897 1.392 . S
C1896 C1899 1.511 . S
C1897 C1893 1.376 . S
C1897 C1896 1.392 . S
C1897 H1909 0.929 . S
C1898 C1894 1.531 . S
C1898 H1910 0.960 . S
C1898 H1911 0.962 . S
C1898 H1912 0.960 . S
C1899 C1896 1.511 . S
C1899 H1913 0.961 . S
C1899 H1914 0.961 . S
C1899 H1915 0.961 . S
C1900 C1901 1.370 . S
C1900 C1902 1.363 . S
C1900 H1916 0.931 . S
C1901 C1900 1.370 . S
C1901 C1905 1.408 . S
C1902 C1900 1.363 . S
C1902 C1903 1.370 . S
C1902 C1906 1.524 . S
C1903 C1895 1.503 . S
C1903 C1902 1.370 . S
C1903 C1904 1.403 . S
C1904 C1903 1.403 . S
C1904 C1905 1.404 . S
C1904 C1907 1.539 . S
C1905 C1901 1.408 . S
C1905 C1904 1.404 . S
C1905 H1917 0.930 . S
C1906 C1902 1.524 . S
C1906 H1918 0.956 . S
C1906 H1919 0.961 . S
C1906 H1920 0.961 . S
C1907 C1904 1.539 . S
C1907 H1921 0.958 . S
C1907 H1922 0.961 . S
C1907 H1923 0.960 . S
H1908 C1892 0.931 . S
H1909 C1897 0.929 . S
H1910 C1898 0.960 . S
H1911 C1898 0.962 . S
H1912 C1898 0.960 . S
H1913 C1899 0.961 . S
H1914 C1899 0.961 . S
H1915 C1899 0.961 . S
H1916 C1900 0.931 . S
H1917 C1905 0.930 . S
H1918 C1906 0.956 . S
H1919 C1906 0.961 . S
H1920 C1906 0.961 . S
H1921 C1907 0.958 . S
H1922 C1907 0.961 . S
H1923 C1907 0.960 . S
C1924 C1925 1.391 . S
C1924 C1926 1.394 . S
C1924 H1940 0.931 . S
C1925 C1924 1.391 . S
C1925 C1929 1.376 . S
C1926 C1924 1.394 . S
C1926 C1927 1.369 . S
C1926 C1930 1.531 . S
C1927 C1926 1.369 . S
C1927 C1928 1.410 . S
C1927 C1935 1.503 . S
C1928 C1927 1.410 . S
C1928 C1929 1.392 . S
C1928 C1931 1.511 . S
C1929 C1925 1.376 . S
C1929 C1928 1.392 . S
C1929 H1941 0.929 . S
C1930 C1926 1.531 . S
C1930 H1942 0.960 . S
C1930 H1943 0.962 . S
C1930 H1944 0.960 . S
C1931 C1928 1.511 . S
C1931 H1945 0.961 . S
C1931 H1946 0.961 . S
C1931 H1947 0.961 . S
C1932 C1933 1.370 . S
C1932 C1934 1.363 . S
C1932 H1948 0.931 . S
C1933 C1932 1.370 . S
C1933 C1937 1.408 . S
C1934 C1932 1.363 . S
C1934 C1935 1.370 . S
C1934 C1938 1.524 . S
C1935 C1927 1.503 . S
C1935 C1934 1.370 . S
C1935 C1936 1.403 . S
C1936 C1935 1.403 . S
C1936 C1937 1.404 . S
C1936 C1939 1.539 . S
C1937 C1933 1.408 . S
C1937 C1936 1.404 . S
C1937 H1949 0.930 . S
C1938 C1934 1.524 . S
C1938 H1950 0.956 . S
C1938 H1951 0.961 . S
C1938 H1952 0.961 . S
C1939 C1936 1.539 . S
C1939 H1953 0.958 . S
C1939 H1954 0.961 . S
C1939 H1955 0.960 . S
H1940 C1924 0.931 . S
H1941 C1929 0.929 . S
H1942 C1930 0.960 . S
H1943 C1930 0.962 . S
H1944 C1930 0.960 . S
H1945 C1931 0.961 . S
H1946 C1931 0.961 . S
H1947 C1931 0.961 . S
H1948 C1932 0.931 . S
H1949 C1937 0.930 . S
H1950 C1938 0.956 . S
H1951 C1938 0.961 . S
H1952 C1938 0.961 . S
H1953 C1939 0.958 . S
H1954 C1939 0.961 . S
H1955 C1939 0.960 . S
C1956 C1957 1.391 . S
C1956 C1958 1.394 . S
C1956 H1972 0.931 . S
C1957 C1956 1.391 . S
C1957 C1961 1.376 . S
C1958 C1956 1.394 . S
C1958 C1959 1.369 . S
C1958 C1962 1.531 . S
C1959 C1958 1.369 . S
C1959 C1960 1.410 . S
C1959 C1967 1.503 . S
C1960 C1959 1.410 . S
C1960 C1961 1.392 . S
C1960 C1963 1.511 . S
C1961 C1957 1.376 . S
C1961 C1960 1.392 . S
C1961 H1973 0.929 . S
C1962 C1958 1.531 . S
C1962 H1974 0.960 . S
C1962 H1975 0.962 . S
C1962 H1976 0.960 . S
C1963 C1960 1.511 . S
C1963 H1977 0.961 . S
C1963 H1978 0.961 . S
C1963 H1979 0.961 . S
C1964 C1965 1.370 . S
C1964 C1966 1.363 . S
C1964 H1980 0.931 . S
C1965 C1964 1.370 . S
C1965 C1969 1.408 . S
C1966 C1964 1.363 . S
C1966 C1967 1.370 . S
C1966 C1970 1.524 . S
C1967 C1959 1.503 . S
C1967 C1966 1.370 . S
C1967 C1968 1.403 . S
C1968 C1967 1.403 . S
C1968 C1969 1.404 . S
C1968 C1971 1.539 . S
C1969 C1965 1.408 . S
C1969 C1968 1.404 . S
C1969 H1981 0.930 . S
C1970 C1966 1.524 . S
C1970 H1982 0.956 . S
C1970 H1983 0.961 . S
C1970 H1984 0.961 . S
C1971 C1968 1.539 . S
C1971 H1985 0.958 . S
C1971 H1986 0.961 . S
C1971 H1987 0.960 . S
H1972 C1956 0.931 . S
H1973 C1961 0.929 . S
H1974 C1962 0.960 . S
H1975 C1962 0.962 . S
H1976 C1962 0.960 . S
H1977 C1963 0.961 . S
H1978 C1963 0.961 . S
H1979 C1963 0.961 . S
H1980 C1964 0.931 . S
H1981 C1969 0.930 . S
H1982 C1970 0.956 . S
H1983 C1970 0.961 . S
H1984 C1970 0.961 . S
H1985 C1971 0.958 . S
H1986 C1971 0.961 . S
H1987 C1971 0.960 . S
C1988 C1989 1.391 . S
C1988 C1990 1.394 . S
C1988 H2004 0.931 . S
C1989 C1988 1.391 . S
C1989 C1993 1.376 . S
C1990 C1988 1.394 . S
C1990 C1991 1.369 . S
C1990 C1994 1.531 . S
C1991 C1990 1.369 . S
C1991 C1992 1.410 . S
C1991 C1999 1.503 . S
C1992 C1991 1.410 . S
C1992 C1993 1.392 . S
C1992 C1995 1.511 . S
C1993 C1989 1.376 . S
C1993 C1992 1.392 . S
C1993 H2005 0.929 . S
C1994 C1990 1.531 . S
C1994 H2006 0.960 . S
C1994 H2007 0.962 . S
C1994 H2008 0.960 . S
C1995 C1992 1.511 . S
C1995 H2009 0.961 . S
C1995 H2010 0.961 . S
C1995 H2011 0.961 . S
C1996 C1997 1.370 . S
C1996 C1998 1.363 . S
C1996 H2012 0.931 . S
C1997 C1996 1.370 . S
C1997 C2001 1.408 . S
C1998 C1996 1.363 . S
C1998 C1999 1.370 . S
C1998 C2002 1.524 . S
C1999 C1991 1.503 . S
C1999 C1998 1.370 . S
C1999 C2000 1.403 . S
C2000 C1999 1.403 . S
C2000 C2001 1.404 . S
C2000 C2003 1.539 . S
C2001 C1997 1.408 . S
C2001 C2000 1.404 . S
C2001 H2013 0.930 . S
C2002 C1998 1.524 . S
C2002 H2014 0.956 . S
C2002 H2015 0.961 . S
C2002 H2016 0.961 . S
C2003 C2000 1.539 . S
C2003 H2017 0.958 . S
C2003 H2018 0.961 . S
C2003 H2019 0.960 . S
H2004 C1988 0.931 . S
H2005 C1993 0.929 . S
H2006 C1994 0.960 . S
H2007 C1994 0.962 . S
H2008 C1994 0.960 . S
H2009 C1995 0.961 . S
H2010 C1995 0.961 . S
H2011 C1995 0.961 . S
H2012 C1996 0.931 . S
H2013 C2001 0.930 . S
H2014 C2002 0.956 . S
H2015 C2002 0.961 . S
H2016 C2002 0.961 . S
H2017 C2003 0.958 . S
H2018 C2003 0.961 . S
H2019 C2003 0.960 . S
C2020 C2021 1.391 . S
C2020 C2022 1.394 . S
C2020 H2036 0.931 . S
C2021 C2020 1.391 . S
C2021 C2025 1.376 . S
C2022 C2020 1.394 . S
C2022 C2023 1.369 . S
C2022 C2026 1.531 . S
C2023 C2022 1.369 . S
C2023 C2024 1.410 . S
C2023 C2031 1.503 . S
C2024 C2023 1.410 . S
C2024 C2025 1.392 . S
C2024 C2027 1.511 . S
C2025 C2021 1.376 . S
C2025 C2024 1.392 . S
C2025 H2037 0.929 . S
C2026 C2022 1.531 . S
C2026 H2038 0.960 . S
C2026 H2039 0.962 . S
C2026 H2040 0.960 . S
C2027 C2024 1.511 . S
C2027 H2041 0.961 . S
C2027 H2042 0.961 . S
C2027 H2043 0.961 . S
C2028 C2029 1.370 . S
C2028 C2030 1.363 . S
C2028 H2044 0.931 . S
C2029 C2028 1.370 . S
C2029 C2033 1.408 . S
C2030 C2028 1.363 . S
C2030 C2031 1.370 . S
C2030 C2034 1.524 . S
C2031 C2023 1.503 . S
C2031 C2030 1.370 . S
C2031 C2032 1.403 . S
C2032 C2031 1.403 . S
C2032 C2033 1.404 . S
C2032 C2035 1.539 . S
C2033 C2029 1.408 . S
C2033 C2032 1.404 . S
C2033 H2045 0.930 . S
C2034 C2030 1.524 . S
C2034 H2046 0.956 . S
C2034 H2047 0.961 . S
C2034 H2048 0.961 . S
C2035 C2032 1.539 . S
C2035 H2049 0.958 . S
C2035 H2050 0.961 . S
C2035 H2051 0.960 . S
H2036 C2020 0.931 . S
H2037 C2025 0.929 . S
H2038 C2026 0.960 . S
H2039 C2026 0.962 . S
H2040 C2026 0.960 . S
H2041 C2027 0.961 . S
H2042 C2027 0.961 . S
H2043 C2027 0.961 . S
H2044 C2028 0.931 . S
H2045 C2033 0.930 . S
H2046 C2034 0.956 . S
H2047 C2034 0.961 . S
H2048 C2034 0.961 . S
H2049 C2035 0.958 . S
H2050 C2035 0.961 . S
H2051 C2035 0.960 . S
C613 C104 1.684 . S
C621 C2 1.687 . S
C645 C138 1.670 . S
C653 C36 1.688 . S
C677 C172 1.680 . S
C685 C70 1.688 . S
C709 C67 1.157 . S
C717 C203 1.169 . S
C741 C135 1.156 . S
C749 C101 1.168 . S
C773 C169 1.168 . S
C781 C33 1.170 . S
C805 C308 1.667 . S
C813 C206 1.673 . S
C837 C240 1.662 . S
C845 C342 1.675 . S
C869 C274 1.667 . S
C877 C376 1.673 . S
C901 C271 1.158 . S
C909 C407 1.166 . S
C933 C305 1.156 . S
C941 C339 1.168 . S
C965 C373 1.168 . S
C973 C237 1.164 . S
C997 C410 1.657 . S
C1005 C512 1.679 . S
C1029 C546 1.668 . S
C1037 C444 1.688 . S
C1061 C478 1.693 . S
C1069 C580 1.683 . S
C1093 C475 1.167 . S
C1101 C611 1.164 . S
C1125 C543 1.156 . S
C1133 C509 1.168 . S
C1157 C441 1.156 . S
C1165 C577 1.168 . S
C1189 C20 1.794 . S
C1197 C598 1.799 . S
C1221 C530 1.791 . S
C1229 C54 1.793 . S
C1253 C564 1.798 . S
C1261 C88 1.796 . S
C1285 C258 1.786 . S
C1293 C122 1.797 . S
C1317 C292 1.787 . S
C1325 C156 1.797 . S
C1349 C224 1.795 . S
C1357 C190 1.800 . S
C1381 C462 1.785 . S
C1389 C326 1.791 . S
C1413 C496 1.780 . S
C1421 C360 1.792 . S
C1445 C394 1.795 . S
C1453 C428 1.800 . S
C1477 C5 1.344 . S
C1485 C9 1.306 . S
C1509 C39 1.360 . S
C1517 C43 1.304 . S
C1541 C73 1.366 . S
C1549 C77 1.279 . S
C1573 C111 1.246 . S
C1581 C107 1.371 . S
C1605 C145 1.328 . S
C1613 C141 1.358 . S
C1637 C175 1.382 . S
C1645 C179 1.277 . S
C1669 C209 1.381 1_554 S
C1677 C213 1.279 . S
C1701 C247 1.266 . S
C1709 C243 1.373 1_554 S
C1733 C281 1.334 . S
C1741 C277 1.359 1_554 S
C1765 C311 1.369 . S
C1773 C315 1.296 . S
C1797 C345 1.347 . S
C1805 C349 1.311 . S
C1829 C379 1.374 . S
C1837 C383 1.274 . S
C1861 C413 1.347 . S
C1869 C417 1.300 . S
C1893 C447 1.344 . S
C1901 C451 1.311 . S
C1925 C485 1.243 . S
C1933 C481 1.373 . S
C1957 C515 1.375 1_556 S
C1965 C519 1.289 . S
C1989 C553 1.316 . S
C1997 C549 1.359 1_556 S
C2021 C587 1.328 . S
C2029 C583 1.362 1_556 S
