# Generated by pormake.
# Topology uod, (4)-cn, num edge types: 1
# Building blocks:
#     Node 0, Type 0, BuildingBlock: CEKHIL_clean_sbu_0, # of connection points: 4
#     Node 1, Type 0, BuildingBlock: CEKHIL_clean_sbu_0, # of connection points: 4
#     Node 2, Type 0, BuildingBlock: CEKHIL_clean_sbu_0, # of connection points: 4
#     Node 3, Type 0, BuildingBlock: CEKHIL_clean_sbu_0, # of connection points: 4
#     Node 4, Type 0, BuildingBlock: CEKHIL_clean_sbu_0, # of connection points: 4
#     Node 5, Type 0, BuildingBlock: CEKHIL_clean_sbu_0, # of connection points: 4
#     Node 6, Type 0, BuildingBlock: CEKHIL_clean_sbu_0, # of connection points: 4
#     Node 7, Type 0, BuildingBlock: CEKHIL_clean_sbu_0, # of connection points: 4
#     Node 8, Type 0, BuildingBlock: CEKHIL_clean_sbu_0, # of connection points: 4
#     Node 9, Type 0, BuildingBlock: CEKHIL_clean_sbu_0, # of connection points: 4
#     Node 10, Type 0, BuildingBlock: CEKHIL_clean_sbu_0, # of connection points: 4
#     Node 11, Type 0, BuildingBlock: CEKHIL_clean_sbu_0, # of connection points: 4
#     Node 12, Type 0, BuildingBlock: CEKHIL_clean_sbu_0, # of connection points: 4
#     Node 13, Type 0, BuildingBlock: CEKHIL_clean_sbu_0, # of connection points: 4
#     Node 14, Type 0, BuildingBlock: CEKHIL_clean_sbu_0, # of connection points: 4
#     Node 15, Type 0, BuildingBlock: CEKHIL_clean_sbu_0, # of connection points: 4
#     Node 16, Type 0, BuildingBlock: CEKHIL_clean_sbu_0, # of connection points: 4
#     Node 17, Type 0, BuildingBlock: CEKHIL_clean_sbu_0, # of connection points: 4
#     Node 18, Type 0, BuildingBlock: CEKHIL_clean_sbu_0, # of connection points: 4
#     Node 19, Type 0, BuildingBlock: CEKHIL_clean_sbu_0, # of connection points: 4
#     Node 20, Type 0, BuildingBlock: CEKHIL_clean_sbu_0, # of connection points: 4
#     Node 21, Type 0, BuildingBlock: CEKHIL_clean_sbu_0, # of connection points: 4
#     Node 22, Type 0, BuildingBlock: CEKHIL_clean_sbu_0, # of connection points: 4
#     Node 23, Type 0, BuildingBlock: CEKHIL_clean_sbu_0, # of connection points: 4
#     Node 24, Type 0, BuildingBlock: CEKHIL_clean_sbu_0, # of connection points: 4
#     Node 25, Type 0, BuildingBlock: CEKHIL_clean_sbu_0, # of connection points: 4
#     Node 26, Type 0, BuildingBlock: CEKHIL_clean_sbu_0, # of connection points: 4
#     Node 27, Type 0, BuildingBlock: CEKHIL_clean_sbu_0, # of connection points: 4
#     Node 28, Type 0, BuildingBlock: CEKHIL_clean_sbu_0, # of connection points: 4
#     Node 29, Type 0, BuildingBlock: CEKHIL_clean_sbu_0, # of connection points: 4
#     Node 30, Type 0, BuildingBlock: CEKHIL_clean_sbu_0, # of connection points: 4
#     Node 31, Type 0, BuildingBlock: CEKHIL_clean_sbu_0, # of connection points: 4
#     Edge 32, Type (0, 0), BuildingBlock: XIVTED_clean_linker_0, # of connection points: 2
#     Edge 33, Type (0, 0), BuildingBlock: XIVTED_clean_linker_0, # of connection points: 2
#     Edge 34, Type (0, 0), BuildingBlock: XIVTED_clean_linker_0, # of connection points: 2
#     Edge 35, Type (0, 0), BuildingBlock: XIVTED_clean_linker_0, # of connection points: 2
#     Edge 36, Type (0, 0), BuildingBlock: XIVTED_clean_linker_0, # of connection points: 2
#     Edge 37, Type (0, 0), BuildingBlock: XIVTED_clean_linker_0, # of connection points: 2
#     Edge 38, Type (0, 0), BuildingBlock: XIVTED_clean_linker_0, # of connection points: 2
#     Edge 39, Type (0, 0), BuildingBlock: XIVTED_clean_linker_0, # of connection points: 2
#     Edge 40, Type (0, 0), BuildingBlock: XIVTED_clean_linker_0, # of connection points: 2
#     Edge 41, Type (0, 0), BuildingBlock: XIVTED_clean_linker_0, # of connection points: 2
#     Edge 42, Type (0, 0), BuildingBlock: XIVTED_clean_linker_0, # of connection points: 2
#     Edge 43, Type (0, 0), BuildingBlock: XIVTED_clean_linker_0, # of connection points: 2
#     Edge 44, Type (0, 0), BuildingBlock: XIVTED_clean_linker_0, # of connection points: 2
#     Edge 45, Type (0, 0), BuildingBlock: XIVTED_clean_linker_0, # of connection points: 2
#     Edge 46, Type (0, 0), BuildingBlock: XIVTED_clean_linker_0, # of connection points: 2
#     Edge 47, Type (0, 0), BuildingBlock: XIVTED_clean_linker_0, # of connection points: 2
#     Edge 48, Type (0, 0), BuildingBlock: XIVTED_clean_linker_0, # of connection points: 2
#     Edge 49, Type (0, 0), BuildingBlock: XIVTED_clean_linker_0, # of connection points: 2
#     Edge 50, Type (0, 0), BuildingBlock: XIVTED_clean_linker_0, # of connection points: 2
#     Edge 51, Type (0, 0), BuildingBlock: XIVTED_clean_linker_0, # of connection points: 2
#     Edge 52, Type (0, 0), BuildingBlock: XIVTED_clean_linker_0, # of connection points: 2
#     Edge 53, Type (0, 0), BuildingBlock: XIVTED_clean_linker_0, # of connection points: 2
#     Edge 54, Type (0, 0), BuildingBlock: XIVTED_clean_linker_0, # of connection points: 2
#     Edge 55, Type (0, 0), BuildingBlock: XIVTED_clean_linker_0, # of connection points: 2
#     Edge 56, Type (0, 0), BuildingBlock: XIVTED_clean_linker_0, # of connection points: 2
#     Edge 57, Type (0, 0), BuildingBlock: XIVTED_clean_linker_0, # of connection points: 2
#     Edge 58, Type (0, 0), BuildingBlock: XIVTED_clean_linker_0, # of connection points: 2
#     Edge 59, Type (0, 0), BuildingBlock: XIVTED_clean_linker_0, # of connection points: 2
#     Edge 60, Type (0, 0), BuildingBlock: XIVTED_clean_linker_0, # of connection points: 2
#     Edge 61, Type (0, 0), BuildingBlock: XIVTED_clean_linker_0, # of connection points: 2
#     Edge 62, Type (0, 0), BuildingBlock: XIVTED_clean_linker_0, # of connection points: 2
#     Edge 63, Type (0, 0), BuildingBlock: XIVTED_clean_linker_0, # of connection points: 2
#     Edge 64, Type (0, 0), BuildingBlock: XIVTED_clean_linker_0, # of connection points: 2
#     Edge 65, Type (0, 0), BuildingBlock: XIVTED_clean_linker_0, # of connection points: 2
#     Edge 66, Type (0, 0), BuildingBlock: XIVTED_clean_linker_0, # of connection points: 2
#     Edge 67, Type (0, 0), BuildingBlock: XIVTED_clean_linker_0, # of connection points: 2
#     Edge 68, Type (0, 0), BuildingBlock: XIVTED_clean_linker_0, # of connection points: 2
#     Edge 69, Type (0, 0), BuildingBlock: XIVTED_clean_linker_0, # of connection points: 2
#     Edge 70, Type (0, 0), BuildingBlock: XIVTED_clean_linker_0, # of connection points: 2
#     Edge 71, Type (0, 0), BuildingBlock: XIVTED_clean_linker_0, # of connection points: 2
#     Edge 72, Type (0, 0), BuildingBlock: XIVTED_clean_linker_0, # of connection points: 2
#     Edge 73, Type (0, 0), BuildingBlock: XIVTED_clean_linker_0, # of connection points: 2
#     Edge 74, Type (0, 0), BuildingBlock: XIVTED_clean_linker_0, # of connection points: 2
#     Edge 75, Type (0, 0), BuildingBlock: XIVTED_clean_linker_0, # of connection points: 2
#     Edge 76, Type (0, 0), BuildingBlock: XIVTED_clean_linker_0, # of connection points: 2
#     Edge 77, Type (0, 0), BuildingBlock: XIVTED_clean_linker_0, # of connection points: 2
#     Edge 78, Type (0, 0), BuildingBlock: XIVTED_clean_linker_0, # of connection points: 2
#     Edge 79, Type (0, 0), BuildingBlock: XIVTED_clean_linker_0, # of connection points: 2
#     Edge 80, Type (0, 0), BuildingBlock: XIVTED_clean_linker_0, # of connection points: 2
#     Edge 81, Type (0, 0), BuildingBlock: XIVTED_clean_linker_0, # of connection points: 2
#     Edge 82, Type (0, 0), BuildingBlock: XIVTED_clean_linker_0, # of connection points: 2
#     Edge 83, Type (0, 0), BuildingBlock: XIVTED_clean_linker_0, # of connection points: 2
#     Edge 84, Type (0, 0), BuildingBlock: XIVTED_clean_linker_0, # of connection points: 2
#     Edge 85, Type (0, 0), BuildingBlock: XIVTED_clean_linker_0, # of connection points: 2
#     Edge 86, Type (0, 0), BuildingBlock: XIVTED_clean_linker_0, # of connection points: 2
#     Edge 87, Type (0, 0), BuildingBlock: XIVTED_clean_linker_0, # of connection points: 2
#     Edge 88, Type (0, 0), BuildingBlock: XIVTED_clean_linker_0, # of connection points: 2
#     Edge 89, Type (0, 0), BuildingBlock: XIVTED_clean_linker_0, # of connection points: 2
#     Edge 90, Type (0, 0), BuildingBlock: XIVTED_clean_linker_0, # of connection points: 2
#     Edge 91, Type (0, 0), BuildingBlock: XIVTED_clean_linker_0, # of connection points: 2
#     Edge 92, Type (0, 0), BuildingBlock: XIVTED_clean_linker_0, # of connection points: 2
#     Edge 93, Type (0, 0), BuildingBlock: XIVTED_clean_linker_0, # of connection points: 2
#     Edge 94, Type (0, 0), BuildingBlock: XIVTED_clean_linker_0, # of connection points: 2
#     Edge 95, Type (0, 0), BuildingBlock: XIVTED_clean_linker_0, # of connection points: 2
# Relax obj value: 0.167
# Max RMSD: 0.163
# Mean RMSD: 0.163
data_MOF--net-uod--node1-CEKHIL_clean_sbu_0--edge1-XIVTED_clean_linker_0
_symmetry_space_group_name_H-M    P1
_symmetry_Int_Tables_number       1
_symmetry_cell_setting            triclinic
loop_
_symmetry_equiv_pos_as_xyz
'x, y, z'
_cell_length_a     92.33681
_cell_length_b     26.349489
_cell_length_c     60.2712
_cell_angle_alpha  90.007031
_cell_angle_beta   89.985299
_cell_angle_gamma 90.00276
loop_
_atom_site_label
_atom_site_type_symbol
_atom_site_fract_x
_atom_site_fract_y
_atom_site_fract_z
_atom_type_partial_charge
Co0 Co 0.05236 0.37293 0.08553 0.0
O1 O 0.03463 0.36689 0.06887 0.0
O2 O 0.0537 0.41124 0.05806 0.0
C3 C 0.05476 0.2915 0.09558 0.0
O4 O 0.0726 0.38621 0.09851 0.0
Co5 Co 0.0512 0.35195 0.13639 0.0
O6 O 0.0725 0.36087 0.13427 0.0
C7 C 0.0369 0.44115 0.11822 0.0
C8 C 0.04029 0.39793 0.05458 0.0
C9 C 0.07909 0.37779 0.11718 0.0
O10 O 0.04415 0.43453 0.10029 0.0
O11 O 0.03713 0.4098 0.13441 0.0
O12 O 0.0589 0.30566 0.07586 0.0
O13 O 0.0478 0.32503 0.10691 0.0
Co14 Co 0.2113 0.86451 0.08497 0.0
O15 O 0.22892 0.86982 0.06799 0.0
O16 O 0.20967 0.82589 0.05764 0.0
C17 C 0.20914 0.94619 0.0948 0.0
O18 O 0.19113 0.85187 0.09831 0.0
Co19 Co 0.21279 0.88615 0.13573 0.0
O20 O 0.19145 0.87784 0.13397 0.0
C21 C 0.22673 0.7961 0.11764 0.0
C22 C 0.22307 0.83876 0.05389 0.0
C23 C 0.18475 0.86074 0.11703 0.0
O24 O 0.21948 0.80289 0.09974 0.0
O25 O 0.22663 0.82755 0.1338 0.0
O26 O 0.20483 0.93171 0.07522 0.0
O27 O 0.21611 0.91269 0.10615 0.0
Co28 Co 0.05018 0.86329 0.16848 0.0
O29 O 0.03258 0.86902 0.18549 0.0
O30 O 0.0518 0.82498 0.19589 0.0
C31 C 0.0525 0.94474 0.15842 0.0
O32 O 0.07034 0.8503 0.15514 0.0
Co33 Co 0.0487 0.88444 0.11766 0.0
O34 O 0.07004 0.87628 0.11949 0.0
C35 C 0.03483 0.79435 0.13582 0.0
C36 C 0.03841 0.83807 0.19966 0.0
C37 C 0.07673 0.85919 0.13644 0.0
O38 O 0.04194 0.80159 0.15383 0.0
O39 O 0.03497 0.82558 0.11958 0.0
O40 O 0.05676 0.93051 0.17806 0.0
O41 O 0.04544 0.91128 0.1472 0.0
Co42 Co 0.21366 0.37389 0.16835 0.0
O43 O 0.23125 0.36857 0.18538 0.0
O44 O 0.21205 0.41303 0.19555 0.0
C45 C 0.21132 0.29211 0.15879 0.0
O46 O 0.19351 0.38663 0.15494 0.0
Co47 Co 0.21515 0.3513 0.11767 0.0
O48 O 0.19381 0.35957 0.11944 0.0
C49 C 0.22892 0.44218 0.13527 0.0
C50 C 0.22544 0.39995 0.19939 0.0
C51 C 0.18712 0.37724 0.13628 0.0
O52 O 0.22191 0.43515 0.15338 0.0
O53 O 0.22875 0.41065 0.11914 0.0
O54 O 0.20705 0.30704 0.17833 0.0
O55 O 0.21839 0.32519 0.14734 0.0
Co56 Co 0.96302 0.61647 0.91974 0.0
O57 O 0.98066 0.62209 0.93661 0.0
O58 O 0.96162 0.57699 0.9469 0.0
C59 C 0.96055 0.69833 0.91036 0.0
O60 O 0.94286 0.60342 0.90641 0.0
Co61 Co 0.96448 0.63961 0.86909 0.0
O62 O 0.94317 0.63017 0.87085 0.0
C63 C 0.9785 0.54915 0.88655 0.0
C64 C 0.97499 0.59042 0.95061 0.0
C65 C 0.93649 0.61243 0.88769 0.0
O66 O 0.97133 0.55553 0.90457 0.0
O67 O 0.97836 0.58109 0.87058 0.0
O68 O 0.95634 0.68318 0.9299 0.0
O69 O 0.96761 0.66543 0.89882 0.0
Co70 Co 0.8021 0.12364 0.91939 0.0
O71 O 0.78443 0.11776 0.93624 0.0
O72 O 0.80351 0.16253 0.94668 0.0
C73 C 0.80458 0.04205 0.90964 0.0
O74 O 0.82228 0.13694 0.90616 0.0
Co75 Co 0.8008 0.10164 0.86863 0.0
O76 O 0.82211 0.11073 0.87053 0.0
C77 C 0.78654 0.19124 0.88652 0.0
C78 C 0.79013 0.14919 0.95034 0.0
C79 C 0.82872 0.12815 0.88749 0.0
O80 O 0.79377 0.18482 0.90447 0.0
O81 O 0.78678 0.15972 0.87039 0.0
O82 O 0.80876 0.05673 0.92927 0.0
O83 O 0.79753 0.07518 0.89823 0.0
Co84 Co 0.96341 0.12573 0.83657 0.0
O85 O 0.98111 0.11987 0.81983 0.0
O86 O 0.96199 0.16403 0.80911 0.0
C87 C 0.96105 0.04421 0.84653 0.0
O88 O 0.94319 0.13876 0.84968 0.0
Co89 Co 0.96474 0.1046 0.88737 0.0
O90 O 0.94341 0.11298 0.88537 0.0
C91 C 0.97866 0.19473 0.86932 0.0
C92 C 0.97539 0.15077 0.80554 0.0
C93 C 0.93676 0.13 0.86837 0.0
O94 O 0.97156 0.18747 0.85131 0.0
O95 O 0.97853 0.16338 0.88552 0.0
O96 O 0.95687 0.05858 0.82686 0.0
O97 O 0.96805 0.07764 0.85787 0.0
Co98 Co 0.80206 0.61271 0.8377 0.0
O99 O 0.78459 0.6188 0.82041 0.0
O100 O 0.80382 0.57442 0.81028 0.0
C101 C 0.80437 0.69413 0.84783 0.0
O102 O 0.82211 0.59945 0.85139 0.0
Co103 Co 0.80016 0.63369 0.8885 0.0
O104 O 0.82151 0.62522 0.88707 0.0
C105 C 0.78625 0.54414 0.86993 0.0
C106 C 0.79048 0.58783 0.8063 0.0
C107 C 0.82834 0.6082 0.87023 0.0
O108 O 0.79362 0.55111 0.85216 0.0
O109 O 0.78628 0.57534 0.88619 0.0
O110 O 0.80878 0.67986 0.82826 0.0
O111 O 0.7972 0.66072 0.85892 0.0
Co112 Co 0.0497 0.87036 0.58698 0.0
O113 O 0.03217 0.86501 0.56978 0.0
O114 O 0.05132 0.9101 0.55994 0.0
C115 C 0.05216 0.78843 0.59622 0.0
O116 O 0.06978 0.88322 0.60059 0.0
Co117 Co 0.04807 0.84667 0.63754 0.0
O118 O 0.06941 0.85531 0.63596 0.0
C119 C 0.03434 0.93798 0.62032 0.0
C120 C 0.03798 0.89675 0.55593 0.0
C121 C 0.07613 0.87352 0.61925 0.0
O122 O 0.04132 0.93117 0.60216 0.0
O123 O 0.03449 0.9061 0.63631 0.0
O124 O 0.05645 0.80387 0.57676 0.0
O125 O 0.04498 0.82109 0.60774 0.0
Co126 Co 0.21484 0.36264 0.58766 0.0
O127 O 0.23227 0.36819 0.57021 0.0
O128 O 0.21297 0.32392 0.56038 0.0
C129 C 0.21256 0.44425 0.59754 0.0
O130 O 0.19482 0.34973 0.60148 0.0
Co131 Co 0.21681 0.38463 0.63836 0.0
O132 O 0.19545 0.37627 0.63705 0.0
C133 C 0.23043 0.29402 0.62024 0.0
C134 C 0.22631 0.33705 0.55625 0.0
C135 C 0.18861 0.35884 0.62031 0.0
O136 O 0.22322 0.30117 0.60232 0.0
O137 O 0.23046 0.32556 0.63637 0.0
O138 O 0.20813 0.42967 0.57803 0.0
O139 O 0.21976 0.41102 0.60868 0.0
Co140 Co 0.05385 0.36062 0.66959 0.0
O141 O 0.03617 0.36616 0.68638 0.0
O142 O 0.05535 0.3223 0.69706 0.0
C143 C 0.05601 0.44223 0.65964 0.0
O144 O 0.07407 0.34797 0.65639 0.0
Co145 Co 0.05235 0.38171 0.61879 0.0
O146 O 0.07368 0.37305 0.6206 0.0
C147 C 0.03833 0.2921 0.63712 0.0
C148 C 0.04193 0.33534 0.70064 0.0
C149 C 0.08042 0.35641 0.63761 0.0
O150 O 0.04575 0.29879 0.65487 0.0
O151 O 0.03833 0.32367 0.62101 0.0
O152 O 0.06028 0.42796 0.67928 0.0
O153 O 0.0491 0.40858 0.64832 0.0
Co154 Co 0.21099 0.87279 0.67007 0.0
O155 O 0.22881 0.8671 0.6865 0.0
O156 O 0.20976 0.91119 0.69756 0.0
C157 C 0.20867 0.79123 0.66011 0.0
O158 O 0.19065 0.88562 0.6573 0.0
Co159 Co 0.212 0.85157 0.61921 0.0
O160 O 0.1907 0.86054 0.62149 0.0
C161 C 0.22637 0.94072 0.63728 0.0
C162 C 0.2232 0.89805 0.70087 0.0
C163 C 0.18413 0.87723 0.63865 0.0
O164 O 0.21902 0.93447 0.65514 0.0
O165 O 0.22621 0.909 0.62122 0.0
O166 O 0.2046 0.80539 0.67987 0.0
O167 O 0.2155 0.82488 0.64868 0.0
Co168 Co 0.96289 0.11441 0.41805 0.0
O169 O 0.98032 0.12043 0.43544 0.0
O170 O 0.96111 0.0757 0.44534 0.0
C171 C 0.96051 0.19594 0.40812 0.0
O172 O 0.94289 0.10107 0.40424 0.0
Co173 Co 0.96485 0.13609 0.36731 0.0
O174 O 0.94351 0.12733 0.36863 0.0
C175 C 0.97871 0.04617 0.38561 0.0
C176 C 0.97443 0.08913 0.44941 0.0
C177 C 0.93667 0.10996 0.3854 0.0
O178 O 0.9714 0.05309 0.40346 0.0
O179 O 0.97867 0.0775 0.36941 0.0
O180 O 0.95608 0.18136 0.42764 0.0
O181 O 0.96774 0.16277 0.39697 0.0
Co182 Co 0.79937 0.62474 0.41728 0.0
O183 O 0.78159 0.61871 0.43385 0.0
O184 O 0.80061 0.66331 0.44469 0.0
C185 C 0.80192 0.54324 0.40739 0.0
O186 O 0.81964 0.63805 0.40442 0.0
Co187 Co 0.79838 0.60319 0.36646 0.0
O188 O 0.81969 0.61206 0.36875 0.0
C189 C 0.78419 0.69308 0.3842 0.0
C190 C 0.78721 0.64986 0.44814 0.0
C191 C 0.8262 0.62931 0.38584 0.0
O192 O 0.7912 0.68618 0.40233 0.0
O193 O 0.78448 0.66159 0.36806 0.0
O194 O 0.80596 0.5577 0.42712 0.0
O195 O 0.79493 0.57649 0.39596 0.0
Co196 Co 0.961 0.62528 0.33619 0.0
O197 O 0.97866 0.61973 0.31929 0.0
O198 O 0.95945 0.66374 0.30881 0.0
C199 C 0.95874 0.54372 0.34613 0.0
O200 O 0.9408 0.63817 0.34939 0.0
Co201 Co 0.96229 0.60393 0.387 0.0
O202 O 0.94096 0.61237 0.38507 0.0
C203 C 0.97652 0.69334 0.36883 0.0
C204 C 0.97286 0.65074 0.30512 0.0
C205 C 0.93433 0.62942 0.36804 0.0
O206 O 0.96921 0.68685 0.35096 0.0
O207 O 0.97633 0.66189 0.38499 0.0
O208 O 0.9545 0.55804 0.32648 0.0
O209 O 0.9657 0.57724 0.35746 0.0
Co210 Co 0.80219 0.11436 0.33508 0.0
O211 O 0.78464 0.11992 0.31794 0.0
O212 O 0.80389 0.07587 0.3077 0.0
C213 C 0.80438 0.19593 0.34508 0.0
O214 O 0.82229 0.10151 0.34862 0.0
Co215 Co 0.8004 0.13574 0.38586 0.0
O216 O 0.82173 0.12684 0.38437 0.0
C217 C 0.78637 0.04633 0.3674 0.0
C218 C 0.79051 0.08888 0.30384 0.0
C219 C 0.82854 0.10999 0.36747 0.0
O220 O 0.79391 0.05275 0.34974 0.0
O221 O 0.78631 0.07801 0.38348 0.0
O222 O 0.80876 0.18166 0.32549 0.0
O223 O 0.79733 0.16239 0.35626 0.0
Co224 Co 0.55461 0.3742 0.58484 0.0
O225 O 0.53691 0.36741 0.56821 0.0
O226 O 0.55593 0.41168 0.55712 0.0
C227 C 0.55697 0.29303 0.59532 0.0
O228 O 0.57482 0.38798 0.59788 0.0
Co229 Co 0.55322 0.3549 0.6358 0.0
O230 O 0.57452 0.36424 0.63385 0.0
C231 C 0.53875 0.44277 0.61675 0.0
C232 C 0.54253 0.39806 0.55374 0.0
C233 C 0.5812 0.38043 0.61671 0.0
O234 O 0.54634 0.43616 0.59917 0.0
O235 O 0.53887 0.41183 0.6331 0.0
O236 O 0.56119 0.30671 0.57557 0.0
O237 O 0.55002 0.32691 0.60646 0.0
Co238 Co 0.70963 0.86509 0.58376 0.0
O239 O 0.72748 0.87066 0.56738 0.0
O240 O 0.70838 0.82689 0.55625 0.0
C241 C 0.7074 0.94664 0.5938 0.0
O242 O 0.68928 0.85236 0.59643 0.0
Co243 Co 0.71049 0.88606 0.63465 0.0
O244 O 0.6892 0.87713 0.63227 0.0
C245 C 0.72495 0.79707 0.61652 0.0
C246 C 0.72184 0.8399 0.55296 0.0
C247 C 0.68269 0.86058 0.61504 0.0
O248 O 0.7176 0.80327 0.59867 0.0
O249 O 0.72475 0.82877 0.63259 0.0
O250 O 0.70334 0.93263 0.57402 0.0
O251 O 0.71416 0.91282 0.60523 0.0
Co252 Co 0.54816 0.86306 0.66559 0.0
O253 O 0.53066 0.8678 0.68292 0.0
O254 O 0.54998 0.82332 0.69255 0.0
C255 C 0.55049 0.94497 0.65633 0.0
O256 O 0.56824 0.85071 0.65192 0.0
Co257 Co 0.54651 0.88665 0.61504 0.0
O258 O 0.56787 0.87876 0.61658 0.0
C259 C 0.53287 0.79525 0.6323 0.0
C260 C 0.53661 0.83611 0.69666 0.0
C261 C 0.5746 0.86069 0.6333 0.0
O262 O 0.53985 0.80214 0.65045 0.0
O263 O 0.53303 0.82694 0.61624 0.0
O264 O 0.55482 0.92964 0.67579 0.0
O265 O 0.54333 0.91221 0.64484 0.0
Co266 Co 0.71564 0.3747 0.66644 0.0
O267 O 0.73308 0.36868 0.68379 0.0
O268 O 0.71389 0.41334 0.69377 0.0
C269 C 0.7132 0.29317 0.6565 0.0
O270 O 0.69561 0.388 0.65268 0.0
Co271 Co 0.71756 0.35285 0.61571 0.0
O272 O 0.6962 0.36122 0.61714 0.0
C273 C 0.73109 0.44371 0.63373 0.0
C274 C 0.7272 0.39981 0.69783 0.0
C275 C 0.68938 0.37881 0.63388 0.0
O276 O 0.72406 0.43614 0.6518 0.0
O277 O 0.73106 0.41235 0.61754 0.0
O278 O 0.70882 0.30778 0.67604 0.0
O279 O 0.72046 0.32628 0.64536 0.0
Co280 Co 0.46405 0.60915 0.41828 0.0
O281 O 0.48183 0.61566 0.43474 0.0
O282 O 0.46291 0.57089 0.4458 0.0
C283 C 0.46142 0.69051 0.40826 0.0
O284 O 0.44377 0.59554 0.40547 0.0
Co285 Co 0.46508 0.63012 0.36742 0.0
O286 O 0.44378 0.62108 0.36974 0.0
C287 C 0.47936 0.5407 0.3854 0.0
C288 C 0.4763 0.58464 0.44914 0.0
C289 C 0.43724 0.60405 0.38685 0.0
O290 O 0.47226 0.54762 0.40345 0.0
O291 O 0.47909 0.57208 0.36921 0.0
O292 O 0.45741 0.67621 0.42802 0.0
O293 O 0.46843 0.6572 0.39687 0.0
Co294 Co 0.30221 0.12426 0.41763 0.0
O295 O 0.28471 0.11889 0.43492 0.0
O296 O 0.30403 0.16283 0.44495 0.0
C297 C 0.30439 0.04267 0.4077 0.0
O298 O 0.3223 0.13692 0.404 0.0
Co299 Co 0.30041 0.10267 0.36688 0.0
O300 O 0.32177 0.11086 0.36836 0.0
C301 C 0.28658 0.19268 0.38516 0.0
C302 C 0.29066 0.14991 0.44895 0.0
C303 C 0.32857 0.12793 0.3852 0.0
O304 O 0.29391 0.18585 0.40299 0.0
O305 O 0.2866 0.16125 0.36899 0.0
O306 O 0.30879 0.05706 0.42725 0.0
O307 O 0.2973 0.0761 0.3965 0.0
Co308 Co 0.46319 0.11916 0.33608 0.0
O309 O 0.48073 0.11286 0.31898 0.0
O310 O 0.46162 0.15761 0.30868 0.0
C311 C 0.46072 0.03772 0.34608 0.0
O312 O 0.4431 0.13276 0.34955 0.0
Co313 Co 0.4648 0.09778 0.38687 0.0
O314 O 0.44348 0.10705 0.38524 0.0
C315 C 0.47894 0.18721 0.36859 0.0
C316 C 0.47496 0.14398 0.30483 0.0
C317 C 0.43677 0.12427 0.36834 0.0
O318 O 0.47162 0.18055 0.35074 0.0
O319 O 0.47884 0.15571 0.38473 0.0
O320 O 0.45643 0.05214 0.32648 0.0
O321 O 0.46787 0.07098 0.35729 0.0
Co322 Co 0.30278 0.61341 0.33562 0.0
O323 O 0.28524 0.61941 0.31847 0.0
O324 O 0.30441 0.57479 0.30829 0.0
C325 C 0.30518 0.69494 0.34554 0.0
O326 O 0.32287 0.59995 0.34911 0.0
Co327 Co 0.30122 0.63502 0.38639 0.0
O328 O 0.32255 0.626 0.38475 0.0
C329 C 0.28704 0.54558 0.36818 0.0
C330 C 0.29105 0.58815 0.30441 0.0
C331 C 0.32924 0.6086 0.36785 0.0
O332 O 0.29435 0.55211 0.35031 0.0
O333 O 0.2872 0.57701 0.38435 0.0
O334 O 0.30951 0.68043 0.32596 0.0
O335 O 0.29806 0.66167 0.35679 0.0
Co336 Co 0.55249 0.86905 0.08461 0.0
O337 O 0.53495 0.86312 0.06744 0.0
O338 O 0.55411 0.90771 0.05726 0.0
C339 C 0.55484 0.78755 0.09459 0.0
O340 O 0.57256 0.88236 0.09822 0.0
Co341 Co 0.55063 0.84789 0.13539 0.0
O342 O 0.57196 0.85715 0.13399 0.0
C343 C 0.53645 0.93679 0.11681 0.0
C344 C 0.54074 0.89447 0.05341 0.0
C345 C 0.57879 0.87406 0.11712 0.0
O346 O 0.54406 0.9304 0.09923 0.0
O347 O 0.53646 0.90544 0.133 0.0
O348 O 0.55919 0.80196 0.075 0.0
O349 O 0.54771 0.82088 0.10578 0.0
Co350 Co 0.71169 0.36331 0.08491 0.0
O351 O 0.72933 0.36893 0.06801 0.0
O352 O 0.71018 0.32452 0.05759 0.0
C353 C 0.70938 0.44503 0.09467 0.0
O354 O 0.69152 0.35034 0.09822 0.0
Co355 Co 0.71317 0.38525 0.13565 0.0
O356 O 0.69186 0.37607 0.13392 0.0
C357 C 0.7272 0.29528 0.11766 0.0
C358 C 0.72357 0.33768 0.05389 0.0
C359 C 0.68516 0.35889 0.11698 0.0
O360 O 0.71991 0.30189 0.09978 0.0
O361 O 0.72713 0.32698 0.13373 0.0
O362 O 0.70511 0.43039 0.07508 0.0
O363 O 0.71638 0.41171 0.10604 0.0
Co364 Co 0.55063 0.358 0.16635 0.0
O365 O 0.53308 0.36368 0.18347 0.0
O366 O 0.5523 0.31941 0.19371 0.0
C367 C 0.55292 0.43957 0.15644 0.0
O368 O 0.57073 0.34519 0.1528 0.0
Co369 Co 0.54878 0.37947 0.11561 0.0
O370 O 0.57014 0.37091 0.1171 0.0
C371 C 0.53493 0.28958 0.13393 0.0
C372 C 0.53893 0.33265 0.19758 0.0
C373 C 0.57697 0.35398 0.13396 0.0
O374 O 0.54238 0.29638 0.15165 0.0
O375 O 0.5348 0.32133 0.11788 0.0
O376 O 0.55725 0.42513 0.17602 0.0
O377 O 0.54581 0.40622 0.14522 0.0
Co378 Co 0.71332 0.87322 0.16779 0.0
O379 O 0.73089 0.86832 0.18491 0.0
O380 O 0.71164 0.91269 0.19492 0.0
C381 C 0.71109 0.79126 0.1584 0.0
O382 O 0.69318 0.88545 0.1542 0.0
Co383 Co 0.71511 0.85002 0.11718 0.0
O384 O 0.69376 0.85843 0.11869 0.0
C385 C 0.72875 0.94109 0.13475 0.0
C386 C 0.72503 0.8998 0.19883 0.0
C387 C 0.68693 0.87599 0.13543 0.0
O388 O 0.72153 0.93441 0.1527 0.0
O389 O 0.72878 0.90913 0.11878 0.0
O390 O 0.70676 0.80635 0.17789 0.0
O391 O 0.71816 0.82431 0.14695 0.0
Co392 Co 0.46223 0.11411 0.91999 0.0
O393 O 0.48002 0.11833 0.93668 0.0
O394 O 0.46099 0.0728 0.94664 0.0
C395 C 0.45973 0.19659 0.91167 0.0
O396 O 0.44194 0.102 0.90686 0.0
Co397 Co 0.46321 0.14101 0.86959 0.0
O398 O 0.44198 0.13011 0.8715 0.0
C399 C 0.47741 0.04948 0.88548 0.0
C400 C 0.47439 0.0858 0.95036 0.0
C401 C 0.43544 0.11154 0.8883 0.0
O402 O 0.47042 0.05432 0.90377 0.0
O403 O 0.47713 0.08267 0.87002 0.0
O404 O 0.45569 0.18036 0.93113 0.0
O405 O 0.46666 0.16436 0.89962 0.0
Co406 Co 0.30033 0.62479 0.91772 0.0
O407 O 0.28266 0.61949 0.93456 0.0
O408 O 0.30198 0.66266 0.94524 0.0
C409 C 0.30244 0.54342 0.90747 0.0
O410 O 0.32057 0.63713 0.9046 0.0
Co411 Co 0.29894 0.60447 0.86685 0.0
O412 O 0.32031 0.61161 0.86888 0.0
C413 C 0.2851 0.69431 0.8853 0.0
C414 C 0.28854 0.65001 0.94886 0.0
C415 C 0.327 0.62813 0.88594 0.0
O416 O 0.29235 0.68699 0.90316 0.0
O417 O 0.28512 0.66306 0.86906 0.0
O418 O 0.30668 0.55723 0.92718 0.0
O419 O 0.29551 0.57728 0.89628 0.0
Co420 Co 0.46168 0.62273 0.83572 0.0
O421 O 0.47921 0.61728 0.8185 0.0
O422 O 0.45953 0.65824 0.80769 0.0
C423 C 0.46018 0.54204 0.84727 0.0
O424 O 0.44153 0.63489 0.84909 0.0
Co425 Co 0.46352 0.60625 0.88682 0.0
O426 O 0.44209 0.61193 0.88512 0.0
C427 C 0.47682 0.69547 0.86676 0.0
C428 C 0.473 0.64624 0.80391 0.0
C429 C 0.43523 0.62693 0.86795 0.0
O430 O 0.46946 0.68658 0.84914 0.0
O431 O 0.47709 0.66523 0.88335 0.0
O432 O 0.45562 0.55402 0.82749 0.0
O433 O 0.467 0.57729 0.85775 0.0
Co434 Co 0.30103 0.1144 0.83576 0.0
O435 O 0.28337 0.12048 0.81894 0.0
O436 O 0.30232 0.07507 0.80853 0.0
C437 C 0.30364 0.19608 0.84528 0.0
O438 O 0.32119 0.10093 0.84905 0.0
Co439 Co 0.29964 0.13721 0.88647 0.0
O440 O 0.32093 0.12733 0.88467 0.0
C441 C 0.2853 0.04762 0.86879 0.0
C442 C 0.28897 0.08878 0.80487 0.0
C443 C 0.32758 0.10969 0.86778 0.0
O444 O 0.29262 0.05359 0.85088 0.0
O445 O 0.28548 0.07958 0.88476 0.0
O446 O 0.30779 0.1811 0.82569 0.0
O447 O 0.29654 0.16321 0.85677 0.0
H448 H 0.02579 0.73091 0.16871 0.0
H449 H 0.02755 0.50363 0.0852 0.0
H450 H 0.02654 0.74678 0.09742 0.0
H451 H 0.02797 0.48783 0.15651 0.0
H452 H 0.0192 0.59074 0.08934 0.0
H453 H 0.01854 0.64262 0.16444 0.0
C454 C 0.02421 0.71596 0.15213 0.0
C455 C 0.02731 0.74548 0.13334 0.0
C456 C 0.02084 0.56801 0.1041 0.0
C457 C 0.01916 0.64451 0.12838 0.0
C458 C 0.02569 0.51834 0.10176 0.0
C459 C 0.02899 0.48927 0.12059 0.0
C460 C 0.01955 0.58891 0.12541 0.0
C461 C 0.0259 0.50946 0.14157 0.0
C462 C 0.02 0.6656 0.14972 0.0
C463 C 0.02461 0.72488 0.11232 0.0
N464 N 0.02169 0.5586 0.14344 0.0
N465 N 0.02103 0.67514 0.11039 0.0
H466 H 0.23592 0.73356 0.08454 0.0
H467 H 0.23829 0.50559 0.16793 0.0
H468 H 0.23559 0.74892 0.15586 0.0
H469 H 0.23668 0.49003 0.09666 0.0
H470 H 0.24536 0.59404 0.16354 0.0
H471 H 0.24416 0.64628 0.08853 0.0
C472 C 0.23777 0.71871 0.10107 0.0
C473 C 0.23455 0.74775 0.11995 0.0
C474 C 0.24375 0.5711 0.14883 0.0
C475 C 0.24387 0.64792 0.1246 0.0
C476 C 0.23965 0.52064 0.15132 0.0
C477 C 0.23637 0.49114 0.1326 0.0
C478 C 0.24431 0.5923 0.1275 0.0
C479 C 0.23877 0.51189 0.11152 0.0
C480 C 0.24255 0.66895 0.10332 0.0
C481 C 0.23761 0.72735 0.14089 0.0
N482 N 0.24226 0.56172 0.10953 0.0
N483 N 0.24178 0.67814 0.14268 0.0
H484 H 0.98882 0.2391 0.9075 0.0
H485 H 0.98818 0.50519 0.84799 0.0
H486 H 0.98597 0.2615 0.83664 0.0
H487 H 0.98648 0.48267 0.91892 0.0
H488 H 0.99591 0.41708 0.84358 0.0
H489 H 0.99649 0.32732 0.91159 0.0
C490 C 0.99007 0.26225 0.89278 0.0
C491 C 0.9862 0.24365 0.87181 0.0
C492 C 0.99412 0.43176 0.86014 0.0
C493 C 0.99485 0.34432 0.87636 0.0
C494 C 0.98971 0.48204 0.86265 0.0
C495 C 0.98613 0.50052 0.88376 0.0
C496 C 0.99484 0.40002 0.87887 0.0
C497 C 0.9886 0.46928 0.90224 0.0
C498 C 0.99446 0.3126 0.89511 0.0
C499 C 0.98833 0.27493 0.85324 0.0
N500 N 0.99251 0.4202 0.89933 0.0
N501 N 0.99222 0.32409 0.85599 0.0
H502 H 0.77723 0.48184 0.83664 0.0
H503 H 0.7768 0.25324 0.91942 0.0
H504 H 0.77735 0.49641 0.90799 0.0
H505 H 0.77817 0.23862 0.84811 0.0
H506 H 0.76882 0.34079 0.91532 0.0
H507 H 0.7694 0.39403 0.84042 0.0
C508 C 0.77539 0.46671 0.85313 0.0
C509 C 0.77848 0.49567 0.87209 0.0
C510 C 0.77058 0.31823 0.90055 0.0
C511 C 0.76966 0.39525 0.8765 0.0
C512 C 0.77521 0.2683 0.90287 0.0
C513 C 0.77868 0.23943 0.88404 0.0
C514 C 0.7697 0.33958 0.87927 0.0
C515 C 0.77596 0.26008 0.86304 0.0
C516 C 0.77085 0.41664 0.85526 0.0
C517 C 0.77544 0.47491 0.89297 0.0
N518 N 0.77196 0.30946 0.8612 0.0
N519 N 0.77154 0.42541 0.89464 0.0
H520 H 0.02556 0.98305 0.65914 0.0
H521 H 0.02721 0.24875 0.59933 0.0
H522 H 0.02631 0.00486 0.58813 0.0
H523 H 0.03106 0.226 0.67006 0.0
H524 H 0.01843 0.1617 0.59563 0.0
H525 H 0.01894 0.0722 0.6637 0.0
C526 C 0.02403 0.00628 0.6445 0.0
C527 C 0.02706 0.98722 0.62329 0.0
C528 C 0.02094 0.17612 0.61201 0.0
C529 C 0.01964 0.0889 0.62836 0.0
C530 C 0.02598 0.22578 0.61412 0.0
C531 C 0.03042 0.24385 0.6349 0.0
C532 C 0.02046 0.14455 0.6308 0.0
C533 C 0.02827 0.21289 0.65357 0.0
C534 C 0.02026 0.05717 0.6471 0.0
C535 C 0.02461 0.01863 0.60486 0.0
N536 N 0.02372 0.16438 0.65102 0.0
N537 N 0.02135 0.06827 0.60785 0.0
H538 H 0.2373 0.98323 0.5992 0.0
H539 H 0.24011 0.24926 0.6586 0.0
H540 H 0.23408 0.00692 0.66995 0.0
H541 H 0.23769 0.22681 0.58771 0.0
H542 H 0.24686 0.1602 0.66293 0.0
H543 H 0.24623 0.07 0.59511 0.0
C544 C 0.23871 0.00634 0.6139 0.0
C545 C 0.2344 0.98867 0.63482 0.0
C546 C 0.24514 0.17508 0.64639 0.0
C547 C 0.24452 0.0876 0.63028 0.0
C548 C 0.24129 0.22591 0.64392 0.0
C549 C 0.23776 0.24476 0.62286 0.0
C550 C 0.24533 0.14319 0.62769 0.0
C551 C 0.23979 0.21321 0.60436 0.0
C552 C 0.24383 0.05583 0.61158 0.0
C553 C 0.23677 0.01976 0.65338 0.0
N554 N 0.24314 0.16361 0.60725 0.0
N555 N 0.2414 0.06812 0.65062 0.0
H556 H 0.98782 0.9834 0.41867 0.0
H557 H 0.98605 0.75518 0.33573 0.0
H558 H 0.98715 -0.00168 0.34734 0.0
H559 H 0.98542 0.74034 0.40706 0.0
H560 H 0.99454 0.84218 0.33969 0.0
H561 H 0.99512 0.89509 0.41465 0.0
C562 C 0.98944 0.96824 0.40213 0.0
C563 C 0.98634 -0.00253 0.38326 0.0
C564 C 0.99282 0.81968 0.35449 0.0
C565 C 0.99453 0.89649 0.37858 0.0
C566 C 0.98789 0.77009 0.35225 0.0
C567 C 0.9845 0.74134 0.37115 0.0
C568 C 0.99409 0.84085 0.37576 0.0
C569 C 0.98756 0.76174 0.39209 0.0
C570 C 0.99367 0.91787 0.39986 0.0
C571 C 0.98908 0.97664 0.3623 0.0
N572 N 0.99185 0.81082 0.39386 0.0
N573 N 0.99268 0.92688 0.3605 0.0
H574 H 0.77466 0.73735 0.34564 0.0
H575 H 0.77531 0.00316 0.40525 0.0
H576 H 0.77629 0.75975 0.41659 0.0
H577 H 0.77906 0.98014 0.33452 0.0
H578 H 0.76683 0.91579 0.40911 0.0
H579 H 0.76734 0.82584 0.34121 0.0
C580 C 0.7732 0.76056 0.36031 0.0
C581 C 0.77666 0.74192 0.38143 0.0
C582 C 0.76924 0.93023 0.3927 0.0
C583 C 0.76842 0.84284 0.37649 0.0
C584 C 0.7741 0.98006 0.3905 0.0
C585 C 0.77845 -0.00188 0.36967 0.0
C586 C 0.76885 0.8985 0.37396 0.0
C587 C 0.77634 0.96702 0.35104 0.0
C588 C 0.76901 0.81105 0.35778 0.0
C589 C 0.77426 0.77324 0.3999 0.0
N590 N 0.77197 0.91834 0.35368 0.0
N591 N 0.77059 0.82255 0.39697 0.0
H592 H 0.52292 0.73248 0.66475 0.0
H593 H 0.52957 0.50303 0.58287 0.0
H594 H 0.52609 0.74627 0.59355 0.0
H595 H 0.52865 0.48995 0.65427 0.0
H596 H 0.52014 0.58902 0.58592 0.0
H597 H 0.51661 0.64329 0.66048 0.0
C598 C 0.52203 0.71687 0.64817 0.0
C599 C 0.52557 0.7461 0.62948 0.0
C600 C 0.52174 0.5671 0.60093 0.0
C601 C 0.51855 0.64413 0.62452 0.0
C602 C 0.52721 0.5181 0.59921 0.0
C603 C 0.53042 0.49019 0.61843 0.0
C604 C 0.51971 0.58855 0.622 0.0
C605 C 0.52667 0.51073 0.63908 0.0
C606 C 0.51838 0.66599 0.64574 0.0
C607 C 0.52379 0.72463 0.6084 0.0
N608 N 0.52183 0.55927 0.64036 0.0
N609 N 0.52076 0.67442 0.6065 0.0
H610 H 0.73616 0.75509 0.65451 0.0
H611 H 0.74028 0.48904 0.59522 0.0
H612 H 0.73264 0.73087 0.58384 0.0
H613 H 0.73827 0.51137 0.66615 0.0
H614 H 0.74638 0.57862 0.59074 0.0
H615 H 0.74555 0.6689 0.65854 0.0
C616 C 0.73759 0.73198 0.63981 0.0
C617 C 0.73308 0.74933 0.61894 0.0
C618 C 0.7449 0.56363 0.60732 0.0
C619 C 0.74376 0.65107 0.62341 0.0
C620 C 0.74143 0.51248 0.60987 0.0
C621 C 0.73818 0.49337 0.631 0.0
C622 C 0.74499 0.59557 0.626 0.0
C623 C 0.74015 0.52512 0.64946 0.0
C624 C 0.74298 0.68284 0.6421 0.0
C625 C 0.73548 0.71827 0.60038 0.0
N626 N 0.74311 0.575 0.64649 0.0
N627 N 0.74039 0.67025 0.6031 0.0
H628 H 0.48939 0.49669 0.34706 0.0
H629 H 0.48939 0.23097 0.40672 0.0
H630 H 0.48709 0.47427 0.41797 0.0
H631 H 0.4865 0.25349 0.33588 0.0
H632 H 0.49737 0.31885 0.41079 0.0
H633 H 0.49717 0.40862 0.34283 0.0
C634 C 0.49079 0.47358 0.36177 0.0
C635 C 0.48703 0.49207 0.3828 0.0
C636 C 0.49526 0.30421 0.39431 0.0
C637 C 0.49579 0.39161 0.37809 0.0
C638 C 0.4907 0.25406 0.39199 0.0
C639 C 0.48671 0.23568 0.37104 0.0
C640 C 0.49572 0.33592 0.37557 0.0
C641 C 0.48894 0.26683 0.35246 0.0
C642 C 0.49524 0.42332 0.35935 0.0
C643 C 0.48936 0.46088 0.40133 0.0
N644 N 0.493 0.31581 0.35521 0.0
N645 N 0.4933 0.41179 0.3985 0.0
H646 H 0.27765 0.48324 0.33514 0.0
H647 H 0.27747 0.25539 0.41825 0.0
H648 H 0.27829 0.4985 0.40646 0.0
H649 H 0.27789 0.24009 0.34693 0.0
H650 H 0.26968 0.34317 0.41423 0.0
H651 H 0.26964 0.3957 0.33921 0.0
C652 C 0.27589 0.46832 0.35169 0.0
C653 C 0.27917 0.49737 0.37054 0.0
C654 C 0.27119 0.32042 0.39944 0.0
C655 C 0.27015 0.39725 0.37528 0.0
C656 C 0.27571 0.27036 0.40172 0.0
C657 C 0.27886 0.2412 0.38284 0.0
C658 C 0.27009 0.3416 0.37815 0.0
C659 C 0.27593 0.26176 0.36189 0.0
C660 C 0.27125 0.4184 0.35399 0.0
C661 C 0.27623 0.4769 0.39151 0.0
N662 N 0.27205 0.31125 0.36008 0.0
N663 N 0.27223 0.42753 0.39334 0.0
H664 H 0.52163 0.25038 0.09684 0.0
H665 H 0.52725 -0.00254 0.0832 0.0
H666 H 0.53037 0.21779 0.16577 0.0
H667 H 0.527 0.98468 0.15457 0.0
H668 H 0.51908 0.08415 0.08625 0.0
H669 H 0.51358 0.1633 0.09182 0.0
C670 C 0.52179 0.22492 0.11095 0.0
C671 C 0.52737 0.24065 0.13146 0.0
C672 C 0.52037 0.06265 0.10136 0.0
C673 C 0.51873 0.14019 0.12571 0.0
C674 C 0.52521 0.01286 0.09958 0.0
C675 C 0.52836 0.98464 0.1187 0.0
C676 C 0.51886 0.08457 0.1225 0.0
C677 C 0.52505 0.00565 0.13942 0.0
C678 C 0.51731 0.1748 0.10804 0.0
C679 C 0.52677 0.2067 0.14937 0.0
N680 N 0.52082 0.05488 0.14078 0.0
N681 N 0.52287 0.15781 0.14595 0.0
H682 H 0.73838 0.9855 0.09626 0.0
H683 H 0.73764 0.25161 0.15581 0.0
H684 H 0.73639 0.00794 0.16718 0.0
H685 H 0.73474 0.22886 0.08498 0.0
H686 H 0.74579 0.1639 0.15989 0.0
H687 H 0.7457 0.07404 0.09191 0.0
C688 C 0.73976 0.00873 0.11094 0.0
C689 C 0.73621 0.99007 0.13202 0.0
C690 C 0.74363 0.17845 0.14341 0.0
C691 C 0.74446 0.09104 0.12718 0.0
C692 C 0.73897 0.2285 0.14109 0.0
C693 C 0.73495 0.24678 0.12014 0.0
C694 C 0.74416 0.14673 0.12467 0.0
C695 C 0.7372 0.21561 0.10157 0.0
C696 C 0.74394 0.05926 0.10846 0.0
C697 C 0.73849 0.02144 0.15052 0.0
N698 N 0.74137 0.16674 0.10431 0.0
N699 N 0.74218 0.07075 0.14763 0.0
H700 H 0.48933 0.73908 0.90343 0.0
H701 H 0.48553 0.0073 0.84578 0.0
H702 H 0.48161 0.76399 0.83357 0.0
H703 H 0.4867 0.98195 0.91655 0.0
H704 H 0.49296 0.9193 0.83995 0.0
H705 H 0.4972 0.82715 0.90687 0.0
C706 C 0.4895 0.76277 0.88875 0.0
C707 C 0.48424 0.74483 0.86839 0.0
C708 C 0.49189 0.93336 0.85676 0.0
C709 C 0.49316 0.84535 0.87222 0.0
C710 C 0.48766 0.98356 0.86009 0.0
C711 C 0.48497 0.00116 0.88164 0.0
C712 C 0.49336 0.90091 0.87513 0.0
C713 C 0.48815 0.96921 0.8996 0.0
C714 C 0.49403 0.81302 0.89071 0.0
C715 C 0.48507 0.77682 0.84979 0.0
N716 N 0.4919 0.92025 0.89593 0.0
N717 N 0.48913 0.82589 0.85225 0.0
H718 H 0.27449 0.73859 0.8474 0.0
H719 H 0.27542 0.00399 0.90728 0.0
H720 H 0.27799 0.76077 0.9182 0.0
H721 H 0.27706 0.98179 0.83633 0.0
H722 H 0.26748 0.91611 0.9116 0.0
H723 H 0.26659 0.82662 0.84357 0.0
C724 C 0.27334 0.76165 0.86217 0.0
C725 C 0.27747 0.7431 0.88302 0.0
C726 C 0.26929 0.93082 0.89505 0.0
C727 C 0.26855 0.8435 0.87877 0.0
C728 C 0.27383 0.98097 0.89259 0.0
C729 C 0.27747 -0.00061 0.87151 0.0
C730 C 0.26852 0.89919 0.8763 0.0
C731 C 0.2749 0.96838 0.85299 0.0
C732 C 0.26882 0.81187 0.85999 0.0
C733 C 0.27545 0.77421 0.90168 0.0
N734 N 0.27088 0.91939 0.85586 0.0
N735 N 0.27142 0.82326 0.89906 0.0
H736 H 1.00293 0.61311 0.96184 0.0
H737 H 0.01227 0.3754 0.04367 0.0
H738 H 0.96825 0.50953 0.97767 0.0
H739 H 0.04703 0.47803 0.02712 0.0
H740 H 0.99613 0.42321 0.0193 0.0
H741 H 0.01904 0.56512 0.98616 0.0
C742 C 0.99863 0.5806 0.97065 0.0
C743 C 0.98416 0.56549 0.96772 0.0
C744 C 0.0073 0.43515 0.02085 0.0
C745 C 1.00273 0.50962 0.99545 0.0
C746 C 0.01658 0.40764 0.03469 0.0
C747 C 0.03109 0.42255 0.03744 0.0
C748 C 0.01249 0.47823 0.00967 0.0
C749 C 0.03598 0.46488 0.02543 0.0
C750 C 0.0079 0.55298 0.98446 0.0
C751 C 0.97928 0.52283 0.97952 0.0
N752 N 0.0267 0.49133 0.01218 0.0
N753 N 0.98855 0.4963 0.99276 0.0
H754 H 0.29612 0.72729 0.97728 0.0
H755 H 0.21554 0.76086 0.02575 0.0
H756 H 0.26026 0.63064 0.95939 0.0
H757 H 0.25135 0.85807 0.04331 0.0
H758 H 0.23166 0.71328 1.00101 0.0
H759 H 0.28002 0.77461 0.00214 0.0
C760 C 0.28492 0.71553 0.97881 0.0
C761 C 0.27957 0.67478 0.96624 0.0
C762 C 0.23597 0.74524 0.01017 0.0
C763 C 0.26097 0.72942 0.99441 0.0
C764 C 0.22673 0.77268 0.02418 0.0
C765 C 0.23206 0.81369 0.0366 0.0
C766 C 0.25068 0.75877 0.00857 0.0
C767 C 0.24673 0.82684 0.03404 0.0
C768 C 0.27569 0.74283 0.99288 0.0
C769 C 0.26489 0.66169 0.96876 0.0
N770 N 0.2555 0.79943 0.02042 0.0
N771 N 0.25613 0.68897 0.98244 0.0
H772 H 0.04593 0.76058 0.22802 0.0
H773 H 0.96538 0.72833 0.2768 0.0
H774 H 0.01017 0.85787 0.21033 0.0
H775 H 1.00115 0.63125 0.29465 0.0
H776 H 0.98152 0.77548 0.25194 0.0
H777 H 0.02982 0.71358 0.25298 0.0
C778 C 0.03475 0.77254 0.22961 0.0
C779 C 0.02943 0.81339 0.21707 0.0
C780 C 0.98582 0.74365 0.26119 0.0
C781 C 0.01082 0.75913 0.24537 0.0
C782 C 0.97657 0.71644 0.27527 0.0
C783 C 0.98188 0.67559 0.28781 0.0
C784 C 1.00052 0.73003 0.25963 0.0
C785 C 0.99654 0.66236 0.28529 0.0
C786 C 0.02552 0.74543 0.24375 0.0
C787 C 0.01479 0.82675 0.21967 0.0
N788 N 1.00533 0.68953 0.27159 0.0
N789 N 1.00601 0.79965 0.23342 0.0
H790 H 0.21802 0.4786 0.22721 0.0
H791 H 0.29848 0.50987 0.27641 0.0
H792 H 0.25362 0.37985 0.21027 0.0
H793 H 0.26288 0.60848 0.2935 0.0
H794 H 0.28234 0.4627 0.25158 0.0
H795 H 0.23417 0.52598 0.25197 0.0
C796 C 0.22917 0.46641 0.22892 0.0
C797 C 0.23443 0.42502 0.21667 0.0
C798 C 0.27808 0.49488 0.26065 0.0
C799 C 0.25309 0.4797 0.24472 0.0
C800 C 0.28733 0.52209 0.27471 0.0
C801 C 0.28207 0.56336 0.28704 0.0
C802 C 0.26341 0.5089 0.2589 0.0
C803 C 0.26745 0.57703 0.28431 0.0
C804 C 0.23843 0.49373 0.24294 0.0
C805 C 0.24905 0.41139 0.2194 0.0
N806 N 0.25866 0.54982 0.27065 0.0
N807 N 0.25785 0.43869 0.23303 0.0
H808 H 0.79724 0.22809 0.9782 0.0
H809 H 0.7164 0.25876 0.02605 0.0
H810 H 0.7619 0.12866 0.96082 0.0
H811 H 0.75175 0.35836 0.04323 0.0
H812 H 0.73277 0.21142 1.00159 0.0
H813 H 0.78085 0.27547 0.00257 0.0
C814 C 0.7861 0.21574 0.97974 0.0
C815 C 0.78098 0.17416 0.96747 0.0
C816 C 0.73692 0.24385 0.0106 0.0
C817 C 0.76204 0.22886 0.99508 0.0
C818 C 0.72754 0.27116 0.02444 0.0
C819 C 0.73267 0.31275 0.03669 0.0
C820 C 0.75158 0.25812 0.009 0.0
C821 C 0.74728 0.32665 0.0341 0.0
C822 C 0.7767 0.24307 0.99353 0.0
C823 C 0.76636 0.16034 0.96998 0.0
N824 N 0.7562 0.29936 0.02065 0.0
N825 N 0.75742 0.18766 0.98339 0.0
H826 H 0.96828 0.22879 0.7772 0.0
H827 H 0.04907 0.25699 0.72882 0.0
H828 H 1.00357 0.12957 0.79505 0.0
H829 H 0.01378 0.35643 0.71122 0.0
H830 H 0.03269 0.2105 0.75358 0.0
H831 H 0.98467 0.27508 0.75241 0.0
C832 C 0.97941 0.21626 0.77568 0.0
C833 C 0.98452 0.17509 0.78821 0.0
C834 C 0.02855 0.24271 0.7444 0.0
C835 C 1.00345 0.22853 0.76013 0.0
C836 C 0.03795 0.26953 0.73039 0.0
C837 C 0.03284 0.31083 0.71795 0.0
C838 C 0.01391 0.25718 0.74598 0.0
C839 C 0.01824 0.32492 0.7205 0.0
C840 C 0.98881 0.24297 0.76165 0.0
C841 C 0.99912 0.16099 0.78571 0.0
N842 N 0.00931 0.29812 0.73412 0.0
N843 N 0.00805 0.1877 0.77206 0.0
H844 H 0.75501 0.37696 0.70984 0.0
H845 H 0.76261 0.61031 0.79449 0.0
H846 H 0.71993 0.479 0.7255 0.0
H847 H 0.79775 0.50871 0.77859 0.0
H848 H 0.74696 0.56344 0.76905 0.0
H849 H 0.77063 0.42368 0.73538 0.0
C850 C 0.75052 0.40886 0.71885 0.0
C851 C 0.73608 0.42393 0.71551 0.0
C852 C 0.75811 0.5515 0.77099 0.0
C853 C 0.75408 0.47833 0.74466 0.0
C854 C 0.76711 0.57848 0.78544 0.0
C855 C 0.78158 0.56361 0.78867 0.0
C856 C 0.76354 0.50901 0.75964 0.0
C857 C 0.78672 0.52181 0.77654 0.0
C858 C 0.7595 0.43575 0.73337 0.0
C859 C 0.73094 0.46577 0.72761 0.0
N860 N 0.77771 0.4959 0.76266 0.0
N861 N 0.73994 0.4916 0.74155 0.0
H862 H 1.00227 0.11153 0.46142 0.0
H863 H 0.0101 0.87464 0.54409 0.0
H864 H 0.96719 0.00908 0.4766 0.0
H865 H 0.04516 0.97708 0.52887 0.0
H866 H 0.99438 0.92257 0.51913 0.0
H867 H 0.01796 0.06375 0.48647 0.0
C868 C 0.99779 0.07933 0.47024 0.0
C869 C 0.98333 0.06447 0.46691 0.0
C870 C 1.00552 0.93447 0.52112 0.0
C871 C 1.00141 0.00882 0.49547 0.0
C872 C 0.01456 0.90689 0.53529 0.0
C873 C 0.02903 0.92169 0.53857 0.0
C874 C 0.01092 0.97749 0.51011 0.0
C875 C 0.03413 0.96403 0.52678 0.0
C876 C 1.00681 0.05183 0.48446 0.0
C877 C 0.97821 0.02219 0.47873 0.0
N878 N 0.02508 0.99052 0.51317 0.0
N879 N 0.98725 -0.00424 0.49238 0.0
H880 H 0.29846 0.2274 0.47712 0.0
H881 H 0.21848 0.25961 0.52806 0.0
H882 H 0.26246 0.13056 0.46009 0.0
H883 H 0.25444 0.3568 0.54488 0.0
H884 H 0.23429 0.21271 0.50262 0.0
H885 H 0.28261 0.2745 0.50244 0.0
C886 C 0.28729 0.21557 0.47892 0.0
C887 C 0.28183 0.17478 0.46649 0.0
C888 C 0.2387 0.24451 0.51178 0.0
C889 C 0.26351 0.22916 0.4952 0.0
C890 C 0.22963 0.27156 0.52619 0.0
C891 C 0.2351 0.31235 0.53862 0.0
C892 C 0.25338 0.2582 0.50977 0.0
C893 C 0.24972 0.32571 0.53563 0.0
C894 C 0.2782 0.24273 0.49327 0.0
C895 C 0.26719 0.16161 0.46936 0.0
N896 N 0.25833 0.29867 0.52163 0.0
N897 N 0.25856 0.18874 0.48331 0.0
H898 H 0.25122 0.87519 0.71159 0.0
H899 H 0.26105 0.1121 0.79377 0.0
H900 H 0.21661 0.97821 0.72843 0.0
H901 H 0.29553 0.00798 0.77765 0.0
H902 H 0.24482 0.06464 0.76941 0.0
H903 H 0.26747 0.9226 0.73594 0.0
C904 C 0.24696 0.90745 0.72063 0.0
C905 C 0.23247 0.92257 0.71797 0.0
C906 C 0.25595 0.05226 0.77106 0.0
C907 C 0.25119 0.9778 0.74573 0.0
C908 C 0.26528 0.07958 0.78489 0.0
C909 C 0.27973 0.06417 0.78776 0.0
C910 C 0.26103 0.00889 0.75998 0.0
C911 C 0.28452 0.02151 0.77586 0.0
C912 C 0.2563 0.93473 0.73446 0.0
C913 C 0.22765 0.9649 0.73005 0.0
N914 N 0.27519 -0.00472 0.7626 0.0
N915 N 0.23699 0.99113 0.7433 0.0
H916 H 0.75912 0.62752 0.45876 0.0
H917 H 0.74995 0.86191 0.54249 0.0
H918 H 0.79397 0.72919 0.47602 0.0
H919 H 0.71505 0.76073 0.52499 0.0
H920 H 0.76608 0.81456 0.51792 0.0
H921 H 0.74299 0.67479 0.48336 0.0
C922 C 0.76345 0.65945 0.46794 0.0
C923 C 0.77798 0.67425 0.46533 0.0
C924 C 0.75488 0.80283 0.51932 0.0
C925 C 0.7594 0.72929 0.49338 0.0
C926 C 0.74561 0.83008 0.53327 0.0
C927 C 0.73107 0.81545 0.5358 0.0
C928 C 0.74965 0.76031 0.50778 0.0
C929 C 0.72613 0.77365 0.52347 0.0
C930 C 0.75418 0.68665 0.4819 0.0
C931 C 0.7829 0.71615 0.47759 0.0
N932 N 0.73541 0.74745 0.5101 0.0
N933 N 0.77362 0.74229 0.49098 0.0
H934 H 0.71758 0.97873 0.2265 0.0
H935 H 0.798 0.0106 0.27586 0.0
H936 H 0.7532 0.87991 0.20983 0.0
H937 H 0.76234 0.10898 0.29287 0.0
H938 H 0.78189 0.96327 0.25102 0.0
H939 H 0.7337 0.02634 0.25124 0.0
C940 C 0.72872 0.96658 0.22827 0.0
C941 C 0.734 0.92509 0.21609 0.0
C942 C 0.77761 -0.00457 0.26008 0.0
C943 C 0.75263 0.98003 0.24412 0.0
C944 C 0.78685 0.02273 0.27414 0.0
C945 C 0.78155 0.06398 0.28646 0.0
C946 C 0.76293 0.00934 0.2583 0.0
C947 C 0.76693 0.07754 0.2837 0.0
C948 C 0.73797 -0.00597 0.24228 0.0
C949 C 0.74862 0.91152 0.2189 0.0
N950 N 0.75815 0.05026 0.27003 0.0
N951 N 0.7574 0.93894 0.23251 0.0
H952 H 0.50422 0.60881 0.45988 0.0
H953 H 0.51464 0.37388 0.54289 0.0
H954 H 0.46993 0.50465 0.47689 0.0
H955 H 0.54895 0.47808 0.526 0.0
H956 H 0.49829 0.4204 0.51841 0.0
H957 H 0.52059 0.56237 0.48438 0.0
C958 C 0.50006 0.5765 0.46898 0.0
C959 C 0.48562 0.56076 0.46633 0.0
C960 C 0.50941 0.43298 0.51991 0.0
C961 C 0.50449 0.50667 0.49426 0.0
C962 C 0.51881 0.4062 0.5338 0.0
C963 C 0.53325 0.42192 0.53649 0.0
C964 C 0.5144 0.47613 0.50857 0.0
C965 C 0.53796 0.46431 0.52435 0.0
C966 C 0.50947 0.54978 0.48289 0.0
C967 C 0.48092 0.51842 0.47851 0.0
N968 N 0.52856 0.49004 0.51102 0.0
N969 N 0.49033 0.49275 0.49184 0.0
H970 H 0.54464 0.7586 0.72463 0.0
H971 H 0.46467 0.72111 0.77478 0.0
H972 H 0.50826 0.85353 0.7075 0.0
H973 H 0.50125 0.628 0.79281 0.0
H974 H 0.48025 0.76829 0.74912 0.0
H975 H 0.52894 0.71025 0.74966 0.0
C976 C 0.53341 0.76974 0.72634 0.0
C977 C 0.5278 0.8104 0.71399 0.0
C978 C 0.48485 0.7373 0.75858 0.0
C979 C 0.50965 0.75456 0.74238 0.0
C980 C 0.47592 0.71006 0.77311 0.0
C981 C 0.48163 0.67043 0.78598 0.0
C982 C 0.49964 0.72493 0.75689 0.0
C983 C 0.49635 0.65821 0.78324 0.0
C984 C 0.5244 0.74186 0.74053 0.0
C985 C 0.51309 0.82264 0.71674 0.0
N986 N 0.50483 0.68542 0.76912 0.0
N987 N 0.50454 0.79481 0.73054 0.0
H988 H 0.50285 0.12112 0.29328 0.0
H989 H 0.51107 0.35537 0.20929 0.0
H990 H 0.46789 0.22321 0.27711 0.0
H991 H 0.54603 0.25299 0.2251 0.0
H992 H 0.49528 0.30832 0.23445 0.0
H993 H 0.51867 0.16799 0.26806 0.0
C994 C 0.49843 0.15305 0.28421 0.0
C995 C 0.48396 0.1681 0.28731 0.0
C996 C 0.50642 0.29624 0.23255 0.0
C997 C 0.50219 0.22267 0.25856 0.0
C998 C 0.5155 0.32332 0.21826 0.0
C999 C 0.52996 0.30828 0.21509 0.0
C1000 C 0.51176 0.25347 0.24379 0.0
C1001 C 0.53501 0.26622 0.22712 0.0
C1002 C 0.50752 0.18002 0.26989 0.0
C1003 C 0.47892 0.20999 0.27517 0.0
N1004 N 0.52592 0.2402 0.24084 0.0
N1005 N 0.48802 0.23591 0.26143 0.0
H1006 H 0.46728 0.00556 0.97752 0.0
H1007 H 0.54799 0.9738 0.02582 0.0
H1008 H 0.50267 0.1055 0.96093 0.0
H1009 H 0.51259 0.87395 0.04246 0.0
H1010 H 0.5317 0.0215 1.00139 0.0
H1011 H 0.48362 0.95737 1.00168 0.0
C1012 C 0.47842 0.01781 0.97917 0.0
C1013 C 0.48356 0.05983 0.9672 0.0
C1014 C 0.52752 0.98893 0.01026 0.0
C1015 C 0.50245 0.00424 0.9946 0.0
C1016 C 0.53686 0.9614 0.02409 0.0
C1017 C 0.5317 0.91961 0.03619 0.0
C1018 C 0.51287 0.9747 0.0085 0.0
C1019 C 0.51709 0.90579 0.03345 0.0
C1020 C 0.48779 0.99004 0.99286 0.0
C1021 C 0.49818 0.0735 0.96985 0.0
N1022 N 0.50821 0.93329 0.02001 0.0
N1023 N 0.50709 0.04578 0.98316 0.0
H1024 H 0.16672 0.39486 0.16895 0.0
H1025 H 0.09948 0.39124 0.0841 0.0
H1026 H 0.17121 0.37944 0.09796 0.0
H1027 H 0.09502 0.38433 0.15534 0.0
H1028 H 0.12582 0.39821 0.08871 0.0
H1029 H 0.14042 0.40225 0.16413 0.0
C1030 C 0.16223 0.39346 0.15236 0.0
C1031 C 0.17125 0.38598 0.1339 0.0
C1032 C 0.11904 0.39546 0.10332 0.0
C1033 C 0.14112 0.3944 0.12822 0.0
C1034 C 0.10399 0.39167 0.10069 0.0
C1035 C 0.09497 0.38665 0.11931 0.0
C1036 C 0.12513 0.39455 0.12475 0.0
C1037 C 0.10149 0.38746 0.14043 0.0
C1038 C 0.14719 0.39752 0.14961 0.0
C1039 C 0.16474 0.38454 0.11277 0.0
N1040 N 0.11611 0.39108 0.14254 0.0
N1041 N 0.15013 0.38848 0.11054 0.0
H1042 H 0.09717 0.84435 0.16929 0.0
H1043 H 0.16433 0.84466 0.08424 0.0
H1044 H 0.09261 0.85483 0.09814 0.0
H1045 H 0.16886 0.857 0.15534 0.0
H1046 H 0.13803 0.83719 0.08905 0.0
H1047 H 0.1235 0.83773 0.16451 0.0
C1048 C 0.10166 0.8448 0.15268 0.0
C1049 C 0.09261 0.85069 0.13414 0.0
C1050 C 0.14481 0.84126 0.10359 0.0
C1051 C 0.12276 0.84317 0.12853 0.0
C1052 C 0.15985 0.84537 0.10085 0.0
C1053 C 0.16888 0.852 0.11936 0.0
C1054 C 0.13875 0.84347 0.12501 0.0
C1055 C 0.16238 0.85257 0.1405 0.0
C1056 C 0.1167 0.8412 0.14995 0.0
C1057 C 0.09911 0.85098 0.11299 0.0
N1058 N 0.14777 0.84859 0.14272 0.0
N1059 N 0.11373 0.84751 0.11079 0.0
H1060 H 0.84383 0.6026 0.90886 0.0
H1061 H 0.92096 0.60641 0.84915 0.0
H1062 H 0.84917 0.59493 0.83778 0.0
H1063 H 0.91578 0.59731 0.92023 0.0
H1064 H 0.89486 0.59821 0.84477 0.0
H1065 H 0.87 0.59657 0.9133 0.0
C1066 C 0.85049 0.59939 0.89412 0.0
C1067 C 0.84421 0.59977 0.87285 0.0
C1068 C 0.89939 0.59765 0.86134 0.0
C1069 C 0.87441 0.59305 0.87795 0.0
C1070 C 0.91435 0.60247 0.86391 0.0
C1071 C 0.92066 0.60306 0.88516 0.0
C1072 C 0.89051 0.59379 0.88013 0.0
C1073 C 0.91146 0.59719 0.90354 0.0
C1074 C 0.86548 0.59584 0.89673 0.0
C1075 C 0.85347 0.59492 0.85449 0.0
N1076 N 0.89685 0.5933 0.90061 0.0
N1077 N 0.8681 0.59226 0.85746 0.0
H1078 H 0.91634 0.14471 0.83544 0.0
H1079 H 0.84909 0.1444 0.92034 0.0
H1080 H 0.92083 0.13474 0.90661 0.0
H1081 H 0.84464 0.13248 0.84923 0.0
H1082 H 0.8754 0.15208 0.9156 0.0
H1083 H 0.89001 0.15146 0.84015 0.0
C1084 C 0.91184 0.1444 0.85204 0.0
C1085 C 0.92087 0.13861 0.87061 0.0
C1086 C 0.86863 0.14806 0.90104 0.0
C1087 C 0.89071 0.14627 0.87615 0.0
C1088 C 0.85359 0.14385 0.90375 0.0
C1089 C 0.84459 0.13724 0.88521 0.0
C1090 C 0.87472 0.14597 0.87963 0.0
C1091 C 0.85111 0.13686 0.86408 0.0
C1092 C 0.89679 0.14808 0.85473 0.0
C1093 C 0.91435 0.13851 0.89174 0.0
N1094 N 0.86572 0.14093 0.8619 0.0
N1095 N 0.89973 0.14203 0.8939 0.0
H1096 H 0.16369 0.88837 0.67184 0.0
H1097 H 0.09653 0.89359 0.58686 0.0
H1098 H 0.16822 0.88537 0.60056 0.0
H1099 H 0.09199 0.87406 0.65764 0.0
H1100 H 0.12279 0.90184 0.59185 0.0
H1101 H 0.13733 0.89447 0.66725 0.0
C1102 C 0.15919 0.88951 0.65525 0.0
C1103 C 0.16824 0.8858 0.6366 0.0
C1104 C 0.11601 0.89601 0.60629 0.0
C1105 C 0.13806 0.89271 0.63119 0.0
C1106 C 0.101 0.89144 0.60344 0.0
C1107 C 0.09197 0.8826 0.62179 0.0
C1108 C 0.12207 0.892 0.62766 0.0
C1109 C 0.09846 0.88025 0.64292 0.0
C1110 C 0.14413 0.89278 0.65262 0.0
C1111 C 0.16172 0.88747 0.61548 0.0
N1112 N 0.11306 0.8847 0.64524 0.0
N1113 N 0.1471 0.89058 0.61338 0.0
H1114 H 0.096 0.34842 0.59918 0.0
H1115 H 0.17306 0.35585 0.65897 0.0
H1116 H 0.10117 0.3453 0.67034 0.0
H1117 H 0.16787 0.34206 0.58804 0.0
H1118 H 0.14694 0.34823 0.66346 0.0
H1119 H 0.12216 0.34214 0.59493 0.0
C1120 C 0.10262 0.34618 0.61398 0.0
C1121 C 0.09629 0.3479 0.63521 0.0
C1122 C 0.15148 0.34652 0.64692 0.0
C1123 C 0.1265 0.3409 0.63034 0.0
C1124 C 0.16645 0.351 0.64428 0.0
C1125 C 0.17276 0.35007 0.62302 0.0
C1126 C 0.1426 0.34145 0.62818 0.0
C1127 C 0.16355 0.34313 0.60473 0.0
C1128 C 0.11761 0.34248 0.61149 0.0
C1129 C 0.10551 0.34423 0.65367 0.0
N1130 N 0.14894 0.33956 0.60772 0.0
N1131 N 0.12014 0.34141 0.6508 0.0
H1132 H 0.844 0.10352 0.40609 0.0
H1133 H 0.92125 0.105 0.3467 0.0
H1134 H 0.84938 0.09673 0.335 0.0
H1135 H 0.91583 0.09512 0.41771 0.0
H1136 H 0.89512 0.09797 0.34213 0.0
H1137 H 0.87013 0.09644 0.41056 0.0
C1138 C 0.85066 0.10031 0.39135 0.0
C1139 C 0.84439 0.10122 0.37007 0.0
C1140 C 0.89961 0.09698 0.35872 0.0
C1141 C 0.87457 0.09326 0.3752 0.0
C1142 C 0.91458 0.10111 0.3614 0.0
C1143 C 0.92083 0.10114 0.3827 0.0
C1144 C 0.89066 0.09325 0.37745 0.0
C1145 C 0.91156 0.09541 0.401 0.0
C1146 C 0.86563 0.09614 0.39398 0.0
C1147 C 0.85366 0.09633 0.35171 0.0
N1148 N 0.89695 0.09218 0.39796 0.0
N1149 N 0.86828 0.09305 0.3547 0.0
H1150 H 0.9141 0.64581 0.33504 0.0
H1151 H 0.8464 0.64397 0.41907 0.0
H1152 H 0.91822 0.63264 0.40616 0.0
H1153 H 0.84234 0.63472 0.34783 0.0
H1154 H 0.87276 0.6511 0.41474 0.0
H1155 H 0.88777 0.653 0.33949 0.0
C1156 C 0.90952 0.64486 0.35157 0.0
C1157 C 0.91845 0.63808 0.37019 0.0
C1158 C 0.86606 0.64779 0.40006 0.0
C1159 C 0.88828 0.64626 0.37545 0.0
C1160 C 0.851 0.64391 0.40254 0.0
C1161 C 0.84209 0.6382 0.38383 0.0
C1162 C 0.87227 0.64629 0.37872 0.0
C1163 C 0.84873 0.6384 0.36279 0.0
C1164 C 0.89447 0.64881 0.35412 0.0
C1165 C 0.91182 0.6372 0.39125 0.0
N1166 N 0.86336 0.64214 0.36084 0.0
N1167 N 0.89719 0.64101 0.39327 0.0
H1168 H 0.59676 0.39044 0.65505 0.0
H1169 H 0.67384 0.38142 0.59523 0.0
H1170 H 0.60194 0.39048 0.58387 0.0
H1171 H 0.66864 0.39617 0.66612 0.0
H1172 H 0.64772 0.38902 0.59072 0.0
H1173 H 0.62292 0.39705 0.65924 0.0
C1174 C 0.60338 0.39208 0.64023 0.0
C1175 C 0.59706 0.38938 0.61902 0.0
C1176 C 0.65226 0.39094 0.60726 0.0
C1177 C 0.62727 0.39676 0.62383 0.0
C1178 C 0.66723 0.38648 0.60991 0.0
C1179 C 0.67353 0.38767 0.63117 0.0
C1180 C 0.64337 0.39627 0.62599 0.0
C1181 C 0.66432 0.39488 0.64944 0.0
C1182 C 0.61837 0.39597 0.64269 0.0
C1183 C 0.60628 0.39233 0.60053 0.0
N1184 N 0.64971 0.39845 0.64644 0.0
N1185 N 0.62092 0.39535 0.60337 0.0
H1186 H 0.5949 0.84127 0.66586 0.0
H1187 H 0.66245 0.84863 0.58165 0.0
H1188 H 0.59063 0.86092 0.59505 0.0
H1189 H 0.66659 0.85278 0.65298 0.0
H1190 H 0.63609 0.84172 0.58595 0.0
H1191 H 0.62119 0.83409 0.66115 0.0
C1192 C 0.59944 0.84366 0.64933 0.0
C1193 C 0.59048 0.85222 0.63089 0.0
C1194 C 0.6428 0.84386 0.60064 0.0
C1195 C 0.62062 0.84404 0.62534 0.0
C1196 C 0.65787 0.84761 0.59819 0.0
C1197 C 0.6668 0.85183 0.61694 0.0
C1198 C 0.63662 0.84397 0.62201 0.0
C1199 C 0.66018 0.85028 0.63798 0.0
C1200 C 0.61447 0.83971 0.64664 0.0
C1201 C 0.59706 0.85492 0.60983 0.0
N1202 N 0.64555 0.84668 0.63992 0.0
N1203 N 0.61167 0.85105 0.60766 0.0
H1204 H 0.41685 0.59192 0.42003 0.0
H1205 H 0.34958 0.58977 0.33523 0.0
H1206 H 0.4213 0.59664 0.34876 0.0
H1207 H 0.34514 0.60623 0.40618 0.0
H1208 H 0.37584 0.58114 0.34007 0.0
H1209 H 0.39048 0.58587 0.41548 0.0
C1210 C 0.41233 0.59116 0.40345 0.0
C1211 C 0.42135 0.59535 0.38479 0.0
C1212 C 0.36909 0.58638 0.35458 0.0
C1213 C 0.39117 0.58855 0.37943 0.0
C1214 C 0.35407 0.59117 0.35181 0.0
C1215 C 0.34508 0.59928 0.37026 0.0
C1216 C 0.37518 0.58944 0.37596 0.0
C1217 C 0.3516 0.60065 0.39139 0.0
C1218 C 0.39726 0.58792 0.40085 0.0
C1219 C 0.41482 0.59417 0.36369 0.0
N1220 N 0.36619 0.59602 0.39362 0.0
N1221 N 0.40018 0.59111 0.3616 0.0
H1222 H 0.42115 0.13026 0.40683 0.0
H1223 H 0.34419 0.13293 0.34667 0.0
H1224 H 0.41613 0.13905 0.33573 0.0
H1225 H 0.3493 0.14152 0.41777 0.0
H1226 H 0.37036 0.13905 0.34239 0.0
H1227 H 0.39502 0.13821 0.41108 0.0
C1228 C 0.41458 0.13409 0.39205 0.0
C1229 C 0.42093 0.1335 0.37082 0.0
C1230 C 0.36579 0.13996 0.35894 0.0
C1231 C 0.39076 0.14246 0.37569 0.0
C1232 C 0.35079 0.13635 0.36145 0.0
C1233 C 0.34445 0.13623 0.38268 0.0
C1234 C 0.37466 0.14305 0.37778 0.0
C1235 C 0.35365 0.14133 0.40109 0.0
C1236 C 0.3996 0.13876 0.39454 0.0
C1237 C 0.41177 0.13918 0.3524 0.0
N1238 N 0.36828 0.14404 0.39822 0.0
N1239 N 0.39715 0.14294 0.35525 0.0
H1240 H 0.67152 0.88074 0.09673 0.0
H1241 H 0.59416 0.88066 0.15582 0.0
H1242 H 0.66603 0.89027 0.16774 0.0
H1243 H 0.59968 0.88775 0.08476 0.0
H1244 H 0.62028 0.88812 0.16043 0.0
H1245 H 0.64539 0.88725 0.09211 0.0
C1246 C 0.66484 0.88443 0.11142 0.0
C1247 C 0.67107 0.88446 0.13273 0.0
C1248 C 0.61581 0.8884 0.14382 0.0
C1249 C 0.64089 0.89176 0.12742 0.0
C1250 C 0.60085 0.88401 0.14112 0.0
C1251 C 0.59463 0.88308 0.1198 0.0
C1252 C 0.62479 0.89148 0.1251 0.0
C1253 C 0.60393 0.88816 0.10149 0.0
C1254 C 0.64986 0.88827 0.10871 0.0
C1255 C 0.66177 0.88995 0.15101 0.0
N1256 N 0.61854 0.89166 0.10456 0.0
N1257 N 0.64715 0.89289 0.14794 0.0
H1258 H 0.66954 0.35266 0.15546 0.0
H1259 H 0.59255 0.34887 0.09539 0.0
H1260 H 0.66452 0.34411 0.08435 0.0
H1261 H 0.59773 0.34064 0.16648 0.0
H1262 H 0.61873 0.34308 0.09106 0.0
H1263 H 0.64343 0.34433 0.15971 0.0
C1264 C 0.66297 0.34883 0.14067 0.0
C1265 C 0.66932 0.3496 0.11944 0.0
C1266 C 0.61417 0.34218 0.10761 0.0
C1267 C 0.63916 0.34017 0.12432 0.0
C1268 C 0.59917 0.3456 0.11015 0.0
C1269 C 0.59284 0.34575 0.1314 0.0
C1270 C 0.62306 0.3393 0.12643 0.0
C1271 C 0.60207 0.34082 0.14979 0.0
C1272 C 0.648 0.34394 0.14317 0.0
C1273 C 0.66016 0.34387 0.10102 0.0
N1274 N 0.6167 0.33829 0.14689 0.0
N1275 N 0.64555 0.33988 0.10388 0.0
H1276 H 0.41493 0.09472 0.92096 0.0
H1277 H 0.34818 0.09459 0.83513 0.0
H1278 H 0.41974 0.1065 0.8499 0.0
H1279 H 0.34323 0.10394 0.90624 0.0
H1280 H 0.37447 0.08738 0.84022 0.0
H1281 H 0.38864 0.08656 0.9159 0.0
C1282 C 0.41051 0.09511 0.90432 0.0
C1283 C 0.41961 0.1019 0.88589 0.0
C1284 C 0.3676 0.0907 0.85471 0.0
C1285 C 0.38952 0.09262 0.87993 0.0
C1286 C 0.35257 0.09463 0.85179 0.0
C1287 C 0.34343 0.10046 0.87023 0.0
C1288 C 0.37354 0.0923 0.87622 0.0
C1289 C 0.34981 0.1002 0.89146 0.0
C1290 C 0.39549 0.09064 0.90142 0.0
C1291 C 0.4132 0.10205 0.86468 0.0
N1292 N 0.36441 0.09647 0.89385 0.0
N1293 N 0.39862 0.09775 0.86231 0.0
H1294 H 0.41491 0.64144 0.83494 0.0
H1295 H 0.3473 0.6418 0.91908 0.0
H1296 H 0.41911 0.62927 0.90609 0.0
H1297 H 0.34313 0.6317 0.84787 0.0
H1298 H 0.37367 0.64747 0.91469 0.0
H1299 H 0.38858 0.64798 0.83941 0.0
C1300 C 0.41034 0.64051 0.85149 0.0
C1301 C 0.4193 0.63437 0.87012 0.0
C1302 C 0.36695 0.64428 0.90003 0.0
C1303 C 0.38913 0.64185 0.87539 0.0
C1304 C 0.35188 0.64123 0.90254 0.0
C1305 C 0.34293 0.63581 0.88386 0.0
C1306 C 0.37313 0.64223 0.87869 0.0
C1307 C 0.34955 0.63527 0.86281 0.0
C1308 C 0.39529 0.64411 0.85404 0.0
C1309 C 0.41269 0.63345 0.89118 0.0
N1310 N 0.36419 0.63824 0.86083 0.0
N1311 N 0.39806 0.63698 0.89321 0.0
H1312 H 0.05154 0.97211 0.11492 0.0
H1313 H 0.05511 0.2647 0.13912 0.0
H1314 H 0.06143 0.03078 0.18002 0.0
H1315 H 0.06154 0.20385 0.0734 0.0
H1316 H 0.05784 0.17976 0.15451 0.0
H1317 H 0.0555 0.05623 0.09931 0.0
C1318 C 0.05464 0.00268 0.12594 0.0
C1319 C 0.05599 -0.00532 0.14885 0.0
C1320 C 0.05884 0.18499 0.13675 0.0
C1321 C 0.06042 0.09119 0.13107 0.0
C1322 C 0.0572 0.23345 0.12793 0.0
C1323 C 0.05791 0.2411 0.10492 0.0
C1324 C 0.06088 0.14369 0.12243 0.0
C1325 C 0.06083 0.19939 0.09122 0.0
C1326 C 0.05698 0.05065 0.11697 0.0
C1327 C 0.06018 0.03552 0.16228 0.0
N1328 N 0.06197 0.15218 0.10017 0.0
N1329 N 0.06203 0.08234 0.15323 0.0
H1330 H 0.20166 0.03264 0.07232 0.0
H1331 H 0.20248 0.20703 0.18114 0.0
H1332 H 0.20982 0.97489 0.13813 0.0
H1333 H 0.2123 0.26281 0.11552 0.0
H1334 H 0.19881 0.12199 0.1654 0.0
H1335 H 0.19915 0.11823 0.08803 0.0
C1336 C 0.20274 0.0379 0.09007 0.0
C1337 C 0.20616 -0.00305 0.10393 0.0
C1338 C 0.20164 0.1531 0.15449 0.0
C1339 C 0.20317 0.09392 0.12192 0.0
C1340 C 0.20371 0.20148 0.16343 0.0
C1341 C 0.2079 0.24169 0.14964 0.0
C1342 C 0.20357 0.14536 0.13161 0.0
C1343 C 0.20928 0.23267 0.12679 0.0
C1344 C 0.20135 0.08659 0.09899 0.0
C1345 C 0.2074 0.00561 0.12682 0.0
N1346 N 0.20716 0.18541 0.11848 0.0
N1347 N 0.20595 0.0532 0.13511 0.0
H1348 H 0.95295 0.78429 0.93317 0.0
H1349 H 0.95225 0.95882 0.8244 0.0
H1350 H 0.96066 0.72738 0.86708 0.0
H1351 H 0.96223 0.01531 0.88984 0.0
H1352 H 0.9489 0.87377 0.84024 0.0
H1353 H 0.94993 0.86988 0.91764 0.0
C1354 C 0.95383 0.78972 0.91541 0.0
C1355 C 0.95727 0.74903 0.90141 0.0
C1356 C 0.9517 0.90502 0.8511 0.0
C1357 C 0.9537 0.84595 0.88362 0.0
C1358 C 0.95358 0.95341 0.8421 0.0
C1359 C 0.95773 -0.00618 0.8558 0.0
C1360 C 0.95379 0.89743 0.87396 0.0
C1361 C 0.95924 0.98499 0.87864 0.0
C1362 C 0.95214 0.8384 0.90658 0.0
C1363 C 0.95823 0.75789 0.8785 0.0
N1364 N 0.95732 0.93767 0.88701 0.0
N1365 N 0.9565 0.80544 0.87031 0.0
H1366 H 0.80478 0.01429 0.86621 0.0
H1367 H 0.80322 0.72191 0.89127 0.0
H1368 H 0.81189 0.95529 0.93208 0.0
H1369 H 0.81293 0.78035 0.82607 0.0
H1370 H 0.80659 0.80662 0.90666 0.0
H1371 H 0.80801 0.92927 0.85111 0.0
C1372 C 0.80712 0.98343 0.8775 0.0
C1373 C 0.80789 0.99161 0.90046 0.0
C1374 C 0.80816 0.80086 0.88903 0.0
C1375 C 0.81145 0.89412 0.88328 0.0
C1376 C 0.80616 0.75256 0.88019 0.0
C1377 C 0.80763 0.74434 0.85731 0.0
C1378 C 0.81137 0.84145 0.87482 0.0
C1379 C 0.81161 0.78526 0.84378 0.0
C1380 C 0.80905 0.93494 0.86884 0.0
C1381 C 0.81113 0.95041 0.91429 0.0
N1382 N 0.81312 0.83237 0.85271 0.0
N1383 N 0.81255 0.90312 0.90551 0.0
H1384 H 0.06148 0.70416 0.57371 0.0
H1385 H 0.06308 0.52895 0.68223 0.0
H1386 H 0.05112 0.75843 0.63938 0.0
H1387 H 0.05539 0.47096 0.61632 0.0
H1388 H 0.06515 0.61476 0.66662 0.0
H1389 H 0.06559 0.6192 0.58927 0.0
C1390 C 0.06021 0.6983 0.59139 0.0
C1391 C 0.05576 0.73805 0.60524 0.0
C1392 C 0.06316 0.58303 0.65561 0.0
C1393 C 0.06061 0.64184 0.62309 0.0
C1394 C 0.06202 0.53422 0.66448 0.0
C1395 C 0.05884 0.49312 0.65056 0.0
C1396 C 0.06132 0.59036 0.63269 0.0
C1397 C 0.05762 0.5018 0.62766 0.0
C1398 C 0.06254 0.64997 0.60023 0.0
C1399 C 0.05435 0.72865 0.62806 0.0
N1400 N 0.05881 0.54953 0.61943 0.0
N1401 N 0.05673 0.68146 0.63628 0.0
H1402 H 0.21414 0.4723 0.64092 0.0
H1403 H 0.20782 0.76429 0.61661 0.0
H1404 H 0.20277 0.52941 0.57613 0.0
H1405 H 0.20279 0.70317 0.68256 0.0
H1406 H 0.20558 0.67901 0.60136 0.0
H1407 H 0.20978 0.55615 0.65656 0.0
C1408 C 0.21065 0.50246 0.62998 0.0
C1409 C 0.20897 0.4941 0.60713 0.0
C1410 C 0.20477 0.68423 0.61914 0.0
C1411 C 0.20408 0.59033 0.62495 0.0
C1412 C 0.20613 0.73289 0.62788 0.0
C1413 C 0.20568 0.74058 0.6509 0.0
C1414 C 0.20328 0.64282 0.63356 0.0
C1415 C 0.20327 0.69868 0.66472 0.0
C1416 C 0.20807 0.55028 0.63897 0.0
C1417 C 0.20428 0.53443 0.5938 0.0
N1418 N 0.20241 0.65132 0.65584 0.0
N1419 N 0.2022 0.58114 0.60286 0.0
H1420 H 0.95873 0.51623 0.3896 0.0
H1421 H 0.9616 0.22388 0.3647 0.0
H1422 H 0.95175 0.45647 0.32382 0.0
H1423 H 0.95167 0.28181 0.42992 0.0
H1424 H 0.95786 0.30836 0.34932 0.0
H1425 H 0.95594 0.43109 0.40479 0.0
C1426 C 0.9565 0.48517 0.37835 0.0
C1427 C 0.95564 0.49319 0.35538 0.0
C1428 C 0.95633 0.30254 0.36695 0.0
C1429 C 0.9526 0.39559 0.37267 0.0
C1430 C 0.95854 0.25437 0.37579 0.0
C1431 C 0.95711 0.24606 0.39867 0.0
C1432 C 0.95295 0.34296 0.38116 0.0
C1433 C 0.95297 0.28679 0.4122 0.0
C1434 C 0.95483 0.43662 0.38707 0.0
C1435 C 0.95257 0.45173 0.34161 0.0
N1436 N 0.95125 0.33381 0.40328 0.0
N1437 N 0.95139 0.40442 0.35044 0.0
H1438 H 0.80402 0.22313 0.38858 0.0
H1439 H 0.8017 0.51568 0.3639 0.0
H1440 H 0.81169 0.28327 0.32305 0.0
H1441 H 0.81033 0.45714 0.42943 0.0
H1442 H 0.80569 0.43133 0.34854 0.0
H1443 H 0.80672 0.3081 0.40396 0.0
C1444 C 0.80638 0.25423 0.37743 0.0
C1445 C 0.80745 0.24637 0.35447 0.0
C1446 C 0.80689 0.43698 0.36624 0.0
C1447 C 0.8104 0.34382 0.37197 0.0
C1448 C 0.80453 0.48509 0.37506 0.0
C1449 C 0.80551 0.49319 0.39802 0.0
C1450 C 0.80996 0.39641 0.38053 0.0
C1451 C 0.80937 0.45232 0.41166 0.0
C1452 C 0.808 0.3027 0.38625 0.0
C1453 C 0.8107 0.28789 0.34083 0.0
N1454 N 0.81124 0.40537 0.40273 0.0
N1455 N 0.81183 0.33513 0.34976 0.0
H1456 H 0.54933 0.97452 0.61311 0.0
H1457 H 0.55689 0.26558 0.6388 0.0
H1458 H 0.5603 0.02907 0.67849 0.0
H1459 H 0.56291 0.20507 0.57293 0.0
H1460 H 0.55835 0.17981 0.65386 0.0
H1461 H 0.55426 0.05854 0.59807 0.0
C1462 C 0.55284 0.00416 0.62431 0.0
C1463 C 0.55427 -0.00497 0.64713 0.0
C1464 C 0.55954 0.1853 0.63615 0.0
C1465 C 0.55982 0.09144 0.63 0.0
C1466 C 0.55865 0.2342 0.62752 0.0
C1467 C 0.55959 0.24219 0.60456 0.0
C1468 C 0.56109 0.14402 0.62166 0.0
C1469 C 0.56205 0.20036 0.59072 0.0
C1470 C 0.55575 0.05206 0.61566 0.0
C1471 C 0.55899 0.03471 0.66081 0.0
N1472 N 0.56246 0.15282 0.59946 0.0
N1473 N 0.56141 0.08154 0.65207 0.0
H1474 H 0.715 0.26489 0.61315 0.0
H1475 H 0.70627 0.9735 0.63728 0.0
H1476 H 0.70275 0.20875 0.67774 0.0
H1477 H 0.70228 0.03515 0.57126 0.0
H1478 H 0.70454 0.05895 0.65252 0.0
H1479 H 0.71016 0.18145 0.59743 0.0
C1480 C 0.71122 0.23503 0.62403 0.0
C1481 C 0.70943 0.24354 0.64685 0.0
C1482 C 0.70385 0.05383 0.63472 0.0
C1483 C 0.70398 0.14777 0.62893 0.0
C1484 C 0.70491 0.00507 0.62599 0.0
C1485 C 0.70461 -0.00254 0.60296 0.0
C1486 C 0.70281 0.09539 0.62029 0.0
C1487 C 0.70263 0.03957 0.58911 0.0
C1488 C 0.70837 0.18746 0.61499 0.0
C1489 C 0.70436 0.2036 0.6601 0.0
N1490 N 0.70206 0.087 0.59799 0.0
N1491 N 0.70201 0.15711 0.65099 0.0
H1492 H 0.46142 0.71782 0.36475 0.0
H1493 H 0.46115 0.01035 0.38957 0.0
H1494 H 0.45348 0.77699 0.43039 0.0
H1495 H 0.45278 0.95104 0.32409 0.0
H1496 H 0.45791 0.92561 0.40493 0.0
H1497 H 0.45783 0.80245 0.34944 0.0
C1498 C 0.45882 0.74863 0.37594 0.0
C1499 C 0.45794 0.74063 0.39891 0.0
C1500 C 0.4566 0.93115 0.38724 0.0
C1501 C 0.45395 0.83768 0.38148 0.0
C1502 C 0.45853 0.97948 0.37842 0.0
C1503 C 0.45741 0.98749 0.35548 0.0
C1504 C 0.45384 0.89029 0.37296 0.0
C1505 C 0.45382 0.94629 0.34186 0.0
C1506 C 0.45669 0.79689 0.36715 0.0
C1507 C 0.45436 0.78173 0.4126 0.0
N1508 N 0.45239 0.89915 0.35077 0.0
N1509 N 0.45272 0.82881 0.4037 0.0
H1510 H 0.30496 0.72245 0.38901 0.0
H1511 H 0.3035 0.01493 0.36424 0.0
H1512 H 0.31267 0.78188 0.32336 0.0
H1513 H 0.31276 0.95632 0.42956 0.0
H1514 H 0.30699 0.93031 0.34885 0.0
H1515 H 0.308 0.8074 0.40427 0.0
C1516 C 0.30739 0.75339 0.37781 0.0
C1517 C 0.30839 0.74534 0.35485 0.0
C1518 C 0.30844 0.936 0.36651 0.0
C1519 C 0.31173 0.84276 0.37222 0.0
C1520 C 0.30636 0.98426 0.37535 0.0
C1521 C 0.30767 0.99243 0.39826 0.0
C1522 C 0.31155 0.89538 0.38074 0.0
C1523 C 0.31156 0.95146 0.41182 0.0
C1524 C 0.30921 0.80184 0.38657 0.0
C1525 C 0.31173 0.78665 0.34115 0.0
N1526 N 0.31314 0.90438 0.40289 0.0
N1527 N 0.31306 0.83389 0.35001 0.0
H1528 H 0.55189 0.46764 0.11303 0.0
H1529 H 0.55476 0.76002 0.13806 0.0
H1530 H 0.56168 0.52543 0.17831 0.0
H1531 H 0.56191 0.70036 0.0723 0.0
H1532 H 0.5575 0.67481 0.15324 0.0
H1533 H 0.55567 0.55219 0.0977 0.0
C1534 C 0.55493 0.49812 0.12414 0.0
C1535 C 0.55631 0.48975 0.14702 0.0
C1536 C 0.55865 0.68038 0.13552 0.0
C1537 C 0.56052 0.5867 0.12958 0.0
C1538 C 0.55701 0.72897 0.12682 0.0
C1539 C 0.55793 0.73702 0.10386 0.0
C1540 C 0.56091 0.63936 0.12111 0.0
C1541 C 0.56104 0.69559 0.09009 0.0
C1542 C 0.55716 0.54632 0.11533 0.0
C1543 C 0.56042 0.53046 0.16059 0.0
N1544 N 0.56218 0.64825 0.0989 0.0
N1545 N 0.56216 0.57749 0.1517 0.0
H1546 H 0.70176 0.53129 0.07213 0.0
H1547 H 0.70237 0.70612 0.18084 0.0
H1548 H 0.70998 0.47388 0.13798 0.0
H1549 H 0.71209 0.76177 0.11517 0.0
H1550 H 0.69881 0.62094 0.16518 0.0
H1551 H 0.69913 0.61689 0.08779 0.0
C1552 C 0.70283 0.53662 0.08988 0.0
C1553 C 0.70631 0.49577 0.10376 0.0
C1554 C 0.70159 0.65205 0.15424 0.0
C1555 C 0.70319 0.59275 0.1217 0.0
C1556 C 0.7036 0.70051 0.16314 0.0
C1557 C 0.70773 0.74073 0.14931 0.0
C1558 C 0.70352 0.64424 0.13136 0.0
C1559 C 0.70911 0.73162 0.12647 0.0
C1560 C 0.70137 0.58532 0.09878 0.0
C1561 C 0.70752 0.50452 0.12665 0.0
N1562 N 0.70705 0.6843 0.1182 0.0
N1563 N 0.70601 0.55211 0.13492 0.0
H1564 H 0.45557 0.22326 0.8687 0.0
H1565 H 0.46453 0.51573 0.89047 0.0
H1566 H 0.45599 0.28516 0.93494 0.0
H1567 H 0.44901 0.45616 0.82815 0.0
H1568 H 0.46108 0.43251 0.90736 0.0
H1569 H 0.45252 0.30824 0.85376 0.0
C1570 C 0.45491 0.2548 0.88014 0.0
C1571 C 0.4562 0.24734 0.90308 0.0
C1572 C 0.45825 0.43776 0.89007 0.0
C1573 C 0.45295 0.34504 0.88602 0.0
C1574 C 0.4603 0.48519 0.88035 0.0
C1575 C 0.45721 0.49264 0.85778 0.0
C1576 C 0.4533 0.39727 0.87703 0.0
C1577 C 0.45164 0.45187 0.84555 0.0
C1578 C 0.4531 0.30336 0.87158 0.0
C1579 C 0.45508 0.2895 0.91713 0.0
N1580 N 0.45004 0.40567 0.85527 0.0
N1581 N 0.45378 0.33687 0.90834 0.0
H1582 H 0.30462 0.22348 0.8887 0.0
H1583 H 0.30096 0.51582 0.86401 0.0
H1584 H 0.31022 0.28329 0.82263 0.0
H1585 H 0.31157 0.45748 0.9289 0.0
H1586 H 0.3047 0.43153 0.84839 0.0
H1587 H 0.30763 0.30856 0.90378 0.0
C1588 C 0.30659 0.25455 0.87736 0.0
C1589 C 0.30699 0.24656 0.85437 0.0
C1590 C 0.30638 0.43723 0.86599 0.0
C1591 C 0.31027 0.34417 0.87151 0.0
C1592 C 0.30417 0.48529 0.87497 0.0
C1593 C 0.30578 0.49341 0.89784 0.0
C1594 C 0.30996 0.39676 0.88006 0.0
C1595 C 0.31011 0.45265 0.9112 0.0
C1596 C 0.30839 0.3031 0.886 0.0
C1597 C 0.30977 0.28803 0.84046 0.0
N1598 N 0.31183 0.40577 0.90215 0.0
N1599 N 0.31106 0.33537 0.84924 0.0
loop_
_geom_bond_atom_site_label_1
_geom_bond_atom_site_label_2
_geom_bond_distance
_geom_bond_site_symmetry_2
_ccdc_geom_bond_type
Co0 O1 2.216 . S
Co0 O2 2.091 . S
Co0 O4 2.004 . S
Co0 O10 2.021 . S
Co0 O12 2.137 . S
Co0 O13 2.244 . S
O1 Co0 2.216 . S
O1 C8 1.247 . S
O2 Co0 2.091 . S
O2 C8 1.261 . S
C3 O12 1.247 . S
C3 O13 1.272 . S
O4 Co0 2.004 . S
O4 C9 1.259 . S
Co5 O6 2.061 . S
Co5 O11 2.052 . S
Co5 O13 2.135 . S
O6 Co5 2.061 . S
O6 C9 1.235 . S
C7 O10 1.238 . S
C7 O11 1.241 . S
C8 O1 1.247 . S
C8 O2 1.261 . S
C9 O4 1.259 . S
C9 O6 1.235 . S
O10 Co0 2.021 . S
O10 C7 1.238 . S
O11 Co5 2.052 . S
O11 C7 1.241 . S
O12 Co0 2.137 . S
O12 C3 1.247 . S
O13 Co0 2.244 . S
O13 C3 1.272 . S
O13 Co5 2.135 . S
Co14 O15 2.216 . S
Co14 O16 2.091 . S
Co14 O18 2.004 . S
Co14 O24 2.021 . S
Co14 O26 2.137 . S
Co14 O27 2.244 . S
O15 Co14 2.216 . S
O15 C22 1.247 . S
O16 Co14 2.091 . S
O16 C22 1.261 . S
C17 O26 1.247 . S
C17 O27 1.272 . S
O18 Co14 2.004 . S
O18 C23 1.259 . S
Co19 O20 2.061 . S
Co19 O25 2.052 . S
Co19 O27 2.135 . S
O20 Co19 2.061 . S
O20 C23 1.235 . S
C21 O24 1.238 . S
C21 O25 1.241 . S
C22 O15 1.247 . S
C22 O16 1.261 . S
C23 O18 1.259 . S
C23 O20 1.235 . S
O24 Co14 2.021 . S
O24 C21 1.238 . S
O25 Co19 2.052 . S
O25 C21 1.241 . S
O26 Co14 2.137 . S
O26 C17 1.247 . S
O27 Co14 2.244 . S
O27 C17 1.272 . S
O27 Co19 2.135 . S
Co28 O29 2.216 . S
Co28 O30 2.091 . S
Co28 O32 2.004 . S
Co28 O38 2.021 . S
Co28 O40 2.137 . S
Co28 O41 2.244 . S
O29 Co28 2.216 . S
O29 C36 1.247 . S
O30 Co28 2.091 . S
O30 C36 1.261 . S
C31 O40 1.247 . S
C31 O41 1.272 . S
O32 Co28 2.004 . S
O32 C37 1.259 . S
Co33 O34 2.061 . S
Co33 O39 2.052 . S
Co33 O41 2.135 . S
O34 Co33 2.061 . S
O34 C37 1.235 . S
C35 O38 1.238 . S
C35 O39 1.241 . S
C36 O29 1.247 . S
C36 O30 1.261 . S
C37 O32 1.259 . S
C37 O34 1.235 . S
O38 Co28 2.021 . S
O38 C35 1.238 . S
O39 Co33 2.052 . S
O39 C35 1.241 . S
O40 Co28 2.137 . S
O40 C31 1.247 . S
O41 Co28 2.244 . S
O41 C31 1.272 . S
O41 Co33 2.135 . S
Co42 O43 2.216 . S
Co42 O44 2.091 . S
Co42 O46 2.004 . S
Co42 O52 2.021 . S
Co42 O54 2.137 . S
Co42 O55 2.244 . S
O43 Co42 2.216 . S
O43 C50 1.247 . S
O44 Co42 2.091 . S
O44 C50 1.261 . S
C45 O54 1.247 . S
C45 O55 1.272 . S
O46 Co42 2.004 . S
O46 C51 1.259 . S
Co47 O48 2.061 . S
Co47 O53 2.052 . S
Co47 O55 2.135 . S
O48 Co47 2.061 . S
O48 C51 1.235 . S
C49 O52 1.238 . S
C49 O53 1.241 . S
C50 O43 1.247 . S
C50 O44 1.261 . S
C51 O46 1.259 . S
C51 O48 1.235 . S
O52 Co42 2.021 . S
O52 C49 1.238 . S
O53 Co47 2.052 . S
O53 C49 1.241 . S
O54 Co42 2.137 . S
O54 C45 1.247 . S
O55 Co42 2.244 . S
O55 C45 1.272 . S
O55 Co47 2.135 . S
Co56 O57 2.216 . S
Co56 O58 2.091 . S
Co56 O60 2.004 . S
Co56 O66 2.021 . S
Co56 O68 2.137 . S
Co56 O69 2.244 . S
O57 Co56 2.216 . S
O57 C64 1.247 . S
O58 Co56 2.091 . S
O58 C64 1.261 . S
C59 O68 1.247 . S
C59 O69 1.272 . S
O60 Co56 2.004 . S
O60 C65 1.259 . S
Co61 O62 2.061 . S
Co61 O67 2.052 . S
Co61 O69 2.135 . S
O62 Co61 2.061 . S
O62 C65 1.235 . S
C63 O66 1.238 . S
C63 O67 1.241 . S
C64 O57 1.247 . S
C64 O58 1.261 . S
C65 O60 1.259 . S
C65 O62 1.235 . S
O66 Co56 2.021 . S
O66 C63 1.238 . S
O67 Co61 2.052 . S
O67 C63 1.241 . S
O68 Co56 2.137 . S
O68 C59 1.247 . S
O69 Co56 2.244 . S
O69 C59 1.272 . S
O69 Co61 2.135 . S
Co70 O71 2.216 . S
Co70 O72 2.091 . S
Co70 O74 2.004 . S
Co70 O80 2.021 . S
Co70 O82 2.137 . S
Co70 O83 2.244 . S
O71 Co70 2.216 . S
O71 C78 1.247 . S
O72 Co70 2.091 . S
O72 C78 1.261 . S
C73 O82 1.247 . S
C73 O83 1.272 . S
O74 Co70 2.004 . S
O74 C79 1.259 . S
Co75 O76 2.061 . S
Co75 O81 2.052 . S
Co75 O83 2.135 . S
O76 Co75 2.061 . S
O76 C79 1.235 . S
C77 O80 1.238 . S
C77 O81 1.241 . S
C78 O71 1.247 . S
C78 O72 1.261 . S
C79 O74 1.259 . S
C79 O76 1.235 . S
O80 Co70 2.021 . S
O80 C77 1.238 . S
O81 Co75 2.052 . S
O81 C77 1.241 . S
O82 Co70 2.137 . S
O82 C73 1.247 . S
O83 Co70 2.244 . S
O83 C73 1.272 . S
O83 Co75 2.135 . S
Co84 O85 2.216 . S
Co84 O86 2.091 . S
Co84 O88 2.004 . S
Co84 O94 2.021 . S
Co84 O96 2.137 . S
Co84 O97 2.244 . S
O85 Co84 2.216 . S
O85 C92 1.247 . S
O86 Co84 2.091 . S
O86 C92 1.261 . S
C87 O96 1.247 . S
C87 O97 1.272 . S
O88 Co84 2.004 . S
O88 C93 1.259 . S
Co89 O90 2.061 . S
Co89 O95 2.052 . S
Co89 O97 2.135 . S
O90 Co89 2.061 . S
O90 C93 1.235 . S
C91 O94 1.238 . S
C91 O95 1.241 . S
C92 O85 1.247 . S
C92 O86 1.261 . S
C93 O88 1.259 . S
C93 O90 1.235 . S
O94 Co84 2.021 . S
O94 C91 1.238 . S
O95 Co89 2.052 . S
O95 C91 1.241 . S
O96 Co84 2.137 . S
O96 C87 1.247 . S
O97 Co84 2.244 . S
O97 C87 1.272 . S
O97 Co89 2.135 . S
Co98 O99 2.216 . S
Co98 O100 2.091 . S
Co98 O102 2.004 . S
Co98 O108 2.021 . S
Co98 O110 2.137 . S
Co98 O111 2.244 . S
O99 Co98 2.216 . S
O99 C106 1.247 . S
O100 Co98 2.091 . S
O100 C106 1.261 . S
C101 O110 1.247 . S
C101 O111 1.272 . S
O102 Co98 2.004 . S
O102 C107 1.259 . S
Co103 O104 2.061 . S
Co103 O109 2.052 . S
Co103 O111 2.135 . S
O104 Co103 2.061 . S
O104 C107 1.235 . S
C105 O108 1.238 . S
C105 O109 1.241 . S
C106 O99 1.247 . S
C106 O100 1.261 . S
C107 O102 1.259 . S
C107 O104 1.235 . S
O108 Co98 2.021 . S
O108 C105 1.238 . S
O109 Co103 2.052 . S
O109 C105 1.241 . S
O110 Co98 2.137 . S
O110 C101 1.247 . S
O111 Co98 2.244 . S
O111 C101 1.272 . S
O111 Co103 2.135 . S
Co112 O113 2.216 . S
Co112 O114 2.091 . S
Co112 O116 2.004 . S
Co112 O122 2.021 . S
Co112 O124 2.137 . S
Co112 O125 2.244 . S
O113 Co112 2.216 . S
O113 C120 1.247 . S
O114 Co112 2.091 . S
O114 C120 1.261 . S
C115 O124 1.247 . S
C115 O125 1.272 . S
O116 Co112 2.004 . S
O116 C121 1.259 . S
Co117 O118 2.061 . S
Co117 O123 2.052 . S
Co117 O125 2.135 . S
O118 Co117 2.061 . S
O118 C121 1.235 . S
C119 O122 1.238 . S
C119 O123 1.241 . S
C120 O113 1.247 . S
C120 O114 1.261 . S
C121 O116 1.259 . S
C121 O118 1.235 . S
O122 Co112 2.021 . S
O122 C119 1.238 . S
O123 Co117 2.052 . S
O123 C119 1.241 . S
O124 Co112 2.137 . S
O124 C115 1.247 . S
O125 Co112 2.244 . S
O125 C115 1.272 . S
O125 Co117 2.135 . S
Co126 O127 2.216 . S
Co126 O128 2.091 . S
Co126 O130 2.004 . S
Co126 O136 2.021 . S
Co126 O138 2.137 . S
Co126 O139 2.244 . S
O127 Co126 2.216 . S
O127 C134 1.247 . S
O128 Co126 2.091 . S
O128 C134 1.261 . S
C129 O138 1.247 . S
C129 O139 1.272 . S
O130 Co126 2.004 . S
O130 C135 1.259 . S
Co131 O132 2.061 . S
Co131 O137 2.052 . S
Co131 O139 2.135 . S
O132 Co131 2.061 . S
O132 C135 1.235 . S
C133 O136 1.238 . S
C133 O137 1.241 . S
C134 O127 1.247 . S
C134 O128 1.261 . S
C135 O130 1.259 . S
C135 O132 1.235 . S
O136 Co126 2.021 . S
O136 C133 1.238 . S
O137 Co131 2.052 . S
O137 C133 1.241 . S
O138 Co126 2.137 . S
O138 C129 1.247 . S
O139 Co126 2.244 . S
O139 C129 1.272 . S
O139 Co131 2.135 . S
Co140 O141 2.216 . S
Co140 O142 2.091 . S
Co140 O144 2.004 . S
Co140 O150 2.021 . S
Co140 O152 2.137 . S
Co140 O153 2.244 . S
O141 Co140 2.216 . S
O141 C148 1.247 . S
O142 Co140 2.091 . S
O142 C148 1.261 . S
C143 O152 1.247 . S
C143 O153 1.272 . S
O144 Co140 2.004 . S
O144 C149 1.259 . S
Co145 O146 2.061 . S
Co145 O151 2.052 . S
Co145 O153 2.135 . S
O146 Co145 2.061 . S
O146 C149 1.235 . S
C147 O150 1.238 . S
C147 O151 1.241 . S
C148 O141 1.247 . S
C148 O142 1.261 . S
C149 O144 1.259 . S
C149 O146 1.235 . S
O150 Co140 2.021 . S
O150 C147 1.238 . S
O151 Co145 2.052 . S
O151 C147 1.241 . S
O152 Co140 2.137 . S
O152 C143 1.247 . S
O153 Co140 2.244 . S
O153 C143 1.272 . S
O153 Co145 2.135 . S
Co154 O155 2.216 . S
Co154 O156 2.091 . S
Co154 O158 2.004 . S
Co154 O164 2.021 . S
Co154 O166 2.137 . S
Co154 O167 2.244 . S
O155 Co154 2.216 . S
O155 C162 1.247 . S
O156 Co154 2.091 . S
O156 C162 1.261 . S
C157 O166 1.247 . S
C157 O167 1.272 . S
O158 Co154 2.004 . S
O158 C163 1.259 . S
Co159 O160 2.061 . S
Co159 O165 2.052 . S
Co159 O167 2.135 . S
O160 Co159 2.061 . S
O160 C163 1.235 . S
C161 O164 1.238 . S
C161 O165 1.241 . S
C162 O155 1.247 . S
C162 O156 1.261 . S
C163 O158 1.259 . S
C163 O160 1.235 . S
O164 Co154 2.021 . S
O164 C161 1.238 . S
O165 Co159 2.052 . S
O165 C161 1.241 . S
O166 Co154 2.137 . S
O166 C157 1.247 . S
O167 Co154 2.244 . S
O167 C157 1.272 . S
O167 Co159 2.135 . S
Co168 O169 2.216 . S
Co168 O170 2.091 . S
Co168 O172 2.004 . S
Co168 O178 2.021 . S
Co168 O180 2.137 . S
Co168 O181 2.244 . S
O169 Co168 2.216 . S
O169 C176 1.247 . S
O170 Co168 2.091 . S
O170 C176 1.261 . S
C171 O180 1.247 . S
C171 O181 1.272 . S
O172 Co168 2.004 . S
O172 C177 1.259 . S
Co173 O174 2.061 . S
Co173 O179 2.052 . S
Co173 O181 2.135 . S
O174 Co173 2.061 . S
O174 C177 1.235 . S
C175 O178 1.238 . S
C175 O179 1.241 . S
C176 O169 1.247 . S
C176 O170 1.261 . S
C177 O172 1.259 . S
C177 O174 1.235 . S
O178 Co168 2.021 . S
O178 C175 1.238 . S
O179 Co173 2.052 . S
O179 C175 1.241 . S
O180 Co168 2.137 . S
O180 C171 1.247 . S
O181 Co168 2.244 . S
O181 C171 1.272 . S
O181 Co173 2.135 . S
Co182 O183 2.216 . S
Co182 O184 2.091 . S
Co182 O186 2.004 . S
Co182 O192 2.021 . S
Co182 O194 2.137 . S
Co182 O195 2.244 . S
O183 Co182 2.216 . S
O183 C190 1.247 . S
O184 Co182 2.091 . S
O184 C190 1.261 . S
C185 O194 1.247 . S
C185 O195 1.272 . S
O186 Co182 2.004 . S
O186 C191 1.259 . S
Co187 O188 2.061 . S
Co187 O193 2.052 . S
Co187 O195 2.135 . S
O188 Co187 2.061 . S
O188 C191 1.235 . S
C189 O192 1.238 . S
C189 O193 1.241 . S
C190 O183 1.247 . S
C190 O184 1.261 . S
C191 O186 1.259 . S
C191 O188 1.235 . S
O192 Co182 2.021 . S
O192 C189 1.238 . S
O193 Co187 2.052 . S
O193 C189 1.241 . S
O194 Co182 2.137 . S
O194 C185 1.247 . S
O195 Co182 2.244 . S
O195 C185 1.272 . S
O195 Co187 2.135 . S
Co196 O197 2.216 . S
Co196 O198 2.091 . S
Co196 O200 2.004 . S
Co196 O206 2.021 . S
Co196 O208 2.137 . S
Co196 O209 2.244 . S
O197 Co196 2.216 . S
O197 C204 1.247 . S
O198 Co196 2.091 . S
O198 C204 1.261 . S
C199 O208 1.247 . S
C199 O209 1.272 . S
O200 Co196 2.004 . S
O200 C205 1.259 . S
Co201 O202 2.061 . S
Co201 O207 2.052 . S
Co201 O209 2.135 . S
O202 Co201 2.061 . S
O202 C205 1.235 . S
C203 O206 1.238 . S
C203 O207 1.241 . S
C204 O197 1.247 . S
C204 O198 1.261 . S
C205 O200 1.259 . S
C205 O202 1.235 . S
O206 Co196 2.021 . S
O206 C203 1.238 . S
O207 Co201 2.052 . S
O207 C203 1.241 . S
O208 Co196 2.137 . S
O208 C199 1.247 . S
O209 Co196 2.244 . S
O209 C199 1.272 . S
O209 Co201 2.135 . S
Co210 O211 2.216 . S
Co210 O212 2.091 . S
Co210 O214 2.004 . S
Co210 O220 2.021 . S
Co210 O222 2.137 . S
Co210 O223 2.244 . S
O211 Co210 2.216 . S
O211 C218 1.247 . S
O212 Co210 2.091 . S
O212 C218 1.261 . S
C213 O222 1.247 . S
C213 O223 1.272 . S
O214 Co210 2.004 . S
O214 C219 1.259 . S
Co215 O216 2.061 . S
Co215 O221 2.052 . S
Co215 O223 2.135 . S
O216 Co215 2.061 . S
O216 C219 1.235 . S
C217 O220 1.238 . S
C217 O221 1.241 . S
C218 O211 1.247 . S
C218 O212 1.261 . S
C219 O214 1.259 . S
C219 O216 1.235 . S
O220 Co210 2.021 . S
O220 C217 1.238 . S
O221 Co215 2.052 . S
O221 C217 1.241 . S
O222 Co210 2.137 . S
O222 C213 1.247 . S
O223 Co210 2.244 . S
O223 C213 1.272 . S
O223 Co215 2.135 . S
Co224 O225 2.216 . S
Co224 O226 2.091 . S
Co224 O228 2.004 . S
Co224 O234 2.021 . S
Co224 O236 2.137 . S
Co224 O237 2.244 . S
O225 Co224 2.216 . S
O225 C232 1.247 . S
O226 Co224 2.091 . S
O226 C232 1.261 . S
C227 O236 1.247 . S
C227 O237 1.272 . S
O228 Co224 2.004 . S
O228 C233 1.259 . S
Co229 O230 2.061 . S
Co229 O235 2.052 . S
Co229 O237 2.135 . S
O230 Co229 2.061 . S
O230 C233 1.235 . S
C231 O234 1.238 . S
C231 O235 1.241 . S
C232 O225 1.247 . S
C232 O226 1.261 . S
C233 O228 1.259 . S
C233 O230 1.235 . S
O234 Co224 2.021 . S
O234 C231 1.238 . S
O235 Co229 2.052 . S
O235 C231 1.241 . S
O236 Co224 2.137 . S
O236 C227 1.247 . S
O237 Co224 2.244 . S
O237 C227 1.272 . S
O237 Co229 2.135 . S
Co238 O239 2.216 . S
Co238 O240 2.091 . S
Co238 O242 2.004 . S
Co238 O248 2.021 . S
Co238 O250 2.137 . S
Co238 O251 2.244 . S
O239 Co238 2.216 . S
O239 C246 1.247 . S
O240 Co238 2.091 . S
O240 C246 1.261 . S
C241 O250 1.247 . S
C241 O251 1.272 . S
O242 Co238 2.004 . S
O242 C247 1.259 . S
Co243 O244 2.061 . S
Co243 O249 2.052 . S
Co243 O251 2.135 . S
O244 Co243 2.061 . S
O244 C247 1.235 . S
C245 O248 1.238 . S
C245 O249 1.241 . S
C246 O239 1.247 . S
C246 O240 1.261 . S
C247 O242 1.259 . S
C247 O244 1.235 . S
O248 Co238 2.021 . S
O248 C245 1.238 . S
O249 Co243 2.052 . S
O249 C245 1.241 . S
O250 Co238 2.137 . S
O250 C241 1.247 . S
O251 Co238 2.244 . S
O251 C241 1.272 . S
O251 Co243 2.135 . S
Co252 O253 2.216 . S
Co252 O254 2.091 . S
Co252 O256 2.004 . S
Co252 O262 2.021 . S
Co252 O264 2.137 . S
Co252 O265 2.244 . S
O253 Co252 2.216 . S
O253 C260 1.247 . S
O254 Co252 2.091 . S
O254 C260 1.261 . S
C255 O264 1.247 . S
C255 O265 1.272 . S
O256 Co252 2.004 . S
O256 C261 1.259 . S
Co257 O258 2.061 . S
Co257 O263 2.052 . S
Co257 O265 2.135 . S
O258 Co257 2.061 . S
O258 C261 1.235 . S
C259 O262 1.238 . S
C259 O263 1.241 . S
C260 O253 1.247 . S
C260 O254 1.261 . S
C261 O256 1.259 . S
C261 O258 1.235 . S
O262 Co252 2.021 . S
O262 C259 1.238 . S
O263 Co257 2.052 . S
O263 C259 1.241 . S
O264 Co252 2.137 . S
O264 C255 1.247 . S
O265 Co252 2.244 . S
O265 C255 1.272 . S
O265 Co257 2.135 . S
Co266 O267 2.216 . S
Co266 O268 2.091 . S
Co266 O270 2.004 . S
Co266 O276 2.021 . S
Co266 O278 2.137 . S
Co266 O279 2.244 . S
O267 Co266 2.216 . S
O267 C274 1.247 . S
O268 Co266 2.091 . S
O268 C274 1.261 . S
C269 O278 1.247 . S
C269 O279 1.272 . S
O270 Co266 2.004 . S
O270 C275 1.259 . S
Co271 O272 2.061 . S
Co271 O277 2.052 . S
Co271 O279 2.135 . S
O272 Co271 2.061 . S
O272 C275 1.235 . S
C273 O276 1.238 . S
C273 O277 1.241 . S
C274 O267 1.247 . S
C274 O268 1.261 . S
C275 O270 1.259 . S
C275 O272 1.235 . S
O276 Co266 2.021 . S
O276 C273 1.238 . S
O277 Co271 2.052 . S
O277 C273 1.241 . S
O278 Co266 2.137 . S
O278 C269 1.247 . S
O279 Co266 2.244 . S
O279 C269 1.272 . S
O279 Co271 2.135 . S
Co280 O281 2.216 . S
Co280 O282 2.091 . S
Co280 O284 2.004 . S
Co280 O290 2.021 . S
Co280 O292 2.137 . S
Co280 O293 2.244 . S
O281 Co280 2.216 . S
O281 C288 1.247 . S
O282 Co280 2.091 . S
O282 C288 1.261 . S
C283 O292 1.247 . S
C283 O293 1.272 . S
O284 Co280 2.004 . S
O284 C289 1.259 . S
Co285 O286 2.061 . S
Co285 O291 2.052 . S
Co285 O293 2.135 . S
O286 Co285 2.061 . S
O286 C289 1.235 . S
C287 O290 1.238 . S
C287 O291 1.241 . S
C288 O281 1.247 . S
C288 O282 1.261 . S
C289 O284 1.259 . S
C289 O286 1.235 . S
O290 Co280 2.021 . S
O290 C287 1.238 . S
O291 Co285 2.052 . S
O291 C287 1.241 . S
O292 Co280 2.137 . S
O292 C283 1.247 . S
O293 Co280 2.244 . S
O293 C283 1.272 . S
O293 Co285 2.135 . S
Co294 O295 2.216 . S
Co294 O296 2.091 . S
Co294 O298 2.004 . S
Co294 O304 2.021 . S
Co294 O306 2.137 . S
Co294 O307 2.244 . S
O295 Co294 2.216 . S
O295 C302 1.247 . S
O296 Co294 2.091 . S
O296 C302 1.261 . S
C297 O306 1.247 . S
C297 O307 1.272 . S
O298 Co294 2.004 . S
O298 C303 1.259 . S
Co299 O300 2.061 . S
Co299 O305 2.052 . S
Co299 O307 2.135 . S
O300 Co299 2.061 . S
O300 C303 1.235 . S
C301 O304 1.238 . S
C301 O305 1.241 . S
C302 O295 1.247 . S
C302 O296 1.261 . S
C303 O298 1.259 . S
C303 O300 1.235 . S
O304 Co294 2.021 . S
O304 C301 1.238 . S
O305 Co299 2.052 . S
O305 C301 1.241 . S
O306 Co294 2.137 . S
O306 C297 1.247 . S
O307 Co294 2.244 . S
O307 C297 1.272 . S
O307 Co299 2.135 . S
Co308 O309 2.216 . S
Co308 O310 2.091 . S
Co308 O312 2.004 . S
Co308 O318 2.021 . S
Co308 O320 2.137 . S
Co308 O321 2.244 . S
O309 Co308 2.216 . S
O309 C316 1.247 . S
O310 Co308 2.091 . S
O310 C316 1.261 . S
C311 O320 1.247 . S
C311 O321 1.272 . S
O312 Co308 2.004 . S
O312 C317 1.259 . S
Co313 O314 2.061 . S
Co313 O319 2.052 . S
Co313 O321 2.135 . S
O314 Co313 2.061 . S
O314 C317 1.235 . S
C315 O318 1.238 . S
C315 O319 1.241 . S
C316 O309 1.247 . S
C316 O310 1.261 . S
C317 O312 1.259 . S
C317 O314 1.235 . S
O318 Co308 2.021 . S
O318 C315 1.238 . S
O319 Co313 2.052 . S
O319 C315 1.241 . S
O320 Co308 2.137 . S
O320 C311 1.247 . S
O321 Co308 2.244 . S
O321 C311 1.272 . S
O321 Co313 2.135 . S
Co322 O323 2.216 . S
Co322 O324 2.091 . S
Co322 O326 2.004 . S
Co322 O332 2.021 . S
Co322 O334 2.137 . S
Co322 O335 2.244 . S
O323 Co322 2.216 . S
O323 C330 1.247 . S
O324 Co322 2.091 . S
O324 C330 1.261 . S
C325 O334 1.247 . S
C325 O335 1.272 . S
O326 Co322 2.004 . S
O326 C331 1.259 . S
Co327 O328 2.061 . S
Co327 O333 2.052 . S
Co327 O335 2.135 . S
O328 Co327 2.061 . S
O328 C331 1.235 . S
C329 O332 1.238 . S
C329 O333 1.241 . S
C330 O323 1.247 . S
C330 O324 1.261 . S
C331 O326 1.259 . S
C331 O328 1.235 . S
O332 Co322 2.021 . S
O332 C329 1.238 . S
O333 Co327 2.052 . S
O333 C329 1.241 . S
O334 Co322 2.137 . S
O334 C325 1.247 . S
O335 Co322 2.244 . S
O335 C325 1.272 . S
O335 Co327 2.135 . S
Co336 O337 2.216 . S
Co336 O338 2.091 . S
Co336 O340 2.004 . S
Co336 O346 2.021 . S
Co336 O348 2.137 . S
Co336 O349 2.244 . S
O337 Co336 2.216 . S
O337 C344 1.247 . S
O338 Co336 2.091 . S
O338 C344 1.261 . S
C339 O348 1.247 . S
C339 O349 1.272 . S
O340 Co336 2.004 . S
O340 C345 1.259 . S
Co341 O342 2.061 . S
Co341 O347 2.052 . S
Co341 O349 2.135 . S
O342 Co341 2.061 . S
O342 C345 1.235 . S
C343 O346 1.238 . S
C343 O347 1.241 . S
C344 O337 1.247 . S
C344 O338 1.261 . S
C345 O340 1.259 . S
C345 O342 1.235 . S
O346 Co336 2.021 . S
O346 C343 1.238 . S
O347 Co341 2.052 . S
O347 C343 1.241 . S
O348 Co336 2.137 . S
O348 C339 1.247 . S
O349 Co336 2.244 . S
O349 C339 1.272 . S
O349 Co341 2.135 . S
Co350 O351 2.216 . S
Co350 O352 2.091 . S
Co350 O354 2.004 . S
Co350 O360 2.021 . S
Co350 O362 2.137 . S
Co350 O363 2.244 . S
O351 Co350 2.216 . S
O351 C358 1.247 . S
O352 Co350 2.091 . S
O352 C358 1.261 . S
C353 O362 1.247 . S
C353 O363 1.272 . S
O354 Co350 2.004 . S
O354 C359 1.259 . S
Co355 O356 2.061 . S
Co355 O361 2.052 . S
Co355 O363 2.135 . S
O356 Co355 2.061 . S
O356 C359 1.235 . S
C357 O360 1.238 . S
C357 O361 1.241 . S
C358 O351 1.247 . S
C358 O352 1.261 . S
C359 O354 1.259 . S
C359 O356 1.235 . S
O360 Co350 2.021 . S
O360 C357 1.238 . S
O361 Co355 2.052 . S
O361 C357 1.241 . S
O362 Co350 2.137 . S
O362 C353 1.247 . S
O363 Co350 2.244 . S
O363 C353 1.272 . S
O363 Co355 2.135 . S
Co364 O365 2.216 . S
Co364 O366 2.091 . S
Co364 O368 2.004 . S
Co364 O374 2.021 . S
Co364 O376 2.137 . S
Co364 O377 2.244 . S
O365 Co364 2.216 . S
O365 C372 1.247 . S
O366 Co364 2.091 . S
O366 C372 1.261 . S
C367 O376 1.247 . S
C367 O377 1.272 . S
O368 Co364 2.004 . S
O368 C373 1.259 . S
Co369 O370 2.061 . S
Co369 O375 2.052 . S
Co369 O377 2.135 . S
O370 Co369 2.061 . S
O370 C373 1.235 . S
C371 O374 1.238 . S
C371 O375 1.241 . S
C372 O365 1.247 . S
C372 O366 1.261 . S
C373 O368 1.259 . S
C373 O370 1.235 . S
O374 Co364 2.021 . S
O374 C371 1.238 . S
O375 Co369 2.052 . S
O375 C371 1.241 . S
O376 Co364 2.137 . S
O376 C367 1.247 . S
O377 Co364 2.244 . S
O377 C367 1.272 . S
O377 Co369 2.135 . S
Co378 O379 2.216 . S
Co378 O380 2.091 . S
Co378 O382 2.004 . S
Co378 O388 2.021 . S
Co378 O390 2.137 . S
Co378 O391 2.244 . S
O379 Co378 2.216 . S
O379 C386 1.247 . S
O380 Co378 2.091 . S
O380 C386 1.261 . S
C381 O390 1.247 . S
C381 O391 1.272 . S
O382 Co378 2.004 . S
O382 C387 1.259 . S
Co383 O384 2.061 . S
Co383 O389 2.052 . S
Co383 O391 2.135 . S
O384 Co383 2.061 . S
O384 C387 1.235 . S
C385 O388 1.238 . S
C385 O389 1.241 . S
C386 O379 1.247 . S
C386 O380 1.261 . S
C387 O382 1.259 . S
C387 O384 1.235 . S
O388 Co378 2.021 . S
O388 C385 1.238 . S
O389 Co383 2.052 . S
O389 C385 1.241 . S
O390 Co378 2.137 . S
O390 C381 1.247 . S
O391 Co378 2.244 . S
O391 C381 1.272 . S
O391 Co383 2.135 . S
Co392 O393 2.216 . S
Co392 O394 2.091 . S
Co392 O396 2.004 . S
Co392 O402 2.021 . S
Co392 O404 2.137 . S
Co392 O405 2.244 . S
O393 Co392 2.216 . S
O393 C400 1.247 . S
O394 Co392 2.091 . S
O394 C400 1.261 . S
C395 O404 1.247 . S
C395 O405 1.272 . S
O396 Co392 2.004 . S
O396 C401 1.259 . S
Co397 O398 2.061 . S
Co397 O403 2.052 . S
Co397 O405 2.135 . S
O398 Co397 2.061 . S
O398 C401 1.235 . S
C399 O402 1.238 . S
C399 O403 1.241 . S
C400 O393 1.247 . S
C400 O394 1.261 . S
C401 O396 1.259 . S
C401 O398 1.235 . S
O402 Co392 2.021 . S
O402 C399 1.238 . S
O403 Co397 2.052 . S
O403 C399 1.241 . S
O404 Co392 2.137 . S
O404 C395 1.247 . S
O405 Co392 2.244 . S
O405 C395 1.272 . S
O405 Co397 2.135 . S
Co406 O407 2.216 . S
Co406 O408 2.091 . S
Co406 O410 2.004 . S
Co406 O416 2.021 . S
Co406 O418 2.137 . S
Co406 O419 2.244 . S
O407 Co406 2.216 . S
O407 C414 1.247 . S
O408 Co406 2.091 . S
O408 C414 1.261 . S
C409 O418 1.247 . S
C409 O419 1.272 . S
O410 Co406 2.004 . S
O410 C415 1.259 . S
Co411 O412 2.061 . S
Co411 O417 2.052 . S
Co411 O419 2.135 . S
O412 Co411 2.061 . S
O412 C415 1.235 . S
C413 O416 1.238 . S
C413 O417 1.241 . S
C414 O407 1.247 . S
C414 O408 1.261 . S
C415 O410 1.259 . S
C415 O412 1.235 . S
O416 Co406 2.021 . S
O416 C413 1.238 . S
O417 Co411 2.052 . S
O417 C413 1.241 . S
O418 Co406 2.137 . S
O418 C409 1.247 . S
O419 Co406 2.244 . S
O419 C409 1.272 . S
O419 Co411 2.135 . S
Co420 O421 2.216 . S
Co420 O422 2.091 . S
Co420 O424 2.004 . S
Co420 O430 2.021 . S
Co420 O432 2.137 . S
Co420 O433 2.244 . S
O421 Co420 2.216 . S
O421 C428 1.247 . S
O422 Co420 2.091 . S
O422 C428 1.261 . S
C423 O432 1.247 . S
C423 O433 1.272 . S
O424 Co420 2.004 . S
O424 C429 1.259 . S
Co425 O426 2.061 . S
Co425 O431 2.052 . S
Co425 O433 2.135 . S
O426 Co425 2.061 . S
O426 C429 1.235 . S
C427 O430 1.238 . S
C427 O431 1.241 . S
C428 O421 1.247 . S
C428 O422 1.261 . S
C429 O424 1.259 . S
C429 O426 1.235 . S
O430 Co420 2.021 . S
O430 C427 1.238 . S
O431 Co425 2.052 . S
O431 C427 1.241 . S
O432 Co420 2.137 . S
O432 C423 1.247 . S
O433 Co420 2.244 . S
O433 C423 1.272 . S
O433 Co425 2.135 . S
Co434 O435 2.216 . S
Co434 O436 2.091 . S
Co434 O438 2.004 . S
Co434 O444 2.021 . S
Co434 O446 2.137 . S
Co434 O447 2.244 . S
O435 Co434 2.216 . S
O435 C442 1.247 . S
O436 Co434 2.091 . S
O436 C442 1.261 . S
C437 O446 1.247 . S
C437 O447 1.272 . S
O438 Co434 2.004 . S
O438 C443 1.259 . S
Co439 O440 2.061 . S
Co439 O445 2.052 . S
Co439 O447 2.135 . S
O440 Co439 2.061 . S
O440 C443 1.235 . S
C441 O444 1.238 . S
C441 O445 1.241 . S
C442 O435 1.247 . S
C442 O436 1.261 . S
C443 O438 1.259 . S
C443 O440 1.235 . S
O444 Co434 2.021 . S
O444 C441 1.238 . S
O445 Co439 2.052 . S
O445 C441 1.241 . S
O446 Co434 2.137 . S
O446 C437 1.247 . S
O447 Co434 2.244 . S
O447 C437 1.272 . S
O447 Co439 2.135 . S
H448 C454 0.930 . S
H449 C458 0.930 . S
H450 C463 0.929 . S
H451 C461 0.929 . S
H452 C456 0.929 . S
H453 C462 0.929 . S
C454 H448 0.930 . S
C454 C455 1.367 . S
C454 C462 1.378 . S
C455 C454 1.367 . S
C455 C463 1.433 . S
C456 H452 0.929 . S
C456 C458 1.378 . S
C456 C460 1.350 . S
C457 C460 1.463 . S
C457 C462 1.350 . S
C457 N465 1.427 . S
C458 H449 0.930 . S
C458 C456 1.378 . S
C458 C459 1.367 . S
C459 C458 1.367 . S
C459 C461 1.433 . S
C460 C456 1.350 . S
C460 C457 1.463 . S
C460 N464 1.427 . S
C461 H451 0.929 . S
C461 C459 1.433 . S
C461 N464 1.384 . S
C462 H453 0.929 . S
C462 C454 1.378 . S
C462 C457 1.350 . S
C463 H450 0.929 . S
C463 C455 1.433 . S
C463 N465 1.384 . S
N464 C460 1.427 . S
N464 C461 1.384 . S
N465 C457 1.427 . S
N465 C463 1.384 . S
H466 C472 0.930 . S
H467 C476 0.930 . S
H468 C481 0.929 . S
H469 C479 0.929 . S
H470 C474 0.929 . S
H471 C480 0.929 . S
C472 H466 0.930 . S
C472 C473 1.367 . S
C472 C480 1.378 . S
C473 C472 1.367 . S
C473 C481 1.433 . S
C474 H470 0.929 . S
C474 C476 1.378 . S
C474 C478 1.350 . S
C475 C478 1.463 . S
C475 C480 1.350 . S
C475 N483 1.427 . S
C476 H467 0.930 . S
C476 C474 1.378 . S
C476 C477 1.367 . S
C477 C476 1.367 . S
C477 C479 1.433 . S
C478 C474 1.350 . S
C478 C475 1.463 . S
C478 N482 1.427 . S
C479 H469 0.929 . S
C479 C477 1.433 . S
C479 N482 1.384 . S
C480 H471 0.929 . S
C480 C472 1.378 . S
C480 C475 1.350 . S
C481 H468 0.929 . S
C481 C473 1.433 . S
C481 N483 1.384 . S
N482 C478 1.427 . S
N482 C479 1.384 . S
N483 C475 1.427 . S
N483 C481 1.384 . S
H484 C490 0.930 . S
H485 C494 0.930 . S
H486 C499 0.929 . S
H487 C497 0.929 . S
H488 C492 0.929 . S
H489 C498 0.929 . S
C490 H484 0.930 . S
C490 C491 1.367 . S
C490 C498 1.378 . S
C491 C490 1.367 . S
C491 C499 1.433 . S
C492 H488 0.929 . S
C492 C494 1.378 . S
C492 C496 1.350 . S
C493 C496 1.463 . S
C493 C498 1.350 . S
C493 N501 1.427 . S
C494 H485 0.930 . S
C494 C492 1.378 . S
C494 C495 1.367 . S
C495 C494 1.367 . S
C495 C497 1.433 . S
C496 C492 1.350 . S
C496 C493 1.463 . S
C496 N500 1.427 . S
C497 H487 0.929 . S
C497 C495 1.433 . S
C497 N500 1.384 . S
C498 H489 0.929 . S
C498 C490 1.378 . S
C498 C493 1.350 . S
C499 H486 0.929 . S
C499 C491 1.433 . S
C499 N501 1.384 . S
N500 C496 1.427 . S
N500 C497 1.384 . S
N501 C493 1.427 . S
N501 C499 1.384 . S
H502 C508 0.930 . S
H503 C512 0.930 . S
H504 C517 0.929 . S
H505 C515 0.929 . S
H506 C510 0.929 . S
H507 C516 0.929 . S
C508 H502 0.930 . S
C508 C509 1.367 . S
C508 C516 1.378 . S
C509 C508 1.367 . S
C509 C517 1.433 . S
C510 H506 0.929 . S
C510 C512 1.378 . S
C510 C514 1.350 . S
C511 C514 1.463 . S
C511 C516 1.350 . S
C511 N519 1.427 . S
C512 H503 0.930 . S
C512 C510 1.378 . S
C512 C513 1.367 . S
C513 C512 1.367 . S
C513 C515 1.433 . S
C514 C510 1.350 . S
C514 C511 1.463 . S
C514 N518 1.427 . S
C515 H505 0.929 . S
C515 C513 1.433 . S
C515 N518 1.384 . S
C516 H507 0.929 . S
C516 C508 1.378 . S
C516 C511 1.350 . S
C517 H504 0.929 . S
C517 C509 1.433 . S
C517 N519 1.384 . S
N518 C514 1.427 . S
N518 C515 1.384 . S
N519 C511 1.427 . S
N519 C517 1.384 . S
H520 C526 0.925 1_565 S
H521 C530 0.930 . S
H522 C535 0.939 . S
H523 C533 0.929 . S
H524 C528 0.929 . S
H525 C534 0.929 . S
C526 H520 0.925 1_545 S
C526 C527 1.367 1_545 S
C526 C534 1.378 . S
C527 C526 1.367 1_565 S
C527 C535 1.433 1_565 S
C528 H524 0.929 . S
C528 C530 1.378 . S
C528 C532 1.350 . S
C529 C532 1.463 . S
C529 C534 1.350 . S
C529 N537 1.427 . S
C530 H521 0.930 . S
C530 C528 1.378 . S
C530 C531 1.367 . S
C531 C530 1.367 . S
C531 C533 1.433 . S
C532 C528 1.350 . S
C532 C529 1.463 . S
C532 N536 1.427 . S
C533 H523 0.929 . S
C533 C531 1.433 . S
C533 N536 1.384 . S
C534 H525 0.929 . S
C534 C526 1.378 . S
C534 C529 1.350 . S
C535 H522 0.939 . S
C535 C527 1.433 1_545 S
C535 N537 1.384 . S
N536 C532 1.427 . S
N536 C533 1.384 . S
N537 C529 1.427 . S
N537 C535 1.384 . S
H538 C544 0.923 1_565 S
H539 C548 0.930 . S
H540 C553 0.929 . S
H541 C551 0.929 . S
H542 C546 0.929 . S
H543 C552 0.929 . S
C544 H538 0.923 1_545 S
C544 C545 1.367 1_545 S
C544 C552 1.378 . S
C545 C544 1.367 1_565 S
C545 C553 1.433 1_565 S
C546 H542 0.929 . S
C546 C548 1.378 . S
C546 C550 1.350 . S
C547 C550 1.463 . S
C547 C552 1.350 . S
C547 N555 1.427 . S
C548 H539 0.930 . S
C548 C546 1.378 . S
C548 C549 1.367 . S
C549 C548 1.367 . S
C549 C551 1.433 . S
C550 C546 1.350 . S
C550 C547 1.463 . S
C550 N554 1.427 . S
C551 H541 0.929 . S
C551 C549 1.433 . S
C551 N554 1.384 . S
C552 H543 0.929 . S
C552 C544 1.378 . S
C552 C547 1.350 . S
C553 H540 0.929 . S
C553 C545 1.433 1_545 S
C553 N555 1.384 . S
N554 C550 1.427 . S
N554 C551 1.384 . S
N555 C547 1.427 . S
N555 C553 1.384 . S
H556 C562 0.930 . S
H557 C566 0.930 . S
H558 C571 0.918 1_545 S
H559 C569 0.929 . S
H560 C564 0.929 . S
H561 C570 0.929 . S
C562 H556 0.930 . S
C562 C563 1.367 1_565 S
C562 C570 1.378 . S
C563 C562 1.367 1_545 S
C563 C571 1.433 1_545 S
C564 H560 0.929 . S
C564 C566 1.378 . S
C564 C568 1.350 . S
C565 C568 1.463 . S
C565 C570 1.350 . S
C565 N573 1.427 . S
C566 H557 0.930 . S
C566 C564 1.378 . S
C566 C567 1.367 . S
C567 C566 1.367 . S
C567 C569 1.433 . S
C568 C564 1.350 . S
C568 C565 1.463 . S
C568 N572 1.427 . S
C569 H559 0.929 . S
C569 C567 1.433 . S
C569 N572 1.384 . S
C570 H561 0.929 . S
C570 C562 1.378 . S
C570 C565 1.350 . S
C571 H558 0.918 1_565 S
C571 C563 1.433 1_565 S
C571 N573 1.384 . S
N572 C568 1.427 . S
N572 C569 1.384 . S
N573 C565 1.427 . S
N573 C571 1.384 . S
H574 C580 0.930 . S
H575 C584 0.924 1_545 S
H576 C589 0.929 . S
H577 C587 0.940 . S
H578 C582 0.929 . S
H579 C588 0.929 . S
C580 H574 0.930 . S
C580 C581 1.367 . S
C580 C588 1.378 . S
C581 C580 1.367 . S
C581 C589 1.433 . S
C582 H578 0.929 . S
C582 C584 1.378 . S
C582 C586 1.350 . S
C583 C586 1.463 . S
C583 C588 1.350 . S
C583 N591 1.427 . S
C584 H575 0.924 1_565 S
C584 C582 1.378 . S
C584 C585 1.367 1_565 S
C585 C584 1.367 1_545 S
C585 C587 1.433 1_545 S
C586 C582 1.350 . S
C586 C583 1.463 . S
C586 N590 1.427 . S
C587 H577 0.940 . S
C587 C585 1.433 1_565 S
C587 N590 1.384 . S
C588 H579 0.929 . S
C588 C580 1.378 . S
C588 C583 1.350 . S
C589 H576 0.929 . S
C589 C581 1.433 . S
C589 N591 1.384 . S
N590 C586 1.427 . S
N590 C587 1.384 . S
N591 C583 1.427 . S
N591 C589 1.384 . S
H592 C598 0.930 . S
H593 C602 0.930 . S
H594 C607 0.929 . S
H595 C605 0.929 . S
H596 C600 0.929 . S
H597 C606 0.929 . S
C598 H592 0.930 . S
C598 C599 1.367 . S
C598 C606 1.378 . S
C599 C598 1.367 . S
C599 C607 1.433 . S
C600 H596 0.929 . S
C600 C602 1.378 . S
C600 C604 1.350 . S
C601 C604 1.463 . S
C601 C606 1.350 . S
C601 N609 1.427 . S
C602 H593 0.930 . S
C602 C600 1.378 . S
C602 C603 1.367 . S
C603 C602 1.367 . S
C603 C605 1.433 . S
C604 C600 1.350 . S
C604 C601 1.463 . S
C604 N608 1.427 . S
C605 H595 0.929 . S
C605 C603 1.433 . S
C605 N608 1.384 . S
C606 H597 0.929 . S
C606 C598 1.378 . S
C606 C601 1.350 . S
C607 H594 0.929 . S
C607 C599 1.433 . S
C607 N609 1.384 . S
N608 C604 1.427 . S
N608 C605 1.384 . S
N609 C601 1.427 . S
N609 C607 1.384 . S
H610 C616 0.930 . S
H611 C620 0.930 . S
H612 C625 0.929 . S
H613 C623 0.929 . S
H614 C618 0.929 . S
H615 C624 0.929 . S
C616 H610 0.930 . S
C616 C617 1.367 . S
C616 C624 1.378 . S
C617 C616 1.367 . S
C617 C625 1.433 . S
C618 H614 0.929 . S
C618 C620 1.378 . S
C618 C622 1.350 . S
C619 C622 1.463 . S
C619 C624 1.350 . S
C619 N627 1.427 . S
C620 H611 0.930 . S
C620 C618 1.378 . S
C620 C621 1.367 . S
C621 C620 1.367 . S
C621 C623 1.433 . S
C622 C618 1.350 . S
C622 C619 1.463 . S
C622 N626 1.427 . S
C623 H613 0.929 . S
C623 C621 1.433 . S
C623 N626 1.384 . S
C624 H615 0.929 . S
C624 C616 1.378 . S
C624 C619 1.350 . S
C625 H612 0.929 . S
C625 C617 1.433 . S
C625 N627 1.384 . S
N626 C622 1.427 . S
N626 C623 1.384 . S
N627 C619 1.427 . S
N627 C625 1.384 . S
H628 C634 0.930 . S
H629 C638 0.930 . S
H630 C643 0.929 . S
H631 C641 0.929 . S
H632 C636 0.929 . S
H633 C642 0.929 . S
C634 H628 0.930 . S
C634 C635 1.367 . S
C634 C642 1.378 . S
C635 C634 1.367 . S
C635 C643 1.433 . S
C636 H632 0.929 . S
C636 C638 1.378 . S
C636 C640 1.350 . S
C637 C640 1.463 . S
C637 C642 1.350 . S
C637 N645 1.427 . S
C638 H629 0.930 . S
C638 C636 1.378 . S
C638 C639 1.367 . S
C639 C638 1.367 . S
C639 C641 1.433 . S
C640 C636 1.350 . S
C640 C637 1.463 . S
C640 N644 1.427 . S
C641 H631 0.929 . S
C641 C639 1.433 . S
C641 N644 1.384 . S
C642 H633 0.929 . S
C642 C634 1.378 . S
C642 C637 1.350 . S
C643 H630 0.929 . S
C643 C635 1.433 . S
C643 N645 1.384 . S
N644 C640 1.427 . S
N644 C641 1.384 . S
N645 C637 1.427 . S
N645 C643 1.384 . S
H646 C652 0.930 . S
H647 C656 0.930 . S
H648 C661 0.929 . S
H649 C659 0.929 . S
H650 C654 0.929 . S
H651 C660 0.929 . S
C652 H646 0.930 . S
C652 C653 1.367 . S
C652 C660 1.378 . S
C653 C652 1.367 . S
C653 C661 1.433 . S
C654 H650 0.929 . S
C654 C656 1.378 . S
C654 C658 1.350 . S
C655 C658 1.463 . S
C655 C660 1.350 . S
C655 N663 1.427 . S
C656 H647 0.930 . S
C656 C654 1.378 . S
C656 C657 1.367 . S
C657 C656 1.367 . S
C657 C659 1.433 . S
C658 C654 1.350 . S
C658 C655 1.463 . S
C658 N662 1.427 . S
C659 H649 0.929 . S
C659 C657 1.433 . S
C659 N662 1.384 . S
C660 H651 0.929 . S
C660 C652 1.378 . S
C660 C655 1.350 . S
C661 H648 0.929 . S
C661 C653 1.433 . S
C661 N663 1.384 . S
N662 C658 1.427 . S
N662 C659 1.384 . S
N663 C655 1.427 . S
N663 C661 1.384 . S
H664 C670 0.930 . S
H665 C674 0.934 . S
H666 C679 0.929 . S
H667 C677 0.930 1_565 S
H668 C672 0.929 . S
H669 C678 0.929 . S
C670 H664 0.930 . S
C670 C671 1.367 . S
C670 C678 1.378 . S
C671 C670 1.367 . S
C671 C679 1.433 . S
C672 H668 0.929 . S
C672 C674 1.378 . S
C672 C676 1.350 . S
C673 C676 1.463 . S
C673 C678 1.350 . S
C673 N681 1.427 . S
C674 H665 0.934 . S
C674 C672 1.378 . S
C674 C675 1.367 1_545 S
C675 C674 1.367 1_565 S
C675 C677 1.433 1_565 S
C676 C672 1.350 . S
C676 C673 1.463 . S
C676 N680 1.427 . S
C677 H667 0.930 1_545 S
C677 C675 1.433 1_545 S
C677 N680 1.384 . S
C678 H669 0.929 . S
C678 C670 1.378 . S
C678 C673 1.350 . S
C679 H666 0.929 . S
C679 C671 1.433 . S
C679 N681 1.384 . S
N680 C676 1.427 . S
N680 C677 1.384 . S
N681 C673 1.427 . S
N681 C679 1.384 . S
H682 C688 0.925 1_565 S
H683 C692 0.930 . S
H684 C697 0.940 . S
H685 C695 0.929 . S
H686 C690 0.929 . S
H687 C696 0.929 . S
C688 H682 0.925 1_545 S
C688 C689 1.367 1_545 S
C688 C696 1.378 . S
C689 C688 1.367 1_565 S
C689 C697 1.433 1_565 S
C690 H686 0.929 . S
C690 C692 1.378 . S
C690 C694 1.350 . S
C691 C694 1.463 . S
C691 C696 1.350 . S
C691 N699 1.427 . S
C692 H683 0.930 . S
C692 C690 1.378 . S
C692 C693 1.367 . S
C693 C692 1.367 . S
C693 C695 1.433 . S
C694 C690 1.350 . S
C694 C691 1.463 . S
C694 N698 1.427 . S
C695 H685 0.929 . S
C695 C693 1.433 . S
C695 N698 1.384 . S
C696 H687 0.929 . S
C696 C688 1.378 . S
C696 C691 1.350 . S
C697 H684 0.940 . S
C697 C689 1.433 1_545 S
C697 N699 1.384 . S
N698 C694 1.427 . S
N698 C695 1.384 . S
N699 C691 1.427 . S
N699 C697 1.384 . S
H700 C706 0.930 . S
H701 C710 0.924 1_545 S
H702 C715 0.929 . S
H703 C713 0.941 . S
H704 C708 0.929 . S
H705 C714 0.929 . S
C706 H700 0.930 . S
C706 C707 1.367 . S
C706 C714 1.378 . S
C707 C706 1.367 . S
C707 C715 1.433 . S
C708 H704 0.929 . S
C708 C710 1.378 . S
C708 C712 1.350 . S
C709 C712 1.463 . S
C709 C714 1.350 . S
C709 N717 1.427 . S
C710 H701 0.924 1_565 S
C710 C708 1.378 . S
C710 C711 1.367 1_565 S
C711 C710 1.367 1_545 S
C711 C713 1.433 1_545 S
C712 C708 1.350 . S
C712 C709 1.463 . S
C712 N716 1.427 . S
C713 H703 0.941 . S
C713 C711 1.433 1_565 S
C713 N716 1.384 . S
C714 H705 0.929 . S
C714 C706 1.378 . S
C714 C709 1.350 . S
C715 H702 0.929 . S
C715 C707 1.433 . S
C715 N717 1.384 . S
N716 C712 1.427 . S
N716 C713 1.384 . S
N717 C709 1.427 . S
N717 C715 1.384 . S
H718 C724 0.930 . S
H719 C728 0.924 1_545 S
H720 C733 0.929 . S
H721 C731 0.940 . S
H722 C726 0.929 . S
H723 C732 0.929 . S
C724 H718 0.930 . S
C724 C725 1.367 . S
C724 C732 1.378 . S
C725 C724 1.367 . S
C725 C733 1.433 . S
C726 H722 0.929 . S
C726 C728 1.378 . S
C726 C730 1.350 . S
C727 C730 1.463 . S
C727 C732 1.350 . S
C727 N735 1.427 . S
C728 H719 0.924 1_565 S
C728 C726 1.378 . S
C728 C729 1.367 1_565 S
C729 C728 1.367 1_545 S
C729 C731 1.433 1_545 S
C730 C726 1.350 . S
C730 C727 1.463 . S
C730 N734 1.427 . S
C731 H721 0.940 . S
C731 C729 1.433 1_565 S
C731 N734 1.384 . S
C732 H723 0.929 . S
C732 C724 1.378 . S
C732 C727 1.350 . S
C733 H720 0.929 . S
C733 C725 1.433 . S
C733 N735 1.384 . S
N734 C730 1.427 . S
N734 C731 1.384 . S
N735 C727 1.427 . S
N735 C733 1.384 . S
H736 C742 0.930 . S
H737 C746 0.930 . S
H738 C751 0.929 . S
H739 C749 0.929 . S
H740 C744 0.929 1_655 S
H741 C750 0.929 1_455 S
C742 H736 0.930 . S
C742 C743 1.367 . S
C742 C750 1.378 . S
C743 C742 1.367 . S
C743 C751 1.433 . S
C744 H740 0.929 1_455 S
C744 C746 1.378 . S
C744 C748 1.350 . S
C745 C748 1.463 1_656 S
C745 C750 1.350 . S
C745 N753 1.427 . S
C746 H737 0.930 . S
C746 C744 1.378 . S
C746 C747 1.367 . S
C747 C746 1.367 . S
C747 C749 1.433 . S
C748 C744 1.350 . S
C748 C745 1.463 1_454 S
C748 N752 1.427 . S
C749 H739 0.929 . S
C749 C747 1.433 . S
C749 N752 1.384 . S
C750 H741 0.929 1_655 S
C750 C742 1.378 . S
C750 C745 1.350 . S
C751 H738 0.929 . S
C751 C743 1.433 . S
C751 N753 1.384 . S
N752 C748 1.427 . S
N752 C749 1.384 . S
N753 C745 1.427 . S
N753 C751 1.384 . S
H754 C760 0.930 . S
H755 C764 0.930 . S
H756 C769 0.929 . S
H757 C767 0.929 . S
H758 C762 0.929 . S
H759 C768 0.929 . S
C760 H754 0.930 . S
C760 C761 1.367 . S
C760 C768 1.378 . S
C761 C760 1.367 . S
C761 C769 1.433 . S
C762 H758 0.929 . S
C762 C764 1.378 . S
C762 C766 1.350 . S
C763 C766 1.463 1_556 S
C763 C768 1.350 . S
C763 N771 1.427 . S
C764 H755 0.930 . S
C764 C762 1.378 . S
C764 C765 1.367 . S
C765 C764 1.367 . S
C765 C767 1.433 . S
C766 C762 1.350 . S
C766 C763 1.463 1_554 S
C766 N770 1.427 . S
C767 H757 0.929 . S
C767 C765 1.433 . S
C767 N770 1.384 . S
C768 H759 0.929 . S
C768 C760 1.378 . S
C768 C763 1.350 . S
C769 H756 0.929 . S
C769 C761 1.433 . S
C769 N771 1.384 . S
N770 C766 1.427 . S
N770 C767 1.384 . S
N771 C763 1.427 . S
N771 C769 1.384 . S
H772 C778 0.930 . S
H773 C782 0.930 . S
H774 C787 0.929 . S
H775 C785 0.929 . S
H776 C780 0.929 . S
H777 C786 0.929 . S
C778 H772 0.930 . S
C778 C779 1.367 . S
C778 C786 1.378 . S
C779 C778 1.367 . S
C779 C787 1.433 . S
C780 H776 0.929 . S
C780 C782 1.378 . S
C780 C784 1.350 . S
C781 C784 1.463 1_455 S
C781 C786 1.350 . S
C781 N789 1.427 . S
C782 H773 0.930 . S
C782 C780 1.378 . S
C782 C783 1.367 . S
C783 C782 1.367 . S
C783 C785 1.433 . S
C784 C780 1.350 . S
C784 C781 1.463 1_655 S
C784 N788 1.427 . S
C785 H775 0.929 . S
C785 C783 1.433 . S
C785 N788 1.384 . S
C786 H777 0.929 . S
C786 C778 1.378 . S
C786 C781 1.350 . S
C787 H774 0.929 . S
C787 C779 1.433 . S
C787 N789 1.384 . S
N788 C784 1.427 . S
N788 C785 1.384 . S
N789 C781 1.427 . S
N789 C787 1.384 . S
H790 C796 0.930 . S
H791 C800 0.930 . S
H792 C805 0.929 . S
H793 C803 0.929 . S
H794 C798 0.929 . S
H795 C804 0.929 . S
C796 H790 0.930 . S
C796 C797 1.367 . S
C796 C804 1.378 . S
C797 C796 1.367 . S
C797 C805 1.433 . S
C798 H794 0.929 . S
C798 C800 1.378 . S
C798 C802 1.350 . S
C799 C802 1.463 . S
C799 C804 1.350 . S
C799 N807 1.427 . S
C800 H791 0.930 . S
C800 C798 1.378 . S
C800 C801 1.367 . S
C801 C800 1.367 . S
C801 C803 1.433 . S
C802 C798 1.350 . S
C802 C799 1.463 . S
C802 N806 1.427 . S
C803 H793 0.929 . S
C803 C801 1.433 . S
C803 N806 1.384 . S
C804 H795 0.929 . S
C804 C796 1.378 . S
C804 C799 1.350 . S
C805 H792 0.929 . S
C805 C797 1.433 . S
C805 N807 1.384 . S
N806 C802 1.427 . S
N806 C803 1.384 . S
N807 C799 1.427 . S
N807 C805 1.384 . S
H808 C814 0.930 . S
H809 C818 0.930 . S
H810 C823 0.929 . S
H811 C821 0.929 . S
H812 C816 0.929 1_556 S
H813 C822 0.929 1_554 S
C814 H808 0.930 . S
C814 C815 1.367 . S
C814 C822 1.378 . S
C815 C814 1.367 . S
C815 C823 1.433 . S
C816 H812 0.929 1_554 S
C816 C818 1.378 . S
C816 C820 1.350 . S
C817 C820 1.463 1_556 S
C817 C822 1.350 . S
C817 N825 1.427 . S
C818 H809 0.930 . S
C818 C816 1.378 . S
C818 C819 1.367 . S
C819 C818 1.367 . S
C819 C821 1.433 . S
C820 C816 1.350 . S
C820 C817 1.463 1_554 S
C820 N824 1.427 . S
C821 H811 0.929 . S
C821 C819 1.433 . S
C821 N824 1.384 . S
C822 H813 0.929 1_556 S
C822 C814 1.378 . S
C822 C817 1.350 . S
C823 H810 0.929 . S
C823 C815 1.433 . S
C823 N825 1.384 . S
N824 C820 1.427 . S
N824 C821 1.384 . S
N825 C817 1.427 . S
N825 C823 1.384 . S
H826 C832 0.930 . S
H827 C836 0.930 . S
H828 C841 0.929 . S
H829 C839 0.929 . S
H830 C834 0.929 . S
H831 C840 0.929 . S
C832 H826 0.930 . S
C832 C833 1.367 . S
C832 C840 1.378 . S
C833 C832 1.367 . S
C833 C841 1.433 . S
C834 H830 0.929 . S
C834 C836 1.378 . S
C834 C838 1.350 . S
C835 C838 1.463 1_655 S
C835 C840 1.350 . S
C835 N843 1.440 . S
C836 H827 0.930 . S
C836 C834 1.378 . S
C836 C837 1.367 . S
C837 C836 1.367 . S
C837 C839 1.433 . S
C838 C834 1.350 . S
C838 C835 1.463 1_455 S
C838 N842 1.440 . S
C839 H829 0.929 . S
C839 C837 1.433 . S
C839 N842 1.409 . S
C840 H831 0.929 . S
C840 C832 1.378 . S
C840 C835 1.350 . S
C841 H828 0.929 . S
C841 C833 1.433 . S
C841 N843 1.409 . S
N842 C838 1.440 . S
N842 C839 1.409 . S
N843 C835 1.440 . S
N843 C841 1.409 . S
H844 C850 0.930 . S
H845 C854 0.930 . S
H846 C859 0.929 . S
H847 C857 0.929 . S
H848 C852 0.929 . S
H849 C858 0.929 . S
C850 H844 0.930 . S
C850 C851 1.367 . S
C850 C858 1.378 . S
C851 C850 1.367 . S
C851 C859 1.433 . S
C852 H848 0.929 . S
C852 C854 1.378 . S
C852 C856 1.350 . S
C853 C856 1.463 . S
C853 C858 1.350 . S
C853 N861 1.427 . S
C854 H845 0.930 . S
C854 C852 1.378 . S
C854 C855 1.367 . S
C855 C854 1.367 . S
C855 C857 1.433 . S
C856 C852 1.350 . S
C856 C853 1.463 . S
C856 N860 1.427 . S
C857 H847 0.929 . S
C857 C855 1.433 . S
C857 N860 1.384 . S
C858 H849 0.929 . S
C858 C850 1.378 . S
C858 C853 1.350 . S
C859 H846 0.929 . S
C859 C851 1.433 . S
C859 N861 1.384 . S
N860 C856 1.427 . S
N860 C857 1.384 . S
N861 C853 1.427 . S
N861 C859 1.384 . S
H862 C868 0.930 1_455 S
H863 C872 0.930 1_655 S
H864 C877 0.929 . S
H865 C875 0.929 . S
H866 C870 0.929 . S
H867 C876 0.929 . S
C868 H862 0.930 1_655 S
C868 C869 1.367 . S
C868 C876 1.378 1_655 S
C869 C868 1.367 . S
C869 C877 1.433 . S
C870 H866 0.929 . S
C870 C872 1.378 1_655 S
C870 C874 1.350 1_655 S
C871 C874 1.463 1_645 S
C871 C876 1.350 1_655 S
C871 N879 1.427 . S
C872 H863 0.930 1_455 S
C872 C870 1.378 1_455 S
C872 C873 1.367 . S
C873 C872 1.367 . S
C873 C875 1.433 . S
C874 C870 1.350 1_455 S
C874 C871 1.463 1_465 S
C874 N878 1.427 . S
C875 H865 0.929 . S
C875 C873 1.433 . S
C875 N878 1.384 . S
C876 H867 0.929 . S
C876 C868 1.378 1_455 S
C876 C871 1.350 1_455 S
C877 H864 0.929 . S
C877 C869 1.433 . S
C877 N879 1.384 . S
N878 C874 1.427 . S
N878 C875 1.384 . S
N879 C871 1.427 . S
N879 C877 1.384 . S
H880 C886 0.930 . S
H881 C890 0.930 . S
H882 C895 0.929 . S
H883 C893 0.929 . S
H884 C888 0.929 . S
H885 C894 0.929 . S
C886 H880 0.930 . S
C886 C887 1.367 . S
C886 C894 1.378 . S
C887 C886 1.367 . S
C887 C895 1.433 . S
C888 H884 0.929 . S
C888 C890 1.378 . S
C888 C892 1.350 . S
C889 C892 1.463 . S
C889 C894 1.350 . S
C889 N897 1.427 . S
C890 H881 0.930 . S
C890 C888 1.378 . S
C890 C891 1.367 . S
C891 C890 1.367 . S
C891 C893 1.433 . S
C892 C888 1.350 . S
C892 C889 1.463 . S
C892 N896 1.427 . S
C893 H883 0.929 . S
C893 C891 1.433 . S
C893 N896 1.384 . S
C894 H885 0.929 . S
C894 C886 1.378 . S
C894 C889 1.350 . S
C895 H882 0.929 . S
C895 C887 1.433 . S
C895 N897 1.384 . S
N896 C892 1.427 . S
N896 C893 1.384 . S
N897 C889 1.427 . S
N897 C895 1.384 . S
H898 C904 0.930 . S
H899 C908 0.930 . S
H900 C913 0.929 . S
H901 C911 0.929 . S
H902 C906 0.929 . S
H903 C912 0.929 . S
C904 H898 0.930 . S
C904 C905 1.367 . S
C904 C912 1.378 . S
C905 C904 1.367 . S
C905 C913 1.433 . S
C906 H902 0.929 . S
C906 C908 1.378 . S
C906 C910 1.350 . S
C907 C910 1.463 1_565 S
C907 C912 1.350 . S
C907 N915 1.427 . S
C908 H899 0.930 . S
C908 C906 1.378 . S
C908 C909 1.367 . S
C909 C908 1.367 . S
C909 C911 1.433 . S
C910 C906 1.350 . S
C910 C907 1.463 1_545 S
C910 N914 1.427 . S
C911 H901 0.929 . S
C911 C909 1.433 . S
C911 N914 1.384 . S
C912 H903 0.929 . S
C912 C904 1.378 . S
C912 C907 1.350 . S
C913 H900 0.929 . S
C913 C905 1.433 . S
C913 N915 1.384 . S
N914 C910 1.427 . S
N914 C911 1.384 . S
N915 C907 1.427 . S
N915 C913 1.384 . S
H916 C922 0.930 . S
H917 C926 0.930 . S
H918 C931 0.929 . S
H919 C929 0.929 . S
H920 C924 0.929 . S
H921 C930 0.929 . S
C922 H916 0.930 . S
C922 C923 1.367 . S
C922 C930 1.378 . S
C923 C922 1.367 . S
C923 C931 1.433 . S
C924 H920 0.929 . S
C924 C926 1.378 . S
C924 C928 1.350 . S
C925 C928 1.463 . S
C925 C930 1.350 . S
C925 N933 1.427 . S
C926 H917 0.930 . S
C926 C924 1.378 . S
C926 C927 1.367 . S
C927 C926 1.367 . S
C927 C929 1.433 . S
C928 C924 1.350 . S
C928 C925 1.463 . S
C928 N932 1.427 . S
C929 H919 0.929 . S
C929 C927 1.433 . S
C929 N932 1.384 . S
C930 H921 0.929 . S
C930 C922 1.378 . S
C930 C925 1.350 . S
C931 H918 0.929 . S
C931 C923 1.433 . S
C931 N933 1.384 . S
N932 C928 1.427 . S
N932 C929 1.384 . S
N933 C925 1.427 . S
N933 C931 1.384 . S
H934 C940 0.930 1_545 S
H935 C944 0.930 1_565 S
H936 C949 0.929 . S
H937 C947 0.929 . S
H938 C942 0.929 . S
H939 C948 0.929 . S
C940 H934 0.930 1_565 S
C940 C941 1.367 . S
C940 C948 1.378 1_565 S
C941 C940 1.367 . S
C941 C949 1.433 . S
C942 H938 0.929 . S
C942 C944 1.378 1_565 S
C942 C946 1.350 1_565 S
C943 C946 1.463 1_565 S
C943 C948 1.350 1_565 S
C943 N951 1.427 . S
C944 H935 0.930 1_545 S
C944 C942 1.378 1_545 S
C944 C945 1.367 . S
C945 C944 1.367 . S
C945 C947 1.433 . S
C946 C942 1.350 1_545 S
C946 C943 1.463 1_545 S
C946 N950 1.427 . S
C947 H937 0.929 . S
C947 C945 1.433 . S
C947 N950 1.384 . S
C948 H939 0.929 . S
C948 C940 1.378 1_545 S
C948 C943 1.350 1_545 S
C949 H936 0.929 . S
C949 C941 1.433 . S
C949 N951 1.384 . S
N950 C946 1.427 . S
N950 C947 1.384 . S
N951 C943 1.427 . S
N951 C949 1.384 . S
H952 C958 0.930 . S
H953 C962 0.930 . S
H954 C967 0.929 . S
H955 C965 0.929 . S
H956 C960 0.929 . S
H957 C966 0.929 . S
C958 H952 0.930 . S
C958 C959 1.367 . S
C958 C966 1.378 . S
C959 C958 1.367 . S
C959 C967 1.433 . S
C960 H956 0.929 . S
C960 C962 1.378 . S
C960 C964 1.350 . S
C961 C964 1.463 . S
C961 C966 1.350 . S
C961 N969 1.427 . S
C962 H953 0.930 . S
C962 C960 1.378 . S
C962 C963 1.367 . S
C963 C962 1.367 . S
C963 C965 1.433 . S
C964 C960 1.350 . S
C964 C961 1.463 . S
C964 N968 1.427 . S
C965 H955 0.929 . S
C965 C963 1.433 . S
C965 N968 1.384 . S
C966 H957 0.929 . S
C966 C958 1.378 . S
C966 C961 1.350 . S
C967 H954 0.929 . S
C967 C959 1.433 . S
C967 N969 1.384 . S
N968 C964 1.427 . S
N968 C965 1.384 . S
N969 C961 1.427 . S
N969 C967 1.384 . S
H970 C976 0.930 . S
H971 C980 0.930 . S
H972 C985 0.929 . S
H973 C983 0.929 . S
H974 C978 0.929 . S
H975 C984 0.929 . S
C976 H970 0.930 . S
C976 C977 1.367 . S
C976 C984 1.378 . S
C977 C976 1.367 . S
C977 C985 1.433 . S
C978 H974 0.929 . S
C978 C980 1.378 . S
C978 C982 1.350 . S
C979 C982 1.463 . S
C979 C984 1.350 . S
C979 N987 1.427 . S
C980 H971 0.930 . S
C980 C978 1.378 . S
C980 C981 1.367 . S
C981 C980 1.367 . S
C981 C983 1.433 . S
C982 C978 1.350 . S
C982 C979 1.463 . S
C982 N986 1.427 . S
C983 H973 0.929 . S
C983 C981 1.433 . S
C983 N986 1.384 . S
C984 H975 0.929 . S
C984 C976 1.378 . S
C984 C979 1.350 . S
C985 H972 0.929 . S
C985 C977 1.433 . S
C985 N987 1.384 . S
N986 C982 1.427 . S
N986 C983 1.384 . S
N987 C979 1.427 . S
N987 C985 1.384 . S
H988 C994 0.930 . S
H989 C998 0.930 . S
H990 C1003 0.929 . S
H991 C1001 0.929 . S
H992 C996 0.929 . S
H993 C1002 0.929 . S
C994 H988 0.930 . S
C994 C995 1.367 . S
C994 C1002 1.378 . S
C995 C994 1.367 . S
C995 C1003 1.433 . S
C996 H992 0.929 . S
C996 C998 1.378 . S
C996 C1000 1.350 . S
C997 C1000 1.463 . S
C997 C1002 1.350 . S
C997 N1005 1.427 . S
C998 H989 0.930 . S
C998 C996 1.378 . S
C998 C999 1.367 . S
C999 C998 1.367 . S
C999 C1001 1.433 . S
C1000 C996 1.350 . S
C1000 C997 1.463 . S
C1000 N1004 1.427 . S
C1001 H991 0.929 . S
C1001 C999 1.433 . S
C1001 N1004 1.384 . S
C1002 H993 0.929 . S
C1002 C994 1.378 . S
C1002 C997 1.350 . S
C1003 H990 0.929 . S
C1003 C995 1.433 . S
C1003 N1005 1.384 . S
N1004 C1000 1.427 . S
N1004 C1001 1.384 . S
N1005 C997 1.427 . S
N1005 C1003 1.384 . S
H1006 C1012 0.930 . S
H1007 C1016 0.930 . S
H1008 C1021 0.929 . S
H1009 C1019 0.929 . S
H1010 C1014 0.929 1_556 S
H1011 C1020 0.929 1_554 S
C1012 H1006 0.930 . S
C1012 C1013 1.367 . S
C1012 C1020 1.378 . S
C1013 C1012 1.367 . S
C1013 C1021 1.433 . S
C1014 H1010 0.929 1_554 S
C1014 C1016 1.378 . S
C1014 C1018 1.350 . S
C1015 C1018 1.463 1_546 S
C1015 C1020 1.350 . S
C1015 N1023 1.427 . S
C1016 H1007 0.930 . S
C1016 C1014 1.378 . S
C1016 C1017 1.367 . S
C1017 C1016 1.367 . S
C1017 C1019 1.433 . S
C1018 C1014 1.350 . S
C1018 C1015 1.463 1_564 S
C1018 N1022 1.427 . S
C1019 H1009 0.929 . S
C1019 C1017 1.433 . S
C1019 N1022 1.384 . S
C1020 H1011 0.929 1_556 S
C1020 C1012 1.378 . S
C1020 C1015 1.350 . S
C1021 H1008 0.929 . S
C1021 C1013 1.433 . S
C1021 N1023 1.384 . S
N1022 C1018 1.427 . S
N1022 C1019 1.384 . S
N1023 C1015 1.427 . S
N1023 C1021 1.384 . S
H1024 C1030 0.930 . S
H1025 C1034 0.930 . S
H1026 C1039 0.929 . S
H1027 C1037 0.929 . S
H1028 C1032 0.929 . S
H1029 C1038 0.929 . S
C1030 H1024 0.930 . S
C1030 C1031 1.367 . S
C1030 C1038 1.378 . S
C1031 C1030 1.367 . S
C1031 C1039 1.433 . S
C1032 H1028 0.929 . S
C1032 C1034 1.378 . S
C1032 C1036 1.350 . S
C1033 C1036 1.463 . S
C1033 C1038 1.350 . S
C1033 N1041 1.427 . S
C1034 H1025 0.930 . S
C1034 C1032 1.378 . S
C1034 C1035 1.367 . S
C1035 C1034 1.367 . S
C1035 C1037 1.433 . S
C1036 C1032 1.350 . S
C1036 C1033 1.463 . S
C1036 N1040 1.427 . S
C1037 H1027 0.929 . S
C1037 C1035 1.433 . S
C1037 N1040 1.384 . S
C1038 H1029 0.929 . S
C1038 C1030 1.378 . S
C1038 C1033 1.350 . S
C1039 H1026 0.929 . S
C1039 C1031 1.433 . S
C1039 N1041 1.384 . S
N1040 C1036 1.427 . S
N1040 C1037 1.384 . S
N1041 C1033 1.427 . S
N1041 C1039 1.384 . S
H1042 C1048 0.930 . S
H1043 C1052 0.930 . S
H1044 C1057 0.929 . S
H1045 C1055 0.929 . S
H1046 C1050 0.929 . S
H1047 C1056 0.929 . S
C1048 H1042 0.930 . S
C1048 C1049 1.367 . S
C1048 C1056 1.378 . S
C1049 C1048 1.367 . S
C1049 C1057 1.433 . S
C1050 H1046 0.929 . S
C1050 C1052 1.378 . S
C1050 C1054 1.350 . S
C1051 C1054 1.463 . S
C1051 C1056 1.350 . S
C1051 N1059 1.427 . S
C1052 H1043 0.930 . S
C1052 C1050 1.378 . S
C1052 C1053 1.367 . S
C1053 C1052 1.367 . S
C1053 C1055 1.433 . S
C1054 C1050 1.350 . S
C1054 C1051 1.463 . S
C1054 N1058 1.427 . S
C1055 H1045 0.929 . S
C1055 C1053 1.433 . S
C1055 N1058 1.384 . S
C1056 H1047 0.929 . S
C1056 C1048 1.378 . S
C1056 C1051 1.350 . S
C1057 H1044 0.929 . S
C1057 C1049 1.433 . S
C1057 N1059 1.384 . S
N1058 C1054 1.427 . S
N1058 C1055 1.384 . S
N1059 C1051 1.427 . S
N1059 C1057 1.384 . S
H1060 C1066 0.930 . S
H1061 C1070 0.930 . S
H1062 C1075 0.929 . S
H1063 C1073 0.929 . S
H1064 C1068 0.929 . S
H1065 C1074 0.929 . S
C1066 H1060 0.930 . S
C1066 C1067 1.367 . S
C1066 C1074 1.378 . S
C1067 C1066 1.367 . S
C1067 C1075 1.433 . S
C1068 H1064 0.929 . S
C1068 C1070 1.378 . S
C1068 C1072 1.350 . S
C1069 C1072 1.463 . S
C1069 C1074 1.350 . S
C1069 N1077 1.427 . S
C1070 H1061 0.930 . S
C1070 C1068 1.378 . S
C1070 C1071 1.367 . S
C1071 C1070 1.367 . S
C1071 C1073 1.433 . S
C1072 C1068 1.350 . S
C1072 C1069 1.463 . S
C1072 N1076 1.427 . S
C1073 H1063 0.929 . S
C1073 C1071 1.433 . S
C1073 N1076 1.384 . S
C1074 H1065 0.929 . S
C1074 C1066 1.378 . S
C1074 C1069 1.350 . S
C1075 H1062 0.929 . S
C1075 C1067 1.433 . S
C1075 N1077 1.384 . S
N1076 C1072 1.427 . S
N1076 C1073 1.384 . S
N1077 C1069 1.427 . S
N1077 C1075 1.384 . S
H1078 C1084 0.930 . S
H1079 C1088 0.930 . S
H1080 C1093 0.929 . S
H1081 C1091 0.929 . S
H1082 C1086 0.929 . S
H1083 C1092 0.929 . S
C1084 H1078 0.930 . S
C1084 C1085 1.367 . S
C1084 C1092 1.378 . S
C1085 C1084 1.367 . S
C1085 C1093 1.433 . S
C1086 H1082 0.929 . S
C1086 C1088 1.378 . S
C1086 C1090 1.350 . S
C1087 C1090 1.463 . S
C1087 C1092 1.350 . S
C1087 N1095 1.427 . S
C1088 H1079 0.930 . S
C1088 C1086 1.378 . S
C1088 C1089 1.367 . S
C1089 C1088 1.367 . S
C1089 C1091 1.433 . S
C1090 C1086 1.350 . S
C1090 C1087 1.463 . S
C1090 N1094 1.427 . S
C1091 H1081 0.929 . S
C1091 C1089 1.433 . S
C1091 N1094 1.384 . S
C1092 H1083 0.929 . S
C1092 C1084 1.378 . S
C1092 C1087 1.350 . S
C1093 H1080 0.929 . S
C1093 C1085 1.433 . S
C1093 N1095 1.384 . S
N1094 C1090 1.427 . S
N1094 C1091 1.384 . S
N1095 C1087 1.427 . S
N1095 C1093 1.384 . S
H1096 C1102 0.930 . S
H1097 C1106 0.930 . S
H1098 C1111 0.929 . S
H1099 C1109 0.929 . S
H1100 C1104 0.929 . S
H1101 C1110 0.929 . S
C1102 H1096 0.930 . S
C1102 C1103 1.367 . S
C1102 C1110 1.378 . S
C1103 C1102 1.367 . S
C1103 C1111 1.433 . S
C1104 H1100 0.929 . S
C1104 C1106 1.378 . S
C1104 C1108 1.350 . S
C1105 C1108 1.463 . S
C1105 C1110 1.350 . S
C1105 N1113 1.427 . S
C1106 H1097 0.930 . S
C1106 C1104 1.378 . S
C1106 C1107 1.367 . S
C1107 C1106 1.367 . S
C1107 C1109 1.433 . S
C1108 C1104 1.350 . S
C1108 C1105 1.463 . S
C1108 N1112 1.427 . S
C1109 H1099 0.929 . S
C1109 C1107 1.433 . S
C1109 N1112 1.384 . S
C1110 H1101 0.929 . S
C1110 C1102 1.378 . S
C1110 C1105 1.350 . S
C1111 H1098 0.929 . S
C1111 C1103 1.433 . S
C1111 N1113 1.384 . S
N1112 C1108 1.427 . S
N1112 C1109 1.384 . S
N1113 C1105 1.427 . S
N1113 C1111 1.384 . S
H1114 C1120 0.930 . S
H1115 C1124 0.930 . S
H1116 C1129 0.929 . S
H1117 C1127 0.929 . S
H1118 C1122 0.929 . S
H1119 C1128 0.929 . S
C1120 H1114 0.930 . S
C1120 C1121 1.367 . S
C1120 C1128 1.378 . S
C1121 C1120 1.367 . S
C1121 C1129 1.433 . S
C1122 H1118 0.929 . S
C1122 C1124 1.378 . S
C1122 C1126 1.350 . S
C1123 C1126 1.463 . S
C1123 C1128 1.350 . S
C1123 N1131 1.427 . S
C1124 H1115 0.930 . S
C1124 C1122 1.378 . S
C1124 C1125 1.367 . S
C1125 C1124 1.367 . S
C1125 C1127 1.433 . S
C1126 C1122 1.350 . S
C1126 C1123 1.463 . S
C1126 N1130 1.427 . S
C1127 H1117 0.929 . S
C1127 C1125 1.433 . S
C1127 N1130 1.384 . S
C1128 H1119 0.929 . S
C1128 C1120 1.378 . S
C1128 C1123 1.350 . S
C1129 H1116 0.929 . S
C1129 C1121 1.433 . S
C1129 N1131 1.384 . S
N1130 C1126 1.427 . S
N1130 C1127 1.384 . S
N1131 C1123 1.427 . S
N1131 C1129 1.384 . S
H1132 C1138 0.930 . S
H1133 C1142 0.930 . S
H1134 C1147 0.929 . S
H1135 C1145 0.929 . S
H1136 C1140 0.929 . S
H1137 C1146 0.929 . S
C1138 H1132 0.930 . S
C1138 C1139 1.367 . S
C1138 C1146 1.378 . S
C1139 C1138 1.367 . S
C1139 C1147 1.433 . S
C1140 H1136 0.929 . S
C1140 C1142 1.378 . S
C1140 C1144 1.350 . S
C1141 C1144 1.463 . S
C1141 C1146 1.350 . S
C1141 N1149 1.427 . S
C1142 H1133 0.930 . S
C1142 C1140 1.378 . S
C1142 C1143 1.367 . S
C1143 C1142 1.367 . S
C1143 C1145 1.433 . S
C1144 C1140 1.350 . S
C1144 C1141 1.463 . S
C1144 N1148 1.427 . S
C1145 H1135 0.929 . S
C1145 C1143 1.433 . S
C1145 N1148 1.384 . S
C1146 H1137 0.929 . S
C1146 C1138 1.378 . S
C1146 C1141 1.350 . S
C1147 H1134 0.929 . S
C1147 C1139 1.433 . S
C1147 N1149 1.384 . S
N1148 C1144 1.427 . S
N1148 C1145 1.384 . S
N1149 C1141 1.427 . S
N1149 C1147 1.384 . S
H1150 C1156 0.930 . S
H1151 C1160 0.930 . S
H1152 C1165 0.929 . S
H1153 C1163 0.929 . S
H1154 C1158 0.929 . S
H1155 C1164 0.929 . S
C1156 H1150 0.930 . S
C1156 C1157 1.367 . S
C1156 C1164 1.378 . S
C1157 C1156 1.367 . S
C1157 C1165 1.433 . S
C1158 H1154 0.929 . S
C1158 C1160 1.378 . S
C1158 C1162 1.350 . S
C1159 C1162 1.463 . S
C1159 C1164 1.350 . S
C1159 N1167 1.427 . S
C1160 H1151 0.930 . S
C1160 C1158 1.378 . S
C1160 C1161 1.367 . S
C1161 C1160 1.367 . S
C1161 C1163 1.433 . S
C1162 C1158 1.350 . S
C1162 C1159 1.463 . S
C1162 N1166 1.427 . S
C1163 H1153 0.929 . S
C1163 C1161 1.433 . S
C1163 N1166 1.384 . S
C1164 H1155 0.929 . S
C1164 C1156 1.378 . S
C1164 C1159 1.350 . S
C1165 H1152 0.929 . S
C1165 C1157 1.433 . S
C1165 N1167 1.384 . S
N1166 C1162 1.427 . S
N1166 C1163 1.384 . S
N1167 C1159 1.427 . S
N1167 C1165 1.384 . S
H1168 C1174 0.930 . S
H1169 C1178 0.930 . S
H1170 C1183 0.929 . S
H1171 C1181 0.929 . S
H1172 C1176 0.929 . S
H1173 C1182 0.929 . S
C1174 H1168 0.930 . S
C1174 C1175 1.367 . S
C1174 C1182 1.378 . S
C1175 C1174 1.367 . S
C1175 C1183 1.433 . S
C1176 H1172 0.929 . S
C1176 C1178 1.378 . S
C1176 C1180 1.350 . S
C1177 C1180 1.463 . S
C1177 C1182 1.350 . S
C1177 N1185 1.427 . S
C1178 H1169 0.930 . S
C1178 C1176 1.378 . S
C1178 C1179 1.367 . S
C1179 C1178 1.367 . S
C1179 C1181 1.433 . S
C1180 C1176 1.350 . S
C1180 C1177 1.463 . S
C1180 N1184 1.427 . S
C1181 H1171 0.929 . S
C1181 C1179 1.433 . S
C1181 N1184 1.384 . S
C1182 H1173 0.929 . S
C1182 C1174 1.378 . S
C1182 C1177 1.350 . S
C1183 H1170 0.929 . S
C1183 C1175 1.433 . S
C1183 N1185 1.384 . S
N1184 C1180 1.427 . S
N1184 C1181 1.384 . S
N1185 C1177 1.427 . S
N1185 C1183 1.384 . S
H1186 C1192 0.930 . S
H1187 C1196 0.930 . S
H1188 C1201 0.929 . S
H1189 C1199 0.929 . S
H1190 C1194 0.929 . S
H1191 C1200 0.929 . S
C1192 H1186 0.930 . S
C1192 C1193 1.367 . S
C1192 C1200 1.378 . S
C1193 C1192 1.367 . S
C1193 C1201 1.433 . S
C1194 H1190 0.929 . S
C1194 C1196 1.378 . S
C1194 C1198 1.350 . S
C1195 C1198 1.463 . S
C1195 C1200 1.350 . S
C1195 N1203 1.427 . S
C1196 H1187 0.930 . S
C1196 C1194 1.378 . S
C1196 C1197 1.367 . S
C1197 C1196 1.367 . S
C1197 C1199 1.433 . S
C1198 C1194 1.350 . S
C1198 C1195 1.463 . S
C1198 N1202 1.427 . S
C1199 H1189 0.929 . S
C1199 C1197 1.433 . S
C1199 N1202 1.384 . S
C1200 H1191 0.929 . S
C1200 C1192 1.378 . S
C1200 C1195 1.350 . S
C1201 H1188 0.929 . S
C1201 C1193 1.433 . S
C1201 N1203 1.384 . S
N1202 C1198 1.427 . S
N1202 C1199 1.384 . S
N1203 C1195 1.427 . S
N1203 C1201 1.384 . S
H1204 C1210 0.930 . S
H1205 C1214 0.930 . S
H1206 C1219 0.929 . S
H1207 C1217 0.929 . S
H1208 C1212 0.929 . S
H1209 C1218 0.929 . S
C1210 H1204 0.930 . S
C1210 C1211 1.367 . S
C1210 C1218 1.378 . S
C1211 C1210 1.367 . S
C1211 C1219 1.433 . S
C1212 H1208 0.929 . S
C1212 C1214 1.378 . S
C1212 C1216 1.350 . S
C1213 C1216 1.463 . S
C1213 C1218 1.350 . S
C1213 N1221 1.427 . S
C1214 H1205 0.930 . S
C1214 C1212 1.378 . S
C1214 C1215 1.367 . S
C1215 C1214 1.367 . S
C1215 C1217 1.433 . S
C1216 C1212 1.350 . S
C1216 C1213 1.463 . S
C1216 N1220 1.427 . S
C1217 H1207 0.929 . S
C1217 C1215 1.433 . S
C1217 N1220 1.384 . S
C1218 H1209 0.929 . S
C1218 C1210 1.378 . S
C1218 C1213 1.350 . S
C1219 H1206 0.929 . S
C1219 C1211 1.433 . S
C1219 N1221 1.384 . S
N1220 C1216 1.427 . S
N1220 C1217 1.384 . S
N1221 C1213 1.427 . S
N1221 C1219 1.384 . S
H1222 C1228 0.930 . S
H1223 C1232 0.930 . S
H1224 C1237 0.929 . S
H1225 C1235 0.929 . S
H1226 C1230 0.929 . S
H1227 C1236 0.929 . S
C1228 H1222 0.930 . S
C1228 C1229 1.367 . S
C1228 C1236 1.378 . S
C1229 C1228 1.367 . S
C1229 C1237 1.433 . S
C1230 H1226 0.929 . S
C1230 C1232 1.378 . S
C1230 C1234 1.350 . S
C1231 C1234 1.463 . S
C1231 C1236 1.350 . S
C1231 N1239 1.427 . S
C1232 H1223 0.930 . S
C1232 C1230 1.378 . S
C1232 C1233 1.367 . S
C1233 C1232 1.367 . S
C1233 C1235 1.433 . S
C1234 C1230 1.350 . S
C1234 C1231 1.463 . S
C1234 N1238 1.427 . S
C1235 H1225 0.929 . S
C1235 C1233 1.433 . S
C1235 N1238 1.384 . S
C1236 H1227 0.929 . S
C1236 C1228 1.378 . S
C1236 C1231 1.350 . S
C1237 H1224 0.929 . S
C1237 C1229 1.433 . S
C1237 N1239 1.384 . S
N1238 C1234 1.427 . S
N1238 C1235 1.384 . S
N1239 C1231 1.427 . S
N1239 C1237 1.384 . S
H1240 C1246 0.930 . S
H1241 C1250 0.930 . S
H1242 C1255 0.929 . S
H1243 C1253 0.929 . S
H1244 C1248 0.929 . S
H1245 C1254 0.929 . S
C1246 H1240 0.930 . S
C1246 C1247 1.367 . S
C1246 C1254 1.378 . S
C1247 C1246 1.367 . S
C1247 C1255 1.433 . S
C1248 H1244 0.929 . S
C1248 C1250 1.378 . S
C1248 C1252 1.350 . S
C1249 C1252 1.463 . S
C1249 C1254 1.350 . S
C1249 N1257 1.427 . S
C1250 H1241 0.930 . S
C1250 C1248 1.378 . S
C1250 C1251 1.367 . S
C1251 C1250 1.367 . S
C1251 C1253 1.433 . S
C1252 C1248 1.350 . S
C1252 C1249 1.463 . S
C1252 N1256 1.427 . S
C1253 H1243 0.929 . S
C1253 C1251 1.433 . S
C1253 N1256 1.384 . S
C1254 H1245 0.929 . S
C1254 C1246 1.378 . S
C1254 C1249 1.350 . S
C1255 H1242 0.929 . S
C1255 C1247 1.433 . S
C1255 N1257 1.384 . S
N1256 C1252 1.427 . S
N1256 C1253 1.384 . S
N1257 C1249 1.427 . S
N1257 C1255 1.384 . S
H1258 C1264 0.930 . S
H1259 C1268 0.930 . S
H1260 C1273 0.929 . S
H1261 C1271 0.929 . S
H1262 C1266 0.929 . S
H1263 C1272 0.929 . S
C1264 H1258 0.930 . S
C1264 C1265 1.367 . S
C1264 C1272 1.378 . S
C1265 C1264 1.367 . S
C1265 C1273 1.433 . S
C1266 H1262 0.929 . S
C1266 C1268 1.378 . S
C1266 C1270 1.350 . S
C1267 C1270 1.463 . S
C1267 C1272 1.350 . S
C1267 N1275 1.427 . S
C1268 H1259 0.930 . S
C1268 C1266 1.378 . S
C1268 C1269 1.367 . S
C1269 C1268 1.367 . S
C1269 C1271 1.433 . S
C1270 C1266 1.350 . S
C1270 C1267 1.463 . S
C1270 N1274 1.427 . S
C1271 H1261 0.929 . S
C1271 C1269 1.433 . S
C1271 N1274 1.384 . S
C1272 H1263 0.929 . S
C1272 C1264 1.378 . S
C1272 C1267 1.350 . S
C1273 H1260 0.929 . S
C1273 C1265 1.433 . S
C1273 N1275 1.384 . S
N1274 C1270 1.427 . S
N1274 C1271 1.384 . S
N1275 C1267 1.427 . S
N1275 C1273 1.384 . S
H1276 C1282 0.930 . S
H1277 C1286 0.930 . S
H1278 C1291 0.929 . S
H1279 C1289 0.929 . S
H1280 C1284 0.929 . S
H1281 C1290 0.929 . S
C1282 H1276 0.930 . S
C1282 C1283 1.367 . S
C1282 C1290 1.378 . S
C1283 C1282 1.367 . S
C1283 C1291 1.433 . S
C1284 H1280 0.929 . S
C1284 C1286 1.378 . S
C1284 C1288 1.350 . S
C1285 C1288 1.463 . S
C1285 C1290 1.350 . S
C1285 N1293 1.427 . S
C1286 H1277 0.930 . S
C1286 C1284 1.378 . S
C1286 C1287 1.367 . S
C1287 C1286 1.367 . S
C1287 C1289 1.433 . S
C1288 C1284 1.350 . S
C1288 C1285 1.463 . S
C1288 N1292 1.427 . S
C1289 H1279 0.929 . S
C1289 C1287 1.433 . S
C1289 N1292 1.384 . S
C1290 H1281 0.929 . S
C1290 C1282 1.378 . S
C1290 C1285 1.350 . S
C1291 H1278 0.929 . S
C1291 C1283 1.433 . S
C1291 N1293 1.384 . S
N1292 C1288 1.427 . S
N1292 C1289 1.384 . S
N1293 C1285 1.427 . S
N1293 C1291 1.384 . S
H1294 C1300 0.930 . S
H1295 C1304 0.930 . S
H1296 C1309 0.929 . S
H1297 C1307 0.929 . S
H1298 C1302 0.929 . S
H1299 C1308 0.929 . S
C1300 H1294 0.930 . S
C1300 C1301 1.367 . S
C1300 C1308 1.378 . S
C1301 C1300 1.367 . S
C1301 C1309 1.433 . S
C1302 H1298 0.929 . S
C1302 C1304 1.378 . S
C1302 C1306 1.350 . S
C1303 C1306 1.463 . S
C1303 C1308 1.350 . S
C1303 N1311 1.427 . S
C1304 H1295 0.930 . S
C1304 C1302 1.378 . S
C1304 C1305 1.367 . S
C1305 C1304 1.367 . S
C1305 C1307 1.433 . S
C1306 C1302 1.350 . S
C1306 C1303 1.463 . S
C1306 N1310 1.427 . S
C1307 H1297 0.929 . S
C1307 C1305 1.433 . S
C1307 N1310 1.384 . S
C1308 H1299 0.929 . S
C1308 C1300 1.378 . S
C1308 C1303 1.350 . S
C1309 H1296 0.929 . S
C1309 C1301 1.433 . S
C1309 N1311 1.384 . S
N1310 C1306 1.427 . S
N1310 C1307 1.384 . S
N1311 C1303 1.427 . S
N1311 C1309 1.384 . S
H1312 C1318 0.930 1_565 S
H1313 C1322 0.930 . S
H1314 C1327 0.929 . S
H1315 C1325 0.929 . S
H1316 C1320 0.929 . S
H1317 C1326 0.929 . S
C1318 H1312 0.930 1_545 S
C1318 C1319 1.367 1_545 S
C1318 C1326 1.378 . S
C1319 C1318 1.367 1_565 S
C1319 C1327 1.433 1_565 S
C1320 H1316 0.929 . S
C1320 C1322 1.378 . S
C1320 C1324 1.350 . S
C1321 C1324 1.463 . S
C1321 C1326 1.350 . S
C1321 N1329 1.427 . S
C1322 H1313 0.930 . S
C1322 C1320 1.378 . S
C1322 C1323 1.367 . S
C1323 C1322 1.367 . S
C1323 C1325 1.433 . S
C1324 C1320 1.350 . S
C1324 C1321 1.463 . S
C1324 N1328 1.427 . S
C1325 H1315 0.929 . S
C1325 C1323 1.433 . S
C1325 N1328 1.384 . S
C1326 H1317 0.929 . S
C1326 C1318 1.378 . S
C1326 C1321 1.350 . S
C1327 H1314 0.929 . S
C1327 C1319 1.433 1_545 S
C1327 N1329 1.384 . S
N1328 C1324 1.427 . S
N1328 C1325 1.384 . S
N1329 C1321 1.427 . S
N1329 C1327 1.384 . S
H1330 C1336 0.930 . S
H1331 C1340 0.930 . S
H1332 C1345 0.929 1_565 S
H1333 C1343 0.929 . S
H1334 C1338 0.929 . S
H1335 C1344 0.929 . S
C1336 H1330 0.930 . S
C1336 C1337 1.367 1_545 S
C1336 C1344 1.378 . S
C1337 C1336 1.367 1_565 S
C1337 C1345 1.433 1_565 S
C1338 H1334 0.929 . S
C1338 C1340 1.378 . S
C1338 C1342 1.350 . S
C1339 C1342 1.463 . S
C1339 C1344 1.350 . S
C1339 N1347 1.427 . S
C1340 H1331 0.930 . S
C1340 C1338 1.378 . S
C1340 C1341 1.367 . S
C1341 C1340 1.367 . S
C1341 C1343 1.433 . S
C1342 C1338 1.350 . S
C1342 C1339 1.463 . S
C1342 N1346 1.427 . S
C1343 H1333 0.929 . S
C1343 C1341 1.433 . S
C1343 N1346 1.384 . S
C1344 H1335 0.929 . S
C1344 C1336 1.378 . S
C1344 C1339 1.350 . S
C1345 H1332 0.929 1_545 S
C1345 C1337 1.433 1_545 S
C1345 N1347 1.384 . S
N1346 C1342 1.427 . S
N1346 C1343 1.384 . S
N1347 C1339 1.427 . S
N1347 C1345 1.384 . S
H1348 C1354 0.930 . S
H1349 C1358 0.930 . S
H1350 C1363 0.929 . S
H1351 C1361 0.929 1_545 S
H1352 C1356 0.929 . S
H1353 C1362 0.929 . S
C1354 H1348 0.930 . S
C1354 C1355 1.367 . S
C1354 C1362 1.378 . S
C1355 C1354 1.367 . S
C1355 C1363 1.433 . S
C1356 H1352 0.929 . S
C1356 C1358 1.378 . S
C1356 C1360 1.350 . S
C1357 C1360 1.463 . S
C1357 C1362 1.350 . S
C1357 N1365 1.427 . S
C1358 H1349 0.930 . S
C1358 C1356 1.378 . S
C1358 C1359 1.367 1_565 S
C1359 C1358 1.367 1_545 S
C1359 C1361 1.433 1_545 S
C1360 C1356 1.350 . S
C1360 C1357 1.463 . S
C1360 N1364 1.427 . S
C1361 H1351 0.929 1_565 S
C1361 C1359 1.433 1_565 S
C1361 N1364 1.384 . S
C1362 H1353 0.929 . S
C1362 C1354 1.378 . S
C1362 C1357 1.350 . S
C1363 H1350 0.929 . S
C1363 C1355 1.433 . S
C1363 N1365 1.384 . S
N1364 C1360 1.427 . S
N1364 C1361 1.384 . S
N1365 C1357 1.427 . S
N1365 C1363 1.384 . S
H1366 C1372 0.930 1_545 S
H1367 C1376 0.930 . S
H1368 C1381 0.929 . S
H1369 C1379 0.929 . S
H1370 C1374 0.929 . S
H1371 C1380 0.929 . S
C1372 H1366 0.930 1_565 S
C1372 C1373 1.367 1_565 S
C1372 C1380 1.378 . S
C1373 C1372 1.367 1_545 S
C1373 C1381 1.433 1_545 S
C1374 H1370 0.929 . S
C1374 C1376 1.378 . S
C1374 C1378 1.350 . S
C1375 C1378 1.463 . S
C1375 C1380 1.350 . S
C1375 N1383 1.427 . S
C1376 H1367 0.930 . S
C1376 C1374 1.378 . S
C1376 C1377 1.367 . S
C1377 C1376 1.367 . S
C1377 C1379 1.433 . S
C1378 C1374 1.350 . S
C1378 C1375 1.463 . S
C1378 N1382 1.427 . S
C1379 H1369 0.929 . S
C1379 C1377 1.433 . S
C1379 N1382 1.384 . S
C1380 H1371 0.929 . S
C1380 C1372 1.378 . S
C1380 C1375 1.350 . S
C1381 H1368 0.929 . S
C1381 C1373 1.433 1_565 S
C1381 N1383 1.384 . S
N1382 C1378 1.427 . S
N1382 C1379 1.384 . S
N1383 C1375 1.427 . S
N1383 C1381 1.384 . S
H1384 C1390 0.930 . S
H1385 C1394 0.930 . S
H1386 C1399 0.929 . S
H1387 C1397 0.929 . S
H1388 C1392 0.929 . S
H1389 C1398 0.929 . S
C1390 H1384 0.930 . S
C1390 C1391 1.367 . S
C1390 C1398 1.378 . S
C1391 C1390 1.367 . S
C1391 C1399 1.433 . S
C1392 H1388 0.929 . S
C1392 C1394 1.378 . S
C1392 C1396 1.350 . S
C1393 C1396 1.463 . S
C1393 C1398 1.350 . S
C1393 N1401 1.427 . S
C1394 H1385 0.930 . S
C1394 C1392 1.378 . S
C1394 C1395 1.367 . S
C1395 C1394 1.367 . S
C1395 C1397 1.433 . S
C1396 C1392 1.350 . S
C1396 C1393 1.463 . S
C1396 N1400 1.427 . S
C1397 H1387 0.929 . S
C1397 C1395 1.433 . S
C1397 N1400 1.384 . S
C1398 H1389 0.929 . S
C1398 C1390 1.378 . S
C1398 C1393 1.350 . S
C1399 H1386 0.929 . S
C1399 C1391 1.433 . S
C1399 N1401 1.384 . S
N1400 C1396 1.427 . S
N1400 C1397 1.384 . S
N1401 C1393 1.427 . S
N1401 C1399 1.384 . S
H1402 C1408 0.930 . S
H1403 C1412 0.930 . S
H1404 C1417 0.929 . S
H1405 C1415 0.929 . S
H1406 C1410 0.929 . S
H1407 C1416 0.929 . S
C1408 H1402 0.930 . S
C1408 C1409 1.367 . S
C1408 C1416 1.378 . S
C1409 C1408 1.367 . S
C1409 C1417 1.433 . S
C1410 H1406 0.929 . S
C1410 C1412 1.378 . S
C1410 C1414 1.350 . S
C1411 C1414 1.463 . S
C1411 C1416 1.350 . S
C1411 N1419 1.427 . S
C1412 H1403 0.930 . S
C1412 C1410 1.378 . S
C1412 C1413 1.367 . S
C1413 C1412 1.367 . S
C1413 C1415 1.433 . S
C1414 C1410 1.350 . S
C1414 C1411 1.463 . S
C1414 N1418 1.427 . S
C1415 H1405 0.929 . S
C1415 C1413 1.433 . S
C1415 N1418 1.384 . S
C1416 H1407 0.929 . S
C1416 C1408 1.378 . S
C1416 C1411 1.350 . S
C1417 H1404 0.929 . S
C1417 C1409 1.433 . S
C1417 N1419 1.384 . S
N1418 C1414 1.427 . S
N1418 C1415 1.384 . S
N1419 C1411 1.427 . S
N1419 C1417 1.384 . S
H1420 C1426 0.930 . S
H1421 C1430 0.930 . S
H1422 C1435 0.929 . S
H1423 C1433 0.929 . S
H1424 C1428 0.929 . S
H1425 C1434 0.929 . S
C1426 H1420 0.930 . S
C1426 C1427 1.367 . S
C1426 C1434 1.378 . S
C1427 C1426 1.367 . S
C1427 C1435 1.433 . S
C1428 H1424 0.929 . S
C1428 C1430 1.378 . S
C1428 C1432 1.350 . S
C1429 C1432 1.463 . S
C1429 C1434 1.350 . S
C1429 N1437 1.427 . S
C1430 H1421 0.930 . S
C1430 C1428 1.378 . S
C1430 C1431 1.367 . S
C1431 C1430 1.367 . S
C1431 C1433 1.433 . S
C1432 C1428 1.350 . S
C1432 C1429 1.463 . S
C1432 N1436 1.427 . S
C1433 H1423 0.929 . S
C1433 C1431 1.433 . S
C1433 N1436 1.384 . S
C1434 H1425 0.929 . S
C1434 C1426 1.378 . S
C1434 C1429 1.350 . S
C1435 H1422 0.929 . S
C1435 C1427 1.433 . S
C1435 N1437 1.384 . S
N1436 C1432 1.427 . S
N1436 C1433 1.384 . S
N1437 C1429 1.427 . S
N1437 C1435 1.384 . S
H1438 C1444 0.930 . S
H1439 C1448 0.930 . S
H1440 C1453 0.929 . S
H1441 C1451 0.929 . S
H1442 C1446 0.929 . S
H1443 C1452 0.929 . S
C1444 H1438 0.930 . S
C1444 C1445 1.367 . S
C1444 C1452 1.378 . S
C1445 C1444 1.367 . S
C1445 C1453 1.433 . S
C1446 H1442 0.929 . S
C1446 C1448 1.378 . S
C1446 C1450 1.350 . S
C1447 C1450 1.463 . S
C1447 C1452 1.350 . S
C1447 N1455 1.427 . S
C1448 H1439 0.930 . S
C1448 C1446 1.378 . S
C1448 C1449 1.367 . S
C1449 C1448 1.367 . S
C1449 C1451 1.433 . S
C1450 C1446 1.350 . S
C1450 C1447 1.463 . S
C1450 N1454 1.427 . S
C1451 H1441 0.929 . S
C1451 C1449 1.433 . S
C1451 N1454 1.384 . S
C1452 H1443 0.929 . S
C1452 C1444 1.378 . S
C1452 C1447 1.350 . S
C1453 H1440 0.929 . S
C1453 C1445 1.433 . S
C1453 N1455 1.384 . S
N1454 C1450 1.427 . S
N1454 C1451 1.384 . S
N1455 C1447 1.427 . S
N1455 C1453 1.384 . S
H1456 C1462 0.930 1_565 S
H1457 C1466 0.930 . S
H1458 C1471 0.929 . S
H1459 C1469 0.929 . S
H1460 C1464 0.929 . S
H1461 C1470 0.929 . S
C1462 H1456 0.930 1_545 S
C1462 C1463 1.367 1_545 S
C1462 C1470 1.378 . S
C1463 C1462 1.367 1_565 S
C1463 C1471 1.433 1_565 S
C1464 H1460 0.929 . S
C1464 C1466 1.378 . S
C1464 C1468 1.350 . S
C1465 C1468 1.463 . S
C1465 C1470 1.350 . S
C1465 N1473 1.427 . S
C1466 H1457 0.930 . S
C1466 C1464 1.378 . S
C1466 C1467 1.367 . S
C1467 C1466 1.367 . S
C1467 C1469 1.433 . S
C1468 C1464 1.350 . S
C1468 C1465 1.463 . S
C1468 N1472 1.427 . S
C1469 H1459 0.929 . S
C1469 C1467 1.433 . S
C1469 N1472 1.384 . S
C1470 H1461 0.929 . S
C1470 C1462 1.378 . S
C1470 C1465 1.350 . S
C1471 H1458 0.929 . S
C1471 C1463 1.433 1_545 S
C1471 N1473 1.384 . S
N1472 C1468 1.427 . S
N1472 C1469 1.384 . S
N1473 C1465 1.427 . S
N1473 C1471 1.384 . S
H1474 C1480 0.930 . S
H1475 C1484 0.930 1_565 S
H1476 C1489 0.929 . S
H1477 C1487 0.929 . S
H1478 C1482 0.929 . S
H1479 C1488 0.929 . S
C1480 H1474 0.930 . S
C1480 C1481 1.367 . S
C1480 C1488 1.378 . S
C1481 C1480 1.367 . S
C1481 C1489 1.433 . S
C1482 H1478 0.929 . S
C1482 C1484 1.378 . S
C1482 C1486 1.350 . S
C1483 C1486 1.463 . S
C1483 C1488 1.350 . S
C1483 N1491 1.427 . S
C1484 H1475 0.930 1_545 S
C1484 C1482 1.378 . S
C1484 C1485 1.367 1_545 S
C1485 C1484 1.367 1_565 S
C1485 C1487 1.433 1_565 S
C1486 C1482 1.350 . S
C1486 C1483 1.463 . S
C1486 N1490 1.427 . S
C1487 H1477 0.929 . S
C1487 C1485 1.433 1_545 S
C1487 N1490 1.384 . S
C1488 H1479 0.929 . S
C1488 C1480 1.378 . S
C1488 C1483 1.350 . S
C1489 H1476 0.929 . S
C1489 C1481 1.433 . S
C1489 N1491 1.384 . S
N1490 C1486 1.427 . S
N1490 C1487 1.384 . S
N1491 C1483 1.427 . S
N1491 C1489 1.384 . S
H1492 C1498 0.930 . S
H1493 C1502 0.930 1_545 S
H1494 C1507 0.929 . S
H1495 C1505 0.929 . S
H1496 C1500 0.929 . S
H1497 C1506 0.929 . S
C1498 H1492 0.930 . S
C1498 C1499 1.367 . S
C1498 C1506 1.378 . S
C1499 C1498 1.367 . S
C1499 C1507 1.433 . S
C1500 H1496 0.929 . S
C1500 C1502 1.378 . S
C1500 C1504 1.350 . S
C1501 C1504 1.463 . S
C1501 C1506 1.350 . S
C1501 N1509 1.427 . S
C1502 H1493 0.930 1_565 S
C1502 C1500 1.378 . S
C1502 C1503 1.367 1_565 S
C1503 C1502 1.367 1_545 S
C1503 C1505 1.433 1_545 S
C1504 C1500 1.350 . S
C1504 C1501 1.463 . S
C1504 N1508 1.427 . S
C1505 H1495 0.929 . S
C1505 C1503 1.433 1_565 S
C1505 N1508 1.384 . S
C1506 H1497 0.929 . S
C1506 C1498 1.378 . S
C1506 C1501 1.350 . S
C1507 H1494 0.929 . S
C1507 C1499 1.433 . S
C1507 N1509 1.384 . S
N1508 C1504 1.427 . S
N1508 C1505 1.384 . S
N1509 C1501 1.427 . S
N1509 C1507 1.384 . S
H1510 C1516 0.930 . S
H1511 C1520 0.930 1_545 S
H1512 C1525 0.929 . S
H1513 C1523 0.929 . S
H1514 C1518 0.929 . S
H1515 C1524 0.929 . S
C1516 H1510 0.930 . S
C1516 C1517 1.367 . S
C1516 C1524 1.378 . S
C1517 C1516 1.367 . S
C1517 C1525 1.433 . S
C1518 H1514 0.929 . S
C1518 C1520 1.378 . S
C1518 C1522 1.350 . S
C1519 C1522 1.463 . S
C1519 C1524 1.350 . S
C1519 N1527 1.427 . S
C1520 H1511 0.930 1_565 S
C1520 C1518 1.378 . S
C1520 C1521 1.367 1_565 S
C1521 C1520 1.367 1_545 S
C1521 C1523 1.433 1_545 S
C1522 C1518 1.350 . S
C1522 C1519 1.463 . S
C1522 N1526 1.427 . S
C1523 H1513 0.929 . S
C1523 C1521 1.433 1_565 S
C1523 N1526 1.384 . S
C1524 H1515 0.929 . S
C1524 C1516 1.378 . S
C1524 C1519 1.350 . S
C1525 H1512 0.929 . S
C1525 C1517 1.433 . S
C1525 N1527 1.384 . S
N1526 C1522 1.427 . S
N1526 C1523 1.384 . S
N1527 C1519 1.427 . S
N1527 C1525 1.384 . S
H1528 C1534 0.930 . S
H1529 C1538 0.930 . S
H1530 C1543 0.929 . S
H1531 C1541 0.929 . S
H1532 C1536 0.929 . S
H1533 C1542 0.929 . S
C1534 H1528 0.930 . S
C1534 C1535 1.367 . S
C1534 C1542 1.378 . S
C1535 C1534 1.367 . S
C1535 C1543 1.433 . S
C1536 H1532 0.929 . S
C1536 C1538 1.378 . S
C1536 C1540 1.350 . S
C1537 C1540 1.463 . S
C1537 C1542 1.350 . S
C1537 N1545 1.427 . S
C1538 H1529 0.930 . S
C1538 C1536 1.378 . S
C1538 C1539 1.367 . S
C1539 C1538 1.367 . S
C1539 C1541 1.433 . S
C1540 C1536 1.350 . S
C1540 C1537 1.463 . S
C1540 N1544 1.427 . S
C1541 H1531 0.929 . S
C1541 C1539 1.433 . S
C1541 N1544 1.384 . S
C1542 H1533 0.929 . S
C1542 C1534 1.378 . S
C1542 C1537 1.350 . S
C1543 H1530 0.929 . S
C1543 C1535 1.433 . S
C1543 N1545 1.384 . S
N1544 C1540 1.427 . S
N1544 C1541 1.384 . S
N1545 C1537 1.427 . S
N1545 C1543 1.384 . S
H1546 C1552 0.930 . S
H1547 C1556 0.930 . S
H1548 C1561 0.929 . S
H1549 C1559 0.929 . S
H1550 C1554 0.929 . S
H1551 C1560 0.929 . S
C1552 H1546 0.930 . S
C1552 C1553 1.367 . S
C1552 C1560 1.378 . S
C1553 C1552 1.367 . S
C1553 C1561 1.433 . S
C1554 H1550 0.929 . S
C1554 C1556 1.378 . S
C1554 C1558 1.350 . S
C1555 C1558 1.463 . S
C1555 C1560 1.350 . S
C1555 N1563 1.427 . S
C1556 H1547 0.930 . S
C1556 C1554 1.378 . S
C1556 C1557 1.367 . S
C1557 C1556 1.367 . S
C1557 C1559 1.433 . S
C1558 C1554 1.350 . S
C1558 C1555 1.463 . S
C1558 N1562 1.427 . S
C1559 H1549 0.929 . S
C1559 C1557 1.433 . S
C1559 N1562 1.384 . S
C1560 H1551 0.929 . S
C1560 C1552 1.378 . S
C1560 C1555 1.350 . S
C1561 H1548 0.929 . S
C1561 C1553 1.433 . S
C1561 N1563 1.384 . S
N1562 C1558 1.427 . S
N1562 C1559 1.384 . S
N1563 C1555 1.427 . S
N1563 C1561 1.384 . S
H1564 C1570 0.930 . S
H1565 C1574 0.930 . S
H1566 C1579 0.929 . S
H1567 C1577 0.929 . S
H1568 C1572 0.929 . S
H1569 C1578 0.929 . S
C1570 H1564 0.930 . S
C1570 C1571 1.367 . S
C1570 C1578 1.378 . S
C1571 C1570 1.367 . S
C1571 C1579 1.433 . S
C1572 H1568 0.929 . S
C1572 C1574 1.378 . S
C1572 C1576 1.350 . S
C1573 C1576 1.463 . S
C1573 C1578 1.350 . S
C1573 N1581 1.427 . S
C1574 H1565 0.930 . S
C1574 C1572 1.378 . S
C1574 C1575 1.367 . S
C1575 C1574 1.367 . S
C1575 C1577 1.433 . S
C1576 C1572 1.350 . S
C1576 C1573 1.463 . S
C1576 N1580 1.427 . S
C1577 H1567 0.929 . S
C1577 C1575 1.433 . S
C1577 N1580 1.384 . S
C1578 H1569 0.929 . S
C1578 C1570 1.378 . S
C1578 C1573 1.350 . S
C1579 H1566 0.929 . S
C1579 C1571 1.433 . S
C1579 N1581 1.384 . S
N1580 C1576 1.427 . S
N1580 C1577 1.384 . S
N1581 C1573 1.427 . S
N1581 C1579 1.384 . S
H1582 C1588 0.930 . S
H1583 C1592 0.930 . S
H1584 C1597 0.929 . S
H1585 C1595 0.929 . S
H1586 C1590 0.929 . S
H1587 C1596 0.929 . S
C1588 H1582 0.930 . S
C1588 C1589 1.367 . S
C1588 C1596 1.378 . S
C1589 C1588 1.367 . S
C1589 C1597 1.433 . S
C1590 H1586 0.929 . S
C1590 C1592 1.378 . S
C1590 C1594 1.350 . S
C1591 C1594 1.463 . S
C1591 C1596 1.350 . S
C1591 N1599 1.427 . S
C1592 H1583 0.930 . S
C1592 C1590 1.378 . S
C1592 C1593 1.367 . S
C1593 C1592 1.367 . S
C1593 C1595 1.433 . S
C1594 C1590 1.350 . S
C1594 C1591 1.463 . S
C1594 N1598 1.427 . S
C1595 H1585 0.929 . S
C1595 C1593 1.433 . S
C1595 N1598 1.384 . S
C1596 H1587 0.929 . S
C1596 C1588 1.378 . S
C1596 C1591 1.350 . S
C1597 H1584 0.929 . S
C1597 C1589 1.433 . S
C1597 N1599 1.384 . S
N1598 C1594 1.427 . S
N1598 C1595 1.384 . S
N1599 C1591 1.427 . S
N1599 C1597 1.384 . S
C455 C35 0.388 . S
C459 C7 0.385 . S
C473 C21 0.390 . S
C477 C49 0.383 . S
C491 C91 0.401 . S
C495 C63 0.396 . S
C509 C105 0.376 . S
C513 C77 0.400 . S
C527 C119 0.388 . S
C531 C147 0.407 . S
C545 C161 0.396 . S
C549 C133 0.401 . S
C563 C175 0.376 . S
C567 C203 0.401 . S
C581 C189 0.390 . S
C585 C217 0.406 . S
C599 C259 0.401 . S
C603 C231 0.376 . S
C617 C245 0.390 . S
C621 C273 0.406 . S
C635 C287 0.409 . S
C639 C315 0.384 . S
C653 C329 0.376 . S
C657 C301 0.401 . S
C671 C371 0.375 . S
C675 C343 0.410 . S
C689 C385 0.389 . S
C693 C357 0.406 . S
C707 C427 0.405 . S
C711 C399 0.392 . S
C725 C413 0.405 . S
C729 C441 0.391 . S
C743 C64 1.606 . S
C747 C8 1.606 . S
C761 C414 1.604 . S
C765 C22 1.604 . S
C779 C36 1.611 . S
C783 C204 1.611 . S
C797 C50 1.603 . S
C801 C330 1.603 . S
C815 C78 1.606 . S
C819 C358 1.606 . S
C833 C92 1.610 . S
C837 C148 1.610 . S
C851 C274 1.611 . S
C855 C106 1.611 . S
C869 C176 1.609 . S
C873 C120 1.609 . S
C887 C302 1.611 . S
C891 C134 1.611 . S
C905 C162 1.610 . S
C909 C442 1.610 . S
C923 C190 1.605 . S
C927 C246 1.605 . S
C941 C386 1.603 . S
C945 C218 1.603 . S
C959 C288 1.609 . S
C963 C232 1.609 . S
C977 C260 1.604 . S
C981 C428 1.604 . S
C995 C316 1.607 . S
C999 C372 1.607 . S
C1013 C400 1.609 . S
C1017 C344 1.609 . S
C1031 C51 1.492 . S
C1035 C9 1.492 . S
C1049 C37 1.493 . S
C1053 C23 1.493 . S
C1067 C107 1.483 . S
C1071 C65 1.483 . S
C1085 C93 1.490 . S
C1089 C79 1.490 . S
C1103 C163 1.492 . S
C1107 C121 1.492 . S
C1121 C149 1.484 . S
C1125 C135 1.483 . S
C1139 C219 1.482 . S
C1143 C177 1.482 . S
C1157 C205 1.493 . S
C1161 C191 1.493 . S
C1175 C233 1.485 . S
C1179 C275 1.484 . S
C1193 C261 1.491 . S
C1197 C247 1.492 . S
C1211 C289 1.489 . S
C1215 C331 1.489 . S
C1229 C317 1.485 . S
C1233 C303 1.485 . S
C1247 C387 1.485 . S
C1251 C345 1.485 . S
C1265 C359 1.483 . S
C1269 C373 1.484 . S
C1283 C401 1.490 . S
C1287 C443 1.491 . S
C1301 C429 1.491 . S
C1305 C415 1.491 . S
C1319 C31 1.501 . S
C1323 C3 1.497 . S
C1337 C17 1.493 . S
C1341 C45 1.492 . S
C1355 C59 1.497 . S
C1359 C87 1.491 . S
C1373 C73 1.498 . S
C1377 C101 1.500 . S
C1391 C115 1.492 . S
C1395 C143 1.494 . S
C1409 C129 1.501 . S
C1413 C157 1.495 . S
C1427 C199 1.500 . S
C1431 C171 1.499 . S
C1445 C213 1.497 . S
C1449 C185 1.501 . S
C1463 C255 1.500 . S
C1467 C227 1.498 . S
C1481 C269 1.501 . S
C1485 C241 1.497 . S
C1499 C283 1.496 . S
C1503 C311 1.501 . S
C1517 C325 1.496 . S
C1521 C297 1.501 . S
C1535 C367 1.501 . S
C1539 C339 1.497 . S
C1553 C353 1.492 . S
C1557 C381 1.494 . S
C1571 C395 1.492 . S
C1575 C423 1.499 . S
C1589 C437 1.496 . S
C1593 C409 1.501 . S
