# Generated by pormake.
# Topology sxa, (6)-cn, num edge types: 1
# Building blocks:
#     Node 0, Type 0, BuildingBlock: MIDCAF_clean_sbu_0, # of connection points: 6
#     Node 1, Type 0, BuildingBlock: MIDCAF_clean_sbu_0, # of connection points: 6
#     Node 2, Type 0, BuildingBlock: MIDCAF_clean_sbu_0, # of connection points: 6
#     Node 3, Type 0, BuildingBlock: MIDCAF_clean_sbu_0, # of connection points: 6
#     Edge 4, Type (0, 0), BuildingBlock: CIFDUS_clean_linker_0, # of connection points: 2
#     Edge 5, Type (0, 0), BuildingBlock: CIFDUS_clean_linker_0, # of connection points: 2
#     Edge 6, Type (0, 0), BuildingBlock: CIFDUS_clean_linker_0, # of connection points: 2
#     Edge 7, Type (0, 0), BuildingBlock: CIFDUS_clean_linker_0, # of connection points: 2
#     Edge 8, Type (0, 0), BuildingBlock: CIFDUS_clean_linker_0, # of connection points: 2
#     Edge 9, Type (0, 0), BuildingBlock: CIFDUS_clean_linker_0, # of connection points: 2
#     Edge 10, Type (0, 0), BuildingBlock: CIFDUS_clean_linker_0, # of connection points: 2
#     Edge 11, Type (0, 0), BuildingBlock: CIFDUS_clean_linker_0, # of connection points: 2
#     Edge 12, Type (0, 0), BuildingBlock: CIFDUS_clean_linker_0, # of connection points: 2
#     Edge 13, Type (0, 0), BuildingBlock: CIFDUS_clean_linker_0, # of connection points: 2
#     Edge 14, Type (0, 0), BuildingBlock: CIFDUS_clean_linker_0, # of connection points: 2
#     Edge 15, Type (0, 0), BuildingBlock: CIFDUS_clean_linker_0, # of connection points: 2
# Relax obj value: 0.199
# Max RMSD: 0.180
# Mean RMSD: 0.180
data_MOF--net-sxa--node1-MIDCAF_clean_sbu_0--edge1-CIFDUS_clean_linker_0
_symmetry_space_group_name_H-M    P1
_symmetry_Int_Tables_number       1
_symmetry_cell_setting            triclinic
loop_
_symmetry_equiv_pos_as_xyz
'x, y, z'
_cell_length_a     20.002212
_cell_length_b     23.123128
_cell_length_c     16.756371
_cell_angle_alpha  90.024053
_cell_angle_beta   89.384702
_cell_angle_gamma 90.63273
loop_
_atom_site_label
_atom_site_type_symbol
_atom_site_fract_x
_atom_site_fract_y
_atom_site_fract_z
_atom_type_partial_charge
Zn0 Zn 0.86843 0.92543 0.31326 0.0
Zn1 Zn 0.00621 0.73194 0.25981 0.0
Zn2 Zn 0.96671 0.81803 0.21411 0.0
C3 C 0.0766 0.78537 0.12932 0.0
C4 C 0.94125 0.69366 0.13373 0.0
O5 O 0.87776 0.79037 0.27905 0.0
O6 O 0.89069 0.85111 0.37906 0.0
C7 C 0.97155 0.95802 0.18677 0.0
O8 O 0.01541 0.79119 0.11045 0.0
O9 O 0.0893 0.7626 0.19608 0.0
O10 O 0.94648 0.67339 0.20366 0.0
O11 O 0.95584 0.74739 0.12229 0.0
O12 O 0.9424 0.97231 0.25196 0.0
O13 O 0.97663 0.9048 0.16644 0.0
O14 O 0.87832 0.86077 0.20906 0.0
O15 O 0.79149 0.91309 0.22942 0.0
C16 C 0.82284 0.87881 0.18385 0.0
O17 O 0.0406 0.8262 0.31398 0.0
O18 O 0.01538 0.74557 0.37741 0.0
C19 C 0.86505 0.80474 0.35146 0.0
C20 C 0.04713 0.79336 0.37516 0.0
Zn21 Zn 0.52634 0.23289 0.2934 0.0
Zn22 Zn 0.46237 0.39832 0.28249 0.0
Zn23 Zn 0.49654 0.31621 0.20623 0.0
C24 C 0.39198 0.39616 0.14307 0.0
C25 C 0.54191 0.44833 0.17295 0.0
O26 O 0.5766 0.33724 0.28479 0.0
O27 O 0.54519 0.28498 0.38862 0.0
C28 C 0.45365 0.18779 0.17074 0.0
O29 O 0.44845 0.37372 0.12578 0.0
O30 O 0.37743 0.40512 0.21553 0.0
O31 O 0.53599 0.45606 0.24781 0.0
O32 O 0.52126 0.39978 0.14362 0.0
O33 O 0.4501 0.18134 0.24624 0.0
O34 O 0.48047 0.23461 0.14304 0.0
O35 O 0.55828 0.25537 0.13895 0.0
O36 O 0.61462 0.21794 0.23778 0.0
C37 C 0.60974 0.22848 0.1642 0.0
O38 O 0.41556 0.29727 0.2959 0.0
O39 O 0.441 0.36162 0.38819 0.0
C40 C 0.58341 0.32362 0.35812 0.0
C41 C 0.40707 0.31769 0.36666 0.0
Zn42 Zn 0.9533 0.20749 0.68136 0.0
Zn43 Zn 0.02093 0.38968 0.70837 0.0
Zn44 Zn -0.01325 0.30207 0.77841 0.0
C45 C 0.09361 0.38145 0.84565 0.0
C46 C 0.94369 0.43162 0.82411 0.0
O47 O 0.90425 0.32517 0.71091 0.0
O48 O 0.93365 0.27556 0.60447 0.0
C49 C 0.023 0.1782 0.82282 0.0
O50 O 0.03808 0.35594 0.86196 0.0
O51 O 0.10684 0.3945 0.77392 0.0
O52 O 0.94936 0.44582 0.75104 0.0
O53 O 0.96405 0.38148 0.84567 0.0
O54 O 0.03128 0.16978 0.74811 0.0
O55 O -0.0066 0.22428 0.84543 0.0
O56 O 0.91408 0.24248 0.83265 0.0
O57 O 0.8653 0.19129 0.73763 0.0
C58 C 0.8662 0.20948 0.8088 0.0
O59 O 0.06372 0.28677 0.68391 0.0
O60 O 0.03862 0.35624 0.59957 0.0
C61 C 0.89672 0.31346 0.63738 0.0
C62 C 0.07144 0.311 0.61531 0.0
Zn63 Zn 0.58925 0.93698 0.67494 0.0
Zn64 Zn 0.4144 0.74377 0.79627 0.0
Zn65 Zn 0.49056 0.816 0.77305 0.0
C66 C 0.39894 0.83253 0.90805 0.0
C67 C 0.51458 0.68527 0.83437 0.0
O68 O 0.52154 0.81253 0.64702 0.0
O69 O 0.54692 0.89351 0.58145 0.0
C70 C 0.49138 0.95861 0.81753 0.0
O71 O 0.42685 0.86148 0.85164 0.0
O72 O 0.39761 0.7779 0.90515 0.0
O73 O 0.4669 0.6715 0.78927 0.0
O74 O 0.52791 0.73931 0.84421 0.0
O75 O 0.52875 0.97474 0.7594 0.0
O76 O 0.47619 0.90459 0.82951 0.0
O77 O 0.58034 0.85174 0.74776 0.0
O78 O 0.67166 0.89984 0.73056 0.0
C79 C 0.63911 0.86279 0.77125 0.0
O80 O 0.42336 0.80866 0.66467 0.0
O81 O 0.34284 0.75721 0.71985 0.0
C82 C 0.53863 0.839 0.58232 0.0
C83 C 0.36327 0.78809 0.66248 0.0
H84 H 0.93963 0.55027 0.81153 0.0
H85 H 0.91106 0.41024 0.97915 0.0
H86 H 0.90154 0.47918 0.08847 0.0
H87 H 0.9125 0.57819 0.13893 0.0
H88 H 0.94404 0.71913 0.97362 0.0
H89 H 0.94033 0.65125 0.86163 0.0
C90 C 0.92993 0.53491 0.87171 0.0
C91 C 0.92641 0.4749 0.8868 0.0
C92 C 0.9257 0.57505 0.9352 0.0
C93 C 0.9143 0.45599 0.96551 0.0
C94 C 0.90904 0.49546 0.02835 0.0
C95 C 0.91771 0.59433 0.0784 0.0
C96 C 0.92923 0.65382 0.06515 0.0
C97 C 0.91646 0.55496 0.01428 0.0
C98 C 0.9354 0.67366 0.98597 0.0
C99 C 0.93352 0.63475 0.92172 0.0
H100 H 0.55245 0.44913 0.00993 0.0
H101 H 0.56392 0.56188 0.21458 0.0
H102 H 0.56755 0.64631 0.12696 0.0
H103 H 0.55144 0.68892 0.99228 0.0
H104 H 0.53754 0.57495 0.78932 0.0
H105 H 0.55221 0.49118 0.87538 0.0
C106 C 0.55711 0.49206 0.03553 0.0
C107 C 0.55715 0.49868 0.11918 0.0
C108 C 0.55844 0.54076 0.98465 0.0
C109 C 0.56347 0.555 0.15065 0.0
C110 C 0.5653 0.6036 0.10041 0.0
C111 C 0.55406 0.64592 0.96666 0.0
C112 C 0.54341 0.63844 0.88417 0.0
C113 C 0.56072 0.59721 0.01726 0.0
C114 C 0.54571 0.58211 0.85241 0.0
C115 C 0.55355 0.53397 0.90178 0.0
H116 H 0.46068 0.95119 0.97899 0.0
H117 H 0.47278 0.07146 0.78227 0.0
H118 H 0.45572 0.152 0.8731 0.0
H119 H 0.44893 0.18994 0.00886 0.0
H120 H 0.43681 0.07225 0.2081 0.0
H121 H 0.44045 0.98974 0.11627 0.0
C122 C 0.45767 0.99483 0.95584 0.0
C123 C 0.46838 1.00488 0.8735 0.0
C124 C 0.4483 1.04183 0.0091 0.0
C125 C 0.46535 1.06212 0.84512 0.0
C126 C 0.45562 0.10848 0.89715 0.0
C127 C 0.44589 0.14629 0.03243 0.0
C128 C 0.443 0.13768 0.11561 0.0
C129 C 0.44888 0.09908 0.97939 0.0
C130 C 0.43889 0.08052 0.14452 0.0
C131 C 0.44147 1.03315 0.09189 0.0
H132 H 0.01338 0.94841 0.02964 0.0
H133 H 0.9768 0.07409 0.2155 0.0
H134 H -0.0039 0.15236 0.12091 0.0
H135 H 0.01354 0.18588 0.98407 0.0
H136 H 0.04785 1.06245 0.7954 0.0
H137 H 0.0408 0.98317 0.89247 0.0
C138 C 0.01069 0.9929 0.04982 0.0
C139 C -0.007 1.00488 0.1301 0.0
C140 C 0.02131 1.03841 -0.0056 0.0
C141 C -0.01022 1.06308 0.15449 0.0
C142 C 0.00079 0.10814 0.10023 0.0
C143 C 0.02048 0.14173 0.96398 0.0
C144 C 0.03085 0.13044 0.88206 0.0
C145 C 0.0151 0.09639 0.01981 0.0
C146 C 0.03999 0.07274 0.85783 0.0
C147 C 0.03545 1.02724 0.9134 0.0
H148 H 0.22936 0.78365 0.67671 0.0
H149 H 0.3849 0.82288 0.50434 0.0
H150 H 0.29939 0.83537 0.40083 0.0
H151 H 0.17945 0.82634 0.35768 0.0
H152 H 0.02848 0.78268 0.53392 0.0
H153 H 0.11301 0.78156 0.63773 0.0
C154 C 0.24513 0.79504 0.61654 0.0
C155 C 0.31399 0.80127 0.59833 0.0
C156 C 0.19602 0.80169 0.55802 0.0
C157 C 0.33259 0.8174 0.52022 0.0
C158 C 0.28352 0.82442 0.46103 0.0
C159 C 0.16507 0.81821 0.41927 0.0
C160 C 0.09731 0.80531 0.43829 0.0
C161 C 0.21493 0.81571 0.47891 0.0
C162 C 0.07981 0.79327 0.5179 0.0
C163 C 0.1283 0.7922 0.57719 0.0
H164 H 0.20036 0.2855 0.64868 0.0
H165 H 0.06293 0.30128 0.45402 0.0
H166 H 0.15541 0.29391 0.35772 0.0
H167 H 0.27694 0.2977 0.32955 0.0
H168 H 0.41459 0.29514 0.52532 0.0
H169 H 0.32159 0.28178 0.61998 0.0
C170 C 0.19061 0.28541 0.58512 0.0
C171 C 0.12479 0.29314 0.55844 0.0
C172 C 0.24462 0.28427 0.53014 0.0
C173 C 0.11307 0.2948 0.47592 0.0
C174 C 0.16605 0.29099 0.42086 0.0
C175 C 0.28649 0.29233 0.39271 0.0
C176 C 0.35259 0.29659 0.42039 0.0
C177 C 0.23232 0.28774 0.44724 0.0
C178 C 0.3642 0.29142 0.50262 0.0
C179 C 0.31095 0.28417 0.55679 0.0
H180 H 0.87808 0.33404 0.47903 0.0
H181 H 0.77601 0.33146 0.70707 0.0
H182 H 0.66853 0.34075 0.64131 0.0
H183 H 0.60264 0.33609 0.51788 0.0
H184 H 0.70472 0.34502 0.29013 0.0
H185 H 0.81257 0.34791 0.35655 0.0
C186 C 0.83235 0.33687 0.51415 0.0
C187 C 0.83487 0.33148 0.5975 0.0
C188 C 0.77052 0.34297 0.47599 0.0
C189 C 0.77542 0.33571 0.64268 0.0
C190 C 0.71378 0.3406 0.60513 0.0
C191 C 0.6485 0.34019 0.48309 0.0
C192 C 0.64575 0.33976 0.39942 0.0
C193 C 0.71055 0.34233 0.5217 0.0
C194 C 0.70544 0.34551 0.35478 0.0
C195 C 0.76729 0.34663 0.39266 0.0
H196 H 0.73708 0.81265 0.30165 0.0
H197 H 0.85754 0.75233 0.49541 0.0
H198 H 0.7576 0.74112 0.57983 0.0
H199 H 0.64175 0.76881 0.60678 0.0
H200 H 0.52583 0.84571 0.42051 0.0
H201 H 0.61649 0.82855 0.32411 0.0
C202 C 0.74084 0.79512 0.36141 0.0
C203 C 0.80424 0.78276 0.39236 0.0
C204 C 0.68358 0.79229 0.41107 0.0
C205 C 0.80903 0.76143 0.47039 0.0
C206 C 0.75195 0.75546 0.51872 0.0
C207 C 0.63511 0.77908 0.54418 0.0
C208 C 0.57683 0.80765 0.52038 0.0
C209 C 0.68952 0.77342 0.49096 0.0
C210 C 0.56974 0.82274 0.43975 0.0
C211 C 0.62209 0.81379 0.38504 0.0
H212 H 0.28103 0.87528 0.87368 0.0
H213 H 0.41525 0.8436 0.06739 0.0
H214 H 0.32054 0.83275 0.15985 0.0
H215 H 0.20269 0.80675 0.17514 0.0
H216 H 0.06878 0.82561 0.97664 0.0
H217 H 0.16025 0.86555 0.895 0.0
C218 C 0.28914 0.86919 0.9371 0.0
C219 C 0.35391 0.85968 0.96455 0.0
C220 C 0.23464 0.85725 0.98737 0.0
C221 C 0.36517 0.8512 0.04598 0.0
C222 C 0.31111 0.84361 0.09808 0.0
C223 C 0.1935 0.81964 0.11399 0.0
C224 C 0.1302 0.81104 0.08045 0.0
C225 C 0.24607 0.84186 0.06772 0.0
C226 C 0.11797 0.83011 0.00252 0.0
C227 C 0.16992 0.85348 0.95627 0.0
H228 H 0.22515 0.40685 0.83128 0.0
H229 H 0.06411 0.39125 0.00374 0.0
H230 H 0.14299 0.40431 0.11255 0.0
H231 H 0.25862 0.40694 0.15821 0.0
H232 H 0.42039 0.41438 0.98592 0.0
H233 H 0.34026 0.41886 0.87717 0.0
C234 C 0.20732 0.40737 0.89266 0.0
C235 C 0.13945 0.39731 0.90987 0.0
C236 C 0.25306 0.4131 0.95476 0.0
C237 C 0.11657 0.39802 0.98941 0.0
C238 C 0.16151 0.40556 0.05154 0.0
C239 C 0.2762 0.41086 0.09693 0.0
C240 C 0.34487 0.40968 0.07962 0.0
C241 C 0.23005 0.41115 0.0349 0.0
C242 C 0.36743 0.41452 0.00024 0.0
C243 C 0.32176 0.41696 0.93817 0.0
H244 H 0.59942 0.20871 0.00514 0.0
H245 H 0.73938 0.20857 0.19943 0.0
H246 H 0.83185 0.19442 0.10561 0.0
H247 H 0.87382 0.1957 0.96787 0.0
H248 H 0.73486 0.19473 0.77292 0.0
H249 H 0.64072 0.19451 0.86753 0.0
C250 C 0.65011 0.20483 0.02677 0.0
C251 C 0.66298 0.2108 0.10857 0.0
C252 C 0.70303 0.19672 0.97254 0.0
C253 C 0.72848 0.20446 0.13647 0.0
C254 C 0.78137 0.19661 0.08294 0.0
C255 C 0.82285 0.19431 0.94633 0.0
C256 C 0.81085 0.19611 0.8641 0.0
C257 C 0.76939 0.1947 0.00079 0.0
C258 C 0.74494 0.19334 0.83629 0.0
C259 C 0.69124 0.19376 0.89025 0.0
H260 H 0.69387 0.86314 0.13783 0.0
H261 H 0.89758 0.85783 0.05152 0.0
H262 H 0.8587 0.84492 0.91504 0.0
H263 H 0.76657 0.84774 0.8188 0.0
H264 H 0.5629 0.84552 0.90537 0.0
H265 H 0.60157 0.84739 0.04281 0.0
C266 C 0.72952 0.85841 0.08907 0.0
C267 C 0.79832 0.86274 0.10414 0.0
C268 C 0.70679 0.84968 0.01081 0.0
C269 C 0.8443 0.85519 0.04112 0.0
C270 C 0.82212 0.84792 0.96302 0.0
C271 C 0.73079 0.84613 0.8679 0.0
C272 C 0.66203 0.84746 0.85194 0.0
C273 C 0.75349 0.84684 0.94692 0.0
C274 C 0.61606 0.84475 0.91589 0.0
C275 C 0.6382 0.84632 -0.0053 0.0
loop_
_geom_bond_atom_site_label_1
_geom_bond_atom_site_label_2
_geom_bond_distance
_geom_bond_site_symmetry_2
_ccdc_geom_bond_type
Zn0 O6 1.920 . S
Zn0 O12 1.898 . S
Zn0 O15 1.905 . S
Zn1 O9 1.905 . S
Zn1 O10 1.898 . S
Zn1 O18 1.920 . S
Zn2 O5 2.080 1_455 S
Zn2 O8 2.114 . S
Zn2 O11 2.120 1_455 S
Zn2 O13 2.120 . S
Zn2 O14 2.114 1_455 S
Zn2 O17 2.080 . S
C3 O8 1.166 . S
C3 O9 1.182 . S
C4 O10 1.167 . S
C4 O11 1.299 1_455 S
O5 Zn2 2.080 1_655 S
O5 C19 1.305 . S
O6 Zn0 1.920 . S
O6 C19 1.234 . S
C7 O12 1.167 . S
C7 O13 1.299 1_655 S
O8 Zn2 2.114 . S
O8 C3 1.166 . S
O9 Zn1 1.905 . S
O9 C3 1.182 . S
O10 Zn1 1.898 . S
O10 C4 1.167 . S
O11 Zn2 2.120 1_655 S
O11 C4 1.299 1_655 S
O12 Zn0 1.898 . S
O12 C7 1.167 . S
O13 Zn2 2.120 . S
O13 C7 1.299 1_455 S
O14 Zn2 2.114 1_655 S
O14 C16 1.166 . S
O15 Zn0 1.905 . S
O15 C16 1.182 . S
C16 O14 1.166 . S
C16 O15 1.182 . S
O17 Zn2 2.080 . S
O17 C20 1.305 . S
O18 Zn1 1.920 . S
O18 C20 1.234 . S
C19 O5 1.305 . S
C19 O6 1.234 . S
C20 O17 1.305 . S
C20 O18 1.234 . S
Zn21 O27 1.920 . S
Zn21 O33 1.898 . S
Zn21 O36 1.905 . S
Zn22 O30 1.905 . S
Zn22 O31 1.898 . S
Zn22 O39 1.920 . S
Zn23 O26 2.080 . S
Zn23 O29 2.114 . S
Zn23 O32 2.120 . S
Zn23 O34 2.120 . S
Zn23 O35 2.114 . S
Zn23 O38 2.080 . S
C24 O29 1.166 . S
C24 O30 1.182 . S
C25 O31 1.167 . S
C25 O32 1.299 . S
O26 Zn23 2.080 . S
O26 C40 1.305 . S
O27 Zn21 1.920 . S
O27 C40 1.234 . S
C28 O33 1.167 . S
C28 O34 1.299 . S
O29 Zn23 2.114 . S
O29 C24 1.166 . S
O30 Zn22 1.905 . S
O30 C24 1.182 . S
O31 Zn22 1.898 . S
O31 C25 1.167 . S
O32 Zn23 2.120 . S
O32 C25 1.299 . S
O33 Zn21 1.898 . S
O33 C28 1.167 . S
O34 Zn23 2.120 . S
O34 C28 1.299 . S
O35 Zn23 2.114 . S
O35 C37 1.166 . S
O36 Zn21 1.905 . S
O36 C37 1.182 . S
C37 O35 1.166 . S
C37 O36 1.182 . S
O38 Zn23 2.080 . S
O38 C41 1.305 . S
O39 Zn22 1.920 . S
O39 C41 1.234 . S
C40 O26 1.305 . S
C40 O27 1.234 . S
C41 O38 1.305 . S
C41 O39 1.234 . S
Zn42 O48 1.920 . S
Zn42 O54 1.898 . S
Zn42 O57 1.905 . S
Zn43 O51 1.905 . S
Zn43 O52 1.898 . S
Zn43 O60 1.920 . S
Zn44 O47 2.080 1_455 S
Zn44 O50 2.114 . S
Zn44 O53 2.120 1_455 S
Zn44 O55 2.120 . S
Zn44 O56 2.114 1_455 S
Zn44 O59 2.080 . S
C45 O50 1.166 . S
C45 O51 1.182 . S
C46 O52 1.167 . S
C46 O53 1.299 1_455 S
O47 Zn44 2.080 1_655 S
O47 C61 1.305 . S
O48 Zn42 1.920 . S
O48 C61 1.234 . S
C49 O54 1.167 . S
C49 O55 1.299 1_655 S
O50 Zn44 2.114 . S
O50 C45 1.166 . S
O51 Zn43 1.905 . S
O51 C45 1.182 . S
O52 Zn43 1.898 . S
O52 C46 1.167 . S
O53 Zn44 2.120 1_655 S
O53 C46 1.299 1_655 S
O54 Zn42 1.898 . S
O54 C49 1.167 . S
O55 Zn44 2.120 . S
O55 C49 1.299 1_455 S
O56 Zn44 2.114 1_655 S
O56 C58 1.166 . S
O57 Zn42 1.905 . S
O57 C58 1.182 . S
C58 O56 1.166 . S
C58 O57 1.182 . S
O59 Zn44 2.080 . S
O59 C62 1.305 . S
O60 Zn43 1.920 . S
O60 C62 1.234 . S
C61 O47 1.305 . S
C61 O48 1.234 . S
C62 O59 1.305 . S
C62 O60 1.234 . S
Zn63 O69 1.920 . S
Zn63 O75 1.898 . S
Zn63 O78 1.905 . S
Zn64 O72 1.905 . S
Zn64 O73 1.898 . S
Zn64 O81 1.920 . S
Zn65 O68 2.080 . S
Zn65 O71 2.114 . S
Zn65 O74 2.120 . S
Zn65 O76 2.120 . S
Zn65 O77 2.114 . S
Zn65 O80 2.080 . S
C66 O71 1.166 . S
C66 O72 1.182 . S
C67 O73 1.167 . S
C67 O74 1.299 . S
O68 Zn65 2.080 . S
O68 C82 1.305 . S
O69 Zn63 1.920 . S
O69 C82 1.234 . S
C70 O75 1.167 . S
C70 O76 1.299 . S
O71 Zn65 2.114 . S
O71 C66 1.166 . S
O72 Zn64 1.905 . S
O72 C66 1.182 . S
O73 Zn64 1.898 . S
O73 C67 1.167 . S
O74 Zn65 2.120 . S
O74 C67 1.299 . S
O75 Zn63 1.898 . S
O75 C70 1.167 . S
O76 Zn65 2.120 . S
O76 C70 1.299 . S
O77 Zn65 2.114 . S
O77 C79 1.166 . S
O78 Zn63 1.905 . S
O78 C79 1.182 . S
C79 O77 1.166 . S
C79 O78 1.182 . S
O80 Zn65 2.080 . S
O80 C83 1.305 . S
O81 Zn64 1.920 . S
O81 C83 1.234 . S
C82 O68 1.305 . S
C82 O69 1.234 . S
C83 O80 1.305 . S
C83 O81 1.234 . S
H84 C90 0.930 . S
H85 C93 0.930 . S
H86 C94 0.930 . S
H87 C95 0.930 . S
H88 C98 0.930 . S
H89 C99 0.930 . S
C90 H84 0.930 . S
C90 C91 1.355 1_455 S
C90 C92 1.415 . S
C91 C90 1.355 1_655 S
C91 C93 1.419 . S
C92 C90 1.415 . S
C92 C97 1.425 1_456 S
C92 C99 1.409 1_556 S
C93 H85 0.930 . S
C93 C91 1.419 . S
C93 C94 1.362 . S
C94 H86 0.930 . S
C94 C93 1.362 . S
C94 C97 1.409 1_556 S
C95 H87 0.930 . S
C95 C96 1.342 1_655 S
C95 C97 1.415 . S
C96 C95 1.342 1_455 S
C96 C98 1.435 . S
C97 C92 1.425 1_654 S
C97 C94 1.409 1_554 S
C97 C95 1.415 . S
C98 H88 0.930 . S
C98 C96 1.435 . S
C98 C99 1.362 . S
C99 H89 0.930 . S
C99 C92 1.409 1_554 S
C99 C98 1.362 . S
H100 C106 0.930 . S
H101 C109 0.930 . S
H102 C110 0.930 . S
H103 C111 0.930 . S
H104 C114 0.930 . S
H105 C115 0.930 . S
C106 H100 0.930 . S
C106 C107 1.355 . S
C106 C108 1.415 1_554 S
C107 C106 1.355 . S
C107 C109 1.419 . S
C108 C106 1.415 1_556 S
C108 C113 1.425 1_556 S
C108 C115 1.409 . S
C109 H101 0.930 . S
C109 C107 1.419 . S
C109 C110 1.362 . S
C110 H102 0.930 . S
C110 C109 1.362 . S
C110 C113 1.409 . S
C111 H103 0.930 . S
C111 C112 1.355 . S
C111 C113 1.415 1_556 S
C112 C111 1.355 . S
C112 C114 1.419 . S
C113 C108 1.425 1_554 S
C113 C110 1.409 . S
C113 C111 1.415 1_554 S
C114 H104 0.930 . S
C114 C112 1.419 . S
C114 C115 1.362 . S
C115 H105 0.930 . S
C115 C108 1.409 . S
C115 C114 1.362 . S
H116 C122 0.930 1_554 S
H117 C125 0.930 . S
H118 C126 0.930 . S
H119 C127 0.930 1_556 S
H120 C130 0.930 . S
H121 C131 0.930 . S
C122 H116 0.930 1_556 S
C122 C123 1.355 . S
C122 C124 1.415 1_556 S
C123 C122 1.355 . S
C123 C125 1.419 . S
C124 C122 1.415 1_554 S
C124 C129 1.425 1_564 S
C124 C131 1.409 . S
C125 H117 0.930 . S
C125 C123 1.419 . S
C125 C126 1.362 1_565 S
C126 H118 0.930 . S
C126 C125 1.362 1_545 S
C126 C129 1.409 . S
C127 H119 0.930 1_554 S
C127 C128 1.355 . S
C127 C129 1.415 1_554 S
C128 C127 1.355 . S
C128 C130 1.419 . S
C129 C124 1.425 1_546 S
C129 C126 1.409 . S
C129 C127 1.415 1_556 S
C130 H120 0.930 . S
C130 C128 1.419 . S
C130 C131 1.362 1_545 S
C131 H121 0.930 . S
C131 C124 1.409 . S
C131 C130 1.362 1_565 S
H132 C138 0.930 1_556 S
H133 C141 0.930 . S
H134 C142 0.930 . S
H135 C143 0.930 1_554 S
H136 C146 0.930 . S
H137 C147 0.930 . S
C138 H132 0.930 1_554 S
C138 C139 1.355 . S
C138 C140 1.415 1_554 S
C139 C138 1.355 . S
C139 C141 1.419 1_455 S
C140 C138 1.415 1_556 S
C140 C145 1.425 1_466 S
C140 C147 1.409 . S
C141 H133 0.930 . S
C141 C139 1.419 1_655 S
C141 C142 1.362 1_565 S
C142 H134 0.930 . S
C142 C141 1.362 1_545 S
C142 C145 1.409 . S
C143 H135 0.930 1_556 S
C143 C144 1.355 1_655 S
C143 C145 1.415 1_556 S
C144 C143 1.355 1_455 S
C144 C146 1.419 . S
C145 C140 1.425 1_644 S
C145 C142 1.409 . S
C145 C143 1.415 1_554 S
C146 H136 0.930 . S
C146 C144 1.419 . S
C146 C147 1.362 1_545 S
C147 H137 0.930 . S
C147 C140 1.409 . S
C147 C146 1.362 1_565 S
H148 C154 0.930 . S
H149 C157 0.930 . S
H150 C158 0.930 . S
H151 C159 0.930 . S
H152 C162 0.930 . S
H153 C163 0.930 . S
C154 H148 0.930 . S
C154 C155 1.355 . S
C154 C156 1.415 . S
C155 C154 1.355 . S
C155 C157 1.419 . S
C156 C154 1.415 . S
C156 C161 1.425 . S
C156 C163 1.409 . S
C157 H149 0.930 . S
C157 C155 1.419 . S
C157 C158 1.362 . S
C158 H150 0.930 . S
C158 C157 1.362 . S
C158 C161 1.409 . S
C159 H151 0.930 . S
C159 C160 1.355 . S
C159 C161 1.415 . S
C160 C159 1.355 . S
C160 C162 1.419 . S
C161 C156 1.425 . S
C161 C158 1.409 . S
C161 C159 1.415 . S
C162 H152 0.930 . S
C162 C160 1.419 . S
C162 C163 1.362 . S
C163 H153 0.930 . S
C163 C156 1.409 . S
C163 C162 1.362 . S
H164 C170 0.930 . S
H165 C173 0.930 . S
H166 C174 0.930 . S
H167 C175 0.930 . S
H168 C178 0.930 . S
H169 C179 0.930 . S
C170 H164 0.930 . S
C170 C171 1.355 . S
C170 C172 1.415 . S
C171 C170 1.355 . S
C171 C173 1.419 . S
C172 C170 1.415 . S
C172 C177 1.425 . S
C172 C179 1.409 . S
C173 H165 0.930 . S
C173 C171 1.419 . S
C173 C174 1.362 . S
C174 H166 0.930 . S
C174 C173 1.362 . S
C174 C177 1.409 . S
C175 H167 0.930 . S
C175 C176 1.355 . S
C175 C177 1.415 . S
C176 C175 1.355 . S
C176 C178 1.419 . S
C177 C172 1.425 . S
C177 C174 1.409 . S
C177 C175 1.415 . S
C178 H168 0.930 . S
C178 C176 1.419 . S
C178 C179 1.362 . S
C179 H169 0.930 . S
C179 C172 1.409 . S
C179 C178 1.362 . S
H180 C186 0.930 . S
H181 C189 0.930 . S
H182 C190 0.930 . S
H183 C191 0.930 . S
H184 C194 0.930 . S
H185 C195 0.930 . S
C186 H180 0.930 . S
C186 C187 1.355 . S
C186 C188 1.415 . S
C187 C186 1.355 . S
C187 C189 1.419 . S
C188 C186 1.415 . S
C188 C193 1.425 . S
C188 C195 1.409 . S
C189 H181 0.930 . S
C189 C187 1.419 . S
C189 C190 1.362 . S
C190 H182 0.930 . S
C190 C189 1.362 . S
C190 C193 1.409 . S
C191 H183 0.930 . S
C191 C192 1.355 . S
C191 C193 1.415 . S
C192 C191 1.355 . S
C192 C194 1.419 . S
C193 C188 1.425 . S
C193 C190 1.409 . S
C193 C191 1.415 . S
C194 H184 0.930 . S
C194 C192 1.419 . S
C194 C195 1.362 . S
C195 H185 0.930 . S
C195 C188 1.409 . S
C195 C194 1.362 . S
H196 C202 0.930 . S
H197 C205 0.930 . S
H198 C206 0.930 . S
H199 C207 0.930 . S
H200 C210 0.930 . S
H201 C211 0.930 . S
C202 H196 0.930 . S
C202 C203 1.355 . S
C202 C204 1.415 . S
C203 C202 1.355 . S
C203 C205 1.419 . S
C204 C202 1.415 . S
C204 C209 1.425 . S
C204 C211 1.409 . S
C205 H197 0.930 . S
C205 C203 1.419 . S
C205 C206 1.362 . S
C206 H198 0.930 . S
C206 C205 1.362 . S
C206 C209 1.409 . S
C207 H199 0.930 . S
C207 C208 1.355 . S
C207 C209 1.415 . S
C208 C207 1.355 . S
C208 C210 1.419 . S
C209 C204 1.425 . S
C209 C206 1.409 . S
C209 C207 1.415 . S
C210 H200 0.930 . S
C210 C208 1.419 . S
C210 C211 1.362 . S
C211 H201 0.930 . S
C211 C204 1.409 . S
C211 C210 1.362 . S
H212 C218 0.930 . S
H213 C221 0.930 . S
H214 C222 0.930 . S
H215 C223 0.930 . S
H216 C226 0.930 . S
H217 C227 0.930 . S
C218 H212 0.930 . S
C218 C219 1.355 . S
C218 C220 1.415 1_556 S
C219 C218 1.355 . S
C219 C221 1.419 . S
C220 C218 1.415 1_554 S
C220 C225 1.425 1_554 S
C220 C227 1.409 . S
C221 H213 0.930 . S
C221 C219 1.419 . S
C221 C222 1.362 . S
C222 H214 0.930 . S
C222 C221 1.362 . S
C222 C225 1.409 . S
C223 H215 0.930 . S
C223 C224 1.355 . S
C223 C225 1.415 1_554 S
C224 C223 1.355 . S
C224 C226 1.419 . S
C225 C220 1.425 1_556 S
C225 C222 1.409 . S
C225 C223 1.415 1_556 S
C226 H216 0.930 . S
C226 C224 1.419 . S
C226 C227 1.362 . S
C227 H217 0.930 . S
C227 C220 1.409 . S
C227 C226 1.362 . S
H228 C234 0.930 . S
H229 C237 0.930 . S
H230 C238 0.930 . S
H231 C239 0.930 . S
H232 C242 0.930 . S
H233 C243 0.930 . S
C234 H228 0.930 . S
C234 C235 1.355 . S
C234 C236 1.415 . S
C235 C234 1.355 . S
C235 C237 1.419 1_556 S
C236 C234 1.415 . S
C236 C241 1.425 1_556 S
C236 C243 1.409 . S
C237 H229 0.930 . S
C237 C235 1.419 1_554 S
C237 C238 1.362 . S
C238 H230 0.930 . S
C238 C237 1.362 . S
C238 C241 1.409 . S
C239 H231 0.930 . S
C239 C240 1.355 . S
C239 C241 1.415 . S
C240 C239 1.355 . S
C240 C242 1.419 1_554 S
C241 C236 1.425 1_554 S
C241 C238 1.409 . S
C241 C239 1.415 . S
C242 H232 0.930 . S
C242 C240 1.419 1_556 S
C242 C243 1.362 . S
C243 H233 0.930 . S
C243 C236 1.409 . S
C243 C242 1.362 . S
H244 C250 0.930 . S
H245 C253 0.930 . S
H246 C254 0.930 . S
H247 C255 0.930 . S
H248 C258 0.930 . S
H249 C259 0.930 . S
C250 H244 0.930 . S
C250 C251 1.355 1_556 S
C250 C252 1.415 . S
C251 C250 1.355 1_554 S
C251 C253 1.419 . S
C252 C250 1.415 . S
C252 C257 1.425 1_556 S
C252 C259 1.409 . S
C253 H245 0.930 . S
C253 C251 1.419 . S
C253 C254 1.362 . S
C254 H246 0.930 . S
C254 C253 1.362 . S
C254 C257 1.409 . S
C255 H247 0.930 . S
C255 C256 1.355 1_554 S
C255 C257 1.415 . S
C256 C255 1.355 1_556 S
C256 C258 1.419 . S
C257 C252 1.425 1_554 S
C257 C254 1.409 . S
C257 C255 1.415 . S
C258 H248 0.930 . S
C258 C256 1.419 . S
C258 C259 1.362 . S
C259 H249 0.930 . S
C259 C252 1.409 . S
C259 C258 1.362 . S
H260 C266 0.930 . S
H261 C269 0.930 . S
H262 C270 0.930 . S
H263 C271 0.930 . S
H264 C274 0.930 . S
H265 C275 0.930 . S
C266 H260 0.930 . S
C266 C267 1.355 . S
C266 C268 1.415 . S
C267 C266 1.355 . S
C267 C269 1.419 1_554 S
C268 C266 1.415 . S
C268 C273 1.425 1_554 S
C268 C275 1.409 . S
C269 H261 0.930 . S
C269 C267 1.419 1_556 S
C269 C270 1.362 . S
C270 H262 0.930 . S
C270 C269 1.362 . S
C270 C273 1.409 . S
C271 H263 0.930 . S
C271 C272 1.355 . S
C271 C273 1.415 . S
C272 C271 1.355 . S
C272 C274 1.419 1_556 S
C273 C268 1.425 1_556 S
C273 C270 1.409 . S
C273 C271 1.415 . S
C274 H264 0.930 . S
C274 C272 1.419 1_554 S
C274 C275 1.362 . S
C275 H265 0.930 . S
C275 C268 1.409 . S
C275 C274 1.362 . S
C91 C46 1.836 1_655 S
C96 C4 1.756 . S
C107 C25 1.787 . S
C112 C67 1.816 . S
C123 C70 1.811 . S
C128 C28 1.792 . S
C139 C7 1.794 1_455 S
C144 C49 1.810 1_455 S
C155 C83 1.656 . S
C160 C20 1.690 . S
C171 C62 1.695 . S
C176 C41 1.690 . S
C187 C61 1.619 . S
C192 C40 1.597 . S
C203 C19 1.682 . S
C208 C82 1.697 . S
C219 C66 0.573 . S
C224 C3 0.785 . S
C235 C45 0.795 . S
C240 C24 0.597 . S
C251 C37 0.630 . S
C256 C58 0.564 . S
C267 C16 0.769 . S
C272 C79 0.739 . S
