# Generated by pormake.
# Topology ukb, (4)-cn, num edge types: 1
# Building blocks:
#     Node 0, Type 0, BuildingBlock: AZAVOO_clean_sbu_0, # of connection points: 4
#     Node 1, Type 0, BuildingBlock: AZAVOO_clean_sbu_0, # of connection points: 4
#     Node 2, Type 0, BuildingBlock: AZAVOO_clean_sbu_0, # of connection points: 4
#     Node 3, Type 0, BuildingBlock: AZAVOO_clean_sbu_0, # of connection points: 4
#     Node 4, Type 0, BuildingBlock: AZAVOO_clean_sbu_0, # of connection points: 4
#     Node 5, Type 0, BuildingBlock: AZAVOO_clean_sbu_0, # of connection points: 4
#     Node 6, Type 0, BuildingBlock: AZAVOO_clean_sbu_0, # of connection points: 4
#     Node 7, Type 0, BuildingBlock: AZAVOO_clean_sbu_0, # of connection points: 4
#     Node 8, Type 0, BuildingBlock: AZAVOO_clean_sbu_0, # of connection points: 4
#     Node 9, Type 0, BuildingBlock: AZAVOO_clean_sbu_0, # of connection points: 4
#     Node 10, Type 0, BuildingBlock: AZAVOO_clean_sbu_0, # of connection points: 4
#     Node 11, Type 0, BuildingBlock: AZAVOO_clean_sbu_0, # of connection points: 4
#     Node 12, Type 0, BuildingBlock: AZAVOO_clean_sbu_0, # of connection points: 4
#     Node 13, Type 0, BuildingBlock: AZAVOO_clean_sbu_0, # of connection points: 4
#     Node 14, Type 0, BuildingBlock: AZAVOO_clean_sbu_0, # of connection points: 4
#     Node 15, Type 0, BuildingBlock: AZAVOO_clean_sbu_0, # of connection points: 4
#     Edge 16, Type (0, 0), BuildingBlock: XIVTED_clean_linker_0, # of connection points: 2
#     Edge 17, Type (0, 0), BuildingBlock: XIVTED_clean_linker_0, # of connection points: 2
#     Edge 18, Type (0, 0), BuildingBlock: XIVTED_clean_linker_0, # of connection points: 2
#     Edge 19, Type (0, 0), BuildingBlock: XIVTED_clean_linker_0, # of connection points: 2
#     Edge 20, Type (0, 0), BuildingBlock: XIVTED_clean_linker_0, # of connection points: 2
#     Edge 21, Type (0, 0), BuildingBlock: XIVTED_clean_linker_0, # of connection points: 2
#     Edge 22, Type (0, 0), BuildingBlock: XIVTED_clean_linker_0, # of connection points: 2
#     Edge 23, Type (0, 0), BuildingBlock: XIVTED_clean_linker_0, # of connection points: 2
#     Edge 24, Type (0, 0), BuildingBlock: XIVTED_clean_linker_0, # of connection points: 2
#     Edge 25, Type (0, 0), BuildingBlock: XIVTED_clean_linker_0, # of connection points: 2
#     Edge 26, Type (0, 0), BuildingBlock: XIVTED_clean_linker_0, # of connection points: 2
#     Edge 27, Type (0, 0), BuildingBlock: XIVTED_clean_linker_0, # of connection points: 2
#     Edge 28, Type (0, 0), BuildingBlock: XIVTED_clean_linker_0, # of connection points: 2
#     Edge 29, Type (0, 0), BuildingBlock: XIVTED_clean_linker_0, # of connection points: 2
#     Edge 30, Type (0, 0), BuildingBlock: XIVTED_clean_linker_0, # of connection points: 2
#     Edge 31, Type (0, 0), BuildingBlock: XIVTED_clean_linker_0, # of connection points: 2
#     Edge 32, Type (0, 0), BuildingBlock: XIVTED_clean_linker_0, # of connection points: 2
#     Edge 33, Type (0, 0), BuildingBlock: XIVTED_clean_linker_0, # of connection points: 2
#     Edge 34, Type (0, 0), BuildingBlock: XIVTED_clean_linker_0, # of connection points: 2
#     Edge 35, Type (0, 0), BuildingBlock: XIVTED_clean_linker_0, # of connection points: 2
#     Edge 36, Type (0, 0), BuildingBlock: XIVTED_clean_linker_0, # of connection points: 2
#     Edge 37, Type (0, 0), BuildingBlock: XIVTED_clean_linker_0, # of connection points: 2
#     Edge 38, Type (0, 0), BuildingBlock: XIVTED_clean_linker_0, # of connection points: 2
#     Edge 39, Type (0, 0), BuildingBlock: XIVTED_clean_linker_0, # of connection points: 2
#     Edge 40, Type (0, 0), BuildingBlock: XIVTED_clean_linker_0, # of connection points: 2
#     Edge 41, Type (0, 0), BuildingBlock: XIVTED_clean_linker_0, # of connection points: 2
#     Edge 42, Type (0, 0), BuildingBlock: XIVTED_clean_linker_0, # of connection points: 2
#     Edge 43, Type (0, 0), BuildingBlock: XIVTED_clean_linker_0, # of connection points: 2
#     Edge 44, Type (0, 0), BuildingBlock: XIVTED_clean_linker_0, # of connection points: 2
#     Edge 45, Type (0, 0), BuildingBlock: XIVTED_clean_linker_0, # of connection points: 2
#     Edge 46, Type (0, 0), BuildingBlock: XIVTED_clean_linker_0, # of connection points: 2
#     Edge 47, Type (0, 0), BuildingBlock: XIVTED_clean_linker_0, # of connection points: 2
# Relax obj value: 0.170
# Max RMSD: 0.200
# Mean RMSD: 0.179
data_MOF--net-ukb--node1-AZAVOO_clean_sbu_0--edge1-XIVTED_clean_linker_0
_symmetry_space_group_name_H-M    P1
_symmetry_Int_Tables_number       1
_symmetry_cell_setting            triclinic
loop_
_symmetry_equiv_pos_as_xyz
'x, y, z'
_cell_length_a     40.390399
_cell_length_b     43.426586
_cell_length_c     40.837685
_cell_angle_alpha  89.930817
_cell_angle_beta   90.001003
_cell_angle_gamma 89.888611
loop_
_atom_site_label
_atom_site_type_symbol
_atom_site_fract_x
_atom_site_fract_y
_atom_site_fract_z
_atom_type_partial_charge
Mg0 Mg 0.51352 0.14275 0.16123 0.0
O1 O 0.52935 0.18219 0.19567 0.0
O2 O 0.53896 0.16112 0.24479 0.0
Mg3 Mg 0.52768 0.10997 0.24272 0.0
C4 C 0.53821 0.18438 0.22566 0.0
C5 C 0.49351 0.16678 0.09329 0.0
O6 O 0.49724 0.13709 0.08827 0.0
O7 O 0.46211 0.14215 0.18415 0.0
O8 O 0.47273 0.12125 0.23306 0.0
O9 O 0.56626 0.13422 0.14942 0.0
O10 O 0.54014 0.11142 0.19031 0.0
C11 C 0.45254 0.13261 0.21216 0.0
C12 C 0.56756 0.11682 0.17515 0.0
O13 O 0.49746 0.17721 0.12211 0.0
Mg14 Mg 0.26717 0.5157 0.68757 0.0
O15 O 0.21829 0.53765 0.70573 0.0
O16 O 0.22492 0.54308 0.75986 0.0
Mg17 Mg 0.27814 0.53151 0.7746 0.0
C18 C 0.20736 0.5454 0.73397 0.0
C19 C 0.26946 0.48889 0.6218 0.0
O20 O 0.29931 0.48779 0.63456 0.0
O21 O 0.25746 0.46942 0.71226 0.0
O22 O 0.27251 0.48002 0.76361 0.0
O23 O 0.288 0.56192 0.67558 0.0
O24 O 0.29309 0.53877 0.72344 0.0
C25 C 0.26461 0.46076 0.74133 0.0
C26 C 0.29941 0.56222 0.7052 0.0
O27 O 0.24592 0.49939 0.63925 0.0
Mg28 Mg 0.98517 0.32982 0.16478 0.0
O29 O 0.96891 0.29022 0.19921 0.0
O30 O 0.95849 0.31116 0.24819 0.0
Mg31 Mg 0.97071 0.36207 0.24654 0.0
C32 C 0.95935 0.28799 0.229 0.0
C33 C 0.9828 0.27349 0.11741 0.0
O34 O 0.95576 0.26875 0.13455 0.0
O35 O 0.03648 0.32997 0.18796 0.0
O36 O 0.02553 0.35014 0.2371 0.0
O37 O 0.93256 0.33859 0.1529 0.0
O38 O 0.95857 0.36091 0.19411 0.0
C39 C 0.04583 0.33895 0.21623 0.0
C40 C 0.93118 0.35558 0.17889 0.0
O41 O 0.0013 0.29612 0.12471 0.0
Mg42 Mg 0.22593 0.95116 0.68564 0.0
O43 O 0.2744 0.92871 0.7047 0.0
O44 O 0.26554 0.92132 0.75831 0.0
Mg45 Mg 0.21181 0.93196 0.77158 0.0
C46 C 0.28422 0.92017 0.73313 0.0
C47 C 0.2248 0.97869 0.62034 0.0
O48 O 0.19457 0.97816 0.63224 0.0
O49 O 0.23476 -0.00348 0.71264 0.0
O50 O 0.21872 0.98369 0.76318 0.0
O51 O 0.20534 0.90539 0.67116 0.0
O52 O 0.19885 0.92678 0.71967 0.0
C53 C 0.22739 0.00385 0.74206 0.0
C54 C 0.19289 0.9041 0.70033 0.0
O55 O 0.24837 0.96913 0.63839 0.0
Mg56 Mg 0.51285 0.33039 0.83069 0.0
O57 O 0.52675 0.29053 0.79595 0.0
O58 O 0.53624 0.31121 0.74663 0.0
Mg59 Mg 0.52673 0.36276 0.74907 0.0
C60 C 0.53508 0.28802 0.76583 0.0
C61 C 0.49348 0.30702 0.89893 0.0
O62 O 0.49884 0.33649 0.90388 0.0
O63 O 0.4612 0.33296 0.80871 0.0
O64 O 0.47134 0.3538 0.75971 0.0
O65 O 0.56582 0.33678 0.84196 0.0
O66 O 0.54042 0.36068 0.80125 0.0
C67 C 0.45125 0.34311 0.78108 0.0
C68 C 0.56772 0.35408 0.8162 0.0
O69 O 0.49606 0.2965 0.87 0.0
Mg70 Mg 0.23077 0.51098 0.31726 0.0
O71 O 0.27849 0.53067 0.29311 0.0
O72 O 0.26393 0.53715 0.24066 0.0
Mg73 Mg 0.20964 0.52651 0.23177 0.0
C74 C 0.28536 0.53846 0.2636 0.0
C75 C 0.23501 0.48081 0.38126 0.0
O76 O 0.20518 0.47645 0.36928 0.0
O77 O 0.23624 0.46415 0.29222 0.0
O78 O 0.21769 0.47529 0.24206 0.0
O79 O 0.21295 0.55822 0.33073 0.0
O80 O 0.20193 0.53482 0.28408 0.0
C81 C 0.22754 0.45588 0.26347 0.0
C82 C 0.19881 0.55879 0.30231 0.0
O83 O 0.25632 0.49434 0.36342 0.0
Mg84 Mg 0.98327 0.13355 0.84033 0.0
O85 O 0.969 0.174 0.80582 0.0
O86 O 0.96042 0.15255 0.75671 0.0
Mg87 Mg 0.97074 0.1013 0.75844 0.0
C88 C 0.96084 0.17597 0.77555 0.0
C89 C 0.994 0.15243 0.90949 0.0
O90 O 0.98368 0.12374 0.90954 0.0
O91 O 0.03539 0.13208 0.81895 0.0
O92 O 0.02557 0.11143 0.76983 0.0
O93 O 0.93024 0.12628 0.8509 0.0
O94 O 0.95648 0.10337 0.81019 0.0
C95 C 0.04547 0.12232 0.79121 0.0
C96 C 0.92891 0.10946 0.82482 0.0
O97 O 0.99852 0.16563 0.88202 0.0
Mg98 Mg 0.26421 0.96229 0.3159 0.0
O99 O 0.21742 0.94263 0.28988 0.0
O100 O 0.23449 0.93531 0.23829 0.0
Mg101 Mg 0.28911 0.94579 0.23155 0.0
C102 C 0.21198 0.93437 0.26022 0.0
C103 C 0.25779 0.99258 0.37961 0.0
O104 O 0.28798 -0.00301 0.36855 0.0
O105 O 0.26023 0.00898 0.2901 0.0
O106 O 0.28076 -0.00292 0.24093 0.0
O107 O 0.28081 0.91501 0.33067 0.0
O108 O 0.29405 0.93787 0.28418 0.0
C109 C 0.27017 0.01682 0.26158 0.0
C110 C 0.29583 0.91396 0.30271 0.0
O111 O 0.237 0.97929 0.361 0.0
Mg112 Mg 0.52201 0.73051 0.80888 0.0
O113 O 0.47841 0.76404 0.79975 0.0
O114 O 0.43168 0.74044 0.81488 0.0
Mg115 Mg 0.44588 0.6956 0.84066 0.0
C116 C 0.44689 0.76321 0.80212 0.0
C117 C 0.58095 0.77924 0.81029 0.0
O118 O 0.58689 0.76804 0.83961 0.0
O119 O 0.52381 0.74325 0.86361 0.0
O120 O 0.47611 0.72138 0.87893 0.0
O121 O 0.50863 0.70683 0.76161 0.0
O122 O 0.49035 0.69315 0.81048 0.0
C123 C 0.50222 0.73673 0.88545 0.0
C124 C 0.48955 0.68964 0.77934 0.0
O125 O 0.55706 0.76867 0.79354 0.0
Mg126 Mg 0.65636 0.43335 0.32681 0.0
O127 O 0.70176 0.4183 0.2959 0.0
O128 O 0.68246 0.40966 0.24536 0.0
Mg129 Mg 0.62753 0.42042 0.24276 0.0
C130 C 0.70614 0.41025 0.26606 0.0
C131 C 0.67273 0.44251 0.39715 0.0
O132 O 0.64159 0.43397 0.39533 0.0
O133 O 0.65876 0.48121 0.30382 0.0
O134 O 0.64012 0.47097 0.25338 0.0
O135 O 0.64425 0.38443 0.33753 0.0
O136 O 0.62456 0.41001 0.29503 0.0
C137 C 0.65098 0.48977 0.27487 0.0
C138 C 0.62721 0.38438 0.3107 0.0
O139 O 0.68864 0.44646 0.37058 0.0
Mg140 Mg 0.96979 0.7388 0.79825 0.0
O141 O 0.01429 0.7062 0.79034 0.0
O142 O 0.06074 0.73244 0.80042 0.0
Mg143 Mg 0.04572 0.77883 0.82242 0.0
C144 C 0.04582 0.70816 0.79092 0.0
C145 C 0.92128 0.6945 0.76258 0.0
O146 O 0.92536 0.71522 0.73948 0.0
O147 O 0.97145 0.7306 0.85392 0.0
O148 O 0.01908 0.75492 0.86451 0.0
O149 O 0.98024 0.75888 0.7481 0.0
O150 O 0.99962 0.77721 0.79471 0.0
C151 C 0.99403 0.73929 0.87381 0.0
C152 C 0.99898 0.77826 0.76339 0.0
O153 O 0.93579 0.69806 0.78993 0.0
Mg154 Mg 0.83683 0.04139 0.33322 0.0
O155 O 0.79289 0.05313 0.29912 0.0
O156 O 0.81395 0.06108 0.24919 0.0
Mg157 Mg 0.86973 0.0535 0.25054 0.0
C158 C 0.78939 0.0599 0.26882 0.0
C159 C 0.81473 0.02136 0.40173 0.0
O160 O 0.84703 0.02362 0.40463 0.0
O161 O 0.83937 0.99298 0.31197 0.0
O162 O 0.86083 0.00248 0.2625 0.0
O163 O 0.84519 0.0913 0.34274 0.0
O164 O 0.86916 0.06547 0.30267 0.0
C165 C 0.84999 0.9838 0.28418 0.0
C166 C 0.86404 0.09138 0.31709 0.0
O167 O 0.80163 0.02648 0.37392 0.0
Mg168 Mg 0.51728 0.73936 0.20439 0.0
O169 O 0.47727 0.70177 0.21023 0.0
O170 O 0.43055 0.71925 0.18741 0.0
Mg171 Mg 0.43991 0.76759 0.16762 0.0
C172 C 0.44687 0.6984 0.20246 0.0
C173 C 0.58074 0.6954 0.20469 0.0
O174 O 0.58643 0.70705 0.17554 0.0
O175 O 0.52385 0.72822 0.14927 0.0
O176 O 0.47569 0.74714 0.13086 0.0
O177 O 0.49881 0.76091 0.2512 0.0
O178 O 0.48128 0.7731 0.20165 0.0
C179 C 0.50359 0.73413 0.12599 0.0
C180 C 0.47863 0.77631 0.23274 0.0
O181 O 0.55564 0.70429 0.22088 0.0
Mg182 Mg 0.8437 0.42315 0.66548 0.0
O183 O 0.79825 0.41136 0.69767 0.0
O184 O 0.81698 0.40343 0.74852 0.0
Mg185 Mg 0.87259 0.4115 0.74989 0.0
C186 C 0.79336 0.40455 0.72777 0.0
C187 C 0.78544 0.4222 0.61447 0.0
O188 O 0.77703 0.3983 0.63235 0.0
O189 O 0.84421 0.47166 0.68682 0.0
O190 O 0.86301 0.46222 0.73738 0.0
O191 O 0.85352 0.37316 0.65683 0.0
O192 O 0.8747 0.39959 0.69787 0.0
C193 C 0.85296 0.48084 0.71524 0.0
C194 C 0.87096 0.37352 0.68344 0.0
O195 O 0.8108 0.43778 0.62248 0.0
Mg196 Mg 0.9816 0.73398 0.1941 0.0
O197 O 0.02225 0.77063 0.20128 0.0
O198 O 0.0696 0.75173 0.18123 0.0
Mg199 Mg 0.0598 0.7033 0.16181 0.0
C200 C 0.05311 0.77318 0.19506 0.0
C201 C 0.9333 0.77548 0.23495 0.0
O202 O 0.94467 0.75824 0.25891 0.0
O203 O 0.9782 0.74421 0.13864 0.0
O204 O 0.02667 0.72403 0.12277 0.0
O205 O 0.99735 0.71237 0.24227 0.0
O206 O 0.01648 0.69936 0.19362 0.0
C207 C 0.99937 0.73758 0.11641 0.0
C208 C 0.01759 0.69612 0.22476 0.0
O209 O 0.94325 0.77057 0.2059 0.0
Mg210 Mg 0.6553 0.03654 0.67392 0.0
O211 O 0.69942 0.0524 0.70571 0.0
O212 O 0.67913 0.06347 0.75528 0.0
Mg213 Mg 0.62388 0.0536 0.75623 0.0
C214 C 0.70328 0.06156 0.73522 0.0
C215 C 0.67723 0.01799 0.60525 0.0
O216 O 0.64519 0.02245 0.60226 0.0
O217 O 0.65638 0.98984 0.69956 0.0
O218 O 0.63622 0.00249 0.74881 0.0
O219 O 0.64377 0.08521 0.66052 0.0
O220 O 0.6224 0.06127 0.70326 0.0
C221 C 0.64759 0.98264 0.72863 0.0
C222 C 0.6256 0.08626 0.68661 0.0
O223 O 0.69033 0.02083 0.6334 0.0
H224 H 0.40021 0.13409 0.16924 0.0
H225 H 0.28519 0.06207 0.30571 0.0
H226 H 0.42315 0.12833 0.27229 0.0
H227 H 0.27552 0.0453 0.20207 0.0
H228 H 0.32155 0.1055 0.29371 0.0
H229 H 0.3428 0.12028 0.18162 0.0
C230 C 0.39302 0.13071 0.19455 0.0
C231 C 0.41671 0.13148 0.21969 0.0
C232 C 0.31056 0.09296 0.27355 0.0
C233 C 0.35116 0.11579 0.23395 0.0
C234 C 0.28945 0.06833 0.28037 0.0
C235 C 0.27823 0.04942 0.25484 0.0
C236 C 0.32032 0.09859 0.24105 0.0
C237 C 0.28443 0.05882 0.22251 0.0
C238 C 0.36024 0.12281 0.20158 0.0
C239 C 0.40589 0.12718 0.25204 0.0
N240 N 0.30582 0.08225 0.21652 0.0
N241 N 0.37405 0.11902 0.25819 0.0
H242 H 0.27914 0.41659 0.69558 0.0
H243 H 0.40025 0.34111 0.82549 0.0
H244 H 0.27316 0.4309 0.79997 0.0
H245 H 0.42002 0.35112 0.72216 0.0
H246 H 0.34262 0.35602 0.8156 0.0
H247 H 0.31726 0.37387 0.70503 0.0
C248 C 0.28466 0.41 0.72058 0.0
C249 C 0.27389 0.42815 0.747 0.0
C250 C 0.35943 0.35423 0.79502 0.0
C251 C 0.31797 0.37961 0.75784 0.0
C252 C 0.39234 0.34571 0.80061 0.0
C253 C 0.41522 0.34565 0.77471 0.0
C254 C 0.34933 0.36254 0.7633 0.0
C255 C 0.40344 0.35159 0.74297 0.0
C256 C 0.30678 0.38575 0.72592 0.0
C257 C 0.28166 0.41812 0.77882 0.0
N258 N 0.37145 0.36022 0.73824 0.0
N259 N 0.30398 0.39505 0.78335 0.0
H260 H 0.07465 0.34019 0.27674 0.0
H261 H 0.22473 0.4264 0.2044 0.0
H262 H 0.09846 0.34012 0.17376 0.0
H263 H 0.21081 0.41135 0.30787 0.0
H264 H 0.18899 0.38254 0.19303 0.0
H265 H 0.13179 0.35382 0.28914 0.0
C266 C 0.0921 0.34247 0.25674 0.0
C267 C 0.08157 0.33986 0.22412 0.0
C268 C 0.19452 0.38813 0.21827 0.0
C269 C 0.14702 0.35605 0.23809 0.0
C270 C 0.21518 0.4131 0.22477 0.0
C271 C 0.21984 0.42316 0.2571 0.0
C272 C 0.17792 0.37364 0.24429 0.0
C273 C 0.20734 0.40479 0.28253 0.0
C274 C 0.12483 0.35016 0.26383 0.0
C275 C 0.10539 0.34241 0.19925 0.0
N276 N 0.18599 0.38154 0.27558 0.0
N277 N 0.13681 0.35117 0.20669 0.0
H278 H 0.21366 0.05078 0.69916 0.0
H279 H 0.09675 0.12102 0.83538 0.0
H280 H 0.22106 0.03075 0.80242 0.0
H281 H 0.07618 0.11889 0.73171 0.0
H282 H 0.15408 0.10599 0.8239 0.0
H283 H 0.17758 0.09429 0.71184 0.0
C284 C 0.2089 0.05624 0.72461 0.0
C285 C 0.21939 0.03637 0.74972 0.0
C286 C 0.1372 0.10958 0.80364 0.0
C287 C 0.17759 0.08574 0.76425 0.0
C288 C 0.10447 0.1182 0.81016 0.0
C289 C 0.08144 0.12038 0.7845 0.0
C290 C 0.14689 0.10332 0.77127 0.0
C291 C 0.09292 0.11669 0.7523 0.0
C292 C 0.18795 0.08096 0.7318 0.0
C293 C 0.21267 0.04493 0.78222 0.0
N294 N 0.12467 0.10787 0.74664 0.0
N295 N 0.19141 0.06847 0.78853 0.0
H296 H 0.62089 0.81897 0.84424 0.0
H297 H 0.64578 0.93079 0.69034 0.0
H298 H 0.58442 0.79944 0.74711 0.0
H299 H 0.65089 0.96054 0.79102 0.0
H300 H 0.63799 0.87771 0.70936 0.0
H301 H 0.64644 0.86614 0.82319 0.0
C302 C 0.61867 0.82436 0.81842 0.0
C303 C 0.60004 0.80558 0.79749 0.0
C304 C 0.64131 0.89586 0.72721 0.0
C305 C 0.62925 0.85921 0.77332 0.0
C306 C 0.6459 0.92608 0.7164 0.0
C307 C 0.64839 0.95012 0.73916 0.0
C308 C 0.63959 0.88973 0.76097 0.0
C309 C 0.64845 0.94275 0.77265 0.0
C310 C 0.63318 0.85128 0.80646 0.0
C311 C 0.59809 0.81356 0.76421 0.0
N312 N 0.64381 0.91323 0.78255 0.0
N313 N 0.6123 0.83991 0.75319 0.0
H314 H 0.58402 0.67416 0.26755 0.0
H315 H 0.65815 0.51459 0.21402 0.0
H316 H 0.62318 0.65786 0.17075 0.0
H317 H 0.64586 0.53985 0.31546 0.0
H318 H 0.65032 0.56832 0.1984 0.0
H319 H 0.61089 0.62705 0.28659 0.0
C320 C 0.59864 0.66084 0.25038 0.0
C321 C 0.60093 0.66964 0.21738 0.0
C322 C 0.64989 0.56227 0.22413 0.0
C323 C 0.63148 0.61554 0.23896 0.0
C324 C 0.65425 0.53157 0.23306 0.0
C325 C 0.65212 0.52272 0.26605 0.0
C326 C 0.64266 0.58423 0.24829 0.0
C327 C 0.64749 0.54569 0.28973 0.0
C328 C 0.61409 0.63401 0.26132 0.0
C329 C 0.62053 0.65177 0.19634 0.0
N330 N 0.64224 0.57536 0.28033 0.0
N331 N 0.63458 0.62525 0.20735 0.0
H332 H 0.89582 0.67465 0.70404 0.0
H333 H 0.8557 0.50783 0.77537 0.0
H334 H 0.90482 0.64903 0.80585 0.0
H335 H 0.85186 0.52968 0.67226 0.0
H336 H 0.8646 0.56199 0.78748 0.0
H337 H 0.87114 0.62438 0.69261 0.0
C338 C 0.89224 0.65862 0.72406 0.0
C339 C 0.90283 0.66587 0.75588 0.0
C340 C 0.86153 0.55507 0.7622 0.0
C341 C 0.87469 0.60841 0.74295 0.0
C342 C 0.85646 0.52409 0.75524 0.0
C343 C 0.85361 0.51412 0.72269 0.0
C344 C 0.86413 0.57634 0.73644 0.0
C345 C 0.8542 0.53634 0.69769 0.0
C346 C 0.87819 0.62992 0.7175 0.0
C347 C 0.89743 0.64429 0.78088 0.0
N348 N 0.85989 0.56641 0.70506 0.0
N349 N 0.884 0.61647 0.77382 0.0
H350 H 0.84926 0.93566 0.32796 0.0
H351 H 0.90478 0.81492 0.191 0.0
H352 H 0.85638 0.95599 0.22469 0.0
H353 H 0.91359 0.79764 0.29479 0.0
H354 H 0.87594 0.86293 0.20294 0.0
H355 H 0.86174 0.88156 0.31605 0.0
C356 C 0.85288 0.92868 0.30276 0.0
C357 C 0.85232 0.95045 0.27733 0.0
C358 C 0.88389 0.84852 0.22314 0.0
C359 C 0.86663 0.8888 0.2636 0.0
C360 C 0.90037 0.82106 0.21633 0.0
C361 C 0.91212 0.80247 0.24195 0.0
C362 C 0.87922 0.8576 0.2558 0.0
C363 C 0.90528 0.81145 0.27428 0.0
C364 C 0.86014 0.89784 0.29601 0.0
C365 C 0.85713 0.94011 0.24513 0.0
N366 N 0.88961 0.83859 0.28031 0.0
N367 N 0.86435 0.91012 0.23924 0.0
H368 H 0.56374 0.19644 0.28625 0.0
H369 H 0.58984 0.37641 0.25514 0.0
H370 H 0.53842 0.2409 0.1949 0.0
H371 H 0.63159 0.32666 0.33694 0.0
H372 H 0.56699 0.32819 0.23425 0.0
H373 H 0.58429 0.24525 0.30691 0.0
C374 C 0.56234 0.21648 0.27051 0.0
C375 C 0.54936 0.21445 0.23867 0.0
C376 C 0.58124 0.32786 0.25671 0.0
C377 C 0.57307 0.27066 0.26236 0.0
C378 C 0.5944 0.35537 0.26862 0.0
C379 C 0.61298 0.35555 0.29768 0.0
C380 C 0.58644 0.30041 0.27415 0.0
C381 C 0.61756 0.32762 0.31438 0.0
C382 C 0.57423 0.24439 0.28235 0.0
C383 C 0.54828 0.24133 0.21954 0.0
N384 N 0.60437 0.30121 0.30239 0.0
N385 N 0.56001 0.26836 0.23169 0.0
H386 H 0.16171 0.54294 0.78332 0.0
H387 H 0.1027 0.71059 0.75537 0.0
H388 H 0.18304 0.58872 0.69201 0.0
H389 H 0.0344 0.64635 0.7991 0.0
H390 H 0.13652 0.6672 0.73638 0.0
H391 H 0.11738 0.58051 0.7937 0.0
C392 C 0.15647 0.56043 0.76509 0.0
C393 C 0.17593 0.5627 0.7367 0.0
C394 C 0.11399 0.66264 0.74991 0.0
C395 C 0.12643 0.60625 0.74906 0.0
C396 C 0.09488 0.68732 0.76099 0.0
C397 C 0.06586 0.68197 0.77896 0.0
C398 C 0.10456 0.63242 0.75768 0.0
C399 C 0.05664 0.65137 0.78529 0.0
C400 C 0.13129 0.58184 0.77106 0.0
C401 C 0.1684 0.58598 0.71403 0.0
N402 N 0.07627 0.62767 0.77517 0.0
N403 N 0.14476 0.60734 0.72106 0.0
H404 H 0.85565 0.14975 0.34075 0.0
H405 H 0.9603 0.23126 0.19878 0.0
H406 H 0.90471 0.099 0.26387 0.0
H407 H 0.92986 0.27666 0.28797 0.0
H408 H 0.93724 0.183 0.21992 0.0
H409 H 0.87954 0.19725 0.31924 0.0
C410 C 0.87134 0.14858 0.31928 0.0
C411 C 0.87798 0.12034 0.30398 0.0
C412 C 0.93579 0.20356 0.23485 0.0
C413 C 0.90546 0.17467 0.2792 0.0
C414 C 0.94893 0.2311 0.2228 0.0
C415 C 0.94708 0.25811 0.2416 0.0
C416 C 0.92043 0.20312 0.26573 0.0
C417 C 0.932 0.25647 0.27257 0.0
C418 C 0.88505 0.17571 0.30704 0.0
C419 C 0.89859 0.12026 0.27627 0.0
N420 N 0.91917 0.22954 0.28355 0.0
N421 N 0.91154 0.14701 0.2647 0.0
H422 H 0.32945 0.9261 0.78233 0.0
H423 H 0.39005 0.75835 0.76708 0.0
H424 H 0.30971 0.87544 0.69378 0.0
H425 H 0.45869 0.82543 0.80483 0.0
H426 H 0.35624 0.80024 0.74453 0.0
H427 H 0.37451 0.88995 0.7952 0.0
C428 C 0.33524 0.90785 0.76519 0.0
C429 C 0.31606 0.90379 0.73686 0.0
C430 C 0.37885 0.80575 0.75751 0.0
C431 C 0.36631 0.86184 0.75212 0.0
C432 C 0.39794 0.78194 0.77061 0.0
C433 C 0.42703 0.78854 0.78797 0.0
C434 C 0.38834 0.83641 0.76265 0.0
C435 C 0.43638 0.81947 0.79159 0.0
C436 C 0.36082 0.88725 0.77257 0.0
C437 C 0.3242 0.87955 0.71565 0.0
N438 N 0.41672 0.8424 0.77957 0.0
N439 N 0.34819 0.85898 0.72412 0.0
H440 H 0.56113 0.27519 0.70552 0.0
H441 H 0.58516 0.0954 0.73963 0.0
H442 H 0.53362 0.23166 0.7967 0.0
H443 H 0.63133 0.14359 0.65922 0.0
H444 H 0.56146 0.14396 0.75849 0.0
H445 H 0.58173 0.22592 0.68566 0.0
C446 C 0.55919 0.25525 0.72135 0.0
C447 C 0.54566 0.25768 0.75295 0.0
C448 C 0.57684 0.14391 0.73678 0.0
C449 C 0.56941 0.20104 0.73021 0.0
C450 C 0.59052 0.11619 0.72603 0.0
C451 C 0.61067 0.11545 0.69802 0.0
C452 C 0.58305 0.17108 0.71922 0.0
C453 C 0.61612 0.14308 0.68104 0.0
C454 C 0.57112 0.22711 0.70998 0.0
C455 C 0.54391 0.23094 0.77224 0.0
N456 N 0.60239 0.16977 0.69191 0.0
N457 N 0.5557 0.20373 0.76057 0.0
H458 H 0.45521 0.66234 0.25727 0.0
H459 H 0.3128 0.54567 0.20323 0.0
H460 H 0.39864 0.66943 0.168 0.0
H461 H 0.3307 0.56576 0.30522 0.0
H462 H 0.35783 0.58007 0.18826 0.0
H463 H 0.4217 0.61729 0.27321 0.0
C464 C 0.43611 0.65413 0.24086 0.0
C465 C 0.42946 0.66968 0.21138 0.0
C466 C 0.35223 0.57662 0.21395 0.0
C467 C 0.3918 0.61825 0.22908 0.0
C468 C 0.32658 0.55689 0.22259 0.0
C469 C 0.31744 0.55327 0.25556 0.0
C470 C 0.36913 0.59291 0.23835 0.0
C471 C 0.33671 0.56805 0.2795 0.0
C472 C 0.41701 0.62861 0.25001 0.0
C473 C 0.40436 0.65829 0.19106 0.0
N474 N 0.36144 0.58765 0.27041 0.0
N475 N 0.38654 0.63327 0.20025 0.0
H476 H 0.90939 0.3672 0.73845 0.0
H477 H 0.93582 0.18663 0.7145 0.0
H478 H 0.86478 0.31465 0.66044 0.0
H479 H 0.9597 0.23329 0.80483 0.0
H480 H 0.91459 0.23466 0.69238 0.0
H481 H 0.93211 0.31966 0.7613 0.0
C482 C 0.90411 0.34568 0.72623 0.0
C483 C 0.8848 0.34491 0.69764 0.0
C484 C 0.92448 0.23446 0.71703 0.0
C485 C 0.91133 0.29047 0.7234 0.0
C486 C 0.9368 0.207 0.72973 0.0
C487 C 0.94959 0.20578 0.76172 0.0
C488 C 0.92503 0.26116 0.73625 0.0
C489 C 0.95005 0.23309 0.7801 0.0
C490 C 0.91722 0.31855 0.73928 0.0
C491 C 0.8794 0.31636 0.68258 0.0
N492 N 0.93794 0.25971 0.76708 0.0
N493 N 0.89265 0.2903 0.69561 0.0
H494 H 0.04177 0.81096 0.24791 0.0
H495 H 0.18788 0.92544 0.19875 0.0
H496 H 0.10471 0.80003 0.16338 0.0
H497 H 0.16446 0.90801 0.30025 0.0
H498 H 0.14399 0.89033 0.18253 0.0
H499 H 0.07484 0.85605 0.26444 0.0
C500 C 0.06223 0.81829 0.23265 0.0
C501 C 0.07072 0.80168 0.20435 0.0
C502 C 0.14813 0.89452 0.20835 0.0
C503 C 0.10787 0.8532 0.22267 0.0
C504 C 0.17312 0.91467 0.21771 0.0
C505 C 0.18039 0.91926 0.25099 0.0
C506 C 0.12997 0.87882 0.23233 0.0
C507 C 0.1599 0.905 0.27433 0.0
C508 C 0.08107 0.84385 0.24216 0.0
C509 C 0.09751 0.81199 0.18552 0.0
N510 N 0.13582 0.88501 0.26456 0.0
N511 N 0.11502 0.83711 0.19495 0.0
H512 H 0.32778 0.60837 0.66888 0.0
H513 H 0.46107 0.64086 0.80851 0.0
H514 H 0.32533 0.56957 0.76623 0.0
H515 H 0.45837 0.69412 0.71929 0.0
H516 H 0.41243 0.61293 0.79078 0.0
H517 H 0.37491 0.64039 0.68528 0.0
C518 C 0.33668 0.60703 0.69386 0.0
C519 C 0.32279 0.58607 0.71618 0.0
C520 C 0.42235 0.63064 0.77489 0.0
C521 C 0.37684 0.62201 0.73473 0.0
C522 C 0.45031 0.64647 0.78492 0.0
C523 C 0.4636 0.66991 0.76539 0.0
C524 C 0.40735 0.63817 0.74496 0.0
C525 C 0.44889 0.67605 0.73495 0.0
C526 C 0.36371 0.62513 0.70308 0.0
C527 C 0.33534 0.58519 0.74813 0.0
N528 N 0.42128 0.66031 0.72565 0.0
N529 N 0.36181 0.60265 0.75631 0.0
H530 H 0.91824 0.38988 0.23428 0.0
H531 H 0.72224 0.38313 0.20805 0.0
H532 H 0.87002 0.3434 0.15404 0.0
H533 H 0.76648 0.41794 0.29687 0.0
H534 H 0.77694 0.37082 0.18734 0.0
H535 H 0.86377 0.40296 0.25682 0.0
C536 C 0.89629 0.38237 0.22142 0.0
C537 C 0.89877 0.36526 0.19235 0.0
C538 C 0.77483 0.38108 0.21141 0.0
C539 C 0.83646 0.38037 0.21785 0.0
C540 C 0.74348 0.38819 0.22331 0.0
C541 C 0.73964 0.40169 0.25431 0.0
C542 C 0.80286 0.38758 0.23044 0.0
C543 C 0.76825 0.40749 0.27288 0.0
C544 C 0.86521 0.38986 0.23432 0.0
C545 C 0.86942 0.35654 0.17654 0.0
N546 N 0.79872 0.40051 0.2606 0.0
N547 N 0.83959 0.36417 0.18949 0.0
H548 H 0.03543 0.76623 0.70758 0.0
H549 H 0.16438 0.89526 0.75995 0.0
H550 H 0.01974 0.8336 0.78356 0.0
H551 H 0.16521 0.85945 0.66135 0.0
H552 H 0.11622 0.8639 0.77194 0.0
H553 H 0.08583 0.79431 0.69079 0.0
C554 C 0.04206 0.78734 0.72002 0.0
C555 C 0.02363 0.79771 0.74698 0.0
C556 C 0.12702 0.86273 0.74769 0.0
C557 C 0.08113 0.82881 0.72898 0.0
C558 C 0.15479 0.88041 0.74093 0.0
C559 C 0.16862 0.88028 0.7095 0.0
C560 C 0.11283 0.84471 0.72288 0.0
C561 C 0.15514 0.86033 0.6859 0.0
C562 C 0.07092 0.80306 0.71077 0.0
C563 C 0.03345 0.82479 0.76276 0.0
N564 N 0.12766 0.84346 0.69296 0.0
N565 N 0.06168 0.83916 0.7538 0.0
H566 H 0.62874 0.12692 0.14911 0.0
H567 H 0.72885 0.05404 0.29944 0.0
H568 H 0.58033 0.08304 0.23098 0.0
H569 H 0.77362 0.08185 0.20805 0.0
H570 H 0.67427 0.06634 0.27651 0.0
H571 H 0.68217 0.11212 0.17186 0.0
C572 C 0.62929 0.11412 0.17188 0.0
C573 C 0.59991 0.10648 0.18829 0.0
C574 C 0.6961 0.06963 0.26152 0.0
C575 C 0.66129 0.08953 0.21468 0.0
C576 C 0.72726 0.0627 0.27461 0.0
C577 C 0.75596 0.06692 0.2557 0.0
C578 C 0.69366 0.08108 0.22941 0.0
C579 C 0.75231 0.07815 0.22361 0.0
C580 C 0.65988 0.10566 0.18488 0.0
C581 C 0.60229 0.08976 0.21767 0.0
N582 N 0.72183 0.08491 0.2116 0.0
N583 N 0.63247 0.08198 0.23005 0.0
H584 H 0.4525 0.77682 0.29543 0.0
H585 H 0.3097 0.89418 0.24112 0.0
H586 H 0.44163 0.81773 0.1996 0.0
H587 H 0.32905 0.87388 0.34273 0.0
H588 H 0.35224 0.85752 0.22538 0.0
H589 H 0.40337 0.80593 0.31373 0.0
C590 C 0.43989 0.7919 0.27835 0.0
C591 C 0.4509 0.79463 0.24587 0.0
C592 C 0.34717 0.86087 0.25118 0.0
C593 C 0.39492 0.82722 0.26627 0.0
C594 C 0.3228 0.88181 0.26013 0.0
C595 C 0.31642 0.8875 0.29321 0.0
C596 C 0.36563 0.84571 0.27551 0.0
C597 C 0.33348 0.87017 0.31688 0.0
C598 C 0.41184 0.80828 0.2887 0.0
C599 C 0.43373 0.81441 0.22468 0.0
N600 N 0.35781 0.85029 0.3076 0.0
N601 N 0.40665 0.82978 0.23521 0.0
H602 H 0.73412 0.41061 0.69456 0.0
H603 H 0.62798 0.34332 0.8437 0.0
H604 H 0.77497 0.38307 0.78789 0.0
H605 H 0.58247 0.38535 0.75904 0.0
H606 H 0.68215 0.35598 0.8217 0.0
H607 H 0.67847 0.3995 0.71566 0.0
C608 C 0.73146 0.40221 0.7194 0.0
C609 C 0.75936 0.39779 0.73945 0.0
C610 C 0.66037 0.36252 0.80787 0.0
C611 C 0.69589 0.38506 0.76363 0.0
C612 C 0.62932 0.35527 0.82044 0.0
C613 C 0.60051 0.36309 0.80312 0.0
C614 C 0.66289 0.37764 0.77757 0.0
C615 C 0.60396 0.37866 0.77313 0.0
C616 C 0.69969 0.39598 0.73144 0.0
C617 C 0.75434 0.38693 0.77147 0.0
N618 N 0.63463 0.38532 0.7612 0.0
N619 N 0.72334 0.38091 0.78246 0.0
H620 H 0.16788 0.60164 0.34111 0.0
H621 H 0.05017 0.65068 0.19376 0.0
H622 H 0.18016 0.57403 0.2404 0.0
H623 H 0.04469 0.69671 0.28724 0.0
H624 H 0.09707 0.62133 0.21295 0.0
H625 H 0.12377 0.63731 0.32396 0.0
C626 C 0.16178 0.60352 0.31535 0.0
C627 C 0.17731 0.58449 0.29214 0.0
C628 C 0.08588 0.63785 0.22944 0.0
C629 C 0.12693 0.6246 0.27264 0.0
C630 C 0.05891 0.65463 0.21849 0.0
C631 C 0.04375 0.67645 0.23882 0.0
C632 C 0.09797 0.64257 0.2612 0.0
C633 C 0.05576 0.68007 0.27083 0.0
C634 C 0.1365 0.62368 0.30567 0.0
C635 C 0.16847 0.58771 0.2592 0.0
N636 N 0.08239 0.66326 0.28113 0.0
N637 N 0.14373 0.60712 0.25053 0.0
H638 H 0.91562 0.07694 0.76824 0.0
H639 H 0.71949 0.08869 0.79325 0.0
H640 H 0.86793 0.12224 0.84966 0.0
H641 H 0.76363 0.05211 0.70512 0.0
H642 H 0.77438 0.09945 0.81447 0.0
H643 H 0.86095 0.06559 0.74512 0.0
C644 C 0.89376 0.08452 0.78125 0.0
C645 C 0.89643 0.10079 0.81083 0.0
C646 C 0.77219 0.08914 0.79044 0.0
C647 C 0.83393 0.08774 0.78465 0.0
C648 C 0.74074 0.08295 0.77825 0.0
C649 C 0.73682 0.0694 0.7473 0.0
C650 C 0.80022 0.08165 0.77174 0.0
C651 C 0.76544 0.06264 0.72906 0.0
C652 C 0.86256 0.07804 0.76802 0.0
C653 C 0.86718 0.10974 0.82676 0.0
N654 N 0.79598 0.06873 0.74161 0.0
N655 N 0.83727 0.10312 0.81348 0.0
H656 H 0.48834 0.22984 0.09396 0.0
H657 H 0.48553 0.24423 0.89841 0.0
H658 H 0.48599 0.15176 0.02866 0.0
H659 H 0.48855 0.32226 0.96374 0.0
H660 H 0.48086 0.2101 0.94585 0.0
H661 H 0.48362 0.26414 0.04666 0.0
C662 C 0.48657 0.21988 0.06971 0.0
C663 C 0.48782 0.18786 0.06529 0.0
C664 C 0.48231 0.2347 0.94979 0.0
C665 C 0.48257 0.22702 0.01097 0.0
C666 C 0.48493 0.25422 0.9227 0.0
C667 C 0.48769 0.28617 0.92708 0.0
C668 C 0.48252 0.24719 0.98154 0.0
C669 C 0.48669 0.29779 0.95915 0.0
C670 C 0.48391 0.2395 0.04269 0.0
C671 C 0.48532 0.17629 0.03327 0.0
N672 N 0.48441 0.27831 0.98512 0.0
N673 N 0.48304 0.19585 0.00736 0.0
H674 H 0.19071 0.4615 0.42729 0.0
H675 H 0.31709 0.47577 0.57659 0.0
H676 H 0.29349 0.48631 0.41522 0.0
H677 H 0.21114 0.48465 0.58738 0.0
H678 H 0.30971 0.46798 0.51788 0.0
H679 H 0.19929 0.45805 0.48631 0.0
C680 C 0.21523 0.46583 0.43696 0.0
C681 C 0.24138 0.47458 0.41628 0.0
C682 C 0.28809 0.47141 0.53315 0.0
C683 C 0.25122 0.47059 0.48386 0.0
C684 C 0.29221 0.47577 0.56669 0.0
C685 C 0.26466 0.4812 0.58689 0.0
C686 C 0.25618 0.47214 0.5197 0.0
C687 C 0.23306 0.48082 0.57267 0.0
C688 C 0.22001 0.46398 0.47069 0.0
C689 C 0.27259 0.47976 0.43027 0.0
N690 N 0.22968 0.47648 0.53987 0.0
N691 N 0.27661 0.47784 0.46327 0.0
H692 H 0.02347 0.28668 0.06531 0.0
H693 H 0.9793 0.13115 0.97051 0.0
H694 H 0.95725 0.21712 0.10264 0.0
H695 H 0.01591 0.21177 0.92036 0.0
H696 H 0.98055 0.1594 0.02191 0.0
H697 H 0.03003 0.2565 0.0149 0.0
C698 C 0.01064 0.26491 0.06308 0.0
C699 C 0.98965 0.25444 0.08816 0.0
C700 C 0.98845 0.17092 0.99971 0.0
C701 C 0.99716 0.21991 0.03076 0.0
C702 C 0.98785 0.15477 0.97028 0.0
C703 C 0.99727 0.16917 0.94093 0.0
C704 C 0.99877 0.20172 1.00006 0.0
C705 C 0.00824 0.19983 0.94236 0.0
C706 C 0.01425 0.24783 0.03426 0.0
C707 C 0.97351 0.22616 0.08388 0.0
N708 N 0.00862 0.21515 0.97146 0.0
N709 N 0.9776 0.20991 0.05578 0.0
H710 H 0.19868 0.98566 0.41218 0.0
H711 H 0.28368 0.98579 0.58735 0.0
H712 H 0.30086 0.01115 0.42705 0.0
H713 H 0.17771 0.9904 0.57417 0.0
H714 H 0.29075 0.99511 0.52856 0.0
H715 H 0.19013 0.98765 0.47151 0.0
C716 C 0.21917 0.99206 0.42785 0.0
C717 C 0.25058 -0.00206 0.41465 0.0
C718 C 0.26597 0.9944 0.53866 0.0
C719 C 0.24116 -0.00021 0.48244 0.0
C720 C 0.26195 0.98901 0.57217 0.0
C721 C 0.23009 0.98707 0.58564 0.0
C722 C 0.23792 -0.00259 0.51849 0.0
C723 C 0.20277 0.99156 0.56485 0.0
C724 C 0.21431 0.99318 0.4617 0.0
C725 C 0.27625 0.00622 0.43613 0.0
N726 N 0.2073 0.99615 0.53228 0.0
N727 N 0.2711 0.00647 0.46897 0.0
H728 H 0.45612 0.75241 0.93005 0.0
H729 H 0.56139 0.74663 0.09238 0.0
H730 H 0.5609 0.73537 0.92026 0.0
H731 H 0.46331 0.70908 0.08116 0.0
H732 H 0.5658 0.75044 0.03203 0.0
H733 H 0.4617 0.74969 0.98924 0.0
C734 C 0.4805 0.74875 0.94047 0.0
C735 C 0.508 0.74375 0.9203 0.0
C736 C 0.54373 0.74074 0.04298 0.0
C737 C 0.51444 0.7398 0.98815 0.0
C738 C 0.54136 0.7382 0.07722 0.0
C739 C 0.51185 0.72767 0.09156 0.0
C740 C 0.51619 0.73312 0.02361 0.0
C741 C 0.48636 0.71754 0.07102 0.0
C742 C 0.48361 0.74685 0.97422 0.0
C743 C 0.53911 0.73936 0.9351 0.0
N744 N 0.4889 0.72099 0.03821 0.0
N745 N 0.54152 0.73707 0.96839 0.0
H746 H 0.72428 0.40173 0.5964 0.0
H747 H 0.73678 0.4599 0.41174 0.0
H748 H 0.8053 0.45811 0.56266 0.0
H749 H 0.64595 0.42889 0.45661 0.0
H750 H 0.76356 0.45841 0.46576 0.0
H751 H 0.69621 0.4101 0.54422 0.0
C752 C 0.73609 0.41603 0.57807 0.0
C753 C 0.76721 0.42918 0.58389 0.0
C754 C 0.73769 0.45221 0.4637 0.0
C755 C 0.73534 0.43861 0.52381 0.0
C756 C 0.72242 0.45302 0.43291 0.0
C757 C 0.68912 0.44433 0.42957 0.0
C758 C 0.7196 0.4423 0.49118 0.0
C759 C 0.67169 0.43567 0.45788 0.0
C760 C 0.72001 0.42087 0.54828 0.0
C761 C 0.78128 0.44759 0.55923 0.0
N762 N 0.6872 0.43461 0.48733 0.0
N763 N 0.76539 0.45152 0.53011 0.0
H764 H 0.94098 0.73095 0.08182 0.0
H765 H 0.04417 0.72908 0.91589 0.0
H766 H 0.04348 0.7569 0.0717 0.0
H767 H 0.9378 0.7376 0.91245 0.0
H768 H 0.04205 0.73075 0.97518 0.0
H769 H 0.93639 0.72907 0.02146 0.0
C770 C 0.96215 0.73708 0.06692 0.0
C771 C 0.99273 0.74388 0.08158 0.0
C772 C 0.01904 0.73216 0.96163 0.0
C773 C 0.98799 0.74084 0.01343 0.0
C774 C 0.02024 0.7309 0.92775 0.0
C775 C 0.99116 0.73353 0.90929 0.0
C776 C 0.98853 0.73626 0.9775 0.0
C777 C 0.96077 0.73547 0.92593 0.0
C778 C 0.95964 0.73566 0.03263 0.0
C779 C 0.01956 0.75124 0.06135 0.0
N780 N 0.9602 0.73713 0.95932 0.0
N781 N 0.01664 0.74918 0.02845 0.0
H782 H 0.74482 0.01146 0.60141 0.0
H783 H 0.74698 0.0172 0.40543 0.0
H784 H 0.65664 0.01319 0.54168 0.0
H785 H 0.83522 0.01259 0.46492 0.0
H786 H 0.71341 0.01183 0.45493 0.0
H787 H 0.77833 0.00786 0.55165 0.0
C788 C 0.73247 0.01081 0.57787 0.0
C789 C 0.69786 0.01288 0.57574 0.0
C790 C 0.74013 0.01178 0.45714 0.0
C791 C 0.73608 0.00896 0.51864 0.0
C792 C 0.75932 0.01483 0.42885 0.0
C793 C 0.79398 0.01559 0.43101 0.0
C794 C 0.75569 0.0096 0.48785 0.0
C795 C 0.80858 0.01231 0.46205 0.0
C796 C 0.75163 0.0088 0.54945 0.0
C797 C 0.68325 0.01185 0.54454 0.0
N798 N 0.78938 0.00968 0.48924 0.0
N799 N 0.70242 0.01019 0.51726 0.0
loop_
_geom_bond_atom_site_label_1
_geom_bond_atom_site_label_2
_geom_bond_distance
_geom_bond_site_symmetry_2
_ccdc_geom_bond_type
Mg0 O1 2.028 . S
Mg0 O7 1.986 . S
Mg0 O9 2.114 . S
Mg0 O10 2.251 . S
Mg0 O13 2.010 . S
O1 Mg0 2.028 . S
O1 C4 1.250 . S
O2 Mg3 2.028 . S
O2 C4 1.248 . S
Mg3 O2 2.028 . S
Mg3 O8 2.032 . S
Mg3 O10 2.079 . S
C4 O1 1.250 . S
C4 O2 1.248 . S
C5 O6 1.264 . S
C5 O13 1.249 . S
O6 C5 1.264 . S
O7 Mg0 1.986 . S
O7 C11 1.246 . S
O8 Mg3 2.032 . S
O8 C11 1.259 . S
O9 Mg0 2.114 . S
O9 C12 1.252 . S
O10 Mg0 2.251 . S
O10 Mg3 2.079 . S
O10 C12 1.273 . S
C11 O7 1.246 . S
C11 O8 1.259 . S
C12 O9 1.252 . S
C12 O10 1.273 . S
O13 Mg0 2.010 . S
O13 C5 1.249 . S
Mg14 O15 2.028 . S
Mg14 O21 1.986 . S
Mg14 O23 2.114 . S
Mg14 O24 2.251 . S
Mg14 O27 2.010 . S
O15 Mg14 2.028 . S
O15 C18 1.250 . S
O16 Mg17 2.028 . S
O16 C18 1.248 . S
Mg17 O16 2.028 . S
Mg17 O22 2.032 . S
Mg17 O24 2.079 . S
C18 O15 1.250 . S
C18 O16 1.248 . S
C19 O20 1.264 . S
C19 O27 1.249 . S
O20 C19 1.264 . S
O21 Mg14 1.986 . S
O21 C25 1.246 . S
O22 Mg17 2.032 . S
O22 C25 1.259 . S
O23 Mg14 2.114 . S
O23 C26 1.252 . S
O24 Mg14 2.251 . S
O24 Mg17 2.079 . S
O24 C26 1.273 . S
C25 O21 1.246 . S
C25 O22 1.259 . S
C26 O23 1.252 . S
C26 O24 1.273 . S
O27 Mg14 2.010 . S
O27 C19 1.249 . S
Mg28 O29 2.028 . S
Mg28 O35 1.986 1_655 S
Mg28 O37 2.114 . S
Mg28 O38 2.251 . S
Mg28 O41 2.010 . S
O29 Mg28 2.028 . S
O29 C32 1.250 . S
O30 Mg31 2.028 . S
O30 C32 1.248 . S
Mg31 O30 2.028 . S
Mg31 O36 2.032 1_655 S
Mg31 O38 2.079 . S
C32 O29 1.250 . S
C32 O30 1.248 . S
C33 O34 1.264 . S
C33 O41 1.249 . S
O34 C33 1.264 . S
O35 Mg28 1.986 1_455 S
O35 C39 1.246 . S
O36 Mg31 2.032 1_455 S
O36 C39 1.259 . S
O37 Mg28 2.114 . S
O37 C40 1.252 . S
O38 Mg28 2.251 . S
O38 Mg31 2.079 . S
O38 C40 1.273 . S
C39 O35 1.246 . S
C39 O36 1.259 . S
C40 O37 1.252 . S
C40 O38 1.273 . S
O41 Mg28 2.010 . S
O41 C33 1.249 . S
Mg42 O43 2.028 . S
Mg42 O49 1.986 . S
Mg42 O51 2.114 . S
Mg42 O52 2.251 . S
Mg42 O55 2.010 . S
O43 Mg42 2.028 . S
O43 C46 1.250 . S
O44 Mg45 2.028 . S
O44 C46 1.248 . S
Mg45 O44 2.028 . S
Mg45 O50 2.032 . S
Mg45 O52 2.079 . S
C46 O43 1.250 . S
C46 O44 1.248 . S
C47 O48 1.264 . S
C47 O55 1.249 . S
O48 C47 1.264 . S
O49 Mg42 1.986 . S
O49 C53 1.246 . S
O50 Mg45 2.032 . S
O50 C53 1.259 . S
O51 Mg42 2.114 . S
O51 C54 1.252 . S
O52 Mg42 2.251 . S
O52 Mg45 2.079 . S
O52 C54 1.273 . S
C53 O49 1.246 . S
C53 O50 1.259 . S
C54 O51 1.252 . S
C54 O52 1.273 . S
O55 Mg42 2.010 . S
O55 C47 1.249 . S
Mg56 O57 2.028 . S
Mg56 O63 1.986 . S
Mg56 O65 2.114 . S
Mg56 O66 2.251 . S
Mg56 O69 2.010 . S
O57 Mg56 2.028 . S
O57 C60 1.250 . S
O58 Mg59 2.028 . S
O58 C60 1.248 . S
Mg59 O58 2.028 . S
Mg59 O64 2.032 . S
Mg59 O66 2.079 . S
C60 O57 1.250 . S
C60 O58 1.248 . S
C61 O62 1.264 . S
C61 O69 1.249 . S
O62 C61 1.264 . S
O63 Mg56 1.986 . S
O63 C67 1.246 . S
O64 Mg59 2.032 . S
O64 C67 1.259 . S
O65 Mg56 2.114 . S
O65 C68 1.252 . S
O66 Mg56 2.251 . S
O66 Mg59 2.079 . S
O66 C68 1.273 . S
C67 O63 1.246 . S
C67 O64 1.259 . S
C68 O65 1.252 . S
C68 O66 1.273 . S
O69 Mg56 2.010 . S
O69 C61 1.249 . S
Mg70 O71 2.028 . S
Mg70 O77 1.986 . S
Mg70 O79 2.114 . S
Mg70 O80 2.251 . S
Mg70 O83 2.010 . S
O71 Mg70 2.028 . S
O71 C74 1.250 . S
O72 Mg73 2.028 . S
O72 C74 1.248 . S
Mg73 O72 2.028 . S
Mg73 O78 2.032 . S
Mg73 O80 2.079 . S
C74 O71 1.250 . S
C74 O72 1.248 . S
C75 O76 1.264 . S
C75 O83 1.249 . S
O76 C75 1.264 . S
O77 Mg70 1.986 . S
O77 C81 1.246 . S
O78 Mg73 2.032 . S
O78 C81 1.259 . S
O79 Mg70 2.114 . S
O79 C82 1.252 . S
O80 Mg70 2.251 . S
O80 Mg73 2.079 . S
O80 C82 1.273 . S
C81 O77 1.246 . S
C81 O78 1.259 . S
C82 O79 1.252 . S
C82 O80 1.273 . S
O83 Mg70 2.010 . S
O83 C75 1.249 . S
Mg84 O85 2.028 . S
Mg84 O91 1.986 1_655 S
Mg84 O93 2.114 . S
Mg84 O94 2.251 . S
Mg84 O97 2.010 . S
O85 Mg84 2.028 . S
O85 C88 1.250 . S
O86 Mg87 2.028 . S
O86 C88 1.248 . S
Mg87 O86 2.028 . S
Mg87 O92 2.032 1_655 S
Mg87 O94 2.079 . S
C88 O85 1.250 . S
C88 O86 1.248 . S
C89 O90 1.264 . S
C89 O97 1.249 . S
O90 C89 1.264 . S
O91 Mg84 1.986 1_455 S
O91 C95 1.246 . S
O92 Mg87 2.032 1_455 S
O92 C95 1.259 . S
O93 Mg84 2.114 . S
O93 C96 1.252 . S
O94 Mg84 2.251 . S
O94 Mg87 2.079 . S
O94 C96 1.273 . S
C95 O91 1.246 . S
C95 O92 1.259 . S
C96 O93 1.252 . S
C96 O94 1.273 . S
O97 Mg84 2.010 . S
O97 C89 1.249 . S
Mg98 O99 2.028 . S
Mg98 O105 1.986 . S
Mg98 O107 2.114 . S
Mg98 O108 2.251 . S
Mg98 O111 2.010 . S
O99 Mg98 2.028 . S
O99 C102 1.250 . S
O100 Mg101 2.028 . S
O100 C102 1.248 . S
Mg101 O100 2.028 . S
Mg101 O106 2.032 . S
Mg101 O108 2.079 . S
C102 O99 1.250 . S
C102 O100 1.248 . S
C103 O104 1.264 . S
C103 O111 1.249 . S
O104 C103 1.264 . S
O105 Mg98 1.986 . S
O105 C109 1.246 . S
O106 Mg101 2.032 . S
O106 C109 1.259 . S
O107 Mg98 2.114 . S
O107 C110 1.252 . S
O108 Mg98 2.251 . S
O108 Mg101 2.079 . S
O108 C110 1.273 . S
C109 O105 1.246 . S
C109 O106 1.259 . S
C110 O107 1.252 . S
C110 O108 1.273 . S
O111 Mg98 2.010 . S
O111 C103 1.249 . S
Mg112 O113 2.028 . S
Mg112 O119 1.986 . S
Mg112 O121 2.114 . S
Mg112 O122 2.251 . S
Mg112 O125 2.010 . S
O113 Mg112 2.028 . S
O113 C116 1.250 . S
O114 Mg115 2.028 . S
O114 C116 1.248 . S
Mg115 O114 2.028 . S
Mg115 O120 2.032 . S
Mg115 O122 2.079 . S
C116 O113 1.250 . S
C116 O114 1.248 . S
C117 O118 1.264 . S
C117 O125 1.249 . S
O118 C117 1.264 . S
O119 Mg112 1.986 . S
O119 C123 1.246 . S
O120 Mg115 2.032 . S
O120 C123 1.259 . S
O121 Mg112 2.114 . S
O121 C124 1.252 . S
O122 Mg112 2.251 . S
O122 Mg115 2.079 . S
O122 C124 1.273 . S
C123 O119 1.246 . S
C123 O120 1.259 . S
C124 O121 1.252 . S
C124 O122 1.273 . S
O125 Mg112 2.010 . S
O125 C117 1.249 . S
Mg126 O127 2.028 . S
Mg126 O133 1.986 . S
Mg126 O135 2.114 . S
Mg126 O136 2.251 . S
Mg126 O139 2.010 . S
O127 Mg126 2.028 . S
O127 C130 1.250 . S
O128 Mg129 2.028 . S
O128 C130 1.248 . S
Mg129 O128 2.028 . S
Mg129 O134 2.032 . S
Mg129 O136 2.079 . S
C130 O127 1.250 . S
C130 O128 1.248 . S
C131 O132 1.264 . S
C131 O139 1.249 . S
O132 C131 1.264 . S
O133 Mg126 1.986 . S
O133 C137 1.246 . S
O134 Mg129 2.032 . S
O134 C137 1.259 . S
O135 Mg126 2.114 . S
O135 C138 1.252 . S
O136 Mg126 2.251 . S
O136 Mg129 2.079 . S
O136 C138 1.273 . S
C137 O133 1.246 . S
C137 O134 1.259 . S
C138 O135 1.252 . S
C138 O136 1.273 . S
O139 Mg126 2.010 . S
O139 C131 1.249 . S
Mg140 O141 2.028 . S
Mg140 O147 1.986 . S
Mg140 O149 2.114 . S
Mg140 O150 2.251 . S
Mg140 O153 2.010 1_455 S
O141 Mg140 2.028 . S
O141 C144 1.250 . S
O142 Mg143 2.028 . S
O142 C144 1.248 . S
Mg143 O142 2.028 . S
Mg143 O148 2.032 . S
Mg143 O150 2.079 . S
C144 O141 1.250 . S
C144 O142 1.248 . S
C145 O146 1.264 . S
C145 O153 1.249 . S
O146 C145 1.264 . S
O147 Mg140 1.986 . S
O147 C151 1.246 . S
O148 Mg143 2.032 . S
O148 C151 1.259 . S
O149 Mg140 2.114 . S
O149 C152 1.252 . S
O150 Mg140 2.251 . S
O150 Mg143 2.079 . S
O150 C152 1.273 . S
C151 O147 1.246 . S
C151 O148 1.259 . S
C152 O149 1.252 . S
C152 O150 1.273 . S
O153 Mg140 2.010 1_655 S
O153 C145 1.249 . S
Mg154 O155 2.028 . S
Mg154 O161 1.986 1_545 S
Mg154 O163 2.114 . S
Mg154 O164 2.251 . S
Mg154 O167 2.010 . S
O155 Mg154 2.028 . S
O155 C158 1.250 . S
O156 Mg157 2.028 . S
O156 C158 1.248 . S
Mg157 O156 2.028 . S
Mg157 O162 2.020 1_545 S
Mg157 O164 2.079 . S
C158 O155 1.250 . S
C158 O156 1.248 . S
C159 O160 1.264 . S
C159 O167 1.249 . S
O160 C159 1.264 . S
O161 Mg154 1.986 1_565 S
O161 C165 1.246 . S
O162 Mg157 2.020 1_565 S
O162 C165 1.266 . S
O163 Mg154 2.114 . S
O163 C166 1.252 . S
O164 Mg154 2.251 . S
O164 Mg157 2.079 . S
O164 C166 1.273 . S
C165 O161 1.246 . S
C165 O162 1.266 . S
C166 O163 1.252 . S
C166 O164 1.273 . S
O167 Mg154 2.010 . S
O167 C159 1.249 . S
Mg168 O169 2.028 . S
Mg168 O175 1.986 . S
Mg168 O177 2.114 . S
Mg168 O178 2.251 . S
Mg168 O181 2.010 . S
O169 Mg168 2.028 . S
O169 C172 1.250 . S
O170 Mg171 2.028 . S
O170 C172 1.248 . S
Mg171 O170 2.028 . S
Mg171 O176 2.032 . S
Mg171 O178 2.079 . S
C172 O169 1.250 . S
C172 O170 1.248 . S
C173 O174 1.264 . S
C173 O181 1.249 . S
O174 C173 1.264 . S
O175 Mg168 1.986 . S
O175 C179 1.246 . S
O176 Mg171 2.032 . S
O176 C179 1.259 . S
O177 Mg168 2.114 . S
O177 C180 1.252 . S
O178 Mg168 2.251 . S
O178 Mg171 2.079 . S
O178 C180 1.273 . S
C179 O175 1.246 . S
C179 O176 1.259 . S
C180 O177 1.252 . S
C180 O178 1.273 . S
O181 Mg168 2.010 . S
O181 C173 1.249 . S
Mg182 O183 2.028 . S
Mg182 O189 1.986 . S
Mg182 O191 2.114 . S
Mg182 O192 2.251 . S
Mg182 O195 2.010 . S
O183 Mg182 2.028 . S
O183 C186 1.250 . S
O184 Mg185 2.028 . S
O184 C186 1.248 . S
Mg185 O184 2.028 . S
Mg185 O190 2.032 . S
Mg185 O192 2.079 . S
C186 O183 1.250 . S
C186 O184 1.248 . S
C187 O188 1.264 . S
C187 O195 1.249 . S
O188 C187 1.264 . S
O189 Mg182 1.986 . S
O189 C193 1.246 . S
O190 Mg185 2.032 . S
O190 C193 1.259 . S
O191 Mg182 2.114 . S
O191 C194 1.252 . S
O192 Mg182 2.251 . S
O192 Mg185 2.079 . S
O192 C194 1.273 . S
C193 O189 1.246 . S
C193 O190 1.259 . S
C194 O191 1.252 . S
C194 O192 1.273 . S
O195 Mg182 2.010 . S
O195 C187 1.249 . S
Mg196 O197 2.028 . S
Mg196 O203 1.986 . S
Mg196 O205 2.114 . S
Mg196 O206 2.251 . S
Mg196 O209 2.010 1_455 S
O197 Mg196 2.028 . S
O197 C200 1.250 . S
O198 Mg199 2.028 . S
O198 C200 1.248 . S
Mg199 O198 2.028 . S
Mg199 O204 2.032 . S
Mg199 O206 2.079 . S
C200 O197 1.250 . S
C200 O198 1.248 . S
C201 O202 1.264 . S
C201 O209 1.249 . S
O202 C201 1.264 . S
O203 Mg196 1.986 . S
O203 C207 1.246 . S
O204 Mg199 2.032 . S
O204 C207 1.259 . S
O205 Mg196 2.114 . S
O205 C208 1.252 . S
O206 Mg196 2.251 . S
O206 Mg199 2.079 . S
O206 C208 1.273 . S
C207 O203 1.246 . S
C207 O204 1.259 . S
C208 O205 1.252 . S
C208 O206 1.273 . S
O209 Mg196 2.010 1_655 S
O209 C201 1.249 . S
Mg210 O211 2.028 . S
Mg210 O217 1.986 1_545 S
Mg210 O219 2.114 . S
Mg210 O220 2.251 . S
Mg210 O223 2.010 . S
O211 Mg210 2.028 . S
O211 C214 1.250 . S
O212 Mg213 2.028 . S
O212 C214 1.248 . S
Mg213 O212 2.028 . S
Mg213 O218 2.020 1_545 S
Mg213 O220 2.079 . S
C214 O211 1.250 . S
C214 O212 1.248 . S
C215 O216 1.264 . S
C215 O223 1.249 . S
O216 C215 1.264 . S
O217 Mg210 1.986 1_565 S
O217 C221 1.246 . S
O218 Mg213 2.020 1_565 S
O218 C221 1.266 . S
O219 Mg210 2.114 . S
O219 C222 1.252 . S
O220 Mg210 2.251 . S
O220 Mg213 2.079 . S
O220 C222 1.273 . S
C221 O217 1.246 . S
C221 O218 1.266 . S
C222 O219 1.252 . S
C222 O220 1.273 . S
O223 Mg210 2.010 . S
O223 C215 1.249 . S
H224 C230 0.930 . S
H225 C234 0.930 . S
H226 C239 0.929 . S
H227 C237 0.929 . S
H228 C232 0.929 . S
H229 C238 0.929 . S
C230 H224 0.930 . S
C230 C231 1.367 . S
C230 C238 1.378 . S
C231 C230 1.367 . S
C231 C239 1.433 . S
C232 H228 0.929 . S
C232 C234 1.378 . S
C232 C236 1.350 . S
C233 C236 1.463 . S
C233 C238 1.350 . S
C233 N241 1.427 . S
C234 H225 0.930 . S
C234 C232 1.378 . S
C234 C235 1.367 . S
C235 C234 1.367 . S
C235 C237 1.433 . S
C236 C232 1.350 . S
C236 C233 1.463 . S
C236 N240 1.427 . S
C237 H227 0.929 . S
C237 C235 1.433 . S
C237 N240 1.384 . S
C238 H229 0.929 . S
C238 C230 1.378 . S
C238 C233 1.350 . S
C239 H226 0.929 . S
C239 C231 1.433 . S
C239 N241 1.384 . S
N240 C236 1.427 . S
N240 C237 1.384 . S
N241 C233 1.427 . S
N241 C239 1.384 . S
H242 C248 0.930 . S
H243 C252 0.930 . S
H244 C257 0.929 . S
H245 C255 0.929 . S
H246 C250 0.929 . S
H247 C256 0.929 . S
C248 H242 0.930 . S
C248 C249 1.367 . S
C248 C256 1.378 . S
C249 C248 1.367 . S
C249 C257 1.433 . S
C250 H246 0.929 . S
C250 C252 1.378 . S
C250 C254 1.350 . S
C251 C254 1.463 . S
C251 C256 1.350 . S
C251 N259 1.427 . S
C252 H243 0.930 . S
C252 C250 1.378 . S
C252 C253 1.367 . S
C253 C252 1.367 . S
C253 C255 1.433 . S
C254 C250 1.350 . S
C254 C251 1.463 . S
C254 N258 1.427 . S
C255 H245 0.929 . S
C255 C253 1.433 . S
C255 N258 1.384 . S
C256 H247 0.929 . S
C256 C248 1.378 . S
C256 C251 1.350 . S
C257 H244 0.929 . S
C257 C249 1.433 . S
C257 N259 1.384 . S
N258 C254 1.427 . S
N258 C255 1.384 . S
N259 C251 1.427 . S
N259 C257 1.384 . S
H260 C266 0.930 . S
H261 C270 0.930 . S
H262 C275 0.929 . S
H263 C273 0.929 . S
H264 C268 0.929 . S
H265 C274 0.929 . S
C266 H260 0.930 . S
C266 C267 1.367 . S
C266 C274 1.378 . S
C267 C266 1.367 . S
C267 C275 1.433 . S
C268 H264 0.929 . S
C268 C270 1.378 . S
C268 C272 1.350 . S
C269 C272 1.463 . S
C269 C274 1.350 . S
C269 N277 1.427 . S
C270 H261 0.930 . S
C270 C268 1.378 . S
C270 C271 1.367 . S
C271 C270 1.367 . S
C271 C273 1.433 . S
C272 C268 1.350 . S
C272 C269 1.463 . S
C272 N276 1.427 . S
C273 H263 0.929 . S
C273 C271 1.433 . S
C273 N276 1.384 . S
C274 H265 0.929 . S
C274 C266 1.378 . S
C274 C269 1.350 . S
C275 H262 0.929 . S
C275 C267 1.433 . S
C275 N277 1.384 . S
N276 C272 1.427 . S
N276 C273 1.384 . S
N277 C269 1.427 . S
N277 C275 1.384 . S
H278 C284 0.930 . S
H279 C288 0.930 . S
H280 C293 0.929 . S
H281 C291 0.929 . S
H282 C286 0.929 . S
H283 C292 0.929 . S
C284 H278 0.930 . S
C284 C285 1.367 . S
C284 C292 1.378 . S
C285 C284 1.367 . S
C285 C293 1.433 . S
C286 H282 0.929 . S
C286 C288 1.378 . S
C286 C290 1.350 . S
C287 C290 1.463 . S
C287 C292 1.350 . S
C287 N295 1.427 . S
C288 H279 0.930 . S
C288 C286 1.378 . S
C288 C289 1.367 . S
C289 C288 1.367 . S
C289 C291 1.433 . S
C290 C286 1.350 . S
C290 C287 1.463 . S
C290 N294 1.427 . S
C291 H281 0.929 . S
C291 C289 1.433 . S
C291 N294 1.384 . S
C292 H283 0.929 . S
C292 C284 1.378 . S
C292 C287 1.350 . S
C293 H280 0.929 . S
C293 C285 1.433 . S
C293 N295 1.384 . S
N294 C290 1.427 . S
N294 C291 1.384 . S
N295 C287 1.427 . S
N295 C293 1.384 . S
H296 C302 0.930 . S
H297 C306 0.930 . S
H298 C311 0.929 . S
H299 C309 0.929 . S
H300 C304 0.929 . S
H301 C310 0.929 . S
C302 H296 0.930 . S
C302 C303 1.367 . S
C302 C310 1.378 . S
C303 C302 1.367 . S
C303 C311 1.433 . S
C304 H300 0.929 . S
C304 C306 1.378 . S
C304 C308 1.350 . S
C305 C308 1.463 . S
C305 C310 1.350 . S
C305 N313 1.427 . S
C306 H297 0.930 . S
C306 C304 1.378 . S
C306 C307 1.367 . S
C307 C306 1.367 . S
C307 C309 1.433 . S
C308 C304 1.350 . S
C308 C305 1.463 . S
C308 N312 1.427 . S
C309 H299 0.929 . S
C309 C307 1.433 . S
C309 N312 1.384 . S
C310 H301 0.929 . S
C310 C302 1.378 . S
C310 C305 1.350 . S
C311 H298 0.929 . S
C311 C303 1.433 . S
C311 N313 1.384 . S
N312 C308 1.427 . S
N312 C309 1.384 . S
N313 C305 1.427 . S
N313 C311 1.384 . S
H314 C320 0.930 . S
H315 C324 0.930 . S
H316 C329 0.929 . S
H317 C327 0.929 . S
H318 C322 0.929 . S
H319 C328 0.929 . S
C320 H314 0.930 . S
C320 C321 1.367 . S
C320 C328 1.378 . S
C321 C320 1.367 . S
C321 C329 1.433 . S
C322 H318 0.929 . S
C322 C324 1.378 . S
C322 C326 1.350 . S
C323 C326 1.463 . S
C323 C328 1.350 . S
C323 N331 1.427 . S
C324 H315 0.930 . S
C324 C322 1.378 . S
C324 C325 1.367 . S
C325 C324 1.367 . S
C325 C327 1.433 . S
C326 C322 1.350 . S
C326 C323 1.463 . S
C326 N330 1.427 . S
C327 H317 0.929 . S
C327 C325 1.433 . S
C327 N330 1.384 . S
C328 H319 0.929 . S
C328 C320 1.378 . S
C328 C323 1.350 . S
C329 H316 0.929 . S
C329 C321 1.433 . S
C329 N331 1.384 . S
N330 C326 1.427 . S
N330 C327 1.384 . S
N331 C323 1.427 . S
N331 C329 1.384 . S
H332 C338 0.930 . S
H333 C342 0.930 . S
H334 C347 0.929 . S
H335 C345 0.929 . S
H336 C340 0.929 . S
H337 C346 0.929 . S
C338 H332 0.930 . S
C338 C339 1.367 . S
C338 C346 1.378 . S
C339 C338 1.367 . S
C339 C347 1.433 . S
C340 H336 0.929 . S
C340 C342 1.378 . S
C340 C344 1.350 . S
C341 C344 1.463 . S
C341 C346 1.350 . S
C341 N349 1.427 . S
C342 H333 0.930 . S
C342 C340 1.378 . S
C342 C343 1.367 . S
C343 C342 1.367 . S
C343 C345 1.433 . S
C344 C340 1.350 . S
C344 C341 1.463 . S
C344 N348 1.427 . S
C345 H335 0.929 . S
C345 C343 1.433 . S
C345 N348 1.384 . S
C346 H337 0.929 . S
C346 C338 1.378 . S
C346 C341 1.350 . S
C347 H334 0.929 . S
C347 C339 1.433 . S
C347 N349 1.384 . S
N348 C344 1.427 . S
N348 C345 1.384 . S
N349 C341 1.427 . S
N349 C347 1.384 . S
H350 C356 0.930 . S
H351 C360 0.930 . S
H352 C365 0.929 . S
H353 C363 0.929 . S
H354 C358 0.929 . S
H355 C364 0.929 . S
C356 H350 0.930 . S
C356 C357 1.367 . S
C356 C364 1.378 . S
C357 C356 1.367 . S
C357 C365 1.433 . S
C358 H354 0.929 . S
C358 C360 1.378 . S
C358 C362 1.350 . S
C359 C362 1.463 . S
C359 C364 1.350 . S
C359 N367 1.427 . S
C360 H351 0.930 . S
C360 C358 1.378 . S
C360 C361 1.367 . S
C361 C360 1.367 . S
C361 C363 1.433 . S
C362 C358 1.350 . S
C362 C359 1.463 . S
C362 N366 1.427 . S
C363 H353 0.929 . S
C363 C361 1.433 . S
C363 N366 1.384 . S
C364 H355 0.929 . S
C364 C356 1.378 . S
C364 C359 1.350 . S
C365 H352 0.929 . S
C365 C357 1.433 . S
C365 N367 1.384 . S
N366 C362 1.427 . S
N366 C363 1.384 . S
N367 C359 1.427 . S
N367 C365 1.384 . S
H368 C374 0.930 . S
H369 C378 0.930 . S
H370 C383 0.929 . S
H371 C381 0.929 . S
H372 C376 0.929 . S
H373 C382 0.929 . S
C374 H368 0.930 . S
C374 C375 1.367 . S
C374 C382 1.378 . S
C375 C374 1.367 . S
C375 C383 1.433 . S
C376 H372 0.929 . S
C376 C378 1.378 . S
C376 C380 1.350 . S
C377 C380 1.463 . S
C377 C382 1.350 . S
C377 N385 1.427 . S
C378 H369 0.930 . S
C378 C376 1.378 . S
C378 C379 1.367 . S
C379 C378 1.367 . S
C379 C381 1.433 . S
C380 C376 1.350 . S
C380 C377 1.463 . S
C380 N384 1.427 . S
C381 H371 0.929 . S
C381 C379 1.433 . S
C381 N384 1.384 . S
C382 H373 0.929 . S
C382 C374 1.378 . S
C382 C377 1.350 . S
C383 H370 0.929 . S
C383 C375 1.433 . S
C383 N385 1.384 . S
N384 C380 1.427 . S
N384 C381 1.384 . S
N385 C377 1.427 . S
N385 C383 1.384 . S
H386 C392 0.930 . S
H387 C396 0.930 . S
H388 C401 0.929 . S
H389 C399 0.929 . S
H390 C394 0.929 . S
H391 C400 0.929 . S
C392 H386 0.930 . S
C392 C393 1.367 . S
C392 C400 1.378 . S
C393 C392 1.367 . S
C393 C401 1.433 . S
C394 H390 0.929 . S
C394 C396 1.378 . S
C394 C398 1.350 . S
C395 C398 1.463 . S
C395 C400 1.350 . S
C395 N403 1.427 . S
C396 H387 0.930 . S
C396 C394 1.378 . S
C396 C397 1.367 . S
C397 C396 1.367 . S
C397 C399 1.433 . S
C398 C394 1.350 . S
C398 C395 1.463 . S
C398 N402 1.427 . S
C399 H389 0.929 . S
C399 C397 1.433 . S
C399 N402 1.384 . S
C400 H391 0.929 . S
C400 C392 1.378 . S
C400 C395 1.350 . S
C401 H388 0.929 . S
C401 C393 1.433 . S
C401 N403 1.384 . S
N402 C398 1.427 . S
N402 C399 1.384 . S
N403 C395 1.427 . S
N403 C401 1.384 . S
H404 C410 0.930 . S
H405 C414 0.930 . S
H406 C419 0.929 . S
H407 C417 0.929 . S
H408 C412 0.929 . S
H409 C418 0.929 . S
C410 H404 0.930 . S
C410 C411 1.367 . S
C410 C418 1.378 . S
C411 C410 1.367 . S
C411 C419 1.433 . S
C412 H408 0.929 . S
C412 C414 1.378 . S
C412 C416 1.350 . S
C413 C416 1.463 . S
C413 C418 1.350 . S
C413 N421 1.427 . S
C414 H405 0.930 . S
C414 C412 1.378 . S
C414 C415 1.367 . S
C415 C414 1.367 . S
C415 C417 1.433 . S
C416 C412 1.350 . S
C416 C413 1.463 . S
C416 N420 1.427 . S
C417 H407 0.929 . S
C417 C415 1.433 . S
C417 N420 1.384 . S
C418 H409 0.929 . S
C418 C410 1.378 . S
C418 C413 1.350 . S
C419 H406 0.929 . S
C419 C411 1.433 . S
C419 N421 1.384 . S
N420 C416 1.427 . S
N420 C417 1.384 . S
N421 C413 1.427 . S
N421 C419 1.384 . S
H422 C428 0.930 . S
H423 C432 0.930 . S
H424 C437 0.929 . S
H425 C435 0.929 . S
H426 C430 0.929 . S
H427 C436 0.929 . S
C428 H422 0.930 . S
C428 C429 1.367 . S
C428 C436 1.378 . S
C429 C428 1.367 . S
C429 C437 1.433 . S
C430 H426 0.929 . S
C430 C432 1.378 . S
C430 C434 1.350 . S
C431 C434 1.463 . S
C431 C436 1.350 . S
C431 N439 1.427 . S
C432 H423 0.930 . S
C432 C430 1.378 . S
C432 C433 1.367 . S
C433 C432 1.367 . S
C433 C435 1.433 . S
C434 C430 1.350 . S
C434 C431 1.463 . S
C434 N438 1.427 . S
C435 H425 0.929 . S
C435 C433 1.433 . S
C435 N438 1.384 . S
C436 H427 0.929 . S
C436 C428 1.378 . S
C436 C431 1.350 . S
C437 H424 0.929 . S
C437 C429 1.433 . S
C437 N439 1.384 . S
N438 C434 1.427 . S
N438 C435 1.384 . S
N439 C431 1.427 . S
N439 C437 1.384 . S
H440 C446 0.930 . S
H441 C450 0.930 . S
H442 C455 0.929 . S
H443 C453 0.929 . S
H444 C448 0.929 . S
H445 C454 0.929 . S
C446 H440 0.930 . S
C446 C447 1.367 . S
C446 C454 1.378 . S
C447 C446 1.367 . S
C447 C455 1.433 . S
C448 H444 0.929 . S
C448 C450 1.378 . S
C448 C452 1.350 . S
C449 C452 1.463 . S
C449 C454 1.350 . S
C449 N457 1.427 . S
C450 H441 0.930 . S
C450 C448 1.378 . S
C450 C451 1.367 . S
C451 C450 1.367 . S
C451 C453 1.433 . S
C452 C448 1.350 . S
C452 C449 1.463 . S
C452 N456 1.427 . S
C453 H443 0.929 . S
C453 C451 1.433 . S
C453 N456 1.384 . S
C454 H445 0.929 . S
C454 C446 1.378 . S
C454 C449 1.350 . S
C455 H442 0.929 . S
C455 C447 1.433 . S
C455 N457 1.384 . S
N456 C452 1.427 . S
N456 C453 1.384 . S
N457 C449 1.427 . S
N457 C455 1.384 . S
H458 C464 0.930 . S
H459 C468 0.930 . S
H460 C473 0.929 . S
H461 C471 0.929 . S
H462 C466 0.929 . S
H463 C472 0.929 . S
C464 H458 0.930 . S
C464 C465 1.367 . S
C464 C472 1.378 . S
C465 C464 1.367 . S
C465 C473 1.433 . S
C466 H462 0.929 . S
C466 C468 1.378 . S
C466 C470 1.350 . S
C467 C470 1.463 . S
C467 C472 1.350 . S
C467 N475 1.427 . S
C468 H459 0.930 . S
C468 C466 1.378 . S
C468 C469 1.367 . S
C469 C468 1.367 . S
C469 C471 1.433 . S
C470 C466 1.350 . S
C470 C467 1.463 . S
C470 N474 1.427 . S
C471 H461 0.929 . S
C471 C469 1.433 . S
C471 N474 1.384 . S
C472 H463 0.929 . S
C472 C464 1.378 . S
C472 C467 1.350 . S
C473 H460 0.929 . S
C473 C465 1.433 . S
C473 N475 1.384 . S
N474 C470 1.427 . S
N474 C471 1.384 . S
N475 C467 1.427 . S
N475 C473 1.384 . S
H476 C482 0.930 . S
H477 C486 0.930 . S
H478 C491 0.929 . S
H479 C489 0.929 . S
H480 C484 0.929 . S
H481 C490 0.929 . S
C482 H476 0.930 . S
C482 C483 1.367 . S
C482 C490 1.378 . S
C483 C482 1.367 . S
C483 C491 1.433 . S
C484 H480 0.929 . S
C484 C486 1.378 . S
C484 C488 1.350 . S
C485 C488 1.463 . S
C485 C490 1.350 . S
C485 N493 1.427 . S
C486 H477 0.930 . S
C486 C484 1.378 . S
C486 C487 1.367 . S
C487 C486 1.367 . S
C487 C489 1.433 . S
C488 C484 1.350 . S
C488 C485 1.463 . S
C488 N492 1.427 . S
C489 H479 0.929 . S
C489 C487 1.433 . S
C489 N492 1.384 . S
C490 H481 0.929 . S
C490 C482 1.378 . S
C490 C485 1.350 . S
C491 H478 0.929 . S
C491 C483 1.433 . S
C491 N493 1.384 . S
N492 C488 1.427 . S
N492 C489 1.384 . S
N493 C485 1.427 . S
N493 C491 1.384 . S
H494 C500 0.930 . S
H495 C504 0.930 . S
H496 C509 0.929 . S
H497 C507 0.929 . S
H498 C502 0.929 . S
H499 C508 0.929 . S
C500 H494 0.930 . S
C500 C501 1.367 . S
C500 C508 1.378 . S
C501 C500 1.367 . S
C501 C509 1.433 . S
C502 H498 0.929 . S
C502 C504 1.378 . S
C502 C506 1.350 . S
C503 C506 1.463 . S
C503 C508 1.350 . S
C503 N511 1.427 . S
C504 H495 0.930 . S
C504 C502 1.378 . S
C504 C505 1.367 . S
C505 C504 1.367 . S
C505 C507 1.433 . S
C506 C502 1.350 . S
C506 C503 1.463 . S
C506 N510 1.427 . S
C507 H497 0.929 . S
C507 C505 1.433 . S
C507 N510 1.384 . S
C508 H499 0.929 . S
C508 C500 1.378 . S
C508 C503 1.350 . S
C509 H496 0.929 . S
C509 C501 1.433 . S
C509 N511 1.384 . S
N510 C506 1.427 . S
N510 C507 1.384 . S
N511 C503 1.427 . S
N511 C509 1.384 . S
H512 C518 0.930 . S
H513 C522 0.930 . S
H514 C527 0.929 . S
H515 C525 0.929 . S
H516 C520 0.929 . S
H517 C526 0.929 . S
C518 H512 0.930 . S
C518 C519 1.367 . S
C518 C526 1.378 . S
C519 C518 1.367 . S
C519 C527 1.433 . S
C520 H516 0.929 . S
C520 C522 1.378 . S
C520 C524 1.350 . S
C521 C524 1.463 . S
C521 C526 1.350 . S
C521 N529 1.427 . S
C522 H513 0.930 . S
C522 C520 1.378 . S
C522 C523 1.367 . S
C523 C522 1.367 . S
C523 C525 1.433 . S
C524 C520 1.350 . S
C524 C521 1.463 . S
C524 N528 1.427 . S
C525 H515 0.929 . S
C525 C523 1.433 . S
C525 N528 1.384 . S
C526 H517 0.929 . S
C526 C518 1.378 . S
C526 C521 1.350 . S
C527 H514 0.929 . S
C527 C519 1.433 . S
C527 N529 1.384 . S
N528 C524 1.427 . S
N528 C525 1.384 . S
N529 C521 1.427 . S
N529 C527 1.384 . S
H530 C536 0.930 . S
H531 C540 0.930 . S
H532 C545 0.929 . S
H533 C543 0.929 . S
H534 C538 0.929 . S
H535 C544 0.929 . S
C536 H530 0.930 . S
C536 C537 1.367 . S
C536 C544 1.378 . S
C537 C536 1.367 . S
C537 C545 1.433 . S
C538 H534 0.929 . S
C538 C540 1.378 . S
C538 C542 1.350 . S
C539 C542 1.463 . S
C539 C544 1.350 . S
C539 N547 1.427 . S
C540 H531 0.930 . S
C540 C538 1.378 . S
C540 C541 1.367 . S
C541 C540 1.367 . S
C541 C543 1.433 . S
C542 C538 1.350 . S
C542 C539 1.463 . S
C542 N546 1.427 . S
C543 H533 0.929 . S
C543 C541 1.433 . S
C543 N546 1.384 . S
C544 H535 0.929 . S
C544 C536 1.378 . S
C544 C539 1.350 . S
C545 H532 0.929 . S
C545 C537 1.433 . S
C545 N547 1.384 . S
N546 C542 1.427 . S
N546 C543 1.384 . S
N547 C539 1.427 . S
N547 C545 1.384 . S
H548 C554 0.930 . S
H549 C558 0.930 . S
H550 C563 0.929 . S
H551 C561 0.929 . S
H552 C556 0.929 . S
H553 C562 0.929 . S
C554 H548 0.930 . S
C554 C555 1.367 . S
C554 C562 1.378 . S
C555 C554 1.367 . S
C555 C563 1.433 . S
C556 H552 0.929 . S
C556 C558 1.378 . S
C556 C560 1.350 . S
C557 C560 1.463 . S
C557 C562 1.350 . S
C557 N565 1.427 . S
C558 H549 0.930 . S
C558 C556 1.378 . S
C558 C559 1.367 . S
C559 C558 1.367 . S
C559 C561 1.433 . S
C560 C556 1.350 . S
C560 C557 1.463 . S
C560 N564 1.427 . S
C561 H551 0.929 . S
C561 C559 1.433 . S
C561 N564 1.384 . S
C562 H553 0.929 . S
C562 C554 1.378 . S
C562 C557 1.350 . S
C563 H550 0.929 . S
C563 C555 1.433 . S
C563 N565 1.384 . S
N564 C560 1.427 . S
N564 C561 1.384 . S
N565 C557 1.427 . S
N565 C563 1.384 . S
H566 C572 0.930 . S
H567 C576 0.930 . S
H568 C581 0.929 . S
H569 C579 0.929 . S
H570 C574 0.929 . S
H571 C580 0.929 . S
C572 H566 0.930 . S
C572 C573 1.367 . S
C572 C580 1.378 . S
C573 C572 1.367 . S
C573 C581 1.433 . S
C574 H570 0.929 . S
C574 C576 1.378 . S
C574 C578 1.350 . S
C575 C578 1.463 . S
C575 C580 1.350 . S
C575 N583 1.427 . S
C576 H567 0.930 . S
C576 C574 1.378 . S
C576 C577 1.367 . S
C577 C576 1.367 . S
C577 C579 1.433 . S
C578 C574 1.350 . S
C578 C575 1.463 . S
C578 N582 1.427 . S
C579 H569 0.929 . S
C579 C577 1.433 . S
C579 N582 1.384 . S
C580 H571 0.929 . S
C580 C572 1.378 . S
C580 C575 1.350 . S
C581 H568 0.929 . S
C581 C573 1.433 . S
C581 N583 1.384 . S
N582 C578 1.427 . S
N582 C579 1.384 . S
N583 C575 1.427 . S
N583 C581 1.384 . S
H584 C590 0.930 . S
H585 C594 0.930 . S
H586 C599 0.929 . S
H587 C597 0.929 . S
H588 C592 0.929 . S
H589 C598 0.929 . S
C590 H584 0.930 . S
C590 C591 1.367 . S
C590 C598 1.378 . S
C591 C590 1.367 . S
C591 C599 1.433 . S
C592 H588 0.929 . S
C592 C594 1.378 . S
C592 C596 1.350 . S
C593 C596 1.463 . S
C593 C598 1.350 . S
C593 N601 1.427 . S
C594 H585 0.930 . S
C594 C592 1.378 . S
C594 C595 1.367 . S
C595 C594 1.367 . S
C595 C597 1.433 . S
C596 C592 1.350 . S
C596 C593 1.463 . S
C596 N600 1.427 . S
C597 H587 0.929 . S
C597 C595 1.433 . S
C597 N600 1.384 . S
C598 H589 0.929 . S
C598 C590 1.378 . S
C598 C593 1.350 . S
C599 H586 0.929 . S
C599 C591 1.433 . S
C599 N601 1.384 . S
N600 C596 1.427 . S
N600 C597 1.384 . S
N601 C593 1.427 . S
N601 C599 1.384 . S
H602 C608 0.930 . S
H603 C612 0.930 . S
H604 C617 0.929 . S
H605 C615 0.929 . S
H606 C610 0.929 . S
H607 C616 0.929 . S
C608 H602 0.930 . S
C608 C609 1.367 . S
C608 C616 1.378 . S
C609 C608 1.367 . S
C609 C617 1.433 . S
C610 H606 0.929 . S
C610 C612 1.378 . S
C610 C614 1.350 . S
C611 C614 1.463 . S
C611 C616 1.350 . S
C611 N619 1.427 . S
C612 H603 0.930 . S
C612 C610 1.378 . S
C612 C613 1.367 . S
C613 C612 1.367 . S
C613 C615 1.433 . S
C614 C610 1.350 . S
C614 C611 1.463 . S
C614 N618 1.427 . S
C615 H605 0.929 . S
C615 C613 1.433 . S
C615 N618 1.384 . S
C616 H607 0.929 . S
C616 C608 1.378 . S
C616 C611 1.350 . S
C617 H604 0.929 . S
C617 C609 1.433 . S
C617 N619 1.384 . S
N618 C614 1.427 . S
N618 C615 1.384 . S
N619 C611 1.427 . S
N619 C617 1.384 . S
H620 C626 0.930 . S
H621 C630 0.930 . S
H622 C635 0.929 . S
H623 C633 0.929 . S
H624 C628 0.929 . S
H625 C634 0.929 . S
C626 H620 0.930 . S
C626 C627 1.367 . S
C626 C634 1.378 . S
C627 C626 1.367 . S
C627 C635 1.433 . S
C628 H624 0.929 . S
C628 C630 1.378 . S
C628 C632 1.350 . S
C629 C632 1.463 . S
C629 C634 1.350 . S
C629 N637 1.427 . S
C630 H621 0.930 . S
C630 C628 1.378 . S
C630 C631 1.367 . S
C631 C630 1.367 . S
C631 C633 1.433 . S
C632 C628 1.350 . S
C632 C629 1.463 . S
C632 N636 1.427 . S
C633 H623 0.929 . S
C633 C631 1.433 . S
C633 N636 1.384 . S
C634 H625 0.929 . S
C634 C626 1.378 . S
C634 C629 1.350 . S
C635 H622 0.929 . S
C635 C627 1.433 . S
C635 N637 1.384 . S
N636 C632 1.427 . S
N636 C633 1.384 . S
N637 C629 1.427 . S
N637 C635 1.384 . S
H638 C644 0.930 . S
H639 C648 0.930 . S
H640 C653 0.929 . S
H641 C651 0.929 . S
H642 C646 0.929 . S
H643 C652 0.929 . S
C644 H638 0.930 . S
C644 C645 1.367 . S
C644 C652 1.378 . S
C645 C644 1.367 . S
C645 C653 1.433 . S
C646 H642 0.929 . S
C646 C648 1.378 . S
C646 C650 1.350 . S
C647 C650 1.463 . S
C647 C652 1.350 . S
C647 N655 1.427 . S
C648 H639 0.930 . S
C648 C646 1.378 . S
C648 C649 1.367 . S
C649 C648 1.367 . S
C649 C651 1.433 . S
C650 C646 1.350 . S
C650 C647 1.463 . S
C650 N654 1.427 . S
C651 H641 0.929 . S
C651 C649 1.433 . S
C651 N654 1.384 . S
C652 H643 0.929 . S
C652 C644 1.378 . S
C652 C647 1.350 . S
C653 H640 0.929 . S
C653 C645 1.433 . S
C653 N655 1.384 . S
N654 C650 1.427 . S
N654 C651 1.384 . S
N655 C647 1.427 . S
N655 C653 1.384 . S
H656 C662 0.930 . S
H657 C666 0.930 . S
H658 C671 0.929 . S
H659 C669 0.929 . S
H660 C664 0.929 . S
H661 C670 0.929 . S
C662 H656 0.930 . S
C662 C663 1.367 . S
C662 C670 1.378 . S
C663 C662 1.367 . S
C663 C671 1.433 . S
C664 H660 0.929 . S
C664 C666 1.378 . S
C664 C668 1.350 . S
C665 C668 1.463 1_554 S
C665 C670 1.350 . S
C665 N673 1.427 . S
C666 H657 0.930 . S
C666 C664 1.378 . S
C666 C667 1.367 . S
C667 C666 1.367 . S
C667 C669 1.433 . S
C668 C664 1.350 . S
C668 C665 1.463 1_556 S
C668 N672 1.427 . S
C669 H659 0.929 . S
C669 C667 1.433 . S
C669 N672 1.384 . S
C670 H661 0.929 . S
C670 C662 1.378 . S
C670 C665 1.350 . S
C671 H658 0.929 . S
C671 C663 1.433 . S
C671 N673 1.384 . S
N672 C668 1.427 . S
N672 C669 1.384 . S
N673 C665 1.427 . S
N673 C671 1.384 . S
H674 C680 0.930 . S
H675 C684 0.930 . S
H676 C689 0.929 . S
H677 C687 0.929 . S
H678 C682 0.929 . S
H679 C688 0.929 . S
C680 H674 0.930 . S
C680 C681 1.367 . S
C680 C688 1.378 . S
C681 C680 1.367 . S
C681 C689 1.433 . S
C682 H678 0.929 . S
C682 C684 1.378 . S
C682 C686 1.350 . S
C683 C686 1.463 . S
C683 C688 1.350 . S
C683 N691 1.427 . S
C684 H675 0.930 . S
C684 C682 1.378 . S
C684 C685 1.367 . S
C685 C684 1.367 . S
C685 C687 1.433 . S
C686 C682 1.350 . S
C686 C683 1.463 . S
C686 N690 1.427 . S
C687 H677 0.929 . S
C687 C685 1.433 . S
C687 N690 1.384 . S
C688 H679 0.929 . S
C688 C680 1.378 . S
C688 C683 1.350 . S
C689 H676 0.929 . S
C689 C681 1.433 . S
C689 N691 1.384 . S
N690 C686 1.427 . S
N690 C687 1.384 . S
N691 C683 1.427 . S
N691 C689 1.384 . S
H692 C698 0.930 . S
H693 C702 0.930 . S
H694 C707 0.929 . S
H695 C705 0.929 . S
H696 C700 0.929 . S
H697 C706 0.929 . S
C698 H692 0.930 . S
C698 C699 1.367 1_455 S
C698 C706 1.378 . S
C699 C698 1.367 1_655 S
C699 C707 1.433 . S
C700 H696 0.929 . S
C700 C702 1.378 . S
C700 C704 1.350 . S
C701 C704 1.463 1_554 S
C701 C706 1.350 1_655 S
C701 N709 1.427 . S
C702 H693 0.930 . S
C702 C700 1.378 . S
C702 C703 1.367 . S
C703 C702 1.367 . S
C703 C705 1.433 1_655 S
C704 C700 1.350 . S
C704 C701 1.463 1_556 S
C704 N708 1.427 1_655 S
C705 H695 0.929 . S
C705 C703 1.433 1_455 S
C705 N708 1.384 . S
C706 H697 0.929 . S
C706 C698 1.378 . S
C706 C701 1.350 1_455 S
C707 H694 0.929 . S
C707 C699 1.433 . S
C707 N709 1.384 . S
N708 C704 1.427 1_455 S
N708 C705 1.384 . S
N709 C701 1.427 . S
N709 C707 1.384 . S
H710 C716 0.930 . S
H711 C720 0.930 . S
H712 C725 0.929 . S
H713 C723 0.929 . S
H714 C718 0.929 . S
H715 C724 0.929 . S
C716 H710 0.930 . S
C716 C717 1.367 . S
C716 C724 1.378 . S
C717 C716 1.367 . S
C717 C725 1.433 . S
C718 H714 0.929 . S
C718 C720 1.378 . S
C718 C722 1.350 . S
C719 C722 1.463 . S
C719 C724 1.350 . S
C719 N727 1.427 . S
C720 H711 0.930 . S
C720 C718 1.378 . S
C720 C721 1.367 . S
C721 C720 1.367 . S
C721 C723 1.433 . S
C722 C718 1.350 . S
C722 C719 1.463 . S
C722 N726 1.427 . S
C723 H713 0.929 . S
C723 C721 1.433 . S
C723 N726 1.384 . S
C724 H715 0.929 . S
C724 C716 1.378 . S
C724 C719 1.350 . S
C725 H712 0.929 . S
C725 C717 1.433 . S
C725 N727 1.384 . S
N726 C722 1.427 . S
N726 C723 1.384 . S
N727 C719 1.427 . S
N727 C725 1.384 . S
H728 C734 0.930 . S
H729 C738 0.930 . S
H730 C743 0.929 . S
H731 C741 0.929 . S
H732 C736 0.929 . S
H733 C742 0.929 . S
C734 H728 0.930 . S
C734 C735 1.367 . S
C734 C742 1.378 . S
C735 C734 1.367 . S
C735 C743 1.433 . S
C736 H732 0.929 . S
C736 C738 1.378 . S
C736 C740 1.350 . S
C737 C740 1.463 1_556 S
C737 C742 1.350 . S
C737 N745 1.427 . S
C738 H729 0.930 . S
C738 C736 1.378 . S
C738 C739 1.367 . S
C739 C738 1.367 . S
C739 C741 1.433 . S
C740 C736 1.350 . S
C740 C737 1.463 1_554 S
C740 N744 1.427 . S
C741 H731 0.929 . S
C741 C739 1.433 . S
C741 N744 1.384 . S
C742 H733 0.929 . S
C742 C734 1.378 . S
C742 C737 1.350 . S
C743 H730 0.929 . S
C743 C735 1.433 . S
C743 N745 1.384 . S
N744 C740 1.427 . S
N744 C741 1.384 . S
N745 C737 1.427 . S
N745 C743 1.384 . S
H746 C752 0.930 . S
H747 C756 0.930 . S
H748 C761 0.929 . S
H749 C759 0.929 . S
H750 C754 0.929 . S
H751 C760 0.929 . S
C752 H746 0.930 . S
C752 C753 1.367 . S
C752 C760 1.378 . S
C753 C752 1.367 . S
C753 C761 1.433 . S
C754 H750 0.929 . S
C754 C756 1.378 . S
C754 C758 1.350 . S
C755 C758 1.463 . S
C755 C760 1.350 . S
C755 N763 1.427 . S
C756 H747 0.930 . S
C756 C754 1.378 . S
C756 C757 1.367 . S
C757 C756 1.367 . S
C757 C759 1.433 . S
C758 C754 1.350 . S
C758 C755 1.463 . S
C758 N762 1.427 . S
C759 H749 0.929 . S
C759 C757 1.433 . S
C759 N762 1.384 . S
C760 H751 0.929 . S
C760 C752 1.378 . S
C760 C755 1.350 . S
C761 H748 0.929 . S
C761 C753 1.433 . S
C761 N763 1.384 . S
N762 C758 1.427 . S
N762 C759 1.384 . S
N763 C755 1.427 . S
N763 C761 1.384 . S
H764 C770 0.930 . S
H765 C774 0.930 . S
H766 C779 0.929 . S
H767 C777 0.929 . S
H768 C772 0.929 . S
H769 C778 0.929 . S
C770 H764 0.930 . S
C770 C771 1.367 . S
C770 C778 1.378 . S
C771 C770 1.367 . S
C771 C779 1.433 . S
C772 H768 0.929 . S
C772 C774 1.378 . S
C772 C776 1.350 . S
C773 C776 1.463 1_554 S
C773 C778 1.350 . S
C773 N781 1.427 . S
C774 H765 0.930 . S
C774 C772 1.378 . S
C774 C775 1.367 . S
C775 C774 1.367 . S
C775 C777 1.433 . S
C776 C772 1.350 . S
C776 C773 1.463 1_556 S
C776 N780 1.427 . S
C777 H767 0.929 . S
C777 C775 1.433 . S
C777 N780 1.384 . S
C778 H769 0.929 . S
C778 C770 1.378 . S
C778 C773 1.350 . S
C779 H766 0.929 . S
C779 C771 1.433 . S
C779 N781 1.384 . S
N780 C776 1.427 . S
N780 C777 1.384 . S
N781 C773 1.427 . S
N781 C779 1.384 . S
H782 C788 0.930 . S
H783 C792 0.930 . S
H784 C797 0.929 . S
H785 C795 0.929 . S
H786 C790 0.929 . S
H787 C796 0.929 . S
C788 H782 0.930 . S
C788 C789 1.367 . S
C788 C796 1.378 . S
C789 C788 1.367 . S
C789 C797 1.433 . S
C790 H786 0.929 . S
C790 C792 1.378 . S
C790 C794 1.350 . S
C791 C794 1.463 . S
C791 C796 1.350 . S
C791 N799 1.427 . S
C792 H783 0.930 . S
C792 C790 1.378 . S
C792 C793 1.367 . S
C793 C792 1.367 . S
C793 C795 1.433 . S
C794 C790 1.350 . S
C794 C791 1.463 . S
C794 N798 1.427 . S
C795 H785 0.929 . S
C795 C793 1.433 . S
C795 N798 1.384 . S
C796 H787 0.929 . S
C796 C788 1.378 . S
C796 C791 1.350 . S
C797 H784 0.929 . S
C797 C789 1.433 . S
C797 N799 1.384 . S
N798 C794 1.427 . S
N798 C795 1.384 . S
N799 C791 1.427 . S
N799 C797 1.384 . S
C231 C11 1.183 . S
C235 C109 1.179 1_545 S
C249 C25 1.178 . S
C253 C67 1.183 . S
C267 C39 1.167 . S
C271 C81 1.180 . S
C285 C53 1.180 1_545 S
C289 C95 1.183 . S
C303 C117 1.080 . S
C307 C221 1.162 . S
C321 C173 1.107 . S
C325 C137 1.167 . S
C339 C145 1.090 . S
C343 C193 1.159 . S
C357 C165 1.173 . S
C361 C201 1.101 . S
C375 C4 1.182 . S
C379 C138 1.237 . S
C393 C18 1.307 . S
C397 C144 1.359 . S
C411 C166 1.240 . S
C415 C32 1.184 . S
C429 C46 1.322 . S
C433 C116 1.354 . S
C447 C60 1.165 . S
C451 C222 1.237 . S
C465 C172 1.354 . S
C469 C74 1.316 . S
C483 C194 1.236 . S
C487 C88 1.166 . S
C501 C200 1.361 . S
C505 C102 1.304 . S
C519 C26 1.141 . S
C523 C124 1.120 . S
C537 C40 1.215 . S
C541 C130 1.164 . S
C555 C152 1.124 . S
C559 C54 1.139 . S
C573 C12 1.216 . S
C577 C158 1.178 . S
C591 C180 1.125 . S
C595 C110 1.139 . S
C609 C186 1.179 . S
C613 C68 1.220 . S
C627 C82 1.140 . S
C631 C208 1.113 . S
C645 C96 1.215 . S
C649 C214 1.163 . S
C663 C5 1.285 . S
C667 C61 1.285 . S
C681 C75 1.306 . S
C685 C19 1.304 . S
C699 C33 1.269 . S
C703 C89 1.269 . S
C717 C103 1.329 . S
C721 C47 1.330 . S
C735 C123 1.535 . S
C739 C179 1.539 . S
C753 C187 1.338 . S
C757 C131 1.337 . S
C771 C207 1.539 . S
C775 C151 1.535 . S
C789 C215 1.346 . S
C793 C159 1.346 . S
