# Generated by pormake.
# Topology wjw, (5)-cn, num edge types: 1
# Building blocks:
#     Node 0, Type 0, BuildingBlock: XOMCOT_clean_sbu_0, # of connection points: 5
#     Node 1, Type 0, BuildingBlock: XOMCOT_clean_sbu_0, # of connection points: 5
#     Node 2, Type 0, BuildingBlock: XOMCOT_clean_sbu_0, # of connection points: 5
#     Node 3, Type 0, BuildingBlock: XOMCOT_clean_sbu_0, # of connection points: 5
#     Node 4, Type 0, BuildingBlock: XOMCOT_clean_sbu_0, # of connection points: 5
#     Node 5, Type 0, BuildingBlock: XOMCOT_clean_sbu_0, # of connection points: 5
#     Node 6, Type 0, BuildingBlock: XOMCOT_clean_sbu_0, # of connection points: 5
#     Node 7, Type 0, BuildingBlock: XOMCOT_clean_sbu_0, # of connection points: 5
#     Node 8, Type 0, BuildingBlock: XOMCOT_clean_sbu_0, # of connection points: 5
#     Node 9, Type 0, BuildingBlock: XOMCOT_clean_sbu_0, # of connection points: 5
#     Node 10, Type 0, BuildingBlock: XOMCOT_clean_sbu_0, # of connection points: 5
#     Node 11, Type 0, BuildingBlock: XOMCOT_clean_sbu_0, # of connection points: 5
#     Edge 12, Type (0, 0), BuildingBlock: TEMPAE_clean_linker_10, # of connection points: 2
#     Edge 13, Type (0, 0), BuildingBlock: TEMPAE_clean_linker_10, # of connection points: 2
#     Edge 14, Type (0, 0), BuildingBlock: TEMPAE_clean_linker_10, # of connection points: 2
#     Edge 15, Type (0, 0), BuildingBlock: TEMPAE_clean_linker_10, # of connection points: 2
#     Edge 16, Type (0, 0), BuildingBlock: TEMPAE_clean_linker_10, # of connection points: 2
#     Edge 17, Type (0, 0), BuildingBlock: TEMPAE_clean_linker_10, # of connection points: 2
#     Edge 18, Type (0, 0), BuildingBlock: TEMPAE_clean_linker_10, # of connection points: 2
#     Edge 19, Type (0, 0), BuildingBlock: TEMPAE_clean_linker_10, # of connection points: 2
#     Edge 20, Type (0, 0), BuildingBlock: TEMPAE_clean_linker_10, # of connection points: 2
#     Edge 21, Type (0, 0), BuildingBlock: TEMPAE_clean_linker_10, # of connection points: 2
#     Edge 22, Type (0, 0), BuildingBlock: TEMPAE_clean_linker_10, # of connection points: 2
#     Edge 23, Type (0, 0), BuildingBlock: TEMPAE_clean_linker_10, # of connection points: 2
#     Edge 24, Type (0, 0), BuildingBlock: TEMPAE_clean_linker_10, # of connection points: 2
#     Edge 25, Type (0, 0), BuildingBlock: TEMPAE_clean_linker_10, # of connection points: 2
#     Edge 26, Type (0, 0), BuildingBlock: TEMPAE_clean_linker_10, # of connection points: 2
#     Edge 27, Type (0, 0), BuildingBlock: TEMPAE_clean_linker_10, # of connection points: 2
#     Edge 28, Type (0, 0), BuildingBlock: TEMPAE_clean_linker_10, # of connection points: 2
#     Edge 29, Type (0, 0), BuildingBlock: TEMPAE_clean_linker_10, # of connection points: 2
#     Edge 30, Type (0, 0), BuildingBlock: TEMPAE_clean_linker_10, # of connection points: 2
#     Edge 31, Type (0, 0), BuildingBlock: TEMPAE_clean_linker_10, # of connection points: 2
#     Edge 32, Type (0, 0), BuildingBlock: TEMPAE_clean_linker_10, # of connection points: 2
#     Edge 33, Type (0, 0), BuildingBlock: TEMPAE_clean_linker_10, # of connection points: 2
#     Edge 34, Type (0, 0), BuildingBlock: TEMPAE_clean_linker_10, # of connection points: 2
#     Edge 35, Type (0, 0), BuildingBlock: TEMPAE_clean_linker_10, # of connection points: 2
#     Edge 36, Type (0, 0), BuildingBlock: TEMPAE_clean_linker_10, # of connection points: 2
#     Edge 37, Type (0, 0), BuildingBlock: TEMPAE_clean_linker_10, # of connection points: 2
#     Edge 38, Type (0, 0), BuildingBlock: TEMPAE_clean_linker_10, # of connection points: 2
#     Edge 39, Type (0, 0), BuildingBlock: TEMPAE_clean_linker_10, # of connection points: 2
#     Edge 40, Type (0, 0), BuildingBlock: TEMPAE_clean_linker_10, # of connection points: 2
#     Edge 41, Type (0, 0), BuildingBlock: TEMPAE_clean_linker_10, # of connection points: 2
# Relax obj value: 0.220
# Max RMSD: 0.191
# Mean RMSD: 0.187
data_MOF--net-wjw--node1-XOMCOT_clean_sbu_0--edge1-TEMPAE_clean_linker_10
_symmetry_space_group_name_H-M    P1
_symmetry_Int_Tables_number       1
_symmetry_cell_setting            triclinic
loop_
_symmetry_equiv_pos_as_xyz
'x, y, z'
_cell_length_a     40.78131
_cell_length_b     40.712942
_cell_length_c     37.477445
_cell_angle_alpha  89.999569
_cell_angle_beta   90.010229
_cell_angle_gamma 119.99528
loop_
_atom_site_label
_atom_site_type_symbol
_atom_site_fract_x
_atom_site_fract_y
_atom_site_fract_z
_atom_type_partial_charge
Co0 Co 0.15119 0.39413 0.2939 0.0
C1 C 0.10301 0.42944 0.30079 0.0
C2 C 0.08895 0.38517 0.3392 0.0
C3 C 0.06491 0.39932 0.34391 0.0
N4 N 0.11292 0.4042 0.31238 0.0
N5 N 0.07374 0.42718 0.31981 0.0
H6 H 0.11712 0.44914 0.27913 0.0
H7 H 0.08864 0.36218 0.35396 0.0
C8 C 0.19408 0.39539 0.35861 0.0
O9 O 0.2253 0.41605 0.34029 0.0
N10 N 0.18857 0.38182 0.27561 0.0
C11 C 0.2121 0.39576 0.24729 0.0
C12 C 0.23343 0.37816 0.24528 0.0
C13 C 0.19451 0.35435 0.28891 0.0
N14 N 0.22245 0.35228 0.27163 0.0
C15 C 0.20539 0.46912 0.26871 0.0
C16 C 0.22265 0.50357 0.3349 0.0
C17 C 0.24416 0.52419 0.30534 0.0
C18 C 0.23414 0.50694 0.27165 0.0
C19 C 0.19412 0.4659 0.33063 0.0
N20 N 0.18815 0.4481 0.29836 0.0
H21 H 0.19676 0.45697 0.24251 0.0
H22 H 0.17738 0.45082 0.35361 0.0
H23 H 0.21354 0.41648 0.22859 0.0
H24 H 0.17943 0.33696 0.31164 0.0
O25 O 0.13373 0.39407 0.24623 0.0
O26 O 0.11197 0.34355 0.28139 0.0
O27 O 0.16177 0.38382 0.34404 0.0
C28 C 0.11013 0.3581 0.251 0.0
H29 H 0.04214 0.38926 0.36318 0.0
H30 H 0.25515 0.38376 0.22572 0.0
H31 H 0.2285 0.51592 0.36136 0.0
H32 H 0.24842 0.5225 0.24776 0.0
Co33 Co 0.7563 0.14842 0.63601 0.0
C34 C 0.67288 0.10025 0.64066 0.0
C35 C 0.70146 0.08765 0.68194 0.0
C36 C 0.66317 0.06341 0.68539 0.0
N37 N 0.70747 0.11077 0.65405 0.0
N38 N 0.64513 0.07115 0.65933 0.0
H39 H 0.66833 0.1131 0.61731 0.0
H40 H 0.72342 0.08803 0.69841 0.0
C41 C 0.79991 0.18925 0.70075 0.0
O42 O 0.81239 0.22105 0.68282 0.0
N43 N 0.80636 0.18512 0.61796 0.0
C44 C 0.81666 0.21048 0.59107 0.0
C45 C 0.85558 0.23148 0.58965 0.0
C46 C 0.83933 0.18952 0.63073 0.0
N47 N 0.86974 0.21847 0.61489 0.0
C48 C 0.73759 0.20452 0.61227 0.0
C49 C 0.72155 0.22175 0.679 0.0
C50 C 0.72312 0.24388 0.64979 0.0
C51 C 0.73005 0.23425 0.61588 0.0
C52 C 0.73 0.19276 0.6742 0.0
N53 N 0.74098 0.18655 0.64157 0.0
H54 H 0.74037 0.19582 0.58586 0.0
H55 H 0.72814 0.17564 0.69695 0.0
H56 H 0.79795 0.21382 0.57316 0.0
H57 H 0.84104 0.17311 0.65262 0.0
O58 O 0.73894 0.13237 0.58804 0.0
O59 O 0.76614 0.10841 0.62246 0.0
O60 O 0.77699 0.15747 0.68624 0.0
C61 C 0.75047 0.10802 0.59204 0.0
H62 H 0.64974 0.04193 0.70578 0.0
H63 H 0.8722 0.25475 0.57162 0.0
H64 H 0.71498 0.22752 0.70547 0.0
H65 H 0.72951 0.24951 0.59241 0.0
Co66 Co 0.60964 0.74796 0.97121 0.0
C67 C 0.57103 0.66214 0.97462 0.0
C68 C 0.62345 0.69111 0.00332 0.0
C69 C 0.6094 0.65283 0.00668 0.0
N70 N 0.59927 0.6972 0.9837 0.0
N71 N 0.57642 0.63459 0.98873 0.0
H72 H 0.54698 0.65641 0.95839 0.0
H73 H 0.64975 0.71325 0.01445 0.0
C74 C 0.60053 0.74268 0.04962 0.0
O75 O 0.57031 0.70936 0.04425 0.0
N76 N 0.62176 0.79882 0.95913 0.0
C77 C 0.60565 0.80931 0.93361 0.0
C78 C 0.62101 0.84808 0.93528 0.0
C79 C 0.6468 0.83108 0.97578 0.0
N80 N 0.64687 0.86179 0.96188 0.0
C81 C 0.53075 0.71123 0.95085 0.0
C82 C 0.50923 0.74507 0.0026 0.0
C83 C 0.48183 0.71918 0.97917 0.0
C84 C 0.493 0.70278 0.95244 0.0
C85 C 0.5466 0.75328 -0.00044 0.0
N86 N 0.55664 0.73458 0.9755 0.0
H87 H 0.5393 0.69963 0.92926 0.0
H88 H 0.56759 0.77549 0.01616 0.0
H89 H 0.58364 0.79003 0.91566 0.0
H90 H 0.66444 0.83188 -0.00231 0.0
O91 O 0.61048 0.73652 0.92143 0.0
O92 O 0.66006 0.75998 0.95776 0.0
O93 O 0.61983 0.76277 0.0231 0.0
C94 C 0.64616 0.74762 0.92614 0.0
H95 H 0.62278 0.63945 0.02081 0.0
H96 H 0.61276 0.86459 0.91885 0.0
H97 H 0.50204 0.75984 0.02239 0.0
H98 H 0.47282 0.68374 0.93296 0.0
Co99 Co 0.86419 0.61199 0.30183 0.0
C100 C 0.91342 0.57734 0.30252 0.0
C101 C 0.9311 0.62291 0.34021 0.0
C102 C 0.95641 0.60998 0.34137 0.0
N103 N 0.90417 0.60242 0.31599 0.0
N104 N 0.94539 0.58142 0.31765 0.0
H105 H 0.89758 0.5572 0.28164 0.0
H106 H 0.93254 0.64609 0.35556 0.0
C107 C 0.82627 0.60817 0.3702 0.0
O108 O 0.79415 0.58537 0.35411 0.0
N109 N 0.82541 0.62434 0.2878 0.0
C110 C 0.80436 0.61551 0.25773 0.0
C111 C 0.78284 0.63302 0.25855 0.0
C112 C 0.81831 0.6494 0.3049 0.0
N113 N 0.79165 0.65422 0.28837 0.0
C114 C 0.80385 0.53792 0.28047 0.0
C115 C 0.79919 0.50205 0.34439 0.0
C116 C 0.77147 0.48239 0.3183 0.0
C117 C 0.77496 0.50052 0.28548 0.0
C118 C 0.82732 0.53962 0.33834 0.0
N119 N 0.82766 0.55802 0.30767 0.0
H120 H 0.80692 0.55053 0.25467 0.0
H121 H 0.84808 0.55442 0.35899 0.0
H122 H 0.80573 0.59939 0.23555 0.0
H123 H 0.8326 0.66419 0.329 0.0
O124 O 0.87721 0.61139 0.2527 0.0
O125 O 0.90215 0.66247 0.28736 0.0
O126 O 0.8577 0.62231 0.35338 0.0
C127 C 0.90111 0.64745 0.25635 0.0
H128 H 0.98093 0.62063 0.35861 0.0
H129 H 0.76325 0.63133 0.23816 0.0
H130 H 0.79891 0.48882 0.36953 0.0
H131 H 0.75497 0.4865 0.26403 0.0
Co132 Co 0.25084 0.86717 0.63316 0.0
C133 C 0.33601 0.91543 0.63814 0.0
C134 C 0.30625 0.94234 0.65876 0.0
C135 C 0.34439 0.9671 0.66211 0.0
N136 N 0.30079 0.90963 0.64427 0.0
N137 N 0.36306 0.95019 0.64918 0.0
H138 H 0.34218 0.89502 0.6263 0.0
H139 H 0.28382 0.94771 0.66653 0.0
C140 C 0.25439 0.87339 0.71236 0.0
O141 O 0.28994 0.88193 0.7104 0.0
N142 N 0.20088 0.82618 0.62191 0.0
C143 C 0.19173 0.79844 0.59778 0.0
C144 C 0.15325 0.77378 0.59947 0.0
C145 C 0.16811 0.81828 0.63783 0.0
N146 N 0.13846 0.78624 0.62475 0.0
C147 C 0.288 0.82406 0.61909 0.0
C148 C 0.25529 0.7736 0.67486 0.0
C149 C 0.2783 0.76791 0.65083 0.0
C150 C 0.29495 0.79384 0.62269 0.0
C151 C 0.24855 0.80362 0.6699 0.0
N152 N 0.26582 0.82937 0.64305 0.0
H153 H 0.29934 0.84235 0.59612 0.0
H154 H 0.22768 0.80454 0.68679 0.0
H155 H 0.21173 0.7959 0.58071 0.0
H156 H 0.16608 0.83565 0.65857 0.0
O157 O 0.2631 0.87546 0.58308 0.0
O158 O 0.23741 0.903 0.61452 0.0
O159 O 0.23443 0.86618 0.6841 0.0
C160 C 0.25091 0.8995 0.5842 0.0
H161 H 0.35741 0.99558 0.67283 0.0
H162 H 0.13762 0.74805 0.58401 0.0
H163 H 0.24155 0.7544 0.69695 0.0
H164 H 0.3119 0.79 0.6027 0.0
Co165 Co 0.38686 0.24201 0.95924 0.0
C166 C 0.42078 0.32495 0.96773 0.0
C167 C 0.37689 0.29388 0.00616 0.0
C168 C 0.39022 0.33199 0.011 0.0
N169 N 0.39613 0.28958 0.97914 0.0
N170 N 0.41771 0.35155 0.98674 0.0
H171 H 0.4398 0.33093 0.94544 0.0
H172 H 0.35436 0.2709 0.021 0.0
C173 C 0.38046 0.19413 0.02172 0.0
O174 O 0.40061 0.18276 0.00368 0.0
N175 N 0.37562 0.19329 0.93918 0.0
C176 C 0.39521 0.18439 0.91586 0.0
C177 C 0.37819 0.14548 0.91361 0.0
C178 C 0.34578 0.15961 0.94895 0.0
N179 N 0.34742 0.12996 0.9349 0.0
C180 C 0.464 0.26639 0.93877 0.0
C181 C 0.4922 0.27513 0.00726 0.0
C182 C 0.51601 0.2792 0.97855 0.0
C183 C 0.5018 0.2762 0.94383 0.0
C184 C 0.45488 0.26591 0.00088 0.0
N185 N 0.44018 0.25824 0.96713 0.0
H186 H 0.45394 0.26539 0.91195 0.0
H187 H 0.43781 0.26468 0.02338 0.0
H188 H 0.42051 0.20409 0.90186 0.0
H189 H 0.32507 0.15691 0.96855 0.0
O190 O 0.39037 0.26191 0.91196 0.0
O191 O 0.33753 0.23194 0.94376 0.0
O192 O 0.37268 0.2183 0.00826 0.0
C193 C 0.35425 0.24963 0.91448 0.0
H194 H 0.38048 0.34428 0.03104 0.0
H195 H 0.38846 0.12985 0.89841 0.0
H196 H 0.50181 0.27807 0.03461 0.0
H197 H 0.51964 0.28131 0.92071 0.0
Co198 Co 0.61873 0.85902 0.36752 0.0
C199 C 0.5838 0.9076 0.36165 0.0
C200 C 0.62681 0.92095 0.32211 0.0
C201 C 0.61362 0.94594 0.31856 0.0
N202 N 0.60808 0.89693 0.34901 0.0
N203 N 0.58672 0.93771 0.34352 0.0
H204 H 0.56529 0.89432 0.38425 0.0
H205 H 0.64909 0.92082 0.30658 0.0
C206 C 0.62419 0.81848 0.30392 0.0
O207 O 0.60492 0.78682 0.32202 0.0
N208 N 0.63171 0.82212 0.3859 0.0
C209 C 0.61289 0.79205 0.40779 0.0
C210 C 0.63132 0.77144 0.40816 0.0
C211 C 0.66233 0.82029 0.375 0.0
N212 N 0.66209 0.78885 0.38692 0.0
C213 C 0.54292 0.80476 0.3899 0.0
C214 C 0.51183 0.78603 0.32234 0.0
C215 C 0.4895 0.76571 0.35162 0.0
C216 C 0.50514 0.77632 0.38589 0.0
C217 C 0.5494 0.81427 0.32766 0.0
N218 N 0.56545 0.82114 0.36085 0.0
H219 H 0.55407 0.81348 0.41648 0.0
H220 H 0.56553 0.83043 0.30484 0.0
H221 H 0.58696 0.78422 0.42173 0.0
H222 H 0.68305 0.84051 0.35664 0.0
O223 O 0.61611 0.87458 0.41533 0.0
O224 O 0.66816 0.899 0.38225 0.0
O225 O 0.63174 0.85026 0.31767 0.0
C226 C 0.65197 0.89912 0.41218 0.0
H227 H 0.62311 0.9684 0.29898 0.0
H228 H 0.6213 0.74439 0.42126 0.0
H229 H 0.50077 0.77968 0.29541 0.0
H230 H 0.48836 0.7628 0.40942 0.0
Co231 Co 0.75597 0.617 0.69868 0.0
C232 C 0.67083 0.58136 0.69532 0.0
C233 C 0.70107 0.63636 0.67108 0.0
C234 C 0.66301 0.62355 0.66821 0.0
N235 N 0.70616 0.60976 0.68753 0.0
N236 N 0.64405 0.58901 0.68342 0.0
H237 H 0.66437 0.55554 0.70897 0.0
H238 H 0.72371 0.66335 0.66167 0.0
C239 C 0.7506 0.61481 0.61962 0.0
O240 O 0.71547 0.58717 0.62329 0.0
N241 N 0.80586 0.62586 0.70989 0.0
C242 C 0.81497 0.60779 0.73462 0.0
C243 C 0.85342 0.62151 0.73302 0.0
C244 C 0.83865 0.65043 0.69378 0.0
N245 N 0.86826 0.64828 0.70729 0.0
C246 C 0.7175 0.53737 0.71596 0.0
C247 C 0.7475 0.51572 0.66071 0.0
C248 C 0.72335 0.48837 0.68512 0.0
C249 C 0.70861 0.49951 0.71334 0.0
C250 C 0.75639 0.5533 0.66482 0.0
N251 N 0.74 0.56359 0.69112 0.0
H252 H 0.70709 0.54577 0.73864 0.0
H253 H 0.77786 0.5742 0.64764 0.0
H254 H 0.795 0.58591 0.75228 0.0
H255 H 0.84062 0.66883 0.67206 0.0
O256 O 0.74463 0.61539 0.74875 0.0
O257 O 0.77024 0.66728 0.71533 0.0
O258 O 0.77135 0.62982 0.64711 0.0
C259 C 0.75699 0.65159 0.74621 0.0
H260 H 0.65026 0.63868 0.65622 0.0
H261 H 0.86921 0.61254 0.74965 0.0
H262 H 0.76084 0.50841 0.63957 0.0
H263 H 0.69081 0.47925 0.73339 0.0
Co264 Co 0.1426 0.75215 0.02844 0.0
C265 C 0.09528 0.66795 0.02826 0.0
C266 C 0.07751 0.69453 0.98923 0.0
C267 C 0.05389 0.65598 0.98719 0.0
N268 N 0.10357 0.70197 0.01468 0.0
N269 N 0.06508 0.63924 0.01163 0.0
H270 H 0.1113 0.66433 0.04939 0.0
H271 H 0.07562 0.71577 0.97346 0.0
C272 C 0.18079 0.78538 0.95989 0.0
O273 O 0.21286 0.79525 0.97635 0.0
N274 N 0.18038 0.80394 0.04169 0.0
C275 C 0.20224 0.81776 0.07111 0.0
C276 C 0.22345 0.85677 0.06853 0.0
C277 C 0.18667 0.83511 0.02331 0.0
N278 N 0.21387 0.86758 0.03809 0.0
C279 C 0.20369 0.74058 0.05168 0.0
C280 C 0.2102 0.70894 0.98871 0.0
C281 C 0.23757 0.71829 0.01531 0.0
C282 C 0.23332 0.73305 0.04761 0.0
C283 C 0.1813 0.71745 0.99378 0.0
N284 N 0.18008 0.73582 0.02394 0.0
H285 H 0.19974 0.75002 0.07721 0.0
H286 H 0.1608 0.71075 0.97271 0.0
H287 H 0.20209 0.80137 0.09376 0.0
H288 H 0.17089 0.83413 -0.0002 0.0
O289 O 0.1294 0.73926 0.07763 0.0
O290 O 0.10365 0.76364 0.04181 0.0
O291 O 0.14927 0.76808 0.97659 0.0
C292 C 0.10485 0.75043 0.07319 0.0
H293 H 0.02991 0.64142 0.96942 0.0
H294 H 0.24435 0.87555 0.08761 0.0
H295 H 0.21198 0.69663 0.96367 0.0
H296 H 0.25285 0.73885 0.06949 0.0
Co297 Co 0.39295 0.14058 0.35518 0.0
C298 C 0.43359 0.09514 0.35347 0.0
C299 C 0.38225 0.07119 0.323 0.0
C300 C 0.39699 0.04753 0.32036 0.0
N301 N 0.40533 0.10145 0.34324 0.0
N302 N 0.42929 0.06257 0.33942 0.0
H303 H 0.4568 0.11349 0.37059 0.0
H304 H 0.35613 0.06657 0.31105 0.0
C305 C 0.40363 0.14505 0.27706 0.0
O306 O 0.43473 0.14381 0.28317 0.0
N307 N 0.37869 0.17797 0.36657 0.0
C308 C 0.39348 0.20461 0.3922 0.0
C309 C 0.37762 0.22748 0.38936 0.0
C310 C 0.35391 0.18464 0.3487 0.0
N311 N 0.35276 0.21499 0.36191 0.0
C312 C 0.47148 0.18517 0.37614 0.0
C313 C 0.49095 0.24161 0.3259 0.0
C314 C 0.51875 0.24476 0.34989 0.0
C315 C 0.50848 0.21608 0.3755 0.0
C316 C 0.45438 0.21067 0.32783 0.0
N317 N 0.44537 0.18174 0.3514 0.0
H318 H 0.46352 0.16473 0.39742 0.0
H319 H 0.43307 0.2107 0.3108 0.0
H320 H 0.41513 0.20788 0.41088 0.0
H321 H 0.3374 0.16774 0.32629 0.0
O322 O 0.39204 0.12873 0.40504 0.0
O323 O 0.34298 0.10076 0.36823 0.0
O324 O 0.38315 0.14455 0.30308 0.0
C325 C 0.35678 0.10299 0.40004 0.0
H326 H 0.38446 0.02089 0.30604 0.0
H327 H 0.38501 0.25223 0.40554 0.0
H328 H 0.49711 0.26307 0.30584 0.0
H329 H 0.52842 0.21804 0.39564 0.0
Co330 Co 0.25047 0.39562 0.69257 0.0
C331 C 0.33414 0.43059 0.69156 0.0
C332 C 0.30693 0.38899 0.65025 0.0
C333 C 0.34524 0.40267 0.64841 0.0
N334 N 0.30005 0.4066 0.67713 0.0
N335 N 0.3624 0.4287 0.67447 0.0
H336 H 0.33796 0.44836 0.71445 0.0
H337 H 0.28551 0.36735 0.63338 0.0
C338 C 0.21323 0.39772 0.62512 0.0
O339 O 0.20159 0.41817 0.64232 0.0
N340 N 0.19946 0.38204 0.70771 0.0
C341 C 0.1872 0.39293 0.73637 0.0
C342 C 0.14818 0.37437 0.73586 0.0
C343 C 0.16753 0.35512 0.69182 0.0
N344 N 0.13581 0.3508 0.70751 0.0
C345 C 0.26577 0.46958 0.71636 0.0
C346 C 0.29148 0.50552 0.65144 0.0
C347 C 0.28601 0.5253 0.67931 0.0
C348 C 0.27417 0.50714 0.71253 0.0
C349 C 0.28216 0.46784 0.65638 0.0
N350 N 0.26666 0.44939 0.68774 0.0
H351 H 0.25893 0.457 0.74245 0.0
H352 H 0.2868 0.45325 0.63459 0.0
H353 H 0.20464 0.41182 0.75717 0.0
H354 H 0.16764 0.33868 0.66923 0.0
O355 O 0.26498 0.39552 0.74136 0.0
O356 O 0.2394 0.34526 0.70565 0.0
O357 O 0.23288 0.38579 0.64131 0.0
C358 C 0.25363 0.35972 0.73673 0.0
H359 H 0.35933 0.39426 0.62905 0.0
H360 H 0.13048 0.37833 0.75485 0.0
H361 H 0.30257 0.51884 0.62587 0.0
H362 H 0.27054 0.52134 0.73532 0.0
Co363 Co 0.85419 0.24502 0.03703 0.0
C364 C 0.90446 0.3305 0.03782 0.0
C365 C 0.92071 0.30223 -0.00046 0.0
C366 C 0.94708 0.34014 -0.00112 0.0
N367 N 0.89333 0.296 0.02332 0.0
N368 N 0.93691 0.35792 0.02296 0.0
H369 H 0.89092 0.33567 0.06 0.0
H370 H 0.92195 0.28035 0.98425 0.0
C371 C 0.84479 0.24902 0.95958 0.0
O372 O 0.84597 0.28126 0.96645 0.0
N373 N 0.81707 0.19394 0.05046 0.0
C374 C 0.79207 0.18346 0.07749 0.0
C375 C 0.76886 0.14465 0.07638 0.0
C376 C 0.8092 0.16158 0.03355 0.0
N377 N 0.77966 0.13099 0.04872 0.0
C378 C 0.81268 0.28355 0.05522 0.0
C379 C 0.75212 0.24076 0.01047 0.0
C380 C 0.75286 0.27041 0.0298 0.0
C381 C 0.78325 0.29177 0.05278 0.0
C382 C 0.78232 0.23406 0.0132 0.0
N383 N 0.81323 0.25667 0.03384 0.0
H384 H 0.83407 0.29779 0.07526 0.0
H385 H 0.7806 0.21028 -0.00121 0.0
H386 H 0.79029 0.2028 0.09612 0.0
H387 H 0.82393 0.16059 0.00991 0.0
O388 O 0.86779 0.25758 0.08635 0.0
O389 O 0.89419 0.23488 0.04935 0.0
O390 O 0.84767 0.22967 0.98504 0.0
C391 C 0.89312 0.24756 0.081 0.0
H392 H 0.97191 0.35356 0.98198 0.0
H393 H 0.7457 0.12783 0.09441 0.0
H394 H 0.72837 0.22292 0.99334 0.0
H395 H 0.78367 0.31376 0.06938 0.0
C396 C 0.95143 0.24711 0.10083 0.0
C397 C 0.92207 0.25457 0.10824 0.0
C398 C 0.98212 0.25893 0.12434 0.0
C399 C 0.98342 0.27879 0.15579 0.0
C400 C 0.95281 0.28449 0.16433 0.0
C401 C 0.92245 0.27221 0.14047 0.0
C402 C 0.01406 0.25201 0.11455 0.0
C403 C 0.95314 0.30555 0.19763 0.0
C404 C 0.05301 0.29804 0.23115 0.0
C405 C 0.08032 0.33596 0.2245 0.0
C406 C 0.022 0.27832 0.20812 0.0
C407 C 0.01827 0.29712 0.17796 0.0
C408 C 0.04666 0.33486 0.17032 0.0
C409 C 0.07738 0.35377 0.19364 0.0
C410 C 0.99244 0.23799 0.2169 0.0
C411 C 0.0437 0.35592 0.13841 0.0
H412 H 0.95122 0.23333 0.07601 0.0
H413 H 0.89977 0.27793 0.14643 0.0
H414 H 0.03934 0.27926 0.10695 0.0
H415 H 0.02211 0.2406 0.13774 0.0
H416 H 0.00651 0.23193 0.09187 0.0
H417 H 0.92578 0.30473 0.20192 0.0
H418 H 0.95932 0.29334 0.22141 0.0
H419 H 0.9759 0.33565 0.19558 0.0
H420 H 0.0552 0.28409 0.25493 0.0
H421 H 0.09845 0.38304 0.18828 0.0
H422 H 0.98591 0.21962 0.19304 0.0
H423 H 0.96582 0.23702 0.22507 0.0
H424 H 1.00161 0.22607 0.23886 0.0
H425 H 0.03939 0.33925 0.11369 0.0
H426 H 0.06932 0.38427 0.13502 0.0
H427 H 0.01878 0.35979 0.14151 0.0
C428 C 0.65308 0.92713 0.47149 0.0
C429 C 0.67218 0.92779 0.44017 0.0
C430 C 0.66989 0.95649 0.49655 0.0
C431 C 0.70676 0.98723 0.49016 0.0
C432 C 0.72693 0.98719 0.45944 0.0
C433 C 0.70935 0.95741 0.43471 0.0
C434 C 0.64743 0.95546 0.52902 0.0
C435 C 0.76637 0.0194 0.45189 0.0
C436 C 0.72475 0.07906 0.53269 0.0
C437 C 0.74348 0.07957 0.56422 0.0
C438 C 0.71412 0.04996 0.50759 0.0
C439 C 0.72252 0.02071 0.51417 0.0
C440 C 0.74299 0.02201 0.54515 0.0
C441 C 0.7532 0.05145 0.56991 0.0
C442 C 0.69231 0.04959 0.47485 0.0
C443 C 0.75262 0.99142 0.55291 0.0
H444 H 0.62441 0.90422 0.47597 0.0
H445 H 0.72426 0.95801 0.41056 0.0
H446 H 0.6642 0.95969 0.55364 0.0
H447 H 0.64108 0.97894 0.52755 0.0
H448 H 0.62027 0.92827 0.53135 0.0
H449 H 0.77977 0.01308 0.42911 0.0
H450 H 0.76519 0.04541 0.44553 0.0
H451 H 0.78463 0.02568 0.47578 0.0
H452 H 0.71731 0.10081 0.52804 0.0
H453 H 0.76781 0.0518 0.59419 0.0
H454 H 0.66312 0.02494 0.47607 0.0
H455 H 0.7058 0.04639 0.45042 0.0
H456 H 0.69051 0.07584 0.47239 0.0
H457 H 0.7263 0.96444 0.55894 0.0
H458 H 0.7722 0.99874 0.57595 0.0
H459 H 0.76579 0.98635 0.52921 0.0
C460 C 0.70645 0.75255 0.90458 0.0
C461 C 0.66865 0.74241 0.89817 0.0
C462 C 0.72647 0.74295 0.88024 0.0
C463 C 0.70809 0.72257 0.84897 0.0
C464 C 0.67057 0.71397 0.84154 0.0
C465 C 0.65134 0.7241 0.8662 0.0
C466 C 0.76657 0.75295 0.88885 0.0
C467 C 0.64999 0.69227 0.80842 0.0
C468 C 0.75897 0.70983 0.77016 0.0
C469 C 0.7509 0.6724 0.77531 0.0
C470 C 0.74704 0.72751 0.79499 0.0
C471 C 0.7265 0.70713 0.8255 0.0
C472 C 0.72039 0.67021 0.83189 0.0
C473 C 0.73276 0.65332 0.80674 0.0
C474 C 0.75445 0.76708 0.7875 0.0
C475 C 0.6987 0.64758 0.8642 0.0
H476 H 0.72005 0.76686 0.9292 0.0
H477 H 0.62216 0.71628 0.86105 0.0
H478 H 0.76725 0.72676 0.89558 0.0
H479 H 0.7852 0.76593 0.86535 0.0
H480 H 0.77834 0.77287 0.91174 0.0
H481 H 0.62195 0.69025 0.80532 0.0
H482 H 0.6672 0.70605 0.78431 0.0
H483 H 0.64563 0.66312 0.8097 0.0
H484 H 0.77309 0.72477 0.74594 0.0
H485 H 0.72658 0.62444 0.81096 0.0
H486 H 0.76524 0.78501 0.81174 0.0
H487 H 0.72755 0.76581 0.77987 0.0
H488 H 0.77516 0.78092 0.76551 0.0
H489 H 0.71061 0.66447 0.88888 0.0
H490 H 0.69917 0.62064 0.86681 0.0
H491 H 0.66877 0.64071 0.86218 0.0
C492 C 0.04823 0.75292 0.09559 0.0
C493 C 0.07734 0.74472 0.10156 0.0
C494 C 0.01913 0.74266 0.12074 0.0
C495 C 0.01915 0.72356 0.1523 0.0
C496 C 0.04957 0.71708 0.15925 0.0
C497 C 0.07834 0.72786 0.13385 0.0
C498 C 0.98742 0.75048 0.11267 0.0
C499 C 0.05064 0.69671 0.19255 0.0
C500 C 0.95599 0.70718 0.23255 0.0
C501 C 0.92813 0.66911 0.22759 0.0
C502 C 0.98475 0.72624 0.20714 0.0
C503 C 0.98571 0.70657 0.17636 0.0
C504 C 0.95648 0.66879 0.17038 0.0
C505 C 0.92798 0.6506 0.196 0.0
C506 C 0.01516 0.76669 0.21415 0.0
C507 C 0.9565 0.64676 0.13794 0.0
H508 H 0.04741 0.76611 0.07074 0.0
H509 H 0.10087 0.72164 0.13877 0.0
H510 H 0.96135 0.72348 0.10609 0.0
H511 H 0.98106 0.7627 0.13634 0.0
H512 H 0.99428 0.77024 0.0898 0.0
H513 H 0.07767 0.69652 0.19524 0.0
H514 H 0.04674 0.71024 0.21662 0.0
H515 H 0.02702 0.66691 0.19191 0.0
H516 H 0.95612 0.72171 0.25683 0.0
H517 H 0.90641 0.62124 0.19188 0.0
H518 H 0.02066 0.78425 0.18985 0.0
H519 H 0.04196 0.76748 0.22123 0.0
H520 H 0.00745 0.77964 0.23635 0.0
H521 H 0.95962 0.6631 0.11326 0.0
H522 H 0.93019 0.61875 0.13584 0.0
H523 H 0.98101 0.64201 0.13929 0.0
C524 C 0.29813 0.04516 0.42092 0.0
C525 C 0.33488 0.07492 0.42796 0.0
C526 C 0.27905 0.01552 0.44548 0.0
C527 C 0.29729 0.0157 0.47766 0.0
C528 C 0.33366 0.04658 0.48559 0.0
C529 C 0.35199 0.07587 0.46066 0.0
C530 C 0.24014 0.98322 0.43629 0.0
C531 C 0.35403 0.04783 0.5197 0.0
C532 C 0.24653 0.95321 0.5571 0.0
C533 C 0.25693 0.92528 0.55408 0.0
C534 C 0.25769 0.98181 0.5313 0.0
C535 C 0.27988 0.98249 0.50199 0.0
C536 C 0.28852 0.95308 0.49774 0.0
C537 C 0.27684 0.92475 0.52383 0.0
C538 C 0.2476 0.01247 0.53651 0.0
C539 C 0.31207 0.95278 0.46677 0.0
H540 H 0.28473 0.04433 0.3957 0.0
H541 H 0.38034 0.09884 0.4663 0.0
H542 H 0.24171 0.9572 0.43119 0.0
H543 H 0.22042 0.97706 0.45896 0.0
H544 H 0.2282 0.98938 0.41224 0.0
H545 H 0.38112 0.07495 0.52284 0.0
H546 H 0.33582 0.044 0.54312 0.0
H547 H 0.3602 0.0242 0.51991 0.0
H548 H 0.23098 0.95367 0.58037 0.0
H549 H 0.28486 0.90317 0.52128 0.0
H550 H 0.23649 0.0176 0.51137 0.0
H551 H 0.27341 0.0394 0.54382 0.0
H552 H 0.22619 0.00521 0.55789 0.0
H553 H 0.30033 0.95605 0.44118 0.0
H554 H 0.31349 0.92625 0.46567 0.0
H555 H 0.34132 0.97714 0.46918 0.0
C556 C 0.25265 0.30081 0.75736 0.0
C557 C 0.26014 0.33776 0.76437 0.0
C558 C 0.26343 0.28169 0.78169 0.0
C559 C 0.28216 0.30008 0.81362 0.0
C560 C 0.28804 0.33663 0.82159 0.0
C561 C 0.27693 0.35501 0.79687 0.0
C562 C 0.25649 0.24264 0.77242 0.0
C563 C 0.30785 0.35717 0.85542 0.0
C564 C 0.29613 0.24842 0.89126 0.0
C565 C 0.33411 0.25835 0.88664 0.0
C566 C 0.27815 0.26042 0.86682 0.0
C567 C 0.29876 0.2829 0.83725 0.0
C568 C 0.33659 0.29158 0.83168 0.0
C569 C 0.35378 0.27915 0.85643 0.0
C570 C 0.23771 0.25046 0.87348 0.0
C571 C 0.35953 0.31547 0.80043 0.0
H572 H 0.2396 0.2873 0.73231 0.0
H573 H 0.28262 0.3835 0.80254 0.0
H574 H 0.28389 0.24415 0.76662 0.0
H575 H 0.24347 0.22304 0.7953 0.0
H576 H 0.2378 0.23054 0.74876 0.0
H577 H 0.30755 0.38412 0.85893 0.0
H578 H 0.29427 0.33889 0.87901 0.0
H579 H 0.33774 0.36377 0.8548 0.0
H580 H 0.28075 0.23226 0.91454 0.0
H581 H 0.38311 0.2868 0.85262 0.0
H582 H 0.22052 0.23876 0.84893 0.0
H583 H 0.23689 0.27647 0.88069 0.0
H584 H 0.22441 0.22949 0.8954 0.0
H585 H 0.34403 0.30348 0.7751 0.0
H586 H 0.38766 0.31748 0.79859 0.0
H587 H 0.36393 0.34456 0.80306 0.0
C588 C 0.16475 0.36211 0.41582 0.0
C589 C 0.19634 0.38985 0.39723 0.0
C590 C 0.1657 0.35884 0.45303 0.0
C591 C 0.19874 0.38445 0.472 0.0
C592 C 0.23103 0.41184 0.45324 0.0
C593 C 0.22954 0.41397 0.41602 0.0
C594 C 0.13102 0.3288 0.47213 0.0
C595 C 0.2666 0.44002 0.4726 0.0
C596 C 0.191 0.41022 0.56743 0.0
C597 C 0.20633 0.39135 0.58637 0.0
C598 C 0.18735 0.40728 0.53024 0.0
C599 C 0.19892 0.38456 0.51159 0.0
C600 C 0.21291 0.36413 0.53065 0.0
C601 C 0.21666 0.36794 0.56787 0.0
C602 C 0.17254 0.42972 0.51079 0.0
C603 C 0.22498 0.3392 0.51165 0.0
H604 H 0.13912 0.34323 0.40132 0.0
H605 H 0.25398 0.4356 0.40181 0.0
H606 H 0.13882 0.31239 0.49044 0.0
H607 H 0.11857 0.34244 0.48863 0.0
H608 H 0.10905 0.30883 0.45328 0.0
H609 H 0.28974 0.45849 0.45396 0.0
H610 H 0.26036 0.45829 0.48999 0.0
H611 H 0.27678 0.42499 0.49007 0.0
H612 H 0.18288 0.42831 0.58152 0.0
H613 H 0.22828 0.35304 0.58238 0.0
H614 H 0.14833 0.41074 0.49347 0.0
H615 H 0.19501 0.45106 0.49323 0.0
H616 H 0.16318 0.4447 0.52936 0.0
H617 H 0.20226 0.31934 0.49339 0.0
H618 H 0.23189 0.32251 0.53055 0.0
H619 H 0.25034 0.35698 0.49508 0.0
C620 C 0.78333 0.16477 0.76289 0.0
C621 C 0.80964 0.1909 0.73874 0.0
C622 C 0.78994 0.16959 0.79976 0.0
C623 C 0.824 0.20079 0.81248 0.0
C624 C 0.85194 0.2254 0.78796 0.0
C625 C 0.84417 0.22045 0.75132 0.0
C626 C 0.75923 0.14307 0.82503 0.0
C627 C 0.88903 0.25843 0.80041 0.0
C628 C 0.82159 0.2483 0.89826 0.0
C629 C 0.83821 0.23483 0.92258 0.0
C630 C 0.81602 0.23658 0.86263 0.0
C631 C 0.82795 0.21121 0.85082 0.0
C632 C 0.84436 0.19707 0.87531 0.0
C633 C 0.84899 0.20882 0.91114 0.0
C634 C 0.79776 0.25181 0.83752 0.0
C635 C 0.8579 0.17043 0.86345 0.0
H636 H 0.75656 0.14191 0.7531 0.0
H637 H 0.86476 0.24031 0.73252 0.0
H638 H 0.77126 0.13399 0.84689 0.0
H639 H 0.74577 0.15815 0.83743 0.0
H640 H 0.73694 0.11746 0.8112 0.0
H641 H 0.90997 0.27077 0.77837 0.0
H642 H 0.88403 0.28092 0.81123 0.0
H643 H 0.90139 0.24955 0.82215 0.0
H644 H 0.81277 0.26806 0.90712 0.0
H645 H 0.86194 0.19846 0.92994 0.0
H646 H 0.77295 0.22804 0.82418 0.0
H647 H 0.81816 0.26912 0.81637 0.0
H648 H 0.78826 0.26969 0.85144 0.0
H649 H 0.8347 0.14534 0.84989 0.0
H650 H 0.86834 0.16058 0.88611 0.0
H651 H 0.88117 0.18496 0.8438 0.0
C652 C 0.64144 0.78868 0.25533 0.0
C653 C 0.63254 0.81618 0.26622 0.0
C654 C 0.64321 0.78153 0.21904 0.0
C655 C 0.63456 0.8015 0.19328 0.0
C656 C 0.62795 0.83102 0.20418 0.0
C657 C 0.62752 0.83837 0.2407 0.0
C658 C 0.65159 0.75069 0.20848 0.0
C659 C 0.61799 0.85252 0.17759 0.0
C660 C 0.64604 0.78806 0.09458 0.0
C661 C 0.60976 0.75826 0.08609 0.0
C662 C 0.65481 0.80257 0.12946 0.0
C663 C 0.62635 0.78736 0.15602 0.0
C664 C 0.58952 0.75776 0.14731 0.0
C665 C 0.58181 0.74333 0.11256 0.0
C666 C 0.69452 0.83366 0.13801 0.0
C667 C 0.55814 0.74124 0.17473 0.0
H668 H 0.64576 0.77187 0.27523 0.0
H669 H 0.62051 0.85956 0.24928 0.0
H670 H 0.625 0.72515 0.19999 0.0
H671 H 0.67147 0.75991 0.18558 0.0
H672 H 0.66395 0.74259 0.23091 0.0
H673 H 0.61908 0.87797 0.18968 0.0
H674 H 0.63738 0.86154 0.15435 0.0
H675 H 0.58888 0.83365 0.16745 0.0
H676 H 0.66772 0.7996 0.07411 0.0
H677 H 0.55361 0.72059 0.10601 0.0
H678 H 0.70699 0.82367 0.15869 0.0
H679 H 0.69402 0.85864 0.14916 0.0
H680 H 0.71321 0.84279 0.11417 0.0
H681 H 0.56567 0.72782 0.19658 0.0
H682 H 0.53065 0.7196 0.16314 0.0
H683 H 0.55446 0.76408 0.18679 0.0
C684 C 0.74378 0.61483 0.55374 0.0
C685 C 0.7674 0.62409 0.58362 0.0
C686 C 0.75827 0.61847 0.51921 0.0
C687 C 0.79726 0.63114 0.51453 0.0
C688 C 0.82166 0.64258 0.54449 0.0
C689 C 0.80643 0.63913 0.5788 0.0
C690 C 0.73141 0.60663 0.48788 0.0
C691 C 0.86334 0.65613 0.54053 0.0
C692 C 0.81377 0.58719 0.43278 0.0
C693 C 0.82538 0.61649 0.40797 0.0
C694 C 0.80706 0.59257 0.46833 0.0
C695 C 0.81106 0.62784 0.47882 0.0
C696 C 0.82421 0.65804 0.45397 0.0
C697 C 0.83152 0.65204 0.41866 0.0
C698 C 0.7936 0.55981 0.49411 0.0
C699 C 0.82816 0.69576 0.46398 0.0
H700 H 0.71366 0.60368 0.5574 0.0
H701 H 0.8248 0.64631 0.60187 0.0
H702 H 0.74292 0.62869 0.46678 0.0
H703 H 0.72813 0.58014 0.47611 0.0
H704 H 0.70294 0.6015 0.49569 0.0
H705 H 0.87923 0.66867 0.56564 0.0
H706 H 0.8671 0.63185 0.533 0.0
H707 H 0.8759 0.67751 0.51893 0.0
H708 H 0.80893 0.55969 0.42406 0.0
H709 H 0.84003 0.67441 0.39902 0.0
H710 H 0.76353 0.54932 0.5011 0.0
H711 H 0.81025 0.56918 0.51919 0.0
H712 H 0.79594 0.53585 0.48275 0.0
H713 H 0.7996 0.69241 0.46726 0.0
H714 H 0.84363 0.71773 0.4433 0.0
H715 H 0.84317 0.70588 0.48983 0.0
C716 C 0.20151 0.78466 0.89835 0.0
C717 C 0.18199 0.79508 0.92217 0.0
C718 C 0.20729 0.79732 0.863 0.0
C719 C 0.19433 0.8221 0.85174 0.0
C720 C 0.17366 0.83192 0.87559 0.0
C721 C 0.16721 0.81774 0.91062 0.0
C722 C 0.22882 0.78557 0.83821 0.0
C723 C 0.16023 0.85893 0.86473 0.0
C724 C 0.25718 0.88424 0.77771 0.0
C725 C 0.236 0.86513 0.74755 0.0
C726 C 0.24234 0.87254 0.81203 0.0
C727 C 0.20593 0.84024 0.81614 0.0
C728 C 0.18346 0.82234 0.78569 0.0
C729 C 0.19867 0.83536 0.75161 0.0
C730 C 0.26678 0.89307 0.84387 0.0
C731 C 0.14475 0.78754 0.78895 0.0
H732 H 0.21282 0.76706 0.90762 0.0
H733 H 0.1525 0.82602 0.92948 0.0
H734 H 0.21342 0.77505 0.81258 0.0
H735 H 0.25691 0.81045 0.83212 0.0
H736 H 0.23327 0.76305 0.84999 0.0
H737 H 0.14324 0.86246 0.88597 0.0
H738 H 0.18499 0.88713 0.85858 0.0
H739 H 0.1429 0.84871 0.84011 0.0
H740 H 0.2859 0.90758 0.77447 0.0
H741 H 0.18229 0.82051 0.72822 0.0
H742 H 0.27748 0.87543 0.85614 0.0
H743 H 0.25007 0.89788 0.86444 0.0
H744 H 0.29148 0.92085 0.83636 0.0
H745 H 0.14784 0.76314 0.79755 0.0
H746 H 0.12905 0.7801 0.76326 0.0
H747 H 0.12766 0.79176 0.80951 0.0
C748 C 0.36548 0.14752 0.07043 0.0
C749 C 0.37202 0.18313 0.05936 0.0
C750 C 0.3638 0.13881 0.10676 0.0
C751 C 0.36996 0.16686 0.13241 0.0
C752 C 0.37411 0.202 0.12131 0.0
C753 C 0.37464 0.20957 0.08475 0.0
C754 C 0.35816 0.1006 0.11759 0.0
C755 C 0.38136 0.23285 0.1478 0.0
C756 C 0.35761 0.14157 0.23098 0.0
C757 C 0.3945 0.15067 0.24034 0.0
C758 C 0.34893 0.14655 0.19583 0.0
C759 C 0.37805 0.16171 0.16991 0.0
C760 C 0.41546 0.17161 0.17951 0.0
C761 C 0.42312 0.16558 0.21451 0.0
C762 C 0.30864 0.13509 0.18632 0.0
C763 C 0.4475 0.18858 0.15278 0.0
H764 H 0.36293 0.12693 0.05063 0.0
H765 H 0.37983 0.23718 0.07608 0.0
H766 H 0.38535 0.10395 0.12738 0.0
H767 H 0.33738 0.0884 0.1397 0.0
H768 H 0.34817 0.08023 0.09498 0.0
H769 H 0.37857 0.25614 0.13544 0.0
H770 H 0.36155 0.22126 0.17067 0.0
H771 H 0.41051 0.24498 0.15855 0.0
H772 H 0.33543 0.12997 0.25096 0.0
H773 H 0.45177 0.17307 0.22176 0.0
H774 H 0.298 0.11268 0.16554 0.0
H775 H 0.3074 0.15959 0.17493 0.0
H776 H 0.28942 0.12428 0.20975 0.0
H777 H 0.44192 0.16805 0.13093 0.0
H778 H 0.47526 0.19636 0.16504 0.0
H779 H 0.44949 0.21435 0.14058 0.0
C780 C 0.94321 0.52133 0.30185 0.0
C781 C 0.96409 0.55988 0.3109 0.0
C782 C 0.96084 0.49925 0.29922 0.0
C783 C 1.00026 0.5162 0.30567 0.0
C784 C 0.02173 0.55554 0.3129 0.0
C785 C 0.0034 0.57683 0.31543 0.0
C786 C 0.93695 0.45742 0.29136 0.0
C787 C 0.06384 0.57485 0.31966 0.0
C788 C 0.03824 0.456 0.34532 0.0
C789 C 0.05544 0.44954 0.31582 0.0
C790 C 0.0198 0.47712 0.34214 0.0
C791 C 0.01846 0.49236 0.30858 0.0
C792 C 0.03567 0.48596 0.27858 0.0
C793 C 0.05404 0.46469 0.28257 0.0
C794 C 1.00211 0.4835 0.37491 0.0
C795 C 0.03475 0.50167 0.24235 0.0
H796 H 0.91284 0.50805 0.29842 0.0
H797 H 0.01982 0.60678 0.3216 0.0
H798 H 0.9501 0.44906 0.26994 0.0
H799 H 0.93529 0.44092 0.31554 0.0
H800 H 0.90772 0.44944 0.28314 0.0
H801 H 0.07695 0.60615 0.32172 0.0
H802 H 0.0692 0.56409 0.34491 0.0
H803 H 0.0781 0.5682 0.29796 0.0
H804 H 0.0397 0.445 0.37121 0.0
H805 H 0.06685 0.45946 0.25957 0.0
H806 H 0.97165 0.47318 0.37007 0.0
H807 H 0.01588 0.51429 0.38074 0.0
H808 H 0.00473 0.46885 0.39882 0.0
H809 H 0.00502 0.49136 0.23419 0.0
H810 H 0.04874 0.4935 0.22154 0.0
H811 H 0.04912 0.53307 0.24358 0.0
C812 C 0.5881 0.07051 0.63552 0.0
C813 C 0.60472 0.05209 0.65322 0.0
C814 C 0.54858 0.05302 0.63162 0.0
C815 C 0.52509 0.01637 0.64602 0.0
C816 C 0.54173 0.99712 0.6628 0.0
C817 C 0.58124 0.01509 0.66598 0.0
C818 C 0.53191 0.07433 0.61322 0.0
C819 C 0.51773 0.95805 0.67858 0.0
C820 C 0.42605 0.99053 0.67557 0.0
C821 C 0.40355 0.96621 0.64822 0.0
C822 C 0.46555 0.00703 0.67505 0.0
C823 C 0.48316 0.99937 0.64622 0.0
C824 C 0.46064 0.9749 0.6184 0.0
C825 C 0.42101 0.95836 0.61986 0.0
C826 C 0.48842 0.03244 0.70556 0.0
C827 C 0.47842 0.96641 0.58703 0.0
H828 H 0.60582 0.09909 0.62567 0.0
H829 H 0.5937 1.00013 0.67886 0.0
H830 H 0.51131 0.05624 0.59253 0.0
H831 H 0.5163 0.08168 0.63292 0.0
H832 H 0.55396 0.1009 0.60049 0.0
H833 H 0.53506 0.94606 0.68895 0.0
H834 H 0.50047 0.95938 0.70082 0.0
H835 H 0.4978 0.93837 0.65828 0.0
H836 H 0.4126 0.99621 0.69777 0.0
H837 H 0.4037 0.93989 0.5985 0.0
H838 H 0.50914 0.061 0.69533 0.0
H839 H 0.50475 0.02073 0.71872 0.0
H840 H 0.47037 0.03556 0.72592 0.0
H841 H 0.49861 0.99319 0.57337 0.0
H842 H 0.45701 0.94722 0.56736 0.0
H843 H 0.49482 0.95304 0.59642 0.0
C844 C 0.42364 0.41469 0.99341 0.0
C845 C 0.439 0.39225 0.98236 0.0
C846 C 0.44482 0.45442 0.99171 0.0
C847 C 0.48231 0.47229 0.97844 0.0
C848 C 0.49752 0.44986 0.96589 0.0
C849 C 0.47571 0.41011 0.96805 0.0
C850 C 0.4275 0.47727 0.0053 0.0
C851 C 0.53735 0.46785 0.95143 0.0
C852 C 0.53046 0.57747 0.95526 0.0
C853 C 0.55221 0.59403 0.98597 0.0
C854 C 0.50774 0.53783 0.95218 0.0
C855 C 0.50658 0.51432 0.98061 0.0
C856 C 0.52823 0.53098 0.01176 0.0
C857 C 0.55075 0.57052 0.01401 0.0
C858 C 0.4852 0.52109 0.91848 0.0
C859 C 0.52751 0.50701 0.04286 0.0
H860 H 0.39503 0.40121 0.00372 0.0
H861 H 0.48793 0.39311 0.95962 0.0
H862 H 0.44319 0.49364 0.02923 0.0
H863 H 0.42985 0.49801 0.98482 0.0
H864 H 0.3972 0.45911 0.01256 0.0
H865 H 0.54377 0.4466 0.93979 0.0
H866 H 0.54179 0.4891 0.93066 0.0
H867 H 0.55787 0.48305 0.97321 0.0
H868 H 0.53178 0.59547 0.93337 0.0
H869 H 0.56696 0.58315 0.03804 0.0
H870 H 0.45463 0.5038 0.92492 0.0
H871 H 0.49377 0.50187 0.90587 0.0
H872 H 0.48915 0.54322 0.89884 0.0
H873 H 0.4982 0.48995 0.05318 0.0
H874 H 0.54618 0.52439 0.06507 0.0
H875 H 0.53669 0.48686 0.034 0.0
C876 C 0.52896 0.93833 0.36278 0.0
C877 C 0.56595 0.95742 0.34918 0.0
C878 C 0.50737 0.95648 0.36519 0.0
C879 C 0.52317 0.9946 0.35371 0.0
C880 C 0.5611 0.01452 0.34163 0.0
C881 C 0.582 0.99574 0.33959 0.0
C882 C 0.46707 0.93429 0.37838 0.0
C883 C 0.57912 0.05521 0.32927 0.0
C884 C 0.45659 0.02524 0.31527 0.0
C885 C 0.4537 0.04658 0.3432 0.0
C886 C 0.47892 0.00814 0.31854 0.0
C887 C 0.49898 0.01235 0.35062 0.0
C888 C 0.49646 0.03407 0.37893 0.0
C889 C 0.47393 0.05109 0.37483 0.0
C890 C 0.48114 0.98564 0.2875 0.0
C891 C 0.51731 0.03906 0.41358 0.0
H892 H 0.51631 0.90874 0.37017 0.0
H893 H 0.61086 0.01101 0.32992 0.0
H894 H 0.46175 0.95074 0.39888 0.0
H895 H 0.44735 0.92913 0.35591 0.0
H896 H 0.46037 0.90649 0.38994 0.0
H897 H 0.60982 0.06769 0.32365 0.0
H898 H 0.56491 0.05668 0.30457 0.0
H899 H 0.57546 0.07283 0.34969 0.0
H900 H 0.44158 0.0222 0.29055 0.0
H901 H 0.4715 0.06723 0.39661 0.0
H902 H 0.47156 0.95609 0.29597 0.0
H903 H 0.51091 0.99819 0.27842 0.0
H904 H 0.46354 0.98483 0.26452 0.0
H905 H 0.50805 0.01096 0.42585 0.0
H906 H 0.51246 0.05683 0.43298 0.0
H907 H 0.54815 0.05243 0.40848 0.0
C908 C 0.58632 0.54192 0.71509 0.0
C909 C 0.60352 0.56519 0.68538 0.0
C910 C 0.54669 0.51918 0.71728 0.0
C911 C 0.52392 0.51938 0.68881 0.0
C912 C 0.54126 0.54274 0.65871 0.0
C913 C 0.58077 0.56545 0.65748 0.0
C914 C 0.52919 0.49501 0.74998 0.0
C915 C 0.51811 0.54334 0.62751 0.0
C916 C 0.4261 0.43579 0.67105 0.0
C917 C 0.40256 0.45003 0.68166 0.0
C918 C 0.46555 0.45748 0.67457 0.0
C919 C 0.48204 0.49427 0.68949 0.0
C920 C 0.45844 0.50811 0.70202 0.0
C921 C 0.41897 0.48588 0.69783 0.0
C922 C 0.48966 0.44164 0.66083 0.0
C923 C 0.47496 0.54705 0.71845 0.0
H924 H 0.60384 0.54201 0.73686 0.0
H925 H 0.59401 0.583 0.63427 0.0
H926 H 0.50881 0.50215 0.76235 0.0
H927 H 0.51305 0.46464 0.74235 0.0
H928 H 0.55074 0.49886 0.77021 0.0
H929 H 0.53595 0.56339 0.60629 0.0
H930 H 0.50181 0.51455 0.61574 0.0
H931 H 0.49735 0.55157 0.63667 0.0
H932 H 0.41372 0.40775 0.65943 0.0
H933 H 0.40114 0.49722 0.70605 0.0
H934 H 0.50977 0.44346 0.68172 0.0
H935 H 0.50672 0.45875 0.63777 0.0
H936 H 0.47241 0.41162 0.65218 0.0
H937 H 0.49585 0.55101 0.7394 0.0
H938 H 0.45284 0.55196 0.7304 0.0
H939 H 0.49019 0.56894 0.69771 0.0
C940 C 0.99598 0.41967 0.02578 0.0
C941 C 0.9566 0.39809 0.0302 0.0
C942 C 0.01505 0.45939 0.02769 0.0
C943 C 0.99422 0.47806 0.03412 0.0
C944 C 0.95481 0.45635 0.04092 0.0
C945 C 0.93646 0.41656 0.03894 0.0
C946 C 0.05713 0.48138 0.02062 0.0
C947 C 0.9316 0.47516 0.04798 0.0
C948 C 0.04813 0.58463 0.05171 0.0
C949 C 0.0482 0.59901 0.01766 0.0
C950 C 0.03044 0.54528 0.05774 0.0
C951 C 0.01269 0.51986 0.02897 0.0
C952 C 0.01307 0.53432 0.99453 0.0
C953 C 0.03078 0.5736 0.98935 0.0
C954 C 0.0305 0.53088 0.09483 0.0
C955 C 0.99484 0.50829 0.963 0.0
H956 H 0.01181 0.40548 0.01985 0.0
H957 H 0.90603 0.40004 0.04231 0.0
H958 H 0.06243 0.49573 0.99434 0.0
H959 H 0.07178 0.50372 0.0411 0.0
H960 H 0.06985 0.4628 0.02036 0.0
H961 H 0.90256 0.4546 0.05732 0.0
H962 H 0.9456 0.49787 0.06826 0.0
H963 H 0.92932 0.48864 0.02309 0.0
H964 H 0.06125 0.60413 0.07374 0.0
H965 H 0.03133 0.5845 0.96287 0.0
H966 H 0.04411 0.51314 0.09453 0.0
H967 H 1.00098 0.51261 0.10418 0.0
H968 H 0.04568 0.55432 0.11428 0.0
H969 H 0.00827 0.49072 0.9586 0.0
H970 H 0.99731 0.5241 0.93805 0.0
H971 H 0.96439 0.48866 0.96847 0.0
C972 C 0.27841 0.34433 0.27708 0.0
C973 C 0.23944 0.32991 0.28171 0.0
C974 C 0.29597 0.32427 0.28922 0.0
C975 C 0.27397 0.28864 0.30605 0.0
C976 C 0.23443 0.27341 0.30991 0.0
C977 C 0.21769 0.29435 0.29791 0.0
C978 C 0.33828 0.34175 0.285 0.0
C979 C 0.2099 0.23528 0.32722 0.0
C980 C 0.31786 0.22542 0.31304 0.0
C981 C 0.33148 0.23205 0.34829 0.0
C982 C 0.29837 0.24293 0.29917 0.0
C983 C 0.29269 0.26812 0.32086 0.0
C984 C 0.30593 0.27466 0.35652 0.0
C985 C 0.32487 0.2564 0.36983 0.0
C986 C 0.2844 0.23493 0.26111 0.0
C987 C 0.30063 0.30148 0.38049 0.0
H988 H 0.29545 0.37202 0.26507 0.0
H989 H 0.18752 0.28291 0.30119 0.0
H990 H 0.35177 0.34675 0.31167 0.0
H991 H 0.34491 0.32205 0.27048 0.0
H992 H 0.35114 0.36913 0.27036 0.0
H993 H 0.17937 0.22653 0.32647 0.0
H994 H 0.21385 0.2133 0.31361 0.0
H995 H 0.21847 0.23624 0.35546 0.0
H996 H 0.32306 0.20715 0.29586 0.0
H997 H 0.33454 0.26131 0.39722 0.0
H998 H 0.2991 0.26135 0.24512 0.0
H999 H 0.25367 0.22518 0.26018 0.0
H1000 H 0.28923 0.21307 0.24836 0.0
H1001 H 0.3148 0.33031 0.36861 0.0
H1002 H 0.31233 0.30328 0.40765 0.0
H1003 H 0.2701 0.29216 0.38292 0.0
C1004 C 0.9322 0.27498 0.6252 0.0
C1005 C 0.90854 0.23551 0.62649 0.0
C1006 C 0.96918 0.29239 0.63879 0.0
C1007 C 0.98308 0.26974 0.65367 0.0
C1008 C 0.95958 0.22979 0.65449 0.0
C1009 C 0.92247 0.21317 0.64112 0.0
C1010 C 0.99315 0.33511 0.63782 0.0
C1011 C 0.97359 0.20467 0.6696 0.0
C1012 C 0.09012 0.31643 0.65894 0.0
C1013 C 0.0973 0.32813 0.69478 0.0
C1014 C 0.05307 0.2963 0.64556 0.0
C1015 C 0.02224 0.28808 0.66833 0.0
C1016 C 0.02904 0.29917 0.70462 0.0
C1017 C 0.06643 0.31882 0.71745 0.0
C1018 C 0.047 0.28472 0.60675 0.0
C1019 C 0.99687 0.29116 0.72968 0.0
H1020 H 0.92134 0.29241 0.61455 0.0
H1021 H 0.90431 0.18265 0.64196 0.0
H1022 H 1.00151 0.34629 0.66534 0.0
H1023 H 0.01957 0.3437 0.62263 0.0
H1024 H 0.9781 0.34862 0.62539 0.0
H1025 H 0.95209 0.17407 0.66753 0.0
H1026 H 0.99955 0.20977 0.6553 0.0
H1027 H 0.9813 0.21169 0.69809 0.0
H1028 H 0.11346 0.32387 0.64084 0.0
H1029 H 0.07139 0.32714 0.74522 0.0
H1030 H 0.03503 0.3002 0.59246 0.0
H1031 H 0.02628 0.25398 0.60429 0.0
H1032 H 0.0737 0.29072 0.59327 0.0
H1033 H 0.9819 0.30596 0.72016 0.0
H1034 H 0.00677 0.30052 0.75741 0.0
H1035 H 0.97594 0.26037 0.73 0.0
C1036 C 0.72278 0.06802 0.04091 0.0
C1037 C 0.76188 0.09219 0.03662 0.0
C1038 C 0.70487 0.0304 0.02868 0.0
C1039 C 0.72661 0.01641 0.01206 0.0
C1040 C 0.76616 0.04054 0.00792 0.0
C1041 C 0.78328 0.07821 0.02007 0.0
C1042 C 0.66256 0.00577 0.03317 0.0
C1043 C 0.79039 0.02654 0.99072 0.0
C1044 C 0.68277 0.90914 0.00894 0.0
C1045 C 0.66837 0.90068 0.97401 0.0
C1046 C 0.70253 0.9467 0.02141 0.0
C1047 C 0.70774 0.97664 -0.00141 0.0
C1048 C 0.69374 0.96846 0.96322 0.0
C1049 C 0.67445 0.93068 0.95133 0.0
C1050 C 0.71724 0.95426 0.05925 0.0
C1051 C 0.69855 0.99957 0.93808 0.0
H1052 H 0.70601 0.07882 0.05317 0.0
H1053 H 0.81354 0.09665 0.01704 0.0
H1054 H 0.64893 0.99602 0.00668 0.0
H1055 H 0.65599 0.98012 0.0489 0.0
H1056 H 0.64976 0.02091 0.04677 0.0
H1057 H 0.82081 0.04868 0.99007 0.0
H1058 H 0.78741 1.00157 0.00548 0.0
H1059 H 0.78069 0.01721 0.96299 0.0
H1060 H 0.67793 0.88637 0.02695 0.0
H1061 H 0.66413 0.92472 0.92416 0.0
H1062 H 0.70281 0.96658 0.07477 0.0
H1063 H 0.74797 0.97531 0.05945 0.0
H1064 H 0.71268 0.92811 0.07297 0.0
H1065 H 0.68438 0.0145 0.94928 0.0
H1066 H 0.68655 0.98857 0.91122 0.0
H1067 H 0.72901 0.02086 0.93511 0.0
C1068 C 0.73699 0.66428 0.29412 0.0
C1069 C 0.77512 0.67622 0.30102 0.0
C1070 C 0.71977 0.68391 0.30828 0.0
C1071 C 0.74133 0.71658 0.32954 0.0
C1072 C 0.78007 0.72926 0.33596 0.0
C1073 C 0.79643 0.70882 0.3218 0.0
C1074 C 0.67828 0.66921 0.30112 0.0
C1075 C 0.80419 0.76428 0.35799 0.0
C1076 C 0.70213 0.7834 0.34021 0.0
C1077 C 0.68478 0.77312 0.37394 0.0
C1078 C 0.72132 0.76587 0.32581 0.0
C1079 C 0.72312 0.7371 0.34541 0.0
C1080 C 0.70642 0.72708 0.37973 0.0
C1081 C 0.68766 0.74532 0.39362 0.0
C1082 C 0.73896 0.77758 0.28923 0.0
C1083 C 0.70748 0.69634 0.40139 0.0
H1084 H 0.72027 0.63885 0.27851 0.0
H1085 H 0.82602 0.71848 0.32686 0.0
H1086 H 0.66251 0.66211 0.32671 0.0
H1087 H 0.6744 0.69144 0.28795 0.0
H1088 H 0.66554 0.64355 0.28391 0.0
H1089 H 0.83416 0.77112 0.35948 0.0
H1090 H 0.80333 0.78895 0.34646 0.0
H1091 H 0.79277 0.7602 0.3855 0.0
H1092 H 0.69975 0.8043 0.32436 0.0
H1093 H 0.67481 0.73744 0.41979 0.0
H1094 H 0.7254 0.75313 0.27067 0.0
H1095 H 0.76948 0.78651 0.29058 0.0
H1096 H 0.73606 0.80123 0.27789 0.0
H1097 H 0.69285 0.66907 0.38664 0.0
H1098 H 0.69375 0.69234 0.42787 0.0
H1099 H 0.73719 0.70325 0.40553 0.0
C1100 C 0.07008 0.74453 0.6132 0.0
C1101 C 0.09952 0.76809 0.63646 0.0
C1102 C 0.03218 0.72572 0.62451 0.0
C1103 C 0.0234 0.73064 0.65995 0.0
C1104 C 0.05288 0.7548 0.68344 0.0
C1105 C 0.09056 0.77313 0.67146 0.0
C1106 C 1.00154 0.70025 0.59863 0.0
C1107 C 0.04473 0.76077 0.72146 0.0
C1108 C 0.92205 0.70534 0.68053 0.0
C1109 C 0.90726 0.6692 0.69582 0.0
C1110 C 0.95985 0.72579 0.66897 0.0
C1111 C 0.98345 0.7097 0.67267 0.0
C1112 C 0.96874 0.67329 0.68815 0.0
C1113 C 0.93089 0.65353 0.69954 0.0
C1114 C 0.97457 0.76465 0.65282 0.0
C1115 C 0.99289 0.65502 0.69232 0.0
H1116 H 0.07664 0.74088 0.58601 0.0
H1117 H 0.11306 0.79076 0.68982 0.0
H1118 H 0.98631 0.67081 0.60907 0.0
H1119 H 0.98044 0.70969 0.59575 0.0
H1120 H 0.013 0.69995 0.57181 0.0
H1121 H 0.07042 0.78269 0.73545 0.0
H1122 H 0.02289 0.76941 0.72206 0.0
H1123 H 0.03328 0.73375 0.73645 0.0
H1124 H 0.90418 0.71787 0.67797 0.0
H1125 H 0.9196 0.62544 0.7108 0.0
H1126 H 0.98454 0.76507 0.6252 0.0
H1127 H 0.99921 0.786 0.66837 0.0
H1128 H 0.9527 0.7733 0.65211 0.0
H1129 H 0.00293 0.65167 0.66579 0.0
H1130 H 0.97732 0.62673 0.70528 0.0
H1131 H 0.01833 0.67348 0.70854 0.0
C1132 C 0.28835 0.07575 0.95798 0.0
C1133 C 0.32594 0.09102 0.94655 0.0
C1134 C 0.26822 0.03898 0.97235 0.0
C1135 C 0.28625 0.01709 0.97569 0.0
C1136 C 0.324 0.03214 0.96372 0.0
C1137 C 0.3433 0.06881 0.94919 0.0
C1138 C 0.22782 0.02372 0.98433 0.0
C1139 C 0.34438 0.00988 0.9671 0.0
C1140 C 0.25025 0.93762 0.04436 0.0
C1141 C 0.23058 0.90524 0.02289 0.0
C1142 C 0.26805 0.97421 0.02942 0.0
C1143 C 0.26593 0.97862 0.99214 0.0
C1144 C 0.24558 0.94617 0.9704 0.0
C1145 C 0.22846 0.90999 0.98596 0.0
C1146 C 0.28975 0.00814 0.05347 0.0
C1147 C 0.24255 0.94953 0.93054 0.0
H1148 H 0.27475 0.09271 0.95581 0.0
H1149 H 0.37254 0.08062 0.94109 0.0
H1150 H 0.20897 0.99652 0.97058 0.0
H1151 H 0.22548 0.01777 0.01338 0.0
H1152 H 0.21749 0.04382 0.97885 0.0
H1153 H 0.37352 0.02538 0.95598 0.0
H1154 H 0.34613 0.00356 0.99561 0.0
H1155 H 0.32834 0.98232 0.95303 0.0
H1156 H 0.25183 0.93443 0.07287 0.0
H1157 H 0.21417 0.88539 0.96884 0.0
H1158 H 0.27869 0.02798 0.05068 0.0
H1159 H 0.31998 0.0238 0.04544 0.0
H1160 H 0.28804 1.00001 0.082 0.0
H1161 H 0.23248 0.96969 0.92446 0.0
H1162 H 0.22296 0.9218 0.91792 0.0
H1163 H 0.27089 0.96092 0.91814 0.0
C1164 C 0.43866 0.69952 0.36604 0.0
C1165 C 0.45072 0.7329 0.34629 0.0
C1166 C 0.40346 0.66713 0.35945 0.0
C1167 C 0.37971 0.66805 0.33239 0.0
C1168 C 0.39116 0.70195 0.31305 0.0
C1169 C 0.42653 0.73399 0.32025 0.0
C1170 C 0.39228 0.63151 0.38067 0.0
C1171 C 0.36653 0.70404 0.2841 0.0
C1172 C 0.31132 0.57264 0.29143 0.0
C1173 C 0.27769 0.56269 0.3099 0.0
C1174 C 0.34438 0.60738 0.2977 0.0
C1175 C 0.34391 0.63283 0.32315 0.0
C1176 C 0.30979 0.62357 0.34106 0.0
C1177 C 0.27708 0.5886 0.33421 0.0
C1178 C 0.3802 0.61621 0.27803 0.0
C1179 C 0.30815 0.65008 0.36824 0.0
H1180 H 0.45734 0.69825 0.38587 0.0
H1181 H 0.43538 0.75984 0.30525 0.0
H1182 H 0.36402 0.62101 0.39295 0.0
H1183 H 0.39015 0.6089 0.36265 0.0
H1184 H 0.41296 0.6361 0.40212 0.0
H1185 H 0.37843 0.73313 0.27308 0.0
H1186 H 0.36344 0.68454 0.26202 0.0
H1187 H 0.33774 0.69468 0.29458 0.0
H1188 H 0.31222 0.55261 0.27296 0.0
H1189 H 0.25107 0.58138 0.3482 0.0
H1190 H 0.40162 0.61777 0.29727 0.0
H1191 H 0.39238 0.64426 0.26477 0.0
H1192 H 0.37529 0.59448 0.25755 0.0
H1193 H 0.3264 0.65297 0.39137 0.0
H1194 H 0.27891 0.63986 0.37806 0.0
H1195 H 0.31925 0.67876 0.35659 0.0
C1196 C 0.70079 0.42821 0.65113 0.0
C1197 C 0.71635 0.44919 0.68237 0.0
C1198 C 0.69782 0.39262 0.64649 0.0
C1199 C 0.71181 0.37832 0.67331 0.0
C1200 C 0.72665 0.39906 0.70533 0.0
C1201 C 0.72835 0.43414 0.70963 0.0
C1202 C 0.68099 0.37098 0.61235 0.0
C1203 C 0.74262 0.38522 0.73421 0.0
C1204 C 0.68759 0.27509 0.6725 0.0
C1205 C 0.71908 0.27772 0.65481 0.0
C1206 C 0.68437 0.3075 0.67813 0.0
C1207 C 0.71385 0.34335 0.66663 0.0
C1208 C 0.74578 0.34604 0.6489 0.0
C1209 C 0.74777 0.3131 0.64284 0.0
C1210 C 0.64951 0.30342 0.69631 0.0
C1211 C 0.7782 0.3838 0.6369 0.0
H1212 H 0.69149 0.44 0.63012 0.0
H1213 H 0.74076 0.4507 0.7336 0.0
H1214 H 0.70348 0.37043 0.59615 0.0
H1215 H 0.65946 0.34113 0.61835 0.0
H1216 H 0.66758 0.38388 0.59608 0.0
H1217 H 0.75105 0.40354 0.75832 0.0
H1218 H 0.72158 0.35582 0.7421 0.0
H1219 H 0.76786 0.3847 0.72387 0.0
H1220 H 0.66537 0.24762 0.68162 0.0
H1221 H 0.77231 0.31509 0.62952 0.0
H1222 H 0.63585 0.31534 0.67911 0.0
H1223 H 0.65751 0.31975 0.7216 0.0
H1224 H 0.6285 0.27337 0.70238 0.0
H1225 H 0.76792 0.39724 0.61756 0.0
H1226 H 0.80131 0.38105 0.62416 0.0
H1227 H 0.79005 0.40323 0.66008 0.0
C1228 C 0.42504 0.71814 0.95273 0.0
C1229 C 0.44239 0.7114 0.98185 0.0
C1230 C 0.38973 0.71597 0.95652 0.0
C1231 C 0.37121 0.70617 0.99006 0.0
C1232 C 0.38774 0.69722 0.01896 0.0
C1233 C 0.42335 0.70036 0.01459 0.0
C1234 C 0.37333 0.7263 0.92524 0.0
C1235 C 0.36861 0.68596 0.05494 0.0
C1236 C 0.30749 0.74552 0.01538 0.0
C1237 C 0.27138 0.71451 0.00893 0.0
C1238 C 0.34013 0.74326 0.00878 0.0
C1239 C 0.33656 0.70889 0.996 0.0
C1240 C 0.30011 0.67734 0.98961 0.0
C1241 C 0.26788 0.68066 0.9958 0.0
C1242 C 0.37846 0.77777 0.01538 0.0
C1243 C 0.2952 0.64005 0.97665 0.0
H1244 H 0.43998 0.72699 0.9275 0.0
H1245 H 0.43677 0.69493 0.03703 0.0
H1246 H 0.34342 0.70412 0.92078 0.0
H1247 H 0.37361 0.75315 0.93112 0.0
H1248 H 0.38952 0.73008 0.90026 0.0
H1249 H 0.383 0.67574 0.07329 0.0
H1250 H 0.36869 0.7107 0.06745 0.0
H1251 H 0.33862 0.66333 0.0519 0.0
H1252 H 0.3102 0.77187 0.02505 0.0
H1253 H 0.23991 0.65664 0.99093 0.0
H1254 H 0.39577 0.7854 0.99069 0.0
H1255 H 0.39382 0.77142 0.03621 0.0
H1256 H 0.37632 0.80271 0.02411 0.0
H1257 H 0.31019 0.64413 0.95091 0.0
H1258 H 0.26494 0.61825 0.97296 0.0
H1259 H 0.30805 0.62918 0.99607 0.0
C1260 C 0.58964 0.27487 0.35521 0.0
C1261 C 0.55765 0.27847 0.34873 0.0
C1262 C 0.6264 0.30634 0.35261 0.0
C1263 C 0.63131 0.34209 0.34275 0.0
C1264 C 0.59919 0.34604 0.33672 0.0
C1265 C 0.56287 0.31437 0.34022 0.0
C1266 C 0.65998 0.30124 0.35994 0.0
C1267 C 0.60315 0.38363 0.32596 0.0
C1268 C 0.72131 0.43562 0.35967 0.0
C1269 C 0.7382 0.44418 0.32572 0.0
C1270 C 0.68763 0.40145 0.36615 0.0
C1271 C 0.66987 0.37547 0.33786 0.0
C1272 C 0.68742 0.38316 0.30392 0.0
C1273 C 0.72154 0.41717 0.29839 0.0
C1274 C 0.67016 0.39399 0.4029 0.0
C1275 C 0.6692 0.35633 0.27294 0.0
H1276 H 0.58602 0.24729 0.36159 0.0
H1277 H 0.53847 0.31784 0.33616 0.0
H1278 H 0.67697 0.30675 0.33526 0.0
H1279 H 0.67867 0.32205 0.38024 0.0
H1280 H 0.65136 0.27221 0.36954 0.0
H1281 H 0.57531 0.38184 0.32197 0.0
H1282 H 0.61904 0.4053 0.34669 0.0
H1283 H 0.61955 0.39366 0.30078 0.0
H1284 H 0.7335 0.45629 0.38097 0.0
H1285 H 0.73472 0.42293 0.2723 0.0
H1286 H 0.66175 0.36481 0.41174 0.0
H1287 H 0.64415 0.39622 0.40216 0.0
H1288 H 0.68979 0.41444 0.42299 0.0
H1289 H 0.66242 0.32725 0.28041 0.0
H1290 H 0.68759 0.36524 0.2489 0.0
H1291 H 0.64213 0.35502 0.26595 0.0
C1292 C 0.3172 0.73561 0.64566 0.0
C1293 C 0.28276 0.7338 0.65401 0.0
C1294 C 0.3213 0.7034 0.64856 0.0
C1295 C 0.29043 0.66873 0.66062 0.0
C1296 C 0.25569 0.66674 0.66918 0.0
C1297 C 0.25216 0.69906 0.66535 0.0
C1298 C 0.35857 0.7064 0.63862 0.0
C1299 C 0.22212 0.63036 0.68234 0.0
C1300 C 0.2807 0.5729 0.64073 0.0
C1301 C 0.29121 0.56389 0.6734 0.0
C1302 C 0.28228 0.6078 0.63559 0.0
C1303 C 0.29389 0.63415 0.66401 0.0
C1304 C 0.30566 0.62586 0.69666 0.0
C1305 C 0.30454 0.59103 0.70085 0.0
C1306 C 0.26997 0.61577 0.60017 0.0
C1307 C 0.31787 0.65307 0.72774 0.0
H1308 H 0.34111 0.76229 0.63714 0.0
H1309 H 0.22507 0.69687 0.67093 0.0
H1310 H 0.37056 0.69928 0.66197 0.0
H1311 H 0.35407 0.68563 0.6173 0.0
H1312 H 0.37962 0.73523 0.62913 0.0
H1313 H 0.19755 0.63392 0.6891 0.0
H1314 H 0.21315 0.60803 0.66164 0.0
H1315 H 0.23012 0.62008 0.70641 0.0
H1316 H 0.26983 0.55212 0.61944 0.0
H1317 H 0.31357 0.58486 0.72591 0.0
H1318 H 0.29121 0.64431 0.59031 0.0
H1319 H 0.24285 0.61559 0.60354 0.0
H1320 H 0.26592 0.59442 0.57958 0.0
H1321 H 0.3404 0.68168 0.71936 0.0
H1322 H 0.32851 0.64356 0.75051 0.0
H1323 H 0.29353 0.65582 0.73708 0.0
C1324 C 0.56893 0.26719 0.96282 0.0
C1325 C 0.55464 0.28495 0.98494 0.0
C1326 C 0.60347 0.26899 0.97044 0.0
C1327 C 0.624 0.28843 0.00131 0.0
C1328 C 0.61052 0.3075 0.02312 0.0
C1329 C 0.57623 0.30587 0.01448 0.0
C1330 C 0.6172 0.24874 0.94618 0.0
C1331 C 0.63149 0.32829 0.05641 0.0
C1332 C 0.68525 0.25096 0.03902 0.0
C1333 C 0.7211 0.27776 0.02645 0.0
C1334 C 0.65367 0.2551 0.03239 0.0
C1335 C 0.65806 0.28634 0.01197 0.0
C1336 C 0.69454 0.31403 1e-05 0.0
C1337 C 0.72579 0.30952 0.00766 0.0
C1338 C 0.6154 0.22531 0.04616 0.0
C1339 C 0.70025 0.34735 0.9777 0.0
H1340 H 0.55244 0.25054 0.94021 0.0
H1341 H 0.56602 0.32049 0.03132 0.0
H1342 H 0.64715 0.268 0.93853 0.0
H1343 H 0.61599 0.2243 0.96048 0.0
H1344 H 0.59993 0.23807 0.9215 0.0
H1345 H 0.61858 0.34373 0.06925 0.0
H1346 H 0.63142 0.30774 0.07591 0.0
H1347 H 0.66148 0.34886 0.05008 0.0
H1348 H 0.68188 0.22637 0.05346 0.0
H1349 H 0.75362 0.32992 -0.00233 0.0
H1350 H 0.59668 0.20963 0.0234 0.0
H1351 H 0.60174 0.23888 0.06097 0.0
H1352 H 0.61735 0.20459 0.06404 0.0
H1353 H 0.68599 0.33704 0.95153 0.0
H1354 H 0.73069 0.36786 0.97289 0.0
H1355 H 0.68719 0.36242 0.99086 0.0
loop_
_geom_bond_atom_site_label_1
_geom_bond_atom_site_label_2
_geom_bond_distance
_geom_bond_site_symmetry_2
_ccdc_geom_bond_type
Co0 N4 2.148 . S
Co0 N10 2.128 . S
Co0 N20 2.194 . S
Co0 O25 2.351 . S
Co0 O26 2.155 . S
Co0 O27 2.096 . S
C1 N4 1.301 . S
C1 N5 1.328 . S
C1 H6 0.930 . S
C2 C3 1.333 . S
C2 N4 1.317 . S
C2 H7 0.930 . S
C3 C2 1.333 . S
C3 N5 1.350 . S
C3 H29 0.931 . S
N4 Co0 2.148 . S
N4 C1 1.301 . S
N4 C2 1.317 . S
N5 C1 1.328 . S
N5 C3 1.350 . S
H6 C1 0.930 . S
H7 C2 0.930 . S
C8 O9 1.224 . S
C8 O27 1.247 . S
O9 C8 1.224 . S
N10 Co0 2.128 . S
N10 C11 1.355 . S
N10 C13 1.311 . S
C11 N10 1.355 . S
C11 C12 1.363 . S
C11 H23 0.929 . S
C12 C11 1.363 . S
C12 N14 1.375 . S
C12 H30 0.931 . S
C13 N10 1.311 . S
C13 N14 1.347 . S
C13 H24 0.929 . S
N14 C12 1.375 . S
N14 C13 1.347 . S
C15 C18 1.365 . S
C15 N20 1.328 . S
C15 H21 0.929 . S
C16 C17 1.362 . S
C16 C19 1.378 . S
C16 H31 0.929 . S
C17 C16 1.362 . S
C17 C18 1.366 . S
C18 C15 1.365 . S
C18 C17 1.366 . S
C18 H32 0.930 . S
C19 C16 1.378 . S
C19 N20 1.315 . S
C19 H22 0.930 . S
N20 Co0 2.194 . S
N20 C15 1.328 . S
N20 C19 1.315 . S
H21 C15 0.929 . S
H22 C19 0.930 . S
H23 C11 0.929 . S
H24 C13 0.929 . S
O25 Co0 2.351 . S
O25 C28 1.244 . S
O26 Co0 2.155 . S
O26 C28 1.240 . S
O27 Co0 2.096 . S
O27 C8 1.247 . S
C28 O25 1.244 . S
C28 O26 1.240 . S
H29 C3 0.931 . S
H30 C12 0.931 . S
H31 C16 0.929 . S
H32 C18 0.930 . S
Co33 N37 2.148 . S
Co33 N43 2.128 . S
Co33 N53 2.194 . S
Co33 O58 2.351 . S
Co33 O59 2.155 . S
Co33 O60 2.096 . S
C34 N37 1.301 . S
C34 N38 1.328 . S
C34 H39 0.930 . S
C35 C36 1.333 . S
C35 N37 1.317 . S
C35 H40 0.930 . S
C36 C35 1.333 . S
C36 N38 1.350 . S
C36 H62 0.931 . S
N37 Co33 2.148 . S
N37 C34 1.301 . S
N37 C35 1.317 . S
N38 C34 1.328 . S
N38 C36 1.350 . S
H39 C34 0.930 . S
H40 C35 0.930 . S
C41 O42 1.224 . S
C41 O60 1.247 . S
O42 C41 1.224 . S
N43 Co33 2.128 . S
N43 C44 1.355 . S
N43 C46 1.311 . S
C44 N43 1.355 . S
C44 C45 1.363 . S
C44 H56 0.929 . S
C45 C44 1.363 . S
C45 N47 1.375 . S
C45 H63 0.931 . S
C46 N43 1.311 . S
C46 N47 1.347 . S
C46 H57 0.929 . S
N47 C45 1.375 . S
N47 C46 1.347 . S
C48 C51 1.365 . S
C48 N53 1.328 . S
C48 H54 0.929 . S
C49 C50 1.362 . S
C49 C52 1.378 . S
C49 H64 0.929 . S
C50 C49 1.362 . S
C50 C51 1.366 . S
C51 C48 1.365 . S
C51 C50 1.366 . S
C51 H65 0.930 . S
C52 C49 1.378 . S
C52 N53 1.315 . S
C52 H55 0.930 . S
N53 Co33 2.194 . S
N53 C48 1.328 . S
N53 C52 1.315 . S
H54 C48 0.929 . S
H55 C52 0.930 . S
H56 C44 0.929 . S
H57 C46 0.929 . S
O58 Co33 2.351 . S
O58 C61 1.244 . S
O59 Co33 2.155 . S
O59 C61 1.240 . S
O60 Co33 2.096 . S
O60 C41 1.247 . S
C61 O58 1.244 . S
C61 O59 1.240 . S
H62 C36 0.931 . S
H63 C45 0.931 . S
H64 C49 0.929 . S
H65 C51 0.930 . S
Co66 N70 2.148 . S
Co66 N76 2.128 1_554 S
Co66 N86 2.194 1_554 S
Co66 O91 2.351 1_554 S
Co66 O92 2.155 1_554 S
Co66 O93 2.096 . S
C67 N70 1.301 1_556 S
C67 N71 1.328 1_556 S
C67 H72 0.930 . S
C68 C69 1.333 . S
C68 N70 1.317 . S
C68 H73 0.930 . S
C69 C68 1.333 . S
C69 N71 1.350 . S
C69 H95 0.931 . S
N70 Co66 2.148 . S
N70 C67 1.301 1_554 S
N70 C68 1.317 . S
N71 C67 1.328 1_554 S
N71 C69 1.350 . S
H72 C67 0.930 . S
H73 C68 0.930 . S
C74 O75 1.224 . S
C74 O93 1.247 . S
O75 C74 1.224 . S
N76 Co66 2.128 1_556 S
N76 C77 1.355 . S
N76 C79 1.311 1_556 S
C77 N76 1.355 . S
C77 C78 1.363 . S
C77 H89 0.929 . S
C78 C77 1.363 . S
C78 N80 1.375 . S
C78 H96 0.931 . S
C79 N76 1.311 1_554 S
C79 N80 1.347 1_554 S
C79 H90 0.929 . S
N80 C78 1.375 . S
N80 C79 1.347 1_556 S
C81 C84 1.365 . S
C81 N86 1.328 . S
C81 H87 0.929 . S
C82 C83 1.362 1_554 S
C82 C85 1.378 . S
C82 H97 0.929 . S
C83 C82 1.362 1_556 S
C83 C84 1.366 . S
C84 C81 1.365 . S
C84 C83 1.366 . S
C84 H98 0.930 . S
C85 C82 1.378 . S
C85 N86 1.315 1_554 S
C85 H88 0.930 . S
N86 Co66 2.194 1_556 S
N86 C81 1.328 . S
N86 C85 1.315 1_556 S
H87 C81 0.929 . S
H88 C85 0.930 . S
H89 C77 0.929 . S
H90 C79 0.929 . S
O91 Co66 2.351 1_556 S
O91 C94 1.244 . S
O92 Co66 2.155 1_556 S
O92 C94 1.240 . S
O93 Co66 2.096 . S
O93 C74 1.247 . S
C94 O91 1.244 . S
C94 O92 1.240 . S
H95 C69 0.931 . S
H96 C78 0.931 . S
H97 C82 0.929 . S
H98 C84 0.930 . S
Co99 N103 2.148 . S
Co99 N109 2.128 . S
Co99 N119 2.194 . S
Co99 O124 2.351 . S
Co99 O125 2.155 . S
Co99 O126 2.096 . S
C100 N103 1.301 . S
C100 N104 1.328 . S
C100 H105 0.930 . S
C101 C102 1.333 . S
C101 N103 1.317 . S
C101 H106 0.930 . S
C102 C101 1.333 . S
C102 N104 1.350 . S
C102 H128 0.931 . S
N103 Co99 2.148 . S
N103 C100 1.301 . S
N103 C101 1.317 . S
N104 C100 1.328 . S
N104 C102 1.350 . S
H105 C100 0.930 . S
H106 C101 0.930 . S
C107 O108 1.224 . S
C107 O126 1.247 . S
O108 C107 1.224 . S
N109 Co99 2.128 . S
N109 C110 1.355 . S
N109 C112 1.311 . S
C110 N109 1.355 . S
C110 C111 1.363 . S
C110 H122 0.929 . S
C111 C110 1.363 . S
C111 N113 1.375 . S
C111 H129 0.931 . S
C112 N109 1.311 . S
C112 N113 1.347 . S
C112 H123 0.929 . S
N113 C111 1.375 . S
N113 C112 1.347 . S
C114 C117 1.365 . S
C114 N119 1.328 . S
C114 H120 0.929 . S
C115 C116 1.362 . S
C115 C118 1.378 . S
C115 H130 0.929 . S
C116 C115 1.362 . S
C116 C117 1.366 . S
C117 C114 1.365 . S
C117 C116 1.366 . S
C117 H131 0.930 . S
C118 C115 1.378 . S
C118 N119 1.315 . S
C118 H121 0.930 . S
N119 Co99 2.194 . S
N119 C114 1.328 . S
N119 C118 1.315 . S
H120 C114 0.929 . S
H121 C118 0.930 . S
H122 C110 0.929 . S
H123 C112 0.929 . S
O124 Co99 2.351 . S
O124 C127 1.244 . S
O125 Co99 2.155 . S
O125 C127 1.240 . S
O126 Co99 2.096 . S
O126 C107 1.247 . S
C127 O124 1.244 . S
C127 O125 1.240 . S
H128 C102 0.931 . S
H129 C111 0.931 . S
H130 C115 0.929 . S
H131 C117 0.930 . S
Co132 N136 2.148 . S
Co132 N142 2.128 . S
Co132 N152 2.194 . S
Co132 O157 2.351 . S
Co132 O158 2.155 . S
Co132 O159 2.096 . S
C133 N136 1.301 . S
C133 N137 1.328 . S
C133 H138 0.930 . S
C134 C135 1.333 . S
C134 N136 1.317 . S
C134 H139 0.930 . S
C135 C134 1.333 . S
C135 N137 1.350 . S
C135 H161 0.931 . S
N136 Co132 2.148 . S
N136 C133 1.301 . S
N136 C134 1.317 . S
N137 C133 1.328 . S
N137 C135 1.350 . S
H138 C133 0.930 . S
H139 C134 0.930 . S
C140 O141 1.224 . S
C140 O159 1.247 . S
O141 C140 1.224 . S
N142 Co132 2.128 . S
N142 C143 1.355 . S
N142 C145 1.311 . S
C143 N142 1.355 . S
C143 C144 1.363 . S
C143 H155 0.929 . S
C144 C143 1.363 . S
C144 N146 1.375 . S
C144 H162 0.931 . S
C145 N142 1.311 . S
C145 N146 1.347 . S
C145 H156 0.929 . S
N146 C144 1.375 . S
N146 C145 1.347 . S
C147 C150 1.365 . S
C147 N152 1.328 . S
C147 H153 0.929 . S
C148 C149 1.362 . S
C148 C151 1.378 . S
C148 H163 0.929 . S
C149 C148 1.362 . S
C149 C150 1.366 . S
C150 C147 1.365 . S
C150 C149 1.366 . S
C150 H164 0.930 . S
C151 C148 1.378 . S
C151 N152 1.315 . S
C151 H154 0.930 . S
N152 Co132 2.194 . S
N152 C147 1.328 . S
N152 C151 1.315 . S
H153 C147 0.929 . S
H154 C151 0.930 . S
H155 C143 0.929 . S
H156 C145 0.929 . S
O157 Co132 2.351 . S
O157 C160 1.244 . S
O158 Co132 2.155 . S
O158 C160 1.240 . S
O159 Co132 2.096 . S
O159 C140 1.247 . S
C160 O157 1.244 . S
C160 O158 1.240 . S
H161 C135 0.931 . S
H162 C144 0.931 . S
H163 C148 0.929 . S
H164 C150 0.930 . S
Co165 N169 2.148 . S
Co165 N175 2.128 1_554 S
Co165 N185 2.194 1_554 S
Co165 O190 2.351 1_554 S
Co165 O191 2.155 1_554 S
Co165 O192 2.096 . S
C166 N169 1.301 1_556 S
C166 N170 1.328 1_556 S
C166 H171 0.930 . S
C167 C168 1.333 . S
C167 N169 1.317 . S
C167 H172 0.930 . S
C168 C167 1.333 . S
C168 N170 1.350 . S
C168 H194 0.931 . S
N169 Co165 2.148 . S
N169 C166 1.301 1_554 S
N169 C167 1.317 . S
N170 C166 1.328 1_554 S
N170 C168 1.350 . S
H171 C166 0.930 . S
H172 C167 0.930 . S
C173 O174 1.224 . S
C173 O192 1.247 . S
O174 C173 1.224 . S
N175 Co165 2.128 1_556 S
N175 C176 1.355 . S
N175 C178 1.311 1_556 S
C176 N175 1.355 . S
C176 C177 1.363 . S
C176 H188 0.929 . S
C177 C176 1.363 . S
C177 N179 1.375 . S
C177 H195 0.931 . S
C178 N175 1.311 1_554 S
C178 N179 1.347 1_554 S
C178 H189 0.929 . S
N179 C177 1.375 . S
N179 C178 1.347 1_556 S
C180 C183 1.365 . S
C180 N185 1.328 . S
C180 H186 0.929 . S
C181 C182 1.362 1_554 S
C181 C184 1.378 . S
C181 H196 0.929 . S
C182 C181 1.362 1_556 S
C182 C183 1.366 . S
C183 C180 1.365 . S
C183 C182 1.366 . S
C183 H197 0.930 . S
C184 C181 1.378 . S
C184 N185 1.315 1_554 S
C184 H187 0.930 . S
N185 Co165 2.194 1_556 S
N185 C180 1.328 . S
N185 C184 1.315 1_556 S
H186 C180 0.929 . S
H187 C184 0.930 . S
H188 C176 0.929 . S
H189 C178 0.929 . S
O190 Co165 2.351 1_556 S
O190 C193 1.244 . S
O191 Co165 2.155 1_556 S
O191 C193 1.240 . S
O192 Co165 2.096 . S
O192 C173 1.247 . S
C193 O190 1.244 . S
C193 O191 1.240 . S
H194 C168 0.931 . S
H195 C177 0.931 . S
H196 C181 0.929 . S
H197 C183 0.930 . S
Co198 N202 2.148 . S
Co198 N208 2.128 . S
Co198 N218 2.194 . S
Co198 O223 2.351 . S
Co198 O224 2.155 . S
Co198 O225 2.096 . S
C199 N202 1.301 . S
C199 N203 1.328 . S
C199 H204 0.930 . S
C200 C201 1.333 . S
C200 N202 1.317 . S
C200 H205 0.930 . S
C201 C200 1.333 . S
C201 N203 1.350 . S
C201 H227 0.931 . S
N202 Co198 2.148 . S
N202 C199 1.301 . S
N202 C200 1.317 . S
N203 C199 1.328 . S
N203 C201 1.350 . S
H204 C199 0.930 . S
H205 C200 0.930 . S
C206 O207 1.224 . S
C206 O225 1.247 . S
O207 C206 1.224 . S
N208 Co198 2.128 . S
N208 C209 1.355 . S
N208 C211 1.311 . S
C209 N208 1.355 . S
C209 C210 1.363 . S
C209 H221 0.929 . S
C210 C209 1.363 . S
C210 N212 1.375 . S
C210 H228 0.931 . S
C211 N208 1.311 . S
C211 N212 1.347 . S
C211 H222 0.929 . S
N212 C210 1.375 . S
N212 C211 1.347 . S
C213 C216 1.365 . S
C213 N218 1.328 . S
C213 H219 0.929 . S
C214 C215 1.362 . S
C214 C217 1.378 . S
C214 H229 0.929 . S
C215 C214 1.362 . S
C215 C216 1.366 . S
C216 C213 1.365 . S
C216 C215 1.366 . S
C216 H230 0.930 . S
C217 C214 1.378 . S
C217 N218 1.315 . S
C217 H220 0.930 . S
N218 Co198 2.194 . S
N218 C213 1.328 . S
N218 C217 1.315 . S
H219 C213 0.929 . S
H220 C217 0.930 . S
H221 C209 0.929 . S
H222 C211 0.929 . S
O223 Co198 2.351 . S
O223 C226 1.244 . S
O224 Co198 2.155 . S
O224 C226 1.240 . S
O225 Co198 2.096 . S
O225 C206 1.247 . S
C226 O223 1.244 . S
C226 O224 1.240 . S
H227 C201 0.931 . S
H228 C210 0.931 . S
H229 C214 0.929 . S
H230 C216 0.930 . S
Co231 N235 2.148 . S
Co231 N241 2.128 . S
Co231 N251 2.194 . S
Co231 O256 2.351 . S
Co231 O257 2.155 . S
Co231 O258 2.096 . S
C232 N235 1.301 . S
C232 N236 1.328 . S
C232 H237 0.930 . S
C233 C234 1.333 . S
C233 N235 1.317 . S
C233 H238 0.930 . S
C234 C233 1.333 . S
C234 N236 1.350 . S
C234 H260 0.931 . S
N235 Co231 2.148 . S
N235 C232 1.301 . S
N235 C233 1.317 . S
N236 C232 1.328 . S
N236 C234 1.350 . S
H237 C232 0.930 . S
H238 C233 0.930 . S
C239 O240 1.224 . S
C239 O258 1.247 . S
O240 C239 1.224 . S
N241 Co231 2.128 . S
N241 C242 1.355 . S
N241 C244 1.311 . S
C242 N241 1.355 . S
C242 C243 1.363 . S
C242 H254 0.929 . S
C243 C242 1.363 . S
C243 N245 1.375 . S
C243 H261 0.931 . S
C244 N241 1.311 . S
C244 N245 1.347 . S
C244 H255 0.929 . S
N245 C243 1.375 . S
N245 C244 1.347 . S
C246 C249 1.365 . S
C246 N251 1.328 . S
C246 H252 0.929 . S
C247 C248 1.362 . S
C247 C250 1.378 . S
C247 H262 0.929 . S
C248 C247 1.362 . S
C248 C249 1.366 . S
C249 C246 1.365 . S
C249 C248 1.366 . S
C249 H263 0.930 . S
C250 C247 1.378 . S
C250 N251 1.315 . S
C250 H253 0.930 . S
N251 Co231 2.194 . S
N251 C246 1.328 . S
N251 C250 1.315 . S
H252 C246 0.929 . S
H253 C250 0.930 . S
H254 C242 0.929 . S
H255 C244 0.929 . S
O256 Co231 2.351 . S
O256 C259 1.244 . S
O257 Co231 2.155 . S
O257 C259 1.240 . S
O258 Co231 2.096 . S
O258 C239 1.247 . S
C259 O256 1.244 . S
C259 O257 1.240 . S
H260 C234 0.931 . S
H261 C243 0.931 . S
H262 C247 0.929 . S
H263 C249 0.930 . S
Co264 N268 2.148 . S
Co264 N274 2.128 1_556 S
Co264 N284 2.194 1_556 S
Co264 O289 2.351 1_556 S
Co264 O290 2.155 1_556 S
Co264 O291 2.096 . S
C265 N268 1.301 1_554 S
C265 N269 1.328 1_554 S
C265 H270 0.930 . S
C266 C267 1.333 . S
C266 N268 1.317 . S
C266 H271 0.930 . S
C267 C266 1.333 . S
C267 N269 1.350 . S
C267 H293 0.931 . S
N268 Co264 2.148 . S
N268 C265 1.301 1_556 S
N268 C266 1.317 . S
N269 C265 1.328 1_556 S
N269 C267 1.350 . S
H270 C265 0.930 . S
H271 C266 0.930 . S
C272 O273 1.224 . S
C272 O291 1.247 . S
O273 C272 1.224 . S
N274 Co264 2.128 1_554 S
N274 C275 1.355 . S
N274 C277 1.311 1_554 S
C275 N274 1.355 . S
C275 C276 1.363 . S
C275 H287 0.929 . S
C276 C275 1.363 . S
C276 N278 1.375 . S
C276 H294 0.931 . S
C277 N274 1.311 1_556 S
C277 N278 1.347 1_556 S
C277 H288 0.929 . S
N278 C276 1.375 . S
N278 C277 1.347 1_554 S
C279 C282 1.365 . S
C279 N284 1.328 . S
C279 H285 0.929 . S
C280 C281 1.362 1_556 S
C280 C283 1.378 . S
C280 H295 0.929 . S
C281 C280 1.362 1_554 S
C281 C282 1.366 . S
C282 C279 1.365 . S
C282 C281 1.366 . S
C282 H296 0.930 . S
C283 C280 1.378 . S
C283 N284 1.315 1_556 S
C283 H286 0.930 . S
N284 Co264 2.194 1_554 S
N284 C279 1.328 . S
N284 C283 1.315 1_554 S
H285 C279 0.929 . S
H286 C283 0.930 . S
H287 C275 0.929 . S
H288 C277 0.929 . S
O289 Co264 2.351 1_554 S
O289 C292 1.244 . S
O290 Co264 2.155 1_554 S
O290 C292 1.240 . S
O291 Co264 2.096 . S
O291 C272 1.247 . S
C292 O289 1.244 . S
C292 O290 1.240 . S
H293 C267 0.931 . S
H294 C276 0.931 . S
H295 C280 0.929 . S
H296 C282 0.930 . S
Co297 N301 2.148 . S
Co297 N307 2.128 . S
Co297 N317 2.194 . S
Co297 O322 2.351 . S
Co297 O323 2.155 . S
Co297 O324 2.096 . S
C298 N301 1.301 . S
C298 N302 1.328 . S
C298 H303 0.930 . S
C299 C300 1.333 . S
C299 N301 1.317 . S
C299 H304 0.930 . S
C300 C299 1.333 . S
C300 N302 1.350 . S
C300 H326 0.931 . S
N301 Co297 2.148 . S
N301 C298 1.301 . S
N301 C299 1.317 . S
N302 C298 1.328 . S
N302 C300 1.350 . S
H303 C298 0.930 . S
H304 C299 0.930 . S
C305 O306 1.224 . S
C305 O324 1.247 . S
O306 C305 1.224 . S
N307 Co297 2.128 . S
N307 C308 1.355 . S
N307 C310 1.311 . S
C308 N307 1.355 . S
C308 C309 1.363 . S
C308 H320 0.929 . S
C309 C308 1.363 . S
C309 N311 1.375 . S
C309 H327 0.931 . S
C310 N307 1.311 . S
C310 N311 1.347 . S
C310 H321 0.929 . S
N311 C309 1.375 . S
N311 C310 1.347 . S
C312 C315 1.365 . S
C312 N317 1.328 . S
C312 H318 0.929 . S
C313 C314 1.362 . S
C313 C316 1.378 . S
C313 H328 0.929 . S
C314 C313 1.362 . S
C314 C315 1.366 . S
C315 C312 1.365 . S
C315 C314 1.366 . S
C315 H329 0.930 . S
C316 C313 1.378 . S
C316 N317 1.315 . S
C316 H319 0.930 . S
N317 Co297 2.194 . S
N317 C312 1.328 . S
N317 C316 1.315 . S
H318 C312 0.929 . S
H319 C316 0.930 . S
H320 C308 0.929 . S
H321 C310 0.929 . S
O322 Co297 2.351 . S
O322 C325 1.244 . S
O323 Co297 2.155 . S
O323 C325 1.240 . S
O324 Co297 2.096 . S
O324 C305 1.247 . S
C325 O322 1.244 . S
C325 O323 1.240 . S
H326 C300 0.931 . S
H327 C309 0.931 . S
H328 C313 0.929 . S
H329 C315 0.930 . S
Co330 N334 2.148 . S
Co330 N340 2.128 . S
Co330 N350 2.194 . S
Co330 O355 2.351 . S
Co330 O356 2.155 . S
Co330 O357 2.096 . S
C331 N334 1.301 . S
C331 N335 1.328 . S
C331 H336 0.930 . S
C332 C333 1.333 . S
C332 N334 1.317 . S
C332 H337 0.930 . S
C333 C332 1.333 . S
C333 N335 1.350 . S
C333 H359 0.931 . S
N334 Co330 2.148 . S
N334 C331 1.301 . S
N334 C332 1.317 . S
N335 C331 1.328 . S
N335 C333 1.350 . S
H336 C331 0.930 . S
H337 C332 0.930 . S
C338 O339 1.224 . S
C338 O357 1.247 . S
O339 C338 1.224 . S
N340 Co330 2.128 . S
N340 C341 1.355 . S
N340 C343 1.311 . S
C341 N340 1.355 . S
C341 C342 1.363 . S
C341 H353 0.929 . S
C342 C341 1.363 . S
C342 N344 1.375 . S
C342 H360 0.931 . S
C343 N340 1.311 . S
C343 N344 1.347 . S
C343 H354 0.929 . S
N344 C342 1.375 . S
N344 C343 1.347 . S
C345 C348 1.365 . S
C345 N350 1.328 . S
C345 H351 0.929 . S
C346 C347 1.362 . S
C346 C349 1.378 . S
C346 H361 0.929 . S
C347 C346 1.362 . S
C347 C348 1.366 . S
C348 C345 1.365 . S
C348 C347 1.366 . S
C348 H362 0.930 . S
C349 C346 1.378 . S
C349 N350 1.315 . S
C349 H352 0.930 . S
N350 Co330 2.194 . S
N350 C345 1.328 . S
N350 C349 1.315 . S
H351 C345 0.929 . S
H352 C349 0.930 . S
H353 C341 0.929 . S
H354 C343 0.929 . S
O355 Co330 2.351 . S
O355 C358 1.244 . S
O356 Co330 2.155 . S
O356 C358 1.240 . S
O357 Co330 2.096 . S
O357 C338 1.247 . S
C358 O355 1.244 . S
C358 O356 1.240 . S
H359 C333 0.931 . S
H360 C342 0.931 . S
H361 C346 0.929 . S
H362 C348 0.930 . S
Co363 N367 2.148 . S
Co363 N373 2.128 1_556 S
Co363 N383 2.194 1_556 S
Co363 O388 2.351 1_556 S
Co363 O389 2.155 1_556 S
Co363 O390 2.096 . S
C364 N367 1.301 1_554 S
C364 N368 1.328 1_554 S
C364 H369 0.930 . S
C365 C366 1.333 . S
C365 N367 1.317 . S
C365 H370 0.930 . S
C366 C365 1.333 . S
C366 N368 1.350 . S
C366 H392 0.931 . S
N367 Co363 2.148 . S
N367 C364 1.301 1_556 S
N367 C365 1.317 . S
N368 C364 1.328 1_556 S
N368 C366 1.350 . S
H369 C364 0.930 . S
H370 C365 0.930 . S
C371 O372 1.224 . S
C371 O390 1.247 . S
O372 C371 1.224 . S
N373 Co363 2.128 1_554 S
N373 C374 1.355 . S
N373 C376 1.311 1_554 S
C374 N373 1.355 . S
C374 C375 1.363 . S
C374 H386 0.929 . S
C375 C374 1.363 . S
C375 N377 1.375 . S
C375 H393 0.931 . S
C376 N373 1.311 1_556 S
C376 N377 1.347 1_556 S
C376 H387 0.929 . S
N377 C375 1.375 . S
N377 C376 1.347 1_554 S
C378 C381 1.365 . S
C378 N383 1.328 . S
C378 H384 0.929 . S
C379 C380 1.362 1_556 S
C379 C382 1.378 . S
C379 H394 0.929 . S
C380 C379 1.362 1_554 S
C380 C381 1.366 . S
C381 C378 1.365 . S
C381 C380 1.366 . S
C381 H395 0.930 . S
C382 C379 1.378 . S
C382 N383 1.315 1_556 S
C382 H385 0.930 . S
N383 Co363 2.194 1_554 S
N383 C378 1.328 . S
N383 C382 1.315 1_554 S
H384 C378 0.929 . S
H385 C382 0.930 . S
H386 C374 0.929 . S
H387 C376 0.929 . S
O388 Co363 2.351 1_554 S
O388 C391 1.244 . S
O389 Co363 2.155 1_554 S
O389 C391 1.240 . S
O390 Co363 2.096 . S
O390 C371 1.247 . S
C391 O388 1.244 . S
C391 O389 1.240 . S
H392 C366 0.931 . S
H393 C375 0.931 . S
H394 C379 0.929 . S
H395 C381 0.930 . S
C396 C397 1.391 . S
C396 C398 1.394 1_655 S
C396 H412 0.931 . S
C397 C396 1.391 . S
C397 C401 1.376 . S
C398 C396 1.394 1_455 S
C398 C399 1.369 1_455 S
C398 C402 1.531 . S
C399 C398 1.369 1_655 S
C399 C400 1.410 . S
C399 C407 1.503 1_655 S
C400 C399 1.410 . S
C400 C401 1.392 . S
C400 C403 1.511 . S
C401 C397 1.376 . S
C401 C400 1.392 . S
C401 H413 0.929 . S
C402 C398 1.531 . S
C402 H414 0.960 . S
C402 H415 0.962 . S
C402 H416 0.960 . S
C403 C400 1.511 . S
C403 H417 0.961 . S
C403 H418 0.961 . S
C403 H419 0.961 . S
C404 C405 1.370 . S
C404 C406 1.363 . S
C404 H420 0.931 . S
C405 C404 1.370 . S
C405 C409 1.408 . S
C406 C404 1.363 . S
C406 C407 1.370 . S
C406 C410 1.524 1_455 S
C407 C399 1.503 1_455 S
C407 C406 1.370 . S
C407 C408 1.403 . S
C408 C407 1.403 . S
C408 C409 1.404 . S
C408 C411 1.539 . S
C409 C405 1.408 . S
C409 C408 1.404 . S
C409 H421 0.930 . S
C410 C406 1.524 1_655 S
C410 H422 0.956 1_655 S
C410 H423 0.961 . S
C410 H424 0.961 . S
C411 C408 1.539 . S
C411 H425 0.958 . S
C411 H426 0.961 . S
C411 H427 0.960 . S
H412 C396 0.931 . S
H413 C401 0.929 . S
H414 C402 0.960 . S
H415 C402 0.962 . S
H416 C402 0.960 . S
H417 C403 0.961 . S
H418 C403 0.961 . S
H419 C403 0.961 . S
H420 C404 0.931 . S
H421 C409 0.930 . S
H422 C410 0.956 1_455 S
H423 C410 0.961 . S
H424 C410 0.961 . S
H425 C411 0.958 . S
H426 C411 0.961 . S
H427 C411 0.960 . S
C428 C429 1.391 . S
C428 C430 1.394 . S
C428 H444 0.931 . S
C429 C428 1.391 . S
C429 C433 1.376 . S
C430 C428 1.394 . S
C430 C431 1.369 . S
C430 C434 1.531 . S
C431 C430 1.369 . S
C431 C432 1.410 . S
C431 C439 1.503 1_565 S
C432 C431 1.410 . S
C432 C433 1.392 . S
C432 C435 1.511 1_565 S
C433 C429 1.376 . S
C433 C432 1.392 . S
C433 H445 0.929 . S
C434 C430 1.531 . S
C434 H446 0.960 . S
C434 H447 0.962 . S
C434 H448 0.960 . S
C435 C432 1.511 1_545 S
C435 H449 0.961 . S
C435 H450 0.961 . S
C435 H451 0.961 1_545 S
C436 C437 1.370 . S
C436 C438 1.363 . S
C436 H452 0.931 . S
C437 C436 1.370 . S
C437 C441 1.408 . S
C438 C436 1.363 . S
C438 C439 1.370 . S
C438 C442 1.524 . S
C439 C431 1.503 1_545 S
C439 C438 1.370 . S
C439 C440 1.403 1_545 S
C440 C439 1.403 1_565 S
C440 C441 1.404 1_565 S
C440 C443 1.539 . S
C441 C437 1.408 . S
C441 C440 1.404 1_545 S
C441 H453 0.930 . S
C442 C438 1.524 . S
C442 H454 0.956 . S
C442 H455 0.961 . S
C442 H456 0.961 . S
C443 C440 1.539 . S
C443 H457 0.958 . S
C443 H458 0.961 . S
C443 H459 0.960 . S
H444 C428 0.931 . S
H445 C433 0.929 . S
H446 C434 0.960 . S
H447 C434 0.962 . S
H448 C434 0.960 . S
H449 C435 0.961 . S
H450 C435 0.961 . S
H451 C435 0.961 1_565 S
H452 C436 0.931 . S
H453 C441 0.930 . S
H454 C442 0.956 . S
H455 C442 0.961 . S
H456 C442 0.961 . S
H457 C443 0.958 . S
H458 C443 0.961 . S
H459 C443 0.960 . S
C460 C461 1.391 . S
C460 C462 1.394 . S
C460 H476 0.931 . S
C461 C460 1.391 . S
C461 C465 1.376 . S
C462 C460 1.394 . S
C462 C463 1.369 . S
C462 C466 1.531 . S
C463 C462 1.369 . S
C463 C464 1.410 . S
C463 C471 1.503 . S
C464 C463 1.410 . S
C464 C465 1.392 . S
C464 C467 1.511 . S
C465 C461 1.376 . S
C465 C464 1.392 . S
C465 H477 0.929 . S
C466 C462 1.531 . S
C466 H478 0.960 . S
C466 H479 0.962 . S
C466 H480 0.960 . S
C467 C464 1.511 . S
C467 H481 0.961 . S
C467 H482 0.961 . S
C467 H483 0.961 . S
C468 C469 1.370 . S
C468 C470 1.363 . S
C468 H484 0.931 . S
C469 C468 1.370 . S
C469 C473 1.408 . S
C470 C468 1.363 . S
C470 C471 1.370 . S
C470 C474 1.524 . S
C471 C463 1.503 . S
C471 C470 1.370 . S
C471 C472 1.403 . S
C472 C471 1.403 . S
C472 C473 1.404 . S
C472 C475 1.539 . S
C473 C469 1.408 . S
C473 C472 1.404 . S
C473 H485 0.930 . S
C474 C470 1.524 . S
C474 H486 0.956 . S
C474 H487 0.961 . S
C474 H488 0.961 . S
C475 C472 1.539 . S
C475 H489 0.958 . S
C475 H490 0.961 . S
C475 H491 0.960 . S
H476 C460 0.931 . S
H477 C465 0.929 . S
H478 C466 0.960 . S
H479 C466 0.962 . S
H480 C466 0.960 . S
H481 C467 0.961 . S
H482 C467 0.961 . S
H483 C467 0.961 . S
H484 C468 0.931 . S
H485 C473 0.930 . S
H486 C474 0.956 . S
H487 C474 0.961 . S
H488 C474 0.961 . S
H489 C475 0.958 . S
H490 C475 0.961 . S
H491 C475 0.960 . S
C492 C493 1.391 . S
C492 C494 1.394 1_455 S
C492 H508 0.931 . S
C493 C492 1.391 . S
C493 C497 1.376 . S
C494 C492 1.394 1_655 S
C494 C495 1.369 1_655 S
C494 C498 1.531 . S
C495 C494 1.369 1_455 S
C495 C496 1.410 . S
C495 C503 1.503 1_455 S
C496 C495 1.410 . S
C496 C497 1.392 . S
C496 C499 1.511 . S
C497 C493 1.376 . S
C497 C496 1.392 . S
C497 H509 0.929 . S
C498 C494 1.531 . S
C498 H510 0.960 . S
C498 H511 0.962 . S
C498 H512 0.960 . S
C499 C496 1.511 . S
C499 H513 0.961 . S
C499 H514 0.961 . S
C499 H515 0.961 . S
C500 C501 1.370 . S
C500 C502 1.363 . S
C500 H516 0.931 . S
C501 C500 1.370 . S
C501 C505 1.408 . S
C502 C500 1.363 . S
C502 C503 1.370 . S
C502 C506 1.524 . S
C503 C495 1.503 1_655 S
C503 C502 1.370 . S
C503 C504 1.403 . S
C504 C503 1.403 . S
C504 C505 1.404 . S
C504 C507 1.539 1_655 S
C505 C501 1.408 . S
C505 C504 1.404 . S
C505 H517 0.930 . S
C506 C502 1.524 . S
C506 H518 0.956 . S
C506 H519 0.961 1_655 S
C506 H520 0.961 . S
C507 C504 1.539 1_455 S
C507 H521 0.958 1_455 S
C507 H522 0.961 . S
C507 H523 0.960 . S
H508 C492 0.931 . S
H509 C497 0.929 . S
H510 C498 0.960 . S
H511 C498 0.962 . S
H512 C498 0.960 . S
H513 C499 0.961 . S
H514 C499 0.961 . S
H515 C499 0.961 . S
H516 C500 0.931 . S
H517 C505 0.930 . S
H518 C506 0.956 . S
H519 C506 0.961 1_455 S
H520 C506 0.961 . S
H521 C507 0.958 1_655 S
H522 C507 0.961 . S
H523 C507 0.960 . S
C524 C525 1.391 . S
C524 C526 1.394 1_545 S
C524 H540 0.931 . S
C525 C524 1.391 . S
C525 C529 1.376 . S
C526 C524 1.394 1_565 S
C526 C527 1.369 1_565 S
C526 C530 1.531 . S
C527 C526 1.369 1_545 S
C527 C528 1.410 . S
C527 C535 1.503 1_545 S
C528 C527 1.410 . S
C528 C529 1.392 . S
C528 C531 1.511 . S
C529 C525 1.376 . S
C529 C528 1.392 . S
C529 H541 0.929 . S
C530 C526 1.531 . S
C530 H542 0.960 . S
C530 H543 0.962 . S
C530 H544 0.960 . S
C531 C528 1.511 . S
C531 H545 0.961 . S
C531 H546 0.961 . S
C531 H547 0.961 . S
C532 C533 1.370 . S
C532 C534 1.363 . S
C532 H548 0.931 . S
C533 C532 1.370 . S
C533 C537 1.408 . S
C534 C532 1.363 . S
C534 C535 1.370 . S
C534 C538 1.524 . S
C535 C527 1.503 1_565 S
C535 C534 1.370 . S
C535 C536 1.403 . S
C536 C535 1.403 . S
C536 C537 1.404 . S
C536 C539 1.539 1_565 S
C537 C533 1.408 . S
C537 C536 1.404 . S
C537 H549 0.930 . S
C538 C534 1.524 . S
C538 H550 0.956 . S
C538 H551 0.993 . S
C538 H552 0.961 . S
C539 C536 1.539 1_545 S
C539 H553 0.958 1_545 S
C539 H554 0.961 . S
C539 H555 0.960 . S
H540 C524 0.931 . S
H541 C529 0.929 . S
H542 C530 0.960 . S
H543 C530 0.962 . S
H544 C530 0.960 . S
H545 C531 0.961 . S
H546 C531 0.961 . S
H547 C531 0.961 . S
H548 C532 0.931 . S
H549 C537 0.930 . S
H550 C538 0.956 . S
H551 C538 0.993 . S
H552 C538 0.961 . S
H553 C539 0.958 1_565 S
H554 C539 0.961 . S
H555 C539 0.960 . S
C556 C557 1.391 . S
C556 C558 1.394 . S
C556 H572 0.931 . S
C557 C556 1.391 . S
C557 C561 1.376 . S
C558 C556 1.394 . S
C558 C559 1.369 . S
C558 C562 1.531 . S
C559 C558 1.369 . S
C559 C560 1.410 . S
C559 C567 1.503 . S
C560 C559 1.410 . S
C560 C561 1.392 . S
C560 C563 1.511 . S
C561 C557 1.376 . S
C561 C560 1.392 . S
C561 H573 0.929 . S
C562 C558 1.531 . S
C562 H574 0.960 . S
C562 H575 0.962 . S
C562 H576 0.960 . S
C563 C560 1.511 . S
C563 H577 0.961 . S
C563 H578 0.961 . S
C563 H579 0.961 . S
C564 C565 1.370 . S
C564 C566 1.363 . S
C564 H580 0.931 . S
C565 C564 1.370 . S
C565 C569 1.408 . S
C566 C564 1.363 . S
C566 C567 1.370 . S
C566 C570 1.524 . S
C567 C559 1.503 . S
C567 C566 1.370 . S
C567 C568 1.403 . S
C568 C567 1.403 . S
C568 C569 1.404 . S
C568 C571 1.539 . S
C569 C565 1.408 . S
C569 C568 1.404 . S
C569 H581 0.930 . S
C570 C566 1.524 . S
C570 H582 0.956 . S
C570 H583 0.961 . S
C570 H584 0.961 . S
C571 C568 1.539 . S
C571 H585 0.958 . S
C571 H586 0.961 . S
C571 H587 0.960 . S
H572 C556 0.931 . S
H573 C561 0.929 . S
H574 C562 0.960 . S
H575 C562 0.962 . S
H576 C562 0.960 . S
H577 C563 0.961 . S
H578 C563 0.961 . S
H579 C563 0.961 . S
H580 C564 0.931 . S
H581 C569 0.930 . S
H582 C570 0.956 . S
H583 C570 0.961 . S
H584 C570 0.961 . S
H585 C571 0.958 . S
H586 C571 0.961 . S
H587 C571 0.960 . S
C588 C589 1.391 . S
C588 C590 1.394 . S
C588 H604 0.931 . S
C589 C588 1.391 . S
C589 C593 1.376 . S
C590 C588 1.394 . S
C590 C591 1.369 . S
C590 C594 1.531 . S
C591 C590 1.369 . S
C591 C592 1.410 . S
C591 C599 1.503 . S
C592 C591 1.410 . S
C592 C593 1.392 . S
C592 C595 1.511 . S
C593 C589 1.376 . S
C593 C592 1.392 . S
C593 H605 0.929 . S
C594 C590 1.531 . S
C594 H606 0.960 . S
C594 H607 0.962 . S
C594 H608 0.960 . S
C595 C592 1.511 . S
C595 H609 0.961 . S
C595 H610 0.961 . S
C595 H611 0.961 . S
C596 C597 1.370 . S
C596 C598 1.363 . S
C596 H612 0.931 . S
C597 C596 1.370 . S
C597 C601 1.408 . S
C598 C596 1.363 . S
C598 C599 1.370 . S
C598 C602 1.524 . S
C599 C591 1.503 . S
C599 C598 1.370 . S
C599 C600 1.403 . S
C600 C599 1.403 . S
C600 C601 1.404 . S
C600 C603 1.539 . S
C601 C597 1.408 . S
C601 C600 1.404 . S
C601 H613 0.930 . S
C602 C598 1.524 . S
C602 H614 0.956 . S
C602 H615 0.961 . S
C602 H616 0.961 . S
C603 C600 1.539 . S
C603 H617 0.958 . S
C603 H618 0.961 . S
C603 H619 0.960 . S
H604 C588 0.931 . S
H605 C593 0.929 . S
H606 C594 0.960 . S
H607 C594 0.962 . S
H608 C594 0.960 . S
H609 C595 0.961 . S
H610 C595 0.961 . S
H611 C595 0.961 . S
H612 C596 0.931 . S
H613 C601 0.930 . S
H614 C602 0.956 . S
H615 C602 0.961 . S
H616 C602 0.961 . S
H617 C603 0.958 . S
H618 C603 0.961 . S
H619 C603 0.960 . S
C620 C621 1.391 . S
C620 C622 1.394 . S
C620 H636 0.931 . S
C621 C620 1.391 . S
C621 C625 1.376 . S
C622 C620 1.394 . S
C622 C623 1.369 . S
C622 C626 1.531 . S
C623 C622 1.369 . S
C623 C624 1.410 . S
C623 C631 1.503 . S
C624 C623 1.410 . S
C624 C625 1.392 . S
C624 C627 1.511 . S
C625 C621 1.376 . S
C625 C624 1.392 . S
C625 H637 0.929 . S
C626 C622 1.531 . S
C626 H638 0.960 . S
C626 H639 0.962 . S
C626 H640 0.960 . S
C627 C624 1.511 . S
C627 H641 0.961 . S
C627 H642 0.961 . S
C627 H643 0.961 . S
C628 C629 1.370 . S
C628 C630 1.363 . S
C628 H644 0.931 . S
C629 C628 1.370 . S
C629 C633 1.408 . S
C630 C628 1.363 . S
C630 C631 1.370 . S
C630 C634 1.524 . S
C631 C623 1.503 . S
C631 C630 1.370 . S
C631 C632 1.403 . S
C632 C631 1.403 . S
C632 C633 1.404 . S
C632 C635 1.539 . S
C633 C629 1.408 . S
C633 C632 1.404 . S
C633 H645 0.930 . S
C634 C630 1.524 . S
C634 H646 0.956 . S
C634 H647 0.961 . S
C634 H648 0.961 . S
C635 C632 1.539 . S
C635 H649 0.958 . S
C635 H650 0.961 . S
C635 H651 0.960 . S
H636 C620 0.931 . S
H637 C625 0.929 . S
H638 C626 0.960 . S
H639 C626 0.962 . S
H640 C626 0.960 . S
H641 C627 0.961 . S
H642 C627 0.961 . S
H643 C627 0.961 . S
H644 C628 0.931 . S
H645 C633 0.930 . S
H646 C634 0.956 . S
H647 C634 0.961 . S
H648 C634 0.961 . S
H649 C635 0.958 . S
H650 C635 0.961 . S
H651 C635 0.960 . S
C652 C653 1.391 . S
C652 C654 1.394 . S
C652 H668 0.931 . S
C653 C652 1.391 . S
C653 C657 1.376 . S
C654 C652 1.394 . S
C654 C655 1.369 . S
C654 C658 1.531 . S
C655 C654 1.369 . S
C655 C656 1.410 . S
C655 C663 1.503 . S
C656 C655 1.410 . S
C656 C657 1.392 . S
C656 C659 1.511 . S
C657 C653 1.376 . S
C657 C656 1.392 . S
C657 H669 0.929 . S
C658 C654 1.531 . S
C658 H670 0.960 . S
C658 H671 0.962 . S
C658 H672 0.960 . S
C659 C656 1.511 . S
C659 H673 0.961 . S
C659 H674 0.961 . S
C659 H675 0.961 . S
C660 C661 1.370 . S
C660 C662 1.363 . S
C660 H676 0.931 . S
C661 C660 1.370 . S
C661 C665 1.408 . S
C662 C660 1.363 . S
C662 C663 1.370 . S
C662 C666 1.524 . S
C663 C655 1.503 . S
C663 C662 1.370 . S
C663 C664 1.403 . S
C664 C663 1.403 . S
C664 C665 1.404 . S
C664 C667 1.539 . S
C665 C661 1.408 . S
C665 C664 1.404 . S
C665 H677 0.930 . S
C666 C662 1.524 . S
C666 H678 0.956 . S
C666 H679 0.961 . S
C666 H680 0.961 . S
C667 C664 1.539 . S
C667 H681 0.958 . S
C667 H682 0.961 . S
C667 H683 0.960 . S
H668 C652 0.931 . S
H669 C657 0.929 . S
H670 C658 0.960 . S
H671 C658 0.962 . S
H672 C658 0.960 . S
H673 C659 0.961 . S
H674 C659 0.961 . S
H675 C659 0.961 . S
H676 C660 0.931 . S
H677 C665 0.930 . S
H678 C666 0.956 . S
H679 C666 0.961 . S
H680 C666 0.961 . S
H681 C667 0.958 . S
H682 C667 0.961 . S
H683 C667 0.960 . S
C684 C685 1.391 . S
C684 C686 1.394 . S
C684 H700 0.931 . S
C685 C684 1.391 . S
C685 C689 1.376 . S
C686 C684 1.394 . S
C686 C687 1.369 . S
C686 C690 1.531 . S
C687 C686 1.369 . S
C687 C688 1.410 . S
C687 C695 1.503 . S
C688 C687 1.410 . S
C688 C689 1.392 . S
C688 C691 1.511 . S
C689 C685 1.376 . S
C689 C688 1.392 . S
C689 H701 0.929 . S
C690 C686 1.531 . S
C690 H702 0.960 . S
C690 H703 0.962 . S
C690 H704 0.960 . S
C691 C688 1.511 . S
C691 H705 0.961 . S
C691 H706 0.961 . S
C691 H707 0.961 . S
C692 C693 1.370 . S
C692 C694 1.363 . S
C692 H708 0.931 . S
C693 C692 1.370 . S
C693 C697 1.408 . S
C694 C692 1.363 . S
C694 C695 1.370 . S
C694 C698 1.524 . S
C695 C687 1.503 . S
C695 C694 1.370 . S
C695 C696 1.403 . S
C696 C695 1.403 . S
C696 C697 1.404 . S
C696 C699 1.539 . S
C697 C693 1.408 . S
C697 C696 1.404 . S
C697 H709 0.930 . S
C698 C694 1.524 . S
C698 H710 0.956 . S
C698 H711 0.961 . S
C698 H712 0.961 . S
C699 C696 1.539 . S
C699 H713 0.958 . S
C699 H714 0.961 . S
C699 H715 0.960 . S
H700 C684 0.931 . S
H701 C689 0.929 . S
H702 C690 0.960 . S
H703 C690 0.962 . S
H704 C690 0.960 . S
H705 C691 0.961 . S
H706 C691 0.961 . S
H707 C691 0.961 . S
H708 C692 0.931 . S
H709 C697 0.930 . S
H710 C698 0.956 . S
H711 C698 0.961 . S
H712 C698 0.961 . S
H713 C699 0.958 . S
H714 C699 0.961 . S
H715 C699 0.960 . S
C716 C717 1.391 . S
C716 C718 1.394 . S
C716 H732 0.931 . S
C717 C716 1.391 . S
C717 C721 1.376 . S
C718 C716 1.394 . S
C718 C719 1.369 . S
C718 C722 1.531 . S
C719 C718 1.369 . S
C719 C720 1.410 . S
C719 C727 1.503 . S
C720 C719 1.410 . S
C720 C721 1.392 . S
C720 C723 1.511 . S
C721 C717 1.376 . S
C721 C720 1.392 . S
C721 H733 0.929 . S
C722 C718 1.531 . S
C722 H734 0.960 . S
C722 H735 0.962 . S
C722 H736 0.960 . S
C723 C720 1.511 . S
C723 H737 0.961 . S
C723 H738 0.961 . S
C723 H739 0.961 . S
C724 C725 1.370 . S
C724 C726 1.363 . S
C724 H740 0.931 . S
C725 C724 1.370 . S
C725 C729 1.408 . S
C726 C724 1.363 . S
C726 C727 1.370 . S
C726 C730 1.524 . S
C727 C719 1.503 . S
C727 C726 1.370 . S
C727 C728 1.403 . S
C728 C727 1.403 . S
C728 C729 1.404 . S
C728 C731 1.539 . S
C729 C725 1.408 . S
C729 C728 1.404 . S
C729 H741 0.930 . S
C730 C726 1.524 . S
C730 H742 0.956 . S
C730 H743 0.961 . S
C730 H744 0.961 . S
C731 C728 1.539 . S
C731 H745 0.958 . S
C731 H746 0.961 . S
C731 H747 0.960 . S
H732 C716 0.931 . S
H733 C721 0.929 . S
H734 C722 0.960 . S
H735 C722 0.962 . S
H736 C722 0.960 . S
H737 C723 0.961 . S
H738 C723 0.961 . S
H739 C723 0.961 . S
H740 C724 0.931 . S
H741 C729 0.930 . S
H742 C730 0.956 . S
H743 C730 0.961 . S
H744 C730 0.961 . S
H745 C731 0.958 . S
H746 C731 0.961 . S
H747 C731 0.960 . S
C748 C749 1.391 . S
C748 C750 1.394 . S
C748 H764 0.931 . S
C749 C748 1.391 . S
C749 C753 1.376 . S
C750 C748 1.394 . S
C750 C751 1.369 . S
C750 C754 1.531 . S
C751 C750 1.369 . S
C751 C752 1.410 . S
C751 C759 1.503 . S
C752 C751 1.410 . S
C752 C753 1.392 . S
C752 C755 1.511 . S
C753 C749 1.376 . S
C753 C752 1.392 . S
C753 H765 0.929 . S
C754 C750 1.531 . S
C754 H766 0.960 . S
C754 H767 0.962 . S
C754 H768 0.960 . S
C755 C752 1.511 . S
C755 H769 0.961 . S
C755 H770 0.961 . S
C755 H771 0.961 . S
C756 C757 1.370 . S
C756 C758 1.363 . S
C756 H772 0.931 . S
C757 C756 1.370 . S
C757 C761 1.408 . S
C758 C756 1.363 . S
C758 C759 1.370 . S
C758 C762 1.524 . S
C759 C751 1.503 . S
C759 C758 1.370 . S
C759 C760 1.403 . S
C760 C759 1.403 . S
C760 C761 1.404 . S
C760 C763 1.539 . S
C761 C757 1.408 . S
C761 C760 1.404 . S
C761 H773 0.930 . S
C762 C758 1.524 . S
C762 H774 0.956 . S
C762 H775 0.961 . S
C762 H776 0.961 . S
C763 C760 1.539 . S
C763 H777 0.958 . S
C763 H778 0.961 . S
C763 H779 0.960 . S
H764 C748 0.931 . S
H765 C753 0.929 . S
H766 C754 0.960 . S
H767 C754 0.962 . S
H768 C754 0.960 . S
H769 C755 0.961 . S
H770 C755 0.961 . S
H771 C755 0.961 . S
H772 C756 0.931 . S
H773 C761 0.930 . S
H774 C762 0.956 . S
H775 C762 0.961 . S
H776 C762 0.961 . S
H777 C763 0.958 . S
H778 C763 0.961 . S
H779 C763 0.960 . S
C780 C781 1.391 . S
C780 C782 1.394 . S
C780 H796 0.931 . S
C781 C780 1.391 . S
C781 C785 1.376 . S
C782 C780 1.394 . S
C782 C783 1.369 . S
C782 C786 1.531 . S
C783 C782 1.369 . S
C783 C784 1.410 1_655 S
C783 C791 1.503 1_655 S
C784 C783 1.410 1_455 S
C784 C785 1.392 1_455 S
C784 C787 1.511 . S
C785 C781 1.376 . S
C785 C784 1.392 1_655 S
C785 H797 0.929 . S
C786 C782 1.531 . S
C786 H798 0.960 . S
C786 H799 0.962 . S
C786 H800 0.960 . S
C787 C784 1.511 . S
C787 H801 0.961 . S
C787 H802 0.961 . S
C787 H803 0.961 . S
C788 C789 1.370 . S
C788 C790 1.363 . S
C788 H804 0.931 . S
C789 C788 1.370 . S
C789 C793 1.408 . S
C790 C788 1.363 . S
C790 C791 1.370 . S
C790 C794 1.524 . S
C791 C783 1.503 1_455 S
C791 C790 1.370 . S
C791 C792 1.403 . S
C792 C791 1.403 . S
C792 C793 1.404 . S
C792 C795 1.539 1_455 S
C793 C789 1.408 . S
C793 C792 1.404 . S
C793 H805 0.930 . S
C794 C790 1.524 . S
C794 H806 0.956 1_455 S
C794 H807 0.961 . S
C794 H808 0.961 . S
C795 C792 1.539 1_655 S
C795 H809 0.958 . S
C795 H810 0.961 1_655 S
C795 H811 0.960 . S
H796 C780 0.931 . S
H797 C785 0.929 . S
H798 C786 0.960 . S
H799 C786 0.962 . S
H800 C786 0.960 . S
H801 C787 0.961 . S
H802 C787 0.961 . S
H803 C787 0.961 . S
H804 C788 0.931 . S
H805 C793 0.930 . S
H806 C794 0.956 1_655 S
H807 C794 0.961 . S
H808 C794 0.961 . S
H809 C795 0.958 . S
H810 C795 0.961 1_455 S
H811 C795 0.960 . S
C812 C813 1.391 . S
C812 C814 1.394 . S
C812 H828 0.931 . S
C813 C812 1.391 . S
C813 C817 1.376 . S
C814 C812 1.394 . S
C814 C815 1.369 . S
C814 C818 1.531 . S
C815 C814 1.369 . S
C815 C816 1.403 1_545 S
C815 C823 1.503 1_545 S
C816 C815 1.403 1_565 S
C816 C817 1.392 1_565 S
C816 C819 1.517 . S
C817 C813 1.376 . S
C817 C816 1.392 1_545 S
C817 H829 0.929 . S
C818 C814 1.531 . S
C818 H830 0.960 . S
C818 H831 0.962 . S
C818 H832 0.960 . S
C819 C816 1.517 . S
C819 H833 0.961 . S
C819 H834 0.961 . S
C819 H835 0.961 . S
C820 C821 1.370 . S
C820 C822 1.363 . S
C820 H836 0.931 . S
C821 C820 1.370 . S
C821 C825 1.408 . S
C822 C820 1.363 . S
C822 C823 1.370 . S
C822 C826 1.524 . S
C823 C815 1.503 1_565 S
C823 C822 1.370 . S
C823 C824 1.403 . S
C824 C823 1.403 . S
C824 C825 1.404 . S
C824 C827 1.539 1_565 S
C825 C821 1.408 . S
C825 C824 1.404 . S
C825 H837 0.930 . S
C826 C822 1.524 . S
C826 H838 0.956 . S
C826 H839 0.961 . S
C826 H840 0.961 . S
C827 C824 1.539 1_545 S
C827 H841 0.958 . S
C827 H842 0.961 . S
C827 H843 0.960 . S
H828 C812 0.931 . S
H829 C817 0.929 . S
H830 C818 0.960 . S
H831 C818 0.962 . S
H832 C818 0.960 . S
H833 C819 0.961 . S
H834 C819 0.961 . S
H835 C819 0.961 . S
H836 C820 0.931 . S
H837 C825 0.930 . S
H838 C826 0.956 . S
H839 C826 0.961 . S
H840 C826 0.961 . S
H841 C827 0.958 . S
H842 C827 0.961 . S
H843 C827 0.960 . S
C844 C845 1.391 . S
C844 C846 1.394 . S
C844 H860 0.931 . S
C845 C844 1.391 . S
C845 C849 1.370 1_554 S
C846 C844 1.394 . S
C846 C847 1.369 . S
C846 C850 1.531 . S
C847 C846 1.369 . S
C847 C848 1.410 . S
C847 C855 1.503 . S
C848 C847 1.410 . S
C848 C849 1.391 1_554 S
C848 C851 1.511 1_554 S
C849 C845 1.370 1_556 S
C849 C848 1.391 1_556 S
C849 H861 0.936 . S
C850 C846 1.531 . S
C850 H862 0.960 . S
C850 H863 0.962 . S
C850 H864 0.960 . S
C851 C848 1.511 1_556 S
C851 H865 0.961 . S
C851 H866 0.961 . S
C851 H867 0.961 1_556 S
C852 C853 1.370 1_556 S
C852 C854 1.363 . S
C852 H868 0.931 . S
C853 C852 1.370 1_554 S
C853 C857 1.408 . S
C854 C852 1.363 . S
C854 C855 1.370 1_556 S
C854 C858 1.524 . S
C855 C847 1.503 . S
C855 C854 1.370 1_554 S
C855 C856 1.403 . S
C856 C855 1.403 . S
C856 C857 1.404 . S
C856 C859 1.539 . S
C857 C853 1.408 . S
C857 C856 1.404 . S
C857 H869 0.930 . S
C858 C854 1.524 . S
C858 H870 0.956 . S
C858 H871 0.961 . S
C858 H872 0.961 . S
C859 C856 1.539 . S
C859 H873 0.958 . S
C859 H874 0.961 . S
C859 H875 0.960 . S
H860 C844 0.931 . S
H861 C849 0.936 . S
H862 C850 0.960 . S
H863 C850 0.962 . S
H864 C850 0.960 . S
H865 C851 0.961 . S
H866 C851 0.961 . S
H867 C851 0.961 1_554 S
H868 C852 0.931 . S
H869 C857 0.930 . S
H870 C858 0.956 . S
H871 C858 0.961 . S
H872 C858 0.961 . S
H873 C859 0.958 . S
H874 C859 0.961 . S
H875 C859 0.960 . S
C876 C877 1.391 . S
C876 C878 1.394 . S
C876 H892 0.931 . S
C877 C876 1.391 . S
C877 C881 1.376 . S
C878 C876 1.394 . S
C878 C879 1.369 . S
C878 C882 1.531 . S
C879 C878 1.369 . S
C879 C880 1.410 1_565 S
C879 C887 1.503 1_565 S
C880 C879 1.410 1_545 S
C880 C881 1.392 1_545 S
C880 C883 1.511 . S
C881 C877 1.376 . S
C881 C880 1.392 1_565 S
C881 H893 0.929 . S
C882 C878 1.531 . S
C882 H894 0.960 . S
C882 H895 0.962 . S
C882 H896 0.960 . S
C883 C880 1.511 . S
C883 H897 0.961 . S
C883 H898 0.961 . S
C883 H899 0.961 . S
C884 C885 1.370 . S
C884 C886 1.363 . S
C884 H900 0.931 . S
C885 C884 1.370 . S
C885 C889 1.408 . S
C886 C884 1.363 . S
C886 C887 1.370 . S
C886 C890 1.524 1_545 S
C887 C879 1.503 1_545 S
C887 C886 1.370 . S
C887 C888 1.403 . S
C888 C887 1.403 . S
C888 C889 1.404 . S
C888 C891 1.539 . S
C889 C885 1.408 . S
C889 C888 1.404 . S
C889 H901 0.930 . S
C890 C886 1.524 1_565 S
C890 H902 0.956 . S
C890 H903 0.961 1_565 S
C890 H904 0.961 1_565 S
C891 C888 1.539 . S
C891 H905 0.958 . S
C891 H906 0.961 . S
C891 H907 0.960 . S
H892 C876 0.931 . S
H893 C881 0.929 . S
H894 C882 0.960 . S
H895 C882 0.962 . S
H896 C882 0.960 . S
H897 C883 0.961 . S
H898 C883 0.961 . S
H899 C883 0.961 . S
H900 C884 0.931 . S
H901 C889 0.930 . S
H902 C890 0.956 . S
H903 C890 0.961 1_545 S
H904 C890 0.961 1_545 S
H905 C891 0.958 . S
H906 C891 0.961 . S
H907 C891 0.960 . S
C908 C909 1.391 . S
C908 C910 1.394 . S
C908 H924 0.931 . S
C909 C908 1.391 . S
C909 C913 1.376 . S
C910 C908 1.394 . S
C910 C911 1.369 . S
C910 C914 1.531 . S
C911 C910 1.369 . S
C911 C912 1.410 . S
C911 C919 1.503 . S
C912 C911 1.410 . S
C912 C913 1.392 . S
C912 C915 1.511 . S
C913 C909 1.376 . S
C913 C912 1.392 . S
C913 H925 0.929 . S
C914 C910 1.531 . S
C914 H926 0.960 . S
C914 H927 0.962 . S
C914 H928 0.960 . S
C915 C912 1.511 . S
C915 H929 0.961 . S
C915 H930 0.961 . S
C915 H931 0.961 . S
C916 C917 1.370 . S
C916 C918 1.363 . S
C916 H932 0.931 . S
C917 C916 1.370 . S
C917 C921 1.408 . S
C918 C916 1.363 . S
C918 C919 1.370 . S
C918 C922 1.524 . S
C919 C911 1.503 . S
C919 C918 1.370 . S
C919 C920 1.403 . S
C920 C919 1.403 . S
C920 C921 1.404 . S
C920 C923 1.539 . S
C921 C917 1.408 . S
C921 C920 1.404 . S
C921 H933 0.930 . S
C922 C918 1.524 . S
C922 H934 0.956 . S
C922 H935 0.961 . S
C922 H936 0.961 . S
C923 C920 1.539 . S
C923 H937 0.958 . S
C923 H938 0.961 . S
C923 H939 0.960 . S
H924 C908 0.931 . S
H925 C913 0.929 . S
H926 C914 0.960 . S
H927 C914 0.962 . S
H928 C914 0.960 . S
H929 C915 0.961 . S
H930 C915 0.961 . S
H931 C915 0.961 . S
H932 C916 0.931 . S
H933 C921 0.930 . S
H934 C922 0.956 . S
H935 C922 0.961 . S
H936 C922 0.961 . S
H937 C923 0.958 . S
H938 C923 0.961 . S
H939 C923 0.960 . S
C940 C941 1.391 . S
C940 C942 1.394 1_655 S
C940 H956 0.932 . S
C941 C940 1.391 . S
C941 C945 1.376 . S
C942 C940 1.394 1_455 S
C942 C943 1.369 1_455 S
C942 C946 1.531 . S
C943 C942 1.369 1_655 S
C943 C944 1.410 . S
C943 C951 1.503 1_655 S
C944 C943 1.410 . S
C944 C945 1.392 . S
C944 C947 1.511 . S
C945 C941 1.376 . S
C945 C944 1.392 . S
C945 H957 0.929 . S
C946 C942 1.531 . S
C946 H958 0.960 . S
C946 H959 0.962 1_556 S
C946 H960 0.960 . S
C947 C944 1.511 . S
C947 H961 0.961 . S
C947 H962 0.961 . S
C947 H963 0.961 . S
C948 C949 1.370 1_554 S
C948 C950 1.363 . S
C948 H964 0.931 . S
C949 C948 1.370 1_556 S
C949 C953 1.408 . S
C950 C948 1.363 . S
C950 C951 1.370 1_554 S
C950 C954 1.524 1_455 S
C951 C943 1.503 1_455 S
C951 C950 1.370 1_556 S
C951 C952 1.403 . S
C952 C951 1.403 . S
C952 C953 1.404 . S
C952 C955 1.539 . S
C953 C949 1.408 . S
C953 C952 1.404 . S
C953 H965 0.930 . S
C954 C950 1.524 1_655 S
C954 H966 0.956 1_655 S
C954 H967 0.961 . S
C954 H968 0.961 . S
C955 C952 1.539 . S
C955 H969 0.958 . S
C955 H970 0.961 . S
C955 H971 0.960 . S
H956 C940 0.932 . S
H957 C945 0.929 . S
H958 C946 0.960 . S
H959 C946 0.962 1_554 S
H960 C946 0.960 . S
H961 C947 0.961 . S
H962 C947 0.961 . S
H963 C947 0.961 . S
H964 C948 0.931 . S
H965 C953 0.930 . S
H966 C954 0.956 1_455 S
H967 C954 0.961 . S
H968 C954 0.961 . S
H969 C955 0.958 . S
H970 C955 0.961 . S
H971 C955 0.960 . S
C972 C973 1.391 . S
C972 C974 1.394 . S
C972 H988 0.931 . S
C973 C972 1.391 . S
C973 C977 1.376 . S
C974 C972 1.394 . S
C974 C975 1.369 . S
C974 C978 1.531 . S
C975 C974 1.369 . S
C975 C976 1.410 . S
C975 C983 1.503 . S
C976 C975 1.410 . S
C976 C977 1.392 . S
C976 C979 1.511 . S
C977 C973 1.376 . S
C977 C976 1.392 . S
C977 H989 0.929 . S
C978 C974 1.531 . S
C978 H990 0.960 . S
C978 H991 0.962 . S
C978 H992 0.960 . S
C979 C976 1.511 . S
C979 H993 0.961 . S
C979 H994 0.961 . S
C979 H995 0.961 . S
C980 C981 1.370 . S
C980 C982 1.363 . S
C980 H996 0.931 . S
C981 C980 1.370 . S
C981 C985 1.408 . S
C982 C980 1.363 . S
C982 C983 1.370 . S
C982 C986 1.524 . S
C983 C975 1.503 . S
C983 C982 1.370 . S
C983 C984 1.403 . S
C984 C983 1.403 . S
C984 C985 1.404 . S
C984 C987 1.539 . S
C985 C981 1.408 . S
C985 C984 1.404 . S
C985 H997 0.930 . S
C986 C982 1.524 . S
C986 H998 0.956 . S
C986 H999 0.961 . S
C986 H1000 0.961 . S
C987 C984 1.539 . S
C987 H1001 0.958 . S
C987 H1002 0.961 . S
C987 H1003 0.960 . S
H988 C972 0.931 . S
H989 C977 0.929 . S
H990 C978 0.960 . S
H991 C978 0.962 . S
H992 C978 0.960 . S
H993 C979 0.961 . S
H994 C979 0.961 . S
H995 C979 0.961 . S
H996 C980 0.931 . S
H997 C985 0.930 . S
H998 C986 0.956 . S
H999 C986 0.961 . S
H1000 C986 0.961 . S
H1001 C987 0.958 . S
H1002 C987 0.961 . S
H1003 C987 0.960 . S
C1004 C1005 1.391 . S
C1004 C1006 1.394 . S
C1004 H1020 0.931 . S
C1005 C1004 1.391 . S
C1005 C1009 1.376 . S
C1006 C1004 1.394 . S
C1006 C1007 1.369 . S
C1006 C1010 1.531 . S
C1007 C1006 1.369 . S
C1007 C1008 1.410 . S
C1007 C1015 1.503 1_655 S
C1008 C1007 1.410 . S
C1008 C1009 1.392 . S
C1008 C1011 1.511 . S
C1009 C1005 1.376 . S
C1009 C1008 1.392 . S
C1009 H1021 0.929 . S
C1010 C1006 1.531 . S
C1010 H1022 0.960 1_655 S
C1010 H1023 0.962 . S
C1010 H1024 0.960 . S
C1011 C1008 1.511 . S
C1011 H1025 0.961 . S
C1011 H1026 0.961 1_655 S
C1011 H1027 0.961 . S
C1012 C1013 1.370 . S
C1012 C1014 1.363 . S
C1012 H1028 0.931 . S
C1013 C1012 1.370 . S
C1013 C1017 1.408 . S
C1014 C1012 1.363 . S
C1014 C1015 1.370 . S
C1014 C1018 1.524 . S
C1015 C1007 1.503 1_455 S
C1015 C1014 1.370 . S
C1015 C1016 1.403 . S
C1016 C1015 1.403 . S
C1016 C1017 1.404 . S
C1016 C1019 1.539 . S
C1017 C1013 1.408 . S
C1017 C1016 1.404 . S
C1017 H1029 0.930 . S
C1018 C1014 1.524 . S
C1018 H1030 0.930 1_455 S
C1018 H1031 0.961 1_455 S
C1018 H1032 0.961 . S
C1019 C1016 1.539 . S
C1019 H1033 0.958 . S
C1019 H1034 0.961 . S
C1019 H1035 0.960 . S
H1020 C1004 0.931 . S
H1021 C1009 0.929 . S
H1022 C1010 0.960 1_455 S
H1023 C1010 0.962 . S
H1024 C1010 0.960 . S
H1025 C1011 0.961 . S
H1026 C1011 0.961 1_455 S
H1027 C1011 0.961 . S
H1028 C1012 0.931 . S
H1029 C1017 0.930 . S
H1030 C1018 0.930 1_655 S
H1031 C1018 0.961 1_655 S
H1032 C1018 0.961 . S
H1033 C1019 0.958 . S
H1034 C1019 0.961 . S
H1035 C1019 0.960 . S
C1036 C1037 1.387 1_554 S
C1036 C1038 1.394 . S
C1036 H1052 0.931 . S
C1037 C1036 1.387 1_556 S
C1037 C1041 1.381 . S
C1038 C1036 1.394 . S
C1038 C1039 1.369 1_554 S
C1038 C1042 1.531 . S
C1039 C1038 1.369 1_556 S
C1039 C1040 1.410 . S
C1039 C1047 1.503 1_545 S
C1040 C1039 1.410 . S
C1040 C1041 1.392 . S
C1040 C1043 1.511 . S
C1041 C1037 1.381 . S
C1041 C1040 1.392 . S
C1041 H1053 0.929 . S
C1042 C1038 1.531 . S
C1042 H1054 0.960 1_545 S
C1042 H1055 0.962 . S
C1042 H1056 0.960 . S
C1043 C1040 1.511 . S
C1043 H1057 0.961 . S
C1043 H1058 0.961 1_545 S
C1043 H1059 0.961 . S
C1044 C1045 1.370 1_554 S
C1044 C1046 1.363 . S
C1044 H1060 0.931 . S
C1045 C1044 1.370 1_556 S
C1045 C1049 1.408 . S
C1046 C1044 1.363 . S
C1046 C1047 1.370 1_554 S
C1046 C1050 1.524 . S
C1047 C1039 1.503 1_565 S
C1047 C1046 1.370 1_556 S
C1047 C1048 1.403 . S
C1048 C1047 1.403 . S
C1048 C1049 1.404 . S
C1048 C1051 1.539 . S
C1049 C1045 1.408 . S
C1049 C1048 1.404 . S
C1049 H1061 0.930 . S
C1050 C1046 1.524 . S
C1050 H1062 0.956 . S
C1050 H1063 0.961 1_565 S
C1050 H1064 0.961 . S
C1051 C1048 1.539 . S
C1051 H1065 0.958 . S
C1051 H1066 0.961 . S
C1051 H1067 0.942 1_565 S
H1052 C1036 0.931 . S
H1053 C1041 0.929 . S
H1054 C1042 0.960 1_565 S
H1055 C1042 0.962 . S
H1056 C1042 0.960 . S
H1057 C1043 0.961 . S
H1058 C1043 0.961 1_565 S
H1059 C1043 0.961 . S
H1060 C1044 0.931 . S
H1061 C1049 0.930 . S
H1062 C1050 0.956 . S
H1063 C1050 0.961 1_545 S
H1064 C1050 0.961 . S
H1065 C1051 0.958 . S
H1066 C1051 0.961 . S
H1067 C1051 0.942 1_545 S
C1068 C1069 1.391 . S
C1068 C1070 1.394 . S
C1068 H1084 0.931 . S
C1069 C1068 1.391 . S
C1069 C1073 1.376 . S
C1070 C1068 1.394 . S
C1070 C1071 1.369 . S
C1070 C1074 1.531 . S
C1071 C1070 1.369 . S
C1071 C1072 1.410 . S
C1071 C1079 1.503 . S
C1072 C1071 1.410 . S
C1072 C1073 1.392 . S
C1072 C1075 1.511 . S
C1073 C1069 1.376 . S
C1073 C1072 1.392 . S
C1073 H1085 0.929 . S
C1074 C1070 1.531 . S
C1074 H1086 0.960 . S
C1074 H1087 0.962 . S
C1074 H1088 0.960 . S
C1075 C1072 1.511 . S
C1075 H1089 0.961 . S
C1075 H1090 0.961 . S
C1075 H1091 0.961 . S
C1076 C1077 1.370 . S
C1076 C1078 1.363 . S
C1076 H1092 0.931 . S
C1077 C1076 1.370 . S
C1077 C1081 1.408 . S
C1078 C1076 1.363 . S
C1078 C1079 1.370 . S
C1078 C1082 1.524 . S
C1079 C1071 1.503 . S
C1079 C1078 1.370 . S
C1079 C1080 1.403 . S
C1080 C1079 1.403 . S
C1080 C1081 1.404 . S
C1080 C1083 1.539 . S
C1081 C1077 1.408 . S
C1081 C1080 1.404 . S
C1081 H1093 0.930 . S
C1082 C1078 1.524 . S
C1082 H1094 0.956 . S
C1082 H1095 0.961 . S
C1082 H1096 0.961 . S
C1083 C1080 1.539 . S
C1083 H1097 0.958 . S
C1083 H1098 0.961 . S
C1083 H1099 0.960 . S
H1084 C1068 0.931 . S
H1085 C1073 0.929 . S
H1086 C1074 0.960 . S
H1087 C1074 0.962 . S
H1088 C1074 0.960 . S
H1089 C1075 0.961 . S
H1090 C1075 0.961 . S
H1091 C1075 0.961 . S
H1092 C1076 0.931 . S
H1093 C1081 0.930 . S
H1094 C1082 0.956 . S
H1095 C1082 0.961 . S
H1096 C1082 0.961 . S
H1097 C1083 0.958 . S
H1098 C1083 0.961 . S
H1099 C1083 0.960 . S
C1100 C1101 1.391 . S
C1100 C1102 1.394 . S
C1100 H1116 0.931 . S
C1101 C1100 1.391 . S
C1101 C1105 1.376 . S
C1102 C1100 1.394 . S
C1102 C1103 1.369 . S
C1102 C1106 1.531 . S
C1103 C1102 1.369 . S
C1103 C1104 1.410 . S
C1103 C1111 1.503 1_455 S
C1104 C1103 1.410 . S
C1104 C1105 1.392 . S
C1104 C1107 1.511 . S
C1105 C1101 1.376 . S
C1105 C1104 1.392 . S
C1105 H1117 0.929 . S
C1106 C1102 1.531 . S
C1106 H1118 0.960 1_455 S
C1106 H1119 0.962 . S
C1106 H1120 0.960 . S
C1107 C1104 1.511 . S
C1107 H1121 0.961 . S
C1107 H1122 0.961 1_455 S
C1107 H1123 0.961 . S
C1108 C1109 1.370 . S
C1108 C1110 1.363 . S
C1108 H1124 0.931 . S
C1109 C1108 1.370 . S
C1109 C1113 1.408 . S
C1110 C1108 1.363 . S
C1110 C1111 1.370 . S
C1110 C1114 1.524 . S
C1111 C1103 1.503 1_655 S
C1111 C1110 1.370 . S
C1111 C1112 1.403 . S
C1112 C1111 1.403 . S
C1112 C1113 1.404 . S
C1112 C1115 1.539 . S
C1113 C1109 1.408 . S
C1113 C1112 1.404 . S
C1113 H1125 0.930 . S
C1114 C1110 1.524 . S
C1114 H1126 0.955 . S
C1114 H1127 0.961 1_655 S
C1114 H1128 0.961 . S
C1115 C1112 1.539 . S
C1115 H1129 0.958 . S
C1115 H1130 0.961 . S
C1115 H1131 0.960 . S
H1116 C1100 0.931 . S
H1117 C1105 0.929 . S
H1118 C1106 0.960 1_655 S
H1119 C1106 0.962 . S
H1120 C1106 0.960 . S
H1121 C1107 0.961 . S
H1122 C1107 0.961 1_655 S
H1123 C1107 0.961 . S
H1124 C1108 0.931 . S
H1125 C1113 0.930 . S
H1126 C1114 0.955 . S
H1127 C1114 0.961 1_455 S
H1128 C1114 0.961 . S
H1129 C1115 0.958 . S
H1130 C1115 0.961 . S
H1131 C1115 0.960 . S
C1132 C1133 1.391 . S
C1132 C1134 1.394 . S
C1132 H1148 0.931 . S
C1133 C1132 1.391 . S
C1133 C1137 1.376 1_556 S
C1134 C1132 1.394 . S
C1134 C1135 1.369 . S
C1134 C1138 1.531 . S
C1135 C1134 1.369 . S
C1135 C1136 1.410 1_556 S
C1135 C1143 1.503 1_545 S
C1136 C1135 1.410 1_554 S
C1136 C1137 1.392 . S
C1136 C1139 1.511 . S
C1137 C1133 1.376 1_554 S
C1137 C1136 1.392 . S
C1137 H1149 0.929 . S
C1138 C1134 1.531 . S
C1138 H1150 0.960 1_545 S
C1138 H1151 0.962 . S
C1138 H1152 0.960 . S
C1139 C1136 1.511 . S
C1139 H1153 0.961 . S
C1139 H1154 0.961 1_545 S
C1139 H1155 0.961 . S
C1140 C1141 1.389 . S
C1140 C1142 1.363 . S
C1140 H1156 0.931 . S
C1141 C1140 1.389 . S
C1141 C1145 1.386 1_554 S
C1142 C1140 1.363 . S
C1142 C1143 1.370 1_554 S
C1142 C1146 1.524 . S
C1143 C1135 1.503 1_565 S
C1143 C1142 1.370 1_556 S
C1143 C1144 1.403 . S
C1144 C1143 1.403 . S
C1144 C1145 1.404 . S
C1144 C1147 1.539 . S
C1145 C1141 1.386 1_556 S
C1145 C1144 1.404 . S
C1145 H1157 0.930 . S
C1146 C1142 1.524 . S
C1146 H1158 0.978 . S
C1146 H1159 0.961 1_565 S
C1146 H1160 0.961 . S
C1147 C1144 1.539 . S
C1147 H1161 0.958 . S
C1147 H1162 0.961 . S
C1147 H1163 0.960 . S
H1148 C1132 0.931 . S
H1149 C1137 0.929 . S
H1150 C1138 0.960 1_565 S
H1151 C1138 0.962 . S
H1152 C1138 0.960 . S
H1153 C1139 0.961 . S
H1154 C1139 0.961 1_565 S
H1155 C1139 0.961 . S
H1156 C1140 0.931 . S
H1157 C1145 0.930 . S
H1158 C1146 0.978 . S
H1159 C1146 0.961 1_545 S
H1160 C1146 0.961 . S
H1161 C1147 0.958 . S
H1162 C1147 0.961 . S
H1163 C1147 0.960 . S
C1164 C1165 1.391 . S
C1164 C1166 1.394 . S
C1164 H1180 0.931 . S
C1165 C1164 1.391 . S
C1165 C1169 1.376 . S
C1166 C1164 1.394 . S
C1166 C1167 1.369 . S
C1166 C1170 1.531 . S
C1167 C1166 1.369 . S
C1167 C1168 1.410 . S
C1167 C1175 1.503 . S
C1168 C1167 1.410 . S
C1168 C1169 1.392 . S
C1168 C1171 1.511 . S
C1169 C1165 1.376 . S
C1169 C1168 1.392 . S
C1169 H1181 0.929 . S
C1170 C1166 1.531 . S
C1170 H1182 0.960 . S
C1170 H1183 0.962 . S
C1170 H1184 0.960 . S
C1171 C1168 1.511 . S
C1171 H1185 0.961 . S
C1171 H1186 0.961 . S
C1171 H1187 0.961 . S
C1172 C1173 1.370 . S
C1172 C1174 1.363 . S
C1172 H1188 0.931 . S
C1173 C1172 1.370 . S
C1173 C1177 1.408 . S
C1174 C1172 1.363 . S
C1174 C1175 1.370 . S
C1174 C1178 1.524 . S
C1175 C1167 1.503 . S
C1175 C1174 1.370 . S
C1175 C1176 1.403 . S
C1176 C1175 1.403 . S
C1176 C1177 1.404 . S
C1176 C1179 1.539 . S
C1177 C1173 1.408 . S
C1177 C1176 1.404 . S
C1177 H1189 0.930 . S
C1178 C1174 1.524 . S
C1178 H1190 0.956 . S
C1178 H1191 0.961 . S
C1178 H1192 0.961 . S
C1179 C1176 1.539 . S
C1179 H1193 0.958 . S
C1179 H1194 0.961 . S
C1179 H1195 0.960 . S
H1180 C1164 0.931 . S
H1181 C1169 0.929 . S
H1182 C1170 0.960 . S
H1183 C1170 0.962 . S
H1184 C1170 0.960 . S
H1185 C1171 0.961 . S
H1186 C1171 0.961 . S
H1187 C1171 0.961 . S
H1188 C1172 0.931 . S
H1189 C1177 0.930 . S
H1190 C1178 0.956 . S
H1191 C1178 0.961 . S
H1192 C1178 0.961 . S
H1193 C1179 0.958 . S
H1194 C1179 0.961 . S
H1195 C1179 0.960 . S
C1196 C1197 1.391 . S
C1196 C1198 1.394 . S
C1196 H1212 0.931 . S
C1197 C1196 1.391 . S
C1197 C1201 1.376 . S
C1198 C1196 1.394 . S
C1198 C1199 1.369 . S
C1198 C1202 1.531 . S
C1199 C1198 1.369 . S
C1199 C1200 1.410 . S
C1199 C1207 1.503 . S
C1200 C1199 1.410 . S
C1200 C1201 1.392 . S
C1200 C1203 1.511 . S
C1201 C1197 1.376 . S
C1201 C1200 1.392 . S
C1201 H1213 0.929 . S
C1202 C1198 1.531 . S
C1202 H1214 0.960 . S
C1202 H1215 0.962 . S
C1202 H1216 0.960 . S
C1203 C1200 1.511 . S
C1203 H1217 0.961 . S
C1203 H1218 0.961 . S
C1203 H1219 0.961 . S
C1204 C1205 1.370 . S
C1204 C1206 1.363 . S
C1204 H1220 0.931 . S
C1205 C1204 1.370 . S
C1205 C1209 1.408 . S
C1206 C1204 1.363 . S
C1206 C1207 1.370 . S
C1206 C1210 1.524 . S
C1207 C1199 1.503 . S
C1207 C1206 1.370 . S
C1207 C1208 1.403 . S
C1208 C1207 1.403 . S
C1208 C1209 1.404 . S
C1208 C1211 1.539 . S
C1209 C1205 1.408 . S
C1209 C1208 1.404 . S
C1209 H1221 0.930 . S
C1210 C1206 1.524 . S
C1210 H1222 0.956 . S
C1210 H1223 0.961 . S
C1210 H1224 0.961 . S
C1211 C1208 1.539 . S
C1211 H1225 0.958 . S
C1211 H1226 0.961 . S
C1211 H1227 0.960 . S
H1212 C1196 0.931 . S
H1213 C1201 0.929 . S
H1214 C1202 0.960 . S
H1215 C1202 0.962 . S
H1216 C1202 0.960 . S
H1217 C1203 0.961 . S
H1218 C1203 0.961 . S
H1219 C1203 0.961 . S
H1220 C1204 0.931 . S
H1221 C1209 0.930 . S
H1222 C1210 0.956 . S
H1223 C1210 0.961 . S
H1224 C1210 0.961 . S
H1225 C1211 0.958 . S
H1226 C1211 0.961 . S
H1227 C1211 0.960 . S
C1228 C1229 1.391 . S
C1228 C1230 1.394 . S
C1228 H1244 0.931 . S
C1229 C1228 1.391 . S
C1229 C1233 1.376 1_556 S
C1230 C1228 1.394 . S
C1230 C1231 1.369 . S
C1230 C1234 1.531 . S
C1231 C1230 1.369 . S
C1231 C1232 1.410 1_556 S
C1231 C1239 1.503 1_556 S
C1232 C1231 1.410 1_554 S
C1232 C1233 1.392 . S
C1232 C1235 1.511 . S
C1233 C1229 1.376 1_554 S
C1233 C1232 1.392 . S
C1233 H1245 0.929 . S
C1234 C1230 1.531 . S
C1234 H1246 0.960 . S
C1234 H1247 0.962 . S
C1234 H1248 0.960 . S
C1235 C1232 1.511 . S
C1235 H1249 0.961 . S
C1235 H1250 0.961 . S
C1235 H1251 0.961 . S
C1236 C1237 1.370 . S
C1236 C1238 1.363 . S
C1236 H1252 0.931 . S
C1237 C1236 1.370 . S
C1237 C1241 1.408 . S
C1238 C1236 1.363 . S
C1238 C1239 1.370 . S
C1238 C1242 1.524 . S
C1239 C1231 1.503 1_554 S
C1239 C1238 1.370 . S
C1239 C1240 1.403 . S
C1240 C1239 1.403 . S
C1240 C1241 1.404 . S
C1240 C1243 1.539 . S
C1241 C1237 1.408 . S
C1241 C1240 1.404 . S
C1241 H1253 0.930 . S
C1242 C1238 1.524 . S
C1242 H1254 0.956 1_554 S
C1242 H1255 0.961 . S
C1242 H1256 0.961 . S
C1243 C1240 1.539 . S
C1243 H1257 0.958 1_554 S
C1243 H1258 0.961 . S
C1243 H1259 0.960 . S
H1244 C1228 0.931 . S
H1245 C1233 0.929 . S
H1246 C1234 0.960 . S
H1247 C1234 0.962 . S
H1248 C1234 0.960 . S
H1249 C1235 0.961 . S
H1250 C1235 0.961 . S
H1251 C1235 0.961 . S
H1252 C1236 0.931 . S
H1253 C1241 0.930 . S
H1254 C1242 0.956 1_556 S
H1255 C1242 0.961 . S
H1256 C1242 0.961 . S
H1257 C1243 0.958 1_556 S
H1258 C1243 0.961 . S
H1259 C1243 0.960 . S
C1260 C1261 1.391 . S
C1260 C1262 1.394 . S
C1260 H1276 0.931 . S
C1261 C1260 1.391 . S
C1261 C1265 1.376 . S
C1262 C1260 1.394 . S
C1262 C1263 1.369 . S
C1262 C1266 1.531 . S
C1263 C1262 1.369 . S
C1263 C1264 1.410 . S
C1263 C1271 1.503 . S
C1264 C1263 1.410 . S
C1264 C1265 1.392 . S
C1264 C1267 1.511 . S
C1265 C1261 1.376 . S
C1265 C1264 1.392 . S
C1265 H1277 0.929 . S
C1266 C1262 1.531 . S
C1266 H1278 0.960 . S
C1266 H1279 0.962 . S
C1266 H1280 0.960 . S
C1267 C1264 1.511 . S
C1267 H1281 0.961 . S
C1267 H1282 0.961 . S
C1267 H1283 0.961 . S
C1268 C1269 1.370 . S
C1268 C1270 1.363 . S
C1268 H1284 0.931 . S
C1269 C1268 1.370 . S
C1269 C1273 1.408 . S
C1270 C1268 1.363 . S
C1270 C1271 1.370 . S
C1270 C1274 1.524 . S
C1271 C1263 1.503 . S
C1271 C1270 1.370 . S
C1271 C1272 1.403 . S
C1272 C1271 1.403 . S
C1272 C1273 1.404 . S
C1272 C1275 1.539 . S
C1273 C1269 1.408 . S
C1273 C1272 1.404 . S
C1273 H1285 0.930 . S
C1274 C1270 1.524 . S
C1274 H1286 0.956 . S
C1274 H1287 0.961 . S
C1274 H1288 0.961 . S
C1275 C1272 1.539 . S
C1275 H1289 0.958 . S
C1275 H1290 0.961 . S
C1275 H1291 0.960 . S
H1276 C1260 0.931 . S
H1277 C1265 0.929 . S
H1278 C1266 0.960 . S
H1279 C1266 0.962 . S
H1280 C1266 0.960 . S
H1281 C1267 0.961 . S
H1282 C1267 0.961 . S
H1283 C1267 0.961 . S
H1284 C1268 0.931 . S
H1285 C1273 0.930 . S
H1286 C1274 0.956 . S
H1287 C1274 0.961 . S
H1288 C1274 0.961 . S
H1289 C1275 0.958 . S
H1290 C1275 0.961 . S
H1291 C1275 0.960 . S
C1292 C1293 1.391 . S
C1292 C1294 1.394 . S
C1292 H1308 0.931 . S
C1293 C1292 1.391 . S
C1293 C1297 1.376 . S
C1294 C1292 1.394 . S
C1294 C1295 1.369 . S
C1294 C1298 1.531 . S
C1295 C1294 1.369 . S
C1295 C1296 1.410 . S
C1295 C1303 1.503 . S
C1296 C1295 1.410 . S
C1296 C1297 1.392 . S
C1296 C1299 1.511 . S
C1297 C1293 1.376 . S
C1297 C1296 1.392 . S
C1297 H1309 0.929 . S
C1298 C1294 1.531 . S
C1298 H1310 0.960 . S
C1298 H1311 0.962 . S
C1298 H1312 0.960 . S
C1299 C1296 1.511 . S
C1299 H1313 0.961 . S
C1299 H1314 0.961 . S
C1299 H1315 0.961 . S
C1300 C1301 1.370 . S
C1300 C1302 1.363 . S
C1300 H1316 0.931 . S
C1301 C1300 1.370 . S
C1301 C1305 1.408 . S
C1302 C1300 1.363 . S
C1302 C1303 1.370 . S
C1302 C1306 1.524 . S
C1303 C1295 1.503 . S
C1303 C1302 1.370 . S
C1303 C1304 1.403 . S
C1304 C1303 1.403 . S
C1304 C1305 1.404 . S
C1304 C1307 1.539 . S
C1305 C1301 1.408 . S
C1305 C1304 1.404 . S
C1305 H1317 0.930 . S
C1306 C1302 1.524 . S
C1306 H1318 0.956 . S
C1306 H1319 0.961 . S
C1306 H1320 0.961 . S
C1307 C1304 1.539 . S
C1307 H1321 0.958 . S
C1307 H1322 0.961 . S
C1307 H1323 0.960 . S
H1308 C1292 0.931 . S
H1309 C1297 0.929 . S
H1310 C1298 0.960 . S
H1311 C1298 0.962 . S
H1312 C1298 0.960 . S
H1313 C1299 0.961 . S
H1314 C1299 0.961 . S
H1315 C1299 0.961 . S
H1316 C1300 0.931 . S
H1317 C1305 0.930 . S
H1318 C1306 0.956 . S
H1319 C1306 0.961 . S
H1320 C1306 0.961 . S
H1321 C1307 0.958 . S
H1322 C1307 0.961 . S
H1323 C1307 0.960 . S
C1324 C1325 1.391 . S
C1324 C1326 1.394 . S
C1324 H1340 0.931 . S
C1325 C1324 1.391 . S
C1325 C1329 1.376 1_556 S
C1326 C1324 1.394 . S
C1326 C1327 1.369 . S
C1326 C1330 1.531 . S
C1327 C1326 1.369 . S
C1327 C1328 1.410 1_556 S
C1327 C1335 1.503 1_556 S
C1328 C1327 1.410 1_554 S
C1328 C1329 1.392 . S
C1328 C1331 1.511 . S
C1329 C1325 1.376 1_554 S
C1329 C1328 1.392 . S
C1329 H1341 0.929 . S
C1330 C1326 1.531 . S
C1330 H1342 0.960 . S
C1330 H1343 0.962 . S
C1330 H1344 0.960 . S
C1331 C1328 1.511 . S
C1331 H1345 0.961 . S
C1331 H1346 0.961 . S
C1331 H1347 0.961 . S
C1332 C1333 1.370 . S
C1332 C1334 1.363 . S
C1332 H1348 0.931 . S
C1333 C1332 1.370 . S
C1333 C1337 1.408 . S
C1334 C1332 1.363 . S
C1334 C1335 1.370 . S
C1334 C1338 1.525 . S
C1335 C1327 1.503 1_554 S
C1335 C1334 1.370 . S
C1335 C1336 1.403 . S
C1336 C1335 1.403 . S
C1336 C1337 1.404 . S
C1336 C1339 1.539 . S
C1337 C1333 1.408 . S
C1337 C1336 1.404 . S
C1337 H1349 0.930 . S
C1338 C1334 1.525 . S
C1338 H1350 0.952 1_554 S
C1338 H1351 0.963 . S
C1338 H1352 0.962 . S
C1339 C1336 1.539 . S
C1339 H1353 0.958 1_554 S
C1339 H1354 0.961 . S
C1339 H1355 0.960 . S
H1340 C1324 0.931 . S
H1341 C1329 0.929 . S
H1342 C1330 0.960 . S
H1343 C1330 0.962 . S
H1344 C1330 0.960 . S
H1345 C1331 0.961 . S
H1346 C1331 0.961 . S
H1347 C1331 0.961 . S
H1348 C1332 0.931 . S
H1349 C1337 0.930 . S
H1350 C1338 0.952 1_556 S
H1351 C1338 0.963 . S
H1352 C1338 0.962 . S
H1353 C1339 0.958 1_556 S
H1354 C1339 0.961 . S
H1355 C1339 0.960 . S
C397 C391 1.777 . S
C405 C28 1.779 . S
C429 C226 1.872 . S
C437 C61 1.886 . S
C461 C94 1.789 . S
C469 C259 1.778 . S
C493 C292 1.774 . S
C501 C127 1.781 . S
C525 C325 1.870 . S
C533 C160 1.882 . S
C557 C358 1.770 . S
C565 C193 1.783 . S
C589 C8 0.403 . S
C597 C338 0.521 . S
C621 C41 0.661 . S
C629 C371 0.562 . S
C653 C206 0.473 . S
C661 C74 0.583 . S
C685 C239 0.606 . S
C693 C107 0.538 . S
C717 C272 0.644 . S
C725 C140 0.544 . S
C749 C173 0.480 . S
C757 C305 0.588 . S
C781 N104 1.270 . S
C789 N5 1.259 . S
C813 N38 1.278 . S
C821 N137 1.265 . S
C845 N170 1.237 . S
C853 N71 1.248 . S
C877 N203 1.275 . S
C885 N302 1.267 . S
C909 N236 1.250 . S
C917 N335 1.255 . S
C941 N368 1.230 . S
C949 N269 1.248 . S
C973 N14 1.025 . S
C981 N311 0.991 . S
C1005 N47 1.037 . S
C1013 N344 0.993 . S
C1037 N377 0.993 1_556 S
C1045 N80 0.972 . S
C1069 N113 1.021 . S
C1077 N212 0.992 . S
C1101 N146 1.002 . S
C1109 N245 0.996 . S
C1133 N179 0.950 . S
C1141 N278 1.001 . S
C1165 C215 1.820 . S
C1173 C17 1.798 . S
C1197 C248 1.796 . S
C1205 C50 1.809 . S
C1229 C83 1.799 . S
C1237 C281 1.806 . S
C1261 C314 1.784 . S
C1269 C116 1.813 . S
C1293 C149 1.783 . S
C1301 C347 1.813 . S
C1325 C182 1.797 . S
C1333 C380 1.807 . S
