# Generated by pormake.
# Topology fnu, (5)-cn, num edge types: 1
# Building blocks:
#     Node 0, Type 0, BuildingBlock: XOMCOT_clean_sbu_1, # of connection points: 5
#     Node 1, Type 0, BuildingBlock: XOMCOT_clean_sbu_1, # of connection points: 5
#     Node 2, Type 0, BuildingBlock: XOMCOT_clean_sbu_1, # of connection points: 5
#     Node 3, Type 0, BuildingBlock: XOMCOT_clean_sbu_1, # of connection points: 5
#     Node 4, Type 0, BuildingBlock: XOMCOT_clean_sbu_1, # of connection points: 5
#     Node 5, Type 0, BuildingBlock: XOMCOT_clean_sbu_1, # of connection points: 5
#     Edge 6, Type (0, 0), BuildingBlock: XIVTED_clean_linker_0, # of connection points: 2
#     Edge 7, Type (0, 0), BuildingBlock: XIVTED_clean_linker_0, # of connection points: 2
#     Edge 8, Type (0, 0), BuildingBlock: XIVTED_clean_linker_0, # of connection points: 2
#     Edge 9, Type (0, 0), BuildingBlock: XIVTED_clean_linker_0, # of connection points: 2
#     Edge 10, Type (0, 0), BuildingBlock: XIVTED_clean_linker_0, # of connection points: 2
#     Edge 11, Type (0, 0), BuildingBlock: XIVTED_clean_linker_0, # of connection points: 2
#     Edge 12, Type (0, 0), BuildingBlock: XIVTED_clean_linker_0, # of connection points: 2
#     Edge 13, Type (0, 0), BuildingBlock: XIVTED_clean_linker_0, # of connection points: 2
#     Edge 14, Type (0, 0), BuildingBlock: XIVTED_clean_linker_0, # of connection points: 2
#     Edge 15, Type (0, 0), BuildingBlock: XIVTED_clean_linker_0, # of connection points: 2
#     Edge 16, Type (0, 0), BuildingBlock: XIVTED_clean_linker_0, # of connection points: 2
#     Edge 17, Type (0, 0), BuildingBlock: XIVTED_clean_linker_0, # of connection points: 2
#     Edge 18, Type (0, 0), BuildingBlock: XIVTED_clean_linker_0, # of connection points: 2
#     Edge 19, Type (0, 0), BuildingBlock: XIVTED_clean_linker_0, # of connection points: 2
#     Edge 20, Type (0, 0), BuildingBlock: XIVTED_clean_linker_0, # of connection points: 2
# Relax obj value: 0.195
# Max RMSD: 0.141
# Mean RMSD: 0.141
data_MOF--net-fnu--node1-XOMCOT_clean_sbu_1--edge1-XIVTED_clean_linker_0
_symmetry_space_group_name_H-M    P1
_symmetry_Int_Tables_number       1
_symmetry_cell_setting            triclinic
loop_
_symmetry_equiv_pos_as_xyz
'x, y, z'
_cell_length_a     26.038962
_cell_length_b     27.642855
_cell_length_c     33.989148
_cell_angle_alpha  89.503806
_cell_angle_beta   96.478748
_cell_angle_gamma 122.82085
loop_
_atom_site_label
_atom_site_type_symbol
_atom_site_fract_x
_atom_site_fract_y
_atom_site_fract_z
_atom_type_partial_charge
C0 C 0.24519 0.21316 0.32619 0.0
C1 C 0.25194 0.21305 0.36698 0.0
N2 N 0.20274 0.16424 0.37742 0.0
N3 N 0.19281 0.1638 0.31083 0.0
C4 C 0.16785 0.13538 0.34299 0.0
H5 H 0.27463 0.24877 0.30903 0.0
Co6 Co 0.15316 0.14718 0.25832 0.0
C7 C 0.11167 0.21272 0.27492 0.0
O8 O 0.08057 0.16787 0.29589 0.0
N9 N 0.1117 0.13094 0.20774 0.0
C10 C 1.03222 0.09469 0.16029 0.0
C11 C 1.05163 0.11216 0.19982 0.0
C12 C 0.12819 0.12529 0.17276 0.0
N13 N 0.08035 0.10234 0.14351 0.0
O14 O 0.23383 0.18622 0.23728 0.0
H15 H 1.0229 0.10803 0.2219 0.0
H16 H 0.17349 0.1349 0.16918 0.0
O17 O 0.15699 0.21812 0.25978 0.0
C18 C 0.28188 0.18497 0.24807 0.0
O19 O 0.28111 0.15262 0.27688 0.0
N20 N 0.14092 0.07312 0.2553 0.0
C21 C 0.07826 0.95639 0.22887 0.0
C22 C 1.05581 0.97477 0.25697 0.0
C23 C 0.08713 1.03324 0.26907 0.0
C24 C 0.16552 0.05542 0.22978 0.0
C25 C 0.13522 0.99748 0.21652 0.0
H26 H 1.06434 0.04738 0.28594 0.0
H27 H 0.20435 0.08581 0.21531 0.0
H28 H 0.12294 0.09605 0.34159 0.0
H29 H 0.28757 0.24809 0.38738 0.0
H30 H 0.9854 0.07418 0.14575 0.0
H31 H 1.01226 0.945 0.26767 0.0
H32 H 0.15385 0.98628 0.19393 0.0
C33 C 0.99813 0.99676 0.68295 0.0
C34 C 1.00492 1.01657 0.6456 0.0
N35 N 1.06543 0.05376 0.64336 0.0
N36 N 1.05398 1.02146 0.70467 0.0
C37 C 0.09428 0.05603 0.6797 0.0
H38 H 0.95505 0.96442 0.6929 0.0
Co39 Co 1.06706 1.00185 0.75575 0.0
C40 C 0.1575 0.11341 0.80411 0.0
O41 O 0.17851 0.08821 0.82759 0.0
N42 N 0.07767 0.97955 0.80694 0.0
C43 C 0.09137 0.93665 0.85915 0.0
C44 C 0.09389 0.94235 0.81903 0.0
C45 C 1.06356 0.99414 0.84001 0.0
N46 N 0.07201 0.96923 0.87208 0.0
O47 O 0.99512 0.99806 0.76957 0.0
H48 H 0.10587 0.91976 0.80018 0.0
H49 H 1.04916 1.02419 0.84077 0.0
O50 O 0.11726 0.08482 0.77398 0.0
C51 C 0.95116 0.94597 0.77212 0.0
O52 O 0.95683 0.90469 0.75899 0.0
N53 N 0.13382 0.99948 0.74202 0.0
C54 C 0.20747 0.95485 0.74854 0.0
C55 C 0.2327 1.01301 0.75993 0.0
C56 C 0.19501 1.035 0.75574 0.0
C57 C 0.11201 0.9467 0.72426 0.0
C58 C 0.14822 0.92345 0.72709 0.0
H59 H 0.21422 0.07875 0.76634 0.0
H60 H 1.06371 0.91944 0.71268 0.0
H61 H 0.14377 0.081 0.68772 0.0
H62 H 0.9681 1.00211 0.62134 0.0
H63 H 0.10222 0.91017 0.87725 0.0
H64 H 0.27898 0.03959 0.77541 0.0
H65 H 0.12762 0.87908 0.71646 0.0
C66 C 0.7978 0.4266 0.63923 0.0
C67 C 0.81004 0.42895 0.67969 0.0
N68 N 0.76192 0.38242 0.69319 0.0
N69 N 0.74285 0.37787 0.62669 0.0
C70 C 0.72157 0.35244 0.66056 0.0
H71 H 0.82576 0.46043 0.62045 0.0
Co72 Co 0.7022 0.36221 0.57457 0.0
C73 C 0.67071 0.43797 0.59158 0.0
O74 O 0.63272 0.39413 0.61121 0.0
N75 N 0.66149 0.34845 0.5237 0.0
C76 C 0.59575 0.34018 0.47229 0.0
C77 C 0.60502 0.33876 0.51299 0.0
C78 C 0.68495 0.35432 0.48939 0.0
N79 N 0.64625 0.34964 0.45779 0.0
O80 O 0.78194 0.39827 0.55355 0.0
H81 H 0.57414 0.33423 0.5336 0.0
H82 H 0.73135 0.36582 0.48742 0.0
O83 O 0.71184 0.43572 0.57633 0.0
C84 C 0.829 0.39482 0.56136 0.0
O85 O 0.82919 0.36087 0.58863 0.0
N86 N 0.68653 0.28675 0.57113 0.0
C87 C 0.62776 0.16828 0.55062 0.0
C88 C 0.60746 0.18788 0.57951 0.0
C89 C 0.63668 0.24713 0.58865 0.0
C90 C 0.70796 0.26832 0.54373 0.0
C91 C 0.67984 0.20967 0.53349 0.0
H92 H 0.61578 0.26143 0.60721 0.0
H93 H 0.74297 0.29823 0.52643 0.0
H94 H 0.6762 0.31453 0.66172 0.0
H95 H 0.84926 0.46442 0.69797 0.0
H96 H 0.55632 0.3369 0.45498 0.0
H97 H 0.5674 0.15804 0.59361 0.0
H98 H 0.69619 0.19755 0.50992 0.0
C99 C 0.69688 0.43913 0.02674 0.0
C100 C 0.68191 0.4226 0.98699 0.0
N101 N 0.72136 0.40943 0.97636 0.0
N102 N 0.7452 0.43586 0.04161 0.0
C103 C 0.75925 0.41795 0.00991 0.0
H104 H 0.67459 0.45388 0.04366 0.0
Co105 Co 0.78341 0.45963 0.09451 0.0
C106 C 0.83131 0.56801 0.08094 0.0
O107 O 0.86557 0.55426 0.06466 0.0
N108 N 0.8211 0.48472 0.14605 0.0
C109 C 0.8865 0.5101 0.20124 0.0
C110 C 0.87962 0.50307 0.16049 0.0
C111 C 0.79415 0.48316 0.17795 0.0
N112 N 0.83243 0.49741 0.21195 0.0
O113 O 0.70101 0.41597 0.11281 0.0
H114 H 0.91384 0.50774 0.14275 0.0
H115 H 0.74592 0.46767 0.17678 0.0
O116 O 0.78077 0.5271 0.09141 0.0
C117 C 0.65436 0.36498 0.10266 0.0
O118 O 0.65786 0.3329 0.07613 0.0
N119 N 0.79461 0.39781 0.09972 0.0
C120 C 0.8583 0.34668 0.12903 0.0
C121 C 0.87643 0.38209 0.09691 0.0
C122 C 0.84515 0.40839 0.08361 0.0
C123 C 0.77386 0.36065 0.12946 0.0
C124 C 0.80472 0.33443 0.14426 0.0
H125 H 0.86608 0.44271 0.06371 0.0
H126 H 0.73847 0.3565 0.14561 0.0
H127 H 0.79685 0.41189 0.01081 0.0
H128 H 0.6464 0.42271 0.96717 0.0
H129 H 0.92693 0.52073 0.22146 0.0
H130 H 0.91719 0.39297 0.08387 0.0
H131 H 0.7897 0.3091 0.16988 0.0
C132 C 0.48721 0.7858 0.97812 0.0
C133 C 0.47896 0.78422 0.01738 0.0
N134 N 0.45273 0.72945 0.0276 0.0
N135 N 0.46691 0.73231 0.96313 0.0
C136 C 0.44547 0.69865 0.99431 0.0
H137 H 0.50727 0.82411 0.96153 0.0
Co138 Co 0.47735 0.71932 0.91031 0.0
C139 C 0.38716 0.75374 0.89845 0.0
O140 O 0.35807 0.7213 0.9269 0.0
N141 N 0.48973 0.70918 0.85822 0.0
C142 C 0.51809 0.73293 0.79807 0.0
C143 C 0.51792 0.7534 0.83452 0.0
C144 C 0.47247 0.66182 0.83497 0.0
N145 N 0.48912 0.6753 0.79821 0.0
O146 O 0.55429 0.79265 0.91494 0.0
H147 H 0.53469 0.7978 0.84244 0.0
H148 H 0.44612 0.61808 0.84401 0.0
O149 O 0.43438 0.75582 0.889 0.0
C150 C 0.60076 0.79076 0.92826 0.0
O151 O 0.59082 0.74389 0.94504 0.0
N152 N 0.40527 0.64457 0.90515 0.0
C153 C 0.32505 0.52584 0.88628 0.0
C154 C 0.31314 0.56532 0.86822 0.0
C155 C 0.35412 0.6247 0.87785 0.0
C156 C 0.41675 0.60668 0.92331 0.0
C157 C 0.37697 0.54741 0.91488 0.0
H158 H 0.34742 0.65422 0.86059 0.0
H159 H 0.45975 0.62289 0.94233 0.0
H160 H 0.42626 0.65286 0.99338 0.0
H161 H 0.4909 0.82055 0.03692 0.0
H162 H 0.53382 0.75798 0.77237 0.0
H163 H 0.27417 0.55072 0.84553 0.0
H164 H 0.38949 0.51911 0.92865 0.0
C165 C 0.2784 0.67294 0.34162 0.0
C166 C 0.28424 0.67491 0.30194 0.0
N167 N 0.32408 0.65997 0.29599 0.0
N168 N 0.3136 0.65587 0.36119 0.0
C169 C 0.34171 0.64904 0.33223 0.0
H170 H 0.25046 0.68425 0.35528 0.0
Co171 Co 0.31478 0.64521 0.41696 0.0
C172 C 0.39426 0.7717 0.41275 0.0
O173 O 0.41721 0.76355 0.38287 0.0
N174 N 0.31354 0.63461 0.47139 0.0
C175 C 0.294 0.63883 0.53279 0.0
C176 C 0.29108 0.65588 0.49507 0.0
C177 C 0.33034 0.60497 0.49559 0.0
N178 N 0.31881 0.60699 0.53309 0.0
O179 O 0.23299 0.62987 0.4148 0.0
H180 H 0.27382 0.6825 0.48552 0.0
H181 H 0.35081 0.58259 0.48617 0.0
O182 O 0.35204 0.72808 0.42856 0.0
C183 C 0.19301 0.57574 0.41093 0.0
O184 O 0.21132 0.54178 0.40181 0.0
N185 N 0.39192 0.65342 0.42126 0.0
C186 C 0.48013 0.62994 0.4504 0.0
C187 C 0.48815 0.68273 0.46068 0.0
C188 C 0.44286 0.69337 0.4463 0.0
C189 C 0.38586 0.60354 0.40902 0.0
C190 C 0.42957 0.59101 0.42311 0.0
H191 H 0.44563 0.73023 0.45936 0.0
H192 H 0.34356 0.57053 0.39156 0.0
H193 H 0.37443 0.6364 0.33717 0.0
H194 H 0.26207 0.68782 0.27927 0.0
H195 H 0.28114 0.6508 0.55844 0.0
H196 H 0.52561 0.71278 0.48281 0.0
H197 H 0.42126 0.54919 0.41535 0.0
H198 H 0.32556 0.28348 0.20671 0.0
H199 H 0.57092 0.2512 0.11141 0.0
H200 H 0.36078 0.15165 0.23816 0.0
H201 H 0.61057 0.42064 0.14078 0.0
H202 H 0.47986 0.20892 0.14608 0.0
H203 H 0.41701 0.32998 0.17099 0.0
C204 C 0.35229 0.26426 0.20596 0.0
C205 C 0.33572 0.21377 0.22557 0.0
C206 C 0.50841 0.25535 0.14484 0.0
C207 C 0.439 0.26584 0.18438 0.0
C208 C 0.56027 0.27956 0.12492 0.0
C209 C 0.59854 0.33961 0.12321 0.0
C210 C 0.49355 0.29118 0.16251 0.0
C211 C 0.58245 0.37415 0.14155 0.0
C212 C 0.40448 0.29091 0.18583 0.0
C213 C 0.37207 0.19073 0.22376 0.0
N214 N 0.53082 0.34943 0.16019 0.0
N215 N 0.42147 0.21654 0.20327 0.0
H216 H 1.00462 0.19745 0.29289 0.0
H217 H 0.98542 0.40489 0.13743 0.0
H218 H 0.14899 0.29536 0.21951 0.0
H219 H 0.82481 0.24818 0.16896 0.0
H220 H 1.0508 0.37765 0.17458 0.0
H221 H 0.94464 0.23149 0.25733 0.0
C222 C 1.02435 0.22695 0.26976 0.0
C223 C 0.08193 0.24314 0.25901 0.0
C224 C 1.00122 0.34928 0.17314 0.0
C225 C 1.01284 0.28209 0.218 0.0
C226 C 0.96349 0.36433 0.15151 0.0
C227 C 0.89881 0.32868 0.14956 0.0
C228 C 0.97447 0.29886 0.19379 0.0
C229 C 0.8741 0.27768 0.16987 0.0
C230 C 0.98967 0.24591 0.24924 0.0
C231 C 0.10486 0.28167 0.22879 0.0
N232 N 0.9119 0.26459 0.1913 0.0
N233 N 1.07011 0.29972 0.2092 0.0
H234 H 0.78485 0.61189 0.12875 0.0
H235 H 0.11626 0.88932 0.20008 0.0
H236 H 0.94601 0.66035 0.07303 0.0
H237 H 0.95151 0.88751 0.21124 0.0
H238 H 1.05309 0.79728 0.16129 0.0
H239 H 0.8433 0.70668 0.16558 0.0
C240 C 0.83198 0.64267 0.12369 0.0
C241 C 0.86053 0.62793 0.09779 0.0
C242 C 1.03088 0.81711 0.17238 0.0
C243 C 0.92785 0.73522 0.14066 0.0
C244 C 1.06694 0.86981 0.19454 0.0
C245 C 1.03966 0.897 0.209 0.0
C246 C 0.96674 0.79054 0.16497 0.0
C247 C 0.97497 0.86824 0.20144 0.0
C248 C 0.86536 0.69652 0.14489 0.0
C249 C 0.92198 0.66948 0.09272 0.0
N250 N 0.94076 0.81661 0.18003 0.0
N251 N 0.95372 0.72074 0.11433 0.0
H252 H 0.2158 0.17328 0.87507 0.0
H253 H 0.27765 0.47566 0.81019 0.0
H254 H 0.14492 0.19088 0.7585 0.0
H255 H 0.28952 0.4332 0.93198 0.0
H256 H 0.23089 0.37401 0.78895 0.0
H257 H 0.24803 0.27109 0.89443 0.0
C258 C 0.20722 0.19783 0.85336 0.0
C259 C 0.17786 0.17373 0.81494 0.0
C260 C 0.24311 0.38697 0.82032 0.0
C261 C 0.21486 0.28674 0.83722 0.0
C262 C 0.26938 0.44492 0.83254 0.0
C263 C 0.28816 0.46332 0.87302 0.0
C264 C 0.23611 0.34728 0.84872 0.0
C265 C 0.27701 0.42145 0.90046 0.0
C266 C 0.22531 0.25375 0.86461 0.0
C267 C 0.16751 0.20777 0.78839 0.0
N268 N 0.25244 0.36578 0.88781 0.0
N269 N 0.18645 0.26281 0.79992 0.0
H270 H 0.63423 0.8807 0.87902 0.0
H271 H 0.89751 0.85293 0.81579 0.0
H272 H 0.70586 0.79141 0.94561 0.0
H273 H 0.89808 1.0061 0.78913 0.0
H274 H 0.82099 0.82745 0.86021 0.0
H275 H 0.72623 0.92811 0.84444 0.0
C276 C 0.66976 0.87198 0.88704 0.0
C277 C 0.66154 0.83089 0.91466 0.0
C278 C 0.83783 0.8668 0.84484 0.0
C279 C 0.76601 0.88434 0.87495 0.0
C280 C 0.88107 0.88109 0.81903 0.0
C281 C 0.90355 0.93133 0.79825 0.0
C282 C 0.8155 0.90225 0.84957 0.0
C283 C 0.88145 0.96673 0.80441 0.0
C284 C 0.72217 0.89904 0.86725 0.0
C285 C 0.70946 0.82186 0.92408 0.0
N286 N 0.83773 0.95107 0.82917 0.0
N287 N 0.75891 0.84741 0.90375 0.0
H288 H 0.33048 0.99015 0.75698 0.0
H289 H 0.27469 0.73887 0.89895 0.0
H290 H 0.1511 0.85061 0.78091 0.0
H291 H 0.44224 0.83718 0.84511 0.0
H292 H 0.23263 0.78696 0.86001 0.0
H293 H 0.37622 0.94138 0.79236 0.0
C294 C 0.3007 0.94908 0.7692 0.0
C295 C 0.23672 0.92419 0.76548 0.0
C296 C 0.27859 0.79803 0.8566 0.0
C297 C 0.28871 0.86899 0.80654 0.0
C298 C 0.3028 0.77075 0.87902 0.0
C299 C 0.36211 0.78392 0.87532 0.0
C300 C 0.31404 0.83951 0.83049 0.0
C301 C 0.39621 0.82558 0.84882 0.0
C302 C 0.32678 0.92131 0.78933 0.0
C303 C 0.2004 0.871 0.78215 0.0
N304 N 0.37182 0.85216 0.82753 0.0
N305 N 0.22689 0.84559 0.80211 0.0
H306 H 0.86464 0.49076 0.51857 0.0
H307 H 0.10643 0.46171 0.41532 0.0
H308 H 0.90977 0.36484 0.54811 0.0
H309 H 0.14157 0.63051 0.44126 0.0
H310 H 1.01558 0.41909 0.44967 0.0
H311 H 0.94994 0.5369 0.47769 0.0
C312 C 0.89239 0.47284 0.51644 0.0
C313 C 0.88038 0.42409 0.53696 0.0
C314 C 1.04284 0.46542 0.44751 0.0
C315 C 0.97635 0.47558 0.48974 0.0
C316 C 0.09463 0.48993 0.42767 0.0
C317 C 0.1323 0.55003 0.42566 0.0
C318 C 1.0276 0.5009 0.46511 0.0
C319 C 0.11403 0.58403 0.44219 0.0
C320 C 0.94094 0.49922 0.49324 0.0
C321 C 0.91765 0.40258 0.53313 0.0
N322 N 1.06295 0.55899 0.4614 0.0
N323 N 0.96349 0.42812 0.50975 0.0
H324 H 0.58241 0.45093 0.61606 0.0
H325 H 0.6028 0.6689 0.45233 0.0
H326 H 0.72159 0.52022 0.53684 0.0
H327 H 0.43816 0.54717 0.50275 0.0
H328 H 0.65843 0.63194 0.49213 0.0
H329 H 0.54226 0.50582 0.58523 0.0
C330 C 0.60529 0.47847 0.59263 0.0
C331 C 0.655 0.48031 0.57871 0.0
C332 C 0.61021 0.61363 0.4945 0.0
C333 C 0.60866 0.54301 0.54294 0.0
C334 C 0.57867 0.6346 0.47188 0.0
C335 C 0.51589 0.6103 0.47407 0.0
C336 C 0.57876 0.56914 0.51992 0.0
C337 C 0.48642 0.56636 0.49996 0.0
C338 C 0.58204 0.50956 0.57487 0.0
C339 C 0.68296 0.51725 0.5484 0.0
N340 N 0.51808 0.54726 0.52188 0.0
N341 N 0.65898 0.54673 0.53119 0.0
H342 H 0.50765 0.86531 0.40303 0.0
H343 H 0.50162 0.0894 0.5429 0.0
H344 H 0.35465 0.81117 0.46901 0.0
H345 H 0.6706 0.10514 0.52198 0.0
H346 H 0.44343 0.99191 0.51124 0.0
H347 H 0.56369 0.95925 0.43948 0.0
C348 C 0.48547 0.87328 0.42491 0.0
C349 C 0.42615 0.83016 0.43287 0.0
C350 C 0.49328 1.01674 0.51391 0.0
C351 C 0.49052 0.93813 0.47482 0.0
C352 C 0.52684 0.07241 0.53234 0.0
C353 C 0.59164 0.10641 0.53514 0.0
C354 C 0.52444 0.99505 0.49744 0.0
C355 C 0.62091 0.08164 0.51986 0.0
C356 C 0.51783 0.92686 0.44596 0.0
C357 C 0.40023 0.84314 0.46189 0.0
N358 N 0.58716 1.02795 0.50133 0.0
N359 N 0.43243 0.89614 0.48169 0.0
H360 H 0.17943 0.08765 0.62493 0.0
H361 H 0.08806 0.1141 0.39814 0.0
H362 H 1.01221 0.0781 0.57996 0.0
H363 H 0.27739 0.18524 0.4464 0.0
H364 H 1.05861 0.09307 0.46472 0.0
H365 H 0.21702 0.11936 0.56054 0.0
C366 C 0.15096 0.09292 0.60184 0.0
C367 C 0.09205 0.07925 0.60776 0.0
C368 C 0.10668 0.11336 0.4609 0.0
C369 C 0.13425 0.11432 0.53401 0.0
C370 C 0.1234 0.12479 0.42279 0.0
C371 C 0.18519 0.15097 0.41673 0.0
C372 C 0.15189 0.12753 0.49338 0.0
C373 C 0.22928 0.16508 0.44994 0.0
C374 C 0.17233 0.11071 0.56504 0.0
C375 C 1.05713 0.0866 0.57655 0.0
N376 N 0.21174 0.15277 0.48692 0.0
N377 N 0.07843 0.10298 0.54104 0.0
H378 H 0.82337 0.4287 0.9468 0.0
H379 H 0.65335 0.3314 0.72416 0.0
H380 H 0.62915 0.35726 0.91485 0.0
H381 H 0.84922 0.41316 0.7562 0.0
H382 H 0.64094 0.3279 0.79462 0.0
H383 H 0.83098 0.41104 0.8782 0.0
C384 C 0.78209 0.40858 0.92555 0.0
C385 C 0.72559 0.39494 0.93667 0.0
C386 C 0.68658 0.3461 0.78623 0.0
C387 C 0.73421 0.37528 0.85767 0.0
C388 C 0.69361 0.34769 0.74598 0.0
C389 C 0.75254 0.37316 0.73427 0.0
C390 C 0.73882 0.37005 0.81495 0.0
C391 C 0.80313 0.39412 0.76393 0.0
C392 C 0.78656 0.39882 0.88622 0.0
C393 C 0.67387 0.36951 0.90751 0.0
N394 N 0.79519 0.39249 0.80283 0.0
N395 N 0.67949 0.36085 0.86934 0.0
H396 H 0.44113 0.70292 0.28113 0.0
H397 H 0.34765 0.63354 0.04554 0.0
H398 H 0.25345 0.6164 0.22511 0.0
H399 H 0.5209 0.781 0.0982 0.0
H400 H 0.31679 0.60776 0.11241 0.0
H401 H 0.47545 0.71276 0.21514 0.0
C402 C 0.40719 0.68499 0.25498 0.0
C403 C 0.34449 0.65906 0.25841 0.0
C404 C 0.36184 0.64536 0.10927 0.0
C405 C 0.38301 0.66975 0.18319 0.0
C406 C 0.3795 0.65978 0.07124 0.0
C407 C 0.43666 0.7096 0.06646 0.0
C408 C 0.40222 0.68038 0.14272 0.0
C409 C 0.47619 0.74257 0.10068 0.0
C410 C 0.42669 0.69094 0.21741 0.0
C411 C 0.30225 0.63705 0.22359 0.0
N412 N 0.45832 0.72742 0.13731 0.0
N413 N 0.32219 0.64287 0.18747 0.0
H414 H 0.14872 0.06282 0.12137 0.0
H415 H 0.99183 0.99292 0.89583 0.0
H416 H 1.00569 0.09119 0.07722 0.0
H417 H 0.13892 0.96992 0.93933 0.0
H418 H 0.99097 1.02245 0.96311 0.0
H419 H 0.14218 1.02402 0.05561 0.0
C420 C 0.11643 0.06155 0.0977 0.0
C421 C 0.07817 0.08094 0.1046 0.0
C422 C 1.02322 1.01064 0.95803 0.0
C423 C 1.06952 1.03539 0.02943 0.0
C424 C 1.02382 0.99396 0.91965 0.0
C425 C 1.06609 0.97975 0.91206 0.0
C426 C 1.06537 1.0133 0.98898 0.0
C427 C 0.10553 0.9804 0.94401 0.0
C428 C 0.11225 0.03878 0.06024 0.0
C429 C 1.03588 0.07659 0.07311 0.0
N430 N 0.10461 0.99749 0.98109 0.0
N431 N 1.03281 0.05443 0.03681 0.0
H432 H 0.87017 0.45351 0.27129 0.0
H433 H 0.61816 0.41025 0.40661 0.0
H434 H 0.74779 0.51137 0.23962 0.0
H435 H 0.71566 0.32423 0.42107 0.0
H436 H 0.66684 0.45159 0.34676 0.0
H437 H 0.82083 0.41502 0.33088 0.0
C438 C 0.83386 0.45929 0.27741 0.0
C439 C 0.81275 0.48537 0.25055 0.0
C440 C 0.67704 0.42318 0.36286 0.0
C441 C 0.75483 0.44004 0.31785 0.0
C442 C 0.64866 0.39905 0.39661 0.0
C443 C 0.6634 0.36422 0.41874 0.0
C444 C 0.72043 0.4124 0.3516 0.0
C445 C 0.70387 0.35158 0.40498 0.0
C446 C 0.80499 0.43651 0.31105 0.0
C447 C 0.76482 0.49095 0.25954 0.0
N448 N 0.73147 0.37612 0.37252 0.0
N449 N 0.73709 0.46807 0.29236 0.0
H450 H 0.25199 0.55491 0.59269 0.0
H451 H 0.55333 0.68385 0.73889 0.0
H452 H 0.42818 0.61777 0.5536 0.0
H453 H 0.37307 0.58373 0.77644 0.0
H454 H 0.50834 0.64154 0.67126 0.0
H455 H 0.29235 0.5459 0.65892 0.0
C456 C 0.29884 0.56537 0.598 0.0
C457 C 0.33719 0.58784 0.56809 0.0
C458 C 0.47864 0.62737 0.69438 0.0
C459 C 0.38446 0.57932 0.64387 0.0
C460 C 0.50444 0.6514 0.73297 0.0
C461 C 0.46664 0.63779 0.76291 0.0
C462 C 0.41434 0.5906 0.68558 0.0
C463 C 0.40366 0.59547 0.75404 0.0
C464 C 0.32196 0.56025 0.63574 0.0
C465 C 0.39735 0.60043 0.57606 0.0
N466 N 0.37915 0.57449 0.71589 0.0
N467 N 0.41971 0.59741 0.61353 0.0
loop_
_geom_bond_atom_site_label_1
_geom_bond_atom_site_label_2
_geom_bond_distance
_geom_bond_site_symmetry_2
_ccdc_geom_bond_type
C0 C1 1.351 . S
C0 N3 1.368 . S
C0 H5 0.931 . S
C1 C0 1.351 . S
C1 N2 1.373 . S
C1 H29 0.930 . S
N2 C1 1.373 . S
N2 C4 1.340 . S
N3 C0 1.368 . S
N3 C4 1.321 . S
N3 Co6 2.135 . S
C4 N2 1.340 . S
C4 N3 1.321 . S
C4 H28 0.930 . S
H5 C0 0.931 . S
Co6 N3 2.135 . S
Co6 N9 2.121 . S
Co6 O14 2.055 . S
Co6 O17 2.039 . S
Co6 N20 2.140 1_445 S
C7 O8 1.227 . S
C7 O17 1.265 1_655 S
O8 C7 1.227 . S
N9 Co6 2.121 . S
N9 C11 1.375 1_455 S
N9 C12 1.313 . S
C10 C11 1.338 . S
C10 N13 1.377 1_655 S
C10 H30 0.930 . S
C11 N9 1.375 1_655 S
C11 C10 1.338 . S
C11 H15 0.931 . S
C12 N9 1.313 . S
C12 N13 1.344 . S
C12 H16 0.930 . S
N13 C10 1.377 1_455 S
N13 C12 1.344 . S
O14 Co6 2.055 . S
O14 C18 1.253 . S
H15 C11 0.931 . S
H16 C12 0.930 . S
O17 Co6 2.039 . S
O17 C7 1.265 1_455 S
C18 O14 1.253 . S
C18 O19 1.227 . S
O19 C18 1.227 . S
N20 Co6 2.140 1_665 S
N20 C23 1.346 . S
N20 C24 1.345 . S
C21 C22 1.387 . S
C21 C25 1.391 . S
C22 C21 1.387 . S
C22 C23 1.369 . S
C22 H31 0.929 . S
C23 N20 1.346 . S
C23 C22 1.369 . S
C23 H26 0.928 . S
C24 N20 1.345 . S
C24 C25 1.371 . S
C24 H27 0.931 1_655 S
C25 C21 1.391 . S
C25 C24 1.371 . S
C25 H32 0.930 . S
H26 C23 0.928 . S
H27 C24 0.931 1_455 S
H28 C4 0.930 . S
H29 C1 0.930 . S
H30 C10 0.930 . S
H31 C22 0.929 . S
H32 C25 0.930 . S
C33 C34 1.351 . S
C33 N36 1.368 1_565 S
C33 H38 0.931 . S
C34 C33 1.351 . S
C34 N35 1.373 1_565 S
C34 H62 0.930 . S
N35 C34 1.373 1_545 S
N35 C37 1.340 1_655 S
N36 C33 1.368 1_545 S
N36 C37 1.321 1_655 S
N36 Co39 2.135 . S
C37 N35 1.340 1_455 S
C37 N36 1.321 1_455 S
C37 H61 0.930 . S
H38 C33 0.931 . S
Co39 N36 2.135 . S
Co39 N42 2.121 1_655 S
Co39 O47 2.055 1_545 S
Co39 O50 2.039 1_655 S
Co39 N53 2.140 1_645 S
C40 O41 1.227 . S
C40 O50 1.265 . S
O41 C40 1.227 . S
N42 Co39 2.121 1_455 S
N42 C44 1.375 . S
N42 C45 1.313 1_455 S
C43 C44 1.338 . S
C43 N46 1.377 . S
C43 H63 0.930 . S
C44 N42 1.375 . S
C44 C43 1.338 . S
C44 H48 0.931 . S
C45 N42 1.313 1_655 S
C45 N46 1.344 1_655 S
C45 H49 0.930 1_545 S
N46 C43 1.377 . S
N46 C45 1.344 1_455 S
O47 Co39 2.055 1_565 S
O47 C51 1.253 . S
H48 C44 0.931 . S
H49 C45 0.930 1_565 S
O50 Co39 2.039 1_455 S
O50 C40 1.265 . S
C51 O47 1.253 . S
C51 O52 1.227 . S
O52 C51 1.227 . S
N53 Co39 2.140 1_465 S
N53 C56 1.346 . S
N53 C57 1.345 . S
C54 C55 1.387 . S
C54 C58 1.391 . S
C55 C54 1.387 . S
C55 C56 1.369 . S
C55 H64 0.929 . S
C56 N53 1.346 . S
C56 C55 1.369 . S
C56 H59 0.928 1_565 S
C57 N53 1.345 . S
C57 C58 1.371 . S
C57 H60 0.931 . S
C58 C54 1.391 . S
C58 C57 1.371 . S
C58 H65 0.930 . S
H59 C56 0.928 1_545 S
H60 C57 0.931 . S
H61 C37 0.930 . S
H62 C34 0.930 . S
H63 C43 0.930 . S
H64 C55 0.929 . S
H65 C58 0.930 . S
C66 C67 1.351 . S
C66 N69 1.368 . S
C66 H71 0.931 . S
C67 C66 1.351 . S
C67 N68 1.373 . S
C67 H95 0.930 . S
N68 C67 1.373 . S
N68 C70 1.340 . S
N69 C66 1.368 . S
N69 C70 1.321 . S
N69 Co72 2.135 . S
C70 N68 1.340 . S
C70 N69 1.321 . S
C70 H94 0.930 . S
H71 C66 0.931 . S
Co72 N69 2.135 . S
Co72 N75 2.121 . S
Co72 O80 2.055 . S
Co72 O83 2.039 . S
Co72 N86 2.140 . S
C73 O74 1.227 . S
C73 O83 1.265 . S
O74 C73 1.227 . S
N75 Co72 2.121 . S
N75 C77 1.375 . S
N75 C78 1.313 . S
C76 C77 1.338 . S
C76 N79 1.377 . S
C76 H96 0.930 . S
C77 N75 1.375 . S
C77 C76 1.338 . S
C77 H81 0.931 . S
C78 N75 1.313 . S
C78 N79 1.344 . S
C78 H82 0.930 . S
N79 C76 1.377 . S
N79 C78 1.344 . S
O80 Co72 2.055 . S
O80 C84 1.253 . S
H81 C77 0.931 . S
H82 C78 0.930 . S
O83 Co72 2.039 . S
O83 C73 1.265 . S
C84 O80 1.253 . S
C84 O85 1.227 . S
O85 C84 1.227 . S
N86 Co72 2.140 . S
N86 C89 1.346 . S
N86 C90 1.345 . S
C87 C88 1.387 . S
C87 C91 1.391 . S
C88 C87 1.387 . S
C88 C89 1.369 . S
C88 H97 0.929 . S
C89 N86 1.346 . S
C89 C88 1.369 . S
C89 H92 0.928 . S
C90 N86 1.345 . S
C90 C91 1.371 . S
C90 H93 0.931 . S
C91 C87 1.391 . S
C91 C90 1.371 . S
C91 H98 0.930 . S
H92 C89 0.928 . S
H93 C90 0.931 . S
H94 C70 0.930 . S
H95 C67 0.930 . S
H96 C76 0.930 . S
H97 C88 0.929 . S
H98 C91 0.930 . S
C99 C100 1.351 1_554 S
C99 N102 1.368 . S
C99 H104 0.931 . S
C100 C99 1.351 1_556 S
C100 N101 1.373 . S
C100 H128 0.930 . S
N101 C100 1.373 . S
N101 C103 1.340 1_556 S
N102 C99 1.368 . S
N102 C103 1.321 . S
N102 Co105 2.135 . S
C103 N101 1.340 1_554 S
C103 N102 1.321 . S
C103 H127 0.930 . S
H104 C99 0.931 . S
Co105 N102 2.135 . S
Co105 N108 2.121 . S
Co105 O113 2.055 . S
Co105 O116 2.039 . S
Co105 N119 2.140 . S
C106 O107 1.227 . S
C106 O116 1.265 . S
O107 C106 1.227 . S
N108 Co105 2.121 . S
N108 C110 1.375 . S
N108 C111 1.313 . S
C109 C110 1.338 . S
C109 N112 1.377 . S
C109 H129 0.930 . S
C110 N108 1.375 . S
C110 C109 1.338 . S
C110 H114 0.931 . S
C111 N108 1.313 . S
C111 N112 1.344 . S
C111 H115 0.930 . S
N112 C109 1.377 . S
N112 C111 1.344 . S
O113 Co105 2.055 . S
O113 C117 1.253 . S
H114 C110 0.931 . S
H115 C111 0.930 . S
O116 Co105 2.039 . S
O116 C106 1.265 . S
C117 O113 1.253 . S
C117 O118 1.227 . S
O118 C117 1.227 . S
N119 Co105 2.140 . S
N119 C122 1.346 . S
N119 C123 1.345 . S
C120 C121 1.387 . S
C120 C124 1.391 . S
C121 C120 1.387 . S
C121 C122 1.369 . S
C121 H130 0.929 . S
C122 N119 1.346 . S
C122 C121 1.369 . S
C122 H125 0.928 . S
C123 N119 1.345 . S
C123 C124 1.371 . S
C123 H126 0.931 . S
C124 C120 1.391 . S
C124 C123 1.371 . S
C124 H131 0.930 . S
H125 C122 0.928 . S
H126 C123 0.931 . S
H127 C103 0.930 . S
H128 C100 0.930 . S
H129 C109 0.930 . S
H130 C121 0.929 . S
H131 C124 0.930 . S
C132 C133 1.351 1_556 S
C132 N135 1.368 . S
C132 H137 0.931 . S
C133 C132 1.351 1_554 S
C133 N134 1.373 . S
C133 H161 0.930 . S
N134 C133 1.373 . S
N134 C136 1.340 1_554 S
N135 C132 1.368 . S
N135 C136 1.321 . S
N135 Co138 2.135 . S
C136 N134 1.340 1_556 S
C136 N135 1.321 . S
C136 H160 0.930 . S
H137 C132 0.931 . S
Co138 N135 2.135 . S
Co138 N141 2.121 . S
Co138 O146 2.055 . S
Co138 O149 2.039 . S
Co138 N152 2.140 . S
C139 O140 1.227 . S
C139 O149 1.265 . S
O140 C139 1.227 . S
N141 Co138 2.121 . S
N141 C143 1.375 . S
N141 C144 1.313 . S
C142 C143 1.338 . S
C142 N145 1.377 . S
C142 H162 0.930 . S
C143 N141 1.375 . S
C143 C142 1.338 . S
C143 H147 0.931 . S
C144 N141 1.313 . S
C144 N145 1.344 . S
C144 H148 0.930 . S
N145 C142 1.377 . S
N145 C144 1.344 . S
O146 Co138 2.055 . S
O146 C150 1.253 . S
H147 C143 0.931 . S
H148 C144 0.930 . S
O149 Co138 2.039 . S
O149 C139 1.265 . S
C150 O146 1.253 . S
C150 O151 1.227 . S
O151 C150 1.227 . S
N152 Co138 2.140 . S
N152 C155 1.346 . S
N152 C156 1.345 . S
C153 C154 1.387 . S
C153 C157 1.391 . S
C154 C153 1.387 . S
C154 C155 1.369 . S
C154 H163 0.929 . S
C155 N152 1.346 . S
C155 C154 1.369 . S
C155 H158 0.928 . S
C156 N152 1.345 . S
C156 C157 1.371 . S
C156 H159 0.931 . S
C157 C153 1.391 . S
C157 C156 1.371 . S
C157 H164 0.930 . S
H158 C155 0.928 . S
H159 C156 0.931 . S
H160 C136 0.930 . S
H161 C133 0.930 . S
H162 C142 0.930 . S
H163 C154 0.929 . S
H164 C157 0.930 . S
C165 C166 1.351 . S
C165 N168 1.368 . S
C165 H170 0.931 . S
C166 C165 1.351 . S
C166 N167 1.373 . S
C166 H194 0.930 . S
N167 C166 1.373 . S
N167 C169 1.340 . S
N168 C165 1.368 . S
N168 C169 1.321 . S
N168 Co171 2.135 . S
C169 N167 1.340 . S
C169 N168 1.321 . S
C169 H193 0.930 . S
H170 C165 0.931 . S
Co171 N168 2.135 . S
Co171 N174 2.121 . S
Co171 O179 2.055 . S
Co171 O182 2.039 . S
Co171 N185 2.140 . S
C172 O173 1.227 . S
C172 O182 1.265 . S
O173 C172 1.227 . S
N174 Co171 2.121 . S
N174 C176 1.375 . S
N174 C177 1.313 . S
C175 C176 1.338 . S
C175 N178 1.377 . S
C175 H195 0.930 . S
C176 N174 1.375 . S
C176 C175 1.338 . S
C176 H180 0.931 . S
C177 N174 1.313 . S
C177 N178 1.344 . S
C177 H181 0.930 . S
N178 C175 1.377 . S
N178 C177 1.344 . S
O179 Co171 2.055 . S
O179 C183 1.253 . S
H180 C176 0.931 . S
H181 C177 0.930 . S
O182 Co171 2.039 . S
O182 C172 1.265 . S
C183 O179 1.253 . S
C183 O184 1.227 . S
O184 C183 1.227 . S
N185 Co171 2.140 . S
N185 C188 1.346 . S
N185 C189 1.345 . S
C186 C187 1.387 . S
C186 C190 1.391 . S
C187 C186 1.387 . S
C187 C188 1.369 . S
C187 H196 0.929 . S
C188 N185 1.346 . S
C188 C187 1.369 . S
C188 H191 0.928 . S
C189 N185 1.345 . S
C189 C190 1.371 . S
C189 H192 0.931 . S
C190 C186 1.391 . S
C190 C189 1.371 . S
C190 H197 0.930 . S
H191 C188 0.928 . S
H192 C189 0.931 . S
H193 C169 0.930 . S
H194 C166 0.930 . S
H195 C175 0.930 . S
H196 C187 0.929 . S
H197 C190 0.930 . S
H198 C204 0.930 . S
H199 C208 0.930 . S
H200 C213 0.929 . S
H201 C211 0.929 . S
H202 C206 0.929 . S
H203 C212 0.929 . S
C204 H198 0.930 . S
C204 C205 1.367 . S
C204 C212 1.378 . S
C205 C204 1.367 . S
C205 C213 1.433 . S
C206 H202 0.929 . S
C206 C208 1.378 . S
C206 C210 1.350 . S
C207 C210 1.463 . S
C207 C212 1.350 . S
C207 N215 1.427 . S
C208 H199 0.930 . S
C208 C206 1.378 . S
C208 C209 1.367 . S
C209 C208 1.367 . S
C209 C211 1.433 . S
C210 C206 1.350 . S
C210 C207 1.463 . S
C210 N214 1.427 . S
C211 H201 0.929 . S
C211 C209 1.433 . S
C211 N214 1.384 . S
C212 H203 0.929 . S
C212 C204 1.378 . S
C212 C207 1.350 . S
C213 H200 0.929 . S
C213 C205 1.433 . S
C213 N215 1.384 . S
N214 C210 1.427 . S
N214 C211 1.384 . S
N215 C207 1.427 . S
N215 C213 1.384 . S
H216 C222 0.930 . S
H217 C226 0.930 . S
H218 C231 0.929 . S
H219 C229 0.929 . S
H220 C224 0.929 . S
H221 C230 0.929 . S
C222 H216 0.930 . S
C222 C223 1.367 . S
C222 C230 1.378 . S
C223 C222 1.367 . S
C223 C231 1.433 . S
C224 H220 0.929 . S
C224 C226 1.378 . S
C224 C228 1.350 . S
C225 C228 1.463 . S
C225 C230 1.350 . S
C225 N233 1.427 . S
C226 H217 0.930 . S
C226 C224 1.378 . S
C226 C227 1.367 . S
C227 C226 1.367 . S
C227 C229 1.433 . S
C228 C224 1.350 . S
C228 C225 1.463 . S
C228 N232 1.427 . S
C229 H219 0.929 . S
C229 C227 1.433 . S
C229 N232 1.384 . S
C230 H221 0.929 . S
C230 C222 1.378 . S
C230 C225 1.350 . S
C231 H218 0.929 . S
C231 C223 1.433 . S
C231 N233 1.384 . S
N232 C228 1.427 . S
N232 C229 1.384 . S
N233 C225 1.427 . S
N233 C231 1.384 . S
H234 C240 0.930 . S
H235 C244 0.930 . S
H236 C249 0.929 . S
H237 C247 0.929 . S
H238 C242 0.929 . S
H239 C248 0.929 . S
C240 H234 0.930 . S
C240 C241 1.367 . S
C240 C248 1.378 . S
C241 C240 1.367 . S
C241 C249 1.433 . S
C242 H238 0.929 . S
C242 C244 1.378 . S
C242 C246 1.350 . S
C243 C246 1.463 . S
C243 C248 1.350 . S
C243 N251 1.427 . S
C244 H235 0.930 . S
C244 C242 1.378 . S
C244 C245 1.367 . S
C245 C244 1.367 . S
C245 C247 1.433 . S
C246 C242 1.350 . S
C246 C243 1.463 . S
C246 N250 1.427 . S
C247 H237 0.929 . S
C247 C245 1.433 . S
C247 N250 1.384 . S
C248 H239 0.929 . S
C248 C240 1.378 . S
C248 C243 1.350 . S
C249 H236 0.929 . S
C249 C241 1.433 . S
C249 N251 1.384 . S
N250 C246 1.427 . S
N250 C247 1.384 . S
N251 C243 1.427 . S
N251 C249 1.384 . S
H252 C258 0.930 . S
H253 C262 0.930 . S
H254 C267 0.929 . S
H255 C265 0.929 . S
H256 C260 0.929 . S
H257 C266 0.929 . S
C258 H252 0.930 . S
C258 C259 1.367 . S
C258 C266 1.378 . S
C259 C258 1.367 . S
C259 C267 1.433 . S
C260 H256 0.929 . S
C260 C262 1.378 . S
C260 C264 1.350 . S
C261 C264 1.463 . S
C261 C266 1.350 . S
C261 N269 1.427 . S
C262 H253 0.930 . S
C262 C260 1.378 . S
C262 C263 1.367 . S
C263 C262 1.367 . S
C263 C265 1.433 . S
C264 C260 1.350 . S
C264 C261 1.463 . S
C264 N268 1.427 . S
C265 H255 0.929 . S
C265 C263 1.433 . S
C265 N268 1.384 . S
C266 H257 0.929 . S
C266 C258 1.378 . S
C266 C261 1.350 . S
C267 H254 0.929 . S
C267 C259 1.433 . S
C267 N269 1.384 . S
N268 C264 1.427 . S
N268 C265 1.384 . S
N269 C261 1.427 . S
N269 C267 1.384 . S
H270 C276 0.930 . S
H271 C280 0.930 . S
H272 C285 0.929 . S
H273 C283 0.929 . S
H274 C278 0.929 . S
H275 C284 0.929 . S
C276 H270 0.930 . S
C276 C277 1.367 . S
C276 C284 1.378 . S
C277 C276 1.367 . S
C277 C285 1.433 . S
C278 H274 0.929 . S
C278 C280 1.378 . S
C278 C282 1.350 . S
C279 C282 1.463 . S
C279 C284 1.350 . S
C279 N287 1.427 . S
C280 H271 0.930 . S
C280 C278 1.378 . S
C280 C281 1.367 . S
C281 C280 1.367 . S
C281 C283 1.433 . S
C282 C278 1.350 . S
C282 C279 1.463 . S
C282 N286 1.427 . S
C283 H273 0.929 . S
C283 C281 1.433 . S
C283 N286 1.384 . S
C284 H275 0.929 . S
C284 C276 1.378 . S
C284 C279 1.350 . S
C285 H272 0.929 . S
C285 C277 1.433 . S
C285 N287 1.384 . S
N286 C282 1.427 . S
N286 C283 1.384 . S
N287 C279 1.427 . S
N287 C285 1.384 . S
H288 C294 0.930 . S
H289 C298 0.930 . S
H290 C303 0.929 . S
H291 C301 0.929 . S
H292 C296 0.929 . S
H293 C302 0.929 . S
C294 H288 0.930 . S
C294 C295 1.367 . S
C294 C302 1.378 . S
C295 C294 1.367 . S
C295 C303 1.433 . S
C296 H292 0.929 . S
C296 C298 1.378 . S
C296 C300 1.350 . S
C297 C300 1.463 . S
C297 C302 1.350 . S
C297 N305 1.427 . S
C298 H289 0.930 . S
C298 C296 1.378 . S
C298 C299 1.367 . S
C299 C298 1.367 . S
C299 C301 1.433 . S
C300 C296 1.350 . S
C300 C297 1.463 . S
C300 N304 1.427 . S
C301 H291 0.929 . S
C301 C299 1.433 . S
C301 N304 1.384 . S
C302 H293 0.929 . S
C302 C294 1.378 . S
C302 C297 1.350 . S
C303 H290 0.929 . S
C303 C295 1.433 . S
C303 N305 1.384 . S
N304 C300 1.427 . S
N304 C301 1.384 . S
N305 C297 1.427 . S
N305 C303 1.384 . S
H306 C312 0.930 . S
H307 C316 0.930 . S
H308 C321 0.929 . S
H309 C319 0.929 . S
H310 C314 0.929 . S
H311 C320 0.929 . S
C312 H306 0.930 . S
C312 C313 1.367 . S
C312 C320 1.378 . S
C313 C312 1.367 . S
C313 C321 1.433 . S
C314 H310 0.929 . S
C314 C316 1.378 . S
C314 C318 1.350 . S
C315 C318 1.463 1_655 S
C315 C320 1.350 . S
C315 N323 1.427 . S
C316 H307 0.930 . S
C316 C314 1.378 . S
C316 C317 1.367 . S
C317 C316 1.367 . S
C317 C319 1.433 . S
C318 C314 1.350 . S
C318 C315 1.463 1_455 S
C318 N322 1.427 . S
C319 H309 0.929 . S
C319 C317 1.433 . S
C319 N322 1.384 . S
C320 H311 0.929 . S
C320 C312 1.378 . S
C320 C315 1.350 . S
C321 H308 0.929 . S
C321 C313 1.433 . S
C321 N323 1.384 . S
N322 C318 1.427 . S
N322 C319 1.384 . S
N323 C315 1.427 . S
N323 C321 1.384 . S
H324 C330 0.930 . S
H325 C334 0.930 . S
H326 C339 0.929 . S
H327 C337 0.929 . S
H328 C332 0.929 . S
H329 C338 0.929 . S
C330 H324 0.930 . S
C330 C331 1.367 . S
C330 C338 1.378 . S
C331 C330 1.367 . S
C331 C339 1.433 . S
C332 H328 0.929 . S
C332 C334 1.378 . S
C332 C336 1.350 . S
C333 C336 1.463 . S
C333 C338 1.350 . S
C333 N341 1.427 . S
C334 H325 0.930 . S
C334 C332 1.378 . S
C334 C335 1.367 . S
C335 C334 1.367 . S
C335 C337 1.433 . S
C336 C332 1.350 . S
C336 C333 1.463 . S
C336 N340 1.427 . S
C337 H327 0.929 . S
C337 C335 1.433 . S
C337 N340 1.384 . S
C338 H329 0.929 . S
C338 C330 1.378 . S
C338 C333 1.350 . S
C339 H326 0.929 . S
C339 C331 1.433 . S
C339 N341 1.384 . S
N340 C336 1.427 . S
N340 C337 1.384 . S
N341 C333 1.427 . S
N341 C339 1.384 . S
H342 C348 0.930 . S
H343 C352 0.930 . S
H344 C357 0.929 . S
H345 C355 0.929 . S
H346 C350 0.929 . S
H347 C356 0.929 . S
C348 H342 0.930 . S
C348 C349 1.367 . S
C348 C356 1.378 . S
C349 C348 1.367 . S
C349 C357 1.433 . S
C350 H346 0.929 . S
C350 C352 1.378 . S
C350 C354 1.350 . S
C351 C354 1.463 1_565 S
C351 C356 1.350 . S
C351 N359 1.427 . S
C352 H343 0.930 . S
C352 C350 1.378 . S
C352 C353 1.367 . S
C353 C352 1.367 . S
C353 C355 1.433 . S
C354 C350 1.350 . S
C354 C351 1.463 1_545 S
C354 N358 1.427 . S
C355 H345 0.929 . S
C355 C353 1.433 . S
C355 N358 1.384 . S
C356 H347 0.929 . S
C356 C348 1.378 . S
C356 C351 1.350 . S
C357 H344 0.929 . S
C357 C349 1.433 . S
C357 N359 1.384 . S
N358 C354 1.427 . S
N358 C355 1.384 . S
N359 C351 1.427 . S
N359 C357 1.384 . S
H360 C366 0.930 . S
H361 C370 0.930 . S
H362 C375 0.929 . S
H363 C373 0.929 . S
H364 C368 0.929 . S
H365 C374 0.929 . S
C366 H360 0.930 . S
C366 C367 1.367 . S
C366 C374 1.378 . S
C367 C366 1.367 . S
C367 C375 1.433 1_445 S
C368 H364 0.929 . S
C368 C370 1.378 . S
C368 C372 1.350 1_665 S
C369 C372 1.463 . S
C369 C374 1.350 . S
C369 N377 1.427 1_445 S
C370 H361 0.930 . S
C370 C368 1.378 . S
C370 C371 1.367 1_665 S
C371 C370 1.367 1_445 S
C371 C373 1.433 . S
C372 C368 1.350 1_445 S
C372 C369 1.463 . S
C372 N376 1.427 . S
C373 H363 0.929 . S
C373 C371 1.433 . S
C373 N376 1.384 . S
C374 H365 0.929 . S
C374 C366 1.378 . S
C374 C369 1.350 . S
C375 H362 0.929 . S
C375 C367 1.433 1_665 S
C375 N377 1.384 . S
N376 C372 1.427 . S
N376 C373 1.384 . S
N377 C369 1.427 1_665 S
N377 C375 1.384 . S
H378 C384 0.930 . S
H379 C388 0.930 . S
H380 C393 0.929 . S
H381 C391 0.929 . S
H382 C386 0.929 . S
H383 C392 0.929 . S
C384 H378 0.930 . S
C384 C385 1.367 . S
C384 C392 1.378 . S
C385 C384 1.367 . S
C385 C393 1.433 . S
C386 H382 0.929 . S
C386 C388 1.378 . S
C386 C390 1.350 . S
C387 C390 1.463 . S
C387 C392 1.350 . S
C387 N395 1.427 . S
C388 H379 0.930 . S
C388 C386 1.378 . S
C388 C389 1.367 . S
C389 C388 1.367 . S
C389 C391 1.433 . S
C390 C386 1.350 . S
C390 C387 1.463 . S
C390 N394 1.427 . S
C391 H381 0.929 . S
C391 C389 1.433 . S
C391 N394 1.384 . S
C392 H383 0.929 . S
C392 C384 1.378 . S
C392 C387 1.350 . S
C393 H380 0.929 . S
C393 C385 1.433 . S
C393 N395 1.384 . S
N394 C390 1.427 . S
N394 C391 1.384 . S
N395 C387 1.427 . S
N395 C393 1.384 . S
H396 C402 0.930 . S
H397 C406 0.930 . S
H398 C411 0.929 . S
H399 C409 0.929 . S
H400 C404 0.929 . S
H401 C410 0.929 . S
C402 H396 0.930 . S
C402 C403 1.367 . S
C402 C410 1.378 . S
C403 C402 1.367 . S
C403 C411 1.433 . S
C404 H400 0.929 . S
C404 C406 1.378 . S
C404 C408 1.350 . S
C405 C408 1.463 . S
C405 C410 1.350 . S
C405 N413 1.427 . S
C406 H397 0.930 . S
C406 C404 1.378 . S
C406 C407 1.367 . S
C407 C406 1.367 . S
C407 C409 1.433 . S
C408 C404 1.350 . S
C408 C405 1.463 . S
C408 N412 1.427 . S
C409 H399 0.929 . S
C409 C407 1.433 . S
C409 N412 1.384 . S
C410 H401 0.929 . S
C410 C402 1.378 . S
C410 C405 1.350 . S
C411 H398 0.929 . S
C411 C403 1.433 . S
C411 N413 1.384 . S
N412 C408 1.427 . S
N412 C409 1.384 . S
N413 C405 1.427 . S
N413 C411 1.384 . S
H414 C420 0.930 . S
H415 C424 0.930 . S
H416 C429 0.929 1_655 S
H417 C427 0.929 . S
H418 C422 0.929 . S
H419 C428 0.929 . S
C420 H414 0.930 . S
C420 C421 1.367 . S
C420 C428 1.378 . S
C421 C420 1.367 . S
C421 C429 1.433 1_545 S
C422 H418 0.929 . S
C422 C424 1.378 . S
C422 C426 1.350 1_665 S
C423 C426 1.463 1_554 S
C423 C428 1.350 . S
C423 N431 1.427 1_445 S
C424 H415 0.930 . S
C424 C422 1.378 . S
C424 C425 1.361 1_565 S
C425 C424 1.361 1_545 S
C425 C427 1.439 1_655 S
C426 C422 1.350 1_445 S
C426 C423 1.463 1_556 S
C426 N430 1.427 . S
C427 H417 0.929 . S
C427 C425 1.439 1_455 S
C427 N430 1.384 . S
C428 H419 0.929 . S
C428 C420 1.378 . S
C428 C423 1.350 . S
C429 H416 0.929 1_455 S
C429 C421 1.433 1_565 S
C429 N431 1.384 1_455 S
N430 C426 1.427 . S
N430 C427 1.384 . S
N431 C423 1.427 1_665 S
N431 C429 1.384 1_655 S
H432 C438 0.930 . S
H433 C442 0.930 . S
H434 C447 0.929 . S
H435 C445 0.929 . S
H436 C440 0.929 . S
H437 C446 0.929 . S
C438 H432 0.930 . S
C438 C439 1.367 . S
C438 C446 1.378 . S
C439 C438 1.367 . S
C439 C447 1.433 . S
C440 H436 0.929 . S
C440 C442 1.378 . S
C440 C444 1.350 . S
C441 C444 1.463 . S
C441 C446 1.350 . S
C441 N449 1.427 . S
C442 H433 0.930 . S
C442 C440 1.378 . S
C442 C443 1.367 . S
C443 C442 1.367 . S
C443 C445 1.433 . S
C444 C440 1.350 . S
C444 C441 1.463 . S
C444 N448 1.427 . S
C445 H435 0.929 . S
C445 C443 1.433 . S
C445 N448 1.384 . S
C446 H437 0.929 . S
C446 C438 1.378 . S
C446 C441 1.350 . S
C447 H434 0.929 . S
C447 C439 1.433 . S
C447 N449 1.384 . S
N448 C444 1.427 . S
N448 C445 1.384 . S
N449 C441 1.427 . S
N449 C447 1.384 . S
H450 C456 0.930 . S
H451 C460 0.930 . S
H452 C465 0.929 . S
H453 C463 0.929 . S
H454 C458 0.929 . S
H455 C464 0.929 . S
C456 H450 0.930 . S
C456 C457 1.367 . S
C456 C464 1.378 . S
C457 C456 1.367 . S
C457 C465 1.433 . S
C458 H454 0.929 . S
C458 C460 1.378 . S
C458 C462 1.350 . S
C459 C462 1.463 . S
C459 C464 1.350 . S
C459 N467 1.427 . S
C460 H451 0.930 . S
C460 C458 1.378 . S
C460 C461 1.367 . S
C461 C460 1.367 . S
C461 C463 1.433 . S
C462 C458 1.350 . S
C462 C459 1.463 . S
C462 N466 1.427 . S
C463 H453 0.929 . S
C463 C461 1.433 . S
C463 N466 1.384 . S
C464 H455 0.929 . S
C464 C456 1.378 . S
C464 C459 1.350 . S
C465 H452 0.929 . S
C465 C457 1.433 . S
C465 N467 1.384 . S
N466 C462 1.427 . S
N466 C463 1.384 . S
N467 C459 1.427 . S
N467 C465 1.384 . S
C205 C18 2.002 . S
C209 C117 2.002 . S
C223 C7 1.566 . S
C227 C120 1.554 . S
C241 C106 1.568 . S
C245 C21 1.555 . S
C259 C40 1.564 . S
C263 C153 1.551 . S
C277 C150 2.002 . S
C281 C51 2.002 . S
C295 C54 1.560 . S
C299 C139 1.571 . S
C313 C84 2.001 . S
C317 C183 2.001 . S
C331 C73 1.570 . S
C335 C186 1.558 . S
C349 C172 1.566 . S
C353 C87 1.554 . S
C367 N35 2.212 1_455 S
C371 N2 2.211 . S
C385 N101 2.212 . S
C389 N68 2.211 . S
C403 N167 2.212 . S
C407 N134 2.211 . S
C421 N13 0.687 . S
C425 N46 0.696 1_655 S
C439 N112 0.674 . S
C443 N79 0.664 . S
C457 N178 0.695 . S
C461 N145 0.692 . S
