# Generated by pormake.
# Topology snk, (6)-cn, num edge types: 1
# Building blocks:
#     Node 0, Type 0, BuildingBlock: PAMTOO_clean_sbu_0, # of connection points: 6
#     Node 1, Type 0, BuildingBlock: PAMTOO_clean_sbu_0, # of connection points: 6
#     Node 2, Type 0, BuildingBlock: PAMTOO_clean_sbu_0, # of connection points: 6
#     Node 3, Type 0, BuildingBlock: PAMTOO_clean_sbu_0, # of connection points: 6
#     Node 4, Type 0, BuildingBlock: PAMTOO_clean_sbu_0, # of connection points: 6
#     Node 5, Type 0, BuildingBlock: PAMTOO_clean_sbu_0, # of connection points: 6
#     Node 6, Type 0, BuildingBlock: PAMTOO_clean_sbu_0, # of connection points: 6
#     Node 7, Type 0, BuildingBlock: PAMTOO_clean_sbu_0, # of connection points: 6
#     Edge 8, Type (0, 0), BuildingBlock: XIVTED_clean_linker_0, # of connection points: 2
#     Edge 9, Type (0, 0), BuildingBlock: XIVTED_clean_linker_0, # of connection points: 2
#     Edge 10, Type (0, 0), BuildingBlock: XIVTED_clean_linker_0, # of connection points: 2
#     Edge 11, Type (0, 0), BuildingBlock: XIVTED_clean_linker_0, # of connection points: 2
#     Edge 12, Type (0, 0), BuildingBlock: XIVTED_clean_linker_0, # of connection points: 2
#     Edge 13, Type (0, 0), BuildingBlock: XIVTED_clean_linker_0, # of connection points: 2
#     Edge 14, Type (0, 0), BuildingBlock: XIVTED_clean_linker_0, # of connection points: 2
#     Edge 15, Type (0, 0), BuildingBlock: XIVTED_clean_linker_0, # of connection points: 2
#     Edge 16, Type (0, 0), BuildingBlock: XIVTED_clean_linker_0, # of connection points: 2
#     Edge 17, Type (0, 0), BuildingBlock: XIVTED_clean_linker_0, # of connection points: 2
#     Edge 18, Type (0, 0), BuildingBlock: XIVTED_clean_linker_0, # of connection points: 2
#     Edge 19, Type (0, 0), BuildingBlock: XIVTED_clean_linker_0, # of connection points: 2
#     Edge 20, Type (0, 0), BuildingBlock: XIVTED_clean_linker_0, # of connection points: 2
#     Edge 21, Type (0, 0), BuildingBlock: XIVTED_clean_linker_0, # of connection points: 2
#     Edge 22, Type (0, 0), BuildingBlock: XIVTED_clean_linker_0, # of connection points: 2
#     Edge 23, Type (0, 0), BuildingBlock: XIVTED_clean_linker_0, # of connection points: 2
#     Edge 24, Type (0, 0), BuildingBlock: XIVTED_clean_linker_0, # of connection points: 2
#     Edge 25, Type (0, 0), BuildingBlock: XIVTED_clean_linker_0, # of connection points: 2
#     Edge 26, Type (0, 0), BuildingBlock: XIVTED_clean_linker_0, # of connection points: 2
#     Edge 27, Type (0, 0), BuildingBlock: XIVTED_clean_linker_0, # of connection points: 2
#     Edge 28, Type (0, 0), BuildingBlock: XIVTED_clean_linker_0, # of connection points: 2
#     Edge 29, Type (0, 0), BuildingBlock: XIVTED_clean_linker_0, # of connection points: 2
#     Edge 30, Type (0, 0), BuildingBlock: XIVTED_clean_linker_0, # of connection points: 2
#     Edge 31, Type (0, 0), BuildingBlock: XIVTED_clean_linker_0, # of connection points: 2
# Relax obj value: 0.068
# Max RMSD: 0.148
# Mean RMSD: 0.112
data_MOF--net-snk--node1-PAMTOO_clean_sbu_0--edge1-XIVTED_clean_linker_0
_symmetry_space_group_name_H-M    P1
_symmetry_Int_Tables_number       1
_symmetry_cell_setting            triclinic
loop_
_symmetry_equiv_pos_as_xyz
'x, y, z'
_cell_length_a     38.675088
_cell_length_b     38.771827
_cell_length_c     26.208978
_cell_angle_alpha  89.850657
_cell_angle_beta   92.816526
_cell_angle_gamma 89.488533
loop_
_atom_site_label
_atom_site_type_symbol
_atom_site_fract_x
_atom_site_fract_y
_atom_site_fract_z
_atom_type_partial_charge
Dy0 Dy 0.00485 0.00695 0.55543 0.0
Dy1 Dy -0.00411 0.96745 0.4386 0.0
C2 C 0.05486 0.94925 0.52048 0.0
O3 O 0.02269 0.04588 0.49952 0.0
O4 O 0.03356 0.01015 0.43109 0.0
O5 O 0.0351 0.01051 0.62653 0.0
O6 O 0.989 0.04204 0.61502 0.0
O7 O 0.96247 0.01374 0.43915 0.0
O8 O 0.95064 0.01526 0.52411 0.0
O9 O 0.95931 0.94093 0.48975 0.0
O10 O 0.98322 0.95503 0.5696 0.0
O11 O 0.96385 0.95042 0.37349 0.0
O12 O 0.0194 0.94224 0.37519 0.0
C13 C 0.03605 0.03995 0.45497 0.0
O14 O 0.05375 0.98179 0.53342 0.0
O15 O 0.03071 0.93603 0.48994 0.0
C16 C 0.00556 0.02494 0.70091 0.0
C17 C -0.00257 0.01174 0.80659 0.0
C18 C -0.00372 0.98467 0.77064 0.0
C19 C 0.00029 0.99119 0.71847 0.0
C20 C 0.00582 0.05205 0.7363 0.0
C21 C 0.00178 0.0456 0.78838 0.0
C22 C 0.01397 0.03213 0.6472 0.0
C23 C 0.94174 0.02088 0.47576 0.0
C24 C 0.96189 0.93692 0.53989 0.0
C25 C 0.9905 0.94863 0.29339 0.0
C26 C 0.99205 0.96363 0.1872 0.0
C27 C -0.00502 0.99018 0.2239 0.0
C28 C -0.00571 0.98274 0.27646 0.0
C29 C 0.98727 0.92224 0.25705 0.0
C30 C 0.98801 0.92958 0.20473 0.0
C31 C 0.99018 0.9396 0.34839 0.0
H32 H 0.99244 0.95834 0.7828 0.0
H33 H 2e-05 0.96976 0.69202 0.0
H34 H 0.01017 0.07826 0.72384 0.0
H35 H 0.00327 0.06712 0.81459 0.0
H36 H -0.00156 0.01666 0.21211 0.0
H37 H -0.00309 0.00355 0.30385 0.0
H38 H 0.98419 0.89574 0.26917 0.0
H39 H 0.98504 0.90847 0.17795 0.0
Dy40 Dy 0.25952 0.7334 0.71751 0.0
Dy41 Dy 0.21729 0.7367 0.82972 0.0
C42 C 0.19136 0.77744 0.72898 0.0
O43 O 0.27609 0.78119 0.75918 0.0
O44 O 0.2666 0.76486 0.84192 0.0
O45 O 0.27736 0.75991 0.65124 0.0
O46 O 0.28419 0.70462 0.65784 0.0
O47 O 0.25543 0.69356 0.83287 0.0
O48 O 0.29614 0.71263 0.77819 0.0
O49 O 0.18379 0.70805 0.77272 0.0
O50 O 0.22778 0.6864 0.72623 0.0
O51 O 0.19238 0.71024 0.89079 0.0
O52 O 0.19826 0.76565 0.89337 0.0
C53 C 0.28106 0.78498 0.80891 0.0
O54 O 0.20703 0.75461 0.70133 0.0
O55 O 0.1967 0.77949 0.77887 0.0
C56 C 0.27793 0.72849 0.57336 0.0
C57 C 0.26279 0.72696 0.46574 0.0
C58 C 0.23649 0.73337 0.50014 0.0
C59 C 0.24398 0.7342 0.55328 0.0
C60 C 0.30402 0.72144 0.53939 0.0
C61 C 0.29662 0.72067 0.48642 0.0
C62 C 0.28733 0.73176 0.62888 0.0
C63 C 0.28726 0.69427 0.81766 0.0
C64 C 0.19523 0.68672 0.73824 0.0
C65 C 0.19817 0.73615 0.97328 0.0
C66 C 0.2145 0.73271 0.08051 0.0
C67 C 0.24041 0.72806 0.0449 0.0
C68 C 0.23233 0.72972 0.99192 0.0
C69 C 0.17239 0.7409 0.00849 0.0
C70 C 0.18037 0.73923 0.06126 0.0
C71 C 0.18863 0.73821 0.91768 0.0
H72 H 0.21019 0.73866 0.48602 0.0
H73 H 0.22337 0.73987 0.5786 0.0
H74 H 0.33042 0.71697 0.55384 0.0
H75 H 0.31752 0.71501 0.46166 0.0
H76 H 0.26691 0.72264 0.05788 0.0
H77 H 0.25272 0.72592 0.96553 0.0
H78 H 0.14588 0.74607 0.99512 0.0
H79 H 0.15973 0.7436 0.08699 0.0
Dy80 Dy 0.49511 0.02409 0.92807 0.0
Dy81 Dy 0.50045 0.98153 0.04323 0.0
C82 C 0.44831 0.95918 0.95062 0.0
O83 O 0.45286 0.04534 0.97586 0.0
O84 O 0.47715 0.03297 0.05608 0.0
O85 O 0.46526 0.04211 0.86106 0.0
O86 O 0.52056 0.05069 0.8674 0.0
O87 O 0.54704 0.01307 0.03166 0.0
O88 O 0.52332 0.05775 0.98488 0.0
O89 O 0.52334 0.94542 0.98754 0.0
O90 O 0.53853 0.98565 0.92742 0.0
O91 O 0.53121 0.96219 0.10887 0.0
O92 O 0.47544 0.95884 0.10742 0.0
C93 C 0.45483 0.04984 0.02588 0.0
O94 O 0.46746 0.97464 0.91772 0.0
O95 O 0.45262 0.96372 1.00024 0.0
C96 C 0.49493 0.04377 0.78315 0.0
C97 C 0.49783 0.02874 0.67681 0.0
C98 C 0.48778 0.00342 0.71189 0.0
C99 C 0.48633 0.01084 0.76435 0.0
C100 C 0.50532 0.06889 0.74853 0.0
C101 C 0.50677 0.06153 0.69622 0.0
C102 C 0.49234 0.05297 0.83804 0.0
C103 C 0.54518 0.04604 0.02091 0.0
C104 C 0.54047 0.95441 0.94736 0.0
C105 C 0.50437 0.964 0.1894 0.0
C106 C 0.50395 0.9804 0.29551 0.0
C107 C 0.51371 0.00511 0.25927 0.0
C108 C 0.51393 -0.003 0.20686 0.0
C109 C 0.4944 0.9395 0.22522 0.0
C110 C 0.49417 0.94752 0.27739 0.0
C111 C 0.5043 0.9542 0.13448 0.0
H112 H 0.48033 0.97798 0.69876 0.0
H113 H 0.47818 0.99094 0.79012 0.0
H114 H 0.51217 0.09445 0.76196 0.0
H115 H 0.51525 0.08161 0.67105 0.0
H116 H 0.5217 0.0306 0.27142 0.0
H117 H 0.52166 0.01646 0.18005 0.0
H118 H 0.48667 0.91395 0.21279 0.0
H119 H 0.48582 0.92792 0.30346 0.0
Dy120 Dy 0.22322 0.24429 0.19264 0.0
Dy121 Dy 0.26681 0.24104 0.31007 0.0
C122 C 0.2877 0.1937 0.21616 0.0
O123 O 0.18699 0.21924 0.24514 0.0
O124 O 0.22695 0.19978 0.30755 0.0
O125 O 0.19626 0.21939 0.12816 0.0
O126 O 0.20696 0.27395 0.12535 0.0
O127 O 0.21786 0.26985 0.31947 0.0
O128 O 0.20544 0.28986 0.2377 0.0
O129 O 0.28959 0.28432 0.26562 0.0
O130 O 0.27568 0.26548 0.18403 0.0
O131 O 0.28748 0.26777 0.37715 0.0
O132 O 0.29072 0.21212 0.37391 0.0
C133 C 0.19559 0.2002 0.28561 0.0
O134 O 0.25573 0.19657 0.19713 0.0
O135 O 0.29919 0.21205 0.25564 0.0
C136 C 0.20416 0.24411 0.0457 0.0
C137 C 0.21972 0.24037 0.9403 0.0
C138 C 0.24632 0.23962 0.97931 0.0
C139 C 0.23864 0.24145 0.03131 0.0
C140 C 0.17766 0.24474 0.00713 0.0
C141 C 0.18526 0.24292 0.95532 0.0
C142 C 0.195 0.24729 0.10011 0.0
C143 C 0.20214 0.29155 0.28749 0.0
C144 C 0.29352 0.28525 0.21594 0.0
C145 C 0.28665 0.23772 0.45667 0.0
C146 C 0.27143 0.23745 0.56233 0.0
C147 C 0.2448 0.24081 0.52367 0.0
C148 C 0.25232 0.24103 0.47152 0.0
C149 C 0.31312 0.23386 0.49492 0.0
C150 C 0.30568 0.23371 0.54686 0.0
C151 C 0.29586 0.23951 0.4021 0.0
H152 H 0.27315 0.23727 0.96977 0.0
H153 H 0.25962 0.24091 0.06027 0.0
H154 H 0.15087 0.24701 0.01707 0.0
H155 H 0.16396 0.24422 0.92699 0.0
H156 H 0.21814 0.24405 0.53365 0.0
H157 H 0.23138 0.24419 0.44284 0.0
H158 H 0.3398 0.23122 0.48461 0.0
H159 H 0.32694 0.23041 0.57494 0.0
Dy160 Dy 0.75098 0.22417 0.24109 0.0
Dy161 Dy 0.71052 0.23798 0.35321 0.0
C162 C 0.69842 0.28701 0.25625 0.0
O163 O 0.79098 0.24438 0.29719 0.0
O164 O 0.75406 0.27462 0.34773 0.0
O165 O 0.78361 0.24079 0.18072 0.0
O166 O 0.75959 0.19067 0.1768 0.0
O167 O 0.75495 0.20265 0.36783 0.0
O168 O 0.75587 0.17672 0.28941 0.0
O169 O 0.67953 0.20004 0.30559 0.0
O170 O 0.69474 0.21769 0.22589 0.0
O171 O 0.68587 0.21583 0.41781 0.0
O172 O 0.69406 0.2709 0.41471 0.0
C173 C 0.7847 0.26934 0.32942 0.0
O174 O 0.72837 0.27695 0.23961 0.0
O175 O 0.68386 0.27252 0.29525 0.0
C176 C 0.77031 0.21792 0.0975 0.0
C177 C 0.75691 0.225 0.98987 0.0
C178 C 0.73148 0.23386 0.02465 0.0
C179 C 0.7381 0.23032 0.07778 0.0
C180 C 0.79566 0.20915 0.06315 0.0
C181 C 0.7891 0.21257 0.01021 0.0
C182 C 0.77806 0.21317 0.15328 0.0
C183 C 0.76194 0.17617 0.33918 0.0
C184 C 0.67375 0.20193 0.25572 0.0
C185 C 0.69356 0.24484 0.4976 0.0
C186 C 0.70866 0.24147 0.60514 0.0
C187 C 0.73236 0.22859 0.57037 0.0
C188 C 0.72485 0.23017 0.51724 0.0
C189 C 0.67027 0.25827 0.53199 0.0
C190 C 0.67766 0.25663 0.58491 0.0
C191 C 0.68371 0.24509 0.44198 0.0
H192 H 0.70651 0.24389 0.01093 0.0
H193 H 0.71805 0.23719 0.10343 0.0
H194 H 0.82064 0.19929 0.07732 0.0
H195 H 0.80921 0.20482 0.98522 0.0
H196 H 0.75637 0.21649 0.58421 0.0
H197 H 0.74325 0.2195 0.49156 0.0
H198 H 0.646 0.26976 0.51788 0.0
H199 H 0.65899 0.26743 0.61002 0.0
Dy200 Dy 0.72568 0.74028 0.69341 0.0
Dy201 Dy 0.76976 0.74194 0.81026 0.0
C202 C 0.79053 0.69122 0.72127 0.0
O203 O 0.69072 0.71484 0.74754 0.0
O204 O 0.73234 0.69858 0.80964 0.0
O205 O 0.70194 0.71284 0.62869 0.0
O206 O 0.70624 0.76832 0.62612 0.0
O207 O 0.71905 0.76783 0.81883 0.0
O208 O 0.70515 0.78557 0.73637 0.0
O209 O 0.79127 0.78443 0.76295 0.0
O210 O 0.77751 0.76258 0.683 0.0
O211 O 0.78823 0.77058 0.87683 0.0
O212 O 0.79593 0.71528 0.87452 0.0
C213 C 0.70068 0.69727 0.78895 0.0
O214 O 0.75834 0.69282 0.7029 0.0
O215 O 0.80257 0.71232 0.75709 0.0
C216 C 0.70682 0.73899 0.54625 0.0
C217 C 0.72293 0.73803 0.44092 0.0
C218 C 0.7485 0.73058 0.47993 0.0
C219 C 0.74056 0.73115 0.53193 0.0
C220 C 0.68132 0.74619 0.50762 0.0
C221 C 0.68918 0.74572 0.45586 0.0
C222 C 0.69745 0.7406 0.60075 0.0
C223 C 0.70128 0.78738 0.78596 0.0
C224 C 0.79512 0.78366 0.71324 0.0
C225 C 0.78865 0.74059 0.95672 0.0
C226 C 0.77234 0.73851 0.062 0.0
C227 C 0.7469 0.74713 0.02338 0.0
C228 C 0.75492 0.74812 0.97149 0.0
C229 C 0.81392 0.73164 0.99488 0.0
C230 C 0.80595 0.7306 0.04664 0.0
C231 C 0.79848 0.74309 0.90243 0.0
H232 H 0.77486 0.7249 0.47042 0.0
H233 H 0.76082 0.72569 0.56092 0.0
H234 H 0.65509 0.75228 0.51752 0.0
H235 H 0.66853 0.75102 0.42746 0.0
H236 H 0.7206 0.75293 0.03313 0.0
H237 H 0.73482 0.755 0.94293 0.0
H238 H 0.84017 0.72588 0.98471 0.0
H239 H 0.82651 0.72433 0.07474 0.0
Dy240 Dy 0.5111 0.50798 0.07012 0.0
Dy241 Dy 0.49991 0.4682 0.95345 0.0
C242 C 0.55776 0.44813 0.03559 0.0
O243 O 0.53459 0.54432 0.01508 0.0
O244 O 0.54075 0.5079 0.94555 0.0
O245 O 0.54196 0.51032 0.14092 0.0
O246 O 0.49659 0.54295 0.13062 0.0
O247 O 0.47517 0.51972 0.94907 0.0
O248 O 0.46151 0.52709 0.03295 0.0
O249 O 0.45903 0.4481 1.00329 0.0
O250 O 0.48479 0.45814 0.08312 0.0
O251 O 0.46653 0.45259 0.88896 0.0
O252 O 0.52147 0.44089 0.8902 0.0
C253 C 0.54643 0.53727 0.96974 0.0
O254 O 0.55817 0.48103 0.04593 0.0
O255 O 0.53302 0.43518 1.00576 0.0
C256 C 0.51375 0.52576 0.21626 0.0
C257 C 0.50587 0.51352 0.32232 0.0
C258 C 0.5022 0.48652 0.28645 0.0
C259 C 0.50618 0.49256 0.23407 0.0
C260 C 0.51646 0.55284 0.25161 0.0
C261 C 0.51256 0.54685 0.30383 0.0
C262 C 0.52167 0.53245 0.16217 0.0
C263 C 0.45793 0.53525 0.98432 0.0
C264 C 0.4614 0.44293 0.05311 0.0
C265 C 0.49264 0.44942 0.80858 0.0
C266 C 0.49344 0.46527 0.70242 0.0
C267 C 0.50018 0.49088 0.73976 0.0
C268 C 0.49973 0.48305 0.79223 0.0
C269 C 0.48597 0.42389 0.77166 0.0
C270 C 0.48637 0.43164 0.71938 0.0
C271 C 0.49203 0.44015 0.86356 0.0
H272 H 0.49732 0.46047 0.29897 0.0
H273 H 0.50413 0.47114 0.20766 0.0
H274 H 0.52233 0.57866 0.23894 0.0
H275 H 0.51494 0.56848 0.32979 0.0
H276 H 0.50536 0.51715 0.7285 0.0
H277 H 0.50486 0.50324 0.82 0.0
H278 H 0.48055 0.39772 0.7833 0.0
H279 H 0.48165 0.411 0.69225 0.0
Dy280 Dy 0.98745 0.52311 0.42117 0.0
Dy281 Dy -0.00586 0.48159 0.5365 0.0
C282 C 0.95226 0.44966 0.44141 0.0
O283 O 0.95641 0.5536 0.47546 0.0
O284 O 0.94285 0.50853 0.52795 0.0
O285 O 0.95649 0.54377 0.35665 0.0
O286 O 0.01234 0.54671 0.35768 0.0
O287 O 0.00883 0.53605 0.54784 0.0
O288 O 0.03 0.54761 0.4694 0.0
O289 O 0.04065 0.46609 0.49311 0.0
O290 O 0.01955 0.47642 0.41058 0.0
O291 O 0.02501 0.46958 0.60539 0.0
O292 O 0.97178 0.45269 0.59785 0.0
C293 C 0.93775 0.54025 0.51116 0.0
O294 O 0.94876 0.48069 0.42111 0.0
O295 O 0.97348 0.44288 0.48092 0.0
C296 C 0.9829 0.54318 0.27593 0.0
C297 C 0.98296 0.52813 0.1694 0.0
C298 C 0.97883 0.50171 0.2058 0.0
C299 C 0.9788 0.50915 0.25842 0.0
C300 C 0.98716 0.56947 0.23994 0.0
C301 C 0.98721 0.56212 0.18754 0.0
C302 C 0.98337 0.55211 0.33114 0.0
C303 C 0.02845 0.55388 0.51851 0.0
C304 C 0.0421 0.46205 0.44325 0.0
C305 C -0.00496 0.464 0.68255 0.0
C306 C 0.99066 0.47839 0.78882 0.0
C307 C -0.00279 0.50489 0.75357 0.0
C308 C -0.00057 0.49778 0.70112 0.0
C309 C 0.98783 0.43774 0.71733 0.0
C310 C 0.98566 0.44478 0.7696 0.0
C311 C -0.00044 0.45501 0.62801 0.0
H312 H 0.97514 0.47528 0.19367 0.0
H313 H 0.97555 0.48835 0.28541 0.0
H314 H 0.99064 0.59589 0.25243 0.0
H315 H 0.99115 0.58317 0.1613 0.0
H316 H 0.00151 0.53104 0.7666 0.0
H317 H 0.00511 0.51857 0.67523 0.0
H318 H 0.98429 0.4115 0.7041 0.0
H319 H 0.97992 0.42373 0.79497 0.0
H320 H 0.07102 0.09377 0.50068 0.0
H321 H 0.13663 0.17228 0.24045 0.0
H322 H 0.04569 0.04849 0.35342 0.0
H323 H 0.19392 0.18106 0.3853 0.0
H324 H 0.09417 0.13613 0.2819 0.0
H325 H 0.10731 0.13597 0.45893 0.0
C326 C 0.07278 0.09297 0.45958 0.0
C327 C 0.05566 0.06744 0.43051 0.0
C328 C 0.11603 0.14614 0.30445 0.0
C329 C 0.09667 0.11559 0.3827 0.0
C330 C 0.14015 0.16675 0.28092 0.0
C331 C 0.16901 0.17925 0.30937 0.0
C332 C 0.12051 0.13874 0.3569 0.0
C333 C 0.17232 0.17147 0.36176 0.0
C334 C 0.09357 0.11689 0.43587 0.0
C335 C 0.05884 0.06751 0.37733 0.0
N336 N 0.14833 0.15179 0.38387 0.0
N337 N 0.07896 0.09121 0.3551 0.0
H338 H 0.09542 0.96309 0.60634 0.0
H339 H 0.15745 0.76734 0.63779 0.0
H340 H 0.06881 0.88222 0.4987 0.0
H341 H 0.17382 0.84319 0.75668 0.0
H342 H 0.12649 0.81021 0.58535 0.0
H343 H 0.128 0.92103 0.6595 0.0
C344 C 0.0969 0.93662 0.59347 0.0
C345 C 0.07925 0.92598 0.54824 0.0
C346 C 0.13659 0.81756 0.623 0.0
C347 C 0.11584 0.87794 0.60904 0.0
C348 C 0.15418 0.79306 0.65304 0.0
C349 C 0.16827 0.80193 0.70144 0.0
C350 C 0.1332 0.85128 0.64134 0.0
C351 C 0.16311 0.83543 0.71957 0.0
C352 C 0.11518 0.91262 0.62409 0.0
C353 C 0.08185 0.89143 0.53348 0.0
N354 N 0.14614 0.85915 0.68918 0.0
N355 N 0.09966 0.86859 0.56399 0.0
H356 H 0.31835 0.83096 0.7546 0.0
H357 H 0.40592 0.918 1.00485 0.0
H358 H 0.29696 0.80083 0.9087 0.0
H359 H 0.43039 0.94523 0.85081 0.0
H360 H 0.36367 0.87675 0.97021 0.0
H361 H 0.35767 0.87494 0.78918 0.0
C362 C 0.32185 0.83361 0.79567 0.0
C363 C 0.30444 0.81211 0.82878 0.0
C364 C 0.37827 0.89184 0.94402 0.0
C365 C 0.34931 0.8623 0.86855 0.0
C366 C 0.40236 0.91541 0.96379 0.0
C367 C 0.42184 0.93497 0.93071 0.0
C368 C 0.37365 0.88786 0.89088 0.0
C369 C 0.41609 0.93057 0.87781 0.0
C370 C 0.34429 0.85871 0.8154 0.0
C371 C 0.30992 0.81675 0.88168 0.0
N372 N 0.39258 0.90743 0.85955 0.0
N373 N 0.33193 0.84129 0.89991 0.0
H374 H 0.46616 0.08124 0.11756 0.0
H375 H 0.27489 0.15882 0.12664 0.0
H376 H 0.39064 0.0741 0.99126 0.0
H377 H 0.35602 0.17877 0.2417 0.0
H378 H 0.31604 0.12624 0.07788 0.0
H379 H 0.42583 0.11647 0.16361 0.0
C380 C 0.44108 0.08727 0.09932 0.0
C381 C 0.43162 0.07448 0.05057 0.0
C382 C 0.32484 0.13769 0.11381 0.0
C383 C 0.38507 0.11475 0.10359 0.0
C384 C 0.30129 0.15613 0.14201 0.0
C385 C 0.31193 0.17151 0.18865 0.0
C386 C 0.35933 0.13437 0.13237 0.0
C387 C 0.34658 0.16731 0.20613 0.0
C388 C 0.41805 0.10745 0.12573 0.0
C389 C 0.39896 0.08348 0.02871 0.0
N390 N 0.36901 0.14911 0.178 0.0
N391 N 0.37667 0.10284 0.05563 0.0
H392 H 0.91401 0.89316 0.49469 0.0
H393 H 0.84225 0.82801 0.76007 0.0
H394 H 0.95709 0.92464 0.64232 0.0
H395 H 0.80648 0.79046 0.61182 0.0
H396 H 0.88422 0.86421 0.71815 0.0
H397 H 0.87425 0.8554 0.5375 0.0
C398 C 0.91529 0.89203 0.53604 0.0
C399 C 0.93897 0.9122 0.5648 0.0
C400 C 0.86717 0.84796 0.69493 0.0
C401 C 0.89326 0.86917 0.61422 0.0
C402 C 0.84316 0.82736 0.71885 0.0
C403 C 0.82075 0.80612 0.68957 0.0
C404 C 0.86863 0.84739 0.64139 0.0
C405 C 0.82319 0.80632 0.63619 0.0
C406 C 0.89251 0.87048 0.56052 0.0
C407 C 0.93933 0.90961 0.6184 0.0
N408 N 0.84658 0.82661 0.61395 0.0
N409 N 0.91674 0.88864 0.64132 0.0
H410 H 0.90611 0.01286 0.38533 0.0
H411 H 0.7763 0.16527 0.44096 0.0
H412 H 0.89983 0.06125 0.53279 0.0
H413 H 0.78693 0.11857 0.29295 0.0
H414 H 0.81199 0.11926 0.47964 0.0
H415 H 0.85326 0.04265 0.35615 0.0
C416 C 0.89341 0.02972 0.41167 0.0
C417 C 0.90771 0.03552 0.46102 0.0
C418 C 0.80613 0.11884 0.43881 0.0
C419 C 0.84742 0.06981 0.4278 0.0
C420 C 0.78588 0.14516 0.4166 0.0
C421 C 0.7795 0.14621 0.36342 0.0
C422 C 0.82018 0.09359 0.40753 0.0
C423 C 0.79183 0.11912 0.33395 0.0
C424 C 0.86314 0.04656 0.39507 0.0
C425 C 0.8898 0.05665 0.49414 0.0
N426 N 0.81206 0.09413 0.35638 0.0
N427 N 0.86077 0.07367 0.47655 0.0
H428 H 0.63628 0.22199 0.1709 0.0
H429 H 0.57983 0.03038 0.11118 0.0
H430 H 0.64744 0.13944 0.28127 0.0
H431 H 0.54812 0.11655 0.01443 0.0
H432 H 0.60314 0.07043 0.17483 0.0
H433 H 0.60004 0.18511 0.11581 0.0
C434 C 0.63032 0.19627 0.18398 0.0
C435 C 0.64501 0.18342 0.23024 0.0
C436 C 0.59103 0.08062 0.13976 0.0
C437 C 0.60452 0.14091 0.16703 0.0
C438 C 0.57809 0.05775 0.10299 0.0
C439 C 0.56237 0.07015 0.05702 0.0
C440 C 0.58863 0.11618 0.13038 0.0
C441 C 0.56036 0.10589 0.04908 0.0
C442 C 0.60978 0.17521 0.15247 0.0
C443 C 0.6365 0.15016 0.24579 0.0
N444 N 0.57355 0.1277 0.08535 0.0
N445 N 0.61728 0.12969 0.21365 0.0
H446 H 0.66744 0.84237 0.73813 0.0
H447 H 0.56113 0.89059 0.98352 0.0
H448 H 0.67613 0.78666 0.88119 0.0
H449 H 0.57019 0.95936 0.85504 0.0
H450 H 0.59828 0.84889 0.94214 0.0
H451 H 0.62647 0.88242 0.77608 0.0
C452 C 0.66064 0.83846 0.77731 0.0
C453 C 0.67545 0.81129 0.80658 0.0
C454 C 0.59212 0.87314 0.92304 0.0
C455 C 0.62867 0.85674 0.85004 0.0
C456 C 0.57088 0.89693 0.94664 0.0
C457 C 0.56274 0.92865 0.92298 0.0
C458 C 0.60511 0.88097 0.87523 0.0
C459 C 0.57606 0.93539 0.87502 0.0
C460 C 0.63738 0.86135 0.799 0.0
C461 C 0.66569 0.80743 0.85723 0.0
N462 N 0.59657 0.91175 0.85273 0.0
N463 N 0.64297 0.82986 0.87726 0.0
H464 H 0.55208 0.54443 0.86723 0.0
H465 H 0.70276 0.68067 0.88972 0.0
H466 H 0.58548 0.59002 0.01122 0.0
H467 H 0.64126 0.6666 0.74951 0.0
H468 H 0.66253 0.64472 0.93432 0.0
H469 H 0.58677 0.58617 0.82282 0.0
C470 C 0.56676 0.56325 0.88954 0.0
C471 C 0.56625 0.56355 0.94309 0.0
C472 C 0.6577 0.64962 0.89388 0.0
C473 C 0.60604 0.61129 0.89236 0.0
C474 C 0.68079 0.6699 0.86823 0.0
C475 C 0.67552 0.67626 0.81563 0.0
C476 C 0.62939 0.63506 0.86667 0.0
C477 C 0.6463 0.66218 0.79 0.0
C478 C 0.58633 0.5872 0.86408 0.0
C479 C 0.58528 0.58885 0.96994 0.0
N480 N 0.62448 0.64183 0.8157 0.0
N481 N 0.60479 0.61148 0.94428 0.0
H482 H 0.69581 0.28886 0.15356 0.0
H483 H 0.59401 0.46361 0.12382 0.0
H484 H 0.65549 0.3392 0.28509 0.0
H485 H 0.57455 0.38091 0.01624 0.0
H486 H 0.62816 0.42399 0.17867 0.0
H487 H 0.66198 0.32838 0.09779 0.0
C488 C 0.68001 0.30852 0.17061 0.0
C489 C 0.67846 0.31126 0.22378 0.0
C490 C 0.61643 0.4147 0.14297 0.0
C491 C 0.64032 0.3562 0.16057 0.0
C492 C 0.59723 0.43722 0.11141 0.0
C493 C 0.58137 0.42535 0.06551 0.0
C494 C 0.62042 0.38044 0.12785 0.0
C495 C 0.58632 0.39092 0.05143 0.0
C496 C 0.66063 0.33072 0.13883 0.0
C497 C 0.65725 0.33656 0.24418 0.0
N498 N 0.60571 0.36953 0.08253 0.0
N499 N 0.63914 0.35855 0.21233 0.0
H500 H 0.96092 0.37994 0.4551 0.0
H501 H 0.77434 0.33725 0.34411 0.0
H502 H 0.89459 0.45602 0.3782 0.0
H503 H 0.85519 0.25992 0.34134 0.0
H504 H 0.81759 0.38061 0.36595 0.0
H505 H 0.92225 0.3345 0.42194 0.0
C506 C 0.93833 0.38706 0.43117 0.0
C507 C 0.93065 0.42179 0.41984 0.0
C508 C 0.82595 0.35421 0.3603 0.0
C509 C 0.88673 0.3703 0.38236 0.0
C510 C 0.80131 0.32943 0.34829 0.0
C511 C 0.81137 0.29504 0.34142 0.0
C512 C 0.86085 0.34445 0.36651 0.0
C513 C 0.8466 0.28628 0.34646 0.0
C514 C 0.91655 0.36116 0.41204 0.0
C515 C 0.90139 0.42962 0.38814 0.0
N516 N 0.87027 0.31089 0.35948 0.0
N517 N 0.88023 0.40407 0.37104 0.0
H518 H 0.85952 0.69901 0.70596 0.0
H519 H 0.88039 0.52085 0.55991 0.0
H520 H 0.77436 0.62927 0.67851 0.0
H521 H 0.94217 0.60966 0.52756 0.0
H522 H 0.84532 0.55672 0.6146 0.0
H523 H 0.89542 0.66212 0.65327 0.0
C524 C 0.84864 0.6756 0.68969 0.0
C525 C 0.81403 0.66705 0.69655 0.0
C526 C 0.86639 0.56838 0.59519 0.0
C527 C 0.85458 0.62518 0.63639 0.0
C528 C 0.88629 0.548 0.56391 0.0
C529 C 0.91392 0.56246 0.53883 0.0
C530 C 0.8747 0.60324 0.60235 0.0
C531 C 0.92071 0.59769 0.54562 0.0
C532 C 0.86893 0.65487 0.65921 0.0
C533 C 0.80094 0.63677 0.674 0.0
N534 N 0.90142 0.61687 0.57722 0.0
N535 N 0.82126 0.61686 0.64501 0.0
H536 H 0.3403 0.32842 0.26616 0.0
H537 H 0.41151 0.40265 1.0056 0.0
H538 H 0.30488 0.29562 0.11521 0.0
H539 H 0.45526 0.4293 0.155 0.0
H540 H 0.37109 0.36444 0.04599 0.0
H541 H 0.38166 0.36683 0.22701 0.0
C542 C 0.34119 0.32924 0.22494 0.0
C543 C 0.31905 0.30868 0.19407 0.0
C544 C 0.38957 0.3786 0.06996 0.0
C545 C 0.36615 0.35255 0.14908 0.0
C546 C 0.41268 0.40048 0.04686 0.0
C547 C 0.43691 0.41924 0.07682 0.0
C548 C 0.39053 0.3755 0.12349 0.0
C549 C 0.43712 0.41531 0.13023 0.0
C550 C 0.36481 0.35114 0.2026 0.0
C551 C 0.3214 0.31085 0.14077 0.0
N552 N 0.41426 0.39394 0.15183 0.0
N553 N 0.3444 0.33235 0.12011 0.0
H554 H 0.46896 0.57918 0.90725 0.0
H555 H 0.27962 0.65883 0.90642 0.0
H556 H 0.39762 0.55741 0.02449 0.0
H557 H 0.35548 0.68588 0.79767 0.0
H558 H 0.3238 0.62582 0.955 0.0
H559 H 0.42962 0.62338 0.87253 0.0
C560 C 0.44491 0.58391 0.92575 0.0
C561 C 0.43591 0.56432 0.96796 0.0
C562 C 0.33081 0.63916 0.9207 0.0
C563 C 0.39073 0.61456 0.92832 0.0
C564 C 0.30557 0.6578 0.89267 0.0
C565 C 0.31381 0.67461 0.84739 0.0
C566 C 0.36439 0.63721 0.90314 0.0
C567 C 0.34791 0.67293 0.83197 0.0
C568 C 0.42255 0.60922 0.90608 0.0
C569 C 0.4051 0.5719 0.99149 0.0
N570 N 0.37194 0.65428 0.85967 0.0
N571 N 0.38315 0.5962 0.97073 0.0
H572 H 0.20868 0.64833 0.65417 0.0
H573 H 0.01344 0.59175 0.60112 0.0
H574 H 0.12517 0.68125 0.74688 0.0
H575 H 0.09301 0.57479 0.49392 0.0
H576 H 0.05351 0.62644 0.65339 0.0
H577 H 0.16677 0.6211 0.59532 0.0
C578 C 0.18155 0.64954 0.66253 0.0
C579 C 0.17042 0.66694 0.7058 0.0
C580 C 0.06216 0.61557 0.61814 0.0
C581 C 0.1223 0.63617 0.63796 0.0
C582 C 0.03931 0.59585 0.58825 0.0
C583 C 0.05022 0.5802 0.54356 0.0
C584 C 0.09632 0.61926 0.60358 0.0
C585 C 0.08373 0.5865 0.52819 0.0
C586 C 0.15761 0.63427 0.62852 0.0
C587 C 0.13492 0.66794 0.71421 0.0
N588 N 0.1059 0.60519 0.5587 0.0
N589 N 0.1121 0.65269 0.68058 0.0
H590 H 0.1618 0.34105 0.23708 0.0
H591 H 0.0882 0.41807 0.49468 0.0
H592 H 0.19143 0.30314 0.38828 0.0
H593 H 0.05622 0.45356 0.34309 0.0
H594 H 0.12873 0.3778 0.4567 0.0
H595 H 0.12485 0.38441 0.27556 0.0
C596 C 0.16059 0.34182 0.27825 0.0
C597 C 0.17967 0.31828 0.30934 0.0
C598 C 0.1129 0.39453 0.43185 0.0
C599 C 0.13756 0.36784 0.3537 0.0
C600 C 0.08984 0.41759 0.45356 0.0
C601 C 0.06859 0.43908 0.42212 0.0
C602 C 0.1147 0.39305 0.37839 0.0
C603 C 0.07184 0.43732 0.36897 0.0
C604 C 0.13952 0.3666 0.30025 0.0
C605 C 0.17712 0.3206 0.3626 0.0
N606 N 0.09431 0.41465 0.34886 0.0
N607 N 0.15645 0.34485 0.383 0.0
H608 H 0.9654 0.05058 0.87938 0.0
H609 H 0.02301 0.92514 0.11355 0.0
H610 H 0.02493 0.95694 0.86305 0.0
H611 H 0.96425 0.01906 0.13182 0.0
H612 H 0.02346 0.93639 0.02191 0.0
H613 H 0.96441 0.03963 0.97131 0.0
C614 C 0.97837 0.02775 0.89495 0.0
C615 C -0.00468 0.00472 0.86283 0.0
C616 C 0.01045 0.95459 0.04587 0.0
C617 C -0.00598 -0.00815 0.96887 0.0
C618 C 0.00999 0.94808 0.09841 0.0
C619 C 0.99337 0.97103 0.13098 0.0
C620 C -0.00585 0.98434 0.02506 0.0
C621 C 0.97767 0.0007 0.10866 0.0
C622 C 0.97764 0.02144 0.94762 0.0
C623 C 0.01111 0.97528 0.8857 0.0
N624 N 0.97837 0.00641 0.05729 0.0
N625 N 0.01013 0.9698 0.93703 0.0
H626 H 0.20481 0.70358 0.41055 0.0
H627 H 0.27294 0.75537 0.13545 0.0
H628 H 0.30358 0.7512 0.38988 0.0
H629 H 0.17496 0.70615 0.15622 0.0
H630 H 0.28491 0.75343 0.22804 0.0
H631 H 0.19341 0.70453 0.31784 0.0
C632 C 0.22409 0.71441 0.38675 0.0
C633 C 0.2553 0.72728 0.40873 0.0
C634 C 0.26079 0.74303 0.21235 0.0
C635 C 0.24241 0.72815 0.30149 0.0
C636 C 0.25398 0.74391 0.15922 0.0
C637 C 0.22275 0.73101 0.13732 0.0
C638 C 0.23628 0.7291 0.24441 0.0
C639 C 0.19913 0.71699 0.17087 0.0
C640 C 0.21762 0.71475 0.33355 0.0
C641 C 0.27937 0.74047 0.37517 0.0
N642 N 0.20635 0.71645 0.22236 0.0
N643 N 0.27242 0.7406 0.3236 0.0
H644 H 0.51674 0.96821 0.6292 0.0
H645 H 0.48625 0.0416 0.34258 0.0
H646 H 0.48136 0.07193 0.59466 0.0
H647 H 0.52138 0.93792 0.37791 0.0
H648 H 0.48511 0.0535 0.43425 0.0
H649 H 0.51841 0.95677 0.53759 0.0
C650 C 0.5091 0.9886 0.60258 0.0
C651 C 0.4989 0.02119 0.62043 0.0
C652 C 0.49307 0.02813 0.42195 0.0
C653 C 0.5012 0.0082 0.51435 0.0
C654 C 0.49396 0.02133 0.36938 0.0
C655 C 0.50382 0.98857 0.35177 0.0
C656 C 0.50217 0.00208 0.45778 0.0
C657 C 0.51301 0.96339 0.38906 0.0
C658 C 0.5103 0.98207 0.55001 0.0
C659 C 0.48992 0.04656 0.58332 0.0
N660 N 0.51194 0.97065 0.43988 0.0
N661 N 0.49125 0.03955 0.53242 0.0
H662 H 0.18251 0.20889 0.86054 0.0
H663 H 0.31001 0.26632 0.64273 0.0
H664 H 0.27496 0.26838 0.89114 0.0
H665 H 0.21547 0.2104 0.61096 0.0
H666 H 0.29816 0.26629 0.73348 0.0
H667 H 0.19449 0.20851 0.76982 0.0
C668 C 0.20527 0.22207 0.84844 0.0
C669 C 0.22758 0.23887 0.88437 0.0
C670 C 0.27996 0.254 0.70674 0.0
C671 C 0.24177 0.23808 0.77923 0.0
C672 C 0.28683 0.2538 0.65463 0.0
C673 C 0.26387 0.23817 0.61838 0.0
C674 C 0.24985 0.23842 0.72356 0.0
C675 C 0.23389 0.2231 0.63688 0.0
C676 C 0.2122 0.22165 0.79633 0.0
C677 C 0.25707 0.25474 0.86557 0.0
N678 N 0.22785 0.22352 0.68785 0.0
N679 N 0.2632 0.25401 0.81466 0.0
H680 H 0.8022 0.24337 0.91599 0.0
H681 H 0.66275 0.22741 0.67964 0.0
H682 H 0.69585 0.21426 0.93242 0.0
H683 H 0.77069 0.24906 0.66149 0.0
H684 H 0.67416 0.22414 0.77206 0.0
H685 H 0.791 0.24678 0.82352 0.0
C686 C 0.77649 0.23748 0.90041 0.0
C687 C 0.75003 0.22832 0.93285 0.0
C688 C 0.6954 0.22961 0.74795 0.0
C689 C 0.73688 0.23274 0.82578 0.0
C690 C 0.68887 0.23172 0.69492 0.0
C691 C 0.71571 0.23874 0.66209 0.0
C692 C 0.72909 0.23463 0.76906 0.0
C693 C 0.74913 0.2433 0.68479 0.0
C694 C 0.77009 0.23965 0.84731 0.0
C695 C 0.7171 0.22183 0.90963 0.0
N696 N 0.7548 0.24129 0.7366 0.0
N697 N 0.71155 0.22411 0.85785 0.0
H698 H 0.76747 0.69499 0.39027 0.0
H699 H 0.72831 0.78159 0.11331 0.0
H700 H 0.69721 0.78086 0.36301 0.0
H701 H 0.7978 0.69497 0.13949 0.0
H702 H 0.71645 0.78136 0.20416 0.0
H703 H 0.77939 0.69491 0.29928 0.0
C704 C 0.75465 0.71401 0.36546 0.0
C705 C 0.73113 0.73791 0.38509 0.0
C706 C 0.7343 0.76236 0.19008 0.0
C707 C 0.74455 0.7377 0.27966 0.0
C708 C 0.74095 0.7623 0.13784 0.0
C709 C 0.76421 0.73826 0.11788 0.0
C710 C 0.7509 0.7382 0.22337 0.0
C711 C 0.78009 0.7144 0.1526 0.0
C712 C 0.76134 0.71378 0.31318 0.0
C713 C 0.71509 0.76151 0.35013 0.0
N714 N 0.77317 0.71499 0.20324 0.0
N715 N 0.72208 0.76079 0.29956 0.0
H716 H 0.45149 0.43958 0.62321 0.0
H717 H 0.5446 0.54239 0.40218 0.0
H718 H 0.53655 0.50926 0.65232 0.0
H719 H 0.46244 0.46955 0.37205 0.0
H720 H 0.54077 0.53182 0.49364 0.0
H721 H 0.45419 0.45114 0.53177 0.0
C722 C 0.4709 0.4572 0.61058 0.0
C723 C 0.49397 0.47324 0.64618 0.0
C724 C 0.52352 0.51815 0.4671 0.0
C725 C 0.49689 0.487 0.54047 0.0
C726 C 0.52551 0.52435 0.41462 0.0
C727 C 0.5037 0.507 0.37873 0.0
C728 C 0.49949 0.49439 0.48453 0.0
C729 C 0.48007 0.48336 0.39783 0.0
C730 C 0.47227 0.46394 0.55812 0.0
C731 C 0.51795 0.49645 0.62686 0.0
N732 N 0.47857 0.47784 0.44916 0.0
N733 N 0.51881 0.5025 0.5756 0.0
H734 H 0.01435 0.43735 0.86977 0.0
H735 H 0.95644 0.56777 0.08848 0.0
H736 H 0.96461 0.53564 0.83778 0.0
H737 H 0.00955 0.47117 0.12036 0.0
H738 H 0.95849 0.55609 0.99711 0.0
H739 H 0.0117 0.44874 0.96117 0.0
C740 C 0.00262 0.46127 0.88173 0.0
C741 C 0.98955 0.48544 0.8453 0.0
C742 C 0.9697 0.53741 0.02404 0.0
C743 C 0.98681 0.49889 0.95114 0.0
C744 C 0.96874 0.54415 0.07652 0.0
C745 C 0.98302 0.52058 0.11294 0.0
C746 C 0.98502 0.50676 0.00711 0.0
C747 C -0.00216 0.49006 0.09428 0.0
C748 C 0.00134 0.46785 0.93422 0.0
C749 C 0.97538 0.51627 0.86394 0.0
N750 N -0.0015 0.48414 0.04297 0.0
N751 N 0.97433 0.52202 0.91525 0.0
loop_
_geom_bond_atom_site_label_1
_geom_bond_atom_site_label_2
_geom_bond_distance
_geom_bond_site_symmetry_2
_ccdc_geom_bond_type
Dy0 O3 2.307 . S
Dy0 O5 2.395 . S
Dy0 O6 2.379 1_455 S
Dy0 O8 2.339 1_455 S
Dy0 O10 2.298 1_445 S
Dy0 O14 2.275 1_545 S
Dy0 C22 2.738 1_455 S
Dy1 O4 2.298 1_665 S
Dy1 O7 2.275 1_565 S
Dy1 O9 2.307 . S
Dy1 O11 2.395 . S
Dy1 O12 2.379 1_655 S
Dy1 O15 2.339 1_655 S
Dy1 C31 2.738 1_655 S
C2 O14 1.254 . S
C2 O15 1.257 . S
O3 Dy0 2.307 . S
O3 C13 1.266 . S
O4 Dy1 2.298 1_445 S
O4 C13 1.236 . S
O5 Dy0 2.395 . S
O5 C22 1.255 1_455 S
O6 Dy0 2.379 1_655 S
O6 C22 1.249 . S
O7 Dy1 2.275 1_545 S
O7 C23 1.254 . S
O8 Dy0 2.339 1_655 S
O8 C23 1.257 . S
O9 Dy1 2.307 . S
O9 C24 1.266 . S
O10 Dy0 2.298 1_665 S
O10 C24 1.236 . S
O11 Dy1 2.395 . S
O11 C31 1.255 1_655 S
O12 Dy1 2.379 1_455 S
O12 C31 1.249 . S
C13 O3 1.266 . S
C13 O4 1.236 . S
O14 Dy0 2.275 1_565 S
O14 C2 1.254 . S
O15 Dy1 2.339 1_455 S
O15 C2 1.257 . S
C16 C19 1.351 1_545 S
C16 C20 1.328 . S
C16 C22 1.516 . S
C17 C18 1.304 1_545 S
C17 C21 1.323 . S
C18 C17 1.304 1_565 S
C18 C19 1.377 . S
C18 H32 0.930 1_655 S
C19 C16 1.351 1_565 S
C19 C18 1.377 . S
C19 H33 0.919 1_655 S
C20 C16 1.328 . S
C20 C21 1.433 . S
C20 H34 0.931 . S
C21 C17 1.323 . S
C21 C20 1.433 . S
C21 H35 0.933 . S
C22 Dy0 2.738 1_655 S
C22 O5 1.255 1_655 S
C22 O6 1.249 . S
C22 C16 1.516 . S
C23 O7 1.254 . S
C23 O8 1.257 . S
C24 O9 1.266 . S
C24 O10 1.236 . S
C25 C28 1.344 1_565 S
C25 C29 1.328 . S
C25 C31 1.516 . S
C26 C27 1.304 1_565 S
C26 C30 1.323 . S
C27 C26 1.304 1_545 S
C27 C28 1.371 . S
C27 H36 0.930 1_455 S
C28 C25 1.344 1_545 S
C28 C27 1.371 . S
C28 H37 0.931 1_455 S
C29 C25 1.328 . S
C29 C30 1.433 . S
C29 H38 0.931 . S
C30 C26 1.323 . S
C30 C29 1.433 . S
C30 H39 0.933 . S
C31 Dy1 2.738 1_455 S
C31 O11 1.255 1_455 S
C31 O12 1.249 . S
C31 C25 1.516 . S
H32 C18 0.930 1_455 S
H33 C19 0.919 1_455 S
H34 C20 0.931 . S
H35 C21 0.933 . S
H36 C27 0.930 1_655 S
H37 C28 0.931 1_655 S
H38 C29 0.931 . S
H39 C30 0.933 . S
Dy40 O43 2.307 . S
Dy40 O45 2.395 . S
Dy40 O46 2.379 . S
Dy40 O48 2.339 . S
Dy40 O50 2.298 . S
Dy40 O54 2.275 . S
Dy40 C62 2.738 . S
Dy41 O44 2.298 . S
Dy41 O47 2.275 . S
Dy41 O49 2.307 . S
Dy41 O51 2.395 . S
Dy41 O52 2.379 . S
Dy41 O55 2.339 . S
Dy41 C71 2.738 . S
C42 O54 1.254 . S
C42 O55 1.257 . S
O43 Dy40 2.307 . S
O43 C53 1.266 . S
O44 Dy41 2.298 . S
O44 C53 1.236 . S
O45 Dy40 2.395 . S
O45 C62 1.255 . S
O46 Dy40 2.379 . S
O46 C62 1.249 . S
O47 Dy41 2.275 . S
O47 C63 1.254 . S
O48 Dy40 2.339 . S
O48 C63 1.257 . S
O49 Dy41 2.307 . S
O49 C64 1.266 . S
O50 Dy40 2.298 . S
O50 C64 1.236 . S
O51 Dy41 2.395 . S
O51 C71 1.255 . S
O52 Dy41 2.379 . S
O52 C71 1.249 . S
C53 O43 1.266 . S
C53 O44 1.236 . S
O54 Dy40 2.275 . S
O54 C42 1.254 . S
O55 Dy41 2.339 . S
O55 C42 1.257 . S
C56 C59 1.344 . S
C56 C60 1.328 . S
C56 C62 1.516 . S
C57 C58 1.304 . S
C57 C61 1.323 . S
C58 C57 1.304 . S
C58 C59 1.371 . S
C58 H72 0.930 . S
C59 C56 1.344 . S
C59 C58 1.371 . S
C59 H73 0.931 . S
C60 C56 1.328 . S
C60 C61 1.433 . S
C60 H74 0.931 . S
C61 C57 1.323 . S
C61 C60 1.433 . S
C61 H75 0.933 . S
C62 Dy40 2.738 . S
C62 O45 1.255 . S
C62 O46 1.249 . S
C62 C56 1.516 . S
C63 O47 1.254 . S
C63 O48 1.257 . S
C64 O49 1.266 . S
C64 O50 1.236 . S
C65 C68 1.344 . S
C65 C69 1.328 . S
C65 C71 1.516 . S
C66 C67 1.304 . S
C66 C70 1.323 . S
C67 C66 1.304 . S
C67 C68 1.371 1_554 S
C67 H76 0.930 . S
C68 C65 1.344 . S
C68 C67 1.371 1_556 S
C68 H77 0.931 . S
C69 C65 1.328 . S
C69 C70 1.433 1_556 S
C69 H78 0.931 . S
C70 C66 1.323 . S
C70 C69 1.433 1_554 S
C70 H79 0.933 . S
C71 Dy41 2.738 . S
C71 O51 1.255 . S
C71 O52 1.249 . S
C71 C65 1.516 . S
H72 C58 0.930 . S
H73 C59 0.931 . S
H74 C60 0.931 . S
H75 C61 0.933 . S
H76 C67 0.930 . S
H77 C68 0.931 . S
H78 C69 0.931 . S
H79 C70 0.933 . S
Dy80 O83 2.315 . S
Dy80 O85 2.395 . S
Dy80 O86 2.379 . S
Dy80 O88 2.339 . S
Dy80 O90 2.298 1_545 S
Dy80 O94 2.275 1_545 S
Dy80 C102 2.738 . S
Dy81 O84 2.298 1_565 S
Dy81 O87 2.275 1_565 S
Dy81 O89 2.319 . S
Dy81 O91 2.395 . S
Dy81 O92 2.379 . S
Dy81 O95 2.339 . S
Dy81 C111 2.738 . S
C82 O94 1.254 . S
C82 O95 1.257 1_556 S
O83 Dy80 2.315 . S
O83 C93 1.257 1_556 S
O84 Dy81 2.298 1_545 S
O84 C93 1.236 . S
O85 Dy80 2.395 . S
O85 C102 1.255 . S
O86 Dy80 2.379 . S
O86 C102 1.249 . S
O87 Dy81 2.275 1_545 S
O87 C103 1.254 . S
O88 Dy80 2.339 . S
O88 C103 1.257 1_556 S
O89 Dy81 2.319 . S
O89 C104 1.252 1_554 S
O90 Dy80 2.298 1_565 S
O90 C104 1.236 . S
O91 Dy81 2.395 . S
O91 C111 1.255 . S
O92 Dy81 2.379 . S
O92 C111 1.249 . S
C93 O83 1.257 1_554 S
C93 O84 1.236 . S
O94 Dy80 2.275 1_565 S
O94 C82 1.254 . S
O95 Dy81 2.339 . S
O95 C82 1.257 1_554 S
C96 C99 1.344 1_545 S
C96 C100 1.328 . S
C96 C102 1.516 . S
C97 C98 1.304 1_545 S
C97 C101 1.323 . S
C98 C97 1.304 1_565 S
C98 C99 1.371 . S
C98 H112 0.930 . S
C99 C96 1.344 1_565 S
C99 C98 1.371 . S
C99 H113 0.931 . S
C100 C96 1.328 . S
C100 C101 1.433 . S
C100 H114 0.931 . S
C101 C97 1.323 . S
C101 C100 1.433 . S
C101 H115 0.933 . S
C102 Dy80 2.738 . S
C102 O85 1.255 . S
C102 O86 1.249 . S
C102 C96 1.516 . S
C103 O87 1.254 . S
C103 O88 1.257 1_554 S
C104 O89 1.252 1_556 S
C104 O90 1.236 . S
C105 C108 1.344 1_565 S
C105 C109 1.328 . S
C105 C111 1.516 . S
C106 C107 1.304 1_565 S
C106 C110 1.323 . S
C107 C106 1.304 1_545 S
C107 C108 1.371 . S
C107 H116 0.930 . S
C108 C105 1.344 1_545 S
C108 C107 1.371 . S
C108 H117 0.931 . S
C109 C105 1.328 . S
C109 C110 1.433 . S
C109 H118 0.931 . S
C110 C106 1.323 . S
C110 C109 1.433 . S
C110 H119 0.933 . S
C111 Dy81 2.738 . S
C111 O91 1.255 . S
C111 O92 1.249 . S
C111 C105 1.516 . S
H112 C98 0.930 . S
H113 C99 0.931 . S
H114 C100 0.931 . S
H115 C101 0.933 . S
H116 C107 0.930 . S
H117 C108 0.931 . S
H118 C109 0.931 . S
H119 C110 0.933 . S
Dy120 O123 2.307 . S
Dy120 O125 2.395 . S
Dy120 O126 2.379 . S
Dy120 O128 2.339 . S
Dy120 O130 2.298 . S
Dy120 O134 2.275 . S
Dy120 C142 2.738 . S
Dy121 O124 2.298 . S
Dy121 O127 2.275 . S
Dy121 O129 2.307 . S
Dy121 O131 2.395 . S
Dy121 O132 2.379 . S
Dy121 O135 2.339 . S
Dy121 C151 2.738 . S
C122 O134 1.254 . S
C122 O135 1.257 . S
O123 Dy120 2.307 . S
O123 C133 1.266 . S
O124 Dy121 2.298 . S
O124 C133 1.236 . S
O125 Dy120 2.395 . S
O125 C142 1.255 . S
O126 Dy120 2.379 . S
O126 C142 1.249 . S
O127 Dy121 2.275 . S
O127 C143 1.254 . S
O128 Dy120 2.339 . S
O128 C143 1.257 . S
O129 Dy121 2.307 . S
O129 C144 1.266 . S
O130 Dy120 2.298 . S
O130 C144 1.236 . S
O131 Dy121 2.395 . S
O131 C151 1.255 . S
O132 Dy121 2.379 . S
O132 C151 1.249 . S
C133 O123 1.266 . S
C133 O124 1.236 . S
O134 Dy120 2.275 . S
O134 C122 1.254 . S
O135 Dy121 2.339 . S
O135 C122 1.257 . S
C136 C139 1.344 . S
C136 C140 1.328 . S
C136 C142 1.516 . S
C137 C138 1.304 . S
C137 C141 1.323 . S
C138 C137 1.304 . S
C138 C139 1.371 1_556 S
C138 H152 0.930 . S
C139 C136 1.344 . S
C139 C138 1.371 1_554 S
C139 H153 0.931 . S
C140 C136 1.328 . S
C140 C141 1.433 1_554 S
C140 H154 0.931 . S
C141 C137 1.323 . S
C141 C140 1.433 1_556 S
C141 H155 0.933 . S
C142 Dy120 2.738 . S
C142 O125 1.255 . S
C142 O126 1.249 . S
C142 C136 1.516 . S
C143 O127 1.254 . S
C143 O128 1.257 . S
C144 O129 1.266 . S
C144 O130 1.236 . S
C145 C148 1.344 . S
C145 C149 1.328 . S
C145 C151 1.516 . S
C146 C147 1.304 . S
C146 C150 1.323 . S
C147 C146 1.304 . S
C147 C148 1.371 . S
C147 H156 0.930 . S
C148 C145 1.344 . S
C148 C147 1.371 . S
C148 H157 0.931 . S
C149 C145 1.328 . S
C149 C150 1.433 . S
C149 H158 0.931 . S
C150 C146 1.323 . S
C150 C149 1.433 . S
C150 H159 0.933 . S
C151 Dy121 2.738 . S
C151 O131 1.255 . S
C151 O132 1.249 . S
C151 C145 1.516 . S
H152 C138 0.930 . S
H153 C139 0.931 . S
H154 C140 0.931 . S
H155 C141 0.933 . S
H156 C147 0.930 . S
H157 C148 0.931 . S
H158 C149 0.931 . S
H159 C150 0.933 . S
Dy160 O163 2.307 . S
Dy160 O165 2.395 . S
Dy160 O166 2.379 . S
Dy160 O168 2.339 . S
Dy160 O170 2.298 . S
Dy160 O174 2.275 . S
Dy160 C182 2.738 . S
Dy161 O164 2.298 . S
Dy161 O167 2.275 . S
Dy161 O169 2.307 . S
Dy161 O171 2.395 . S
Dy161 O172 2.379 . S
Dy161 O175 2.339 . S
Dy161 C191 2.738 . S
C162 O174 1.254 . S
C162 O175 1.257 . S
O163 Dy160 2.307 . S
O163 C173 1.266 . S
O164 Dy161 2.298 . S
O164 C173 1.236 . S
O165 Dy160 2.395 . S
O165 C182 1.255 . S
O166 Dy160 2.379 . S
O166 C182 1.249 . S
O167 Dy161 2.275 . S
O167 C183 1.254 . S
O168 Dy160 2.339 . S
O168 C183 1.257 . S
O169 Dy161 2.307 . S
O169 C184 1.266 . S
O170 Dy160 2.298 . S
O170 C184 1.236 . S
O171 Dy161 2.395 . S
O171 C191 1.255 . S
O172 Dy161 2.379 . S
O172 C191 1.249 . S
C173 O163 1.266 . S
C173 O164 1.236 . S
O174 Dy160 2.275 . S
O174 C162 1.254 . S
O175 Dy161 2.339 . S
O175 C162 1.257 . S
C176 C179 1.344 . S
C176 C180 1.328 . S
C176 C182 1.516 . S
C177 C178 1.304 . S
C177 C181 1.323 . S
C178 C177 1.304 . S
C178 C179 1.371 1_556 S
C178 H192 0.930 . S
C179 C176 1.344 . S
C179 C178 1.371 1_554 S
C179 H193 0.931 . S
C180 C176 1.328 . S
C180 C181 1.433 1_554 S
C180 H194 0.931 . S
C181 C177 1.323 . S
C181 C180 1.433 1_556 S
C181 H195 0.933 . S
C182 Dy160 2.738 . S
C182 O165 1.255 . S
C182 O166 1.249 . S
C182 C176 1.516 . S
C183 O167 1.254 . S
C183 O168 1.257 . S
C184 O169 1.266 . S
C184 O170 1.236 . S
C185 C188 1.344 . S
C185 C189 1.328 . S
C185 C191 1.516 . S
C186 C187 1.304 . S
C186 C190 1.323 . S
C187 C186 1.304 . S
C187 C188 1.371 . S
C187 H196 0.930 . S
C188 C185 1.344 . S
C188 C187 1.371 . S
C188 H197 0.931 . S
C189 C185 1.328 . S
C189 C190 1.433 . S
C189 H198 0.931 . S
C190 C186 1.323 . S
C190 C189 1.433 . S
C190 H199 0.933 . S
C191 Dy161 2.738 . S
C191 O171 1.255 . S
C191 O172 1.249 . S
C191 C185 1.516 . S
H192 C178 0.930 . S
H193 C179 0.931 . S
H194 C180 0.931 . S
H195 C181 0.933 . S
H196 C187 0.930 . S
H197 C188 0.931 . S
H198 C189 0.931 . S
H199 C190 0.933 . S
Dy200 O203 2.307 . S
Dy200 O205 2.395 . S
Dy200 O206 2.379 . S
Dy200 O208 2.339 . S
Dy200 O210 2.298 . S
Dy200 O214 2.275 . S
Dy200 C222 2.738 . S
Dy201 O204 2.298 . S
Dy201 O207 2.275 . S
Dy201 O209 2.307 . S
Dy201 O211 2.395 . S
Dy201 O212 2.379 . S
Dy201 O215 2.339 . S
Dy201 C231 2.738 . S
C202 O214 1.254 . S
C202 O215 1.257 . S
O203 Dy200 2.307 . S
O203 C213 1.266 . S
O204 Dy201 2.298 . S
O204 C213 1.236 . S
O205 Dy200 2.395 . S
O205 C222 1.255 . S
O206 Dy200 2.379 . S
O206 C222 1.249 . S
O207 Dy201 2.275 . S
O207 C223 1.254 . S
O208 Dy200 2.339 . S
O208 C223 1.257 . S
O209 Dy201 2.307 . S
O209 C224 1.266 . S
O210 Dy200 2.298 . S
O210 C224 1.236 . S
O211 Dy201 2.395 . S
O211 C231 1.255 . S
O212 Dy201 2.379 . S
O212 C231 1.249 . S
C213 O203 1.266 . S
C213 O204 1.236 . S
O214 Dy200 2.275 . S
O214 C202 1.254 . S
O215 Dy201 2.339 . S
O215 C202 1.257 . S
C216 C219 1.344 . S
C216 C220 1.328 . S
C216 C222 1.516 . S
C217 C218 1.304 . S
C217 C221 1.323 . S
C218 C217 1.304 . S
C218 C219 1.371 . S
C218 H232 0.930 . S
C219 C216 1.344 . S
C219 C218 1.371 . S
C219 H233 0.931 . S
C220 C216 1.328 . S
C220 C221 1.433 . S
C220 H234 0.931 . S
C221 C217 1.323 . S
C221 C220 1.433 . S
C221 H235 0.933 . S
C222 Dy200 2.738 . S
C222 O205 1.255 . S
C222 O206 1.249 . S
C222 C216 1.516 . S
C223 O207 1.254 . S
C223 O208 1.257 . S
C224 O209 1.266 . S
C224 O210 1.236 . S
C225 C228 1.344 . S
C225 C229 1.328 . S
C225 C231 1.516 . S
C226 C227 1.304 . S
C226 C230 1.323 . S
C227 C226 1.304 . S
C227 C228 1.371 1_554 S
C227 H236 0.930 . S
C228 C225 1.344 . S
C228 C227 1.371 1_556 S
C228 H237 0.931 . S
C229 C225 1.328 . S
C229 C230 1.433 1_556 S
C229 H238 0.931 . S
C230 C226 1.323 . S
C230 C229 1.433 1_554 S
C230 H239 0.933 . S
C231 Dy201 2.738 . S
C231 O211 1.255 . S
C231 O212 1.249 . S
C231 C225 1.516 . S
H232 C218 0.930 . S
H233 C219 0.931 . S
H234 C220 0.931 . S
H235 C221 0.933 . S
H236 C227 0.930 . S
H237 C228 0.931 . S
H238 C229 0.931 . S
H239 C230 0.933 . S
Dy240 O243 2.324 . S
Dy240 O245 2.395 . S
Dy240 O246 2.379 . S
Dy240 O248 2.339 . S
Dy240 O250 2.298 . S
Dy240 O254 2.275 . S
Dy240 C262 2.738 . S
Dy241 O244 2.298 . S
Dy241 O247 2.275 . S
Dy241 O249 2.320 . S
Dy241 O251 2.395 . S
Dy241 O252 2.379 . S
Dy241 O255 2.339 . S
Dy241 C271 2.738 . S
C242 O254 1.254 . S
C242 O255 1.257 1_554 S
O243 Dy240 2.324 . S
O243 C253 1.247 1_554 S
O244 Dy241 2.298 . S
O244 C253 1.236 . S
O245 Dy240 2.395 . S
O245 C262 1.255 . S
O246 Dy240 2.379 . S
O246 C262 1.249 . S
O247 Dy241 2.275 . S
O247 C263 1.254 . S
O248 Dy240 2.339 . S
O248 C263 1.257 1_554 S
O249 Dy241 2.320 . S
O249 C264 1.252 1_556 S
O250 Dy240 2.298 . S
O250 C264 1.236 . S
O251 Dy241 2.395 . S
O251 C271 1.255 . S
O252 Dy241 2.379 . S
O252 C271 1.249 . S
C253 O243 1.247 1_556 S
C253 O244 1.236 . S
O254 Dy240 2.275 . S
O254 C242 1.254 . S
O255 Dy241 2.339 . S
O255 C242 1.257 1_556 S
C256 C259 1.344 . S
C256 C260 1.328 . S
C256 C262 1.516 . S
C257 C258 1.304 . S
C257 C261 1.323 . S
C258 C257 1.304 . S
C258 C259 1.371 . S
C258 H272 0.930 . S
C259 C256 1.344 . S
C259 C258 1.371 . S
C259 H273 0.931 . S
C260 C256 1.328 . S
C260 C261 1.433 . S
C260 H274 0.931 . S
C261 C257 1.323 . S
C261 C260 1.433 . S
C261 H275 0.933 . S
C262 Dy240 2.738 . S
C262 O245 1.255 . S
C262 O246 1.249 . S
C262 C256 1.516 . S
C263 O247 1.254 . S
C263 O248 1.257 1_556 S
C264 O249 1.252 1_554 S
C264 O250 1.236 . S
C265 C268 1.344 . S
C265 C269 1.328 . S
C265 C271 1.516 . S
C266 C267 1.304 . S
C266 C270 1.323 . S
C267 C266 1.304 . S
C267 C268 1.371 . S
C267 H276 0.930 . S
C268 C265 1.344 . S
C268 C267 1.371 . S
C268 H277 0.931 . S
C269 C265 1.328 . S
C269 C270 1.433 . S
C269 H278 0.931 . S
C270 C266 1.323 . S
C270 C269 1.433 . S
C270 H279 0.933 . S
C271 Dy241 2.738 . S
C271 O251 1.255 . S
C271 O252 1.249 . S
C271 C265 1.516 . S
H272 C258 0.930 . S
H273 C259 0.931 . S
H274 C260 0.931 . S
H275 C261 0.933 . S
H276 C267 0.930 . S
H277 C268 0.931 . S
H278 C269 0.931 . S
H279 C270 0.933 . S
Dy280 O283 2.307 . S
Dy280 O285 2.395 . S
Dy280 O286 2.379 1_655 S
Dy280 O288 2.339 1_655 S
Dy280 O290 2.298 1_655 S
Dy280 O294 2.275 . S
Dy280 C302 2.738 1_655 S
Dy281 O284 2.298 1_455 S
Dy281 O287 2.275 . S
Dy281 O289 2.307 . S
Dy281 O291 2.395 . S
Dy281 O292 2.379 1_455 S
Dy281 O295 2.339 1_455 S
Dy281 C311 2.738 1_455 S
C282 O294 1.254 . S
C282 O295 1.257 . S
O283 Dy280 2.307 . S
O283 C293 1.266 . S
O284 Dy281 2.298 1_655 S
O284 C293 1.236 . S
O285 Dy280 2.395 . S
O285 C302 1.255 1_655 S
O286 Dy280 2.379 1_455 S
O286 C302 1.249 . S
O287 Dy281 2.275 . S
O287 C303 1.254 . S
O288 Dy280 2.339 1_455 S
O288 C303 1.257 . S
O289 Dy281 2.307 . S
O289 C304 1.266 . S
O290 Dy280 2.298 1_455 S
O290 C304 1.236 . S
O291 Dy281 2.395 . S
O291 C311 1.255 1_455 S
O292 Dy281 2.379 1_655 S
O292 C311 1.249 . S
C293 O283 1.266 . S
C293 O284 1.236 . S
O294 Dy280 2.275 . S
O294 C282 1.254 . S
O295 Dy281 2.339 1_655 S
O295 C282 1.257 . S
C296 C299 1.348 . S
C296 C300 1.328 . S
C296 C302 1.516 . S
C297 C298 1.304 . S
C297 C301 1.323 . S
C298 C297 1.304 . S
C298 C299 1.374 . S
C298 H312 0.930 1_455 S
C299 C296 1.348 . S
C299 C298 1.374 . S
C299 H313 0.924 1_455 S
C300 C296 1.328 . S
C300 C301 1.433 . S
C300 H314 0.931 . S
C301 C297 1.323 . S
C301 C300 1.433 . S
C301 H315 0.933 . S
C302 Dy280 2.738 1_455 S
C302 O285 1.255 1_455 S
C302 O286 1.249 . S
C302 C296 1.516 . S
C303 O287 1.254 . S
C303 O288 1.257 . S
C304 O289 1.266 . S
C304 O290 1.236 . S
C305 C308 1.346 . S
C305 C309 1.328 . S
C305 C311 1.516 . S
C306 C307 1.304 . S
C306 C310 1.323 . S
C307 C306 1.304 . S
C307 C308 1.372 . S
C307 H316 0.930 1_655 S
C308 C305 1.346 . S
C308 C307 1.372 . S
C308 H317 0.928 1_655 S
C309 C305 1.328 . S
C309 C310 1.433 . S
C309 H318 0.931 . S
C310 C306 1.323 . S
C310 C309 1.433 . S
C310 H319 0.933 . S
C311 Dy281 2.738 1_655 S
C311 O291 1.255 1_655 S
C311 O292 1.249 . S
C311 C305 1.516 . S
H312 C298 0.930 1_655 S
H313 C299 0.924 1_655 S
H314 C300 0.931 . S
H315 C301 0.933 . S
H316 C307 0.930 1_455 S
H317 C308 0.928 1_455 S
H318 C309 0.931 . S
H319 C310 0.933 . S
H320 C326 0.930 . S
H321 C330 0.930 . S
H322 C335 0.929 . S
H323 C333 0.929 . S
H324 C328 0.929 . S
H325 C334 0.929 . S
C326 H320 0.930 . S
C326 C327 1.367 . S
C326 C334 1.378 . S
C327 C326 1.367 . S
C327 C335 1.433 . S
C328 H324 0.929 . S
C328 C330 1.378 . S
C328 C332 1.350 . S
C329 C332 1.463 . S
C329 C334 1.350 . S
C329 N337 1.427 . S
C330 H321 0.930 . S
C330 C328 1.378 . S
C330 C331 1.367 . S
C331 C330 1.367 . S
C331 C333 1.433 . S
C332 C328 1.350 . S
C332 C329 1.463 . S
C332 N336 1.427 . S
C333 H323 0.929 . S
C333 C331 1.433 . S
C333 N336 1.384 . S
C334 H325 0.929 . S
C334 C326 1.378 . S
C334 C329 1.350 . S
C335 H322 0.929 . S
C335 C327 1.433 . S
C335 N337 1.384 . S
N336 C332 1.427 . S
N336 C333 1.384 . S
N337 C329 1.427 . S
N337 C335 1.384 . S
H338 C344 0.930 . S
H339 C348 0.930 . S
H340 C353 0.929 . S
H341 C351 0.929 . S
H342 C346 0.929 . S
H343 C352 0.929 . S
C344 H338 0.930 . S
C344 C345 1.367 . S
C344 C352 1.378 . S
C345 C344 1.367 . S
C345 C353 1.433 . S
C346 H342 0.929 . S
C346 C348 1.378 . S
C346 C350 1.350 . S
C347 C350 1.463 . S
C347 C352 1.350 . S
C347 N355 1.427 . S
C348 H339 0.930 . S
C348 C346 1.378 . S
C348 C349 1.367 . S
C349 C348 1.367 . S
C349 C351 1.433 . S
C350 C346 1.350 . S
C350 C347 1.463 . S
C350 N354 1.427 . S
C351 H341 0.929 . S
C351 C349 1.433 . S
C351 N354 1.384 . S
C352 H343 0.929 . S
C352 C344 1.378 . S
C352 C347 1.350 . S
C353 H340 0.929 . S
C353 C345 1.433 . S
C353 N355 1.384 . S
N354 C350 1.427 . S
N354 C351 1.384 . S
N355 C347 1.427 . S
N355 C353 1.384 . S
H356 C362 0.930 . S
H357 C366 0.930 . S
H358 C371 0.929 . S
H359 C369 0.929 . S
H360 C364 0.929 . S
H361 C370 0.929 . S
C362 H356 0.930 . S
C362 C363 1.367 . S
C362 C370 1.378 . S
C363 C362 1.367 . S
C363 C371 1.433 . S
C364 H360 0.929 . S
C364 C366 1.378 . S
C364 C368 1.350 . S
C365 C368 1.463 . S
C365 C370 1.350 . S
C365 N373 1.427 . S
C366 H357 0.930 . S
C366 C364 1.378 . S
C366 C367 1.367 . S
C367 C366 1.367 . S
C367 C369 1.433 . S
C368 C364 1.350 . S
C368 C365 1.463 . S
C368 N372 1.427 . S
C369 H359 0.929 . S
C369 C367 1.433 . S
C369 N372 1.384 . S
C370 H361 0.929 . S
C370 C362 1.378 . S
C370 C365 1.350 . S
C371 H358 0.929 . S
C371 C363 1.433 . S
C371 N373 1.384 . S
N372 C368 1.427 . S
N372 C369 1.384 . S
N373 C365 1.427 . S
N373 C371 1.384 . S
H374 C380 0.930 . S
H375 C384 0.930 . S
H376 C389 0.929 . S
H377 C387 0.929 . S
H378 C382 0.929 . S
H379 C388 0.929 . S
C380 H374 0.930 . S
C380 C381 1.367 . S
C380 C388 1.378 . S
C381 C380 1.367 . S
C381 C389 1.433 . S
C382 H378 0.929 . S
C382 C384 1.378 . S
C382 C386 1.350 . S
C383 C386 1.463 . S
C383 C388 1.350 . S
C383 N391 1.427 . S
C384 H375 0.930 . S
C384 C382 1.378 . S
C384 C385 1.367 . S
C385 C384 1.367 . S
C385 C387 1.433 . S
C386 C382 1.350 . S
C386 C383 1.463 . S
C386 N390 1.427 . S
C387 H377 0.929 . S
C387 C385 1.433 . S
C387 N390 1.384 . S
C388 H379 0.929 . S
C388 C380 1.378 . S
C388 C383 1.350 . S
C389 H376 0.929 . S
C389 C381 1.433 . S
C389 N391 1.384 . S
N390 C386 1.427 . S
N390 C387 1.384 . S
N391 C383 1.427 . S
N391 C389 1.384 . S
H392 C398 0.930 . S
H393 C402 0.930 . S
H394 C407 0.929 . S
H395 C405 0.929 . S
H396 C400 0.929 . S
H397 C406 0.929 . S
C398 H392 0.930 . S
C398 C399 1.367 . S
C398 C406 1.378 . S
C399 C398 1.367 . S
C399 C407 1.433 . S
C400 H396 0.929 . S
C400 C402 1.378 . S
C400 C404 1.350 . S
C401 C404 1.463 . S
C401 C406 1.350 . S
C401 N409 1.427 . S
C402 H393 0.930 . S
C402 C400 1.378 . S
C402 C403 1.367 . S
C403 C402 1.367 . S
C403 C405 1.433 . S
C404 C400 1.350 . S
C404 C401 1.463 . S
C404 N408 1.427 . S
C405 H395 0.929 . S
C405 C403 1.433 . S
C405 N408 1.384 . S
C406 H397 0.929 . S
C406 C398 1.378 . S
C406 C401 1.350 . S
C407 H394 0.929 . S
C407 C399 1.433 . S
C407 N409 1.384 . S
N408 C404 1.427 . S
N408 C405 1.384 . S
N409 C401 1.427 . S
N409 C407 1.384 . S
H410 C416 0.930 . S
H411 C420 0.930 . S
H412 C425 0.929 . S
H413 C423 0.929 . S
H414 C418 0.929 . S
H415 C424 0.929 . S
C416 H410 0.930 . S
C416 C417 1.367 . S
C416 C424 1.378 . S
C417 C416 1.367 . S
C417 C425 1.433 . S
C418 H414 0.929 . S
C418 C420 1.378 . S
C418 C422 1.350 . S
C419 C422 1.463 . S
C419 C424 1.350 . S
C419 N427 1.427 . S
C420 H411 0.930 . S
C420 C418 1.378 . S
C420 C421 1.367 . S
C421 C420 1.367 . S
C421 C423 1.433 . S
C422 C418 1.350 . S
C422 C419 1.463 . S
C422 N426 1.427 . S
C423 H413 0.929 . S
C423 C421 1.433 . S
C423 N426 1.384 . S
C424 H415 0.929 . S
C424 C416 1.378 . S
C424 C419 1.350 . S
C425 H412 0.929 . S
C425 C417 1.433 . S
C425 N427 1.384 . S
N426 C422 1.427 . S
N426 C423 1.384 . S
N427 C419 1.427 . S
N427 C425 1.384 . S
H428 C434 0.930 . S
H429 C438 0.930 . S
H430 C443 0.929 . S
H431 C441 0.929 . S
H432 C436 0.929 . S
H433 C442 0.929 . S
C434 H428 0.930 . S
C434 C435 1.367 . S
C434 C442 1.378 . S
C435 C434 1.367 . S
C435 C443 1.433 . S
C436 H432 0.929 . S
C436 C438 1.378 . S
C436 C440 1.350 . S
C437 C440 1.463 . S
C437 C442 1.350 . S
C437 N445 1.427 . S
C438 H429 0.930 . S
C438 C436 1.378 . S
C438 C439 1.367 . S
C439 C438 1.367 . S
C439 C441 1.433 . S
C440 C436 1.350 . S
C440 C437 1.463 . S
C440 N444 1.427 . S
C441 H431 0.929 . S
C441 C439 1.433 . S
C441 N444 1.384 . S
C442 H433 0.929 . S
C442 C434 1.378 . S
C442 C437 1.350 . S
C443 H430 0.929 . S
C443 C435 1.433 . S
C443 N445 1.384 . S
N444 C440 1.427 . S
N444 C441 1.384 . S
N445 C437 1.427 . S
N445 C443 1.384 . S
H446 C452 0.930 . S
H447 C456 0.930 . S
H448 C461 0.929 . S
H449 C459 0.929 . S
H450 C454 0.929 . S
H451 C460 0.929 . S
C452 H446 0.930 . S
C452 C453 1.367 . S
C452 C460 1.378 . S
C453 C452 1.367 . S
C453 C461 1.433 . S
C454 H450 0.929 . S
C454 C456 1.378 . S
C454 C458 1.350 . S
C455 C458 1.463 . S
C455 C460 1.350 . S
C455 N463 1.427 . S
C456 H447 0.930 . S
C456 C454 1.378 . S
C456 C457 1.367 . S
C457 C456 1.367 . S
C457 C459 1.433 . S
C458 C454 1.350 . S
C458 C455 1.463 . S
C458 N462 1.427 . S
C459 H449 0.929 . S
C459 C457 1.433 . S
C459 N462 1.384 . S
C460 H451 0.929 . S
C460 C452 1.378 . S
C460 C455 1.350 . S
C461 H448 0.929 . S
C461 C453 1.433 . S
C461 N463 1.384 . S
N462 C458 1.427 . S
N462 C459 1.384 . S
N463 C455 1.427 . S
N463 C461 1.384 . S
H464 C470 0.930 . S
H465 C474 0.930 . S
H466 C479 0.929 . S
H467 C477 0.929 . S
H468 C472 0.929 . S
H469 C478 0.929 . S
C470 H464 0.930 . S
C470 C471 1.367 . S
C470 C478 1.378 . S
C471 C470 1.367 . S
C471 C479 1.433 . S
C472 H468 0.929 . S
C472 C474 1.378 . S
C472 C476 1.350 . S
C473 C476 1.463 . S
C473 C478 1.350 . S
C473 N481 1.427 . S
C474 H465 0.930 . S
C474 C472 1.378 . S
C474 C475 1.367 . S
C475 C474 1.367 . S
C475 C477 1.433 . S
C476 C472 1.350 . S
C476 C473 1.463 . S
C476 N480 1.427 . S
C477 H467 0.929 . S
C477 C475 1.433 . S
C477 N480 1.384 . S
C478 H469 0.929 . S
C478 C470 1.378 . S
C478 C473 1.350 . S
C479 H466 0.929 . S
C479 C471 1.433 . S
C479 N481 1.384 . S
N480 C476 1.427 . S
N480 C477 1.384 . S
N481 C473 1.427 . S
N481 C479 1.384 . S
H482 C488 0.930 . S
H483 C492 0.930 . S
H484 C497 0.929 . S
H485 C495 0.929 . S
H486 C490 0.929 . S
H487 C496 0.929 . S
C488 H482 0.930 . S
C488 C489 1.367 . S
C488 C496 1.378 . S
C489 C488 1.367 . S
C489 C497 1.433 . S
C490 H486 0.929 . S
C490 C492 1.378 . S
C490 C494 1.350 . S
C491 C494 1.463 . S
C491 C496 1.350 . S
C491 N499 1.427 . S
C492 H483 0.930 . S
C492 C490 1.378 . S
C492 C493 1.367 . S
C493 C492 1.367 . S
C493 C495 1.433 . S
C494 C490 1.350 . S
C494 C491 1.463 . S
C494 N498 1.427 . S
C495 H485 0.929 . S
C495 C493 1.433 . S
C495 N498 1.384 . S
C496 H487 0.929 . S
C496 C488 1.378 . S
C496 C491 1.350 . S
C497 H484 0.929 . S
C497 C489 1.433 . S
C497 N499 1.384 . S
N498 C494 1.427 . S
N498 C495 1.384 . S
N499 C491 1.427 . S
N499 C497 1.384 . S
H500 C506 0.930 . S
H501 C510 0.930 . S
H502 C515 0.929 . S
H503 C513 0.929 . S
H504 C508 0.929 . S
H505 C514 0.929 . S
C506 H500 0.930 . S
C506 C507 1.367 . S
C506 C514 1.378 . S
C507 C506 1.367 . S
C507 C515 1.433 . S
C508 H504 0.929 . S
C508 C510 1.378 . S
C508 C512 1.350 . S
C509 C512 1.463 . S
C509 C514 1.350 . S
C509 N517 1.427 . S
C510 H501 0.930 . S
C510 C508 1.378 . S
C510 C511 1.367 . S
C511 C510 1.367 . S
C511 C513 1.433 . S
C512 C508 1.350 . S
C512 C509 1.463 . S
C512 N516 1.427 . S
C513 H503 0.929 . S
C513 C511 1.433 . S
C513 N516 1.384 . S
C514 H505 0.929 . S
C514 C506 1.378 . S
C514 C509 1.350 . S
C515 H502 0.929 . S
C515 C507 1.433 . S
C515 N517 1.384 . S
N516 C512 1.427 . S
N516 C513 1.384 . S
N517 C509 1.427 . S
N517 C515 1.384 . S
H518 C524 0.930 . S
H519 C528 0.930 . S
H520 C533 0.929 . S
H521 C531 0.929 . S
H522 C526 0.929 . S
H523 C532 0.929 . S
C524 H518 0.930 . S
C524 C525 1.367 . S
C524 C532 1.378 . S
C525 C524 1.367 . S
C525 C533 1.433 . S
C526 H522 0.929 . S
C526 C528 1.378 . S
C526 C530 1.350 . S
C527 C530 1.463 . S
C527 C532 1.350 . S
C527 N535 1.427 . S
C528 H519 0.930 . S
C528 C526 1.378 . S
C528 C529 1.367 . S
C529 C528 1.367 . S
C529 C531 1.433 . S
C530 C526 1.350 . S
C530 C527 1.463 . S
C530 N534 1.427 . S
C531 H521 0.929 . S
C531 C529 1.433 . S
C531 N534 1.384 . S
C532 H523 0.929 . S
C532 C524 1.378 . S
C532 C527 1.350 . S
C533 H520 0.929 . S
C533 C525 1.433 . S
C533 N535 1.384 . S
N534 C530 1.427 . S
N534 C531 1.384 . S
N535 C527 1.427 . S
N535 C533 1.384 . S
H536 C542 0.930 . S
H537 C546 0.930 . S
H538 C551 0.929 . S
H539 C549 0.929 . S
H540 C544 0.929 . S
H541 C550 0.929 . S
C542 H536 0.930 . S
C542 C543 1.367 . S
C542 C550 1.378 . S
C543 C542 1.367 . S
C543 C551 1.433 . S
C544 H540 0.929 . S
C544 C546 1.378 . S
C544 C548 1.350 . S
C545 C548 1.463 . S
C545 C550 1.350 . S
C545 N553 1.427 . S
C546 H537 0.930 . S
C546 C544 1.378 . S
C546 C547 1.367 . S
C547 C546 1.367 . S
C547 C549 1.433 . S
C548 C544 1.350 . S
C548 C545 1.463 . S
C548 N552 1.427 . S
C549 H539 0.929 . S
C549 C547 1.433 . S
C549 N552 1.384 . S
C550 H541 0.929 . S
C550 C542 1.378 . S
C550 C545 1.350 . S
C551 H538 0.929 . S
C551 C543 1.433 . S
C551 N553 1.384 . S
N552 C548 1.427 . S
N552 C549 1.384 . S
N553 C545 1.427 . S
N553 C551 1.384 . S
H554 C560 0.930 . S
H555 C564 0.930 . S
H556 C569 0.929 . S
H557 C567 0.929 . S
H558 C562 0.929 . S
H559 C568 0.929 . S
C560 H554 0.930 . S
C560 C561 1.367 . S
C560 C568 1.378 . S
C561 C560 1.367 . S
C561 C569 1.433 . S
C562 H558 0.929 . S
C562 C564 1.378 . S
C562 C566 1.350 . S
C563 C566 1.463 . S
C563 C568 1.350 . S
C563 N571 1.427 . S
C564 H555 0.930 . S
C564 C562 1.378 . S
C564 C565 1.367 . S
C565 C564 1.367 . S
C565 C567 1.433 . S
C566 C562 1.350 . S
C566 C563 1.463 . S
C566 N570 1.427 . S
C567 H557 0.929 . S
C567 C565 1.433 . S
C567 N570 1.384 . S
C568 H559 0.929 . S
C568 C560 1.378 . S
C568 C563 1.350 . S
C569 H556 0.929 . S
C569 C561 1.433 . S
C569 N571 1.384 . S
N570 C566 1.427 . S
N570 C567 1.384 . S
N571 C563 1.427 . S
N571 C569 1.384 . S
H572 C578 0.930 . S
H573 C582 0.930 . S
H574 C587 0.929 . S
H575 C585 0.929 . S
H576 C580 0.929 . S
H577 C586 0.929 . S
C578 H572 0.930 . S
C578 C579 1.367 . S
C578 C586 1.378 . S
C579 C578 1.367 . S
C579 C587 1.433 . S
C580 H576 0.929 . S
C580 C582 1.378 . S
C580 C584 1.350 . S
C581 C584 1.463 . S
C581 C586 1.350 . S
C581 N589 1.427 . S
C582 H573 0.930 . S
C582 C580 1.378 . S
C582 C583 1.367 . S
C583 C582 1.367 . S
C583 C585 1.433 . S
C584 C580 1.350 . S
C584 C581 1.463 . S
C584 N588 1.427 . S
C585 H575 0.929 . S
C585 C583 1.433 . S
C585 N588 1.384 . S
C586 H577 0.929 . S
C586 C578 1.378 . S
C586 C581 1.350 . S
C587 H574 0.929 . S
C587 C579 1.433 . S
C587 N589 1.384 . S
N588 C584 1.427 . S
N588 C585 1.384 . S
N589 C581 1.427 . S
N589 C587 1.384 . S
H590 C596 0.930 . S
H591 C600 0.930 . S
H592 C605 0.929 . S
H593 C603 0.929 . S
H594 C598 0.929 . S
H595 C604 0.929 . S
C596 H590 0.930 . S
C596 C597 1.367 . S
C596 C604 1.378 . S
C597 C596 1.367 . S
C597 C605 1.433 . S
C598 H594 0.929 . S
C598 C600 1.378 . S
C598 C602 1.350 . S
C599 C602 1.463 . S
C599 C604 1.350 . S
C599 N607 1.427 . S
C600 H591 0.930 . S
C600 C598 1.378 . S
C600 C601 1.367 . S
C601 C600 1.367 . S
C601 C603 1.433 . S
C602 C598 1.350 . S
C602 C599 1.463 . S
C602 N606 1.427 . S
C603 H593 0.929 . S
C603 C601 1.433 . S
C603 N606 1.384 . S
C604 H595 0.929 . S
C604 C596 1.378 . S
C604 C599 1.350 . S
C605 H592 0.929 . S
C605 C597 1.433 . S
C605 N607 1.384 . S
N606 C602 1.427 . S
N606 C603 1.384 . S
N607 C599 1.427 . S
N607 C605 1.384 . S
H608 C614 0.930 . S
H609 C618 0.930 . S
H610 C623 0.929 . S
H611 C621 0.929 . S
H612 C616 0.929 . S
H613 C622 0.929 . S
C614 H608 0.930 . S
C614 C615 1.367 . S
C614 C622 1.378 . S
C615 C614 1.367 . S
C615 C623 1.433 1_645 S
C616 H612 0.929 . S
C616 C618 1.378 . S
C616 C620 1.350 . S
C617 C620 1.463 1_646 S
C617 C622 1.350 . S
C617 N625 1.427 1_645 S
C618 H609 0.930 . S
C618 C616 1.378 . S
C618 C619 1.367 . S
C619 C618 1.367 . S
C619 C621 1.433 1_465 S
C620 C616 1.350 . S
C620 C617 1.463 1_464 S
C620 N624 1.427 1_465 S
C621 H611 0.929 . S
C621 C619 1.433 1_645 S
C621 N624 1.384 . S
C622 H613 0.929 . S
C622 C614 1.378 . S
C622 C617 1.350 . S
C623 H610 0.929 . S
C623 C615 1.433 1_465 S
C623 N625 1.384 . S
N624 C620 1.427 1_645 S
N624 C621 1.384 . S
N625 C617 1.427 1_465 S
N625 C623 1.384 . S
H626 C632 0.930 . S
H627 C636 0.930 . S
H628 C641 0.929 . S
H629 C639 0.929 . S
H630 C634 0.929 . S
H631 C640 0.929 . S
C632 H626 0.930 . S
C632 C633 1.367 . S
C632 C640 1.378 . S
C633 C632 1.367 . S
C633 C641 1.433 . S
C634 H630 0.929 . S
C634 C636 1.378 . S
C634 C638 1.350 . S
C635 C638 1.463 . S
C635 C640 1.350 . S
C635 N643 1.427 . S
C636 H627 0.930 . S
C636 C634 1.378 . S
C636 C637 1.367 . S
C637 C636 1.367 . S
C637 C639 1.433 . S
C638 C634 1.350 . S
C638 C635 1.463 . S
C638 N642 1.427 . S
C639 H629 0.929 . S
C639 C637 1.433 . S
C639 N642 1.384 . S
C640 H631 0.929 . S
C640 C632 1.378 . S
C640 C635 1.350 . S
C641 H628 0.929 . S
C641 C633 1.433 . S
C641 N643 1.384 . S
N642 C638 1.427 . S
N642 C639 1.384 . S
N643 C635 1.427 . S
N643 C641 1.384 . S
H644 C650 0.930 . S
H645 C654 0.930 . S
H646 C659 0.929 . S
H647 C657 0.929 . S
H648 C652 0.929 . S
H649 C658 0.929 . S
C650 H644 0.930 . S
C650 C651 1.367 1_565 S
C650 C658 1.378 . S
C651 C650 1.367 1_545 S
C651 C659 1.433 . S
C652 H648 0.929 . S
C652 C654 1.378 . S
C652 C656 1.350 1_545 S
C653 C656 1.463 1_545 S
C653 C658 1.350 1_545 S
C653 N661 1.427 . S
C654 H645 0.930 . S
C654 C652 1.378 . S
C654 C655 1.367 1_545 S
C655 C654 1.367 1_565 S
C655 C657 1.433 . S
C656 C652 1.350 1_565 S
C656 C653 1.463 1_565 S
C656 N660 1.427 . S
C657 H647 0.929 . S
C657 C655 1.433 . S
C657 N660 1.384 . S
C658 H649 0.929 . S
C658 C650 1.378 . S
C658 C653 1.350 1_565 S
C659 H646 0.929 . S
C659 C651 1.433 . S
C659 N661 1.384 . S
N660 C656 1.427 . S
N660 C657 1.384 . S
N661 C653 1.427 . S
N661 C659 1.384 . S
H662 C668 0.930 . S
H663 C672 0.930 . S
H664 C677 0.929 . S
H665 C675 0.929 . S
H666 C670 0.929 . S
H667 C676 0.929 . S
C668 H662 0.930 . S
C668 C669 1.367 . S
C668 C676 1.378 . S
C669 C668 1.367 . S
C669 C677 1.433 . S
C670 H666 0.929 . S
C670 C672 1.378 . S
C670 C674 1.350 . S
C671 C674 1.463 . S
C671 C676 1.350 . S
C671 N679 1.427 . S
C672 H663 0.930 . S
C672 C670 1.378 . S
C672 C673 1.367 . S
C673 C672 1.367 . S
C673 C675 1.433 . S
C674 C670 1.350 . S
C674 C671 1.463 . S
C674 N678 1.427 . S
C675 H665 0.929 . S
C675 C673 1.433 . S
C675 N678 1.384 . S
C676 H667 0.929 . S
C676 C668 1.378 . S
C676 C671 1.350 . S
C677 H664 0.929 . S
C677 C669 1.433 . S
C677 N679 1.384 . S
N678 C674 1.427 . S
N678 C675 1.384 . S
N679 C671 1.427 . S
N679 C677 1.384 . S
H680 C686 0.930 . S
H681 C690 0.930 . S
H682 C695 0.929 . S
H683 C693 0.929 . S
H684 C688 0.929 . S
H685 C694 0.929 . S
C686 H680 0.930 . S
C686 C687 1.367 . S
C686 C694 1.378 . S
C687 C686 1.367 . S
C687 C695 1.433 . S
C688 H684 0.929 . S
C688 C690 1.378 . S
C688 C692 1.350 . S
C689 C692 1.463 . S
C689 C694 1.350 . S
C689 N697 1.427 . S
C690 H681 0.930 . S
C690 C688 1.378 . S
C690 C691 1.367 . S
C691 C690 1.367 . S
C691 C693 1.433 . S
C692 C688 1.350 . S
C692 C689 1.463 . S
C692 N696 1.427 . S
C693 H683 0.929 . S
C693 C691 1.433 . S
C693 N696 1.384 . S
C694 H685 0.929 . S
C694 C686 1.378 . S
C694 C689 1.350 . S
C695 H682 0.929 . S
C695 C687 1.433 . S
C695 N697 1.384 . S
N696 C692 1.427 . S
N696 C693 1.384 . S
N697 C689 1.427 . S
N697 C695 1.384 . S
H698 C704 0.930 . S
H699 C708 0.930 . S
H700 C713 0.929 . S
H701 C711 0.929 . S
H702 C706 0.929 . S
H703 C712 0.929 . S
C704 H698 0.930 . S
C704 C705 1.367 . S
C704 C712 1.378 . S
C705 C704 1.367 . S
C705 C713 1.433 . S
C706 H702 0.929 . S
C706 C708 1.378 . S
C706 C710 1.350 . S
C707 C710 1.463 . S
C707 C712 1.350 . S
C707 N715 1.427 . S
C708 H699 0.930 . S
C708 C706 1.378 . S
C708 C709 1.367 . S
C709 C708 1.367 . S
C709 C711 1.433 . S
C710 C706 1.350 . S
C710 C707 1.463 . S
C710 N714 1.427 . S
C711 H701 0.929 . S
C711 C709 1.433 . S
C711 N714 1.384 . S
C712 H703 0.929 . S
C712 C704 1.378 . S
C712 C707 1.350 . S
C713 H700 0.929 . S
C713 C705 1.433 . S
C713 N715 1.384 . S
N714 C710 1.427 . S
N714 C711 1.384 . S
N715 C707 1.427 . S
N715 C713 1.384 . S
H716 C722 0.930 . S
H717 C726 0.930 . S
H718 C731 0.929 . S
H719 C729 0.929 . S
H720 C724 0.929 . S
H721 C730 0.929 . S
C722 H716 0.930 . S
C722 C723 1.367 . S
C722 C730 1.378 . S
C723 C722 1.367 . S
C723 C731 1.433 . S
C724 H720 0.929 . S
C724 C726 1.378 . S
C724 C728 1.350 . S
C725 C728 1.463 . S
C725 C730 1.350 . S
C725 N733 1.427 . S
C726 H717 0.930 . S
C726 C724 1.378 . S
C726 C727 1.367 . S
C727 C726 1.367 . S
C727 C729 1.433 . S
C728 C724 1.350 . S
C728 C725 1.463 . S
C728 N732 1.427 . S
C729 H719 0.929 . S
C729 C727 1.433 . S
C729 N732 1.384 . S
C730 H721 0.929 . S
C730 C722 1.378 . S
C730 C725 1.350 . S
C731 H718 0.929 . S
C731 C723 1.433 . S
C731 N733 1.384 . S
N732 C728 1.427 . S
N732 C729 1.384 . S
N733 C725 1.427 . S
N733 C731 1.384 . S
H734 C740 0.930 . S
H735 C744 0.930 . S
H736 C749 0.929 . S
H737 C747 0.929 . S
H738 C742 0.929 1_655 S
H739 C748 0.929 . S
C740 H734 0.930 . S
C740 C741 1.367 . S
C740 C748 1.378 1_655 S
C741 C740 1.367 . S
C741 C749 1.433 . S
C742 H738 0.929 1_455 S
C742 C744 1.378 . S
C742 C746 1.350 . S
C743 C746 1.463 1_656 S
C743 C748 1.350 1_655 S
C743 N751 1.427 . S
C744 H735 0.930 . S
C744 C742 1.378 . S
C744 C745 1.367 . S
C745 C744 1.367 . S
C745 C747 1.433 . S
C746 C742 1.350 . S
C746 C743 1.463 1_454 S
C746 N750 1.427 . S
C747 H737 0.929 . S
C747 C745 1.433 . S
C747 N750 1.384 . S
C748 H739 0.929 . S
C748 C740 1.378 1_455 S
C748 C743 1.350 1_455 S
C749 H736 0.929 . S
C749 C741 1.433 . S
C749 N751 1.384 . S
N750 C746 1.427 . S
N750 C747 1.384 . S
N751 C743 1.427 . S
N751 C749 1.384 . S
C327 C13 1.686 . S
C331 C133 1.683 . S
C345 C2 1.341 . S
C349 C42 1.340 . S
C363 C53 1.312 . S
C367 C82 1.304 . S
C381 C93 1.723 . S
C385 C122 1.717 . S
C399 C24 1.686 . S
C403 C224 1.693 . S
C417 C23 1.342 . S
C421 C183 1.340 . S
C435 C184 1.316 . S
C439 C103 1.303 . S
C453 C223 1.716 . S
C457 C104 1.726 . S
C471 C253 1.687 . S
C475 C213 1.689 . S
C489 C162 1.341 . S
C493 C242 1.340 . S
C507 C282 1.303 . S
C511 C173 1.315 . S
C525 C202 1.716 . S
C529 C293 1.724 . S
C543 C144 1.688 . S
C547 C264 1.685 . S
C561 C263 1.335 . S
C565 C63 1.339 . S
C579 C64 1.315 . S
C583 C303 1.305 . S
C597 C143 1.717 . S
C601 C304 1.722 . S
C615 C17 1.395 . S
C619 C26 1.395 . S
C633 C57 1.447 . S
C637 C66 1.447 . S
C651 C97 1.372 . S
C655 C106 1.372 . S
C669 C137 1.597 . S
C673 C146 1.597 . S
C687 C177 1.441 . S
C691 C186 1.441 . S
C705 C217 1.594 . S
C709 C226 1.594 . S
C723 C266 1.391 . S
C727 C257 1.391 . S
C741 C306 1.384 . S
C745 C297 1.384 . S
