# Generated by pormake.
# Topology vcc, (6)-cn, num edge types: 1
# Building blocks:
#     Node 0, Type 0, BuildingBlock: BETFAJ_clean_sbu_0, # of connection points: 6
#     Node 1, Type 0, BuildingBlock: BETFAJ_clean_sbu_0, # of connection points: 6
#     Node 2, Type 0, BuildingBlock: BETFAJ_clean_sbu_0, # of connection points: 6
#     Node 3, Type 0, BuildingBlock: BETFAJ_clean_sbu_0, # of connection points: 6
#     Node 4, Type 0, BuildingBlock: BETFAJ_clean_sbu_0, # of connection points: 6
#     Node 5, Type 0, BuildingBlock: BETFAJ_clean_sbu_0, # of connection points: 6
#     Node 6, Type 0, BuildingBlock: BETFAJ_clean_sbu_0, # of connection points: 6
#     Node 7, Type 0, BuildingBlock: BETFAJ_clean_sbu_0, # of connection points: 6
#     Node 8, Type 0, BuildingBlock: BETFAJ_clean_sbu_0, # of connection points: 6
#     Node 9, Type 0, BuildingBlock: BETFAJ_clean_sbu_0, # of connection points: 6
#     Node 10, Type 0, BuildingBlock: BETFAJ_clean_sbu_0, # of connection points: 6
#     Node 11, Type 0, BuildingBlock: BETFAJ_clean_sbu_0, # of connection points: 6
#     Node 12, Type 0, BuildingBlock: BETFAJ_clean_sbu_0, # of connection points: 6
#     Node 13, Type 0, BuildingBlock: BETFAJ_clean_sbu_0, # of connection points: 6
#     Node 14, Type 0, BuildingBlock: BETFAJ_clean_sbu_0, # of connection points: 6
#     Node 15, Type 0, BuildingBlock: BETFAJ_clean_sbu_0, # of connection points: 6
#     Node 16, Type 0, BuildingBlock: BETFAJ_clean_sbu_0, # of connection points: 6
#     Node 17, Type 0, BuildingBlock: BETFAJ_clean_sbu_0, # of connection points: 6
#     Node 18, Type 0, BuildingBlock: BETFAJ_clean_sbu_0, # of connection points: 6
#     Node 19, Type 0, BuildingBlock: BETFAJ_clean_sbu_0, # of connection points: 6
#     Node 20, Type 0, BuildingBlock: BETFAJ_clean_sbu_0, # of connection points: 6
#     Node 21, Type 0, BuildingBlock: BETFAJ_clean_sbu_0, # of connection points: 6
#     Node 22, Type 0, BuildingBlock: BETFAJ_clean_sbu_0, # of connection points: 6
#     Node 23, Type 0, BuildingBlock: BETFAJ_clean_sbu_0, # of connection points: 6
#     Node 24, Type 0, BuildingBlock: BETFAJ_clean_sbu_0, # of connection points: 6
#     Node 25, Type 0, BuildingBlock: BETFAJ_clean_sbu_0, # of connection points: 6
#     Node 26, Type 0, BuildingBlock: BETFAJ_clean_sbu_0, # of connection points: 6
#     Node 27, Type 0, BuildingBlock: BETFAJ_clean_sbu_0, # of connection points: 6
#     Node 28, Type 0, BuildingBlock: BETFAJ_clean_sbu_0, # of connection points: 6
#     Node 29, Type 0, BuildingBlock: BETFAJ_clean_sbu_0, # of connection points: 6
#     Node 30, Type 0, BuildingBlock: BETFAJ_clean_sbu_0, # of connection points: 6
#     Node 31, Type 0, BuildingBlock: BETFAJ_clean_sbu_0, # of connection points: 6
#     Edge 32, Type (0, 0), BuildingBlock: AJUNOK_clean_linker_0, # of connection points: 2
#     Edge 33, Type (0, 0), BuildingBlock: AJUNOK_clean_linker_0, # of connection points: 2
#     Edge 34, Type (0, 0), BuildingBlock: AJUNOK_clean_linker_0, # of connection points: 2
#     Edge 35, Type (0, 0), BuildingBlock: AJUNOK_clean_linker_0, # of connection points: 2
#     Edge 36, Type (0, 0), BuildingBlock: AJUNOK_clean_linker_0, # of connection points: 2
#     Edge 37, Type (0, 0), BuildingBlock: AJUNOK_clean_linker_0, # of connection points: 2
#     Edge 38, Type (0, 0), BuildingBlock: AJUNOK_clean_linker_0, # of connection points: 2
#     Edge 39, Type (0, 0), BuildingBlock: AJUNOK_clean_linker_0, # of connection points: 2
#     Edge 40, Type (0, 0), BuildingBlock: AJUNOK_clean_linker_0, # of connection points: 2
#     Edge 41, Type (0, 0), BuildingBlock: AJUNOK_clean_linker_0, # of connection points: 2
#     Edge 42, Type (0, 0), BuildingBlock: AJUNOK_clean_linker_0, # of connection points: 2
#     Edge 43, Type (0, 0), BuildingBlock: AJUNOK_clean_linker_0, # of connection points: 2
#     Edge 44, Type (0, 0), BuildingBlock: AJUNOK_clean_linker_0, # of connection points: 2
#     Edge 45, Type (0, 0), BuildingBlock: AJUNOK_clean_linker_0, # of connection points: 2
#     Edge 46, Type (0, 0), BuildingBlock: AJUNOK_clean_linker_0, # of connection points: 2
#     Edge 47, Type (0, 0), BuildingBlock: AJUNOK_clean_linker_0, # of connection points: 2
#     Edge 48, Type (0, 0), BuildingBlock: AJUNOK_clean_linker_0, # of connection points: 2
#     Edge 49, Type (0, 0), BuildingBlock: AJUNOK_clean_linker_0, # of connection points: 2
#     Edge 50, Type (0, 0), BuildingBlock: AJUNOK_clean_linker_0, # of connection points: 2
#     Edge 51, Type (0, 0), BuildingBlock: AJUNOK_clean_linker_0, # of connection points: 2
#     Edge 52, Type (0, 0), BuildingBlock: AJUNOK_clean_linker_0, # of connection points: 2
#     Edge 53, Type (0, 0), BuildingBlock: AJUNOK_clean_linker_0, # of connection points: 2
#     Edge 54, Type (0, 0), BuildingBlock: AJUNOK_clean_linker_0, # of connection points: 2
#     Edge 55, Type (0, 0), BuildingBlock: AJUNOK_clean_linker_0, # of connection points: 2
#     Edge 56, Type (0, 0), BuildingBlock: AJUNOK_clean_linker_0, # of connection points: 2
#     Edge 57, Type (0, 0), BuildingBlock: AJUNOK_clean_linker_0, # of connection points: 2
#     Edge 58, Type (0, 0), BuildingBlock: AJUNOK_clean_linker_0, # of connection points: 2
#     Edge 59, Type (0, 0), BuildingBlock: AJUNOK_clean_linker_0, # of connection points: 2
#     Edge 60, Type (0, 0), BuildingBlock: AJUNOK_clean_linker_0, # of connection points: 2
#     Edge 61, Type (0, 0), BuildingBlock: AJUNOK_clean_linker_0, # of connection points: 2
#     Edge 62, Type (0, 0), BuildingBlock: AJUNOK_clean_linker_0, # of connection points: 2
#     Edge 63, Type (0, 0), BuildingBlock: AJUNOK_clean_linker_0, # of connection points: 2
#     Edge 64, Type (0, 0), BuildingBlock: AJUNOK_clean_linker_0, # of connection points: 2
#     Edge 65, Type (0, 0), BuildingBlock: AJUNOK_clean_linker_0, # of connection points: 2
#     Edge 66, Type (0, 0), BuildingBlock: AJUNOK_clean_linker_0, # of connection points: 2
#     Edge 67, Type (0, 0), BuildingBlock: AJUNOK_clean_linker_0, # of connection points: 2
#     Edge 68, Type (0, 0), BuildingBlock: AJUNOK_clean_linker_0, # of connection points: 2
#     Edge 69, Type (0, 0), BuildingBlock: AJUNOK_clean_linker_0, # of connection points: 2
#     Edge 70, Type (0, 0), BuildingBlock: AJUNOK_clean_linker_0, # of connection points: 2
#     Edge 71, Type (0, 0), BuildingBlock: AJUNOK_clean_linker_0, # of connection points: 2
#     Edge 72, Type (0, 0), BuildingBlock: AJUNOK_clean_linker_0, # of connection points: 2
#     Edge 73, Type (0, 0), BuildingBlock: AJUNOK_clean_linker_0, # of connection points: 2
#     Edge 74, Type (0, 0), BuildingBlock: AJUNOK_clean_linker_0, # of connection points: 2
#     Edge 75, Type (0, 0), BuildingBlock: AJUNOK_clean_linker_0, # of connection points: 2
#     Edge 76, Type (0, 0), BuildingBlock: AJUNOK_clean_linker_0, # of connection points: 2
#     Edge 77, Type (0, 0), BuildingBlock: AJUNOK_clean_linker_0, # of connection points: 2
#     Edge 78, Type (0, 0), BuildingBlock: AJUNOK_clean_linker_0, # of connection points: 2
#     Edge 79, Type (0, 0), BuildingBlock: AJUNOK_clean_linker_0, # of connection points: 2
#     Edge 80, Type (0, 0), BuildingBlock: AJUNOK_clean_linker_0, # of connection points: 2
#     Edge 81, Type (0, 0), BuildingBlock: AJUNOK_clean_linker_0, # of connection points: 2
#     Edge 82, Type (0, 0), BuildingBlock: AJUNOK_clean_linker_0, # of connection points: 2
#     Edge 83, Type (0, 0), BuildingBlock: AJUNOK_clean_linker_0, # of connection points: 2
#     Edge 84, Type (0, 0), BuildingBlock: AJUNOK_clean_linker_0, # of connection points: 2
#     Edge 85, Type (0, 0), BuildingBlock: AJUNOK_clean_linker_0, # of connection points: 2
#     Edge 86, Type (0, 0), BuildingBlock: AJUNOK_clean_linker_0, # of connection points: 2
#     Edge 87, Type (0, 0), BuildingBlock: AJUNOK_clean_linker_0, # of connection points: 2
#     Edge 88, Type (0, 0), BuildingBlock: AJUNOK_clean_linker_0, # of connection points: 2
#     Edge 89, Type (0, 0), BuildingBlock: AJUNOK_clean_linker_0, # of connection points: 2
#     Edge 90, Type (0, 0), BuildingBlock: AJUNOK_clean_linker_0, # of connection points: 2
#     Edge 91, Type (0, 0), BuildingBlock: AJUNOK_clean_linker_0, # of connection points: 2
#     Edge 92, Type (0, 0), BuildingBlock: AJUNOK_clean_linker_0, # of connection points: 2
#     Edge 93, Type (0, 0), BuildingBlock: AJUNOK_clean_linker_0, # of connection points: 2
#     Edge 94, Type (0, 0), BuildingBlock: AJUNOK_clean_linker_0, # of connection points: 2
#     Edge 95, Type (0, 0), BuildingBlock: AJUNOK_clean_linker_0, # of connection points: 2
#     Edge 96, Type (0, 0), BuildingBlock: AJUNOK_clean_linker_0, # of connection points: 2
#     Edge 97, Type (0, 0), BuildingBlock: AJUNOK_clean_linker_0, # of connection points: 2
#     Edge 98, Type (0, 0), BuildingBlock: AJUNOK_clean_linker_0, # of connection points: 2
#     Edge 99, Type (0, 0), BuildingBlock: AJUNOK_clean_linker_0, # of connection points: 2
#     Edge 100, Type (0, 0), BuildingBlock: AJUNOK_clean_linker_0, # of connection points: 2
#     Edge 101, Type (0, 0), BuildingBlock: AJUNOK_clean_linker_0, # of connection points: 2
#     Edge 102, Type (0, 0), BuildingBlock: AJUNOK_clean_linker_0, # of connection points: 2
#     Edge 103, Type (0, 0), BuildingBlock: AJUNOK_clean_linker_0, # of connection points: 2
#     Edge 104, Type (0, 0), BuildingBlock: AJUNOK_clean_linker_0, # of connection points: 2
#     Edge 105, Type (0, 0), BuildingBlock: AJUNOK_clean_linker_0, # of connection points: 2
#     Edge 106, Type (0, 0), BuildingBlock: AJUNOK_clean_linker_0, # of connection points: 2
#     Edge 107, Type (0, 0), BuildingBlock: AJUNOK_clean_linker_0, # of connection points: 2
#     Edge 108, Type (0, 0), BuildingBlock: AJUNOK_clean_linker_0, # of connection points: 2
#     Edge 109, Type (0, 0), BuildingBlock: AJUNOK_clean_linker_0, # of connection points: 2
#     Edge 110, Type (0, 0), BuildingBlock: AJUNOK_clean_linker_0, # of connection points: 2
#     Edge 111, Type (0, 0), BuildingBlock: AJUNOK_clean_linker_0, # of connection points: 2
#     Edge 112, Type (0, 0), BuildingBlock: AJUNOK_clean_linker_0, # of connection points: 2
#     Edge 113, Type (0, 0), BuildingBlock: AJUNOK_clean_linker_0, # of connection points: 2
#     Edge 114, Type (0, 0), BuildingBlock: AJUNOK_clean_linker_0, # of connection points: 2
#     Edge 115, Type (0, 0), BuildingBlock: AJUNOK_clean_linker_0, # of connection points: 2
#     Edge 116, Type (0, 0), BuildingBlock: AJUNOK_clean_linker_0, # of connection points: 2
#     Edge 117, Type (0, 0), BuildingBlock: AJUNOK_clean_linker_0, # of connection points: 2
#     Edge 118, Type (0, 0), BuildingBlock: AJUNOK_clean_linker_0, # of connection points: 2
#     Edge 119, Type (0, 0), BuildingBlock: AJUNOK_clean_linker_0, # of connection points: 2
#     Edge 120, Type (0, 0), BuildingBlock: AJUNOK_clean_linker_0, # of connection points: 2
#     Edge 121, Type (0, 0), BuildingBlock: AJUNOK_clean_linker_0, # of connection points: 2
#     Edge 122, Type (0, 0), BuildingBlock: AJUNOK_clean_linker_0, # of connection points: 2
#     Edge 123, Type (0, 0), BuildingBlock: AJUNOK_clean_linker_0, # of connection points: 2
#     Edge 124, Type (0, 0), BuildingBlock: AJUNOK_clean_linker_0, # of connection points: 2
#     Edge 125, Type (0, 0), BuildingBlock: AJUNOK_clean_linker_0, # of connection points: 2
#     Edge 126, Type (0, 0), BuildingBlock: AJUNOK_clean_linker_0, # of connection points: 2
#     Edge 127, Type (0, 0), BuildingBlock: AJUNOK_clean_linker_0, # of connection points: 2
# Relax obj value: 0.447
# Max RMSD: 0.210
# Mean RMSD: 0.210
data_MOF--net-vcc--node1-BETFAJ_clean_sbu_0--edge1-AJUNOK_clean_linker_0
_symmetry_space_group_name_H-M    P1
_symmetry_Int_Tables_number       1
_symmetry_cell_setting            triclinic
loop_
_symmetry_equiv_pos_as_xyz
'x, y, z'
_cell_length_a     24.255917
_cell_length_b     42.115351
_cell_length_c     42.769324
_cell_angle_alpha  90.201571
_cell_angle_beta   90.084043
_cell_angle_gamma 90.051235
loop_
_atom_site_label
_atom_site_type_symbol
_atom_site_fract_x
_atom_site_fract_y
_atom_site_fract_z
_atom_type_partial_charge
Sm0 Sm 0.3959 0.00915 0.19129 0.0
Sm1 Sm 0.30189 0.99357 0.2204 0.0
C2 C 0.47494 0.01583 0.15013 0.0
C3 C 0.46893 0.01539 0.11591 0.0
C4 C 0.4527 0.98744 1.10037 0.0
C5 C 0.43997 0.98805 1.06869 0.0
C6 C 0.4432 0.01655 1.05192 0.0
C7 C 0.46162 0.04424 1.06702 0.0
C8 C 0.47422 0.04368 1.09886 0.0
C9 C 0.35611 0.06234 0.22044 0.0
C10 C 0.28161 0.00023 0.14418 0.0
C11 C 0.21499 0.99747 0.25723 0.0
C12 C 0.19872 0.02287 0.27918 0.0
C13 C 0.19337 0.05457 0.26922 0.0
C14 C 0.18851 0.07916 0.29105 0.0
C15 C 0.18993 0.07244 0.32312 0.0
C16 C 0.18999 0.04054 0.33285 0.0
C17 C 0.19476 0.01607 0.31101 0.0
C18 C 0.35332 0.93788 0.20028 0.0
C19 C 0.41422 0.0011 0.26736 0.0
O20 O 0.4659 0.98905 0.16459 0.0
O21 O 0.45226 0.04004 0.16413 0.0
O22 O 0.3267 0.04321 0.20438 0.0
O23 O 0.40668 0.0528 0.22181 0.0
O24 O 0.33557 0.00623 0.14599 0.0
O25 O 0.25669 0.99426 0.17106 0.0
O26 O 0.21398 0.00479 0.22767 0.0
O27 O 0.25886 0.98126 0.2648 0.0
O28 O 0.37701 0.96154 0.21249 0.0
O29 O 0.30051 0.94265 0.19958 0.0
O30 O 0.35929 0.00014 0.26589 0.0
O31 O 0.44099 0.00232 0.24021 0.0
H32 H 0.44814 0.96522 1.11279 0.0
H33 H 0.42562 0.96643 1.05753 0.0
H34 H 0.46539 0.06635 1.05435 0.0
H35 H 0.48688 0.06549 1.11033 0.0
H36 H 0.19712 0.06071 0.24476 0.0
H37 H 0.18921 0.10353 0.283 0.0
H38 H 0.19252 0.03456 0.35743 0.0
H39 H 0.20021 0.992 0.31902 0.0
Sm40 Sm 0.91472 0.23964 0.19128 0.0
Sm41 Sm 1.00869 0.25733 0.21519 0.0
C42 C 0.83488 0.22638 0.1521 0.0
C43 C 0.84055 0.22564 0.11777 0.0
C44 C 0.84632 0.25407 1.1011 0.0
C45 C 0.85904 0.25358 1.06946 0.0
C46 C 0.86913 0.22477 1.05394 0.0
C47 C 0.86328 0.19622 1.07054 0.0
C48 C 0.84802 0.19662 1.10201 0.0
C49 C 0.96507 0.18775 0.2182 0.0
C50 C 1.0193 0.24905 0.13982 0.0
C51 C 0.10218 0.26718 0.24564 0.0
C52 C 0.12281 0.28638 0.27178 0.0
C53 C 0.13339 0.27135 0.30021 0.0
C54 C 0.13624 0.28922 0.3274 0.0
C55 C 0.12801 0.32228 0.32641 0.0
C56 C 0.12982 0.33767 0.29739 0.0
C57 C 0.12624 0.31969 0.26998 0.0
C58 C 0.94942 0.31097 0.19731 0.0
C59 C 0.90001 0.25108 0.26656 0.0
O60 O 0.83912 0.25419 0.16567 0.0
O61 O 0.86219 0.20437 0.16676 0.0
O62 O 0.98896 0.20692 0.19968 0.0
O63 O 0.91529 0.19699 0.22375 0.0
O64 O 0.9653 0.25229 0.14409 0.0
O65 O 0.04781 0.24487 0.16579 0.0
O66 O 0.06774 0.24437 0.25261 0.0
O67 O 0.08851 0.28225 0.22026 0.0
O68 O 0.93058 0.28772 0.21227 0.0
O69 O 1.00049 0.30602 0.1903 0.0
O70 O 0.95478 0.25479 0.26334 0.0
O71 O 0.87155 0.24687 0.24029 0.0
H72 H 0.84177 0.27692 1.11252 0.0
H73 H 0.86279 0.27605 1.05756 0.0
H74 H 0.87133 0.17359 1.05942 0.0
H75 H 0.84465 0.17429 0.11437 0.0
H76 H 0.13327 0.24568 0.30192 0.0
H77 H 0.13526 0.2765 0.34928 0.0
H78 H 0.12518 0.3632 0.29601 0.0
H79 H 0.12069 0.3319 0.24796 0.0
Sm80 Sm 0.40302 0.24676 0.28826 0.0
Sm81 Sm 0.30471 0.25678 0.25925 0.0
C82 C 0.48145 0.24593 0.32975 0.0
C83 C 0.47275 0.24305 0.36364 0.0
C84 C 0.47033 0.27047 0.38233 0.0
C85 C 0.45418 0.26838 0.41343 0.0
C86 C 0.43943 0.23892 0.42618 0.0
C87 C 0.44526 0.21127 0.40817 0.0
C88 C 0.46171 0.21329 0.3771 0.0
C89 C 0.36789 0.19193 0.25983 0.0
C90 C 0.28924 0.25043 0.33589 0.0
C91 C 0.21701 0.25044 0.2233 0.0
C92 C 0.20111 0.22547 0.20082 0.0
C93 C 0.16915 0.19925 0.21054 0.0
C94 C 0.16002 0.17356 0.19039 0.0
C95 C 0.18244 0.17404 0.16034 0.0
C96 C 0.21323 0.20043 0.15045 0.0
C97 C 0.222 0.22604 0.17033 0.0
C98 C 0.35203 0.31403 0.27822 0.0
C99 C 0.41894 0.25298 0.21276 0.0
O100 O 0.46422 0.27242 0.3173 0.0
O101 O 0.46928 0.22088 0.31299 0.0
O102 O 0.33724 0.20976 0.27632 0.0
O103 O 0.41812 0.20226 0.25916 0.0
O104 O 0.34407 0.25124 0.33378 0.0
O105 O 0.26214 0.25028 0.30898 0.0
O106 O 0.21873 0.24147 0.25238 0.0
O107 O 0.25832 0.26888 0.21591 0.0
O108 O 0.37602 0.29136 0.26494 0.0
O109 O 0.3 0.30756 0.28124 0.0
O110 O 0.36444 0.24797 0.21474 0.0
O111 O 0.44555 0.25755 0.23962 0.0
H112 H 0.47943 0.29364 0.37268 0.0
H113 H 0.45088 0.29 0.42707 0.0
H114 H 0.43593 0.18817 0.4179 0.0
H115 H 0.4642 0.19164 0.36344 0.0
H116 H 0.15245 0.19821 0.23399 0.0
H117 H 0.13626 0.15341 0.19835 0.0
H118 H 0.23095 0.20107 0.12719 0.0
H119 H 0.24657 0.24578 0.16207 0.0
Sm120 Sm 0.90865 0.00646 0.28752 0.0
Sm121 Sm 1.00789 0.9928 0.25867 0.0
C122 C 0.83195 0.00643 0.33019 0.0
C123 C 0.84133 0.00699 0.36439 0.0
C124 C 0.84955 0.97849 0.38078 0.0
C125 C 0.86462 0.97898 0.41224 0.0
C126 C 0.87352 0.00795 0.42781 0.0
C127 C 0.86355 0.03645 0.41174 0.0
C128 C 0.84721 0.03597 0.38043 0.0
C129 C 0.94869 0.05966 0.25918 0.0
C130 C 0.0223 -0.00173 0.33533 0.0
C131 C 0.09236 0.00078 0.22126 0.0
C132 C 0.0983 0.02472 0.19631 0.0
C133 C 0.09967 0.05743 0.20337 0.0
C134 C 0.09448 0.07993 0.17968 0.0
C135 C 0.08754 0.07025 0.14852 0.0
C136 C 0.08905 0.03761 0.14138 0.0
C137 C 0.09421 0.0152 0.16508 0.0
C138 C 0.95484 0.93732 0.2763 0.0
C139 C 0.89492 -0.00159 0.21126 0.0
O140 O 0.84697 0.98042 0.31571 0.0
O141 O 0.84513 0.03223 0.31495 0.0
O142 O 0.97781 0.04083 0.27556 0.0
O143 O 0.89718 0.05134 0.25894 0.0
O144 O 0.9688 0.00498 0.33263 0.0
O145 O 0.04906 0.99194 0.30901 0.0
O146 O 0.09082 0.0119 0.24972 0.0
O147 O 0.05576 0.97845 0.21645 0.0
O148 O 0.93317 0.96126 0.26383 0.0
O149 O 1.00783 0.94148 0.27892 0.0
O150 O 0.9498 -0.00017 0.21366 0.0
O151 O 0.86641 0.99788 0.23794 0.0
H152 H 0.84457 0.95572 0.36926 0.0
H153 H 0.86952 0.95659 0.42429 0.0
H154 H 0.8699 0.05919 0.42308 0.0
H155 H 0.84099 0.05836 0.36855 0.0
H156 H 0.10116 0.06578 0.22731 0.0
H157 H 0.09254 0.10481 0.18595 0.0
H158 H 0.08167 0.02915 0.11781 0.0
H159 H 0.0906 0.99032 0.15938 0.0
Sm160 Sm 0.76793 0.99493 1.00537 0.0
Sm161 Sm 0.66385 0.99463 1.03664 0.0
C162 C 0.85445 0.97594 0.97252 0.0
C163 C 0.86377 0.94673 0.95412 0.0
C164 C 0.84683 0.91698 0.96544 0.0
C165 C 0.83978 0.89141 0.94488 0.0
C166 C 0.84877 0.8955 0.9127 0.0
C167 C 0.87391 0.92381 0.90251 0.0
C168 C 0.88132 0.94912 0.92317 0.0
C169 C 0.73844 0.05573 1.02422 0.0
C170 C 0.6505 0.99806 0.96006 0.0
C171 C 0.5856 -0.00021 1.07841 0.0
C172 C 0.5934 -0.00021 1.1127 0.0
C173 C 0.60234 0.02834 0.12918 0.0
C174 C 0.61406 0.02788 0.16118 0.0
C175 C 0.61783 -0.00112 0.1771 0.0
C176 C 0.60989 0.97047 0.16054 0.0
C177 C 0.59674 0.97088 0.12887 0.0
C178 C 0.68963 0.93653 1.01184 0.0
C179 C 0.77861 0.99484 1.08308 0.0
O180 O 0.85013 0.97216 1.00264 0.0
O181 O 0.81755 0.99561 0.96144 0.0
O182 O 0.70628 0.03519 1.01284 0.0
O183 O 0.78898 0.04595 1.02239 0.0
O184 O 0.7039 0.98961 0.96181 0.0
O185 O 0.62537 0.00558 0.98682 0.0
O186 O 0.60481 0.02438 1.06344 0.0
O187 O 0.59611 0.97304 1.06409 0.0
O188 O 0.7231 0.95381 1.02711 0.0
O189 O 0.64149 0.94961 1.00986 0.0
O190 O 0.72407 0.99759 1.08114 0.0
O191 O 0.80611 0.99179 1.0564 0.0
H192 H 0.83458 0.91419 0.98955 0.0
H193 H 0.82133 0.86972 0.95349 0.0
H194 H 0.88138 0.92812 0.87793 0.0
H195 H 0.89573 0.97147 0.9143 0.0
H196 H 0.60044 0.05101 0.11734 0.0
H197 H 0.62049 0.05013 0.17344 0.0
H198 H 0.61543 0.94783 0.17198 0.0
H199 H 0.59088 0.94842 0.11691 0.0
Sm200 Sm 0.03806 0.74207 1.00705 0.0
Sm201 Sm 0.12804 0.7608 1.03207 0.0
C202 C 0.95221 0.72111 0.97524 0.0
C203 C 0.94523 0.68928 0.96185 0.0
C204 C 0.92176 0.68611 0.93229 0.0
C205 C 0.93781 0.66105 0.91312 0.0
C206 C 0.97806 0.63925 0.92356 0.0
C207 C 0.9906 0.63842 0.95557 0.0
C208 C 0.97455 0.66363 0.97466 0.0
C209 C 0.09188 0.68988 1.03257 0.0
C210 C 0.14836 0.74826 0.95774 0.0
C211 C 0.20404 0.77403 1.07401 0.0
C212 C 0.1991 0.77094 1.10832 0.0
C213 C 0.19498 0.74086 0.12236 0.0
C214 C 0.18543 0.73818 0.15439 0.0
C215 C 0.17733 0.7654 0.17284 0.0
C216 C 0.18259 0.79546 0.15901 0.0
C217 C 0.19398 0.7982 0.12711 0.0
C218 C 0.078 0.81198 1.00261 0.0
C219 C 1.01972 0.75415 1.08034 0.0
O220 O 0.99071 0.73835 0.96239 0.0
O221 O 0.95397 0.72233 1.00554 0.0
O222 O 0.11394 0.71062 1.01559 0.0
O223 O 0.04158 0.69739 1.03809 0.0
O224 O 0.09325 0.74847 0.95988 0.0
O225 O 0.17528 0.74968 0.98476 0.0
O226 O 0.2045 0.74775 1.05768 0.0
O227 O 0.17313 0.79583 1.06147 0.0
O228 O 0.05353 0.79293 1.02076 0.0
O229 O 0.12886 0.80348 0.99899 0.0
O230 O 0.07341 0.74886 1.0775 0.0
O231 O 0.99397 0.75923 1.05358 0.0
H232 H 0.89686 0.70493 0.92264 0.0
H233 H 0.9257 0.6623 0.88879 0.0
H234 H 1.01993 0.62134 0.96459 0.0
H235 H 0.99089 0.6648 0.99811 0.0
H236 H 0.19865 0.71932 1.10862 0.0
H237 H 0.18214 0.7147 0.16442 0.0
H238 H 0.17722 0.81683 0.17283 0.0
H239 H 0.19711 0.82165 0.11693 0.0
Sm240 Sm 0.74479 0.73877 0.96978 0.0
Sm241 Sm 0.65292 0.7527 0.9415 0.0
C242 C 0.8313 0.72573 1.00501 0.0
C243 C 0.84442 0.69608 1.02127 0.0
C244 C 0.86136 0.6975 1.05245 0.0
C245 C 0.85018 0.67202 1.07208 0.0
C246 C 0.81925 0.64606 1.0607 0.0
C247 C 0.81587 0.6414 1.02828 0.0
C248 C 0.82754 0.66678 1.00849 0.0
C249 C 0.69326 0.68254 0.94982 0.0
C250 C 0.63252 0.74701 1.01688 0.0
C251 C 0.57653 0.75776 0.89852 0.0
C252 C 0.58621 0.75519 0.86466 0.0
C253 C 0.61412 0.72886 0.85228 0.0
C254 C 0.63194 0.72882 0.82137 0.0
C255 C 0.62046 0.75458 0.8014 0.0
C256 C 0.58963 0.78013 0.81376 0.0
C257 C 0.57433 0.78088 0.84515 0.0
C258 C 0.69189 0.80693 0.96961 0.0
C259 C 0.76695 0.75078 0.89549 0.0
O260 O 0.78835 0.74091 1.01568 0.0
O261 O 0.83174 0.72426 0.97466 0.0
O262 O 0.67035 0.70537 0.96357 0.0
O263 O 0.7442 0.68943 0.94494 0.0
O264 O 0.68758 0.7484 1.01523 0.0
O265 O 0.60608 0.7448 0.9897 0.0
O266 O 0.58324 0.73181 0.91476 0.0
O267 O 0.59873 0.78258 0.91179 0.0
O268 O 0.72211 0.78819 0.95375 0.0
O269 O 0.64141 0.79711 0.9707 0.0
O270 O 0.7128 0.74599 0.89677 0.0
O271 O 0.79119 0.75372 0.92308 0.0
H272 H 0.87622 0.71958 1.06249 0.0
H273 H 0.85567 0.67574 1.09698 0.0
H274 H 0.79435 0.62092 1.01884 0.0
H275 H 0.81649 0.66468 0.98405 0.0
H276 H 0.62552 0.70901 0.86698 0.0
H277 H 0.65854 0.70953 0.81456 0.0
H278 H 0.57815 0.80016 0.7996 0.0
H279 H 0.55358 0.8017 0.85427 0.0
Sm280 Sm 0.03784 0.01304 0.9717 0.0
Sm281 Sm 0.13117 0.99515 0.94433 0.0
C282 C 0.94844 0.02894 1.00416 0.0
C283 C 0.93161 0.05989 1.01701 0.0
C284 C 0.90895 0.06113 1.04697 0.0
C285 C 0.91893 0.08756 1.06587 0.0
C286 C 0.95459 0.11159 1.05511 0.0
C287 C 0.96179 0.11451 1.02266 0.0
C288 C 0.95179 0.08805 1.00363 0.0
C289 C 0.09011 0.06645 0.94731 0.0
C290 C 0.15186 0.00485 1.01903 0.0
C291 C 0.20859 0.98203 0.90316 0.0
C292 C 0.20262 0.97612 0.86916 0.0
C293 C 0.19447 0.00148 0.84838 0.0
C294 C 0.18312 0.99565 0.81691 0.0
C295 C 0.17895 0.96441 0.80565 0.0
C296 C 0.18834 0.939 0.82604 0.0
C297 C 0.20054 0.94482 0.85752 0.0
C298 C 0.08312 0.94399 0.9738 0.0
C299 C 1.02065 0.00066 0.89679 0.0
O300 O 0.99236 0.01657 1.01689 0.0
O301 O 0.94942 0.02676 0.97388 0.0
O302 O 0.11387 0.04474 0.96245 0.0
O303 O 0.03864 0.06006 0.94449 0.0
O304 O 0.09648 0.00413 1.01737 0.0
O305 O 0.17822 0.00595 0.99183 0.0
O306 O 0.19902 0.0109 0.91307 0.0
O307 O 0.18717 0.96057 0.92135 0.0
O308 O 0.05692 0.96292 0.95614 0.0
O309 O 0.13398 0.95258 0.97693 0.0
O310 O 0.07516 0.00203 0.8986 0.0
O311 O 0.99433 -0.00032 0.92384 0.0
H312 H 0.89029 0.0403 1.05709 0.0
H313 H 0.90918 0.08554 1.09051 0.0
H314 H 0.98621 0.13381 1.01331 0.0
H315 H 0.9669 0.08826 0.97989 0.0
H316 H 0.19599 0.02587 0.85646 0.0
H317 H 0.17606 0.01559 0.80147 0.0
H318 H 0.18584 0.91474 0.81766 0.0
H319 H 0.20694 0.9248 0.87293 0.0
Sm320 Sm 0.38614 0.50521 0.69082 0.0
Sm321 Sm 0.30437 0.47862 0.71097 0.0
C322 C 0.4598 0.52554 0.65108 0.0
C323 C 0.45213 0.52291 0.61703 0.0
C324 C 0.44027 0.4932 0.60339 0.0
C325 C 0.42361 0.49103 0.57234 0.0
C326 C 0.41689 0.51857 0.55453 0.0
C327 C 0.42789 0.54831 0.56816 0.0
C328 C 0.44623 0.55043 0.59904 0.0
C329 C 0.33849 0.55106 0.728 0.0
C330 C 0.2757 0.50067 0.64152 0.0
C331 C 0.21937 0.45015 0.73747 0.0
C332 C 0.1842 0.46228 0.76184 0.0
C333 C 0.18161 0.49539 0.76497 0.0
C334 C 0.17429 0.50895 0.79404 0.0
C335 C 0.18023 0.48953 0.82011 0.0
C336 C 0.17243 0.45653 0.81703 0.0
C337 C 0.17307 0.44283 0.78744 0.0
C338 C 0.36703 0.43475 0.67665 0.0
C339 C 0.40685 0.48755 0.76433 0.0
O340 O 0.46559 0.49888 0.66622 0.0
O341 O 0.42559 0.5448 0.66485 0.0
O342 O 0.31117 0.53346 0.70902 0.0
O343 O 0.38888 0.54138 0.72981 0.0
O344 O 0.33036 0.50256 0.6434 0.0
O345 O 0.25125 0.49561 0.66838 0.0
O346 O 0.21599 0.46518 0.71107 0.0
O347 O 0.27019 0.446 0.74651 0.0
O348 O 0.3838 0.45267 0.69804 0.0
O349 O 0.31673 0.44203 0.6709 0.0
O350 O 0.35222 0.48435 0.76082 0.0
O351 O 0.4342 0.49358 0.73811 0.0
H352 H 0.44254 0.47159 0.61688 0.0
H353 H 0.41514 0.46783 0.56241 0.0
H354 H 0.42082 0.56998 0.55519 0.0
H355 H 0.45314 0.57364 0.60934 0.0
H356 H 0.19184 0.51096 0.74568 0.0
H357 H 0.17899 0.53449 0.79601 0.0
H358 H 0.17699 0.44114 0.83713 0.0
H359 H 0.17585 0.41722 0.78535 0.0
Sm360 Sm 0.9074 0.74485 0.69227 0.0
Sm361 Sm 1.0057 0.75627 0.72238 0.0
C362 C 0.83053 0.74604 0.64908 0.0
C363 C 0.83735 0.74432 0.6147 0.0
C364 C 0.85546 0.77107 0.59798 0.0
C365 C 0.86757 0.76879 0.56623 0.0
C366 C 0.86246 0.73969 0.55041 0.0
C367 C 0.84285 0.71309 0.56682 0.0
C368 C 0.83004 0.71545 0.59863 0.0
C369 C 0.9457 0.6891 0.71612 0.0
C370 C 0.02327 0.74947 0.64613 0.0
C371 C 0.09061 0.75057 0.76065 0.0
C372 C 0.10255 0.7257 0.78397 0.0
C373 C 0.10999 0.69391 0.77456 0.0
C374 C 0.10877 0.66945 0.79642 0.0
C375 C 0.10061 0.67636 0.82808 0.0
C376 C 0.09834 0.70828 0.83784 0.0
C377 C 0.09907 0.73274 0.81593 0.0
C378 C 0.95704 0.81276 0.70384 0.0
C379 C 0.89089 0.75047 0.76866 0.0
O380 O 0.84922 0.77177 0.66271 0.0
O381 O 0.84206 0.72027 0.66471 0.0
O382 O 0.97592 0.70921 0.7021 0.0
O383 O 0.89508 0.69876 0.7182 0.0
O384 O 0.9689 0.74521 0.64795 0.0
O385 O 0.0496 0.75483 0.67282 0.0
O386 O 0.09129 0.74147 0.7315 0.0
O387 O 0.04902 0.76922 0.76675 0.0
O388 O 0.93366 0.78949 0.71647 0.0
O389 O 1.00945 0.80721 0.70124 0.0
O390 O 0.94581 0.7478 0.76673 0.0
O391 O 0.86365 0.75252 0.74161 0.0
H392 H 0.86122 0.79378 0.60948 0.0
H393 H 0.88188 0.78979 0.55412 0.0
H394 H 0.83947 0.69016 0.55545 0.0
H395 H 0.8162 0.69443 0.61087 0.0
H396 H 0.11234 0.68756 0.75008 0.0
H397 H 0.10995 0.64508 0.78831 0.0
H398 H 0.09122 0.71424 0.86217 0.0
H399 H 0.09296 0.75696 0.8238 0.0
Sm400 Sm 0.39073 0.73982 0.78538 0.0
Sm401 Sm 0.29555 0.75359 0.75589 0.0
C402 C 0.46846 0.73943 0.82771 0.0
C403 C 0.46011 0.74162 0.8618 0.0
C404 C 0.44965 0.77123 0.87595 0.0
C405 C 0.43504 0.77307 0.90733 0.0
C406 C 0.42865 0.74532 0.92494 0.0
C407 C 0.44104 0.71585 0.91123 0.0
C408 C 0.45712 0.714 0.88 0.0
C409 C 0.35232 0.68534 0.75793 0.0
C410 C 0.27564 0.74801 0.83202 0.0
C411 C 0.21078 0.74745 0.71782 0.0
C412 C 0.19899 0.72132 0.69576 0.0
C413 C 0.19975 0.68944 0.70565 0.0
C414 C 0.19793 0.66465 0.6839 0.0
C415 C 0.19746 0.67125 0.65175 0.0
C416 C 0.19338 0.70323 0.64215 0.0
C417 C 0.19393 0.7279 0.66393 0.0
C418 C 0.34911 0.80949 0.77343 0.0
C419 C 0.40918 0.74795 0.70948 0.0
O420 O 0.45589 0.76492 0.81185 0.0
O421 O 0.45126 0.71331 0.81428 0.0
O422 O 0.32198 0.70461 0.7732 0.0
O423 O 0.40303 0.69504 0.757 0.0
O424 O 0.32959 0.7421 0.83017 0.0
O425 O 0.25047 0.75417 0.80521 0.0
O426 O 0.20905 0.74014 0.74736 0.0
O427 O 0.25303 0.76534 0.71106 0.0
O428 O 0.37039 0.78529 0.76133 0.0
O429 O 0.29624 0.80529 0.77616 0.0
O430 O 0.35421 0.74654 0.71103 0.0
O431 O 0.43604 0.74795 0.73668 0.0
H432 H 0.45185 0.79306 0.8627 0.0
H433 H 0.42757 0.7962 0.91761 0.0
H434 H 0.4356 0.69412 0.92424 0.0
H435 H 0.46492 0.69086 0.86979 0.0
H436 H 0.20455 0.68352 0.7301 0.0
H437 H 0.19981 0.64048 0.69233 0.0
H438 H 0.19399 0.70956 0.61764 0.0
H439 H 0.19434 0.7522 0.65577 0.0
Sm440 Sm 0.89862 0.51031 0.78856 0.0
Sm441 Sm 0.9976 0.49746 0.75941 0.0
C442 C 0.81816 0.51731 0.82916 0.0
C443 C 0.82143 0.51896 0.86358 0.0
C444 C 0.84864 0.49503 0.88038 0.0
C445 C 0.85626 0.49793 0.91252 0.0
C446 C 0.83698 0.5248 0.92869 0.0
C447 C 0.81083 0.5491 0.91187 0.0
C448 C 0.80254 0.54603 0.87958 0.0
C449 C 0.93485 0.56137 0.75509 0.0
C450 C 1.01149 0.50349 0.83668 0.0
C451 C 0.08466 0.50755 0.72413 0.0
C452 C 0.09596 0.53031 0.69878 0.0
C453 C 0.10871 0.56229 0.70568 0.0
C454 C 0.10675 0.58526 0.68226 0.0
C455 C 0.09401 0.57639 0.65151 0.0
C456 C 0.08722 0.54402 0.64416 0.0
C457 C 0.08771 0.52127 0.66765 0.0
C458 C 0.95499 0.44137 0.78227 0.0
C459 C 0.88375 0.49869 0.71226 0.0
O460 O 0.83009 0.48998 0.81608 0.0
O461 O 0.84046 0.54128 0.81468 0.0
O462 O 0.96474 0.5452 0.77348 0.0
O463 O 0.88437 0.55153 0.75541 0.0
O464 O 0.95774 0.5094 0.834 0.0
O465 O 0.03846 0.49775 0.81024 0.0
O466 O 0.07716 0.52043 0.75158 0.0
O467 O 0.05018 0.48422 0.7185 0.0
O468 O 0.92692 0.46299 0.76927 0.0
O469 O 1.00711 0.44848 0.78213 0.0
O470 O 0.93882 0.4989 0.71389 0.0
O471 O 0.85623 0.50007 0.73928 0.0
H472 H 0.86504 0.47425 0.86868 0.0
H473 H 0.87854 0.47938 0.92463 0.0
H474 H 0.79702 0.57043 0.92362 0.0
H475 H 0.78247 0.56508 0.86699 0.0
H476 H 0.11618 0.57002 0.7295 0.0
H477 H 0.11125 0.61007 0.6885 0.0
H478 H 0.07609 0.53655 0.62071 0.0
H479 H 0.07742 0.49698 0.66184 0.0
Sm480 Sm 0.7477 0.50504 0.50858 0.0
Sm481 Sm 0.64937 0.49492 0.53779 0.0
C482 C 0.83413 0.49714 0.47201 0.0
C483 C 0.84224 0.47496 0.44568 0.0
C484 C 0.87469 0.44746 0.44947 0.0
C485 C 0.87194 0.42275 0.42747 0.0
C486 C 0.83775 0.42586 0.40129 0.0
C487 C 0.80898 0.45427 0.39634 0.0
C488 C 0.81069 0.47839 0.41845 0.0
C489 C 0.70675 0.56268 0.53097 0.0
C490 C 0.63238 0.50537 0.4624 0.0
C491 C 0.56871 0.48764 0.57805 0.0
C492 C 0.57141 0.49026 0.61225 0.0
C493 C 0.58923 0.5184 0.62653 0.0
C494 C 0.60001 0.5192 0.65844 0.0
C495 C 0.5938 0.49185 0.67707 0.0
C496 C 0.57304 0.46411 0.66271 0.0
C497 C 0.56265 0.46331 0.63064 0.0
C498 C 0.67966 0.44121 0.50527 0.0
C499 C 0.7626 0.50025 0.58516 0.0
O500 O 0.82944 0.48366 0.49926 0.0
O501 O 0.79878 0.52025 0.46814 0.0
O502 O 0.6789 0.54114 0.51779 0.0
O503 O 0.75846 0.55479 0.53171 0.0
O504 O 0.68723 0.50181 0.46372 0.0
O505 O 0.60579 0.50681 0.48959 0.0
O506 O 0.5753 0.51377 0.56203 0.0
O507 O 0.59646 0.46383 0.5666 0.0
O508 O 0.71239 0.45717 0.52258 0.0
O509 O 0.63136 0.45398 0.50505 0.0
O510 O 0.7079 0.50216 0.583 0.0
O511 O 0.78972 0.49838 0.55837 0.0
H512 H 0.89935 0.44424 0.47036 0.0
H513 H 0.89439 0.40093 0.43151 0.0
H514 H 0.78227 0.45698 0.37616 0.0
H515 H 0.78493 0.49901 0.4149 0.0
H516 H 0.59685 0.53962 0.61295 0.0
H517 H 0.61561 0.54123 0.66755 0.0
H518 H 0.56549 0.44274 0.67601 0.0
H519 H 0.5495 0.44134 0.61992 0.0
Sm520 Sm 0.05723 0.23683 0.51264 0.0
Sm521 Sm 0.14696 0.26072 0.53818 0.0
C522 C 0.97179 0.2256 0.47644 0.0
C523 C 0.9523 0.25019 0.45502 0.0
C524 C 0.95512 0.2819 0.46549 0.0
C525 C 0.9656 0.30637 0.44473 0.0
C526 C 0.97574 0.29919 0.41346 0.0
C527 C 0.96653 0.26824 0.40223 0.0
C528 C 0.95314 0.24389 0.42287 0.0
C529 C 0.11734 0.18747 0.53898 0.0
C530 C 0.16611 0.24825 0.46303 0.0
C531 C 0.22641 0.28073 0.5758 0.0
C532 C 0.22896 0.28331 0.60999 0.0
C533 C 0.20541 0.25957 0.62851 0.0
C534 C 0.20357 0.26305 0.66078 0.0
C535 C 0.22499 0.2903 0.67541 0.0
C536 C 0.2491 0.31406 0.65687 0.0
C537 C 0.25107 0.31055 0.62431 0.0
C538 C 0.09482 0.308 0.50534 0.0
C539 C 0.03698 0.25088 0.58673 0.0
O540 O 0.9664 0.23195 0.50611 0.0
O541 O 1.02103 0.2153 0.46975 0.0
O542 O 0.13701 0.2096 0.52267 0.0
O543 O 0.06519 0.19187 0.54305 0.0
O544 O 0.11134 0.24494 0.46544 0.0
O545 O 0.1931 0.25205 0.4899 0.0
O546 O 0.22489 0.25203 0.56398 0.0
O547 O 0.19109 0.29973 0.56269 0.0
O548 O 0.07031 0.2892 0.52387 0.0
O549 O 0.14624 0.30075 0.5027 0.0
O550 O 0.09178 0.25195 0.58457 0.0
O551 O 1.0104 0.24881 0.55982 0.0
H552 H 0.95757 0.28732 0.49011 0.0
H553 H 0.97391 0.32996 0.45383 0.0
H554 H 0.97594 0.26223 0.37816 0.0
H555 H 0.95238 0.21965 0.41431 0.0
H556 H 0.18767 0.23844 0.61806 0.0
H557 H 0.1842 0.24458 0.67424 0.0
H558 H 0.2658 0.33538 0.66749 0.0
H559 H 0.26904 0.32926 0.61029 0.0
Sm560 Sm 0.7643 0.24974 0.47177 0.0
Sm561 Sm 0.6637 0.2496 0.4394 0.0
C562 C 0.84427 0.266 0.51083 0.0
C563 C 0.84148 0.28818 0.53752 0.0
C564 C 0.87634 0.3149 0.5386 0.0
C565 C 0.86431 0.34041 0.55843 0.0
C566 C 0.81684 0.33979 0.57679 0.0
C567 C 0.78438 0.31222 0.57754 0.0
C568 C 0.79678 0.28655 0.55825 0.0
C569 C 0.72471 0.18885 0.45915 0.0
C570 C 0.64562 0.24817 0.5152 0.0
C571 C 0.59066 0.23493 0.39687 0.0
C572 C 0.59664 0.23726 0.36288 0.0
C573 C 0.59715 0.20939 0.34483 0.0
C574 C 0.60903 0.21073 0.31304 0.0
C575 C 0.6204 0.24001 0.29887 0.0
C576 C 0.61802 0.268 0.31673 0.0
C577 C 0.60666 0.26666 0.34855 0.0
C578 C 0.6848 0.30966 0.46082 0.0
C579 C 0.78045 0.25045 0.39434 0.0
O580 O 0.83663 0.27947 0.4838 0.0
O581 O 0.81723 0.23925 0.51321 0.0
O582 O 0.69877 0.2122 0.46953 0.0
O583 O 0.77618 0.19666 0.45496 0.0
O584 O 0.69867 0.25709 0.5139 0.0
O585 O 0.6217 0.24018 0.4883 0.0
O586 O 0.62289 0.21381 0.40955 0.0
O587 O 0.58828 0.2616 0.4127 0.0
O588 O 0.72148 0.29174 0.44866 0.0
O589 O 0.63654 0.29639 0.45992 0.0
O590 O 0.72579 0.24831 0.39574 0.0
O591 O 0.80725 0.2523 0.42149 0.0
H592 H 0.91065 0.3172 0.52278 0.0
H593 H 0.89 0.36134 0.55818 0.0
H594 H 0.74877 0.31081 0.59276 0.0
H595 H 0.7697 0.26614 0.55854 0.0
H596 H 0.58989 0.18648 0.35554 0.0
H597 H 0.61183 0.18874 0.29994 0.0
H598 H 0.62625 0.29088 0.30621 0.0
H599 H 0.60675 0.28855 0.36191 0.0
Sm600 Sm 0.03022 0.50791 0.47156 0.0
Sm601 Sm 0.1237 0.48977 0.44359 0.0
C602 C 0.94269 0.52229 0.50599 0.0
C603 C 0.92905 0.55098 0.5241 0.0
C604 C 0.91813 0.5482 0.55607 0.0
C605 C 0.92832 0.57394 0.57586 0.0
C606 C 0.95127 0.60206 0.5637 0.0
C607 C 0.94938 0.60698 0.53134 0.0
C608 C 0.93901 0.58129 0.51148 0.0
C609 C 0.08677 0.56101 0.44965 0.0
C610 C 0.14525 0.50225 0.51781 0.0
C611 C 0.19836 0.4785 0.40076 0.0
C612 C 0.18707 0.47368 0.36699 0.0
C613 C 0.18584 0.49989 0.34683 0.0
C614 C 0.16845 0.49657 0.31598 0.0
C615 C 0.14765 0.46745 0.30498 0.0
C616 C 0.14996 0.44091 0.32486 0.0
C617 C 0.17015 0.4439 0.3554 0.0
C618 C 0.0761 0.43869 0.47327 0.0
C619 C 1.01132 0.49481 0.39685 0.0
O620 O 0.98383 0.50541 0.51656 0.0
O621 O 0.94488 0.52582 0.47583 0.0
O622 O 0.10792 0.5381 0.46398 0.0
O623 O 0.03472 0.5562 0.44612 0.0
O624 O 0.08995 0.50167 0.5167 0.0
O625 O 0.17137 0.50157 0.49052 0.0
O626 O 0.18899 0.50707 0.41162 0.0
O627 O 0.18068 0.45635 0.41954 0.0
O628 O 0.04988 0.45783 0.45579 0.0
O629 O 0.12723 0.4471 0.47577 0.0
O630 O 0.06592 0.49571 0.39839 0.0
O631 O 0.98521 0.49506 0.42396 0.0
H632 H 0.90881 0.52526 0.56619 0.0
H633 H 0.92791 0.5697 0.60085 0.0
H634 H 0.9654 0.62875 0.52151 0.0
H635 H 0.94561 0.58437 0.48665 0.0
H636 H 0.19763 0.5233 0.35497 0.0
H637 H 0.17045 0.51718 0.30099 0.0
H638 H 0.13424 0.41808 0.31732 0.0
H639 H 0.1699 0.42318 0.37034 0.0
Sm640 Sm 0.88633 0.01028 0.69413 0.0
Sm641 Sm 0.79255 0.99029 0.72213 0.0
C642 C 0.96774 0.0221 0.65543 0.0
C643 C 0.96801 0.01742 0.62133 0.0
C644 C 0.94977 0.98863 0.60811 0.0
C645 C 0.94013 0.98632 0.57602 0.0
C646 C 0.94775 0.01285 0.55679 0.0
C647 C 0.96723 0.04135 0.56979 0.0
C648 C 0.97742 0.04356 0.60185 0.0
C649 C 0.83864 0.05971 0.72691 0.0
C650 C 0.77746 0.00298 0.64557 0.0
C651 C 0.69937 0.9714 0.74773 0.0
C652 C 0.69116 0.94681 0.77191 0.0
C653 C 0.69579 0.9552 0.80354 0.0
C654 C 0.70662 0.93206 0.82584 0.0
C655 C 0.71212 0.90006 0.81706 0.0
C656 C 0.70057 0.89105 0.78622 0.0
C657 C 0.68979 0.91431 0.76372 0.0
C658 C 0.86454 0.93992 0.71318 0.0
C659 C 0.89985 -0.00075 0.7703 0.0
O660 O 0.9665 0.99654 0.67282 0.0
O661 O 0.93349 0.04397 0.66491 0.0
O662 O 0.81228 0.04118 0.70882 0.0
O663 O 0.88988 0.05157 0.72882 0.0
O664 O 0.8309 0.00944 0.64786 0.0
O665 O 0.75156 0.99588 0.67192 0.0
O666 O 0.7251 0.99732 0.7566 0.0
O667 O 0.71646 0.96109 0.7206 0.0
O668 O 0.85256 0.96043 0.69284 0.0
O669 O 0.83991 0.9464 0.7391 0.0
O670 O 0.84511 0.00168 0.76821 0.0
O671 O 0.92713 0.99706 0.74331 0.0
H672 H 0.94093 0.96825 0.62265 0.0
H673 H 0.92439 0.96426 0.56642 0.0
H674 H 0.97302 0.06212 0.55528 0.0
H675 H 0.98963 0.06617 0.61173 0.0
H676 H 0.6961 0.97989 0.81076 0.0
H677 H 0.71575 0.93962 0.84954 0.0
H678 H 0.70379 0.8664 0.7792 0.0
H679 H 0.68514 0.90698 0.73956 0.0
Sm680 Sm 0.41021 0.23694 0.68922 0.0
Sm681 Sm 0.50276 0.25754 0.71346 0.0
C682 C 0.32916 0.22426 0.6504 0.0
C683 C 0.33046 0.22867 0.6164 0.0
C684 C 0.34942 0.2575 0.60398 0.0
C685 C 0.3585 0.26056 0.5721 0.0
C686 C 0.35198 0.23437 0.55204 0.0
C687 C 0.33323 0.20538 0.56453 0.0
C688 C 0.32163 0.20276 0.59639 0.0
C689 C 0.44754 0.18906 0.72702 0.0
C690 C 0.5208 0.24326 0.63989 0.0
C691 C 0.59182 0.27537 0.74445 0.0
C692 C 0.60969 0.26993 0.7765 0.0
C693 C 0.61365 0.23872 0.78742 0.0
C694 C 0.60122 0.2324 0.81827 0.0
C695 C 0.58662 0.2574 0.83845 0.0
C696 C 0.59511 0.28889 0.829 0.0
C697 C 0.6069 0.2952 0.79787 0.0
C698 C 0.44606 0.30589 0.68332 0.0
C699 C 0.39505 0.25521 0.7634 0.0
O700 O 0.33081 0.25014 0.66732 0.0
O701 O 0.36249 0.20238 0.66068 0.0
O702 O 0.47951 0.20456 0.70872 0.0
O703 O 0.39756 0.19931 0.72518 0.0
O704 O 0.46626 0.2405 0.64246 0.0
O705 O 0.54795 0.24734 0.66619 0.0
O706 O 0.59037 0.25047 0.72615 0.0
O707 O 0.54772 0.2929 0.74201 0.0
O708 O 0.42667 0.28689 0.70278 0.0
O709 O 0.49651 0.29852 0.67729 0.0
O710 O 0.44996 0.25321 0.76118 0.0
O711 O 0.36732 0.25337 0.7366 0.0
H712 H 0.35822 0.27771 0.61891 0.0
H713 H 0.37224 0.28333 0.56335 0.0
H714 H 0.33009 0.18426 0.55016 0.0
H715 H 0.30885 0.18001 0.60568 0.0
H716 H 0.61792 0.21881 0.77149 0.0
H717 H 0.59517 0.20779 0.82459 0.0
H718 H 0.58602 0.30851 0.84462 0.0
H719 H 0.60589 0.31956 0.78981 0.0
Sm720 Sm 0.8948 0.23899 0.78794 0.0
Sm721 Sm 0.80435 0.26266 0.76331 0.0
C722 C 0.97491 0.22437 0.82711 0.0
C723 C 0.97432 0.22513 0.86169 0.0
C724 C 0.9686 0.25411 0.87778 0.0
C725 C 0.95906 0.25455 0.90987 0.0
C726 C 0.95292 0.22607 0.92647 0.0
C727 C 0.96233 0.19713 0.91087 0.0
C728 C 0.97317 0.19669 0.87876 0.0
C729 C 0.83814 0.1908 0.7577 0.0
C730 C 0.78616 0.24548 0.83694 0.0
C731 C 0.71839 0.2848 0.73206 0.0
C732 C 0.70901 0.31512 0.71612 0.0
C733 C 0.68133 0.31536 0.6875 0.0
C734 C 0.68529 0.3418 0.66815 0.0
C735 C 0.71787 0.3682 0.67707 0.0
C736 C 0.73737 0.36982 0.70798 0.0
C737 C 0.73376 0.3432 0.72724 0.0
C738 C 0.86629 0.31228 0.7883 0.0
C739 C 0.9132 0.25208 0.71317 0.0
O740 O 0.97205 0.25176 0.81289 0.0
O741 O 0.94322 0.203 0.81419 0.0
O742 O 0.81597 0.21085 0.77601 0.0
O743 O 0.8901 0.1969 0.75439 0.0
O744 O 0.84077 0.24487 0.83468 0.0
O745 O 0.75907 0.24816 0.81022 0.0
O746 O 0.75461 0.2658 0.71938 0.0
O747 O 0.7237 0.28666 0.76222 0.0
O748 O 0.88483 0.2899 0.77172 0.0
O749 O 0.81486 0.3075 0.79376 0.0
O750 O 0.85902 0.25775 0.71584 0.0
O751 O 0.9399 0.24594 0.73958 0.0
H752 H 0.96997 0.27655 0.86551 0.0
H753 H 0.95459 0.27729 0.9215 0.0
H754 H 0.95823 0.17477 0.92308 0.0
H755 H 0.97768 0.17403 0.86697 0.0
H756 H 0.6611 0.29411 0.67885 0.0
H757 H 0.66922 0.33942 0.64463 0.0
H758 H 0.7618 0.38992 0.71572 0.0
H759 H 0.75455 0.34375 0.74966 0.0
Sm760 Sm 0.40816 0.0012 0.78735 0.0
Sm761 Sm 0.50797 0.99116 0.75792 0.0
C762 C 0.32719 -0.00166 0.82788 0.0
C763 C 0.33067 0.00263 0.86202 0.0
C764 C 0.33414 0.97589 0.88143 0.0
C765 C 0.34724 0.97931 0.91297 0.0
C766 C 0.35828 0.00948 0.92557 0.0
C767 C 0.353 0.03631 0.90642 0.0
C768 C 0.33858 0.03298 0.87505 0.0
C769 C 0.44632 0.05742 0.76357 0.0
C770 C 0.52311 0.99585 0.83456 0.0
C771 C 0.59243 0.00372 0.72147 0.0
C772 C 0.59236 0.02811 0.69684 0.0
C773 C 0.62586 0.05534 0.6998 0.0
C774 C 0.6144 0.08263 0.68219 0.0
C775 C 0.56899 0.08285 0.66189 0.0
C776 C 0.53841 0.05494 0.65733 0.0
C777 C 0.5499 0.02794 0.67456 0.0
C778 C 0.45951 0.9338 0.77391 0.0
C779 C 0.39345 0.99603 0.71112 0.0
O780 O 0.35187 0.97302 0.81704 0.0
O781 O 0.3364 0.02352 0.81085 0.0
O782 O 0.47583 0.03759 0.77847 0.0
O783 O 0.39611 0.0472 0.76091 0.0
O784 O 0.46915 0.00189 0.83227 0.0
O785 O 0.54935 0.98926 0.80814 0.0
O786 O 0.58792 0.0153 0.74966 0.0
O787 O 0.56094 0.97882 0.71708 0.0
O788 O 0.43534 0.9574 0.76224 0.0
O789 O 0.51223 0.93931 0.77619 0.0
O790 O 0.44848 0.99724 0.71297 0.0
O791 O 0.36579 0.99475 0.7379 0.0
H792 H 0.32813 0.9522 0.87205 0.0
H793 H 0.35031 0.95823 0.92731 0.0
H794 H 0.36297 0.05978 0.91513 0.0
H795 H 0.33674 0.0541 0.86071 0.0
H796 H 0.65865 0.05612 0.71702 0.0
H797 H 0.63932 0.10374 0.68531 0.0
H798 H 0.50456 0.05423 0.64074 0.0
H799 H 0.52364 0.00741 0.6713 0.0
Sm800 Sm 0.25378 0.00427 0.51144 0.0
Sm801 Sm 0.15853 0.98832 0.53826 0.0
C802 C 0.33999 0.01815 0.47645 0.0
C803 C 0.34828 0.04702 0.45785 0.0
C804 C 0.35986 0.04404 0.42599 0.0
C805 C 0.3459 0.06857 0.40572 0.0
C806 C 0.31942 0.09604 0.41719 0.0
C807 C 0.31754 0.1012 0.44952 0.0
C808 C 0.33175 0.0767 0.46985 0.0
C809 C 0.20198 0.05827 0.53537 0.0
C810 C 0.14142 -3e-05 0.46324 0.0
C811 C 0.07908 0.97604 0.57875 0.0
C812 C 0.08202 0.97271 0.61315 0.0
C813 C 0.09834 -0.00156 0.632 0.0
C814 C 0.10943 0.99402 0.66365 0.0
C815 C 0.10582 0.96373 0.67712 0.0
C816 C 0.08661 0.93827 0.65881 0.0
C817 C 0.07449 0.94279 0.62709 0.0
C818 C 0.20498 0.93662 0.50873 0.0
C819 C 0.27037 0.99349 0.58538 0.0
O820 O 0.30016 -0.0003 0.46673 0.0
O821 O 0.33922 0.02211 0.50662 0.0
O822 O 0.17878 0.03679 0.51961 0.0
O823 O 0.25352 0.05184 0.53845 0.0
O824 O 0.19641 -0.00161 0.46541 0.0
O825 O 0.11397 0.00041 0.49017 0.0
O826 O 0.08756 0.00434 0.56718 0.0
O827 O 0.10441 0.95398 0.56294 0.0
O828 O 0.23117 0.95495 0.52706 0.0
O829 O 0.15476 0.94603 0.50481 0.0
O830 O 0.2164 -0.00131 0.58306 0.0
O831 O 0.2961 0.98833 0.55863 0.0
H832 H 0.37342 0.02153 0.41635 0.0
H833 H 0.34846 0.06392 0.38082 0.0
H834 H 0.2983 0.12233 0.45889 0.0
H835 H 0.32377 0.0799 0.49456 0.0
H836 H 0.10413 0.02188 0.6222 0.0
H837 H 0.12245 0.01424 0.67751 0.0
H838 H 0.08344 0.91465 0.66858 0.0
H839 H 0.06179 0.92258 0.61309 0.0
Sm840 Sm 0.55388 0.74159 0.51088 0.0
Sm841 Sm 0.64137 0.76516 0.53488 0.0
C842 C 0.46957 0.71819 0.47926 0.0
C843 C 0.46643 0.68681 0.46466 0.0
C844 C 0.44081 0.68319 0.43566 0.0
C845 C 0.454 0.65721 0.41687 0.0
C846 C 0.49418 0.63502 0.42666 0.0
C847 C 0.51371 0.63669 0.4575 0.0
C848 C 0.49959 0.6623 0.4764 0.0
C849 C 0.61665 0.69198 0.5362 0.0
C850 C 0.66037 0.75202 0.46011 0.0
C851 C 0.7195 0.78196 0.57447 0.0
C852 C 0.71892 0.77555 0.60814 0.0
C853 C 0.69398 0.74764 0.61887 0.0
C854 C 0.68394 0.74335 0.6505 0.0
C855 C 0.70095 0.76611 0.67268 0.0
C856 C 0.72775 0.79374 0.66178 0.0
C857 C 0.73577 0.79865 0.62975 0.0
C858 C 0.58587 0.8129 0.50374 0.0
C859 C 0.5324 0.75572 0.58347 0.0
O860 O 0.50541 0.73745 0.46676 0.0
O861 O 0.47231 0.71806 0.50961 0.0
O862 O 0.63493 0.7139 0.51916 0.0
O863 O 0.56567 0.69761 0.54233 0.0
O864 O 0.60647 0.74621 0.46303 0.0
O865 O 0.6872 0.75851 0.48646 0.0
O866 O 0.72369 0.75707 0.55629 0.0
O867 O 0.68115 0.80145 0.56531 0.0
O868 O 0.56357 0.79372 0.52268 0.0
O869 O 0.6375 0.80635 0.50026 0.0
O870 O 0.58702 0.7539 0.58116 0.0
O871 O 0.50652 0.75729 0.55641 0.0
H872 H 0.41528 0.70195 0.42621 0.0
H873 H 0.43838 0.65726 0.39315 0.0
H874 H 0.54509 0.62043 0.46572 0.0
H875 H 0.51964 0.66461 0.49881 0.0
H876 H 0.67954 0.72966 0.60263 0.0
H877 H 0.65982 0.72283 0.6569 0.0
H878 H 0.74225 0.81178 0.67781 0.0
H879 H 0.7546 0.82053 0.62185 0.0
Sm880 Sm 0.25532 0.737 0.47032 0.0
Sm881 Sm 0.16034 0.75592 0.44404 0.0
C882 C 0.34246 0.71822 0.50242 0.0
C883 C 0.35028 0.68685 0.51663 0.0
C884 C 0.36938 0.68497 0.54736 0.0
C885 C 0.35312 0.65959 0.56602 0.0
C886 C 0.31611 0.63665 0.55412 0.0
C887 C 0.30717 0.63513 0.5218 0.0
C888 C 0.32453 0.66019 0.50302 0.0
C889 C 0.19407 0.68498 0.44939 0.0
C890 C 0.14534 0.74617 0.51957 0.0
C891 C 0.08175 0.76272 0.40239 0.0
C892 C 0.08688 0.76079 0.36793 0.0
C893 C 0.09778 0.73163 0.35297 0.0
C894 C 0.10717 0.73039 0.32078 0.0
C895 C 0.1072 0.75831 0.3029 0.0
C896 C 0.09397 0.78724 0.31767 0.0
C897 C 0.08401 0.78846 0.34982 0.0
C898 C 0.21029 0.80716 0.47225 0.0
C899 C 0.27061 0.75 0.39574 0.0
O900 O 0.30328 0.73536 0.51483 0.0
O901 O 0.34076 0.71854 0.47206 0.0
O902 O 0.17635 0.70808 0.46484 0.0
O903 O 0.24537 0.68932 0.44323 0.0
O904 O 0.20048 0.74575 0.51708 0.0
O905 O 0.11703 0.74701 0.4929 0.0
O906 O 0.08903 0.73631 0.4178 0.0
O907 O 0.10559 0.78704 0.4158 0.0
O908 O 0.23576 0.78722 0.45516 0.0
O909 O 0.15831 0.8003 0.47424 0.0
O910 O 0.21608 0.7491 0.39817 0.0
O911 O 0.29835 0.74975 0.42236 0.0
H912 H 0.39054 0.70487 0.55803 0.0
H913 H 0.36158 0.66118 0.59086 0.0
H914 H 0.27966 0.6174 0.51199 0.0
H915 H 0.31139 0.66046 0.47888 0.0
H916 H 0.09949 0.70971 0.36609 0.0
H917 H 0.11481 0.70752 0.31001 0.0
H918 H 0.09362 0.80924 0.30465 0.0
H919 H 0.07538 0.8112 0.36067 0.0
Sm920 Sm 0.55266 0.01323 0.46763 0.0
Sm921 Sm 0.6438 0.99223 0.44314 0.0
C922 C 0.46528 0.03143 0.49993 0.0
C923 C 0.45614 0.06016 0.51859 0.0
C924 C 0.43187 0.05785 0.54805 0.0
C925 C 0.43823 0.08252 0.56953 0.0
C926 C 0.46997 0.1096 0.56195 0.0
C927 C 0.48796 0.11333 0.53103 0.0
C928 C 0.48082 0.08879 0.50951 0.0
C929 C 0.61701 0.06448 0.44684 0.0
C930 C 0.66004 0.00389 0.518 0.0
C931 C 0.72209 0.97842 0.40327 0.0
C932 C 0.71784 0.9816 0.36908 0.0
C933 C 0.71109 0.01169 0.35539 0.0
C934 C 0.69977 0.01437 0.32361 0.0
C935 C 0.69177 0.9871 0.3053 0.0
C936 C 0.69965 0.95707 0.31872 0.0
C937 C 0.71345 0.95435 0.35026 0.0
C938 C 0.58986 0.9429 0.47216 0.0
C939 C 0.536 0.00107 0.39394 0.0
O940 O 0.502 0.01181 0.51103 0.0
O941 O 0.47063 0.03585 0.46998 0.0
O942 O 0.63382 0.04136 0.46255 0.0
O943 O 0.56546 0.06038 0.44054 0.0
O944 O 0.60528 0.00602 0.51502 0.0
O945 O 0.68847 0.00114 0.49162 0.0
O946 O 0.72214 0.00481 0.41945 0.0
O947 O 0.6904 0.95669 0.41537 0.0
O948 O 0.56693 0.96216 0.45351 0.0
O949 O 0.64125 0.94988 0.4763 0.0
O950 O 0.59021 0.00489 0.39704 0.0
O951 O 0.50925 0.9975 0.42052 0.0
H952 H 0.41266 0.0359 0.55548 0.0
H953 H 0.42434 0.07827 0.5932 0.0
H954 H 0.51321 0.13338 0.52444 0.0
H955 H 0.4994 0.09093 0.48675 0.0
H956 H 0.71403 0.03323 0.3692 0.0
H957 H 0.69485 0.03781 0.31368 0.0
H958 H 0.69378 0.93569 0.30501 0.0
H959 H 0.71811 0.93091 0.36028 0.0
Sm960 Sm 0.87871 0.50733 0.19461 0.0
Sm961 Sm 0.78412 0.48824 0.21978 0.0
C962 C 0.95722 0.52019 0.15428 0.0
C963 C 0.94943 0.52407 0.12009 0.0
C964 C 0.95125 0.4974 1.10042 0.0
C965 C 0.93501 0.49945 1.06928 0.0
C966 C 0.91215 0.52763 1.05746 0.0
C967 C 0.91216 0.55481 1.07671 0.0
C968 C 0.93138 0.55316 1.10755 0.0
C969 C 0.83291 0.55741 0.22656 0.0
C970 C 0.76953 0.50014 0.14502 0.0
C971 C 0.69538 0.47181 0.25237 0.0
C972 C 0.68338 0.44331 0.27109 0.0
C973 C 0.67141 0.44692 0.30288 0.0
C974 C 0.68265 0.4222 0.32353 0.0
C975 C 0.70728 0.39404 0.31245 0.0
C976 C 0.70723 0.38809 0.28018 0.0
C977 C 0.69586 0.41285 0.25947 0.0
C978 C 0.84452 0.43604 0.19796 0.0
C979 C 0.89294 0.49382 0.26963 0.0
O980 O 0.94927 0.49159 0.16529 0.0
O981 O 0.93485 0.542 0.17188 0.0
O982 O 0.80533 0.53964 0.20792 0.0
O983 O 0.88367 0.54838 0.22861 0.0
O984 O 0.82408 0.50011 0.1479 0.0
O985 O 0.74164 0.50035 0.17153 0.0
O986 O 0.73391 0.49041 0.2634 0.0
O987 O 0.69997 0.46757 0.22235 0.0
O988 O 0.8634 0.4587 0.21377 0.0
O989 O 0.79289 0.44077 0.19276 0.0
O990 O 0.83803 0.4938 0.26689 0.0
O991 O 0.92155 0.49495 0.24308 0.0
H992 H 0.9628 0.4744 1.1094 0.0
H993 H 0.93877 0.47843 1.05482 0.0
H994 H 0.89505 0.57702 1.06851 0.0
H995 H 0.9289 0.57424 0.12206 0.0
H996 H 0.66025 0.46993 0.3122 0.0
H997 H 0.6812 0.42734 0.34836 0.0
H998 H 0.72477 0.36629 0.27119 0.0
H999 H 0.70316 0.40911 0.23479 0.0
Sm1000 Sm 0.39597 0.74847 0.19103 0.0
Sm1001 Sm 0.49742 0.75165 0.22055 0.0
C1002 C 0.31855 0.75985 0.15022 0.0
C1003 C 0.32385 0.75691 0.11603 0.0
C1004 C 0.33195 0.78428 1.09796 0.0
C1005 C 0.34417 0.7817 1.06626 0.0
C1006 C 0.34833 0.75172 1.0521 0.0
C1007 C 0.33902 0.72434 1.06988 0.0
C1008 C 0.3267 0.72688 1.10159 0.0
C1009 C 0.42467 0.68907 0.21026 0.0
C1010 C 0.51036 0.75126 0.14352 0.0
C1011 C 0.58297 0.7362 0.25552 0.0
C1012 C 0.5905 0.71082 0.27902 0.0
C1013 C 0.60038 0.67912 0.26973 0.0
C1014 C 0.59897 0.65444 0.29146 0.0
C1015 C 0.58858 0.66118 0.32289 0.0
C1016 C 0.58137 0.69285 0.33249 0.0
C1017 C 0.58257 0.71746 0.31081 0.0
C1018 C 0.45501 0.81157 0.2078 0.0
C1019 C 0.3853 0.74972 0.26775 0.0
O1020 O 0.34795 0.78261 0.16282 0.0
O1021 O 0.31996 0.73342 0.16624 0.0
O1022 O 0.4581 0.70847 0.1976 0.0
O1023 O 0.37515 0.70057 0.21191 0.0
O1024 O 0.4558 0.74791 0.1458 0.0
O1025 O 0.53809 0.75419 0.17015 0.0
O1026 O 0.57628 0.72658 0.22677 0.0
O1027 O 0.54995 0.75965 0.26277 0.0
O1028 O 0.42965 0.78842 0.21923 0.0
O1029 O 0.50648 0.80413 0.20348 0.0
O1030 O 0.43859 0.74229 0.26486 0.0
O1031 O 0.35836 0.75696 0.24156 0.0
H1032 H 0.33014 0.80769 1.10851 0.0
H1033 H 0.35212 0.80312 1.05306 0.0
H1034 H 0.34223 0.701 1.05934 0.0
H1035 H 0.32084 0.7053 0.11487 0.0
H1036 H 0.60567 0.67291 0.24537 0.0
H1037 H 0.6039 0.63013 0.28359 0.0
H1038 H 0.57245 0.69846 0.35672 0.0
H1039 H 0.5751 0.74151 0.31881 0.0
Sm1040 Sm 0.88797 0.74277 0.2832 0.0
Sm1041 Sm 0.79069 0.75884 0.2557 0.0
C1042 C 0.96855 0.73577 0.32349 0.0
C1043 C 0.96337 0.73454 0.35786 0.0
C1044 C 0.95879 0.76273 0.37535 0.0
C1045 C 0.94839 0.76163 0.40733 0.0
C1046 C 0.93897 0.73248 0.42209 0.0
C1047 C 0.94404 0.70424 0.40487 0.0
C1048 C 0.9572 0.70522 0.37313 0.0
C1049 C 0.83977 0.68964 0.25663 0.0
C1050 C 0.77757 0.75222 0.33205 0.0
C1051 C 0.70366 0.75722 0.21873 0.0
C1052 C 0.68856 0.7323 0.19598 0.0
C1053 C 0.68493 0.70031 0.2051 0.0
C1054 C 0.68056 0.6762 0.18277 0.0
C1055 C 0.68325 0.68351 0.15086 0.0
C1056 C 0.68355 0.71563 0.14179 0.0
C1057 C 0.68614 0.73971 0.16422 0.0
C1058 C 0.84461 0.81331 0.27621 0.0
C1059 C 0.90146 0.75111 0.20744 0.0
O1060 O 0.95771 0.76306 0.31035 0.0
O1061 O 0.94717 0.71183 0.30827 0.0
O1062 O 0.81474 0.71008 0.27319 0.0
O1063 O 0.89124 0.69723 0.25388 0.0
O1064 O 0.83222 0.75073 0.32928 0.0
O1065 O 0.74913 0.75339 0.30561 0.0
O1066 O 0.70199 0.74922 0.24811 0.0
O1067 O 0.74775 0.77354 0.21199 0.0
O1068 O 0.8668 0.79012 0.26247 0.0
O1069 O 0.79193 0.80864 0.27872 0.0
O1070 O 0.84657 0.75062 0.20984 0.0
O1071 O 0.93 0.75097 0.23402 0.0
H1072 H 0.96309 0.78574 0.36439 0.0
H1073 H 0.94549 0.78371 0.42027 0.0
H1074 H 0.93685 0.68148 0.4158 0.0
H1075 H 0.96027 0.68308 0.3603 0.0
H1076 H 0.68949 0.69369 0.22936 0.0
H1077 H 0.68098 0.65172 0.19044 0.0
H1078 H 0.68759 0.72221 0.11745 0.0
H1079 H 0.69155 0.76398 0.15684 0.0
Sm1080 Sm 0.39324 0.5083 0.28995 0.0
Sm1081 Sm 0.49317 0.49879 0.26099 0.0
C1082 C 0.31056 0.50974 0.32933 0.0
C1083 C 0.31266 0.50909 0.36375 0.0
C1084 C 0.32857 0.48138 0.37968 0.0
C1085 C 0.3389 0.48237 0.41173 0.0
C1086 C 0.33396 0.51106 0.42812 0.0
C1087 C 0.31548 0.53834 0.41269 0.0
C1088 C 0.30461 0.53733 0.38073 0.0
C1089 C 0.42245 0.56162 0.25709 0.0
C1090 C 0.50635 0.50644 0.33733 0.0
C1091 C 0.58513 0.50495 0.22895 0.0
C1092 C 0.60384 0.5298 0.2075 0.0
C1093 C 0.60514 0.56206 0.21635 0.0
C1094 C 0.60866 0.58567 0.19354 0.0
C1095 C 0.61088 0.5772 0.16177 0.0
C1096 C 0.61536 0.54484 0.15364 0.0
C1097 C 0.61172 0.52155 0.17634 0.0
C1098 C 0.44854 0.44139 0.28163 0.0
C1099 C 0.3813 0.49891 0.21386 0.0
O1100 O 0.32517 0.48375 0.31468 0.0
O1101 O 0.33077 0.53538 0.31662 0.0
O1102 O 0.45582 0.54616 0.27434 0.0
O1103 O 0.37317 0.55009 0.25886 0.0
O1104 O 0.45165 0.50477 0.33552 0.0
O1105 O 0.53318 0.50705 0.31054 0.0
O1106 O 0.58063 0.51326 0.25817 0.0
O1107 O 0.54382 0.48751 0.21919 0.0
O1108 O 0.42311 0.46332 0.26817 0.0
O1109 O 0.50027 0.44871 0.28365 0.0
O1110 O 0.43543 0.50482 0.2156 0.0
O1111 O 0.35453 0.49485 0.24076 0.0
H1112 H 0.33501 0.45922 0.36731 0.0
H1113 H 0.35349 0.46118 0.4234 0.0
H1114 H 0.31146 0.56066 0.42518 0.0
H1115 H 0.29214 0.55895 0.36903 0.0
H1116 H 0.59903 0.56917 0.24046 0.0
H1117 H 0.60458 0.61032 0.20047 0.0
H1118 H 0.61496 0.53708 0.12949 0.0
H1119 H 0.60912 0.49697 0.16938 0.0
Sm1120 Sm 0.23798 0.5162 1.01599 0.0
Sm1121 Sm 0.1512 0.48739 1.03807 0.0
C1122 C 0.32427 0.5432 0.98919 0.0
C1123 C 0.35242 0.53964 0.95959 0.0
C1124 C 0.36004 0.50916 0.94712 0.0
C1125 C 0.36617 0.50553 0.91527 0.0
C1126 C 0.35758 0.53202 0.89604 0.0
C1127 C 0.36527 0.5625 0.90866 0.0
C1128 C 0.36143 0.56642 0.94093 0.0
C1129 C 0.17323 0.56064 1.04654 0.0
C1130 C 0.13345 0.50395 0.96408 0.0
C1131 C 0.07328 0.4653 1.07513 0.0
C1132 C 0.07197 0.46504 1.10954 0.0
C1133 C 0.08994 0.49173 0.12647 0.0
C1134 C 0.09298 0.49084 0.15894 0.0
C1135 C 0.07771 0.46336 0.17537 0.0
C1136 C 0.06003 0.43657 0.15839 0.0
C1137 C 0.05697 0.43744 0.12571 0.0
C1138 C 0.21098 0.44418 1.00292 0.0
C1139 C 0.25824 0.49847 1.08868 0.0
O1140 O 0.32771 0.5191 1.00813 0.0
O1141 O 0.27428 0.55433 0.98697 0.0
O1142 O 0.15587 0.54003 1.0275 0.0
O1143 O 0.22377 0.5546 1.0534 0.0
O1144 O 0.18831 0.50704 0.96716 0.0
O1145 O 0.10567 0.49937 0.99044 0.0
O1146 O 0.07046 0.49314 1.06181 0.0
O1147 O 0.11071 0.44715 1.06261 0.0
O1148 O 0.23167 0.46287 1.02312 0.0
O1149 O 0.15846 0.44882 1.00045 0.0
O1150 O 0.20449 0.4928 1.08562 0.0
O1151 O 0.28453 0.50587 1.06287 0.0
H1152 H 0.35566 0.48807 0.96135 0.0
H1153 H 0.36446 0.48155 0.90607 0.0
H1154 H 0.36234 0.58327 0.89388 0.0
H1155 H 0.35763 0.59013 0.9506 0.0
H1156 H 0.10303 0.51313 0.1146 0.0
H1157 H 0.10934 0.51141 0.17107 0.0
H1158 H 0.04935 0.41485 0.17033 0.0
H1159 H 0.04382 0.41643 1.11304 0.0
Sm1160 Sm 0.57588 0.22465 1.01991 0.0
Sm1161 Sm 0.6514 0.2567 1.03768 0.0
C1162 C 0.49301 0.18861 1.00073 0.0
C1163 C 0.44156 0.19726 0.98609 0.0
C1164 C 0.43231 0.23004 0.98335 0.0
C1165 C 0.42175 0.24241 0.95391 0.0
C1166 C 0.42287 0.2216 0.9283 0.0
C1167 C 0.4116 0.18923 0.93335 0.0
C1168 C 0.42222 0.1767 0.96281 0.0
C1169 C 0.65532 0.18406 1.04581 0.0
C1170 C 0.66862 0.24055 0.9641 0.0
C1171 C 0.72448 0.27923 1.07651 0.0
C1172 C 0.72118 0.27099 1.1098 0.0
C1173 C 0.71378 0.23901 0.11856 0.0
C1174 C 0.70082 0.23112 0.14923 0.0
C1175 C 0.69311 0.2551 0.17147 0.0
C1176 C 0.69955 0.28702 0.16268 0.0
C1177 C 0.71438 0.29492 0.13221 0.0
C1178 C 0.58963 0.29877 1.00287 0.0
C1179 C 0.5462 0.24809 1.08817 0.0
O1180 O 0.49874 0.19788 1.02948 0.0
O1181 O 0.5361 0.19518 0.98368 0.0
O1182 O 0.66323 0.20508 1.02581 0.0
O1183 O 0.60659 0.18812 1.05692 0.0
O1184 O 0.61516 0.23424 0.96866 0.0
O1185 O 0.69696 0.24761 0.98967 0.0
O1186 O 0.73574 0.25575 1.05759 0.0
O1187 O 0.68388 0.29671 1.06649 0.0
O1188 O 0.56909 0.27916 1.02238 0.0
O1189 O 0.6424 0.29514 1.00084 0.0
O1190 O 0.60077 0.24871 1.08606 0.0
O1191 O 0.52176 0.24434 1.06109 0.0
H1192 H 0.44467 0.24623 1.00184 0.0
H1193 H 0.42667 0.26777 0.95067 0.0
H1194 H 0.40897 0.17281 0.9139 0.0
H1195 H 0.42705 0.15124 0.96515 0.0
H1196 H 0.71713 0.21993 1.10161 0.0
H1197 H 0.69645 0.20634 0.15545 0.0
H1198 H 0.69079 0.30588 0.17911 0.0
H1199 H 0.71756 0.31971 0.12575 0.0
Sm1200 Sm 0.24142 0.24162 0.96053 0.0
Sm1201 Sm 0.16043 0.26954 0.93767 0.0
C1202 C 0.31402 0.21092 0.99466 0.0
C1203 C 0.30365 0.18181 1.01221 0.0
C1204 C 0.33013 0.17645 1.04069 0.0
C1205 C 0.30789 0.15459 1.06165 0.0
C1206 C 0.25862 0.13837 1.05425 0.0
C1207 C 0.23753 0.14035 1.02381 0.0
C1208 C 0.25978 0.1621 1.00301 0.0
C1209 C 0.17468 0.19562 0.93331 0.0
C1210 C 0.13486 0.25276 1.01088 0.0
C1211 C 0.0897 0.29194 0.89664 0.0
C1212 C 0.10195 0.29705 0.86306 0.0
C1213 C 0.09457 0.27199 0.84177 0.0
C1214 C 0.1166 0.27348 0.81183 0.0
C1215 C 0.14918 0.29943 0.8028 0.0
C1216 C 0.15412 0.32547 0.82325 0.0
C1217 C 0.13032 0.32441 0.85305 0.0
C1218 C 0.22026 0.31433 0.9706 0.0
C1219 C 0.27007 0.25816 0.88887 0.0
O1220 O 0.28911 0.23634 1.00496 0.0
O1221 O 0.31007 0.20786 0.96452 0.0
O1222 O 0.15813 0.21749 0.95123 0.0
O1223 O 0.22506 0.20103 0.92571 0.0
O1224 O 0.18809 0.24559 1.008 0.0
O1225 O 0.10976 0.26137 0.98459 0.0
O1226 O 0.08912 0.26237 0.90584 0.0
O1227 O 0.11581 0.31028 0.91631 0.0
O1228 O 0.24122 0.29484 0.95116 0.0
O1229 O 0.16833 0.30863 0.97437 0.0
O1230 O 0.21593 0.26284 0.8909 0.0
O1231 O 0.29498 0.25289 0.91582 0.0
H1232 H 0.36454 0.19119 1.04784 0.0
H1233 H 0.32505 0.15371 1.08502 0.0
H1234 H 0.1999 0.12808 1.01741 0.0
H1235 H 0.23915 0.1657 0.98094 0.0
H1236 H 0.0748 0.25022 0.8488 0.0
H1237 H 0.10974 0.25363 0.79613 0.0
H1238 H 0.1783 0.34605 0.81676 0.0
H1239 H 0.13707 0.3442 0.86884 0.0
Sm1240 Sm 0.544 0.50034 0.96704 0.0
Sm1241 Sm 0.63546 0.48088 0.94234 0.0
C1242 C 0.45926 0.51865 1.00156 0.0
C1243 C 0.45329 0.54653 1.02218 0.0
C1244 C 0.44259 0.54209 1.05399 0.0
C1245 C 0.45537 0.56612 1.07531 0.0
C1246 C 0.48001 0.59447 1.06494 0.0
C1247 C 0.4815 0.60091 1.03285 0.0
C1248 C 0.46818 0.57698 1.01152 0.0
C1249 C 0.60196 0.55322 0.94522 0.0
C1250 C 0.65262 0.49468 1.01709 0.0
C1251 C 0.71568 0.47053 0.90212 0.0
C1252 C 0.71077 0.47768 0.86864 0.0
C1253 C 0.67722 0.50309 0.8596 0.0
C1254 C 0.65947 0.50596 0.82893 0.0
C1255 C 0.67984 0.48576 0.80535 0.0
C1256 C 0.71691 0.46146 0.81427 0.0
C1257 C 0.73081 0.45686 0.84578 0.0
C1258 C 0.58564 0.42994 0.97175 0.0
C1259 C 0.52507 0.48745 0.89299 0.0
O1260 O 0.49379 0.49683 1.01082 0.0
O1261 O 0.46491 0.5249 0.97203 0.0
O1262 O 0.62221 0.53069 0.9607 0.0
O1263 O 0.5512 0.54694 0.93887 0.0
O1264 O 0.59784 0.49583 1.01433 0.0
O1265 O 0.6806 0.49137 0.99062 0.0
O1266 O 0.7149 0.49516 0.92074 0.0
O1267 O 0.68309 0.44797 0.9117 0.0
O1268 O 0.56079 0.44899 0.95354 0.0
O1269 O 0.63668 0.43818 0.97534 0.0
O1270 O 0.5796 0.48924 0.8959 0.0
O1271 O 0.49795 0.4867 0.91976 0.0
H1272 H 0.43014 0.51901 1.06263 0.0
H1273 H 0.45368 0.56062 1.10003 0.0
H1274 H 0.50011 0.62264 1.02438 0.0
H1275 H 0.47517 0.58137 0.98696 0.0
H1276 H 0.66121 0.51967 0.87674 0.0
H1277 H 0.62752 0.52319 0.82465 0.0
H1278 H 0.73485 0.44558 0.79717 0.0
H1279 H 0.75675 0.43701 0.85227 0.0
C1280 C 0.37405 0.84876 0.21267 0.0
C1281 C 0.42965 0.84376 0.20417 0.0
C1282 C 0.34913 0.87891 0.21037 0.0
C1283 C 0.37886 0.90552 0.19983 0.0
H1284 H 0.34953 0.82926 0.22152 0.0
H1285 H 0.30668 0.88153 0.21777 0.0
S1286 S 0.52289 0.90445 0.1709 0.0
N1287 N 0.51172 0.86753 0.182 0.0
N1288 N 0.46553 0.92412 0.17837 0.0
C1289 C 0.43384 0.90064 0.19042 0.0
C1290 C 0.45901 0.86984 0.19238 0.0
C1291 C 0.92775 0.40081 0.19164 0.0
C1292 C 0.8707 0.40413 0.19655 0.0
C1293 C 0.95286 0.37058 0.19097 0.0
C1294 C 0.92205 0.34266 0.19612 0.0
H1295 H 0.95297 0.42173 0.18825 0.0
H1296 H 0.99688 0.36909 0.18716 0.0
S1297 S 0.77233 0.33915 0.21261 0.0
N1298 N 0.78476 0.37719 0.20749 0.0
N1299 N 0.83172 0.3208 0.20759 0.0
C1300 C 0.86518 0.34589 0.20154 0.0
C1301 C 0.83961 0.37649 0.20142 0.0
C1302 C 0.36819 0.404 0.28603 0.0
C1303 C 0.42571 0.40859 0.2839 0.0
C1304 C 0.34465 0.3734 0.28537 0.0
C1305 C 0.37758 0.34615 0.28174 0.0
H1306 H 0.34098 0.42428 0.28779 0.0
H1307 H 0.3002 0.37119 0.28671 0.0
S1308 S 0.53055 0.34505 0.27557 0.0
N1309 N 0.51506 0.38305 0.27917 0.0
N1310 N 0.47112 0.32593 0.27645 0.0
C1311 C 0.43525 0.35043 0.28 0.0
C1312 C 0.45923 0.38151 0.28147 0.0
C1313 C 0.92842 0.84793 0.28396 0.0
C1314 C 0.87129 0.8452 0.27833 0.0
C1315 C 0.95508 0.87775 0.28427 0.0
C1316 C 0.92585 0.906 0.2783 0.0
H1317 H 0.95283 0.8268 0.28799 0.0
H1318 H 0.99908 0.87856 0.28852 0.0
S1319 S 0.7761 0.91163 0.26048 0.0
N1320 N 0.78672 0.87338 0.26614 0.0
N1321 N 0.83641 0.92894 0.2659 0.0
C1322 C 0.86865 0.90349 0.27265 0.0
C1323 C 0.8415 0.87326 0.27286 0.0
C1324 C 0.67127 0.09435 1.04736 0.0
C1325 C 0.72145 0.08887 1.0319 0.0
C1326 C 0.65213 0.12517 1.0536 0.0
C1327 C 0.68173 0.15211 1.04386 0.0
H1328 H 0.64618 0.07469 1.05459 0.0
H1329 H 0.61252 0.12778 1.065 0.0
S1330 S 0.81659 0.15093 1.00285 0.0
N1331 N 0.80187 0.11305 1.00811 0.0
N1332 N 0.76506 0.17118 1.01843 0.0
C1333 C 0.73286 0.14708 1.02894 0.0
C1334 C 0.75294 0.11549 1.02332 0.0
C1335 C 0.07795 0.63227 1.04506 0.0
C1336 C 0.11402 0.65751 1.03782 0.0
C1337 C 0.09734 0.60099 1.04832 0.0
C1338 C 0.15368 0.59398 1.04538 0.0
H1339 H 0.03412 0.63652 1.04745 0.0
H1340 H 0.06806 0.58216 1.05303 0.0
S1341 S 0.26512 0.65156 1.02664 0.0
N1342 N 0.20854 0.67329 1.02768 0.0
N1343 N 0.2454 0.61495 1.03466 0.0
C1344 C 0.1903 0.61915 1.03874 0.0
C1345 C 0.17037 0.6508 1.03477 0.0
C1346 C 0.70414 0.62274 0.94823 0.0
C1347 C 0.66968 0.64974 0.94785 0.0
C1348 C 0.68208 0.59165 0.94754 0.0
C1349 C 0.62489 0.58627 0.94524 0.0
H1350 H 0.74844 0.62559 0.94983 0.0
H1351 H 0.70991 0.57163 0.94883 0.0
S1352 S 0.51697 0.6487 0.94428 0.0
N1353 N 0.57534 0.66874 0.94649 0.0
N1354 N 0.53442 0.61088 0.94301 0.0
C1355 C 0.59021 0.6131 0.94451 0.0
C1356 C 0.61246 0.64461 0.94636 0.0
C1357 C 0.09787 0.15685 0.94359 0.0
C1358 C 0.15233 0.16259 0.93397 0.0
C1359 C 0.07793 0.1257 0.94744 0.0
C1360 C 0.1122 0.09905 0.94275 0.0
H1361 H 0.07063 0.1766 0.94837 0.0
H1362 H 0.03562 0.12256 0.95482 0.0
S1363 S 0.25702 0.1008 0.91569 0.0
N1364 N 0.23922 0.13854 0.91787 0.0
N1365 N 0.20234 0.08042 0.92681 0.0
C1366 C 0.16643 0.10438 0.93283 0.0
C1367 C 0.18627 0.136 0.92791 0.0
C1368 C 0.37981 0.34846 0.69771 0.0
C1369 C 0.42251 0.33769 0.67814 0.0
C1370 C 0.36135 0.37985 0.69632 0.0
C1371 C 0.38451 0.40144 0.67514 0.0
H1372 H 0.36179 0.3329 0.71506 0.0
H1373 H 0.32967 0.38754 0.71251 0.0
S1374 S 0.48983 0.38351 0.61507 0.0
N1375 N 0.48269 0.34992 0.63446 0.0
N1376 N 0.44726 0.40916 0.63166 0.0
C1377 C 0.4247 0.3906 0.65415 0.0
C1378 C 0.44384 0.35858 0.65566 0.0
C1379 C 0.93731 0.90238 0.69293 0.0
C1380 C 0.88509 0.90748 0.7063 0.0
C1381 C 0.9604 0.8716 0.69146 0.0
C1382 C 0.93119 0.84488 0.70247 0.0
H1383 H 0.9614 0.92241 0.6849 0.0
H1384 H 1.00173 0.86884 0.6823 0.0
S1385 S 0.78869 0.84542 0.73411 0.0
N1386 N 0.80262 0.88315 0.72747 0.0
N1387 N 0.84419 0.82563 0.72345 0.0
C1388 C 0.87721 0.8497 0.71363 0.0
C1389 C 0.85459 0.8809 0.71584 0.0
C1390 C 0.37657 0.89874 0.78242 0.0
C1391 C 0.4332 0.90172 0.77547 0.0
C1392 C 0.3499 0.86893 0.7826 0.0
C1393 C 0.37842 0.84085 0.77502 0.0
H1394 H 0.35236 0.91965 0.78758 0.0
H1395 H 0.30636 0.86802 0.7881 0.0
S1396 S 0.52587 0.83615 0.75152 0.0
N1397 N 0.51607 0.87414 0.75921 0.0
N1398 N 0.4664 0.8185 0.75856 0.0
C1399 C 0.43501 0.84363 0.76754 0.0
C1400 C 0.46224 0.8739 0.76797 0.0
C1401 C 0.85663 0.37159 0.79329 0.0
C1402 C 0.89079 0.34476 0.78931 0.0
C1403 C 0.87781 0.40266 0.79138 0.0
C1404 C 0.93424 0.40824 0.7861 0.0
H1405 H 0.81275 0.36867 0.797 0.0
H1406 H 0.84966 0.42247 0.79382 0.0
S1407 S 0.04121 0.34625 0.77524 0.0
N1408 N 0.98381 0.32593 0.78041 0.0
N1409 N 0.02409 0.38409 0.7777 0.0
C1410 C 0.96909 0.38162 0.78308 0.0
C1411 C 0.94727 0.35 0.78444 0.0
C1412 C 0.71932 0.62266 0.53101 0.0
C1413 C 0.6854 0.59578 0.53527 0.0
C1414 C 0.69735 0.65379 0.53209 0.0
C1415 C 0.64102 0.65932 0.53808 0.0
H1416 H 0.76266 0.61964 0.52576 0.0
H1417 H 0.72452 0.67367 0.52802 0.0
S1418 S 0.53652 0.59725 0.55449 0.0
N1419 N 0.59349 0.57715 0.54751 0.0
N1420 N 0.55325 0.635 0.55123 0.0
C1421 C 0.60766 0.63266 0.54411 0.0
C1422 C 0.62956 0.60115 0.54218 0.0
C1423 C 0.19917 0.11403 0.51592 0.0
C1424 C 0.18113 0.09117 0.53745 0.0
C1425 C 0.17997 0.14548 0.51728 0.0
C1426 C 0.14197 0.15519 0.54026 0.0
H1427 H 0.22759 0.1074 0.49758 0.0
H1428 H 0.19357 0.16199 0.49957 0.0
S1429 S 0.08777 0.10518 0.60443 0.0
N1430 N 0.12707 0.08078 0.58393 0.0
N1431 N 0.09064 0.13987 0.58655 0.0
C1432 C 0.1251 0.13271 0.56255 0.0
C1433 C 0.14477 0.10069 0.56114 0.0
C1434 C 0.72884 0.12902 0.44998 0.0
C1435 C 0.69801 0.15699 0.45468 0.0
C1436 C 0.70259 0.09909 0.44708 0.0
C1437 C 0.64454 0.09623 0.44726 0.0
H1438 H 0.77342 0.13012 0.4494 0.0
H1439 H 0.72789 0.07802 0.44466 0.0
S1440 S 0.54471 0.16198 0.45826 0.0
N1441 N 0.60574 0.17895 0.46115 0.0
N1442 N 0.55751 0.12427 0.4509 0.0
C1443 C 0.61352 0.12413 0.45063 0.0
C1444 C 0.63995 0.15403 0.45562 0.0
C1445 C 0.19579 0.62565 0.44231 0.0
C1446 C 0.1657 0.65374 0.44774 0.0
C1447 C 0.16992 0.59572 0.44281 0.0
C1448 C 0.11283 0.59286 0.44796 0.0
H1449 H 0.23987 0.62669 0.4384 0.0
H1450 H 0.19477 0.57467 0.43913 0.0
S1451 S 1.01587 0.659 0.46414 0.0
N1452 N 0.07603 0.67658 0.45925 0.0
N1453 N 0.0273 0.6207 0.45905 0.0
C1454 C 0.08226 0.62078 0.45299 0.0
C1455 C 0.10872 0.65111 0.45318 0.0
C1456 C 0.26092 0.11041 0.34055 0.0
C1457 C 0.20868 0.09684 0.34569 0.0
C1458 C 0.29543 0.11822 0.36564 0.0
C1459 C 0.27891 0.11153 0.39635 0.0
H1460 H 0.27904 0.10979 0.31756 0.0
H1461 H 0.33827 0.12356 0.36075 0.0
S1462 S 0.13811 0.08897 0.42179 0.0
N1463 N 0.13579 0.08725 0.38322 0.0
N1464 N 0.20093 0.10118 0.43069 0.0
C1465 C 0.22263 0.10518 0.40169 0.0
C1466 C 0.18738 0.09754 0.3761 0.0
C1467 C 0.07016 0.31664 0.40365 0.0
C1468 C 1.01405 0.31928 0.39619 0.0
C1469 C 0.11075 0.32664 0.38283 0.0
C1470 C 0.0959 0.33596 0.35247 0.0
H1471 H 0.08264 0.30323 0.42401 0.0
H1472 H 0.15328 0.32082 0.38813 0.0
S1473 S 0.95408 0.35107 0.32373 0.0
N1474 N 0.94536 0.33737 0.35947 0.0
N1475 N 1.02125 0.35324 0.31836 0.0
C1476 C 0.03991 0.34289 0.34649 0.0
C1477 C 0.99873 0.33412 0.36849 0.0
C1478 C 0.17095 0.14721 1.08168 0.0
C1479 C 0.22099 0.13032 1.08007 0.0
C1480 C 0.14788 0.15497 1.11054 0.0
C1481 C 0.17603 0.14765 0.1382 0.0
H1482 H 0.15327 0.15806 1.06105 0.0
H1483 H 0.11337 0.1712 1.11104 0.0
S1484 S 0.29217 0.09151 0.14594 0.0
N1485 N 0.28526 0.09654 1.10787 0.0
N1486 N 0.24364 0.11325 0.16263 0.0
C1487 C 0.21816 0.12493 0.13684 0.0
C1488 C 0.24083 0.11609 1.10741 0.0
C1489 C 0.02405 0.11348 0.13137 0.0
C1490 C 0.06814 0.09292 0.12447 0.0
C1491 C 0.99126 0.1262 1.10748 0.0
C1492 C 1.00195 0.11864 1.07604 0.0
H1493 H 1.01093 0.11672 0.15524 0.0
H1494 H 0.95309 0.13794 1.11375 0.0
S1495 S 0.12655 0.07752 1.04602 0.0
N1496 N 0.13025 0.07351 1.08433 0.0
N1497 N 0.07066 0.09865 1.03936 0.0
C1498 C 0.05275 0.10393 1.06902 0.0
C1499 C 0.08495 0.09019 1.09327 0.0
C1500 C 0.7587 0.87533 0.89459 0.0
C1501 C 0.81608 0.87685 0.88969 0.0
C1502 C 0.72193 0.8764 0.86942 0.0
C1503 C 0.74178 0.87892 0.83875 0.0
H1504 H 0.74193 0.87888 0.91769 0.0
H1505 H 0.67866 0.88051 0.87425 0.0
S1506 S 0.88704 0.87031 0.81342 0.0
N1507 N 0.89006 0.87031 0.85202 0.0
N1508 N 0.82096 0.87314 0.80447 0.0
C1509 C 0.79814 0.87335 0.83345 0.0
C1510 C 0.83556 0.87208 0.85913 0.0
C1511 C 0.07446 0.63925 0.90536 0.0
C1512 C 1.01991 0.62849 0.90061 0.0
C1513 C 0.1054 0.65095 0.88035 0.0
C1514 C 0.083 0.65139 0.8501 0.0
H1515 H 0.08989 0.64388 0.92871 0.0
H1516 H 0.14361 0.66336 0.88531 0.0
S1517 S 0.95176 0.61381 0.82487 0.0
N1518 N 0.9536 0.60856 0.86304 0.0
N1519 N 1.00949 0.63254 0.81604 0.0
C1520 C 0.03389 0.63445 0.84452 0.0
C1521 C 1.00329 0.62182 0.86994 0.0
C1522 C 0.78333 0.62928 1.11198 0.0
C1523 C 0.77246 0.63629 1.08055 0.0
C1524 C 0.74893 0.64115 0.13544 0.0
C1525 C 0.70176 0.65916 0.12811 0.0
H1526 H 0.82315 0.61977 0.11864 0.0
H1527 H 0.76405 0.64031 0.15906 0.0
S1528 S 0.64261 0.67039 1.0492 0.0
N1529 N 0.70249 0.65296 1.04305 0.0
N1530 N 0.6368 0.67396 1.08752 0.0
C1531 C 0.68459 0.66008 1.09687 0.0
C1532 C 0.71997 0.64849 1.07292 0.0
C1533 C 0.32136 0.50048 0.8522 0.0
C1534 C 0.31586 0.52715 0.87159 0.0
C1535 C 0.27583 0.48723 0.83759 0.0
C1536 C 0.22307 0.50047 0.84138 0.0
H1537 H 0.36035 0.4882 0.85035 0.0
H1538 H 0.28225 0.46669 0.82269 0.0
S1539 S 0.18639 0.57254 0.88614 0.0
N1540 N 0.25313 0.56775 0.89217 0.0
N1541 N 0.16793 0.54337 0.86249 0.0
C1542 C 0.21703 0.52827 0.85885 0.0
C1543 C 0.26338 0.54165 0.8743 0.0
C1544 C 0.22021 0.64001 0.57157 0.0
C1545 C 0.27226 0.62584 0.57548 0.0
C1546 C 0.1898 0.65004 0.5975 0.0
C1547 C 0.21106 0.64656 0.62792 0.0
H1548 H 0.20676 0.64789 0.5487 0.0
H1549 H 0.15326 0.66426 0.59346 0.0
S1550 S 0.33237 0.59734 0.64911 0.0
N1551 N 0.33307 0.59816 0.61065 0.0
N1552 N 0.27793 0.61806 0.66011 0.0
C1553 C 0.25655 0.62601 0.63187 0.0
C1554 C 0.28658 0.61518 0.60525 0.0
C1555 C 0.98716 0.6246 0.61326 0.0
C1556 C 0.99703 0.61605 0.58199 0.0
C1557 C 0.02551 0.61682 0.63652 0.0
C1558 C 0.07382 0.59999 0.62887 0.0
H1559 H 0.94646 0.63238 0.62031 0.0
H1560 H 1.01308 0.61933 0.66071 0.0
S1561 S 0.12654 0.58302 0.54947 0.0
N1562 N 0.06576 0.59958 0.54377 0.0
N1563 N 0.13575 0.5828 0.58773 0.0
C1564 C 0.08868 0.59736 0.59735 0.0
C1565 C 0.05069 0.60634 0.57368 0.0
C1566 C 0.74043 0.37292 0.36316 0.0
C1567 C 0.75214 0.38094 0.33199 0.0
C1568 C 0.77684 0.38175 0.38718 0.0
C1569 C 0.82482 0.39919 0.38035 0.0
H1570 H 0.69951 0.36484 0.36944 0.0
H1571 H 0.76263 0.37999 0.41112 0.0
S1572 S 0.88115 0.41656 0.30208 0.0
N1573 N 0.82221 0.39832 0.2952 0.0
N1574 N 0.88813 0.41721 0.3405 0.0
C1575 C 0.8418 0.40136 0.34921 0.0
C1576 C 0.80587 0.39134 0.3248 0.0
C1577 C 0.83213 0.37116 0.62466 0.0
C1578 C 0.80174 0.36658 0.59714 0.0
C1579 C 0.80554 0.38143 0.65188 0.0
C1580 C 0.74773 0.38552 0.65205 0.0
H1581 H 0.87387 0.36218 0.62647 0.0
H1582 H 0.82835 0.37953 0.67358 0.0
S1583 S 0.65865 0.39277 0.58231 0.0
N1584 N 0.71785 0.3791 0.56875 0.0
N1585 N 0.66788 0.39842 0.62023 0.0
C1586 C 0.72165 0.38987 0.62306 0.0
C1587 C 0.74851 0.37944 0.59534 0.0
C1588 C 0.45798 0.25781 0.8872 0.0
C1589 C 0.46372 0.22975 0.90435 0.0
C1590 C 0.49978 0.26776 0.86718 0.0
C1591 C 0.54945 0.25057 0.86459 0.0
H1592 H 0.42069 0.27184 0.88903 0.0
H1593 H 0.49207 0.28838 0.85276 0.0
S1594 S 0.58789 0.17784 0.90782 0.0
N1595 N 0.52438 0.18588 0.91896 0.0
N1596 N 0.60417 0.20614 0.88299 0.0
C1597 C 0.55692 0.22353 0.88298 0.0
C1598 C 0.51376 0.21271 0.90242 0.0
C1599 C 0.58382 0.11637 0.6159 0.0
C1600 C 0.55349 0.11075 0.6432 0.0
C1601 C 0.55645 0.12465 0.58826 0.0
C1602 C 0.49838 0.12677 0.58771 0.0
H1603 H 0.6265 0.10893 0.61445 0.0
H1604 H 0.57963 0.12309 0.56668 0.0
S1605 S 0.40614 0.12946 0.65611 0.0
N1606 N 0.46666 0.11875 0.67024 0.0
N1607 N 0.41618 0.13618 0.61852 0.0
C1608 C 0.47117 0.13037 0.61637 0.0
C1609 C 0.49856 0.12129 0.64433 0.0
C1610 C 0.60893 0.63618 0.37361 0.0
C1611 C 0.57828 0.63586 0.3458 0.0
C1612 C 0.58428 0.62721 0.40174 0.0
C1613 C 0.52791 0.61892 0.40244 0.0
H1614 H 0.64871 0.64791 0.37443 0.0
H1615 H 0.6063 0.63291 0.42308 0.0
S1616 S 0.44003 0.60016 0.33441 0.0
N1617 N 0.49611 0.61635 0.31945 0.0
N1618 N 0.45108 0.59805 0.37245 0.0
C1619 C 0.50294 0.61021 0.37412 0.0
C1620 C 0.52746 0.61985 0.3455 0.0
C1621 C 0.54095 0.61442 0.14137 0.0
C1622 C 0.59254 0.59955 0.13724 0.0
C1623 C 0.50542 0.61873 0.11589 0.0
C1624 C 0.52137 0.60898 1.08583 0.0
H1625 H 0.5241 0.61779 0.16459 0.0
H1626 H 0.46292 0.62518 0.12041 0.0
S1627 S 0.65854 0.57893 1.06199 0.0
N1628 N 0.66297 0.5833 1.10028 0.0
N1629 N 0.59649 0.59155 1.05238 0.0
C1630 C 0.57677 0.60056 1.08081 0.0
C1631 C 0.61262 0.59594 1.10668 0.0
C1632 C 0.44297 0.99379 0.99822 0.0
C1633 C 0.4244 0.01717 1.01916 0.0
C1634 C 0.42121 0.99153 0.96807 0.0
C1635 C 0.37985 0.01249 0.95781 0.0
H1636 H 0.47432 0.97695 1.00531 0.0
H1637 H 0.43737 0.9734 0.95257 0.0
S1638 S 0.31865 0.07859 1.00349 0.0
N1639 N 0.36375 0.06234 1.02752 0.0
N1640 N 0.32189 0.05771 0.97084 0.0
C1641 C 0.36171 0.0364 0.97836 0.0
C1642 C 0.38427 0.03887 1.00903 0.0
C1643 C 0.93399 0.20581 1.0124 0.0
C1644 C 0.88883 0.22483 1.02112 0.0
C1645 C 0.95488 0.20646 0.98188 0.0
C1646 C 0.93189 0.22647 0.95906 0.0
H1647 H 0.95395 0.19069 1.02942 0.0
H1648 H 0.98963 0.19142 0.97626 0.0
S1649 S 0.8121 0.2803 0.96976 0.0
N1650 N 0.82065 0.26345 1.00418 0.0
N1651 N 0.86041 0.26515 0.94712 0.0
C1652 C 0.88665 0.24558 0.96751 0.0
C1653 C 0.86502 0.24464 0.99842 0.0
C1654 C 0.44132 0.25411 0.48229 0.0
C1655 C 0.41583 0.23745 0.45783 0.0
C1656 C 0.41903 0.25389 0.51228 0.0
C1657 C 0.37067 0.23666 0.51912 0.0
H1658 H 0.47942 0.26695 0.47837 0.0
H1659 H 0.44174 0.26611 0.53053 0.0
S1660 S 0.28489 0.19218 0.4619 0.0
N1661 N 0.3375 0.20543 0.4413 0.0
N1662 N 0.29525 0.20495 0.49797 0.0
C1663 C 0.34372 0.22074 0.49449 0.0
C1664 C 0.36652 0.22102 0.46383 0.0
C1665 C 0.87047 0.0303 0.48208 0.0
C1666 C 0.89352 0.00864 0.46063 0.0
C1667 C 0.88909 0.03185 0.51302 0.0
C1668 C 0.93086 0.01154 0.52372 0.0
H1669 H 0.83728 0.04593 0.47505 0.0
H1670 H 0.8699 0.04863 0.52889 0.0
S1671 S 1.0063 0.95139 0.47722 0.0
N1672 N 0.96228 0.96727 0.45229 0.0
N1673 N 0.99554 0.96959 0.51092 0.0
C1674 C 0.95432 0.98978 0.50277 0.0
C1675 C 0.93601 0.98845 0.47111 0.0
C1676 C 0.67932 0.01465 0.22139 0.0
C1677 C 0.63312 0.99771 0.21054 0.0
C1678 C 0.69859 0.01081 0.25202 0.0
C1679 C 0.67186 0.99016 0.27284 0.0
H1680 H 0.70173 0.03023 0.20583 0.0
H1681 H 0.73506 0.02374 0.25933 0.0
S1682 S 0.54358 0.94471 0.25744 0.0
N1683 N 0.55736 0.9625 0.22401 0.0
N1684 N 0.59337 0.95538 0.28167 0.0
C1685 C 0.62409 0.97426 0.26273 0.0
C1686 C 0.60459 0.97813 0.23159 0.0
C1687 C 0.11344 0.77932 0.21656 0.0
C1688 C 0.15989 0.76251 0.20594 0.0
C1689 C 0.09562 0.77698 0.24761 0.0
C1690 C 0.12375 0.75786 0.26935 0.0
H1691 H 0.0903 0.7942 0.20064 0.0
H1692 H 0.05954 0.79035 0.25463 0.0
S1693 S 0.24781 0.70877 0.25297 0.0
N1694 N 0.23328 0.72576 0.21924 0.0
N1695 N 0.20063 0.72161 0.27773 0.0
C1696 C 0.16983 0.74045 0.25879 0.0
C1697 C 0.18776 0.74277 0.22711 0.0
C1698 C 0.65463 0.78615 0.75537 0.0
C1699 C 0.64346 0.75627 0.76883 0.0
C1700 C 0.67363 0.78904 0.72471 0.0
C1701 C 0.6865 0.76222 0.70646 0.0
H1702 H 0.64841 0.80795 0.76832 0.0
H1703 H 0.67689 0.81274 0.71523 0.0
S1704 S 0.67405 0.67808 0.73164 0.0
N1705 N 0.64765 0.69885 0.76069 0.0
N1706 N 0.69532 0.70457 0.70611 0.0
C1707 C 0.68046 0.73213 0.72046 0.0
C1708 C 0.6564 0.72907 0.7508 0.0
C1709 C 0.19583 0.97224 0.74892 0.0
C1710 C 0.16345 0.95896 0.77268 0.0
C1711 C 0.17792 0.97183 0.71786 0.0
C1712 C 0.12635 0.95905 0.70948 0.0
H1713 H 0.23466 0.98369 0.75453 0.0
H1714 H 0.20411 0.98224 0.70024 0.0
S1715 S 0.02903 0.91814 0.7627 0.0
N1716 N 0.08026 0.92961 0.78564 0.0
N1717 N 0.04545 0.93016 0.72717 0.0
C1718 C 0.09504 0.94401 0.73277 0.0
C1719 C 0.11384 0.94379 0.76444 0.0
C1720 C 0.35037 0.49747 0.51485 0.0
C1721 C 0.39669 0.51633 0.52206 0.0
C1722 C 0.32951 0.49602 0.48434 0.0
C1723 C 0.35451 0.51337 0.46029 0.0
H1724 H 0.32978 0.48405 0.53296 0.0
H1725 H 0.2936 0.48146 0.47954 0.0
S1726 S 0.48113 0.56189 0.46597 0.0
N1727 N 0.47021 0.5496 0.50198 0.0
N1728 N 0.43018 0.54743 0.44467 0.0
C1729 C 0.4016 0.53145 0.46693 0.0
C1730 C 0.42299 0.53276 0.49784 0.0
C1731 C 0.93165 0.75077 0.50854 0.0
C1732 C 0.88119 0.73693 0.51748 0.0
C1733 C 0.95097 0.74837 0.47783 0.0
C1734 C 0.92049 0.73209 0.45492 0.0
H1735 H 0.95689 0.76325 0.52552 0.0
H1736 H 0.98992 0.75943 0.47191 0.0
S1737 S 0.78419 0.69378 0.46533 0.0
N1738 N 0.79992 0.70788 0.5003 0.0
N1739 N 0.83665 0.70304 0.44255 0.0
C1740 C 0.87004 0.7182 0.46335 0.0
C1741 C 0.85022 0.72076 0.49462 0.0
C1742 C 0.43159 0.72894 0.98097 0.0
C1743 C 0.40679 0.74689 0.95713 0.0
C1744 C 0.41126 0.72991 1.01152 0.0
C1745 C 0.36587 0.74906 1.01926 0.0
H1746 H 0.46748 0.71446 0.9761 0.0
H1747 H 0.43197 0.71617 1.02937 0.0
S1748 S 0.28297 0.79809 0.965 0.0
N1749 N 0.33171 0.78244 0.9429 0.0
N1750 N 0.29435 0.78463 1.00063 0.0
C1751 C 0.33983 0.76649 0.9956 0.0
C1752 C 0.36019 0.76537 0.96446 0.0
C1753 C 0.87147 0.55482 0.97563 0.0
C1754 C 0.84687 0.52746 0.96283 0.0
C1755 C 0.89188 0.55497 1.00635 0.0
C1756 C 0.88664 0.5281 1.0257 0.0
H1757 H 0.87795 0.57564 0.9613 0.0
H1758 H 0.91373 0.57587 1.01445 0.0
S1759 S 0.80991 0.45417 1.00573 0.0
N1760 N 0.8087 0.4753 0.97334 0.0
N1761 N 0.84433 0.47583 1.03138 0.0
C1762 C 0.85679 0.50183 1.01398 0.0
C1763 C 0.83713 0.50156 0.9826 0.0
C1764 C 0.65661 0.46152 0.75301 0.0
C1765 C 0.65966 0.48868 0.77226 0.0
C1766 C 0.63562 0.46296 0.72262 0.0
C1767 C 0.6132 0.49118 0.71034 0.0
H1768 H 0.67002 0.43855 0.76128 0.0
H1769 H 0.63772 0.4415 0.70869 0.0
S1770 S 0.60976 0.56945 0.75087 0.0
N1771 N 0.64309 0.54587 0.77502 0.0
N1772 N 0.59191 0.54671 0.72112 0.0
C1773 C 0.61399 0.51837 0.72968 0.0
C1774 C 0.63987 0.51758 0.75971 0.0
C1775 C 0.17703 0.32526 0.75232 0.0
C1776 C 0.17801 0.29869 0.77218 0.0
C1777 C 0.19592 0.32309 0.72143 0.0
C1778 C 0.21746 0.29446 0.70959 0.0
H1779 H 0.15882 0.34738 0.76003 0.0
H1780 H 0.19045 0.34338 0.70625 0.0
S1781 S 0.24285 0.22075 0.75472 0.0
N1782 N 0.21148 0.24473 0.77955 0.0
N1783 N 0.24837 0.24099 0.72191 0.0
C1784 C 0.22417 0.26886 0.73027 0.0
C1785 C 0.20413 0.27088 0.76146 0.0
C1786 C 0.70543 0.26199 0.22858 0.0
C1787 C 0.6771 0.24742 0.2038 0.0
C1788 C 0.68676 0.2593 0.25921 0.0
C1789 C 0.6395 0.24141 0.26623 0.0
H1790 H 0.74224 0.27568 0.22419 0.0
H1791 H 0.70974 0.27121 0.27758 0.0
S1792 S 0.55549 0.19434 0.21032 0.0
N1793 N 0.60322 0.21134 0.18852 0.0
N1794 N 0.56744 0.20646 0.24645 0.0
C1795 C 0.61263 0.22499 0.24195 0.0
C1796 C 0.63179 0.22779 0.21062 0.0
C1797 C 0.11236 0.43624 0.22368 0.0
C1798 C 0.08542 0.46222 0.20983 0.0
C1799 C 0.13141 0.4378 0.25461 0.0
C1800 C 0.1229 0.46508 0.27313 0.0
H1801 H 0.1224 0.41539 0.20994 0.0
H1802 H 0.15518 0.41802 0.26346 0.0
S1803 S 0.04056 0.53582 0.25028 0.0
N1804 N 0.04189 0.5134 0.21859 0.0
N1805 N 0.07619 0.51623 0.27683 0.0
C1806 C 0.09117 0.48995 0.26036 0.0
C1807 C 0.07236 0.48842 0.22882 0.0
C1808 C 0.31641 0.13982 0.25977 0.0
C1809 C 0.35238 0.16125 0.24508 0.0
C1810 C 0.31354 0.10776 0.24998 0.0
C1811 C 0.34495 0.09666 0.22458 0.0
H1812 H 0.29386 0.14733 0.28029 0.0
H1813 H 0.29025 0.09106 0.26375 0.0
S1814 S 0.43647 0.14518 0.17439 0.0
N1815 N 0.41367 0.17029 0.20112 0.0
N1816 N 0.40764 0.1107 0.18266 0.0
C1817 C 0.3768 0.11876 0.20799 0.0
C1818 C 0.38037 0.15097 0.21813 0.0
C1819 C 1.00308 0.11116 0.25884 0.0
C1820 C 0.96714 0.08957 0.24394 0.0
C1821 C 1.008 0.14283 0.24814 0.0
C1822 C 0.97792 0.15356 0.22197 0.0
H1823 H 0.02377 0.10443 0.28027 0.0
H1824 H 0.03184 0.1596 0.26188 0.0
S1825 S 0.88519 0.10485 0.17222 0.0
N1826 N 0.90686 0.08013 0.19946 0.0
N1827 N 0.91536 0.13915 0.18 0.0
C1828 C 0.94575 0.13133 0.20558 0.0
C1829 C 0.94076 0.09943 0.21632 0.0
C1830 C 0.66865 0.86332 0.96243 0.0
C1831 C 0.70368 0.8407 0.97599 0.0
C1832 C 0.66753 0.89469 0.97316 0.0
C1833 C 0.70051 0.90468 0.99841 0.0
H1834 H 0.64021 0.85639 0.94406 0.0
H1835 H 0.63872 0.91096 0.96232 0.0
S1836 S 0.79993 0.85464 1.04193 0.0
N1837 N 0.77346 0.83038 1.01538 0.0
N1838 N 0.77046 0.88956 1.03629 0.0
C1839 C 0.73735 0.88265 1.01156 0.0
C1840 C 0.73899 0.85054 1.00024 0.0
C1841 C 0.08726 0.86796 1.01944 0.0
C1842 C 0.06309 0.84582 0.99899 0.0
C1843 C 0.08851 0.90037 1.01218 0.0
C1844 C 0.06549 0.91201 0.98425 0.0
H1845 H 0.10895 0.85989 1.04011 0.0
H1846 H 0.11104 0.9162 1.02763 0.0
S1847 S 0.99176 0.86415 0.9245 0.0
N1848 N 1.0115 0.83787 0.95089 0.0
N1849 N 1.01301 0.89914 0.93744 0.0
C1850 C 0.03709 0.89052 0.9648 0.0
C1851 C 0.03631 0.85726 0.97209 0.0
C1852 C 0.37634 0.63774 0.7272 0.0
C1853 C 0.33841 0.65243 0.74736 0.0
C1854 C 0.37326 0.60549 0.72011 0.0
C1855 C 0.33083 0.58601 0.73167 0.0
H1856 H 0.41078 0.65099 0.71772 0.0
H1857 H 0.40595 0.59548 0.70594 0.0
S1858 S 0.21857 0.61246 0.78423 0.0
N1859 N 0.25519 0.64507 0.77831 0.0
N1860 N 0.2484 0.58395 0.76367 0.0
C1861 C 0.29047 0.60043 0.75058 0.0
C1862 C 0.29425 0.63374 0.75854 0.0
C1863 C 0.99641 0.64227 0.73845 0.0
C1864 C 0.957 0.65467 0.71769 0.0
C1865 C 0.99422 0.61016 0.74782 0.0
C1866 C 0.95082 0.59044 0.73782 0.0
H1867 H 0.02591 0.65793 0.74937 0.0
H1868 H 0.02353 0.60155 0.76487 0.0
S1869 S 0.85042 0.6088 0.67487 0.0
N1870 N 0.88361 0.64251 0.68093 0.0
N1871 N 0.87795 0.58304 0.69933 0.0
C1872 C 0.91673 0.60143 0.71355 0.0
C1873 C 0.91986 0.63353 0.70351 0.0
C1874 C 0.64073 0.36166 0.47046 0.0
C1875 C 0.68987 0.34404 0.46929 0.0
C1876 C 0.63939 0.39277 0.48157 0.0
C1877 C 0.68702 0.40833 0.49259 0.0
H1878 H 0.60196 0.35121 0.46312 0.0
H1879 H 0.5996 0.40443 0.48201 0.0
S1880 S 0.82825 0.37483 0.49083 0.0
N1881 N 0.78913 0.34561 0.47738 0.0
N1882 N 0.7864 0.40472 0.49887 0.0
C1883 C 0.73735 0.39177 0.49043 0.0
C1884 C 0.73883 0.35957 0.47864 0.0
C1885 C 0.10017 0.35186 0.46741 0.0
C1886 C 0.07546 0.33952 0.49448 0.0
C1887 C 0.09245 0.38332 0.4582 0.0
C1888 C 0.06295 0.4047 0.47696 0.0
H1889 H 0.12936 0.3377 0.45432 0.0
H1890 H 0.11477 0.39181 0.43792 0.0
S1891 S 0.99723 0.38636 0.55282 0.0
N1892 N 1.02165 0.35177 0.5408 0.0
N1893 N 1.0119 0.41223 0.52508 0.0
C1894 C 0.03785 0.39304 0.50422 0.0
C1895 C 0.04328 0.36021 0.51278 0.0
C1896 C 0.84159 0.10243 0.76678 0.0
C1897 C 0.82082 0.0915 0.73795 0.0
C1898 C 0.84076 0.13478 0.7747 0.0
C1899 C 0.81957 0.15753 0.75397 0.0
H1900 H 0.86224 0.0861 0.78244 0.0
H1901 H 0.86113 0.14232 0.79605 0.0
S1902 S 0.75505 0.14108 0.677 0.0
N1903 N 0.77342 0.10567 0.68991 0.0
N1904 N 0.7732 0.16674 0.70451 0.0
C1905 C 0.79489 0.14676 0.72612 0.0
C1906 C 0.79501 0.1136 0.7182 0.0
C1907 C 0.50146 0.13722 0.73447 0.0
C1908 C 0.45722 0.15753 0.74222 0.0
C1909 C 0.50104 0.10477 0.74353 0.0
C1910 C 0.45715 0.09212 0.76121 0.0
H1911 H 0.53404 0.14563 0.71931 0.0
H1912 H 0.533 0.08915 0.73488 0.0
S1913 S 0.33753 0.13651 0.79272 0.0
N1914 N 0.37219 0.16286 0.7722 0.0
N1915 N 0.37356 0.10348 0.79007 0.0
C1916 C 0.41637 0.11307 0.77182 0.0
C1917 C 0.41598 0.14538 0.76224 0.0
C1918 C 0.20673 0.86376 0.4577 0.0
C1919 C 0.22776 0.84029 0.47764 0.0
C1920 C 0.2043 0.89562 0.46716 0.0
C1921 C 0.2232 0.90529 0.49683 0.0
H1922 H 0.18775 0.85707 0.43568 0.0
H1923 H 0.18403 0.9125 0.45193 0.0
S1924 S 0.28626 0.85331 0.55671 0.0
N1925 N 0.27099 0.82895 0.52756 0.0
N1926 N 0.2677 0.88918 0.54514 0.0
C1927 C 0.24844 0.8825 0.51603 0.0
C1928 C 0.25025 0.84984 0.50648 0.0
C1929 C 0.56056 0.85533 0.46603 0.0
C1930 C 0.56652 0.84548 0.49728 0.0
C1931 C 0.56103 0.88776 0.45805 0.0
C1932 C 0.56892 0.91124 0.48107 0.0
H1933 H 0.55972 0.83782 0.44741 0.0
H1934 H 0.56062 0.89424 0.43356 0.0
S1935 S 0.58314 0.89798 0.5663 0.0
N1936 N 0.57639 0.86191 0.55142 0.0
N1937 N 0.57924 0.92262 0.53641 0.0
C1938 C 0.57145 0.90175 0.5125 0.0
C1939 C 0.56976 0.86888 0.52064 0.0
C1940 C 0.79287 0.61211 0.21912 0.0
C1941 C 0.81793 0.58947 0.23853 0.0
C1942 C 0.79634 0.64492 0.2262 0.0
C1943 C 0.82287 0.65589 0.25348 0.0
H1944 H 0.77506 0.60451 0.19716 0.0
H1945 H 0.78202 0.66194 0.20923 0.0
S1946 S 0.88928 0.60593 0.31375 0.0
N1947 N 0.86659 0.58032 0.28736 0.0
N1948 N 0.87056 0.64132 0.3011 0.0
C1949 C 0.84391 0.63326 0.27423 0.0
C1950 C 0.84169 0.60019 0.26675 0.0
C1951 C 0.47682 0.61221 0.24629 0.0
C1952 C 0.4332 0.59132 0.23916 0.0
C1953 C 0.47681 0.64371 0.23486 0.0
C1954 C 0.43456 0.65466 0.21509 0.0
H1955 H 0.50919 0.60482 0.26202 0.0
H1956 H 0.50754 0.66018 0.24313 0.0
S1957 S 0.32253 0.60589 0.18073 0.0
N1958 N 0.35446 0.5817 0.20501 0.0
N1959 N 0.35567 0.64004 0.18329 0.0
C1960 C 0.39547 0.63261 0.20445 0.0
C1961 C 0.3948 0.60104 0.21634 0.0
C1962 C 0.24267 0.38948 1.01657 0.0
C1963 C 0.23407 0.4129 0.99371 0.0
C1964 C 0.2451 0.35705 1.0084 0.0
C1965 C 0.24038 0.34695 0.97707 0.0
H1966 H 0.24203 0.39592 1.04112 0.0
H1967 H 0.24605 0.33961 1.02697 0.0
S1968 S 0.22312 0.39927 0.90825 0.0
N1969 N 0.22496 0.42399 0.93833 0.0
N1970 N 0.23116 0.36333 0.92297 0.0
C1971 C 0.23665 0.37039 0.95385 0.0
C1972 C 0.23306 0.40329 0.96219 0.0
C1973 C 0.5633 0.341 0.96463 0.0
C1974 C 0.56728 0.33086 0.99596 0.0
C1975 C 0.56265 0.3736 0.95683 0.0
C1976 C 0.56746 0.39723 0.98007 0.0
H1977 H 0.56495 0.32364 0.94589 0.0
H1978 H 0.56346 0.38022 0.93239 0.0
S1979 S 0.5767 0.38326 1.06544 0.0
N1980 N 0.57271 0.34725 1.05022 0.0
N1981 N 0.57359 0.4081 1.03567 0.0
C1982 C 0.56847 0.38736 1.01145 0.0
C1983 C 0.56779 0.35431 1.01938 0.0
C1984 C 0.26692 0.01756 1.08511 0.0
C1985 C 0.24865 0.00062 1.11204 0.0
C1986 C 0.23642 0.01869 1.05598 0.0
C1987 C 0.18459 0.00334 1.05112 0.0
H1988 H 0.30551 0.03044 1.08646 0.0
H1989 H 0.25362 0.0322 1.03695 0.0
S1990 S 0.12218 0.94995 1.11052 0.0
N1991 N 0.1772 0.96402 0.1288 0.0
N1992 N 0.12083 0.96716 1.07591 0.0
C1993 C 0.16677 0.98551 1.0774 0.0
C1994 C 0.1981 0.98393 1.10693 0.0
C1995 C 0.12797 0.23769 1.07072 0.0
C1996 C 0.10447 0.25188 1.04355 0.0
C1997 C 0.10104 0.23729 1.10085 0.0
C1998 C 0.04785 0.25042 1.10655 0.0
H1999 H 0.16816 0.22669 1.06886 0.0
H2000 H 0.12247 0.22638 0.12015 0.0
S2001 S 0.9716 0.29594 1.04561 0.0
N2002 N 0.02605 0.28285 1.02647 0.0
N2003 N 0.97677 0.282 1.08159 0.0
C2004 C 0.02473 0.26558 1.07981 0.0
C2005 C 0.05229 0.26622 1.04915 0.0
C2006 C 0.20716 0.23368 0.37339 0.0
C2007 C 0.25812 0.24998 0.36852 0.0
C2008 C 0.17788 0.23345 0.40292 0.0
C2009 C 0.19723 0.2492 0.43044 0.0
H2010 H 0.18925 0.22074 0.35396 0.0
H2011 H 0.13959 0.2203 0.40418 0.0
S2012 S 0.3249 0.29853 0.43106 0.0
N2013 N 0.32359 0.28433 0.39499 0.0
N2014 N 0.27054 0.2836 0.44897 0.0
C2015 C 0.24766 0.2659 0.42576 0.0
C2016 C 0.27727 0.26627 0.3957 0.0
C2017 C 0.03167 0.01439 0.39504 0.0
C2018 C 0.05246 0.99814 0.36817 0.0
C2019 C 0.05955 0.01489 0.42498 0.0
C2020 C 0.11095 -0.00054 0.43061 0.0
H2021 H 0.99318 0.02721 0.39298 0.0
H2022 H 0.04055 0.02794 0.44396 0.0
S2023 S 0.18007 0.94882 0.37088 0.0
N2024 N 0.12573 0.96259 0.35192 0.0
N2025 N 0.17793 0.9648 0.40615 0.0
C2026 C 0.13136 0.98254 0.40424 0.0
C2027 C 0.10256 0.98154 0.37399 0.0
C2028 C 0.80757 0.99761 0.17464 0.0
C2029 C 0.86581 0.99751 0.17836 0.0
C2030 C 0.7802 0.99694 0.14467 0.0
C2031 C 0.80915 0.99546 0.11564 0.0
H2032 H 0.78206 0.99814 0.19558 0.0
H2033 H 0.73596 0.99736 0.14433 0.0
S2034 S 0.96274 0.99321 1.11077 0.0
N2035 N 0.95115 0.9956 0.14874 0.0
N2036 N 0.90149 0.99265 1.0939 0.0
C2037 C 0.86753 0.99471 0.11905 0.0
C2038 C 0.89522 0.99611 0.14955 0.0
C2039 C 0.93618 0.7665 0.11787 0.0
C2040 C 0.98923 0.75289 1.11278 0.0
C2041 C 0.90823 0.76567 0.14766 0.0
C2042 C 0.93118 0.75132 0.17486 0.0
H2043 H 0.91583 0.77827 1.09859 0.0
H2044 H 0.8682 0.77688 0.14941 0.0
S2045 S 0.06323 0.70666 0.17404 0.0
N2046 N 0.05924 0.72079 0.13811 0.0
N2047 N 1.00843 0.71994 0.19271 0.0
C2048 C 0.98316 0.73679 0.16982 0.0
C2049 C 1.01138 0.73737 0.13953 0.0
C2050 C 0.80153 0.75159 0.80411 0.0
C2051 C 0.86011 0.751 0.80132 0.0
C2052 C 0.77294 0.75199 0.83375 0.0
C2053 C 0.79983 0.75177 0.86341 0.0
H2054 H 0.77687 0.75176 0.78296 0.0
H2055 H 0.7287 0.75302 0.83337 0.0
S2056 S 0.95322 0.7534 0.87092 0.0
N2057 N 0.94367 0.752 0.83269 0.0
N2058 N 0.8911 0.75361 0.88672 0.0
C2059 C 0.85847 0.75231 0.86096 0.0
C2060 C 0.88779 0.75161 0.8308 0.0
C2061 C 0.98694 0.99164 0.80625 0.0
C2062 C 0.93036 -7e-05 0.80272 0.0
C2063 C 1.01519 0.99178 0.83595 0.0
C2064 C 0.98944 0.00079 0.86456 0.0
H2065 H 1.01005 0.98484 0.78569 0.0
H2066 H 0.05803 0.9846 0.83638 0.0
S2067 S 0.84452 0.03006 0.86866 0.0
N2068 N 0.85157 0.02005 0.83152 0.0
N2069 N 0.90439 0.02249 0.88547 0.0
C2070 C 0.93368 0.01066 0.86106 0.0
C2071 C 0.90458 0.00972 0.831 0.0
C2072 C 0.26116 0.517 0.5824 0.0
C2073 C 0.24221 0.50151 0.60993 0.0
C2074 C 0.23028 0.51742 0.55346 0.0
C2075 C 0.17794 0.5024 0.54961 0.0
H2076 H 0.30041 0.52923 0.58315 0.0
H2077 H 0.24771 0.53004 0.5338 0.0
S2078 S 0.11114 0.45506 0.61232 0.0
N2079 N 0.16772 0.4685 0.62943 0.0
N2080 N 0.11124 0.46972 0.57659 0.0
C2081 C 0.15891 0.48664 0.5768 0.0
C2082 C 0.19028 0.48606 0.60616 0.0
C2083 C 0.13413 0.76345 0.57868 0.0
C2084 C 0.11487 0.74615 0.55212 0.0
C2085 C 0.10506 0.76451 0.60817 0.0
C2086 C 0.05464 0.74804 0.61382 0.0
H2087 H 0.17189 0.77699 0.57658 0.0
H2088 H 0.12223 0.77896 0.62675 0.0
S2089 S 0.9899 0.6947 0.55449 0.0
N2090 N 0.04333 0.70951 0.53557 0.0
N2091 N 0.99056 0.71111 0.58962 0.0
C2092 C 0.03595 0.72988 0.58772 0.0
C2093 C 0.06525 0.729 0.55767 0.0
C2094 C 0.19273 0.76433 0.8691 0.0
C2095 C 0.24325 0.74761 0.86427 0.0
C2096 C 0.16236 0.76406 0.89826 0.0
C2097 C 0.18015 0.74737 0.92542 0.0
H2098 H 0.17636 0.77829 0.85005 0.0
H2099 H 0.12465 0.77772 0.89958 0.0
S2100 S 0.305 0.69593 0.92573 0.0
N2101 N 0.30587 0.71126 0.89021 0.0
N2102 N 0.25091 0.71132 0.94359 0.0
C2103 C 0.22992 0.73009 0.92077 0.0
C2104 C 0.26056 0.73011 0.89104 0.0
C2105 C 0.11826 0.48499 0.90562 0.0
C2106 C 0.10265 0.50435 0.93149 0.0
C2107 C 0.08804 0.48409 0.87644 0.0
C2108 C 0.04163 0.50357 0.86963 0.0
H2109 H 0.1534 0.4694 0.90818 0.0
H2110 H 0.09992 0.46683 0.85925 0.0
S2111 S 0.97986 0.55713 0.92931 0.0
N2112 N 0.03301 0.5419 0.94811 0.0
N2113 N 0.9801 0.54156 0.89386 0.0
C2114 C 0.0249 0.52245 0.89557 0.0
C2115 C 0.05436 0.52263 0.92575 0.0
C2116 C 0.84519 0.48476 0.62249 0.0
C2117 C 0.79353 0.50024 0.61772 0.0
C2118 C 0.87366 0.48421 0.65224 0.0
C2119 C 0.8527 0.49889 0.67987 0.0
H2120 H 0.86403 0.47255 0.60293 0.0
H2121 H 0.91261 0.47176 0.65356 0.0
S2122 S 0.7262 0.54847 0.68012 0.0
N2123 N 0.72784 0.5346 0.64392 0.0
N2124 N 0.77932 0.53276 0.69844 0.0
C2125 C 0.80221 0.51521 0.67519 0.0
C2126 C 0.77351 0.51609 0.64491 0.0
C2127 C 0.95065 0.26288 0.6227 0.0
C2128 C 1.00555 0.25114 0.6191 0.0
C2129 C 0.9215 0.26327 0.65224 0.0
C2130 C 0.94454 0.25171 0.68074 0.0
H2131 H 0.92971 0.27229 0.60237 0.0
H2132 H 0.88017 0.27296 0.65263 0.0
S2133 S 0.08335 0.21395 0.68464 0.0
N2134 N 0.07882 0.22497 0.64769 0.0
N2135 N 0.02565 0.22554 0.70153 0.0
C2136 C 0.99875 0.23919 0.67719 0.0
C2137 C 0.02844 0.23895 0.64725 0.0
C2138 C 0.85922 0.26875 0.35553 0.0
C2139 C 0.81113 0.25039 0.36172 0.0
C2140 C 0.88808 0.26841 0.32589 0.0
C2141 C 0.86994 0.25067 0.29936 0.0
H2142 H 0.8741 0.28436 0.37375 0.0
H2143 H 0.92479 0.28275 0.3236 0.0
S2144 S 0.74813 0.19671 0.30205 0.0
N2145 N 0.7489 0.21249 0.33747 0.0
N2146 N 0.80008 0.2129 0.28294 0.0
C2147 C 0.82154 0.23243 0.30516 0.0
C2148 C 0.79306 0.23219 0.33551 0.0
C2149 C 0.97503 0.48004 0.30739 0.0
C2150 C 0.9221 0.49367 0.30245 0.0
C2151 C 1.00291 0.48044 0.33719 0.0
C2152 C 0.97991 0.49418 0.36469 0.0
H2153 H 0.99498 0.46827 0.28798 0.0
H2154 H 0.043 0.46937 0.33874 0.0
S2155 S 0.84386 0.53518 0.36525 0.0
N2156 N 0.84893 0.52221 0.3289 0.0
N2157 N 0.90029 0.52333 0.38347 0.0
C2158 C 0.92691 0.50782 0.36008 0.0
C2159 C 0.89856 0.5074 0.32975 0.0
C2160 C 0.77389 0.01058 0.58455 0.0
C2161 C 0.74661 0.00339 0.61317 0.0
C2162 C 0.74646 0.01059 0.55461 0.0
C2163 C 0.68929 0.0038 0.55077 0.0
H2164 H 0.81745 0.01621 0.58511 0.0
H2165 H 0.77065 0.01625 0.53413 0.0
S2166 S 0.59788 0.98104 0.61687 0.0
N2167 N 0.65775 0.98755 0.6342 0.0
N2168 N 0.60751 0.98823 0.57937 0.0
C2169 C 0.66164 0.9964 0.57909 0.0
C2170 C 0.68961 0.99602 0.60952 0.0
C2171 C 0.60254 0.26057 0.60386 0.0
C2172 C 0.5517 0.24406 0.60776 0.0
C2173 C 0.63184 0.2619 0.57464 0.0
C2174 C 0.61304 0.24663 0.54688 0.0
H2175 H 0.61997 0.2731 0.6237 0.0
H2176 H 0.66977 0.27538 0.57387 0.0
S2177 S 0.48637 0.19644 0.54446 0.0
N2178 N 0.48669 0.21007 0.58069 0.0
N2179 N 0.54081 0.21194 0.52707 0.0
C2180 C 0.56287 0.22942 0.55069 0.0
C2181 C 0.53281 0.22831 0.58041 0.0
C2182 C 0.70847 0.26218 0.87658 0.0
C2183 C 0.75581 0.24359 0.86933 0.0
C2184 C 0.68024 0.26085 0.90626 0.0
C2185 C 0.69713 0.24072 0.93116 0.0
H2186 H 0.69379 0.27874 0.85924 0.0
H2187 H 0.64505 0.27623 0.90983 0.0
S2188 S 0.81671 0.18564 0.92504 0.0
N2189 N 0.81669 0.20359 0.89077 0.0
N2190 N 0.76498 0.201 0.94512 0.0
C2191 C 0.74435 0.22201 0.92419 0.0
C2192 C 0.77306 0.22346 0.89405 0.0
C2193 C 0.60456 0.97958 0.87219 0.0
C2194 C 0.55475 0.9967 0.86694 0.0
C2195 C 0.63484 0.98023 0.90134 0.0
C2196 C 0.61778 0.99804 0.92803 0.0
H2197 H 0.62015 0.96491 0.85348 0.0
H2198 H 0.672 0.9661 0.90298 0.0
S2199 S 0.49392 0.05046 0.9271 0.0
N2200 N 0.49275 0.03412 0.89193 0.0
N2201 N 0.54773 0.03523 0.94536 0.0
C2202 C 0.56836 0.01563 0.923 0.0
C2203 C 0.53769 0.015 0.89327 0.0
C2204 C 0.35401 0.97988 0.62227 0.0
C2205 C 0.30181 0.99465 0.61754 0.0
C2206 C 0.38318 0.98068 0.6517 0.0
C2207 C 0.36246 0.9962 0.67888 0.0
H2208 H 0.37269 0.96717 0.60297 0.0
H2209 H 0.42236 0.96847 0.65321 0.0
S2210 S 0.234 0.04459 0.67846 0.0
N2211 N 0.23528 0.02915 0.6429 0.0
N2212 N 0.2886 0.03041 0.69683 0.0
C2213 C 0.31148 0.0121 0.67412 0.0
C2214 C 0.2819 0.01139 0.64418 0.0
C2215 C 0.49881 0.74958 0.67453 0.0
C2216 C 0.44022 0.74993 0.67715 0.0
C2217 C 0.5276 0.75161 0.64505 0.0
C2218 C 0.50046 0.75431 0.61559 0.0
H2219 H 0.52332 0.74766 0.69567 0.0
H2220 H 0.57196 0.75114 0.64548 0.0
S2221 S 0.34722 0.75771 0.60799 0.0
N2222 N 0.35667 0.75393 0.64604 0.0
N2223 N 0.40937 0.75819 0.59227 0.0
C2224 C 0.44188 0.75511 0.61795 0.0
C2225 C 0.41253 0.75283 0.64789 0.0
C2226 C 0.37707 0.7339 0.32704 0.0
C2227 C 0.35599 0.75024 0.30047 0.0
C2228 C 0.35033 0.73416 0.35714 0.0
C2229 C 0.30011 0.75059 0.36311 0.0
H2230 H 0.41479 0.72039 0.32459 0.0
H2231 H 0.36908 0.72079 0.37592 0.0
S2232 S 0.23149 0.80183 0.30393 0.0
N2233 N 0.28377 0.7865 0.28438 0.0
N2234 N 0.23412 0.7864 0.33936 0.0
C2235 C 0.27942 0.76765 0.33699 0.0
C2236 C 0.30691 0.76766 0.30648 0.0
C2237 C 0.45251 0.98742 0.3568 0.0
C2238 C 0.50543 0.00148 0.36138 0.0
C2239 C 0.4238 0.98744 0.3272 0.0
C2240 C 0.44562 0.00145 0.29957 0.0
H2241 H 0.43276 0.97592 0.37643 0.0
H2242 H 0.38392 0.97595 0.32598 0.0
S2243 S 0.57698 0.04708 0.29883 0.0
N2244 N 0.57423 0.03351 0.33501 0.0
N2245 N 0.52189 0.03313 0.28073 0.0
C2246 C 0.49753 0.01646 0.30404 0.0
C2247 C 0.52666 0.01658 0.33418 0.0
C2248 C 0.73422 0.51118 1.05463 0.0
C2249 C 0.68218 0.49618 1.04983 0.0
C2250 C 0.76179 0.51245 1.08461 0.0
C2251 C 0.73975 0.49861 1.11227 0.0
H2252 H 0.75347 0.52291 1.03502 0.0
H2253 H 0.80075 0.52487 1.08611 0.0
S2254 S 0.60769 0.45334 1.11293 0.0
N2255 N 0.61136 0.46624 1.07658 0.0
N2256 N 0.66381 0.46638 0.13073 0.0
C2257 C 0.68856 0.48282 1.10746 0.0
C2258 C 0.65992 0.48225 1.07723 0.0
C2259 C 0.55054 0.73231 1.05489 0.0
C2260 C 0.60076 0.7489 1.04902 0.0
C2261 C 0.52196 0.73326 1.08455 0.0
C2262 C 0.54077 0.75123 1.11084 0.0
H2263 H 0.53356 0.7176 1.03644 0.0
H2264 H 0.48476 0.71926 1.08695 0.0
S2265 S 0.6626 0.80518 1.10651 0.0
N2266 N 0.6632 0.78728 1.0721 0.0
N2267 N 0.60966 0.79023 0.12585 0.0
C2268 C 0.58923 0.76928 1.10462 0.0
C2269 C 0.61877 0.76785 1.07465 0.0
C2270 C 0.66721 0.73898 0.39971 0.0
C2271 C 0.69052 0.75226 0.42744 0.0
C2272 C 0.69484 0.7392 0.36979 0.0
C2273 C 0.74816 0.75251 0.36494 0.0
H2274 H 0.62693 0.72798 0.40105 0.0
H2275 H 0.6743 0.7283 0.3501 0.0
S2276 S 0.82587 0.79413 0.42817 0.0
N2277 N 0.77006 0.78152 0.44632 0.0
N2278 N 0.82061 0.78169 0.3916 0.0
C2279 C 0.77148 0.7663 0.39236 0.0
C2280 C 0.74332 0.76626 0.42277 0.0
C2281 C 0.51302 0.50043 0.39862 0.0
C2282 C 0.53845 0.50698 0.36934 0.0
C2283 C 0.54282 0.49996 0.42786 0.0
C2284 C 0.60046 0.50622 0.43037 0.0
H2285 H 0.4693 0.49521 0.39907 0.0
H2286 H 0.52009 0.49424 0.44886 0.0
S2287 S 0.68807 0.52616 0.36166 0.0
N2288 N 0.62643 0.52093 0.34604 0.0
N2289 N 0.68076 0.51992 0.39952 0.0
C2290 C 0.62621 0.51299 0.40132 0.0
C2291 C 0.59599 0.51348 0.3716 0.0
C2292 C 0.36943 0.51416 0.15484 0.0
C2293 C 0.34994 0.49811 0.18187 0.0
C2294 C 0.34012 0.51416 0.12556 0.0
C2295 C 0.28908 0.49805 0.12085 0.0
H2296 H 0.40767 0.52737 0.15634 0.0
H2297 H 0.3577 0.52737 1.10635 0.0
S2298 S 0.22293 0.44859 0.18202 0.0
N2299 N 0.27722 0.4634 0.20024 0.0
N2300 N 0.22367 0.46325 0.14629 0.0
C2301 C 0.26989 0.48136 0.14745 0.0
C2302 C 0.2996 0.48143 0.1773 0.0
C2303 C 0.50637 0.26243 0.17742 0.0
C2304 C 0.45053 0.25228 0.18061 0.0
C2305 C 0.53643 0.2611 0.14831 0.0
C2306 C 0.51311 0.24979 0.11981 0.0
H2307 H 0.52772 0.27141 0.19787 0.0
H2308 H 0.57876 0.26922 0.14825 0.0
S2309 S 0.36803 0.22064 1.11385 0.0
N2310 N 0.37375 0.23061 0.15107 0.0
N2311 N 0.42836 0.22849 1.09773 0.0
C2312 C 0.45701 0.24003 0.12259 0.0
C2313 C 0.4266 0.2412 0.15223 0.0
C2314 C 0.32243 0.27925 0.80293 0.0
C2315 C 0.36436 0.25666 0.79576 0.0
C2316 C 0.29275 0.27973 0.83227 0.0
C2317 C 0.30194 0.25739 0.8567 0.0
H2318 H 0.31242 0.29708 0.78566 0.0
H2319 H 0.26232 0.29813 0.83586 0.0
S2320 S 0.40029 0.18989 0.84844 0.0
N2321 N 0.41036 0.21026 0.81608 0.0
N2322 N 0.35254 0.20924 0.8684 0.0
C2323 C 0.34223 0.23404 0.84914 0.0
C2324 C 0.37361 0.23422 0.81982 0.0
C2325 C 0.48815 0.46002 0.84111 0.0
C2326 C 0.49498 0.48773 0.86006 0.0
C2327 C 0.46017 0.45998 0.81111 0.0
C2328 C 0.43664 0.48766 0.79732 0.0
H2329 H 0.50451 0.43776 0.84962 0.0
H2330 H 0.45701 0.4377 0.79853 0.0
S2331 S 0.44432 0.56735 0.83527 0.0
N2332 N 0.47605 0.54425 0.86077 0.0
N2333 N 0.42508 0.54416 0.80597 0.0
C2334 C 0.4442 0.51559 0.81572 0.0
C2335 C 0.47244 0.51561 0.84627 0.0
loop_
_geom_bond_atom_site_label_1
_geom_bond_atom_site_label_2
_geom_bond_distance
_geom_bond_site_symmetry_2
_ccdc_geom_bond_type
Sm0 C2 2.864 . S
Sm0 O20 2.543 1_545 S
Sm0 O21 2.450 . S
Sm0 O22 2.681 . S
Sm0 O23 2.464 . S
Sm0 O24 2.396 . S
Sm0 O28 2.386 1_545 S
Sm0 O31 2.408 . S
Sm1 C11 2.846 1_565 S
Sm1 O22 2.372 1_565 S
Sm1 O25 2.406 1_565 S
Sm1 O26 2.535 1_565 S
Sm1 O27 2.457 . S
Sm1 O28 2.689 . S
Sm1 O29 2.481 . S
Sm1 O30 2.399 . S
C2 Sm0 2.864 . S
C2 C3 1.488 1_554 S
C2 O20 1.269 1_545 S
C2 O21 1.252 . S
C3 C2 1.488 1_556 S
C3 C4 1.358 1_545 S
C3 C8 1.382 . S
C4 C3 1.358 1_565 S
C4 C5 1.385 . S
C4 H32 0.930 . S
C5 C4 1.385 . S
C5 C6 1.395 1_565 S
C5 H33 0.929 . S
C6 C5 1.395 1_545 S
C6 C7 1.335 . S
C7 C6 1.335 . S
C7 C8 1.398 . S
C7 H34 0.930 . S
C8 C3 1.382 . S
C8 C7 1.398 . S
C8 H35 0.929 . S
C9 O22 1.271 . S
C9 O23 1.251 . S
C10 O24 1.252 . S
C10 O25 1.272 . S
C11 Sm1 2.846 1_545 S
C11 C12 1.505 1_545 S
C11 O26 1.271 . S
C11 O27 1.232 1_545 S
C12 C11 1.505 1_565 S
C12 C13 1.334 1_565 S
C12 C17 1.408 . S
C13 C12 1.334 1_545 S
C13 C14 1.385 . S
C13 H36 0.930 . S
C14 C13 1.385 . S
C14 C15 1.395 1_545 S
C14 H37 0.929 . S
C15 C14 1.395 1_565 S
C15 C16 1.335 . S
C16 C15 1.335 . S
C16 C17 1.398 . S
C16 H38 0.930 . S
C17 C12 1.408 . S
C17 C16 1.398 . S
C17 H39 0.929 . S
C18 O28 1.271 . S
C18 O29 1.251 . S
C19 O30 1.242 1_545 S
C19 O31 1.278 . S
O20 Sm0 2.543 1_565 S
O20 C2 1.269 1_565 S
O21 Sm0 2.450 . S
O21 C2 1.252 . S
O22 Sm0 2.681 . S
O22 Sm1 2.372 1_545 S
O22 C9 1.271 . S
O23 Sm0 2.464 . S
O23 C9 1.251 . S
O24 Sm0 2.396 . S
O24 C10 1.252 . S
O25 Sm1 2.406 1_545 S
O25 C10 1.272 . S
O26 Sm1 2.535 1_545 S
O26 C11 1.271 . S
O27 Sm1 2.457 . S
O27 C11 1.232 1_565 S
O28 Sm0 2.386 1_565 S
O28 Sm1 2.689 . S
O28 C18 1.271 . S
O29 Sm1 2.481 . S
O29 C18 1.251 . S
O30 Sm1 2.399 . S
O30 C19 1.242 1_565 S
O31 Sm0 2.408 . S
O31 C19 1.278 . S
H32 C4 0.930 . S
H33 C5 0.929 . S
H34 C7 0.930 . S
H35 C8 0.929 . S
H36 C13 0.930 . S
H37 C14 0.929 . S
H38 C16 0.930 . S
H39 C17 0.929 . S
Sm40 C42 2.864 . S
Sm40 O60 2.543 . S
Sm40 O61 2.450 . S
Sm40 O62 2.681 . S
Sm40 O63 2.464 . S
Sm40 O64 2.396 . S
Sm40 O68 2.386 . S
Sm40 O71 2.408 . S
Sm41 C51 2.846 . S
Sm41 O62 2.386 . S
Sm41 O65 2.408 . S
Sm41 O66 2.543 . S
Sm41 O67 2.450 . S
Sm41 O68 2.681 . S
Sm41 O69 2.464 . S
Sm41 O70 2.396 . S
C42 Sm40 2.864 . S
C42 C43 1.488 1_554 S
C42 O60 1.269 . S
C42 O61 1.252 . S
C43 C42 1.488 1_556 S
C43 C44 1.358 . S
C43 C48 1.382 . S
C44 C43 1.358 . S
C44 C45 1.385 . S
C44 H72 0.930 . S
C45 C44 1.385 . S
C45 C46 1.395 . S
C45 H73 0.929 . S
C46 C45 1.395 . S
C46 C47 1.335 . S
C47 C46 1.335 . S
C47 C48 1.398 . S
C47 H74 0.930 . S
C48 C43 1.382 . S
C48 C47 1.398 . S
C48 H75 0.929 . S
C49 O62 1.271 . S
C49 O63 1.251 . S
C50 O64 1.252 . S
C50 O65 1.272 . S
C51 Sm41 2.846 . S
C51 C52 1.506 . S
C51 O66 1.261 . S
C51 O67 1.242 . S
C52 C51 1.506 . S
C52 C53 1.358 . S
C52 C57 1.382 . S
C53 C52 1.358 . S
C53 C54 1.385 . S
C53 H76 0.930 . S
C54 C53 1.385 . S
C54 C55 1.395 . S
C54 H77 0.929 . S
C55 C54 1.395 . S
C55 C56 1.335 . S
C56 C55 1.335 . S
C56 C57 1.398 . S
C56 H78 0.930 1_655 S
C57 C52 1.382 . S
C57 C56 1.398 . S
C57 H79 0.929 . S
C58 O68 1.271 . S
C58 O69 1.251 . S
C59 O70 1.252 . S
C59 O71 1.272 . S
O60 Sm40 2.543 . S
O60 C42 1.269 . S
O61 Sm40 2.450 . S
O61 C42 1.252 . S
O62 Sm40 2.681 . S
O62 Sm41 2.386 . S
O62 C49 1.271 . S
O63 Sm40 2.464 . S
O63 C49 1.251 . S
O64 Sm40 2.396 . S
O64 C50 1.252 . S
O65 Sm41 2.408 . S
O65 C50 1.272 . S
O66 Sm41 2.543 . S
O66 C51 1.261 . S
O67 Sm41 2.450 . S
O67 C51 1.242 . S
O68 Sm40 2.386 . S
O68 Sm41 2.681 . S
O68 C58 1.271 . S
O69 Sm41 2.464 . S
O69 C58 1.251 . S
O70 Sm41 2.396 . S
O70 C59 1.252 . S
O71 Sm40 2.408 . S
O71 C59 1.272 . S
H72 C44 0.930 . S
H73 C45 0.929 . S
H74 C47 0.930 . S
H75 C48 0.929 . S
H76 C53 0.930 . S
H77 C54 0.929 . S
H78 C56 0.930 1_455 S
H79 C57 0.929 . S
Sm80 C82 2.846 . S
Sm80 O100 2.543 . S
Sm80 O101 2.450 . S
Sm80 O102 2.681 . S
Sm80 O103 2.464 . S
Sm80 O104 2.396 . S
Sm80 O108 2.386 . S
Sm80 O111 2.408 . S
Sm81 C91 2.846 . S
Sm81 O102 2.386 . S
Sm81 O105 2.408 . S
Sm81 O106 2.543 . S
Sm81 O107 2.450 . S
Sm81 O108 2.681 . S
Sm81 O109 2.464 . S
Sm81 O110 2.396 . S
C82 Sm80 2.846 . S
C82 C83 1.506 . S
C82 O100 1.261 . S
C82 O101 1.242 . S
C83 C82 1.506 . S
C83 C84 1.358 . S
C83 C88 1.382 . S
C84 C83 1.358 . S
C84 C85 1.385 . S
C84 H112 0.930 . S
C85 C84 1.385 . S
C85 C86 1.395 . S
C85 H113 0.929 . S
C86 C85 1.395 . S
C86 C87 1.335 . S
C87 C86 1.335 . S
C87 C88 1.398 . S
C87 H114 0.930 . S
C88 C83 1.382 . S
C88 C87 1.398 . S
C88 H115 0.929 . S
C89 O102 1.271 . S
C89 O103 1.251 . S
C90 O104 1.252 . S
C90 O105 1.272 . S
C91 Sm81 2.846 . S
C91 C92 1.506 . S
C91 O106 1.261 . S
C91 O107 1.242 . S
C92 C91 1.506 . S
C92 C93 1.358 . S
C92 C97 1.382 . S
C93 C92 1.358 . S
C93 C94 1.385 . S
C93 H116 0.930 . S
C94 C93 1.385 . S
C94 C95 1.395 . S
C94 H117 0.929 . S
C95 C94 1.395 . S
C95 C96 1.335 . S
C96 C95 1.335 . S
C96 C97 1.398 . S
C96 H118 0.930 . S
C97 C92 1.382 . S
C97 C96 1.398 . S
C97 H119 0.929 . S
C98 O108 1.271 . S
C98 O109 1.251 . S
C99 O110 1.252 . S
C99 O111 1.272 . S
O100 Sm80 2.543 . S
O100 C82 1.261 . S
O101 Sm80 2.450 . S
O101 C82 1.242 . S
O102 Sm80 2.681 . S
O102 Sm81 2.386 . S
O102 C89 1.271 . S
O103 Sm80 2.464 . S
O103 C89 1.251 . S
O104 Sm80 2.396 . S
O104 C90 1.252 . S
O105 Sm81 2.408 . S
O105 C90 1.272 . S
O106 Sm81 2.543 . S
O106 C91 1.261 . S
O107 Sm81 2.450 . S
O107 C91 1.242 . S
O108 Sm80 2.386 . S
O108 Sm81 2.681 . S
O108 C98 1.271 . S
O109 Sm81 2.464 . S
O109 C98 1.251 . S
O110 Sm81 2.396 . S
O110 C99 1.252 . S
O111 Sm80 2.408 . S
O111 C99 1.272 . S
H112 C84 0.930 . S
H113 C85 0.929 . S
H114 C87 0.930 . S
H115 C88 0.929 . S
H116 C93 0.930 . S
H117 C94 0.929 . S
H118 C96 0.930 . S
H119 C97 0.929 . S
Sm120 C122 2.846 . S
Sm120 O140 2.543 1_545 S
Sm120 O141 2.450 . S
Sm120 O142 2.681 . S
Sm120 O143 2.464 . S
Sm120 O144 2.396 . S
Sm120 O148 2.386 1_545 S
Sm120 O151 2.408 . S
Sm121 C131 2.846 1_565 S
Sm121 O142 2.373 1_565 S
Sm121 O145 2.406 1_565 S
Sm121 O146 2.535 1_565 S
Sm121 O147 2.457 . S
Sm121 O148 2.689 . S
Sm121 O149 2.481 . S
Sm121 O150 2.399 . S
C122 Sm120 2.846 . S
C122 C123 1.506 . S
C122 O140 1.261 1_545 S
C122 O141 1.242 . S
C123 C122 1.506 . S
C123 C124 1.358 1_545 S
C123 C128 1.382 . S
C124 C123 1.358 1_565 S
C124 C125 1.385 . S
C124 H152 0.930 . S
C125 C124 1.385 . S
C125 C126 1.395 1_565 S
C125 H153 0.929 . S
C126 C125 1.395 1_545 S
C126 C127 1.335 . S
C127 C126 1.335 . S
C127 C128 1.398 . S
C127 H154 0.930 . S
C128 C123 1.382 . S
C128 C127 1.398 . S
C128 H155 0.929 . S
C129 O142 1.271 . S
C129 O143 1.251 . S
C130 O144 1.252 . S
C130 O145 1.272 . S
C131 Sm121 2.846 1_545 S
C131 C132 1.505 1_545 S
C131 O146 1.271 . S
C131 O147 1.232 1_545 S
C132 C131 1.505 1_565 S
C132 C133 1.334 1_565 S
C132 C137 1.408 . S
C133 C132 1.334 1_545 S
C133 C134 1.385 . S
C133 H156 0.930 . S
C134 C133 1.385 . S
C134 C135 1.395 1_545 S
C134 H157 0.929 . S
C135 C134 1.395 1_565 S
C135 C136 1.335 . S
C136 C135 1.335 . S
C136 C137 1.398 . S
C136 H158 0.930 1_655 S
C137 C132 1.408 . S
C137 C136 1.398 . S
C137 H159 0.929 . S
C138 O148 1.271 . S
C138 O149 1.251 . S
C139 O150 1.242 1_545 S
C139 O151 1.279 . S
O140 Sm120 2.543 1_565 S
O140 C122 1.261 1_565 S
O141 Sm120 2.450 . S
O141 C122 1.242 . S
O142 Sm120 2.681 . S
O142 Sm121 2.373 1_545 S
O142 C129 1.271 . S
O143 Sm120 2.464 . S
O143 C129 1.251 . S
O144 Sm120 2.396 . S
O144 C130 1.252 . S
O145 Sm121 2.406 1_545 S
O145 C130 1.272 . S
O146 Sm121 2.535 1_545 S
O146 C131 1.271 . S
O147 Sm121 2.457 . S
O147 C131 1.232 1_565 S
O148 Sm120 2.386 1_565 S
O148 Sm121 2.689 . S
O148 C138 1.271 . S
O149 Sm121 2.481 . S
O149 C138 1.251 . S
O150 Sm121 2.399 . S
O150 C139 1.242 1_565 S
O151 Sm120 2.408 . S
O151 C139 1.279 . S
H152 C124 0.930 . S
H153 C125 0.929 . S
H154 C127 0.930 . S
H155 C128 0.929 . S
H156 C133 0.930 . S
H157 C134 0.929 . S
H158 C136 0.930 1_455 S
H159 C137 0.929 . S
Sm160 C162 2.846 1_545 S
Sm160 O180 2.535 1_545 S
Sm160 O181 2.457 . S
Sm160 O182 2.689 . S
Sm160 O183 2.481 . S
Sm160 O184 2.399 . S
Sm160 O188 2.372 1_545 S
Sm160 O191 2.406 1_545 S
Sm161 C171 2.864 . S
Sm161 O182 2.386 1_565 S
Sm161 O185 2.408 . S
Sm161 O186 2.543 1_565 S
Sm161 O187 2.450 . S
Sm161 O188 2.681 . S
Sm161 O189 2.464 . S
Sm161 O190 2.396 . S
C162 Sm160 2.846 1_565 S
C162 C163 1.505 1_565 S
C162 O180 1.271 . S
C162 O181 1.232 1_565 S
C163 C162 1.505 1_545 S
C163 C164 1.334 1_545 S
C163 C168 1.408 . S
C164 C163 1.334 1_565 S
C164 C165 1.385 . S
C164 H192 0.930 . S
C165 C164 1.385 . S
C165 C166 1.395 1_565 S
C165 H193 0.929 . S
C166 C165 1.395 1_545 S
C166 C167 1.335 . S
C167 C166 1.335 . S
C167 C168 1.398 . S
C167 H194 0.930 . S
C168 C163 1.408 . S
C168 C167 1.398 . S
C168 H195 0.929 . S
C169 O182 1.271 . S
C169 O183 1.251 . S
C170 O184 1.242 1_565 S
C170 O185 1.278 . S
C171 Sm161 2.864 . S
C171 C172 1.488 1_556 S
C171 O186 1.269 1_565 S
C171 O187 1.252 . S
C172 C171 1.488 1_554 S
C172 C173 1.358 1_565 S
C172 C177 1.382 . S
C173 C172 1.358 1_545 S
C173 C174 1.385 . S
C173 H196 0.930 . S
C174 C173 1.385 . S
C174 C175 1.395 1_545 S
C174 H197 0.929 . S
C175 C174 1.395 1_565 S
C175 C176 1.335 . S
C176 C175 1.335 . S
C176 C177 1.398 . S
C176 H198 0.930 . S
C177 C172 1.382 . S
C177 C176 1.398 . S
C177 H199 0.929 . S
C178 O188 1.271 . S
C178 O189 1.251 . S
C179 O190 1.252 . S
C179 O191 1.272 . S
O180 Sm160 2.535 1_565 S
O180 C162 1.271 . S
O181 Sm160 2.457 . S
O181 C162 1.232 1_545 S
O182 Sm160 2.689 . S
O182 Sm161 2.386 1_545 S
O182 C169 1.271 . S
O183 Sm160 2.481 . S
O183 C169 1.251 . S
O184 Sm160 2.399 . S
O184 C170 1.242 1_545 S
O185 Sm161 2.408 . S
O185 C170 1.278 . S
O186 Sm161 2.543 1_545 S
O186 C171 1.269 1_545 S
O187 Sm161 2.450 . S
O187 C171 1.252 . S
O188 Sm160 2.372 1_565 S
O188 Sm161 2.681 . S
O188 C178 1.271 . S
O189 Sm161 2.464 . S
O189 C178 1.251 . S
O190 Sm161 2.396 . S
O190 C179 1.252 . S
O191 Sm160 2.406 1_565 S
O191 C179 1.272 . S
H192 C164 0.930 . S
H193 C165 0.929 . S
H194 C167 0.930 . S
H195 C168 0.929 . S
H196 C173 0.930 . S
H197 C174 0.929 . S
H198 C176 0.930 . S
H199 C177 0.929 . S
Sm200 C202 2.846 . S
Sm200 O220 2.543 . S
Sm200 O221 2.450 . S
Sm200 O222 2.681 . S
Sm200 O223 2.464 . S
Sm200 O224 2.396 . S
Sm200 O228 2.386 . S
Sm200 O231 2.408 . S
Sm201 C211 2.864 . S
Sm201 O222 2.386 . S
Sm201 O225 2.408 . S
Sm201 O226 2.543 . S
Sm201 O227 2.450 . S
Sm201 O228 2.681 . S
Sm201 O229 2.464 . S
Sm201 O230 2.396 . S
C202 Sm200 2.846 . S
C202 C203 1.506 . S
C202 O220 1.261 . S
C202 O221 1.242 . S
C203 C202 1.506 . S
C203 C204 1.358 . S
C203 C208 1.382 . S
C204 C203 1.358 . S
C204 C205 1.385 . S
C204 H232 0.930 . S
C205 C204 1.385 . S
C205 C206 1.395 . S
C205 H233 0.929 . S
C206 C205 1.395 . S
C206 C207 1.335 . S
C207 C206 1.335 . S
C207 C208 1.398 . S
C207 H234 0.930 1_455 S
C208 C203 1.382 . S
C208 C207 1.398 . S
C208 H235 0.929 . S
C209 O222 1.271 . S
C209 O223 1.251 . S
C210 O224 1.252 . S
C210 O225 1.272 . S
C211 Sm201 2.864 . S
C211 C212 1.488 1_556 S
C211 O226 1.269 . S
C211 O227 1.252 . S
C212 C211 1.488 1_554 S
C212 C213 1.358 . S
C212 C217 1.382 . S
C213 C212 1.358 . S
C213 C214 1.385 . S
C213 H236 0.930 . S
C214 C213 1.385 . S
C214 C215 1.395 . S
C214 H237 0.929 . S
C215 C214 1.395 . S
C215 C216 1.335 . S
C216 C215 1.335 . S
C216 C217 1.398 . S
C216 H238 0.930 . S
C217 C212 1.382 . S
C217 C216 1.398 . S
C217 H239 0.929 . S
C218 O228 1.271 . S
C218 O229 1.251 . S
C219 O230 1.252 . S
C219 O231 1.272 . S
O220 Sm200 2.543 . S
O220 C202 1.261 . S
O221 Sm200 2.450 . S
O221 C202 1.242 . S
O222 Sm200 2.681 . S
O222 Sm201 2.386 . S
O222 C209 1.271 . S
O223 Sm200 2.464 . S
O223 C209 1.251 . S
O224 Sm200 2.396 . S
O224 C210 1.252 . S
O225 Sm201 2.408 . S
O225 C210 1.272 . S
O226 Sm201 2.543 . S
O226 C211 1.269 . S
O227 Sm201 2.450 . S
O227 C211 1.252 . S
O228 Sm200 2.386 . S
O228 Sm201 2.681 . S
O228 C218 1.271 . S
O229 Sm201 2.464 . S
O229 C218 1.251 . S
O230 Sm201 2.396 . S
O230 C219 1.252 . S
O231 Sm200 2.408 . S
O231 C219 1.272 . S
H232 C204 0.930 . S
H233 C205 0.929 . S
H234 C207 0.930 1_655 S
H235 C208 0.929 . S
H236 C213 0.930 . S
H237 C214 0.929 . S
H238 C216 0.930 . S
H239 C217 0.929 . S
Sm240 C242 2.846 . S
Sm240 O260 2.543 . S
Sm240 O261 2.450 . S
Sm240 O262 2.681 . S
Sm240 O263 2.464 . S
Sm240 O264 2.396 . S
Sm240 O268 2.386 . S
Sm240 O271 2.408 . S
Sm241 C251 2.846 . S
Sm241 O262 2.386 . S
Sm241 O265 2.408 . S
Sm241 O266 2.543 . S
Sm241 O267 2.450 . S
Sm241 O268 2.681 . S
Sm241 O269 2.464 . S
Sm241 O270 2.396 . S
C242 Sm240 2.846 . S
C242 C243 1.506 . S
C242 O260 1.261 . S
C242 O261 1.242 . S
C243 C242 1.506 . S
C243 C244 1.358 . S
C243 C248 1.382 . S
C244 C243 1.358 . S
C244 C245 1.385 . S
C244 H272 0.930 . S
C245 C244 1.385 . S
C245 C246 1.395 . S
C245 H273 0.929 . S
C246 C245 1.395 . S
C246 C247 1.335 . S
C247 C246 1.335 . S
C247 C248 1.398 . S
C247 H274 0.930 . S
C248 C243 1.382 . S
C248 C247 1.398 . S
C248 H275 0.929 . S
C249 O262 1.271 . S
C249 O263 1.251 . S
C250 O264 1.252 . S
C250 O265 1.272 . S
C251 Sm241 2.846 . S
C251 C252 1.506 . S
C251 O266 1.261 . S
C251 O267 1.242 . S
C252 C251 1.506 . S
C252 C253 1.358 . S
C252 C257 1.382 . S
C253 C252 1.358 . S
C253 C254 1.385 . S
C253 H276 0.930 . S
C254 C253 1.385 . S
C254 C255 1.395 . S
C254 H277 0.929 . S
C255 C254 1.395 . S
C255 C256 1.335 . S
C256 C255 1.335 . S
C256 C257 1.398 . S
C256 H278 0.930 . S
C257 C252 1.382 . S
C257 C256 1.398 . S
C257 H279 0.929 . S
C258 O268 1.271 . S
C258 O269 1.251 . S
C259 O270 1.252 . S
C259 O271 1.272 . S
O260 Sm240 2.543 . S
O260 C242 1.261 . S
O261 Sm240 2.450 . S
O261 C242 1.242 . S
O262 Sm240 2.681 . S
O262 Sm241 2.386 . S
O262 C249 1.271 . S
O263 Sm240 2.464 . S
O263 C249 1.251 . S
O264 Sm240 2.396 . S
O264 C250 1.252 . S
O265 Sm241 2.408 . S
O265 C250 1.272 . S
O266 Sm241 2.543 . S
O266 C251 1.261 . S
O267 Sm241 2.450 . S
O267 C251 1.242 . S
O268 Sm240 2.386 . S
O268 Sm241 2.681 . S
O268 C258 1.271 . S
O269 Sm241 2.464 . S
O269 C258 1.251 . S
O270 Sm241 2.396 . S
O270 C259 1.252 . S
O271 Sm240 2.408 . S
O271 C259 1.272 . S
H272 C244 0.930 . S
H273 C245 0.929 . S
H274 C247 0.930 . S
H275 C248 0.929 . S
H276 C253 0.930 . S
H277 C254 0.929 . S
H278 C256 0.930 . S
H279 C257 0.929 . S
Sm280 C282 2.846 1_545 S
Sm280 O300 2.535 1_545 S
Sm280 O301 2.457 . S
Sm280 O302 2.689 . S
Sm280 O303 2.481 . S
Sm280 O304 2.399 . S
Sm280 O308 2.373 1_545 S
Sm280 O311 2.406 1_545 S
Sm281 C291 2.846 . S
Sm281 O302 2.386 1_565 S
Sm281 O305 2.408 . S
Sm281 O306 2.543 1_565 S
Sm281 O307 2.450 . S
Sm281 O308 2.681 . S
Sm281 O309 2.464 . S
Sm281 O310 2.396 . S
C282 Sm280 2.846 1_565 S
C282 C283 1.505 1_565 S
C282 O300 1.271 . S
C282 O301 1.232 1_565 S
C283 C282 1.505 1_545 S
C283 C284 1.334 1_545 S
C283 C288 1.408 . S
C284 C283 1.334 1_565 S
C284 C285 1.385 . S
C284 H312 0.930 . S
C285 C284 1.385 . S
C285 C286 1.395 1_565 S
C285 H313 0.929 . S
C286 C285 1.395 1_545 S
C286 C287 1.335 . S
C287 C286 1.335 . S
C287 C288 1.398 . S
C287 H314 0.930 1_455 S
C288 C283 1.408 . S
C288 C287 1.398 . S
C288 H315 0.929 . S
C289 O302 1.271 . S
C289 O303 1.251 . S
C290 O304 1.242 1_565 S
C290 O305 1.279 . S
C291 Sm281 2.846 . S
C291 C292 1.506 . S
C291 O306 1.261 1_565 S
C291 O307 1.242 . S
C292 C291 1.506 . S
C292 C293 1.358 1_565 S
C292 C297 1.382 . S
C293 C292 1.358 1_545 S
C293 C294 1.385 . S
C293 H316 0.930 . S
C294 C293 1.385 . S
C294 C295 1.395 1_545 S
C294 H317 0.929 . S
C295 C294 1.395 1_565 S
C295 C296 1.335 . S
C296 C295 1.335 . S
C296 C297 1.398 . S
C296 H318 0.930 . S
C297 C292 1.382 . S
C297 C296 1.398 . S
C297 H319 0.929 . S
C298 O308 1.271 . S
C298 O309 1.251 . S
C299 O310 1.252 . S
C299 O311 1.272 . S
O300 Sm280 2.535 1_565 S
O300 C282 1.271 . S
O301 Sm280 2.457 . S
O301 C282 1.232 1_545 S
O302 Sm280 2.689 . S
O302 Sm281 2.386 1_545 S
O302 C289 1.271 . S
O303 Sm280 2.481 . S
O303 C289 1.251 . S
O304 Sm280 2.399 . S
O304 C290 1.242 1_545 S
O305 Sm281 2.408 . S
O305 C290 1.279 . S
O306 Sm281 2.543 1_545 S
O306 C291 1.261 1_545 S
O307 Sm281 2.450 . S
O307 C291 1.242 . S
O308 Sm280 2.373 1_565 S
O308 Sm281 2.681 . S
O308 C298 1.271 . S
O309 Sm281 2.464 . S
O309 C298 1.251 . S
O310 Sm281 2.396 . S
O310 C299 1.252 . S
O311 Sm280 2.406 1_565 S
O311 C299 1.272 . S
H312 C284 0.930 . S
H313 C285 0.929 . S
H314 C287 0.930 1_655 S
H315 C288 0.929 . S
H316 C293 0.930 . S
H317 C294 0.929 . S
H318 C296 0.930 . S
H319 C297 0.929 . S
Sm320 C322 2.846 . S
Sm320 O340 2.543 . S
Sm320 O341 2.450 . S
Sm320 O342 2.681 . S
Sm320 O343 2.464 . S
Sm320 O344 2.396 . S
Sm320 O348 2.386 . S
Sm320 O351 2.408 . S
Sm321 C331 2.846 . S
Sm321 O342 2.386 . S
Sm321 O345 2.408 . S
Sm321 O346 2.543 . S
Sm321 O347 2.450 . S
Sm321 O348 2.681 . S
Sm321 O349 2.464 . S
Sm321 O350 2.396 . S
C322 Sm320 2.846 . S
C322 C323 1.506 . S
C322 O340 1.261 . S
C322 O341 1.242 . S
C323 C322 1.506 . S
C323 C324 1.358 . S
C323 C328 1.382 . S
C324 C323 1.358 . S
C324 C325 1.385 . S
C324 H352 0.930 . S
C325 C324 1.385 . S
C325 C326 1.395 . S
C325 H353 0.929 . S
C326 C325 1.395 . S
C326 C327 1.335 . S
C327 C326 1.335 . S
C327 C328 1.398 . S
C327 H354 0.930 . S
C328 C323 1.382 . S
C328 C327 1.398 . S
C328 H355 0.929 . S
C329 O342 1.271 . S
C329 O343 1.251 . S
C330 O344 1.252 . S
C330 O345 1.272 . S
C331 Sm321 2.846 . S
C331 C332 1.506 . S
C331 O346 1.261 . S
C331 O347 1.242 . S
C332 C331 1.506 . S
C332 C333 1.358 . S
C332 C337 1.382 . S
C333 C332 1.358 . S
C333 C334 1.385 . S
C333 H356 0.930 . S
C334 C333 1.385 . S
C334 C335 1.395 . S
C334 H357 0.929 . S
C335 C334 1.395 . S
C335 C336 1.335 . S
C336 C335 1.335 . S
C336 C337 1.398 . S
C336 H358 0.930 . S
C337 C332 1.382 . S
C337 C336 1.398 . S
C337 H359 0.929 . S
C338 O348 1.271 . S
C338 O349 1.251 . S
C339 O350 1.252 . S
C339 O351 1.272 . S
O340 Sm320 2.543 . S
O340 C322 1.261 . S
O341 Sm320 2.450 . S
O341 C322 1.242 . S
O342 Sm320 2.681 . S
O342 Sm321 2.386 . S
O342 C329 1.271 . S
O343 Sm320 2.464 . S
O343 C329 1.251 . S
O344 Sm320 2.396 . S
O344 C330 1.252 . S
O345 Sm321 2.408 . S
O345 C330 1.272 . S
O346 Sm321 2.543 . S
O346 C331 1.261 . S
O347 Sm321 2.450 . S
O347 C331 1.242 . S
O348 Sm320 2.386 . S
O348 Sm321 2.681 . S
O348 C338 1.271 . S
O349 Sm321 2.464 . S
O349 C338 1.251 . S
O350 Sm321 2.396 . S
O350 C339 1.252 . S
O351 Sm320 2.408 . S
O351 C339 1.272 . S
H352 C324 0.930 . S
H353 C325 0.929 . S
H354 C327 0.930 . S
H355 C328 0.929 . S
H356 C333 0.930 . S
H357 C334 0.929 . S
H358 C336 0.930 . S
H359 C337 0.929 . S
Sm360 C362 2.846 . S
Sm360 O380 2.543 . S
Sm360 O381 2.450 . S
Sm360 O382 2.681 . S
Sm360 O383 2.464 . S
Sm360 O384 2.396 . S
Sm360 O388 2.386 . S
Sm360 O391 2.408 . S
Sm361 C371 2.846 . S
Sm361 O382 2.386 . S
Sm361 O385 2.408 . S
Sm361 O386 2.543 . S
Sm361 O387 2.450 . S
Sm361 O388 2.681 . S
Sm361 O389 2.464 . S
Sm361 O390 2.396 . S
C362 Sm360 2.846 . S
C362 C363 1.506 . S
C362 O380 1.261 . S
C362 O381 1.242 . S
C363 C362 1.506 . S
C363 C364 1.358 . S
C363 C368 1.382 . S
C364 C363 1.358 . S
C364 C365 1.385 . S
C364 H392 0.930 . S
C365 C364 1.385 . S
C365 C366 1.395 . S
C365 H393 0.929 . S
C366 C365 1.395 . S
C366 C367 1.335 . S
C367 C366 1.335 . S
C367 C368 1.398 . S
C367 H394 0.930 . S
C368 C363 1.382 . S
C368 C367 1.398 . S
C368 H395 0.929 . S
C369 O382 1.271 . S
C369 O383 1.251 . S
C370 O384 1.252 . S
C370 O385 1.272 . S
C371 Sm361 2.846 . S
C371 C372 1.506 . S
C371 O386 1.261 . S
C371 O387 1.242 . S
C372 C371 1.506 . S
C372 C373 1.358 . S
C372 C377 1.382 . S
C373 C372 1.358 . S
C373 C374 1.385 . S
C373 H396 0.930 . S
C374 C373 1.385 . S
C374 C375 1.395 . S
C374 H397 0.929 . S
C375 C374 1.395 . S
C375 C376 1.335 . S
C376 C375 1.335 . S
C376 C377 1.398 . S
C376 H398 0.930 1_655 S
C377 C372 1.382 . S
C377 C376 1.398 . S
C377 H399 0.929 . S
C378 O388 1.271 . S
C378 O389 1.251 . S
C379 O390 1.252 . S
C379 O391 1.272 . S
O380 Sm360 2.543 . S
O380 C362 1.261 . S
O381 Sm360 2.450 . S
O381 C362 1.242 . S
O382 Sm360 2.681 . S
O382 Sm361 2.386 . S
O382 C369 1.271 . S
O383 Sm360 2.464 . S
O383 C369 1.251 . S
O384 Sm360 2.396 . S
O384 C370 1.252 . S
O385 Sm361 2.408 . S
O385 C370 1.272 . S
O386 Sm361 2.543 . S
O386 C371 1.261 . S
O387 Sm361 2.450 . S
O387 C371 1.242 . S
O388 Sm360 2.386 . S
O388 Sm361 2.681 . S
O388 C378 1.271 . S
O389 Sm361 2.464 . S
O389 C378 1.251 . S
O390 Sm361 2.396 . S
O390 C379 1.252 . S
O391 Sm360 2.408 . S
O391 C379 1.272 . S
H392 C364 0.930 . S
H393 C365 0.929 . S
H394 C367 0.930 . S
H395 C368 0.929 . S
H396 C373 0.930 . S
H397 C374 0.929 . S
H398 C376 0.930 1_455 S
H399 C377 0.929 . S
Sm400 C402 2.846 . S
Sm400 O420 2.543 . S
Sm400 O421 2.450 . S
Sm400 O422 2.681 . S
Sm400 O423 2.464 . S
Sm400 O424 2.396 . S
Sm400 O428 2.386 . S
Sm400 O431 2.408 . S
Sm401 C411 2.846 . S
Sm401 O422 2.386 . S
Sm401 O425 2.408 . S
Sm401 O426 2.543 . S
Sm401 O427 2.450 . S
Sm401 O428 2.681 . S
Sm401 O429 2.464 . S
Sm401 O430 2.396 . S
C402 Sm400 2.846 . S
C402 C403 1.506 . S
C402 O420 1.261 . S
C402 O421 1.242 . S
C403 C402 1.506 . S
C403 C404 1.358 . S
C403 C408 1.382 . S
C404 C403 1.358 . S
C404 C405 1.385 . S
C404 H432 0.930 . S
C405 C404 1.385 . S
C405 C406 1.395 . S
C405 H433 0.929 . S
C406 C405 1.395 . S
C406 C407 1.335 . S
C407 C406 1.335 . S
C407 C408 1.398 . S
C407 H434 0.930 . S
C408 C403 1.382 . S
C408 C407 1.398 . S
C408 H435 0.929 . S
C409 O422 1.271 . S
C409 O423 1.251 . S
C410 O424 1.252 . S
C410 O425 1.272 . S
C411 Sm401 2.846 . S
C411 C412 1.506 . S
C411 O426 1.261 . S
C411 O427 1.242 . S
C412 C411 1.506 . S
C412 C413 1.358 . S
C412 C417 1.382 . S
C413 C412 1.358 . S
C413 C414 1.385 . S
C413 H436 0.930 . S
C414 C413 1.385 . S
C414 C415 1.395 . S
C414 H437 0.929 . S
C415 C414 1.395 . S
C415 C416 1.335 . S
C416 C415 1.335 . S
C416 C417 1.398 . S
C416 H438 0.930 . S
C417 C412 1.382 . S
C417 C416 1.398 . S
C417 H439 0.929 . S
C418 O428 1.271 . S
C418 O429 1.251 . S
C419 O430 1.252 . S
C419 O431 1.272 . S
O420 Sm400 2.543 . S
O420 C402 1.261 . S
O421 Sm400 2.450 . S
O421 C402 1.242 . S
O422 Sm400 2.681 . S
O422 Sm401 2.386 . S
O422 C409 1.271 . S
O423 Sm400 2.464 . S
O423 C409 1.251 . S
O424 Sm400 2.396 . S
O424 C410 1.252 . S
O425 Sm401 2.408 . S
O425 C410 1.272 . S
O426 Sm401 2.543 . S
O426 C411 1.261 . S
O427 Sm401 2.450 . S
O427 C411 1.242 . S
O428 Sm400 2.386 . S
O428 Sm401 2.681 . S
O428 C418 1.271 . S
O429 Sm401 2.464 . S
O429 C418 1.251 . S
O430 Sm401 2.396 . S
O430 C419 1.252 . S
O431 Sm400 2.408 . S
O431 C419 1.272 . S
H432 C404 0.930 . S
H433 C405 0.929 . S
H434 C407 0.930 . S
H435 C408 0.929 . S
H436 C413 0.930 . S
H437 C414 0.929 . S
H438 C416 0.930 . S
H439 C417 0.929 . S
Sm440 C442 2.846 . S
Sm440 O460 2.543 . S
Sm440 O461 2.450 . S
Sm440 O462 2.681 . S
Sm440 O463 2.464 . S
Sm440 O464 2.396 . S
Sm440 O468 2.386 . S
Sm440 O471 2.408 . S
Sm441 C451 2.846 . S
Sm441 O462 2.386 . S
Sm441 O465 2.408 . S
Sm441 O466 2.543 . S
Sm441 O467 2.450 . S
Sm441 O468 2.681 . S
Sm441 O469 2.464 . S
Sm441 O470 2.396 . S
C442 Sm440 2.846 . S
C442 C443 1.506 . S
C442 O460 1.261 . S
C442 O461 1.242 . S
C443 C442 1.506 . S
C443 C444 1.358 . S
C443 C448 1.382 . S
C444 C443 1.358 . S
C444 C445 1.385 . S
C444 H472 0.930 . S
C445 C444 1.385 . S
C445 C446 1.395 . S
C445 H473 0.929 . S
C446 C445 1.395 . S
C446 C447 1.335 . S
C447 C446 1.335 . S
C447 C448 1.398 . S
C447 H474 0.930 . S
C448 C443 1.382 . S
C448 C447 1.398 . S
C448 H475 0.929 . S
C449 O462 1.271 . S
C449 O463 1.251 . S
C450 O464 1.252 . S
C450 O465 1.272 . S
C451 Sm441 2.846 . S
C451 C452 1.506 . S
C451 O466 1.261 . S
C451 O467 1.242 . S
C452 C451 1.506 . S
C452 C453 1.358 . S
C452 C457 1.382 . S
C453 C452 1.358 . S
C453 C454 1.385 . S
C453 H476 0.930 . S
C454 C453 1.385 . S
C454 C455 1.395 . S
C454 H477 0.929 . S
C455 C454 1.395 . S
C455 C456 1.335 . S
C456 C455 1.335 . S
C456 C457 1.398 . S
C456 H478 0.930 1_655 S
C457 C452 1.382 . S
C457 C456 1.398 . S
C457 H479 0.929 . S
C458 O468 1.271 . S
C458 O469 1.251 . S
C459 O470 1.252 . S
C459 O471 1.272 . S
O460 Sm440 2.543 . S
O460 C442 1.261 . S
O461 Sm440 2.450 . S
O461 C442 1.242 . S
O462 Sm440 2.681 . S
O462 Sm441 2.386 . S
O462 C449 1.271 . S
O463 Sm440 2.464 . S
O463 C449 1.251 . S
O464 Sm440 2.396 . S
O464 C450 1.252 . S
O465 Sm441 2.408 . S
O465 C450 1.272 . S
O466 Sm441 2.543 . S
O466 C451 1.261 . S
O467 Sm441 2.450 . S
O467 C451 1.242 . S
O468 Sm440 2.386 . S
O468 Sm441 2.681 . S
O468 C458 1.271 . S
O469 Sm441 2.464 . S
O469 C458 1.251 . S
O470 Sm441 2.396 . S
O470 C459 1.252 . S
O471 Sm440 2.408 . S
O471 C459 1.272 . S
H472 C444 0.930 . S
H473 C445 0.929 . S
H474 C447 0.930 . S
H475 C448 0.929 . S
H476 C453 0.930 . S
H477 C454 0.929 . S
H478 C456 0.930 1_455 S
H479 C457 0.929 . S
Sm480 C482 2.846 . S
Sm480 O500 2.543 . S
Sm480 O501 2.450 . S
Sm480 O502 2.681 . S
Sm480 O503 2.464 . S
Sm480 O504 2.396 . S
Sm480 O508 2.386 . S
Sm480 O511 2.408 . S
Sm481 C491 2.846 . S
Sm481 O502 2.386 . S
Sm481 O505 2.408 . S
Sm481 O506 2.543 . S
Sm481 O507 2.450 . S
Sm481 O508 2.681 . S
Sm481 O509 2.464 . S
Sm481 O510 2.396 . S
C482 Sm480 2.846 . S
C482 C483 1.506 . S
C482 O500 1.261 . S
C482 O501 1.242 . S
C483 C482 1.506 . S
C483 C484 1.358 . S
C483 C488 1.382 . S
C484 C483 1.358 . S
C484 C485 1.385 . S
C484 H512 0.930 . S
C485 C484 1.385 . S
C485 C486 1.395 . S
C485 H513 0.929 . S
C486 C485 1.395 . S
C486 C487 1.335 . S
C487 C486 1.335 . S
C487 C488 1.398 . S
C487 H514 0.930 . S
C488 C483 1.382 . S
C488 C487 1.398 . S
C488 H515 0.929 . S
C489 O502 1.271 . S
C489 O503 1.251 . S
C490 O504 1.252 . S
C490 O505 1.272 . S
C491 Sm481 2.846 . S
C491 C492 1.506 . S
C491 O506 1.261 . S
C491 O507 1.242 . S
C492 C491 1.506 . S
C492 C493 1.358 . S
C492 C497 1.382 . S
C493 C492 1.358 . S
C493 C494 1.385 . S
C493 H516 0.930 . S
C494 C493 1.385 . S
C494 C495 1.395 . S
C494 H517 0.929 . S
C495 C494 1.395 . S
C495 C496 1.335 . S
C496 C495 1.335 . S
C496 C497 1.398 . S
C496 H518 0.930 . S
C497 C492 1.382 . S
C497 C496 1.398 . S
C497 H519 0.929 . S
C498 O508 1.271 . S
C498 O509 1.251 . S
C499 O510 1.252 . S
C499 O511 1.272 . S
O500 Sm480 2.543 . S
O500 C482 1.261 . S
O501 Sm480 2.450 . S
O501 C482 1.242 . S
O502 Sm480 2.681 . S
O502 Sm481 2.386 . S
O502 C489 1.271 . S
O503 Sm480 2.464 . S
O503 C489 1.251 . S
O504 Sm480 2.396 . S
O504 C490 1.252 . S
O505 Sm481 2.408 . S
O505 C490 1.272 . S
O506 Sm481 2.543 . S
O506 C491 1.261 . S
O507 Sm481 2.450 . S
O507 C491 1.242 . S
O508 Sm480 2.386 . S
O508 Sm481 2.681 . S
O508 C498 1.271 . S
O509 Sm481 2.464 . S
O509 C498 1.251 . S
O510 Sm481 2.396 . S
O510 C499 1.252 . S
O511 Sm480 2.408 . S
O511 C499 1.272 . S
H512 C484 0.930 . S
H513 C485 0.929 . S
H514 C487 0.930 . S
H515 C488 0.929 . S
H516 C493 0.930 . S
H517 C494 0.929 . S
H518 C496 0.930 . S
H519 C497 0.929 . S
Sm520 C522 2.846 . S
Sm520 O540 2.543 . S
Sm520 O541 2.450 . S
Sm520 O542 2.681 . S
Sm520 O543 2.464 . S
Sm520 O544 2.396 . S
Sm520 O548 2.386 . S
Sm520 O551 2.408 . S
Sm521 C531 2.846 . S
Sm521 O542 2.386 . S
Sm521 O545 2.408 . S
Sm521 O546 2.543 . S
Sm521 O547 2.450 . S
Sm521 O548 2.681 . S
Sm521 O549 2.464 . S
Sm521 O550 2.396 . S
C522 Sm520 2.846 . S
C522 C523 1.506 . S
C522 O540 1.261 . S
C522 O541 1.242 . S
C523 C522 1.506 . S
C523 C524 1.358 . S
C523 C528 1.382 . S
C524 C523 1.358 . S
C524 C525 1.385 . S
C524 H552 0.930 . S
C525 C524 1.385 . S
C525 C526 1.395 . S
C525 H553 0.929 . S
C526 C525 1.395 . S
C526 C527 1.335 . S
C527 C526 1.335 . S
C527 C528 1.398 . S
C527 H554 0.930 1_455 S
C528 C523 1.382 . S
C528 C527 1.398 . S
C528 H555 0.929 . S
C529 O542 1.271 . S
C529 O543 1.251 . S
C530 O544 1.252 . S
C530 O545 1.272 . S
C531 Sm521 2.846 . S
C531 C532 1.506 . S
C531 O546 1.261 . S
C531 O547 1.242 . S
C532 C531 1.506 . S
C532 C533 1.358 . S
C532 C537 1.382 . S
C533 C532 1.358 . S
C533 C534 1.385 . S
C533 H556 0.930 . S
C534 C533 1.385 . S
C534 C535 1.395 . S
C534 H557 0.929 . S
C535 C534 1.395 . S
C535 C536 1.335 . S
C536 C535 1.335 . S
C536 C537 1.398 . S
C536 H558 0.930 . S
C537 C532 1.382 . S
C537 C536 1.398 . S
C537 H559 0.929 . S
C538 O548 1.271 . S
C538 O549 1.251 . S
C539 O550 1.252 . S
C539 O551 1.272 . S
O540 Sm520 2.543 . S
O540 C522 1.261 . S
O541 Sm520 2.450 . S
O541 C522 1.242 . S
O542 Sm520 2.681 . S
O542 Sm521 2.386 . S
O542 C529 1.271 . S
O543 Sm520 2.464 . S
O543 C529 1.251 . S
O544 Sm520 2.396 . S
O544 C530 1.252 . S
O545 Sm521 2.408 . S
O545 C530 1.272 . S
O546 Sm521 2.543 . S
O546 C531 1.261 . S
O547 Sm521 2.450 . S
O547 C531 1.242 . S
O548 Sm520 2.386 . S
O548 Sm521 2.681 . S
O548 C538 1.271 . S
O549 Sm521 2.464 . S
O549 C538 1.251 . S
O550 Sm521 2.396 . S
O550 C539 1.252 . S
O551 Sm520 2.408 . S
O551 C539 1.272 . S
H552 C524 0.930 . S
H553 C525 0.929 . S
H554 C527 0.930 1_655 S
H555 C528 0.929 . S
H556 C533 0.930 . S
H557 C534 0.929 . S
H558 C536 0.930 . S
H559 C537 0.929 . S
Sm560 C562 2.846 . S
Sm560 O580 2.543 . S
Sm560 O581 2.450 . S
Sm560 O582 2.681 . S
Sm560 O583 2.464 . S
Sm560 O584 2.396 . S
Sm560 O588 2.386 . S
Sm560 O591 2.408 . S
Sm561 C571 2.846 . S
Sm561 O582 2.386 . S
Sm561 O585 2.408 . S
Sm561 O586 2.543 . S
Sm561 O587 2.450 . S
Sm561 O588 2.681 . S
Sm561 O589 2.464 . S
Sm561 O590 2.396 . S
C562 Sm560 2.846 . S
C562 C563 1.506 . S
C562 O580 1.261 . S
C562 O581 1.242 . S
C563 C562 1.506 . S
C563 C564 1.358 . S
C563 C568 1.382 . S
C564 C563 1.358 . S
C564 C565 1.385 . S
C564 H592 0.930 . S
C565 C564 1.385 . S
C565 C566 1.395 . S
C565 H593 0.929 . S
C566 C565 1.395 . S
C566 C567 1.335 . S
C567 C566 1.335 . S
C567 C568 1.398 . S
C567 H594 0.930 . S
C568 C563 1.382 . S
C568 C567 1.398 . S
C568 H595 0.929 . S
C569 O582 1.271 . S
C569 O583 1.251 . S
C570 O584 1.252 . S
C570 O585 1.272 . S
C571 Sm561 2.846 . S
C571 C572 1.506 . S
C571 O586 1.261 . S
C571 O587 1.242 . S
C572 C571 1.506 . S
C572 C573 1.358 . S
C572 C577 1.382 . S
C573 C572 1.358 . S
C573 C574 1.385 . S
C573 H596 0.930 . S
C574 C573 1.385 . S
C574 C575 1.395 . S
C574 H597 0.929 . S
C575 C574 1.395 . S
C575 C576 1.335 . S
C576 C575 1.335 . S
C576 C577 1.398 . S
C576 H598 0.930 . S
C577 C572 1.382 . S
C577 C576 1.398 . S
C577 H599 0.929 . S
C578 O588 1.271 . S
C578 O589 1.251 . S
C579 O590 1.252 . S
C579 O591 1.272 . S
O580 Sm560 2.543 . S
O580 C562 1.261 . S
O581 Sm560 2.450 . S
O581 C562 1.242 . S
O582 Sm560 2.681 . S
O582 Sm561 2.386 . S
O582 C569 1.271 . S
O583 Sm560 2.464 . S
O583 C569 1.251 . S
O584 Sm560 2.396 . S
O584 C570 1.252 . S
O585 Sm561 2.408 . S
O585 C570 1.272 . S
O586 Sm561 2.543 . S
O586 C571 1.261 . S
O587 Sm561 2.450 . S
O587 C571 1.242 . S
O588 Sm560 2.386 . S
O588 Sm561 2.681 . S
O588 C578 1.271 . S
O589 Sm561 2.464 . S
O589 C578 1.251 . S
O590 Sm561 2.396 . S
O590 C579 1.252 . S
O591 Sm560 2.408 . S
O591 C579 1.272 . S
H592 C564 0.930 . S
H593 C565 0.929 . S
H594 C567 0.930 . S
H595 C568 0.929 . S
H596 C573 0.930 . S
H597 C574 0.929 . S
H598 C576 0.930 . S
H599 C577 0.929 . S
Sm600 C602 2.846 . S
Sm600 O620 2.543 . S
Sm600 O621 2.450 . S
Sm600 O622 2.681 . S
Sm600 O623 2.464 . S
Sm600 O624 2.396 . S
Sm600 O628 2.386 . S
Sm600 O631 2.408 . S
Sm601 C611 2.846 . S
Sm601 O622 2.386 . S
Sm601 O625 2.408 . S
Sm601 O626 2.543 . S
Sm601 O627 2.450 . S
Sm601 O628 2.681 . S
Sm601 O629 2.464 . S
Sm601 O630 2.396 . S
C602 Sm600 2.846 . S
C602 C603 1.506 . S
C602 O620 1.261 . S
C602 O621 1.242 . S
C603 C602 1.506 . S
C603 C604 1.358 . S
C603 C608 1.382 . S
C604 C603 1.358 . S
C604 C605 1.385 . S
C604 H632 0.930 . S
C605 C604 1.385 . S
C605 C606 1.395 . S
C605 H633 0.929 . S
C606 C605 1.395 . S
C606 C607 1.335 . S
C607 C606 1.335 . S
C607 C608 1.398 . S
C607 H634 0.930 1_455 S
C608 C603 1.382 . S
C608 C607 1.398 . S
C608 H635 0.929 . S
C609 O622 1.271 . S
C609 O623 1.251 . S
C610 O624 1.252 . S
C610 O625 1.272 . S
C611 Sm601 2.846 . S
C611 C612 1.506 . S
C611 O626 1.261 . S
C611 O627 1.242 . S
C612 C611 1.506 . S
C612 C613 1.358 . S
C612 C617 1.382 . S
C613 C612 1.358 . S
C613 C614 1.385 . S
C613 H636 0.930 . S
C614 C613 1.385 . S
C614 C615 1.395 . S
C614 H637 0.929 . S
C615 C614 1.395 . S
C615 C616 1.335 . S
C616 C615 1.335 . S
C616 C617 1.398 . S
C616 H638 0.930 . S
C617 C612 1.382 . S
C617 C616 1.398 . S
C617 H639 0.929 . S
C618 O628 1.271 . S
C618 O629 1.251 . S
C619 O630 1.252 . S
C619 O631 1.272 . S
O620 Sm600 2.543 . S
O620 C602 1.261 . S
O621 Sm600 2.450 . S
O621 C602 1.242 . S
O622 Sm600 2.681 . S
O622 Sm601 2.386 . S
O622 C609 1.271 . S
O623 Sm600 2.464 . S
O623 C609 1.251 . S
O624 Sm600 2.396 . S
O624 C610 1.252 . S
O625 Sm601 2.408 . S
O625 C610 1.272 . S
O626 Sm601 2.543 . S
O626 C611 1.261 . S
O627 Sm601 2.450 . S
O627 C611 1.242 . S
O628 Sm600 2.386 . S
O628 Sm601 2.681 . S
O628 C618 1.271 . S
O629 Sm601 2.464 . S
O629 C618 1.251 . S
O630 Sm601 2.396 . S
O630 C619 1.252 . S
O631 Sm600 2.408 . S
O631 C619 1.272 . S
H632 C604 0.930 . S
H633 C605 0.929 . S
H634 C607 0.930 1_655 S
H635 C608 0.929 . S
H636 C613 0.930 . S
H637 C614 0.929 . S
H638 C616 0.930 . S
H639 C617 0.929 . S
Sm640 C642 2.846 . S
Sm640 O660 2.543 1_545 S
Sm640 O661 2.450 . S
Sm640 O662 2.681 . S
Sm640 O663 2.464 . S
Sm640 O664 2.396 . S
Sm640 O668 2.386 1_545 S
Sm640 O671 2.408 . S
Sm641 C651 2.846 1_565 S
Sm641 O662 2.373 1_565 S
Sm641 O665 2.406 1_565 S
Sm641 O666 2.535 1_565 S
Sm641 O667 2.457 . S
Sm641 O668 2.689 . S
Sm641 O669 2.481 . S
Sm641 O670 2.399 . S
C642 Sm640 2.846 . S
C642 C643 1.506 . S
C642 O660 1.261 1_545 S
C642 O661 1.242 . S
C643 C642 1.506 . S
C643 C644 1.358 1_545 S
C643 C648 1.382 . S
C644 C643 1.358 1_565 S
C644 C645 1.385 . S
C644 H672 0.930 . S
C645 C644 1.385 . S
C645 C646 1.395 1_565 S
C645 H673 0.929 . S
C646 C645 1.395 1_545 S
C646 C647 1.335 1_655 S
C647 C646 1.335 1_455 S
C647 C648 1.398 1_455 S
C647 H674 0.930 . S
C648 C643 1.382 . S
C648 C647 1.398 1_655 S
C648 H675 0.929 . S
C649 O662 1.271 . S
C649 O663 1.251 . S
C650 O664 1.252 . S
C650 O665 1.272 . S
C651 Sm641 2.846 1_545 S
C651 C652 1.505 1_545 S
C651 O666 1.272 . S
C651 O667 1.232 1_545 S
C652 C651 1.505 1_565 S
C652 C653 1.334 1_565 S
C652 C657 1.408 . S
C653 C652 1.334 1_545 S
C653 C654 1.385 . S
C653 H676 0.930 . S
C654 C653 1.385 . S
C654 C655 1.395 1_545 S
C654 H677 0.929 . S
C655 C654 1.395 1_565 S
C655 C656 1.335 . S
C656 C655 1.335 . S
C656 C657 1.398 . S
C656 H678 0.930 . S
C657 C652 1.408 . S
C657 C656 1.398 . S
C657 H679 0.929 . S
C658 O668 1.271 . S
C658 O669 1.251 . S
C659 O670 1.242 1_545 S
C659 O671 1.279 . S
O660 Sm640 2.543 1_565 S
O660 C642 1.261 1_565 S
O661 Sm640 2.450 . S
O661 C642 1.242 . S
O662 Sm640 2.681 . S
O662 Sm641 2.373 1_545 S
O662 C649 1.271 . S
O663 Sm640 2.464 . S
O663 C649 1.251 . S
O664 Sm640 2.396 . S
O664 C650 1.252 . S
O665 Sm641 2.406 1_545 S
O665 C650 1.272 . S
O666 Sm641 2.535 1_545 S
O666 C651 1.272 . S
O667 Sm641 2.457 . S
O667 C651 1.232 1_565 S
O668 Sm640 2.386 1_565 S
O668 Sm641 2.689 . S
O668 C658 1.271 . S
O669 Sm641 2.481 . S
O669 C658 1.251 . S
O670 Sm641 2.399 . S
O670 C659 1.242 1_565 S
O671 Sm640 2.408 . S
O671 C659 1.279 . S
H672 C644 0.930 . S
H673 C645 0.929 . S
H674 C647 0.930 . S
H675 C648 0.929 . S
H676 C653 0.930 . S
H677 C654 0.929 . S
H678 C656 0.930 . S
H679 C657 0.929 . S
Sm680 C682 2.846 . S
Sm680 O700 2.543 . S
Sm680 O701 2.450 . S
Sm680 O702 2.681 . S
Sm680 O703 2.464 . S
Sm680 O704 2.396 . S
Sm680 O708 2.386 . S
Sm680 O711 2.408 . S
Sm681 C691 2.846 . S
Sm681 O702 2.386 . S
Sm681 O705 2.408 . S
Sm681 O706 2.543 . S
Sm681 O707 2.450 . S
Sm681 O708 2.681 . S
Sm681 O709 2.464 . S
Sm681 O710 2.396 . S
C682 Sm680 2.846 . S
C682 C683 1.506 . S
C682 O700 1.261 . S
C682 O701 1.242 . S
C683 C682 1.506 . S
C683 C684 1.358 . S
C683 C688 1.382 . S
C684 C683 1.358 . S
C684 C685 1.385 . S
C684 H712 0.930 . S
C685 C684 1.385 . S
C685 C686 1.395 . S
C685 H713 0.929 . S
C686 C685 1.395 . S
C686 C687 1.335 . S
C687 C686 1.335 . S
C687 C688 1.398 . S
C687 H714 0.930 . S
C688 C683 1.382 . S
C688 C687 1.398 . S
C688 H715 0.929 . S
C689 O702 1.271 . S
C689 O703 1.251 . S
C690 O704 1.252 . S
C690 O705 1.272 . S
C691 Sm681 2.846 . S
C691 C692 1.506 . S
C691 O706 1.261 . S
C691 O707 1.242 . S
C692 C691 1.506 . S
C692 C693 1.358 . S
C692 C697 1.382 . S
C693 C692 1.358 . S
C693 C694 1.385 . S
C693 H716 0.930 . S
C694 C693 1.385 . S
C694 C695 1.395 . S
C694 H717 0.929 . S
C695 C694 1.395 . S
C695 C696 1.335 . S
C696 C695 1.335 . S
C696 C697 1.398 . S
C696 H718 0.930 . S
C697 C692 1.382 . S
C697 C696 1.398 . S
C697 H719 0.929 . S
C698 O708 1.271 . S
C698 O709 1.251 . S
C699 O710 1.252 . S
C699 O711 1.272 . S
O700 Sm680 2.543 . S
O700 C682 1.261 . S
O701 Sm680 2.450 . S
O701 C682 1.242 . S
O702 Sm680 2.681 . S
O702 Sm681 2.386 . S
O702 C689 1.271 . S
O703 Sm680 2.464 . S
O703 C689 1.251 . S
O704 Sm680 2.396 . S
O704 C690 1.252 . S
O705 Sm681 2.408 . S
O705 C690 1.272 . S
O706 Sm681 2.543 . S
O706 C691 1.261 . S
O707 Sm681 2.450 . S
O707 C691 1.242 . S
O708 Sm680 2.386 . S
O708 Sm681 2.681 . S
O708 C698 1.271 . S
O709 Sm681 2.464 . S
O709 C698 1.251 . S
O710 Sm681 2.396 . S
O710 C699 1.252 . S
O711 Sm680 2.408 . S
O711 C699 1.272 . S
H712 C684 0.930 . S
H713 C685 0.929 . S
H714 C687 0.930 . S
H715 C688 0.929 . S
H716 C693 0.930 . S
H717 C694 0.929 . S
H718 C696 0.930 . S
H719 C697 0.929 . S
Sm720 C722 2.846 . S
Sm720 O740 2.543 . S
Sm720 O741 2.450 . S
Sm720 O742 2.681 . S
Sm720 O743 2.464 . S
Sm720 O744 2.396 . S
Sm720 O748 2.386 . S
Sm720 O751 2.408 . S
Sm721 C731 2.846 . S
Sm721 O742 2.386 . S
Sm721 O745 2.408 . S
Sm721 O746 2.543 . S
Sm721 O747 2.450 . S
Sm721 O748 2.681 . S
Sm721 O749 2.464 . S
Sm721 O750 2.396 . S
C722 Sm720 2.846 . S
C722 C723 1.506 . S
C722 O740 1.261 . S
C722 O741 1.242 . S
C723 C722 1.506 . S
C723 C724 1.358 . S
C723 C728 1.382 . S
C724 C723 1.358 . S
C724 C725 1.385 . S
C724 H752 0.930 . S
C725 C724 1.385 . S
C725 C726 1.395 . S
C725 H753 0.929 . S
C726 C725 1.395 . S
C726 C727 1.335 1_655 S
C727 C726 1.335 1_455 S
C727 C728 1.398 1_455 S
C727 H754 0.930 . S
C728 C723 1.382 . S
C728 C727 1.398 1_655 S
C728 H755 0.929 . S
C729 O742 1.271 . S
C729 O743 1.251 . S
C730 O744 1.252 . S
C730 O745 1.272 . S
C731 Sm721 2.846 . S
C731 C732 1.506 . S
C731 O746 1.261 . S
C731 O747 1.242 . S
C732 C731 1.506 . S
C732 C733 1.358 . S
C732 C737 1.382 . S
C733 C732 1.358 . S
C733 C734 1.385 . S
C733 H756 0.930 . S
C734 C733 1.385 . S
C734 C735 1.395 . S
C734 H757 0.929 . S
C735 C734 1.395 . S
C735 C736 1.335 . S
C736 C735 1.335 . S
C736 C737 1.398 . S
C736 H758 0.930 . S
C737 C732 1.382 . S
C737 C736 1.398 . S
C737 H759 0.929 . S
C738 O748 1.271 . S
C738 O749 1.251 . S
C739 O750 1.252 . S
C739 O751 1.272 . S
O740 Sm720 2.543 . S
O740 C722 1.261 . S
O741 Sm720 2.450 . S
O741 C722 1.242 . S
O742 Sm720 2.681 . S
O742 Sm721 2.386 . S
O742 C729 1.271 . S
O743 Sm720 2.464 . S
O743 C729 1.251 . S
O744 Sm720 2.396 . S
O744 C730 1.252 . S
O745 Sm721 2.408 . S
O745 C730 1.272 . S
O746 Sm721 2.543 . S
O746 C731 1.261 . S
O747 Sm721 2.450 . S
O747 C731 1.242 . S
O748 Sm720 2.386 . S
O748 Sm721 2.681 . S
O748 C738 1.271 . S
O749 Sm721 2.464 . S
O749 C738 1.251 . S
O750 Sm721 2.396 . S
O750 C739 1.252 . S
O751 Sm720 2.408 . S
O751 C739 1.272 . S
H752 C724 0.930 . S
H753 C725 0.929 . S
H754 C727 0.930 . S
H755 C728 0.929 . S
H756 C733 0.930 . S
H757 C734 0.929 . S
H758 C736 0.930 . S
H759 C737 0.929 . S
Sm760 C762 2.846 . S
Sm760 O780 2.543 1_545 S
Sm760 O781 2.450 . S
Sm760 O782 2.681 . S
Sm760 O783 2.464 . S
Sm760 O784 2.396 . S
Sm760 O788 2.386 1_545 S
Sm760 O791 2.408 . S
Sm761 C771 2.846 1_565 S
Sm761 O782 2.373 1_565 S
Sm761 O785 2.406 1_565 S
Sm761 O786 2.535 1_565 S
Sm761 O787 2.457 . S
Sm761 O788 2.689 . S
Sm761 O789 2.481 . S
Sm761 O790 2.399 . S
C762 Sm760 2.846 . S
C762 C763 1.506 . S
C762 O780 1.261 1_545 S
C762 O781 1.242 . S
C763 C762 1.506 . S
C763 C764 1.358 1_545 S
C763 C768 1.382 . S
C764 C763 1.358 1_565 S
C764 C765 1.385 . S
C764 H792 0.930 . S
C765 C764 1.385 . S
C765 C766 1.395 1_565 S
C765 H793 0.929 . S
C766 C765 1.395 1_545 S
C766 C767 1.335 . S
C767 C766 1.335 . S
C767 C768 1.398 . S
C767 H794 0.930 . S
C768 C763 1.382 . S
C768 C767 1.398 . S
C768 H795 0.929 . S
C769 O782 1.271 . S
C769 O783 1.251 . S
C770 O784 1.252 . S
C770 O785 1.272 . S
C771 Sm761 2.846 1_545 S
C771 C772 1.505 1_545 S
C771 O786 1.271 . S
C771 O787 1.232 1_545 S
C772 C771 1.505 1_565 S
C772 C773 1.334 1_565 S
C772 C777 1.408 . S
C773 C772 1.334 1_545 S
C773 C774 1.385 . S
C773 H796 0.930 . S
C774 C773 1.385 . S
C774 C775 1.395 1_545 S
C774 H797 0.929 . S
C775 C774 1.395 1_565 S
C775 C776 1.335 . S
C776 C775 1.335 . S
C776 C777 1.398 . S
C776 H798 0.930 . S
C777 C772 1.408 . S
C777 C776 1.398 . S
C777 H799 0.929 . S
C778 O788 1.271 . S
C778 O789 1.251 . S
C779 O790 1.242 1_545 S
C779 O791 1.278 . S
O780 Sm760 2.543 1_565 S
O780 C762 1.261 1_565 S
O781 Sm760 2.450 . S
O781 C762 1.242 . S
O782 Sm760 2.681 . S
O782 Sm761 2.373 1_545 S
O782 C769 1.271 . S
O783 Sm760 2.464 . S
O783 C769 1.251 . S
O784 Sm760 2.396 . S
O784 C770 1.252 . S
O785 Sm761 2.406 1_545 S
O785 C770 1.272 . S
O786 Sm761 2.535 1_545 S
O786 C771 1.271 . S
O787 Sm761 2.457 . S
O787 C771 1.232 1_565 S
O788 Sm760 2.386 1_565 S
O788 Sm761 2.689 . S
O788 C778 1.271 . S
O789 Sm761 2.481 . S
O789 C778 1.251 . S
O790 Sm761 2.399 . S
O790 C779 1.242 1_565 S
O791 Sm760 2.408 . S
O791 C779 1.278 . S
H792 C764 0.930 . S
H793 C765 0.929 . S
H794 C767 0.930 . S
H795 C768 0.929 . S
H796 C773 0.930 . S
H797 C774 0.929 . S
H798 C776 0.930 . S
H799 C777 0.929 . S
Sm800 C802 2.846 1_545 S
Sm800 O820 2.535 1_545 S
Sm800 O821 2.457 . S
Sm800 O822 2.689 . S
Sm800 O823 2.481 . S
Sm800 O824 2.399 . S
Sm800 O828 2.373 1_545 S
Sm800 O831 2.406 1_545 S
Sm801 C811 2.846 . S
Sm801 O822 2.386 1_565 S
Sm801 O825 2.408 . S
Sm801 O826 2.543 1_565 S
Sm801 O827 2.450 . S
Sm801 O828 2.681 . S
Sm801 O829 2.464 . S
Sm801 O830 2.396 . S
C802 Sm800 2.846 1_565 S
C802 C803 1.505 1_565 S
C802 O820 1.272 . S
C802 O821 1.232 1_565 S
C803 C802 1.505 1_545 S
C803 C804 1.334 1_545 S
C803 C808 1.408 . S
C804 C803 1.334 1_565 S
C804 C805 1.385 . S
C804 H832 0.930 . S
C805 C804 1.385 . S
C805 C806 1.395 1_565 S
C805 H833 0.929 . S
C806 C805 1.395 1_545 S
C806 C807 1.335 . S
C807 C806 1.335 . S
C807 C808 1.398 . S
C807 H834 0.930 . S
C808 C803 1.408 . S
C808 C807 1.398 . S
C808 H835 0.929 . S
C809 O822 1.271 . S
C809 O823 1.251 . S
C810 O824 1.242 1_565 S
C810 O825 1.279 . S
C811 Sm801 2.846 . S
C811 C812 1.506 . S
C811 O826 1.261 1_565 S
C811 O827 1.242 . S
C812 C811 1.506 . S
C812 C813 1.358 1_565 S
C812 C817 1.382 . S
C813 C812 1.358 1_545 S
C813 C814 1.385 . S
C813 H836 0.930 . S
C814 C813 1.385 . S
C814 C815 1.395 1_545 S
C814 H837 0.929 . S
C815 C814 1.395 1_565 S
C815 C816 1.335 1_455 S
C816 C815 1.335 1_655 S
C816 C817 1.398 1_655 S
C816 H838 0.930 . S
C817 C812 1.382 . S
C817 C816 1.398 1_455 S
C817 H839 0.929 . S
C818 O828 1.271 . S
C818 O829 1.251 . S
C819 O830 1.252 . S
C819 O831 1.272 . S
O820 Sm800 2.535 1_565 S
O820 C802 1.272 . S
O821 Sm800 2.457 . S
O821 C802 1.232 1_545 S
O822 Sm800 2.689 . S
O822 Sm801 2.386 1_545 S
O822 C809 1.271 . S
O823 Sm800 2.481 . S
O823 C809 1.251 . S
O824 Sm800 2.399 . S
O824 C810 1.242 1_545 S
O825 Sm801 2.408 . S
O825 C810 1.279 . S
O826 Sm801 2.543 1_545 S
O826 C811 1.261 1_545 S
O827 Sm801 2.450 . S
O827 C811 1.242 . S
O828 Sm800 2.373 1_565 S
O828 Sm801 2.681 . S
O828 C818 1.271 . S
O829 Sm801 2.464 . S
O829 C818 1.251 . S
O830 Sm801 2.396 . S
O830 C819 1.252 . S
O831 Sm800 2.406 1_565 S
O831 C819 1.272 . S
H832 C804 0.930 . S
H833 C805 0.929 . S
H834 C807 0.930 . S
H835 C808 0.929 . S
H836 C813 0.930 . S
H837 C814 0.929 . S
H838 C816 0.930 . S
H839 C817 0.929 . S
Sm840 C842 2.846 . S
Sm840 O860 2.543 . S
Sm840 O861 2.450 . S
Sm840 O862 2.681 . S
Sm840 O863 2.464 . S
Sm840 O864 2.396 . S
Sm840 O868 2.386 . S
Sm840 O871 2.408 . S
Sm841 C851 2.846 . S
Sm841 O862 2.386 . S
Sm841 O865 2.408 . S
Sm841 O866 2.543 . S
Sm841 O867 2.450 . S
Sm841 O868 2.681 . S
Sm841 O869 2.464 . S
Sm841 O870 2.396 . S
C842 Sm840 2.846 . S
C842 C843 1.506 . S
C842 O860 1.261 . S
C842 O861 1.242 . S
C843 C842 1.506 . S
C843 C844 1.358 . S
C843 C848 1.382 . S
C844 C843 1.358 . S
C844 C845 1.385 . S
C844 H872 0.930 . S
C845 C844 1.385 . S
C845 C846 1.395 . S
C845 H873 0.929 . S
C846 C845 1.395 . S
C846 C847 1.335 . S
C847 C846 1.335 . S
C847 C848 1.398 . S
C847 H874 0.930 . S
C848 C843 1.382 . S
C848 C847 1.398 . S
C848 H875 0.929 . S
C849 O862 1.271 . S
C849 O863 1.251 . S
C850 O864 1.252 . S
C850 O865 1.272 . S
C851 Sm841 2.846 . S
C851 C852 1.506 . S
C851 O866 1.261 . S
C851 O867 1.242 . S
C852 C851 1.506 . S
C852 C853 1.358 . S
C852 C857 1.382 . S
C853 C852 1.358 . S
C853 C854 1.385 . S
C853 H876 0.930 . S
C854 C853 1.385 . S
C854 C855 1.395 . S
C854 H877 0.929 . S
C855 C854 1.395 . S
C855 C856 1.335 . S
C856 C855 1.335 . S
C856 C857 1.398 . S
C856 H878 0.930 . S
C857 C852 1.382 . S
C857 C856 1.398 . S
C857 H879 0.929 . S
C858 O868 1.271 . S
C858 O869 1.251 . S
C859 O870 1.252 . S
C859 O871 1.272 . S
O860 Sm840 2.543 . S
O860 C842 1.261 . S
O861 Sm840 2.450 . S
O861 C842 1.242 . S
O862 Sm840 2.681 . S
O862 Sm841 2.386 . S
O862 C849 1.271 . S
O863 Sm840 2.464 . S
O863 C849 1.251 . S
O864 Sm840 2.396 . S
O864 C850 1.252 . S
O865 Sm841 2.408 . S
O865 C850 1.272 . S
O866 Sm841 2.543 . S
O866 C851 1.261 . S
O867 Sm841 2.450 . S
O867 C851 1.242 . S
O868 Sm840 2.386 . S
O868 Sm841 2.681 . S
O868 C858 1.271 . S
O869 Sm841 2.464 . S
O869 C858 1.251 . S
O870 Sm841 2.396 . S
O870 C859 1.252 . S
O871 Sm840 2.408 . S
O871 C859 1.272 . S
H872 C844 0.930 . S
H873 C845 0.929 . S
H874 C847 0.930 . S
H875 C848 0.929 . S
H876 C853 0.930 . S
H877 C854 0.929 . S
H878 C856 0.930 . S
H879 C857 0.929 . S
Sm880 C882 2.846 . S
Sm880 O900 2.543 . S
Sm880 O901 2.450 . S
Sm880 O902 2.681 . S
Sm880 O903 2.464 . S
Sm880 O904 2.396 . S
Sm880 O908 2.386 . S
Sm880 O911 2.408 . S
Sm881 C891 2.846 . S
Sm881 O902 2.386 . S
Sm881 O905 2.408 . S
Sm881 O906 2.543 . S
Sm881 O907 2.450 . S
Sm881 O908 2.681 . S
Sm881 O909 2.464 . S
Sm881 O910 2.396 . S
C882 Sm880 2.846 . S
C882 C883 1.506 . S
C882 O900 1.261 . S
C882 O901 1.242 . S
C883 C882 1.506 . S
C883 C884 1.358 . S
C883 C888 1.382 . S
C884 C883 1.358 . S
C884 C885 1.385 . S
C884 H912 0.930 . S
C885 C884 1.385 . S
C885 C886 1.395 . S
C885 H913 0.929 . S
C886 C885 1.395 . S
C886 C887 1.335 . S
C887 C886 1.335 . S
C887 C888 1.398 . S
C887 H914 0.930 . S
C888 C883 1.382 . S
C888 C887 1.398 . S
C888 H915 0.929 . S
C889 O902 1.271 . S
C889 O903 1.251 . S
C890 O904 1.252 . S
C890 O905 1.272 . S
C891 Sm881 2.846 . S
C891 C892 1.506 . S
C891 O906 1.261 . S
C891 O907 1.242 . S
C892 C891 1.506 . S
C892 C893 1.358 . S
C892 C897 1.382 . S
C893 C892 1.358 . S
C893 C894 1.385 . S
C893 H916 0.930 . S
C894 C893 1.385 . S
C894 C895 1.395 . S
C894 H917 0.929 . S
C895 C894 1.395 . S
C895 C896 1.335 1_455 S
C896 C895 1.335 1_655 S
C896 C897 1.398 1_655 S
C896 H918 0.930 . S
C897 C892 1.382 . S
C897 C896 1.398 1_455 S
C897 H919 0.929 . S
C898 O908 1.271 . S
C898 O909 1.251 . S
C899 O910 1.252 . S
C899 O911 1.272 . S
O900 Sm880 2.543 . S
O900 C882 1.261 . S
O901 Sm880 2.450 . S
O901 C882 1.242 . S
O902 Sm880 2.681 . S
O902 Sm881 2.386 . S
O902 C889 1.271 . S
O903 Sm880 2.464 . S
O903 C889 1.251 . S
O904 Sm880 2.396 . S
O904 C890 1.252 . S
O905 Sm881 2.408 . S
O905 C890 1.272 . S
O906 Sm881 2.543 . S
O906 C891 1.261 . S
O907 Sm881 2.450 . S
O907 C891 1.242 . S
O908 Sm880 2.386 . S
O908 Sm881 2.681 . S
O908 C898 1.271 . S
O909 Sm881 2.464 . S
O909 C898 1.251 . S
O910 Sm881 2.396 . S
O910 C899 1.252 . S
O911 Sm880 2.408 . S
O911 C899 1.272 . S
H912 C884 0.930 . S
H913 C885 0.929 . S
H914 C887 0.930 . S
H915 C888 0.929 . S
H916 C893 0.930 . S
H917 C894 0.929 . S
H918 C896 0.930 . S
H919 C897 0.929 . S
Sm920 C922 2.846 1_545 S
Sm920 O940 2.535 1_545 S
Sm920 O941 2.457 . S
Sm920 O942 2.689 . S
Sm920 O943 2.481 . S
Sm920 O944 2.399 . S
Sm920 O948 2.373 1_545 S
Sm920 O951 2.406 1_545 S
Sm921 C931 2.846 . S
Sm921 O942 2.386 1_565 S
Sm921 O945 2.408 . S
Sm921 O946 2.543 1_565 S
Sm921 O947 2.450 . S
Sm921 O948 2.681 . S
Sm921 O949 2.464 . S
Sm921 O950 2.396 . S
C922 Sm920 2.846 1_565 S
C922 C923 1.505 1_565 S
C922 O940 1.271 . S
C922 O941 1.232 1_565 S
C923 C922 1.505 1_545 S
C923 C924 1.334 1_545 S
C923 C928 1.408 . S
C924 C923 1.334 1_565 S
C924 C925 1.385 . S
C924 H952 0.930 . S
C925 C924 1.385 . S
C925 C926 1.395 1_565 S
C925 H953 0.929 . S
C926 C925 1.395 1_545 S
C926 C927 1.335 . S
C927 C926 1.335 . S
C927 C928 1.398 . S
C927 H954 0.930 . S
C928 C923 1.408 . S
C928 C927 1.398 . S
C928 H955 0.929 . S
C929 O942 1.271 . S
C929 O943 1.251 . S
C930 O944 1.242 1_565 S
C930 O945 1.278 . S
C931 Sm921 2.846 . S
C931 C932 1.506 . S
C931 O946 1.261 1_565 S
C931 O947 1.242 . S
C932 C931 1.506 . S
C932 C933 1.358 1_565 S
C932 C937 1.382 . S
C933 C932 1.358 1_545 S
C933 C934 1.385 . S
C933 H956 0.930 . S
C934 C933 1.385 . S
C934 C935 1.395 1_545 S
C934 H957 0.929 . S
C935 C934 1.395 1_565 S
C935 C936 1.335 . S
C936 C935 1.335 . S
C936 C937 1.398 . S
C936 H958 0.930 . S
C937 C932 1.382 . S
C937 C936 1.398 . S
C937 H959 0.929 . S
C938 O948 1.271 . S
C938 O949 1.251 . S
C939 O950 1.252 . S
C939 O951 1.272 . S
O940 Sm920 2.535 1_565 S
O940 C922 1.271 . S
O941 Sm920 2.457 . S
O941 C922 1.232 1_545 S
O942 Sm920 2.689 . S
O942 Sm921 2.386 1_545 S
O942 C929 1.271 . S
O943 Sm920 2.481 . S
O943 C929 1.251 . S
O944 Sm920 2.399 . S
O944 C930 1.242 1_545 S
O945 Sm921 2.408 . S
O945 C930 1.278 . S
O946 Sm921 2.543 1_545 S
O946 C931 1.261 1_545 S
O947 Sm921 2.450 . S
O947 C931 1.242 . S
O948 Sm920 2.373 1_565 S
O948 Sm921 2.681 . S
O948 C938 1.271 . S
O949 Sm921 2.464 . S
O949 C938 1.251 . S
O950 Sm921 2.396 . S
O950 C939 1.252 . S
O951 Sm920 2.406 1_565 S
O951 C939 1.272 . S
H952 C924 0.930 . S
H953 C925 0.929 . S
H954 C927 0.930 . S
H955 C928 0.929 . S
H956 C933 0.930 . S
H957 C934 0.929 . S
H958 C936 0.930 . S
H959 C937 0.929 . S
Sm960 C962 2.864 . S
Sm960 O980 2.543 . S
Sm960 O981 2.450 . S
Sm960 O982 2.681 . S
Sm960 O983 2.464 . S
Sm960 O984 2.396 . S
Sm960 O988 2.386 . S
Sm960 O991 2.408 . S
Sm961 C971 2.846 . S
Sm961 O982 2.386 . S
Sm961 O985 2.408 . S
Sm961 O986 2.543 . S
Sm961 O987 2.450 . S
Sm961 O988 2.681 . S
Sm961 O989 2.464 . S
Sm961 O990 2.396 . S
C962 Sm960 2.864 . S
C962 C963 1.488 1_554 S
C962 O980 1.269 . S
C962 O981 1.252 . S
C963 C962 1.488 1_556 S
C963 C964 1.358 . S
C963 C968 1.382 . S
C964 C963 1.358 . S
C964 C965 1.385 . S
C964 H992 0.930 . S
C965 C964 1.385 . S
C965 C966 1.395 . S
C965 H993 0.929 . S
C966 C965 1.395 . S
C966 C967 1.335 1_655 S
C967 C966 1.335 1_455 S
C967 C968 1.398 1_455 S
C967 H994 0.930 . S
C968 C963 1.382 . S
C968 C967 1.398 1_655 S
C968 H995 0.929 . S
C969 O982 1.271 . S
C969 O983 1.251 . S
C970 O984 1.252 . S
C970 O985 1.272 . S
C971 Sm961 2.846 . S
C971 C972 1.506 . S
C971 O986 1.261 . S
C971 O987 1.242 . S
C972 C971 1.506 . S
C972 C973 1.358 . S
C972 C977 1.382 . S
C973 C972 1.358 . S
C973 C974 1.385 . S
C973 H996 0.930 . S
C974 C973 1.385 . S
C974 C975 1.395 . S
C974 H997 0.929 . S
C975 C974 1.395 . S
C975 C976 1.335 . S
C976 C975 1.335 . S
C976 C977 1.398 . S
C976 H998 0.930 . S
C977 C972 1.382 . S
C977 C976 1.398 . S
C977 H999 0.929 . S
C978 O988 1.271 . S
C978 O989 1.251 . S
C979 O990 1.252 . S
C979 O991 1.272 . S
O980 Sm960 2.543 . S
O980 C962 1.269 . S
O981 Sm960 2.450 . S
O981 C962 1.252 . S
O982 Sm960 2.681 . S
O982 Sm961 2.386 . S
O982 C969 1.271 . S
O983 Sm960 2.464 . S
O983 C969 1.251 . S
O984 Sm960 2.396 . S
O984 C970 1.252 . S
O985 Sm961 2.408 . S
O985 C970 1.272 . S
O986 Sm961 2.543 . S
O986 C971 1.261 . S
O987 Sm961 2.450 . S
O987 C971 1.242 . S
O988 Sm960 2.386 . S
O988 Sm961 2.681 . S
O988 C978 1.271 . S
O989 Sm961 2.464 . S
O989 C978 1.251 . S
O990 Sm961 2.396 . S
O990 C979 1.252 . S
O991 Sm960 2.408 . S
O991 C979 1.272 . S
H992 C964 0.930 . S
H993 C965 0.929 . S
H994 C967 0.930 . S
H995 C968 0.929 . S
H996 C973 0.930 . S
H997 C974 0.929 . S
H998 C976 0.930 . S
H999 C977 0.929 . S
Sm1000 C1002 2.864 . S
Sm1000 O1020 2.543 . S
Sm1000 O1021 2.450 . S
Sm1000 O1022 2.681 . S
Sm1000 O1023 2.464 . S
Sm1000 O1024 2.396 . S
Sm1000 O1028 2.386 . S
Sm1000 O1031 2.408 . S
Sm1001 C1011 2.846 . S
Sm1001 O1022 2.386 . S
Sm1001 O1025 2.408 . S
Sm1001 O1026 2.543 . S
Sm1001 O1027 2.450 . S
Sm1001 O1028 2.681 . S
Sm1001 O1029 2.464 . S
Sm1001 O1030 2.396 . S
C1002 Sm1000 2.864 . S
C1002 C1003 1.488 1_554 S
C1002 O1020 1.269 . S
C1002 O1021 1.252 . S
C1003 C1002 1.488 1_556 S
C1003 C1004 1.358 . S
C1003 C1008 1.382 . S
C1004 C1003 1.358 . S
C1004 C1005 1.385 . S
C1004 H1032 0.930 . S
C1005 C1004 1.385 . S
C1005 C1006 1.395 . S
C1005 H1033 0.929 . S
C1006 C1005 1.395 . S
C1006 C1007 1.335 . S
C1007 C1006 1.335 . S
C1007 C1008 1.398 . S
C1007 H1034 0.930 . S
C1008 C1003 1.382 . S
C1008 C1007 1.398 . S
C1008 H1035 0.929 . S
C1009 O1022 1.271 . S
C1009 O1023 1.251 . S
C1010 O1024 1.252 . S
C1010 O1025 1.272 . S
C1011 Sm1001 2.846 . S
C1011 C1012 1.506 . S
C1011 O1026 1.261 . S
C1011 O1027 1.242 . S
C1012 C1011 1.506 . S
C1012 C1013 1.358 . S
C1012 C1017 1.382 . S
C1013 C1012 1.358 . S
C1013 C1014 1.385 . S
C1013 H1036 0.930 . S
C1014 C1013 1.385 . S
C1014 C1015 1.395 . S
C1014 H1037 0.929 . S
C1015 C1014 1.395 . S
C1015 C1016 1.335 . S
C1016 C1015 1.335 . S
C1016 C1017 1.398 . S
C1016 H1038 0.930 . S
C1017 C1012 1.382 . S
C1017 C1016 1.398 . S
C1017 H1039 0.929 . S
C1018 O1028 1.271 . S
C1018 O1029 1.251 . S
C1019 O1030 1.252 . S
C1019 O1031 1.272 . S
O1020 Sm1000 2.543 . S
O1020 C1002 1.269 . S
O1021 Sm1000 2.450 . S
O1021 C1002 1.252 . S
O1022 Sm1000 2.681 . S
O1022 Sm1001 2.386 . S
O1022 C1009 1.271 . S
O1023 Sm1000 2.464 . S
O1023 C1009 1.251 . S
O1024 Sm1000 2.396 . S
O1024 C1010 1.252 . S
O1025 Sm1001 2.408 . S
O1025 C1010 1.272 . S
O1026 Sm1001 2.543 . S
O1026 C1011 1.261 . S
O1027 Sm1001 2.450 . S
O1027 C1011 1.242 . S
O1028 Sm1000 2.386 . S
O1028 Sm1001 2.681 . S
O1028 C1018 1.271 . S
O1029 Sm1001 2.464 . S
O1029 C1018 1.251 . S
O1030 Sm1001 2.396 . S
O1030 C1019 1.252 . S
O1031 Sm1000 2.408 . S
O1031 C1019 1.272 . S
H1032 C1004 0.930 . S
H1033 C1005 0.929 . S
H1034 C1007 0.930 . S
H1035 C1008 0.929 . S
H1036 C1013 0.930 . S
H1037 C1014 0.929 . S
H1038 C1016 0.930 . S
H1039 C1017 0.929 . S
Sm1040 C1042 2.846 . S
Sm1040 O1060 2.543 . S
Sm1040 O1061 2.450 . S
Sm1040 O1062 2.681 . S
Sm1040 O1063 2.464 . S
Sm1040 O1064 2.396 . S
Sm1040 O1068 2.386 . S
Sm1040 O1071 2.408 . S
Sm1041 C1051 2.846 . S
Sm1041 O1062 2.386 . S
Sm1041 O1065 2.408 . S
Sm1041 O1066 2.543 . S
Sm1041 O1067 2.450 . S
Sm1041 O1068 2.681 . S
Sm1041 O1069 2.464 . S
Sm1041 O1070 2.396 . S
C1042 Sm1040 2.846 . S
C1042 C1043 1.506 . S
C1042 O1060 1.261 . S
C1042 O1061 1.242 . S
C1043 C1042 1.506 . S
C1043 C1044 1.358 . S
C1043 C1048 1.382 . S
C1044 C1043 1.358 . S
C1044 C1045 1.385 . S
C1044 H1072 0.930 . S
C1045 C1044 1.385 . S
C1045 C1046 1.395 . S
C1045 H1073 0.929 . S
C1046 C1045 1.395 . S
C1046 C1047 1.335 1_655 S
C1047 C1046 1.335 1_455 S
C1047 C1048 1.398 1_455 S
C1047 H1074 0.930 . S
C1048 C1043 1.382 . S
C1048 C1047 1.398 1_655 S
C1048 H1075 0.929 . S
C1049 O1062 1.271 . S
C1049 O1063 1.251 . S
C1050 O1064 1.252 . S
C1050 O1065 1.272 . S
C1051 Sm1041 2.846 . S
C1051 C1052 1.506 . S
C1051 O1066 1.261 . S
C1051 O1067 1.242 . S
C1052 C1051 1.506 . S
C1052 C1053 1.358 . S
C1052 C1057 1.382 . S
C1053 C1052 1.358 . S
C1053 C1054 1.385 . S
C1053 H1076 0.930 . S
C1054 C1053 1.385 . S
C1054 C1055 1.395 . S
C1054 H1077 0.929 . S
C1055 C1054 1.395 . S
C1055 C1056 1.335 . S
C1056 C1055 1.335 . S
C1056 C1057 1.398 . S
C1056 H1078 0.930 . S
C1057 C1052 1.382 . S
C1057 C1056 1.398 . S
C1057 H1079 0.929 . S
C1058 O1068 1.271 . S
C1058 O1069 1.251 . S
C1059 O1070 1.252 . S
C1059 O1071 1.272 . S
O1060 Sm1040 2.543 . S
O1060 C1042 1.261 . S
O1061 Sm1040 2.450 . S
O1061 C1042 1.242 . S
O1062 Sm1040 2.681 . S
O1062 Sm1041 2.386 . S
O1062 C1049 1.271 . S
O1063 Sm1040 2.464 . S
O1063 C1049 1.251 . S
O1064 Sm1040 2.396 . S
O1064 C1050 1.252 . S
O1065 Sm1041 2.408 . S
O1065 C1050 1.272 . S
O1066 Sm1041 2.543 . S
O1066 C1051 1.261 . S
O1067 Sm1041 2.450 . S
O1067 C1051 1.242 . S
O1068 Sm1040 2.386 . S
O1068 Sm1041 2.681 . S
O1068 C1058 1.271 . S
O1069 Sm1041 2.464 . S
O1069 C1058 1.251 . S
O1070 Sm1041 2.396 . S
O1070 C1059 1.252 . S
O1071 Sm1040 2.408 . S
O1071 C1059 1.272 . S
H1072 C1044 0.930 . S
H1073 C1045 0.929 . S
H1074 C1047 0.930 . S
H1075 C1048 0.929 . S
H1076 C1053 0.930 . S
H1077 C1054 0.929 . S
H1078 C1056 0.930 . S
H1079 C1057 0.929 . S
Sm1080 C1082 2.846 . S
Sm1080 O1100 2.543 . S
Sm1080 O1101 2.450 . S
Sm1080 O1102 2.681 . S
Sm1080 O1103 2.464 . S
Sm1080 O1104 2.396 . S
Sm1080 O1108 2.386 . S
Sm1080 O1111 2.408 . S
Sm1081 C1091 2.846 . S
Sm1081 O1102 2.386 . S
Sm1081 O1105 2.408 . S
Sm1081 O1106 2.543 . S
Sm1081 O1107 2.450 . S
Sm1081 O1108 2.681 . S
Sm1081 O1109 2.464 . S
Sm1081 O1110 2.396 . S
C1082 Sm1080 2.846 . S
C1082 C1083 1.506 . S
C1082 O1100 1.261 . S
C1082 O1101 1.242 . S
C1083 C1082 1.506 . S
C1083 C1084 1.358 . S
C1083 C1088 1.382 . S
C1084 C1083 1.358 . S
C1084 C1085 1.385 . S
C1084 H1112 0.930 . S
C1085 C1084 1.385 . S
C1085 C1086 1.395 . S
C1085 H1113 0.929 . S
C1086 C1085 1.395 . S
C1086 C1087 1.335 . S
C1087 C1086 1.335 . S
C1087 C1088 1.398 . S
C1087 H1114 0.930 . S
C1088 C1083 1.382 . S
C1088 C1087 1.398 . S
C1088 H1115 0.929 . S
C1089 O1102 1.271 . S
C1089 O1103 1.251 . S
C1090 O1104 1.252 . S
C1090 O1105 1.272 . S
C1091 Sm1081 2.846 . S
C1091 C1092 1.506 . S
C1091 O1106 1.261 . S
C1091 O1107 1.242 . S
C1092 C1091 1.506 . S
C1092 C1093 1.358 . S
C1092 C1097 1.382 . S
C1093 C1092 1.358 . S
C1093 C1094 1.385 . S
C1093 H1116 0.930 . S
C1094 C1093 1.385 . S
C1094 C1095 1.395 . S
C1094 H1117 0.929 . S
C1095 C1094 1.395 . S
C1095 C1096 1.335 . S
C1096 C1095 1.335 . S
C1096 C1097 1.398 . S
C1096 H1118 0.930 . S
C1097 C1092 1.382 . S
C1097 C1096 1.398 . S
C1097 H1119 0.929 . S
C1098 O1108 1.271 . S
C1098 O1109 1.251 . S
C1099 O1110 1.252 . S
C1099 O1111 1.272 . S
O1100 Sm1080 2.543 . S
O1100 C1082 1.261 . S
O1101 Sm1080 2.450 . S
O1101 C1082 1.242 . S
O1102 Sm1080 2.681 . S
O1102 Sm1081 2.386 . S
O1102 C1089 1.271 . S
O1103 Sm1080 2.464 . S
O1103 C1089 1.251 . S
O1104 Sm1080 2.396 . S
O1104 C1090 1.252 . S
O1105 Sm1081 2.408 . S
O1105 C1090 1.272 . S
O1106 Sm1081 2.543 . S
O1106 C1091 1.261 . S
O1107 Sm1081 2.450 . S
O1107 C1091 1.242 . S
O1108 Sm1080 2.386 . S
O1108 Sm1081 2.681 . S
O1108 C1098 1.271 . S
O1109 Sm1081 2.464 . S
O1109 C1098 1.251 . S
O1110 Sm1081 2.396 . S
O1110 C1099 1.252 . S
O1111 Sm1080 2.408 . S
O1111 C1099 1.272 . S
H1112 C1084 0.930 . S
H1113 C1085 0.929 . S
H1114 C1087 0.930 . S
H1115 C1088 0.929 . S
H1116 C1093 0.930 . S
H1117 C1094 0.929 . S
H1118 C1096 0.930 . S
H1119 C1097 0.929 . S
Sm1120 C1122 2.846 . S
Sm1120 O1140 2.543 . S
Sm1120 O1141 2.450 . S
Sm1120 O1142 2.681 . S
Sm1120 O1143 2.464 . S
Sm1120 O1144 2.396 . S
Sm1120 O1148 2.386 . S
Sm1120 O1151 2.408 . S
Sm1121 C1131 2.864 . S
Sm1121 O1142 2.386 . S
Sm1121 O1145 2.408 . S
Sm1121 O1146 2.543 . S
Sm1121 O1147 2.450 . S
Sm1121 O1148 2.681 . S
Sm1121 O1149 2.464 . S
Sm1121 O1150 2.396 . S
C1122 Sm1120 2.846 . S
C1122 C1123 1.506 . S
C1122 O1140 1.261 . S
C1122 O1141 1.242 . S
C1123 C1122 1.506 . S
C1123 C1124 1.358 . S
C1123 C1128 1.382 . S
C1124 C1123 1.358 . S
C1124 C1125 1.385 . S
C1124 H1152 0.930 . S
C1125 C1124 1.385 . S
C1125 C1126 1.395 . S
C1125 H1153 0.929 . S
C1126 C1125 1.395 . S
C1126 C1127 1.335 . S
C1127 C1126 1.335 . S
C1127 C1128 1.398 . S
C1127 H1154 0.930 . S
C1128 C1123 1.382 . S
C1128 C1127 1.398 . S
C1128 H1155 0.929 . S
C1129 O1142 1.271 . S
C1129 O1143 1.251 . S
C1130 O1144 1.252 . S
C1130 O1145 1.272 . S
C1131 Sm1121 2.864 . S
C1131 C1132 1.488 1_556 S
C1131 O1146 1.269 . S
C1131 O1147 1.252 . S
C1132 C1131 1.488 1_554 S
C1132 C1133 1.358 . S
C1132 C1137 1.382 . S
C1133 C1132 1.358 . S
C1133 C1134 1.385 . S
C1133 H1156 0.930 . S
C1134 C1133 1.385 . S
C1134 C1135 1.395 . S
C1134 H1157 0.929 . S
C1135 C1134 1.395 . S
C1135 C1136 1.335 1_455 S
C1136 C1135 1.335 1_655 S
C1136 C1137 1.398 1_655 S
C1136 H1158 0.930 . S
C1137 C1132 1.382 . S
C1137 C1136 1.398 1_455 S
C1137 H1159 0.929 . S
C1138 O1148 1.271 . S
C1138 O1149 1.251 . S
C1139 O1150 1.252 . S
C1139 O1151 1.272 . S
O1140 Sm1120 2.543 . S
O1140 C1122 1.261 . S
O1141 Sm1120 2.450 . S
O1141 C1122 1.242 . S
O1142 Sm1120 2.681 . S
O1142 Sm1121 2.386 . S
O1142 C1129 1.271 . S
O1143 Sm1120 2.464 . S
O1143 C1129 1.251 . S
O1144 Sm1120 2.396 . S
O1144 C1130 1.252 . S
O1145 Sm1121 2.408 . S
O1145 C1130 1.272 . S
O1146 Sm1121 2.543 . S
O1146 C1131 1.269 . S
O1147 Sm1121 2.450 . S
O1147 C1131 1.252 . S
O1148 Sm1120 2.386 . S
O1148 Sm1121 2.681 . S
O1148 C1138 1.271 . S
O1149 Sm1121 2.464 . S
O1149 C1138 1.251 . S
O1150 Sm1121 2.396 . S
O1150 C1139 1.252 . S
O1151 Sm1120 2.408 . S
O1151 C1139 1.272 . S
H1152 C1124 0.930 . S
H1153 C1125 0.929 . S
H1154 C1127 0.930 . S
H1155 C1128 0.929 . S
H1156 C1133 0.930 . S
H1157 C1134 0.929 . S
H1158 C1136 0.930 . S
H1159 C1137 0.929 . S
Sm1160 C1162 2.846 . S
Sm1160 O1180 2.543 . S
Sm1160 O1181 2.450 . S
Sm1160 O1182 2.681 . S
Sm1160 O1183 2.464 . S
Sm1160 O1184 2.396 . S
Sm1160 O1188 2.386 . S
Sm1160 O1191 2.408 . S
Sm1161 C1171 2.864 . S
Sm1161 O1182 2.386 . S
Sm1161 O1185 2.408 . S
Sm1161 O1186 2.543 . S
Sm1161 O1187 2.450 . S
Sm1161 O1188 2.681 . S
Sm1161 O1189 2.464 . S
Sm1161 O1190 2.396 . S
C1162 Sm1160 2.846 . S
C1162 C1163 1.506 . S
C1162 O1180 1.261 . S
C1162 O1181 1.242 . S
C1163 C1162 1.506 . S
C1163 C1164 1.358 . S
C1163 C1168 1.382 . S
C1164 C1163 1.358 . S
C1164 C1165 1.385 . S
C1164 H1192 0.930 . S
C1165 C1164 1.385 . S
C1165 C1166 1.395 . S
C1165 H1193 0.929 . S
C1166 C1165 1.395 . S
C1166 C1167 1.335 . S
C1167 C1166 1.335 . S
C1167 C1168 1.398 . S
C1167 H1194 0.930 . S
C1168 C1163 1.382 . S
C1168 C1167 1.398 . S
C1168 H1195 0.929 . S
C1169 O1182 1.271 . S
C1169 O1183 1.251 . S
C1170 O1184 1.252 . S
C1170 O1185 1.272 . S
C1171 Sm1161 2.864 . S
C1171 C1172 1.488 1_556 S
C1171 O1186 1.269 . S
C1171 O1187 1.252 . S
C1172 C1171 1.488 1_554 S
C1172 C1173 1.358 . S
C1172 C1177 1.382 . S
C1173 C1172 1.358 . S
C1173 C1174 1.385 . S
C1173 H1196 0.930 . S
C1174 C1173 1.385 . S
C1174 C1175 1.395 . S
C1174 H1197 0.929 . S
C1175 C1174 1.395 . S
C1175 C1176 1.335 . S
C1176 C1175 1.335 . S
C1176 C1177 1.398 . S
C1176 H1198 0.930 . S
C1177 C1172 1.382 . S
C1177 C1176 1.398 . S
C1177 H1199 0.929 . S
C1178 O1188 1.271 . S
C1178 O1189 1.251 . S
C1179 O1190 1.252 . S
C1179 O1191 1.272 . S
O1180 Sm1160 2.543 . S
O1180 C1162 1.261 . S
O1181 Sm1160 2.450 . S
O1181 C1162 1.242 . S
O1182 Sm1160 2.681 . S
O1182 Sm1161 2.386 . S
O1182 C1169 1.271 . S
O1183 Sm1160 2.464 . S
O1183 C1169 1.251 . S
O1184 Sm1160 2.396 . S
O1184 C1170 1.252 . S
O1185 Sm1161 2.408 . S
O1185 C1170 1.272 . S
O1186 Sm1161 2.543 . S
O1186 C1171 1.269 . S
O1187 Sm1161 2.450 . S
O1187 C1171 1.252 . S
O1188 Sm1160 2.386 . S
O1188 Sm1161 2.681 . S
O1188 C1178 1.271 . S
O1189 Sm1161 2.464 . S
O1189 C1178 1.251 . S
O1190 Sm1161 2.396 . S
O1190 C1179 1.252 . S
O1191 Sm1160 2.408 . S
O1191 C1179 1.272 . S
H1192 C1164 0.930 . S
H1193 C1165 0.929 . S
H1194 C1167 0.930 . S
H1195 C1168 0.929 . S
H1196 C1173 0.930 . S
H1197 C1174 0.929 . S
H1198 C1176 0.930 . S
H1199 C1177 0.929 . S
Sm1200 C1202 2.846 . S
Sm1200 O1220 2.543 . S
Sm1200 O1221 2.450 . S
Sm1200 O1222 2.681 . S
Sm1200 O1223 2.464 . S
Sm1200 O1224 2.396 . S
Sm1200 O1228 2.386 . S
Sm1200 O1231 2.408 . S
Sm1201 C1211 2.846 . S
Sm1201 O1222 2.386 . S
Sm1201 O1225 2.408 . S
Sm1201 O1226 2.543 . S
Sm1201 O1227 2.450 . S
Sm1201 O1228 2.681 . S
Sm1201 O1229 2.464 . S
Sm1201 O1230 2.396 . S
C1202 Sm1200 2.846 . S
C1202 C1203 1.506 . S
C1202 O1220 1.261 . S
C1202 O1221 1.242 . S
C1203 C1202 1.506 . S
C1203 C1204 1.358 . S
C1203 C1208 1.382 . S
C1204 C1203 1.358 . S
C1204 C1205 1.385 . S
C1204 H1232 0.930 . S
C1205 C1204 1.385 . S
C1205 C1206 1.395 . S
C1205 H1233 0.929 . S
C1206 C1205 1.395 . S
C1206 C1207 1.335 . S
C1207 C1206 1.335 . S
C1207 C1208 1.398 . S
C1207 H1234 0.930 . S
C1208 C1203 1.382 . S
C1208 C1207 1.398 . S
C1208 H1235 0.929 . S
C1209 O1222 1.271 . S
C1209 O1223 1.251 . S
C1210 O1224 1.252 . S
C1210 O1225 1.272 . S
C1211 Sm1201 2.846 . S
C1211 C1212 1.506 . S
C1211 O1226 1.261 . S
C1211 O1227 1.242 . S
C1212 C1211 1.506 . S
C1212 C1213 1.358 . S
C1212 C1217 1.382 . S
C1213 C1212 1.358 . S
C1213 C1214 1.385 . S
C1213 H1236 0.930 . S
C1214 C1213 1.385 . S
C1214 C1215 1.395 . S
C1214 H1237 0.929 . S
C1215 C1214 1.395 . S
C1215 C1216 1.335 1_455 S
C1216 C1215 1.335 1_655 S
C1216 C1217 1.398 1_655 S
C1216 H1238 0.930 . S
C1217 C1212 1.382 . S
C1217 C1216 1.398 1_455 S
C1217 H1239 0.929 . S
C1218 O1228 1.271 . S
C1218 O1229 1.251 . S
C1219 O1230 1.252 . S
C1219 O1231 1.272 . S
O1220 Sm1200 2.543 . S
O1220 C1202 1.261 . S
O1221 Sm1200 2.450 . S
O1221 C1202 1.242 . S
O1222 Sm1200 2.681 . S
O1222 Sm1201 2.386 . S
O1222 C1209 1.271 . S
O1223 Sm1200 2.464 . S
O1223 C1209 1.251 . S
O1224 Sm1200 2.396 . S
O1224 C1210 1.252 . S
O1225 Sm1201 2.408 . S
O1225 C1210 1.272 . S
O1226 Sm1201 2.543 . S
O1226 C1211 1.261 . S
O1227 Sm1201 2.450 . S
O1227 C1211 1.242 . S
O1228 Sm1200 2.386 . S
O1228 Sm1201 2.681 . S
O1228 C1218 1.271 . S
O1229 Sm1201 2.464 . S
O1229 C1218 1.251 . S
O1230 Sm1201 2.396 . S
O1230 C1219 1.252 . S
O1231 Sm1200 2.408 . S
O1231 C1219 1.272 . S
H1232 C1204 0.930 . S
H1233 C1205 0.929 . S
H1234 C1207 0.930 . S
H1235 C1208 0.929 . S
H1236 C1213 0.930 . S
H1237 C1214 0.929 . S
H1238 C1216 0.930 . S
H1239 C1217 0.929 . S
Sm1240 C1242 2.846 . S
Sm1240 O1260 2.543 . S
Sm1240 O1261 2.450 . S
Sm1240 O1262 2.681 . S
Sm1240 O1263 2.464 . S
Sm1240 O1264 2.396 . S
Sm1240 O1268 2.386 . S
Sm1240 O1271 2.408 . S
Sm1241 C1251 2.846 . S
Sm1241 O1262 2.386 . S
Sm1241 O1265 2.408 . S
Sm1241 O1266 2.543 . S
Sm1241 O1267 2.450 . S
Sm1241 O1268 2.681 . S
Sm1241 O1269 2.464 . S
Sm1241 O1270 2.396 . S
C1242 Sm1240 2.846 . S
C1242 C1243 1.506 . S
C1242 O1260 1.261 . S
C1242 O1261 1.242 . S
C1243 C1242 1.506 . S
C1243 C1244 1.358 . S
C1243 C1248 1.382 . S
C1244 C1243 1.358 . S
C1244 C1245 1.385 . S
C1244 H1272 0.930 . S
C1245 C1244 1.385 . S
C1245 C1246 1.395 . S
C1245 H1273 0.929 . S
C1246 C1245 1.395 . S
C1246 C1247 1.335 . S
C1247 C1246 1.335 . S
C1247 C1248 1.398 . S
C1247 H1274 0.930 . S
C1248 C1243 1.382 . S
C1248 C1247 1.398 . S
C1248 H1275 0.929 . S
C1249 O1262 1.271 . S
C1249 O1263 1.251 . S
C1250 O1264 1.252 . S
C1250 O1265 1.272 . S
C1251 Sm1241 2.846 . S
C1251 C1252 1.506 . S
C1251 O1266 1.261 . S
C1251 O1267 1.242 . S
C1252 C1251 1.506 . S
C1252 C1253 1.358 . S
C1252 C1257 1.382 . S
C1253 C1252 1.358 . S
C1253 C1254 1.385 . S
C1253 H1276 0.930 . S
C1254 C1253 1.385 . S
C1254 C1255 1.395 . S
C1254 H1277 0.929 . S
C1255 C1254 1.395 . S
C1255 C1256 1.335 . S
C1256 C1255 1.335 . S
C1256 C1257 1.398 . S
C1256 H1278 0.930 . S
C1257 C1252 1.382 . S
C1257 C1256 1.398 . S
C1257 H1279 0.929 . S
C1258 O1268 1.271 . S
C1258 O1269 1.251 . S
C1259 O1270 1.252 . S
C1259 O1271 1.272 . S
O1260 Sm1240 2.543 . S
O1260 C1242 1.261 . S
O1261 Sm1240 2.450 . S
O1261 C1242 1.242 . S
O1262 Sm1240 2.681 . S
O1262 Sm1241 2.386 . S
O1262 C1249 1.271 . S
O1263 Sm1240 2.464 . S
O1263 C1249 1.251 . S
O1264 Sm1240 2.396 . S
O1264 C1250 1.252 . S
O1265 Sm1241 2.408 . S
O1265 C1250 1.272 . S
O1266 Sm1241 2.543 . S
O1266 C1251 1.261 . S
O1267 Sm1241 2.450 . S
O1267 C1251 1.242 . S
O1268 Sm1240 2.386 . S
O1268 Sm1241 2.681 . S
O1268 C1258 1.271 . S
O1269 Sm1241 2.464 . S
O1269 C1258 1.251 . S
O1270 Sm1241 2.396 . S
O1270 C1259 1.252 . S
O1271 Sm1240 2.408 . S
O1271 C1259 1.272 . S
H1272 C1244 0.930 . S
H1273 C1245 0.929 . S
H1274 C1247 0.930 . S
H1275 C1248 0.929 . S
H1276 C1253 0.930 . S
H1277 C1254 0.929 . S
H1278 C1256 0.930 . S
H1279 C1257 0.929 . S
C1280 C1281 1.369 . S
C1280 C1282 1.419 . S
C1280 H1284 0.930 . S
C1281 C1280 1.369 . S
C1281 C1290 1.429 . S
C1282 C1280 1.419 . S
C1282 C1283 1.363 . S
C1282 H1285 0.929 . S
C1283 C1282 1.363 . S
C1283 C1289 1.428 . S
H1284 C1280 0.930 . S
H1285 C1282 0.929 . S
S1286 N1287 1.613 . S
S1286 N1288 1.610 . S
N1287 S1286 1.613 . S
N1287 C1290 1.350 . S
N1288 S1286 1.610 . S
N1288 C1289 1.351 . S
C1289 C1283 1.428 . S
C1289 N1288 1.351 . S
C1289 C1290 1.434 . S
C1290 C1281 1.429 . S
C1290 N1287 1.350 . S
C1290 C1289 1.434 . S
C1291 C1292 1.369 . S
C1291 C1293 1.419 . S
C1291 H1295 0.930 . S
C1292 C1291 1.369 . S
C1292 C1301 1.429 . S
C1293 C1291 1.419 . S
C1293 C1294 1.363 . S
C1293 H1296 0.929 . S
C1294 C1293 1.363 . S
C1294 C1300 1.428 . S
H1295 C1291 0.930 . S
H1296 C1293 0.929 . S
S1297 N1298 1.613 . S
S1297 N1299 1.610 . S
N1298 S1297 1.613 . S
N1298 C1301 1.350 . S
N1299 S1297 1.610 . S
N1299 C1300 1.351 . S
C1300 C1294 1.428 . S
C1300 N1299 1.351 . S
C1300 C1301 1.434 . S
C1301 C1292 1.429 . S
C1301 N1298 1.350 . S
C1301 C1300 1.434 . S
C1302 C1303 1.369 . S
C1302 C1304 1.419 . S
C1302 H1306 0.930 . S
C1303 C1302 1.369 . S
C1303 C1312 1.429 . S
C1304 C1302 1.419 . S
C1304 C1305 1.363 . S
C1304 H1307 0.929 . S
C1305 C1304 1.363 . S
C1305 C1311 1.428 . S
H1306 C1302 0.930 . S
H1307 C1304 0.929 . S
S1308 N1309 1.613 . S
S1308 N1310 1.610 . S
N1309 S1308 1.613 . S
N1309 C1312 1.350 . S
N1310 S1308 1.610 . S
N1310 C1311 1.351 . S
C1311 C1305 1.428 . S
C1311 N1310 1.351 . S
C1311 C1312 1.434 . S
C1312 C1303 1.429 . S
C1312 N1309 1.350 . S
C1312 C1311 1.434 . S
C1313 C1314 1.369 . S
C1313 C1315 1.419 . S
C1313 H1317 0.930 . S
C1314 C1313 1.369 . S
C1314 C1323 1.429 . S
C1315 C1313 1.419 . S
C1315 C1316 1.363 . S
C1315 H1318 0.929 . S
C1316 C1315 1.363 . S
C1316 C1322 1.428 . S
H1317 C1313 0.930 . S
H1318 C1315 0.929 . S
S1319 N1320 1.613 . S
S1319 N1321 1.610 . S
N1320 S1319 1.613 . S
N1320 C1323 1.350 . S
N1321 S1319 1.610 . S
N1321 C1322 1.351 . S
C1322 C1316 1.428 . S
C1322 N1321 1.351 . S
C1322 C1323 1.434 . S
C1323 C1314 1.429 . S
C1323 N1320 1.350 . S
C1323 C1322 1.434 . S
C1324 C1325 1.369 . S
C1324 C1326 1.419 . S
C1324 H1328 0.930 . S
C1325 C1324 1.369 . S
C1325 C1334 1.429 . S
C1326 C1324 1.419 . S
C1326 C1327 1.363 . S
C1326 H1329 0.929 . S
C1327 C1326 1.363 . S
C1327 C1333 1.428 . S
H1328 C1324 0.930 . S
H1329 C1326 0.929 . S
S1330 N1331 1.613 . S
S1330 N1332 1.610 . S
N1331 S1330 1.613 . S
N1331 C1334 1.350 . S
N1332 S1330 1.610 . S
N1332 C1333 1.351 . S
C1333 C1327 1.428 . S
C1333 N1332 1.351 . S
C1333 C1334 1.434 . S
C1334 C1325 1.429 . S
C1334 N1331 1.350 . S
C1334 C1333 1.434 . S
C1335 C1336 1.369 . S
C1335 C1337 1.419 . S
C1335 H1339 0.930 . S
C1336 C1335 1.369 . S
C1336 C1345 1.429 . S
C1337 C1335 1.419 . S
C1337 C1338 1.363 . S
C1337 H1340 0.929 . S
C1338 C1337 1.363 . S
C1338 C1344 1.428 . S
H1339 C1335 0.930 . S
H1340 C1337 0.929 . S
S1341 N1342 1.613 . S
S1341 N1343 1.610 . S
N1342 S1341 1.613 . S
N1342 C1345 1.350 . S
N1343 S1341 1.610 . S
N1343 C1344 1.351 . S
C1344 C1338 1.428 . S
C1344 N1343 1.351 . S
C1344 C1345 1.434 . S
C1345 C1336 1.429 . S
C1345 N1342 1.350 . S
C1345 C1344 1.434 . S
C1346 C1347 1.369 . S
C1346 C1348 1.419 . S
C1346 H1350 0.930 . S
C1347 C1346 1.369 . S
C1347 C1356 1.429 . S
C1348 C1346 1.419 . S
C1348 C1349 1.363 . S
C1348 H1351 0.929 . S
C1349 C1348 1.363 . S
C1349 C1355 1.428 . S
H1350 C1346 0.930 . S
H1351 C1348 0.929 . S
S1352 N1353 1.613 . S
S1352 N1354 1.610 . S
N1353 S1352 1.613 . S
N1353 C1356 1.350 . S
N1354 S1352 1.610 . S
N1354 C1355 1.351 . S
C1355 C1349 1.428 . S
C1355 N1354 1.351 . S
C1355 C1356 1.434 . S
C1356 C1347 1.429 . S
C1356 N1353 1.350 . S
C1356 C1355 1.434 . S
C1357 C1358 1.369 . S
C1357 C1359 1.419 . S
C1357 H1361 0.930 . S
C1358 C1357 1.369 . S
C1358 C1367 1.429 . S
C1359 C1357 1.419 . S
C1359 C1360 1.363 . S
C1359 H1362 0.929 . S
C1360 C1359 1.363 . S
C1360 C1366 1.428 . S
H1361 C1357 0.930 . S
H1362 C1359 0.929 . S
S1363 N1364 1.613 . S
S1363 N1365 1.610 . S
N1364 S1363 1.613 . S
N1364 C1367 1.350 . S
N1365 S1363 1.610 . S
N1365 C1366 1.351 . S
C1366 C1360 1.428 . S
C1366 N1365 1.351 . S
C1366 C1367 1.434 . S
C1367 C1358 1.429 . S
C1367 N1364 1.350 . S
C1367 C1366 1.434 . S
C1368 C1369 1.369 . S
C1368 C1370 1.419 . S
C1368 H1372 0.930 . S
C1369 C1368 1.369 . S
C1369 C1378 1.429 . S
C1370 C1368 1.419 . S
C1370 C1371 1.363 . S
C1370 H1373 0.929 . S
C1371 C1370 1.363 . S
C1371 C1377 1.428 . S
H1372 C1368 0.930 . S
H1373 C1370 0.929 . S
S1374 N1375 1.613 . S
S1374 N1376 1.610 . S
N1375 S1374 1.613 . S
N1375 C1378 1.350 . S
N1376 S1374 1.610 . S
N1376 C1377 1.351 . S
C1377 C1371 1.428 . S
C1377 N1376 1.351 . S
C1377 C1378 1.434 . S
C1378 C1369 1.429 . S
C1378 N1375 1.350 . S
C1378 C1377 1.434 . S
C1379 C1380 1.369 . S
C1379 C1381 1.419 . S
C1379 H1383 0.930 . S
C1380 C1379 1.369 . S
C1380 C1389 1.429 . S
C1381 C1379 1.419 . S
C1381 C1382 1.363 . S
C1381 H1384 0.929 . S
C1382 C1381 1.363 . S
C1382 C1388 1.428 . S
H1383 C1379 0.930 . S
H1384 C1381 0.929 . S
S1385 N1386 1.613 . S
S1385 N1387 1.610 . S
N1386 S1385 1.613 . S
N1386 C1389 1.350 . S
N1387 S1385 1.610 . S
N1387 C1388 1.351 . S
C1388 C1382 1.428 . S
C1388 N1387 1.351 . S
C1388 C1389 1.434 . S
C1389 C1380 1.429 . S
C1389 N1386 1.350 . S
C1389 C1388 1.434 . S
C1390 C1391 1.369 . S
C1390 C1392 1.419 . S
C1390 H1394 0.930 . S
C1391 C1390 1.369 . S
C1391 C1400 1.429 . S
C1392 C1390 1.419 . S
C1392 C1393 1.363 . S
C1392 H1395 0.929 . S
C1393 C1392 1.363 . S
C1393 C1399 1.428 . S
H1394 C1390 0.930 . S
H1395 C1392 0.929 . S
S1396 N1397 1.613 . S
S1396 N1398 1.610 . S
N1397 S1396 1.613 . S
N1397 C1400 1.350 . S
N1398 S1396 1.610 . S
N1398 C1399 1.351 . S
C1399 C1393 1.428 . S
C1399 N1398 1.351 . S
C1399 C1400 1.434 . S
C1400 C1391 1.429 . S
C1400 N1397 1.350 . S
C1400 C1399 1.434 . S
C1401 C1402 1.369 . S
C1401 C1403 1.419 . S
C1401 H1405 0.930 . S
C1402 C1401 1.369 . S
C1402 C1411 1.429 . S
C1403 C1401 1.419 . S
C1403 C1404 1.363 . S
C1403 H1406 0.929 . S
C1404 C1403 1.363 . S
C1404 C1410 1.428 . S
H1405 C1401 0.930 . S
H1406 C1403 0.929 . S
S1407 N1408 1.613 . S
S1407 N1409 1.610 . S
N1408 S1407 1.613 . S
N1408 C1411 1.350 . S
N1409 S1407 1.610 . S
N1409 C1410 1.351 . S
C1410 C1404 1.428 . S
C1410 N1409 1.351 . S
C1410 C1411 1.434 . S
C1411 C1402 1.429 . S
C1411 N1408 1.350 . S
C1411 C1410 1.434 . S
C1412 C1413 1.369 . S
C1412 C1414 1.419 . S
C1412 H1416 0.930 . S
C1413 C1412 1.369 . S
C1413 C1422 1.429 . S
C1414 C1412 1.419 . S
C1414 C1415 1.363 . S
C1414 H1417 0.929 . S
C1415 C1414 1.363 . S
C1415 C1421 1.428 . S
H1416 C1412 0.930 . S
H1417 C1414 0.929 . S
S1418 N1419 1.613 . S
S1418 N1420 1.610 . S
N1419 S1418 1.613 . S
N1419 C1422 1.350 . S
N1420 S1418 1.610 . S
N1420 C1421 1.351 . S
C1421 C1415 1.428 . S
C1421 N1420 1.351 . S
C1421 C1422 1.434 . S
C1422 C1413 1.429 . S
C1422 N1419 1.350 . S
C1422 C1421 1.434 . S
C1423 C1424 1.369 . S
C1423 C1425 1.419 . S
C1423 H1427 0.930 . S
C1424 C1423 1.369 . S
C1424 C1433 1.429 . S
C1425 C1423 1.419 . S
C1425 C1426 1.363 . S
C1425 H1428 0.929 . S
C1426 C1425 1.363 . S
C1426 C1432 1.428 . S
H1427 C1423 0.930 . S
H1428 C1425 0.929 . S
S1429 N1430 1.613 . S
S1429 N1431 1.610 . S
N1430 S1429 1.613 . S
N1430 C1433 1.350 . S
N1431 S1429 1.610 . S
N1431 C1432 1.351 . S
C1432 C1426 1.428 . S
C1432 N1431 1.351 . S
C1432 C1433 1.434 . S
C1433 C1424 1.429 . S
C1433 N1430 1.350 . S
C1433 C1432 1.434 . S
C1434 C1435 1.369 . S
C1434 C1436 1.419 . S
C1434 H1438 0.930 . S
C1435 C1434 1.369 . S
C1435 C1444 1.429 . S
C1436 C1434 1.419 . S
C1436 C1437 1.363 . S
C1436 H1439 0.929 . S
C1437 C1436 1.363 . S
C1437 C1443 1.428 . S
H1438 C1434 0.930 . S
H1439 C1436 0.929 . S
S1440 N1441 1.613 . S
S1440 N1442 1.610 . S
N1441 S1440 1.613 . S
N1441 C1444 1.350 . S
N1442 S1440 1.610 . S
N1442 C1443 1.351 . S
C1443 C1437 1.428 . S
C1443 N1442 1.351 . S
C1443 C1444 1.434 . S
C1444 C1435 1.429 . S
C1444 N1441 1.350 . S
C1444 C1443 1.434 . S
C1445 C1446 1.369 . S
C1445 C1447 1.419 . S
C1445 H1449 0.930 . S
C1446 C1445 1.369 . S
C1446 C1455 1.429 . S
C1447 C1445 1.419 . S
C1447 C1448 1.363 . S
C1447 H1450 0.929 . S
C1448 C1447 1.363 . S
C1448 C1454 1.428 . S
H1449 C1445 0.930 . S
H1450 C1447 0.929 . S
S1451 N1452 1.613 . S
S1451 N1453 1.610 . S
N1452 S1451 1.613 . S
N1452 C1455 1.350 . S
N1453 S1451 1.610 . S
N1453 C1454 1.351 . S
C1454 C1448 1.428 . S
C1454 N1453 1.351 . S
C1454 C1455 1.434 . S
C1455 C1446 1.429 . S
C1455 N1452 1.350 . S
C1455 C1454 1.434 . S
C1456 C1457 1.369 . S
C1456 C1458 1.432 . S
C1456 H1460 0.930 . S
C1457 C1456 1.369 . S
C1457 C1466 1.429 1_565 S
C1458 C1456 1.432 . S
C1458 C1459 1.349 1_565 S
C1458 H1461 0.931 . S
C1459 C1458 1.349 1_545 S
C1459 C1465 1.428 . S
H1460 C1456 0.930 . S
H1461 C1458 0.931 . S
S1462 N1463 1.613 . S
S1462 N1464 1.610 . S
N1463 S1462 1.613 . S
N1463 C1466 1.350 . S
N1464 S1462 1.610 . S
N1464 C1465 1.351 . S
C1465 C1459 1.428 . S
C1465 N1464 1.351 . S
C1465 C1466 1.434 . S
C1466 C1457 1.429 1_545 S
C1466 N1463 1.350 . S
C1466 C1465 1.434 . S
C1467 C1468 1.369 . S
C1467 C1469 1.419 1_455 S
C1467 H1471 0.930 . S
C1468 C1467 1.369 . S
C1468 C1477 1.429 . S
C1469 C1467 1.419 1_655 S
C1469 C1470 1.363 . S
C1469 H1472 0.929 . S
C1470 C1469 1.363 . S
C1470 C1476 1.428 . S
H1471 C1467 0.930 . S
H1472 C1469 0.929 . S
S1473 N1474 1.613 1_655 S
S1473 N1475 1.610 . S
N1474 S1473 1.613 1_455 S
N1474 C1477 1.350 . S
N1475 S1473 1.610 . S
N1475 C1476 1.351 . S
C1476 C1470 1.428 . S
C1476 N1475 1.351 . S
C1476 C1477 1.434 1_655 S
C1477 C1468 1.429 . S
C1477 N1474 1.350 . S
C1477 C1476 1.434 1_455 S
C1478 C1479 1.369 . S
C1478 C1480 1.419 1_556 S
C1478 H1482 0.930 . S
C1479 C1478 1.369 . S
C1479 C1488 1.429 . S
C1480 C1478 1.419 1_554 S
C1480 C1481 1.363 . S
C1480 H1483 0.929 . S
C1481 C1480 1.363 . S
C1481 C1487 1.428 . S
H1482 C1478 0.930 . S
H1483 C1480 0.929 . S
S1484 N1485 1.613 . S
S1484 N1486 1.610 1_556 S
N1485 S1484 1.613 . S
N1485 C1488 1.350 . S
N1486 S1484 1.610 1_554 S
N1486 C1487 1.351 . S
C1487 C1481 1.428 . S
C1487 N1486 1.351 . S
C1487 C1488 1.434 1_554 S
C1488 C1479 1.429 . S
C1488 N1485 1.350 . S
C1488 C1487 1.434 1_556 S
C1489 C1490 1.369 1_556 S
C1489 C1491 1.419 . S
C1489 H1493 0.930 . S
C1490 C1489 1.369 1_554 S
C1490 C1499 1.429 1_665 S
C1491 C1489 1.419 . S
C1491 C1492 1.363 1_665 S
C1491 H1494 0.929 . S
C1492 C1491 1.363 1_445 S
C1492 C1498 1.428 1_556 S
H1493 C1489 0.930 . S
H1494 C1491 0.929 . S
S1495 N1496 1.613 . S
S1495 N1497 1.610 . S
N1496 S1495 1.613 . S
N1496 C1499 1.350 . S
N1497 S1495 1.610 . S
N1497 C1498 1.351 . S
C1498 C1492 1.428 1_554 S
C1498 N1497 1.351 . S
C1498 C1499 1.434 . S
C1499 C1490 1.429 1_445 S
C1499 N1496 1.350 . S
C1499 C1498 1.434 . S
C1500 C1501 1.369 1_565 S
C1500 C1502 1.419 . S
C1500 H1504 0.930 . S
C1501 C1500 1.369 1_545 S
C1501 C1510 1.429 . S
C1502 C1500 1.419 . S
C1502 C1503 1.363 . S
C1502 H1505 0.929 . S
C1503 C1502 1.363 . S
C1503 C1509 1.428 1_565 S
H1504 C1500 0.930 . S
H1505 C1502 0.929 . S
S1506 N1507 1.613 . S
S1506 N1508 1.610 . S
N1507 S1506 1.613 . S
N1507 C1510 1.350 . S
N1508 S1506 1.610 . S
N1508 C1509 1.351 . S
C1509 C1503 1.428 1_545 S
C1509 N1508 1.351 . S
C1509 C1510 1.434 . S
C1510 C1501 1.429 . S
C1510 N1507 1.350 . S
C1510 C1509 1.434 . S
C1511 C1512 1.369 . S
C1511 C1513 1.419 . S
C1511 H1515 0.930 . S
C1512 C1511 1.369 . S
C1512 C1521 1.429 1_455 S
C1513 C1511 1.419 . S
C1513 C1514 1.363 1_455 S
C1513 H1516 0.929 . S
C1514 C1513 1.363 1_655 S
C1514 C1520 1.428 . S
H1515 C1511 0.930 . S
H1516 C1513 0.929 . S
S1517 N1518 1.613 . S
S1517 N1519 1.610 . S
N1518 S1517 1.613 . S
N1518 C1521 1.350 . S
N1519 S1517 1.610 . S
N1519 C1520 1.351 . S
C1520 C1514 1.428 . S
C1520 N1519 1.351 . S
C1520 C1521 1.434 . S
C1521 C1512 1.429 1_655 S
C1521 N1518 1.350 . S
C1521 C1520 1.434 . S
C1522 C1523 1.369 . S
C1522 C1524 1.419 . S
C1522 H1526 0.930 . S
C1523 C1522 1.369 . S
C1523 C1532 1.429 1_556 S
C1524 C1522 1.419 . S
C1524 C1525 1.363 1_556 S
C1524 H1527 0.929 . S
C1525 C1524 1.363 1_554 S
C1525 C1531 1.428 . S
H1526 C1522 0.930 . S
H1527 C1524 0.929 . S
S1528 N1529 1.613 . S
S1528 N1530 1.610 . S
N1529 S1528 1.613 . S
N1529 C1532 1.350 . S
N1530 S1528 1.610 . S
N1530 C1531 1.351 . S
C1531 C1525 1.428 . S
C1531 N1530 1.351 . S
C1531 C1532 1.434 . S
C1532 C1523 1.429 1_554 S
C1532 N1529 1.350 . S
C1532 C1531 1.434 . S
C1533 C1534 1.369 . S
C1533 C1535 1.419 . S
C1533 H1537 0.930 . S
C1534 C1533 1.369 . S
C1534 C1543 1.429 . S
C1535 C1533 1.419 . S
C1535 C1536 1.363 . S
C1535 H1538 0.929 . S
C1536 C1535 1.363 . S
C1536 C1542 1.428 . S
H1537 C1533 0.930 . S
H1538 C1535 0.929 . S
S1539 N1540 1.613 . S
S1539 N1541 1.610 . S
N1540 S1539 1.613 . S
N1540 C1543 1.350 . S
N1541 S1539 1.610 . S
N1541 C1542 1.351 . S
C1542 C1536 1.428 . S
C1542 N1541 1.351 . S
C1542 C1543 1.434 . S
C1543 C1534 1.429 . S
C1543 N1540 1.350 . S
C1543 C1542 1.434 . S
C1544 C1545 1.369 . S
C1544 C1546 1.419 . S
C1544 H1548 0.930 . S
C1545 C1544 1.369 . S
C1545 C1554 1.429 . S
C1546 C1544 1.419 . S
C1546 C1547 1.363 . S
C1546 H1549 0.929 . S
C1547 C1546 1.363 . S
C1547 C1553 1.428 . S
H1548 C1544 0.930 . S
H1549 C1546 0.929 . S
S1550 N1551 1.613 . S
S1550 N1552 1.610 . S
N1551 S1550 1.613 . S
N1551 C1554 1.350 . S
N1552 S1550 1.610 . S
N1552 C1553 1.351 . S
C1553 C1547 1.428 . S
C1553 N1552 1.351 . S
C1553 C1554 1.434 . S
C1554 C1545 1.429 . S
C1554 N1551 1.350 . S
C1554 C1553 1.434 . S
C1555 C1556 1.369 1_655 S
C1555 C1557 1.419 . S
C1555 H1559 0.930 . S
C1556 C1555 1.369 1_455 S
C1556 C1565 1.429 . S
C1557 C1555 1.419 . S
C1557 C1558 1.363 . S
C1557 H1560 0.929 . S
C1558 C1557 1.363 . S
C1558 C1564 1.428 1_655 S
H1559 C1555 0.930 . S
H1560 C1557 0.929 . S
S1561 N1562 1.613 . S
S1561 N1563 1.610 . S
N1562 S1561 1.613 . S
N1562 C1565 1.350 . S
N1563 S1561 1.610 . S
N1563 C1564 1.351 . S
C1564 C1558 1.428 1_455 S
C1564 N1563 1.351 . S
C1564 C1565 1.434 . S
C1565 C1556 1.429 . S
C1565 N1562 1.350 . S
C1565 C1564 1.434 . S
C1566 C1567 1.369 . S
C1566 C1568 1.419 . S
C1566 H1570 0.930 . S
C1567 C1566 1.369 . S
C1567 C1576 1.429 . S
C1568 C1566 1.419 . S
C1568 C1569 1.363 . S
C1568 H1571 0.929 . S
C1569 C1568 1.363 . S
C1569 C1575 1.428 . S
H1570 C1566 0.930 . S
H1571 C1568 0.929 . S
S1572 N1573 1.613 . S
S1572 N1574 1.610 . S
N1573 S1572 1.613 . S
N1573 C1576 1.350 . S
N1574 S1572 1.610 . S
N1574 C1575 1.351 . S
C1575 C1569 1.428 . S
C1575 N1574 1.351 . S
C1575 C1576 1.434 . S
C1576 C1567 1.429 . S
C1576 N1573 1.350 . S
C1576 C1575 1.434 . S
C1577 C1578 1.369 . S
C1577 C1579 1.419 . S
C1577 H1581 0.930 . S
C1578 C1577 1.369 . S
C1578 C1587 1.429 . S
C1579 C1577 1.419 . S
C1579 C1580 1.363 . S
C1579 H1582 0.929 . S
C1580 C1579 1.363 . S
C1580 C1586 1.428 . S
H1581 C1577 0.930 . S
H1582 C1579 0.929 . S
S1583 N1584 1.613 . S
S1583 N1585 1.610 . S
N1584 S1583 1.613 . S
N1584 C1587 1.350 . S
N1585 S1583 1.610 . S
N1585 C1586 1.351 . S
C1586 C1580 1.428 . S
C1586 N1585 1.351 . S
C1586 C1587 1.434 . S
C1587 C1578 1.429 . S
C1587 N1584 1.350 . S
C1587 C1586 1.434 . S
C1588 C1589 1.369 . S
C1588 C1590 1.419 . S
C1588 H1592 0.930 . S
C1589 C1588 1.369 . S
C1589 C1598 1.429 . S
C1590 C1588 1.419 . S
C1590 C1591 1.363 . S
C1590 H1593 0.929 . S
C1591 C1590 1.363 . S
C1591 C1597 1.428 . S
H1592 C1588 0.930 . S
H1593 C1590 0.929 . S
S1594 N1595 1.613 . S
S1594 N1596 1.610 . S
N1595 S1594 1.613 . S
N1595 C1598 1.350 . S
N1596 S1594 1.610 . S
N1596 C1597 1.351 . S
C1597 C1591 1.428 . S
C1597 N1596 1.351 . S
C1597 C1598 1.434 . S
C1598 C1589 1.429 . S
C1598 N1595 1.350 . S
C1598 C1597 1.434 . S
C1599 C1600 1.369 . S
C1599 C1601 1.419 1_565 S
C1599 H1603 0.930 . S
C1600 C1599 1.369 . S
C1600 C1609 1.429 . S
C1601 C1599 1.419 1_545 S
C1601 C1602 1.363 . S
C1601 H1604 0.929 . S
C1602 C1601 1.363 . S
C1602 C1608 1.428 . S
H1603 C1599 0.930 . S
H1604 C1601 0.929 . S
S1605 N1606 1.613 1_545 S
S1605 N1607 1.610 . S
N1606 S1605 1.613 1_565 S
N1606 C1609 1.350 . S
N1607 S1605 1.610 . S
N1607 C1608 1.351 . S
C1608 C1602 1.428 . S
C1608 N1607 1.351 . S
C1608 C1609 1.434 1_545 S
C1609 C1600 1.429 . S
C1609 N1606 1.350 . S
C1609 C1608 1.434 1_565 S
C1610 C1611 1.369 . S
C1610 C1612 1.419 . S
C1610 H1614 0.930 . S
C1611 C1610 1.369 . S
C1611 C1620 1.429 . S
C1612 C1610 1.419 . S
C1612 C1613 1.363 . S
C1612 H1615 0.929 . S
C1613 C1612 1.363 . S
C1613 C1619 1.428 . S
H1614 C1610 0.930 . S
H1615 C1612 0.929 . S
S1616 N1617 1.613 . S
S1616 N1618 1.610 . S
N1617 S1616 1.613 . S
N1617 C1620 1.350 . S
N1618 S1616 1.610 . S
N1618 C1619 1.351 . S
C1619 C1613 1.428 . S
C1619 N1618 1.351 . S
C1619 C1620 1.434 . S
C1620 C1611 1.429 . S
C1620 N1617 1.350 . S
C1620 C1619 1.434 . S
C1621 C1622 1.369 1_556 S
C1621 C1623 1.419 . S
C1621 H1625 0.930 . S
C1622 C1621 1.369 1_554 S
C1622 C1631 1.429 . S
C1623 C1621 1.419 . S
C1623 C1624 1.363 . S
C1623 H1626 0.929 . S
C1624 C1623 1.363 . S
C1624 C1630 1.428 1_556 S
H1625 C1621 0.930 . S
H1626 C1623 0.929 . S
S1627 N1628 1.613 . S
S1627 N1629 1.610 . S
N1628 S1627 1.613 . S
N1628 C1631 1.350 . S
N1629 S1627 1.610 . S
N1629 C1630 1.351 . S
C1630 C1624 1.428 1_554 S
C1630 N1629 1.351 . S
C1630 C1631 1.434 . S
C1631 C1622 1.429 . S
C1631 N1628 1.350 . S
C1631 C1630 1.434 . S
C1632 C1633 1.369 . S
C1632 C1634 1.419 . S
C1632 H1636 0.930 1_545 S
C1633 C1632 1.369 . S
C1633 C1642 1.429 . S
C1634 C1632 1.419 . S
C1634 C1635 1.363 . S
C1634 H1637 0.929 1_545 S
C1635 C1634 1.363 . S
C1635 C1641 1.428 . S
H1636 C1632 0.930 1_565 S
H1637 C1634 0.929 1_565 S
S1638 N1639 1.613 . S
S1638 N1640 1.610 . S
N1639 S1638 1.613 . S
N1639 C1642 1.350 . S
N1640 S1638 1.610 . S
N1640 C1641 1.351 . S
C1641 C1635 1.428 . S
C1641 N1640 1.351 . S
C1641 C1642 1.434 . S
C1642 C1633 1.429 . S
C1642 N1639 1.350 . S
C1642 C1641 1.434 . S
C1643 C1644 1.369 . S
C1643 C1645 1.419 . S
C1643 H1647 0.930 . S
C1644 C1643 1.369 . S
C1644 C1653 1.429 . S
C1645 C1643 1.419 . S
C1645 C1646 1.363 . S
C1645 H1648 0.929 . S
C1646 C1645 1.363 . S
C1646 C1652 1.428 . S
H1647 C1643 0.930 . S
H1648 C1645 0.929 . S
S1649 N1650 1.613 . S
S1649 N1651 1.610 . S
N1650 S1649 1.613 . S
N1650 C1653 1.350 . S
N1651 S1649 1.610 . S
N1651 C1652 1.351 . S
C1652 C1646 1.428 . S
C1652 N1651 1.351 . S
C1652 C1653 1.434 . S
C1653 C1644 1.429 . S
C1653 N1650 1.350 . S
C1653 C1652 1.434 . S
C1654 C1655 1.369 . S
C1654 C1656 1.419 . S
C1654 H1658 0.930 . S
C1655 C1654 1.369 . S
C1655 C1664 1.429 . S
C1656 C1654 1.419 . S
C1656 C1657 1.363 . S
C1656 H1659 0.929 . S
C1657 C1656 1.363 . S
C1657 C1663 1.428 . S
H1658 C1654 0.930 . S
H1659 C1656 0.929 . S
S1660 N1661 1.613 . S
S1660 N1662 1.610 . S
N1661 S1660 1.613 . S
N1661 C1664 1.350 . S
N1662 S1660 1.610 . S
N1662 C1663 1.351 . S
C1663 C1657 1.428 . S
C1663 N1662 1.351 . S
C1663 C1664 1.434 . S
C1664 C1655 1.429 . S
C1664 N1661 1.350 . S
C1664 C1663 1.434 . S
C1665 C1666 1.369 . S
C1665 C1667 1.419 . S
C1665 H1669 0.930 . S
C1666 C1665 1.369 . S
C1666 C1675 1.429 . S
C1667 C1665 1.419 . S
C1667 C1668 1.363 . S
C1667 H1670 0.929 . S
C1668 C1667 1.363 . S
C1668 C1674 1.428 . S
H1669 C1665 0.930 . S
H1670 C1667 0.929 . S
S1671 N1672 1.613 . S
S1671 N1673 1.610 . S
N1672 S1671 1.613 . S
N1672 C1675 1.350 1_565 S
N1673 S1671 1.610 . S
N1673 C1674 1.351 1_565 S
C1674 C1668 1.428 . S
C1674 N1673 1.351 1_545 S
C1674 C1675 1.434 . S
C1675 C1666 1.429 . S
C1675 N1672 1.350 1_545 S
C1675 C1674 1.434 . S
C1676 C1677 1.369 . S
C1676 C1678 1.419 . S
C1676 H1680 0.930 . S
C1677 C1676 1.369 . S
C1677 C1686 1.429 . S
C1678 C1676 1.419 . S
C1678 C1679 1.363 . S
C1678 H1681 0.929 . S
C1679 C1678 1.363 . S
C1679 C1685 1.428 . S
H1680 C1676 0.930 . S
H1681 C1678 0.929 . S
S1682 N1683 1.613 . S
S1682 N1684 1.610 . S
N1683 S1682 1.613 . S
N1683 C1686 1.350 . S
N1684 S1682 1.610 . S
N1684 C1685 1.351 . S
C1685 C1679 1.428 . S
C1685 N1684 1.351 . S
C1685 C1686 1.434 . S
C1686 C1677 1.429 . S
C1686 N1683 1.350 . S
C1686 C1685 1.434 . S
C1687 C1688 1.369 . S
C1687 C1689 1.419 . S
C1687 H1691 0.930 . S
C1688 C1687 1.369 . S
C1688 C1697 1.429 . S
C1689 C1687 1.419 . S
C1689 C1690 1.363 . S
C1689 H1692 0.929 . S
C1690 C1689 1.363 . S
C1690 C1696 1.428 . S
H1691 C1687 0.930 . S
H1692 C1689 0.929 . S
S1693 N1694 1.613 . S
S1693 N1695 1.610 . S
N1694 S1693 1.613 . S
N1694 C1697 1.350 . S
N1695 S1693 1.610 . S
N1695 C1696 1.351 . S
C1696 C1690 1.428 . S
C1696 N1695 1.351 . S
C1696 C1697 1.434 . S
C1697 C1688 1.429 . S
C1697 N1694 1.350 . S
C1697 C1696 1.434 . S
C1698 C1699 1.369 . S
C1698 C1700 1.419 . S
C1698 H1702 0.930 . S
C1699 C1698 1.369 . S
C1699 C1708 1.429 . S
C1700 C1698 1.419 . S
C1700 C1701 1.363 . S
C1700 H1703 0.929 . S
C1701 C1700 1.363 . S
C1701 C1707 1.428 . S
H1702 C1698 0.930 . S
H1703 C1700 0.929 . S
S1704 N1705 1.613 . S
S1704 N1706 1.610 . S
N1705 S1704 1.613 . S
N1705 C1708 1.350 . S
N1706 S1704 1.610 . S
N1706 C1707 1.351 . S
C1707 C1701 1.428 . S
C1707 N1706 1.351 . S
C1707 C1708 1.434 . S
C1708 C1699 1.429 . S
C1708 N1705 1.350 . S
C1708 C1707 1.434 . S
C1709 C1710 1.369 1_545 S
C1709 C1711 1.419 . S
C1709 H1713 0.930 . S
C1710 C1709 1.369 1_565 S
C1710 C1719 1.429 . S
C1711 C1709 1.419 . S
C1711 C1712 1.363 1_545 S
C1711 H1714 0.929 . S
C1712 C1711 1.363 1_565 S
C1712 C1718 1.428 . S
H1713 C1709 0.930 . S
H1714 C1711 0.929 . S
S1715 N1716 1.613 . S
S1715 N1717 1.610 . S
N1716 S1715 1.613 . S
N1716 C1719 1.350 . S
N1717 S1715 1.610 . S
N1717 C1718 1.351 . S
C1718 C1712 1.428 . S
C1718 N1717 1.351 . S
C1718 C1719 1.434 . S
C1719 C1710 1.429 . S
C1719 N1716 1.350 . S
C1719 C1718 1.434 . S
C1720 C1721 1.369 . S
C1720 C1722 1.419 . S
C1720 H1724 0.930 . S
C1721 C1720 1.369 . S
C1721 C1730 1.429 . S
C1722 C1720 1.419 . S
C1722 C1723 1.363 . S
C1722 H1725 0.929 . S
C1723 C1722 1.363 . S
C1723 C1729 1.428 . S
H1724 C1720 0.930 . S
H1725 C1722 0.929 . S
S1726 N1727 1.613 . S
S1726 N1728 1.610 . S
N1727 S1726 1.613 . S
N1727 C1730 1.350 . S
N1728 S1726 1.610 . S
N1728 C1729 1.351 . S
C1729 C1723 1.428 . S
C1729 N1728 1.351 . S
C1729 C1730 1.434 . S
C1730 C1721 1.429 . S
C1730 N1727 1.350 . S
C1730 C1729 1.434 . S
C1731 C1732 1.369 . S
C1731 C1733 1.419 . S
C1731 H1735 0.930 . S
C1732 C1731 1.369 . S
C1732 C1741 1.429 . S
C1733 C1731 1.419 . S
C1733 C1734 1.363 . S
C1733 H1736 0.929 . S
C1734 C1733 1.363 . S
C1734 C1740 1.428 . S
H1735 C1731 0.930 . S
H1736 C1733 0.929 . S
S1737 N1738 1.613 . S
S1737 N1739 1.610 . S
N1738 S1737 1.613 . S
N1738 C1741 1.350 . S
N1739 S1737 1.610 . S
N1739 C1740 1.351 . S
C1740 C1734 1.428 . S
C1740 N1739 1.351 . S
C1740 C1741 1.434 . S
C1741 C1732 1.429 . S
C1741 N1738 1.350 . S
C1741 C1740 1.434 . S
C1742 C1743 1.369 . S
C1742 C1744 1.419 . S
C1742 H1746 0.930 . S
C1743 C1742 1.369 . S
C1743 C1752 1.429 . S
C1744 C1742 1.419 . S
C1744 C1745 1.363 . S
C1744 H1747 0.929 . S
C1745 C1744 1.363 . S
C1745 C1751 1.428 . S
H1746 C1742 0.930 . S
H1747 C1744 0.929 . S
S1748 N1749 1.613 . S
S1748 N1750 1.610 . S
N1749 S1748 1.613 . S
N1749 C1752 1.350 . S
N1750 S1748 1.610 . S
N1750 C1751 1.351 . S
C1751 C1745 1.428 . S
C1751 N1750 1.351 . S
C1751 C1752 1.434 . S
C1752 C1743 1.429 . S
C1752 N1749 1.350 . S
C1752 C1751 1.434 . S
C1753 C1754 1.369 . S
C1753 C1755 1.419 . S
C1753 H1757 0.930 . S
C1754 C1753 1.369 . S
C1754 C1763 1.429 . S
C1755 C1753 1.419 . S
C1755 C1756 1.363 . S
C1755 H1758 0.929 . S
C1756 C1755 1.363 . S
C1756 C1762 1.428 . S
H1757 C1753 0.930 . S
H1758 C1755 0.929 . S
S1759 N1760 1.613 . S
S1759 N1761 1.610 . S
N1760 S1759 1.613 . S
N1760 C1763 1.350 . S
N1761 S1759 1.610 . S
N1761 C1762 1.351 . S
C1762 C1756 1.428 . S
C1762 N1761 1.351 . S
C1762 C1763 1.434 . S
C1763 C1754 1.429 . S
C1763 N1760 1.350 . S
C1763 C1762 1.434 . S
C1764 C1765 1.369 . S
C1764 C1766 1.419 . S
C1764 H1768 0.930 . S
C1765 C1764 1.369 . S
C1765 C1774 1.429 . S
C1766 C1764 1.419 . S
C1766 C1767 1.363 . S
C1766 H1769 0.929 . S
C1767 C1766 1.363 . S
C1767 C1773 1.428 . S
H1768 C1764 0.930 . S
H1769 C1766 0.929 . S
S1770 N1771 1.613 . S
S1770 N1772 1.610 . S
N1771 S1770 1.613 . S
N1771 C1774 1.350 . S
N1772 S1770 1.610 . S
N1772 C1773 1.351 . S
C1773 C1767 1.428 . S
C1773 N1772 1.351 . S
C1773 C1774 1.434 . S
C1774 C1765 1.429 . S
C1774 N1771 1.350 . S
C1774 C1773 1.434 . S
C1775 C1776 1.369 . S
C1775 C1777 1.419 . S
C1775 H1779 0.930 . S
C1776 C1775 1.369 . S
C1776 C1785 1.429 . S
C1777 C1775 1.419 . S
C1777 C1778 1.363 . S
C1777 H1780 0.929 . S
C1778 C1777 1.363 . S
C1778 C1784 1.428 . S
H1779 C1775 0.930 . S
H1780 C1777 0.929 . S
S1781 N1782 1.613 . S
S1781 N1783 1.610 . S
N1782 S1781 1.613 . S
N1782 C1785 1.350 . S
N1783 S1781 1.610 . S
N1783 C1784 1.351 . S
C1784 C1778 1.428 . S
C1784 N1783 1.351 . S
C1784 C1785 1.434 . S
C1785 C1776 1.429 . S
C1785 N1782 1.350 . S
C1785 C1784 1.434 . S
C1786 C1787 1.369 . S
C1786 C1788 1.419 . S
C1786 H1790 0.930 . S
C1787 C1786 1.369 . S
C1787 C1796 1.429 . S
C1788 C1786 1.419 . S
C1788 C1789 1.363 . S
C1788 H1791 0.929 . S
C1789 C1788 1.363 . S
C1789 C1795 1.428 . S
H1790 C1786 0.930 . S
H1791 C1788 0.929 . S
S1792 N1793 1.613 . S
S1792 N1794 1.610 . S
N1793 S1792 1.613 . S
N1793 C1796 1.350 . S
N1794 S1792 1.610 . S
N1794 C1795 1.351 . S
C1795 C1789 1.428 . S
C1795 N1794 1.351 . S
C1795 C1796 1.434 . S
C1796 C1787 1.429 . S
C1796 N1793 1.350 . S
C1796 C1795 1.434 . S
C1797 C1798 1.369 . S
C1797 C1799 1.419 . S
C1797 H1801 0.930 . S
C1798 C1797 1.369 . S
C1798 C1807 1.429 . S
C1799 C1797 1.419 . S
C1799 C1800 1.363 . S
C1799 H1802 0.929 . S
C1800 C1799 1.363 . S
C1800 C1806 1.428 . S
H1801 C1797 0.930 . S
H1802 C1799 0.929 . S
S1803 N1804 1.613 . S
S1803 N1805 1.610 . S
N1804 S1803 1.613 . S
N1804 C1807 1.350 . S
N1805 S1803 1.610 . S
N1805 C1806 1.351 . S
C1806 C1800 1.428 . S
C1806 N1805 1.351 . S
C1806 C1807 1.434 . S
C1807 C1798 1.429 . S
C1807 N1804 1.350 . S
C1807 C1806 1.434 . S
C1808 C1809 1.369 . S
C1808 C1810 1.419 . S
C1808 H1812 0.930 . S
C1809 C1808 1.369 . S
C1809 C1818 1.429 . S
C1810 C1808 1.419 . S
C1810 C1811 1.363 . S
C1810 H1813 0.929 . S
C1811 C1810 1.363 . S
C1811 C1817 1.428 . S
H1812 C1808 0.930 . S
H1813 C1810 0.929 . S
S1814 N1815 1.613 . S
S1814 N1816 1.610 . S
N1815 S1814 1.613 . S
N1815 C1818 1.350 . S
N1816 S1814 1.610 . S
N1816 C1817 1.351 . S
C1817 C1811 1.428 . S
C1817 N1816 1.351 . S
C1817 C1818 1.434 . S
C1818 C1809 1.429 . S
C1818 N1815 1.350 . S
C1818 C1817 1.434 . S
C1819 C1820 1.369 . S
C1819 C1821 1.419 . S
C1819 H1823 0.930 . S
C1820 C1819 1.369 . S
C1820 C1829 1.429 . S
C1821 C1819 1.419 . S
C1821 C1822 1.363 . S
C1821 H1824 0.929 . S
C1822 C1821 1.363 . S
C1822 C1828 1.428 . S
H1823 C1819 0.930 . S
H1824 C1821 0.929 . S
S1825 N1826 1.613 . S
S1825 N1827 1.610 . S
N1826 S1825 1.613 . S
N1826 C1829 1.350 . S
N1827 S1825 1.610 . S
N1827 C1828 1.351 . S
C1828 C1822 1.428 . S
C1828 N1827 1.351 . S
C1828 C1829 1.434 . S
C1829 C1820 1.429 . S
C1829 N1826 1.350 . S
C1829 C1828 1.434 . S
C1830 C1831 1.369 . S
C1830 C1832 1.419 . S
C1830 H1834 0.930 . S
C1831 C1830 1.369 . S
C1831 C1840 1.429 . S
C1832 C1830 1.419 . S
C1832 C1833 1.363 . S
C1832 H1835 0.929 . S
C1833 C1832 1.363 . S
C1833 C1839 1.428 . S
H1834 C1830 0.930 . S
H1835 C1832 0.929 . S
S1836 N1837 1.613 . S
S1836 N1838 1.610 . S
N1837 S1836 1.613 . S
N1837 C1840 1.350 . S
N1838 S1836 1.610 . S
N1838 C1839 1.351 . S
C1839 C1833 1.428 . S
C1839 N1838 1.351 . S
C1839 C1840 1.434 . S
C1840 C1831 1.429 . S
C1840 N1837 1.350 . S
C1840 C1839 1.434 . S
C1841 C1842 1.369 . S
C1841 C1843 1.419 . S
C1841 H1845 0.930 . S
C1842 C1841 1.369 . S
C1842 C1851 1.429 . S
C1843 C1841 1.419 . S
C1843 C1844 1.363 . S
C1843 H1846 0.929 . S
C1844 C1843 1.363 . S
C1844 C1850 1.428 . S
H1845 C1841 0.930 . S
H1846 C1843 0.929 . S
S1847 N1848 1.613 1_655 S
S1847 N1849 1.610 1_655 S
N1848 S1847 1.613 1_455 S
N1848 C1851 1.350 . S
N1849 S1847 1.610 1_455 S
N1849 C1850 1.351 . S
C1850 C1844 1.428 . S
C1850 N1849 1.351 . S
C1850 C1851 1.434 . S
C1851 C1842 1.429 . S
C1851 N1848 1.350 . S
C1851 C1850 1.434 . S
C1852 C1853 1.369 . S
C1852 C1854 1.419 . S
C1852 H1856 0.930 . S
C1853 C1852 1.369 . S
C1853 C1862 1.429 . S
C1854 C1852 1.419 . S
C1854 C1855 1.363 . S
C1854 H1857 0.929 . S
C1855 C1854 1.363 . S
C1855 C1861 1.428 . S
H1856 C1852 0.930 . S
H1857 C1854 0.929 . S
S1858 N1859 1.613 . S
S1858 N1860 1.610 . S
N1859 S1858 1.613 . S
N1859 C1862 1.350 . S
N1860 S1858 1.610 . S
N1860 C1861 1.351 . S
C1861 C1855 1.428 . S
C1861 N1860 1.351 . S
C1861 C1862 1.434 . S
C1862 C1853 1.429 . S
C1862 N1859 1.350 . S
C1862 C1861 1.434 . S
C1863 C1864 1.369 . S
C1863 C1865 1.419 . S
C1863 H1867 0.930 . S
C1864 C1863 1.369 . S
C1864 C1873 1.429 . S
C1865 C1863 1.419 . S
C1865 C1866 1.363 . S
C1865 H1868 0.929 . S
C1866 C1865 1.363 . S
C1866 C1872 1.428 . S
H1867 C1863 0.930 . S
H1868 C1865 0.929 . S
S1869 N1870 1.613 . S
S1869 N1871 1.610 . S
N1870 S1869 1.613 . S
N1870 C1873 1.350 . S
N1871 S1869 1.610 . S
N1871 C1872 1.351 . S
C1872 C1866 1.428 . S
C1872 N1871 1.351 . S
C1872 C1873 1.434 . S
C1873 C1864 1.429 . S
C1873 N1870 1.350 . S
C1873 C1872 1.434 . S
C1874 C1875 1.369 . S
C1874 C1876 1.419 . S
C1874 H1878 0.930 . S
C1875 C1874 1.369 . S
C1875 C1884 1.429 . S
C1876 C1874 1.419 . S
C1876 C1877 1.363 . S
C1876 H1879 0.929 . S
C1877 C1876 1.363 . S
C1877 C1883 1.428 . S
H1878 C1874 0.930 . S
H1879 C1876 0.929 . S
S1880 N1881 1.613 . S
S1880 N1882 1.610 . S
N1881 S1880 1.613 . S
N1881 C1884 1.350 . S
N1882 S1880 1.610 . S
N1882 C1883 1.351 . S
C1883 C1877 1.428 . S
C1883 N1882 1.351 . S
C1883 C1884 1.434 . S
C1884 C1875 1.429 . S
C1884 N1881 1.350 . S
C1884 C1883 1.434 . S
C1885 C1886 1.369 . S
C1885 C1887 1.419 . S
C1885 H1889 0.930 . S
C1886 C1885 1.369 . S
C1886 C1895 1.429 . S
C1887 C1885 1.419 . S
C1887 C1888 1.363 . S
C1887 H1890 0.929 . S
C1888 C1887 1.363 . S
C1888 C1894 1.428 . S
H1889 C1885 0.930 . S
H1890 C1887 0.929 . S
S1891 N1892 1.613 1_655 S
S1891 N1893 1.610 1_655 S
N1892 S1891 1.613 1_455 S
N1892 C1895 1.350 . S
N1893 S1891 1.610 1_455 S
N1893 C1894 1.351 . S
C1894 C1888 1.428 . S
C1894 N1893 1.351 . S
C1894 C1895 1.434 . S
C1895 C1886 1.429 . S
C1895 N1892 1.350 . S
C1895 C1894 1.434 . S
C1896 C1897 1.369 . S
C1896 C1898 1.419 . S
C1896 H1900 0.930 . S
C1897 C1896 1.369 . S
C1897 C1906 1.429 . S
C1898 C1896 1.419 . S
C1898 C1899 1.363 . S
C1898 H1901 0.929 . S
C1899 C1898 1.363 . S
C1899 C1905 1.428 . S
H1900 C1896 0.930 . S
H1901 C1898 0.929 . S
S1902 N1903 1.613 . S
S1902 N1904 1.610 . S
N1903 S1902 1.613 . S
N1903 C1906 1.350 . S
N1904 S1902 1.610 . S
N1904 C1905 1.351 . S
C1905 C1899 1.428 . S
C1905 N1904 1.351 . S
C1905 C1906 1.434 . S
C1906 C1897 1.429 . S
C1906 N1903 1.350 . S
C1906 C1905 1.434 . S
C1907 C1908 1.369 . S
C1907 C1909 1.419 . S
C1907 H1911 0.930 . S
C1908 C1907 1.369 . S
C1908 C1917 1.429 . S
C1909 C1907 1.419 . S
C1909 C1910 1.363 . S
C1909 H1912 0.929 . S
C1910 C1909 1.363 . S
C1910 C1916 1.428 . S
H1911 C1907 0.930 . S
H1912 C1909 0.929 . S
S1913 N1914 1.613 . S
S1913 N1915 1.610 . S
N1914 S1913 1.613 . S
N1914 C1917 1.350 . S
N1915 S1913 1.610 . S
N1915 C1916 1.351 . S
C1916 C1910 1.428 . S
C1916 N1915 1.351 . S
C1916 C1917 1.434 . S
C1917 C1908 1.429 . S
C1917 N1914 1.350 . S
C1917 C1916 1.434 . S
C1918 C1919 1.369 . S
C1918 C1920 1.419 . S
C1918 H1922 0.930 . S
C1919 C1918 1.369 . S
C1919 C1928 1.429 . S
C1920 C1918 1.419 . S
C1920 C1921 1.363 . S
C1920 H1923 0.929 . S
C1921 C1920 1.363 . S
C1921 C1927 1.428 . S
H1922 C1918 0.930 . S
H1923 C1920 0.929 . S
S1924 N1925 1.613 . S
S1924 N1926 1.610 . S
N1925 S1924 1.613 . S
N1925 C1928 1.350 . S
N1926 S1924 1.610 . S
N1926 C1927 1.351 . S
C1927 C1921 1.428 . S
C1927 N1926 1.351 . S
C1927 C1928 1.434 . S
C1928 C1919 1.429 . S
C1928 N1925 1.350 . S
C1928 C1927 1.434 . S
C1929 C1930 1.369 . S
C1929 C1931 1.419 . S
C1929 H1933 0.930 . S
C1930 C1929 1.369 . S
C1930 C1939 1.429 . S
C1931 C1929 1.419 . S
C1931 C1932 1.363 . S
C1931 H1934 0.929 . S
C1932 C1931 1.363 . S
C1932 C1938 1.428 . S
H1933 C1929 0.930 . S
H1934 C1931 0.929 . S
S1935 N1936 1.613 . S
S1935 N1937 1.610 . S
N1936 S1935 1.613 . S
N1936 C1939 1.350 . S
N1937 S1935 1.610 . S
N1937 C1938 1.351 . S
C1938 C1932 1.428 . S
C1938 N1937 1.351 . S
C1938 C1939 1.434 . S
C1939 C1930 1.429 . S
C1939 N1936 1.350 . S
C1939 C1938 1.434 . S
C1940 C1941 1.369 . S
C1940 C1942 1.419 . S
C1940 H1944 0.930 . S
C1941 C1940 1.369 . S
C1941 C1950 1.429 . S
C1942 C1940 1.419 . S
C1942 C1943 1.363 . S
C1942 H1945 0.929 . S
C1943 C1942 1.363 . S
C1943 C1949 1.428 . S
H1944 C1940 0.930 . S
H1945 C1942 0.929 . S
S1946 N1947 1.613 . S
S1946 N1948 1.610 . S
N1947 S1946 1.613 . S
N1947 C1950 1.350 . S
N1948 S1946 1.610 . S
N1948 C1949 1.351 . S
C1949 C1943 1.428 . S
C1949 N1948 1.351 . S
C1949 C1950 1.434 . S
C1950 C1941 1.429 . S
C1950 N1947 1.350 . S
C1950 C1949 1.434 . S
C1951 C1952 1.369 . S
C1951 C1953 1.419 . S
C1951 H1955 0.930 . S
C1952 C1951 1.369 . S
C1952 C1961 1.429 . S
C1953 C1951 1.419 . S
C1953 C1954 1.363 . S
C1953 H1956 0.929 . S
C1954 C1953 1.363 . S
C1954 C1960 1.428 . S
H1955 C1951 0.930 . S
H1956 C1953 0.929 . S
S1957 N1958 1.613 . S
S1957 N1959 1.610 . S
N1958 S1957 1.613 . S
N1958 C1961 1.350 . S
N1959 S1957 1.610 . S
N1959 C1960 1.351 . S
C1960 C1954 1.428 . S
C1960 N1959 1.351 . S
C1960 C1961 1.434 . S
C1961 C1952 1.429 . S
C1961 N1958 1.350 . S
C1961 C1960 1.434 . S
C1962 C1963 1.369 . S
C1962 C1964 1.419 . S
C1962 H1966 0.930 . S
C1963 C1962 1.369 . S
C1963 C1972 1.429 . S
C1964 C1962 1.419 . S
C1964 C1965 1.363 . S
C1964 H1967 0.929 . S
C1965 C1964 1.363 . S
C1965 C1971 1.428 . S
H1966 C1962 0.930 . S
H1967 C1964 0.929 . S
S1968 N1969 1.613 . S
S1968 N1970 1.610 . S
N1969 S1968 1.613 . S
N1969 C1972 1.350 . S
N1970 S1968 1.610 . S
N1970 C1971 1.351 . S
C1971 C1965 1.428 . S
C1971 N1970 1.351 . S
C1971 C1972 1.434 . S
C1972 C1963 1.429 . S
C1972 N1969 1.350 . S
C1972 C1971 1.434 . S
C1973 C1974 1.369 . S
C1973 C1975 1.419 . S
C1973 H1977 0.930 . S
C1974 C1973 1.369 . S
C1974 C1983 1.429 . S
C1975 C1973 1.419 . S
C1975 C1976 1.363 . S
C1975 H1978 0.929 . S
C1976 C1975 1.363 . S
C1976 C1982 1.428 . S
H1977 C1973 0.930 . S
H1978 C1975 0.929 . S
S1979 N1980 1.613 . S
S1979 N1981 1.610 . S
N1980 S1979 1.613 . S
N1980 C1983 1.350 . S
N1981 S1979 1.610 . S
N1981 C1982 1.351 . S
C1982 C1976 1.428 . S
C1982 N1981 1.351 . S
C1982 C1983 1.434 . S
C1983 C1974 1.429 . S
C1983 N1980 1.350 . S
C1983 C1982 1.434 . S
C1984 C1985 1.369 . S
C1984 C1986 1.419 . S
C1984 H1988 0.930 . S
C1985 C1984 1.369 . S
C1985 C1994 1.429 1_545 S
C1986 C1984 1.419 . S
C1986 C1987 1.363 . S
C1986 H1989 0.929 . S
C1987 C1986 1.363 . S
C1987 C1993 1.428 1_545 S
H1988 C1984 0.930 . S
H1989 C1986 0.929 . S
S1990 N1991 1.613 . S
S1990 N1992 1.610 . S
N1991 S1990 1.613 . S
N1991 C1994 1.350 . S
N1992 S1990 1.610 . S
N1992 C1993 1.351 . S
C1993 C1987 1.428 1_565 S
C1993 N1992 1.351 . S
C1993 C1994 1.434 . S
C1994 C1985 1.429 1_565 S
C1994 N1991 1.350 . S
C1994 C1993 1.434 . S
C1995 C1996 1.369 . S
C1995 C1997 1.419 . S
C1995 H1999 0.930 . S
C1996 C1995 1.369 . S
C1996 C2005 1.429 1_455 S
C1997 C1995 1.419 . S
C1997 C1998 1.363 1_455 S
C1997 H2000 0.929 . S
C1998 C1997 1.363 1_655 S
C1998 C2004 1.428 . S
H1999 C1995 0.930 . S
H2000 C1997 0.929 . S
S2001 N2002 1.613 . S
S2001 N2003 1.610 . S
N2002 S2001 1.613 . S
N2002 C2005 1.350 . S
N2003 S2001 1.610 . S
N2003 C2004 1.351 . S
C2004 C1998 1.428 . S
C2004 N2003 1.351 . S
C2004 C2005 1.434 . S
C2005 C1996 1.429 1_655 S
C2005 N2002 1.350 . S
C2005 C2004 1.434 . S
C2006 C2007 1.369 . S
C2006 C2008 1.419 . S
C2006 H2010 0.930 . S
C2007 C2006 1.369 . S
C2007 C2016 1.429 . S
C2008 C2006 1.419 . S
C2008 C2009 1.363 . S
C2008 H2011 0.929 . S
C2009 C2008 1.363 . S
C2009 C2015 1.428 . S
H2010 C2006 0.930 . S
H2011 C2008 0.929 . S
S2012 N2013 1.613 . S
S2012 N2014 1.610 . S
N2013 S2012 1.613 . S
N2013 C2016 1.350 . S
N2014 S2012 1.610 . S
N2014 C2015 1.351 . S
C2015 C2009 1.428 . S
C2015 N2014 1.351 . S
C2015 C2016 1.434 . S
C2016 C2007 1.429 . S
C2016 N2013 1.350 . S
C2016 C2015 1.434 . S
C2017 C2018 1.369 . S
C2017 C2019 1.419 . S
C2017 H2021 0.930 . S
C2018 C2017 1.369 . S
C2018 C2027 1.429 1_645 S
C2019 C2017 1.419 . S
C2019 C2020 1.363 1_655 S
C2019 H2022 0.929 . S
C2020 C2019 1.363 1_455 S
C2020 C2026 1.428 1_545 S
H2021 C2017 0.930 . S
H2022 C2019 0.929 . S
S2023 N2024 1.613 . S
S2023 N2025 1.610 . S
N2024 S2023 1.613 . S
N2024 C2027 1.350 . S
N2025 S2023 1.610 . S
N2025 C2026 1.351 . S
C2026 C2020 1.428 1_565 S
C2026 N2025 1.351 . S
C2026 C2027 1.434 . S
C2027 C2018 1.429 1_465 S
C2027 N2024 1.350 . S
C2027 C2026 1.434 . S
C2028 C2029 1.369 1_545 S
C2028 C2030 1.416 1_545 S
C2028 H2032 0.930 . S
C2029 C2028 1.369 1_565 S
C2029 C2038 1.429 . S
C2030 C2028 1.416 1_565 S
C2030 C2031 1.370 . S
C2030 H2033 0.926 1_565 S
C2031 C2030 1.370 . S
C2031 C2037 1.428 . S
H2032 C2028 0.930 . S
H2033 C2030 0.926 1_545 S
S2034 N2035 1.613 . S
S2034 N2036 1.610 . S
N2035 S2034 1.613 . S
N2035 C2038 1.350 . S
N2036 S2034 1.610 . S
N2036 C2037 1.351 . S
C2037 C2031 1.428 . S
C2037 N2036 1.351 . S
C2037 C2038 1.434 . S
C2038 C2029 1.429 . S
C2038 N2035 1.350 . S
C2038 C2037 1.434 . S
C2039 C2040 1.369 1_655 S
C2039 C2041 1.419 . S
C2039 H2043 0.930 . S
C2040 C2039 1.369 1_455 S
C2040 C2049 1.429 . S
C2041 C2039 1.419 . S
C2041 C2042 1.363 . S
C2041 H2044 0.929 . S
C2042 C2041 1.363 . S
C2042 C2048 1.428 1_655 S
H2043 C2039 0.930 . S
H2044 C2041 0.929 . S
S2045 N2046 1.613 . S
S2045 N2047 1.610 . S
N2046 S2045 1.613 . S
N2046 C2049 1.350 . S
N2047 S2045 1.610 . S
N2047 C2048 1.351 . S
C2048 C2042 1.428 1_455 S
C2048 N2047 1.351 . S
C2048 C2049 1.434 . S
C2049 C2040 1.429 . S
C2049 N2046 1.350 . S
C2049 C2048 1.434 . S
C2050 C2051 1.369 . S
C2050 C2052 1.419 . S
C2050 H2054 0.930 . S
C2051 C2050 1.369 . S
C2051 C2060 1.429 . S
C2052 C2050 1.419 . S
C2052 C2053 1.363 . S
C2052 H2055 0.929 . S
C2053 C2052 1.363 . S
C2053 C2059 1.428 . S
H2054 C2050 0.930 . S
H2055 C2052 0.929 . S
S2056 N2057 1.613 . S
S2056 N2058 1.610 . S
N2057 S2056 1.613 . S
N2057 C2060 1.350 . S
N2058 S2056 1.610 . S
N2058 C2059 1.351 . S
C2059 C2053 1.428 . S
C2059 N2058 1.351 . S
C2059 C2060 1.434 . S
C2060 C2051 1.429 . S
C2060 N2057 1.350 . S
C2060 C2059 1.434 . S
C2061 C2062 1.384 1_455 S
C2061 C2063 1.419 . S
C2061 H2065 0.930 . S
C2062 C2061 1.384 1_655 S
C2062 C2071 1.417 1_565 S
C2063 C2061 1.419 . S
C2063 C2064 1.363 . S
C2063 H2066 0.929 . S
C2064 C2063 1.363 . S
C2064 C2070 1.428 1_465 S
H2065 C2061 0.930 . S
H2066 C2063 0.929 . S
S2067 N2068 1.613 . S
S2067 N2069 1.610 . S
N2068 S2067 1.613 . S
N2068 C2071 1.350 . S
N2069 S2067 1.610 . S
N2069 C2070 1.351 . S
C2070 C2064 1.428 1_645 S
C2070 N2069 1.351 . S
C2070 C2071 1.434 . S
C2071 C2062 1.417 1_545 S
C2071 N2068 1.350 . S
C2071 C2070 1.434 . S
C2072 C2073 1.369 . S
C2072 C2074 1.419 . S
C2072 H2076 0.930 . S
C2073 C2072 1.369 . S
C2073 C2082 1.429 . S
C2074 C2072 1.419 . S
C2074 C2075 1.363 . S
C2074 H2077 0.929 . S
C2075 C2074 1.363 . S
C2075 C2081 1.428 . S
H2076 C2072 0.930 . S
H2077 C2074 0.929 . S
S2078 N2079 1.613 . S
S2078 N2080 1.610 . S
N2079 S2078 1.613 . S
N2079 C2082 1.350 . S
N2080 S2078 1.610 . S
N2080 C2081 1.351 . S
C2081 C2075 1.428 . S
C2081 N2080 1.351 . S
C2081 C2082 1.434 . S
C2082 C2073 1.429 . S
C2082 N2079 1.350 . S
C2082 C2081 1.434 . S
C2083 C2084 1.369 . S
C2083 C2085 1.419 . S
C2083 H2087 0.930 . S
C2084 C2083 1.369 . S
C2084 C2093 1.429 1_455 S
C2085 C2083 1.419 . S
C2085 C2086 1.363 1_455 S
C2085 H2088 0.929 . S
C2086 C2085 1.363 1_655 S
C2086 C2092 1.428 . S
H2087 C2083 0.930 . S
H2088 C2085 0.929 . S
S2089 N2090 1.613 . S
S2089 N2091 1.610 . S
N2090 S2089 1.613 . S
N2090 C2093 1.350 . S
N2091 S2089 1.610 . S
N2091 C2092 1.351 . S
C2092 C2086 1.428 . S
C2092 N2091 1.351 . S
C2092 C2093 1.434 . S
C2093 C2084 1.429 1_655 S
C2093 N2090 1.350 . S
C2093 C2092 1.434 . S
C2094 C2095 1.369 . S
C2094 C2096 1.419 . S
C2094 H2098 0.930 . S
C2095 C2094 1.369 . S
C2095 C2104 1.429 . S
C2096 C2094 1.419 . S
C2096 C2097 1.363 . S
C2096 H2099 0.929 . S
C2097 C2096 1.363 . S
C2097 C2103 1.428 . S
H2098 C2094 0.930 . S
H2099 C2096 0.929 . S
S2100 N2101 1.613 . S
S2100 N2102 1.610 . S
N2101 S2100 1.613 . S
N2101 C2104 1.350 . S
N2102 S2100 1.610 . S
N2102 C2103 1.351 . S
C2103 C2097 1.428 . S
C2103 N2102 1.351 . S
C2103 C2104 1.434 . S
C2104 C2095 1.429 . S
C2104 N2101 1.350 . S
C2104 C2103 1.434 . S
C2105 C2106 1.369 1_655 S
C2105 C2107 1.419 . S
C2105 H2109 0.930 . S
C2106 C2105 1.369 1_455 S
C2106 C2115 1.429 . S
C2107 C2105 1.419 . S
C2107 C2108 1.363 . S
C2107 H2110 0.929 . S
C2108 C2107 1.363 . S
C2108 C2114 1.428 1_655 S
H2109 C2105 0.930 . S
H2110 C2107 0.929 . S
S2111 N2112 1.613 . S
S2111 N2113 1.610 . S
N2112 S2111 1.613 . S
N2112 C2115 1.350 . S
N2113 S2111 1.610 . S
N2113 C2114 1.351 . S
C2114 C2108 1.428 1_455 S
C2114 N2113 1.351 . S
C2114 C2115 1.434 . S
C2115 C2106 1.429 . S
C2115 N2112 1.350 . S
C2115 C2114 1.434 . S
C2116 C2117 1.369 . S
C2116 C2118 1.419 . S
C2116 H2120 0.930 . S
C2117 C2116 1.369 . S
C2117 C2126 1.429 . S
C2118 C2116 1.419 . S
C2118 C2119 1.363 . S
C2118 H2121 0.929 . S
C2119 C2118 1.363 . S
C2119 C2125 1.428 . S
H2120 C2116 0.930 . S
H2121 C2118 0.929 . S
S2122 N2123 1.613 . S
S2122 N2124 1.610 . S
N2123 S2122 1.613 . S
N2123 C2126 1.350 . S
N2124 S2122 1.610 . S
N2124 C2125 1.351 . S
C2125 C2119 1.428 . S
C2125 N2124 1.351 . S
C2125 C2126 1.434 . S
C2126 C2117 1.429 . S
C2126 N2123 1.350 . S
C2126 C2125 1.434 . S
C2127 C2128 1.369 1_655 S
C2127 C2129 1.419 . S
C2127 H2131 0.930 . S
C2128 C2127 1.369 1_455 S
C2128 C2137 1.429 . S
C2129 C2127 1.419 . S
C2129 C2130 1.363 . S
C2129 H2132 0.929 . S
C2130 C2129 1.363 . S
C2130 C2136 1.428 1_655 S
H2131 C2127 0.930 . S
H2132 C2129 0.929 . S
S2133 N2134 1.613 . S
S2133 N2135 1.610 . S
N2134 S2133 1.613 . S
N2134 C2137 1.350 . S
N2135 S2133 1.610 . S
N2135 C2136 1.351 . S
C2136 C2130 1.428 1_455 S
C2136 N2135 1.351 . S
C2136 C2137 1.434 . S
C2137 C2128 1.429 . S
C2137 N2134 1.350 . S
C2137 C2136 1.434 . S
C2138 C2139 1.369 . S
C2138 C2140 1.419 . S
C2138 H2142 0.930 . S
C2139 C2138 1.369 . S
C2139 C2148 1.429 . S
C2140 C2138 1.419 . S
C2140 C2141 1.363 . S
C2140 H2143 0.929 . S
C2141 C2140 1.363 . S
C2141 C2147 1.428 . S
H2142 C2138 0.930 . S
H2143 C2140 0.929 . S
S2144 N2145 1.613 . S
S2144 N2146 1.610 . S
N2145 S2144 1.613 . S
N2145 C2148 1.350 . S
N2146 S2144 1.610 . S
N2146 C2147 1.351 . S
C2147 C2141 1.428 . S
C2147 N2146 1.351 . S
C2147 C2148 1.434 . S
C2148 C2139 1.429 . S
C2148 N2145 1.350 . S
C2148 C2147 1.434 . S
C2149 C2150 1.369 1_455 S
C2149 C2151 1.419 . S
C2149 H2153 0.930 . S
C2150 C2149 1.369 1_655 S
C2150 C2159 1.429 . S
C2151 C2149 1.419 . S
C2151 C2152 1.363 . S
C2151 H2154 0.929 . S
C2152 C2151 1.363 . S
C2152 C2158 1.428 1_455 S
H2153 C2149 0.930 . S
H2154 C2151 0.929 . S
S2155 N2156 1.613 . S
S2155 N2157 1.610 . S
N2156 S2155 1.613 . S
N2156 C2159 1.350 . S
N2157 S2155 1.610 . S
N2157 C2158 1.351 . S
C2158 C2152 1.428 1_655 S
C2158 N2157 1.351 . S
C2158 C2159 1.434 . S
C2159 C2150 1.429 . S
C2159 N2156 1.350 . S
C2159 C2158 1.434 . S
C2160 C2161 1.369 . S
C2160 C2162 1.419 . S
C2160 H2164 0.930 . S
C2161 C2160 1.369 . S
C2161 C2170 1.429 1_545 S
C2162 C2160 1.419 . S
C2162 C2163 1.363 . S
C2162 H2165 0.929 . S
C2163 C2162 1.363 . S
C2163 C2169 1.428 1_545 S
H2164 C2160 0.930 . S
H2165 C2162 0.929 . S
S2166 N2167 1.613 . S
S2166 N2168 1.610 . S
N2167 S2166 1.613 . S
N2167 C2170 1.350 . S
N2168 S2166 1.610 . S
N2168 C2169 1.351 . S
C2169 C2163 1.428 1_565 S
C2169 N2168 1.351 . S
C2169 C2170 1.434 . S
C2170 C2161 1.429 1_565 S
C2170 N2167 1.350 . S
C2170 C2169 1.434 . S
C2171 C2172 1.369 . S
C2171 C2173 1.419 . S
C2171 H2175 0.930 . S
C2172 C2171 1.369 . S
C2172 C2181 1.429 . S
C2173 C2171 1.419 . S
C2173 C2174 1.363 . S
C2173 H2176 0.929 . S
C2174 C2173 1.363 . S
C2174 C2180 1.428 . S
H2175 C2171 0.930 . S
H2176 C2173 0.929 . S
S2177 N2178 1.613 . S
S2177 N2179 1.610 . S
N2178 S2177 1.613 . S
N2178 C2181 1.350 . S
N2179 S2177 1.610 . S
N2179 C2180 1.351 . S
C2180 C2174 1.428 . S
C2180 N2179 1.351 . S
C2180 C2181 1.434 . S
C2181 C2172 1.429 . S
C2181 N2178 1.350 . S
C2181 C2180 1.434 . S
C2182 C2183 1.369 . S
C2182 C2184 1.419 . S
C2182 H2186 0.930 . S
C2183 C2182 1.369 . S
C2183 C2192 1.429 . S
C2184 C2182 1.419 . S
C2184 C2185 1.363 . S
C2184 H2187 0.929 . S
C2185 C2184 1.363 . S
C2185 C2191 1.428 . S
H2186 C2182 0.930 . S
H2187 C2184 0.929 . S
S2188 N2189 1.613 . S
S2188 N2190 1.610 . S
N2189 S2188 1.613 . S
N2189 C2192 1.350 . S
N2190 S2188 1.610 . S
N2190 C2191 1.351 . S
C2191 C2185 1.428 . S
C2191 N2190 1.351 . S
C2191 C2192 1.434 . S
C2192 C2183 1.429 . S
C2192 N2189 1.350 . S
C2192 C2191 1.434 . S
C2193 C2194 1.369 1_565 S
C2193 C2195 1.419 . S
C2193 H2197 0.930 . S
C2194 C2193 1.369 1_545 S
C2194 C2203 1.429 . S
C2195 C2193 1.419 . S
C2195 C2196 1.363 1_565 S
C2195 H2198 0.929 . S
C2196 C2195 1.363 1_545 S
C2196 C2202 1.428 . S
H2197 C2193 0.930 . S
H2198 C2195 0.929 . S
S2199 N2200 1.613 . S
S2199 N2201 1.610 . S
N2200 S2199 1.613 . S
N2200 C2203 1.350 . S
N2201 S2199 1.610 . S
N2201 C2202 1.351 . S
C2202 C2196 1.428 . S
C2202 N2201 1.351 . S
C2202 C2203 1.434 . S
C2203 C2194 1.429 . S
C2203 N2200 1.350 . S
C2203 C2202 1.434 . S
C2204 C2205 1.369 . S
C2204 C2206 1.419 . S
C2204 H2208 0.930 . S
C2205 C2204 1.369 . S
C2205 C2214 1.429 1_565 S
C2206 C2204 1.419 . S
C2206 C2207 1.392 . S
C2206 H2209 0.929 . S
C2207 C2206 1.392 . S
C2207 C2213 1.402 1_565 S
H2208 C2204 0.930 . S
H2209 C2206 0.929 . S
S2210 N2211 1.613 . S
S2210 N2212 1.610 . S
N2211 S2210 1.613 . S
N2211 C2214 1.350 . S
N2212 S2210 1.610 . S
N2212 C2213 1.351 . S
C2213 C2207 1.402 1_545 S
C2213 N2212 1.351 . S
C2213 C2214 1.434 . S
C2214 C2205 1.429 1_545 S
C2214 N2211 1.350 . S
C2214 C2213 1.434 . S
C2215 C2216 1.369 . S
C2215 C2217 1.419 . S
C2215 H2219 0.930 . S
C2216 C2215 1.369 . S
C2216 C2225 1.429 . S
C2217 C2215 1.419 . S
C2217 C2218 1.363 . S
C2217 H2220 0.929 . S
C2218 C2217 1.363 . S
C2218 C2224 1.428 . S
H2219 C2215 0.930 . S
H2220 C2217 0.929 . S
S2221 N2222 1.613 . S
S2221 N2223 1.610 . S
N2222 S2221 1.613 . S
N2222 C2225 1.350 . S
N2223 S2221 1.610 . S
N2223 C2224 1.351 . S
C2224 C2218 1.428 . S
C2224 N2223 1.351 . S
C2224 C2225 1.434 . S
C2225 C2216 1.429 . S
C2225 N2222 1.350 . S
C2225 C2224 1.434 . S
C2226 C2227 1.369 . S
C2226 C2228 1.419 . S
C2226 H2230 0.930 . S
C2227 C2226 1.369 . S
C2227 C2236 1.429 . S
C2228 C2226 1.419 . S
C2228 C2229 1.363 . S
C2228 H2231 0.929 . S
C2229 C2228 1.363 . S
C2229 C2235 1.428 . S
H2230 C2226 0.930 . S
H2231 C2228 0.929 . S
S2232 N2233 1.613 . S
S2232 N2234 1.610 . S
N2233 S2232 1.613 . S
N2233 C2236 1.350 . S
N2234 S2232 1.610 . S
N2234 C2235 1.351 . S
C2235 C2229 1.428 . S
C2235 N2234 1.351 . S
C2235 C2236 1.434 . S
C2236 C2227 1.429 . S
C2236 N2233 1.350 . S
C2236 C2235 1.434 . S
C2237 C2238 1.369 . S
C2237 C2239 1.419 . S
C2237 H2241 0.930 . S
C2238 C2237 1.369 . S
C2238 C2247 1.429 1_565 S
C2239 C2237 1.419 . S
C2239 C2240 1.393 . S
C2239 H2242 0.929 . S
C2240 C2239 1.393 . S
C2240 C2246 1.401 1_565 S
H2241 C2237 0.930 . S
H2242 C2239 0.929 . S
S2243 N2244 1.613 . S
S2243 N2245 1.610 . S
N2244 S2243 1.613 . S
N2244 C2247 1.350 . S
N2245 S2243 1.610 . S
N2245 C2246 1.351 . S
C2246 C2240 1.401 1_545 S
C2246 N2245 1.351 . S
C2246 C2247 1.434 . S
C2247 C2238 1.429 1_545 S
C2247 N2244 1.350 . S
C2247 C2246 1.434 . S
C2248 C2249 1.369 . S
C2248 C2250 1.419 . S
C2248 H2252 0.930 . S
C2249 C2248 1.369 . S
C2249 C2258 1.429 . S
C2250 C2248 1.419 . S
C2250 C2251 1.363 . S
C2250 H2253 0.929 . S
C2251 C2250 1.363 . S
C2251 C2257 1.428 . S
H2252 C2248 0.930 . S
H2253 C2250 0.929 . S
S2254 N2255 1.613 . S
S2254 N2256 1.610 . S
N2255 S2254 1.613 . S
N2255 C2258 1.350 . S
N2256 S2254 1.610 . S
N2256 C2257 1.351 . S
C2257 C2251 1.428 . S
C2257 N2256 1.351 . S
C2257 C2258 1.434 . S
C2258 C2249 1.429 . S
C2258 N2255 1.350 . S
C2258 C2257 1.434 . S
C2259 C2260 1.369 . S
C2259 C2261 1.419 . S
C2259 H2263 0.930 . S
C2260 C2259 1.369 . S
C2260 C2269 1.429 . S
C2261 C2259 1.419 . S
C2261 C2262 1.363 . S
C2261 H2264 0.929 . S
C2262 C2261 1.363 . S
C2262 C2268 1.428 . S
H2263 C2259 0.930 . S
H2264 C2261 0.929 . S
S2265 N2266 1.613 . S
S2265 N2267 1.610 . S
N2266 S2265 1.613 . S
N2266 C2269 1.350 . S
N2267 S2265 1.610 . S
N2267 C2268 1.351 . S
C2268 C2262 1.428 . S
C2268 N2267 1.351 . S
C2268 C2269 1.434 . S
C2269 C2260 1.429 . S
C2269 N2266 1.350 . S
C2269 C2268 1.434 . S
C2270 C2271 1.369 . S
C2270 C2272 1.419 . S
C2270 H2274 0.930 . S
C2271 C2270 1.369 . S
C2271 C2280 1.429 . S
C2272 C2270 1.419 . S
C2272 C2273 1.363 . S
C2272 H2275 0.929 . S
C2273 C2272 1.363 . S
C2273 C2279 1.428 . S
H2274 C2270 0.930 . S
H2275 C2272 0.929 . S
S2276 N2277 1.613 . S
S2276 N2278 1.610 . S
N2277 S2276 1.613 . S
N2277 C2280 1.350 . S
N2278 S2276 1.610 . S
N2278 C2279 1.351 . S
C2279 C2273 1.428 . S
C2279 N2278 1.351 . S
C2279 C2280 1.434 . S
C2280 C2271 1.429 . S
C2280 N2277 1.350 . S
C2280 C2279 1.434 . S
C2281 C2282 1.369 . S
C2281 C2283 1.419 . S
C2281 H2285 0.930 . S
C2282 C2281 1.369 . S
C2282 C2291 1.429 . S
C2283 C2281 1.419 . S
C2283 C2284 1.363 . S
C2283 H2286 0.929 . S
C2284 C2283 1.363 . S
C2284 C2290 1.428 . S
H2285 C2281 0.930 . S
H2286 C2283 0.929 . S
S2287 N2288 1.613 . S
S2287 N2289 1.610 . S
N2288 S2287 1.613 . S
N2288 C2291 1.350 . S
N2289 S2287 1.610 . S
N2289 C2290 1.351 . S
C2290 C2284 1.428 . S
C2290 N2289 1.351 . S
C2290 C2291 1.434 . S
C2291 C2282 1.429 . S
C2291 N2288 1.350 . S
C2291 C2290 1.434 . S
C2292 C2293 1.369 . S
C2292 C2294 1.419 . S
C2292 H2296 0.930 . S
C2293 C2292 1.369 . S
C2293 C2302 1.429 . S
C2294 C2292 1.419 . S
C2294 C2295 1.363 . S
C2294 H2297 0.929 . S
C2295 C2294 1.363 . S
C2295 C2301 1.428 . S
H2296 C2292 0.930 . S
H2297 C2294 0.929 . S
S2298 N2299 1.613 . S
S2298 N2300 1.610 . S
N2299 S2298 1.613 . S
N2299 C2302 1.350 . S
N2300 S2298 1.610 . S
N2300 C2301 1.351 . S
C2301 C2295 1.428 . S
C2301 N2300 1.351 . S
C2301 C2302 1.434 . S
C2302 C2293 1.429 . S
C2302 N2299 1.350 . S
C2302 C2301 1.434 . S
C2303 C2304 1.369 . S
C2303 C2305 1.419 . S
C2303 H2307 0.930 . S
C2304 C2303 1.369 . S
C2304 C2313 1.429 . S
C2305 C2303 1.419 . S
C2305 C2306 1.363 . S
C2305 H2308 0.929 . S
C2306 C2305 1.363 . S
C2306 C2312 1.428 . S
H2307 C2303 0.930 . S
H2308 C2305 0.929 . S
S2309 N2310 1.613 . S
S2309 N2311 1.610 . S
N2310 S2309 1.613 . S
N2310 C2313 1.350 . S
N2311 S2309 1.610 . S
N2311 C2312 1.351 . S
C2312 C2306 1.428 . S
C2312 N2311 1.351 . S
C2312 C2313 1.434 . S
C2313 C2304 1.429 . S
C2313 N2310 1.350 . S
C2313 C2312 1.434 . S
C2314 C2315 1.369 . S
C2314 C2316 1.419 . S
C2314 H2318 0.930 . S
C2315 C2314 1.369 . S
C2315 C2324 1.429 . S
C2316 C2314 1.419 . S
C2316 C2317 1.363 . S
C2316 H2319 0.929 . S
C2317 C2316 1.363 . S
C2317 C2323 1.428 . S
H2318 C2314 0.930 . S
H2319 C2316 0.929 . S
S2320 N2321 1.613 . S
S2320 N2322 1.610 . S
N2321 S2320 1.613 . S
N2321 C2324 1.350 . S
N2322 S2320 1.610 . S
N2322 C2323 1.351 . S
C2323 C2317 1.428 . S
C2323 N2322 1.351 . S
C2323 C2324 1.434 . S
C2324 C2315 1.429 . S
C2324 N2321 1.350 . S
C2324 C2323 1.434 . S
C2325 C2326 1.369 . S
C2325 C2327 1.419 . S
C2325 H2329 0.930 . S
C2326 C2325 1.369 . S
C2326 C2335 1.429 . S
C2327 C2325 1.419 . S
C2327 C2328 1.363 . S
C2327 H2330 0.929 . S
C2328 C2327 1.363 . S
C2328 C2334 1.428 . S
H2329 C2325 0.930 . S
H2330 C2327 0.929 . S
S2331 N2332 1.613 . S
S2331 N2333 1.610 . S
N2332 S2331 1.613 . S
N2332 C2335 1.350 . S
N2333 S2331 1.610 . S
N2333 C2334 1.351 . S
C2334 C2328 1.428 . S
C2334 N2333 1.351 . S
C2334 C2335 1.434 . S
C2335 C2326 1.429 . S
C2335 N2332 1.350 . S
C2335 C2334 1.434 . S
C1281 C1018 1.568 . S
C1283 C18 1.571 . S
C1292 C978 1.565 . S
C1294 C58 1.564 . S
C1303 C1098 1.564 . S
C1305 C98 1.565 . S
C1314 C1058 1.565 . S
C1316 C138 1.565 . S
C1325 C169 1.564 . S
C1327 C1169 1.570 . S
C1336 C209 1.571 . S
C1338 C1129 1.565 . S
C1347 C249 1.565 . S
C1349 C1249 1.564 . S
C1358 C1209 1.571 . S
C1360 C289 1.571 . S
C1369 C698 1.568 . S
C1371 C338 1.572 . S
C1380 C658 1.563 . S
C1382 C378 1.568 . S
C1391 C778 1.563 . S
C1393 C418 1.566 . S
C1402 C738 1.572 . S
C1404 C458 1.569 . S
C1413 C489 1.573 . S
C1415 C849 1.568 . S
C1424 C809 1.572 . S
C1426 C529 1.566 . S
C1435 C569 1.569 . S
C1437 C929 1.564 . S
C1446 C889 1.572 . S
C1448 C609 1.566 . S
C1457 C15 0.648 . S
C1459 C806 0.669 . S
C1468 C526 0.649 . S
C1470 C55 0.670 . S
C1479 C1206 0.667 . S
C1481 C95 0.656 . S
C1490 C135 0.648 . S
C1492 C286 0.669 . S
C1501 C166 0.667 . S
C1503 C655 0.656 . S
C1512 C206 0.669 . S
C1514 C375 0.655 . S
C1523 C246 0.665 . S
C1525 C1055 0.657 . S
C1534 C1126 0.670 . S
C1536 C335 0.652 . S
C1545 C886 0.654 . S
C1547 C415 0.666 . S
C1556 C606 0.669 . S
C1558 C455 0.653 . S
C1567 C975 0.671 . S
C1569 C486 0.652 . S
C1578 C566 0.649 . S
C1580 C735 0.669 . S
C1589 C1166 0.669 . S
C1591 C695 0.653 . S
C1600 C775 0.670 . S
C1602 C926 0.654 . S
C1611 C1015 0.666 . S
C1613 C846 0.657 . S
C1622 C1095 0.649 . S
C1624 C1246 0.669 . S
C1633 C6 2.341 . S
C1635 C766 2.350 . S
C1644 C46 2.351 . S
C1646 C726 2.344 . S
C1655 C86 2.341 . S
C1657 C686 2.351 . S
C1666 C126 2.342 . S
C1668 C646 2.349 . S
C1677 C175 2.351 . S
C1679 C935 2.342 . S
C1688 C215 2.348 . S
C1690 C895 2.345 . S
C1699 C255 2.344 . S
C1701 C855 2.349 . S
C1710 C295 2.346 . S
C1712 C815 2.347 . S
C1721 C326 2.348 . S
C1723 C1086 2.344 . S
C1732 C366 2.350 . S
C1734 C1046 2.344 . S
C1743 C406 2.345 . S
C1745 C1006 2.348 . S
C1754 C446 2.351 . S
C1756 C966 2.342 . S
C1765 C1255 2.347 . S
C1767 C495 2.345 . S
C1776 C1215 2.342 . S
C1778 C535 2.351 . S
C1787 C1175 2.342 . S
C1789 C575 2.350 . S
C1798 C1135 2.350 . S
C1800 C615 2.342 . S
C1809 C89 1.919 . S
C1811 C9 1.923 . S
C1820 C129 1.920 . S
C1822 C49 1.925 . S
C1831 C258 1.926 . S
C1833 C178 1.923 . S
C1842 C218 1.923 . S
C1844 C298 1.925 . S
C1853 C409 1.924 . S
C1855 C329 1.920 . S
C1864 C369 1.920 . S
C1866 C449 1.920 . S
C1875 C578 1.926 . S
C1877 C498 1.923 . S
C1886 C538 1.924 . S
C1888 C618 1.925 . S
C1897 C649 1.926 . S
C1899 C729 1.922 . S
C1908 C689 1.919 . S
C1910 C769 1.924 . S
C1919 C898 1.923 . S
C1921 C818 1.925 . S
C1930 C858 1.922 . S
C1932 C938 1.920 . S
C1941 C969 1.920 . S
C1943 C1049 1.925 . S
C1952 C1089 1.919 . S
C1954 C1009 1.921 . S
C1963 C1138 1.919 . S
C1965 C1218 1.924 . S
C1974 C1178 1.922 . S
C1976 C1258 1.920 . S
C1985 C10 3.197 1_556 S
C1987 C290 3.180 1_545 S
C1996 C1210 3.182 . S
C1998 C50 3.196 1_556 S
C2007 C90 3.196 . S
C2009 C530 3.180 . S
C2018 C130 3.197 . S
C2020 C810 3.180 1_545 S
C2029 C139 3.180 1_565 S
C2031 C179 3.197 1_554 S
C2040 C219 3.196 1_554 S
C2042 C1059 3.182 . S
C2051 C379 3.180 . S
C2053 C259 3.197 . S
C2062 C659 3.180 1_565 S
C2064 C299 3.197 . S
C2073 C330 3.197 . S
C2075 C610 3.181 . S
C2084 C890 3.182 . S
C2086 C370 3.195 . S
C2095 C410 3.196 . S
C2097 C210 3.180 . S
C2106 C1130 3.180 . S
C2108 C450 3.196 . S
C2117 C499 3.196 . S
C2119 C459 3.182 . S
C2128 C539 3.196 . S
C2130 C739 3.182 . S
C2139 C579 3.197 . S
C2141 C59 3.182 . S
C2150 C979 3.181 . S
C2152 C619 3.197 . S
C2161 C650 3.197 . S
C2163 C930 3.181 1_545 S
C2172 C690 3.196 . S
C2174 C570 3.181 . S
C2183 C730 3.196 . S
C2185 C1170 3.181 . S
C2194 C770 3.196 . S
C2196 C170 3.180 1_545 S
C2205 C819 3.196 . S
C2207 C779 3.181 1_565 S
C2216 C419 3.180 . S
C2218 C859 3.196 . S
C2227 C1019 3.181 . S
C2229 C899 3.196 . S
C2238 C939 3.197 . S
C2240 C19 3.181 1_565 S
C2249 C1250 3.180 . S
C2251 C970 3.196 1_556 S
C2260 C250 3.181 . S
C2262 C1010 3.197 1_556 S
C2271 C850 3.182 . S
C2273 C1050 3.196 . S
C2282 C1090 3.196 . S
C2284 C490 3.180 . S
C2293 C1099 3.180 . S
C2295 C1139 3.196 1_554 S
C2304 C99 3.180 . S
C2306 C1179 3.197 1_554 S
C2315 C699 3.182 . S
C2317 C1219 3.196 . S
C2326 C1259 3.197 . S
C2328 C339 3.180 . S
