# Generated by pormake.
# Topology whw, (6)-cn, num edge types: 1
# Building blocks:
#     Node 0, Type 0, BuildingBlock: CUKXOW_clean_sbu_0, # of connection points: 6
#     Node 1, Type 0, BuildingBlock: CUKXOW_clean_sbu_0, # of connection points: 6
#     Node 2, Type 0, BuildingBlock: CUKXOW_clean_sbu_0, # of connection points: 6
#     Node 3, Type 0, BuildingBlock: CUKXOW_clean_sbu_0, # of connection points: 6
#     Node 4, Type 0, BuildingBlock: CUKXOW_clean_sbu_0, # of connection points: 6
#     Node 5, Type 0, BuildingBlock: CUKXOW_clean_sbu_0, # of connection points: 6
#     Node 6, Type 0, BuildingBlock: CUKXOW_clean_sbu_0, # of connection points: 6
#     Node 7, Type 0, BuildingBlock: CUKXOW_clean_sbu_0, # of connection points: 6
#     Node 8, Type 0, BuildingBlock: CUKXOW_clean_sbu_0, # of connection points: 6
#     Node 9, Type 0, BuildingBlock: CUKXOW_clean_sbu_0, # of connection points: 6
#     Node 10, Type 0, BuildingBlock: CUKXOW_clean_sbu_0, # of connection points: 6
#     Node 11, Type 0, BuildingBlock: CUKXOW_clean_sbu_0, # of connection points: 6
#     Node 12, Type 0, BuildingBlock: CUKXOW_clean_sbu_0, # of connection points: 6
#     Node 13, Type 0, BuildingBlock: CUKXOW_clean_sbu_0, # of connection points: 6
#     Node 14, Type 0, BuildingBlock: CUKXOW_clean_sbu_0, # of connection points: 6
#     Node 15, Type 0, BuildingBlock: CUKXOW_clean_sbu_0, # of connection points: 6
#     Edge 16, Type (0, 0), BuildingBlock: OJICUG_clean_linker_0, # of connection points: 2
#     Edge 17, Type (0, 0), BuildingBlock: OJICUG_clean_linker_0, # of connection points: 2
#     Edge 18, Type (0, 0), BuildingBlock: OJICUG_clean_linker_0, # of connection points: 2
#     Edge 19, Type (0, 0), BuildingBlock: OJICUG_clean_linker_0, # of connection points: 2
#     Edge 20, Type (0, 0), BuildingBlock: OJICUG_clean_linker_0, # of connection points: 2
#     Edge 21, Type (0, 0), BuildingBlock: OJICUG_clean_linker_0, # of connection points: 2
#     Edge 22, Type (0, 0), BuildingBlock: OJICUG_clean_linker_0, # of connection points: 2
#     Edge 23, Type (0, 0), BuildingBlock: OJICUG_clean_linker_0, # of connection points: 2
#     Edge 24, Type (0, 0), BuildingBlock: OJICUG_clean_linker_0, # of connection points: 2
#     Edge 25, Type (0, 0), BuildingBlock: OJICUG_clean_linker_0, # of connection points: 2
#     Edge 26, Type (0, 0), BuildingBlock: OJICUG_clean_linker_0, # of connection points: 2
#     Edge 27, Type (0, 0), BuildingBlock: OJICUG_clean_linker_0, # of connection points: 2
#     Edge 28, Type (0, 0), BuildingBlock: OJICUG_clean_linker_0, # of connection points: 2
#     Edge 29, Type (0, 0), BuildingBlock: OJICUG_clean_linker_0, # of connection points: 2
#     Edge 30, Type (0, 0), BuildingBlock: OJICUG_clean_linker_0, # of connection points: 2
#     Edge 31, Type (0, 0), BuildingBlock: OJICUG_clean_linker_0, # of connection points: 2
#     Edge 32, Type (0, 0), BuildingBlock: OJICUG_clean_linker_0, # of connection points: 2
#     Edge 33, Type (0, 0), BuildingBlock: OJICUG_clean_linker_0, # of connection points: 2
#     Edge 34, Type (0, 0), BuildingBlock: OJICUG_clean_linker_0, # of connection points: 2
#     Edge 35, Type (0, 0), BuildingBlock: OJICUG_clean_linker_0, # of connection points: 2
#     Edge 36, Type (0, 0), BuildingBlock: OJICUG_clean_linker_0, # of connection points: 2
#     Edge 37, Type (0, 0), BuildingBlock: OJICUG_clean_linker_0, # of connection points: 2
#     Edge 38, Type (0, 0), BuildingBlock: OJICUG_clean_linker_0, # of connection points: 2
#     Edge 39, Type (0, 0), BuildingBlock: OJICUG_clean_linker_0, # of connection points: 2
#     Edge 40, Type (0, 0), BuildingBlock: OJICUG_clean_linker_0, # of connection points: 2
#     Edge 41, Type (0, 0), BuildingBlock: OJICUG_clean_linker_0, # of connection points: 2
#     Edge 42, Type (0, 0), BuildingBlock: OJICUG_clean_linker_0, # of connection points: 2
#     Edge 43, Type (0, 0), BuildingBlock: OJICUG_clean_linker_0, # of connection points: 2
#     Edge 44, Type (0, 0), BuildingBlock: OJICUG_clean_linker_0, # of connection points: 2
#     Edge 45, Type (0, 0), BuildingBlock: OJICUG_clean_linker_0, # of connection points: 2
#     Edge 46, Type (0, 0), BuildingBlock: OJICUG_clean_linker_0, # of connection points: 2
#     Edge 47, Type (0, 0), BuildingBlock: OJICUG_clean_linker_0, # of connection points: 2
#     Edge 48, Type (0, 0), BuildingBlock: OJICUG_clean_linker_0, # of connection points: 2
#     Edge 49, Type (0, 0), BuildingBlock: OJICUG_clean_linker_0, # of connection points: 2
#     Edge 50, Type (0, 0), BuildingBlock: OJICUG_clean_linker_0, # of connection points: 2
#     Edge 51, Type (0, 0), BuildingBlock: OJICUG_clean_linker_0, # of connection points: 2
#     Edge 52, Type (0, 0), BuildingBlock: OJICUG_clean_linker_0, # of connection points: 2
#     Edge 53, Type (0, 0), BuildingBlock: OJICUG_clean_linker_0, # of connection points: 2
#     Edge 54, Type (0, 0), BuildingBlock: OJICUG_clean_linker_0, # of connection points: 2
#     Edge 55, Type (0, 0), BuildingBlock: OJICUG_clean_linker_0, # of connection points: 2
#     Edge 56, Type (0, 0), BuildingBlock: OJICUG_clean_linker_0, # of connection points: 2
#     Edge 57, Type (0, 0), BuildingBlock: OJICUG_clean_linker_0, # of connection points: 2
#     Edge 58, Type (0, 0), BuildingBlock: OJICUG_clean_linker_0, # of connection points: 2
#     Edge 59, Type (0, 0), BuildingBlock: OJICUG_clean_linker_0, # of connection points: 2
#     Edge 60, Type (0, 0), BuildingBlock: OJICUG_clean_linker_0, # of connection points: 2
#     Edge 61, Type (0, 0), BuildingBlock: OJICUG_clean_linker_0, # of connection points: 2
#     Edge 62, Type (0, 0), BuildingBlock: OJICUG_clean_linker_0, # of connection points: 2
#     Edge 63, Type (0, 0), BuildingBlock: OJICUG_clean_linker_0, # of connection points: 2
# Relax obj value: 0.284
# Max RMSD: 0.181
# Mean RMSD: 0.175
data_MOF--net-whw--node1-CUKXOW_clean_sbu_0--edge1-OJICUG_clean_linker_0
_symmetry_space_group_name_H-M    P1
_symmetry_Int_Tables_number       1
_symmetry_cell_setting            triclinic
loop_
_symmetry_equiv_pos_as_xyz
'x, y, z'
_cell_length_a     35.069264
_cell_length_b     34.909985
_cell_length_c     19.513217
_cell_angle_alpha  94.615479
_cell_angle_beta   89.887397
_cell_angle_gamma 90.08711
loop_
_atom_site_label
_atom_site_type_symbol
_atom_site_fract_x
_atom_site_fract_y
_atom_site_fract_z
_atom_type_partial_charge
Tb0 Tb -0.00159 0.08878 0.26138 0.0
C1 C 0.06405 0.05228 0.16942 0.0
Tb2 Tb 0.04485 0.14233 0.18887 0.0
O3 O 0.95391 0.08251 0.17817 0.0
O4 O 0.00801 0.09831 0.15743 0.0
O5 O 0.03861 0.04575 0.21813 0.0
C6 C 0.07541 0.18457 0.09753 0.0
O7 O 0.07285 0.08776 0.1539 0.0
C8 C 0.0513 0.16112 0.32171 0.0
C9 C 0.96584 0.16568 0.24544 0.0
O10 O 0.09333 0.15758 0.12641 0.0
O11 O 0.04106 0.18772 0.12124 0.0
O12 O 0.05531 0.18345 0.27304 0.0
O13 O 0.04751 0.12625 0.29463 0.0
O14 O -0.0127 0.16471 0.18968 0.0
O15 O 0.97372 0.14304 0.29328 0.0
C16 C 0.95608 0.05831 0.35709 0.0
O17 O 0.94394 0.07095 0.30082 0.0
O18 O -0.00675 0.05878 0.35545 0.0
C19 C 0.97565 0.09488 0.13097 0.0
Tb20 Tb 0.13992 0.68756 0.44598 0.0
C21 C 0.20207 0.73552 0.37301 0.0
Tb22 Tb 0.11355 0.75128 0.37064 0.0
O23 O 0.11632 0.64654 0.36233 0.0
O24 O 0.13836 0.69842 0.34015 0.0
O25 O 0.19614 0.70836 0.41601 0.0
C26 C 0.08996 0.78741 0.2669 0.0
O27 O 0.17388 0.75532 0.34846 0.0
C28 C 0.10598 0.779 0.49813 0.0
C29 C 0.05575 0.69529 0.43018 0.0
O30 O 0.12015 0.79652 0.30264 0.0
O31 O 0.07235 0.75884 0.29135 0.0
O32 O 0.09996 0.79784 0.44504 0.0
O33 O 0.11856 0.74505 0.47926 0.0
O34 O 0.06458 0.71374 0.37568 0.0
O35 O 0.08169 0.6892 0.47595 0.0
C36 C 0.1584 0.64436 0.54881 0.0
O37 O 0.14224 0.63221 0.49134 0.0
O38 O 0.16733 0.68023 0.54487 0.0
C39 C 0.12141 0.66918 0.31339 0.0
Tb40 Tb 0.54489 0.86494 0.69874 0.0
C41 C 0.49543 0.92294 0.61969 0.0
Tb42 Tb 0.4783 0.83349 0.61443 0.0
O43 O 0.58474 0.83803 0.62047 0.0
O44 O 0.53175 0.85706 0.59215 0.0
O45 O 0.52405 0.91873 0.66311 0.0
C46 C 0.45195 0.79482 0.50204 0.0
O47 O 0.47386 0.8939 0.59428 0.0
C48 C 0.45551 0.83351 0.74519 0.0
C49 C 0.52622 0.78021 0.69671 0.0
O50 O 0.43606 0.82553 0.53179 0.0
O51 O 0.48136 0.78568 0.53692 0.0
O52 O 0.43439 0.8249 0.69134 0.0
O53 O 0.48777 0.84527 0.72296 0.0
O54 O 0.51401 0.78488 0.63426 0.0
O55 O 0.53954 0.80956 0.73529 0.0
C56 C 0.58845 0.89296 0.80353 0.0
O57 O 0.60002 0.87126 0.75041 0.0
O58 O 0.55279 0.90113 0.79433 0.0
C59 C 0.5611 0.83938 0.56947 0.0
Tb60 Tb 0.41408 0.33018 0.87726 0.0
C61 C 0.47359 0.30257 0.97629 0.0
Tb62 Tb 0.39231 0.27721 1.00588 0.0
O63 O 0.41956 0.38318 0.94183 0.0
O64 O 0.39063 0.33639 0.97827 0.0
O65 O 0.47011 0.31706 0.91606 0.0
C66 C 0.40397 0.23318 0.11592 0.0
O67 O 0.44589 0.30831 1.0215 0.0
C68 C 0.39608 0.24231 0.88056 0.0
C69 C 0.32896 0.3002 0.90231 0.0
O70 O 0.42192 0.23112 0.05741 0.0
O71 O 0.3785 0.26078 0.11265 0.0
O72 O 0.38046 0.22698 0.93207 0.0
O73 O 0.41257 0.27254 0.90384 0.0
O74 O 0.33517 0.28879 0.96579 0.0
O75 O 0.35548 0.31284 0.86048 0.0
C76 C 0.43347 0.35249 0.75211 0.0
O77 O 0.40646 0.36751 0.79155 0.0
O78 O 0.44886 0.32466 0.78286 0.0
C79 C 0.40334 0.37001 0.99519 0.0
Tb80 Tb -0.00472 0.9137 0.83005 0.0
C81 C 0.05977 0.94872 0.9252 0.0
Tb82 Tb 0.04407 0.85825 0.90056 0.0
O83 O 0.95549 0.92834 0.92057 0.0
O84 O 0.00127 0.89513 0.92677 0.0
O85 O 0.03508 0.95595 0.87608 0.0
C86 C 0.07583 0.81629 0.98973 0.0
O87 O 0.06885 0.91332 0.93989 0.0
C88 C 0.04929 0.84219 0.76771 0.0
C89 C 0.96383 0.83572 0.84603 0.0
O90 O 0.09237 0.84518 0.96386 0.0
O91 O 0.04221 0.81097 0.96379 0.0
O92 O 0.05408 0.81897 0.81481 0.0
O93 O 0.04537 0.87687 0.7964 0.0
O94 O 0.98616 0.83626 0.90083 0.0
O95 O 0.97009 0.8594 0.79884 0.0
C96 C 0.95278 0.94292 0.73482 0.0
O97 O 0.94052 0.92907 0.79014 0.0
O98 O -0.01005 0.94393 0.73687 0.0
C99 C 0.97399 0.90803 0.96242 0.0
Tb100 Tb 0.41261 0.65665 0.23131 0.0
C101 C 0.46248 0.6424 0.09793 0.0
Tb102 Tb 0.40285 0.71095 0.10498 0.0
O103 O 0.39131 0.60502 0.17382 0.0
O104 O 0.3799 0.65856 0.13969 0.0
O105 O 0.46017 0.63911 0.16557 0.0
C106 C 0.4168 0.75275 0.99351 0.0
O107 O 0.43909 0.6642 0.06426 0.0
C108 C 0.43327 0.74097 0.21974 0.0
C109 C 0.34327 0.71547 0.22702 0.0
O110 O 0.44035 0.74593 1.04244 0.0
O111 O 0.38476 0.73502 1.00674 0.0
O112 O 0.41403 0.76025 0.17775 0.0
O113 O 0.43683 0.70687 0.19419 0.0
O114 O 0.34815 0.72077 0.15998 0.0
O115 O 0.36744 0.69607 0.26354 0.0
C116 C 0.43162 0.63331 0.35772 0.0
O117 O 0.40131 0.62322 0.32206 0.0
O118 O 0.45112 0.65623 0.32153 0.0
C119 C 0.37861 0.62259 0.12189 0.0
Tb120 Tb 0.53372 0.12322 0.40261 0.0
C121 C 0.48865 0.0612 0.4797 0.0
Tb122 Tb 0.46198 0.14869 0.49421 0.0
O123 O 0.57652 0.1298 0.48731 0.0
O124 O 0.52027 0.13796 0.50645 0.0
O125 O 0.51427 0.06755 0.43146 0.0
C126 C 0.42547 0.17669 0.60739 0.0
O127 O 0.46622 0.08799 0.51033 0.0
C128 C 0.44139 0.14743 0.36105 0.0
C129 C 0.50624 0.20656 0.41652 0.0
O130 O 0.42862 0.14047 0.58723 0.0
O131 O 0.44214 0.19687 0.56321 0.0
O132 O 0.41889 0.15358 0.41407 0.0
O133 O 0.47359 0.13737 0.38615 0.0
O134 O 0.49588 0.19921 0.47928 0.0
O135 O 0.52387 0.18039 0.37599 0.0
C136 C 0.58347 0.10612 0.30153 0.0
O137 O 0.58749 0.13287 0.35105 0.0
O138 O 0.551 0.08858 0.30871 0.0
C139 C 0.55217 0.13816 0.53636 0.0
Tb140 Tb 0.13791 0.31939 0.64322 0.0
C141 C 0.20254 0.27746 0.72064 0.0
Tb142 Tb 0.11584 0.25346 0.71719 0.0
O143 O 0.11156 0.35878 0.72642 0.0
O144 O 0.13648 0.30812 0.74856 0.0
O145 O 0.19468 0.3048 0.67911 0.0
C146 C 0.094 0.21626 0.82142 0.0
O147 O 0.17636 0.25309 0.73906 0.0
C148 C 0.10948 0.22598 0.5894 0.0
C149 C 0.05466 0.30644 0.65865 0.0
O150 O 0.12515 0.20938 0.78693 0.0
O151 O 0.07456 0.24305 0.79541 0.0
O152 O 0.10523 0.20641 0.64221 0.0
O153 O 0.11998 0.26067 0.60871 0.0
O154 O 0.06473 0.28783 0.71226 0.0
O155 O 0.07995 0.31514 0.61326 0.0
C156 C 0.15669 0.363 0.54133 0.0
O157 O 0.16674 0.32751 0.54589 0.0
O158 O 0.13883 0.37458 0.59753 0.0
C159 C 0.11777 0.33622 0.77511 0.0
Tb160 Tb 0.91562 0.16325 0.73275 0.0
C161 C 0.97627 0.18968 0.63407 0.0
Tb162 Tb 0.89576 0.21454 0.59947 0.0
O163 O 0.91761 0.10824 0.6725 0.0
O164 O 0.8947 0.15608 0.63072 0.0
O165 O 0.97203 0.17669 0.69547 0.0
C166 C 0.90843 0.25559 0.48508 0.0
O167 O 0.94909 0.1827 0.58831 0.0
C168 C 0.89947 0.25108 0.72406 0.0
C169 C 0.83138 0.19363 0.70268 0.0
O170 O 0.92529 0.25967 0.54454 0.0
O171 O 0.88335 0.22769 0.49004 0.0
O172 O 0.8843 0.26593 0.6717 0.0
O173 O 0.91515 0.22026 0.70211 0.0
O174 O 0.83828 0.20303 0.63809 0.0
O175 O 0.85752 0.18312 0.74717 0.0
C176 C 0.93329 0.14123 0.85945 0.0
O177 O 0.90112 0.13478 0.82719 0.0
O178 O 0.95503 0.16069 0.82073 0.0
C179 C 0.90427 0.12125 0.61672 0.0
Tb180 Tb 0.62034 0.78644 0.15037 0.0
C181 C 0.69913 0.76842 0.22257 0.0
Tb182 Tb 0.62983 0.71491 0.22338 0.0
O183 O 0.57982 0.81065 0.22878 0.0
O184 O 0.62329 0.77458 0.25587 0.0
O185 O 0.67742 0.79501 0.19666 0.0
C186 C 0.63411 0.67447 0.33118 0.0
O187 O 0.68818 0.73242 0.22291 0.0
C188 C 0.63418 0.69252 0.09039 0.0
C189 C 0.55656 0.7266 0.1503 0.0
O190 O 0.65521 0.70378 0.32088 0.0
O191 O 0.61061 0.66768 0.28048 0.0
O192 O 0.6392 0.67016 0.13978 0.0
O193 O 0.63044 0.72675 0.11867 0.0
O194 O 0.56931 0.72338 0.21294 0.0
O195 O 0.57361 0.75065 0.11134 0.0
C196 C 0.62535 0.83944 0.05913 0.0
O197 O 0.59901 0.83772 0.10557 0.0
O198 O 0.64924 0.81148 0.06475 0.0
C199 C 0.59414 0.79287 0.27888 0.0
Tb200 Tb 0.6341 0.17072 0.949 0.0
C201 C 0.69847 0.21236 0.87067 0.0
Tb202 Tb 0.61197 0.23684 0.87724 0.0
O203 O 0.60516 0.13234 0.86757 0.0
O204 O 0.63151 0.1821 0.84364 0.0
O205 O 0.69069 0.18519 0.91251 0.0
C206 C 0.58845 0.27363 0.77371 0.0
O207 O 0.67222 0.23648 0.852 0.0
C208 C 0.60828 0.26443 1.00543 0.0
C209 C 0.55113 0.18531 0.94158 0.0
O210 O 0.61954 0.28139 0.80777 0.0
O211 O 0.56988 0.2463 0.8001 0.0
O212 O 0.60326 0.28406 0.95291 0.0
O213 O 0.61783 0.22957 0.98546 0.0
O214 O 0.56036 0.20351 0.88692 0.0
O215 O 0.57725 0.17635 0.98491 0.0
C216 C 0.65385 0.12557 1.04771 0.0
O217 O 0.63479 0.11496 0.99247 0.0
O218 O 0.66468 0.16088 1.04338 0.0
C219 C 0.6115 0.15458 0.81845 0.0
Tb220 Tb 0.91286 0.83679 0.35852 0.0
C221 C 0.97431 0.80847 0.45398 0.0
Tb222 Tb 0.89384 0.78598 0.492 0.0
O223 O 0.91948 0.89083 0.41957 0.0
O224 O 0.89212 0.84468 0.46117 0.0
O225 O 0.9692 0.82074 0.39224 0.0
C226 C 0.90694 0.74506 0.60656 0.0
O227 O 0.94803 0.81625 0.50117 0.0
C228 C 0.89593 0.74935 0.36734 0.0
C229 C 0.82828 0.80811 0.3916 0.0
O230 O 0.92344 0.74085 0.54667 0.0
O231 O 0.88193 0.77295 0.6019 0.0
O232 O 0.88109 0.73463 0.42028 0.0
O233 O 0.91234 0.77985 0.38879 0.0
O234 O 0.83612 0.79795 0.45537 0.0
O235 O 0.85385 0.81906 0.34628 0.0
C236 C 0.93001 0.85881 0.23154 0.0
O237 O 0.8988 0.86705 0.26599 0.0
O238 O 0.95097 0.8376 0.26824 0.0
C239 C 0.90503 0.87846 0.4751 0.0
Tb240 Tb 0.4909 0.58251 0.76875 0.0
C241 C 0.54964 0.53235 0.68689 0.0
Tb242 Tb 0.54505 0.62242 0.70092 0.0
O243 O 0.46409 0.56183 0.66782 0.0
O244 O 0.48751 0.61535 0.68034 0.0
O245 O 0.51886 0.53057 0.72553 0.0
C246 C 0.58239 0.63641 0.58907 0.0
O247 O 0.56779 0.56489 0.68219 0.0
C248 C 0.56383 0.63523 0.82745 0.0
C249 C 0.48143 0.66619 0.78328 0.0
O250 O 0.55978 0.60775 0.59523 0.0
O251 O 0.58355 0.65856 0.64589 0.0
O252 O 0.57099 0.65763 0.77909 0.0
O253 O 0.54936 0.60227 0.8027 0.0
O254 O 0.49927 0.66345 0.7229 0.0
O255 O 0.48211 0.63766 0.8216 0.0
C256 C 0.43535 0.56834 0.85845 0.0
O257 O 0.43223 0.58803 0.80548 0.0
O258 O 0.46962 0.5538 0.85801 0.0
C259 C 0.47253 0.59207 0.63635 0.0
Tb260 Tb 0.03905 0.36666 0.18816 0.0
C261 C -0.00549 0.43203 0.11746 0.0
Tb262 Tb 0.97053 0.34456 0.1058 0.0
O263 O 0.07621 0.33875 0.10805 0.0
O264 O 0.02617 0.36459 0.08007 0.0
O265 O 0.02329 0.42379 0.15812 0.0
C266 C 0.93276 0.31527 0.99524 0.0
O267 O 0.96975 0.40578 0.0929 0.0
C268 C 0.94834 0.34015 0.23757 0.0
C269 C 0.01279 0.28366 0.17518 0.0
O270 O 0.92711 0.34929 1.02552 0.0
O271 O 0.95905 0.29809 1.0275 0.0
O272 O 0.92665 0.33573 0.18359 0.0
O273 O 0.98124 0.35037 0.21555 0.0
O274 O 0.00345 0.29282 0.11351 0.0
O275 O 0.02758 0.31025 0.21856 0.0
C276 C 0.09052 0.38796 0.28543 0.0
O277 O 0.09612 0.36387 0.2324 0.0
O278 O 0.05593 0.40111 0.28265 0.0
C279 C 0.05459 0.34527 0.05641 0.0
Tb280 Tb 0.4981 0.39635 0.34577 0.0
C281 C 0.55948 0.42789 0.44463 0.0
Tb282 Tb 0.53871 0.34063 0.40649 0.0
O283 O 0.47769 0.42365 0.44786 0.0
O284 O 0.48729 0.36594 0.43402 0.0
O285 O 0.54076 0.43618 0.3889 0.0
C286 C 0.57413 0.2994 0.4941 0.0
O287 O 0.56207 0.39214 0.46089 0.0
C288 C 0.55215 0.32771 0.27581 0.0
C289 C 0.46158 0.31948 0.33899 0.0
O290 O 0.58634 0.33154 0.47372 0.0
O291 O 0.54282 0.28983 0.46236 0.0
O292 O 0.55106 0.30267 0.32052 0.0
O293 O 0.54856 0.36215 0.30622 0.0
O294 O 0.48078 0.31844 0.39731 0.0
O295 O 0.47084 0.3456 0.29805 0.0
C296 C 0.45181 0.42836 0.25829 0.0
O297 O 0.44168 0.41218 0.31267 0.0
O298 O 0.4889 0.43009 0.25758 0.0
C299 C 0.47978 0.39223 0.47893 0.0
Tb300 Tb 0.03899 0.63585 0.90264 0.0
C301 C -0.00499 0.56998 0.9736 0.0
Tb302 Tb 0.97043 0.6572 0.98614 0.0
O303 O 0.07612 0.66448 0.98182 0.0
O304 O 0.02655 0.63807 1.0113 0.0
O305 O 0.02379 0.5785 0.93287 0.0
C306 C 0.93189 0.68531 0.09707 0.0
O307 O 0.9701 0.59597 0.99839 0.0
C308 C 0.94795 0.66118 0.85435 0.0
C309 C 0.01171 0.71854 0.91588 0.0
O310 O 0.92737 0.65108 0.06694 0.0
O311 O 0.95755 0.70337 0.0645 0.0
O312 O 0.92634 0.66547 0.90859 0.0
O313 O 0.98092 0.65135 0.87629 0.0
O314 O 0.00258 0.7094 0.97774 0.0
O315 O 0.02666 0.69207 0.87245 0.0
C316 C 0.09047 0.61623 0.80388 0.0
O317 O 0.09599 0.63962 0.85788 0.0
O318 O 0.05601 0.60261 0.80668 0.0
C319 C 0.05495 0.65785 1.03415 0.0
C320 C 0.05855 0.22103 1.00071 0.0
C321 C 0.08482 0.19735 1.03094 0.0
H322 H 0.03947 0.24343 0.90865 0.0
C323 C 0.11411 0.17936 0.99161 0.0
H324 H 0.03547 0.23482 1.03019 0.0
C325 C 0.11616 0.18399 0.92167 0.0
C326 C 0.08894 0.20659 0.8913 0.0
H327 H 0.13422 0.16047 1.01408 0.0
H328 H 0.13899 0.17011 0.89155 0.0
C329 C 0.06025 0.22518 0.93104 0.0
C330 C 0.05857 0.77627 0.15575 0.0
C331 C 0.0855 0.79665 0.19688 0.0
H332 H 0.03653 0.76454 0.05519 0.0
C333 C 0.11234 0.82035 0.16782 0.0
H334 H 0.03813 0.75719 0.17726 0.0
C335 C 0.11182 0.82407 0.09766 0.0
C336 C 0.08435 0.80419 0.05682 0.0
H337 H 0.13385 0.83564 0.19908 0.0
H338 H 0.13159 0.84375 0.07608 0.0
C339 C 0.05836 0.77962 0.08585 0.0
C340 C 0.46716 0.73982 0.33096 0.0
C341 C 0.43722 0.75348 0.29265 0.0
H342 H 0.49464 0.74169 0.42867 0.0
C343 C 0.41084 0.77956 0.32428 0.0
H344 H 0.48827 0.72047 0.30686 0.0
C345 C 0.41445 0.79191 0.39369 0.0
C346 C 0.44456 0.77838 0.43199 0.0
H347 H 0.38743 0.79042 0.29534 0.0
H348 H 0.39429 0.81259 0.4169 0.0
C349 C 0.47067 0.75196 0.40039 0.0
C350 C 0.40033 0.24832 0.75457 0.0
C351 C 0.39821 0.22494 0.80944 0.0
H352 H 0.41058 0.25129 0.647 0.0
C353 C 0.40024 0.18488 0.79612 0.0
H354 H 0.3966 0.27894 0.76307 0.0
C355 C 0.40705 0.1687 0.72922 0.0
C356 C 0.41187 0.19249 0.67514 0.0
H357 H 0.39837 0.16623 0.83778 0.0
H358 H 0.41038 0.13785 0.72048 0.0
C359 C 0.40751 0.23234 0.68803 0.0
C360 C 0.91632 0.89496 0.12633 0.0
C361 C 0.94073 0.87177 0.16265 0.0
H362 H 0.90751 0.92472 1.03494 0.0
C363 C 0.97622 0.86144 0.1329 0.0
H364 H 0.88887 0.90365 0.1478 0.0
C365 C -0.01305 0.8738 0.06881 0.0
C366 C 0.96245 0.8965 1.03192 0.0
H367 H -0.00408 0.84387 0.15937 0.0
H368 H 0.01467 0.8657 1.04823 0.0
C369 C 0.92704 0.90715 0.06173 0.0
C370 C 0.91825 0.10791 0.96741 0.0
C371 C 0.9439 0.1286 0.92859 0.0
H372 H 0.90797 0.08108 0.06154 0.0
C373 C 0.98031 0.13683 0.95625 0.0
H374 H 0.89015 0.10062 0.94744 0.0
C375 C -0.00929 0.12488 1.02074 0.0
C376 C 0.96474 0.10535 0.06063 0.0
H377 H 0.00098 0.15239 0.92783 0.0
H378 H 0.0192 0.13106 1.03947 0.0
C379 C 0.92846 0.09665 1.0328 0.0
C380 C 0.56064 0.1302 0.73126 0.0
C381 C 0.59387 0.15197 0.74761 0.0
H382 H 0.5202 0.10994 0.65276 0.0
C383 C 0.61032 0.172 0.69511 0.0
H384 H 0.54684 0.11475 0.77039 0.0
C385 C 0.59547 0.16872 0.62782 0.0
C386 C 0.56271 0.14655 0.61089 0.0
H387 H 0.63559 0.18938 0.70552 0.0
H388 H 0.61013 0.18322 0.58835 0.0
C389 C 0.545 0.12788 0.66399 0.0
C390 C 0.54357 0.83469 0.4428 0.0
C391 C 0.56874 0.82576 0.49541 0.0
H392 H 0.53165 0.83136 0.3343 0.0
C393 C 0.6016 0.80421 0.47613 0.0
H394 H 0.5179 0.85101 0.45535 0.0
C395 C 0.60938 0.79261 0.40644 0.0
C396 C 0.58472 0.8025 0.3537 0.0
H397 H 0.62157 0.79653 0.515 0.0
H398 H 0.63521 0.7766 0.39376 0.0
C399 C 0.5515 0.82338 0.37316 0.0
C400 C 0.60608 0.62732 0.40276 0.0
C401 C 0.6289 0.65978 0.39773 0.0
H402 H 0.57349 0.59443 0.46894 0.0
C403 C 0.6404 0.68217 0.45709 0.0
H404 H 0.59691 0.60992 0.35724 0.0
C405 C 0.62635 0.67391 0.52091 0.0
C406 C 0.60139 0.64293 0.52516 0.0
H407 H 0.65782 0.70763 0.45372 0.0
H408 H 0.63361 0.69256 0.56609 0.0
C409 C 0.59254 0.61876 0.4664 0.0
C410 C 0.61054 0.30523 0.67281 0.0
C411 C 0.58361 0.28222 0.70319 0.0
H412 H 0.6298 0.32721 0.57985 0.0
C413 C 0.55619 0.26185 0.66297 0.0
H414 H 0.63239 0.32054 0.70323 0.0
C415 C 0.55564 0.2645 0.59269 0.0
C416 C 0.58194 0.2882 0.56233 0.0
H417 H 0.53564 0.2433 0.68549 0.0
H418 H 0.53345 0.2495 0.56282 0.0
C419 C 0.60973 0.30819 0.60241 0.0
C420 C 0.90611 0.32376 0.87838 0.0
C421 C 0.91671 0.29967 0.92943 0.0
H422 H 0.89245 0.32698 0.77148 0.0
C423 C 0.91677 0.2598 0.91423 0.0
H424 H 0.90613 0.35469 0.88908 0.0
C425 C 0.90852 0.24429 0.8481 0.0
C426 C 0.901 0.26811 0.7955 0.0
H427 H 0.92445 0.24061 0.95296 0.0
H428 H 0.90895 0.21364 0.83757 0.0
C429 C 0.89839 0.30799 0.81137 0.0
C430 C 0.90363 0.75581 0.24283 0.0
C431 C 0.89763 0.73198 0.29611 0.0
H432 H 0.91936 0.75964 0.13773 0.0
C433 C 0.89731 0.69194 0.28116 0.0
H434 H 0.90216 0.78652 0.25261 0.0
C435 C 0.90587 0.67619 0.21442 0.0
C436 C 0.91511 0.70046 0.16273 0.0
H437 H 0.89264 0.67294 0.32161 0.0
H438 H 0.90768 0.64527 0.20446 0.0
C439 C 0.91283 0.74034 0.17699 0.0
C440 C 0.4789 0.34917 0.575 0.0
C441 C 0.46859 0.38461 0.55064 0.0
H442 H 0.47636 0.31167 0.65653 0.0
C443 C 0.44665 0.41019 0.59394 0.0
H444 H 0.49565 0.32868 0.54333 0.0
C445 C 0.43469 0.3999 0.65933 0.0
C446 C 0.44514 0.36423 0.68308 0.0
H447 H 0.4381 0.43764 0.5768 0.0
H448 H 0.41748 0.41989 0.69141 0.0
C449 C 0.46773 0.3393 0.64017 0.0
C450 C 0.43534 0.57954 0.52342 0.0
C451 C 0.46173 0.60156 0.56446 0.0
H452 H 0.40449 0.57249 0.42742 0.0
C453 C 0.47791 0.63389 0.53625 0.0
H454 H 0.42212 0.55458 0.54302 0.0
C455 C 0.46867 0.64351 0.46938 0.0
C456 C 0.44189 0.62194 0.42865 0.0
H457 H 0.49804 0.65193 0.56596 0.0
H458 H 0.48215 0.66839 0.44994 0.0
C459 C 0.4252 0.58988 0.45697 0.0
C460 C 0.07309 0.64036 0.22483 0.0
C461 C 0.10345 0.66592 0.24255 0.0
H462 H 0.03327 0.61822 0.14676 0.0
C463 C 0.11616 0.68953 0.19183 0.0
H464 H 0.06212 0.62201 0.26249 0.0
C465 C 0.09999 0.687 0.12542 0.0
C466 C 0.06981 0.66142 0.10727 0.0
H467 H 0.13911 0.70984 0.20324 0.0
H468 H 0.11127 0.7053 0.08792 0.0
C469 C 0.05629 0.6384 0.15846 0.0
C470 C 0.07015 0.3638 0.86579 0.0
C471 C 0.10064 0.33882 0.84651 0.0
H472 H 0.03104 0.38499 0.94582 0.0
C473 C 0.11438 0.31518 0.89622 0.0
H474 H 0.05846 0.38216 0.82892 0.0
C475 C 0.09899 0.3171 0.96324 0.0
C476 C 0.06871 0.34217 0.98293 0.0
H477 H 0.13752 0.29532 0.88353 0.0
H478 H 0.11095 0.29879 0.99996 0.0
C479 C 0.0542 0.36521 0.93281 0.0
C480 C -0.00615 0.24953 0.27632 0.0
C481 C -0.0118 0.25649 0.207 0.0
H482 H 0.97672 0.21617 0.35782 0.0
C483 C 0.95459 0.24278 0.17374 0.0
H484 H 0.01711 0.26273 0.30606 0.0
C485 C 0.93127 0.21721 0.20572 0.0
C486 C 0.94589 0.2013 0.26369 0.0
H487 H 0.94697 0.2505 0.12299 0.0
H488 H 0.90855 0.20281 0.1762 0.0
C489 C 0.96951 0.22449 0.30708 0.0
C490 C 0.00051 0.75505 0.51514 0.0
C491 C -0.0111 0.7694 0.45335 0.0
H492 H 0.0252 0.70736 0.56032 0.0
C493 C 0.98407 0.74363 0.39441 0.0
H494 H 0.0017 0.77342 0.56259 0.0
C495 C -0.00797 0.70489 0.39769 0.0
C496 C 0.01593 0.69576 0.45103 0.0
H497 H 0.97458 0.75312 0.34585 0.0
H498 H -0.0089 0.68646 0.35024 0.0
C499 C 0.01145 0.7167 0.51486 0.0
C500 C 0.44728 0.71959 0.75695 0.0
C501 C 0.4667 0.70289 0.80925 0.0
H502 H 0.45618 0.74985 0.66749 0.0
C503 C 0.49653 0.72353 0.84173 0.0
H504 H 0.4205 0.70752 0.7378 0.0
C505 C 0.51844 0.74645 0.80184 0.0
C506 C 0.50572 0.7533 0.73558 0.0
H507 H 0.5082 0.71491 0.88946 0.0
H508 H 0.54502 0.7584 0.82215 0.0
C509 C 0.46861 0.74185 0.71504 0.0
C510 C 0.48819 0.19999 0.91314 0.0
C511 C 0.51187 0.18849 0.96488 0.0
H512 H 0.47485 0.25029 0.86378 0.0
C513 C 0.50958 0.20876 1.02976 0.0
H514 H 0.48595 0.18238 0.86491 0.0
C515 C 0.49969 0.2475 1.03289 0.0
C516 C 0.48836 0.26354 0.9725 0.0
H517 H 0.52349 0.19797 0.07385 0.0
H518 H 0.50149 0.26486 0.0814 0.0
C519 C 0.48314 0.23929 0.91186 0.0
C520 C 0.92953 0.78385 0.88544 0.0
C521 C 0.94404 0.8 0.82749 0.0
H522 H 0.94539 0.75063 0.96804 0.0
C523 C 0.96796 0.77713 0.78404 0.0
H524 H 0.90653 0.79788 0.91481 0.0
C525 C -0.00744 0.75244 0.81477 0.0
C526 C -0.01315 0.74534 0.88408 0.0
H527 H 0.97505 0.78558 0.73328 0.0
H528 H 0.01607 0.73967 0.78505 0.0
C529 C 0.95303 0.75854 0.91734 0.0
C530 C 0.54524 0.65588 0.14167 0.0
C531 C 0.54096 0.69187 0.11399 0.0
H532 H 0.52634 0.59746 0.13548 0.0
C533 C 0.52598 0.69243 1.0471 0.0
H534 H 0.56062 0.65281 0.18875 0.0
C535 C 0.50874 0.659 1.01708 0.0
C536 C 0.49864 0.63139 0.06247 0.0
H537 H 0.52618 0.71834 1.02006 0.0
H538 H 0.49354 0.66051 0.96909 0.0
C539 C 0.52711 0.62369 0.1094 0.0
C540 C 0.44615 0.24373 0.40575 0.0
C541 C 0.48199 0.23161 0.37922 0.0
H542 H 0.39872 0.28094 0.39279 0.0
C543 C 0.4911 0.23829 0.31069 0.0
H544 H 0.43594 0.23575 0.45494 0.0
C545 C 0.46784 0.26225 0.27521 0.0
C546 C 0.4416 0.28483 0.31408 0.0
H547 H 0.51634 0.2261 0.28542 0.0
H548 H 0.47735 0.27055 0.22561 0.0
C549 C 0.4239 0.26796 0.36863 0.0
C550 C -0.00801 0.29308 0.69193 0.0
C551 C 0.01496 0.30362 0.6382 0.0
H552 H 0.97797 0.24379 0.74399 0.0
C553 C 0.01152 0.28247 0.57437 0.0
H554 H -0.00948 0.31138 0.73949 0.0
C555 C 0.00181 0.24375 0.57377 0.0
C556 C -0.00902 0.22874 0.63548 0.0
H557 H 0.02487 0.2925 0.52896 0.0
H558 H 0.00315 0.22566 0.52601 0.0
C559 C -0.01368 0.25394 0.69518 0.0
C560 C 0.0311 0.01032 0.08161 0.0
C561 C 0.06598 0.02296 0.11055 0.0
H562 H 0.00231 0.98047 0.99767 0.0
C563 C 0.09991 0.01344 0.07454 0.0
H564 H 0.00432 0.018 0.10679 0.0
C565 C 0.09878 0.98979 1.0124 0.0
C566 C 0.06352 0.97823 0.98322 0.0
H567 H 0.12706 0.02396 0.09464 0.0
H568 H 0.12516 0.98085 0.98705 0.0
C569 C 0.02988 0.98925 1.01821 0.0
C570 C 0.27276 0.72923 0.37315 0.0
C571 C 0.23942 0.73803 0.33894 0.0
H572 H 0.33203 0.71756 0.36545 0.0
C573 C 0.24135 0.74498 0.26869 0.0
H574 H 0.27211 0.72414 0.42719 0.0
C575 C 0.27563 0.74006 0.23202 0.0
C576 C 0.30855 0.72871 0.26541 0.0
H577 H 0.21583 0.75173 0.24087 0.0
H578 H 0.27579 0.74306 0.1772 0.0
C579 C 0.30704 0.72532 0.33715 0.0
C580 C 0.52486 0.00871 0.52732 0.0
C581 C 0.48955 0.0241 0.51021 0.0
H582 H 0.55416 0.96542 0.57818 0.0
C583 C 0.45581 0.00682 0.53154 0.0
H584 H 0.55126 0.02214 0.51292 0.0
C585 C 0.45746 0.97398 0.56815 0.0
C586 C 0.49285 0.95918 0.58654 0.0
H587 H 0.42828 0.01871 0.51986 0.0
H588 H 0.43118 0.96042 0.58273 0.0
C589 C 0.5265 0.97684 0.56591 0.0
C590 C 0.27444 0.25969 0.85909 0.0
C591 C 0.29173 0.29591 0.86887 0.0
H592 H 0.23331 0.22476 0.80176 0.0
C593 C 0.28032 0.32523 0.82813 0.0
H594 H 0.28385 0.23625 0.88804 0.0
C595 C 0.25323 0.31829 0.77675 0.0
C596 C 0.23624 0.28197 0.76561 0.0
H597 H 0.29398 0.35319 0.83373 0.0
H598 H 0.2451 0.34176 0.74677 0.0
C599 C 0.24661 0.25285 0.80811 0.0
C600 C 0.74351 0.23761 0.78483 0.0
C601 C 0.73325 0.2088 0.82819 0.0
H602 H 0.78267 0.25495 0.70804 0.0
C603 C 0.75267 0.17365 0.82191 0.0
H604 H 0.72849 0.26478 0.78762 0.0
C605 C 0.78205 0.16759 0.77452 0.0
C606 C 0.79326 0.19669 0.73303 0.0
H607 H 0.7449 0.15042 0.85284 0.0
H608 H 0.79741 0.14059 0.77257 0.0
C609 C 0.77358 0.23167 0.73781 0.0
C610 C 0.77564 0.82794 0.31795 0.0
C611 C 0.7904 0.80138 0.36162 0.0
H612 H 0.73551 0.8384 0.23867 0.0
C613 C 0.77479 0.76452 0.35977 0.0
H614 H 0.78807 0.85636 0.31745 0.0
C615 C 0.74605 0.75376 0.31285 0.0
C616 C 0.73185 0.77987 0.26742 0.0
H617 H 0.78657 0.74319 0.39113 0.0
H618 H 0.73518 0.72469 0.31225 0.0
C619 C 0.74629 0.81743 0.27175 0.0
C620 C 0.53778 0.5147 0.56421 0.0
C621 C 0.55408 0.5048 0.62613 0.0
H622 H 0.52819 0.49947 0.45755 0.0
C623 C 0.57741 0.47229 0.62535 0.0
H624 H 0.52059 0.5403 0.56298 0.0
C625 C 0.58234 0.44882 0.56397 0.0
C626 C 0.56439 0.45785 0.50239 0.0
H627 H 0.59135 0.46485 0.67193 0.0
H628 H 0.59885 0.4227 0.56539 0.0
C629 C 0.54296 0.49174 0.50314 0.0
C630 C 0.96019 0.517 1.02598 0.0
C631 C -0.00524 0.53286 1.00508 0.0
H632 H 0.933 0.47261 0.07845 0.0
C633 C 0.02921 0.51648 1.02479 0.0
H634 H 0.93322 0.52949 1.01254 0.0
C635 C 0.02908 0.48506 0.06513 0.0
C636 C -0.00551 0.46894 0.08536 0.0
H637 H 0.05629 0.52871 1.01093 0.0
H638 H 0.05606 0.47267 0.07874 0.0
C639 C 0.96005 0.48494 0.06467 0.0
C640 C 0.07547 0.21569 0.40253 0.0
C641 C 0.06609 0.17599 0.39163 0.0
H642 H 0.09683 0.26242 0.47083 0.0
C643 C 0.07213 0.15312 0.44642 0.0
H644 H 0.07125 0.23475 0.36216 0.0
C645 C 0.08711 0.16954 0.50946 0.0
C646 C 0.09678 0.20919 0.51961 0.0
H647 H 0.06531 0.12277 0.44077 0.0
H648 H 0.09087 0.15099 0.55082 0.0
C649 C 0.09064 0.23192 0.46498 0.0
C650 C 0.08292 0.83491 0.5785 0.0
C651 C 0.09375 0.7956 0.5682 0.0
H652 H 0.06058 0.88107 0.648 0.0
C653 C 0.08914 0.77277 0.6231 0.0
H654 H 0.08549 0.85343 0.5368 0.0
C655 C 0.07422 0.78856 0.68599 0.0
C656 C 0.06375 0.82799 0.69721 0.0
H657 H 0.09624 0.74249 0.61711 0.0
H658 H 0.07104 0.76927 0.72637 0.0
C659 C 0.06834 0.85097 0.64215 0.0
C660 C 0.46117 0.79662 0.92849 0.0
C661 C 0.42588 0.77693 0.93348 0.0
H662 H 0.49859 0.83008 0.86751 0.0
C663 C 0.39983 0.78028 0.87962 0.0
H664 H 0.48217 0.79518 0.96882 0.0
C665 C 0.40916 0.80069 0.82198 0.0
C666 C 0.44511 0.81864 0.81469 0.0
H667 H 0.37237 0.76615 0.88097 0.0
H668 H 0.38834 0.80092 0.78112 0.0
C669 C 0.47064 0.81707 0.87027 0.0
C670 C 0.45529 0.16381 0.23436 0.0
C671 C 0.43155 0.16473 0.29301 0.0
H672 H 0.46497 0.18333 0.13341 0.0
C673 C 0.3973 0.18628 0.28947 0.0
H674 H 0.48177 0.14788 0.23367 0.0
C675 C 0.38836 0.20787 0.23306 0.0
C676 C 0.41257 0.20827 0.17561 0.0
H677 H 0.37766 0.18805 0.33248 0.0
H678 H 0.3625 0.22483 0.23508 0.0
C679 C 0.44568 0.18473 0.17664 0.0
C680 C 0.93544 0.93127 0.54667 0.0
C681 C 0.91104 0.89907 0.5424 0.0
H682 H 0.96769 0.97117 0.61247 0.0
C683 C 0.89477 0.88666 0.60207 0.0
H684 H 0.94804 0.94176 0.50099 0.0
C685 C 0.90494 0.90472 0.6658 0.0
C686 C 0.93231 0.93454 0.67019 0.0
H687 H 0.87561 0.86221 0.59965 0.0
H688 H 0.8939 0.89302 0.71164 0.0
C689 C 0.94638 0.94858 0.6102 0.0
C690 C 0.89641 0.1143 0.48904 0.0
C691 C 0.9111 0.10099 0.54916 0.0
H692 H 0.89786 0.10921 0.37936 0.0
C693 C 0.93515 0.06858 0.54506 0.0
H694 H 0.87756 0.13894 0.49125 0.0
C695 C 0.9474 0.05201 0.48161 0.0
C696 C 0.93485 0.06685 0.42135 0.0
H697 H 0.94657 0.05742 0.59099 0.0
H698 H 0.96837 0.02919 0.47977 0.0
C699 C 0.90779 0.0969 0.42532 0.0
C700 C 0.65886 0.13035 0.175 0.0
C701 C 0.64551 0.11035 0.1145 0.0
H702 H 0.64951 0.14433 0.28241 0.0
C703 C 0.61634 0.08292 0.11905 0.0
H704 H 0.68122 0.15169 0.17304 0.0
C705 C 0.59777 0.07905 0.18169 0.0
C706 C 0.60841 0.10231 0.2405 0.0
H707 H 0.60537 0.06715 0.07318 0.0
H708 H 0.57332 0.06011 0.18281 0.0
C709 C 0.64045 0.12635 0.23753 0.0
C710 C 0.63866 0.86962 0.87995 0.0
C711 C 0.60528 0.89111 0.8724 0.0
H712 H 0.67144 0.83637 0.94622 0.0
C713 C 0.58324 0.90203 0.9309 0.0
H714 H 0.65616 0.86075 0.8357 0.0
C715 C 0.59183 0.88782 0.994 0.0
C716 C 0.62271 0.86271 0.99953 0.0
H717 H 0.55733 0.91854 0.92662 0.0
H718 H 0.57256 0.89407 1.0369 0.0
C719 C 0.6473 0.85548 0.94315 0.0
C720 C 0.58997 0.68708 0.91078 0.0
C721 C 0.58098 0.6475 0.89696 0.0
H722 H 0.61365 0.7321 0.97979 0.0
C723 C 0.59157 0.62263 0.94669 0.0
H724 H 0.58269 0.70755 0.87416 0.0
C725 C 0.61034 0.63718 1.00782 0.0
C726 C 0.61874 0.67697 1.02138 0.0
H727 H 0.58574 0.59216 0.9383 0.0
H728 H 0.61747 0.61723 1.0455 0.0
C729 C 0.60832 0.70151 0.97146 0.0
C730 C 0.57984 0.27473 0.19539 0.0
C731 C 0.56894 0.31407 0.20657 0.0
H732 H 0.60084 0.22845 0.12578 0.0
C733 C 0.57289 0.33689 0.15112 0.0
H734 H 0.57724 0.25553 0.23603 0.0
C735 C 0.58676 0.32069 0.08695 0.0
C736 C 0.59728 0.2813 0.07624 0.0
H737 H 0.5646 0.36684 0.15672 0.0
H738 H 0.5886 0.3391 1.04498 0.0
C739 C 0.59376 0.25873 0.13179 0.0
C740 C 0.96033 0.32388 0.36455 0.0
C741 C 0.93772 0.32171 0.30451 0.0
H742 H 0.96859 0.30626 0.46706 0.0
C743 C 0.90438 0.29852 0.30645 0.0
H744 H 0.98617 0.34094 0.36642 0.0
C745 C 0.89491 0.27742 0.36367 0.0
C746 C 0.91777 0.27894 0.42317 0.0
H747 H 0.88583 0.29548 0.26207 0.0
H748 H 0.86961 0.25955 0.36088 0.0
C749 C 0.95029 0.30337 0.4226 0.0
C750 C 0.95977 0.67765 0.72718 0.0
C751 C 0.93711 0.67942 0.78732 0.0
H752 H 0.96793 0.69553 0.62468 0.0
C753 C 0.90346 0.70206 0.78541 0.0
H754 H 0.98586 0.66104 0.72524 0.0
C755 C 0.89373 0.723 0.72818 0.0
C756 C 0.91662 0.72188 0.66857 0.0
H757 H 0.88483 0.70478 0.82984 0.0
H758 H 0.86817 0.74042 0.73104 0.0
C759 C 0.94949 0.69801 0.66912 0.0
C760 C 0.44195 0.4385 0.13584 0.0
C761 C 0.4301 0.42135 0.19443 0.0
H762 H 0.44182 0.43577 1.02658 0.0
C763 C 0.40433 0.39015 0.18778 0.0
H764 H 0.46202 0.46221 0.1397 0.0
C765 C 0.39382 0.37387 0.12278 0.0
C766 C 0.40825 0.38931 0.06416 0.0
H767 H 0.39505 0.37604 0.23239 0.0
H768 H 0.37623 0.34826 0.11841 0.0
C769 C 0.43071 0.42289 0.07121 0.0
C770 C 0.37533 0.62404 0.99292 0.0
C771 C 0.38297 0.60413 0.05094 0.0
H772 H 0.38548 0.62756 0.88534 0.0
C773 C 0.40169 0.56829 1.04178 0.0
H774 H 0.36105 0.65161 0.99834 0.0
C775 C 0.41653 0.55496 0.97774 0.0
C776 C 0.41181 0.57647 0.92095 0.0
H777 H 0.40787 0.55195 0.08531 0.0
H778 H 0.43359 0.52903 0.97363 0.0
C779 C 0.38945 0.61017 0.9283 0.0
C780 C 0.16307 0.64707 0.67667 0.0
C781 C 0.14969 0.6283 0.61504 0.0
H782 H 0.15517 0.65719 0.78544 0.0
C783 C 0.12109 0.60013 0.61811 0.0
H784 H 0.18485 0.66907 0.67589 0.0
C785 C 0.10355 0.59379 0.68082 0.0
C786 C 0.1147 0.61511 0.74155 0.0
H787 H 0.10992 0.5854 0.57142 0.0
H788 H 0.07959 0.57417 0.68097 0.0
C789 C 0.1459 0.64035 0.73941 0.0
C790 C 0.1461 0.36538 0.35059 0.0
C791 C 0.11483 0.39033 0.34738 0.0
H792 H 0.18467 0.33756 0.41559 0.0
C793 C 0.10349 0.41244 0.40716 0.0
H794 H 0.15553 0.34803 0.30521 0.0
C795 C 0.12067 0.40689 0.47031 0.0
C796 C 0.14907 0.37876 0.47465 0.0
H797 H 0.07953 0.43192 0.40608 0.0
H798 H 0.10924 0.42207 0.51641 0.0
C799 C 0.16295 0.3595 0.41378 0.0
loop_
_geom_bond_atom_site_label_1
_geom_bond_atom_site_label_2
_geom_bond_distance
_geom_bond_site_symmetry_2
_ccdc_geom_bond_type
Tb0 O3 2.453 . S
Tb0 O4 2.596 1_655 S
Tb0 O5 2.374 1_655 S
Tb0 O13 2.343 1_655 S
Tb0 O15 2.353 1_655 S
Tb0 O17 2.427 . S
Tb0 O18 2.513 . S
C1 O5 1.251 . S
C1 O7 1.263 . S
Tb2 O4 2.343 . S
Tb2 O7 2.353 . S
Tb2 O10 2.427 1_554 S
Tb2 O11 2.513 . S
Tb2 O12 2.453 . S
Tb2 O13 2.596 . S
Tb2 O14 2.374 . S
O3 Tb0 2.453 . S
O3 C19 1.245 1_655 S
O4 Tb0 2.596 1_455 S
O4 Tb2 2.343 . S
O4 C19 1.259 . S
O5 Tb0 2.374 1_455 S
O5 C1 1.251 . S
C6 O10 1.275 . S
C6 O11 1.246 1_556 S
O7 C1 1.263 . S
O7 Tb2 2.353 . S
C8 O12 1.245 . S
C8 O13 1.259 . S
C9 O14 1.250 . S
C9 O15 1.263 . S
O10 Tb2 2.427 1_556 S
O10 C6 1.275 . S
O11 Tb2 2.513 . S
O11 C6 1.246 1_554 S
O12 Tb2 2.453 . S
O12 C8 1.245 . S
O13 Tb0 2.343 1_455 S
O13 Tb2 2.596 . S
O13 C8 1.259 . S
O14 Tb2 2.374 . S
O14 C9 1.250 . S
O15 Tb0 2.353 1_455 S
O15 C9 1.263 . S
C16 O17 1.275 . S
C16 O18 1.246 . S
O17 Tb0 2.427 . S
O17 C16 1.275 . S
O18 Tb0 2.513 . S
O18 C16 1.246 . S
C19 O3 1.245 1_455 S
C19 O4 1.259 . S
Tb20 O23 2.453 . S
Tb20 O24 2.596 . S
Tb20 O25 2.374 . S
Tb20 O33 2.343 . S
Tb20 O35 2.353 . S
Tb20 O37 2.427 . S
Tb20 O38 2.513 . S
C21 O25 1.251 . S
C21 O27 1.263 . S
Tb22 O24 2.343 . S
Tb22 O27 2.353 . S
Tb22 O30 2.427 . S
Tb22 O31 2.513 . S
Tb22 O32 2.453 . S
Tb22 O33 2.596 . S
Tb22 O34 2.374 . S
O23 Tb20 2.453 . S
O23 C39 1.245 . S
O24 Tb20 2.596 . S
O24 Tb22 2.343 . S
O24 C39 1.259 . S
O25 Tb20 2.374 . S
O25 C21 1.251 . S
C26 O30 1.275 . S
C26 O31 1.246 . S
O27 C21 1.263 . S
O27 Tb22 2.353 . S
C28 O32 1.245 . S
C28 O33 1.259 . S
C29 O34 1.250 . S
C29 O35 1.263 . S
O30 Tb22 2.427 . S
O30 C26 1.275 . S
O31 Tb22 2.513 . S
O31 C26 1.246 . S
O32 Tb22 2.453 . S
O32 C28 1.245 . S
O33 Tb20 2.343 . S
O33 Tb22 2.596 . S
O33 C28 1.259 . S
O34 Tb22 2.374 . S
O34 C29 1.250 . S
O35 Tb20 2.353 . S
O35 C29 1.263 . S
C36 O37 1.275 . S
C36 O38 1.246 . S
O37 Tb20 2.427 . S
O37 C36 1.275 . S
O38 Tb20 2.513 . S
O38 C36 1.246 . S
C39 O23 1.245 . S
C39 O24 1.259 . S
Tb40 O43 2.453 . S
Tb40 O44 2.596 . S
Tb40 O45 2.374 . S
Tb40 O53 2.343 . S
Tb40 O55 2.353 . S
Tb40 O57 2.427 . S
Tb40 O58 2.513 . S
C41 O45 1.251 . S
C41 O47 1.263 . S
Tb42 O44 2.343 . S
Tb42 O47 2.353 . S
Tb42 O50 2.427 . S
Tb42 O51 2.513 . S
Tb42 O52 2.453 . S
Tb42 O53 2.596 . S
Tb42 O54 2.374 . S
O43 Tb40 2.453 . S
O43 C59 1.245 . S
O44 Tb40 2.596 . S
O44 Tb42 2.343 . S
O44 C59 1.259 . S
O45 Tb40 2.374 . S
O45 C41 1.251 . S
C46 O50 1.275 . S
C46 O51 1.246 . S
O47 C41 1.263 . S
O47 Tb42 2.353 . S
C48 O52 1.245 . S
C48 O53 1.259 . S
C49 O54 1.250 . S
C49 O55 1.263 . S
O50 Tb42 2.427 . S
O50 C46 1.275 . S
O51 Tb42 2.513 . S
O51 C46 1.246 . S
O52 Tb42 2.453 . S
O52 C48 1.245 . S
O53 Tb40 2.343 . S
O53 Tb42 2.596 . S
O53 C48 1.259 . S
O54 Tb42 2.374 . S
O54 C49 1.250 . S
O55 Tb40 2.353 . S
O55 C49 1.263 . S
C56 O57 1.275 . S
C56 O58 1.246 . S
O57 Tb40 2.427 . S
O57 C56 1.275 . S
O58 Tb40 2.513 . S
O58 C56 1.246 . S
C59 O43 1.245 . S
C59 O44 1.259 . S
Tb60 O63 2.453 . S
Tb60 O64 2.596 . S
Tb60 O65 2.374 . S
Tb60 O73 2.343 . S
Tb60 O75 2.353 . S
Tb60 O77 2.427 . S
Tb60 O78 2.513 . S
C61 O65 1.251 . S
C61 O67 1.263 . S
Tb62 O64 2.343 . S
Tb62 O67 2.353 . S
Tb62 O70 2.427 1_556 S
Tb62 O71 2.513 1_556 S
Tb62 O72 2.453 . S
Tb62 O73 2.596 . S
Tb62 O74 2.374 . S
O63 Tb60 2.453 . S
O63 C79 1.245 . S
O64 Tb60 2.596 . S
O64 Tb62 2.343 . S
O64 C79 1.259 . S
O65 Tb60 2.374 . S
O65 C61 1.251 . S
C66 O70 1.275 . S
C66 O71 1.246 . S
O67 C61 1.263 . S
O67 Tb62 2.353 . S
C68 O72 1.245 . S
C68 O73 1.259 . S
C69 O74 1.250 . S
C69 O75 1.263 . S
O70 Tb62 2.427 1_554 S
O70 C66 1.275 . S
O71 Tb62 2.513 1_554 S
O71 C66 1.246 . S
O72 Tb62 2.453 . S
O72 C68 1.245 . S
O73 Tb60 2.343 . S
O73 Tb62 2.596 . S
O73 C68 1.259 . S
O74 Tb62 2.374 . S
O74 C69 1.250 . S
O75 Tb60 2.353 . S
O75 C69 1.263 . S
C76 O77 1.275 . S
C76 O78 1.246 . S
O77 Tb60 2.427 . S
O77 C76 1.275 . S
O78 Tb60 2.513 . S
O78 C76 1.246 . S
C79 O63 1.245 . S
C79 O64 1.259 . S
Tb80 O83 2.453 . S
Tb80 O84 2.596 1_655 S
Tb80 O85 2.374 1_655 S
Tb80 O93 2.343 1_655 S
Tb80 O95 2.353 1_655 S
Tb80 O97 2.427 . S
Tb80 O98 2.513 . S
C81 O85 1.251 . S
C81 O87 1.263 . S
Tb82 O84 2.343 . S
Tb82 O87 2.353 . S
Tb82 O90 2.427 1_556 S
Tb82 O91 2.513 . S
Tb82 O92 2.453 . S
Tb82 O93 2.596 . S
Tb82 O94 2.374 . S
O83 Tb80 2.453 . S
O83 C99 1.245 1_655 S
O84 Tb80 2.596 1_455 S
O84 Tb82 2.343 . S
O84 C99 1.259 . S
O85 Tb80 2.374 1_455 S
O85 C81 1.251 . S
C86 O90 1.275 . S
C86 O91 1.246 1_554 S
O87 C81 1.263 . S
O87 Tb82 2.353 . S
C88 O92 1.245 . S
C88 O93 1.259 . S
C89 O94 1.250 . S
C89 O95 1.263 . S
O90 Tb82 2.427 1_554 S
O90 C86 1.275 . S
O91 Tb82 2.513 . S
O91 C86 1.246 1_556 S
O92 Tb82 2.453 . S
O92 C88 1.245 . S
O93 Tb80 2.343 1_455 S
O93 Tb82 2.596 . S
O93 C88 1.259 . S
O94 Tb82 2.374 . S
O94 C89 1.250 . S
O95 Tb80 2.353 1_455 S
O95 C89 1.263 . S
C96 O97 1.275 . S
C96 O98 1.246 . S
O97 Tb80 2.427 . S
O97 C96 1.275 . S
O98 Tb80 2.513 . S
O98 C96 1.246 . S
C99 O83 1.245 1_455 S
C99 O84 1.259 . S
Tb100 O103 2.453 . S
Tb100 O104 2.596 . S
Tb100 O105 2.374 . S
Tb100 O113 2.343 . S
Tb100 O115 2.353 . S
Tb100 O117 2.427 . S
Tb100 O118 2.513 . S
C101 O105 1.251 . S
C101 O107 1.263 . S
Tb102 O104 2.343 . S
Tb102 O107 2.353 . S
Tb102 O110 2.427 1_554 S
Tb102 O111 2.513 1_554 S
Tb102 O112 2.453 . S
Tb102 O113 2.596 . S
Tb102 O114 2.374 . S
O103 Tb100 2.453 . S
O103 C119 1.245 . S
O104 Tb100 2.596 . S
O104 Tb102 2.343 . S
O104 C119 1.259 . S
O105 Tb100 2.374 . S
O105 C101 1.251 . S
C106 O110 1.275 . S
C106 O111 1.246 . S
O107 C101 1.263 . S
O107 Tb102 2.353 . S
C108 O112 1.245 . S
C108 O113 1.259 . S
C109 O114 1.250 . S
C109 O115 1.263 . S
O110 Tb102 2.427 1_556 S
O110 C106 1.275 . S
O111 Tb102 2.513 1_556 S
O111 C106 1.246 . S
O112 Tb102 2.453 . S
O112 C108 1.245 . S
O113 Tb100 2.343 . S
O113 Tb102 2.596 . S
O113 C108 1.259 . S
O114 Tb102 2.374 . S
O114 C109 1.250 . S
O115 Tb100 2.353 . S
O115 C109 1.263 . S
C116 O117 1.275 . S
C116 O118 1.246 . S
O117 Tb100 2.427 . S
O117 C116 1.275 . S
O118 Tb100 2.513 . S
O118 C116 1.246 . S
C119 O103 1.245 . S
C119 O104 1.259 . S
Tb120 O123 2.453 . S
Tb120 O124 2.596 . S
Tb120 O125 2.374 . S
Tb120 O133 2.343 . S
Tb120 O135 2.353 . S
Tb120 O137 2.427 . S
Tb120 O138 2.513 . S
C121 O125 1.251 . S
C121 O127 1.263 . S
Tb122 O124 2.343 . S
Tb122 O127 2.353 . S
Tb122 O130 2.427 . S
Tb122 O131 2.513 . S
Tb122 O132 2.453 . S
Tb122 O133 2.596 . S
Tb122 O134 2.374 . S
O123 Tb120 2.453 . S
O123 C139 1.245 . S
O124 Tb120 2.596 . S
O124 Tb122 2.343 . S
O124 C139 1.259 . S
O125 Tb120 2.374 . S
O125 C121 1.251 . S
C126 O130 1.275 . S
C126 O131 1.246 . S
O127 C121 1.263 . S
O127 Tb122 2.353 . S
C128 O132 1.245 . S
C128 O133 1.259 . S
C129 O134 1.250 . S
C129 O135 1.263 . S
O130 Tb122 2.427 . S
O130 C126 1.275 . S
O131 Tb122 2.513 . S
O131 C126 1.246 . S
O132 Tb122 2.453 . S
O132 C128 1.245 . S
O133 Tb120 2.343 . S
O133 Tb122 2.596 . S
O133 C128 1.259 . S
O134 Tb122 2.374 . S
O134 C129 1.250 . S
O135 Tb120 2.353 . S
O135 C129 1.263 . S
C136 O137 1.275 . S
C136 O138 1.246 . S
O137 Tb120 2.427 . S
O137 C136 1.275 . S
O138 Tb120 2.513 . S
O138 C136 1.246 . S
C139 O123 1.245 . S
C139 O124 1.259 . S
Tb140 O143 2.453 . S
Tb140 O144 2.596 . S
Tb140 O145 2.374 . S
Tb140 O153 2.343 . S
Tb140 O155 2.353 . S
Tb140 O157 2.427 . S
Tb140 O158 2.513 . S
C141 O145 1.251 . S
C141 O147 1.263 . S
Tb142 O144 2.343 . S
Tb142 O147 2.353 . S
Tb142 O150 2.427 . S
Tb142 O151 2.513 . S
Tb142 O152 2.453 . S
Tb142 O153 2.596 . S
Tb142 O154 2.374 . S
O143 Tb140 2.453 . S
O143 C159 1.245 . S
O144 Tb140 2.596 . S
O144 Tb142 2.343 . S
O144 C159 1.259 . S
O145 Tb140 2.374 . S
O145 C141 1.251 . S
C146 O150 1.275 . S
C146 O151 1.246 . S
O147 C141 1.263 . S
O147 Tb142 2.353 . S
C148 O152 1.245 . S
C148 O153 1.259 . S
C149 O154 1.250 . S
C149 O155 1.263 . S
O150 Tb142 2.427 . S
O150 C146 1.275 . S
O151 Tb142 2.513 . S
O151 C146 1.246 . S
O152 Tb142 2.453 . S
O152 C148 1.245 . S
O153 Tb140 2.343 . S
O153 Tb142 2.596 . S
O153 C148 1.259 . S
O154 Tb142 2.374 . S
O154 C149 1.250 . S
O155 Tb140 2.353 . S
O155 C149 1.263 . S
C156 O157 1.275 . S
C156 O158 1.246 . S
O157 Tb140 2.427 . S
O157 C156 1.275 . S
O158 Tb140 2.513 . S
O158 C156 1.246 . S
C159 O143 1.245 . S
C159 O144 1.259 . S
Tb160 O163 2.453 . S
Tb160 O164 2.596 . S
Tb160 O165 2.374 . S
Tb160 O173 2.343 . S
Tb160 O175 2.353 . S
Tb160 O177 2.427 . S
Tb160 O178 2.513 . S
C161 O165 1.251 . S
C161 O167 1.263 . S
Tb162 O164 2.343 . S
Tb162 O167 2.353 . S
Tb162 O170 2.427 . S
Tb162 O171 2.513 . S
Tb162 O172 2.453 . S
Tb162 O173 2.596 . S
Tb162 O174 2.374 . S
O163 Tb160 2.453 . S
O163 C179 1.245 . S
O164 Tb160 2.596 . S
O164 Tb162 2.343 . S
O164 C179 1.259 . S
O165 Tb160 2.374 . S
O165 C161 1.251 . S
C166 O170 1.275 . S
C166 O171 1.246 . S
O167 C161 1.263 . S
O167 Tb162 2.353 . S
C168 O172 1.245 . S
C168 O173 1.259 . S
C169 O174 1.250 . S
C169 O175 1.263 . S
O170 Tb162 2.427 . S
O170 C166 1.275 . S
O171 Tb162 2.513 . S
O171 C166 1.246 . S
O172 Tb162 2.453 . S
O172 C168 1.245 . S
O173 Tb160 2.343 . S
O173 Tb162 2.596 . S
O173 C168 1.259 . S
O174 Tb162 2.374 . S
O174 C169 1.250 . S
O175 Tb160 2.353 . S
O175 C169 1.263 . S
C176 O177 1.275 . S
C176 O178 1.246 . S
O177 Tb160 2.427 . S
O177 C176 1.275 . S
O178 Tb160 2.513 . S
O178 C176 1.246 . S
C179 O163 1.245 . S
C179 O164 1.259 . S
Tb180 O183 2.453 . S
Tb180 O184 2.596 . S
Tb180 O185 2.374 . S
Tb180 O193 2.343 . S
Tb180 O195 2.353 . S
Tb180 O197 2.427 1_554 S
Tb180 O198 2.513 . S
C181 O185 1.251 . S
C181 O187 1.263 . S
Tb182 O184 2.343 . S
Tb182 O187 2.353 . S
Tb182 O190 2.427 . S
Tb182 O191 2.513 . S
Tb182 O192 2.453 . S
Tb182 O193 2.596 . S
Tb182 O194 2.374 . S
O183 Tb180 2.453 . S
O183 C199 1.245 . S
O184 Tb180 2.596 . S
O184 Tb182 2.343 . S
O184 C199 1.259 . S
O185 Tb180 2.374 . S
O185 C181 1.251 . S
C186 O190 1.275 . S
C186 O191 1.246 . S
O187 C181 1.263 . S
O187 Tb182 2.353 . S
C188 O192 1.245 . S
C188 O193 1.259 . S
C189 O194 1.250 . S
C189 O195 1.263 . S
O190 Tb182 2.427 . S
O190 C186 1.275 . S
O191 Tb182 2.513 . S
O191 C186 1.246 . S
O192 Tb182 2.453 . S
O192 C188 1.245 . S
O193 Tb180 2.343 . S
O193 Tb182 2.596 . S
O193 C188 1.259 . S
O194 Tb182 2.374 . S
O194 C189 1.250 . S
O195 Tb180 2.353 . S
O195 C189 1.263 . S
C196 O197 1.275 . S
C196 O198 1.246 1_556 S
O197 Tb180 2.427 1_556 S
O197 C196 1.275 . S
O198 Tb180 2.513 . S
O198 C196 1.246 1_554 S
C199 O183 1.245 . S
C199 O184 1.259 . S
Tb200 O203 2.453 . S
Tb200 O204 2.596 . S
Tb200 O205 2.374 . S
Tb200 O213 2.343 . S
Tb200 O215 2.353 . S
Tb200 O217 2.427 1_556 S
Tb200 O218 2.513 . S
C201 O205 1.251 . S
C201 O207 1.263 . S
Tb202 O204 2.343 . S
Tb202 O207 2.353 . S
Tb202 O210 2.427 . S
Tb202 O211 2.513 . S
Tb202 O212 2.453 . S
Tb202 O213 2.596 . S
Tb202 O214 2.374 . S
O203 Tb200 2.453 . S
O203 C219 1.245 . S
O204 Tb200 2.596 . S
O204 Tb202 2.343 . S
O204 C219 1.259 . S
O205 Tb200 2.374 . S
O205 C201 1.251 . S
C206 O210 1.275 . S
C206 O211 1.246 . S
O207 C201 1.263 . S
O207 Tb202 2.353 . S
C208 O212 1.245 . S
C208 O213 1.259 . S
C209 O214 1.250 . S
C209 O215 1.263 . S
O210 Tb202 2.427 . S
O210 C206 1.275 . S
O211 Tb202 2.513 . S
O211 C206 1.246 . S
O212 Tb202 2.453 . S
O212 C208 1.245 . S
O213 Tb200 2.343 . S
O213 Tb202 2.596 . S
O213 C208 1.259 . S
O214 Tb202 2.374 . S
O214 C209 1.250 . S
O215 Tb200 2.353 . S
O215 C209 1.263 . S
C216 O217 1.275 . S
C216 O218 1.246 1_554 S
O217 Tb200 2.427 1_554 S
O217 C216 1.275 . S
O218 Tb200 2.513 . S
O218 C216 1.246 1_556 S
C219 O203 1.245 . S
C219 O204 1.259 . S
Tb220 O223 2.453 . S
Tb220 O224 2.596 . S
Tb220 O225 2.374 . S
Tb220 O233 2.343 . S
Tb220 O235 2.353 . S
Tb220 O237 2.427 . S
Tb220 O238 2.513 . S
C221 O225 1.251 . S
C221 O227 1.263 . S
Tb222 O224 2.343 . S
Tb222 O227 2.353 . S
Tb222 O230 2.427 . S
Tb222 O231 2.513 . S
Tb222 O232 2.453 . S
Tb222 O233 2.596 . S
Tb222 O234 2.374 . S
O223 Tb220 2.453 . S
O223 C239 1.245 . S
O224 Tb220 2.596 . S
O224 Tb222 2.343 . S
O224 C239 1.259 . S
O225 Tb220 2.374 . S
O225 C221 1.251 . S
C226 O230 1.275 . S
C226 O231 1.246 . S
O227 C221 1.263 . S
O227 Tb222 2.353 . S
C228 O232 1.245 . S
C228 O233 1.259 . S
C229 O234 1.250 . S
C229 O235 1.263 . S
O230 Tb222 2.427 . S
O230 C226 1.275 . S
O231 Tb222 2.513 . S
O231 C226 1.246 . S
O232 Tb222 2.453 . S
O232 C228 1.245 . S
O233 Tb220 2.343 . S
O233 Tb222 2.596 . S
O233 C228 1.259 . S
O234 Tb222 2.374 . S
O234 C229 1.250 . S
O235 Tb220 2.353 . S
O235 C229 1.263 . S
C236 O237 1.275 . S
C236 O238 1.246 . S
O237 Tb220 2.427 . S
O237 C236 1.275 . S
O238 Tb220 2.513 . S
O238 C236 1.246 . S
C239 O223 1.245 . S
C239 O224 1.259 . S
Tb240 O243 2.453 . S
Tb240 O244 2.596 . S
Tb240 O245 2.374 . S
Tb240 O253 2.343 . S
Tb240 O255 2.353 . S
Tb240 O257 2.427 . S
Tb240 O258 2.513 . S
C241 O245 1.251 . S
C241 O247 1.263 . S
Tb242 O244 2.343 . S
Tb242 O247 2.353 . S
Tb242 O250 2.427 . S
Tb242 O251 2.513 . S
Tb242 O252 2.453 . S
Tb242 O253 2.596 . S
Tb242 O254 2.374 . S
O243 Tb240 2.453 . S
O243 C259 1.245 . S
O244 Tb240 2.596 . S
O244 Tb242 2.343 . S
O244 C259 1.259 . S
O245 Tb240 2.374 . S
O245 C241 1.251 . S
C246 O250 1.275 . S
C246 O251 1.246 . S
O247 C241 1.263 . S
O247 Tb242 2.353 . S
C248 O252 1.245 . S
C248 O253 1.259 . S
C249 O254 1.250 . S
C249 O255 1.263 . S
O250 Tb242 2.427 . S
O250 C246 1.275 . S
O251 Tb242 2.513 . S
O251 C246 1.246 . S
O252 Tb242 2.453 . S
O252 C248 1.245 . S
O253 Tb240 2.343 . S
O253 Tb242 2.596 . S
O253 C248 1.259 . S
O254 Tb242 2.374 . S
O254 C249 1.250 . S
O255 Tb240 2.353 . S
O255 C249 1.263 . S
C256 O257 1.275 . S
C256 O258 1.246 . S
O257 Tb240 2.427 . S
O257 C256 1.275 . S
O258 Tb240 2.513 . S
O258 C256 1.246 . S
C259 O243 1.245 . S
C259 O244 1.259 . S
Tb260 O263 2.453 . S
Tb260 O264 2.596 . S
Tb260 O265 2.374 . S
Tb260 O273 2.343 1_455 S
Tb260 O275 2.353 . S
Tb260 O277 2.427 . S
Tb260 O278 2.513 . S
C261 O265 1.251 1_655 S
C261 O267 1.263 . S
Tb262 O264 2.343 1_655 S
Tb262 O267 2.353 . S
Tb262 O270 2.427 1_554 S
Tb262 O271 2.513 1_554 S
Tb262 O272 2.453 . S
Tb262 O273 2.596 . S
Tb262 O274 2.374 . S
O263 Tb260 2.453 . S
O263 C279 1.245 . S
O264 Tb260 2.596 . S
O264 Tb262 2.343 1_455 S
O264 C279 1.259 . S
O265 Tb260 2.374 . S
O265 C261 1.251 1_455 S
C266 O270 1.275 . S
C266 O271 1.246 . S
O267 C261 1.263 . S
O267 Tb262 2.353 . S
C268 O272 1.245 . S
C268 O273 1.259 . S
C269 O274 1.250 1_455 S
C269 O275 1.263 . S
O270 Tb262 2.427 1_556 S
O270 C266 1.275 . S
O271 Tb262 2.513 1_556 S
O271 C266 1.246 . S
O272 Tb262 2.453 . S
O272 C268 1.245 . S
O273 Tb260 2.343 1_655 S
O273 Tb262 2.596 . S
O273 C268 1.259 . S
O274 Tb262 2.374 . S
O274 C269 1.250 1_655 S
O275 Tb260 2.353 . S
O275 C269 1.263 . S
C276 O277 1.275 . S
C276 O278 1.246 . S
O277 Tb260 2.427 . S
O277 C276 1.275 . S
O278 Tb260 2.513 . S
O278 C276 1.246 . S
C279 O263 1.245 . S
C279 O264 1.259 . S
Tb280 O283 2.453 . S
Tb280 O284 2.596 . S
Tb280 O285 2.374 . S
Tb280 O293 2.343 . S
Tb280 O295 2.353 . S
Tb280 O297 2.427 . S
Tb280 O298 2.513 . S
C281 O285 1.251 . S
C281 O287 1.263 . S
Tb282 O284 2.343 . S
Tb282 O287 2.353 . S
Tb282 O290 2.427 . S
Tb282 O291 2.513 . S
Tb282 O292 2.453 . S
Tb282 O293 2.596 . S
Tb282 O294 2.374 . S
O283 Tb280 2.453 . S
O283 C299 1.245 . S
O284 Tb280 2.596 . S
O284 Tb282 2.343 . S
O284 C299 1.259 . S
O285 Tb280 2.374 . S
O285 C281 1.251 . S
C286 O290 1.275 . S
C286 O291 1.246 . S
O287 C281 1.263 . S
O287 Tb282 2.353 . S
C288 O292 1.245 . S
C288 O293 1.259 . S
C289 O294 1.250 . S
C289 O295 1.263 . S
O290 Tb282 2.427 . S
O290 C286 1.275 . S
O291 Tb282 2.513 . S
O291 C286 1.246 . S
O292 Tb282 2.453 . S
O292 C288 1.245 . S
O293 Tb280 2.343 . S
O293 Tb282 2.596 . S
O293 C288 1.259 . S
O294 Tb282 2.374 . S
O294 C289 1.250 . S
O295 Tb280 2.353 . S
O295 C289 1.263 . S
C296 O297 1.275 . S
C296 O298 1.246 . S
O297 Tb280 2.427 . S
O297 C296 1.275 . S
O298 Tb280 2.513 . S
O298 C296 1.246 . S
C299 O283 1.245 . S
C299 O284 1.259 . S
Tb300 O303 2.453 . S
Tb300 O304 2.596 . S
Tb300 O305 2.374 . S
Tb300 O313 2.343 1_455 S
Tb300 O315 2.353 . S
Tb300 O317 2.427 . S
Tb300 O318 2.513 . S
C301 O305 1.251 1_655 S
C301 O307 1.263 . S
Tb302 O304 2.343 1_655 S
Tb302 O307 2.353 . S
Tb302 O310 2.427 1_556 S
Tb302 O311 2.513 1_556 S
Tb302 O312 2.453 . S
Tb302 O313 2.596 . S
Tb302 O314 2.374 . S
O303 Tb300 2.453 . S
O303 C319 1.245 . S
O304 Tb300 2.596 . S
O304 Tb302 2.343 1_455 S
O304 C319 1.259 . S
O305 Tb300 2.374 . S
O305 C301 1.251 1_455 S
C306 O310 1.275 . S
C306 O311 1.246 . S
O307 C301 1.263 . S
O307 Tb302 2.353 . S
C308 O312 1.245 . S
C308 O313 1.259 . S
C309 O314 1.250 1_455 S
C309 O315 1.263 . S
O310 Tb302 2.427 1_554 S
O310 C306 1.275 . S
O311 Tb302 2.513 1_554 S
O311 C306 1.246 . S
O312 Tb302 2.453 . S
O312 C308 1.245 . S
O313 Tb300 2.343 1_655 S
O313 Tb302 2.596 . S
O313 C308 1.259 . S
O314 Tb302 2.374 . S
O314 C309 1.250 1_655 S
O315 Tb300 2.353 . S
O315 C309 1.263 . S
C316 O317 1.275 . S
C316 O318 1.246 . S
O317 Tb300 2.427 . S
O317 C316 1.275 . S
O318 Tb300 2.513 . S
O318 C316 1.246 . S
C319 O303 1.245 . S
C319 O304 1.259 . S
C320 C321 1.387 . S
C320 H324 0.950 . S
C320 C329 1.390 . S
C321 C320 1.387 . S
C321 C323 1.387 . S
H322 C329 0.950 . S
C323 C321 1.387 . S
C323 C325 1.390 . S
C323 H327 0.950 . S
H324 C320 0.950 . S
C325 C323 1.390 . S
C325 C326 1.387 . S
C325 H328 0.950 . S
C326 C325 1.387 . S
C326 C329 1.387 . S
H327 C323 0.950 . S
H328 C325 0.950 . S
C329 C320 1.390 . S
C329 H322 0.950 . S
C329 C326 1.387 . S
C330 C331 1.387 . S
C330 H334 0.950 . S
C330 C339 1.390 . S
C331 C330 1.387 . S
C331 C333 1.387 . S
H332 C339 0.950 . S
C333 C331 1.387 . S
C333 C335 1.390 . S
C333 H337 0.950 . S
H334 C330 0.950 . S
C335 C333 1.390 . S
C335 C336 1.387 . S
C335 H338 0.950 . S
C336 C335 1.387 . S
C336 C339 1.387 . S
H337 C333 0.950 . S
H338 C335 0.950 . S
C339 C330 1.390 . S
C339 H332 0.950 . S
C339 C336 1.387 . S
C340 C341 1.387 . S
C340 H344 0.950 . S
C340 C349 1.390 . S
C341 C340 1.387 . S
C341 C343 1.387 . S
H342 C349 0.950 . S
C343 C341 1.387 . S
C343 C345 1.390 . S
C343 H347 0.950 . S
H344 C340 0.950 . S
C345 C343 1.390 . S
C345 C346 1.387 . S
C345 H348 0.950 . S
C346 C345 1.387 . S
C346 C349 1.387 . S
H347 C343 0.950 . S
H348 C345 0.950 . S
C349 C340 1.390 . S
C349 H342 0.950 . S
C349 C346 1.387 . S
C350 C351 1.387 . S
C350 H354 0.950 . S
C350 C359 1.390 . S
C351 C350 1.387 . S
C351 C353 1.387 . S
H352 C359 0.950 . S
C353 C351 1.387 . S
C353 C355 1.390 . S
C353 H357 0.950 . S
H354 C350 0.950 . S
C355 C353 1.390 . S
C355 C356 1.387 . S
C355 H358 0.950 . S
C356 C355 1.387 . S
C356 C359 1.387 . S
H357 C353 0.950 . S
H358 C355 0.950 . S
C359 C350 1.390 . S
C359 H352 0.950 . S
C359 C356 1.387 . S
C360 C361 1.387 . S
C360 H364 0.950 . S
C360 C369 1.390 . S
C361 C360 1.387 . S
C361 C363 1.387 . S
H362 C369 0.950 . S
C363 C361 1.387 . S
C363 C365 1.390 . S
C363 H367 0.950 . S
H364 C360 0.950 . S
C365 C363 1.390 . S
C365 C366 1.387 . S
C365 H368 0.950 . S
C366 C365 1.387 . S
C366 C369 1.387 . S
H367 C363 0.950 . S
H368 C365 0.950 . S
C369 C360 1.390 . S
C369 H362 0.950 . S
C369 C366 1.387 . S
C370 C371 1.387 . S
C370 H374 0.950 . S
C370 C379 1.390 . S
C371 C370 1.387 . S
C371 C373 1.387 . S
H372 C379 0.950 . S
C373 C371 1.387 . S
C373 C375 1.390 . S
C373 H377 0.950 . S
H374 C370 0.950 . S
C375 C373 1.390 . S
C375 C376 1.387 . S
C375 H378 0.950 . S
C376 C375 1.387 . S
C376 C379 1.387 . S
H377 C373 0.950 . S
H378 C375 0.950 . S
C379 C370 1.390 . S
C379 H372 0.950 . S
C379 C376 1.387 . S
C380 C381 1.387 . S
C380 H384 0.950 . S
C380 C389 1.390 . S
C381 C380 1.387 . S
C381 C383 1.387 . S
H382 C389 0.950 . S
C383 C381 1.387 . S
C383 C385 1.390 . S
C383 H387 0.950 . S
H384 C380 0.950 . S
C385 C383 1.390 . S
C385 C386 1.387 . S
C385 H388 0.950 . S
C386 C385 1.387 . S
C386 C389 1.387 . S
H387 C383 0.950 . S
H388 C385 0.950 . S
C389 C380 1.390 . S
C389 H382 0.950 . S
C389 C386 1.387 . S
C390 C391 1.387 . S
C390 H394 0.950 . S
C390 C399 1.390 . S
C391 C390 1.387 . S
C391 C393 1.387 . S
H392 C399 0.950 . S
C393 C391 1.387 . S
C393 C395 1.390 . S
C393 H397 0.950 . S
H394 C390 0.950 . S
C395 C393 1.390 . S
C395 C396 1.387 . S
C395 H398 0.950 . S
C396 C395 1.387 . S
C396 C399 1.387 . S
H397 C393 0.950 . S
H398 C395 0.950 . S
C399 C390 1.390 . S
C399 H392 0.950 . S
C399 C396 1.387 . S
C400 C401 1.387 . S
C400 H404 0.950 . S
C400 C409 1.390 . S
C401 C400 1.387 . S
C401 C403 1.387 . S
H402 C409 0.950 . S
C403 C401 1.387 . S
C403 C405 1.390 . S
C403 H407 0.950 . S
H404 C400 0.950 . S
C405 C403 1.390 . S
C405 C406 1.387 . S
C405 H408 0.950 . S
C406 C405 1.387 . S
C406 C409 1.387 . S
H407 C403 0.950 . S
H408 C405 0.950 . S
C409 C400 1.390 . S
C409 H402 0.950 . S
C409 C406 1.387 . S
C410 C411 1.387 . S
C410 H414 0.950 . S
C410 C419 1.390 . S
C411 C410 1.387 . S
C411 C413 1.387 . S
H412 C419 0.950 . S
C413 C411 1.387 . S
C413 C415 1.390 . S
C413 H417 0.950 . S
H414 C410 0.950 . S
C415 C413 1.390 . S
C415 C416 1.387 . S
C415 H418 0.950 . S
C416 C415 1.387 . S
C416 C419 1.387 . S
H417 C413 0.950 . S
H418 C415 0.950 . S
C419 C410 1.390 . S
C419 H412 0.950 . S
C419 C416 1.387 . S
C420 C421 1.387 . S
C420 H424 0.950 . S
C420 C429 1.390 . S
C421 C420 1.387 . S
C421 C423 1.387 . S
H422 C429 0.950 . S
C423 C421 1.387 . S
C423 C425 1.390 . S
C423 H427 0.950 . S
H424 C420 0.950 . S
C425 C423 1.390 . S
C425 C426 1.387 . S
C425 H428 0.950 . S
C426 C425 1.387 . S
C426 C429 1.387 . S
H427 C423 0.950 . S
H428 C425 0.950 . S
C429 C420 1.390 . S
C429 H422 0.950 . S
C429 C426 1.387 . S
C430 C431 1.387 . S
C430 H434 0.950 . S
C430 C439 1.390 . S
C431 C430 1.387 . S
C431 C433 1.387 . S
H432 C439 0.950 . S
C433 C431 1.387 . S
C433 C435 1.390 . S
C433 H437 0.950 . S
H434 C430 0.950 . S
C435 C433 1.390 . S
C435 C436 1.387 . S
C435 H438 0.950 . S
C436 C435 1.387 . S
C436 C439 1.387 . S
H437 C433 0.950 . S
H438 C435 0.950 . S
C439 C430 1.390 . S
C439 H432 0.950 . S
C439 C436 1.387 . S
C440 C441 1.387 . S
C440 H444 0.950 . S
C440 C449 1.390 . S
C441 C440 1.387 . S
C441 C443 1.387 . S
H442 C449 0.950 . S
C443 C441 1.387 . S
C443 C445 1.390 . S
C443 H447 0.950 . S
H444 C440 0.950 . S
C445 C443 1.390 . S
C445 C446 1.387 . S
C445 H448 0.950 . S
C446 C445 1.387 . S
C446 C449 1.387 . S
H447 C443 0.950 . S
H448 C445 0.950 . S
C449 C440 1.390 . S
C449 H442 0.950 . S
C449 C446 1.387 . S
C450 C451 1.387 . S
C450 H454 0.950 . S
C450 C459 1.390 . S
C451 C450 1.387 . S
C451 C453 1.387 . S
H452 C459 0.950 . S
C453 C451 1.387 . S
C453 C455 1.390 . S
C453 H457 0.950 . S
H454 C450 0.950 . S
C455 C453 1.390 . S
C455 C456 1.387 . S
C455 H458 0.950 . S
C456 C455 1.387 . S
C456 C459 1.387 . S
H457 C453 0.950 . S
H458 C455 0.950 . S
C459 C450 1.390 . S
C459 H452 0.950 . S
C459 C456 1.387 . S
C460 C461 1.387 . S
C460 H464 0.950 . S
C460 C469 1.390 . S
C461 C460 1.387 . S
C461 C463 1.387 . S
H462 C469 0.950 . S
C463 C461 1.387 . S
C463 C465 1.390 . S
C463 H467 0.950 . S
H464 C460 0.950 . S
C465 C463 1.390 . S
C465 C466 1.387 . S
C465 H468 0.950 . S
C466 C465 1.387 . S
C466 C469 1.387 . S
H467 C463 0.950 . S
H468 C465 0.950 . S
C469 C460 1.390 . S
C469 H462 0.950 . S
C469 C466 1.387 . S
C470 C471 1.387 . S
C470 H474 0.950 . S
C470 C479 1.390 . S
C471 C470 1.387 . S
C471 C473 1.387 . S
H472 C479 0.950 . S
C473 C471 1.387 . S
C473 C475 1.390 . S
C473 H477 0.950 . S
H474 C470 0.950 . S
C475 C473 1.390 . S
C475 C476 1.387 . S
C475 H478 0.950 . S
C476 C475 1.387 . S
C476 C479 1.387 . S
H477 C473 0.950 . S
H478 C475 0.950 . S
C479 C470 1.390 . S
C479 H472 0.950 . S
C479 C476 1.387 . S
C480 C481 1.387 . S
C480 H484 0.950 . S
C480 C489 1.390 . S
C481 C480 1.387 . S
C481 C483 1.389 . S
H482 C489 0.950 . S
C483 C481 1.389 . S
C483 C485 1.399 . S
C483 H487 0.940 1_455 S
H484 C480 0.950 . S
C485 C483 1.399 . S
C485 C486 1.387 . S
C485 H488 0.950 . S
C486 C485 1.387 . S
C486 C489 1.387 . S
H487 C483 0.940 1_655 S
H488 C485 0.950 . S
C489 C480 1.390 . S
C489 H482 0.950 . S
C489 C486 1.387 . S
C490 C491 1.387 1_455 S
C490 H494 0.950 . S
C490 C499 1.390 . S
C491 C490 1.387 1_655 S
C491 C493 1.387 1_655 S
H492 C499 0.950 . S
C493 C491 1.387 1_455 S
C493 C495 1.390 . S
C493 H497 0.950 . S
H494 C490 0.950 . S
C495 C493 1.390 . S
C495 C496 1.387 . S
C495 H498 0.950 . S
C496 C495 1.387 . S
C496 C499 1.387 . S
H497 C493 0.950 . S
H498 C495 0.950 . S
C499 C490 1.390 . S
C499 H492 0.950 . S
C499 C496 1.387 . S
C500 C501 1.387 . S
C500 H504 0.950 . S
C500 C509 1.390 . S
C501 C500 1.387 . S
C501 C503 1.387 . S
H502 C509 0.950 . S
C503 C501 1.387 . S
C503 C505 1.390 . S
C503 H507 0.950 . S
H504 C500 0.950 . S
C505 C503 1.390 . S
C505 C506 1.387 . S
C505 H508 0.950 . S
C506 C505 1.387 . S
C506 C509 1.387 . S
H507 C503 0.950 . S
H508 C505 0.950 . S
C509 C500 1.390 . S
C509 H502 0.950 . S
C509 C506 1.387 . S
C510 C511 1.387 . S
C510 H514 0.950 . S
C510 C519 1.390 . S
C511 C510 1.387 . S
C511 C513 1.387 . S
H512 C519 0.950 . S
C513 C511 1.387 . S
C513 C515 1.390 . S
C513 H517 0.950 1_556 S
H514 C510 0.950 . S
C515 C513 1.390 . S
C515 C516 1.387 . S
C515 H518 0.950 1_556 S
C516 C515 1.387 . S
C516 C519 1.387 . S
H517 C513 0.950 1_554 S
H518 C515 0.950 1_554 S
C519 C510 1.390 . S
C519 H512 0.950 . S
C519 C516 1.387 . S
C520 C521 1.387 . S
C520 H524 0.950 . S
C520 C529 1.390 . S
C521 C520 1.387 . S
C521 C523 1.387 . S
H522 C529 0.950 . S
C523 C521 1.387 . S
C523 C525 1.390 . S
C523 H527 0.950 . S
H524 C520 0.950 . S
C525 C523 1.390 . S
C525 C526 1.387 . S
C525 H528 0.950 . S
C526 C525 1.387 . S
C526 C529 1.387 . S
H527 C523 0.950 . S
H528 C525 0.950 . S
C529 C520 1.390 . S
C529 H522 0.950 . S
C529 C526 1.387 . S
C530 C531 1.387 . S
C530 H534 0.950 . S
C530 C539 1.390 . S
C531 C530 1.387 . S
C531 C533 1.387 . S
H532 C539 0.950 . S
C533 C531 1.387 . S
C533 C535 1.390 . S
C533 H537 0.950 1_554 S
H534 C530 0.950 . S
C535 C533 1.390 . S
C535 C536 1.387 . S
C535 H538 0.950 1_554 S
C536 C535 1.387 . S
C536 C539 1.387 . S
H537 C533 0.950 1_556 S
H538 C535 0.950 1_556 S
C539 C530 1.390 . S
C539 H532 0.950 . S
C539 C536 1.387 . S
C540 C541 1.387 . S
C540 H544 0.950 . S
C540 C549 1.390 . S
C541 C540 1.387 . S
C541 C543 1.387 . S
H542 C549 0.950 . S
C543 C541 1.387 . S
C543 C545 1.390 . S
C543 H547 0.950 . S
H544 C540 0.950 . S
C545 C543 1.390 . S
C545 C546 1.387 . S
C545 H548 0.950 . S
C546 C545 1.387 . S
C546 C549 1.387 . S
H547 C543 0.950 . S
H548 C545 0.950 . S
C549 C540 1.390 . S
C549 H542 0.950 . S
C549 C546 1.387 . S
C550 C551 1.387 . S
C550 H554 0.950 . S
C550 C559 1.390 . S
C551 C550 1.387 . S
C551 C553 1.387 . S
H552 C559 0.960 . S
C553 C551 1.387 . S
C553 C555 1.390 . S
C553 H557 0.950 . S
H554 C550 0.950 . S
C555 C553 1.390 . S
C555 C556 1.387 1_455 S
C555 H558 0.950 . S
C556 C555 1.387 1_655 S
C556 C559 1.387 1_655 S
H557 C553 0.950 . S
H558 C555 0.950 . S
C559 C550 1.390 . S
C559 H552 0.960 . S
C559 C556 1.387 1_455 S
C560 C561 1.387 . S
C560 H564 0.950 1_455 S
C560 C569 1.390 1_544 S
C561 C560 1.387 . S
C561 C563 1.387 . S
H562 C569 0.950 1_655 S
C563 C561 1.387 . S
C563 C565 1.390 1_544 S
C563 H567 0.950 . S
H564 C560 0.950 1_655 S
C565 C563 1.390 1_566 S
C565 C566 1.387 . S
C565 H568 0.950 . S
C566 C565 1.387 . S
C566 C569 1.387 . S
H567 C563 0.950 . S
H568 C565 0.950 . S
C569 C560 1.390 1_566 S
C569 H562 0.950 1_455 S
C569 C566 1.387 . S
C570 C571 1.387 . S
C570 H574 0.950 . S
C570 C579 1.390 . S
C571 C570 1.387 . S
C571 C573 1.387 . S
H572 C579 0.950 . S
C573 C571 1.387 . S
C573 C575 1.390 . S
C573 H577 0.950 . S
H574 C570 0.950 . S
C575 C573 1.390 . S
C575 C576 1.387 . S
C575 H578 0.950 . S
C576 C575 1.387 . S
C576 C579 1.387 . S
H577 C573 0.950 . S
H578 C575 0.950 . S
C579 C570 1.390 . S
C579 H572 0.950 . S
C579 C576 1.387 . S
C580 C581 1.387 . S
C580 H584 0.950 . S
C580 C589 1.390 1_545 S
C581 C580 1.387 . S
C581 C583 1.387 . S
H582 C589 0.950 . S
C583 C581 1.387 . S
C583 C585 1.390 1_545 S
C583 H587 0.950 . S
H584 C580 0.950 . S
C585 C583 1.390 1_565 S
C585 C586 1.387 . S
C585 H588 0.950 . S
C586 C585 1.387 . S
C586 C589 1.387 . S
H587 C583 0.950 . S
H588 C585 0.950 . S
C589 C580 1.390 1_565 S
C589 H582 0.950 . S
C589 C586 1.387 . S
C590 C591 1.387 . S
C590 H594 0.950 . S
C590 C599 1.390 . S
C591 C590 1.387 . S
C591 C593 1.387 . S
H592 C599 0.950 . S
C593 C591 1.387 . S
C593 C595 1.390 . S
C593 H597 0.950 . S
H594 C590 0.950 . S
C595 C593 1.390 . S
C595 C596 1.387 . S
C595 H598 0.950 . S
C596 C595 1.387 . S
C596 C599 1.387 . S
H597 C593 0.950 . S
H598 C595 0.950 . S
C599 C590 1.390 . S
C599 H592 0.950 . S
C599 C596 1.387 . S
C600 C601 1.387 . S
C600 H604 0.950 . S
C600 C609 1.390 . S
C601 C600 1.387 . S
C601 C603 1.387 . S
H602 C609 0.950 . S
C603 C601 1.387 . S
C603 C605 1.390 . S
C603 H607 0.950 . S
H604 C600 0.950 . S
C605 C603 1.390 . S
C605 C606 1.387 . S
C605 H608 0.950 . S
C606 C605 1.387 . S
C606 C609 1.387 . S
H607 C603 0.950 . S
H608 C605 0.950 . S
C609 C600 1.390 . S
C609 H602 0.950 . S
C609 C606 1.387 . S
C610 C611 1.387 . S
C610 H614 0.950 . S
C610 C619 1.390 . S
C611 C610 1.387 . S
C611 C613 1.387 . S
H612 C619 0.950 . S
C613 C611 1.387 . S
C613 C615 1.390 . S
C613 H617 0.950 . S
H614 C610 0.950 . S
C615 C613 1.390 . S
C615 C616 1.387 . S
C615 H618 0.950 . S
C616 C615 1.387 . S
C616 C619 1.387 . S
H617 C613 0.950 . S
H618 C615 0.950 . S
C619 C610 1.390 . S
C619 H612 0.950 . S
C619 C616 1.387 . S
C620 C621 1.387 . S
C620 H624 0.950 . S
C620 C629 1.390 . S
C621 C620 1.387 . S
C621 C623 1.387 . S
H622 C629 0.950 . S
C623 C621 1.387 . S
C623 C625 1.390 . S
C623 H627 0.950 . S
H624 C620 0.950 . S
C625 C623 1.390 . S
C625 C626 1.387 . S
C625 H628 0.950 . S
C626 C625 1.387 . S
C626 C629 1.387 . S
H627 C623 0.950 . S
H628 C625 0.950 . S
C629 C620 1.390 . S
C629 H622 0.950 . S
C629 C626 1.387 . S
C630 C631 1.387 . S
C630 H634 0.950 . S
C630 C639 1.390 1_556 S
C631 C630 1.387 . S
C631 C633 1.387 1_655 S
H632 C639 0.950 . S
C633 C631 1.387 1_455 S
C633 C635 1.390 1_556 S
C633 H637 0.950 . S
H634 C630 0.950 . S
C635 C633 1.390 1_554 S
C635 C636 1.387 1_455 S
C635 H638 0.950 . S
C636 C635 1.387 1_655 S
C636 C639 1.387 . S
H637 C633 0.950 . S
H638 C635 0.950 . S
C639 C630 1.390 1_554 S
C639 H632 0.950 . S
C639 C636 1.387 . S
C640 C641 1.387 . S
C640 H644 0.950 . S
C640 C649 1.390 . S
C641 C640 1.387 . S
C641 C643 1.387 . S
H642 C649 0.950 . S
C643 C641 1.387 . S
C643 C645 1.390 . S
C643 H647 0.950 . S
H644 C640 0.950 . S
C645 C643 1.390 . S
C645 C646 1.387 . S
C645 H648 0.950 . S
C646 C645 1.387 . S
C646 C649 1.387 . S
H647 C643 0.950 . S
H648 C645 0.950 . S
C649 C640 1.390 . S
C649 H642 0.950 . S
C649 C646 1.387 . S
C650 C651 1.387 . S
C650 H654 0.950 . S
C650 C659 1.390 . S
C651 C650 1.387 . S
C651 C653 1.387 . S
H652 C659 0.950 . S
C653 C651 1.387 . S
C653 C655 1.390 . S
C653 H657 0.950 . S
H654 C650 0.950 . S
C655 C653 1.390 . S
C655 C656 1.387 . S
C655 H658 0.950 . S
C656 C655 1.387 . S
C656 C659 1.387 . S
H657 C653 0.950 . S
H658 C655 0.950 . S
C659 C650 1.390 . S
C659 H652 0.950 . S
C659 C656 1.387 . S
C660 C661 1.387 . S
C660 H664 0.950 . S
C660 C669 1.390 . S
C661 C660 1.387 . S
C661 C663 1.387 . S
H662 C669 0.950 . S
C663 C661 1.387 . S
C663 C665 1.390 . S
C663 H667 0.950 . S
H664 C660 0.950 . S
C665 C663 1.390 . S
C665 C666 1.387 . S
C665 H668 0.950 . S
C666 C665 1.387 . S
C666 C669 1.387 . S
H667 C663 0.950 . S
H668 C665 0.950 . S
C669 C660 1.390 . S
C669 H662 0.950 . S
C669 C666 1.387 . S
C670 C671 1.387 . S
C670 H674 0.950 . S
C670 C679 1.390 . S
C671 C670 1.387 . S
C671 C673 1.387 . S
H672 C679 0.950 . S
C673 C671 1.387 . S
C673 C675 1.390 . S
C673 H677 0.950 . S
H674 C670 0.950 . S
C675 C673 1.390 . S
C675 C676 1.387 . S
C675 H678 0.950 . S
C676 C675 1.387 . S
C676 C679 1.387 . S
H677 C673 0.950 . S
H678 C675 0.950 . S
C679 C670 1.390 . S
C679 H672 0.950 . S
C679 C676 1.387 . S
C680 C681 1.387 . S
C680 H684 0.950 . S
C680 C689 1.390 . S
C681 C680 1.387 . S
C681 C683 1.387 . S
H682 C689 0.950 . S
C683 C681 1.387 . S
C683 C685 1.390 . S
C683 H687 0.950 . S
H684 C680 0.950 . S
C685 C683 1.390 . S
C685 C686 1.387 . S
C685 H688 0.950 . S
C686 C685 1.387 . S
C686 C689 1.387 . S
H687 C683 0.950 . S
H688 C685 0.950 . S
C689 C680 1.390 . S
C689 H682 0.950 . S
C689 C686 1.387 . S
C690 C691 1.387 . S
C690 H694 0.950 . S
C690 C699 1.390 . S
C691 C690 1.387 . S
C691 C693 1.387 . S
H692 C699 0.950 . S
C693 C691 1.387 . S
C693 C695 1.390 . S
C693 H697 0.950 . S
H694 C690 0.950 . S
C695 C693 1.390 . S
C695 C696 1.387 . S
C695 H698 0.950 1_655 S
C696 C695 1.387 . S
C696 C699 1.387 . S
H697 C693 0.950 . S
H698 C695 0.950 1_455 S
C699 C690 1.390 . S
C699 H692 0.950 . S
C699 C696 1.387 . S
C700 C701 1.387 . S
C700 H704 0.950 . S
C700 C709 1.390 . S
C701 C700 1.387 . S
C701 C703 1.387 . S
H702 C709 0.950 . S
C703 C701 1.387 . S
C703 C705 1.390 . S
C703 H707 0.950 . S
H704 C700 0.950 . S
C705 C703 1.390 . S
C705 C706 1.387 . S
C705 H708 0.950 . S
C706 C705 1.387 . S
C706 C709 1.387 . S
H707 C703 0.950 . S
H708 C705 0.950 . S
C709 C700 1.390 . S
C709 H702 0.950 . S
C709 C706 1.387 . S
C710 C711 1.387 . S
C710 H714 0.950 . S
C710 C719 1.390 . S
C711 C710 1.387 . S
C711 C713 1.387 . S
H712 C719 0.950 . S
C713 C711 1.387 . S
C713 C715 1.390 . S
C713 H717 0.950 . S
H714 C710 0.950 . S
C715 C713 1.390 . S
C715 C716 1.387 . S
C715 H718 0.950 . S
C716 C715 1.387 . S
C716 C719 1.387 . S
H717 C713 0.950 . S
H718 C715 0.950 . S
C719 C710 1.390 . S
C719 H712 0.950 . S
C719 C716 1.387 . S
C720 C721 1.387 . S
C720 H724 0.950 . S
C720 C729 1.390 . S
C721 C720 1.387 . S
C721 C723 1.387 . S
H722 C729 0.950 . S
C723 C721 1.387 . S
C723 C725 1.390 . S
C723 H727 0.950 . S
H724 C720 0.950 . S
C725 C723 1.390 . S
C725 C726 1.387 . S
C725 H728 0.950 . S
C726 C725 1.387 . S
C726 C729 1.387 . S
H727 C723 0.950 . S
H728 C725 0.950 . S
C729 C720 1.390 . S
C729 H722 0.950 . S
C729 C726 1.387 . S
C730 C731 1.387 . S
C730 H734 0.950 . S
C730 C739 1.390 . S
C731 C730 1.387 . S
C731 C733 1.387 . S
H732 C739 0.950 . S
C733 C731 1.387 . S
C733 C735 1.390 . S
C733 H737 0.950 . S
H734 C730 0.950 . S
C735 C733 1.390 . S
C735 C736 1.387 . S
C735 H738 0.950 . S
C736 C735 1.387 . S
C736 C739 1.387 . S
H737 C733 0.950 . S
H738 C735 0.950 . S
C739 C730 1.390 . S
C739 H732 0.950 . S
C739 C736 1.387 . S
C740 C741 1.387 . S
C740 H744 0.950 . S
C740 C749 1.390 . S
C741 C740 1.387 . S
C741 C743 1.387 . S
H742 C749 0.950 . S
C743 C741 1.387 . S
C743 C745 1.390 . S
C743 H747 0.950 . S
H744 C740 0.950 . S
C745 C743 1.390 . S
C745 C746 1.387 . S
C745 H748 0.950 . S
C746 C745 1.387 . S
C746 C749 1.387 . S
H747 C743 0.950 . S
H748 C745 0.950 . S
C749 C740 1.390 . S
C749 H742 0.950 . S
C749 C746 1.387 . S
C750 C751 1.387 . S
C750 H754 0.950 . S
C750 C759 1.390 . S
C751 C750 1.387 . S
C751 C753 1.387 . S
H752 C759 0.950 . S
C753 C751 1.387 . S
C753 C755 1.390 . S
C753 H757 0.950 . S
H754 C750 0.950 . S
C755 C753 1.390 . S
C755 C756 1.387 . S
C755 H758 0.950 . S
C756 C755 1.387 . S
C756 C759 1.387 . S
H757 C753 0.950 . S
H758 C755 0.950 . S
C759 C750 1.390 . S
C759 H752 0.950 . S
C759 C756 1.387 . S
C760 C761 1.387 . S
C760 H764 0.950 . S
C760 C769 1.390 . S
C761 C760 1.387 . S
C761 C763 1.387 . S
H762 C769 0.950 . S
C763 C761 1.387 . S
C763 C765 1.390 . S
C763 H767 0.950 . S
H764 C760 0.950 . S
C765 C763 1.390 . S
C765 C766 1.387 . S
C765 H768 0.950 . S
C766 C765 1.387 . S
C766 C769 1.387 . S
H767 C763 0.950 . S
H768 C765 0.950 . S
C769 C760 1.390 . S
C769 H762 0.950 . S
C769 C766 1.387 . S
C770 C771 1.387 . S
C770 H774 0.950 . S
C770 C779 1.390 . S
C771 C770 1.387 . S
C771 C773 1.387 . S
H772 C779 0.950 . S
C773 C771 1.387 . S
C773 C775 1.390 . S
C773 H777 0.950 . S
H774 C770 0.950 . S
C775 C773 1.390 . S
C775 C776 1.387 . S
C775 H778 0.950 . S
C776 C775 1.387 . S
C776 C779 1.387 . S
H777 C773 0.950 . S
H778 C775 0.950 . S
C779 C770 1.390 . S
C779 H772 0.950 . S
C779 C776 1.387 . S
C780 C781 1.387 . S
C780 H784 0.950 . S
C780 C789 1.390 . S
C781 C780 1.387 . S
C781 C783 1.387 . S
H782 C789 0.950 . S
C783 C781 1.387 . S
C783 C785 1.390 . S
C783 H787 0.950 . S
H784 C780 0.950 . S
C785 C783 1.390 . S
C785 C786 1.387 . S
C785 H788 0.950 . S
C786 C785 1.387 . S
C786 C789 1.387 . S
H787 C783 0.950 . S
H788 C785 0.950 . S
C789 C780 1.390 . S
C789 H782 0.950 . S
C789 C786 1.387 . S
C790 C791 1.387 . S
C790 H794 0.950 . S
C790 C799 1.390 . S
C791 C790 1.387 . S
C791 C793 1.387 . S
H792 C799 0.950 . S
C793 C791 1.387 . S
C793 C795 1.390 . S
C793 H797 0.950 . S
H794 C790 0.950 . S
C795 C793 1.390 . S
C795 C796 1.387 . S
C795 H798 0.950 . S
C796 C795 1.387 . S
C796 C799 1.387 . S
H797 C793 0.950 . S
H798 C795 0.950 . S
C799 C790 1.390 . S
C799 H792 0.950 . S
C799 C796 1.387 . S
C321 C6 0.957 . S
C326 C146 0.960 . S
C331 C26 0.961 . S
C336 C86 0.958 . S
C341 C108 1.252 . S
C346 C46 1.326 . S
C351 C68 1.248 . S
C356 C126 1.323 . S
C361 C236 1.683 . S
C366 C99 1.617 1_654 S
C371 C176 1.684 . S
C376 C19 1.617 1_656 S
C381 C219 1.944 . S
C386 C139 1.955 . S
C391 C59 1.953 . S
C396 C199 1.942 . S
C401 C186 0.959 . S
C406 C246 0.956 . S
C411 C206 0.958 . S
C416 C286 0.954 . S
C421 C266 1.324 . S
C426 C168 1.248 . S
C431 C228 1.249 . S
C436 C306 1.323 . S
C441 C299 1.614 . S
C446 C76 1.681 . S
C451 C259 1.618 . S
C456 C116 1.684 . S
C461 C39 1.945 . S
C466 C319 1.956 1_554 S
C471 C159 1.944 . S
C476 C279 1.955 1_556 S
C481 C269 0.438 . S
C486 C9 0.816 . S
C491 C221 0.635 . S
C496 C29 0.477 . S
C501 C249 0.813 . S
C506 C49 0.437 . S
C511 C209 0.468 . S
C516 C61 0.626 . S
C521 C89 0.814 . S
C526 C309 0.437 . S
C531 C189 0.469 . S
C536 C101 0.626 . S
C541 C129 0.434 . S
C546 C289 0.811 . S
C551 C149 0.469 . S
C556 C161 0.626 . S
C561 C1 1.623 . S
C566 C81 1.623 . S
C571 C21 1.595 . S
C576 C109 1.605 . S
C581 C121 1.574 . S
C586 C41 1.574 . S
C591 C69 1.603 . S
C596 C141 1.593 . S
C601 C201 1.593 . S
C606 C169 1.603 . S
C611 C229 1.605 . S
C616 C181 1.595 . S
C621 C241 1.623 . S
C626 C281 1.623 . S
C631 C301 1.572 . S
C636 C261 1.572 . S
C641 C8 2.124 . S
C646 C148 2.121 . S
C651 C28 2.122 . S
C656 C88 2.126 . S
C661 C106 2.054 . S
C666 C48 2.059 . S
C671 C128 2.058 . S
C676 C66 2.053 . S
C681 C239 1.340 . S
C686 C96 1.337 . S
C691 C179 1.339 . S
C696 C16 1.336 . S
C701 C216 1.310 . S
C706 C136 1.309 . S
C711 C56 1.310 . S
C716 C196 1.310 . S
C721 C248 2.124 . S
C726 C188 2.121 1_556 S
C731 C288 2.124 . S
C736 C208 2.121 1_554 S
C741 C268 2.059 . S
C746 C166 2.054 . S
C751 C308 2.060 . S
C756 C226 2.055 . S
C761 C296 1.337 . S
C766 C79 1.340 1_554 S
C771 C119 1.343 1_556 S
C776 C256 1.340 . S
C781 C36 1.309 . S
C786 C316 1.308 . S
C791 C276 1.310 . S
C796 C156 1.310 . S
