# Generated by pormake.
# Topology bto, (3)-cn, num edge types: 1
# Building blocks:
#     Node 0, Type 0, BuildingBlock: WUSLED_clean_sbu_0, # of connection points: 3
#     Node 1, Type 0, BuildingBlock: WUSLED_clean_sbu_0, # of connection points: 3
#     Node 2, Type 0, BuildingBlock: WUSLED_clean_sbu_0, # of connection points: 3
#     Node 3, Type 0, BuildingBlock: WUSLED_clean_sbu_0, # of connection points: 3
#     Node 4, Type 0, BuildingBlock: WUSLED_clean_sbu_0, # of connection points: 3
#     Node 5, Type 0, BuildingBlock: WUSLED_clean_sbu_0, # of connection points: 3
#     Edge 6, Type (0, 0), BuildingBlock: KIFKEQ_clean_linker_1, # of connection points: 2
#     Edge 7, Type (0, 0), BuildingBlock: KIFKEQ_clean_linker_1, # of connection points: 2
#     Edge 8, Type (0, 0), BuildingBlock: KIFKEQ_clean_linker_1, # of connection points: 2
#     Edge 9, Type (0, 0), BuildingBlock: KIFKEQ_clean_linker_1, # of connection points: 2
#     Edge 10, Type (0, 0), BuildingBlock: KIFKEQ_clean_linker_1, # of connection points: 2
#     Edge 11, Type (0, 0), BuildingBlock: KIFKEQ_clean_linker_1, # of connection points: 2
#     Edge 12, Type (0, 0), BuildingBlock: KIFKEQ_clean_linker_1, # of connection points: 2
#     Edge 13, Type (0, 0), BuildingBlock: KIFKEQ_clean_linker_1, # of connection points: 2
#     Edge 14, Type (0, 0), BuildingBlock: KIFKEQ_clean_linker_1, # of connection points: 2
# Relax obj value: 0.000
# Max RMSD: 0.003
# Mean RMSD: 0.003
data_MOF--net-bto--node1-WUSLED_clean_sbu_0--edge1-KIFKEQ_clean_linker_1
_symmetry_space_group_name_H-M    P1
_symmetry_Int_Tables_number       1
_symmetry_cell_setting            triclinic
loop_
_symmetry_equiv_pos_as_xyz
'x, y, z'
_cell_length_a     40.320483
_cell_length_b     40.349157
_cell_length_c     101.75872
_cell_angle_alpha  88.861361
_cell_angle_beta   90.589138
_cell_angle_gamma 119.97611
loop_
_atom_site_label
_atom_site_type_symbol
_atom_site_fract_x
_atom_site_fract_y
_atom_site_fract_z
_atom_type_partial_charge
C0 C 0.99788 0.53653 0.05133 0.0
C1 C 0.9687 0.53035 0.06014 0.0
C2 C 0.93109 0.53579 0.04213 0.0
C3 C 0.93559 0.52993 0.05558 0.0
C4 C 0.96062 0.5421 0.03339 0.0
C5 C 0.99364 0.54244 0.03796 0.0
U6 U 0.06315 0.53767 0.07899 0.0
O7 O 0.09551 0.50727 0.08107 0.0
O8 O 0.12606 0.57005 0.0806 0.0
C9 C 0.1289 0.53898 0.08068 0.0
C10 C 1.03291 0.53713 0.05595 0.0
C11 C 0.15741 0.53941 0.07164 0.0
C12 C 0.17563 0.52768 0.05025 0.0
C13 C 0.14819 0.52791 0.05855 0.0
C14 C 0.22186 0.55101 0.068 0.0
C15 C 0.2128 0.53906 0.0549 0.0
C16 C 0.19442 0.55112 0.07627 0.0
C17 C 1.03267 0.53716 0.11474 0.0
C18 C 0.07247 0.54503 0.13387 0.0
C19 C 1.00691 0.53037 0.13672 0.0
C20 C 1.00231 0.52995 0.12309 0.0
C21 C 0.04209 0.53809 0.14231 0.0
C22 C 0.06779 0.54457 0.12019 0.0
C23 C 1.02699 0.53702 0.10043 0.0
O24 O 0.05811 0.56869 0.06175 0.0
O25 O 1.02769 0.50595 0.06212 0.0
O26 O 1.02045 0.50577 0.09443 0.0
O27 O 0.05093 0.56854 0.09402 0.0
H28 H 0.97151 0.52576 0.07052 0.0
H29 H 0.91331 0.52453 0.06258 0.0
H30 H 0.95851 0.54733 1.02302 0.0
H31 H 1.01598 0.54746 0.03103 0.0
H32 H 0.16749 0.51795 0.04028 0.0
H33 H 0.11973 0.5188 0.05478 0.0
H34 H 0.2503 0.56062 0.07186 0.0
H35 H 0.20211 0.56029 0.08632 0.0
H36 H 0.10003 0.55137 0.13783 0.0
H37 H 0.98269 0.52419 0.14289 0.0
H38 H 0.97493 0.52398 0.11905 0.0
H39 H 0.09158 0.55019 0.11387 0.0
C40 C 0.63102 0.10992 0.38523 0.0
C41 C 0.65021 0.14178 0.39336 0.0
C42 C 0.69765 0.17622 0.37619 0.0
C43 C 0.68315 0.1747 0.38886 0.0
C44 C 0.67837 0.14405 0.36815 0.0
C45 C 0.64537 0.11127 0.37262 0.0
U46 U 0.56463 0.04432 0.4125 0.0
O47 O 0.5018 1.0123 0.41368 0.0
O48 O 0.5337 0.98134 0.4142 0.0
C49 C 0.49994 0.97882 0.41354 0.0
C50 C 0.59619 0.07507 0.38971 0.0
C51 C 0.47237 0.9506 0.40425 0.0
C52 C 0.43542 0.93448 0.38396 0.0
C53 C 0.46293 0.96188 0.39229 0.0
C54 C 0.42713 0.88418 0.39927 0.0
C55 C 0.41707 0.89529 0.38738 0.0
C56 C 0.45442 0.91157 0.40762 0.0
C57 C 0.59164 0.07288 0.44849 0.0
C58 C 0.55348 0.03456 0.46711 0.0
C59 C 0.61222 0.09427 0.47078 0.0
C60 C 0.61799 0.09982 0.4572 0.0
C61 C 0.57989 0.06158 0.47592 0.0
C62 C 0.55929 0.04019 0.4535 0.0
C63 C 0.5986 0.07943 0.43426 0.0
O64 O 0.60192 0.04957 0.39597 0.0
O65 O 0.56994 0.08039 0.39526 0.0
O66 O 0.57458 0.0865 0.42765 0.0
O67 O 0.60647 0.05559 0.42829 0.0
H68 H 0.63974 0.14118 0.40317 0.0
H69 H 0.69755 0.19878 0.39536 0.0
H70 H 0.68848 0.14439 0.3583 0.0
H71 H 0.63094 0.08695 0.36621 0.0
H72 H 0.4287 0.94396 0.3748 0.0
H73 H 0.47659 0.99183 0.38943 0.0
H74 H 0.4133 0.85432 0.40227 0.0
H75 H 0.46122 0.90226 0.4168 0.0
H76 H 0.5281 1.00927 0.47072 0.0
H77 H 0.63344 0.11535 0.47725 0.0
H78 H 0.6432 0.12515 0.4535 0.0
H79 H 0.53859 1.01911 0.44689 0.0
C80 C 0.55771 0.60134 0.71831 0.0
C81 C 0.55167 0.62415 0.72711 0.0
C82 C 0.55673 0.66745 0.70913 0.0
C83 C 0.55114 0.65689 0.72256 0.0
C84 C 0.56287 0.6444 0.7004 0.0
C85 C 0.56333 0.61168 0.70496 0.0
U86 U 0.55861 0.53596 0.74586 0.0
O87 O 0.52899 0.47318 0.74742 0.0
O88 O 0.59179 0.50617 0.74764 0.0
C89 C 0.56103 0.47208 0.74733 0.0
C90 C 0.55857 0.56693 0.7229 0.0
C91 C 0.56235 0.44473 0.73826 0.0
C92 C 0.54968 0.41413 0.717 0.0
C93 C 0.54926 0.44133 0.72525 0.0
C94 C 0.57691 0.39401 0.7346 0.0
C95 C 0.5633 0.38992 0.7216 0.0
C96 C 0.57638 0.42108 0.74283 0.0
C97 C 0.55635 0.56241 0.78175 0.0
C98 C 0.56723 0.53091 0.80056 0.0
C99 C 0.54656 0.5771 0.80392 0.0
C100 C 0.54615 0.58257 0.79032 0.0
C101 C 0.55728 0.55133 0.80923 0.0
C102 C 0.56667 0.53633 0.78693 0.0
C103 C 0.55649 0.5694 0.76749 0.0
O104 O 0.59002 0.57332 0.72903 0.0
O105 O 0.52727 0.54043 0.72872 0.0
O106 O 0.52562 0.54493 0.76111 0.0
O107 O 0.58838 0.57814 0.76131 0.0
H108 H 0.5473 0.61658 0.73747 0.0
H109 H 0.54589 0.67364 0.72954 0.0
H110 H 0.5679 0.65191 0.69005 0.0
H111 H 0.56824 0.59451 0.69804 0.0
H112 H 0.53865 0.41159 0.7071 0.0
H113 H 0.53836 0.45939 0.72153 0.0
H114 H 0.58827 0.37644 0.73842 0.0
H115 H 0.58679 0.42343 0.75282 0.0
H116 H 0.57518 0.51052 0.80431 0.0
H117 H 0.53922 0.59367 0.81029 0.0
H118 H 0.53816 0.60286 0.78649 0.0
H119 H 0.57446 0.52033 0.78045 0.0
C120 C 0.55959 0.97355 0.66574 0.0
C121 C 0.54469 0.94101 0.65786 0.0
C122 C 0.55899 0.9067 0.67495 0.0
C123 C 0.54425 0.90782 0.66245 0.0
C124 C 0.57415 0.93955 0.68274 0.0
C125 C 0.57437 0.9726 0.67817 0.0
U126 U 0.55925 0.03959 0.63827 0.0
O127 O 0.52925 0.07247 0.6369 0.0
O128 O 0.59203 0.10247 0.63646 0.0
C129 C 0.56118 0.10567 0.63688 0.0
C130 C 0.56012 1.00872 0.66116 0.0
C131 C 0.56256 0.13418 0.64602 0.0
C132 C 0.55563 0.15322 0.66789 0.0
C133 C 0.55495 0.1258 0.65948 0.0
C134 C 0.57201 0.19774 0.64951 0.0
C135 C 0.56413 0.18955 0.663 0.0
C136 C 0.5712 0.17031 0.64112 0.0
C137 C 0.55631 1.01086 0.60234 0.0
C138 C 0.56684 0.05319 0.58355 0.0
C139 C 0.54663 0.98648 0.58016 0.0
C140 C 0.54628 0.98057 0.59376 0.0
C141 C 0.55712 1.0229 0.57487 0.0
C142 C 0.56635 0.0472 0.59718 0.0
C143 C 0.55678 1.00407 0.6166 0.0
O144 O 0.59136 0.03386 0.65497 0.0
O145 O 0.52859 1.00393 0.6555 0.0
O146 O 0.52601 0.99757 0.62307 0.0
O147 O 0.58878 0.0273 0.62271 0.0
H148 H 0.53343 0.94126 0.64817 0.0
H149 H 0.53282 0.88321 0.65614 0.0
H150 H 0.58534 0.93955 0.69246 0.0
H151 H 0.58601 0.99745 0.68439 0.0
H152 H 0.54986 0.14612 0.67825 0.0
H153 H 0.54837 0.09806 0.66345 0.0
H154 H 0.57815 0.22516 0.64537 0.0
H155 H 0.57705 0.17724 0.63076 0.0
H156 H 0.57461 0.08148 0.57982 0.0
H157 H 0.53947 0.96264 0.57378 0.0
H158 H 0.53852 0.95235 0.59757 0.0
H159 H 0.57402 0.07092 0.60368 0.0
C160 C 0.62772 0.53721 0.999 0.0
C161 C 0.64593 0.52283 0.99114 0.0
C162 C 0.69411 0.5371 1.00815 0.0
C163 C 0.67873 0.52263 0.9957 0.0
C164 C 0.67587 0.55177 1.01592 0.0
C165 C 0.64298 0.55174 1.01139 0.0
U166 U 0.56196 0.5366 0.97154 0.0
O167 O 0.49913 0.50591 0.97019 0.0
O168 O 0.53111 0.56868 0.96957 0.0
C169 C 0.4973 0.53754 0.97006 0.0
C170 C 0.593 0.53742 0.99445 0.0
C171 C 0.46947 0.53826 0.97915 0.0
C172 C 0.44103 0.52857 1.00086 0.0
C173 C 0.4685 0.52859 0.99252 0.0
C174 C 0.41565 0.54839 0.98258 0.0
C175 C 0.41408 0.53828 0.99598 0.0
C176 C 0.44302 0.54832 0.97427 0.0
C177 C 0.58972 0.53479 0.93569 0.0
C178 C 0.55185 0.53493 0.91696 0.0
C179 C 0.61089 0.53433 0.91347 0.0
C180 C 0.61637 0.53444 0.92706 0.0
C181 C 0.57857 0.53458 0.90822 0.0
C182 C 0.55737 0.535 0.93058 0.0
C183 C 0.59641 0.53521 0.94994 0.0
O184 O 0.5989 0.56865 0.98815 0.0
O185 O 0.56671 0.50589 0.9889 0.0
O186 O 0.57219 0.50421 0.95653 0.0
O187 O 0.60423 0.56695 0.95587 0.0
H188 H 0.63479 0.51176 0.98149 0.0
H189 H 0.69234 0.51158 0.9894 0.0
H190 H 0.6867 0.56276 0.0256 0.0
H191 H 0.62934 0.56299 1.01759 0.0
H192 H 0.44048 0.52028 1.01108 0.0
H193 H 0.48875 0.52076 0.99647 0.0
H194 H 0.3959 0.5567 0.97851 0.0
H195 H 0.44346 0.55605 0.96399 0.0
H196 H 0.52646 0.53473 0.91327 0.0
H197 H 0.63235 0.53468 0.90706 0.0
H198 H 0.64159 0.53444 0.93084 0.0
H199 H 0.53645 0.53521 0.93712 0.0
C200 C 1.00079 0.48002 0.33266 0.0
C201 C 0.9708 0.45765 0.32402 0.0
C202 C 0.93455 0.41381 0.34202 0.0
C203 C 0.93796 0.42489 0.32866 0.0
C204 C 0.96495 0.43631 0.35059 0.0
C205 C 0.99769 0.46908 0.34594 0.0
U206 U 0.06565 0.54418 0.30493 0.0
O207 O 0.09644 0.60692 0.30267 0.0
O208 O 0.12851 0.57619 0.30346 0.0
C209 C 0.13029 0.60963 0.30316 0.0
C210 C 1.0354 0.51474 0.32799 0.0
C211 C 0.15814 0.63834 0.31218 0.0
C212 C 0.18068 0.66127 0.33423 0.0
C213 C 0.15361 0.63354 0.32586 0.0
C214 C 0.2169 0.69877 0.3153 0.0
C215 C 0.21269 0.69429 0.32904 0.0
C216 C 0.18988 0.67109 0.30697 0.0
C217 C 1.03683 0.51289 0.26922 0.0
C218 C 0.06988 0.55229 0.25006 0.0
C219 C 1.01822 0.48718 0.24729 0.0
C220 C 1.01354 0.48269 0.26092 0.0
C221 C 0.04637 0.52206 0.24167 0.0
C222 C 0.0652 0.54771 0.26374 0.0
C223 C 1.03072 0.50746 0.28352 0.0
O224 O 0.0613 0.50904 0.32238 0.0
O225 O 1.02945 0.53997 0.32162 0.0
O226 O 1.02297 0.53159 0.28934 0.0
O227 O 0.05518 0.50099 0.2901 0.0
H228 H 0.97272 0.46564 0.31371 0.0
H229 H 0.91501 0.40858 0.3218 0.0
H230 H 0.96369 0.42838 0.36087 0.0
H231 H 1.02066 0.4859 0.35274 0.0
H232 H 0.17628 0.65705 0.34475 0.0
H233 H 0.12917 0.60841 0.33005 0.0
H234 H 0.24142 0.72345 0.31094 0.0
H235 H 0.19389 0.67519 0.29643 0.0
H236 H 0.09208 0.57938 0.24608 0.0
H237 H 0.99922 0.46351 0.24115 0.0
H238 H 0.99144 0.45564 0.26499 0.0
H239 H 0.08357 0.57132 0.27002 0.0
H240 H 1.01498 0.56798 0.16045 0.0
H241 H 0.07971 0.5096 0.15722 0.0
H242 H 1.01897 0.56557 0.1843 0.0
H243 H 0.08509 0.50862 0.18112 0.0
H244 H 0.04269 0.47054 0.22372 0.0
H245 H 0.04438 0.47643 0.19984 0.0
H246 H 0.06228 0.59093 0.20268 0.0
H247 H 0.05904 0.58442 0.22658 0.0
C248 C 1.0302 0.55473 0.16482 0.0
C249 C 0.04674 0.53869 0.15688 0.0
C250 C 1.03292 0.5538 0.17852 0.0
C251 C 0.05233 0.53687 0.18467 0.0
C252 C 0.06955 0.5215 0.17673 0.0
C253 C 0.06683 0.52244 0.16301 0.0
C254 C 0.04685 0.49693 0.21926 0.0
C255 C 0.05041 0.52688 0.2271 0.0
C256 C 0.04829 0.5005 0.20554 0.0
C257 C 0.05334 0.53412 0.19929 0.0
C258 C 0.05785 0.56443 0.20714 0.0
C259 C 0.05644 0.56088 0.22087 0.0
H260 H 0.50627 0.97633 0.55628 0.0
H261 H 0.61154 0.08381 0.56056 0.0
H262 H 0.51008 0.98564 0.53247 0.0
H263 H 0.61543 0.09307 0.53676 0.0
H264 H 0.59225 0.11494 0.49446 0.0
H265 H 0.5853 0.10597 0.51824 0.0
H266 H 0.54776 0.98597 0.51403 0.0
H267 H 0.55465 0.99495 0.49024 0.0
C268 C 0.53034 1.00187 0.55214 0.0
C269 C 0.55863 0.02929 0.56035 0.0
C270 C 0.53254 1.00719 0.53848 0.0
C271 C 0.56311 0.04006 0.53266 0.0
C272 C 0.59117 0.06768 0.54089 0.0
C273 C 0.58894 0.06238 0.55455 0.0
C274 C 0.58269 0.08666 0.49861 0.0
C275 C 0.57416 0.0557 0.49042 0.0
C276 C 0.57872 0.08152 0.51225 0.0
C277 C 0.56611 0.04528 0.51809 0.0
C278 C 0.55704 1.01419 0.50988 0.0
C279 C 0.56099 1.01933 0.49622 0.0
H280 H 0.55326 0.57587 0.89386 0.0
H281 H 0.59177 0.49413 0.88969 0.0
H282 H 0.54681 0.57822 0.87005 0.0
H283 H 0.58528 0.49642 0.8659 0.0
H284 H 0.61181 0.54517 0.82363 0.0
H285 H 0.61545 0.53965 0.84744 0.0
H286 H 0.50957 0.54094 0.85154 0.0
H287 H 0.50603 0.54661 0.82773 0.0
C288 C 0.5599 0.55803 0.88788 0.0
C289 C 0.57318 0.53492 0.89371 0.0
C290 C 0.55621 0.55937 0.87422 0.0
C291 C 0.56565 0.5376 0.86602 0.0
C292 C 0.5784 0.51409 0.87187 0.0
C293 C 0.58211 0.51276 0.88553 0.0
C294 C 0.58906 0.54381 0.8296 0.0
C295 C 0.55868 0.54642 0.82375 0.0
C296 C 0.59113 0.54064 0.84326 0.0
C297 C 0.56284 0.53993 0.85144 0.0
C298 C 0.5322 0.54206 0.84557 0.0
C299 C 0.53016 0.54528 0.83191 0.0
H300 H 0.22633 0.55905 0.02872 0.0
H301 H 0.26558 0.51738 0.06132 0.0
H302 H 0.27453 0.55838 1.01461 0.0
H303 H 0.31392 0.51706 0.04724 0.0
H304 H 0.42183 0.56166 1.02156 0.0
H305 H 0.37322 0.56141 0.03572 0.0
H306 H 0.2903 0.51361 1.00438 0.0
H307 H 0.33871 0.51354 0.99027 0.0
C308 C 0.24498 0.54943 0.03286 0.0
C309 C 0.24202 0.53835 0.04619 0.0
C310 C 0.27267 0.54909 1.02476 0.0
C311 C 0.2982 0.53774 0.02978 0.0
C312 C 0.29517 0.52656 0.04309 0.0
C313 C 0.26742 0.52678 0.05118 0.0
C314 C 0.39314 0.55071 1.01773 0.0
C315 C 0.38432 0.53773 1.00474 0.0
C316 C 0.36525 0.55061 0.02585 0.0
C317 C 0.32784 0.53758 1.02118 0.0
C318 C 0.31897 0.52444 1.00822 0.0
C319 C 0.3468 0.52444 1.00012 0.0
H320 H 0.71675 0.25113 0.37899 0.0
H321 H 0.75768 0.18051 0.36239 0.0
H322 H 0.7734 0.30829 0.37069 0.0
H323 H 0.81456 0.23761 0.35424 0.0
H324 H 0.8923 0.34461 0.32996 0.0
H325 H 0.83496 0.288 0.33808 0.0
H326 H 0.84111 0.34679 0.37384 0.0
H327 H 0.89729 0.40399 0.36544 0.0
C328 C 0.73805 0.24782 0.37369 0.0
C329 C 0.73261 0.21121 0.37134 0.0
C330 C 0.77059 0.28063 0.36893 0.0
C331 C 0.79866 0.27769 0.36176 0.0
C332 C 0.79329 0.24103 0.3595 0.0
C333 C 0.76067 0.20823 0.3642 0.0
C334 C 0.88118 0.34566 0.33948 0.0
C335 C 0.89954 0.379 0.34702 0.0
C336 C 0.84852 0.31296 0.34423 0.0
C337 C 0.83335 0.31265 0.35666 0.0
C338 C 0.85166 0.34602 0.36418 0.0
C339 C 0.88426 0.37874 0.35942 0.0
H340 H 0.50108 0.8323 0.67304 0.0
H341 H 0.6158 0.90127 0.68808 0.0
H342 H 0.49994 0.77468 0.68142 0.0
H343 H 0.61494 0.84371 0.69632 0.0
H344 H 0.58691 0.7373 0.72093 0.0
H345 H 0.58644 0.79433 0.71288 0.0
H346 H 0.5269 0.73446 0.67786 0.0
H347 H 0.52574 0.67692 0.6862 0.0
C348 C 0.52622 0.83513 0.67802 0.0
C349 C 0.55851 0.87143 0.67989 0.0
C350 C 0.5256 0.80207 0.68282 0.0
C351 C 0.55733 0.80442 0.68958 0.0
C352 C 0.5897 0.84077 0.69139 0.0
C353 C 0.59025 0.87382 0.68663 0.0
C354 C 0.57327 0.73611 0.71159 0.0
C355 C 0.55637 0.70239 0.70423 0.0
C356 C 0.57344 0.76904 0.70688 0.0
C357 C 0.55675 0.76918 0.69468 0.0
C358 C 0.53968 0.73539 0.68736 0.0
C359 C 0.53945 0.70246 0.69207 0.0
H360 H 0.89078 0.56553 0.05383 0.0
H361 H 0.89152 0.5053 1.0193 0.0
H362 H 0.83332 0.56487 0.04582 0.0
H363 H 0.83519 0.50632 1.01099 0.0
H364 H 0.71134 0.47969 1.00638 0.0
H365 H 0.76789 0.47889 1.01469 0.0
H366 H 0.81247 0.59336 0.02922 0.0
H367 H 0.75568 0.59388 1.02106 0.0
C368 C 0.87868 0.55206 0.04454 0.0
C369 C 0.8959 0.53546 0.03723 0.0
C370 C 0.84595 0.55213 0.03985 0.0
C371 C 0.82956 0.53566 0.02772 0.0
C372 C 0.8467 0.51892 1.02043 0.0
C373 C 0.87938 0.51878 1.02513 0.0
C374 C 0.73336 0.50479 1.01126 0.0
C375 C 0.72893 0.53683 1.01306 0.0
C376 C 0.76584 0.50436 1.01602 0.0
C377 C 0.79486 0.53605 1.02266 0.0
C378 C 0.79046 0.56816 1.02439 0.0
C379 C 0.7579 0.56851 1.01968 0.0
H380 H 0.40726 0.82545 0.38074 0.0
H381 H 0.35901 0.89891 0.37444 0.0
H382 H 0.35768 0.77719 0.36686 0.0
H383 H 0.30912 0.85051 0.36067 0.0
H384 H 0.24956 0.77234 0.3259 0.0
H385 H 0.29906 0.8206 0.33974 0.0
H386 H 0.29021 0.73176 0.36635 0.0
H387 H 0.24189 0.68336 0.35217 0.0
C388 C 0.38587 0.83118 0.37647 0.0
C389 C 0.38715 0.86608 0.3787 0.0
C390 C 0.35734 0.80344 0.36853 0.0
C391 C 0.32923 0.80981 0.36264 0.0
C392 C 0.33059 0.84479 0.36486 0.0
C393 C 0.35922 0.87259 0.37276 0.0
C394 C 0.25839 0.76303 0.33464 0.0
C395 C 0.24179 0.72386 0.33786 0.0
C396 C 0.2865 0.7908 0.34268 0.0
C397 C 0.29877 0.78018 0.35419 0.0
C398 C 0.28188 0.74102 0.35749 0.0
C399 C 0.25376 0.71324 0.34943 0.0
H400 H 0.51361 0.17865 0.68272 0.0
H401 H 0.61521 0.26661 0.66328 0.0
H402 H 0.51304 0.22669 0.69674 0.0
H403 H 0.61484 0.31462 0.67735 0.0
H404 H 0.58029 0.39581 0.69527 0.0
H405 H 0.57974 0.34728 0.68123 0.0
H406 H 0.54692 0.26893 0.71446 0.0
H407 H 0.54572 0.31676 0.72834 0.0
C408 C 0.53608 0.20818 0.68153 0.0
C409 C 0.56441 0.21873 0.67185 0.0
C410 C 0.53577 0.23577 0.68958 0.0
C411 C 0.56384 0.27465 0.68817 0.0
C412 C 0.59235 0.28511 0.67856 0.0
C413 C 0.59261 0.25754 0.6705 0.0
C414 C 0.57251 0.36809 0.69956 0.0
C415 C 0.56309 0.36032 0.71297 0.0
C416 C 0.57267 0.34037 0.69153 0.0
C417 C 0.56342 0.30413 0.6967 0.0
C418 C 0.55383 0.29633 0.71009 0.0
C419 C 0.55363 0.32401 0.71811 0.0
loop_
_geom_bond_atom_site_label_1
_geom_bond_atom_site_label_2
_geom_bond_distance
_geom_bond_site_symmetry_2
_ccdc_geom_bond_type
C0 C1 1.264 . S
C0 C5 1.479 . S
C0 C10 1.465 . S
C1 C0 1.264 . S
C1 C3 1.339 . S
C1 H28 0.931 . S
C2 C3 1.395 . S
C2 C4 1.320 . S
C3 C1 1.339 . S
C3 C2 1.395 . S
C3 H29 0.929 . S
C4 C2 1.320 . S
C4 C5 1.405 . S
C4 H30 0.930 . S
C5 C0 1.479 . S
C5 C4 1.405 . S
C5 H31 0.931 . S
U6 O7 2.454 . S
U6 O8 2.458 . S
U6 C9 2.984 . S
U6 C10 2.847 1_455 S
U6 C23 2.882 . S
U6 O24 2.441 1_455 S
U6 O25 2.420 1_455 S
U6 O26 2.455 . S
U6 O27 2.449 1_455 S
O7 U6 2.454 . S
O7 C9 1.353 . S
O8 U6 2.458 . S
O8 C9 1.286 . S
C9 U6 2.984 . S
C9 O7 1.353 . S
C9 O8 1.286 . S
C9 C11 1.363 . S
C10 C0 1.465 . S
C10 U6 2.847 1_655 S
C10 O24 1.249 . S
C10 O25 1.202 . S
C11 C9 1.363 . S
C11 C13 1.408 . S
C11 C16 1.342 . S
C12 C13 1.310 . S
C12 C15 1.461 . S
C12 H32 0.932 . S
C13 C11 1.408 . S
C13 C12 1.310 . S
C13 H33 0.930 . S
C14 C15 1.474 . S
C14 C16 1.285 . S
C14 H34 0.929 . S
C15 C12 1.461 . S
C15 C14 1.474 . S
C16 C11 1.342 . S
C16 C14 1.285 . S
C16 H35 0.930 . S
C17 C20 1.424 1_455 S
C17 C22 1.245 . S
C17 C23 1.428 . S
C18 C21 1.260 . S
C18 C22 1.477 . S
C18 H36 0.932 . S
C19 C20 1.384 . S
C19 C21 1.479 1_655 S
C19 H37 0.929 . S
C20 C17 1.424 1_655 S
C20 C19 1.384 . S
C20 H38 0.928 . S
C21 C18 1.260 . S
C21 C19 1.479 1_455 S
C22 C17 1.245 . S
C22 C18 1.477 . S
C22 H39 0.932 . S
C23 U6 2.882 . S
C23 C17 1.428 . S
C23 O26 1.301 . S
C23 O27 1.282 1_455 S
O24 U6 2.441 1_655 S
O24 C10 1.249 . S
O25 U6 2.420 1_655 S
O25 C10 1.202 . S
O26 U6 2.455 . S
O26 C23 1.301 . S
O27 U6 2.449 1_655 S
O27 C23 1.282 1_655 S
H28 C1 0.931 . S
H29 C3 0.929 . S
H30 C4 0.930 . S
H31 C5 0.931 . S
H32 C12 0.932 . S
H33 C13 0.930 . S
H34 C14 0.929 . S
H35 C16 0.930 . S
H36 C18 0.932 . S
H37 C19 0.929 . S
H38 C20 0.928 . S
H39 C22 0.932 . S
C40 C41 1.264 . S
C40 C45 1.479 . S
C40 C50 1.465 . S
C41 C40 1.264 . S
C41 C43 1.339 . S
C41 H68 0.931 . S
C42 C43 1.395 . S
C42 C44 1.320 . S
C43 C41 1.339 . S
C43 C42 1.395 . S
C43 H69 0.929 . S
C44 C42 1.320 . S
C44 C45 1.405 . S
C44 H70 0.930 . S
C45 C40 1.479 . S
C45 C44 1.405 . S
C45 H71 0.931 . S
U46 O47 2.454 1_545 S
U46 O48 2.458 1_545 S
U46 C49 2.984 1_545 S
U46 C50 2.847 . S
U46 C63 2.882 . S
U46 O64 2.441 . S
U46 O65 2.420 . S
U46 O66 2.455 . S
U46 O67 2.449 . S
O47 U46 2.454 1_565 S
O47 C49 1.353 . S
O48 U46 2.458 1_565 S
O48 C49 1.286 . S
C49 U46 2.984 1_565 S
C49 O47 1.353 . S
C49 O48 1.286 . S
C49 C51 1.363 . S
C50 C40 1.465 . S
C50 U46 2.847 . S
C50 O64 1.249 . S
C50 O65 1.202 . S
C51 C49 1.363 . S
C51 C53 1.408 . S
C51 C56 1.342 . S
C52 C53 1.310 . S
C52 C55 1.461 . S
C52 H72 0.932 . S
C53 C51 1.408 . S
C53 C52 1.310 . S
C53 H73 0.930 . S
C54 C55 1.474 . S
C54 C56 1.285 . S
C54 H74 0.929 . S
C55 C52 1.461 . S
C55 C54 1.474 . S
C56 C51 1.342 . S
C56 C54 1.285 . S
C56 H75 0.930 . S
C57 C60 1.424 . S
C57 C62 1.243 . S
C57 C63 1.428 . S
C58 C61 1.260 . S
C58 C62 1.477 . S
C58 H76 0.932 1_545 S
C59 C60 1.384 . S
C59 C61 1.479 . S
C59 H77 0.929 . S
C60 C57 1.424 . S
C60 C59 1.384 . S
C60 H78 0.928 . S
C61 C58 1.260 . S
C61 C59 1.479 . S
C62 C57 1.243 . S
C62 C58 1.477 . S
C62 H79 0.934 1_545 S
C63 U46 2.882 . S
C63 C57 1.428 . S
C63 O66 1.301 . S
C63 O67 1.282 . S
O64 U46 2.441 . S
O64 C50 1.249 . S
O65 U46 2.420 . S
O65 C50 1.202 . S
O66 U46 2.455 . S
O66 C63 1.301 . S
O67 U46 2.449 . S
O67 C63 1.282 . S
H68 C41 0.931 . S
H69 C43 0.929 . S
H70 C44 0.930 . S
H71 C45 0.931 . S
H72 C52 0.932 . S
H73 C53 0.930 . S
H74 C54 0.929 . S
H75 C56 0.930 . S
H76 C58 0.932 1_565 S
H77 C59 0.929 . S
H78 C60 0.928 . S
H79 C62 0.934 1_565 S
C80 C81 1.264 . S
C80 C85 1.479 . S
C80 C90 1.465 . S
C81 C80 1.264 . S
C81 C83 1.339 . S
C81 H108 0.931 . S
C82 C83 1.395 . S
C82 C84 1.320 . S
C83 C81 1.339 . S
C83 C82 1.395 . S
C83 H109 0.929 . S
C84 C82 1.320 . S
C84 C85 1.405 . S
C84 H110 0.930 . S
C85 C80 1.479 . S
C85 C84 1.405 . S
C85 H111 0.931 . S
U86 O87 2.454 . S
U86 O88 2.458 . S
U86 C89 2.984 . S
U86 C90 2.847 . S
U86 C103 2.882 . S
U86 O104 2.441 . S
U86 O105 2.420 . S
U86 O106 2.455 . S
U86 O107 2.449 . S
O87 U86 2.454 . S
O87 C89 1.353 . S
O88 U86 2.458 . S
O88 C89 1.286 . S
C89 U86 2.984 . S
C89 O87 1.353 . S
C89 O88 1.286 . S
C89 C91 1.363 . S
C90 C80 1.465 . S
C90 U86 2.847 . S
C90 O104 1.249 . S
C90 O105 1.202 . S
C91 C89 1.363 . S
C91 C93 1.408 . S
C91 C96 1.342 . S
C92 C93 1.310 . S
C92 C95 1.461 . S
C92 H112 0.932 . S
C93 C91 1.408 . S
C93 C92 1.310 . S
C93 H113 0.930 . S
C94 C95 1.474 . S
C94 C96 1.285 . S
C94 H114 0.929 . S
C95 C92 1.461 . S
C95 C94 1.474 . S
C96 C91 1.342 . S
C96 C94 1.285 . S
C96 H115 0.930 . S
C97 C100 1.424 . S
C97 C102 1.245 . S
C97 C103 1.428 . S
C98 C101 1.260 . S
C98 C102 1.477 . S
C98 H116 0.932 . S
C99 C100 1.384 . S
C99 C101 1.479 . S
C99 H117 0.929 . S
C100 C97 1.424 . S
C100 C99 1.384 . S
C100 H118 0.928 . S
C101 C98 1.260 . S
C101 C99 1.479 . S
C102 C97 1.245 . S
C102 C98 1.477 . S
C102 H119 0.932 . S
C103 U86 2.882 . S
C103 C97 1.428 . S
C103 O106 1.301 . S
C103 O107 1.282 . S
O104 U86 2.441 . S
O104 C90 1.249 . S
O105 U86 2.420 . S
O105 C90 1.202 . S
O106 U86 2.455 . S
O106 C103 1.301 . S
O107 U86 2.449 . S
O107 C103 1.282 . S
H108 C81 0.931 . S
H109 C83 0.929 . S
H110 C84 0.930 . S
H111 C85 0.931 . S
H112 C92 0.932 . S
H113 C93 0.930 . S
H114 C94 0.929 . S
H115 C96 0.930 . S
H116 C98 0.932 . S
H117 C99 0.929 . S
H118 C100 0.928 . S
H119 C102 0.932 . S
C120 C121 1.264 . S
C120 C125 1.479 . S
C120 C130 1.465 . S
C121 C120 1.264 . S
C121 C123 1.339 . S
C121 H148 0.931 . S
C122 C123 1.395 . S
C122 C124 1.320 . S
C123 C121 1.339 . S
C123 C122 1.395 . S
C123 H149 0.929 . S
C124 C122 1.320 . S
C124 C125 1.405 . S
C124 H150 0.930 . S
C125 C120 1.479 . S
C125 C124 1.405 . S
C125 H151 0.931 . S
U126 O127 2.454 . S
U126 O128 2.458 . S
U126 C129 2.984 . S
U126 C130 2.847 1_545 S
U126 C143 2.882 . S
U126 O144 2.441 1_545 S
U126 O145 2.420 1_545 S
U126 O146 2.455 . S
U126 O147 2.449 1_545 S
O127 U126 2.454 . S
O127 C129 1.353 . S
O128 U126 2.458 . S
O128 C129 1.286 . S
C129 U126 2.984 . S
C129 O127 1.353 . S
C129 O128 1.286 . S
C129 C131 1.363 . S
C130 C120 1.465 . S
C130 U126 2.847 1_565 S
C130 O144 1.249 . S
C130 O145 1.202 . S
C131 C129 1.363 . S
C131 C133 1.408 . S
C131 C136 1.342 . S
C132 C133 1.310 . S
C132 C135 1.461 . S
C132 H152 0.932 . S
C133 C131 1.408 . S
C133 C132 1.310 . S
C133 H153 0.930 . S
C134 C135 1.474 . S
C134 C136 1.285 . S
C134 H154 0.929 . S
C135 C132 1.461 . S
C135 C134 1.474 . S
C136 C131 1.342 . S
C136 C134 1.285 . S
C136 H155 0.930 . S
C137 C140 1.424 1_545 S
C137 C142 1.245 . S
C137 C143 1.428 . S
C138 C141 1.260 . S
C138 C142 1.477 . S
C138 H156 0.932 . S
C139 C140 1.384 . S
C139 C141 1.479 1_565 S
C139 H157 0.929 . S
C140 C137 1.424 1_565 S
C140 C139 1.384 . S
C140 H158 0.928 . S
C141 C138 1.260 . S
C141 C139 1.479 1_545 S
C142 C137 1.245 . S
C142 C138 1.477 . S
C142 H159 0.932 . S
C143 U126 2.882 . S
C143 C137 1.428 . S
C143 O146 1.301 . S
C143 O147 1.282 1_545 S
O144 U126 2.441 1_565 S
O144 C130 1.249 . S
O145 U126 2.420 1_565 S
O145 C130 1.202 . S
O146 U126 2.455 . S
O146 C143 1.301 . S
O147 U126 2.449 1_565 S
O147 C143 1.282 1_565 S
H148 C121 0.931 . S
H149 C123 0.929 . S
H150 C124 0.930 . S
H151 C125 0.931 . S
H152 C132 0.932 . S
H153 C133 0.930 . S
H154 C134 0.929 . S
H155 C136 0.930 . S
H156 C138 0.932 . S
H157 C139 0.929 . S
H158 C140 0.928 . S
H159 C142 0.932 . S
C160 C161 1.264 . S
C160 C165 1.479 . S
C160 C170 1.465 . S
C161 C160 1.264 . S
C161 C163 1.339 . S
C161 H188 0.931 . S
C162 C163 1.395 . S
C162 C164 1.320 . S
C163 C161 1.339 . S
C163 C162 1.395 . S
C163 H189 0.929 . S
C164 C162 1.320 . S
C164 C165 1.405 . S
C164 H190 0.930 . S
C165 C160 1.479 . S
C165 C164 1.405 . S
C165 H191 0.931 . S
U166 O167 2.454 . S
U166 O168 2.458 . S
U166 C169 2.984 . S
U166 C170 2.847 . S
U166 C183 2.882 . S
U166 O184 2.441 . S
U166 O185 2.420 . S
U166 O186 2.455 . S
U166 O187 2.449 . S
O167 U166 2.454 . S
O167 C169 1.353 . S
O168 U166 2.458 . S
O168 C169 1.286 . S
C169 U166 2.984 . S
C169 O167 1.353 . S
C169 O168 1.286 . S
C169 C171 1.363 . S
C170 C160 1.465 . S
C170 U166 2.847 . S
C170 O184 1.249 . S
C170 O185 1.202 . S
C171 C169 1.363 . S
C171 C173 1.408 . S
C171 C176 1.342 . S
C172 C173 1.310 . S
C172 C175 1.461 . S
C172 H192 0.932 . S
C173 C171 1.408 . S
C173 C172 1.310 . S
C173 H193 0.930 . S
C174 C175 1.474 . S
C174 C176 1.285 . S
C174 H194 0.929 . S
C175 C172 1.461 . S
C175 C174 1.474 . S
C176 C171 1.342 . S
C176 C174 1.285 . S
C176 H195 0.930 . S
C177 C180 1.424 . S
C177 C182 1.245 . S
C177 C183 1.428 . S
C178 C181 1.260 . S
C178 C182 1.477 . S
C178 H196 0.932 . S
C179 C180 1.384 . S
C179 C181 1.479 . S
C179 H197 0.929 . S
C180 C177 1.424 . S
C180 C179 1.384 . S
C180 H198 0.928 . S
C181 C178 1.260 . S
C181 C179 1.479 . S
C182 C177 1.245 . S
C182 C178 1.477 . S
C182 H199 0.932 . S
C183 U166 2.882 . S
C183 C177 1.428 . S
C183 O186 1.301 . S
C183 O187 1.282 . S
O184 U166 2.441 . S
O184 C170 1.249 . S
O185 U166 2.420 . S
O185 C170 1.202 . S
O186 U166 2.455 . S
O186 C183 1.301 . S
O187 U166 2.449 . S
O187 C183 1.282 . S
H188 C161 0.931 . S
H189 C163 0.929 . S
H190 C164 0.930 . S
H191 C165 0.931 . S
H192 C172 0.932 . S
H193 C173 0.930 . S
H194 C174 0.929 . S
H195 C176 0.930 . S
H196 C178 0.932 . S
H197 C179 0.929 . S
H198 C180 0.928 . S
H199 C182 0.932 . S
C200 C201 1.264 . S
C200 C205 1.479 . S
C200 C210 1.465 . S
C201 C200 1.264 . S
C201 C203 1.339 . S
C201 H228 0.931 . S
C202 C203 1.395 . S
C202 C204 1.320 . S
C203 C201 1.339 . S
C203 C202 1.395 . S
C203 H229 0.929 . S
C204 C202 1.320 . S
C204 C205 1.405 . S
C204 H230 0.930 . S
C205 C200 1.479 . S
C205 C204 1.405 . S
C205 H231 0.931 . S
U206 O207 2.454 . S
U206 O208 2.458 . S
U206 C209 2.984 . S
U206 C210 2.847 1_455 S
U206 C223 2.882 . S
U206 O224 2.441 1_455 S
U206 O225 2.420 1_455 S
U206 O226 2.455 . S
U206 O227 2.449 1_455 S
O207 U206 2.454 . S
O207 C209 1.353 . S
O208 U206 2.458 . S
O208 C209 1.286 . S
C209 U206 2.984 . S
C209 O207 1.353 . S
C209 O208 1.286 . S
C209 C211 1.363 . S
C210 C200 1.465 . S
C210 U206 2.847 1_655 S
C210 O224 1.249 . S
C210 O225 1.202 . S
C211 C209 1.363 . S
C211 C213 1.408 . S
C211 C216 1.342 . S
C212 C213 1.310 . S
C212 C215 1.461 . S
C212 H232 0.932 . S
C213 C211 1.408 . S
C213 C212 1.310 . S
C213 H233 0.930 . S
C214 C215 1.474 . S
C214 C216 1.285 . S
C214 H234 0.929 . S
C215 C212 1.461 . S
C215 C214 1.474 . S
C216 C211 1.342 . S
C216 C214 1.285 . S
C216 H235 0.930 . S
C217 C220 1.424 1_455 S
C217 C222 1.245 . S
C217 C223 1.428 . S
C218 C221 1.260 . S
C218 C222 1.477 . S
C218 H236 0.932 . S
C219 C220 1.384 . S
C219 C221 1.479 1_655 S
C219 H237 0.929 . S
C220 C217 1.424 1_655 S
C220 C219 1.384 . S
C220 H238 0.928 . S
C221 C218 1.260 . S
C221 C219 1.479 1_455 S
C222 C217 1.245 . S
C222 C218 1.477 . S
C222 H239 0.932 . S
C223 U206 2.882 . S
C223 C217 1.428 . S
C223 O226 1.301 . S
C223 O227 1.282 1_455 S
O224 U206 2.441 1_655 S
O224 C210 1.249 . S
O225 U206 2.420 1_655 S
O225 C210 1.202 . S
O226 U206 2.455 . S
O226 C223 1.301 . S
O227 U206 2.449 1_655 S
O227 C223 1.282 1_655 S
H228 C201 0.931 . S
H229 C203 0.929 . S
H230 C204 0.930 . S
H231 C205 0.931 . S
H232 C212 0.932 . S
H233 C213 0.930 . S
H234 C214 0.929 . S
H235 C216 0.930 . S
H236 C218 0.932 . S
H237 C219 0.929 . S
H238 C220 0.928 . S
H239 C222 0.932 . S
H240 C248 0.950 . S
H241 C253 0.950 . S
H242 C250 0.950 . S
H243 C252 0.950 . S
H244 C254 0.950 . S
H245 C256 0.950 . S
H246 C258 0.950 . S
H247 C259 0.950 . S
C248 H240 0.950 . S
C248 C249 1.386 . S
C248 C250 1.391 . S
C249 C248 1.386 . S
C249 C253 1.393 . S
C250 H242 0.950 . S
C250 C248 1.391 . S
C250 C251 1.400 . S
C251 C250 1.400 . S
C251 C252 1.398 . S
C251 C257 1.491 . S
C252 H243 0.950 . S
C252 C251 1.398 . S
C252 C253 1.391 . S
C253 H241 0.950 . S
C253 C249 1.393 . S
C253 C252 1.391 . S
C254 H244 0.950 . S
C254 C255 1.386 . S
C254 C256 1.391 . S
C255 C254 1.386 . S
C255 C259 1.393 . S
C256 H245 0.950 . S
C256 C254 1.391 . S
C256 C257 1.400 . S
C257 C251 1.491 . S
C257 C256 1.400 . S
C257 C258 1.398 . S
C258 H246 0.950 . S
C258 C257 1.398 . S
C258 C259 1.391 . S
C259 H247 0.950 . S
C259 C255 1.393 . S
C259 C258 1.391 . S
H260 C268 0.950 . S
H261 C273 0.950 . S
H262 C270 0.950 . S
H263 C272 0.950 . S
H264 C274 0.950 . S
H265 C276 0.950 . S
H266 C278 0.950 . S
H267 C279 0.950 . S
C268 H260 0.950 . S
C268 C269 1.386 1_565 S
C268 C270 1.391 . S
C269 C268 1.386 1_545 S
C269 C273 1.393 . S
C270 H262 0.950 . S
C270 C268 1.391 . S
C270 C271 1.400 1_565 S
C271 C270 1.400 1_545 S
C271 C272 1.398 . S
C271 C277 1.491 . S
C272 H263 0.950 . S
C272 C271 1.398 . S
C272 C273 1.391 . S
C273 H261 0.950 . S
C273 C269 1.393 . S
C273 C272 1.391 . S
C274 H264 0.950 . S
C274 C275 1.386 . S
C274 C276 1.391 . S
C275 C274 1.386 . S
C275 C279 1.393 1_545 S
C276 H265 0.950 . S
C276 C274 1.391 . S
C276 C277 1.400 . S
C277 C271 1.491 . S
C277 C276 1.400 . S
C277 C278 1.398 1_545 S
C278 H266 0.950 . S
C278 C277 1.398 1_565 S
C278 C279 1.391 . S
C279 H267 0.950 . S
C279 C275 1.393 1_565 S
C279 C278 1.391 . S
H280 C288 0.950 . S
H281 C293 0.950 . S
H282 C290 0.950 . S
H283 C292 0.950 . S
H284 C294 0.950 . S
H285 C296 0.950 . S
H286 C298 0.950 . S
H287 C299 0.950 . S
C288 H280 0.950 . S
C288 C289 1.386 . S
C288 C290 1.391 . S
C289 C288 1.386 . S
C289 C293 1.393 . S
C290 H282 0.950 . S
C290 C288 1.391 . S
C290 C291 1.400 . S
C291 C290 1.400 . S
C291 C292 1.398 . S
C291 C297 1.491 . S
C292 H283 0.950 . S
C292 C291 1.398 . S
C292 C293 1.391 . S
C293 H281 0.950 . S
C293 C289 1.393 . S
C293 C292 1.391 . S
C294 H284 0.950 . S
C294 C295 1.386 . S
C294 C296 1.391 . S
C295 C294 1.386 . S
C295 C299 1.393 . S
C296 H285 0.950 . S
C296 C294 1.391 . S
C296 C297 1.400 . S
C297 C291 1.491 . S
C297 C296 1.400 . S
C297 C298 1.398 . S
C298 H286 0.950 . S
C298 C297 1.398 . S
C298 C299 1.391 . S
C299 H287 0.950 . S
C299 C295 1.393 . S
C299 C298 1.391 . S
H300 C308 0.950 1_556 S
H301 C313 0.950 . S
H302 C310 0.950 . S
H303 C312 0.950 . S
H304 C314 0.950 1_554 S
H305 C316 0.950 . S
H306 C318 0.950 . S
H307 C319 0.950 . S
C308 H300 0.950 1_554 S
C308 C309 1.386 . S
C308 C310 1.391 1_554 S
C309 C308 1.386 . S
C309 C313 1.393 . S
C310 H302 0.950 . S
C310 C308 1.391 1_556 S
C310 C311 1.400 1_556 S
C311 C310 1.400 1_554 S
C311 C312 1.398 . S
C311 C317 1.491 1_554 S
C312 H303 0.950 . S
C312 C311 1.398 . S
C312 C313 1.391 . S
C313 H301 0.950 . S
C313 C309 1.393 . S
C313 C312 1.391 . S
C314 H304 0.950 1_556 S
C314 C315 1.386 . S
C314 C316 1.391 1_556 S
C315 C314 1.386 . S
C315 C319 1.393 . S
C316 H305 0.950 . S
C316 C314 1.391 1_554 S
C316 C317 1.400 1_554 S
C317 C311 1.491 1_556 S
C317 C316 1.400 1_556 S
C317 C318 1.398 . S
C318 H306 0.950 . S
C318 C317 1.398 . S
C318 C319 1.391 . S
C319 H307 0.950 . S
C319 C315 1.393 . S
C319 C318 1.391 . S
H320 C328 0.950 . S
H321 C333 0.950 . S
H322 C330 0.950 . S
H323 C332 0.950 . S
H324 C334 0.950 . S
H325 C336 0.950 . S
H326 C338 0.950 . S
H327 C339 0.950 . S
C328 H320 0.950 . S
C328 C329 1.386 . S
C328 C330 1.391 . S
C329 C328 1.386 . S
C329 C333 1.393 . S
C330 H322 0.950 . S
C330 C328 1.391 . S
C330 C331 1.400 . S
C331 C330 1.400 . S
C331 C332 1.398 . S
C331 C337 1.491 . S
C332 H323 0.950 . S
C332 C331 1.398 . S
C332 C333 1.391 . S
C333 H321 0.950 . S
C333 C329 1.393 . S
C333 C332 1.391 . S
C334 H324 0.950 . S
C334 C335 1.386 . S
C334 C336 1.391 . S
C335 C334 1.386 . S
C335 C339 1.393 . S
C336 H325 0.950 . S
C336 C334 1.391 . S
C336 C337 1.400 . S
C337 C331 1.491 . S
C337 C336 1.400 . S
C337 C338 1.398 . S
C338 H326 0.950 . S
C338 C337 1.398 . S
C338 C339 1.391 . S
C339 H327 0.950 . S
C339 C335 1.393 . S
C339 C338 1.391 . S
H340 C348 0.950 . S
H341 C353 0.950 . S
H342 C350 0.950 . S
H343 C352 0.950 . S
H344 C354 0.950 . S
H345 C356 0.950 . S
H346 C358 0.950 . S
H347 C359 0.950 . S
C348 H340 0.950 . S
C348 C349 1.386 . S
C348 C350 1.391 . S
C349 C348 1.386 . S
C349 C353 1.393 . S
C350 H342 0.950 . S
C350 C348 1.391 . S
C350 C351 1.400 . S
C351 C350 1.400 . S
C351 C352 1.398 . S
C351 C357 1.491 . S
C352 H343 0.950 . S
C352 C351 1.398 . S
C352 C353 1.391 . S
C353 H341 0.950 . S
C353 C349 1.393 . S
C353 C352 1.391 . S
C354 H344 0.950 . S
C354 C355 1.386 . S
C354 C356 1.391 . S
C355 C354 1.386 . S
C355 C359 1.393 . S
C356 H345 0.950 . S
C356 C354 1.391 . S
C356 C357 1.400 . S
C357 C351 1.491 . S
C357 C356 1.400 . S
C357 C358 1.398 . S
C358 H346 0.950 . S
C358 C357 1.398 . S
C358 C359 1.391 . S
C359 H347 0.950 . S
C359 C355 1.393 . S
C359 C358 1.391 . S
H360 C368 0.950 . S
H361 C373 0.950 . S
H362 C370 0.950 . S
H363 C372 0.950 1_556 S
H364 C374 0.950 . S
H365 C376 0.950 . S
H366 C378 0.950 1_554 S
H367 C379 0.950 . S
C368 H360 0.950 . S
C368 C369 1.386 . S
C368 C370 1.391 . S
C369 C368 1.386 . S
C369 C373 1.393 . S
C370 H362 0.950 . S
C370 C368 1.391 . S
C370 C371 1.400 . S
C371 C370 1.400 . S
C371 C372 1.398 . S
C371 C377 1.491 1_554 S
C372 H363 0.950 1_554 S
C372 C371 1.398 . S
C372 C373 1.391 . S
C373 H361 0.950 . S
C373 C369 1.393 . S
C373 C372 1.391 . S
C374 H364 0.950 . S
C374 C375 1.386 . S
C374 C376 1.391 . S
C375 C374 1.386 . S
C375 C379 1.393 . S
C376 H365 0.950 . S
C376 C374 1.391 . S
C376 C377 1.400 . S
C377 C371 1.491 1_556 S
C377 C376 1.400 . S
C377 C378 1.398 . S
C378 H366 0.950 1_556 S
C378 C377 1.398 . S
C378 C379 1.391 . S
C379 H367 0.950 . S
C379 C375 1.393 . S
C379 C378 1.391 . S
H380 C388 0.950 . S
H381 C393 0.950 . S
H382 C390 0.950 . S
H383 C392 0.950 . S
H384 C394 0.950 . S
H385 C396 0.950 . S
H386 C398 0.950 . S
H387 C399 0.950 . S
C388 H380 0.950 . S
C388 C389 1.386 . S
C388 C390 1.391 . S
C389 C388 1.386 . S
C389 C393 1.393 . S
C390 H382 0.950 . S
C390 C388 1.391 . S
C390 C391 1.400 . S
C391 C390 1.400 . S
C391 C392 1.398 . S
C391 C397 1.491 . S
C392 H383 0.950 . S
C392 C391 1.398 . S
C392 C393 1.391 . S
C393 H381 0.950 . S
C393 C389 1.393 . S
C393 C392 1.391 . S
C394 H384 0.950 . S
C394 C395 1.386 . S
C394 C396 1.391 . S
C395 C394 1.386 . S
C395 C399 1.393 . S
C396 H385 0.950 . S
C396 C394 1.391 . S
C396 C397 1.400 . S
C397 C391 1.491 . S
C397 C396 1.400 . S
C397 C398 1.398 . S
C398 H386 0.950 . S
C398 C397 1.398 . S
C398 C399 1.391 . S
C399 H387 0.950 . S
C399 C395 1.393 . S
C399 C398 1.391 . S
H400 C408 0.950 . S
H401 C413 0.950 . S
H402 C410 0.950 . S
H403 C412 0.950 . S
H404 C414 0.950 . S
H405 C416 0.950 . S
H406 C418 0.950 . S
H407 C419 0.950 . S
C408 H400 0.950 . S
C408 C409 1.386 . S
C408 C410 1.391 . S
C409 C408 1.386 . S
C409 C413 1.393 . S
C410 H402 0.950 . S
C410 C408 1.391 . S
C410 C411 1.400 . S
C411 C410 1.400 . S
C411 C412 1.398 . S
C411 C417 1.491 . S
C412 H403 0.950 . S
C412 C411 1.398 . S
C412 C413 1.391 . S
C413 H401 0.950 . S
C413 C409 1.393 . S
C413 C412 1.391 . S
C414 H404 0.950 . S
C414 C415 1.386 . S
C414 C416 1.391 . S
C415 C414 1.386 . S
C415 C419 1.393 . S
C416 H405 0.950 . S
C416 C414 1.391 . S
C416 C417 1.400 . S
C417 C411 1.491 . S
C417 C416 1.400 . S
C417 C418 1.398 . S
C418 H406 0.950 . S
C418 C417 1.398 . S
C418 C419 1.391 . S
C419 H407 0.950 . S
C419 C415 1.393 . S
C419 C418 1.391 . S
C249 C21 1.484 . S
C255 C221 1.492 . S
C269 C141 1.483 . S
C275 C61 1.494 . S
C289 C181 1.493 . S
C295 C101 1.484 . S
C309 C15 1.500 . S
C315 C175 1.499 . S
C329 C42 1.493 . S
C335 C202 1.485 . S
C349 C122 1.491 . S
C355 C82 1.487 . S
C369 C2 1.486 . S
C375 C162 1.482 . S
C389 C55 1.499 . S
C395 C215 1.500 . S
C409 C135 1.500 . S
C415 C95 1.499 . S
