# Generated by pormake.
# Topology lta, (4)-cn, num edge types: 1
# Building blocks:
#     Node 0, Type 0, BuildingBlock: NAHDIM_clean_sbu_0, # of connection points: 4
#     Node 1, Type 0, BuildingBlock: NAHDIM_clean_sbu_0, # of connection points: 4
#     Node 2, Type 0, BuildingBlock: NAHDIM_clean_sbu_0, # of connection points: 4
#     Node 3, Type 0, BuildingBlock: NAHDIM_clean_sbu_0, # of connection points: 4
#     Node 4, Type 0, BuildingBlock: NAHDIM_clean_sbu_0, # of connection points: 4
#     Node 5, Type 0, BuildingBlock: NAHDIM_clean_sbu_0, # of connection points: 4
#     Node 6, Type 0, BuildingBlock: NAHDIM_clean_sbu_0, # of connection points: 4
#     Node 7, Type 0, BuildingBlock: NAHDIM_clean_sbu_0, # of connection points: 4
#     Node 8, Type 0, BuildingBlock: NAHDIM_clean_sbu_0, # of connection points: 4
#     Node 9, Type 0, BuildingBlock: NAHDIM_clean_sbu_0, # of connection points: 4
#     Node 10, Type 0, BuildingBlock: NAHDIM_clean_sbu_0, # of connection points: 4
#     Node 11, Type 0, BuildingBlock: NAHDIM_clean_sbu_0, # of connection points: 4
#     Node 12, Type 0, BuildingBlock: NAHDIM_clean_sbu_0, # of connection points: 4
#     Node 13, Type 0, BuildingBlock: NAHDIM_clean_sbu_0, # of connection points: 4
#     Node 14, Type 0, BuildingBlock: NAHDIM_clean_sbu_0, # of connection points: 4
#     Node 15, Type 0, BuildingBlock: NAHDIM_clean_sbu_0, # of connection points: 4
#     Node 16, Type 0, BuildingBlock: NAHDIM_clean_sbu_0, # of connection points: 4
#     Node 17, Type 0, BuildingBlock: NAHDIM_clean_sbu_0, # of connection points: 4
#     Node 18, Type 0, BuildingBlock: NAHDIM_clean_sbu_0, # of connection points: 4
#     Node 19, Type 0, BuildingBlock: NAHDIM_clean_sbu_0, # of connection points: 4
#     Node 20, Type 0, BuildingBlock: NAHDIM_clean_sbu_0, # of connection points: 4
#     Node 21, Type 0, BuildingBlock: NAHDIM_clean_sbu_0, # of connection points: 4
#     Node 22, Type 0, BuildingBlock: NAHDIM_clean_sbu_0, # of connection points: 4
#     Node 23, Type 0, BuildingBlock: NAHDIM_clean_sbu_0, # of connection points: 4
#     Edge 24, Type (0, 0), BuildingBlock: MIFKUJ_clean_linker_0, # of connection points: 2
#     Edge 25, Type (0, 0), BuildingBlock: MIFKUJ_clean_linker_0, # of connection points: 2
#     Edge 26, Type (0, 0), BuildingBlock: MIFKUJ_clean_linker_0, # of connection points: 2
#     Edge 27, Type (0, 0), BuildingBlock: MIFKUJ_clean_linker_0, # of connection points: 2
#     Edge 28, Type (0, 0), BuildingBlock: MIFKUJ_clean_linker_0, # of connection points: 2
#     Edge 29, Type (0, 0), BuildingBlock: MIFKUJ_clean_linker_0, # of connection points: 2
#     Edge 30, Type (0, 0), BuildingBlock: MIFKUJ_clean_linker_0, # of connection points: 2
#     Edge 31, Type (0, 0), BuildingBlock: MIFKUJ_clean_linker_0, # of connection points: 2
#     Edge 32, Type (0, 0), BuildingBlock: MIFKUJ_clean_linker_0, # of connection points: 2
#     Edge 33, Type (0, 0), BuildingBlock: MIFKUJ_clean_linker_0, # of connection points: 2
#     Edge 34, Type (0, 0), BuildingBlock: MIFKUJ_clean_linker_0, # of connection points: 2
#     Edge 35, Type (0, 0), BuildingBlock: MIFKUJ_clean_linker_0, # of connection points: 2
#     Edge 36, Type (0, 0), BuildingBlock: MIFKUJ_clean_linker_0, # of connection points: 2
#     Edge 37, Type (0, 0), BuildingBlock: MIFKUJ_clean_linker_0, # of connection points: 2
#     Edge 38, Type (0, 0), BuildingBlock: MIFKUJ_clean_linker_0, # of connection points: 2
#     Edge 39, Type (0, 0), BuildingBlock: MIFKUJ_clean_linker_0, # of connection points: 2
#     Edge 40, Type (0, 0), BuildingBlock: MIFKUJ_clean_linker_0, # of connection points: 2
#     Edge 41, Type (0, 0), BuildingBlock: MIFKUJ_clean_linker_0, # of connection points: 2
#     Edge 42, Type (0, 0), BuildingBlock: MIFKUJ_clean_linker_0, # of connection points: 2
#     Edge 43, Type (0, 0), BuildingBlock: MIFKUJ_clean_linker_0, # of connection points: 2
#     Edge 44, Type (0, 0), BuildingBlock: MIFKUJ_clean_linker_0, # of connection points: 2
#     Edge 45, Type (0, 0), BuildingBlock: MIFKUJ_clean_linker_0, # of connection points: 2
#     Edge 46, Type (0, 0), BuildingBlock: MIFKUJ_clean_linker_0, # of connection points: 2
#     Edge 47, Type (0, 0), BuildingBlock: MIFKUJ_clean_linker_0, # of connection points: 2
#     Edge 48, Type (0, 0), BuildingBlock: MIFKUJ_clean_linker_0, # of connection points: 2
#     Edge 49, Type (0, 0), BuildingBlock: MIFKUJ_clean_linker_0, # of connection points: 2
#     Edge 50, Type (0, 0), BuildingBlock: MIFKUJ_clean_linker_0, # of connection points: 2
#     Edge 51, Type (0, 0), BuildingBlock: MIFKUJ_clean_linker_0, # of connection points: 2
#     Edge 52, Type (0, 0), BuildingBlock: MIFKUJ_clean_linker_0, # of connection points: 2
#     Edge 53, Type (0, 0), BuildingBlock: MIFKUJ_clean_linker_0, # of connection points: 2
#     Edge 54, Type (0, 0), BuildingBlock: MIFKUJ_clean_linker_0, # of connection points: 2
#     Edge 55, Type (0, 0), BuildingBlock: MIFKUJ_clean_linker_0, # of connection points: 2
#     Edge 56, Type (0, 0), BuildingBlock: MIFKUJ_clean_linker_0, # of connection points: 2
#     Edge 57, Type (0, 0), BuildingBlock: MIFKUJ_clean_linker_0, # of connection points: 2
#     Edge 58, Type (0, 0), BuildingBlock: MIFKUJ_clean_linker_0, # of connection points: 2
#     Edge 59, Type (0, 0), BuildingBlock: MIFKUJ_clean_linker_0, # of connection points: 2
#     Edge 60, Type (0, 0), BuildingBlock: MIFKUJ_clean_linker_0, # of connection points: 2
#     Edge 61, Type (0, 0), BuildingBlock: MIFKUJ_clean_linker_0, # of connection points: 2
#     Edge 62, Type (0, 0), BuildingBlock: MIFKUJ_clean_linker_0, # of connection points: 2
#     Edge 63, Type (0, 0), BuildingBlock: MIFKUJ_clean_linker_0, # of connection points: 2
#     Edge 64, Type (0, 0), BuildingBlock: MIFKUJ_clean_linker_0, # of connection points: 2
#     Edge 65, Type (0, 0), BuildingBlock: MIFKUJ_clean_linker_0, # of connection points: 2
#     Edge 66, Type (0, 0), BuildingBlock: MIFKUJ_clean_linker_0, # of connection points: 2
#     Edge 67, Type (0, 0), BuildingBlock: MIFKUJ_clean_linker_0, # of connection points: 2
#     Edge 68, Type (0, 0), BuildingBlock: MIFKUJ_clean_linker_0, # of connection points: 2
#     Edge 69, Type (0, 0), BuildingBlock: MIFKUJ_clean_linker_0, # of connection points: 2
#     Edge 70, Type (0, 0), BuildingBlock: MIFKUJ_clean_linker_0, # of connection points: 2
#     Edge 71, Type (0, 0), BuildingBlock: MIFKUJ_clean_linker_0, # of connection points: 2
# Relax obj value: 0.181
# Max RMSD: 0.066
# Mean RMSD: 0.066
data_MOF--net-lta--node1-NAHDIM_clean_sbu_0--edge1-MIFKUJ_clean_linker_0
_symmetry_space_group_name_H-M    P1
_symmetry_Int_Tables_number       1
_symmetry_cell_setting            triclinic
loop_
_symmetry_equiv_pos_as_xyz
'x, y, z'
_cell_length_a     73.394246
_cell_length_b     73.406177
_cell_length_c     73.401081
_cell_angle_alpha  90.007855
_cell_angle_beta   90.026547
_cell_angle_gamma 90.028968
loop_
_atom_site_label
_atom_site_type_symbol
_atom_site_fract_x
_atom_site_fract_y
_atom_site_fract_z
_atom_type_partial_charge
C0 C 0.15843 0.29661 0.5096 0.0
O1 O 0.16129 0.31413 0.51179 0.0
O2 O 0.12059 0.32479 0.52606 0.0
Zn3 Zn 0.12188 0.30869 0.50378 0.0
O4 O 0.12557 0.32421 0.48159 0.0
C5 C 0.0873 0.29129 0.51268 0.0
O6 O 0.09147 0.29535 0.52961 0.0
O7 O 0.14243 0.291 0.50611 0.0
C8 C 0.11259 0.33481 0.47731 0.0
O9 O 0.09782 0.33493 0.48742 0.0
C10 C 0.12823 0.34034 0.52583 0.0
O11 O 0.13692 0.34557 0.51109 0.0
O12 O 0.09839 0.29531 0.50003 0.0
C13 C 0.69604 0.16507 0.49689 0.0
O14 O 0.67839 0.16683 0.49453 0.0
O15 O 0.67225 0.12553 0.52193 0.0
Zn16 Zn 0.68751 0.12682 0.49918 0.0
O17 O 0.67117 0.12625 0.47733 0.0
C18 C 0.70802 0.09502 0.51065 0.0
O19 O 0.70275 0.09964 0.52711 0.0
O20 O 0.70279 0.1493 0.49914 0.0
C21 C 0.66201 0.11179 0.47469 0.0
O22 O 0.66357 0.09827 0.48632 0.0
C23 C 0.65635 0.13237 0.52204 0.0
O24 O 0.65026 0.14052 0.50732 0.0
O25 O 0.70354 0.10493 0.49721 0.0
C26 C 0.83782 0.70394 0.5052 0.0
O27 O 0.8346 0.68702 0.50035 0.0
O28 O 0.87666 0.67697 0.53315 0.0
Zn29 Zn 0.87454 0.69064 0.50943 0.0
O30 O 0.87098 0.67274 0.48893 0.0
C31 C 0.90877 0.70884 0.51692 0.0
O32 O 0.90456 0.70562 0.53401 0.0
O33 O 0.85386 0.70856 0.50982 0.0
C34 C 0.86312 0.65743 0.49088 0.0
O35 O 0.85672 0.6528 0.50693 0.0
C36 C 0.86307 0.67373 0.54336 0.0
O37 O 0.84694 0.67996 0.53875 0.0
O38 O 0.89785 0.70395 0.50441 0.0
C39 C 0.29944 0.83494 0.50023 0.0
O40 O 0.31702 0.83196 0.49878 0.0
O41 O 0.32752 0.8695 0.52647 0.0
Zn42 Zn 0.31194 0.8714 0.50392 0.0
O43 O 0.32784 0.87015 0.48176 0.0
C44 C 0.29487 0.90421 0.51777 0.0
O45 O 0.29788 0.8968 0.53379 0.0
O46 O 0.29382 0.85109 0.50285 0.0
C47 C 0.34033 0.88194 0.47963 0.0
O48 O 0.34242 0.89475 0.49196 0.0
C49 C 0.34293 0.86162 0.52603 0.0
O50 O 0.34845 0.85403 0.5108 0.0
O51 O 0.29932 0.89556 0.50346 0.0
C52 C 0.16268 0.6974 0.48119 0.0
O53 O 0.16585 0.67979 0.48148 0.0
O54 O 0.12526 0.66896 0.46215 0.0
Zn55 Zn 0.12617 0.685 0.48424 0.0
O56 O 0.1307 0.66934 0.50615 0.0
C57 C 0.09411 0.70584 0.47454 0.0
O58 O 0.10148 0.70599 0.45823 0.0
O59 O 0.14635 0.70304 0.48199 0.0
C60 C 0.12632 0.67473 0.52201 0.0
O61 O 0.11888 0.69088 0.524 0.0
C62 C 0.11138 0.65892 0.45961 0.0
O63 O 0.09787 0.65965 0.47132 0.0
O64 O 0.10237 0.69791 0.4875 0.0
C65 C 0.29972 0.16288 0.4998 0.0
O66 O 0.31692 0.16577 0.50386 0.0
O67 O 0.3265 0.12751 0.46983 0.0
Zn68 Zn 0.31281 0.12679 0.49359 0.0
O69 O 0.33016 0.12915 0.5145 0.0
C70 C 0.29579 0.09218 0.48407 0.0
O71 O 0.29932 0.09683 0.46715 0.0
O72 O 0.29474 0.14709 0.49477 0.0
C73 C 0.34334 0.11806 0.51609 0.0
O74 O 0.34566 0.10542 0.50362 0.0
C75 C 0.34042 0.13768 0.46826 0.0
O76 O 0.34555 0.14766 0.4822 0.0
O77 O 0.30005 0.10296 0.4969 0.0
C78 C 0.83185 0.30377 0.48805 0.0
O79 O 0.82935 0.32149 0.48801 0.0
O80 O 0.86998 0.33197 0.46987 0.0
Zn81 Zn 0.86935 0.31411 0.49078 0.0
O82 O 0.86803 0.3279 0.51432 0.0
C83 C 0.90054 0.29362 0.47737 0.0
O84 O 0.89322 0.29613 0.46123 0.0
O85 O 0.84795 0.29749 0.48884 0.0
C86 C 0.88183 0.33737 0.51875 0.0
O87 O 0.89619 0.33728 0.50807 0.0
C88 C 0.86443 0.34821 0.47222 0.0
O89 O 0.85762 0.35294 0.48807 0.0
O90 O 0.89247 0.29972 0.49139 0.0
C91 C 0.6981 0.84033 0.49833 0.0
O92 O 0.68068 0.83638 0.49938 0.0
O93 O 0.66926 0.87466 0.47284 0.0
Zn94 Zn 0.68429 0.87669 0.49577 0.0
O95 O 0.66821 0.87513 0.51787 0.0
C96 C 0.70344 0.90831 0.48217 0.0
O97 O 0.70252 0.89972 0.46649 0.0
O98 O 0.70295 0.85685 0.49666 0.0
C99 C 0.65355 0.8843 0.51845 0.0
O100 O 0.6491 0.89462 0.50451 0.0
C101 C 0.65475 0.86523 0.47217 0.0
O102 O 0.64949 0.8562 0.48669 0.0
O103 O 0.69675 0.9009 0.4963 0.0
C104 C 0.51639 0.15527 0.29032 0.0
O105 O 0.52641 0.15659 0.30509 0.0
O106 O 0.52551 0.12063 0.32285 0.0
Zn107 Zn 0.50279 0.12283 0.30778 0.0
O108 O 0.48202 0.12931 0.3243 0.0
C109 C 0.50873 0.09139 0.28525 0.0
O110 O 0.52412 0.09973 0.28148 0.0
O111 O 0.5055 0.14192 0.2886 0.0
C112 C 0.46574 0.12511 0.32014 0.0
O113 O 0.46254 0.11679 0.30462 0.0
C114 C 0.52744 0.10691 0.33322 0.0
O115 O 0.51469 0.09434 0.33347 0.0
O116 O 0.49749 0.09888 0.29603 0.0
C117 C 0.85588 0.49733 0.28546 0.0
O118 O 0.86519 0.48308 0.291 0.0
O119 O 0.87306 0.53625 0.32805 0.0
Zn120 Zn 0.87839 0.515 0.31164 0.0
O121 O 0.87896 0.49224 0.32696 0.0
C122 C 0.91601 0.52492 0.30758 0.0
O123 O 0.91361 0.53167 0.32398 0.0
O124 O 0.85909 0.51279 0.29255 0.0
C125 C 0.88582 0.49273 0.34285 0.0
O126 O 0.89264 0.5081 0.34897 0.0
C127 C 0.85985 0.53478 0.33914 0.0
O128 O 0.84971 0.52003 0.33866 0.0
O129 O 0.90263 0.51762 0.29941 0.0
C130 C 0.48536 0.83422 0.29081 0.0
O131 O 0.47609 0.8317 0.30591 0.0
O132 O 0.47264 0.8689 0.32338 0.0
Zn133 Zn 0.49403 0.8697 0.3062 0.0
O134 O 0.51712 0.8682 0.32077 0.0
C135 C 0.4805 0.90333 0.29053 0.0
O136 O 0.46469 0.89775 0.2968 0.0
O137 O 0.49355 0.84924 0.28823 0.0
C138 C 0.51972 0.87987 0.33328 0.0
O139 O 0.50735 0.8925 0.33609 0.0
C140 C 0.47379 0.86011 0.33826 0.0
O141 O 0.4887 0.85087 0.34181 0.0
O142 O 0.4945 0.89342 0.29279 0.0
C143 C 0.16718 0.49673 0.29376 0.0
O144 O 0.16806 0.50253 0.31067 0.0
O145 O 0.13139 0.46689 0.32054 0.0
Zn146 Zn 0.13041 0.48872 0.30386 0.0
O147 O 0.12948 0.51126 0.31958 0.0
C148 C 0.09755 0.47495 0.28586 0.0
O149 O 0.1022 0.45907 0.29266 0.0
O150 O 0.15242 0.48985 0.28792 0.0
C151 C 0.11425 0.51814 0.32412 0.0
O152 O 0.09912 0.51079 0.31802 0.0
C153 C 0.11815 0.46439 0.33143 0.0
O154 O 0.10421 0.47556 0.33082 0.0
O155 O 0.10788 0.48862 0.28829 0.0
C156 C 0.49757 0.83407 0.70561 0.0
O157 O 0.49108 0.83207 0.68905 0.0
O158 O 0.52332 0.87131 0.67662 0.0
Zn159 Zn 0.50186 0.8709 0.69381 0.0
O160 O 0.4788 0.86947 0.67916 0.0
C161 C 0.51395 0.90401 0.71214 0.0
O162 O 0.5303 0.89922 0.70669 0.0
O163 O 0.50336 0.84958 0.71062 0.0
C164 C 0.47534 0.88235 0.66814 0.0
O165 O 0.4867 0.89616 0.66708 0.0
C166 C 0.52174 0.8639 0.66104 0.0
O167 O 0.50646 0.85561 0.65678 0.0
O168 O 0.50043 0.89389 0.70838 0.0
C169 C 0.1571 0.50259 0.69668 0.0
O170 O 0.16056 0.50117 0.67919 0.0
O171 O 0.12437 0.5329 0.66922 0.0
Zn172 Zn 0.12177 0.5091 0.68267 0.0
O173 O 0.12476 0.48832 0.66508 0.0
C174 C 0.08411 0.50067 0.68433 0.0
O175 O 0.08748 0.49611 0.66736 0.0
O176 O 0.14104 0.50651 0.7018 0.0
C177 C 0.12248 0.4719 0.67003 0.0
O178 O 0.1182 0.4684 0.68705 0.0
C179 C 0.13372 0.53348 0.65466 0.0
O180 O 0.14177 0.51859 0.64888 0.0
O181 O 0.09687 0.5073 0.694 0.0
C182 C 0.50596 0.15564 0.7034 0.0
O183 O 0.51492 0.15678 0.68795 0.0
O184 O 0.47542 0.12037 0.67347 0.0
Zn185 Zn 0.49753 0.12016 0.68965 0.0
O186 O 0.51999 0.12144 0.6741 0.0
C187 C 0.48583 0.0902 0.71281 0.0
O188 O 0.47034 0.0991 0.71386 0.0
O189 O 0.4971 0.14122 0.70701 0.0
C190 C 0.52202 0.11036 0.66097 0.0
O191 O 0.50935 0.09808 0.65788 0.0
C192 C 0.47558 0.13031 0.65931 0.0
O193 O 0.48985 0.14062 0.65608 0.0
O194 O 0.49883 0.09679 0.7035 0.0
C195 C 0.82917 0.50113 0.70033 0.0
O196 O 0.82745 0.50502 0.68294 0.0
O197 O 0.86319 0.47405 0.67121 0.0
Zn198 Zn 0.86542 0.49478 0.68896 0.0
O199 O 0.86514 0.51805 0.67453 0.0
C200 C 0.89738 0.47777 0.70445 0.0
O201 O 0.88997 0.46281 0.698 0.0
O202 O 0.84445 0.49557 0.70624 0.0
C203 C 0.87903 0.52807 0.67197 0.0
O204 O 0.89472 0.52339 0.67919 0.0
C205 C 0.87529 0.47336 0.65885 0.0
O206 O 0.88813 0.48584 0.65862 0.0
O207 O 0.88902 0.49282 0.70271 0.0
C208 C 0.29901 0.53143 0.15504 0.0
O209 O 0.31605 0.53589 0.15825 0.0
O210 O 0.33079 0.54366 0.11918 0.0
Zn211 Zn 0.31397 0.52192 0.12064 0.0
O212 O 0.32799 0.49979 0.12848 0.0
C213 C 0.29628 0.52889 0.08588 0.0
O214 O 0.29622 0.54597 0.09125 0.0
O215 O 0.29458 0.5258 0.13928 0.0
C216 C 0.32304 0.4837 0.12447 0.0
O217 O 0.30832 0.48122 0.11458 0.0
C218 C 0.34637 0.54279 0.1267 0.0
O219 O 0.35102 0.52785 0.13539 0.0
O220 O 0.30294 0.51676 0.09625 0.0
C221 C 0.29224 0.46623 0.83203 0.0
O222 O 0.30971 0.46672 0.82815 0.0
O223 O 0.32393 0.45252 0.86992 0.0
Zn224 Zn 0.30624 0.47317 0.86721 0.0
O225 O 0.32019 0.49525 0.85929 0.0
C226 C 0.29188 0.46804 0.90392 0.0
O227 O 0.29602 0.4508 0.90148 0.0
O228 O 0.28725 0.46798 0.84849 0.0
C229 C 0.31296 0.51091 0.86075 0.0
O230 O 0.29621 0.51223 0.86691 0.0
C231 C 0.3379 0.45567 0.87965 0.0
O232 O 0.3395 0.47164 0.88759 0.0
O233 O 0.29473 0.47934 0.89115 0.0
C234 C 0.53198 0.28841 0.84433 0.0
O235 O 0.54683 0.29838 0.84482 0.0
O236 O 0.54062 0.32966 0.86619 0.0
Zn237 Zn 0.52067 0.31231 0.87335 0.0
O238 O 0.49688 0.32588 0.8731 0.0
C239 C 0.53342 0.3125 0.91029 0.0
O240 O 0.54168 0.32737 0.90474 0.0
O241 O 0.5192 0.29163 0.85555 0.0
C242 C 0.4958 0.3409 0.88164 0.0
O243 O 0.51028 0.34715 0.89011 0.0
C244 C 0.53821 0.34076 0.85313 0.0
O245 O 0.52268 0.34054 0.84421 0.0
O246 O 0.52436 0.30313 0.89888 0.0
C247 C 0.69263 0.53255 0.83463 0.0
O248 O 0.6754 0.53497 0.83041 0.0
O249 O 0.6591 0.53896 0.87215 0.0
Zn250 Zn 0.67666 0.51875 0.86696 0.0
O251 O 0.66273 0.4986 0.85491 0.0
C252 C 0.69519 0.51824 0.90209 0.0
O253 O 0.698 0.53566 0.8991 0.0
O254 O 0.69667 0.52638 0.85027 0.0
C255 C 0.66865 0.48237 0.85584 0.0
O256 O 0.68419 0.47921 0.86414 0.0
C257 C 0.64538 0.53454 0.88174 0.0
O258 O 0.6442 0.51777 0.88791 0.0
O259 O 0.68672 0.50886 0.89029 0.0
C260 C 0.46514 0.69774 0.84146 0.0
O261 O 0.45697 0.68246 0.83705 0.0
O262 O 0.44455 0.66564 0.87174 0.0
Zn263 Zn 0.46668 0.68107 0.87699 0.0
O264 O 0.48907 0.6653 0.87786 0.0
C265 C 0.45503 0.68578 0.91415 0.0
O266 O 0.4441 0.67218 0.91016 0.0
O267 O 0.47019 0.70026 0.85783 0.0
C268 C 0.48968 0.65195 0.88887 0.0
O269 O 0.47541 0.64836 0.89905 0.0
C270 C 0.44599 0.65113 0.8624 0.0
O271 O 0.46199 0.64656 0.8558 0.0
O272 O 0.46494 0.69256 0.90168 0.0
C273 C 0.72394 0.48181 0.14199 0.0
O274 O 0.71859 0.49648 0.13324 0.0
O275 O 0.67989 0.44476 0.12364 0.0
Zn276 Zn 0.6957 0.46688 0.12071 0.0
O277 O 0.6804 0.48916 0.12505 0.0
C278 C 0.70535 0.45554 0.08402 0.0
O279 O 0.69943 0.43948 0.08927 0.0
O280 O 0.71615 0.46672 0.13867 0.0
C281 C 0.66383 0.48971 0.12007 0.0
O282 O 0.65658 0.47546 0.11202 0.0
C283 C 0.6696 0.44352 0.1375 0.0
O284 O 0.67045 0.4562 0.15011 0.0
O285 O 0.70536 0.46868 0.09528 0.0
C286 C 0.52141 0.69236 0.16163 0.0
O287 O 0.51517 0.67573 0.16386 0.0
O288 O 0.55134 0.65963 0.132 0.0
Zn289 Zn 0.53066 0.67713 0.12758 0.0
O290 O 0.50713 0.66327 0.12798 0.0
C291 C 0.53388 0.67639 0.08967 0.0
O292 O 0.53721 0.65929 0.09377 0.0
O293 O 0.5294 0.69643 0.14682 0.0
C294 C 0.49249 0.67018 0.12186 0.0
O295 O 0.49275 0.68679 0.1152 0.0
C296 C 0.54804 0.64501 0.14068 0.0
O297 O 0.53163 0.64232 0.14729 0.0
O298 O 0.53193 0.68781 0.10253 0.0
C299 C 0.49005 0.29952 0.16244 0.0
O300 O 0.49705 0.31581 0.16482 0.0
O301 O 0.45259 0.33063 0.13634 0.0
Zn302 Zn 0.4756 0.31695 0.13095 0.0
O303 O 0.49706 0.33402 0.13213 0.0
C304 C 0.47473 0.32011 0.09335 0.0
O305 O 0.4733 0.33713 0.09872 0.0
O306 O 0.47976 0.29662 0.1488 0.0
C307 C 0.51178 0.32918 0.12439 0.0
O308 O 0.51239 0.31343 0.1159 0.0
C309 C 0.45174 0.34167 0.14963 0.0
O310 O 0.46596 0.34349 0.16037 0.0
O311 O 0.47486 0.30761 0.10532 0.0
H312 H 0.09185 0.45587 0.35612 0.0
H313 H 0.09312 0.43294 0.38008 0.0
H314 H 0.14668 0.41677 0.36214 0.0
H315 H 0.14548 0.4397 0.33787 0.0
H316 H 0.12472 0.38732 0.37062 0.0
H317 H 0.14329 0.44306 0.39853 0.0
H318 H 0.1412 0.47564 0.40643 0.0
H319 H 0.09053 0.466 0.43401 0.0
H320 H 0.09217 0.43339 0.42604 0.0
H321 H 0.14104 0.33781 0.45335 0.0
H322 H 0.14382 0.359 0.42776 0.0
H323 H 0.09079 0.38106 0.44018 0.0
H324 H 0.08794 0.36009 0.46581 0.0
H325 H 0.11585 0.40761 0.4345 0.0
H326 H 0.09646 0.35224 0.40479 0.0
H327 H 0.09852 0.31968 0.39675 0.0
H328 H 0.15109 0.32867 0.37272 0.0
H329 H 0.14945 0.36125 0.38085 0.0
C330 C 0.10389 0.44741 0.35717 0.0
C331 C 0.11864 0.4497 0.34518 0.0
C332 C 0.1046 0.43434 0.37092 0.0
C333 C 0.12011 0.42339 0.37305 0.0
C334 C 0.13463 0.42518 0.36075 0.0
C335 C 0.13393 0.43829 0.34694 0.0
C336 C 0.12113 0.41038 0.3884 0.0
C337 C 0.12311 0.39175 0.38462 0.0
C338 C 0.11878 0.4162 0.40663 0.0
C339 C 0.11779 0.4358 0.41156 0.0
C340 C 0.13163 0.44791 0.40616 0.0
C341 C 0.13054 0.46638 0.41067 0.0
C342 C 0.11572 0.47289 0.42068 0.0
C343 C 0.10199 0.46094 0.42625 0.0
C344 C 0.10301 0.44246 0.42175 0.0
C345 C 0.12995 0.34714 0.4506 0.0
C346 C 0.11426 0.34727 0.46159 0.0
C347 C 0.13154 0.35919 0.43594 0.0
C348 C 0.11746 0.3715 0.43203 0.0
C349 C 0.10181 0.37166 0.44299 0.0
C350 C 0.10019 0.35962 0.4576 0.0
C351 C 0.11904 0.38451 0.4167 0.0
C352 C 0.11762 0.40317 0.42051 0.0
C353 C 0.12194 0.3787 0.39855 0.0
C354 C 0.12292 0.35913 0.39361 0.0
C355 C 0.10853 0.34724 0.39793 0.0
C356 C 0.1096 0.32879 0.39333 0.0
C357 C 0.12495 0.3221 0.38428 0.0
C358 C 0.13923 0.33386 0.37976 0.0
C359 C 0.13822 0.35232 0.38435 0.0
H360 H 0.12576 0.30781 0.38073 0.0
H361 H 0.1149 0.4872 0.42416 0.0
H362 H 0.6382 0.08421 0.46706 0.0
H363 H 0.61678 0.08234 0.44166 0.0
H364 H 0.63644 0.13383 0.42119 0.0
H365 H 0.65751 0.13607 0.44686 0.0
H366 H 0.60065 0.1332 0.42102 0.0
H367 H 0.64784 0.09228 0.40129 0.0
H368 H 0.66875 0.06619 0.40453 0.0
H369 H 0.62316 0.02988 0.40958 0.0
H370 H 0.60196 0.05578 0.40667 0.0
H371 H 0.55587 0.13077 0.33637 0.0
H372 H 0.58041 0.1302 0.35885 0.0
H373 H 0.55901 0.08021 0.38115 0.0
H374 H 0.53456 0.0805 0.35851 0.0
H375 H 0.5961 0.07974 0.37987 0.0
H376 H 0.54922 0.12014 0.40122 0.0
H377 H 0.52783 0.14595 0.39915 0.0
H378 H 0.57262 0.18289 0.39192 0.0
H379 H 0.59428 0.15725 0.39369 0.0
C380 C 0.638 0.09512 0.45713 0.0
C381 C 0.64951 0.11032 0.45899 0.0
C382 C 0.62583 0.09397 0.44255 0.0
C383 C 0.62516 0.10784 0.4294 0.0
C384 C 0.63674 0.12297 0.43117 0.0
C385 C 0.64879 0.12421 0.44583 0.0
C386 C 0.61192 0.10698 0.41416 0.0
C387 C 0.59989 0.12164 0.41183 0.0
C388 C 0.61057 0.09165 0.40251 0.0
C389 C 0.62331 0.07601 0.4039 0.0
C390 C 0.64227 0.07875 0.40319 0.0
C391 C 0.65418 0.06399 0.40496 0.0
C392 C 0.64729 0.04639 0.40728 0.0
C393 C 0.62848 0.04351 0.40779 0.0
C394 C 0.61651 0.05823 0.40606 0.0
C395 C 0.55646 0.11956 0.34594 0.0
C396 C 0.54314 0.10579 0.3458 0.0
C397 C 0.57048 0.11927 0.3588 0.0
C398 C 0.57135 0.10531 0.37184 0.0
C399 C 0.55854 0.09113 0.37124 0.0
C400 C 0.54454 0.09137 0.35834 0.0
C401 C 0.58502 0.10604 0.38668 0.0
C402 C 0.59702 0.09134 0.38899 0.0
C403 C 0.58635 0.1213 0.39839 0.0
C404 C 0.57336 0.13675 0.3974 0.0
C405 C 0.5545 0.13375 0.39905 0.0
C406 C 0.54233 0.14835 0.39795 0.0
C407 C 0.54886 0.16604 0.39535 0.0
C408 C 0.56758 0.16917 0.3939 0.0
C409 C 0.57981 0.15462 0.39496 0.0
H410 H 0.53941 0.17733 0.39451 0.0
H411 H 0.65652 0.03499 0.40866 0.0
H412 H 0.84279 0.62627 0.48885 0.0
H413 H 0.83952 0.60585 0.46274 0.0
H414 H 0.87578 0.63994 0.43144 0.0
H415 H 0.87869 0.66069 0.45727 0.0
H416 H 0.8479 0.6298 0.4112 0.0
H417 H 0.89006 0.59947 0.45139 0.0
H418 H 0.90013 0.58641 0.48066 0.0
H419 H 0.85541 0.54869 0.47953 0.0
H420 H 0.84493 0.5617 0.45035 0.0
H421 H 0.87709 0.56757 0.34302 0.0
H422 H 0.87464 0.58883 0.36854 0.0
H423 H 0.83466 0.55401 0.39389 0.0
H424 H 0.83703 0.53264 0.36844 0.0
H425 H 0.86202 0.564 0.41737 0.0
H426 H 0.82129 0.59326 0.37575 0.0
H427 H 0.81165 0.60653 0.34644 0.0
H428 H 0.85442 0.6463 0.35004 0.0
H429 H 0.86449 0.6331 0.37927 0.0
C430 C 0.85005 0.62942 0.4764 0.0
C431 C 0.86106 0.64505 0.47514 0.0
C432 C 0.84821 0.61771 0.46151 0.0
C433 C 0.85759 0.62124 0.44521 0.0
C434 C 0.86841 0.63695 0.44387 0.0
C435 C 0.87011 0.64876 0.45868 0.0
C436 C 0.85634 0.60852 0.42957 0.0
C437 C 0.85117 0.61545 0.41251 0.0
C438 C 0.86017 0.5897 0.43138 0.0
C439 C 0.8666 0.58168 0.44879 0.0
C440 C 0.88231 0.58847 0.45744 0.0
C441 C 0.8881 0.58106 0.47401 0.0
C442 C 0.87838 0.56676 0.48198 0.0
C443 C 0.8629 0.55978 0.47336 0.0
C444 C 0.85704 0.56716 0.4568 0.0
C445 C 0.86763 0.56453 0.35392 0.0
C446 C 0.85725 0.54842 0.35371 0.0
C447 C 0.86621 0.57671 0.36846 0.0
C448 C 0.85441 0.57301 0.38304 0.0
C449 C 0.84383 0.5571 0.38275 0.0
C450 C 0.84515 0.54496 0.36816 0.0
C451 C 0.8538 0.58534 0.39899 0.0
C452 C 0.85863 0.57833 0.4161 0.0
C453 C 0.84977 0.60409 0.3972 0.0
C454 C 0.84374 0.61208 0.37963 0.0
C455 C 0.82874 0.60474 0.37022 0.0
C456 C 0.82318 0.61227 0.35363 0.0
C457 C 0.83245 0.62722 0.34636 0.0
C458 C 0.84727 0.6347 0.35568 0.0
C459 C 0.8529 0.62722 0.37227 0.0
H460 H 0.82812 0.63303 0.33352 0.0
H461 H 0.88287 0.56107 0.49482 0.0
H462 H 0.33757 0.85966 0.44995 0.0
H463 H 0.35939 0.85627 0.42507 0.0
H464 H 0.39387 0.89712 0.44958 0.0
H465 H 0.37187 0.90096 0.47426 0.0
H466 H 0.39307 0.90171 0.41413 0.0
H467 H 0.40289 0.85144 0.45447 0.0
H468 H 0.39417 0.82461 0.47271 0.0
H469 H 0.37699 0.79681 0.42417 0.0
H470 H 0.38538 0.82359 0.40566 0.0
H471 H 0.47445 0.84775 0.37329 0.0
H472 H 0.45109 0.85161 0.3966 0.0
H473 H 0.41638 0.87856 0.35753 0.0
H474 H 0.43994 0.8752 0.33423 0.0
H475 H 0.41772 0.84022 0.40068 0.0
H476 H 0.3918 0.91146 0.37874 0.0
H477 H 0.40327 0.93895 0.36314 0.0
H478 H 0.45787 0.92588 0.37959 0.0
H479 H 0.4467 0.89847 0.39548 0.0
C480 C 0.34975 0.868 0.45 0.0
C481 C 0.35306 0.8805 0.46413 0.0
C482 C 0.36224 0.866 0.4358 0.0
C483 C 0.3784 0.87623 0.43562 0.0
C484 C 0.3815 0.88907 0.44946 0.0
C485 C 0.36893 0.89121 0.46358 0.0
C486 C 0.39229 0.87326 0.42128 0.0
C487 C 0.39842 0.88826 0.41115 0.0
C488 C 0.39954 0.85576 0.41763 0.0
C489 C 0.3946 0.83959 0.4287 0.0
C490 C 0.39714 0.83965 0.4477 0.0
C491 C 0.39227 0.82445 0.45808 0.0
C492 C 0.38498 0.80903 0.44961 0.0
C493 C 0.3826 0.80877 0.43072 0.0
C494 C 0.38743 0.82395 0.42027 0.0
C495 C 0.46182 0.85442 0.36961 0.0
C496 C 0.45909 0.86128 0.35195 0.0
C497 C 0.44845 0.85658 0.38296 0.0
C498 C 0.43209 0.86558 0.37889 0.0
C499 C 0.42906 0.87188 0.36108 0.0
C500 C 0.4425 0.86988 0.34775 0.0
C501 C 0.4184 0.86866 0.39342 0.0
C502 C 0.41229 0.85366 0.40358 0.0
C503 C 0.41158 0.88624 0.39745 0.0
C504 C 0.41842 0.90282 0.38812 0.0
C505 C 0.40624 0.9145 0.37907 0.0
C506 C 0.41269 0.93006 0.37017 0.0
C507 C 0.43129 0.93412 0.37032 0.0
C508 C 0.44348 0.92268 0.37942 0.0
C509 C 0.43709 0.90712 0.38836 0.0
H510 H 0.43626 0.94616 0.3634 0.0
H511 H 0.38122 0.79728 0.45767 0.0
H512 H 0.15153 0.53852 0.62248 0.0
H513 H 0.15195 0.56574 0.60352 0.0
H514 H 0.11907 0.59409 0.64313 0.0
H515 H 0.11829 0.56667 0.66212 0.0
H516 H 0.10589 0.59882 0.60979 0.0
H517 H 0.1641 0.60503 0.6374 0.0
H518 H 0.19458 0.59549 0.64781 0.0
H519 H 0.21052 0.58505 0.59251 0.0
H520 H 0.18005 0.59428 0.58177 0.0
H521 H 0.11458 0.68005 0.55699 0.0
H522 H 0.11753 0.6591 0.58277 0.0
H523 H 0.14672 0.62116 0.54871 0.0
H524 H 0.14391 0.64199 0.52292 0.0
H525 H 0.1622 0.62487 0.58292 0.0
H526 H 0.10248 0.61492 0.55638 0.0
H527 H 0.07193 0.62445 0.54613 0.0
H528 H 0.05907 0.64238 0.60031 0.0
H529 H 0.08966 0.63317 0.61082 0.0
C530 C 0.1445 0.55057 0.62727 0.0
C531 C 0.13485 0.55041 0.6438 0.0
C532 C 0.14486 0.56618 0.61646 0.0
C533 C 0.13574 0.58203 0.62202 0.0
C534 C 0.12626 0.58202 0.63862 0.0
C535 C 0.12585 0.56635 0.64946 0.0
C536 C 0.13525 0.59816 0.60987 0.0
C537 C 0.11822 0.60479 0.60424 0.0
C538 C 0.15134 0.60577 0.60241 0.0
C539 C 0.16973 0.60024 0.60879 0.0
C540 C 0.17406 0.60058 0.62746 0.0
C541 C 0.19134 0.59524 0.63342 0.0
C542 C 0.20447 0.58964 0.62083 0.0
C543 C 0.20034 0.58939 0.60225 0.0
C544 C 0.18307 0.5947 0.59622 0.0
C545 C 0.12174 0.66731 0.55502 0.0
C546 C 0.1289 0.66262 0.53788 0.0
C547 C 0.12338 0.65536 0.56975 0.0
C548 C 0.13222 0.63855 0.56758 0.0
C549 C 0.13986 0.63409 0.55065 0.0
C550 C 0.13816 0.64597 0.53591 0.0
C551 C 0.13287 0.62517 0.58265 0.0
C552 C 0.14992 0.61908 0.58877 0.0
C553 C 0.11682 0.6181 0.59062 0.0
C554 C 0.09842 0.62356 0.58433 0.0
C555 C 0.09319 0.62103 0.56607 0.0
C556 C 0.07586 0.62635 0.56022 0.0
C557 C 0.06359 0.63407 0.57255 0.0
C558 C 0.0686 0.63644 0.59077 0.0
C559 C 0.08593 0.63116 0.59668 0.0
H560 H 0.05017 0.63818 0.568 0.0
H561 H 0.21784 0.58551 0.62547 0.0
H562 H 0.37528 0.09972 0.5215 0.0
H563 H 0.39571 0.10188 0.5477 0.0
H564 H 0.35953 0.1408 0.57284 0.0
H565 H 0.33933 0.13913 0.54646 0.0
H566 H 0.39269 0.15189 0.57652 0.0
H567 H 0.36179 0.09606 0.58729 0.0
H568 H 0.34993 0.06552 0.57982 0.0
H569 H 0.40451 0.04582 0.57249 0.0
H570 H 0.4167 0.07633 0.5796 0.0
H571 H 0.44246 0.11357 0.66331 0.0
H572 H 0.41774 0.11191 0.64097 0.0
H573 H 0.45009 0.14287 0.60288 0.0
H574 H 0.47455 0.14505 0.62525 0.0
H575 H 0.41544 0.09702 0.60878 0.0
H576 H 0.42409 0.16894 0.57637 0.0
H577 H 0.43304 0.19994 0.58576 0.0
H578 H 0.41745 0.18809 0.64087 0.0
H579 H 0.40817 0.15711 0.63177 0.0
C580 C 0.37167 0.10872 0.53262 0.0
C581 C 0.3557 0.11924 0.53192 0.0
C582 C 0.3833 0.10987 0.54763 0.0
C583 C 0.37902 0.12131 0.56236 0.0
C584 C 0.3631 0.13187 0.56165 0.0
C585 C 0.35156 0.13088 0.54656 0.0
C586 C 0.39137 0.12262 0.5783 0.0
C587 C 0.39762 0.13989 0.5836 0.0
C588 C 0.39741 0.107 0.58787 0.0
C589 C 0.39016 0.08854 0.58385 0.0
C590 C 0.37127 0.08525 0.58398 0.0
C591 C 0.36448 0.06794 0.57982 0.0
C592 C 0.37646 0.05375 0.57566 0.0
C593 C 0.39525 0.05683 0.57571 0.0
C594 C 0.40211 0.07413 0.57982 0.0
C595 C 0.44424 0.12014 0.65022 0.0
C596 C 0.46041 0.12956 0.64609 0.0
C597 C 0.43013 0.11912 0.63745 0.0
C598 C 0.43196 0.12745 0.62033 0.0
C599 C 0.44819 0.13668 0.61614 0.0
C600 C 0.4622 0.13786 0.62893 0.0
C601 C 0.41711 0.12626 0.60666 0.0
C602 C 0.4104 0.10902 0.60178 0.0
C603 C 0.4102 0.14195 0.59783 0.0
C604 C 0.41558 0.16064 0.6034 0.0
C605 C 0.42249 0.17297 0.59047 0.0
C606 C 0.42764 0.19054 0.59575 0.0
C607 C 0.42586 0.19596 0.61391 0.0
C608 C 0.41888 0.18385 0.62682 0.0
C609 C 0.4137 0.16628 0.62162 0.0
H610 H 0.42987 0.20956 0.61797 0.0
H611 H 0.37117 0.04036 0.57242 0.0
H612 H 0.85043 0.44577 0.65478 0.0
H613 H 0.85049 0.42171 0.63169 0.0
H614 H 0.90003 0.44364 0.60888 0.0
H615 H 0.89993 0.46783 0.63165 0.0
H616 H 0.87612 0.43561 0.58268 0.0
H617 H 0.90047 0.40562 0.63568 0.0
H618 H 0.90058 0.39531 0.66765 0.0
H619 H 0.85157 0.36474 0.65827 0.0
H620 H 0.85103 0.37507 0.62628 0.0
H621 H 0.90704 0.36268 0.52899 0.0
H622 H 0.90471 0.38471 0.55381 0.0
H623 H 0.8527 0.36214 0.56924 0.0
H624 H 0.85488 0.33997 0.54438 0.0
H625 H 0.87569 0.37002 0.5991 0.0
H626 H 0.85241 0.39908 0.54547 0.0
H627 H 0.85326 0.4087 0.5133 0.0
H628 H 0.90097 0.44088 0.52388 0.0
H629 H 0.90062 0.43118 0.55606 0.0
C630 C 0.86134 0.44546 0.64485 0.0
C631 C 0.87519 0.4587 0.64506 0.0
C632 C 0.86138 0.43166 0.63171 0.0
C633 C 0.87535 0.43081 0.61867 0.0
C634 C 0.88911 0.44406 0.61881 0.0
C635 C 0.88906 0.45786 0.63188 0.0
C636 C 0.87564 0.41622 0.60472 0.0
C637 C 0.87621 0.42128 0.58629 0.0
C638 C 0.87529 0.39752 0.60943 0.0
C639 C 0.87559 0.39129 0.62865 0.0
C640 C 0.88963 0.39682 0.64047 0.0
C641 C 0.88979 0.39095 0.65859 0.0
C642 C 0.87606 0.37942 0.665 0.0
C643 C 0.86217 0.3737 0.65329 0.0
C644 C 0.86194 0.37955 0.63517 0.0
C645 C 0.89517 0.36227 0.53774 0.0
C646 C 0.88107 0.34967 0.53465 0.0
C647 C 0.89385 0.37489 0.55188 0.0
C648 C 0.87844 0.37514 0.56317 0.0
C649 C 0.86467 0.36215 0.5606 0.0
C650 C 0.86592 0.34956 0.54638 0.0
C651 C 0.87646 0.38948 0.57717 0.0
C652 C 0.8755 0.38437 0.59555 0.0
C653 C 0.87651 0.40815 0.57244 0.0
C654 C 0.87658 0.41427 0.55315 0.0
C655 C 0.86317 0.4081 0.54092 0.0
C656 C 0.86355 0.41358 0.52268 0.0
C657 C 0.87718 0.42536 0.51654 0.0
C658 C 0.89043 0.43174 0.52865 0.0
C659 C 0.89014 0.42626 0.54689 0.0
H660 H 0.87746 0.42958 0.50241 0.0
H661 H 0.87621 0.37488 0.67903 0.0
H662 H 0.55789 0.87088 0.66694 0.0
H663 H 0.58194 0.87371 0.644 0.0
H664 H 0.54239 0.86431 0.60145 0.0
H665 H 0.51861 0.86054 0.62431 0.0
H666 H 0.57083 0.84685 0.59323 0.0
H667 H 0.56014 0.90817 0.61311 0.0
H668 H 0.55738 0.93338 0.63515 0.0
H669 H 0.61325 0.92612 0.65097 0.0
H670 H 0.61627 0.90069 0.62917 0.0
H671 H 0.61709 0.89107 0.51934 0.0
H672 H 0.59634 0.88706 0.54516 0.0
H673 H 0.64133 0.87026 0.57897 0.0
H674 H 0.66216 0.87372 0.55305 0.0
H675 H 0.61233 0.90024 0.5924 0.0
H676 H 0.62144 0.83824 0.57018 0.0
H677 H 0.62256 0.81523 0.54573 0.0
H678 H 0.56692 0.82683 0.53183 0.0
H679 H 0.56558 0.85014 0.55603 0.0
C680 C 0.55439 0.86937 0.65268 0.0
C681 C 0.5364 0.8655 0.64739 0.0
C682 C 0.56811 0.8711 0.63957 0.0
C683 C 0.56396 0.86952 0.62093 0.0
C684 C 0.54598 0.86555 0.61571 0.0
C685 C 0.53238 0.86343 0.6288 0.0
C686 C 0.57824 0.87189 0.60678 0.0
C687 C 0.57978 0.85862 0.59307 0.0
C688 C 0.59014 0.88712 0.60655 0.0
C689 C 0.58837 0.90239 0.61967 0.0
C690 C 0.57179 0.91185 0.62139 0.0
C691 C 0.57019 0.9262 0.63382 0.0
C692 C 0.58511 0.93131 0.64449 0.0
C693 C 0.60169 0.92212 0.64272 0.0
C694 C 0.60336 0.90775 0.63032 0.0
C695 C 0.62258 0.88661 0.53229 0.0
C696 C 0.64121 0.88266 0.53421 0.0
C697 C 0.61073 0.88433 0.54698 0.0
C698 C 0.61739 0.87838 0.56386 0.0
C699 C 0.63603 0.87488 0.56599 0.0
C700 C 0.64785 0.87679 0.55119 0.0
C701 C 0.60465 0.8753 0.57908 0.0
C702 C 0.60342 0.88844 0.59285 0.0
C703 C 0.59276 0.8602 0.57917 0.0
C704 C 0.59348 0.84606 0.56478 0.0
C705 C 0.60951 0.83601 0.56179 0.0
C706 C 0.61017 0.82289 0.548 0.0
C707 C 0.59484 0.81961 0.53719 0.0
C708 C 0.57879 0.8294 0.54019 0.0
C709 C 0.57807 0.84256 0.55395 0.0
H710 H 0.59537 0.80944 0.52652 0.0
H711 H 0.58385 0.94242 0.6541 0.0
H712 H 0.37241 0.15546 0.46175 0.0
H713 H 0.3907 0.15488 0.43405 0.0
H714 H 0.35091 0.12007 0.40829 0.0
H715 H 0.33267 0.12024 0.43619 0.0
H716 H 0.38397 0.10743 0.40264 0.0
H717 H 0.35543 0.16523 0.39598 0.0
H718 H 0.34526 0.1959 0.40511 0.0
H719 H 0.40088 0.21256 0.41239 0.0
H720 H 0.41139 0.1819 0.40355 0.0
H721 H 0.4303 0.11381 0.31772 0.0
H722 H 0.40622 0.11766 0.34044 0.0
H723 H 0.44323 0.14785 0.3747 0.0
H724 H 0.46736 0.14413 0.35209 0.0
H725 H 0.40859 0.16316 0.37333 0.0
H726 H 0.4363 0.10403 0.38296 0.0
H727 H 0.44615 0.07333 0.37349 0.0
H728 H 0.39094 0.05946 0.35992 0.0
H729 H 0.38081 0.09019 0.36908 0.0
C730 C 0.36746 0.14777 0.45017 0.0
C731 C 0.35108 0.1379 0.45117 0.0
C732 C 0.37789 0.14754 0.43428 0.0
C733 C 0.37205 0.13764 0.41899 0.0
C734 C 0.35564 0.12785 0.4199 0.0
C735 C 0.34523 0.12798 0.43585 0.0
C736 C 0.3836 0.1368 0.40243 0.0
C737 C 0.38903 0.11963 0.396 0.0
C738 C 0.39045 0.15271 0.39394 0.0
C739 C 0.38419 0.1712 0.39923 0.0
C740 C 0.3655 0.17539 0.39966 0.0
C741 C 0.35967 0.19278 0.40476 0.0
C742 C 0.37241 0.20616 0.40937 0.0
C743 C 0.39102 0.20218 0.40884 0.0
C744 C 0.39692 0.1848 0.40376 0.0
C745 C 0.43327 0.12141 0.33001 0.0
C746 C 0.45078 0.12854 0.33318 0.0
C747 C 0.41951 0.12356 0.34298 0.0
C748 C 0.42302 0.13289 0.35929 0.0
C749 C 0.44026 0.1406 0.36218 0.0
C750 C 0.45405 0.13839 0.34928 0.0
C751 C 0.40908 0.13385 0.37381 0.0
C752 C 0.40325 0.15101 0.37985 0.0
C753 C 0.40177 0.11796 0.38189 0.0
C754 C 0.40784 0.09946 0.3765 0.0
C755 C 0.42629 0.09448 0.37782 0.0
C756 C 0.43192 0.07707 0.37253 0.0
C757 C 0.41918 0.06447 0.36605 0.0
C758 C 0.40079 0.06924 0.3649 0.0
C759 C 0.3951 0.08665 0.37015 0.0
H760 H 0.42357 0.051 0.36197 0.0
H761 H 0.36787 0.21962 0.41331 0.0
H762 H 0.87017 0.34249 0.43582 0.0
H763 H 0.87385 0.3656 0.41205 0.0
H764 H 0.86796 0.40799 0.45241 0.0
H765 H 0.86351 0.38504 0.47597 0.0
H766 H 0.84954 0.41689 0.42423 0.0
H767 H 0.91035 0.39437 0.43368 0.0
H768 H 0.93447 0.37104 0.4355 0.0
H769 H 0.92554 0.35705 0.3794 0.0
H770 H 0.90119 0.38012 0.37731 0.0
H771 H 0.89034 0.49167 0.37965 0.0
H772 H 0.88706 0.46533 0.39975 0.0
H773 H 0.87646 0.43092 0.35332 0.0
H774 H 0.87942 0.45733 0.33303 0.0
H775 H 0.90242 0.41679 0.3821 0.0
H776 H 0.84189 0.44135 0.37353 0.0
H777 H 0.81938 0.46626 0.37275 0.0
H778 H 0.82989 0.47792 0.42911 0.0
H779 H 0.8527 0.45325 0.43014 0.0
C780 C 0.86962 0.35675 0.43957 0.0
C781 C 0.86653 0.36197 0.45772 0.0
C782 C 0.87184 0.36994 0.42601 0.0
C783 C 0.87144 0.38856 0.43046 0.0
C784 C 0.86828 0.39373 0.4486 0.0
C785 C 0.86575 0.38059 0.46207 0.0
C786 C 0.87408 0.40277 0.41632 0.0
C787 C 0.86121 0.41688 0.41516 0.0
C788 C 0.88911 0.40266 0.40418 0.0
C789 C 0.90381 0.38883 0.4054 0.0
C790 C 0.91344 0.38622 0.42177 0.0
C791 C 0.92716 0.37306 0.42284 0.0
C792 C 0.93149 0.36253 0.40759 0.0
C793 C 0.92215 0.36519 0.39121 0.0
C794 C 0.90839 0.37831 0.39007 0.0
C795 C 0.88747 0.47848 0.37367 0.0
C796 C 0.88503 0.47657 0.35478 0.0
C797 C 0.8856 0.46347 0.38517 0.0
C798 C 0.88148 0.44627 0.37796 0.0
C799 C 0.87968 0.44413 0.35907 0.0
C800 C 0.88128 0.45922 0.34755 0.0
C801 C 0.87806 0.43083 0.39037 0.0
C802 C 0.89073 0.41657 0.39115 0.0
C803 C 0.86304 0.43092 0.40238 0.0
C804 C 0.84912 0.44556 0.40187 0.0
C805 C 0.83951 0.44932 0.38572 0.0
C806 C 0.82667 0.46338 0.38524 0.0
C807 C 0.82324 0.47369 0.40086 0.0
C808 C 0.83258 0.46993 0.41701 0.0
C809 C 0.84545 0.4559 0.41756 0.0
H810 H 0.8133 0.48458 0.40045 0.0
H811 H 0.94211 0.35235 0.40844 0.0
H812 H 0.52641 0.89881 0.36456 0.0
H813 H 0.55249 0.89579 0.38494 0.0
H814 H 0.57597 0.85549 0.34916 0.0
H815 H 0.5496 0.85805 0.32894 0.0
H816 H 0.57849 0.84429 0.38249 0.0
H817 H 0.59363 0.89922 0.35206 0.0
H818 H 0.5889 0.93012 0.33978 0.0
H819 H 0.58018 0.95062 0.39387 0.0
H820 H 0.5846 0.91979 0.40646 0.0
H821 H 0.66281 0.88001 0.4389 0.0
H822 H 0.64318 0.88126 0.41198 0.0
H823 H 0.60102 0.85268 0.44135 0.0
H824 H 0.62068 0.85094 0.46806 0.0
H825 H 0.61221 0.89757 0.40688 0.0
H826 H 0.57544 0.82744 0.41351 0.0
H827 H 0.58257 0.79612 0.42337 0.0
H828 H 0.63927 0.80518 0.41216 0.0
H829 H 0.63246 0.83646 0.402 0.0
C830 C 0.53717 0.88939 0.36095 0.0
C831 C 0.53595 0.87867 0.34513 0.0
C832 C 0.55214 0.88775 0.37257 0.0
C833 C 0.56632 0.87559 0.36846 0.0
C834 C 0.5652 0.86497 0.35259 0.0
C835 C 0.55014 0.86648 0.34104 0.0
C836 C 0.58188 0.87342 0.38119 0.0
C837 C 0.58594 0.85593 0.38774 0.0
C838 C 0.59194 0.88854 0.38769 0.0
C839 C 0.58933 0.90715 0.38019 0.0
C840 C 0.59058 0.91029 0.36133 0.0
C841 C 0.58797 0.9278 0.35431 0.0
C842 C 0.58421 0.94232 0.36603 0.0
C843 C 0.58309 0.93936 0.3848 0.0
C844 C 0.58567 0.92187 0.39189 0.0
C845 C 0.64942 0.87383 0.43955 0.0
C846 C 0.6433 0.86534 0.4556 0.0
C847 C 0.63821 0.8746 0.42418 0.0
C848 C 0.6207 0.8669 0.42457 0.0
C849 C 0.61461 0.85837 0.44057 0.0
C850 C 0.62585 0.85747 0.45589 0.0
C851 C 0.6084 0.86851 0.40861 0.0
C852 C 0.60493 0.88591 0.40147 0.0
C853 C 0.59924 0.85324 0.40121 0.0
C854 C 0.60344 0.83435 0.40712 0.0
C855 C 0.58942 0.82272 0.41306 0.0
C856 C 0.59341 0.80498 0.41872 0.0
C857 C 0.61137 0.79868 0.41844 0.0
C858 C 0.62537 0.8101 0.41244 0.0
C859 C 0.62145 0.82784 0.40675 0.0
H860 H 0.61443 0.78495 0.42284 0.0
H861 H 0.58219 0.95586 0.36057 0.0
H862 H 0.0834 0.63642 0.44978 0.0
H863 H 0.08323 0.61366 0.4255 0.0
H864 H 0.13801 0.62894 0.41062 0.0
H865 H 0.13819 0.65197 0.43468 0.0
H866 H 0.11733 0.62326 0.3808 0.0
H867 H 0.13026 0.59146 0.43651 0.0
H868 H 0.12505 0.582 0.46832 0.0
H869 H 0.07375 0.55827 0.45315 0.0
H870 H 0.07855 0.56782 0.42128 0.0
H871 H 0.14149 0.54204 0.33279 0.0
H872 H 0.14013 0.56723 0.35467 0.0
H873 H 0.08404 0.55412 0.36637 0.0
H874 H 0.08532 0.52891 0.34467 0.0
H875 H 0.10503 0.55888 0.39737 0.0
H876 H 0.09274 0.58999 0.3413 0.0
H877 H 0.09854 0.59892 0.30945 0.0
H878 H 0.14926 0.62347 0.32527 0.0
H879 H 0.1439 0.61442 0.3572 0.0
C880 C 0.09538 0.63502 0.44128 0.0
C881 C 0.11087 0.64589 0.44426 0.0
C882 C 0.09528 0.62197 0.42744 0.0
C883 C 0.11071 0.61943 0.41645 0.0
C884 C 0.12597 0.63066 0.41899 0.0
C885 C 0.12607 0.64377 0.43278 0.0
C886 C 0.11114 0.60468 0.40267 0.0
C887 C 0.11485 0.60916 0.38445 0.0
C888 C 0.10758 0.58632 0.4074 0.0
C889 C 0.10468 0.58053 0.42655 0.0
C890 C 0.1178 0.58436 0.43998 0.0
C891 C 0.11493 0.57896 0.45802 0.0
C892 C 0.09905 0.56959 0.46276 0.0
C893 C 0.08603 0.56555 0.44946 0.0
C894 C 0.08882 0.57095 0.43141 0.0
C895 C 0.12886 0.54459 0.33998 0.0
C896 C 0.11346 0.53363 0.33691 0.0
C897 C 0.12808 0.559 0.35239 0.0
C898 C 0.11194 0.56258 0.36199 0.0
C899 C 0.09659 0.5516 0.35902 0.0
C900 C 0.09731 0.5373 0.34652 0.0
C901 C 0.11118 0.57747 0.37554 0.0
C902 C 0.10745 0.573 0.39373 0.0
C903 C 0.11479 0.59579 0.37078 0.0
C904 C 0.118 0.60137 0.35162 0.0
C905 C 0.1052 0.59716 0.33797 0.0
C906 C 0.1084 0.60226 0.31991 0.0
C907 C 0.12428 0.61172 0.31533 0.0
C908 C 0.13697 0.61612 0.32883 0.0
C909 C 0.13386 0.61102 0.34692 0.0
H910 H 0.12673 0.61566 0.30134 0.0
H911 H 0.09686 0.56541 0.47673 0.0
H912 H 0.33458 0.87213 0.56081 0.0
H913 H 0.35542 0.8748 0.5867 0.0
H914 H 0.39973 0.85586 0.55304 0.0
H915 H 0.37892 0.85258 0.52735 0.0
H916 H 0.40269 0.8414 0.58505 0.0
H917 H 0.39268 0.90189 0.56227 0.0
H918 H 0.37436 0.92851 0.55306 0.0
H919 H 0.35307 0.93298 0.60736 0.0
H920 H 0.37109 0.90622 0.61682 0.0
H921 H 0.46768 0.9043 0.63913 0.0
H922 H 0.44351 0.90038 0.61661 0.0
H923 H 0.42334 0.85373 0.64615 0.0
H924 H 0.44781 0.85725 0.66849 0.0
H925 H 0.40775 0.90086 0.61684 0.0
H926 H 0.4082 0.82201 0.61613 0.0
H927 H 0.4294 0.79672 0.62256 0.0
H928 H 0.47493 0.83134 0.61021 0.0
H929 H 0.454 0.85674 0.60346 0.0
C930 C 0.34874 0.8684 0.55899 0.0
C931 C 0.35514 0.86224 0.54202 0.0
C932 C 0.36064 0.87001 0.57376 0.0
C933 C 0.3792 0.86581 0.57173 0.0
C934 C 0.38548 0.85918 0.55494 0.0
C935 C 0.37356 0.85736 0.54024 0.0
C936 C 0.39226 0.86878 0.58688 0.0
C937 C 0.40372 0.85437 0.59206 0.0
C938 C 0.39385 0.8858 0.59583 0.0
C939 C 0.38307 0.90194 0.5902 0.0
C940 C 0.38399 0.90847 0.57221 0.0
C941 C 0.37368 0.92359 0.56695 0.0
C942 C 0.36252 0.9324 0.57961 0.0
C943 C 0.36169 0.92613 0.59756 0.0
C944 C 0.37196 0.91099 0.60288 0.0
C945 C 0.45803 0.89328 0.64092 0.0
C946 C 0.45975 0.88097 0.65548 0.0
C947 C 0.44418 0.89109 0.62806 0.0
C948 C 0.43177 0.87661 0.62956 0.0
C949 C 0.43297 0.86479 0.64455 0.0
C950 C 0.44692 0.86686 0.65732 0.0
C951 C 0.41813 0.87347 0.61499 0.0
C952 C 0.40657 0.88783 0.60995 0.0
C953 C 0.41684 0.85659 0.60576 0.0
C954 C 0.42953 0.84132 0.60951 0.0
C955 C 0.42274 0.8242 0.61473 0.0
C956 C 0.4347 0.80985 0.61843 0.0
C957 C 0.4535 0.81244 0.61686 0.0
C958 C 0.46037 0.82937 0.61149 0.0
C959 C 0.44846 0.84374 0.60774 0.0
H960 H 0.46274 0.80133 0.61975 0.0
H961 H 0.35454 0.9441 0.57551 0.0
H962 H 0.11274 0.43615 0.67428 0.0
H963 H 0.11302 0.4122 0.65108 0.0
H964 H 0.13513 0.45022 0.61207 0.0
H965 H 0.13452 0.47426 0.635 0.0
H966 H 0.10778 0.43194 0.59764 0.0
H967 H 0.16143 0.41667 0.63231 0.0
H968 H 0.17867 0.40901 0.66012 0.0
H969 H 0.1454 0.36153 0.66801 0.0
H970 H 0.1278 0.36904 0.64036 0.0
H971 H 0.14076 0.37518 0.52827 0.0
H972 H 0.13874 0.39577 0.55425 0.0
H973 H 0.11155 0.35409 0.58549 0.0
H974 H 0.11354 0.33323 0.55945 0.0
H975 H 0.13893 0.37241 0.60503 0.0
H976 H 0.08666 0.38701 0.56885 0.0
H977 H 0.07016 0.39474 0.54062 0.0
H978 H 0.1016 0.4438 0.53534 0.0
H979 H 0.11849 0.43623 0.5634 0.0
C980 C 0.11777 0.43936 0.66079 0.0
C981 C 0.12357 0.45709 0.65645 0.0
C982 C 0.11798 0.42565 0.64757 0.0
C983 C 0.1242 0.4294 0.62987 0.0
C984 C 0.13022 0.44704 0.62562 0.0
C985 C 0.1299 0.46076 0.63876 0.0
C986 C 0.12396 0.41519 0.61553 0.0
C987 C 0.11476 0.419 0.5992 0.0
C988 C 0.13257 0.39808 0.61779 0.0
C989 C 0.14317 0.39353 0.63438 0.0
C990 C 0.1577 0.40468 0.64006 0.0
C991 C 0.16755 0.40035 0.65577 0.0
C992 C 0.1631 0.38483 0.66585 0.0
C993 C 0.14881 0.37357 0.6602 0.0
C994 C 0.1389 0.37785 0.6445 0.0
C995 C 0.13437 0.37033 0.54065 0.0
C996 C 0.12723 0.35259 0.54177 0.0
C997 C 0.13319 0.38214 0.55547 0.0
C998 C 0.12483 0.37649 0.57169 0.0
C999 C 0.11801 0.35869 0.57304 0.0
C1000 C 0.1191 0.34684 0.55815 0.0
C1001 C 0.12312 0.38938 0.58707 0.0
C1002 C 0.13186 0.3853 0.60357 0.0
C1003 C 0.11416 0.4063 0.58498 0.0
C1004 C 0.10394 0.41097 0.56816 0.0
C1005 C 0.09015 0.39938 0.56159 0.0
C1006 C 0.08071 0.40374 0.54564 0.0
C1007 C 0.08485 0.41973 0.53617 0.0
C1008 C 0.09841 0.43141 0.54267 0.0
C1009 C 0.10791 0.4271 0.55862 0.0
H1010 H 0.07753 0.42308 0.52382 0.0
H1011 H 0.17074 0.3815 0.67802 0.0
H1012 H 0.52809 0.09231 0.62901 0.0
H1013 H 0.55382 0.09596 0.60827 0.0
H1014 H 0.57797 0.13517 0.64485 0.0
H1015 H 0.55202 0.13195 0.66545 0.0
H1016 H 0.57943 0.14749 0.61175 0.0
H1017 H 0.59557 0.0917 0.6403 0.0
H1018 H 0.59118 0.06036 0.65155 0.0
H1019 H 0.58191 0.04169 0.59689 0.0
H1020 H 0.586 0.07297 0.58532 0.0
H1021 H 0.66466 0.11662 0.55483 0.0
H1022 H 0.64474 0.11334 0.58137 0.0
H1023 H 0.60146 0.14046 0.55228 0.0
H1024 H 0.62131 0.14409 0.5259 0.0
H1025 H 0.61365 0.09545 0.58551 0.0
H1026 H 0.57584 0.16505 0.58101 0.0
H1027 H 0.58239 0.19674 0.57198 0.0
H1028 H 0.63926 0.18846 0.58293 0.0
H1029 H 0.63302 0.15681 0.59227 0.0
C1030 C 0.53893 0.10161 0.63271 0.0
C1031 C 0.53802 0.11185 0.64886 0.0
C1032 C 0.55369 0.10361 0.62088 0.0
C1033 C 0.56794 0.11568 0.62511 0.0
C1034 C 0.56714 0.12577 0.64132 0.0
C1035 C 0.55231 0.12389 0.65309 0.0
C1036 C 0.58321 0.11838 0.61216 0.0
C1037 C 0.58697 0.13612 0.60609 0.0
C1038 C 0.59336 0.10359 0.60509 0.0
C1039 C 0.59097 0.08472 0.61196 0.0
C1040 C 0.59248 0.08094 0.63069 0.0
C1041 C 0.59006 0.06317 0.63712 0.0
C1042 C 0.58624 0.04905 0.62495 0.0
C1043 C 0.58487 0.05265 0.6063 0.0
C1044 C 0.58726 0.07039 0.5998 0.0
C1045 C 0.65094 0.12199 0.55414 0.0
C1046 C 0.64458 0.13067 0.53828 0.0
C1047 C 0.63957 0.12006 0.56929 0.0
C1048 C 0.62169 0.12683 0.56887 0.0
C1049 C 0.61532 0.13543 0.55303 0.0
C1050 C 0.62667 0.13742 0.53792 0.0
C1051 C 0.60944 0.12448 0.58474 0.0
C1052 C 0.60623 0.10683 0.59133 0.0
C1053 C 0.60011 0.13939 0.59262 0.0
C1054 C 0.60396 0.15849 0.5872 0.0
C1055 C 0.58973 0.17001 0.58157 0.0
C1056 C 0.59339 0.18797 0.57638 0.0
C1057 C 0.61124 0.1946 0.57683 0.0
C1058 C 0.62545 0.18329 0.58253 0.0
C1059 C 0.62186 0.16533 0.58774 0.0
H1060 H 0.61405 0.2085 0.5728 0.0
H1061 H 0.58437 0.0353 0.62995 0.0
H1062 H 0.9062 0.55168 0.66214 0.0
H1063 H 0.9038 0.57801 0.64187 0.0
H1064 H 0.84625 0.56789 0.63536 0.0
H1065 H 0.84855 0.54145 0.65538 0.0
H1066 H 0.86225 0.57368 0.60319 0.0
H1067 H 0.86156 0.60291 0.66167 0.0
H1068 H 0.87287 0.61009 0.69248 0.0
H1069 H 0.92238 0.63136 0.66971 0.0
H1070 H 0.91147 0.62406 0.63875 0.0
H1071 H 0.83602 0.65631 0.56195 0.0
H1072 H 0.83947 0.63304 0.58552 0.0
H1073 H 0.89783 0.63952 0.58369 0.0
H1074 H 0.89456 0.66271 0.55991 0.0
H1075 H 0.88222 0.63606 0.62006 0.0
H1076 H 0.88286 0.60642 0.56166 0.0
H1077 H 0.87128 0.59954 0.53087 0.0
H1078 H 0.82149 0.57913 0.55383 0.0
H1079 H 0.83267 0.58617 0.58476 0.0
C1080 C 0.89301 0.55511 0.65648 0.0
C1081 C 0.87757 0.54446 0.66035 0.0
C1082 C 0.89166 0.57021 0.64496 0.0
C1083 C 0.87482 0.57497 0.63722 0.0
C1084 C 0.85938 0.56443 0.64118 0.0
C1085 C 0.86072 0.54935 0.65266 0.0
C1086 C 0.87335 0.59057 0.62451 0.0
C1087 C 0.86639 0.58735 0.60699 0.0
C1088 C 0.87919 0.60833 0.62931 0.0
C1089 C 0.88577 0.61277 0.6479 0.0
C1090 C 0.87492 0.60898 0.66324 0.0
C1091 C 0.88125 0.61309 0.68073 0.0
C1092 C 0.89835 0.62113 0.68305 0.0
C1093 C 0.90915 0.62511 0.66789 0.0
C1094 C 0.90289 0.621 0.65037 0.0
C1095 C 0.84958 0.65299 0.56673 0.0
C1096 C 0.86504 0.66123 0.55899 0.0
C1097 C 0.85152 0.63967 0.58015 0.0
C1098 C 0.8689 0.63452 0.58618 0.0
C1099 C 0.88432 0.64335 0.57917 0.0
C1100 C 0.88241 0.65651 0.56555 0.0
C1101 C 0.87097 0.61911 0.59893 0.0
C1102 C 0.87808 0.62236 0.61636 0.0
C1103 C 0.86526 0.60136 0.59409 0.0
C1104 C 0.85853 0.59701 0.57551 0.0
C1105 C 0.86937 0.60062 0.56014 0.0
C1106 C 0.8629 0.59667 0.54266 0.0
C1107 C 0.84564 0.58895 0.5404 0.0
C1108 C 0.83484 0.58514 0.55561 0.0
C1109 C 0.84125 0.5891 0.57311 0.0
H1110 H 0.84065 0.58589 0.52686 0.0
H1111 H 0.90323 0.62431 0.69661 0.0
H1112 H 0.32098 0.44841 0.11271 0.0
H1113 H 0.34068 0.42304 0.12141 0.0
H1114 H 0.36941 0.45806 0.15893 0.0
H1115 H 0.35015 0.48361 0.14988 0.0
H1116 H 0.39261 0.44032 0.13936 0.0
H1117 H 0.33998 0.42357 0.17348 0.0
H1118 H 0.30745 0.41702 0.17868 0.0
H1119 H 0.30999 0.37255 0.14075 0.0
H1120 H 0.34248 0.37902 0.13509 0.0
H1121 H 0.44727 0.36961 0.17387 0.0
H1122 H 0.42284 0.39224 0.17419 0.0
H1123 H 0.39594 0.36411 0.13016 0.0
H1124 H 0.42023 0.34136 0.12977 0.0
H1125 H 0.37149 0.37832 0.15611 0.0
H1126 H 0.42335 0.3979 0.12008 0.0
H1127 H 0.4559 0.40467 0.11523 0.0
H1128 H 0.45437 0.44436 0.1582 0.0
H1129 H 0.42184 0.43762 0.16346 0.0
C1130 C 0.33139 0.45066 0.12293 0.0
C1131 C 0.33409 0.46802 0.13054 0.0
C1132 C 0.34257 0.43611 0.12799 0.0
C1133 C 0.35642 0.43858 0.14098 0.0
C1134 C 0.35883 0.45583 0.14888 0.0
C1135 C 0.34781 0.47042 0.14368 0.0
C1136 C 0.36922 0.42357 0.14537 0.0
C1137 C 0.38795 0.42688 0.1434 0.0
C1138 C 0.36317 0.40591 0.15028 0.0
C1139 C 0.34366 0.40188 0.15375 0.0
C1140 C 0.33358 0.41247 0.16614 0.0
C1141 C 0.31515 0.40876 0.16919 0.0
C1142 C 0.30665 0.3944 0.16003 0.0
C1143 C 0.31659 0.38368 0.14783 0.0
C1144 C 0.33502 0.38736 0.14471 0.0
C1145 C 0.43601 0.36805 0.16445 0.0
C1146 C 0.43582 0.35384 0.15161 0.0
C1147 C 0.42207 0.38099 0.16467 0.0
C1148 C 0.40774 0.37994 0.15204 0.0
C1149 C 0.4069 0.36515 0.14 0.0
C1150 C 0.42085 0.35222 0.13974 0.0
C1151 C 0.39471 0.39519 0.15008 0.0
C1152 C 0.37602 0.39188 0.15237 0.0
C1153 C 0.40074 0.41292 0.14558 0.0
C1154 C 0.42023 0.41711 0.14229 0.0
C1155 C 0.42999 0.40797 0.12857 0.0
C1156 C 0.44843 0.41182 0.12574 0.0
C1157 C 0.45721 0.4249 0.13644 0.0
C1158 C 0.44756 0.43421 0.14994 0.0
C1159 C 0.42912 0.43039 0.15285 0.0
H1160 H 0.47149 0.42786 0.13423 0.0
H1161 H 0.29238 0.39155 0.1624 0.0
H1162 H 0.445 0.61854 0.84456 0.0
H1163 H 0.4191 0.59801 0.84121 0.0
H1164 H 0.38488 0.63621 0.86993 0.0
H1165 H 0.41089 0.65674 0.87366 0.0
H1166 H 0.38072 0.60308 0.8832 0.0
H1167 H 0.37965 0.62909 0.82397 0.0
H1168 H 0.39198 0.63938 0.79448 0.0
H1169 H 0.40693 0.58442 0.7812 0.0
H1170 H 0.39494 0.57382 0.81074 0.0
H1171 H 0.30391 0.54626 0.86819 0.0
H1172 H 0.3234 0.57315 0.86526 0.0
H1173 H 0.36613 0.53986 0.84254 0.0
H1174 H 0.34678 0.51291 0.84539 0.0
H1175 H 0.36249 0.57368 0.82509 0.0
H1176 H 0.36707 0.54906 0.88628 0.0
H1177 H 0.35464 0.53897 0.91581 0.0
H1178 H 0.33256 0.59234 0.92506 0.0
H1179 H 0.34466 0.60266 0.89543 0.0
C1180 C 0.43194 0.62268 0.85003 0.0
C1181 C 0.43001 0.63925 0.85942 0.0
C1182 C 0.4171 0.61097 0.84799 0.0
C1183 C 0.4 0.61568 0.85512 0.0
C1184 C 0.39795 0.63234 0.86427 0.0
C1185 C 0.41282 0.64405 0.86637 0.0
C1186 C 0.38465 0.60258 0.8541 0.0
C1187 C 0.37646 0.59697 0.87043 0.0
C1188 C 0.37928 0.59439 0.83747 0.0
C1189 C 0.3865 0.60068 0.81965 0.0
C1190 C 0.38569 0.61921 0.81483 0.0
C1191 C 0.3926 0.6251 0.79809 0.0
C1192 C 0.40026 0.61257 0.78599 0.0
C1193 C 0.401 0.59411 0.79059 0.0
C1194 C 0.39413 0.58816 0.80733 0.0
C1195 C 0.31736 0.54469 0.86234 0.0
C1196 C 0.32389 0.52743 0.8572 0.0
C1197 C 0.32846 0.56006 0.8607 0.0
C1198 C 0.34623 0.55841 0.85385 0.0
C1199 C 0.35244 0.54138 0.84785 0.0
C1200 C 0.3414 0.526 0.84959 0.0
C1201 C 0.35888 0.57409 0.85418 0.0
C1202 C 0.36657 0.5801 0.83777 0.0
C1203 C 0.36375 0.58273 0.87071 0.0
C1204 C 0.35657 0.57656 0.88855 0.0
C1205 C 0.35943 0.55859 0.89454 0.0
C1206 C 0.35247 0.55284 0.91131 0.0
C1207 C 0.34276 0.56499 0.92228 0.0
C1208 C 0.34005 0.58293 0.91653 0.0
C1209 C 0.34696 0.58874 0.89976 0.0
H1210 H 0.33739 0.56051 0.93526 0.0
H1211 H 0.4056 0.61715 0.77303 0.0
H1212 H 0.46295 0.33134 0.86672 0.0
H1213 H 0.43459 0.34882 0.86729 0.0
H1214 H 0.46137 0.39142 0.8977 0.0
H1215 H 0.48965 0.37395 0.89747 0.0
H1216 H 0.42832 0.38418 0.91153 0.0
H1217 H 0.4537 0.39552 0.85198 0.0
H1218 H 0.46599 0.38682 0.82195 0.0
H1219 H 0.41566 0.36001 0.80876 0.0
H1220 H 0.40316 0.36836 0.83883 0.0
H1221 H 0.37047 0.4595 0.89713 0.0
H1222 H 0.39556 0.4378 0.89833 0.0
H1223 H 0.36396 0.39928 0.8671 0.0
H1224 H 0.33883 0.42114 0.8655 0.0
H1225 H 0.39768 0.40203 0.85397 0.0
H1226 H 0.37145 0.39295 0.91289 0.0
H1227 H 0.35932 0.40207 0.94285 0.0
H1228 H 0.41124 0.42485 0.95732 0.0
H1229 H 0.42362 0.4161 0.92733 0.0
C1230 C 0.4628 0.34443 0.87354 0.0
C1231 C 0.47857 0.3513 0.88199 0.0
C1232 C 0.44659 0.35441 0.87381 0.0
C1233 C 0.44593 0.3715 0.88238 0.0
C1234 C 0.46158 0.37826 0.89102 0.0
C1235 C 0.47776 0.36828 0.89081 0.0
C1236 C 0.429 0.38249 0.88224 0.0
C1237 C 0.42169 0.38822 0.89895 0.0
C1238 C 0.4201 0.38733 0.86584 0.0
C1239 C 0.42757 0.38239 0.84772 0.0
C1240 C 0.4453 0.38765 0.84273 0.0
C1241 C 0.4523 0.38281 0.82569 0.0
C1242 C 0.44163 0.37282 0.81348 0.0
C1243 C 0.42392 0.36772 0.81825 0.0
C1244 C 0.41687 0.37251 0.83528 0.0
C1245 C 0.36877 0.44637 0.89063 0.0
C1246 C 0.35264 0.44204 0.88122 0.0
C1247 C 0.38311 0.43393 0.8914 0.0
C1248 C 0.38155 0.41682 0.883 0.0
C1249 C 0.36542 0.41239 0.87372 0.0
C1250 C 0.35107 0.42488 0.87286 0.0
C1251 C 0.3971 0.40394 0.88326 0.0
C1252 C 0.40417 0.39784 0.86658 0.0
C1253 C 0.40579 0.3988 0.8997 0.0
C1254 C 0.39842 0.40399 0.9178 0.0
C1255 C 0.38024 0.40002 0.92241 0.0
C1256 C 0.37333 0.4051 0.9394 0.0
C1257 C 0.38449 0.41407 0.95197 0.0
C1258 C 0.4026 0.41792 0.94757 0.0
C1259 C 0.40959 0.41288 0.93058 0.0
H1260 H 0.37911 0.41799 0.96512 0.0
H1261 H 0.44707 0.36908 0.80029 0.0
H1262 H 0.63919 0.4838 0.83313 0.0
H1263 H 0.61789 0.45913 0.82616 0.0
H1264 H 0.65023 0.42211 0.85842 0.0
H1265 H 0.67191 0.4465 0.86483 0.0
H1266 H 0.63687 0.40479 0.8301 0.0
H1267 H 0.61279 0.44571 0.8759 0.0
H1268 H 0.60297 0.47555 0.88783 0.0
H1269 H 0.56302 0.4797 0.84527 0.0
H1270 H 0.57284 0.45005 0.83289 0.0
H1271 H 0.57289 0.34258 0.86645 0.0
H1272 H 0.59566 0.3661 0.86059 0.0
H1273 H 0.5585 0.39319 0.82399 0.0
H1274 H 0.53556 0.36968 0.8298 0.0
H1275 H 0.57314 0.41619 0.84954 0.0
H1276 H 0.59492 0.37238 0.80676 0.0
H1277 H 0.60477 0.34208 0.79615 0.0
H1278 H 0.64886 0.34261 0.83462 0.0
H1279 H 0.63912 0.37281 0.84566 0.0
C1280 C 0.64189 0.47033 0.83849 0.0
C1281 C 0.65707 0.46712 0.84973 0.0
C1282 C 0.6297 0.45626 0.83454 0.0
C1283 C 0.63225 0.43889 0.84212 0.0
C1284 C 0.64795 0.43543 0.85248 0.0
C1285 C 0.66031 0.4494 0.85618 0.0
C1286 C 0.61798 0.42467 0.84054 0.0
C1287 C 0.62295 0.40725 0.83441 0.0
C1288 C 0.5997 0.428 0.84579 0.0
C1289 C 0.5937 0.44577 0.85334 0.0
C1290 C 0.602 0.45306 0.86901 0.0
C1291 C 0.59644 0.46994 0.87585 0.0
C1292 C 0.58243 0.47956 0.86727 0.0
C1293 C 0.57392 0.47229 0.85186 0.0
C1294 C 0.57948 0.45544 0.84493 0.0
C1295 C 0.5696 0.35344 0.85702 0.0
C1296 C 0.5524 0.35431 0.84864 0.0
C1297 C 0.58267 0.36681 0.8536 0.0
C1298 C 0.5788 0.38129 0.84174 0.0
C1299 C 0.56175 0.38207 0.83313 0.0
C1300 C 0.54869 0.36862 0.83645 0.0
C1301 C 0.59212 0.39624 0.83944 0.0
C1302 C 0.58697 0.4138 0.8449 0.0
C1303 C 0.61024 0.39297 0.83378 0.0
C1304 C 0.6162 0.37482 0.82712 0.0
C1305 C 0.60664 0.36598 0.81306 0.0
C1306 C 0.61221 0.34883 0.80694 0.0
C1307 C 0.62741 0.34041 0.81472 0.0
C1308 C 0.63708 0.34915 0.82861 0.0
C1309 C 0.63155 0.36629 0.83478 0.0
H1310 H 0.63171 0.32713 0.80997 0.0
H1311 H 0.57814 0.49262 0.8726 0.0
H1312 H 0.61341 0.52829 0.89961 0.0
H1313 H 0.58756 0.54894 0.90277 0.0
H1314 H 0.61712 0.59067 0.87383 0.0
H1315 H 0.6432 0.57011 0.87071 0.0
H1316 H 0.59834 0.60427 0.90356 0.0
H1317 H 0.5863 0.56624 0.85158 0.0
H1318 H 0.58313 0.53706 0.83522 0.0
H1319 H 0.54041 0.52085 0.87173 0.0
H1320 H 0.54348 0.54986 0.88847 0.0
H1321 H 0.52347 0.65907 0.875 0.0
H1322 H 0.55048 0.63959 0.87636 0.0
H1323 H 0.52012 0.59936 0.90656 0.0
H1324 H 0.49306 0.61881 0.90539 0.0
H1325 H 0.53917 0.58489 0.87709 0.0
H1326 H 0.55112 0.62223 0.92925 0.0
H1327 H 0.55463 0.65079 0.94657 0.0
H1328 H 0.59694 0.66811 0.91008 0.0
H1329 H 0.59376 0.63955 0.8926 0.0
C1330 C 0.61451 0.5419 0.89404 0.0
C1331 C 0.63031 0.54752 0.88479 0.0
C1332 C 0.59969 0.55367 0.89582 0.0
C1333 C 0.60037 0.57123 0.88833 0.0
C1334 C 0.61635 0.57714 0.87967 0.0
C1335 C 0.63119 0.56536 0.87785 0.0
C1336 C 0.58412 0.58315 0.88893 0.0
C1337 C 0.58546 0.60014 0.89758 0.0
C1338 C 0.56723 0.57755 0.8815 0.0
C1339 C 0.56523 0.56015 0.87137 0.0
C1340 C 0.57632 0.5564 0.8562 0.0
C1341 C 0.57452 0.53991 0.84685 0.0
C1342 C 0.56159 0.52711 0.85245 0.0
C1343 C 0.55041 0.53078 0.86741 0.0
C1344 C 0.55217 0.54726 0.87682 0.0
C1345 C 0.52256 0.6461 0.88198 0.0
C1346 C 0.50613 0.64042 0.89003 0.0
C1347 C 0.53801 0.63505 0.88283 0.0
C1348 C 0.53728 0.6181 0.89163 0.0
C1349 C 0.52093 0.61242 0.89973 0.0
C1350 C 0.50552 0.62355 0.89907 0.0
C1351 C 0.55339 0.60601 0.89171 0.0
C1352 C 0.55204 0.58899 0.88312 0.0
C1353 C 0.57024 0.61158 0.89922 0.0
C1354 C 0.57208 0.62885 0.90953 0.0
C1355 C 0.56108 0.63219 0.92484 0.0
C1356 C 0.56306 0.64834 0.93473 0.0
C1357 C 0.57593 0.66131 0.92938 0.0
C1358 C 0.58695 0.65807 0.91419 0.0
C1359 C 0.58512 0.64187 0.90434 0.0
H1360 H 0.57738 0.67384 0.93701 0.0
H1361 H 0.5602 0.51438 0.84516 0.0
H1362 H 0.67606 0.52411 0.12711 0.0
H1363 H 0.6578 0.55153 0.13186 0.0
H1364 H 0.6086 0.5198 0.12591 0.0
H1365 H 0.62682 0.49253 0.12033 0.0
H1366 H 0.60484 0.54936 0.10808 0.0
H1367 H 0.62542 0.5356 0.16849 0.0
H1368 H 0.6479 0.52889 0.19255 0.0
H1369 H 0.6733 0.58085 0.18378 0.0
H1370 H 0.65111 0.58778 0.15949 0.0
H1371 H 0.54225 0.60948 0.1495 0.0
H1372 H 0.56393 0.58435 0.14751 0.0
H1373 H 0.60636 0.62182 0.13186 0.0
H1374 H 0.5846 0.64718 0.13342 0.0
H1375 H 0.61452 0.59097 0.16052 0.0
H1376 H 0.59231 0.60361 0.09935 0.0
H1377 H 0.56784 0.60952 0.07709 0.0
H1378 H 0.54341 0.55789 0.08977 0.0
H1379 H 0.56759 0.55182 0.11235 0.0
C1380 C 0.66134 0.523 0.12686 0.0
C1381 C 0.65284 0.5062 0.12336 0.0
C1382 C 0.65092 0.53866 0.12969 0.0
C1383 C 0.6318 0.53771 0.12953 0.0
C1384 C 0.62332 0.52089 0.12609 0.0
C1385 C 0.63374 0.50531 0.12292 0.0
C1386 C 0.62059 0.55429 0.13243 0.0
C1387 C 0.6069 0.55831 0.11967 0.0
C1388 C 0.62341 0.56622 0.14737 0.0
C1389 C 0.63672 0.56212 0.16204 0.0
C1390 C 0.63588 0.54554 0.1716 0.0
C1391 C 0.64856 0.5417 0.18529 0.0
C1392 C 0.66205 0.55441 0.18965 0.0
C1393 C 0.66286 0.57101 0.18037 0.0
C1394 C 0.65023 0.5749 0.16665 0.0
C1395 C 0.55624 0.61247 0.14588 0.0
C1396 C 0.56171 0.63029 0.14149 0.0
C1397 C 0.56859 0.59809 0.14476 0.0
C1398 C 0.58664 0.60131 0.1395 0.0
C1399 C 0.59244 0.61916 0.13599 0.0
C1400 C 0.58 0.63357 0.13681 0.0
C1401 C 0.59892 0.58575 0.13627 0.0
C1402 C 0.61269 0.58198 0.14893 0.0
C1403 C 0.59602 0.57386 0.12144 0.0
C1404 C 0.58165 0.57735 0.10766 0.0
C1405 C 0.58163 0.59359 0.09751 0.0
C1406 C 0.56783 0.59696 0.08481 0.0
C1407 C 0.55406 0.5841 0.08205 0.0
C1408 C 0.55408 0.56784 0.09194 0.0
C1409 C 0.56783 0.56443 0.10468 0.0
H1410 H 0.54338 0.58673 0.07221 0.0
H1411 H 0.67186 0.55141 0.20026 0.0
H1412 H 0.38088 0.54416 0.14016 0.0
H1413 H 0.40221 0.5695 0.139 0.0
H1414 H 0.36249 0.60199 0.11035 0.0
H1415 H 0.34097 0.5764 0.11118 0.0
H1416 H 0.3962 0.60538 0.09539 0.0
H1417 H 0.3707 0.61074 0.15453 0.0
H1418 H 0.36018 0.60038 0.1847 0.0
H1419 H 0.41474 0.58451 0.19863 0.0
H1420 H 0.42555 0.59452 0.16844 0.0
H1421 H 0.45884 0.68028 0.10933 0.0
H1422 H 0.43078 0.66213 0.10964 0.0
H1423 H 0.45963 0.61805 0.13567 0.0
H1424 H 0.48761 0.63594 0.1353 0.0
H1425 H 0.42678 0.62578 0.15217 0.0
H1426 H 0.45038 0.61571 0.09076 0.0
H1427 H 0.46071 0.62603 0.06048 0.0
H1428 H 0.40912 0.65206 0.05143 0.0
H1429 H 0.39851 0.64192 0.0817 0.0
C1430 C 0.3766 0.55668 0.13363 0.0
C1431 C 0.35918 0.5583 0.12585 0.0
C1432 C 0.3888 0.57119 0.13304 0.0
C1433 C 0.38381 0.58773 0.12487 0.0
C1434 C 0.36654 0.58937 0.11682 0.0
C1435 C 0.35428 0.57477 0.11734 0.0
C1436 C 0.39692 0.60307 0.12467 0.0
C1437 C 0.40261 0.61015 0.10783 0.0
C1438 C 0.40532 0.60924 0.1409 0.0
C1439 C 0.39892 0.6033 0.15916 0.0
C1440 C 0.38044 0.60493 0.16398 0.0
C1441 C 0.37443 0.59914 0.18109 0.0
C1442 C 0.38678 0.59177 0.19356 0.0
C1443 C 0.40518 0.59022 0.18896 0.0
C1444 C 0.41127 0.59598 0.17185 0.0
C1445 C 0.45919 0.6667 0.11505 0.0
C1446 C 0.47544 0.6595 0.12219 0.0
C1447 C 0.44317 0.65637 0.11521 0.0
C1448 C 0.44319 0.63875 0.12262 0.0
C1449 C 0.45935 0.63165 0.12993 0.0
C1450 C 0.47534 0.64188 0.12966 0.0
C1451 C 0.42649 0.62749 0.1229 0.0
C1452 C 0.4201 0.62126 0.13977 0.0
C1453 C 0.4174 0.62223 0.10674 0.0
C1454 C 0.42372 0.6282 0.08853 0.0
C1455 C 0.44128 0.6237 0.08233 0.0
C1456 C 0.44715 0.62945 0.06515 0.0
C1457 C 0.43557 0.63968 0.05404 0.0
C1458 C 0.41807 0.64412 0.06005 0.0
C1459 C 0.4121 0.63834 0.07719 0.0
H1460 H 0.44018 0.64421 0.04078 0.0
H1461 H 0.3821 0.58728 0.2068 0.0
H1462 H 0.6658 0.41376 0.11546 0.0
H1463 H 0.63992 0.39287 0.11402 0.0
H1464 H 0.61433 0.42136 0.15861 0.0
H1465 H 0.6404 0.44198 0.16048 0.0
H1466 H 0.60875 0.38593 0.1618 0.0
H1467 H 0.60287 0.43016 0.11407 0.0
H1468 H 0.61291 0.44772 0.08725 0.0
H1469 H 0.61774 0.3983 0.05632 0.0
H1470 H 0.60799 0.3804 0.08306 0.0
H1471 H 0.5172 0.35918 0.14577 0.0
H1472 H 0.54492 0.37753 0.14828 0.0
H1473 H 0.5711 0.34379 0.10793 0.0
H1474 H 0.54345 0.32533 0.10533 0.0
H1475 H 0.57665 0.38106 0.10245 0.0
H1476 H 0.58116 0.33719 0.15099 0.0
H1477 H 0.57012 0.32064 0.17806 0.0
H1478 H 0.56655 0.37093 0.20772 0.0
H1479 H 0.57729 0.38783 0.18073 0.0
C1480 C 0.65477 0.41543 0.12512 0.0
C1481 C 0.65506 0.42961 0.13798 0.0
C1482 C 0.63995 0.40354 0.12422 0.0
C1483 C 0.62502 0.40581 0.13595 0.0
C1484 C 0.62567 0.41941 0.14937 0.0
C1485 C 0.64058 0.4312 0.15041 0.0
C1486 C 0.60839 0.39456 0.13374 0.0
C1487 C 0.60164 0.38502 0.14887 0.0
C1488 C 0.59923 0.39318 0.11679 0.0
C1489 C 0.60489 0.40392 0.10062 0.0
C1490 C 0.6062 0.42302 0.10158 0.0
C1491 C 0.61182 0.43304 0.08639 0.0
C1492 C 0.61601 0.42413 0.07011 0.0
C1493 C 0.61452 0.40518 0.06896 0.0
C1494 C 0.60894 0.39509 0.08412 0.0
C1495 C 0.52883 0.35571 0.13737 0.0
C1496 C 0.5282 0.34075 0.12543 0.0
C1497 C 0.54466 0.36616 0.13888 0.0
C1498 C 0.56008 0.36186 0.12843 0.0
C1499 C 0.55934 0.34726 0.11615 0.0
C1500 C 0.54356 0.33671 0.11473 0.0
C1501 C 0.57707 0.37251 0.1305 0.0
C1502 C 0.58384 0.38194 0.11534 0.0
C1503 C 0.58612 0.37395 0.14746 0.0
C1504 C 0.57987 0.36379 0.16378 0.0
C1505 C 0.57789 0.34474 0.16324 0.0
C1506 C 0.57171 0.33529 0.17858 0.0
C1507 C 0.5676 0.34473 0.19459 0.0
C1508 C 0.56972 0.36364 0.19531 0.0
C1509 C 0.57587 0.37315 0.18 0.0
H1510 H 0.5628 0.33739 0.20644 0.0
H1511 H 0.62038 0.43191 0.05837 0.0
H1512 H 0.0584 0.28539 0.5355 0.0
H1513 H 0.02714 0.27793 0.52682 0.0
H1514 H 0.04357 0.27379 0.47054 0.0
H1515 H 0.07479 0.28145 0.47906 0.0
H1516 H 0.01573 0.29656 0.47446 0.0
H1517 H 0.02925 0.23613 0.49381 0.0
H1518 H 0.04066 0.2122 0.51441 0.0
H1519 H 0.00124 0.22764 0.55474 0.0
H1520 H 0.98974 0.25185 0.53449 0.0
H1521 H 0.92385 0.28287 0.45022 0.0
H1522 H 0.95597 0.2745 0.45354 0.0
H1523 H 0.95122 0.27906 0.51194 0.0
H1524 H 0.91918 0.28705 0.50881 0.0
H1525 H 0.97394 0.25163 0.50282 0.0
H1526 H 0.96501 0.31506 0.48659 0.0
H1527 H 0.95375 0.3401 0.46721 0.0
H1528 H 0.98505 0.31974 0.4222 0.0
H1529 H 0.9963 0.29442 0.44127 0.0
C1530 C 0.05544 0.28256 0.52133 0.0
C1531 C 0.06904 0.2842 0.50796 0.0
C1532 C 0.03758 0.27819 0.51639 0.0
C1533 C 0.03305 0.27524 0.49803 0.0
C1534 C 0.04678 0.27602 0.48478 0.0
C1535 C 0.06462 0.28041 0.48969 0.0
C1536 C 0.01372 0.27345 0.49247 0.0
C1537 C 0.00669 0.28642 0.48031 0.0
C1538 C 0.00187 0.26049 0.50042 0.0
C1539 C 0.00871 0.2459 0.51265 0.0
C1540 C 0.02309 0.23452 0.50712 0.0
C1541 C 0.02957 0.22088 0.51873 0.0
C1542 C 0.0217 0.21842 0.53588 0.0
C1543 C 0.00732 0.22956 0.54145 0.0
C1544 C 0.0008 0.24323 0.5299 0.0
C1545 C 0.92956 0.28174 0.46378 0.0
C1546 C 0.91905 0.28592 0.47923 0.0
C1547 C 0.94791 0.27697 0.46565 0.0
C1548 C 0.95603 0.27646 0.48298 0.0
C1549 C 0.94524 0.2794 0.49845 0.0
C1550 C 0.92693 0.2841 0.49661 0.0
C1551 C 0.97603 0.27489 0.48507 0.0
C1552 C 0.98313 0.26142 0.49664 0.0
C1553 C 0.988 0.28748 0.47672 0.0
C1554 C 0.98131 0.30274 0.46527 0.0
C1555 C 0.96938 0.31585 0.47252 0.0
C1556 C 0.96301 0.3301 0.4616 0.0
C1557 C 0.96863 0.33148 0.44347 0.0
C1558 C 0.98067 0.31863 0.43623 0.0
C1559 C 0.98705 0.30433 0.44708 0.0
H1560 H 0.96371 0.34254 0.43505 0.0
H1561 H 0.02673 0.20785 0.54485 0.0
H1562 H 0.72233 0.08245 0.47873 0.0
H1563 H 0.73018 0.05098 0.47139 0.0
H1564 H 0.71977 0.03529 0.52705 0.0
H1565 H 0.71215 0.0668 0.53461 0.0
H1566 H 0.74803 0.01556 0.51157 0.0
H1567 H 0.68598 0.03383 0.49647 0.0
H1568 H 0.66345 0.05344 0.48105 0.0
H1569 H 0.68614 0.03917 0.42907 0.0
H1570 H 0.70897 0.01965 0.44422 0.0
H1571 H 0.70877 0.92869 0.51274 0.0
H1572 H 0.71787 0.96052 0.51451 0.0
H1573 H 0.72396 0.96229 0.45608 0.0
H1574 H 0.7146 0.9303 0.45413 0.0
H1575 H 0.70317 0.98959 0.46809 0.0
H1576 H 0.76131 0.96615 0.4834 0.0
H1577 H 0.78369 0.94666 0.49911 0.0
H1578 H 0.7687 0.97025 0.55049 0.0
H1579 H 0.74602 0.9897 0.53514 0.0
C1580 C 0.7221 0.07239 0.48952 0.0
C1581 C 0.71626 0.07701 0.50718 0.0
C1582 C 0.72662 0.05443 0.48529 0.0
C1583 C 0.72518 0.0408 0.49859 0.0
C1584 C 0.72089 0.04564 0.51658 0.0
C1585 C 0.71647 0.06364 0.52086 0.0
C1586 C 0.72577 0.02136 0.49339 0.0
C1587 C 0.73826 0.00981 0.50208 0.0
C1588 C 0.7133 0.01404 0.4806 0.0
C1589 C 0.69931 0.02545 0.47148 0.0
C1590 C 0.68622 0.03495 0.48176 0.0
C1591 C 0.67339 0.04604 0.47307 0.0
C1592 C 0.67338 0.04758 0.4541 0.0
C1593 C 0.68616 0.03797 0.44377 0.0
C1594 C 0.69905 0.02689 0.45239 0.0
C1595 C 0.71228 0.93574 0.50025 0.0
C1596 C 0.71084 0.927 0.48327 0.0
C1597 C 0.71763 0.95392 0.50131 0.0
C1598 C 0.72178 0.96373 0.48544 0.0
C1599 C 0.7209 0.95492 0.46849 0.0
C1600 C 0.71556 0.93666 0.46741 0.0
C1601 C 0.72517 0.98358 0.48661 0.0
C1602 C 0.71333 0.99528 0.47722 0.0
C1603 C 0.73822 0.99098 0.49876 0.0
C1604 C 0.75188 0.97934 0.5081 0.0
C1605 C 0.76268 0.9671 0.49807 0.0
C1606 C 0.77545 0.95607 0.50691 0.0
C1607 C 0.7776 0.9572 0.52579 0.0
C1608 C 0.76702 0.96939 0.53586 0.0
C1609 C 0.75423 0.98045 0.52709 0.0
H1610 H 0.78749 0.94865 0.53261 0.0
H1611 H 0.66345 0.05619 0.4474 0.0
H1612 H 0.92015 0.72097 0.48366 0.0
H1613 H 0.95126 0.72846 0.47452 0.0
H1614 H 0.96966 0.71982 0.52968 0.0
H1615 H 0.93849 0.71276 0.53904 0.0
H1616 H 0.98839 0.7473 0.51367 0.0
H1617 H 0.97093 0.68544 0.49863 0.0
H1618 H 0.95165 0.66199 0.48417 0.0
H1619 H 0.96246 0.68516 0.43155 0.0
H1620 H 0.98162 0.70889 0.44575 0.0
H1621 H 0.07646 0.70982 0.50696 0.0
H1622 H 0.04477 0.71841 0.51177 0.0
H1623 H 0.03811 0.7271 0.45402 0.0
H1624 H 0.06991 0.71833 0.44902 0.0
H1625 H 0.01279 0.70438 0.4675 0.0
H1626 H 0.03553 0.76294 0.48318 0.0
H1627 H 0.05543 0.78524 0.49852 0.0
H1628 H 0.03569 0.76751 0.55064 0.0
H1629 H 0.01585 0.7449 0.53564 0.0
C1630 C 0.93076 0.72097 0.49391 0.0
C1631 C 0.92694 0.71598 0.51201 0.0
C1632 C 0.94853 0.72526 0.48867 0.0
C1633 C 0.96281 0.72433 0.50135 0.0
C1634 C 0.95883 0.72056 0.51967 0.0
C1635 C 0.94102 0.71646 0.52498 0.0
C1636 C 0.98202 0.72536 0.49527 0.0
C1637 C 0.99378 0.73792 0.5036 0.0
C1638 C 0.98892 0.71338 0.48182 0.0
C1639 C 0.97751 0.69905 0.47327 0.0
C1640 C 0.96908 0.6856 0.48399 0.0
C1641 C 0.9582 0.67225 0.47584 0.0
C1642 C 0.95578 0.67212 0.45696 0.0
C1643 C 0.9643 0.6853 0.44618 0.0
C1644 C 0.97518 0.6987 0.45427 0.0
C1645 C 0.06836 0.71383 0.49528 0.0
C1646 C 0.07565 0.71324 0.47758 0.0
C1647 C 0.05027 0.71889 0.49809 0.0
C1648 C 0.03912 0.72353 0.48327 0.0
C1649 C 0.04653 0.72364 0.46564 0.0
C1650 C 0.06469 0.71863 0.46282 0.0
C1651 C 0.01932 0.72613 0.48611 0.0
C1652 C 0.0074 0.71413 0.47723 0.0
C1653 C 0.01238 0.73851 0.49915 0.0
C1654 C 0.02426 0.75214 0.50827 0.0
C1655 C 0.03552 0.76369 0.49792 0.0
C1656 C 0.04677 0.77641 0.50655 0.0
C1657 C 0.04684 0.77777 0.52554 0.0
C1658 C 0.03562 0.76644 0.53593 0.0
C1659 C 0.02434 0.75369 0.52736 0.0
H1660 H 0.05557 0.78763 0.5322 0.0
H1661 H 0.94735 0.66178 0.45068 0.0
H1662 H 0.28585 0.07917 0.51743 0.0
H1663 H 0.27878 0.04772 0.52553 0.0
H1664 H 0.28349 0.03198 0.46911 0.0
H1665 H 0.29038 0.06352 0.4608 0.0
H1666 H 0.25572 0.01349 0.48714 0.0
H1667 H 0.31948 0.02833 0.49632 0.0
H1668 H 0.34471 0.04644 0.5092 0.0
H1669 H 0.32679 0.03348 0.56334 0.0
H1670 H 0.30126 0.01551 0.55076 0.0
H1671 H 0.28748 0.9232 0.48671 0.0
H1672 H 0.28068 0.95552 0.48396 0.0
H1673 H 0.28069 0.96074 0.54251 0.0
H1674 H 0.28784 0.92829 0.54541 0.0
H1675 H 0.30222 0.98537 0.52738 0.0
H1676 H 0.24118 0.96628 0.51799 0.0
H1677 H 0.21603 0.94821 0.50496 0.0
H1678 H 0.22848 0.96873 0.45162 0.0
H1679 H 0.25388 0.98673 0.46427 0.0
C1680 C 0.2851 0.06909 0.50668 0.0
C1681 C 0.28896 0.07377 0.4885 0.0
C1682 C 0.28105 0.05113 0.51135 0.0
C1683 C 0.28092 0.03752 0.49796 0.0
C1684 C 0.28357 0.04232 0.47964 0.0
C1685 C 0.28758 0.06033 0.47493 0.0
C1686 C 0.27983 0.01809 0.50319 0.0
C1687 C 0.26589 0.00726 0.49588 0.0
C1688 C 0.29284 0.01018 0.51503 0.0
C1689 C 0.30834 0.02076 0.5226 0.0
C1690 C 0.32084 0.02945 0.51097 0.0
C1691 C 0.3352 0.03967 0.51822 0.0
C1692 C 0.33731 0.04116 0.53708 0.0
C1693 C 0.32511 0.03235 0.54874 0.0
C1694 C 0.31069 0.02214 0.54156 0.0
C1695 C 0.28576 0.93112 0.49904 0.0
C1696 C 0.28835 0.9232 0.51629 0.0
C1697 C 0.28172 0.9496 0.49744 0.0
C1698 C 0.28002 0.96053 0.51303 0.0
C1699 C 0.2819 0.95253 0.53031 0.0
C1700 C 0.28596 0.93399 0.53193 0.0
C1701 C 0.27825 0.98054 0.51109 0.0
C1702 C 0.29176 0.99155 0.51897 0.0
C1703 C 0.26483 0.98857 0.49979 0.0
C1704 C 0.24953 0.97778 0.49209 0.0
C1705 C 0.23865 0.96684 0.50346 0.0
C1706 C 0.22433 0.95663 0.49614 0.0
C1707 C 0.22068 0.9573 0.47747 0.0
C1708 C 0.23132 0.96822 0.46608 0.0
C1709 C 0.24567 0.97846 0.47333 0.0
H1710 H 0.20958 0.94938 0.47184 0.0
H1711 H 0.34842 0.0491 0.54265 0.0
H1712 H 0.45543 0.93087 0.29015 0.0
H1713 H 0.46052 0.9625 0.28123 0.0
H1714 H 0.51519 0.94909 0.26426 0.0
H1715 H 0.51033 0.91752 0.27352 0.0
H1716 H 0.51557 0.97651 0.28702 0.0
H1717 H 0.48234 0.96237 0.23314 0.0
H1718 H 0.457 0.95013 0.21478 0.0
H1719 H 0.41999 0.98747 0.24038 0.0
H1720 H 0.44505 -0.00023 0.2591 0.0
H1721 H 0.53204 0.06888 0.2668 0.0
H1722 H 0.52735 0.03664 0.25968 0.0
H1723 H 0.47296 0.03953 0.28173 0.0
H1724 H 0.47743 0.0717 0.28876 0.0
H1725 H 0.47491 0.01708 0.25139 0.0
H1726 H 0.50668 0.02681 0.30854 0.0
H1727 H 0.53148 0.039 0.32768 0.0
H1728 H 0.57079 0.00932 0.29613 0.0
H1729 H 0.54621 0.99718 0.27661 0.0
C1730 C 0.46841 0.93457 0.2842 0.0
C1731 C 0.48254 0.92175 0.28273 0.0
C1732 C 0.47128 0.95265 0.27899 0.0
C1733 C 0.48822 0.95815 0.27199 0.0
C1734 C 0.50202 0.94514 0.26965 0.0
C1735 C 0.49922 0.92712 0.27497 0.0
C1736 C 0.49222 0.97773 0.26921 0.0
C1737 C 0.50694 0.98528 0.27882 0.0
C1738 C 0.48071 0.98925 0.25887 0.0
C1739 C 0.46558 0.98191 0.24762 0.0
C1740 C 0.46877 0.96788 0.23497 0.0
C1741 C 0.45446 0.96095 0.22447 0.0
C1742 C 0.43689 0.968 0.22644 0.0
C1743 C 0.4336 0.98202 0.23888 0.0
C1744 C 0.44787 0.989 0.24942 0.0
C1745 C 0.51897 0.06274 0.26982 0.0
C1746 C 0.50521 0.07274 0.27861 0.0
C1747 C 0.51631 0.04434 0.26573 0.0
C1748 C 0.49989 0.03571 0.27039 0.0
C1749 C 0.48573 0.04597 0.27803 0.0
C1750 C 0.48837 0.06431 0.28216 0.0
C1751 C 0.49809 0.01568 0.26931 0.0
C1752 C 0.48376 0.00814 0.25915 0.0
C1753 C 0.50989 0.0041 0.27919 0.0
C1754 C 0.52465 0.01129 0.29098 0.0
C1755 C 0.52063 0.02301 0.3056 0.0
C1756 C 0.53464 0.02989 0.31652 0.0
C1757 C 0.55271 0.02498 0.31309 0.0
C1758 C 0.55679 0.01314 0.29875 0.0
C1759 C 0.54283 0.00626 0.28775 0.0
H1760 H 0.56353 0.03032 0.32157 0.0
H1761 H 0.42583 0.96261 0.2183 0.0
H1762 H 0.92541 0.51523 0.27284 0.0
H1763 H 0.95606 0.50914 0.26124 0.0
H1764 H 0.97879 0.52466 0.31322 0.0
H1765 H 0.94837 0.53135 0.32465 0.0
H1766 H 0.00043 0.53552 0.28736 0.0
H1767 H 0.96874 0.47937 0.30193 0.0
H1768 H 0.9438 0.457 0.29912 0.0
H1769 H 0.9555 0.45066 0.24215 0.0
H1770 H 0.98039 0.47318 0.24461 0.0
H1771 H 0.067 0.45652 0.29571 0.0
H1772 H 0.03566 0.46653 0.29142 0.0
H1773 H 0.05425 0.51042 0.25692 0.0
H1774 H 0.08583 0.50104 0.26216 0.0
H1775 H 0.01139 0.47186 0.26747 0.0
H1776 H 0.02907 0.54759 0.26349 0.0
H1777 H 0.05381 0.569 0.27142 0.0
H1778 H 0.0702 0.53417 0.3154 0.0
H1779 H 0.04562 0.51254 0.30773 0.0
C1780 C 0.93699 0.51763 0.28168 0.0
C1781 C 0.93448 0.52356 0.29974 0.0
C1782 C 0.95447 0.51409 0.27505 0.0
C1783 C 0.96969 0.51611 0.28647 0.0
C1784 C 0.96726 0.52299 0.30415 0.0
C1785 C 0.94983 0.52675 0.31071 0.0
C1786 C 0.98799 0.50979 0.28073 0.0
C1787 C 0.00281 0.52166 0.28279 0.0
C1788 C 0.99113 0.49168 0.27487 0.0
C1789 C 0.97625 0.4781 0.2734 0.0
C1790 C 0.9659 0.47329 0.28879 0.0
C1791 C 0.95179 0.46058 0.28726 0.0
C1792 C 0.94803 0.45246 0.27046 0.0
C1793 C 0.9584 0.45699 0.25515 0.0
C1794 C 0.97251 0.46972 0.2566 0.0
C1795 C 0.06439 0.46805 0.28686 0.0
C1796 C 0.07881 0.47818 0.27947 0.0
C1797 C 0.04644 0.47378 0.2844 0.0
C1798 C 0.04259 0.48955 0.27424 0.0
C1799 C 0.05691 0.49855 0.26528 0.0
C1800 C 0.07492 0.49311 0.26815 0.0
C1801 C 0.02394 0.49739 0.27477 0.0
C1802 C 0.00901 0.48585 0.27159 0.0
C1803 C 0.02073 0.51564 0.28024 0.0
C1804 C 0.03568 0.52839 0.28488 0.0
C1805 C 0.038 0.54451 0.27483 0.0
C1806 C 0.052 0.55665 0.27927 0.0
C1807 C 0.06365 0.55288 0.29385 0.0
C1808 C 0.06128 0.53698 0.30404 0.0
C1809 C 0.04734 0.52477 0.29963 0.0
H1810 H 0.07446 0.5623 0.2973 0.0
H1811 H 0.9371 0.44262 0.2693 0.0
H1812 H 0.5382 0.93205 0.71623 0.0
H1813 H 0.53138 0.96319 0.72572 0.0
H1814 H 0.47572 0.94779 0.73675 0.0
H1815 H 0.48234 0.91672 0.72698 0.0
H1816 H 0.47694 0.97561 0.71437 0.0
H1817 H 0.50407 0.9618 0.77135 0.0
H1818 H 0.52723 0.94991 0.79257 0.0
H1819 H 0.56636 0.98813 0.77183 0.0
H1820 H 0.54353 9e-05 0.75029 0.0
H1821 H 0.45942 0.06905 0.7287 0.0
H1822 H 0.46219 0.0371 0.73793 0.0
H1823 H 0.51928 0.03797 0.72398 0.0
H1824 H 0.51672 0.06979 0.715 0.0
H1825 H 0.51299 0.01686 0.75398 0.0
H1826 H 0.48813 0.02488 0.69294 0.0
H1827 H 0.4657 0.03644 0.67073 0.0
H1828 H 0.42284 0.00833 0.69894 0.0
H1829 H 0.44502 0.9968 0.72146 0.0
C1830 C 0.52461 0.93519 0.72104 0.0
C1831 C 0.51075 0.92199 0.72062 0.0
C1832 C 0.52075 0.95298 0.72659 0.0
C1833 C 0.50304 0.9578 0.73201 0.0
C1834 C 0.48947 0.94437 0.7326 0.0
C1835 C 0.49328 0.92662 0.72698 0.0
C1836 C 0.49818 0.97722 0.73462 0.0
C1837 C 0.48449 0.98452 0.72344 0.0
C1838 C 0.50826 0.98891 0.74617 0.0
C1839 C 0.52208 0.98178 0.75911 0.0
C1840 C 0.51765 0.96759 0.77121 0.0
C1841 C 0.53072 0.96085 0.78332 0.0
C1842 C 0.54826 0.96824 0.78353 0.0
C1843 C 0.55277 0.98242 0.77165 0.0
C1844 C 0.53975 0.9892 0.75951 0.0
C1845 C 0.47263 0.06253 0.72794 0.0
C1846 C 0.48778 0.07184 0.72082 0.0
C1847 C 0.47418 0.04429 0.73322 0.0
C1848 C 0.49089 0.03513 0.73141 0.0
C1849 C 0.50627 0.04478 0.72549 0.0
C1850 C 0.50473 0.06294 0.72022 0.0
C1851 C 0.49208 0.01512 0.73347 0.0
C1852 C 0.50511 0.00777 0.74539 0.0
C1853 C 0.48147 0.00331 0.72254 0.0
C1854 C 0.46817 0.01019 0.709 0.0
C1855 C 0.4739 0.02129 0.69448 0.0
C1856 C 0.46124 0.02782 0.68183 0.0
C1857 C 0.44285 0.02318 0.68346 0.0
C1858 C 0.43708 0.01195 0.69772 0.0
C1859 C 0.44968 0.00542 0.71043 0.0
H1860 H 0.43307 0.02823 0.67365 0.0
H1861 H 0.55836 0.96301 0.79292 0.0
H1862 H 0.92378 0.45323 0.69601 0.0
H1863 H 0.95633 0.45631 0.70138 0.0
H1864 H 0.94673 0.50514 0.73278 0.0
H1865 H 0.91409 0.50263 0.72647 0.0
H1866 H 0.97079 0.51231 0.70996 0.0
H1867 H 0.96543 0.46383 0.75177 0.0
H1868 H 0.95581 0.43407 0.76401 0.0
H1869 H 0.98581 0.40669 0.72194 0.0
H1870 H 0.9954 0.43627 0.70926 0.0
H1871 H 0.06887 0.51665 0.71441 0.0
H1872 H 0.03789 0.51197 0.72622 0.0
H1873 H 0.02764 0.47255 0.68387 0.0
H1874 H 0.05827 0.47735 0.67183 0.0
H1875 H 0.01509 0.46241 0.72051 0.0
H1876 H 0.01377 0.51263 0.67625 0.0
H1877 H 0.02341 0.54284 0.66512 0.0
H1878 H 0.00594 0.56723 0.71534 0.0
H1879 H 0.99641 0.53709 0.72684 0.0
C1880 C 0.92856 0.46438 0.70443 0.0
C1881 C 0.91645 0.47776 0.71073 0.0
C1882 C 0.94722 0.46607 0.70763 0.0
C1883 C 0.95409 0.48088 0.71767 0.0
C1884 C 0.94181 0.49363 0.72496 0.0
C1885 C 0.92317 0.49217 0.72139 0.0
C1886 C 0.97404 0.48428 0.71835 0.0
C1887 C 0.98042 0.50148 0.71284 0.0
C1888 C 0.98677 0.47021 0.72194 0.0
C1889 C 0.98108 0.45232 0.72952 0.0
C1890 C 0.96989 0.45147 0.74505 0.0
C1891 C 0.96445 0.43463 0.75208 0.0
C1892 C 0.97018 0.4185 0.74375 0.0
C1893 C 0.98139 0.41919 0.72839 0.0
C1894 C 0.98686 0.436 0.72129 0.0
C1895 C 0.06002 0.5069 0.70773 0.0
C1896 C 0.06588 0.49748 0.69211 0.0
C1897 C 0.04241 0.50423 0.7145 0.0
C1898 C 0.03059 0.49188 0.70591 0.0
C1899 C 0.03664 0.48204 0.69072 0.0
C1900 C 0.05407 0.48493 0.68377 0.0
C1901 C 0.01142 0.49009 0.71169 0.0
C1902 C 0.00531 0.47325 0.7183 0.0
C1903 C -0.00106 0.50453 0.70944 0.0
C1904 C 0.00463 0.52261 0.70249 0.0
C1905 C 0.01215 0.52441 0.68497 0.0
C1906 C 0.01756 0.54152 0.67859 0.0
C1907 C 0.01535 0.55694 0.68954 0.0
C1908 C 0.00768 0.55528 0.70688 0.0
C1909 C 0.00228 0.53819 0.71334 0.0
H1910 H 0.01954 0.57017 0.68457 0.0
H1911 H 0.96595 0.40548 0.74921 0.0
H1912 H 0.28863 0.44877 0.93569 0.0
H1913 H 0.2827 0.46098 0.96608 0.0
H1914 H 0.27582 0.51472 0.94331 0.0
H1915 H 0.28195 0.5027 0.91294 0.0
H1916 H 0.29985 0.515 0.97028 0.0
H1917 H 0.23973 0.49217 0.96195 0.0
H1918 H 0.21606 0.46961 0.95423 0.0
H1919 H 0.23455 0.43494 0.99756 0.0
H1920 H 0.25851 0.45717 0.00539 0.0
H1921 H 0.28514 0.55154 0.05835 0.0
H1922 H 0.2779 0.543 0.02692 0.0
H1923 H 0.28632 0.48639 0.04026 0.0
H1924 H 0.29334 0.49472 0.07163 0.0
H1925 H 0.25762 0.4907 0.01712 0.0
H1926 H 0.3202 0.51118 0.02201 0.0
H1927 H 0.34457 0.53311 0.02943 0.0
H1928 H 0.32163 0.57172 0.99194 0.0
H1929 H 0.29696 0.55009 0.98449 0.0
C1930 C 0.28554 0.46312 0.9371 0.0
C1931 C 0.28593 0.47479 0.92193 0.0
C1932 C 0.28205 0.47007 0.95448 0.0
C1933 C 0.27874 0.48876 0.95694 0.0
C1934 C 0.27835 0.50027 0.94171 0.0
C1935 C 0.28186 0.49336 0.92436 0.0
C1936 C 0.2776 0.49655 0.97552 0.0
C1937 C 0.2903 0.50999 0.9804 0.0
C1938 C 0.26542 0.48972 0.98881 0.0
C1939 C 0.25101 0.4763 0.98417 0.0
C1940 C 0.23885 0.47967 0.96975 0.0
C1941 C 0.22536 0.46695 0.96536 0.0
C1942 C 0.22383 0.45083 0.97537 0.0
C1943 C 0.23576 0.44742 0.98981 0.0
C1944 C 0.24928 0.4601 0.99424 0.0
C1945 C 0.2852 0.53726 0.05465 0.0
C1946 C 0.29004 0.52383 0.06742 0.0
C1947 C 0.28108 0.53241 0.03669 0.0
C1948 C 0.2818 0.51408 0.03124 0.0
C1949 C 0.28569 0.5006 0.04419 0.0
C1950 C 0.28982 0.50542 0.0621 0.0
C1951 C 0.28 0.50893 0.01182 0.0
C1952 C 0.26685 0.49596 0.00684 0.0
C1953 C 0.29181 0.51612 -0.00161 0.0
C1954 C 0.30661 0.52913 0.00289 0.0
C1955 C 0.32026 0.52441 0.01548 0.0
C1956 C 0.33414 0.53677 0.01967 0.0
C1957 C 0.33461 0.55382 0.01122 0.0
C1958 C 0.32122 0.55853 -0.00148 0.0
C1959 C 0.30729 0.54623 0.99431 0.0
H1960 H 0.34537 0.56337 0.01447 0.0
H1961 H 0.21337 0.441 0.97196 0.0
H1962 H 0.52158 0.28109 0.92655 0.0
H1963 H 0.51418 0.27678 0.95877 0.0
H1964 H 0.53303 0.33128 0.97036 0.0
H1965 H 0.54117 0.33535 0.93847 0.0
H1966 H 0.54068 0.31084 0.99785 0.0
H1967 H 0.48707 0.32085 0.96098 0.0
H1968 H 0.46552 0.31426 0.93604 0.0
H1969 H 0.45481 0.26146 0.95883 0.0
H1970 H 0.4765 0.26766 0.9838 0.0
H1971 H 0.48392 0.34425 0.0668 0.0
H1972 H 0.49546 0.33744 0.03642 0.0
H1973 H 0.48781 0.28001 0.04602 0.0
H1974 H 0.47645 0.28665 0.07679 0.0
H1975 H 0.47568 0.2961 0.00946 0.0
H1976 H 0.52708 0.29085 0.05011 0.0
H1977 H 0.54654 0.30157 0.07533 0.0
H1978 H 0.55959 0.34992 0.04512 0.0
H1979 H 0.53993 0.33966 0.01985 0.0
C1980 C 0.52449 0.292 0.93606 0.0
C1981 C 0.53173 0.30865 0.92995 0.0
C1982 C 0.52017 0.28956 0.95444 0.0
C1983 C 0.52261 0.30388 0.96691 0.0
C1984 C 0.53095 0.32005 0.96101 0.0
C1985 C 0.53557 0.32238 0.94273 0.0
C1986 C 0.51516 0.30279 0.98567 0.0
C1987 C 0.52648 0.30757 0.00035 0.0
C1988 C 0.49665 0.29834 0.98904 0.0
C1989 C 0.48356 0.29462 0.97411 0.0
C1990 C 0.48021 0.30779 0.9606 0.0
C1991 C 0.46796 0.30413 0.94647 0.0
C1992 C 0.45884 0.28743 0.94582 0.0
C1993 C 0.46191 0.27437 0.95933 0.0
C1994 C 0.47418 0.27795 0.97347 0.0
C1995 C 0.48443 0.33016 0.06243 0.0
C1996 C 0.47936 0.31596 0.07423 0.0
C1997 C 0.4911 0.32632 0.04509 0.0
C1998 C 0.49263 0.30825 0.03916 0.0
C1999 C 0.48675 0.29404 0.05048 0.0
C2000 C 0.48029 0.29786 0.068 0.0
C2001 C 0.50112 0.30444 0.02137 0.0
C2002 C 0.48999 0.29885 0.00693 0.0
C2003 C 0.51966 0.30856 0.01816 0.0
C2004 C 0.53193 0.31452 0.03312 0.0
C2005 C 0.53401 0.30382 0.04888 0.0
C2006 C 0.54508 0.30982 0.06319 0.0
C2007 C 0.55427 0.32643 0.06184 0.0
C2008 C 0.55246 0.33706 0.04615 0.0
C2009 C 0.54137 0.33114 0.03182 0.0
H2010 H 0.56282 0.33106 0.07293 0.0
H2011 H 0.44937 0.28462 0.93487 0.0
H2012 H 0.71087 0.53457 0.93179 0.0
H2013 H 0.71732 0.52068 0.96139 0.0
H2014 H 0.69843 0.46877 0.94127 0.0
H2015 H 0.69174 0.48254 0.91178 0.0
H2016 H 0.68252 0.47722 0.97271 0.0
H2017 H 0.74344 0.47579 0.95001 0.0
H2018 H 0.77144 0.4881 0.93613 0.0
H2019 H 0.77738 0.52565 0.9806 0.0
H2020 H 0.74925 0.51374 0.99462 0.0
H2021 H 0.702 0.43217 0.05513 0.0
H2022 H 0.7052 0.43963 0.0228 0.0
H2023 H 0.72151 0.49431 0.03692 0.0
H2024 H 0.71858 0.48695 0.06919 0.0
H2025 H 0.74042 0.48143 0.00739 0.0
H2026 H 0.67787 0.48551 0.02779 0.0
H2027 H 0.6497 0.47371 0.04181 0.0
H2028 H 0.64683 0.43157 0.00132 0.0
H2029 H 0.67515 0.44298 0.98722 0.0
C2030 C 0.70829 0.52016 0.9336 0.0
C2031 C 0.70068 0.5097 0.91948 0.0
C2032 C 0.71208 0.51221 0.95049 0.0
C2033 C 0.70845 0.49366 0.95348 0.0
C2034 C 0.70133 0.4831 0.93924 0.0
C2035 C 0.69752 0.49102 0.9224 0.0
C2036 C 0.71066 0.48562 0.97186 0.0
C2037 C 0.6953 0.4778 0.98013 0.0
C2038 C 0.72721 0.48675 0.98168 0.0
C2039 C 0.74414 0.49397 0.97329 0.0
C2040 C 0.75062 0.48678 0.95675 0.0
C2041 C 0.76654 0.49367 0.94888 0.0
C2042 C 0.77616 0.50768 0.95746 0.0
C2043 C 0.7699 0.51481 0.97396 0.0
C2044 C 0.75399 0.50798 0.98189 0.0
C2045 C 0.70659 0.44568 0.05137 0.0
C2046 C 0.70977 0.45905 0.0647 0.0
C2047 C 0.70838 0.44992 0.0329 0.0
C2048 C 0.71332 0.4676 0.02751 0.0
C2049 C 0.71765 0.4806 0.04081 0.0
C2050 C 0.71586 0.47639 0.05925 0.0
C2051 C 0.71228 0.47314 0.00816 0.0
C2052 C 0.72777 0.48059 -0.00022 0.0
C2053 C 0.69583 0.47174 0.9982 0.0
C2054 C 0.67873 0.46496 0.00658 0.0
C2055 C 0.67131 0.47364 0.02196 0.0
C2056 C 0.65531 0.46704 0.02991 0.0
C2057 C 0.64651 0.45186 0.02249 0.0
C2058 C 0.65368 0.4433 0.00708 0.0
C2059 C 0.6697 0.44983 -0.0009 0.0
H2060 H 0.63412 0.44678 0.02865 0.0
H2061 H 0.78848 0.51299 0.95134 0.0
H2062 H 0.476 0.71368 0.92715 0.0
H2063 H 0.48826 0.71661 0.95795 0.0
H2064 H 0.45616 0.6705 0.97521 0.0
H2065 H 0.44353 0.66769 0.94457 0.0
H2066 H 0.4597 0.69489 0.00242 0.0
H2067 H 0.49835 0.66376 0.95992 0.0
H2068 H 0.51483 0.66088 0.93077 0.0
H2069 H 0.54783 0.7072 0.94455 0.0
H2070 H 0.5313 0.71056 0.97365 0.0
H2071 H 0.53786 0.6558 0.05902 0.0
H2072 H 0.52436 0.66148 0.02915 0.0
H2073 H 0.50452 0.71353 0.04783 0.0
H2074 H 0.51792 0.70794 0.07783 0.0
H2075 H 0.52691 0.68705 0.0027 0.0
H2076 H 0.45923 0.71705 0.03117 0.0
H2077 H 0.44073 0.716 0.0592 0.0
H2078 H 0.46484 0.66472 0.0736 0.0
H2079 H 0.48292 0.66507 0.04534 0.0
C2080 C 0.47118 0.70445 0.93761 0.0
C2081 C 0.45906 0.69023 0.93335 0.0
C2082 C 0.47823 0.70613 0.95519 0.0
C2083 C 0.47344 0.69349 0.9687 0.0
C2084 C 0.4601 0.68033 0.96493 0.0
C2085 C 0.45293 0.67872 0.94738 0.0
C2086 C 0.48384 0.69257 0.98596 0.0
C2087 C 0.47441 0.6934 0.00253 0.0
C2088 C 0.50297 0.68999 0.98599 0.0
C2089 C 0.51344 0.68755 0.96886 0.0
C2090 C 0.50906 0.67339 0.95669 0.0
C2091 C 0.51838 0.6717 0.94017 0.0
C2092 C 0.53225 0.68396 0.93575 0.0
C2093 C 0.53699 0.69779 0.94795 0.0
C2094 C 0.52766 0.69959 0.96446 0.0
C2095 C 0.53093 0.66862 0.05669 0.0
C2096 C 0.52879 0.68134 0.07084 0.0
C2097 C 0.52326 0.67185 0.0396 0.0
C2098 C 0.51321 0.68778 0.03641 0.0
C2099 C 0.51204 0.70104 0.05013 0.0
C2100 C 0.51979 0.69786 0.06722 0.0
C2101 C 0.50282 0.68978 0.01925 0.0
C2102 C 0.51225 0.68895 0.00265 0.0
C2103 C 0.48361 0.69174 0.01921 0.0
C2104 C 0.47268 0.69126 0.03624 0.0
C2105 C 0.46053 0.70551 0.04028 0.0
C2106 C 0.45006 0.70499 0.05618 0.0
C2107 C 0.45161 0.6903 0.06817 0.0
C2108 C 0.46363 0.67608 0.06429 0.0
C2109 C 0.47399 0.67642 0.04831 0.0
H2110 H 0.44344 0.68991 0.08043 0.0
H2111 H 0.53941 0.68266 0.92293 0.0
H2112 H 0.19419 0.30392 0.51711 0.0
H2113 H 0.21957 0.28234 0.51768 0.0
H2114 H 0.18265 0.23848 0.50462 0.0
H2115 H 0.1572 0.25984 0.50431 0.0
H2116 H 0.20626 0.22866 0.53082 0.0
H2117 H 0.20919 0.25802 0.47197 0.0
H2118 H 0.21119 0.28429 0.45113 0.0
H2119 H 0.26223 0.29986 0.47517 0.0
H2120 H 0.2604 0.27379 0.49633 0.0
H2121 H 0.26297 0.16063 0.4947 0.0
H2122 H 0.24047 0.18475 0.49863 0.0
H2123 H 0.28312 0.22249 0.51321 0.0
H2124 H 0.30585 0.19842 0.5092 0.0
H2125 H 0.25863 0.23705 0.48889 0.0
H2126 H 0.25689 0.2058 0.54592 0.0
H2127 H 0.25487 0.17916 0.56627 0.0
H2128 H 0.20158 0.16689 0.54544 0.0
H2129 H 0.20338 0.19331 0.52476 0.0
C2130 C 0.19147 0.28967 0.51443 0.0
C2131 C 0.17371 0.28359 0.51056 0.0
C2132 C 0.20598 0.27738 0.51471 0.0
C2133 C 0.20299 0.25887 0.51099 0.0
C2134 C 0.18523 0.25272 0.50752 0.0
C2135 C 0.17072 0.26496 0.50729 0.0
C2136 C 0.21834 0.24586 0.51034 0.0
C2137 C 0.21765 0.23041 0.52156 0.0
C2138 C 0.23342 0.24845 0.49861 0.0
C2139 C 0.23456 0.26409 0.48587 0.0
C2140 C 0.22077 0.26713 0.47291 0.0
C2141 C 0.22188 0.28197 0.46102 0.0
C2142 C 0.2368 0.29377 0.46186 0.0
C2143 C 0.25067 0.29072 0.47456 0.0
C2144 C 0.2496 0.27592 0.48649 0.0
C2145 C 0.2676 0.17405 0.49872 0.0
C2146 C 0.28618 0.1776 0.50172 0.0
C2147 C 0.25471 0.18779 0.50104 0.0
C2148 C 0.26014 0.20529 0.50645 0.0
C2149 C 0.27869 0.20901 0.50911 0.0
C2150 C 0.29162 0.19525 0.50685 0.0
C2151 C 0.24635 0.2197 0.50911 0.0
C2152 C 0.24735 0.23541 0.4983 0.0
C2153 C 0.23153 0.21733 0.52119 0.0
C2154 C 0.23034 0.20147 0.53368 0.0
C2155 C 0.24479 0.19734 0.54558 0.0
C2156 C 0.24368 0.18229 0.55719 0.0
C2157 C 0.22812 0.17131 0.55712 0.0
C2158 C 0.21362 0.1754 0.54547 0.0
C2159 C 0.21468 0.19042 0.53381 0.0
H2160 H 0.22728 0.15967 0.56612 0.0
H2161 H 0.23765 0.30525 0.45265 0.0
H2162 H 0.73304 0.16551 0.49961 0.0
H2163 H 0.75313 0.19187 0.49924 0.0
H2164 H 0.70672 0.22751 0.49374 0.0
H2165 H 0.68637 0.20101 0.49379 0.0
H2166 H 0.73389 0.23701 0.47074 0.0
H2167 H 0.72854 0.22491 0.53411 0.0
H2168 H 0.7283 0.20634 0.56209 0.0
H2169 H 0.78445 0.19231 0.55364 0.0
H2170 H 0.78497 0.21059 0.52546 0.0
H2171 H 0.79553 0.31232 0.4867 0.0
H2172 H 0.76969 0.29126 0.48888 0.0
H2173 H 0.80691 0.24592 0.49227 0.0
H2174 H 0.83269 0.26673 0.49019 0.0
H2175 H 0.78067 0.24512 0.51888 0.0
H2176 H 0.78431 0.25446 0.4535 0.0
H2177 H 0.78425 0.27303 0.4255 0.0
H2178 H 0.73074 0.29283 0.4384 0.0
H2179 H 0.73059 0.27454 0.46661 0.0
C2180 C 0.72704 0.17893 0.49838 0.0
C2181 C 0.70809 0.18118 0.4968 0.0
C2182 C 0.73856 0.194 0.49825 0.0
C2183 C 0.73138 0.21165 0.49677 0.0
C2184 C 0.7125 0.21399 0.495 0.0
C2185 C 0.70091 0.19885 0.49506 0.0
C2186 C 0.74385 0.22748 0.49666 0.0
C2187 C 0.74388 0.23905 0.48144 0.0
C2188 C 0.75695 0.23001 0.51058 0.0
C2189 C 0.75675 0.21905 0.52759 0.0
C2190 C 0.74081 0.21777 0.53814 0.0
C2191 C 0.74063 0.20731 0.55406 0.0
C2192 C 0.75634 0.19813 0.55963 0.0
C2193 C 0.77229 0.19943 0.54931 0.0
C2194 C 0.77254 0.20986 0.53338 0.0
C2195 C 0.79819 0.29785 0.48781 0.0
C2196 C 0.81615 0.29119 0.48833 0.0
C2197 C 0.78343 0.28587 0.48901 0.0
C2198 C 0.78644 0.26707 0.49074 0.0
C2199 C 0.80433 0.2604 0.49103 0.0
C2200 C 0.81904 0.27232 0.48978 0.0
C2201 C 0.77109 0.2542 0.49269 0.0
C2202 C 0.77049 0.24325 0.50832 0.0
C2203 C 0.75744 0.25234 0.47922 0.0
C2204 C 0.75754 0.26332 0.46227 0.0
C2205 C 0.77261 0.26291 0.45045 0.0
C2206 C 0.77259 0.27335 0.43452 0.0
C2207 C 0.75752 0.28416 0.43021 0.0
C2208 C 0.74242 0.28449 0.44178 0.0
C2209 C 0.74237 0.27408 0.45773 0.0
H2210 H 0.75753 0.29223 0.41787 0.0
H2211 H 0.75618 0.19003 0.57195 0.0
H2212 H 0.80141 0.69771 0.50079 0.0
H2213 H 0.77691 0.72021 0.50036 0.0
H2214 H 0.81615 0.76322 0.50869 0.0
H2215 H 0.84067 0.74076 0.50964 0.0
H2216 H 0.78735 0.76854 0.52941 0.0
H2217 H 0.79749 0.75431 0.46632 0.0
H2218 H 0.8005 0.73424 0.43954 0.0
H2219 H 0.74549 0.71569 0.44685 0.0
H2220 H 0.74224 0.73548 0.47382 0.0
H2221 H 0.73502 0.84422 0.50061 0.0
H2222 H 0.75786 0.82011 0.50254 0.0
H2223 H 0.71545 0.77948 0.50016 0.0
H2224 H 0.69244 0.80353 0.49821 0.0
H2225 H 0.74468 0.77216 0.47707 0.0
H2226 H 0.73456 0.7879 0.53971 0.0
H2227 H 0.73197 0.80871 0.56595 0.0
H2228 H 0.78762 0.82528 0.55875 0.0
H2229 H 0.79047 0.80475 0.53229 0.0
C2230 C 0.80482 0.71196 0.50255 0.0
C2231 C 0.82297 0.71748 0.50517 0.0
C2232 C 0.79081 0.7248 0.50222 0.0
C2233 C 0.79474 0.74341 0.50423 0.0
C2234 C 0.81283 0.74893 0.5071 0.0
C2235 C 0.82682 0.73608 0.5076 0.0
C2236 C 0.78004 0.75718 0.50333 0.0
C2237 C 0.77816 0.76946 0.51787 0.0
C2238 C 0.76778 0.7581 0.48845 0.0
C2239 C 0.76969 0.74624 0.4722 0.0
C2240 C 0.78609 0.74585 0.4623 0.0
C2241 C 0.78783 0.73454 0.44707 0.0
C2242 C 0.77321 0.72366 0.44153 0.0
C2243 C 0.75681 0.7241 0.45117 0.0
C2244 C 0.755 0.73538 0.46642 0.0
C2245 C 0.73053 0.83016 0.50049 0.0
C2246 C 0.71192 0.82577 0.49931 0.0
C2247 C 0.74359 0.81642 0.50166 0.0
C2248 C 0.73829 0.79807 0.50166 0.0
C2249 C 0.71977 0.7936 0.50022 0.0
C2250 C 0.70666 0.80734 0.49916 0.0
C2251 C 0.75215 0.78356 0.50305 0.0
C2252 C 0.75385 0.77115 0.48862 0.0
C2253 C 0.76432 0.7826 0.51795 0.0
C2254 C 0.76267 0.7949 0.53391 0.0
C2255 C 0.7462 0.79609 0.54363 0.0
C2256 C 0.7447 0.80781 0.55856 0.0
C2257 C 0.75961 0.81834 0.56399 0.0
C2258 C 0.77607 0.81713 0.55452 0.0
C2259 C 0.77765 0.80544 0.53956 0.0
H2260 H 0.75841 0.82741 0.57555 0.0
H2261 H 0.77459 0.71491 0.42974 0.0
H2262 H 0.16051 0.73449 0.48124 0.0
H2263 H 0.18556 0.75626 0.48239 0.0
H2264 H 0.22431 0.71209 0.48155 0.0
H2265 H 0.19924 0.69009 0.48067 0.0
H2266 H 0.2325 0.73645 0.50753 0.0
H2267 H 0.21866 0.73863 0.44421 0.0
H2268 H 0.19925 0.74121 0.41692 0.0
H2269 H 0.1833 0.79514 0.433 0.0
H2270 H 0.20243 0.79279 0.46054 0.0
H2271 H 0.30689 0.79869 0.49609 0.0
H2272 H 0.28509 0.77392 0.49136 0.0
H2273 H 0.24068 0.81226 0.49446 0.0
H2274 H 0.26233 0.83711 0.49912 0.0
H2275 H 0.23765 0.78894 0.46526 0.0
H2276 H 0.24976 0.7853 0.52987 0.0
H2277 H 0.26928 0.78244 0.55707 0.0
H2278 H 0.2889 0.73078 0.53793 0.0
H2279 H 0.26967 0.73345 0.51047 0.0
C2280 C 0.17435 0.72937 0.48117 0.0
C2281 C 0.1779 0.71056 0.48088 0.0
C2282 C 0.18866 0.74185 0.48173 0.0
C2283 C 0.20678 0.73578 0.48185 0.0
C2284 C 0.2104 0.71702 0.48142 0.0
C2285 C 0.19607 0.7045 0.48087 0.0
C2286 C 0.22184 0.74911 0.48328 0.0
C2287 C 0.23387 0.74774 0.49808 0.0
C2288 C 0.2234 0.76397 0.4711 0.0
C2289 C 0.21189 0.76547 0.45452 0.0
C2290 C 0.21091 0.75099 0.44201 0.0
C2291 C 0.19997 0.75242 0.42648 0.0
C2292 C 0.19002 0.76831 0.42325 0.0
C2293 C 0.19101 0.78283 0.43552 0.0
C2294 C 0.20192 0.78146 0.45109 0.0
C2295 C 0.29248 0.80185 0.49583 0.0
C2296 C 0.28632 0.81985 0.49799 0.0
C2297 C 0.28006 0.78768 0.49316 0.0
C2298 C 0.2613 0.79129 0.49264 0.0
C2299 C 0.25512 0.80923 0.4948 0.0
C2300 C 0.26751 0.82339 0.49753 0.0
C2301 C 0.24803 0.77644 0.48968 0.0
C2302 C 0.23639 0.77753 0.47457 0.0
C2303 C 0.24688 0.76129 0.50152 0.0
C2304 C 0.25844 0.75968 0.51802 0.0
C2305 C 0.25836 0.77341 0.53138 0.0
C2306 C 0.26935 0.77181 0.54686 0.0
C2307 C 0.28037 0.75647 0.5492 0.0
C2308 C 0.28039 0.74267 0.53608 0.0
C2309 C 0.26944 0.74422 0.52056 0.0
H2310 H 0.28886 0.75525 0.5612 0.0
H2311 H 0.18156 0.7694 0.41121 0.0
H2312 H 0.49688 0.15663 0.25872 0.0
H2313 H 0.49623 0.18112 0.23635 0.0
H2314 H 0.5365 0.21076 0.26732 0.0
H2315 H 0.53703 0.18634 0.29003 0.0
H2316 H 0.50835 0.23204 0.25829 0.0
H2317 H 0.54773 0.19125 0.22672 0.0
H2318 H 0.55784 0.16192 0.21387 0.0
H2319 H 0.51104 0.16078 0.17876 0.0
H2320 H 0.5005 0.18998 0.19158 0.0
H2321 H 0.5149 0.30026 0.19006 0.0
H2322 H 0.52263 0.27569 0.21108 0.0
H2323 H 0.48324 0.24075 0.1849 0.0
H2324 H 0.47568 0.26515 0.16353 0.0
H2325 H 0.51447 0.22285 0.1916 0.0
H2326 H 0.47382 0.26206 0.22545 0.0
H2327 H 0.46359 0.29129 0.23847 0.0
H2328 H 0.5131 0.2952 0.26942 0.0
H2329 H 0.52372 0.26609 0.2564 0.0
C2330 C 0.50573 0.16827 0.26073 0.0
C2331 C 0.51697 0.16958 0.27619 0.0
C2332 C 0.50543 0.18221 0.24785 0.0
C2333 C 0.51646 0.19766 0.25008 0.0
C2334 C 0.52792 0.19891 0.26534 0.0
C2335 C 0.52822 0.18495 0.27828 0.0
C2336 C 0.51507 0.21295 0.23703 0.0
C2337 C 0.51006 0.23013 0.24373 0.0
C2338 C 0.51694 0.21032 0.21802 0.0
C2339 C 0.52325 0.19276 0.21022 0.0
C2340 C 0.53951 0.18468 0.21636 0.0
C2341 C 0.54534 0.16809 0.20906 0.0
C2342 C 0.53507 0.15948 0.19553 0.0
C2343 C 0.51898 0.16746 0.18924 0.0
C2344 C 0.51308 0.18405 0.19651 0.0
C2345 C 0.50785 0.28736 0.18878 0.0
C2346 C 0.49458 0.28467 0.17521 0.0
C2347 C 0.51228 0.27335 0.20082 0.0
C2348 C 0.50335 0.25648 0.19968 0.0
C2349 C 0.49028 0.25368 0.18601 0.0
C2350 C 0.48592 0.26765 0.17386 0.0
C2351 C 0.50746 0.24181 0.21286 0.0
C2352 C 0.51298 0.22478 0.20618 0.0
C2353 C 0.50607 0.24455 0.2319 0.0
C2354 C 0.49964 0.262 0.2398 0.0
C2355 C 0.48258 0.26922 0.23493 0.0
C2356 C 0.4767 0.28575 0.24233 0.0
C2357 C 0.48771 0.29512 0.25472 0.0
C2358 C 0.5046 0.28794 0.25979 0.0
C2359 C 0.51055 0.27142 0.25242 0.0
H2360 H 0.48314 0.30792 0.26043 0.0
H2361 H 0.53961 0.14663 0.18989 0.0
H2362 H 0.84337 0.46598 0.26979 0.0
H2363 H 0.821 0.46307 0.24531 0.0
H2364 H 0.81534 0.52155 0.2434 0.0
H2365 H 0.83736 0.52456 0.26817 0.0
H2366 H 0.78306 0.50582 0.24152 0.0
H2367 H 0.84048 0.4983 0.21139 0.0
H2368 H 0.87085 0.48499 0.20604 0.0
H2369 H 0.84661 0.43245 0.19734 0.0
H2370 H 0.81609 0.44541 0.20288 0.0
H2371 H 0.73995 0.51256 0.15542 0.0
H2372 H 0.76256 0.51469 0.17977 0.0
H2373 H 0.76271 0.45616 0.18495 0.0
H2374 H 0.74009 0.45386 0.16056 0.0
H2375 H 0.79756 0.47154 0.18508 0.0
H2376 H 0.7398 0.48003 0.21494 0.0
H2377 H 0.7097 0.49425 0.21945 0.0
H2378 H 0.73522 0.54624 0.22779 0.0
H2379 H 0.76547 0.53237 0.22308 0.0
C2380 C 0.83736 0.47822 0.26417 0.0
C2381 C 0.84218 0.4955 0.27086 0.0
C2382 C 0.82464 0.47654 0.25013 0.0
C2383 C 0.81671 0.49211 0.24236 0.0
C2384 C 0.82132 0.50936 0.24918 0.0
C2385 C 0.83393 0.51105 0.26331 0.0
C2386 C 0.80354 0.49044 0.22717 0.0
C2387 C 0.78632 0.49852 0.22909 0.0
C2388 C 0.80769 0.48062 0.2111 0.0
C2389 C 0.82602 0.47279 0.20774 0.0
C2390 C 0.84164 0.48388 0.20848 0.0
C2391 C 0.85888 0.47641 0.20539 0.0
C2392 C 0.86066 0.45788 0.2014 0.0
C2393 C 0.84521 0.4468 0.20045 0.0
C2394 C 0.82793 0.4542 0.20356 0.0
C2395 C 0.74485 0.50012 0.16166 0.0
C2396 C 0.73818 0.48304 0.15613 0.0
C2397 C 0.7577 0.50138 0.17561 0.0
C2398 C 0.76412 0.48558 0.18423 0.0
C2399 C 0.75786 0.46849 0.17845 0.0
C2400 C 0.74491 0.46722 0.16457 0.0
C2401 C 0.77719 0.48695 0.19947 0.0
C2402 C 0.79435 0.47881 0.19755 0.0
C2403 C 0.77306 0.49685 0.21547 0.0
C2404 C 0.75489 0.50519 0.21848 0.0
C2405 C 0.73898 0.49452 0.2176 0.0
C2406 C 0.7219 0.50251 0.22021 0.0
C2407 C 0.72054 0.52115 0.22385 0.0
C2408 C 0.73628 0.53181 0.22495 0.0
C2409 C 0.7534 0.52389 0.22232 0.0
H2410 H 0.7073 0.52732 0.22586 0.0
H2411 H 0.87402 0.45212 0.19901 0.0
H2412 H 0.50199 0.68867 0.19311 0.0
H2413 H 0.49524 0.7122 0.21564 0.0
H2414 H 0.52625 0.75118 0.18446 0.0
H2415 H 0.53318 0.7277 0.16185 0.0
H2416 H 0.53373 0.75285 0.22104 0.0
H2417 H 0.48088 0.75153 0.1822 0.0
H2418 H 0.45496 0.73713 0.16637 0.0
H2419 H 0.43229 0.72076 0.21775 0.0
H2420 H 0.45823 0.73484 0.23388 0.0
H2421 H 0.50378 0.83526 0.25859 0.0
H2422 H 0.509 0.81024 0.23742 0.0
H2423 H 0.47706 0.77448 0.27138 0.0
H2424 H 0.47157 0.79957 0.2927 0.0
H2425 H 0.46976 0.76999 0.23475 0.0
H2426 H 0.52196 0.77199 0.27371 0.0
H2427 H 0.54776 0.78641 0.28969 0.0
H2428 H 0.57166 0.80121 0.2384 0.0
H2429 H 0.54585 0.78711 0.2221 0.0
C2430 C 0.50746 0.70222 0.19107 0.0
C2431 C 0.51808 0.70636 0.17567 0.0
C2432 C 0.50351 0.71566 0.20392 0.0
C2433 C 0.51008 0.73344 0.20157 0.0
C2434 C 0.52103 0.73752 0.18645 0.0
C2435 C 0.52494 0.72411 0.17355 0.0
C2436 C 0.50549 0.74784 0.21485 0.0
C2437 C 0.51976 0.75675 0.22389 0.0
C2438 C 0.48722 0.75251 0.21891 0.0
C2439 C 0.4716 0.74407 0.20923 0.0
C2440 C 0.47045 0.74472 0.19012 0.0
C2441 C 0.45574 0.73664 0.18109 0.0
C2442 C 0.44202 0.72799 0.19104 0.0
C2443 C 0.44295 0.72744 0.21005 0.0
C2444 C 0.45764 0.73548 0.21914 0.0
C2445 C 0.49775 0.82212 0.26155 0.0
C2446 C 0.48739 0.81935 0.27742 0.0
C2447 C 0.50081 0.80783 0.24945 0.0
C2448 C 0.49366 0.79048 0.25302 0.0
C2449 C 0.48275 0.78778 0.26847 0.0
C2450 C 0.47967 0.80211 0.28063 0.0
C2451 C 0.49802 0.77513 0.24076 0.0
C2452 C 0.48372 0.76602 0.23195 0.0
C2453 C 0.51627 0.77022 0.23694 0.0
C2454 C 0.53188 0.77862 0.24669 0.0
C2455 C 0.53265 0.77844 0.26584 0.0
C2456 C 0.54728 0.78654 0.27495 0.0
C2457 C 0.56132 0.79476 0.26507 0.0
C2458 C 0.56077 0.79485 0.24604 0.0
C2459 C 0.54614 0.78679 0.23685 0.0
H2460 H 0.57264 0.80102 0.27215 0.0
H2461 H 0.43064 0.72174 0.18403 0.0
H2462 H 0.19959 0.51388 0.30069 0.0
H2463 H 0.22415 0.52018 0.27903 0.0
H2464 H 0.19415 0.49229 0.23684 0.0
H2465 H 0.16971 0.48576 0.25836 0.0
H2466 H 0.22991 0.48362 0.236 0.0
H2467 H 0.19332 0.53824 0.23984 0.0
H2468 H 0.17857 0.56389 0.25574 0.0
H2469 H 0.23071 0.58265 0.27454 0.0
H2470 H 0.24576 0.55695 0.25894 0.0
H2471 H 0.26459 0.51743 0.15409 0.0
H2472 H 0.24418 0.51238 0.17982 0.0
H2473 H 0.2829 0.53795 0.21589 0.0
H2474 H 0.30356 0.54305 0.19017 0.0
H2475 H 0.24587 0.54792 0.22232 0.0
H2476 H 0.28263 0.49454 0.21589 0.0
H2477 H 0.29707 0.46918 0.19927 0.0
H2478 H 0.24438 0.44814 0.18496 0.0
H2479 H 0.22961 0.47356 0.20125 0.0
C2480 C 0.1983 0.50895 0.28684 0.0
C2481 C 0.18265 0.49943 0.2812 0.0
C2482 C 0.2123 0.51262 0.27448 0.0
C2483 C 0.21083 0.50688 0.2563 0.0
C2484 C 0.19552 0.49685 0.25081 0.0
C2485 C 0.18154 0.49319 0.26312 0.0
C2486 C 0.2249 0.51174 0.24273 0.0
C2487 C 0.23332 0.49768 0.23293 0.0
C2488 C 0.22966 0.53008 0.23909 0.0
C2489 C 0.22064 0.54556 0.24841 0.0
C2490 C 0.20162 0.54775 0.24749 0.0
C2491 C 0.19321 0.56231 0.25642 0.0
C2492 C 0.20369 0.57486 0.26619 0.0
C2493 C 0.22261 0.5729 0.267 0.0
C2494 C 0.23109 0.55834 0.25811 0.0
C2495 C 0.26871 0.52221 0.16743 0.0
C2496 C 0.28577 0.53049 0.17013 0.0
C2497 C 0.25705 0.51924 0.18212 0.0
C2498 C 0.26221 0.52456 0.19972 0.0
C2499 C 0.27878 0.53369 0.20237 0.0
C2500 C 0.29054 0.53655 0.18768 0.0
C2501 C 0.25054 0.51981 0.21539 0.0
C2502 C 0.24261 0.53387 0.22557 0.0
C2503 C 0.24619 0.50146 0.21937 0.0
C2504 C 0.25501 0.48606 0.20967 0.0
C2505 C 0.27412 0.48459 0.20908 0.0
C2506 C 0.28236 0.47019 0.19974 0.0
C2507 C 0.27165 0.45708 0.19103 0.0
C2508 C 0.25266 0.45832 0.1917 0.0
C2509 C 0.24434 0.47271 0.201 0.0
H2510 H 0.27806 0.44594 0.18381 0.0
H2511 H 0.19715 0.58612 0.2731 0.0
H2512 H 0.48456 0.72928 0.84531 0.0
H2513 H 0.49144 0.75183 0.82185 0.0
H2514 H 0.46124 0.72028 0.78247 0.0
H2515 H 0.45458 0.69746 0.80578 0.0
H2516 H 0.49302 0.73189 0.76854 0.0
H2517 H 0.44304 0.75863 0.80142 0.0
H2518 H 0.42668 0.76951 0.82866 0.0
H2519 H 0.46969 0.80764 0.83965 0.0
H2520 H 0.48643 0.79681 0.8126 0.0
H2521 H 0.4818 0.80064 0.701 0.0
H2522 H 0.47815 0.77673 0.72385 0.0
H2523 H 0.50797 0.8092 0.76277 0.0
H2524 H 0.51138 0.83332 0.74013 0.0
H2525 H 0.47708 0.79701 0.77704 0.0
H2526 H 0.52671 0.77091 0.74362 0.0
H2527 H 0.54299 0.76012 0.7163 0.0
H2528 H 0.50071 0.72095 0.70618 0.0
H2529 H 0.48405 0.73167 0.73332 0.0
C2530 C 0.47933 0.72716 0.83168 0.0
C2531 C 0.46896 0.71162 0.82741 0.0
C2532 C 0.48324 0.74008 0.8183 0.0
C2533 C 0.47668 0.73781 0.80048 0.0
C2534 C 0.46643 0.72227 0.79615 0.0
C2535 C 0.46258 0.70929 0.8095 0.0
C2536 C 0.48056 0.75163 0.78633 0.0
C2537 C 0.48934 0.7461 0.77028 0.0
C2538 C 0.47614 0.77021 0.78884 0.0
C2539 C 0.46607 0.77678 0.80508 0.0
C2540 C 0.44907 0.76923 0.80972 0.0
C2541 C 0.43972 0.77541 0.82512 0.0
C2542 C 0.44716 0.78922 0.83591 0.0
C2543 C 0.46395 0.79692 0.8313 0.0
C2544 C 0.47337 0.79078 0.81593 0.0
C2545 C 0.48776 0.80261 0.71435 0.0
C2546 C 0.4968 0.8189 0.71879 0.0
C2547 C 0.48573 0.7889 0.72738 0.0
C2548 C 0.49288 0.79116 0.74497 0.0
C2549 C 0.50232 0.80721 0.74928 0.0
C2550 C 0.50428 0.82096 0.73631 0.0
C2551 C 0.48957 0.7773 0.75923 0.0
C2552 C 0.48084 0.78282 0.77531 0.0
C2553 C 0.49403 0.75872 0.75672 0.0
C2554 C 0.50405 0.75222 0.74042 0.0
C2555 C 0.52081 0.7601 0.73549 0.0
C2556 C 0.53012 0.75397 0.72005 0.0
C2557 C 0.52287 0.73989 0.70949 0.0
C2558 C 0.50631 0.73187 0.71437 0.0
C2559 C 0.49693 0.73795 0.72979 0.0
H2560 H 0.5301 0.73517 0.69754 0.0
H2561 H 0.43989 0.79399 0.84782 0.0
H2562 H 0.25524 0.46774 0.83549 0.0
H2563 H 0.23284 0.47123 0.81121 0.0
H2564 H 0.2756 0.46777 0.77103 0.0
H2565 H 0.29821 0.46459 0.7953 0.0
H2566 H 0.25447 0.49667 0.76519 0.0
H2567 H 0.24462 0.43332 0.77603 0.0
H2568 H 0.23879 0.40572 0.79426 0.0
H2569 H 0.18754 0.42774 0.81183 0.0
H2570 H 0.19316 0.4556 0.79389 0.0
H2571 H 0.19292 0.49506 0.69017 0.0
H2572 H 0.21633 0.48699 0.71242 0.0
H2573 H 0.1772 0.49269 0.75588 0.0
H2574 H 0.15363 0.50067 0.73371 0.0
H2575 H 0.19728 0.46119 0.75866 0.0
H2576 H 0.20818 0.52517 0.74925 0.0
H2577 H 0.21408 0.55281 0.7311 0.0
H2578 H 0.26362 0.52927 0.71079 0.0
H2579 H 0.25788 0.50137 0.72864 0.0
C2580 C 0.25988 0.46745 0.82149 0.0
C2581 C 0.27852 0.46599 0.81732 0.0
C2582 C 0.24703 0.46936 0.80762 0.0
C2583 C 0.25255 0.46966 0.78932 0.0
C2584 C 0.27108 0.46759 0.78508 0.0
C2585 C 0.28396 0.46572 0.79896 0.0
C2586 C 0.23914 0.47351 0.77477 0.0
C2587 C 0.24213 0.48868 0.76352 0.0
C2588 C 0.22284 0.46337 0.77293 0.0
C2589 C 0.21939 0.44662 0.78372 0.0
C2590 C 0.23217 0.43234 0.78389 0.0
C2591 C 0.22889 0.41664 0.79415 0.0
C2592 C 0.21282 0.415 0.80423 0.0
C2593 C 0.19998 0.42904 0.80403 0.0
C2594 C 0.2032 0.44478 0.79379 0.0
C2595 C 0.1893 0.49468 0.70447 0.0
C2596 C 0.17144 0.49854 0.7102 0.0
C2597 C 0.2027 0.4901 0.71715 0.0
C2598 C 0.19848 0.48934 0.73577 0.0
C2599 C 0.18068 0.49319 0.74155 0.0
C2600 C 0.16728 0.49784 0.72888 0.0
C2601 C 0.2126 0.48437 0.74923 0.0
C2602 C 0.20971 0.46903 0.76026 0.0
C2603 C 0.22901 0.49433 0.75086 0.0
C2604 C 0.23249 0.5111 0.74013 0.0
C2605 C 0.22025 0.52582 0.74079 0.0
C2606 C 0.22358 0.54155 0.73058 0.0
C2607 C 0.23919 0.54277 0.71976 0.0
C2608 C 0.25152 0.52829 0.71916 0.0
C2609 C 0.24824 0.51252 0.72933 0.0
H2610 H 0.24175 0.55496 0.71187 0.0
H2611 H 0.21031 0.40283 0.81216 0.0
H2612 H 0.52906 0.18478 0.70309 0.0
H2613 H 0.53287 0.20785 0.72681 0.0
H2614 H 0.48983 0.18298 0.75813 0.0
H2615 H 0.48596 0.15974 0.73452 0.0
H2616 H 0.48823 0.22177 0.75649 0.0
H2617 H 0.53096 0.17367 0.76997 0.0
H2618 H 0.55588 0.15235 0.76275 0.0
H2619 H 0.59141 0.19734 0.75107 0.0
H2620 H 0.56659 0.21894 0.75796 0.0
H2621 H 0.50486 0.26306 0.84171 0.0
H2622 H 0.50017 0.24083 0.81741 0.0
H2623 H 0.54864 0.26014 0.79029 0.0
H2624 H 0.55369 0.28209 0.81481 0.0
H2625 H 0.54735 0.22435 0.78927 0.0
H2626 H 0.50572 0.27264 0.77585 0.0
H2627 H 0.48111 0.29463 0.78208 0.0
H2628 H 0.44395 0.25061 0.79233 0.0
H2629 H 0.46842 0.22835 0.7864 0.0
C2630 C 0.52029 0.18429 0.71494 0.0
C2631 C 0.50729 0.17038 0.71701 0.0
C2632 C 0.52252 0.19745 0.72848 0.0
C2633 C 0.51174 0.19695 0.74423 0.0
C2634 C 0.49828 0.18352 0.74604 0.0
C2635 C 0.49615 0.17024 0.73259 0.0
C2636 C 0.51497 0.21006 0.75914 0.0
C2637 C 0.50106 0.22224 0.76383 0.0
C2638 C 0.53189 0.21087 0.76832 0.0
C2639 C 0.54686 0.19791 0.7643 0.0
C2640 C 0.54404 0.17901 0.76571 0.0
C2641 C 0.55815 0.16688 0.76171 0.0
C2642 C 0.5752 0.17348 0.75641 0.0
C2643 C 0.57818 0.19225 0.75515 0.0
C2644 C 0.5641 0.20444 0.75912 0.0
C2645 C 0.51456 0.26253 0.83062 0.0
C2646 C 0.5296 0.27438 0.83012 0.0
C2647 C 0.51181 0.24989 0.81669 0.0
C2648 C 0.52387 0.24907 0.80188 0.0
C2649 C 0.53912 0.26059 0.80157 0.0
C2650 C 0.54198 0.27313 0.81558 0.0
C2651 C 0.52059 0.23617 0.78671 0.0
C2652 C 0.53451 0.22397 0.78195 0.0
C2653 C 0.50372 0.23548 0.77735 0.0
C2654 C 0.48895 0.24883 0.78085 0.0
C2655 C 0.49233 0.26765 0.77957 0.0
C2656 C 0.4784 0.28016 0.78302 0.0
C2657 C 0.46099 0.27402 0.78764 0.0
C2658 C 0.45745 0.25535 0.78877 0.0
C2659 C 0.47135 0.24278 0.78535 0.0
H2660 H 0.45022 0.28373 0.79031 0.0
H2661 H 0.58611 0.16407 0.75332 0.0
H2662 H 0.68863 0.54353 0.79923 0.0
H2663 H 0.7115 0.54204 0.77504 0.0
H2664 H 0.7515 0.52346 0.81391 0.0
H2665 H 0.72892 0.52526 0.83818 0.0
H2666 H 0.76656 0.54622 0.78966 0.0
H2667 H 0.72728 0.4933 0.7881 0.0
H2668 H 0.69769 0.47749 0.78612 0.0
H2669 H 0.68787 0.50175 0.7338 0.0
H2670 H 0.71732 0.51791 0.73559 0.0
H2671 H 0.82903 0.49626 0.73721 0.0
H2672 H 0.8051 0.50478 0.75864 0.0
H2673 H 0.77157 0.52343 0.71411 0.0
H2674 H 0.7954 0.51478 0.69248 0.0
H2675 H 0.75224 0.50369 0.73905 0.0
H2676 H 0.79373 0.554 0.73958 0.0
H2677 H 0.82377 0.56888 0.74189 0.0
H2678 H 0.82991 0.54876 0.79647 0.0
H2679 H 0.80001 0.53353 0.7944 0.0
C2680 C 0.70238 0.53942 0.80268 0.0
C2681 C 0.70691 0.53427 0.82056 0.0
C2682 C 0.7154 0.53852 0.78884 0.0
C2683 C 0.73307 0.53229 0.79264 0.0
C2684 C 0.73791 0.52823 0.81067 0.0
C2685 C 0.72495 0.52921 0.82452 0.0
C2686 C 0.74621 0.52871 0.77779 0.0
C2687 C 0.76348 0.53687 0.77864 0.0
C2688 C 0.74202 0.51677 0.76322 0.0
C2689 C 0.72439 0.50697 0.76207 0.0
C2690 C 0.71875 0.49536 0.77623 0.0
C2691 C 0.70201 0.48633 0.77514 0.0
C2692 C 0.69088 0.48866 0.75987 0.0
C2693 C 0.69649 0.49999 0.74563 0.0
C2694 C 0.7132 0.50908 0.74668 0.0
C2695 C 0.81653 0.50206 0.73193 0.0
C2696 C 0.81415 0.50495 0.71315 0.0
C2697 C 0.80292 0.50702 0.74421 0.0
C2698 C 0.78674 0.51504 0.73796 0.0
C2699 C 0.78404 0.51737 0.71919 0.0
C2700 C 0.79766 0.51242 0.70687 0.0
C2701 C 0.77268 0.52098 0.75109 0.0
C2702 C 0.75525 0.51325 0.74992 0.0
C2703 C 0.77676 0.53323 0.76542 0.0
C2704 C 0.79468 0.54251 0.76678 0.0
C2705 C 0.80154 0.55265 0.75203 0.0
C2706 C 0.81854 0.56116 0.75331 0.0
C2707 C 0.82876 0.55974 0.76931 0.0
C2708 C 0.82198 0.54984 0.78409 0.0
C2709 C 0.805 0.54128 0.78287 0.0
H2710 H 0.84192 0.56633 0.77027 0.0
H2711 H 0.67793 0.48165 0.75905 0.0
loop_
_geom_bond_atom_site_label_1
_geom_bond_atom_site_label_2
_geom_bond_distance
_geom_bond_site_symmetry_2
_ccdc_geom_bond_type
C0 O1 1.160 . S
C0 O7 1.185 . S
O1 C0 1.160 . S
O2 Zn3 1.899 . S
O2 C10 1.284 . S
Zn3 O2 1.899 . S
Zn3 O4 2.032 . S
Zn3 O7 2.086 . S
Zn3 O12 1.977 . S
O4 Zn3 2.032 . S
O4 C8 1.278 . S
C5 O6 1.203 . S
C5 O12 1.267 . S
O6 C5 1.203 . S
O7 C0 1.185 . S
O7 Zn3 2.086 . S
C8 O4 1.278 . S
C8 O9 1.211 . S
O9 C8 1.211 . S
C10 O2 1.284 . S
C10 O11 1.273 . S
O11 C10 1.273 . S
O12 Zn3 1.977 . S
O12 C5 1.267 . S
C13 O14 1.160 . S
C13 O20 1.185 . S
O14 C13 1.160 . S
O15 Zn16 1.899 . S
O15 C23 1.284 . S
Zn16 O15 1.899 . S
Zn16 O17 2.032 . S
Zn16 O20 2.086 . S
Zn16 O25 1.977 . S
O17 Zn16 2.032 . S
O17 C21 1.278 . S
C18 O19 1.203 . S
C18 O25 1.267 . S
O19 C18 1.203 . S
O20 C13 1.185 . S
O20 Zn16 2.086 . S
C21 O17 1.278 . S
C21 O22 1.211 . S
O22 C21 1.211 . S
C23 O15 1.284 . S
C23 O24 1.273 . S
O24 C23 1.273 . S
O25 Zn16 1.977 . S
O25 C18 1.267 . S
C26 O27 1.160 . S
C26 O33 1.185 . S
O27 C26 1.160 . S
O28 Zn29 1.899 . S
O28 C36 1.284 . S
Zn29 O28 1.899 . S
Zn29 O30 2.032 . S
Zn29 O33 2.086 . S
Zn29 O38 1.977 . S
O30 Zn29 2.032 . S
O30 C34 1.278 . S
C31 O32 1.203 . S
C31 O38 1.267 . S
O32 C31 1.203 . S
O33 C26 1.185 . S
O33 Zn29 2.086 . S
C34 O30 1.278 . S
C34 O35 1.211 . S
O35 C34 1.211 . S
C36 O28 1.284 . S
C36 O37 1.273 . S
O37 C36 1.273 . S
O38 Zn29 1.977 . S
O38 C31 1.267 . S
C39 O40 1.160 . S
C39 O46 1.185 . S
O40 C39 1.160 . S
O41 Zn42 1.899 . S
O41 C49 1.284 . S
Zn42 O41 1.899 . S
Zn42 O43 2.032 . S
Zn42 O46 2.086 . S
Zn42 O51 1.977 . S
O43 Zn42 2.032 . S
O43 C47 1.278 . S
C44 O45 1.203 . S
C44 O51 1.267 . S
O45 C44 1.203 . S
O46 C39 1.185 . S
O46 Zn42 2.086 . S
C47 O43 1.278 . S
C47 O48 1.211 . S
O48 C47 1.211 . S
C49 O41 1.284 . S
C49 O50 1.273 . S
O50 C49 1.273 . S
O51 Zn42 1.977 . S
O51 C44 1.267 . S
C52 O53 1.160 . S
C52 O59 1.185 . S
O53 C52 1.160 . S
O54 Zn55 1.899 . S
O54 C62 1.284 . S
Zn55 O54 1.899 . S
Zn55 O56 2.032 . S
Zn55 O59 2.086 . S
Zn55 O64 1.977 . S
O56 Zn55 2.032 . S
O56 C60 1.278 . S
C57 O58 1.203 . S
C57 O64 1.267 . S
O58 C57 1.203 . S
O59 C52 1.185 . S
O59 Zn55 2.086 . S
C60 O56 1.278 . S
C60 O61 1.211 . S
O61 C60 1.211 . S
C62 O54 1.284 . S
C62 O63 1.273 . S
O63 C62 1.273 . S
O64 Zn55 1.977 . S
O64 C57 1.267 . S
C65 O66 1.160 . S
C65 O72 1.185 . S
O66 C65 1.160 . S
O67 Zn68 1.899 . S
O67 C75 1.284 . S
Zn68 O67 1.899 . S
Zn68 O69 2.032 . S
Zn68 O72 2.086 . S
Zn68 O77 1.977 . S
O69 Zn68 2.032 . S
O69 C73 1.278 . S
C70 O71 1.203 . S
C70 O77 1.267 . S
O71 C70 1.203 . S
O72 C65 1.185 . S
O72 Zn68 2.086 . S
C73 O69 1.278 . S
C73 O74 1.211 . S
O74 C73 1.211 . S
C75 O67 1.284 . S
C75 O76 1.273 . S
O76 C75 1.273 . S
O77 Zn68 1.977 . S
O77 C70 1.267 . S
C78 O79 1.160 . S
C78 O85 1.185 . S
O79 C78 1.160 . S
O80 Zn81 1.899 . S
O80 C88 1.284 . S
Zn81 O80 1.899 . S
Zn81 O82 2.032 . S
Zn81 O85 2.086 . S
Zn81 O90 1.977 . S
O82 Zn81 2.032 . S
O82 C86 1.278 . S
C83 O84 1.203 . S
C83 O90 1.267 . S
O84 C83 1.203 . S
O85 C78 1.185 . S
O85 Zn81 2.086 . S
C86 O82 1.278 . S
C86 O87 1.211 . S
O87 C86 1.211 . S
C88 O80 1.284 . S
C88 O89 1.273 . S
O89 C88 1.273 . S
O90 Zn81 1.977 . S
O90 C83 1.267 . S
C91 O92 1.160 . S
C91 O98 1.185 . S
O92 C91 1.160 . S
O93 Zn94 1.899 . S
O93 C101 1.284 . S
Zn94 O93 1.899 . S
Zn94 O95 2.032 . S
Zn94 O98 2.086 . S
Zn94 O103 1.977 . S
O95 Zn94 2.032 . S
O95 C99 1.278 . S
C96 O97 1.203 . S
C96 O103 1.267 . S
O97 C96 1.203 . S
O98 C91 1.185 . S
O98 Zn94 2.086 . S
C99 O95 1.278 . S
C99 O100 1.211 . S
O100 C99 1.211 . S
C101 O93 1.284 . S
C101 O102 1.273 . S
O102 C101 1.273 . S
O103 Zn94 1.977 . S
O103 C96 1.267 . S
C104 O105 1.160 . S
C104 O111 1.185 . S
O105 C104 1.160 . S
O106 Zn107 1.899 . S
O106 C114 1.284 . S
Zn107 O106 1.899 . S
Zn107 O108 2.032 . S
Zn107 O111 2.086 . S
Zn107 O116 1.977 . S
O108 Zn107 2.032 . S
O108 C112 1.278 . S
C109 O110 1.203 . S
C109 O116 1.267 . S
O110 C109 1.203 . S
O111 C104 1.185 . S
O111 Zn107 2.086 . S
C112 O108 1.278 . S
C112 O113 1.211 . S
O113 C112 1.211 . S
C114 O106 1.284 . S
C114 O115 1.273 . S
O115 C114 1.273 . S
O116 Zn107 1.977 . S
O116 C109 1.267 . S
C117 O118 1.160 . S
C117 O124 1.185 . S
O118 C117 1.160 . S
O119 Zn120 1.899 . S
O119 C127 1.284 . S
Zn120 O119 1.899 . S
Zn120 O121 2.032 . S
Zn120 O124 2.086 . S
Zn120 O129 1.977 . S
O121 Zn120 2.032 . S
O121 C125 1.278 . S
C122 O123 1.203 . S
C122 O129 1.267 . S
O123 C122 1.203 . S
O124 C117 1.185 . S
O124 Zn120 2.086 . S
C125 O121 1.278 . S
C125 O126 1.211 . S
O126 C125 1.211 . S
C127 O119 1.284 . S
C127 O128 1.273 . S
O128 C127 1.273 . S
O129 Zn120 1.977 . S
O129 C122 1.267 . S
C130 O131 1.160 . S
C130 O137 1.185 . S
O131 C130 1.160 . S
O132 Zn133 1.899 . S
O132 C140 1.284 . S
Zn133 O132 1.899 . S
Zn133 O134 2.032 . S
Zn133 O137 2.086 . S
Zn133 O142 1.977 . S
O134 Zn133 2.032 . S
O134 C138 1.278 . S
C135 O136 1.203 . S
C135 O142 1.267 . S
O136 C135 1.203 . S
O137 C130 1.185 . S
O137 Zn133 2.086 . S
C138 O134 1.278 . S
C138 O139 1.211 . S
O139 C138 1.211 . S
C140 O132 1.284 . S
C140 O141 1.273 . S
O141 C140 1.273 . S
O142 Zn133 1.977 . S
O142 C135 1.267 . S
C143 O144 1.160 . S
C143 O150 1.185 . S
O144 C143 1.160 . S
O145 Zn146 1.899 . S
O145 C153 1.284 . S
Zn146 O145 1.899 . S
Zn146 O147 2.032 . S
Zn146 O150 2.086 . S
Zn146 O155 1.977 . S
O147 Zn146 2.032 . S
O147 C151 1.278 . S
C148 O149 1.203 . S
C148 O155 1.267 . S
O149 C148 1.203 . S
O150 C143 1.185 . S
O150 Zn146 2.086 . S
C151 O147 1.278 . S
C151 O152 1.211 . S
O152 C151 1.211 . S
C153 O145 1.284 . S
C153 O154 1.273 . S
O154 C153 1.273 . S
O155 Zn146 1.977 . S
O155 C148 1.267 . S
C156 O157 1.160 . S
C156 O163 1.185 . S
O157 C156 1.160 . S
O158 Zn159 1.899 . S
O158 C166 1.284 . S
Zn159 O158 1.899 . S
Zn159 O160 2.032 . S
Zn159 O163 2.086 . S
Zn159 O168 1.977 . S
O160 Zn159 2.032 . S
O160 C164 1.278 . S
C161 O162 1.203 . S
C161 O168 1.267 . S
O162 C161 1.203 . S
O163 C156 1.185 . S
O163 Zn159 2.086 . S
C164 O160 1.278 . S
C164 O165 1.211 . S
O165 C164 1.211 . S
C166 O158 1.284 . S
C166 O167 1.273 . S
O167 C166 1.273 . S
O168 Zn159 1.977 . S
O168 C161 1.267 . S
C169 O170 1.160 . S
C169 O176 1.185 . S
O170 C169 1.160 . S
O171 Zn172 1.899 . S
O171 C179 1.284 . S
Zn172 O171 1.899 . S
Zn172 O173 2.032 . S
Zn172 O176 2.086 . S
Zn172 O181 1.977 . S
O173 Zn172 2.032 . S
O173 C177 1.278 . S
C174 O175 1.203 . S
C174 O181 1.267 . S
O175 C174 1.203 . S
O176 C169 1.185 . S
O176 Zn172 2.086 . S
C177 O173 1.278 . S
C177 O178 1.211 . S
O178 C177 1.211 . S
C179 O171 1.284 . S
C179 O180 1.273 . S
O180 C179 1.273 . S
O181 Zn172 1.977 . S
O181 C174 1.267 . S
C182 O183 1.160 . S
C182 O189 1.185 . S
O183 C182 1.160 . S
O184 Zn185 1.899 . S
O184 C192 1.284 . S
Zn185 O184 1.899 . S
Zn185 O186 2.032 . S
Zn185 O189 2.086 . S
Zn185 O194 1.977 . S
O186 Zn185 2.032 . S
O186 C190 1.278 . S
C187 O188 1.203 . S
C187 O194 1.267 . S
O188 C187 1.203 . S
O189 C182 1.185 . S
O189 Zn185 2.086 . S
C190 O186 1.278 . S
C190 O191 1.211 . S
O191 C190 1.211 . S
C192 O184 1.284 . S
C192 O193 1.273 . S
O193 C192 1.273 . S
O194 Zn185 1.977 . S
O194 C187 1.267 . S
C195 O196 1.160 . S
C195 O202 1.185 . S
O196 C195 1.160 . S
O197 Zn198 1.899 . S
O197 C205 1.284 . S
Zn198 O197 1.899 . S
Zn198 O199 2.032 . S
Zn198 O202 2.086 . S
Zn198 O207 1.977 . S
O199 Zn198 2.032 . S
O199 C203 1.278 . S
C200 O201 1.203 . S
C200 O207 1.267 . S
O201 C200 1.203 . S
O202 C195 1.185 . S
O202 Zn198 2.086 . S
C203 O199 1.278 . S
C203 O204 1.211 . S
O204 C203 1.211 . S
C205 O197 1.284 . S
C205 O206 1.273 . S
O206 C205 1.273 . S
O207 Zn198 1.977 . S
O207 C200 1.267 . S
C208 O209 1.160 . S
C208 O215 1.185 . S
O209 C208 1.160 . S
O210 Zn211 1.899 . S
O210 C218 1.284 . S
Zn211 O210 1.899 . S
Zn211 O212 2.032 . S
Zn211 O215 2.086 . S
Zn211 O220 1.977 . S
O212 Zn211 2.032 . S
O212 C216 1.278 . S
C213 O214 1.203 . S
C213 O220 1.267 . S
O214 C213 1.203 . S
O215 C208 1.185 . S
O215 Zn211 2.086 . S
C216 O212 1.278 . S
C216 O217 1.211 . S
O217 C216 1.211 . S
C218 O210 1.284 . S
C218 O219 1.273 . S
O219 C218 1.273 . S
O220 Zn211 1.977 . S
O220 C213 1.267 . S
C221 O222 1.160 . S
C221 O228 1.185 . S
O222 C221 1.160 . S
O223 Zn224 1.899 . S
O223 C231 1.284 . S
Zn224 O223 1.899 . S
Zn224 O225 2.032 . S
Zn224 O228 2.086 . S
Zn224 O233 1.977 . S
O225 Zn224 2.032 . S
O225 C229 1.278 . S
C226 O227 1.203 . S
C226 O233 1.267 . S
O227 C226 1.203 . S
O228 C221 1.185 . S
O228 Zn224 2.086 . S
C229 O225 1.278 . S
C229 O230 1.211 . S
O230 C229 1.211 . S
C231 O223 1.284 . S
C231 O232 1.273 . S
O232 C231 1.273 . S
O233 Zn224 1.977 . S
O233 C226 1.267 . S
C234 O235 1.160 . S
C234 O241 1.185 . S
O235 C234 1.160 . S
O236 Zn237 1.899 . S
O236 C244 1.284 . S
Zn237 O236 1.899 . S
Zn237 O238 2.032 . S
Zn237 O241 2.086 . S
Zn237 O246 1.977 . S
O238 Zn237 2.032 . S
O238 C242 1.278 . S
C239 O240 1.203 . S
C239 O246 1.267 . S
O240 C239 1.203 . S
O241 C234 1.185 . S
O241 Zn237 2.086 . S
C242 O238 1.278 . S
C242 O243 1.211 . S
O243 C242 1.211 . S
C244 O236 1.284 . S
C244 O245 1.273 . S
O245 C244 1.273 . S
O246 Zn237 1.977 . S
O246 C239 1.267 . S
C247 O248 1.160 . S
C247 O254 1.185 . S
O248 C247 1.160 . S
O249 Zn250 1.899 . S
O249 C257 1.284 . S
Zn250 O249 1.899 . S
Zn250 O251 2.032 . S
Zn250 O254 2.086 . S
Zn250 O259 1.977 . S
O251 Zn250 2.032 . S
O251 C255 1.278 . S
C252 O253 1.203 . S
C252 O259 1.267 . S
O253 C252 1.203 . S
O254 C247 1.185 . S
O254 Zn250 2.086 . S
C255 O251 1.278 . S
C255 O256 1.211 . S
O256 C255 1.211 . S
C257 O249 1.284 . S
C257 O258 1.273 . S
O258 C257 1.273 . S
O259 Zn250 1.977 . S
O259 C252 1.267 . S
C260 O261 1.160 . S
C260 O267 1.185 . S
O261 C260 1.160 . S
O262 Zn263 1.899 . S
O262 C270 1.284 . S
Zn263 O262 1.899 . S
Zn263 O264 2.032 . S
Zn263 O267 2.086 . S
Zn263 O272 1.977 . S
O264 Zn263 2.032 . S
O264 C268 1.278 . S
C265 O266 1.203 . S
C265 O272 1.267 . S
O266 C265 1.203 . S
O267 C260 1.185 . S
O267 Zn263 2.086 . S
C268 O264 1.278 . S
C268 O269 1.211 . S
O269 C268 1.211 . S
C270 O262 1.284 . S
C270 O271 1.273 . S
O271 C270 1.273 . S
O272 Zn263 1.977 . S
O272 C265 1.267 . S
C273 O274 1.160 . S
C273 O280 1.185 . S
O274 C273 1.160 . S
O275 Zn276 1.899 . S
O275 C283 1.284 . S
Zn276 O275 1.899 . S
Zn276 O277 2.032 . S
Zn276 O280 2.086 . S
Zn276 O285 1.977 . S
O277 Zn276 2.032 . S
O277 C281 1.278 . S
C278 O279 1.203 . S
C278 O285 1.267 . S
O279 C278 1.203 . S
O280 C273 1.185 . S
O280 Zn276 2.086 . S
C281 O277 1.278 . S
C281 O282 1.211 . S
O282 C281 1.211 . S
C283 O275 1.284 . S
C283 O284 1.273 . S
O284 C283 1.273 . S
O285 Zn276 1.977 . S
O285 C278 1.267 . S
C286 O287 1.160 . S
C286 O293 1.185 . S
O287 C286 1.160 . S
O288 Zn289 1.899 . S
O288 C296 1.284 . S
Zn289 O288 1.899 . S
Zn289 O290 2.032 . S
Zn289 O293 2.086 . S
Zn289 O298 1.977 . S
O290 Zn289 2.032 . S
O290 C294 1.278 . S
C291 O292 1.203 . S
C291 O298 1.267 . S
O292 C291 1.203 . S
O293 C286 1.185 . S
O293 Zn289 2.086 . S
C294 O290 1.278 . S
C294 O295 1.211 . S
O295 C294 1.211 . S
C296 O288 1.284 . S
C296 O297 1.273 . S
O297 C296 1.273 . S
O298 Zn289 1.977 . S
O298 C291 1.267 . S
C299 O300 1.160 . S
C299 O306 1.185 . S
O300 C299 1.160 . S
O301 Zn302 1.899 . S
O301 C309 1.284 . S
Zn302 O301 1.899 . S
Zn302 O303 2.032 . S
Zn302 O306 2.086 . S
Zn302 O311 1.977 . S
O303 Zn302 2.032 . S
O303 C307 1.278 . S
C304 O305 1.203 . S
C304 O311 1.267 . S
O305 C304 1.203 . S
O306 C299 1.185 . S
O306 Zn302 2.086 . S
C307 O303 1.278 . S
C307 O308 1.211 . S
O308 C307 1.211 . S
C309 O301 1.284 . S
C309 O310 1.273 . S
O310 C309 1.273 . S
O311 Zn302 1.977 . S
O311 C304 1.267 . S
H312 C330 0.951 . S
H313 C332 0.951 . S
H314 C334 0.950 . S
H315 C335 0.950 . S
H316 C337 0.950 . S
H317 C340 0.950 . S
H318 C341 0.950 . S
H319 C343 0.950 . S
H320 C344 0.950 . S
H321 C345 0.951 . S
H322 C347 0.951 . S
H323 C349 0.950 . S
H324 C350 0.950 . S
H325 C352 0.950 . S
H326 C355 0.950 . S
H327 C356 0.950 . S
H328 C358 0.950 . S
H329 C359 0.950 . S
C330 H312 0.951 . S
C330 C331 1.366 . S
C330 C332 1.388 . S
C331 C330 1.366 . S
C331 C335 1.385 . S
C332 H313 0.951 . S
C332 C330 1.388 . S
C332 C333 1.366 . S
C333 C332 1.366 . S
C333 C334 1.414 . S
C333 C336 1.499 . S
C334 H314 0.950 . S
C334 C333 1.414 . S
C334 C335 1.374 . S
C335 H315 0.950 . S
C335 C331 1.385 . S
C335 C334 1.374 . S
C336 C333 1.499 . S
C336 C337 1.373 . S
C336 C338 1.389 . S
C337 H316 0.950 . S
C337 C336 1.373 . S
C337 C353 1.377 . S
C338 C336 1.389 . S
C338 C339 1.524 . S
C338 C352 1.377 . S
C339 C338 1.524 . S
C339 C340 1.397 . S
C339 C344 1.363 . S
C340 H317 0.950 . S
C340 C339 1.397 . S
C340 C341 1.334 . S
C341 H318 0.950 . S
C341 C340 1.334 . S
C341 C342 1.287 . S
C342 C341 1.287 . S
C342 C343 1.524 . S
C342 H361 0.913 . S
C343 H319 0.950 . S
C343 C342 1.524 . S
C343 C344 1.415 . S
C344 H320 0.950 . S
C344 C339 1.363 . S
C344 C343 1.415 . S
C345 H321 0.951 . S
C345 C346 1.366 . S
C345 C347 1.388 . S
C346 C345 1.366 . S
C346 C350 1.385 . S
C347 H322 0.951 . S
C347 C345 1.388 . S
C347 C348 1.366 . S
C348 C347 1.366 . S
C348 C349 1.414 . S
C348 C351 1.499 . S
C349 H323 0.950 . S
C349 C348 1.414 . S
C349 C350 1.374 . S
C350 H324 0.950 . S
C350 C346 1.385 . S
C350 C349 1.374 . S
C351 C348 1.499 . S
C351 C352 1.373 . S
C351 C353 1.389 . S
C352 H325 0.950 . S
C352 C338 1.377 . S
C352 C351 1.373 . S
C353 C337 1.377 . S
C353 C351 1.389 . S
C353 C354 1.524 . S
C354 C353 1.524 . S
C354 C355 1.397 . S
C354 C359 1.363 . S
C355 H326 0.950 . S
C355 C354 1.397 . S
C355 C356 1.334 . S
C356 H327 0.950 . S
C356 C355 1.334 . S
C356 C357 1.287 . S
C357 C356 1.287 . S
C357 C358 1.524 . S
C357 H360 0.999 . S
C358 H328 0.950 . S
C358 C357 1.524 . S
C358 C359 1.415 . S
C359 H329 0.950 . S
C359 C354 1.363 . S
C359 C358 1.415 . S
H360 C357 0.999 . S
H361 C342 0.913 . S
H362 C380 0.951 . S
H363 C382 0.951 . S
H364 C384 0.950 . S
H365 C385 0.950 . S
H366 C387 0.950 . S
H367 C390 0.950 . S
H368 C391 0.950 . S
H369 C393 0.950 . S
H370 C394 0.950 . S
H371 C395 0.951 . S
H372 C397 0.951 . S
H373 C399 0.950 . S
H374 C400 0.950 . S
H375 C402 0.950 . S
H376 C405 0.950 . S
H377 C406 0.950 . S
H378 C408 0.950 . S
H379 C409 0.950 . S
C380 H362 0.951 . S
C380 C381 1.366 . S
C380 C382 1.388 . S
C381 C380 1.366 . S
C381 C385 1.385 . S
C382 H363 0.951 . S
C382 C380 1.388 . S
C382 C383 1.366 . S
C383 C382 1.366 . S
C383 C384 1.414 . S
C383 C386 1.499 . S
C384 H364 0.950 . S
C384 C383 1.414 . S
C384 C385 1.374 . S
C385 H365 0.950 . S
C385 C381 1.385 . S
C385 C384 1.374 . S
C386 C383 1.499 . S
C386 C387 1.373 . S
C386 C388 1.389 . S
C387 H366 0.950 . S
C387 C386 1.373 . S
C387 C403 1.377 . S
C388 C386 1.389 . S
C388 C389 1.524 . S
C388 C402 1.377 . S
C389 C388 1.524 . S
C389 C390 1.397 . S
C389 C394 1.363 . S
C390 H367 0.950 . S
C390 C389 1.397 . S
C390 C391 1.334 . S
C391 H368 0.950 . S
C391 C390 1.334 . S
C391 C392 1.287 . S
C392 C391 1.287 . S
C392 C393 1.524 . S
C392 H411 0.913 . S
C393 H369 0.950 . S
C393 C392 1.524 . S
C393 C394 1.415 . S
C394 H370 0.950 . S
C394 C389 1.363 . S
C394 C393 1.415 . S
C395 H371 0.951 . S
C395 C396 1.366 . S
C395 C397 1.388 . S
C396 C395 1.366 . S
C396 C400 1.385 . S
C397 H372 0.951 . S
C397 C395 1.388 . S
C397 C398 1.366 . S
C398 C397 1.366 . S
C398 C399 1.414 . S
C398 C401 1.499 . S
C399 H373 0.950 . S
C399 C398 1.414 . S
C399 C400 1.374 . S
C400 H374 0.950 . S
C400 C396 1.385 . S
C400 C399 1.374 . S
C401 C398 1.499 . S
C401 C402 1.373 . S
C401 C403 1.389 . S
C402 H375 0.950 . S
C402 C388 1.377 . S
C402 C401 1.373 . S
C403 C387 1.377 . S
C403 C401 1.389 . S
C403 C404 1.524 . S
C404 C403 1.524 . S
C404 C405 1.397 . S
C404 C409 1.363 . S
C405 H376 0.950 . S
C405 C404 1.397 . S
C405 C406 1.334 . S
C406 H377 0.950 . S
C406 C405 1.334 . S
C406 C407 1.287 . S
C407 C406 1.287 . S
C407 C408 1.524 . S
C407 H410 0.999 . S
C408 H378 0.950 . S
C408 C407 1.524 . S
C408 C409 1.415 . S
C409 H379 0.950 . S
C409 C404 1.363 . S
C409 C408 1.415 . S
H410 C407 0.999 . S
H411 C392 0.913 . S
H412 C430 0.951 . S
H413 C432 0.951 . S
H414 C434 0.950 . S
H415 C435 0.950 . S
H416 C437 0.950 . S
H417 C440 0.950 . S
H418 C441 0.950 . S
H419 C443 0.950 . S
H420 C444 0.950 . S
H421 C445 0.951 . S
H422 C447 0.951 . S
H423 C449 0.950 . S
H424 C450 0.950 . S
H425 C452 0.950 . S
H426 C455 0.950 . S
H427 C456 0.950 . S
H428 C458 0.950 . S
H429 C459 0.950 . S
C430 H412 0.951 . S
C430 C431 1.366 . S
C430 C432 1.388 . S
C431 C430 1.366 . S
C431 C435 1.385 . S
C432 H413 0.951 . S
C432 C430 1.388 . S
C432 C433 1.366 . S
C433 C432 1.366 . S
C433 C434 1.414 . S
C433 C436 1.499 . S
C434 H414 0.950 . S
C434 C433 1.414 . S
C434 C435 1.374 . S
C435 H415 0.950 . S
C435 C431 1.385 . S
C435 C434 1.374 . S
C436 C433 1.499 . S
C436 C437 1.373 . S
C436 C438 1.389 . S
C437 H416 0.950 . S
C437 C436 1.373 . S
C437 C453 1.377 . S
C438 C436 1.389 . S
C438 C439 1.524 . S
C438 C452 1.377 . S
C439 C438 1.524 . S
C439 C440 1.397 . S
C439 C444 1.363 . S
C440 H417 0.950 . S
C440 C439 1.397 . S
C440 C441 1.334 . S
C441 H418 0.950 . S
C441 C440 1.334 . S
C441 C442 1.287 . S
C442 C441 1.287 . S
C442 C443 1.524 . S
C442 H461 0.913 . S
C443 H419 0.950 . S
C443 C442 1.524 . S
C443 C444 1.415 . S
C444 H420 0.950 . S
C444 C439 1.363 . S
C444 C443 1.415 . S
C445 H421 0.951 . S
C445 C446 1.366 . S
C445 C447 1.388 . S
C446 C445 1.366 . S
C446 C450 1.385 . S
C447 H422 0.951 . S
C447 C445 1.388 . S
C447 C448 1.366 . S
C448 C447 1.366 . S
C448 C449 1.414 . S
C448 C451 1.499 . S
C449 H423 0.950 . S
C449 C448 1.414 . S
C449 C450 1.374 . S
C450 H424 0.950 . S
C450 C446 1.385 . S
C450 C449 1.374 . S
C451 C448 1.499 . S
C451 C452 1.373 . S
C451 C453 1.389 . S
C452 H425 0.950 . S
C452 C438 1.377 . S
C452 C451 1.373 . S
C453 C437 1.377 . S
C453 C451 1.389 . S
C453 C454 1.524 . S
C454 C453 1.524 . S
C454 C455 1.397 . S
C454 C459 1.363 . S
C455 H426 0.950 . S
C455 C454 1.397 . S
C455 C456 1.334 . S
C456 H427 0.950 . S
C456 C455 1.334 . S
C456 C457 1.287 . S
C457 C456 1.287 . S
C457 C458 1.524 . S
C457 H460 0.999 . S
C458 H428 0.950 . S
C458 C457 1.524 . S
C458 C459 1.415 . S
C459 H429 0.950 . S
C459 C454 1.363 . S
C459 C458 1.415 . S
H460 C457 0.999 . S
H461 C442 0.913 . S
H462 C480 0.951 . S
H463 C482 0.951 . S
H464 C484 0.950 . S
H465 C485 0.950 . S
H466 C487 0.950 . S
H467 C490 0.950 . S
H468 C491 0.950 . S
H469 C493 0.950 . S
H470 C494 0.950 . S
H471 C495 0.951 . S
H472 C497 0.951 . S
H473 C499 0.950 . S
H474 C500 0.950 . S
H475 C502 0.950 . S
H476 C505 0.950 . S
H477 C506 0.950 . S
H478 C508 0.950 . S
H479 C509 0.950 . S
C480 H462 0.951 . S
C480 C481 1.366 . S
C480 C482 1.388 . S
C481 C480 1.366 . S
C481 C485 1.385 . S
C482 H463 0.951 . S
C482 C480 1.388 . S
C482 C483 1.366 . S
C483 C482 1.366 . S
C483 C484 1.414 . S
C483 C486 1.499 . S
C484 H464 0.950 . S
C484 C483 1.414 . S
C484 C485 1.374 . S
C485 H465 0.950 . S
C485 C481 1.385 . S
C485 C484 1.374 . S
C486 C483 1.499 . S
C486 C487 1.373 . S
C486 C488 1.389 . S
C487 H466 0.950 . S
C487 C486 1.373 . S
C487 C503 1.377 . S
C488 C486 1.389 . S
C488 C489 1.524 . S
C488 C502 1.377 . S
C489 C488 1.524 . S
C489 C490 1.397 . S
C489 C494 1.363 . S
C490 H467 0.950 . S
C490 C489 1.397 . S
C490 C491 1.334 . S
C491 H468 0.950 . S
C491 C490 1.334 . S
C491 C492 1.287 . S
C492 C491 1.287 . S
C492 C493 1.524 . S
C492 H511 0.913 . S
C493 H469 0.950 . S
C493 C492 1.524 . S
C493 C494 1.415 . S
C494 H470 0.950 . S
C494 C489 1.363 . S
C494 C493 1.415 . S
C495 H471 0.951 . S
C495 C496 1.366 . S
C495 C497 1.388 . S
C496 C495 1.366 . S
C496 C500 1.385 . S
C497 H472 0.951 . S
C497 C495 1.388 . S
C497 C498 1.366 . S
C498 C497 1.366 . S
C498 C499 1.414 . S
C498 C501 1.499 . S
C499 H473 0.950 . S
C499 C498 1.414 . S
C499 C500 1.374 . S
C500 H474 0.950 . S
C500 C496 1.385 . S
C500 C499 1.374 . S
C501 C498 1.499 . S
C501 C502 1.373 . S
C501 C503 1.389 . S
C502 H475 0.950 . S
C502 C488 1.377 . S
C502 C501 1.373 . S
C503 C487 1.377 . S
C503 C501 1.389 . S
C503 C504 1.524 . S
C504 C503 1.524 . S
C504 C505 1.397 . S
C504 C509 1.363 . S
C505 H476 0.950 . S
C505 C504 1.397 . S
C505 C506 1.334 . S
C506 H477 0.950 . S
C506 C505 1.334 . S
C506 C507 1.287 . S
C507 C506 1.287 . S
C507 C508 1.524 . S
C507 H510 0.999 . S
C508 H478 0.950 . S
C508 C507 1.524 . S
C508 C509 1.415 . S
C509 H479 0.950 . S
C509 C504 1.363 . S
C509 C508 1.415 . S
H510 C507 0.999 . S
H511 C492 0.913 . S
H512 C530 0.951 . S
H513 C532 0.951 . S
H514 C534 0.950 . S
H515 C535 0.950 . S
H516 C537 0.950 . S
H517 C540 0.950 . S
H518 C541 0.950 . S
H519 C543 0.950 . S
H520 C544 0.950 . S
H521 C545 0.951 . S
H522 C547 0.951 . S
H523 C549 0.950 . S
H524 C550 0.950 . S
H525 C552 0.950 . S
H526 C555 0.950 . S
H527 C556 0.950 . S
H528 C558 0.950 . S
H529 C559 0.950 . S
C530 H512 0.951 . S
C530 C531 1.366 . S
C530 C532 1.388 . S
C531 C530 1.366 . S
C531 C535 1.385 . S
C532 H513 0.951 . S
C532 C530 1.388 . S
C532 C533 1.366 . S
C533 C532 1.366 . S
C533 C534 1.414 . S
C533 C536 1.499 . S
C534 H514 0.950 . S
C534 C533 1.414 . S
C534 C535 1.374 . S
C535 H515 0.950 . S
C535 C531 1.385 . S
C535 C534 1.374 . S
C536 C533 1.499 . S
C536 C537 1.373 . S
C536 C538 1.389 . S
C537 H516 0.950 . S
C537 C536 1.373 . S
C537 C553 1.377 . S
C538 C536 1.389 . S
C538 C539 1.524 . S
C538 C552 1.377 . S
C539 C538 1.524 . S
C539 C540 1.397 . S
C539 C544 1.363 . S
C540 H517 0.950 . S
C540 C539 1.397 . S
C540 C541 1.334 . S
C541 H518 0.950 . S
C541 C540 1.334 . S
C541 C542 1.287 . S
C542 C541 1.287 . S
C542 C543 1.524 . S
C542 H561 0.913 . S
C543 H519 0.950 . S
C543 C542 1.524 . S
C543 C544 1.415 . S
C544 H520 0.950 . S
C544 C539 1.363 . S
C544 C543 1.415 . S
C545 H521 0.951 . S
C545 C546 1.366 . S
C545 C547 1.388 . S
C546 C545 1.366 . S
C546 C550 1.385 . S
C547 H522 0.951 . S
C547 C545 1.388 . S
C547 C548 1.366 . S
C548 C547 1.366 . S
C548 C549 1.414 . S
C548 C551 1.499 . S
C549 H523 0.950 . S
C549 C548 1.414 . S
C549 C550 1.374 . S
C550 H524 0.950 . S
C550 C546 1.385 . S
C550 C549 1.374 . S
C551 C548 1.499 . S
C551 C552 1.373 . S
C551 C553 1.389 . S
C552 H525 0.950 . S
C552 C538 1.377 . S
C552 C551 1.373 . S
C553 C537 1.377 . S
C553 C551 1.389 . S
C553 C554 1.524 . S
C554 C553 1.524 . S
C554 C555 1.397 . S
C554 C559 1.363 . S
C555 H526 0.950 . S
C555 C554 1.397 . S
C555 C556 1.334 . S
C556 H527 0.950 . S
C556 C555 1.334 . S
C556 C557 1.287 . S
C557 C556 1.287 . S
C557 C558 1.524 . S
C557 H560 0.999 . S
C558 H528 0.950 . S
C558 C557 1.524 . S
C558 C559 1.415 . S
C559 H529 0.950 . S
C559 C554 1.363 . S
C559 C558 1.415 . S
H560 C557 0.999 . S
H561 C542 0.913 . S
H562 C580 0.951 . S
H563 C582 0.951 . S
H564 C584 0.950 . S
H565 C585 0.950 . S
H566 C587 0.950 . S
H567 C590 0.950 . S
H568 C591 0.950 . S
H569 C593 0.950 . S
H570 C594 0.950 . S
H571 C595 0.951 . S
H572 C597 0.951 . S
H573 C599 0.950 . S
H574 C600 0.950 . S
H575 C602 0.950 . S
H576 C605 0.950 . S
H577 C606 0.950 . S
H578 C608 0.950 . S
H579 C609 0.950 . S
C580 H562 0.951 . S
C580 C581 1.366 . S
C580 C582 1.388 . S
C581 C580 1.366 . S
C581 C585 1.385 . S
C582 H563 0.951 . S
C582 C580 1.388 . S
C582 C583 1.366 . S
C583 C582 1.366 . S
C583 C584 1.414 . S
C583 C586 1.499 . S
C584 H564 0.950 . S
C584 C583 1.414 . S
C584 C585 1.374 . S
C585 H565 0.950 . S
C585 C581 1.385 . S
C585 C584 1.374 . S
C586 C583 1.499 . S
C586 C587 1.373 . S
C586 C588 1.389 . S
C587 H566 0.950 . S
C587 C586 1.373 . S
C587 C603 1.377 . S
C588 C586 1.389 . S
C588 C589 1.524 . S
C588 C602 1.377 . S
C589 C588 1.524 . S
C589 C590 1.397 . S
C589 C594 1.363 . S
C590 H567 0.950 . S
C590 C589 1.397 . S
C590 C591 1.334 . S
C591 H568 0.950 . S
C591 C590 1.334 . S
C591 C592 1.287 . S
C592 C591 1.287 . S
C592 C593 1.524 . S
C592 H611 0.913 . S
C593 H569 0.950 . S
C593 C592 1.524 . S
C593 C594 1.415 . S
C594 H570 0.950 . S
C594 C589 1.363 . S
C594 C593 1.415 . S
C595 H571 0.951 . S
C595 C596 1.366 . S
C595 C597 1.388 . S
C596 C595 1.366 . S
C596 C600 1.385 . S
C597 H572 0.951 . S
C597 C595 1.388 . S
C597 C598 1.366 . S
C598 C597 1.366 . S
C598 C599 1.414 . S
C598 C601 1.499 . S
C599 H573 0.950 . S
C599 C598 1.414 . S
C599 C600 1.374 . S
C600 H574 0.950 . S
C600 C596 1.385 . S
C600 C599 1.374 . S
C601 C598 1.499 . S
C601 C602 1.373 . S
C601 C603 1.389 . S
C602 H575 0.950 . S
C602 C588 1.377 . S
C602 C601 1.373 . S
C603 C587 1.377 . S
C603 C601 1.389 . S
C603 C604 1.524 . S
C604 C603 1.524 . S
C604 C605 1.397 . S
C604 C609 1.363 . S
C605 H576 0.950 . S
C605 C604 1.397 . S
C605 C606 1.334 . S
C606 H577 0.950 . S
C606 C605 1.334 . S
C606 C607 1.287 . S
C607 C606 1.287 . S
C607 C608 1.524 . S
C607 H610 0.999 . S
C608 H578 0.950 . S
C608 C607 1.524 . S
C608 C609 1.415 . S
C609 H579 0.950 . S
C609 C604 1.363 . S
C609 C608 1.415 . S
H610 C607 0.999 . S
H611 C592 0.913 . S
H612 C630 0.951 . S
H613 C632 0.951 . S
H614 C634 0.950 . S
H615 C635 0.950 . S
H616 C637 0.950 . S
H617 C640 0.950 . S
H618 C641 0.950 . S
H619 C643 0.950 . S
H620 C644 0.950 . S
H621 C645 0.951 . S
H622 C647 0.951 . S
H623 C649 0.950 . S
H624 C650 0.950 . S
H625 C652 0.950 . S
H626 C655 0.950 . S
H627 C656 0.950 . S
H628 C658 0.950 . S
H629 C659 0.950 . S
C630 H612 0.951 . S
C630 C631 1.366 . S
C630 C632 1.388 . S
C631 C630 1.366 . S
C631 C635 1.385 . S
C632 H613 0.951 . S
C632 C630 1.388 . S
C632 C633 1.366 . S
C633 C632 1.366 . S
C633 C634 1.414 . S
C633 C636 1.499 . S
C634 H614 0.950 . S
C634 C633 1.414 . S
C634 C635 1.374 . S
C635 H615 0.950 . S
C635 C631 1.385 . S
C635 C634 1.374 . S
C636 C633 1.499 . S
C636 C637 1.373 . S
C636 C638 1.389 . S
C637 H616 0.950 . S
C637 C636 1.373 . S
C637 C653 1.377 . S
C638 C636 1.389 . S
C638 C639 1.524 . S
C638 C652 1.377 . S
C639 C638 1.524 . S
C639 C640 1.397 . S
C639 C644 1.363 . S
C640 H617 0.950 . S
C640 C639 1.397 . S
C640 C641 1.334 . S
C641 H618 0.950 . S
C641 C640 1.334 . S
C641 C642 1.287 . S
C642 C641 1.287 . S
C642 C643 1.524 . S
C642 H661 0.913 . S
C643 H619 0.950 . S
C643 C642 1.524 . S
C643 C644 1.415 . S
C644 H620 0.950 . S
C644 C639 1.363 . S
C644 C643 1.415 . S
C645 H621 0.951 . S
C645 C646 1.366 . S
C645 C647 1.388 . S
C646 C645 1.366 . S
C646 C650 1.385 . S
C647 H622 0.951 . S
C647 C645 1.388 . S
C647 C648 1.366 . S
C648 C647 1.366 . S
C648 C649 1.414 . S
C648 C651 1.499 . S
C649 H623 0.950 . S
C649 C648 1.414 . S
C649 C650 1.374 . S
C650 H624 0.950 . S
C650 C646 1.385 . S
C650 C649 1.374 . S
C651 C648 1.499 . S
C651 C652 1.373 . S
C651 C653 1.389 . S
C652 H625 0.950 . S
C652 C638 1.377 . S
C652 C651 1.373 . S
C653 C637 1.377 . S
C653 C651 1.389 . S
C653 C654 1.524 . S
C654 C653 1.524 . S
C654 C655 1.397 . S
C654 C659 1.363 . S
C655 H626 0.950 . S
C655 C654 1.397 . S
C655 C656 1.334 . S
C656 H627 0.950 . S
C656 C655 1.334 . S
C656 C657 1.287 . S
C657 C656 1.287 . S
C657 C658 1.524 . S
C657 H660 0.999 . S
C658 H628 0.950 . S
C658 C657 1.524 . S
C658 C659 1.415 . S
C659 H629 0.950 . S
C659 C654 1.363 . S
C659 C658 1.415 . S
H660 C657 0.999 . S
H661 C642 0.913 . S
H662 C680 0.951 . S
H663 C682 0.951 . S
H664 C684 0.950 . S
H665 C685 0.950 . S
H666 C687 0.950 . S
H667 C690 0.950 . S
H668 C691 0.950 . S
H669 C693 0.950 . S
H670 C694 0.950 . S
H671 C695 0.951 . S
H672 C697 0.951 . S
H673 C699 0.950 . S
H674 C700 0.950 . S
H675 C702 0.950 . S
H676 C705 0.950 . S
H677 C706 0.950 . S
H678 C708 0.950 . S
H679 C709 0.950 . S
C680 H662 0.951 . S
C680 C681 1.366 . S
C680 C682 1.388 . S
C681 C680 1.366 . S
C681 C685 1.385 . S
C682 H663 0.951 . S
C682 C680 1.388 . S
C682 C683 1.366 . S
C683 C682 1.366 . S
C683 C684 1.414 . S
C683 C686 1.499 . S
C684 H664 0.950 . S
C684 C683 1.414 . S
C684 C685 1.374 . S
C685 H665 0.950 . S
C685 C681 1.385 . S
C685 C684 1.374 . S
C686 C683 1.499 . S
C686 C687 1.373 . S
C686 C688 1.389 . S
C687 H666 0.950 . S
C687 C686 1.373 . S
C687 C703 1.377 . S
C688 C686 1.389 . S
C688 C689 1.524 . S
C688 C702 1.377 . S
C689 C688 1.524 . S
C689 C690 1.397 . S
C689 C694 1.363 . S
C690 H667 0.950 . S
C690 C689 1.397 . S
C690 C691 1.334 . S
C691 H668 0.950 . S
C691 C690 1.334 . S
C691 C692 1.287 . S
C692 C691 1.287 . S
C692 C693 1.524 . S
C692 H711 0.913 . S
C693 H669 0.950 . S
C693 C692 1.524 . S
C693 C694 1.415 . S
C694 H670 0.950 . S
C694 C689 1.363 . S
C694 C693 1.415 . S
C695 H671 0.951 . S
C695 C696 1.366 . S
C695 C697 1.388 . S
C696 C695 1.366 . S
C696 C700 1.385 . S
C697 H672 0.951 . S
C697 C695 1.388 . S
C697 C698 1.366 . S
C698 C697 1.366 . S
C698 C699 1.414 . S
C698 C701 1.499 . S
C699 H673 0.950 . S
C699 C698 1.414 . S
C699 C700 1.374 . S
C700 H674 0.950 . S
C700 C696 1.385 . S
C700 C699 1.374 . S
C701 C698 1.499 . S
C701 C702 1.373 . S
C701 C703 1.389 . S
C702 H675 0.950 . S
C702 C688 1.377 . S
C702 C701 1.373 . S
C703 C687 1.377 . S
C703 C701 1.389 . S
C703 C704 1.524 . S
C704 C703 1.524 . S
C704 C705 1.397 . S
C704 C709 1.363 . S
C705 H676 0.950 . S
C705 C704 1.397 . S
C705 C706 1.334 . S
C706 H677 0.950 . S
C706 C705 1.334 . S
C706 C707 1.287 . S
C707 C706 1.287 . S
C707 C708 1.524 . S
C707 H710 0.999 . S
C708 H678 0.950 . S
C708 C707 1.524 . S
C708 C709 1.415 . S
C709 H679 0.950 . S
C709 C704 1.363 . S
C709 C708 1.415 . S
H710 C707 0.999 . S
H711 C692 0.913 . S
H712 C730 0.951 . S
H713 C732 0.951 . S
H714 C734 0.950 . S
H715 C735 0.950 . S
H716 C737 0.950 . S
H717 C740 0.950 . S
H718 C741 0.950 . S
H719 C743 0.950 . S
H720 C744 0.950 . S
H721 C745 0.951 . S
H722 C747 0.951 . S
H723 C749 0.950 . S
H724 C750 0.950 . S
H725 C752 0.950 . S
H726 C755 0.950 . S
H727 C756 0.950 . S
H728 C758 0.950 . S
H729 C759 0.950 . S
C730 H712 0.951 . S
C730 C731 1.366 . S
C730 C732 1.388 . S
C731 C730 1.366 . S
C731 C735 1.385 . S
C732 H713 0.951 . S
C732 C730 1.388 . S
C732 C733 1.366 . S
C733 C732 1.366 . S
C733 C734 1.414 . S
C733 C736 1.499 . S
C734 H714 0.950 . S
C734 C733 1.414 . S
C734 C735 1.374 . S
C735 H715 0.950 . S
C735 C731 1.385 . S
C735 C734 1.374 . S
C736 C733 1.499 . S
C736 C737 1.373 . S
C736 C738 1.389 . S
C737 H716 0.950 . S
C737 C736 1.373 . S
C737 C753 1.377 . S
C738 C736 1.389 . S
C738 C739 1.524 . S
C738 C752 1.377 . S
C739 C738 1.524 . S
C739 C740 1.397 . S
C739 C744 1.363 . S
C740 H717 0.950 . S
C740 C739 1.397 . S
C740 C741 1.334 . S
C741 H718 0.950 . S
C741 C740 1.334 . S
C741 C742 1.287 . S
C742 C741 1.287 . S
C742 C743 1.524 . S
C742 H761 0.913 . S
C743 H719 0.950 . S
C743 C742 1.524 . S
C743 C744 1.415 . S
C744 H720 0.950 . S
C744 C739 1.363 . S
C744 C743 1.415 . S
C745 H721 0.951 . S
C745 C746 1.366 . S
C745 C747 1.388 . S
C746 C745 1.366 . S
C746 C750 1.385 . S
C747 H722 0.951 . S
C747 C745 1.388 . S
C747 C748 1.366 . S
C748 C747 1.366 . S
C748 C749 1.414 . S
C748 C751 1.499 . S
C749 H723 0.950 . S
C749 C748 1.414 . S
C749 C750 1.374 . S
C750 H724 0.950 . S
C750 C746 1.385 . S
C750 C749 1.374 . S
C751 C748 1.499 . S
C751 C752 1.373 . S
C751 C753 1.389 . S
C752 H725 0.950 . S
C752 C738 1.377 . S
C752 C751 1.373 . S
C753 C737 1.377 . S
C753 C751 1.389 . S
C753 C754 1.524 . S
C754 C753 1.524 . S
C754 C755 1.397 . S
C754 C759 1.363 . S
C755 H726 0.950 . S
C755 C754 1.397 . S
C755 C756 1.334 . S
C756 H727 0.950 . S
C756 C755 1.334 . S
C756 C757 1.287 . S
C757 C756 1.287 . S
C757 C758 1.524 . S
C757 H760 0.999 . S
C758 H728 0.950 . S
C758 C757 1.524 . S
C758 C759 1.415 . S
C759 H729 0.950 . S
C759 C754 1.363 . S
C759 C758 1.415 . S
H760 C757 0.999 . S
H761 C742 0.913 . S
H762 C780 0.951 . S
H763 C782 0.951 . S
H764 C784 0.950 . S
H765 C785 0.950 . S
H766 C787 0.950 . S
H767 C790 0.950 . S
H768 C791 0.950 . S
H769 C793 0.950 . S
H770 C794 0.950 . S
H771 C795 0.951 . S
H772 C797 0.951 . S
H773 C799 0.950 . S
H774 C800 0.950 . S
H775 C802 0.950 . S
H776 C805 0.950 . S
H777 C806 0.950 . S
H778 C808 0.950 . S
H779 C809 0.950 . S
C780 H762 0.951 . S
C780 C781 1.366 . S
C780 C782 1.388 . S
C781 C780 1.366 . S
C781 C785 1.385 . S
C782 H763 0.951 . S
C782 C780 1.388 . S
C782 C783 1.366 . S
C783 C782 1.366 . S
C783 C784 1.414 . S
C783 C786 1.499 . S
C784 H764 0.950 . S
C784 C783 1.414 . S
C784 C785 1.374 . S
C785 H765 0.950 . S
C785 C781 1.385 . S
C785 C784 1.374 . S
C786 C783 1.499 . S
C786 C787 1.373 . S
C786 C788 1.389 . S
C787 H766 0.950 . S
C787 C786 1.373 . S
C787 C803 1.377 . S
C788 C786 1.389 . S
C788 C789 1.524 . S
C788 C802 1.377 . S
C789 C788 1.524 . S
C789 C790 1.397 . S
C789 C794 1.363 . S
C790 H767 0.950 . S
C790 C789 1.397 . S
C790 C791 1.334 . S
C791 H768 0.950 . S
C791 C790 1.334 . S
C791 C792 1.287 . S
C792 C791 1.287 . S
C792 C793 1.524 . S
C792 H811 0.913 . S
C793 H769 0.950 . S
C793 C792 1.524 . S
C793 C794 1.415 . S
C794 H770 0.950 . S
C794 C789 1.363 . S
C794 C793 1.415 . S
C795 H771 0.951 . S
C795 C796 1.366 . S
C795 C797 1.388 . S
C796 C795 1.366 . S
C796 C800 1.385 . S
C797 H772 0.951 . S
C797 C795 1.388 . S
C797 C798 1.366 . S
C798 C797 1.366 . S
C798 C799 1.414 . S
C798 C801 1.499 . S
C799 H773 0.950 . S
C799 C798 1.414 . S
C799 C800 1.374 . S
C800 H774 0.950 . S
C800 C796 1.385 . S
C800 C799 1.374 . S
C801 C798 1.499 . S
C801 C802 1.373 . S
C801 C803 1.389 . S
C802 H775 0.950 . S
C802 C788 1.377 . S
C802 C801 1.373 . S
C803 C787 1.377 . S
C803 C801 1.389 . S
C803 C804 1.524 . S
C804 C803 1.524 . S
C804 C805 1.397 . S
C804 C809 1.363 . S
C805 H776 0.950 . S
C805 C804 1.397 . S
C805 C806 1.334 . S
C806 H777 0.950 . S
C806 C805 1.334 . S
C806 C807 1.287 . S
C807 C806 1.287 . S
C807 C808 1.524 . S
C807 H810 0.999 . S
C808 H778 0.950 . S
C808 C807 1.524 . S
C808 C809 1.415 . S
C809 H779 0.950 . S
C809 C804 1.363 . S
C809 C808 1.415 . S
H810 C807 0.999 . S
H811 C792 0.913 . S
H812 C830 0.951 . S
H813 C832 0.951 . S
H814 C834 0.950 . S
H815 C835 0.950 . S
H816 C837 0.950 . S
H817 C840 0.950 . S
H818 C841 0.950 . S
H819 C843 0.950 . S
H820 C844 0.950 . S
H821 C845 0.951 . S
H822 C847 0.951 . S
H823 C849 0.950 . S
H824 C850 0.950 . S
H825 C852 0.950 . S
H826 C855 0.950 . S
H827 C856 0.950 . S
H828 C858 0.950 . S
H829 C859 0.950 . S
C830 H812 0.951 . S
C830 C831 1.366 . S
C830 C832 1.388 . S
C831 C830 1.366 . S
C831 C835 1.385 . S
C832 H813 0.951 . S
C832 C830 1.388 . S
C832 C833 1.366 . S
C833 C832 1.366 . S
C833 C834 1.414 . S
C833 C836 1.499 . S
C834 H814 0.950 . S
C834 C833 1.414 . S
C834 C835 1.374 . S
C835 H815 0.950 . S
C835 C831 1.385 . S
C835 C834 1.374 . S
C836 C833 1.499 . S
C836 C837 1.373 . S
C836 C838 1.389 . S
C837 H816 0.950 . S
C837 C836 1.373 . S
C837 C853 1.377 . S
C838 C836 1.389 . S
C838 C839 1.524 . S
C838 C852 1.377 . S
C839 C838 1.524 . S
C839 C840 1.397 . S
C839 C844 1.363 . S
C840 H817 0.950 . S
C840 C839 1.397 . S
C840 C841 1.334 . S
C841 H818 0.950 . S
C841 C840 1.334 . S
C841 C842 1.287 . S
C842 C841 1.287 . S
C842 C843 1.524 . S
C842 H861 0.913 . S
C843 H819 0.950 . S
C843 C842 1.524 . S
C843 C844 1.415 . S
C844 H820 0.950 . S
C844 C839 1.363 . S
C844 C843 1.415 . S
C845 H821 0.951 . S
C845 C846 1.366 . S
C845 C847 1.388 . S
C846 C845 1.366 . S
C846 C850 1.385 . S
C847 H822 0.951 . S
C847 C845 1.388 . S
C847 C848 1.366 . S
C848 C847 1.366 . S
C848 C849 1.414 . S
C848 C851 1.499 . S
C849 H823 0.950 . S
C849 C848 1.414 . S
C849 C850 1.374 . S
C850 H824 0.950 . S
C850 C846 1.385 . S
C850 C849 1.374 . S
C851 C848 1.499 . S
C851 C852 1.373 . S
C851 C853 1.389 . S
C852 H825 0.950 . S
C852 C838 1.377 . S
C852 C851 1.373 . S
C853 C837 1.377 . S
C853 C851 1.389 . S
C853 C854 1.524 . S
C854 C853 1.524 . S
C854 C855 1.397 . S
C854 C859 1.363 . S
C855 H826 0.950 . S
C855 C854 1.397 . S
C855 C856 1.334 . S
C856 H827 0.950 . S
C856 C855 1.334 . S
C856 C857 1.287 . S
C857 C856 1.287 . S
C857 C858 1.524 . S
C857 H860 0.999 . S
C858 H828 0.950 . S
C858 C857 1.524 . S
C858 C859 1.415 . S
C859 H829 0.950 . S
C859 C854 1.363 . S
C859 C858 1.415 . S
H860 C857 0.999 . S
H861 C842 0.913 . S
H862 C880 0.951 . S
H863 C882 0.951 . S
H864 C884 0.950 . S
H865 C885 0.950 . S
H866 C887 0.950 . S
H867 C890 0.950 . S
H868 C891 0.950 . S
H869 C893 0.950 . S
H870 C894 0.950 . S
H871 C895 0.951 . S
H872 C897 0.951 . S
H873 C899 0.950 . S
H874 C900 0.950 . S
H875 C902 0.950 . S
H876 C905 0.950 . S
H877 C906 0.950 . S
H878 C908 0.950 . S
H879 C909 0.950 . S
C880 H862 0.951 . S
C880 C881 1.366 . S
C880 C882 1.388 . S
C881 C880 1.366 . S
C881 C885 1.385 . S
C882 H863 0.951 . S
C882 C880 1.388 . S
C882 C883 1.366 . S
C883 C882 1.366 . S
C883 C884 1.414 . S
C883 C886 1.499 . S
C884 H864 0.950 . S
C884 C883 1.414 . S
C884 C885 1.374 . S
C885 H865 0.950 . S
C885 C881 1.385 . S
C885 C884 1.374 . S
C886 C883 1.499 . S
C886 C887 1.373 . S
C886 C888 1.389 . S
C887 H866 0.950 . S
C887 C886 1.373 . S
C887 C903 1.377 . S
C888 C886 1.389 . S
C888 C889 1.524 . S
C888 C902 1.377 . S
C889 C888 1.524 . S
C889 C890 1.397 . S
C889 C894 1.363 . S
C890 H867 0.950 . S
C890 C889 1.397 . S
C890 C891 1.334 . S
C891 H868 0.950 . S
C891 C890 1.334 . S
C891 C892 1.287 . S
C892 C891 1.287 . S
C892 C893 1.524 . S
C892 H911 0.913 . S
C893 H869 0.950 . S
C893 C892 1.524 . S
C893 C894 1.415 . S
C894 H870 0.950 . S
C894 C889 1.363 . S
C894 C893 1.415 . S
C895 H871 0.951 . S
C895 C896 1.366 . S
C895 C897 1.388 . S
C896 C895 1.366 . S
C896 C900 1.385 . S
C897 H872 0.951 . S
C897 C895 1.388 . S
C897 C898 1.366 . S
C898 C897 1.366 . S
C898 C899 1.414 . S
C898 C901 1.499 . S
C899 H873 0.950 . S
C899 C898 1.414 . S
C899 C900 1.374 . S
C900 H874 0.950 . S
C900 C896 1.385 . S
C900 C899 1.374 . S
C901 C898 1.499 . S
C901 C902 1.373 . S
C901 C903 1.389 . S
C902 H875 0.950 . S
C902 C888 1.377 . S
C902 C901 1.373 . S
C903 C887 1.377 . S
C903 C901 1.389 . S
C903 C904 1.524 . S
C904 C903 1.524 . S
C904 C905 1.397 . S
C904 C909 1.363 . S
C905 H876 0.950 . S
C905 C904 1.397 . S
C905 C906 1.334 . S
C906 H877 0.950 . S
C906 C905 1.334 . S
C906 C907 1.287 . S
C907 C906 1.287 . S
C907 C908 1.524 . S
C907 H910 0.999 . S
C908 H878 0.950 . S
C908 C907 1.524 . S
C908 C909 1.415 . S
C909 H879 0.950 . S
C909 C904 1.363 . S
C909 C908 1.415 . S
H910 C907 0.999 . S
H911 C892 0.913 . S
H912 C930 0.951 . S
H913 C932 0.951 . S
H914 C934 0.950 . S
H915 C935 0.950 . S
H916 C937 0.950 . S
H917 C940 0.950 . S
H918 C941 0.950 . S
H919 C943 0.950 . S
H920 C944 0.950 . S
H921 C945 0.951 . S
H922 C947 0.951 . S
H923 C949 0.950 . S
H924 C950 0.950 . S
H925 C952 0.950 . S
H926 C955 0.950 . S
H927 C956 0.950 . S
H928 C958 0.950 . S
H929 C959 0.950 . S
C930 H912 0.951 . S
C930 C931 1.366 . S
C930 C932 1.388 . S
C931 C930 1.366 . S
C931 C935 1.385 . S
C932 H913 0.951 . S
C932 C930 1.388 . S
C932 C933 1.366 . S
C933 C932 1.366 . S
C933 C934 1.414 . S
C933 C936 1.499 . S
C934 H914 0.950 . S
C934 C933 1.414 . S
C934 C935 1.374 . S
C935 H915 0.950 . S
C935 C931 1.385 . S
C935 C934 1.374 . S
C936 C933 1.499 . S
C936 C937 1.373 . S
C936 C938 1.389 . S
C937 H916 0.950 . S
C937 C936 1.373 . S
C937 C953 1.377 . S
C938 C936 1.389 . S
C938 C939 1.524 . S
C938 C952 1.377 . S
C939 C938 1.524 . S
C939 C940 1.397 . S
C939 C944 1.363 . S
C940 H917 0.950 . S
C940 C939 1.397 . S
C940 C941 1.334 . S
C941 H918 0.950 . S
C941 C940 1.334 . S
C941 C942 1.287 . S
C942 C941 1.287 . S
C942 C943 1.524 . S
C942 H961 0.913 . S
C943 H919 0.950 . S
C943 C942 1.524 . S
C943 C944 1.415 . S
C944 H920 0.950 . S
C944 C939 1.363 . S
C944 C943 1.415 . S
C945 H921 0.951 . S
C945 C946 1.366 . S
C945 C947 1.388 . S
C946 C945 1.366 . S
C946 C950 1.385 . S
C947 H922 0.951 . S
C947 C945 1.388 . S
C947 C948 1.366 . S
C948 C947 1.366 . S
C948 C949 1.414 . S
C948 C951 1.499 . S
C949 H923 0.950 . S
C949 C948 1.414 . S
C949 C950 1.374 . S
C950 H924 0.950 . S
C950 C946 1.385 . S
C950 C949 1.374 . S
C951 C948 1.499 . S
C951 C952 1.373 . S
C951 C953 1.389 . S
C952 H925 0.950 . S
C952 C938 1.377 . S
C952 C951 1.373 . S
C953 C937 1.377 . S
C953 C951 1.389 . S
C953 C954 1.524 . S
C954 C953 1.524 . S
C954 C955 1.397 . S
C954 C959 1.363 . S
C955 H926 0.950 . S
C955 C954 1.397 . S
C955 C956 1.334 . S
C956 H927 0.950 . S
C956 C955 1.334 . S
C956 C957 1.287 . S
C957 C956 1.287 . S
C957 C958 1.524 . S
C957 H960 0.999 . S
C958 H928 0.950 . S
C958 C957 1.524 . S
C958 C959 1.415 . S
C959 H929 0.950 . S
C959 C954 1.363 . S
C959 C958 1.415 . S
H960 C957 0.999 . S
H961 C942 0.913 . S
H962 C980 0.951 . S
H963 C982 0.951 . S
H964 C984 0.950 . S
H965 C985 0.950 . S
H966 C987 0.950 . S
H967 C990 0.950 . S
H968 C991 0.950 . S
H969 C993 0.950 . S
H970 C994 0.950 . S
H971 C995 0.951 . S
H972 C997 0.951 . S
H973 C999 0.950 . S
H974 C1000 0.950 . S
H975 C1002 0.950 . S
H976 C1005 0.950 . S
H977 C1006 0.950 . S
H978 C1008 0.950 . S
H979 C1009 0.950 . S
C980 H962 0.951 . S
C980 C981 1.366 . S
C980 C982 1.388 . S
C981 C980 1.366 . S
C981 C985 1.385 . S
C982 H963 0.951 . S
C982 C980 1.388 . S
C982 C983 1.366 . S
C983 C982 1.366 . S
C983 C984 1.414 . S
C983 C986 1.499 . S
C984 H964 0.950 . S
C984 C983 1.414 . S
C984 C985 1.374 . S
C985 H965 0.950 . S
C985 C981 1.385 . S
C985 C984 1.374 . S
C986 C983 1.499 . S
C986 C987 1.373 . S
C986 C988 1.389 . S
C987 H966 0.950 . S
C987 C986 1.373 . S
C987 C1003 1.377 . S
C988 C986 1.389 . S
C988 C989 1.524 . S
C988 C1002 1.377 . S
C989 C988 1.524 . S
C989 C990 1.397 . S
C989 C994 1.363 . S
C990 H967 0.950 . S
C990 C989 1.397 . S
C990 C991 1.334 . S
C991 H968 0.950 . S
C991 C990 1.334 . S
C991 C992 1.287 . S
C992 C991 1.287 . S
C992 C993 1.524 . S
C992 H1011 0.913 . S
C993 H969 0.950 . S
C993 C992 1.524 . S
C993 C994 1.415 . S
C994 H970 0.950 . S
C994 C989 1.363 . S
C994 C993 1.415 . S
C995 H971 0.951 . S
C995 C996 1.366 . S
C995 C997 1.388 . S
C996 C995 1.366 . S
C996 C1000 1.385 . S
C997 H972 0.951 . S
C997 C995 1.388 . S
C997 C998 1.366 . S
C998 C997 1.366 . S
C998 C999 1.414 . S
C998 C1001 1.499 . S
C999 H973 0.950 . S
C999 C998 1.414 . S
C999 C1000 1.374 . S
C1000 H974 0.950 . S
C1000 C996 1.385 . S
C1000 C999 1.374 . S
C1001 C998 1.499 . S
C1001 C1002 1.373 . S
C1001 C1003 1.389 . S
C1002 H975 0.950 . S
C1002 C988 1.377 . S
C1002 C1001 1.373 . S
C1003 C987 1.377 . S
C1003 C1001 1.389 . S
C1003 C1004 1.524 . S
C1004 C1003 1.524 . S
C1004 C1005 1.397 . S
C1004 C1009 1.363 . S
C1005 H976 0.950 . S
C1005 C1004 1.397 . S
C1005 C1006 1.334 . S
C1006 H977 0.950 . S
C1006 C1005 1.334 . S
C1006 C1007 1.287 . S
C1007 C1006 1.287 . S
C1007 C1008 1.524 . S
C1007 H1010 0.999 . S
C1008 H978 0.950 . S
C1008 C1007 1.524 . S
C1008 C1009 1.415 . S
C1009 H979 0.950 . S
C1009 C1004 1.363 . S
C1009 C1008 1.415 . S
H1010 C1007 0.999 . S
H1011 C992 0.913 . S
H1012 C1030 0.951 . S
H1013 C1032 0.951 . S
H1014 C1034 0.950 . S
H1015 C1035 0.950 . S
H1016 C1037 0.950 . S
H1017 C1040 0.950 . S
H1018 C1041 0.950 . S
H1019 C1043 0.950 . S
H1020 C1044 0.950 . S
H1021 C1045 0.951 . S
H1022 C1047 0.951 . S
H1023 C1049 0.950 . S
H1024 C1050 0.950 . S
H1025 C1052 0.950 . S
H1026 C1055 0.950 . S
H1027 C1056 0.950 . S
H1028 C1058 0.950 . S
H1029 C1059 0.950 . S
C1030 H1012 0.951 . S
C1030 C1031 1.366 . S
C1030 C1032 1.388 . S
C1031 C1030 1.366 . S
C1031 C1035 1.385 . S
C1032 H1013 0.951 . S
C1032 C1030 1.388 . S
C1032 C1033 1.366 . S
C1033 C1032 1.366 . S
C1033 C1034 1.414 . S
C1033 C1036 1.499 . S
C1034 H1014 0.950 . S
C1034 C1033 1.414 . S
C1034 C1035 1.374 . S
C1035 H1015 0.950 . S
C1035 C1031 1.385 . S
C1035 C1034 1.374 . S
C1036 C1033 1.499 . S
C1036 C1037 1.373 . S
C1036 C1038 1.389 . S
C1037 H1016 0.950 . S
C1037 C1036 1.373 . S
C1037 C1053 1.377 . S
C1038 C1036 1.389 . S
C1038 C1039 1.524 . S
C1038 C1052 1.377 . S
C1039 C1038 1.524 . S
C1039 C1040 1.397 . S
C1039 C1044 1.363 . S
C1040 H1017 0.950 . S
C1040 C1039 1.397 . S
C1040 C1041 1.334 . S
C1041 H1018 0.950 . S
C1041 C1040 1.334 . S
C1041 C1042 1.287 . S
C1042 C1041 1.287 . S
C1042 C1043 1.524 . S
C1042 H1061 0.913 . S
C1043 H1019 0.950 . S
C1043 C1042 1.524 . S
C1043 C1044 1.415 . S
C1044 H1020 0.950 . S
C1044 C1039 1.363 . S
C1044 C1043 1.415 . S
C1045 H1021 0.951 . S
C1045 C1046 1.366 . S
C1045 C1047 1.388 . S
C1046 C1045 1.366 . S
C1046 C1050 1.385 . S
C1047 H1022 0.951 . S
C1047 C1045 1.388 . S
C1047 C1048 1.366 . S
C1048 C1047 1.366 . S
C1048 C1049 1.414 . S
C1048 C1051 1.499 . S
C1049 H1023 0.950 . S
C1049 C1048 1.414 . S
C1049 C1050 1.374 . S
C1050 H1024 0.950 . S
C1050 C1046 1.385 . S
C1050 C1049 1.374 . S
C1051 C1048 1.499 . S
C1051 C1052 1.373 . S
C1051 C1053 1.389 . S
C1052 H1025 0.950 . S
C1052 C1038 1.377 . S
C1052 C1051 1.373 . S
C1053 C1037 1.377 . S
C1053 C1051 1.389 . S
C1053 C1054 1.524 . S
C1054 C1053 1.524 . S
C1054 C1055 1.397 . S
C1054 C1059 1.363 . S
C1055 H1026 0.950 . S
C1055 C1054 1.397 . S
C1055 C1056 1.334 . S
C1056 H1027 0.950 . S
C1056 C1055 1.334 . S
C1056 C1057 1.287 . S
C1057 C1056 1.287 . S
C1057 C1058 1.524 . S
C1057 H1060 0.999 . S
C1058 H1028 0.950 . S
C1058 C1057 1.524 . S
C1058 C1059 1.415 . S
C1059 H1029 0.950 . S
C1059 C1054 1.363 . S
C1059 C1058 1.415 . S
H1060 C1057 0.999 . S
H1061 C1042 0.913 . S
H1062 C1080 0.951 . S
H1063 C1082 0.951 . S
H1064 C1084 0.950 . S
H1065 C1085 0.950 . S
H1066 C1087 0.950 . S
H1067 C1090 0.950 . S
H1068 C1091 0.950 . S
H1069 C1093 0.950 . S
H1070 C1094 0.950 . S
H1071 C1095 0.951 . S
H1072 C1097 0.951 . S
H1073 C1099 0.950 . S
H1074 C1100 0.950 . S
H1075 C1102 0.950 . S
H1076 C1105 0.950 . S
H1077 C1106 0.950 . S
H1078 C1108 0.950 . S
H1079 C1109 0.950 . S
C1080 H1062 0.951 . S
C1080 C1081 1.366 . S
C1080 C1082 1.388 . S
C1081 C1080 1.366 . S
C1081 C1085 1.385 . S
C1082 H1063 0.951 . S
C1082 C1080 1.388 . S
C1082 C1083 1.366 . S
C1083 C1082 1.366 . S
C1083 C1084 1.414 . S
C1083 C1086 1.499 . S
C1084 H1064 0.950 . S
C1084 C1083 1.414 . S
C1084 C1085 1.374 . S
C1085 H1065 0.950 . S
C1085 C1081 1.385 . S
C1085 C1084 1.374 . S
C1086 C1083 1.499 . S
C1086 C1087 1.373 . S
C1086 C1088 1.389 . S
C1087 H1066 0.950 . S
C1087 C1086 1.373 . S
C1087 C1103 1.377 . S
C1088 C1086 1.389 . S
C1088 C1089 1.524 . S
C1088 C1102 1.377 . S
C1089 C1088 1.524 . S
C1089 C1090 1.397 . S
C1089 C1094 1.363 . S
C1090 H1067 0.950 . S
C1090 C1089 1.397 . S
C1090 C1091 1.334 . S
C1091 H1068 0.950 . S
C1091 C1090 1.334 . S
C1091 C1092 1.287 . S
C1092 C1091 1.287 . S
C1092 C1093 1.524 . S
C1092 H1111 0.913 . S
C1093 H1069 0.950 . S
C1093 C1092 1.524 . S
C1093 C1094 1.415 . S
C1094 H1070 0.950 . S
C1094 C1089 1.363 . S
C1094 C1093 1.415 . S
C1095 H1071 0.951 . S
C1095 C1096 1.366 . S
C1095 C1097 1.388 . S
C1096 C1095 1.366 . S
C1096 C1100 1.385 . S
C1097 H1072 0.951 . S
C1097 C1095 1.388 . S
C1097 C1098 1.366 . S
C1098 C1097 1.366 . S
C1098 C1099 1.414 . S
C1098 C1101 1.499 . S
C1099 H1073 0.950 . S
C1099 C1098 1.414 . S
C1099 C1100 1.374 . S
C1100 H1074 0.950 . S
C1100 C1096 1.385 . S
C1100 C1099 1.374 . S
C1101 C1098 1.499 . S
C1101 C1102 1.373 . S
C1101 C1103 1.389 . S
C1102 H1075 0.950 . S
C1102 C1088 1.377 . S
C1102 C1101 1.373 . S
C1103 C1087 1.377 . S
C1103 C1101 1.389 . S
C1103 C1104 1.524 . S
C1104 C1103 1.524 . S
C1104 C1105 1.397 . S
C1104 C1109 1.363 . S
C1105 H1076 0.950 . S
C1105 C1104 1.397 . S
C1105 C1106 1.334 . S
C1106 H1077 0.950 . S
C1106 C1105 1.334 . S
C1106 C1107 1.287 . S
C1107 C1106 1.287 . S
C1107 C1108 1.524 . S
C1107 H1110 0.999 . S
C1108 H1078 0.950 . S
C1108 C1107 1.524 . S
C1108 C1109 1.415 . S
C1109 H1079 0.950 . S
C1109 C1104 1.363 . S
C1109 C1108 1.415 . S
H1110 C1107 0.999 . S
H1111 C1092 0.913 . S
H1112 C1130 0.951 . S
H1113 C1132 0.951 . S
H1114 C1134 0.950 . S
H1115 C1135 0.950 . S
H1116 C1137 0.950 . S
H1117 C1140 0.950 . S
H1118 C1141 0.950 . S
H1119 C1143 0.950 . S
H1120 C1144 0.950 . S
H1121 C1145 0.951 . S
H1122 C1147 0.951 . S
H1123 C1149 0.950 . S
H1124 C1150 0.950 . S
H1125 C1152 0.950 . S
H1126 C1155 0.950 . S
H1127 C1156 0.950 . S
H1128 C1158 0.950 . S
H1129 C1159 0.950 . S
C1130 H1112 0.951 . S
C1130 C1131 1.366 . S
C1130 C1132 1.388 . S
C1131 C1130 1.366 . S
C1131 C1135 1.385 . S
C1132 H1113 0.951 . S
C1132 C1130 1.388 . S
C1132 C1133 1.366 . S
C1133 C1132 1.366 . S
C1133 C1134 1.414 . S
C1133 C1136 1.499 . S
C1134 H1114 0.950 . S
C1134 C1133 1.414 . S
C1134 C1135 1.374 . S
C1135 H1115 0.950 . S
C1135 C1131 1.385 . S
C1135 C1134 1.374 . S
C1136 C1133 1.499 . S
C1136 C1137 1.373 . S
C1136 C1138 1.389 . S
C1137 H1116 0.950 . S
C1137 C1136 1.373 . S
C1137 C1153 1.377 . S
C1138 C1136 1.389 . S
C1138 C1139 1.524 . S
C1138 C1152 1.377 . S
C1139 C1138 1.524 . S
C1139 C1140 1.397 . S
C1139 C1144 1.363 . S
C1140 H1117 0.950 . S
C1140 C1139 1.397 . S
C1140 C1141 1.334 . S
C1141 H1118 0.950 . S
C1141 C1140 1.334 . S
C1141 C1142 1.287 . S
C1142 C1141 1.287 . S
C1142 C1143 1.524 . S
C1142 H1161 0.913 . S
C1143 H1119 0.950 . S
C1143 C1142 1.524 . S
C1143 C1144 1.415 . S
C1144 H1120 0.950 . S
C1144 C1139 1.363 . S
C1144 C1143 1.415 . S
C1145 H1121 0.951 . S
C1145 C1146 1.366 . S
C1145 C1147 1.388 . S
C1146 C1145 1.366 . S
C1146 C1150 1.385 . S
C1147 H1122 0.951 . S
C1147 C1145 1.388 . S
C1147 C1148 1.366 . S
C1148 C1147 1.366 . S
C1148 C1149 1.414 . S
C1148 C1151 1.499 . S
C1149 H1123 0.950 . S
C1149 C1148 1.414 . S
C1149 C1150 1.374 . S
C1150 H1124 0.950 . S
C1150 C1146 1.385 . S
C1150 C1149 1.374 . S
C1151 C1148 1.499 . S
C1151 C1152 1.373 . S
C1151 C1153 1.389 . S
C1152 H1125 0.950 . S
C1152 C1138 1.377 . S
C1152 C1151 1.373 . S
C1153 C1137 1.377 . S
C1153 C1151 1.389 . S
C1153 C1154 1.524 . S
C1154 C1153 1.524 . S
C1154 C1155 1.397 . S
C1154 C1159 1.363 . S
C1155 H1126 0.950 . S
C1155 C1154 1.397 . S
C1155 C1156 1.334 . S
C1156 H1127 0.950 . S
C1156 C1155 1.334 . S
C1156 C1157 1.287 . S
C1157 C1156 1.287 . S
C1157 C1158 1.524 . S
C1157 H1160 0.999 . S
C1158 H1128 0.950 . S
C1158 C1157 1.524 . S
C1158 C1159 1.415 . S
C1159 H1129 0.950 . S
C1159 C1154 1.363 . S
C1159 C1158 1.415 . S
H1160 C1157 0.999 . S
H1161 C1142 0.913 . S
H1162 C1180 0.951 . S
H1163 C1182 0.951 . S
H1164 C1184 0.950 . S
H1165 C1185 0.950 . S
H1166 C1187 0.950 . S
H1167 C1190 0.950 . S
H1168 C1191 0.950 . S
H1169 C1193 0.950 . S
H1170 C1194 0.950 . S
H1171 C1195 0.951 . S
H1172 C1197 0.951 . S
H1173 C1199 0.950 . S
H1174 C1200 0.950 . S
H1175 C1202 0.950 . S
H1176 C1205 0.950 . S
H1177 C1206 0.950 . S
H1178 C1208 0.950 . S
H1179 C1209 0.950 . S
C1180 H1162 0.951 . S
C1180 C1181 1.366 . S
C1180 C1182 1.388 . S
C1181 C1180 1.366 . S
C1181 C1185 1.385 . S
C1182 H1163 0.951 . S
C1182 C1180 1.388 . S
C1182 C1183 1.366 . S
C1183 C1182 1.366 . S
C1183 C1184 1.414 . S
C1183 C1186 1.499 . S
C1184 H1164 0.950 . S
C1184 C1183 1.414 . S
C1184 C1185 1.374 . S
C1185 H1165 0.950 . S
C1185 C1181 1.385 . S
C1185 C1184 1.374 . S
C1186 C1183 1.499 . S
C1186 C1187 1.373 . S
C1186 C1188 1.389 . S
C1187 H1166 0.950 . S
C1187 C1186 1.373 . S
C1187 C1203 1.377 . S
C1188 C1186 1.389 . S
C1188 C1189 1.524 . S
C1188 C1202 1.377 . S
C1189 C1188 1.524 . S
C1189 C1190 1.397 . S
C1189 C1194 1.363 . S
C1190 H1167 0.950 . S
C1190 C1189 1.397 . S
C1190 C1191 1.334 . S
C1191 H1168 0.950 . S
C1191 C1190 1.334 . S
C1191 C1192 1.287 . S
C1192 C1191 1.287 . S
C1192 C1193 1.524 . S
C1192 H1211 0.913 . S
C1193 H1169 0.950 . S
C1193 C1192 1.524 . S
C1193 C1194 1.415 . S
C1194 H1170 0.950 . S
C1194 C1189 1.363 . S
C1194 C1193 1.415 . S
C1195 H1171 0.951 . S
C1195 C1196 1.366 . S
C1195 C1197 1.388 . S
C1196 C1195 1.366 . S
C1196 C1200 1.385 . S
C1197 H1172 0.951 . S
C1197 C1195 1.388 . S
C1197 C1198 1.366 . S
C1198 C1197 1.366 . S
C1198 C1199 1.414 . S
C1198 C1201 1.499 . S
C1199 H1173 0.950 . S
C1199 C1198 1.414 . S
C1199 C1200 1.374 . S
C1200 H1174 0.950 . S
C1200 C1196 1.385 . S
C1200 C1199 1.374 . S
C1201 C1198 1.499 . S
C1201 C1202 1.373 . S
C1201 C1203 1.389 . S
C1202 H1175 0.950 . S
C1202 C1188 1.377 . S
C1202 C1201 1.373 . S
C1203 C1187 1.377 . S
C1203 C1201 1.389 . S
C1203 C1204 1.524 . S
C1204 C1203 1.524 . S
C1204 C1205 1.397 . S
C1204 C1209 1.363 . S
C1205 H1176 0.950 . S
C1205 C1204 1.397 . S
C1205 C1206 1.334 . S
C1206 H1177 0.950 . S
C1206 C1205 1.334 . S
C1206 C1207 1.287 . S
C1207 C1206 1.287 . S
C1207 C1208 1.524 . S
C1207 H1210 0.999 . S
C1208 H1178 0.950 . S
C1208 C1207 1.524 . S
C1208 C1209 1.415 . S
C1209 H1179 0.950 . S
C1209 C1204 1.363 . S
C1209 C1208 1.415 . S
H1210 C1207 0.999 . S
H1211 C1192 0.913 . S
H1212 C1230 0.951 . S
H1213 C1232 0.951 . S
H1214 C1234 0.950 . S
H1215 C1235 0.950 . S
H1216 C1237 0.950 . S
H1217 C1240 0.950 . S
H1218 C1241 0.950 . S
H1219 C1243 0.950 . S
H1220 C1244 0.950 . S
H1221 C1245 0.951 . S
H1222 C1247 0.951 . S
H1223 C1249 0.950 . S
H1224 C1250 0.950 . S
H1225 C1252 0.950 . S
H1226 C1255 0.950 . S
H1227 C1256 0.950 . S
H1228 C1258 0.950 . S
H1229 C1259 0.950 . S
C1230 H1212 0.951 . S
C1230 C1231 1.366 . S
C1230 C1232 1.388 . S
C1231 C1230 1.366 . S
C1231 C1235 1.385 . S
C1232 H1213 0.951 . S
C1232 C1230 1.388 . S
C1232 C1233 1.366 . S
C1233 C1232 1.366 . S
C1233 C1234 1.414 . S
C1233 C1236 1.499 . S
C1234 H1214 0.950 . S
C1234 C1233 1.414 . S
C1234 C1235 1.374 . S
C1235 H1215 0.950 . S
C1235 C1231 1.385 . S
C1235 C1234 1.374 . S
C1236 C1233 1.499 . S
C1236 C1237 1.373 . S
C1236 C1238 1.389 . S
C1237 H1216 0.950 . S
C1237 C1236 1.373 . S
C1237 C1253 1.377 . S
C1238 C1236 1.389 . S
C1238 C1239 1.524 . S
C1238 C1252 1.377 . S
C1239 C1238 1.524 . S
C1239 C1240 1.397 . S
C1239 C1244 1.363 . S
C1240 H1217 0.950 . S
C1240 C1239 1.397 . S
C1240 C1241 1.334 . S
C1241 H1218 0.950 . S
C1241 C1240 1.334 . S
C1241 C1242 1.287 . S
C1242 C1241 1.287 . S
C1242 C1243 1.524 . S
C1242 H1261 0.913 . S
C1243 H1219 0.950 . S
C1243 C1242 1.524 . S
C1243 C1244 1.415 . S
C1244 H1220 0.950 . S
C1244 C1239 1.363 . S
C1244 C1243 1.415 . S
C1245 H1221 0.951 . S
C1245 C1246 1.366 . S
C1245 C1247 1.388 . S
C1246 C1245 1.366 . S
C1246 C1250 1.385 . S
C1247 H1222 0.951 . S
C1247 C1245 1.388 . S
C1247 C1248 1.366 . S
C1248 C1247 1.366 . S
C1248 C1249 1.414 . S
C1248 C1251 1.499 . S
C1249 H1223 0.950 . S
C1249 C1248 1.414 . S
C1249 C1250 1.374 . S
C1250 H1224 0.950 . S
C1250 C1246 1.385 . S
C1250 C1249 1.374 . S
C1251 C1248 1.499 . S
C1251 C1252 1.373 . S
C1251 C1253 1.389 . S
C1252 H1225 0.950 . S
C1252 C1238 1.377 . S
C1252 C1251 1.373 . S
C1253 C1237 1.377 . S
C1253 C1251 1.389 . S
C1253 C1254 1.524 . S
C1254 C1253 1.524 . S
C1254 C1255 1.397 . S
C1254 C1259 1.363 . S
C1255 H1226 0.950 . S
C1255 C1254 1.397 . S
C1255 C1256 1.334 . S
C1256 H1227 0.950 . S
C1256 C1255 1.334 . S
C1256 C1257 1.287 . S
C1257 C1256 1.287 . S
C1257 C1258 1.524 . S
C1257 H1260 0.999 . S
C1258 H1228 0.950 . S
C1258 C1257 1.524 . S
C1258 C1259 1.415 . S
C1259 H1229 0.950 . S
C1259 C1254 1.363 . S
C1259 C1258 1.415 . S
H1260 C1257 0.999 . S
H1261 C1242 0.913 . S
H1262 C1280 0.951 . S
H1263 C1282 0.951 . S
H1264 C1284 0.950 . S
H1265 C1285 0.950 . S
H1266 C1287 0.950 . S
H1267 C1290 0.950 . S
H1268 C1291 0.950 . S
H1269 C1293 0.950 . S
H1270 C1294 0.950 . S
H1271 C1295 0.951 . S
H1272 C1297 0.951 . S
H1273 C1299 0.950 . S
H1274 C1300 0.950 . S
H1275 C1302 0.950 . S
H1276 C1305 0.950 . S
H1277 C1306 0.950 . S
H1278 C1308 0.950 . S
H1279 C1309 0.950 . S
C1280 H1262 0.951 . S
C1280 C1281 1.366 . S
C1280 C1282 1.388 . S
C1281 C1280 1.366 . S
C1281 C1285 1.385 . S
C1282 H1263 0.951 . S
C1282 C1280 1.388 . S
C1282 C1283 1.366 . S
C1283 C1282 1.366 . S
C1283 C1284 1.414 . S
C1283 C1286 1.499 . S
C1284 H1264 0.950 . S
C1284 C1283 1.414 . S
C1284 C1285 1.374 . S
C1285 H1265 0.950 . S
C1285 C1281 1.385 . S
C1285 C1284 1.374 . S
C1286 C1283 1.499 . S
C1286 C1287 1.373 . S
C1286 C1288 1.389 . S
C1287 H1266 0.950 . S
C1287 C1286 1.373 . S
C1287 C1303 1.377 . S
C1288 C1286 1.389 . S
C1288 C1289 1.524 . S
C1288 C1302 1.377 . S
C1289 C1288 1.524 . S
C1289 C1290 1.397 . S
C1289 C1294 1.363 . S
C1290 H1267 0.950 . S
C1290 C1289 1.397 . S
C1290 C1291 1.334 . S
C1291 H1268 0.950 . S
C1291 C1290 1.334 . S
C1291 C1292 1.287 . S
C1292 C1291 1.287 . S
C1292 C1293 1.524 . S
C1292 H1311 0.913 . S
C1293 H1269 0.950 . S
C1293 C1292 1.524 . S
C1293 C1294 1.415 . S
C1294 H1270 0.950 . S
C1294 C1289 1.363 . S
C1294 C1293 1.415 . S
C1295 H1271 0.951 . S
C1295 C1296 1.366 . S
C1295 C1297 1.388 . S
C1296 C1295 1.366 . S
C1296 C1300 1.385 . S
C1297 H1272 0.951 . S
C1297 C1295 1.388 . S
C1297 C1298 1.366 . S
C1298 C1297 1.366 . S
C1298 C1299 1.414 . S
C1298 C1301 1.499 . S
C1299 H1273 0.950 . S
C1299 C1298 1.414 . S
C1299 C1300 1.374 . S
C1300 H1274 0.950 . S
C1300 C1296 1.385 . S
C1300 C1299 1.374 . S
C1301 C1298 1.499 . S
C1301 C1302 1.373 . S
C1301 C1303 1.389 . S
C1302 H1275 0.950 . S
C1302 C1288 1.377 . S
C1302 C1301 1.373 . S
C1303 C1287 1.377 . S
C1303 C1301 1.389 . S
C1303 C1304 1.524 . S
C1304 C1303 1.524 . S
C1304 C1305 1.397 . S
C1304 C1309 1.363 . S
C1305 H1276 0.950 . S
C1305 C1304 1.397 . S
C1305 C1306 1.334 . S
C1306 H1277 0.950 . S
C1306 C1305 1.334 . S
C1306 C1307 1.287 . S
C1307 C1306 1.287 . S
C1307 C1308 1.524 . S
C1307 H1310 0.999 . S
C1308 H1278 0.950 . S
C1308 C1307 1.524 . S
C1308 C1309 1.415 . S
C1309 H1279 0.950 . S
C1309 C1304 1.363 . S
C1309 C1308 1.415 . S
H1310 C1307 0.999 . S
H1311 C1292 0.913 . S
H1312 C1330 0.951 . S
H1313 C1332 0.951 . S
H1314 C1334 0.950 . S
H1315 C1335 0.950 . S
H1316 C1337 0.950 . S
H1317 C1340 0.950 . S
H1318 C1341 0.950 . S
H1319 C1343 0.950 . S
H1320 C1344 0.950 . S
H1321 C1345 0.951 . S
H1322 C1347 0.951 . S
H1323 C1349 0.950 . S
H1324 C1350 0.950 . S
H1325 C1352 0.950 . S
H1326 C1355 0.950 . S
H1327 C1356 0.950 . S
H1328 C1358 0.950 . S
H1329 C1359 0.950 . S
C1330 H1312 0.951 . S
C1330 C1331 1.366 . S
C1330 C1332 1.388 . S
C1331 C1330 1.366 . S
C1331 C1335 1.385 . S
C1332 H1313 0.951 . S
C1332 C1330 1.388 . S
C1332 C1333 1.366 . S
C1333 C1332 1.366 . S
C1333 C1334 1.414 . S
C1333 C1336 1.499 . S
C1334 H1314 0.950 . S
C1334 C1333 1.414 . S
C1334 C1335 1.374 . S
C1335 H1315 0.950 . S
C1335 C1331 1.385 . S
C1335 C1334 1.374 . S
C1336 C1333 1.499 . S
C1336 C1337 1.373 . S
C1336 C1338 1.389 . S
C1337 H1316 0.950 . S
C1337 C1336 1.373 . S
C1337 C1353 1.377 . S
C1338 C1336 1.389 . S
C1338 C1339 1.524 . S
C1338 C1352 1.377 . S
C1339 C1338 1.524 . S
C1339 C1340 1.397 . S
C1339 C1344 1.363 . S
C1340 H1317 0.950 . S
C1340 C1339 1.397 . S
C1340 C1341 1.334 . S
C1341 H1318 0.950 . S
C1341 C1340 1.334 . S
C1341 C1342 1.287 . S
C1342 C1341 1.287 . S
C1342 C1343 1.524 . S
C1342 H1361 0.913 . S
C1343 H1319 0.950 . S
C1343 C1342 1.524 . S
C1343 C1344 1.415 . S
C1344 H1320 0.950 . S
C1344 C1339 1.363 . S
C1344 C1343 1.415 . S
C1345 H1321 0.951 . S
C1345 C1346 1.366 . S
C1345 C1347 1.388 . S
C1346 C1345 1.366 . S
C1346 C1350 1.385 . S
C1347 H1322 0.951 . S
C1347 C1345 1.388 . S
C1347 C1348 1.366 . S
C1348 C1347 1.366 . S
C1348 C1349 1.414 . S
C1348 C1351 1.499 . S
C1349 H1323 0.950 . S
C1349 C1348 1.414 . S
C1349 C1350 1.374 . S
C1350 H1324 0.950 . S
C1350 C1346 1.385 . S
C1350 C1349 1.374 . S
C1351 C1348 1.499 . S
C1351 C1352 1.373 . S
C1351 C1353 1.389 . S
C1352 H1325 0.950 . S
C1352 C1338 1.377 . S
C1352 C1351 1.373 . S
C1353 C1337 1.377 . S
C1353 C1351 1.389 . S
C1353 C1354 1.524 . S
C1354 C1353 1.524 . S
C1354 C1355 1.397 . S
C1354 C1359 1.363 . S
C1355 H1326 0.950 . S
C1355 C1354 1.397 . S
C1355 C1356 1.334 . S
C1356 H1327 0.950 . S
C1356 C1355 1.334 . S
C1356 C1357 1.287 . S
C1357 C1356 1.287 . S
C1357 C1358 1.524 . S
C1357 H1360 0.999 . S
C1358 H1328 0.950 . S
C1358 C1357 1.524 . S
C1358 C1359 1.415 . S
C1359 H1329 0.950 . S
C1359 C1354 1.363 . S
C1359 C1358 1.415 . S
H1360 C1357 0.999 . S
H1361 C1342 0.913 . S
H1362 C1380 0.951 . S
H1363 C1382 0.951 . S
H1364 C1384 0.950 . S
H1365 C1385 0.950 . S
H1366 C1387 0.950 . S
H1367 C1390 0.950 . S
H1368 C1391 0.950 . S
H1369 C1393 0.950 . S
H1370 C1394 0.950 . S
H1371 C1395 0.951 . S
H1372 C1397 0.951 . S
H1373 C1399 0.950 . S
H1374 C1400 0.950 . S
H1375 C1402 0.950 . S
H1376 C1405 0.950 . S
H1377 C1406 0.950 . S
H1378 C1408 0.950 . S
H1379 C1409 0.950 . S
C1380 H1362 0.951 . S
C1380 C1381 1.366 . S
C1380 C1382 1.388 . S
C1381 C1380 1.366 . S
C1381 C1385 1.385 . S
C1382 H1363 0.951 . S
C1382 C1380 1.388 . S
C1382 C1383 1.366 . S
C1383 C1382 1.366 . S
C1383 C1384 1.414 . S
C1383 C1386 1.499 . S
C1384 H1364 0.950 . S
C1384 C1383 1.414 . S
C1384 C1385 1.374 . S
C1385 H1365 0.950 . S
C1385 C1381 1.385 . S
C1385 C1384 1.374 . S
C1386 C1383 1.499 . S
C1386 C1387 1.373 . S
C1386 C1388 1.389 . S
C1387 H1366 0.950 . S
C1387 C1386 1.373 . S
C1387 C1403 1.377 . S
C1388 C1386 1.389 . S
C1388 C1389 1.524 . S
C1388 C1402 1.377 . S
C1389 C1388 1.524 . S
C1389 C1390 1.397 . S
C1389 C1394 1.363 . S
C1390 H1367 0.950 . S
C1390 C1389 1.397 . S
C1390 C1391 1.334 . S
C1391 H1368 0.950 . S
C1391 C1390 1.334 . S
C1391 C1392 1.287 . S
C1392 C1391 1.287 . S
C1392 C1393 1.524 . S
C1392 H1411 0.913 . S
C1393 H1369 0.950 . S
C1393 C1392 1.524 . S
C1393 C1394 1.415 . S
C1394 H1370 0.950 . S
C1394 C1389 1.363 . S
C1394 C1393 1.415 . S
C1395 H1371 0.951 . S
C1395 C1396 1.366 . S
C1395 C1397 1.388 . S
C1396 C1395 1.366 . S
C1396 C1400 1.385 . S
C1397 H1372 0.951 . S
C1397 C1395 1.388 . S
C1397 C1398 1.366 . S
C1398 C1397 1.366 . S
C1398 C1399 1.414 . S
C1398 C1401 1.499 . S
C1399 H1373 0.950 . S
C1399 C1398 1.414 . S
C1399 C1400 1.374 . S
C1400 H1374 0.950 . S
C1400 C1396 1.385 . S
C1400 C1399 1.374 . S
C1401 C1398 1.499 . S
C1401 C1402 1.373 . S
C1401 C1403 1.389 . S
C1402 H1375 0.950 . S
C1402 C1388 1.377 . S
C1402 C1401 1.373 . S
C1403 C1387 1.377 . S
C1403 C1401 1.389 . S
C1403 C1404 1.524 . S
C1404 C1403 1.524 . S
C1404 C1405 1.397 . S
C1404 C1409 1.363 . S
C1405 H1376 0.950 . S
C1405 C1404 1.397 . S
C1405 C1406 1.334 . S
C1406 H1377 0.950 . S
C1406 C1405 1.334 . S
C1406 C1407 1.287 . S
C1407 C1406 1.287 . S
C1407 C1408 1.524 . S
C1407 H1410 0.999 . S
C1408 H1378 0.950 . S
C1408 C1407 1.524 . S
C1408 C1409 1.415 . S
C1409 H1379 0.950 . S
C1409 C1404 1.363 . S
C1409 C1408 1.415 . S
H1410 C1407 0.999 . S
H1411 C1392 0.913 . S
H1412 C1430 0.951 . S
H1413 C1432 0.951 . S
H1414 C1434 0.950 . S
H1415 C1435 0.950 . S
H1416 C1437 0.950 . S
H1417 C1440 0.950 . S
H1418 C1441 0.950 . S
H1419 C1443 0.950 . S
H1420 C1444 0.950 . S
H1421 C1445 0.951 . S
H1422 C1447 0.951 . S
H1423 C1449 0.950 . S
H1424 C1450 0.950 . S
H1425 C1452 0.950 . S
H1426 C1455 0.950 . S
H1427 C1456 0.950 . S
H1428 C1458 0.950 . S
H1429 C1459 0.950 . S
C1430 H1412 0.951 . S
C1430 C1431 1.366 . S
C1430 C1432 1.388 . S
C1431 C1430 1.366 . S
C1431 C1435 1.385 . S
C1432 H1413 0.951 . S
C1432 C1430 1.388 . S
C1432 C1433 1.366 . S
C1433 C1432 1.366 . S
C1433 C1434 1.414 . S
C1433 C1436 1.499 . S
C1434 H1414 0.950 . S
C1434 C1433 1.414 . S
C1434 C1435 1.374 . S
C1435 H1415 0.950 . S
C1435 C1431 1.385 . S
C1435 C1434 1.374 . S
C1436 C1433 1.499 . S
C1436 C1437 1.373 . S
C1436 C1438 1.389 . S
C1437 H1416 0.950 . S
C1437 C1436 1.373 . S
C1437 C1453 1.377 . S
C1438 C1436 1.389 . S
C1438 C1439 1.524 . S
C1438 C1452 1.377 . S
C1439 C1438 1.524 . S
C1439 C1440 1.397 . S
C1439 C1444 1.363 . S
C1440 H1417 0.950 . S
C1440 C1439 1.397 . S
C1440 C1441 1.334 . S
C1441 H1418 0.950 . S
C1441 C1440 1.334 . S
C1441 C1442 1.287 . S
C1442 C1441 1.287 . S
C1442 C1443 1.524 . S
C1442 H1461 0.913 . S
C1443 H1419 0.950 . S
C1443 C1442 1.524 . S
C1443 C1444 1.415 . S
C1444 H1420 0.950 . S
C1444 C1439 1.363 . S
C1444 C1443 1.415 . S
C1445 H1421 0.951 . S
C1445 C1446 1.366 . S
C1445 C1447 1.388 . S
C1446 C1445 1.366 . S
C1446 C1450 1.385 . S
C1447 H1422 0.951 . S
C1447 C1445 1.388 . S
C1447 C1448 1.366 . S
C1448 C1447 1.366 . S
C1448 C1449 1.414 . S
C1448 C1451 1.499 . S
C1449 H1423 0.950 . S
C1449 C1448 1.414 . S
C1449 C1450 1.374 . S
C1450 H1424 0.950 . S
C1450 C1446 1.385 . S
C1450 C1449 1.374 . S
C1451 C1448 1.499 . S
C1451 C1452 1.373 . S
C1451 C1453 1.389 . S
C1452 H1425 0.950 . S
C1452 C1438 1.377 . S
C1452 C1451 1.373 . S
C1453 C1437 1.377 . S
C1453 C1451 1.389 . S
C1453 C1454 1.524 . S
C1454 C1453 1.524 . S
C1454 C1455 1.397 . S
C1454 C1459 1.363 . S
C1455 H1426 0.950 . S
C1455 C1454 1.397 . S
C1455 C1456 1.334 . S
C1456 H1427 0.950 . S
C1456 C1455 1.334 . S
C1456 C1457 1.287 . S
C1457 C1456 1.287 . S
C1457 C1458 1.524 . S
C1457 H1460 0.999 . S
C1458 H1428 0.950 . S
C1458 C1457 1.524 . S
C1458 C1459 1.415 . S
C1459 H1429 0.950 . S
C1459 C1454 1.363 . S
C1459 C1458 1.415 . S
H1460 C1457 0.999 . S
H1461 C1442 0.913 . S
H1462 C1480 0.951 . S
H1463 C1482 0.951 . S
H1464 C1484 0.950 . S
H1465 C1485 0.950 . S
H1466 C1487 0.950 . S
H1467 C1490 0.950 . S
H1468 C1491 0.950 . S
H1469 C1493 0.950 . S
H1470 C1494 0.950 . S
H1471 C1495 0.951 . S
H1472 C1497 0.951 . S
H1473 C1499 0.950 . S
H1474 C1500 0.950 . S
H1475 C1502 0.950 . S
H1476 C1505 0.950 . S
H1477 C1506 0.950 . S
H1478 C1508 0.950 . S
H1479 C1509 0.950 . S
C1480 H1462 0.951 . S
C1480 C1481 1.366 . S
C1480 C1482 1.388 . S
C1481 C1480 1.366 . S
C1481 C1485 1.385 . S
C1482 H1463 0.951 . S
C1482 C1480 1.388 . S
C1482 C1483 1.366 . S
C1483 C1482 1.366 . S
C1483 C1484 1.414 . S
C1483 C1486 1.499 . S
C1484 H1464 0.950 . S
C1484 C1483 1.414 . S
C1484 C1485 1.374 . S
C1485 H1465 0.950 . S
C1485 C1481 1.385 . S
C1485 C1484 1.374 . S
C1486 C1483 1.499 . S
C1486 C1487 1.373 . S
C1486 C1488 1.389 . S
C1487 H1466 0.950 . S
C1487 C1486 1.373 . S
C1487 C1503 1.377 . S
C1488 C1486 1.389 . S
C1488 C1489 1.524 . S
C1488 C1502 1.377 . S
C1489 C1488 1.524 . S
C1489 C1490 1.397 . S
C1489 C1494 1.363 . S
C1490 H1467 0.950 . S
C1490 C1489 1.397 . S
C1490 C1491 1.334 . S
C1491 H1468 0.950 . S
C1491 C1490 1.334 . S
C1491 C1492 1.287 . S
C1492 C1491 1.287 . S
C1492 C1493 1.524 . S
C1492 H1511 0.913 . S
C1493 H1469 0.950 . S
C1493 C1492 1.524 . S
C1493 C1494 1.415 . S
C1494 H1470 0.950 . S
C1494 C1489 1.363 . S
C1494 C1493 1.415 . S
C1495 H1471 0.951 . S
C1495 C1496 1.366 . S
C1495 C1497 1.388 . S
C1496 C1495 1.366 . S
C1496 C1500 1.385 . S
C1497 H1472 0.951 . S
C1497 C1495 1.388 . S
C1497 C1498 1.366 . S
C1498 C1497 1.366 . S
C1498 C1499 1.414 . S
C1498 C1501 1.499 . S
C1499 H1473 0.950 . S
C1499 C1498 1.414 . S
C1499 C1500 1.374 . S
C1500 H1474 0.950 . S
C1500 C1496 1.385 . S
C1500 C1499 1.374 . S
C1501 C1498 1.499 . S
C1501 C1502 1.373 . S
C1501 C1503 1.389 . S
C1502 H1475 0.950 . S
C1502 C1488 1.377 . S
C1502 C1501 1.373 . S
C1503 C1487 1.377 . S
C1503 C1501 1.389 . S
C1503 C1504 1.524 . S
C1504 C1503 1.524 . S
C1504 C1505 1.397 . S
C1504 C1509 1.363 . S
C1505 H1476 0.950 . S
C1505 C1504 1.397 . S
C1505 C1506 1.334 . S
C1506 H1477 0.950 . S
C1506 C1505 1.334 . S
C1506 C1507 1.287 . S
C1507 C1506 1.287 . S
C1507 C1508 1.524 . S
C1507 H1510 0.999 . S
C1508 H1478 0.950 . S
C1508 C1507 1.524 . S
C1508 C1509 1.415 . S
C1509 H1479 0.950 . S
C1509 C1504 1.363 . S
C1509 C1508 1.415 . S
H1510 C1507 0.999 . S
H1511 C1492 0.913 . S
H1512 C1530 0.951 . S
H1513 C1532 0.951 . S
H1514 C1534 0.950 . S
H1515 C1535 0.950 . S
H1516 C1537 0.950 . S
H1517 C1540 0.950 . S
H1518 C1541 0.950 . S
H1519 C1543 0.950 . S
H1520 C1544 0.950 . S
H1521 C1545 0.951 . S
H1522 C1547 0.951 . S
H1523 C1549 0.950 . S
H1524 C1550 0.950 . S
H1525 C1552 0.950 . S
H1526 C1555 0.950 . S
H1527 C1556 0.950 . S
H1528 C1558 0.950 . S
H1529 C1559 0.950 . S
C1530 H1512 0.951 . S
C1530 C1531 1.366 . S
C1530 C1532 1.388 . S
C1531 C1530 1.366 . S
C1531 C1535 1.385 . S
C1532 H1513 0.951 . S
C1532 C1530 1.388 . S
C1532 C1533 1.366 . S
C1533 C1532 1.366 . S
C1533 C1534 1.414 . S
C1533 C1536 1.499 . S
C1534 H1514 0.950 . S
C1534 C1533 1.414 . S
C1534 C1535 1.374 . S
C1535 H1515 0.950 . S
C1535 C1531 1.385 . S
C1535 C1534 1.374 . S
C1536 C1533 1.499 . S
C1536 C1537 1.373 . S
C1536 C1538 1.389 . S
C1537 H1516 0.950 . S
C1537 C1536 1.373 . S
C1537 C1553 1.377 1_455 S
C1538 C1536 1.389 . S
C1538 C1539 1.524 . S
C1538 C1552 1.377 1_455 S
C1539 C1538 1.524 . S
C1539 C1540 1.397 . S
C1539 C1544 1.363 . S
C1540 H1517 0.950 . S
C1540 C1539 1.397 . S
C1540 C1541 1.334 . S
C1541 H1518 0.950 . S
C1541 C1540 1.334 . S
C1541 C1542 1.287 . S
C1542 C1541 1.287 . S
C1542 C1543 1.524 . S
C1542 H1561 0.913 . S
C1543 H1519 0.950 . S
C1543 C1542 1.524 . S
C1543 C1544 1.415 . S
C1544 H1520 0.950 . S
C1544 C1539 1.363 . S
C1544 C1543 1.415 . S
C1545 H1521 0.951 . S
C1545 C1546 1.366 . S
C1545 C1547 1.388 . S
C1546 C1545 1.366 . S
C1546 C1550 1.385 . S
C1547 H1522 0.951 . S
C1547 C1545 1.388 . S
C1547 C1548 1.366 . S
C1548 C1547 1.366 . S
C1548 C1549 1.414 . S
C1548 C1551 1.499 . S
C1549 H1523 0.950 . S
C1549 C1548 1.414 . S
C1549 C1550 1.374 . S
C1550 H1524 0.950 . S
C1550 C1546 1.385 . S
C1550 C1549 1.374 . S
C1551 C1548 1.499 . S
C1551 C1552 1.373 . S
C1551 C1553 1.389 . S
C1552 H1525 0.950 . S
C1552 C1538 1.377 1_655 S
C1552 C1551 1.373 . S
C1553 C1537 1.377 1_655 S
C1553 C1551 1.389 . S
C1553 C1554 1.524 . S
C1554 C1553 1.524 . S
C1554 C1555 1.397 . S
C1554 C1559 1.363 . S
C1555 H1526 0.950 . S
C1555 C1554 1.397 . S
C1555 C1556 1.334 . S
C1556 H1527 0.950 . S
C1556 C1555 1.334 . S
C1556 C1557 1.287 . S
C1557 C1556 1.287 . S
C1557 C1558 1.524 . S
C1557 H1560 0.999 . S
C1558 H1528 0.950 . S
C1558 C1557 1.524 . S
C1558 C1559 1.415 . S
C1559 H1529 0.950 . S
C1559 C1554 1.363 . S
C1559 C1558 1.415 . S
H1560 C1557 0.999 . S
H1561 C1542 0.913 . S
H1562 C1580 0.951 . S
H1563 C1582 0.951 . S
H1564 C1584 0.950 . S
H1565 C1585 0.950 . S
H1566 C1587 0.950 . S
H1567 C1590 0.950 . S
H1568 C1591 0.950 . S
H1569 C1593 0.950 . S
H1570 C1594 0.950 . S
H1571 C1595 0.951 . S
H1572 C1597 0.951 . S
H1573 C1599 0.950 . S
H1574 C1600 0.950 . S
H1575 C1602 0.950 . S
H1576 C1605 0.950 . S
H1577 C1606 0.950 . S
H1578 C1608 0.950 . S
H1579 C1609 0.950 . S
C1580 H1562 0.951 . S
C1580 C1581 1.366 . S
C1580 C1582 1.388 . S
C1581 C1580 1.366 . S
C1581 C1585 1.385 . S
C1582 H1563 0.951 . S
C1582 C1580 1.388 . S
C1582 C1583 1.366 . S
C1583 C1582 1.366 . S
C1583 C1584 1.414 . S
C1583 C1586 1.499 . S
C1584 H1564 0.950 . S
C1584 C1583 1.414 . S
C1584 C1585 1.374 . S
C1585 H1565 0.950 . S
C1585 C1581 1.385 . S
C1585 C1584 1.374 . S
C1586 C1583 1.499 . S
C1586 C1587 1.373 . S
C1586 C1588 1.389 . S
C1587 H1566 0.950 . S
C1587 C1586 1.373 . S
C1587 C1603 1.377 1_545 S
C1588 C1586 1.389 . S
C1588 C1589 1.524 . S
C1588 C1602 1.377 1_545 S
C1589 C1588 1.524 . S
C1589 C1590 1.397 . S
C1589 C1594 1.363 . S
C1590 H1567 0.950 . S
C1590 C1589 1.397 . S
C1590 C1591 1.334 . S
C1591 H1568 0.950 . S
C1591 C1590 1.334 . S
C1591 C1592 1.287 . S
C1592 C1591 1.287 . S
C1592 C1593 1.524 . S
C1592 H1611 0.913 . S
C1593 H1569 0.950 . S
C1593 C1592 1.524 . S
C1593 C1594 1.415 . S
C1594 H1570 0.950 . S
C1594 C1589 1.363 . S
C1594 C1593 1.415 . S
C1595 H1571 0.951 . S
C1595 C1596 1.366 . S
C1595 C1597 1.388 . S
C1596 C1595 1.366 . S
C1596 C1600 1.385 . S
C1597 H1572 0.951 . S
C1597 C1595 1.388 . S
C1597 C1598 1.366 . S
C1598 C1597 1.366 . S
C1598 C1599 1.414 . S
C1598 C1601 1.499 . S
C1599 H1573 0.950 . S
C1599 C1598 1.414 . S
C1599 C1600 1.374 . S
C1600 H1574 0.950 . S
C1600 C1596 1.385 . S
C1600 C1599 1.374 . S
C1601 C1598 1.499 . S
C1601 C1602 1.373 . S
C1601 C1603 1.389 . S
C1602 H1575 0.950 . S
C1602 C1588 1.377 1_565 S
C1602 C1601 1.373 . S
C1603 C1587 1.377 1_565 S
C1603 C1601 1.389 . S
C1603 C1604 1.524 . S
C1604 C1603 1.524 . S
C1604 C1605 1.397 . S
C1604 C1609 1.363 . S
C1605 H1576 0.950 . S
C1605 C1604 1.397 . S
C1605 C1606 1.334 . S
C1606 H1577 0.950 . S
C1606 C1605 1.334 . S
C1606 C1607 1.287 . S
C1607 C1606 1.287 . S
C1607 C1608 1.524 . S
C1607 H1610 0.999 . S
C1608 H1578 0.950 . S
C1608 C1607 1.524 . S
C1608 C1609 1.415 . S
C1609 H1579 0.950 . S
C1609 C1604 1.363 . S
C1609 C1608 1.415 . S
H1610 C1607 0.999 . S
H1611 C1592 0.913 . S
H1612 C1630 0.951 . S
H1613 C1632 0.951 . S
H1614 C1634 0.950 . S
H1615 C1635 0.950 . S
H1616 C1637 0.950 . S
H1617 C1640 0.950 . S
H1618 C1641 0.950 . S
H1619 C1643 0.950 . S
H1620 C1644 0.950 . S
H1621 C1645 0.951 . S
H1622 C1647 0.951 . S
H1623 C1649 0.950 . S
H1624 C1650 0.950 . S
H1625 C1652 0.950 . S
H1626 C1655 0.950 . S
H1627 C1656 0.950 . S
H1628 C1658 0.950 . S
H1629 C1659 0.950 . S
C1630 H1612 0.951 . S
C1630 C1631 1.366 . S
C1630 C1632 1.388 . S
C1631 C1630 1.366 . S
C1631 C1635 1.385 . S
C1632 H1613 0.951 . S
C1632 C1630 1.388 . S
C1632 C1633 1.366 . S
C1633 C1632 1.366 . S
C1633 C1634 1.414 . S
C1633 C1636 1.499 . S
C1634 H1614 0.950 . S
C1634 C1633 1.414 . S
C1634 C1635 1.374 . S
C1635 H1615 0.950 . S
C1635 C1631 1.385 . S
C1635 C1634 1.374 . S
C1636 C1633 1.499 . S
C1636 C1637 1.373 . S
C1636 C1638 1.389 . S
C1637 H1616 0.950 . S
C1637 C1636 1.373 . S
C1637 C1653 1.377 1_655 S
C1638 C1636 1.389 . S
C1638 C1639 1.524 . S
C1638 C1652 1.377 1_655 S
C1639 C1638 1.524 . S
C1639 C1640 1.397 . S
C1639 C1644 1.363 . S
C1640 H1617 0.950 . S
C1640 C1639 1.397 . S
C1640 C1641 1.334 . S
C1641 H1618 0.950 . S
C1641 C1640 1.334 . S
C1641 C1642 1.287 . S
C1642 C1641 1.287 . S
C1642 C1643 1.524 . S
C1642 H1661 0.913 . S
C1643 H1619 0.950 . S
C1643 C1642 1.524 . S
C1643 C1644 1.415 . S
C1644 H1620 0.950 . S
C1644 C1639 1.363 . S
C1644 C1643 1.415 . S
C1645 H1621 0.951 . S
C1645 C1646 1.366 . S
C1645 C1647 1.388 . S
C1646 C1645 1.366 . S
C1646 C1650 1.385 . S
C1647 H1622 0.951 . S
C1647 C1645 1.388 . S
C1647 C1648 1.366 . S
C1648 C1647 1.366 . S
C1648 C1649 1.414 . S
C1648 C1651 1.499 . S
C1649 H1623 0.950 . S
C1649 C1648 1.414 . S
C1649 C1650 1.374 . S
C1650 H1624 0.950 . S
C1650 C1646 1.385 . S
C1650 C1649 1.374 . S
C1651 C1648 1.499 . S
C1651 C1652 1.373 . S
C1651 C1653 1.389 . S
C1652 H1625 0.950 . S
C1652 C1638 1.377 1_455 S
C1652 C1651 1.373 . S
C1653 C1637 1.377 1_455 S
C1653 C1651 1.389 . S
C1653 C1654 1.524 . S
C1654 C1653 1.524 . S
C1654 C1655 1.397 . S
C1654 C1659 1.363 . S
C1655 H1626 0.950 . S
C1655 C1654 1.397 . S
C1655 C1656 1.334 . S
C1656 H1627 0.950 . S
C1656 C1655 1.334 . S
C1656 C1657 1.287 . S
C1657 C1656 1.287 . S
C1657 C1658 1.524 . S
C1657 H1660 0.999 . S
C1658 H1628 0.950 . S
C1658 C1657 1.524 . S
C1658 C1659 1.415 . S
C1659 H1629 0.950 . S
C1659 C1654 1.363 . S
C1659 C1658 1.415 . S
H1660 C1657 0.999 . S
H1661 C1642 0.913 . S
H1662 C1680 0.951 . S
H1663 C1682 0.951 . S
H1664 C1684 0.950 . S
H1665 C1685 0.950 . S
H1666 C1687 0.950 . S
H1667 C1690 0.950 . S
H1668 C1691 0.950 . S
H1669 C1693 0.950 . S
H1670 C1694 0.950 . S
H1671 C1695 0.951 . S
H1672 C1697 0.951 . S
H1673 C1699 0.950 . S
H1674 C1700 0.950 . S
H1675 C1702 0.950 . S
H1676 C1705 0.950 . S
H1677 C1706 0.950 . S
H1678 C1708 0.950 . S
H1679 C1709 0.950 . S
C1680 H1662 0.951 . S
C1680 C1681 1.366 . S
C1680 C1682 1.388 . S
C1681 C1680 1.366 . S
C1681 C1685 1.385 . S
C1682 H1663 0.951 . S
C1682 C1680 1.388 . S
C1682 C1683 1.366 . S
C1683 C1682 1.366 . S
C1683 C1684 1.414 . S
C1683 C1686 1.499 . S
C1684 H1664 0.950 . S
C1684 C1683 1.414 . S
C1684 C1685 1.374 . S
C1685 H1665 0.950 . S
C1685 C1681 1.385 . S
C1685 C1684 1.374 . S
C1686 C1683 1.499 . S
C1686 C1687 1.373 . S
C1686 C1688 1.389 . S
C1687 H1666 0.950 . S
C1687 C1686 1.373 . S
C1687 C1703 1.377 1_545 S
C1688 C1686 1.389 . S
C1688 C1689 1.524 . S
C1688 C1702 1.377 1_545 S
C1689 C1688 1.524 . S
C1689 C1690 1.397 . S
C1689 C1694 1.363 . S
C1690 H1667 0.950 . S
C1690 C1689 1.397 . S
C1690 C1691 1.334 . S
C1691 H1668 0.950 . S
C1691 C1690 1.334 . S
C1691 C1692 1.287 . S
C1692 C1691 1.287 . S
C1692 C1693 1.524 . S
C1692 H1711 0.913 . S
C1693 H1669 0.950 . S
C1693 C1692 1.524 . S
C1693 C1694 1.415 . S
C1694 H1670 0.950 . S
C1694 C1689 1.363 . S
C1694 C1693 1.415 . S
C1695 H1671 0.951 . S
C1695 C1696 1.366 . S
C1695 C1697 1.388 . S
C1696 C1695 1.366 . S
C1696 C1700 1.385 . S
C1697 H1672 0.951 . S
C1697 C1695 1.388 . S
C1697 C1698 1.366 . S
C1698 C1697 1.366 . S
C1698 C1699 1.414 . S
C1698 C1701 1.499 . S
C1699 H1673 0.950 . S
C1699 C1698 1.414 . S
C1699 C1700 1.374 . S
C1700 H1674 0.950 . S
C1700 C1696 1.385 . S
C1700 C1699 1.374 . S
C1701 C1698 1.499 . S
C1701 C1702 1.373 . S
C1701 C1703 1.389 . S
C1702 H1675 0.950 . S
C1702 C1688 1.377 1_565 S
C1702 C1701 1.373 . S
C1703 C1687 1.377 1_565 S
C1703 C1701 1.389 . S
C1703 C1704 1.524 . S
C1704 C1703 1.524 . S
C1704 C1705 1.397 . S
C1704 C1709 1.363 . S
C1705 H1676 0.950 . S
C1705 C1704 1.397 . S
C1705 C1706 1.334 . S
C1706 H1677 0.950 . S
C1706 C1705 1.334 . S
C1706 C1707 1.287 . S
C1707 C1706 1.287 . S
C1707 C1708 1.524 . S
C1707 H1710 0.999 . S
C1708 H1678 0.950 . S
C1708 C1707 1.524 . S
C1708 C1709 1.415 . S
C1709 H1679 0.950 . S
C1709 C1704 1.363 . S
C1709 C1708 1.415 . S
H1710 C1707 0.999 . S
H1711 C1692 0.913 . S
H1712 C1730 0.951 . S
H1713 C1732 0.951 . S
H1714 C1734 0.950 . S
H1715 C1735 0.950 . S
H1716 C1737 0.950 . S
H1717 C1740 0.950 . S
H1718 C1741 0.950 . S
H1719 C1743 0.950 . S
H1720 C1744 0.950 . S
H1721 C1745 0.951 . S
H1722 C1747 0.951 . S
H1723 C1749 0.950 . S
H1724 C1750 0.950 . S
H1725 C1752 0.950 . S
H1726 C1755 0.950 . S
H1727 C1756 0.950 . S
H1728 C1758 0.950 . S
H1729 C1759 0.950 . S
C1730 H1712 0.951 . S
C1730 C1731 1.366 . S
C1730 C1732 1.388 . S
C1731 C1730 1.366 . S
C1731 C1735 1.385 . S
C1732 H1713 0.951 . S
C1732 C1730 1.388 . S
C1732 C1733 1.366 . S
C1733 C1732 1.366 . S
C1733 C1734 1.414 . S
C1733 C1736 1.499 . S
C1734 H1714 0.950 . S
C1734 C1733 1.414 . S
C1734 C1735 1.374 . S
C1735 H1715 0.950 . S
C1735 C1731 1.385 . S
C1735 C1734 1.374 . S
C1736 C1733 1.499 . S
C1736 C1737 1.373 . S
C1736 C1738 1.389 . S
C1737 H1716 0.950 . S
C1737 C1736 1.373 . S
C1737 C1753 1.377 1_565 S
C1738 C1736 1.389 . S
C1738 C1739 1.524 . S
C1738 C1752 1.377 1_565 S
C1739 C1738 1.524 . S
C1739 C1740 1.397 . S
C1739 C1744 1.363 . S
C1740 H1717 0.950 . S
C1740 C1739 1.397 . S
C1740 C1741 1.334 . S
C1741 H1718 0.950 . S
C1741 C1740 1.334 . S
C1741 C1742 1.287 . S
C1742 C1741 1.287 . S
C1742 C1743 1.524 . S
C1742 H1761 0.913 . S
C1743 H1719 0.950 . S
C1743 C1742 1.524 . S
C1743 C1744 1.415 . S
C1744 H1720 0.950 . S
C1744 C1739 1.363 . S
C1744 C1743 1.415 . S
C1745 H1721 0.951 . S
C1745 C1746 1.366 . S
C1745 C1747 1.388 . S
C1746 C1745 1.366 . S
C1746 C1750 1.385 . S
C1747 H1722 0.951 . S
C1747 C1745 1.388 . S
C1747 C1748 1.366 . S
C1748 C1747 1.366 . S
C1748 C1749 1.414 . S
C1748 C1751 1.499 . S
C1749 H1723 0.950 . S
C1749 C1748 1.414 . S
C1749 C1750 1.374 . S
C1750 H1724 0.950 . S
C1750 C1746 1.385 . S
C1750 C1749 1.374 . S
C1751 C1748 1.499 . S
C1751 C1752 1.373 . S
C1751 C1753 1.389 . S
C1752 H1725 0.950 . S
C1752 C1738 1.377 1_545 S
C1752 C1751 1.373 . S
C1753 C1737 1.377 1_545 S
C1753 C1751 1.389 . S
C1753 C1754 1.524 . S
C1754 C1753 1.524 . S
C1754 C1755 1.397 . S
C1754 C1759 1.363 . S
C1755 H1726 0.950 . S
C1755 C1754 1.397 . S
C1755 C1756 1.334 . S
C1756 H1727 0.950 . S
C1756 C1755 1.334 . S
C1756 C1757 1.287 . S
C1757 C1756 1.287 . S
C1757 C1758 1.524 . S
C1757 H1760 0.999 . S
C1758 H1728 0.950 . S
C1758 C1757 1.524 . S
C1758 C1759 1.415 . S
C1759 H1729 0.950 . S
C1759 C1754 1.363 . S
C1759 C1758 1.415 . S
H1760 C1757 0.999 . S
H1761 C1742 0.913 . S
H1762 C1780 0.951 . S
H1763 C1782 0.951 . S
H1764 C1784 0.950 . S
H1765 C1785 0.950 . S
H1766 C1787 0.950 . S
H1767 C1790 0.950 . S
H1768 C1791 0.950 . S
H1769 C1793 0.950 . S
H1770 C1794 0.950 . S
H1771 C1795 0.951 . S
H1772 C1797 0.951 . S
H1773 C1799 0.950 . S
H1774 C1800 0.950 . S
H1775 C1802 0.950 . S
H1776 C1805 0.950 . S
H1777 C1806 0.950 . S
H1778 C1808 0.950 . S
H1779 C1809 0.950 . S
C1780 H1762 0.951 . S
C1780 C1781 1.366 . S
C1780 C1782 1.388 . S
C1781 C1780 1.366 . S
C1781 C1785 1.385 . S
C1782 H1763 0.951 . S
C1782 C1780 1.388 . S
C1782 C1783 1.366 . S
C1783 C1782 1.366 . S
C1783 C1784 1.414 . S
C1783 C1786 1.499 . S
C1784 H1764 0.950 . S
C1784 C1783 1.414 . S
C1784 C1785 1.374 . S
C1785 H1765 0.950 . S
C1785 C1781 1.385 . S
C1785 C1784 1.374 . S
C1786 C1783 1.499 . S
C1786 C1787 1.373 . S
C1786 C1788 1.389 . S
C1787 H1766 0.950 . S
C1787 C1786 1.373 . S
C1787 C1803 1.377 1_655 S
C1788 C1786 1.389 . S
C1788 C1789 1.524 . S
C1788 C1802 1.377 1_655 S
C1789 C1788 1.524 . S
C1789 C1790 1.397 . S
C1789 C1794 1.363 . S
C1790 H1767 0.950 . S
C1790 C1789 1.397 . S
C1790 C1791 1.334 . S
C1791 H1768 0.950 . S
C1791 C1790 1.334 . S
C1791 C1792 1.287 . S
C1792 C1791 1.287 . S
C1792 C1793 1.524 . S
C1792 H1811 0.913 . S
C1793 H1769 0.950 . S
C1793 C1792 1.524 . S
C1793 C1794 1.415 . S
C1794 H1770 0.950 . S
C1794 C1789 1.363 . S
C1794 C1793 1.415 . S
C1795 H1771 0.951 . S
C1795 C1796 1.366 . S
C1795 C1797 1.388 . S
C1796 C1795 1.366 . S
C1796 C1800 1.385 . S
C1797 H1772 0.951 . S
C1797 C1795 1.388 . S
C1797 C1798 1.366 . S
C1798 C1797 1.366 . S
C1798 C1799 1.414 . S
C1798 C1801 1.499 . S
C1799 H1773 0.950 . S
C1799 C1798 1.414 . S
C1799 C1800 1.374 . S
C1800 H1774 0.950 . S
C1800 C1796 1.385 . S
C1800 C1799 1.374 . S
C1801 C1798 1.499 . S
C1801 C1802 1.373 . S
C1801 C1803 1.389 . S
C1802 H1775 0.950 . S
C1802 C1788 1.377 1_455 S
C1802 C1801 1.373 . S
C1803 C1787 1.377 1_455 S
C1803 C1801 1.389 . S
C1803 C1804 1.524 . S
C1804 C1803 1.524 . S
C1804 C1805 1.397 . S
C1804 C1809 1.363 . S
C1805 H1776 0.950 . S
C1805 C1804 1.397 . S
C1805 C1806 1.334 . S
C1806 H1777 0.950 . S
C1806 C1805 1.334 . S
C1806 C1807 1.287 . S
C1807 C1806 1.287 . S
C1807 C1808 1.524 . S
C1807 H1810 0.999 . S
C1808 H1778 0.950 . S
C1808 C1807 1.524 . S
C1808 C1809 1.415 . S
C1809 H1779 0.950 . S
C1809 C1804 1.363 . S
C1809 C1808 1.415 . S
H1810 C1807 0.999 . S
H1811 C1792 0.913 . S
H1812 C1830 0.951 . S
H1813 C1832 0.951 . S
H1814 C1834 0.950 . S
H1815 C1835 0.950 . S
H1816 C1837 0.950 . S
H1817 C1840 0.950 . S
H1818 C1841 0.950 . S
H1819 C1843 0.950 . S
H1820 C1844 0.950 . S
H1821 C1845 0.951 . S
H1822 C1847 0.951 . S
H1823 C1849 0.950 . S
H1824 C1850 0.950 . S
H1825 C1852 0.950 . S
H1826 C1855 0.950 . S
H1827 C1856 0.950 . S
H1828 C1858 0.950 . S
H1829 C1859 0.950 . S
C1830 H1812 0.951 . S
C1830 C1831 1.366 . S
C1830 C1832 1.388 . S
C1831 C1830 1.366 . S
C1831 C1835 1.385 . S
C1832 H1813 0.951 . S
C1832 C1830 1.388 . S
C1832 C1833 1.366 . S
C1833 C1832 1.366 . S
C1833 C1834 1.414 . S
C1833 C1836 1.499 . S
C1834 H1814 0.950 . S
C1834 C1833 1.414 . S
C1834 C1835 1.374 . S
C1835 H1815 0.950 . S
C1835 C1831 1.385 . S
C1835 C1834 1.374 . S
C1836 C1833 1.499 . S
C1836 C1837 1.373 . S
C1836 C1838 1.389 . S
C1837 H1816 0.950 . S
C1837 C1836 1.373 . S
C1837 C1853 1.377 1_565 S
C1838 C1836 1.389 . S
C1838 C1839 1.524 . S
C1838 C1852 1.377 1_565 S
C1839 C1838 1.524 . S
C1839 C1840 1.397 . S
C1839 C1844 1.363 . S
C1840 H1817 0.950 . S
C1840 C1839 1.397 . S
C1840 C1841 1.334 . S
C1841 H1818 0.950 . S
C1841 C1840 1.334 . S
C1841 C1842 1.287 . S
C1842 C1841 1.287 . S
C1842 C1843 1.524 . S
C1842 H1861 0.913 . S
C1843 H1819 0.950 . S
C1843 C1842 1.524 . S
C1843 C1844 1.415 . S
C1844 H1820 0.950 . S
C1844 C1839 1.363 . S
C1844 C1843 1.415 . S
C1845 H1821 0.951 . S
C1845 C1846 1.366 . S
C1845 C1847 1.388 . S
C1846 C1845 1.366 . S
C1846 C1850 1.385 . S
C1847 H1822 0.951 . S
C1847 C1845 1.388 . S
C1847 C1848 1.366 . S
C1848 C1847 1.366 . S
C1848 C1849 1.414 . S
C1848 C1851 1.499 . S
C1849 H1823 0.950 . S
C1849 C1848 1.414 . S
C1849 C1850 1.374 . S
C1850 H1824 0.950 . S
C1850 C1846 1.385 . S
C1850 C1849 1.374 . S
C1851 C1848 1.499 . S
C1851 C1852 1.373 . S
C1851 C1853 1.389 . S
C1852 H1825 0.950 . S
C1852 C1838 1.377 1_545 S
C1852 C1851 1.373 . S
C1853 C1837 1.377 1_545 S
C1853 C1851 1.389 . S
C1853 C1854 1.524 . S
C1854 C1853 1.524 . S
C1854 C1855 1.397 . S
C1854 C1859 1.363 . S
C1855 H1826 0.950 . S
C1855 C1854 1.397 . S
C1855 C1856 1.334 . S
C1856 H1827 0.950 . S
C1856 C1855 1.334 . S
C1856 C1857 1.287 . S
C1857 C1856 1.287 . S
C1857 C1858 1.524 . S
C1857 H1860 0.999 . S
C1858 H1828 0.950 . S
C1858 C1857 1.524 . S
C1858 C1859 1.415 . S
C1859 H1829 0.950 . S
C1859 C1854 1.363 . S
C1859 C1858 1.415 . S
H1860 C1857 0.999 . S
H1861 C1842 0.913 . S
H1862 C1880 0.951 . S
H1863 C1882 0.951 . S
H1864 C1884 0.950 . S
H1865 C1885 0.950 . S
H1866 C1887 0.950 . S
H1867 C1890 0.950 . S
H1868 C1891 0.950 . S
H1869 C1893 0.950 . S
H1870 C1894 0.950 . S
H1871 C1895 0.951 . S
H1872 C1897 0.951 . S
H1873 C1899 0.950 . S
H1874 C1900 0.950 . S
H1875 C1902 0.950 . S
H1876 C1905 0.950 . S
H1877 C1906 0.950 . S
H1878 C1908 0.950 . S
H1879 C1909 0.950 . S
C1880 H1862 0.951 . S
C1880 C1881 1.366 . S
C1880 C1882 1.388 . S
C1881 C1880 1.366 . S
C1881 C1885 1.385 . S
C1882 H1863 0.951 . S
C1882 C1880 1.388 . S
C1882 C1883 1.366 . S
C1883 C1882 1.366 . S
C1883 C1884 1.414 . S
C1883 C1886 1.499 . S
C1884 H1864 0.950 . S
C1884 C1883 1.414 . S
C1884 C1885 1.374 . S
C1885 H1865 0.950 . S
C1885 C1881 1.385 . S
C1885 C1884 1.374 . S
C1886 C1883 1.499 . S
C1886 C1887 1.373 . S
C1886 C1888 1.389 . S
C1887 H1866 0.950 . S
C1887 C1886 1.373 . S
C1887 C1903 1.377 1_655 S
C1888 C1886 1.389 . S
C1888 C1889 1.524 . S
C1888 C1902 1.377 1_655 S
C1889 C1888 1.524 . S
C1889 C1890 1.397 . S
C1889 C1894 1.363 . S
C1890 H1867 0.950 . S
C1890 C1889 1.397 . S
C1890 C1891 1.334 . S
C1891 H1868 0.950 . S
C1891 C1890 1.334 . S
C1891 C1892 1.287 . S
C1892 C1891 1.287 . S
C1892 C1893 1.524 . S
C1892 H1911 0.913 . S
C1893 H1869 0.950 . S
C1893 C1892 1.524 . S
C1893 C1894 1.415 . S
C1894 H1870 0.950 . S
C1894 C1889 1.363 . S
C1894 C1893 1.415 . S
C1895 H1871 0.951 . S
C1895 C1896 1.366 . S
C1895 C1897 1.388 . S
C1896 C1895 1.366 . S
C1896 C1900 1.385 . S
C1897 H1872 0.951 . S
C1897 C1895 1.388 . S
C1897 C1898 1.366 . S
C1898 C1897 1.366 . S
C1898 C1899 1.414 . S
C1898 C1901 1.499 . S
C1899 H1873 0.950 . S
C1899 C1898 1.414 . S
C1899 C1900 1.374 . S
C1900 H1874 0.950 . S
C1900 C1896 1.385 . S
C1900 C1899 1.374 . S
C1901 C1898 1.499 . S
C1901 C1902 1.373 . S
C1901 C1903 1.389 . S
C1902 H1875 0.950 . S
C1902 C1888 1.377 1_455 S
C1902 C1901 1.373 . S
C1903 C1887 1.377 1_455 S
C1903 C1901 1.389 . S
C1903 C1904 1.524 . S
C1904 C1903 1.524 . S
C1904 C1905 1.397 . S
C1904 C1909 1.363 . S
C1905 H1876 0.950 . S
C1905 C1904 1.397 . S
C1905 C1906 1.334 . S
C1906 H1877 0.950 . S
C1906 C1905 1.334 . S
C1906 C1907 1.287 . S
C1907 C1906 1.287 . S
C1907 C1908 1.524 . S
C1907 H1910 0.999 . S
C1908 H1878 0.950 . S
C1908 C1907 1.524 . S
C1908 C1909 1.415 . S
C1909 H1879 0.950 . S
C1909 C1904 1.363 . S
C1909 C1908 1.415 . S
H1910 C1907 0.999 . S
H1911 C1892 0.913 . S
H1912 C1930 0.951 . S
H1913 C1932 0.951 . S
H1914 C1934 0.950 . S
H1915 C1935 0.950 . S
H1916 C1937 0.950 . S
H1917 C1940 0.950 . S
H1918 C1941 0.950 . S
H1919 C1943 0.950 . S
H1920 C1944 0.950 . S
H1921 C1945 0.951 . S
H1922 C1947 0.951 . S
H1923 C1949 0.950 . S
H1924 C1950 0.950 . S
H1925 C1952 0.950 . S
H1926 C1955 0.950 . S
H1927 C1956 0.950 . S
H1928 C1958 0.950 . S
H1929 C1959 0.950 . S
C1930 H1912 0.951 . S
C1930 C1931 1.366 . S
C1930 C1932 1.388 . S
C1931 C1930 1.366 . S
C1931 C1935 1.385 . S
C1932 H1913 0.951 . S
C1932 C1930 1.388 . S
C1932 C1933 1.366 . S
C1933 C1932 1.366 . S
C1933 C1934 1.414 . S
C1933 C1936 1.499 . S
C1934 H1914 0.950 . S
C1934 C1933 1.414 . S
C1934 C1935 1.374 . S
C1935 H1915 0.950 . S
C1935 C1931 1.385 . S
C1935 C1934 1.374 . S
C1936 C1933 1.499 . S
C1936 C1937 1.373 . S
C1936 C1938 1.389 . S
C1937 H1916 0.950 . S
C1937 C1936 1.373 . S
C1937 C1953 1.377 1_556 S
C1938 C1936 1.389 . S
C1938 C1939 1.524 . S
C1938 C1952 1.377 1_556 S
C1939 C1938 1.524 . S
C1939 C1940 1.397 . S
C1939 C1944 1.363 . S
C1940 H1917 0.950 . S
C1940 C1939 1.397 . S
C1940 C1941 1.334 . S
C1941 H1918 0.950 . S
C1941 C1940 1.334 . S
C1941 C1942 1.287 . S
C1942 C1941 1.287 . S
C1942 C1943 1.524 . S
C1942 H1961 0.913 . S
C1943 H1919 0.950 . S
C1943 C1942 1.524 . S
C1943 C1944 1.415 . S
C1944 H1920 0.950 . S
C1944 C1939 1.363 . S
C1944 C1943 1.415 . S
C1945 H1921 0.951 . S
C1945 C1946 1.366 . S
C1945 C1947 1.388 . S
C1946 C1945 1.366 . S
C1946 C1950 1.385 . S
C1947 H1922 0.951 . S
C1947 C1945 1.388 . S
C1947 C1948 1.366 . S
C1948 C1947 1.366 . S
C1948 C1949 1.414 . S
C1948 C1951 1.499 . S
C1949 H1923 0.950 . S
C1949 C1948 1.414 . S
C1949 C1950 1.374 . S
C1950 H1924 0.950 . S
C1950 C1946 1.385 . S
C1950 C1949 1.374 . S
C1951 C1948 1.499 . S
C1951 C1952 1.373 . S
C1951 C1953 1.389 . S
C1952 H1925 0.950 . S
C1952 C1938 1.377 1_554 S
C1952 C1951 1.373 . S
C1953 C1937 1.377 1_554 S
C1953 C1951 1.389 . S
C1953 C1954 1.524 . S
C1954 C1953 1.524 . S
C1954 C1955 1.397 . S
C1954 C1959 1.363 . S
C1955 H1926 0.950 . S
C1955 C1954 1.397 . S
C1955 C1956 1.334 . S
C1956 H1927 0.950 . S
C1956 C1955 1.334 . S
C1956 C1957 1.287 . S
C1957 C1956 1.287 . S
C1957 C1958 1.524 . S
C1957 H1960 0.999 . S
C1958 H1928 0.950 . S
C1958 C1957 1.524 . S
C1958 C1959 1.415 . S
C1959 H1929 0.950 . S
C1959 C1954 1.363 . S
C1959 C1958 1.415 . S
H1960 C1957 0.999 . S
H1961 C1942 0.913 . S
H1962 C1980 0.951 . S
H1963 C1982 0.951 . S
H1964 C1984 0.950 . S
H1965 C1985 0.950 . S
H1966 C1987 0.950 . S
H1967 C1990 0.950 . S
H1968 C1991 0.950 . S
H1969 C1993 0.950 . S
H1970 C1994 0.950 . S
H1971 C1995 0.951 . S
H1972 C1997 0.951 . S
H1973 C1999 0.950 . S
H1974 C2000 0.950 . S
H1975 C2002 0.950 . S
H1976 C2005 0.950 . S
H1977 C2006 0.950 . S
H1978 C2008 0.950 . S
H1979 C2009 0.950 . S
C1980 H1962 0.951 . S
C1980 C1981 1.366 . S
C1980 C1982 1.388 . S
C1981 C1980 1.366 . S
C1981 C1985 1.385 . S
C1982 H1963 0.951 . S
C1982 C1980 1.388 . S
C1982 C1983 1.366 . S
C1983 C1982 1.366 . S
C1983 C1984 1.414 . S
C1983 C1986 1.499 . S
C1984 H1964 0.950 . S
C1984 C1983 1.414 . S
C1984 C1985 1.374 . S
C1985 H1965 0.950 . S
C1985 C1981 1.385 . S
C1985 C1984 1.374 . S
C1986 C1983 1.499 . S
C1986 C1987 1.373 . S
C1986 C1988 1.389 . S
C1987 H1966 0.950 . S
C1987 C1986 1.373 . S
C1987 C2003 1.377 1_556 S
C1988 C1986 1.389 . S
C1988 C1989 1.524 . S
C1988 C2002 1.377 1_556 S
C1989 C1988 1.524 . S
C1989 C1990 1.397 . S
C1989 C1994 1.363 . S
C1990 H1967 0.950 . S
C1990 C1989 1.397 . S
C1990 C1991 1.334 . S
C1991 H1968 0.950 . S
C1991 C1990 1.334 . S
C1991 C1992 1.287 . S
C1992 C1991 1.287 . S
C1992 C1993 1.524 . S
C1992 H2011 0.913 . S
C1993 H1969 0.950 . S
C1993 C1992 1.524 . S
C1993 C1994 1.415 . S
C1994 H1970 0.950 . S
C1994 C1989 1.363 . S
C1994 C1993 1.415 . S
C1995 H1971 0.951 . S
C1995 C1996 1.366 . S
C1995 C1997 1.388 . S
C1996 C1995 1.366 . S
C1996 C2000 1.385 . S
C1997 H1972 0.951 . S
C1997 C1995 1.388 . S
C1997 C1998 1.366 . S
C1998 C1997 1.366 . S
C1998 C1999 1.414 . S
C1998 C2001 1.499 . S
C1999 H1973 0.950 . S
C1999 C1998 1.414 . S
C1999 C2000 1.374 . S
C2000 H1974 0.950 . S
C2000 C1996 1.385 . S
C2000 C1999 1.374 . S
C2001 C1998 1.499 . S
C2001 C2002 1.373 . S
C2001 C2003 1.389 . S
C2002 H1975 0.950 . S
C2002 C1988 1.377 1_554 S
C2002 C2001 1.373 . S
C2003 C1987 1.377 1_554 S
C2003 C2001 1.389 . S
C2003 C2004 1.524 . S
C2004 C2003 1.524 . S
C2004 C2005 1.397 . S
C2004 C2009 1.363 . S
C2005 H1976 0.950 . S
C2005 C2004 1.397 . S
C2005 C2006 1.334 . S
C2006 H1977 0.950 . S
C2006 C2005 1.334 . S
C2006 C2007 1.287 . S
C2007 C2006 1.287 . S
C2007 C2008 1.524 . S
C2007 H2010 0.999 . S
C2008 H1978 0.950 . S
C2008 C2007 1.524 . S
C2008 C2009 1.415 . S
C2009 H1979 0.950 . S
C2009 C2004 1.363 . S
C2009 C2008 1.415 . S
H2010 C2007 0.999 . S
H2011 C1992 0.913 . S
H2012 C2030 0.951 . S
H2013 C2032 0.951 . S
H2014 C2034 0.950 . S
H2015 C2035 0.950 . S
H2016 C2037 0.950 . S
H2017 C2040 0.950 . S
H2018 C2041 0.950 . S
H2019 C2043 0.950 . S
H2020 C2044 0.950 . S
H2021 C2045 0.951 . S
H2022 C2047 0.951 . S
H2023 C2049 0.950 . S
H2024 C2050 0.950 . S
H2025 C2052 0.950 . S
H2026 C2055 0.950 . S
H2027 C2056 0.950 . S
H2028 C2058 0.950 . S
H2029 C2059 0.950 . S
C2030 H2012 0.951 . S
C2030 C2031 1.366 . S
C2030 C2032 1.388 . S
C2031 C2030 1.366 . S
C2031 C2035 1.385 . S
C2032 H2013 0.951 . S
C2032 C2030 1.388 . S
C2032 C2033 1.366 . S
C2033 C2032 1.366 . S
C2033 C2034 1.414 . S
C2033 C2036 1.499 . S
C2034 H2014 0.950 . S
C2034 C2033 1.414 . S
C2034 C2035 1.374 . S
C2035 H2015 0.950 . S
C2035 C2031 1.385 . S
C2035 C2034 1.374 . S
C2036 C2033 1.499 . S
C2036 C2037 1.373 . S
C2036 C2038 1.389 . S
C2037 H2016 0.950 . S
C2037 C2036 1.373 . S
C2037 C2053 1.377 1_556 S
C2038 C2036 1.389 . S
C2038 C2039 1.524 . S
C2038 C2052 1.377 1_556 S
C2039 C2038 1.524 . S
C2039 C2040 1.397 . S
C2039 C2044 1.363 . S
C2040 H2017 0.950 . S
C2040 C2039 1.397 . S
C2040 C2041 1.334 . S
C2041 H2018 0.950 . S
C2041 C2040 1.334 . S
C2041 C2042 1.287 . S
C2042 C2041 1.287 . S
C2042 C2043 1.524 . S
C2042 H2061 0.913 . S
C2043 H2019 0.950 . S
C2043 C2042 1.524 . S
C2043 C2044 1.415 . S
C2044 H2020 0.950 . S
C2044 C2039 1.363 . S
C2044 C2043 1.415 . S
C2045 H2021 0.951 . S
C2045 C2046 1.366 . S
C2045 C2047 1.388 . S
C2046 C2045 1.366 . S
C2046 C2050 1.385 . S
C2047 H2022 0.951 . S
C2047 C2045 1.388 . S
C2047 C2048 1.366 . S
C2048 C2047 1.366 . S
C2048 C2049 1.414 . S
C2048 C2051 1.499 . S
C2049 H2023 0.950 . S
C2049 C2048 1.414 . S
C2049 C2050 1.374 . S
C2050 H2024 0.950 . S
C2050 C2046 1.385 . S
C2050 C2049 1.374 . S
C2051 C2048 1.499 . S
C2051 C2052 1.373 . S
C2051 C2053 1.389 . S
C2052 H2025 0.950 . S
C2052 C2038 1.377 1_554 S
C2052 C2051 1.373 . S
C2053 C2037 1.377 1_554 S
C2053 C2051 1.389 . S
C2053 C2054 1.524 . S
C2054 C2053 1.524 . S
C2054 C2055 1.397 . S
C2054 C2059 1.363 . S
C2055 H2026 0.950 . S
C2055 C2054 1.397 . S
C2055 C2056 1.334 . S
C2056 H2027 0.950 . S
C2056 C2055 1.334 . S
C2056 C2057 1.287 . S
C2057 C2056 1.287 . S
C2057 C2058 1.524 . S
C2057 H2060 0.999 . S
C2058 H2028 0.950 . S
C2058 C2057 1.524 . S
C2058 C2059 1.415 . S
C2059 H2029 0.950 . S
C2059 C2054 1.363 . S
C2059 C2058 1.415 . S
H2060 C2057 0.999 . S
H2061 C2042 0.913 . S
H2062 C2080 0.951 . S
H2063 C2082 0.951 . S
H2064 C2084 0.950 . S
H2065 C2085 0.950 . S
H2066 C2087 0.950 . S
H2067 C2090 0.950 . S
H2068 C2091 0.950 . S
H2069 C2093 0.950 . S
H2070 C2094 0.950 . S
H2071 C2095 0.951 . S
H2072 C2097 0.951 . S
H2073 C2099 0.950 . S
H2074 C2100 0.950 . S
H2075 C2102 0.950 . S
H2076 C2105 0.950 . S
H2077 C2106 0.950 . S
H2078 C2108 0.950 . S
H2079 C2109 0.950 . S
C2080 H2062 0.951 . S
C2080 C2081 1.366 . S
C2080 C2082 1.388 . S
C2081 C2080 1.366 . S
C2081 C2085 1.385 . S
C2082 H2063 0.951 . S
C2082 C2080 1.388 . S
C2082 C2083 1.366 . S
C2083 C2082 1.366 . S
C2083 C2084 1.414 . S
C2083 C2086 1.499 . S
C2084 H2064 0.950 . S
C2084 C2083 1.414 . S
C2084 C2085 1.374 . S
C2085 H2065 0.950 . S
C2085 C2081 1.385 . S
C2085 C2084 1.374 . S
C2086 C2083 1.499 . S
C2086 C2087 1.373 . S
C2086 C2088 1.389 . S
C2087 H2066 0.950 . S
C2087 C2086 1.373 . S
C2087 C2103 1.377 1_556 S
C2088 C2086 1.389 . S
C2088 C2089 1.524 . S
C2088 C2102 1.377 1_556 S
C2089 C2088 1.524 . S
C2089 C2090 1.397 . S
C2089 C2094 1.363 . S
C2090 H2067 0.950 . S
C2090 C2089 1.397 . S
C2090 C2091 1.334 . S
C2091 H2068 0.950 . S
C2091 C2090 1.334 . S
C2091 C2092 1.287 . S
C2092 C2091 1.287 . S
C2092 C2093 1.524 . S
C2092 H2111 0.913 . S
C2093 H2069 0.950 . S
C2093 C2092 1.524 . S
C2093 C2094 1.415 . S
C2094 H2070 0.950 . S
C2094 C2089 1.363 . S
C2094 C2093 1.415 . S
C2095 H2071 0.951 . S
C2095 C2096 1.366 . S
C2095 C2097 1.388 . S
C2096 C2095 1.366 . S
C2096 C2100 1.385 . S
C2097 H2072 0.951 . S
C2097 C2095 1.388 . S
C2097 C2098 1.366 . S
C2098 C2097 1.366 . S
C2098 C2099 1.414 . S
C2098 C2101 1.499 . S
C2099 H2073 0.950 . S
C2099 C2098 1.414 . S
C2099 C2100 1.374 . S
C2100 H2074 0.950 . S
C2100 C2096 1.385 . S
C2100 C2099 1.374 . S
C2101 C2098 1.499 . S
C2101 C2102 1.373 . S
C2101 C2103 1.389 . S
C2102 H2075 0.950 . S
C2102 C2088 1.377 1_554 S
C2102 C2101 1.373 . S
C2103 C2087 1.377 1_554 S
C2103 C2101 1.389 . S
C2103 C2104 1.524 . S
C2104 C2103 1.524 . S
C2104 C2105 1.397 . S
C2104 C2109 1.363 . S
C2105 H2076 0.950 . S
C2105 C2104 1.397 . S
C2105 C2106 1.334 . S
C2106 H2077 0.950 . S
C2106 C2105 1.334 . S
C2106 C2107 1.287 . S
C2107 C2106 1.287 . S
C2107 C2108 1.524 . S
C2107 H2110 0.999 . S
C2108 H2078 0.950 . S
C2108 C2107 1.524 . S
C2108 C2109 1.415 . S
C2109 H2079 0.950 . S
C2109 C2104 1.363 . S
C2109 C2108 1.415 . S
H2110 C2107 0.999 . S
H2111 C2092 0.913 . S
H2112 C2130 0.951 . S
H2113 C2132 0.951 . S
H2114 C2134 0.950 . S
H2115 C2135 0.950 . S
H2116 C2137 0.950 . S
H2117 C2140 0.950 . S
H2118 C2141 0.950 . S
H2119 C2143 0.950 . S
H2120 C2144 0.950 . S
H2121 C2145 0.951 . S
H2122 C2147 0.951 . S
H2123 C2149 0.950 . S
H2124 C2150 0.950 . S
H2125 C2152 0.950 . S
H2126 C2155 0.950 . S
H2127 C2156 0.950 . S
H2128 C2158 0.950 . S
H2129 C2159 0.950 . S
C2130 H2112 0.951 . S
C2130 C2131 1.366 . S
C2130 C2132 1.388 . S
C2131 C2130 1.366 . S
C2131 C2135 1.385 . S
C2132 H2113 0.951 . S
C2132 C2130 1.388 . S
C2132 C2133 1.366 . S
C2133 C2132 1.366 . S
C2133 C2134 1.414 . S
C2133 C2136 1.499 . S
C2134 H2114 0.950 . S
C2134 C2133 1.414 . S
C2134 C2135 1.374 . S
C2135 H2115 0.950 . S
C2135 C2131 1.385 . S
C2135 C2134 1.374 . S
C2136 C2133 1.499 . S
C2136 C2137 1.373 . S
C2136 C2138 1.389 . S
C2137 H2116 0.950 . S
C2137 C2136 1.373 . S
C2137 C2153 1.377 . S
C2138 C2136 1.389 . S
C2138 C2139 1.524 . S
C2138 C2152 1.377 . S
C2139 C2138 1.524 . S
C2139 C2140 1.397 . S
C2139 C2144 1.363 . S
C2140 H2117 0.950 . S
C2140 C2139 1.397 . S
C2140 C2141 1.334 . S
C2141 H2118 0.950 . S
C2141 C2140 1.334 . S
C2141 C2142 1.287 . S
C2142 C2141 1.287 . S
C2142 C2143 1.524 . S
C2142 H2161 0.913 . S
C2143 H2119 0.950 . S
C2143 C2142 1.524 . S
C2143 C2144 1.415 . S
C2144 H2120 0.950 . S
C2144 C2139 1.363 . S
C2144 C2143 1.415 . S
C2145 H2121 0.951 . S
C2145 C2146 1.366 . S
C2145 C2147 1.388 . S
C2146 C2145 1.366 . S
C2146 C2150 1.385 . S
C2147 H2122 0.951 . S
C2147 C2145 1.388 . S
C2147 C2148 1.366 . S
C2148 C2147 1.366 . S
C2148 C2149 1.414 . S
C2148 C2151 1.499 . S
C2149 H2123 0.950 . S
C2149 C2148 1.414 . S
C2149 C2150 1.374 . S
C2150 H2124 0.950 . S
C2150 C2146 1.385 . S
C2150 C2149 1.374 . S
C2151 C2148 1.499 . S
C2151 C2152 1.373 . S
C2151 C2153 1.389 . S
C2152 H2125 0.950 . S
C2152 C2138 1.377 . S
C2152 C2151 1.373 . S
C2153 C2137 1.377 . S
C2153 C2151 1.389 . S
C2153 C2154 1.524 . S
C2154 C2153 1.524 . S
C2154 C2155 1.397 . S
C2154 C2159 1.363 . S
C2155 H2126 0.950 . S
C2155 C2154 1.397 . S
C2155 C2156 1.334 . S
C2156 H2127 0.950 . S
C2156 C2155 1.334 . S
C2156 C2157 1.287 . S
C2157 C2156 1.287 . S
C2157 C2158 1.524 . S
C2157 H2160 0.999 . S
C2158 H2128 0.950 . S
C2158 C2157 1.524 . S
C2158 C2159 1.415 . S
C2159 H2129 0.950 . S
C2159 C2154 1.363 . S
C2159 C2158 1.415 . S
H2160 C2157 0.999 . S
H2161 C2142 0.913 . S
H2162 C2180 0.951 . S
H2163 C2182 0.951 . S
H2164 C2184 0.950 . S
H2165 C2185 0.950 . S
H2166 C2187 0.950 . S
H2167 C2190 0.950 . S
H2168 C2191 0.950 . S
H2169 C2193 0.950 . S
H2170 C2194 0.950 . S
H2171 C2195 0.951 . S
H2172 C2197 0.951 . S
H2173 C2199 0.950 . S
H2174 C2200 0.950 . S
H2175 C2202 0.950 . S
H2176 C2205 0.950 . S
H2177 C2206 0.950 . S
H2178 C2208 0.950 . S
H2179 C2209 0.950 . S
C2180 H2162 0.951 . S
C2180 C2181 1.366 . S
C2180 C2182 1.388 . S
C2181 C2180 1.366 . S
C2181 C2185 1.385 . S
C2182 H2163 0.951 . S
C2182 C2180 1.388 . S
C2182 C2183 1.366 . S
C2183 C2182 1.366 . S
C2183 C2184 1.414 . S
C2183 C2186 1.499 . S
C2184 H2164 0.950 . S
C2184 C2183 1.414 . S
C2184 C2185 1.374 . S
C2185 H2165 0.950 . S
C2185 C2181 1.385 . S
C2185 C2184 1.374 . S
C2186 C2183 1.499 . S
C2186 C2187 1.373 . S
C2186 C2188 1.389 . S
C2187 H2166 0.950 . S
C2187 C2186 1.373 . S
C2187 C2203 1.377 . S
C2188 C2186 1.389 . S
C2188 C2189 1.524 . S
C2188 C2202 1.377 . S
C2189 C2188 1.524 . S
C2189 C2190 1.397 . S
C2189 C2194 1.363 . S
C2190 H2167 0.950 . S
C2190 C2189 1.397 . S
C2190 C2191 1.334 . S
C2191 H2168 0.950 . S
C2191 C2190 1.334 . S
C2191 C2192 1.287 . S
C2192 C2191 1.287 . S
C2192 C2193 1.524 . S
C2192 H2211 0.913 . S
C2193 H2169 0.950 . S
C2193 C2192 1.524 . S
C2193 C2194 1.415 . S
C2194 H2170 0.950 . S
C2194 C2189 1.363 . S
C2194 C2193 1.415 . S
C2195 H2171 0.951 . S
C2195 C2196 1.366 . S
C2195 C2197 1.388 . S
C2196 C2195 1.366 . S
C2196 C2200 1.385 . S
C2197 H2172 0.951 . S
C2197 C2195 1.388 . S
C2197 C2198 1.366 . S
C2198 C2197 1.366 . S
C2198 C2199 1.414 . S
C2198 C2201 1.499 . S
C2199 H2173 0.950 . S
C2199 C2198 1.414 . S
C2199 C2200 1.374 . S
C2200 H2174 0.950 . S
C2200 C2196 1.385 . S
C2200 C2199 1.374 . S
C2201 C2198 1.499 . S
C2201 C2202 1.373 . S
C2201 C2203 1.389 . S
C2202 H2175 0.950 . S
C2202 C2188 1.377 . S
C2202 C2201 1.373 . S
C2203 C2187 1.377 . S
C2203 C2201 1.389 . S
C2203 C2204 1.524 . S
C2204 C2203 1.524 . S
C2204 C2205 1.397 . S
C2204 C2209 1.363 . S
C2205 H2176 0.950 . S
C2205 C2204 1.397 . S
C2205 C2206 1.334 . S
C2206 H2177 0.950 . S
C2206 C2205 1.334 . S
C2206 C2207 1.287 . S
C2207 C2206 1.287 . S
C2207 C2208 1.524 . S
C2207 H2210 0.999 . S
C2208 H2178 0.950 . S
C2208 C2207 1.524 . S
C2208 C2209 1.415 . S
C2209 H2179 0.950 . S
C2209 C2204 1.363 . S
C2209 C2208 1.415 . S
H2210 C2207 0.999 . S
H2211 C2192 0.913 . S
H2212 C2230 0.951 . S
H2213 C2232 0.951 . S
H2214 C2234 0.950 . S
H2215 C2235 0.950 . S
H2216 C2237 0.950 . S
H2217 C2240 0.950 . S
H2218 C2241 0.950 . S
H2219 C2243 0.950 . S
H2220 C2244 0.950 . S
H2221 C2245 0.951 . S
H2222 C2247 0.951 . S
H2223 C2249 0.950 . S
H2224 C2250 0.950 . S
H2225 C2252 0.950 . S
H2226 C2255 0.950 . S
H2227 C2256 0.950 . S
H2228 C2258 0.950 . S
H2229 C2259 0.950 . S
C2230 H2212 0.951 . S
C2230 C2231 1.366 . S
C2230 C2232 1.388 . S
C2231 C2230 1.366 . S
C2231 C2235 1.385 . S
C2232 H2213 0.951 . S
C2232 C2230 1.388 . S
C2232 C2233 1.366 . S
C2233 C2232 1.366 . S
C2233 C2234 1.414 . S
C2233 C2236 1.499 . S
C2234 H2214 0.950 . S
C2234 C2233 1.414 . S
C2234 C2235 1.374 . S
C2235 H2215 0.950 . S
C2235 C2231 1.385 . S
C2235 C2234 1.374 . S
C2236 C2233 1.499 . S
C2236 C2237 1.373 . S
C2236 C2238 1.389 . S
C2237 H2216 0.950 . S
C2237 C2236 1.373 . S
C2237 C2253 1.377 . S
C2238 C2236 1.389 . S
C2238 C2239 1.524 . S
C2238 C2252 1.377 . S
C2239 C2238 1.524 . S
C2239 C2240 1.397 . S
C2239 C2244 1.363 . S
C2240 H2217 0.950 . S
C2240 C2239 1.397 . S
C2240 C2241 1.334 . S
C2241 H2218 0.950 . S
C2241 C2240 1.334 . S
C2241 C2242 1.287 . S
C2242 C2241 1.287 . S
C2242 C2243 1.524 . S
C2242 H2261 0.913 . S
C2243 H2219 0.950 . S
C2243 C2242 1.524 . S
C2243 C2244 1.415 . S
C2244 H2220 0.950 . S
C2244 C2239 1.363 . S
C2244 C2243 1.415 . S
C2245 H2221 0.951 . S
C2245 C2246 1.366 . S
C2245 C2247 1.388 . S
C2246 C2245 1.366 . S
C2246 C2250 1.385 . S
C2247 H2222 0.951 . S
C2247 C2245 1.388 . S
C2247 C2248 1.366 . S
C2248 C2247 1.366 . S
C2248 C2249 1.414 . S
C2248 C2251 1.499 . S
C2249 H2223 0.950 . S
C2249 C2248 1.414 . S
C2249 C2250 1.374 . S
C2250 H2224 0.950 . S
C2250 C2246 1.385 . S
C2250 C2249 1.374 . S
C2251 C2248 1.499 . S
C2251 C2252 1.373 . S
C2251 C2253 1.389 . S
C2252 H2225 0.950 . S
C2252 C2238 1.377 . S
C2252 C2251 1.373 . S
C2253 C2237 1.377 . S
C2253 C2251 1.389 . S
C2253 C2254 1.524 . S
C2254 C2253 1.524 . S
C2254 C2255 1.397 . S
C2254 C2259 1.363 . S
C2255 H2226 0.950 . S
C2255 C2254 1.397 . S
C2255 C2256 1.334 . S
C2256 H2227 0.950 . S
C2256 C2255 1.334 . S
C2256 C2257 1.287 . S
C2257 C2256 1.287 . S
C2257 C2258 1.524 . S
C2257 H2260 0.999 . S
C2258 H2228 0.950 . S
C2258 C2257 1.524 . S
C2258 C2259 1.415 . S
C2259 H2229 0.950 . S
C2259 C2254 1.363 . S
C2259 C2258 1.415 . S
H2260 C2257 0.999 . S
H2261 C2242 0.913 . S
H2262 C2280 0.951 . S
H2263 C2282 0.951 . S
H2264 C2284 0.950 . S
H2265 C2285 0.950 . S
H2266 C2287 0.950 . S
H2267 C2290 0.950 . S
H2268 C2291 0.950 . S
H2269 C2293 0.950 . S
H2270 C2294 0.950 . S
H2271 C2295 0.951 . S
H2272 C2297 0.951 . S
H2273 C2299 0.950 . S
H2274 C2300 0.950 . S
H2275 C2302 0.950 . S
H2276 C2305 0.950 . S
H2277 C2306 0.950 . S
H2278 C2308 0.950 . S
H2279 C2309 0.950 . S
C2280 H2262 0.951 . S
C2280 C2281 1.366 . S
C2280 C2282 1.388 . S
C2281 C2280 1.366 . S
C2281 C2285 1.385 . S
C2282 H2263 0.951 . S
C2282 C2280 1.388 . S
C2282 C2283 1.366 . S
C2283 C2282 1.366 . S
C2283 C2284 1.414 . S
C2283 C2286 1.499 . S
C2284 H2264 0.950 . S
C2284 C2283 1.414 . S
C2284 C2285 1.374 . S
C2285 H2265 0.950 . S
C2285 C2281 1.385 . S
C2285 C2284 1.374 . S
C2286 C2283 1.499 . S
C2286 C2287 1.373 . S
C2286 C2288 1.389 . S
C2287 H2266 0.950 . S
C2287 C2286 1.373 . S
C2287 C2303 1.377 . S
C2288 C2286 1.389 . S
C2288 C2289 1.524 . S
C2288 C2302 1.377 . S
C2289 C2288 1.524 . S
C2289 C2290 1.397 . S
C2289 C2294 1.363 . S
C2290 H2267 0.950 . S
C2290 C2289 1.397 . S
C2290 C2291 1.334 . S
C2291 H2268 0.950 . S
C2291 C2290 1.334 . S
C2291 C2292 1.287 . S
C2292 C2291 1.287 . S
C2292 C2293 1.524 . S
C2292 H2311 0.913 . S
C2293 H2269 0.950 . S
C2293 C2292 1.524 . S
C2293 C2294 1.415 . S
C2294 H2270 0.950 . S
C2294 C2289 1.363 . S
C2294 C2293 1.415 . S
C2295 H2271 0.951 . S
C2295 C2296 1.366 . S
C2295 C2297 1.388 . S
C2296 C2295 1.366 . S
C2296 C2300 1.385 . S
C2297 H2272 0.951 . S
C2297 C2295 1.388 . S
C2297 C2298 1.366 . S
C2298 C2297 1.366 . S
C2298 C2299 1.414 . S
C2298 C2301 1.499 . S
C2299 H2273 0.950 . S
C2299 C2298 1.414 . S
C2299 C2300 1.374 . S
C2300 H2274 0.950 . S
C2300 C2296 1.385 . S
C2300 C2299 1.374 . S
C2301 C2298 1.499 . S
C2301 C2302 1.373 . S
C2301 C2303 1.389 . S
C2302 H2275 0.950 . S
C2302 C2288 1.377 . S
C2302 C2301 1.373 . S
C2303 C2287 1.377 . S
C2303 C2301 1.389 . S
C2303 C2304 1.524 . S
C2304 C2303 1.524 . S
C2304 C2305 1.397 . S
C2304 C2309 1.363 . S
C2305 H2276 0.950 . S
C2305 C2304 1.397 . S
C2305 C2306 1.334 . S
C2306 H2277 0.950 . S
C2306 C2305 1.334 . S
C2306 C2307 1.287 . S
C2307 C2306 1.287 . S
C2307 C2308 1.524 . S
C2307 H2310 0.999 . S
C2308 H2278 0.950 . S
C2308 C2307 1.524 . S
C2308 C2309 1.415 . S
C2309 H2279 0.950 . S
C2309 C2304 1.363 . S
C2309 C2308 1.415 . S
H2310 C2307 0.999 . S
H2311 C2292 0.913 . S
H2312 C2330 0.951 . S
H2313 C2332 0.951 . S
H2314 C2334 0.950 . S
H2315 C2335 0.950 . S
H2316 C2337 0.950 . S
H2317 C2340 0.950 . S
H2318 C2341 0.950 . S
H2319 C2343 0.950 . S
H2320 C2344 0.950 . S
H2321 C2345 0.951 . S
H2322 C2347 0.951 . S
H2323 C2349 0.950 . S
H2324 C2350 0.950 . S
H2325 C2352 0.950 . S
H2326 C2355 0.950 . S
H2327 C2356 0.950 . S
H2328 C2358 0.950 . S
H2329 C2359 0.950 . S
C2330 H2312 0.951 . S
C2330 C2331 1.366 . S
C2330 C2332 1.388 . S
C2331 C2330 1.366 . S
C2331 C2335 1.385 . S
C2332 H2313 0.951 . S
C2332 C2330 1.388 . S
C2332 C2333 1.366 . S
C2333 C2332 1.366 . S
C2333 C2334 1.414 . S
C2333 C2336 1.499 . S
C2334 H2314 0.950 . S
C2334 C2333 1.414 . S
C2334 C2335 1.374 . S
C2335 H2315 0.950 . S
C2335 C2331 1.385 . S
C2335 C2334 1.374 . S
C2336 C2333 1.499 . S
C2336 C2337 1.373 . S
C2336 C2338 1.389 . S
C2337 H2316 0.950 . S
C2337 C2336 1.373 . S
C2337 C2353 1.377 . S
C2338 C2336 1.389 . S
C2338 C2339 1.524 . S
C2338 C2352 1.377 . S
C2339 C2338 1.524 . S
C2339 C2340 1.397 . S
C2339 C2344 1.363 . S
C2340 H2317 0.950 . S
C2340 C2339 1.397 . S
C2340 C2341 1.334 . S
C2341 H2318 0.950 . S
C2341 C2340 1.334 . S
C2341 C2342 1.287 . S
C2342 C2341 1.287 . S
C2342 C2343 1.524 . S
C2342 H2361 0.913 . S
C2343 H2319 0.950 . S
C2343 C2342 1.524 . S
C2343 C2344 1.415 . S
C2344 H2320 0.950 . S
C2344 C2339 1.363 . S
C2344 C2343 1.415 . S
C2345 H2321 0.951 . S
C2345 C2346 1.366 . S
C2345 C2347 1.388 . S
C2346 C2345 1.366 . S
C2346 C2350 1.385 . S
C2347 H2322 0.951 . S
C2347 C2345 1.388 . S
C2347 C2348 1.366 . S
C2348 C2347 1.366 . S
C2348 C2349 1.414 . S
C2348 C2351 1.499 . S
C2349 H2323 0.950 . S
C2349 C2348 1.414 . S
C2349 C2350 1.374 . S
C2350 H2324 0.950 . S
C2350 C2346 1.385 . S
C2350 C2349 1.374 . S
C2351 C2348 1.499 . S
C2351 C2352 1.373 . S
C2351 C2353 1.389 . S
C2352 H2325 0.950 . S
C2352 C2338 1.377 . S
C2352 C2351 1.373 . S
C2353 C2337 1.377 . S
C2353 C2351 1.389 . S
C2353 C2354 1.524 . S
C2354 C2353 1.524 . S
C2354 C2355 1.397 . S
C2354 C2359 1.363 . S
C2355 H2326 0.950 . S
C2355 C2354 1.397 . S
C2355 C2356 1.334 . S
C2356 H2327 0.950 . S
C2356 C2355 1.334 . S
C2356 C2357 1.287 . S
C2357 C2356 1.287 . S
C2357 C2358 1.524 . S
C2357 H2360 0.999 . S
C2358 H2328 0.950 . S
C2358 C2357 1.524 . S
C2358 C2359 1.415 . S
C2359 H2329 0.950 . S
C2359 C2354 1.363 . S
C2359 C2358 1.415 . S
H2360 C2357 0.999 . S
H2361 C2342 0.913 . S
H2362 C2380 0.951 . S
H2363 C2382 0.951 . S
H2364 C2384 0.950 . S
H2365 C2385 0.950 . S
H2366 C2387 0.950 . S
H2367 C2390 0.950 . S
H2368 C2391 0.950 . S
H2369 C2393 0.950 . S
H2370 C2394 0.950 . S
H2371 C2395 0.951 . S
H2372 C2397 0.951 . S
H2373 C2399 0.950 . S
H2374 C2400 0.950 . S
H2375 C2402 0.950 . S
H2376 C2405 0.950 . S
H2377 C2406 0.950 . S
H2378 C2408 0.950 . S
H2379 C2409 0.950 . S
C2380 H2362 0.951 . S
C2380 C2381 1.366 . S
C2380 C2382 1.388 . S
C2381 C2380 1.366 . S
C2381 C2385 1.385 . S
C2382 H2363 0.951 . S
C2382 C2380 1.388 . S
C2382 C2383 1.366 . S
C2383 C2382 1.366 . S
C2383 C2384 1.414 . S
C2383 C2386 1.499 . S
C2384 H2364 0.950 . S
C2384 C2383 1.414 . S
C2384 C2385 1.374 . S
C2385 H2365 0.950 . S
C2385 C2381 1.385 . S
C2385 C2384 1.374 . S
C2386 C2383 1.499 . S
C2386 C2387 1.373 . S
C2386 C2388 1.389 . S
C2387 H2366 0.950 . S
C2387 C2386 1.373 . S
C2387 C2403 1.377 . S
C2388 C2386 1.389 . S
C2388 C2389 1.524 . S
C2388 C2402 1.377 . S
C2389 C2388 1.524 . S
C2389 C2390 1.397 . S
C2389 C2394 1.363 . S
C2390 H2367 0.950 . S
C2390 C2389 1.397 . S
C2390 C2391 1.334 . S
C2391 H2368 0.950 . S
C2391 C2390 1.334 . S
C2391 C2392 1.287 . S
C2392 C2391 1.287 . S
C2392 C2393 1.524 . S
C2392 H2411 0.913 . S
C2393 H2369 0.950 . S
C2393 C2392 1.524 . S
C2393 C2394 1.415 . S
C2394 H2370 0.950 . S
C2394 C2389 1.363 . S
C2394 C2393 1.415 . S
C2395 H2371 0.951 . S
C2395 C2396 1.366 . S
C2395 C2397 1.388 . S
C2396 C2395 1.366 . S
C2396 C2400 1.385 . S
C2397 H2372 0.951 . S
C2397 C2395 1.388 . S
C2397 C2398 1.366 . S
C2398 C2397 1.366 . S
C2398 C2399 1.414 . S
C2398 C2401 1.499 . S
C2399 H2373 0.950 . S
C2399 C2398 1.414 . S
C2399 C2400 1.374 . S
C2400 H2374 0.950 . S
C2400 C2396 1.385 . S
C2400 C2399 1.374 . S
C2401 C2398 1.499 . S
C2401 C2402 1.373 . S
C2401 C2403 1.389 . S
C2402 H2375 0.950 . S
C2402 C2388 1.377 . S
C2402 C2401 1.373 . S
C2403 C2387 1.377 . S
C2403 C2401 1.389 . S
C2403 C2404 1.524 . S
C2404 C2403 1.524 . S
C2404 C2405 1.397 . S
C2404 C2409 1.363 . S
C2405 H2376 0.950 . S
C2405 C2404 1.397 . S
C2405 C2406 1.334 . S
C2406 H2377 0.950 . S
C2406 C2405 1.334 . S
C2406 C2407 1.287 . S
C2407 C2406 1.287 . S
C2407 C2408 1.524 . S
C2407 H2410 0.999 . S
C2408 H2378 0.950 . S
C2408 C2407 1.524 . S
C2408 C2409 1.415 . S
C2409 H2379 0.950 . S
C2409 C2404 1.363 . S
C2409 C2408 1.415 . S
H2410 C2407 0.999 . S
H2411 C2392 0.913 . S
H2412 C2430 0.951 . S
H2413 C2432 0.951 . S
H2414 C2434 0.950 . S
H2415 C2435 0.950 . S
H2416 C2437 0.950 . S
H2417 C2440 0.950 . S
H2418 C2441 0.950 . S
H2419 C2443 0.950 . S
H2420 C2444 0.950 . S
H2421 C2445 0.951 . S
H2422 C2447 0.951 . S
H2423 C2449 0.950 . S
H2424 C2450 0.950 . S
H2425 C2452 0.950 . S
H2426 C2455 0.950 . S
H2427 C2456 0.950 . S
H2428 C2458 0.950 . S
H2429 C2459 0.950 . S
C2430 H2412 0.951 . S
C2430 C2431 1.366 . S
C2430 C2432 1.388 . S
C2431 C2430 1.366 . S
C2431 C2435 1.385 . S
C2432 H2413 0.951 . S
C2432 C2430 1.388 . S
C2432 C2433 1.366 . S
C2433 C2432 1.366 . S
C2433 C2434 1.414 . S
C2433 C2436 1.499 . S
C2434 H2414 0.950 . S
C2434 C2433 1.414 . S
C2434 C2435 1.374 . S
C2435 H2415 0.950 . S
C2435 C2431 1.385 . S
C2435 C2434 1.374 . S
C2436 C2433 1.499 . S
C2436 C2437 1.373 . S
C2436 C2438 1.389 . S
C2437 H2416 0.950 . S
C2437 C2436 1.373 . S
C2437 C2453 1.377 . S
C2438 C2436 1.389 . S
C2438 C2439 1.524 . S
C2438 C2452 1.377 . S
C2439 C2438 1.524 . S
C2439 C2440 1.397 . S
C2439 C2444 1.363 . S
C2440 H2417 0.950 . S
C2440 C2439 1.397 . S
C2440 C2441 1.334 . S
C2441 H2418 0.950 . S
C2441 C2440 1.334 . S
C2441 C2442 1.287 . S
C2442 C2441 1.287 . S
C2442 C2443 1.524 . S
C2442 H2461 0.913 . S
C2443 H2419 0.950 . S
C2443 C2442 1.524 . S
C2443 C2444 1.415 . S
C2444 H2420 0.950 . S
C2444 C2439 1.363 . S
C2444 C2443 1.415 . S
C2445 H2421 0.951 . S
C2445 C2446 1.366 . S
C2445 C2447 1.388 . S
C2446 C2445 1.366 . S
C2446 C2450 1.385 . S
C2447 H2422 0.951 . S
C2447 C2445 1.388 . S
C2447 C2448 1.366 . S
C2448 C2447 1.366 . S
C2448 C2449 1.414 . S
C2448 C2451 1.499 . S
C2449 H2423 0.950 . S
C2449 C2448 1.414 . S
C2449 C2450 1.374 . S
C2450 H2424 0.950 . S
C2450 C2446 1.385 . S
C2450 C2449 1.374 . S
C2451 C2448 1.499 . S
C2451 C2452 1.373 . S
C2451 C2453 1.389 . S
C2452 H2425 0.950 . S
C2452 C2438 1.377 . S
C2452 C2451 1.373 . S
C2453 C2437 1.377 . S
C2453 C2451 1.389 . S
C2453 C2454 1.524 . S
C2454 C2453 1.524 . S
C2454 C2455 1.397 . S
C2454 C2459 1.363 . S
C2455 H2426 0.950 . S
C2455 C2454 1.397 . S
C2455 C2456 1.334 . S
C2456 H2427 0.950 . S
C2456 C2455 1.334 . S
C2456 C2457 1.287 . S
C2457 C2456 1.287 . S
C2457 C2458 1.524 . S
C2457 H2460 0.999 . S
C2458 H2428 0.950 . S
C2458 C2457 1.524 . S
C2458 C2459 1.415 . S
C2459 H2429 0.950 . S
C2459 C2454 1.363 . S
C2459 C2458 1.415 . S
H2460 C2457 0.999 . S
H2461 C2442 0.913 . S
H2462 C2480 0.951 . S
H2463 C2482 0.951 . S
H2464 C2484 0.950 . S
H2465 C2485 0.950 . S
H2466 C2487 0.950 . S
H2467 C2490 0.950 . S
H2468 C2491 0.950 . S
H2469 C2493 0.950 . S
H2470 C2494 0.950 . S
H2471 C2495 0.951 . S
H2472 C2497 0.951 . S
H2473 C2499 0.950 . S
H2474 C2500 0.950 . S
H2475 C2502 0.950 . S
H2476 C2505 0.950 . S
H2477 C2506 0.950 . S
H2478 C2508 0.950 . S
H2479 C2509 0.950 . S
C2480 H2462 0.951 . S
C2480 C2481 1.366 . S
C2480 C2482 1.388 . S
C2481 C2480 1.366 . S
C2481 C2485 1.385 . S
C2482 H2463 0.951 . S
C2482 C2480 1.388 . S
C2482 C2483 1.366 . S
C2483 C2482 1.366 . S
C2483 C2484 1.414 . S
C2483 C2486 1.499 . S
C2484 H2464 0.950 . S
C2484 C2483 1.414 . S
C2484 C2485 1.374 . S
C2485 H2465 0.950 . S
C2485 C2481 1.385 . S
C2485 C2484 1.374 . S
C2486 C2483 1.499 . S
C2486 C2487 1.373 . S
C2486 C2488 1.389 . S
C2487 H2466 0.950 . S
C2487 C2486 1.373 . S
C2487 C2503 1.377 . S
C2488 C2486 1.389 . S
C2488 C2489 1.524 . S
C2488 C2502 1.377 . S
C2489 C2488 1.524 . S
C2489 C2490 1.397 . S
C2489 C2494 1.363 . S
C2490 H2467 0.950 . S
C2490 C2489 1.397 . S
C2490 C2491 1.334 . S
C2491 H2468 0.950 . S
C2491 C2490 1.334 . S
C2491 C2492 1.287 . S
C2492 C2491 1.287 . S
C2492 C2493 1.524 . S
C2492 H2511 0.913 . S
C2493 H2469 0.950 . S
C2493 C2492 1.524 . S
C2493 C2494 1.415 . S
C2494 H2470 0.950 . S
C2494 C2489 1.363 . S
C2494 C2493 1.415 . S
C2495 H2471 0.951 . S
C2495 C2496 1.366 . S
C2495 C2497 1.388 . S
C2496 C2495 1.366 . S
C2496 C2500 1.385 . S
C2497 H2472 0.951 . S
C2497 C2495 1.388 . S
C2497 C2498 1.366 . S
C2498 C2497 1.366 . S
C2498 C2499 1.414 . S
C2498 C2501 1.499 . S
C2499 H2473 0.950 . S
C2499 C2498 1.414 . S
C2499 C2500 1.374 . S
C2500 H2474 0.950 . S
C2500 C2496 1.385 . S
C2500 C2499 1.374 . S
C2501 C2498 1.499 . S
C2501 C2502 1.373 . S
C2501 C2503 1.389 . S
C2502 H2475 0.950 . S
C2502 C2488 1.377 . S
C2502 C2501 1.373 . S
C2503 C2487 1.377 . S
C2503 C2501 1.389 . S
C2503 C2504 1.524 . S
C2504 C2503 1.524 . S
C2504 C2505 1.397 . S
C2504 C2509 1.363 . S
C2505 H2476 0.950 . S
C2505 C2504 1.397 . S
C2505 C2506 1.334 . S
C2506 H2477 0.950 . S
C2506 C2505 1.334 . S
C2506 C2507 1.287 . S
C2507 C2506 1.287 . S
C2507 C2508 1.524 . S
C2507 H2510 0.999 . S
C2508 H2478 0.950 . S
C2508 C2507 1.524 . S
C2508 C2509 1.415 . S
C2509 H2479 0.950 . S
C2509 C2504 1.363 . S
C2509 C2508 1.415 . S
H2510 C2507 0.999 . S
H2511 C2492 0.913 . S
H2512 C2530 0.951 . S
H2513 C2532 0.951 . S
H2514 C2534 0.950 . S
H2515 C2535 0.950 . S
H2516 C2537 0.950 . S
H2517 C2540 0.950 . S
H2518 C2541 0.950 . S
H2519 C2543 0.950 . S
H2520 C2544 0.950 . S
H2521 C2545 0.951 . S
H2522 C2547 0.951 . S
H2523 C2549 0.950 . S
H2524 C2550 0.950 . S
H2525 C2552 0.950 . S
H2526 C2555 0.950 . S
H2527 C2556 0.950 . S
H2528 C2558 0.950 . S
H2529 C2559 0.950 . S
C2530 H2512 0.951 . S
C2530 C2531 1.366 . S
C2530 C2532 1.388 . S
C2531 C2530 1.366 . S
C2531 C2535 1.385 . S
C2532 H2513 0.951 . S
C2532 C2530 1.388 . S
C2532 C2533 1.366 . S
C2533 C2532 1.366 . S
C2533 C2534 1.414 . S
C2533 C2536 1.499 . S
C2534 H2514 0.950 . S
C2534 C2533 1.414 . S
C2534 C2535 1.374 . S
C2535 H2515 0.950 . S
C2535 C2531 1.385 . S
C2535 C2534 1.374 . S
C2536 C2533 1.499 . S
C2536 C2537 1.373 . S
C2536 C2538 1.389 . S
C2537 H2516 0.950 . S
C2537 C2536 1.373 . S
C2537 C2553 1.377 . S
C2538 C2536 1.389 . S
C2538 C2539 1.524 . S
C2538 C2552 1.377 . S
C2539 C2538 1.524 . S
C2539 C2540 1.397 . S
C2539 C2544 1.363 . S
C2540 H2517 0.950 . S
C2540 C2539 1.397 . S
C2540 C2541 1.334 . S
C2541 H2518 0.950 . S
C2541 C2540 1.334 . S
C2541 C2542 1.287 . S
C2542 C2541 1.287 . S
C2542 C2543 1.524 . S
C2542 H2561 0.913 . S
C2543 H2519 0.950 . S
C2543 C2542 1.524 . S
C2543 C2544 1.415 . S
C2544 H2520 0.950 . S
C2544 C2539 1.363 . S
C2544 C2543 1.415 . S
C2545 H2521 0.951 . S
C2545 C2546 1.366 . S
C2545 C2547 1.388 . S
C2546 C2545 1.366 . S
C2546 C2550 1.385 . S
C2547 H2522 0.951 . S
C2547 C2545 1.388 . S
C2547 C2548 1.366 . S
C2548 C2547 1.366 . S
C2548 C2549 1.414 . S
C2548 C2551 1.499 . S
C2549 H2523 0.950 . S
C2549 C2548 1.414 . S
C2549 C2550 1.374 . S
C2550 H2524 0.950 . S
C2550 C2546 1.385 . S
C2550 C2549 1.374 . S
C2551 C2548 1.499 . S
C2551 C2552 1.373 . S
C2551 C2553 1.389 . S
C2552 H2525 0.950 . S
C2552 C2538 1.377 . S
C2552 C2551 1.373 . S
C2553 C2537 1.377 . S
C2553 C2551 1.389 . S
C2553 C2554 1.524 . S
C2554 C2553 1.524 . S
C2554 C2555 1.397 . S
C2554 C2559 1.363 . S
C2555 H2526 0.950 . S
C2555 C2554 1.397 . S
C2555 C2556 1.334 . S
C2556 H2527 0.950 . S
C2556 C2555 1.334 . S
C2556 C2557 1.287 . S
C2557 C2556 1.287 . S
C2557 C2558 1.524 . S
C2557 H2560 0.999 . S
C2558 H2528 0.950 . S
C2558 C2557 1.524 . S
C2558 C2559 1.415 . S
C2559 H2529 0.950 . S
C2559 C2554 1.363 . S
C2559 C2558 1.415 . S
H2560 C2557 0.999 . S
H2561 C2542 0.913 . S
H2562 C2580 0.951 . S
H2563 C2582 0.951 . S
H2564 C2584 0.950 . S
H2565 C2585 0.950 . S
H2566 C2587 0.950 . S
H2567 C2590 0.950 . S
H2568 C2591 0.950 . S
H2569 C2593 0.950 . S
H2570 C2594 0.950 . S
H2571 C2595 0.951 . S
H2572 C2597 0.951 . S
H2573 C2599 0.950 . S
H2574 C2600 0.950 . S
H2575 C2602 0.950 . S
H2576 C2605 0.950 . S
H2577 C2606 0.950 . S
H2578 C2608 0.950 . S
H2579 C2609 0.950 . S
C2580 H2562 0.951 . S
C2580 C2581 1.366 . S
C2580 C2582 1.388 . S
C2581 C2580 1.366 . S
C2581 C2585 1.385 . S
C2582 H2563 0.951 . S
C2582 C2580 1.388 . S
C2582 C2583 1.366 . S
C2583 C2582 1.366 . S
C2583 C2584 1.414 . S
C2583 C2586 1.499 . S
C2584 H2564 0.950 . S
C2584 C2583 1.414 . S
C2584 C2585 1.374 . S
C2585 H2565 0.950 . S
C2585 C2581 1.385 . S
C2585 C2584 1.374 . S
C2586 C2583 1.499 . S
C2586 C2587 1.373 . S
C2586 C2588 1.389 . S
C2587 H2566 0.950 . S
C2587 C2586 1.373 . S
C2587 C2603 1.377 . S
C2588 C2586 1.389 . S
C2588 C2589 1.524 . S
C2588 C2602 1.377 . S
C2589 C2588 1.524 . S
C2589 C2590 1.397 . S
C2589 C2594 1.363 . S
C2590 H2567 0.950 . S
C2590 C2589 1.397 . S
C2590 C2591 1.334 . S
C2591 H2568 0.950 . S
C2591 C2590 1.334 . S
C2591 C2592 1.287 . S
C2592 C2591 1.287 . S
C2592 C2593 1.524 . S
C2592 H2611 0.913 . S
C2593 H2569 0.950 . S
C2593 C2592 1.524 . S
C2593 C2594 1.415 . S
C2594 H2570 0.950 . S
C2594 C2589 1.363 . S
C2594 C2593 1.415 . S
C2595 H2571 0.951 . S
C2595 C2596 1.366 . S
C2595 C2597 1.388 . S
C2596 C2595 1.366 . S
C2596 C2600 1.385 . S
C2597 H2572 0.951 . S
C2597 C2595 1.388 . S
C2597 C2598 1.366 . S
C2598 C2597 1.366 . S
C2598 C2599 1.414 . S
C2598 C2601 1.499 . S
C2599 H2573 0.950 . S
C2599 C2598 1.414 . S
C2599 C2600 1.374 . S
C2600 H2574 0.950 . S
C2600 C2596 1.385 . S
C2600 C2599 1.374 . S
C2601 C2598 1.499 . S
C2601 C2602 1.373 . S
C2601 C2603 1.389 . S
C2602 H2575 0.950 . S
C2602 C2588 1.377 . S
C2602 C2601 1.373 . S
C2603 C2587 1.377 . S
C2603 C2601 1.389 . S
C2603 C2604 1.524 . S
C2604 C2603 1.524 . S
C2604 C2605 1.397 . S
C2604 C2609 1.363 . S
C2605 H2576 0.950 . S
C2605 C2604 1.397 . S
C2605 C2606 1.334 . S
C2606 H2577 0.950 . S
C2606 C2605 1.334 . S
C2606 C2607 1.287 . S
C2607 C2606 1.287 . S
C2607 C2608 1.524 . S
C2607 H2610 0.999 . S
C2608 H2578 0.950 . S
C2608 C2607 1.524 . S
C2608 C2609 1.415 . S
C2609 H2579 0.950 . S
C2609 C2604 1.363 . S
C2609 C2608 1.415 . S
H2610 C2607 0.999 . S
H2611 C2592 0.913 . S
H2612 C2630 0.951 . S
H2613 C2632 0.951 . S
H2614 C2634 0.950 . S
H2615 C2635 0.950 . S
H2616 C2637 0.950 . S
H2617 C2640 0.950 . S
H2618 C2641 0.950 . S
H2619 C2643 0.950 . S
H2620 C2644 0.950 . S
H2621 C2645 0.951 . S
H2622 C2647 0.951 . S
H2623 C2649 0.950 . S
H2624 C2650 0.950 . S
H2625 C2652 0.950 . S
H2626 C2655 0.950 . S
H2627 C2656 0.950 . S
H2628 C2658 0.950 . S
H2629 C2659 0.950 . S
C2630 H2612 0.951 . S
C2630 C2631 1.366 . S
C2630 C2632 1.388 . S
C2631 C2630 1.366 . S
C2631 C2635 1.385 . S
C2632 H2613 0.951 . S
C2632 C2630 1.388 . S
C2632 C2633 1.366 . S
C2633 C2632 1.366 . S
C2633 C2634 1.414 . S
C2633 C2636 1.499 . S
C2634 H2614 0.950 . S
C2634 C2633 1.414 . S
C2634 C2635 1.374 . S
C2635 H2615 0.950 . S
C2635 C2631 1.385 . S
C2635 C2634 1.374 . S
C2636 C2633 1.499 . S
C2636 C2637 1.373 . S
C2636 C2638 1.389 . S
C2637 H2616 0.950 . S
C2637 C2636 1.373 . S
C2637 C2653 1.377 . S
C2638 C2636 1.389 . S
C2638 C2639 1.524 . S
C2638 C2652 1.377 . S
C2639 C2638 1.524 . S
C2639 C2640 1.397 . S
C2639 C2644 1.363 . S
C2640 H2617 0.950 . S
C2640 C2639 1.397 . S
C2640 C2641 1.334 . S
C2641 H2618 0.950 . S
C2641 C2640 1.334 . S
C2641 C2642 1.287 . S
C2642 C2641 1.287 . S
C2642 C2643 1.524 . S
C2642 H2661 0.913 . S
C2643 H2619 0.950 . S
C2643 C2642 1.524 . S
C2643 C2644 1.415 . S
C2644 H2620 0.950 . S
C2644 C2639 1.363 . S
C2644 C2643 1.415 . S
C2645 H2621 0.951 . S
C2645 C2646 1.366 . S
C2645 C2647 1.388 . S
C2646 C2645 1.366 . S
C2646 C2650 1.385 . S
C2647 H2622 0.951 . S
C2647 C2645 1.388 . S
C2647 C2648 1.366 . S
C2648 C2647 1.366 . S
C2648 C2649 1.414 . S
C2648 C2651 1.499 . S
C2649 H2623 0.950 . S
C2649 C2648 1.414 . S
C2649 C2650 1.374 . S
C2650 H2624 0.950 . S
C2650 C2646 1.385 . S
C2650 C2649 1.374 . S
C2651 C2648 1.499 . S
C2651 C2652 1.373 . S
C2651 C2653 1.389 . S
C2652 H2625 0.950 . S
C2652 C2638 1.377 . S
C2652 C2651 1.373 . S
C2653 C2637 1.377 . S
C2653 C2651 1.389 . S
C2653 C2654 1.524 . S
C2654 C2653 1.524 . S
C2654 C2655 1.397 . S
C2654 C2659 1.363 . S
C2655 H2626 0.950 . S
C2655 C2654 1.397 . S
C2655 C2656 1.334 . S
C2656 H2627 0.950 . S
C2656 C2655 1.334 . S
C2656 C2657 1.287 . S
C2657 C2656 1.287 . S
C2657 C2658 1.524 . S
C2657 H2660 0.999 . S
C2658 H2628 0.950 . S
C2658 C2657 1.524 . S
C2658 C2659 1.415 . S
C2659 H2629 0.950 . S
C2659 C2654 1.363 . S
C2659 C2658 1.415 . S
H2660 C2657 0.999 . S
H2661 C2642 0.913 . S
H2662 C2680 0.951 . S
H2663 C2682 0.951 . S
H2664 C2684 0.950 . S
H2665 C2685 0.950 . S
H2666 C2687 0.950 . S
H2667 C2690 0.950 . S
H2668 C2691 0.950 . S
H2669 C2693 0.950 . S
H2670 C2694 0.950 . S
H2671 C2695 0.951 . S
H2672 C2697 0.951 . S
H2673 C2699 0.950 . S
H2674 C2700 0.950 . S
H2675 C2702 0.950 . S
H2676 C2705 0.950 . S
H2677 C2706 0.950 . S
H2678 C2708 0.950 . S
H2679 C2709 0.950 . S
C2680 H2662 0.951 . S
C2680 C2681 1.366 . S
C2680 C2682 1.388 . S
C2681 C2680 1.366 . S
C2681 C2685 1.385 . S
C2682 H2663 0.951 . S
C2682 C2680 1.388 . S
C2682 C2683 1.366 . S
C2683 C2682 1.366 . S
C2683 C2684 1.414 . S
C2683 C2686 1.499 . S
C2684 H2664 0.950 . S
C2684 C2683 1.414 . S
C2684 C2685 1.374 . S
C2685 H2665 0.950 . S
C2685 C2681 1.385 . S
C2685 C2684 1.374 . S
C2686 C2683 1.499 . S
C2686 C2687 1.373 . S
C2686 C2688 1.389 . S
C2687 H2666 0.950 . S
C2687 C2686 1.373 . S
C2687 C2703 1.377 . S
C2688 C2686 1.389 . S
C2688 C2689 1.524 . S
C2688 C2702 1.377 . S
C2689 C2688 1.524 . S
C2689 C2690 1.397 . S
C2689 C2694 1.363 . S
C2690 H2667 0.950 . S
C2690 C2689 1.397 . S
C2690 C2691 1.334 . S
C2691 H2668 0.950 . S
C2691 C2690 1.334 . S
C2691 C2692 1.287 . S
C2692 C2691 1.287 . S
C2692 C2693 1.524 . S
C2692 H2711 0.913 . S
C2693 H2669 0.950 . S
C2693 C2692 1.524 . S
C2693 C2694 1.415 . S
C2694 H2670 0.950 . S
C2694 C2689 1.363 . S
C2694 C2693 1.415 . S
C2695 H2671 0.951 . S
C2695 C2696 1.366 . S
C2695 C2697 1.388 . S
C2696 C2695 1.366 . S
C2696 C2700 1.385 . S
C2697 H2672 0.951 . S
C2697 C2695 1.388 . S
C2697 C2698 1.366 . S
C2698 C2697 1.366 . S
C2698 C2699 1.414 . S
C2698 C2701 1.499 . S
C2699 H2673 0.950 . S
C2699 C2698 1.414 . S
C2699 C2700 1.374 . S
C2700 H2674 0.950 . S
C2700 C2696 1.385 . S
C2700 C2699 1.374 . S
C2701 C2698 1.499 . S
C2701 C2702 1.373 . S
C2701 C2703 1.389 . S
C2702 H2675 0.950 . S
C2702 C2688 1.377 . S
C2702 C2701 1.373 . S
C2703 C2687 1.377 . S
C2703 C2701 1.389 . S
C2703 C2704 1.524 . S
C2704 C2703 1.524 . S
C2704 C2705 1.397 . S
C2704 C2709 1.363 . S
C2705 H2676 0.950 . S
C2705 C2704 1.397 . S
C2705 C2706 1.334 . S
C2706 H2677 0.950 . S
C2706 C2705 1.334 . S
C2706 C2707 1.287 . S
C2707 C2706 1.287 . S
C2707 C2708 1.524 . S
C2707 H2710 0.999 . S
C2708 H2678 0.950 . S
C2708 C2707 1.524 . S
C2708 C2709 1.415 . S
C2709 H2679 0.950 . S
C2709 C2704 1.363 . S
C2709 C2708 1.415 . S
H2710 C2707 0.999 . S
H2711 C2692 0.913 . S
C331 C153 1.369 . S
C346 C8 1.346 . S
C381 C21 1.347 . S
C396 C114 1.369 . S
C431 C34 1.347 . S
C446 C127 1.368 . S
C481 C47 1.346 . S
C496 C140 1.369 . S
C531 C179 1.368 . S
C546 C60 1.347 . S
C581 C73 1.347 . S
C596 C192 1.369 . S
C631 C205 1.368 . S
C646 C86 1.346 . S
C681 C166 1.369 . S
C696 C99 1.346 . S
C731 C75 1.369 . S
C746 C112 1.347 . S
C781 C88 1.369 . S
C796 C125 1.346 . S
C831 C138 1.347 . S
C846 C101 1.369 . S
C881 C62 1.369 . S
C896 C151 1.346 . S
C931 C49 1.369 . S
C946 C164 1.346 . S
C981 C177 1.346 . S
C996 C10 1.369 . S
C1031 C190 1.347 . S
C1046 C23 1.369 . S
C1081 C203 1.346 . S
C1096 C36 1.369 . S
C1131 C216 1.346 . S
C1146 C309 1.369 . S
C1181 C270 1.369 . S
C1196 C229 1.347 . S
C1231 C242 1.346 . S
C1246 C231 1.369 . S
C1281 C255 1.347 . S
C1296 C244 1.368 . S
C1331 C257 1.369 . S
C1346 C268 1.347 . S
C1381 C281 1.346 . S
C1396 C296 1.369 . S
C1431 C218 1.369 . S
C1446 C294 1.347 . S
C1481 C283 1.369 . S
C1496 C307 1.346 . S
C1531 C5 1.267 . S
C1546 C83 1.268 . S
C1581 C18 1.268 . S
C1596 C96 1.267 . S
C1631 C31 1.268 . S
C1646 C57 1.267 . S
C1681 C70 1.268 . S
C1696 C44 1.267 . S
C1731 C135 1.267 . S
C1746 C109 1.268 . S
C1781 C122 1.267 . S
C1796 C148 1.267 . S
C1831 C161 1.267 . S
C1846 C187 1.268 . S
C1881 C200 1.267 . S
C1896 C174 1.268 . S
C1931 C226 1.267 . S
C1946 C213 1.268 . S
C1981 C239 1.267 . S
C1996 C304 1.267 . S
C2031 C252 1.267 . S
C2046 C278 1.268 . S
C2081 C265 1.267 . S
C2096 C291 1.268 . S
C2131 C0 0.830 . S
C2146 C65 0.830 . S
C2181 C13 0.831 . S
C2196 C78 0.831 . S
C2231 C26 0.830 . S
C2246 C91 0.830 . S
C2281 C52 0.831 . S
C2296 C39 0.831 . S
C2331 C104 0.830 . S
C2346 C299 0.831 . S
C2381 C117 0.830 . S
C2396 C273 0.831 . S
C2431 C286 0.830 . S
C2446 C130 0.830 . S
C2481 C143 0.830 . S
C2496 C208 0.831 . S
C2531 C260 0.831 . S
C2546 C156 0.831 . S
C2581 C221 0.831 . S
C2596 C169 0.831 . S
C2631 C182 0.830 . S
C2646 C234 0.831 . S
C2681 C247 0.831 . S
C2696 C195 0.830 . S
