# Generated by pormake.
# Topology upb, (4)-cn, num edge types: 1
# Building blocks:
#     Node 0, Type 0, BuildingBlock: TATPOV_clean_sbu_0, # of connection points: 4
#     Node 1, Type 0, BuildingBlock: TATPOV_clean_sbu_0, # of connection points: 4
#     Node 2, Type 0, BuildingBlock: TATPOV_clean_sbu_0, # of connection points: 4
#     Node 3, Type 0, BuildingBlock: TATPOV_clean_sbu_0, # of connection points: 4
#     Node 4, Type 0, BuildingBlock: TATPOV_clean_sbu_0, # of connection points: 4
#     Node 5, Type 0, BuildingBlock: TATPOV_clean_sbu_0, # of connection points: 4
#     Node 6, Type 0, BuildingBlock: TATPOV_clean_sbu_0, # of connection points: 4
#     Node 7, Type 0, BuildingBlock: TATPOV_clean_sbu_0, # of connection points: 4
#     Node 8, Type 0, BuildingBlock: TATPOV_clean_sbu_0, # of connection points: 4
#     Node 9, Type 0, BuildingBlock: TATPOV_clean_sbu_0, # of connection points: 4
#     Node 10, Type 0, BuildingBlock: TATPOV_clean_sbu_0, # of connection points: 4
#     Node 11, Type 0, BuildingBlock: TATPOV_clean_sbu_0, # of connection points: 4
#     Node 12, Type 0, BuildingBlock: TATPOV_clean_sbu_0, # of connection points: 4
#     Node 13, Type 0, BuildingBlock: TATPOV_clean_sbu_0, # of connection points: 4
#     Node 14, Type 0, BuildingBlock: TATPOV_clean_sbu_0, # of connection points: 4
#     Node 15, Type 0, BuildingBlock: TATPOV_clean_sbu_0, # of connection points: 4
#     Edge 16, Type (0, 0), BuildingBlock: XIVTED_clean_linker_0, # of connection points: 2
#     Edge 17, Type (0, 0), BuildingBlock: XIVTED_clean_linker_0, # of connection points: 2
#     Edge 18, Type (0, 0), BuildingBlock: XIVTED_clean_linker_0, # of connection points: 2
#     Edge 19, Type (0, 0), BuildingBlock: XIVTED_clean_linker_0, # of connection points: 2
#     Edge 20, Type (0, 0), BuildingBlock: XIVTED_clean_linker_0, # of connection points: 2
#     Edge 21, Type (0, 0), BuildingBlock: XIVTED_clean_linker_0, # of connection points: 2
#     Edge 22, Type (0, 0), BuildingBlock: XIVTED_clean_linker_0, # of connection points: 2
#     Edge 23, Type (0, 0), BuildingBlock: XIVTED_clean_linker_0, # of connection points: 2
#     Edge 24, Type (0, 0), BuildingBlock: XIVTED_clean_linker_0, # of connection points: 2
#     Edge 25, Type (0, 0), BuildingBlock: XIVTED_clean_linker_0, # of connection points: 2
#     Edge 26, Type (0, 0), BuildingBlock: XIVTED_clean_linker_0, # of connection points: 2
#     Edge 27, Type (0, 0), BuildingBlock: XIVTED_clean_linker_0, # of connection points: 2
#     Edge 28, Type (0, 0), BuildingBlock: XIVTED_clean_linker_0, # of connection points: 2
#     Edge 29, Type (0, 0), BuildingBlock: XIVTED_clean_linker_0, # of connection points: 2
#     Edge 30, Type (0, 0), BuildingBlock: XIVTED_clean_linker_0, # of connection points: 2
#     Edge 31, Type (0, 0), BuildingBlock: XIVTED_clean_linker_0, # of connection points: 2
#     Edge 32, Type (0, 0), BuildingBlock: XIVTED_clean_linker_0, # of connection points: 2
#     Edge 33, Type (0, 0), BuildingBlock: XIVTED_clean_linker_0, # of connection points: 2
#     Edge 34, Type (0, 0), BuildingBlock: XIVTED_clean_linker_0, # of connection points: 2
#     Edge 35, Type (0, 0), BuildingBlock: XIVTED_clean_linker_0, # of connection points: 2
#     Edge 36, Type (0, 0), BuildingBlock: XIVTED_clean_linker_0, # of connection points: 2
#     Edge 37, Type (0, 0), BuildingBlock: XIVTED_clean_linker_0, # of connection points: 2
#     Edge 38, Type (0, 0), BuildingBlock: XIVTED_clean_linker_0, # of connection points: 2
#     Edge 39, Type (0, 0), BuildingBlock: XIVTED_clean_linker_0, # of connection points: 2
#     Edge 40, Type (0, 0), BuildingBlock: XIVTED_clean_linker_0, # of connection points: 2
#     Edge 41, Type (0, 0), BuildingBlock: XIVTED_clean_linker_0, # of connection points: 2
#     Edge 42, Type (0, 0), BuildingBlock: XIVTED_clean_linker_0, # of connection points: 2
#     Edge 43, Type (0, 0), BuildingBlock: XIVTED_clean_linker_0, # of connection points: 2
#     Edge 44, Type (0, 0), BuildingBlock: XIVTED_clean_linker_0, # of connection points: 2
#     Edge 45, Type (0, 0), BuildingBlock: XIVTED_clean_linker_0, # of connection points: 2
#     Edge 46, Type (0, 0), BuildingBlock: XIVTED_clean_linker_0, # of connection points: 2
#     Edge 47, Type (0, 0), BuildingBlock: XIVTED_clean_linker_0, # of connection points: 2
# Relax obj value: 0.237
# Max RMSD: 0.114
# Mean RMSD: 0.114
data_MOF--net-upb--node1-TATPOV_clean_sbu_0--edge1-XIVTED_clean_linker_0
_symmetry_space_group_name_H-M    P1
_symmetry_Int_Tables_number       1
_symmetry_cell_setting            triclinic
loop_
_symmetry_equiv_pos_as_xyz
'x, y, z'
_cell_length_a     39.963479
_cell_length_b     39.972833
_cell_length_c     44.933332
_cell_angle_alpha  90.03976
_cell_angle_beta   89.977088
_cell_angle_gamma 89.993367
loop_
_atom_site_label
_atom_site_type_symbol
_atom_site_fract_x
_atom_site_fract_y
_atom_site_fract_z
_atom_type_partial_charge
Zn0 Zn 0.00505 0.203 0.33581 0.0
Zn1 Zn 0.00946 0.26376 0.31653 0.0
O2 O 0.01341 0.27061 0.36205 0.0
O3 O 0.0198 0.21838 0.37643 0.0
O4 O 0.01603 0.30974 0.29883 0.0
O5 O 0.0385 0.18527 0.30708 0.0
O6 O 0.04995 0.23805 0.29775 0.0
C7 C 0.0195 0.24932 0.38241 0.0
C8 C 0.94422 0.22425 0.30981 0.0
O9 O 0.96143 0.25005 0.30312 0.0
O10 O 0.95679 0.20101 0.32522 0.0
C11 C 0.03184 0.33279 0.31238 0.0
O12 O 0.04259 0.32738 0.33957 0.0
C13 C 0.05659 0.20702 0.29458 0.0
Zn14 Zn 0.7864 0.00359 0.34613 0.0
Zn15 Zn 0.72989 0.00884 0.32351 0.0
O16 O 0.71984 0.0052 0.36855 0.0
O17 O 0.76761 0.98425 0.38397 0.0
O18 O 0.68417 0.01595 0.30618 0.0
O19 O 0.79484 0.05299 0.34345 0.0
O20 O 0.75383 0.0528 0.31091 0.0
C21 C 0.73743 0.99189 0.38899 0.0
C22 C 0.77846 0.95635 0.30091 0.0
O23 O 0.748 0.96475 0.30488 0.0
O24 O 0.80151 0.97285 0.31339 0.0
C25 C 0.67677 0.01051 0.27912 0.0
O26 O 0.69937 0.99738 0.26138 0.0
C27 C 0.77795 0.06786 0.32371 0.0
Zn28 Zn 0.98951 0.79038 0.34883 0.0
Zn29 Zn 0.98728 0.73435 0.3234 0.0
O30 O 0.98722 0.72262 0.36839 0.0
O31 O 0.00478 0.77016 0.38741 0.0
O32 O 0.98128 0.68987 0.30247 0.0
O33 O 0.94075 0.79941 0.34193 0.0
O34 O 0.94512 0.75974 0.30829 0.0
C35 C 0.99786 0.73952 0.39048 0.0
C36 C 0.04145 0.78409 0.30706 0.0
O37 O 0.03282 0.75343 0.3088 0.0
O38 O 0.02383 0.8064 0.31944 0.0
C39 C 0.97874 0.66187 0.31575 0.0
O40 O 0.98329 0.66047 0.34466 0.0
C41 C 0.92858 0.78347 0.3202 0.0
Zn42 Zn 0.2092 0.0043 0.35443 0.0
Zn43 Zn 0.26638 0.99555 0.32941 0.0
O44 O 0.27709 0.99961 0.3746 0.0
O45 O 0.22982 0.01907 0.39284 0.0
O46 O 0.31151 0.98504 0.31171 0.0
O47 O 0.19686 0.95592 0.34825 0.0
O48 O 0.23961 0.95323 0.31746 0.0
C49 C 0.26025 0.01144 0.3963 0.0
C50 C 0.22046 0.05095 0.30768 0.0
O51 O 0.25007 0.03912 0.30863 0.0
O52 O 0.19753 0.03851 0.3236 0.0
C53 C 0.32022 0.99248 0.28533 0.0
O54 O 0.29966 0.00978 0.26851 0.0
C55 C 0.21354 0.94015 0.32887 0.0
Zn56 Zn 0.01582 0.78607 0.64732 0.0
Zn57 Zn 0.017 0.72919 0.6708 0.0
O58 O 0.01484 0.71844 0.62579 0.0
O59 O 0.99852 0.76732 0.6087 0.0
O60 O 0.02151 0.68354 0.68891 0.0
O61 O 0.06526 0.7927 0.65312 0.0
O62 O 0.06101 0.75163 0.68534 0.0
C63 C 0.00407 0.73654 0.60453 0.0
C64 C 0.9653 0.78009 0.6905 0.0
O65 O 0.97293 0.74928 0.68759 0.0
O66 O 0.98308 0.80228 0.67817 0.0
C67 C 0.01382 0.6766 0.71563 0.0
O68 O 0.99989 0.69972 0.73234 0.0
C69 C 0.07791 0.77523 0.67366 0.0
Zn70 Zn 0.20117 0.99386 0.65601 0.0
Zn71 Zn 0.26056 0.00813 0.67833 0.0
O72 O 0.26908 0.00966 0.6331 0.0
O73 O 0.22082 0.99297 0.6146 0.0
O74 O 0.30563 0.02094 0.69461 0.0
O75 O 0.18139 0.03511 0.67407 0.0
O76 O 0.23035 0.0466 0.6942 0.0
C77 C 0.25094 0.00179 0.61089 0.0
C78 C 0.2248 0.94227 0.69399 0.0
O79 O 0.25123 0.96015 0.69495 0.0
O80 O 0.19947 0.95192 0.67954 0.0
C81 C 0.31628 0.01302 0.7203 0.0
O82 O 0.29754 0.99436 0.73765 0.0
C83 C 0.19954 0.05357 0.69025 0.0
Zn84 Zn 0.98785 0.20996 0.64236 0.0
Zn85 Zn 0.98664 0.2669 0.6628 0.0
O86 O 0.9948 0.27541 0.61756 0.0
O87 O 0.01053 0.22466 0.60506 0.0
O88 O 0.97986 0.31321 0.67946 0.0
O89 O 0.93829 0.20324 0.64284 0.0
O90 O 0.9413 0.24455 0.6749 0.0
C91 C 0.0073 0.25523 0.59856 0.0
C92 C 0.03361 0.21609 0.68933 0.0
O93 O 0.02838 0.24701 0.68415 0.0
O94 O 0.0158 0.19415 0.67667 0.0
C95 C 0.98658 0.32103 0.70622 0.0
O96 O 0.00111 0.29888 0.72351 0.0
C97 C 0.92469 0.22105 0.66265 0.0
Zn98 Zn 0.79372 0.99227 0.64704 0.0
Zn99 Zn 0.73645 0.98589 0.67082 0.0
O100 O 0.72604 0.98407 0.6258 0.0
O101 O 0.77329 0.00313 0.60726 0.0
O102 O 0.69105 0.97768 0.68853 0.0
O103 O 0.80664 0.94507 0.6569 0.0
O104 O 0.76351 0.94553 0.68735 0.0
C105 C 0.74314 0.99444 0.60375 0.0
C106 C 0.78074 0.04485 0.68729 0.0
O107 O 0.75118 0.03301 0.68549 0.0
O108 O 0.80493 0.02955 0.67528 0.0
C109 C 0.68282 0.98477 0.7151 0.0
O110 O 0.70445 8e-05 0.7324 0.0
C111 C 0.78983 0.93144 0.67739 0.0
Zn112 Zn 0.50361 0.718 0.85524 0.0
Zn113 Zn 0.50742 0.77172 0.82625 0.0
O114 O 0.50678 0.78703 0.87045 0.0
O115 O 0.48784 0.74158 0.89218 0.0
O116 O 0.51502 0.81432 0.80298 0.0
O117 O 0.55246 0.70761 0.84974 0.0
O118 O 0.54932 0.74439 0.81355 0.0
C119 C 0.49538 0.77225 0.89342 0.0
C120 C 0.45318 0.72169 0.81148 0.0
O121 O 0.46218 0.7523 0.81136 0.0
O122 O 0.46975 0.70037 0.82613 0.0
C123 C 0.51535 0.84353 0.81426 0.0
O124 O 0.50724 0.84753 0.84236 0.0
C125 C 0.56525 0.72143 0.82715 0.0
Zn126 Zn 0.2853 0.50298 0.85438 0.0
Zn127 Zn 0.23075 0.50762 0.82699 0.0
O128 O 0.2168 0.50734 0.87148 0.0
O129 O 0.26257 0.48714 0.89174 0.0
O130 O 0.1875 0.51443 0.80453 0.0
O131 O 0.29567 0.55177 0.84903 0.0
O132 O 0.25759 0.54967 0.81382 0.0
C133 C 0.23214 0.49541 0.89392 0.0
C134 C 0.27994 0.45282 0.81099 0.0
O135 O 0.24946 0.46217 0.81196 0.0
O136 O 0.30209 0.4693 0.82472 0.0
C137 C 0.1586 0.51514 0.8164 0.0
O138 O 0.1554 0.5087 0.84491 0.0
C139 C 0.2811 0.56515 0.82711 0.0
Zn140 Zn 0.49634 0.28455 0.85405 0.0
Zn141 Zn 0.4922 0.23033 0.82627 0.0
O142 O 0.49274 0.21605 0.87072 0.0
O143 O 0.51261 0.26186 0.8912 0.0
O144 O 0.48449 0.18739 0.8036 0.0
O145 O 0.44739 0.29466 0.84903 0.0
O146 O 0.4503 0.25732 0.81325 0.0
C147 C 0.50462 0.23136 0.89323 0.0
C148 C 0.54636 0.2799 0.81022 0.0
O149 O 0.53746 0.24928 0.811 0.0
O150 O 0.5297 0.30169 0.82427 0.0
C151 C 0.48432 0.1583 0.81507 0.0
O152 O 0.49271 0.15461 0.84313 0.0
C153 C 0.43442 0.28041 0.82674 0.0
Zn154 Zn 0.71645 0.4981 0.8488 0.0
Zn155 Zn 0.76981 0.49341 0.82011 0.0
O156 O 0.78523 0.49295 0.86429 0.0
O157 O 0.74027 0.51365 0.88563 0.0
O158 O 0.81208 0.48577 0.79622 0.0
O159 O 0.70535 0.44945 0.84373 0.0
O160 O 0.74187 0.45194 0.80725 0.0
C161 C 0.77063 0.50498 0.88712 0.0
C162 C 0.72053 0.54883 0.8061 0.0
O163 O 0.75103 0.53941 0.80626 0.0
O164 O 0.69871 0.53206 0.81996 0.0
C165 C 0.84138 0.48429 0.80723 0.0
O166 O 0.84574 0.49089 0.8356 0.0
C167 C 0.71885 0.43636 0.82112 0.0
Zn168 Zn 0.505 0.28654 0.14485 0.0
Zn169 Zn 0.5102 0.23211 0.17212 0.0
O170 O 0.50971 0.21824 0.12761 0.0
O171 O 0.48885 0.26382 0.10758 0.0
O172 O 0.51747 0.18873 0.19422 0.0
O173 O 0.55382 0.29709 0.14981 0.0
O174 O 0.55224 0.25911 0.18511 0.0
C175 C 0.49739 0.23349 0.10528 0.0
C176 C 0.45526 0.28098 0.18856 0.0
O177 O 0.46473 0.25054 0.18748 0.0
O178 O 0.47156 0.30321 0.17477 0.0
C179 C 0.51575 0.1598 0.18249 0.0
O180 O 0.50627 0.15682 0.15464 0.0
C181 C 0.56749 0.28264 0.17165 0.0
Zn182 Zn 0.7157 0.50656 0.13894 0.0
Zn183 Zn 0.77061 0.51084 0.16582 0.0
O184 O 0.78434 0.5094 0.12135 0.0
O185 O 0.73781 0.49069 0.10128 0.0
O186 O 0.81489 0.51817 0.18588 0.0
O187 O 0.70555 0.55542 0.14466 0.0
O188 O 0.74438 0.55317 0.17921 0.0
C189 C 0.76848 0.49795 0.09897 0.0
C190 C 0.72153 0.45664 0.18301 0.0
O191 O 0.75206 0.46583 0.18204 0.0
O192 O 0.69952 0.47286 0.16886 0.0
C193 C 0.81987 0.51401 0.21355 0.0
O194 O 0.79557 0.50214 0.23018 0.0
C195 C 0.72062 0.56874 0.16636 0.0
Zn196 Zn 0.49959 0.7226 0.1419 0.0
Zn197 Zn 0.49465 0.77554 0.17121 0.0
O198 O 0.49415 0.7914 0.12713 0.0
O199 O 0.51497 0.74684 0.10527 0.0
O200 O 0.48644 0.81749 0.19538 0.0
O201 O 0.45099 0.71115 0.14693 0.0
O202 O 0.45343 0.74717 0.18381 0.0
C203 C 0.50617 0.77716 0.10411 0.0
C204 C 0.5502 0.72637 0.18492 0.0
O205 O 0.54068 0.75683 0.18516 0.0
O206 O 0.53365 0.70476 0.17059 0.0
C207 C 0.48447 0.84682 0.18453 0.0
O208 O 0.49111 0.85149 0.15622 0.0
C209 C 0.43793 0.72426 0.16973 0.0
Zn210 Zn 0.28769 0.49536 0.14317 0.0
Zn211 Zn 0.23418 0.49374 0.17249 0.0
O212 O 0.21819 0.49396 0.1285 0.0
O213 O 0.26412 0.51098 0.10625 0.0
O214 O 0.19209 0.48883 0.19704 0.0
O215 O 0.29669 0.44639 0.14922 0.0
O216 O 0.26021 0.45117 0.18555 0.0
C217 C 0.23322 0.5044 0.1053 0.0
C218 C 0.28613 0.54687 0.18571 0.0
O219 O 0.25531 0.53865 0.18612 0.0
O220 O 0.30695 0.52924 0.17144 0.0
C221 C 0.16329 0.4827 0.18629 0.0
O222 O 0.15933 0.48192 0.15729 0.0
C223 C 0.2826 0.43436 0.172 0.0
H224 H 0.12012 0.23101 0.30181 0.0
H225 H 0.18393 0.05122 0.25718 0.0
H226 H 0.06311 0.15553 0.25584 0.0
H227 H 0.2345 0.1163 0.31885 0.0
H228 H 0.15097 0.0987 0.23949 0.0
H229 H 0.17144 0.19914 0.29158 0.0
C230 C 0.11863 0.20849 0.28844 0.0
C231 C 0.08747 0.19551 0.27996 0.0
C232 C 0.17006 0.10297 0.25618 0.0
C233 C 0.14559 0.15891 0.26857 0.0
C234 C 0.18909 0.07592 0.26602 0.0
C235 C 0.21183 0.08006 0.2894 0.0
C236 C 0.17312 0.13407 0.27056 0.0
C237 C 0.21726 0.11232 0.3006 0.0
C238 C 0.14784 0.19017 0.28283 0.0
C239 C 0.08672 0.1661 0.26302 0.0
N240 N 0.19738 0.13804 0.2916 0.0
N241 N 0.11526 0.14851 0.2583 0.0
H242 H 0.88949 0.24365 0.34052 0.0
H243 H 0.79062 0.09196 0.26784 0.0
H244 H 0.92054 0.19269 0.26074 0.0
H245 H 0.78923 0.12025 0.36038 0.0
H246 H 0.82115 0.1439 0.25633 0.0
H247 H 0.83531 0.21524 0.33766 0.0
C248 C 0.88416 0.22781 0.32152 0.0
C249 C 0.90923 0.22045 0.30077 0.0
C250 C 0.81317 0.13918 0.27898 0.0
C251 C 0.84821 0.18691 0.29802 0.0
C252 C 0.7957 0.10971 0.2855 0.0
C253 C 0.78793 0.10189 0.31511 0.0
C254 C 0.82229 0.16089 0.30224 0.0
C255 C 0.79521 0.12537 0.33731 0.0
C256 C 0.85345 0.21129 0.32008 0.0
C257 C 0.90158 0.1991 0.277 0.0
N258 N 0.81229 0.15366 0.33048 0.0
N259 N 0.87192 0.18243 0.27658 0.0
H260 H 0.82832 0.94386 0.26137 0.0
H261 H 0.86932 0.79009 0.3488 0.0
H262 H 0.75111 0.89548 0.31255 0.0
H263 H 0.91664 0.80504 0.26372 0.0
H264 H 0.82167 0.82352 0.3321 0.0
H265 H 0.85668 0.89008 0.25567 0.0
C266 C 0.81664 0.92156 0.2703 0.0
C267 C 0.78756 0.92398 0.28762 0.0
C268 C 0.84189 0.81862 0.31664 0.0
C269 C 0.82055 0.86283 0.28247 0.0
C270 C 0.86906 0.79959 0.32622 0.0
C271 C 0.89674 0.79504 0.30757 0.0
C272 C 0.84317 0.83433 0.28871 0.0
C273 C 0.89556 0.80803 0.27863 0.0
C274 C 0.83286 0.89087 0.26716 0.0
C275 C 0.77351 0.89453 0.29901 0.0
N276 N 0.86961 0.828 0.27034 0.0
N277 N 0.79077 0.86527 0.29713 0.0
H278 H 0.05595 0.83279 0.26704 0.0
H279 H 0.20083 0.88525 0.36228 0.0
H280 H 0.10173 0.76023 0.32497 0.0
H281 H 0.19589 0.92247 0.27245 0.0
H282 H 0.16784 0.83648 0.34726 0.0
H283 H 0.10915 0.86296 0.26438 0.0
C284 C 0.07769 0.82247 0.27814 0.0
C285 C 0.07465 0.79408 0.29621 0.0
C286 C 0.17481 0.85474 0.33058 0.0
C287 C 0.13485 0.82921 0.29456 0.0
C288 C 0.19351 0.88255 0.33918 0.0
C289 C 0.20091 0.90766 0.31851 0.0
C290 C 0.16231 0.85283 0.30142 0.0
C291 C 0.1907 0.90339 0.28892 0.0
C292 C 0.10799 0.83973 0.27674 0.0
C293 C 0.10327 0.78194 0.31063 0.0
N294 N 0.17103 0.87691 0.28137 0.0
N295 N 0.13199 0.80021 0.31031 0.0
H296 H 0.09606 0.78729 0.73128 0.0
H297 H 0.25387 0.88674 0.67143 0.0
H298 H 0.13432 0.78584 0.64164 0.0
H299 H 0.18919 0.92106 0.74171 0.0
H300 H 0.22783 0.83138 0.67453 0.0
H301 H 0.1464 0.81795 0.74721 0.0
C302 C 0.11569 0.79228 0.71525 0.0
C303 C 0.11109 0.78457 0.68509 0.0
C304 C 0.22043 0.85057 0.69024 0.0
C305 C 0.16836 0.81902 0.70303 0.0
C306 C 0.23562 0.882 0.68877 0.0
C307 C 0.22344 0.90834 0.70625 0.0
C308 C 0.19294 0.84578 0.70928 0.0
C309 C 0.19918 0.90123 0.72787 0.0
C310 C 0.14426 0.8098 0.7243 0.0
C311 C 0.13693 0.79177 0.66505 0.0
N312 N 0.18409 0.87077 0.72834 0.0
N313 N 0.16432 0.80894 0.6743 0.0
H314 H 0.21866 0.11934 0.68661 0.0
H315 H 0.03468 0.17034 0.73357 0.0
H316 H 0.14423 0.0541 0.72451 0.0
H317 H 0.09902 0.23336 0.68099 0.0
H318 H 0.08284 0.13605 0.74699 0.0
H319 H 0.18335 0.16781 0.69945 0.0
C320 C 0.19544 0.1154 0.69855 0.0
C321 C 0.18397 0.0829 0.70431 0.0
C322 C 0.08676 0.15789 0.73317 0.0
C323 C 0.14373 0.13764 0.71888 0.0
C324 C 0.05929 0.17764 0.72578 0.0
C325 C 0.063 0.20442 0.706 0.0
C326 C 0.11793 0.16435 0.71987 0.0
C327 C 0.09528 0.21283 0.69635 0.0
C328 C 0.17526 0.14295 0.70573 0.0
C329 C 0.15367 0.07886 0.71949 0.0
N330 N 0.12149 0.19224 0.70268 0.0
N331 N 0.13446 0.10585 0.72596 0.0
H332 H 0.86846 0.20915 0.63062 0.0
H333 H 0.82647 0.06428 0.7284 0.0
H334 H 0.90752 0.20701 0.71992 0.0
H335 H 0.75173 0.10242 0.66833 0.0
H336 H 0.85161 0.11995 0.73103 0.0
H337 H 0.82075 0.17555 0.64691 0.0
C338 C 0.86626 0.20255 0.65393 0.0
C339 C 0.8918 0.21065 0.67399 0.0
C340 C 0.82892 0.11658 0.71819 0.0
C341 C 0.83826 0.17109 0.69253 0.0
C342 C 0.81452 0.08483 0.71682 0.0
C343 C 0.78711 0.07895 0.69811 0.0
C344 C 0.81661 0.14211 0.69973 0.0
C345 C 0.77279 0.10614 0.68313 0.0
C346 C 0.83906 0.18338 0.66326 0.0
C347 C 0.88814 0.20128 0.70387 0.0
N348 N 0.78839 0.13639 0.68344 0.0
N349 N 0.86237 0.18103 0.7121 0.0
H350 H 0.81721 0.92313 0.73219 0.0
H351 H 0.90378 0.75327 0.68006 0.0
H352 H 0.79377 0.87053 0.65117 0.0
H353 H 0.95377 0.8321 0.72806 0.0
H354 H 0.85045 0.78293 0.68673 0.0
H355 H 0.85368 0.87648 0.7471 0.0
C356 C 0.81869 0.90109 0.7182 0.0
C357 C 0.80269 0.9004 0.69049 0.0
C358 C 0.87294 0.79302 0.69675 0.0
C359 C 0.84408 0.84749 0.70714 0.0
C360 C 0.90325 0.77601 0.69319 0.0
C361 C 0.93307 0.79055 0.70331 0.0
C362 C 0.87264 0.82439 0.71087 0.0
C363 C 0.93123 0.8203 0.71976 0.0
C364 C 0.83957 0.87467 0.72659 0.0
C365 C 0.80579 0.87176 0.67274 0.0
N366 N 0.90156 0.83652 0.7227 0.0
N367 N 0.82644 0.84651 0.68122 0.0
H368 H 0.57952 0.70229 0.77027 0.0
H369 H 0.74597 0.60905 0.82234 0.0
H370 H 0.62227 0.70936 0.85808 0.0
H371 H 0.67052 0.56329 0.76731 0.0
H372 H 0.71526 0.66221 0.81967 0.0
H373 H 0.62737 0.66757 0.75473 0.0
C374 C 0.5996 0.69754 0.7859 0.0
C375 C 0.59704 0.70827 0.81552 0.0
C376 C 0.70625 0.64084 0.80717 0.0
C377 C 0.65155 0.66945 0.7979 0.0
C378 C 0.72389 0.61068 0.80843 0.0
C379 C 0.71057 0.58194 0.79506 0.0
C380 C 0.67551 0.64211 0.79208 0.0
C381 C 0.68147 0.58503 0.77789 0.0
C382 C 0.62671 0.67774 0.77707 0.0
C383 C 0.62337 0.70123 0.8351 0.0
N384 N 0.6646 0.61453 0.77718 0.0
N385 N 0.64947 0.68201 0.82602 0.0
H386 H 0.44221 0.6714 0.77219 0.0
H387 H 0.2886 0.62247 0.85851 0.0
H388 H 0.39141 0.74547 0.82519 0.0
H389 H 0.30402 0.57991 0.7715 0.0
H390 H 0.3223 0.6709 0.84408 0.0
H391 H 0.38953 0.64084 0.76676 0.0
C392 C 0.41956 0.68191 0.78161 0.0
C393 C 0.42094 0.7109 0.7991 0.0
C394 C 0.31749 0.65153 0.82776 0.0
C395 C 0.36117 0.67538 0.7943 0.0
C396 C 0.29835 0.62391 0.83604 0.0
C397 C 0.29372 0.59737 0.81612 0.0
C398 C 0.33322 0.65186 0.79981 0.0
C399 C 0.30701 0.60008 0.78736 0.0
C400 C 0.38953 0.66444 0.77862 0.0
C401 C 0.39117 0.72329 0.81134 0.0
N402 N 0.32704 0.62645 0.78029 0.0
N403 N 0.36261 0.70487 0.80952 0.0
H404 H 0.25393 0.39221 0.82524 0.0
H405 H 0.42015 0.30079 0.77029 0.0
H406 H 0.32974 0.4395 0.77163 0.0
H407 H 0.37708 0.29049 0.85773 0.0
H408 H 0.37205 0.33554 0.75553 0.0
H409 H 0.28404 0.33887 0.82055 0.0
C410 C 0.27596 0.39094 0.81123 0.0
C411 C 0.28962 0.42009 0.7989 0.0
C412 C 0.37267 0.32462 0.77758 0.0
C413 C 0.32392 0.35973 0.79359 0.0
C414 C 0.39992 0.3048 0.78595 0.0
C415 C 0.40246 0.2932 0.81529 0.0
C416 C 0.34772 0.33209 0.79858 0.0
C417 C 0.37597 0.29931 0.83497 0.0
C418 C 0.29324 0.36066 0.8088 0.0
C419 C 0.31859 0.41744 0.78148 0.0
N420 N 0.34976 0.3186 0.82634 0.0
N421 N 0.33511 0.38781 0.77965 0.0
H422 H 0.6952 0.42241 0.76559 0.0
H423 H 0.60789 0.25514 0.82334 0.0
H424 H 0.71076 0.37885 0.85217 0.0
H425 H 0.55775 0.33002 0.77082 0.0
H426 H 0.66059 0.28608 0.81735 0.0
H427 H 0.65985 0.37424 0.75214 0.0
C428 C 0.69219 0.40207 0.78129 0.0
C429 C 0.70552 0.40445 0.81005 0.0
C430 C 0.63829 0.29492 0.80615 0.0
C431 C 0.6659 0.34966 0.79483 0.0
C432 C 0.60836 0.27717 0.80931 0.0
C433 C 0.57864 0.29027 0.79762 0.0
C434 C 0.63828 0.32556 0.79085 0.0
C435 C 0.58028 0.31927 0.78017 0.0
C436 C 0.67201 0.37478 0.77367 0.0
C437 C 0.70063 0.37783 0.82983 0.0
N438 N 0.60958 0.33626 0.77761 0.0
N439 N 0.68096 0.3516 0.82195 0.0
H440 H 0.67205 0.44571 0.22312 0.0
H441 H 0.62474 0.2894 0.14003 0.0
H442 H 0.74622 0.39497 0.17017 0.0
H443 H 0.58235 0.30683 0.2268 0.0
H444 H 0.67297 0.32383 0.15362 0.0
H445 H 0.64253 0.39267 0.22991 0.0
C446 C 0.68282 0.42303 0.21398 0.0
C447 C 0.71148 0.42451 0.19609 0.0
C448 C 0.65371 0.3193 0.1701 0.0
C449 C 0.67713 0.36426 0.20246 0.0
C450 C 0.6262 0.29972 0.1623 0.0
C451 C 0.59975 0.29547 0.18236 0.0
C452 C 0.65398 0.33583 0.19769 0.0
C453 C 0.60247 0.30952 0.21084 0.0
C454 C 0.66594 0.39279 0.21775 0.0
C455 C 0.72425 0.39467 0.18428 0.0
N456 N 0.6287 0.32995 0.21741 0.0
N457 N 0.70638 0.36585 0.18687 0.0
H458 H 0.61086 0.75084 0.16884 0.0
H459 H 0.701 0.58352 0.22298 0.0
H460 H 0.56366 0.67678 0.22436 0.0
H461 H 0.7104 0.62588 0.13523 0.0
H462 H 0.66683 0.632 0.23794 0.0
H463 H 0.66362 0.7195 0.17224 0.0
C464 C 0.6121 0.72894 0.18301 0.0
C465 C 0.58309 0.7162 0.19634 0.0
C466 C 0.6774 0.63112 0.21575 0.0
C467 C 0.64278 0.68041 0.2001 0.0
C468 C 0.69692 0.60366 0.20727 0.0
C469 C 0.70817 0.60086 0.17783 0.0
C470 C 0.66988 0.65602 0.19475 0.0
C471 C 0.70191 0.62723 0.15809 0.0
C472 C 0.64203 0.71094 0.18468 0.0
C473 C 0.58565 0.6873 0.21383 0.0
N474 N 0.68295 0.65365 0.16683 0.0
N475 N 0.61492 0.67006 0.21492 0.0
H476 H 0.37998 0.71677 0.13924 0.0
H477 H 0.25668 0.608 0.17911 0.0
H478 H 0.42529 0.69845 0.22465 0.0
H479 H 0.34278 0.55916 0.21711 0.0
H480 H 0.28573 0.66199 0.18359 0.0
H481 H 0.33276 0.68132 0.15347 0.0
C482 C 0.37931 0.70612 0.1614 0.0
C483 C 0.40628 0.71044 0.18089 0.0
C484 C 0.29779 0.63952 0.19172 0.0
C485 C 0.35298 0.66934 0.19709 0.0
C486 C 0.28112 0.60885 0.1895 0.0
C487 C 0.29768 0.57925 0.1974 0.0
C488 C 0.33094 0.64027 0.20214 0.0
C489 C 0.32943 0.58152 0.21047 0.0
C490 C 0.3523 0.68607 0.16962 0.0
C491 C 0.40468 0.69581 0.20918 0.0
N492 N 0.34526 0.61151 0.21211 0.0
N493 N 0.37893 0.67495 0.21612 0.0
H494 H 0.30347 0.42128 0.22854 0.0
H495 H 0.39464 0.25439 0.17499 0.0
H496 H 0.29161 0.37609 0.14209 0.0
H497 H 0.44195 0.33106 0.22765 0.0
H498 H 0.34115 0.2842 0.17981 0.0
H499 H 0.33832 0.37347 0.24378 0.0
C500 C 0.30713 0.40065 0.21323 0.0
C501 C 0.29508 0.40252 0.18399 0.0
C502 C 0.36299 0.29367 0.19134 0.0
C503 C 0.33416 0.34812 0.20124 0.0
C504 C 0.39337 0.27657 0.18883 0.0
C505 C 0.42256 0.29053 0.20083 0.0
C506 C 0.362 0.32453 0.20627 0.0
C507 C 0.41986 0.31966 0.21804 0.0
C508 C 0.32703 0.37356 0.22187 0.0
C509 C 0.30077 0.37551 0.16477 0.0
N510 N 0.39015 0.33603 0.21993 0.0
N511 N 0.32019 0.3495 0.17364 0.0
H512 H 0.06953 0.38491 0.33331 0.0
H513 H 0.10231 0.45689 0.17044 0.0
H514 H 0.01895 0.34977 0.25435 0.0
H515 H 0.16284 0.48044 0.24723 0.0
H516 H 0.06286 0.42771 0.20285 0.0
H517 H 0.09478 0.42972 0.30406 0.0
C518 C 0.06333 0.38687 0.30991 0.0
C519 C 0.0426 0.36312 0.29614 0.0
C520 C 0.08453 0.43968 0.21265 0.0
C521 C 0.07161 0.4143 0.2625 0.0
C522 C 0.10704 0.45645 0.19417 0.0
C523 C 0.13629 0.47057 0.20607 0.0
C524 C 0.09132 0.43704 0.24322 0.0
C525 C 0.1409 0.46945 0.23702 0.0
C526 C 0.07782 0.41247 0.29321 0.0
C527 C 0.03516 0.36722 0.26582 0.0
N528 N 0.11889 0.45256 0.25447 0.0
N529 N 0.05002 0.39203 0.24993 0.0
H530 H 0.6279 0.04503 0.30876 0.0
H531 H 0.53397 0.09895 0.15951 0.0
H532 H 0.65356 0.00706 0.22169 0.0
H533 H 0.53033 0.15468 0.24178 0.0
H534 H 0.56638 0.05539 0.18467 0.0
H535 H 0.58083 0.07507 0.28686 0.0
C536 C 0.62338 0.04257 0.28509 0.0
C537 C 0.64513 0.02399 0.26693 0.0
C538 C 0.55803 0.07694 0.19727 0.0
C539 C 0.59126 0.05843 0.24177 0.0
C540 C 0.53941 0.10175 0.18299 0.0
C541 C 0.52991 0.13076 0.19847 0.0
C542 C 0.56693 0.08109 0.22727 0.0
C543 C 0.53757 0.13297 0.22888 0.0
C544 C 0.59651 0.05981 0.27262 0.0
C545 C 0.63773 0.02147 0.23647 0.0
N546 N 0.5559 0.10862 0.24221 0.0
N547 N 0.61162 0.03885 0.22477 0.0
H548 H 0.87177 0.54631 0.1861 0.0
H549 H 0.95529 0.60323 0.3394 0.0
H550 H 0.83828 0.51257 0.27239 0.0
H551 H 0.96946 0.65432 0.25571 0.0
H552 H 0.92299 0.56014 0.31358 0.0
H553 H 0.91791 0.57589 0.21001 0.0
C554 C 0.87436 0.54469 0.21005 0.0
C555 C 0.85073 0.52739 0.22733 0.0
C556 C 0.93359 0.58055 0.30084 0.0
C557 C 0.90355 0.56132 0.25479 0.0
C558 C 0.95216 0.6051 0.31552 0.0
C559 C 0.96464 0.63275 0.29975 0.0
C560 C 0.92765 0.58356 0.27017 0.0
C561 C 0.95992 0.63371 0.26882 0.0
C562 C 0.9007 0.56167 0.22367 0.0
C563 C 0.85563 0.52595 0.25823 0.0
N564 N 0.94151 0.60966 0.25509 0.0
N565 N 0.8813 0.54303 0.27102 0.0
H566 H 0.3466 0.0021 0.22961 0.0
H567 H 0.46985 0.847 0.24411 0.0
H568 H 0.36418 0.94929 0.31192 0.0
H569 H 0.46311 0.90823 0.16523 0.0
H570 H 0.43587 0.8879 0.27086 0.0
H571 H 0.39337 0.9719 0.20707 0.0
C572 C 0.36052 0.98446 0.24307 0.0
C573 C 0.35112 0.97789 0.27258 0.0
C574 C 0.44219 0.89265 0.24781 0.0
C575 C 0.40455 0.94302 0.24685 0.0
C576 C 0.46163 0.86928 0.23252 0.0
C577 C 0.46895 0.87393 0.20225 0.0
C578 C 0.42962 0.92071 0.23267 0.0
C579 C 0.45786 0.90344 0.18847 0.0
C580 C 0.38727 0.96723 0.23018 0.0
C581 C 0.37029 0.95494 0.289 0.0
N582 N 0.43832 0.92546 0.20366 0.0
N583 N 0.39578 0.93804 0.2758 0.0
H584 H 0.15385 0.52448 0.75625 0.0
H585 H 0.00609 0.65455 0.77307 0.0
H586 H 0.09867 0.53793 0.83799 0.0
H587 H 0.0493 0.62659 0.68855 0.0
H588 H 0.0346 0.60715 0.79625 0.0
H589 H 0.11115 0.55648 0.72994 0.0
C590 C 0.13248 0.53374 0.76859 0.0
C591 C 0.13011 0.52901 0.79944 0.0
C592 C 0.0374 0.61107 0.77253 0.0
C593 C 0.08133 0.56613 0.76955 0.0
C594 C 0.02113 0.63816 0.75929 0.0
C595 C 0.02582 0.64496 0.72894 0.0
C596 C 0.05878 0.59088 0.75535 0.0
C597 C 0.04534 0.62265 0.71212 0.0
C598 C 0.10805 0.55201 0.75355 0.0
C599 C 0.10167 0.54125 0.81423 0.0
N600 N 0.06152 0.59696 0.72564 0.0
N601 N 0.07868 0.55978 0.79924 0.0
H602 H 0.4656 0.09687 0.83651 0.0
H603 H 0.35947 0.05443 0.69075 0.0
H604 H 0.46669 0.15619 0.75625 0.0
H605 H 0.34493 0.00551 0.77542 0.0
H606 H 0.40748 0.08405 0.7114 0.0
H607 H 0.43058 0.05553 0.81122 0.0
C608 C 0.45901 0.10094 0.81342 0.0
C609 C 0.46863 0.13034 0.79862 0.0
C610 C 0.394 0.06659 0.72539 0.0
C611 C 0.42843 0.08322 0.76967 0.0
C612 C 0.36656 0.04962 0.71361 0.0
C613 C 0.34777 0.02783 0.73153 0.0
C614 C 0.40278 0.06182 0.75533 0.0
C615 C 0.35843 0.02237 0.7609 0.0
C616 C 0.43888 0.07738 0.79905 0.0
C617 C 0.45947 0.13414 0.76866 0.0
N618 N 0.38503 0.03953 0.77199 0.0
N619 N 0.43958 0.11106 0.75529 0.0
H620 H 0.99572 0.34615 0.76244 0.0
H621 H 0.84262 0.47107 0.74741 0.0
H622 H 0.94638 0.3674 0.67911 0.0
H623 H 0.90266 0.463 0.82693 0.0
H624 H 0.88416 0.43793 0.7206 0.0
H625 H 0.96611 0.39319 0.78513 0.0
C626 C 0.97903 0.36098 0.74879 0.0
C627 C 0.97315 0.35247 0.71894 0.0
C628 C 0.88853 0.44381 0.7438 0.0
C629 C 0.93888 0.40616 0.74485 0.0
C630 C 0.86479 0.46275 0.75914 0.0
C631 C 0.8689 0.46941 0.78959 0.0
C632 C 0.91641 0.43104 0.7591 0.0
C633 C 0.89828 0.45823 0.80354 0.0
C634 C 0.96212 0.38787 0.76176 0.0
C635 C 0.95146 0.37279 0.70228 0.0
N636 N 0.92064 0.43914 0.78831 0.0
N637 N 0.93474 0.39835 0.71558 0.0
H638 H 0.63505 0.94805 0.68622 0.0
H639 H 0.5358 0.90446 0.83553 0.0
H640 H 0.65814 0.99131 0.77187 0.0
H641 H 0.53083 0.8458 0.75494 0.0
H642 H 0.57046 0.9455 0.80949 0.0
H643 H 0.58701 0.91981 0.70834 0.0
C644 C 0.62981 0.95198 0.70961 0.0
C645 C 0.65104 0.97165 0.72734 0.0
C646 C 0.56137 0.92388 0.79743 0.0
C647 C 0.59601 0.93926 0.75278 0.0
C648 C 0.54144 0.90049 0.81222 0.0
C649 C 0.53085 0.87135 0.79751 0.0
C650 C 0.57056 0.91816 0.7677 0.0
C651 C 0.53883 0.86765 0.76727 0.0
C652 C 0.60237 0.93578 0.72222 0.0
C653 C 0.64272 0.97606 0.75744 0.0
N654 N 0.55849 0.8906 0.75345 0.0
N655 N 0.61604 0.95968 0.7693 0.0
H656 H 0.06313 0.22176 0.42112 0.0
H657 H 0.97771 0.3031 0.56309 0.0
H658 H 0.98969 0.30033 0.41389 0.0
H659 H 0.05802 0.2311 0.56522 0.0
H660 H 0.98726 0.31045 0.50932 0.0
H661 H 0.06763 0.23264 0.47418 0.0
C662 C 0.04818 0.24161 0.43079 0.0
C663 C 0.0257 0.25987 0.41333 0.0
C664 C 0.00322 0.29361 0.52174 0.0
C665 C 0.02996 0.27205 0.47439 0.0
C666 C 0.99787 0.28955 0.55238 0.0
C667 C 0.01674 0.26602 0.56834 0.0
C668 C 0.02763 0.27404 0.50733 0.0
C669 C 0.0425 0.24902 0.55356 0.0
C670 C 0.05074 0.2479 0.46113 0.0
C671 C 0.00722 0.28563 0.42679 0.0
N672 N 0.04691 0.25309 0.52391 0.0
N673 N 0.00922 0.29054 0.45676 0.0
H674 H 0.74217 0.04666 0.56544 0.0
H675 H 0.7459 0.93942 0.42658 0.0
H676 H 0.71353 0.94316 0.57369 0.0
H677 H 0.70127 0.03737 0.42075 0.0
H678 H 0.73487 0.93909 0.48025 0.0
H679 H 0.72805 0.04465 0.51237 0.0
C680 C 0.7322 0.02374 0.55608 0.0
C681 C 0.72892 0.99503 0.57366 0.0
C682 C 0.72668 0.96025 0.46708 0.0
C683 C 0.71384 0.99225 0.51323 0.0
C684 C 0.73304 0.96049 0.43658 0.0
C685 C 0.7245 0.9885 0.41946 0.0
C686 C 0.71288 0.98873 0.48057 0.0
C687 C 0.70806 0.01528 0.43331 0.0
C688 C 0.72404 0.02264 0.52595 0.0
C689 C 0.71616 0.96581 0.5607 0.0
N690 N 0.70359 0.01518 0.46332 0.0
N691 N 0.70988 0.96486 0.53095 0.0
H692 H 0.95026 0.74288 0.56835 0.0
H693 H 0.05208 0.73891 0.42654 0.0
H694 H 0.04954 0.70104 0.57215 0.0
H695 H 0.94883 0.70833 0.4221 0.0
H696 H 0.05276 0.72508 0.47969 0.0
H697 H 0.9482 0.73047 0.51495 0.0
C698 C 0.97128 0.73033 0.55796 0.0
C699 C 0.0001 0.72291 0.5744 0.0
C700 C 0.03024 0.72051 0.46692 0.0
C701 C 0.99839 0.70976 0.51355 0.0
C702 C 0.02983 0.72846 0.43672 0.0
C703 C 0.00037 0.72464 0.42022 0.0
C704 C 0.0006 0.70998 0.48077 0.0
C705 C 0.97203 0.71136 0.43425 0.0
C706 C 0.97007 0.72317 0.52762 0.0
C707 C 0.02684 0.70691 0.56009 0.0
N708 N 0.97253 0.70533 0.46404 0.0
N709 N 0.02574 0.70166 0.53018 0.0
H710 H 0.2839 0.05334 0.58384 0.0
H711 H 0.29284 0.96192 0.42603 0.0
H712 H 0.24793 0.95304 0.5691 0.0
H713 H 0.25705 0.06308 0.43549 0.0
H714 H 0.30139 0.95938 0.48022 0.0
H715 H 0.29817 0.05726 0.53052 0.0
C716 C 0.27985 0.03192 0.5695 0.0
C717 C 0.26452 0.00294 0.58052 0.0
C718 C 0.29269 0.98243 0.47019 0.0
C719 C 0.28143 0.0069 0.52045 0.0
C720 C 0.28807 0.98398 0.43939 0.0
C721 C 0.27416 0.01271 0.42655 0.0
C722 C 0.28405 0.01008 0.48787 0.0
C723 C 0.26775 0.04049 0.44476 0.0
C724 C 0.2879 0.03419 0.53927 0.0
C725 C 0.25948 0.97588 0.5612 0.0
N726 N 0.27257 0.03845 0.47462 0.0
N727 N 0.26789 0.9785 0.53202 0.0
H728 H 0.44392 0.7712 0.9327 0.0
H729 H 0.5581 0.78106 0.06548 0.0
H730 H 0.54338 0.81033 0.92013 0.0
H731 H 0.45476 0.80922 0.07643 0.0
H732 H 0.55439 0.79514 0.01257 0.0
H733 H 0.44615 0.78805 0.98504 0.0
C734 C 0.46587 0.78417 0.94089 0.0
C735 C 0.49358 0.7893 0.92235 0.0
C736 C 0.53282 0.79929 0.0267 0.0
C737 C 0.49676 0.80756 0.98213 0.0
C738 C 0.53493 0.79122 0.05681 0.0
C739 C 0.50667 0.79399 0.07508 0.0
C740 C 0.50185 0.80883 0.01468 0.0
C741 C 0.4771 0.80694 0.06293 0.0
C742 C 0.46711 0.79388 0.97066 0.0
C743 C 0.52153 0.80605 0.93386 0.0
N744 N 0.47512 0.81296 0.03319 0.0
N745 N 0.52285 0.81375 0.96335 0.0
H746 H 0.23304 0.44368 0.93289 0.0
H747 H 0.23182 0.55653 0.06684 0.0
H748 H 0.19674 0.54445 0.92199 0.0
H749 H 0.19833 0.45482 0.07769 0.0
H750 H 0.21659 0.55389 0.01409 0.0
H751 H 0.21813 0.44612 0.98571 0.0
C752 C 0.22109 0.46599 0.94157 0.0
C753 C 0.21616 0.49396 0.92333 0.0
C754 C 0.21156 0.5325 0.02819 0.0
C755 C 0.20017 0.49733 0.9836 0.0
C756 C 0.22028 0.53399 0.05819 0.0
C757 C 0.21626 0.50584 0.07637 0.0
C758 C 0.20007 0.50219 0.01618 0.0
C759 C 0.20158 0.47706 0.06426 0.0
C760 C 0.21249 0.46734 0.9716 0.0
C761 C 0.20079 0.52237 0.93547 0.0
N762 N 0.1949 0.47559 0.0346 0.0
N763 N 0.1942 0.52374 0.96516 0.0
H764 H 0.44541 0.23452 0.06655 0.0
H765 H 0.55698 0.23092 0.93153 0.0
H766 H 0.54613 0.19786 0.07699 0.0
H767 H 0.45505 0.19752 0.92192 0.0
H768 H 0.55475 0.21685 0.98454 0.0
H769 H 0.44732 0.21921 0.01379 0.0
C770 C 0.4676 0.22243 0.05779 0.0
C771 C 0.4957 0.2175 0.07587 0.0
C772 C 0.5332 0.21162 0.97067 0.0
C773 C 0.49847 0.20102 0.01568 0.0
C774 C 0.53446 0.21971 0.94053 0.0
C775 C 0.50613 0.21536 0.9226 0.0
C776 C 0.50298 0.20044 0.98307 0.0
C777 C 0.47741 0.20104 0.93515 0.0
C778 C 0.46865 0.21361 0.0278 0.0
C779 C 0.52396 0.20192 0.06363 0.0
N780 N 0.47619 0.19497 0.96493 0.0
N781 N 0.52503 0.19509 0.03398 0.0
H782 H 0.77438 0.55746 0.92516 0.0
H783 H 0.76523 0.4461 0.06016 0.0
H784 H 0.80215 0.45386 0.91565 0.0
H785 H 0.8061 0.54516 0.0707 0.0
H786 H 0.78072 0.4473 0.00744 0.0
H787 H 0.78845 0.55464 0.97815 0.0
C788 C 0.78443 0.53441 0.93416 0.0
C789 C 0.78716 0.50584 0.91628 0.0
C790 C 0.78719 0.4684 0.02145 0.0
C791 C 0.80198 0.50205 0.97674 0.0
C792 C 0.77826 0.46776 0.05143 0.0
C793 C 0.78435 0.49563 0.06954 0.0
C794 C 0.80108 0.49762 0.00937 0.0
C795 C 0.80112 0.52318 0.05732 0.0
C796 C 0.79248 0.53281 0.96431 0.0
C797 C 0.79994 0.47643 0.92885 0.0
N798 N 0.80808 0.52392 0.02768 0.0
N799 N 0.80598 0.47497 0.95862 0.0
loop_
_geom_bond_atom_site_label_1
_geom_bond_atom_site_label_2
_geom_bond_distance
_geom_bond_site_symmetry_2
_ccdc_geom_bond_type
Zn0 O3 2.031 . S
Zn0 O5 2.049 . S
Zn0 O10 2.067 1_455 S
Zn1 O2 1.962 . S
Zn1 O4 1.986 . S
Zn1 O6 1.996 . S
Zn1 O9 1.927 1_455 S
O2 Zn1 1.962 . S
O2 C7 1.254 . S
O3 Zn0 2.031 . S
O3 C7 1.269 . S
O4 Zn1 1.986 . S
O4 C11 1.262 . S
O5 Zn0 2.049 . S
O5 C13 1.260 . S
O6 Zn1 1.996 . S
O6 C13 1.257 . S
C7 O2 1.254 . S
C7 O3 1.269 . S
C8 O9 1.260 . S
C8 O10 1.270 . S
O9 Zn1 1.927 1_655 S
O9 C8 1.260 . S
O10 Zn0 2.067 1_655 S
O10 C8 1.270 . S
C11 O4 1.262 . S
C11 O12 1.232 . S
O12 C11 1.232 . S
C13 O5 1.260 . S
C13 O6 1.257 . S
Zn14 O17 2.031 . S
Zn14 O19 2.049 . S
Zn14 O24 2.067 1_545 S
Zn15 O16 1.962 . S
Zn15 O18 1.986 . S
Zn15 O20 1.996 . S
Zn15 O23 1.927 1_545 S
O16 Zn15 1.962 . S
O16 C21 1.254 . S
O17 Zn14 2.031 . S
O17 C21 1.269 . S
O18 Zn15 1.986 . S
O18 C25 1.262 . S
O19 Zn14 2.049 . S
O19 C27 1.260 . S
O20 Zn15 1.996 . S
O20 C27 1.257 . S
C21 O16 1.254 . S
C21 O17 1.269 . S
C22 O23 1.260 . S
C22 O24 1.270 . S
O23 Zn15 1.927 1_565 S
O23 C22 1.260 . S
O24 Zn14 2.067 1_565 S
O24 C22 1.270 . S
C25 O18 1.262 . S
C25 O26 1.232 . S
O26 C25 1.232 . S
C27 O19 1.260 . S
C27 O20 1.257 . S
Zn28 O31 2.031 . S
Zn28 O33 2.049 . S
Zn28 O38 2.067 1_655 S
Zn29 O30 1.962 . S
Zn29 O32 1.986 . S
Zn29 O34 1.996 . S
Zn29 O37 1.927 1_655 S
O30 Zn29 1.962 . S
O30 C35 1.254 . S
O31 Zn28 2.031 . S
O31 C35 1.269 . S
O32 Zn29 1.986 . S
O32 C39 1.262 . S
O33 Zn28 2.049 . S
O33 C41 1.260 . S
O34 Zn29 1.996 . S
O34 C41 1.257 . S
C35 O30 1.254 . S
C35 O31 1.269 . S
C36 O37 1.260 . S
C36 O38 1.270 . S
O37 Zn29 1.927 1_455 S
O37 C36 1.260 . S
O38 Zn28 2.067 1_455 S
O38 C36 1.270 . S
C39 O32 1.262 . S
C39 O40 1.232 . S
O40 C39 1.232 . S
C41 O33 1.260 . S
C41 O34 1.257 . S
Zn42 O45 2.031 . S
Zn42 O47 2.049 . S
Zn42 O52 2.067 1_565 S
Zn43 O44 1.962 . S
Zn43 O46 1.986 . S
Zn43 O48 1.996 . S
Zn43 O51 1.927 1_565 S
O44 Zn43 1.962 . S
O44 C49 1.254 . S
O45 Zn42 2.031 . S
O45 C49 1.269 . S
O46 Zn43 1.986 . S
O46 C53 1.262 . S
O47 Zn42 2.049 . S
O47 C55 1.260 . S
O48 Zn43 1.996 . S
O48 C55 1.257 . S
C49 O44 1.254 . S
C49 O45 1.269 . S
C50 O51 1.260 . S
C50 O52 1.270 . S
O51 Zn43 1.927 1_545 S
O51 C50 1.260 . S
O52 Zn42 2.067 1_545 S
O52 C50 1.270 . S
C53 O46 1.262 . S
C53 O54 1.232 . S
O54 C53 1.232 . S
C55 O47 1.260 . S
C55 O48 1.257 . S
Zn56 O59 2.031 . S
Zn56 O61 2.049 . S
Zn56 O66 2.067 1_455 S
Zn57 O58 1.962 . S
Zn57 O60 1.986 . S
Zn57 O62 1.996 . S
Zn57 O65 1.927 1_455 S
O58 Zn57 1.962 . S
O58 C63 1.254 . S
O59 Zn56 2.031 . S
O59 C63 1.269 . S
O60 Zn57 1.986 . S
O60 C67 1.262 . S
O61 Zn56 2.049 . S
O61 C69 1.260 . S
O62 Zn57 1.996 . S
O62 C69 1.257 . S
C63 O58 1.254 . S
C63 O59 1.269 . S
C64 O65 1.260 . S
C64 O66 1.270 . S
O65 Zn57 1.927 1_655 S
O65 C64 1.260 . S
O66 Zn56 2.067 1_655 S
O66 C64 1.270 . S
C67 O60 1.262 . S
C67 O68 1.232 . S
O68 C67 1.232 . S
C69 O61 1.260 . S
C69 O62 1.257 . S
Zn70 O73 2.031 . S
Zn70 O75 2.049 . S
Zn70 O80 2.067 1_545 S
Zn71 O72 1.962 . S
Zn71 O74 1.986 . S
Zn71 O76 1.996 . S
Zn71 O79 1.927 1_545 S
O72 Zn71 1.962 . S
O72 C77 1.254 . S
O73 Zn70 2.031 . S
O73 C77 1.269 . S
O74 Zn71 1.986 . S
O74 C81 1.262 . S
O75 Zn70 2.049 . S
O75 C83 1.260 . S
O76 Zn71 1.996 . S
O76 C83 1.257 . S
C77 O72 1.254 . S
C77 O73 1.269 . S
C78 O79 1.260 . S
C78 O80 1.270 . S
O79 Zn71 1.927 1_565 S
O79 C78 1.260 . S
O80 Zn70 2.067 1_565 S
O80 C78 1.270 . S
C81 O74 1.262 . S
C81 O82 1.232 . S
O82 C81 1.232 . S
C83 O75 1.260 . S
C83 O76 1.257 . S
Zn84 O87 2.031 . S
Zn84 O89 2.049 . S
Zn84 O94 2.067 1_655 S
Zn85 O86 1.962 . S
Zn85 O88 1.986 . S
Zn85 O90 1.996 . S
Zn85 O93 1.927 1_655 S
O86 Zn85 1.962 . S
O86 C91 1.254 . S
O87 Zn84 2.031 . S
O87 C91 1.269 . S
O88 Zn85 1.986 . S
O88 C95 1.262 . S
O89 Zn84 2.049 . S
O89 C97 1.260 . S
O90 Zn85 1.996 . S
O90 C97 1.257 . S
C91 O86 1.254 . S
C91 O87 1.269 . S
C92 O93 1.260 . S
C92 O94 1.270 . S
O93 Zn85 1.927 1_455 S
O93 C92 1.260 . S
O94 Zn84 2.067 1_455 S
O94 C92 1.270 . S
C95 O88 1.262 . S
C95 O96 1.232 . S
O96 C95 1.232 . S
C97 O89 1.260 . S
C97 O90 1.257 . S
Zn98 O101 2.031 . S
Zn98 O103 2.049 . S
Zn98 O108 2.067 1_565 S
Zn99 O100 1.962 . S
Zn99 O102 1.986 . S
Zn99 O104 1.996 . S
Zn99 O107 1.927 1_565 S
O100 Zn99 1.962 . S
O100 C105 1.254 . S
O101 Zn98 2.031 . S
O101 C105 1.269 . S
O102 Zn99 1.986 . S
O102 C109 1.262 . S
O103 Zn98 2.049 . S
O103 C111 1.260 . S
O104 Zn99 1.996 . S
O104 C111 1.257 . S
C105 O100 1.254 . S
C105 O101 1.269 . S
C106 O107 1.260 . S
C106 O108 1.270 . S
O107 Zn99 1.927 1_545 S
O107 C106 1.260 . S
O108 Zn98 2.067 1_545 S
O108 C106 1.270 . S
C109 O102 1.262 . S
C109 O110 1.232 . S
O110 C109 1.232 . S
C111 O103 1.260 . S
C111 O104 1.257 . S
Zn112 O115 2.031 . S
Zn112 O117 2.049 . S
Zn112 O122 2.067 . S
Zn113 O114 1.962 . S
Zn113 O116 1.986 . S
Zn113 O118 1.996 . S
Zn113 O121 1.943 . S
O114 Zn113 1.962 . S
O114 C119 1.254 . S
O115 Zn112 2.031 . S
O115 C119 1.269 . S
O116 Zn113 1.986 . S
O116 C123 1.262 . S
O117 Zn112 2.049 . S
O117 C125 1.260 . S
O118 Zn113 1.996 . S
O118 C125 1.257 . S
C119 O114 1.254 . S
C119 O115 1.269 . S
C120 O121 1.249 . S
C120 O122 1.270 . S
O121 Zn113 1.943 . S
O121 C120 1.249 . S
O122 Zn112 2.067 . S
O122 C120 1.270 . S
C123 O116 1.262 . S
C123 O124 1.232 . S
O124 C123 1.232 . S
C125 O117 1.260 . S
C125 O118 1.257 . S
Zn126 O129 2.031 . S
Zn126 O131 2.049 . S
Zn126 O136 2.067 . S
Zn127 O128 1.962 . S
Zn127 O130 1.986 . S
Zn127 O132 1.996 . S
Zn127 O135 1.943 . S
O128 Zn127 1.962 . S
O128 C133 1.254 . S
O129 Zn126 2.031 . S
O129 C133 1.269 . S
O130 Zn127 1.986 . S
O130 C137 1.262 . S
O131 Zn126 2.049 . S
O131 C139 1.260 . S
O132 Zn127 1.996 . S
O132 C139 1.257 . S
C133 O128 1.254 . S
C133 O129 1.269 . S
C134 O135 1.249 . S
C134 O136 1.270 . S
O135 Zn127 1.943 . S
O135 C134 1.249 . S
O136 Zn126 2.067 . S
O136 C134 1.270 . S
C137 O130 1.262 . S
C137 O138 1.232 . S
O138 C137 1.232 . S
C139 O131 1.260 . S
C139 O132 1.257 . S
Zn140 O143 2.031 . S
Zn140 O145 2.049 . S
Zn140 O150 2.067 . S
Zn141 O142 1.962 . S
Zn141 O144 1.986 . S
Zn141 O146 1.996 . S
Zn141 O149 1.943 . S
O142 Zn141 1.962 . S
O142 C147 1.254 . S
O143 Zn140 2.031 . S
O143 C147 1.269 . S
O144 Zn141 1.986 . S
O144 C151 1.262 . S
O145 Zn140 2.049 . S
O145 C153 1.260 . S
O146 Zn141 1.996 . S
O146 C153 1.257 . S
C147 O142 1.254 . S
C147 O143 1.269 . S
C148 O149 1.249 . S
C148 O150 1.270 . S
O149 Zn141 1.943 . S
O149 C148 1.249 . S
O150 Zn140 2.067 . S
O150 C148 1.270 . S
C151 O144 1.262 . S
C151 O152 1.232 . S
O152 C151 1.232 . S
C153 O145 1.260 . S
C153 O146 1.257 . S
Zn154 O157 2.031 . S
Zn154 O159 2.049 . S
Zn154 O164 2.067 . S
Zn155 O156 1.962 . S
Zn155 O158 1.986 . S
Zn155 O160 1.996 . S
Zn155 O163 1.943 . S
O156 Zn155 1.962 . S
O156 C161 1.254 . S
O157 Zn154 2.031 . S
O157 C161 1.269 . S
O158 Zn155 1.986 . S
O158 C165 1.262 . S
O159 Zn154 2.049 . S
O159 C167 1.260 . S
O160 Zn155 1.996 . S
O160 C167 1.257 . S
C161 O156 1.254 . S
C161 O157 1.269 . S
C162 O163 1.249 . S
C162 O164 1.270 . S
O163 Zn155 1.943 . S
O163 C162 1.249 . S
O164 Zn154 2.067 . S
O164 C162 1.270 . S
C165 O158 1.262 . S
C165 O166 1.232 . S
O166 C165 1.232 . S
C167 O159 1.260 . S
C167 O160 1.257 . S
Zn168 O171 2.031 . S
Zn168 O173 2.049 . S
Zn168 O178 2.067 . S
Zn169 O170 1.962 . S
Zn169 O172 1.986 . S
Zn169 O174 1.996 . S
Zn169 O177 1.943 . S
O170 Zn169 1.962 . S
O170 C175 1.254 . S
O171 Zn168 2.031 . S
O171 C175 1.269 . S
O172 Zn169 1.986 . S
O172 C179 1.262 . S
O173 Zn168 2.049 . S
O173 C181 1.260 . S
O174 Zn169 1.996 . S
O174 C181 1.257 . S
C175 O170 1.254 . S
C175 O171 1.269 . S
C176 O177 1.249 . S
C176 O178 1.270 . S
O177 Zn169 1.943 . S
O177 C176 1.249 . S
O178 Zn168 2.067 . S
O178 C176 1.270 . S
C179 O172 1.262 . S
C179 O180 1.232 . S
O180 C179 1.232 . S
C181 O173 1.260 . S
C181 O174 1.257 . S
Zn182 O185 2.031 . S
Zn182 O187 2.049 . S
Zn182 O192 2.067 . S
Zn183 O184 1.962 . S
Zn183 O186 1.986 . S
Zn183 O188 1.996 . S
Zn183 O191 1.943 . S
O184 Zn183 1.962 . S
O184 C189 1.254 . S
O185 Zn182 2.031 . S
O185 C189 1.269 . S
O186 Zn183 1.986 . S
O186 C193 1.262 . S
O187 Zn182 2.049 . S
O187 C195 1.260 . S
O188 Zn183 1.996 . S
O188 C195 1.257 . S
C189 O184 1.254 . S
C189 O185 1.269 . S
C190 O191 1.249 . S
C190 O192 1.270 . S
O191 Zn183 1.943 . S
O191 C190 1.249 . S
O192 Zn182 2.067 . S
O192 C190 1.270 . S
C193 O186 1.262 . S
C193 O194 1.232 . S
O194 C193 1.232 . S
C195 O187 1.260 . S
C195 O188 1.257 . S
Zn196 O199 2.031 . S
Zn196 O201 2.049 . S
Zn196 O206 2.067 . S
Zn197 O198 1.962 . S
Zn197 O200 1.986 . S
Zn197 O202 1.996 . S
Zn197 O205 1.943 . S
O198 Zn197 1.962 . S
O198 C203 1.254 . S
O199 Zn196 2.031 . S
O199 C203 1.269 . S
O200 Zn197 1.986 . S
O200 C207 1.262 . S
O201 Zn196 2.049 . S
O201 C209 1.260 . S
O202 Zn197 1.996 . S
O202 C209 1.257 . S
C203 O198 1.254 . S
C203 O199 1.269 . S
C204 O205 1.249 . S
C204 O206 1.270 . S
O205 Zn197 1.943 . S
O205 C204 1.249 . S
O206 Zn196 2.067 . S
O206 C204 1.270 . S
C207 O200 1.262 . S
C207 O208 1.232 . S
O208 C207 1.232 . S
C209 O201 1.260 . S
C209 O202 1.257 . S
Zn210 O213 2.031 . S
Zn210 O215 2.049 . S
Zn210 O220 2.067 . S
Zn211 O212 1.962 . S
Zn211 O214 1.986 . S
Zn211 O216 1.996 . S
Zn211 O219 1.943 . S
O212 Zn211 1.962 . S
O212 C217 1.254 . S
O213 Zn210 2.031 . S
O213 C217 1.269 . S
O214 Zn211 1.986 . S
O214 C221 1.262 . S
O215 Zn210 2.049 . S
O215 C223 1.260 . S
O216 Zn211 1.996 . S
O216 C223 1.257 . S
C217 O212 1.254 . S
C217 O213 1.269 . S
C218 O219 1.249 . S
C218 O220 1.270 . S
O219 Zn211 1.943 . S
O219 C218 1.249 . S
O220 Zn210 2.067 . S
O220 C218 1.270 . S
C221 O214 1.262 . S
C221 O222 1.232 . S
O222 C221 1.232 . S
C223 O215 1.260 . S
C223 O216 1.257 . S
H224 C230 0.930 . S
H225 C234 0.930 . S
H226 C239 0.929 . S
H227 C237 0.929 . S
H228 C232 0.929 . S
H229 C238 0.929 . S
C230 H224 0.930 . S
C230 C231 1.367 . S
C230 C238 1.378 . S
C231 C230 1.367 . S
C231 C239 1.433 . S
C232 H228 0.929 . S
C232 C234 1.378 . S
C232 C236 1.350 . S
C233 C236 1.463 . S
C233 C238 1.350 . S
C233 N241 1.427 . S
C234 H225 0.930 . S
C234 C232 1.378 . S
C234 C235 1.367 . S
C235 C234 1.367 . S
C235 C237 1.433 . S
C236 C232 1.350 . S
C236 C233 1.463 . S
C236 N240 1.427 . S
C237 H227 0.929 . S
C237 C235 1.433 . S
C237 N240 1.384 . S
C238 H229 0.929 . S
C238 C230 1.378 . S
C238 C233 1.350 . S
C239 H226 0.929 . S
C239 C231 1.433 . S
C239 N241 1.384 . S
N240 C236 1.427 . S
N240 C237 1.384 . S
N241 C233 1.427 . S
N241 C239 1.384 . S
H242 C248 0.930 . S
H243 C252 0.930 . S
H244 C257 0.929 . S
H245 C255 0.929 . S
H246 C250 0.929 . S
H247 C256 0.929 . S
C248 H242 0.930 . S
C248 C249 1.367 . S
C248 C256 1.378 . S
C249 C248 1.367 . S
C249 C257 1.433 . S
C250 H246 0.929 . S
C250 C252 1.378 . S
C250 C254 1.350 . S
C251 C254 1.463 . S
C251 C256 1.350 . S
C251 N259 1.427 . S
C252 H243 0.930 . S
C252 C250 1.378 . S
C252 C253 1.367 . S
C253 C252 1.367 . S
C253 C255 1.433 . S
C254 C250 1.350 . S
C254 C251 1.463 . S
C254 N258 1.427 . S
C255 H245 0.929 . S
C255 C253 1.433 . S
C255 N258 1.384 . S
C256 H247 0.929 . S
C256 C248 1.378 . S
C256 C251 1.350 . S
C257 H244 0.929 . S
C257 C249 1.433 . S
C257 N259 1.384 . S
N258 C254 1.427 . S
N258 C255 1.384 . S
N259 C251 1.427 . S
N259 C257 1.384 . S
H260 C266 0.930 . S
H261 C270 0.930 . S
H262 C275 0.929 . S
H263 C273 0.929 . S
H264 C268 0.929 . S
H265 C274 0.929 . S
C266 H260 0.930 . S
C266 C267 1.367 . S
C266 C274 1.378 . S
C267 C266 1.367 . S
C267 C275 1.433 . S
C268 H264 0.929 . S
C268 C270 1.378 . S
C268 C272 1.350 . S
C269 C272 1.463 . S
C269 C274 1.350 . S
C269 N277 1.427 . S
C270 H261 0.930 . S
C270 C268 1.378 . S
C270 C271 1.367 . S
C271 C270 1.367 . S
C271 C273 1.433 . S
C272 C268 1.350 . S
C272 C269 1.463 . S
C272 N276 1.427 . S
C273 H263 0.929 . S
C273 C271 1.433 . S
C273 N276 1.384 . S
C274 H265 0.929 . S
C274 C266 1.378 . S
C274 C269 1.350 . S
C275 H262 0.929 . S
C275 C267 1.433 . S
C275 N277 1.384 . S
N276 C272 1.427 . S
N276 C273 1.384 . S
N277 C269 1.427 . S
N277 C275 1.384 . S
H278 C284 0.930 . S
H279 C288 0.930 . S
H280 C293 0.929 . S
H281 C291 0.929 . S
H282 C286 0.929 . S
H283 C292 0.929 . S
C284 H278 0.930 . S
C284 C285 1.367 . S
C284 C292 1.378 . S
C285 C284 1.367 . S
C285 C293 1.433 . S
C286 H282 0.929 . S
C286 C288 1.378 . S
C286 C290 1.350 . S
C287 C290 1.463 . S
C287 C292 1.350 . S
C287 N295 1.427 . S
C288 H279 0.930 . S
C288 C286 1.378 . S
C288 C289 1.367 . S
C289 C288 1.367 . S
C289 C291 1.433 . S
C290 C286 1.350 . S
C290 C287 1.463 . S
C290 N294 1.427 . S
C291 H281 0.929 . S
C291 C289 1.433 . S
C291 N294 1.384 . S
C292 H283 0.929 . S
C292 C284 1.378 . S
C292 C287 1.350 . S
C293 H280 0.929 . S
C293 C285 1.433 . S
C293 N295 1.384 . S
N294 C290 1.427 . S
N294 C291 1.384 . S
N295 C287 1.427 . S
N295 C293 1.384 . S
H296 C302 0.930 . S
H297 C306 0.930 . S
H298 C311 0.929 . S
H299 C309 0.929 . S
H300 C304 0.929 . S
H301 C310 0.929 . S
C302 H296 0.930 . S
C302 C303 1.367 . S
C302 C310 1.378 . S
C303 C302 1.367 . S
C303 C311 1.433 . S
C304 H300 0.929 . S
C304 C306 1.378 . S
C304 C308 1.350 . S
C305 C308 1.463 . S
C305 C310 1.350 . S
C305 N313 1.427 . S
C306 H297 0.930 . S
C306 C304 1.378 . S
C306 C307 1.367 . S
C307 C306 1.367 . S
C307 C309 1.433 . S
C308 C304 1.350 . S
C308 C305 1.463 . S
C308 N312 1.427 . S
C309 H299 0.929 . S
C309 C307 1.433 . S
C309 N312 1.384 . S
C310 H301 0.929 . S
C310 C302 1.378 . S
C310 C305 1.350 . S
C311 H298 0.929 . S
C311 C303 1.433 . S
C311 N313 1.384 . S
N312 C308 1.427 . S
N312 C309 1.384 . S
N313 C305 1.427 . S
N313 C311 1.384 . S
H314 C320 0.930 . S
H315 C324 0.930 . S
H316 C329 0.929 . S
H317 C327 0.929 . S
H318 C322 0.929 . S
H319 C328 0.929 . S
C320 H314 0.930 . S
C320 C321 1.367 . S
C320 C328 1.378 . S
C321 C320 1.367 . S
C321 C329 1.433 . S
C322 H318 0.929 . S
C322 C324 1.378 . S
C322 C326 1.350 . S
C323 C326 1.463 . S
C323 C328 1.350 . S
C323 N331 1.427 . S
C324 H315 0.930 . S
C324 C322 1.378 . S
C324 C325 1.367 . S
C325 C324 1.367 . S
C325 C327 1.433 . S
C326 C322 1.350 . S
C326 C323 1.463 . S
C326 N330 1.427 . S
C327 H317 0.929 . S
C327 C325 1.433 . S
C327 N330 1.384 . S
C328 H319 0.929 . S
C328 C320 1.378 . S
C328 C323 1.350 . S
C329 H316 0.929 . S
C329 C321 1.433 . S
C329 N331 1.384 . S
N330 C326 1.427 . S
N330 C327 1.384 . S
N331 C323 1.427 . S
N331 C329 1.384 . S
H332 C338 0.930 . S
H333 C342 0.930 . S
H334 C347 0.929 . S
H335 C345 0.929 . S
H336 C340 0.929 . S
H337 C346 0.929 . S
C338 H332 0.930 . S
C338 C339 1.367 . S
C338 C346 1.378 . S
C339 C338 1.367 . S
C339 C347 1.433 . S
C340 H336 0.929 . S
C340 C342 1.378 . S
C340 C344 1.350 . S
C341 C344 1.463 . S
C341 C346 1.350 . S
C341 N349 1.427 . S
C342 H333 0.930 . S
C342 C340 1.378 . S
C342 C343 1.367 . S
C343 C342 1.367 . S
C343 C345 1.433 . S
C344 C340 1.350 . S
C344 C341 1.463 . S
C344 N348 1.427 . S
C345 H335 0.929 . S
C345 C343 1.433 . S
C345 N348 1.384 . S
C346 H337 0.929 . S
C346 C338 1.378 . S
C346 C341 1.350 . S
C347 H334 0.929 . S
C347 C339 1.433 . S
C347 N349 1.384 . S
N348 C344 1.427 . S
N348 C345 1.384 . S
N349 C341 1.427 . S
N349 C347 1.384 . S
H350 C356 0.930 . S
H351 C360 0.930 . S
H352 C365 0.929 . S
H353 C363 0.929 . S
H354 C358 0.929 . S
H355 C364 0.929 . S
C356 H350 0.930 . S
C356 C357 1.367 . S
C356 C364 1.378 . S
C357 C356 1.367 . S
C357 C365 1.433 . S
C358 H354 0.929 . S
C358 C360 1.378 . S
C358 C362 1.350 . S
C359 C362 1.463 . S
C359 C364 1.350 . S
C359 N367 1.427 . S
C360 H351 0.930 . S
C360 C358 1.378 . S
C360 C361 1.367 . S
C361 C360 1.367 . S
C361 C363 1.433 . S
C362 C358 1.350 . S
C362 C359 1.463 . S
C362 N366 1.427 . S
C363 H353 0.929 . S
C363 C361 1.433 . S
C363 N366 1.384 . S
C364 H355 0.929 . S
C364 C356 1.378 . S
C364 C359 1.350 . S
C365 H352 0.929 . S
C365 C357 1.433 . S
C365 N367 1.384 . S
N366 C362 1.427 . S
N366 C363 1.384 . S
N367 C359 1.427 . S
N367 C365 1.384 . S
H368 C374 0.930 . S
H369 C378 0.930 . S
H370 C383 0.929 . S
H371 C381 0.929 . S
H372 C376 0.929 . S
H373 C382 0.929 . S
C374 H368 0.930 . S
C374 C375 1.367 . S
C374 C382 1.378 . S
C375 C374 1.367 . S
C375 C383 1.433 . S
C376 H372 0.929 . S
C376 C378 1.378 . S
C376 C380 1.350 . S
C377 C380 1.463 . S
C377 C382 1.350 . S
C377 N385 1.427 . S
C378 H369 0.930 . S
C378 C376 1.378 . S
C378 C379 1.367 . S
C379 C378 1.367 . S
C379 C381 1.433 . S
C380 C376 1.350 . S
C380 C377 1.463 . S
C380 N384 1.427 . S
C381 H371 0.929 . S
C381 C379 1.433 . S
C381 N384 1.384 . S
C382 H373 0.929 . S
C382 C374 1.378 . S
C382 C377 1.350 . S
C383 H370 0.929 . S
C383 C375 1.433 . S
C383 N385 1.384 . S
N384 C380 1.427 . S
N384 C381 1.384 . S
N385 C377 1.427 . S
N385 C383 1.384 . S
H386 C392 0.930 . S
H387 C396 0.930 . S
H388 C401 0.929 . S
H389 C399 0.929 . S
H390 C394 0.929 . S
H391 C400 0.929 . S
C392 H386 0.930 . S
C392 C393 1.367 . S
C392 C400 1.378 . S
C393 C392 1.367 . S
C393 C401 1.433 . S
C394 H390 0.929 . S
C394 C396 1.378 . S
C394 C398 1.350 . S
C395 C398 1.463 . S
C395 C400 1.350 . S
C395 N403 1.427 . S
C396 H387 0.930 . S
C396 C394 1.378 . S
C396 C397 1.367 . S
C397 C396 1.367 . S
C397 C399 1.433 . S
C398 C394 1.350 . S
C398 C395 1.463 . S
C398 N402 1.427 . S
C399 H389 0.929 . S
C399 C397 1.433 . S
C399 N402 1.384 . S
C400 H391 0.929 . S
C400 C392 1.378 . S
C400 C395 1.350 . S
C401 H388 0.929 . S
C401 C393 1.433 . S
C401 N403 1.384 . S
N402 C398 1.427 . S
N402 C399 1.384 . S
N403 C395 1.427 . S
N403 C401 1.384 . S
H404 C410 0.930 . S
H405 C414 0.930 . S
H406 C419 0.929 . S
H407 C417 0.929 . S
H408 C412 0.929 . S
H409 C418 0.929 . S
C410 H404 0.930 . S
C410 C411 1.367 . S
C410 C418 1.378 . S
C411 C410 1.367 . S
C411 C419 1.433 . S
C412 H408 0.929 . S
C412 C414 1.378 . S
C412 C416 1.350 . S
C413 C416 1.463 . S
C413 C418 1.350 . S
C413 N421 1.427 . S
C414 H405 0.930 . S
C414 C412 1.378 . S
C414 C415 1.367 . S
C415 C414 1.367 . S
C415 C417 1.433 . S
C416 C412 1.350 . S
C416 C413 1.463 . S
C416 N420 1.427 . S
C417 H407 0.929 . S
C417 C415 1.433 . S
C417 N420 1.384 . S
C418 H409 0.929 . S
C418 C410 1.378 . S
C418 C413 1.350 . S
C419 H406 0.929 . S
C419 C411 1.433 . S
C419 N421 1.384 . S
N420 C416 1.427 . S
N420 C417 1.384 . S
N421 C413 1.427 . S
N421 C419 1.384 . S
H422 C428 0.930 . S
H423 C432 0.930 . S
H424 C437 0.929 . S
H425 C435 0.929 . S
H426 C430 0.929 . S
H427 C436 0.929 . S
C428 H422 0.930 . S
C428 C429 1.367 . S
C428 C436 1.378 . S
C429 C428 1.367 . S
C429 C437 1.433 . S
C430 H426 0.929 . S
C430 C432 1.378 . S
C430 C434 1.350 . S
C431 C434 1.463 . S
C431 C436 1.350 . S
C431 N439 1.427 . S
C432 H423 0.930 . S
C432 C430 1.378 . S
C432 C433 1.367 . S
C433 C432 1.367 . S
C433 C435 1.433 . S
C434 C430 1.350 . S
C434 C431 1.463 . S
C434 N438 1.427 . S
C435 H425 0.929 . S
C435 C433 1.433 . S
C435 N438 1.384 . S
C436 H427 0.929 . S
C436 C428 1.378 . S
C436 C431 1.350 . S
C437 H424 0.929 . S
C437 C429 1.433 . S
C437 N439 1.384 . S
N438 C434 1.427 . S
N438 C435 1.384 . S
N439 C431 1.427 . S
N439 C437 1.384 . S
H440 C446 0.930 . S
H441 C450 0.930 . S
H442 C455 0.929 . S
H443 C453 0.929 . S
H444 C448 0.929 . S
H445 C454 0.929 . S
C446 H440 0.930 . S
C446 C447 1.367 . S
C446 C454 1.378 . S
C447 C446 1.367 . S
C447 C455 1.433 . S
C448 H444 0.929 . S
C448 C450 1.378 . S
C448 C452 1.350 . S
C449 C452 1.463 . S
C449 C454 1.350 . S
C449 N457 1.427 . S
C450 H441 0.930 . S
C450 C448 1.378 . S
C450 C451 1.367 . S
C451 C450 1.367 . S
C451 C453 1.433 . S
C452 C448 1.350 . S
C452 C449 1.463 . S
C452 N456 1.427 . S
C453 H443 0.929 . S
C453 C451 1.433 . S
C453 N456 1.384 . S
C454 H445 0.929 . S
C454 C446 1.378 . S
C454 C449 1.350 . S
C455 H442 0.929 . S
C455 C447 1.433 . S
C455 N457 1.384 . S
N456 C452 1.427 . S
N456 C453 1.384 . S
N457 C449 1.427 . S
N457 C455 1.384 . S
H458 C464 0.930 . S
H459 C468 0.930 . S
H460 C473 0.929 . S
H461 C471 0.929 . S
H462 C466 0.929 . S
H463 C472 0.929 . S
C464 H458 0.930 . S
C464 C465 1.367 . S
C464 C472 1.378 . S
C465 C464 1.367 . S
C465 C473 1.433 . S
C466 H462 0.929 . S
C466 C468 1.378 . S
C466 C470 1.350 . S
C467 C470 1.463 . S
C467 C472 1.350 . S
C467 N475 1.427 . S
C468 H459 0.930 . S
C468 C466 1.378 . S
C468 C469 1.367 . S
C469 C468 1.367 . S
C469 C471 1.433 . S
C470 C466 1.350 . S
C470 C467 1.463 . S
C470 N474 1.427 . S
C471 H461 0.929 . S
C471 C469 1.433 . S
C471 N474 1.384 . S
C472 H463 0.929 . S
C472 C464 1.378 . S
C472 C467 1.350 . S
C473 H460 0.929 . S
C473 C465 1.433 . S
C473 N475 1.384 . S
N474 C470 1.427 . S
N474 C471 1.384 . S
N475 C467 1.427 . S
N475 C473 1.384 . S
H476 C482 0.930 . S
H477 C486 0.930 . S
H478 C491 0.929 . S
H479 C489 0.929 . S
H480 C484 0.929 . S
H481 C490 0.929 . S
C482 H476 0.930 . S
C482 C483 1.367 . S
C482 C490 1.378 . S
C483 C482 1.367 . S
C483 C491 1.433 . S
C484 H480 0.929 . S
C484 C486 1.378 . S
C484 C488 1.350 . S
C485 C488 1.463 . S
C485 C490 1.350 . S
C485 N493 1.427 . S
C486 H477 0.930 . S
C486 C484 1.378 . S
C486 C487 1.367 . S
C487 C486 1.367 . S
C487 C489 1.433 . S
C488 C484 1.350 . S
C488 C485 1.463 . S
C488 N492 1.427 . S
C489 H479 0.929 . S
C489 C487 1.433 . S
C489 N492 1.384 . S
C490 H481 0.929 . S
C490 C482 1.378 . S
C490 C485 1.350 . S
C491 H478 0.929 . S
C491 C483 1.433 . S
C491 N493 1.384 . S
N492 C488 1.427 . S
N492 C489 1.384 . S
N493 C485 1.427 . S
N493 C491 1.384 . S
H494 C500 0.930 . S
H495 C504 0.930 . S
H496 C509 0.929 . S
H497 C507 0.929 . S
H498 C502 0.929 . S
H499 C508 0.929 . S
C500 H494 0.930 . S
C500 C501 1.367 . S
C500 C508 1.378 . S
C501 C500 1.367 . S
C501 C509 1.433 . S
C502 H498 0.929 . S
C502 C504 1.378 . S
C502 C506 1.350 . S
C503 C506 1.463 . S
C503 C508 1.350 . S
C503 N511 1.427 . S
C504 H495 0.930 . S
C504 C502 1.378 . S
C504 C505 1.367 . S
C505 C504 1.367 . S
C505 C507 1.433 . S
C506 C502 1.350 . S
C506 C503 1.463 . S
C506 N510 1.427 . S
C507 H497 0.929 . S
C507 C505 1.433 . S
C507 N510 1.384 . S
C508 H499 0.929 . S
C508 C500 1.378 . S
C508 C503 1.350 . S
C509 H496 0.929 . S
C509 C501 1.433 . S
C509 N511 1.384 . S
N510 C506 1.427 . S
N510 C507 1.384 . S
N511 C503 1.427 . S
N511 C509 1.384 . S
H512 C518 0.930 . S
H513 C522 0.930 . S
H514 C527 0.929 . S
H515 C525 0.929 . S
H516 C520 0.929 . S
H517 C526 0.929 . S
C518 H512 0.930 . S
C518 C519 1.367 . S
C518 C526 1.378 . S
C519 C518 1.367 . S
C519 C527 1.433 . S
C520 H516 0.929 . S
C520 C522 1.378 . S
C520 C524 1.350 . S
C521 C524 1.463 . S
C521 C526 1.350 . S
C521 N529 1.427 . S
C522 H513 0.930 . S
C522 C520 1.378 . S
C522 C523 1.367 . S
C523 C522 1.367 . S
C523 C525 1.433 . S
C524 C520 1.350 . S
C524 C521 1.463 . S
C524 N528 1.427 . S
C525 H515 0.929 . S
C525 C523 1.433 . S
C525 N528 1.384 . S
C526 H517 0.929 . S
C526 C518 1.378 . S
C526 C521 1.350 . S
C527 H514 0.929 . S
C527 C519 1.433 . S
C527 N529 1.384 . S
N528 C524 1.427 . S
N528 C525 1.384 . S
N529 C521 1.427 . S
N529 C527 1.384 . S
H530 C536 0.930 . S
H531 C540 0.930 . S
H532 C545 0.929 . S
H533 C543 0.929 . S
H534 C538 0.929 . S
H535 C544 0.929 . S
C536 H530 0.930 . S
C536 C537 1.367 . S
C536 C544 1.378 . S
C537 C536 1.367 . S
C537 C545 1.433 . S
C538 H534 0.929 . S
C538 C540 1.378 . S
C538 C542 1.350 . S
C539 C542 1.463 . S
C539 C544 1.350 . S
C539 N547 1.427 . S
C540 H531 0.930 . S
C540 C538 1.378 . S
C540 C541 1.367 . S
C541 C540 1.367 . S
C541 C543 1.433 . S
C542 C538 1.350 . S
C542 C539 1.463 . S
C542 N546 1.427 . S
C543 H533 0.929 . S
C543 C541 1.433 . S
C543 N546 1.384 . S
C544 H535 0.929 . S
C544 C536 1.378 . S
C544 C539 1.350 . S
C545 H532 0.929 . S
C545 C537 1.433 . S
C545 N547 1.384 . S
N546 C542 1.427 . S
N546 C543 1.384 . S
N547 C539 1.427 . S
N547 C545 1.384 . S
H548 C554 0.930 . S
H549 C558 0.930 . S
H550 C563 0.929 . S
H551 C561 0.929 . S
H552 C556 0.929 . S
H553 C562 0.929 . S
C554 H548 0.930 . S
C554 C555 1.367 . S
C554 C562 1.378 . S
C555 C554 1.367 . S
C555 C563 1.433 . S
C556 H552 0.929 . S
C556 C558 1.378 . S
C556 C560 1.350 . S
C557 C560 1.463 . S
C557 C562 1.350 . S
C557 N565 1.427 . S
C558 H549 0.930 . S
C558 C556 1.378 . S
C558 C559 1.367 . S
C559 C558 1.367 . S
C559 C561 1.433 . S
C560 C556 1.350 . S
C560 C557 1.463 . S
C560 N564 1.427 . S
C561 H551 0.929 . S
C561 C559 1.433 . S
C561 N564 1.384 . S
C562 H553 0.929 . S
C562 C554 1.378 . S
C562 C557 1.350 . S
C563 H550 0.929 . S
C563 C555 1.433 . S
C563 N565 1.384 . S
N564 C560 1.427 . S
N564 C561 1.384 . S
N565 C557 1.427 . S
N565 C563 1.384 . S
H566 C572 0.930 . S
H567 C576 0.930 . S
H568 C581 0.929 . S
H569 C579 0.929 . S
H570 C574 0.929 . S
H571 C580 0.929 . S
C572 H566 0.930 . S
C572 C573 1.367 . S
C572 C580 1.378 . S
C573 C572 1.367 . S
C573 C581 1.433 . S
C574 H570 0.929 . S
C574 C576 1.378 . S
C574 C578 1.350 . S
C575 C578 1.463 . S
C575 C580 1.350 . S
C575 N583 1.427 . S
C576 H567 0.930 . S
C576 C574 1.378 . S
C576 C577 1.367 . S
C577 C576 1.367 . S
C577 C579 1.433 . S
C578 C574 1.350 . S
C578 C575 1.463 . S
C578 N582 1.427 . S
C579 H569 0.929 . S
C579 C577 1.433 . S
C579 N582 1.384 . S
C580 H571 0.929 . S
C580 C572 1.378 . S
C580 C575 1.350 . S
C581 H568 0.929 . S
C581 C573 1.433 . S
C581 N583 1.384 . S
N582 C578 1.427 . S
N582 C579 1.384 . S
N583 C575 1.427 . S
N583 C581 1.384 . S
H584 C590 0.930 . S
H585 C594 0.930 . S
H586 C599 0.929 . S
H587 C597 0.929 . S
H588 C592 0.929 . S
H589 C598 0.929 . S
C590 H584 0.930 . S
C590 C591 1.367 . S
C590 C598 1.378 . S
C591 C590 1.367 . S
C591 C599 1.433 . S
C592 H588 0.929 . S
C592 C594 1.378 . S
C592 C596 1.350 . S
C593 C596 1.463 . S
C593 C598 1.350 . S
C593 N601 1.427 . S
C594 H585 0.930 . S
C594 C592 1.378 . S
C594 C595 1.367 . S
C595 C594 1.367 . S
C595 C597 1.433 . S
C596 C592 1.350 . S
C596 C593 1.463 . S
C596 N600 1.427 . S
C597 H587 0.929 . S
C597 C595 1.433 . S
C597 N600 1.384 . S
C598 H589 0.929 . S
C598 C590 1.378 . S
C598 C593 1.350 . S
C599 H586 0.929 . S
C599 C591 1.433 . S
C599 N601 1.384 . S
N600 C596 1.427 . S
N600 C597 1.384 . S
N601 C593 1.427 . S
N601 C599 1.384 . S
H602 C608 0.930 . S
H603 C612 0.930 . S
H604 C617 0.929 . S
H605 C615 0.929 . S
H606 C610 0.929 . S
H607 C616 0.929 . S
C608 H602 0.930 . S
C608 C609 1.367 . S
C608 C616 1.378 . S
C609 C608 1.367 . S
C609 C617 1.433 . S
C610 H606 0.929 . S
C610 C612 1.378 . S
C610 C614 1.350 . S
C611 C614 1.463 . S
C611 C616 1.350 . S
C611 N619 1.427 . S
C612 H603 0.930 . S
C612 C610 1.378 . S
C612 C613 1.367 . S
C613 C612 1.367 . S
C613 C615 1.433 . S
C614 C610 1.350 . S
C614 C611 1.463 . S
C614 N618 1.427 . S
C615 H605 0.929 . S
C615 C613 1.433 . S
C615 N618 1.384 . S
C616 H607 0.929 . S
C616 C608 1.378 . S
C616 C611 1.350 . S
C617 H604 0.929 . S
C617 C609 1.433 . S
C617 N619 1.384 . S
N618 C614 1.427 . S
N618 C615 1.384 . S
N619 C611 1.427 . S
N619 C617 1.384 . S
H620 C626 0.930 . S
H621 C630 0.930 . S
H622 C635 0.929 . S
H623 C633 0.929 . S
H624 C628 0.929 . S
H625 C634 0.929 . S
C626 H620 0.930 . S
C626 C627 1.367 . S
C626 C634 1.378 . S
C627 C626 1.367 . S
C627 C635 1.433 . S
C628 H624 0.929 . S
C628 C630 1.378 . S
C628 C632 1.350 . S
C629 C632 1.463 . S
C629 C634 1.350 . S
C629 N637 1.427 . S
C630 H621 0.930 . S
C630 C628 1.378 . S
C630 C631 1.367 . S
C631 C630 1.367 . S
C631 C633 1.433 . S
C632 C628 1.350 . S
C632 C629 1.463 . S
C632 N636 1.427 . S
C633 H623 0.929 . S
C633 C631 1.433 . S
C633 N636 1.384 . S
C634 H625 0.929 . S
C634 C626 1.378 . S
C634 C629 1.350 . S
C635 H622 0.929 . S
C635 C627 1.433 . S
C635 N637 1.384 . S
N636 C632 1.427 . S
N636 C633 1.384 . S
N637 C629 1.427 . S
N637 C635 1.384 . S
H638 C644 0.930 . S
H639 C648 0.930 . S
H640 C653 0.929 . S
H641 C651 0.929 . S
H642 C646 0.929 . S
H643 C652 0.929 . S
C644 H638 0.930 . S
C644 C645 1.367 . S
C644 C652 1.378 . S
C645 C644 1.367 . S
C645 C653 1.433 . S
C646 H642 0.929 . S
C646 C648 1.378 . S
C646 C650 1.350 . S
C647 C650 1.463 . S
C647 C652 1.350 . S
C647 N655 1.427 . S
C648 H639 0.930 . S
C648 C646 1.378 . S
C648 C649 1.367 . S
C649 C648 1.367 . S
C649 C651 1.433 . S
C650 C646 1.350 . S
C650 C647 1.463 . S
C650 N654 1.427 . S
C651 H641 0.929 . S
C651 C649 1.433 . S
C651 N654 1.384 . S
C652 H643 0.929 . S
C652 C644 1.378 . S
C652 C647 1.350 . S
C653 H640 0.929 . S
C653 C645 1.433 . S
C653 N655 1.384 . S
N654 C650 1.427 . S
N654 C651 1.384 . S
N655 C647 1.427 . S
N655 C653 1.384 . S
H656 C662 0.930 . S
H657 C666 0.930 . S
H658 C671 0.929 . S
H659 C669 0.929 . S
H660 C664 0.929 . S
H661 C670 0.929 . S
C662 H656 0.930 . S
C662 C663 1.367 . S
C662 C670 1.378 . S
C663 C662 1.367 . S
C663 C671 1.433 1_455 S
C664 H660 0.929 . S
C664 C666 1.378 . S
C664 C668 1.350 . S
C665 C668 1.463 1_455 S
C665 C670 1.350 . S
C665 N673 1.427 1_455 S
C666 H657 0.930 . S
C666 C664 1.378 . S
C666 C667 1.367 . S
C667 C666 1.367 . S
C667 C669 1.433 1_655 S
C668 C664 1.350 . S
C668 C665 1.463 1_655 S
C668 N672 1.427 1_655 S
C669 H659 0.929 . S
C669 C667 1.433 1_455 S
C669 N672 1.384 . S
C670 H661 0.929 . S
C670 C662 1.378 . S
C670 C665 1.350 . S
C671 H658 0.929 . S
C671 C663 1.433 1_655 S
C671 N673 1.384 . S
N672 C668 1.427 1_455 S
N672 C669 1.384 . S
N673 C665 1.427 1_655 S
N673 C671 1.384 . S
H674 C680 0.930 . S
H675 C684 0.930 . S
H676 C689 0.929 . S
H677 C687 0.929 . S
H678 C682 0.929 . S
H679 C688 0.929 . S
C680 H674 0.930 . S
C680 C681 1.367 1_545 S
C680 C688 1.378 . S
C681 C680 1.367 1_565 S
C681 C689 1.433 . S
C682 H678 0.929 . S
C682 C684 1.378 . S
C682 C686 1.350 1_565 S
C683 C686 1.463 1_565 S
C683 C688 1.350 1_565 S
C683 N691 1.427 . S
C684 H675 0.930 . S
C684 C682 1.378 . S
C684 C685 1.367 1_565 S
C685 C684 1.367 1_545 S
C685 C687 1.433 . S
C686 C682 1.350 1_545 S
C686 C683 1.463 1_545 S
C686 N690 1.427 . S
C687 H677 0.929 . S
C687 C685 1.433 . S
C687 N690 1.384 . S
C688 H679 0.929 . S
C688 C680 1.378 . S
C688 C683 1.350 1_545 S
C689 H676 0.929 . S
C689 C681 1.433 . S
C689 N691 1.384 . S
N690 C686 1.427 . S
N690 C687 1.384 . S
N691 C683 1.427 . S
N691 C689 1.384 . S
H692 C698 0.930 . S
H693 C702 0.930 . S
H694 C707 0.929 . S
H695 C705 0.929 . S
H696 C700 0.929 . S
H697 C706 0.929 . S
C698 H692 0.930 . S
C698 C699 1.367 1_655 S
C698 C706 1.378 . S
C699 C698 1.367 1_455 S
C699 C707 1.433 . S
C700 H696 0.929 . S
C700 C702 1.378 . S
C700 C704 1.350 1_455 S
C701 C704 1.463 1_455 S
C701 C706 1.350 1_455 S
C701 N709 1.427 . S
C702 H693 0.930 . S
C702 C700 1.378 . S
C702 C703 1.367 1_455 S
C703 C702 1.367 1_655 S
C703 C705 1.433 . S
C704 C700 1.350 1_655 S
C704 C701 1.463 1_655 S
C704 N708 1.427 . S
C705 H695 0.929 . S
C705 C703 1.433 . S
C705 N708 1.384 . S
C706 H697 0.929 . S
C706 C698 1.378 . S
C706 C701 1.350 1_655 S
C707 H694 0.929 . S
C707 C699 1.433 . S
C707 N709 1.384 . S
N708 C704 1.427 . S
N708 C705 1.384 . S
N709 C701 1.427 . S
N709 C707 1.384 . S
H710 C716 0.930 . S
H711 C720 0.930 . S
H712 C725 0.929 . S
H713 C723 0.929 . S
H714 C718 0.929 . S
H715 C724 0.929 . S
C716 H710 0.930 . S
C716 C717 1.367 . S
C716 C724 1.378 . S
C717 C716 1.367 . S
C717 C725 1.433 1_545 S
C718 H714 0.929 . S
C718 C720 1.378 . S
C718 C722 1.350 . S
C719 C722 1.463 1_545 S
C719 C724 1.350 . S
C719 N727 1.427 1_545 S
C720 H711 0.930 . S
C720 C718 1.378 . S
C720 C721 1.367 . S
C721 C720 1.367 . S
C721 C723 1.433 1_565 S
C722 C718 1.350 . S
C722 C719 1.463 1_565 S
C722 N726 1.427 1_565 S
C723 H713 0.929 . S
C723 C721 1.433 1_545 S
C723 N726 1.384 . S
C724 H715 0.929 . S
C724 C716 1.378 . S
C724 C719 1.350 . S
C725 H712 0.929 . S
C725 C717 1.433 1_565 S
C725 N727 1.384 . S
N726 C722 1.427 1_545 S
N726 C723 1.384 . S
N727 C719 1.427 1_565 S
N727 C725 1.384 . S
H728 C734 0.930 . S
H729 C738 0.930 . S
H730 C743 0.929 . S
H731 C741 0.929 . S
H732 C736 0.929 . S
H733 C742 0.929 . S
C734 H728 0.930 . S
C734 C735 1.367 . S
C734 C742 1.378 . S
C735 C734 1.367 . S
C735 C743 1.433 . S
C736 H732 0.929 . S
C736 C738 1.378 . S
C736 C740 1.350 . S
C737 C740 1.463 1_556 S
C737 C742 1.350 . S
C737 N745 1.427 . S
C738 H729 0.930 . S
C738 C736 1.378 . S
C738 C739 1.367 . S
C739 C738 1.367 . S
C739 C741 1.433 . S
C740 C736 1.350 . S
C740 C737 1.463 1_554 S
C740 N744 1.427 . S
C741 H731 0.929 . S
C741 C739 1.433 . S
C741 N744 1.384 . S
C742 H733 0.929 . S
C742 C734 1.378 . S
C742 C737 1.350 . S
C743 H730 0.929 . S
C743 C735 1.433 . S
C743 N745 1.384 . S
N744 C740 1.427 . S
N744 C741 1.384 . S
N745 C737 1.427 . S
N745 C743 1.384 . S
H746 C752 0.930 . S
H747 C756 0.930 . S
H748 C761 0.929 . S
H749 C759 0.929 . S
H750 C754 0.929 . S
H751 C760 0.929 . S
C752 H746 0.930 . S
C752 C753 1.367 . S
C752 C760 1.378 . S
C753 C752 1.367 . S
C753 C761 1.433 . S
C754 H750 0.929 . S
C754 C756 1.378 . S
C754 C758 1.350 . S
C755 C758 1.463 1_556 S
C755 C760 1.350 . S
C755 N763 1.427 . S
C756 H747 0.930 . S
C756 C754 1.378 . S
C756 C757 1.367 . S
C757 C756 1.367 . S
C757 C759 1.433 . S
C758 C754 1.350 . S
C758 C755 1.463 1_554 S
C758 N762 1.427 . S
C759 H749 0.929 . S
C759 C757 1.433 . S
C759 N762 1.384 . S
C760 H751 0.929 . S
C760 C752 1.378 . S
C760 C755 1.350 . S
C761 H748 0.929 . S
C761 C753 1.433 . S
C761 N763 1.384 . S
N762 C758 1.427 . S
N762 C759 1.384 . S
N763 C755 1.427 . S
N763 C761 1.384 . S
H764 C770 0.930 . S
H765 C774 0.930 . S
H766 C779 0.929 . S
H767 C777 0.929 . S
H768 C772 0.929 . S
H769 C778 0.929 . S
C770 H764 0.930 . S
C770 C771 1.367 . S
C770 C778 1.378 . S
C771 C770 1.367 . S
C771 C779 1.433 . S
C772 H768 0.929 . S
C772 C774 1.378 . S
C772 C776 1.350 . S
C773 C776 1.463 1_554 S
C773 C778 1.350 . S
C773 N781 1.427 . S
C774 H765 0.930 . S
C774 C772 1.378 . S
C774 C775 1.367 . S
C775 C774 1.367 . S
C775 C777 1.433 . S
C776 C772 1.350 . S
C776 C773 1.463 1_556 S
C776 N780 1.427 . S
C777 H767 0.929 . S
C777 C775 1.433 . S
C777 N780 1.384 . S
C778 H769 0.929 . S
C778 C770 1.378 . S
C778 C773 1.350 . S
C779 H766 0.929 . S
C779 C771 1.433 . S
C779 N781 1.384 . S
N780 C776 1.427 . S
N780 C777 1.384 . S
N781 C773 1.427 . S
N781 C779 1.384 . S
H782 C788 0.930 . S
H783 C792 0.930 . S
H784 C797 0.929 . S
H785 C795 0.929 . S
H786 C790 0.929 . S
H787 C796 0.929 . S
C788 H782 0.930 . S
C788 C789 1.367 . S
C788 C796 1.378 . S
C789 C788 1.367 . S
C789 C797 1.433 . S
C790 H786 0.929 . S
C790 C792 1.378 . S
C790 C794 1.350 . S
C791 C794 1.463 1_556 S
C791 C796 1.350 . S
C791 N799 1.427 . S
C792 H783 0.930 . S
C792 C790 1.378 . S
C792 C793 1.367 . S
C793 C792 1.367 . S
C793 C795 1.433 . S
C794 C790 1.350 . S
C794 C791 1.463 1_554 S
C794 N798 1.427 . S
C795 H785 0.929 . S
C795 C793 1.433 . S
C795 N798 1.384 . S
C796 H787 0.929 . S
C796 C788 1.378 . S
C796 C791 1.350 . S
C797 H784 0.929 . S
C797 C789 1.433 . S
C797 N799 1.384 . S
N798 C794 1.427 . S
N798 C795 1.384 . S
N799 C791 1.427 . S
N799 C797 1.384 . S
C231 C13 1.287 . S
C235 C50 1.243 . S
C249 C8 1.250 . S
C253 C27 1.290 . S
C267 C22 1.256 . S
C271 C41 1.274 . S
C285 C36 1.256 . S
C289 C55 1.274 . S
C303 C69 1.288 . S
C307 C78 1.253 . S
C321 C83 1.289 . S
C325 C92 1.242 . S
C339 C97 1.270 . S
C343 C106 1.265 . S
C357 C111 1.289 . S
C361 C64 1.251 . S
C375 C125 1.291 . S
C379 C162 1.247 . S
C393 C120 1.266 . S
C397 C139 1.270 . S
C411 C134 1.248 . S
C415 C153 1.291 . S
C429 C167 1.292 . S
C433 C148 1.242 . S
C447 C190 1.254 . S
C451 C181 1.276 . S
C465 C204 1.242 . S
C469 C195 1.292 . S
C483 C209 1.271 . S
C487 C218 1.267 . S
C501 C223 1.290 . S
C505 C176 1.250 . S
C519 C11 1.000 . S
C523 C221 1.000 . S
C537 C25 0.998 . S
C541 C179 1.001 . S
C555 C193 0.998 . S
C559 C39 1.001 . S
C573 C53 1.012 . S
C577 C207 1.008 . S
C591 C137 1.004 . S
C595 C67 1.012 . S
C609 C151 1.002 . S
C613 C81 0.998 . S
C627 C95 1.010 . S
C631 C165 1.002 . S
C645 C109 0.998 . S
C649 C123 1.006 . S
C663 C7 1.385 . S
C667 C91 1.393 . S
C681 C105 1.386 . S
C685 C21 1.397 . S
C699 C63 1.396 . S
C703 C35 1.387 . S
C717 C77 1.395 . S
C721 C49 1.384 . S
C735 C119 1.383 . S
C739 C203 1.398 . S
C753 C133 1.387 . S
C757 C217 1.396 . S
C771 C175 1.396 . S
C775 C147 1.387 . S
C789 C161 1.388 . S
C793 C189 1.395 . S
