# Generated by pormake.
# Topology qtz-g, (3)-cn, num edge types: 1
# Building blocks:
#     Node 0, Type 0, BuildingBlock: OLANEW_clean_sbu_2, # of connection points: 3
#     Node 1, Type 0, BuildingBlock: OLANEW_clean_sbu_2, # of connection points: 3
#     Node 2, Type 0, BuildingBlock: OLANEW_clean_sbu_2, # of connection points: 3
#     Node 3, Type 0, BuildingBlock: OLANEW_clean_sbu_2, # of connection points: 3
#     Node 4, Type 0, BuildingBlock: OLANEW_clean_sbu_2, # of connection points: 3
#     Node 5, Type 0, BuildingBlock: OLANEW_clean_sbu_2, # of connection points: 3
#     Node 6, Type 0, BuildingBlock: OLANEW_clean_sbu_2, # of connection points: 3
#     Node 7, Type 0, BuildingBlock: OLANEW_clean_sbu_2, # of connection points: 3
#     Node 8, Type 0, BuildingBlock: OLANEW_clean_sbu_2, # of connection points: 3
#     Node 9, Type 0, BuildingBlock: OLANEW_clean_sbu_2, # of connection points: 3
#     Node 10, Type 0, BuildingBlock: OLANEW_clean_sbu_2, # of connection points: 3
#     Node 11, Type 0, BuildingBlock: OLANEW_clean_sbu_2, # of connection points: 3
#     Edge 12, Type (0, 0), BuildingBlock: CIFDUS_clean_linker_0, # of connection points: 2
#     Edge 13, Type (0, 0), BuildingBlock: CIFDUS_clean_linker_0, # of connection points: 2
#     Edge 14, Type (0, 0), BuildingBlock: CIFDUS_clean_linker_0, # of connection points: 2
#     Edge 15, Type (0, 0), BuildingBlock: CIFDUS_clean_linker_0, # of connection points: 2
#     Edge 16, Type (0, 0), BuildingBlock: CIFDUS_clean_linker_0, # of connection points: 2
#     Edge 17, Type (0, 0), BuildingBlock: CIFDUS_clean_linker_0, # of connection points: 2
#     Edge 18, Type (0, 0), BuildingBlock: CIFDUS_clean_linker_0, # of connection points: 2
#     Edge 19, Type (0, 0), BuildingBlock: CIFDUS_clean_linker_0, # of connection points: 2
#     Edge 20, Type (0, 0), BuildingBlock: CIFDUS_clean_linker_0, # of connection points: 2
#     Edge 21, Type (0, 0), BuildingBlock: CIFDUS_clean_linker_0, # of connection points: 2
#     Edge 22, Type (0, 0), BuildingBlock: CIFDUS_clean_linker_0, # of connection points: 2
#     Edge 23, Type (0, 0), BuildingBlock: CIFDUS_clean_linker_0, # of connection points: 2
#     Edge 24, Type (0, 0), BuildingBlock: CIFDUS_clean_linker_0, # of connection points: 2
#     Edge 25, Type (0, 0), BuildingBlock: CIFDUS_clean_linker_0, # of connection points: 2
#     Edge 26, Type (0, 0), BuildingBlock: CIFDUS_clean_linker_0, # of connection points: 2
#     Edge 27, Type (0, 0), BuildingBlock: CIFDUS_clean_linker_0, # of connection points: 2
#     Edge 28, Type (0, 0), BuildingBlock: CIFDUS_clean_linker_0, # of connection points: 2
#     Edge 29, Type (0, 0), BuildingBlock: CIFDUS_clean_linker_0, # of connection points: 2
# Relax obj value: 0.010
# Max RMSD: 0.020
# Mean RMSD: 0.020
data_MOF--net-qtz-g--node1-OLANEW_clean_sbu_2--edge1-CIFDUS_clean_linker_0
_symmetry_space_group_name_H-M    P1
_symmetry_Int_Tables_number       1
_symmetry_cell_setting            triclinic
loop_
_symmetry_equiv_pos_as_xyz
'x, y, z'
_cell_length_a     39.144006
_cell_length_b     39.156695
_cell_length_c     74.786133
_cell_angle_alpha  90.015114
_cell_angle_beta   90.007498
_cell_angle_gamma 119.92699
loop_
_atom_site_label
_atom_site_type_symbol
_atom_site_fract_x
_atom_site_fract_y
_atom_site_fract_z
_atom_type_partial_charge
O0 O 0.98922 0.38469 0.99003 0.0
Cd1 Cd 0.9852 0.32053 0.99222 0.0
O2 O 0.99786 0.39081 0.01909 0.0
Cd3 Cd 0.01016 0.42455 0.04398 0.0
O4 O 0.02408 0.45391 0.06999 0.0
C5 C 0.99849 0.4575 0.07899 0.0
O6 O 0.96314 0.44435 0.07221 0.0
C7 C 0.99385 0.40427 0.00426 0.0
C8 C 0.05849 0.32489 0.99308 0.0
O9 O 0.0403 0.32055 0.97826 0.0
O10 O 0.04221 0.32766 0.00746 0.0
O11 O 0.63096 0.02969 0.35558 0.0
Cd12 Cd 0.6978 0.04412 0.36265 0.0
O13 O 0.62461 0.0311 0.38455 0.0
Cd14 Cd 0.59532 0.02573 0.41017 0.0
O15 O 0.58132 0.02121 0.43863 0.0
C16 C 0.58546 0.99587 0.44752 0.0
O17 O 0.59619 0.97332 0.43905 0.0
C18 C 0.6101 0.02766 0.36899 0.0
C19 C 0.7535 0.0999 0.33959 0.0
O20 O 0.74231 0.06326 0.33775 0.0
O21 O 0.73845 0.11012 0.35225 0.0
O22 O 0.6273 0.62614 0.65515 0.0
Cd23 Cd 0.6923 0.68458 0.65181 0.0
O24 O 0.63632 0.63107 0.68412 0.0
Cd25 Cd 0.62013 0.61691 0.71224 0.0
O26 O 0.60785 0.60351 0.7406 0.0
C27 C 0.63405 0.62397 0.75212 0.0
O28 O 0.66808 0.65307 0.74663 0.0
C29 C 0.61469 0.61304 0.67075 0.0
C30 C 0.68776 0.75315 0.64841 0.0
O31 O 0.68742 0.73358 0.6346 0.0
O32 O 0.6902 0.74022 0.66382 0.0
O33 O 0.98078 0.61519 0.00039 0.0
Cd34 Cd 0.98472 0.67935 0.99829 0.0
O35 O 0.98067 0.61689 0.02971 0.0
Cd36 Cd 0.98255 0.5952 0.05656 0.0
O37 O 0.97895 0.57544 0.08421 0.0
C38 C 0.00805 0.576 0.09205 0.0
O39 O 0.04103 0.58785 0.08317 0.0
C40 C 0.97955 0.59908 0.0153 0.0
C41 C 0.91432 0.67293 0.98619 0.0
O42 O 0.94027 0.6748 0.97517 0.0
O43 O 0.92165 0.67406 0.00296 0.0
O44 O 0.39204 0.99721 0.32174 0.0
Cd45 Cd 0.33207 7e-05 0.31611 0.0
O46 O 0.37726 0.99066 0.35025 0.0
Cd47 Cd 0.38523 0.98135 0.37848 0.0
O48 O 0.38446 0.97035 0.40717 0.0
C49 C 0.41374 0.99135 0.41725 0.0
O50 O 0.44591 0.02033 0.4102 0.0
C51 C 0.40074 0.99386 0.33776 0.0
C52 C 0.26661 0.92681 0.30867 0.0
O53 O 0.28884 0.94894 0.29608 0.0
O54 O 0.27563 0.9392 0.3248 0.0
O55 O 0.39688 0.3982 0.6782 0.0
Cd56 Cd 0.33179 0.33898 0.67877 0.0
O57 O 0.40065 0.39607 0.70733 0.0
Cd58 Cd 0.42351 0.41526 0.73445 0.0
O59 O 0.43137 0.42004 0.76349 0.0
C60 C 0.4008 0.40033 0.77304 0.0
O61 O 0.36668 0.37896 0.76503 0.0
C62 C 0.41596 0.41293 0.69257 0.0
C63 C 0.3336 0.27131 0.66865 0.0
O64 O 0.32994 0.29323 0.65697 0.0
O65 O 0.33663 0.28153 0.68511 0.0
O66 O 0.61901 0.0185 0.64702 0.0
Cd67 Cd 0.68419 0.02599 0.65165 0.0
O68 O 0.62845 0.01846 0.61815 0.0
Cd69 Cd 0.61081 0.01206 0.59002 0.0
O70 O 0.59813 0.00526 0.56141 0.0
C71 C 0.6016 0.9789 0.55307 0.0
O72 O 0.61195 0.95662 0.56204 0.0
C73 C 0.60675 0.01691 0.63114 0.0
C74 C 0.68189 0.9539 0.65487 0.0
O75 O 0.6793 0.97191 0.66867 0.0
O76 O 0.68533 0.96992 0.63953 0.0
O77 O 0.59495 0.58635 0.93688 0.0
Cd78 Cd 0.6528 0.64431 0.92477 0.0
O79 O 0.58848 0.54943 0.91352 0.0
Cd80 Cd 0.63426 0.59568 0.8972 0.0
O81 O 0.65245 0.61813 0.87013 0.0
C82 C 0.62647 0.59903 0.8583 0.0
O83 O 0.59254 0.56915 0.86339 0.0
C84 C 0.57718 0.55325 0.92895 0.0
C85 C 0.7226 0.64939 0.9369 0.0
O86 O 0.70477 0.66331 0.94615 0.0
O87 O 0.70747 0.63312 0.92187 0.0
O88 O 0.99 0.59834 0.28901 0.0
Cd89 Cd 0.98913 0.65884 0.296 0.0
O90 O 0.99116 0.61223 0.26049 0.0
Cd91 Cd 0.99423 0.59843 0.23231 0.0
O92 O 0.99702 0.58332 0.2044 0.0
C93 C 0.96603 0.55785 0.19641 0.0
O94 O 0.93258 0.54037 0.20526 0.0
C95 C 0.98978 0.58903 0.27272 0.0
C96 C 0.06316 0.72334 0.30324 0.0
O97 O 0.04164 0.70049 0.31582 0.0
O98 O 0.04985 0.71528 0.28721 0.0
O99 O 0.39151 0.01766 0.6171 0.0
Cd100 Cd 0.32742 0.01372 0.61446 0.0
O101 O 0.39829 0.0212 0.58796 0.0
Cd102 Cd 0.42551 0.02233 0.56218 0.0
O103 O 0.44248 0.02372 0.5342 0.0
C104 C 0.41813 0.99675 0.52388 0.0
O105 O 0.38476 0.96887 0.53058 0.0
C106 C 0.41186 0.02057 0.60335 0.0
C107 C 0.33072 0.0839 0.62457 0.0
O108 O 0.32448 0.05725 0.63613 0.0
O109 O 0.33543 0.07736 0.60821 0.0
O110 O 0.37666 0.35056 0.97317 0.0
Cd111 Cd 0.31615 0.29476 0.98468 0.0
O112 O 0.35191 0.3344 0.94616 0.0
Cd113 Cd 0.35153 0.34293 0.91717 0.0
O114 O 0.34894 0.34847 0.88815 0.0
C115 C 0.37944 0.3712 0.87909 0.0
O116 O 0.41326 0.39203 0.88738 0.0
C117 C 0.38033 0.35672 0.95641 0.0
C118 C 0.2511 0.30559 0.98211 0.0
O119 O 0.27229 0.3154 0.99631 0.0
O120 O 0.26093 0.29099 0.96909 0.0
O121 O 0.00315 0.37109 0.26864 0.0
Cd122 Cd 0.99158 0.30728 0.25784 0.0
O123 O 0.99031 0.37984 0.24109 0.0
Cd124 Cd 0.98376 0.41209 0.21857 0.0
O125 O 0.97365 0.43334 0.19321 0.0
C126 C 0.00232 0.45949 0.18421 0.0
O127 O 0.03813 0.47512 0.1908 0.0
C128 C 0.99824 0.39214 0.25714 0.0
C129 C 0.93357 0.24628 0.27812 0.0
O130 O 0.97009 0.25758 0.28061 0.0
O131 O 0.9245 0.26348 0.266 0.0
H132 H 0.01177 0.57156 0.99135 0.0
H133 H 0.94159 0.53927 0.0394 0.0
H134 H 0.94121 0.47684 0.04056 0.0
H135 H 0.95982 0.43088 0.0276 0.0
H136 H 0.02735 0.46131 0.97883 0.0
H137 H 0.02873 0.52455 0.97787 0.0
C138 C 0.99642 0.55081 0.00207 0.0
C139 C 0.97804 0.56065 0.01567 0.0
C140 C 0.99554 0.51454 0.00239 0.0
C141 C 0.95771 0.5333 0.02931 0.0
C142 C 0.95693 0.4973 0.02982 0.0
C143 C 0.97549 0.45173 0.01697 0.0
C144 C 0.99436 0.44211 0.00356 0.0
C145 C 0.97597 0.48775 0.0165 0.0
C146 C 0.01295 0.46842 0.98937 0.0
C147 C 0.01379 0.50451 0.98885 0.0
H148 H 0.55986 0.99012 0.34155 0.0
H149 H 0.57212 0.05548 0.38986 0.0
H150 H 0.50742 0.04853 0.38506 0.0
H151 H 0.44879 0.02695 0.36632 0.0
H152 H 0.43718 0.96405 0.31732 0.0
H153 H 0.50054 0.9677 0.32294 0.0
C154 C 0.54815 0.00252 0.35109 0.0
C155 C 0.57025 0.02219 0.36635 0.0
C156 C 0.51118 0.99914 0.34803 0.0
C157 C 0.55501 0.03862 0.37847 0.0
C158 C 0.51819 0.03516 0.37558 0.0
C159 C 0.45957 0.01305 0.35715 0.0
C160 C 0.43797 0.99443 0.34166 0.0
C161 C 0.49607 0.01557 0.3604 0.0
C162 C 0.45325 0.9783 0.32941 0.0
C163 C 0.48941 0.98036 0.33262 0.0
H164 H 0.44043 0.47043 0.66776 0.0
H165 H 0.47919 0.43662 0.71511 0.0
H166 H 0.54368 0.4963 0.71296 0.0
H167 H 0.59009 0.55643 0.69665 0.0
H168 H 0.55108 0.58984 0.64925 0.0
H169 H 0.48602 0.53125 0.65204 0.0
C170 C 0.46296 0.47621 0.67766 0.0
C171 C 0.45474 0.4495 0.69178 0.0
C172 C 0.50006 0.51027 0.6762 0.0
C173 C 0.48425 0.45729 0.70445 0.0
C174 C 0.52134 0.49119 0.70309 0.0
C175 C 0.56704 0.55157 0.68726 0.0
C176 C 0.57515 0.57799 0.67301 0.0
C177 C 0.52961 0.51785 0.68899 0.0
C178 C 0.54551 0.57004 0.66039 0.0
C179 C 0.50829 0.53661 0.66199 0.0
H180 H 0.58536 0.04907 0.60423 0.0
H181 H 0.54118 0.97765 0.65169 0.0
H182 H 0.47667 0.97196 0.6471 0.0
H183 H 0.43301 0.98749 0.62963 0.0
H184 H 0.4777 0.0599 0.58247 0.0
H185 H 0.54144 0.06376 0.58648 0.0
C186 C 0.56131 0.03132 0.61327 0.0
C187 C 0.56768 0.01295 0.62801 0.0
C188 C 0.52437 0.02818 0.61053 0.0
C189 C 0.53684 0.99183 0.64017 0.0
C190 C 0.49998 0.98852 0.63754 0.0
C191 C 0.45669 0.00398 0.6202 0.0
C192 C 0.45032 0.0225 0.6055 0.0
C193 C 0.49344 0.00662 0.62278 0.0
C194 C 0.48131 0.04405 0.59347 0.0
C195 C 0.51797 0.04675 0.59591 0.0
H196 H 0.42746 0.42787 0.97173 0.0
H197 H 0.41687 0.35817 0.9252 0.0
H198 H 0.4771 0.41265 0.91279 0.0
H199 H 0.53195 0.48021 0.91488 0.0
H200 H 0.54366 0.5503 0.96152 0.0
H201 H 0.48406 0.49535 0.97427 0.0
C202 C 0.4384 0.42472 0.95887 0.0
C203 C 0.41713 0.38955 0.94912 0.0
C204 C 0.47328 0.45611 0.95188 0.0
C205 C 0.43178 0.38555 0.93259 0.0
C206 C 0.4665 0.41651 0.9256 0.0
C207 C 0.52165 0.48353 0.92788 0.0
C208 C 0.54227 0.51943 0.93719 0.0
C209 C 0.48728 0.45201 0.93505 0.0
C210 C 0.52839 0.52304 0.95404 0.0
C211 C 0.49425 0.49165 0.96133 0.0
H212 H 0.02843 0.55518 0.28809 0.0
H213 H 0.94351 0.53774 0.24721 0.0
H214 H 0.93849 0.47512 0.23887 0.0
H215 H 0.95694 0.4248 0.2437 0.0
H216 H 0.04399 0.44254 0.28346 0.0
H217 H 0.04842 0.50489 0.29231 0.0
C218 C 0.00892 0.53756 0.27736 0.0
C219 C 0.98695 0.55121 0.26801 0.0
C220 C 0.00634 0.50162 0.27258 0.0
C221 C 0.96152 0.52821 0.25423 0.0
C222 C 0.95837 0.4923 0.24957 0.0
C223 C 0.97796 0.44293 0.25383 0.0
C224 C 0.00117 0.42983 0.26245 0.0
C225 C 0.98079 0.47885 0.25858 0.0
C226 C 0.02617 0.45234 0.27648 0.0
C227 C 0.02876 0.48797 0.28151 0.0
H228 H 0.0578 0.494 0.15828 0.0
H229 H 0.93277 0.44072 0.16776 0.0
H230 H 0.9211 0.44094 0.13569 0.0
H231 H 0.94545 0.44737 0.1049 0.0
H232 H 0.07009 0.49666 0.09552 0.0
H233 H 0.08288 0.50746 0.12756 0.0
C234 C 0.02805 0.48305 0.15337 0.0
C235 C 0.99613 0.46661 0.16536 0.0
C236 C 0.02142 0.48208 0.13488 0.0
C237 C 0.9578 0.45287 0.15878 0.0
C238 C 0.95109 0.45288 0.14043 0.0
C239 C 0.97549 0.46107 0.10983 0.0
C240 C 0.00669 0.47046 0.09787 0.0
C241 C 0.98252 0.46601 0.12833 0.0
C242 C 0.04546 0.48853 0.10448 0.0
C243 C 0.05281 0.49465 0.1228 0.0
H244 H 0.59959 0.95017 0.47011 0.0
H245 H 0.56337 0.0378 0.46932 0.0
H246 H 0.56323 0.03888 0.502 0.0
H247 H 0.57747 0.01788 0.53075 0.0
H248 H 0.61417 0.93057 0.5312 0.0
H249 H 0.61002 0.9265 0.49869 0.0
C250 C 0.59138 0.96933 0.47705 0.0
C251 C 0.58192 0.99415 0.46726 0.0
C252 C 0.59175 0.97011 0.4958 0.0
C253 C 0.57112 0.01861 0.47651 0.0
C254 C 0.57109 0.0193 0.49521 0.0
C255 C 0.58436 0.99781 0.52374 0.0
C256 C 0.59644 0.97482 0.53342 0.0
C257 C 0.58205 0.99568 0.50499 0.0
C258 C 0.60495 0.94874 0.52412 0.0
C259 C 0.60263 0.9464 0.5055 0.0
H260 H 0.6837 0.66165 0.77993 0.0
H261 H 0.56722 0.56564 0.76768 0.0
H262 H 0.55471 0.54993 0.7994 0.0
H263 H 0.57684 0.56294 0.83051 0.0
H264 H 0.69327 0.65864 0.84299 0.0
H265 H 0.70572 0.67499 0.81123 0.0
C266 C 0.65555 0.63731 0.78419 0.0
C267 C 0.62647 0.61486 0.77141 0.0
C268 C 0.64853 0.62836 0.80247 0.0
C269 C 0.59016 0.58343 0.77719 0.0
C270 C 0.58295 0.57439 0.79535 0.0
C271 C 0.60496 0.58743 0.82632 0.0
C272 C 0.63408 0.6095 0.83913 0.0
C273 C 0.61194 0.5966 0.80808 0.0
C274 C 0.67033 0.64114 0.83342 0.0
C275 C 0.67748 0.6505 0.81526 0.0
H276 H 0.03013 0.57767 0.17545 0.0
H277 H 0.90339 0.52343 0.1736 0.0
H278 H 0.90495 0.52108 0.14102 0.0
H279 H 0.94274 0.54064 0.11304 0.0
H280 H 0.06936 0.59372 0.11478 0.0
H281 H 0.0673 0.5898 0.14739 0.0
C282 C 0.00283 0.56507 0.16792 0.0
C283 C 0.96679 0.55154 0.17693 0.0
C284 C 0.00391 0.56387 0.14916 0.0
C285 C 0.93159 0.53443 0.16701 0.0
C286 C 0.93244 0.53322 0.14836 0.0
C287 C 0.96987 0.55109 0.12055 0.0
C288 C 0.00621 0.56827 0.11151 0.0
C289 C 0.96851 0.54888 0.13929 0.0
C290 C 0.04101 0.58081 0.1214 0.0
C291 C 0.03989 0.57874 0.14007 0.0
H292 H 0.46855 0.03357 0.44282 0.0
H293 H 0.35144 0.93402 0.43576 0.0
H294 H 0.3437 0.92553 0.46805 0.0
H295 H 0.36833 0.94854 0.49826 0.0
H296 H 0.4848 0.04874 0.50564 0.0
H297 H 0.49473 0.05445 0.47327 0.0
C298 C 0.44143 0.00985 0.44833 0.0
C299 C 0.4105 0.98472 0.43684 0.0
C300 C 0.43697 0.00529 0.46698 0.0
C301 C 0.37565 0.954 0.44425 0.0
C302 C 0.37115 0.9491 0.46274 0.0
C303 C 0.39603 0.97149 0.49283 0.0
C304 C 0.4256 0.99839 0.50438 0.0
C305 C 0.40134 0.97493 0.47423 0.0
C306 C 0.46138 0.02781 0.49707 0.0
C307 C 0.46708 0.03114 0.47854 0.0
H308 H 0.43921 0.41434 0.85573 0.0
H309 H 0.31382 0.33328 0.85811 0.0
H310 H 0.30947 0.33587 0.82566 0.0
H311 H 0.34115 0.36008 0.7966 0.0
H312 H 0.46654 0.44077 0.79396 0.0
H313 H 0.47089 0.43941 0.82653 0.0
C314 C 0.4109 0.39729 0.84917 0.0
C315 C 0.37693 0.37358 0.85938 0.0
C316 C 0.40857 0.3988 0.83045 0.0
C317 C 0.34049 0.35172 0.85062 0.0
C318 C 0.33794 0.35317 0.83204 0.0
C319 C 0.36947 0.37747 0.80312 0.0
C320 C 0.40347 0.40042 0.79281 0.0
C321 C 0.37179 0.37645 0.82182 0.0
C322 C 0.43988 0.42279 0.80154 0.0
C323 C 0.44241 0.42202 0.82018 0.0
H324 H 0.21785 0.32665 0.0087 0.0
H325 H 0.20476 0.29425 0.9529 0.0
H326 H 0.14498 0.29898 0.9512 0.0
H327 H 0.09522 0.31018 0.96577 0.0
H328 H 0.1073 0.34074 0.02178 0.0
H329 H 0.16873 0.339 0.02314 0.0
C330 C 0.20206 0.32083 0.99613 0.0
C331 C 0.21576 0.31004 0.98096 0.0
C332 C 0.16744 0.32318 0.99529 0.0
C333 C 0.19483 0.30249 0.9648 0.0
C334 C 0.16062 0.30519 0.96381 0.0
C335 C 0.11139 0.31669 0.97826 0.0
C336 C 0.09662 0.32552 0.99365 0.0
C337 C 0.14647 0.31519 0.979 0.0
C338 C 0.11792 0.33375 0.00974 0.0
C339 C 0.15307 0.33275 0.01053 0.0
H340 H 0.86607 0.24157 0.28973 0.0
H341 H 0.93272 0.18116 0.29141 0.0
H342 H 0.88144 0.1289 0.30977 0.0
H343 H 0.81802 0.1011 0.32578 0.0
H344 H 0.75535 0.16559 0.32679 0.0
H345 H 0.80454 0.21562 0.30692 0.0
C346 C 0.86917 0.21682 0.29407 0.0
C347 C 0.90276 0.21485 0.28915 0.0
C348 C 0.84033 0.18776 0.3051 0.0
C349 C 0.90699 0.18314 0.29508 0.0
C350 C 0.87771 0.1533 0.30553 0.0
C351 C 0.81517 0.12606 0.32154 0.0
C352 C 0.78311 0.12967 0.32753 0.0
C353 C 0.8443 0.15537 0.31067 0.0
C354 C 0.7799 0.16236 0.32229 0.0
C355 C 0.80793 0.19087 0.31093 0.0
H356 H 0.68361 0.7982 0.67508 0.0
H357 H 0.68745 0.79044 0.6176 0.0
H358 H 0.68549 0.8515 0.61453 0.0
H359 H 0.68365 0.90762 0.62815 0.0
H360 H 0.67936 0.91512 0.68563 0.0
H361 H 0.68044 0.85361 0.68868 0.0
C362 C 0.68399 0.80982 0.66187 0.0
C363 C 0.6858 0.7898 0.6466 0.0
C364 C 0.68278 0.84493 0.66019 0.0
C365 C 0.68609 0.80523 0.62959 0.0
C366 C 0.685 0.84019 0.62782 0.0
C367 C 0.68289 0.89579 0.64135 0.0
C368 C 0.68154 0.91605 0.65663 0.0
C369 C 0.68348 0.86036 0.64302 0.0
C370 C 0.68043 0.90019 0.67363 0.0
C371 C 0.68108 0.865 0.6754 0.0
H372 H 0.88397 0.65523 0.95257 0.0
H373 H 0.86097 0.68337 0.00541 0.0
H374 H 0.79995 0.67909 0.99477 0.0
H375 H 0.75321 0.66756 0.97045 0.0
H376 H 0.77492 0.63695 0.91789 0.0
H377 H 0.83633 0.64197 0.92844 0.0
C378 C 0.86563 0.66048 0.96175 0.0
C379 C 0.8771 0.66977 0.97974 0.0
C380 C 0.83035 0.65752 0.9556 0.0
C381 C 0.85282 0.67613 0.9915 0.0
C382 C 0.81794 0.67375 0.98543 0.0
C383 C 0.77141 0.66206 0.96129 0.0
C384 C 0.75958 0.65207 0.94339 0.0
C385 C 0.80644 0.66452 0.9675 0.0
C386 C 0.78332 0.64466 0.93174 0.0
C387 C 0.81848 0.64757 0.93775 0.0
H388 H 0.21658 0.87204 0.33242 0.0
H389 H 0.23644 0.89577 0.27587 0.0
H390 H 0.17595 0.83434 0.2692 0.0
H391 H 0.11626 0.77506 0.27942 0.0
H392 H 0.09647 0.7512 0.33597 0.0
H393 H 0.15819 0.81143 0.34261 0.0
C394 C 0.20778 0.86372 0.31863 0.0
C395 C 0.23094 0.8886 0.30468 0.0
C396 C 0.17293 0.82836 0.31488 0.0
C397 C 0.21917 0.87724 0.28688 0.0
C398 C 0.18453 0.84211 0.28304 0.0
C399 C 0.12551 0.78291 0.2932 0.0
C400 C 0.10165 0.75872 0.30717 0.0
C401 C 0.16101 0.81763 0.29694 0.0
C402 C 0.11421 0.76929 0.32494 0.0
C403 C 0.14949 0.80378 0.32877 0.0
H404 H 0.3352 0.24617 0.6349 0.0
H405 H 0.33245 0.21478 0.69043 0.0
H406 H 0.33133 0.15415 0.68169 0.0
H407 H 0.33042 0.10967 0.65831 0.0
H408 H 0.33439 0.14163 0.6028 0.0
H409 H 0.33577 0.20239 0.61153 0.0
C410 C 0.33438 0.22609 0.6451 0.0
C411 C 0.3338 0.23499 0.66329 0.0
C412 C 0.33392 0.19134 0.63999 0.0
C413 C 0.33294 0.20871 0.67633 0.0
C414 C 0.33224 0.17397 0.67135 0.0
C415 C 0.33158 0.12991 0.64812 0.0
C416 C 0.33217 0.12101 0.62993 0.0
C417 C 0.3326 0.16493 0.65323 0.0
C418 C 0.33392 0.14772 0.6169 0.0
C419 C 0.33467 0.18248 0.62188 0.0
loop_
_geom_bond_atom_site_label_1
_geom_bond_atom_site_label_2
_geom_bond_distance
_geom_bond_site_symmetry_2
_ccdc_geom_bond_type
O0 Cd1 2.300 . S
O0 C7 1.275 . S
Cd1 O0 2.300 . S
Cd1 O9 2.381 . S
Cd1 O10 2.378 . S
O2 Cd3 2.385 . S
O2 C7 1.255 . S
Cd3 O2 2.385 . S
Cd3 O4 2.317 . S
O4 Cd3 2.317 . S
O4 C5 1.232 . S
C5 O4 1.232 . S
C5 O6 1.218 . S
O6 C5 1.218 . S
C7 O0 1.275 . S
C7 O2 1.255 . S
C8 O9 1.258 . S
C8 O10 1.256 . S
O9 Cd1 2.381 . S
O9 C8 1.258 . S
O10 Cd1 2.378 . S
O10 C8 1.256 . S
O11 Cd12 2.300 . S
O11 C18 1.275 . S
Cd12 O11 2.300 . S
Cd12 O20 2.381 . S
Cd12 O21 2.378 . S
O13 Cd14 2.385 . S
O13 C18 1.255 . S
Cd14 O13 2.385 . S
Cd14 O15 2.317 . S
O15 Cd14 2.317 . S
O15 C16 1.232 . S
C16 O15 1.232 . S
C16 O17 1.218 . S
O17 C16 1.218 . S
C18 O11 1.275 . S
C18 O13 1.255 . S
C19 O20 1.258 . S
C19 O21 1.256 . S
O20 Cd12 2.381 . S
O20 C19 1.258 . S
O21 Cd12 2.378 . S
O21 C19 1.256 . S
O22 Cd23 2.300 . S
O22 C29 1.275 . S
Cd23 O22 2.300 . S
Cd23 O31 2.381 . S
Cd23 O32 2.378 . S
O24 Cd25 2.385 . S
O24 C29 1.255 . S
Cd25 O24 2.385 . S
Cd25 O26 2.317 . S
O26 Cd25 2.317 . S
O26 C27 1.232 . S
C27 O26 1.232 . S
C27 O28 1.218 . S
O28 C27 1.218 . S
C29 O22 1.275 . S
C29 O24 1.255 . S
C30 O31 1.258 . S
C30 O32 1.256 . S
O31 Cd23 2.381 . S
O31 C30 1.258 . S
O32 Cd23 2.378 . S
O32 C30 1.256 . S
O33 Cd34 2.300 . S
O33 C40 1.275 . S
Cd34 O33 2.300 . S
Cd34 O42 2.381 . S
Cd34 O43 2.378 . S
O35 Cd36 2.385 . S
O35 C40 1.255 . S
Cd36 O35 2.385 . S
Cd36 O37 2.317 . S
O37 Cd36 2.317 . S
O37 C38 1.232 . S
C38 O37 1.232 . S
C38 O39 1.218 . S
O39 C38 1.218 . S
C40 O33 1.275 . S
C40 O35 1.255 . S
C41 O42 1.258 . S
C41 O43 1.256 . S
O42 Cd34 2.381 . S
O42 C41 1.258 . S
O43 Cd34 2.378 . S
O43 C41 1.256 . S
O44 Cd45 2.300 . S
O44 C51 1.275 . S
Cd45 O44 2.300 . S
Cd45 O53 2.381 . S
Cd45 O54 2.378 . S
O46 Cd47 2.385 . S
O46 C51 1.255 . S
Cd47 O46 2.385 . S
Cd47 O48 2.317 . S
O48 Cd47 2.317 . S
O48 C49 1.232 . S
C49 O48 1.232 . S
C49 O50 1.218 . S
O50 C49 1.218 . S
C51 O44 1.275 . S
C51 O46 1.255 . S
C52 O53 1.258 . S
C52 O54 1.256 . S
O53 Cd45 2.381 . S
O53 C52 1.258 . S
O54 Cd45 2.378 . S
O54 C52 1.256 . S
O55 Cd56 2.300 . S
O55 C62 1.275 . S
Cd56 O55 2.300 . S
Cd56 O64 2.381 . S
Cd56 O65 2.378 . S
O57 Cd58 2.385 . S
O57 C62 1.255 . S
Cd58 O57 2.385 . S
Cd58 O59 2.317 . S
O59 Cd58 2.317 . S
O59 C60 1.232 . S
C60 O59 1.232 . S
C60 O61 1.218 . S
O61 C60 1.218 . S
C62 O55 1.275 . S
C62 O57 1.255 . S
C63 O64 1.258 . S
C63 O65 1.256 . S
O64 Cd56 2.381 . S
O64 C63 1.258 . S
O65 Cd56 2.378 . S
O65 C63 1.256 . S
O66 Cd67 2.300 . S
O66 C73 1.275 . S
Cd67 O66 2.300 . S
Cd67 O75 2.381 . S
Cd67 O76 2.378 . S
O68 Cd69 2.385 . S
O68 C73 1.255 . S
Cd69 O68 2.385 . S
Cd69 O70 2.317 . S
O70 Cd69 2.317 . S
O70 C71 1.232 . S
C71 O70 1.232 . S
C71 O72 1.218 . S
O72 C71 1.218 . S
C73 O66 1.275 . S
C73 O68 1.255 . S
C74 O75 1.258 . S
C74 O76 1.256 . S
O75 Cd67 2.381 . S
O75 C74 1.258 . S
O76 Cd67 2.378 . S
O76 C74 1.256 . S
O77 Cd78 2.300 . S
O77 C84 1.275 . S
Cd78 O77 2.300 . S
Cd78 O86 2.381 . S
Cd78 O87 2.378 . S
O79 Cd80 2.385 . S
O79 C84 1.255 . S
Cd80 O79 2.385 . S
Cd80 O81 2.317 . S
O81 Cd80 2.317 . S
O81 C82 1.232 . S
C82 O81 1.232 . S
C82 O83 1.218 . S
O83 C82 1.218 . S
C84 O77 1.275 . S
C84 O79 1.255 . S
C85 O86 1.258 . S
C85 O87 1.256 . S
O86 Cd78 2.381 . S
O86 C85 1.258 . S
O87 Cd78 2.378 . S
O87 C85 1.256 . S
O88 Cd89 2.300 . S
O88 C95 1.275 . S
Cd89 O88 2.300 . S
Cd89 O97 2.381 . S
Cd89 O98 2.378 . S
O90 Cd91 2.385 . S
O90 C95 1.255 . S
Cd91 O90 2.385 . S
Cd91 O92 2.317 . S
O92 Cd91 2.317 . S
O92 C93 1.232 . S
C93 O92 1.232 . S
C93 O94 1.218 . S
O94 C93 1.218 . S
C95 O88 1.275 . S
C95 O90 1.255 . S
C96 O97 1.258 . S
C96 O98 1.256 . S
O97 Cd89 2.381 . S
O97 C96 1.258 . S
O98 Cd89 2.378 . S
O98 C96 1.256 . S
O99 Cd100 2.300 . S
O99 C106 1.275 . S
Cd100 O99 2.300 . S
Cd100 O108 2.381 . S
Cd100 O109 2.378 . S
O101 Cd102 2.385 . S
O101 C106 1.255 . S
Cd102 O101 2.385 . S
Cd102 O103 2.317 . S
O103 Cd102 2.317 . S
O103 C104 1.232 . S
C104 O103 1.232 . S
C104 O105 1.218 . S
O105 C104 1.218 . S
C106 O99 1.275 . S
C106 O101 1.255 . S
C107 O108 1.258 . S
C107 O109 1.256 . S
O108 Cd100 2.381 . S
O108 C107 1.258 . S
O109 Cd100 2.378 . S
O109 C107 1.256 . S
O110 Cd111 2.300 . S
O110 C117 1.275 . S
Cd111 O110 2.300 . S
Cd111 O119 2.381 . S
Cd111 O120 2.378 . S
O112 Cd113 2.385 . S
O112 C117 1.255 . S
Cd113 O112 2.385 . S
Cd113 O114 2.317 . S
O114 Cd113 2.317 . S
O114 C115 1.232 . S
C115 O114 1.232 . S
C115 O116 1.218 . S
O116 C115 1.218 . S
C117 O110 1.275 . S
C117 O112 1.255 . S
C118 O119 1.258 . S
C118 O120 1.256 . S
O119 Cd111 2.381 . S
O119 C118 1.258 . S
O120 Cd111 2.378 . S
O120 C118 1.256 . S
O121 Cd122 2.300 . S
O121 C128 1.275 . S
Cd122 O121 2.300 . S
Cd122 O130 2.381 . S
Cd122 O131 2.378 . S
O123 Cd124 2.385 . S
O123 C128 1.255 . S
Cd124 O123 2.385 . S
Cd124 O125 2.317 . S
O125 Cd124 2.317 . S
O125 C126 1.232 . S
C126 O125 1.232 . S
C126 O127 1.218 . S
O127 C126 1.218 . S
C128 O121 1.275 . S
C128 O123 1.255 . S
C129 O130 1.258 . S
C129 O131 1.256 . S
O130 Cd122 2.381 . S
O130 C129 1.258 . S
O131 Cd122 2.378 . S
O131 C129 1.256 . S
H132 C138 0.930 . S
H133 C141 0.930 . S
H134 C142 0.930 . S
H135 C143 0.930 . S
H136 C146 0.930 . S
H137 C147 0.930 . S
C138 H132 0.930 . S
C138 C139 1.355 . S
C138 C140 1.415 . S
C139 C138 1.355 . S
C139 C141 1.419 1_655 S
C140 C138 1.415 . S
C140 C145 1.425 1_655 S
C140 C147 1.409 . S
C141 H133 0.930 . S
C141 C139 1.419 1_455 S
C141 C142 1.362 . S
C142 H134 0.930 . S
C142 C141 1.362 . S
C142 C145 1.409 . S
C143 H135 0.930 . S
C143 C144 1.355 . S
C143 C145 1.415 . S
C144 C143 1.355 . S
C144 C146 1.420 1_455 S
C145 C140 1.425 1_455 S
C145 C142 1.409 . S
C145 C143 1.415 . S
C146 H136 0.930 . S
C146 C144 1.420 1_655 S
C146 C147 1.362 . S
C147 H137 0.930 . S
C147 C140 1.409 . S
C147 C146 1.362 . S
H148 C154 0.930 . S
H149 C157 0.930 . S
H150 C158 0.930 . S
H151 C159 0.930 . S
H152 C162 0.930 . S
H153 C163 0.930 . S
C154 H148 0.930 . S
C154 C155 1.355 1_565 S
C154 C156 1.415 . S
C155 C154 1.355 1_545 S
C155 C157 1.419 . S
C156 C154 1.415 . S
C156 C161 1.425 1_565 S
C156 C163 1.409 . S
C157 H149 0.930 . S
C157 C155 1.419 . S
C157 C158 1.362 . S
C158 H150 0.930 . S
C158 C157 1.362 . S
C158 C161 1.409 . S
C159 H151 0.930 . S
C159 C160 1.355 1_545 S
C159 C161 1.415 . S
C160 C159 1.355 1_565 S
C160 C162 1.419 . S
C161 C156 1.425 1_545 S
C161 C158 1.409 . S
C161 C159 1.415 . S
C162 H152 0.930 . S
C162 C160 1.419 . S
C162 C163 1.362 . S
C163 H153 0.930 . S
C163 C156 1.409 . S
C163 C162 1.362 . S
H164 C170 0.930 . S
H165 C173 0.930 . S
H166 C174 0.930 . S
H167 C175 0.930 . S
H168 C178 0.930 . S
H169 C179 0.930 . S
C170 H164 0.930 . S
C170 C171 1.355 . S
C170 C172 1.415 . S
C171 C170 1.355 . S
C171 C173 1.419 . S
C172 C170 1.415 . S
C172 C177 1.425 . S
C172 C179 1.409 . S
C173 H165 0.930 . S
C173 C171 1.419 . S
C173 C174 1.362 . S
C174 H166 0.930 . S
C174 C173 1.362 . S
C174 C177 1.409 . S
C175 H167 0.930 . S
C175 C176 1.355 . S
C175 C177 1.415 . S
C176 C175 1.355 . S
C176 C178 1.419 . S
C177 C172 1.425 . S
C177 C174 1.409 . S
C177 C175 1.415 . S
C178 H168 0.930 . S
C178 C176 1.419 . S
C178 C179 1.362 . S
C179 H169 0.930 . S
C179 C172 1.409 . S
C179 C178 1.362 . S
H180 C186 0.930 . S
H181 C189 0.930 . S
H182 C190 0.930 . S
H183 C191 0.930 . S
H184 C194 0.930 . S
H185 C195 0.930 . S
C186 H180 0.930 . S
C186 C187 1.355 . S
C186 C188 1.415 . S
C187 C186 1.355 . S
C187 C189 1.419 1_545 S
C188 C186 1.415 . S
C188 C193 1.425 1_545 S
C188 C195 1.409 . S
C189 H181 0.930 . S
C189 C187 1.419 1_565 S
C189 C190 1.362 . S
C190 H182 0.930 . S
C190 C189 1.362 . S
C190 C193 1.409 . S
C191 H183 0.930 . S
C191 C192 1.355 . S
C191 C193 1.415 . S
C192 C191 1.355 . S
C192 C194 1.419 1_565 S
C193 C188 1.425 1_565 S
C193 C190 1.409 . S
C193 C191 1.415 . S
C194 H184 0.930 . S
C194 C192 1.419 1_545 S
C194 C195 1.362 . S
C195 H185 0.930 . S
C195 C188 1.409 . S
C195 C194 1.362 . S
H196 C202 0.930 . S
H197 C205 0.930 . S
H198 C206 0.930 . S
H199 C207 0.930 . S
H200 C210 0.930 . S
H201 C211 0.930 . S
C202 H196 0.930 . S
C202 C203 1.355 . S
C202 C204 1.415 . S
C203 C202 1.355 . S
C203 C205 1.419 . S
C204 C202 1.415 . S
C204 C209 1.425 . S
C204 C211 1.409 . S
C205 H197 0.930 . S
C205 C203 1.419 . S
C205 C206 1.362 . S
C206 H198 0.930 . S
C206 C205 1.362 . S
C206 C209 1.409 . S
C207 H199 0.930 . S
C207 C208 1.355 . S
C207 C209 1.415 . S
C208 C207 1.355 . S
C208 C210 1.419 . S
C209 C204 1.425 . S
C209 C206 1.409 . S
C209 C207 1.415 . S
C210 H200 0.930 . S
C210 C208 1.419 . S
C210 C211 1.362 . S
C211 H201 0.930 . S
C211 C204 1.409 . S
C211 C210 1.362 . S
H212 C218 0.930 . S
H213 C221 0.930 . S
H214 C222 0.930 . S
H215 C223 0.930 . S
H216 C226 0.930 . S
H217 C227 0.930 . S
C218 H212 0.930 . S
C218 C219 1.355 1_455 S
C218 C220 1.415 . S
C219 C218 1.355 1_655 S
C219 C221 1.419 . S
C220 C218 1.415 . S
C220 C225 1.425 1_455 S
C220 C227 1.409 . S
C221 H213 0.930 . S
C221 C219 1.419 . S
C221 C222 1.362 . S
C222 H214 0.930 . S
C222 C221 1.362 . S
C222 C225 1.409 . S
C223 H215 0.930 . S
C223 C224 1.355 1_655 S
C223 C225 1.415 . S
C224 C223 1.355 1_455 S
C224 C226 1.419 . S
C225 C220 1.425 1_655 S
C225 C222 1.409 . S
C225 C223 1.415 . S
C226 H216 0.930 . S
C226 C224 1.419 . S
C226 C227 1.362 . S
C227 H217 0.930 . S
C227 C220 1.409 . S
C227 C226 1.362 . S
H228 C234 0.930 . S
H229 C237 0.930 . S
H230 C238 0.930 . S
H231 C239 0.930 . S
H232 C242 0.930 . S
H233 C243 0.930 . S
C234 H228 0.930 . S
C234 C235 1.352 . S
C234 C236 1.415 . S
C235 C234 1.352 . S
C235 C237 1.422 1_455 S
C236 C234 1.415 . S
C236 C241 1.425 1_455 S
C236 C243 1.409 . S
C237 H229 0.930 . S
C237 C235 1.422 1_655 S
C237 C238 1.362 . S
C238 H230 0.930 . S
C238 C237 1.362 . S
C238 C241 1.409 . S
C239 H231 0.930 . S
C239 C240 1.353 1_655 S
C239 C241 1.415 . S
C240 C239 1.353 1_455 S
C240 C242 1.422 . S
C241 C236 1.425 1_655 S
C241 C238 1.409 . S
C241 C239 1.415 . S
C242 H232 0.930 . S
C242 C240 1.422 . S
C242 C243 1.362 . S
C243 H233 0.930 . S
C243 C236 1.409 . S
C243 C242 1.362 . S
H244 C250 0.930 . S
H245 C253 0.930 . S
H246 C254 0.930 . S
H247 C255 0.930 . S
H248 C258 0.930 . S
H249 C259 0.930 . S
C250 H244 0.930 . S
C250 C251 1.355 . S
C250 C252 1.415 . S
C251 C250 1.355 . S
C251 C253 1.419 1_565 S
C252 C250 1.415 . S
C252 C257 1.425 1_565 S
C252 C259 1.409 . S
C253 H245 0.930 . S
C253 C251 1.419 1_545 S
C253 C254 1.362 . S
C254 H246 0.930 . S
C254 C253 1.362 . S
C254 C257 1.409 . S
C255 H247 0.930 . S
C255 C256 1.355 . S
C255 C257 1.415 . S
C256 C255 1.355 . S
C256 C258 1.419 1_545 S
C257 C252 1.425 1_545 S
C257 C254 1.409 . S
C257 C255 1.415 . S
C258 H248 0.930 . S
C258 C256 1.419 1_565 S
C258 C259 1.362 . S
C259 H249 0.930 . S
C259 C252 1.409 . S
C259 C258 1.362 . S
H260 C266 0.930 . S
H261 C269 0.930 . S
H262 C270 0.930 . S
H263 C271 0.930 . S
H264 C274 0.930 . S
H265 C275 0.930 . S
C266 H260 0.930 . S
C266 C267 1.355 . S
C266 C268 1.415 . S
C267 C266 1.355 . S
C267 C269 1.419 . S
C268 C266 1.415 . S
C268 C273 1.425 . S
C268 C275 1.409 . S
C269 H261 0.930 . S
C269 C267 1.419 . S
C269 C270 1.362 . S
C270 H262 0.930 . S
C270 C269 1.362 . S
C270 C273 1.409 . S
C271 H263 0.930 . S
C271 C272 1.355 . S
C271 C273 1.415 . S
C272 C271 1.355 . S
C272 C274 1.419 . S
C273 C268 1.425 . S
C273 C270 1.409 . S
C273 C271 1.415 . S
C274 H264 0.930 . S
C274 C272 1.419 . S
C274 C275 1.362 . S
C275 H265 0.930 . S
C275 C268 1.409 . S
C275 C274 1.362 . S
H276 C282 0.930 . S
H277 C285 0.930 . S
H278 C286 0.930 . S
H279 C287 0.930 . S
H280 C290 0.930 . S
H281 C291 0.930 . S
C282 H276 0.930 . S
C282 C283 1.355 1_455 S
C282 C284 1.415 . S
C283 C282 1.355 1_655 S
C283 C285 1.419 . S
C284 C282 1.415 . S
C284 C289 1.425 1_455 S
C284 C291 1.409 . S
C285 H277 0.930 . S
C285 C283 1.419 . S
C285 C286 1.362 . S
C286 H278 0.930 . S
C286 C285 1.362 . S
C286 C289 1.409 . S
C287 H279 0.930 . S
C287 C288 1.355 1_655 S
C287 C289 1.415 . S
C288 C287 1.355 1_455 S
C288 C290 1.419 . S
C289 C284 1.425 1_655 S
C289 C286 1.409 . S
C289 C287 1.415 . S
C290 H280 0.930 . S
C290 C288 1.419 . S
C290 C291 1.362 . S
C291 H281 0.930 . S
C291 C284 1.409 . S
C291 C290 1.362 . S
H292 C298 0.930 . S
H293 C301 0.930 . S
H294 C302 0.930 . S
H295 C303 0.930 . S
H296 C306 0.930 . S
H297 C307 0.930 . S
C298 H292 0.930 . S
C298 C299 1.352 1_545 S
C298 C300 1.415 . S
C299 C298 1.352 1_565 S
C299 C301 1.423 . S
C300 C298 1.415 . S
C300 C305 1.425 1_545 S
C300 C307 1.409 . S
C301 H293 0.930 . S
C301 C299 1.423 . S
C301 C302 1.362 . S
C302 H294 0.930 . S
C302 C301 1.362 . S
C302 C305 1.409 . S
C303 H295 0.930 . S
C303 C304 1.350 1_565 S
C303 C305 1.415 . S
C304 C303 1.350 1_545 S
C304 C306 1.425 . S
C305 C300 1.425 1_565 S
C305 C302 1.409 . S
C305 C303 1.415 . S
C306 H296 0.930 . S
C306 C304 1.425 . S
C306 C307 1.362 . S
C307 H297 0.930 . S
C307 C300 1.409 . S
C307 C306 1.362 . S
H308 C314 0.930 . S
H309 C317 0.930 . S
H310 C318 0.930 . S
H311 C319 0.930 . S
H312 C322 0.930 . S
H313 C323 0.930 . S
C314 H308 0.930 . S
C314 C315 1.355 . S
C314 C316 1.415 . S
C315 C314 1.355 . S
C315 C317 1.419 . S
C316 C314 1.415 . S
C316 C321 1.425 . S
C316 C323 1.409 . S
C317 H309 0.930 . S
C317 C315 1.419 . S
C317 C318 1.362 . S
C318 H310 0.930 . S
C318 C317 1.362 . S
C318 C321 1.409 . S
C319 H311 0.930 . S
C319 C320 1.355 . S
C319 C321 1.415 . S
C320 C319 1.355 . S
C320 C322 1.419 . S
C321 C316 1.425 . S
C321 C318 1.409 . S
C321 C319 1.415 . S
C322 H312 0.930 . S
C322 C320 1.419 . S
C322 C323 1.362 . S
C323 H313 0.930 . S
C323 C316 1.409 . S
C323 C322 1.362 . S
H324 C330 0.930 . S
H325 C333 0.930 . S
H326 C334 0.930 . S
H327 C335 0.930 . S
H328 C338 0.930 . S
H329 C339 0.909 1_554 S
C330 H324 0.930 . S
C330 C331 1.355 . S
C330 C332 1.415 . S
C331 C330 1.355 . S
C331 C333 1.419 . S
C332 C330 1.415 . S
C332 C337 1.425 . S
C332 C339 1.452 . S
C333 H325 0.930 . S
C333 C331 1.419 . S
C333 C334 1.362 . S
C334 H326 0.930 . S
C334 C333 1.362 . S
C334 C337 1.409 . S
C335 H327 0.930 . S
C335 C336 1.355 . S
C335 C337 1.415 . S
C336 C335 1.355 . S
C336 C338 1.419 1_556 S
C337 C332 1.425 . S
C337 C334 1.409 . S
C337 C335 1.415 . S
C338 H328 0.930 . S
C338 C336 1.419 1_554 S
C338 C339 1.342 1_554 S
C339 H329 0.909 1_556 S
C339 C332 1.452 . S
C339 C338 1.342 1_556 S
H340 C346 0.930 . S
H341 C349 0.930 . S
H342 C350 0.930 . S
H343 C351 0.930 . S
H344 C354 0.930 . S
H345 C355 0.930 . S
C346 H340 0.930 . S
C346 C347 1.355 . S
C346 C348 1.415 . S
C347 C346 1.355 . S
C347 C349 1.419 . S
C348 C346 1.415 . S
C348 C353 1.425 . S
C348 C355 1.409 . S
C349 H341 0.930 . S
C349 C347 1.419 . S
C349 C350 1.362 . S
C350 H342 0.930 . S
C350 C349 1.362 . S
C350 C353 1.409 . S
C351 H343 0.930 . S
C351 C352 1.355 . S
C351 C353 1.415 . S
C352 C351 1.355 . S
C352 C354 1.419 . S
C353 C348 1.425 . S
C353 C350 1.409 . S
C353 C351 1.415 . S
C354 H344 0.930 . S
C354 C352 1.419 . S
C354 C355 1.362 . S
C355 H345 0.930 . S
C355 C348 1.409 . S
C355 C354 1.362 . S
H356 C362 0.930 . S
H357 C365 0.930 . S
H358 C366 0.930 . S
H359 C367 0.930 . S
H360 C370 0.930 . S
H361 C371 0.930 . S
C362 H356 0.930 . S
C362 C363 1.355 . S
C362 C364 1.415 . S
C363 C362 1.355 . S
C363 C365 1.419 . S
C364 C362 1.415 . S
C364 C369 1.425 . S
C364 C371 1.409 . S
C365 H357 0.930 . S
C365 C363 1.419 . S
C365 C366 1.362 . S
C366 H358 0.930 . S
C366 C365 1.362 . S
C366 C369 1.409 . S
C367 H359 0.930 . S
C367 C368 1.355 . S
C367 C369 1.415 . S
C368 C367 1.355 . S
C368 C370 1.419 . S
C369 C364 1.425 . S
C369 C366 1.409 . S
C369 C367 1.415 . S
C370 H360 0.930 . S
C370 C368 1.419 . S
C370 C371 1.362 . S
C371 H361 0.930 . S
C371 C364 1.409 . S
C371 C370 1.362 . S
H372 C378 0.930 . S
H373 C381 0.930 . S
H374 C382 0.959 . S
H375 C383 0.930 . S
H376 C386 0.930 . S
H377 C387 0.930 . S
C378 H372 0.930 . S
C378 C379 1.355 . S
C378 C380 1.415 . S
C379 C378 1.355 . S
C379 C381 1.419 1_556 S
C380 C378 1.415 . S
C380 C385 1.425 . S
C380 C387 1.409 . S
C381 H373 0.930 . S
C381 C379 1.419 1_554 S
C381 C382 1.384 . S
C382 H374 0.959 . S
C382 C381 1.384 . S
C382 C385 1.361 1_554 S
C383 H375 0.930 . S
C383 C384 1.355 . S
C383 C385 1.415 . S
C384 C383 1.355 . S
C384 C386 1.419 . S
C385 C380 1.425 . S
C385 C382 1.361 1_556 S
C385 C383 1.415 . S
C386 H376 0.930 . S
C386 C384 1.419 . S
C386 C387 1.362 . S
C387 H377 0.930 . S
C387 C380 1.409 . S
C387 C386 1.362 . S
H388 C394 0.930 . S
H389 C397 0.930 . S
H390 C398 0.930 . S
H391 C399 0.930 . S
H392 C402 0.930 . S
H393 C403 0.930 . S
C394 H388 0.930 . S
C394 C395 1.355 . S
C394 C396 1.415 . S
C395 C394 1.355 . S
C395 C397 1.419 . S
C396 C394 1.415 . S
C396 C401 1.425 . S
C396 C403 1.409 . S
C397 H389 0.930 . S
C397 C395 1.419 . S
C397 C398 1.362 . S
C398 H390 0.930 . S
C398 C397 1.362 . S
C398 C401 1.409 . S
C399 H391 0.930 . S
C399 C400 1.355 . S
C399 C401 1.415 . S
C400 C399 1.355 . S
C400 C402 1.419 . S
C401 C396 1.425 . S
C401 C398 1.409 . S
C401 C399 1.415 . S
C402 H392 0.930 . S
C402 C400 1.419 . S
C402 C403 1.362 . S
C403 H393 0.930 . S
C403 C396 1.409 . S
C403 C402 1.362 . S
H404 C410 0.930 . S
H405 C413 0.930 . S
H406 C414 0.930 . S
H407 C415 0.930 . S
H408 C418 0.930 . S
H409 C419 0.930 . S
C410 H404 0.930 . S
C410 C411 1.355 . S
C410 C412 1.415 . S
C411 C410 1.355 . S
C411 C413 1.419 . S
C412 C410 1.415 . S
C412 C417 1.425 . S
C412 C419 1.409 . S
C413 H405 0.930 . S
C413 C411 1.419 . S
C413 C414 1.362 . S
C414 H406 0.930 . S
C414 C413 1.362 . S
C414 C417 1.409 . S
C415 H407 0.930 . S
C415 C416 1.355 . S
C415 C417 1.415 . S
C416 C415 1.355 . S
C416 C418 1.419 . S
C417 C412 1.425 . S
C417 C414 1.409 . S
C417 C415 1.415 . S
C418 H408 0.930 . S
C418 C416 1.419 . S
C418 C419 1.362 . S
C419 H409 0.930 . S
C419 C412 1.409 . S
C419 C418 1.362 . S
C139 C40 1.529 . S
C144 C7 1.518 . S
C155 C18 1.492 . S
C160 C51 1.489 . S
C171 C62 1.489 . S
C176 C29 1.488 . S
C187 C73 1.538 1_545 S
C192 C106 1.548 1_565 S
C203 C117 1.560 . S
C208 C84 1.550 . S
C219 C95 1.551 1_655 S
C224 C128 1.541 1_455 S
C235 C126 1.214 1_455 S
C240 C5 1.248 . S
C251 C16 1.238 1_565 S
C256 C71 1.342 1_545 S
C267 C27 1.235 . S
C272 C82 1.339 . S
C283 C93 1.358 1_655 S
C288 C38 1.270 1_455 S
C299 C49 1.220 . S
C304 C104 1.239 . S
C315 C115 1.261 . S
C320 C60 1.207 . S
C331 C118 1.616 . S
C336 C8 1.579 1_556 S
C347 C129 1.635 . S
C352 C19 1.589 . S
C363 C30 1.625 . S
C368 C74 1.630 . S
C379 C41 1.612 1_556 S
C384 C85 1.579 . S
C395 C52 1.637 . S
C400 C96 1.614 . S
C411 C63 1.630 . S
C416 C107 1.584 . S
