# Generated by pormake.
# Topology umx, (4)-cn, num edge types: 1
# Building blocks:
#     Node 0, Type 0, BuildingBlock: ICAMEG_clean_sbu_1, # of connection points: 4
#     Node 1, Type 0, BuildingBlock: ICAMEG_clean_sbu_1, # of connection points: 4
#     Node 2, Type 0, BuildingBlock: ICAMEG_clean_sbu_1, # of connection points: 4
#     Node 3, Type 0, BuildingBlock: ICAMEG_clean_sbu_1, # of connection points: 4
#     Node 4, Type 0, BuildingBlock: ICAMEG_clean_sbu_1, # of connection points: 4
#     Node 5, Type 0, BuildingBlock: ICAMEG_clean_sbu_1, # of connection points: 4
#     Node 6, Type 0, BuildingBlock: ICAMEG_clean_sbu_1, # of connection points: 4
#     Node 7, Type 0, BuildingBlock: ICAMEG_clean_sbu_1, # of connection points: 4
#     Edge 8, Type (0, 0), None
#     Edge 9, Type (0, 0), None
#     Edge 10, Type (0, 0), None
#     Edge 11, Type (0, 0), None
#     Edge 12, Type (0, 0), None
#     Edge 13, Type (0, 0), None
#     Edge 14, Type (0, 0), None
#     Edge 15, Type (0, 0), None
#     Edge 16, Type (0, 0), None
#     Edge 17, Type (0, 0), None
#     Edge 18, Type (0, 0), None
#     Edge 19, Type (0, 0), None
#     Edge 20, Type (0, 0), None
#     Edge 21, Type (0, 0), None
#     Edge 22, Type (0, 0), None
#     Edge 23, Type (0, 0), None
# Relax obj value: 0.044
# Max RMSD: 0.111
# Mean RMSD: 0.111
data_MOF--net-umx--node1-ICAMEG_clean_sbu_1--edge1-none
_symmetry_space_group_name_H-M    P1
_symmetry_Int_Tables_number       1
_symmetry_cell_setting            triclinic
loop_
_symmetry_equiv_pos_as_xyz
'x, y, z'
_cell_length_a     20.139418
_cell_length_b     20.141145
_cell_length_c     14.406758
_cell_angle_alpha  90.000431
_cell_angle_beta   89.999589
_cell_angle_gamma 89.994393
loop_
_atom_site_label
_atom_site_type_symbol
_atom_site_fract_x
_atom_site_fract_y
_atom_site_fract_z
_atom_type_partial_charge
Co0 Co 0.17043 0.54866 0.0416 0.0
Co1 Co 0.15334 0.38624 0.10393 0.0
O2 O 0.19436 0.45606 0.03288 0.0
C3 C 0.14564 0.49982 0.85065 0.0
O4 O 0.10929 0.45463 0.89125 0.0
C5 C 0.29903 0.34906 0.06502 0.0
O6 O 0.31542 0.41185 0.06301 0.0
O7 O 0.18011 0.4319 0.22283 0.0
O8 O 0.17041 0.54125 0.187 0.0
H9 H 0.99956 0.29456 0.33921 0.0
H10 H 0.29079 0.49991 0.92658 0.0
O11 O 0.17006 0.5479 0.8991 0.0
H12 H 0.35111 0.71147 0.17486 0.0
H13 H 0.15312 0.78363 0.92047 0.0
H14 H 0.08146 0.62828 0.1621 0.0
H15 H 0.23583 0.64432 0.16404 0.0
H16 H 0.18872 0.66621 0.91596 0.0
O17 O 0.24124 0.33221 0.09521 0.0
H18 H 0.05885 0.38187 0.25854 0.0
H19 H 0.16617 0.23768 0.10393 0.0
H20 H 0.03966 0.74377 0.15832 0.0
H21 H 0.41698 0.53535 0.88505 0.0
H22 H 0.07914 0.8225 0.04251 0.0
H23 H 0.47971 0.64072 0.9753 0.0
O24 O 0.07436 0.53331 0.03806 0.0
H25 H 0.20496 0.26454 0.81432 0.0
H26 H 0.02997 0.32536 0.03546 0.0
H27 H 0.00898 0.23534 0.92315 0.0
H28 H 0.096 0.2047 0.80972 0.0
H29 H 0.22136 0.35454 0.92403 0.0
H30 H 0.11247 0.14779 0.19181 0.0
H31 H 0.02924 0.17537 0.3125 0.0
O32 O 0.06132 0.43638 0.10855 0.0
C33 C 0.17787 0.49325 0.24725 0.0
C34 C 0.03837 0.28099 0.29163 0.0
C35 C 0.10114 0.19904 0.20759 0.0
N36 N 0.1156 0.31516 0.17621 0.0
C37 C 0.07089 0.33075 0.24342 0.0
C38 C 0.13158 0.25032 0.15841 0.0
C39 C 0.05431 0.21459 0.27507 0.0
C40 C 0.31163 0.53911 0.96869 0.0
N41 N 0.26452 0.57214 0.04489 0.0
C42 C 0.39115 0.56162 0.93967 0.0
C43 C 0.42948 0.62656 0.99541 0.0
C44 C 0.34587 0.67454 0.12073 0.0
C45 C 0.27478 0.63045 0.11662 0.0
C46 C 0.1399 0.74993 0.97464 0.0
C47 C 0.09947 0.66233 0.10992 0.0
C48 C 0.16111 0.68388 0.97433 0.0
N49 N 0.14385 0.64169 0.04442 0.0
C50 C 0.07478 0.72717 0.10832 0.0
C51 C 0.09714 0.77185 0.04279 0.0
C52 C 0.03791 0.49291 0.08018 0.0
C53 C 0.16475 0.27835 0.85988 0.0
C54 C 0.06686 0.31297 0.98491 0.0
C55 C 0.05481 0.26261 0.92085 0.0
C56 C 0.10434 0.24477 0.85834 0.0
N57 N 0.12775 0.3417 0.99042 0.0
C58 C 0.17471 0.32845 0.92459 0.0
Co59 Co 0.45329 0.17007 0.53983 0.0
Co60 Co 0.61595 0.15223 0.6037 0.0
O61 O 0.54583 0.19174 0.53192 0.0
C62 C 0.50125 0.14469 0.34779 0.0
O63 O 0.54384 0.10482 0.38688 0.0
C64 C 0.65449 0.29771 0.56463 0.0
O65 O 0.59192 0.31498 0.56821 0.0
O66 O 0.56907 0.18552 0.71919 0.0
O67 O 0.46012 0.16891 0.68486 0.0
H68 H 0.75996 0.16855 0.87927 0.0
H69 H 0.50322 0.29184 0.42567 0.0
O70 O 0.45472 0.17079 0.3972 0.0
H71 H 0.29453 0.35247 0.67753 0.0
H72 H 0.21882 0.17573 0.4157 0.0
H73 H 0.36579 0.08061 0.65403 0.0
H74 H 0.35942 0.23657 0.66362 0.0
H75 H 0.3397 0.19447 0.4115 0.0
O76 O 0.67129 0.23827 0.58714 0.0
H77 H 0.6558 0.1584 0.80453 0.0
H78 H 0.75647 0.09304 0.5602 0.0
H79 H 0.24776 0.04106 0.63538 0.0
H80 H 0.4677 0.41847 0.38495 0.0
H81 H 0.17456 0.09286 0.52421 0.0
H82 H 0.36275 0.48131 0.47683 0.0
O83 O 0.47019 0.07333 0.53839 0.0
H84 H 0.73827 0.18096 0.30854 0.0
H85 H 0.64236 0.01625 0.51994 0.0
H86 H 0.70984 0.97779 0.3892 0.0
H87 H 0.76679 0.06142 0.29003 0.0
H88 H 0.66317 0.21526 0.42793 0.0
H89 H 0.85729 0.08411 0.6446 0.0
H90 H 0.86269 0.12378 0.80692 0.0
O91 O 0.56371 0.06233 0.62097 0.0
C92 C 0.50806 0.17884 0.74455 0.0
C93 C 0.75832 0.14547 0.81211 0.0
C94 C 0.81249 0.0996 0.68008 0.0
N95 N 0.69371 0.12116 0.67577 0.0
C96 C 0.69774 0.14097 0.76645 0.0
C97 C 0.75207 0.10214 0.63275 0.0
C98 C 0.8157 0.12208 0.77056 0.0
C99 C 0.46397 0.31259 0.4678 0.0
N100 N 0.43096 0.26516 0.54366 0.0
C101 C 0.4414 0.39242 0.43933 0.0
C102 C 0.3765 0.43077 0.49584 0.0
C103 C 0.32912 0.34671 0.62087 0.0
C104 C 0.37305 0.27555 0.61592 0.0
C105 C 0.2512 0.15428 0.46726 0.0
C106 C 0.33366 0.10231 0.60226 0.0
C107 C 0.31904 0.16836 0.46901 0.0
N108 N 0.35887 0.14631 0.53942 0.0
C109 C 0.26747 0.08078 0.59469 0.0
C110 C 0.22578 0.10868 0.52925 0.0
C111 C 0.50855 0.03817 0.58767 0.0
C112 C 0.71734 0.1437 0.35309 0.0
C113 C 0.66149 0.05236 0.47232 0.0
C114 C 0.7009 0.03019 0.39892 0.0
C115 C 0.73174 0.07674 0.34205 0.0
N116 N 0.6541 0.11902 0.48867 0.0
C117 C 0.67609 0.16362 0.42437 0.0
Co118 Co 0.83168 0.45367 0.04176 0.0
Co119 Co 0.8489 0.61609 0.10396 0.0
O120 O 0.80778 0.54627 0.03304 0.0
C121 C 0.85644 0.50253 0.8508 0.0
O122 O 0.89282 0.54768 0.89141 0.0
C123 C 0.70319 0.65326 0.06542 0.0
O124 O 0.68678 0.59047 0.06373 0.0
O125 O 0.82221 0.57051 0.22295 0.0
O126 O 0.83173 0.46113 0.18714 0.0
H127 H 0.00264 0.7078 0.33938 0.0
H128 H 0.71132 0.5025 0.9268 0.0
O129 O 0.83203 0.45444 0.89925 0.0
H130 H 0.65104 0.29078 0.17486 0.0
H131 H 0.84917 0.21867 0.92068 0.0
H132 H 0.92033 0.374 0.16261 0.0
H133 H 0.76625 0.35806 0.16423 0.0
H134 H 0.81357 0.33611 0.91602 0.0
O135 O 0.76103 0.67017 0.09534 0.0
H136 H 0.94341 0.62048 0.25858 0.0
H137 H 0.83635 0.76466 0.10361 0.0
H138 H 0.96197 0.25846 0.15915 0.0
H139 H 0.58518 0.46697 0.88512 0.0
H140 H 0.92279 0.17978 0.0431 0.0
H141 H 0.52248 0.36152 0.97523 0.0
O142 O 0.92776 0.46893 0.03819 0.0
H143 H 0.79725 0.73795 0.81437 0.0
H144 H 0.97241 0.67619 0.03473 0.0
H145 H 0.99379 0.7658 0.92192 0.0
H146 H 0.90659 0.79709 0.80913 0.0
H147 H 0.78059 0.64813 0.9243 0.0
H148 H 0.88998 0.85457 0.19157 0.0
H149 H 0.97304 0.82698 0.31253 0.0
O150 O 0.94089 0.5659 0.10853 0.0
C151 C 0.82438 0.50917 0.24738 0.0
C152 C 0.9639 0.72137 0.29168 0.0
C153 C 0.90129 0.80331 0.2074 0.0
N154 N 0.88679 0.68719 0.17608 0.0
C155 C 0.93142 0.6716 0.24339 0.0
C156 C 0.87089 0.75203 0.15816 0.0
C157 C 0.94801 0.78777 0.27504 0.0
C158 C 0.69048 0.46327 0.96887 0.0
N159 N 0.73758 0.43025 0.04509 0.0
C160 C 0.611 0.44071 0.93976 0.0
C161 C 0.57269 0.37572 0.99542 0.0
C162 C 0.65627 0.32777 0.12081 0.0
C163 C 0.72732 0.37192 0.11678 0.0
C164 C 0.86227 0.25239 0.97489 0.0
C165 C 0.90243 0.33997 0.11035 0.0
C166 C 0.84108 0.31845 0.97449 0.0
N167 N 0.85821 0.36064 0.04464 0.0
C168 C 0.92704 0.27511 0.10892 0.0
C169 C 0.90484 0.23045 0.04326 0.0
C170 C 0.96425 0.50934 0.08023 0.0
C171 C 0.83747 0.72395 0.85981 0.0
C172 C 0.93546 0.68884 0.98442 0.0
C173 C 0.94771 0.73897 0.92008 0.0
C174 C 0.89811 0.75713 0.85788 0.0
N175 N 0.8744 0.66054 0.99034 0.0
C176 C 0.82737 0.67399 0.92467 0.0
Co177 Co 0.54899 0.83224 0.5399 0.0
Co178 Co 0.38632 0.85013 0.60373 0.0
O179 O 0.45644 0.8106 0.53198 0.0
C180 C 0.50103 0.85759 0.34786 0.0
O181 O 0.45845 0.89747 0.38694 0.0
C182 C 0.34785 0.70465 0.56481 0.0
O183 O 0.41042 0.68739 0.56855 0.0
O184 O 0.43318 0.81688 0.71925 0.0
O185 O 0.54214 0.83341 0.68494 0.0
H186 H 0.24224 0.83392 0.87926 0.0
H187 H 0.49904 0.71046 0.42575 0.0
O188 O 0.54756 0.8315 0.39727 0.0
H189 H 0.70771 0.64983 0.67763 0.0
H190 H 0.78344 0.82663 0.41571 0.0
H191 H 0.63648 0.92172 0.65406 0.0
H192 H 0.64282 0.76573 0.66372 0.0
H193 H 0.66258 0.80782 0.41156 0.0
O194 O 0.33101 0.76408 0.58722 0.0
H195 H 0.34641 0.84397 0.80454 0.0
H196 H 0.24582 0.90937 0.56016 0.0
H197 H 0.75446 0.96136 0.6353 0.0
H198 H 0.53459 0.58385 0.385 0.0
H199 H 0.82767 0.90957 0.52413 0.0
H200 H 0.63955 0.52102 0.47687 0.0
O201 O 0.53211 0.92899 0.53845 0.0
H202 H 0.26384 0.82125 0.30873 0.0
H203 H 0.35996 0.98608 0.51978 0.0
H204 H 0.29243 0.02448 0.38908 0.0
H205 H 0.23537 0.94079 0.29007 0.0
H206 H 0.33905 0.78701 0.42802 0.0
H207 H 0.145 0.91837 0.64453 0.0
H208 H 0.13956 0.87877 0.80689 0.0
O209 O 0.43855 0.94004 0.62095 0.0
C210 C 0.49419 0.8235 0.74462 0.0
C211 C 0.24391 0.85701 0.81209 0.0
C212 C 0.18978 0.90286 0.68003 0.0
N213 N 0.30855 0.88122 0.67575 0.0
C214 C 0.30449 0.86143 0.76644 0.0
C215 C 0.25021 0.90027 0.63271 0.0
C216 C 0.18654 0.88042 0.77052 0.0
C217 C 0.53829 0.68972 0.46788 0.0
N218 N 0.57129 0.73714 0.54375 0.0
C219 C 0.56088 0.6099 0.43939 0.0
C220 C 0.62579 0.57154 0.49589 0.0
C221 C 0.67314 0.6556 0.62095 0.0
C222 C 0.6292 0.72675 0.61601 0.0
C223 C 0.75106 0.84807 0.46728 0.0
C224 C 0.66861 0.90002 0.6023 0.0
C225 C 0.68323 0.83394 0.46908 0.0
N226 N 0.64341 0.85599 0.53949 0.0
C227 C 0.73478 0.9216 0.59467 0.0
C228 C 0.77647 0.8937 0.52922 0.0
C229 C 0.49374 0.96417 0.5877 0.0
C230 C 0.28484 0.85854 0.35318 0.0
C231 C 0.3408 0.94995 0.47223 0.0
C232 C 0.30136 0.97208 0.39884 0.0
C233 C 0.27046 0.9255 0.34206 0.0
N234 N 0.34818 0.88329 0.48866 0.0
C235 C 0.32614 0.83866 0.42443 0.0
Co236 Co 0.17008 0.45332 0.55625 0.0
Co237 Co 0.15229 0.61598 0.49245 0.0
O238 O 0.19178 0.54584 0.56417 0.0
C239 C 0.14461 0.50127 0.74825 0.0
O240 O 0.10472 0.54384 0.70916 0.0
C241 C 0.29776 0.65449 0.53164 0.0
O242 O 0.31505 0.59193 0.52815 0.0
O243 O 0.18554 0.56913 0.3769 0.0
O244 O 0.16893 0.46018 0.41121 0.0
H245 H 0.16807 0.75968 0.21651 0.0
H246 H 0.29185 0.50319 0.67048 0.0
O247 O 0.17077 0.45476 0.69886 0.0
H248 H 0.35249 0.29455 0.41855 0.0
H249 H 0.17569 0.21889 0.68043 0.0
H250 H 0.08059 0.36583 0.44206 0.0
H251 H 0.23659 0.35947 0.43245 0.0
H252 H 0.19445 0.33976 0.68461 0.0
O253 O 0.23834 0.67128 0.50903 0.0
H254 H 0.15749 0.65552 0.29138 0.0
H255 H 0.0943 0.75682 0.53628 0.0
H256 H 0.04103 0.24781 0.46075 0.0
H257 H 0.41847 0.46763 0.71123 0.0
H258 H 0.09283 0.17463 0.57193 0.0
H259 H 0.4813 0.36269 0.61934 0.0
O260 O 0.07333 0.47023 0.55766 0.0
H261 H 0.18137 0.73838 0.78733 0.0
H262 H 0.01637 0.6429 0.57595 0.0
H263 H 0.97813 0.71105 0.70616 0.0
H264 H 0.06198 0.76788 0.80513 0.0
H265 H 0.21536 0.66266 0.66844 0.0
H266 H 0.08511 0.85754 0.45171 0.0
H267 H 0.12391 0.8626 0.28898 0.0
O268 O 0.06233 0.56381 0.47524 0.0
C269 C 0.17885 0.50813 0.35152 0.0
C270 C 0.14515 0.75814 0.28379 0.0
C271 C 0.10015 0.81263 0.41614 0.0
N272 N 0.12123 0.69377 0.42047 0.0
C273 C 0.14055 0.69762 0.32957 0.0
C274 C 0.10276 0.75227 0.46359 0.0
C275 C 0.12217 0.81566 0.32543 0.0
C276 C 0.3126 0.46395 0.62833 0.0
N277 N 0.26517 0.43097 0.55244 0.0
C278 C 0.39242 0.44135 0.65683 0.0
C279 C 0.43078 0.37646 0.60031 0.0
C280 C 0.34672 0.32914 0.47522 0.0
C281 C 0.27556 0.37308 0.48016 0.0
C282 C 0.15425 0.25127 0.62887 0.0
C283 C 0.10229 0.33371 0.49383 0.0
C284 C 0.16834 0.3191 0.62709 0.0
N285 N 0.1463 0.35891 0.55666 0.0
C286 C 0.08075 0.26753 0.50143 0.0
C287 C 0.10865 0.22584 0.56688 0.0
C288 C 0.03816 0.50865 0.50849 0.0
C289 C 0.14404 0.71753 0.74282 0.0
C290 C 0.0525 0.66192 0.62362 0.0
C291 C 0.03048 0.70171 0.69671 0.0
C292 C 0.07715 0.73246 0.7535 0.0
N293 N 0.11915 0.65411 0.60749 0.0
C294 C 0.16379 0.67592 0.67185 0.0
Co295 Co 0.54865 0.1705 0.05444 0.0
Co296 Co 0.3862 0.15336 0.99221 0.0
O297 O 0.45604 0.19439 0.0632 0.0
C298 C 0.49981 0.14571 0.24539 0.0
O299 O 0.45461 0.10936 0.20481 0.0
C300 C 0.34903 0.29905 0.03098 0.0
O301 O 0.41182 0.31543 0.03294 0.0
O302 O 0.43183 0.18007 0.87325 0.0
O303 O 0.54121 0.17051 0.90906 0.0
H304 H 0.29446 0.99959 0.75695 0.0
H305 H 0.49982 0.29077 0.16952 0.0
O306 O 0.54791 0.1701 0.19693 0.0
H307 H 0.71146 0.35128 0.92142 0.0
H308 H 0.78368 0.15304 0.17543 0.0
H309 H 0.62828 0.08176 0.93364 0.0
H310 H 0.64429 0.236 0.93204 0.0
H311 H 0.66624 0.18871 0.18004 0.0
O312 O 0.33216 0.24125 1.00087 0.0
H313 H 0.38179 0.05882 0.83765 0.0
H314 H 0.23762 0.16615 0.9923 0.0
H315 H 0.74382 0.04005 0.93717 0.0
H316 H 0.53522 0.41692 0.21121 0.0
H317 H 0.82253 0.07929 0.05314 0.0
H318 H 0.6406 0.47974 0.12109 0.0
O319 O 0.53336 0.07443 0.05793 0.0
H320 H 0.26445 0.20507 0.2818 0.0
H321 H 0.32546 0.03001 0.06089 0.0
H322 H 0.23547 0.00898 0.17326 0.0
H323 H 0.20471 0.09606 0.28652 0.0
H324 H 0.35445 0.22147 0.17205 0.0
H325 H 0.1477 0.11249 0.90442 0.0
H326 H 0.17526 0.02929 0.78368 0.0
O327 O 0.43634 0.06134 0.98765 0.0
C328 C 0.49318 0.17789 0.84882 0.0
C329 C 0.28089 0.03837 0.80456 0.0
C330 C 0.19896 0.10114 0.88863 0.0
N331 N 0.31509 0.11558 0.91999 0.0
C332 C 0.33067 0.07087 0.85278 0.0
C333 C 0.25025 0.13156 0.93782 0.0
C334 C 0.21449 0.05433 0.82113 0.0
C335 C 0.53902 0.31164 0.12744 0.0
N336 N 0.57207 0.26459 0.0512 0.0
C337 C 0.5615 0.39114 0.15656 0.0
C338 C 0.62645 0.42952 0.10089 0.0
C339 C 0.67448 0.34601 0.97548 0.0
C340 C 0.6304 0.27491 0.97949 0.0
C341 C 0.74996 0.13991 0.12124 0.0
C342 C 0.66234 0.09969 0.98587 0.0
C343 C 0.6839 0.16114 0.12162 0.0
N344 N 0.64169 0.14396 0.05152 0.0
C345 C 0.72719 0.07504 0.98734 0.0
C346 C 0.77187 0.09727 0.05295 0.0
C347 C 0.49291 0.03796 0.01594 0.0
C348 C 0.2783 0.16485 0.23627 0.0
C349 C 0.31301 0.06692 0.11137 0.0
C350 C 0.26267 0.05485 0.17547 0.0
C351 C 0.24477 0.10441 0.23789 0.0
N352 N 0.34167 0.12783 0.10576 0.0
C353 C 0.32839 0.17481 0.17154 0.0
Co354 Co 0.83222 0.54908 0.55636 0.0
Co355 Co 0.85011 0.38643 0.49249 0.0
O356 O 0.81058 0.45653 0.56428 0.0
C357 C 0.8575 0.5011 0.74841 0.0
O358 O 0.89736 0.45849 0.70935 0.0
C359 C 0.70462 0.34786 0.53153 0.0
O360 O 0.68733 0.41042 0.52796 0.0
O361 O 0.81681 0.4333 0.37701 0.0
O362 O 0.8334 0.54224 0.41133 0.0
H363 H 0.8335 0.24231 0.21709 0.0
H364 H 0.71045 0.49912 0.67051 0.0
O365 O 0.83146 0.54766 0.69899 0.0
H366 H 0.64977 0.70776 0.41863 0.0
H367 H 0.82641 0.78356 0.68033 0.0
H368 H 0.92173 0.63656 0.4422 0.0
H369 H 0.76568 0.64289 0.43253 0.0
H370 H 0.80777 0.66268 0.68464 0.0
O371 O 0.76407 0.33108 0.50903 0.0
H372 H 0.84361 0.34647 0.29174 0.0
H373 H 0.90969 0.24601 0.53588 0.0
H374 H 0.9613 0.75458 0.46089 0.0
H375 H 0.58382 0.53464 0.71126 0.0
H376 H 0.90932 0.82782 0.57187 0.0
H377 H 0.52096 0.63958 0.6194 0.0
O378 O 0.92898 0.5322 0.55782 0.0
H379 H 0.82142 0.26391 0.78748 0.0
H380 H 0.98612 0.36019 0.57639 0.0
H381 H 0.02461 0.29272 0.70707 0.0
H382 H 0.941 0.23556 0.80609 0.0
H383 H 0.78707 0.33904 0.66819 0.0
H384 H 0.91846 0.14517 0.45156 0.0
H385 H 0.87846 0.13965 0.2894 0.0
O386 O 0.94 0.43869 0.47521 0.0
C387 C 0.82346 0.4943 0.35164 0.0
C388 C 0.85668 0.24399 0.2842 0.0
C389 C 0.90284 0.18993 0.41611 0.0
N390 N 0.88118 0.30868 0.4204 0.0
C391 C 0.86118 0.30458 0.3298 0.0
C392 C 0.90036 0.25037 0.46339 0.0
C393 C 0.88018 0.18665 0.32572 0.0
C394 C 0.68969 0.53837 0.62837 0.0
N395 N 0.73711 0.57137 0.5525 0.0
C396 C 0.60986 0.56094 0.65687 0.0
C397 C 0.57149 0.62583 0.60037 0.0
C398 C 0.65554 0.67319 0.4753 0.0
C399 C 0.72671 0.62927 0.48023 0.0
C400 C 0.84789 0.75118 0.6288 0.0
C401 C 0.89998 0.6687 0.49392 0.0
C402 C 0.83387 0.68334 0.6271 0.0
N403 N 0.85595 0.6435 0.55674 0.0
C404 C 0.9215 0.73489 0.50147 0.0
C405 C 0.89351 0.77661 0.56683 0.0
C406 C 0.96415 0.49385 0.5085 0.0
C407 C 0.85868 0.28492 0.743 0.0
C408 C 0.95001 0.34099 0.62394 0.0
C409 C 0.9722 0.30158 0.69732 0.0
C410 C 0.92566 0.27062 0.7541 0.0
N411 N 0.88333 0.34827 0.60751 0.0
C412 C 0.83873 0.32618 0.67175 0.0
Co413 Co 0.45359 0.83177 0.05452 0.0
Co414 Co 0.61604 0.84889 0.99225 0.0
O415 O 0.5462 0.80787 0.06327 0.0
C416 C 0.50247 0.85655 0.24546 0.0
O417 O 0.54765 0.89291 0.20486 0.0
C418 C 0.65319 0.70321 0.0312 0.0
O419 O 0.5904 0.68683 0.0332 0.0
O420 O 0.5704 0.82216 0.87333 0.0
O421 O 0.46103 0.83181 0.90913 0.0
H422 H 0.70779 0.00265 0.75698 0.0
H423 H 0.50231 0.71143 0.16962 0.0
O424 O 0.45436 0.83215 0.19702 0.0
H425 H 0.29079 0.65111 0.92125 0.0
H426 H 0.21855 0.84889 0.17546 0.0
H427 H 0.37391 0.92058 0.93384 0.0
H428 H 0.358 0.76634 0.93203 0.0
H429 H 0.33605 0.81352 0.18017 0.0
O430 O 0.67006 0.76099 1.00097 0.0
H431 H 0.62045 0.94345 0.83772 0.0
H432 H 0.76462 0.83598 0.99218 0.0
H433 H 0.25836 0.96225 0.93748 0.0
H434 H 0.4668 0.58528 0.21122 0.0
H435 H 0.17964 0.92277 0.05332 0.0
H436 H 0.36143 0.52256 0.12095 0.0
O437 O 0.46891 0.92784 0.05803 0.0
H438 H 0.73781 0.79721 0.28184 0.0
H439 H 0.67686 0.97223 0.06084 0.0
H440 H 0.76689 0.99323 0.17317 0.0
H441 H 0.79762 0.90617 0.28646 0.0
H442 H 0.64775 0.78083 0.17217 0.0
H443 H 0.85453 0.8895 0.90413 0.0
H444 H 0.82697 0.97282 0.78352 0.0
O445 O 0.5659 0.9409 0.98767 0.0
C446 C 0.50906 0.8244 0.84889 0.0
C447 C 0.72135 0.96382 0.80452 0.0
C448 C 0.80328 0.90094 0.88845 0.0
N449 N 0.68715 0.88663 0.91999 0.0
C450 C 0.67157 0.93135 0.8528 0.0
C451 C 0.75198 0.87058 0.93772 0.0
C452 C 0.78775 0.9478 0.821 0.0
C453 C 0.46312 0.69059 0.12749 0.0
N454 N 0.43014 0.73768 0.05124 0.0
C455 C 0.44057 0.6111 0.15655 0.0
C456 C 0.37562 0.57277 0.1008 0.0
C457 C 0.32772 0.65635 0.97538 0.0
C458 C 0.37185 0.72741 0.97948 0.0
C459 C 0.25227 0.86217 0.12134 0.0
C460 C 0.33987 0.90261 0.98606 0.0
C461 C 0.31836 0.84106 0.12174 0.0
N462 N 0.36056 0.85831 0.05166 0.0
C463 C 0.275 0.92721 0.98757 0.0
C464 C 0.23033 0.90486 0.05313 0.0
C465 C 0.50934 0.96429 0.01597 0.0
C466 C 0.72397 0.83742 0.23629 0.0
C467 C 0.6893 0.93533 0.11134 0.0
C468 C 0.73966 0.94738 0.17541 0.0
C469 C 0.75754 0.89784 0.23785 0.0
N470 N 0.66059 0.87444 0.10579 0.0
C471 C 0.67386 0.82747 0.17159 0.0
loop_
_geom_bond_atom_site_label_1
_geom_bond_atom_site_label_2
_geom_bond_distance
_geom_bond_site_symmetry_2
_ccdc_geom_bond_type
Co0 O2 2.143 . S
Co0 O8 2.074 . S
Co0 O11 2.093 1_554 S
Co0 O24 2.097 . S
Co0 N41 2.151 . S
Co0 N49 2.214 . S
Co1 O2 2.160 . S
Co1 O7 2.058 . S
Co1 O17 2.057 . S
Co1 O32 2.037 . S
Co1 N36 2.145 . S
Co1 N57 2.257 1_554 S
O2 Co0 2.143 . S
O2 Co1 2.160 . S
C3 O4 1.278 . S
C3 O11 1.224 . S
O4 C3 1.278 . S
C5 O6 1.245 . S
C5 O17 1.232 . S
O6 C5 1.245 . S
O7 Co1 2.058 . S
O7 C33 1.269 . S
O8 Co0 2.074 . S
O8 C33 1.257 . S
H9 C34 0.930 1_655 S
H10 C40 0.930 . S
O11 Co0 2.093 1_556 S
O11 C3 1.224 . S
H12 C44 0.929 . S
H13 C46 0.930 1_556 S
H14 C47 0.930 . S
H15 C45 0.929 . S
H16 C48 0.928 1_556 S
O17 Co1 2.057 . S
O17 C5 1.232 . S
H18 C37 0.929 . S
H19 C38 0.929 . S
H20 C50 0.931 . S
H21 C42 0.929 . S
H22 C51 0.930 . S
H23 C43 0.931 . S
O24 Co0 2.097 . S
O24 C52 1.214 . S
H25 C53 0.929 . S
H26 C54 0.929 1_554 S
H27 C55 0.930 1_655 S
H28 C56 0.929 . S
H29 C58 0.930 . S
H30 C35 0.930 . S
H31 C39 0.930 . S
O32 Co1 2.037 . S
O32 C52 1.234 . S
C33 O7 1.269 . S
C33 O8 1.257 . S
C34 H9 0.930 1_455 S
C34 C37 1.388 . S
C34 C39 1.418 . S
C35 H30 0.930 . S
C35 C38 1.404 . S
C35 C39 1.353 . S
N36 Co1 2.145 . S
N36 C37 1.397 . S
N36 C38 1.334 . S
C37 H18 0.929 . S
C37 C34 1.388 . S
C37 N36 1.397 . S
C38 H19 0.929 . S
C38 C35 1.404 . S
C38 N36 1.334 . S
C39 H31 0.930 . S
C39 C34 1.418 . S
C39 C35 1.353 . S
C40 H10 0.930 . S
C40 N41 1.330 1_556 S
C40 C42 1.446 . S
N41 Co0 2.151 . S
N41 C40 1.330 1_554 S
N41 C45 1.418 . S
C42 H21 0.929 . S
C42 C40 1.446 . S
C42 C43 1.332 1_556 S
C43 H23 0.931 . S
C43 C42 1.332 1_554 S
C43 C44 1.267 . S
C44 H12 0.929 . S
C44 C43 1.267 . S
C44 C45 1.251 . S
C45 H15 0.929 . S
C45 N41 1.418 . S
C45 C44 1.251 . S
C46 H13 0.930 1_554 S
C46 C48 1.406 . S
C46 C51 1.261 . S
C47 H14 0.930 . S
C47 N49 1.325 . S
C47 C50 1.357 . S
C48 H16 0.928 1_554 S
C48 C46 1.406 . S
C48 N49 1.261 . S
N49 Co0 2.214 . S
N49 C47 1.325 . S
N49 C48 1.261 . S
C50 H20 0.931 . S
C50 C47 1.357 . S
C50 C51 1.312 . S
C51 H22 0.930 . S
C51 C46 1.261 . S
C51 C50 1.312 . S
C52 O24 1.214 . S
C52 O32 1.234 . S
C53 H25 0.929 . S
C53 C56 1.391 . S
C53 C58 1.391 . S
C54 H26 0.929 1_556 S
C54 C55 1.390 . S
C54 N57 1.391 . S
C55 H27 0.930 1_455 S
C55 C54 1.390 . S
C55 C56 1.392 . S
C56 H28 0.929 . S
C56 C53 1.391 . S
C56 C55 1.392 . S
N57 Co1 2.257 1_556 S
N57 C54 1.391 . S
N57 C58 1.388 . S
C58 H29 0.930 . S
C58 C53 1.391 . S
C58 N57 1.388 . S
Co59 O61 2.143 . S
Co59 O67 2.074 . S
Co59 O70 2.093 . S
Co59 O83 2.097 . S
Co59 N100 2.151 . S
Co59 N108 2.214 . S
Co60 O61 2.160 . S
Co60 O66 2.058 . S
Co60 O76 2.057 . S
Co60 O91 2.037 . S
Co60 N95 2.145 . S
Co60 N116 2.257 . S
O61 Co59 2.143 . S
O61 Co60 2.160 . S
C62 O63 1.278 . S
C62 O70 1.224 . S
O63 C62 1.278 . S
C64 O65 1.245 . S
C64 O76 1.232 . S
O65 C64 1.245 . S
O66 Co60 2.058 . S
O66 C92 1.269 . S
O67 Co59 2.074 . S
O67 C92 1.257 . S
H68 C93 0.930 1_565 S
H69 C99 0.930 . S
O70 Co59 2.093 . S
O70 C62 1.224 . S
H71 C103 0.929 . S
H72 C105 0.930 . S
H73 C106 0.930 . S
H74 C104 0.929 . S
H75 C107 0.928 . S
O76 Co60 2.057 . S
O76 C64 1.232 . S
H77 C96 0.929 . S
H78 C97 0.929 . S
H79 C109 0.931 . S
H80 C101 0.929 . S
H81 C110 0.930 . S
H82 C102 0.931 . S
O83 Co59 2.097 . S
O83 C111 1.214 . S
H84 C112 0.929 . S
H85 C113 0.929 . S
H86 C114 0.930 1_565 S
H87 C115 0.929 . S
H88 C117 0.930 . S
H89 C94 0.930 . S
H90 C98 0.930 . S
O91 Co60 2.037 . S
O91 C111 1.234 . S
C92 O66 1.269 . S
C92 O67 1.257 . S
C93 H68 0.930 1_545 S
C93 C96 1.388 . S
C93 C98 1.418 . S
C94 H89 0.930 . S
C94 C97 1.404 . S
C94 C98 1.353 . S
N95 Co60 2.145 . S
N95 C96 1.397 . S
N95 C97 1.334 . S
C96 H77 0.929 . S
C96 C93 1.388 . S
C96 N95 1.397 . S
C97 H78 0.929 . S
C97 C94 1.404 . S
C97 N95 1.334 . S
C98 H90 0.930 . S
C98 C93 1.418 . S
C98 C94 1.353 . S
C99 H69 0.930 . S
C99 N100 1.330 . S
C99 C101 1.446 . S
N100 Co59 2.151 . S
N100 C99 1.330 . S
N100 C104 1.418 . S
C101 H80 0.929 . S
C101 C99 1.446 . S
C101 C102 1.332 . S
C102 H82 0.931 . S
C102 C101 1.332 . S
C102 C103 1.267 . S
C103 H71 0.929 . S
C103 C102 1.267 . S
C103 C104 1.251 . S
C104 H74 0.929 . S
C104 N100 1.418 . S
C104 C103 1.251 . S
C105 H72 0.930 . S
C105 C107 1.406 . S
C105 C110 1.261 . S
C106 H73 0.930 . S
C106 N108 1.325 . S
C106 C109 1.357 . S
C107 H75 0.928 . S
C107 C105 1.406 . S
C107 N108 1.261 . S
N108 Co59 2.214 . S
N108 C106 1.325 . S
N108 C107 1.261 . S
C109 H79 0.931 . S
C109 C106 1.357 . S
C109 C110 1.312 . S
C110 H81 0.930 . S
C110 C105 1.261 . S
C110 C109 1.312 . S
C111 O83 1.214 . S
C111 O91 1.234 . S
C112 H84 0.929 . S
C112 C115 1.391 . S
C112 C117 1.391 . S
C113 H85 0.929 . S
C113 C114 1.390 . S
C113 N116 1.391 . S
C114 H86 0.930 1_545 S
C114 C113 1.390 . S
C114 C115 1.392 . S
C115 H87 0.929 . S
C115 C112 1.391 . S
C115 C114 1.392 . S
N116 Co60 2.257 . S
N116 C113 1.391 . S
N116 C117 1.388 . S
C117 H88 0.930 . S
C117 C112 1.391 . S
C117 N116 1.388 . S
Co118 O120 2.143 . S
Co118 O126 2.074 . S
Co118 O129 2.093 1_554 S
Co118 O142 2.097 . S
Co118 N159 2.151 . S
Co118 N167 2.214 . S
Co119 O120 2.160 . S
Co119 O125 2.058 . S
Co119 O135 2.057 . S
Co119 O150 2.037 . S
Co119 N154 2.145 . S
Co119 N175 2.257 1_554 S
O120 Co118 2.143 . S
O120 Co119 2.160 . S
C121 O122 1.278 . S
C121 O129 1.224 . S
O122 C121 1.278 . S
C123 O124 1.245 . S
C123 O135 1.232 . S
O124 C123 1.245 . S
O125 Co119 2.058 . S
O125 C151 1.269 . S
O126 Co118 2.074 . S
O126 C151 1.257 . S
H127 C152 0.930 1_455 S
H128 C158 0.930 . S
O129 Co118 2.093 1_556 S
O129 C121 1.224 . S
H130 C162 0.929 . S
H131 C164 0.930 1_556 S
H132 C165 0.930 . S
H133 C163 0.929 . S
H134 C166 0.928 1_556 S
O135 Co119 2.057 . S
O135 C123 1.232 . S
H136 C155 0.929 . S
H137 C156 0.929 . S
H138 C168 0.931 . S
H139 C160 0.929 . S
H140 C169 0.930 . S
H141 C161 0.931 . S
O142 Co118 2.097 . S
O142 C170 1.214 . S
H143 C171 0.929 . S
H144 C172 0.929 1_554 S
H145 C173 0.930 1_455 S
H146 C174 0.929 . S
H147 C176 0.930 . S
H148 C153 0.930 . S
H149 C157 0.930 . S
O150 Co119 2.037 . S
O150 C170 1.234 . S
C151 O125 1.269 . S
C151 O126 1.257 . S
C152 H127 0.930 1_655 S
C152 C155 1.388 . S
C152 C157 1.418 . S
C153 H148 0.930 . S
C153 C156 1.404 . S
C153 C157 1.353 . S
N154 Co119 2.145 . S
N154 C155 1.397 . S
N154 C156 1.334 . S
C155 H136 0.929 . S
C155 C152 1.388 . S
C155 N154 1.397 . S
C156 H137 0.929 . S
C156 C153 1.404 . S
C156 N154 1.334 . S
C157 H149 0.930 . S
C157 C152 1.418 . S
C157 C153 1.353 . S
C158 H128 0.930 . S
C158 N159 1.330 1_556 S
C158 C160 1.446 . S
N159 Co118 2.151 . S
N159 C158 1.330 1_554 S
N159 C163 1.418 . S
C160 H139 0.929 . S
C160 C158 1.446 . S
C160 C161 1.332 1_556 S
C161 H141 0.931 . S
C161 C160 1.332 1_554 S
C161 C162 1.267 . S
C162 H130 0.929 . S
C162 C161 1.267 . S
C162 C163 1.251 . S
C163 H133 0.929 . S
C163 N159 1.418 . S
C163 C162 1.251 . S
C164 H131 0.930 1_554 S
C164 C166 1.406 . S
C164 C169 1.261 . S
C165 H132 0.930 . S
C165 N167 1.325 . S
C165 C168 1.357 . S
C166 H134 0.928 1_554 S
C166 C164 1.406 . S
C166 N167 1.261 . S
N167 Co118 2.214 . S
N167 C165 1.325 . S
N167 C166 1.261 . S
C168 H138 0.931 . S
C168 C165 1.357 . S
C168 C169 1.312 . S
C169 H140 0.930 . S
C169 C164 1.261 . S
C169 C168 1.312 . S
C170 O142 1.214 . S
C170 O150 1.234 . S
C171 H143 0.929 . S
C171 C174 1.391 . S
C171 C176 1.391 . S
C172 H144 0.929 1_556 S
C172 C173 1.390 . S
C172 N175 1.391 . S
C173 H145 0.930 1_655 S
C173 C172 1.390 . S
C173 C174 1.392 . S
C174 H146 0.929 . S
C174 C171 1.391 . S
C174 C173 1.392 . S
N175 Co119 2.257 1_556 S
N175 C172 1.391 . S
N175 C176 1.388 . S
C176 H147 0.930 . S
C176 C171 1.391 . S
C176 N175 1.388 . S
Co177 O179 2.143 . S
Co177 O185 2.074 . S
Co177 O188 2.093 . S
Co177 O201 2.097 . S
Co177 N218 2.151 . S
Co177 N226 2.214 . S
Co178 O179 2.160 . S
Co178 O184 2.058 . S
Co178 O194 2.057 . S
Co178 O209 2.037 . S
Co178 N213 2.145 . S
Co178 N234 2.257 . S
O179 Co177 2.143 . S
O179 Co178 2.160 . S
C180 O181 1.278 . S
C180 O188 1.224 . S
O181 C180 1.278 . S
C182 O183 1.245 . S
C182 O194 1.232 . S
O183 C182 1.245 . S
O184 Co178 2.058 . S
O184 C210 1.269 . S
O185 Co177 2.074 . S
O185 C210 1.257 . S
H186 C211 0.930 1_545 S
H187 C217 0.930 . S
O188 Co177 2.093 . S
O188 C180 1.224 . S
H189 C221 0.929 . S
H190 C223 0.930 . S
H191 C224 0.930 . S
H192 C222 0.929 . S
H193 C225 0.928 . S
O194 Co178 2.057 . S
O194 C182 1.232 . S
H195 C214 0.929 . S
H196 C215 0.929 . S
H197 C227 0.931 . S
H198 C219 0.929 . S
H199 C228 0.930 . S
H200 C220 0.931 . S
O201 Co177 2.097 . S
O201 C229 1.214 . S
H202 C230 0.929 . S
H203 C231 0.929 . S
H204 C232 0.930 1_545 S
H205 C233 0.929 . S
H206 C235 0.930 . S
H207 C212 0.930 . S
H208 C216 0.930 . S
O209 Co178 2.037 . S
O209 C229 1.234 . S
C210 O184 1.269 . S
C210 O185 1.257 . S
C211 H186 0.930 1_565 S
C211 C214 1.388 . S
C211 C216 1.418 . S
C212 H207 0.930 . S
C212 C215 1.404 . S
C212 C216 1.353 . S
N213 Co178 2.145 . S
N213 C214 1.397 . S
N213 C215 1.334 . S
C214 H195 0.929 . S
C214 C211 1.388 . S
C214 N213 1.397 . S
C215 H196 0.929 . S
C215 C212 1.404 . S
C215 N213 1.334 . S
C216 H208 0.930 . S
C216 C211 1.418 . S
C216 C212 1.353 . S
C217 H187 0.930 . S
C217 N218 1.330 . S
C217 C219 1.446 . S
N218 Co177 2.151 . S
N218 C217 1.330 . S
N218 C222 1.418 . S
C219 H198 0.929 . S
C219 C217 1.446 . S
C219 C220 1.332 . S
C220 H200 0.931 . S
C220 C219 1.332 . S
C220 C221 1.267 . S
C221 H189 0.929 . S
C221 C220 1.267 . S
C221 C222 1.251 . S
C222 H192 0.929 . S
C222 N218 1.418 . S
C222 C221 1.251 . S
C223 H190 0.930 . S
C223 C225 1.406 . S
C223 C228 1.261 . S
C224 H191 0.930 . S
C224 N226 1.325 . S
C224 C227 1.357 . S
C225 H193 0.928 . S
C225 C223 1.406 . S
C225 N226 1.261 . S
N226 Co177 2.214 . S
N226 C224 1.325 . S
N226 C225 1.261 . S
C227 H197 0.931 . S
C227 C224 1.357 . S
C227 C228 1.312 . S
C228 H199 0.930 . S
C228 C223 1.261 . S
C228 C227 1.312 . S
C229 O201 1.214 . S
C229 O209 1.234 . S
C230 H202 0.929 . S
C230 C233 1.391 . S
C230 C235 1.391 . S
C231 H203 0.929 . S
C231 C232 1.390 . S
C231 N234 1.391 . S
C232 H204 0.930 1_565 S
C232 C231 1.390 . S
C232 C233 1.392 . S
C233 H205 0.929 . S
C233 C230 1.391 . S
C233 C232 1.392 . S
N234 Co178 2.257 . S
N234 C231 1.391 . S
N234 C235 1.388 . S
C235 H206 0.930 . S
C235 C230 1.391 . S
C235 N234 1.388 . S
Co236 O238 2.143 . S
Co236 O244 2.074 . S
Co236 O247 2.093 . S
Co236 O260 2.097 . S
Co236 N277 2.151 . S
Co236 N285 2.214 . S
Co237 O238 2.160 . S
Co237 O243 2.058 . S
Co237 O253 2.057 . S
Co237 O268 2.037 . S
Co237 N272 2.145 . S
Co237 N293 2.257 . S
O238 Co236 2.143 . S
O238 Co237 2.160 . S
C239 O240 1.278 . S
C239 O247 1.224 . S
O240 C239 1.278 . S
C241 O242 1.245 . S
C241 O253 1.232 . S
O242 C241 1.245 . S
O243 Co237 2.058 . S
O243 C269 1.269 . S
O244 Co236 2.074 . S
O244 C269 1.257 . S
H245 C270 0.930 1_655 S
H246 C276 0.930 . S
O247 Co236 2.093 . S
O247 C239 1.224 . S
H248 C280 0.929 . S
H249 C282 0.930 . S
H250 C283 0.930 . S
H251 C281 0.929 . S
H252 C284 0.928 . S
O253 Co237 2.057 . S
O253 C241 1.232 . S
H254 C273 0.929 . S
H255 C274 0.929 . S
H256 C286 0.931 . S
H257 C278 0.929 . S
H258 C287 0.930 . S
H259 C279 0.931 . S
O260 Co236 2.097 . S
O260 C288 1.214 . S
H261 C289 0.929 . S
H262 C290 0.929 . S
H263 C291 0.930 1_655 S
H264 C292 0.929 . S
H265 C294 0.930 . S
H266 C271 0.930 . S
H267 C275 0.930 . S
O268 Co237 2.037 . S
O268 C288 1.234 . S
C269 O243 1.269 . S
C269 O244 1.257 . S
C270 H245 0.930 1_455 S
C270 C273 1.388 . S
C270 C275 1.418 . S
C271 H266 0.930 . S
C271 C274 1.404 . S
C271 C275 1.353 . S
N272 Co237 2.145 . S
N272 C273 1.397 . S
N272 C274 1.334 . S
C273 H254 0.929 . S
C273 C270 1.388 . S
C273 N272 1.397 . S
C274 H255 0.929 . S
C274 C271 1.404 . S
C274 N272 1.334 . S
C275 H267 0.930 . S
C275 C270 1.418 . S
C275 C271 1.353 . S
C276 H246 0.930 . S
C276 N277 1.330 . S
C276 C278 1.446 . S
N277 Co236 2.151 . S
N277 C276 1.330 . S
N277 C281 1.418 . S
C278 H257 0.929 . S
C278 C276 1.446 . S
C278 C279 1.332 . S
C279 H259 0.931 . S
C279 C278 1.332 . S
C279 C280 1.267 . S
C280 H248 0.929 . S
C280 C279 1.267 . S
C280 C281 1.251 . S
C281 H251 0.929 . S
C281 N277 1.418 . S
C281 C280 1.251 . S
C282 H249 0.930 . S
C282 C284 1.406 . S
C282 C287 1.261 . S
C283 H250 0.930 . S
C283 N285 1.325 . S
C283 C286 1.357 . S
C284 H252 0.928 . S
C284 C282 1.406 . S
C284 N285 1.261 . S
N285 Co236 2.214 . S
N285 C283 1.325 . S
N285 C284 1.261 . S
C286 H256 0.931 . S
C286 C283 1.357 . S
C286 C287 1.312 . S
C287 H258 0.930 . S
C287 C282 1.261 . S
C287 C286 1.312 . S
C288 O260 1.214 . S
C288 O268 1.234 . S
C289 H261 0.929 . S
C289 C292 1.391 . S
C289 C294 1.391 . S
C290 H262 0.929 . S
C290 C291 1.390 . S
C290 N293 1.391 . S
C291 H263 0.930 1_455 S
C291 C290 1.390 . S
C291 C292 1.392 . S
C292 H264 0.929 . S
C292 C289 1.391 . S
C292 C291 1.392 . S
N293 Co237 2.257 . S
N293 C290 1.391 . S
N293 C294 1.388 . S
C294 H265 0.930 . S
C294 C289 1.391 . S
C294 N293 1.388 . S
Co295 O297 2.143 . S
Co295 O303 2.074 1_554 S
Co295 O306 2.093 . S
Co295 O319 2.097 . S
Co295 N336 2.151 . S
Co295 N344 2.214 . S
Co296 O297 2.160 1_556 S
Co296 O302 2.058 . S
Co296 O312 2.057 . S
Co296 O327 2.037 . S
Co296 N331 2.145 . S
Co296 N352 2.257 1_556 S
O297 Co295 2.143 . S
O297 Co296 2.160 1_554 S
C298 O299 1.278 . S
C298 O306 1.224 . S
O299 C298 1.278 . S
C300 O301 1.245 . S
C300 O312 1.232 1_554 S
O301 C300 1.245 . S
O302 Co296 2.058 . S
O302 C328 1.269 . S
O303 Co295 2.074 1_556 S
O303 C328 1.257 . S
H304 C329 0.930 1_565 S
H305 C335 0.930 . S
O306 Co295 2.093 . S
O306 C298 1.224 . S
H307 C339 0.929 . S
H308 C341 0.930 . S
H309 C342 0.930 . S
H310 C340 0.929 . S
H311 C343 0.928 . S
O312 Co296 2.057 . S
O312 C300 1.232 1_556 S
H313 C332 0.929 . S
H314 C333 0.929 . S
H315 C345 0.931 . S
H316 C337 0.929 . S
H317 C346 0.930 . S
H318 C338 0.931 . S
O319 Co295 2.097 . S
O319 C347 1.214 . S
H320 C348 0.929 . S
H321 C349 0.929 . S
H322 C350 0.930 1_565 S
H323 C351 0.929 . S
H324 C353 0.930 . S
H325 C330 0.930 . S
H326 C334 0.930 . S
O327 Co296 2.037 . S
O327 C347 1.234 1_556 S
C328 O302 1.269 . S
C328 O303 1.257 . S
C329 H304 0.930 1_545 S
C329 C332 1.388 . S
C329 C334 1.418 . S
C330 H325 0.930 . S
C330 C333 1.404 . S
C330 C334 1.353 . S
N331 Co296 2.145 . S
N331 C332 1.397 . S
N331 C333 1.334 . S
C332 H313 0.929 . S
C332 C329 1.388 . S
C332 N331 1.397 . S
C333 H314 0.929 . S
C333 C330 1.404 . S
C333 N331 1.334 . S
C334 H326 0.930 . S
C334 C329 1.418 . S
C334 C330 1.353 . S
C335 H305 0.930 . S
C335 N336 1.330 . S
C335 C337 1.446 . S
N336 Co295 2.151 . S
N336 C335 1.330 . S
N336 C340 1.418 1_554 S
C337 H316 0.929 . S
C337 C335 1.446 . S
C337 C338 1.332 . S
C338 H318 0.931 . S
C338 C337 1.332 . S
C338 C339 1.267 1_554 S
C339 H307 0.929 . S
C339 C338 1.267 1_556 S
C339 C340 1.251 . S
C340 H310 0.929 . S
C340 N336 1.418 1_556 S
C340 C339 1.251 . S
C341 H308 0.930 . S
C341 C343 1.406 . S
C341 C346 1.261 1_554 S
C342 H309 0.930 . S
C342 N344 1.325 1_556 S
C342 C345 1.357 . S
C343 H311 0.928 . S
C343 C341 1.406 . S
C343 N344 1.261 . S
N344 Co295 2.214 . S
N344 C342 1.325 1_554 S
N344 C343 1.261 . S
C345 H315 0.931 . S
C345 C342 1.357 . S
C345 C346 1.312 . S
C346 H317 0.930 . S
C346 C341 1.261 1_556 S
C346 C345 1.312 . S
C347 O319 1.214 . S
C347 O327 1.234 1_554 S
C348 H320 0.929 . S
C348 C351 1.391 . S
C348 C353 1.391 . S
C349 H321 0.929 . S
C349 C350 1.390 . S
C349 N352 1.391 . S
C350 H322 0.930 1_545 S
C350 C349 1.390 . S
C350 C351 1.392 . S
C351 H323 0.929 . S
C351 C348 1.391 . S
C351 C350 1.392 . S
N352 Co296 2.257 1_554 S
N352 C349 1.391 . S
N352 C353 1.388 . S
C353 H324 0.930 . S
C353 C348 1.391 . S
C353 N352 1.388 . S
Co354 O356 2.143 . S
Co354 O362 2.074 . S
Co354 O365 2.093 . S
Co354 O378 2.097 . S
Co354 N395 2.151 . S
Co354 N403 2.214 . S
Co355 O356 2.160 . S
Co355 O361 2.058 . S
Co355 O371 2.057 . S
Co355 O386 2.037 . S
Co355 N390 2.145 . S
Co355 N411 2.257 . S
O356 Co354 2.143 . S
O356 Co355 2.160 . S
C357 O358 1.278 . S
C357 O365 1.224 . S
O358 C357 1.278 . S
C359 O360 1.245 . S
C359 O371 1.232 . S
O360 C359 1.245 . S
O361 Co355 2.058 . S
O361 C387 1.269 . S
O362 Co354 2.074 . S
O362 C387 1.257 . S
H363 C388 0.930 1_455 S
H364 C394 0.930 . S
O365 Co354 2.093 . S
O365 C357 1.224 . S
H366 C398 0.929 . S
H367 C400 0.930 . S
H368 C401 0.930 . S
H369 C399 0.929 . S
H370 C402 0.928 . S
O371 Co355 2.057 . S
O371 C359 1.232 . S
H372 C391 0.929 . S
H373 C392 0.929 . S
H374 C404 0.931 . S
H375 C396 0.929 . S
H376 C405 0.930 . S
H377 C397 0.931 . S
O378 Co354 2.097 . S
O378 C406 1.214 . S
H379 C407 0.929 . S
H380 C408 0.929 . S
H381 C409 0.930 1_455 S
H382 C410 0.929 . S
H383 C412 0.930 . S
H384 C389 0.930 . S
H385 C393 0.930 . S
O386 Co355 2.037 . S
O386 C406 1.234 . S
C387 O361 1.269 . S
C387 O362 1.257 . S
C388 H363 0.930 1_655 S
C388 C391 1.388 . S
C388 C393 1.418 . S
C389 H384 0.930 . S
C389 C392 1.404 . S
C389 C393 1.353 . S
N390 Co355 2.145 . S
N390 C391 1.397 . S
N390 C392 1.334 . S
C391 H372 0.929 . S
C391 C388 1.388 . S
C391 N390 1.397 . S
C392 H373 0.929 . S
C392 C389 1.404 . S
C392 N390 1.334 . S
C393 H385 0.930 . S
C393 C388 1.418 . S
C393 C389 1.353 . S
C394 H364 0.930 . S
C394 N395 1.330 . S
C394 C396 1.446 . S
N395 Co354 2.151 . S
N395 C394 1.330 . S
N395 C399 1.418 . S
C396 H375 0.929 . S
C396 C394 1.446 . S
C396 C397 1.332 . S
C397 H377 0.931 . S
C397 C396 1.332 . S
C397 C398 1.267 . S
C398 H366 0.929 . S
C398 C397 1.267 . S
C398 C399 1.251 . S
C399 H369 0.929 . S
C399 N395 1.418 . S
C399 C398 1.251 . S
C400 H367 0.930 . S
C400 C402 1.406 . S
C400 C405 1.261 . S
C401 H368 0.930 . S
C401 N403 1.325 . S
C401 C404 1.357 . S
C402 H370 0.928 . S
C402 C400 1.406 . S
C402 N403 1.261 . S
N403 Co354 2.214 . S
N403 C401 1.325 . S
N403 C402 1.261 . S
C404 H374 0.931 . S
C404 C401 1.357 . S
C404 C405 1.312 . S
C405 H376 0.930 . S
C405 C400 1.261 . S
C405 C404 1.312 . S
C406 O378 1.214 . S
C406 O386 1.234 . S
C407 H379 0.929 . S
C407 C410 1.391 . S
C407 C412 1.391 . S
C408 H380 0.929 . S
C408 C409 1.390 . S
C408 N411 1.391 . S
C409 H381 0.930 1_655 S
C409 C408 1.390 . S
C409 C410 1.392 . S
C410 H382 0.929 . S
C410 C407 1.391 . S
C410 C409 1.392 . S
N411 Co355 2.257 . S
N411 C408 1.391 . S
N411 C412 1.388 . S
C412 H383 0.930 . S
C412 C407 1.391 . S
C412 N411 1.388 . S
Co413 O415 2.143 . S
Co413 O421 2.074 1_554 S
Co413 O424 2.093 . S
Co413 O437 2.097 . S
Co413 N454 2.151 . S
Co413 N462 2.214 . S
Co414 O415 2.160 1_556 S
Co414 O420 2.058 . S
Co414 O430 2.057 . S
Co414 O445 2.037 . S
Co414 N449 2.145 . S
Co414 N470 2.257 1_556 S
O415 Co413 2.143 . S
O415 Co414 2.160 1_554 S
C416 O417 1.278 . S
C416 O424 1.224 . S
O417 C416 1.278 . S
C418 O419 1.245 . S
C418 O430 1.232 1_554 S
O419 C418 1.245 . S
O420 Co414 2.058 . S
O420 C446 1.269 . S
O421 Co413 2.074 1_556 S
O421 C446 1.257 . S
H422 C447 0.930 1_545 S
H423 C453 0.930 . S
O424 Co413 2.093 . S
O424 C416 1.224 . S
H425 C457 0.929 . S
H426 C459 0.930 . S
H427 C460 0.930 . S
H428 C458 0.929 . S
H429 C461 0.928 . S
O430 Co414 2.057 . S
O430 C418 1.232 1_556 S
H431 C450 0.929 . S
H432 C451 0.929 . S
H433 C463 0.931 . S
H434 C455 0.929 . S
H435 C464 0.930 . S
H436 C456 0.931 . S
O437 Co413 2.097 . S
O437 C465 1.214 . S
H438 C466 0.929 . S
H439 C467 0.929 . S
H440 C468 0.930 1_545 S
H441 C469 0.929 . S
H442 C471 0.930 . S
H443 C448 0.930 . S
H444 C452 0.930 . S
O445 Co414 2.037 . S
O445 C465 1.234 1_556 S
C446 O420 1.269 . S
C446 O421 1.257 . S
C447 H422 0.930 1_565 S
C447 C450 1.388 . S
C447 C452 1.418 . S
C448 H443 0.930 . S
C448 C451 1.404 . S
C448 C452 1.353 . S
N449 Co414 2.145 . S
N449 C450 1.397 . S
N449 C451 1.334 . S
C450 H431 0.929 . S
C450 C447 1.388 . S
C450 N449 1.397 . S
C451 H432 0.929 . S
C451 C448 1.404 . S
C451 N449 1.334 . S
C452 H444 0.930 . S
C452 C447 1.418 . S
C452 C448 1.353 . S
C453 H423 0.930 . S
C453 N454 1.330 . S
C453 C455 1.446 . S
N454 Co413 2.151 . S
N454 C453 1.330 . S
N454 C458 1.418 1_554 S
C455 H434 0.929 . S
C455 C453 1.446 . S
C455 C456 1.332 . S
C456 H436 0.931 . S
C456 C455 1.332 . S
C456 C457 1.267 1_554 S
C457 H425 0.929 . S
C457 C456 1.267 1_556 S
C457 C458 1.251 . S
C458 H428 0.929 . S
C458 N454 1.418 1_556 S
C458 C457 1.251 . S
C459 H426 0.930 . S
C459 C461 1.406 . S
C459 C464 1.261 1_554 S
C460 H427 0.930 . S
C460 N462 1.325 1_556 S
C460 C463 1.357 . S
C461 H429 0.928 . S
C461 C459 1.406 . S
C461 N462 1.261 . S
N462 Co413 2.214 . S
N462 C460 1.325 1_554 S
N462 C461 1.261 . S
C463 H433 0.931 . S
C463 C460 1.357 . S
C463 C464 1.312 . S
C464 H435 0.930 . S
C464 C459 1.261 1_556 S
C464 C463 1.312 . S
C465 O437 1.214 . S
C465 O445 1.234 1_554 S
C466 H438 0.929 . S
C466 C469 1.391 . S
C466 C471 1.391 . S
C467 H439 0.929 . S
C467 C468 1.390 . S
C467 N470 1.391 . S
C468 H440 0.930 1_565 S
C468 C467 1.390 . S
C468 C469 1.392 . S
C469 H441 0.929 . S
C469 C466 1.391 . S
C469 C468 1.392 . S
N470 Co414 2.257 1_554 S
N470 C467 1.391 . S
N470 C471 1.388 . S
C471 H442 0.930 . S
C471 C466 1.391 . S
C471 N470 1.388 . S
C33 C269 1.619 . S
C92 C328 1.619 . S
C387 C151 1.619 . S
C446 C210 1.619 . S
C357 C121 1.455 . S
C416 C180 1.455 . S
C3 C239 1.455 . S
C62 C298 1.455 . S
C170 C52 1.501 1_655 S
C229 C111 1.501 1_565 S
C288 C406 1.501 1_455 S
C465 C347 1.501 1_565 S
C5 C300 1.702 . S
C359 C64 1.702 . S
C123 C418 1.702 . S
C182 C241 1.702 . S
