# Generated by pormake.
# Topology rho, (4)-cn, num edge types: 1
# Building blocks:
#     Node 0, Type 0, BuildingBlock: QUQFOY_clean_sbu_3, # of connection points: 4
#     Node 1, Type 0, BuildingBlock: QUQFOY_clean_sbu_3, # of connection points: 4
#     Node 2, Type 0, BuildingBlock: QUQFOY_clean_sbu_3, # of connection points: 4
#     Node 3, Type 0, BuildingBlock: QUQFOY_clean_sbu_3, # of connection points: 4
#     Node 4, Type 0, BuildingBlock: QUQFOY_clean_sbu_3, # of connection points: 4
#     Node 5, Type 0, BuildingBlock: QUQFOY_clean_sbu_3, # of connection points: 4
#     Node 6, Type 0, BuildingBlock: QUQFOY_clean_sbu_3, # of connection points: 4
#     Node 7, Type 0, BuildingBlock: QUQFOY_clean_sbu_3, # of connection points: 4
#     Node 8, Type 0, BuildingBlock: QUQFOY_clean_sbu_3, # of connection points: 4
#     Node 9, Type 0, BuildingBlock: QUQFOY_clean_sbu_3, # of connection points: 4
#     Node 10, Type 0, BuildingBlock: QUQFOY_clean_sbu_3, # of connection points: 4
#     Node 11, Type 0, BuildingBlock: QUQFOY_clean_sbu_3, # of connection points: 4
#     Node 12, Type 0, BuildingBlock: QUQFOY_clean_sbu_3, # of connection points: 4
#     Node 13, Type 0, BuildingBlock: QUQFOY_clean_sbu_3, # of connection points: 4
#     Node 14, Type 0, BuildingBlock: QUQFOY_clean_sbu_3, # of connection points: 4
#     Node 15, Type 0, BuildingBlock: QUQFOY_clean_sbu_3, # of connection points: 4
#     Node 16, Type 0, BuildingBlock: QUQFOY_clean_sbu_3, # of connection points: 4
#     Node 17, Type 0, BuildingBlock: QUQFOY_clean_sbu_3, # of connection points: 4
#     Node 18, Type 0, BuildingBlock: QUQFOY_clean_sbu_3, # of connection points: 4
#     Node 19, Type 0, BuildingBlock: QUQFOY_clean_sbu_3, # of connection points: 4
#     Node 20, Type 0, BuildingBlock: QUQFOY_clean_sbu_3, # of connection points: 4
#     Node 21, Type 0, BuildingBlock: QUQFOY_clean_sbu_3, # of connection points: 4
#     Node 22, Type 0, BuildingBlock: QUQFOY_clean_sbu_3, # of connection points: 4
#     Node 23, Type 0, BuildingBlock: QUQFOY_clean_sbu_3, # of connection points: 4
#     Node 24, Type 0, BuildingBlock: QUQFOY_clean_sbu_3, # of connection points: 4
#     Node 25, Type 0, BuildingBlock: QUQFOY_clean_sbu_3, # of connection points: 4
#     Node 26, Type 0, BuildingBlock: QUQFOY_clean_sbu_3, # of connection points: 4
#     Node 27, Type 0, BuildingBlock: QUQFOY_clean_sbu_3, # of connection points: 4
#     Node 28, Type 0, BuildingBlock: QUQFOY_clean_sbu_3, # of connection points: 4
#     Node 29, Type 0, BuildingBlock: QUQFOY_clean_sbu_3, # of connection points: 4
#     Node 30, Type 0, BuildingBlock: QUQFOY_clean_sbu_3, # of connection points: 4
#     Node 31, Type 0, BuildingBlock: QUQFOY_clean_sbu_3, # of connection points: 4
#     Node 32, Type 0, BuildingBlock: QUQFOY_clean_sbu_3, # of connection points: 4
#     Node 33, Type 0, BuildingBlock: QUQFOY_clean_sbu_3, # of connection points: 4
#     Node 34, Type 0, BuildingBlock: QUQFOY_clean_sbu_3, # of connection points: 4
#     Node 35, Type 0, BuildingBlock: QUQFOY_clean_sbu_3, # of connection points: 4
#     Node 36, Type 0, BuildingBlock: QUQFOY_clean_sbu_3, # of connection points: 4
#     Node 37, Type 0, BuildingBlock: QUQFOY_clean_sbu_3, # of connection points: 4
#     Node 38, Type 0, BuildingBlock: QUQFOY_clean_sbu_3, # of connection points: 4
#     Node 39, Type 0, BuildingBlock: QUQFOY_clean_sbu_3, # of connection points: 4
#     Node 40, Type 0, BuildingBlock: QUQFOY_clean_sbu_3, # of connection points: 4
#     Node 41, Type 0, BuildingBlock: QUQFOY_clean_sbu_3, # of connection points: 4
#     Node 42, Type 0, BuildingBlock: QUQFOY_clean_sbu_3, # of connection points: 4
#     Node 43, Type 0, BuildingBlock: QUQFOY_clean_sbu_3, # of connection points: 4
#     Node 44, Type 0, BuildingBlock: QUQFOY_clean_sbu_3, # of connection points: 4
#     Node 45, Type 0, BuildingBlock: QUQFOY_clean_sbu_3, # of connection points: 4
#     Node 46, Type 0, BuildingBlock: QUQFOY_clean_sbu_3, # of connection points: 4
#     Node 47, Type 0, BuildingBlock: QUQFOY_clean_sbu_3, # of connection points: 4
#     Edge 48, Type (0, 0), BuildingBlock: OJICUG_clean_linker_0, # of connection points: 2
#     Edge 49, Type (0, 0), BuildingBlock: OJICUG_clean_linker_0, # of connection points: 2
#     Edge 50, Type (0, 0), BuildingBlock: OJICUG_clean_linker_0, # of connection points: 2
#     Edge 51, Type (0, 0), BuildingBlock: OJICUG_clean_linker_0, # of connection points: 2
#     Edge 52, Type (0, 0), BuildingBlock: OJICUG_clean_linker_0, # of connection points: 2
#     Edge 53, Type (0, 0), BuildingBlock: OJICUG_clean_linker_0, # of connection points: 2
#     Edge 54, Type (0, 0), BuildingBlock: OJICUG_clean_linker_0, # of connection points: 2
#     Edge 55, Type (0, 0), BuildingBlock: OJICUG_clean_linker_0, # of connection points: 2
#     Edge 56, Type (0, 0), BuildingBlock: OJICUG_clean_linker_0, # of connection points: 2
#     Edge 57, Type (0, 0), BuildingBlock: OJICUG_clean_linker_0, # of connection points: 2
#     Edge 58, Type (0, 0), BuildingBlock: OJICUG_clean_linker_0, # of connection points: 2
#     Edge 59, Type (0, 0), BuildingBlock: OJICUG_clean_linker_0, # of connection points: 2
#     Edge 60, Type (0, 0), BuildingBlock: OJICUG_clean_linker_0, # of connection points: 2
#     Edge 61, Type (0, 0), BuildingBlock: OJICUG_clean_linker_0, # of connection points: 2
#     Edge 62, Type (0, 0), BuildingBlock: OJICUG_clean_linker_0, # of connection points: 2
#     Edge 63, Type (0, 0), BuildingBlock: OJICUG_clean_linker_0, # of connection points: 2
#     Edge 64, Type (0, 0), BuildingBlock: OJICUG_clean_linker_0, # of connection points: 2
#     Edge 65, Type (0, 0), BuildingBlock: OJICUG_clean_linker_0, # of connection points: 2
#     Edge 66, Type (0, 0), BuildingBlock: OJICUG_clean_linker_0, # of connection points: 2
#     Edge 67, Type (0, 0), BuildingBlock: OJICUG_clean_linker_0, # of connection points: 2
#     Edge 68, Type (0, 0), BuildingBlock: OJICUG_clean_linker_0, # of connection points: 2
#     Edge 69, Type (0, 0), BuildingBlock: OJICUG_clean_linker_0, # of connection points: 2
#     Edge 70, Type (0, 0), BuildingBlock: OJICUG_clean_linker_0, # of connection points: 2
#     Edge 71, Type (0, 0), BuildingBlock: OJICUG_clean_linker_0, # of connection points: 2
#     Edge 72, Type (0, 0), BuildingBlock: OJICUG_clean_linker_0, # of connection points: 2
#     Edge 73, Type (0, 0), BuildingBlock: OJICUG_clean_linker_0, # of connection points: 2
#     Edge 74, Type (0, 0), BuildingBlock: OJICUG_clean_linker_0, # of connection points: 2
#     Edge 75, Type (0, 0), BuildingBlock: OJICUG_clean_linker_0, # of connection points: 2
#     Edge 76, Type (0, 0), BuildingBlock: OJICUG_clean_linker_0, # of connection points: 2
#     Edge 77, Type (0, 0), BuildingBlock: OJICUG_clean_linker_0, # of connection points: 2
#     Edge 78, Type (0, 0), BuildingBlock: OJICUG_clean_linker_0, # of connection points: 2
#     Edge 79, Type (0, 0), BuildingBlock: OJICUG_clean_linker_0, # of connection points: 2
#     Edge 80, Type (0, 0), BuildingBlock: OJICUG_clean_linker_0, # of connection points: 2
#     Edge 81, Type (0, 0), BuildingBlock: OJICUG_clean_linker_0, # of connection points: 2
#     Edge 82, Type (0, 0), BuildingBlock: OJICUG_clean_linker_0, # of connection points: 2
#     Edge 83, Type (0, 0), BuildingBlock: OJICUG_clean_linker_0, # of connection points: 2
#     Edge 84, Type (0, 0), BuildingBlock: OJICUG_clean_linker_0, # of connection points: 2
#     Edge 85, Type (0, 0), BuildingBlock: OJICUG_clean_linker_0, # of connection points: 2
#     Edge 86, Type (0, 0), BuildingBlock: OJICUG_clean_linker_0, # of connection points: 2
#     Edge 87, Type (0, 0), BuildingBlock: OJICUG_clean_linker_0, # of connection points: 2
#     Edge 88, Type (0, 0), BuildingBlock: OJICUG_clean_linker_0, # of connection points: 2
#     Edge 89, Type (0, 0), BuildingBlock: OJICUG_clean_linker_0, # of connection points: 2
#     Edge 90, Type (0, 0), BuildingBlock: OJICUG_clean_linker_0, # of connection points: 2
#     Edge 91, Type (0, 0), BuildingBlock: OJICUG_clean_linker_0, # of connection points: 2
#     Edge 92, Type (0, 0), BuildingBlock: OJICUG_clean_linker_0, # of connection points: 2
#     Edge 93, Type (0, 0), BuildingBlock: OJICUG_clean_linker_0, # of connection points: 2
#     Edge 94, Type (0, 0), BuildingBlock: OJICUG_clean_linker_0, # of connection points: 2
#     Edge 95, Type (0, 0), BuildingBlock: OJICUG_clean_linker_0, # of connection points: 2
#     Edge 96, Type (0, 0), BuildingBlock: OJICUG_clean_linker_0, # of connection points: 2
#     Edge 97, Type (0, 0), BuildingBlock: OJICUG_clean_linker_0, # of connection points: 2
#     Edge 98, Type (0, 0), BuildingBlock: OJICUG_clean_linker_0, # of connection points: 2
#     Edge 99, Type (0, 0), BuildingBlock: OJICUG_clean_linker_0, # of connection points: 2
#     Edge 100, Type (0, 0), BuildingBlock: OJICUG_clean_linker_0, # of connection points: 2
#     Edge 101, Type (0, 0), BuildingBlock: OJICUG_clean_linker_0, # of connection points: 2
#     Edge 102, Type (0, 0), BuildingBlock: OJICUG_clean_linker_0, # of connection points: 2
#     Edge 103, Type (0, 0), BuildingBlock: OJICUG_clean_linker_0, # of connection points: 2
#     Edge 104, Type (0, 0), BuildingBlock: OJICUG_clean_linker_0, # of connection points: 2
#     Edge 105, Type (0, 0), BuildingBlock: OJICUG_clean_linker_0, # of connection points: 2
#     Edge 106, Type (0, 0), BuildingBlock: OJICUG_clean_linker_0, # of connection points: 2
#     Edge 107, Type (0, 0), BuildingBlock: OJICUG_clean_linker_0, # of connection points: 2
#     Edge 108, Type (0, 0), BuildingBlock: OJICUG_clean_linker_0, # of connection points: 2
#     Edge 109, Type (0, 0), BuildingBlock: OJICUG_clean_linker_0, # of connection points: 2
#     Edge 110, Type (0, 0), BuildingBlock: OJICUG_clean_linker_0, # of connection points: 2
#     Edge 111, Type (0, 0), BuildingBlock: OJICUG_clean_linker_0, # of connection points: 2
#     Edge 112, Type (0, 0), BuildingBlock: OJICUG_clean_linker_0, # of connection points: 2
#     Edge 113, Type (0, 0), BuildingBlock: OJICUG_clean_linker_0, # of connection points: 2
#     Edge 114, Type (0, 0), BuildingBlock: OJICUG_clean_linker_0, # of connection points: 2
#     Edge 115, Type (0, 0), BuildingBlock: OJICUG_clean_linker_0, # of connection points: 2
#     Edge 116, Type (0, 0), BuildingBlock: OJICUG_clean_linker_0, # of connection points: 2
#     Edge 117, Type (0, 0), BuildingBlock: OJICUG_clean_linker_0, # of connection points: 2
#     Edge 118, Type (0, 0), BuildingBlock: OJICUG_clean_linker_0, # of connection points: 2
#     Edge 119, Type (0, 0), BuildingBlock: OJICUG_clean_linker_0, # of connection points: 2
#     Edge 120, Type (0, 0), BuildingBlock: OJICUG_clean_linker_0, # of connection points: 2
#     Edge 121, Type (0, 0), BuildingBlock: OJICUG_clean_linker_0, # of connection points: 2
#     Edge 122, Type (0, 0), BuildingBlock: OJICUG_clean_linker_0, # of connection points: 2
#     Edge 123, Type (0, 0), BuildingBlock: OJICUG_clean_linker_0, # of connection points: 2
#     Edge 124, Type (0, 0), BuildingBlock: OJICUG_clean_linker_0, # of connection points: 2
#     Edge 125, Type (0, 0), BuildingBlock: OJICUG_clean_linker_0, # of connection points: 2
#     Edge 126, Type (0, 0), BuildingBlock: OJICUG_clean_linker_0, # of connection points: 2
#     Edge 127, Type (0, 0), BuildingBlock: OJICUG_clean_linker_0, # of connection points: 2
#     Edge 128, Type (0, 0), BuildingBlock: OJICUG_clean_linker_0, # of connection points: 2
#     Edge 129, Type (0, 0), BuildingBlock: OJICUG_clean_linker_0, # of connection points: 2
#     Edge 130, Type (0, 0), BuildingBlock: OJICUG_clean_linker_0, # of connection points: 2
#     Edge 131, Type (0, 0), BuildingBlock: OJICUG_clean_linker_0, # of connection points: 2
#     Edge 132, Type (0, 0), BuildingBlock: OJICUG_clean_linker_0, # of connection points: 2
#     Edge 133, Type (0, 0), BuildingBlock: OJICUG_clean_linker_0, # of connection points: 2
#     Edge 134, Type (0, 0), BuildingBlock: OJICUG_clean_linker_0, # of connection points: 2
#     Edge 135, Type (0, 0), BuildingBlock: OJICUG_clean_linker_0, # of connection points: 2
#     Edge 136, Type (0, 0), BuildingBlock: OJICUG_clean_linker_0, # of connection points: 2
#     Edge 137, Type (0, 0), BuildingBlock: OJICUG_clean_linker_0, # of connection points: 2
#     Edge 138, Type (0, 0), BuildingBlock: OJICUG_clean_linker_0, # of connection points: 2
#     Edge 139, Type (0, 0), BuildingBlock: OJICUG_clean_linker_0, # of connection points: 2
#     Edge 140, Type (0, 0), BuildingBlock: OJICUG_clean_linker_0, # of connection points: 2
#     Edge 141, Type (0, 0), BuildingBlock: OJICUG_clean_linker_0, # of connection points: 2
#     Edge 142, Type (0, 0), BuildingBlock: OJICUG_clean_linker_0, # of connection points: 2
#     Edge 143, Type (0, 0), BuildingBlock: OJICUG_clean_linker_0, # of connection points: 2
# Relax obj value: 0.073
# Max RMSD: 0.095
# Mean RMSD: 0.089
data_MOF--net-rho--node1-QUQFOY_clean_sbu_3--edge1-OJICUG_clean_linker_0
_symmetry_space_group_name_H-M    P1
_symmetry_Int_Tables_number       1
_symmetry_cell_setting            triclinic
loop_
_symmetry_equiv_pos_as_xyz
'x, y, z'
_cell_length_a     53.584783
_cell_length_b     54.096345
_cell_length_c     54.012545
_cell_angle_alpha  90.197059
_cell_angle_beta   90.135184
_cell_angle_gamma 91.226228
loop_
_atom_site_label
_atom_site_type_symbol
_atom_site_fract_x
_atom_site_fract_y
_atom_site_fract_z
_atom_type_partial_charge
C0 C 0.12454 0.19554 0.36534 0.0
O1 O 0.10443 0.18383 0.37047 0.0
Cd2 Cd 0.06849 0.20339 0.38761 0.0
O3 O 0.12618 0.21887 0.36832 0.0
Cd4 Cd 0.10013 0.25322 0.38142 0.0
C5 C 0.09546 0.23015 0.43914 0.0
O6 O 0.06073 0.23908 0.36275 0.0
O7 O 0.05901 0.27018 0.38771 0.0
O8 O 0.11942 0.27825 0.34942 0.0
C9 C 0.04782 0.25583 0.37259 0.0
O10 O 0.07994 0.21417 0.43044 0.0
C11 C 0.12418 0.29665 0.36346 0.0
O12 O 0.10654 0.24551 0.42495 0.0
O13 O 0.11862 0.29436 0.38618 0.0
C14 C 0.8004 0.10061 0.37436 0.0
O15 O 0.80718 0.07848 0.37736 0.0
Cd16 Cd 0.78081 0.04774 0.39604 0.0
O17 O 0.77795 0.10663 0.37859 0.0
Cd18 Cd 0.73715 0.08775 0.38965 0.0
C19 C 0.7605 0.08255 0.44656 0.0
O20 O 0.74238 0.04582 0.37434 0.0
O21 O 0.71278 0.05123 0.40071 0.0
O22 O 0.72117 0.10581 0.35242 0.0
C23 C 0.72423 0.03664 0.38652 0.0
O24 O 0.77306 0.06523 0.43693 0.0
C25 C 0.70163 0.11442 0.36211 0.0
O26 O 0.74587 0.09542 0.43343 0.0
O27 O 0.69913 0.11186 0.38539 0.0
C28 C 0.8583 0.79766 0.36262 0.0
O29 O 0.87833 0.80942 0.36811 0.0
Cd30 Cd 0.91355 0.78938 0.38593 0.0
O31 O 0.85672 0.77431 0.3653 0.0
Cd32 Cd 0.88217 0.73893 0.377 0.0
C33 C 0.88503 0.75975 0.4356 0.0
O34 O 0.92147 0.75464 0.36 0.0
O35 O 0.92358 0.72211 0.38279 0.0
O36 O 0.86283 0.71973 0.3414 0.0
C37 C 0.93468 0.73772 0.36903 0.0
O38 O 0.90003 0.77635 0.42734 0.0
C39 C 0.85907 0.69876 0.35132 0.0
O40 O 0.87453 0.74415 0.42103 0.0
O41 O 0.865 0.6967 0.374 0.0
C42 C 0.17967 0.89898 0.37754 0.0
O43 O 0.17421 0.9216 0.37978 0.0
Cd44 Cd 0.20371 0.95092 0.39654 0.0
O45 O 0.20192 0.89195 0.38116 0.0
Cd46 Cd 0.24496 0.90654 0.3898 0.0
C47 C 0.22274 0.91447 0.44678 0.0
O48 O 0.24138 0.94804 0.37422 0.0
O49 O 0.2729 0.94183 0.39805 0.0
O50 O 0.25381 0.88519 0.35202 0.0
C51 C 0.26066 0.95681 0.38501 0.0
O52 O 0.21132 0.93238 0.43685 0.0
C53 C 0.27419 0.87593 0.35902 0.0
O54 O 0.23657 0.90042 0.43394 0.0
O55 O 0.28076 0.87982 0.38138 0.0
C56 C 0.09679 0.80703 0.62207 0.0
O57 O 0.07388 0.81233 0.62015 0.0
Cd58 Cd 0.04233 0.78417 0.60489 0.0
O59 O 0.10409 0.78517 0.61766 0.0
Cd60 Cd 0.08856 0.7431 0.60689 0.0
C61 C 0.07364 0.76619 0.55106 0.0
O62 O 0.048 0.74655 0.62582 0.0
O63 O 0.05257 0.71484 0.60237 0.0
O64 O 0.11487 0.73017 0.64047 0.0
C65 C 0.03824 0.72744 0.61584 0.0
O66 O 0.05619 0.77712 0.56248 0.0
C67 C 0.12306 0.71104 0.62981 0.0
O68 O 0.08941 0.75316 0.56269 0.0
O69 O 0.1161 0.70722 0.60757 0.0
C70 C 0.30649 0.11893 0.62893 0.0
O71 O 0.31708 0.11555 0.60823 0.0
Cd72 Cd 0.29344 0.10265 0.57274 0.0
O73 O 0.28279 0.11839 0.63054 0.0
Cd74 Cd 0.24493 0.11452 0.60502 0.0
C75 C 0.25965 0.05497 0.6011 0.0
O76 O 0.26111 0.13158 0.56654 0.0
O77 O 0.22676 0.11014 0.56395 0.0
O78 O 0.23069 0.15171 0.62455 0.0
C79 C 0.243 0.12376 0.55332 0.0
O80 O 0.27663 0.06243 0.58622 0.0
C81 C 0.20864 0.1437 0.62865 0.0
O82 O 0.24532 0.07022 0.61164 0.0
O83 O 0.20376 0.12129 0.62294 0.0
C84 C 0.87733 0.18638 0.6213 0.0
O85 O 0.89985 0.17991 0.61888 0.0
Cd86 Cd 0.93267 0.20555 0.60223 0.0
O87 O 0.871 0.20839 0.61638 0.0
Cd88 Cd 0.89065 0.24809 0.60362 0.0
C89 C 0.90357 0.22362 0.54789 0.0
O90 O 0.93176 0.24426 0.62292 0.0
O91 O 0.92784 0.27334 0.5962 0.0
O92 O 0.86769 0.26817 0.63616 0.0
C93 C 0.94172 0.2623 0.61139 0.0
O94 O 0.92062 0.212 0.55917 0.0
C95 C 0.86013 0.28587 0.62291 0.0
O96 O 0.88852 0.23724 0.55972 0.0
O97 O 0.86554 0.28523 0.60003 0.0
C98 C 0.67209 0.87126 0.61241 0.0
O99 O 0.66542 0.8757 0.59033 0.0
Cd100 Cd 0.69347 0.88924 0.55925 0.0
O101 O 0.69511 0.87178 0.61851 0.0
Cd102 Cd 0.73655 0.87753 0.59868 0.0
C103 C 0.72202 0.93695 0.59294 0.0
O104 O 0.72512 0.85932 0.55945 0.0
O105 O 0.759 0.88123 0.55893 0.0
O106 O 0.7497 0.84115 0.62041 0.0
C107 C 0.74405 0.86673 0.54749 0.0
O108 O 0.70762 0.92943 0.57554 0.0
C109 C 0.77139 0.84949 0.62571 0.0
O110 O 0.73471 0.92177 0.60546 0.0
O111 O 0.77626 0.87186 0.62006 0.0
C112 C 0.38442 0.1159 0.29743 0.0
O113 O 0.4056 0.10793 0.30381 0.0
Cd114 Cd 0.43463 0.08979 0.27671 0.0
O115 O 0.37727 0.11492 0.27489 0.0
Cd116 Cd 0.39548 0.10195 0.23468 0.0
C117 C 0.39789 0.04251 0.2523 0.0
O118 O 0.43612 0.11962 0.24434 0.0
O119 O 0.43504 0.09731 0.21144 0.0
O120 O 0.37434 0.13624 0.21556 0.0
C121 C 0.44731 0.11207 0.22533 0.0
O122 O 0.41646 0.0492 0.26569 0.0
C123 C 0.36812 0.1244 0.19608 0.0
O124 O 0.386 0.05829 0.23984 0.0
O125 O 0.37328 0.10163 0.19537 0.0
C126 C 0.87511 0.36361 0.19789 0.0
O127 O 0.89717 0.36472 0.18936 0.0
Cd128 Cd 0.93157 0.38042 0.21451 0.0
O129 O 0.87102 0.36873 0.22049 0.0
Cd130 Cd 0.89084 0.37936 0.26008 0.0
C131 C 0.90488 0.43489 0.23572 0.0
O132 O 0.9323 0.36216 0.25447 0.0
O133 O 0.92696 0.38691 0.28546 0.0
O134 O 0.86802 0.3434 0.27346 0.0
C135 C 0.94174 0.37399 0.27279 0.0
O136 O 0.92049 0.42288 0.22288 0.0
C137 C 0.86001 0.35245 0.29355 0.0
O138 O 0.88974 0.42378 0.25042 0.0
O139 O 0.86533 0.37511 0.29789 0.0
C140 C 0.5933 0.87295 0.29899 0.0
O141 O 0.57121 0.87801 0.30543 0.0
Cd142 Cd 0.54092 0.89526 0.27851 0.0
O143 O 0.6005 0.87616 0.27673 0.0
Cd144 Cd 0.58329 0.88935 0.23653 0.0
C145 C 0.57432 0.94687 0.25843 0.0
O146 O 0.54231 0.87017 0.24233 0.0
O147 O 0.54593 0.89396 0.21075 0.0
O148 O 0.60751 0.85685 0.21809 0.0
C149 C 0.5323 0.87932 0.22333 0.0
O150 O 0.55607 0.93751 0.27054 0.0
C151 C 0.61523 0.86967 0.19988 0.0
O152 O 0.58832 0.93328 0.24541 0.0
O153 O 0.60896 0.89216 0.19933 0.0
C154 C 0.13447 0.63325 0.19326 0.0
O155 O 0.11299 0.62974 0.18374 0.0
Cd156 Cd 0.07738 0.6165 0.20767 0.0
O157 O 0.13752 0.63201 0.21661 0.0
Cd158 Cd 0.11378 0.62637 0.25523 0.0
C159 C 0.10411 0.56718 0.23859 0.0
O160 O 0.07346 0.64248 0.24291 0.0
O161 O 0.07436 0.62082 0.27637 0.0
O162 O 0.13394 0.66372 0.27011 0.0
C163 C 0.06172 0.63331 0.26124 0.0
O164 O 0.0888 0.57579 0.22286 0.0
C165 C 0.13955 0.65539 0.29131 0.0
O166 O 0.1173 0.58156 0.25236 0.0
O167 O 0.13463 0.63264 0.29527 0.0
C168 C 0.35523 0.85286 0.69607 0.0
O169 O 0.3768 0.85584 0.68671 0.0
Cd170 Cd 0.41239 0.8689 0.71096 0.0
O171 O 0.35215 0.85446 0.71938 0.0
Cd172 Cd 0.37582 0.86009 0.75821 0.0
C173 C 0.38605 0.91892 0.74118 0.0
O174 O 0.41593 0.84329 0.74639 0.0
O175 O 0.4154 0.8654 0.77962 0.0
O176 O 0.35468 0.82338 0.773 0.0
C177 C 0.42787 0.85261 0.76461 0.0
O178 O 0.40134 0.90998 0.72564 0.0
C179 C 0.34908 0.83206 0.79408 0.0
O180 O 0.37274 0.90485 0.75498 0.0
O181 O 0.35464 0.8547 0.79809 0.0
C182 C 0.0957 0.37434 0.7959 0.0
O183 O 0.07367 0.38 0.802 0.0
Cd184 Cd 0.04503 0.39952 0.77509 0.0
O185 O 0.1036 0.37821 0.77397 0.0
Cd186 Cd 0.08738 0.39349 0.73389 0.0
C187 C 0.08061 0.45064 0.75693 0.0
O188 O 0.04581 0.37524 0.73839 0.0
O189 O 0.0503 0.40081 0.70833 0.0
O190 O 0.10989 0.35996 0.71535 0.0
C191 C 0.0363 0.38554 0.71975 0.0
O192 O 0.06202 0.44132 0.76855 0.0
C193 C 0.11753 0.37214 0.69671 0.0
O194 O 0.09439 0.43713 0.7436 0.0
O195 O 0.11243 0.39495 0.69614 0.0
C196 C 0.6146 0.12237 0.69622 0.0
O197 O 0.59253 0.12077 0.68762 0.0
Cd198 Cd 0.55822 0.10507 0.71267 0.0
O199 O 0.61882 0.1176 0.71886 0.0
Cd200 Cd 0.59919 0.10711 0.7584 0.0
C201 C 0.5853 0.0511 0.73463 0.0
O202 O 0.55753 0.12386 0.75254 0.0
O203 O 0.56333 0.09962 0.7837 0.0
O204 O 0.62138 0.14356 0.77183 0.0
C205 C 0.54837 0.11224 0.771 0.0
O206 O 0.5696 0.06283 0.72162 0.0
C207 C 0.62946 0.13485 0.79203 0.0
O208 O 0.60048 0.06252 0.7492 0.0
O209 O 0.6246 0.11212 0.79633 0.0
C210 C 0.88572 0.61871 0.80099 0.0
O211 O 0.90709 0.61155 0.80774 0.0
Cd212 Cd 0.93754 0.5952 0.78091 0.0
O213 O 0.87927 0.61808 0.77824 0.0
Cd214 Cd 0.89882 0.60699 0.73823 0.0
C215 C 0.90276 0.54735 0.75539 0.0
O216 O 0.93897 0.62541 0.74886 0.0
O217 O 0.93874 0.6039 0.71544 0.0
O218 O 0.87624 0.64019 0.71863 0.0
C219 C 0.95066 0.61833 0.72997 0.0
O220 O 0.92102 0.55408 0.76917 0.0
C221 C 0.86996 0.62756 0.69964 0.0
O222 O 0.89081 0.56316 0.74303 0.0
O223 O 0.87625 0.60509 0.69925 0.0
C224 C 0.18099 0.36797 0.12684 0.0
O225 O 0.1699 0.37177 0.10644 0.0
Cd226 Cd 0.19238 0.38432 0.07028 0.0
O227 O 0.20473 0.36828 0.12797 0.0
Cd228 Cd 0.2416 0.37266 0.10131 0.0
C229 C 0.22677 0.43229 0.09735 0.0
O230 O 0.22421 0.35488 0.06336 0.0
O231 O 0.25853 0.37613 0.05972 0.0
O232 O 0.25836 0.33664 0.12101 0.0
C233 C 0.24199 0.36232 0.04965 0.0
O234 O 0.20943 0.42496 0.08269 0.0
C235 C 0.28006 0.34594 0.12449 0.0
O236 O 0.24106 0.4169 0.10767 0.0
O237 O 0.28356 0.36835 0.11821 0.0
C238 C 0.30969 0.58746 0.87405 0.0
O239 O 0.31567 0.56503 0.87657 0.0
Cd240 Cd 0.28766 0.5354 0.89495 0.0
O241 O 0.28751 0.59418 0.87847 0.0
Cd242 Cd 0.24593 0.57777 0.8897 0.0
C243 C 0.2706 0.5711 0.94601 0.0
O244 O 0.2485 0.53566 0.87424 0.0
O245 O 0.21969 0.54263 0.90105 0.0
O246 O 0.23017 0.59713 0.85292 0.0
C247 C 0.23014 0.52741 0.88674 0.0
O248 O 0.28192 0.5531 0.93608 0.0
C249 C 0.21162 0.60706 0.86324 0.0
O250 O 0.25632 0.58471 0.93327 0.0
O251 O 0.2096 0.60444 0.88656 0.0
C252 C 0.35932 0.29165 0.86165 0.0
O253 O 0.37917 0.30419 0.86601 0.0
Cd254 Cd 0.41625 0.28633 0.88305 0.0
O255 O 0.3586 0.26845 0.86537 0.0
Cd256 Cd 0.3863 0.23578 0.87905 0.0
C257 C 0.39188 0.26088 0.93597 0.0
O258 O 0.42553 0.2498 0.8597 0.0
O259 O 0.42755 0.21994 0.88598 0.0
O260 O 0.36754 0.2091 0.8479 0.0
C261 C 0.43859 0.23362 0.87031 0.0
O262 O 0.40678 0.27686 0.92648 0.0
C263 C 0.36337 0.1911 0.86247 0.0
O264 O 0.38063 0.24489 0.92244 0.0
O265 O 0.36896 0.19437 0.88511 0.0
C266 C 0.6876 0.38592 0.87756 0.0
O267 O 0.68136 0.40828 0.88023 0.0
Cd268 Cd 0.70932 0.43874 0.89724 0.0
O269 O 0.7101 0.37958 0.88104 0.0
Cd270 Cd 0.75233 0.39683 0.88961 0.0
C271 C 0.73148 0.40364 0.9471 0.0
O272 O 0.74643 0.43809 0.87391 0.0
O273 O 0.77838 0.43363 0.89757 0.0
O274 O 0.76184 0.37618 0.85169 0.0
C275 C 0.76536 0.44787 0.88446 0.0
O276 O 0.71886 0.42087 0.93744 0.0
C277 C 0.78301 0.36839 0.85821 0.0
O278 O 0.74562 0.39024 0.93392 0.0
O279 O 0.78974 0.3726 0.88048 0.0
C280 C 0.6248 0.69 0.86742 0.0
O281 O 0.60456 0.67922 0.87382 0.0
Cd282 Cd 0.57098 0.70128 0.89189 0.0
O283 O 0.62744 0.71338 0.86945 0.0
Cd284 Cd 0.60394 0.75025 0.881 0.0
C285 C 0.60226 0.73127 0.94011 0.0
O286 O 0.56444 0.73502 0.86441 0.0
O287 O 0.56259 0.76824 0.88631 0.0
O288 O 0.62384 0.76782 0.845 0.0
C289 C 0.55137 0.75236 0.87276 0.0
O290 O 0.58649 0.7149 0.93262 0.0
C291 C 0.62802 0.78905 0.85435 0.0
O292 O 0.61264 0.74619 0.92493 0.0
O293 O 0.62203 0.79202 0.87689 0.0
C294 C 0.81489 0.61603 0.1128 0.0
O295 O 0.82076 0.612 0.09042 0.0
Cd296 Cd 0.79126 0.59818 0.06055 0.0
O297 O 0.79211 0.61536 0.11962 0.0
Cd298 Cd 0.74962 0.61027 0.10177 0.0
C299 C 0.76419 0.55094 0.09605 0.0
O300 O 0.75928 0.62761 0.06204 0.0
O301 O 0.72541 0.60567 0.06299 0.0
O302 O 0.73935 0.64772 0.12334 0.0
C303 C 0.73991 0.61987 0.05082 0.0
O304 O 0.77791 0.55851 0.07825 0.0
C305 C 0.71753 0.64068 0.12962 0.0
O306 O 0.75161 0.56603 0.10888 0.0
O307 O 0.71126 0.6184 0.12467 0.0
C308 C 0.3936 0.67777 0.12436 0.0
O309 O 0.41636 0.67224 0.12175 0.0
Cd310 Cd 0.44748 0.6999 0.10503 0.0
O311 O 0.38634 0.69956 0.11975 0.0
Cd312 Cd 0.40317 0.74042 0.10713 0.0
C313 C 0.41605 0.7159 0.05131 0.0
O314 O 0.44463 0.73854 0.12565 0.0
O315 O 0.43899 0.76755 0.0992 0.0
O316 O 0.37927 0.7591 0.13996 0.0
C317 C 0.45364 0.75698 0.11403 0.0
O318 O 0.43397 0.70525 0.06223 0.0
C319 C 0.37019 0.77603 0.12667 0.0
O320 O 0.40072 0.729 0.06338 0.0
O321 O 0.37547 0.77567 0.10374 0.0
C322 C 0.61275 0.30012 0.11979 0.0
O323 O 0.59006 0.30623 0.11794 0.0
Cd324 Cd 0.55706 0.2797 0.1028 0.0
O325 O 0.61927 0.27807 0.11513 0.0
Cd326 Cd 0.60103 0.23702 0.10412 0.0
C327 C 0.58574 0.25983 0.04834 0.0
O328 O 0.56087 0.24194 0.12397 0.0
O329 O 0.56386 0.21033 0.1001 0.0
O330 O 0.62693 0.22244 0.13721 0.0
C331 C 0.55029 0.22321 0.11407 0.0
O332 O 0.56908 0.27163 0.06004 0.0
C333 C 0.63377 0.20286 0.12639 0.0
O334 O 0.60135 0.24648 0.05979 0.0
O335 O 0.62645 0.19964 0.10417 0.0
C336 C 0.85981 0.6816 0.61134 0.0
O337 O 0.86476 0.67156 0.59069 0.0
Cd338 Cd 0.88519 0.69586 0.55914 0.0
O339 O 0.86313 0.70475 0.61434 0.0
Cd340 Cd 0.87468 0.74322 0.59349 0.0
C341 C 0.93282 0.72174 0.59541 0.0
O342 O 0.86192 0.73236 0.55132 0.0
O343 O 0.88576 0.76481 0.55581 0.0
O344 O 0.83635 0.75728 0.611 0.0
C345 C 0.87328 0.75065 0.54145 0.0
O346 O 0.92537 0.70673 0.57855 0.0
C347 C 0.84505 0.77777 0.61909 0.0
O348 O 0.91791 0.73699 0.60516 0.0
O349 O 0.86816 0.78231 0.61561 0.0
C350 C 0.17081 0.88517 0.62292 0.0
O351 O 0.1639 0.90726 0.61985 0.0
Cd352 Cd 0.19081 0.93964 0.60448 0.0
O353 O 0.19355 0.87951 0.61992 0.0
Cd354 Cd 0.23446 0.89898 0.61079 0.0
C355 C 0.21472 0.9092 0.55298 0.0
O356 O 0.22857 0.94054 0.62745 0.0
O357 O 0.2599 0.93555 0.60309 0.0
O358 O 0.25161 0.87893 0.64673 0.0
C359 C 0.24738 0.95 0.61648 0.0
O360 O 0.20154 0.92583 0.56297 0.0
C361 C 0.27026 0.87001 0.63563 0.0
O362 O 0.22806 0.89502 0.56611 0.0
O363 O 0.27168 0.87357 0.61242 0.0
C364 C 0.1222 0.31296 0.61127 0.0
O365 O 0.11635 0.32182 0.59036 0.0
Cd366 Cd 0.09544 0.29604 0.56013 0.0
O367 O 0.11893 0.29001 0.61558 0.0
Cd368 Cd 0.10604 0.25054 0.59656 0.0
C369 C 0.04775 0.27138 0.59683 0.0
O370 O 0.11883 0.25935 0.55421 0.0
O371 O 0.09458 0.22741 0.55953 0.0
O372 O 0.14423 0.23644 0.61445 0.0
C373 C 0.10734 0.24079 0.54484 0.0
O374 O 0.05524 0.28554 0.5794 0.0
C375 C 0.13534 0.21616 0.62266 0.0
O376 O 0.06275 0.257 0.60769 0.0
O377 O 0.11214 0.21191 0.61935 0.0
C378 C 0.80224 0.10958 0.62472 0.0
O379 O 0.80963 0.08756 0.62225 0.0
Cd380 Cd 0.78503 0.05465 0.60456 0.0
O381 O 0.77955 0.11483 0.62047 0.0
Cd382 Cd 0.7395 0.09344 0.60982 0.0
C383 C 0.76272 0.08629 0.55297 0.0
O384 O 0.74632 0.05158 0.62513 0.0
O385 O 0.71697 0.05618 0.59824 0.0
O386 O 0.72022 0.11088 0.64603 0.0
C387 C 0.72887 0.04182 0.61222 0.0
O388 O 0.77597 0.06984 0.56316 0.0
C389 C 0.70081 0.11828 0.63502 0.0
O390 O 0.74796 0.09942 0.56573 0.0
O391 O 0.70003 0.1156 0.61163 0.0
C392 C 0.87614 0.17687 0.37187 0.0
O393 O 0.89867 0.17048 0.37438 0.0
Cd394 Cd 0.93166 0.19757 0.38775 0.0
O395 O 0.87002 0.19933 0.37495 0.0
Cd396 Cd 0.88985 0.24029 0.38368 0.0
C397 C 0.9037 0.2206 0.44091 0.0
O398 O 0.92897 0.23308 0.3625 0.0
O399 O 0.92867 0.26499 0.38626 0.0
O400 O 0.86438 0.25607 0.3506 0.0
C401 C 0.9406 0.25184 0.37108 0.0
O402 O 0.92037 0.20787 0.43031 0.0
C403 C 0.85887 0.27609 0.36141 0.0
O404 O 0.88867 0.23352 0.42831 0.0
O405 O 0.86645 0.27883 0.38358 0.0
C406 C 0.66631 0.86285 0.37534 0.0
O407 O 0.65923 0.86709 0.39734 0.0
Cd408 Cd 0.68607 0.88143 0.42984 0.0
O409 O 0.68935 0.86427 0.36963 0.0
Cd410 Cd 0.72973 0.87258 0.39044 0.0
C411 C 0.71232 0.93127 0.39884 0.0
O412 O 0.72076 0.85474 0.43063 0.0
O413 O 0.75303 0.87911 0.4288 0.0
O414 O 0.7489 0.83787 0.37012 0.0
C415 C 0.73972 0.8642 0.44141 0.0
O416 O 0.69844 0.9231 0.41626 0.0
C417 C 0.76811 0.85008 0.36311 0.0
O418 O 0.7249 0.91663 0.38555 0.0
O419 O 0.76843 0.87322 0.36723 0.0
C420 C 0.10253 0.82374 0.37812 0.0
O421 O 0.07992 0.82964 0.38107 0.0
Cd422 Cd 0.04791 0.80026 0.39213 0.0
O423 O 0.10901 0.80128 0.3799 0.0
Cd424 Cd 0.09149 0.75929 0.3864 0.0
C425 C 0.07547 0.77484 0.44438 0.0
O426 O 0.05259 0.76621 0.36481 0.0
O427 O 0.05407 0.73236 0.38541 0.0
O428 O 0.11892 0.74778 0.35316 0.0
C429 C 0.04173 0.7463 0.37136 0.0
O430 O 0.05863 0.78765 0.43417 0.0
C431 C 0.12605 0.72779 0.36285 0.0
O432 O 0.09133 0.76334 0.43139 0.0
O433 O 0.11795 0.72286 0.38441 0.0
C434 C 0.31631 0.13011 0.37685 0.0
O435 O 0.32474 0.1259 0.39839 0.0
Cd436 Cd 0.30012 0.11102 0.43218 0.0
O437 O 0.29296 0.1287 0.37247 0.0
Cd438 Cd 0.25404 0.12058 0.39536 0.0
C439 C 0.27239 0.06176 0.40115 0.0
O440 O 0.2654 0.13747 0.43577 0.0
O441 O 0.23256 0.11378 0.43438 0.0
O442 O 0.23411 0.15544 0.37614 0.0
C443 C 0.24685 0.12791 0.44701 0.0
O444 O 0.2873 0.06956 0.41802 0.0
C445 C 0.2148 0.14318 0.36928 0.0
O446 O 0.25886 0.07665 0.38919 0.0
O447 O 0.2145 0.12007 0.37339 0.0
C448 C 0.5965 0.87647 0.68697 0.0
O449 O 0.57422 0.88026 0.68015 0.0
Cd450 Cd 0.54299 0.89328 0.70809 0.0
O451 O 0.60278 0.87841 0.70967 0.0
Cd452 Cd 0.58415 0.88627 0.75068 0.0
C453 C 0.5741 0.94459 0.73331 0.0
O454 O 0.54579 0.864 0.74069 0.0
O455 O 0.54498 0.88435 0.77487 0.0
O456 O 0.61152 0.8537 0.76284 0.0
C457 C 0.53398 0.86945 0.76009 0.0
O458 O 0.55695 0.93513 0.71965 0.0
C459 C 0.61705 0.86269 0.78392 0.0
O460 O 0.58785 0.93094 0.74647 0.0
O461 O 0.60806 0.88358 0.78926 0.0
C462 C 0.12861 0.62419 0.80009 0.0
O463 O 0.10673 0.6238 0.80906 0.0
Cd464 Cd 0.07072 0.61152 0.78509 0.0
O465 O 0.13202 0.62029 0.77708 0.0
Cd466 Cd 0.10875 0.6133 0.73808 0.0
C467 C 0.09349 0.55698 0.75963 0.0
O468 O 0.06991 0.63399 0.74753 0.0
O469 O 0.06941 0.60875 0.71647 0.0
O470 O 0.13192 0.64833 0.72231 0.0
C471 C 0.05776 0.62399 0.72977 0.0
O472 O 0.07895 0.56879 0.77386 0.0
C473 C 0.13645 0.63913 0.70119 0.0
O474 O 0.10832 0.56842 0.74491 0.0
O475 O 0.1299 0.61662 0.69777 0.0
C476 C 0.36739 0.09812 0.8161 0.0
O477 O 0.37528 0.07949 0.82774 0.0
Cd478 Cd 0.39805 0.04853 0.8058 0.0
O479 O 0.37038 0.09976 0.79282 0.0
Cd480 Cd 0.38639 0.07739 0.7572 0.0
C481 C 0.4444 0.08504 0.77955 0.0
O482 O 0.37391 0.03559 0.77011 0.0
O483 O 0.39884 0.0387 0.73884 0.0
O484 O 0.34995 0.09176 0.73556 0.0
C485 C 0.38539 0.02502 0.75264 0.0
O486 O 0.43823 0.06868 0.79546 0.0
C487 C 0.36186 0.09968 0.71681 0.0
O488 O 0.42861 0.09254 0.76386 0.0
O489 O 0.38537 0.09723 0.7169 0.0
C490 C 0.85356 0.37412 0.67731 0.0
O491 O 0.85855 0.39486 0.66735 0.0
Cd492 Cd 0.88065 0.42711 0.69002 0.0
O493 O 0.85813 0.37076 0.70015 0.0
Cd494 Cd 0.87328 0.39185 0.73758 0.0
C495 C 0.92996 0.39263 0.71151 0.0
O496 O 0.86247 0.43492 0.72963 0.0
O497 O 0.88949 0.42797 0.75846 0.0
O498 O 0.83624 0.37609 0.75762 0.0
C499 C 0.87692 0.4435 0.74648 0.0
O500 O 0.92162 0.40973 0.69777 0.0
C501 C 0.84716 0.36769 0.7766 0.0
O502 O 0.91582 0.38138 0.72695 0.0
O503 O 0.87083 0.36981 0.77727 0.0
C504 C 0.61958 0.12323 0.29602 0.0
O505 O 0.59729 0.1225 0.30399 0.0
Cd506 Cd 0.56269 0.1091 0.27861 0.0
O507 O 0.62426 0.1183 0.27344 0.0
Cd508 Cd 0.60435 0.10821 0.23335 0.0
C509 C 0.58659 0.05329 0.25723 0.0
O510 O 0.56602 0.12983 0.24016 0.0
O511 O 0.56603 0.10506 0.20891 0.0
O512 O 0.63094 0.14105 0.21819 0.0
C513 C 0.55413 0.12019 0.22211 0.0
O514 O 0.57127 0.06577 0.26998 0.0
C515 C 0.63644 0.13079 0.19782 0.0
O516 O 0.60238 0.06396 0.24293 0.0
O517 O 0.62834 0.10875 0.19448 0.0
C518 C 0.89225 0.60914 0.18575 0.0
O519 O 0.91434 0.605 0.17862 0.0
Cd520 Cd 0.94602 0.59231 0.20635 0.0
O521 O 0.8864 0.60754 0.20855 0.0
Cd522 Cd 0.90525 0.59991 0.24947 0.0
C523 C 0.91541 0.54138 0.23242 0.0
O524 O 0.94337 0.62196 0.23884 0.0
O525 O 0.9446 0.60268 0.27348 0.0
O526 O 0.87751 0.63229 0.2613 0.0
C527 C 0.95546 0.61703 0.25823 0.0
O528 O 0.93233 0.55064 0.2185 0.0
C529 C 0.87224 0.62364 0.2825 0.0
O530 O 0.90178 0.55521 0.24554 0.0
O531 O 0.88168 0.60306 0.28814 0.0
C532 C 0.35281 0.86405 0.17937 0.0
O533 O 0.35645 0.88471 0.16874 0.0
Cd534 Cd 0.37682 0.91861 0.19045 0.0
O535 O 0.35672 0.86199 0.2025 0.0
Cd536 Cd 0.36824 0.88645 0.23923 0.0
C537 C 0.42578 0.88596 0.21559 0.0
O538 O 0.35776 0.92928 0.22888 0.0
O539 O 0.38479 0.92337 0.258 0.0
O540 O 0.32983 0.87311 0.25851 0.0
C541 C 0.37217 0.93845 0.24549 0.0
O542 O 0.41754 0.90198 0.20054 0.0
C543 C 0.3396 0.86593 0.27861 0.0
O544 O 0.41142 0.8756 0.23146 0.0
O545 O 0.36329 0.86722 0.28014 0.0
C546 C 0.12283 0.3886 0.31534 0.0
O547 O 0.11549 0.40761 0.32683 0.0
Cd548 Cd 0.09272 0.43847 0.30488 0.0
O549 O 0.11951 0.38662 0.29211 0.0
Cd550 Cd 0.1035 0.40899 0.25652 0.0
C551 C 0.0458 0.40178 0.27944 0.0
O552 O 0.11637 0.451 0.26895 0.0
O553 O 0.09068 0.44746 0.23819 0.0
O554 O 0.13961 0.39444 0.23447 0.0
C555 C 0.10455 0.46132 0.25156 0.0
O556 O 0.05228 0.41835 0.29516 0.0
C557 C 0.12738 0.38642 0.21584 0.0
O558 O 0.06131 0.39404 0.26361 0.0
O559 O 0.10387 0.38881 0.21625 0.0
C560 C 0.81366 0.62417 0.8781 0.0
O561 O 0.8214 0.62004 0.8999 0.0
Cd562 Cd 0.7958 0.60363 0.93209 0.0
O563 O 0.79061 0.62149 0.87267 0.0
Cd564 Cd 0.75097 0.61109 0.89359 0.0
C565 C 0.77147 0.55326 0.89982 0.0
O566 O 0.76028 0.6292 0.93359 0.0
O567 O 0.72854 0.60408 0.93239 0.0
O568 O 0.73215 0.64575 0.87335 0.0
C569 C 0.74179 0.61943 0.94471 0.0
O570 O 0.78539 0.5618 0.91715 0.0
C571 C 0.71249 0.63394 0.86678 0.0
O572 O 0.75761 0.56745 0.88734 0.0
O573 O 0.71159 0.61089 0.87122 0.0
C574 C 0.68745 0.37756 0.12379 0.0
O575 O 0.67998 0.39952 0.12127 0.0
Cd576 Cd 0.7049 0.43257 0.10479 0.0
O577 O 0.7103 0.37247 0.12027 0.0
Cd578 Cd 0.75045 0.39422 0.11105 0.0
C579 C 0.72882 0.40138 0.05359 0.0
O580 O 0.74281 0.43579 0.12699 0.0
O581 O 0.77288 0.43209 0.10096 0.0
O582 O 0.76942 0.37639 0.14727 0.0
C583 C 0.7604 0.44607 0.11487 0.0
O584 O 0.71516 0.41765 0.06354 0.0
C585 C 0.78896 0.36917 0.13639 0.0
O586 O 0.74338 0.38835 0.06665 0.0
O587 O 0.78996 0.3722 0.11308 0.0
C588 C 0.6306 0.81313 0.11392 0.0
O589 O 0.62512 0.82212 0.09297 0.0
Cd590 Cd 0.60606 0.79635 0.06149 0.0
O591 O 0.62846 0.78997 0.11763 0.0
Cd592 Cd 0.61836 0.75055 0.09724 0.0
C593 C 0.55916 0.76935 0.09739 0.0
O594 O 0.63038 0.7604 0.05467 0.0
O595 O 0.60726 0.72768 0.06014 0.0
O596 O 0.65679 0.73596 0.11464 0.0
C597 C 0.61916 0.74165 0.0453 0.0
O598 O 0.56608 0.78406 0.08019 0.0
C599 C 0.64757 0.716 0.12333 0.0
O600 O 0.57473 0.7554 0.10801 0.0
O601 O 0.62426 0.7122 0.12036 0.0
C602 C 0.31919 0.60032 0.12426 0.0
O603 O 0.32588 0.57815 0.12119 0.0
Cd604 Cd 0.29901 0.54625 0.10432 0.0
O605 O 0.29667 0.60633 0.12037 0.0
Cd606 Cd 0.25578 0.58767 0.10933 0.0
C607 C 0.27755 0.57734 0.05223 0.0
O608 O 0.26032 0.54587 0.1255 0.0
O609 O 0.22999 0.55183 0.09998 0.0
O610 O 0.23823 0.6077 0.14505 0.0
C611 C 0.24169 0.53698 0.1136 0.0
O612 O 0.29006 0.56039 0.06251 0.0
C613 C 0.21991 0.61691 0.13366 0.0
O614 O 0.26405 0.59172 0.06502 0.0
O615 O 0.21888 0.61357 0.11037 0.0
C616 C 0.36876 0.18171 0.10931 0.0
O617 O 0.37425 0.172 0.08866 0.0
Cd618 Cd 0.39639 0.19651 0.05854 0.0
O619 O 0.37299 0.20463 0.11313 0.0
Cd620 Cd 0.38714 0.24332 0.09392 0.0
C621 C 0.44448 0.22025 0.09586 0.0
O622 O 0.37368 0.23354 0.05197 0.0
O623 O 0.39831 0.26542 0.0563 0.0
O624 O 0.34899 0.25661 0.11204 0.0
C625 C 0.3851 0.25177 0.04209 0.0
O626 O 0.43658 0.20582 0.07869 0.0
C627 C 0.35717 0.27748 0.11956 0.0
O628 O 0.43006 0.23578 0.10591 0.0
O629 O 0.38012 0.2826 0.11572 0.0
C630 C 0.1651 0.35672 0.87398 0.0
O631 O 0.15736 0.36117 0.89572 0.0
Cd632 Cd 0.18313 0.37426 0.92968 0.0
O633 O 0.18838 0.35693 0.86924 0.0
Cd634 Cd 0.22798 0.36327 0.89193 0.0
C635 C 0.21256 0.42282 0.89971 0.0
O636 O 0.21698 0.34665 0.93252 0.0
O637 O 0.25032 0.36955 0.93063 0.0
O638 O 0.24818 0.32837 0.87258 0.0
C639 C 0.236 0.35582 0.94348 0.0
O640 O 0.19776 0.41543 0.91672 0.0
C641 C 0.26714 0.34092 0.86542 0.0
O642 O 0.22488 0.40749 0.88697 0.0
O643 O 0.26695 0.36408 0.86929 0.0
C644 C 0.61082 0.31034 0.87464 0.0
O645 O 0.58837 0.31682 0.87749 0.0
Cd646 Cd 0.55516 0.28943 0.88929 0.0
O647 O 0.61675 0.28772 0.87656 0.0
Cd648 Cd 0.59663 0.24662 0.88335 0.0
C649 C 0.58298 0.26414 0.9414 0.0
O650 O 0.55771 0.25512 0.86215 0.0
O651 O 0.55751 0.22222 0.88427 0.0
O652 O 0.62227 0.23143 0.85004 0.0
C653 C 0.54583 0.23613 0.86963 0.0
O654 O 0.56637 0.27737 0.93137 0.0
C655 C 0.62779 0.21127 0.86048 0.0
O656 O 0.59789 0.25165 0.92823 0.0
O657 O 0.62 0.20812 0.88247 0.0
C658 C 0.38543 0.66374 0.87546 0.0
O659 O 0.40818 0.65816 0.87803 0.0
Cd660 Cd 0.43968 0.6875 0.89087 0.0
O661 O 0.37849 0.68591 0.87863 0.0
Cd662 Cd 0.39504 0.72791 0.88758 0.0
C663 C 0.41177 0.70964 0.94454 0.0
O664 O 0.43398 0.7229 0.86582 0.0
O665 O 0.43186 0.7557 0.88822 0.0
O666 O 0.36723 0.73984 0.85485 0.0
C667 C 0.44448 0.74266 0.87351 0.0
O668 O 0.42881 0.6977 0.93358 0.0
C669 C 0.36001 0.75957 0.86508 0.0
O670 O 0.39561 0.7215 0.93226 0.0
O671 O 0.36812 0.7641 0.8868 0.0
C672 C 0.13782 0.34537 0.31607 0.0
C673 C 0.13108 0.36674 0.32914 0.0
H674 H 0.1412 0.30611 0.31695 0.0
C675 C 0.12797 0.3654 0.35493 0.0
H676 H 0.14088 0.34588 0.29626 0.0
C677 C 0.12835 0.34253 0.36682 0.0
C678 C 0.13173 0.32078 0.35304 0.0
H679 H 0.12311 0.3816 0.36557 0.0
H680 H 0.12376 0.34173 0.38633 0.0
C681 C 0.13803 0.32255 0.32792 0.0
C682 C 0.65682 0.12463 0.35551 0.0
C683 C 0.68123 0.12325 0.34628 0.0
H684 H 0.61789 0.12584 0.34673 0.0
C685 C 0.68531 0.1263 0.32079 0.0
H686 H 0.65314 0.12244 0.37511 0.0
C687 C 0.66519 0.12817 0.30456 0.0
C688 C 0.6406 0.12701 0.3135 0.0
H689 H 0.70396 0.12564 0.31316 0.0
H690 H 0.66893 0.12904 0.28487 0.0
C691 C 0.63662 0.12649 0.33923 0.0
C692 C 0.85954 0.6533 0.34372 0.0
C693 C 0.85307 0.67702 0.33576 0.0
H694 H 0.87047 0.61709 0.33265 0.0
C695 C 0.84631 0.68051 0.31091 0.0
H696 H 0.86456 0.65002 0.36285 0.0
C697 C 0.8497 0.6617 0.29364 0.0
C698 C 0.85988 0.63919 0.30103 0.0
H699 H 0.84076 0.69849 0.30435 0.0
H700 H 0.84663 0.66567 0.27424 0.0
C701 C 0.86294 0.63443 0.3264 0.0
C702 C 0.29788 0.85698 0.29687 0.0
C703 C 0.32371 0.86034 0.30024 0.0
H704 H 0.26176 0.85862 0.31332 0.0
C705 C 0.33325 0.86294 0.32441 0.0
H706 H 0.29002 0.85451 0.27851 0.0
C707 C 0.31696 0.86533 0.34448 0.0
C708 C 0.29103 0.86511 0.34052 0.0
H709 H 0.35312 0.86542 0.32755 0.0
H710 H 0.32468 0.86965 0.36257 0.0
C711 C 0.28168 0.85931 0.31684 0.0
C712 C 0.13692 0.64882 0.65601 0.0
C713 C 0.14317 0.65566 0.68042 0.0
H714 H 0.12589 0.66151 0.62016 0.0
C715 C 0.14964 0.68047 0.68551 0.0
H716 H 0.13204 0.6298 0.65147 0.0
C717 C 0.14594 0.6986 0.66767 0.0
C718 C 0.13596 0.69215 0.64442 0.0
H719 H 0.15498 0.68625 0.70404 0.0
H720 H 0.1486 0.71784 0.6729 0.0
C721 C 0.13335 0.66702 0.63805 0.0
C722 C 0.30956 0.1189 0.67498 0.0
C723 C 0.32153 0.11954 0.65185 0.0
H724 H 0.31304 0.11207 0.71376 0.0
C725 C 0.34758 0.1172 0.65088 0.0
H726 H 0.28954 0.12089 0.67644 0.0
C727 C 0.36107 0.11222 0.67238 0.0
C728 C 0.34867 0.10938 0.69511 0.0
H729 H 0.35738 0.11781 0.63337 0.0
H730 H 0.38093 0.1092 0.67092 0.0
C731 C 0.32299 0.11375 0.69639 0.0
C732 C 0.85164 0.33107 0.62248 0.0
C733 C 0.84995 0.30816 0.63463 0.0
H734 H 0.85382 0.37043 0.62663 0.0
C735 C 0.84334 0.30757 0.65975 0.0
H736 H 0.85651 0.33208 0.60305 0.0
C737 C 0.84171 0.3295 0.67322 0.0
C738 C 0.84684 0.35238 0.66183 0.0
H739 H 0.84149 0.29016 0.66949 0.0
H740 H 0.83857 0.32834 0.69299 0.0
C741 C 0.85013 0.35308 0.63602 0.0
C742 C 0.62739 0.86817 0.62495 0.0
C743 C 0.65275 0.86829 0.6316 0.0
H744 H 0.58969 0.87053 0.63723 0.0
C745 C 0.6593 0.86823 0.6568 0.0
H746 H 0.62169 0.86796 0.60569 0.0
C747 C 0.6409 0.86975 0.67494 0.0
C748 C 0.61563 0.87134 0.66818 0.0
H749 H 0.67869 0.86819 0.66253 0.0
H750 H 0.64658 0.87071 0.69419 0.0
C751 C 0.60901 0.86969 0.64305 0.0
C752 C 0.37632 0.12813 0.34115 0.0
C753 C 0.36742 0.12466 0.31686 0.0
H754 H 0.36711 0.13323 0.3792 0.0
C755 C 0.34189 0.12743 0.31199 0.0
H756 H 0.39598 0.12662 0.34543 0.0
C757 C 0.32526 0.1313 0.33143 0.0
C758 C 0.33396 0.13246 0.35602 0.0
H759 H 0.33452 0.12516 0.29341 0.0
H760 H 0.30549 0.13178 0.32731 0.0
C761 C 0.35976 0.13204 0.36052 0.0
C762 C 0.84094 0.29271 0.32259 0.0
C763 C 0.84918 0.29693 0.34696 0.0
H764 H 0.83728 0.3077 0.28626 0.0
C765 C 0.85374 0.32139 0.35494 0.0
H766 H 0.83682 0.27411 0.31603 0.0
C767 C 0.85397 0.34075 0.3378 0.0
C768 C 0.84965 0.33572 0.31261 0.0
H769 H 0.85988 0.32524 0.37371 0.0
H770 H 0.86034 0.35895 0.3438 0.0
C771 C 0.84119 0.31197 0.30552 0.0
C772 C 0.62184 0.86041 0.36146 0.0
C773 C 0.64736 0.85994 0.35559 0.0
H774 H 0.58466 0.86471 0.34811 0.0
C775 C 0.65455 0.86007 0.33058 0.0
H776 H 0.61565 0.86004 0.38053 0.0
C777 C 0.63674 0.86282 0.31195 0.0
C778 C 0.61145 0.86546 0.31801 0.0
H779 H 0.67405 0.85951 0.32541 0.0
H780 H 0.64301 0.86418 0.29294 0.0
C781 C 0.60406 0.86315 0.34285 0.0
C782 C 0.14126 0.66592 0.33628 0.0
C783 C 0.14603 0.67268 0.31161 0.0
H784 H 0.13142 0.67857 0.37249 0.0
C785 C 0.15108 0.69764 0.3061 0.0
H786 H 0.13756 0.64678 0.34114 0.0
C787 C 0.14752 0.71582 0.32401 0.0
C788 C 0.1389 0.70927 0.34768 0.0
H789 H 0.15528 0.70335 0.28733 0.0
H790 H 0.14914 0.73505 0.31858 0.0
C791 C 0.1377 0.68416 0.35426 0.0
C792 C 0.309 0.85072 0.69006 0.0
C793 C 0.33306 0.85106 0.67973 0.0
H794 H 0.27008 0.85615 0.68402 0.0
C795 C 0.33556 0.85308 0.65389 0.0
H796 H 0.30634 0.84884 0.70985 0.0
C797 C 0.31466 0.85713 0.63903 0.0
C798 C 0.29097 0.85934 0.6498 0.0
H799 H 0.35381 0.85313 0.6453 0.0
H800 H 0.31735 0.86031 0.61942 0.0
C801 C 0.28817 0.85489 0.67525 0.0
C802 C 0.13332 0.3342 0.67662 0.0
C803 C 0.12719 0.35921 0.67481 0.0
H804 H 0.13717 0.29988 0.65759 0.0
C805 C 0.1253 0.37002 0.65127 0.0
H806 H 0.1353 0.32549 0.69453 0.0
C807 C 0.12614 0.35527 0.63 0.0
C808 C 0.129 0.32959 0.63207 0.0
H809 H 0.12079 0.38934 0.64932 0.0
H810 H 0.1224 0.36366 0.61224 0.0
C811 C 0.13431 0.31952 0.65541 0.0
C812 C 0.65483 0.1248 0.63876 0.0
C813 C 0.67881 0.1258 0.6494 0.0
H814 H 0.61539 0.12299 0.64533 0.0
C815 C 0.6812 0.12996 0.67496 0.0
H816 H 0.65243 0.12165 0.61908 0.0
C817 C 0.66008 0.13072 0.68994 0.0
C818 C 0.63612 0.12724 0.67968 0.0
H819 H 0.69943 0.13111 0.68365 0.0
H820 H 0.66268 0.13259 0.70976 0.0
C821 C 0.63361 0.12549 0.65381 0.0
C822 C 0.85776 0.64055 0.63251 0.0
C823 C 0.85455 0.66624 0.63334 0.0
H824 H 0.8648 0.60784 0.65327 0.0
C825 C 0.85073 0.67774 0.65639 0.0
H826 H 0.86044 0.63109 0.61504 0.0
C827 C 0.8534 0.66447 0.67827 0.0
C828 C 0.85972 0.63946 0.67744 0.0
H829 H 0.84769 0.69744 0.65765 0.0
H830 H 0.8524 0.67427 0.69575 0.0
C831 C 0.86028 0.62723 0.65445 0.0
C832 C 0.32579 0.33831 0.12748 0.0
C833 C 0.30102 0.33008 0.13124 0.0
H834 H 0.36356 0.32776 0.12112 0.0
C835 C 0.2963 0.30513 0.13694 0.0
H836 H 0.33001 0.35752 0.12328 0.0
C837 C 0.31545 0.28817 0.13566 0.0
C838 C 0.33961 0.29591 0.12876 0.0
H839 H 0.27747 0.29831 0.14036 0.0
H840 H 0.31087 0.26873 0.13814 0.0
C841 C 0.34503 0.32129 0.12627 0.0
C842 C 0.34118 0.6501 0.86823 0.0
C843 C 0.36644 0.6441 0.87066 0.0
H844 H 0.30339 0.63684 0.86691 0.0
C845 C 0.37304 0.61909 0.87049 0.0
H846 H 0.33548 0.66919 0.86793 0.0
C847 C 0.35459 0.60047 0.86983 0.0
C848 C 0.32922 0.60655 0.86937 0.0
H849 H 0.39237 0.61384 0.87206 0.0
H850 H 0.36019 0.58139 0.87106 0.0
C851 C 0.32276 0.63152 0.86758 0.0
C852 C 0.31261 0.34239 0.85561 0.0
C853 C 0.29007 0.32872 0.85722 0.0
H854 H 0.35248 0.3413 0.85557 0.0
C855 C 0.29052 0.30286 0.85525 0.0
H856 H 0.31284 0.36238 0.85682 0.0
C857 C 0.31324 0.29078 0.85447 0.0
C858 C 0.33589 0.30436 0.85578 0.0
H859 H 0.27342 0.29185 0.85612 0.0
H860 H 0.31297 0.27075 0.85464 0.0
C861 C 0.33537 0.33029 0.85496 0.0
C862 C 0.65581 0.32321 0.87124 0.0
C863 C 0.63053 0.32956 0.87136 0.0
H864 H 0.69376 0.33608 0.87288 0.0
C865 C 0.62432 0.35466 0.87048 0.0
H866 H 0.66124 0.30404 0.8717 0.0
C867 C 0.64296 0.37304 0.87115 0.0
C868 C 0.6682 0.36669 0.87272 0.0
H869 H 0.60501 0.36019 0.8703 0.0
H870 H 0.63749 0.39219 0.8715 0.0
C871 C 0.67447 0.3416 0.87192 0.0
C872 C 0.66655 0.63534 0.86007 0.0
C873 C 0.69008 0.64726 0.85917 0.0
H874 H 0.62714 0.63965 0.86335 0.0
C875 C 0.69146 0.67298 0.85588 0.0
H876 H 0.6649 0.61549 0.86238 0.0
C877 C 0.66984 0.68684 0.85646 0.0
C878 C 0.64651 0.67518 0.86044 0.0
H879 H 0.70935 0.68263 0.85478 0.0
H880 H 0.67167 0.7068 0.85561 0.0
C881 C 0.6449 0.64922 0.86077 0.0
C882 C 0.6892 0.70262 0.13792 0.0
C883 C 0.664 0.69678 0.13306 0.0
H884 H 0.72612 0.68902 0.14159 0.0
C885 C 0.65591 0.67191 0.13352 0.0
H886 H 0.69587 0.72167 0.13818 0.0
C887 C 0.67332 0.65311 0.13545 0.0
C888 C 0.69895 0.65903 0.13697 0.0
H889 H 0.63653 0.6669 0.13011 0.0
H890 H 0.66689 0.6341 0.13333 0.0
C891 C 0.70653 0.68389 0.13997 0.0
C892 C 0.34938 0.66366 0.13088 0.0
C893 C 0.37484 0.65806 0.12962 0.0
H894 H 0.31177 0.64976 0.13051 0.0
C895 C 0.38182 0.63316 0.13042 0.0
H896 H 0.34336 0.68264 0.1306 0.0
C897 C 0.36366 0.61426 0.13034 0.0
C898 C 0.33819 0.61989 0.12947 0.0
H899 H 0.40128 0.6282 0.12971 0.0
H900 H 0.36965 0.59527 0.12959 0.0
C901 C 0.33124 0.64477 0.13082 0.0
C902 C 0.67575 0.33253 0.12563 0.0
C903 C 0.66882 0.35738 0.1276 0.0
H904 H 0.66343 0.29485 0.12174 0.0
C905 C 0.64343 0.36281 0.13027 0.0
H906 H 0.69516 0.32769 0.1237 0.0
C907 C 0.62524 0.344 0.12909 0.0
C908 C 0.63205 0.31935 0.12523 0.0
H909 H 0.63745 0.38173 0.13208 0.0
H910 H 0.6058 0.34898 0.1301 0.0
C911 C 0.65753 0.31369 0.12445 0.0
C912 C 0.62631 0.85282 0.82802 0.0
C913 C 0.62902 0.84724 0.80275 0.0
H914 H 0.62436 0.83832 0.86479 0.0
C915 C 0.63831 0.82415 0.79584 0.0
H916 H 0.61949 0.8706 0.8339 0.0
C917 C 0.64109 0.8057 0.8135 0.0
C918 C 0.63462 0.81013 0.83827 0.0
H919 H 0.64109 0.81953 0.77652 0.0
H920 H 0.64592 0.78734 0.80732 0.0
C921 C 0.62912 0.83431 0.84573 0.0
C922 C 0.19506 0.62077 0.82254 0.0
C923 C 0.1916 0.61776 0.84813 0.0
H924 H 0.17785 0.6256 0.78725 0.0
C925 C 0.1678 0.62131 0.85822 0.0
H926 H 0.21326 0.61845 0.81425 0.0
C927 C 0.14739 0.62532 0.84268 0.0
C928 C 0.15049 0.62589 0.81683 0.0
H929 H 0.1646 0.61923 0.8779 0.0
H930 H 0.12899 0.62635 0.85084 0.0
C931 C 0.17472 0.62484 0.80704 0.0
C932 C 0.3623 0.12212 0.85535 0.0
C933 C 0.35861 0.11998 0.82967 0.0
H934 H 0.36627 0.14678 0.88622 0.0
C935 C 0.35062 0.14066 0.81634 0.0
H936 H 0.36814 0.10645 0.86618 0.0
C937 C 0.3497 0.16374 0.82777 0.0
C938 C 0.35653 0.16644 0.85272 0.0
H939 H 0.34708 0.13949 0.79661 0.0
H940 H 0.34554 0.17972 0.81657 0.0
C941 C 0.36121 0.14525 0.86683 0.0
C942 C 0.80695 0.35379 0.79515 0.0
C943 C 0.83244 0.35949 0.79819 0.0
H944 H 0.77116 0.35127 0.81232 0.0
C945 C 0.84229 0.36183 0.82225 0.0
H946 H 0.79894 0.35144 0.77683 0.0
C947 C 0.82629 0.36181 0.84271 0.0
C948 C 0.80035 0.35939 0.83921 0.0
H949 H 0.86194 0.36607 0.8251 0.0
H950 H 0.83399 0.36613 0.86081 0.0
C951 C 0.79105 0.35364 0.81551 0.0
C952 C 0.65472 0.18832 0.1645 0.0
C953 C 0.64483 0.18285 0.14098 0.0
H954 H 0.66068 0.17533 0.20128 0.0
C955 C 0.63978 0.15804 0.13456 0.0
H956 H 0.65926 0.20724 0.16977 0.0
C957 C 0.64053 0.13966 0.15271 0.0
C958 C 0.64636 0.14604 0.17734 0.0
H959 H 0.63235 0.15325 0.11645 0.0
H960 H 0.63363 0.12125 0.14808 0.0
C961 C 0.65555 0.17001 0.18255 0.0
C962 C 0.84784 0.61705 0.17458 0.0
C963 C 0.87282 0.61451 0.16729 0.0
H964 H 0.80984 0.61986 0.16302 0.0
C965 C 0.87881 0.61564 0.14201 0.0
H966 H 0.84265 0.61654 0.19395 0.0
C967 C 0.86002 0.61765 0.12431 0.0
C968 C 0.83487 0.61852 0.13152 0.0
H969 H 0.89791 0.61406 0.1358 0.0
H970 H 0.86518 0.61743 0.10493 0.0
C971 C 0.82903 0.61904 0.15685 0.0
C972 C 0.35157 0.79648 0.16342 0.0
C973 C 0.35787 0.79731 0.13822 0.0
H974 H 0.34418 0.81716 0.19621 0.0
C975 C 0.35654 0.8199 0.12557 0.0
H976 H 0.35201 0.77925 0.17356 0.0
C977 C 0.35217 0.84177 0.13861 0.0
C978 C 0.34901 0.84128 0.16445 0.0
H979 H 0.36106 0.82106 0.10607 0.0
H980 H 0.35347 0.85917 0.12878 0.0
C981 C 0.34707 0.81826 0.1764 0.0
C982 C 0.17898 0.36784 0.17296 0.0
C983 C 0.1665 0.36712 0.15003 0.0
H984 H 0.17629 0.37454 0.21186 0.0
C985 C 0.14039 0.36913 0.14955 0.0
H986 H 0.19906 0.36611 0.17403 0.0
C987 C 0.12733 0.37387 0.17132 0.0
C988 C 0.1402 0.37681 0.19386 0.0
H989 H 0.1302 0.36843 0.13221 0.0
H990 H 0.1074 0.37665 0.17023 0.0
C991 C 0.16596 0.37276 0.19465 0.0
C992 C 0.82438 0.62844 0.83326 0.0
C993 C 0.83201 0.62855 0.85819 0.0
H994 H 0.83554 0.62538 0.79539 0.0
C995 C 0.85762 0.62948 0.86377 0.0
H996 H 0.80477 0.62798 0.82834 0.0
C997 C 0.8752 0.62792 0.84492 0.0
C998 C 0.86751 0.62548 0.82013 0.0
H999 H 0.86413 0.62995 0.88277 0.0
H1000 H 0.89477 0.62734 0.84993 0.0
C1001 C 0.84202 0.62693 0.81436 0.0
C1002 C 0.33566 0.79039 0.80865 0.0
C1003 C 0.34175 0.81516 0.81428 0.0
H1004 H 0.33613 0.75295 0.821 0.0
C1005 C 0.34668 0.82183 0.83901 0.0
H1006 H 0.33127 0.78478 0.78983 0.0
C1007 C 0.34949 0.80351 0.85694 0.0
C1008 C 0.34737 0.77843 0.85024 0.0
H1009 H 0.35116 0.84084 0.84395 0.0
H1010 H 0.35604 0.80891 0.8752 0.0
C1011 C 0.33845 0.77213 0.82652 0.0
C1012 C 0.12123 0.35668 0.85837 0.0
C1013 C 0.1469 0.3555 0.85341 0.0
H1014 H 0.08486 0.36342 0.84404 0.0
C1015 C 0.15508 0.35692 0.82873 0.0
H1016 H 0.11426 0.35536 0.87715 0.0
C1017 C 0.13819 0.36168 0.8097 0.0
C1018 C 0.11283 0.36503 0.81502 0.0
H1019 H 0.17473 0.35591 0.82425 0.0
H1020 H 0.14525 0.36401 0.79106 0.0
C1021 C 0.10436 0.3614 0.83937 0.0
C1022 C 0.6467 0.17598 0.80436 0.0
C1023 C 0.63914 0.15196 0.81124 0.0
H1024 H 0.64961 0.21397 0.8151 0.0
C1025 C 0.63489 0.14682 0.83637 0.0
H1026 H 0.65053 0.18037 0.78516 0.0
C1027 C 0.63431 0.16617 0.85361 0.0
C1028 C 0.63799 0.19076 0.84581 0.0
H1029 H 0.62919 0.12842 0.84223 0.0
H1030 H 0.62829 0.16211 0.87232 0.0
C1031 C 0.64614 0.19526 0.82152 0.0
C1032 C 0.856 0.36068 0.15543 0.0
C1033 C 0.85349 0.35904 0.18128 0.0
H1034 H 0.83724 0.36483 0.12065 0.0
C1035 C 0.82948 0.35611 0.19144 0.0
H1036 H 0.87425 0.36277 0.14702 0.0
C1037 C 0.80837 0.35728 0.17639 0.0
C1038 C 0.81081 0.36134 0.15086 0.0
H1039 H 0.82688 0.35436 0.21125 0.0
H1040 H 0.79014 0.35654 0.18502 0.0
C1041 C 0.83479 0.3618 0.14031 0.0
C1042 C 0.63478 0.83321 0.18031 0.0
C1043 C 0.62707 0.85776 0.17847 0.0
H1044 H 0.64279 0.79985 0.16101 0.0
C1045 C 0.62648 0.86905 0.15509 0.0
H1046 H 0.63584 0.82418 0.19814 0.0
C1047 C 0.63027 0.85504 0.13369 0.0
C1048 C 0.63481 0.82961 0.13547 0.0
H1049 H 0.62084 0.88806 0.15315 0.0
H1050 H 0.62747 0.86364 0.11585 0.0
C1051 C 0.63874 0.81928 0.15898 0.0
C1052 C 0.18068 0.63618 0.18765 0.0
C1053 C 0.15667 0.63533 0.1771 0.0
H1054 H 0.21973 0.63132 0.18196 0.0
C1055 C 0.1543 0.6331 0.15124 0.0
H1056 H 0.18324 0.63825 0.20745 0.0
C1057 C 0.17535 0.6293 0.13657 0.0
C1058 C 0.19903 0.62755 0.14756 0.0
H1059 H 0.13609 0.63266 0.14249 0.0
H1060 H 0.17279 0.6259 0.11694 0.0
C1061 C 0.20165 0.63224 0.17303 0.0
C1062 C 0.35592 0.17711 0.15339 0.0
C1063 C 0.36093 0.16607 0.13037 0.0
H1064 H 0.35379 0.17225 0.19258 0.0
C1065 C 0.36223 0.14021 0.12885 0.0
H1066 H 0.35424 0.19696 0.15512 0.0
C1067 C 0.36174 0.126 0.1504 0.0
C1068 C 0.36007 0.13752 0.17369 0.0
H1069 H 0.36569 0.13112 0.11133 0.0
H1070 H 0.36495 0.10635 0.14889 0.0
C1071 C 0.35556 0.16295 0.17489 0.0
C1072 C 0.80343 0.78958 0.63484 0.0
C1073 C 0.82807 0.79651 0.62883 0.0
H1074 H 0.76595 0.80135 0.63945 0.0
C1075 C 0.83482 0.82172 0.62816 0.0
H1076 H 0.79782 0.77026 0.63599 0.0
C1077 C 0.81648 0.83963 0.63014 0.0
C1078 C 0.79126 0.83244 0.63284 0.0
H1079 H 0.85377 0.82757 0.62383 0.0
H1080 H 0.82177 0.85883 0.62718 0.0
C1081 C 0.78517 0.80742 0.63692 0.0
C1082 C 0.83122 0.1637 0.36832 0.0
C1083 C 0.85657 0.15761 0.36785 0.0
H1084 H 0.79345 0.15039 0.37045 0.0
C1085 C 0.86301 0.13263 0.36594 0.0
H1086 H 0.82561 0.18278 0.36954 0.0
C1087 C 0.84457 0.11404 0.36645 0.0
C1088 C 0.81932 0.12008 0.36888 0.0
H1089 H 0.88237 0.1273 0.36523 0.0
H1090 H 0.85025 0.09495 0.36617 0.0
C1091 C 0.81276 0.1451 0.36883 0.0
C1092 C 0.79044 0.81149 0.3529 0.0
C1093 C 0.79084 0.83734 0.35533 0.0
H1094 H 0.81168 0.77856 0.35298 0.0
C1095 C 0.81389 0.85022 0.35514 0.0
H1096 H 0.77294 0.80109 0.35268 0.0
C1097 C 0.83616 0.83729 0.35556 0.0
C1098 C 0.83567 0.81132 0.35601 0.0
H1099 H 0.81479 0.87018 0.35677 0.0
H1100 H 0.8536 0.84766 0.35726 0.0
C1101 C 0.81269 0.79858 0.35318 0.0
C1102 C 0.147 0.83682 0.37155 0.0
C1103 C 0.12187 0.8432 0.37423 0.0
H1104 H 0.18496 0.84948 0.37012 0.0
C1105 C 0.11571 0.86832 0.37487 0.0
H1106 H 0.15237 0.81764 0.37068 0.0
C1107 C 0.13446 0.88664 0.37448 0.0
C1108 C 0.1597 0.88016 0.37347 0.0
H1109 H 0.09649 0.87385 0.3767 0.0
H1110 H 0.1292 0.9058 0.37614 0.0
C1111 C 0.16571 0.8551 0.37118 0.0
C1112 C 0.19262 0.1816 0.35817 0.0
C1113 C 0.19217 0.15582 0.36103 0.0
H1114 H 0.17137 0.21449 0.35681 0.0
C1115 C 0.16914 0.14291 0.36021 0.0
H1116 H 0.21012 0.19202 0.35838 0.0
C1117 C 0.14686 0.1558 0.35948 0.0
C1118 C 0.14731 0.18178 0.35945 0.0
H1119 H 0.16822 0.12298 0.36211 0.0
H1120 H 0.12939 0.14545 0.36073 0.0
C1121 C 0.17037 0.19448 0.35732 0.0
C1122 C 0.16355 0.15399 0.63228 0.0
C1123 C 0.1888 0.16098 0.63526 0.0
H1124 H 0.12632 0.16636 0.62623 0.0
C1125 C 0.19506 0.18592 0.63985 0.0
H1126 H 0.15814 0.13485 0.62893 0.0
C1127 C 0.17691 0.20389 0.63818 0.0
C1128 C 0.1522 0.19719 0.63207 0.0
H1129 H 0.21431 0.19183 0.64263 0.0
H1130 H 0.18263 0.22317 0.63978 0.0
C1131 C 0.14531 0.17203 0.63073 0.0
C1132 C 0.81415 0.15455 0.62719 0.0
C1133 C 0.8209 0.12967 0.62915 0.0
H1134 H 0.82673 0.19213 0.62336 0.0
C1135 C 0.84623 0.12411 0.63224 0.0
H1136 H 0.79479 0.1595 0.62498 0.0
C1137 C 0.86454 0.14281 0.63127 0.0
C1138 C 0.85792 0.16746 0.6272 0.0
H1139 H 0.85208 0.10516 0.63409 0.0
H1140 H 0.88395 0.13772 0.63245 0.0
C1141 C 0.83249 0.17328 0.62622 0.0
C1142 C 0.1264 0.8708 0.62804 0.0
C1143 C 0.15192 0.86536 0.6273 0.0
H1144 H 0.08888 0.85659 0.62722 0.0
C1145 C 0.15905 0.84053 0.6282 0.0
H1146 H 0.12027 0.88974 0.62759 0.0
C1147 C 0.14105 0.82151 0.62796 0.0
C1148 C 0.11554 0.82693 0.62685 0.0
H1149 H 0.17856 0.83568 0.62791 0.0
H1150 H 0.14721 0.80257 0.62751 0.0
C1151 C 0.10838 0.85177 0.62783 0.0
C1152 C 0.11566 0.25042 0.47605 0.0
C1153 C 0.09995 0.23169 0.46614 0.0
H1154 H 0.13039 0.26794 0.50869 0.0
C1155 C 0.08787 0.21511 0.48236 0.0
H1156 H 0.12533 0.26347 0.46409 0.0
C1157 C 0.09085 0.21766 0.50793 0.0
C1158 C 0.10592 0.23688 0.51782 0.0
H1159 H 0.07573 0.20041 0.47535 0.0
H1160 H 0.0809 0.20488 0.51995 0.0
C1161 C 0.11859 0.253 0.50162 0.0
C1162 C 0.78233 0.07642 0.51254 0.0
C1163 C 0.7637 0.08867 0.52573 0.0
H1164 H 0.79603 0.06516 0.47737 0.0
C1165 C 0.74523 0.10122 0.51251 0.0
H1166 H 0.79706 0.06686 0.52209 0.0
C1167 C 0.74466 0.10025 0.48658 0.0
C1168 C 0.76251 0.08669 0.47356 0.0
H1169 H 0.73066 0.11089 0.52218 0.0
H1170 H 0.72967 0.10922 0.47684 0.0
C1171 C 0.78173 0.07542 0.48682 0.0
C1172 C 0.86597 0.73869 0.47262 0.0
C1173 C 0.88047 0.75818 0.46258 0.0
H1174 H 0.85223 0.72103 0.50549 0.0
C1175 C 0.89138 0.7758 0.47869 0.0
H1176 H 0.85725 0.72484 0.46072 0.0
C1177 C 0.88844 0.77363 0.50424 0.0
C1178 C 0.87458 0.75378 0.51432 0.0
H1179 H 0.90254 0.79113 0.47162 0.0
H1180 H 0.89747 0.78732 0.51612 0.0
C1181 C 0.86307 0.73651 0.49826 0.0
C1182 C 0.20061 0.92299 0.48618 0.0
C1183 C 0.2196 0.91056 0.47367 0.0
H1184 H 0.18398 0.93194 0.52072 0.0
C1185 C 0.23578 0.89563 0.48731 0.0
H1186 H 0.18753 0.93433 0.47625 0.0
C1187 C 0.23371 0.89423 0.51315 0.0
C1188 C 0.2154 0.90772 0.52565 0.0
H1189 H 0.25052 0.88574 0.47815 0.0
H1190 H 0.24696 0.88335 0.52335 0.0
C1191 C 0.19852 0.92157 0.51178 0.0
C1192 C 0.05825 0.78405 0.5115 0.0
C1193 C 0.07511 0.76878 0.52382 0.0
H1194 H 0.04523 0.79799 0.47708 0.0
C1195 C 0.09277 0.75594 0.50982 0.0
H1196 H 0.04444 0.79433 0.52164 0.0
C1197 C 0.09322 0.75807 0.48398 0.0
C1198 C 0.07603 0.77309 0.47172 0.0
H1199 H 0.10605 0.74404 0.51876 0.0
H1200 H 0.10683 0.74775 0.47363 0.0
C1201 C 0.0587 0.78618 0.48584 0.0
C1202 C 0.22442 0.1174 0.48611 0.0
C1203 C 0.24461 0.12923 0.47418 0.0
H1204 H 0.208 0.10655 0.52053 0.0
C1205 C 0.26336 0.1409 0.48852 0.0
H1206 H 0.20959 0.10839 0.47555 0.0
C1207 C 0.26247 0.1398 0.51434 0.0
C1208 C 0.2428 0.12706 0.52623 0.0
H1209 H 0.27911 0.15023 0.47982 0.0
H1210 H 0.27754 0.14836 0.52494 0.0
C1211 C 0.22351 0.11634 0.51189 0.0
C1212 C 0.88553 0.23636 0.50694 0.0
C1213 C 0.90214 0.22187 0.52057 0.0
H1214 H 0.87294 0.24738 0.47102 0.0
C1215 C 0.91835 0.20629 0.50776 0.0
H1216 H 0.87279 0.24856 0.51625 0.0
C1217 C 0.91846 0.20564 0.48198 0.0
C1218 C 0.90235 0.22056 0.46828 0.0
H1219 H 0.93132 0.19477 0.51762 0.0
H1220 H 0.93148 0.19362 0.47282 0.0
C1221 C 0.88564 0.23571 0.48103 0.0
C1222 C 0.72588 0.8482 0.48248 0.0
C1223 C 0.74303 0.86216 0.46841 0.0
H1224 H 0.71295 0.83856 0.51862 0.0
C1225 C 0.76221 0.87558 0.48055 0.0
H1226 H 0.71103 0.8375 0.47363 0.0
C1227 C 0.76332 0.87619 0.50638 0.0
C1228 C 0.74526 0.86339 0.52044 0.0
H1229 H 0.77582 0.88636 0.47015 0.0
H1230 H 0.77773 0.88743 0.51529 0.0
C1231 C 0.72698 0.84882 0.50826 0.0
C1232 C 0.48761 0.1049 0.20345 0.0
C1233 C 0.47432 0.11676 0.22226 0.0
H1234 H 0.52348 0.09696 0.18846 0.0
C1235 C 0.4873 0.13204 0.23923 0.0
H1236 H 0.47806 0.09319 0.18999 0.0
C1237 C 0.51326 0.13424 0.23836 0.0
C1238 C 0.5267 0.12119 0.22049 0.0
H1239 H 0.47751 0.14164 0.25379 0.0
H1240 H 0.52282 0.14535 0.25232 0.0
C1241 C 0.51361 0.10711 0.20258 0.0
C1242 C 0.89472 0.50286 0.24957 0.0
C1243 C 0.91154 0.51422 0.23292 0.0
H1244 H 0.87923 0.46876 0.26354 0.0
C1245 C 0.92492 0.49932 0.21653 0.0
H1246 H 0.88404 0.51386 0.26237 0.0
C1247 C 0.92204 0.47372 0.21709 0.0
C1248 C 0.90577 0.46221 0.23412 0.0
H1249 H 0.93785 0.50739 0.20329 0.0
H1250 H 0.93298 0.46294 0.20432 0.0
C1251 C 0.89188 0.47705 0.25019 0.0
C1252 C 0.48951 0.86562 0.23663 0.0
C1253 C 0.50507 0.87771 0.21937 0.0
H1254 H 0.45209 0.85861 0.24895 0.0
C1255 C 0.49424 0.89012 0.19942 0.0
H1256 H 0.49736 0.85578 0.25215 0.0
C1257 C 0.46837 0.89175 0.19759 0.0
C1258 C 0.45279 0.88098 0.21568 0.0
H1259 H 0.50574 0.89941 0.18569 0.0
H1260 H 0.46067 0.90222 0.18243 0.0
C1261 C 0.46358 0.86724 0.2348 0.0
C1262 C 0.11988 0.52953 0.26029 0.0
C1263 C 0.10564 0.54005 0.24129 0.0
H1264 H 0.1307 0.49627 0.27851 0.0
C1265 C 0.09188 0.52437 0.22529 0.0
H1266 H 0.13068 0.5411 0.27294 0.0
C1267 C 0.09189 0.49883 0.22849 0.0
C1268 C 0.10563 0.48832 0.24778 0.0
H1269 H 0.08079 0.53179 0.21038 0.0
H1270 H 0.08084 0.48735 0.21596 0.0
C1271 C 0.11986 0.50387 0.26352 0.0
C1272 C 0.46794 0.86654 0.78442 0.0
C1273 C 0.45542 0.85369 0.76524 0.0
H1274 H 0.5027 0.88154 0.79789 0.0
C1275 C 0.46933 0.844 0.74562 0.0
H1276 H 0.45773 0.87408 0.7999 0.0
C1277 C 0.49508 0.8483 0.7445 0.0
C1278 C 0.50739 0.86237 0.76295 0.0
H1279 H 0.46021 0.83395 0.73064 0.0
H1280 H 0.5052 0.84134 0.72869 0.0
C1281 C 0.49369 0.87085 0.78328 0.0
C1282 C 0.07217 0.49191 0.77545 0.0
C1283 C 0.08558 0.47762 0.75854 0.0
H1284 H 0.06434 0.52784 0.78921 0.0
C1285 C 0.10287 0.48953 0.74276 0.0
H1286 H 0.05886 0.48338 0.78802 0.0
C1287 C 0.10602 0.51531 0.74337 0.0
C1288 C 0.092 0.5296 0.75985 0.0
H1289 H 0.11353 0.47902 0.72953 0.0
H1290 H 0.11902 0.52404 0.73062 0.0
C1291 C 0.07537 0.51751 0.77613 0.0
C1292 C 0.48746 0.08828 0.79723 0.0
C1293 C 0.47043 0.09467 0.77867 0.0
H1294 H 0.52531 0.08937 0.80957 0.0
C1295 C 0.47882 0.10937 0.75876 0.0
H1296 H 0.48158 0.07727 0.81296 0.0
C1297 C 0.50404 0.11634 0.75678 0.0
C1298 C 0.52123 0.10878 0.77472 0.0
H1299 H 0.4661 0.11475 0.74422 0.0
H1300 H 0.5102 0.12672 0.74072 0.0
C1301 C 0.51254 0.09531 0.7953 0.0
C1302 C 0.90669 0.50344 0.76892 0.0
C1303 C 0.89532 0.5209 0.75367 0.0
H1304 H 0.90951 0.46545 0.77882 0.0
C1305 C 0.87687 0.51282 0.7367 0.0
H1306 H 0.92082 0.50903 0.7823 0.0
C1307 C 0.87037 0.48771 0.73466 0.0
C1308 C 0.88211 0.47025 0.74962 0.0
H1309 H 0.86768 0.52582 0.72471 0.0
H1310 H 0.85646 0.48196 0.72111 0.0
C1311 C 0.90011 0.47843 0.76696 0.0
C1312 C 0.25307 0.49314 0.1222 0.0
C1313 C 0.2369 0.51012 0.11137 0.0
H1314 H 0.26267 0.45515 0.12616 0.0
C1315 C 0.21691 0.50125 0.09673 0.0
H1316 H 0.26867 0.49945 0.13353 0.0
C1317 C 0.21355 0.476 0.09238 0.0
C1318 C 0.23008 0.45899 0.10262 0.0
H1319 H 0.20407 0.51387 0.08818 0.0
H1320 H 0.19812 0.46987 0.08074 0.0
C1321 C 0.24969 0.46779 0.11786 0.0
C1322 C 0.20572 0.49208 0.90471 0.0
C1323 C 0.22423 0.50073 0.88832 0.0
H1324 H 0.18753 0.46073 0.9212 0.0
C1325 C 0.238 0.4836 0.87471 0.0
H1326 H 0.19475 0.50485 0.91539 0.0
C1327 C 0.23386 0.45826 0.87803 0.0
C1328 C 0.21592 0.44959 0.89507 0.0
H1329 H 0.25237 0.48975 0.86192 0.0
H1330 H 0.24511 0.4455 0.86762 0.0
C1331 C 0.20164 0.46678 0.90808 0.0
C1332 C 0.47899 0.25139 0.85437 0.0
C1333 C 0.46591 0.23272 0.86724 0.0
H1334 H 0.51474 0.26705 0.84489 0.0
C1335 C 0.47932 0.21384 0.87867 0.0
H1336 H 0.46913 0.26611 0.84529 0.0
C1337 C 0.50534 0.21431 0.87837 0.0
C1338 C 0.51849 0.23373 0.86672 0.0
H1339 H 0.46974 0.19905 0.88852 0.0
H1340 H 0.51514 0.19993 0.88807 0.0
C1341 C 0.50509 0.25191 0.85414 0.0
C1342 C 0.78794 0.51084 0.90632 0.0
C1343 C 0.77111 0.52646 0.89441 0.0
H1344 H 0.79959 0.47378 0.91218 0.0
C1345 C 0.75357 0.51613 0.87773 0.0
H1346 H 0.80184 0.51823 0.9191 0.0
C1347 C 0.75227 0.49061 0.87379 0.0
C1348 C 0.76856 0.47496 0.88635 0.0
H1349 H 0.74041 0.52766 0.86815 0.0
H1350 H 0.7381 0.48311 0.86137 0.0
C1351 C 0.78673 0.48536 0.90227 0.0
C1352 C 0.48593 0.73005 0.85738 0.0
C1353 C 0.47153 0.74711 0.87043 0.0
H1354 H 0.52255 0.71841 0.84781 0.0
C1355 C 0.48353 0.76726 0.88228 0.0
H1356 H 0.4772 0.7144 0.84795 0.0
C1357 C 0.50952 0.76954 0.88222 0.0
C1358 C 0.52396 0.75172 0.87032 0.0
H1359 H 0.4729 0.7808 0.89236 0.0
H1360 H 0.51831 0.78481 0.89222 0.0
C1361 C 0.51191 0.73232 0.85733 0.0
C1362 C 0.74628 0.5143 0.119 0.0
C1363 C 0.76366 0.52431 0.10211 0.0
H1364 H 0.73164 0.48153 0.13645 0.0
C1365 C 0.78085 0.50857 0.09087 0.0
H1366 H 0.73289 0.52598 0.12806 0.0
C1367 C 0.78031 0.48335 0.09586 0.0
C1368 C 0.76245 0.47316 0.11208 0.0
H1369 H 0.7947 0.51568 0.07801 0.0
H1370 H 0.79358 0.47175 0.08652 0.0
C1371 C 0.74563 0.4889 0.12389 0.0
C1372 C 0.52337 0.7492 0.12012 0.0
C1373 C 0.53246 0.76783 0.10421 0.0
H1374 H 0.49116 0.73122 0.13592 0.0
C1375 C 0.51553 0.78433 0.09374 0.0
H1376 H 0.53594 0.73627 0.1286 0.0
C1377 C 0.49 0.7815 0.09803 0.0
C1378 C 0.48078 0.76207 0.11282 0.0
H1379 H 0.52191 0.79908 0.08164 0.0
H1380 H 0.47741 0.79407 0.08902 0.0
C1381 C 0.49773 0.74633 0.12438 0.0
C1382 C 0.51184 0.20118 0.09895 0.0
C1383 C 0.52283 0.22054 0.11283 0.0
H1384 H 0.47854 0.18588 0.08277 0.0
C1385 C 0.50746 0.2386 0.12315 0.0
H1386 H 0.52314 0.18687 0.0909 0.0
C1387 C 0.48176 0.23804 0.11847 0.0
C1388 C 0.47103 0.21946 0.10333 0.0
H1389 H 0.5154 0.25373 0.13397 0.0
H1390 H 0.47052 0.2527 0.12593 0.0
C1391 C 0.48625 0.20067 0.09421 0.0
C1392 C 0.60234 0.71817 0.00887 0.0
C1393 C 0.61667 0.73815 0.01826 0.0
H1394 H 0.58657 0.70034 0.97698 0.0
C1395 C 0.62732 0.75527 0.00165 0.0
H1396 H 0.59394 0.7046 0.02117 0.0
C1397 C 0.6231 0.7528 0.97617 0.0
C1398 C 0.60809 0.73321 0.96686 0.0
H1399 H 0.63847 0.77085 0.00834 0.0
H1400 H 0.63118 0.76653 0.96385 0.0
C1401 C 0.59806 0.71575 0.98349 0.0
C1402 C 0.2925 0.5628 0.98571 0.0
C1403 C 0.27386 0.57541 0.97288 0.0
H1404 H 0.30852 0.55389 0.0206 0.0
C1405 C 0.25788 0.59084 0.9862 0.0
H1406 H 0.3054 0.55105 0.97602 0.0
C1407 C 0.25969 0.5925 0.01204 0.0
C1408 C 0.27754 0.57877 0.0249 0.0
H1409 H 0.2434 0.60089 0.9768 0.0
H1410 H 0.24651 0.60373 0.02197 0.0
C1411 C 0.29433 0.56447 0.01135 0.0
C1412 C 0.39992 0.27435 0.00439 0.0
C1413 C 0.3853 0.25532 0.01502 0.0
H1414 H 0.41342 0.29113 0.97108 0.0
C1415 C 0.3717 0.23908 -0.00051 0.0
H1416 H 0.41054 0.28722 0.01591 0.0
C1417 C 0.37331 0.24135 0.97381 0.0
C1418 C 0.38859 0.25988 0.96313 0.0
H1419 H 0.36019 0.2243 0.00714 0.0
H1420 H 0.36298 0.2282 0.96237 0.0
C1421 C 0.40157 0.2766 0.9787 0.0
C1422 C 0.74701 0.38637 0.01339 0.0
C1423 C 0.72828 0.39885 0.02633 0.0
H1424 H 0.7628 0.37801 0.97788 0.0
C1425 C 0.70959 0.4107 0.01286 0.0
H1426 H 0.76163 0.377 0.02329 0.0
C1427 C 0.71028 0.4113 0.98716 0.0
C1428 C 0.72968 0.40004 0.97415 0.0
H1429 H 0.69466 0.42017 0.02218 0.0
H1430 H 0.69584 0.42118 0.97752 0.0
C1431 C 0.74769 0.38694 0.98744 0.0
C1432 C 0.60182 0.24824 0.98086 0.0
C1433 C 0.58464 0.26339 0.96875 0.0
H1434 H 0.61577 0.23521 0.0156 0.0
C1435 C 0.56859 0.27781 0.98305 0.0
H1436 H 0.61449 0.23694 0.97037 0.0
C1437 C 0.56935 0.27685 0.00879 0.0
C1438 C 0.58618 0.26144 0.02099 0.0
H1439 H 0.5552 0.28978 0.9744 0.0
H1440 H 0.55648 0.2881 0.01909 0.0
C1441 C 0.60258 0.24727 0.00677 0.0
C1442 C 0.72003 0.60839 0.01031 0.0
C1443 C 0.73785 0.62236 0.02375 0.0
H1444 H 0.70724 0.59656 0.97452 0.0
C1445 C 0.75522 0.63729 0.01094 0.0
H1446 H 0.70633 0.59683 0.01972 0.0
C1447 C 0.75575 0.63714 0.98516 0.0
C1448 C 0.73893 0.62204 0.9717 0.0
H1449 H 0.76903 0.64845 0.02083 0.0
H1450 H 0.76994 0.64819 0.97584 0.0
C1451 C 0.72059 0.60821 0.98445 0.0
C1452 C 0.42906 0.6967 0.98533 0.0
C1453 C 0.41153 0.71026 0.97193 0.0
H1454 H 0.44412 0.68775 0.02066 0.0
C1455 C 0.3946 0.72494 0.98496 0.0
H1456 H 0.44231 0.68509 0.97595 0.0
C1457 C 0.39566 0.72648 0.01082 0.0
C1458 C 0.41366 0.71337 0.02411 0.0
H1459 H 0.38084 0.73559 0.97519 0.0
H1460 H 0.38267 0.73827 0.02033 0.0
C1461 C 0.43011 0.69823 0.01106 0.0
C1462 C 0.2609 0.36804 0.00785 0.0
C1463 C 0.24157 0.35828 0.02262 0.0
H1464 H 0.27437 0.37467 0.97123 0.0
C1465 C 0.22131 0.34582 0.0112 0.0
H1466 H 0.27685 0.37757 0.01612 0.0
C1467 C 0.21991 0.34412 0.98541 0.0
C1468 C 0.23872 0.35489 0.97063 0.0
H1469 H 0.2062 0.338 0.02214 0.0
H1470 H 0.20371 0.3351 0.97706 0.0
C1471 C 0.25948 0.36636 0.98212 0.0
C1472 C 0.01745 0.61276 0.70891 0.0
C1473 C 0.03039 0.62561 0.72783 0.0
H1474 H 0.98198 0.60049 0.69465 0.0
C1475 C 0.01678 0.63812 0.74596 0.0
H1476 H 0.02744 0.60309 0.69455 0.0
C1477 C 0.99074 0.6366 0.746 0.0
C1478 C 0.97786 0.62257 0.72791 0.0
H1479 H 0.02623 0.64826 0.76069 0.0
H1480 H 0.98077 0.64572 0.76075 0.0
C1481 C 0.99141 0.61126 0.70895 0.0
C1482 C 0.37041 0.95698 0.7624 0.0
C1483 C 0.38457 0.9461 0.74355 0.0
H1484 H 0.35957 0.99058 0.78013 0.0
C1485 C 0.39821 0.96147 0.72733 0.0
H1486 H 0.35969 0.94565 0.77521 0.0
C1487 C 0.39813 0.98707 0.73014 0.0
C1488 C 0.38444 -0.00206 0.74927 0.0
H1489 H 0.40925 0.95375 0.71253 0.0
H1490 H 0.40907 -0.00168 0.71745 0.0
C1491 C 0.37037 0.98269 0.76525 0.0
C1492 C -0.00657 0.37029 0.73078 0.0
C1493 C 0.00918 0.38423 0.71514 0.0
H1494 H 0.95591 0.36182 0.7418 0.0
C1495 C -0.00142 0.39856 0.6964 0.0
H1496 H 0.00109 0.35891 0.74528 0.0
C1497 C 0.97272 0.40023 0.69439 0.0
C1498 C 0.95695 0.38759 0.71108 0.0
H1499 H 0.01025 0.40931 0.68391 0.0
H1500 H 0.96517 0.41224 0.68036 0.0
C1501 C 0.96754 0.37194 0.72876 0.0
C1502 C 0.56488 0.98629 0.71658 0.0
C1503 C 0.57816 0.97174 0.73332 0.0
H1504 H 0.55706 0.02239 0.7036 0.0
C1505 C 0.59512 0.98342 0.74977 0.0
H1506 H 0.55187 0.97796 0.70346 0.0
C1507 C 0.59815 0.00923 0.74988 0.0
C1508 C 0.58432 0.02374 0.73348 0.0
H1509 H 0.60574 0.97269 0.76282 0.0
H1510 H 0.61087 0.01779 0.76312 0.0
C1511 C 0.56795 0.01189 0.71662 0.0
C1512 C 0.978 0.39155 0.29635 0.0
C1513 C 0.96894 0.37762 0.27609 0.0
H1514 H 0.00924 0.41011 0.31328 0.0
C1515 C 0.98581 0.36982 0.25796 0.0
H1516 H 0.96552 0.39771 0.31074 0.0
C1517 C 0.01104 0.37697 0.25944 0.0
C1518 C 0.01977 0.3921 0.27903 0.0
H1519 H 0.97938 0.3591 0.24212 0.0
H1520 H 0.02347 0.37137 0.24477 0.0
C1521 C 0.00309 0.39876 0.29777 0.0
C1522 C 0.56734 0.01449 0.27424 0.0
C1523 C 0.58496 0.02596 0.25854 0.0
H1524 H 0.55025 0.98075 0.28656 0.0
C1525 C 0.59997 0.01109 0.24355 0.0
H1526 H 0.55552 0.02531 0.28615 0.0
C1527 C 0.59692 0.98532 0.24382 0.0
C1528 C 0.57878 0.97397 0.25905 0.0
H1529 H 0.61373 0.01933 0.23127 0.0
H1530 H 0.60846 0.97437 0.23175 0.0
C1531 C 0.56428 0.98885 0.27447 0.0
C1532 C 0.02002 0.64155 0.24247 0.0
C1533 C 0.0342 0.63231 0.26212 0.0
H1534 H 0.98388 0.64403 0.2259 0.0
C1535 C 0.02191 0.62006 0.28168 0.0
H1536 H 0.02895 0.65114 0.22718 0.0
C1537 C -0.00388 0.61592 0.28093 0.0
C1538 C 0.98213 0.62397 0.26062 0.0
H1539 H 0.03232 0.61287 0.29719 0.0
H1540 H 0.98729 0.6057 0.29586 0.0
C1541 C -0.00578 0.63742 0.24172 0.0
C1542 C 0.40133 -0.00103 0.26697 0.0
C1543 C 0.39021 0.01608 0.25114 0.0
H1544 H 0.40408 0.96127 0.27779 0.0
C1545 C 0.37201 0.00761 0.23409 0.0
H1546 H 0.41526 0.00486 0.28044 0.0
C1547 C 0.36558 0.98242 0.2325 0.0
C1548 C 0.37716 0.96532 0.24802 0.0
H1549 H 0.36303 0.02035 0.22166 0.0
H1550 H 0.35191 0.97632 0.21887 0.0
C1551 C 0.39484 0.97394 0.26548 0.0
C1552 C 0.7082 0.00511 0.59248 0.0
C1553 C 0.72611 0.01479 0.60909 0.0
H1554 H 0.693 0.97315 0.57426 0.0
C1555 C 0.74226 -0.00143 0.62112 0.0
H1556 H 0.69543 0.01711 0.58295 0.0
C1557 C 0.74086 0.97318 0.61611 0.0
C1558 C 0.72337 0.96364 0.59891 0.0
H1559 H 0.75629 0.00552 0.63398 0.0
H1560 H 0.75373 0.96112 0.62539 0.0
C1561 C 0.70689 0.97987 0.58739 0.0
C1562 C 0.73433 0.99341 0.37413 0.0
C1563 C 0.71976 0.00969 0.38796 0.0
H1564 H 0.7434 0.95581 0.36668 0.0
C1565 C 0.70184 -3e-05 0.40441 0.0
H1566 H 0.74826 0.00037 0.36128 0.0
C1567 C 0.69914 0.97449 0.40762 0.0
C1568 C 0.71422 0.95818 0.39436 0.0
H1569 H 0.69026 0.01205 0.41528 0.0
H1570 H 0.68546 0.96762 0.42079 0.0
C1571 C 0.73156 0.96788 0.37727 0.0
C1572 C 0.97632 0.7199 0.37806 0.0
C1573 C 0.96213 0.73835 0.36688 0.0
H1574 H 0.01272 0.7078 0.38798 0.0
C1575 C 0.97446 0.75817 0.35503 0.0
H1576 H 0.96733 0.70429 0.38716 0.0
C1577 C 0.00049 0.76019 0.3555 0.0
C1578 C 0.01462 0.7424 0.36781 0.0
H1579 H 0.96402 0.7726 0.34613 0.0
H1580 H 0.00946 0.77614 0.34699 0.0
C1581 C 0.00232 0.72189 0.37849 0.0
C1582 C 0.28664 0.01844 0.40721 0.0
C1583 C 0.27052 0.03501 0.39563 0.0
H1584 H 0.29641 0.98074 0.41261 0.0
C1585 C 0.25228 0.0257 0.3791 0.0
H1586 H 0.30104 0.02501 0.41987 0.0
C1587 C 0.24962 0.00029 0.37495 0.0
C1588 C 0.26522 0.98371 0.38717 0.0
H1589 H 0.23964 0.03797 0.36977 0.0
H1590 H 0.23496 0.99362 0.36264 0.0
C1591 C 0.28405 0.99306 0.40296 0.0
C1592 C 0.00769 0.23786 0.35605 0.0
C1593 C 0.02048 0.25644 0.36953 0.0
H1594 H 0.97223 0.22193 0.3458 0.0
C1595 C 0.00677 0.27487 0.38139 0.0
H1596 H 0.01778 0.2235 0.3466 0.0
C1597 C 0.98074 0.27402 0.38089 0.0
C1598 C 0.96791 0.2547 0.36855 0.0
H1599 H 0.01611 0.28957 0.39173 0.0
H1600 H 0.97069 0.28803 0.39091 0.0
C1601 C 0.98161 0.23699 0.35557 0.0
C1602 C 0.27427 0.0117 0.59655 0.0
C1603 C 0.25696 0.02824 0.60632 0.0
H1604 H 0.28502 0.97416 0.5925 0.0
C1605 C 0.23723 0.01892 0.62095 0.0
H1606 H 0.28984 0.01823 0.58543 0.0
C1607 C 0.23448 0.99349 0.62506 0.0
C1608 C 0.25145 0.97698 0.61465 0.0
H1609 H 0.22366 0.0312 0.62887 0.0
H1610 H 0.21876 0.98673 0.63585 0.0
C1611 C 0.27156 0.9864 0.60071 0.0
C1612 C 0.97914 0.2859 0.59656 0.0
C1613 C 0.969 0.26657 0.61091 0.0
H1614 H 0.01189 0.30266 0.581 0.0
C1615 C 0.98518 0.25021 0.62267 0.0
H1616 H 0.96716 0.29895 0.58743 0.0
C1617 C 0.01097 0.25233 0.61898 0.0
C1618 C 0.02096 0.27083 0.60342 0.0
H1619 H 0.97789 0.23516 0.63389 0.0
H1620 H 0.02294 0.2389 0.62753 0.0
C1621 C 0.00481 0.28799 0.59283 0.0
C1622 C -0.00519 0.74167 0.62387 0.0
C1623 C 0.01089 0.72411 0.61378 0.0
H1624 H 0.95744 0.75474 0.62599 0.0
C1625 C 0.00075 0.70465 0.59943 0.0
H1626 H 0.00209 0.75686 0.63504 0.0
C1627 C 0.97527 0.70353 0.5941 0.0
C1628 C 0.95933 0.72178 0.6031 0.0
H1629 H 0.01262 0.69074 0.59151 0.0
H1630 H 0.96822 0.68865 0.58238 0.0
C1631 C 0.96925 0.7405 0.61861 0.0
loop_
_geom_bond_atom_site_label_1
_geom_bond_atom_site_label_2
_geom_bond_distance
_geom_bond_site_symmetry_2
_ccdc_geom_bond_type
C0 O1 1.306 . S
C0 O3 1.160 . S
O1 C0 1.306 . S
O1 Cd2 2.228 . S
Cd2 O1 2.228 . S
Cd2 O6 2.273 . S
Cd2 O10 2.277 . S
O3 C0 1.160 . S
O3 Cd4 2.203 . S
Cd4 O3 2.203 . S
Cd4 O6 2.411 . S
Cd4 O7 2.333 . S
Cd4 O8 2.352 . S
Cd4 O12 2.277 . S
Cd4 O13 2.356 . S
C5 O10 1.209 . S
C5 O12 1.226 . S
O6 Cd2 2.273 . S
O6 Cd4 2.411 . S
O6 C9 1.320 . S
O7 Cd4 2.333 . S
O7 C9 1.214 . S
O8 Cd4 2.352 . S
O8 C11 1.258 . S
C9 O6 1.320 . S
C9 O7 1.214 . S
O10 Cd2 2.277 . S
O10 C5 1.209 . S
C11 O8 1.258 . S
C11 O13 1.282 . S
O12 Cd4 2.277 . S
O12 C5 1.226 . S
O13 Cd4 2.356 . S
O13 C11 1.282 . S
C14 O15 1.306 . S
C14 O17 1.160 . S
O15 C14 1.306 . S
O15 Cd16 2.228 . S
Cd16 O15 2.228 . S
Cd16 O20 2.273 . S
Cd16 O24 2.277 . S
O17 C14 1.160 . S
O17 Cd18 2.203 . S
Cd18 O17 2.203 . S
Cd18 O20 2.411 . S
Cd18 O21 2.333 . S
Cd18 O22 2.352 . S
Cd18 O26 2.277 . S
Cd18 O27 2.356 . S
C19 O24 1.209 . S
C19 O26 1.226 . S
O20 Cd16 2.273 . S
O20 Cd18 2.411 . S
O20 C23 1.320 . S
O21 Cd18 2.333 . S
O21 C23 1.214 . S
O22 Cd18 2.352 . S
O22 C25 1.258 . S
C23 O20 1.320 . S
C23 O21 1.214 . S
O24 Cd16 2.277 . S
O24 C19 1.209 . S
C25 O22 1.258 . S
C25 O27 1.282 . S
O26 Cd18 2.277 . S
O26 C19 1.226 . S
O27 Cd18 2.356 . S
O27 C25 1.282 . S
C28 O29 1.306 . S
C28 O31 1.160 . S
O29 C28 1.306 . S
O29 Cd30 2.228 . S
Cd30 O29 2.228 . S
Cd30 O34 2.273 . S
Cd30 O38 2.277 . S
O31 C28 1.160 . S
O31 Cd32 2.203 . S
Cd32 O31 2.203 . S
Cd32 O34 2.411 . S
Cd32 O35 2.333 . S
Cd32 O36 2.352 . S
Cd32 O40 2.277 . S
Cd32 O41 2.356 . S
C33 O38 1.209 . S
C33 O40 1.226 . S
O34 Cd30 2.273 . S
O34 Cd32 2.411 . S
O34 C37 1.320 . S
O35 Cd32 2.333 . S
O35 C37 1.214 . S
O36 Cd32 2.352 . S
O36 C39 1.258 . S
C37 O34 1.320 . S
C37 O35 1.214 . S
O38 Cd30 2.277 . S
O38 C33 1.209 . S
C39 O36 1.258 . S
C39 O41 1.282 . S
O40 Cd32 2.277 . S
O40 C33 1.226 . S
O41 Cd32 2.356 . S
O41 C39 1.282 . S
C42 O43 1.306 . S
C42 O45 1.160 . S
O43 C42 1.306 . S
O43 Cd44 2.228 . S
Cd44 O43 2.228 . S
Cd44 O48 2.273 . S
Cd44 O52 2.277 . S
O45 C42 1.160 . S
O45 Cd46 2.203 . S
Cd46 O45 2.203 . S
Cd46 O48 2.411 . S
Cd46 O49 2.333 . S
Cd46 O50 2.352 . S
Cd46 O54 2.277 . S
Cd46 O55 2.356 . S
C47 O52 1.209 . S
C47 O54 1.226 . S
O48 Cd44 2.273 . S
O48 Cd46 2.411 . S
O48 C51 1.320 . S
O49 Cd46 2.333 . S
O49 C51 1.214 . S
O50 Cd46 2.352 . S
O50 C53 1.258 . S
C51 O48 1.320 . S
C51 O49 1.214 . S
O52 Cd44 2.277 . S
O52 C47 1.209 . S
C53 O50 1.258 . S
C53 O55 1.282 . S
O54 Cd46 2.277 . S
O54 C47 1.226 . S
O55 Cd46 2.356 . S
O55 C53 1.282 . S
C56 O57 1.306 . S
C56 O59 1.160 . S
O57 C56 1.306 . S
O57 Cd58 2.228 . S
Cd58 O57 2.228 . S
Cd58 O62 2.273 . S
Cd58 O66 2.277 . S
O59 C56 1.160 . S
O59 Cd60 2.203 . S
Cd60 O59 2.203 . S
Cd60 O62 2.411 . S
Cd60 O63 2.333 . S
Cd60 O64 2.352 . S
Cd60 O68 2.277 . S
Cd60 O69 2.356 . S
C61 O66 1.209 . S
C61 O68 1.226 . S
O62 Cd58 2.273 . S
O62 Cd60 2.411 . S
O62 C65 1.320 . S
O63 Cd60 2.333 . S
O63 C65 1.214 . S
O64 Cd60 2.352 . S
O64 C67 1.258 . S
C65 O62 1.320 . S
C65 O63 1.214 . S
O66 Cd58 2.277 . S
O66 C61 1.209 . S
C67 O64 1.258 . S
C67 O69 1.282 . S
O68 Cd60 2.277 . S
O68 C61 1.226 . S
O69 Cd60 2.356 . S
O69 C67 1.282 . S
C70 O71 1.306 . S
C70 O73 1.160 . S
O71 C70 1.306 . S
O71 Cd72 2.228 . S
Cd72 O71 2.228 . S
Cd72 O76 2.273 . S
Cd72 O80 2.277 . S
O73 C70 1.160 . S
O73 Cd74 2.203 . S
Cd74 O73 2.203 . S
Cd74 O76 2.411 . S
Cd74 O77 2.333 . S
Cd74 O78 2.352 . S
Cd74 O82 2.277 . S
Cd74 O83 2.356 . S
C75 O80 1.209 . S
C75 O82 1.226 . S
O76 Cd72 2.273 . S
O76 Cd74 2.411 . S
O76 C79 1.320 . S
O77 Cd74 2.333 . S
O77 C79 1.214 . S
O78 Cd74 2.352 . S
O78 C81 1.258 . S
C79 O76 1.320 . S
C79 O77 1.214 . S
O80 Cd72 2.277 . S
O80 C75 1.209 . S
C81 O78 1.258 . S
C81 O83 1.282 . S
O82 Cd74 2.277 . S
O82 C75 1.226 . S
O83 Cd74 2.356 . S
O83 C81 1.282 . S
C84 O85 1.306 . S
C84 O87 1.160 . S
O85 C84 1.306 . S
O85 Cd86 2.228 . S
Cd86 O85 2.228 . S
Cd86 O90 2.273 . S
Cd86 O94 2.277 . S
O87 C84 1.160 . S
O87 Cd88 2.203 . S
Cd88 O87 2.203 . S
Cd88 O90 2.411 . S
Cd88 O91 2.333 . S
Cd88 O92 2.352 . S
Cd88 O96 2.277 . S
Cd88 O97 2.356 . S
C89 O94 1.209 . S
C89 O96 1.226 . S
O90 Cd86 2.273 . S
O90 Cd88 2.411 . S
O90 C93 1.320 . S
O91 Cd88 2.333 . S
O91 C93 1.214 . S
O92 Cd88 2.352 . S
O92 C95 1.258 . S
C93 O90 1.320 . S
C93 O91 1.214 . S
O94 Cd86 2.277 . S
O94 C89 1.209 . S
C95 O92 1.258 . S
C95 O97 1.282 . S
O96 Cd88 2.277 . S
O96 C89 1.226 . S
O97 Cd88 2.356 . S
O97 C95 1.282 . S
C98 O99 1.306 . S
C98 O101 1.160 . S
O99 C98 1.306 . S
O99 Cd100 2.228 . S
Cd100 O99 2.228 . S
Cd100 O104 2.273 . S
Cd100 O108 2.277 . S
O101 C98 1.160 . S
O101 Cd102 2.203 . S
Cd102 O101 2.203 . S
Cd102 O104 2.411 . S
Cd102 O105 2.333 . S
Cd102 O106 2.352 . S
Cd102 O110 2.277 . S
Cd102 O111 2.356 . S
C103 O108 1.209 . S
C103 O110 1.226 . S
O104 Cd100 2.273 . S
O104 Cd102 2.411 . S
O104 C107 1.320 . S
O105 Cd102 2.333 . S
O105 C107 1.214 . S
O106 Cd102 2.352 . S
O106 C109 1.258 . S
C107 O104 1.320 . S
C107 O105 1.214 . S
O108 Cd100 2.277 . S
O108 C103 1.209 . S
C109 O106 1.258 . S
C109 O111 1.282 . S
O110 Cd102 2.277 . S
O110 C103 1.226 . S
O111 Cd102 2.356 . S
O111 C109 1.282 . S
C112 O113 1.306 . S
C112 O115 1.160 . S
O113 C112 1.306 . S
O113 Cd114 2.228 . S
Cd114 O113 2.228 . S
Cd114 O118 2.273 . S
Cd114 O122 2.277 . S
O115 C112 1.160 . S
O115 Cd116 2.203 . S
Cd116 O115 2.203 . S
Cd116 O118 2.411 . S
Cd116 O119 2.333 . S
Cd116 O120 2.352 . S
Cd116 O124 2.277 . S
Cd116 O125 2.356 . S
C117 O122 1.209 . S
C117 O124 1.226 . S
O118 Cd114 2.273 . S
O118 Cd116 2.411 . S
O118 C121 1.320 . S
O119 Cd116 2.333 . S
O119 C121 1.214 . S
O120 Cd116 2.352 . S
O120 C123 1.258 . S
C121 O118 1.320 . S
C121 O119 1.214 . S
O122 Cd114 2.277 . S
O122 C117 1.209 . S
C123 O120 1.258 . S
C123 O125 1.282 . S
O124 Cd116 2.277 . S
O124 C117 1.226 . S
O125 Cd116 2.356 . S
O125 C123 1.282 . S
C126 O127 1.306 . S
C126 O129 1.160 . S
O127 C126 1.306 . S
O127 Cd128 2.228 . S
Cd128 O127 2.228 . S
Cd128 O132 2.273 . S
Cd128 O136 2.277 . S
O129 C126 1.160 . S
O129 Cd130 2.203 . S
Cd130 O129 2.203 . S
Cd130 O132 2.411 . S
Cd130 O133 2.333 . S
Cd130 O134 2.352 . S
Cd130 O138 2.277 . S
Cd130 O139 2.356 . S
C131 O136 1.209 . S
C131 O138 1.226 . S
O132 Cd128 2.273 . S
O132 Cd130 2.411 . S
O132 C135 1.320 . S
O133 Cd130 2.333 . S
O133 C135 1.214 . S
O134 Cd130 2.352 . S
O134 C137 1.258 . S
C135 O132 1.320 . S
C135 O133 1.214 . S
O136 Cd128 2.277 . S
O136 C131 1.209 . S
C137 O134 1.258 . S
C137 O139 1.282 . S
O138 Cd130 2.277 . S
O138 C131 1.226 . S
O139 Cd130 2.356 . S
O139 C137 1.282 . S
C140 O141 1.306 . S
C140 O143 1.160 . S
O141 C140 1.306 . S
O141 Cd142 2.228 . S
Cd142 O141 2.228 . S
Cd142 O146 2.273 . S
Cd142 O150 2.277 . S
O143 C140 1.160 . S
O143 Cd144 2.203 . S
Cd144 O143 2.203 . S
Cd144 O146 2.411 . S
Cd144 O147 2.333 . S
Cd144 O148 2.352 . S
Cd144 O152 2.277 . S
Cd144 O153 2.356 . S
C145 O150 1.209 . S
C145 O152 1.226 . S
O146 Cd142 2.273 . S
O146 Cd144 2.411 . S
O146 C149 1.320 . S
O147 Cd144 2.333 . S
O147 C149 1.214 . S
O148 Cd144 2.352 . S
O148 C151 1.258 . S
C149 O146 1.320 . S
C149 O147 1.214 . S
O150 Cd142 2.277 . S
O150 C145 1.209 . S
C151 O148 1.258 . S
C151 O153 1.282 . S
O152 Cd144 2.277 . S
O152 C145 1.226 . S
O153 Cd144 2.356 . S
O153 C151 1.282 . S
C154 O155 1.306 . S
C154 O157 1.160 . S
O155 C154 1.306 . S
O155 Cd156 2.228 . S
Cd156 O155 2.228 . S
Cd156 O160 2.273 . S
Cd156 O164 2.277 . S
O157 C154 1.160 . S
O157 Cd158 2.203 . S
Cd158 O157 2.203 . S
Cd158 O160 2.411 . S
Cd158 O161 2.333 . S
Cd158 O162 2.352 . S
Cd158 O166 2.277 . S
Cd158 O167 2.356 . S
C159 O164 1.209 . S
C159 O166 1.226 . S
O160 Cd156 2.273 . S
O160 Cd158 2.411 . S
O160 C163 1.320 . S
O161 Cd158 2.333 . S
O161 C163 1.214 . S
O162 Cd158 2.352 . S
O162 C165 1.258 . S
C163 O160 1.320 . S
C163 O161 1.214 . S
O164 Cd156 2.277 . S
O164 C159 1.209 . S
C165 O162 1.258 . S
C165 O167 1.282 . S
O166 Cd158 2.277 . S
O166 C159 1.226 . S
O167 Cd158 2.356 . S
O167 C165 1.282 . S
C168 O169 1.306 . S
C168 O171 1.160 . S
O169 C168 1.306 . S
O169 Cd170 2.228 . S
Cd170 O169 2.228 . S
Cd170 O174 2.273 . S
Cd170 O178 2.277 . S
O171 C168 1.160 . S
O171 Cd172 2.203 . S
Cd172 O171 2.203 . S
Cd172 O174 2.411 . S
Cd172 O175 2.333 . S
Cd172 O176 2.352 . S
Cd172 O180 2.277 . S
Cd172 O181 2.356 . S
C173 O178 1.209 . S
C173 O180 1.226 . S
O174 Cd170 2.273 . S
O174 Cd172 2.411 . S
O174 C177 1.320 . S
O175 Cd172 2.333 . S
O175 C177 1.214 . S
O176 Cd172 2.352 . S
O176 C179 1.258 . S
C177 O174 1.320 . S
C177 O175 1.214 . S
O178 Cd170 2.277 . S
O178 C173 1.209 . S
C179 O176 1.258 . S
C179 O181 1.282 . S
O180 Cd172 2.277 . S
O180 C173 1.226 . S
O181 Cd172 2.356 . S
O181 C179 1.282 . S
C182 O183 1.306 . S
C182 O185 1.160 . S
O183 C182 1.306 . S
O183 Cd184 2.228 . S
Cd184 O183 2.228 . S
Cd184 O188 2.273 . S
Cd184 O192 2.277 . S
O185 C182 1.160 . S
O185 Cd186 2.203 . S
Cd186 O185 2.203 . S
Cd186 O188 2.411 . S
Cd186 O189 2.333 . S
Cd186 O190 2.352 . S
Cd186 O194 2.277 . S
Cd186 O195 2.356 . S
C187 O192 1.209 . S
C187 O194 1.226 . S
O188 Cd184 2.273 . S
O188 Cd186 2.411 . S
O188 C191 1.320 . S
O189 Cd186 2.333 . S
O189 C191 1.214 . S
O190 Cd186 2.352 . S
O190 C193 1.258 . S
C191 O188 1.320 . S
C191 O189 1.214 . S
O192 Cd184 2.277 . S
O192 C187 1.209 . S
C193 O190 1.258 . S
C193 O195 1.282 . S
O194 Cd186 2.277 . S
O194 C187 1.226 . S
O195 Cd186 2.356 . S
O195 C193 1.282 . S
C196 O197 1.306 . S
C196 O199 1.160 . S
O197 C196 1.306 . S
O197 Cd198 2.228 . S
Cd198 O197 2.228 . S
Cd198 O202 2.273 . S
Cd198 O206 2.277 . S
O199 C196 1.160 . S
O199 Cd200 2.203 . S
Cd200 O199 2.203 . S
Cd200 O202 2.411 . S
Cd200 O203 2.333 . S
Cd200 O204 2.352 . S
Cd200 O208 2.277 . S
Cd200 O209 2.356 . S
C201 O206 1.209 . S
C201 O208 1.226 . S
O202 Cd198 2.273 . S
O202 Cd200 2.411 . S
O202 C205 1.320 . S
O203 Cd200 2.333 . S
O203 C205 1.214 . S
O204 Cd200 2.352 . S
O204 C207 1.258 . S
C205 O202 1.320 . S
C205 O203 1.214 . S
O206 Cd198 2.277 . S
O206 C201 1.209 . S
C207 O204 1.258 . S
C207 O209 1.282 . S
O208 Cd200 2.277 . S
O208 C201 1.226 . S
O209 Cd200 2.356 . S
O209 C207 1.282 . S
C210 O211 1.306 . S
C210 O213 1.160 . S
O211 C210 1.306 . S
O211 Cd212 2.228 . S
Cd212 O211 2.228 . S
Cd212 O216 2.273 . S
Cd212 O220 2.277 . S
O213 C210 1.160 . S
O213 Cd214 2.203 . S
Cd214 O213 2.203 . S
Cd214 O216 2.411 . S
Cd214 O217 2.333 . S
Cd214 O218 2.352 . S
Cd214 O222 2.277 . S
Cd214 O223 2.356 . S
C215 O220 1.209 . S
C215 O222 1.226 . S
O216 Cd212 2.273 . S
O216 Cd214 2.411 . S
O216 C219 1.320 . S
O217 Cd214 2.333 . S
O217 C219 1.214 . S
O218 Cd214 2.352 . S
O218 C221 1.258 . S
C219 O216 1.320 . S
C219 O217 1.214 . S
O220 Cd212 2.277 . S
O220 C215 1.209 . S
C221 O218 1.258 . S
C221 O223 1.282 . S
O222 Cd214 2.277 . S
O222 C215 1.226 . S
O223 Cd214 2.356 . S
O223 C221 1.282 . S
C224 O225 1.306 . S
C224 O227 1.160 . S
O225 C224 1.306 . S
O225 Cd226 2.228 . S
Cd226 O225 2.228 . S
Cd226 O230 2.273 . S
Cd226 O234 2.277 . S
O227 C224 1.160 . S
O227 Cd228 2.203 . S
Cd228 O227 2.203 . S
Cd228 O230 2.411 . S
Cd228 O231 2.333 . S
Cd228 O232 2.352 . S
Cd228 O236 2.277 . S
Cd228 O237 2.356 . S
C229 O234 1.209 . S
C229 O236 1.226 . S
O230 Cd226 2.273 . S
O230 Cd228 2.411 . S
O230 C233 1.320 . S
O231 Cd228 2.333 . S
O231 C233 1.214 . S
O232 Cd228 2.352 . S
O232 C235 1.258 . S
C233 O230 1.320 . S
C233 O231 1.214 . S
O234 Cd226 2.277 . S
O234 C229 1.209 . S
C235 O232 1.258 . S
C235 O237 1.282 . S
O236 Cd228 2.277 . S
O236 C229 1.226 . S
O237 Cd228 2.356 . S
O237 C235 1.282 . S
C238 O239 1.306 . S
C238 O241 1.160 . S
O239 C238 1.306 . S
O239 Cd240 2.228 . S
Cd240 O239 2.228 . S
Cd240 O244 2.273 . S
Cd240 O248 2.277 . S
O241 C238 1.160 . S
O241 Cd242 2.203 . S
Cd242 O241 2.203 . S
Cd242 O244 2.411 . S
Cd242 O245 2.333 . S
Cd242 O246 2.352 . S
Cd242 O250 2.277 . S
Cd242 O251 2.356 . S
C243 O248 1.209 . S
C243 O250 1.226 . S
O244 Cd240 2.273 . S
O244 Cd242 2.411 . S
O244 C247 1.320 . S
O245 Cd242 2.333 . S
O245 C247 1.214 . S
O246 Cd242 2.352 . S
O246 C249 1.258 . S
C247 O244 1.320 . S
C247 O245 1.214 . S
O248 Cd240 2.277 . S
O248 C243 1.209 . S
C249 O246 1.258 . S
C249 O251 1.282 . S
O250 Cd242 2.277 . S
O250 C243 1.226 . S
O251 Cd242 2.356 . S
O251 C249 1.282 . S
C252 O253 1.306 . S
C252 O255 1.160 . S
O253 C252 1.306 . S
O253 Cd254 2.228 . S
Cd254 O253 2.228 . S
Cd254 O258 2.273 . S
Cd254 O262 2.277 . S
O255 C252 1.160 . S
O255 Cd256 2.203 . S
Cd256 O255 2.203 . S
Cd256 O258 2.411 . S
Cd256 O259 2.333 . S
Cd256 O260 2.352 . S
Cd256 O264 2.277 . S
Cd256 O265 2.356 . S
C257 O262 1.209 . S
C257 O264 1.226 . S
O258 Cd254 2.273 . S
O258 Cd256 2.411 . S
O258 C261 1.320 . S
O259 Cd256 2.333 . S
O259 C261 1.214 . S
O260 Cd256 2.352 . S
O260 C263 1.258 . S
C261 O258 1.320 . S
C261 O259 1.214 . S
O262 Cd254 2.277 . S
O262 C257 1.209 . S
C263 O260 1.258 . S
C263 O265 1.282 . S
O264 Cd256 2.277 . S
O264 C257 1.226 . S
O265 Cd256 2.356 . S
O265 C263 1.282 . S
C266 O267 1.306 . S
C266 O269 1.160 . S
O267 C266 1.306 . S
O267 Cd268 2.228 . S
Cd268 O267 2.228 . S
Cd268 O272 2.273 . S
Cd268 O276 2.277 . S
O269 C266 1.160 . S
O269 Cd270 2.203 . S
Cd270 O269 2.203 . S
Cd270 O272 2.411 . S
Cd270 O273 2.333 . S
Cd270 O274 2.352 . S
Cd270 O278 2.277 . S
Cd270 O279 2.356 . S
C271 O276 1.209 . S
C271 O278 1.226 . S
O272 Cd268 2.273 . S
O272 Cd270 2.411 . S
O272 C275 1.320 . S
O273 Cd270 2.333 . S
O273 C275 1.214 . S
O274 Cd270 2.352 . S
O274 C277 1.258 . S
C275 O272 1.320 . S
C275 O273 1.214 . S
O276 Cd268 2.277 . S
O276 C271 1.209 . S
C277 O274 1.258 . S
C277 O279 1.282 . S
O278 Cd270 2.277 . S
O278 C271 1.226 . S
O279 Cd270 2.356 . S
O279 C277 1.282 . S
C280 O281 1.306 . S
C280 O283 1.160 . S
O281 C280 1.306 . S
O281 Cd282 2.228 . S
Cd282 O281 2.228 . S
Cd282 O286 2.273 . S
Cd282 O290 2.277 . S
O283 C280 1.160 . S
O283 Cd284 2.203 . S
Cd284 O283 2.203 . S
Cd284 O286 2.411 . S
Cd284 O287 2.333 . S
Cd284 O288 2.352 . S
Cd284 O292 2.277 . S
Cd284 O293 2.356 . S
C285 O290 1.209 . S
C285 O292 1.226 . S
O286 Cd282 2.273 . S
O286 Cd284 2.411 . S
O286 C289 1.320 . S
O287 Cd284 2.333 . S
O287 C289 1.214 . S
O288 Cd284 2.352 . S
O288 C291 1.258 . S
C289 O286 1.320 . S
C289 O287 1.214 . S
O290 Cd282 2.277 . S
O290 C285 1.209 . S
C291 O288 1.258 . S
C291 O293 1.282 . S
O292 Cd284 2.277 . S
O292 C285 1.226 . S
O293 Cd284 2.356 . S
O293 C291 1.282 . S
C294 O295 1.306 . S
C294 O297 1.160 . S
O295 C294 1.306 . S
O295 Cd296 2.228 . S
Cd296 O295 2.228 . S
Cd296 O300 2.273 . S
Cd296 O304 2.277 . S
O297 C294 1.160 . S
O297 Cd298 2.203 . S
Cd298 O297 2.203 . S
Cd298 O300 2.411 . S
Cd298 O301 2.333 . S
Cd298 O302 2.352 . S
Cd298 O306 2.277 . S
Cd298 O307 2.356 . S
C299 O304 1.209 . S
C299 O306 1.226 . S
O300 Cd296 2.273 . S
O300 Cd298 2.411 . S
O300 C303 1.320 . S
O301 Cd298 2.333 . S
O301 C303 1.214 . S
O302 Cd298 2.352 . S
O302 C305 1.258 . S
C303 O300 1.320 . S
C303 O301 1.214 . S
O304 Cd296 2.277 . S
O304 C299 1.209 . S
C305 O302 1.258 . S
C305 O307 1.282 . S
O306 Cd298 2.277 . S
O306 C299 1.226 . S
O307 Cd298 2.356 . S
O307 C305 1.282 . S
C308 O309 1.306 . S
C308 O311 1.160 . S
O309 C308 1.306 . S
O309 Cd310 2.228 . S
Cd310 O309 2.228 . S
Cd310 O314 2.273 . S
Cd310 O318 2.277 . S
O311 C308 1.160 . S
O311 Cd312 2.203 . S
Cd312 O311 2.203 . S
Cd312 O314 2.411 . S
Cd312 O315 2.333 . S
Cd312 O316 2.352 . S
Cd312 O320 2.277 . S
Cd312 O321 2.356 . S
C313 O318 1.209 . S
C313 O320 1.226 . S
O314 Cd310 2.273 . S
O314 Cd312 2.411 . S
O314 C317 1.320 . S
O315 Cd312 2.333 . S
O315 C317 1.214 . S
O316 Cd312 2.352 . S
O316 C319 1.258 . S
C317 O314 1.320 . S
C317 O315 1.214 . S
O318 Cd310 2.277 . S
O318 C313 1.209 . S
C319 O316 1.258 . S
C319 O321 1.282 . S
O320 Cd312 2.277 . S
O320 C313 1.226 . S
O321 Cd312 2.356 . S
O321 C319 1.282 . S
C322 O323 1.306 . S
C322 O325 1.160 . S
O323 C322 1.306 . S
O323 Cd324 2.228 . S
Cd324 O323 2.228 . S
Cd324 O328 2.273 . S
Cd324 O332 2.277 . S
O325 C322 1.160 . S
O325 Cd326 2.203 . S
Cd326 O325 2.203 . S
Cd326 O328 2.411 . S
Cd326 O329 2.333 . S
Cd326 O330 2.352 . S
Cd326 O334 2.277 . S
Cd326 O335 2.356 . S
C327 O332 1.209 . S
C327 O334 1.226 . S
O328 Cd324 2.273 . S
O328 Cd326 2.411 . S
O328 C331 1.320 . S
O329 Cd326 2.333 . S
O329 C331 1.214 . S
O330 Cd326 2.352 . S
O330 C333 1.258 . S
C331 O328 1.320 . S
C331 O329 1.214 . S
O332 Cd324 2.277 . S
O332 C327 1.209 . S
C333 O330 1.258 . S
C333 O335 1.282 . S
O334 Cd326 2.277 . S
O334 C327 1.226 . S
O335 Cd326 2.356 . S
O335 C333 1.282 . S
C336 O337 1.306 . S
C336 O339 1.160 . S
O337 C336 1.306 . S
O337 Cd338 2.228 . S
Cd338 O337 2.228 . S
Cd338 O342 2.273 . S
Cd338 O346 2.277 . S
O339 C336 1.160 . S
O339 Cd340 2.203 . S
Cd340 O339 2.203 . S
Cd340 O342 2.411 . S
Cd340 O343 2.333 . S
Cd340 O344 2.352 . S
Cd340 O348 2.277 . S
Cd340 O349 2.356 . S
C341 O346 1.209 . S
C341 O348 1.226 . S
O342 Cd338 2.273 . S
O342 Cd340 2.411 . S
O342 C345 1.320 . S
O343 Cd340 2.333 . S
O343 C345 1.214 . S
O344 Cd340 2.352 . S
O344 C347 1.258 . S
C345 O342 1.320 . S
C345 O343 1.214 . S
O346 Cd338 2.277 . S
O346 C341 1.209 . S
C347 O344 1.258 . S
C347 O349 1.282 . S
O348 Cd340 2.277 . S
O348 C341 1.226 . S
O349 Cd340 2.356 . S
O349 C347 1.282 . S
C350 O351 1.306 . S
C350 O353 1.160 . S
O351 C350 1.306 . S
O351 Cd352 2.228 . S
Cd352 O351 2.228 . S
Cd352 O356 2.273 . S
Cd352 O360 2.277 . S
O353 C350 1.160 . S
O353 Cd354 2.203 . S
Cd354 O353 2.203 . S
Cd354 O356 2.411 . S
Cd354 O357 2.333 . S
Cd354 O358 2.352 . S
Cd354 O362 2.277 . S
Cd354 O363 2.356 . S
C355 O360 1.209 . S
C355 O362 1.226 . S
O356 Cd352 2.273 . S
O356 Cd354 2.411 . S
O356 C359 1.320 . S
O357 Cd354 2.333 . S
O357 C359 1.214 . S
O358 Cd354 2.352 . S
O358 C361 1.258 . S
C359 O356 1.320 . S
C359 O357 1.214 . S
O360 Cd352 2.277 . S
O360 C355 1.209 . S
C361 O358 1.258 . S
C361 O363 1.282 . S
O362 Cd354 2.277 . S
O362 C355 1.226 . S
O363 Cd354 2.356 . S
O363 C361 1.282 . S
C364 O365 1.306 . S
C364 O367 1.160 . S
O365 C364 1.306 . S
O365 Cd366 2.228 . S
Cd366 O365 2.228 . S
Cd366 O370 2.273 . S
Cd366 O374 2.277 . S
O367 C364 1.160 . S
O367 Cd368 2.203 . S
Cd368 O367 2.203 . S
Cd368 O370 2.411 . S
Cd368 O371 2.333 . S
Cd368 O372 2.352 . S
Cd368 O376 2.277 . S
Cd368 O377 2.356 . S
C369 O374 1.209 . S
C369 O376 1.226 . S
O370 Cd366 2.273 . S
O370 Cd368 2.411 . S
O370 C373 1.320 . S
O371 Cd368 2.333 . S
O371 C373 1.214 . S
O372 Cd368 2.352 . S
O372 C375 1.258 . S
C373 O370 1.320 . S
C373 O371 1.214 . S
O374 Cd366 2.277 . S
O374 C369 1.209 . S
C375 O372 1.258 . S
C375 O377 1.282 . S
O376 Cd368 2.277 . S
O376 C369 1.226 . S
O377 Cd368 2.356 . S
O377 C375 1.282 . S
C378 O379 1.306 . S
C378 O381 1.160 . S
O379 C378 1.306 . S
O379 Cd380 2.228 . S
Cd380 O379 2.228 . S
Cd380 O384 2.273 . S
Cd380 O388 2.277 . S
O381 C378 1.160 . S
O381 Cd382 2.203 . S
Cd382 O381 2.203 . S
Cd382 O384 2.411 . S
Cd382 O385 2.333 . S
Cd382 O386 2.352 . S
Cd382 O390 2.277 . S
Cd382 O391 2.356 . S
C383 O388 1.209 . S
C383 O390 1.226 . S
O384 Cd380 2.273 . S
O384 Cd382 2.411 . S
O384 C387 1.320 . S
O385 Cd382 2.333 . S
O385 C387 1.214 . S
O386 Cd382 2.352 . S
O386 C389 1.258 . S
C387 O384 1.320 . S
C387 O385 1.214 . S
O388 Cd380 2.277 . S
O388 C383 1.209 . S
C389 O386 1.258 . S
C389 O391 1.282 . S
O390 Cd382 2.277 . S
O390 C383 1.226 . S
O391 Cd382 2.356 . S
O391 C389 1.282 . S
C392 O393 1.306 . S
C392 O395 1.160 . S
O393 C392 1.306 . S
O393 Cd394 2.228 . S
Cd394 O393 2.228 . S
Cd394 O398 2.273 . S
Cd394 O402 2.277 . S
O395 C392 1.160 . S
O395 Cd396 2.203 . S
Cd396 O395 2.203 . S
Cd396 O398 2.411 . S
Cd396 O399 2.333 . S
Cd396 O400 2.352 . S
Cd396 O404 2.277 . S
Cd396 O405 2.356 . S
C397 O402 1.209 . S
C397 O404 1.226 . S
O398 Cd394 2.273 . S
O398 Cd396 2.411 . S
O398 C401 1.320 . S
O399 Cd396 2.333 . S
O399 C401 1.214 . S
O400 Cd396 2.352 . S
O400 C403 1.258 . S
C401 O398 1.320 . S
C401 O399 1.214 . S
O402 Cd394 2.277 . S
O402 C397 1.209 . S
C403 O400 1.258 . S
C403 O405 1.282 . S
O404 Cd396 2.277 . S
O404 C397 1.226 . S
O405 Cd396 2.356 . S
O405 C403 1.282 . S
C406 O407 1.306 . S
C406 O409 1.160 . S
O407 C406 1.306 . S
O407 Cd408 2.228 . S
Cd408 O407 2.228 . S
Cd408 O412 2.273 . S
Cd408 O416 2.277 . S
O409 C406 1.160 . S
O409 Cd410 2.203 . S
Cd410 O409 2.203 . S
Cd410 O412 2.411 . S
Cd410 O413 2.333 . S
Cd410 O414 2.352 . S
Cd410 O418 2.277 . S
Cd410 O419 2.356 . S
C411 O416 1.209 . S
C411 O418 1.226 . S
O412 Cd408 2.273 . S
O412 Cd410 2.411 . S
O412 C415 1.320 . S
O413 Cd410 2.333 . S
O413 C415 1.214 . S
O414 Cd410 2.352 . S
O414 C417 1.258 . S
C415 O412 1.320 . S
C415 O413 1.214 . S
O416 Cd408 2.277 . S
O416 C411 1.209 . S
C417 O414 1.258 . S
C417 O419 1.282 . S
O418 Cd410 2.277 . S
O418 C411 1.226 . S
O419 Cd410 2.356 . S
O419 C417 1.282 . S
C420 O421 1.306 . S
C420 O423 1.160 . S
O421 C420 1.306 . S
O421 Cd422 2.228 . S
Cd422 O421 2.228 . S
Cd422 O426 2.273 . S
Cd422 O430 2.277 . S
O423 C420 1.160 . S
O423 Cd424 2.203 . S
Cd424 O423 2.203 . S
Cd424 O426 2.411 . S
Cd424 O427 2.333 . S
Cd424 O428 2.352 . S
Cd424 O432 2.277 . S
Cd424 O433 2.356 . S
C425 O430 1.209 . S
C425 O432 1.226 . S
O426 Cd422 2.273 . S
O426 Cd424 2.411 . S
O426 C429 1.320 . S
O427 Cd424 2.333 . S
O427 C429 1.214 . S
O428 Cd424 2.352 . S
O428 C431 1.258 . S
C429 O426 1.320 . S
C429 O427 1.214 . S
O430 Cd422 2.277 . S
O430 C425 1.209 . S
C431 O428 1.258 . S
C431 O433 1.282 . S
O432 Cd424 2.277 . S
O432 C425 1.226 . S
O433 Cd424 2.356 . S
O433 C431 1.282 . S
C434 O435 1.306 . S
C434 O437 1.160 . S
O435 C434 1.306 . S
O435 Cd436 2.228 . S
Cd436 O435 2.228 . S
Cd436 O440 2.273 . S
Cd436 O444 2.277 . S
O437 C434 1.160 . S
O437 Cd438 2.203 . S
Cd438 O437 2.203 . S
Cd438 O440 2.411 . S
Cd438 O441 2.333 . S
Cd438 O442 2.352 . S
Cd438 O446 2.277 . S
Cd438 O447 2.356 . S
C439 O444 1.209 . S
C439 O446 1.226 . S
O440 Cd436 2.273 . S
O440 Cd438 2.411 . S
O440 C443 1.320 . S
O441 Cd438 2.333 . S
O441 C443 1.214 . S
O442 Cd438 2.352 . S
O442 C445 1.258 . S
C443 O440 1.320 . S
C443 O441 1.214 . S
O444 Cd436 2.277 . S
O444 C439 1.209 . S
C445 O442 1.258 . S
C445 O447 1.282 . S
O446 Cd438 2.277 . S
O446 C439 1.226 . S
O447 Cd438 2.356 . S
O447 C445 1.282 . S
C448 O449 1.306 . S
C448 O451 1.160 . S
O449 C448 1.306 . S
O449 Cd450 2.228 . S
Cd450 O449 2.228 . S
Cd450 O454 2.273 . S
Cd450 O458 2.277 . S
O451 C448 1.160 . S
O451 Cd452 2.203 . S
Cd452 O451 2.203 . S
Cd452 O454 2.411 . S
Cd452 O455 2.333 . S
Cd452 O456 2.352 . S
Cd452 O460 2.277 . S
Cd452 O461 2.356 . S
C453 O458 1.209 . S
C453 O460 1.226 . S
O454 Cd450 2.273 . S
O454 Cd452 2.411 . S
O454 C457 1.320 . S
O455 Cd452 2.333 . S
O455 C457 1.214 . S
O456 Cd452 2.352 . S
O456 C459 1.258 . S
C457 O454 1.320 . S
C457 O455 1.214 . S
O458 Cd450 2.277 . S
O458 C453 1.209 . S
C459 O456 1.258 . S
C459 O461 1.282 . S
O460 Cd452 2.277 . S
O460 C453 1.226 . S
O461 Cd452 2.356 . S
O461 C459 1.282 . S
C462 O463 1.306 . S
C462 O465 1.160 . S
O463 C462 1.306 . S
O463 Cd464 2.228 . S
Cd464 O463 2.228 . S
Cd464 O468 2.273 . S
Cd464 O472 2.277 . S
O465 C462 1.160 . S
O465 Cd466 2.203 . S
Cd466 O465 2.203 . S
Cd466 O468 2.411 . S
Cd466 O469 2.333 . S
Cd466 O470 2.352 . S
Cd466 O474 2.277 . S
Cd466 O475 2.356 . S
C467 O472 1.209 . S
C467 O474 1.226 . S
O468 Cd464 2.273 . S
O468 Cd466 2.411 . S
O468 C471 1.320 . S
O469 Cd466 2.333 . S
O469 C471 1.214 . S
O470 Cd466 2.352 . S
O470 C473 1.258 . S
C471 O468 1.320 . S
C471 O469 1.214 . S
O472 Cd464 2.277 . S
O472 C467 1.209 . S
C473 O470 1.258 . S
C473 O475 1.282 . S
O474 Cd466 2.277 . S
O474 C467 1.226 . S
O475 Cd466 2.356 . S
O475 C473 1.282 . S
C476 O477 1.306 . S
C476 O479 1.160 . S
O477 C476 1.306 . S
O477 Cd478 2.228 . S
Cd478 O477 2.228 . S
Cd478 O482 2.273 . S
Cd478 O486 2.277 . S
O479 C476 1.160 . S
O479 Cd480 2.203 . S
Cd480 O479 2.203 . S
Cd480 O482 2.411 . S
Cd480 O483 2.333 . S
Cd480 O484 2.352 . S
Cd480 O488 2.277 . S
Cd480 O489 2.356 . S
C481 O486 1.209 . S
C481 O488 1.226 . S
O482 Cd478 2.273 . S
O482 Cd480 2.411 . S
O482 C485 1.320 . S
O483 Cd480 2.333 . S
O483 C485 1.214 . S
O484 Cd480 2.352 . S
O484 C487 1.258 . S
C485 O482 1.320 . S
C485 O483 1.214 . S
O486 Cd478 2.277 . S
O486 C481 1.209 . S
C487 O484 1.258 . S
C487 O489 1.282 . S
O488 Cd480 2.277 . S
O488 C481 1.226 . S
O489 Cd480 2.356 . S
O489 C487 1.282 . S
C490 O491 1.306 . S
C490 O493 1.160 . S
O491 C490 1.306 . S
O491 Cd492 2.228 . S
Cd492 O491 2.228 . S
Cd492 O496 2.273 . S
Cd492 O500 2.277 . S
O493 C490 1.160 . S
O493 Cd494 2.203 . S
Cd494 O493 2.203 . S
Cd494 O496 2.411 . S
Cd494 O497 2.333 . S
Cd494 O498 2.352 . S
Cd494 O502 2.277 . S
Cd494 O503 2.356 . S
C495 O500 1.209 . S
C495 O502 1.226 . S
O496 Cd492 2.273 . S
O496 Cd494 2.411 . S
O496 C499 1.320 . S
O497 Cd494 2.333 . S
O497 C499 1.214 . S
O498 Cd494 2.352 . S
O498 C501 1.258 . S
C499 O496 1.320 . S
C499 O497 1.214 . S
O500 Cd492 2.277 . S
O500 C495 1.209 . S
C501 O498 1.258 . S
C501 O503 1.282 . S
O502 Cd494 2.277 . S
O502 C495 1.226 . S
O503 Cd494 2.356 . S
O503 C501 1.282 . S
C504 O505 1.306 . S
C504 O507 1.160 . S
O505 C504 1.306 . S
O505 Cd506 2.228 . S
Cd506 O505 2.228 . S
Cd506 O510 2.273 . S
Cd506 O514 2.277 . S
O507 C504 1.160 . S
O507 Cd508 2.203 . S
Cd508 O507 2.203 . S
Cd508 O510 2.411 . S
Cd508 O511 2.333 . S
Cd508 O512 2.352 . S
Cd508 O516 2.277 . S
Cd508 O517 2.356 . S
C509 O514 1.209 . S
C509 O516 1.226 . S
O510 Cd506 2.273 . S
O510 Cd508 2.411 . S
O510 C513 1.320 . S
O511 Cd508 2.333 . S
O511 C513 1.214 . S
O512 Cd508 2.352 . S
O512 C515 1.258 . S
C513 O510 1.320 . S
C513 O511 1.214 . S
O514 Cd506 2.277 . S
O514 C509 1.209 . S
C515 O512 1.258 . S
C515 O517 1.282 . S
O516 Cd508 2.277 . S
O516 C509 1.226 . S
O517 Cd508 2.356 . S
O517 C515 1.282 . S
C518 O519 1.306 . S
C518 O521 1.160 . S
O519 C518 1.306 . S
O519 Cd520 2.228 . S
Cd520 O519 2.228 . S
Cd520 O524 2.273 . S
Cd520 O528 2.277 . S
O521 C518 1.160 . S
O521 Cd522 2.203 . S
Cd522 O521 2.203 . S
Cd522 O524 2.411 . S
Cd522 O525 2.333 . S
Cd522 O526 2.352 . S
Cd522 O530 2.277 . S
Cd522 O531 2.356 . S
C523 O528 1.209 . S
C523 O530 1.226 . S
O524 Cd520 2.273 . S
O524 Cd522 2.411 . S
O524 C527 1.320 . S
O525 Cd522 2.333 . S
O525 C527 1.214 . S
O526 Cd522 2.352 . S
O526 C529 1.258 . S
C527 O524 1.320 . S
C527 O525 1.214 . S
O528 Cd520 2.277 . S
O528 C523 1.209 . S
C529 O526 1.258 . S
C529 O531 1.282 . S
O530 Cd522 2.277 . S
O530 C523 1.226 . S
O531 Cd522 2.356 . S
O531 C529 1.282 . S
C532 O533 1.306 . S
C532 O535 1.160 . S
O533 C532 1.306 . S
O533 Cd534 2.228 . S
Cd534 O533 2.228 . S
Cd534 O538 2.273 . S
Cd534 O542 2.277 . S
O535 C532 1.160 . S
O535 Cd536 2.203 . S
Cd536 O535 2.203 . S
Cd536 O538 2.411 . S
Cd536 O539 2.333 . S
Cd536 O540 2.352 . S
Cd536 O544 2.277 . S
Cd536 O545 2.356 . S
C537 O542 1.209 . S
C537 O544 1.226 . S
O538 Cd534 2.273 . S
O538 Cd536 2.411 . S
O538 C541 1.320 . S
O539 Cd536 2.333 . S
O539 C541 1.214 . S
O540 Cd536 2.352 . S
O540 C543 1.258 . S
C541 O538 1.320 . S
C541 O539 1.214 . S
O542 Cd534 2.277 . S
O542 C537 1.209 . S
C543 O540 1.258 . S
C543 O545 1.282 . S
O544 Cd536 2.277 . S
O544 C537 1.226 . S
O545 Cd536 2.356 . S
O545 C543 1.282 . S
C546 O547 1.306 . S
C546 O549 1.160 . S
O547 C546 1.306 . S
O547 Cd548 2.228 . S
Cd548 O547 2.228 . S
Cd548 O552 2.273 . S
Cd548 O556 2.277 . S
O549 C546 1.160 . S
O549 Cd550 2.203 . S
Cd550 O549 2.203 . S
Cd550 O552 2.411 . S
Cd550 O553 2.333 . S
Cd550 O554 2.352 . S
Cd550 O558 2.277 . S
Cd550 O559 2.356 . S
C551 O556 1.209 . S
C551 O558 1.226 . S
O552 Cd548 2.273 . S
O552 Cd550 2.411 . S
O552 C555 1.320 . S
O553 Cd550 2.333 . S
O553 C555 1.214 . S
O554 Cd550 2.352 . S
O554 C557 1.258 . S
C555 O552 1.320 . S
C555 O553 1.214 . S
O556 Cd548 2.277 . S
O556 C551 1.209 . S
C557 O554 1.258 . S
C557 O559 1.282 . S
O558 Cd550 2.277 . S
O558 C551 1.226 . S
O559 Cd550 2.356 . S
O559 C557 1.282 . S
C560 O561 1.306 . S
C560 O563 1.160 . S
O561 C560 1.306 . S
O561 Cd562 2.228 . S
Cd562 O561 2.228 . S
Cd562 O566 2.273 . S
Cd562 O570 2.277 . S
O563 C560 1.160 . S
O563 Cd564 2.203 . S
Cd564 O563 2.203 . S
Cd564 O566 2.411 . S
Cd564 O567 2.333 . S
Cd564 O568 2.352 . S
Cd564 O572 2.277 . S
Cd564 O573 2.356 . S
C565 O570 1.209 . S
C565 O572 1.226 . S
O566 Cd562 2.273 . S
O566 Cd564 2.411 . S
O566 C569 1.320 . S
O567 Cd564 2.333 . S
O567 C569 1.214 . S
O568 Cd564 2.352 . S
O568 C571 1.258 . S
C569 O566 1.320 . S
C569 O567 1.214 . S
O570 Cd562 2.277 . S
O570 C565 1.209 . S
C571 O568 1.258 . S
C571 O573 1.282 . S
O572 Cd564 2.277 . S
O572 C565 1.226 . S
O573 Cd564 2.356 . S
O573 C571 1.282 . S
C574 O575 1.306 . S
C574 O577 1.160 . S
O575 C574 1.306 . S
O575 Cd576 2.228 . S
Cd576 O575 2.228 . S
Cd576 O580 2.273 . S
Cd576 O584 2.277 . S
O577 C574 1.160 . S
O577 Cd578 2.203 . S
Cd578 O577 2.203 . S
Cd578 O580 2.411 . S
Cd578 O581 2.333 . S
Cd578 O582 2.352 . S
Cd578 O586 2.277 . S
Cd578 O587 2.356 . S
C579 O584 1.209 . S
C579 O586 1.226 . S
O580 Cd576 2.273 . S
O580 Cd578 2.411 . S
O580 C583 1.320 . S
O581 Cd578 2.333 . S
O581 C583 1.214 . S
O582 Cd578 2.352 . S
O582 C585 1.258 . S
C583 O580 1.320 . S
C583 O581 1.214 . S
O584 Cd576 2.277 . S
O584 C579 1.209 . S
C585 O582 1.258 . S
C585 O587 1.282 . S
O586 Cd578 2.277 . S
O586 C579 1.226 . S
O587 Cd578 2.356 . S
O587 C585 1.282 . S
C588 O589 1.306 . S
C588 O591 1.160 . S
O589 C588 1.306 . S
O589 Cd590 2.228 . S
Cd590 O589 2.228 . S
Cd590 O594 2.273 . S
Cd590 O598 2.277 . S
O591 C588 1.160 . S
O591 Cd592 2.203 . S
Cd592 O591 2.203 . S
Cd592 O594 2.411 . S
Cd592 O595 2.333 . S
Cd592 O596 2.352 . S
Cd592 O600 2.277 . S
Cd592 O601 2.356 . S
C593 O598 1.209 . S
C593 O600 1.226 . S
O594 Cd590 2.273 . S
O594 Cd592 2.411 . S
O594 C597 1.320 . S
O595 Cd592 2.333 . S
O595 C597 1.214 . S
O596 Cd592 2.352 . S
O596 C599 1.258 . S
C597 O594 1.320 . S
C597 O595 1.214 . S
O598 Cd590 2.277 . S
O598 C593 1.209 . S
C599 O596 1.258 . S
C599 O601 1.282 . S
O600 Cd592 2.277 . S
O600 C593 1.226 . S
O601 Cd592 2.356 . S
O601 C599 1.282 . S
C602 O603 1.306 . S
C602 O605 1.160 . S
O603 C602 1.306 . S
O603 Cd604 2.228 . S
Cd604 O603 2.228 . S
Cd604 O608 2.273 . S
Cd604 O612 2.277 . S
O605 C602 1.160 . S
O605 Cd606 2.203 . S
Cd606 O605 2.203 . S
Cd606 O608 2.411 . S
Cd606 O609 2.333 . S
Cd606 O610 2.352 . S
Cd606 O614 2.277 . S
Cd606 O615 2.356 . S
C607 O612 1.209 . S
C607 O614 1.226 . S
O608 Cd604 2.273 . S
O608 Cd606 2.411 . S
O608 C611 1.320 . S
O609 Cd606 2.333 . S
O609 C611 1.214 . S
O610 Cd606 2.352 . S
O610 C613 1.258 . S
C611 O608 1.320 . S
C611 O609 1.214 . S
O612 Cd604 2.277 . S
O612 C607 1.209 . S
C613 O610 1.258 . S
C613 O615 1.282 . S
O614 Cd606 2.277 . S
O614 C607 1.226 . S
O615 Cd606 2.356 . S
O615 C613 1.282 . S
C616 O617 1.306 . S
C616 O619 1.160 . S
O617 C616 1.306 . S
O617 Cd618 2.228 . S
Cd618 O617 2.228 . S
Cd618 O622 2.273 . S
Cd618 O626 2.277 . S
O619 C616 1.160 . S
O619 Cd620 2.203 . S
Cd620 O619 2.203 . S
Cd620 O622 2.411 . S
Cd620 O623 2.333 . S
Cd620 O624 2.352 . S
Cd620 O628 2.277 . S
Cd620 O629 2.356 . S
C621 O626 1.209 . S
C621 O628 1.226 . S
O622 Cd618 2.273 . S
O622 Cd620 2.411 . S
O622 C625 1.320 . S
O623 Cd620 2.333 . S
O623 C625 1.214 . S
O624 Cd620 2.352 . S
O624 C627 1.258 . S
C625 O622 1.320 . S
C625 O623 1.214 . S
O626 Cd618 2.277 . S
O626 C621 1.209 . S
C627 O624 1.258 . S
C627 O629 1.282 . S
O628 Cd620 2.277 . S
O628 C621 1.226 . S
O629 Cd620 2.356 . S
O629 C627 1.282 . S
C630 O631 1.306 . S
C630 O633 1.160 . S
O631 C630 1.306 . S
O631 Cd632 2.228 . S
Cd632 O631 2.228 . S
Cd632 O636 2.273 . S
Cd632 O640 2.277 . S
O633 C630 1.160 . S
O633 Cd634 2.203 . S
Cd634 O633 2.203 . S
Cd634 O636 2.411 . S
Cd634 O637 2.333 . S
Cd634 O638 2.352 . S
Cd634 O642 2.277 . S
Cd634 O643 2.356 . S
C635 O640 1.209 . S
C635 O642 1.226 . S
O636 Cd632 2.273 . S
O636 Cd634 2.411 . S
O636 C639 1.320 . S
O637 Cd634 2.333 . S
O637 C639 1.214 . S
O638 Cd634 2.352 . S
O638 C641 1.258 . S
C639 O636 1.320 . S
C639 O637 1.214 . S
O640 Cd632 2.277 . S
O640 C635 1.209 . S
C641 O638 1.258 . S
C641 O643 1.282 . S
O642 Cd634 2.277 . S
O642 C635 1.226 . S
O643 Cd634 2.356 . S
O643 C641 1.282 . S
C644 O645 1.306 . S
C644 O647 1.160 . S
O645 C644 1.306 . S
O645 Cd646 2.228 . S
Cd646 O645 2.228 . S
Cd646 O650 2.273 . S
Cd646 O654 2.277 . S
O647 C644 1.160 . S
O647 Cd648 2.203 . S
Cd648 O647 2.203 . S
Cd648 O650 2.411 . S
Cd648 O651 2.333 . S
Cd648 O652 2.352 . S
Cd648 O656 2.277 . S
Cd648 O657 2.356 . S
C649 O654 1.209 . S
C649 O656 1.226 . S
O650 Cd646 2.273 . S
O650 Cd648 2.411 . S
O650 C653 1.320 . S
O651 Cd648 2.333 . S
O651 C653 1.214 . S
O652 Cd648 2.352 . S
O652 C655 1.258 . S
C653 O650 1.320 . S
C653 O651 1.214 . S
O654 Cd646 2.277 . S
O654 C649 1.209 . S
C655 O652 1.258 . S
C655 O657 1.282 . S
O656 Cd648 2.277 . S
O656 C649 1.226 . S
O657 Cd648 2.356 . S
O657 C655 1.282 . S
C658 O659 1.306 . S
C658 O661 1.160 . S
O659 C658 1.306 . S
O659 Cd660 2.228 . S
Cd660 O659 2.228 . S
Cd660 O664 2.273 . S
Cd660 O668 2.277 . S
O661 C658 1.160 . S
O661 Cd662 2.203 . S
Cd662 O661 2.203 . S
Cd662 O664 2.411 . S
Cd662 O665 2.333 . S
Cd662 O666 2.352 . S
Cd662 O670 2.277 . S
Cd662 O671 2.356 . S
C663 O668 1.209 . S
C663 O670 1.226 . S
O664 Cd660 2.273 . S
O664 Cd662 2.411 . S
O664 C667 1.320 . S
O665 Cd662 2.333 . S
O665 C667 1.214 . S
O666 Cd662 2.352 . S
O666 C669 1.258 . S
C667 O664 1.320 . S
C667 O665 1.214 . S
O668 Cd660 2.277 . S
O668 C663 1.209 . S
C669 O666 1.258 . S
C669 O671 1.282 . S
O670 Cd662 2.277 . S
O670 C663 1.226 . S
O671 Cd662 2.356 . S
O671 C669 1.282 . S
C672 C673 1.387 . S
C672 H676 0.950 . S
C672 C681 1.390 . S
C673 C672 1.387 . S
C673 C675 1.387 . S
H674 C681 0.950 . S
C675 C673 1.387 . S
C675 C677 1.390 . S
C675 H679 0.950 . S
H676 C672 0.950 . S
C677 C675 1.390 . S
C677 C678 1.387 . S
C677 H680 0.950 . S
C678 C677 1.387 . S
C678 C681 1.387 . S
H679 C675 0.950 . S
H680 C677 0.950 . S
C681 C672 1.390 . S
C681 H674 0.950 . S
C681 C678 1.387 . S
C682 C683 1.387 . S
C682 H686 0.950 . S
C682 C691 1.390 . S
C683 C682 1.387 . S
C683 C685 1.387 . S
H684 C691 0.950 . S
C685 C683 1.387 . S
C685 C687 1.390 . S
C685 H689 0.950 . S
H686 C682 0.950 . S
C687 C685 1.390 . S
C687 C688 1.387 . S
C687 H690 0.950 . S
C688 C687 1.387 . S
C688 C691 1.387 . S
H689 C685 0.950 . S
H690 C687 0.950 . S
C691 C682 1.390 . S
C691 H684 0.950 . S
C691 C688 1.387 . S
C692 C693 1.387 . S
C692 H696 0.950 . S
C692 C701 1.390 . S
C693 C692 1.387 . S
C693 C695 1.387 . S
H694 C701 0.950 . S
C695 C693 1.387 . S
C695 C697 1.390 . S
C695 H699 0.950 . S
H696 C692 0.950 . S
C697 C695 1.390 . S
C697 C698 1.387 . S
C697 H700 0.950 . S
C698 C697 1.387 . S
C698 C701 1.387 . S
H699 C695 0.950 . S
H700 C697 0.950 . S
C701 C692 1.390 . S
C701 H694 0.950 . S
C701 C698 1.387 . S
C702 C703 1.387 . S
C702 H706 0.950 . S
C702 C711 1.390 . S
C703 C702 1.387 . S
C703 C705 1.387 . S
H704 C711 0.950 . S
C705 C703 1.387 . S
C705 C707 1.390 . S
C705 H709 0.950 . S
H706 C702 0.950 . S
C707 C705 1.390 . S
C707 C708 1.387 . S
C707 H710 0.950 . S
C708 C707 1.387 . S
C708 C711 1.387 . S
H709 C705 0.950 . S
H710 C707 0.950 . S
C711 C702 1.390 . S
C711 H704 0.950 . S
C711 C708 1.387 . S
C712 C713 1.387 . S
C712 H716 0.950 . S
C712 C721 1.390 . S
C713 C712 1.387 . S
C713 C715 1.387 . S
H714 C721 0.950 . S
C715 C713 1.387 . S
C715 C717 1.390 . S
C715 H719 0.950 . S
H716 C712 0.950 . S
C717 C715 1.390 . S
C717 C718 1.387 . S
C717 H720 0.950 . S
C718 C717 1.387 . S
C718 C721 1.387 . S
H719 C715 0.950 . S
H720 C717 0.950 . S
C721 C712 1.390 . S
C721 H714 0.950 . S
C721 C718 1.387 . S
C722 C723 1.387 . S
C722 H726 0.950 . S
C722 C731 1.390 . S
C723 C722 1.387 . S
C723 C725 1.387 . S
H724 C731 0.950 . S
C725 C723 1.387 . S
C725 C727 1.390 . S
C725 H729 0.950 . S
H726 C722 0.950 . S
C727 C725 1.390 . S
C727 C728 1.387 . S
C727 H730 0.950 . S
C728 C727 1.387 . S
C728 C731 1.387 . S
H729 C725 0.950 . S
H730 C727 0.950 . S
C731 C722 1.390 . S
C731 H724 0.950 . S
C731 C728 1.387 . S
C732 C733 1.387 . S
C732 H736 0.950 . S
C732 C741 1.390 . S
C733 C732 1.387 . S
C733 C735 1.387 . S
H734 C741 0.950 . S
C735 C733 1.387 . S
C735 C737 1.390 . S
C735 H739 0.950 . S
H736 C732 0.950 . S
C737 C735 1.390 . S
C737 C738 1.387 . S
C737 H740 0.950 . S
C738 C737 1.387 . S
C738 C741 1.387 . S
H739 C735 0.950 . S
H740 C737 0.950 . S
C741 C732 1.390 . S
C741 H734 0.950 . S
C741 C738 1.387 . S
C742 C743 1.387 . S
C742 H746 0.950 . S
C742 C751 1.390 . S
C743 C742 1.387 . S
C743 C745 1.387 . S
H744 C751 0.950 . S
C745 C743 1.387 . S
C745 C747 1.390 . S
C745 H749 0.950 . S
H746 C742 0.950 . S
C747 C745 1.390 . S
C747 C748 1.387 . S
C747 H750 0.950 . S
C748 C747 1.387 . S
C748 C751 1.387 . S
H749 C745 0.950 . S
H750 C747 0.950 . S
C751 C742 1.390 . S
C751 H744 0.950 . S
C751 C748 1.387 . S
C752 C753 1.387 . S
C752 H756 0.950 . S
C752 C761 1.390 . S
C753 C752 1.387 . S
C753 C755 1.387 . S
H754 C761 0.950 . S
C755 C753 1.387 . S
C755 C757 1.390 . S
C755 H759 0.950 . S
H756 C752 0.950 . S
C757 C755 1.390 . S
C757 C758 1.387 . S
C757 H760 0.950 . S
C758 C757 1.387 . S
C758 C761 1.387 . S
H759 C755 0.950 . S
H760 C757 0.950 . S
C761 C752 1.390 . S
C761 H754 0.950 . S
C761 C758 1.387 . S
C762 C763 1.387 . S
C762 H766 0.950 . S
C762 C771 1.390 . S
C763 C762 1.387 . S
C763 C765 1.387 . S
H764 C771 0.950 . S
C765 C763 1.387 . S
C765 C767 1.390 . S
C765 H769 0.950 . S
H766 C762 0.950 . S
C767 C765 1.390 . S
C767 C768 1.387 . S
C767 H770 0.950 . S
C768 C767 1.387 . S
C768 C771 1.387 . S
H769 C765 0.950 . S
H770 C767 0.950 . S
C771 C762 1.390 . S
C771 H764 0.950 . S
C771 C768 1.387 . S
C772 C773 1.387 . S
C772 H776 0.950 . S
C772 C781 1.390 . S
C773 C772 1.387 . S
C773 C775 1.387 . S
H774 C781 0.950 . S
C775 C773 1.387 . S
C775 C777 1.390 . S
C775 H779 0.950 . S
H776 C772 0.950 . S
C777 C775 1.390 . S
C777 C778 1.387 . S
C777 H780 0.950 . S
C778 C777 1.387 . S
C778 C781 1.387 . S
H779 C775 0.950 . S
H780 C777 0.950 . S
C781 C772 1.390 . S
C781 H774 0.950 . S
C781 C778 1.387 . S
C782 C783 1.387 . S
C782 H786 0.950 . S
C782 C791 1.390 . S
C783 C782 1.387 . S
C783 C785 1.387 . S
H784 C791 0.950 . S
C785 C783 1.387 . S
C785 C787 1.390 . S
C785 H789 0.950 . S
H786 C782 0.950 . S
C787 C785 1.390 . S
C787 C788 1.387 . S
C787 H790 0.950 . S
C788 C787 1.387 . S
C788 C791 1.387 . S
H789 C785 0.950 . S
H790 C787 0.950 . S
C791 C782 1.390 . S
C791 H784 0.950 . S
C791 C788 1.387 . S
C792 C793 1.387 . S
C792 H796 0.950 . S
C792 C801 1.390 . S
C793 C792 1.387 . S
C793 C795 1.387 . S
H794 C801 0.950 . S
C795 C793 1.387 . S
C795 C797 1.390 . S
C795 H799 0.950 . S
H796 C792 0.950 . S
C797 C795 1.390 . S
C797 C798 1.387 . S
C797 H800 0.950 . S
C798 C797 1.387 . S
C798 C801 1.387 . S
H799 C795 0.950 . S
H800 C797 0.950 . S
C801 C792 1.390 . S
C801 H794 0.950 . S
C801 C798 1.387 . S
C802 C803 1.387 . S
C802 H806 0.950 . S
C802 C811 1.390 . S
C803 C802 1.387 . S
C803 C805 1.387 . S
H804 C811 0.950 . S
C805 C803 1.387 . S
C805 C807 1.390 . S
C805 H809 0.950 . S
H806 C802 0.950 . S
C807 C805 1.390 . S
C807 C808 1.387 . S
C807 H810 0.950 . S
C808 C807 1.387 . S
C808 C811 1.387 . S
H809 C805 0.950 . S
H810 C807 0.950 . S
C811 C802 1.390 . S
C811 H804 0.950 . S
C811 C808 1.387 . S
C812 C813 1.387 . S
C812 H816 0.950 . S
C812 C821 1.390 . S
C813 C812 1.387 . S
C813 C815 1.387 . S
H814 C821 0.950 . S
C815 C813 1.387 . S
C815 C817 1.390 . S
C815 H819 0.950 . S
H816 C812 0.950 . S
C817 C815 1.390 . S
C817 C818 1.387 . S
C817 H820 0.950 . S
C818 C817 1.387 . S
C818 C821 1.387 . S
H819 C815 0.950 . S
H820 C817 0.950 . S
C821 C812 1.390 . S
C821 H814 0.950 . S
C821 C818 1.387 . S
C822 C823 1.387 . S
C822 H826 0.950 . S
C822 C831 1.390 . S
C823 C822 1.387 . S
C823 C825 1.387 . S
H824 C831 0.950 . S
C825 C823 1.387 . S
C825 C827 1.390 . S
C825 H829 0.950 . S
H826 C822 0.950 . S
C827 C825 1.390 . S
C827 C828 1.387 . S
C827 H830 0.950 . S
C828 C827 1.387 . S
C828 C831 1.387 . S
H829 C825 0.950 . S
H830 C827 0.950 . S
C831 C822 1.390 . S
C831 H824 0.950 . S
C831 C828 1.387 . S
C832 C833 1.387 . S
C832 H836 0.950 . S
C832 C841 1.390 . S
C833 C832 1.387 . S
C833 C835 1.387 . S
H834 C841 0.950 . S
C835 C833 1.387 . S
C835 C837 1.390 . S
C835 H839 0.950 . S
H836 C832 0.950 . S
C837 C835 1.390 . S
C837 C838 1.387 . S
C837 H840 0.950 . S
C838 C837 1.387 . S
C838 C841 1.387 . S
H839 C835 0.950 . S
H840 C837 0.950 . S
C841 C832 1.390 . S
C841 H834 0.950 . S
C841 C838 1.387 . S
C842 C843 1.387 . S
C842 H846 0.950 . S
C842 C851 1.390 . S
C843 C842 1.387 . S
C843 C845 1.387 . S
H844 C851 0.950 . S
C845 C843 1.387 . S
C845 C847 1.390 . S
C845 H849 0.950 . S
H846 C842 0.950 . S
C847 C845 1.390 . S
C847 C848 1.387 . S
C847 H850 0.950 . S
C848 C847 1.387 . S
C848 C851 1.387 . S
H849 C845 0.950 . S
H850 C847 0.950 . S
C851 C842 1.390 . S
C851 H844 0.950 . S
C851 C848 1.387 . S
C852 C853 1.387 . S
C852 H856 0.950 . S
C852 C861 1.390 . S
C853 C852 1.387 . S
C853 C855 1.387 . S
H854 C861 0.950 . S
C855 C853 1.387 . S
C855 C857 1.390 . S
C855 H859 0.950 . S
H856 C852 0.950 . S
C857 C855 1.390 . S
C857 C858 1.387 . S
C857 H860 0.950 . S
C858 C857 1.387 . S
C858 C861 1.387 . S
H859 C855 0.950 . S
H860 C857 0.950 . S
C861 C852 1.390 . S
C861 H854 0.950 . S
C861 C858 1.387 . S
C862 C863 1.387 . S
C862 H866 0.950 . S
C862 C871 1.390 . S
C863 C862 1.387 . S
C863 C865 1.387 . S
H864 C871 0.950 . S
C865 C863 1.387 . S
C865 C867 1.390 . S
C865 H869 0.950 . S
H866 C862 0.950 . S
C867 C865 1.390 . S
C867 C868 1.387 . S
C867 H870 0.950 . S
C868 C867 1.387 . S
C868 C871 1.387 . S
H869 C865 0.950 . S
H870 C867 0.950 . S
C871 C862 1.390 . S
C871 H864 0.950 . S
C871 C868 1.387 . S
C872 C873 1.387 . S
C872 H876 0.950 . S
C872 C881 1.390 . S
C873 C872 1.387 . S
C873 C875 1.387 . S
H874 C881 0.950 . S
C875 C873 1.387 . S
C875 C877 1.390 . S
C875 H879 0.950 . S
H876 C872 0.950 . S
C877 C875 1.390 . S
C877 C878 1.387 . S
C877 H880 0.950 . S
C878 C877 1.387 . S
C878 C881 1.387 . S
H879 C875 0.950 . S
H880 C877 0.950 . S
C881 C872 1.390 . S
C881 H874 0.950 . S
C881 C878 1.387 . S
C882 C883 1.387 . S
C882 H886 0.950 . S
C882 C891 1.390 . S
C883 C882 1.387 . S
C883 C885 1.387 . S
H884 C891 0.950 . S
C885 C883 1.387 . S
C885 C887 1.390 . S
C885 H889 0.950 . S
H886 C882 0.950 . S
C887 C885 1.390 . S
C887 C888 1.387 . S
C887 H890 0.950 . S
C888 C887 1.387 . S
C888 C891 1.387 . S
H889 C885 0.950 . S
H890 C887 0.950 . S
C891 C882 1.390 . S
C891 H884 0.950 . S
C891 C888 1.387 . S
C892 C893 1.387 . S
C892 H896 0.950 . S
C892 C901 1.390 . S
C893 C892 1.387 . S
C893 C895 1.387 . S
H894 C901 0.950 . S
C895 C893 1.387 . S
C895 C897 1.390 . S
C895 H899 0.950 . S
H896 C892 0.950 . S
C897 C895 1.390 . S
C897 C898 1.387 . S
C897 H900 0.950 . S
C898 C897 1.387 . S
C898 C901 1.387 . S
H899 C895 0.950 . S
H900 C897 0.950 . S
C901 C892 1.390 . S
C901 H894 0.950 . S
C901 C898 1.387 . S
C902 C903 1.387 . S
C902 H906 0.950 . S
C902 C911 1.390 . S
C903 C902 1.387 . S
C903 C905 1.387 . S
H904 C911 0.950 . S
C905 C903 1.387 . S
C905 C907 1.390 . S
C905 H909 0.950 . S
H906 C902 0.950 . S
C907 C905 1.390 . S
C907 C908 1.387 . S
C907 H910 0.950 . S
C908 C907 1.387 . S
C908 C911 1.387 . S
H909 C905 0.950 . S
H910 C907 0.950 . S
C911 C902 1.390 . S
C911 H904 0.950 . S
C911 C908 1.387 . S
C912 C913 1.387 . S
C912 H916 0.950 . S
C912 C921 1.390 . S
C913 C912 1.387 . S
C913 C915 1.387 . S
H914 C921 0.950 . S
C915 C913 1.387 . S
C915 C917 1.390 . S
C915 H919 0.950 . S
H916 C912 0.950 . S
C917 C915 1.390 . S
C917 C918 1.387 . S
C917 H920 0.950 . S
C918 C917 1.387 . S
C918 C921 1.387 . S
H919 C915 0.950 . S
H920 C917 0.950 . S
C921 C912 1.390 . S
C921 H914 0.950 . S
C921 C918 1.387 . S
C922 C923 1.387 . S
C922 H926 0.950 . S
C922 C931 1.390 . S
C923 C922 1.387 . S
C923 C925 1.387 . S
H924 C931 0.950 . S
C925 C923 1.387 . S
C925 C927 1.390 . S
C925 H929 0.950 . S
H926 C922 0.950 . S
C927 C925 1.390 . S
C927 C928 1.387 . S
C927 H930 0.950 . S
C928 C927 1.387 . S
C928 C931 1.387 . S
H929 C925 0.950 . S
H930 C927 0.950 . S
C931 C922 1.390 . S
C931 H924 0.950 . S
C931 C928 1.387 . S
C932 C933 1.387 . S
C932 H936 0.950 . S
C932 C941 1.390 . S
C933 C932 1.387 . S
C933 C935 1.387 . S
H934 C941 0.950 . S
C935 C933 1.387 . S
C935 C937 1.390 . S
C935 H939 0.950 . S
H936 C932 0.950 . S
C937 C935 1.390 . S
C937 C938 1.387 . S
C937 H940 0.950 . S
C938 C937 1.387 . S
C938 C941 1.387 . S
H939 C935 0.950 . S
H940 C937 0.950 . S
C941 C932 1.390 . S
C941 H934 0.950 . S
C941 C938 1.387 . S
C942 C943 1.387 . S
C942 H946 0.950 . S
C942 C951 1.390 . S
C943 C942 1.387 . S
C943 C945 1.387 . S
H944 C951 0.950 . S
C945 C943 1.387 . S
C945 C947 1.390 . S
C945 H949 0.950 . S
H946 C942 0.950 . S
C947 C945 1.390 . S
C947 C948 1.387 . S
C947 H950 0.950 . S
C948 C947 1.387 . S
C948 C951 1.387 . S
H949 C945 0.950 . S
H950 C947 0.950 . S
C951 C942 1.390 . S
C951 H944 0.950 . S
C951 C948 1.387 . S
C952 C953 1.387 . S
C952 H956 0.950 . S
C952 C961 1.390 . S
C953 C952 1.387 . S
C953 C955 1.387 . S
H954 C961 0.950 . S
C955 C953 1.387 . S
C955 C957 1.390 . S
C955 H959 0.950 . S
H956 C952 0.950 . S
C957 C955 1.390 . S
C957 C958 1.387 . S
C957 H960 0.950 . S
C958 C957 1.387 . S
C958 C961 1.387 . S
H959 C955 0.950 . S
H960 C957 0.950 . S
C961 C952 1.390 . S
C961 H954 0.950 . S
C961 C958 1.387 . S
C962 C963 1.387 . S
C962 H966 0.950 . S
C962 C971 1.390 . S
C963 C962 1.387 . S
C963 C965 1.387 . S
H964 C971 0.950 . S
C965 C963 1.387 . S
C965 C967 1.390 . S
C965 H969 0.950 . S
H966 C962 0.950 . S
C967 C965 1.390 . S
C967 C968 1.387 . S
C967 H970 0.950 . S
C968 C967 1.387 . S
C968 C971 1.387 . S
H969 C965 0.950 . S
H970 C967 0.950 . S
C971 C962 1.390 . S
C971 H964 0.950 . S
C971 C968 1.387 . S
C972 C973 1.387 . S
C972 H976 0.950 . S
C972 C981 1.390 . S
C973 C972 1.387 . S
C973 C975 1.387 . S
H974 C981 0.950 . S
C975 C973 1.387 . S
C975 C977 1.390 . S
C975 H979 0.950 . S
H976 C972 0.950 . S
C977 C975 1.390 . S
C977 C978 1.387 . S
C977 H980 0.950 . S
C978 C977 1.387 . S
C978 C981 1.387 . S
H979 C975 0.950 . S
H980 C977 0.950 . S
C981 C972 1.390 . S
C981 H974 0.950 . S
C981 C978 1.387 . S
C982 C983 1.387 . S
C982 H986 0.950 . S
C982 C991 1.390 . S
C983 C982 1.387 . S
C983 C985 1.387 . S
H984 C991 0.950 . S
C985 C983 1.387 . S
C985 C987 1.390 . S
C985 H989 0.950 . S
H986 C982 0.950 . S
C987 C985 1.390 . S
C987 C988 1.387 . S
C987 H990 0.950 . S
C988 C987 1.387 . S
C988 C991 1.387 . S
H989 C985 0.950 . S
H990 C987 0.950 . S
C991 C982 1.390 . S
C991 H984 0.950 . S
C991 C988 1.387 . S
C992 C993 1.387 . S
C992 H996 0.950 . S
C992 C1001 1.390 . S
C993 C992 1.387 . S
C993 C995 1.387 . S
H994 C1001 0.950 . S
C995 C993 1.387 . S
C995 C997 1.390 . S
C995 H999 0.950 . S
H996 C992 0.950 . S
C997 C995 1.390 . S
C997 C998 1.387 . S
C997 H1000 0.950 . S
C998 C997 1.387 . S
C998 C1001 1.387 . S
H999 C995 0.950 . S
H1000 C997 0.950 . S
C1001 C992 1.390 . S
C1001 H994 0.950 . S
C1001 C998 1.387 . S
C1002 C1003 1.387 . S
C1002 H1006 0.950 . S
C1002 C1011 1.390 . S
C1003 C1002 1.387 . S
C1003 C1005 1.387 . S
H1004 C1011 0.950 . S
C1005 C1003 1.387 . S
C1005 C1007 1.390 . S
C1005 H1009 0.950 . S
H1006 C1002 0.950 . S
C1007 C1005 1.390 . S
C1007 C1008 1.387 . S
C1007 H1010 0.950 . S
C1008 C1007 1.387 . S
C1008 C1011 1.387 . S
H1009 C1005 0.950 . S
H1010 C1007 0.950 . S
C1011 C1002 1.390 . S
C1011 H1004 0.950 . S
C1011 C1008 1.387 . S
C1012 C1013 1.387 . S
C1012 H1016 0.950 . S
C1012 C1021 1.390 . S
C1013 C1012 1.387 . S
C1013 C1015 1.387 . S
H1014 C1021 0.950 . S
C1015 C1013 1.387 . S
C1015 C1017 1.390 . S
C1015 H1019 0.950 . S
H1016 C1012 0.950 . S
C1017 C1015 1.390 . S
C1017 C1018 1.387 . S
C1017 H1020 0.950 . S
C1018 C1017 1.387 . S
C1018 C1021 1.387 . S
H1019 C1015 0.950 . S
H1020 C1017 0.950 . S
C1021 C1012 1.390 . S
C1021 H1014 0.950 . S
C1021 C1018 1.387 . S
C1022 C1023 1.387 . S
C1022 H1026 0.950 . S
C1022 C1031 1.390 . S
C1023 C1022 1.387 . S
C1023 C1025 1.387 . S
H1024 C1031 0.950 . S
C1025 C1023 1.387 . S
C1025 C1027 1.390 . S
C1025 H1029 0.950 . S
H1026 C1022 0.950 . S
C1027 C1025 1.390 . S
C1027 C1028 1.387 . S
C1027 H1030 0.950 . S
C1028 C1027 1.387 . S
C1028 C1031 1.387 . S
H1029 C1025 0.950 . S
H1030 C1027 0.950 . S
C1031 C1022 1.390 . S
C1031 H1024 0.950 . S
C1031 C1028 1.387 . S
C1032 C1033 1.387 . S
C1032 H1036 0.950 . S
C1032 C1041 1.390 . S
C1033 C1032 1.387 . S
C1033 C1035 1.387 . S
H1034 C1041 0.950 . S
C1035 C1033 1.387 . S
C1035 C1037 1.390 . S
C1035 H1039 0.950 . S
H1036 C1032 0.950 . S
C1037 C1035 1.390 . S
C1037 C1038 1.387 . S
C1037 H1040 0.950 . S
C1038 C1037 1.387 . S
C1038 C1041 1.387 . S
H1039 C1035 0.950 . S
H1040 C1037 0.950 . S
C1041 C1032 1.390 . S
C1041 H1034 0.950 . S
C1041 C1038 1.387 . S
C1042 C1043 1.387 . S
C1042 H1046 0.950 . S
C1042 C1051 1.390 . S
C1043 C1042 1.387 . S
C1043 C1045 1.387 . S
H1044 C1051 0.950 . S
C1045 C1043 1.387 . S
C1045 C1047 1.390 . S
C1045 H1049 0.950 . S
H1046 C1042 0.950 . S
C1047 C1045 1.390 . S
C1047 C1048 1.387 . S
C1047 H1050 0.950 . S
C1048 C1047 1.387 . S
C1048 C1051 1.387 . S
H1049 C1045 0.950 . S
H1050 C1047 0.950 . S
C1051 C1042 1.390 . S
C1051 H1044 0.950 . S
C1051 C1048 1.387 . S
C1052 C1053 1.387 . S
C1052 H1056 0.950 . S
C1052 C1061 1.390 . S
C1053 C1052 1.387 . S
C1053 C1055 1.387 . S
H1054 C1061 0.950 . S
C1055 C1053 1.387 . S
C1055 C1057 1.390 . S
C1055 H1059 0.950 . S
H1056 C1052 0.950 . S
C1057 C1055 1.390 . S
C1057 C1058 1.387 . S
C1057 H1060 0.950 . S
C1058 C1057 1.387 . S
C1058 C1061 1.387 . S
H1059 C1055 0.950 . S
H1060 C1057 0.950 . S
C1061 C1052 1.390 . S
C1061 H1054 0.950 . S
C1061 C1058 1.387 . S
C1062 C1063 1.387 . S
C1062 H1066 0.950 . S
C1062 C1071 1.390 . S
C1063 C1062 1.387 . S
C1063 C1065 1.387 . S
H1064 C1071 0.950 . S
C1065 C1063 1.387 . S
C1065 C1067 1.390 . S
C1065 H1069 0.950 . S
H1066 C1062 0.950 . S
C1067 C1065 1.390 . S
C1067 C1068 1.387 . S
C1067 H1070 0.950 . S
C1068 C1067 1.387 . S
C1068 C1071 1.387 . S
H1069 C1065 0.950 . S
H1070 C1067 0.950 . S
C1071 C1062 1.390 . S
C1071 H1064 0.950 . S
C1071 C1068 1.387 . S
C1072 C1073 1.387 . S
C1072 H1076 0.950 . S
C1072 C1081 1.390 . S
C1073 C1072 1.387 . S
C1073 C1075 1.387 . S
H1074 C1081 0.950 . S
C1075 C1073 1.387 . S
C1075 C1077 1.390 . S
C1075 H1079 0.950 . S
H1076 C1072 0.950 . S
C1077 C1075 1.390 . S
C1077 C1078 1.387 . S
C1077 H1080 0.950 . S
C1078 C1077 1.387 . S
C1078 C1081 1.387 . S
H1079 C1075 0.950 . S
H1080 C1077 0.950 . S
C1081 C1072 1.390 . S
C1081 H1074 0.950 . S
C1081 C1078 1.387 . S
C1082 C1083 1.387 . S
C1082 H1086 0.950 . S
C1082 C1091 1.390 . S
C1083 C1082 1.387 . S
C1083 C1085 1.387 . S
H1084 C1091 0.950 . S
C1085 C1083 1.387 . S
C1085 C1087 1.390 . S
C1085 H1089 0.950 . S
H1086 C1082 0.950 . S
C1087 C1085 1.390 . S
C1087 C1088 1.387 . S
C1087 H1090 0.950 . S
C1088 C1087 1.387 . S
C1088 C1091 1.387 . S
H1089 C1085 0.950 . S
H1090 C1087 0.950 . S
C1091 C1082 1.390 . S
C1091 H1084 0.950 . S
C1091 C1088 1.387 . S
C1092 C1093 1.387 . S
C1092 H1096 0.950 . S
C1092 C1101 1.390 . S
C1093 C1092 1.387 . S
C1093 C1095 1.387 . S
H1094 C1101 0.950 . S
C1095 C1093 1.387 . S
C1095 C1097 1.390 . S
C1095 H1099 0.950 . S
H1096 C1092 0.950 . S
C1097 C1095 1.390 . S
C1097 C1098 1.387 . S
C1097 H1100 0.950 . S
C1098 C1097 1.387 . S
C1098 C1101 1.387 . S
H1099 C1095 0.950 . S
H1100 C1097 0.950 . S
C1101 C1092 1.390 . S
C1101 H1094 0.950 . S
C1101 C1098 1.387 . S
C1102 C1103 1.387 . S
C1102 H1106 0.950 . S
C1102 C1111 1.390 . S
C1103 C1102 1.387 . S
C1103 C1105 1.387 . S
H1104 C1111 0.950 . S
C1105 C1103 1.387 . S
C1105 C1107 1.390 . S
C1105 H1109 0.950 . S
H1106 C1102 0.950 . S
C1107 C1105 1.390 . S
C1107 C1108 1.387 . S
C1107 H1110 0.950 . S
C1108 C1107 1.387 . S
C1108 C1111 1.387 . S
H1109 C1105 0.950 . S
H1110 C1107 0.950 . S
C1111 C1102 1.390 . S
C1111 H1104 0.950 . S
C1111 C1108 1.387 . S
C1112 C1113 1.387 . S
C1112 H1116 0.950 . S
C1112 C1121 1.390 . S
C1113 C1112 1.387 . S
C1113 C1115 1.387 . S
H1114 C1121 0.950 . S
C1115 C1113 1.387 . S
C1115 C1117 1.390 . S
C1115 H1119 0.950 . S
H1116 C1112 0.950 . S
C1117 C1115 1.390 . S
C1117 C1118 1.387 . S
C1117 H1120 0.950 . S
C1118 C1117 1.387 . S
C1118 C1121 1.387 . S
H1119 C1115 0.950 . S
H1120 C1117 0.950 . S
C1121 C1112 1.390 . S
C1121 H1114 0.950 . S
C1121 C1118 1.387 . S
C1122 C1123 1.387 . S
C1122 H1126 0.950 . S
C1122 C1131 1.390 . S
C1123 C1122 1.387 . S
C1123 C1125 1.387 . S
H1124 C1131 0.950 . S
C1125 C1123 1.387 . S
C1125 C1127 1.390 . S
C1125 H1129 0.950 . S
H1126 C1122 0.950 . S
C1127 C1125 1.390 . S
C1127 C1128 1.387 . S
C1127 H1130 0.950 . S
C1128 C1127 1.387 . S
C1128 C1131 1.387 . S
H1129 C1125 0.950 . S
H1130 C1127 0.950 . S
C1131 C1122 1.390 . S
C1131 H1124 0.950 . S
C1131 C1128 1.387 . S
C1132 C1133 1.387 . S
C1132 H1136 0.950 . S
C1132 C1141 1.390 . S
C1133 C1132 1.387 . S
C1133 C1135 1.387 . S
H1134 C1141 0.950 . S
C1135 C1133 1.387 . S
C1135 C1137 1.390 . S
C1135 H1139 0.950 . S
H1136 C1132 0.950 . S
C1137 C1135 1.390 . S
C1137 C1138 1.387 . S
C1137 H1140 0.950 . S
C1138 C1137 1.387 . S
C1138 C1141 1.387 . S
H1139 C1135 0.950 . S
H1140 C1137 0.950 . S
C1141 C1132 1.390 . S
C1141 H1134 0.950 . S
C1141 C1138 1.387 . S
C1142 C1143 1.387 . S
C1142 H1146 0.950 . S
C1142 C1151 1.390 . S
C1143 C1142 1.387 . S
C1143 C1145 1.387 . S
H1144 C1151 0.950 . S
C1145 C1143 1.387 . S
C1145 C1147 1.390 . S
C1145 H1149 0.950 . S
H1146 C1142 0.950 . S
C1147 C1145 1.390 . S
C1147 C1148 1.387 . S
C1147 H1150 0.950 . S
C1148 C1147 1.387 . S
C1148 C1151 1.387 . S
H1149 C1145 0.950 . S
H1150 C1147 0.950 . S
C1151 C1142 1.390 . S
C1151 H1144 0.950 . S
C1151 C1148 1.387 . S
C1152 C1153 1.387 . S
C1152 H1156 0.950 . S
C1152 C1161 1.390 . S
C1153 C1152 1.387 . S
C1153 C1155 1.387 . S
H1154 C1161 0.950 . S
C1155 C1153 1.387 . S
C1155 C1157 1.390 . S
C1155 H1159 0.950 . S
H1156 C1152 0.950 . S
C1157 C1155 1.390 . S
C1157 C1158 1.387 . S
C1157 H1160 0.950 . S
C1158 C1157 1.387 . S
C1158 C1161 1.387 . S
H1159 C1155 0.950 . S
H1160 C1157 0.950 . S
C1161 C1152 1.390 . S
C1161 H1154 0.950 . S
C1161 C1158 1.387 . S
C1162 C1163 1.387 . S
C1162 H1166 0.950 . S
C1162 C1171 1.390 . S
C1163 C1162 1.387 . S
C1163 C1165 1.387 . S
H1164 C1171 0.950 . S
C1165 C1163 1.387 . S
C1165 C1167 1.390 . S
C1165 H1169 0.950 . S
H1166 C1162 0.950 . S
C1167 C1165 1.390 . S
C1167 C1168 1.387 . S
C1167 H1170 0.950 . S
C1168 C1167 1.387 . S
C1168 C1171 1.387 . S
H1169 C1165 0.950 . S
H1170 C1167 0.950 . S
C1171 C1162 1.390 . S
C1171 H1164 0.950 . S
C1171 C1168 1.387 . S
C1172 C1173 1.387 . S
C1172 H1176 0.950 . S
C1172 C1181 1.390 . S
C1173 C1172 1.387 . S
C1173 C1175 1.387 . S
H1174 C1181 0.950 . S
C1175 C1173 1.387 . S
C1175 C1177 1.390 . S
C1175 H1179 0.950 . S
H1176 C1172 0.950 . S
C1177 C1175 1.390 . S
C1177 C1178 1.387 . S
C1177 H1180 0.950 . S
C1178 C1177 1.387 . S
C1178 C1181 1.387 . S
H1179 C1175 0.950 . S
H1180 C1177 0.950 . S
C1181 C1172 1.390 . S
C1181 H1174 0.950 . S
C1181 C1178 1.387 . S
C1182 C1183 1.387 . S
C1182 H1186 0.950 . S
C1182 C1191 1.390 . S
C1183 C1182 1.387 . S
C1183 C1185 1.387 . S
H1184 C1191 0.950 . S
C1185 C1183 1.387 . S
C1185 C1187 1.390 . S
C1185 H1189 0.950 . S
H1186 C1182 0.950 . S
C1187 C1185 1.390 . S
C1187 C1188 1.387 . S
C1187 H1190 0.950 . S
C1188 C1187 1.387 . S
C1188 C1191 1.387 . S
H1189 C1185 0.950 . S
H1190 C1187 0.950 . S
C1191 C1182 1.390 . S
C1191 H1184 0.950 . S
C1191 C1188 1.387 . S
C1192 C1193 1.387 . S
C1192 H1196 0.950 . S
C1192 C1201 1.390 . S
C1193 C1192 1.387 . S
C1193 C1195 1.387 . S
H1194 C1201 0.950 . S
C1195 C1193 1.387 . S
C1195 C1197 1.390 . S
C1195 H1199 0.950 . S
H1196 C1192 0.950 . S
C1197 C1195 1.390 . S
C1197 C1198 1.387 . S
C1197 H1200 0.950 . S
C1198 C1197 1.387 . S
C1198 C1201 1.387 . S
H1199 C1195 0.950 . S
H1200 C1197 0.950 . S
C1201 C1192 1.390 . S
C1201 H1194 0.950 . S
C1201 C1198 1.387 . S
C1202 C1203 1.387 . S
C1202 H1206 0.950 . S
C1202 C1211 1.390 . S
C1203 C1202 1.387 . S
C1203 C1205 1.387 . S
H1204 C1211 0.950 . S
C1205 C1203 1.387 . S
C1205 C1207 1.390 . S
C1205 H1209 0.950 . S
H1206 C1202 0.950 . S
C1207 C1205 1.390 . S
C1207 C1208 1.387 . S
C1207 H1210 0.950 . S
C1208 C1207 1.387 . S
C1208 C1211 1.387 . S
H1209 C1205 0.950 . S
H1210 C1207 0.950 . S
C1211 C1202 1.390 . S
C1211 H1204 0.950 . S
C1211 C1208 1.387 . S
C1212 C1213 1.387 . S
C1212 H1216 0.950 . S
C1212 C1221 1.390 . S
C1213 C1212 1.387 . S
C1213 C1215 1.387 . S
H1214 C1221 0.950 . S
C1215 C1213 1.387 . S
C1215 C1217 1.390 . S
C1215 H1219 0.950 . S
H1216 C1212 0.950 . S
C1217 C1215 1.390 . S
C1217 C1218 1.387 . S
C1217 H1220 0.950 . S
C1218 C1217 1.387 . S
C1218 C1221 1.387 . S
H1219 C1215 0.950 . S
H1220 C1217 0.950 . S
C1221 C1212 1.390 . S
C1221 H1214 0.950 . S
C1221 C1218 1.387 . S
C1222 C1223 1.387 . S
C1222 H1226 0.950 . S
C1222 C1231 1.390 . S
C1223 C1222 1.387 . S
C1223 C1225 1.387 . S
H1224 C1231 0.950 . S
C1225 C1223 1.387 . S
C1225 C1227 1.390 . S
C1225 H1229 0.950 . S
H1226 C1222 0.950 . S
C1227 C1225 1.390 . S
C1227 C1228 1.387 . S
C1227 H1230 0.950 . S
C1228 C1227 1.387 . S
C1228 C1231 1.387 . S
H1229 C1225 0.950 . S
H1230 C1227 0.950 . S
C1231 C1222 1.390 . S
C1231 H1224 0.950 . S
C1231 C1228 1.387 . S
C1232 C1233 1.387 . S
C1232 H1236 0.950 . S
C1232 C1241 1.390 . S
C1233 C1232 1.387 . S
C1233 C1235 1.387 . S
H1234 C1241 0.950 . S
C1235 C1233 1.387 . S
C1235 C1237 1.390 . S
C1235 H1239 0.950 . S
H1236 C1232 0.950 . S
C1237 C1235 1.390 . S
C1237 C1238 1.387 . S
C1237 H1240 0.950 . S
C1238 C1237 1.387 . S
C1238 C1241 1.387 . S
H1239 C1235 0.950 . S
H1240 C1237 0.950 . S
C1241 C1232 1.390 . S
C1241 H1234 0.950 . S
C1241 C1238 1.387 . S
C1242 C1243 1.387 . S
C1242 H1246 0.950 . S
C1242 C1251 1.390 . S
C1243 C1242 1.387 . S
C1243 C1245 1.387 . S
H1244 C1251 0.950 . S
C1245 C1243 1.387 . S
C1245 C1247 1.390 . S
C1245 H1249 0.950 . S
H1246 C1242 0.950 . S
C1247 C1245 1.390 . S
C1247 C1248 1.387 . S
C1247 H1250 0.950 . S
C1248 C1247 1.387 . S
C1248 C1251 1.387 . S
H1249 C1245 0.950 . S
H1250 C1247 0.950 . S
C1251 C1242 1.390 . S
C1251 H1244 0.950 . S
C1251 C1248 1.387 . S
C1252 C1253 1.387 . S
C1252 H1256 0.950 . S
C1252 C1261 1.390 . S
C1253 C1252 1.387 . S
C1253 C1255 1.387 . S
H1254 C1261 0.950 . S
C1255 C1253 1.387 . S
C1255 C1257 1.390 . S
C1255 H1259 0.950 . S
H1256 C1252 0.950 . S
C1257 C1255 1.390 . S
C1257 C1258 1.387 . S
C1257 H1260 0.950 . S
C1258 C1257 1.387 . S
C1258 C1261 1.387 . S
H1259 C1255 0.950 . S
H1260 C1257 0.950 . S
C1261 C1252 1.390 . S
C1261 H1254 0.950 . S
C1261 C1258 1.387 . S
C1262 C1263 1.387 . S
C1262 H1266 0.950 . S
C1262 C1271 1.390 . S
C1263 C1262 1.387 . S
C1263 C1265 1.387 . S
H1264 C1271 0.950 . S
C1265 C1263 1.387 . S
C1265 C1267 1.390 . S
C1265 H1269 0.950 . S
H1266 C1262 0.950 . S
C1267 C1265 1.390 . S
C1267 C1268 1.387 . S
C1267 H1270 0.950 . S
C1268 C1267 1.387 . S
C1268 C1271 1.387 . S
H1269 C1265 0.950 . S
H1270 C1267 0.950 . S
C1271 C1262 1.390 . S
C1271 H1264 0.950 . S
C1271 C1268 1.387 . S
C1272 C1273 1.387 . S
C1272 H1276 0.950 . S
C1272 C1281 1.390 . S
C1273 C1272 1.387 . S
C1273 C1275 1.387 . S
H1274 C1281 0.950 . S
C1275 C1273 1.387 . S
C1275 C1277 1.390 . S
C1275 H1279 0.950 . S
H1276 C1272 0.950 . S
C1277 C1275 1.390 . S
C1277 C1278 1.387 . S
C1277 H1280 0.950 . S
C1278 C1277 1.387 . S
C1278 C1281 1.387 . S
H1279 C1275 0.950 . S
H1280 C1277 0.950 . S
C1281 C1272 1.390 . S
C1281 H1274 0.950 . S
C1281 C1278 1.387 . S
C1282 C1283 1.387 . S
C1282 H1286 0.950 . S
C1282 C1291 1.390 . S
C1283 C1282 1.387 . S
C1283 C1285 1.387 . S
H1284 C1291 0.950 . S
C1285 C1283 1.387 . S
C1285 C1287 1.390 . S
C1285 H1289 0.950 . S
H1286 C1282 0.950 . S
C1287 C1285 1.390 . S
C1287 C1288 1.387 . S
C1287 H1290 0.950 . S
C1288 C1287 1.387 . S
C1288 C1291 1.387 . S
H1289 C1285 0.950 . S
H1290 C1287 0.950 . S
C1291 C1282 1.390 . S
C1291 H1284 0.950 . S
C1291 C1288 1.387 . S
C1292 C1293 1.387 . S
C1292 H1296 0.950 . S
C1292 C1301 1.390 . S
C1293 C1292 1.387 . S
C1293 C1295 1.387 . S
H1294 C1301 0.950 . S
C1295 C1293 1.387 . S
C1295 C1297 1.390 . S
C1295 H1299 0.950 . S
H1296 C1292 0.950 . S
C1297 C1295 1.390 . S
C1297 C1298 1.387 . S
C1297 H1300 0.950 . S
C1298 C1297 1.387 . S
C1298 C1301 1.387 . S
H1299 C1295 0.950 . S
H1300 C1297 0.950 . S
C1301 C1292 1.390 . S
C1301 H1294 0.950 . S
C1301 C1298 1.387 . S
C1302 C1303 1.387 . S
C1302 H1306 0.950 . S
C1302 C1311 1.390 . S
C1303 C1302 1.387 . S
C1303 C1305 1.387 . S
H1304 C1311 0.950 . S
C1305 C1303 1.387 . S
C1305 C1307 1.390 . S
C1305 H1309 0.950 . S
H1306 C1302 0.950 . S
C1307 C1305 1.390 . S
C1307 C1308 1.387 . S
C1307 H1310 0.950 . S
C1308 C1307 1.387 . S
C1308 C1311 1.387 . S
H1309 C1305 0.950 . S
H1310 C1307 0.950 . S
C1311 C1302 1.390 . S
C1311 H1304 0.950 . S
C1311 C1308 1.387 . S
C1312 C1313 1.387 . S
C1312 H1316 0.950 . S
C1312 C1321 1.390 . S
C1313 C1312 1.387 . S
C1313 C1315 1.387 . S
H1314 C1321 0.950 . S
C1315 C1313 1.387 . S
C1315 C1317 1.390 . S
C1315 H1319 0.950 . S
H1316 C1312 0.950 . S
C1317 C1315 1.390 . S
C1317 C1318 1.387 . S
C1317 H1320 0.950 . S
C1318 C1317 1.387 . S
C1318 C1321 1.387 . S
H1319 C1315 0.950 . S
H1320 C1317 0.950 . S
C1321 C1312 1.390 . S
C1321 H1314 0.950 . S
C1321 C1318 1.387 . S
C1322 C1323 1.387 . S
C1322 H1326 0.950 . S
C1322 C1331 1.390 . S
C1323 C1322 1.387 . S
C1323 C1325 1.387 . S
H1324 C1331 0.950 . S
C1325 C1323 1.387 . S
C1325 C1327 1.390 . S
C1325 H1329 0.950 . S
H1326 C1322 0.950 . S
C1327 C1325 1.390 . S
C1327 C1328 1.387 . S
C1327 H1330 0.950 . S
C1328 C1327 1.387 . S
C1328 C1331 1.387 . S
H1329 C1325 0.950 . S
H1330 C1327 0.950 . S
C1331 C1322 1.390 . S
C1331 H1324 0.950 . S
C1331 C1328 1.387 . S
C1332 C1333 1.387 . S
C1332 H1336 0.950 . S
C1332 C1341 1.390 . S
C1333 C1332 1.387 . S
C1333 C1335 1.387 . S
H1334 C1341 0.950 . S
C1335 C1333 1.387 . S
C1335 C1337 1.390 . S
C1335 H1339 0.950 . S
H1336 C1332 0.950 . S
C1337 C1335 1.390 . S
C1337 C1338 1.387 . S
C1337 H1340 0.950 . S
C1338 C1337 1.387 . S
C1338 C1341 1.387 . S
H1339 C1335 0.950 . S
H1340 C1337 0.950 . S
C1341 C1332 1.390 . S
C1341 H1334 0.950 . S
C1341 C1338 1.387 . S
C1342 C1343 1.387 . S
C1342 H1346 0.950 . S
C1342 C1351 1.390 . S
C1343 C1342 1.387 . S
C1343 C1345 1.387 . S
H1344 C1351 0.950 . S
C1345 C1343 1.387 . S
C1345 C1347 1.390 . S
C1345 H1349 0.950 . S
H1346 C1342 0.950 . S
C1347 C1345 1.390 . S
C1347 C1348 1.387 . S
C1347 H1350 0.950 . S
C1348 C1347 1.387 . S
C1348 C1351 1.387 . S
H1349 C1345 0.950 . S
H1350 C1347 0.950 . S
C1351 C1342 1.390 . S
C1351 H1344 0.950 . S
C1351 C1348 1.387 . S
C1352 C1353 1.387 . S
C1352 H1356 0.950 . S
C1352 C1361 1.390 . S
C1353 C1352 1.387 . S
C1353 C1355 1.387 . S
H1354 C1361 0.950 . S
C1355 C1353 1.387 . S
C1355 C1357 1.390 . S
C1355 H1359 0.950 . S
H1356 C1352 0.950 . S
C1357 C1355 1.390 . S
C1357 C1358 1.387 . S
C1357 H1360 0.950 . S
C1358 C1357 1.387 . S
C1358 C1361 1.387 . S
H1359 C1355 0.950 . S
H1360 C1357 0.950 . S
C1361 C1352 1.390 . S
C1361 H1354 0.950 . S
C1361 C1358 1.387 . S
C1362 C1363 1.387 . S
C1362 H1366 0.950 . S
C1362 C1371 1.390 . S
C1363 C1362 1.387 . S
C1363 C1365 1.387 . S
H1364 C1371 0.950 . S
C1365 C1363 1.387 . S
C1365 C1367 1.390 . S
C1365 H1369 0.950 . S
H1366 C1362 0.950 . S
C1367 C1365 1.390 . S
C1367 C1368 1.387 . S
C1367 H1370 0.950 . S
C1368 C1367 1.387 . S
C1368 C1371 1.387 . S
H1369 C1365 0.950 . S
H1370 C1367 0.950 . S
C1371 C1362 1.390 . S
C1371 H1364 0.950 . S
C1371 C1368 1.387 . S
C1372 C1373 1.387 . S
C1372 H1376 0.950 . S
C1372 C1381 1.390 . S
C1373 C1372 1.387 . S
C1373 C1375 1.387 . S
H1374 C1381 0.950 . S
C1375 C1373 1.387 . S
C1375 C1377 1.390 . S
C1375 H1379 0.950 . S
H1376 C1372 0.950 . S
C1377 C1375 1.390 . S
C1377 C1378 1.387 . S
C1377 H1380 0.950 . S
C1378 C1377 1.387 . S
C1378 C1381 1.387 . S
H1379 C1375 0.950 . S
H1380 C1377 0.950 . S
C1381 C1372 1.390 . S
C1381 H1374 0.950 . S
C1381 C1378 1.387 . S
C1382 C1383 1.387 . S
C1382 H1386 0.950 . S
C1382 C1391 1.390 . S
C1383 C1382 1.387 . S
C1383 C1385 1.387 . S
H1384 C1391 0.950 . S
C1385 C1383 1.387 . S
C1385 C1387 1.390 . S
C1385 H1389 0.950 . S
H1386 C1382 0.950 . S
C1387 C1385 1.390 . S
C1387 C1388 1.387 . S
C1387 H1390 0.950 . S
C1388 C1387 1.387 . S
C1388 C1391 1.387 . S
H1389 C1385 0.950 . S
H1390 C1387 0.950 . S
C1391 C1382 1.390 . S
C1391 H1384 0.950 . S
C1391 C1388 1.387 . S
C1392 C1393 1.387 . S
C1392 H1396 0.950 . S
C1392 C1401 1.390 1_554 S
C1393 C1392 1.387 . S
C1393 C1395 1.387 . S
H1394 C1401 0.950 . S
C1395 C1393 1.387 . S
C1395 C1397 1.390 1_554 S
C1395 H1399 0.950 . S
H1396 C1392 0.950 . S
C1397 C1395 1.390 1_556 S
C1397 C1398 1.387 . S
C1397 H1400 0.950 . S
C1398 C1397 1.387 . S
C1398 C1401 1.387 . S
H1399 C1395 0.950 . S
H1400 C1397 0.950 . S
C1401 C1392 1.390 1_556 S
C1401 H1394 0.950 . S
C1401 C1398 1.387 . S
C1402 C1403 1.387 . S
C1402 H1406 0.950 . S
C1402 C1411 1.390 1_556 S
C1403 C1402 1.387 . S
C1403 C1405 1.387 . S
H1404 C1411 0.950 . S
C1405 C1403 1.387 . S
C1405 C1407 1.390 1_556 S
C1405 H1409 0.950 . S
H1406 C1402 0.950 . S
C1407 C1405 1.390 1_554 S
C1407 C1408 1.387 . S
C1407 H1410 0.950 . S
C1408 C1407 1.387 . S
C1408 C1411 1.387 . S
H1409 C1405 0.950 . S
H1410 C1407 0.950 . S
C1411 C1402 1.390 1_554 S
C1411 H1404 0.950 . S
C1411 C1408 1.387 . S
C1412 C1413 1.387 . S
C1412 H1416 0.950 . S
C1412 C1421 1.390 1_554 S
C1413 C1412 1.387 . S
C1413 C1415 1.387 . S
H1414 C1421 0.950 . S
C1415 C1413 1.387 . S
C1415 C1417 1.390 1_554 S
C1415 H1419 0.950 . S
H1416 C1412 0.950 . S
C1417 C1415 1.390 1_556 S
C1417 C1418 1.387 . S
C1417 H1420 0.950 . S
C1418 C1417 1.387 . S
C1418 C1421 1.387 . S
H1419 C1415 0.950 . S
H1420 C1417 0.950 . S
C1421 C1412 1.390 1_556 S
C1421 H1414 0.950 . S
C1421 C1418 1.387 . S
C1422 C1423 1.387 . S
C1422 H1426 0.950 . S
C1422 C1431 1.390 1_554 S
C1423 C1422 1.387 . S
C1423 C1425 1.387 . S
H1424 C1431 0.950 . S
C1425 C1423 1.387 . S
C1425 C1427 1.390 1_554 S
C1425 H1429 0.950 . S
H1426 C1422 0.950 . S
C1427 C1425 1.390 1_556 S
C1427 C1428 1.387 . S
C1427 H1430 0.950 . S
C1428 C1427 1.387 . S
C1428 C1431 1.387 . S
H1429 C1425 0.950 . S
H1430 C1427 0.950 . S
C1431 C1422 1.390 1_556 S
C1431 H1424 0.950 . S
C1431 C1428 1.387 . S
C1432 C1433 1.387 . S
C1432 H1436 0.950 . S
C1432 C1441 1.390 1_556 S
C1433 C1432 1.387 . S
C1433 C1435 1.387 . S
H1434 C1441 0.950 . S
C1435 C1433 1.387 . S
C1435 C1437 1.390 1_556 S
C1435 H1439 0.950 . S
H1436 C1432 0.950 . S
C1437 C1435 1.390 1_554 S
C1437 C1438 1.387 . S
C1437 H1440 0.950 . S
C1438 C1437 1.387 . S
C1438 C1441 1.387 . S
H1439 C1435 0.950 . S
H1440 C1437 0.950 . S
C1441 C1432 1.390 1_554 S
C1441 H1434 0.950 . S
C1441 C1438 1.387 . S
C1442 C1443 1.387 . S
C1442 H1446 0.950 . S
C1442 C1451 1.390 1_554 S
C1443 C1442 1.387 . S
C1443 C1445 1.387 . S
H1444 C1451 0.950 . S
C1445 C1443 1.387 . S
C1445 C1447 1.390 1_554 S
C1445 H1449 0.950 . S
H1446 C1442 0.950 . S
C1447 C1445 1.390 1_556 S
C1447 C1448 1.387 . S
C1447 H1450 0.950 . S
C1448 C1447 1.387 . S
C1448 C1451 1.387 . S
H1449 C1445 0.950 . S
H1450 C1447 0.950 . S
C1451 C1442 1.390 1_556 S
C1451 H1444 0.950 . S
C1451 C1448 1.387 . S
C1452 C1453 1.387 . S
C1452 H1456 0.950 . S
C1452 C1461 1.390 1_556 S
C1453 C1452 1.387 . S
C1453 C1455 1.387 . S
H1454 C1461 0.950 . S
C1455 C1453 1.387 . S
C1455 C1457 1.390 1_556 S
C1455 H1459 0.950 . S
H1456 C1452 0.950 . S
C1457 C1455 1.390 1_554 S
C1457 C1458 1.387 . S
C1457 H1460 0.950 . S
C1458 C1457 1.387 . S
C1458 C1461 1.387 . S
H1459 C1455 0.950 . S
H1460 C1457 0.950 . S
C1461 C1452 1.390 1_554 S
C1461 H1454 0.950 . S
C1461 C1458 1.387 . S
C1462 C1463 1.387 . S
C1462 H1466 0.950 . S
C1462 C1471 1.390 1_554 S
C1463 C1462 1.387 . S
C1463 C1465 1.387 . S
H1464 C1471 0.950 . S
C1465 C1463 1.387 . S
C1465 C1467 1.390 1_554 S
C1465 H1469 0.950 . S
H1466 C1462 0.950 . S
C1467 C1465 1.390 1_556 S
C1467 C1468 1.387 . S
C1467 H1470 0.950 . S
C1468 C1467 1.387 . S
C1468 C1471 1.387 . S
H1469 C1465 0.950 . S
H1470 C1467 0.950 . S
C1471 C1462 1.390 1_556 S
C1471 H1464 0.950 . S
C1471 C1468 1.387 . S
C1472 C1473 1.387 . S
C1472 H1476 0.950 . S
C1472 C1481 1.390 1_455 S
C1473 C1472 1.387 . S
C1473 C1475 1.387 . S
H1474 C1481 0.950 . S
C1475 C1473 1.387 . S
C1475 C1477 1.390 1_455 S
C1475 H1479 0.950 . S
H1476 C1472 0.950 . S
C1477 C1475 1.390 1_655 S
C1477 C1478 1.387 . S
C1477 H1480 0.950 . S
C1478 C1477 1.387 . S
C1478 C1481 1.387 . S
H1479 C1475 0.950 . S
H1480 C1477 0.950 . S
C1481 C1472 1.390 1_655 S
C1481 H1474 0.950 . S
C1481 C1478 1.387 . S
C1482 C1483 1.387 . S
C1482 H1486 0.950 . S
C1482 C1491 1.390 1_565 S
C1483 C1482 1.387 . S
C1483 C1485 1.387 . S
H1484 C1491 0.950 . S
C1485 C1483 1.387 . S
C1485 C1487 1.390 1_565 S
C1485 H1489 0.950 . S
H1486 C1482 0.950 . S
C1487 C1485 1.390 1_545 S
C1487 C1488 1.387 . S
C1487 H1490 0.950 . S
C1488 C1487 1.387 . S
C1488 C1491 1.387 . S
H1489 C1485 0.950 . S
H1490 C1487 0.950 . S
C1491 C1482 1.390 1_545 S
C1491 H1484 0.950 . S
C1491 C1488 1.387 . S
C1492 C1493 1.387 . S
C1492 H1496 0.950 . S
C1492 C1501 1.390 1_455 S
C1493 C1492 1.387 . S
C1493 C1495 1.387 . S
H1494 C1501 0.950 . S
C1495 C1493 1.387 . S
C1495 C1497 1.390 1_455 S
C1495 H1499 0.950 . S
H1496 C1492 0.950 . S
C1497 C1495 1.390 1_655 S
C1497 C1498 1.387 . S
C1497 H1500 0.950 . S
C1498 C1497 1.387 . S
C1498 C1501 1.387 . S
H1499 C1495 0.950 . S
H1500 C1497 0.950 . S
C1501 C1492 1.390 1_655 S
C1501 H1494 0.950 . S
C1501 C1498 1.387 . S
C1502 C1503 1.387 . S
C1502 H1506 0.950 . S
C1502 C1511 1.390 1_565 S
C1503 C1502 1.387 . S
C1503 C1505 1.387 . S
H1504 C1511 0.950 . S
C1505 C1503 1.387 . S
C1505 C1507 1.390 1_565 S
C1505 H1509 0.950 . S
H1506 C1502 0.950 . S
C1507 C1505 1.390 1_545 S
C1507 C1508 1.387 . S
C1507 H1510 0.950 . S
C1508 C1507 1.387 . S
C1508 C1511 1.387 . S
H1509 C1505 0.950 . S
H1510 C1507 0.950 . S
C1511 C1502 1.390 1_545 S
C1511 H1504 0.950 . S
C1511 C1508 1.387 . S
C1512 C1513 1.387 . S
C1512 H1516 0.950 . S
C1512 C1521 1.390 1_655 S
C1513 C1512 1.387 . S
C1513 C1515 1.387 . S
H1514 C1521 0.950 . S
C1515 C1513 1.387 . S
C1515 C1517 1.390 1_655 S
C1515 H1519 0.950 . S
H1516 C1512 0.950 . S
C1517 C1515 1.390 1_455 S
C1517 C1518 1.387 . S
C1517 H1520 0.950 . S
C1518 C1517 1.387 . S
C1518 C1521 1.387 . S
H1519 C1515 0.950 . S
H1520 C1517 0.950 . S
C1521 C1512 1.390 1_455 S
C1521 H1514 0.950 . S
C1521 C1518 1.387 . S
C1522 C1523 1.387 . S
C1522 H1526 0.950 . S
C1522 C1531 1.390 1_545 S
C1523 C1522 1.387 . S
C1523 C1525 1.387 . S
H1524 C1531 0.950 . S
C1525 C1523 1.387 . S
C1525 C1527 1.390 1_545 S
C1525 H1529 0.950 . S
H1526 C1522 0.950 . S
C1527 C1525 1.390 1_565 S
C1527 C1528 1.387 . S
C1527 H1530 0.950 . S
C1528 C1527 1.387 . S
C1528 C1531 1.387 . S
H1529 C1525 0.950 . S
H1530 C1527 0.950 . S
C1531 C1522 1.390 1_565 S
C1531 H1524 0.950 . S
C1531 C1528 1.387 . S
C1532 C1533 1.387 . S
C1532 H1536 0.950 . S
C1532 C1541 1.390 1_455 S
C1533 C1532 1.387 . S
C1533 C1535 1.387 . S
H1534 C1541 0.950 . S
C1535 C1533 1.387 . S
C1535 C1537 1.390 1_455 S
C1535 H1539 0.950 . S
H1536 C1532 0.950 . S
C1537 C1535 1.390 1_655 S
C1537 C1538 1.387 . S
C1537 H1540 0.950 . S
C1538 C1537 1.387 . S
C1538 C1541 1.387 . S
H1539 C1535 0.950 . S
H1540 C1537 0.950 . S
C1541 C1532 1.390 1_655 S
C1541 H1534 0.950 . S
C1541 C1538 1.387 . S
C1542 C1543 1.387 . S
C1542 H1546 0.950 . S
C1542 C1551 1.390 1_545 S
C1543 C1542 1.387 . S
C1543 C1545 1.387 . S
H1544 C1551 0.950 . S
C1545 C1543 1.387 . S
C1545 C1547 1.390 1_545 S
C1545 H1549 0.950 . S
H1546 C1542 0.950 . S
C1547 C1545 1.390 1_565 S
C1547 C1548 1.387 . S
C1547 H1550 0.950 . S
C1548 C1547 1.387 . S
C1548 C1551 1.387 . S
H1549 C1545 0.950 . S
H1550 C1547 0.950 . S
C1551 C1542 1.390 1_565 S
C1551 H1544 0.950 . S
C1551 C1548 1.387 . S
C1552 C1553 1.387 . S
C1552 H1556 0.950 . S
C1552 C1561 1.390 1_545 S
C1553 C1552 1.387 . S
C1553 C1555 1.387 . S
H1554 C1561 0.950 . S
C1555 C1553 1.387 . S
C1555 C1557 1.390 1_545 S
C1555 H1559 0.950 . S
H1556 C1552 0.950 . S
C1557 C1555 1.390 1_565 S
C1557 C1558 1.387 . S
C1557 H1560 0.950 . S
C1558 C1557 1.387 . S
C1558 C1561 1.387 . S
H1559 C1555 0.950 . S
H1560 C1557 0.950 . S
C1561 C1552 1.390 1_565 S
C1561 H1554 0.950 . S
C1561 C1558 1.387 . S
C1562 C1563 1.387 . S
C1562 H1566 0.950 . S
C1562 C1571 1.390 1_545 S
C1563 C1562 1.387 . S
C1563 C1565 1.387 . S
H1564 C1571 0.950 . S
C1565 C1563 1.387 . S
C1565 C1567 1.390 1_545 S
C1565 H1569 0.950 . S
H1566 C1562 0.950 . S
C1567 C1565 1.390 1_565 S
C1567 C1568 1.387 . S
C1567 H1570 0.950 . S
C1568 C1567 1.387 . S
C1568 C1571 1.387 . S
H1569 C1565 0.950 . S
H1570 C1567 0.950 . S
C1571 C1562 1.390 1_565 S
C1571 H1564 0.950 . S
C1571 C1568 1.387 . S
C1572 C1573 1.387 . S
C1572 H1576 0.950 . S
C1572 C1581 1.390 1_655 S
C1573 C1572 1.387 . S
C1573 C1575 1.387 . S
H1574 C1581 0.950 . S
C1575 C1573 1.387 . S
C1575 C1577 1.390 1_655 S
C1575 H1579 0.950 . S
H1576 C1572 0.950 . S
C1577 C1575 1.390 1_455 S
C1577 C1578 1.387 . S
C1577 H1580 0.950 . S
C1578 C1577 1.387 . S
C1578 C1581 1.387 . S
H1579 C1575 0.950 . S
H1580 C1577 0.950 . S
C1581 C1572 1.390 1_455 S
C1581 H1574 0.950 . S
C1581 C1578 1.387 . S
C1582 C1583 1.387 . S
C1582 H1586 0.950 . S
C1582 C1591 1.390 1_545 S
C1583 C1582 1.387 . S
C1583 C1585 1.387 . S
H1584 C1591 0.950 . S
C1585 C1583 1.387 . S
C1585 C1587 1.390 1_545 S
C1585 H1589 0.950 . S
H1586 C1582 0.950 . S
C1587 C1585 1.390 1_565 S
C1587 C1588 1.387 . S
C1587 H1590 0.950 . S
C1588 C1587 1.387 . S
C1588 C1591 1.387 . S
H1589 C1585 0.950 . S
H1590 C1587 0.950 . S
C1591 C1582 1.390 1_565 S
C1591 H1584 0.950 . S
C1591 C1588 1.387 . S
C1592 C1593 1.387 . S
C1592 H1596 0.950 . S
C1592 C1601 1.390 1_455 S
C1593 C1592 1.387 . S
C1593 C1595 1.387 . S
H1594 C1601 0.950 . S
C1595 C1593 1.387 . S
C1595 C1597 1.390 1_455 S
C1595 H1599 0.950 . S
H1596 C1592 0.950 . S
C1597 C1595 1.390 1_655 S
C1597 C1598 1.387 . S
C1597 H1600 0.950 . S
C1598 C1597 1.387 . S
C1598 C1601 1.387 . S
H1599 C1595 0.950 . S
H1600 C1597 0.950 . S
C1601 C1592 1.390 1_655 S
C1601 H1594 0.950 . S
C1601 C1598 1.387 . S
C1602 C1603 1.387 . S
C1602 H1606 0.950 . S
C1602 C1611 1.390 1_545 S
C1603 C1602 1.387 . S
C1603 C1605 1.387 . S
H1604 C1611 0.950 . S
C1605 C1603 1.387 . S
C1605 C1607 1.390 1_545 S
C1605 H1609 0.950 . S
H1606 C1602 0.950 . S
C1607 C1605 1.390 1_565 S
C1607 C1608 1.387 . S
C1607 H1610 0.950 . S
C1608 C1607 1.387 . S
C1608 C1611 1.387 . S
H1609 C1605 0.950 . S
H1610 C1607 0.950 . S
C1611 C1602 1.390 1_565 S
C1611 H1604 0.950 . S
C1611 C1608 1.387 . S
C1612 C1613 1.387 . S
C1612 H1616 0.950 . S
C1612 C1621 1.390 1_655 S
C1613 C1612 1.387 . S
C1613 C1615 1.387 . S
H1614 C1621 0.950 . S
C1615 C1613 1.387 . S
C1615 C1617 1.390 1_655 S
C1615 H1619 0.950 . S
H1616 C1612 0.950 . S
C1617 C1615 1.390 1_455 S
C1617 C1618 1.387 . S
C1617 H1620 0.950 . S
C1618 C1617 1.387 . S
C1618 C1621 1.387 . S
H1619 C1615 0.950 . S
H1620 C1617 0.950 . S
C1621 C1612 1.390 1_455 S
C1621 H1614 0.950 . S
C1621 C1618 1.387 . S
C1622 C1623 1.387 . S
C1622 H1626 0.950 . S
C1622 C1631 1.390 1_455 S
C1623 C1622 1.387 . S
C1623 C1625 1.387 . S
H1624 C1631 0.950 . S
C1625 C1623 1.387 . S
C1625 C1627 1.390 1_455 S
C1625 H1629 0.950 . S
H1626 C1622 0.950 . S
C1627 C1625 1.390 1_655 S
C1627 C1628 1.387 . S
C1627 H1630 0.950 . S
C1628 C1627 1.387 . S
C1628 C1631 1.387 . S
H1629 C1625 0.950 . S
H1630 C1627 0.950 . S
C1631 C1622 1.390 1_655 S
C1631 H1624 0.950 . S
C1631 C1628 1.387 . S
C673 C546 1.396 . S
C678 C11 1.402 . S
C683 C25 1.291 . S
C688 C504 1.292 . S
C693 C39 1.369 . S
C698 C529 1.368 . S
C703 C543 1.260 . S
C708 C53 1.259 . S
C713 C473 1.306 . S
C718 C67 1.304 . S
C723 C70 1.299 . S
C728 C487 1.298 . S
C733 C95 1.339 . S
C738 C490 1.339 . S
C743 C98 1.330 . S
C748 C448 1.327 . S
C753 C112 1.455 . S
C758 C434 1.454 . S
C763 C403 1.296 . S
C768 C137 1.297 . S
C773 C406 1.400 . S
C778 C140 1.396 . S
C783 C165 1.348 . S
C788 C431 1.348 . S
C793 C168 1.314 . S
C798 C361 1.315 . S
C803 C193 1.357 . S
C808 C364 1.358 . S
C813 C389 1.263 . S
C818 C196 1.260 . S
C823 C336 1.409 . S
C828 C221 1.412 . S
C833 C235 1.299 . S
C838 C627 1.295 . S
C843 C658 1.312 . S
C848 C238 1.310 . S
C853 C641 1.417 . S
C858 C252 1.413 . S
C863 C644 1.249 . S
C868 C266 1.247 . S
C873 C571 1.402 . S
C878 C280 1.401 . S
C883 C599 1.311 . S
C888 C305 1.312 . S
C893 C308 1.333 . S
C898 C602 1.333 . S
C903 C574 1.272 . S
C908 C322 1.272 . S
C913 C459 1.375 . S
C918 C291 1.379 . S
C923 C249 1.288 . S
C928 C462 1.287 . S
C933 C476 1.389 . S
C938 C263 1.392 . S
C943 C501 1.264 . S
C948 C277 1.263 . S
C953 C333 1.309 . S
C958 C515 1.310 . S
C963 C518 1.316 . S
C968 C294 1.320 . S
C973 C319 1.334 . S
C978 C532 1.335 . S
C983 C224 1.310 . S
C988 C557 1.308 . S
C993 C560 1.448 . S
C998 C210 1.451 . S
C1003 C179 1.359 . S
C1008 C669 1.357 . S
C1013 C630 1.404 . S
C1018 C182 1.401 . S
C1023 C207 1.286 . S
C1028 C655 1.287 . S
C1033 C126 1.247 . S
C1038 C585 1.252 . S
C1043 C151 1.363 . S
C1048 C588 1.362 . S
C1053 C154 1.327 . S
C1058 C613 1.326 . S
C1063 C616 1.403 . S
C1068 C123 1.408 . S
C1073 C347 1.321 . S
C1078 C109 1.324 . S
C1083 C392 1.302 . S
C1088 C14 1.299 . S
C1093 C417 1.390 . S
C1098 C28 1.389 . S
C1103 C420 1.260 . S
C1108 C42 1.259 . S
C1113 C445 1.427 . S
C1118 C0 1.426 . S
C1123 C81 1.287 . S
C1128 C375 1.284 . S
C1133 C378 1.325 . S
C1138 C84 1.323 . S
C1143 C350 1.283 . S
C1148 C56 1.281 . S
C1153 C5 1.507 . S
C1158 C373 1.496 . S
C1163 C383 1.463 . S
C1168 C19 1.464 . S
C1173 C33 1.502 . S
C1178 C345 1.493 . S
C1183 C47 1.461 . S
C1188 C355 1.456 . S
C1193 C61 1.464 . S
C1198 C425 1.466 . S
C1203 C443 1.512 . S
C1208 C79 1.511 . S
C1213 C89 1.469 . S
C1218 C397 1.473 . S
C1223 C415 1.521 . S
C1228 C107 1.518 . S
C1233 C121 1.497 . S
C1238 C513 1.493 . S
C1243 C523 1.463 . S
C1248 C131 1.462 . S
C1253 C149 1.470 . S
C1258 C537 1.481 . S
C1263 C159 1.493 . S
C1268 C555 1.485 . S
C1273 C177 1.472 . S
C1278 C457 1.468 . S
C1283 C187 1.481 . S
C1288 C467 1.485 . S
C1293 C481 1.445 . S
C1298 C205 1.436 . S
C1303 C215 1.506 . S
C1308 C499 1.496 . S
C1313 C611 1.484 . S
C1318 C229 1.495 . S
C1323 C247 1.499 . S
C1328 C635 1.507 . S
C1333 C261 1.477 . S
C1338 C653 1.469 . S
C1343 C565 1.492 . S
C1348 C275 1.479 . S
C1353 C667 1.484 . S
C1358 C289 1.485 . S
C1363 C299 1.486 . S
C1368 C583 1.471 . S
C1373 C593 1.477 . S
C1378 C317 1.466 . S
C1383 C331 1.447 . S
C1388 C621 1.461 . S
C1393 C597 1.495 . S
C1398 C285 1.505 . S
C1403 C243 1.473 . S
C1408 C607 1.470 . S
C1413 C625 1.494 . S
C1418 C257 1.503 . S
C1423 C579 1.449 . S
C1428 C271 1.451 . S
C1433 C649 1.459 . S
C1438 C327 1.457 . S
C1443 C303 1.516 . S
C1448 C569 1.517 . S
C1453 C663 1.479 . S
C1458 C313 1.477 . S
C1463 C233 1.516 . S
C1468 C639 1.516 . S
C1473 C471 1.494 . S
C1478 C219 1.497 . S
C1483 C173 1.487 . S
C1488 C485 1.480 . S
C1493 C191 1.468 . S
C1498 C495 1.481 . S
C1503 C453 1.468 . S
C1508 C201 1.467 . S
C1513 C135 1.441 . S
C1518 C551 1.450 . S
C1523 C509 1.485 . S
C1528 C145 1.480 . S
C1533 C163 1.466 . S
C1538 C527 1.463 . S
C1543 C117 1.507 . S
C1548 C541 1.497 . S
C1553 C387 1.486 . S
C1558 C103 1.503 . S
C1563 C23 1.490 . S
C1568 C411 1.502 . S
C1573 C37 1.470 . S
C1578 C429 1.465 . S
C1583 C439 1.498 . S
C1588 C51 1.487 . S
C1593 C9 1.494 . S
C1598 C401 1.486 . S
C1603 C75 1.479 . S
C1608 C359 1.466 . S
C1613 C93 1.460 . S
C1618 C369 1.472 . S
C1623 C65 1.452 . S
C1628 C341 1.467 . S
