# Generated by pormake.
# Topology snz, (6)-cn, num edge types: 1
# Building blocks:
#     Node 0, Type 0, BuildingBlock: CIFDUS_clean_sbu_1, # of connection points: 6
#     Node 1, Type 0, BuildingBlock: CIFDUS_clean_sbu_1, # of connection points: 6
#     Node 2, Type 0, BuildingBlock: CIFDUS_clean_sbu_1, # of connection points: 6
#     Node 3, Type 0, BuildingBlock: CIFDUS_clean_sbu_1, # of connection points: 6
#     Node 4, Type 0, BuildingBlock: CIFDUS_clean_sbu_1, # of connection points: 6
#     Node 5, Type 0, BuildingBlock: CIFDUS_clean_sbu_1, # of connection points: 6
#     Node 6, Type 0, BuildingBlock: CIFDUS_clean_sbu_1, # of connection points: 6
#     Node 7, Type 0, BuildingBlock: CIFDUS_clean_sbu_1, # of connection points: 6
#     Node 8, Type 0, BuildingBlock: CIFDUS_clean_sbu_1, # of connection points: 6
#     Edge 9, Type (0, 0), BuildingBlock: MIFKUJ_clean_linker_0, # of connection points: 2
#     Edge 10, Type (0, 0), BuildingBlock: MIFKUJ_clean_linker_0, # of connection points: 2
#     Edge 11, Type (0, 0), BuildingBlock: MIFKUJ_clean_linker_0, # of connection points: 2
#     Edge 12, Type (0, 0), BuildingBlock: MIFKUJ_clean_linker_0, # of connection points: 2
#     Edge 13, Type (0, 0), BuildingBlock: MIFKUJ_clean_linker_0, # of connection points: 2
#     Edge 14, Type (0, 0), BuildingBlock: MIFKUJ_clean_linker_0, # of connection points: 2
#     Edge 15, Type (0, 0), BuildingBlock: MIFKUJ_clean_linker_0, # of connection points: 2
#     Edge 16, Type (0, 0), BuildingBlock: MIFKUJ_clean_linker_0, # of connection points: 2
#     Edge 17, Type (0, 0), BuildingBlock: MIFKUJ_clean_linker_0, # of connection points: 2
#     Edge 18, Type (0, 0), BuildingBlock: MIFKUJ_clean_linker_0, # of connection points: 2
#     Edge 19, Type (0, 0), BuildingBlock: MIFKUJ_clean_linker_0, # of connection points: 2
#     Edge 20, Type (0, 0), BuildingBlock: MIFKUJ_clean_linker_0, # of connection points: 2
#     Edge 21, Type (0, 0), BuildingBlock: MIFKUJ_clean_linker_0, # of connection points: 2
#     Edge 22, Type (0, 0), BuildingBlock: MIFKUJ_clean_linker_0, # of connection points: 2
#     Edge 23, Type (0, 0), BuildingBlock: MIFKUJ_clean_linker_0, # of connection points: 2
#     Edge 24, Type (0, 0), BuildingBlock: MIFKUJ_clean_linker_0, # of connection points: 2
#     Edge 25, Type (0, 0), BuildingBlock: MIFKUJ_clean_linker_0, # of connection points: 2
#     Edge 26, Type (0, 0), BuildingBlock: MIFKUJ_clean_linker_0, # of connection points: 2
#     Edge 27, Type (0, 0), BuildingBlock: MIFKUJ_clean_linker_0, # of connection points: 2
#     Edge 28, Type (0, 0), BuildingBlock: MIFKUJ_clean_linker_0, # of connection points: 2
#     Edge 29, Type (0, 0), BuildingBlock: MIFKUJ_clean_linker_0, # of connection points: 2
#     Edge 30, Type (0, 0), BuildingBlock: MIFKUJ_clean_linker_0, # of connection points: 2
#     Edge 31, Type (0, 0), BuildingBlock: MIFKUJ_clean_linker_0, # of connection points: 2
#     Edge 32, Type (0, 0), BuildingBlock: MIFKUJ_clean_linker_0, # of connection points: 2
#     Edge 33, Type (0, 0), BuildingBlock: MIFKUJ_clean_linker_0, # of connection points: 2
#     Edge 34, Type (0, 0), BuildingBlock: MIFKUJ_clean_linker_0, # of connection points: 2
#     Edge 35, Type (0, 0), BuildingBlock: MIFKUJ_clean_linker_0, # of connection points: 2
# Relax obj value: 0.262
# Max RMSD: 0.273
# Mean RMSD: 0.244
data_MOF--net-snz--node1-CIFDUS_clean_sbu_1--edge1-MIFKUJ_clean_linker_0
_symmetry_space_group_name_H-M    P1
_symmetry_Int_Tables_number       1
_symmetry_cell_setting            triclinic
loop_
_symmetry_equiv_pos_as_xyz
'x, y, z'
_cell_length_a     63.503396
_cell_length_b     64.162279
_cell_length_c     18.852412
_cell_angle_alpha  91.873162
_cell_angle_beta   91.849704
_cell_angle_gamma 120.1034
loop_
_atom_site_label
_atom_site_type_symbol
_atom_site_fract_x
_atom_site_fract_y
_atom_site_fract_z
_atom_type_partial_charge
O0 O 0.0471 0.52884 0.06321 0.0
Mn1 Mn 0.02916 0.49279 0.02477 0.0
O2 O 0.01665 0.5329 0.10791 0.0
Mn3 Mn 0.99195 0.5005 0.10031 0.0
O4 O 0.01114 0.4568 0.98694 0.0
O5 O 0.05042 0.50082 0.93988 0.0
Mn6 Mn 0.06597 0.48467 0.94784 0.0
O7 O 0.05242 0.48572 0.09042 0.0
O8 O 0.04133 0.4521 0.94337 0.0
O9 O 0.00631 0.50016 0.95884 0.0
O10 O 0.97304 0.49011 0.01689 0.0
O11 O 0.07619 0.50062 0.86631 0.0
O12 O 0.0854 0.4964 0.02993 0.0
C13 C 0.9968 0.47747 0.16846 0.0
C14 C 0.03894 0.54166 0.09245 0.0
C15 C 0.0191 0.44362 0.95919 0.0
C16 C 0.06057 0.5074 0.87954 0.0
C17 C 0.07471 0.49083 0.08748 0.0
C18 C 0.98436 0.49609 0.96044 0.0
O19 O 0.00753 0.48437 0.109 0.0
O20 O 0.98093 0.48403 0.18054 0.0
O21 O 0.53276 0.46249 0.00262 0.0
Mn22 Mn 0.55223 0.50027 0.0119 0.0
O23 O 0.49592 0.4532 0.9531 0.0
Mn24 Mn 0.50159 0.48422 0.93935 0.0
O25 O 0.57095 0.53793 0.01932 0.0
O26 O 0.57187 0.49989 0.09761 0.0
Mn27 Mn 0.60313 0.51931 0.0868 0.0
O28 O 0.57839 0.50184 0.94179 0.0
O29 O 0.60692 0.54989 0.07897 0.0
O30 O 0.52621 0.49878 0.0826 0.0
O31 O 0.49656 0.4992 0.01641 0.0
O32 O 0.60136 0.50698 0.17437 0.0
O33 O 0.61081 0.50715 0.00848 0.0
C34 C 0.52752 0.50393 0.86277 0.0
C35 C 0.51071 0.44706 0.97975 0.0
C36 C 0.59178 0.55445 0.04673 0.0
C37 C 0.57807 0.49639 0.16018 0.0
C38 C 0.59936 0.50325 0.94855 0.0
C39 C 0.50671 0.50026 0.07665 0.0
O40 O 0.53288 0.50084 0.92663 0.0
O41 O 0.50444 0.49527 0.8489 0.0
O42 O 0.56376 0.98206 0.02819 0.0
Mn43 Mn 0.54252 0.99628 0.99334 0.0
O44 O 0.59826 0.01549 0.07219 0.0
Mn45 Mn 0.58777 0.03808 0.07017 0.0
O46 O 0.52159 0.0108 0.95922 0.0
O47 O 0.52918 0.97304 0.90655 0.0
Mn48 Mn 0.49742 0.95554 0.91014 0.0
O49 O 0.5135 0.97351 0.05632 0.0
O50 O 0.48738 0.97851 0.90955 0.0
O51 O 0.57122 0.01824 0.92981 0.0
O52 O 0.59243 0.05386 0.98702 0.0
O53 O 0.50485 0.946 0.82594 0.0
O54 O 0.49199 0.93897 0.9916 0.0
C55 C 0.55995 0.03105 0.14156 0.0
C56 C 0.58586 0.99276 0.05508 0.0
C57 C 0.49989 1.00095 0.93004 0.0
C58 C 0.52671 0.9635 0.84285 0.0
C59 C 0.49665 0.95114 0.05016 0.0
C60 C 0.58798 0.04048 0.93132 0.0
O61 O 0.55618 0.02004 0.07939 0.0
O62 O 0.58187 0.04908 0.15392 0.0
O63 O 0.72298 0.86161 0.19961 0.0
Mn64 Mn 0.7392 0.84169 0.22709 0.0
O65 O 0.75353 0.89612 0.16033 0.0
Mn66 Mn 0.7782 0.88815 0.16336 0.0
O67 O 0.75521 0.82134 0.25423 0.0
O68 O 0.71644 0.82723 0.30612 0.0
Mn69 Mn 0.69978 0.79582 0.29218 0.0
O70 O 0.71569 0.8137 0.15129 0.0
O71 O 0.72393 0.78718 0.29309 0.0
O72 O 0.76216 0.86979 0.30269 0.0
O73 O 0.79572 0.89493 0.24894 0.0
O74 O 0.69052 0.80269 0.37748 0.0
O75 O 0.68211 0.79017 0.20759 0.0
C76 C 0.77183 0.85977 0.08766 0.0
C77 C 0.73124 0.88269 0.17552 0.0
C78 C 0.74628 0.80004 0.27771 0.0
C79 C 0.70735 0.8246 0.36782 0.0
C80 C 0.6933 0.79658 0.15065 0.0
C81 C 0.78394 0.88806 0.30469 0.0
O82 O 0.76225 0.8566 0.14875 0.0
O83 O 0.78842 0.88188 0.07913 0.0
O84 O 0.19365 0.80876 0.3068 0.0
Mn85 Mn 0.21348 0.84506 0.3418 0.0
O86 O 0.1577 0.80452 0.26555 0.0
Mn87 Mn 0.16543 0.83682 0.2706 0.0
O88 O 0.23275 0.88129 0.37586 0.0
O89 O 0.23004 0.83827 0.42327 0.0
Mn90 Mn 0.26176 0.85501 0.41737 0.0
O91 O 0.24164 0.85157 0.27281 0.0
O92 O 0.26899 0.88728 0.41996 0.0
O93 O 0.18551 0.83795 0.41114 0.0
O94 O 0.16036 0.84767 0.35664 0.0
O95 O 0.25626 0.83952 0.50153 0.0
O96 O 0.26726 0.84349 0.33359 0.0
C97 C 0.19285 0.85823 0.19949 0.0
C98 C 0.17157 0.79581 0.28015 0.0
C99 C 0.25458 0.89511 0.40274 0.0
C100 C 0.23369 0.83289 0.48626 0.0
C101 C 0.25971 0.84772 0.2757 0.0
C102 C 0.16721 0.84133 0.41174 0.0
O103 O 0.19701 0.85234 0.26117 0.0
O104 O 0.17041 0.85265 0.18731 0.0
O105 O 0.25992 0.37162 0.3484 0.0
Mn106 Mn 0.22314 0.35389 0.37147 0.0
O107 O 0.26531 0.34091 0.31007 0.0
Mn108 Mn 0.23277 0.3157 0.30462 0.0
O109 O 0.18665 0.33573 0.39495 0.0
O110 O 0.22981 0.37703 0.45515 0.0
Mn111 Mn 0.21206 0.39074 0.44597 0.0
O112 O 0.21559 0.37467 0.3008 0.0
O113 O 0.17993 0.36463 0.44155 0.0
O114 O 0.23031 0.33363 0.44368 0.0
O115 O 0.22125 0.29923 0.38571 0.0
O116 O 0.22837 0.40125 0.53436 0.0
O117 O 0.22229 0.40756 0.36504 0.0
C118 C 0.21053 0.31943 0.22483 0.0
C119 C 0.27355 0.36338 0.32646 0.0
C120 C 0.17256 0.34262 0.4214 0.0
C121 C 0.23527 0.3858 0.52018 0.0
C122 C 0.21803 0.39588 0.30558 0.0
C123 C 0.2258 0.31179 0.44339 0.0
O124 O 0.21631 0.33048 0.28737 0.0
O125 O 0.21714 0.30346 0.21673 0.0
O126 O 0.38178 0.14734 0.76474 0.0
Mn127 Mn 0.36887 0.16862 0.72436 0.0
O128 O 0.35217 0.12229 0.8349 0.0
Mn129 Mn 0.32771 0.12937 0.80848 0.0
O130 O 0.35533 0.18952 0.68525 0.0
O131 O 0.40261 0.1971 0.72557 0.0
Mn132 Mn 0.40932 0.21014 0.64295 0.0
O133 O 0.37152 0.158 0.62077 0.0
O134 O 0.38551 0.21894 0.62676 0.0
O135 O 0.3667 0.17969 0.82801 0.0
O136 O 0.32888 0.155 0.85968 0.0
O137 O 0.43543 0.2299 0.7061 0.0
O138 O 0.40762 0.18592 0.58327 0.0
C139 C 0.31659 0.12014 0.69711 0.0
C140 C 0.37319 0.13055 0.80908 0.0
C141 C 0.36392 0.20849 0.64938 0.0
C142 C 0.42179 0.21589 0.75332 0.0
C143 C 0.38835 0.16527 0.5762 0.0
C144 C 0.34955 0.17409 0.87078 0.0
O145 O 0.33519 0.1399 0.72303 0.0
O146 O 0.30249 0.10743 0.7456 0.0
O147 O 0.91419 0.1801 0.6272 0.0
Mn148 Mn 0.87926 0.16161 0.66444 0.0
O149 O 0.91041 0.20196 0.54104 0.0
Mn150 Mn 0.87902 0.19637 0.55727 0.0
O151 O 0.84421 0.14348 0.69969 0.0
O152 O 0.8823 0.13239 0.68218 0.0
Mn153 Mn 0.87672 0.12525 0.77139 0.0
O154 O 0.89259 0.17671 0.76796 0.0
O155 O 0.84465 0.11872 0.78121 0.0
O156 O 0.86595 0.14624 0.56098 0.0
O157 O 0.85336 0.16929 0.51144 0.0
O158 O 0.8817 0.10183 0.72982 0.0
O159 O 0.90103 0.15146 0.82393 0.0
C160 C 0.8758 0.21076 0.6577 0.0
C161 C 0.92286 0.19467 0.57656 0.0
C162 C 0.83368 0.12755 0.74565 0.0
C163 C 0.88278 0.11261 0.67211 0.0
C164 C 0.90226 0.17176 0.82085 0.0
C165 C 0.85434 0.15003 0.51079 0.0
O166 O 0.87623 0.19092 0.64798 0.0
O167 O 0.87531 0.2206 0.59935 0.0
O168 O 0.83876 0.63495 0.62398 0.0
Mn169 Mn 0.87424 0.65372 0.58958 0.0
O170 O 0.83656 0.66161 0.70039 0.0
Mn171 Mn 0.8672 0.68888 0.6894 0.0
O172 O 0.90971 0.67297 0.55715 0.0
O173 O 0.87515 0.62306 0.5765 0.0
Mn174 Mn 0.88442 0.6203 0.49165 0.0
O175 O 0.86055 0.65074 0.48525 0.0
O176 O 0.91591 0.64716 0.48931 0.0
O177 O 0.88816 0.65678 0.69325 0.0
O178 O 0.89303 0.69109 0.74374 0.0
O179 O 0.88072 0.59409 0.53976 0.0
O180 O 0.86063 0.61922 0.43022 0.0
C181 C 0.87138 0.70226 0.58418 0.0
C182 C 0.8271 0.64071 0.6679 0.0
C183 C 0.92344 0.66796 0.52031 0.0
C184 C 0.8767 0.60453 0.59317 0.0
C185 C 0.85477 0.63553 0.43198 0.0
C186 C 0.89693 0.67346 0.74319 0.0
O187 O 0.87375 0.68442 0.60265 0.0
O188 O 0.86854 0.71361 0.63754 0.0
H189 H 0.01298 0.48915 0.83293 0.0
H190 H 1.00012 0.48571 0.70767 0.0
H191 H 0.07454 0.53453 0.65906 0.0
H192 H 0.08696 0.53963 0.78483 0.0
H193 H 0.04586 0.53523 0.55789 0.0
H194 H 0.05193 0.47028 0.67147 0.0
H195 H 0.04066 0.44218 0.7684 0.0
H196 H 0.96492 0.41142 0.70447 0.0
H197 H 0.97579 0.43907 0.60652 0.0
H198 H 0.04402 0.49467 0.21722 0.0
H199 H 0.05611 0.4974 0.34293 0.0
H200 H 0.98115 0.44925 0.38782 0.0
H201 H 0.96941 0.44507 0.26169 0.0
H202 H 0.00963 0.44793 0.49091 0.0
H203 H 0.00385 0.5118 0.37342 0.0
H204 H 0.01539 0.53989 0.2765 0.0
H205 H 0.09063 0.57348 0.34973 0.0
H206 H 0.07954 0.54549 0.44688 0.0
C207 C 0.02623 0.50068 0.79664 0.0
C208 C 0.05099 0.51471 0.81889 0.0
C209 C 0.01901 0.49812 0.72429 0.0
C210 C 0.03659 0.50883 0.6733 0.0
C211 C 0.06064 0.52567 0.69687 0.0
C212 C 0.06772 0.52874 0.76915 0.0
C213 C 0.03121 0.49968 0.59718 0.0
C214 C 0.03804 0.51617 0.54345 0.0
C215 C 0.02104 0.47479 0.57758 0.0
C216 C 0.01465 0.45666 0.6318 0.0
C217 C 0.0329 0.45729 0.67765 0.0
C218 C 0.02659 0.44152 0.73284 0.0
C219 C 1.00209 0.42508 0.74262 0.0
C220 C 0.98388 0.42418 0.69677 0.0
C221 C 0.99011 0.43972 0.64103 0.0
C222 C 0.03045 0.48315 0.25277 0.0
C223 C 0.00574 0.46966 0.22945 0.0
C224 C 0.03726 0.48521 0.32534 0.0
C225 C 0.01934 0.47448 0.37543 0.0
C226 C 0.99529 0.45808 0.35069 0.0
C227 C 0.9886 0.45557 0.27821 0.0
C228 C 0.0244 0.48351 0.45165 0.0
C229 C 0.01748 0.46699 0.50536 0.0
C230 C 0.03448 0.50839 0.47126 0.0
C231 C 0.04089 0.52655 0.4171 0.0
C232 C 0.02283 0.5253 0.36906 0.0
C233 C 0.0293 0.54108 0.31392 0.0
C234 C 0.05374 0.55827 0.30671 0.0
C235 C 0.07173 0.56 0.3552 0.0
C236 C 0.06536 0.54429 0.4105 0.0
H237 H 0.05872 0.57051 0.26424 0.0
H238 H 0.99722 0.41287 0.78525 0.0
H239 H 0.53311 0.53587 0.76576 0.0
H240 H 0.54501 0.53457 0.64463 0.0
H241 H 0.56934 0.48534 0.7037 0.0
H242 H 0.55568 0.48524 0.82326 0.0
H243 H 0.58116 0.53993 0.56418 0.0
H244 H 0.54773 0.43971 0.58048 0.0
H245 H 0.52454 0.40669 0.65955 0.0
H246 H 0.4825 0.43934 0.71959 0.0
H247 H 0.50522 0.47234 0.64014 0.0
H248 H 0.57482 0.46261 0.24723 0.0
H249 H 0.56566 0.46216 0.37221 0.0
H250 H 0.53809 0.51027 0.33395 0.0
H251 H 0.54809 0.51139 0.20963 0.0
H252 H 0.53049 0.45555 0.46415 0.0
H253 H 0.56758 0.55807 0.45405 0.0
H254 H 0.59207 0.59107 0.37635 0.0
H255 H 0.62824 0.55357 0.30441 0.0
H256 H 0.60428 0.52058 0.38243 0.0
C257 C 0.54207 0.52568 0.75363 0.0
C258 C 0.54397 0.51107 0.80419 0.0
C259 C 0.5488 0.52487 0.68433 0.0
C260 C 0.55743 0.50934 0.66468 0.0
C261 C 0.56229 0.49713 0.71751 0.0
C262 C 0.5551 0.49757 0.78658 0.0
C263 C 0.55719 0.50298 0.58816 0.0
C264 C 0.56995 0.52152 0.5423 0.0
C265 C 0.54289 0.47886 0.5596 0.0
C266 C 0.52829 0.45854 0.60484 0.0
C267 C 0.5334 0.43971 0.61015 0.0
C268 C 0.52037 0.42103 0.65512 0.0
C269 C 0.50211 0.42095 0.69474 0.0
C270 C 0.49668 0.43944 0.68898 0.0
C271 C 0.5096 0.45811 0.64394 0.0
C272 C 0.56548 0.47194 0.26471 0.0
C273 C 0.56182 0.48675 0.21874 0.0
C274 C 0.56043 0.47183 0.33626 0.0
C275 C 0.55183 0.4867 0.3626 0.0
C276 C 0.54507 0.49894 0.3147 0.0
C277 C 0.55028 0.49916 0.24317 0.0
C278 C 0.55397 0.49258 0.44014 0.0
C279 C 0.54168 0.47395 0.48606 0.0
C280 C 0.56881 0.5166 0.46881 0.0
C281 C 0.58394 0.53675 0.42354 0.0
C282 C 0.58087 0.55695 0.42196 0.0
C283 C 0.59464 0.57564 0.37781 0.0
C284 C 0.61163 0.57438 0.33527 0.0
C285 C 0.61502 0.5545 0.3372 0.0
C286 C 0.60135 0.5358 0.38137 0.0
H287 H 0.6222 0.58881 0.30092 0.0
H288 H 0.49215 0.40655 0.72982 0.0
H289 H 0.53888 0.94197 0.74002 0.0
H290 H 0.54609 0.95457 0.61873 0.0
H291 H 0.55514 0.02362 0.68646 0.0
H292 H 0.54661 0.01037 0.80755 0.0
H293 H 0.52178 0.00518 0.58799 0.0
H294 H 0.60525 0.02012 0.57952 0.0
H295 H 0.63964 0.01258 0.5926 0.0
H296 H 0.59553 0.94182 0.49167 0.0
H297 H 0.56133 0.94949 0.47421 0.0
H298 H 0.55249 0.05515 0.24816 0.0
H299 H 0.54617 0.0431 0.37032 0.0
H300 H 0.53049 0.97173 0.30123 0.0
H301 H 0.53805 0.98425 0.17905 0.0
H302 H 0.56617 0.99053 0.39952 0.0
H303 H 0.48897 0.98625 0.37528 0.0
H304 H 0.4614 0.00162 0.34535 0.0
H305 H 0.49651 0.05734 0.51178 0.0
H306 H 0.52523 0.04322 0.54031 0.0
C307 C 0.54381 0.96035 0.72985 0.0
C308 C 0.54264 0.9753 0.78391 0.0
C309 C 0.54787 0.96759 0.65994 0.0
C310 C 0.55111 0.99011 0.64242 0.0
C311 C 0.55261 0.00611 0.69806 0.0
C312 C 0.54833 0.99875 0.76807 0.0
C313 C 0.54872 0.9951 0.56626 0.0
C314 C 0.5319 0.00244 0.54703 0.0
C315 C 0.56102 0.99066 0.5117 0.0
C316 C 0.58066 0.98518 0.52695 0.0
C317 C 0.60283 0.00286 0.5609 0.0
C318 C 0.62235 0.99866 0.56838 0.0
C319 C 0.61965 0.9766 0.54408 0.0
C320 C 0.59755 0.95884 0.5109 0.0
C321 C 0.57818 0.96319 0.50148 0.0
C322 C 0.54644 0.03651 0.25846 0.0
C323 C 0.54531 0.02054 0.20362 0.0
C324 C 0.54298 0.02964 0.32868 0.0
C325 C 0.5379 0.00647 0.34558 0.0
C326 C 0.53442 0.98972 0.28975 0.0
C327 C 0.53812 0.9967 0.21936 0.0
C328 C 0.53952 1.00095 0.42136 0.0
C329 C 0.55604 0.99329 0.44044 0.0
C330 C 0.52724 0.0056 0.47567 0.0
C331 C 0.50946 0.01372 0.45965 0.0
C332 C 0.49104 0.00194 0.40511 0.0
C333 C 0.47519 0.01046 0.38831 0.0
C334 C 0.4771 0.03035 0.42687 0.0
C335 C 0.49501 0.0419 0.48201 0.0
C336 C 0.51116 0.03371 0.4983 0.0
H337 H 0.46473 0.03682 0.41397 0.0
H338 H 0.63474 0.97335 0.5505 0.0
H339 H 0.68646 0.83901 0.46518 0.0
H340 H 0.69927 0.84693 0.5913 0.0
H341 H 0.76719 0.851 0.54387 0.0
H342 H 0.7542 0.84288 0.41745 0.0
H343 H 0.74152 0.8157 0.63353 0.0
H344 H 0.76654 0.89918 0.62252 0.0
H345 H 0.76238 0.93407 0.59198 0.0
H346 H 0.70129 0.9102 0.72326 0.0
H347 H 0.70483 0.87498 0.75396 0.0
H348 H 0.79338 0.84612 0.99029 0.0
H349 H 0.7813 0.83917 0.86361 0.0
H350 H 0.71308 0.8347 0.90919 0.0
H351 H 0.72526 0.84171 0.0362 0.0
H352 H 0.73926 0.87056 0.82059 0.0
H353 H 0.71358 0.78702 0.83019 0.0
H354 H 0.71688 0.7516 0.85986 0.0
H355 H 0.77857 0.77524 0.73117 0.0
H356 H 0.77585 0.81099 0.7013 0.0
C357 C 0.70474 0.8431 0.48122 0.0
C358 C 0.7195 0.84079 0.43136 0.0
C359 C 0.71197 0.84736 0.55356 0.0
C360 C 0.7341 0.8493 0.57737 0.0
C361 C 0.74999 0.84949 0.52681 0.0
C362 C 0.7428 0.84539 0.45424 0.0
C363 C 0.73876 0.84746 0.65428 0.0
C364 C 0.74152 0.828 0.6744 0.0
C365 C 0.7378 0.86291 0.70777 0.0
C366 C 0.73582 0.88427 0.69006 0.0
C367 C 0.7521 0.90125 0.64453 0.0
C368 C 0.7499 0.92113 0.62732 0.0
C369 C 0.7316 0.92434 0.65569 0.0
C370 C 0.71548 0.9077 0.7014 0.0
C371 C 0.7176 0.88779 0.71883 0.0
C372 C 0.77519 0.84214 0.97362 0.0
C373 C 0.76009 0.84399 0.02318 0.0
C374 C 0.76839 0.83848 0.901 0.0
C375 C 0.74639 0.83672 0.87664 0.0
C376 C 0.73019 0.83612 0.9267 0.0
C377 C 0.73692 0.83958 -0.00047 0.0
C378 C 0.74203 0.83881 0.79974 0.0
C379 C 0.73932 0.8583 0.77967 0.0
C380 C 0.74299 0.82337 0.74628 0.0
C381 C 0.74464 0.80183 0.76398 0.0
C382 C 0.72798 0.7848 0.80866 0.0
C383 C 0.72972 0.76463 0.82546 0.0
C384 C 0.74797 0.76122 0.79764 0.0
C385 C 0.76446 0.77793 0.75275 0.0
C386 C 0.76281 0.79813 0.73577 0.0
H387 H 0.74929 0.7456 0.81073 0.0
H388 H 0.72992 0.93974 0.64227 0.0
H389 H 0.21973 0.79796 0.57985 0.0
H390 H 0.2114 0.80233 0.70353 0.0
H391 H 0.20797 0.8659 0.65631 0.0
H392 H 0.21603 0.86131 0.53216 0.0
H393 H 0.24303 0.87467 0.76304 0.0
H394 H 0.15904 0.81895 0.71023 0.0
H395 H 0.12296 0.78143 0.66215 0.0
H396 H 0.14073 0.7403 0.80194 0.0
H397 H 0.17724 0.7776 0.85025 0.0
H398 H 0.20471 0.89228 0.10371 0.0
H399 H 0.21283 0.88796 0.97971 0.0
H400 H 0.21888 0.82585 0.02752 0.0
H401 H 0.21106 0.83039 0.152 0.0
H402 H 0.18267 0.81641 0.92066 0.0
H403 H 0.26645 0.8739 0.97687 0.0
H404 H 0.30126 0.91232 0.02579 0.0
H405 H 0.28285 0.95116 0.87872 0.0
H406 H 0.24747 0.91301 0.8301 0.0
C407 C 0.21573 0.812 0.59494 0.0
C408 C 0.21794 0.82893 0.54599 0.0
C409 C 0.21131 0.81471 0.66595 0.0
C410 C 0.20935 0.83463 0.68957 0.0
C411 C 0.2095 0.85044 0.63941 0.0
C412 C 0.21357 0.8475 0.56803 0.0
C413 C 0.21004 0.84033 0.76726 0.0
C414 C 0.22959 0.86212 0.79738 0.0
C415 C 0.19295 0.82364 0.81239 0.0
C416 C 0.17107 0.80109 0.78337 0.0
C417 C 0.15543 0.80189 0.73026 0.0
C418 C 0.13485 0.78065 0.70303 0.0
C419 C 0.12957 0.75847 0.72878 0.0
C420 C 0.14486 0.75749 0.78195 0.0
C421 C 0.1655 0.7787 0.80933 0.0
C422 C 0.20916 0.87856 0.08857 0.0
C423 C 0.20783 0.86204 0.13784 0.0
C424 C 0.21348 0.8759 0.01745 0.0
C425 C 0.21621 0.85642 0.99404 0.0
C426 C 0.21678 0.84098 0.04434 0.0
C427 C 0.21283 0.8439 0.11585 0.0
C428 C 0.21566 0.85075 0.91644 0.0
C429 C 0.19613 0.82896 0.88634 0.0
C430 C 0.23268 0.86753 0.87132 0.0
C431 C 0.2541 0.89054 0.90017 0.0
C432 C 0.26964 0.89063 0.95533 0.0
C433 C 0.28952 0.91237 0.98296 0.0
C434 C 0.29427 0.93416 0.95535 0.0
C435 C 0.27914 0.93425 0.90006 0.0
C436 C 0.25915 0.91257 0.87246 0.0
H437 H 0.30969 0.95097 0.97676 0.0
H438 H 0.1136 0.74204 0.70766 0.0
H439 H 0.26945 0.40686 0.62811 0.0
H440 H 0.26452 0.39292 0.74861 0.0
H441 H 0.20247 0.32484 0.67288 0.0
H442 H 0.2072 0.33907 0.55238 0.0
H443 H 0.19005 0.34441 0.77654 0.0
H444 H 0.25392 0.32782 0.74895 0.0
H445 H 0.29411 0.33438 0.71774 0.0
H446 H 0.32932 0.39408 0.87233 0.0
H447 H 0.28935 0.38812 0.90399 0.0
H448 H 0.17738 0.29313 0.11809 0.0
H449 H 0.18093 0.30374 0.99399 0.0
H450 H 0.23786 0.37612 0.05781 0.0
H451 H 0.2343 0.36543 0.18232 0.0
H452 H 0.25199 0.35245 0.95927 0.0
H453 H 0.18384 0.36433 0.98994 0.0
H454 H 0.14223 0.35145 0.02481 0.0
H455 H 0.11287 0.2948 0.86 0.0
H456 H 0.15441 0.30634 0.82696 0.0
C457 C 0.25565 0.38842 0.63653 0.0
C458 C 0.23919 0.37383 0.58041 0.0
C459 C 0.25264 0.38051 0.70571 0.0
C460 C 0.233 0.35783 0.72029 0.0
C461 C 0.21774 0.34241 0.66318 0.0
C462 C 0.22082 0.35034 0.59381 0.0
C463 C 0.22686 0.35167 0.79542 0.0
C464 C 0.20349 0.34577 0.81624 0.0
C465 C 0.24444 0.35381 0.8477 0.0
C466 C 0.2686 0.35765 0.82844 0.0
C467 C 0.27023 0.3425 0.77588 0.0
C468 C 0.29298 0.34607 0.75818 0.0
C469 C 0.31425 0.36466 0.79288 0.0
C470 C 0.31282 0.3797 0.84545 0.0
C471 C 0.29012 0.37621 0.86337 0.0
C472 C 0.1897 0.31166 0.106 0.0
C473 C 0.20517 0.32858 0.16005 0.0
C474 C 0.19196 0.31764 0.03488 0.0
C475 C 0.20984 0.34067 0.01635 0.0
C476 C 0.22398 0.35821 0.07083 0.0
C477 C 0.22154 0.35227 0.14222 0.0
C478 C 0.21536 0.34553 0.94037 0.0
C479 C 0.2386 0.35115 0.91946 0.0
C480 C 0.19744 0.34253 0.88785 0.0
C481 C 0.17237 0.33608 0.90634 0.0
C482 C 0.16857 0.34892 0.96164 0.0
C483 C 0.14496 0.3418 0.98126 0.0
C484 C 0.1249 0.32239 0.94444 0.0
C485 C 0.12843 0.30985 0.88847 0.0
C486 C 0.15203 0.31659 0.86955 0.0
H487 H 0.10663 0.31707 0.95929 0.0
H488 H 0.33184 0.36737 0.77914 0.0
H489 H 0.34416 0.13942 0.50478 0.0
H490 H 0.3384 0.13586 0.3761 0.0
H491 H 0.41484 0.16051 0.35815 0.0
H492 H 0.42074 0.16417 0.48748 0.0
H493 H 0.40273 0.19292 0.31556 0.0
H494 H 0.3723 0.10906 0.26889 0.0
H495 H 0.34669 0.06533 0.2824 0.0
H496 H 0.28244 0.06888 0.22812 0.0
H497 H 0.30759 0.11272 0.21529 0.0
H498 H 0.3949 0.19817 0.93762 0.0
H499 H 0.40281 0.1972 0.06377 0.0
H500 H 0.32708 0.17135 0.09925 0.0
H501 H 0.3189 0.17201 0.97221 0.0
H502 H 0.34084 0.13842 0.12917 0.0
H503 H 0.37078 0.22266 0.22808 0.0
H504 H 0.39561 0.26707 0.22663 0.0
H505 H 0.45888 0.26185 0.18389 0.0
H506 H 0.43444 0.21744 0.18656 0.0
C507 C 0.35945 0.14262 0.47368 0.0
C508 C 0.38302 0.15262 0.50584 0.0
C509 C 0.35614 0.14065 0.3998 0.0
C510 C 0.37634 0.14849 0.35781 0.0
C511 C 0.39911 0.15468 0.3899 0.0
C512 C 0.40244 0.15672 0.46372 0.0
C513 C 0.37497 0.15615 0.28568 0.0
C514 C 0.38958 0.18081 0.27413 0.0
C515 C 0.35714 0.14062 0.23304 0.0
C516 C 0.34187 0.11426 0.24147 0.0
C517 C 0.35269 0.10059 0.26048 0.0
C518 C 0.33826 0.07577 0.26788 0.0
C519 C 0.31298 0.06438 0.25604 0.0
C520 C 0.30204 0.07776 0.23713 0.0
C521 C 0.31638 0.10259 0.22969 0.0
C522 C 0.38014 0.19356 0.9724 0.0
C523 C 0.3561 0.18447 0.94464 0.0
C524 C 0.38472 0.19291 0.04492 0.0
C525 C 0.36541 0.1837 0.09055 0.0
C526 C 0.34214 0.1782 0.06453 0.0
C527 C 0.33753 0.17873 0.99197 0.0
C528 C 0.36838 0.17515 0.15985 0.0
C529 C 0.35409 0.15036 0.17061 0.0
C530 C 0.38637 0.19048 0.21215 0.0
C531 C 0.40079 0.21688 0.20649 0.0
C532 C 0.38997 0.23105 0.21808 0.0
C533 C 0.404 0.25619 0.21771 0.0
C534 C 0.42881 0.26728 0.20523 0.0
C535 C 0.43967 0.25325 0.19351 0.0
C536 C 0.42577 0.22811 0.19473 0.0
H537 H 0.43959 0.28673 0.20435 0.0
H538 H 0.30189 0.04517 0.26117 0.0
H539 H 0.81978 0.14156 0.40694 0.0
H540 H 0.82798 0.14394 0.28126 0.0
H541 H 0.89045 0.13596 0.32728 0.0
H542 H 0.88216 0.13332 0.45312 0.0
H543 H 0.90295 0.18034 0.28092 0.0
H544 H 0.84824 0.09804 0.19206 0.0
H545 H 0.8094 0.05943 0.17459 0.0
H546 H 0.77383 0.09668 0.09609 0.0
H547 H 0.81255 0.13546 0.11236 0.0
H548 H 0.93685 0.17964 0.92362 0.0
H549 H 0.92984 0.18035 0.0498 0.0
H550 H 0.87068 0.19327 0.00098 0.0
H551 H 0.87773 0.19271 0.87464 0.0
H552 H 0.85596 0.14799 0.04995 0.0
H553 H 0.91421 0.22864 0.11149 0.0
H554 H 0.95353 0.2667 0.12317 0.0
H555 H 0.98333 0.23403 0.25707 0.0
H556 H 0.94473 0.19524 0.24294 0.0
C557 C 0.83435 0.13878 0.38967 0.0
C558 C 0.85071 0.13793 0.43991 0.0
C559 C 0.83913 0.1403 0.31769 0.0
C560 C 0.86023 0.1408 0.29525 0.0
C561 C 0.87427 0.13597 0.34379 0.0
C562 C 0.86931 0.13415 0.41574 0.0
C563 C 0.87028 0.15153 0.22718 0.0
C564 C 0.89303 0.17299 0.22992 0.0
C565 C 0.85664 0.14269 0.16169 0.0
C566 C 0.83316 0.11962 0.15441 0.0
C567 C 0.83206 0.09799 0.17182 0.0
C568 C 0.81012 0.07607 0.16162 0.0
C569 C 0.78912 0.07562 0.13473 0.0
C570 C 0.79008 0.09706 0.11724 0.0
C571 C 0.81203 0.11899 0.1266 0.0
C572 C 0.92338 0.18418 0.94017 0.0
C573 C 0.90743 0.1855 0.88946 0.0
C574 C 0.91928 0.18443 0.01237 0.0
C575 C 0.89928 0.18613 0.03431 0.0
C576 C 0.886 0.19158 0.98475 0.0
C577 C 0.89026 0.19157 0.91251 0.0
C578 C 0.88901 0.17657 0.10312 0.0
C579 C 0.86608 0.15538 0.1007 0.0
C580 C 0.90267 0.1857 0.16871 0.0
C581 C 0.92645 0.20878 0.17528 0.0
C582 C 0.92926 0.22932 0.14216 0.0
C583 C 0.95147 0.25105 0.14922 0.0
C584 C 0.97094 0.2527 0.19049 0.0
C585 C 0.96829 0.23258 0.2245 0.0
C586 C 0.94625 0.21067 0.21671 0.0
H587 H 0.98806 0.2696 0.19641 0.0
H588 H 0.77214 0.05864 0.12717 0.0
H589 H 0.86996 0.6795 0.38058 0.0
H590 H 0.87701 0.68696 0.25575 0.0
H591 H 0.83143 0.61075 0.20097 0.0
H592 H 0.82498 0.60317 0.3266 0.0
H593 H 0.87685 0.62556 0.17134 0.0
H594 H 0.82028 0.65264 0.09446 0.0
H595 H 0.79889 0.67578 0.10389 0.0
H596 H 0.86737 0.74129 0.14647 0.0
H597 H 0.88915 0.71856 0.13536 0.0
H598 H 0.88101 0.6301 0.79924 0.0
H599 H 0.87879 0.62434 0.92551 0.0
H600 H 0.92815 0.7006 0.96934 0.0
H601 H 0.93003 0.70654 0.84191 0.0
H602 H 0.88357 0.6873 0.00807 0.0
H603 H 0.93838 0.65727 0.04358 0.0
H604 H 0.95614 0.63177 0.01465 0.0
H605 H 0.88737 0.56807 0.04216 0.0
H606 H 0.86905 0.59316 0.0704 0.0
C607 C 0.86021 0.6645 0.34172 0.0
C608 C 0.84751 0.64069 0.36305 0.0
C609 C 0.86438 0.66878 0.27003 0.0
C610 C 0.85526 0.6493 0.21927 0.0
C611 C 0.839 0.62596 0.23959 0.0
C612 C 0.8351 0.62167 0.31127 0.0
C613 C 0.86685 0.6525 0.15072 0.0
C614 C 0.87799 0.63879 0.13491 0.0
C615 C 0.8692 0.67035 0.10485 0.0
C616 C 0.85625 0.68392 0.11497 0.0
C617 C 0.83072 0.67197 0.1061 0.0
C618 C 0.81857 0.68504 0.11094 0.0
C619 C 0.83177 0.71 0.12576 0.0
C620 C 0.85717 0.72197 0.13502 0.0
C621 C 0.86944 0.70904 0.12897 0.0
C622 C 0.89268 0.64543 0.83538 0.0
C623 C 0.90528 0.66886 0.81115 0.0
C624 C 0.89132 0.64211 0.90802 0.0
C625 C 0.9029 0.66215 0.95674 0.0
C626 C 0.91884 0.68498 0.93234 0.0
C627 C 0.91998 0.68834 0.85964 0.0
C628 C 0.89345 0.66024 0.02813 0.0
C629 C 0.8827 0.67422 0.04471 0.0
C630 C 0.89117 0.64232 0.07387 0.0
C631 C 0.9023 0.62715 0.0589 0.0
C632 C 0.92699 0.63783 0.04322 0.0
C633 C 0.93716 0.62344 0.02695 0.0
C634 C 0.92288 0.59833 0.02653 0.0
C635 C 0.89841 0.58754 0.04262 0.0
C636 C 0.88814 0.60184 0.05895 0.0
H637 H 0.93079 0.58725 0.01382 0.0
H638 H 0.8223 0.72003 0.13034 0.0
H639 H 0.17668 0.36913 0.22051 0.0
H640 H 0.15123 0.38494 0.17487 0.0
H641 H 0.21067 0.4576 0.22068 0.0
H642 H 0.23593 0.44185 0.26708 0.0
H643 H 0.17283 0.4491 0.29577 0.0
H644 H 0.18549 0.43709 0.05481 0.0
H645 H 0.18644 0.41696 0.94244 0.0
H646 H 0.10905 0.36922 0.94133 0.0
H647 H 0.10768 0.3886 0.05486 0.0
H648 H 0.12027 0.5157 0.1501 0.0
H649 H 0.14398 0.49727 0.18939 0.0
H650 H 0.07889 0.42718 0.17177 0.0
H651 H 0.055 0.44573 0.13417 0.0
H652 H 0.11718 0.43229 0.0842 0.0
H653 H 0.10585 0.44612 0.32734 0.0
H654 H 0.10597 0.47017 0.43219 0.0
H655 H 0.18302 0.51788 0.42128 0.0
H656 H 0.18331 0.49433 0.31562 0.0
C657 C 0.18477 0.38846 0.21701 0.0
C658 C 0.20823 0.40428 0.24805 0.0
C659 C 0.17008 0.39751 0.19157 0.0
C660 C 0.17882 0.42249 0.19602 0.0
C661 C 0.20337 0.43826 0.21778 0.0
C662 C 0.21795 0.42925 0.24343 0.0
C663 C 0.16173 0.432 0.19012 0.0
C664 C 0.16092 0.44564 0.24892 0.0
C665 C 0.14555 0.42687 0.13012 0.0
C666 C 0.14653 0.41416 0.06405 0.0
C667 C 0.16872 0.42202 0.03143 0.0
C668 C 0.16931 0.41083 0.96723 0.0
C669 C 0.1478 0.39194 0.93455 0.0
C670 C 0.12568 0.38397 0.96649 0.0
C671 C 0.125 0.39499 0.03094 0.0
C672 C 0.11081 0.49657 0.15874 0.0
C673 C 0.08577 0.48219 0.14012 0.0
C674 C 0.12441 0.48598 0.18022 0.0
C675 C 0.11325 0.46081 0.1825 0.0
C676 C 0.08786 0.44663 0.17006 0.0
C677 C 0.07415 0.45729 0.14991 0.0
C678 C 0.12856 0.44939 0.1894 0.0
C679 C 0.12901 0.43544 0.13102 0.0
C680 C 0.14463 0.45442 0.2493 0.0
C681 C 0.14455 0.46855 0.31314 0.0
C682 C 0.12279 0.46185 0.34691 0.0
C683 C 0.12279 0.47538 0.40657 0.0
C684 C 0.14448 0.49557 0.4333 0.0
C685 C 0.16623 0.50224 0.40049 0.0
C686 C 0.16632 0.48879 0.34075 0.0
H687 H 0.14444 0.50602 0.47949 0.0
H688 H 0.14829 0.38336 0.88472 0.0
H689 H 0.61697 0.59225 0.14298 0.0
H690 H 0.63297 0.63499 0.12515 0.0
H691 H 0.60215 0.61733 0.90909 0.0
H692 H 0.58472 0.57431 0.92882 0.0
H693 H 0.66511 0.66339 0.04943 0.0
H694 H 0.5954 0.66316 0.8463 0.0
H695 H 0.55163 0.63876 0.80963 0.0
H696 H 0.53577 0.61304 0.01973 0.0
H697 H 0.57939 0.63749 0.05775 0.0
H698 H 0.71532 0.78605 0.04244 0.0
H699 H 0.69717 0.74675 0.9771 0.0
H700 H 0.62742 0.7272 0.06 0.0
H701 H 0.64492 0.76673 0.12001 0.0
H702 H 0.61783 0.69966 0.95436 0.0
H703 H 0.67624 0.72152 0.15726 0.0
H704 H 0.71647 0.7453 0.2202 0.0
H705 H 0.74933 0.72679 0.05229 0.0
H706 H 0.70903 0.70285 0.98801 0.0
C707 C 0.61328 0.59751 0.09212 0.0
C708 C 0.59947 0.58003 0.03751 0.0
C709 C 0.62259 0.62197 0.08162 0.0
C710 C 0.61887 0.62963 0.01564 0.0
C711 C 0.60495 0.61206 0.96094 0.0
C712 C 0.595 0.58746 0.97218 0.0
C713 C 0.63019 0.65601 0.0049 0.0
C714 C 0.65471 0.67121 0.02809 0.0
C715 C 0.61693 0.6665 0.97654 0.0
C716 C 0.59067 0.65188 0.95448 0.0
C717 C 0.58255 0.65232 0.88462 0.0
C718 C 0.55777 0.63848 0.86363 0.0
C719 C 0.54094 0.62428 0.91224 0.0
C720 C 0.54884 0.62396 0.98204 0.0
C721 C 0.57358 0.63778 0.00331 0.0
C722 C 0.69584 0.77389 0.04334 0.0
C723 C 0.68171 0.77915 0.08846 0.0
C724 C 0.6855 0.75119 0.00679 0.0
C725 C 0.66117 0.73336 0.01671 0.0
C726 C 0.64633 0.74022 0.05231 0.0
C727 C 0.65644 0.76298 0.08706 0.0
C728 C 0.65223 0.70703 0.00317 0.0
C729 C 0.62832 0.69176 0.97427 0.0
C730 C 0.66559 0.69638 0.0297 0.0
C731 C 0.68979 0.71071 0.06762 0.0
C732 C 0.69209 0.72262 0.13372 0.0
C733 C 0.71491 0.73613 0.1696 0.0
C734 C 0.73556 0.7377 0.14025 0.0
C735 C 0.73335 0.72563 0.0749 0.0
C736 C 0.71052 0.71208 0.03869 0.0
H737 H 0.75324 0.74817 0.16817 0.0
H738 H 0.52178 0.61357 0.89586 0.0
H739 H 0.47999 0.97564 0.13065 0.0
H740 H 0.43844 0.9581 0.17054 0.0
H741 H 0.426 0.8867 0.11845 0.0
H742 H 0.46731 0.90411 0.07809 0.0
H743 H 0.39367 0.89368 0.04719 0.0
H744 H 0.42503 0.90586 0.28579 0.0
H745 H 0.44901 0.92614 0.39741 0.0
H746 H 0.41683 0.97108 0.40665 0.0
H747 H 0.39326 0.95169 0.29367 0.0
H748 H 0.28037 0.82357 0.21725 0.0
H749 H 0.3209 0.84294 0.1695 0.0
H750 H 0.32168 0.91051 0.1702 0.0
H751 H 0.28071 0.89094 0.21571 0.0
H752 H 0.35919 0.90758 0.26371 0.0
H753 H 0.32759 0.89356 0.02143 0.0
H754 H 0.30113 0.86904 0.91728 0.0
H755 H 0.33226 0.82319 0.9251 0.0
H756 H 0.35875 0.84731 0.0297 0.0
C757 C 0.46881 0.95618 0.1309 0.0
C758 C 0.47686 0.94126 0.10049 0.0
C759 C 0.44491 0.94615 0.15312 0.0
C760 C 0.42885 0.92106 0.14599 0.0
C761 C 0.43788 0.90611 0.12333 0.0
C762 C 0.46163 0.91609 0.10104 0.0
C763 C 0.40213 0.91054 0.15322 0.0
C764 C 0.38621 0.89658 0.09501 0.0
C765 C 0.39227 0.91475 0.21474 0.0
C766 C 0.40758 0.9275 0.28047 0.0
C767 C 0.4234 0.9204 0.31072 0.0
C768 C 0.43686 0.93167 0.37447 0.0
C769 C 0.43439 0.94984 0.40915 0.0
C770 C 0.41867 0.95696 0.37978 0.0
C771 C 0.40536 0.94592 0.31567 0.0
C772 C 0.28859 0.84219 0.20318 0.0
C773 C 0.27734 0.8557 0.21957 0.0
C774 C 0.31186 0.85333 0.17672 0.0
C775 C 0.32441 0.87823 0.16742 0.0
C776 C 0.31231 0.89128 0.17729 0.0
C777 C 0.28874 0.87999 0.20221 0.0
C778 C 0.35107 0.8909 0.158 0.0
C779 C 0.36689 0.90511 0.21579 0.0
C780 C 0.36085 0.88666 0.09674 0.0
C781 C 0.34498 0.87211 0.03382 0.0
C782 C 0.32862 0.87811 0.00135 0.0
C783 C 0.31366 0.86432 0.94216 0.0
C784 C 0.31494 0.84452 0.9148 0.0
C785 C 0.33126 0.83852 0.94641 0.0
C786 C 0.34629 0.85227 0.00557 0.0
H787 H 0.30334 0.83386 0.86898 0.0
H788 H 0.44469 0.95842 0.45877 0.0
H789 H 0.45616 0.98798 0.86118 0.0
H790 H 0.43657 0.01209 0.84922 0.0
H791 H 0.4973 0.07172 0.96805 0.0
H792 H 0.51735 0.04782 0.97947 0.0
H793 H 0.42079 0.03108 0.94639 0.0
H794 H 0.50387 0.12437 0.90558 0.0
H795 H 0.54496 0.14202 0.85949 0.0
H796 H 0.52125 0.07866 0.72188 0.0
H797 H 0.47998 0.06078 0.76653 0.0
H798 H 0.37684 0.11367 0.93726 0.0
H799 H 0.40017 0.09399 0.96784 0.0
H800 H 0.42405 0.10089 0.75353 0.0
H801 H 0.40206 0.1219 0.72453 0.0
H802 H 0.45981 0.10982 0.83446 0.0
H803 H 0.37555 0.03869 0.82261 0.0
H804 H 0.33261 0.01712 0.85543 0.0
H805 H 0.35621 0.03099 0.07663 0.0
H806 H 0.39922 0.05267 0.04462 0.0
C807 C 0.46547 0.00625 0.88467 0.0
C808 C 0.4884 0.01596 0.92115 0.0
C809 C 0.45416 0.01997 0.87801 0.0
C810 C 0.46548 0.04371 0.90757 0.0
C811 C 0.48835 0.05352 0.94415 0.0
C812 C 0.49977 0.03981 0.95063 0.0
C813 C 0.45316 0.058 0.89958 0.0
C814 C 0.42936 0.04835 0.92214 0.0
C815 C 0.46427 0.08048 0.86785 0.0
C816 C 0.48895 0.09115 0.84007 0.0
C817 C 0.50743 0.11425 0.86538 0.0
C818 C 0.53075 0.12428 0.83951 0.0
C819 C 0.53574 0.11143 0.788 0.0
C820 C 0.5174 0.08855 0.76201 0.0
C821 C 0.49405 0.07845 0.78765 0.0
C822 C 0.38722 0.11106 0.89699 0.0
C823 C 0.38776 0.11934 0.82866 0.0
C824 C 0.40032 0.09955 0.91419 0.0
C825 C 0.41353 0.0954 0.86266 0.0
C826 C 0.41414 0.1039 0.79449 0.0
C827 C 0.40158 0.11593 0.77787 0.0
C828 C 0.42703 0.08257 0.87917 0.0
C829 C 0.45122 0.09263 0.85911 0.0
C830 C 0.4161 0.06017 0.9117 0.0
C831 C 0.39041 0.0477 0.93118 0.0
C832 C 0.37147 0.03742 0.87809 0.0
C833 C 0.34717 0.02506 0.89656 0.0
C834 C 0.34168 0.02284 0.96809 0.0
C835 C 0.36048 0.03282 0.02126 0.0
C836 C 0.3848 0.04509 0.00297 0.0
H837 H 0.32287 0.01327 0.9823 0.0
H838 H 0.5538 0.11923 0.76809 0.0
H839 H 0.91318 0.22148 0.75457 0.0
H840 H 0.93293 0.25734 0.83596 0.0
H841 H 0.87586 0.27272 0.7824 0.0
H842 H 0.85521 0.236 0.70491 0.0
H843 H 0.93516 0.30283 0.73848 0.0
H844 H 0.87325 0.27306 0.91243 0.0
H845 H 0.84892 0.24594 0.00375 0.0
H846 H 0.91402 0.26778 0.13411 0.0
H847 H 0.93899 0.29385 0.04126 0.0
H848 H 0.96938 0.42023 0.93402 0.0
H849 H 0.94188 0.37716 0.90122 0.0
H850 H 0.00244 0.36471 0.91994 0.0
H851 H 0.03012 0.40768 0.94984 0.0
H852 H 0.94026 0.33247 0.98829 0.0
H853 H 1.00108 0.35275 0.79697 0.0
H854 H 0.0249 0.37755 0.70047 0.0
H855 H 0.96033 0.37282 0.60418 0.0
H856 H 0.93635 0.34877 0.70184 0.0
C857 C 0.9037 0.23122 0.76498 0.0
C858 C 0.88214 0.22538 0.72529 0.0
C859 C 0.91527 0.25205 0.81065 0.0
C860 C 0.90565 0.26751 0.81625 0.0
C861 C 0.88323 0.26072 0.78065 0.0
C862 C 0.87143 0.23969 0.73634 0.0
C863 C 0.92162 0.29298 0.8426 0.0
C864 C 0.93622 0.30926 0.7932 0.0
C865 C 0.92303 0.30131 0.91397 0.0
C866 C 0.90808 0.28493 0.9687 0.0
C867 C 0.88251 0.27149 0.95931 0.0
C868 C 0.86858 0.25632 0.01153 0.0
C869 C 0.87996 0.25484 0.07423 0.0
C870 C 0.90529 0.2686 0.0849 0.0
C871 C 0.91935 0.28346 0.0323 0.0
C872 C 0.97681 0.40829 0.93135 0.0
C873 C 1.00197 0.41742 0.94395 0.0
C874 C 0.9611 0.38373 0.91249 0.0
C875 C 0.97023 0.36787 0.90699 0.0
C876 C 0.99513 0.37675 0.92227 0.0
C877 C 0.0109 0.40131 0.93963 0.0
C878 C 0.95387 0.3421 0.88414 0.0
C879 C 0.9392 0.32587 0.93383 0.0
C880 C 0.95237 0.3336 0.81306 0.0
C881 C 0.96711 0.34958 0.75767 0.0
C882 C 0.99212 0.35758 0.75632 0.0
C883 C 0.00561 0.37135 0.70114 0.0
C884 C 0.99415 0.3768 0.64628 0.0
C885 C 0.9692 0.36861 0.64674 0.0
C886 C 0.9557 0.35511 0.70231 0.0
H887 H 0.0046 0.38741 0.60349 0.0
H888 H 0.86914 0.24323 0.11486 0.0
H889 H 0.7971 0.6464 0.75755 0.0
H890 H 0.75538 0.61724 0.78274 0.0
H891 H 0.7562 0.56482 0.63576 0.0
H892 H 0.79831 0.59416 0.60933 0.0
H893 H 0.71092 0.56519 0.62844 0.0
H894 H 0.76471 0.55974 0.80357 0.0
H895 H 0.79919 0.57655 0.89318 0.0
H896 H 0.76406 0.60597 0.01896 0.0
H897 H 0.7295 0.58961 0.92959 0.0
H898 H 0.62722 0.48297 0.9252 0.0
H899 H 0.6628 0.49944 0.85307 0.0
H900 H 0.64197 0.54808 0.76472 0.0
H901 H 0.60621 0.53144 0.83662 0.0
H902 H 0.69746 0.54468 0.88067 0.0
H903 H 0.67172 0.56918 0.60984 0.0
H904 H 0.63692 0.55178 0.52104 0.0
H905 H 0.61513 0.48064 0.58661 0.0
H906 H 0.64996 0.49751 0.67487 0.0
C907 C 0.78855 0.62874 0.73009 0.0
C908 C 0.80135 0.62267 0.68177 0.0
C909 C 0.76456 0.61206 0.74456 0.0
C910 C 0.75265 0.58877 0.71154 0.0
C911 C 0.765 0.58271 0.66177 0.0
C912 C 0.78915 0.59947 0.64716 0.0
C913 C 0.72799 0.57053 0.73329 0.0
C914 C 0.70793 0.56055 0.68344 0.0
C915 C 0.72409 0.56421 0.80488 0.0
C916 C 0.74458 0.57356 0.85963 0.0
C917 C 0.76438 0.56988 0.85019 0.0
C918 C 0.78394 0.57933 0.90095 0.0
C919 C 0.78384 0.59236 0.96167 0.0
C920 C 0.76412 0.59587 0.97189 0.0
C921 C 0.74452 0.58648 0.92125 0.0
C922 C 0.62958 0.49633 0.88771 0.0
C923 C 0.61383 0.50577 0.88615 0.0
C924 C 0.65008 0.50594 0.84705 0.0
C925 C 0.65533 0.52525 0.80407 0.0
C926 C 0.63829 0.53308 0.79697 0.0
C927 C 0.61764 0.52335 0.83758 0.0
C928 C 0.68012 0.53945 0.77621 0.0
C929 C 0.70031 0.54892 0.82531 0.0
C930 C 0.684 0.54502 0.70399 0.0
C931 C 0.66341 0.53467 0.64938 0.0
C932 C 0.65962 0.54981 0.60496 0.0
C933 C 0.63985 0.54004 0.55477 0.0
C934 C 0.62384 0.51513 0.54825 0.0
C935 C 0.62754 0.49993 0.59181 0.0
C936 C 0.64727 0.5096 0.64196 0.0
H937 H 0.6086 0.50755 0.50935 0.0
H938 H 0.79902 0.5997 0.00083 0.0
H939 H 0.9156 0.63496 0.67994 0.0
H940 H 0.93596 0.62151 0.76371 0.0
H941 H 0.87348 0.54962 0.74415 0.0
H942 H 0.8531 0.56312 0.66087 0.0
H943 H 0.90076 0.56209 0.88039 0.0
H944 H 0.91463 0.56576 0.62132 0.0
H945 H 0.92792 0.58973 0.51511 0.0
H946 H 0.99736 0.63801 0.62244 0.0
H947 H 0.98434 0.61443 0.72954 0.0
H948 H 0.93715 0.47799 0.91363 0.0
H949 H 0.92003 0.50095 0.86106 0.0
H950 H 0.99263 0.5611 0.84218 0.0
H951 H 0.00979 0.53767 0.89184 0.0
H952 H 0.96555 0.56188 0.74015 0.0
H953 H 0.95828 0.55703 0.98671 0.0
H954 H 0.94824 0.5393 0.10345 0.0
H955 H 0.87206 0.50158 0.03854 0.0
H956 H 0.88166 0.51873 0.92083 0.0
C957 C 0.90555 0.61672 0.6974 0.0
C958 C 0.8826 0.60013 0.66498 0.0
C959 C 0.91737 0.60895 0.74444 0.0
C960 C 0.90642 0.58445 0.75887 0.0
C961 C 0.88226 0.5686 0.73367 0.0
C962 C 0.87051 0.57635 0.68651 0.0
C963 C 0.92124 0.57424 0.78712 0.0
C964 C 0.91486 0.56191 0.84985 0.0
C965 C 0.94038 0.57495 0.74871 0.0
C966 C 0.9485 0.58842 0.68334 0.0
C967 C 0.93273 0.58148 0.62215 0.0
C968 C 0.9402 0.59501 0.56189 0.0
C969 C 0.96347 0.61538 0.56204 0.0
C970 C 0.97935 0.62222 0.62239 0.0
C971 C 0.97195 0.60876 0.68282 0.0
C972 C 0.94945 0.49574 0.89552 0.0
C973 C 0.97478 0.50603 0.90694 0.0
C974 C 0.93966 0.50905 0.86667 0.0
C975 C 0.95499 0.53318 0.85042 0.0
C976 C 0.98037 0.54267 0.85523 0.0
C977 C 0.99019 0.52914 0.88293 0.0
C978 C 0.94444 0.5487 0.8325 0.0
C979 C 0.95167 0.56213 0.77163 0.0
C980 C 0.92666 0.54968 0.87415 0.0
C981 C 0.92073 0.53897 0.94453 0.0
C982 C 0.9394 0.54474 -0.00302 0.0
C983 C 0.93378 0.53483 0.06342 0.0
C984 C 0.90953 0.51927 0.07833 0.0
C985 C 0.89085 0.51361 0.02685 0.0
C986 C 0.89637 0.52342 0.96025 0.0
H987 H 0.90522 0.51164 0.12984 0.0
H988 H 0.96921 0.62584 0.51538 0.0
H989 H 0.53417 0.42411 0.0345 0.0
H990 H 0.51813 0.38045 0.0363 0.0
H991 H 0.45023 0.36706 0.93528 0.0
H992 H 0.46571 0.41007 0.93416 0.0
H993 H 0.44128 0.33534 0.03274 0.0
H994 H 0.49509 0.3669 0.83924 0.0
H995 H 0.53437 0.39339 0.78727 0.0
H996 H 0.56885 0.3636 0.91545 0.0
H997 H 0.52978 0.33714 0.96888 0.0
H998 H 0.39281 0.23235 0.79585 0.0
H999 H 0.40709 0.26822 0.87377 0.0
H1000 H 0.46902 0.26225 0.94593 0.0
H1001 H 0.4557 0.22749 0.86182 0.0
H1002 H 0.48465 0.30267 0.89593 0.0
H1003 H 0.419 0.25867 0.04661 0.0
H1004 H 0.37612 0.23237 0.07348 0.0
H1005 H 0.35882 0.28548 0.0069 0.0
H1006 H 0.40122 0.31174 0.97594 0.0
C1007 C 0.51579 0.41185 0.01309 0.0
C1008 C 0.50139 0.42074 0.98362 0.0
C1009 C 0.50661 0.38689 0.0143 0.0
C1010 C 0.48296 0.37041 0.98568 0.0
C1011 C 0.46843 0.37931 0.9582 0.0
C1012 C 0.47748 0.40407 0.9571 0.0
C1013 C 0.47367 0.34398 0.97846 0.0
C1014 C 0.45063 0.32798 0.00293 0.0
C1015 C 0.4862 0.33451 0.94094 0.0
C1016 C 0.50964 0.3503 0.90874 0.0
C1017 C 0.5111 0.36613 0.8567 0.0
C1018 C 0.53331 0.38112 0.82693 0.0
C1019 C 0.55412 0.38024 0.84823 0.0
C1020 C 0.55273 0.36431 0.89917 0.0
C1021 C 0.53057 0.34932 0.92923 0.0
C1022 C 0.40872 0.23787 0.83134 0.0
C1023 C 0.42305 0.22706 0.82351 0.0
C1024 C 0.41701 0.25858 0.87604 0.0
C1025 C 0.43928 0.26821 0.91625 0.0
C1026 C 0.45189 0.25537 0.91525 0.0
C1027 C 0.44407 0.2352 0.86822 0.0
C1028 C 0.45146 0.29351 0.9477 0.0
C1029 C 0.47526 0.3095 0.92779 0.0
C1030 C 0.43903 0.30289 0.98703 0.0
C1031 C 0.41356 0.2873 0.00859 0.0
C1032 C 0.40611 0.26478 0.03703 0.0
C1033 C 0.3818 0.24976 0.05265 0.0
C1034 C 0.3648 0.25721 0.04199 0.0
C1035 C 0.37203 0.2797 0.01524 0.0
C1036 C 0.3962 0.29464 -0.00168 0.0
H1037 H 0.34602 0.24556 0.05449 0.0
H1038 H 0.57129 0.39185 0.82512 0.0
H1039 H 0.80336 0.14067 0.67876 0.0
H1040 H 0.76006 0.12508 0.69506 0.0
H1041 H 0.76117 0.07863 0.85357 0.0
H1042 H 0.80436 0.09385 0.83718 0.0
H1043 H 0.72173 0.05475 0.7627 0.0
H1044 H 0.76156 0.13045 0.90062 0.0
H1045 H 0.78895 0.17441 0.91978 0.0
H1046 H 0.74656 0.1867 0.76237 0.0
H1047 H 0.71911 0.14277 0.74155 0.0
H1048 H 0.61652 0.02141 0.9455 0.0
H1049 H 0.65694 0.03646 0.90385 0.0
H1050 H 0.64842 0.08732 0.77899 0.0
H1051 H 0.60859 0.07409 0.82962 0.0
H1052 H 0.69065 0.10894 0.83483 0.0
H1053 H 0.64547 0.02989 0.71792 0.0
H1054 H 0.61825 0.98574 0.71412 0.0
H1055 H 0.67137 0.97847 0.84061 0.0
H1056 H 0.69845 0.02257 0.84802 0.0
C1057 C 0.79446 0.12717 0.71728 0.0
C1058 C 0.80748 0.11858 0.75677 0.0
C1059 C 0.76967 0.11831 0.72657 0.0
C1060 C 0.75736 0.10077 0.77581 0.0
C1061 C 0.77025 0.0921 0.81509 0.0
C1062 C 0.79502 0.10093 0.80586 0.0
C1063 C 0.73109 0.09146 0.78692 0.0
C1064 C 0.71485 0.06651 0.77883 0.0
C1065 C 0.72208 0.10692 0.80611 0.0
C1066 C 0.73846 0.13333 0.81893 0.0
C1067 C 0.7582 0.14253 0.86969 0.0
C1068 C 0.77371 0.16743 0.88092 0.0
C1069 C 0.76954 0.18334 0.84215 0.0
C1070 C 0.7498 0.17436 0.79225 0.0
C1071 C 0.73425 0.14946 0.78074 0.0
C1072 C 0.62305 0.03553 0.90825 0.0
C1073 C 0.60928 0.04631 0.88977 0.0
C1074 C 0.64622 0.04403 0.88367 0.0
C1075 C 0.6557 0.06251 0.83583 0.0
C1076 C 0.64153 0.07285 0.81521 0.0
C1077 C 0.61866 0.06512 0.84315 0.0
C1078 C 0.68097 0.07193 0.81184 0.0
C1079 C 0.69716 0.09701 0.81733 0.0
C1080 C 0.68996 0.05644 0.79103 0.0
C1081 C 0.67408 0.02969 0.78334 0.0
C1082 C 0.65139 0.01891 0.74488 0.0
C1083 C 0.63593 0.99388 0.74234 0.0
C1084 C 0.64316 0.97932 0.77655 0.0
C1085 C 0.66583 0.98976 0.8138 0.0
C1086 C 0.68122 0.0148 0.81735 0.0
H1087 H 0.63117 0.95995 0.77441 0.0
H1088 H 0.78158 0.20261 0.8509 0.0
H1089 H 0.5652 0.94383 0.06675 0.0
H1090 H 0.58661 0.9212 0.08381 0.0
H1091 H 0.6557 0.98725 0.08044 0.0
H1092 H 0.63468 0.00988 0.06405 0.0
H1093 H 0.65281 0.9494 0.99492 0.0
H1094 H 0.63629 0.96503 0.23433 0.0
H1095 H 0.60947 0.96325 0.32866 0.0
H1096 H 0.57026 0.88585 0.30542 0.0
H1097 H 0.5967 0.88719 0.21042 0.0
H1098 H 0.74236 0.9282 0.14302 0.0
H1099 H 0.71429 0.94289 0.11887 0.0
H1100 H 0.65332 0.87266 0.15435 0.0
H1101 H 0.68137 0.85783 0.18011 0.0
H1102 H 0.64738 0.9073 0.21566 0.0
H1103 H 0.66766 0.89173 0.9859 0.0
H1104 H 0.69468 0.89384 0.89186 0.0
H1105 H 0.72626 0.97075 0.89389 0.0
H1106 H 0.69973 0.96919 0.98869 0.0
C1107 C 0.58495 0.95347 0.06958 0.0
C1108 C 0.59825 0.97865 0.0646 0.0
C1109 C 0.59712 0.94056 0.07949 0.0
C1110 C 0.62271 0.95262 0.08364 0.0
C1111 C 0.63595 0.97764 0.0774 0.0
C1112 C 0.62387 0.99055 0.06849 0.0
C1113 C 0.63603 0.93946 0.09501 0.0
C1114 C 0.65175 0.94026 0.04325 0.0
C1115 C 0.63404 0.92702 0.15724 0.0
C1116 C 0.61826 0.92621 0.21467 0.0
C1117 C 0.62182 0.94764 0.24894 0.0
C1118 C 0.60672 0.94671 0.30261 0.0
C1119 C 0.5881 0.92446 0.32276 0.0
C1120 C 0.58464 0.90308 0.28961 0.0
C1121 C 0.59969 0.90391 0.23591 0.0
C1122 C 0.72299 0.91581 0.14575 0.0
C1123 C 0.71415 0.89177 0.1631 0.0
C1124 C 0.70694 0.92424 0.13158 0.0
C1125 C 0.68167 0.90875 0.13342 0.0
C1126 C 0.67275 0.88488 0.15222 0.0
C1127 C 0.68883 0.87645 0.1669 0.0
C1128 C 0.66471 0.91769 0.11619 0.0
C1129 C 0.64825 0.91608 0.16675 0.0
C1130 C 0.66598 0.92938 0.05263 0.0
C1131 C 0.68183 0.93035 0.99501 0.0
C1132 C 0.68049 0.90912 0.9667 0.0
C1133 C 0.69571 0.91021 0.91319 0.0
C1134 C 0.71224 0.93242 0.88717 0.0
C1135 C 0.71348 0.95357 0.91424 0.0
C1136 C 0.69834 0.95258 0.96782 0.0
H1137 H 0.72409 0.93327 0.84602 0.0
H1138 H 0.57638 0.92377 0.36414 0.0
H1139 H 0.19496 0.76928 0.28309 0.0
H1140 H 0.17673 0.72567 0.25627 0.0
H1141 H 0.10653 0.71947 0.21562 0.0
H1142 H 0.12425 0.76243 0.24262 0.0
H1143 H 0.10328 0.68535 0.29986 0.0
H1144 H 0.14032 0.71866 0.08031 0.0
H1145 H 0.17457 0.74394 0.00683 0.0
H1146 H 0.21086 0.7056 0.06915 0.0
H1147 H 0.17693 0.68028 0.14375 0.0
H1148 H 0.02692 0.57653 0.11051 0.0
H1149 H 0.05332 0.61868 0.14922 0.0
H1150 H 0.11539 0.60828 0.15855 0.0
H1151 H 0.0889 0.56581 0.117 0.0
H1152 H 0.12773 0.64983 0.10405 0.0
H1153 H 0.09103 0.61787 0.32904 0.0
H1154 H 0.0578 0.59524 0.40918 0.0
H1155 H 0.02073 0.63151 0.33489 0.0
H1156 H 0.05409 0.65492 0.25631 0.0
C1157 C 0.17564 0.75859 0.26856 0.0
C1158 C 0.16113 0.76946 0.26502 0.0
C1159 C 0.16528 0.7337 0.25287 0.0
C1160 C 0.14027 0.71931 0.23358 0.0
C1161 C 0.12585 0.73016 0.23045 0.0
C1162 C 0.13611 0.75485 0.24577 0.0
C1163 C 0.12854 0.69284 0.21785 0.0
C1164 C 0.10862 0.67761 0.25689 0.0
C1165 C 0.13589 0.68262 0.16317 0.0
C1166 C 0.15625 0.69779 0.1183 0.0
C1167 C 0.15571 0.71577 0.07885 0.0
C1168 C 0.17504 0.73007 0.03689 0.0
C1169 C 0.19492 0.72644 0.03353 0.0
C1170 C 0.19547 0.70843 0.07194 0.0
C1171 C 0.17619 0.69409 0.11403 0.0
C1172 C 0.04619 0.58313 0.12066 0.0
C1173 C 0.05576 0.56771 0.11109 0.0
C1174 C 0.06128 0.60727 0.14369 0.0
C1175 C 0.08628 0.6166 0.15929 0.0
C1176 C 0.09611 0.60147 0.14774 0.0
C1177 C 0.08098 0.57723 0.12364 0.0
C1178 C 0.10199 0.64237 0.18498 0.0
C1179 C 0.12268 0.65748 0.14793 0.0
C1180 C 0.09536 0.65263 0.2415 0.0
C1181 C 0.07485 0.63787 0.28631 0.0
C1182 C 0.07569 0.62086 0.32952 0.0
C1183 C 0.05692 0.60801 0.3749 0.0
C1184 C 0.03706 0.61172 0.37644 0.0
C1185 C 0.03606 0.62855 0.33338 0.0
C1186 C 0.05497 0.64175 0.2889 0.0
H1187 H 0.02251 0.60165 0.41133 0.0
H1188 H 0.20987 0.73752 0.00102 0.0
H1189 H 0.50034 0.47198 0.18877 0.0
H1190 H 0.4641 0.45379 0.25866 0.0
H1191 H 0.44056 0.49994 0.16754 0.0
H1192 H 0.47694 0.51854 0.09897 0.0
H1193 H 0.43276 0.46836 0.35007 0.0
H1194 H 0.38738 0.45823 0.07483 0.0
H1195 H 0.39687 0.45883 0.94864 0.0
H1196 H 0.44466 0.4315 -0.00094 0.0
H1197 H 0.43504 0.43028 0.12505 0.0
H1198 H 0.30118 0.4121 0.36564 0.0
H1199 H 0.34436 0.43956 0.34482 0.0
H1200 H 0.34863 0.38049 0.24496 0.0
H1201 H 0.30599 0.35314 0.26536 0.0
H1202 H 0.36735 0.41915 0.16436 0.0
H1203 H 0.37455 0.4023 0.40693 0.0
H1204 H 0.36612 0.40002 0.53404 0.0
H1205 H 0.3953 0.47666 0.55239 0.0
H1206 H 0.40358 0.47934 0.425 0.0
C1207 C 0.48832 0.47938 0.18714 0.0
C1208 C 0.49154 0.49673 0.13828 0.0
C1209 C 0.46743 0.46878 0.22677 0.0
C1210 C 0.44948 0.4753 0.21753 0.0
C1211 C 0.45416 0.49462 0.17537 0.0
C1212 C 0.47501 0.50527 0.13625 0.0
C1213 C 0.42416 0.45893 0.23812 0.0
C1214 C 0.41839 0.45767 0.30968 0.0
C1215 C 0.40552 0.44463 0.18548 0.0
C1216 C 0.41073 0.44448 0.1094 0.0
C1217 C 0.39981 0.45225 0.05882 0.0
C1218 C 0.40521 0.45269 0.98736 0.0
C1219 C 0.42145 0.44531 0.96589 0.0
C1220 C 0.43217 0.43731 0.01575 0.0
C1221 C 0.42675 0.43675 0.08719 0.0
C1222 C 0.31136 0.40494 0.3396 0.0
C1223 C 0.29994 0.38034 0.31712 0.0
C1224 C 0.33607 0.42065 0.328 0.0
C1225 C 0.34979 0.41209 0.29338 0.0
C1226 C 0.33847 0.38756 0.27161 0.0
C1227 C 0.31398 0.3719 0.28359 0.0
C1228 C 0.3756 0.4286 0.2766 0.0
C1229 C 0.38154 0.42991 0.20518 0.0
C1230 C 0.39433 0.44252 0.32967 0.0
C1231 C 0.38943 0.44098 0.40624 0.0
C1232 C 0.37896 0.41864 0.4379 0.0
C1233 C 0.37425 0.41728 0.51003 0.0
C1234 C 0.3801 0.43817 0.55122 0.0
C1235 C 0.39074 0.46048 0.52038 0.0
C1236 C 0.39546 0.46193 0.44822 0.0
H1237 H 0.37645 0.43709 0.60707 0.0
H1238 H 0.42566 0.44574 0.9106 0.0
H1239 H 0.82544 0.67819 0.53165 0.0
H1240 H 0.8079 0.69303 0.44495 0.0
H1241 H 0.88017 0.74667 0.38996 0.0
H1242 H 0.89764 0.73308 0.48324 0.0
H1243 H 0.85831 0.76823 0.41837 0.0
H1244 H 0.8317 0.69559 0.27702 0.0
H1245 H 0.81209 0.65187 0.2485 0.0
H1246 H 0.74285 0.64257 0.30093 0.0
H1247 H 0.76187 0.68605 0.33148 0.0
H1248 H 0.79238 0.81601 0.23069 0.0
H1249 H 0.81789 0.7976 0.24802 0.0
H1250 H 0.7617 0.74185 0.3648 0.0
H1251 H 0.73643 0.76004 0.34871 0.0
H1252 H 0.7811 0.72339 0.27033 0.0
H1253 H 0.80927 0.78901 0.4515 0.0
H1254 H 0.82626 0.83165 0.49219 0.0
H1255 H 0.88974 0.85149 0.37414 0.0
H1256 H 0.87294 0.80896 0.33202 0.0
C1257 C 0.83756 0.6924 0.4986 0.0
C1258 C 0.86283 0.7043 0.5131 0.0
C1259 C 0.8275 0.70093 0.44856 0.0
C1260 C 0.84258 0.72096 0.40963 0.0
C1261 C 0.86805 0.73126 0.41918 0.0
C1262 C 0.87811 0.72328 0.47158 0.0
C1263 C 0.83184 0.73341 0.36919 0.0
C1264 C 0.84184 0.75836 0.38414 0.0
C1265 C 0.80989 0.72067 0.32575 0.0
C1266 C 0.79832 0.69435 0.30625 0.0
C1267 C 0.81232 0.68429 0.28294 0.0
C1268 C 0.80131 0.65948 0.26663 0.0
C1269 C 0.77631 0.64448 0.27287 0.0
C1270 C 0.76222 0.65423 0.29578 0.0
C1271 C 0.77311 0.67899 0.3125 0.0
C1272 C 0.7855 0.79986 0.26013 0.0
C1273 C 0.76228 0.78951 0.28808 0.0
C1274 C 0.80004 0.78929 0.26966 0.0
C1275 C 0.79162 0.76824 0.30733 0.0
C1276 C 0.76847 0.7579 0.33482 0.0
C1277 C 0.75408 0.76846 0.32583 0.0
C1278 C 0.80714 0.75746 0.32253 0.0
C1279 C 0.79805 0.73303 0.30262 0.0
C1280 C 0.8296 0.77039 0.3625 0.0
C1281 C 0.83971 0.79591 0.38784 0.0
C1282 C 0.82675 0.80251 0.43375 0.0
C1283 C 0.83636 0.82664 0.45716 0.0
C1284 C 0.85903 0.84429 0.43554 0.0
C1285 C 0.87216 0.83782 0.39066 0.0
C1286 C 0.86261 0.81371 0.36701 0.0
H1287 H 0.86644 0.86296 0.45373 0.0
H1288 H 0.76788 0.6253 0.25997 0.0
H1289 H 0.27723 0.09441 0.60589 0.0
H1290 H 0.27104 0.06097 0.52484 0.0
H1291 H 0.34711 0.08312 0.55608 0.0
H1292 H 0.35262 0.11465 0.64244 0.0
H1293 H 0.28834 0.04705 0.40654 0.0
H1294 H 0.35278 0.04041 0.60148 0.0
H1295 H 0.37283 0.05839 0.71952 0.0
H1296 H 0.308 0.05693 0.78534 0.0
H1297 H 0.28773 0.03929 0.66701 0.0
H1298 H 0.301 0.9312 0.4428 0.0
H1299 H 0.31556 0.97405 0.466 0.0
H1300 H 0.24326 0.96155 0.41529 0.0
H1301 H 0.22862 0.91868 0.39043 0.0
H1302 H 0.30419 0.99524 0.5638 0.0
H1303 H 0.24609 0.01277 0.35353 0.0
H1304 H 0.22916 0.99968 0.23008 0.0
H1305 H 0.28317 0.97995 0.18885 0.0
H1306 H 0.30069 0.99329 0.31159 0.0
C1307 C 0.29286 0.0928 0.59273 0.0
C1308 C 0.31563 0.10775 0.62878 0.0
C1309 C 0.28931 0.07368 0.54631 0.0
C1310 C 0.30851 0.06925 0.53535 0.0
C1311 C 0.33197 0.08605 0.56419 0.0
C1312 C 0.33532 0.10464 0.61235 0.0
C1313 C 0.30296 0.04482 0.50865 0.0
C1314 C 0.29168 0.03562 0.44072 0.0
C1315 C 0.30768 0.03003 0.55283 0.0
C1316 C 0.31878 0.03846 0.62583 0.0
C1317 C 0.34272 0.04362 0.64156 0.0
C1318 C 0.35416 0.0539 0.70831 0.0
C1319 C 0.34164 0.05869 0.76007 0.0
C1320 C 0.31764 0.05316 0.74525 0.0
C1321 C 0.30619 0.04307 0.67834 0.0
C1322 C 0.28816 0.93752 0.43608 0.0
C1323 C 0.26357 0.92136 0.4149 0.0
C1324 C 0.29656 0.9621 0.44937 0.0
C1325 C 0.28062 0.97119 0.44185 0.0
C1326 C 0.25609 0.95515 0.42016 0.0
C1327 C 0.24768 0.93055 0.40642 0.0
C1328 C 0.28933 0.99709 0.46119 0.0
C1329 C 0.30104 0.00656 0.52855 0.0
C1330 C 0.28506 0.01201 0.41601 0.0
C1331 C 0.2745 0.00375 0.34219 0.0
C1332 C 0.25437 0.00566 0.31814 0.0
C1333 C 0.24469 0.99822 0.24823 0.0
C1334 C 0.25502 0.98889 0.20176 0.0
C1335 C 0.2751 0.98705 0.22502 0.0
C1336 C 0.28488 0.9945 0.29482 0.0
H1337 H 0.2475 0.98316 0.14766 0.0
H1338 H 0.35052 0.06665 0.81169 0.0
H1339 H 0.94482 0.21781 0.45821 0.0
H1340 H 0.98781 0.23703 0.43381 0.0
H1341 H 0.00285 0.21317 0.63045 0.0
H1342 H 0.95962 0.19394 0.65581 0.0
H1343 H 0.03459 0.25947 0.61854 0.0
H1344 H 0.00532 0.18863 0.47381 0.0
H1345 H 0.97906 0.15589 0.38513 0.0
H1346 H 1.00199 0.20638 0.22088 0.0
H1347 H 0.02782 0.23963 0.30887 0.0
H1348 H 0.15098 0.29321 0.40691 0.0
H1349 H 0.10963 0.26313 0.4358 0.0
H1350 H 0.09458 0.32002 0.4901 0.0
H1351 H 0.13582 0.35012 0.46262 0.0
H1352 H 0.06523 0.25075 0.38706 0.0
H1353 H 0.05938 0.30607 0.63085 0.0
H1354 H 0.08715 0.33565 0.72504 0.0
H1355 H 0.13714 0.30961 0.70141 0.0
H1356 H 0.10946 0.27953 0.60828 0.0
C1357 C 0.95716 0.21644 0.49622 0.0
C1358 C 0.94871 0.2044 0.55928 0.0
C1359 C 0.98179 0.22734 0.48188 0.0
C1360 C 0.99861 0.22647 0.53007 0.0
C1361 C 0.99021 0.21408 0.59245 0.0
C1362 C 0.96547 0.20299 0.60672 0.0
C1363 C 0.02508 0.2398 0.51678 0.0
C1364 C 0.04129 0.25746 0.56806 0.0
C1365 C 0.03404 0.23667 0.45177 0.0
C1366 C 0.01837 0.21674 0.39835 0.0
C1367 C 0.00455 0.19286 0.41898 0.0
C1368 C 0.98973 0.17418 0.36877 0.0
C1369 C 0.98878 0.17907 0.29746 0.0
C1370 C 0.00272 0.20264 0.27619 0.0
C1371 C 0.01742 0.22142 0.32627 0.0
C1372 C 0.13884 0.29934 0.42456 0.0
C1373 C 0.14688 0.32416 0.43289 0.0
C1374 C 0.11518 0.28209 0.44108 0.0
C1375 C 0.09911 0.28929 0.46641 0.0
C1376 C 0.1068 0.314 0.47223 0.0
C1377 C 0.13042 0.33122 0.45608 0.0
C1378 C 0.07433 0.27117 0.48732 0.0
C1379 C 0.05851 0.2526 0.43766 0.0
C1380 C 0.06587 0.27295 0.55464 0.0
C1381 C 0.08239 0.29066 0.61199 0.0
C1382 C 0.07621 0.30653 0.64607 0.0
C1383 C 0.09195 0.3234 0.69929 0.0
C1384 C 0.11393 0.32456 0.71904 0.0
C1385 C 0.12014 0.30874 0.68596 0.0
C1386 C 0.10443 0.29178 0.63293 0.0
H1387 H 0.12613 0.3377 0.76005 0.0
H1388 H 0.9773 0.16459 0.25865 0.0
H1389 H 0.37819 0.25517 0.62007 0.0
H1390 H 0.35231 0.27328 0.6073 0.0
H1391 H 0.28874 0.20446 0.63876 0.0
H1392 H 0.31439 0.18628 0.65234 0.0
H1393 H 0.2851 0.22881 0.51857 0.0
H1394 H 0.31061 0.24523 0.76923 0.0
H1395 H 0.34111 0.26227 0.8703 0.0
H1396 H 0.36915 0.33333 0.79468 0.0
H1397 H 0.33919 0.31668 0.6923 0.0
H1398 H 0.20288 0.26724 0.49647 0.0
H1399 H 0.22362 0.24959 0.56098 0.0
H1400 H 0.28906 0.31946 0.58426 0.0
H1401 H 0.26776 0.33737 0.52476 0.0
H1402 H 0.29101 0.2936 0.68378 0.0
H1403 H 0.27497 0.28152 0.43202 0.0
H1404 H 0.24963 0.26915 0.31985 0.0
H1405 H 0.21062 0.19597 0.38213 0.0
H1406 H 0.2355 0.20801 0.49531 0.0
C1407 C 0.35869 0.24387 0.62381 0.0
C1408 C 0.34834 0.21927 0.63702 0.0
C1409 C 0.34398 0.25429 0.61716 0.0
C1410 C 0.31868 0.24024 0.62292 0.0
C1411 C 0.30826 0.21562 0.63465 0.0
C1412 C 0.32295 0.20528 0.64229 0.0
C1413 C 0.30285 0.25091 0.61411 0.0
C1414 C 0.28608 0.24267 0.55537 0.0
C1415 C 0.3049 0.2697 0.66064 0.0
C1416 C 0.3228 0.27964 0.72259 0.0
C1417 C 0.32344 0.26445 0.7737 0.0
C1418 C 0.34062 0.27405 0.83132 0.0
C1419 C 0.35709 0.29886 0.83875 0.0
C1420 C 0.3564 0.31412 0.78874 0.0
C1421 C 0.33934 0.3046 0.73092 0.0
C1422 C 0.22124 0.27899 0.51903 0.0
C1423 C 0.23387 0.30354 0.50496 0.0
C1424 C 0.23322 0.26888 0.55506 0.0
C1425 C 0.25825 0.283 0.57444 0.0
C1426 C 0.26986 0.30811 0.56898 0.0
C1427 C 0.25762 0.31838 0.5351 0.0
C1428 C 0.27305 0.27134 0.58843 0.0
C1429 C 0.28976 0.27949 0.64757 0.0
C1430 C 0.27171 0.25308 0.54071 0.0
C1431 C 0.25689 0.24571 0.47243 0.0
C1432 C 0.26089 0.26282 0.42194 0.0
C1433 C 0.24662 0.25587 0.35821 0.0
C1434 C 0.22848 0.2318 0.34395 0.0
C1435 C 0.22464 0.21462 0.39333 0.0
C1436 C 0.23881 0.22149 0.45729 0.0
H1437 H 0.21745 0.22645 0.29456 0.0
H1438 H 0.37034 0.30631 0.88332 0.0
H1439 H 0.83094 0.91787 0.35332 0.0
H1440 H 0.84641 0.95664 0.41939 0.0
H1441 H 0.77277 0.9398 0.45241 0.0
H1442 H 0.75715 0.90067 0.38727 0.0
H1443 H 0.80075 0.98362 0.38511 0.0
H1444 H 0.80649 0.94604 0.59143 0.0
H1445 H 0.81699 0.92087 0.66356 0.0
H1446 H 0.89301 0.96847 0.63376 0.0
H1447 H 0.8829 0.99375 0.56047 0.0
H1448 H 0.83945 0.09269 0.59927 0.0
H1449 H 0.82098 0.05336 0.53552 0.0
H1450 H 0.89142 0.05852 0.53374 0.0
H1451 H 0.90943 0.09713 0.60259 0.0
H1452 H 0.86182 0.01924 0.58878 0.0
H1453 H 0.85453 0.05673 0.37772 0.0
H1454 H 0.84264 0.08312 0.3177 0.0
H1455 H 0.76786 0.03571 0.36173 0.0
H1456 H 0.77935 0.00923 0.42337 0.0
C1457 C 0.81807 0.92197 0.37737 0.0
C1458 C 0.79286 0.90621 0.36519 0.0
C1459 C 0.82692 0.94424 0.41457 0.0
C1460 C 0.81074 0.95128 0.43981 0.0
C1461 C 0.78556 0.93479 0.4328 0.0
C1462 C 0.77668 0.91227 0.39655 0.0
C1463 C 0.8203 0.97658 0.46757 0.0
C1464 C 0.81387 0.99139 0.43025 0.0
C1465 C 0.83766 0.98678 0.52565 0.0
C1466 C 0.8439 0.97169 0.56991 0.0
C1467 C 0.82542 0.95104 0.59974 0.0
C1468 C 0.83131 0.93677 0.64094 0.0
C1469 C 0.85566 0.94304 0.65312 0.0
C1470 C 0.87416 0.96363 0.62423 0.0
C1471 C 0.86835 0.97795 0.58291 0.0
C1472 C 0.85121 0.08607 0.58155 0.0
C1473 C 0.87592 0.09809 0.60477 0.0
C1474 C 0.84057 0.06334 0.5456 0.0
C1475 C 0.85471 0.05269 0.5298 0.0
C1476 C 0.88001 0.06614 0.54579 0.0
C1477 C 0.89047 0.08851 0.58366 0.0
C1478 C 0.84294 0.02668 0.50508 0.0
C1479 C 0.84885 0.01164 0.54327 0.0
C1480 C 0.82502 0.0163 0.44799 0.0
C1481 C 0.81785 0.0311 0.40573 0.0
C1482 C 0.83554 0.0519 0.37452 0.0
C1483 C 0.82889 0.06693 0.34045 0.0
C1484 C 0.80454 0.0612 0.3364 0.0
C1485 C 0.78673 0.04018 0.36523 0.0
C1486 C 0.7933 0.02513 0.39967 0.0
H1487 H 0.79947 0.07304 0.31091 0.0
H1488 H 0.86019 0.93197 0.68504 0.0
H1489 H 0.96204 0.66186 0.4905 0.0
H1490 H 0.00524 0.69291 0.49129 0.0
H1491 H 0.98704 0.74776 0.54261 0.0
H1492 H 0.94387 0.71683 0.54303 0.0
H1493 H 0.01938 0.7577 0.4277 0.0
H1494 H 0.01013 0.73124 0.66893 0.0
H1495 H 0.99811 0.69981 0.75576 0.0
H1496 H 0.04964 0.68134 0.67646 0.0
H1497 H 0.06169 0.7124 0.58832 0.0
H1498 H 0.13549 0.8544 0.46298 0.0
H1499 H 0.09555 0.82654 0.50628 0.0
H1500 H 0.11471 0.7709 0.51155 0.0
H1501 H 0.15516 0.79916 0.47285 0.0
H1502 H 0.08143 0.76084 0.60156 0.0
H1503 H 0.0886 0.77999 0.35897 0.0
H1504 H 0.10027 0.80626 0.25778 0.0
H1505 H 0.05287 0.83233 0.32127 0.0
H1506 H 0.04122 0.80649 0.42366 0.0
C1507 C 0.96719 0.68054 0.50154 0.0
C1508 C 0.94946 0.68685 0.51657 0.0
C1509 C 0.99191 0.69824 0.50245 0.0
C1510 C 0.99937 0.72262 0.51759 0.0
C1511 C 0.98169 0.72904 0.5311 0.0
C1512 C 0.95703 0.71133 0.53132 0.0
C1513 C 0.02555 0.74154 0.51823 0.0
C1514 C 0.03289 0.75869 0.46653 0.0
C1515 C 0.04332 0.74212 0.56693 0.0
C1516 C 0.03664 0.724 0.62154 0.0
C1517 C 0.0188 0.72038 0.6697 0.0
C1518 C 0.01199 0.70264 0.7192 0.0
C1519 C 0.02305 0.68854 0.72149 0.0
C1520 C 0.04106 0.69226 0.67458 0.0
C1521 C 0.04791 0.70995 0.62488 0.0
C1522 C 0.13162 0.83662 0.47693 0.0
C1523 C 0.14836 0.82892 0.46364 0.0
C1524 C 0.10863 0.82055 0.50072 0.0
C1525 C 0.10164 0.79623 0.50899 0.0
C1526 C 0.11943 0.78941 0.50449 0.0
C1527 C 0.14271 0.80571 0.48269 0.0
C1528 C 0.07532 0.77749 0.51181 0.0
C1529 C 0.06794 0.76018 0.56342 0.0
C1530 C 0.05752 0.77613 0.46131 0.0
C1531 C 0.06424 0.79151 0.3994 0.0
C1532 C 0.08077 0.79143 0.35159 0.0
C1533 C 0.08739 0.80624 0.29403 0.0
C1534 C 0.07736 0.821 0.2832 0.0
C1535 C 0.06065 0.82092 0.32982 0.0
C1536 C 0.05404 0.8062 0.38764 0.0
H1537 H 0.0825 0.83245 0.23859 0.0
H1538 H 0.0177 0.67475 0.75966 0.0
loop_
_geom_bond_atom_site_label_1
_geom_bond_atom_site_label_2
_geom_bond_distance
_geom_bond_site_symmetry_2
_ccdc_geom_bond_type
O0 Mn1 2.163 . S
O0 C14 1.244 . S
Mn1 O0 2.163 . S
Mn1 O4 2.160 1_455 S
Mn1 O5 2.221 1_554 S
Mn1 O7 2.163 . S
Mn1 O9 2.160 1_455 S
Mn1 O19 2.221 . S
O2 Mn3 2.087 . S
O2 C14 1.256 . S
Mn3 O2 2.087 . S
Mn3 O10 2.089 1_455 S
Mn3 O19 2.290 . S
Mn3 O20 2.251 . S
O4 Mn1 2.160 1_655 S
O4 C15 1.239 . S
O5 Mn1 2.221 1_556 S
O5 Mn6 2.290 . S
O5 C16 1.278 . S
Mn6 O5 2.290 . S
Mn6 O8 2.089 . S
Mn6 O11 2.251 . S
Mn6 O12 2.087 1_556 S
O7 Mn1 2.163 . S
O7 C17 1.244 . S
O8 Mn6 2.089 . S
O8 C15 1.256 1_456 S
O9 Mn1 2.160 1_655 S
O9 C18 1.239 . S
O10 Mn3 2.089 1_655 S
O10 C18 1.256 . S
O11 Mn6 2.251 . S
O11 C16 1.241 . S
O12 Mn6 2.087 1_554 S
O12 C17 1.256 . S
C13 O19 1.278 . S
C13 O20 1.241 . S
C14 O0 1.244 . S
C14 O2 1.256 . S
C15 O4 1.239 . S
C15 O8 1.256 1_654 S
C16 O5 1.278 . S
C16 O11 1.241 . S
C17 O7 1.244 . S
C17 O12 1.256 . S
C18 O9 1.239 . S
C18 O10 1.256 . S
O19 Mn1 2.221 . S
O19 Mn3 2.290 . S
O19 C13 1.278 . S
O20 Mn3 2.251 . S
O20 C13 1.241 . S
O21 Mn22 2.163 . S
O21 C35 1.244 . S
Mn22 O21 2.163 . S
Mn22 O25 2.160 . S
Mn22 O26 2.221 . S
Mn22 O28 2.163 . S
Mn22 O30 2.160 . S
Mn22 O40 2.221 1_554 S
O23 Mn24 2.087 . S
O23 C35 1.256 1_556 S
Mn24 O23 2.087 . S
Mn24 O31 2.089 1_556 S
Mn24 O40 2.290 . S
Mn24 O41 2.251 . S
O25 Mn22 2.160 . S
O25 C36 1.239 . S
O26 Mn22 2.221 . S
O26 Mn27 2.290 . S
O26 C37 1.278 . S
Mn27 O26 2.290 . S
Mn27 O29 2.089 . S
Mn27 O32 2.251 . S
Mn27 O33 2.087 . S
O28 Mn22 2.163 . S
O28 C38 1.244 . S
O29 Mn27 2.089 . S
O29 C36 1.256 . S
O30 Mn22 2.160 . S
O30 C39 1.239 . S
O31 Mn24 2.089 1_554 S
O31 C39 1.256 . S
O32 Mn27 2.251 . S
O32 C37 1.241 . S
O33 Mn27 2.087 . S
O33 C38 1.256 . S
C34 O40 1.278 . S
C34 O41 1.241 . S
C35 O21 1.244 . S
C35 O23 1.256 1_554 S
C36 O25 1.239 . S
C36 O29 1.256 . S
C37 O26 1.278 . S
C37 O32 1.241 . S
C38 O28 1.244 . S
C38 O33 1.256 . S
C39 O30 1.239 . S
C39 O31 1.256 . S
O40 Mn22 2.221 1_556 S
O40 Mn24 2.290 . S
O40 C34 1.278 . S
O41 Mn24 2.251 . S
O41 C34 1.241 . S
O42 Mn43 2.172 . S
O42 C56 1.238 1_545 S
Mn43 O42 2.172 . S
Mn43 O46 2.160 . S
Mn43 O47 2.221 1_554 S
Mn43 O49 2.163 . S
Mn43 O51 2.160 . S
Mn43 O61 2.221 . S
O44 Mn45 2.087 . S
O44 C56 1.256 1_545 S
Mn45 O44 2.087 . S
Mn45 O52 2.089 . S
Mn45 O61 2.290 . S
Mn45 O62 2.251 . S
O46 Mn43 2.160 . S
O46 C57 1.239 . S
O47 Mn43 2.221 1_556 S
O47 Mn48 2.290 . S
O47 C58 1.278 . S
Mn48 O47 2.290 . S
Mn48 O50 2.089 1_556 S
Mn48 O53 2.251 1_545 S
Mn48 O54 2.087 1_546 S
O49 Mn43 2.163 . S
O49 C59 1.244 1_545 S
O50 Mn48 2.089 1_554 S
O50 C57 1.256 . S
O51 Mn43 2.160 . S
O51 C60 1.239 . S
O52 Mn45 2.089 . S
O52 C60 1.256 . S
O53 Mn48 2.251 1_565 S
O53 C58 1.241 1_565 S
O54 Mn48 2.087 1_564 S
O54 C59 1.256 . S
C55 O61 1.278 . S
C55 O62 1.241 . S
C56 O42 1.238 1_565 S
C56 O44 1.256 1_565 S
C57 O46 1.239 . S
C57 O50 1.256 . S
C58 O47 1.278 . S
C58 O53 1.241 1_545 S
C59 O49 1.244 1_565 S
C59 O54 1.256 . S
C60 O51 1.239 . S
C60 O52 1.256 . S
O61 Mn43 2.221 . S
O61 Mn45 2.290 . S
O61 C55 1.278 . S
O62 Mn45 2.251 . S
O62 C55 1.241 . S
O63 Mn64 2.163 . S
O63 C77 1.244 . S
Mn64 O63 2.163 . S
Mn64 O67 2.160 . S
Mn64 O68 2.221 . S
Mn64 O70 2.163 . S
Mn64 O72 2.160 . S
Mn64 O82 2.221 . S
O65 Mn66 2.087 . S
O65 C77 1.256 . S
Mn66 O65 2.087 . S
Mn66 O73 2.089 . S
Mn66 O82 2.290 . S
Mn66 O83 2.251 . S
O67 Mn64 2.160 . S
O67 C78 1.239 . S
O68 Mn64 2.221 . S
O68 Mn69 2.290 . S
O68 C79 1.278 . S
Mn69 O68 2.290 . S
Mn69 O71 2.089 . S
Mn69 O74 2.251 . S
Mn69 O75 2.087 . S
O70 Mn64 2.163 . S
O70 C80 1.244 . S
O71 Mn69 2.089 . S
O71 C78 1.256 . S
O72 Mn64 2.160 . S
O72 C81 1.239 . S
O73 Mn66 2.089 . S
O73 C81 1.256 . S
O74 Mn69 2.251 . S
O74 C79 1.241 . S
O75 Mn69 2.087 . S
O75 C80 1.256 . S
C76 O82 1.278 . S
C76 O83 1.241 . S
C77 O63 1.244 . S
C77 O65 1.256 . S
C78 O67 1.239 . S
C78 O71 1.256 . S
C79 O68 1.278 . S
C79 O74 1.241 . S
C80 O70 1.244 . S
C80 O75 1.256 . S
C81 O72 1.239 . S
C81 O73 1.256 . S
O82 Mn64 2.221 . S
O82 Mn66 2.290 . S
O82 C76 1.278 . S
O83 Mn66 2.251 . S
O83 C76 1.241 . S
O84 Mn85 2.163 . S
O84 C98 1.244 . S
Mn85 O84 2.163 . S
Mn85 O88 2.160 . S
Mn85 O89 2.221 . S
Mn85 O91 2.163 . S
Mn85 O93 2.160 . S
Mn85 O103 2.221 . S
O86 Mn87 2.087 . S
O86 C98 1.256 . S
Mn87 O86 2.087 . S
Mn87 O94 2.089 . S
Mn87 O103 2.290 . S
Mn87 O104 2.251 . S
O88 Mn85 2.160 . S
O88 C99 1.239 . S
O89 Mn85 2.221 . S
O89 Mn90 2.290 . S
O89 C100 1.278 . S
Mn90 O89 2.290 . S
Mn90 O92 2.089 . S
Mn90 O95 2.251 . S
Mn90 O96 2.087 . S
O91 Mn85 2.163 . S
O91 C101 1.244 . S
O92 Mn90 2.089 . S
O92 C99 1.256 . S
O93 Mn85 2.160 . S
O93 C102 1.239 . S
O94 Mn87 2.089 . S
O94 C102 1.256 . S
O95 Mn90 2.251 . S
O95 C100 1.241 . S
O96 Mn90 2.087 . S
O96 C101 1.256 . S
C97 O103 1.278 . S
C97 O104 1.241 . S
C98 O84 1.244 . S
C98 O86 1.256 . S
C99 O88 1.239 . S
C99 O92 1.256 . S
C100 O89 1.278 . S
C100 O95 1.241 . S
C101 O91 1.244 . S
C101 O96 1.256 . S
C102 O93 1.239 . S
C102 O94 1.256 . S
O103 Mn85 2.221 . S
O103 Mn87 2.290 . S
O103 C97 1.278 . S
O104 Mn87 2.251 . S
O104 C97 1.241 . S
O105 Mn106 2.163 . S
O105 C119 1.244 . S
Mn106 O105 2.163 . S
Mn106 O109 2.160 . S
Mn106 O110 2.221 . S
Mn106 O112 2.163 . S
Mn106 O114 2.160 . S
Mn106 O124 2.221 . S
O107 Mn108 2.087 . S
O107 C119 1.256 . S
Mn108 O107 2.087 . S
Mn108 O115 2.089 . S
Mn108 O124 2.290 . S
Mn108 O125 2.251 . S
O109 Mn106 2.160 . S
O109 C120 1.239 . S
O110 Mn106 2.221 . S
O110 Mn111 2.290 . S
O110 C121 1.278 . S
Mn111 O110 2.290 . S
Mn111 O113 2.089 . S
Mn111 O116 2.251 . S
Mn111 O117 2.087 . S
O112 Mn106 2.163 . S
O112 C122 1.244 . S
O113 Mn111 2.089 . S
O113 C120 1.256 . S
O114 Mn106 2.160 . S
O114 C123 1.239 . S
O115 Mn108 2.089 . S
O115 C123 1.256 . S
O116 Mn111 2.251 . S
O116 C121 1.241 . S
O117 Mn111 2.087 . S
O117 C122 1.256 . S
C118 O124 1.278 . S
C118 O125 1.241 . S
C119 O105 1.244 . S
C119 O107 1.256 . S
C120 O109 1.239 . S
C120 O113 1.256 . S
C121 O110 1.278 . S
C121 O116 1.241 . S
C122 O112 1.244 . S
C122 O117 1.256 . S
C123 O114 1.239 . S
C123 O115 1.256 . S
O124 Mn106 2.221 . S
O124 Mn108 2.290 . S
O124 C118 1.278 . S
O125 Mn108 2.251 . S
O125 C118 1.241 . S
O126 Mn127 2.163 . S
O126 C140 1.244 . S
Mn127 O126 2.163 . S
Mn127 O130 2.160 . S
Mn127 O131 2.221 . S
Mn127 O133 2.163 . S
Mn127 O135 2.160 . S
Mn127 O145 2.221 . S
O128 Mn129 2.087 . S
O128 C140 1.256 . S
Mn129 O128 2.087 . S
Mn129 O136 2.089 . S
Mn129 O145 2.290 . S
Mn129 O146 2.251 . S
O130 Mn127 2.160 . S
O130 C141 1.239 . S
O131 Mn127 2.221 . S
O131 Mn132 2.290 . S
O131 C142 1.278 . S
Mn132 O131 2.290 . S
Mn132 O134 2.089 . S
Mn132 O137 2.251 . S
Mn132 O138 2.087 . S
O133 Mn127 2.163 . S
O133 C143 1.244 . S
O134 Mn132 2.089 . S
O134 C141 1.256 . S
O135 Mn127 2.160 . S
O135 C144 1.239 . S
O136 Mn129 2.089 . S
O136 C144 1.256 . S
O137 Mn132 2.251 . S
O137 C142 1.241 . S
O138 Mn132 2.087 . S
O138 C143 1.256 . S
C139 O145 1.278 . S
C139 O146 1.241 . S
C140 O126 1.244 . S
C140 O128 1.256 . S
C141 O130 1.239 . S
C141 O134 1.256 . S
C142 O131 1.278 . S
C142 O137 1.241 . S
C143 O133 1.244 . S
C143 O138 1.256 . S
C144 O135 1.239 . S
C144 O136 1.256 . S
O145 Mn127 2.221 . S
O145 Mn129 2.290 . S
O145 C139 1.278 . S
O146 Mn129 2.251 . S
O146 C139 1.241 . S
O147 Mn148 2.163 . S
O147 C161 1.244 . S
Mn148 O147 2.163 . S
Mn148 O151 2.160 . S
Mn148 O152 2.221 . S
Mn148 O154 2.163 . S
Mn148 O156 2.160 . S
Mn148 O166 2.221 . S
O149 Mn150 2.087 . S
O149 C161 1.256 . S
Mn150 O149 2.087 . S
Mn150 O157 2.089 . S
Mn150 O166 2.290 . S
Mn150 O167 2.251 . S
O151 Mn148 2.160 . S
O151 C162 1.239 . S
O152 Mn148 2.221 . S
O152 Mn153 2.290 . S
O152 C163 1.278 . S
Mn153 O152 2.290 . S
Mn153 O155 2.089 . S
Mn153 O158 2.251 . S
Mn153 O159 2.087 . S
O154 Mn148 2.163 . S
O154 C164 1.244 . S
O155 Mn153 2.089 . S
O155 C162 1.256 . S
O156 Mn148 2.160 . S
O156 C165 1.239 . S
O157 Mn150 2.089 . S
O157 C165 1.256 . S
O158 Mn153 2.251 . S
O158 C163 1.241 . S
O159 Mn153 2.087 . S
O159 C164 1.256 . S
C160 O166 1.278 . S
C160 O167 1.241 . S
C161 O147 1.244 . S
C161 O149 1.256 . S
C162 O151 1.239 . S
C162 O155 1.256 . S
C163 O152 1.278 . S
C163 O158 1.241 . S
C164 O154 1.244 . S
C164 O159 1.256 . S
C165 O156 1.239 . S
C165 O157 1.256 . S
O166 Mn148 2.221 . S
O166 Mn150 2.290 . S
O166 C160 1.278 . S
O167 Mn150 2.251 . S
O167 C160 1.241 . S
O168 Mn169 2.163 . S
O168 C182 1.244 . S
Mn169 O168 2.163 . S
Mn169 O172 2.160 . S
Mn169 O173 2.221 . S
Mn169 O175 2.163 . S
Mn169 O177 2.160 . S
Mn169 O187 2.221 . S
O170 Mn171 2.087 . S
O170 C182 1.256 . S
Mn171 O170 2.087 . S
Mn171 O178 2.089 . S
Mn171 O187 2.290 . S
Mn171 O188 2.251 . S
O172 Mn169 2.160 . S
O172 C183 1.239 . S
O173 Mn169 2.221 . S
O173 Mn174 2.290 . S
O173 C184 1.278 . S
Mn174 O173 2.290 . S
Mn174 O176 2.089 . S
Mn174 O179 2.251 . S
Mn174 O180 2.087 . S
O175 Mn169 2.163 . S
O175 C185 1.244 . S
O176 Mn174 2.089 . S
O176 C183 1.256 . S
O177 Mn169 2.160 . S
O177 C186 1.239 . S
O178 Mn171 2.089 . S
O178 C186 1.256 . S
O179 Mn174 2.251 . S
O179 C184 1.241 . S
O180 Mn174 2.087 . S
O180 C185 1.256 . S
C181 O187 1.278 . S
C181 O188 1.241 . S
C182 O168 1.244 . S
C182 O170 1.256 . S
C183 O172 1.239 . S
C183 O176 1.256 . S
C184 O173 1.278 . S
C184 O179 1.241 . S
C185 O175 1.244 . S
C185 O180 1.256 . S
C186 O177 1.239 . S
C186 O178 1.256 . S
O187 Mn169 2.221 . S
O187 Mn171 2.290 . S
O187 C181 1.278 . S
O188 Mn171 2.251 . S
O188 C181 1.241 . S
H189 C207 0.951 . S
H190 C209 0.949 . S
H191 C211 0.950 . S
H192 C212 0.950 . S
H193 C214 0.950 . S
H194 C217 0.950 . S
H195 C218 0.950 . S
H196 C220 0.950 . S
H197 C221 0.950 . S
H198 C222 0.951 . S
H199 C224 0.951 . S
H200 C226 0.950 . S
H201 C227 0.950 . S
H202 C229 0.950 . S
H203 C232 0.950 . S
H204 C233 0.950 . S
H205 C235 0.950 . S
H206 C236 0.950 . S
C207 H189 0.951 . S
C207 C208 1.366 . S
C207 C209 1.388 . S
C208 C207 1.366 . S
C208 C212 1.385 . S
C209 H190 0.949 . S
C209 C207 1.388 . S
C209 C210 1.366 . S
C210 C209 1.366 . S
C210 C211 1.414 . S
C210 C213 1.499 . S
C211 H191 0.950 . S
C211 C210 1.414 . S
C211 C212 1.374 . S
C212 H192 0.950 . S
C212 C208 1.385 . S
C212 C211 1.374 . S
C213 C210 1.499 . S
C213 C214 1.373 . S
C213 C215 1.389 . S
C214 H193 0.950 . S
C214 C213 1.373 . S
C214 C230 1.377 . S
C215 C213 1.389 . S
C215 C216 1.524 . S
C215 C229 1.377 . S
C216 C215 1.524 . S
C216 C217 1.397 . S
C216 C221 1.363 1_455 S
C217 H194 0.950 . S
C217 C216 1.397 . S
C217 C218 1.334 . S
C218 H195 0.950 . S
C218 C217 1.334 . S
C218 C219 1.287 . S
C219 C218 1.287 . S
C219 C220 1.524 1_455 S
C219 H238 0.913 . S
C220 H196 0.950 . S
C220 C219 1.524 1_655 S
C220 C221 1.415 . S
C221 H197 0.950 . S
C221 C216 1.363 1_655 S
C221 C220 1.415 . S
C222 H198 0.951 . S
C222 C223 1.366 . S
C222 C224 1.388 . S
C223 C222 1.366 . S
C223 C227 1.385 1_455 S
C224 H199 0.951 . S
C224 C222 1.388 . S
C224 C225 1.366 . S
C225 C224 1.366 . S
C225 C226 1.414 1_455 S
C225 C228 1.499 . S
C226 H200 0.950 . S
C226 C225 1.414 1_655 S
C226 C227 1.374 . S
C227 H201 0.950 . S
C227 C223 1.385 1_655 S
C227 C226 1.374 . S
C228 C225 1.499 . S
C228 C229 1.373 . S
C228 C230 1.389 . S
C229 H202 0.950 . S
C229 C215 1.377 . S
C229 C228 1.373 . S
C230 C214 1.377 . S
C230 C228 1.389 . S
C230 C231 1.524 . S
C231 C230 1.524 . S
C231 C232 1.397 . S
C231 C236 1.363 . S
C232 H203 0.950 . S
C232 C231 1.397 . S
C232 C233 1.334 . S
C233 H204 0.950 . S
C233 C232 1.334 . S
C233 C234 1.287 . S
C234 C233 1.287 . S
C234 C235 1.524 . S
C234 H237 0.999 . S
C235 H205 0.950 . S
C235 C234 1.524 . S
C235 C236 1.415 . S
C236 H206 0.950 . S
C236 C231 1.363 . S
C236 C235 1.415 . S
H237 C234 0.999 . S
H238 C219 0.913 . S
H239 C257 0.951 . S
H240 C259 0.951 . S
H241 C261 0.950 . S
H242 C262 0.950 . S
H243 C264 0.950 . S
H244 C267 0.950 . S
H245 C268 0.950 . S
H246 C270 0.950 . S
H247 C271 0.950 . S
H248 C272 0.951 . S
H249 C274 0.951 . S
H250 C276 0.950 . S
H251 C277 0.950 . S
H252 C279 0.950 . S
H253 C282 0.950 . S
H254 C283 0.950 . S
H255 C285 0.950 . S
H256 C286 0.950 . S
C257 H239 0.951 . S
C257 C258 1.366 . S
C257 C259 1.388 . S
C258 C257 1.366 . S
C258 C262 1.385 . S
C259 H240 0.951 . S
C259 C257 1.388 . S
C259 C260 1.366 . S
C260 C259 1.366 . S
C260 C261 1.414 . S
C260 C263 1.499 . S
C261 H241 0.950 . S
C261 C260 1.414 . S
C261 C262 1.374 . S
C262 H242 0.950 . S
C262 C258 1.385 . S
C262 C261 1.374 . S
C263 C260 1.499 . S
C263 C264 1.373 . S
C263 C265 1.389 . S
C264 H243 0.950 . S
C264 C263 1.373 . S
C264 C280 1.377 . S
C265 C263 1.389 . S
C265 C266 1.524 . S
C265 C279 1.377 . S
C266 C265 1.524 . S
C266 C267 1.397 . S
C266 C271 1.363 . S
C267 H244 0.950 . S
C267 C266 1.397 . S
C267 C268 1.334 . S
C268 H245 0.950 . S
C268 C267 1.334 . S
C268 C269 1.287 . S
C269 C268 1.287 . S
C269 C270 1.524 . S
C269 H288 0.913 . S
C270 H246 0.950 . S
C270 C269 1.524 . S
C270 C271 1.415 . S
C271 H247 0.950 . S
C271 C266 1.363 . S
C271 C270 1.415 . S
C272 H248 0.951 . S
C272 C273 1.366 . S
C272 C274 1.388 . S
C273 C272 1.366 . S
C273 C277 1.385 . S
C274 H249 0.951 . S
C274 C272 1.388 . S
C274 C275 1.366 . S
C275 C274 1.366 . S
C275 C276 1.414 . S
C275 C278 1.499 . S
C276 H250 0.950 . S
C276 C275 1.414 . S
C276 C277 1.374 . S
C277 H251 0.950 . S
C277 C273 1.385 . S
C277 C276 1.374 . S
C278 C275 1.499 . S
C278 C279 1.373 . S
C278 C280 1.389 . S
C279 H252 0.950 . S
C279 C265 1.377 . S
C279 C278 1.373 . S
C280 C264 1.377 . S
C280 C278 1.389 . S
C280 C281 1.524 . S
C281 C280 1.524 . S
C281 C282 1.397 . S
C281 C286 1.363 . S
C282 H253 0.950 . S
C282 C281 1.397 . S
C282 C283 1.334 . S
C283 H254 0.950 . S
C283 C282 1.334 . S
C283 C284 1.287 . S
C284 C283 1.287 . S
C284 C285 1.524 . S
C284 H287 0.999 . S
C285 H255 0.950 . S
C285 C284 1.524 . S
C285 C286 1.415 . S
C286 H256 0.950 . S
C286 C281 1.363 . S
C286 C285 1.415 . S
H287 C284 0.999 . S
H288 C269 0.913 . S
H289 C307 0.951 . S
H290 C309 0.951 . S
H291 C311 0.950 . S
H292 C312 0.950 . S
H293 C314 0.950 . S
H294 C317 0.950 . S
H295 C318 0.950 . S
H296 C320 0.950 . S
H297 C321 0.950 . S
H298 C322 0.951 . S
H299 C324 0.951 . S
H300 C326 0.950 . S
H301 C327 0.950 . S
H302 C329 0.950 . S
H303 C332 0.950 . S
H304 C333 0.950 . S
H305 C335 0.950 . S
H306 C336 0.950 . S
C307 H289 0.951 . S
C307 C308 1.366 1_565 S
C307 C309 1.388 . S
C308 C307 1.366 1_545 S
C308 C312 1.385 . S
C309 H290 0.951 . S
C309 C307 1.388 . S
C309 C310 1.366 1_565 S
C310 C309 1.366 1_545 S
C310 C311 1.414 . S
C310 C313 1.499 . S
C311 H291 0.950 . S
C311 C310 1.414 . S
C311 C312 1.374 . S
C312 H292 0.950 . S
C312 C308 1.385 . S
C312 C311 1.374 . S
C313 C310 1.499 . S
C313 C314 1.373 . S
C313 C315 1.389 1_545 S
C314 H293 0.950 . S
C314 C313 1.373 . S
C314 C330 1.377 . S
C315 C313 1.389 1_565 S
C315 C316 1.524 . S
C315 C329 1.377 . S
C316 C315 1.524 . S
C316 C317 1.397 . S
C316 C321 1.363 . S
C317 H294 0.950 . S
C317 C316 1.397 . S
C317 C318 1.334 . S
C318 H295 0.950 . S
C318 C317 1.334 . S
C318 C319 1.287 . S
C319 C318 1.287 . S
C319 C320 1.524 . S
C319 H338 0.913 . S
C320 H296 0.950 . S
C320 C319 1.524 . S
C320 C321 1.415 . S
C321 H297 0.950 . S
C321 C316 1.363 . S
C321 C320 1.415 . S
C322 H298 0.951 . S
C322 C323 1.366 . S
C322 C324 1.388 . S
C323 C322 1.366 . S
C323 C327 1.385 . S
C324 H299 0.951 . S
C324 C322 1.388 . S
C324 C325 1.366 . S
C325 C324 1.366 . S
C325 C326 1.414 . S
C325 C328 1.499 . S
C326 H300 0.950 . S
C326 C325 1.414 . S
C326 C327 1.374 . S
C327 H301 0.950 . S
C327 C323 1.385 . S
C327 C326 1.374 . S
C328 C325 1.499 . S
C328 C329 1.373 1_545 S
C328 C330 1.389 . S
C329 H302 0.950 . S
C329 C315 1.377 . S
C329 C328 1.373 1_565 S
C330 C314 1.377 . S
C330 C328 1.389 . S
C330 C331 1.524 . S
C331 C330 1.524 . S
C331 C332 1.397 . S
C331 C336 1.363 . S
C332 H303 0.950 . S
C332 C331 1.397 . S
C332 C333 1.334 . S
C333 H304 0.950 . S
C333 C332 1.334 . S
C333 C334 1.287 . S
C334 C333 1.287 . S
C334 C335 1.524 . S
C334 H337 0.999 . S
C335 H305 0.950 . S
C335 C334 1.524 . S
C335 C336 1.415 . S
C336 H306 0.950 . S
C336 C331 1.363 . S
C336 C335 1.415 . S
H337 C334 0.999 . S
H338 C319 0.913 . S
H339 C357 0.951 . S
H340 C359 0.951 . S
H341 C361 0.950 . S
H342 C362 0.950 . S
H343 C364 0.950 . S
H344 C367 0.950 . S
H345 C368 0.950 . S
H346 C370 0.950 . S
H347 C371 0.950 . S
H348 C372 0.951 1_554 S
H349 C374 0.951 . S
H350 C376 0.950 . S
H351 C377 0.950 1_554 S
H352 C379 0.950 . S
H353 C382 0.950 . S
H354 C383 0.950 . S
H355 C385 0.950 . S
H356 C386 0.950 . S
C357 H339 0.951 . S
C357 C358 1.366 . S
C357 C359 1.388 . S
C358 C357 1.366 . S
C358 C362 1.385 . S
C359 H340 0.951 . S
C359 C357 1.388 . S
C359 C360 1.366 . S
C360 C359 1.366 . S
C360 C361 1.414 . S
C360 C363 1.499 . S
C361 H341 0.950 . S
C361 C360 1.414 . S
C361 C362 1.374 . S
C362 H342 0.950 . S
C362 C358 1.385 . S
C362 C361 1.374 . S
C363 C360 1.499 . S
C363 C364 1.373 . S
C363 C365 1.389 . S
C364 H343 0.950 . S
C364 C363 1.373 . S
C364 C380 1.377 . S
C365 C363 1.389 . S
C365 C366 1.524 . S
C365 C379 1.377 . S
C366 C365 1.524 . S
C366 C367 1.397 . S
C366 C371 1.363 . S
C367 H344 0.950 . S
C367 C366 1.397 . S
C367 C368 1.334 . S
C368 H345 0.950 . S
C368 C367 1.334 . S
C368 C369 1.287 . S
C369 C368 1.287 . S
C369 C370 1.524 . S
C369 H388 0.913 . S
C370 H346 0.950 . S
C370 C369 1.524 . S
C370 C371 1.415 . S
C371 H347 0.950 . S
C371 C366 1.363 . S
C371 C370 1.415 . S
C372 H348 0.951 1_556 S
C372 C373 1.366 1_556 S
C372 C374 1.388 . S
C373 C372 1.366 1_554 S
C373 C377 1.385 1_554 S
C374 H349 0.951 . S
C374 C372 1.388 . S
C374 C375 1.366 . S
C375 C374 1.366 . S
C375 C376 1.414 . S
C375 C378 1.499 . S
C376 H350 0.950 . S
C376 C375 1.414 . S
C376 C377 1.374 . S
C377 H351 0.950 1_556 S
C377 C373 1.385 1_556 S
C377 C376 1.374 . S
C378 C375 1.499 . S
C378 C379 1.373 . S
C378 C380 1.389 . S
C379 H352 0.950 . S
C379 C365 1.377 . S
C379 C378 1.373 . S
C380 C364 1.377 . S
C380 C378 1.389 . S
C380 C381 1.524 . S
C381 C380 1.524 . S
C381 C382 1.397 . S
C381 C386 1.363 . S
C382 H353 0.950 . S
C382 C381 1.397 . S
C382 C383 1.334 . S
C383 H354 0.950 . S
C383 C382 1.334 . S
C383 C384 1.287 . S
C384 C383 1.287 . S
C384 C385 1.524 . S
C384 H387 0.999 . S
C385 H355 0.950 . S
C385 C384 1.524 . S
C385 C386 1.415 . S
C386 H356 0.950 . S
C386 C381 1.363 . S
C386 C385 1.415 . S
H387 C384 0.999 . S
H388 C369 0.913 . S
H389 C407 0.951 . S
H390 C409 0.951 . S
H391 C411 0.950 . S
H392 C412 0.950 . S
H393 C414 0.950 . S
H394 C417 0.950 . S
H395 C418 0.950 . S
H396 C420 0.950 . S
H397 C421 0.950 . S
H398 C422 0.951 . S
H399 C424 0.951 . S
H400 C426 0.950 . S
H401 C427 0.950 . S
H402 C429 0.950 . S
H403 C432 0.950 . S
H404 C433 0.950 . S
H405 C435 0.950 . S
H406 C436 0.950 . S
C407 H389 0.951 . S
C407 C408 1.366 . S
C407 C409 1.388 . S
C408 C407 1.366 . S
C408 C412 1.385 . S
C409 H390 0.951 . S
C409 C407 1.388 . S
C409 C410 1.366 . S
C410 C409 1.366 . S
C410 C411 1.414 . S
C410 C413 1.499 . S
C411 H391 0.950 . S
C411 C410 1.414 . S
C411 C412 1.374 . S
C412 H392 0.950 . S
C412 C408 1.385 . S
C412 C411 1.374 . S
C413 C410 1.499 . S
C413 C414 1.373 . S
C413 C415 1.389 . S
C414 H393 0.950 . S
C414 C413 1.373 . S
C414 C430 1.377 . S
C415 C413 1.389 . S
C415 C416 1.524 . S
C415 C429 1.377 . S
C416 C415 1.524 . S
C416 C417 1.397 . S
C416 C421 1.363 . S
C417 H394 0.950 . S
C417 C416 1.397 . S
C417 C418 1.334 . S
C418 H395 0.950 . S
C418 C417 1.334 . S
C418 C419 1.287 . S
C419 C418 1.287 . S
C419 C420 1.524 . S
C419 H438 0.913 . S
C420 H396 0.950 . S
C420 C419 1.524 . S
C420 C421 1.415 . S
C421 H397 0.950 . S
C421 C416 1.363 . S
C421 C420 1.415 . S
C422 H398 0.951 . S
C422 C423 1.366 . S
C422 C424 1.388 1_554 S
C423 C422 1.366 . S
C423 C427 1.385 . S
C424 H399 0.951 . S
C424 C422 1.388 1_556 S
C424 C425 1.366 . S
C425 C424 1.366 . S
C425 C426 1.414 . S
C425 C428 1.499 . S
C426 H400 0.950 . S
C426 C425 1.414 . S
C426 C427 1.374 1_556 S
C427 H401 0.950 . S
C427 C423 1.385 . S
C427 C426 1.374 1_554 S
C428 C425 1.499 . S
C428 C429 1.373 . S
C428 C430 1.389 . S
C429 H402 0.950 . S
C429 C415 1.377 . S
C429 C428 1.373 . S
C430 C414 1.377 . S
C430 C428 1.389 . S
C430 C431 1.524 . S
C431 C430 1.524 . S
C431 C432 1.397 . S
C431 C436 1.363 . S
C432 H403 0.950 . S
C432 C431 1.397 . S
C432 C433 1.334 . S
C433 H404 0.950 . S
C433 C432 1.334 . S
C433 C434 1.287 . S
C434 C433 1.287 . S
C434 C435 1.524 . S
C434 H437 0.999 . S
C435 H405 0.950 . S
C435 C434 1.524 . S
C435 C436 1.415 . S
C436 H406 0.950 . S
C436 C431 1.363 . S
C436 C435 1.415 . S
H437 C434 0.999 . S
H438 C419 0.913 . S
H439 C457 0.951 . S
H440 C459 0.951 . S
H441 C461 0.950 . S
H442 C462 0.950 . S
H443 C464 0.950 . S
H444 C467 0.950 . S
H445 C468 0.950 . S
H446 C470 0.950 . S
H447 C471 0.950 . S
H448 C472 0.951 . S
H449 C474 0.951 . S
H450 C476 0.951 1_556 S
H451 C477 0.950 . S
H452 C479 0.950 . S
H453 C482 0.950 . S
H454 C483 0.950 . S
H455 C485 0.950 . S
H456 C486 0.950 . S
C457 H439 0.951 . S
C457 C458 1.366 . S
C457 C459 1.388 . S
C458 C457 1.366 . S
C458 C462 1.385 . S
C459 H440 0.951 . S
C459 C457 1.388 . S
C459 C460 1.366 . S
C460 C459 1.366 . S
C460 C461 1.414 . S
C460 C463 1.499 . S
C461 H441 0.950 . S
C461 C460 1.414 . S
C461 C462 1.374 . S
C462 H442 0.950 . S
C462 C458 1.385 . S
C462 C461 1.374 . S
C463 C460 1.499 . S
C463 C464 1.373 . S
C463 C465 1.389 . S
C464 H443 0.950 . S
C464 C463 1.373 . S
C464 C480 1.377 . S
C465 C463 1.389 . S
C465 C466 1.524 . S
C465 C479 1.377 . S
C466 C465 1.524 . S
C466 C467 1.397 . S
C466 C471 1.363 . S
C467 H444 0.950 . S
C467 C466 1.397 . S
C467 C468 1.334 . S
C468 H445 0.950 . S
C468 C467 1.334 . S
C468 C469 1.287 . S
C469 C468 1.287 . S
C469 C470 1.524 . S
C469 H488 0.913 . S
C470 H446 0.950 . S
C470 C469 1.524 . S
C470 C471 1.415 . S
C471 H447 0.950 . S
C471 C466 1.363 . S
C471 C470 1.415 . S
C472 H448 0.951 . S
C472 C473 1.366 . S
C472 C474 1.388 1_554 S
C473 C472 1.366 . S
C473 C477 1.385 . S
C474 H449 0.951 . S
C474 C472 1.388 1_556 S
C474 C475 1.366 . S
C475 C474 1.366 . S
C475 C476 1.414 1_556 S
C475 C478 1.499 . S
C476 H450 0.951 1_554 S
C476 C475 1.414 1_554 S
C476 C477 1.373 . S
C477 H451 0.950 . S
C477 C473 1.385 . S
C477 C476 1.373 . S
C478 C475 1.499 . S
C478 C479 1.373 . S
C478 C480 1.389 . S
C479 H452 0.950 . S
C479 C465 1.377 . S
C479 C478 1.373 . S
C480 C464 1.377 . S
C480 C478 1.389 . S
C480 C481 1.524 . S
C481 C480 1.524 . S
C481 C482 1.397 . S
C481 C486 1.363 . S
C482 H453 0.950 . S
C482 C481 1.397 . S
C482 C483 1.334 . S
C483 H454 0.950 . S
C483 C482 1.334 . S
C483 C484 1.287 . S
C484 C483 1.287 . S
C484 C485 1.524 . S
C484 H487 0.999 . S
C485 H455 0.950 . S
C485 C484 1.524 . S
C485 C486 1.415 . S
C486 H456 0.950 . S
C486 C481 1.363 . S
C486 C485 1.415 . S
H487 C484 0.999 . S
H488 C469 0.913 . S
H489 C507 0.951 . S
H490 C509 0.951 . S
H491 C511 0.950 . S
H492 C512 0.950 . S
H493 C514 0.950 . S
H494 C517 0.950 . S
H495 C518 0.950 . S
H496 C520 0.950 . S
H497 C521 0.950 . S
H498 C522 0.951 . S
H499 C524 0.951 . S
H500 C526 0.950 . S
H501 C527 0.950 . S
H502 C529 0.950 . S
H503 C532 0.950 . S
H504 C533 0.950 . S
H505 C535 0.950 . S
H506 C536 0.950 . S
C507 H489 0.951 . S
C507 C508 1.366 . S
C507 C509 1.388 . S
C508 C507 1.366 . S
C508 C512 1.385 . S
C509 H490 0.951 . S
C509 C507 1.388 . S
C509 C510 1.366 . S
C510 C509 1.366 . S
C510 C511 1.414 . S
C510 C513 1.499 . S
C511 H491 0.950 . S
C511 C510 1.414 . S
C511 C512 1.374 . S
C512 H492 0.950 . S
C512 C508 1.385 . S
C512 C511 1.374 . S
C513 C510 1.499 . S
C513 C514 1.373 . S
C513 C515 1.389 . S
C514 H493 0.950 . S
C514 C513 1.373 . S
C514 C530 1.377 . S
C515 C513 1.389 . S
C515 C516 1.524 . S
C515 C529 1.377 . S
C516 C515 1.524 . S
C516 C517 1.397 . S
C516 C521 1.363 . S
C517 H494 0.950 . S
C517 C516 1.397 . S
C517 C518 1.334 . S
C518 H495 0.950 . S
C518 C517 1.334 . S
C518 C519 1.287 . S
C519 C518 1.287 . S
C519 C520 1.524 . S
C519 H538 0.913 . S
C520 H496 0.950 . S
C520 C519 1.524 . S
C520 C521 1.415 . S
C521 H497 0.950 . S
C521 C516 1.363 . S
C521 C520 1.415 . S
C522 H498 0.951 . S
C522 C523 1.366 . S
C522 C524 1.388 1_556 S
C523 C522 1.366 . S
C523 C527 1.385 . S
C524 H499 0.951 . S
C524 C522 1.388 1_554 S
C524 C525 1.366 . S
C525 C524 1.366 . S
C525 C526 1.414 . S
C525 C528 1.499 . S
C526 H500 0.950 . S
C526 C525 1.414 . S
C526 C527 1.374 1_554 S
C527 H501 0.950 . S
C527 C523 1.385 . S
C527 C526 1.374 1_556 S
C528 C525 1.499 . S
C528 C529 1.373 . S
C528 C530 1.389 . S
C529 H502 0.950 . S
C529 C515 1.377 . S
C529 C528 1.373 . S
C530 C514 1.377 . S
C530 C528 1.389 . S
C530 C531 1.524 . S
C531 C530 1.524 . S
C531 C532 1.397 . S
C531 C536 1.363 . S
C532 H503 0.950 . S
C532 C531 1.397 . S
C532 C533 1.334 . S
C533 H504 0.950 . S
C533 C532 1.334 . S
C533 C534 1.287 . S
C534 C533 1.287 . S
C534 C535 1.524 . S
C534 H537 0.999 . S
C535 H505 0.950 . S
C535 C534 1.524 . S
C535 C536 1.415 . S
C536 H506 0.950 . S
C536 C531 1.363 . S
C536 C535 1.415 . S
H537 C534 0.999 . S
H538 C519 0.913 . S
H539 C557 0.951 . S
H540 C559 0.951 . S
H541 C561 0.950 . S
H542 C562 0.950 . S
H543 C564 0.950 . S
H544 C567 0.950 . S
H545 C568 0.950 . S
H546 C570 0.950 . S
H547 C571 0.950 . S
H548 C572 0.951 . S
H549 C574 0.958 . S
H550 C576 0.950 . S
H551 C577 0.950 . S
H552 C579 0.950 . S
H553 C582 0.950 . S
H554 C583 0.950 1_556 S
H555 C585 0.950 . S
H556 C586 0.950 . S
C557 H539 0.951 . S
C557 C558 1.366 . S
C557 C559 1.388 . S
C558 C557 1.366 . S
C558 C562 1.385 . S
C559 H540 0.951 . S
C559 C557 1.388 . S
C559 C560 1.366 . S
C560 C559 1.366 . S
C560 C561 1.414 . S
C560 C563 1.499 . S
C561 H541 0.950 . S
C561 C560 1.414 . S
C561 C562 1.374 . S
C562 H542 0.950 . S
C562 C558 1.385 . S
C562 C561 1.374 . S
C563 C560 1.499 . S
C563 C564 1.373 . S
C563 C565 1.389 . S
C564 H543 0.950 . S
C564 C563 1.373 . S
C564 C580 1.377 . S
C565 C563 1.389 . S
C565 C566 1.524 . S
C565 C579 1.377 . S
C566 C565 1.524 . S
C566 C567 1.397 . S
C566 C571 1.363 . S
C567 H544 0.950 . S
C567 C566 1.397 . S
C567 C568 1.334 . S
C568 H545 0.950 . S
C568 C567 1.334 . S
C568 C569 1.287 . S
C569 C568 1.287 . S
C569 C570 1.524 . S
C569 H588 0.913 . S
C570 H546 0.950 . S
C570 C569 1.524 . S
C570 C571 1.415 . S
C571 H547 0.950 . S
C571 C566 1.363 . S
C571 C570 1.415 . S
C572 H548 0.951 . S
C572 C573 1.366 . S
C572 C574 1.388 . S
C573 C572 1.366 . S
C573 C577 1.385 . S
C574 H549 0.958 . S
C574 C572 1.388 . S
C574 C575 1.366 . S
C575 C574 1.366 . S
C575 C576 1.414 . S
C575 C578 1.499 1_556 S
C576 H550 0.950 . S
C576 C575 1.414 . S
C576 C577 1.374 . S
C577 H551 0.950 . S
C577 C573 1.385 . S
C577 C576 1.374 . S
C578 C575 1.499 1_554 S
C578 C579 1.373 . S
C578 C580 1.389 . S
C579 H552 0.950 . S
C579 C565 1.377 . S
C579 C578 1.373 . S
C580 C564 1.377 . S
C580 C578 1.389 . S
C580 C581 1.524 . S
C581 C580 1.524 . S
C581 C582 1.397 . S
C581 C586 1.363 . S
C582 H553 0.950 . S
C582 C581 1.397 . S
C582 C583 1.334 . S
C583 H554 0.950 1_554 S
C583 C582 1.334 . S
C583 C584 1.287 . S
C584 C583 1.287 . S
C584 C585 1.524 . S
C584 H587 0.999 . S
C585 H555 0.950 . S
C585 C584 1.524 . S
C585 C586 1.415 . S
C586 H556 0.950 . S
C586 C581 1.363 . S
C586 C585 1.415 . S
H587 C584 0.999 . S
H588 C569 0.913 . S
H589 C607 0.951 . S
H590 C609 0.951 . S
H591 C611 0.950 . S
H592 C612 0.950 . S
H593 C614 0.950 . S
H594 C617 0.950 . S
H595 C618 0.950 . S
H596 C620 0.950 . S
H597 C621 0.950 . S
H598 C622 0.951 . S
H599 C624 0.951 . S
H600 C626 0.950 . S
H601 C627 0.950 . S
H602 C629 0.950 . S
H603 C632 0.950 . S
H604 C633 0.950 . S
H605 C635 0.950 . S
H606 C636 0.950 . S
C607 H589 0.951 . S
C607 C608 1.366 . S
C607 C609 1.388 . S
C608 C607 1.366 . S
C608 C612 1.385 . S
C609 H590 0.951 . S
C609 C607 1.388 . S
C609 C610 1.366 . S
C610 C609 1.366 . S
C610 C611 1.414 . S
C610 C613 1.499 . S
C611 H591 0.950 . S
C611 C610 1.414 . S
C611 C612 1.374 . S
C612 H592 0.950 . S
C612 C608 1.385 . S
C612 C611 1.374 . S
C613 C610 1.499 . S
C613 C614 1.373 . S
C613 C615 1.389 . S
C614 H593 0.950 . S
C614 C613 1.373 . S
C614 C630 1.377 . S
C615 C613 1.389 . S
C615 C616 1.524 . S
C615 C629 1.377 . S
C616 C615 1.524 . S
C616 C617 1.397 . S
C616 C621 1.363 . S
C617 H594 0.950 . S
C617 C616 1.397 . S
C617 C618 1.334 . S
C618 H595 0.950 . S
C618 C617 1.334 . S
C618 C619 1.287 . S
C619 C618 1.287 . S
C619 C620 1.524 . S
C619 H638 0.913 . S
C620 H596 0.950 . S
C620 C619 1.524 . S
C620 C621 1.415 . S
C621 H597 0.950 . S
C621 C616 1.363 . S
C621 C620 1.415 . S
C622 H598 0.951 . S
C622 C623 1.366 . S
C622 C624 1.388 . S
C623 C622 1.366 . S
C623 C627 1.385 . S
C624 H599 0.951 . S
C624 C622 1.388 . S
C624 C625 1.366 . S
C625 C624 1.366 . S
C625 C626 1.414 . S
C625 C628 1.499 1_556 S
C626 H600 0.950 . S
C626 C625 1.414 . S
C626 C627 1.374 . S
C627 H601 0.950 . S
C627 C623 1.385 . S
C627 C626 1.374 . S
C628 C625 1.499 1_554 S
C628 C629 1.373 . S
C628 C630 1.389 . S
C629 H602 0.950 . S
C629 C615 1.377 . S
C629 C628 1.373 . S
C630 C614 1.377 . S
C630 C628 1.389 . S
C630 C631 1.524 . S
C631 C630 1.524 . S
C631 C632 1.397 1_554 S
C631 C636 1.363 . S
C632 H603 0.950 . S
C632 C631 1.397 1_556 S
C632 C633 1.334 . S
C633 H604 0.950 . S
C633 C632 1.334 . S
C633 C634 1.287 . S
C634 C633 1.287 . S
C634 C635 1.524 . S
C634 H637 0.999 . S
C635 H605 0.950 . S
C635 C634 1.524 . S
C635 C636 1.415 1_556 S
C636 H606 0.950 . S
C636 C631 1.363 . S
C636 C635 1.415 1_554 S
H637 C634 0.999 . S
H638 C619 0.913 . S
H639 C657 0.951 . S
H640 C659 0.951 . S
H641 C661 0.950 . S
H642 C662 0.950 . S
H643 C664 0.950 . S
H644 C667 0.950 . S
H645 C668 0.950 . S
H646 C670 0.950 . S
H647 C671 0.950 . S
H648 C672 0.951 . S
H649 C674 0.951 . S
H650 C676 0.950 . S
H651 C677 0.950 . S
H652 C679 0.950 . S
H653 C682 0.950 . S
H654 C683 0.950 . S
H655 C685 0.950 . S
H656 C686 0.950 . S
C657 H639 0.951 . S
C657 C658 1.366 . S
C657 C659 1.388 . S
C658 C657 1.366 . S
C658 C662 1.385 . S
C659 H640 0.951 . S
C659 C657 1.388 . S
C659 C660 1.366 . S
C660 C659 1.366 . S
C660 C661 1.414 . S
C660 C663 1.499 . S
C661 H641 0.950 . S
C661 C660 1.414 . S
C661 C662 1.374 . S
C662 H642 0.950 . S
C662 C658 1.385 . S
C662 C661 1.374 . S
C663 C660 1.499 . S
C663 C664 1.373 . S
C663 C665 1.389 . S
C664 H643 0.950 . S
C664 C663 1.373 . S
C664 C680 1.377 . S
C665 C663 1.389 . S
C665 C666 1.524 . S
C665 C679 1.377 . S
C666 C665 1.524 . S
C666 C667 1.397 . S
C666 C671 1.363 . S
C667 H644 0.950 . S
C667 C666 1.397 . S
C667 C668 1.334 1_554 S
C668 H645 0.950 . S
C668 C667 1.334 1_556 S
C668 C669 1.287 . S
C669 C668 1.287 . S
C669 C670 1.524 . S
C669 H688 0.913 . S
C670 H646 0.950 . S
C670 C669 1.524 . S
C670 C671 1.415 1_556 S
C671 H647 0.950 . S
C671 C666 1.363 . S
C671 C670 1.415 1_554 S
C672 H648 0.951 . S
C672 C673 1.366 . S
C672 C674 1.388 . S
C673 C672 1.366 . S
C673 C677 1.385 . S
C674 H649 0.951 . S
C674 C672 1.388 . S
C674 C675 1.366 . S
C675 C674 1.366 . S
C675 C676 1.414 . S
C675 C678 1.499 . S
C676 H650 0.950 . S
C676 C675 1.414 . S
C676 C677 1.374 . S
C677 H651 0.950 . S
C677 C673 1.385 . S
C677 C676 1.374 . S
C678 C675 1.499 . S
C678 C679 1.373 . S
C678 C680 1.389 . S
C679 H652 0.950 . S
C679 C665 1.377 . S
C679 C678 1.373 . S
C680 C664 1.377 . S
C680 C678 1.389 . S
C680 C681 1.524 . S
C681 C680 1.524 . S
C681 C682 1.397 . S
C681 C686 1.363 . S
C682 H653 0.950 . S
C682 C681 1.397 . S
C682 C683 1.334 . S
C683 H654 0.950 . S
C683 C682 1.334 . S
C683 C684 1.287 . S
C684 C683 1.287 . S
C684 C685 1.524 . S
C684 H687 0.999 . S
C685 H655 0.950 . S
C685 C684 1.524 . S
C685 C686 1.415 . S
C686 H656 0.950 . S
C686 C681 1.363 . S
C686 C685 1.415 . S
H687 C684 0.999 . S
H688 C669 0.913 . S
H689 C707 0.951 . S
H690 C709 0.951 . S
H691 C711 0.950 1_556 S
H692 C712 0.950 1_556 S
H693 C714 0.950 . S
H694 C717 0.950 . S
H695 C718 0.950 . S
H696 C720 0.950 . S
H697 C721 0.950 . S
H698 C722 0.951 . S
H699 C724 0.951 . S
H700 C726 0.950 . S
H701 C727 0.950 . S
H702 C729 0.950 . S
H703 C732 0.950 . S
H704 C733 0.950 . S
H705 C735 0.950 1_556 S
H706 C736 0.950 1_556 S
C707 H689 0.951 . S
C707 C708 1.366 . S
C707 C709 1.388 . S
C708 C707 1.366 . S
C708 C712 1.385 . S
C709 H690 0.951 . S
C709 C707 1.388 . S
C709 C710 1.366 . S
C710 C709 1.366 . S
C710 C711 1.414 . S
C710 C713 1.499 . S
C711 H691 0.950 1_554 S
C711 C710 1.414 . S
C711 C712 1.374 . S
C712 H692 0.950 1_554 S
C712 C708 1.385 . S
C712 C711 1.374 . S
C713 C710 1.499 . S
C713 C714 1.373 . S
C713 C715 1.389 . S
C714 H693 0.950 . S
C714 C713 1.373 . S
C714 C730 1.377 . S
C715 C713 1.389 . S
C715 C716 1.524 . S
C715 C729 1.377 . S
C716 C715 1.524 . S
C716 C717 1.397 . S
C716 C721 1.363 . S
C717 H694 0.950 . S
C717 C716 1.397 . S
C717 C718 1.334 . S
C718 H695 0.950 . S
C718 C717 1.334 . S
C718 C719 1.287 . S
C719 C718 1.287 . S
C719 C720 1.524 . S
C719 H738 0.913 . S
C720 H696 0.950 . S
C720 C719 1.524 . S
C720 C721 1.415 . S
C721 H697 0.950 . S
C721 C716 1.363 . S
C721 C720 1.415 . S
C722 H698 0.951 . S
C722 C723 1.366 . S
C722 C724 1.388 . S
C723 C722 1.366 . S
C723 C727 1.385 . S
C724 H699 0.951 . S
C724 C722 1.388 . S
C724 C725 1.366 . S
C725 C724 1.366 . S
C725 C726 1.414 . S
C725 C728 1.499 . S
C726 H700 0.950 . S
C726 C725 1.414 . S
C726 C727 1.374 . S
C727 H701 0.950 . S
C727 C723 1.385 . S
C727 C726 1.374 . S
C728 C725 1.499 . S
C728 C729 1.373 . S
C728 C730 1.389 . S
C729 H702 0.950 . S
C729 C715 1.377 . S
C729 C728 1.373 . S
C730 C714 1.377 . S
C730 C728 1.389 . S
C730 C731 1.524 . S
C731 C730 1.524 . S
C731 C732 1.397 . S
C731 C736 1.363 . S
C732 H703 0.950 . S
C732 C731 1.397 . S
C732 C733 1.334 . S
C733 H704 0.950 . S
C733 C732 1.334 . S
C733 C734 1.287 . S
C734 C733 1.287 . S
C734 C735 1.524 . S
C734 H737 0.999 . S
C735 H705 0.950 1_554 S
C735 C734 1.524 . S
C735 C736 1.415 . S
C736 H706 0.950 1_554 S
C736 C731 1.363 . S
C736 C735 1.415 . S
H737 C734 0.999 . S
H738 C719 0.913 . S
H739 C757 0.951 1_545 S
H740 C759 0.951 . S
H741 C761 0.950 . S
H742 C762 0.950 . S
H743 C764 0.950 . S
H744 C767 0.950 . S
H745 C768 0.950 . S
H746 C770 0.950 . S
H747 C771 0.950 . S
H748 C772 0.951 . S
H749 C774 0.951 . S
H750 C776 0.950 . S
H751 C777 0.950 . S
H752 C779 0.950 . S
H753 C782 0.950 . S
H754 C783 0.950 . S
H755 C785 0.950 . S
H756 C786 0.950 . S
C757 H739 0.951 1_565 S
C757 C758 1.366 . S
C757 C759 1.388 . S
C758 C757 1.366 . S
C758 C762 1.385 . S
C759 H740 0.951 . S
C759 C757 1.388 . S
C759 C760 1.366 . S
C760 C759 1.366 . S
C760 C761 1.414 . S
C760 C763 1.499 . S
C761 H741 0.950 . S
C761 C760 1.414 . S
C761 C762 1.374 . S
C762 H742 0.950 . S
C762 C758 1.385 . S
C762 C761 1.374 . S
C763 C760 1.499 . S
C763 C764 1.373 . S
C763 C765 1.389 . S
C764 H743 0.950 . S
C764 C763 1.373 . S
C764 C780 1.377 . S
C765 C763 1.389 . S
C765 C766 1.524 . S
C765 C779 1.377 . S
C766 C765 1.524 . S
C766 C767 1.397 . S
C766 C771 1.363 . S
C767 H744 0.950 . S
C767 C766 1.397 . S
C767 C768 1.334 . S
C768 H745 0.950 . S
C768 C767 1.334 . S
C768 C769 1.266 1_565 S
C769 C768 1.266 1_545 S
C769 C770 1.537 . S
C769 H788 0.923 . S
C770 H746 0.950 . S
C770 C769 1.537 . S
C770 C771 1.415 1_545 S
C771 H747 0.950 . S
C771 C766 1.363 . S
C771 C770 1.415 1_565 S
C772 H748 0.951 . S
C772 C773 1.366 . S
C772 C774 1.388 . S
C773 C772 1.366 . S
C773 C777 1.385 . S
C774 H749 0.951 . S
C774 C772 1.388 . S
C774 C775 1.366 . S
C775 C774 1.366 . S
C775 C776 1.414 . S
C775 C778 1.499 . S
C776 H750 0.950 . S
C776 C775 1.414 . S
C776 C777 1.374 . S
C777 H751 0.950 . S
C777 C773 1.385 . S
C777 C776 1.374 . S
C778 C775 1.499 . S
C778 C779 1.373 . S
C778 C780 1.389 . S
C779 H752 0.950 . S
C779 C765 1.377 . S
C779 C778 1.373 . S
C780 C764 1.377 . S
C780 C778 1.389 . S
C780 C781 1.524 . S
C781 C780 1.524 . S
C781 C782 1.397 . S
C781 C786 1.363 . S
C782 H753 0.950 . S
C782 C781 1.397 . S
C782 C783 1.334 1_554 S
C783 H754 0.950 . S
C783 C782 1.334 1_556 S
C783 C784 1.287 . S
C784 C783 1.287 . S
C784 C785 1.524 1_556 S
C784 H787 0.999 . S
C785 H755 0.950 . S
C785 C784 1.524 1_554 S
C785 C786 1.415 . S
C786 H756 0.950 . S
C786 C781 1.363 . S
C786 C785 1.415 . S
H787 C784 0.999 . S
H788 C769 0.923 . S
H789 C807 0.951 . S
H790 C809 0.951 . S
H791 C811 0.950 . S
H792 C812 0.950 . S
H793 C814 0.950 . S
H794 C817 0.950 . S
H795 C818 0.950 . S
H796 C820 0.950 . S
H797 C821 0.950 . S
H798 C822 0.951 . S
H799 C824 0.951 . S
H800 C826 0.950 . S
H801 C827 0.950 . S
H802 C829 0.950 . S
H803 C832 0.950 . S
H804 C833 0.950 . S
H805 C835 0.950 1_554 S
H806 C836 0.950 1_554 S
C807 H789 0.951 . S
C807 C808 1.366 1_556 S
C807 C809 1.388 . S
C808 C807 1.366 1_554 S
C808 C812 1.385 . S
C809 H790 0.951 . S
C809 C807 1.388 . S
C809 C810 1.366 . S
C810 C809 1.366 . S
C810 C811 1.414 1_556 S
C810 C813 1.499 . S
C811 H791 0.950 . S
C811 C810 1.414 1_554 S
C811 C812 1.374 . S
C812 H792 0.950 . S
C812 C808 1.385 . S
C812 C811 1.374 . S
C813 C810 1.499 . S
C813 C814 1.373 . S
C813 C815 1.389 . S
C814 H793 0.950 . S
C814 C813 1.373 . S
C814 C830 1.377 . S
C815 C813 1.389 . S
C815 C816 1.524 . S
C815 C829 1.377 . S
C816 C815 1.524 . S
C816 C817 1.397 1_556 S
C816 C821 1.363 . S
C817 H794 0.950 . S
C817 C816 1.397 1_554 S
C817 C818 1.334 . S
C818 H795 0.950 . S
C818 C817 1.334 . S
C818 C819 1.287 1_554 S
C819 C818 1.287 1_556 S
C819 C820 1.524 . S
C819 H838 0.913 . S
C820 H796 0.950 . S
C820 C819 1.524 . S
C820 C821 1.415 . S
C821 H797 0.950 . S
C821 C816 1.363 . S
C821 C820 1.415 . S
C822 H798 0.951 . S
C822 C823 1.366 . S
C822 C824 1.388 . S
C823 C822 1.366 . S
C823 C827 1.385 . S
C824 H799 0.951 . S
C824 C822 1.388 . S
C824 C825 1.366 . S
C825 C824 1.366 . S
C825 C826 1.414 . S
C825 C828 1.499 . S
C826 H800 0.950 . S
C826 C825 1.414 . S
C826 C827 1.374 . S
C827 H801 0.950 . S
C827 C823 1.385 . S
C827 C826 1.374 . S
C828 C825 1.499 . S
C828 C829 1.373 . S
C828 C830 1.389 . S
C829 H802 0.950 . S
C829 C815 1.377 . S
C829 C828 1.373 . S
C830 C814 1.377 . S
C830 C828 1.389 . S
C830 C831 1.524 . S
C831 C830 1.524 . S
C831 C832 1.397 . S
C831 C836 1.363 . S
C832 H803 0.950 . S
C832 C831 1.397 . S
C832 C833 1.334 . S
C833 H804 0.950 . S
C833 C832 1.334 . S
C833 C834 1.287 . S
C834 C833 1.287 . S
C834 C835 1.524 . S
C834 H837 0.999 . S
C835 H805 0.950 1_556 S
C835 C834 1.524 . S
C835 C836 1.415 . S
C836 H806 0.950 1_556 S
C836 C831 1.363 . S
C836 C835 1.415 . S
H837 C834 0.999 . S
H838 C819 0.913 . S
H839 C857 0.951 . S
H840 C859 0.951 . S
H841 C861 0.950 . S
H842 C862 0.950 . S
H843 C864 0.950 . S
H844 C867 0.950 . S
H845 C868 0.950 . S
H846 C870 0.950 . S
H847 C871 0.950 . S
H848 C872 0.951 . S
H849 C874 0.951 . S
H850 C876 0.950 . S
H851 C877 0.950 . S
H852 C879 0.950 . S
H853 C882 0.950 . S
H854 C883 0.950 . S
H855 C885 0.950 . S
H856 C886 0.950 . S
C857 H839 0.951 . S
C857 C858 1.366 . S
C857 C859 1.388 . S
C858 C857 1.366 . S
C858 C862 1.385 . S
C859 H840 0.951 . S
C859 C857 1.388 . S
C859 C860 1.366 . S
C860 C859 1.366 . S
C860 C861 1.414 . S
C860 C863 1.499 . S
C861 H841 0.950 . S
C861 C860 1.414 . S
C861 C862 1.374 . S
C862 H842 0.950 . S
C862 C858 1.385 . S
C862 C861 1.374 . S
C863 C860 1.499 . S
C863 C864 1.373 . S
C863 C865 1.389 . S
C864 H843 0.950 . S
C864 C863 1.373 . S
C864 C880 1.377 . S
C865 C863 1.389 . S
C865 C866 1.524 . S
C865 C879 1.377 . S
C866 C865 1.524 . S
C866 C867 1.397 . S
C866 C871 1.363 1_556 S
C867 H844 0.950 . S
C867 C866 1.397 . S
C867 C868 1.334 . S
C868 H845 0.950 . S
C868 C867 1.334 . S
C868 C869 1.287 1_556 S
C869 C868 1.287 1_554 S
C869 C870 1.524 . S
C869 H888 0.913 . S
C870 H846 0.950 . S
C870 C869 1.524 . S
C870 C871 1.415 . S
C871 H847 0.950 . S
C871 C866 1.363 1_554 S
C871 C870 1.415 . S
C872 H848 0.951 . S
C872 C873 1.366 1_556 S
C872 C874 1.388 . S
C873 C872 1.366 1_554 S
C873 C877 1.385 . S
C874 H849 0.951 . S
C874 C872 1.388 . S
C874 C875 1.366 . S
C875 C874 1.366 . S
C875 C876 1.414 1_556 S
C875 C878 1.499 . S
C876 H850 0.950 . S
C876 C875 1.414 1_554 S
C876 C877 1.374 . S
C877 H851 0.950 . S
C877 C873 1.385 . S
C877 C876 1.374 . S
C878 C875 1.499 . S
C878 C879 1.373 . S
C878 C880 1.389 . S
C879 H852 0.950 . S
C879 C865 1.377 . S
C879 C878 1.373 . S
C880 C864 1.377 . S
C880 C878 1.389 . S
C880 C881 1.524 . S
C881 C880 1.524 . S
C881 C882 1.397 . S
C881 C886 1.363 . S
C882 H853 0.950 . S
C882 C881 1.397 . S
C882 C883 1.334 1_655 S
C883 H854 0.950 . S
C883 C882 1.334 1_455 S
C883 C884 1.287 . S
C884 C883 1.287 . S
C884 C885 1.524 1_455 S
C884 H887 0.999 . S
C885 H855 0.950 . S
C885 C884 1.524 1_655 S
C885 C886 1.415 . S
C886 H856 0.950 . S
C886 C881 1.363 . S
C886 C885 1.415 . S
H887 C884 0.999 . S
H888 C869 0.913 . S
H889 C907 0.951 . S
H890 C909 0.951 . S
H891 C911 0.950 . S
H892 C912 0.950 . S
H893 C914 0.950 . S
H894 C917 0.950 . S
H895 C918 0.950 . S
H896 C920 0.950 . S
H897 C921 0.950 . S
H898 C922 0.951 . S
H899 C924 0.951 . S
H900 C926 0.950 . S
H901 C927 0.950 . S
H902 C929 0.950 . S
H903 C932 0.950 . S
H904 C933 0.950 . S
H905 C935 0.950 . S
H906 C936 0.950 . S
C907 H889 0.951 . S
C907 C908 1.366 . S
C907 C909 1.388 . S
C908 C907 1.366 . S
C908 C912 1.385 . S
C909 H890 0.951 . S
C909 C907 1.388 . S
C909 C910 1.366 . S
C910 C909 1.366 . S
C910 C911 1.414 . S
C910 C913 1.499 . S
C911 H891 0.950 . S
C911 C910 1.414 . S
C911 C912 1.374 . S
C912 H892 0.950 . S
C912 C908 1.385 . S
C912 C911 1.374 . S
C913 C910 1.499 . S
C913 C914 1.373 . S
C913 C915 1.389 . S
C914 H893 0.950 . S
C914 C913 1.373 . S
C914 C930 1.377 . S
C915 C913 1.389 . S
C915 C916 1.524 . S
C915 C929 1.377 . S
C916 C915 1.524 . S
C916 C917 1.397 . S
C916 C921 1.363 . S
C917 H894 0.950 . S
C917 C916 1.397 . S
C917 C918 1.334 . S
C918 H895 0.950 . S
C918 C917 1.334 . S
C918 C919 1.287 1_556 S
C919 C918 1.287 1_554 S
C919 C920 1.524 . S
C919 H938 0.913 . S
C920 H896 0.950 . S
C920 C919 1.524 . S
C920 C921 1.415 1_554 S
C921 H897 0.950 . S
C921 C916 1.363 . S
C921 C920 1.415 1_556 S
C922 H898 0.951 . S
C922 C923 1.366 1_556 S
C922 C924 1.388 . S
C923 C922 1.366 1_554 S
C923 C927 1.385 . S
C924 H899 0.951 . S
C924 C922 1.388 . S
C924 C925 1.366 . S
C925 C924 1.366 . S
C925 C926 1.414 . S
C925 C928 1.499 . S
C926 H900 0.950 . S
C926 C925 1.414 . S
C926 C927 1.374 1_556 S
C927 H901 0.950 . S
C927 C923 1.385 . S
C927 C926 1.374 1_554 S
C928 C925 1.499 . S
C928 C929 1.373 . S
C928 C930 1.389 . S
C929 H902 0.950 . S
C929 C915 1.377 . S
C929 C928 1.373 . S
C930 C914 1.377 . S
C930 C928 1.389 . S
C930 C931 1.524 . S
C931 C930 1.524 . S
C931 C932 1.397 . S
C931 C936 1.363 . S
C932 H903 0.950 . S
C932 C931 1.397 . S
C932 C933 1.334 . S
C933 H904 0.950 . S
C933 C932 1.334 . S
C933 C934 1.287 . S
C934 C933 1.287 . S
C934 C935 1.524 . S
C934 H937 0.999 . S
C935 H905 0.950 . S
C935 C934 1.524 . S
C935 C936 1.415 . S
C936 H906 0.950 . S
C936 C931 1.363 . S
C936 C935 1.415 . S
H937 C934 0.999 . S
H938 C919 0.913 . S
H939 C957 0.951 . S
H940 C959 0.951 . S
H941 C961 0.950 . S
H942 C962 0.950 . S
H943 C964 0.950 . S
H944 C967 0.950 . S
H945 C968 0.950 . S
H946 C970 0.950 . S
H947 C971 0.950 . S
H948 C972 0.951 1_554 S
H949 C974 0.951 . S
H950 C976 0.950 . S
H951 C977 0.950 1_455 S
H952 C979 0.950 . S
H953 C982 0.950 . S
H954 C983 0.950 . S
H955 C985 0.950 . S
H956 C986 0.950 . S
C957 H939 0.951 . S
C957 C958 1.366 . S
C957 C959 1.388 . S
C958 C957 1.366 . S
C958 C962 1.385 . S
C959 H940 0.951 . S
C959 C957 1.388 . S
C959 C960 1.366 . S
C960 C959 1.366 . S
C960 C961 1.414 . S
C960 C963 1.499 . S
C961 H941 0.950 . S
C961 C960 1.414 . S
C961 C962 1.374 . S
C962 H942 0.950 . S
C962 C958 1.385 . S
C962 C961 1.374 . S
C963 C960 1.499 . S
C963 C964 1.373 . S
C963 C965 1.389 . S
C964 H943 0.950 . S
C964 C963 1.373 . S
C964 C980 1.377 . S
C965 C963 1.389 . S
C965 C966 1.524 . S
C965 C979 1.377 . S
C966 C965 1.524 . S
C966 C967 1.397 . S
C966 C971 1.363 . S
C967 H944 0.950 . S
C967 C966 1.397 . S
C967 C968 1.334 . S
C968 H945 0.950 . S
C968 C967 1.334 . S
C968 C969 1.287 . S
C969 C968 1.287 . S
C969 C970 1.524 . S
C969 H988 0.913 . S
C970 H946 0.950 . S
C970 C969 1.524 . S
C970 C971 1.415 . S
C971 H947 0.950 . S
C971 C966 1.363 . S
C971 C970 1.415 . S
C972 H948 0.951 1_556 S
C972 C973 1.366 . S
C972 C974 1.388 . S
C973 C972 1.366 . S
C973 C977 1.385 . S
C974 H949 0.951 . S
C974 C972 1.388 . S
C974 C975 1.366 . S
C975 C974 1.366 . S
C975 C976 1.414 . S
C975 C978 1.499 . S
C976 H950 0.950 . S
C976 C975 1.414 . S
C976 C977 1.374 . S
C977 H951 0.950 1_655 S
C977 C973 1.385 . S
C977 C976 1.374 . S
C978 C975 1.499 . S
C978 C979 1.373 . S
C978 C980 1.389 . S
C979 H952 0.950 . S
C979 C965 1.377 . S
C979 C978 1.373 . S
C980 C964 1.377 . S
C980 C978 1.389 . S
C980 C981 1.524 . S
C981 C980 1.524 . S
C981 C982 1.397 1_556 S
C981 C986 1.363 . S
C982 H953 0.950 . S
C982 C981 1.397 1_554 S
C982 C983 1.334 . S
C983 H954 0.950 . S
C983 C982 1.334 . S
C983 C984 1.287 . S
C984 C983 1.287 . S
C984 C985 1.524 . S
C984 H987 0.999 . S
C985 H955 0.950 . S
C985 C984 1.524 . S
C985 C986 1.415 1_554 S
C986 H956 0.950 . S
C986 C981 1.363 . S
C986 C985 1.415 1_556 S
H987 C984 0.999 . S
H988 C969 0.913 . S
H989 C1007 0.951 . S
H990 C1009 0.949 1_556 S
H991 C1011 0.950 . S
H992 C1012 0.950 . S
H993 C1014 0.950 1_554 S
H994 C1017 0.950 . S
H995 C1018 0.950 . S
H996 C1020 0.950 . S
H997 C1021 0.950 . S
H998 C1022 0.951 . S
H999 C1024 0.951 . S
H1000 C1026 0.950 . S
H1001 C1027 0.950 . S
H1002 C1029 0.950 . S
H1003 C1032 0.950 . S
H1004 C1033 0.950 . S
H1005 C1035 0.950 . S
H1006 C1036 0.950 . S
C1007 H989 0.951 . S
C1007 C1008 1.366 . S
C1007 C1009 1.394 . S
C1008 C1007 1.366 . S
C1008 C1012 1.385 . S
C1009 H990 0.949 1_554 S
C1009 C1007 1.394 . S
C1009 C1010 1.361 1_554 S
C1010 C1009 1.361 1_556 S
C1010 C1011 1.414 . S
C1010 C1013 1.499 . S
C1011 H991 0.950 . S
C1011 C1010 1.414 . S
C1011 C1012 1.374 1_556 S
C1012 H992 0.950 . S
C1012 C1008 1.385 . S
C1012 C1011 1.374 1_554 S
C1013 C1010 1.499 . S
C1013 C1014 1.373 . S
C1013 C1015 1.389 . S
C1014 H993 0.950 1_556 S
C1014 C1013 1.373 . S
C1014 C1030 1.377 . S
C1015 C1013 1.389 . S
C1015 C1016 1.524 . S
C1015 C1029 1.377 . S
C1016 C1015 1.524 . S
C1016 C1017 1.397 . S
C1016 C1021 1.363 . S
C1017 H994 0.950 . S
C1017 C1016 1.397 . S
C1017 C1018 1.334 . S
C1018 H995 0.950 . S
C1018 C1017 1.334 . S
C1018 C1019 1.287 . S
C1019 C1018 1.287 . S
C1019 C1020 1.524 . S
C1019 H1038 0.913 . S
C1020 H996 0.950 . S
C1020 C1019 1.524 . S
C1020 C1021 1.415 . S
C1021 H997 0.950 . S
C1021 C1016 1.363 . S
C1021 C1020 1.415 . S
C1022 H998 0.951 . S
C1022 C1023 1.366 . S
C1022 C1024 1.388 . S
C1023 C1022 1.366 . S
C1023 C1027 1.385 . S
C1024 H999 0.951 . S
C1024 C1022 1.388 . S
C1024 C1025 1.366 . S
C1025 C1024 1.366 . S
C1025 C1026 1.414 . S
C1025 C1028 1.499 . S
C1026 H1000 0.950 . S
C1026 C1025 1.414 . S
C1026 C1027 1.374 . S
C1027 H1001 0.950 . S
C1027 C1023 1.385 . S
C1027 C1026 1.374 . S
C1028 C1025 1.499 . S
C1028 C1029 1.373 . S
C1028 C1030 1.389 . S
C1029 H1002 0.950 . S
C1029 C1015 1.377 . S
C1029 C1028 1.373 . S
C1030 C1014 1.377 . S
C1030 C1028 1.389 . S
C1030 C1031 1.524 . S
C1031 C1030 1.524 . S
C1031 C1032 1.397 1_556 S
C1031 C1036 1.363 . S
C1032 H1003 0.950 . S
C1032 C1031 1.397 1_554 S
C1032 C1033 1.334 . S
C1033 H1004 0.950 . S
C1033 C1032 1.334 . S
C1033 C1034 1.287 . S
C1034 C1033 1.287 . S
C1034 C1035 1.524 . S
C1034 H1037 0.999 . S
C1035 H1005 0.950 . S
C1035 C1034 1.524 . S
C1035 C1036 1.415 1_554 S
C1036 H1006 0.950 . S
C1036 C1031 1.363 . S
C1036 C1035 1.415 1_556 S
H1037 C1034 0.999 . S
H1038 C1019 0.913 . S
H1039 C1057 0.951 . S
H1040 C1059 0.951 . S
H1041 C1061 0.950 . S
H1042 C1062 0.950 . S
H1043 C1064 0.950 . S
H1044 C1067 0.950 . S
H1045 C1068 0.950 . S
H1046 C1070 0.950 . S
H1047 C1071 0.950 . S
H1048 C1072 0.951 . S
H1049 C1074 0.951 1_554 S
H1050 C1076 0.950 . S
H1051 C1077 0.950 . S
H1052 C1079 0.950 . S
H1053 C1082 0.950 . S
H1054 C1083 0.950 . S
H1055 C1085 0.950 . S
H1056 C1086 0.950 . S
C1057 H1039 0.951 . S
C1057 C1058 1.366 . S
C1057 C1059 1.388 . S
C1058 C1057 1.366 . S
C1058 C1062 1.385 . S
C1059 H1040 0.951 . S
C1059 C1057 1.388 . S
C1059 C1060 1.366 . S
C1060 C1059 1.366 . S
C1060 C1061 1.414 . S
C1060 C1063 1.499 . S
C1061 H1041 0.950 . S
C1061 C1060 1.414 . S
C1061 C1062 1.374 . S
C1062 H1042 0.950 . S
C1062 C1058 1.385 . S
C1062 C1061 1.374 . S
C1063 C1060 1.499 . S
C1063 C1064 1.373 . S
C1063 C1065 1.389 . S
C1064 H1043 0.950 . S
C1064 C1063 1.373 . S
C1064 C1080 1.377 . S
C1065 C1063 1.389 . S
C1065 C1066 1.524 . S
C1065 C1079 1.377 . S
C1066 C1065 1.524 . S
C1066 C1067 1.397 . S
C1066 C1071 1.363 . S
C1067 H1044 0.950 . S
C1067 C1066 1.397 . S
C1067 C1068 1.334 . S
C1068 H1045 0.950 . S
C1068 C1067 1.334 . S
C1068 C1069 1.287 . S
C1069 C1068 1.287 . S
C1069 C1070 1.524 . S
C1069 H1088 0.913 . S
C1070 H1046 0.950 . S
C1070 C1069 1.524 . S
C1070 C1071 1.415 . S
C1071 H1047 0.950 . S
C1071 C1066 1.363 . S
C1071 C1070 1.415 . S
C1072 H1048 0.951 . S
C1072 C1073 1.366 . S
C1072 C1074 1.388 1_554 S
C1073 C1072 1.366 . S
C1073 C1077 1.385 1_554 S
C1074 H1049 0.951 1_556 S
C1074 C1072 1.388 1_556 S
C1074 C1075 1.366 . S
C1075 C1074 1.366 . S
C1075 C1076 1.414 . S
C1075 C1078 1.499 . S
C1076 H1050 0.950 . S
C1076 C1075 1.414 . S
C1076 C1077 1.374 . S
C1077 H1051 0.950 . S
C1077 C1073 1.385 1_556 S
C1077 C1076 1.374 . S
C1078 C1075 1.499 . S
C1078 C1079 1.373 . S
C1078 C1080 1.389 . S
C1079 H1052 0.950 . S
C1079 C1065 1.377 . S
C1079 C1078 1.373 . S
C1080 C1064 1.377 . S
C1080 C1078 1.389 . S
C1080 C1081 1.524 . S
C1081 C1080 1.524 . S
C1081 C1082 1.397 . S
C1081 C1086 1.363 . S
C1082 H1053 0.950 . S
C1082 C1081 1.397 . S
C1082 C1083 1.334 . S
C1083 H1054 0.950 . S
C1083 C1082 1.334 . S
C1083 C1084 1.287 . S
C1084 C1083 1.287 . S
C1084 C1085 1.524 . S
C1084 H1087 0.999 1_545 S
C1085 H1055 0.950 . S
C1085 C1084 1.524 . S
C1085 C1086 1.415 . S
C1086 H1056 0.950 . S
C1086 C1081 1.363 . S
C1086 C1085 1.415 . S
H1087 C1084 0.999 1_565 S
H1088 C1069 0.913 . S
H1089 C1107 0.951 . S
H1090 C1109 0.951 . S
H1091 C1111 0.950 . S
H1092 C1112 0.950 1_545 S
H1093 C1114 0.950 . S
H1094 C1117 0.950 . S
H1095 C1118 0.950 . S
H1096 C1120 0.950 . S
H1097 C1121 0.950 . S
H1098 C1122 0.951 . S
H1099 C1124 0.951 . S
H1100 C1126 0.950 . S
H1101 C1127 0.950 . S
H1102 C1129 0.950 . S
H1103 C1132 0.950 . S
H1104 C1133 0.950 1_556 S
H1105 C1135 0.950 . S
H1106 C1136 0.950 . S
C1107 H1089 0.951 . S
C1107 C1108 1.366 . S
C1107 C1109 1.388 . S
C1108 C1107 1.366 . S
C1108 C1112 1.385 . S
C1109 H1090 0.951 . S
C1109 C1107 1.388 . S
C1109 C1110 1.366 . S
C1110 C1109 1.366 . S
C1110 C1111 1.414 . S
C1110 C1113 1.499 . S
C1111 H1091 0.950 . S
C1111 C1110 1.414 . S
C1111 C1112 1.374 . S
C1112 H1092 0.950 1_565 S
C1112 C1108 1.385 . S
C1112 C1111 1.374 . S
C1113 C1110 1.499 . S
C1113 C1114 1.373 . S
C1113 C1115 1.389 . S
C1114 H1093 0.950 . S
C1114 C1113 1.373 . S
C1114 C1130 1.377 . S
C1115 C1113 1.389 . S
C1115 C1116 1.524 . S
C1115 C1129 1.377 . S
C1116 C1115 1.524 . S
C1116 C1117 1.397 . S
C1116 C1121 1.363 . S
C1117 H1094 0.950 . S
C1117 C1116 1.397 . S
C1117 C1118 1.334 . S
C1118 H1095 0.950 . S
C1118 C1117 1.334 . S
C1118 C1119 1.287 . S
C1119 C1118 1.287 . S
C1119 C1120 1.524 . S
C1119 H1138 0.913 . S
C1120 H1096 0.950 . S
C1120 C1119 1.524 . S
C1120 C1121 1.415 . S
C1121 H1097 0.950 . S
C1121 C1116 1.363 . S
C1121 C1120 1.415 . S
C1122 H1098 0.951 . S
C1122 C1123 1.366 . S
C1122 C1124 1.388 . S
C1123 C1122 1.366 . S
C1123 C1127 1.385 . S
C1124 H1099 0.951 . S
C1124 C1122 1.388 . S
C1124 C1125 1.366 . S
C1125 C1124 1.366 . S
C1125 C1126 1.414 . S
C1125 C1128 1.499 . S
C1126 H1100 0.950 . S
C1126 C1125 1.414 . S
C1126 C1127 1.374 . S
C1127 H1101 0.950 . S
C1127 C1123 1.385 . S
C1127 C1126 1.374 . S
C1128 C1125 1.499 . S
C1128 C1129 1.373 . S
C1128 C1130 1.389 . S
C1129 H1102 0.950 . S
C1129 C1115 1.377 . S
C1129 C1128 1.373 . S
C1130 C1114 1.377 . S
C1130 C1128 1.389 . S
C1130 C1131 1.524 . S
C1131 C1130 1.524 . S
C1131 C1132 1.397 . S
C1131 C1136 1.363 . S
C1132 H1103 0.950 . S
C1132 C1131 1.397 . S
C1132 C1133 1.334 . S
C1133 H1104 0.950 1_554 S
C1133 C1132 1.334 . S
C1133 C1134 1.287 . S
C1134 C1133 1.287 . S
C1134 C1135 1.524 . S
C1134 H1137 0.999 1_554 S
C1135 H1105 0.950 . S
C1135 C1134 1.524 . S
C1135 C1136 1.415 . S
C1136 H1106 0.950 . S
C1136 C1131 1.363 . S
C1136 C1135 1.415 . S
H1137 C1134 0.999 1_556 S
H1138 C1119 0.913 . S
H1139 C1157 0.951 . S
H1140 C1159 0.951 . S
H1141 C1161 0.950 . S
H1142 C1162 0.950 . S
H1143 C1164 0.950 . S
H1144 C1167 0.950 . S
H1145 C1168 0.950 . S
H1146 C1170 0.950 . S
H1147 C1171 0.950 . S
H1148 C1172 0.951 . S
H1149 C1174 0.951 . S
H1150 C1176 0.950 . S
H1151 C1177 0.950 . S
H1152 C1179 0.950 . S
H1153 C1182 0.950 . S
H1154 C1183 0.950 . S
H1155 C1185 0.950 . S
H1156 C1186 0.950 . S
C1157 H1139 0.951 . S
C1157 C1158 1.366 . S
C1157 C1159 1.388 . S
C1158 C1157 1.366 . S
C1158 C1162 1.385 . S
C1159 H1140 0.951 . S
C1159 C1157 1.388 . S
C1159 C1160 1.366 . S
C1160 C1159 1.366 . S
C1160 C1161 1.414 . S
C1160 C1163 1.499 . S
C1161 H1141 0.950 . S
C1161 C1160 1.414 . S
C1161 C1162 1.374 . S
C1162 H1142 0.950 . S
C1162 C1158 1.385 . S
C1162 C1161 1.374 . S
C1163 C1160 1.499 . S
C1163 C1164 1.373 . S
C1163 C1165 1.389 . S
C1164 H1143 0.950 . S
C1164 C1163 1.373 . S
C1164 C1180 1.377 . S
C1165 C1163 1.389 . S
C1165 C1166 1.524 . S
C1165 C1179 1.377 . S
C1166 C1165 1.524 . S
C1166 C1167 1.397 . S
C1166 C1171 1.363 . S
C1167 H1144 0.950 . S
C1167 C1166 1.397 . S
C1167 C1168 1.334 . S
C1168 H1145 0.950 . S
C1168 C1167 1.334 . S
C1168 C1169 1.287 . S
C1169 C1168 1.287 . S
C1169 C1170 1.524 . S
C1169 H1188 0.913 . S
C1170 H1146 0.950 . S
C1170 C1169 1.524 . S
C1170 C1171 1.415 . S
C1171 H1147 0.950 . S
C1171 C1166 1.363 . S
C1171 C1170 1.415 . S
C1172 H1148 0.951 . S
C1172 C1173 1.366 . S
C1172 C1174 1.388 . S
C1173 C1172 1.366 . S
C1173 C1177 1.385 . S
C1174 H1149 0.951 . S
C1174 C1172 1.388 . S
C1174 C1175 1.366 . S
C1175 C1174 1.366 . S
C1175 C1176 1.414 . S
C1175 C1178 1.499 . S
C1176 H1150 0.950 . S
C1176 C1175 1.414 . S
C1176 C1177 1.374 . S
C1177 H1151 0.950 . S
C1177 C1173 1.385 . S
C1177 C1176 1.374 . S
C1178 C1175 1.499 . S
C1178 C1179 1.373 . S
C1178 C1180 1.389 . S
C1179 H1152 0.950 . S
C1179 C1165 1.377 . S
C1179 C1178 1.373 . S
C1180 C1164 1.377 . S
C1180 C1178 1.389 . S
C1180 C1181 1.524 . S
C1181 C1180 1.524 . S
C1181 C1182 1.397 . S
C1181 C1186 1.363 . S
C1182 H1153 0.950 . S
C1182 C1181 1.397 . S
C1182 C1183 1.334 . S
C1183 H1154 0.950 . S
C1183 C1182 1.334 . S
C1183 C1184 1.287 . S
C1184 C1183 1.287 . S
C1184 C1185 1.524 . S
C1184 H1187 0.999 . S
C1185 H1155 0.950 . S
C1185 C1184 1.524 . S
C1185 C1186 1.415 . S
C1186 H1156 0.950 . S
C1186 C1181 1.363 . S
C1186 C1185 1.415 . S
H1187 C1184 0.999 . S
H1188 C1169 0.913 . S
H1189 C1207 0.951 . S
H1190 C1209 0.951 . S
H1191 C1211 0.950 . S
H1192 C1212 0.950 . S
H1193 C1214 0.950 . S
H1194 C1217 0.950 . S
H1195 C1218 0.950 . S
H1196 C1220 0.950 . S
H1197 C1221 0.950 . S
H1198 C1222 0.951 . S
H1199 C1224 0.951 . S
H1200 C1226 0.950 . S
H1201 C1227 0.950 . S
H1202 C1229 0.950 . S
H1203 C1232 0.950 . S
H1204 C1233 0.950 . S
H1205 C1235 0.950 . S
H1206 C1236 0.950 . S
C1207 H1189 0.951 . S
C1207 C1208 1.366 . S
C1207 C1209 1.388 . S
C1208 C1207 1.366 . S
C1208 C1212 1.385 . S
C1209 H1190 0.951 . S
C1209 C1207 1.388 . S
C1209 C1210 1.366 . S
C1210 C1209 1.366 . S
C1210 C1211 1.414 . S
C1210 C1213 1.499 . S
C1211 H1191 0.950 . S
C1211 C1210 1.414 . S
C1211 C1212 1.374 . S
C1212 H1192 0.950 . S
C1212 C1208 1.385 . S
C1212 C1211 1.374 . S
C1213 C1210 1.499 . S
C1213 C1214 1.373 . S
C1213 C1215 1.389 . S
C1214 H1193 0.950 . S
C1214 C1213 1.373 . S
C1214 C1230 1.377 . S
C1215 C1213 1.389 . S
C1215 C1216 1.524 . S
C1215 C1229 1.377 . S
C1216 C1215 1.524 . S
C1216 C1217 1.397 . S
C1216 C1221 1.363 . S
C1217 H1194 0.950 . S
C1217 C1216 1.397 . S
C1217 C1218 1.334 . S
C1218 H1195 0.950 . S
C1218 C1217 1.334 . S
C1218 C1219 1.287 1_554 S
C1219 C1218 1.287 1_556 S
C1219 C1220 1.524 . S
C1219 H1238 0.913 . S
C1220 H1196 0.950 . S
C1220 C1219 1.524 . S
C1220 C1221 1.415 1_556 S
C1221 H1197 0.950 . S
C1221 C1216 1.363 . S
C1221 C1220 1.415 1_554 S
C1222 H1198 0.951 . S
C1222 C1223 1.366 . S
C1222 C1224 1.388 . S
C1223 C1222 1.366 . S
C1223 C1227 1.385 . S
C1224 H1199 0.951 . S
C1224 C1222 1.388 . S
C1224 C1225 1.366 . S
C1225 C1224 1.366 . S
C1225 C1226 1.414 . S
C1225 C1228 1.499 . S
C1226 H1200 0.950 . S
C1226 C1225 1.414 . S
C1226 C1227 1.374 . S
C1227 H1201 0.950 . S
C1227 C1223 1.385 . S
C1227 C1226 1.374 . S
C1228 C1225 1.499 . S
C1228 C1229 1.373 . S
C1228 C1230 1.389 . S
C1229 H1202 0.950 . S
C1229 C1215 1.377 . S
C1229 C1228 1.373 . S
C1230 C1214 1.377 . S
C1230 C1228 1.389 . S
C1230 C1231 1.524 . S
C1231 C1230 1.524 . S
C1231 C1232 1.397 . S
C1231 C1236 1.363 . S
C1232 H1203 0.950 . S
C1232 C1231 1.397 . S
C1232 C1233 1.334 . S
C1233 H1204 0.950 . S
C1233 C1232 1.334 . S
C1233 C1234 1.287 . S
C1234 C1233 1.287 . S
C1234 C1235 1.524 . S
C1234 H1237 0.999 . S
C1235 H1205 0.950 . S
C1235 C1234 1.524 . S
C1235 C1236 1.415 . S
C1236 H1206 0.950 . S
C1236 C1231 1.363 . S
C1236 C1235 1.415 . S
H1237 C1234 0.999 . S
H1238 C1219 0.913 . S
H1239 C1257 0.951 . S
H1240 C1259 0.951 . S
H1241 C1261 0.950 . S
H1242 C1262 0.950 . S
H1243 C1264 0.950 . S
H1244 C1267 0.950 . S
H1245 C1268 0.950 . S
H1246 C1270 0.950 . S
H1247 C1271 0.950 . S
H1248 C1272 0.951 . S
H1249 C1274 0.951 . S
H1250 C1276 0.950 . S
H1251 C1277 0.950 . S
H1252 C1279 0.950 . S
H1253 C1282 0.950 . S
H1254 C1283 0.950 . S
H1255 C1285 0.950 . S
H1256 C1286 0.950 . S
C1257 H1239 0.951 . S
C1257 C1258 1.366 . S
C1257 C1259 1.388 . S
C1258 C1257 1.366 . S
C1258 C1262 1.385 . S
C1259 H1240 0.951 . S
C1259 C1257 1.388 . S
C1259 C1260 1.366 . S
C1260 C1259 1.366 . S
C1260 C1261 1.414 . S
C1260 C1263 1.499 . S
C1261 H1241 0.950 . S
C1261 C1260 1.414 . S
C1261 C1262 1.374 . S
C1262 H1242 0.950 . S
C1262 C1258 1.385 . S
C1262 C1261 1.374 . S
C1263 C1260 1.499 . S
C1263 C1264 1.373 . S
C1263 C1265 1.389 . S
C1264 H1243 0.950 . S
C1264 C1263 1.373 . S
C1264 C1280 1.377 . S
C1265 C1263 1.389 . S
C1265 C1266 1.524 . S
C1265 C1279 1.377 . S
C1266 C1265 1.524 . S
C1266 C1267 1.397 . S
C1266 C1271 1.363 . S
C1267 H1244 0.950 . S
C1267 C1266 1.397 . S
C1267 C1268 1.334 . S
C1268 H1245 0.950 . S
C1268 C1267 1.334 . S
C1268 C1269 1.287 . S
C1269 C1268 1.287 . S
C1269 C1270 1.524 . S
C1269 H1288 0.913 . S
C1270 H1246 0.950 . S
C1270 C1269 1.524 . S
C1270 C1271 1.415 . S
C1271 H1247 0.950 . S
C1271 C1266 1.363 . S
C1271 C1270 1.415 . S
C1272 H1248 0.951 . S
C1272 C1273 1.366 . S
C1272 C1274 1.388 . S
C1273 C1272 1.366 . S
C1273 C1277 1.385 . S
C1274 H1249 0.951 . S
C1274 C1272 1.388 . S
C1274 C1275 1.366 . S
C1275 C1274 1.366 . S
C1275 C1276 1.414 . S
C1275 C1278 1.499 . S
C1276 H1250 0.950 . S
C1276 C1275 1.414 . S
C1276 C1277 1.374 . S
C1277 H1251 0.950 . S
C1277 C1273 1.385 . S
C1277 C1276 1.374 . S
C1278 C1275 1.499 . S
C1278 C1279 1.373 . S
C1278 C1280 1.389 . S
C1279 H1252 0.950 . S
C1279 C1265 1.377 . S
C1279 C1278 1.373 . S
C1280 C1264 1.377 . S
C1280 C1278 1.389 . S
C1280 C1281 1.524 . S
C1281 C1280 1.524 . S
C1281 C1282 1.397 . S
C1281 C1286 1.363 . S
C1282 H1253 0.950 . S
C1282 C1281 1.397 . S
C1282 C1283 1.334 . S
C1283 H1254 0.950 . S
C1283 C1282 1.334 . S
C1283 C1284 1.287 . S
C1284 C1283 1.287 . S
C1284 C1285 1.524 . S
C1284 H1287 0.999 . S
C1285 H1255 0.950 . S
C1285 C1284 1.524 . S
C1285 C1286 1.415 . S
C1286 H1256 0.950 . S
C1286 C1281 1.363 . S
C1286 C1285 1.415 . S
H1287 C1284 0.999 . S
H1288 C1269 0.913 . S
H1289 C1307 0.951 . S
H1290 C1309 0.951 . S
H1291 C1311 0.950 . S
H1292 C1312 0.950 . S
H1293 C1314 0.950 . S
H1294 C1317 0.950 . S
H1295 C1318 0.950 . S
H1296 C1320 0.950 . S
H1297 C1321 0.950 . S
H1298 C1322 0.951 . S
H1299 C1324 0.951 . S
H1300 C1326 0.950 . S
H1301 C1327 0.950 . S
H1302 C1329 0.950 . S
H1303 C1332 0.950 1_565 S
H1304 C1333 0.954 1_565 S
H1305 C1335 0.950 . S
H1306 C1336 0.950 . S
C1307 H1289 0.951 . S
C1307 C1308 1.366 . S
C1307 C1309 1.388 . S
C1308 C1307 1.366 . S
C1308 C1312 1.385 . S
C1309 H1290 0.951 . S
C1309 C1307 1.388 . S
C1309 C1310 1.366 . S
C1310 C1309 1.366 . S
C1310 C1311 1.414 . S
C1310 C1313 1.499 . S
C1311 H1291 0.950 . S
C1311 C1310 1.414 . S
C1311 C1312 1.374 . S
C1312 H1292 0.950 . S
C1312 C1308 1.385 . S
C1312 C1311 1.374 . S
C1313 C1310 1.499 . S
C1313 C1314 1.373 . S
C1313 C1315 1.389 . S
C1314 H1293 0.950 . S
C1314 C1313 1.373 . S
C1314 C1330 1.377 . S
C1315 C1313 1.389 . S
C1315 C1316 1.524 . S
C1315 C1329 1.377 1_545 S
C1316 C1315 1.524 . S
C1316 C1317 1.397 . S
C1316 C1321 1.363 1_545 S
C1317 H1294 0.950 . S
C1317 C1316 1.397 . S
C1317 C1318 1.334 . S
C1318 H1295 0.950 . S
C1318 C1317 1.334 . S
C1318 C1319 1.288 . S
C1319 C1318 1.288 . S
C1319 C1320 1.525 1_545 S
C1319 H1338 0.910 1_545 S
C1320 H1296 0.950 . S
C1320 C1319 1.525 1_565 S
C1320 C1321 1.415 . S
C1321 H1297 0.950 . S
C1321 C1316 1.363 1_565 S
C1321 C1320 1.415 . S
C1322 H1298 0.951 . S
C1322 C1323 1.366 . S
C1322 C1324 1.388 . S
C1323 C1322 1.366 . S
C1323 C1327 1.385 . S
C1324 H1299 0.951 . S
C1324 C1322 1.388 . S
C1324 C1325 1.366 . S
C1325 C1324 1.366 . S
C1325 C1326 1.414 . S
C1325 C1328 1.499 . S
C1326 H1300 0.950 . S
C1326 C1325 1.414 . S
C1326 C1327 1.374 . S
C1327 H1301 0.950 . S
C1327 C1323 1.385 . S
C1327 C1326 1.374 . S
C1328 C1325 1.499 . S
C1328 C1329 1.373 . S
C1328 C1330 1.389 1_565 S
C1329 H1302 0.950 . S
C1329 C1315 1.377 1_565 S
C1329 C1328 1.373 . S
C1330 C1314 1.377 . S
C1330 C1328 1.389 1_545 S
C1330 C1331 1.524 . S
C1331 C1330 1.524 . S
C1331 C1332 1.397 . S
C1331 C1336 1.363 . S
C1332 H1303 0.950 1_545 S
C1332 C1331 1.397 . S
C1332 C1333 1.334 . S
C1333 H1304 0.954 1_545 S
C1333 C1332 1.334 . S
C1333 C1334 1.287 . S
C1334 C1333 1.287 . S
C1334 C1335 1.524 . S
C1334 H1337 0.999 . S
C1335 H1305 0.950 . S
C1335 C1334 1.524 . S
C1335 C1336 1.415 . S
C1336 H1306 0.950 . S
C1336 C1331 1.363 . S
C1336 C1335 1.415 . S
H1337 C1334 0.999 . S
H1338 C1319 0.910 1_565 S
H1339 C1357 0.951 . S
H1340 C1359 0.951 . S
H1341 C1361 0.950 . S
H1342 C1362 0.950 . S
H1343 C1364 0.950 . S
H1344 C1367 0.950 . S
H1345 C1368 0.950 . S
H1346 C1370 0.950 . S
H1347 C1371 0.950 1_455 S
H1348 C1372 0.951 . S
H1349 C1374 0.951 . S
H1350 C1376 0.950 . S
H1351 C1377 0.950 . S
H1352 C1379 0.950 . S
H1353 C1382 0.950 . S
H1354 C1383 0.950 . S
H1355 C1385 0.950 . S
H1356 C1386 0.950 . S
C1357 H1339 0.951 . S
C1357 C1358 1.366 . S
C1357 C1359 1.388 . S
C1358 C1357 1.366 . S
C1358 C1362 1.385 . S
C1359 H1340 0.951 . S
C1359 C1357 1.388 . S
C1359 C1360 1.366 . S
C1360 C1359 1.366 . S
C1360 C1361 1.414 . S
C1360 C1363 1.499 1_655 S
C1361 H1341 0.950 . S
C1361 C1360 1.414 . S
C1361 C1362 1.374 . S
C1362 H1342 0.950 . S
C1362 C1358 1.385 . S
C1362 C1361 1.374 . S
C1363 C1360 1.499 1_455 S
C1363 C1364 1.373 . S
C1363 C1365 1.389 . S
C1364 H1343 0.950 . S
C1364 C1363 1.373 . S
C1364 C1380 1.377 . S
C1365 C1363 1.389 . S
C1365 C1366 1.524 1_455 S
C1365 C1379 1.377 . S
C1366 C1365 1.524 1_655 S
C1366 C1367 1.397 . S
C1366 C1371 1.363 . S
C1367 H1344 0.950 . S
C1367 C1366 1.397 . S
C1367 C1368 1.334 . S
C1368 H1345 0.950 . S
C1368 C1367 1.334 . S
C1368 C1369 1.287 . S
C1369 C1368 1.287 . S
C1369 C1370 1.524 . S
C1369 H1388 0.913 . S
C1370 H1346 0.950 . S
C1370 C1369 1.524 . S
C1370 C1371 1.415 . S
C1371 H1347 0.950 1_655 S
C1371 C1366 1.363 . S
C1371 C1370 1.415 . S
C1372 H1348 0.951 . S
C1372 C1373 1.366 . S
C1372 C1374 1.388 . S
C1373 C1372 1.366 . S
C1373 C1377 1.385 . S
C1374 H1349 0.951 . S
C1374 C1372 1.388 . S
C1374 C1375 1.366 . S
C1375 C1374 1.366 . S
C1375 C1376 1.414 . S
C1375 C1378 1.499 . S
C1376 H1350 0.950 . S
C1376 C1375 1.414 . S
C1376 C1377 1.374 . S
C1377 H1351 0.950 . S
C1377 C1373 1.385 . S
C1377 C1376 1.374 . S
C1378 C1375 1.499 . S
C1378 C1379 1.373 . S
C1378 C1380 1.389 . S
C1379 H1352 0.950 . S
C1379 C1365 1.377 . S
C1379 C1378 1.373 . S
C1380 C1364 1.377 . S
C1380 C1378 1.389 . S
C1380 C1381 1.524 . S
C1381 C1380 1.524 . S
C1381 C1382 1.397 . S
C1381 C1386 1.363 . S
C1382 H1353 0.950 . S
C1382 C1381 1.397 . S
C1382 C1383 1.334 . S
C1383 H1354 0.950 . S
C1383 C1382 1.334 . S
C1383 C1384 1.287 . S
C1384 C1383 1.287 . S
C1384 C1385 1.524 . S
C1384 H1387 0.999 . S
C1385 H1355 0.950 . S
C1385 C1384 1.524 . S
C1385 C1386 1.415 . S
C1386 H1356 0.950 . S
C1386 C1381 1.363 . S
C1386 C1385 1.415 . S
H1387 C1384 0.999 . S
H1388 C1369 0.913 . S
H1389 C1407 0.951 . S
H1390 C1409 0.951 . S
H1391 C1411 0.950 . S
H1392 C1412 0.950 . S
H1393 C1414 0.950 . S
H1394 C1417 0.950 . S
H1395 C1418 0.950 . S
H1396 C1420 0.950 . S
H1397 C1421 0.950 . S
H1398 C1422 0.951 . S
H1399 C1424 0.951 . S
H1400 C1426 0.950 . S
H1401 C1427 0.950 . S
H1402 C1429 0.950 . S
H1403 C1432 0.950 . S
H1404 C1433 0.950 . S
H1405 C1435 0.950 . S
H1406 C1436 0.950 . S
C1407 H1389 0.951 . S
C1407 C1408 1.366 . S
C1407 C1409 1.388 . S
C1408 C1407 1.366 . S
C1408 C1412 1.385 . S
C1409 H1390 0.951 . S
C1409 C1407 1.388 . S
C1409 C1410 1.366 . S
C1410 C1409 1.366 . S
C1410 C1411 1.414 . S
C1410 C1413 1.499 . S
C1411 H1391 0.950 . S
C1411 C1410 1.414 . S
C1411 C1412 1.374 . S
C1412 H1392 0.950 . S
C1412 C1408 1.385 . S
C1412 C1411 1.374 . S
C1413 C1410 1.499 . S
C1413 C1414 1.373 . S
C1413 C1415 1.389 . S
C1414 H1393 0.950 . S
C1414 C1413 1.373 . S
C1414 C1430 1.377 . S
C1415 C1413 1.389 . S
C1415 C1416 1.524 . S
C1415 C1429 1.377 . S
C1416 C1415 1.524 . S
C1416 C1417 1.397 . S
C1416 C1421 1.363 . S
C1417 H1394 0.950 . S
C1417 C1416 1.397 . S
C1417 C1418 1.334 . S
C1418 H1395 0.950 . S
C1418 C1417 1.334 . S
C1418 C1419 1.287 . S
C1419 C1418 1.287 . S
C1419 C1420 1.524 . S
C1419 H1438 0.913 . S
C1420 H1396 0.950 . S
C1420 C1419 1.524 . S
C1420 C1421 1.415 . S
C1421 H1397 0.950 . S
C1421 C1416 1.363 . S
C1421 C1420 1.415 . S
C1422 H1398 0.951 . S
C1422 C1423 1.366 . S
C1422 C1424 1.388 . S
C1423 C1422 1.366 . S
C1423 C1427 1.385 . S
C1424 H1399 0.951 . S
C1424 C1422 1.388 . S
C1424 C1425 1.366 . S
C1425 C1424 1.366 . S
C1425 C1426 1.414 . S
C1425 C1428 1.499 . S
C1426 H1400 0.950 . S
C1426 C1425 1.414 . S
C1426 C1427 1.374 . S
C1427 H1401 0.950 . S
C1427 C1423 1.385 . S
C1427 C1426 1.374 . S
C1428 C1425 1.499 . S
C1428 C1429 1.373 . S
C1428 C1430 1.389 . S
C1429 H1402 0.950 . S
C1429 C1415 1.377 . S
C1429 C1428 1.373 . S
C1430 C1414 1.377 . S
C1430 C1428 1.389 . S
C1430 C1431 1.524 . S
C1431 C1430 1.524 . S
C1431 C1432 1.397 . S
C1431 C1436 1.363 . S
C1432 H1403 0.950 . S
C1432 C1431 1.397 . S
C1432 C1433 1.334 . S
C1433 H1404 0.950 . S
C1433 C1432 1.334 . S
C1433 C1434 1.287 . S
C1434 C1433 1.287 . S
C1434 C1435 1.524 . S
C1434 H1437 0.999 . S
C1435 H1405 0.950 . S
C1435 C1434 1.524 . S
C1435 C1436 1.415 . S
C1436 H1406 0.950 . S
C1436 C1431 1.363 . S
C1436 C1435 1.415 . S
H1437 C1434 0.999 . S
H1438 C1419 0.913 . S
H1439 C1457 0.951 . S
H1440 C1459 0.951 . S
H1441 C1461 0.950 . S
H1442 C1462 0.950 . S
H1443 C1464 0.950 . S
H1444 C1467 0.950 . S
H1445 C1468 0.950 . S
H1446 C1470 0.950 . S
H1447 C1471 0.950 . S
H1448 C1472 0.951 . S
H1449 C1474 0.951 . S
H1450 C1476 0.950 . S
H1451 C1477 0.950 . S
H1452 C1479 0.950 . S
H1453 C1482 0.950 . S
H1454 C1483 0.950 . S
H1455 C1485 0.950 . S
H1456 C1486 0.950 1_565 S
C1457 H1439 0.951 . S
C1457 C1458 1.366 . S
C1457 C1459 1.388 . S
C1458 C1457 1.366 . S
C1458 C1462 1.385 . S
C1459 H1440 0.951 . S
C1459 C1457 1.388 . S
C1459 C1460 1.366 . S
C1460 C1459 1.366 . S
C1460 C1461 1.414 . S
C1460 C1463 1.499 . S
C1461 H1441 0.950 . S
C1461 C1460 1.414 . S
C1461 C1462 1.374 . S
C1462 H1442 0.950 . S
C1462 C1458 1.385 . S
C1462 C1461 1.374 . S
C1463 C1460 1.499 . S
C1463 C1464 1.373 . S
C1463 C1465 1.389 1_565 S
C1464 H1443 0.950 . S
C1464 C1463 1.373 . S
C1464 C1480 1.377 1_565 S
C1465 C1463 1.389 1_545 S
C1465 C1466 1.524 1_545 S
C1465 C1479 1.377 . S
C1466 C1465 1.524 1_565 S
C1466 C1467 1.397 . S
C1466 C1471 1.363 1_565 S
C1467 H1444 0.950 . S
C1467 C1466 1.397 . S
C1467 C1468 1.334 . S
C1468 H1445 0.950 . S
C1468 C1467 1.334 . S
C1468 C1469 1.287 . S
C1469 C1468 1.287 . S
C1469 C1470 1.524 1_565 S
C1469 H1488 0.913 . S
C1470 H1446 0.950 . S
C1470 C1469 1.524 1_545 S
C1470 C1471 1.415 . S
C1471 H1447 0.950 . S
C1471 C1466 1.363 1_545 S
C1471 C1470 1.415 . S
C1472 H1448 0.951 . S
C1472 C1473 1.366 . S
C1472 C1474 1.388 . S
C1473 C1472 1.366 . S
C1473 C1477 1.385 . S
C1474 H1449 0.951 . S
C1474 C1472 1.388 . S
C1474 C1475 1.366 . S
C1475 C1474 1.366 . S
C1475 C1476 1.414 . S
C1475 C1478 1.499 . S
C1476 H1450 0.950 . S
C1476 C1475 1.414 . S
C1476 C1477 1.374 . S
C1477 H1451 0.950 . S
C1477 C1473 1.385 . S
C1477 C1476 1.374 . S
C1478 C1475 1.499 . S
C1478 C1479 1.373 . S
C1478 C1480 1.389 . S
C1479 H1452 0.950 . S
C1479 C1465 1.377 . S
C1479 C1478 1.373 . S
C1480 C1464 1.377 1_545 S
C1480 C1478 1.389 . S
C1480 C1481 1.524 . S
C1481 C1480 1.524 . S
C1481 C1482 1.397 . S
C1481 C1486 1.363 . S
C1482 H1453 0.950 . S
C1482 C1481 1.397 . S
C1482 C1483 1.334 . S
C1483 H1454 0.950 . S
C1483 C1482 1.334 . S
C1483 C1484 1.287 . S
C1484 C1483 1.287 . S
C1484 C1485 1.524 . S
C1484 H1487 0.999 . S
C1485 H1455 0.950 . S
C1485 C1484 1.524 . S
C1485 C1486 1.415 . S
C1486 H1456 0.950 1_545 S
C1486 C1481 1.363 . S
C1486 C1485 1.415 . S
H1487 C1484 0.999 . S
H1488 C1469 0.913 . S
H1489 C1507 0.951 . S
H1490 C1509 0.951 . S
H1491 C1511 0.950 . S
H1492 C1512 0.950 . S
H1493 C1514 0.950 . S
H1494 C1517 0.950 . S
H1495 C1518 0.950 . S
H1496 C1520 0.950 . S
H1497 C1521 0.950 . S
H1498 C1522 0.951 . S
H1499 C1524 0.951 . S
H1500 C1526 0.950 . S
H1501 C1527 0.950 . S
H1502 C1529 0.950 . S
H1503 C1532 0.950 . S
H1504 C1533 0.950 . S
H1505 C1535 0.950 . S
H1506 C1536 0.950 . S
C1507 H1489 0.951 . S
C1507 C1508 1.366 . S
C1507 C1509 1.388 . S
C1508 C1507 1.366 . S
C1508 C1512 1.385 . S
C1509 H1490 0.951 . S
C1509 C1507 1.388 . S
C1509 C1510 1.366 . S
C1510 C1509 1.366 . S
C1510 C1511 1.414 . S
C1510 C1513 1.499 1_655 S
C1511 H1491 0.950 . S
C1511 C1510 1.414 . S
C1511 C1512 1.374 . S
C1512 H1492 0.950 . S
C1512 C1508 1.385 . S
C1512 C1511 1.374 . S
C1513 C1510 1.499 1_455 S
C1513 C1514 1.373 . S
C1513 C1515 1.389 . S
C1514 H1493 0.950 . S
C1514 C1513 1.373 . S
C1514 C1530 1.377 . S
C1515 C1513 1.389 . S
C1515 C1516 1.524 . S
C1515 C1529 1.377 . S
C1516 C1515 1.524 . S
C1516 C1517 1.397 . S
C1516 C1521 1.363 . S
C1517 H1494 0.950 . S
C1517 C1516 1.397 . S
C1517 C1518 1.334 . S
C1518 H1495 0.950 . S
C1518 C1517 1.334 . S
C1518 C1519 1.287 . S
C1519 C1518 1.287 . S
C1519 C1520 1.524 . S
C1519 H1538 0.913 . S
C1520 H1496 0.950 . S
C1520 C1519 1.524 . S
C1520 C1521 1.415 . S
C1521 H1497 0.950 . S
C1521 C1516 1.363 . S
C1521 C1520 1.415 . S
C1522 H1498 0.951 . S
C1522 C1523 1.366 . S
C1522 C1524 1.388 . S
C1523 C1522 1.366 . S
C1523 C1527 1.385 . S
C1524 H1499 0.951 . S
C1524 C1522 1.388 . S
C1524 C1525 1.366 . S
C1525 C1524 1.366 . S
C1525 C1526 1.414 . S
C1525 C1528 1.499 . S
C1526 H1500 0.950 . S
C1526 C1525 1.414 . S
C1526 C1527 1.374 . S
C1527 H1501 0.950 . S
C1527 C1523 1.385 . S
C1527 C1526 1.374 . S
C1528 C1525 1.499 . S
C1528 C1529 1.373 . S
C1528 C1530 1.389 . S
C1529 H1502 0.950 . S
C1529 C1515 1.377 . S
C1529 C1528 1.373 . S
C1530 C1514 1.377 . S
C1530 C1528 1.389 . S
C1530 C1531 1.524 . S
C1531 C1530 1.524 . S
C1531 C1532 1.397 . S
C1531 C1536 1.363 . S
C1532 H1503 0.950 . S
C1532 C1531 1.397 . S
C1532 C1533 1.334 . S
C1533 H1504 0.950 . S
C1533 C1532 1.334 . S
C1533 C1534 1.287 . S
C1534 C1533 1.287 . S
C1534 C1535 1.524 . S
C1534 H1537 0.999 . S
C1535 H1505 0.950 . S
C1535 C1534 1.524 . S
C1535 C1536 1.415 . S
C1536 H1506 0.950 . S
C1536 C1531 1.363 . S
C1536 C1535 1.415 . S
H1537 C1534 0.999 . S
H1538 C1519 0.913 . S
C208 C16 0.859 . S
C223 C13 0.861 . S
C258 C34 0.857 . S
C273 C37 0.856 . S
C308 C58 0.860 . S
C323 C55 0.861 . S
C358 C79 0.843 . S
C373 C76 0.845 . S
C408 C100 0.860 . S
C423 C97 0.862 . S
C458 C121 0.881 . S
C473 C118 0.883 . S
C508 C143 0.691 . S
C523 C144 0.694 . S
C558 C165 0.724 . S
C573 C164 0.722 . S
C608 C185 0.748 . S
C623 C186 0.749 . S
C658 C122 1.483 . S
C673 C17 1.483 . S
C708 C36 1.351 . S
C723 C80 1.348 . S
C758 C59 1.441 . S
C773 C101 1.446 . S
C808 C57 0.992 . S
C823 C140 1.037 . S
C858 C160 0.893 . S
C873 C15 0.913 . S
C908 C182 1.242 . S
C923 C38 1.302 . S
C958 C184 1.069 . S
C973 C18 1.174 1_556 S
C1008 C35 0.885 . S
C1023 C142 0.864 . S
C1058 C162 1.031 . S
C1073 C60 1.082 . S
C1108 C56 1.415 . S
C1123 C77 1.415 . S
C1158 C98 1.335 . S
C1173 C14 1.337 . S
C1208 C39 1.750 . S
C1223 C119 1.668 . S
C1258 C181 1.036 . S
C1273 C78 1.022 . S
C1308 C139 0.988 . S
C1323 C99 0.989 . S
C1358 C161 1.130 . S
C1373 C120 1.095 . S
C1408 C141 0.932 . S
C1423 C123 0.976 . S
C1458 C81 1.106 . S
C1473 C163 1.010 . S
C1508 C183 0.927 . S
C1523 C102 0.953 . S
