# Generated by pormake.
# Topology uoe, (4)-cn, num edge types: 1
# Building blocks:
#     Node 0, Type 0, BuildingBlock: QUQFOY_clean_sbu_1, # of connection points: 4
#     Node 1, Type 0, BuildingBlock: QUQFOY_clean_sbu_1, # of connection points: 4
#     Node 2, Type 0, BuildingBlock: QUQFOY_clean_sbu_1, # of connection points: 4
#     Node 3, Type 0, BuildingBlock: QUQFOY_clean_sbu_1, # of connection points: 4
#     Node 4, Type 0, BuildingBlock: QUQFOY_clean_sbu_1, # of connection points: 4
#     Node 5, Type 0, BuildingBlock: QUQFOY_clean_sbu_1, # of connection points: 4
#     Node 6, Type 0, BuildingBlock: QUQFOY_clean_sbu_1, # of connection points: 4
#     Node 7, Type 0, BuildingBlock: QUQFOY_clean_sbu_1, # of connection points: 4
#     Node 8, Type 0, BuildingBlock: QUQFOY_clean_sbu_1, # of connection points: 4
#     Node 9, Type 0, BuildingBlock: QUQFOY_clean_sbu_1, # of connection points: 4
#     Node 10, Type 0, BuildingBlock: QUQFOY_clean_sbu_1, # of connection points: 4
#     Node 11, Type 0, BuildingBlock: QUQFOY_clean_sbu_1, # of connection points: 4
#     Node 12, Type 0, BuildingBlock: QUQFOY_clean_sbu_1, # of connection points: 4
#     Node 13, Type 0, BuildingBlock: QUQFOY_clean_sbu_1, # of connection points: 4
#     Node 14, Type 0, BuildingBlock: QUQFOY_clean_sbu_1, # of connection points: 4
#     Node 15, Type 0, BuildingBlock: QUQFOY_clean_sbu_1, # of connection points: 4
#     Node 16, Type 0, BuildingBlock: QUQFOY_clean_sbu_1, # of connection points: 4
#     Node 17, Type 0, BuildingBlock: QUQFOY_clean_sbu_1, # of connection points: 4
#     Node 18, Type 0, BuildingBlock: QUQFOY_clean_sbu_1, # of connection points: 4
#     Node 19, Type 0, BuildingBlock: QUQFOY_clean_sbu_1, # of connection points: 4
#     Node 20, Type 0, BuildingBlock: QUQFOY_clean_sbu_1, # of connection points: 4
#     Node 21, Type 0, BuildingBlock: QUQFOY_clean_sbu_1, # of connection points: 4
#     Node 22, Type 0, BuildingBlock: QUQFOY_clean_sbu_1, # of connection points: 4
#     Node 23, Type 0, BuildingBlock: QUQFOY_clean_sbu_1, # of connection points: 4
#     Node 24, Type 0, BuildingBlock: QUQFOY_clean_sbu_1, # of connection points: 4
#     Node 25, Type 0, BuildingBlock: QUQFOY_clean_sbu_1, # of connection points: 4
#     Node 26, Type 0, BuildingBlock: QUQFOY_clean_sbu_1, # of connection points: 4
#     Node 27, Type 0, BuildingBlock: QUQFOY_clean_sbu_1, # of connection points: 4
#     Node 28, Type 0, BuildingBlock: QUQFOY_clean_sbu_1, # of connection points: 4
#     Node 29, Type 0, BuildingBlock: QUQFOY_clean_sbu_1, # of connection points: 4
#     Node 30, Type 0, BuildingBlock: QUQFOY_clean_sbu_1, # of connection points: 4
#     Node 31, Type 0, BuildingBlock: QUQFOY_clean_sbu_1, # of connection points: 4
#     Edge 32, Type (0, 0), BuildingBlock: AJUNOK_clean_linker_0, # of connection points: 2
#     Edge 33, Type (0, 0), BuildingBlock: AJUNOK_clean_linker_0, # of connection points: 2
#     Edge 34, Type (0, 0), BuildingBlock: AJUNOK_clean_linker_0, # of connection points: 2
#     Edge 35, Type (0, 0), BuildingBlock: AJUNOK_clean_linker_0, # of connection points: 2
#     Edge 36, Type (0, 0), BuildingBlock: AJUNOK_clean_linker_0, # of connection points: 2
#     Edge 37, Type (0, 0), BuildingBlock: AJUNOK_clean_linker_0, # of connection points: 2
#     Edge 38, Type (0, 0), BuildingBlock: AJUNOK_clean_linker_0, # of connection points: 2
#     Edge 39, Type (0, 0), BuildingBlock: AJUNOK_clean_linker_0, # of connection points: 2
#     Edge 40, Type (0, 0), BuildingBlock: AJUNOK_clean_linker_0, # of connection points: 2
#     Edge 41, Type (0, 0), BuildingBlock: AJUNOK_clean_linker_0, # of connection points: 2
#     Edge 42, Type (0, 0), BuildingBlock: AJUNOK_clean_linker_0, # of connection points: 2
#     Edge 43, Type (0, 0), BuildingBlock: AJUNOK_clean_linker_0, # of connection points: 2
#     Edge 44, Type (0, 0), BuildingBlock: AJUNOK_clean_linker_0, # of connection points: 2
#     Edge 45, Type (0, 0), BuildingBlock: AJUNOK_clean_linker_0, # of connection points: 2
#     Edge 46, Type (0, 0), BuildingBlock: AJUNOK_clean_linker_0, # of connection points: 2
#     Edge 47, Type (0, 0), BuildingBlock: AJUNOK_clean_linker_0, # of connection points: 2
#     Edge 48, Type (0, 0), BuildingBlock: AJUNOK_clean_linker_0, # of connection points: 2
#     Edge 49, Type (0, 0), BuildingBlock: AJUNOK_clean_linker_0, # of connection points: 2
#     Edge 50, Type (0, 0), BuildingBlock: AJUNOK_clean_linker_0, # of connection points: 2
#     Edge 51, Type (0, 0), BuildingBlock: AJUNOK_clean_linker_0, # of connection points: 2
#     Edge 52, Type (0, 0), BuildingBlock: AJUNOK_clean_linker_0, # of connection points: 2
#     Edge 53, Type (0, 0), BuildingBlock: AJUNOK_clean_linker_0, # of connection points: 2
#     Edge 54, Type (0, 0), BuildingBlock: AJUNOK_clean_linker_0, # of connection points: 2
#     Edge 55, Type (0, 0), BuildingBlock: AJUNOK_clean_linker_0, # of connection points: 2
#     Edge 56, Type (0, 0), BuildingBlock: AJUNOK_clean_linker_0, # of connection points: 2
#     Edge 57, Type (0, 0), BuildingBlock: AJUNOK_clean_linker_0, # of connection points: 2
#     Edge 58, Type (0, 0), BuildingBlock: AJUNOK_clean_linker_0, # of connection points: 2
#     Edge 59, Type (0, 0), BuildingBlock: AJUNOK_clean_linker_0, # of connection points: 2
#     Edge 60, Type (0, 0), BuildingBlock: AJUNOK_clean_linker_0, # of connection points: 2
#     Edge 61, Type (0, 0), BuildingBlock: AJUNOK_clean_linker_0, # of connection points: 2
#     Edge 62, Type (0, 0), BuildingBlock: AJUNOK_clean_linker_0, # of connection points: 2
#     Edge 63, Type (0, 0), BuildingBlock: AJUNOK_clean_linker_0, # of connection points: 2
#     Edge 64, Type (0, 0), BuildingBlock: AJUNOK_clean_linker_0, # of connection points: 2
#     Edge 65, Type (0, 0), BuildingBlock: AJUNOK_clean_linker_0, # of connection points: 2
#     Edge 66, Type (0, 0), BuildingBlock: AJUNOK_clean_linker_0, # of connection points: 2
#     Edge 67, Type (0, 0), BuildingBlock: AJUNOK_clean_linker_0, # of connection points: 2
#     Edge 68, Type (0, 0), BuildingBlock: AJUNOK_clean_linker_0, # of connection points: 2
#     Edge 69, Type (0, 0), BuildingBlock: AJUNOK_clean_linker_0, # of connection points: 2
#     Edge 70, Type (0, 0), BuildingBlock: AJUNOK_clean_linker_0, # of connection points: 2
#     Edge 71, Type (0, 0), BuildingBlock: AJUNOK_clean_linker_0, # of connection points: 2
#     Edge 72, Type (0, 0), BuildingBlock: AJUNOK_clean_linker_0, # of connection points: 2
#     Edge 73, Type (0, 0), BuildingBlock: AJUNOK_clean_linker_0, # of connection points: 2
#     Edge 74, Type (0, 0), BuildingBlock: AJUNOK_clean_linker_0, # of connection points: 2
#     Edge 75, Type (0, 0), BuildingBlock: AJUNOK_clean_linker_0, # of connection points: 2
#     Edge 76, Type (0, 0), BuildingBlock: AJUNOK_clean_linker_0, # of connection points: 2
#     Edge 77, Type (0, 0), BuildingBlock: AJUNOK_clean_linker_0, # of connection points: 2
#     Edge 78, Type (0, 0), BuildingBlock: AJUNOK_clean_linker_0, # of connection points: 2
#     Edge 79, Type (0, 0), BuildingBlock: AJUNOK_clean_linker_0, # of connection points: 2
#     Edge 80, Type (0, 0), BuildingBlock: AJUNOK_clean_linker_0, # of connection points: 2
#     Edge 81, Type (0, 0), BuildingBlock: AJUNOK_clean_linker_0, # of connection points: 2
#     Edge 82, Type (0, 0), BuildingBlock: AJUNOK_clean_linker_0, # of connection points: 2
#     Edge 83, Type (0, 0), BuildingBlock: AJUNOK_clean_linker_0, # of connection points: 2
#     Edge 84, Type (0, 0), BuildingBlock: AJUNOK_clean_linker_0, # of connection points: 2
#     Edge 85, Type (0, 0), BuildingBlock: AJUNOK_clean_linker_0, # of connection points: 2
#     Edge 86, Type (0, 0), BuildingBlock: AJUNOK_clean_linker_0, # of connection points: 2
#     Edge 87, Type (0, 0), BuildingBlock: AJUNOK_clean_linker_0, # of connection points: 2
#     Edge 88, Type (0, 0), BuildingBlock: AJUNOK_clean_linker_0, # of connection points: 2
#     Edge 89, Type (0, 0), BuildingBlock: AJUNOK_clean_linker_0, # of connection points: 2
#     Edge 90, Type (0, 0), BuildingBlock: AJUNOK_clean_linker_0, # of connection points: 2
#     Edge 91, Type (0, 0), BuildingBlock: AJUNOK_clean_linker_0, # of connection points: 2
#     Edge 92, Type (0, 0), BuildingBlock: AJUNOK_clean_linker_0, # of connection points: 2
#     Edge 93, Type (0, 0), BuildingBlock: AJUNOK_clean_linker_0, # of connection points: 2
#     Edge 94, Type (0, 0), BuildingBlock: AJUNOK_clean_linker_0, # of connection points: 2
#     Edge 95, Type (0, 0), BuildingBlock: AJUNOK_clean_linker_0, # of connection points: 2
# Relax obj value: 0.066
# Max RMSD: 0.142
# Mean RMSD: 0.141
data_MOF--net-uoe--node1-QUQFOY_clean_sbu_1--edge1-AJUNOK_clean_linker_0
_symmetry_space_group_name_H-M    P1
_symmetry_Int_Tables_number       1
_symmetry_cell_setting            triclinic
loop_
_symmetry_equiv_pos_as_xyz
'x, y, z'
_cell_length_a     58.291323
_cell_length_b     58.365872
_cell_length_c     20.903121
_cell_angle_alpha  89.922855
_cell_angle_beta   89.985083
_cell_angle_gamma 90.046633
loop_
_atom_site_label
_atom_site_type_symbol
_atom_site_fract_x
_atom_site_fract_y
_atom_site_fract_z
_atom_type_partial_charge
O0 O 0.11101 0.47879 0.19565 0.0
Cd1 Cd 0.09454 0.46049 0.12642 0.0
Cd2 Cd 0.11242 0.49891 0.05931 0.0
O3 O 0.13221 0.50323 0.14082 0.0
O4 O 0.09011 0.43127 0.17554 0.0
O5 O 0.11343 0.43412 0.09272 0.0
C6 C 0.10633 0.42247 0.14158 0.0
C7 C 0.12643 0.50459 0.95509 0.0
C8 C 0.12689 0.49362 0.19341 0.0
C9 C 0.06051 0.49459 0.07723 0.0
O10 O 0.07805 0.50695 0.06646 0.0
O11 O 0.06298 0.47379 0.09531 0.0
O12 O 0.12357 0.52144 0.99405 0.0
O13 O 0.12284 0.48417 0.97698 0.0
O14 O 0.79535 0.86317 0.44248 0.0
Cd15 Cd 0.81445 0.84631 0.37575 0.0
Cd16 Cd 0.7746 0.86144 0.30657 0.0
O17 O 0.76843 0.88097 0.38742 0.0
O18 O 0.84321 0.84279 0.42777 0.0
O19 O 0.84123 0.86472 0.34188 0.0
C20 C 0.85248 0.85826 0.39206 0.0
C21 C 0.76992 0.87551 0.20219 0.0
C22 C 0.77895 0.87737 0.43974 0.0
C23 C 0.78188 0.8101 0.32738 0.0
O24 O 0.76857 0.82666 0.31365 0.0
O25 O 0.80225 0.81405 0.34726 0.0
O26 O 0.75257 0.87151 0.23879 0.0
O27 O 0.79014 0.87287 0.22651 0.0
O28 O 0.42143 0.54601 0.71126 0.0
Cd29 Cd 0.43362 0.56401 0.63505 0.0
Cd30 Cd 0.41577 0.52739 0.57566 0.0
O31 O 0.39625 0.5251 0.65844 0.0
O32 O 0.4347 0.59611 0.6689 0.0
O33 O 0.40868 0.58368 0.59959 0.0
C34 C 0.41549 0.59928 0.63931 0.0
C35 C 0.40143 0.52408 0.47156 0.0
C36 C 0.40378 0.53328 0.71078 0.0
C37 C 0.46722 0.53108 0.58343 0.0
O38 O 0.44982 0.51797 0.58121 0.0
O39 O 0.46449 0.55234 0.59568 0.0
O40 O 0.40295 0.50652 0.50887 0.0
O41 O 0.40638 0.54391 0.4954 0.0
O42 O 0.73251 0.1652 0.94099 0.0
Cd43 Cd 0.71297 0.18189 0.87485 0.0
Cd44 Cd 0.75268 0.1674 0.80466 0.0
O45 O 0.75917 0.14751 0.88487 0.0
O46 O 0.68465 0.18539 0.92858 0.0
O47 O 0.6859 0.16334 0.84307 0.0
C48 C 0.67516 0.16973 0.89413 0.0
C49 C 0.75717 0.15397 0.69956 0.0
C50 C 0.74904 0.15116 0.93777 0.0
C51 C 0.74522 0.21856 0.82769 0.0
O52 O 0.75862 0.20217 0.8132 0.0
O53 O 0.72485 0.21436 0.84721 0.0
O54 O 0.77459 0.15781 0.73601 0.0
O55 O 0.737 0.1564 0.72437 0.0
O56 O 0.11421 0.54542 0.43828 0.0
Cd57 Cd 0.09725 0.56531 0.50303 0.0
Cd58 Cd 0.1117 0.52565 0.57616 0.0
O59 O 0.13113 0.51851 0.49555 0.0
O60 O 0.09426 0.59377 0.44929 0.0
O61 O 0.11568 0.59221 0.53612 0.0
C62 C 0.10953 0.60323 0.48523 0.0
C63 C 0.1255 0.52043 0.68082 0.0
C64 C 0.12783 0.52856 0.44231 0.0
C65 C 0.06041 0.53347 0.55244 0.0
O66 O 0.07678 0.52031 0.56877 0.0
O67 O 0.06464 0.55351 0.53049 0.0
O68 O 0.12101 0.50328 0.64407 0.0
O69 O 0.12351 0.54071 0.65658 0.0
O70 O 0.72935 0.86131 0.68695 0.0
Cd71 Cd 0.71027 0.84486 0.75471 0.0
Cd72 Cd 0.74883 0.86227 0.82411 0.0
O73 O 0.75415 0.88178 0.74253 0.0
O74 O 0.68172 0.84038 0.70267 0.0
O75 O 0.68326 0.86345 0.78614 0.0
C76 C 0.67232 0.85638 0.73608 0.0
C77 C 0.75465 0.87642 0.92798 0.0
C78 C 0.74474 0.87664 0.68957 0.0
C79 C 0.74367 0.81044 0.80599 0.0
O80 O 0.75617 0.82777 0.81795 0.0
O81 O 0.72311 0.81319 0.78605 0.0
O82 O 0.77152 0.87297 0.88937 0.0
O83 O 0.73416 0.87331 0.90592 0.0
O84 O 0.41217 0.48235 0.95538 0.0
Cd85 Cd 0.43011 0.46222 0.0174 0.0
Cd86 Cd 0.41635 0.50224 0.09285 0.0
O87 O 0.39672 0.50992 1.01329 0.0
O88 O 0.43302 0.43444 0.96112 0.0
O89 O 0.41286 0.43448 0.05035 0.0
C90 C 0.4186 0.42416 0.99805 0.0
C91 C 0.40294 0.50898 0.19731 0.0
C92 C 0.39916 0.49965 0.96014 0.0
C93 C 0.4674 0.49414 0.06342 0.0
O94 O 0.45127 0.50704 0.08294 0.0
O95 O 0.46294 0.47429 0.04074 0.0
O96 O 0.40798 0.52554 0.15903 0.0
O97 O 0.4044 0.48838 0.17504 0.0
O98 O 0.79969 0.16522 0.18515 0.0
Cd99 Cd 0.81846 0.18212 0.25252 0.0
Cd100 Cd 0.7783 0.167 0.3203 0.0
O101 O 0.77278 0.14712 0.23962 0.0
O102 O 0.84749 0.18535 0.2017 0.0
O103 O 0.8449 0.1638 0.28832 0.0
C104 C 0.85646 0.17003 0.23842 0.0
C105 C 0.7722 0.15352 0.42488 0.0
C106 C 0.78343 0.15082 0.1875 0.0
C107 C 0.78578 0.21834 0.29842 0.0
O108 O 0.77241 0.20175 0.31161 0.0
O109 O 0.80631 0.21443 0.27989 0.0
O110 O 0.75538 0.15734 0.38636 0.0
O111 O 0.79274 0.15597 0.4025 0.0
O112 O 0.91638 0.54777 0.93413 0.0
Cd113 Cd 0.93248 0.56682 1.00243 0.0
Cd114 Cd 0.91662 0.52734 0.07065 0.0
O115 O 0.89706 0.52193 0.98926 0.0
O116 O 0.93643 0.59559 0.95095 0.0
O117 O 0.91345 0.59339 0.03464 0.0
C118 C 0.92032 0.60461 0.98478 0.0
C119 C 0.90237 0.52136 0.17447 0.0
C120 C 0.90161 0.53184 0.93654 0.0
C121 C 0.96819 0.53416 0.05166 0.0
O122 O 0.9514 0.52091 0.06382 0.0
O123 O 0.96454 0.55468 0.03281 0.0
O124 O 0.90625 0.50454 0.13612 0.0
O125 O 0.90524 0.54186 0.15229 0.0
O126 O 0.2293 0.17301 0.68479 0.0
Cd127 Cd 0.21063 0.18431 0.76051 0.0
Cd128 Cd 0.24833 0.16816 0.82054 0.0
O129 O 0.25189 0.14925 0.73739 0.0
O130 O 0.17881 0.18462 0.72411 0.0
O131 O 0.19115 0.15886 0.79427 0.0
C132 C 0.17581 0.16532 0.75325 0.0
C133 C 0.25241 0.15294 0.92345 0.0
C134 C 0.2432 0.15632 0.68518 0.0
C135 C 0.24222 0.2194 0.81217 0.0
O136 O 0.25611 0.20267 0.81614 0.0
O137 O 0.22114 0.21564 0.79913 0.0
O138 O 0.26988 0.15591 0.88646 0.0
O139 O 0.23232 0.15714 0.90001 0.0
O140 O 0.60743 0.48136 0.42288 0.0
Cd141 Cd 0.59537 0.46242 0.49748 0.0
Cd142 Cd 0.61118 0.50064 0.55961 0.0
O143 O 0.63061 0.50413 0.47687 0.0
O144 O 0.59473 0.43089 0.45953 0.0
O145 O 0.62023 0.44229 0.53156 0.0
C146 C 0.61375 0.42733 0.48957 0.0
C147 C 0.62555 0.50664 0.66308 0.0
C148 C 0.62407 0.49537 0.42423 0.0
C149 C 0.55986 0.49359 0.54895 0.0
O150 O 0.57648 0.50761 0.55366 0.0
O151 O 0.56382 0.47263 0.53537 0.0
O152 O 0.62239 0.52341 0.62388 0.0
O153 O 0.6221 0.48614 0.64171 0.0
O154 O 0.29658 0.86471 0.18877 0.0
Cd155 Cd 0.31605 0.84683 0.25251 0.0
Cd156 Cd 0.27589 0.86108 0.32515 0.0
O157 O 0.26923 0.8812 0.24535 0.0
O158 O 0.34418 0.84359 0.19763 0.0
O159 O 0.34358 0.86433 0.28568 0.0
C160 C 0.35416 0.85837 0.23395 0.0
C161 C 0.27089 0.87407 0.43071 0.0
C162 C 0.27983 0.87846 0.1927 0.0
C163 C 0.28347 0.81 0.29822 0.0
O164 O 0.27035 0.8263 0.31526 0.0
O165 O 0.30367 0.81423 0.27733 0.0
O166 O 0.25364 0.87009 0.39376 0.0
O167 O 0.29116 0.87201 0.40627 0.0
O168 O 0.91521 0.48161 0.69061 0.0
Cd169 Cd 0.93223 0.46222 0.62489 0.0
Cd170 Cd 0.91557 0.50105 0.55319 0.0
O171 O 0.89606 0.50724 0.63417 0.0
O172 O 0.93633 0.43399 0.67877 0.0
O173 O 0.91381 0.43497 0.59404 0.0
C174 C 0.92053 0.42435 0.64505 0.0
C175 C 0.90163 0.50582 0.44865 0.0
C176 C 0.90037 0.49742 0.68715 0.0
C177 C 0.96735 0.49526 0.57338 0.0
O178 O 0.95022 0.5078 0.55962 0.0
O179 O 0.96425 0.47494 0.59478 0.0
O180 O 0.90532 0.5231 0.4856 0.0
O181 O 0.90437 0.48561 0.47277 0.0
O182 O 0.29323 0.16894 0.4376 0.0
Cd183 Cd 0.31319 0.18151 0.36594 0.0
Cd184 Cd 0.27444 0.16711 0.29973 0.0
O185 O 0.26838 0.14843 0.3822 0.0
O186 O 0.34422 0.18169 0.40789 0.0
O187 O 0.33423 0.15733 0.33169 0.0
C188 C 0.34851 0.16322 0.37618 0.0
C189 C 0.26795 0.15244 0.19691 0.0
C190 C 0.27741 0.15404 0.43528 0.0
C191 C 0.28295 0.21826 0.31483 0.0
O192 O 0.26888 0.20199 0.30497 0.0
O193 O 0.30353 0.21382 0.33191 0.0
O194 O 0.25126 0.15703 0.23521 0.0
O195 O 0.28857 0.1548 0.21871 0.0
O196 O 0.61358 0.54672 0.18023 0.0
Cd197 Cd 0.5957 0.56658 0.11734 0.0
Cd198 Cd 0.61165 0.52786 0.04211 0.0
O199 O 0.63128 0.5206 0.12208 0.0
O200 O 0.59213 0.59437 0.1732 0.0
O201 O 0.61293 0.59442 0.08502 0.0
C202 C 0.60678 0.60469 0.13704 0.0
C203 C 0.62521 0.52275 0.9371 0.0
C204 C 0.62764 0.53025 0.17562 0.0
C205 C 0.56005 0.53374 0.06824 0.0
O206 O 0.57697 0.52155 0.05063 0.0
O207 O 0.56337 0.55377 0.09126 0.0
O208 O 0.62109 0.50559 0.97422 0.0
O209 O 0.62297 0.54302 0.96108 0.0
O210 O 0.22947 0.8614 0.94785 0.0
Cd211 Cd 0.21055 0.84416 0.88128 0.0
Cd212 Cd 0.24906 0.86151 0.81045 0.0
O213 O 0.25414 0.88163 0.89096 0.0
O214 O 0.18185 0.83995 0.93309 0.0
O215 O 0.18349 0.8621 0.8475 0.0
C216 C 0.17234 0.85533 0.89759 0.0
C217 C 0.25508 0.87481 0.70543 0.0
C218 C 0.24477 0.8768 0.94428 0.0
C219 C 0.24433 0.80974 0.83274 0.0
O220 O 0.2566 0.82711 0.81941 0.0
O221 O 0.22367 0.8124 0.85197 0.0
O222 O 0.27186 0.87177 0.74461 0.0
O223 O 0.23457 0.87178 0.72739 0.0
O224 O 0.61215 0.97886 0.69458 0.0
Cd225 Cd 0.59491 0.96051 0.62697 0.0
Cd226 Cd 0.61237 0.99874 0.55839 0.0
O227 O 0.63264 1.00359 0.63873 0.0
O228 O 0.59091 0.93142 0.67706 0.0
O229 O 0.61309 0.93396 0.59165 0.0
C230 C 0.60645 0.92239 0.64114 0.0
C231 C 0.62581 1.00274 0.45308 0.0
C232 C 0.62783 0.99387 0.69153 0.0
C233 C 0.56058 0.99457 0.57918 0.0
O234 O 0.57805 1.00686 0.56681 0.0
O235 O 0.56316 0.97385 0.59772 0.0
O236 O 0.62326 0.02022 0.49007 0.0
O237 O 0.62222 0.98271 0.47755 0.0
O238 O 0.2964 0.36341 0.95024 0.0
Cd239 Cd 0.31542 0.3462 0.88397 0.0
Cd240 Cd 0.27747 0.36338 0.813 0.0
O241 O 0.27215 0.38384 0.89268 0.0
O242 O 0.34382 0.34182 0.93672 0.0
O243 O 0.3427 0.3643 0.85183 0.0
C244 C 0.35346 0.35751 0.90254 0.0
C245 C 0.2734 0.37632 0.70707 0.0
C246 C 0.28129 0.37896 0.94624 0.0
C247 C 0.28152 0.31174 0.83631 0.0
O248 O 0.26935 0.32914 0.82277 0.0
O249 O 0.30223 0.31437 0.85515 0.0
O250 O 0.25592 0.37381 0.74424 0.0
O251 O 0.29347 0.37298 0.73161 0.0
O252 O 0.91493 0.04621 0.20258 0.0
Cd253 Cd 0.93232 0.06425 0.13442 0.0
Cd254 Cd 0.91476 0.0259 0.0666 0.0
O255 O 0.89473 0.02109 0.14742 0.0
O256 O 0.93721 0.09313 0.18443 0.0
O257 O 0.91457 0.09131 0.09998 0.0
C258 C 0.92164 0.10257 0.14947 0.0
C259 C 0.90075 0.02199 0.96197 0.0
C260 C 0.89939 0.03103 0.19993 0.0
C261 C 0.96653 0.02992 0.08663 0.0
O262 O 0.94908 0.01764 0.07408 0.0
O263 O 0.96393 0.05057 0.10564 0.0
O264 O 0.90345 1.00449 0.99891 0.0
O265 O 0.9046 0.042 0.98612 0.0
O266 O 0.23243 0.66495 0.42761 0.0
Cd267 Cd 0.21219 0.68168 0.36331 0.0
Cd268 Cd 0.25079 0.66544 0.28956 0.0
O269 O 0.25814 0.64632 0.37022 0.0
O270 O 0.18449 0.68542 0.41952 0.0
O271 O 0.18468 0.66319 0.33428 0.0
C272 C 0.17456 0.66971 0.38622 0.0
C273 C 0.25577 0.65119 0.18551 0.0
C274 C 0.24872 0.65066 0.42367 0.0
C275 C 0.24461 0.71714 0.31131 0.0
O276 O 0.25705 0.70014 0.29584 0.0
O277 O 0.22445 0.71388 0.33385 0.0
O278 O 0.27301 0.65559 0.22209 0.0
O279 O 0.2355 0.65356 0.20962 0.0
O280 O 0.61507 0.04508 0.93677 0.0
Cd281 Cd 0.59776 0.06447 1.00199 0.0
Cd282 Cd 0.612 0.02437 0.07357 0.0
O283 O 0.63188 0.01794 0.99336 0.0
O284 O 0.59478 0.09319 0.94943 0.0
O285 O 0.61579 0.0913 0.03703 0.0
C286 C 0.60976 0.10256 0.98643 0.0
C287 C 0.62529 0.01794 0.17832 0.0
C288 C 0.62877 0.02827 0.94047 0.0
C289 C 0.56081 0.03223 0.04805 0.0
O290 O 0.57713 0.01897 0.06419 0.0
O291 O 0.56511 0.05245 0.02763 0.0
O292 O 0.62099 1.00126 0.13984 0.0
O293 O 0.62333 0.0385 0.15594 0.0
O294 O 0.23054 0.36533 0.19033 0.0
Cd295 Cd 0.2115 0.34674 0.25364 0.0
Cd296 Cd 0.2511 0.36296 0.32708 0.0
O297 O 0.25688 0.3833 0.24725 0.0
O298 O 0.18354 0.34286 0.19853 0.0
O299 O 0.18353 0.36335 0.28719 0.0
C300 C 0.17318 0.35727 0.23521 0.0
C301 C 0.25774 0.37585 0.4322 0.0
C302 C 0.24659 0.37992 0.19444 0.0
C303 C 0.24516 0.3114 0.30025 0.0
O304 O 0.25747 0.32838 0.31679 0.0
O305 O 0.22483 0.31458 0.27901 0.0
O306 O 0.27434 0.37217 0.39288 0.0
O307 O 0.2371 0.37357 0.41048 0.0
O308 O 0.91339 0.98105 0.44559 0.0
Cd309 Cd 0.93019 0.96133 0.51122 0.0
Cd310 Cd 0.91329 1.00004 0.58338 0.0
O311 O 0.89367 1.00604 0.5025 0.0
O312 O 0.9344 0.9334 0.45663 0.0
O313 O 0.91177 0.93395 0.54122 0.0
C314 C 0.91859 0.92359 0.48999 0.0
C315 C 0.89967 1.00655 0.68768 0.0
C316 C 0.89841 0.99672 0.44917 0.0
C317 C 0.96515 0.99419 0.56233 0.0
O318 O 0.94794 1.00663 0.5759 0.0
O319 O 0.96218 0.97379 0.54164 0.0
O320 O 0.90354 0.02317 0.64855 0.0
O321 O 0.90204 0.98595 0.666 0.0
O322 O 0.29638 0.67103 0.67363 0.0
Cd323 Cd 0.31459 0.68245 0.75029 0.0
Cd324 Cd 0.2764 0.66614 0.80908 0.0
O325 O 0.27354 0.64726 0.72551 0.0
O326 O 0.34668 0.68352 0.71563 0.0
O327 O 0.33431 0.65721 0.78415 0.0
C328 C 0.3499 0.66422 0.74457 0.0
C329 C 0.27109 0.65095 0.9117 0.0
C330 C 0.28252 0.65427 0.67357 0.0
C331 C 0.28273 0.71734 0.80232 0.0
O332 O 0.26871 0.70066 0.80489 0.0
O333 O 0.30384 0.71355 0.78985 0.0
O334 O 0.25408 0.6539 0.87313 0.0
O335 O 0.29146 0.65509 0.89001 0.0
O336 O 0.42134 0.04568 0.42158 0.0
Cd337 Cd 0.43289 0.06455 0.49674 0.0
Cd338 Cd 0.41679 0.02677 0.55792 0.0
O339 O 0.39765 0.02319 0.47487 0.0
O340 O 0.43353 0.09619 0.45905 0.0
O341 O 0.40763 0.08447 0.52966 0.0
C342 C 0.41428 0.09955 0.4881 0.0
C343 C 0.40197 0.0226 0.66137 0.0
C344 C 0.40458 0.03182 0.4224 0.0
C345 C 0.46808 0.03316 0.54946 0.0
O346 O 0.45137 0.0192 0.55338 0.0
O347 O 0.46425 0.05417 0.53591 0.0
O348 O 0.4048 1.00517 0.62428 0.0
O349 O 0.40599 0.04269 0.6377 0.0
O350 O 0.72875 0.66603 0.18557 0.0
Cd351 Cd 0.70973 0.68284 0.25262 0.0
Cd352 Cd 0.74818 0.66561 0.32261 0.0
O353 O 0.75363 0.64583 0.24172 0.0
O354 O 0.68115 0.68719 0.20045 0.0
O355 O 0.6827 0.66431 0.28443 0.0
C356 C 0.67175 0.67123 0.23418 0.0
C357 C 0.75261 0.65189 0.42754 0.0
C358 C 0.74403 0.65064 0.18875 0.0
C359 C 0.74332 0.71737 0.30297 0.0
O360 O 0.75576 0.70005 0.31539 0.0
O361 O 0.72273 0.71459 0.28328 0.0
O362 O 0.76999 0.65494 0.39033 0.0
O363 O 0.73245 0.65511 0.40346 0.0
O364 O 0.11313 0.97841 0.95847 0.0
Cd365 Cd 0.09558 0.95827 0.02138 0.0
Cd366 Cd 0.11037 0.99857 0.09553 0.0
O367 O 0.12975 1.00571 1.015 0.0
O368 O 0.09155 0.93111 0.96351 0.0
O369 O 0.11312 0.93011 0.05002 0.0
C370 C 0.10668 0.92051 0.99729 0.0
C371 C 0.124 1.00539 0.19969 0.0
C372 C 0.12672 0.9953 0.96228 0.0
C373 C 0.05902 0.99039 0.07031 0.0
O374 O 0.07544 1.00343 0.08713 0.0
O375 O 0.06311 0.97036 0.0484 0.0
O376 O 0.11916 0.02193 0.16117 0.0
O377 O 0.12235 0.98477 0.17768 0.0
O378 O 0.79632 0.36442 0.69737 0.0
Cd379 Cd 0.81624 0.34718 0.76159 0.0
Cd380 Cd 0.77719 0.36334 0.83533 0.0
O381 O 0.77026 0.38262 0.75466 0.0
O382 O 0.84446 0.34386 0.70701 0.0
O383 O 0.84356 0.36516 0.7941 0.0
C384 C 0.85426 0.35895 0.74279 0.0
C385 C 0.77045 0.37722 0.93919 0.0
C386 C 0.77992 0.3786 0.70134 0.0
C387 C 0.78351 0.31165 0.81181 0.0
O388 O 0.77117 0.32864 0.82785 0.0
O389 O 0.80372 0.3149 0.7896 0.0
O390 O 0.75387 0.37269 0.90052 0.0
O391 O 0.7911 0.37519 0.91742 0.0
O392 O 0.41541 0.98126 0.17726 0.0
Cd393 Cd 0.43222 0.96122 0.11272 0.0
Cd394 Cd 0.41589 1.00008 0.03911 0.0
O395 O 0.39658 1.00684 0.11984 0.0
O396 O 0.43611 0.93343 0.16841 0.0
O397 O 0.41382 0.93376 0.08321 0.0
C398 C 0.42043 0.92352 0.13492 0.0
C399 C 0.40191 1.00673 0.93522 0.0
C400 C 0.40096 0.99741 0.17329 0.0
C401 C 0.46766 0.99383 0.06181 0.0
O402 O 0.45062 1.00626 0.04648 0.0
O403 O 0.46443 0.97359 0.08359 0.0
O404 O 0.40634 0.0233 0.97388 0.0
O405 O 0.40409 0.98611 0.95703 0.0
O406 O 0.7957 0.66464 0.94309 0.0
Cd407 Cd 0.81504 0.68166 0.87693 0.0
Cd408 Cd 0.77515 0.66657 0.8058 0.0
O409 O 0.76893 0.64705 0.88696 0.0
O410 O 0.84386 0.68495 0.92884 0.0
O411 O 0.8418 0.6635 0.84216 0.0
C412 C 0.85316 0.66979 0.89231 0.0
C413 C 0.76853 0.65273 0.70177 0.0
C414 C 0.77911 0.65065 0.93983 0.0
C415 C 0.78266 0.71794 0.82849 0.0
O416 O 0.76953 0.7014 0.81332 0.0
O417 O 0.8029 0.71401 0.84934 0.0
O418 O 0.7519 0.65708 0.74047 0.0
O419 O 0.78916 0.65492 0.72361 0.0
O420 O 0.10624 0.04446 0.71443 0.0
Cd421 Cd 0.09389 0.06325 0.63994 0.0
Cd422 Cd 0.10941 0.02535 0.57747 0.0
O423 O 0.12873 0.02118 0.66012 0.0
O424 O 0.09352 0.09492 0.67724 0.0
O425 O 0.11834 0.08351 0.60361 0.0
C426 C 0.11225 0.09855 0.6458 0.0
C427 C 0.12396 0.02114 0.47365 0.0
C428 C 0.12237 0.02991 0.71298 0.0
C429 C 0.05814 0.03197 0.58897 0.0
O430 O 0.07475 0.01804 0.58271 0.0
O431 O 0.06213 0.05284 0.60365 0.0
O432 O 0.12094 1.00372 0.51073 0.0
O433 O 0.12026 0.04124 0.49743 0.0
O434 O 0.73293 0.35711 0.45322 0.0
Cd435 Cd 0.71475 0.34459 0.37786 0.0
Cd436 Cd 0.75139 0.36241 0.31673 0.0
O437 O 0.75431 0.38171 0.39954 0.0
O438 O 0.68272 0.34405 0.41273 0.0
O439 O 0.69507 0.36916 0.34072 0.0
C440 C 0.67963 0.36302 0.38191 0.0
C441 C 0.75494 0.37724 0.21314 0.0
C442 C 0.74604 0.37447 0.45213 0.0
C443 C 0.74749 0.31088 0.32546 0.0
O444 O 0.76054 0.32827 0.32139 0.0
O445 O 0.72634 0.31357 0.3396 0.0
O446 O 0.77249 0.37519 0.25029 0.0
O447 O 0.73501 0.37244 0.23682 0.0
C448 C 0.99535 0.50214 0.08 0.0
C449 C 0.99202 0.52486 0.0584 0.0
C450 C 0.01735 0.49247 0.08551 0.0
C451 C 0.03717 0.50503 0.06972 0.0
H452 H 0.9808 0.49154 0.09282 0.0
H453 H 0.01878 0.475 0.10253 0.0
S454 S 0.03815 0.56525 1.01031 0.0
N455 N 1.01067 0.55961 0.02092 0.0
N456 N 0.05188 0.54167 0.03102 0.0
C457 C 0.03412 0.52782 0.04798 0.0
C458 C 1.01167 0.53765 0.04244 0.0
C459 C 0.75039 0.78249 0.29758 0.0
C460 C 0.77283 0.78617 0.32112 0.0
C461 C 0.74096 0.76039 0.29235 0.0
C462 C 0.75347 0.74083 0.31038 0.0
H463 H 0.73985 0.79683 0.28295 0.0
H464 H 0.72371 0.75868 0.27372 0.0
S465 S 0.81295 0.74082 0.37569 0.0
N466 N 0.80725 0.76813 0.363 0.0
N467 N 0.78974 0.72675 0.35345 0.0
C468 C 0.77597 0.74423 0.33415 0.0
C469 C 0.78556 0.76678 0.3394 0.0
C470 C 0.51031 0.5346 0.58314 0.0
C471 C 0.4906 0.52113 0.57344 0.0
C472 C 0.53243 0.52545 0.57564 0.0
C473 C 0.53597 0.50236 0.55799 0.0
H474 H 0.50871 0.5524 0.59706 0.0
H475 H 0.5469 0.53671 0.58383 0.0
S476 S 0.49017 0.4597 0.52549 0.0
N477 N 0.47618 0.48333 0.54421 0.0
N478 N 0.51765 0.4663 0.5303 0.0
C479 C 0.51643 0.48867 0.54793 0.0
C480 C 0.49385 0.49799 0.55553 0.0
C481 C 0.77652 0.24664 0.79937 0.0
C482 C 0.7542 0.24257 0.82333 0.0
C483 C 0.78592 0.26881 0.79637 0.0
C484 C 0.77351 0.28805 0.81726 0.0
H485 H 0.78698 0.23253 0.78266 0.0
H486 H 0.80308 0.27083 0.77722 0.0
S487 S 0.71431 0.28697 0.88471 0.0
N488 N 0.71997 0.25989 0.86859 0.0
N489 N 0.73743 0.30139 0.86331 0.0
C490 C 0.75112 0.28425 0.84148 0.0
C491 C 0.74155 0.26164 0.84436 0.0
C492 C 0.03224 0.50326 0.58801 0.0
C493 C 0.03638 0.52454 0.55773 0.0
C494 C 1.01009 0.49379 0.59208 0.0
C495 C 0.99095 0.50512 0.56612 0.0
H496 H 0.04626 0.49369 0.60904 0.0
H497 H 1.00799 0.47752 0.61639 0.0
S498 S 0.99234 0.56096 0.47961 0.0
N499 N 0.01929 0.55639 0.50001 0.0
N500 N 0.97782 0.53878 0.5073 0.0
C501 C 0.99484 0.52638 0.53523 0.0
C502 C 0.01743 0.53602 0.5312 0.0
C503 C 0.75173 0.74559 0.79504 0.0
C504 C 0.7735 0.74183 0.82293 0.0
C505 C 0.74212 0.76761 0.79053 0.0
C506 C 0.75378 0.78701 0.81363 0.0
H507 H 0.74189 0.73136 0.77625 0.0
H508 H 0.72545 0.76941 0.76816 0.0
S509 S 0.81101 0.78669 0.89294 0.0
N510 N 0.80621 0.75957 0.87522 0.0
N511 N 0.78832 0.80083 0.86706 0.0
C512 C 0.77554 0.78352 0.84209 0.0
C513 C 0.78533 0.76104 0.8466 0.0
C514 C 0.51796 0.5342 0.09603 0.0
C515 C 0.53647 0.52363 0.06466 0.0
C516 C 0.49596 0.52431 0.09614 0.0
C517 C 0.49136 0.50335 0.06486 0.0
H518 H 0.52047 0.55017 0.12144 0.0
H519 H 0.48242 0.5333 0.12117 0.0
S520 S 0.53363 0.46895 0.97331 0.0
N521 N 0.54849 0.49107 0.99976 0.0
N522 N 0.50729 0.47264 1.00029 0.0
C523 C 0.50968 0.49262 0.03296 0.0
C524 C 0.53211 0.50271 0.03271 0.0
C525 C 0.74455 0.26786 0.33099 0.0
C526 C 0.75747 0.2875 0.31608 0.0
C527 C 0.75393 0.24579 0.32529 0.0
C528 C 0.77669 0.24223 0.30423 0.0
H529 H 0.72707 0.26947 0.34797 0.0
H530 H 0.7431 0.23137 0.33781 0.0
S531 S 0.81771 0.28788 0.25674 0.0
N532 N 0.79428 0.30185 0.27756 0.0
N533 N 0.81174 0.26048 0.26702 0.0
C534 C 0.78976 0.26171 0.28846 0.0
C535 C 0.78021 0.28424 0.2943 0.0
C536 C 0.28418 0.26862 0.84222 0.0
C537 C 0.271 0.28839 0.83077 0.0
C538 C 0.2746 0.24658 0.83702 0.0
C539 C 0.25135 0.2432 0.82031 0.0
H540 H 0.30212 0.27011 0.85498 0.0
H541 H 0.28569 0.23204 0.84589 0.0
S542 S 0.20907 0.28919 0.78673 0.0
N543 N 0.23308 0.303 0.80285 0.0
N544 N 0.21532 0.26172 0.79328 0.0
C545 C 0.23788 0.2628 0.80946 0.0
C546 C 0.24762 0.28528 0.81457 0.0
C547 C 0.25282 0.78176 0.33035 0.0
C548 C 0.27431 0.78604 0.30129 0.0
C549 C 0.24318 0.75967 0.33244 0.0
C550 C 0.25454 0.74074 0.30554 0.0
H551 H 0.24324 0.79562 0.35202 0.0
H552 H 0.22678 0.75745 0.356 0.0
S553 S 0.3109 0.74257 0.22159 0.0
N554 N 0.30639 0.76932 0.24371 0.0
N555 N 0.28845 0.72797 0.24722 0.0
C556 C 0.27599 0.74478 0.27577 0.0
C557 C 0.28581 0.7673 0.27382 0.0
C558 C 0.25248 0.24661 0.28307 0.0
C559 C 0.27441 0.24235 0.30931 0.0
C560 C 0.24314 0.26879 0.28063 0.0
C561 C 0.25523 0.28783 0.30443 0.0
H562 H 0.24226 0.23264 0.26433 0.0
H563 H 0.22627 0.27098 0.25979 0.0
S564 S 0.31327 0.2861 0.37893 0.0
N565 N 0.3079 0.2592 0.35992 0.0
N566 N 0.29054 0.30075 0.35571 0.0
C567 C 0.27726 0.28383 0.3307 0.0
C568 C 0.28678 0.26121 0.33296 0.0
C569 C 0.25049 0.74455 0.82789 0.0
C570 C 0.2738 0.74112 0.81196 0.0
C571 C 0.24115 0.76661 0.83483 0.0
C572 C 0.25463 0.78636 0.82597 0.0
H573 H 0.23916 0.73003 0.83477 0.0
H574 H 0.22313 0.76814 0.84676 0.0
S575 S 0.31689 0.78703 0.78548 0.0
N576 N 0.31025 0.75957 0.78883 0.0
N577 N 0.29293 0.80089 0.80169 0.0
C578 C 0.27809 0.7832 0.81072 0.0
C579 C 0.28758 0.76069 0.80383 0.0
C580 C 0.49532 1.00112 0.57677 0.0
C581 C 0.49191 0.02422 0.55876 0.0
C582 C 0.51739 0.99173 0.58342 0.0
C583 C 0.53719 1.00494 0.57223 0.0
H584 H 0.48076 0.99001 0.58561 0.0
H585 H 0.51888 0.97389 0.59714 0.0
S586 S 0.53795 0.06652 0.52496 0.0
N587 N 0.51044 0.06015 0.53068 0.0
N588 N 0.55179 0.04273 0.54295 0.0
C589 C 0.53406 0.02817 0.5547 0.0
C590 C 0.51153 0.03773 0.54809 0.0
C591 C 1.0093 0.03133 0.10364 0.0
C592 C 0.98991 0.01953 0.08089 0.0
C593 C 0.0313 0.02159 0.10068 0.0
C594 C 0.03509 0.99957 0.07469 0.0
H595 H 1.00751 0.04822 0.12444 0.0
H596 H 0.04551 0.03159 0.11899 0.0
S597 S 0.99022 0.96148 1.00708 0.0
N598 N 0.97608 0.98448 0.03041 0.0
N599 N 0.01735 0.96637 0.02501 0.0
C600 C 0.01588 0.98756 0.05156 0.0
C601 C 0.9934 0.99747 0.05457 0.0
C602 C 0.53263 1.00111 0.07675 0.0
C603 C 0.53678 0.02322 0.05156 0.0
C604 C 0.51045 0.99165 0.07912 0.0
C605 C 0.49128 1.00381 0.05641 0.0
H606 H 0.54666 0.99085 0.09497 0.0
H607 H 0.50836 0.97469 0.0994 0.0
S608 S 0.49262 0.06228 0.98469 0.0
N609 N 0.51963 0.05691 1.00282 0.0
N610 N 0.47811 0.03933 1.00694 0.0
C611 C 0.49517 0.02595 0.03079 0.0
C612 C 0.51779 0.03558 0.02852 0.0
C613 C 0.03043 1.00078 0.55771 0.0
C614 C 0.03419 0.02318 0.58108 0.0
C615 C 1.00824 0.99152 0.55204 0.0
C616 C 0.9887 1.00417 0.56966 0.0
H617 H 0.04479 0.99016 0.54359 0.0
H618 H 1.00644 0.97428 0.53361 0.0
S619 S 0.98898 0.06362 0.63455 0.0
N620 N 0.0163 0.05772 0.62233 0.0
N621 N 0.97477 0.04053 0.61213 0.0
C622 C 0.99221 0.02665 0.59316 0.0
C623 C 0.01483 0.03608 0.59868 0.0
C624 C 0.12935 0.49049 0.84208 0.0
C625 C 0.13079 0.50876 0.88575 0.0
C626 C 0.12906 0.49438 0.77579 0.0
C627 C 0.13019 0.51671 0.75018 0.0
H628 H 0.12728 0.47307 0.85907 0.0
H629 H 0.12685 0.47974 0.7446 0.0
S630 S 0.13771 0.57028 0.84352 0.0
N631 N 0.13606 0.54991 0.89822 0.0
N632 N 0.13544 0.55716 0.77389 0.0
C633 C 0.1333 0.53501 0.79313 0.0
C634 C 0.13362 0.53105 0.86075 0.0
C635 C 0.74038 0.88007 0.04069 0.0
C636 C 0.7588 0.88088 0.99721 0.0
C637 C 0.74413 0.8798 0.107 0.0
C638 C 0.76646 0.88031 0.13282 0.0
H639 H 0.72292 0.87846 0.02353 0.0
H640 H 0.72935 0.87805 0.13808 0.0
S641 S 0.82047 0.88615 0.03999 0.0
N642 N 0.80015 0.88497 0.9851 0.0
N643 N 0.80714 0.88439 0.1095 0.0
C644 C 0.78495 0.88285 0.09005 0.0
C645 C 0.78113 0.88315 0.0224 0.0
C646 C 0.39694 0.49498 0.30961 0.0
C647 C 0.39811 0.5134 0.26622 0.0
C648 C 0.39646 0.49868 0.37594 0.0
C649 C 0.39717 0.52096 0.40182 0.0
H650 H 0.39751 0.47748 0.2925 0.0
H651 H 0.39671 0.48384 0.40708 0.0
S652 S 0.39657 0.5752 0.30879 0.0
N653 N 0.39715 0.55489 0.25394 0.0
N654 N 0.39635 0.56178 0.37835 0.0
C655 C 0.39663 0.53956 0.35892 0.0
C656 C 0.39708 0.5358 0.29128 0.0
C657 C 0.78282 0.14988 0.60393 0.0
C658 C 0.76051 0.14949 0.62997 0.0
C659 C 0.7865 0.14973 0.53757 0.0
C660 C 0.76804 0.14919 0.49423 0.0
H661 H 0.79764 0.15138 0.63489 0.0
H662 H 0.80396 0.15117 0.52028 0.0
S663 S 0.70635 0.14448 0.53751 0.0
N664 N 0.71976 0.14593 0.60693 0.0
N665 N 0.72663 0.14559 0.48245 0.0
C666 C 0.7457 0.14713 0.5196 0.0
C667 C 0.74195 0.14729 0.58731 0.0
C668 C 0.89831 0.53554 0.2871 0.0
C669 C 0.89755 0.5172 0.24354 0.0
C670 C 0.89814 0.53173 0.35341 0.0
C671 C 0.89721 0.5094 0.37913 0.0
H672 H 0.90022 0.55297 0.27007 0.0
H673 H 0.89989 0.54643 0.38459 0.0
S674 S 0.89122 0.45564 0.28587 0.0
N675 N 0.893 0.47596 0.2311 0.0
N676 N 0.89276 0.46885 0.3555 0.0
C677 C 0.89472 0.49101 0.33619 0.0
C678 C 0.89487 0.49489 0.26854 0.0
C679 C 0.27815 0.14749 0.01819 0.0
C680 C 0.25578 0.14782 0.99263 0.0
C681 C 0.28197 0.14737 0.08446 0.0
C682 C 0.26358 0.14756 0.12806 0.0
H683 H 0.29294 0.14857 0.98694 0.0
H684 H 0.2995 0.1484 0.10142 0.0
S685 S 0.2017 0.1443 0.08602 0.0
N686 N 0.215 0.14529 1.01635 0.0
N687 N 0.22212 0.14498 0.1407 0.0
C688 C 0.24114 0.14595 0.10318 0.0
C689 C 0.23726 0.14611 0.03558 0.0
C690 C 0.62877 0.49665 0.84245 0.0
C691 C 0.62975 0.51902 0.86769 0.0
C692 C 0.62893 0.4927 0.77623 0.0
C693 C 0.63009 0.51094 0.73224 0.0
H694 H 0.62677 0.48203 0.87391 0.0
H695 H 0.62698 0.47525 0.75956 0.0
S696 S 0.63658 0.57255 0.7734 0.0
N697 N 0.63459 0.55949 0.84328 0.0
N698 N 0.63497 0.55212 0.71904 0.0
C699 C 0.63279 0.53328 0.75684 0.0
C700 C 0.6326 0.5373 0.82442 0.0
C701 C 0.24105 0.87792 0.59223 0.0
C702 C 0.25937 0.87891 0.63598 0.0
C703 C 0.24492 0.87769 0.52592 0.0
C704 C 0.26729 0.87842 0.50032 0.0
H705 H 0.22357 0.87626 0.60918 0.0
H706 H 0.23021 0.8759 0.49467 0.0
S707 S 0.32111 0.88436 0.59387 0.0
N708 N 0.3007 0.88309 0.64852 0.0
N709 N 0.30791 0.88258 0.5242 0.0
C710 C 0.28569 0.88095 0.54336 0.0
C711 C 0.28175 0.88121 0.611 0.0
C712 C 0.62994 0.03205 0.29093 0.0
C713 C 0.62974 0.01363 0.24755 0.0
C714 C 0.63009 0.02833 0.35731 0.0
C715 C 0.63002 1.00602 0.3833 0.0
H716 H 0.62888 0.04953 0.27372 0.0
H717 H 0.62916 0.04314 0.38836 0.0
S718 S 0.63303 0.9519 0.29056 0.0
N719 N 0.63214 0.9722 0.23558 0.0
N720 N 0.63233 0.96527 0.36005 0.0
C721 C 0.63144 0.98748 0.34051 0.0
C722 C 0.63132 0.99126 0.27281 0.0
C723 C 0.24389 0.38055 0.54518 0.0
C724 C 0.26225 0.38006 0.50146 0.0
C725 C 0.24772 0.3807 0.6115 0.0
C726 C 0.27009 0.38032 0.63716 0.0
H727 H 0.22635 0.37983 0.52826 0.0
H728 H 0.23292 0.38008 0.6428 0.0
S729 S 0.3242 0.38206 0.54348 0.0
N730 N 0.30377 0.38156 0.48885 0.0
N731 N 0.31089 0.38173 0.61319 0.0
C732 C 0.28862 0.38131 0.59403 0.0
C733 C 0.28472 0.3812 0.52638 0.0
C734 C 0.89536 0.99642 0.86686 0.0
C735 C 0.89604 0.01874 0.89248 0.0
C736 C 0.89508 0.99263 0.80057 0.0
C737 C 0.89544 1.011 0.7569 0.0
H738 H 0.89614 0.98162 0.8981 0.0
H739 H 0.89569 0.97512 0.78359 0.0
S740 S 0.89376 0.07284 0.79907 0.0
N741 N 0.8945 0.05951 0.86872 0.0
N742 N 0.89388 0.05247 0.74438 0.0
C743 C 0.89444 0.03343 0.78187 0.0
C744 C 0.89477 0.03728 0.84949 0.0
C745 C 0.28549 0.6475 0.02423 0.0
C746 C 0.26711 0.64604 0.98078 0.0
C747 C 0.28172 0.64764 0.09051 0.0
C748 C 0.25941 0.64634 0.1163 0.0
H749 H 0.30288 0.6498 1.00708 0.0
H750 H 0.29641 0.64997 0.12155 0.0
S751 S 0.2057 0.63828 0.02359 0.0
N752 N 0.22596 0.64026 0.96867 0.0
N753 N 0.21893 0.64062 0.09309 0.0
C754 C 0.24105 0.64304 0.0736 0.0
C755 C 0.24488 0.64286 1.00596 0.0
C756 C 0.39678 0.99292 0.82255 0.0
C757 C 0.39723 1.01123 0.86626 0.0
C758 C 0.39675 0.99681 0.75627 0.0
C759 C 0.3972 0.01918 0.73077 0.0
H760 H 0.39763 0.97539 0.83942 0.0
H761 H 0.39757 0.98207 0.72493 0.0
S762 S 0.3947 0.07311 0.82454 0.0
N763 N 0.39526 0.05265 0.8791 0.0
N764 N 0.3953 0.0599 0.75479 0.0
C765 C 0.39588 0.03764 0.77388 0.0
C766 C 0.39587 0.03368 0.84148 0.0
C767 C 0.7785 0.64775 0.52266 0.0
C768 C 0.7561 0.64763 0.49722 0.0
C769 C 0.7824 0.64796 0.58893 0.0
C770 C 0.76407 0.64806 0.63276 0.0
H771 H 0.79325 0.64878 0.49123 0.0
H772 H 0.79994 0.64919 0.60569 0.0
S773 S 0.70217 0.64424 0.59134 0.0
N774 N 0.71538 0.64499 0.52151 0.0
N775 N 0.72264 0.64532 0.6458 0.0
C776 C 0.74162 0.64626 0.60808 0.0
C777 C 0.73765 0.64606 0.54048 0.0
C778 C 0.12893 0.99539 0.37876 0.0
C779 C 0.12864 0.01775 0.40419 0.0
C780 C 0.1289 0.99153 0.31249 0.0
C781 C 0.1286 1.00986 0.2687 0.0
H782 H 0.12801 0.98064 0.41014 0.0
H783 H 0.12794 0.97401 0.29569 0.0
S784 S 0.13161 0.0717 0.31019 0.0
N785 N 0.13086 0.05847 0.38 0.0
N786 N 0.13088 0.05127 0.25569 0.0
C787 C 0.13009 0.03229 0.2934 0.0
C788 C 0.1301 0.03622 0.36099 0.0
C789 C 0.7805 0.38285 0.11798 0.0
C790 C 0.75815 0.38198 0.14366 0.0
C791 C 0.7843 0.38278 0.05168 0.0
C792 C 0.76593 0.38188 1.00813 0.0
H793 H 0.79532 0.38239 0.14921 0.0
H794 H 0.80185 0.38228 0.03468 0.0
S795 S 0.70398 0.38318 0.05033 0.0
N796 N 0.71732 0.38297 0.11997 0.0
N797 N 0.7244 0.38295 0.9956 0.0
C798 C 0.74345 0.3828 0.03306 0.0
C799 C 0.73959 0.38283 0.10069 0.0
C800 C 0.13869 0.53387 0.32833 0.0
C801 C 0.13674 0.51914 0.38163 0.0
C802 C 0.13857 0.52526 0.26582 0.0
C803 C 0.13627 0.50167 0.25489 0.0
H804 H 0.13819 0.55228 0.33476 0.0
H805 H 0.13773 0.53726 0.22631 0.0
S806 S 0.13667 0.45569 0.37756 0.0
N807 N 0.13715 0.47971 0.41921 0.0
N808 N 0.13678 0.46348 0.30158 0.0
C809 C 0.13751 0.48667 0.30758 0.0
C810 C 0.13782 0.49543 0.37121 0.0
C811 C 0.73818 0.88616 0.57528 0.0
C812 C 0.75321 0.88583 0.62814 0.0
C813 C 0.74659 0.88657 0.51252 0.0
C814 C 0.77029 0.88645 0.50093 0.0
H815 H 0.71989 0.88399 0.58232 0.0
H816 H 0.73457 0.88444 0.47345 0.0
S817 S 0.81647 0.89151 0.62218 0.0
N818 N 0.79259 0.88996 0.66454 0.0
N819 N 0.80846 0.89066 0.54645 0.0
C820 C 0.78529 0.8893 0.55312 0.0
C821 C 0.77672 0.88904 0.617 0.0
C822 C 0.38883 0.50328 0.78424 0.0
C823 C 0.39396 0.52639 0.77271 0.0
C824 C 0.38733 0.49501 0.84702 0.0
C825 C 0.39071 0.50966 0.8998 0.0
H826 H 0.38841 0.49113 0.74511 0.0
H827 H 0.38578 0.47668 0.85418 0.0
S828 S 0.39824 0.57265 0.89347 0.0
N829 N 0.39766 0.56458 0.8178 0.0
N830 N 0.3947 0.54903 0.93597 0.0
C831 C 0.39244 0.5333 0.88852 0.0
C832 C 0.3942 0.54167 0.82467 0.0
C833 C 0.75136 0.14064 0.11458 0.0
C834 C 0.77504 0.14164 0.12609 0.0
C835 C 0.74292 0.1409 0.05187 0.0
C836 C 0.75789 0.142 0.9989 0.0
H837 H 0.73928 0.1422 0.15375 0.0
H838 H 0.72454 0.14237 0.04503 0.0
S839 S 0.82131 0.13843 1.0045 0.0
N840 N 0.8133 0.13882 0.08028 0.0
N841 N 0.79738 0.13931 0.96228 0.0
C842 C 0.7815 0.13958 1.0099 0.0
C843 C 0.7901 0.13944 0.07375 0.0
C844 C 0.89162 0.52995 0.75932 0.0
C845 C 0.89129 0.50628 0.74803 0.0
C846 C 0.89227 0.53839 0.82198 0.0
C847 C 0.89241 0.52342 0.87505 0.0
H848 H 0.89394 0.54186 0.72004 0.0
H849 H 0.89474 0.55664 0.82871 0.0
S850 S 0.88544 0.46037 0.86977 0.0
N851 N 0.88644 0.46829 0.79394 0.0
N852 N 0.88749 0.48421 0.91188 0.0
C853 C 0.88873 0.5 0.86418 0.0
C854 C 0.88825 0.49139 0.8004 0.0
C855 C 0.27449 0.14457 0.61195 0.0
C856 C 0.25096 0.14737 0.62325 0.0
C857 C 0.28293 0.14404 0.54931 0.0
C858 C 0.26803 0.14592 0.49651 0.0
H859 H 0.28661 0.1452 0.65123 0.0
H860 H 0.30135 0.14414 0.54222 0.0
S861 S 0.20457 0.14777 0.50194 0.0
N862 N 0.21259 0.14784 0.57771 0.0
N863 N 0.22849 0.1464 0.45972 0.0
C864 C 0.24431 0.14553 0.50741 0.0
C865 C 0.23574 0.14643 0.57112 0.0
C866 C 0.63852 0.53509 0.28941 0.0
C867 C 0.63626 0.52048 0.2361 0.0
C868 C 0.63734 0.5265 0.35191 0.0
C869 C 0.63363 0.50308 0.36267 0.0
H870 H 0.63898 0.55351 0.28282 0.0
H871 H 0.63688 0.53851 0.39137 0.0
S872 S 0.63265 0.45712 0.24036 0.0
N873 N 0.63485 0.48109 0.19866 0.0
N874 N 0.63245 0.46492 0.31628 0.0
C875 C 0.63449 0.48802 0.31022 0.0
C876 C 0.63594 0.49674 0.24664 0.0
C877 C 0.23841 0.88656 0.05855 0.0
C878 C 0.25325 0.88642 1.00522 0.0
C879 C 0.24702 0.88728 0.12107 0.0
C880 C 0.27076 0.88768 0.13201 0.0
H881 H 0.22014 0.88396 0.05213 0.0
H882 H 0.23519 0.8849 0.16051 0.0
S883 S 0.31637 0.89363 1.00925 0.0
N884 N 0.29239 0.89142 0.96763 0.0
N885 N 0.30864 0.89276 0.08523 0.0
C886 C 0.28549 0.89084 0.07928 0.0
C887 C 0.27671 0.89023 1.01564 0.0
C888 C 0.63941 0.02556 0.76386 0.0
C889 C 0.63752 1.00195 0.75259 0.0
C890 C 0.6395 0.03404 0.82652 0.0
C891 C 0.63787 0.01916 0.87961 0.0
H892 H 0.63822 0.03762 0.72456 0.0
H893 H 0.63865 0.05243 0.83323 0.0
S894 S 0.63904 0.95572 0.87443 0.0
N895 N 0.63891 0.9637 0.7986 0.0
N896 N 0.63913 0.97966 0.91649 0.0
C897 C 0.63944 0.9955 0.86878 0.0
C898 C 0.63921 0.98687 0.80501 0.0
C899 C 0.27908 0.38972 0.12269 0.0
C900 C 0.25535 0.3895 0.13386 0.0
C901 C 0.28764 0.38919 0.06009 0.0
C902 C 0.27274 0.38865 1.00694 0.0
H903 H 0.291 0.38761 0.16202 0.0
H904 H 0.30595 0.38698 0.05345 0.0
S905 S 0.20946 0.39417 1.0116 0.0
N906 N 0.2173 0.39354 0.0875 0.0
N907 N 0.23345 0.39261 0.96972 0.0
C908 C 0.24921 0.39189 0.01757 0.0
C909 C 0.24048 0.39228 0.0813 0.0
C910 C 0.88803 0.99081 0.33531 0.0
C911 C 0.88934 1.00571 0.38823 0.0
C912 C 0.88812 0.99928 0.27259 0.0
C913 C 0.8898 0.02291 0.26114 0.0
H914 H 0.88909 0.97243 0.34226 0.0
H915 H 0.88947 0.98722 0.23343 0.0
S916 S 0.88782 0.06911 0.38271 0.0
N917 N 0.8878 0.04516 0.42491 0.0
N918 N 0.88814 0.06117 0.3069 0.0
C919 C 0.88796 0.03799 0.31343 0.0
C920 C 0.88765 0.02935 0.37725 0.0
C921 C 0.25189 0.64092 0.59992 0.0
C922 C 0.27523 0.64503 0.61139 0.0
C923 C 0.24357 0.63972 0.5372 0.0
C924 C 0.2584 0.64232 0.4844 0.0
H925 H 0.23969 0.641 0.63906 0.0
H926 H 0.22517 0.63893 0.53003 0.0
S927 S 0.3217 0.64738 0.49038 0.0
N928 N 0.3136 0.64718 0.56611 0.0
N929 N 0.29792 0.64476 0.448 0.0
C930 C 0.2821 0.64318 0.49556 0.0
C931 C 0.29054 0.64466 0.55937 0.0
C932 C 0.39034 0.99234 0.28717 0.0
C933 C 0.39258 1.00706 0.234 0.0
C934 C 0.3915 1.00082 0.34971 0.0
C935 C 0.39523 0.02422 0.36062 0.0
H936 H 0.38985 0.97393 0.28041 0.0
H937 H 0.39187 0.98874 0.38913 0.0
S938 S 0.39663 0.07037 0.23856 0.0
N939 N 0.39425 0.04649 0.19674 0.0
N940 N 0.39677 0.06244 0.31443 0.0
C941 C 0.39454 0.03937 0.30825 0.0
C942 C 0.39304 0.03077 0.24466 0.0
C943 C 0.77628 0.64031 0.11678 0.0
C944 C 0.75257 0.64133 0.12774 0.0
C945 C 0.78491 0.64051 0.05423 0.0
C946 C 0.77009 0.64157 1.00093 0.0
H947 H 0.78822 0.6419 0.15624 0.0
H948 H 0.8033 0.64197 0.04776 0.0
S949 S 0.70665 0.63813 1.00528 0.0
N950 N 0.71444 0.63863 0.08123 0.0
N951 N 0.7307 0.63888 0.96354 0.0
C952 C 0.74644 0.6392 1.01147 0.0
C953 C 0.73765 0.63916 0.07513 0.0
C954 C 0.13267 0.02848 0.89026 0.0
C955 C 0.13512 1.00491 0.90149 0.0
C956 C 0.13088 0.03688 0.82771 0.0
C957 C 0.13179 0.02201 0.77468 0.0
H958 H 0.12952 0.04011 0.92965 0.0
H959 H 0.12688 0.05486 0.82107 0.0
S960 S 0.1441 0.95979 0.7793 0.0
N961 N 0.14288 0.96751 0.85521 0.0
N962 N 0.1398 0.98341 0.73739 0.0
C963 C 0.13751 0.99898 0.78523 0.0
C964 C 0.13911 0.99039 0.84893 0.0
C965 C 0.78502 0.38956 0.5877 0.0
C966 C 0.77023 0.387 0.64061 0.0
C967 C 0.77666 0.3883 0.52502 0.0
C968 C 0.75332 0.38418 0.51373 0.0
H969 H 0.80343 0.39033 0.59477 0.0
H970 H 0.78882 0.3881 0.48581 0.0
S971 S 0.70692 0.38198 0.6349 0.0
N972 N 0.73071 0.38466 0.67717 0.0
N973 N 0.71498 0.38209 0.55915 0.0
C974 C 0.73804 0.38464 0.56579 0.0
C975 C 0.74651 0.38619 0.62955 0.0
C976 C 0.13398 0.39011 0.12286 0.0
C977 C 0.11933 0.40203 0.16469 0.0
C978 C 0.15003 0.37411 0.14592 0.0
C979 C 0.15252 0.36979 0.21198 0.0
H980 H 0.13379 0.3939 0.07212 0.0
H981 H 0.16166 0.36631 0.11192 0.0
S982 S 0.11694 0.39465 0.34134 0.0
N983 N 0.10702 0.40666 0.27534 0.0
N984 N 0.1377 0.37728 0.31832 0.0
C985 C 0.13719 0.38061 0.25399 0.0
C986 C 0.12046 0.39651 0.23045 0.0
C987 C 0.89274 0.88947 0.50529 0.0
C988 C 0.90572 0.90351 0.46419 0.0
C989 C 0.87693 0.87344 0.48109 0.0
C990 C 0.87299 0.8712 0.41477 0.0
H991 H 0.89409 0.89154 0.55664 0.0
H992 H 0.86662 0.86386 0.51495 0.0
S993 S 0.90362 0.90268 0.28641 0.0
N994 N 0.91471 0.9128 0.35334 0.0
N995 N 0.88452 0.8833 0.30842 0.0
C996 C 0.88662 0.88431 0.3731 0.0
C997 C 0.9031 0.90027 0.39764 0.0
C998 C 0.37638 0.61089 0.6735 0.0
C999 C 0.39932 0.61716 0.6619 0.0
C1000 C 0.36101 0.62598 0.7032 0.0
C1001 C 0.36774 0.64821 0.7211 0.0
H1002 H 0.37037 0.59387 0.66133 0.0
H1003 H 0.34349 0.62035 0.71071 0.0
S1004 S 0.42566 0.67334 0.70011 0.0
N1005 N 0.42813 0.64705 0.67151 0.0
N1006 N 0.39872 0.67603 0.72365 0.0
C1007 C 0.39047 0.65494 0.70868 0.0
C1008 C 0.40641 0.63924 0.68024 0.0
C1009 C 0.64132 0.14373 0.87624 0.0
C1010 C 0.655 0.15657 0.91848 0.0
C1011 C 0.62527 0.12766 0.89907 0.0
C1012 C 0.62266 0.12329 0.96511 0.0
H1013 H 0.6437 0.14541 0.82504 0.0
H1014 H 0.61597 0.11749 0.86436 0.0
S1015 S 0.65295 0.15355 0.0961 0.0
N1016 N 0.66344 0.16507 0.03008 0.0
N1017 N 0.63391 0.1344 0.07245 0.0
C1018 C 0.63536 0.13683 1.00791 0.0
C1019 C 0.65133 0.15358 0.98476 0.0
C1020 C 0.14038 0.64385 0.3717 0.0
C1021 C 0.15462 0.65667 0.41254 0.0
C1022 C 0.12444 0.62796 0.39614 0.0
C1023 C 0.12248 0.62375 0.46244 0.0
H1024 H 0.1422 0.64541 0.3203 0.0
H1025 H 0.11467 0.61782 0.36239 0.0
S1026 S 0.15454 0.65396 0.59029 0.0
N1027 N 0.16439 0.66526 0.52323 0.0
N1028 N 0.13505 0.63495 0.56858 0.0
C1029 C 0.1358 0.63724 0.50391 0.0
C1030 C 0.15167 0.6538 0.47914 0.0
C1031 C 0.62206 0.89789 0.72947 0.0
C1032 C 0.61941 0.90185 0.66325 0.0
C1033 C 0.63826 0.88212 0.75297 0.0
C1034 C 0.65204 0.86918 0.71125 0.0
H1035 H 0.6127 0.90819 0.76373 0.0
H1036 H 0.64067 0.88077 0.80422 0.0
S1037 S 0.65014 0.87137 0.53354 0.0
N1038 N 0.63088 0.89041 0.55639 0.0
N1039 N 0.66066 0.86026 0.60002 0.0
C1040 C 0.64838 0.87181 0.64486 0.0
C1041 C 0.63227 0.88827 0.62102 0.0
C1042 C 0.38695 0.38404 0.88544 0.0
C1043 C 0.37377 0.37039 0.92708 0.0
C1044 C 0.40291 0.40004 0.90901 0.0
C1045 C 0.40594 0.4035 0.97528 0.0
H1046 H 0.3842 0.38309 0.83426 0.0
H1047 H 0.41176 0.41087 0.87486 0.0
S1048 S 0.37728 0.37074 0.10472 0.0
N1049 N 0.36643 0.36005 0.03818 0.0
N1050 N 0.39579 0.39058 0.08198 0.0
C1051 C 0.39384 0.3891 0.01734 0.0
C1052 C 0.37795 0.37244 0.99338 0.0
C1053 C 0.88003 0.15271 0.15098 0.0
C1054 C 0.87685 0.15679 0.21688 0.0
C1055 C 0.89567 0.13615 0.129 0.0
C1056 C 0.90921 0.12341 0.17189 0.0
H1057 H 0.8692 0.16118 0.11612 0.0
H1058 H 0.89638 0.13259 0.07819 0.0
S1059 S 0.90953 0.12977 0.34891 0.0
N1060 N 0.88986 0.14814 0.3244 0.0
N1061 N 0.91982 0.11769 0.28354 0.0
C1062 C 0.90745 0.12864 0.23768 0.0
C1063 C 0.89112 0.14512 0.26006 0.0
C1064 C 0.89409 0.63819 1.00283 0.0
C1065 C 0.90718 0.62476 0.96061 0.0
C1066 C 0.87802 0.6542 0.97994 0.0
C1067 C 0.87389 0.65699 0.91386 0.0
H1068 H 0.89558 0.63564 0.05401 0.0
H1069 H 0.86765 0.66331 1.01457 0.0
S1070 S 0.9048 0.62732 0.78299 0.0
N1071 N 0.91615 0.61673 0.84906 0.0
N1072 N 0.88544 0.64614 0.80656 0.0
C1073 C 0.88765 0.64452 0.87112 0.0
C1074 C 0.90441 0.62862 0.89435 0.0
C1075 C 0.12038 0.13727 0.69483 0.0
C1076 C 0.12844 0.11674 0.66719 0.0
C1077 C 0.13561 0.15317 0.72295 0.0
C1078 C 0.15923 0.14849 0.72716 0.0
H1079 H 0.10219 0.14102 0.69491 0.0
H1080 H 0.12884 0.16895 0.74253 0.0
S1081 S 0.18916 0.09754 0.66212 0.0
N1082 N 0.16189 0.09318 0.64461 0.0
N1083 N 0.19004 0.12234 0.69991 0.0
C1084 C 0.16745 0.12813 0.69973 0.0
C1085 C 0.15219 0.11244 0.6692 0.0
C1086 C 0.64064 0.37177 0.42877 0.0
C1087 C 0.66176 0.37946 0.40366 0.0
C1088 C 0.62493 0.38716 0.45697 0.0
C1089 C 0.63039 0.41052 0.46385 0.0
H1090 H 0.63625 0.35375 0.42669 0.0
H1091 H 0.60866 0.38072 0.47442 0.0
S1092 S 0.68323 0.43939 0.40645 0.0
N1093 N 0.68683 0.41226 0.38672 0.0
N1094 N 0.65797 0.44068 0.44197 0.0
C1095 C 0.65139 0.41835 0.43913 0.0
C1096 C 0.66692 0.40296 0.40856 0.0
C1097 C 0.39411 0.88976 0.11987 0.0
C1098 C 0.4075 0.90344 0.16078 0.0
C1099 C 0.37825 0.87379 0.14427 0.0
C1100 C 0.37468 0.87121 0.21069 0.0
H1101 H 0.39516 0.89209 0.06852 0.0
H1102 H 0.36762 0.86453 0.11056 0.0
S1103 S 0.4066 0.9015 0.33861 0.0
N1104 N 0.41736 0.91191 0.2715 0.0
N1105 N 0.38711 0.8825 0.31686 0.0
C1106 C 0.38877 0.8839 0.25212 0.0
C1107 C 0.40528 0.89982 0.22733 0.0
C1108 C 0.87782 0.37502 0.65295 0.0
C1109 C 0.87474 0.37179 0.71931 0.0
C1110 C 0.8937 0.39105 0.62889 0.0
C1111 C 0.90761 0.40411 0.67007 0.0
H1112 H 0.8668 0.36625 0.61921 0.0
H1113 H 0.89437 0.39391 0.57771 0.0
S1114 S 0.90832 0.39996 0.84764 0.0
N1115 N 0.88827 0.38161 0.82553 0.0
N1116 N 0.91861 0.41106 0.78081 0.0
C1117 C 0.9059 0.39975 0.73641 0.0
C1118 C 0.88934 0.38381 0.76088 0.0
C1119 C 0.40256 0.13974 0.45663 0.0
C1120 C 0.39764 0.1162 0.46135 0.0
C1121 C 0.3869 0.155 0.42755 0.0
C1122 C 0.3664 0.14702 0.39937 0.0
H1123 H 0.41837 0.14643 0.47644 0.0
H1124 H 0.39084 0.17314 0.42711 0.0
S1125 S 0.34647 0.08658 0.39599 0.0
N1126 N 0.37116 0.08559 0.43452 0.0
N1127 N 0.34249 0.11378 0.37735 0.0
C1128 C 0.3618 0.12336 0.40215 0.0
C1129 C 0.37723 0.10809 0.43369 0.0
C1130 C 0.6229 0.62802 0.22701 0.0
C1131 C 0.61934 0.62527 0.1607 0.0
C1132 C 0.63882 0.64399 0.25093 0.0
C1133 C 0.65143 0.65832 0.20969 0.0
H1134 H 0.61451 0.61665 0.26072 0.0
H1135 H 0.642 0.64438 0.30198 0.0
S1136 S 0.64612 0.6601 0.03243 0.0
N1137 N 0.62824 0.63962 0.0546 0.0
N1138 N 0.65749 0.67014 0.09911 0.0
C1139 C 0.64667 0.65697 0.14353 0.0
C1140 C 0.63084 0.64033 0.11916 0.0
C1141 C 0.14804 0.87025 0.98715 0.0
C1142 C 0.15176 0.868 0.92075 0.0
C1143 C 0.13234 0.88627 1.01175 0.0
C1144 C 0.11925 0.90032 0.97101 0.0
H1145 H 0.1585 0.86073 0.02075 0.0
H1146 H 0.13121 0.88837 0.06314 0.0
S1147 S 0.12024 0.89891 0.79315 0.0
N1148 N 0.13957 0.87974 0.8147 0.0
N1149 N 0.10955 0.90923 0.86036 0.0
C1150 C 0.12149 0.89692 0.9044 0.0
C1151 C 0.13787 0.88096 0.87944 0.0
loop_
_geom_bond_atom_site_label_1
_geom_bond_atom_site_label_2
_geom_bond_distance
_geom_bond_site_symmetry_2
_ccdc_geom_bond_type
O0 Cd1 2.223 . S
O0 C8 1.315 . S
Cd1 O0 2.223 . S
Cd1 O4 2.297 . S
Cd1 O5 2.439 . S
Cd1 O11 2.240 . S
Cd2 O3 2.240 . S
Cd2 O10 2.223 . S
Cd2 O12 2.297 1_554 S
Cd2 O13 2.439 1_554 S
O3 Cd2 2.240 . S
O3 C8 1.279 . S
O4 Cd1 2.297 . S
O4 C6 1.247 . S
O5 Cd1 2.439 . S
O5 C6 1.208 . S
C6 O4 1.247 . S
C6 O5 1.208 . S
C7 O12 1.247 . S
C7 O13 1.208 . S
C8 O0 1.315 . S
C8 O3 1.279 . S
C9 O10 1.315 . S
C9 O11 1.279 . S
O10 Cd2 2.223 . S
O10 C9 1.315 . S
O11 Cd1 2.240 . S
O11 C9 1.279 . S
O12 Cd2 2.297 1_556 S
O12 C7 1.247 . S
O13 Cd2 2.439 1_556 S
O13 C7 1.208 . S
O14 Cd15 2.223 . S
O14 C22 1.315 . S
Cd15 O14 2.223 . S
Cd15 O18 2.297 . S
Cd15 O19 2.439 . S
Cd15 O25 2.240 . S
Cd16 O17 2.240 . S
Cd16 O24 2.223 . S
Cd16 O26 2.297 . S
Cd16 O27 2.439 . S
O17 Cd16 2.240 . S
O17 C22 1.279 . S
O18 Cd15 2.297 . S
O18 C20 1.247 . S
O19 Cd15 2.439 . S
O19 C20 1.208 . S
C20 O18 1.247 . S
C20 O19 1.208 . S
C21 O26 1.247 . S
C21 O27 1.208 . S
C22 O14 1.315 . S
C22 O17 1.279 . S
C23 O24 1.315 . S
C23 O25 1.279 . S
O24 Cd16 2.223 . S
O24 C23 1.315 . S
O25 Cd15 2.240 . S
O25 C23 1.279 . S
O26 Cd16 2.297 . S
O26 C21 1.247 . S
O27 Cd16 2.439 . S
O27 C21 1.208 . S
O28 Cd29 2.223 . S
O28 C36 1.315 . S
Cd29 O28 2.223 . S
Cd29 O32 2.297 . S
Cd29 O33 2.439 . S
Cd29 O39 2.240 . S
Cd30 O31 2.240 . S
Cd30 O38 2.223 . S
Cd30 O40 2.297 . S
Cd30 O41 2.439 . S
O31 Cd30 2.240 . S
O31 C36 1.279 . S
O32 Cd29 2.297 . S
O32 C34 1.247 . S
O33 Cd29 2.439 . S
O33 C34 1.208 . S
C34 O32 1.247 . S
C34 O33 1.208 . S
C35 O40 1.247 . S
C35 O41 1.208 . S
C36 O28 1.315 . S
C36 O31 1.279 . S
C37 O38 1.315 . S
C37 O39 1.279 . S
O38 Cd30 2.223 . S
O38 C37 1.315 . S
O39 Cd29 2.240 . S
O39 C37 1.279 . S
O40 Cd30 2.297 . S
O40 C35 1.247 . S
O41 Cd30 2.439 . S
O41 C35 1.208 . S
O42 Cd43 2.223 . S
O42 C50 1.315 . S
Cd43 O42 2.223 . S
Cd43 O46 2.297 . S
Cd43 O47 2.439 . S
Cd43 O53 2.240 . S
Cd44 O45 2.240 . S
Cd44 O52 2.223 . S
Cd44 O54 2.297 . S
Cd44 O55 2.439 . S
O45 Cd44 2.240 . S
O45 C50 1.279 . S
O46 Cd43 2.297 . S
O46 C48 1.247 . S
O47 Cd43 2.439 . S
O47 C48 1.208 . S
C48 O46 1.247 . S
C48 O47 1.208 . S
C49 O54 1.247 . S
C49 O55 1.208 . S
C50 O42 1.315 . S
C50 O45 1.279 . S
C51 O52 1.315 . S
C51 O53 1.279 . S
O52 Cd44 2.223 . S
O52 C51 1.315 . S
O53 Cd43 2.240 . S
O53 C51 1.279 . S
O54 Cd44 2.297 . S
O54 C49 1.247 . S
O55 Cd44 2.439 . S
O55 C49 1.208 . S
O56 Cd57 2.223 . S
O56 C64 1.315 . S
Cd57 O56 2.223 . S
Cd57 O60 2.297 . S
Cd57 O61 2.439 . S
Cd57 O67 2.240 . S
Cd58 O59 2.240 . S
Cd58 O66 2.223 . S
Cd58 O68 2.297 . S
Cd58 O69 2.439 . S
O59 Cd58 2.240 . S
O59 C64 1.279 . S
O60 Cd57 2.297 . S
O60 C62 1.247 . S
O61 Cd57 2.439 . S
O61 C62 1.208 . S
C62 O60 1.247 . S
C62 O61 1.208 . S
C63 O68 1.247 . S
C63 O69 1.208 . S
C64 O56 1.315 . S
C64 O59 1.279 . S
C65 O66 1.315 . S
C65 O67 1.279 . S
O66 Cd58 2.223 . S
O66 C65 1.315 . S
O67 Cd57 2.240 . S
O67 C65 1.279 . S
O68 Cd58 2.297 . S
O68 C63 1.247 . S
O69 Cd58 2.439 . S
O69 C63 1.208 . S
O70 Cd71 2.223 . S
O70 C78 1.315 . S
Cd71 O70 2.223 . S
Cd71 O74 2.297 . S
Cd71 O75 2.439 . S
Cd71 O81 2.240 . S
Cd72 O73 2.240 . S
Cd72 O80 2.223 . S
Cd72 O82 2.297 . S
Cd72 O83 2.439 . S
O73 Cd72 2.240 . S
O73 C78 1.279 . S
O74 Cd71 2.297 . S
O74 C76 1.247 . S
O75 Cd71 2.439 . S
O75 C76 1.208 . S
C76 O74 1.247 . S
C76 O75 1.208 . S
C77 O82 1.247 . S
C77 O83 1.208 . S
C78 O70 1.315 . S
C78 O73 1.279 . S
C79 O80 1.315 . S
C79 O81 1.279 . S
O80 Cd72 2.223 . S
O80 C79 1.315 . S
O81 Cd71 2.240 . S
O81 C79 1.279 . S
O82 Cd72 2.297 . S
O82 C77 1.247 . S
O83 Cd72 2.439 . S
O83 C77 1.208 . S
O84 Cd85 2.223 . S
O84 C92 1.315 . S
Cd85 O84 2.223 . S
Cd85 O88 2.297 . S
Cd85 O89 2.439 1_556 S
Cd85 O95 2.240 1_556 S
Cd86 O87 2.240 1_554 S
Cd86 O94 2.223 . S
Cd86 O96 2.297 . S
Cd86 O97 2.439 . S
O87 Cd86 2.240 1_556 S
O87 C92 1.279 . S
O88 Cd85 2.297 . S
O88 C90 1.247 . S
O89 Cd85 2.439 1_554 S
O89 C90 1.208 1_554 S
C90 O88 1.247 . S
C90 O89 1.208 1_556 S
C91 O96 1.247 . S
C91 O97 1.208 . S
C92 O84 1.315 . S
C92 O87 1.279 . S
C93 O94 1.315 . S
C93 O95 1.279 . S
O94 Cd86 2.223 . S
O94 C93 1.315 . S
O95 Cd85 2.240 1_554 S
O95 C93 1.279 . S
O96 Cd86 2.297 . S
O96 C91 1.247 . S
O97 Cd86 2.439 . S
O97 C91 1.208 . S
O98 Cd99 2.223 . S
O98 C106 1.315 . S
Cd99 O98 2.223 . S
Cd99 O102 2.297 . S
Cd99 O103 2.439 . S
Cd99 O109 2.240 . S
Cd100 O101 2.240 . S
Cd100 O108 2.223 . S
Cd100 O110 2.297 . S
Cd100 O111 2.439 . S
O101 Cd100 2.240 . S
O101 C106 1.279 . S
O102 Cd99 2.297 . S
O102 C104 1.247 . S
O103 Cd99 2.439 . S
O103 C104 1.208 . S
C104 O102 1.247 . S
C104 O103 1.208 . S
C105 O110 1.247 . S
C105 O111 1.208 . S
C106 O98 1.315 . S
C106 O101 1.279 . S
C107 O108 1.315 . S
C107 O109 1.279 . S
O108 Cd100 2.223 . S
O108 C107 1.315 . S
O109 Cd99 2.240 . S
O109 C107 1.279 . S
O110 Cd100 2.297 . S
O110 C105 1.247 . S
O111 Cd100 2.439 . S
O111 C105 1.208 . S
O112 Cd113 2.223 . S
O112 C120 1.315 . S
Cd113 O112 2.223 . S
Cd113 O116 2.297 . S
Cd113 O117 2.439 1_556 S
Cd113 O123 2.240 1_556 S
Cd114 O115 2.240 1_554 S
Cd114 O122 2.223 . S
Cd114 O124 2.297 . S
Cd114 O125 2.439 . S
O115 Cd114 2.240 1_556 S
O115 C120 1.279 . S
O116 Cd113 2.297 . S
O116 C118 1.247 . S
O117 Cd113 2.439 1_554 S
O117 C118 1.208 1_554 S
C118 O116 1.247 . S
C118 O117 1.208 1_556 S
C119 O124 1.247 . S
C119 O125 1.208 . S
C120 O112 1.315 . S
C120 O115 1.279 . S
C121 O122 1.315 . S
C121 O123 1.279 . S
O122 Cd114 2.223 . S
O122 C121 1.315 . S
O123 Cd113 2.240 1_554 S
O123 C121 1.279 . S
O124 Cd114 2.297 . S
O124 C119 1.247 . S
O125 Cd114 2.439 . S
O125 C119 1.208 . S
O126 Cd127 2.223 . S
O126 C134 1.315 . S
Cd127 O126 2.223 . S
Cd127 O130 2.297 . S
Cd127 O131 2.439 . S
Cd127 O137 2.240 . S
Cd128 O129 2.240 . S
Cd128 O136 2.223 . S
Cd128 O138 2.297 . S
Cd128 O139 2.439 . S
O129 Cd128 2.240 . S
O129 C134 1.279 . S
O130 Cd127 2.297 . S
O130 C132 1.247 . S
O131 Cd127 2.439 . S
O131 C132 1.208 . S
C132 O130 1.247 . S
C132 O131 1.208 . S
C133 O138 1.247 . S
C133 O139 1.208 . S
C134 O126 1.315 . S
C134 O129 1.279 . S
C135 O136 1.315 . S
C135 O137 1.279 . S
O136 Cd128 2.223 . S
O136 C135 1.315 . S
O137 Cd127 2.240 . S
O137 C135 1.279 . S
O138 Cd128 2.297 . S
O138 C133 1.247 . S
O139 Cd128 2.439 . S
O139 C133 1.208 . S
O140 Cd141 2.223 . S
O140 C148 1.315 . S
Cd141 O140 2.223 . S
Cd141 O144 2.297 . S
Cd141 O145 2.439 . S
Cd141 O151 2.240 . S
Cd142 O143 2.240 . S
Cd142 O150 2.223 . S
Cd142 O152 2.297 . S
Cd142 O153 2.439 . S
O143 Cd142 2.240 . S
O143 C148 1.279 . S
O144 Cd141 2.297 . S
O144 C146 1.247 . S
O145 Cd141 2.439 . S
O145 C146 1.208 . S
C146 O144 1.247 . S
C146 O145 1.208 . S
C147 O152 1.247 . S
C147 O153 1.208 . S
C148 O140 1.315 . S
C148 O143 1.279 . S
C149 O150 1.315 . S
C149 O151 1.279 . S
O150 Cd142 2.223 . S
O150 C149 1.315 . S
O151 Cd141 2.240 . S
O151 C149 1.279 . S
O152 Cd142 2.297 . S
O152 C147 1.247 . S
O153 Cd142 2.439 . S
O153 C147 1.208 . S
O154 Cd155 2.223 . S
O154 C162 1.315 . S
Cd155 O154 2.223 . S
Cd155 O158 2.297 . S
Cd155 O159 2.439 . S
Cd155 O165 2.240 . S
Cd156 O157 2.240 . S
Cd156 O164 2.223 . S
Cd156 O166 2.297 . S
Cd156 O167 2.439 . S
O157 Cd156 2.240 . S
O157 C162 1.279 . S
O158 Cd155 2.297 . S
O158 C160 1.247 . S
O159 Cd155 2.439 . S
O159 C160 1.208 . S
C160 O158 1.247 . S
C160 O159 1.208 . S
C161 O166 1.247 . S
C161 O167 1.208 . S
C162 O154 1.315 . S
C162 O157 1.279 . S
C163 O164 1.315 . S
C163 O165 1.279 . S
O164 Cd156 2.223 . S
O164 C163 1.315 . S
O165 Cd155 2.240 . S
O165 C163 1.279 . S
O166 Cd156 2.297 . S
O166 C161 1.247 . S
O167 Cd156 2.439 . S
O167 C161 1.208 . S
O168 Cd169 2.223 . S
O168 C176 1.315 . S
Cd169 O168 2.223 . S
Cd169 O172 2.297 . S
Cd169 O173 2.439 . S
Cd169 O179 2.240 . S
Cd170 O171 2.240 . S
Cd170 O178 2.223 . S
Cd170 O180 2.297 . S
Cd170 O181 2.439 . S
O171 Cd170 2.240 . S
O171 C176 1.279 . S
O172 Cd169 2.297 . S
O172 C174 1.247 . S
O173 Cd169 2.439 . S
O173 C174 1.208 . S
C174 O172 1.247 . S
C174 O173 1.208 . S
C175 O180 1.247 . S
C175 O181 1.208 . S
C176 O168 1.315 . S
C176 O171 1.279 . S
C177 O178 1.315 . S
C177 O179 1.279 . S
O178 Cd170 2.223 . S
O178 C177 1.315 . S
O179 Cd169 2.240 . S
O179 C177 1.279 . S
O180 Cd170 2.297 . S
O180 C175 1.247 . S
O181 Cd170 2.439 . S
O181 C175 1.208 . S
O182 Cd183 2.223 . S
O182 C190 1.315 . S
Cd183 O182 2.223 . S
Cd183 O186 2.297 . S
Cd183 O187 2.439 . S
Cd183 O193 2.240 . S
Cd184 O185 2.240 . S
Cd184 O192 2.223 . S
Cd184 O194 2.297 . S
Cd184 O195 2.439 . S
O185 Cd184 2.240 . S
O185 C190 1.279 . S
O186 Cd183 2.297 . S
O186 C188 1.247 . S
O187 Cd183 2.439 . S
O187 C188 1.208 . S
C188 O186 1.247 . S
C188 O187 1.208 . S
C189 O194 1.247 . S
C189 O195 1.208 . S
C190 O182 1.315 . S
C190 O185 1.279 . S
C191 O192 1.315 . S
C191 O193 1.279 . S
O192 Cd184 2.223 . S
O192 C191 1.315 . S
O193 Cd183 2.240 . S
O193 C191 1.279 . S
O194 Cd184 2.297 . S
O194 C189 1.247 . S
O195 Cd184 2.439 . S
O195 C189 1.208 . S
O196 Cd197 2.223 . S
O196 C204 1.315 . S
Cd197 O196 2.223 . S
Cd197 O200 2.297 . S
Cd197 O201 2.439 . S
Cd197 O207 2.240 . S
Cd198 O199 2.240 . S
Cd198 O206 2.223 . S
Cd198 O208 2.297 1_554 S
Cd198 O209 2.439 1_554 S
O199 Cd198 2.240 . S
O199 C204 1.279 . S
O200 Cd197 2.297 . S
O200 C202 1.247 . S
O201 Cd197 2.439 . S
O201 C202 1.208 . S
C202 O200 1.247 . S
C202 O201 1.208 . S
C203 O208 1.247 . S
C203 O209 1.208 . S
C204 O196 1.315 . S
C204 O199 1.279 . S
C205 O206 1.315 . S
C205 O207 1.279 . S
O206 Cd198 2.223 . S
O206 C205 1.315 . S
O207 Cd197 2.240 . S
O207 C205 1.279 . S
O208 Cd198 2.297 1_556 S
O208 C203 1.247 . S
O209 Cd198 2.439 1_556 S
O209 C203 1.208 . S
O210 Cd211 2.223 . S
O210 C218 1.315 . S
Cd211 O210 2.223 . S
Cd211 O214 2.297 . S
Cd211 O215 2.439 . S
Cd211 O221 2.240 . S
Cd212 O213 2.240 . S
Cd212 O220 2.223 . S
Cd212 O222 2.297 . S
Cd212 O223 2.439 . S
O213 Cd212 2.240 . S
O213 C218 1.279 . S
O214 Cd211 2.297 . S
O214 C216 1.247 . S
O215 Cd211 2.439 . S
O215 C216 1.208 . S
C216 O214 1.247 . S
C216 O215 1.208 . S
C217 O222 1.247 . S
C217 O223 1.208 . S
C218 O210 1.315 . S
C218 O213 1.279 . S
C219 O220 1.315 . S
C219 O221 1.279 . S
O220 Cd212 2.223 . S
O220 C219 1.315 . S
O221 Cd211 2.240 . S
O221 C219 1.279 . S
O222 Cd212 2.297 . S
O222 C217 1.247 . S
O223 Cd212 2.439 . S
O223 C217 1.208 . S
O224 Cd225 2.223 . S
O224 C232 1.315 . S
Cd225 O224 2.223 . S
Cd225 O228 2.297 . S
Cd225 O229 2.439 . S
Cd225 O235 2.240 . S
Cd226 O227 2.240 1_545 S
Cd226 O234 2.223 . S
Cd226 O236 2.297 . S
Cd226 O237 2.439 1_545 S
O227 Cd226 2.240 1_565 S
O227 C232 1.279 . S
O228 Cd225 2.297 . S
O228 C230 1.247 . S
O229 Cd225 2.439 . S
O229 C230 1.208 . S
C230 O228 1.247 . S
C230 O229 1.208 . S
C231 O236 1.247 1_565 S
C231 O237 1.208 . S
C232 O224 1.315 . S
C232 O227 1.279 . S
C233 O234 1.315 1_565 S
C233 O235 1.279 . S
O234 Cd226 2.223 . S
O234 C233 1.315 1_545 S
O235 Cd225 2.240 . S
O235 C233 1.279 . S
O236 Cd226 2.297 . S
O236 C231 1.247 1_545 S
O237 Cd226 2.439 1_565 S
O237 C231 1.208 . S
O238 Cd239 2.223 . S
O238 C246 1.315 . S
Cd239 O238 2.223 . S
Cd239 O242 2.297 . S
Cd239 O243 2.439 . S
Cd239 O249 2.240 . S
Cd240 O241 2.240 . S
Cd240 O248 2.223 . S
Cd240 O250 2.297 . S
Cd240 O251 2.439 . S
O241 Cd240 2.240 . S
O241 C246 1.279 . S
O242 Cd239 2.297 . S
O242 C244 1.247 . S
O243 Cd239 2.439 . S
O243 C244 1.208 . S
C244 O242 1.247 . S
C244 O243 1.208 . S
C245 O250 1.247 . S
C245 O251 1.208 . S
C246 O238 1.315 . S
C246 O241 1.279 . S
C247 O248 1.315 . S
C247 O249 1.279 . S
O248 Cd240 2.223 . S
O248 C247 1.315 . S
O249 Cd239 2.240 . S
O249 C247 1.279 . S
O250 Cd240 2.297 . S
O250 C245 1.247 . S
O251 Cd240 2.439 . S
O251 C245 1.208 . S
O252 Cd253 2.223 . S
O252 C260 1.315 . S
Cd253 O252 2.223 . S
Cd253 O256 2.297 . S
Cd253 O257 2.439 . S
Cd253 O263 2.240 . S
Cd254 O255 2.240 1_565 S
Cd254 O262 2.223 . S
Cd254 O264 2.297 1_554 S
Cd254 O265 2.439 1_564 S
O255 Cd254 2.240 1_545 S
O255 C260 1.279 . S
O256 Cd253 2.297 . S
O256 C258 1.247 . S
O257 Cd253 2.439 . S
O257 C258 1.208 . S
C258 O256 1.247 . S
C258 O257 1.208 . S
C259 O264 1.247 1_545 S
C259 O265 1.208 . S
C260 O252 1.315 . S
C260 O255 1.279 . S
C261 O262 1.315 1_545 S
C261 O263 1.279 . S
O262 Cd254 2.223 . S
O262 C261 1.315 1_565 S
O263 Cd253 2.240 . S
O263 C261 1.279 . S
O264 Cd254 2.297 1_556 S
O264 C259 1.247 1_565 S
O265 Cd254 2.439 1_546 S
O265 C259 1.208 . S
O266 Cd267 2.223 . S
O266 C274 1.315 . S
Cd267 O266 2.223 . S
Cd267 O270 2.297 . S
Cd267 O271 2.439 . S
Cd267 O277 2.240 . S
Cd268 O269 2.240 . S
Cd268 O276 2.223 . S
Cd268 O278 2.297 . S
Cd268 O279 2.439 . S
O269 Cd268 2.240 . S
O269 C274 1.279 . S
O270 Cd267 2.297 . S
O270 C272 1.247 . S
O271 Cd267 2.439 . S
O271 C272 1.208 . S
C272 O270 1.247 . S
C272 O271 1.208 . S
C273 O278 1.247 . S
C273 O279 1.208 . S
C274 O266 1.315 . S
C274 O269 1.279 . S
C275 O276 1.315 . S
C275 O277 1.279 . S
O276 Cd268 2.223 . S
O276 C275 1.315 . S
O277 Cd267 2.240 . S
O277 C275 1.279 . S
O278 Cd268 2.297 . S
O278 C273 1.247 . S
O279 Cd268 2.439 . S
O279 C273 1.208 . S
O280 Cd281 2.223 . S
O280 C288 1.315 . S
Cd281 O280 2.223 . S
Cd281 O284 2.297 . S
Cd281 O285 2.439 1_556 S
Cd281 O291 2.240 1_556 S
Cd282 O283 2.240 1_564 S
Cd282 O290 2.223 . S
Cd282 O292 2.297 . S
Cd282 O293 2.439 1_565 S
O283 Cd282 2.240 1_546 S
O283 C288 1.279 . S
O284 Cd281 2.297 . S
O284 C286 1.247 . S
O285 Cd281 2.439 1_554 S
O285 C286 1.208 1_554 S
C286 O284 1.247 . S
C286 O285 1.208 1_556 S
C287 O292 1.247 1_545 S
C287 O293 1.208 . S
C288 O280 1.315 . S
C288 O283 1.279 . S
C289 O290 1.315 1_545 S
C289 O291 1.279 . S
O290 Cd282 2.223 . S
O290 C289 1.315 1_565 S
O291 Cd281 2.240 1_554 S
O291 C289 1.279 . S
O292 Cd282 2.297 . S
O292 C287 1.247 1_565 S
O293 Cd282 2.439 1_545 S
O293 C287 1.208 . S
O294 Cd295 2.223 . S
O294 C302 1.315 . S
Cd295 O294 2.223 . S
Cd295 O298 2.297 . S
Cd295 O299 2.439 . S
Cd295 O305 2.240 . S
Cd296 O297 2.240 . S
Cd296 O304 2.223 . S
Cd296 O306 2.297 . S
Cd296 O307 2.439 . S
O297 Cd296 2.240 . S
O297 C302 1.279 . S
O298 Cd295 2.297 . S
O298 C300 1.247 . S
O299 Cd295 2.439 . S
O299 C300 1.208 . S
C300 O298 1.247 . S
C300 O299 1.208 . S
C301 O306 1.247 . S
C301 O307 1.208 . S
C302 O294 1.315 . S
C302 O297 1.279 . S
C303 O304 1.315 . S
C303 O305 1.279 . S
O304 Cd296 2.223 . S
O304 C303 1.315 . S
O305 Cd295 2.240 . S
O305 C303 1.279 . S
O306 Cd296 2.297 . S
O306 C301 1.247 . S
O307 Cd296 2.439 . S
O307 C301 1.208 . S
O308 Cd309 2.223 . S
O308 C316 1.315 . S
Cd309 O308 2.223 . S
Cd309 O312 2.297 . S
Cd309 O313 2.439 . S
Cd309 O319 2.240 . S
Cd310 O311 2.240 1_545 S
Cd310 O318 2.223 . S
Cd310 O320 2.297 . S
Cd310 O321 2.439 1_545 S
O311 Cd310 2.240 1_565 S
O311 C316 1.279 . S
O312 Cd309 2.297 . S
O312 C314 1.247 . S
O313 Cd309 2.439 . S
O313 C314 1.208 . S
C314 O312 1.247 . S
C314 O313 1.208 . S
C315 O320 1.247 1_565 S
C315 O321 1.208 . S
C316 O308 1.315 . S
C316 O311 1.279 . S
C317 O318 1.315 1_565 S
C317 O319 1.279 . S
O318 Cd310 2.223 . S
O318 C317 1.315 1_545 S
O319 Cd309 2.240 . S
O319 C317 1.279 . S
O320 Cd310 2.297 . S
O320 C315 1.247 1_545 S
O321 Cd310 2.439 1_565 S
O321 C315 1.208 . S
O322 Cd323 2.223 . S
O322 C330 1.315 . S
Cd323 O322 2.223 . S
Cd323 O326 2.297 . S
Cd323 O327 2.439 . S
Cd323 O333 2.240 . S
Cd324 O325 2.240 . S
Cd324 O332 2.223 . S
Cd324 O334 2.297 . S
Cd324 O335 2.439 . S
O325 Cd324 2.240 . S
O325 C330 1.279 . S
O326 Cd323 2.297 . S
O326 C328 1.247 . S
O327 Cd323 2.439 . S
O327 C328 1.208 . S
C328 O326 1.247 . S
C328 O327 1.208 . S
C329 O334 1.247 . S
C329 O335 1.208 . S
C330 O322 1.315 . S
C330 O325 1.279 . S
C331 O332 1.315 . S
C331 O333 1.279 . S
O332 Cd324 2.223 . S
O332 C331 1.315 . S
O333 Cd323 2.240 . S
O333 C331 1.279 . S
O334 Cd324 2.297 . S
O334 C329 1.247 . S
O335 Cd324 2.439 . S
O335 C329 1.208 . S
O336 Cd337 2.223 . S
O336 C344 1.315 . S
Cd337 O336 2.223 . S
Cd337 O340 2.297 . S
Cd337 O341 2.439 . S
Cd337 O347 2.240 . S
Cd338 O339 2.240 1_565 S
Cd338 O346 2.223 . S
Cd338 O348 2.297 . S
Cd338 O349 2.439 1_565 S
O339 Cd338 2.240 1_545 S
O339 C344 1.279 . S
O340 Cd337 2.297 . S
O340 C342 1.247 . S
O341 Cd337 2.439 . S
O341 C342 1.208 . S
C342 O340 1.247 . S
C342 O341 1.208 . S
C343 O348 1.247 1_545 S
C343 O349 1.208 . S
C344 O336 1.315 . S
C344 O339 1.279 . S
C345 O346 1.315 1_545 S
C345 O347 1.279 . S
O346 Cd338 2.223 . S
O346 C345 1.315 1_565 S
O347 Cd337 2.240 . S
O347 C345 1.279 . S
O348 Cd338 2.297 . S
O348 C343 1.247 1_565 S
O349 Cd338 2.439 1_545 S
O349 C343 1.208 . S
O350 Cd351 2.223 . S
O350 C358 1.315 . S
Cd351 O350 2.223 . S
Cd351 O354 2.297 . S
Cd351 O355 2.439 . S
Cd351 O361 2.240 . S
Cd352 O353 2.240 . S
Cd352 O360 2.223 . S
Cd352 O362 2.297 . S
Cd352 O363 2.439 . S
O353 Cd352 2.240 . S
O353 C358 1.279 . S
O354 Cd351 2.297 . S
O354 C356 1.247 . S
O355 Cd351 2.439 . S
O355 C356 1.208 . S
C356 O354 1.247 . S
C356 O355 1.208 . S
C357 O362 1.247 . S
C357 O363 1.208 . S
C358 O350 1.315 . S
C358 O353 1.279 . S
C359 O360 1.315 . S
C359 O361 1.279 . S
O360 Cd352 2.223 . S
O360 C359 1.315 . S
O361 Cd351 2.240 . S
O361 C359 1.279 . S
O362 Cd352 2.297 . S
O362 C357 1.247 . S
O363 Cd352 2.439 . S
O363 C357 1.208 . S
O364 Cd365 2.223 . S
O364 C372 1.315 . S
Cd365 O364 2.223 . S
Cd365 O368 2.297 . S
Cd365 O369 2.439 1_556 S
Cd365 O375 2.240 1_556 S
Cd366 O367 2.240 1_544 S
Cd366 O374 2.223 . S
Cd366 O376 2.297 . S
Cd366 O377 2.439 1_545 S
O367 Cd366 2.240 1_566 S
O367 C372 1.279 . S
O368 Cd365 2.297 . S
O368 C370 1.247 . S
O369 Cd365 2.439 1_554 S
O369 C370 1.208 1_554 S
C370 O368 1.247 . S
C370 O369 1.208 1_556 S
C371 O376 1.247 1_565 S
C371 O377 1.208 . S
C372 O364 1.315 . S
C372 O367 1.279 . S
C373 O374 1.315 1_565 S
C373 O375 1.279 . S
O374 Cd366 2.223 . S
O374 C373 1.315 1_545 S
O375 Cd365 2.240 1_554 S
O375 C373 1.279 . S
O376 Cd366 2.297 . S
O376 C371 1.247 1_545 S
O377 Cd366 2.439 1_565 S
O377 C371 1.208 . S
O378 Cd379 2.223 . S
O378 C386 1.315 . S
Cd379 O378 2.223 . S
Cd379 O382 2.297 . S
Cd379 O383 2.439 . S
Cd379 O389 2.240 . S
Cd380 O381 2.240 . S
Cd380 O388 2.223 . S
Cd380 O390 2.297 . S
Cd380 O391 2.439 . S
O381 Cd380 2.240 . S
O381 C386 1.279 . S
O382 Cd379 2.297 . S
O382 C384 1.247 . S
O383 Cd379 2.439 . S
O383 C384 1.208 . S
C384 O382 1.247 . S
C384 O383 1.208 . S
C385 O390 1.247 . S
C385 O391 1.208 . S
C386 O378 1.315 . S
C386 O381 1.279 . S
C387 O388 1.315 . S
C387 O389 1.279 . S
O388 Cd380 2.223 . S
O388 C387 1.315 . S
O389 Cd379 2.240 . S
O389 C387 1.279 . S
O390 Cd380 2.297 . S
O390 C385 1.247 . S
O391 Cd380 2.439 . S
O391 C385 1.208 . S
O392 Cd393 2.223 . S
O392 C400 1.315 . S
Cd393 O392 2.223 . S
Cd393 O396 2.297 . S
Cd393 O397 2.439 . S
Cd393 O403 2.240 . S
Cd394 O395 2.240 1_545 S
Cd394 O402 2.223 . S
Cd394 O404 2.297 1_554 S
Cd394 O405 2.439 1_544 S
O395 Cd394 2.240 1_565 S
O395 C400 1.279 . S
O396 Cd393 2.297 . S
O396 C398 1.247 . S
O397 Cd393 2.439 . S
O397 C398 1.208 . S
C398 O396 1.247 . S
C398 O397 1.208 . S
C399 O404 1.247 1_565 S
C399 O405 1.208 . S
C400 O392 1.315 . S
C400 O395 1.279 . S
C401 O402 1.315 1_565 S
C401 O403 1.279 . S
O402 Cd394 2.223 . S
O402 C401 1.315 1_545 S
O403 Cd393 2.240 . S
O403 C401 1.279 . S
O404 Cd394 2.297 1_556 S
O404 C399 1.247 1_545 S
O405 Cd394 2.439 1_566 S
O405 C399 1.208 . S
O406 Cd407 2.223 . S
O406 C414 1.315 . S
Cd407 O406 2.223 . S
Cd407 O410 2.297 . S
Cd407 O411 2.439 . S
Cd407 O417 2.240 . S
Cd408 O409 2.240 . S
Cd408 O416 2.223 . S
Cd408 O418 2.297 . S
Cd408 O419 2.439 . S
O409 Cd408 2.240 . S
O409 C414 1.279 . S
O410 Cd407 2.297 . S
O410 C412 1.247 . S
O411 Cd407 2.439 . S
O411 C412 1.208 . S
C412 O410 1.247 . S
C412 O411 1.208 . S
C413 O418 1.247 . S
C413 O419 1.208 . S
C414 O406 1.315 . S
C414 O409 1.279 . S
C415 O416 1.315 . S
C415 O417 1.279 . S
O416 Cd408 2.223 . S
O416 C415 1.315 . S
O417 Cd407 2.240 . S
O417 C415 1.279 . S
O418 Cd408 2.297 . S
O418 C413 1.247 . S
O419 Cd408 2.439 . S
O419 C413 1.208 . S
O420 Cd421 2.223 . S
O420 C428 1.315 . S
Cd421 O420 2.223 . S
Cd421 O424 2.297 . S
Cd421 O425 2.439 . S
Cd421 O431 2.240 . S
Cd422 O423 2.240 1_565 S
Cd422 O430 2.223 . S
Cd422 O432 2.297 . S
Cd422 O433 2.439 1_565 S
O423 Cd422 2.240 1_545 S
O423 C428 1.279 . S
O424 Cd421 2.297 . S
O424 C426 1.247 . S
O425 Cd421 2.439 . S
O425 C426 1.208 . S
C426 O424 1.247 . S
C426 O425 1.208 . S
C427 O432 1.247 1_545 S
C427 O433 1.208 . S
C428 O420 1.315 . S
C428 O423 1.279 . S
C429 O430 1.315 1_545 S
C429 O431 1.279 . S
O430 Cd422 2.223 . S
O430 C429 1.315 1_565 S
O431 Cd421 2.240 . S
O431 C429 1.279 . S
O432 Cd422 2.297 . S
O432 C427 1.247 1_565 S
O433 Cd422 2.439 1_545 S
O433 C427 1.208 . S
O434 Cd435 2.223 . S
O434 C442 1.315 . S
Cd435 O434 2.223 . S
Cd435 O438 2.297 . S
Cd435 O439 2.439 . S
Cd435 O445 2.240 . S
Cd436 O437 2.240 . S
Cd436 O444 2.223 . S
Cd436 O446 2.297 . S
Cd436 O447 2.439 . S
O437 Cd436 2.240 . S
O437 C442 1.279 . S
O438 Cd435 2.297 . S
O438 C440 1.247 . S
O439 Cd435 2.439 . S
O439 C440 1.208 . S
C440 O438 1.247 . S
C440 O439 1.208 . S
C441 O446 1.247 . S
C441 O447 1.208 . S
C442 O434 1.315 . S
C442 O437 1.279 . S
C443 O444 1.315 . S
C443 O445 1.279 . S
O444 Cd436 2.223 . S
O444 C443 1.315 . S
O445 Cd435 2.240 . S
O445 C443 1.279 . S
O446 Cd436 2.297 . S
O446 C441 1.247 . S
O447 Cd436 2.439 . S
O447 C441 1.208 . S
C448 C449 1.369 . S
C448 C450 1.419 1_655 S
C448 H452 0.930 . S
C449 C448 1.369 . S
C449 C458 1.460 . S
C450 C448 1.419 1_455 S
C450 C451 1.363 . S
C450 H453 0.929 . S
C451 C450 1.363 . S
C451 C457 1.428 . S
H452 C448 0.930 . S
H453 C450 0.929 . S
S454 N455 1.613 . S
S454 N456 1.610 . S
N455 S454 1.613 . S
N455 C458 1.347 1_455 S
N456 S454 1.610 . S
N456 C457 1.351 . S
C457 C451 1.428 . S
C457 N456 1.351 . S
C457 C458 1.402 1_455 S
C458 C449 1.460 . S
C458 N455 1.347 1_655 S
C458 C457 1.402 1_655 S
C459 C460 1.369 . S
C459 C461 1.419 . S
C459 H463 0.930 . S
C460 C459 1.369 . S
C460 C469 1.429 . S
C461 C459 1.419 . S
C461 C462 1.363 . S
C461 H464 0.929 . S
C462 C461 1.363 . S
C462 C468 1.428 . S
H463 C459 0.930 . S
H464 C461 0.929 . S
S465 N466 1.613 . S
S465 N467 1.610 . S
N466 S465 1.613 . S
N466 C469 1.350 . S
N467 S465 1.610 . S
N467 C468 1.351 . S
C468 C462 1.428 . S
C468 N467 1.351 . S
C468 C469 1.434 . S
C469 C460 1.429 . S
C469 N466 1.350 . S
C469 C468 1.434 . S
C470 C471 1.369 . S
C470 C472 1.419 . S
C470 H474 0.930 . S
C471 C470 1.369 . S
C471 C480 1.429 . S
C472 C470 1.419 . S
C472 C473 1.363 . S
C472 H475 0.929 . S
C473 C472 1.363 . S
C473 C479 1.428 . S
H474 C470 0.930 . S
H475 C472 0.929 . S
S476 N477 1.613 . S
S476 N478 1.610 . S
N477 S476 1.613 . S
N477 C480 1.350 . S
N478 S476 1.610 . S
N478 C479 1.351 . S
C479 C473 1.428 . S
C479 N478 1.351 . S
C479 C480 1.434 . S
C480 C471 1.429 . S
C480 N477 1.350 . S
C480 C479 1.434 . S
C481 C482 1.369 . S
C481 C483 1.419 . S
C481 H485 0.930 . S
C482 C481 1.369 . S
C482 C491 1.429 . S
C483 C481 1.419 . S
C483 C484 1.363 . S
C483 H486 0.929 . S
C484 C483 1.363 . S
C484 C490 1.428 . S
H485 C481 0.930 . S
H486 C483 0.929 . S
S487 N488 1.613 . S
S487 N489 1.610 . S
N488 S487 1.613 . S
N488 C491 1.350 . S
N489 S487 1.610 . S
N489 C490 1.351 . S
C490 C484 1.428 . S
C490 N489 1.351 . S
C490 C491 1.434 . S
C491 C482 1.429 . S
C491 N488 1.350 . S
C491 C490 1.434 . S
C492 C493 1.369 . S
C492 C494 1.419 1_455 S
C492 H496 0.930 . S
C493 C492 1.369 . S
C493 C502 1.429 . S
C494 C492 1.419 1_655 S
C494 C495 1.363 . S
C494 H497 0.929 . S
C495 C494 1.363 . S
C495 C501 1.428 . S
H496 C492 0.930 . S
H497 C494 0.929 . S
S498 N499 1.617 1_655 S
S498 N500 1.610 . S
N499 S498 1.617 1_455 S
N499 C502 1.350 . S
N500 S498 1.610 . S
N500 C501 1.351 . S
C501 C495 1.428 . S
C501 N500 1.351 . S
C501 C502 1.434 1_655 S
C502 C493 1.429 . S
C502 N499 1.350 . S
C502 C501 1.434 1_455 S
C503 C504 1.369 . S
C503 C505 1.419 . S
C503 H507 0.930 . S
C504 C503 1.369 . S
C504 C513 1.429 . S
C505 C503 1.419 . S
C505 C506 1.363 . S
C505 H508 0.929 . S
C506 C505 1.363 . S
C506 C512 1.428 . S
H507 C503 0.930 . S
H508 C505 0.929 . S
S509 N510 1.613 . S
S509 N511 1.610 . S
N510 S509 1.613 . S
N510 C513 1.350 . S
N511 S509 1.610 . S
N511 C512 1.351 . S
C512 C506 1.428 . S
C512 N511 1.351 . S
C512 C513 1.434 . S
C513 C504 1.429 . S
C513 N510 1.350 . S
C513 C512 1.434 . S
C514 C515 1.369 . S
C514 C516 1.419 . S
C514 H518 0.930 . S
C515 C514 1.369 . S
C515 C524 1.444 . S
C516 C514 1.419 . S
C516 C517 1.363 . S
C516 H519 0.929 . S
C517 C516 1.363 . S
C517 C523 1.428 1_554 S
H518 C514 0.930 . S
H519 C516 0.929 . S
S520 N521 1.613 . S
S520 N522 1.610 . S
N521 S520 1.613 . S
N521 C524 1.337 1_556 S
N522 S520 1.610 . S
N522 C523 1.351 . S
C523 C517 1.428 1_556 S
C523 N522 1.351 . S
C523 C524 1.430 1_556 S
C524 C515 1.444 . S
C524 N521 1.337 1_554 S
C524 C523 1.430 1_554 S
C525 C526 1.369 . S
C525 C527 1.419 . S
C525 H529 0.930 . S
C526 C525 1.369 . S
C526 C535 1.429 . S
C527 C525 1.419 . S
C527 C528 1.363 . S
C527 H530 0.929 . S
C528 C527 1.363 . S
C528 C534 1.428 . S
H529 C525 0.930 . S
H530 C527 0.929 . S
S531 N532 1.613 . S
S531 N533 1.610 . S
N532 S531 1.613 . S
N532 C535 1.350 . S
N533 S531 1.610 . S
N533 C534 1.351 . S
C534 C528 1.428 . S
C534 N533 1.351 . S
C534 C535 1.434 . S
C535 C526 1.429 . S
C535 N532 1.350 . S
C535 C534 1.434 . S
C536 C537 1.369 . S
C536 C538 1.419 . S
C536 H540 0.930 . S
C537 C536 1.369 . S
C537 C546 1.429 . S
C538 C536 1.419 . S
C538 C539 1.363 . S
C538 H541 0.929 . S
C539 C538 1.363 . S
C539 C545 1.428 . S
H540 C536 0.930 . S
H541 C538 0.929 . S
S542 N543 1.613 . S
S542 N544 1.610 . S
N543 S542 1.613 . S
N543 C546 1.350 . S
N544 S542 1.610 . S
N544 C545 1.351 . S
C545 C539 1.428 . S
C545 N544 1.351 . S
C545 C546 1.434 . S
C546 C537 1.429 . S
C546 N543 1.350 . S
C546 C545 1.434 . S
C547 C548 1.369 . S
C547 C549 1.419 . S
C547 H551 0.930 . S
C548 C547 1.369 . S
C548 C557 1.429 . S
C549 C547 1.419 . S
C549 C550 1.363 . S
C549 H552 0.929 . S
C550 C549 1.363 . S
C550 C556 1.428 . S
H551 C547 0.930 . S
H552 C549 0.929 . S
S553 N554 1.613 . S
S553 N555 1.610 . S
N554 S553 1.613 . S
N554 C557 1.350 . S
N555 S553 1.610 . S
N555 C556 1.351 . S
C556 C550 1.428 . S
C556 N555 1.351 . S
C556 C557 1.434 . S
C557 C548 1.429 . S
C557 N554 1.350 . S
C557 C556 1.434 . S
C558 C559 1.369 . S
C558 C560 1.419 . S
C558 H562 0.930 . S
C559 C558 1.369 . S
C559 C568 1.429 . S
C560 C558 1.419 . S
C560 C561 1.363 . S
C560 H563 0.929 . S
C561 C560 1.363 . S
C561 C567 1.428 . S
H562 C558 0.930 . S
H563 C560 0.929 . S
S564 N565 1.613 . S
S564 N566 1.610 . S
N565 S564 1.613 . S
N565 C568 1.350 . S
N566 S564 1.610 . S
N566 C567 1.351 . S
C567 C561 1.428 . S
C567 N566 1.351 . S
C567 C568 1.434 . S
C568 C559 1.429 . S
C568 N565 1.350 . S
C568 C567 1.434 . S
C569 C570 1.369 . S
C569 C571 1.419 . S
C569 H573 0.930 . S
C570 C569 1.369 . S
C570 C579 1.429 . S
C571 C569 1.419 . S
C571 C572 1.363 . S
C571 H574 0.929 . S
C572 C571 1.363 . S
C572 C578 1.428 . S
H573 C569 0.930 . S
H574 C571 0.929 . S
S575 N576 1.613 . S
S575 N577 1.610 . S
N576 S575 1.613 . S
N576 C579 1.350 . S
N577 S575 1.610 . S
N577 C578 1.351 . S
C578 C572 1.428 . S
C578 N577 1.351 . S
C578 C579 1.434 . S
C579 C570 1.429 . S
C579 N576 1.350 . S
C579 C578 1.434 . S
C580 C581 1.369 1_565 S
C580 C582 1.419 . S
C580 H584 0.930 . S
C581 C580 1.369 1_545 S
C581 C590 1.429 . S
C582 C580 1.419 . S
C582 C583 1.363 . S
C582 H585 0.929 . S
C583 C582 1.363 . S
C583 C589 1.428 1_565 S
H584 C580 0.930 . S
H585 C582 0.929 . S
S586 N587 1.613 . S
S586 N588 1.610 . S
N587 S586 1.613 . S
N587 C590 1.350 . S
N588 S586 1.610 . S
N588 C589 1.351 . S
C589 C583 1.428 1_545 S
C589 N588 1.351 . S
C589 C590 1.434 . S
C590 C581 1.429 . S
C590 N587 1.350 . S
C590 C589 1.434 . S
C591 C592 1.369 . S
C591 C593 1.419 1_655 S
C591 H595 0.932 . S
C592 C591 1.369 . S
C592 C601 1.429 1_545 S
C593 C591 1.419 1_455 S
C593 C594 1.363 1_545 S
C593 H596 0.929 . S
C594 C593 1.363 1_565 S
C594 C600 1.449 . S
H595 C591 0.932 . S
H596 C593 0.929 . S
S597 N598 1.613 . S
S597 N599 1.610 . S
N598 S597 1.613 . S
N598 C601 1.350 . S
N599 S597 1.610 . S
N599 C600 1.349 1_655 S
C600 C594 1.449 . S
C600 N599 1.349 1_455 S
C600 C601 1.413 1_455 S
C601 C592 1.429 1_565 S
C601 N598 1.350 . S
C601 C600 1.413 1_655 S
C602 C603 1.369 1_565 S
C602 C604 1.419 . S
C602 H606 0.930 1_554 S
C603 C602 1.369 1_545 S
C603 C612 1.429 . S
C604 C602 1.419 . S
C604 C605 1.363 . S
C604 H607 0.929 1_554 S
C605 C604 1.363 . S
C605 C611 1.428 1_565 S
H606 C602 0.930 1_556 S
H607 C604 0.929 1_556 S
S608 N609 1.613 . S
S608 N610 1.610 . S
N609 S608 1.613 . S
N609 C612 1.350 . S
N610 S608 1.610 . S
N610 C611 1.351 . S
C611 C605 1.428 1_545 S
C611 N610 1.351 . S
C611 C612 1.434 . S
C612 C603 1.429 . S
C612 N609 1.350 . S
C612 C611 1.434 . S
C613 C614 1.369 1_565 S
C613 C615 1.422 1_455 S
C613 H617 0.930 . S
C614 C613 1.369 1_545 S
C614 C623 1.384 1_455 S
C615 C613 1.422 1_655 S
C615 C616 1.359 . S
C615 H618 0.927 1_655 S
C616 C615 1.359 . S
C616 C622 1.428 1_565 S
H617 C613 0.930 . S
H618 C615 0.927 1_455 S
S619 N620 1.613 . S
S619 N621 1.610 . S
N620 S619 1.613 . S
N620 C623 1.359 . S
N621 S619 1.610 . S
N621 C622 1.351 . S
C622 C616 1.428 1_545 S
C622 N621 1.351 . S
C622 C623 1.476 . S
C623 C614 1.384 1_655 S
C623 N620 1.359 . S
C623 C622 1.476 . S
C624 C625 1.369 . S
C624 C626 1.419 . S
C624 H628 0.930 . S
C625 C624 1.369 . S
C625 C634 1.429 . S
C626 C624 1.419 . S
C626 C627 1.363 . S
C626 H629 0.929 . S
C627 C626 1.363 . S
C627 C633 1.428 . S
H628 C624 0.930 . S
H629 C626 0.929 . S
S630 N631 1.613 . S
S630 N632 1.610 . S
N631 S630 1.613 . S
N631 C634 1.350 . S
N632 S630 1.610 . S
N632 C633 1.351 . S
C633 C627 1.428 . S
C633 N632 1.351 . S
C633 C634 1.434 . S
C634 C625 1.429 . S
C634 N631 1.350 . S
C634 C633 1.434 . S
C635 C636 1.369 1_554 S
C635 C637 1.419 . S
C635 H639 0.926 1_554 S
C636 C635 1.369 1_556 S
C636 C645 1.429 1_556 S
C637 C635 1.419 . S
C637 C638 1.363 . S
C637 H640 0.929 . S
C638 C637 1.363 . S
C638 C644 1.428 . S
H639 C635 0.926 1_556 S
H640 C637 0.929 . S
S641 N642 1.613 1_554 S
S641 N643 1.610 . S
N642 S641 1.613 1_556 S
N642 C645 1.350 1_556 S
N643 S641 1.610 . S
N643 C644 1.351 . S
C644 C638 1.428 . S
C644 N643 1.351 . S
C644 C645 1.434 . S
C645 C636 1.429 1_554 S
C645 N642 1.350 1_554 S
C645 C644 1.434 . S
C646 C647 1.369 . S
C646 C648 1.419 . S
C646 H650 0.930 . S
C647 C646 1.369 . S
C647 C656 1.429 . S
C648 C646 1.419 . S
C648 C649 1.363 . S
C648 H651 0.929 . S
C649 C648 1.363 . S
C649 C655 1.428 . S
H650 C646 0.930 . S
H651 C648 0.929 . S
S652 N653 1.613 . S
S652 N654 1.610 . S
N653 S652 1.613 . S
N653 C656 1.350 . S
N654 S652 1.610 . S
N654 C655 1.351 . S
C655 C649 1.428 . S
C655 N654 1.351 . S
C655 C656 1.434 . S
C656 C647 1.429 . S
C656 N653 1.350 . S
C656 C655 1.434 . S
C657 C658 1.369 . S
C657 C659 1.419 . S
C657 H661 0.930 . S
C658 C657 1.369 . S
C658 C667 1.429 . S
C659 C657 1.419 . S
C659 C660 1.363 . S
C659 H662 0.929 . S
C660 C659 1.363 . S
C660 C666 1.428 . S
H661 C657 0.930 . S
H662 C659 0.929 . S
S663 N664 1.613 . S
S663 N665 1.610 . S
N664 S663 1.613 . S
N664 C667 1.350 . S
N665 S663 1.610 . S
N665 C666 1.351 . S
C666 C660 1.428 . S
C666 N665 1.351 . S
C666 C667 1.434 . S
C667 C658 1.429 . S
C667 N664 1.350 . S
C667 C666 1.434 . S
C668 C669 1.369 . S
C668 C670 1.419 . S
C668 H672 0.930 . S
C669 C668 1.369 . S
C669 C678 1.429 . S
C670 C668 1.419 . S
C670 C671 1.363 . S
C670 H673 0.929 . S
C671 C670 1.363 . S
C671 C677 1.428 . S
H672 C668 0.930 . S
H673 C670 0.929 . S
S674 N675 1.613 . S
S674 N676 1.610 . S
N675 S674 1.613 . S
N675 C678 1.350 . S
N676 S674 1.610 . S
N676 C677 1.351 . S
C677 C671 1.428 . S
C677 N676 1.351 . S
C677 C678 1.434 . S
C678 C669 1.429 . S
C678 N675 1.350 . S
C678 C677 1.434 . S
C679 C680 1.369 1_554 S
C679 C681 1.419 . S
C679 H683 0.930 1_554 S
C680 C679 1.369 1_556 S
C680 C689 1.429 1_556 S
C681 C679 1.419 . S
C681 C682 1.363 . S
C681 H684 0.929 . S
C682 C681 1.363 . S
C682 C688 1.428 . S
H683 C679 0.930 1_556 S
H684 C681 0.929 . S
S685 N686 1.613 . S
S685 N687 1.610 . S
N686 S685 1.613 . S
N686 C689 1.350 . S
N687 S685 1.610 . S
N687 C688 1.351 . S
C688 C682 1.428 . S
C688 N687 1.351 . S
C688 C689 1.434 . S
C689 C680 1.429 1_554 S
C689 N686 1.350 . S
C689 C688 1.434 . S
C690 C691 1.369 . S
C690 C692 1.419 . S
C690 H694 0.930 . S
C691 C690 1.369 . S
C691 C700 1.429 . S
C692 C690 1.419 . S
C692 C693 1.363 . S
C692 H695 0.929 . S
C693 C692 1.363 . S
C693 C699 1.428 . S
H694 C690 0.930 . S
H695 C692 0.929 . S
S696 N697 1.613 . S
S696 N698 1.610 . S
N697 S696 1.613 . S
N697 C700 1.350 . S
N698 S696 1.610 . S
N698 C699 1.351 . S
C699 C693 1.428 . S
C699 N698 1.351 . S
C699 C700 1.434 . S
C700 C691 1.429 . S
C700 N697 1.350 . S
C700 C699 1.434 . S
C701 C702 1.369 . S
C701 C703 1.419 . S
C701 H705 0.930 . S
C702 C701 1.369 . S
C702 C711 1.429 . S
C703 C701 1.419 . S
C703 C704 1.363 . S
C703 H706 0.929 . S
C704 C703 1.363 . S
C704 C710 1.428 . S
H705 C701 0.930 . S
H706 C703 0.929 . S
S707 N708 1.613 . S
S707 N709 1.610 . S
N708 S707 1.613 . S
N708 C711 1.350 . S
N709 S707 1.610 . S
N709 C710 1.351 . S
C710 C704 1.428 . S
C710 N709 1.351 . S
C710 C711 1.434 . S
C711 C702 1.429 . S
C711 N708 1.350 . S
C711 C710 1.434 . S
C712 C713 1.369 . S
C712 C714 1.419 . S
C712 H716 0.930 . S
C713 C712 1.369 . S
C713 C722 1.429 1_545 S
C714 C712 1.419 . S
C714 C715 1.363 1_545 S
C714 H717 0.929 . S
C715 C714 1.363 1_565 S
C715 C721 1.428 . S
H716 C712 0.930 . S
H717 C714 0.929 . S
S718 N719 1.613 . S
S718 N720 1.610 . S
N719 S718 1.613 . S
N719 C722 1.350 . S
N720 S718 1.610 . S
N720 C721 1.351 . S
C721 C715 1.428 . S
C721 N720 1.351 . S
C721 C722 1.434 . S
C722 C713 1.429 1_565 S
C722 N719 1.350 . S
C722 C721 1.434 . S
C723 C724 1.369 . S
C723 C725 1.419 . S
C723 H727 0.930 . S
C724 C723 1.369 . S
C724 C733 1.429 . S
C725 C723 1.419 . S
C725 C726 1.363 . S
C725 H728 0.929 . S
C726 C725 1.363 . S
C726 C732 1.428 . S
H727 C723 0.930 . S
H728 C725 0.929 . S
S729 N730 1.613 . S
S729 N731 1.610 . S
N730 S729 1.613 . S
N730 C733 1.350 . S
N731 S729 1.610 . S
N731 C732 1.351 . S
C732 C726 1.428 . S
C732 N731 1.351 . S
C732 C733 1.434 . S
C733 C724 1.429 . S
C733 N730 1.350 . S
C733 C732 1.434 . S
C734 C735 1.369 1_565 S
C734 C736 1.419 . S
C734 H738 0.930 . S
C735 C734 1.369 1_545 S
C735 C744 1.429 . S
C736 C734 1.419 . S
C736 C737 1.363 . S
C736 H739 0.929 . S
C737 C736 1.363 . S
C737 C743 1.428 1_565 S
H738 C734 0.930 . S
H739 C736 0.929 . S
S740 N741 1.613 . S
S740 N742 1.610 . S
N741 S740 1.613 . S
N741 C744 1.350 . S
N742 S740 1.610 . S
N742 C743 1.351 . S
C743 C737 1.428 1_545 S
C743 N742 1.351 . S
C743 C744 1.434 . S
C744 C735 1.429 . S
C744 N741 1.350 . S
C744 C743 1.434 . S
C745 C746 1.369 1_554 S
C745 C747 1.419 . S
C745 H749 0.930 . S
C746 C745 1.369 1_556 S
C746 C755 1.429 1_556 S
C747 C745 1.419 . S
C747 C748 1.363 . S
C747 H750 0.929 . S
C748 C747 1.363 . S
C748 C754 1.428 . S
H749 C745 0.930 . S
H750 C747 0.929 . S
S751 N752 1.613 1_554 S
S751 N753 1.610 . S
N752 S751 1.613 1_556 S
N752 C755 1.350 1_556 S
N753 S751 1.610 . S
N753 C754 1.351 . S
C754 C748 1.428 . S
C754 N753 1.351 . S
C754 C755 1.434 . S
C755 C746 1.429 1_554 S
C755 N752 1.350 1_554 S
C755 C754 1.434 . S
C756 C757 1.369 . S
C756 C758 1.419 . S
C756 H760 0.930 . S
C757 C756 1.369 . S
C757 C766 1.429 1_565 S
C758 C756 1.419 . S
C758 C759 1.363 1_565 S
C758 H761 0.929 . S
C759 C758 1.363 1_545 S
C759 C765 1.428 . S
H760 C756 0.930 . S
H761 C758 0.929 . S
S762 N763 1.613 . S
S762 N764 1.610 . S
N763 S762 1.613 . S
N763 C766 1.350 . S
N764 S762 1.610 . S
N764 C765 1.351 . S
C765 C759 1.428 . S
C765 N764 1.351 . S
C765 C766 1.434 . S
C766 C757 1.429 1_545 S
C766 N763 1.350 . S
C766 C765 1.434 . S
C767 C768 1.369 . S
C767 C769 1.419 . S
C767 H771 0.930 . S
C768 C767 1.369 . S
C768 C777 1.429 . S
C769 C767 1.419 . S
C769 C770 1.363 . S
C769 H772 0.929 . S
C770 C769 1.363 . S
C770 C776 1.428 . S
H771 C767 0.930 . S
H772 C769 0.929 . S
S773 N774 1.613 . S
S773 N775 1.610 . S
N774 S773 1.613 . S
N774 C777 1.350 . S
N775 S773 1.610 . S
N775 C776 1.351 . S
C776 C770 1.428 . S
C776 N775 1.351 . S
C776 C777 1.434 . S
C777 C768 1.429 . S
C777 N774 1.350 . S
C777 C776 1.434 . S
C778 C779 1.369 1_565 S
C778 C780 1.419 . S
C778 H782 0.930 . S
C779 C778 1.369 1_545 S
C779 C788 1.429 . S
C780 C778 1.419 . S
C780 C781 1.363 . S
C780 H783 0.929 . S
C781 C780 1.363 . S
C781 C787 1.428 1_565 S
H782 C778 0.930 . S
H783 C780 0.929 . S
S784 N785 1.613 . S
S784 N786 1.610 . S
N785 S784 1.613 . S
N785 C788 1.350 . S
N786 S784 1.610 . S
N786 C787 1.351 . S
C787 C781 1.428 1_545 S
C787 N786 1.351 . S
C787 C788 1.434 . S
C788 C779 1.429 . S
C788 N785 1.350 . S
C788 C787 1.434 . S
C789 C790 1.369 . S
C789 C791 1.419 . S
C789 H793 0.930 . S
C790 C789 1.369 . S
C790 C799 1.429 . S
C791 C789 1.419 . S
C791 C792 1.363 1_554 S
C791 H794 0.929 . S
C792 C791 1.363 1_556 S
C792 C798 1.428 1_556 S
H793 C789 0.930 . S
H794 C791 0.929 . S
S795 N796 1.613 . S
S795 N797 1.610 1_554 S
N796 S795 1.613 . S
N796 C799 1.350 . S
N797 S795 1.610 1_556 S
N797 C798 1.351 1_556 S
C798 C792 1.428 1_554 S
C798 N797 1.351 1_554 S
C798 C799 1.434 . S
C799 C790 1.429 . S
C799 N796 1.350 . S
C799 C798 1.434 . S
C800 C801 1.369 . S
C800 C802 1.419 . S
C800 H804 0.930 . S
C801 C800 1.369 . S
C801 C810 1.429 . S
C802 C800 1.419 . S
C802 C803 1.363 . S
C802 H805 0.929 . S
C803 C802 1.363 . S
C803 C809 1.428 . S
H804 C800 0.930 . S
H805 C802 0.929 . S
S806 N807 1.613 . S
S806 N808 1.610 . S
N807 S806 1.613 . S
N807 C810 1.350 . S
N808 S806 1.610 . S
N808 C809 1.351 . S
C809 C803 1.428 . S
C809 N808 1.351 . S
C809 C810 1.434 . S
C810 C801 1.429 . S
C810 N807 1.350 . S
C810 C809 1.434 . S
C811 C812 1.369 . S
C811 C813 1.419 . S
C811 H815 0.930 . S
C812 C811 1.369 . S
C812 C821 1.429 . S
C813 C811 1.419 . S
C813 C814 1.363 . S
C813 H816 0.929 . S
C814 C813 1.363 . S
C814 C820 1.428 . S
H815 C811 0.930 . S
H816 C813 0.929 . S
S817 N818 1.613 . S
S817 N819 1.610 . S
N818 S817 1.613 . S
N818 C821 1.350 . S
N819 S817 1.610 . S
N819 C820 1.351 . S
C820 C814 1.428 . S
C820 N819 1.351 . S
C820 C821 1.434 . S
C821 C812 1.429 . S
C821 N818 1.350 . S
C821 C820 1.434 . S
C822 C823 1.369 . S
C822 C824 1.419 . S
C822 H826 0.930 . S
C823 C822 1.369 . S
C823 C832 1.429 . S
C824 C822 1.419 . S
C824 C825 1.363 . S
C824 H827 0.929 . S
C825 C824 1.363 . S
C825 C831 1.428 . S
H826 C822 0.930 . S
H827 C824 0.929 . S
S828 N829 1.613 . S
S828 N830 1.610 . S
N829 S828 1.613 . S
N829 C832 1.350 . S
N830 S828 1.610 . S
N830 C831 1.351 . S
C831 C825 1.428 . S
C831 N830 1.351 . S
C831 C832 1.434 . S
C832 C823 1.429 . S
C832 N829 1.350 . S
C832 C831 1.434 . S
C833 C834 1.369 . S
C833 C835 1.419 . S
C833 H837 0.930 . S
C834 C833 1.369 . S
C834 C843 1.429 . S
C835 C833 1.419 . S
C835 C836 1.363 1_554 S
C835 H838 0.929 . S
C836 C835 1.363 1_556 S
C836 C842 1.428 1_556 S
H837 C833 0.930 . S
H838 C835 0.929 . S
S839 N840 1.613 . S
S839 N841 1.610 1_554 S
N840 S839 1.613 . S
N840 C843 1.350 . S
N841 S839 1.610 1_556 S
N841 C842 1.351 1_556 S
C842 C836 1.428 1_554 S
C842 N841 1.351 1_554 S
C842 C843 1.434 . S
C843 C834 1.429 . S
C843 N840 1.350 . S
C843 C842 1.434 . S
C844 C845 1.369 . S
C844 C846 1.419 . S
C844 H848 0.930 . S
C845 C844 1.369 . S
C845 C854 1.429 . S
C846 C844 1.419 . S
C846 C847 1.363 . S
C846 H849 0.929 . S
C847 C846 1.363 . S
C847 C853 1.428 . S
H848 C844 0.930 . S
H849 C846 0.929 . S
S850 N851 1.613 . S
S850 N852 1.610 . S
N851 S850 1.613 . S
N851 C854 1.350 . S
N852 S850 1.610 . S
N852 C853 1.351 . S
C853 C847 1.428 . S
C853 N852 1.351 . S
C853 C854 1.434 . S
C854 C845 1.429 . S
C854 N851 1.350 . S
C854 C853 1.434 . S
C855 C856 1.369 . S
C855 C857 1.419 . S
C855 H859 0.930 . S
C856 C855 1.369 . S
C856 C865 1.429 . S
C857 C855 1.419 . S
C857 C858 1.363 . S
C857 H860 0.929 . S
C858 C857 1.363 . S
C858 C864 1.428 . S
H859 C855 0.930 . S
H860 C857 0.929 . S
S861 N862 1.613 . S
S861 N863 1.610 . S
N862 S861 1.613 . S
N862 C865 1.350 . S
N863 S861 1.610 . S
N863 C864 1.351 . S
C864 C858 1.428 . S
C864 N863 1.351 . S
C864 C865 1.434 . S
C865 C856 1.429 . S
C865 N862 1.350 . S
C865 C864 1.434 . S
C866 C867 1.369 . S
C866 C868 1.419 . S
C866 H870 0.930 . S
C867 C866 1.369 . S
C867 C876 1.429 . S
C868 C866 1.419 . S
C868 C869 1.363 . S
C868 H871 0.929 . S
C869 C868 1.363 . S
C869 C875 1.428 . S
H870 C866 0.930 . S
H871 C868 0.929 . S
S872 N873 1.613 . S
S872 N874 1.610 . S
N873 S872 1.613 . S
N873 C876 1.350 . S
N874 S872 1.610 . S
N874 C875 1.351 . S
C875 C869 1.428 . S
C875 N874 1.351 . S
C875 C876 1.434 . S
C876 C867 1.429 . S
C876 N873 1.350 . S
C876 C875 1.434 . S
C877 C878 1.369 1_554 S
C877 C879 1.419 . S
C877 H881 0.930 . S
C878 C877 1.369 1_556 S
C878 C887 1.429 1_556 S
C879 C877 1.419 . S
C879 C880 1.363 . S
C879 H882 0.929 . S
C880 C879 1.363 . S
C880 C886 1.428 . S
H881 C877 0.930 . S
H882 C879 0.929 . S
S883 N884 1.613 1_554 S
S883 N885 1.610 . S
N884 S883 1.613 1_556 S
N884 C887 1.350 1_556 S
N885 S883 1.610 . S
N885 C886 1.351 . S
C886 C880 1.428 . S
C886 N885 1.351 . S
C886 C887 1.434 . S
C887 C878 1.429 1_554 S
C887 N884 1.350 1_554 S
C887 C886 1.434 . S
C888 C889 1.369 1_545 S
C888 C890 1.419 . S
C888 H892 0.930 . S
C889 C888 1.369 1_565 S
C889 C898 1.429 . S
C890 C888 1.419 . S
C890 C891 1.363 . S
C890 H893 0.929 . S
C891 C890 1.363 . S
C891 C897 1.428 1_545 S
H892 C888 0.930 . S
H893 C890 0.929 . S
S894 N895 1.613 . S
S894 N896 1.610 . S
N895 S894 1.613 . S
N895 C898 1.350 . S
N896 S894 1.610 . S
N896 C897 1.351 . S
C897 C891 1.428 1_565 S
C897 N896 1.351 . S
C897 C898 1.434 . S
C898 C889 1.429 . S
C898 N895 1.350 . S
C898 C897 1.434 . S
C899 C900 1.369 . S
C899 C901 1.419 . S
C899 H903 0.930 . S
C900 C899 1.369 . S
C900 C909 1.429 . S
C901 C899 1.419 . S
C901 C902 1.363 1_554 S
C901 H904 0.929 . S
C902 C901 1.363 1_556 S
C902 C908 1.428 1_556 S
H903 C899 0.930 . S
H904 C901 0.929 . S
S905 N906 1.613 . S
S905 N907 1.610 1_554 S
N906 S905 1.613 . S
N906 C909 1.350 . S
N907 S905 1.610 1_556 S
N907 C908 1.351 1_556 S
C908 C902 1.428 1_554 S
C908 N907 1.351 1_554 S
C908 C909 1.434 . S
C909 C900 1.429 . S
C909 N906 1.350 . S
C909 C908 1.434 . S
C910 C911 1.369 . S
C910 C912 1.419 . S
C910 H914 0.930 . S
C911 C910 1.369 . S
C911 C920 1.429 1_565 S
C912 C910 1.419 . S
C912 C913 1.363 1_565 S
C912 H915 0.929 . S
C913 C912 1.363 1_545 S
C913 C919 1.428 . S
H914 C910 0.930 . S
H915 C912 0.929 . S
S916 N917 1.613 . S
S916 N918 1.610 . S
N917 S916 1.613 . S
N917 C920 1.350 . S
N918 S916 1.610 . S
N918 C919 1.351 . S
C919 C913 1.428 . S
C919 N918 1.351 . S
C919 C920 1.434 . S
C920 C911 1.429 1_545 S
C920 N917 1.350 . S
C920 C919 1.434 . S
C921 C922 1.369 . S
C921 C923 1.419 . S
C921 H925 0.930 . S
C922 C921 1.369 . S
C922 C931 1.429 . S
C923 C921 1.419 . S
C923 C924 1.363 . S
C923 H926 0.929 . S
C924 C923 1.363 . S
C924 C930 1.428 . S
H925 C921 0.930 . S
H926 C923 0.929 . S
S927 N928 1.613 . S
S927 N929 1.610 . S
N928 S927 1.613 . S
N928 C931 1.350 . S
N929 S927 1.610 . S
N929 C930 1.351 . S
C930 C924 1.428 . S
C930 N929 1.351 . S
C930 C931 1.434 . S
C931 C922 1.429 . S
C931 N928 1.350 . S
C931 C930 1.434 . S
C932 C933 1.369 . S
C932 C934 1.419 . S
C932 H936 0.930 . S
C933 C932 1.369 . S
C933 C942 1.429 1_565 S
C934 C932 1.419 . S
C934 C935 1.363 1_565 S
C934 H937 0.929 . S
C935 C934 1.363 1_545 S
C935 C941 1.428 . S
H936 C932 0.930 . S
H937 C934 0.929 . S
S938 N939 1.613 . S
S938 N940 1.610 . S
N939 S938 1.613 . S
N939 C942 1.350 . S
N940 S938 1.610 . S
N940 C941 1.351 . S
C941 C935 1.428 . S
C941 N940 1.351 . S
C941 C942 1.434 . S
C942 C933 1.429 1_545 S
C942 N939 1.350 . S
C942 C941 1.434 . S
C943 C944 1.369 . S
C943 C945 1.419 . S
C943 H947 0.930 . S
C944 C943 1.369 . S
C944 C953 1.429 . S
C945 C943 1.419 . S
C945 C946 1.363 1_554 S
C945 H948 0.929 . S
C946 C945 1.363 1_556 S
C946 C952 1.428 1_556 S
H947 C943 0.930 . S
H948 C945 0.929 . S
S949 N950 1.613 . S
S949 N951 1.610 1_554 S
N950 S949 1.613 . S
N950 C953 1.350 . S
N951 S949 1.610 1_556 S
N951 C952 1.351 1_556 S
C952 C946 1.428 1_554 S
C952 N951 1.351 1_554 S
C952 C953 1.434 . S
C953 C944 1.429 . S
C953 N950 1.350 . S
C953 C952 1.434 . S
C954 C955 1.369 1_545 S
C954 C956 1.419 . S
C954 H958 0.930 . S
C955 C954 1.369 1_565 S
C955 C964 1.429 . S
C956 C954 1.419 . S
C956 C957 1.363 . S
C956 H959 0.929 . S
C957 C956 1.363 . S
C957 C963 1.428 1_545 S
H958 C954 0.930 . S
H959 C956 0.929 . S
S960 N961 1.613 . S
S960 N962 1.610 . S
N961 S960 1.613 . S
N961 C964 1.350 . S
N962 S960 1.610 . S
N962 C963 1.351 . S
C963 C957 1.428 1_565 S
C963 N962 1.351 . S
C963 C964 1.434 . S
C964 C955 1.429 . S
C964 N961 1.350 . S
C964 C963 1.434 . S
C965 C966 1.369 . S
C965 C967 1.419 . S
C965 H969 0.930 . S
C966 C965 1.369 . S
C966 C975 1.429 . S
C967 C965 1.419 . S
C967 C968 1.363 . S
C967 H970 0.929 . S
C968 C967 1.363 . S
C968 C974 1.428 . S
H969 C965 0.930 . S
H970 C967 0.929 . S
S971 N972 1.613 . S
S971 N973 1.610 . S
N972 S971 1.613 . S
N972 C975 1.350 . S
N973 S971 1.610 . S
N973 C974 1.351 . S
C974 C968 1.428 . S
C974 N973 1.351 . S
C974 C975 1.434 . S
C975 C966 1.429 . S
C975 N972 1.350 . S
C975 C974 1.434 . S
C976 C977 1.369 . S
C976 C978 1.419 . S
C976 H980 0.930 . S
C977 C976 1.369 . S
C977 C986 1.429 . S
C978 C976 1.419 . S
C978 C979 1.363 . S
C978 H981 0.929 . S
C979 C978 1.363 . S
C979 C985 1.428 . S
H980 C976 0.930 . S
H981 C978 0.929 . S
S982 N983 1.613 . S
S982 N984 1.610 . S
N983 S982 1.613 . S
N983 C986 1.350 . S
N984 S982 1.610 . S
N984 C985 1.351 . S
C985 C979 1.428 . S
C985 N984 1.351 . S
C985 C986 1.434 . S
C986 C977 1.429 . S
C986 N983 1.350 . S
C986 C985 1.434 . S
C987 C988 1.369 . S
C987 C989 1.419 . S
C987 H991 0.930 . S
C988 C987 1.369 . S
C988 C997 1.429 . S
C989 C987 1.419 . S
C989 C990 1.363 . S
C989 H992 0.929 . S
C990 C989 1.363 . S
C990 C996 1.428 . S
H991 C987 0.930 . S
H992 C989 0.929 . S
S993 N994 1.613 . S
S993 N995 1.610 . S
N994 S993 1.613 . S
N994 C997 1.350 . S
N995 S993 1.610 . S
N995 C996 1.351 . S
C996 C990 1.428 . S
C996 N995 1.351 . S
C996 C997 1.434 . S
C997 C988 1.429 . S
C997 N994 1.350 . S
C997 C996 1.434 . S
C998 C999 1.369 . S
C998 C1000 1.419 . S
C998 H1002 0.930 . S
C999 C998 1.369 . S
C999 C1008 1.429 . S
C1000 C998 1.419 . S
C1000 C1001 1.363 . S
C1000 H1003 0.929 . S
C1001 C1000 1.363 . S
C1001 C1007 1.428 . S
H1002 C998 0.930 . S
H1003 C1000 0.929 . S
S1004 N1005 1.613 . S
S1004 N1006 1.610 . S
N1005 S1004 1.613 . S
N1005 C1008 1.350 . S
N1006 S1004 1.610 . S
N1006 C1007 1.351 . S
C1007 C1001 1.428 . S
C1007 N1006 1.351 . S
C1007 C1008 1.434 . S
C1008 C999 1.429 . S
C1008 N1005 1.350 . S
C1008 C1007 1.434 . S
C1009 C1010 1.369 . S
C1009 C1011 1.419 . S
C1009 H1013 0.930 . S
C1010 C1009 1.369 . S
C1010 C1019 1.429 . S
C1011 C1009 1.419 . S
C1011 C1012 1.363 . S
C1011 H1014 0.929 . S
C1012 C1011 1.363 . S
C1012 C1018 1.428 . S
H1013 C1009 0.930 . S
H1014 C1011 0.929 . S
S1015 N1016 1.613 1_554 S
S1015 N1017 1.610 . S
N1016 S1015 1.613 1_556 S
N1016 C1019 1.350 . S
N1017 S1015 1.610 . S
N1017 C1018 1.351 1_554 S
C1018 C1012 1.428 . S
C1018 N1017 1.351 1_556 S
C1018 C1019 1.434 . S
C1019 C1010 1.429 . S
C1019 N1016 1.350 . S
C1019 C1018 1.434 . S
C1020 C1021 1.369 . S
C1020 C1022 1.419 . S
C1020 H1024 0.930 . S
C1021 C1020 1.369 . S
C1021 C1030 1.429 . S
C1022 C1020 1.419 . S
C1022 C1023 1.363 . S
C1022 H1025 0.929 . S
C1023 C1022 1.363 . S
C1023 C1029 1.428 . S
H1024 C1020 0.930 . S
H1025 C1022 0.929 . S
S1026 N1027 1.613 . S
S1026 N1028 1.610 . S
N1027 S1026 1.613 . S
N1027 C1030 1.350 . S
N1028 S1026 1.610 . S
N1028 C1029 1.351 . S
C1029 C1023 1.428 . S
C1029 N1028 1.351 . S
C1029 C1030 1.434 . S
C1030 C1021 1.429 . S
C1030 N1027 1.350 . S
C1030 C1029 1.434 . S
C1031 C1032 1.369 . S
C1031 C1033 1.419 . S
C1031 H1035 0.930 . S
C1032 C1031 1.369 . S
C1032 C1041 1.429 . S
C1033 C1031 1.419 . S
C1033 C1034 1.363 . S
C1033 H1036 0.929 . S
C1034 C1033 1.363 . S
C1034 C1040 1.428 . S
H1035 C1031 0.930 . S
H1036 C1033 0.929 . S
S1037 N1038 1.613 . S
S1037 N1039 1.610 . S
N1038 S1037 1.613 . S
N1038 C1041 1.350 . S
N1039 S1037 1.610 . S
N1039 C1040 1.351 . S
C1040 C1034 1.428 . S
C1040 N1039 1.351 . S
C1040 C1041 1.434 . S
C1041 C1032 1.429 . S
C1041 N1038 1.350 . S
C1041 C1040 1.434 . S
C1042 C1043 1.369 . S
C1042 C1044 1.419 . S
C1042 H1046 0.930 . S
C1043 C1042 1.369 . S
C1043 C1052 1.429 . S
C1044 C1042 1.419 . S
C1044 C1045 1.363 . S
C1044 H1047 0.929 . S
C1045 C1044 1.363 . S
C1045 C1051 1.428 . S
H1046 C1042 0.930 . S
H1047 C1044 0.929 . S
S1048 N1049 1.600 1_554 S
S1048 N1050 1.612 . S
N1049 S1048 1.600 1_556 S
N1049 C1052 1.350 . S
N1050 S1048 1.612 . S
N1050 C1051 1.351 1_554 S
C1051 C1045 1.428 . S
C1051 N1050 1.351 1_556 S
C1051 C1052 1.434 . S
C1052 C1043 1.429 . S
C1052 N1049 1.350 . S
C1052 C1051 1.434 . S
C1053 C1054 1.369 . S
C1053 C1055 1.419 . S
C1053 H1057 0.930 . S
C1054 C1053 1.369 . S
C1054 C1063 1.429 . S
C1055 C1053 1.419 . S
C1055 C1056 1.363 . S
C1055 H1058 0.929 . S
C1056 C1055 1.363 . S
C1056 C1062 1.428 . S
H1057 C1053 0.930 . S
H1058 C1055 0.929 . S
S1059 N1060 1.613 . S
S1059 N1061 1.610 . S
N1060 S1059 1.613 . S
N1060 C1063 1.350 . S
N1061 S1059 1.610 . S
N1061 C1062 1.351 . S
C1062 C1056 1.428 . S
C1062 N1061 1.351 . S
C1062 C1063 1.434 . S
C1063 C1054 1.429 . S
C1063 N1060 1.350 . S
C1063 C1062 1.434 . S
C1064 C1065 1.369 . S
C1064 C1066 1.419 . S
C1064 H1068 0.943 . S
C1065 C1064 1.369 . S
C1065 C1074 1.429 . S
C1066 C1064 1.419 . S
C1066 C1067 1.363 . S
C1066 H1069 0.929 . S
C1067 C1066 1.363 . S
C1067 C1073 1.428 . S
H1068 C1064 0.943 . S
H1069 C1066 0.929 . S
S1070 N1071 1.613 . S
S1070 N1072 1.610 . S
N1071 S1070 1.613 . S
N1071 C1074 1.350 . S
N1072 S1070 1.610 . S
N1072 C1073 1.351 . S
C1073 C1067 1.428 . S
C1073 N1072 1.351 . S
C1073 C1074 1.434 . S
C1074 C1065 1.429 . S
C1074 N1071 1.350 . S
C1074 C1073 1.434 . S
C1075 C1076 1.369 . S
C1075 C1077 1.419 . S
C1075 H1079 0.930 . S
C1076 C1075 1.369 . S
C1076 C1085 1.429 . S
C1077 C1075 1.419 . S
C1077 C1078 1.363 . S
C1077 H1080 0.929 . S
C1078 C1077 1.363 . S
C1078 C1084 1.428 . S
H1079 C1075 0.930 . S
H1080 C1077 0.929 . S
S1081 N1082 1.613 . S
S1081 N1083 1.610 . S
N1082 S1081 1.613 . S
N1082 C1085 1.350 . S
N1083 S1081 1.610 . S
N1083 C1084 1.351 . S
C1084 C1078 1.428 . S
C1084 N1083 1.351 . S
C1084 C1085 1.434 . S
C1085 C1076 1.429 . S
C1085 N1082 1.350 . S
C1085 C1084 1.434 . S
C1086 C1087 1.369 . S
C1086 C1088 1.419 . S
C1086 H1090 0.930 . S
C1087 C1086 1.369 . S
C1087 C1096 1.429 . S
C1088 C1086 1.419 . S
C1088 C1089 1.363 . S
C1088 H1091 0.929 . S
C1089 C1088 1.363 . S
C1089 C1095 1.428 . S
H1090 C1086 0.930 . S
H1091 C1088 0.929 . S
S1092 N1093 1.613 . S
S1092 N1094 1.610 . S
N1093 S1092 1.613 . S
N1093 C1096 1.350 . S
N1094 S1092 1.610 . S
N1094 C1095 1.351 . S
C1095 C1089 1.428 . S
C1095 N1094 1.351 . S
C1095 C1096 1.434 . S
C1096 C1087 1.429 . S
C1096 N1093 1.350 . S
C1096 C1095 1.434 . S
C1097 C1098 1.369 . S
C1097 C1099 1.419 . S
C1097 H1101 0.930 . S
C1098 C1097 1.369 . S
C1098 C1107 1.429 . S
C1099 C1097 1.419 . S
C1099 C1100 1.363 . S
C1099 H1102 0.929 . S
C1100 C1099 1.363 . S
C1100 C1106 1.428 . S
H1101 C1097 0.930 . S
H1102 C1099 0.929 . S
S1103 N1104 1.613 . S
S1103 N1105 1.610 . S
N1104 S1103 1.613 . S
N1104 C1107 1.350 . S
N1105 S1103 1.610 . S
N1105 C1106 1.351 . S
C1106 C1100 1.428 . S
C1106 N1105 1.351 . S
C1106 C1107 1.434 . S
C1107 C1098 1.429 . S
C1107 N1104 1.350 . S
C1107 C1106 1.434 . S
C1108 C1109 1.369 . S
C1108 C1110 1.419 . S
C1108 H1112 0.930 . S
C1109 C1108 1.369 . S
C1109 C1118 1.429 . S
C1110 C1108 1.419 . S
C1110 C1111 1.363 . S
C1110 H1113 0.929 . S
C1111 C1110 1.363 . S
C1111 C1117 1.428 . S
H1112 C1108 0.930 . S
H1113 C1110 0.929 . S
S1114 N1115 1.613 . S
S1114 N1116 1.610 . S
N1115 S1114 1.613 . S
N1115 C1118 1.350 . S
N1116 S1114 1.610 . S
N1116 C1117 1.351 . S
C1117 C1111 1.428 . S
C1117 N1116 1.351 . S
C1117 C1118 1.434 . S
C1118 C1109 1.429 . S
C1118 N1115 1.350 . S
C1118 C1117 1.434 . S
C1119 C1120 1.369 . S
C1119 C1121 1.419 . S
C1119 H1123 0.930 . S
C1120 C1119 1.369 . S
C1120 C1129 1.429 . S
C1121 C1119 1.419 . S
C1121 C1122 1.363 . S
C1121 H1124 0.929 . S
C1122 C1121 1.363 . S
C1122 C1128 1.428 . S
H1123 C1119 0.930 . S
H1124 C1121 0.929 . S
S1125 N1126 1.613 . S
S1125 N1127 1.610 . S
N1126 S1125 1.613 . S
N1126 C1129 1.350 . S
N1127 S1125 1.610 . S
N1127 C1128 1.351 . S
C1128 C1122 1.428 . S
C1128 N1127 1.351 . S
C1128 C1129 1.434 . S
C1129 C1120 1.429 . S
C1129 N1126 1.350 . S
C1129 C1128 1.434 . S
C1130 C1131 1.369 . S
C1130 C1132 1.419 . S
C1130 H1134 0.930 . S
C1131 C1130 1.369 . S
C1131 C1140 1.429 . S
C1132 C1130 1.419 . S
C1132 C1133 1.363 . S
C1132 H1135 0.929 . S
C1133 C1132 1.363 . S
C1133 C1139 1.428 . S
H1134 C1130 0.930 . S
H1135 C1132 0.929 . S
S1136 N1137 1.613 . S
S1136 N1138 1.610 . S
N1137 S1136 1.613 . S
N1137 C1140 1.350 . S
N1138 S1136 1.610 . S
N1138 C1139 1.351 . S
C1139 C1133 1.428 . S
C1139 N1138 1.351 . S
C1139 C1140 1.434 . S
C1140 C1131 1.429 . S
C1140 N1137 1.350 . S
C1140 C1139 1.434 . S
C1141 C1142 1.369 . S
C1141 C1143 1.419 . S
C1141 H1145 0.930 . S
C1142 C1141 1.369 . S
C1142 C1151 1.429 . S
C1143 C1141 1.419 . S
C1143 C1144 1.363 . S
C1143 H1146 0.929 1_556 S
C1144 C1143 1.363 . S
C1144 C1150 1.428 . S
H1145 C1141 0.930 . S
H1146 C1143 0.929 1_554 S
S1147 N1148 1.613 . S
S1147 N1149 1.610 . S
N1148 S1147 1.613 . S
N1148 C1151 1.350 . S
N1149 S1147 1.610 . S
N1149 C1150 1.351 . S
C1150 C1144 1.428 . S
C1150 N1149 1.351 . S
C1150 C1151 1.434 . S
C1151 C1142 1.429 . S
C1151 N1148 1.350 . S
C1151 C1150 1.434 . S
C449 C121 1.366 . S
C451 C9 1.355 . S
C460 C23 1.356 . S
C462 C359 1.360 . S
C471 C37 1.360 . S
C473 C149 1.360 . S
C482 C51 1.356 . S
C484 C387 1.361 . S
C493 C65 1.366 . S
C495 C177 1.354 . S
C504 C415 1.362 . S
C506 C79 1.356 . S
C515 C205 1.360 . S
C517 C93 1.360 . S
C526 C443 1.356 . S
C528 C107 1.360 . S
C537 C247 1.360 . S
C539 C135 1.358 . S
C548 C163 1.365 . S
C550 C275 1.354 . S
C559 C191 1.366 . S
C561 C303 1.354 . S
C570 C331 1.356 . S
C572 C219 1.360 . S
C581 C345 1.366 . S
C583 C233 1.355 . S
C592 C261 1.356 . S
C594 C373 1.362 . S
C603 C289 1.358 . S
C605 C401 1.360 . S
C614 C429 1.366 . S
C616 C317 1.354 . S
C625 C7 1.274 . S
C627 C63 1.280 . S
C636 C77 1.278 . S
C638 C21 1.280 . S
C647 C91 1.274 . S
C649 C35 1.279 . S
C658 C49 1.280 . S
C660 C105 1.279 . S
C669 C119 1.278 . S
C671 C175 1.280 . S
C680 C133 1.277 . S
C682 C189 1.275 . S
C691 C203 1.278 . S
C693 C147 1.275 . S
C702 C217 1.277 . S
C704 C161 1.280 . S
C713 C287 1.274 . S
C715 C231 1.280 . S
C724 C301 1.277 . S
C726 C245 1.276 . S
C735 C259 1.280 . S
C737 C315 1.275 . S
C746 C329 1.274 . S
C748 C273 1.279 . S
C757 C399 1.275 . S
C759 C343 1.280 . S
C768 C357 1.276 . S
C770 C413 1.276 . S
C779 C427 1.278 . S
C781 C371 1.275 . S
C790 C441 1.281 . S
C792 C385 1.276 . S
C801 C64 1.226 . S
C803 C8 1.216 . S
C812 C78 1.222 . S
C814 C22 1.219 . S
C823 C36 1.214 . S
C825 C92 1.225 . S
C834 C106 1.215 . S
C836 C50 1.225 . S
C845 C176 1.222 . S
C847 C120 1.221 . S
C856 C134 1.215 . S
C858 C190 1.224 . S
C867 C204 1.227 . S
C869 C148 1.216 . S
C878 C218 1.220 . S
C880 C162 1.219 . S
C889 C232 1.214 . S
C891 C288 1.225 . S
C900 C302 1.219 . S
C902 C246 1.221 . S
C911 C316 1.227 . S
C913 C260 1.215 . S
C922 C330 1.220 . S
C924 C274 1.220 . S
C933 C400 1.226 . S
C935 C344 1.216 . S
C944 C358 1.219 . S
C946 C414 1.222 . S
C955 C372 1.214 . S
C957 C428 1.225 . S
C966 C386 1.220 . S
C968 C442 1.220 . S
C977 C6 1.424 . S
C979 C300 1.431 . S
C988 C314 1.427 . S
C990 C20 1.431 . S
C999 C34 1.423 . S
C1001 C328 1.429 . S
C1010 C48 1.425 . S
C1012 C286 1.431 . S
C1021 C272 1.427 . S
C1023 C62 1.430 . S
C1032 C230 1.431 . S
C1034 C76 1.424 . S
C1043 C244 1.423 . S
C1045 C90 1.429 . S
C1054 C104 1.432 . S
C1056 C258 1.424 . S
C1065 C118 1.424 . S
C1067 C412 1.427 . S
C1076 C426 1.429 . S
C1078 C132 1.429 . S
C1087 C440 1.429 . S
C1089 C146 1.429 . S
C1098 C398 1.423 . S
C1100 C160 1.429 . S
C1109 C384 1.432 . S
C1111 C174 1.426 . S
C1120 C342 1.425 . S
C1122 C188 1.431 . S
C1131 C202 1.431 . S
C1133 C356 1.424 . S
C1142 C216 1.432 . S
C1144 C370 1.424 . S
