# Generated by pormake.
# Topology ske, (6)-cn, num edge types: 1
# Building blocks:
#     Node 0, Type 0, BuildingBlock: JUFBIX_clean_sbu_0, # of connection points: 6
#     Node 1, Type 0, BuildingBlock: JUFBIX_clean_sbu_0, # of connection points: 6
#     Node 2, Type 0, BuildingBlock: JUFBIX_clean_sbu_0, # of connection points: 6
#     Node 3, Type 0, BuildingBlock: JUFBIX_clean_sbu_0, # of connection points: 6
#     Node 4, Type 0, BuildingBlock: JUFBIX_clean_sbu_0, # of connection points: 6
#     Node 5, Type 0, BuildingBlock: JUFBIX_clean_sbu_0, # of connection points: 6
#     Node 6, Type 0, BuildingBlock: JUFBIX_clean_sbu_0, # of connection points: 6
#     Node 7, Type 0, BuildingBlock: JUFBIX_clean_sbu_0, # of connection points: 6
#     Edge 8, Type (0, 0), BuildingBlock: EZIPEK_clean_linker_0, # of connection points: 2
#     Edge 9, Type (0, 0), BuildingBlock: EZIPEK_clean_linker_0, # of connection points: 2
#     Edge 10, Type (0, 0), BuildingBlock: EZIPEK_clean_linker_0, # of connection points: 2
#     Edge 11, Type (0, 0), BuildingBlock: EZIPEK_clean_linker_0, # of connection points: 2
#     Edge 12, Type (0, 0), BuildingBlock: EZIPEK_clean_linker_0, # of connection points: 2
#     Edge 13, Type (0, 0), BuildingBlock: EZIPEK_clean_linker_0, # of connection points: 2
#     Edge 14, Type (0, 0), BuildingBlock: EZIPEK_clean_linker_0, # of connection points: 2
#     Edge 15, Type (0, 0), BuildingBlock: EZIPEK_clean_linker_0, # of connection points: 2
#     Edge 16, Type (0, 0), BuildingBlock: EZIPEK_clean_linker_0, # of connection points: 2
#     Edge 17, Type (0, 0), BuildingBlock: EZIPEK_clean_linker_0, # of connection points: 2
#     Edge 18, Type (0, 0), BuildingBlock: EZIPEK_clean_linker_0, # of connection points: 2
#     Edge 19, Type (0, 0), BuildingBlock: EZIPEK_clean_linker_0, # of connection points: 2
#     Edge 20, Type (0, 0), BuildingBlock: EZIPEK_clean_linker_0, # of connection points: 2
#     Edge 21, Type (0, 0), BuildingBlock: EZIPEK_clean_linker_0, # of connection points: 2
#     Edge 22, Type (0, 0), BuildingBlock: EZIPEK_clean_linker_0, # of connection points: 2
#     Edge 23, Type (0, 0), BuildingBlock: EZIPEK_clean_linker_0, # of connection points: 2
#     Edge 24, Type (0, 0), BuildingBlock: EZIPEK_clean_linker_0, # of connection points: 2
#     Edge 25, Type (0, 0), BuildingBlock: EZIPEK_clean_linker_0, # of connection points: 2
#     Edge 26, Type (0, 0), BuildingBlock: EZIPEK_clean_linker_0, # of connection points: 2
#     Edge 27, Type (0, 0), BuildingBlock: EZIPEK_clean_linker_0, # of connection points: 2
#     Edge 28, Type (0, 0), BuildingBlock: EZIPEK_clean_linker_0, # of connection points: 2
#     Edge 29, Type (0, 0), BuildingBlock: EZIPEK_clean_linker_0, # of connection points: 2
#     Edge 30, Type (0, 0), BuildingBlock: EZIPEK_clean_linker_0, # of connection points: 2
#     Edge 31, Type (0, 0), BuildingBlock: EZIPEK_clean_linker_0, # of connection points: 2
# Relax obj value: 0.393
# Max RMSD: 0.161
# Mean RMSD: 0.148
data_MOF--net-ske--node1-JUFBIX_clean_sbu_0--edge1-EZIPEK_clean_linker_0
_symmetry_space_group_name_H-M    P1
_symmetry_Int_Tables_number       1
_symmetry_cell_setting            triclinic
loop_
_symmetry_equiv_pos_as_xyz
'x, y, z'
_cell_length_a     51.966026
_cell_length_b     21.779594
_cell_length_c     12.190955
_cell_angle_alpha  90.682002
_cell_angle_beta   91.906254
_cell_angle_gamma 92.219835
loop_
_atom_site_label
_atom_site_type_symbol
_atom_site_fract_x
_atom_site_fract_y
_atom_site_fract_z
_atom_type_partial_charge
Co0 Co 0.16307 0.25094 0.77242 0.0
C1 C 0.16705 0.3669 0.6634 0.0
Co2 Co 0.17301 0.2461 0.60084 0.0
C3 C 0.14082 0.21277 0.96397 0.0
C4 C 0.16901 0.28553 0.99812 0.0
N5 N 0.15489 0.25751 0.91629 0.0
N6 N 0.14795 0.20622 0.06924 0.0
C7 C 0.16484 0.25355 0.09284 0.0
H8 H 0.1295 0.17785 0.91842 0.0
H9 H 0.18448 0.31924 0.98633 0.0
C10 C 0.16413 0.12878 0.69569 0.0
N11 N 0.18074 0.23039 0.45574 0.0
C12 C 0.16558 0.18667 0.40407 0.0
C13 C 0.20468 0.21868 0.42263 0.0
N14 N 0.17907 0.14385 0.35309 0.0
C15 C 0.20375 0.1652 0.36081 0.0
C16 C 0.21841 0.25113 0.74523 0.0
O17 O 0.16089 0.15963 0.78271 0.0
O18 O 0.1712 0.15852 0.61364 0.0
O19 O 0.21076 0.2486 0.64447 0.0
O20 O 0.20078 0.25249 0.81575 0.0
O21 O 0.17372 0.33377 0.5828 0.0
H22 H 0.22221 0.24245 0.45255 0.0
H23 H 0.14525 0.18048 0.41768 0.0
O24 O 0.16358 0.34096 0.75609 0.0
O25 O 0.12693 0.24955 0.73625 0.0
O26 O 0.13518 0.2449 0.56277 0.0
C27 C 0.11858 0.24702 0.63764 0.0
H28 H 0.17674 0.2579 0.16741 0.0
H29 H 0.22006 0.14245 0.32837 0.0
Co30 Co 0.92714 0.26032 0.53741 0.0
C31 C 0.9028 0.37651 0.53347 0.0
Co32 Co 0.88421 0.25541 0.53225 0.0
C33 C 0.98515 0.24479 0.58638 0.0
C34 C 0.9754 0.30383 0.4542 0.0
N35 N 0.9644 0.26827 0.53121 0.0
N36 N 1.00817 0.26474 0.54543 0.0
C37 C 1.00178 0.3019 0.46273 0.0
H38 H 0.98346 0.21401 0.65502 0.0
H39 H 0.96491 0.32974 0.39401 0.0
C40 C 0.90604 0.13967 0.52434 0.0
N41 N 0.84796 0.24852 0.54395 0.0
C42 C 0.8347 0.26869 0.63085 0.0
C43 C 0.83075 0.21153 0.48693 0.0
N44 N 0.8103 0.24484 0.63165 0.0
C45 C 0.80764 0.20911 0.54067 0.0
C46 C 0.90388 0.25791 0.29916 0.0
O47 O 0.9277 0.17005 0.53116 0.0
O48 O 0.88543 0.16897 0.52861 0.0
O49 O 0.88289 0.25479 0.35531 0.0
O50 O 0.9247 0.26096 0.36151 0.0
O51 O 0.88261 0.34175 0.53116 0.0
H52 H 0.83525 0.18438 0.41571 0.0
H53 H 0.84319 0.29722 0.69676 0.0
O54 O 0.9247 0.3512 0.54102 0.0
O55 O 0.92843 0.25905 0.71425 0.0
O56 O 0.88689 0.25585 0.70786 0.0
C57 C 0.90754 0.25723 0.77071 0.0
H58 H 1.01538 0.32637 0.41208 0.0
H59 H 0.79076 0.18043 0.51837 0.0
Co60 Co 0.16182 0.74884 0.59054 0.0
C61 C 0.13993 0.86549 0.60081 0.0
Co62 Co 0.11851 0.7441 0.58975 0.0
C63 C 0.21194 0.73584 0.49485 0.0
C64 C 0.21542 0.79362 0.638 0.0
N65 N 0.19835 0.75632 0.58085 0.0
N66 N 0.23641 0.75962 0.4949 0.0
C67 C 0.23872 0.79576 0.58548 0.0
H68 H 0.20366 0.70679 0.42918 0.0
H69 H 0.21073 0.821 0.70867 0.0
C70 C 0.1437 0.62775 0.59582 0.0
N71 N 0.08059 0.73461 0.58227 0.0
C72 C 0.05962 0.76208 0.62506 0.0
C73 C 0.06956 0.69057 0.51516 0.0
N74 N 0.0364 0.73637 0.58633 0.0
C75 C 0.04309 0.69147 0.51752 0.0
C76 C 0.13921 0.74652 0.354 0.0
O77 O 0.16382 0.66233 0.59043 0.0
O78 O 0.12162 0.65252 0.59239 0.0
O79 O 0.11853 0.74386 0.41164 0.0
O80 O 0.15999 0.74917 0.41567 0.0
O81 O 0.11805 0.83553 0.59326 0.0
H82 H 0.08018 0.65948 0.46565 0.0
H83 H 0.06129 0.80045 0.68241 0.0
O84 O 0.16034 0.83539 0.59583 0.0
O85 O 0.16191 0.74878 0.76799 0.0
O86 O 0.11981 0.7448 0.76437 0.0
C87 C 0.14096 0.747 0.82528 0.0
H88 H 0.25558 0.82433 0.60866 0.0
H89 H 0.02962 0.66138 0.47087 0.0
Co90 Co 0.87204 0.75761 0.51437 0.0
C91 C 0.88499 0.87538 0.43605 0.0
Co92 Co 0.89096 0.75458 0.36221 0.0
C93 C 0.85331 0.73363 0.72427 0.0
C94 C 0.83075 0.79822 0.6386 0.0
N95 N 0.85146 0.76305 0.62995 0.0
N96 N 0.83644 0.75373 0.79722 0.0
C97 C 0.82139 0.79232 0.74159 0.0
H98 H 0.86957 0.70578 0.74497 0.0
H99 H 0.82384 0.82906 0.57643 0.0
C100 C 0.8823 0.63766 0.45437 0.0
N101 N 0.91019 0.75118 0.24276 0.0
C102 C 0.90403 0.78189 0.15337 0.0
C103 C 0.92873 0.71326 0.21342 0.0
N104 N 0.91472 0.75875 0.06407 0.0
C105 C 0.9317 0.71821 0.10217 0.0
C106 C 0.92618 0.76047 0.54698 0.0
O107 O 0.87079 0.66933 0.52437 0.0
O108 O 0.89125 0.66548 0.37182 0.0
O109 O 0.92317 0.76026 0.44361 0.0
O110 O 0.90569 0.75917 0.60357 0.0
O111 O 0.89183 0.84433 0.35388 0.0
H112 H 0.93731 0.67957 0.266 0.0
H113 H 0.88767 0.81136 0.15013 0.0
O114 O 0.87461 0.84573 0.51285 0.0
O115 O 0.83912 0.75576 0.42829 0.0
O116 O 0.85698 0.74853 0.27174 0.0
C117 C 0.83618 0.75112 0.32497 0.0
H118 H 0.80716 0.82071 0.7773 0.0
H119 H 0.94253 0.68797 1.05171 0.0
Co120 Co 0.66877 0.7517 0.24017 0.0
C121 C 0.67104 0.86717 0.13083 0.0
Co122 Co 0.67458 0.74567 0.06423 0.0
C123 C 0.68728 0.7342 0.4459 0.0
C124 C 0.66647 0.81633 0.44073 0.0
N125 N 0.66768 0.76064 0.39195 0.0
N126 N 0.70182 0.77523 0.50681 0.0
C127 C 0.68772 0.82592 0.50981 0.0
H128 H 0.69372 0.68965 0.42202 0.0
H129 H 0.65379 0.85184 0.41386 0.0
C130 C 0.66716 0.62988 0.16184 0.0
N131 N 0.67904 0.73637 0.91592 0.0
C132 C 0.70122 0.75919 0.87619 0.0
C133 C 0.6733 0.6852 0.85519 0.0
N134 N 0.7114 0.72058 0.80427 0.0
C135 C 0.69329 0.67505 0.78708 0.0
C136 C 0.72368 0.74941 0.18231 0.0
O137 O 0.66645 0.66117 0.25101 0.0
O138 O 0.67234 0.65846 0.07526 0.0
O139 O 0.71355 0.7442 0.0863 0.0
O140 O 0.70778 0.75442 0.25828 0.0
O141 O 0.676 0.83379 1.04872 0.0
H142 H 0.65757 0.65284 0.86952 0.0
H143 H 0.71146 0.79927 0.91127 0.0
O144 O 0.66883 0.84094 0.223 0.0
O145 O 0.63167 0.75047 0.22518 0.0
O146 O 0.63565 0.74646 1.04634 0.0
C147 C 0.62096 0.74836 0.12959 0.0
H148 H 0.69314 0.86873 0.55162 0.0
H149 H 0.69482 0.63561 0.73322 0.0
Co150 Co 0.42715 0.75926 1.05329 0.0
C151 C 0.40194 0.87517 1.04911 0.0
Co152 Co 0.38391 0.75443 1.05036 0.0
C153 C 0.48631 0.74575 0.09905 0.0
C154 C 0.47502 0.8095 0.97704 0.0
N155 N 0.46482 0.76919 1.04846 0.0
N156 N 0.50903 0.76979 1.05987 0.0
C157 C 0.50148 0.8095 0.98274 0.0
H158 H 0.48536 0.71225 0.1638 0.0
H159 H 0.46386 0.83875 0.92482 0.0
C160 C 0.40625 0.63827 1.03936 0.0
N161 N 0.34745 0.74644 0.06237 0.0
C162 C 0.33398 0.76733 0.14843 0.0
C163 C 0.3304 0.70838 1.00678 0.0
N164 N 0.30957 0.7431 0.1498 0.0
C165 C 0.30723 0.70617 1.06024 0.0
C166 C 0.40405 0.75708 0.81584 0.0
O167 O 0.42798 0.66849 1.0499 0.0
O168 O 0.38566 0.66788 1.04217 0.0
O169 O 0.38306 0.75637 0.87267 0.0
O170 O 0.42486 0.75763 0.87821 0.0
O171 O 0.38179 0.84071 1.05383 0.0
H172 H 0.33503 0.68058 0.93653 0.0
H173 H 0.34237 0.79683 0.21327 0.0
O174 O 0.42398 0.85027 1.05162 0.0
O175 O 0.42808 0.7601 0.23042 0.0
O176 O 0.38644 0.75247 0.22496 0.0
C177 C 0.4072 0.75604 0.28695 0.0
H178 H 0.51437 0.8381 0.93533 0.0
H179 H 0.29043 0.6771 1.03834 0.0
Co180 Co 0.66661 0.2497 0.08768 0.0
C181 C 0.64483 0.3649 0.09964 0.0
Co182 Co 0.62365 0.24386 0.08431 0.0
C183 C 0.71593 0.23622 0.98804 0.0
C184 C 0.72042 0.29177 0.13377 0.0
N185 N 0.70287 0.25625 0.07563 0.0
N186 N 0.74051 0.25885 0.98768 0.0
C187 C 0.74352 0.29346 0.07992 0.0
H188 H 0.70725 0.20828 0.92174 0.0
H189 H 0.7162 0.31827 0.20615 0.0
C190 C 0.64818 0.12867 0.085 0.0
N191 N 0.58624 0.23539 0.09127 0.0
C192 C 0.56501 0.25981 1.04078 0.0
C193 C 0.57586 0.1967 0.16508 0.0
N194 N 0.54226 0.2377 0.08185 0.0
C195 C 0.54942 0.19811 0.15979 0.0
C196 C 0.64313 0.24798 0.85088 0.0
O197 O 0.66833 0.16341 0.08801 0.0
O198 O 0.62612 0.15313 0.07874 0.0
O199 O 0.62233 0.24689 0.90789 0.0
O200 O 0.66375 0.24868 0.91352 0.0
O201 O 0.62318 0.33425 0.09429 0.0
H202 H 0.5869 0.16836 0.21994 0.0
H203 H 0.56616 0.29266 0.97504 0.0
O204 O 0.66553 0.3364 0.0914 0.0
O205 O 0.6678 0.25078 0.26436 0.0
O206 O 0.62627 0.24138 0.25828 0.0
C207 C 0.64691 0.24625 0.3211 0.0
H208 H 0.76069 0.32095 0.10313 0.0
H209 H 0.53629 0.17102 0.20862 0.0
Co210 Co 0.37663 0.25673 1.03278 0.0
C211 C 0.38537 0.37448 0.9422 0.0
Co212 Co 0.38622 0.25292 0.86139 0.0
C213 C 0.38297 0.3143 0.23144 0.0
C214 C 0.34413 0.28089 0.20966 0.0
N215 N 0.3683 0.27026 0.17808 0.0
N216 N 0.36895 0.35655 0.28122 0.0
C217 C 0.34444 0.33426 0.27169 0.0
H218 H 0.40333 0.32128 0.21954 0.0
H219 H 0.32686 0.25656 0.17828 0.0
C220 C 0.38128 0.13599 0.9636 0.0
N221 N 0.39476 0.24787 0.71788 0.0
C222 C 0.4086 0.29327 0.67095 0.0
C223 C 0.38081 0.2198 0.63563 0.0
N224 N 0.40137 0.3002 0.5659 0.0
C225 C 0.38479 0.25237 0.5415 0.0
C226 C 0.43105 0.25545 0.9991 0.0
O227 O 0.37685 0.16918 1.04747 0.0
O228 O 0.3835 0.163 0.87144 0.0
O229 O 0.42268 0.25016 0.90042 0.0
O230 O 0.41438 0.25961 0.07317 0.0
O231 O 0.38975 0.344 0.8561 0.0
H232 H 0.3655 0.18561 0.6469 0.0
H233 H 0.41986 0.32816 0.71686 0.0
O234 O 0.3775 0.34435 1.02252 0.0
O235 O 0.33883 0.25249 0.98708 0.0
O236 O 0.3489 0.25569 0.81594 0.0
C237 C 0.33125 0.25395 0.88627 0.0
H238 H 0.32781 0.35642 0.30255 0.0
H239 H 0.37289 0.248 0.46694 0.0
C240 C 0.25829 0.20069 0.83639 0.0
C241 C 0.24751 0.25164 0.78045 0.0
C242 C 0.29118 0.30519 0.79879 0.0
C243 C 0.3022 0.25329 0.85063 0.0
N244 N 0.29632 0.14832 0.90565 0.0
N245 N 0.25515 0.35015 0.69802 0.0
C246 C 0.28562 0.20039 0.86641 0.0
C247 C 0.2645 0.303 0.75851 0.0
N248 N 0.24232 0.15171 0.86012 0.0
N249 N 0.306 0.35817 0.79251 0.0
H250 H 0.23582 0.35214 0.67302 0.0
H251 H 0.26668 0.38545 0.66671 0.0
H252 H 0.32521 0.36156 0.82035 0.0
H253 H 0.29897 0.40004 0.76769 0.0
H254 H 0.24757 0.11598 0.91099 0.0
H255 H 0.22313 0.14789 0.8322 0.0
H256 H 0.28659 0.10582 0.90928 0.0
H257 H 0.31583 0.14634 0.92779 0.0
C258 C 0.75913 0.30255 0.81837 0.0
C259 C 0.75814 0.25531 0.89777 0.0
C260 C 0.79205 0.20168 0.80207 0.0
C261 C 0.79255 0.24812 0.72117 0.0
N262 N 0.77551 0.33937 0.6446 0.0
N263 N 0.77173 0.15804 0.96288 0.0
C264 C 0.77578 0.29777 0.72757 0.0
C265 C 0.7741 0.20423 0.88862 0.0
N266 N 0.74416 0.35219 0.83102 0.0
N267 N 0.80922 0.15587 0.79654 0.0
H268 H 0.75927 0.16011 1.0281 0.0
H269 H 0.78106 0.11678 0.95827 0.0
H270 H 0.82238 0.15307 0.7341 0.0
H271 H 0.81143 0.1222 0.85545 0.0
H272 H 0.74519 0.39118 0.78276 0.0
H273 H 0.73109 0.35541 0.8937 0.0
H274 H 0.76249 0.37428 0.63722 0.0
H275 H 0.78777 0.33689 0.57875 0.0
C276 C 0.2711 0.78971 0.22902 0.0
C277 C 0.29125 0.74766 0.23752 0.0
C278 C 0.27439 0.71162 0.41423 0.0
C279 C 0.25481 0.75524 0.40751 0.0
N280 N 0.23536 0.83917 0.31486 0.0
N281 N 0.31279 0.66913 0.33691 0.0
C282 C 0.25338 0.79511 0.31618 0.0
C283 C 0.29308 0.7088 0.33021 0.0
N284 N 0.26881 0.8237 0.13602 0.0
N285 N 0.27464 0.67238 0.50084 0.0
H286 H 0.32604 0.66499 0.27512 0.0
H287 H 0.31661 0.6413 0.40365 0.0
H288 H 0.26127 0.67426 0.56267 0.0
H289 H 0.28724 0.63681 0.5107 0.0
H290 H 0.25344 0.85148 0.11783 0.0
H291 H 0.28198 0.82171 0.07343 0.0
H292 H 0.23418 0.87345 0.25646 0.0
H293 H 0.22209 0.84339 0.37661 0.0
C294 C 0.76899 0.7003 0.18342 0.0
C295 C 0.75342 0.7515 0.20696 0.0
C296 C 0.79365 0.80581 0.28488 0.0
C297 C 0.80853 0.75254 0.27198 0.0
N298 N 0.809 0.64646 0.21698 0.0
N299 N 0.75179 0.85296 0.28584 0.0
C300 C 0.7958 0.69938 0.22214 0.0
C301 C 0.76613 0.80401 0.25959 0.0
N302 N 0.7581 0.65176 0.12436 0.0
N303 N 0.8062 0.85958 0.31752 0.0
H304 H 0.73253 0.85579 0.26106 0.0
H305 H 0.75854 0.88952 0.33588 0.0
H306 H 0.82606 0.8629 0.33316 0.0
H307 H 0.79766 0.90199 0.31902 0.0
H308 H 0.7686 0.61631 0.09267 0.0
H309 H 0.73864 0.64885 0.10056 0.0
H310 H 0.80053 0.60386 0.19474 0.0
H311 H 0.82837 0.64451 0.24158 0.0
C312 C 0.12911 0.96732 0.69872 0.0
C313 C 0.14329 0.93469 0.62007 0.0
C314 C 0.17377 0.02478 0.61476 0.0
C315 C 0.15789 0.06026 0.68166 0.0
N316 N 0.11589 0.06722 0.75999 0.0
N317 N 0.17488 0.94292 0.47968 0.0
C318 C 0.13428 0.03211 0.71634 0.0
C319 C 0.16438 0.96669 0.57133 0.0
N320 N 0.11144 0.93685 0.76051 0.0
N321 N 0.19823 0.04571 0.59415 0.0
H322 H 0.16724 0.9033 0.44016 0.0
H323 H 0.18881 0.96665 0.43543 0.0
H324 H 0.20642 0.08615 0.62916 0.0
H325 H 0.2113 0.01934 0.55316 0.0
H326 H 0.10265 0.95766 0.8262 0.0
H327 H 0.10739 0.88977 0.7537 0.0
H328 H 0.0975 0.04972 0.77665 0.0
H329 H 0.11784 0.11482 0.76717 0.0
C330 C 0.91672 0.48364 0.46132 0.0
C331 C 0.89973 0.44544 0.52279 0.0
C332 C 0.86979 0.53114 0.52673 0.0
C333 C 0.88804 0.57109 0.47633 0.0
N334 N 0.93307 0.58744 0.43512 0.0
N335 N 0.86404 0.44384 0.64551 0.0
C336 C 0.91274 0.54804 0.45504 0.0
C337 C 0.87744 0.47256 0.56502 0.0
N338 N 0.93605 0.4592 0.40412 0.0
N339 N 0.84484 0.5476 0.53502 0.0
H340 H 0.87026 0.40406 0.68328 0.0
H341 H 0.84887 0.46395 0.68454 0.0
H342 H 0.83796 0.58808 0.50231 0.0
H343 H 0.83041 0.51764 0.56279 0.0
H344 H 0.9471 0.48491 0.34998 0.0
H345 H 0.93924 0.41257 0.40067 0.0
H346 H 0.95184 0.57282 0.42863 0.0
H347 H 0.932 0.63496 0.44073 0.0
C348 C 0.87458 0.97902 0.51722 0.0
C349 C 0.89059 0.94425 0.44941 0.0
C350 C 0.91705 0.04004 0.42375 0.0
C351 C 0.90345 0.07087 0.50625 0.0
N352 N 0.87332 0.06087 0.6521 0.0
N353 N 0.93147 0.94274 0.35713 0.0
C354 C 0.88355 0.03744 0.55948 0.0
C355 C 0.91309 0.97493 0.40774 0.0
N356 N 0.85008 0.95818 0.53694 0.0
N357 N 0.93284 0.07264 0.35641 0.0
H358 H 0.93078 0.89531 0.3469 0.0
H359 H 0.94916 0.96282 0.33638 0.0
H360 H 0.93583 0.12013 0.36186 0.0
H361 H 0.94087 0.05309 0.28762 0.0
H362 H 0.83712 0.98413 0.57944 0.0
H363 H 0.84162 0.91941 0.49757 0.0
H364 H 0.86013 0.03599 0.69849 0.0
H365 H 0.88037 0.10174 0.68946 0.0
C366 C 0.162 0.54197 0.71075 0.0
C367 C 0.1471 0.55995 0.61688 0.0
C368 C 0.14287 0.45056 0.55992 0.0
C369 C 0.16054 0.43376 0.64625 0.0
N370 N 0.1901 0.46736 0.79311 0.0
N371 N 0.12626 0.53122 0.44383 0.0
C372 C 0.17087 0.48061 0.71893 0.0
C373 C 0.13828 0.5141 0.53939 0.0
N374 N 0.16698 0.58319 0.7948 0.0
N375 N 0.12935 0.40587 0.50031 0.0
H376 H 0.12216 0.57672 0.4269 0.0
H377 H 0.12218 0.50108 0.378 0.0
H378 H 0.13136 0.3592 0.51318 0.0
H379 H 0.11419 0.41499 0.44564 0.0
H380 H 0.17535 0.57148 0.87011 0.0
H381 H 0.16016 0.62751 0.79372 0.0
H382 H 0.20038 0.5008 0.84019 0.0
H383 H 0.19759 0.42377 0.79986 0.0
C384 C 0.66953 0.51878 0.2275 0.0
C385 C 0.65945 0.56202 0.15277 0.0
C386 C 0.6385 0.47544 1.04384 0.0
C387 C 0.64705 0.43306 0.12272 0.0
N388 N 0.66588 0.41627 0.30269 0.0
N389 N 0.6289 0.58031 1.0026 0.0
C390 C 0.66108 0.45547 0.21854 0.0
C391 C 0.64239 0.53994 0.06463 0.0
N392 N 0.68833 0.53711 0.30324 0.0
N393 N 0.62758 0.45427 0.94637 0.0
H394 H 0.63018 0.62759 1.01519 0.0
H395 H 0.61419 0.5667 0.94635 0.0
H396 H 0.62388 0.40769 0.92897 0.0
H397 H 0.62409 0.48249 0.87953 0.0
H398 H 0.69842 0.50653 0.35181 0.0
H399 H 0.69573 0.58219 0.31027 0.0
H400 H 0.6737 0.43063 0.37894 0.0
H401 H 0.65946 0.37039 0.30017 0.0
C402 C 0.40784 0.9714 0.93313 0.0
C403 C 0.39867 0.94302 1.02956 0.0
C404 C 0.37324 0.03462 0.06244 0.0
C405 C 0.38576 0.06747 0.97726 0.0
N406 N 0.41897 0.06539 0.84021 0.0
N407 N 0.37561 0.95332 0.19641 0.0
C408 C 0.40411 0.03541 0.9147 0.0
C409 C 0.38232 0.97654 0.09729 0.0
N410 N 0.419 0.93667 0.85519 0.0
N411 N 0.3515 0.05677 0.106 0.0
H412 H 0.38225 0.91175 0.22567 0.0
H413 H 0.36578 0.97833 0.25396 0.0
H414 H 0.34263 0.09558 0.07605 0.0
H415 H 0.34037 0.03218 0.16126 0.0
H416 H 0.4231 0.95279 0.77729 0.0
H417 H 0.42164 0.88989 0.86388 0.0
H418 H 0.43451 0.04534 0.80385 0.0
H419 H 0.41816 0.11173 0.82245 0.0
C420 C 0.41403 0.4731 0.92264 0.0
C421 C 0.39071 0.44319 0.95653 0.0
C422 C 0.38245 0.53608 0.06554 0.0
C423 C 0.40345 0.56931 1.01879 0.0
N424 N 0.43569 0.57003 0.87984 0.0
N425 N 0.34959 0.45507 1.0394 0.0
C426 C 0.41829 0.53805 0.94081 0.0
C427 C 0.37399 0.4775 1.02149 0.0
N428 N 0.43292 0.4397 0.8786 0.0
N429 N 0.37112 0.55912 0.15588 0.0
H430 H 0.34201 0.41429 1.00348 0.0
H431 H 0.33598 0.48056 0.07883 0.0
H432 H 0.37796 0.59935 0.19578 0.0
H433 H 0.35725 0.53439 0.19887 0.0
H434 H 0.45116 0.45858 0.86302 0.0
H435 H 0.43159 0.39213 0.86961 0.0
H436 H 0.44493 0.55016 0.81444 0.0
H437 H 0.43899 0.61738 0.88661 0.0
C438 C 0.64464 0.01814 1.01297 0.0
C439 C 0.65134 0.0607 0.09901 0.0
C440 C 0.67349 0.97874 0.19907 0.0
C441 C 0.66493 0.93442 0.11764 0.0
N442 N 0.63628 0.91177 0.95947 0.0
N443 N 0.6671 0.07765 0.28538 0.0
C444 C 0.64889 0.95408 1.02768 0.0
C445 C 0.66425 0.03969 0.19538 0.0
N446 N 0.63484 0.03892 0.9155 0.0
N447 N 0.69146 0.96387 0.2777 0.0
H448 H 0.6601 0.12184 0.28682 0.0
H449 H 0.67386 0.06317 0.36183 0.0
H450 H 0.69942 0.92087 0.28208 0.0
H451 H 0.70048 0.99601 0.33159 0.0
H452 H 0.63256 0.0114 0.84508 0.0
H453 H 0.63093 0.08495 0.90254 0.0
H454 H 0.62237 0.92341 0.90066 0.0
H455 H 0.63717 0.86453 0.96926 0.0
C456 C 0.18094 0.07826 0.19784 0.0
C457 C 0.16844 0.08981 0.29491 0.0
C458 C 0.13212 0.12652 0.19407 0.0
C459 C 0.15021 0.14699 0.11698 0.0
N460 N 0.18992 0.12662 1.02532 0.0
N461 N 0.12616 0.06246 0.35518 0.0
C462 C 0.17375 0.11556 0.1088 0.0
C463 C 0.14146 0.08878 0.27938 0.0
N464 N 0.20136 0.04122 0.1979 0.0
N465 N 0.10786 0.14783 0.19161 0.0
H466 H 0.13424 0.03994 0.42236 0.0
H467 H 0.10612 0.06059 0.34706 0.0
H468 H 0.10151 0.17615 0.12853 0.0
H469 H 0.09471 0.13817 0.25236 0.0
H470 H 0.2111 0.03072 0.12709 0.0
H471 H 0.20705 0.01863 0.26933 0.0
H472 H 0.20815 0.10853 1.02286 0.0
H473 H 0.18526 0.15562 0.96122 0.0
C474 C 0.88867 0.21723 0.09154 0.0
C475 C 0.90453 0.25799 0.16289 0.0
C476 C 0.92403 0.29433 0.97963 0.0
C477 C 0.90679 0.25692 0.90734 0.0
N478 N 0.86996 0.18605 0.91043 0.0
N479 N 0.9346 0.34433 0.15886 0.0
C480 C 0.88836 0.22004 0.96895 0.0
C481 C 0.92156 0.29817 0.10136 0.0
N482 N 0.87462 0.17175 0.14083 0.0
N483 N 0.94326 0.32797 0.93233 0.0
H484 H 0.93288 0.3504 0.24301 0.0
H485 H 0.94478 0.38034 0.12253 0.0
H486 H 0.94452 0.33263 0.84784 0.0
H487 H 0.95888 0.34833 0.97662 0.0
H488 H 0.86525 0.13517 0.09832 0.0
H489 H 0.87444 0.16699 0.22576 0.0
H490 H 0.85369 0.16624 0.94542 0.0
H491 H 0.87012 0.18029 0.82571 0.0
C492 C 0.15689 0.78616 0.15528 0.0
C493 C 0.13961 0.74652 0.21734 0.0
C494 C 0.12384 0.70649 1.02364 0.0
C495 C 0.14075 0.74683 0.96171 0.0
N496 N 0.17578 0.82167 0.98257 0.0
N497 N 0.1044 0.67207 0.19557 0.0
C498 C 0.15786 0.7852 1.03265 0.0
C499 C 0.12253 0.70816 0.1461 0.0
N500 N 0.17151 0.82938 0.21372 0.0
N501 N 0.11011 0.66156 0.96543 0.0
H502 H 0.10432 0.66587 0.28006 0.0
H503 H 0.0886 0.65081 0.15402 0.0
H504 H 0.11101 0.65651 0.8806 0.0
H505 H 0.09992 0.62533 1.00092 0.0
H506 H 0.18198 0.86542 0.17905 0.0
H507 H 0.17153 0.83271 0.29879 0.0
H508 H 0.19168 0.84306 1.02312 0.0
H509 H 0.17555 0.82826 0.89812 0.0
C510 C 0.86304 0.81643 0.91535 0.0
C511 C 0.84605 0.76455 0.90632 0.0
C512 C 0.8792 0.69999 0.97737 0.0
C513 C 0.8974 0.75057 0.97166 0.0
N514 N 0.90774 0.85208 0.91056 0.0
N515 N 0.83382 0.66678 0.97466 0.0
C516 C 0.8896 0.80673 0.92791 0.0
C517 C 0.85272 0.71048 0.95877 0.0
N518 N 0.85369 0.87359 0.90371 0.0
N519 N 0.88743 0.64244 0.99782 0.0
H520 H 0.81462 0.67504 0.95314 0.0
H521 H 0.83679 0.62585 1.01557 0.0
H522 H 0.90684 0.63241 0.99832 0.0
H523 H 0.87518 0.6036 1.00065 0.0
H524 H 0.86516 0.91378 0.91223 0.0
H525 H 0.83391 0.87997 0.89668 0.0
H526 H 0.90349 0.89386 0.87474 0.0
H527 H 0.92733 0.84471 0.92453 0.0
C528 C 0.73838 0.8113 0.62678 0.0
C529 C 0.7278 0.76751 0.54984 0.0
C530 C 0.74087 0.68641 0.6697 0.0
C531 C 0.73603 0.7285 0.75402 0.0
N532 N 0.75443 0.8258 0.81661 0.0
N533 N 0.74023 0.67141 0.47126 0.0
C534 C 0.74401 0.78972 0.73362 0.0
C535 C 0.73658 0.707 0.56127 0.0
N536 N 0.7418 0.87108 0.59805 0.0
N537 N 0.74567 0.62723 0.69485 0.0
H538 H 0.73766 0.68899 0.39271 0.0
H539 H 0.74701 0.62709 0.475 0.0
H540 H 0.74755 0.61407 0.77683 0.0
H541 H 0.74752 0.59266 0.63625 0.0
H542 H 0.74852 0.90572 0.65248 0.0
H543 H 0.73804 0.88457 0.51733 0.0
H544 H 0.76044 0.87151 0.80684 0.0
H545 H 0.75789 0.80741 0.89431 0.0
C546 C 0.424 0.79088 0.61631 0.0
C547 C 0.40471 0.75706 0.67893 0.0
C548 C 0.38877 0.71783 0.48501 0.0
C549 C 0.40655 0.75591 0.42304 0.0
N550 N 0.43787 0.83933 0.4453 0.0
N551 N 0.3665 0.69128 0.65412 0.0
C552 C 0.42327 0.79465 0.4941 0.0
C553 C 0.38651 0.72215 0.60681 0.0
N554 N 0.4439 0.82055 0.67298 0.0
N555 N 0.37469 0.67313 0.42811 0.0
H556 H 0.36523 0.68634 0.73852 0.0
H557 H 0.35039 0.67345 0.60972 0.0
H558 H 0.37568 0.66725 0.34362 0.0
H559 H 0.36423 0.63787 0.46534 0.0
H560 H 0.46053 0.83724 0.6362 0.0
H561 H 0.4447 0.82497 0.75757 0.0
H562 H 0.44787 0.87471 0.4887 0.0
H563 H 0.43773 0.84522 0.36061 0.0
C564 C 0.62248 0.24865 0.5195 0.0
C565 C 0.64606 0.2471 0.45779 0.0
C566 C 0.66734 0.25791 0.65273 0.0
C567 C 0.64395 0.24818 0.71429 0.0
N568 N 0.59909 0.21688 0.6817 0.0
N569 N 0.69175 0.23355 0.49061 0.0
C570 C 0.62167 0.23836 0.63993 0.0
C571 C 0.66854 0.24667 0.53225 0.0
N572 N 0.60014 0.26333 0.4659 0.0
N573 N 0.68897 0.28153 0.70673 0.0
H574 H 0.69407 0.22147 0.40899 0.0
H575 H 0.70805 0.22674 0.54051 0.0
H576 H 0.68919 0.29691 0.78772 0.0
H577 H 0.70564 0.29451 0.66625 0.0
H578 H 0.58319 0.27044 0.50682 0.0
H579 H 0.59921 0.27753 0.38495 0.0
H580 H 0.58316 0.20315 0.63184 0.0
H581 H 0.59721 0.20511 0.76343 0.0
C582 C 0.36634 0.42315 0.43521 0.0
C583 C 0.37895 0.4115 0.33838 0.0
C584 C 0.41614 0.3801 0.44016 0.0
C585 C 0.39858 0.35949 0.51908 0.0
N586 N 0.359 0.37837 0.61249 0.0
N587 N 0.42069 0.44003 0.2734 0.0
C588 C 0.37457 0.3889 0.52667 0.0
C589 C 0.40599 0.41502 0.35261 0.0
N590 N 0.34506 0.45744 0.43339 0.0
N591 N 0.44074 0.36094 0.44318 0.0
H592 H 0.41208 0.46008 0.20482 0.0
H593 H 0.44075 0.44313 0.27945 0.0
H594 H 0.44765 0.33456 0.508 0.0
H595 H 0.45368 0.37046 0.38154 0.0
H596 H 0.33516 0.468 0.50373 0.0
H597 H 0.33874 0.47783 0.36067 0.0
H598 H 0.3404 0.3944 0.61538 0.0
H599 H 0.36468 0.3521 0.67897 0.0
C600 C 0.07603 0.3 0.65645 0.0
C601 C 0.0898 0.25012 0.6133 0.0
C602 C 0.04854 0.20638 0.53239 0.0
C603 C 0.03477 0.2542 0.58107 0.0
N604 N 0.03474 0.34125 0.70252 0.0
N605 N 0.08809 0.15007 0.5262 0.0
C606 C 0.04842 0.29914 0.64754 0.0
C607 C 0.07573 0.20173 0.5554 0.0
N608 N 0.08943 0.35005 0.701 0.0
N609 N 0.03562 0.16634 0.46125 0.0
H610 H 0.10773 0.14486 0.54189 0.0
H611 H 0.07855 0.11048 0.49463 0.0
H612 H 1.01574 0.1675 0.44658 0.0
H613 H 0.04469 0.1347 0.41251 0.0
H614 H 0.08089 0.39064 0.72306 0.0
H615 H 0.10948 0.35351 0.70673 0.0
H616 H 0.04288 0.37179 0.76141 0.0
H617 H 1.01467 0.34184 0.69587 0.0
C618 C 0.96492 0.70851 0.63906 0.0
C619 C 0.95394 0.76186 0.59366 0.0
C620 C 0.99835 0.80452 0.5641 0.0
C621 C 1.00939 0.75063 0.60672 0.0
N622 N 1.0033 0.65802 0.70834 0.0
N623 N 0.96068 0.86744 0.54506 0.0
C624 C 0.99257 0.70495 0.65208 0.0
C625 C 0.97093 0.81199 0.56677 0.0
N626 N 0.94897 0.65991 0.6649 0.0
N627 N 1.01386 0.84709 0.51458 0.0
H628 H 0.94097 0.87417 0.55026 0.0
H629 H 0.97174 0.90763 0.53383 0.0
H630 H 0.03374 0.84321 0.51154 0.0
H631 H 1.00686 0.88386 0.47031 0.0
H632 H 0.95543 0.61678 0.68557 0.0
H633 H 0.92894 0.66208 0.66042 0.0
H634 H 0.99272 0.62543 0.75166 0.0
H635 H 1.02323 0.65524 0.71956 0.0
C636 C 0.5799 0.81039 0.12771 0.0
C637 C 0.59163 0.75258 0.11777 0.0
C638 C 0.548 0.70402 0.08085 0.0
C639 C 0.53622 0.76148 0.09295 0.0
N640 N 0.54085 0.866 0.15729 0.0
N641 N 0.58484 0.64293 0.12805 0.0
C642 C 0.55226 0.81367 0.12485 0.0
C643 C 0.57508 0.6989 0.10666 0.0
N644 N 0.59517 0.86259 0.14019 0.0
N645 N 0.53362 0.65448 1.04112 0.0
H646 H 0.60366 0.63855 0.15846 0.0
H647 H 0.57349 0.60247 0.12964 0.0
H648 H 0.51402 0.65662 1.02102 0.0
H649 H 0.54163 0.61303 1.0199 0.0
H650 H 0.58826 0.9067 0.13412 0.0
H651 H 0.61513 0.86173 0.1506 0.0
H652 H 0.55097 0.90427 0.19103 0.0
H653 H 0.5209 0.86853 0.16132 0.0
C654 C 0.47506 0.30491 0.06312 0.0
C655 C 0.45989 0.25239 1.02527 0.0
C656 C 0.50017 0.19689 1.00297 0.0
C657 C 0.51526 0.24711 1.04883 0.0
N658 N 0.51663 0.34654 0.13597 0.0
N659 N 0.45829 0.14381 0.98787 0.0
C660 C 0.50254 0.30069 0.08209 0.0
C661 C 0.47261 0.19725 1.00249 0.0
N662 N 0.46329 0.35906 0.07963 0.0
N663 N 0.51239 0.14854 0.95888 0.0
H664 H 0.4384 0.14193 0.99668 0.0
H665 H 0.46626 0.10085 0.98088 0.0
H666 H 0.53244 0.14758 0.95711 0.0
H667 H 0.50277 0.11281 0.91486 0.0
H668 H 0.47327 0.40073 0.09574 0.0
H669 H 0.44337 0.36288 0.07116 0.0
H670 H 0.50853 0.38407 0.17332 0.0
H671 H 0.53654 0.34486 0.1488 0.0
loop_
_geom_bond_atom_site_label_1
_geom_bond_atom_site_label_2
_geom_bond_distance
_geom_bond_site_symmetry_2
_ccdc_geom_bond_type
Co0 N5 2.057 . S
Co0 O17 2.021 . S
Co0 O20 2.062 . S
Co0 O24 2.117 . S
Co0 O25 2.020 . S
C1 O21 1.259 . S
C1 O24 1.258 . S
Co2 N11 2.057 . S
Co2 O18 2.117 . S
Co2 O19 2.020 . S
Co2 O21 2.021 . S
Co2 O26 2.062 . S
C3 N5 1.316 . S
C3 N6 1.347 . S
C3 H8 0.931 . S
C4 N5 1.375 . S
C4 C7 1.350 . S
C4 H9 0.930 . S
N5 Co0 2.057 . S
N5 C3 1.316 . S
N5 C4 1.375 . S
N6 C3 1.347 . S
N6 C7 1.373 . S
C7 C4 1.350 . S
C7 N6 1.373 . S
C7 H28 0.931 1_556 S
H8 C3 0.931 . S
H9 C4 0.930 . S
C10 O17 1.259 . S
C10 O18 1.258 . S
N11 Co2 2.057 . S
N11 C12 1.316 . S
N11 C13 1.375 . S
C12 N11 1.316 . S
C12 N14 1.347 . S
C12 H23 0.931 . S
C13 N11 1.375 . S
C13 C15 1.350 . S
C13 H22 0.930 . S
N14 C12 1.347 . S
N14 C15 1.373 . S
C15 C13 1.350 . S
C15 N14 1.373 . S
C15 H29 0.931 . S
C16 O19 1.256 . S
C16 O20 1.255 . S
O17 Co0 2.021 . S
O17 C10 1.259 . S
O18 Co2 2.117 . S
O18 C10 1.258 . S
O19 Co2 2.020 . S
O19 C16 1.256 . S
O20 Co0 2.062 . S
O20 C16 1.255 . S
O21 C1 1.259 . S
O21 Co2 2.021 . S
H22 C13 0.930 . S
H23 C12 0.931 . S
O24 Co0 2.117 . S
O24 C1 1.258 . S
O25 Co0 2.020 . S
O25 C27 1.256 . S
O26 Co2 2.062 . S
O26 C27 1.255 . S
C27 O25 1.256 . S
C27 O26 1.255 . S
H28 C7 0.931 1_554 S
H29 C15 0.931 . S
Co30 N35 2.057 . S
Co30 O47 2.021 . S
Co30 O50 2.062 . S
Co30 O54 2.117 . S
Co30 O55 2.020 . S
C31 O51 1.259 . S
C31 O54 1.258 . S
Co32 N41 2.057 . S
Co32 O48 2.117 . S
Co32 O49 2.020 . S
Co32 O51 2.021 . S
Co32 O56 2.062 . S
C33 N35 1.316 . S
C33 N36 1.347 . S
C33 H38 0.931 . S
C34 N35 1.375 . S
C34 C37 1.350 . S
C34 H39 0.930 . S
N35 Co30 2.057 . S
N35 C33 1.316 . S
N35 C34 1.375 . S
N36 C33 1.347 . S
N36 C37 1.373 . S
C37 C34 1.350 . S
C37 N36 1.373 . S
C37 H58 0.931 . S
H38 C33 0.931 . S
H39 C34 0.930 . S
C40 O47 1.259 . S
C40 O48 1.258 . S
N41 Co32 2.057 . S
N41 C42 1.316 . S
N41 C43 1.375 . S
C42 N41 1.316 . S
C42 N44 1.347 . S
C42 H53 0.931 . S
C43 N41 1.375 . S
C43 C45 1.350 . S
C43 H52 0.930 . S
N44 C42 1.347 . S
N44 C45 1.373 . S
C45 C43 1.350 . S
C45 N44 1.373 . S
C45 H59 0.931 . S
C46 O49 1.256 . S
C46 O50 1.255 . S
O47 Co30 2.021 . S
O47 C40 1.259 . S
O48 Co32 2.117 . S
O48 C40 1.258 . S
O49 Co32 2.020 . S
O49 C46 1.256 . S
O50 Co30 2.062 . S
O50 C46 1.255 . S
O51 C31 1.259 . S
O51 Co32 2.021 . S
H52 C43 0.930 . S
H53 C42 0.931 . S
O54 Co30 2.117 . S
O54 C31 1.258 . S
O55 Co30 2.020 . S
O55 C57 1.256 . S
O56 Co32 2.062 . S
O56 C57 1.255 . S
C57 O55 1.256 . S
C57 O56 1.255 . S
H58 C37 0.931 . S
H59 C45 0.931 . S
Co60 N65 2.057 . S
Co60 O77 2.021 . S
Co60 O80 2.062 . S
Co60 O84 2.117 . S
Co60 O85 2.020 . S
C61 O81 1.259 . S
C61 O84 1.258 . S
Co62 N71 2.057 . S
Co62 O78 2.117 . S
Co62 O79 2.020 . S
Co62 O81 2.021 . S
Co62 O86 2.062 . S
C63 N65 1.316 . S
C63 N66 1.347 . S
C63 H68 0.931 . S
C64 N65 1.375 . S
C64 C67 1.350 . S
C64 H69 0.930 . S
N65 Co60 2.057 . S
N65 C63 1.316 . S
N65 C64 1.375 . S
N66 C63 1.347 . S
N66 C67 1.373 . S
C67 C64 1.350 . S
C67 N66 1.373 . S
C67 H88 0.931 . S
H68 C63 0.931 . S
H69 C64 0.930 . S
C70 O77 1.259 . S
C70 O78 1.258 . S
N71 Co62 2.057 . S
N71 C72 1.316 . S
N71 C73 1.375 . S
C72 N71 1.316 . S
C72 N74 1.347 . S
C72 H83 0.931 . S
C73 N71 1.375 . S
C73 C75 1.350 . S
C73 H82 0.930 . S
N74 C72 1.347 . S
N74 C75 1.373 . S
C75 C73 1.350 . S
C75 N74 1.373 . S
C75 H89 0.931 . S
C76 O79 1.256 . S
C76 O80 1.255 . S
O77 Co60 2.021 . S
O77 C70 1.259 . S
O78 Co62 2.117 . S
O78 C70 1.258 . S
O79 Co62 2.020 . S
O79 C76 1.256 . S
O80 Co60 2.062 . S
O80 C76 1.255 . S
O81 C61 1.259 . S
O81 Co62 2.021 . S
H82 C73 0.930 . S
H83 C72 0.931 . S
O84 Co60 2.117 . S
O84 C61 1.258 . S
O85 Co60 2.020 . S
O85 C87 1.256 . S
O86 Co62 2.062 . S
O86 C87 1.255 . S
C87 O85 1.256 . S
C87 O86 1.255 . S
H88 C67 0.931 . S
H89 C75 0.931 . S
Co90 N95 2.057 . S
Co90 O107 2.021 . S
Co90 O110 2.062 . S
Co90 O114 2.117 . S
Co90 O115 2.020 . S
C91 O111 1.259 . S
C91 O114 1.258 . S
Co92 N101 2.057 . S
Co92 O108 2.117 . S
Co92 O109 2.020 . S
Co92 O111 2.021 . S
Co92 O116 2.062 . S
C93 N95 1.316 . S
C93 N96 1.347 . S
C93 H98 0.931 . S
C94 N95 1.375 . S
C94 C97 1.350 . S
C94 H99 0.930 . S
N95 Co90 2.057 . S
N95 C93 1.316 . S
N95 C94 1.375 . S
N96 C93 1.347 . S
N96 C97 1.373 . S
C97 C94 1.350 . S
C97 N96 1.373 . S
C97 H118 0.931 . S
H98 C93 0.931 . S
H99 C94 0.930 . S
C100 O107 1.259 . S
C100 O108 1.258 . S
N101 Co92 2.057 . S
N101 C102 1.316 . S
N101 C103 1.375 . S
C102 N101 1.316 . S
C102 N104 1.347 . S
C102 H113 0.931 . S
C103 N101 1.375 . S
C103 C105 1.350 . S
C103 H112 0.930 . S
N104 C102 1.347 . S
N104 C105 1.373 . S
C105 C103 1.350 . S
C105 N104 1.373 . S
C105 H119 0.931 1_554 S
C106 O109 1.256 . S
C106 O110 1.255 . S
O107 Co90 2.021 . S
O107 C100 1.259 . S
O108 Co92 2.117 . S
O108 C100 1.258 . S
O109 Co92 2.020 . S
O109 C106 1.256 . S
O110 Co90 2.062 . S
O110 C106 1.255 . S
O111 C91 1.259 . S
O111 Co92 2.021 . S
H112 C103 0.930 . S
H113 C102 0.931 . S
O114 Co90 2.117 . S
O114 C91 1.258 . S
O115 Co90 2.020 . S
O115 C117 1.256 . S
O116 Co92 2.062 . S
O116 C117 1.255 . S
C117 O115 1.256 . S
C117 O116 1.255 . S
H118 C97 0.931 . S
H119 C105 0.931 1_556 S
Co120 N125 2.057 . S
Co120 O137 2.021 . S
Co120 O140 2.062 . S
Co120 O144 2.117 . S
Co120 O145 2.020 . S
C121 O141 1.259 1_554 S
C121 O144 1.258 . S
Co122 N131 2.057 . S
Co122 O138 2.117 1_556 S
Co122 O139 2.020 1_556 S
Co122 O141 2.021 . S
Co122 O146 2.062 . S
C123 N125 1.316 . S
C123 N126 1.347 . S
C123 H128 0.931 . S
C124 N125 1.375 . S
C124 C127 1.350 . S
C124 H129 0.930 . S
N125 Co120 2.057 . S
N125 C123 1.316 . S
N125 C124 1.375 . S
N126 C123 1.347 . S
N126 C127 1.373 . S
C127 C124 1.350 . S
C127 N126 1.373 . S
C127 H148 0.931 . S
H128 C123 0.931 . S
H129 C124 0.930 . S
C130 O137 1.259 . S
C130 O138 1.258 . S
N131 Co122 2.057 . S
N131 C132 1.316 . S
N131 C133 1.375 . S
C132 N131 1.316 . S
C132 N134 1.347 . S
C132 H143 0.931 . S
C133 N131 1.375 . S
C133 C135 1.350 . S
C133 H142 0.930 . S
N134 C132 1.347 . S
N134 C135 1.373 . S
C135 C133 1.350 . S
C135 N134 1.373 . S
C135 H149 0.931 . S
C136 O139 1.256 . S
C136 O140 1.255 . S
O137 Co120 2.021 . S
O137 C130 1.259 . S
O138 Co122 2.117 1_554 S
O138 C130 1.258 . S
O139 Co122 2.020 1_554 S
O139 C136 1.256 . S
O140 Co120 2.062 . S
O140 C136 1.255 . S
O141 C121 1.259 1_556 S
O141 Co122 2.021 . S
H142 C133 0.930 . S
H143 C132 0.931 . S
O144 Co120 2.117 . S
O144 C121 1.258 . S
O145 Co120 2.020 . S
O145 C147 1.256 . S
O146 Co122 2.062 . S
O146 C147 1.255 1_556 S
C147 O145 1.256 . S
C147 O146 1.255 1_554 S
H148 C127 0.931 . S
H149 C135 0.931 . S
Co150 N155 2.057 . S
Co150 O167 2.021 . S
Co150 O170 2.062 1_554 S
Co150 O174 2.117 . S
Co150 O175 2.020 . S
C151 O171 1.259 . S
C151 O174 1.258 . S
Co152 N161 2.057 . S
Co152 O168 2.117 . S
Co152 O169 2.020 1_554 S
Co152 O171 2.021 . S
Co152 O176 2.062 . S
C153 N155 1.316 . S
C153 N156 1.347 1_554 S
C153 H158 0.931 . S
C154 N155 1.375 . S
C154 C157 1.350 . S
C154 H159 0.930 . S
N155 Co150 2.057 . S
N155 C153 1.316 . S
N155 C154 1.375 . S
N156 C153 1.347 1_556 S
N156 C157 1.373 1_556 S
C157 C154 1.350 . S
C157 N156 1.373 1_554 S
C157 H178 0.931 . S
H158 C153 0.931 . S
H159 C154 0.930 . S
C160 O167 1.259 . S
C160 O168 1.258 . S
N161 Co152 2.057 . S
N161 C162 1.316 . S
N161 C163 1.375 . S
C162 N161 1.316 . S
C162 N164 1.347 . S
C162 H173 0.931 . S
C163 N161 1.375 . S
C163 C165 1.350 . S
C163 H172 0.930 . S
N164 C162 1.347 . S
N164 C165 1.373 . S
C165 C163 1.350 . S
C165 N164 1.373 . S
C165 H179 0.931 . S
C166 O169 1.256 . S
C166 O170 1.255 . S
O167 Co150 2.021 . S
O167 C160 1.259 . S
O168 Co152 2.117 . S
O168 C160 1.258 . S
O169 Co152 2.020 1_556 S
O169 C166 1.256 . S
O170 Co150 2.062 1_556 S
O170 C166 1.255 . S
O171 C151 1.259 . S
O171 Co152 2.021 . S
H172 C163 0.930 . S
H173 C162 0.931 . S
O174 Co150 2.117 . S
O174 C151 1.258 . S
O175 Co150 2.020 . S
O175 C177 1.256 . S
O176 Co152 2.062 . S
O176 C177 1.255 . S
C177 O175 1.256 . S
C177 O176 1.255 . S
H178 C157 0.931 . S
H179 C165 0.931 . S
Co180 N185 2.057 . S
Co180 O197 2.021 . S
Co180 O200 2.062 . S
Co180 O204 2.117 . S
Co180 O205 2.020 1_556 S
C181 O201 1.259 . S
C181 O204 1.258 . S
Co182 N191 2.057 . S
Co182 O198 2.117 . S
Co182 O199 2.020 . S
Co182 O201 2.021 . S
Co182 O206 2.062 1_556 S
C183 N185 1.316 . S
C183 N186 1.347 . S
C183 H188 0.931 . S
C184 N185 1.375 . S
C184 C187 1.350 . S
C184 H189 0.930 . S
N185 Co180 2.057 . S
N185 C183 1.316 . S
N185 C184 1.375 . S
N186 C183 1.347 . S
N186 C187 1.373 . S
C187 C184 1.350 . S
C187 N186 1.373 . S
C187 H208 0.931 . S
H188 C183 0.931 . S
H189 C184 0.930 . S
C190 O197 1.259 . S
C190 O198 1.258 . S
N191 Co182 2.057 . S
N191 C192 1.316 . S
N191 C193 1.375 . S
C192 N191 1.316 . S
C192 N194 1.347 1_556 S
C192 H203 0.931 . S
C193 N191 1.375 . S
C193 C195 1.350 . S
C193 H202 0.930 . S
N194 C192 1.347 1_554 S
N194 C195 1.373 1_554 S
C195 C193 1.350 . S
C195 N194 1.373 1_556 S
C195 H209 0.931 . S
C196 O199 1.256 . S
C196 O200 1.255 . S
O197 Co180 2.021 . S
O197 C190 1.259 . S
O198 Co182 2.117 . S
O198 C190 1.258 . S
O199 Co182 2.020 . S
O199 C196 1.256 . S
O200 Co180 2.062 . S
O200 C196 1.255 . S
O201 C181 1.259 . S
O201 Co182 2.021 . S
H202 C193 0.930 . S
H203 C192 0.931 . S
O204 Co180 2.117 . S
O204 C181 1.258 . S
O205 Co180 2.020 1_554 S
O205 C207 1.256 . S
O206 Co182 2.062 1_554 S
O206 C207 1.255 . S
C207 O205 1.256 . S
C207 O206 1.255 . S
H208 C187 0.931 . S
H209 C195 0.931 . S
Co210 N215 2.057 . S
Co210 O227 2.021 . S
Co210 O230 2.062 . S
Co210 O234 2.117 1_554 S
Co210 O235 2.020 1_554 S
C211 O231 1.259 . S
C211 O234 1.258 . S
Co212 N221 2.057 . S
Co212 O228 2.117 . S
Co212 O229 2.020 . S
Co212 O231 2.021 . S
Co212 O236 2.062 . S
C213 N215 1.316 . S
C213 N216 1.347 . S
C213 H218 0.931 . S
C214 N215 1.375 . S
C214 C217 1.350 . S
C214 H219 0.930 . S
N215 Co210 2.057 . S
N215 C213 1.316 . S
N215 C214 1.375 . S
N216 C213 1.347 . S
N216 C217 1.373 . S
C217 C214 1.350 . S
C217 N216 1.373 . S
C217 H238 0.931 . S
H218 C213 0.931 . S
H219 C214 0.930 . S
C220 O227 1.259 1_556 S
C220 O228 1.258 . S
N221 Co212 2.057 . S
N221 C222 1.316 . S
N221 C223 1.375 . S
C222 N221 1.316 . S
C222 N224 1.347 . S
C222 H233 0.931 . S
C223 N221 1.375 . S
C223 C225 1.350 . S
C223 H232 0.930 . S
N224 C222 1.347 . S
N224 C225 1.373 . S
C225 C223 1.350 . S
C225 N224 1.373 . S
C225 H239 0.931 . S
C226 O229 1.256 . S
C226 O230 1.255 1_556 S
O227 Co210 2.021 . S
O227 C220 1.259 1_554 S
O228 Co212 2.117 . S
O228 C220 1.258 . S
O229 Co212 2.020 . S
O229 C226 1.256 . S
O230 Co210 2.062 . S
O230 C226 1.255 1_554 S
O231 C211 1.259 . S
O231 Co212 2.021 . S
H232 C223 0.930 . S
H233 C222 0.931 . S
O234 Co210 2.117 1_556 S
O234 C211 1.258 . S
O235 Co210 2.020 1_556 S
O235 C237 1.256 . S
O236 Co212 2.062 . S
O236 C237 1.255 . S
C237 O235 1.256 . S
C237 O236 1.255 . S
H238 C217 0.931 . S
H239 C225 0.931 . S
C240 C241 1.363 . S
C240 C246 1.379 . S
C240 N248 1.356 . S
C241 C240 1.363 . S
C241 C247 1.363 . S
C242 C243 1.363 . S
C242 C247 1.379 . S
C242 N249 1.356 . S
C243 C242 1.363 . S
C243 C246 1.363 . S
N244 C246 1.356 . S
N244 H256 0.984 . S
N244 H257 0.985 . S
N245 C247 1.356 . S
N245 H250 0.984 . S
N245 H251 0.985 . S
C246 C240 1.379 . S
C246 C243 1.363 . S
C246 N244 1.356 . S
C247 C241 1.363 . S
C247 C242 1.379 . S
C247 N245 1.356 . S
N248 C240 1.356 . S
N248 H254 0.984 . S
N248 H255 0.984 . S
N249 C242 1.356 . S
N249 H252 0.984 . S
N249 H253 0.985 . S
H250 N245 0.984 . S
H251 N245 0.985 . S
H252 N249 0.984 . S
H253 N249 0.985 . S
H254 N248 0.984 . S
H255 N248 0.984 . S
H256 N244 0.984 . S
H257 N244 0.985 . S
C258 C259 1.363 . S
C258 C264 1.379 . S
C258 N266 1.356 . S
C259 C258 1.363 . S
C259 C265 1.363 . S
C260 C261 1.363 . S
C260 C265 1.379 . S
C260 N267 1.356 . S
C261 C260 1.363 . S
C261 C264 1.363 . S
N262 C264 1.356 . S
N262 H274 0.984 . S
N262 H275 0.985 . S
N263 C265 1.356 . S
N263 H268 0.984 . S
N263 H269 0.985 . S
C264 C258 1.379 . S
C264 C261 1.363 . S
C264 N262 1.356 . S
C265 C259 1.363 . S
C265 C260 1.379 . S
C265 N263 1.356 . S
N266 C258 1.356 . S
N266 H272 0.984 . S
N266 H273 0.984 . S
N267 C260 1.356 . S
N267 H270 0.984 . S
N267 H271 0.985 . S
H268 N263 0.984 . S
H269 N263 0.985 . S
H270 N267 0.984 . S
H271 N267 0.985 . S
H272 N266 0.984 . S
H273 N266 0.984 . S
H274 N262 0.984 . S
H275 N262 0.985 . S
C276 C277 1.363 . S
C276 C282 1.379 . S
C276 N284 1.356 . S
C277 C276 1.363 . S
C277 C283 1.363 . S
C278 C279 1.363 . S
C278 C283 1.379 . S
C278 N285 1.356 . S
C279 C278 1.363 . S
C279 C282 1.363 . S
N280 C282 1.356 . S
N280 H292 0.984 . S
N280 H293 0.985 . S
N281 C283 1.356 . S
N281 H286 0.984 . S
N281 H287 0.985 . S
C282 C276 1.379 . S
C282 C279 1.363 . S
C282 N280 1.356 . S
C283 C277 1.363 . S
C283 C278 1.379 . S
C283 N281 1.356 . S
N284 C276 1.356 . S
N284 H290 0.984 . S
N284 H291 0.984 . S
N285 C278 1.356 . S
N285 H288 0.984 . S
N285 H289 0.985 . S
H286 N281 0.984 . S
H287 N281 0.985 . S
H288 N285 0.984 . S
H289 N285 0.985 . S
H290 N284 0.984 . S
H291 N284 0.984 . S
H292 N280 0.984 . S
H293 N280 0.985 . S
C294 C295 1.363 . S
C294 C300 1.379 . S
C294 N302 1.356 . S
C295 C294 1.363 . S
C295 C301 1.363 . S
C296 C297 1.363 . S
C296 C301 1.379 . S
C296 N303 1.356 . S
C297 C296 1.363 . S
C297 C300 1.363 . S
N298 C300 1.356 . S
N298 H310 0.984 . S
N298 H311 0.985 . S
N299 C301 1.356 . S
N299 H304 0.984 . S
N299 H305 0.985 . S
C300 C294 1.379 . S
C300 C297 1.363 . S
C300 N298 1.356 . S
C301 C295 1.363 . S
C301 C296 1.379 . S
C301 N299 1.356 . S
N302 C294 1.356 . S
N302 H308 0.984 . S
N302 H309 0.984 . S
N303 C296 1.356 . S
N303 H306 0.984 . S
N303 H307 0.985 . S
H304 N299 0.984 . S
H305 N299 0.985 . S
H306 N303 0.984 . S
H307 N303 0.985 . S
H308 N302 0.984 . S
H309 N302 0.984 . S
H310 N298 0.984 . S
H311 N298 0.985 . S
C312 C313 1.363 . S
C312 C318 1.379 1_565 S
C312 N320 1.356 . S
C313 C312 1.363 . S
C313 C319 1.363 . S
C314 C315 1.363 . S
C314 C319 1.379 1_545 S
C314 N321 1.356 . S
C315 C314 1.363 . S
C315 C318 1.363 . S
N316 C318 1.356 . S
N316 H328 0.984 . S
N316 H329 0.985 . S
N317 C319 1.356 . S
N317 H322 0.984 . S
N317 H323 0.985 . S
C318 C312 1.379 1_545 S
C318 C315 1.363 . S
C318 N316 1.356 . S
C319 C313 1.363 . S
C319 C314 1.379 1_565 S
C319 N317 1.356 . S
N320 C312 1.356 . S
N320 H326 0.984 . S
N320 H327 0.984 . S
N321 C314 1.356 . S
N321 H324 0.984 . S
N321 H325 0.985 . S
H322 N317 0.984 . S
H323 N317 0.985 . S
H324 N321 0.984 . S
H325 N321 0.985 . S
H326 N320 0.984 . S
H327 N320 0.984 . S
H328 N316 0.984 . S
H329 N316 0.985 . S
C330 C331 1.363 . S
C330 C336 1.379 . S
C330 N338 1.356 . S
C331 C330 1.363 . S
C331 C337 1.363 . S
C332 C333 1.363 . S
C332 C337 1.379 . S
C332 N339 1.356 . S
C333 C332 1.363 . S
C333 C336 1.363 . S
N334 C336 1.356 . S
N334 H346 0.984 . S
N334 H347 0.985 . S
N335 C337 1.356 . S
N335 H340 0.984 . S
N335 H341 0.985 . S
C336 C330 1.379 . S
C336 C333 1.363 . S
C336 N334 1.356 . S
C337 C331 1.363 . S
C337 C332 1.379 . S
C337 N335 1.356 . S
N338 C330 1.356 . S
N338 H344 0.984 . S
N338 H345 0.984 . S
N339 C332 1.356 . S
N339 H342 0.984 . S
N339 H343 0.985 . S
H340 N335 0.984 . S
H341 N335 0.985 . S
H342 N339 0.984 . S
H343 N339 0.985 . S
H344 N338 0.984 . S
H345 N338 0.984 . S
H346 N334 0.984 . S
H347 N334 0.985 . S
C348 C349 1.363 . S
C348 C354 1.379 1_565 S
C348 N356 1.356 . S
C349 C348 1.363 . S
C349 C355 1.363 . S
C350 C351 1.363 . S
C350 C355 1.379 1_545 S
C350 N357 1.356 . S
C351 C350 1.363 . S
C351 C354 1.363 . S
N352 C354 1.356 . S
N352 H364 0.984 . S
N352 H365 0.985 . S
N353 C355 1.356 . S
N353 H358 0.984 . S
N353 H359 0.985 . S
C354 C348 1.379 1_545 S
C354 C351 1.363 . S
C354 N352 1.356 . S
C355 C349 1.363 . S
C355 C350 1.379 1_565 S
C355 N353 1.356 . S
N356 C348 1.356 . S
N356 H362 0.984 . S
N356 H363 0.984 . S
N357 C350 1.356 . S
N357 H360 0.984 . S
N357 H361 0.985 . S
H358 N353 0.984 . S
H359 N353 0.985 . S
H360 N357 0.984 . S
H361 N357 0.985 . S
H362 N356 0.984 . S
H363 N356 0.984 . S
H364 N352 0.984 . S
H365 N352 0.985 . S
C366 C367 1.363 . S
C366 C372 1.379 . S
C366 N374 1.356 . S
C367 C366 1.363 . S
C367 C373 1.363 . S
C368 C369 1.363 . S
C368 C373 1.379 . S
C368 N375 1.356 . S
C369 C368 1.363 . S
C369 C372 1.363 . S
N370 C372 1.356 . S
N370 H382 0.984 . S
N370 H383 0.985 . S
N371 C373 1.356 . S
N371 H376 0.984 . S
N371 H377 0.985 . S
C372 C366 1.379 . S
C372 C369 1.363 . S
C372 N370 1.356 . S
C373 C367 1.363 . S
C373 C368 1.379 . S
C373 N371 1.356 . S
N374 C366 1.356 . S
N374 H380 0.984 . S
N374 H381 0.984 . S
N375 C368 1.356 . S
N375 H378 0.984 . S
N375 H379 0.985 . S
H376 N371 0.984 . S
H377 N371 0.985 . S
H378 N375 0.984 . S
H379 N375 0.985 . S
H380 N374 0.984 . S
H381 N374 0.984 . S
H382 N370 0.984 . S
H383 N370 0.985 . S
C384 C385 1.363 . S
C384 C390 1.379 . S
C384 N392 1.356 . S
C385 C384 1.363 . S
C385 C391 1.363 1_554 S
C386 C387 1.363 . S
C386 C391 1.379 . S
C386 N393 1.356 . S
C387 C386 1.363 . S
C387 C390 1.363 1_556 S
N388 C390 1.356 . S
N388 H400 0.984 . S
N388 H401 0.985 . S
N389 C391 1.356 . S
N389 H394 0.984 . S
N389 H395 0.985 . S
C390 C384 1.379 . S
C390 C387 1.363 1_554 S
C390 N388 1.356 . S
C391 C385 1.363 1_556 S
C391 C386 1.379 . S
C391 N389 1.356 . S
N392 C384 1.356 . S
N392 H398 0.984 . S
N392 H399 0.984 . S
N393 C386 1.356 . S
N393 H396 0.984 . S
N393 H397 0.985 . S
H394 N389 0.984 . S
H395 N389 0.985 . S
H396 N393 0.984 . S
H397 N393 0.985 . S
H398 N392 0.984 . S
H399 N392 0.984 . S
H400 N388 0.984 . S
H401 N388 0.985 . S
C402 C403 1.363 1_556 S
C402 C408 1.379 1_565 S
C402 N410 1.356 . S
C403 C402 1.363 1_554 S
C403 C409 1.363 . S
C404 C405 1.363 1_554 S
C404 C409 1.379 1_545 S
C404 N411 1.356 . S
C405 C404 1.363 1_556 S
C405 C408 1.363 . S
N406 C408 1.356 . S
N406 H418 0.984 . S
N406 H419 0.985 . S
N407 C409 1.356 . S
N407 H412 0.984 . S
N407 H413 0.985 . S
C408 C402 1.379 1_545 S
C408 C405 1.363 . S
C408 N406 1.356 . S
C409 C403 1.363 . S
C409 C404 1.379 1_565 S
C409 N407 1.356 . S
N410 C402 1.356 . S
N410 H416 0.984 . S
N410 H417 0.984 . S
N411 C404 1.356 . S
N411 H414 0.984 . S
N411 H415 0.985 . S
H412 N407 0.984 . S
H413 N407 0.985 . S
H414 N411 0.984 . S
H415 N411 0.985 . S
H416 N410 0.984 . S
H417 N410 0.984 . S
H418 N406 0.984 . S
H419 N406 0.985 . S
C420 C421 1.363 . S
C420 C426 1.379 . S
C420 N428 1.356 . S
C421 C420 1.363 . S
C421 C427 1.363 1_556 S
C422 C423 1.363 . S
C422 C427 1.379 . S
C422 N429 1.356 . S
C423 C422 1.363 . S
C423 C426 1.363 1_554 S
N424 C426 1.356 . S
N424 H436 0.984 . S
N424 H437 0.985 . S
N425 C427 1.356 . S
N425 H430 0.984 . S
N425 H431 0.985 . S
C426 C420 1.379 . S
C426 C423 1.363 1_556 S
C426 N424 1.356 . S
C427 C421 1.363 1_554 S
C427 C422 1.379 . S
C427 N425 1.356 . S
N428 C420 1.356 . S
N428 H434 0.984 . S
N428 H435 0.984 . S
N429 C422 1.356 . S
N429 H432 0.984 . S
N429 H433 0.985 . S
H430 N425 0.984 . S
H431 N425 0.985 . S
H432 N429 0.984 . S
H433 N429 0.985 . S
H434 N428 0.984 . S
H435 N428 0.984 . S
H436 N424 0.984 . S
H437 N424 0.985 . S
C438 C439 1.363 . S
C438 C444 1.379 1_545 S
C438 N446 1.356 . S
C439 C438 1.363 . S
C439 C445 1.363 1_556 S
C440 C441 1.378 . S
C440 C445 1.363 1_565 S
C440 N447 1.362 . S
C441 C440 1.378 . S
C441 C444 1.363 1_554 S
N442 C444 1.356 . S
N442 H454 0.984 . S
N442 H455 0.985 . S
N443 C445 1.356 . S
N443 H448 0.984 . S
N443 H449 0.985 . S
C444 C438 1.379 1_565 S
C444 C441 1.363 1_556 S
C444 N442 1.356 . S
C445 C439 1.363 1_554 S
C445 C440 1.363 1_545 S
C445 N443 1.356 . S
N446 C438 1.356 . S
N446 H452 0.984 1_545 S
N446 H453 0.984 . S
N447 C440 1.362 . S
N447 H450 0.984 . S
N447 H451 0.985 1_565 S
H448 N443 0.984 . S
H449 N443 0.985 . S
H450 N447 0.984 . S
H451 N447 0.985 1_545 S
H452 N446 0.984 1_565 S
H453 N446 0.984 . S
H454 N442 0.984 . S
H455 N442 0.985 . S
C456 C457 1.363 . S
C456 C462 1.379 . S
C456 N464 1.356 . S
C457 C456 1.363 . S
C457 C463 1.363 . S
C458 C459 1.363 1_554 S
C458 C463 1.379 . S
C458 N465 1.356 1_554 S
C459 C458 1.363 1_556 S
C459 C462 1.363 1_556 S
N460 C462 1.356 1_556 S
N460 H472 0.984 1_556 S
N460 H473 0.985 . S
N461 C463 1.356 . S
N461 H466 0.984 . S
N461 H467 0.985 . S
C462 C456 1.379 . S
C462 C459 1.363 1_554 S
C462 N460 1.356 1_554 S
C463 C457 1.363 . S
C463 C458 1.379 . S
C463 N461 1.356 . S
N464 C456 1.356 . S
N464 H470 0.984 . S
N464 H471 0.984 . S
N465 C458 1.356 1_556 S
N465 H468 0.984 . S
N465 H469 0.985 . S
H466 N461 0.984 . S
H467 N461 0.985 . S
H468 N465 0.984 . S
H469 N465 0.985 . S
H470 N464 0.984 . S
H471 N464 0.984 . S
H472 N460 0.984 1_554 S
H473 N460 0.985 . S
C474 C475 1.363 . S
C474 C480 1.379 1_554 S
C474 N482 1.356 . S
C475 C474 1.363 . S
C475 C481 1.363 . S
C476 C477 1.363 . S
C476 C481 1.379 1_556 S
C476 N483 1.356 . S
C477 C476 1.363 . S
C477 C480 1.363 . S
N478 C480 1.356 . S
N478 H490 0.984 . S
N478 H491 0.985 . S
N479 C481 1.356 . S
N479 H484 0.984 . S
N479 H485 0.985 . S
C480 C474 1.379 1_556 S
C480 C477 1.363 . S
C480 N478 1.356 . S
C481 C475 1.363 . S
C481 C476 1.379 1_554 S
C481 N479 1.356 . S
N482 C474 1.356 . S
N482 H488 0.984 . S
N482 H489 0.984 . S
N483 C476 1.356 . S
N483 H486 0.984 . S
N483 H487 0.985 . S
H484 N479 0.984 . S
H485 N479 0.985 . S
H486 N483 0.984 . S
H487 N483 0.985 . S
H488 N482 0.984 . S
H489 N482 0.984 . S
H490 N478 0.984 . S
H491 N478 0.985 . S
C492 C493 1.363 . S
C492 C498 1.379 1_554 S
C492 N500 1.356 . S
C493 C492 1.363 . S
C493 C499 1.363 . S
C494 C495 1.363 . S
C494 C499 1.379 1_556 S
C494 N501 1.356 . S
C495 C494 1.363 . S
C495 C498 1.363 . S
N496 C498 1.356 . S
N496 H508 0.984 . S
N496 H509 0.985 . S
N497 C499 1.356 . S
N497 H502 0.984 . S
N497 H503 0.985 . S
C498 C492 1.379 1_556 S
C498 C495 1.363 . S
C498 N496 1.356 . S
C499 C493 1.363 . S
C499 C494 1.379 1_554 S
C499 N497 1.356 . S
N500 C492 1.356 . S
N500 H506 0.984 . S
N500 H507 0.984 . S
N501 C494 1.356 . S
N501 H504 0.984 . S
N501 H505 0.985 . S
H502 N497 0.984 . S
H503 N497 0.985 . S
H504 N501 0.984 . S
H505 N501 0.985 . S
H506 N500 0.984 . S
H507 N500 0.984 . S
H508 N496 0.984 . S
H509 N496 0.985 . S
C510 C511 1.363 . S
C510 C516 1.379 . S
C510 N518 1.356 . S
C511 C510 1.363 . S
C511 C517 1.363 . S
C512 C513 1.363 1_556 S
C512 C517 1.379 . S
C512 N519 1.356 1_556 S
C513 C512 1.363 1_554 S
C513 C516 1.363 1_554 S
N514 C516 1.356 1_554 S
N514 H526 0.984 1_554 S
N514 H527 0.985 . S
N515 C517 1.356 . S
N515 H520 0.984 . S
N515 H521 0.985 . S
C516 C510 1.379 . S
C516 C513 1.363 1_556 S
C516 N514 1.356 1_556 S
C517 C511 1.363 . S
C517 C512 1.379 . S
C517 N515 1.356 . S
N518 C510 1.356 . S
N518 H524 0.984 . S
N518 H525 0.984 . S
N519 C512 1.356 1_554 S
N519 H522 0.984 . S
N519 H523 0.985 . S
H520 N515 0.984 . S
H521 N515 0.985 . S
H522 N519 0.984 . S
H523 N519 0.985 . S
H524 N518 0.984 . S
H525 N518 0.984 . S
H526 N514 0.984 1_556 S
H527 N514 0.985 . S
C528 C529 1.363 . S
C528 C534 1.379 . S
C528 N536 1.356 . S
C529 C528 1.363 . S
C529 C535 1.363 . S
C530 C531 1.363 . S
C530 C535 1.379 . S
C530 N537 1.356 . S
C531 C530 1.363 . S
C531 C534 1.363 . S
N532 C534 1.356 . S
N532 H544 0.984 . S
N532 H545 0.985 . S
N533 C535 1.356 . S
N533 H538 0.984 . S
N533 H539 0.985 . S
C534 C528 1.379 . S
C534 C531 1.363 . S
C534 N532 1.356 . S
C535 C529 1.363 . S
C535 C530 1.379 . S
C535 N533 1.356 . S
N536 C528 1.356 . S
N536 H542 0.984 . S
N536 H543 0.984 . S
N537 C530 1.356 . S
N537 H540 0.984 . S
N537 H541 0.985 . S
H538 N533 0.984 . S
H539 N533 0.985 . S
H540 N537 0.984 . S
H541 N537 0.985 . S
H542 N536 0.984 . S
H543 N536 0.984 . S
H544 N532 0.984 . S
H545 N532 0.985 . S
C546 C547 1.363 . S
C546 C552 1.379 . S
C546 N554 1.356 . S
C547 C546 1.363 . S
C547 C553 1.363 . S
C548 C549 1.363 . S
C548 C553 1.379 . S
C548 N555 1.356 . S
C549 C548 1.363 . S
C549 C552 1.363 . S
N550 C552 1.356 . S
N550 H562 0.984 . S
N550 H563 0.985 . S
N551 C553 1.356 . S
N551 H556 0.984 . S
N551 H557 0.985 . S
C552 C546 1.379 . S
C552 C549 1.363 . S
C552 N550 1.356 . S
C553 C547 1.363 . S
C553 C548 1.379 . S
C553 N551 1.356 . S
N554 C546 1.356 . S
N554 H560 0.984 . S
N554 H561 0.984 . S
N555 C548 1.356 . S
N555 H558 0.984 . S
N555 H559 0.985 . S
H556 N551 0.984 . S
H557 N551 0.985 . S
H558 N555 0.984 . S
H559 N555 0.985 . S
H560 N554 0.984 . S
H561 N554 0.984 . S
H562 N550 0.984 . S
H563 N550 0.985 . S
C564 C565 1.363 . S
C564 C570 1.379 . S
C564 N572 1.356 . S
C565 C564 1.363 . S
C565 C571 1.363 . S
C566 C567 1.363 . S
C566 C571 1.379 . S
C566 N573 1.356 . S
C567 C566 1.363 . S
C567 C570 1.363 . S
N568 C570 1.356 . S
N568 H580 0.984 . S
N568 H581 0.985 . S
N569 C571 1.356 . S
N569 H574 0.984 . S
N569 H575 0.985 . S
C570 C564 1.379 . S
C570 C567 1.363 . S
C570 N568 1.356 . S
C571 C565 1.363 . S
C571 C566 1.379 . S
C571 N569 1.356 . S
N572 C564 1.356 . S
N572 H578 0.984 . S
N572 H579 0.984 . S
N573 C566 1.356 . S
N573 H576 0.984 . S
N573 H577 0.985 . S
H574 N569 0.984 . S
H575 N569 0.985 . S
H576 N573 0.984 . S
H577 N573 0.985 . S
H578 N572 0.984 . S
H579 N572 0.984 . S
H580 N568 0.984 . S
H581 N568 0.985 . S
C582 C583 1.363 . S
C582 C588 1.379 . S
C582 N590 1.356 . S
C583 C582 1.363 . S
C583 C589 1.363 . S
C584 C585 1.363 . S
C584 C589 1.379 . S
C584 N591 1.356 . S
C585 C584 1.363 . S
C585 C588 1.363 . S
N586 C588 1.356 . S
N586 H598 0.984 . S
N586 H599 0.985 . S
N587 C589 1.356 . S
N587 H592 0.984 . S
N587 H593 0.985 . S
C588 C582 1.379 . S
C588 C585 1.363 . S
C588 N586 1.356 . S
C589 C583 1.363 . S
C589 C584 1.379 . S
C589 N587 1.356 . S
N590 C582 1.356 . S
N590 H596 0.984 . S
N590 H597 0.984 . S
N591 C584 1.356 . S
N591 H594 0.984 . S
N591 H595 0.985 . S
H592 N587 0.984 . S
H593 N587 0.985 . S
H594 N591 0.984 . S
H595 N591 0.985 . S
H596 N590 0.984 . S
H597 N590 0.984 . S
H598 N586 0.984 . S
H599 N586 0.985 . S
C600 C601 1.363 . S
C600 C606 1.379 . S
C600 N608 1.356 . S
C601 C600 1.363 . S
C601 C607 1.363 . S
C602 C603 1.363 . S
C602 C607 1.379 . S
C602 N609 1.356 . S
C603 C602 1.363 . S
C603 C606 1.363 . S
N604 C606 1.356 . S
N604 H616 0.984 . S
N604 H617 0.985 1_455 S
N605 C607 1.356 . S
N605 H610 0.984 . S
N605 H611 0.985 . S
C606 C600 1.379 . S
C606 C603 1.363 . S
C606 N604 1.356 . S
C607 C601 1.363 . S
C607 C602 1.379 . S
C607 N605 1.356 . S
N608 C600 1.356 . S
N608 H614 0.984 . S
N608 H615 0.984 . S
N609 C602 1.356 . S
N609 H612 0.984 1_455 S
N609 H613 0.985 . S
H610 N605 0.984 . S
H611 N605 0.985 . S
H612 N609 0.984 1_655 S
H613 N609 0.985 . S
H614 N608 0.984 . S
H615 N608 0.984 . S
H616 N604 0.984 . S
H617 N604 0.985 1_655 S
C618 C619 1.363 . S
C618 C624 1.379 . S
C618 N626 1.356 . S
C619 C618 1.363 . S
C619 C625 1.363 . S
C620 C621 1.363 . S
C620 C625 1.379 . S
C620 N627 1.356 . S
C621 C620 1.363 . S
C621 C624 1.363 . S
N622 C624 1.356 . S
N622 H634 0.984 . S
N622 H635 0.985 1_655 S
N623 C625 1.356 . S
N623 H628 0.984 . S
N623 H629 0.985 . S
C624 C618 1.379 . S
C624 C621 1.363 . S
C624 N622 1.356 . S
C625 C619 1.363 . S
C625 C620 1.379 . S
C625 N623 1.356 . S
N626 C618 1.356 . S
N626 H632 0.984 . S
N626 H633 0.984 . S
N627 C620 1.356 . S
N627 H630 0.984 1_655 S
N627 H631 0.985 . S
H628 N623 0.984 . S
H629 N623 0.985 . S
H630 N627 0.984 1_455 S
H631 N627 0.985 . S
H632 N626 0.984 . S
H633 N626 0.984 . S
H634 N622 0.984 . S
H635 N622 0.985 1_455 S
C636 C637 1.363 . S
C636 C642 1.379 . S
C636 N644 1.356 . S
C637 C636 1.363 . S
C637 C643 1.363 1_554 S
C638 C639 1.363 . S
C638 C643 1.379 . S
C638 N645 1.356 . S
C639 C638 1.363 . S
C639 C642 1.363 1_556 S
N640 C642 1.356 . S
N640 H652 0.984 . S
N640 H653 0.985 . S
N641 C643 1.356 . S
N641 H646 0.984 . S
N641 H647 0.985 . S
C642 C636 1.379 . S
C642 C639 1.363 1_554 S
C642 N640 1.356 . S
C643 C637 1.363 1_556 S
C643 C638 1.379 . S
C643 N641 1.356 . S
N644 C636 1.356 . S
N644 H650 0.984 . S
N644 H651 0.984 . S
N645 C638 1.356 . S
N645 H648 0.984 . S
N645 H649 0.985 . S
H646 N641 0.984 . S
H647 N641 0.985 . S
H648 N645 0.984 . S
H649 N645 0.985 . S
H650 N644 0.984 . S
H651 N644 0.984 . S
H652 N640 0.984 . S
H653 N640 0.985 . S
C654 C655 1.363 1_554 S
C654 C660 1.379 . S
C654 N662 1.356 . S
C655 C654 1.363 1_556 S
C655 C661 1.363 . S
C656 C657 1.363 1_556 S
C656 C661 1.379 . S
C656 N663 1.356 . S
C657 C656 1.363 1_554 S
C657 C660 1.363 . S
N658 C660 1.356 . S
N658 H670 0.984 . S
N658 H671 0.985 . S
N659 C661 1.356 . S
N659 H664 0.984 . S
N659 H665 0.985 . S
C660 C654 1.379 . S
C660 C657 1.363 . S
C660 N658 1.356 . S
C661 C655 1.363 . S
C661 C656 1.379 . S
C661 N659 1.356 . S
N662 C654 1.356 . S
N662 H668 0.984 . S
N662 H669 0.984 . S
N663 C656 1.356 . S
N663 H666 0.984 . S
N663 H667 0.985 . S
H664 N659 0.984 . S
H665 N659 0.985 . S
H666 N663 0.984 . S
H667 N663 0.985 . S
H668 N662 0.984 . S
H669 N662 0.984 . S
H670 N658 0.984 . S
H671 N658 0.985 . S
C241 C16 2.368 . S
C243 C237 2.368 . S
C259 N186 1.600 . S
C261 N44 1.600 . S
C277 N164 1.600 . S
C279 N66 1.600 . S
C295 C136 2.368 . S
C297 C117 2.368 . S
C313 C61 1.681 . S
C315 C10 1.659 . S
C331 C31 1.666 . S
C333 C100 1.693 . S
C349 C91 1.659 . S
C351 C40 1.681 . S
C367 C70 1.666 . S
C369 C1 1.693 . S
C385 C130 1.659 . S
C387 C181 1.681 . S
C403 C151 1.666 . S
C405 C220 1.693 . S
C421 C211 1.659 . S
C423 C160 1.681 . S
C439 C190 1.666 . S
C441 C121 1.693 . S
C457 N14 0.501 . S
C459 N6 0.501 . S
C475 C46 2.861 . S
C477 C57 2.861 . S
C493 C76 2.861 . S
C495 C87 2.861 . S
C511 N96 0.501 . S
C513 N104 0.501 . S
C529 N126 0.501 . S
C531 N134 0.501 . S
C547 C166 2.861 . S
C549 C177 2.861 . S
C565 C207 2.861 . S
C567 C196 2.861 . S
C583 N216 0.501 . S
C585 N224 0.501 . S
C601 C27 1.634 . S
C603 N36 1.552 1_455 S
C619 C106 1.634 . S
C621 N74 1.552 1_655 S
C637 C147 1.634 . S
C639 N156 1.552 . S
C655 C226 1.634 . S
C657 N194 1.552 . S
