# Generated by pormake.
# Topology uol, (4)-cn, num edge types: 1
# Building blocks:
#     Node 0, Type 0, BuildingBlock: MUDLON_clean_sbu_0, # of connection points: 4
#     Node 1, Type 0, BuildingBlock: MUDLON_clean_sbu_0, # of connection points: 4
#     Node 2, Type 0, BuildingBlock: MUDLON_clean_sbu_0, # of connection points: 4
#     Node 3, Type 0, BuildingBlock: MUDLON_clean_sbu_0, # of connection points: 4
#     Node 4, Type 0, BuildingBlock: MUDLON_clean_sbu_0, # of connection points: 4
#     Node 5, Type 0, BuildingBlock: MUDLON_clean_sbu_0, # of connection points: 4
#     Node 6, Type 0, BuildingBlock: MUDLON_clean_sbu_0, # of connection points: 4
#     Node 7, Type 0, BuildingBlock: MUDLON_clean_sbu_0, # of connection points: 4
#     Node 8, Type 0, BuildingBlock: MUDLON_clean_sbu_0, # of connection points: 4
#     Node 9, Type 0, BuildingBlock: MUDLON_clean_sbu_0, # of connection points: 4
#     Node 10, Type 0, BuildingBlock: MUDLON_clean_sbu_0, # of connection points: 4
#     Node 11, Type 0, BuildingBlock: MUDLON_clean_sbu_0, # of connection points: 4
#     Edge 12, Type (0, 0), BuildingBlock: XUDNAN_clean_linker_2, # of connection points: 2
#     Edge 13, Type (0, 0), BuildingBlock: XUDNAN_clean_linker_2, # of connection points: 2
#     Edge 14, Type (0, 0), BuildingBlock: XUDNAN_clean_linker_2, # of connection points: 2
#     Edge 15, Type (0, 0), BuildingBlock: XUDNAN_clean_linker_2, # of connection points: 2
#     Edge 16, Type (0, 0), BuildingBlock: XUDNAN_clean_linker_2, # of connection points: 2
#     Edge 17, Type (0, 0), BuildingBlock: XUDNAN_clean_linker_2, # of connection points: 2
#     Edge 18, Type (0, 0), BuildingBlock: XUDNAN_clean_linker_2, # of connection points: 2
#     Edge 19, Type (0, 0), BuildingBlock: XUDNAN_clean_linker_2, # of connection points: 2
#     Edge 20, Type (0, 0), BuildingBlock: XUDNAN_clean_linker_2, # of connection points: 2
#     Edge 21, Type (0, 0), BuildingBlock: XUDNAN_clean_linker_2, # of connection points: 2
#     Edge 22, Type (0, 0), BuildingBlock: XUDNAN_clean_linker_2, # of connection points: 2
#     Edge 23, Type (0, 0), BuildingBlock: XUDNAN_clean_linker_2, # of connection points: 2
#     Edge 24, Type (0, 0), BuildingBlock: XUDNAN_clean_linker_2, # of connection points: 2
#     Edge 25, Type (0, 0), BuildingBlock: XUDNAN_clean_linker_2, # of connection points: 2
#     Edge 26, Type (0, 0), BuildingBlock: XUDNAN_clean_linker_2, # of connection points: 2
#     Edge 27, Type (0, 0), BuildingBlock: XUDNAN_clean_linker_2, # of connection points: 2
#     Edge 28, Type (0, 0), BuildingBlock: XUDNAN_clean_linker_2, # of connection points: 2
#     Edge 29, Type (0, 0), BuildingBlock: XUDNAN_clean_linker_2, # of connection points: 2
#     Edge 30, Type (0, 0), BuildingBlock: XUDNAN_clean_linker_2, # of connection points: 2
#     Edge 31, Type (0, 0), BuildingBlock: XUDNAN_clean_linker_2, # of connection points: 2
#     Edge 32, Type (0, 0), BuildingBlock: XUDNAN_clean_linker_2, # of connection points: 2
#     Edge 33, Type (0, 0), BuildingBlock: XUDNAN_clean_linker_2, # of connection points: 2
#     Edge 34, Type (0, 0), BuildingBlock: XUDNAN_clean_linker_2, # of connection points: 2
#     Edge 35, Type (0, 0), BuildingBlock: XUDNAN_clean_linker_2, # of connection points: 2
# Relax obj value: 0.129
# Max RMSD: 0.264
# Mean RMSD: 0.264
data_MOF--net-uol--node1-MUDLON_clean_sbu_0--edge1-XUDNAN_clean_linker_2
_symmetry_space_group_name_H-M    P1
_symmetry_Int_Tables_number       1
_symmetry_cell_setting            triclinic
loop_
_symmetry_equiv_pos_as_xyz
'x, y, z'
_cell_length_a     33.593265
_cell_length_b     33.588635
_cell_length_c     72.180906
_cell_angle_alpha  89.907227
_cell_angle_beta   90.132024
_cell_angle_gamma 120.13994
loop_
_atom_site_label
_atom_site_type_symbol
_atom_site_fract_x
_atom_site_fract_y
_atom_site_fract_z
_atom_type_partial_charge
Mg0 Mg 0.13115 0.33081 0.11726 0.0
C1 C 0.04772 0.30073 0.1417 0.0
O2 O 0.0634 0.34526 0.14121 0.0
C3 C 0.17959 0.31976 0.08524 0.0
O4 O 0.21317 0.35266 0.0949 0.0
C5 C 0.1477 0.4302 0.12035 0.0
O6 O 0.16061 0.42892 0.13743 0.0
O7 O 0.13453 0.39527 0.10993 0.0
O8 O 0.06772 0.28433 0.13201 0.0
O9 O 0.18744 0.33989 0.13509 0.0
C10 C 0.18123 0.33353 0.15246 0.0
O11 O 0.14219 0.32622 0.15958 0.0
O12 O 0.13867 0.30193 0.09138 0.0
Mg13 Mg 0.8103 0.14418 0.28837 0.0
C14 C 0.90622 0.21163 0.30109 0.0
O15 O 0.91505 0.19124 0.2875 0.0
C16 C 0.71334 0.12347 0.28032 0.0
O17 O 0.70713 0.08174 0.27887 0.0
C18 C 0.85181 0.18057 0.25167 0.0
O19 O 0.84667 0.21385 0.25863 0.0
O20 O 0.83836 0.14409 0.26118 0.0
O21 O 0.86457 0.19986 0.30444 0.0
O22 O 0.78697 0.08054 0.30413 0.0
C23 C 0.81162 0.0795 0.31735 0.0
O24 O 0.85199 0.116 0.32049 0.0
O25 O 0.75316 0.15655 0.28442 0.0
Mg26 Mg 0.67588 0.80605 0.45604 0.0
C27 C 0.68869 0.89367 0.4745 0.0
O28 O 0.70784 0.91222 0.45856 0.0
C29 C 0.6093 0.71597 0.43995 0.0
O30 O 0.64731 0.72774 0.43071 0.0
C31 C 0.73319 0.87145 0.42391 0.0
O32 O 0.76785 0.88692 0.4356 0.0
O33 O 0.6938 0.83917 0.42892 0.0
O34 O 0.67079 0.85043 0.47669 0.0
O35 O 0.72386 0.78563 0.46685 0.0
C36 C 0.74739 0.80483 0.48135 0.0
O37 O 0.74549 0.83972 0.48856 0.0
O38 O 0.61007 0.74311 0.45238 0.0
Mg39 Mg 0.87005 0.67682 0.61914 0.0
C40 C 0.97181 0.7339 0.63332 0.0
O41 O 0.98392 0.72539 0.61717 0.0
C42 C 0.85602 0.67806 0.57761 0.0
O43 O 0.84059 0.63387 0.57986 0.0
C44 C 0.88095 0.59354 0.60944 0.0
O45 O 0.91614 0.62399 0.59969 0.0
O46 O 0.85675 0.60632 0.61844 0.0
O47 O 0.92951 0.71893 0.63668 0.0
O48 O 0.81322 0.67755 0.63316 0.0
C49 C 0.8155 0.68457 0.65054 0.0
O50 O 0.85096 0.68836 0.6598 0.0
O51 O 0.8726 0.70476 0.59152 0.0
Mg52 Mg 0.21465 0.87847 0.78087 0.0
C53 C 0.13365 0.78736 0.79657 0.0
O54 O 0.1367 0.76792 0.78128 0.0
C55 C 0.31152 0.89761 0.77467 0.0
O56 O 0.31728 0.93844 0.77086 0.0
C57 C 0.14576 0.85581 0.74909 0.0
O58 O 0.11645 0.8447 0.76283 0.0
O59 O 0.18824 0.87218 0.75273 0.0
O60 O 0.16125 0.83 0.79926 0.0
O61 O 0.23585 0.94458 0.79403 0.0
C62 C 0.26359 0.95597 0.80765 0.0
O63 O 0.28091 0.92969 0.81192 0.0
O64 O 0.27192 0.86557 0.77961 0.0
Mg65 Mg 0.34332 0.20853 0.94951 0.0
C66 C 0.35423 0.12886 0.96591 0.0
O67 O 0.36894 0.12616 0.94938 0.0
C68 C 0.41444 0.29311 0.9307 0.0
O69 O 0.37833 0.27974 0.91994 0.0
C70 C 0.34229 0.16743 0.91251 0.0
O71 O 0.38512 0.18292 0.91768 0.0
O72 O 0.31576 0.17386 0.92308 0.0
O73 O 0.34432 0.16004 0.96921 0.0
O74 O 0.29862 0.22877 0.96325 0.0
C75 C 0.31515 0.25221 0.97798 0.0
O76 O 0.35786 0.26516 0.98254 0.0
O77 O 0.41064 0.26922 0.94498 0.0
Mg78 Mg 0.68569 0.88834 0.75319 0.0
C79 C 0.66484 0.81545 0.72364 0.0
O80 O 0.63181 0.8239 0.71925 0.0
C81 C 0.60531 0.9046 0.75731 0.0
O82 O 0.63929 0.94735 0.75851 0.0
C83 C 0.73395 0.87033 0.78473 0.0
O84 O 0.74876 0.85618 0.7708 0.0
O85 O 0.7087 0.88775 0.78137 0.0
O86 O 0.69069 0.8361 0.7374 0.0
O87 O 0.72804 0.95251 0.73824 0.0
C88 C 0.71096 0.95799 0.72337 0.0
O89 O 0.66874 0.92671 0.7188 0.0
O90 O 0.61457 0.87267 0.75473 0.0
Mg91 Mg 0.80546 0.66287 0.90905 0.0
C92 C 0.77544 0.73341 0.8976 0.0
O93 O 0.75247 0.72249 0.91326 0.0
C94 C 0.85912 0.66938 0.94306 0.0
O95 O 0.86475 0.64022 0.93285 0.0
C96 C 0.72079 0.57146 0.9219 0.0
O97 O 0.74446 0.57789 0.93722 0.0
O98 O 0.73822 0.60058 0.90879 0.0
O99 O 0.79953 0.71518 0.89356 0.0
O100 O 0.85407 0.65395 0.89235 0.0
C101 C 0.89341 0.68984 0.89061 0.0
O102 O 0.90197 0.72702 0.89984 0.0
O103 O 0.83411 0.68491 0.93681 0.0
Mg104 Mg 0.14107 0.79861 0.07821 0.0
C105 C 0.2004 0.88729 0.05867 0.0
O106 O 0.17349 0.89725 0.06838 0.0
C107 C 0.15071 0.72004 0.09551 0.0
O108 O 0.15554 0.74243 0.11103 0.0
C109 C 0.18971 0.85745 0.11083 0.0
O110 O 0.22404 0.86346 0.10023 0.0
O111 O 0.14873 0.83071 0.10527 0.0
O112 O 0.19562 0.84743 0.06026 0.0
O113 O 0.0777 0.78155 0.06346 0.0
C114 C 0.07087 0.75743 0.04895 0.0
O115 O 0.10048 0.74404 0.04494 0.0
O116 O 0.14499 0.73608 0.0804 0.0
Mg117 Mg 0.34195 0.13303 0.24833 0.0
C118 C 0.30921 0.195 0.2338 0.0
O119 O 0.278 0.17186 0.24649 0.0
C120 C 0.42141 0.11517 0.25436 0.0
O121 O 0.38772 0.07219 0.2538 0.0
C122 C 0.33675 0.17142 0.28441 0.0
O123 O 0.3754 0.20407 0.27725 0.0
O124 O 0.31351 0.13433 0.27529 0.0
O125 O 0.34199 0.18685 0.23158 0.0
O126 O 0.30085 0.06957 0.2328 0.0
C127 C 0.31733 0.0666 0.21734 0.0
O128 O 0.35827 0.10006 0.21247 0.0
O129 O 0.4122 0.14729 0.25223 0.0
Mg130 Mg 0.22304 0.34181 0.41647 0.0
C131 C 0.26739 0.30293 0.39218 0.0
O132 O 0.29826 0.347 0.39209 0.0
C133 C 0.15013 0.30182 0.44567 0.0
O134 O 0.12533 0.2918 0.43047 0.0
C135 C 0.30339 0.438 0.42839 0.0
O136 O 0.27526 0.43665 0.44132 0.0
O137 O 0.28975 0.40475 0.41704 0.0
O138 O 0.2318 0.28912 0.40228 0.0
O139 O 0.17411 0.35032 0.39959 0.0
C140 C 0.17343 0.34491 0.38215 0.0
O141 O 0.2053 0.33863 0.3745 0.0
O142 O 0.19375 0.32198 0.44424 0.0
Mg143 Mg 0.88332 0.22433 0.58353 0.0
C144 C 0.82296 0.13036 0.5686 0.0
O145 O 0.84782 0.12337 0.58084 0.0
C146 C 0.85216 0.28764 0.59954 0.0
O147 O 0.83132 0.25257 0.6109 0.0
C148 C 0.83744 0.16614 0.61673 0.0
O149 O 0.80241 0.15888 0.60623 0.0
O150 O 0.87807 0.19351 0.61092 0.0
O151 O 0.82933 0.17075 0.56647 0.0
O152 O 0.94672 0.24264 0.56855 0.0
C153 C 0.94296 0.24334 0.551 0.0
O154 O 0.9033 0.23475 0.54398 0.0
O155 O 0.87612 0.28543 0.58638 0.0
H156 H 0.1637 0.67605 0.12518 0.0
H157 H 0.13677 0.66356 0.06596 0.0
H158 H 0.13426 0.58896 0.06596 0.0
H159 H 0.23706 0.62559 0.12533 0.0
H160 H 0.21524 0.5962 0.14708 0.0
H161 H 0.21563 0.64912 0.14246 0.0
H162 H 0.12802 0.60836 0.14896 0.0
H163 H 0.12735 0.55532 0.15357 0.0
H164 H 0.08953 0.55702 0.13623 0.0
H165 H 0.13252 0.51503 0.07235 0.0
H166 H 0.13323 0.44692 0.08463 0.0
H167 H 0.16233 0.50718 0.13969 0.0
C168 C 0.15745 0.65774 0.11219 0.0
C169 C 0.15045 0.67577 0.09556 0.0
C170 C 0.14232 0.6506 0.07888 0.0
C171 C 0.14079 0.60813 0.07873 0.0
C172 C 0.14762 0.59128 0.09535 0.0
C173 C 0.15594 0.61528 0.11177 0.0
C174 C 0.16181 0.58916 0.12771 0.0
C175 C 0.21032 0.61666 0.13614 0.0
C176 C 0.12445 0.57673 0.14248 0.0
C177 C 0.15524 0.54665 0.11767 0.0
C178 C 0.14704 0.54863 0.09902 0.0
C179 C 0.13909 0.51314 0.08692 0.0
C180 C 0.13949 0.47453 0.09405 0.0
C181 C 0.14794 0.47165 0.11313 0.0
C182 C 0.15604 0.5084 0.12504 0.0
H183 H 0.62307 0.05954 0.27304 0.0
H184 H 0.71599 0.20646 0.27966 0.0
H185 H 0.65171 0.22044 0.27338 0.0
H186 H 0.55598 0.06719 0.23581 0.0
H187 H 0.50237 0.0199 0.24405 0.0
H188 H 0.5557 0.02146 0.24903 0.0
H189 H 0.5375 0.01469 0.28415 0.0
H190 H 0.48407 0.01299 0.27927 0.0
H191 H 0.52518 0.0557 0.29492 0.0
H192 H 0.57721 0.2184 0.26611 0.0
H193 H 0.49779 0.20036 0.25928 0.0
H194 H 0.45355 0.0547 0.25774 0.0
C195 C 0.62999 0.09469 0.27317 0.0
C196 C 0.67466 0.13192 0.27683 0.0
C197 C 0.6821 0.17736 0.27692 0.0
C198 C 0.64581 0.18567 0.27333 0.0
C199 C 0.60225 0.14819 0.26973 0.0
C200 C 0.59417 0.1036 0.26968 0.0
C201 C 0.5441 0.06936 0.26557 0.0
C202 C 0.53928 0.04293 0.24754 0.0
C203 C 0.52139 0.03624 0.28196 0.0
C204 C 0.52523 0.10165 0.26332 0.0
C205 C 0.55935 0.14699 0.26571 0.0
C206 C 0.55021 0.18301 0.26424 0.0
C207 C 0.50497 0.1724 0.26033 0.0
C208 C 0.46934 0.12611 0.25799 0.0
C209 C 0.4799 0.09043 0.25948 0.0
H210 H 0.52378 0.6795 0.45642 0.0
H211 H 0.59841 0.65297 0.4137 0.0
H212 H 0.52828 0.58004 0.40607 0.0
H213 H 0.45526 0.56205 0.47189 0.0
H214 H 0.40425 0.56578 0.47581 0.0
H215 H 0.46026 0.61646 0.47792 0.0
H216 H 0.43698 0.65857 0.45391 0.0
H217 H 0.38091 0.60798 0.4517 0.0
H218 H 0.41615 0.63301 0.43145 0.0
H219 H 0.45086 0.51044 0.40286 0.0
H220 H 0.37061 0.44706 0.40464 0.0
H221 H 0.345 0.51723 0.44956 0.0
C222 C 0.52535 0.65835 0.44546 0.0
C223 C 0.5667 0.67208 0.43565 0.0
C224 C 0.56725 0.64334 0.42142 0.0
C225 C 0.52755 0.60179 0.41696 0.0
C226 C 0.48744 0.58932 0.42684 0.0
C227 C 0.48591 0.61658 0.44081 0.0
C228 C 0.43822 0.59473 0.44931 0.0
C229 C 0.4396 0.58412 0.46995 0.0
C230 C 0.41681 0.6254 0.44641 0.0
C231 C 0.41335 0.55089 0.43796 0.0
C232 C 0.44246 0.54868 0.42504 0.0
C233 C 0.42769 0.51173 0.41291 0.0
C234 C 0.38194 0.47588 0.41404 0.0
C235 C 0.35135 0.47703 0.42724 0.0
C236 C 0.36744 0.51524 0.43932 0.0
H237 H 0.91865 0.55163 0.58883 0.0
H238 H 0.81699 0.5249 0.63139 0.0
H239 H 0.79781 0.44386 0.6328 0.0
H240 H 0.85287 0.44199 0.56521 0.0
H241 H 0.90262 0.43694 0.56004 0.0
H242 H 0.9083 0.49302 0.56215 0.0
H243 H 0.97129 0.51515 0.58722 0.0
H244 H 0.96583 0.45919 0.58518 0.0
H245 H 0.95893 0.47924 0.60743 0.0
H246 H 0.79084 0.36665 0.63033 0.0
H247 H 0.7957 0.29728 0.6239 0.0
H248 H 0.90083 0.37263 0.58246 0.0
C249 C 0.89231 0.52873 0.59843 0.0
C250 C 0.86935 0.54473 0.61002 0.0
C251 C 0.83501 0.51354 0.62235 0.0
C252 C 0.82385 0.46739 0.62326 0.0
C253 C 0.84711 0.45278 0.61168 0.0
C254 C 0.8805 0.48237 0.59945 0.0
C255 C 0.9003 0.45765 0.58859 0.0
C256 C 0.89042 0.45739 0.56776 0.0
C257 C 0.95216 0.47909 0.59234 0.0
C258 C 0.87315 0.4097 0.5968 0.0
C259 C 0.84265 0.40778 0.61008 0.0
C260 C 0.81441 0.36764 0.6199 0.0
C261 C 0.8175 0.32839 0.61614 0.0
C262 C 0.84855 0.32936 0.60263 0.0
C263 C 0.87652 0.37064 0.59277 0.0
H264 H 0.57328 0.96523 0.75909 0.0
H265 H 0.52814 0.81939 0.76082 0.0
H266 H 0.44808 0.80159 0.76576 0.0
H267 H 0.49759 0.96404 0.79417 0.0
H268 H 0.48711 1.00554 0.78263 0.0
H269 H 0.54078 1.00676 0.77915 0.0
H270 H 0.52716 1.00051 0.74366 0.0
H271 H 0.47355 0.99948 0.74701 0.0
H272 H 0.47453 0.95368 0.73442 0.0
H273 H 0.37308 0.79998 0.77141 0.0
H274 H 0.3084 0.81442 0.7756 0.0
H275 H 0.40266 0.96116 0.76934 0.0
C276 C 0.5466 0.92951 0.76048 0.0
C277 C 0.55705 0.8937 0.75962 0.0
C278 C 0.521 0.84742 0.76141 0.0
C279 C 0.47543 0.83697 0.76426 0.0
C280 C 0.46641 0.87314 0.76518 0.0
C281 C 0.50094 0.91846 0.7632 0.0
C282 C 0.48209 0.95093 0.76452 0.0
C283 C 0.50315 0.98374 0.78111 0.0
C284 C 0.48979 0.97771 0.74632 0.0
C285 C 0.43155 0.91683 0.76761 0.0
C286 C 0.42321 0.87215 0.76805 0.0
C287 C 0.37918 0.83482 0.771 0.0
C288 C 0.34268 0.84338 0.77342 0.0
C289 C 0.35039 0.88889 0.77274 0.0
C290 C 0.39553 0.92595 0.76984 0.0
H291 H 0.49349 0.33803 0.95191 0.0
H292 H 0.43475 0.34381 0.899 0.0
H293 H 0.50683 0.4145 0.89102 0.0
H294 H 0.55454 0.46007 0.96022 0.0
H295 H 0.60379 0.461 0.97067 0.0
H296 H 0.54792 0.40994 0.97219 0.0
H297 H 0.58055 0.36199 0.95745 0.0
H298 H 0.63655 0.41291 0.95589 0.0
H299 H 0.60955 0.37935 0.93542 0.0
H300 H 0.58439 0.48453 0.88867 0.0
H301 H 0.66283 0.5506 0.89227 0.0
H302 H 0.67213 0.50098 0.94683 0.0
C303 C 0.49589 0.35406 0.93862 0.0
C304 C 0.4584 0.33525 0.92607 0.0
C305 C 0.46287 0.35749 0.90886 0.0
C306 C 0.50374 0.39768 0.90417 0.0
C307 C 0.53991 0.41541 0.91684 0.0
C308 C 0.53649 0.39448 0.93372 0.0
C309 C 0.58042 0.42136 0.94491 0.0
C310 C 0.57109 0.43915 0.96307 0.0
C311 C 0.6031 0.39215 0.94863 0.0
C312 C 0.60894 0.4606 0.93165 0.0
C313 C 0.58485 0.45632 0.91554 0.0
C314 C 0.60367 0.48827 0.90122 0.0
C315 C 0.64832 0.52573 0.90341 0.0
C316 C 0.6738 0.53111 0.91983 0.0
C317 C 0.65366 0.49792 0.93411 0.0
H318 H 0.24233 0.2186 0.23507 0.0
H319 H 0.36275 0.24252 0.20392 0.0
H320 H 0.34833 0.28933 0.18136 0.0
H321 H 0.17225 0.20217 0.19739 0.0
H322 H 0.14356 0.23029 0.20728 0.0
H323 H 0.16699 0.20418 0.22218 0.0
H324 H 0.2154 0.28172 0.23939 0.0
H325 H 0.19203 0.30813 0.22451 0.0
H326 H 0.25348 0.33273 0.2264 0.0
H327 H 0.31523 0.32557 0.16028 0.0
H328 H 0.26646 0.34801 0.14259 0.0
H329 H 0.1687 0.3012 0.18798 0.0
C330 C 0.26628 0.23442 0.22373 0.0
C331 C 0.30374 0.22695 0.22129 0.0
C332 C 0.33393 0.24792 0.20613 0.0
C333 C 0.32607 0.27466 0.19326 0.0
C334 C 0.28819 0.28049 0.19587 0.0
C335 C 0.25901 0.26122 0.21083 0.0
C336 C 0.2188 0.2696 0.20979 0.0
C337 C 0.1727 0.22385 0.20911 0.0
C338 C 0.22003 0.29985 0.22599 0.0
C339 C 0.22898 0.29521 0.19158 0.0
C340 C 0.26941 0.30167 0.18384 0.0
C341 C 0.28395 0.32141 0.16636 0.0
C342 C 0.25598 0.334 0.1564 0.0
C343 C 0.21389 0.32666 0.16394 0.0
C344 C 0.20099 0.30798 0.18193 0.0
H345 H 0.99749 0.23825 0.29889 0.0
H346 H 0.89944 0.25503 0.33216 0.0
H347 H 0.96064 0.30006 0.35502 0.0
H348 H 0.05186 0.21828 0.3352 0.0
H349 H 0.10885 0.24861 0.32538 0.0
H350 H 0.05935 0.22386 0.31042 0.0
H351 H 0.08757 0.30344 0.29508 0.0
H352 H 0.13737 0.32849 0.31001 0.0
H353 H 0.0998 0.35231 0.30934 0.0
H354 H 0.03005 0.33474 0.37606 0.0
H355 H 0.10156 0.35607 0.39338 0.0
H356 H 0.15391 0.31698 0.34606 0.0
C357 C 0.98903 0.25228 0.31075 0.0
C358 C 0.94367 0.24324 0.31369 0.0
C359 C 0.93399 0.26171 0.32955 0.0
C360 C 0.96857 0.28742 0.3426 0.0
C361 C 1.01269 0.29469 0.3395 0.0
C362 C 0.02305 0.27793 0.32387 0.0
C363 C 0.07197 0.28706 0.32449 0.0
C364 C 0.07303 0.24176 0.32384 0.0
C365 C 0.10088 0.31978 0.3088 0.0
C366 C 0.08709 0.31016 0.3432 0.0
C367 C 0.05267 0.31481 0.35156 0.0
C368 C 0.05753 0.33202 0.3695 0.0
C369 C 0.09826 0.34399 0.37925 0.0
C370 C 0.1335 0.33849 0.37105 0.0
C371 C 0.12801 0.3223 0.35264 0.0
H372 H 0.81009 0.12825 0.53114 0.0
H373 H 0.76277 0.04449 0.58075 0.0
H374 H 0.71342 0.97585 0.56174 0.0
H375 H 0.7018 0.06366 0.50298 0.0
H376 H 0.7336 0.06954 0.48209 0.0
H377 H 0.75793 0.11358 0.49965 0.0
H378 H 0.83035 0.10504 0.50111 0.0
H379 H 0.80625 0.06097 0.48365 0.0
H380 H 0.82374 0.04923 0.50565 0.0
H381 H 0.67661 0.91544 0.53758 0.0
H382 H 0.65836 0.86629 0.50994 0.0
H383 H 0.73257 0.98818 0.47561 0.0
C384 C 0.78796 0.09569 0.53794 0.0
C385 C 0.78921 0.09149 0.55736 0.0
C386 C 0.7616 0.0482 0.56587 0.0
C387 C 0.7334 1.00917 0.5552 0.0
C388 C 0.7337 0.014 0.53602 0.0
C389 C 0.76037 0.05611 0.52742 0.0
C390 C 0.75919 0.05073 0.50654 0.0
C391 C 0.73678 0.07587 0.49727 0.0
C392 C 0.80776 0.06747 0.49879 0.0
C393 C 0.72887 0.99895 0.5048 0.0
C394 C 0.71376 0.9786 0.52195 0.0
C395 C 0.68768 0.93099 0.52404 0.0
C396 C 0.67752 0.90333 0.50824 0.0
C397 C 0.69391 0.92331 0.49058 0.0
C398 C 0.71908 0.97182 0.48887 0.0
H399 H 0.82071 0.71776 0.68557 0.0
H400 H 0.73433 0.67293 0.63645 0.0
H401 H 0.68171 0.69482 0.65117 0.0
H402 H 0.72772 0.68332 0.71991 0.0
H403 H 0.76191 0.7334 0.73404 0.0
H404 H 0.78945 0.709 0.72052 0.0
H405 H 0.84069 0.78808 0.70479 0.0
H406 H 0.81327 0.81265 0.71818 0.0
H407 H 0.8139 0.81629 0.69325 0.0
H408 H 0.64234 0.7279 0.67024 0.0
H409 H 0.62028 0.77065 0.69176 0.0
H410 H 0.73337 0.79456 0.7281 0.0
C411 C 0.7902 0.71156 0.67804 0.0
C412 C 0.78147 0.69334 0.6599 0.0
C413 C 0.74162 0.68666 0.65039 0.0
C414 C 0.71147 0.69888 0.65867 0.0
C415 C 0.72163 0.71764 0.67644 0.0
C416 C 0.75999 0.72382 0.68603 0.0
C417 C 0.7652 0.74791 0.70433 0.0
C418 C 0.76079 0.71652 0.72067 0.0
C419 C 0.81096 0.79395 0.70517 0.0
C420 C 0.72439 0.75533 0.70337 0.0
C421 C 0.69933 0.73716 0.68729 0.0
C422 C 0.6614 0.74181 0.68297 0.0
C423 C 0.64916 0.76618 0.69528 0.0
C424 C 0.67499 0.78589 0.71165 0.0
C425 C 0.71265 0.77965 0.71579 0.0
H426 H 0.97895 0.76267 0.88357 0.0
H427 H 0.88413 0.62219 0.86651 0.0
H428 H 0.9382 0.62946 0.84172 0.0
H429 H 1.01085 0.80876 0.83928 0.0
H430 H 0.07011 0.84847 0.8451 0.0
H431 H 0.02636 0.83033 0.8626 0.0
H432 H 0.07066 0.80217 0.88322 0.0
H433 H 0.11477 0.82049 0.86579 0.0
H434 H 0.08592 0.76182 0.87394 0.0
H435 H 1.00036 0.65514 0.81697 0.0
H436 H 0.06496 0.69639 0.79501 0.0
H437 H 0.11774 0.81946 0.82883 0.0
C438 C 0.96978 0.73306 0.87486 0.0
C439 C 0.92733 0.69181 0.87702 0.0
C440 C 0.91658 0.65408 0.86518 0.0
C441 C 0.94708 0.6579 0.85106 0.0
C442 C 0.98825 0.69952 0.84907 0.0
C443 C 0.99968 0.73629 0.86077 0.0
C444 C 0.04459 0.77815 0.85519 0.0
C445 C 0.03752 0.8188 0.85024 0.0
C446 C 0.08115 0.79142 0.87044 0.0
C447 C 0.05625 0.75963 0.83825 0.0
C448 C 0.02365 0.71415 0.83497 0.0
C449 C 0.02634 0.6906 0.81955 0.0
C450 C 0.06312 0.71432 0.80714 0.0
C451 C 0.09653 0.76112 0.81019 0.0
C452 C 0.09304 0.78363 0.82611 0.0
H453 H 0.21839 0.97512 0.05243 0.0
H454 H 0.2562 0.87544 0.03423 0.0
H455 H 0.30622 0.92988 1.01012 0.0
H456 H 0.20929 0.01296 1.00856 0.0
H457 H 0.23243 0.07234 1.01509 0.0
H458 H 0.20376 0.0276 0.03206 0.0
H459 H 0.27608 0.06663 0.05312 0.0
H460 H 0.30501 0.11161 0.03617 0.0
H461 H 0.33102 0.0789 0.044 0.0
H462 H 0.34608 0.99248 0.98603 0.0
H463 H 0.37256 0.05787 0.96427 0.0
H464 H 0.30929 0.1164 0.99884 0.0
C465 C 0.23774 0.96493 0.04359 0.0
C466 C 0.23342 0.92102 0.04524 0.0
C467 C 0.25909 0.90897 0.03328 0.0
C468 C 0.28765 0.9397 0.01956 0.0
C469 C 0.29048 0.98245 0.01811 0.0
C470 C 0.26642 0.99514 0.0299 0.0
C471 C 0.27311 0.04184 0.02482 0.0
C472 C 0.22691 0.03845 0.01983 0.0
C473 C 0.29778 0.07681 0.04046 0.0
C474 C 0.30368 0.05294 1.008 0.0
C475 C 0.31369 0.01851 1.00441 0.0
C476 C 0.33901 0.01995 0.98887 0.0
C477 C 0.35387 0.05721 0.97658 0.0
C478 C 0.34327 0.09243 0.97988 0.0
C479 C 0.31855 0.09043 0.99601 0.0
H480 H 0.26422 0.34311 0.07152 0.0
H481 H 0.11844 0.26245 0.05878 0.0
H482 H 0.137 0.23919 0.02893 0.0
H483 H 0.30406 0.38349 0.02529 0.0
H484 H 0.35513 0.37913 0.02782 0.0
H485 H 0.33013 0.39022 0.04779 0.0
H486 H 0.32437 0.31897 0.06437 0.0
H487 H 0.34962 0.30785 0.04451 0.0
H488 H 0.29468 0.26361 0.05312 0.0
H489 H 0.17258 0.22465 1.0003 0.0
H490 H 0.22126 0.21633 0.97668 0.0
H491 H 0.34293 0.30596 1.009 0.0
C492 C 0.23608 0.3207 0.06246 0.0
C493 C 0.18985 0.30475 0.06746 0.0
C494 C 0.15413 0.27509 0.05524 0.0
C495 C 0.16436 0.26185 0.03823 0.0
C496 C 0.21043 0.27845 0.03371 0.0
C497 C 0.24563 0.307 0.04557 0.0
C498 C 0.2922 0.31894 0.0379 0.0
C499 C 0.32213 0.37104 0.0345 0.0
C500 C 0.31663 0.30127 0.05073 0.0
C501 C 0.27786 0.29255 0.01985 0.0
C502 C 0.23063 0.26965 0.01756 0.0
C503 C 0.20959 0.24253 1.00197 0.0
C504 C 0.23753 0.23813 0.98859 0.0
C505 C 0.28593 0.26049 0.99096 0.0
C506 C 0.30609 0.28845 1.00672 0.0
H507 H 0.89077 0.25798 0.23015 0.0
H508 H 0.86715 0.11863 0.23253 0.0
H509 H 0.90997 0.13203 0.20314 0.0
H510 H 0.88172 0.26456 0.18003 0.0
H511 H 0.92691 0.32397 0.17908 0.0
H512 H 0.89164 0.302 0.1995 0.0
H513 H 0.96474 0.32908 0.21967 0.0
H514 H 1.00019 0.35116 0.19935 0.0
H515 H 1.00478 0.31009 0.21397 0.0
H516 H 0.95949 0.16283 0.17418 0.0
H517 H 1.01262 0.20857 0.14893 0.0
H518 H 1.00315 0.32738 0.16604 0.0
C519 C 0.89401 0.22997 0.22442 0.0
C520 C 0.87538 0.18714 0.23363 0.0
C521 C 0.88098 0.15168 0.2257 0.0
C522 C 0.90516 0.15896 0.20899 0.0
C523 C 0.92344 0.20182 0.20038 0.0
C524 C 0.91806 0.23668 0.20785 0.0
C525 C 0.94289 0.28035 0.19649 0.0
C526 C 0.90874 0.29347 0.18829 0.0
C527 C 0.98037 0.31999 0.20806 0.0
C528 C 0.96368 0.26494 0.18155 0.0
C529 C 0.95186 0.21946 0.1839 0.0
C530 C 0.96861 0.19834 0.17214 0.0
C531 C 0.99873 0.2246 0.15781 0.0
C532 C 1.01197 0.27156 0.15541 0.0
C533 C 0.99349 0.29151 0.16734 0.0
H534 H 0.85352 0.07081 0.34848 0.0
H535 H 0.72896 0.99829 0.31549 0.0
H536 H 0.69733 0.93464 0.33825 0.0
H537 H 0.85802 0.96913 0.36399 0.0
H538 H 0.87853 0.99263 0.38675 0.0
H539 H 0.89269 0.03054 0.36711 0.0
H540 H 0.85799 0.07441 0.38378 0.0
H541 H 0.84361 0.0366 0.40343 0.0
H542 H 0.79942 0.04298 0.39195 0.0
H543 H 0.67727 0.88149 0.36574 0.0
H544 H 0.67031 0.84274 0.39562 0.0
H545 H 0.80817 0.95021 0.41063 0.0
C546 C 0.81985 0.04127 0.34585 0.0
C547 C 0.79379 0.03952 0.33012 0.0
C548 C 0.74966 1.00038 0.32737 0.0
C549 C 0.73143 0.96403 0.34022 0.0
C550 C 0.75779 0.96726 0.35572 0.0
C551 C 0.80115 1.00481 0.35853 0.0
C552 C 0.82158 1.00098 0.37673 0.0
C553 C 0.86529 0.99814 0.37344 0.0
C554 C 0.83119 0.04112 0.38974 0.0
C555 C 0.78262 0.95575 0.38391 0.0
C556 C 0.74626 0.93671 0.37154 0.0
C557 C 0.70569 0.8959 0.37545 0.0
C558 C 0.70206 0.87418 0.3925 0.0
C559 C 0.73874 0.8933 0.40549 0.0
C560 C 0.77967 0.93442 0.40096 0.0
H561 H 0.85699 0.75909 0.57089 0.0
H562 H 0.83624 0.63456 0.54406 0.0
H563 H 0.81448 0.65811 0.5151 0.0
H564 H 0.76111 0.75695 0.55192 0.0
H565 H 0.78705 0.81838 0.54921 0.0
H566 H 0.80764 0.79541 0.5669 0.0
H567 H 0.89025 0.8419 0.55362 0.0
H568 H 0.8699 0.86522 0.53589 0.0
H569 H 0.90018 0.83565 0.52954 0.0
H570 H 0.78707 0.69103 0.49011 0.0
H571 H 0.75509 0.73005 0.47136 0.0
H572 H 0.79279 0.83261 0.5146 0.0
C573 C 0.84913 0.73741 0.55877 0.0
C574 C 0.84872 0.69515 0.5597 0.0
C575 C 0.83701 0.66718 0.54366 0.0
C576 C 0.82473 0.68033 0.52712 0.0
C577 C 0.82432 0.72162 0.5268 0.0
C578 C 0.83638 0.74984 0.54219 0.0
C579 C 0.82914 0.79029 0.53874 0.0
C580 C 0.79415 0.79022 0.5525 0.0
C581 C 0.87511 0.83597 0.53949 0.0
C582 C 0.80992 0.77971 0.51921 0.0
C583 C 0.80799 0.74031 0.51247 0.0
C584 C 0.789 0.72228 0.49515 0.0
C585 C 0.77088 0.74468 0.4846 0.0
C586 C 0.77155 0.78454 0.49143 0.0
C587 C 0.79216 0.80255 0.50885 0.0
H588 H 0.05692 0.81942 0.73653 0.0
H589 H 0.19655 0.86815 0.71766 0.0
H590 H 0.16791 0.84567 0.68566 0.0
H591 H 1.00289 0.72112 0.70806 0.0
H592 H 0.95232 0.72532 0.70357 0.0
H593 H 0.98413 0.74813 0.72474 0.0
H594 H 0.99356 0.82794 0.71732 0.0
H595 H 0.96155 0.80525 0.69614 0.0
H596 H 0.01836 0.8553 0.6955 0.0
H597 H 0.1231 0.81296 0.65592 0.0
H598 H 0.06598 0.77465 0.63086 0.0
H599 H 0.95617 0.74851 0.66927 0.0
C600 C 0.08162 0.82595 0.72566 0.0
C601 C 0.12905 0.84566 0.72966 0.0
C602 C 0.16008 0.85327 0.71498 0.0
C603 C 0.14413 0.84059 0.69673 0.0
C604 C 0.09708 0.82061 0.69333 0.0
C605 C 0.06632 0.81365 0.70737 0.0
C606 C 0.01733 0.79023 0.70016 0.0
C607 C 0.98743 0.74343 0.7097 0.0
C608 C 0.99648 0.82156 0.70241 0.0
C609 C 0.02524 0.78435 0.67995 0.0
C610 C 0.07145 0.80221 0.67624 0.0
C611 C 0.08685 0.79925 0.65864 0.0
C612 C 0.05414 0.77735 0.64449 0.0
C613 C 1.00657 0.7587 0.64802 0.0
C614 C 0.99225 0.76268 0.66601 0.0
H615 H 0.37848 0.12236 0.89389 0.0
H616 H 0.26668 0.15171 0.89203 0.0
H617 H 0.23781 0.10599 0.86317 0.0
H618 H 0.39759 0.1233 0.84424 0.0
H619 H 0.40818 0.0758 0.84543 0.0
H620 H 0.42201 0.114 0.86493 0.0
H621 H 0.37097 0.0445 0.88617 0.0
H622 H 0.35719 1.00613 0.86678 0.0
H623 H 0.31167 1.00618 0.87994 0.0
H624 H 0.22059 0.05529 0.83465 0.0
H625 H 0.21203 0.99825 0.81097 0.0
H626 H 0.33309 0.99959 0.83286 0.0
C627 C 0.34829 0.11975 0.88728 0.0
C628 C 0.32507 0.14098 0.89507 0.0
C629 C 0.28506 0.13582 0.88624 0.0
C630 C 0.26858 0.11013 0.86981 0.0
C631 C 0.29227 0.08949 0.86252 0.0
C632 C 0.33102 0.09369 0.87111 0.0
C633 C 0.34831 0.06545 0.86135 0.0
C634 C 0.3969 0.0965 0.85352 0.0
C635 C 0.34692 0.02837 0.87433 0.0
C636 C 0.31304 0.04429 0.84599 0.0
C637 C 0.28141 0.0591 0.84667 0.0
C638 C 0.24525 0.04357 0.83398 0.0
C639 C 0.24078 0.01134 0.82053 0.0
C640 C 0.27188 0.99447 0.82007 0.0
C641 C 0.30878 0.01183 0.83283 0.0
H642 H 0.78347 0.83037 0.79634 0.0
H643 H 0.70152 0.88777 0.81684 0.0
H644 H 0.70821 0.86434 0.84864 0.0
H645 H 0.73432 0.73233 0.8241 0.0
H646 H 0.7869 0.7314 0.82789 0.0
H647 H 0.77983 0.75703 0.80717 0.0
H648 H 0.85465 0.83342 0.81469 0.0
H649 H 0.86209 0.80791 0.83544 0.0
H650 H 0.86054 0.86069 0.83682 0.0
H651 H 0.71759 0.82756 0.87781 0.0
H652 H 0.73073 0.78262 0.90179 0.0
H653 H 0.80736 0.75079 0.86196 0.0
C654 C 0.76763 0.83886 0.80753 0.0
C655 C 0.74206 0.86104 0.80406 0.0
C656 C 0.72149 0.871 0.81914 0.0
C657 C 0.7251 0.85783 0.83727 0.0
C658 C 0.74971 0.83506 0.84013 0.0
C659 C 0.77097 0.82606 0.82567 0.0
C660 C 0.79325 0.79896 0.83218 0.0
C661 C 0.7723 0.75217 0.82225 0.0
C662 C 0.84575 0.82693 0.82964 0.0
C663 C 0.78032 0.79315 0.85248 0.0
C664 C 0.75543 0.81439 0.85686 0.0
C665 C 0.7376 0.81135 0.87458 0.0
C666 C 0.74516 0.78568 0.88811 0.0
C667 C 0.7703 0.76337 0.88383 0.0
C668 C 0.78848 0.76783 0.8658 0.0
H669 H 0.92328 0.65071 0.95739 0.0
H670 H 0.85113 0.72462 0.96927 0.0
H671 H 0.89462 0.75266 0.99869 0.0
H672 H 0.92936 0.61671 1.00446 0.0
H673 H 0.98619 0.62478 1.0014 0.0
H674 H 0.94753 0.60894 0.98194 0.0
H675 H 1.00863 0.68013 0.96378 0.0
H676 H 0.04745 0.69618 0.98316 0.0
H677 H 0.03216 0.73658 0.9739 0.0
H678 H 0.94876 0.77435 0.02669 0.0
H679 H 1.00946 0.78927 0.04978 0.0
H680 H 0.04552 0.70152 0.01862 0.0
C681 C 0.91615 0.67242 0.96622 0.0
C682 C 0.88357 0.68526 0.96104 0.0
C683 C 0.87584 0.7142 0.97296 0.0
C684 C 0.90033 0.73023 0.98971 0.0
C685 C 0.93247 0.71707 0.99432 0.0
C686 C 0.94037 0.68884 0.98285 0.0
C687 C 0.9779 0.68103 0.99044 0.0
C688 C 0.9591 0.62982 0.99482 0.0
C689 C 0.01895 0.6996 0.97702 0.0
C690 C 0.99025 0.70949 1.00794 0.0
C691 C 0.96359 0.72985 1.01008 0.0
C692 C 0.96967 0.75839 0.02515 0.0
C693 C 1.00417 0.76662 0.03822 0.0
C694 C 0.03228 0.74659 0.03604 0.0
C695 C 0.02468 0.71738 0.02075 0.0
H696 H 0.27224 0.92765 0.12304 0.0
H697 H 0.129 0.84373 0.13905 0.0
H698 H 0.14627 0.8858 0.16885 0.0
H699 H 0.32225 0.93618 0.16808 0.0
H700 H 0.36704 0.99512 0.16477 0.0
H701 H 0.34337 0.9573 0.14512 0.0
H702 H 0.32332 0.01464 0.12953 0.0
H703 H 0.34706 0.0527 0.14909 0.0
H704 H 0.28864 0.03287 0.14189 0.0
H705 H 0.18017 0.93831 0.19706 0.0
H706 H 0.22634 0.99865 0.22015 0.0
H707 H 0.34639 0.04816 0.18481 0.0
C708 C 0.24445 0.9178 0.13283 0.0
C709 C 0.19928 0.88219 0.12875 0.0
C710 C 0.16388 0.87088 0.14188 0.0
C711 C 0.1734 0.8945 0.15886 0.0
C712 C 0.21843 0.92945 0.16243 0.0
C713 C 0.25326 0.94116 0.1497 0.0
C714 C 0.2984 0.98099 0.15647 0.0
C715 C 0.33491 0.96651 0.15875 0.0
C716 C 0.31533 0.02276 0.14348 0.0
C717 C 0.28368 0.99004 0.17503 0.0
C718 C 0.23754 0.95985 0.17833 0.0
C719 C 0.21633 0.96207 0.19459 0.0
C720 C 0.24286 0.99638 0.20765 0.0
C721 C 0.29 0.02819 0.20432 0.0
C722 C 0.31048 0.02445 0.18783 0.0
H723 H 0.37803 0.2489 0.30575 0.0
H724 H 0.25694 0.11264 0.30315 0.0
H725 H 0.22785 0.1289 0.33201 0.0
H726 H 0.39105 0.25554 0.35595 0.0
H727 H 0.4089 0.31589 0.35649 0.0
H728 H 0.42119 0.29191 0.33648 0.0
H729 H 0.37969 0.32245 0.31545 0.0
H730 H 0.36734 0.34654 0.33536 0.0
H731 H 0.32111 0.30688 0.32054 0.0
H732 H 0.21023 0.16287 0.36046 0.0
H733 H 0.20538 0.2114 0.38516 0.0
H734 H 0.33857 0.32446 0.36849 0.0
C735 C 0.34563 0.22213 0.31132 0.0
C736 C 0.31985 0.1794 0.3022 0.0
C737 C 0.2774 0.14559 0.30993 0.0
C738 C 0.26064 0.15451 0.32632 0.0
C739 C 0.28682 0.19731 0.33485 0.0
C740 C 0.32848 0.23046 0.32757 0.0
C741 C 0.34918 0.27447 0.33873 0.0
C742 C 0.39531 0.28505 0.34743 0.0
C743 C 0.35462 0.31495 0.32681 0.0
C744 C 0.31244 0.26128 0.35333 0.0
C745 C 0.2768 0.2166 0.351 0.0
C746 C 0.23819 0.19775 0.36248 0.0
C747 C 0.23576 0.22554 0.3765 0.0
C748 C 0.27165 0.2717 0.37885 0.0
C749 C 0.31064 0.28926 0.36721 0.0
H750 H 0.05876 0.26777 0.45256 0.0
H751 H 0.18981 0.31597 0.48032 0.0
H752 H 0.15117 0.30411 0.5107 0.0
H753 H 0.01745 0.32227 0.48233 0.0
H754 H 0.95849 0.27606 0.48148 0.0
H755 H 0.99616 0.28571 0.4622 0.0
H756 H 0.97866 0.20137 0.46438 0.0
H757 H 0.94077 0.19138 0.48365 0.0
H758 H 0.98768 0.18019 0.48603 0.0
H759 H 0.09706 0.28859 0.53826 0.0
H760 H 0.03339 0.27195 0.55998 0.0
H761 H 0.93969 0.23591 0.51337 0.0
C762 C 0.07943 0.27542 0.46499 0.0
C763 C 0.12735 0.29263 0.46403 0.0
C764 C 0.15302 0.3026 0.4807 0.0
C765 C 0.13136 0.29596 0.49802 0.0
C766 C 0.08404 0.27939 0.49842 0.0
C767 C 0.0585 0.26925 0.48229 0.0
C768 C 1.00856 0.25346 0.48627 0.0
C769 C 0.99436 0.28635 0.47756 0.0
C770 C 0.97707 0.20364 0.4797 0.0
C771 C 1.00988 0.25659 0.50717 0.0
C772 C 0.05353 0.2713 0.51402 0.0
C773 C 0.06275 0.27697 0.53301 0.0
C774 C 0.02642 0.26746 0.54525 0.0
C775 C 0.98157 0.25278 0.5384 0.0
C776 C 0.97353 0.24724 0.5191 0.0
H777 H 0.68107 0.9814 0.69227 0.0
H778 H 0.80386 0.02108 0.72504 0.0
H779 H 0.85039 0.0809 0.7018 0.0
H780 H 0.73154 0.99276 0.64849 0.0
H781 H 0.69875 0.015 0.63727 0.0
H782 H 0.67525 0.97757 0.65702 0.0
H783 H 0.66382 0.03916 0.67393 0.0
H784 H 0.68702 0.07671 0.65417 0.0
H785 H 0.71215 0.09655 0.67676 0.0
H786 H 0.88396 0.13371 0.67346 0.0
H787 H 0.90034 0.17595 0.64366 0.0
H788 H 0.75457 0.10073 0.63043 0.0
C789 C 0.71768 1.00292 0.69472 0.0
C790 C 0.7388 0.99653 0.71049 0.0
C791 C 0.78686 0.02547 0.7131 0.0
C792 C 0.81358 0.05947 0.69995 0.0
C793 C 0.79165 0.06426 0.68437 0.0
C794 C 0.74466 0.03693 0.68184 0.0
C795 C 0.72922 0.04793 0.66382 0.0
C796 C 0.70742 1.00581 0.65089 0.0
C797 C 0.6961 0.06618 0.66739 0.0
C798 C 0.77489 0.08534 0.65642 0.0
C799 C 0.81062 0.09449 0.6684 0.0
C800 C 0.85611 0.12701 0.66408 0.0
C801 C 0.86512 0.15077 0.64711 0.0
C802 C 0.82877 0.14184 0.63473 0.0
C803 C 0.7832 0.10871 0.63959 0.0
loop_
_geom_bond_atom_site_label_1
_geom_bond_atom_site_label_2
_geom_bond_distance
_geom_bond_site_symmetry_2
_ccdc_geom_bond_type
Mg0 O7 2.141 . S
Mg0 O8 2.048 . S
Mg0 O9 2.048 . S
Mg0 O12 2.141 . S
C1 O2 1.313 . S
C1 O8 1.195 . S
O2 C1 1.313 . S
C3 O4 1.245 . S
C3 O12 1.289 . S
O4 C3 1.245 . S
C5 O6 1.245 . S
C5 O7 1.289 . S
O6 C5 1.245 . S
O7 Mg0 2.141 . S
O7 C5 1.289 . S
O8 Mg0 2.048 . S
O8 C1 1.195 . S
O9 Mg0 2.048 . S
O9 C10 1.195 . S
C10 O9 1.195 . S
C10 O11 1.313 . S
O11 C10 1.313 . S
O12 Mg0 2.141 . S
O12 C3 1.289 . S
Mg13 O20 2.141 . S
Mg13 O21 2.048 . S
Mg13 O22 2.048 . S
Mg13 O25 2.141 . S
C14 O15 1.313 . S
C14 O21 1.195 . S
O15 C14 1.313 . S
C16 O17 1.245 . S
C16 O25 1.289 . S
O17 C16 1.245 . S
C18 O19 1.245 . S
C18 O20 1.289 . S
O19 C18 1.245 . S
O20 Mg13 2.141 . S
O20 C18 1.289 . S
O21 Mg13 2.048 . S
O21 C14 1.195 . S
O22 Mg13 2.048 . S
O22 C23 1.195 . S
C23 O22 1.195 . S
C23 O24 1.313 . S
O24 C23 1.313 . S
O25 Mg13 2.141 . S
O25 C16 1.289 . S
Mg26 O33 2.141 . S
Mg26 O34 2.048 . S
Mg26 O35 2.048 . S
Mg26 O38 2.141 . S
C27 O28 1.313 . S
C27 O34 1.195 . S
O28 C27 1.313 . S
C29 O30 1.245 . S
C29 O38 1.289 . S
O30 C29 1.245 . S
C31 O32 1.245 . S
C31 O33 1.289 . S
O32 C31 1.245 . S
O33 Mg26 2.141 . S
O33 C31 1.289 . S
O34 Mg26 2.048 . S
O34 C27 1.195 . S
O35 Mg26 2.048 . S
O35 C36 1.195 . S
C36 O35 1.195 . S
C36 O37 1.313 . S
O37 C36 1.313 . S
O38 Mg26 2.141 . S
O38 C29 1.289 . S
Mg39 O46 2.141 . S
Mg39 O47 2.048 . S
Mg39 O48 2.048 . S
Mg39 O51 2.141 . S
C40 O41 1.313 . S
C40 O47 1.195 . S
O41 C40 1.313 . S
C42 O43 1.245 . S
C42 O51 1.289 . S
O43 C42 1.245 . S
C44 O45 1.245 . S
C44 O46 1.289 . S
O45 C44 1.245 . S
O46 Mg39 2.141 . S
O46 C44 1.289 . S
O47 Mg39 2.048 . S
O47 C40 1.195 . S
O48 Mg39 2.048 . S
O48 C49 1.195 . S
C49 O48 1.195 . S
C49 O50 1.313 . S
O50 C49 1.313 . S
O51 Mg39 2.141 . S
O51 C42 1.289 . S
Mg52 O59 2.141 . S
Mg52 O60 2.048 . S
Mg52 O61 2.048 . S
Mg52 O64 2.141 . S
C53 O54 1.313 . S
C53 O60 1.195 . S
O54 C53 1.313 . S
C55 O56 1.245 . S
C55 O64 1.289 . S
O56 C55 1.245 . S
C57 O58 1.245 . S
C57 O59 1.289 . S
O58 C57 1.245 . S
O59 Mg52 2.141 . S
O59 C57 1.289 . S
O60 Mg52 2.048 . S
O60 C53 1.195 . S
O61 Mg52 2.048 . S
O61 C62 1.195 . S
C62 O61 1.195 . S
C62 O63 1.313 . S
O63 C62 1.313 . S
O64 Mg52 2.141 . S
O64 C55 1.289 . S
Mg65 O72 2.141 . S
Mg65 O73 2.048 . S
Mg65 O74 2.048 . S
Mg65 O77 2.141 . S
C66 O67 1.313 . S
C66 O73 1.195 . S
O67 C66 1.313 . S
C68 O69 1.245 . S
C68 O77 1.289 . S
O69 C68 1.245 . S
C70 O71 1.245 . S
C70 O72 1.289 . S
O71 C70 1.245 . S
O72 Mg65 2.141 . S
O72 C70 1.289 . S
O73 Mg65 2.048 . S
O73 C66 1.195 . S
O74 Mg65 2.048 . S
O74 C75 1.195 . S
C75 O74 1.195 . S
C75 O76 1.313 . S
O76 C75 1.313 . S
O77 Mg65 2.141 . S
O77 C68 1.289 . S
Mg78 O85 2.141 . S
Mg78 O86 2.048 . S
Mg78 O87 2.048 . S
Mg78 O90 2.141 . S
C79 O80 1.313 . S
C79 O86 1.195 . S
O80 C79 1.313 . S
C81 O82 1.245 . S
C81 O90 1.289 . S
O82 C81 1.245 . S
C83 O84 1.245 . S
C83 O85 1.289 . S
O84 C83 1.245 . S
O85 Mg78 2.141 . S
O85 C83 1.289 . S
O86 Mg78 2.048 . S
O86 C79 1.195 . S
O87 Mg78 2.048 . S
O87 C88 1.195 . S
C88 O87 1.195 . S
C88 O89 1.313 . S
O89 C88 1.313 . S
O90 Mg78 2.141 . S
O90 C81 1.289 . S
Mg91 O98 2.141 . S
Mg91 O99 2.048 . S
Mg91 O100 2.048 . S
Mg91 O103 2.141 . S
C92 O93 1.313 . S
C92 O99 1.195 . S
O93 C92 1.313 . S
C94 O95 1.245 . S
C94 O103 1.289 . S
O95 C94 1.245 . S
C96 O97 1.245 . S
C96 O98 1.289 . S
O97 C96 1.245 . S
O98 Mg91 2.141 . S
O98 C96 1.289 . S
O99 Mg91 2.048 . S
O99 C92 1.195 . S
O100 Mg91 2.048 . S
O100 C101 1.195 . S
C101 O100 1.195 . S
C101 O102 1.313 . S
O102 C101 1.313 . S
O103 Mg91 2.141 . S
O103 C94 1.289 . S
Mg104 O111 2.141 . S
Mg104 O112 2.048 . S
Mg104 O113 2.048 . S
Mg104 O116 2.141 . S
C105 O106 1.313 . S
C105 O112 1.195 . S
O106 C105 1.313 . S
C107 O108 1.245 . S
C107 O116 1.289 . S
O108 C107 1.245 . S
C109 O110 1.245 . S
C109 O111 1.289 . S
O110 C109 1.245 . S
O111 Mg104 2.141 . S
O111 C109 1.289 . S
O112 Mg104 2.048 . S
O112 C105 1.195 . S
O113 Mg104 2.048 . S
O113 C114 1.195 . S
C114 O113 1.195 . S
C114 O115 1.313 . S
O115 C114 1.313 . S
O116 Mg104 2.141 . S
O116 C107 1.289 . S
Mg117 O124 2.141 . S
Mg117 O125 2.048 . S
Mg117 O126 2.048 . S
Mg117 O129 2.141 . S
C118 O119 1.313 . S
C118 O125 1.195 . S
O119 C118 1.313 . S
C120 O121 1.245 . S
C120 O129 1.289 . S
O121 C120 1.245 . S
C122 O123 1.245 . S
C122 O124 1.289 . S
O123 C122 1.245 . S
O124 Mg117 2.141 . S
O124 C122 1.289 . S
O125 Mg117 2.048 . S
O125 C118 1.195 . S
O126 Mg117 2.048 . S
O126 C127 1.195 . S
C127 O126 1.195 . S
C127 O128 1.313 . S
O128 C127 1.313 . S
O129 Mg117 2.141 . S
O129 C120 1.289 . S
Mg130 O137 2.141 . S
Mg130 O138 2.048 . S
Mg130 O139 2.048 . S
Mg130 O142 2.141 . S
C131 O132 1.313 . S
C131 O138 1.195 . S
O132 C131 1.313 . S
C133 O134 1.245 . S
C133 O142 1.289 . S
O134 C133 1.245 . S
C135 O136 1.245 . S
C135 O137 1.289 . S
O136 C135 1.245 . S
O137 Mg130 2.141 . S
O137 C135 1.289 . S
O138 Mg130 2.048 . S
O138 C131 1.195 . S
O139 Mg130 2.048 . S
O139 C140 1.195 . S
C140 O139 1.195 . S
C140 O141 1.313 . S
O141 C140 1.313 . S
O142 Mg130 2.141 . S
O142 C133 1.289 . S
Mg143 O150 2.141 . S
Mg143 O151 2.048 . S
Mg143 O152 2.048 . S
Mg143 O155 2.141 . S
C144 O145 1.313 . S
C144 O151 1.195 . S
O145 C144 1.313 . S
C146 O147 1.245 . S
C146 O155 1.289 . S
O147 C146 1.245 . S
C148 O149 1.245 . S
C148 O150 1.289 . S
O149 C148 1.245 . S
O150 Mg143 2.141 . S
O150 C148 1.289 . S
O151 Mg143 2.048 . S
O151 C144 1.195 . S
O152 Mg143 2.048 . S
O152 C153 1.195 . S
C153 O152 1.195 . S
C153 O154 1.313 . S
O154 C153 1.313 . S
O155 Mg143 2.141 . S
O155 C146 1.289 . S
H156 C168 0.930 . S
H157 C170 0.930 . S
H158 C171 0.930 . S
H159 C175 0.959 . S
H160 C175 0.959 . S
H161 C175 0.961 . S
H162 C176 0.960 . S
H163 C176 0.961 . S
H164 C176 0.959 . S
H165 C179 0.929 . S
H166 C180 0.931 . S
H167 C182 0.930 . S
C168 H156 0.930 . S
C168 C169 1.399 . S
C168 C173 1.399 . S
C169 C168 1.399 . S
C169 C170 1.376 . S
C170 H157 0.930 . S
C170 C169 1.376 . S
C170 C171 1.388 . S
C171 H158 0.930 . S
C171 C170 1.388 . S
C171 C172 1.390 . S
C172 C171 1.390 . S
C172 C173 1.394 . S
C172 C178 1.465 . S
C173 C168 1.399 . S
C173 C172 1.394 . S
C173 C174 1.516 . S
C174 C173 1.516 . S
C174 C175 1.502 . S
C174 C176 1.561 . S
C174 C177 1.526 . S
C175 H159 0.959 . S
C175 H160 0.959 . S
C175 H161 0.961 . S
C175 C174 1.502 . S
C176 H162 0.960 . S
C176 H163 0.961 . S
C176 H164 0.959 . S
C176 C174 1.561 . S
C177 C174 1.526 . S
C177 C178 1.396 . S
C177 C182 1.390 . S
C178 C172 1.465 . S
C178 C177 1.396 . S
C178 C179 1.399 . S
C179 H165 0.929 . S
C179 C178 1.399 . S
C179 C180 1.385 . S
C180 H166 0.931 . S
C180 C179 1.385 . S
C180 C181 1.389 . S
C181 C180 1.389 . S
C181 C182 1.387 . S
C182 H167 0.930 . S
C182 C177 1.390 . S
C182 C181 1.387 . S
H183 C195 0.930 . S
H184 C197 0.930 . S
H185 C198 0.930 . S
H186 C202 0.959 . S
H187 C202 0.959 . S
H188 C202 0.961 . S
H189 C203 0.960 . S
H190 C203 0.961 . S
H191 C203 0.959 1_545 S
H192 C206 0.929 . S
H193 C207 0.931 . S
H194 C209 0.930 . S
C195 H183 0.930 . S
C195 C196 1.399 . S
C195 C200 1.399 . S
C196 C195 1.399 . S
C196 C197 1.376 . S
C197 H184 0.930 . S
C197 C196 1.376 . S
C197 C198 1.388 . S
C198 H185 0.930 . S
C198 C197 1.388 . S
C198 C199 1.390 . S
C199 C198 1.390 . S
C199 C200 1.394 . S
C199 C205 1.465 . S
C200 C195 1.399 . S
C200 C199 1.394 . S
C200 C201 1.516 . S
C201 C200 1.516 . S
C201 C202 1.502 . S
C201 C203 1.561 1_545 S
C201 C204 1.526 . S
C202 H186 0.959 . S
C202 H187 0.959 . S
C202 H188 0.961 . S
C202 C201 1.502 . S
C203 H189 0.960 . S
C203 H190 0.961 . S
C203 H191 0.959 1_565 S
C203 C201 1.561 1_565 S
C204 C201 1.526 . S
C204 C205 1.396 . S
C204 C209 1.390 . S
C205 C199 1.465 . S
C205 C204 1.396 . S
C205 C206 1.399 . S
C206 H192 0.929 . S
C206 C205 1.399 . S
C206 C207 1.385 . S
C207 H193 0.931 . S
C207 C206 1.385 . S
C207 C208 1.389 . S
C208 C207 1.389 . S
C208 C209 1.387 . S
C209 H194 0.930 . S
C209 C204 1.390 . S
C209 C208 1.387 . S
H210 C222 0.930 . S
H211 C224 0.930 . S
H212 C225 0.930 . S
H213 C229 0.959 . S
H214 C229 0.959 . S
H215 C229 0.961 . S
H216 C230 0.960 . S
H217 C230 0.961 . S
H218 C230 0.959 . S
H219 C233 0.929 . S
H220 C234 0.931 . S
H221 C236 0.930 . S
C222 H210 0.930 . S
C222 C223 1.399 . S
C222 C227 1.399 . S
C223 C222 1.399 . S
C223 C224 1.376 . S
C224 H211 0.930 . S
C224 C223 1.376 . S
C224 C225 1.388 . S
C225 H212 0.930 . S
C225 C224 1.388 . S
C225 C226 1.390 . S
C226 C225 1.390 . S
C226 C227 1.394 . S
C226 C232 1.465 . S
C227 C222 1.399 . S
C227 C226 1.394 . S
C227 C228 1.516 . S
C228 C227 1.516 . S
C228 C229 1.502 . S
C228 C230 1.561 . S
C228 C231 1.526 . S
C229 H213 0.959 . S
C229 H214 0.959 . S
C229 H215 0.961 . S
C229 C228 1.502 . S
C230 H216 0.960 . S
C230 H217 0.961 . S
C230 H218 0.959 . S
C230 C228 1.561 . S
C231 C228 1.526 . S
C231 C232 1.396 . S
C231 C236 1.390 . S
C232 C226 1.465 . S
C232 C231 1.396 . S
C232 C233 1.399 . S
C233 H219 0.929 . S
C233 C232 1.399 . S
C233 C234 1.385 . S
C234 H220 0.931 . S
C234 C233 1.385 . S
C234 C235 1.389 . S
C235 C234 1.389 . S
C235 C236 1.387 . S
C236 H221 0.930 . S
C236 C231 1.390 . S
C236 C235 1.387 . S
H237 C249 0.930 . S
H238 C251 0.930 . S
H239 C252 0.930 . S
H240 C256 0.959 . S
H241 C256 0.959 . S
H242 C256 0.961 . S
H243 C257 0.960 . S
H244 C257 0.961 . S
H245 C257 0.959 . S
H246 C260 0.929 . S
H247 C261 0.931 . S
H248 C263 0.930 . S
C249 H237 0.930 . S
C249 C250 1.399 . S
C249 C254 1.399 . S
C250 C249 1.399 . S
C250 C251 1.376 . S
C251 H238 0.930 . S
C251 C250 1.376 . S
C251 C252 1.388 . S
C252 H239 0.930 . S
C252 C251 1.388 . S
C252 C253 1.390 . S
C253 C252 1.390 . S
C253 C254 1.394 . S
C253 C259 1.465 . S
C254 C249 1.399 . S
C254 C253 1.394 . S
C254 C255 1.516 . S
C255 C254 1.516 . S
C255 C256 1.502 . S
C255 C257 1.561 . S
C255 C258 1.526 . S
C256 H240 0.959 . S
C256 H241 0.959 . S
C256 H242 0.961 . S
C256 C255 1.502 . S
C257 H243 0.960 . S
C257 H244 0.961 . S
C257 H245 0.959 . S
C257 C255 1.561 . S
C258 C255 1.526 . S
C258 C259 1.396 . S
C258 C263 1.390 . S
C259 C253 1.465 . S
C259 C258 1.396 . S
C259 C260 1.399 . S
C260 H246 0.929 . S
C260 C259 1.399 . S
C260 C261 1.385 . S
C261 H247 0.931 . S
C261 C260 1.385 . S
C261 C262 1.389 . S
C262 C261 1.389 . S
C262 C263 1.387 . S
C263 H248 0.930 . S
C263 C258 1.390 . S
C263 C262 1.387 . S
H264 C276 0.930 . S
H265 C278 0.930 . S
H266 C279 0.930 . S
H267 C283 0.959 . S
H268 C283 0.959 1_545 S
H269 C283 0.961 . S
H270 C284 0.960 1_545 S
H271 C284 0.953 1_545 S
H272 C284 0.961 . S
H273 C287 0.929 . S
H274 C288 0.931 . S
H275 C290 0.930 . S
C276 H264 0.930 . S
C276 C277 1.399 . S
C276 C281 1.399 . S
C277 C276 1.399 . S
C277 C278 1.376 . S
C278 H265 0.930 . S
C278 C277 1.376 . S
C278 C279 1.388 . S
C279 H266 0.930 . S
C279 C278 1.388 . S
C279 C280 1.390 . S
C280 C279 1.390 . S
C280 C281 1.394 . S
C280 C286 1.465 . S
C281 C276 1.399 . S
C281 C280 1.394 . S
C281 C282 1.516 . S
C282 C281 1.516 . S
C282 C283 1.502 . S
C282 C284 1.567 . S
C282 C285 1.526 . S
C283 H267 0.959 . S
C283 H268 0.959 1_565 S
C283 H269 0.961 . S
C283 C282 1.502 . S
C284 H270 0.960 1_565 S
C284 H271 0.953 1_565 S
C284 H272 0.961 . S
C284 C282 1.567 . S
C285 C282 1.526 . S
C285 C286 1.396 . S
C285 C290 1.390 . S
C286 C280 1.465 . S
C286 C285 1.396 . S
C286 C287 1.399 . S
C287 H273 0.929 . S
C287 C286 1.399 . S
C287 C288 1.385 . S
C288 H274 0.931 . S
C288 C287 1.385 . S
C288 C289 1.389 . S
C289 C288 1.389 . S
C289 C290 1.387 . S
C290 H275 0.930 . S
C290 C285 1.390 . S
C290 C289 1.387 . S
H291 C303 0.930 . S
H292 C305 0.930 . S
H293 C306 0.930 . S
H294 C310 0.959 . S
H295 C310 0.959 . S
H296 C310 0.961 . S
H297 C311 0.960 . S
H298 C311 0.961 . S
H299 C311 0.959 . S
H300 C314 0.929 . S
H301 C315 0.931 . S
H302 C317 0.930 . S
C303 H291 0.930 . S
C303 C304 1.399 . S
C303 C308 1.399 . S
C304 C303 1.399 . S
C304 C305 1.376 . S
C305 H292 0.930 . S
C305 C304 1.376 . S
C305 C306 1.388 . S
C306 H293 0.930 . S
C306 C305 1.388 . S
C306 C307 1.390 . S
C307 C306 1.390 . S
C307 C308 1.394 . S
C307 C313 1.465 . S
C308 C303 1.399 . S
C308 C307 1.394 . S
C308 C309 1.516 . S
C309 C308 1.516 . S
C309 C310 1.502 . S
C309 C311 1.561 . S
C309 C312 1.526 . S
C310 H294 0.959 . S
C310 H295 0.959 . S
C310 H296 0.961 . S
C310 C309 1.502 . S
C311 H297 0.960 . S
C311 H298 0.961 . S
C311 H299 0.959 . S
C311 C309 1.561 . S
C312 C309 1.526 . S
C312 C313 1.396 . S
C312 C317 1.390 . S
C313 C307 1.465 . S
C313 C312 1.396 . S
C313 C314 1.399 . S
C314 H300 0.929 . S
C314 C313 1.399 . S
C314 C315 1.385 . S
C315 H301 0.931 . S
C315 C314 1.385 . S
C315 C316 1.389 . S
C316 C315 1.389 . S
C316 C317 1.387 . S
C317 H302 0.930 . S
C317 C312 1.390 . S
C317 C316 1.387 . S
H318 C330 0.930 . S
H319 C332 0.930 . S
H320 C333 0.930 . S
H321 C337 0.959 . S
H322 C337 0.959 . S
H323 C337 0.961 . S
H324 C338 0.960 . S
H325 C338 0.961 . S
H326 C338 0.959 . S
H327 C341 0.929 . S
H328 C342 0.931 . S
H329 C344 0.930 . S
C330 H318 0.930 . S
C330 C331 1.399 . S
C330 C335 1.399 . S
C331 C330 1.399 . S
C331 C332 1.376 . S
C332 H319 0.930 . S
C332 C331 1.376 . S
C332 C333 1.388 . S
C333 H320 0.930 . S
C333 C332 1.388 . S
C333 C334 1.390 . S
C334 C333 1.390 . S
C334 C335 1.394 . S
C334 C340 1.465 . S
C335 C330 1.399 . S
C335 C334 1.394 . S
C335 C336 1.516 . S
C336 C335 1.516 . S
C336 C337 1.502 . S
C336 C338 1.561 . S
C336 C339 1.526 . S
C337 H321 0.959 . S
C337 H322 0.959 . S
C337 H323 0.961 . S
C337 C336 1.502 . S
C338 H324 0.960 . S
C338 H325 0.961 . S
C338 H326 0.959 . S
C338 C336 1.561 . S
C339 C336 1.526 . S
C339 C340 1.396 . S
C339 C344 1.390 . S
C340 C334 1.465 . S
C340 C339 1.396 . S
C340 C341 1.399 . S
C341 H327 0.929 . S
C341 C340 1.399 . S
C341 C342 1.385 . S
C342 H328 0.931 . S
C342 C341 1.385 . S
C342 C343 1.389 . S
C343 C342 1.389 . S
C343 C344 1.387 . S
C344 H329 0.930 . S
C344 C339 1.390 . S
C344 C343 1.387 . S
H345 C357 0.930 . S
H346 C359 0.930 . S
H347 C360 0.930 . S
H348 C364 0.959 . S
H349 C364 0.959 . S
H350 C364 0.961 . S
H351 C365 0.960 . S
H352 C365 0.961 . S
H353 C365 0.959 . S
H354 C368 0.929 1_655 S
H355 C369 0.931 . S
H356 C371 0.930 . S
C357 H345 0.930 . S
C357 C358 1.399 . S
C357 C362 1.399 . S
C358 C357 1.399 . S
C358 C359 1.376 . S
C359 H346 0.930 . S
C359 C358 1.376 . S
C359 C360 1.388 . S
C360 H347 0.930 . S
C360 C359 1.388 . S
C360 C361 1.390 . S
C361 C360 1.390 . S
C361 C362 1.394 . S
C361 C367 1.465 1_655 S
C362 C357 1.399 . S
C362 C361 1.394 . S
C362 C363 1.516 1_655 S
C363 C362 1.516 1_455 S
C363 C364 1.502 . S
C363 C365 1.561 . S
C363 C366 1.526 . S
C364 H348 0.959 . S
C364 H349 0.959 . S
C364 H350 0.961 . S
C364 C363 1.502 . S
C365 H351 0.960 . S
C365 H352 0.961 . S
C365 H353 0.959 . S
C365 C363 1.561 . S
C366 C363 1.526 . S
C366 C367 1.396 . S
C366 C371 1.390 . S
C367 C361 1.465 1_455 S
C367 C366 1.396 . S
C367 C368 1.399 . S
C368 H354 0.929 1_455 S
C368 C367 1.399 . S
C368 C369 1.385 . S
C369 H355 0.931 . S
C369 C368 1.385 . S
C369 C370 1.389 . S
C370 C369 1.389 . S
C370 C371 1.387 . S
C371 H356 0.930 . S
C371 C366 1.390 . S
C371 C370 1.387 . S
H372 C384 0.930 . S
H373 C386 0.930 . S
H374 C387 0.930 1_565 S
H375 C391 0.959 . S
H376 C391 0.959 . S
H377 C391 0.961 . S
H378 C392 0.960 . S
H379 C392 0.961 . S
H380 C392 0.959 . S
H381 C395 0.929 . S
H382 C396 0.931 . S
H383 C398 0.930 . S
C384 H372 0.930 . S
C384 C385 1.399 . S
C384 C389 1.399 . S
C385 C384 1.399 . S
C385 C386 1.376 . S
C386 H373 0.930 . S
C386 C385 1.376 . S
C386 C387 1.388 . S
C387 H374 0.930 1_545 S
C387 C386 1.388 . S
C387 C388 1.390 . S
C388 C387 1.390 . S
C388 C389 1.394 . S
C388 C394 1.465 1_545 S
C389 C384 1.399 . S
C389 C388 1.394 . S
C389 C390 1.516 . S
C390 C389 1.516 . S
C390 C391 1.502 . S
C390 C392 1.561 . S
C390 C393 1.526 1_545 S
C391 H375 0.959 . S
C391 H376 0.959 . S
C391 H377 0.961 . S
C391 C390 1.502 . S
C392 H378 0.960 . S
C392 H379 0.961 . S
C392 H380 0.959 . S
C392 C390 1.561 . S
C393 C390 1.526 1_565 S
C393 C394 1.396 . S
C393 C398 1.390 . S
C394 C388 1.465 1_565 S
C394 C393 1.396 . S
C394 C395 1.399 . S
C395 H381 0.929 . S
C395 C394 1.399 . S
C395 C396 1.385 . S
C396 H382 0.931 . S
C396 C395 1.385 . S
C396 C397 1.389 . S
C397 C396 1.389 . S
C397 C398 1.387 . S
C398 H383 0.930 . S
C398 C393 1.390 . S
C398 C397 1.387 . S
H399 C411 0.930 . S
H400 C413 0.930 . S
H401 C414 0.930 . S
H402 C418 0.959 . S
H403 C418 0.959 . S
H404 C418 0.961 . S
H405 C419 0.960 . S
H406 C419 0.961 . S
H407 C419 0.959 . S
H408 C422 0.929 . S
H409 C423 0.931 . S
H410 C425 0.930 . S
C411 H399 0.930 . S
C411 C412 1.399 . S
C411 C416 1.399 . S
C412 C411 1.399 . S
C412 C413 1.376 . S
C413 H400 0.930 . S
C413 C412 1.376 . S
C413 C414 1.388 . S
C414 H401 0.930 . S
C414 C413 1.388 . S
C414 C415 1.390 . S
C415 C414 1.390 . S
C415 C416 1.394 . S
C415 C421 1.465 . S
C416 C411 1.399 . S
C416 C415 1.394 . S
C416 C417 1.516 . S
C417 C416 1.516 . S
C417 C418 1.502 . S
C417 C419 1.561 . S
C417 C420 1.526 . S
C418 H402 0.959 . S
C418 H403 0.959 . S
C418 H404 0.961 . S
C418 C417 1.502 . S
C419 H405 0.960 . S
C419 H406 0.961 . S
C419 H407 0.959 . S
C419 C417 1.561 . S
C420 C417 1.526 . S
C420 C421 1.396 . S
C420 C425 1.390 . S
C421 C415 1.465 . S
C421 C420 1.396 . S
C421 C422 1.399 . S
C422 H408 0.929 . S
C422 C421 1.399 . S
C422 C423 1.385 . S
C423 H409 0.931 . S
C423 C422 1.385 . S
C423 C424 1.389 . S
C424 C423 1.389 . S
C424 C425 1.387 . S
C425 H410 0.930 . S
C425 C420 1.390 . S
C425 C424 1.387 . S
H426 C438 0.930 . S
H427 C440 0.930 . S
H428 C441 0.930 . S
H429 C445 0.959 . S
H430 C445 0.959 . S
H431 C445 0.961 . S
H432 C446 0.960 . S
H433 C446 0.961 . S
H434 C446 0.959 . S
H435 C449 0.929 1_655 S
H436 C450 0.931 . S
H437 C452 0.930 . S
C438 H426 0.930 . S
C438 C439 1.399 . S
C438 C443 1.399 . S
C439 C438 1.399 . S
C439 C440 1.376 . S
C440 H427 0.930 . S
C440 C439 1.376 . S
C440 C441 1.388 . S
C441 H428 0.930 . S
C441 C440 1.388 . S
C441 C442 1.390 . S
C442 C441 1.390 . S
C442 C443 1.394 . S
C442 C448 1.465 1_655 S
C443 C438 1.399 . S
C443 C442 1.394 . S
C443 C444 1.516 1_655 S
C444 C443 1.516 1_455 S
C444 C445 1.502 . S
C444 C446 1.561 . S
C444 C447 1.526 . S
C445 H429 0.959 . S
C445 H430 0.959 . S
C445 H431 0.961 . S
C445 C444 1.502 . S
C446 H432 0.960 . S
C446 H433 0.961 . S
C446 H434 0.959 . S
C446 C444 1.561 . S
C447 C444 1.526 . S
C447 C448 1.396 . S
C447 C452 1.390 . S
C448 C442 1.465 1_455 S
C448 C447 1.396 . S
C448 C449 1.399 . S
C449 H435 0.929 1_455 S
C449 C448 1.399 . S
C449 C450 1.385 . S
C450 H436 0.931 . S
C450 C449 1.385 . S
C450 C451 1.389 . S
C451 C450 1.389 . S
C451 C452 1.387 . S
C452 H437 0.930 . S
C452 C447 1.390 . S
C452 C451 1.387 . S
H453 C465 0.930 . S
H454 C467 0.930 . S
H455 C468 0.930 . S
H456 C472 0.959 . S
H457 C472 0.959 . S
H458 C472 0.961 . S
H459 C473 0.960 . S
H460 C473 0.961 . S
H461 C473 0.959 . S
H462 C476 0.929 1_565 S
H463 C477 0.931 . S
H464 C479 0.930 . S
C465 H453 0.930 . S
C465 C466 1.399 . S
C465 C470 1.399 . S
C466 C465 1.399 . S
C466 C467 1.376 . S
C467 H454 0.930 . S
C467 C466 1.376 . S
C467 C468 1.388 1_554 S
C468 H455 0.930 . S
C468 C467 1.388 1_556 S
C468 C469 1.397 . S
C469 C468 1.397 . S
C469 C470 1.345 1_556 S
C469 C475 1.502 1_565 S
C470 C465 1.399 . S
C470 C469 1.345 1_554 S
C470 C471 1.516 1_565 S
C471 C470 1.516 1_545 S
C471 C472 1.502 . S
C471 C473 1.561 . S
C471 C474 1.526 1_554 S
C472 H456 0.959 . S
C472 H457 0.959 . S
C472 H458 0.961 . S
C472 C471 1.502 . S
C473 H459 0.960 . S
C473 H460 0.961 . S
C473 H461 0.959 . S
C473 C471 1.561 . S
C474 C471 1.526 1_556 S
C474 C475 1.396 . S
C474 C479 1.390 . S
C475 C469 1.502 1_545 S
C475 C474 1.396 . S
C475 C476 1.399 . S
C476 H462 0.929 1_545 S
C476 C475 1.399 . S
C476 C477 1.385 . S
C477 H463 0.931 . S
C477 C476 1.385 . S
C477 C478 1.389 . S
C478 C477 1.389 . S
C478 C479 1.387 . S
C479 H464 0.930 . S
C479 C474 1.390 . S
C479 C478 1.387 . S
H480 C492 0.930 . S
H481 C494 0.930 . S
H482 C495 0.930 . S
H483 C499 0.959 . S
H484 C499 0.959 1_556 S
H485 C499 0.961 . S
H486 C500 0.960 . S
H487 C500 0.961 1_556 S
H488 C500 0.959 . S
H489 C503 0.929 . S
H490 C504 0.931 . S
H491 C506 0.930 . S
C492 H480 0.930 . S
C492 C493 1.399 . S
C492 C497 1.399 . S
C493 C492 1.399 . S
C493 C494 1.376 . S
C494 H481 0.930 . S
C494 C493 1.376 . S
C494 C495 1.388 . S
C495 H482 0.930 . S
C495 C494 1.388 . S
C495 C496 1.390 . S
C496 C495 1.390 . S
C496 C497 1.394 . S
C496 C502 1.465 . S
C497 C492 1.399 . S
C497 C496 1.394 . S
C497 C498 1.516 . S
C498 C497 1.516 . S
C498 C499 1.502 . S
C498 C500 1.561 . S
C498 C501 1.526 . S
C499 H483 0.959 . S
C499 H484 0.959 1_554 S
C499 H485 0.961 . S
C499 C498 1.502 . S
C500 H486 0.960 . S
C500 H487 0.961 1_554 S
C500 H488 0.959 . S
C500 C498 1.561 . S
C501 C498 1.526 . S
C501 C502 1.396 . S
C501 C506 1.390 1_554 S
C502 C496 1.465 . S
C502 C501 1.396 . S
C502 C503 1.399 . S
C503 H489 0.929 . S
C503 C502 1.399 . S
C503 C504 1.385 . S
C504 H490 0.931 . S
C504 C503 1.385 . S
C504 C505 1.389 1_554 S
C505 C504 1.389 1_556 S
C505 C506 1.387 . S
C506 H491 0.930 . S
C506 C501 1.390 1_556 S
C506 C505 1.387 . S
H507 C519 0.930 . S
H508 C521 0.930 . S
H509 C522 0.930 . S
H510 C526 0.959 . S
H511 C526 0.959 . S
H512 C526 0.961 . S
H513 C527 0.960 . S
H514 C527 0.961 . S
H515 C527 0.959 . S
H516 C530 0.929 . S
H517 C531 0.931 . S
H518 C533 0.930 . S
C519 H507 0.930 . S
C519 C520 1.399 . S
C519 C524 1.399 . S
C520 C519 1.399 . S
C520 C521 1.376 . S
C521 H508 0.930 . S
C521 C520 1.376 . S
C521 C522 1.388 . S
C522 H509 0.930 . S
C522 C521 1.388 . S
C522 C523 1.390 . S
C523 C522 1.390 . S
C523 C524 1.394 . S
C523 C529 1.465 . S
C524 C519 1.399 . S
C524 C523 1.394 . S
C524 C525 1.516 . S
C525 C524 1.516 . S
C525 C526 1.502 . S
C525 C527 1.561 . S
C525 C528 1.526 . S
C526 H510 0.959 . S
C526 H511 0.959 . S
C526 H512 0.961 . S
C526 C525 1.502 . S
C527 H513 0.960 . S
C527 H514 0.961 . S
C527 H515 0.959 . S
C527 C525 1.561 . S
C528 C525 1.526 . S
C528 C529 1.396 . S
C528 C533 1.390 . S
C529 C523 1.465 . S
C529 C528 1.396 . S
C529 C530 1.399 1_655 S
C530 H516 0.929 . S
C530 C529 1.399 1_455 S
C530 C531 1.385 . S
C531 H517 0.931 . S
C531 C530 1.385 . S
C531 C532 1.389 . S
C532 C531 1.389 . S
C532 C533 1.387 1_455 S
C533 H518 0.930 . S
C533 C528 1.390 . S
C533 C532 1.387 1_655 S
H534 C546 0.930 . S
H535 C548 0.930 . S
H536 C549 0.930 . S
H537 C553 0.959 . S
H538 C553 0.959 . S
H539 C553 0.961 . S
H540 C554 0.960 . S
H541 C554 0.961 . S
H542 C554 0.959 . S
H543 C557 0.929 . S
H544 C558 0.931 . S
H545 C560 0.930 . S
C546 H534 0.930 . S
C546 C547 1.399 1_565 S
C546 C551 1.399 . S
C547 C546 1.399 1_545 S
C547 C548 1.376 . S
C548 H535 0.930 . S
C548 C547 1.376 . S
C548 C549 1.388 . S
C549 H536 0.930 . S
C549 C548 1.388 . S
C549 C550 1.390 1_545 S
C550 C549 1.390 1_565 S
C550 C551 1.394 . S
C550 C556 1.465 . S
C551 C546 1.399 . S
C551 C550 1.394 . S
C551 C552 1.516 . S
C552 C551 1.516 . S
C552 C553 1.502 . S
C552 C554 1.561 . S
C552 C555 1.526 . S
C553 H537 0.959 . S
C553 H538 0.959 . S
C553 H539 0.961 . S
C553 C552 1.502 . S
C554 H540 0.960 . S
C554 H541 0.961 . S
C554 H542 0.959 . S
C554 C552 1.561 . S
C555 C552 1.526 . S
C555 C556 1.396 . S
C555 C560 1.390 . S
C556 C550 1.465 . S
C556 C555 1.396 . S
C556 C557 1.399 . S
C557 H543 0.929 . S
C557 C556 1.399 . S
C557 C558 1.385 . S
C558 H544 0.931 . S
C558 C557 1.385 . S
C558 C559 1.389 . S
C559 C558 1.389 . S
C559 C560 1.387 . S
C560 H545 0.930 . S
C560 C555 1.390 . S
C560 C559 1.387 . S
H561 C573 0.930 . S
H562 C575 0.930 . S
H563 C576 0.930 . S
H564 C580 0.959 . S
H565 C580 0.959 . S
H566 C580 0.961 . S
H567 C581 0.960 . S
H568 C581 0.961 . S
H569 C581 0.959 . S
H570 C584 0.929 . S
H571 C585 0.931 . S
H572 C587 0.930 . S
C573 H561 0.930 . S
C573 C574 1.399 . S
C573 C578 1.399 . S
C574 C573 1.399 . S
C574 C575 1.376 . S
C575 H562 0.930 . S
C575 C574 1.376 . S
C575 C576 1.388 . S
C576 H563 0.930 . S
C576 C575 1.388 . S
C576 C577 1.390 . S
C577 C576 1.390 . S
C577 C578 1.394 . S
C577 C583 1.465 . S
C578 C573 1.399 . S
C578 C577 1.394 . S
C578 C579 1.516 . S
C579 C578 1.516 . S
C579 C580 1.502 . S
C579 C581 1.561 . S
C579 C582 1.526 . S
C580 H564 0.959 . S
C580 H565 0.959 . S
C580 H566 0.961 . S
C580 C579 1.502 . S
C581 H567 0.960 . S
C581 H568 0.961 . S
C581 H569 0.959 . S
C581 C579 1.561 . S
C582 C579 1.526 . S
C582 C583 1.396 . S
C582 C587 1.390 . S
C583 C577 1.465 . S
C583 C582 1.396 . S
C583 C584 1.399 . S
C584 H570 0.929 . S
C584 C583 1.399 . S
C584 C585 1.385 . S
C585 H571 0.931 . S
C585 C584 1.385 . S
C585 C586 1.389 . S
C586 C585 1.389 . S
C586 C587 1.387 . S
C587 H572 0.930 . S
C587 C582 1.390 . S
C587 C586 1.387 . S
H588 C600 0.930 . S
H589 C602 0.930 . S
H590 C603 0.930 . S
H591 C607 0.959 . S
H592 C607 0.959 . S
H593 C607 0.961 . S
H594 C608 0.960 . S
H595 C608 0.961 . S
H596 C608 0.959 . S
H597 C611 0.925 1_455 S
H598 C612 0.931 . S
H599 C614 0.930 . S
C600 H588 0.930 . S
C600 C601 1.399 . S
C600 C605 1.399 . S
C601 C600 1.399 . S
C601 C602 1.376 . S
C602 H589 0.930 . S
C602 C601 1.376 . S
C602 C603 1.388 . S
C603 H590 0.930 . S
C603 C602 1.388 . S
C603 C604 1.390 . S
C604 C603 1.390 . S
C604 C605 1.394 . S
C604 C610 1.465 . S
C605 C600 1.399 . S
C605 C604 1.394 . S
C605 C606 1.516 . S
C606 C605 1.516 . S
C606 C607 1.502 . S
C606 C608 1.561 . S
C606 C609 1.526 . S
C607 H591 0.959 . S
C607 H592 0.959 . S
C607 H593 0.961 . S
C607 C606 1.502 . S
C608 H594 0.960 . S
C608 H595 0.961 . S
C608 H596 0.959 . S
C608 C606 1.561 . S
C609 C606 1.526 . S
C609 C610 1.396 . S
C609 C614 1.390 1_455 S
C610 C604 1.465 . S
C610 C609 1.396 . S
C610 C611 1.397 1_455 S
C611 H597 0.925 1_655 S
C611 C610 1.397 1_655 S
C611 C612 1.390 . S
C612 H598 0.931 . S
C612 C611 1.390 . S
C612 C613 1.389 . S
C613 C612 1.389 . S
C613 C614 1.387 . S
C614 H599 0.930 . S
C614 C609 1.390 1_655 S
C614 C613 1.387 . S
H615 C627 0.930 . S
H616 C629 0.930 . S
H617 C630 0.930 . S
H618 C634 0.959 . S
H619 C634 0.959 . S
H620 C634 0.961 . S
H621 C635 0.960 . S
H622 C635 0.961 . S
H623 C635 0.959 . S
H624 C638 0.929 . S
H625 C639 0.931 . S
H626 C641 0.930 . S
C627 H615 0.930 . S
C627 C628 1.399 . S
C627 C632 1.399 . S
C628 C627 1.399 . S
C628 C629 1.376 . S
C629 H616 0.930 . S
C629 C628 1.376 . S
C629 C630 1.388 . S
C630 H617 0.930 . S
C630 C629 1.388 . S
C630 C631 1.390 . S
C631 C630 1.390 . S
C631 C632 1.394 . S
C631 C637 1.465 . S
C632 C627 1.399 . S
C632 C631 1.394 . S
C632 C633 1.516 . S
C633 C632 1.516 . S
C633 C634 1.502 . S
C633 C635 1.561 1_545 S
C633 C636 1.526 . S
C634 H618 0.959 . S
C634 H619 0.959 . S
C634 H620 0.961 . S
C634 C633 1.502 . S
C635 H621 0.960 . S
C635 H622 0.961 . S
C635 H623 0.959 . S
C635 C633 1.561 1_565 S
C636 C633 1.526 . S
C636 C637 1.396 . S
C636 C641 1.390 1_545 S
C637 C631 1.465 . S
C637 C636 1.396 . S
C637 C638 1.399 . S
C638 H624 0.929 . S
C638 C637 1.399 . S
C638 C639 1.385 1_545 S
C639 H625 0.931 . S
C639 C638 1.385 1_565 S
C639 C640 1.389 . S
C640 C639 1.389 . S
C640 C641 1.387 . S
C641 H626 0.930 . S
C641 C636 1.390 1_565 S
C641 C640 1.387 . S
H642 C654 0.930 . S
H643 C656 0.930 . S
H644 C657 0.930 . S
H645 C661 0.959 . S
H646 C661 0.959 . S
H647 C661 0.961 . S
H648 C662 0.960 . S
H649 C662 0.961 . S
H650 C662 0.959 . S
H651 C665 0.929 . S
H652 C666 0.931 . S
H653 C668 0.930 . S
C654 H642 0.930 . S
C654 C655 1.399 . S
C654 C659 1.399 . S
C655 C654 1.399 . S
C655 C656 1.376 . S
C656 H643 0.930 . S
C656 C655 1.376 . S
C656 C657 1.388 . S
C657 H644 0.930 . S
C657 C656 1.388 . S
C657 C658 1.390 . S
C658 C657 1.390 . S
C658 C659 1.394 . S
C658 C664 1.465 . S
C659 C654 1.399 . S
C659 C658 1.394 . S
C659 C660 1.516 . S
C660 C659 1.516 . S
C660 C661 1.502 . S
C660 C662 1.561 . S
C660 C663 1.526 . S
C661 H645 0.959 . S
C661 H646 0.959 . S
C661 H647 0.961 . S
C661 C660 1.502 . S
C662 H648 0.960 . S
C662 H649 0.961 . S
C662 H650 0.959 . S
C662 C660 1.561 . S
C663 C660 1.526 . S
C663 C664 1.396 . S
C663 C668 1.390 . S
C664 C658 1.465 . S
C664 C663 1.396 . S
C664 C665 1.399 . S
C665 H651 0.929 . S
C665 C664 1.399 . S
C665 C666 1.385 . S
C666 H652 0.931 . S
C666 C665 1.385 . S
C666 C667 1.389 . S
C667 C666 1.389 . S
C667 C668 1.387 . S
C668 H653 0.930 . S
C668 C663 1.390 . S
C668 C667 1.387 . S
H669 C681 0.930 . S
H670 C683 0.930 . S
H671 C684 0.930 . S
H672 C688 0.959 . S
H673 C688 0.959 1_455 S
H674 C688 0.961 . S
H675 C689 0.960 . S
H676 C689 0.961 . S
H677 C689 0.959 . S
H678 C692 0.939 . S
H679 C693 0.935 1_455 S
H680 C695 0.930 . S
C681 H669 0.930 . S
C681 C682 1.399 . S
C681 C686 1.399 . S
C682 C681 1.399 . S
C682 C683 1.376 . S
C683 H670 0.930 . S
C683 C682 1.376 . S
C683 C684 1.388 . S
C684 H671 0.930 . S
C684 C683 1.388 . S
C684 C685 1.390 . S
C685 C684 1.390 . S
C685 C686 1.394 . S
C685 C691 1.465 . S
C686 C681 1.399 . S
C686 C685 1.394 . S
C686 C687 1.516 . S
C687 C686 1.516 . S
C687 C688 1.502 . S
C687 C689 1.561 1_655 S
C687 C690 1.526 . S
C688 H672 0.959 . S
C688 H673 0.959 1_655 S
C688 H674 0.961 . S
C688 C687 1.502 . S
C689 H675 0.960 . S
C689 H676 0.961 . S
C689 H677 0.959 . S
C689 C687 1.561 1_455 S
C690 C687 1.526 . S
C690 C691 1.396 . S
C690 C695 1.390 1_655 S
C691 C685 1.465 . S
C691 C690 1.396 . S
C691 C692 1.373 1_556 S
C692 H678 0.939 . S
C692 C691 1.373 1_554 S
C692 C693 1.402 . S
C693 H679 0.935 1_655 S
C693 C692 1.402 . S
C693 C694 1.389 1_655 S
C694 C693 1.389 1_455 S
C694 C695 1.387 1_554 S
C695 H680 0.930 . S
C695 C690 1.390 1_455 S
C695 C694 1.387 1_556 S
H696 C708 0.930 . S
H697 C710 0.930 . S
H698 C711 0.930 . S
H699 C715 0.959 . S
H700 C715 0.959 . S
H701 C715 0.961 . S
H702 C716 0.960 . S
H703 C716 0.961 1_545 S
H704 C716 0.959 . S
H705 C719 0.929 . S
H706 C720 0.931 . S
H707 C722 0.930 . S
C708 H696 0.930 . S
C708 C709 1.399 . S
C708 C713 1.399 . S
C709 C708 1.399 . S
C709 C710 1.376 . S
C710 H697 0.930 . S
C710 C709 1.376 . S
C710 C711 1.388 . S
C711 H698 0.930 . S
C711 C710 1.388 . S
C711 C712 1.390 . S
C712 C711 1.390 . S
C712 C713 1.394 . S
C712 C718 1.465 . S
C713 C708 1.399 . S
C713 C712 1.394 . S
C713 C714 1.516 . S
C714 C713 1.516 . S
C714 C715 1.502 1_565 S
C714 C716 1.561 . S
C714 C717 1.526 . S
C715 H699 0.959 . S
C715 H700 0.959 . S
C715 H701 0.961 . S
C715 C714 1.502 1_545 S
C716 H702 0.960 . S
C716 H703 0.961 1_565 S
C716 H704 0.959 . S
C716 C714 1.561 . S
C717 C714 1.526 . S
C717 C718 1.396 . S
C717 C722 1.390 1_565 S
C718 C712 1.465 . S
C718 C717 1.396 . S
C718 C719 1.399 . S
C719 H705 0.929 . S
C719 C718 1.399 . S
C719 C720 1.385 . S
C720 H706 0.931 . S
C720 C719 1.385 . S
C720 C721 1.389 1_565 S
C721 C720 1.389 1_545 S
C721 C722 1.387 . S
C722 H707 0.930 . S
C722 C717 1.390 1_545 S
C722 C721 1.387 . S
H723 C735 0.930 . S
H724 C737 0.930 . S
H725 C738 0.930 . S
H726 C742 0.959 . S
H727 C742 0.959 . S
H728 C742 0.961 . S
H729 C743 0.960 . S
H730 C743 0.961 . S
H731 C743 0.959 . S
H732 C746 0.929 . S
H733 C747 0.931 . S
H734 C749 0.930 . S
C735 H723 0.930 . S
C735 C736 1.399 . S
C735 C740 1.399 . S
C736 C735 1.399 . S
C736 C737 1.376 . S
C737 H724 0.930 . S
C737 C736 1.376 . S
C737 C738 1.388 . S
C738 H725 0.930 . S
C738 C737 1.388 . S
C738 C739 1.390 . S
C739 C738 1.390 . S
C739 C740 1.394 . S
C739 C745 1.465 . S
C740 C735 1.399 . S
C740 C739 1.394 . S
C740 C741 1.516 . S
C741 C740 1.516 . S
C741 C742 1.502 . S
C741 C743 1.561 . S
C741 C744 1.526 . S
C742 H726 0.959 . S
C742 H727 0.959 . S
C742 H728 0.961 . S
C742 C741 1.502 . S
C743 H729 0.960 . S
C743 H730 0.961 . S
C743 H731 0.959 . S
C743 C741 1.561 . S
C744 C741 1.526 . S
C744 C745 1.396 . S
C744 C749 1.390 . S
C745 C739 1.465 . S
C745 C744 1.396 . S
C745 C746 1.399 . S
C746 H732 0.929 . S
C746 C745 1.399 . S
C746 C747 1.385 . S
C747 H733 0.931 . S
C747 C746 1.385 . S
C747 C748 1.389 . S
C748 C747 1.389 . S
C748 C749 1.387 . S
C749 H734 0.930 . S
C749 C744 1.390 . S
C749 C748 1.387 . S
H750 C762 0.930 . S
H751 C764 0.930 . S
H752 C765 0.930 . S
H753 C769 0.959 . S
H754 C769 0.959 . S
H755 C769 0.961 . S
H756 C770 0.960 . S
H757 C770 0.961 1_655 S
H758 C770 0.959 . S
H759 C773 0.929 . S
H760 C774 0.931 . S
H761 C776 0.930 . S
C762 H750 0.930 . S
C762 C763 1.399 . S
C762 C767 1.399 . S
C763 C762 1.399 . S
C763 C764 1.376 . S
C764 H751 0.930 . S
C764 C763 1.376 . S
C764 C765 1.388 . S
C765 H752 0.930 . S
C765 C764 1.388 . S
C765 C766 1.390 . S
C766 C765 1.390 . S
C766 C767 1.394 . S
C766 C772 1.465 . S
C767 C762 1.399 . S
C767 C766 1.394 . S
C767 C768 1.516 . S
C768 C767 1.516 . S
C768 C769 1.502 1_455 S
C768 C770 1.561 . S
C768 C771 1.526 . S
C769 H753 0.959 . S
C769 H754 0.959 . S
C769 H755 0.961 . S
C769 C768 1.502 1_655 S
C770 H756 0.960 . S
C770 H757 0.961 1_455 S
C770 H758 0.959 . S
C770 C768 1.561 . S
C771 C768 1.526 . S
C771 C772 1.396 . S
C771 C776 1.390 1_455 S
C772 C766 1.465 . S
C772 C771 1.396 . S
C772 C773 1.399 . S
C773 H759 0.929 . S
C773 C772 1.399 . S
C773 C774 1.385 . S
C774 H760 0.931 . S
C774 C773 1.385 . S
C774 C775 1.389 1_455 S
C775 C774 1.389 1_655 S
C775 C776 1.387 . S
C776 H761 0.930 . S
C776 C771 1.390 1_655 S
C776 C775 1.387 . S
H777 C789 0.930 . S
H778 C791 0.930 . S
H779 C792 0.930 . S
H780 C796 0.959 . S
H781 C796 0.959 . S
H782 C796 0.961 . S
H783 C797 0.960 . S
H784 C797 0.961 . S
H785 C797 0.959 . S
H786 C800 0.929 . S
H787 C801 0.931 . S
H788 C803 0.930 . S
C789 H777 0.930 . S
C789 C790 1.399 1_545 S
C789 C794 1.399 . S
C790 C789 1.399 1_565 S
C790 C791 1.376 . S
C791 H778 0.930 . S
C791 C790 1.376 . S
C791 C792 1.388 . S
C792 H779 0.930 . S
C792 C791 1.388 . S
C792 C793 1.390 1_565 S
C793 C792 1.390 1_545 S
C793 C794 1.394 . S
C793 C799 1.465 . S
C794 C789 1.399 . S
C794 C793 1.394 . S
C794 C795 1.516 . S
C795 C794 1.516 . S
C795 C796 1.502 . S
C795 C797 1.561 . S
C795 C798 1.526 . S
C796 H780 0.959 . S
C796 H781 0.959 . S
C796 H782 0.961 . S
C796 C795 1.502 . S
C797 H783 0.960 . S
C797 H784 0.961 . S
C797 H785 0.959 . S
C797 C795 1.561 . S
C798 C795 1.526 . S
C798 C799 1.396 . S
C798 C803 1.390 . S
C799 C793 1.465 . S
C799 C798 1.396 . S
C799 C800 1.399 . S
C800 H786 0.929 . S
C800 C799 1.399 . S
C800 C801 1.385 . S
C801 H787 0.931 . S
C801 C800 1.385 . S
C801 C802 1.389 . S
C802 C801 1.389 . S
C802 C803 1.387 . S
C803 H788 0.930 . S
C803 C798 1.390 . S
C803 C802 1.387 . S
C169 C107 1.647 . S
C181 C5 1.613 . S
C196 C16 1.639 . S
C208 C120 1.649 . S
C223 C29 1.653 . S
C235 C135 1.616 . S
C250 C44 1.581 . S
C262 C146 1.657 . S
C277 C81 1.639 . S
C289 C55 1.647 . S
C304 C68 1.657 . S
C316 C96 1.584 . S
C331 C118 1.419 . S
C343 C10 1.435 . S
C358 C14 1.418 . S
C370 C140 1.431 . S
C385 C144 1.450 . S
C397 C27 1.420 . S
C412 C49 1.419 . S
C424 C79 1.437 . S
C439 C101 1.360 . S
C451 C53 1.450 . S
C466 C105 1.418 . S
C478 C66 1.452 . S
C493 C3 1.866 . S
C505 C75 1.836 . S
C520 C18 1.864 . S
C532 C1 1.881 . S
C547 C23 1.844 . S
C559 C31 1.853 . S
C574 C42 1.892 . S
C586 C36 1.823 . S
C601 C57 1.869 . S
C613 C40 1.886 . S
C628 C70 1.816 . S
C640 C62 1.787 . S
C655 C83 1.868 . S
C667 C92 1.887 . S
C682 C94 1.885 . S
C694 C114 1.788 . S
C709 C109 1.855 . S
C721 C127 1.822 . S
C736 C122 1.814 . S
C748 C131 1.850 . S
C763 C133 1.893 . S
C775 C153 1.809 . S
C790 C88 1.811 . S
C802 C148 1.824 . S
