# Generated by pormake.
# Topology ech, (8)-cn, num edge types: 1
# Building blocks:
#     Node 0, Type 0, BuildingBlock: AJUNOK_clean_sbu_0, # of connection points: 8
#     Node 1, Type 0, BuildingBlock: AJUNOK_clean_sbu_0, # of connection points: 8
#     Node 2, Type 0, BuildingBlock: AJUNOK_clean_sbu_0, # of connection points: 8
#     Node 3, Type 0, BuildingBlock: AJUNOK_clean_sbu_0, # of connection points: 8
#     Node 4, Type 0, BuildingBlock: AJUNOK_clean_sbu_0, # of connection points: 8
#     Node 5, Type 0, BuildingBlock: AJUNOK_clean_sbu_0, # of connection points: 8
#     Node 6, Type 0, BuildingBlock: AJUNOK_clean_sbu_0, # of connection points: 8
#     Node 7, Type 0, BuildingBlock: AJUNOK_clean_sbu_0, # of connection points: 8
#     Node 8, Type 0, BuildingBlock: AJUNOK_clean_sbu_0, # of connection points: 8
#     Node 9, Type 0, BuildingBlock: AJUNOK_clean_sbu_0, # of connection points: 8
#     Node 10, Type 0, BuildingBlock: AJUNOK_clean_sbu_0, # of connection points: 8
#     Node 11, Type 0, BuildingBlock: AJUNOK_clean_sbu_0, # of connection points: 8
#     Node 12, Type 0, BuildingBlock: AJUNOK_clean_sbu_0, # of connection points: 8
#     Node 13, Type 0, BuildingBlock: AJUNOK_clean_sbu_0, # of connection points: 8
#     Node 14, Type 0, BuildingBlock: AJUNOK_clean_sbu_0, # of connection points: 8
#     Node 15, Type 0, BuildingBlock: AJUNOK_clean_sbu_0, # of connection points: 8
#     Node 16, Type 0, BuildingBlock: AJUNOK_clean_sbu_0, # of connection points: 8
#     Node 17, Type 0, BuildingBlock: AJUNOK_clean_sbu_0, # of connection points: 8
#     Node 18, Type 0, BuildingBlock: AJUNOK_clean_sbu_0, # of connection points: 8
#     Node 19, Type 0, BuildingBlock: AJUNOK_clean_sbu_0, # of connection points: 8
#     Node 20, Type 0, BuildingBlock: AJUNOK_clean_sbu_0, # of connection points: 8
#     Node 21, Type 0, BuildingBlock: AJUNOK_clean_sbu_0, # of connection points: 8
#     Node 22, Type 0, BuildingBlock: AJUNOK_clean_sbu_0, # of connection points: 8
#     Node 23, Type 0, BuildingBlock: AJUNOK_clean_sbu_0, # of connection points: 8
#     Edge 24, Type (0, 0), BuildingBlock: XUDNAN_clean_linker_2, # of connection points: 2
#     Edge 25, Type (0, 0), BuildingBlock: XUDNAN_clean_linker_2, # of connection points: 2
#     Edge 26, Type (0, 0), BuildingBlock: XUDNAN_clean_linker_2, # of connection points: 2
#     Edge 27, Type (0, 0), BuildingBlock: XUDNAN_clean_linker_2, # of connection points: 2
#     Edge 28, Type (0, 0), BuildingBlock: XUDNAN_clean_linker_2, # of connection points: 2
#     Edge 29, Type (0, 0), BuildingBlock: XUDNAN_clean_linker_2, # of connection points: 2
#     Edge 30, Type (0, 0), BuildingBlock: XUDNAN_clean_linker_2, # of connection points: 2
#     Edge 31, Type (0, 0), BuildingBlock: XUDNAN_clean_linker_2, # of connection points: 2
#     Edge 32, Type (0, 0), BuildingBlock: XUDNAN_clean_linker_2, # of connection points: 2
#     Edge 33, Type (0, 0), BuildingBlock: XUDNAN_clean_linker_2, # of connection points: 2
#     Edge 34, Type (0, 0), BuildingBlock: XUDNAN_clean_linker_2, # of connection points: 2
#     Edge 35, Type (0, 0), BuildingBlock: XUDNAN_clean_linker_2, # of connection points: 2
#     Edge 36, Type (0, 0), BuildingBlock: XUDNAN_clean_linker_2, # of connection points: 2
#     Edge 37, Type (0, 0), BuildingBlock: XUDNAN_clean_linker_2, # of connection points: 2
#     Edge 38, Type (0, 0), BuildingBlock: XUDNAN_clean_linker_2, # of connection points: 2
#     Edge 39, Type (0, 0), BuildingBlock: XUDNAN_clean_linker_2, # of connection points: 2
#     Edge 40, Type (0, 0), BuildingBlock: XUDNAN_clean_linker_2, # of connection points: 2
#     Edge 41, Type (0, 0), BuildingBlock: XUDNAN_clean_linker_2, # of connection points: 2
#     Edge 42, Type (0, 0), BuildingBlock: XUDNAN_clean_linker_2, # of connection points: 2
#     Edge 43, Type (0, 0), BuildingBlock: XUDNAN_clean_linker_2, # of connection points: 2
#     Edge 44, Type (0, 0), BuildingBlock: XUDNAN_clean_linker_2, # of connection points: 2
#     Edge 45, Type (0, 0), BuildingBlock: XUDNAN_clean_linker_2, # of connection points: 2
#     Edge 46, Type (0, 0), BuildingBlock: XUDNAN_clean_linker_2, # of connection points: 2
#     Edge 47, Type (0, 0), BuildingBlock: XUDNAN_clean_linker_2, # of connection points: 2
#     Edge 48, Type (0, 0), BuildingBlock: XUDNAN_clean_linker_2, # of connection points: 2
#     Edge 49, Type (0, 0), BuildingBlock: XUDNAN_clean_linker_2, # of connection points: 2
#     Edge 50, Type (0, 0), BuildingBlock: XUDNAN_clean_linker_2, # of connection points: 2
#     Edge 51, Type (0, 0), BuildingBlock: XUDNAN_clean_linker_2, # of connection points: 2
#     Edge 52, Type (0, 0), BuildingBlock: XUDNAN_clean_linker_2, # of connection points: 2
#     Edge 53, Type (0, 0), BuildingBlock: XUDNAN_clean_linker_2, # of connection points: 2
#     Edge 54, Type (0, 0), BuildingBlock: XUDNAN_clean_linker_2, # of connection points: 2
#     Edge 55, Type (0, 0), BuildingBlock: XUDNAN_clean_linker_2, # of connection points: 2
#     Edge 56, Type (0, 0), BuildingBlock: XUDNAN_clean_linker_2, # of connection points: 2
#     Edge 57, Type (0, 0), BuildingBlock: XUDNAN_clean_linker_2, # of connection points: 2
#     Edge 58, Type (0, 0), BuildingBlock: XUDNAN_clean_linker_2, # of connection points: 2
#     Edge 59, Type (0, 0), BuildingBlock: XUDNAN_clean_linker_2, # of connection points: 2
#     Edge 60, Type (0, 0), BuildingBlock: XUDNAN_clean_linker_2, # of connection points: 2
#     Edge 61, Type (0, 0), BuildingBlock: XUDNAN_clean_linker_2, # of connection points: 2
#     Edge 62, Type (0, 0), BuildingBlock: XUDNAN_clean_linker_2, # of connection points: 2
#     Edge 63, Type (0, 0), BuildingBlock: XUDNAN_clean_linker_2, # of connection points: 2
#     Edge 64, Type (0, 0), BuildingBlock: XUDNAN_clean_linker_2, # of connection points: 2
#     Edge 65, Type (0, 0), BuildingBlock: XUDNAN_clean_linker_2, # of connection points: 2
#     Edge 66, Type (0, 0), BuildingBlock: XUDNAN_clean_linker_2, # of connection points: 2
#     Edge 67, Type (0, 0), BuildingBlock: XUDNAN_clean_linker_2, # of connection points: 2
#     Edge 68, Type (0, 0), BuildingBlock: XUDNAN_clean_linker_2, # of connection points: 2
#     Edge 69, Type (0, 0), BuildingBlock: XUDNAN_clean_linker_2, # of connection points: 2
#     Edge 70, Type (0, 0), BuildingBlock: XUDNAN_clean_linker_2, # of connection points: 2
#     Edge 71, Type (0, 0), BuildingBlock: XUDNAN_clean_linker_2, # of connection points: 2
#     Edge 72, Type (0, 0), BuildingBlock: XUDNAN_clean_linker_2, # of connection points: 2
#     Edge 73, Type (0, 0), BuildingBlock: XUDNAN_clean_linker_2, # of connection points: 2
#     Edge 74, Type (0, 0), BuildingBlock: XUDNAN_clean_linker_2, # of connection points: 2
#     Edge 75, Type (0, 0), BuildingBlock: XUDNAN_clean_linker_2, # of connection points: 2
#     Edge 76, Type (0, 0), BuildingBlock: XUDNAN_clean_linker_2, # of connection points: 2
#     Edge 77, Type (0, 0), BuildingBlock: XUDNAN_clean_linker_2, # of connection points: 2
#     Edge 78, Type (0, 0), BuildingBlock: XUDNAN_clean_linker_2, # of connection points: 2
#     Edge 79, Type (0, 0), BuildingBlock: XUDNAN_clean_linker_2, # of connection points: 2
#     Edge 80, Type (0, 0), BuildingBlock: XUDNAN_clean_linker_2, # of connection points: 2
#     Edge 81, Type (0, 0), BuildingBlock: XUDNAN_clean_linker_2, # of connection points: 2
#     Edge 82, Type (0, 0), BuildingBlock: XUDNAN_clean_linker_2, # of connection points: 2
#     Edge 83, Type (0, 0), BuildingBlock: XUDNAN_clean_linker_2, # of connection points: 2
#     Edge 84, Type (0, 0), BuildingBlock: XUDNAN_clean_linker_2, # of connection points: 2
#     Edge 85, Type (0, 0), BuildingBlock: XUDNAN_clean_linker_2, # of connection points: 2
#     Edge 86, Type (0, 0), BuildingBlock: XUDNAN_clean_linker_2, # of connection points: 2
#     Edge 87, Type (0, 0), BuildingBlock: XUDNAN_clean_linker_2, # of connection points: 2
#     Edge 88, Type (0, 0), BuildingBlock: XUDNAN_clean_linker_2, # of connection points: 2
#     Edge 89, Type (0, 0), BuildingBlock: XUDNAN_clean_linker_2, # of connection points: 2
#     Edge 90, Type (0, 0), BuildingBlock: XUDNAN_clean_linker_2, # of connection points: 2
#     Edge 91, Type (0, 0), BuildingBlock: XUDNAN_clean_linker_2, # of connection points: 2
#     Edge 92, Type (0, 0), BuildingBlock: XUDNAN_clean_linker_2, # of connection points: 2
#     Edge 93, Type (0, 0), BuildingBlock: XUDNAN_clean_linker_2, # of connection points: 2
#     Edge 94, Type (0, 0), BuildingBlock: XUDNAN_clean_linker_2, # of connection points: 2
#     Edge 95, Type (0, 0), BuildingBlock: XUDNAN_clean_linker_2, # of connection points: 2
#     Edge 96, Type (0, 0), BuildingBlock: XUDNAN_clean_linker_2, # of connection points: 2
#     Edge 97, Type (0, 0), BuildingBlock: XUDNAN_clean_linker_2, # of connection points: 2
#     Edge 98, Type (0, 0), BuildingBlock: XUDNAN_clean_linker_2, # of connection points: 2
#     Edge 99, Type (0, 0), BuildingBlock: XUDNAN_clean_linker_2, # of connection points: 2
#     Edge 100, Type (0, 0), BuildingBlock: XUDNAN_clean_linker_2, # of connection points: 2
#     Edge 101, Type (0, 0), BuildingBlock: XUDNAN_clean_linker_2, # of connection points: 2
#     Edge 102, Type (0, 0), BuildingBlock: XUDNAN_clean_linker_2, # of connection points: 2
#     Edge 103, Type (0, 0), BuildingBlock: XUDNAN_clean_linker_2, # of connection points: 2
#     Edge 104, Type (0, 0), BuildingBlock: XUDNAN_clean_linker_2, # of connection points: 2
#     Edge 105, Type (0, 0), BuildingBlock: XUDNAN_clean_linker_2, # of connection points: 2
#     Edge 106, Type (0, 0), BuildingBlock: XUDNAN_clean_linker_2, # of connection points: 2
#     Edge 107, Type (0, 0), BuildingBlock: XUDNAN_clean_linker_2, # of connection points: 2
#     Edge 108, Type (0, 0), BuildingBlock: XUDNAN_clean_linker_2, # of connection points: 2
#     Edge 109, Type (0, 0), BuildingBlock: XUDNAN_clean_linker_2, # of connection points: 2
#     Edge 110, Type (0, 0), BuildingBlock: XUDNAN_clean_linker_2, # of connection points: 2
#     Edge 111, Type (0, 0), BuildingBlock: XUDNAN_clean_linker_2, # of connection points: 2
#     Edge 112, Type (0, 0), BuildingBlock: XUDNAN_clean_linker_2, # of connection points: 2
#     Edge 113, Type (0, 0), BuildingBlock: XUDNAN_clean_linker_2, # of connection points: 2
#     Edge 114, Type (0, 0), BuildingBlock: XUDNAN_clean_linker_2, # of connection points: 2
#     Edge 115, Type (0, 0), BuildingBlock: XUDNAN_clean_linker_2, # of connection points: 2
#     Edge 116, Type (0, 0), BuildingBlock: XUDNAN_clean_linker_2, # of connection points: 2
#     Edge 117, Type (0, 0), BuildingBlock: XUDNAN_clean_linker_2, # of connection points: 2
#     Edge 118, Type (0, 0), BuildingBlock: XUDNAN_clean_linker_2, # of connection points: 2
#     Edge 119, Type (0, 0), BuildingBlock: XUDNAN_clean_linker_2, # of connection points: 2
# Relax obj value: 0.297
# Max RMSD: 0.230
# Mean RMSD: 0.230
data_MOF--net-ech--node1-AJUNOK_clean_sbu_0--edge1-XUDNAN_clean_linker_2
_symmetry_space_group_name_H-M    P1
_symmetry_Int_Tables_number       1
_symmetry_cell_setting            triclinic
loop_
_symmetry_equiv_pos_as_xyz
'x, y, z'
_cell_length_a     52.014255
_cell_length_b     51.894946
_cell_length_c     51.935914
_cell_angle_alpha  90.013661
_cell_angle_beta   90.03061
_cell_angle_gamma 90.027938
loop_
_atom_site_label
_atom_site_type_symbol
_atom_site_fract_x
_atom_site_fract_y
_atom_site_fract_z
_atom_type_partial_charge
Cd0 Cd 0.15661 0.32015 0.41423 0.0
Cd1 Cd 0.12315 0.28472 0.47598 0.0
C2 C 0.12425 0.37061 0.42486 0.0
N3 N 0.12017 0.34604 0.41671 0.0
C4 C 0.07846 0.35734 0.40122 0.0
C5 C 0.08247 0.38309 0.4086 0.0
C6 C 0.10556 0.38948 0.42113 0.0
C7 C 0.09769 0.3391 0.40529 0.0
H8 H 0.14268 0.37603 0.43279 0.0
H9 H 0.09496 0.31984 0.39807 0.0
C10 C 0.11268 0.2679 0.41017 0.0
C11 C 0.14765 0.22927 0.48871 0.0
C12 C 0.16367 0.21158 0.50121 0.0
C13 C 0.18683 0.22011 0.5123 0.0
C14 C 0.19421 0.24591 0.50856 0.0
C15 C 0.1775 0.26294 0.49631 0.0
N16 N 0.15447 0.25452 0.48722 0.0
H17 H 0.12901 0.22321 0.48171 0.0
H18 H 0.1825 0.28308 0.49505 0.0
C19 C 0.07067 0.30662 0.45582 0.0
N20 N 0.0929 0.31597 0.46578 0.0
C21 C 0.07478 0.35827 0.46884 0.0
C22 C 0.05195 0.3493 0.45744 0.0
C23 C 0.04992 0.32291 0.45158 0.0
C24 C 0.09507 0.34109 0.47308 0.0
H25 H 0.06883 0.28628 0.45174 0.0
H26 H 0.11245 0.34786 0.48227 0.0
C27 C 0.16851 0.33758 0.47496 0.0
C28 C 0.18267 0.34142 0.3713 0.0
N29 N 0.18596 0.29107 0.43124 0.0
C30 C 0.21083 0.29908 0.43101 0.0
C31 C 0.23076 0.28113 0.43198 0.0
C32 C 0.22493 0.25468 0.43314 0.0
C33 C 0.19912 0.24743 0.43691 0.0
C34 C 0.1798 0.26595 0.43496 0.0
C35 C 0.09316 0.27748 0.52038 0.0
O36 O 0.12682 0.28537 0.40033 0.0
O37 O 0.11076 0.26528 0.43449 0.0
O38 O 0.15312 0.31959 0.48067 0.0
O39 O 0.17319 0.34284 0.45165 0.0
O40 O 0.17852 0.31743 0.37278 0.0
O41 O 0.17457 0.35529 0.38952 0.0
O42 O 0.11125 0.29377 0.5193 0.0
O43 O 0.09008 0.26275 0.50108 0.0
H44 H 0.21517 0.31913 0.42735 0.0
H45 H 0.15998 0.25997 0.43466 0.0
H46 H 0.061 0.35144 0.39153 0.0
H47 H 0.10996 0.40915 0.42649 0.0
H48 H 0.15709 0.19195 0.50376 0.0
H49 H 0.21214 0.25322 0.51625 0.0
H50 H 0.0772 0.37838 0.47386 0.0
H51 H 0.03235 0.31474 0.44394 0.0
H52 H 0.25019 0.28789 0.42885 0.0
H53 H 0.19367 0.22739 0.43883 0.0
Cd54 Cd 0.3681 0.71241 0.97836 0.0
Cd55 Cd 0.33607 0.68281 0.91433 0.0
C56 C 0.42243 0.69582 0.95987 0.0
N57 N 0.40057 0.68328 0.96666 0.0
C58 C 0.42176 0.64244 0.96193 0.0
C59 C 0.4438 0.65518 0.95295 0.0
C60 C 0.44421 0.68217 0.95286 0.0
C61 C 0.4001 0.65706 0.96884 0.0
H62 H 0.42297 0.71662 0.95988 0.0
H63 H 0.38299 0.64738 0.97549 0.0
C64 C 0.33071 0.65713 0.97723 0.0
C65 C 0.29196 0.70834 0.94891 0.0
C66 C 0.26931 0.72233 0.95189 0.0
C67 C 0.26388 0.7426 0.93485 0.0
C68 C 0.28338 0.75084 0.91797 0.0
C69 C 0.30605 0.73655 0.91597 0.0
N70 N 0.30924 0.71498 0.93042 0.0
H71 H 0.29431 0.69083 0.95975 0.0
H72 H 0.31965 0.74097 0.90086 0.0
C73 C 0.35929 0.6282 0.91878 0.0
N74 N 0.36854 0.65223 0.91441 0.0
C75 C 0.4086 0.63466 0.90034 0.0
C76 C 0.39964 0.60984 0.90622 0.0
C77 C 0.37502 0.60685 0.91647 0.0
C78 C 0.39282 0.65597 0.90535 0.0
H79 H 0.33899 0.6254 0.92186 0.0
H80 H 0.39917 0.6751 0.90011 0.0
C81 C 0.38181 0.73119 0.91227 0.0
C82 C 0.39203 0.71796 0.02662 0.0
N83 N 0.33612 0.74396 0.9828 0.0
C84 C 0.34025 0.76916 0.9768 0.0
C85 C 0.32548 0.78851 0.98858 0.0
C86 C 0.30675 0.78162 0.00681 0.0
C87 C 0.30144 0.75541 0.01071 0.0
C88 C 0.31655 0.73682 -0.0014 0.0
C89 C 0.306 0.65983 0.87457 0.0
O90 O 0.34213 0.67488 0.98934 0.0
O91 O 0.32851 0.65795 0.95301 0.0
O92 O 0.36663 0.71567 0.90097 0.0
O93 O 0.38313 0.73203 0.93682 0.0
O94 O 0.37003 0.70826 0.02325 0.0
O95 O 0.40236 0.72895 0.00737 0.0
O96 O 0.32856 0.66781 0.87011 0.0
O97 O 0.29695 0.66407 0.89674 0.0
H98 H 0.35651 0.7744 0.96492 0.0
H99 H 0.31419 0.71676 0.0037 0.0
H100 H 0.42087 0.62159 0.96238 0.0
H101 H 0.46111 0.69269 0.94665 0.0
H102 H 0.25507 0.71563 0.96554 0.0
H103 H 0.28006 0.76622 0.90428 0.0
H104 H 0.42664 0.63727 0.89035 0.0
H105 H 0.3668 0.58784 0.91921 0.0
H106 H 0.33041 0.80855 0.98549 0.0
H107 H 0.28736 0.74941 0.02486 0.0
Cd108 Cd 0.65798 0.17732 0.57754 0.0
Cd109 Cd 0.62331 0.21062 0.51743 0.0
C110 C 0.63173 0.12373 0.57568 0.0
N111 N 0.62401 0.14833 0.57986 0.0
C112 C 0.58174 0.13377 0.59051 0.0
C113 C 0.58894 0.10799 0.58563 0.0
C114 C 0.61472 0.10334 0.57868 0.0
C115 C 0.59967 0.15366 0.58772 0.0
H116 H 0.65151 0.11978 0.5707 0.0
H117 H 0.59398 0.17323 0.59177 0.0
C118 C 0.61234 0.22623 0.58345 0.0
C119 C 0.64778 0.26669 0.51613 0.0
C120 C 0.66251 0.28734 0.5073 0.0
C121 C 0.68446 0.28278 0.49208 0.0
C122 C 0.69156 0.25705 0.48729 0.0
C123 C 0.67605 0.23694 0.4963 0.0
N124 N 0.65445 0.24214 0.51011 0.0
H125 H 0.63013 0.27027 0.52655 0.0
H126 H 0.68068 0.21727 0.4913 0.0
C127 C 0.57096 0.18917 0.53856 0.0
N128 N 0.59359 0.17944 0.52996 0.0
C129 C 0.57563 0.13693 0.52843 0.0
C130 C 0.55226 0.14641 0.53819 0.0
C131 C 0.55008 0.17302 0.54285 0.0
C132 C 0.59614 0.15394 0.52428 0.0
H133 H 0.56882 0.20971 0.54123 0.0
H134 H 0.61383 0.14676 0.51617 0.0
C135 C 0.66663 0.15833 0.51486 0.0
C136 C 0.68944 0.15829 0.61854 0.0
N137 N 0.68298 0.2097 0.55817 0.0
C138 C 0.70409 0.20225 0.54458 0.0
C139 C 0.72553 0.21824 0.54322 0.0
C140 C 0.72577 0.241 0.55769 0.0
C141 C 0.70249 0.25029 0.5676 0.0
C142 C 0.68112 0.23397 0.56794 0.0
C143 C 0.5921 0.21912 0.47386 0.0
O144 O 0.62649 0.20891 0.5934 0.0
O145 O 0.6109 0.2291 0.55916 0.0
O146 O 0.65335 0.17719 0.50702 0.0
O147 O 0.66893 0.15337 0.53863 0.0
O148 O 0.67923 0.18041 0.61972 0.0
O149 O 0.68574 0.14554 0.59819 0.0
O150 O 0.60805 0.20083 0.4755 0.0
O151 O 0.59162 0.23537 0.49211 0.0
H152 H 0.7061 0.18267 0.53805 0.0
H153 H 0.66459 0.23937 0.57924 0.0
H154 H 0.56244 0.139 0.59601 0.0
H155 H 0.62242 0.08419 0.57626 0.0
H156 H 0.65582 0.3067 0.51116 0.0
H157 H 0.70846 0.25247 0.47603 0.0
H158 H 0.57824 0.11661 0.52448 0.0
H159 H 0.53218 0.18151 0.54925 0.0
H160 H 0.74328 0.21046 0.53555 0.0
H161 H 0.70208 0.26776 0.57902 0.0
Cd162 Cd 0.87186 0.78102 0.02174 0.0
Cd163 Cd 0.83119 0.82048 0.07884 0.0
C164 C 0.92361 0.80252 0.04311 0.0
N165 N 0.9017 0.81207 0.03274 0.0
C166 C 0.92078 0.85378 0.02844 0.0
C167 C 0.94344 0.84461 0.03997 0.0
C168 C 0.94475 0.81838 0.04677 0.0
C169 C 0.90014 0.837 0.0247 0.0
H170 H 0.9251 0.78221 0.04744 0.0
H171 H 0.88321 0.84389 0.01491 0.0
C172 C 0.82806 0.83628 0.01827 0.0
C173 C 0.78759 0.79116 0.04355 0.0
C174 C 0.76662 0.77491 0.0401 0.0
C175 C 0.76205 0.75535 0.05805 0.0
C176 C 0.78131 0.74945 0.07606 0.0
C177 C 0.80244 0.76592 0.07849 0.0
N178 N 0.8043 0.78726 0.0634 0.0
H179 H 0.78857 0.80813 0.03181 0.0
H180 H 0.81577 0.76323 0.09425 0.0
C181 C 0.86194 0.87195 0.06565 0.0
N182 N 0.86678 0.84848 0.07634 0.0
C183 C 0.908 0.86325 0.09083 0.0
C184 C 0.90345 0.88734 0.07942 0.0
C185 C 0.88024 0.89146 0.06648 0.0
C186 C 0.88932 0.84387 0.08892 0.0
H187 H 0.84335 0.87628 0.05759 0.0
H188 H 0.89247 0.82564 0.09842 0.0
C189 C 0.87844 0.76942 0.08709 0.0
C190 C 0.90113 0.77392 0.97632 0.0
N191 N 0.83773 0.75321 0.01296 0.0
C192 C 0.8391 0.72774 0.019 0.0
C193 C 0.82334 0.70993 0.00621 0.0
C194 C 0.80644 0.71862 0.98698 0.0
C195 C 0.80371 0.74525 0.98315 0.0
C196 C 0.81985 0.76226 0.99617 0.0
C197 C 0.80608 0.84669 0.11969 0.0
O198 O 0.84359 0.81765 0.01589 0.0
O199 O 0.81899 0.84168 0.04012 0.0
O200 O 0.86244 0.78758 0.09073 0.0
O201 O 0.88386 0.76191 0.06435 0.0
O202 O 0.88326 0.79032 0.97832 0.0
O203 O 0.90431 0.75854 0.9951 0.0
O204 O 0.817 0.82527 0.12405 0.0
O205 O 0.8052 0.85424 0.09662 0.0
H206 H 0.85395 0.721 0.03194 0.0
H207 H 0.81954 0.78246 0.99116 0.0
H208 H 0.91882 0.87367 0.02253 0.0
H209 H 0.96219 0.80977 0.05418 0.0
H210 H 0.75221 0.77988 0.02585 0.0
H211 H 0.77842 0.7345 0.09032 0.0
H212 H 0.92558 0.85964 0.10142 0.0
H213 H 0.87564 0.91014 0.05838 0.0
H214 H 0.82613 0.68952 0.00954 0.0
H215 H 0.79076 0.7527 0.9686 0.0
Cd216 Cd 0.47967 0.12724 0.2846 0.0
Cd217 Cd 0.41353 0.16284 0.31508 0.0
C218 C 0.4646 0.07299 0.3027 0.0
N219 N 0.46824 0.09624 0.31397 0.0
C220 C 0.4655 0.07738 0.35585 0.0
C221 C 0.46035 0.05328 0.34457 0.0
C222 C 0.46072 0.05125 0.3176 0.0
C223 C 0.46967 0.09878 0.34 0.0
H224 H 0.46548 0.07123 0.28198 0.0
H225 H 0.47422 0.11725 0.34843 0.0
C226 C 0.47553 0.17425 0.33473 0.0
C227 C 0.43925 0.21446 0.29514 0.0
C228 C 0.44405 0.23524 0.27908 0.0
C229 C 0.43782 0.23337 0.25293 0.0
C230 C 0.43096 0.20918 0.2428 0.0
C231 C 0.42727 0.18843 0.25957 0.0
N232 N 0.43034 0.19183 0.28534 0.0
H233 H 0.44043 0.2174 0.31566 0.0
H234 H 0.4198 0.1704 0.25229 0.0
C235 C 0.42562 0.13742 0.36913 0.0
N236 N 0.41677 0.1299 0.34567 0.0
C237 C 0.40338 0.08929 0.36312 0.0
C238 C 0.4119 0.09705 0.38762 0.0
C239 C 0.42408 0.12103 0.39013 0.0
C240 C 0.406 0.1062 0.34222 0.0
H241 H 0.43263 0.15672 0.37216 0.0
H242 H 0.3982 0.10088 0.32368 0.0
C243 C 0.41421 0.11328 0.26808 0.0
C244 C 0.52821 0.10281 0.28335 0.0
N245 N 0.48391 0.15649 0.25116 0.0
C246 C 0.4745 0.15188 0.22716 0.0
C247 C 0.48249 0.16714 0.20643 0.0
C248 C 0.50065 0.18671 0.21062 0.0
C249 C 0.5091 0.1917 0.23574 0.0
C250 C 0.50033 0.1763 0.25589 0.0
C251 C 0.36794 0.18596 0.33504 0.0
O252 O 0.48499 0.15842 0.31883 0.0
O253 O 0.45163 0.17792 0.3364 0.0
O254 O 0.40397 0.12978 0.28294 0.0
O255 O 0.43853 0.11051 0.26678 0.0
O256 O 0.5234 0.12325 0.29569 0.0
O257 O 0.51081 0.09459 0.26822 0.0
O258 O 0.3677 0.17219 0.31489 0.0
O259 O 0.3897 0.19058 0.34488 0.0
H260 H 0.4619 0.13562 0.2239 0.0
H261 H 0.50779 0.17917 0.27512 0.0
H262 H 0.46591 0.07979 0.37655 0.0
H263 H 0.45846 0.03293 0.30788 0.0
H264 H 0.44964 0.25349 0.28754 0.0
H265 H 0.42585 0.20695 0.22271 0.0
H266 H 0.39367 0.07103 0.36039 0.0
H267 H 0.43125 0.1277 0.40855 0.0
H268 H 0.47574 0.16277 0.18718 0.0
H269 H 0.52304 0.20674 0.23956 0.0
Cd270 Cd 0.07673 0.83645 0.8158 0.0
Cd271 Cd 0.0166 0.8706 0.78418 0.0
C272 C 0.05631 0.8726 0.86333 0.0
N273 N 0.07329 0.87186 0.84341 0.0
C274 C 0.09942 0.9039 0.86362 0.0
C275 C 0.08347 0.90301 0.8853 0.0
C276 C 0.06079 0.8886 0.88435 0.0
C277 C 0.09396 0.88795 0.8427 0.0
H278 H 0.04038 0.85947 0.86429 0.0
H279 H 0.10774 0.88638 0.82722 0.0
C280 C 0.08274 0.88014 0.766 0.0
C281 C 0.02101 0.84129 0.7291 0.0
C282 C 0.01207 0.82699 0.70811 0.0
C283 C 0.99015 0.81125 0.71078 0.0
C284 C 0.97948 0.80843 0.73552 0.0
C285 C 0.98937 0.82276 0.75611 0.0
N286 N 0.00922 0.83939 0.75236 0.0
H287 H 0.03648 0.85493 0.7264 0.0
H288 H 0.97996 0.82201 0.77467 0.0
C289 C 0.04681 0.91757 0.81167 0.0
N290 N 0.02778 0.90025 0.81647 0.0
C291 C 0.01446 0.92451 0.85345 0.0
C292 C 0.03373 0.94281 0.8485 0.0
C293 C 0.05041 0.93872 0.82771 0.0
C294 C 0.01162 0.90338 0.83687 0.0
H295 H 0.05862 0.91589 0.79481 0.0
H296 H 0.99589 0.89003 0.8397 0.0
C297 C 0.01415 0.82569 0.83537 0.0
C298 C 0.11626 0.80745 0.84151 0.0
N299 N 0.06173 0.81145 0.78103 0.0
C300 C 0.04912 0.78936 0.78752 0.0
C301 C 0.04881 0.76846 0.77067 0.0
C302 C 0.06233 0.77031 0.74749 0.0
C303 C 0.07076 0.79459 0.73926 0.0
C304 C 0.07107 0.81488 0.75681 0.0
C305 C 0.97549 0.90432 0.77243 0.0
O306 O 0.0929 0.86672 0.78374 0.0
O307 O 0.05841 0.88143 0.76327 0.0
O308 O 0.0041 0.84107 0.81925 0.0
O309 O 0.03821 0.82249 0.83654 0.0
O310 O 0.12166 0.82795 0.82944 0.0
O311 O 0.09324 0.79982 0.84014 0.0
O312 O 0.97153 0.88317 0.7839 0.0
O313 O -0.00198 0.90834 0.7641 0.0
H314 H 0.04247 0.78639 0.80694 0.0
H315 H 0.0817 0.83193 0.75187 0.0
H316 H 0.11751 0.91425 0.86416 0.0
H317 H 0.04849 0.88705 0.90112 0.0
H318 H 0.02146 0.82934 0.68967 0.0
H319 H 0.96249 0.79681 0.73868 0.0
H320 H 0.00104 0.92714 0.86917 0.0
H321 H 0.06566 0.95225 0.82332 0.0
H322 H 0.0423 0.74991 0.77769 0.0
H323 H 0.08145 0.79654 0.72146 0.0
Cd324 Cd 0.91251 0.32979 0.68063 0.0
Cd325 Cd 0.97452 0.36941 0.70989 0.0
C326 C 0.91733 0.34832 0.62254 0.0
N327 N 0.9124 0.35826 0.64623 0.0
C328 C 0.89851 0.39794 0.62756 0.0
C329 C 0.90418 0.38839 0.6029 0.0
C330 C 0.91416 0.36334 0.60066 0.0
C331 C 0.90318 0.38256 0.64908 0.0
H332 H 0.92304 0.32842 0.62043 0.0
H333 H 0.89924 0.38996 0.66795 0.0
C334 C 0.90919 0.38151 0.72568 0.0
C335 C 0.97241 0.33777 0.76359 0.0
C336 C 0.98416 0.32339 0.78314 0.0
C337 C 0.00505 0.3074 0.77707 0.0
C338 C 0.01219 0.3044 0.75124 0.0
C339 C 3e-05 0.31914 0.73238 0.0
N340 N 0.98118 0.33603 0.73899 0.0
H341 H 0.95809 0.35208 0.76844 0.0
H342 H 0.00722 0.31883 0.71286 0.0
C343 C 0.95871 0.42361 0.69465 0.0
N344 N 0.96207 0.40125 0.68166 0.0
C345 C 0.95245 0.42201 0.64166 0.0
C346 C 0.9458 0.44438 0.65531 0.0
C347 C 0.95072 0.44549 0.68184 0.0
C348 C 0.96067 0.40027 0.65547 0.0
H349 H 0.96177 0.42425 0.71523 0.0
H350 H 0.96503 0.38256 0.64542 0.0
C351 C 0.97397 0.3258 0.65688 0.0
C352 C 0.86972 0.3016 0.66209 0.0
N353 N 0.92943 0.30506 0.71413 0.0
C354 C 0.94985 0.28921 0.70989 0.0
C355 C 0.95398 0.2679 0.72561 0.0
C356 C 0.93617 0.26218 0.74502 0.0
C357 C 0.91733 0.28069 0.75107 0.0
C358 C 0.91422 0.30212 0.73515 0.0
C359 C 0.02117 0.39659 0.71753 0.0
O360 O 0.90217 0.36441 0.70971 0.0
O361 O 0.93298 0.38544 0.73033 0.0
O362 O 0.98361 0.34158 0.67283 0.0
O363 O 0.95047 0.31984 0.65763 0.0
O364 O 0.86666 0.32294 0.67347 0.0
O365 O 0.89224 0.29251 0.66103 0.0
O366 O 0.01733 0.38117 0.69911 0.0
O367 O 0.00354 0.39845 0.73434 0.0
H368 H 0.96169 0.2914 0.69309 0.0
H369 H 0.89789 0.31473 0.73785 0.0
H370 H 0.89044 0.41697 0.6303 0.0
H371 H 0.91906 0.35512 0.58215 0.0
H372 H 0.97866 0.32658 0.803 0.0
H373 H 0.02858 0.29263 0.74604 0.0
H374 H 0.94986 0.42086 0.62101 0.0
H375 H 0.94732 0.4629 0.69284 0.0
H376 H 0.96912 0.25446 0.72067 0.0
H377 H 0.90305 0.27715 0.76581 0.0
Cd378 Cd 0.51625 0.62373 0.21257 0.0
Cd379 Cd 0.57543 0.6625 0.17668 0.0
C380 C 0.53984 0.57154 0.19487 0.0
N381 N 0.52781 0.59187 0.18374 0.0
C382 C 0.52625 0.56989 0.14323 0.0
C383 C 0.53986 0.54932 0.15417 0.0
C384 C 0.54615 0.55006 0.18038 0.0
C385 C 0.52022 0.59124 0.15862 0.0
H386 H 0.5443 0.57187 0.21518 0.0
H387 H 0.50964 0.60724 0.15054 0.0
C388 C 0.51622 0.66845 0.15872 0.0
C389 C 0.54108 0.70129 0.21167 0.0
C390 C 0.53919 0.72256 0.22785 0.0
C391 C 0.55899 0.7275 0.24539 0.0
C392 C 0.57783 0.70859 0.24944 0.0
C393 C 0.57898 0.68747 0.23283 0.0
N394 N 0.56163 0.68512 0.21337 0.0
H395 H 0.52755 0.69973 0.19616 0.0
H396 H 0.59555 0.67493 0.2335 0.0
C397 C 0.55697 0.63462 0.12346 0.0
N398 N 0.56981 0.62972 0.14584 0.0
C399 C 0.58765 0.59135 0.12753 0.0
C400 C 0.57423 0.59609 0.10465 0.0
C401 C 0.55832 0.61761 0.10291 0.0
C402 C 0.58476 0.60831 0.14827 0.0
H403 H 0.54723 0.65254 0.12021 0.0
H404 H 0.59605 0.60548 0.16552 0.0
C405 C 0.58185 0.61744 0.22777 0.0
C406 C 0.47066 0.59536 0.22144 0.0
N407 N 0.50848 0.65522 0.24348 0.0
C408 C 0.51659 0.65161 0.26809 0.0
C409 C 0.50551 0.66575 0.2881 0.0
C410 C 0.48607 0.68367 0.28257 0.0
C411 C 0.47964 0.68853 0.25683 0.0
C412 C 0.49099 0.67375 0.23742 0.0
C413 C 0.61706 0.69075 0.15476 0.0
O414 O 0.51359 0.6524 0.17682 0.0
O415 O 0.53785 0.67885 0.15495 0.0
O416 O 0.58979 0.63118 0.20912 0.0
O417 O 0.55807 0.61495 0.23306 0.0
O418 O 0.47042 0.61682 0.20983 0.0
O419 O 0.49197 0.58759 0.23041 0.0
O420 O 0.62006 0.66762 0.16187 0.0
O421 O 0.59551 0.70094 0.15945 0.0
H422 H 0.52997 0.63628 0.27243 0.0
H423 H 0.48442 0.67567 0.21775 0.0
H424 H 0.52124 0.56987 0.12299 0.0
H425 H 0.55643 0.53431 0.18943 0.0
H426 H 0.52434 0.73677 0.22429 0.0
H427 H 0.59358 0.7119 0.2627 0.0
H428 H 0.60145 0.57582 0.12869 0.0
H429 H 0.54872 0.62237 0.085 0.0
H430 H 0.51054 0.66128 0.30785 0.0
H431 H 0.46435 0.70184 0.25199 0.0
Cd432 Cd 0.28334 0.47706 0.12215 0.0
Cd433 Cd 0.31462 0.41668 0.15789 0.0
C434 C 0.30924 0.45382 0.07271 0.0
N435 N 0.31725 0.46656 0.09412 0.0
C436 C 0.35764 0.47601 0.0739 0.0
C437 C 0.34932 0.46327 0.05159 0.0
C438 C 0.32513 0.45159 0.05133 0.0
C439 C 0.34107 0.47755 0.09516 0.0
H440 H 0.28985 0.44689 0.07146 0.0
H441 H 0.3467 0.48882 0.11171 0.0
C442 C 0.33422 0.48051 0.16646 0.0
C443 C 0.29001 0.44642 0.20542 0.0
C444 C 0.27313 0.44944 0.22592 0.0
C445 C 0.24913 0.43737 0.22465 0.0
C446 C 0.24012 0.4287 0.20073 0.0
C447 C 0.25746 0.42651 0.18038 0.0
N448 N 0.28235 0.43376 0.18377 0.0
H449 H 0.30992 0.45139 0.20829 0.0
H450 H 0.25178 0.41626 0.16323 0.0
C451 C 0.37149 0.42737 0.14093 0.0
N452 N 0.34855 0.42177 0.12962 0.0
C453 C 0.36949 0.4136 0.08953 0.0
C454 C 0.39304 0.42059 0.10071 0.0
C455 C 0.39392 0.42762 0.1266 0.0
C456 C 0.34719 0.41429 0.10457 0.0
H457 H 0.37276 0.43024 0.16148 0.0
H458 H 0.32907 0.40785 0.09663 0.0
C459 C 0.26587 0.41175 0.11123 0.0
C460 C 0.27163 0.5184 0.08896 0.0
N461 N 0.2529 0.48317 0.15464 0.0
C462 C 0.22749 0.48049 0.149 0.0
C463 C 0.20892 0.4923 0.16456 0.0
C464 C 0.21687 0.50715 0.1857 0.0
C465 C 0.24296 0.50733 0.19245 0.0
C466 C 0.26076 0.49535 0.17645 0.0
C467 C 0.33673 0.37236 0.18124 0.0
O468 O 0.31723 0.48946 0.15151 0.0
O469 O 0.33638 0.45657 0.17044 0.0
O470 O 0.28267 0.40179 0.12596 0.0
O471 O 0.26361 0.43605 0.10929 0.0
O472 O 0.2828 0.52223 0.11027 0.0
O473 O 0.26319 0.4959 0.08471 0.0
O474 O 0.32507 0.37155 0.15991 0.0
O475 O 0.33564 0.39335 0.19367 0.0
H476 H 0.22179 0.47123 0.13122 0.0
H477 H 0.28093 0.49766 0.18047 0.0
H478 H 0.37611 0.48563 0.0744 0.0
H479 H 0.31798 0.44213 0.03415 0.0
H480 H 0.28063 0.45622 0.24419 0.0
H481 H 0.2216 0.41925 0.19921 0.0
H482 H 0.36854 0.40661 0.06992 0.0
H483 H 0.41207 0.43172 0.13604 0.0
H484 H 0.18894 0.49199 0.15866 0.0
H485 H 0.24975 0.51858 0.20867 0.0
Cd486 Cd 0.8128 0.07915 0.83244 0.0
Cd487 Cd 0.78347 0.01793 0.87174 0.0
C488 C 0.86846 0.07936 0.85137 0.0
N489 N 0.84514 0.07969 0.86295 0.0
C490 C 0.86484 0.08533 0.90418 0.0
C491 C 0.88922 0.08382 0.89262 0.0
C492 C 0.89073 0.08028 0.86588 0.0
C493 C 0.84279 0.08313 0.88881 0.0
H494 H 0.8697 0.07852 0.83062 0.0
H495 H 0.82398 0.0848 0.89741 0.0
C496 C 0.76687 0.08319 0.88228 0.0
C497 C 0.72643 0.01597 0.84671 0.0
C498 C 0.70738 0.0062 0.83034 0.0
C499 C 0.71453 0.99264 0.80802 0.0
C500 C 0.74081 0.99033 0.80217 0.0
C501 C 0.75912 0.00022 0.81907 0.0
N502 N 0.75169 0.01249 0.84093 0.0
H503 H 0.72111 0.02507 0.86467 0.0
H504 H 0.77931 0.99691 0.81546 0.0
C505 C 0.80358 0.04164 0.92447 0.0
N506 N 0.81308 0.02971 0.9032 0.0
C507 C 0.85389 0.02407 0.92376 0.0
C508 C 0.84452 0.03679 0.9456 0.0
C509 C 0.81919 0.04587 0.94575 0.0
C510 C 0.83769 0.02073 0.90254 0.0
H511 H 0.78357 0.04697 0.92549 0.0
H512 H 0.84456 0.01014 0.88605 0.0
C513 C 0.83799 0.01818 0.8297 0.0
C514 C 0.83398 0.1193 0.80181 0.0
N515 N 0.78072 0.05966 0.80858 0.0
C516 C 0.78873 0.04849 0.7863 0.0
C517 C 0.77235 0.04772 0.76509 0.0
C518 C 0.74823 0.0595 0.76707 0.0
C519 C 0.73868 0.06558 0.7916 0.0
C520 C 0.75576 0.06637 0.81227 0.0
C521 C 0.77816 0.96918 0.89543 0.0
O522 O 0.78342 0.08957 0.86559 0.0
O523 O 0.76144 0.05951 0.88633 0.0
O524 O 0.8212 0.00756 0.8439 0.0
O525 O 0.83719 0.04195 0.825 0.0
O526 O 0.8224 0.12441 0.82267 0.0
O527 O 0.83305 0.09621 0.79409 0.0
O528 O 0.788 0.97257 0.87348 0.0
O529 O 0.76801 0.98872 0.90614 0.0
H530 H 0.80879 0.04372 0.78373 0.0
H531 H 0.74991 0.07548 0.83 0.0
H532 H 0.86284 0.0889 0.92459 0.0
H533 H 0.90899 0.0788 0.85599 0.0
H534 H 0.68734 0.00851 0.83548 0.0
H535 H 0.74727 0.97967 0.78546 0.0
H536 H 0.87336 0.01669 0.92321 0.0
H537 H 0.81121 0.05522 0.9626 0.0
H538 H 0.78025 0.04277 0.74643 0.0
H539 H 0.72002 0.0746 0.7937 0.0
Cd540 Cd 0.71047 0.97469 0.3709 0.0
Cd541 Cd 0.67724 0.91676 0.33436 0.0
C542 C 0.69135 0.94967 0.42373 0.0
N543 N 0.6817 0.96333 0.40359 0.0
C544 C 0.6435 0.97279 0.42756 0.0
C545 C 0.65366 0.95953 0.44872 0.0
C546 C 0.67748 0.94729 0.44644 0.0
C547 C 0.65819 0.97478 0.40506 0.0
H548 H 0.71061 0.94222 0.42312 0.0
H549 H 0.65136 0.98642 0.38926 0.0
C550 C 0.65899 0.97364 0.32372 0.0
C551 C 0.70751 0.94679 0.2897 0.0
C552 C 0.72597 0.95001 0.2706 0.0
C553 C 0.74982 0.93803 0.27342 0.0
C554 C 0.75592 0.92609 0.29679 0.0
C555 C 0.73694 0.9235 0.31556 0.0
N556 N 0.71289 0.93294 0.31135 0.0
H557 H 0.68821 0.95298 0.28559 0.0
H558 H 0.74084 0.91146 0.33193 0.0
C559 C 0.62717 0.93942 0.36709 0.0
N560 N 0.64793 0.92343 0.36877 0.0
C561 C 0.62751 0.89991 0.40274 0.0
C562 C 0.60514 0.91449 0.39917 0.0
C563 C 0.60585 0.93573 0.38275 0.0
C564 C 0.64894 0.90485 0.38726 0.0
H565 H 0.62543 0.95354 0.35221 0.0
H566 H 0.66509 0.89179 0.38791 0.0
C567 C 0.72732 0.91024 0.3811 0.0
C568 C 0.71617 0.02179 0.39706 0.0
N569 N 0.74229 0.9829 0.34049 0.0
C570 C 0.76748 0.97844 0.34587 0.0
C571 C 0.78664 0.99046 0.33127 0.0
C572 C 0.77959 0.00712 0.3112 0.0
C573 C 0.75355 0.00975 0.30486 0.0
C574 C 0.73506 0.99746 0.31996 0.0
C575 C 0.6561 0.87422 0.30659 0.0
O576 O 0.67688 0.97404 0.34013 0.0
O577 O 0.65233 0.95202 0.3148 0.0
O578 O 0.70945 0.90093 0.36701 0.0
O579 O 0.73139 0.93441 0.38217 0.0
O580 O 0.70451 0.02033 0.37568 0.0
O581 O 0.72664 0.00148 0.40571 0.0
O582 O 0.66337 0.8716 0.32969 0.0
O583 O 0.66028 0.89582 0.29624 0.0
H584 H 0.77265 0.96736 0.36274 0.0
H585 H 0.7149 0.00125 0.31659 0.0
H586 H 0.62522 0.98268 0.42894 0.0
H587 H 0.68594 0.9372 0.46262 0.0
H588 H 0.72043 0.95862 0.25241 0.0
H589 H 0.77402 0.91603 0.29914 0.0
H590 H 0.62731 0.88293 0.41486 0.0
H591 H 0.58864 0.94694 0.37913 0.0
H592 H 0.80658 0.98856 0.33697 0.0
H593 H 0.74751 0.02293 0.28987 0.0
Cd594 Cd 0.21005 0.51919 0.6233 0.0
Cd595 Cd 0.17654 0.57516 0.66044 0.0
C596 C 0.18474 0.54791 0.57452 0.0
N597 N 0.17887 0.53032 0.59302 0.0
C598 C 0.14144 0.51716 0.56953 0.0
C599 C 0.14717 0.53534 0.55043 0.0
C600 C 0.16881 0.5511 0.5533 0.0
C601 C 0.15772 0.51497 0.5909 0.0
H602 H 0.20239 0.55866 0.57533 0.0
H603 H 0.15413 0.50026 0.60519 0.0
C604 C 0.15753 0.51552 0.66989 0.0
C605 C 0.2047 0.54236 0.70681 0.0
C606 C 0.22005 0.5419 0.72873 0.0
C607 C 0.24004 0.55975 0.73106 0.0
C608 C 0.24732 0.57409 0.7094 0.0
C609 C 0.23158 0.57374 0.68759 0.0
N610 N 0.20968 0.55935 0.68742 0.0
H611 H 0.18731 0.53133 0.70728 0.0
H612 H 0.23507 0.58749 0.67239 0.0
C613 C 0.12898 0.55787 0.62363 0.0
N614 N 0.15054 0.57278 0.62326 0.0
C615 C 0.13395 0.59692 0.5877 0.0
C616 C 0.11064 0.58358 0.58959 0.0
C617 C 0.10887 0.56268 0.60652 0.0
C618 C 0.15362 0.59139 0.60507 0.0
H619 H 0.12608 0.54384 0.6386 0.0
H620 H 0.17014 0.60373 0.60558 0.0
C621 C 0.22663 0.58334 0.61469 0.0
C622 C 0.21779 0.47222 0.59637 0.0
N623 N 0.24242 0.5135 0.65411 0.0
C624 C 0.26679 0.521 0.64842 0.0
C625 C 0.28758 0.51045 0.66178 0.0
C626 C 0.28326 0.49178 0.68092 0.0
C627 C 0.2578 0.48619 0.68796 0.0
C628 C 0.23753 0.49716 0.67402 0.0
C629 C 0.15564 0.61896 0.68609 0.0
O630 O 0.17429 0.50841 0.65353 0.0
O631 O 0.15486 0.5389 0.67592 0.0
O632 O 0.20831 0.58785 0.63004 0.0
O633 O 0.23344 0.56018 0.61014 0.0
O634 O 0.20918 0.47309 0.61909 0.0
O635 O 0.22508 0.49334 0.58647 0.0
O636 O 0.1792 0.61779 0.68012 0.0
O637 O 0.14186 0.59975 0.68041 0.0
H638 H 0.27029 0.53344 0.63211 0.0
H639 H 0.21802 0.49096 0.6777 0.0
H640 H 0.12507 0.5044 0.56759 0.0
H641 H 0.17421 0.56476 0.53846 0.0
H642 H 0.21385 0.53071 0.74522 0.0
H643 H 0.26255 0.58829 0.7107 0.0
H644 H 0.13568 0.61359 0.57526 0.0
H645 H 0.09084 0.55249 0.60899 0.0
H646 H 0.30694 0.51547 0.65595 0.0
H647 H 0.25361 0.47178 0.70244 0.0
Cd648 Cd 0.83227 0.67879 0.578 0.0
Cd649 Cd 0.86959 0.70947 0.51509 0.0
C650 C 0.86465 0.62973 0.56444 0.0
N651 N 0.86854 0.65298 0.57589 0.0
C652 C 0.90456 0.63641 0.59911 0.0
C653 C 0.89976 0.61199 0.58868 0.0
C654 C 0.88053 0.60902 0.57012 0.0
C655 C 0.8886 0.65691 0.59232 0.0
H656 H 0.84785 0.62634 0.55281 0.0
H657 H 0.89063 0.67494 0.60243 0.0
C658 C 0.87741 0.72768 0.58255 0.0
C659 C 0.84599 0.76544 0.51459 0.0
C660 C 0.83051 0.78588 0.50674 0.0
C661 C 0.80658 0.781 0.49497 0.0
C662 C 0.79842 0.75525 0.49268 0.0
C663 C 0.81472 0.73532 0.50059 0.0
N664 N 0.83814 0.74081 0.51089 0.0
H665 H 0.86502 0.76916 0.52215 0.0
H666 H 0.80915 0.7155 0.49739 0.0
C667 C 0.92079 0.6928 0.53981 0.0
N668 N 0.90065 0.68022 0.52901 0.0
C669 C 0.9224 0.63976 0.53401 0.0
C670 C 0.94216 0.6523 0.54762 0.0
C671 C 0.94167 0.67929 0.54916 0.0
C672 C 0.90163 0.65435 0.52457 0.0
H673 H 0.92087 0.71357 0.54089 0.0
H674 H 0.88612 0.64497 0.51431 0.0
C675 C 0.82422 0.66012 0.51362 0.0
C676 C 0.80658 0.64909 0.61652 0.0
N677 N 0.8046 0.7104 0.56252 0.0
C678 C 0.78277 0.70284 0.5502 0.0
C679 C 0.76319 0.72046 0.54538 0.0
C680 C 0.76548 0.74575 0.5547 0.0
C681 C 0.78915 0.75354 0.56528 0.0
C682 C 0.80851 0.73543 0.56909 0.0
C683 C 0.90133 0.72076 0.47228 0.0
O684 O 0.86242 0.71169 0.59345 0.0
O685 O 0.87966 0.72833 0.55811 0.0
O686 O 0.84081 0.67483 0.50354 0.0
O687 O 0.81986 0.66005 0.53753 0.0
O688 O 0.81525 0.67131 0.62199 0.0
O689 O 0.80825 0.64211 0.5933 0.0
O690 O 0.88101 0.70756 0.47001 0.0
O691 O 0.90536 0.73117 0.49397 0.0
H692 H 0.77956 0.68278 0.54575 0.0
H693 H 0.82573 0.74104 0.57919 0.0
H694 H 0.91873 0.63896 0.61419 0.0
H695 H 0.87579 0.59016 0.5625 0.0
H696 H 0.83809 0.80523 0.50846 0.0
H697 H 0.78004 0.75049 0.48411 0.0
H698 H 0.92251 0.61904 0.53155 0.0
H699 H 0.95732 0.69009 0.55773 0.0
H700 H 0.74553 0.7137 0.53664 0.0
H701 H 0.79192 0.7727 0.57304 0.0
Cd702 Cd 0.62322 0.28548 0.01349 0.0
Cd703 Cd 0.65804 0.31357 0.07837 0.0
C704 C 0.56997 0.30672 0.03132 0.0
N705 N 0.5925 0.31639 0.02248 0.0
C706 C 0.57474 0.35885 0.02123 0.0
C707 C 0.55214 0.3497 0.03292 0.0
C708 C 0.54956 0.32302 0.03682 0.0
C709 C 0.59476 0.34165 0.0159 0.0
H710 H 0.56771 0.28617 0.03368 0.0
H711 H 0.61223 0.34858 0.00703 0.0
C712 C 0.67026 0.33445 0.01573 0.0
C713 C 0.70849 0.29062 0.05052 0.0
C714 C 0.72833 0.27329 0.04592 0.0
C715 C 0.72616 0.24791 0.05491 0.0
C716 C 0.7023 0.23968 0.06472 0.0
C717 C 0.68252 0.25751 0.06808 0.0
N718 N 0.68632 0.28267 0.06199 0.0
H719 H 0.71196 0.31076 0.0468 0.0
H720 H 0.66498 0.25165 0.07755 0.0
C721 C 0.62673 0.36351 0.06012 0.0
N722 N 0.62287 0.3419 0.07442 0.0
C723 C 0.58685 0.3618 0.09532 0.0
C724 C 0.59194 0.38468 0.08191 0.0
C725 C 0.61082 0.38468 0.0628 0.0
C726 C 0.60267 0.3403 0.0911 0.0
H727 H 0.64327 0.36567 0.04804 0.0
H728 H 0.60051 0.32349 0.10319 0.0
C729 C 0.60975 0.26821 0.0799 0.0
C730 C 0.59389 0.27332 0.96966 0.0
N731 N 0.65582 0.25518 0.00871 0.0
C732 C 0.65195 0.23026 0.01584 0.0
C733 C 0.66876 0.21095 0.00741 0.0
C734 C 0.68954 0.21745 0.99137 0.0
C735 C 0.69355 0.24356 0.98535 0.0
C736 C 0.67636 0.26211 0.99415 0.0
C737 C 0.68166 0.33511 0.12307 0.0
O738 O 0.65425 0.32005 0.00415 0.0
O739 O 0.67287 0.33347 0.03989 0.0
O740 O 0.62649 0.28178 0.09133 0.0
O741 O 0.60745 0.26863 0.05549 0.0
O742 O 0.60943 0.29205 0.97036 0.0
O743 O 0.59317 0.25842 0.98899 0.0
O744 O 0.67069 0.31333 0.12323 0.0
O745 O 0.68321 0.34641 0.10154 0.0
H746 H 0.6351 0.22521 0.02696 0.0
H747 H 0.6786 0.28182 0.98793 0.0
H748 H 0.57742 0.37911 0.01712 0.0
H749 H 0.53188 0.31461 0.04392 0.0
H750 H 0.74613 0.28039 0.03777 0.0
H751 H 0.69962 0.22038 0.07213 0.0
H752 H 0.5729 0.36144 0.11078 0.0
H753 H 0.61557 0.40223 0.05251 0.0
H754 H 0.66508 0.19111 0.01271 0.0
H755 H 0.70892 0.24953 0.97263 0.0
Cd756 Cd 0.33508 0.81645 0.41701 0.0
Cd757 Cd 0.36769 0.78474 0.47994 0.0
C758 C 0.36324 0.87013 0.4252 0.0
N759 N 0.36793 0.84687 0.41405 0.0
C760 C 0.40621 0.8634 0.39465 0.0
C761 C 0.40232 0.88692 0.40732 0.0
C762 C 0.38057 0.89025 0.42264 0.0
C763 C 0.38884 0.84322 0.39871 0.0
H764 H 0.3456 0.87365 0.43529 0.0
H765 H 0.39151 0.82513 0.38878 0.0
C766 C 0.37854 0.76614 0.41438 0.0
C767 C 0.33821 0.72975 0.4774 0.0
C768 C 0.32132 0.71057 0.48593 0.0
C769 C 0.30182 0.71692 0.50354 0.0
C770 C 0.29919 0.74281 0.51117 0.0
C771 C 0.31638 0.76125 0.50218 0.0
N772 N 0.3356 0.7544 0.48595 0.0
H773 H 0.3541 0.72471 0.46497 0.0
H774 H 0.31523 0.78082 0.50922 0.0
C775 C 0.41963 0.79784 0.45202 0.0
N776 N 0.39921 0.81053 0.46224 0.0
C777 C 0.42061 0.85093 0.45692 0.0
C778 C 0.44058 0.83835 0.44385 0.0
C779 C 0.44027 0.81143 0.44209 0.0
C780 C 0.39972 0.83649 0.46583 0.0
H781 H 0.42017 0.77704 0.4519 0.0
H782 H 0.38407 0.84596 0.4757 0.0
C783 C 0.32779 0.83918 0.48013 0.0
C784 C 0.30521 0.83406 0.37452 0.0
N785 N 0.30892 0.78472 0.43563 0.0
C786 C 0.28936 0.79204 0.45144 0.0
C787 C 0.26726 0.77707 0.45328 0.0
C788 C 0.26486 0.75537 0.43748 0.0
C789 C 0.28673 0.74592 0.42487 0.0
C790 C 0.30878 0.76126 0.42394 0.0
C791 C 0.39888 0.77746 0.52404 0.0
O792 O 0.36681 0.78512 0.40455 0.0
O793 O 0.3781 0.76161 0.43852 0.0
O794 O 0.34016 0.82201 0.49236 0.0
O795 O 0.32597 0.83822 0.45593 0.0
O796 O 0.31801 0.81332 0.37372 0.0
O797 O 0.30527 0.84619 0.39565 0.0
O798 O 0.38279 0.79556 0.52192 0.0
O799 O 0.39928 0.76078 0.50617 0.0
H800 H 0.28892 0.81097 0.45985 0.0
H801 H 0.32415 0.75605 0.41098 0.0
H802 H 0.42212 0.86091 0.38147 0.0
H803 H 0.37636 0.90871 0.43146 0.0
H804 H 0.32398 0.69092 0.47944 0.0
H805 H 0.2849 0.74864 0.52515 0.0
H806 H 0.42072 0.87162 0.45945 0.0
H807 H 0.45601 0.80096 0.43331 0.0
H808 H 0.25064 0.7849 0.46312 0.0
H809 H 0.28543 0.72925 0.41237 0.0
Cd810 Cd 0.12263 0.2086 0.97592 0.0
Cd811 Cd 0.15945 0.18039 0.91312 0.0
C812 C 0.07395 0.18447 0.94982 0.0
N813 N 0.09526 0.17614 0.96236 0.0
C814 C 0.07675 0.13422 0.96782 0.0
C815 C 0.05487 0.14229 0.95433 0.0
C816 C 0.05359 0.16781 0.94542 0.0
C817 C 0.09688 0.15165 0.97173 0.0
H818 H 0.0721 0.20443 0.94435 0.0
H819 H 0.11318 0.14583 0.98317 0.0
C820 C 0.16624 0.15755 0.97608 0.0
C821 C 0.20012 0.21017 0.95043 0.0
C822 C 0.2216 0.2256 0.95451 0.0
C823 C 0.22766 0.24473 0.93653 0.0
C824 C 0.20943 0.25089 0.91749 0.0
C825 C 0.18785 0.23517 0.91436 0.0
N826 N 0.18447 0.2143 0.92979 0.0
H827 H 0.19784 0.19355 0.96242 0.0
H828 H 0.17551 0.2379 0.89782 0.0
C829 C 0.13389 0.125 0.92266 0.0
N830 N 0.12719 0.14869 0.9136 0.0
C831 C 0.08678 0.13205 0.899 0.0
C832 C 0.09276 0.10791 0.90966 0.0
C833 C 0.11667 0.10454 0.92154 0.0
C834 C 0.10424 0.15245 0.90156 0.0
H835 H 0.15297 0.12148 0.92997 0.0
H836 H 0.09979 0.17102 0.89325 0.0
C837 C 0.11385 0.22888 0.90989 0.0
C838 C 0.09057 0.21711 0.0191 0.0
N839 N 0.15515 0.23819 0.98422 0.0
C840 C 0.15372 0.26192 0.97333 0.0
C841 C 0.16919 0.28193 0.98242 0.0
C842 C 0.18632 0.27751 0.00297 0.0
C843 C 0.18828 0.25237 0.01286 0.0
C844 C 0.17221 0.23299 0.00337 0.0
C845 C 0.19025 0.15777 0.87404 0.0
O846 O 0.15238 0.1739 0.98776 0.0
O847 O 0.16899 0.15851 0.95198 0.0
O848 O 0.12919 0.21291 0.89965 0.0
O849 O 0.11061 0.23009 0.9342 0.0
O850 O 0.10798 0.20017 0.01837 0.0
O851 O 0.08888 0.23223 -2e-05 0.0
O852 O 0.17035 0.17063 0.86825 0.0
O853 O 0.1967 0.1575 0.8975 0.0
H854 H 0.13948 0.26572 0.95865 0.0
H855 H 0.17255 0.21408 0.0121 0.0
H856 H 0.07823 0.11481 0.9753 0.0
H857 H 0.03662 0.17512 0.93577 0.0
H858 H 0.23498 0.22052 0.96968 0.0
H859 H 0.21337 0.26547 0.90312 0.0
H860 H 0.06894 0.13505 0.88872 0.0
H861 H 0.12249 0.08588 0.92886 0.0
H862 H 0.16654 0.30099 0.97439 0.0
H863 H 0.20146 0.24786 0.02835 0.0
Cd864 Cd 0.58319 0.82949 0.68087 0.0
Cd865 Cd 0.52122 0.87023 0.70763 0.0
C866 C 0.58072 0.85305 0.62448 0.0
N867 N 0.58039 0.86143 0.64929 0.0
C868 C 0.58814 0.9047 0.63554 0.0
C869 C 0.58905 0.89652 0.6098 0.0
C870 C 0.58478 0.87035 0.60435 0.0
C871 C 0.58397 0.88671 0.65505 0.0
H872 H 0.57935 0.83267 0.62037 0.0
H873 H 0.58424 0.89297 0.67475 0.0
C874 C 0.58481 0.8803 0.72737 0.0
C875 C 0.51908 0.84858 0.766 0.0
C876 C 0.51002 0.8341 0.78681 0.0
C877 C 0.495 0.81185 0.78253 0.0
C878 C 0.49021 0.80459 0.75684 0.0
C879 C 0.49917 0.82 0.73661 0.0
N880 N 0.51334 0.84147 0.74151 0.0
H881 H 0.52954 0.86627 0.76944 0.0
H882 H 0.4942 0.8152 0.71696 0.0
C883 C 0.54122 0.92452 0.68696 0.0
N884 N 0.53163 0.90199 0.67767 0.0
C885 C 0.52471 0.92107 0.63623 0.0
C886 C 0.53381 0.94461 0.64572 0.0
C887 C 0.54268 0.94612 0.67115 0.0
C888 C 0.52353 0.89983 0.65279 0.0
H889 H 0.54647 0.92615 0.70701 0.0
H890 H 0.51507 0.88205 0.64609 0.0
C891 C 0.52525 0.82273 0.65543 0.0
C892 C 0.62946 0.80816 0.66196 0.0
N893 N 0.56612 0.80457 0.71418 0.0
C894 C 0.54521 0.78927 0.7104 0.0
C895 C 0.54005 0.76893 0.72705 0.0
C896 C 0.55743 0.76335 0.74693 0.0
C897 C 0.57707 0.78132 0.7522 0.0
C898 C 0.58107 0.80192 0.73543 0.0
C899 C 0.47227 0.89351 0.70897 0.0
O900 O 0.59171 0.8631 0.71151 0.0
O901 O 0.5611 0.88561 0.7306 0.0
O902 O 0.51752 0.83931 0.67167 0.0
O903 O 0.54837 0.81535 0.65513 0.0
O904 O 0.62933 0.82776 0.67645 0.0
O905 O 0.60833 0.79639 0.65904 0.0
O906 O 0.47672 0.872 0.69844 0.0
O907 O 0.49057 0.90381 0.72152 0.0
H908 H 0.53342 0.79133 0.69356 0.0
H909 H 0.59771 0.81419 0.73789 0.0
H910 H 0.59119 0.9247 0.64065 0.0
H911 H 0.58612 0.86298 0.58489 0.0
H912 H 0.51377 0.8412 0.80603 0.0
H913 H 0.47918 0.78752 0.75226 0.0
H914 H 0.51741 0.91949 0.61676 0.0
H915 H 0.54953 0.96421 0.67903 0.0
H916 H 0.52409 0.75622 0.72277 0.0
H917 H 0.5911 0.77806 0.76723 0.0
Cd918 Cd 0.97402 0.12369 0.20877 0.0
Cd919 Cd 0.91258 0.16282 0.1793 0.0
C920 C 0.94456 0.07713 0.18067 0.0
N921 N 0.96268 0.0953 0.17569 0.0
C922 C 0.97662 0.07198 0.13839 0.0
C923 C 0.95868 0.05244 0.14373 0.0
C924 C 0.94185 0.05584 0.16462 0.0
C925 C 0.97841 0.09331 0.15483 0.0
H926 H 0.93284 0.0784 0.1977 0.0
H927 H 0.99343 0.1074 0.15188 0.0
C928 C 0.97517 0.17169 0.15953 0.0
C929 C 0.94087 0.21242 0.20246 0.0
C930 C 0.94727 0.23199 0.21953 0.0
C931 C 0.93901 0.2304 0.24513 0.0
C932 C 0.9275 0.20745 0.2537 0.0
C933 C 0.92213 0.18791 0.23603 0.0
N934 N 0.92813 0.19106 0.21076 0.0
H935 H 0.94439 0.21547 0.18226 0.0
H936 H 0.91161 0.17114 0.24229 0.0
C937 C 0.93134 0.13037 0.12916 0.0
N938 N 0.91706 0.12805 0.15101 0.0
C939 C 0.89638 0.09038 0.13419 0.0
C940 C 0.91027 0.09315 0.11127 0.0
C941 C 0.92851 0.11282 0.1092 0.0
C942 C 0.89995 0.10838 0.15392 0.0
H943 H 0.94353 0.14674 0.12594 0.0
H944 H 0.88793 0.10756 0.17087 0.0
C945 C 0.9092 0.11727 0.22929 0.0
C946 C 0.0171 0.09196 0.22014 0.0
N947 N 0.98144 0.15604 0.23958 0.0
C948 C 0.9693 0.15531 0.26273 0.0
C949 C 0.97843 0.17005 0.28334 0.0
C950 C 0.00083 0.18504 0.28041 0.0
C951 C 0.01177 0.18684 0.25571 0.0
C952 C 0.00174 0.17207 0.2355 0.0
C953 C 0.86765 0.18364 0.15593 0.0
O954 O 0.98426 0.15456 0.17443 0.0
O955 O 0.95142 0.17681 0.15891 0.0
O956 O 0.90027 0.13339 0.2133 0.0
O957 O 0.9331 0.11227 0.23066 0.0
O958 O 0.01911 0.11242 0.20705 0.0
O959 O 0.9952 0.08708 0.22965 0.0
O960 O 0.86662 0.16577 0.17244 0.0
O961 O 0.88943 0.19382 0.15202 0.0
H962 H 0.95342 0.14221 0.26571 0.0
H963 H 0.01141 0.1719 0.21708 0.0
H964 H 0.99011 0.07013 0.12263 0.0
H965 H 0.92717 0.04175 0.16912 0.0
H966 H 0.95618 0.24937 0.21217 0.0
H967 H 0.92046 0.20553 0.27322 0.0
H968 H 0.88176 0.07564 0.13611 0.0
H969 H 0.93918 0.11569 0.09151 0.0
H970 H 0.96886 0.16854 0.30178 0.0
H971 H 0.02911 0.19789 0.25241 0.0
Cd972 Cd 0.02027 0.61945 0.2841 0.0
Cd973 Cd 0.07923 0.66265 0.31501 0.0
C974 C 0.0546 0.57728 0.31493 0.0
N975 N 0.0344 0.59354 0.3184 0.0
C976 C 0.01986 0.5688 0.35454 0.0
C977 C 0.03916 0.55063 0.34976 0.0
C978 C 0.05757 0.55582 0.33076 0.0
C979 C 0.01773 0.59026 0.33838 0.0
H980 H 0.06719 0.57951 0.29864 0.0
H981 H 0.00119 0.60271 0.3402 0.0
C982 C 0.01574 0.66463 0.33533 0.0
C983 C 0.05081 0.71257 0.29449 0.0
C984 C 0.04639 0.7332 0.27797 0.0
C985 C 0.05327 0.73092 0.25204 0.0
C986 C 0.06145 0.70706 0.24252 0.0
C987 C 0.06532 0.68677 0.25966 0.0
N988 N 0.06091 0.69024 0.28523 0.0
H989 H 0.04845 0.71525 0.31498 0.0
H990 H 0.07393 0.66916 0.2528 0.0
C991 C 0.06916 0.62716 0.3629 0.0
N992 N 0.08339 0.62637 0.34106 0.0
C993 C 0.1079 0.59107 0.35776 0.0
C994 C 0.09359 0.59207 0.38068 0.0
C995 C 0.07332 0.60969 0.38259 0.0
C996 C 0.10252 0.60872 0.33803 0.0
H997 H 0.05595 0.64261 0.36607 0.0
H998 H 0.11453 0.60924 0.32105 0.0
C999 C 0.08506 0.61679 0.26462 0.0
C1000 C 0.97705 0.58725 0.27464 0.0
N1001 N 0.01046 0.65235 0.25454 0.0
C1002 C 0.0066 0.64506 0.2297 0.0
C1003 C 0.99461 0.66175 0.21224 0.0
C1004 C 0.98671 0.68645 0.22028 0.0
C1005 C 0.99282 0.69399 0.24566 0.0
C1006 C 0.00398 0.67637 0.26267 0.0
C1007 C 0.1199 0.69174 0.33729 0.0
O1008 O 0.0085 0.64747 0.31961 0.0
O1009 O 0.03886 0.67218 0.33618 0.0
O1010 O 0.09203 0.63334 0.28123 0.0
O1011 O 0.06165 0.60997 0.26217 0.0
O1012 O 0.9761 0.60727 0.28845 0.0
O1013 O -0.00172 0.58251 0.26357 0.0
O1014 O 0.12028 0.68637 0.3135 0.0
O1015 O 0.10066 0.68437 0.35013 0.0
H1016 H 0.01123 0.62559 0.22389 0.0
H1017 H 0.00654 0.68164 0.2826 0.0
H1018 H 0.005 0.56502 0.36864 0.0
H1019 H 0.07249 0.54193 0.32638 0.0
H1020 H 0.04081 0.75167 0.28595 0.0
H1021 H 0.06757 0.70503 0.22268 0.0
H1022 H 0.12399 0.57799 0.35576 0.0
H1023 H 0.06182 0.61114 0.39991 0.0
H1024 H 0.99022 0.65456 0.1932 0.0
H1025 H 0.98815 0.71299 0.25283 0.0
Cd1026 Cd 0.47624 0.36771 0.78611 0.0
Cd1027 Cd 0.41139 0.33444 0.81593 0.0
C1028 C 0.46265 0.42161 0.8033 0.0
N1029 N 0.46482 0.39883 0.81578 0.0
C1030 C 0.4567 0.41935 0.85633 0.0
C1031 C 0.45138 0.44239 0.84318 0.0
C1032 C 0.45648 0.44373 0.81669 0.0
C1033 C 0.46358 0.39742 0.84198 0.0
H1034 H 0.46529 0.42244 0.78268 0.0
H1035 H 0.46698 0.37928 0.85163 0.0
C1036 C 0.47325 0.3249 0.83827 0.0
C1037 C 0.44422 0.28995 0.78985 0.0
C1038 C 0.44892 0.26985 0.77276 0.0
C1039 C 0.43758 0.27051 0.74838 0.0
C1040 C 0.42458 0.29277 0.74045 0.0
C1041 C 0.42045 0.31258 0.75814 0.0
N1042 N 0.42942 0.31033 0.78263 0.0
H1043 H 0.44987 0.28761 0.80967 0.0
H1044 H 0.40793 0.32832 0.75297 0.0
C1045 C 0.41015 0.35798 0.87066 0.0
N1046 N 0.40907 0.36677 0.84612 0.0
C1047 C 0.39794 0.40889 0.86082 0.0
C1048 C 0.40035 0.40078 0.88662 0.0
C1049 C 0.40576 0.37455 0.89117 0.0
C1050 C 0.40236 0.39149 0.84078 0.0
H1051 H 0.41363 0.33776 0.87427 0.0
H1052 H 0.40043 0.39784 0.82109 0.0
C1053 C 0.41027 0.38091 0.76776 0.0
C1054 C 0.52226 0.39627 0.77861 0.0
N1055 N 0.48248 0.33652 0.75478 0.0
C1056 C 0.47104 0.33928 0.73144 0.0
C1057 C 0.47992 0.32524 0.71032 0.0
C1058 C 0.50138 0.30894 0.71308 0.0
C1059 C 0.51154 0.30515 0.73789 0.0
C1060 C 0.50176 0.31928 0.75858 0.0
C1061 C 0.37172 0.30331 0.83736 0.0
O1062 O 0.48404 0.33699 0.82009 0.0
O1063 O 0.4491 0.32421 0.84093 0.0
O1064 O 0.39914 0.36613 0.78375 0.0
O1065 O 0.43473 0.38228 0.76627 0.0
O1066 O 0.51898 0.38057 0.79693 0.0
O1067 O 0.5046 0.39757 0.76178 0.0
O1068 O 0.36642 0.32413 0.82577 0.0
O1069 O 0.39486 0.29596 0.83665 0.0
H1070 H 0.45607 0.35348 0.72885 0.0
H1071 H 0.5109 0.31801 0.77725 0.0
H1072 H 0.45378 0.41783 0.87692 0.0
H1073 H 0.45402 0.46151 0.80602 0.0
H1074 H 0.45825 0.25252 0.7797 0.0
H1075 H 0.415 0.29343 0.72193 0.0
H1076 H 0.39328 0.42849 0.85582 0.0
H1077 H 0.40595 0.36635 0.91029 0.0
H1078 H 0.47103 0.32834 0.69172 0.0
H1079 H 0.5282 0.29306 0.74103 0.0
Cd1080 Cd 0.71087 0.51787 0.87319 0.0
Cd1081 Cd 0.67813 0.57672 0.83448 0.0
C1082 C 0.68623 0.54337 0.92238 0.0
N1083 N 0.67868 0.52915 0.90181 0.0
C1084 C 0.63697 0.52314 0.92027 0.0
C1085 C 0.64396 0.53875 0.94124 0.0
C1086 C 0.66919 0.54844 0.9423 0.0
C1087 C 0.65488 0.51828 0.9008 0.0
H1088 H 0.70582 0.55005 0.92387 0.0
H1089 H 0.64977 0.50576 0.885 0.0
C1090 C 0.66098 0.51351 0.8261 0.0
C1091 C 0.70376 0.55251 0.785 0.0
C1092 C 0.72117 0.54909 0.76497 0.0
C1093 C 0.74664 0.5571 0.76825 0.0
C1094 C 0.75482 0.56536 0.79262 0.0
C1095 C 0.73681 0.56811 0.81231 0.0
N1096 N 0.71159 0.56269 0.80785 0.0
H1097 H 0.6836 0.54919 0.78139 0.0
H1098 H 0.74283 0.57646 0.83029 0.0
C1099 C 0.62775 0.55923 0.86597 0.0
N1100 N 0.65017 0.57229 0.86957 0.0
C1101 C 0.63254 0.59386 0.90628 0.0
C1102 C 0.6088 0.5819 0.90172 0.0
C1103 C 0.607 0.56326 0.88235 0.0
C1104 C 0.6532 0.58869 0.88983 0.0
H1105 H 0.62485 0.54748 0.84914 0.0
H1106 H 0.67068 0.59978 0.89171 0.0
C1107 C 0.72777 0.58427 0.87944 0.0
C1108 C 0.72281 0.47451 0.90389 0.0
N1109 N 0.74156 0.51175 0.84087 0.0
C1110 C 0.76685 0.5153 0.84657 0.0
C1111 C 0.78592 0.50593 0.83001 0.0
C1112 C 0.77885 0.49263 0.8075 0.0
C1113 C 0.75254 0.49032 0.80167 0.0
C1114 C 0.7342 0.49995 0.8187 0.0
C1115 C 0.65131 0.61621 0.80713 0.0
O1116 O 0.67622 0.50512 0.84325 0.0
O1117 O 0.65971 0.53715 0.82066 0.0
O1118 O 0.71122 0.59203 0.86324 0.0
O1119 O 0.7307 0.56042 0.88452 0.0
O1120 O 0.70875 0.47318 0.88407 0.0
O1121 O 0.73322 0.4961 0.90867 0.0
O1122 O 0.6656 0.62183 0.82608 0.0
O1123 O 0.65108 0.5929 0.80015 0.0
H1124 H 0.77219 0.52423 0.86462 0.0
H1125 H 0.7141 0.49669 0.81478 0.0
H1126 H 0.61787 0.515 0.91871 0.0
H1127 H 0.6761 0.55931 0.9587 0.0
H1128 H 0.71409 0.54319 0.74625 0.0
H1129 H 0.77437 0.57193 0.79563 0.0
H1130 H 0.63424 0.60906 0.92048 0.0
H1131 H 0.58866 0.55446 0.87772 0.0
H1132 H 0.80594 0.50843 0.83515 0.0
H1133 H 0.74602 0.4799 0.78483 0.0
Cd1134 Cd 0.21081 0.9815 0.12529 0.0
Cd1135 Cd 0.17604 0.91768 0.16028 0.0
C1136 C 0.19568 0.95743 0.07295 0.0
N1137 N 0.18316 0.96837 0.09309 0.0
C1138 C 0.1432 0.96604 0.07041 0.0
C1139 C 0.15549 0.95237 0.05062 0.0
C1140 C 0.18217 0.94897 0.05164 0.0
C1141 C 0.15762 0.97395 0.09182 0.0
H1142 H 0.21633 0.95541 0.0733 0.0
H1143 H 0.14845 0.98418 0.10745 0.0
C1144 C 0.15992 0.98282 0.16908 0.0
C1145 C 0.19659 0.93611 0.2147 0.0
C1146 C 0.21419 0.93662 0.23496 0.0
C1147 C 0.24045 0.93389 0.22947 0.0
C1148 C 0.24869 0.93589 0.20384 0.0
C1149 C 0.23047 0.93499 0.18423 0.0
N1150 N 0.20509 0.93352 0.1901 0.0
H1151 H 0.17623 0.93481 0.21874 0.0
H1152 H 0.23676 0.93284 0.16463 0.0
C1153 C 0.12747 0.93449 0.12791 0.0
N1154 N 0.14957 0.92086 0.12451 0.0
C1155 C 0.13223 0.90071 0.08696 0.0
C1156 C 0.10944 0.91472 0.09018 0.0
C1157 C 0.10728 0.93207 0.11059 0.0
C1158 C 0.15243 0.90435 0.10435 0.0
H1159 H 0.12458 0.94595 0.14494 0.0
H1160 H 0.16946 0.89251 0.10293 0.0
C1161 C 0.22696 0.91302 0.11729 0.0
C1162 C 0.22289 0.02439 0.09403 0.0
N1163 N 0.24146 0.98832 0.15717 0.0
C1164 C 0.26592 0.9797 0.15389 0.0
C1165 C 0.28544 0.98798 0.17043 0.0
C1166 C 0.27974 0.00582 0.18994 0.0
C1167 C 0.25424 0.01384 0.1933 0.0
C1168 C 0.23525 0.00471 0.17663 0.0
C1169 C 0.14537 0.8801 0.18564 0.0
O1170 O 0.17503 0.99481 0.1541 0.0
O1171 O 0.16081 0.95864 0.17069 0.0
O1172 O 0.20985 0.90331 0.13179 0.0
O1173 O 0.22952 0.93738 0.11466 0.0
O1174 O 0.20662 0.02544 0.1121 0.0
O1175 O 0.23544 0.00359 0.09161 0.0
O1176 O 0.1684 0.87471 0.17956 0.0
O1177 O 0.13784 0.90281 0.18142 0.0
H1178 H 0.27041 0.96722 0.13783 0.0
H1179 H 0.21579 0.01178 0.1784 0.0
H1180 H 0.12269 0.96955 0.06983 0.0
H1181 H 0.19248 0.93951 0.03617 0.0
H1182 H 0.20712 0.93512 0.25452 0.0
H1183 H 0.26886 0.93401 0.19898 0.0
H1184 H 0.13378 0.88614 0.07212 0.0
H1185 H 0.08943 0.94222 0.11418 0.0
H1186 H 0.30501 0.98164 0.16716 0.0
H1187 H 0.24924 0.02762 0.20814 0.0
Cd1188 Cd 0.28092 0.02109 0.62346 0.0
Cd1189 Cd 0.32094 0.07583 0.6646 0.0
C1190 C 0.305 0.0467 0.57342 0.0
N1191 N 0.3123 0.03145 0.59339 0.0
C1192 C 0.35181 0.02117 0.5721 0.0
C1193 C 0.34475 0.03709 0.55148 0.0
C1194 C 0.32112 0.05005 0.55237 0.0
C1195 C 0.3351 0.01854 0.59302 0.0
H1196 H 0.28618 0.05541 0.57319 0.0
H1197 H 0.33995 0.0055 0.60849 0.0
C1198 C 0.33465 0.01471 0.66835 0.0
C1199 C 0.28725 0.04115 0.70643 0.0
C1200 C 0.26927 0.03834 0.72611 0.0
C1201 C 0.25132 0.05801 0.73054 0.0
C1202 C 0.24935 0.07796 0.7123 0.0
C1203 C 0.26737 0.07973 0.69258 0.0
N1204 N 0.2867 0.06226 0.69083 0.0
H1205 H 0.30249 0.02726 0.70524 0.0
H1206 H 0.26734 0.09645 0.68017 0.0
C1207 C 0.37014 0.05787 0.63275 0.0
N1208 N 0.34779 0.0709 0.62852 0.0
C1209 C 0.36469 0.08795 0.58915 0.0
C1210 C 0.38787 0.07489 0.59355 0.0
C1211 C 0.39025 0.05923 0.61523 0.0
C1212 C 0.34465 0.0856 0.60701 0.0
H1213 H 0.37354 0.0481 0.65069 0.0
H1214 H 0.32742 0.09695 0.60456 0.0
C1215 C 0.26974 0.08698 0.61921 0.0
C1216 C 0.26943 0.97804 0.59203 0.0
N1217 N 0.25024 0.01452 0.65552 0.0
C1218 C 0.22635 0.02455 0.6522 0.0
C1219 C 0.20555 0.01452 0.66593 0.0
C1220 C 0.20943 0.9939 0.68305 0.0
C1221 C 0.23468 0.98564 0.68787 0.0
C1222 C 0.25493 0.99609 0.67355 0.0
C1223 C 0.34876 0.11654 0.68877 0.0
O1224 O 0.31668 0.01277 0.65199 0.0
O1225 O 0.33956 0.03622 0.67861 0.0
O1226 O 0.28818 0.09128 0.6347 0.0
O1227 O 0.26284 0.06411 0.61366 0.0
O1228 O 0.28243 0.97568 0.61252 0.0
O1229 O 0.25965 -1e-05 0.58756 0.0
O1230 O 0.32663 0.12082 0.6795 0.0
O1231 O 0.35666 0.09356 0.68842 0.0
H1232 H 0.22306 0.03878 0.63736 0.0
H1233 H 0.27403 0.98806 0.67535 0.0
H1234 H 0.36988 0.01081 0.57194 0.0
H1235 H 0.31475 0.06197 0.53648 0.0
H1236 H 0.27103 0.02216 0.73915 0.0
H1237 H 0.23598 0.09375 0.71468 0.0
H1238 H 0.36271 0.10101 0.57301 0.0
H1239 H 0.40834 0.04987 0.61971 0.0
H1240 H 0.18636 0.02151 0.66182 0.0
H1241 H 0.23846 0.96967 0.70075 0.0
Cd1242 Cd 0.8153 0.41386 0.33398 0.0
Cd1243 Cd 0.78489 0.47807 0.36667 0.0
C1244 C 0.86889 0.43497 0.35802 0.0
N1245 N 0.84676 0.42273 0.36498 0.0
C1246 C 0.86676 0.40735 0.40354 0.0
C1247 C 0.88953 0.42005 0.39672 0.0
C1248 C 0.89037 0.43433 0.37397 0.0
C1249 C 0.8453 0.40921 0.3874 0.0
H1250 H 0.8709 0.44369 0.33934 0.0
H1251 H 0.82813 0.39831 0.39179 0.0
C1252 C 0.76612 0.41243 0.3798 0.0
C1253 C 0.72834 0.48241 0.34534 0.0
C1254 C 0.70774 0.49377 0.3325 0.0
C1255 C 0.71241 0.50915 0.31078 0.0
C1256 C 0.73749 0.51074 0.30098 0.0
C1257 C 0.75763 0.49917 0.31459 0.0
N1258 N 0.75272 0.48614 0.33679 0.0
H1259 H 0.72512 0.47238 0.36331 0.0
H1260 H 0.77726 0.50232 0.30853 0.0
C1261 C 0.80486 0.45433 0.41915 0.0
N1262 N 0.81442 0.4661 0.39785 0.0
C1263 C 0.8553 0.47142 0.4183 0.0
C1264 C 0.84602 0.4581 0.43985 0.0
C1265 C 0.82054 0.44954 0.44016 0.0
C1266 C 0.83898 0.47518 0.3972 0.0
H1267 H 0.78477 0.44966 0.4205 0.0
H1268 H 0.84568 0.48581 0.3806 0.0
C1269 C 0.83276 0.47606 0.31791 0.0
C1270 C 0.83989 0.36905 0.31452 0.0
N1271 N 0.78374 0.42746 0.30547 0.0
C1272 C 0.79097 0.42834 0.28035 0.0
C1273 C 0.77255 0.43086 0.26105 0.0
C1274 C 0.74646 0.43229 0.26784 0.0
C1275 C 0.74004 0.4351 0.29398 0.0
C1276 C 0.75905 0.43193 0.31262 0.0
C1277 C 0.77674 0.52251 0.39694 0.0
O1278 O 0.78214 0.40126 0.3651 0.0
O1279 O 0.76504 0.43693 0.38096 0.0
O1280 O 0.81818 0.48659 0.33443 0.0
O1281 O 0.83328 0.45185 0.31513 0.0
O1282 O 0.82591 0.36832 0.33441 0.0
O1283 O 0.84035 0.38998 0.30208 0.0
O1284 O 0.79584 0.51995 0.3821 0.0
O1285 O 0.75988 0.50487 0.39676 0.0
H1286 H 0.81083 0.42502 0.2752 0.0
H1287 H 0.75373 0.43151 0.33263 0.0
H1288 H 0.86608 0.39491 0.42023 0.0
H1289 H 0.90809 0.44333 0.36767 0.0
H1290 H 0.6886 0.49223 0.34057 0.0
H1291 H 0.74175 0.52273 0.28446 0.0
H1292 H 0.87487 0.47854 0.41773 0.0
H1293 H 0.81259 0.43997 0.45691 0.0
H1294 H 0.7785 0.42863 0.2412 0.0
H1295 H 0.72018 0.43687 0.3 0.0
H1296 H 0.04645 0.52942 0.39833 0.0
H1297 H 0.02492 0.51156 0.31969 0.0
H1298 H 0.02382 0.46541 0.33011 0.0
H1299 H 0.08848 0.48365 0.40798 0.0
H1300 H 0.08048 0.47316 0.44012 0.0
H1301 H 0.07217 0.50511 0.43002 0.0
H1302 H 0.02471 0.49797 0.44074 0.0
H1303 H 0.03235 0.46594 0.45189 0.0
H1304 H 0.00802 0.47049 0.42762 0.0
H1305 H 0.03409 0.42276 0.34493 0.0
H1306 H 0.05612 0.3855 0.36321 0.0
H1307 H 0.06941 0.42805 0.43404 0.0
C1308 C 0.04061 0.51568 0.38375 0.0
C1309 C 0.03576 0.52376 0.35823 0.0
C1310 C 0.02872 0.50552 0.33931 0.0
C1311 C 0.02775 0.47934 0.34512 0.0
C1312 C 0.03341 0.47165 0.37012 0.0
C1313 C 0.03929 0.48917 0.38938 0.0
C1314 C 0.0476 0.47514 0.41371 0.0
C1315 C 0.07378 0.48481 0.42348 0.0
C1316 C 0.02694 0.47754 0.43473 0.0
C1317 C 0.04891 0.44765 0.40378 0.0
C1318 C 0.03931 0.44602 0.37904 0.0
C1319 C 0.04091 0.42351 0.3646 0.0
C1320 C 0.05345 0.40228 0.37528 0.0
C1321 C 0.06451 0.40369 0.40017 0.0
C1322 C 0.06122 0.42639 0.41495 0.0
H1323 H 0.43065 0.57123 0.9266 0.0
H1324 H 0.39043 0.59684 0.85796 0.0
H1325 H 0.39327 0.55329 0.83981 0.0
H1326 H 0.47652 0.53061 0.89138 0.0
H1327 H 0.47759 0.50581 0.91571 0.0
H1328 H 0.47083 0.5386 0.92469 0.0
H1329 H 0.42978 0.52333 0.94703 0.0
H1330 H 0.43465 0.49044 0.93692 0.0
H1331 H 0.40529 0.50701 0.92879 0.0
H1332 H 0.3934 0.50781 0.8323 0.0
H1333 H 0.40986 0.46492 0.82269 0.0
H1334 H 0.45905 0.46811 0.89034 0.0
C1335 C 0.42333 0.56765 0.9074 0.0
C1336 C 0.41033 0.58715 0.89346 0.0
C1337 C 0.40068 0.58208 0.86859 0.0
C1338 C 0.40164 0.55734 0.85846 0.0
C1339 C 0.41307 0.53815 0.87314 0.0
C1340 C 0.42519 0.54305 0.89627 0.0
C1341 C 0.43876 0.5189 0.90603 0.0
C1342 C 0.46767 0.52376 0.90961 0.0
C1343 C 0.42639 0.50934 0.93118 0.0
C1344 C 0.43328 0.50038 0.88389 0.0
C1345 C 0.41675 0.51174 0.86643 0.0
C1346 C 0.40719 0.49892 0.84513 0.0
C1347 C 0.4168 0.47464 0.83981 0.0
C1348 C 0.43692 0.46401 0.85482 0.0
C1349 C 0.44421 0.47619 0.87816 0.0
H1350 H 0.56363 0.96067 0.60541 0.0
H1351 H 0.49963 0.98257 0.65393 0.0
H1352 H 0.50073 0.02656 0.63593 0.0
H1353 H 0.59824 0.01615 0.61491 0.0
H1354 H 0.61149 0.017 0.58284 0.0
H1355 H 0.60123 0.98698 0.5966 0.0
H1356 H 0.57187 0.98086 0.55588 0.0
H1357 H 0.58172 0.01187 0.54377 0.0
H1358 H 0.54806 0.00498 0.54846 0.0
H1359 H 0.51691 0.06899 0.62357 0.0
H1360 H 0.54289 0.10658 0.61324 0.0
H1361 H 0.59254 0.05803 0.56611 0.0
C1362 C 0.54918 0.97452 0.61121 0.0
C1363 C 0.53135 0.96848 0.6307 0.0
C1364 C 0.51321 0.98704 0.63875 0.0
C1365 C 0.51367 0.01198 0.62859 0.0
C1366 C 0.53224 0.01789 0.61023 0.0
C1367 C 0.54938 -0.0004 0.60115 0.0
C1368 C 0.56958 0.01191 0.58412 0.0
C1369 C 0.59673 0.00777 0.59526 0.0
C1370 C 0.56767 0.00183 0.55639 0.0
C1371 C 0.56173 0.03996 0.58598 0.0
C1372 C 0.5403 0.043 0.60127 0.0
C1373 C 0.53288 0.06708 0.6104 0.0
C1374 C 0.54807 0.08853 0.60434 0.0
C1375 C 0.57045 0.08597 0.58885 0.0
C1376 C 0.57622 0.06132 0.5785 0.0
H1377 H 0.91915 0.90675 0.12509 0.0
H1378 H 0.92472 0.91869 0.04281 0.0
H1379 H 0.94591 0.96079 0.05028 0.0
H1380 H 0.89956 0.96793 0.13828 0.0
H1381 H 0.91577 0.97091 0.16881 0.0
H1382 H 0.90657 0.93963 0.15715 0.0
H1383 H 0.95373 0.92386 0.16087 0.0
H1384 H 0.96312 0.95507 0.17286 0.0
H1385 H 0.97899 0.94163 0.14507 0.0
H1386 H 0.96034 0.00442 0.06711 0.0
H1387 H 0.96602 0.04504 0.09147 0.0
H1388 H 0.95028 0.004 0.16256 0.0
C1389 C 0.92597 0.91772 0.10872 0.0
C1390 C 0.92098 0.90935 0.08343 0.0
C1391 C 0.92891 0.9247 0.06234 0.0
C1392 C 0.94091 0.94859 0.06642 0.0
C1393 C 0.94465 0.95685 0.09171 0.0
C1394 C 0.9375 0.94175 0.11249 0.0
C1395 C 0.94015 0.95625 0.13757 0.0
C1396 C 0.91397 0.95882 0.15123 0.0
C1397 C 0.9602 0.94344 0.15512 0.0
C1398 C 0.94946 0.982 0.12772 0.0
C1399 C 0.95223 0.98203 0.10128 0.0
C1400 C 0.95871 0.00444 0.08788 0.0
C1401 C 0.96198 0.02743 0.10189 0.0
C1402 C 0.95823 0.02787 0.12893 0.0
C1403 C 0.95273 0.00457 0.14187 0.0
H1404 H 0.35894 0.08186 0.52907 0.0
H1405 H 0.36695 -0.00091 0.52208 0.0
H1406 H 0.3886 0.00485 0.47985 0.0
H1407 H 0.34207 0.09402 0.467 0.0
H1408 H 0.35933 0.12401 0.46414 0.0
H1409 H 0.34838 0.11335 0.49516 0.0
H1410 H 0.39488 0.11581 0.51325 0.0
H1411 H 0.40594 0.12711 0.48236 0.0
H1412 H 0.42043 0.09908 0.49686 0.0
H1413 H 0.40334 0.02034 0.43507 0.0
H1414 H 0.41347 0.04413 0.39488 0.0
H1415 H 0.39518 0.11603 0.43325 0.0
C1416 C 0.36576 0.06497 0.51891 0.0
C1417 C 0.36129 0.04008 0.52862 0.0
C1418 C 0.37045 0.01836 0.5149 0.0
C1419 C 0.38265 0.02147 0.49093 0.0
C1420 C 0.38583 0.0464 0.48138 0.0
C1421 C 0.37805 0.06775 0.49531 0.0
C1422 C 0.38204 0.0924 0.48057 0.0
C1423 C 0.35644 0.10677 0.47647 0.0
C1424 C 0.40202 0.10961 0.49406 0.0
C1425 C 0.39232 0.08166 0.45566 0.0
C1426 C 0.39464 0.05515 0.45633 0.0
C1427 C 0.40215 0.04116 0.4346 0.0
C1428 C 0.40775 0.05477 0.41183 0.0
C1429 C 0.40593 0.08199 0.41114 0.0
C1430 C 0.39782 0.09533 0.43336 0.0
H1431 H 0.11941 0.97351 0.01761 0.0
H1432 H 0.16021 0.90292 0.03608 0.0
H1433 H 0.14318 0.88253 0.99713 0.0
H1434 H 0.06177 0.93843 0.98649 0.0
H1435 H 0.05805 0.96355 0.96288 0.0
H1436 H 0.06954 0.97127 0.99473 0.0
H1437 H 0.10957 0.99284 0.97414 0.0
H1438 H 0.09851 0.98433 0.94243 0.0
H1439 H 0.12993 0.9742 0.95309 0.0
H1440 H 0.12994 0.87248 0.95404 0.0
H1441 H 0.11341 0.86977 0.90976 0.0
H1442 H 0.0787 0.94534 0.91765 0.0
C1443 C 0.12398 0.95353 0.01372 0.0
C1444 C 0.14116 0.93973 0.02968 0.0
C1445 C 0.14711 0.91375 0.02401 0.0
C1446 C 0.13751 0.90198 0.00199 0.0
C1447 C 0.12171 0.91635 0.98596 0.0
C1448 C 0.11426 0.94127 0.99169 0.0
C1449 C 0.098 0.95242 0.97004 0.0
C1450 C 0.07019 0.95668 0.97908 0.0
C1451 C 0.10973 0.97742 0.95929 0.0
C1452 C 0.09944 0.93058 0.95064 0.0
C1453 C 0.113 0.90995 0.96059 0.0
C1454 C 0.11867 0.88814 0.94619 0.0
C1455 C 0.10952 0.88691 0.92106 0.0
C1456 C 0.09485 0.9073 0.91068 0.0
C1457 C 0.08976 0.92952 0.92545 0.0
H1458 H 0.8562 0.41158 0.46035 0.0
H1459 H 0.87028 0.49314 0.47082 0.0
H1460 H 0.88969 0.48413 0.5136 0.0
H1461 H 0.83708 0.39715 0.52036 0.0
H1462 H 0.85268 0.36624 0.52287 0.0
H1463 H 0.84377 0.37856 0.4918 0.0
H1464 H 0.8908 0.37454 0.47571 0.0
H1465 H 0.89988 0.36146 0.50657 0.0
H1466 H 0.91638 0.38927 0.49391 0.0
H1467 H 0.89946 0.46623 0.55771 0.0
H1468 H 0.90816 0.44105 0.597 0.0
H1469 H 0.8875 0.37115 0.55593 0.0
C1470 C 0.86437 0.42739 0.47117 0.0
C1471 C 0.86217 0.45293 0.46242 0.0
C1472 C 0.87226 0.47339 0.47728 0.0
C1473 C 0.88315 0.46844 0.50152 0.0
C1474 C 0.88417 0.44294 0.51002 0.0
C1475 C 0.8757 0.42272 0.49492 0.0
C1476 C 0.87767 0.39723 0.50875 0.0
C1477 C 0.85123 0.38405 0.51108 0.0
C1478 C 0.89736 0.37958 0.49545 0.0
C1479 C 0.88737 0.40635 0.53454 0.0
C1480 C 0.8911 0.43268 0.53493 0.0
C1481 C 0.89796 0.44556 0.55738 0.0
C1482 C 0.90233 0.43108 0.5797 0.0
C1483 C 0.89924 0.40395 0.5795 0.0
C1484 C 0.89122 0.39166 0.5566 0.0
H1485 H 0.64074 0.58313 0.96929 0.0
H1486 H 0.60618 0.50729 0.96176 0.0
H1487 H 0.58133 0.51496 0.00153 0.0
H1488 H 0.65312 0.57576 0.03415 0.0
H1489 H 0.64846 0.60918 0.04234 0.0
H1490 H 0.6589 0.6005 0.01049 0.0
H1491 H 0.62012 0.62461 0.99021 0.0
H1492 H 0.61028 0.63416 0.02207 0.0
H1493 H 0.58808 0.61753 0.0013 0.0
H1494 H 0.56427 0.52912 0.04539 0.0
H1495 H 0.55559 0.54956 0.08781 0.0
H1496 H 0.60598 0.61284 0.06781 0.0
C1497 C 0.62785 0.56809 0.97578 0.0
C1498 C 0.62575 0.54446 0.9625 0.0
C1499 C 0.60806 0.52567 0.97142 0.0
C1500 C 0.59395 0.52978 0.99411 0.0
C1501 C 0.59793 0.55265 0.00763 0.0
C1502 C 0.6144 0.57151 -0.00136 0.0
C1503 C 0.61805 0.5929 0.01797 0.0
C1504 C 0.6463 0.59467 0.02675 0.0
C1505 C 0.60855 0.61882 0.00724 0.0
C1506 C 0.60103 0.5832 0.03934 0.0
C1507 C 0.58937 0.56006 0.03311 0.0
C1508 C 0.57326 0.54725 0.0504 0.0
C1509 C 0.56869 0.55871 0.07449 0.0
C1510 C 0.58057 0.58233 0.08089 0.0
C1511 C 0.59694 0.59458 0.0632 0.0
H1512 H 0.42484 0.38102 0.10903 0.0
H1513 H 0.4165 0.45098 0.06451 0.0
H1514 H 0.45905 0.44304 0.04408 0.0
H1515 H 0.49359 0.38885 0.12053 0.0
H1516 H 0.49952 0.35468 0.11926 0.0
H1517 H 0.4689 0.36653 0.13033 0.0
H1518 H 0.44551 0.33895 0.09587 0.0
H1519 H 0.47597 0.32686 0.08485 0.0
H1520 H 0.45441 0.34229 0.06248 0.0
H1521 H 0.49946 0.42276 0.02413 0.0
H1522 H 0.53644 0.39592 0.01099 0.0
H1523 H 0.52041 0.34366 0.07436 0.0
C1524 C 0.43197 0.39448 0.09477 0.0
C1525 C 0.41739 0.41602 0.08741 0.0
C1526 C 0.42729 0.43385 0.06945 0.0
C1527 C 0.45144 0.42963 0.05809 0.0
C1528 C 0.46518 0.40766 0.06524 0.0
C1529 C 0.45596 0.39075 0.08363 0.0
C1530 C 0.47439 0.36893 0.08858 0.0
C1531 C 0.48471 0.36982 0.11632 0.0
C1532 C 0.46181 0.34272 0.08257 0.0
C1533 C 0.49503 0.3755 0.06932 0.0
C1534 C 0.48943 0.39774 0.05582 0.0
C1535 C 0.50443 0.40573 0.03506 0.0
C1536 C 0.52548 0.39037 0.0278 0.0
C1537 C 0.53136 0.36743 0.04145 0.0
C1538 C 0.51631 0.36066 0.06302 0.0
H1539 H 0.02926 0.13744 0.9096 0.0
H1540 H 0.03063 0.10878 0.9879 0.0
H1541 H 0.98868 0.08702 0.98041 0.0
H1542 H 0.9674 0.15598 0.90988 0.0
H1543 H 0.96085 0.14792 0.87675 0.0
H1544 H 0.993 0.15591 0.88649 0.0
H1545 H 0.01013 0.1122 0.86907 0.0
H1546 H 0.97809 0.10426 0.85841 0.0
H1547 H 0.99518 0.08271 0.87959 0.0
H1548 H 0.9432 0.07296 0.96453 0.0
H1549 H 0.90168 0.0667 0.94167 0.0
H1550 H 0.93115 0.11055 0.87703 0.0
C1551 C 0.02119 0.12602 0.92502 0.0
C1552 C 0.03304 0.12483 0.94927 0.0
C1553 C 0.02182 0.10973 0.96903 0.0
C1554 C -0.002 0.09745 0.96497 0.0
C1555 C 0.98603 0.10048 0.94107 0.0
C1556 C -0.0024 0.11423 0.92143 0.0
C1557 C 0.98034 0.11734 0.89846 0.0
C1558 C 0.97509 0.14597 0.89258 0.0
C1559 C 0.9916 0.10331 0.87497 0.0
C1560 C 0.95673 0.10394 0.90836 0.0
C1561 C 0.96023 0.09377 0.9327 0.0
C1562 C 0.94045 0.08071 0.94538 0.0
C1563 C 0.91683 0.07755 0.93245 0.0
C1564 C 0.91324 0.08784 0.90743 0.0
C1565 C 0.9334 0.10166 0.89575 0.0
H1566 H 0.57069 0.91917 0.43982 0.0
H1567 H 0.58325 0.8828 0.36567 0.0
H1568 H 0.53944 0.86494 0.3666 0.0
H1569 H 0.53442 0.86506 0.46683 0.0
H1570 H 0.51413 0.88627 0.48538 0.0
H1571 H 0.54621 0.8959 0.47693 0.0
H1572 H 0.52531 0.93775 0.45698 0.0
H1573 H 0.49345 0.92575 0.46358 0.0
H1574 H 0.5025 0.9341 0.43114 0.0
H1575 H 0.4967 0.84922 0.37568 0.0
H1576 H 0.4577 0.83122 0.39529 0.0
H1577 H 0.47109 0.87658 0.46422 0.0
C1578 C 0.56407 0.90733 0.42399 0.0
C1579 C 0.58005 0.90215 0.40268 0.0
C1580 C 0.57107 0.88669 0.38216 0.0
C1581 C 0.54621 0.87677 0.38237 0.0
C1582 C 0.53064 0.88242 0.40333 0.0
C1583 C 0.53918 0.89683 0.42404 0.0
C1584 C 0.51892 0.89777 0.44504 0.0
C1585 C 0.52899 0.88553 0.47004 0.0
C1586 C 0.50949 0.92549 0.44946 0.0
C1587 C 0.49812 0.88121 0.43302 0.0
C1588 C 0.50525 0.87303 0.40874 0.0
C1589 C 0.49066 0.85568 0.39454 0.0
C1590 C 0.46866 0.84549 0.40589 0.0
C1591 C 0.46148 0.85264 0.43116 0.0
C1592 C 0.47595 0.87128 0.44465 0.0
H1593 H 0.96983 0.60895 0.53151 0.0
H1594 H 0.9622 0.6637 0.59437 0.0
H1595 H 0.00517 0.6524 0.60971 0.0
H1596 H 0.00872 0.56122 0.57669 0.0
H1597 H 0.02654 0.5493 0.54956 0.0
H1598 H 0.99356 0.55893 0.54525 0.0
H1599 H 0.00732 0.59123 0.50934 0.0
H1600 H 0.03926 0.57934 0.51417 0.0
H1601 H 0.03304 0.61362 0.51614 0.0
H1602 H 0.05104 0.64481 0.61118 0.0
H1603 H 0.09459 0.62667 0.61193 0.0
H1604 H 0.07263 0.57027 0.55419 0.0
C1605 C 0.97686 0.61779 0.54903 0.0
C1606 C 0.96342 0.63845 0.56077 0.0
C1607 C 0.97283 0.64895 0.58415 0.0
C1608 C -0.00283 0.64259 0.59316 0.0
C1609 C 0.01114 0.62437 0.5796 0.0
C1610 C 0.00087 0.61059 0.5593 0.0
C1611 C 0.02034 0.59102 0.54944 0.0
C1612 C 0.01169 0.56346 0.55562 0.0
C1613 C 0.0253 0.59414 0.52052 0.0
C1614 C 0.04371 0.59813 0.56555 0.0
C1615 C 0.03768 0.61759 0.58265 0.0
C1616 C 0.05588 0.62888 0.59864 0.0
C1617 C 0.08061 0.61873 0.59862 0.0
C1618 C 0.08675 0.59716 0.58318 0.0
C1619 C 0.06827 0.58688 0.56604 0.0
H1620 H 0.95553 0.47035 0.60937 0.0
H1621 H 0.90356 0.46693 0.67473 0.0
H1622 H 0.88721 0.50987 0.66422 0.0
H1623 H 0.97311 0.53113 0.61154 0.0
H1624 H 0.96996 0.54064 0.57837 0.0
H1625 H 0.97593 0.50743 0.58616 0.0
H1626 H 0.93561 0.49335 0.56121 0.0
H1627 H 0.93121 0.52637 0.55162 0.0
H1628 H 0.90532 0.50957 0.56721 0.0
H1629 H 0.8854 0.55555 0.65479 0.0
H1630 H 0.88413 0.59894 0.63574 0.0
H1631 H 0.9312 0.57268 0.57201 0.0
C1632 C 0.93996 0.47826 0.62072 0.0
C1633 C 0.9316 0.46599 0.64355 0.0
C1634 C 0.91095 0.47661 0.65778 0.0
C1635 C 0.90139 0.50088 0.65191 0.0
C1636 C 0.91162 0.5136 0.63083 0.0
C1637 C 0.92907 0.50219 0.61429 0.0
C1638 C 0.93662 0.52087 0.59307 0.0
C1639 C 0.96573 0.52519 0.59235 0.0
C1640 C 0.92656 0.51193 0.56673 0.0
C1641 C 0.92255 0.54489 0.60182 0.0
C1642 C 0.90846 0.5401 0.62381 0.0
C1643 C 0.89553 0.55943 0.63702 0.0
C1644 C 0.89537 0.58406 0.62639 0.0
C1645 C 0.90766 0.58888 0.60262 0.0
C1646 C 0.92187 0.56928 0.59035 0.0
H1647 H 0.51487 0.51226 0.12467 0.0
H1648 H 0.58977 0.53888 0.1502 0.0
H1649 H 0.61009 0.50134 0.13061 0.0
H1650 H 0.52374 0.44841 0.13943 0.0
H1651 H 0.50819 0.43429 0.11177 0.0
H1652 H 0.49893 0.46589 0.12259 0.0
H1653 H 0.50846 0.48449 0.07736 0.0
H1654 H 0.51728 0.45272 0.06651 0.0
H1655 H 0.5395 0.47913 0.06288 0.0
H1656 H 0.62144 0.45914 0.11886 0.0
H1657 H 0.62603 0.41429 0.10534 0.0
H1658 H 0.54519 0.41153 0.08439 0.0
C1659 C 0.5356 0.51041 0.12516 0.0
C1660 C 0.55099 0.52864 0.13841 0.0
C1661 C 0.5779 0.52549 0.13951 0.0
C1662 C 0.58958 0.50412 0.12861 0.0
C1663 C 0.57403 0.48587 0.11683 0.0
C1664 C 0.54774 0.48873 0.11436 0.0
C1665 C 0.53591 0.46461 0.10239 0.0
C1666 C 0.51549 0.4526 0.12013 0.0
C1667 C 0.52464 0.4706 0.07569 0.0
C1668 C 0.55958 0.44749 0.10028 0.0
C1669 C 0.58115 0.46055 0.10876 0.0
C1670 C 0.60499 0.44889 0.11126 0.0
C1671 C 0.60732 0.42337 0.10381 0.0
C1672 C 0.58613 0.40985 0.0934 0.0
C1673 C 0.56169 0.42173 0.09201 0.0
H1674 H 0.42732 0.0146 0.33207 0.0
H1675 H 0.47943 0.03939 0.39262 0.0
H1676 H 0.47115 -0.00145 0.41591 0.0
H1677 H 0.38261 0.97919 0.36941 0.0
H1678 H 0.37927 0.95428 0.34544 0.0
H1679 H 0.3873 0.98659 0.33582 0.0
H1680 H 0.42783 0.96923 0.31236 0.0
H1681 H 0.4202 0.93688 0.32232 0.0
H1682 H 0.45109 0.95059 0.33011 0.0
H1683 H 0.45592 0.95426 0.43231 0.0
H1684 H 0.43624 0.91127 0.43946 0.0
H1685 H 0.40116 0.91453 0.36397 0.0
C1686 C 0.43745 0.01152 0.35001 0.0
C1687 C 0.45442 0.03011 0.3602 0.0
C1688 C 0.46627 0.0255 0.38438 0.0
C1689 C 0.46184 0.00228 0.39765 0.0
C1690 C 0.44597 0.98388 0.38618 0.0
C1691 C 0.43413 0.98834 0.36281 0.0
C1692 C 0.41917 0.96531 0.35349 0.0
C1693 C 0.39039 0.97173 0.35091 0.0
C1694 C 0.43024 0.95489 0.32807 0.0
C1695 C 0.42413 0.94702 0.37538 0.0
C1696 C 0.43933 0.95803 0.39431 0.0
C1697 C 0.4446 0.94524 0.41732 0.0
C1698 C 0.4336 0.92083 0.42114 0.0
C1699 C 0.41819 0.90949 0.40174 0.0
C1700 C 0.4138 0.92253 0.37853 0.0
H1701 H 0.07236 0.08909 0.86526 0.0
H1702 H 0.07629 0.07519 0.94736 0.0
H1703 H 0.05526 0.03289 0.94133 0.0
H1704 H 0.01075 0.05088 0.85073 0.0
H1705 H 0.0251 0.0406 0.82099 0.0
H1706 H 0.03307 0.07174 0.83419 0.0
H1707 H 0.08139 0.05749 0.83095 0.0
H1708 H 0.07231 0.0259 0.82008 0.0
H1709 H 0.0918 0.02942 0.84856 0.0
H1710 H 0.03979 0.98953 0.9255 0.0
H1711 H 0.03208 0.94909 0.90115 0.0
H1712 H 0.04002 0.99124 0.82951 0.0
C1713 C 0.06765 0.07762 0.88203 0.0
C1714 C 0.07547 0.08546 0.90679 0.0
C1715 C 0.0701 0.06954 0.92827 0.0
C1716 C 0.05811 0.04554 0.92502 0.0
C1717 C 0.05166 0.03777 0.90015 0.0
C1718 C 0.05606 0.05347 0.87903 0.0
C1719 C 0.05111 0.03923 0.85409 0.0
C1720 C 0.02868 0.05138 0.83914 0.0
C1721 C 0.07561 0.03794 0.83747 0.0
C1722 C 0.0439 0.01299 0.86442 0.0
C1723 C 0.04387 0.01252 0.891 0.0
C1724 C 0.03933 0.98979 0.90467 0.0
C1725 C 0.03497 0.96695 0.89074 0.0
C1726 C 0.03568 0.96704 0.8635 0.0
C1727 C 0.03963 0.99052 0.85035 0.0
H1728 H 0.60939 0.93582 0.46413 0.0
H1729 H 0.67188 0.98419 0.49057 0.0
H1730 H 0.65747 0.97869 0.53553 0.0
H1731 H 0.56138 0.95576 0.51752 0.0
H1732 H 0.54883 0.92342 0.51778 0.0
H1733 H 0.56113 0.9373 0.48833 0.0
H1734 H 0.59214 0.89703 0.48443 0.0
H1735 H 0.57979 0.88476 0.51435 0.0
H1736 H 0.61378 0.89043 0.51068 0.0
H1737 H 0.64289 0.96029 0.57676 0.0
H1738 H 0.62603 0.93393 0.61227 0.0
H1739 H 0.57111 0.89874 0.55997 0.0
C1740 C 0.6192 0.94609 0.47941 0.0
C1741 C 0.64146 0.96061 0.4742 0.0
C1742 C 0.6546 0.97319 0.49446 0.0
C1743 C 0.64654 0.9702 0.51996 0.0
C1744 C 0.6252 0.95474 0.52475 0.0
C1745 C 0.61134 0.94331 0.50506 0.0
C1746 C 0.59082 0.92556 0.51567 0.0
C1747 C 0.56392 0.93609 0.50948 0.0
C1748 C 0.59434 0.89782 0.50569 0.0
C1749 C 0.59648 0.92742 0.5442 0.0
C1750 C 0.61616 0.94463 0.54902 0.0
C1751 C 0.62685 0.94742 0.57342 0.0
C1752 C 0.61705 0.9324 0.59352 0.0
C1753 C 0.59693 0.91452 0.58906 0.0
C1754 C 0.5863 0.91241 0.56409 0.0
H1755 H 0.89229 0.11382 0.06742 0.0
H1756 H 0.90996 0.04075 0.10342 0.0
H1757 H 0.9006 0.01817 0.0622 0.0
H1758 H 0.8376 0.08989 0.03416 0.0
H1759 H 0.84204 0.11084 0.00685 0.0
H1760 H 0.8532 0.12066 0.03814 0.0
H1761 H 0.89894 0.12745 0.01927 0.0
H1762 H 0.88799 0.11707 0.98802 0.0
H1763 H 0.91481 0.10112 0.00313 0.0
H1764 H 0.88929 0.00436 0.01626 0.0
H1765 H 0.86904 -0.00072 0.97324 0.0
H1766 H 0.85459 0.08144 0.9705 0.0
C1767 C 0.8945 0.09308 0.06645 0.0
C1768 C 0.90294 0.07892 0.08795 0.0
C1769 C 0.90448 0.05179 0.08664 0.0
C1770 C 0.89919 0.03895 0.0634 0.0
C1771 C 0.89159 0.05364 0.04218 0.0
C1772 C 0.88856 0.08006 0.04384 0.0
C1773 C 0.8772 0.09127 0.01958 0.0
C1774 C 0.85096 0.10389 0.02501 0.0
C1775 C 0.89586 0.11035 0.00676 0.0
C1776 C 0.87433 0.06706 0.00383 0.0
C1777 C 0.88325 0.04559 0.01683 0.0
C1778 C 0.88219 0.02103 0.00596 0.0
C1779 C 0.87085 0.01833 0.98156 0.0
C1780 C 0.86038 0.04001 0.96882 0.0
C1781 C 0.86258 0.06463 0.97991 0.0
H1782 H 0.12349 0.57693 0.52956 0.0
H1783 H 0.14094 0.49652 0.51576 0.0
H1784 H 0.12784 0.50144 0.47013 0.0
H1785 H 0.0677 0.58179 0.4816 0.0
H1786 H 0.07728 0.61447 0.47541 0.0
H1787 H 0.08262 0.60074 0.50684 0.0
H1788 H 0.13087 0.6144 0.50061 0.0
H1789 H 0.12495 0.62492 0.46815 0.0
H1790 H 0.14886 0.60057 0.47434 0.0
H1791 H 0.1198 0.51753 0.42448 0.0
H1792 H 0.10812 0.54103 0.38446 0.0
H1793 H 0.09763 0.61081 0.42926 0.0
C1794 C 0.12357 0.56018 0.51709 0.0
C1795 C 0.13292 0.53633 0.52596 0.0
C1796 C 0.13335 0.51482 0.50923 0.0
C1797 C 0.12621 0.51752 0.48329 0.0
C1798 C 0.11847 0.54176 0.4747 0.0
C1799 C 0.1164 0.56253 0.49132 0.0
C1800 C 0.10905 0.58686 0.47717 0.0
C1801 C 0.08258 0.59655 0.48585 0.0
C1802 C 0.12968 0.60791 0.48025 0.0
C1803 C 0.10793 0.57672 0.44997 0.0
C1804 C 0.11342 0.55074 0.44877 0.0
C1805 C 0.11447 0.53765 0.4253 0.0
C1806 C 0.10816 0.55116 0.4027 0.0
C1807 C 0.10139 0.57753 0.40389 0.0
C1808 C 0.10189 0.59043 0.42781 0.0
H1809 H 0.38585 0.42988 0.03409 0.0
H1810 H 0.3423 0.49782 0.0136 0.0
H1811 H 0.3568 0.49359 0.96847 0.0
H1812 H 0.44096 0.44164 0.98702 0.0
H1813 H 0.44397 0.40808 0.97849 0.0
H1814 H 0.43496 0.41685 0.01063 0.0
H1815 H 0.39373 0.39065 0.00973 0.0
H1816 H 0.4023 0.37923 0.97825 0.0
H1817 H 0.37156 0.39444 0.98329 0.0
H1818 H 0.36576 0.47503 0.92523 0.0
H1819 H 0.37402 0.44768 0.88784 0.0
H1820 H 0.41867 0.39594 0.93648 0.0
C1821 C 0.38082 0.44474 0.02043 0.0
C1822 C 0.36371 0.46462 0.02727 0.0
C1823 C 0.35601 0.4829 0.00864 0.0
C1824 C 0.3641 0.4806 0.98303 0.0
C1825 C 0.38028 0.46021 0.97658 0.0
C1826 C 0.38931 0.44306 0.99492 0.0
C1827 C 0.40422 0.4213 0.98247 0.0
C1828 C 0.43273 0.4221 0.99009 0.0
C1829 C 0.39221 0.39487 0.98881 0.0
C1830 C 0.40075 0.42808 0.9544 0.0
C1831 C 0.38687 0.45048 0.95132 0.0
C1832 C 0.37764 0.45804 0.9273 0.0
C1833 C 0.38258 0.44221 0.90598 0.0
C1834 C 0.39698 0.41909 0.90866 0.0
C1835 C 0.40701 0.41284 0.93324 0.0
H1836 H 0.57599 0.57487 0.9438 0.0
H1837 H 0.58802 0.61877 0.87368 0.0
H1838 H 0.54489 0.63745 0.87757 0.0
H1839 H 0.50929 0.56191 0.93451 0.0
H1840 H 0.49875 0.56705 0.9672 0.0
H1841 H 0.53104 0.55611 0.96084 0.0
H1842 H 0.5507 0.59388 0.98522 0.0
H1843 H 0.51905 0.60527 0.99334 0.0
H1844 H 0.54144 0.62647 0.97739 0.0
H1845 H 0.50166 0.64949 0.88627 0.0
H1846 H 0.46145 0.66431 0.90554 0.0
H1847 H 0.47515 0.61606 0.97248 0.0
C1848 C 0.56949 0.58877 0.92968 0.0
C1849 C 0.58502 0.5955 0.90835 0.0
C1850 C 0.57621 0.6136 0.89009 0.0
C1851 C 0.55171 0.62404 0.89198 0.0
C1852 C 0.5364 0.6165 0.91252 0.0
C1853 C 0.54498 0.60008 0.93162 0.0
C1854 C 0.52451 0.59693 0.95237 0.0
C1855 C 0.51533 0.56882 0.95383 0.0
C1856 C 0.53453 0.60623 0.97863 0.0
C1857 C 0.5035 0.61459 0.94189 0.0
C1858 C 0.51085 0.62482 0.91847 0.0
C1859 C 0.49563 0.64187 0.90469 0.0
C1860 C 0.47278 0.65009 0.91576 0.0
C1861 C 0.46533 0.64146 0.94047 0.0
C1862 C 0.48039 0.62275 0.95345 0.0
H1863 H 0.9787 0.84079 0.07879 0.0
H1864 H 0.95947 0.8874 0.01196 0.0
H1865 H -0.00036 0.91206 0.01798 0.0
H1866 H 0.01346 0.88695 0.11632 0.0
H1867 H 0.03727 0.8636 0.12594 0.0
H1868 H 0.00496 0.85336 0.11885 0.0
H1869 H 0.02287 0.82086 0.08538 0.0
H1870 H 0.0552 0.8314 0.09189 0.0
H1871 H 0.04284 0.8324 0.05948 0.0
H1872 H 0.04343 0.93086 0.03157 0.0
H1873 H 0.08645 0.94033 0.05019 0.0
H1874 H 0.07884 0.87503 0.10135 0.0
C1875 C 0.9828 0.85594 0.06509 0.0
C1876 C 0.96591 0.86171 0.04464 0.0
C1877 C 0.97187 0.88257 0.02797 0.0
C1878 C 0.99479 0.8966 0.03109 0.0
C1879 C 0.01167 0.88914 0.05057 0.0
C1880 C 0.00589 0.86915 0.06712 0.0
C1881 C 0.02797 0.86283 0.08479 0.0
C1882 C 0.02046 0.86695 0.11315 0.0
C1883 C 0.0378 0.83524 0.08009 0.0
C1884 C 0.04719 0.88257 0.07585 0.0
C1885 C 0.03745 0.89794 0.0564 0.0
C1886 C 0.05146 0.91854 0.04632 0.0
C1887 C 0.07589 0.92362 0.0567 0.0
C1888 C 0.08606 0.90764 0.07623 0.0
C1889 C 0.07166 0.88683 0.08571 0.0
H1890 H 0.41972 0.11359 0.6054 0.0
H1891 H 0.40975 0.05018 0.55223 0.0
H1892 H 0.4523 0.05986 0.53267 0.0
H1893 H 0.45316 0.15726 0.5634 0.0
H1894 H 0.47414 0.16854 0.58865 0.0
H1895 H 0.44242 0.15711 0.59641 0.0
H1896 H 0.46267 0.12537 0.62861 0.0
H1897 H 0.49487 0.13491 0.62008 0.0
H1898 H 0.48528 0.10163 0.6175 0.0
H1899 H 0.49636 0.07791 0.51898 0.0
H1900 H 0.5362 0.10296 0.51162 0.0
H1901 H 0.51808 0.15063 0.57787 0.0
C1902 C 0.42636 0.10213 0.58927 0.0
C1903 C 0.41136 0.08182 0.57951 0.0
C1904 C 0.42078 0.06645 0.55914 0.0
C1905 C 0.445 0.07161 0.54825 0.0
C1906 C 0.4596 0.09171 0.55858 0.0
C1907 C 0.45055 0.10664 0.5787 0.0
C1908 C 0.46997 0.12654 0.58706 0.0
C1909 C 0.45928 0.15398 0.58366 0.0
C1910 C 0.47873 0.12183 0.61496 0.0
C1911 C 0.49124 0.121 0.56813 0.0
C1912 C 0.48509 0.10088 0.55182 0.0
C1913 C 0.50141 0.09357 0.53179 0.0
C1914 C 0.52409 0.10783 0.52785 0.0
C1915 C 0.53017 0.12909 0.54391 0.0
C1916 C 0.51383 0.13494 0.5648 0.0
H1917 H 0.92388 0.38398 0.38357 0.0
H1918 H 0.90984 0.44467 0.43892 0.0
H1919 H 0.95207 0.43579 0.45955 0.0
H1920 H 0.95499 0.34005 0.42548 0.0
H1921 H 0.97757 0.32936 0.40144 0.0
H1922 H 0.94649 0.3411 0.39183 0.0
H1923 H 0.9688 0.37426 0.36203 0.0
H1924 H 0.00015 0.36354 0.37221 0.0
H1925 H 0.99133 0.39697 0.37547 0.0
H1926 H 0.99573 0.41803 0.47477 0.0
H1927 H 0.0347 0.39227 0.48417 0.0
H1928 H 0.02035 0.34651 0.41565 0.0
C1929 C 0.92975 0.39527 0.40012 0.0
C1930 C 0.9137 0.41454 0.41019 0.0
C1931 C 0.92182 0.42934 0.43154 0.0
C1932 C 0.94583 0.42463 0.44308 0.0
C1933 C 0.96143 0.40543 0.43256 0.0
C1934 C 0.95362 0.39108 0.41149 0.0
C1935 C 0.97344 0.37135 0.40386 0.0
C1936 C 0.96246 0.34385 0.40578 0.0
C1937 C 0.98406 0.37687 0.37678 0.0
C1938 C 0.99343 0.37627 0.42428 0.0
C1939 C 0.98644 0.39605 0.44063 0.0
C1940 C 0.00145 0.40263 0.46193 0.0
C1941 C 0.02362 0.38796 0.46705 0.0
C1942 C 0.03044 0.36699 0.45091 0.0
C1943 C 0.01551 0.36193 0.4288 0.0
H1944 H 0.21385 0.44671 0.2638 0.0
H1945 H 0.27033 0.39232 0.23509 0.0
H1946 H 0.2611 0.36301 0.27103 0.0
H1947 H 0.22682 0.43474 0.33287 0.0
H1948 H 0.1935 0.43728 0.34201 0.0
H1949 H 0.20543 0.45527 0.31484 0.0
H1950 H 0.17047 0.43477 0.28583 0.0
H1951 H 0.15847 0.41663 0.31282 0.0
H1952 H 0.16806 0.40016 0.28382 0.0
H1953 H 0.24374 0.33794 0.30639 0.0
H1954 H 0.22012 0.31882 0.34292 0.0
H1955 H 0.17601 0.38934 0.35107 0.0
C1956 C 0.22422 0.42869 0.26539 0.0
C1957 C 0.2426 0.42143 0.24689 0.0
C1958 C 0.25604 0.39786 0.24925 0.0
C1959 C 0.25105 0.38119 0.26954 0.0
C1960 C 0.23265 0.3885 0.28739 0.0
C1961 C 0.21953 0.41168 0.28583 0.0
C1962 C 0.20017 0.41404 0.30747 0.0
C1963 C 0.2069 0.43667 0.32536 0.0
C1964 C 0.17267 0.41654 0.29684 0.0
C1965 C 0.20419 0.38835 0.32078 0.0
C1966 C 0.22303 0.37402 0.30878 0.0
C1967 C 0.22916 0.34902 0.31631 0.0
C1968 C 0.2156 0.33827 0.33685 0.0
C1969 C 0.19651 0.35274 0.34964 0.0
C1970 C 0.19085 0.37812 0.34169 0.0
H1971 H 0.32457 0.62324 0.8418 0.0
H1972 H 0.25472 0.66211 0.86563 0.0
H1973 H 0.22974 0.63617 0.83451 0.0
H1974 H 0.3133 0.61832 0.77657 0.0
H1975 H 0.32519 0.58592 0.77258 0.0
H1976 H 0.33721 0.60568 0.79834 0.0
H1977 H 0.32429 0.5706 0.83134 0.0
H1978 H 0.31208 0.55073 0.80558 0.0
H1979 H 0.29157 0.5592 0.8322 0.0
H1980 H 0.2132 0.60938 0.79943 0.0
H1981 H 0.20557 0.5841 0.76016 0.0
H1982 H 0.28583 0.56156 0.75835 0.0
C1983 C 0.30402 0.62622 0.84031 0.0
C1984 C 0.29144 0.64484 0.85563 0.0
C1985 C 0.26454 0.64797 0.85385 0.0
C1986 C 0.25024 0.63323 0.83643 0.0
C1987 C 0.26314 0.61498 0.8216 0.0
C1988 C 0.28935 0.61117 0.82346 0.0
C1989 C 0.29838 0.59063 0.80473 0.0
C1990 C 0.31977 0.60078 0.78699 0.0
C1991 C 0.3071 0.56636 0.81933 0.0
C1992 C 0.2736 0.58555 0.79022 0.0
C1993 C 0.25338 0.59903 0.80113 0.0
C1994 C 0.2287 0.59835 0.79098 0.0
C1995 C 0.22456 0.5839 0.76875 0.0
C1996 C 0.24507 0.57067 0.75667 0.0
C1997 C 0.26987 0.57123 0.7676 0.0
H1998 H 0.69249 0.1075 0.63163 0.0
H1999 H 0.71652 0.18407 0.65517 0.0
H2000 H 0.73626 0.16573 0.69433 0.0
H2001 H 0.67364 0.0871 0.69314 0.0
H2002 H 0.68421 0.05421 0.68965 0.0
H2003 H 0.67489 0.07245 0.66168 0.0
H2004 H 0.71914 0.06343 0.64066 0.0
H2005 H 0.72845 0.04491 0.6685 0.0
H2006 H 0.74815 0.07146 0.65791 0.0
H2007 H 0.74995 0.14073 0.73152 0.0
H2008 H 0.75796 0.1097 0.76626 0.0
H2009 H 0.72438 0.04844 0.72032 0.0
C2010 C 0.70248 0.12025 0.64478 0.0
C2011 C 0.7033 0.14714 0.64046 0.0
C2012 C 0.71582 0.16344 0.65826 0.0
C2013 C 0.72712 0.15319 0.68042 0.0
C2014 C 0.72541 0.12671 0.68448 0.0
C2015 C 0.71349 0.11036 0.66725 0.0
C2016 C 0.71258 0.08293 0.67747 0.0
C2017 C 0.68467 0.07364 0.68067 0.0
C2018 C 0.72801 0.0646 0.6601 0.0
C2019 C 0.72555 0.0866 0.70334 0.0
C2020 C 0.73287 0.11204 0.70671 0.0
C2021 C 0.74437 0.12078 0.72917 0.0
C2022 C 0.74856 0.1031 0.74883 0.0
C2023 C 0.74118 0.07699 0.74602 0.0
C2024 C 0.7298 0.06842 0.72291 0.0
H2025 H 0.77644 0.83713 0.16235 0.0
H2026 H 0.82088 0.89608 0.12343 0.0
H2027 H 0.81235 0.92649 0.15904 0.0
H2028 H 0.72752 0.88305 0.18565 0.0
H2029 H 0.72244 0.86565 0.21524 0.0
H2030 H 0.7319 0.84861 0.18654 0.0
H2031 H 0.77104 0.82949 0.21085 0.0
H2032 H 0.7618 0.84658 0.23954 0.0
H2033 H 0.79357 0.85091 0.22637 0.0
H2034 H 0.7998 0.95018 0.19958 0.0
H2035 H 0.78184 0.96566 0.24129 0.0
H2036 H 0.74519 0.89153 0.25245 0.0
C2037 C 0.78422 0.85647 0.16143 0.0
C2038 C 0.7993 0.86445 0.14045 0.0
C2039 C 0.80907 0.88989 0.13947 0.0
C2040 C 0.80443 0.90721 0.15956 0.0
C2041 C 0.78953 0.89886 0.18015 0.0
C2042 C 0.77918 0.87426 0.18102 0.0
C2043 C 0.76301 0.8705 0.20484 0.0
C2044 C 0.73454 0.86673 0.19764 0.0
C2045 C 0.77298 0.84804 0.22137 0.0
C2046 C 0.76723 0.89618 0.21788 0.0
C2047 C 0.78222 0.91251 0.20325 0.0
C2048 C 0.78809 0.93756 0.21129 0.0
C2049 C 0.77805 0.94614 0.23491 0.0
C2050 C 0.76288 0.92942 0.25 0.0
C2051 C 0.75744 0.90428 0.24138 0.0
H2052 H 0.36191 0.21839 0.37669 0.0
H2053 H 0.31982 0.16935 0.32351 0.0
H2054 H 0.28031 0.17628 0.34848 0.0
H2055 H 0.32725 0.19982 0.43509 0.0
H2056 H 0.32678 0.23196 0.44825 0.0
H2057 H 0.3528 0.22205 0.42757 0.0
H2058 H 0.34391 0.26041 0.39694 0.0
H2059 H 0.31843 0.27078 0.41793 0.0
H2060 H 0.31193 0.26501 0.38432 0.0
H2061 H 0.24583 0.18813 0.37775 0.0
H2062 H 0.21523 0.21206 0.4038 0.0
H2063 H 0.27816 0.25456 0.43924 0.0
C2064 C 0.34433 0.20918 0.37032 0.0
C2065 C 0.34394 0.19313 0.34827 0.0
C2066 C 0.32058 0.18166 0.34034 0.0
C2067 C 0.2981 0.1852 0.35458 0.0
C2068 C 0.29926 0.2004 0.37662 0.0
C2069 C 0.32152 0.21276 0.38419 0.0
C2070 C 0.31666 0.22991 0.40739 0.0
C2071 C 0.33177 0.22035 0.43097 0.0
C2072 C 0.3231 0.2582 0.40126 0.0
C2073 C 0.28794 0.22587 0.41092 0.0
C2074 C 0.27868 0.20809 0.39345 0.0
C2075 C 0.25277 0.20198 0.3917 0.0
C2076 C 0.23547 0.21561 0.407 0.0
C2077 C 0.24404 0.23546 0.42375 0.0
C2078 C 0.27085 0.23968 0.42658 0.0
H2079 H 0.16084 0.827 0.8619 0.0
H2080 H 0.11354 0.75814 0.85922 0.0
H2081 H 0.14325 0.73649 0.8893 0.0
H2082 H 0.22093 0.79707 0.86256 0.0
H2083 H 0.23549 0.81918 0.88503 0.0
H2084 H 0.20929 0.82971 0.86508 0.0
H2085 H 0.18428 0.84359 0.90605 0.0
H2086 H 0.21032 0.83248 0.92613 0.0
H2087 H 0.17825 0.8203 0.93106 0.0
H2088 H 0.17923 0.7213 0.91651 0.0
H2089 H 0.22141 0.71167 0.93506 0.0
H2090 H 0.24532 0.79083 0.92213 0.0
C2091 C 0.1568 0.80736 0.86764 0.0
C2092 C 0.135 0.79415 0.85816 0.0
C2093 C 0.13015 0.76857 0.86628 0.0
C2094 C 0.14677 0.75621 0.88353 0.0
C2095 C 0.16788 0.76987 0.89283 0.0
C2096 C 0.17301 0.79484 0.88516 0.0
C2097 C 0.19778 0.80463 0.89704 0.0
C2098 C 0.217 0.81313 0.87617 0.0
C2099 C 0.19233 0.82655 0.9162 0.0
C2100 C 0.20674 0.7806 0.91095 0.0
C2101 C 0.18874 0.7611 0.90898 0.0
C2102 C 0.1933 0.73653 0.9186 0.0
C2103 C 0.21739 0.73133 0.92937 0.0
C2104 C 0.23681 0.75055 0.93023 0.0
C2105 C 0.23091 0.77578 0.92183 0.0
H2106 H 0.75924 0.28308 0.55645 0.0
H2107 H 0.74352 0.21019 0.59429 0.0
H2108 H 0.77947 0.21743 0.62402 0.0
H2109 H 0.83096 0.27791 0.56372 0.0
H2110 H 0.83492 0.31198 0.56913 0.0
H2111 H 0.80912 0.30047 0.54898 0.0
H2112 H 0.77631 0.32489 0.57733 0.0
H2113 H 0.80195 0.33628 0.59766 0.0
H2114 H 0.77537 0.3188 0.61151 0.0
H2115 H 0.81466 0.23238 0.65086 0.0
H2116 H 0.84955 0.25518 0.67393 0.0
H2117 H 0.84331 0.319 0.62045 0.0
C2118 C 0.76383 0.2686 0.57074 0.0
C2119 C 0.74905 0.24591 0.57298 0.0
C2120 C 0.7551 0.22743 0.59209 0.0
C2121 C 0.77538 0.23137 0.60908 0.0
C2122 C 0.7896 0.25383 0.60664 0.0
C2123 C 0.78446 0.27211 0.5879 0.0
C2124 C 0.8028 0.29475 0.59031 0.0
C2125 C 0.8205 0.29637 0.56663 0.0
C2126 C 0.78822 0.32018 0.59447 0.0
C2127 C 0.81776 0.28682 0.61417 0.0
C2128 C 0.81009 0.26287 0.62282 0.0
C2129 C 0.82101 0.25112 0.64433 0.0
C2130 C 0.84062 0.26414 0.65735 0.0
C2131 C 0.84849 0.28874 0.64905 0.0
C2132 C 0.83703 0.3003 0.62727 0.0
H2133 H 0.65797 0.66993 0.12876 0.0
H2134 H 0.61933 0.74221 0.14539 0.0
H2135 H 0.64868 0.76479 0.11578 0.0
H2136 H 0.72109 0.69334 0.12647 0.0
H2137 H 0.73105 0.67347 0.09978 0.0
H2138 H 0.70557 0.6628 0.12058 0.0
H2139 H 0.67589 0.65778 0.08072 0.0
H2140 H 0.70123 0.66915 0.05993 0.0
H2141 H 0.67045 0.68504 0.05996 0.0
H2142 H 0.68181 0.7797 0.08602 0.0
H2143 H 0.72261 0.78828 0.06425 0.0
H2144 H 0.74178 0.70693 0.06733 0.0
C2145 C 0.65582 0.69053 0.12623 0.0
C2146 C 0.6364 0.70439 0.13928 0.0
C2147 C 0.63401 0.73126 0.13544 0.0
C2148 C 0.65038 0.74419 0.11847 0.0
C2149 C 0.6688 0.72988 0.10532 0.0
C2150 C 0.67192 0.70375 0.10919 0.0
C2151 C 0.69442 0.69342 0.09375 0.0
C2152 C 0.71421 0.67999 0.1112 0.0
C2153 C 0.68493 0.67527 0.07233 0.0
C2154 C 0.70476 0.71829 0.08247 0.0
C2155 C 0.6888 0.73876 0.08838 0.0
C2156 C 0.69436 0.76385 0.081 0.0
C2157 C 0.71755 0.76846 0.06842 0.0
C2158 C 0.73523 0.74818 0.06389 0.0
C2159 C 0.7284 0.72263 0.07028 0.0
H2160 H 0.41178 0.27475 0.27104 0.0
H2161 H 0.44793 0.24458 0.20208 0.0
H2162 H 0.42846 0.27998 0.17676 0.0
H2163 H 0.35446 0.28747 0.24418 0.0
H2164 H 0.34752 0.31654 0.26185 0.0
H2165 H 0.3683 0.29253 0.27561 0.0
H2166 H 0.40473 0.32603 0.28121 0.0
H2167 H 0.38381 0.3505 0.26828 0.0
H2168 H 0.41492 0.34501 0.25399 0.0
H2169 H 0.39904 0.31289 0.1584 0.0
H2170 H 0.3656 0.34488 0.14819 0.0
H2171 H 0.3495 0.35459 0.22957 0.0
C2172 C 0.41674 0.27624 0.25085 0.0
C2173 C 0.43171 0.25713 0.23851 0.0
C2174 C 0.43666 0.25913 0.21183 0.0
C2175 C 0.42571 0.27915 0.19739 0.0
C2176 C 0.41001 0.29691 0.21004 0.0
C2177 C 0.40593 0.29593 0.23627 0.0
C2178 C 0.38611 0.31549 0.24488 0.0
C2179 C 0.36273 0.3022 0.25735 0.0
C2180 C 0.39812 0.33545 0.26316 0.0
C2181 C 0.37914 0.3273 0.21923 0.0
C2182 C 0.39312 0.31623 0.19942 0.0
C2183 C 0.38838 0.32207 0.17375 0.0
C2184 C 0.36911 0.33997 0.16816 0.0
C2185 C 0.35503 0.352 0.18814 0.0
C2186 C 0.3602 0.34574 0.21401 0.0
H2187 H 0.8538 0.16339 0.8227 0.0
H2188 H 0.85463 0.11623 0.75367 0.0
H2189 H 0.8887 0.14381 0.73535 0.0
H2190 H 0.86134 0.22334 0.79307 0.0
H2191 H 0.88211 0.23641 0.81762 0.0
H2192 H 0.85949 0.21153 0.82568 0.0
H2193 H 0.89708 0.18402 0.84383 0.0
H2194 H 0.91989 0.20864 0.83493 0.0
H2195 H 0.92389 0.17616 0.82332 0.0
H2196 H 0.92004 0.17748 0.72349 0.0
H2197 H 0.94051 0.21907 0.71528 0.0
H2198 H 0.92115 0.24426 0.79263 0.0
C2199 C 0.86101 0.15902 0.80364 0.0
C2200 C 0.85149 0.13783 0.78948 0.0
C2201 C 0.86162 0.13248 0.76476 0.0
C2202 C 0.8812 0.14778 0.75437 0.0
C2203 C 0.89069 0.16807 0.76915 0.0
C2204 C 0.88078 0.1739 0.79312 0.0
C2205 C 0.89314 0.19789 0.80419 0.0
C2206 C 0.87281 0.2185 0.81048 0.0
C2207 C 0.90946 0.19127 0.82798 0.0
C2208 C 0.91003 0.20577 0.78182 0.0
C2209 C 0.90911 0.1877 0.76227 0.0
C2210 C 0.92127 0.19161 0.73878 0.0
C2211 C 0.93314 0.21536 0.73442 0.0
C2212 C 0.93241 0.2351 0.75335 0.0
C2213 C 0.92204 0.22956 0.77786 0.0
H2214 H 0.57081 0.74762 0.29304 0.0
H2215 H 0.56318 0.76708 0.21218 0.0
H2216 H 0.58525 0.8082 0.21975 0.0
H2217 H 0.56405 0.81837 0.31609 0.0
H2218 H 0.58631 0.81265 0.34204 0.0
H2219 H 0.56528 0.78718 0.33128 0.0
H2220 H 0.60505 0.75798 0.32426 0.0
H2221 H 0.62629 0.78351 0.33405 0.0
H2222 H 0.63034 0.76854 0.30297 0.0
H2223 H 0.61509 0.84228 0.23372 0.0
H2224 H 0.64479 0.87229 0.25544 0.0
H2225 H 0.63244 0.83211 0.32773 0.0
C2226 C 0.57281 0.76114 0.27729 0.0
C2227 C 0.56506 0.7544 0.25215 0.0
C2228 C 0.56843 0.77218 0.23172 0.0
C2229 C 0.58114 0.79551 0.23576 0.0
C2230 C 0.58978 0.80104 0.26047 0.0
C2231 C 0.58499 0.7849 0.28113 0.0
C2232 C 0.59759 0.79504 0.30541 0.0
C2233 C 0.57709 0.80383 0.32486 0.0
C2234 C 0.61591 0.77507 0.31735 0.0
C2235 C 0.61207 0.8179 0.29456 0.0
C2236 C 0.60689 0.82125 0.2687 0.0
C2237 C 0.61883 0.84031 0.25412 0.0
C2238 C 0.63584 0.85707 0.26656 0.0
C2239 C 0.64086 0.85447 0.29322 0.0
C2240 C 0.62905 0.83443 0.30729 0.0
H2241 H 0.05043 0.72708 0.71789 0.0
H2242 H 0.11047 0.76402 0.76274 0.0
H2243 H 0.13981 0.72815 0.75356 0.0
H2244 H 0.06663 0.66083 0.73667 0.0
H2245 H 0.06036 0.64745 0.70525 0.0
H2246 H 0.04308 0.6756 0.71589 0.0
H2247 H 0.05811 0.70036 0.67536 0.0
H2248 H 0.07542 0.67232 0.66457 0.0
H2249 H 0.09198 0.7026 0.66835 0.0
H2250 H 0.16352 0.69117 0.73809 0.0
H2251 H 0.18089 0.65217 0.71735 0.0
H2252 H 0.1062 0.6369 0.6832 0.0
C2253 C 0.06977 0.7274 0.72562 0.0
C2254 C 0.07856 0.7483 0.74059 0.0
C2255 C 0.10378 0.74823 0.7508 0.0
C2256 C 0.12048 0.72795 0.74587 0.0
C2257 C 0.11162 0.70777 0.73079 0.0
C2258 C 0.08694 0.70708 0.72081 0.0
C2259 C 0.083 0.68301 0.70468 0.0
C2260 C 0.06202 0.6657 0.71633 0.0
C2261 C 0.07677 0.69 0.67657 0.0
C2262 C 0.10941 0.67075 0.70705 0.0
C2263 C 0.12549 0.68549 0.72223 0.0
C2264 C 0.15116 0.67919 0.72634 0.0
C2265 C 0.16088 0.65715 0.71444 0.0
C2266 C 0.14482 0.64163 0.69892 0.0
C2267 C 0.11871 0.64834 0.69536 0.0
H2268 H 0.76248 0.60464 0.75599 0.0
H2269 H 0.7611 0.52608 0.72782 0.0
H2270 H 0.77743 0.54115 0.68547 0.0
H2271 H 0.73744 0.63099 0.69941 0.0
H2272 H 0.75529 0.66069 0.70147 0.0
H2273 H 0.74715 0.64334 0.73036 0.0
H2274 H 0.79519 0.64136 0.74354 0.0
H2275 H 0.80348 0.65926 0.71503 0.0
H2276 H 0.81846 0.62855 0.72122 0.0
H2277 H 0.79011 0.56577 0.64547 0.0
H2278 H 0.80105 0.59715 0.61154 0.0
H2279 H 0.79239 0.65978 0.66628 0.0
C2280 C 0.76668 0.59048 0.74124 0.0
C2281 C 0.76147 0.56414 0.74522 0.0
C2282 C 0.76574 0.54625 0.72515 0.0
C2283 C 0.77476 0.55469 0.70109 0.0
C2284 C 0.77886 0.58105 0.69755 0.0
C2285 C 0.77505 0.59862 0.71715 0.0
C2286 C 0.7785 0.62604 0.70798 0.0
C2287 C 0.75309 0.64114 0.70992 0.0
C2288 C 0.80022 0.63959 0.72282 0.0
C2289 C 0.78568 0.62126 0.68024 0.0
C2290 C 0.78545 0.59521 0.6745 0.0
C2291 C 0.79053 0.58617 0.64981 0.0
C2292 C 0.79654 0.60418 0.63065 0.0
C2293 C 0.79759 0.6309 0.63635 0.0
C2294 C 0.79186 0.63948 0.66143 0.0
H2295 H 0.70766 0.38119 0.1295 0.0
H2296 H 0.67203 0.31806 0.17137 0.0
H2297 H 0.6783 0.34143 0.21194 0.0
H2298 H 0.75684 0.39341 0.17627 0.0
H2299 H 0.75649 0.42789 0.17203 0.0
H2300 H 0.74738 0.40715 0.14581 0.0
H2301 H 0.70405 0.43155 0.14244 0.0
H2302 H 0.71284 0.45179 0.16927 0.0
H2303 H 0.68338 0.43353 0.17022 0.0
H2304 H 0.68675 0.37052 0.24722 0.0
H2305 H 0.70853 0.39814 0.27819 0.0
H2306 H 0.74181 0.44262 0.21555 0.0
C2307 C 0.70126 0.37233 0.14725 0.0
C2308 C 0.68898 0.34796 0.14727 0.0
C2309 C 0.68125 0.33677 0.17086 0.0
C2310 C 0.68442 0.35003 0.19398 0.0
C2311 C 0.69555 0.37437 0.19325 0.0
C2312 C 0.70466 0.38518 0.17075 0.0
C2313 C 0.71828 0.41054 0.17614 0.0
C2314 C 0.74642 0.40967 0.16704 0.0
C2315 C 0.70377 0.43319 0.16378 0.0
C2316 C 0.71627 0.41147 0.20531 0.0
C2317 C 0.70203 0.39094 0.21441 0.0
C2318 C 0.69791 0.38677 0.24046 0.0
C2319 C 0.71019 0.40292 0.25797 0.0
C2320 C 0.72697 0.42266 0.24939 0.0
C2321 C 0.72904 0.42776 0.22266 0.0
H2322 H 0.25162 0.94423 0.28074 0.0
H2323 H 0.26257 0.88841 0.21936 0.0
H2324 H 0.27845 0.85688 0.25049 0.0
H2325 H 0.31082 0.92295 0.3175 0.0
H2326 H 0.29575 0.92883 0.34819 0.0
H2327 H 0.28721 0.94816 0.32066 0.0
H2328 H 0.23947 0.93613 0.32777 0.0
H2329 H 0.24788 0.91604 0.35475 0.0
H2330 H 0.2301 0.90267 0.3281 0.0
H2331 H 0.28706 0.82955 0.28735 0.0
H2332 H 0.29899 0.80982 0.32868 0.0
H2333 H 0.28575 0.88291 0.36734 0.0
C2334 C 0.25825 0.92567 0.27391 0.0
C2335 C 0.2562 0.91886 0.24763 0.0
C2336 C 0.26458 0.89427 0.23929 0.0
C2337 C 0.27329 0.87604 0.25686 0.0
C2338 C 0.27404 0.88283 0.28267 0.0
C2339 C 0.26776 0.90725 0.29124 0.0
C2340 C 0.27101 0.90918 0.32022 0.0
C2341 C 0.29247 0.92842 0.32704 0.0
C2342 C 0.24559 0.91642 0.33348 0.0
C2343 C 0.27894 0.8817 0.32643 0.0
C2344 C 0.28031 0.86694 0.30437 0.0
C2345 C 0.28666 0.84093 0.30481 0.0
C2346 C 0.29324 0.82987 0.32837 0.0
C2347 C 0.29357 0.84489 0.35109 0.0
C2348 C 0.28563 0.87097 0.35023 0.0
H2349 H 0.17525 0.14735 0.82461 0.0
H2350 H 0.23326 0.12875 0.88184 0.0
H2351 H 0.2503 0.09475 0.85342 0.0
H2352 H 0.16335 0.08225 0.80309 0.0
H2353 H 0.15983 0.09109 0.76971 0.0
H2354 H 0.15146 0.11376 0.79464 0.0
H2355 H 0.18284 0.14771 0.77559 0.0
H2356 H 0.19041 0.12552 0.7501 0.0
H2357 H 0.2158 0.13875 0.76969 0.0
H2358 H 0.26193 0.0643 0.81868 0.0
H2359 H 0.27265 0.0451 0.77714 0.0
H2360 H 0.20498 0.0806 0.74311 0.0
C2361 C 0.19168 0.13627 0.83107 0.0
C2362 C 0.20289 0.14058 0.85543 0.0
C2363 C 0.22437 0.12572 0.86322 0.0
C2364 C 0.23398 0.10617 0.84737 0.0
C2365 C 0.22178 0.10169 0.82393 0.0
C2366 C 0.20143 0.11659 0.81558 0.0
C2367 C 0.19287 0.10885 0.78884 0.0
C2368 C 0.16524 0.09836 0.7891 0.0
C2369 C 0.19566 0.13155 0.76995 0.0
C2370 C 0.21209 0.08772 0.78318 0.0
C2371 C 0.22828 0.08362 0.80388 0.0
C2372 C 0.2492 0.06705 0.80242 0.0
C2373 C 0.25493 0.0559 0.7786 0.0
C2374 C 0.23982 0.0615 0.75651 0.0
C2375 C 0.2171 0.07614 0.75946 0.0
H2376 H 0.71781 0.72819 0.56813 0.0
H2377 H 0.76059 0.79872 0.55406 0.0
H2378 H 0.72795 0.82305 0.57839 0.0
H2379 H 0.65079 0.76045 0.56671 0.0
H2380 H 0.63984 0.73826 0.59105 0.0
H2381 H 0.66298 0.72795 0.56736 0.0
H2382 H 0.69304 0.71368 0.60437 0.0
H2383 H 0.67086 0.72516 0.62823 0.0
H2384 H 0.70342 0.73706 0.62789 0.0
H2385 H 0.69857 0.83672 0.61345 0.0
H2386 H 0.66654 0.84209 0.64794 0.0
H2387 H 0.64082 0.76333 0.63648 0.0
C2388 C 0.71972 0.74894 0.56867 0.0
C2389 C 0.74215 0.76144 0.5596 0.0
C2390 C 0.7439 0.78862 0.56138 0.0
C2391 C 0.72541 0.80262 0.57509 0.0
C2392 C 0.7049 0.78922 0.58596 0.0
C2393 C 0.70125 0.76318 0.58187 0.0
C2394 C 0.67881 0.75293 0.59741 0.0
C2395 C 0.6568 0.74441 0.57957 0.0
C2396 C 0.68706 0.73092 0.61554 0.0
C2397 C 0.6717 0.77686 0.61234 0.0
C2398 C 0.68695 0.79756 0.6054 0.0
C2399 C 0.6859 0.82094 0.61844 0.0
C2400 C 0.668 0.82362 0.63833 0.0
C2401 C 0.65127 0.80309 0.64479 0.0
C2402 C 0.65332 0.77935 0.63178 0.0
H2403 H 0.77342 0.26594 0.06955 0.0
H2404 H 0.73192 0.19506 0.05338 0.0
H2405 H 0.76591 0.17048 0.07561 0.0
H2406 H 0.84068 0.23639 0.06367 0.0
H2407 H 0.85218 0.25734 0.08886 0.0
H2408 H 0.82745 0.26831 0.06715 0.0
H2409 H 0.79888 0.27892 0.10646 0.0
H2410 H 0.82281 0.26688 0.12832 0.0
H2411 H 0.79074 0.25371 0.12893 0.0
H2412 H 0.79762 0.15569 0.10822 0.0
H2413 H 0.83161 0.14934 0.14071 0.0
H2414 H 0.85479 0.22922 0.1324 0.0
C2415 C 0.77197 0.24515 0.06927 0.0
C2416 C 0.74968 0.23249 0.05998 0.0
C2417 C 0.74852 0.20524 0.06081 0.0
C2418 C 0.76778 0.19112 0.0733 0.0
C2419 C 0.7884 0.2045 0.08406 0.0
C2420 C 0.7912 0.23079 0.08123 0.0
C2421 C 0.81416 0.24082 0.09621 0.0
C2422 C 0.83485 0.25133 0.07787 0.0
C2423 C 0.80614 0.26127 0.11615 0.0
C2424 C 0.82291 0.21625 0.10913 0.0
C2425 C 0.80773 0.19557 0.1019 0.0
C2426 C 0.81019 0.17149 0.11338 0.0
C2427 C 0.82925 0.1682 0.13209 0.0
C2428 C 0.84577 0.1888 0.13886 0.0
C2429 C 0.84254 0.21313 0.12727 0.0
H2430 H 0.15082 0.67336 0.37501 0.0
H2431 H 0.13574 0.7406 0.32787 0.0
H2432 H 0.16873 0.76507 0.35217 0.0
H2433 H 0.16397 0.70581 0.43495 0.0
H2434 H 0.19008 0.68485 0.444 0.0
H2435 H 0.16438 0.67283 0.42404 0.0
H2436 H 0.19721 0.65893 0.38916 0.0
H2437 H 0.22297 0.67042 0.40929 0.0
H2438 H 0.21975 0.68226 0.37682 0.0
H2439 H 0.20118 0.7823 0.38211 0.0
H2440 H 0.23833 0.78995 0.41027 0.0
H2441 H 0.2362 0.71031 0.43565 0.0
C2442 C 0.15464 0.69324 0.36989 0.0
C2443 C 0.1409 0.70543 0.3499 0.0
C2444 C 0.14629 0.7312 0.34321 0.0
C2445 C 0.16473 0.74518 0.35701 0.0
C2446 C 0.17772 0.73279 0.37698 0.0
C2447 C 0.17348 0.70723 0.383 0.0
C2448 C 0.19159 0.69806 0.404 0.0
C2449 C 0.1766 0.68991 0.42818 0.0
C2450 C 0.20891 0.67613 0.39422 0.0
C2451 C 0.2068 0.7225 0.40873 0.0
C2452 C 0.19785 0.74239 0.39338 0.0
C2453 C 0.20841 0.76693 0.39418 0.0
C2454 C 0.22932 0.77111 0.41041 0.0
C2455 C 0.23975 0.75077 0.42529 0.0
C2456 C 0.22824 0.72618 0.42469 0.0
H2457 H 0.24696 0.29244 0.92394 0.0
H2458 H 0.26928 0.21316 0.93824 0.0
H2459 H 0.31105 0.22113 0.91807 0.0
H2460 H 0.26763 0.29741 0.86517 0.0
H2461 H 0.28122 0.32938 0.86576 0.0
H2462 H 0.25631 0.32089 0.88813 0.0
H2463 H 0.28513 0.33319 0.92689 0.0
H2464 H 0.30993 0.3429 0.90465 0.0
H2465 H 0.31694 0.31969 0.92947 0.0
H2466 H 0.34525 0.234 0.88767 0.0
H2467 H 0.37344 0.25379 0.85486 0.0
H2468 H 0.32894 0.32437 0.85912 0.0
C2469 C 0.26116 0.27719 0.92388 0.0
C2470 C 0.25485 0.25228 0.93272 0.0
C2471 C 0.27376 0.23259 0.93209 0.0
C2472 C 0.29758 0.23685 0.92045 0.0
C2473 C 0.30243 0.26103 0.91004 0.0
C2474 C 0.28519 0.2812 0.91245 0.0
C2475 C 0.29409 0.30448 0.89731 0.0
C2476 C 0.27358 0.31354 0.87794 0.0
C2477 C 0.30199 0.32636 0.91567 0.0
C2478 C 0.31733 0.29327 0.88389 0.0
C2479 C 0.32227 0.26845 0.89209 0.0
C2480 C 0.34199 0.25366 0.88154 0.0
C2481 C 0.35765 0.2649 0.86271 0.0
C2482 C 0.35313 0.29045 0.85434 0.0
C2483 C 0.33257 0.30466 0.86492 0.0
H2484 H 0.57436 0.74757 0.79479 0.0
H2485 H 0.54692 0.71837 0.72127 0.0
H2486 H 0.56388 0.67586 0.73167 0.0
H2487 H 0.63203 0.7215 0.79063 0.0
H2488 H 0.63668 0.71263 0.82387 0.0
H2489 H 0.61538 0.73865 0.81579 0.0
H2490 H 0.57752 0.71652 0.83946 0.0
H2491 H 0.59896 0.69084 0.84874 0.0
H2492 H 0.56952 0.68356 0.83193 0.0
H2493 H 0.5923 0.64017 0.74423 0.0
H2494 H 0.62516 0.61094 0.76203 0.0
H2495 H 0.63721 0.66348 0.82598 0.0
C2496 C 0.5711 0.73202 0.78128 0.0
C2497 C 0.55942 0.73665 0.75715 0.0
C2498 C 0.55536 0.71561 0.74012 0.0
C2499 C 0.5652 0.69122 0.74572 0.0
C2500 C 0.57886 0.68803 0.76848 0.0
C2501 C 0.58126 0.70761 0.78638 0.0
C2502 C 0.59978 0.70018 0.80765 0.0
C2503 C 0.62229 0.71938 0.80957 0.0
C2504 C 0.58559 0.69762 0.83347 0.0
C2505 C 0.60866 0.67418 0.79792 0.0
C2506 C 0.59595 0.66734 0.77558 0.0
C2507 C 0.60191 0.64495 0.76209 0.0
C2508 C 0.62078 0.62863 0.77219 0.0
C2509 C 0.63367 0.63498 0.79536 0.0
C2510 C 0.62769 0.65819 0.8082 0.0
H2511 H 0.15485 0.8383 0.21639 0.0
H2512 H 0.09471 0.87789 0.1742 0.0
H2513 H 0.06377 0.84377 0.18602 0.0
H2514 H 0.13764 0.77456 0.20168 0.0
H2515 H 0.14385 0.76187 0.23338 0.0
H2516 H 0.16118 0.78972 0.22222 0.0
H2517 H 0.14597 0.81566 0.26211 0.0
H2518 H 0.12882 0.78775 0.27353 0.0
H2519 H 0.11209 0.81781 0.26907 0.0
H2520 H 0.03977 0.80403 0.20109 0.0
H2521 H 0.02444 0.76309 0.22106 0.0
H2522 H 0.10005 0.75114 0.25389 0.0
C2523 C 0.13514 0.83975 0.20981 0.0
C2524 C 0.12706 0.86049 0.19439 0.0
C2525 C 0.1011 0.86209 0.18624 0.0
C2526 C 0.08344 0.84281 0.19275 0.0
C2527 C 0.09199 0.82241 0.20784 0.0
C2528 C 0.11711 0.82101 0.21665 0.0
C2529 C 0.12123 0.79745 0.23316 0.0
C2530 C 0.14221 0.77987 0.22191 0.0
C2531 C 0.12739 0.80513 0.26112 0.0
C2532 C 0.09495 0.78527 0.23119 0.0
C2533 C 0.07817 0.79996 0.21674 0.0
C2534 C 0.0527 0.79238 0.21253 0.0
C2535 C 0.04417 0.76923 0.22373 0.0
C2536 C 0.06131 0.75428 0.23857 0.0
C2537 C 0.08685 0.76235 0.24225 0.0
H2538 H 0.34138 0.15513 0.72397 0.0
H2539 H 0.39556 0.12463 0.66845 0.0
H2540 H 0.42565 0.16034 0.67794 0.0
H2541 H 0.35153 0.22154 0.71312 0.0
H2542 H 0.34999 0.23056 0.7466 0.0
H2543 H 0.33293 0.20253 0.73544 0.0
H2544 H 0.35651 0.17467 0.76953 0.0
H2545 H 0.37379 0.20264 0.78064 0.0
H2546 H 0.39115 0.17443 0.77033 0.0
H2547 H 0.44878 0.201 0.692 0.0
H2548 H 0.46356 0.24241 0.71143 0.0
H2549 H 0.3954 0.2439 0.75926 0.0
C2550 C 0.35962 0.15607 0.71397 0.0
C2551 C 0.36636 0.13745 0.69552 0.0
C2552 C 0.39036 0.13886 0.68281 0.0
C2553 C 0.40749 0.15901 0.68802 0.0
C2554 C 0.40046 0.17716 0.70643 0.0
C2555 C 0.37726 0.17565 0.71949 0.0
C2556 C 0.37461 0.19722 0.7388 0.0
C2557 C 0.35086 0.21395 0.73313 0.0
C2558 C 0.37398 0.1866 0.76646 0.0
C2559 C 0.39928 0.21168 0.73367 0.0
C2560 C 0.41412 0.19983 0.7151 0.0
C2561 C 0.43744 0.21036 0.70674 0.0
C2562 C 0.44566 0.23376 0.7177 0.0
C2563 C 0.43041 0.24595 0.73656 0.0
C2564 C 0.40721 0.23468 0.74474 0.0
H2565 H 0.8589 0.35518 0.26747 0.0
H2566 H 0.86213 0.33671 0.34885 0.0
H2567 H 0.89607 0.30462 0.34036 0.0
H2568 H 0.86349 0.29068 0.24692 0.0
H2569 H 0.88175 0.29819 0.21841 0.0
H2570 H 0.86043 0.32183 0.23185 0.0
H2571 H 0.89862 0.35397 0.23427 0.0
H2572 H 0.9202 0.32989 0.22171 0.0
H2573 H 0.92714 0.34532 0.25203 0.0
H2574 H 0.92695 0.27251 0.32301 0.0
H2575 H 0.94632 0.2375 0.29719 0.0
H2576 H 0.92202 0.27634 0.22732 0.0
C2577 C 0.86692 0.34444 0.28345 0.0
C2578 C 0.85804 0.34827 0.30875 0.0
C2579 C 0.86858 0.33374 0.32924 0.0
C2580 C 0.88815 0.31583 0.32469 0.0
C2581 C 0.89676 0.31262 0.29953 0.0
C2582 C 0.88612 0.32613 0.27917 0.0
C2583 C 0.89623 0.31658 0.25366 0.0
C2584 C 0.87417 0.30619 0.23674 0.0
C2585 C 0.91146 0.33771 0.2396 0.0
C2586 C 0.91371 0.29519 0.26287 0.0
C2587 C 0.9143 0.29362 0.28941 0.0
C2588 C 0.92694 0.27367 0.30221 0.0
C2589 C 0.93788 0.2539 0.28746 0.0
C2590 C 0.93575 0.25425 0.26031 0.0
C2591 C 0.9247 0.27585 0.24799 0.0
H2592 H 0.1836 0.38826 0.47262 0.0
H2593 H 0.17577 0.32325 0.52465 0.0
H2594 H 0.19042 0.35033 0.56074 0.0
H2595 H 0.2398 0.41756 0.50149 0.0
H2596 H 0.22825 0.45008 0.49764 0.0
H2597 H 0.21837 0.42539 0.47533 0.0
H2598 H 0.17056 0.43554 0.48504 0.0
H2599 H 0.18034 0.46035 0.50723 0.0
H2600 H 0.15936 0.43485 0.51786 0.0
H2601 H 0.20431 0.38403 0.59123 0.0
H2602 H 0.21511 0.42356 0.61525 0.0
H2603 H 0.21373 0.46733 0.54404 0.0
C2604 C 0.1855 0.37966 0.49153 0.0
C2605 C 0.17905 0.35357 0.49583 0.0
C2606 C 0.18091 0.34313 0.52094 0.0
C2607 C 0.1892 0.35834 0.54154 0.0
C2608 C 0.19535 0.38398 0.53674 0.0
C2609 C 0.1934 0.39471 0.51246 0.0
C2610 C 0.19968 0.42324 0.51303 0.0
C2611 C 0.22292 0.42942 0.49585 0.0
C2612 C 0.17608 0.43944 0.50534 0.0
C2613 C 0.20609 0.4266 0.5413 0.0
C2614 C 0.2033 0.4037 0.55457 0.0
C2615 C 0.20688 0.40205 0.58107 0.0
C2616 C 0.21311 0.42454 0.5945 0.0
C2617 C 0.2158 0.44828 0.58139 0.0
C2618 C 0.21259 0.44925 0.5544 0.0
H2619 H 0.27191 0.57123 0.09105 0.0
H2620 H 0.28232 0.50586 0.03993 0.0
H2621 H 0.29926 0.53467 0.00643 0.0
H2622 H 0.25168 0.61642 0.03898 0.0
H2623 H 0.26748 0.64353 0.05386 0.0
H2624 H 0.25478 0.61788 0.07352 0.0
H2625 H 0.29964 0.61195 0.09439 0.0
H2626 H 0.31262 0.6372 0.07448 0.0
H2627 H 0.32709 0.60564 0.07416 0.0
H2628 H 0.31873 0.56868 0.98067 0.0
H2629 H 0.33418 0.608 0.96013 0.0
H2630 H 0.3094 0.65323 0.02579 0.0
C2631 C 0.27697 0.56326 0.07246 0.0
C2632 C 0.27537 0.53652 0.06776 0.0
C2633 C 0.28267 0.52643 0.04354 0.0
C2634 C 0.29263 0.54257 0.02453 0.0
C2635 C 0.29455 0.56874 0.02992 0.0
C2636 C 0.28637 0.57924 0.05293 0.0
C2637 C 0.29046 0.60819 0.05337 0.0
C2638 C 0.26456 0.62235 0.05503 0.0
C2639 C 0.30854 0.6162 0.07541 0.0
C2640 C 0.30294 0.61208 0.02728 0.0
C2641 C 0.30512 0.58893 0.0143 0.0
C2642 C 0.31648 0.58706 0.99025 0.0
C2643 C 0.32503 0.60964 0.9786 0.0
C2644 C 0.32216 0.63381 0.99086 0.0
C2645 C 0.31148 0.63501 0.01583 0.0
H2646 H 0.67508 0.10624 0.51767 0.0
H2647 H 0.68455 0.173 0.46824 0.0
H2648 H 0.70179 0.14522 0.4339 0.0
H2649 H 0.73154 0.06997 0.49661 0.0
H2650 H 0.71506 0.0394 0.49713 0.0
H2651 H 0.70543 0.06471 0.51882 0.0
H2652 H 0.65882 0.06164 0.50157 0.0
H2653 H 0.66834 0.03641 0.47979 0.0
H2654 H 0.65297 0.06499 0.46753 0.0
H2655 H 0.71409 0.11077 0.40387 0.0
H2656 H 0.72175 0.07056 0.37951 0.0
H2657 H 0.70557 0.02577 0.44808 0.0
C2658 C 0.68138 0.11497 0.49981 0.0
C2659 C 0.67884 0.14172 0.49557 0.0
C2660 C 0.68647 0.15252 0.47177 0.0
C2661 C 0.69632 0.13695 0.45222 0.0
C2662 C 0.69826 0.11062 0.45676 0.0
C2663 C 0.69098 0.0996 0.47988 0.0
C2664 C 0.69329 0.0705 0.47888 0.0
C2665 C 0.71249 0.06057 0.49906 0.0
C2666 C 0.66678 0.05764 0.48213 0.0
C2667 C 0.70345 0.06708 0.45175 0.0
C2668 C 0.70591 0.0905 0.43932 0.0
C2669 C 0.71282 0.09231 0.41347 0.0
C2670 C 0.71716 0.0695 0.39984 0.0
C2671 C 0.71499 0.04542 0.41226 0.0
C2672 C 0.70833 0.04414 0.43856 0.0
H2673 H 0.79877 0.88004 0.01813 0.0
H2674 H 0.84259 0.82916 0.96823 0.0
H2675 H 0.83173 0.85658 0.931 0.0
H2676 H 0.74782 0.89465 0.97331 0.0
H2677 H 0.74537 0.92793 0.98295 0.0
H2678 H 0.75584 0.90399 0.00578 0.0
H2679 H 0.79754 0.92999 0.01428 0.0
H2680 H 0.7871 0.95412 0.99169 0.0
H2681 H 0.81788 0.93873 0.98757 0.0
H2682 H 0.81616 0.88865 0.89959 0.0
H2683 H 0.80039 0.92626 0.87571 0.0
H2684 H 0.76762 0.95747 0.94607 0.0
C2685 C 0.80588 0.8745 -0.00067 0.0
C2686 C 0.82121 0.85226 0.99594 0.0
C2687 C 0.83056 0.84594 0.97116 0.0
C2688 C 0.82448 0.86135 0.94993 0.0
C2689 C 0.8091 0.88294 0.95391 0.0
C2690 C 0.80013 0.88972 0.97797 0.0
C2691 C 0.78484 0.91455 0.97707 0.0
C2692 C 0.7568 0.90999 0.98527 0.0
C2693 C 0.79761 0.93558 0.99362 0.0
C2694 C 0.78667 0.92067 0.94865 0.0
C2695 C 0.80053 0.90199 0.9357 0.0
C2696 C 0.80519 0.90337 0.90943 0.0
C2697 C 0.796 0.92478 0.89604 0.0
C2698 C 0.7826 0.94471 0.90902 0.0
C2699 C 0.77744 0.94236 0.93559 0.0
H2700 H 0.56853 0.17738 0.4548 0.0
H2701 H 0.5727 0.26043 0.44702 0.0
H2702 H 0.54213 0.25831 0.41021 0.0
H2703 H 0.56681 0.16038 0.39049 0.0
H2704 H 0.54348 0.13492 0.39406 0.0
H2705 H 0.56403 0.14333 0.42062 0.0
H2706 H 0.52431 0.15113 0.44966 0.0
H2707 H 0.50355 0.14234 0.42329 0.0
H2708 H 0.49952 0.17297 0.43913 0.0
H2709 H 0.51273 0.24622 0.37304 0.0
H2710 H 0.48559 0.22544 0.33954 0.0
H2711 H 0.50193 0.15056 0.37248 0.0
C2712 C 0.56296 0.19512 0.44532 0.0
C2713 C 0.57307 0.21904 0.45317 0.0
C2714 C 0.56505 0.24198 0.44097 0.0
C2715 C 0.5478 0.2409 0.42017 0.0
C2716 C 0.53853 0.21682 0.41252 0.0
C2717 C 0.54555 0.19441 0.42505 0.0
C2718 C 0.53296 0.17094 0.41338 0.0
C2719 C 0.55303 0.15125 0.40408 0.0
C2720 C 0.51396 0.15863 0.4325 0.0
C2721 C 0.51897 0.18339 0.39121 0.0
C2722 C 0.5219 0.20991 0.39131 0.0
C2723 C 0.51027 0.22551 0.37281 0.0
C2724 C 0.49506 0.21365 0.3539 0.0
C2725 C 0.49227 0.18658 0.35353 0.0
C2726 C 0.50434 0.1713 0.37228 0.0
H2727 H 0.90898 0.81503 0.94531 0.0
H2728 H 0.93455 0.73663 0.95895 0.0
H2729 H 0.96599 0.741 0.92326 0.0
H2730 H 0.91329 0.81667 0.87745 0.0
H2731 H 0.92594 0.84901 0.87621 0.0
H2732 H 0.90556 0.83944 0.90253 0.0
H2733 H 0.94077 0.85305 0.93513 0.0
H2734 H 0.96126 0.86279 0.90892 0.0
H2735 H 0.97265 0.83977 0.93225 0.0
H2736 H 0.99509 0.75471 0.88669 0.0
H2737 H 0.01959 0.7764 0.85206 0.0
H2738 H 0.97403 0.84551 0.86262 0.0
C2739 C 0.92088 0.79858 0.94056 0.0
C2740 C 0.91905 0.77526 0.95445 0.0
C2741 C 0.93553 0.75451 0.94825 0.0
C2742 C 0.95342 0.75688 0.92812 0.0
C2743 C 0.95469 0.78022 0.9148 0.0
C2744 C 0.93898 0.80075 0.92094 0.0
C2745 C 0.94476 0.82414 0.90456 0.0
C2746 C 0.92096 0.8328 0.88927 0.0
C2747 C 0.95549 0.84624 0.9212 0.0
C2748 C 0.96528 0.81317 0.88717 0.0
C2749 C 0.97115 0.788 0.89374 0.0
C2750 C 0.99047 0.7743 0.88123 0.0
C2751 C 0.00419 0.78671 0.8616 0.0
C2752 C -0.00184 0.81232 0.85443 0.0
C2753 C 0.9784 0.82564 0.86728 0.0
H2754 H 0.08782 0.3156 0.55568 0.0
H2755 H 0.0561 0.24184 0.53216 0.0
H2756 H 0.02246 0.24591 0.56562 0.0
H2757 H 0.07685 0.31065 0.62363 0.0
H2758 H 0.0677 0.34399 0.627 0.0
H2759 H 0.0898 0.33456 0.60204 0.0
H2760 H 0.06016 0.3554 0.56775 0.0
H2761 H 0.03793 0.36483 0.59259 0.0
H2762 H 0.02695 0.34567 0.56581 0.0
H2763 H 0.99167 0.25892 0.60007 0.0
H2764 H 0.96581 0.27939 0.63418 0.0
H2765 H 0.0179 0.34479 0.63493 0.0
C2766 C 0.07415 0.3 0.5579 0.0
C2767 C 0.07473 0.27815 0.54173 0.0
C2768 C 0.05607 0.25855 0.54465 0.0
C2769 C 0.03692 0.26076 0.56349 0.0
C2770 C 0.03673 0.28275 0.57891 0.0
C2771 C 0.05482 0.30205 0.57628 0.0
C2772 C 0.04967 0.3243 0.59437 0.0
C2773 C 0.07235 0.32861 0.61287 0.0
C2774 C 0.0433 0.349 0.57923 0.0
C2775 C 0.02629 0.31411 0.60826 0.0
C2776 C 0.01895 0.29029 0.59878 0.0
C2777 C -0.00269 0.27745 0.60781 0.0
C2778 C 0.98277 0.28924 0.62712 0.0
C2779 C 0.99012 0.31349 0.63728 0.0
C2780 C 0.01219 0.32602 0.62779 0.0
H2781 H 0.5137 0.70439 0.11987 0.0
H2782 H 0.47027 0.64374 0.15795 0.0
H2783 H 0.43415 0.65119 0.12849 0.0
H2784 H 0.46024 0.74693 0.10908 0.0
H2785 H 0.47093 0.75744 0.07779 0.0
H2786 H 0.49408 0.74744 0.1016 0.0
H2787 H 0.51261 0.71385 0.06976 0.0
H2788 H 0.48965 0.72384 0.04579 0.0
H2789 H 0.49143 0.69047 0.05526 0.0
H2790 H 0.40251 0.66582 0.09772 0.0
H2791 H 0.37679 0.68429 0.06306 0.0
H2792 H 0.44027 0.73476 0.04216 0.0
C2793 C 0.49651 0.6928 0.12205 0.0
C2794 C 0.49456 0.67378 0.14144 0.0
C2795 C 0.47197 0.65874 0.14354 0.0
C2796 C 0.4514 0.66273 0.12685 0.0
C2797 C 0.45374 0.68183 0.10826 0.0
C2798 C 0.47568 0.69652 0.10548 0.0
C2799 C 0.47286 0.7157 0.0836 0.0
C2800 C 0.47463 0.74353 0.09363 0.0
C2801 C 0.49281 0.71064 0.06234 0.0
C2802 C 0.44582 0.70939 0.07468 0.0
C2803 C 0.43528 0.68996 0.08949 0.0
C2804 C 0.41045 0.68102 0.08588 0.0
C2805 C 0.39593 0.69189 0.06622 0.0
C2806 C 0.40645 0.71117 0.04999 0.0
C2807 C 0.43168 0.72025 0.05442 0.0
H2808 H 0.46741 0.5468 0.20272 0.0
H2809 H 0.4227 0.60815 0.23723 0.0
H2810 H 0.38287 0.58296 0.23023 0.0
H2811 H 0.42323 0.53575 0.15276 0.0
H2812 H 0.42835 0.50146 0.15089 0.0
H2813 H 0.45374 0.5222 0.1621 0.0
H2814 H 0.45698 0.4959 0.20429 0.0
H2815 H 0.43173 0.47491 0.19311 0.0
H2816 H 0.42866 0.49105 0.22371 0.0
H2817 H 0.34813 0.55416 0.21516 0.0
H2818 H 0.31986 0.52241 0.19377 0.0
H2819 H 0.38669 0.47946 0.16843 0.0
C2820 C 0.44927 0.55434 0.20966 0.0
C2821 C 0.44787 0.5789 0.22123 0.0
C2822 C 0.42391 0.58906 0.22886 0.0
C2823 C 0.40131 0.57494 0.22491 0.0
C2824 C 0.40315 0.55099 0.21288 0.0
C2825 C 0.42648 0.54073 0.2053 0.0
C2826 C 0.42279 0.516 0.19015 0.0
C2827 C 0.43261 0.51905 0.16234 0.0
C2828 C 0.4358 0.49311 0.20364 0.0
C2829 C 0.39375 0.51377 0.19086 0.0
C2830 C 0.38287 0.53429 0.20389 0.0
C2831 C 0.35636 0.53775 0.20531 0.0
C2832 C 0.3405 0.51975 0.19306 0.0
C2833 C 0.35123 0.49849 0.17995 0.0
C2834 C 0.37814 0.49529 0.17898 0.0
H2835 H 0.84195 0.96724 0.81385 0.0
H2836 H 0.88602 0.03723 0.82589 0.0
H2837 H 0.92448 0.01645 0.80889 0.0
H2838 H 0.89218 0.92287 0.83131 0.0
H2839 H 0.88432 0.89963 0.80671 0.0
H2840 H 0.85964 0.92025 0.81959 0.0
H2841 H 0.84895 0.93581 0.77334 0.0
H2842 H 0.874 0.91559 0.7604 0.0
H2843 H 0.87402 0.94968 0.7538 0.0
H2844 H 0.95781 0.9896 0.7898 0.0
H2845 H 0.98669 0.95501 0.77541 0.0
H2846 H 0.92296 0.90094 0.77646 0.0
C2847 C 0.85975 0.97802 0.81295 0.0
C2848 C 0.86086 0.00403 0.82083 0.0
C2849 C 0.88449 0.01755 0.81947 0.0
C2850 C 0.90655 0.00591 0.8098 0.0
C2851 C 0.90472 0.98066 0.80134 0.0
C2852 C 0.88216 0.96664 0.80304 0.0
C2853 C 0.88607 0.93949 0.79298 0.0
C2854 C 0.88022 0.91938 0.81391 0.0
C2855 C 0.86978 0.93487 0.7687 0.0
C2856 C 0.91449 0.94038 0.78642 0.0
C2857 C 0.92455 0.96461 0.79074 0.0
C2858 C 0.95023 0.97052 0.78617 0.0
C2859 C 0.96641 0.95081 0.77772 0.0
C2860 C 0.95691 0.92545 0.77456 0.0
C2861 C 0.93053 0.92027 0.77846 0.0
H2862 H 0.54973 0.06072 0.25802 0.0
H2863 H 0.55716 0.10948 0.32574 0.0
H2864 H 0.59223 0.08257 0.34156 0.0
H2865 H 0.5617 0.00084 0.28825 0.0
H2866 H 0.58131 0.98758 0.26288 0.0
H2867 H 0.55726 0.01137 0.25545 0.0
H2868 H 0.59197 0.03992 0.23396 0.0
H2869 H 0.6162 0.01624 0.24147 0.0
H2870 H 0.62011 0.04908 0.25205 0.0
H2871 H 0.62583 0.05181 0.35079 0.0
H2872 H 0.6556 0.01544 0.35461 0.0
H2873 H 0.62703 0.98404 0.28252 0.0
C2874 C 0.55913 0.0659 0.27589 0.0
C2875 C 0.55102 0.08754 0.29035 0.0
C2876 C 0.56342 0.09347 0.31393 0.0
C2877 C 0.58334 0.07822 0.32323 0.0
C2878 C 0.59101 0.05724 0.30861 0.0
C2879 C 0.57952 0.05093 0.28545 0.0
C2880 C 0.59175 0.02689 0.27409 0.0
C2881 C 0.5718 0.0054 0.26995 0.0
C2882 C 0.60584 0.03342 0.24889 0.0
C2883 C 0.61077 0.02015 0.29527 0.0
C2884 C 0.61035 0.03845 0.31454 0.0
C2885 C 0.62641 0.03725 0.33589 0.0
C2886 C 0.64329 0.0165 0.33786 0.0
C2887 C 0.64343 0.99683 0.31902 0.0
C2888 C 0.62715 -0.00121 0.29727 0.0
H2889 H 0.13037 0.47672 0.64758 0.0
H2890 H 0.14604 0.5137 0.72076 0.0
H2891 H 0.11444 0.48531 0.7421 0.0
H2892 H 0.06272 0.47372 0.65868 0.0
H2893 H 0.05845 0.44375 0.64169 0.0
H2894 H 0.08412 0.46524 0.63276 0.0
H2895 H 0.11729 0.42852 0.63945 0.0
H2896 H 0.09169 0.40689 0.6483 0.0
H2897 H 0.11841 0.41182 0.66989 0.0
H2898 H 0.07894 0.45479 0.75483 0.0
H2899 H 0.04232 0.42419 0.75763 0.0
H2900 H 0.04996 0.40827 0.67595 0.0
C2901 C 0.12762 0.47822 0.6682 0.0
C2902 C 0.14097 0.49672 0.68274 0.0
C2903 C 0.1362 0.49917 0.70947 0.0
C2904 C 0.11828 0.48323 0.72173 0.0
C2905 C 0.10505 0.46535 0.70682 0.0
C2906 C 0.10937 0.46288 0.68061 0.0
C2907 C 0.09099 0.44387 0.66857 0.0
C2908 C 0.07302 0.45745 0.64929 0.0
C2909 C 0.10547 0.42144 0.65582 0.0
C2910 C 0.07647 0.43525 0.69224 0.0
C2911 C 0.08452 0.44807 0.71409 0.0
C2912 C 0.07267 0.44435 0.73792 0.0
C2913 C 0.05197 0.427 0.73937 0.0
C2914 C 0.04376 0.41356 0.71715 0.0
C2915 C 0.0563 0.41774 0.69343 0.0
H2916 H 0.81639 0.53585 0.42682 0.0
H2917 H 0.73708 0.55492 0.40995 0.0
H2918 H 0.73962 0.59185 0.44045 0.0
H2919 H 0.81287 0.55311 0.49611 0.0
H2920 H 0.84558 0.56458 0.49627 0.0
H2921 H 0.83631 0.53876 0.47496 0.0
H2922 H 0.85352 0.56484 0.43609 0.0
H2923 H 0.86258 0.59082 0.45712 0.0
H2924 H 0.84143 0.59689 0.43027 0.0
H2925 H 0.75269 0.62865 0.47002 0.0
H2926 H 0.77452 0.66122 0.49753 0.0
H2927 H 0.84481 0.61668 0.49454 0.0
C2928 C 0.79952 0.54775 0.42976 0.0
C2929 C 0.77665 0.54311 0.41606 0.0
C2930 C 0.75472 0.5585 0.42045 0.0
C2931 C 0.75604 0.57936 0.43767 0.0
C2932 C 0.77919 0.58379 0.45058 0.0
C2933 C 0.80037 0.56808 0.44713 0.0
C2934 C 0.82316 0.57699 0.46276 0.0
C2935 C 0.82987 0.55719 0.48377 0.0
C2936 C 0.84653 0.58274 0.44551 0.0
C2937 C 0.81211 0.60122 0.4743 0.0
C2938 C 0.78658 0.60461 0.46755 0.0
C2939 C 0.77257 0.62605 0.47561 0.0
C2940 C 0.78503 0.64442 0.49104 0.0
C2941 C 0.81117 0.6412 0.49763 0.0
C2942 C 0.82481 0.61941 0.48936 0.0
H2943 H 0.69883 0.42831 0.89896 0.0
H2944 H 0.7471 0.4728 0.95074 0.0
H2945 H 0.7417 0.43932 0.98419 0.0
H2946 H 0.65383 0.411 0.94485 0.0
H2947 H 0.64776 0.3793 0.93203 0.0
H2948 H 0.6584 0.40469 0.91103 0.0
H2949 H 0.69704 0.37678 0.89637 0.0
H2950 H 0.6864 0.35111 0.91717 0.0
H2951 H 0.71861 0.36362 0.92015 0.0
H2952 H 0.72753 0.40343 0.01296 0.0
H2953 H 0.7062 0.36749 0.03526 0.0
H2954 H 0.66622 0.34724 0.96459 0.0
C2955 C 0.70894 0.4307 0.91705 0.0
C2956 C 0.72369 0.45294 0.92219 0.0
C2957 C 0.73606 0.45567 0.94631 0.0
C2958 C 0.73303 0.43682 0.96541 0.0
C2959 C 0.71767 0.41548 0.95991 0.0
C2960 C 0.70594 0.41228 0.93628 0.0
C2961 C 0.68866 0.38884 0.93588 0.0
C2962 C 0.66051 0.39643 0.93065 0.0
C2963 C 0.69826 0.3689 0.91623 0.0
C2964 C 0.69226 0.37943 0.96314 0.0
C2965 C 0.70918 0.39497 0.97662 0.0
C2966 C 0.71457 0.39089 0.00251 0.0
C2967 C 0.7023 0.37042 0.01498 0.0
C2968 C 0.68467 0.3544 0.00158 0.0
C2969 C 0.67985 0.35889 0.97525 0.0
H2970 H 0.28146 0.92694 0.59803 0.0
H2971 H 0.2613 0.98454 0.54087 0.0
H2972 H 0.27229 0.95407 0.5063 0.0
H2973 H 0.33464 0.90195 0.56851 0.0
H2974 H 0.32886 0.86848 0.57581 0.0
H2975 H 0.31607 0.89316 0.59648 0.0
H2976 H 0.27006 0.875 0.59054 0.0
H2977 H 0.28274 0.84986 0.5702 0.0
H2978 H 0.25746 0.87052 0.55851 0.0
H2979 H 0.28891 0.9198 0.47842 0.0
H2980 H 0.30817 0.88224 0.45769 0.0
H2981 H 0.31909 0.84604 0.5324 0.0
C2982 C 0.27857 0.93277 0.57822 0.0
C2983 C 0.27024 0.95796 0.57207 0.0
C2984 C 0.2671 0.96516 0.54599 0.0
C2985 C 0.27347 0.94805 0.52622 0.0
C2986 C 0.28242 0.92368 0.5329 0.0
C2987 C 0.28451 0.91576 0.55819 0.0
C2988 C 0.29552 0.88873 0.55988 0.0
C2989 C 0.32025 0.88807 0.57612 0.0
C2990 C 0.27524 0.86991 0.57041 0.0
C2991 C 0.30089 0.88346 0.53169 0.0
C2992 C 0.2926 0.90374 0.51656 0.0
C2993 C 0.2953 0.9037 0.49 0.0
C2994 C 0.30651 0.88222 0.47844 0.0
C2995 C 0.31551 0.86118 0.49341 0.0
C2996 C 0.31259 0.86185 0.52046 0.0
H2997 H 0.20118 0.07178 0.09742 0.0
H2998 H 0.24435 0.02209 0.04597 0.0
H2999 H 0.23661 0.0526 0.01026 0.0
H3000 H 0.15278 0.08628 0.05461 0.0
H3001 H 0.14852 0.11922 0.06474 0.0
H3002 H 0.16063 0.09571 0.08709 0.0
H3003 H 0.20112 0.12373 0.09535 0.0
H3004 H 0.18891 0.14761 0.07333 0.0
H3005 H 0.22045 0.13409 0.06847 0.0
H3006 H 0.21978 0.08565 0.97949 0.0
H3007 H 0.19775 0.12047 0.95614 0.0
H3008 H 0.16502 0.14808 0.028 0.0
C3009 C 0.20974 0.06772 0.07885 0.0
C3010 C 0.22361 0.04479 0.07446 0.0
C3011 C 0.23408 0.03983 0.0498 0.0
C3012 C 0.22962 0.05694 0.0294 0.0
C3013 C 0.21493 0.07888 0.03419 0.0
C3014 C 0.20544 0.08447 0.05838 0.0
C3015 C 0.18869 0.10827 0.05814 0.0
C3016 C 0.16103 0.10197 0.06664 0.0
C3017 C 0.20051 0.1297 0.07481 0.0
C3018 C 0.18984 0.11499 0.02991 0.0
C3019 C 0.20512 0.09786 0.01644 0.0
C3020 C 0.20814 0.09944 0.9899 0.0
C3021 C 0.19546 0.11927 0.97683 0.0
C3022 C 0.17984 0.13717 0.99033 0.0
C3023 C 0.17705 0.13491 0.01721 0.0
H3024 H 0.4866 0.84618 0.62868 0.0
H3025 H 0.52385 0.77251 0.64126 0.0
H3026 H 0.49475 0.75216 0.60954 0.0
H3027 H 0.42221 0.82437 0.61938 0.0
H3028 H 0.41552 0.84643 0.59342 0.0
H3029 H 0.43873 0.85488 0.61772 0.0
H3030 H 0.47304 0.86225 0.58227 0.0
H3031 H 0.44992 0.8537 0.55788 0.0
H3032 H 0.48007 0.83674 0.5598 0.0
H3033 H 0.46227 0.74011 0.57575 0.0
H3034 H 0.42848 0.7375 0.5421 0.0
H3035 H 0.41331 0.81916 0.55172 0.0
C3036 C 0.48833 0.82572 0.62494 0.0
C3037 C 0.50712 0.81075 0.63745 0.0
C3038 C 0.50942 0.78418 0.63175 0.0
C3039 C 0.49303 0.77249 0.61384 0.0
C3040 C 0.47481 0.7878 0.60157 0.0
C3041 C 0.47251 0.81388 0.6067 0.0
C3042 C 0.45229 0.82623 0.58987 0.0
C3043 C 0.43092 0.8387 0.60608 0.0
C3044 C 0.46456 0.84589 0.57136 0.0
C3045 C 0.44272 0.80278 0.57548 0.0
C3046 C 0.45621 0.78087 0.58211 0.0
C3047 C 0.4514 0.75709 0.5705 0.0
C3048 C 0.43222 0.75574 0.55152 0.0
C3049 C 0.41803 0.77797 0.54481 0.0
C3050 C 0.42341 0.80169 0.55698 0.0
H3051 H 0.01019 0.14864 0.12867 0.0
H3052 H 0.97623 0.22262 0.14699 0.0
H3053 H 0.00186 0.24315 0.11239 0.0
H3054 H 0.07329 0.16897 0.11261 0.0
H3055 H 0.07633 0.1472 0.08572 0.0
H3056 H 0.05578 0.13896 0.11232 0.0
H3057 H 0.01749 0.13324 0.08077 0.0
H3058 H 0.03793 0.14171 0.05408 0.0
H3059 H 0.00869 0.15941 0.05974 0.0
H3060 H 0.0311 0.25517 0.075 0.0
H3061 H 0.06239 0.25753 0.03885 0.0
H3062 H 0.07563 0.1753 0.04561 0.0
C3063 C 0.00859 0.16923 0.12567 0.0
C3064 C 0.99184 0.18427 0.14066 0.0
C3065 C 0.98932 0.21097 0.13573 0.0
C3066 C 0.00367 0.22272 0.11612 0.0
C3067 C 0.01989 0.20728 0.10139 0.0
C3068 C 0.02224 0.18108 0.10585 0.0
C3069 C 0.04001 0.16852 0.08666 0.0
C3070 C 0.0627 0.15514 0.10015 0.0
C3071 C 0.02514 0.1496 0.0693 0.0
C3072 C 0.04851 0.19195 0.07173 0.0
C3073 C 0.03634 0.2141 0.08001 0.0
C3074 C 0.04086 0.23797 0.06843 0.0
C3075 C 0.05857 0.23918 0.04802 0.0
C3076 C 0.07167 0.21672 0.04 0.0
C3077 C 0.06632 0.1929 0.05186 0.0
H3078 H 0.97796 0.70154 0.34024 0.0
H3079 H 0.01588 0.63856 0.37982 0.0
H3080 H 0.99384 0.64999 0.41999 0.0
H3081 H 0.97453 0.74683 0.39211 0.0
H3082 H 0.94208 0.75718 0.38564 0.0
H3083 H 0.96201 0.74552 0.35976 0.0
H3084 H 0.92774 0.71116 0.34809 0.0
H3085 H 0.90751 0.72302 0.37361 0.0
H3086 H 0.91635 0.68945 0.37267 0.0
H3087 H 0.97132 0.66985 0.45611 0.0
H3088 H 0.93983 0.68993 0.48517 0.0
H3089 H 0.91 0.73566 0.42197 0.0
C3090 C 0.98144 0.69028 0.35745 0.0
C3091 C -0.00048 0.67007 0.35755 0.0
C3092 C 0.00318 0.65503 0.37992 0.0
C3093 C 0.99061 0.66123 0.40274 0.0
C3094 C 0.97374 0.68195 0.40251 0.0
C3095 C 0.96823 0.69564 0.38035 0.0
C3096 C 0.94725 0.71534 0.38525 0.0
C3097 C 0.95707 0.74285 0.3804 0.0
C3098 C 0.92329 0.70938 0.36895 0.0
C3099 C 0.94231 0.71075 0.41367 0.0
C3100 C 0.95841 0.69184 0.4232 0.0
C3101 C 0.9584 0.68454 0.44893 0.0
C3102 C 0.94072 0.69624 0.4653 0.0
C3103 C 0.92298 0.71447 0.45569 0.0
C3104 C 0.92377 0.72204 0.42965 0.0
H3105 H 0.48883 0.34173 0.88481 0.0
H3106 H 0.49373 0.27738 0.83198 0.0
H3107 H 0.52211 0.25419 0.86262 0.0
H3108 H 0.55367 0.34101 0.90283 0.0
H3109 H 0.54796 0.35005 0.93585 0.0
H3110 H 0.52572 0.35977 0.91119 0.0
H3111 H 0.48852 0.33814 0.93645 0.0
H3112 H 0.51079 0.32819 0.9611 0.0
H3113 H 0.49091 0.3046 0.94516 0.0
H3114 H 0.55168 0.23927 0.89818 0.0
H3115 H 0.58321 0.23567 0.93408 0.0
H3116 H 0.56001 0.31088 0.96177 0.0
C3117 C 0.49563 0.32257 0.88005 0.0
C3118 C 0.48916 0.31094 0.85654 0.0
C3119 C 0.49854 0.28621 0.85026 0.0
C3120 C 0.51448 0.27296 0.86751 0.0
C3121 C 0.52073 0.28494 0.89071 0.0
C3122 C 0.51172 0.30929 0.89689 0.0
C3123 C 0.52306 0.31894 0.92184 0.0
C3124 C 0.53853 0.34391 0.91765 0.0
C3125 C 0.50207 0.32267 0.94234 0.0
C3126 C 0.54034 0.29652 0.92837 0.0
C3127 C 0.53839 0.27682 0.91056 0.0
C3128 C 0.55328 0.25447 0.91235 0.0
C3129 C 0.57102 0.25253 0.93265 0.0
C3130 C 0.57379 0.27307 0.9502 0.0
C3131 C 0.55805 0.29501 0.94831 0.0
H3132 H 0.54792 0.41184 0.8209 0.0
H3133 H 0.54483 0.42215 0.73809 0.0
H3134 H 0.58112 0.45323 0.74087 0.0
H3135 H 0.56119 0.47917 0.83451 0.0
H3136 H 0.58083 0.47165 0.86208 0.0
H3137 H 0.55483 0.45054 0.85307 0.0
H3138 H 0.58667 0.41216 0.85076 0.0
H3139 H 0.61278 0.43314 0.85958 0.0
H3140 H 0.61463 0.41446 0.83036 0.0
H3141 H 0.61762 0.48356 0.75357 0.0
H3142 H 0.65084 0.51052 0.77481 0.0
H3143 H 0.62948 0.4788 0.84892 0.0
C3144 C 0.55508 0.42034 0.80325 0.0
C3145 C 0.54409 0.41426 0.77919 0.0
C3146 C 0.55331 0.42643 0.75665 0.0
C3147 C 0.57381 0.44407 0.75809 0.0
C3148 C 0.58433 0.4495 0.78225 0.0
C3149 C 0.57503 0.43814 0.80442 0.0
C3150 C 0.58877 0.44776 0.82818 0.0
C3151 C 0.57031 0.46319 0.84548 0.0
C3152 C 0.60147 0.42555 0.84308 0.0
C3153 C 0.60845 0.46517 0.81588 0.0
C3154 C 0.60524 0.46648 0.78944 0.0
C3155 C 0.62043 0.48247 0.77418 0.0
C3156 C 0.63924 0.49758 0.78634 0.0
C3157 C 0.64295 0.49604 0.81329 0.0
C3158 C 0.62747 0.47959 0.82817 0.0
H3159 H 0.06616 0.09888 0.20308 0.0
H3160 H 0.01525 0.04225 0.23752 0.0
H3161 H 0.0484 0.00877 0.23145 0.0
H3162 H 0.08909 0.06034 0.1545 0.0
H3163 H 0.12166 0.07223 0.15506 0.0
H3164 H 0.09576 0.09258 0.16561 0.0
H3165 H 0.11819 0.0991 0.20975 0.0
H3166 H 0.14442 0.07898 0.19923 0.0
H3167 H 0.1274 0.07134 0.22847 0.0
H3168 H 0.08471 0.98099 0.21752 0.0
H3169 H 0.1221 0.96034 0.19757 0.0
H3170 H 0.14942 0.03496 0.17112 0.0
C3171 C 0.06227 0.0796 0.21005 0.0
C3172 C 0.03828 0.07318 0.22103 0.0
C3173 C 0.03368 0.04766 0.22946 0.0
C3174 C 0.05235 0.02851 0.22601 0.0
C3175 C 0.07552 0.03536 0.21439 0.0
C3176 C 0.08066 0.06032 0.20677 0.0
C3177 C 0.10628 0.06223 0.19306 0.0
C3178 C 0.10298 0.07244 0.16543 0.0
C3179 C 0.1252 0.0789 0.20855 0.0
C3180 C 0.11433 0.03425 0.19324 0.0
C3181 C 0.09647 0.01918 0.206 0.0
C3182 C 0.09903 0.99262 0.20786 0.0
C3183 C 0.12041 0.98111 0.19637 0.0
C3184 C 0.13888 0.99608 0.18284 0.0
C3185 C 0.13583 0.02305 0.1815 0.0
H3186 H 0.45627 0.94117 0.72652 0.0
H3187 H 0.43418 0.8768 0.67765 0.0
H3188 H 0.39629 0.9007 0.6631 0.0
H3189 H 0.39039 0.95889 0.7451 0.0
H3190 H 0.3969 0.993 0.7446 0.0
H3191 H 0.42222 0.97061 0.75236 0.0
H3192 H 0.45023 0.98971 0.71581 0.0
H3193 H 0.42498 0.01207 0.7079 0.0
H3194 H 0.43764 0.99091 0.68348 0.0
H3195 H 0.36235 0.93122 0.65196 0.0
H3196 H 0.33243 0.96738 0.6458 0.0
H3197 H 0.37513 0.01227 0.70216 0.0
C3198 C 0.44314 0.93196 0.71319 0.0
C3199 C 0.44802 0.907 0.70348 0.0
C3200 C 0.43067 0.89574 0.68568 0.0
C3201 C 0.40912 0.90918 0.67715 0.0
C3202 C 0.40497 0.93376 0.68681 0.0
C3203 C 0.42125 0.94508 0.70457 0.0
C3204 C 0.4122 0.97199 0.71141 0.0
C3205 C 0.405 0.97371 0.74007 0.0
C3206 C 0.43247 0.99236 0.70421 0.0
C3207 C 0.38859 0.97391 0.69441 0.0
C3208 C 0.38485 0.95159 0.68045 0.0
C3209 C 0.36477 0.94875 0.66299 0.0
C3210 C 0.34784 0.96935 0.65969 0.0
C3211 C 0.35126 0.99247 0.67373 0.0
C3212 C 0.37185 0.9947 0.69138 0.0
H3213 H 0.93455 0.58875 0.30489 0.0
H3214 H 0.97057 0.54489 0.24355 0.0
H3215 H 0.93496 0.51323 0.24547 0.0
H3216 H 0.91592 0.5348 0.34131 0.0
H3217 H 0.88637 0.54896 0.3526 0.0
H3218 H 0.91322 0.56927 0.34456 0.0
H3219 H 0.88471 0.59474 0.31252 0.0
H3220 H 0.8577 0.5745 0.32048 0.0
H3221 H 0.8678 0.5777 0.28743 0.0
H3222 H 0.89706 0.48518 0.25619 0.0
H3223 H 0.86041 0.46199 0.2755 0.0
H3224 H 0.84989 0.52439 0.33019 0.0
C3225 C 0.93472 0.57281 0.29142 0.0
C3226 C 0.95507 0.56942 0.27376 0.0
C3227 C 0.95496 0.54794 0.257 0.0
C3228 C 0.93485 0.52992 0.25797 0.0
C3229 C 0.9152 0.53373 0.27584 0.0
C3230 C 0.91505 0.55462 0.29232 0.0
C3231 C 0.89288 0.55336 0.31111 0.0
C3232 C 0.90269 0.55147 0.33904 0.0
C3233 C 0.87469 0.57645 0.30766 0.0
C3234 C 0.88037 0.52852 0.30253 0.0
C3235 C 0.89351 0.5175 0.28217 0.0
C3236 C 0.88642 0.49377 0.27191 0.0
C3237 C 0.86557 0.48078 0.28299 0.0
C3238 C 0.8521 0.49157 0.30411 0.0
C3239 C 0.85941 0.51594 0.31368 0.0
H3240 H 0.24337 0.08905 0.57291 0.0
H3241 H 0.26764 0.13573 0.63797 0.0
H3242 H 0.24962 0.17428 0.61716 0.0
H3243 H 0.25822 0.13626 0.52446 0.0
H3244 H 0.23096 0.12886 0.50433 0.0
H3245 H 0.24475 0.10424 0.52451 0.0
H3246 H 0.2004 0.09639 0.54578 0.0
H3247 H 0.18646 0.12084 0.52549 0.0
H3248 H 0.18338 0.1231 0.55999 0.0
H3249 H 0.23006 0.20768 0.58992 0.0
H3250 H 0.20833 0.23467 0.55786 0.0
H3251 H 0.19725 0.16767 0.50886 0.0
C3252 C 0.24453 0.10734 0.58289 0.0
C3253 C 0.25685 0.10937 0.60715 0.0
C3254 C 0.25837 0.13371 0.6194 0.0
C3255 C 0.24819 0.15574 0.60774 0.0
C3256 C 0.23665 0.15322 0.58371 0.0
C3257 C 0.23463 0.12973 0.57135 0.0
C3258 C 0.22169 0.13281 0.54527 0.0
C3259 C 0.24 0.12508 0.52335 0.0
C3260 C 0.19648 0.11737 0.54408 0.0
C3261 C 0.2166 0.16165 0.54516 0.0
C3262 C 0.22554 0.17291 0.56753 0.0
C3263 C 0.2231 0.19916 0.57222 0.0
C3264 C 0.21093 0.2144 0.55369 0.0
C3265 C 0.20135 0.20346 0.53057 0.0
C3266 C 0.20434 0.17665 0.52629 0.0
H3267 H 0.2298 0.90325 0.06529 0.0
H3268 H 0.26115 0.88088 0.1393 0.0
H3269 H 0.28574 0.84591 0.11839 0.0
H3270 H 0.22111 0.83901 0.04241 0.0
H3271 H 0.22919 0.8459 0.00938 0.0
H3272 H 0.21572 0.87078 0.02946 0.0
H3273 H 0.2547 0.90024 0.01977 0.0
H3274 H 0.26816 0.87552 -0.00053 0.0
H3275 H 0.2868 0.88851 0.02572 0.0
H3276 H 0.30438 0.81205 0.09078 0.0
H3277 H 0.31799 0.78139 0.05722 0.0
H3278 H 0.27514 0.82444 -6e-05 0.0
C3279 C 0.2425 0.89141 0.07683 0.0
C3280 C 0.24428 0.89506 0.10379 0.0
C3281 C 0.26008 0.87861 0.11858 0.0
C3282 C 0.27398 0.85868 0.10688 0.0
C3283 C 0.27159 0.85523 0.08037 0.0
C3284 C 0.25635 0.8711 0.06541 0.0
C3285 C 0.25617 0.86201 0.03753 0.0
C3286 C 0.22893 0.85395 0.02921 0.0
C3287 C 0.26712 0.88281 0.01956 0.0
C3288 C 0.27396 0.8388 0.03918 0.0
C3289 C 0.28237 0.83526 0.0642 0.0
C3290 C 0.29811 0.81471 0.07109 0.0
C3291 C 0.30564 0.79736 0.05194 0.0
C3292 C 0.29763 0.8006 0.0261 0.0
C3293 C 0.28165 0.82168 0.01956 0.0
H3294 H 0.70744 0.28467 0.44395 0.0
H3295 H 0.69321 0.33101 0.51221 0.0
H3296 H 0.71068 0.36901 0.48994 0.0
H3297 H 0.76897 0.31582 0.42798 0.0
H3298 H 0.76354 0.31343 0.39378 0.0
H3299 H 0.75 0.28971 0.41517 0.0
H3300 H 0.70481 0.29916 0.39655 0.0
H3301 H 0.7181 0.32325 0.37544 0.0
H3302 H 0.69251 0.33162 0.39727 0.0
H3303 H 0.72539 0.4028 0.45915 0.0
H3304 H 0.74438 0.42909 0.42468 0.0
H3305 H 0.75419 0.36047 0.3778 0.0
C3306 C 0.70847 0.30261 0.45452 0.0
C3307 C 0.69839 0.30477 0.47982 0.0
C3308 C 0.70003 0.32886 0.49263 0.0
C3309 C 0.71005 0.3506 0.48018 0.0
C3310 C 0.7189 0.34796 0.45503 0.0
C3311 C 0.71889 0.32449 0.44253 0.0
C3312 C 0.73019 0.32695 0.41567 0.0
C3313 C 0.75463 0.31051 0.413 0.0
C3314 C 0.71021 0.31982 0.39502 0.0
C3315 C 0.73635 0.35556 0.41503 0.0
C3316 C 0.7292 0.3673 0.43779 0.0
C3317 C 0.73157 0.39377 0.44142 0.0
C3318 C 0.74232 0.40857 0.42161 0.0
C3319 C 0.75124 0.39687 0.39863 0.0
C3320 C 0.74784 0.36998 0.39524 0.0
H3321 H 0.73578 0.59222 0.93121 0.0
H3322 H 0.75474 0.62143 0.85535 0.0
H3323 H 0.77741 0.65828 0.87507 0.0
H3324 H 0.72234 0.654 0.95829 0.0
H3325 H 0.73519 0.6469 0.98972 0.0
H3326 H 0.72233 0.62133 0.97008 0.0
H3327 H 0.7654 0.59653 0.97349 0.0
H3328 H 0.77828 0.62189 0.99339 0.0
H3329 H 0.79491 0.61238 0.96447 0.0
H3330 H 0.79551 0.69275 0.90201 0.0
H3331 H 0.81033 0.72298 0.93529 0.0
H3332 H 0.77953 0.67299 0.99479 0.0
C3333 C 0.74537 0.60606 0.91891 0.0
C3334 C 0.74407 0.60388 0.8918 0.0
C3335 C 0.7559 0.62273 0.87615 0.0
C3336 C 0.76872 0.64371 0.88716 0.0
C3337 C 0.76922 0.64573 0.91389 0.0
C3338 C 0.75797 0.62748 0.92966 0.0
C3339 C 0.76017 0.63532 0.95779 0.0
C3340 C 0.73342 0.63964 0.96966 0.0
C3341 C 0.77562 0.61534 0.97319 0.0
C3342 C 0.77476 0.66057 0.95527 0.0
C3343 C 0.7795 0.66617 0.92969 0.0
C3344 C 0.79198 0.68861 0.92212 0.0
C3345 C 0.80012 0.70576 0.94118 0.0
C3346 C 0.79585 0.70047 0.9676 0.0
C3347 C 0.78304 0.67749 0.97474 0.0
H3348 H 0.55099 0.18617 0.19626 0.0
H3349 H 0.47666 0.21771 0.17573 0.0
H3350 H 0.49666 0.24137 0.13941 0.0
H3351 H 0.58985 0.24064 0.18182 0.0
H3352 H 0.6158 0.2223 0.16791 0.0
H3353 H 0.5956 0.20796 0.19211 0.0
H3354 H 0.58511 0.17024 0.16121 0.0
H3355 H 0.60527 0.18449 0.13685 0.0
H3356 H 0.57217 0.17706 0.12975 0.0
H3357 H 0.52469 0.26171 0.10601 0.0
H3358 H 0.55886 0.27792 0.07745 0.0
H3359 H 0.61537 0.23279 0.11894 0.0
C3360 C 0.53904 0.19816 0.18408 0.0
C3361 C 0.51239 0.20051 0.18874 0.0
C3362 C 0.49711 0.21591 0.17237 0.0
C3363 C 0.50832 0.22931 0.15176 0.0
C3364 C 0.53468 0.22658 0.1476 0.0
C3365 C 0.54985 0.21126 0.16316 0.0
C3366 C 0.57758 0.21119 0.15411 0.0
C3367 C 0.59577 0.22114 0.17525 0.0
C3368 C 0.58549 0.18414 0.14494 0.0
C3369 C 0.57587 0.22978 0.13165 0.0
C3370 C 0.55084 0.23804 0.12802 0.0
C3371 C 0.54427 0.25511 0.10844 0.0
C3372 C 0.56376 0.264 0.09212 0.0
C3373 C 0.58953 0.25604 0.09557 0.0
C3374 C 0.5957 0.23883 0.11571 0.0
H3375 H 0.89372 0.71899 0.63232 0.0
H3376 H 0.90106 0.77247 0.56847 0.0
H3377 H 0.93203 0.79825 0.59371 0.0
H3378 H 0.89787 0.76508 0.68372 0.0
H3379 H 0.91703 0.74475 0.70431 0.0
H3380 H 0.89528 0.7305 0.68138 0.0
H3381 H 0.93291 0.70437 0.6618 0.0
H3382 H 0.9548 0.71867 0.68461 0.0
H3383 H 0.96117 0.72105 0.65058 0.0
H3384 H 0.96095 0.8189 0.62593 0.0
H3385 H 0.98594 0.83365 0.66316 0.0
H3386 H 0.96252 0.7655 0.70583 0.0
C3387 C 0.90162 0.7363 0.62377 0.0
C3388 C 0.8947 0.74392 0.59848 0.0
C3389 C 0.90593 0.76636 0.58781 0.0
C3390 C 0.9236 0.78107 0.60198 0.0
C3391 C 0.93017 0.77293 0.62669 0.0
C3392 C 0.91964 0.75104 0.63752 0.0
C3393 C 0.93039 0.74645 0.66436 0.0
C3394 C 0.90885 0.74672 0.68464 0.0
C3395 C 0.94573 0.72113 0.66539 0.0
C3396 C 0.94799 0.76964 0.66716 0.0
C3397 C 0.94767 0.78449 0.6451 0.0
C3398 C 0.96165 0.80726 0.6432 0.0
C3399 C 0.97608 0.81533 0.6645 0.0
C3400 C 0.97669 0.80067 0.68758 0.0
C3401 C 0.96256 0.77729 0.68864 0.0
H3402 H 0.00281 0.26496 0.80928 0.0
H3403 H 0.04837 0.33217 0.79 0.0
H3404 H 0.08018 0.32039 0.82333 0.0
H3405 H 0.01431 0.26602 0.87813 0.0
H3406 H 0.01682 0.2315 0.88118 0.0
H3407 H -0.0028 0.24531 0.85613 0.0
H3408 H 0.02252 0.21966 0.82175 0.0
H3409 H 0.04211 0.20564 0.84668 0.0
H3410 H 0.05703 0.22261 0.82034 0.0
H3411 H 0.10727 0.30141 0.85795 0.0
H3412 H 0.12909 0.27506 0.89122 0.0
H3413 H 0.06678 0.21972 0.8885 0.0
C3414 C 0.01945 0.27714 0.81232 0.0
C3415 C 0.02326 0.29954 0.79738 0.0
C3416 C 0.04527 0.31501 0.80148 0.0
C3417 C 0.06336 0.30849 0.82033 0.0
C3418 C 0.05918 0.28637 0.83488 0.0
C3419 C 0.03791 0.27078 0.83107 0.0
C3420 C 0.03863 0.24765 0.84895 0.0
C3421 C 0.01536 0.24763 0.86718 0.0
C3422 C 0.04017 0.2224 0.83351 0.0
C3423 C 0.06348 0.25284 0.86347 0.0
C3424 C 0.07496 0.27532 0.85501 0.0
C3425 C 0.09838 0.28391 0.86494 0.0
C3426 C 0.11055 0.26899 0.88387 0.0
C3427 C 0.09922 0.2459 0.89268 0.0
C3428 C 0.0754 0.23772 0.88242 0.0
H3429 H 0.48002 0.73258 0.3031 0.0
H3430 H 0.45254 0.65387 0.308 0.0
H3431 H 0.42218 0.66642 0.34231 0.0
H3432 H 0.47686 0.74526 0.37201 0.0
H3433 H 0.46656 0.77822 0.36838 0.0
H3434 H 0.48612 0.76337 0.34389 0.0
H3435 H 0.45191 0.77445 0.30947 0.0
H3436 H 0.43231 0.78943 0.33381 0.0
H3437 H 0.41913 0.76408 0.31404 0.0
H3438 H 0.39596 0.68662 0.37677 0.0
H3439 H 0.3734 0.7144 0.40833 0.0
H3440 H 0.4165 0.78048 0.38107 0.0
C3441 C 0.46759 0.71813 0.31155 0.0
C3442 C 0.46865 0.69221 0.3033 0.0
C3443 C 0.45213 0.67371 0.31449 0.0
C3444 C 0.43483 0.68067 0.33388 0.0
C3445 C 0.43439 0.70622 0.34199 0.0
C3446 C 0.45025 0.72475 0.33123 0.0
C3447 C 0.44588 0.75078 0.34386 0.0
C3448 C 0.47031 0.75994 0.35786 0.0
C3449 C 0.43675 0.77086 0.32411 0.0
C3450 C 0.42478 0.74397 0.36292 0.0
C3451 C 0.41874 0.71808 0.36171 0.0
C3452 C 0.40046 0.70695 0.37793 0.0
C3453 C 0.38787 0.72274 0.39586 0.0
C3454 C 0.39333 0.74935 0.39702 0.0
C3455 C 0.41198 0.76011 0.38036 0.0
H3456 H 0.09038 0.56552 0.25255 0.0
H3457 H 0.12603 0.64051 0.24318 0.0
H3458 H 0.16318 0.62019 0.22174 0.0
H3459 H 0.14916 0.53288 0.26799 0.0
H3460 H 0.14076 0.50332 0.25182 0.0
H3461 H 0.11589 0.52366 0.26484 0.0
H3462 H 0.09399 0.52593 0.22008 0.0
H3463 H 0.11867 0.50541 0.20699 0.0
H3464 H 0.11238 0.53637 0.19256 0.0
H3465 H 0.19693 0.59241 0.2036 0.0
H3466 H 0.22554 0.55827 0.18747 0.0
H3467 H 0.16914 0.50032 0.20845 0.0
C3468 C 0.10575 0.57761 0.24534 0.0
C3469 C 0.10528 0.6046 0.24901 0.0
C3470 C 0.12604 0.61984 0.24025 0.0
C3471 C 0.1472 0.60848 0.22815 0.0
C3472 C 0.14742 0.58181 0.22528 0.0
C3473 C 0.12732 0.56649 0.23354 0.0
C3474 C 0.13325 0.53815 0.2292 0.0
C3475 C 0.13486 0.52365 0.25499 0.0
C3476 C 0.11339 0.52574 0.21112 0.0
C3477 C 0.15949 0.54009 0.21658 0.0
C3478 C 0.16731 0.5655 0.21489 0.0
C3479 C 0.19105 0.57244 0.20474 0.0
C3480 C 0.20721 0.55291 0.19581 0.0
C3481 C 0.19957 0.52674 0.19692 0.0
C3482 C 0.17535 0.52022 0.20739 0.0
H3483 H 0.59496 0.89893 0.77682 0.0
H3484 H 0.62111 0.90167 0.69751 0.0
H3485 H 0.65464 0.9326 0.70928 0.0
H3486 H 0.60788 0.96476 0.79488 0.0
H3487 H 0.62115 0.95715 0.82604 0.0
H3488 H 0.59763 0.93611 0.81163 0.0
H3489 H 0.62896 0.89756 0.81588 0.0
H3490 H 0.65248 0.91846 0.83051 0.0
H3491 H 0.66077 0.89999 0.80233 0.0
H3492 H 0.68449 0.9639 0.72841 0.0
H3493 H 0.71335 0.99002 0.75551 0.0
H3494 H 0.67214 0.96467 0.82369 0.0
C3495 C 0.60764 0.90632 0.76203 0.0
C3496 C 0.60494 0.89843 0.7361 0.0
C3497 C 0.62239 0.90782 0.71736 0.0
C3498 C 0.6416 0.92542 0.72384 0.0
C3499 C 0.64373 0.93304 0.74936 0.0
C3500 C 0.62774 0.92342 0.76836 0.0
C3501 C 0.63603 0.93336 0.79463 0.0
C3502 C 0.61437 0.94877 0.80755 0.0
C3503 C 0.6451 0.91101 0.81185 0.0
C3504 C 0.6584 0.95067 0.78709 0.0
C3505 C 0.66235 0.95016 0.76084 0.0
C3506 C 0.6818 0.96434 0.74907 0.0
C3507 C 0.69814 0.97907 0.76462 0.0
C3508 C 0.69513 0.97934 0.79172 0.0
C3509 C 0.67472 0.96518 0.80301 0.0
H3510 H 0.81226 0.00418 0.26926 0.0
H3511 H 0.78812 0.05347 0.33211 0.0
H3512 H 0.81905 0.08684 0.31823 0.0
H3513 H 0.87932 0.01988 0.27126 0.0
H3514 H 0.88371 0.0201 0.23683 0.0
H3515 H 0.85914 0.00016 0.251 0.0
H3516 H 0.82469 0.02181 0.22229 0.0
H3517 H 0.84917 0.04169 0.20786 0.0
H3518 H 0.82147 0.0564 0.22262 0.0
H3519 H 0.85235 0.11463 0.29817 0.0
H3520 H 0.88628 0.1358 0.27219 0.0
H3521 H 0.88996 0.06884 0.22249 0.0
C3522 C 0.81363 0.02204 0.27995 0.0
C3523 C 0.79811 0.02643 0.3018 0.0
C3524 C 0.80007 0.04995 0.31539 0.0
C3525 C 0.81751 0.06894 0.30765 0.0
C3526 C 0.83281 0.06411 0.28622 0.0
C3527 C 0.83103 0.04136 0.27241 0.0
C3528 C 0.84982 0.04131 0.25004 0.0
C3529 C 0.86914 0.01904 0.25245 0.0
C3530 C 0.83542 0.04024 0.22418 0.0
C3531 C 0.86278 0.06726 0.25391 0.0
C3532 C 0.85246 0.08015 0.27476 0.0
C3533 C 0.86075 0.1047 0.2819 0.0
C3534 C 0.88004 0.11651 0.2672 0.0
C3535 C 0.89094 0.10361 0.24593 0.0
C3536 C 0.88225 0.07872 0.23916 0.0
H3537 H 0.29445 0.47608 0.73081 0.0
H3538 H 0.32016 0.46939 0.65159 0.0
H3539 H 0.35522 0.44068 0.66531 0.0
H3540 H 0.35869 0.47619 0.75912 0.0
H3541 H 0.34941 0.45765 0.78694 0.0
H3542 H 0.32627 0.47815 0.77122 0.0
H3543 H 0.29561 0.43928 0.76547 0.0
H3544 H 0.3186 0.41867 0.7812 0.0
H3545 H 0.30702 0.41065 0.74947 0.0
H3546 H 0.3881 0.41355 0.68714 0.0
H3547 H 0.41589 0.38787 0.71616 0.0
H3548 H 0.36845 0.40999 0.78112 0.0
C3549 C 0.30756 0.46863 0.71644 0.0
C3550 C 0.30484 0.47539 0.69016 0.0
C3551 C 0.32227 0.46509 0.67189 0.0
C3552 C 0.34216 0.44859 0.67946 0.0
C3553 C 0.34452 0.4425 0.70543 0.0
C3554 C 0.32775 0.45213 0.72371 0.0
C3555 C 0.33481 0.44242 0.75039 0.0
C3556 C 0.34276 0.46494 0.76795 0.0
C3557 C 0.31269 0.42682 0.76232 0.0
C3558 C 0.35772 0.4254 0.74403 0.0
C3559 C 0.36318 0.42608 0.71802 0.0
C3560 C 0.38401 0.41277 0.70755 0.0
C3561 C 0.39973 0.39835 0.72411 0.0
C3562 C 0.3942 0.39695 0.7507 0.0
C3563 C 0.37288 0.41059 0.76075 0.0
H3564 H 0.77746 0.78085 0.45012 0.0
H3565 H 0.8019 0.83042 0.51307 0.0
H3566 H 0.78508 0.86803 0.48987 0.0
H3567 H 0.79062 0.82164 0.39898 0.0
H3568 H 0.76209 0.81486 0.38045 0.0
H3569 H 0.77467 0.79096 0.40218 0.0
H3570 H 0.73099 0.78847 0.42584 0.0
H3571 H 0.71802 0.81194 0.4038 0.0
H3572 H 0.7165 0.81757 0.43801 0.0
H3573 H 0.77241 0.90042 0.45774 0.0
H3574 H 0.75448 0.92638 0.42281 0.0
H3575 H 0.73174 0.85662 0.38233 0.0
C3576 C 0.77864 0.79946 0.45944 0.0
C3577 C 0.79174 0.80262 0.48325 0.0
C3578 C 0.79286 0.82747 0.49452 0.0
C3579 C 0.7832 0.849 0.48155 0.0
C3580 C 0.7717 0.84537 0.45764 0.0
C3581 C 0.76844 0.82122 0.44704 0.0
C3582 C 0.75478 0.82298 0.42116 0.0
C3583 C 0.77155 0.81196 0.39942 0.0
C3584 C 0.72851 0.80944 0.42228 0.0
C3585 C 0.75174 0.85201 0.41861 0.0
C3586 C 0.76205 0.86437 0.43981 0.0
C3587 C 0.76356 0.89102 0.44138 0.0
C3588 C 0.7534 0.90561 0.42122 0.0
C3589 C 0.74113 0.89366 0.39991 0.0
C3590 C 0.74061 0.86637 0.39849 0.0
H3591 H 0.67473 0.17016 0.97163 0.0
H3592 H 0.74138 0.21943 0.98296 0.0
H3593 H 0.76748 0.18979 0.95689 0.0
H3594 H 0.71114 0.10867 0.97517 0.0
H3595 H 0.69141 0.09323 0.95114 0.0
H3596 H 0.67788 0.11775 0.97166 0.0
H3597 H 0.66356 0.1434 0.93139 0.0
H3598 H 0.67729 0.11917 0.91074 0.0
H3599 H 0.68714 0.15233 0.90757 0.0
H3600 H 0.78506 0.15844 0.92661 0.0
H3601 H 0.79587 0.12322 0.89737 0.0
H3602 H 0.71964 0.09041 0.90745 0.0
C3603 C 0.69498 0.17436 0.96921 0.0
C3604 C 0.70592 0.19737 0.97916 0.0
C3605 C 0.73241 0.20228 0.97517 0.0
C3606 C 0.74744 0.18548 0.96048 0.0
C3607 C 0.73589 0.16352 0.95031 0.0
C3608 C 0.71047 0.15752 0.95484 0.0
C3609 C 0.70307 0.13254 0.94131 0.0
C3610 C 0.69542 0.11182 0.961 0.0
C3611 C 0.68149 0.13715 0.92158 0.0
C3612 C 0.72826 0.12579 0.92809 0.0
C3613 C 0.74671 0.14422 0.93353 0.0
C3614 C 0.771 0.1436 0.92259 0.0
C3615 C 0.77686 0.12347 0.90586 0.0
C3616 C 0.7587 0.10381 0.90026 0.0
C3617 C 0.73402 0.1049 0.91168 0.0
H3618 H 0.27171 0.58827 0.58514 0.0
H3619 H 0.20349 0.6299 0.60975 0.0
H3620 H 0.21262 0.66396 0.57901 0.0
H3621 H 0.30879 0.649 0.58381 0.0
H3622 H 0.32921 0.63888 0.55768 0.0
H3623 H 0.31595 0.6153 0.57939 0.0
H3624 H 0.29632 0.591 0.54047 0.0
H3625 H 0.30911 0.61486 0.51874 0.0
H3626 H 0.27515 0.60788 0.51875 0.0
H3627 H 0.22608 0.69187 0.54375 0.0
H3628 H 0.25089 0.72052 0.5155 0.0
H3629 H 0.31568 0.66776 0.51942 0.0
C3630 C 0.25871 0.60451 0.58391 0.0
C3631 C 0.23591 0.60535 0.59884 0.0
C3632 C 0.22017 0.62768 0.59758 0.0
C3633 C 0.22522 0.64741 0.58017 0.0
C3634 C 0.24699 0.64551 0.56497 0.0
C3635 C 0.2643 0.62548 0.56753 0.0
C3636 C 0.28828 0.63087 0.55162 0.0
C3637 C 0.31196 0.63368 0.56917 0.0
C3638 C 0.29245 0.6099 0.53118 0.0
C3639 C 0.28108 0.65654 0.53933 0.0
C3640 C 0.25683 0.66406 0.54691 0.0
C3641 C 0.2454 0.68662 0.53808 0.0
C3642 C 0.25969 0.70281 0.52211 0.0
C3643 C 0.28548 0.69683 0.51575 0.0
C3644 C 0.29601 0.67291 0.52383 0.0
H3645 H 0.24529 0.36287 0.11837 0.0
H3646 H 0.25479 0.42349 0.06159 0.0
H3647 H 0.2382 0.39484 0.02792 0.0
H3648 H 0.25908 0.30827 0.08031 0.0
H3649 H 0.23308 0.28846 0.09194 0.0
H3650 H 0.2464 0.31323 0.11225 0.0
H3651 H 0.20132 0.33362 0.11779 0.0
H3652 H 0.18781 0.30862 0.09784 0.0
H3653 H 0.18284 0.34198 0.08964 0.0
H3654 H 0.2251 0.35875 -0.00045 0.0
H3655 H 0.20658 0.32019 0.97914 0.0
H3656 H 0.19823 0.28468 0.05451 0.0
C3657 C 0.24367 0.37007 0.09886 0.0
C3658 C 0.25209 0.39523 0.09249 0.0
C3659 C 0.24907 0.40421 0.06691 0.0
C3660 C 0.23964 0.38804 0.04757 0.0
C3661 C 0.23223 0.3632 0.05422 0.0
C3662 C 0.23307 0.3545 0.07936 0.0
C3663 C 0.22163 0.32761 0.08131 0.0
C3664 C 0.24123 0.30826 0.09209 0.0
C3665 C 0.19694 0.32799 0.09761 0.0
C3666 C 0.21561 0.32226 0.05317 0.0
C3667 C 0.22212 0.34303 0.03794 0.0
C3668 C 0.21927 0.34255 0.01129 0.0
C3669 C 0.20861 0.32055 -0.00012 0.0
C3670 C 0.20043 0.29942 0.01511 0.0
C3671 C 0.2044 0.30029 0.04215 0.0
H3672 H 0.44884 0.78457 0.78392 0.0
H3673 H 0.51397 0.80616 0.83189 0.0
H3674 H 0.4917 0.78869 0.86973 0.0
H3675 H 0.39929 0.79719 0.82602 0.0
H3676 H 0.38038 0.76893 0.81897 0.0
H3677 H 0.40167 0.7819 0.79493 0.0
H3678 H 0.42476 0.73796 0.79091 0.0
H3679 H 0.40319 0.72462 0.81456 0.0
H3680 H 0.43745 0.72265 0.81935 0.0
H3681 H 0.46057 0.77353 0.9032 0.0
H3682 H 0.42569 0.75487 0.92928 0.0
H3683 H 0.38243 0.73874 0.85953 0.0
C3684 C 0.45888 0.78515 0.80216 0.0
C3685 C 0.48309 0.7976 0.8047 0.0
C3686 C 0.4951 0.79779 0.82927 0.0
C3687 C 0.48269 0.78764 0.85097 0.0
C3688 C 0.45851 0.77656 0.84789 0.0
C3689 C 0.44705 0.77446 0.824 0.0
C3690 C 0.42113 0.76106 0.82604 0.0
C3691 C 0.39934 0.77832 0.81589 0.0
C3692 C 0.42167 0.73503 0.81188 0.0
C3693 C 0.41927 0.7573 0.85499 0.0
C3694 C 0.4411 0.76635 0.86716 0.0
C3695 C 0.44355 0.76599 0.89387 0.0
C3696 C 0.42346 0.75555 0.90856 0.0
C3697 C 0.4012 0.74529 0.89659 0.0
C3698 C 0.39913 0.7464 0.86936 0.0
H3699 H 0.02928 0.23038 0.28511 0.0
H3700 H 0.00497 0.1626 0.32784 0.0
H3701 H 0.03056 0.17675 0.36487 0.0
H3702 H 0.09409 0.23024 0.3074 0.0
H3703 H 0.09696 0.26478 0.30982 0.0
H3704 H 0.07511 0.25075 0.28682 0.0
H3705 H 0.03744 0.27684 0.30629 0.0
H3706 H 0.05922 0.29118 0.32917 0.0
H3707 H 0.03089 0.27456 0.34029 0.0
H3708 H 0.05988 0.19651 0.39676 0.0
H3709 H 0.09009 0.22224 0.4227 0.0
H3710 H 0.09752 0.2769 0.35981 0.0
C3711 C 0.02919 0.21859 0.3023 0.0
C3712 C 0.01465 0.19546 0.30345 0.0
C3713 C 0.01519 0.18072 0.32646 0.0
C3714 C 0.02996 0.18844 0.34763 0.0
C3715 C 0.04432 0.21097 0.34569 0.0
C3716 C 0.04399 0.226 0.32375 0.0
C3717 C 0.06173 0.24912 0.32679 0.0
C3718 C 0.08325 0.24868 0.3065 0.0
C3719 C 0.0464 0.27442 0.32557 0.0
C3720 C 0.0723 0.24439 0.35369 0.0
C3721 C 0.06182 0.2223 0.36418 0.0
C3722 C 0.0682 0.21388 0.38882 0.0
C3723 C 0.08545 0.22863 0.40339 0.0
C3724 C 0.09633 0.25153 0.39333 0.0
C3725 C 0.08981 0.25932 0.36797 0.0
H3726 H 0.98399 0.6885 0.16646 0.0
H3727 H 0.94987 0.7215 0.23556 0.0
H3728 H 0.92033 0.74645 0.20888 0.0
H3729 H 0.9772 0.74398 0.12461 0.0
H3730 H 0.96808 0.72513 0.09691 0.0
H3731 H 0.98863 0.71136 0.12122 0.0
H3732 H 0.95675 0.67342 0.12672 0.0
H3733 H 0.93599 0.68717 0.10257 0.0
H3734 H 0.92357 0.68008 0.13418 0.0
H3735 H 0.89274 0.76633 0.17566 0.0
H3736 H 0.86929 0.781 0.13741 0.0
H3737 H 0.9185 0.7338 0.08891 0.0
C3738 C 0.97039 0.70091 0.17616 0.0
C3739 C 0.96994 0.703 0.20346 0.0
C3740 C 0.95166 0.71985 0.21488 0.0
C3741 C 0.93437 0.73401 0.19983 0.0
C3742 C 0.93508 0.73102 0.17324 0.0
C3743 C 0.95254 0.71491 0.16141 0.0
C3744 C 0.94816 0.71437 0.13244 0.0
C3745 C 0.97194 0.72431 0.11794 0.0
C3746 C 0.94067 0.68714 0.12345 0.0
C3747 C 0.92566 0.73289 0.12993 0.0
C3748 C 0.9185 0.74215 0.15382 0.0
C3749 C 0.89817 0.75927 0.15683 0.0
C3750 C 0.8849 0.76743 0.13487 0.0
C3751 C 0.8919 0.75857 0.10997 0.0
C3752 C 0.91253 0.74087 0.10759 0.0
H3753 H 0.52719 0.26249 0.70696 0.0
H3754 H 0.50826 0.33366 0.6671 0.0
H3755 H 0.53406 0.31982 0.6301 0.0
H3756 H 0.59267 0.26046 0.68665 0.0
H3757 H 0.59375 0.22594 0.68293 0.0
H3758 H 0.57206 0.24023 0.70588 0.0
H3759 H 0.53361 0.21695 0.68437 0.0
H3760 H 0.55519 0.20238 0.66148 0.0
H3761 H 0.5281 0.22093 0.65033 0.0
H3762 H 0.56269 0.29953 0.59789 0.0
H3763 H 0.59215 0.27314 0.57171 0.0
H3764 H 0.59504 0.2159 0.63263 0.0
C3765 C 0.52834 0.27512 0.69041 0.0
C3766 C 0.51523 0.29905 0.68996 0.0
C3767 C 0.51734 0.31491 0.66781 0.0
C3768 C 0.53225 0.30737 0.64671 0.0
C3769 C 0.54517 0.28396 0.64796 0.0
C3770 C 0.54337 0.26798 0.66915 0.0
C3771 C 0.55989 0.24411 0.66566 0.0
C3772 C 0.58084 0.24261 0.68652 0.0
C3773 C 0.5432 0.21965 0.66544 0.0
C3774 C 0.57138 0.24939 0.6393 0.0
C3775 C 0.56245 0.27244 0.62947 0.0
C3776 C 0.56985 0.28143 0.60533 0.0
C3777 C 0.5866 0.26631 0.59062 0.0
C3778 C 0.596 0.24255 0.60014 0.0
C3779 C 0.58843 0.23414 0.62496 0.0
H3780 H 0.82306 0.4668 0.82239 0.0
H3781 H 0.77878 0.48886 0.75493 0.0
H3782 H 0.80784 0.46342 0.72759 0.0
H3783 H 0.8863 0.46941 0.791 0.0
H3784 H 0.89856 0.44188 0.80825 0.0
H3785 H 0.87458 0.46223 0.82287 0.0
H3786 H 0.84523 0.42254 0.82982 0.0
H3787 H 0.86902 0.40206 0.81512 0.0
H3788 H 0.83668 0.40267 0.80266 0.0
H3789 H 0.8376 0.43205 0.70851 0.0
H3790 H 0.87078 0.40106 0.69673 0.0
H3791 H 0.901 0.40263 0.77462 0.0
C3792 C 0.81981 0.4668 0.8018 0.0
C3793 C 0.79839 0.47976 0.79088 0.0
C3794 C 0.79467 0.47879 0.76387 0.0
C3795 C 0.81117 0.46446 0.74814 0.0
C3796 C 0.83162 0.45147 0.75957 0.0
C3797 C 0.83637 0.45279 0.78566 0.0
C3798 C 0.85977 0.43665 0.7928 0.0
C3799 C 0.88107 0.45356 0.80441 0.0
C3800 C 0.85222 0.41468 0.81119 0.0
C3801 C 0.86745 0.42619 0.76655 0.0
C3802 C 0.85045 0.43469 0.74791 0.0
C3803 C 0.85154 0.42591 0.72272 0.0
C3804 C 0.87067 0.40827 0.71619 0.0
C3805 C 0.88924 0.40002 0.73442 0.0
C3806 C 0.88761 0.40918 0.76006 0.0
H3807 H 0.29138 0.05693 0.19395 0.0
H3808 H 0.31551 0.98118 0.21941 0.0
H3809 H 0.35256 0.00076 0.24222 0.0
H3810 H 0.35482 0.08038 0.18158 0.0
H3811 H 0.34819 0.11287 0.19187 0.0
H3812 H 0.32274 0.0932 0.1789 0.0
H3813 H 0.29576 0.1004 0.22013 0.0
H3814 H 0.32096 0.12035 0.23314 0.0
H3815 H 0.3095 0.09293 0.25113 0.0
H3816 H 0.38812 0.0281 0.25975 0.0
H3817 H 0.41855 0.06175 0.27385 0.0
H3818 H 0.37118 0.12028 0.23791 0.0
C3819 C 0.30428 0.0446 0.20472 0.0
C3820 C 0.30068 0.01761 0.20518 0.0
C3821 C 0.31811 0.00189 0.21892 0.0
C3822 C 0.33912 0.01284 0.23187 0.0
C3823 C 0.3425 0.03949 0.2306 0.0
C3824 C 0.32551 0.0552 0.2175 0.0
C3825 C 0.33413 0.08314 0.21829 0.0
C3826 C 0.34033 0.09297 0.19104 0.0
C3827 C 0.31388 0.1002 0.23148 0.0
C3828 C 0.35836 0.08077 0.23439 0.0
C3829 C 0.36299 0.05534 0.2409 0.0
C3830 C 0.3847 0.04806 0.25479 0.0
C3831 C 0.40202 0.06726 0.26247 0.0
C3832 C 0.39739 0.09347 0.2566 0.0
C3833 C 0.37521 0.10032 0.24245 0.0
H3834 H 0.19929 0.97532 0.73204 0.0
H3835 H 0.17016 0.97605 0.65373 0.0
H3836 H 0.13498 0.94695 0.66641 0.0
H3837 H 0.18666 0.90963 0.746 0.0
H3838 H 0.1761 0.91494 0.77863 0.0
H3839 H 0.19857 0.93688 0.76397 0.0
H3840 H 0.16815 0.97514 0.77366 0.0
H3841 H 0.14565 0.95334 0.78855 0.0
H3842 H 0.13531 0.97395 0.76263 0.0
H3843 H 0.10324 0.9175 0.68698 0.0
H3844 H 0.07637 0.8897 0.71483 0.0
H3845 H 0.12617 0.90662 0.77967 0.0
C3846 C 0.18532 0.9695 0.7177 0.0
C3847 C 0.18725 0.97823 0.69196 0.0
C3848 C 0.16872 0.97011 0.67367 0.0
C3849 C 0.14876 0.95341 0.68063 0.0
C3850 C 0.14742 0.94506 0.70604 0.0
C3851 C 0.16501 0.95296 0.7244 0.0
C3852 C 0.1589 0.94111 0.75042 0.0
C3853 C 0.1814 0.92465 0.76032 0.0
C3854 C 0.15157 0.96213 0.76997 0.0
C3855 C 0.13579 0.92461 0.74348 0.0
C3856 C 0.12928 0.92752 0.71786 0.0
C3857 C 0.10813 0.91501 0.70708 0.0
C3858 C 0.093 0.89928 0.72297 0.0
C3859 C 0.0994 0.89586 0.7492 0.0
C3860 C 0.12117 0.90856 0.75952 0.0
H3861 H 0.61533 0.57961 0.21324 0.0
H3862 H 0.59053 0.62538 0.27847 0.0
H3863 H 0.62231 0.60319 0.30621 0.0
H3864 H 0.62316 0.52066 0.24981 0.0
H3865 H 0.65059 0.50972 0.23166 0.0
H3866 H 0.62681 0.52995 0.21657 0.0
H3867 H 0.66233 0.56259 0.20404 0.0
H3868 H 0.68618 0.54246 0.21911 0.0
H3869 H 0.68297 0.57569 0.22869 0.0
H3870 H 0.65557 0.57613 0.32677 0.0
H3871 H 0.68849 0.54464 0.33995 0.0
H3872 H 0.69189 0.515 0.26193 0.0
C3873 C 0.61686 0.58498 0.23335 0.0
C3874 C 0.60082 0.60422 0.24393 0.0
C3875 C 0.60278 0.61063 0.27026 0.0
C3876 C 0.62075 0.5982 0.28604 0.0
C3877 C 0.63623 0.57916 0.27518 0.0
C3878 C 0.6344 0.57236 0.24951 0.0
C3879 C 0.65252 0.5503 0.24316 0.0
C3880 C 0.63737 0.52624 0.2348 0.0
C3881 C 0.67217 0.55826 0.22253 0.0
C3882 C 0.66524 0.54623 0.26915 0.0
C3883 C 0.65535 0.56304 0.28728 0.0
C3884 C 0.66341 0.5628 0.31281 0.0
C3885 C 0.68198 0.54479 0.32013 0.0
C3886 C 0.6924 0.52733 0.302 0.0
C3887 C 0.68412 0.52818 0.2761 0.0
loop_
_geom_bond_atom_site_label_1
_geom_bond_atom_site_label_2
_geom_bond_distance
_geom_bond_site_symmetry_2
_ccdc_geom_bond_type
Cd0 N3 2.334 . S
Cd0 N29 2.304 . S
Cd0 O36 2.268 . S
Cd0 O39 2.273 . S
Cd0 O40 2.417 . S
Cd0 O41 2.330 . S
Cd1 N16 2.304 . S
Cd1 N20 2.334 . S
Cd1 O37 2.273 . S
Cd1 O38 2.268 . S
Cd1 O42 2.417 . S
Cd1 O43 2.330 . S
C2 N3 1.332 . S
C2 C6 1.381 . S
C2 H8 0.931 . S
N3 Cd0 2.334 . S
N3 C2 1.332 . S
N3 C7 1.328 . S
C4 C5 1.396 . S
C4 C7 1.378 . S
C4 H46 0.931 . S
C5 C4 1.396 . S
C5 C6 1.382 . S
C6 C2 1.381 . S
C6 C5 1.382 . S
C6 H47 0.930 . S
C7 N3 1.328 . S
C7 C4 1.378 . S
C7 H9 0.930 . S
H8 C2 0.931 . S
H9 C7 0.930 . S
C10 O36 1.238 . S
C10 O37 1.253 . S
C11 C12 1.379 . S
C11 N16 1.337 . S
C11 H17 0.929 . S
C12 C11 1.379 . S
C12 C13 1.380 . S
C12 H48 0.929 . S
C13 C12 1.380 . S
C13 C14 1.399 . S
C14 C13 1.399 . S
C14 C15 1.376 . S
C14 H49 0.931 . S
C15 C14 1.376 . S
C15 N16 1.338 . S
C15 H18 0.930 . S
N16 Cd1 2.304 . S
N16 C11 1.337 . S
N16 C15 1.338 . S
H17 C11 0.929 . S
H18 C15 0.930 . S
C19 N20 1.332 . S
C19 C23 1.381 . S
C19 H25 0.931 . S
N20 Cd1 2.334 . S
N20 C19 1.332 . S
N20 C24 1.328 . S
C21 C22 1.396 . S
C21 C24 1.378 . S
C21 H50 0.931 . S
C22 C21 1.396 . S
C22 C23 1.382 . S
C23 C19 1.381 . S
C23 C22 1.382 . S
C23 H51 0.930 . S
C24 N20 1.328 . S
C24 C21 1.378 . S
C24 H26 0.930 . S
H25 C19 0.931 . S
H26 C24 0.930 . S
C27 O38 1.238 . S
C27 O39 1.253 . S
C28 O40 1.239 . S
C28 O41 1.230 . S
N29 Cd0 2.304 . S
N29 C30 1.337 . S
N29 C34 1.338 . S
C30 N29 1.337 . S
C30 C31 1.379 . S
C30 H44 0.929 . S
C31 C30 1.379 . S
C31 C32 1.380 . S
C31 H52 0.929 . S
C32 C31 1.380 . S
C32 C33 1.399 . S
C33 C32 1.399 . S
C33 C34 1.376 . S
C33 H53 0.931 . S
C34 N29 1.338 . S
C34 C33 1.376 . S
C34 H45 0.930 . S
C35 O42 1.239 . S
C35 O43 1.230 . S
O36 Cd0 2.268 . S
O36 C10 1.238 . S
O37 Cd1 2.273 . S
O37 C10 1.253 . S
O38 Cd1 2.268 . S
O38 C27 1.238 . S
O39 Cd0 2.273 . S
O39 C27 1.253 . S
O40 Cd0 2.417 . S
O40 C28 1.239 . S
O41 Cd0 2.330 . S
O41 C28 1.230 . S
O42 Cd1 2.417 . S
O42 C35 1.239 . S
O43 Cd1 2.330 . S
O43 C35 1.230 . S
H44 C30 0.929 . S
H45 C34 0.930 . S
H46 C4 0.931 . S
H47 C6 0.930 . S
H48 C12 0.929 . S
H49 C14 0.931 . S
H50 C21 0.931 . S
H51 C23 0.930 . S
H52 C31 0.929 . S
H53 C33 0.931 . S
Cd54 N57 2.334 . S
Cd54 N83 2.304 . S
Cd54 O90 2.268 . S
Cd54 O93 2.273 . S
Cd54 O94 2.417 1_556 S
Cd54 O95 2.330 1_556 S
Cd55 N70 2.304 . S
Cd55 N74 2.334 . S
Cd55 O91 2.273 . S
Cd55 O92 2.268 . S
Cd55 O96 2.417 . S
Cd55 O97 2.330 . S
C56 N57 1.332 . S
C56 C60 1.381 . S
C56 H62 0.931 . S
N57 Cd54 2.334 . S
N57 C56 1.332 . S
N57 C61 1.328 . S
C58 C59 1.396 . S
C58 C61 1.378 . S
C58 H100 0.931 . S
C59 C58 1.396 . S
C59 C60 1.382 . S
C60 C56 1.381 . S
C60 C59 1.382 . S
C60 H101 0.930 . S
C61 N57 1.328 . S
C61 C58 1.378 . S
C61 H63 0.930 . S
H62 C56 0.931 . S
H63 C61 0.930 . S
C64 O90 1.238 . S
C64 O91 1.253 . S
C65 C66 1.379 . S
C65 N70 1.337 . S
C65 H71 0.929 . S
C66 C65 1.379 . S
C66 C67 1.380 . S
C66 H102 0.929 . S
C67 C66 1.380 . S
C67 C68 1.399 . S
C68 C67 1.399 . S
C68 C69 1.376 . S
C68 H103 0.931 . S
C69 C68 1.376 . S
C69 N70 1.338 . S
C69 H72 0.930 . S
N70 Cd55 2.304 . S
N70 C65 1.337 . S
N70 C69 1.338 . S
H71 C65 0.929 . S
H72 C69 0.930 . S
C73 N74 1.332 . S
C73 C77 1.381 . S
C73 H79 0.931 . S
N74 Cd55 2.334 . S
N74 C73 1.332 . S
N74 C78 1.328 . S
C75 C76 1.396 . S
C75 C78 1.378 . S
C75 H104 0.931 . S
C76 C75 1.396 . S
C76 C77 1.382 . S
C77 C73 1.381 . S
C77 C76 1.382 . S
C77 H105 0.930 . S
C78 N74 1.328 . S
C78 C75 1.378 . S
C78 H80 0.930 . S
H79 C73 0.931 . S
H80 C78 0.930 . S
C81 O92 1.238 . S
C81 O93 1.253 . S
C82 O94 1.239 . S
C82 O95 1.230 . S
N83 Cd54 2.304 . S
N83 C84 1.337 . S
N83 C88 1.338 1_556 S
C84 N83 1.337 . S
C84 C85 1.379 . S
C84 H98 0.929 . S
C85 C84 1.379 . S
C85 C86 1.380 1_556 S
C85 H106 0.929 . S
C86 C85 1.380 1_554 S
C86 C87 1.399 . S
C87 C86 1.399 . S
C87 C88 1.376 . S
C87 H107 0.931 . S
C88 N83 1.338 1_554 S
C88 C87 1.376 . S
C88 H99 0.930 . S
C89 O96 1.239 . S
C89 O97 1.230 . S
O90 Cd54 2.268 . S
O90 C64 1.238 . S
O91 Cd55 2.273 . S
O91 C64 1.253 . S
O92 Cd55 2.268 . S
O92 C81 1.238 . S
O93 Cd54 2.273 . S
O93 C81 1.253 . S
O94 Cd54 2.417 1_554 S
O94 C82 1.239 . S
O95 Cd54 2.330 1_554 S
O95 C82 1.230 . S
O96 Cd55 2.417 . S
O96 C89 1.239 . S
O97 Cd55 2.330 . S
O97 C89 1.230 . S
H98 C84 0.929 . S
H99 C88 0.930 . S
H100 C58 0.931 . S
H101 C60 0.930 . S
H102 C66 0.929 . S
H103 C68 0.931 . S
H104 C75 0.931 . S
H105 C77 0.930 . S
H106 C85 0.929 . S
H107 C87 0.931 . S
Cd108 N111 2.334 . S
Cd108 N137 2.304 . S
Cd108 O144 2.268 . S
Cd108 O147 2.273 . S
Cd108 O148 2.417 . S
Cd108 O149 2.330 . S
Cd109 N124 2.304 . S
Cd109 N128 2.334 . S
Cd109 O145 2.273 . S
Cd109 O146 2.268 . S
Cd109 O150 2.417 . S
Cd109 O151 2.330 . S
C110 N111 1.332 . S
C110 C114 1.381 . S
C110 H116 0.931 . S
N111 Cd108 2.334 . S
N111 C110 1.332 . S
N111 C115 1.328 . S
C112 C113 1.396 . S
C112 C115 1.378 . S
C112 H154 0.931 . S
C113 C112 1.396 . S
C113 C114 1.382 . S
C114 C110 1.381 . S
C114 C113 1.382 . S
C114 H155 0.930 . S
C115 N111 1.328 . S
C115 C112 1.378 . S
C115 H117 0.930 . S
H116 C110 0.931 . S
H117 C115 0.930 . S
C118 O144 1.238 . S
C118 O145 1.253 . S
C119 C120 1.379 . S
C119 N124 1.337 . S
C119 H125 0.929 . S
C120 C119 1.379 . S
C120 C121 1.380 . S
C120 H156 0.929 . S
C121 C120 1.380 . S
C121 C122 1.399 . S
C122 C121 1.399 . S
C122 C123 1.376 . S
C122 H157 0.931 . S
C123 C122 1.376 . S
C123 N124 1.338 . S
C123 H126 0.930 . S
N124 Cd109 2.304 . S
N124 C119 1.337 . S
N124 C123 1.338 . S
H125 C119 0.929 . S
H126 C123 0.930 . S
C127 N128 1.332 . S
C127 C131 1.381 . S
C127 H133 0.931 . S
N128 Cd109 2.334 . S
N128 C127 1.332 . S
N128 C132 1.328 . S
C129 C130 1.396 . S
C129 C132 1.378 . S
C129 H158 0.931 . S
C130 C129 1.396 . S
C130 C131 1.382 . S
C131 C127 1.381 . S
C131 C130 1.382 . S
C131 H159 0.930 . S
C132 N128 1.328 . S
C132 C129 1.378 . S
C132 H134 0.930 . S
H133 C127 0.931 . S
H134 C132 0.930 . S
C135 O146 1.238 . S
C135 O147 1.253 . S
C136 O148 1.239 . S
C136 O149 1.230 . S
N137 Cd108 2.304 . S
N137 C138 1.337 . S
N137 C142 1.338 . S
C138 N137 1.337 . S
C138 C139 1.379 . S
C138 H152 0.929 . S
C139 C138 1.379 . S
C139 C140 1.380 . S
C139 H160 0.929 . S
C140 C139 1.380 . S
C140 C141 1.399 . S
C141 C140 1.399 . S
C141 C142 1.376 . S
C141 H161 0.931 . S
C142 N137 1.338 . S
C142 C141 1.376 . S
C142 H153 0.930 . S
C143 O150 1.239 . S
C143 O151 1.230 . S
O144 Cd108 2.268 . S
O144 C118 1.238 . S
O145 Cd109 2.273 . S
O145 C118 1.253 . S
O146 Cd109 2.268 . S
O146 C135 1.238 . S
O147 Cd108 2.273 . S
O147 C135 1.253 . S
O148 Cd108 2.417 . S
O148 C136 1.239 . S
O149 Cd108 2.330 . S
O149 C136 1.230 . S
O150 Cd109 2.417 . S
O150 C143 1.239 . S
O151 Cd109 2.330 . S
O151 C143 1.230 . S
H152 C138 0.929 . S
H153 C142 0.930 . S
H154 C112 0.931 . S
H155 C114 0.930 . S
H156 C120 0.929 . S
H157 C122 0.931 . S
H158 C129 0.931 . S
H159 C131 0.930 . S
H160 C139 0.929 . S
H161 C141 0.931 . S
Cd162 N165 2.334 . S
Cd162 N191 2.304 . S
Cd162 O198 2.268 . S
Cd162 O201 2.273 . S
Cd162 O202 2.417 1_554 S
Cd162 O203 2.330 1_554 S
Cd163 N178 2.304 . S
Cd163 N182 2.334 . S
Cd163 O199 2.273 . S
Cd163 O200 2.268 . S
Cd163 O204 2.417 . S
Cd163 O205 2.330 . S
C164 N165 1.332 . S
C164 C168 1.381 . S
C164 H170 0.931 . S
N165 Cd162 2.334 . S
N165 C164 1.332 . S
N165 C169 1.328 . S
C166 C167 1.396 . S
C166 C169 1.378 . S
C166 H208 0.931 . S
C167 C166 1.396 . S
C167 C168 1.382 . S
C168 C164 1.381 . S
C168 C167 1.382 . S
C168 H209 0.930 . S
C169 N165 1.328 . S
C169 C166 1.378 . S
C169 H171 0.930 . S
H170 C164 0.931 . S
H171 C169 0.930 . S
C172 O198 1.238 . S
C172 O199 1.253 . S
C173 C174 1.379 . S
C173 N178 1.337 . S
C173 H179 0.929 . S
C174 C173 1.379 . S
C174 C175 1.380 . S
C174 H210 0.929 . S
C175 C174 1.380 . S
C175 C176 1.399 . S
C176 C175 1.399 . S
C176 C177 1.376 . S
C176 H211 0.931 . S
C177 C176 1.376 . S
C177 N178 1.338 . S
C177 H180 0.930 . S
N178 Cd163 2.304 . S
N178 C173 1.337 . S
N178 C177 1.338 . S
H179 C173 0.929 . S
H180 C177 0.930 . S
C181 N182 1.332 . S
C181 C185 1.381 . S
C181 H187 0.931 . S
N182 Cd163 2.334 . S
N182 C181 1.332 . S
N182 C186 1.328 . S
C183 C184 1.396 . S
C183 C186 1.378 . S
C183 H212 0.931 . S
C184 C183 1.396 . S
C184 C185 1.382 . S
C185 C181 1.381 . S
C185 C184 1.382 . S
C185 H213 0.930 . S
C186 N182 1.328 . S
C186 C183 1.378 . S
C186 H188 0.930 . S
H187 C181 0.931 . S
H188 C186 0.930 . S
C189 O200 1.238 . S
C189 O201 1.253 . S
C190 O202 1.239 . S
C190 O203 1.230 . S
N191 Cd162 2.304 . S
N191 C192 1.337 . S
N191 C196 1.338 1_554 S
C192 N191 1.337 . S
C192 C193 1.379 . S
C192 H206 0.929 . S
C193 C192 1.379 . S
C193 C194 1.380 1_554 S
C193 H214 0.929 . S
C194 C193 1.380 1_556 S
C194 C195 1.399 . S
C195 C194 1.399 . S
C195 C196 1.376 . S
C195 H215 0.931 . S
C196 N191 1.338 1_556 S
C196 C195 1.376 . S
C196 H207 0.930 . S
C197 O204 1.239 . S
C197 O205 1.230 . S
O198 Cd162 2.268 . S
O198 C172 1.238 . S
O199 Cd163 2.273 . S
O199 C172 1.253 . S
O200 Cd163 2.268 . S
O200 C189 1.238 . S
O201 Cd162 2.273 . S
O201 C189 1.253 . S
O202 Cd162 2.417 1_556 S
O202 C190 1.239 . S
O203 Cd162 2.330 1_556 S
O203 C190 1.230 . S
O204 Cd163 2.417 . S
O204 C197 1.239 . S
O205 Cd163 2.330 . S
O205 C197 1.230 . S
H206 C192 0.929 . S
H207 C196 0.930 . S
H208 C166 0.931 . S
H209 C168 0.930 . S
H210 C174 0.929 . S
H211 C176 0.931 . S
H212 C183 0.931 . S
H213 C185 0.930 . S
H214 C193 0.929 . S
H215 C195 0.931 . S
Cd216 N219 2.334 . S
Cd216 N245 2.304 . S
Cd216 O252 2.268 . S
Cd216 O255 2.273 . S
Cd216 O256 2.417 . S
Cd216 O257 2.330 . S
Cd217 N232 2.304 . S
Cd217 N236 2.334 . S
Cd217 O253 2.273 . S
Cd217 O254 2.268 . S
Cd217 O258 2.417 . S
Cd217 O259 2.330 . S
C218 N219 1.332 . S
C218 C222 1.381 . S
C218 H224 0.931 . S
N219 Cd216 2.334 . S
N219 C218 1.332 . S
N219 C223 1.328 . S
C220 C221 1.396 . S
C220 C223 1.378 . S
C220 H262 0.931 . S
C221 C220 1.396 . S
C221 C222 1.382 . S
C222 C218 1.381 . S
C222 C221 1.382 . S
C222 H263 0.930 . S
C223 N219 1.328 . S
C223 C220 1.378 . S
C223 H225 0.930 . S
H224 C218 0.931 . S
H225 C223 0.930 . S
C226 O252 1.238 . S
C226 O253 1.253 . S
C227 C228 1.379 . S
C227 N232 1.337 . S
C227 H233 0.929 . S
C228 C227 1.379 . S
C228 C229 1.380 . S
C228 H264 0.929 . S
C229 C228 1.380 . S
C229 C230 1.399 . S
C230 C229 1.399 . S
C230 C231 1.376 . S
C230 H265 0.931 . S
C231 C230 1.376 . S
C231 N232 1.338 . S
C231 H234 0.930 . S
N232 Cd217 2.304 . S
N232 C227 1.337 . S
N232 C231 1.338 . S
H233 C227 0.929 . S
H234 C231 0.930 . S
C235 N236 1.332 . S
C235 C239 1.381 . S
C235 H241 0.931 . S
N236 Cd217 2.334 . S
N236 C235 1.332 . S
N236 C240 1.328 . S
C237 C238 1.396 . S
C237 C240 1.378 . S
C237 H266 0.931 . S
C238 C237 1.396 . S
C238 C239 1.382 . S
C239 C235 1.381 . S
C239 C238 1.382 . S
C239 H267 0.930 . S
C240 N236 1.328 . S
C240 C237 1.378 . S
C240 H242 0.930 . S
H241 C235 0.931 . S
H242 C240 0.930 . S
C243 O254 1.238 . S
C243 O255 1.253 . S
C244 O256 1.239 . S
C244 O257 1.230 . S
N245 Cd216 2.304 . S
N245 C246 1.337 . S
N245 C250 1.338 . S
C246 N245 1.337 . S
C246 C247 1.379 . S
C246 H260 0.929 . S
C247 C246 1.379 . S
C247 C248 1.380 . S
C247 H268 0.929 . S
C248 C247 1.380 . S
C248 C249 1.399 . S
C249 C248 1.399 . S
C249 C250 1.376 . S
C249 H269 0.931 . S
C250 N245 1.338 . S
C250 C249 1.376 . S
C250 H261 0.930 . S
C251 O258 1.239 . S
C251 O259 1.230 . S
O252 Cd216 2.268 . S
O252 C226 1.238 . S
O253 Cd217 2.273 . S
O253 C226 1.253 . S
O254 Cd217 2.268 . S
O254 C243 1.238 . S
O255 Cd216 2.273 . S
O255 C243 1.253 . S
O256 Cd216 2.417 . S
O256 C244 1.239 . S
O257 Cd216 2.330 . S
O257 C244 1.230 . S
O258 Cd217 2.417 . S
O258 C251 1.239 . S
O259 Cd217 2.330 . S
O259 C251 1.230 . S
H260 C246 0.929 . S
H261 C250 0.930 . S
H262 C220 0.931 . S
H263 C222 0.930 . S
H264 C228 0.929 . S
H265 C230 0.931 . S
H266 C237 0.931 . S
H267 C239 0.930 . S
H268 C247 0.929 . S
H269 C249 0.931 . S
Cd270 N273 2.334 . S
Cd270 N299 2.304 . S
Cd270 O306 2.268 . S
Cd270 O309 2.273 . S
Cd270 O310 2.417 . S
Cd270 O311 2.330 . S
Cd271 N286 2.304 . S
Cd271 N290 2.334 . S
Cd271 O307 2.273 . S
Cd271 O308 2.268 . S
Cd271 O312 2.417 1_455 S
Cd271 O313 2.330 1_455 S
C272 N273 1.332 . S
C272 C276 1.381 . S
C272 H278 0.931 . S
N273 Cd270 2.334 . S
N273 C272 1.332 . S
N273 C277 1.328 . S
C274 C275 1.396 . S
C274 C277 1.378 . S
C274 H316 0.931 . S
C275 C274 1.396 . S
C275 C276 1.382 . S
C276 C272 1.381 . S
C276 C275 1.382 . S
C276 H317 0.930 . S
C277 N273 1.328 . S
C277 C274 1.378 . S
C277 H279 0.930 . S
H278 C272 0.931 . S
H279 C277 0.930 . S
C280 O306 1.238 . S
C280 O307 1.253 . S
C281 C282 1.379 . S
C281 N286 1.337 . S
C281 H287 0.929 . S
C282 C281 1.379 . S
C282 C283 1.380 1_455 S
C282 H318 0.929 . S
C283 C282 1.380 1_655 S
C283 C284 1.399 . S
C284 C283 1.399 . S
C284 C285 1.376 . S
C284 H319 0.931 . S
C285 C284 1.376 . S
C285 N286 1.338 1_655 S
C285 H288 0.930 . S
N286 Cd271 2.304 . S
N286 C281 1.337 . S
N286 C285 1.338 1_455 S
H287 C281 0.929 . S
H288 C285 0.930 . S
C289 N290 1.332 . S
C289 C293 1.381 . S
C289 H295 0.931 . S
N290 Cd271 2.334 . S
N290 C289 1.332 . S
N290 C294 1.328 . S
C291 C292 1.396 . S
C291 C294 1.378 . S
C291 H320 0.931 . S
C292 C291 1.396 . S
C292 C293 1.382 . S
C293 C289 1.381 . S
C293 C292 1.382 . S
C293 H321 0.930 . S
C294 N290 1.328 . S
C294 C291 1.378 . S
C294 H296 0.930 . S
H295 C289 0.931 . S
H296 C294 0.930 . S
C297 O308 1.238 . S
C297 O309 1.253 . S
C298 O310 1.239 . S
C298 O311 1.230 . S
N299 Cd270 2.304 . S
N299 C300 1.337 . S
N299 C304 1.338 . S
C300 N299 1.337 . S
C300 C301 1.379 . S
C300 H314 0.929 . S
C301 C300 1.379 . S
C301 C302 1.380 . S
C301 H322 0.929 . S
C302 C301 1.380 . S
C302 C303 1.399 . S
C303 C302 1.399 . S
C303 C304 1.376 . S
C303 H323 0.931 . S
C304 N299 1.338 . S
C304 C303 1.376 . S
C304 H315 0.930 . S
C305 O312 1.239 . S
C305 O313 1.230 . S
O306 Cd270 2.268 . S
O306 C280 1.238 . S
O307 Cd271 2.273 . S
O307 C280 1.253 . S
O308 Cd271 2.268 . S
O308 C297 1.238 . S
O309 Cd270 2.273 . S
O309 C297 1.253 . S
O310 Cd270 2.417 . S
O310 C298 1.239 . S
O311 Cd270 2.330 . S
O311 C298 1.230 . S
O312 Cd271 2.417 1_655 S
O312 C305 1.239 . S
O313 Cd271 2.330 1_655 S
O313 C305 1.230 . S
H314 C300 0.929 . S
H315 C304 0.930 . S
H316 C274 0.931 . S
H317 C276 0.930 . S
H318 C282 0.929 . S
H319 C284 0.931 . S
H320 C291 0.931 . S
H321 C293 0.930 . S
H322 C301 0.929 . S
H323 C303 0.931 . S
Cd324 N327 2.334 . S
Cd324 N353 2.304 . S
Cd324 O360 2.268 . S
Cd324 O363 2.273 . S
Cd324 O364 2.417 . S
Cd324 O365 2.330 . S
Cd325 N340 2.304 . S
Cd325 N344 2.334 . S
Cd325 O361 2.273 . S
Cd325 O362 2.268 . S
Cd325 O366 2.417 1_655 S
Cd325 O367 2.330 1_655 S
C326 N327 1.332 . S
C326 C330 1.381 . S
C326 H332 0.931 . S
N327 Cd324 2.334 . S
N327 C326 1.332 . S
N327 C331 1.328 . S
C328 C329 1.396 . S
C328 C331 1.378 . S
C328 H370 0.931 . S
C329 C328 1.396 . S
C329 C330 1.382 . S
C330 C326 1.381 . S
C330 C329 1.382 . S
C330 H371 0.930 . S
C331 N327 1.328 . S
C331 C328 1.378 . S
C331 H333 0.930 . S
H332 C326 0.931 . S
H333 C331 0.930 . S
C334 O360 1.238 . S
C334 O361 1.253 . S
C335 C336 1.379 . S
C335 N340 1.337 . S
C335 H341 0.929 . S
C336 C335 1.379 . S
C336 C337 1.380 1_655 S
C336 H372 0.929 . S
C337 C336 1.380 1_455 S
C337 C338 1.399 . S
C338 C337 1.399 . S
C338 C339 1.376 . S
C338 H373 0.931 . S
C339 C338 1.376 . S
C339 N340 1.338 1_455 S
C339 H342 0.930 . S
N340 Cd325 2.304 . S
N340 C335 1.337 . S
N340 C339 1.338 1_655 S
H341 C335 0.929 . S
H342 C339 0.930 . S
C343 N344 1.332 . S
C343 C347 1.381 . S
C343 H349 0.931 . S
N344 Cd325 2.334 . S
N344 C343 1.332 . S
N344 C348 1.328 . S
C345 C346 1.396 . S
C345 C348 1.378 . S
C345 H374 0.931 . S
C346 C345 1.396 . S
C346 C347 1.382 . S
C347 C343 1.381 . S
C347 C346 1.382 . S
C347 H375 0.930 . S
C348 N344 1.328 . S
C348 C345 1.378 . S
C348 H350 0.930 . S
H349 C343 0.931 . S
H350 C348 0.930 . S
C351 O362 1.238 . S
C351 O363 1.253 . S
C352 O364 1.239 . S
C352 O365 1.230 . S
N353 Cd324 2.304 . S
N353 C354 1.337 . S
N353 C358 1.338 . S
C354 N353 1.337 . S
C354 C355 1.379 . S
C354 H368 0.929 . S
C355 C354 1.379 . S
C355 C356 1.380 . S
C355 H376 0.929 . S
C356 C355 1.380 . S
C356 C357 1.399 . S
C357 C356 1.399 . S
C357 C358 1.376 . S
C357 H377 0.931 . S
C358 N353 1.338 . S
C358 C357 1.376 . S
C358 H369 0.930 . S
C359 O366 1.239 . S
C359 O367 1.230 . S
O360 Cd324 2.268 . S
O360 C334 1.238 . S
O361 Cd325 2.273 . S
O361 C334 1.253 . S
O362 Cd325 2.268 . S
O362 C351 1.238 . S
O363 Cd324 2.273 . S
O363 C351 1.253 . S
O364 Cd324 2.417 . S
O364 C352 1.239 . S
O365 Cd324 2.330 . S
O365 C352 1.230 . S
O366 Cd325 2.417 1_455 S
O366 C359 1.239 . S
O367 Cd325 2.330 1_455 S
O367 C359 1.230 . S
H368 C354 0.929 . S
H369 C358 0.930 . S
H370 C328 0.931 . S
H371 C330 0.930 . S
H372 C336 0.929 . S
H373 C338 0.931 . S
H374 C345 0.931 . S
H375 C347 0.930 . S
H376 C355 0.929 . S
H377 C357 0.931 . S
Cd378 N381 2.334 . S
Cd378 N407 2.304 . S
Cd378 O414 2.268 . S
Cd378 O417 2.273 . S
Cd378 O418 2.417 . S
Cd378 O419 2.330 . S
Cd379 N394 2.304 . S
Cd379 N398 2.334 . S
Cd379 O415 2.273 . S
Cd379 O416 2.268 . S
Cd379 O420 2.417 . S
Cd379 O421 2.330 . S
C380 N381 1.332 . S
C380 C384 1.381 . S
C380 H386 0.931 . S
N381 Cd378 2.334 . S
N381 C380 1.332 . S
N381 C385 1.328 . S
C382 C383 1.396 . S
C382 C385 1.378 . S
C382 H424 0.931 . S
C383 C382 1.396 . S
C383 C384 1.382 . S
C384 C380 1.381 . S
C384 C383 1.382 . S
C384 H425 0.930 . S
C385 N381 1.328 . S
C385 C382 1.378 . S
C385 H387 0.930 . S
H386 C380 0.931 . S
H387 C385 0.930 . S
C388 O414 1.238 . S
C388 O415 1.253 . S
C389 C390 1.379 . S
C389 N394 1.337 . S
C389 H395 0.929 . S
C390 C389 1.379 . S
C390 C391 1.380 . S
C390 H426 0.929 . S
C391 C390 1.380 . S
C391 C392 1.399 . S
C392 C391 1.399 . S
C392 C393 1.376 . S
C392 H427 0.931 . S
C393 C392 1.376 . S
C393 N394 1.338 . S
C393 H396 0.930 . S
N394 Cd379 2.304 . S
N394 C389 1.337 . S
N394 C393 1.338 . S
H395 C389 0.929 . S
H396 C393 0.930 . S
C397 N398 1.332 . S
C397 C401 1.381 . S
C397 H403 0.931 . S
N398 Cd379 2.334 . S
N398 C397 1.332 . S
N398 C402 1.328 . S
C399 C400 1.396 . S
C399 C402 1.378 . S
C399 H428 0.931 . S
C400 C399 1.396 . S
C400 C401 1.382 . S
C401 C397 1.381 . S
C401 C400 1.382 . S
C401 H429 0.930 . S
C402 N398 1.328 . S
C402 C399 1.378 . S
C402 H404 0.930 . S
H403 C397 0.931 . S
H404 C402 0.930 . S
C405 O416 1.238 . S
C405 O417 1.253 . S
C406 O418 1.239 . S
C406 O419 1.230 . S
N407 Cd378 2.304 . S
N407 C408 1.337 . S
N407 C412 1.338 . S
C408 N407 1.337 . S
C408 C409 1.379 . S
C408 H422 0.929 . S
C409 C408 1.379 . S
C409 C410 1.380 . S
C409 H430 0.929 . S
C410 C409 1.380 . S
C410 C411 1.399 . S
C411 C410 1.399 . S
C411 C412 1.376 . S
C411 H431 0.931 . S
C412 N407 1.338 . S
C412 C411 1.376 . S
C412 H423 0.930 . S
C413 O420 1.239 . S
C413 O421 1.230 . S
O414 Cd378 2.268 . S
O414 C388 1.238 . S
O415 Cd379 2.273 . S
O415 C388 1.253 . S
O416 Cd379 2.268 . S
O416 C405 1.238 . S
O417 Cd378 2.273 . S
O417 C405 1.253 . S
O418 Cd378 2.417 . S
O418 C406 1.239 . S
O419 Cd378 2.330 . S
O419 C406 1.230 . S
O420 Cd379 2.417 . S
O420 C413 1.239 . S
O421 Cd379 2.330 . S
O421 C413 1.230 . S
H422 C408 0.929 . S
H423 C412 0.930 . S
H424 C382 0.931 . S
H425 C384 0.930 . S
H426 C390 0.929 . S
H427 C392 0.931 . S
H428 C399 0.931 . S
H429 C401 0.930 . S
H430 C409 0.929 . S
H431 C411 0.931 . S
Cd432 N435 2.334 . S
Cd432 N461 2.304 . S
Cd432 O468 2.268 . S
Cd432 O471 2.273 . S
Cd432 O472 2.417 . S
Cd432 O473 2.330 . S
Cd433 N448 2.304 . S
Cd433 N452 2.334 . S
Cd433 O469 2.273 . S
Cd433 O470 2.268 . S
Cd433 O474 2.417 . S
Cd433 O475 2.330 . S
C434 N435 1.332 . S
C434 C438 1.381 . S
C434 H440 0.931 . S
N435 Cd432 2.334 . S
N435 C434 1.332 . S
N435 C439 1.328 . S
C436 C437 1.396 . S
C436 C439 1.378 . S
C436 H478 0.931 . S
C437 C436 1.396 . S
C437 C438 1.382 . S
C438 C434 1.381 . S
C438 C437 1.382 . S
C438 H479 0.930 . S
C439 N435 1.328 . S
C439 C436 1.378 . S
C439 H441 0.930 . S
H440 C434 0.931 . S
H441 C439 0.930 . S
C442 O468 1.238 . S
C442 O469 1.253 . S
C443 C444 1.379 . S
C443 N448 1.337 . S
C443 H449 0.929 . S
C444 C443 1.379 . S
C444 C445 1.380 . S
C444 H480 0.929 . S
C445 C444 1.380 . S
C445 C446 1.399 . S
C446 C445 1.399 . S
C446 C447 1.376 . S
C446 H481 0.931 . S
C447 C446 1.376 . S
C447 N448 1.338 . S
C447 H450 0.930 . S
N448 Cd433 2.304 . S
N448 C443 1.337 . S
N448 C447 1.338 . S
H449 C443 0.929 . S
H450 C447 0.930 . S
C451 N452 1.332 . S
C451 C455 1.381 . S
C451 H457 0.931 . S
N452 Cd433 2.334 . S
N452 C451 1.332 . S
N452 C456 1.328 . S
C453 C454 1.396 . S
C453 C456 1.378 . S
C453 H482 0.931 . S
C454 C453 1.396 . S
C454 C455 1.382 . S
C455 C451 1.381 . S
C455 C454 1.382 . S
C455 H483 0.930 . S
C456 N452 1.328 . S
C456 C453 1.378 . S
C456 H458 0.930 . S
H457 C451 0.931 . S
H458 C456 0.930 . S
C459 O470 1.238 . S
C459 O471 1.253 . S
C460 O472 1.239 . S
C460 O473 1.230 . S
N461 Cd432 2.304 . S
N461 C462 1.337 . S
N461 C466 1.338 . S
C462 N461 1.337 . S
C462 C463 1.379 . S
C462 H476 0.929 . S
C463 C462 1.379 . S
C463 C464 1.380 . S
C463 H484 0.929 . S
C464 C463 1.380 . S
C464 C465 1.399 . S
C465 C464 1.399 . S
C465 C466 1.376 . S
C465 H485 0.931 . S
C466 N461 1.338 . S
C466 C465 1.376 . S
C466 H477 0.930 . S
C467 O474 1.239 . S
C467 O475 1.230 . S
O468 Cd432 2.268 . S
O468 C442 1.238 . S
O469 Cd433 2.273 . S
O469 C442 1.253 . S
O470 Cd433 2.268 . S
O470 C459 1.238 . S
O471 Cd432 2.273 . S
O471 C459 1.253 . S
O472 Cd432 2.417 . S
O472 C460 1.239 . S
O473 Cd432 2.330 . S
O473 C460 1.230 . S
O474 Cd433 2.417 . S
O474 C467 1.239 . S
O475 Cd433 2.330 . S
O475 C467 1.230 . S
H476 C462 0.929 . S
H477 C466 0.930 . S
H478 C436 0.931 . S
H479 C438 0.930 . S
H480 C444 0.929 . S
H481 C446 0.931 . S
H482 C453 0.931 . S
H483 C455 0.930 . S
H484 C463 0.929 . S
H485 C465 0.931 . S
Cd486 N489 2.334 . S
Cd486 N515 2.304 . S
Cd486 O522 2.268 . S
Cd486 O525 2.273 . S
Cd486 O526 2.417 . S
Cd486 O527 2.330 . S
Cd487 N502 2.304 . S
Cd487 N506 2.334 . S
Cd487 O523 2.273 . S
Cd487 O524 2.268 . S
Cd487 O528 2.417 1_545 S
Cd487 O529 2.330 1_545 S
C488 N489 1.332 . S
C488 C492 1.381 . S
C488 H494 0.931 . S
N489 Cd486 2.334 . S
N489 C488 1.332 . S
N489 C493 1.328 . S
C490 C491 1.396 . S
C490 C493 1.378 . S
C490 H532 0.931 . S
C491 C490 1.396 . S
C491 C492 1.382 . S
C492 C488 1.381 . S
C492 C491 1.382 . S
C492 H533 0.930 . S
C493 N489 1.328 . S
C493 C490 1.378 . S
C493 H495 0.930 . S
H494 C488 0.931 . S
H495 C493 0.930 . S
C496 O522 1.238 . S
C496 O523 1.253 . S
C497 C498 1.379 . S
C497 N502 1.337 . S
C497 H503 0.929 . S
C498 C497 1.379 . S
C498 C499 1.380 1_545 S
C498 H534 0.929 . S
C499 C498 1.380 1_565 S
C499 C500 1.399 . S
C500 C499 1.399 . S
C500 C501 1.376 . S
C500 H535 0.931 . S
C501 C500 1.376 . S
C501 N502 1.338 1_565 S
C501 H504 0.930 . S
N502 Cd487 2.304 . S
N502 C497 1.337 . S
N502 C501 1.338 1_545 S
H503 C497 0.929 . S
H504 C501 0.930 . S
C505 N506 1.332 . S
C505 C509 1.381 . S
C505 H511 0.931 . S
N506 Cd487 2.334 . S
N506 C505 1.332 . S
N506 C510 1.328 . S
C507 C508 1.396 . S
C507 C510 1.378 . S
C507 H536 0.931 . S
C508 C507 1.396 . S
C508 C509 1.382 . S
C509 C505 1.381 . S
C509 C508 1.382 . S
C509 H537 0.930 . S
C510 N506 1.328 . S
C510 C507 1.378 . S
C510 H512 0.930 . S
H511 C505 0.931 . S
H512 C510 0.930 . S
C513 O524 1.238 . S
C513 O525 1.253 . S
C514 O526 1.239 . S
C514 O527 1.230 . S
N515 Cd486 2.304 . S
N515 C516 1.337 . S
N515 C520 1.338 . S
C516 N515 1.337 . S
C516 C517 1.379 . S
C516 H530 0.929 . S
C517 C516 1.379 . S
C517 C518 1.380 . S
C517 H538 0.929 . S
C518 C517 1.380 . S
C518 C519 1.399 . S
C519 C518 1.399 . S
C519 C520 1.376 . S
C519 H539 0.931 . S
C520 N515 1.338 . S
C520 C519 1.376 . S
C520 H531 0.930 . S
C521 O528 1.239 . S
C521 O529 1.230 . S
O522 Cd486 2.268 . S
O522 C496 1.238 . S
O523 Cd487 2.273 . S
O523 C496 1.253 . S
O524 Cd487 2.268 . S
O524 C513 1.238 . S
O525 Cd486 2.273 . S
O525 C513 1.253 . S
O526 Cd486 2.417 . S
O526 C514 1.239 . S
O527 Cd486 2.330 . S
O527 C514 1.230 . S
O528 Cd487 2.417 1_565 S
O528 C521 1.239 . S
O529 Cd487 2.330 1_565 S
O529 C521 1.230 . S
H530 C516 0.929 . S
H531 C520 0.930 . S
H532 C490 0.931 . S
H533 C492 0.930 . S
H534 C498 0.929 . S
H535 C500 0.931 . S
H536 C507 0.931 . S
H537 C509 0.930 . S
H538 C517 0.929 . S
H539 C519 0.931 . S
Cd540 N543 2.334 . S
Cd540 N569 2.304 . S
Cd540 O576 2.268 . S
Cd540 O579 2.273 . S
Cd540 O580 2.417 1_565 S
Cd540 O581 2.330 1_565 S
Cd541 N556 2.304 . S
Cd541 N560 2.334 . S
Cd541 O577 2.273 . S
Cd541 O578 2.268 . S
Cd541 O582 2.417 . S
Cd541 O583 2.330 . S
C542 N543 1.332 . S
C542 C546 1.381 . S
C542 H548 0.931 . S
N543 Cd540 2.334 . S
N543 C542 1.332 . S
N543 C547 1.328 . S
C544 C545 1.396 . S
C544 C547 1.378 . S
C544 H586 0.931 . S
C545 C544 1.396 . S
C545 C546 1.382 . S
C546 C542 1.381 . S
C546 C545 1.382 . S
C546 H587 0.930 . S
C547 N543 1.328 . S
C547 C544 1.378 . S
C547 H549 0.930 . S
H548 C542 0.931 . S
H549 C547 0.930 . S
C550 O576 1.238 . S
C550 O577 1.253 . S
C551 C552 1.379 . S
C551 N556 1.337 . S
C551 H557 0.929 . S
C552 C551 1.379 . S
C552 C553 1.380 . S
C552 H588 0.929 . S
C553 C552 1.380 . S
C553 C554 1.399 . S
C554 C553 1.399 . S
C554 C555 1.376 . S
C554 H589 0.931 . S
C555 C554 1.376 . S
C555 N556 1.338 . S
C555 H558 0.930 . S
N556 Cd541 2.304 . S
N556 C551 1.337 . S
N556 C555 1.338 . S
H557 C551 0.929 . S
H558 C555 0.930 . S
C559 N560 1.332 . S
C559 C563 1.381 . S
C559 H565 0.931 . S
N560 Cd541 2.334 . S
N560 C559 1.332 . S
N560 C564 1.328 . S
C561 C562 1.396 . S
C561 C564 1.378 . S
C561 H590 0.931 . S
C562 C561 1.396 . S
C562 C563 1.382 . S
C563 C559 1.381 . S
C563 C562 1.382 . S
C563 H591 0.930 . S
C564 N560 1.328 . S
C564 C561 1.378 . S
C564 H566 0.930 . S
H565 C559 0.931 . S
H566 C564 0.930 . S
C567 O578 1.238 . S
C567 O579 1.253 . S
C568 O580 1.239 . S
C568 O581 1.230 . S
N569 Cd540 2.304 . S
N569 C570 1.337 . S
N569 C574 1.338 1_565 S
C570 N569 1.337 . S
C570 C571 1.379 . S
C570 H584 0.929 . S
C571 C570 1.379 . S
C571 C572 1.380 1_565 S
C571 H592 0.929 . S
C572 C571 1.380 1_545 S
C572 C573 1.399 . S
C573 C572 1.399 . S
C573 C574 1.376 . S
C573 H593 0.931 . S
C574 N569 1.338 1_545 S
C574 C573 1.376 . S
C574 H585 0.930 . S
C575 O582 1.239 . S
C575 O583 1.230 . S
O576 Cd540 2.268 . S
O576 C550 1.238 . S
O577 Cd541 2.273 . S
O577 C550 1.253 . S
O578 Cd541 2.268 . S
O578 C567 1.238 . S
O579 Cd540 2.273 . S
O579 C567 1.253 . S
O580 Cd540 2.417 1_545 S
O580 C568 1.239 . S
O581 Cd540 2.330 1_545 S
O581 C568 1.230 . S
O582 Cd541 2.417 . S
O582 C575 1.239 . S
O583 Cd541 2.330 . S
O583 C575 1.230 . S
H584 C570 0.929 . S
H585 C574 0.930 . S
H586 C544 0.931 . S
H587 C546 0.930 . S
H588 C552 0.929 . S
H589 C554 0.931 . S
H590 C561 0.931 . S
H591 C563 0.930 . S
H592 C571 0.929 . S
H593 C573 0.931 . S
Cd594 N597 2.334 . S
Cd594 N623 2.304 . S
Cd594 O630 2.268 . S
Cd594 O633 2.273 . S
Cd594 O634 2.417 . S
Cd594 O635 2.330 . S
Cd595 N610 2.304 . S
Cd595 N614 2.334 . S
Cd595 O631 2.273 . S
Cd595 O632 2.268 . S
Cd595 O636 2.417 . S
Cd595 O637 2.330 . S
C596 N597 1.332 . S
C596 C600 1.381 . S
C596 H602 0.931 . S
N597 Cd594 2.334 . S
N597 C596 1.332 . S
N597 C601 1.328 . S
C598 C599 1.396 . S
C598 C601 1.378 . S
C598 H640 0.931 . S
C599 C598 1.396 . S
C599 C600 1.382 . S
C600 C596 1.381 . S
C600 C599 1.382 . S
C600 H641 0.930 . S
C601 N597 1.328 . S
C601 C598 1.378 . S
C601 H603 0.930 . S
H602 C596 0.931 . S
H603 C601 0.930 . S
C604 O630 1.238 . S
C604 O631 1.253 . S
C605 C606 1.379 . S
C605 N610 1.337 . S
C605 H611 0.929 . S
C606 C605 1.379 . S
C606 C607 1.380 . S
C606 H642 0.929 . S
C607 C606 1.380 . S
C607 C608 1.399 . S
C608 C607 1.399 . S
C608 C609 1.376 . S
C608 H643 0.931 . S
C609 C608 1.376 . S
C609 N610 1.338 . S
C609 H612 0.930 . S
N610 Cd595 2.304 . S
N610 C605 1.337 . S
N610 C609 1.338 . S
H611 C605 0.929 . S
H612 C609 0.930 . S
C613 N614 1.332 . S
C613 C617 1.381 . S
C613 H619 0.931 . S
N614 Cd595 2.334 . S
N614 C613 1.332 . S
N614 C618 1.328 . S
C615 C616 1.396 . S
C615 C618 1.378 . S
C615 H644 0.931 . S
C616 C615 1.396 . S
C616 C617 1.382 . S
C617 C613 1.381 . S
C617 C616 1.382 . S
C617 H645 0.930 . S
C618 N614 1.328 . S
C618 C615 1.378 . S
C618 H620 0.930 . S
H619 C613 0.931 . S
H620 C618 0.930 . S
C621 O632 1.238 . S
C621 O633 1.253 . S
C622 O634 1.239 . S
C622 O635 1.230 . S
N623 Cd594 2.304 . S
N623 C624 1.337 . S
N623 C628 1.338 . S
C624 N623 1.337 . S
C624 C625 1.379 . S
C624 H638 0.929 . S
C625 C624 1.379 . S
C625 C626 1.380 . S
C625 H646 0.929 . S
C626 C625 1.380 . S
C626 C627 1.399 . S
C627 C626 1.399 . S
C627 C628 1.376 . S
C627 H647 0.931 . S
C628 N623 1.338 . S
C628 C627 1.376 . S
C628 H639 0.930 . S
C629 O636 1.239 . S
C629 O637 1.230 . S
O630 Cd594 2.268 . S
O630 C604 1.238 . S
O631 Cd595 2.273 . S
O631 C604 1.253 . S
O632 Cd595 2.268 . S
O632 C621 1.238 . S
O633 Cd594 2.273 . S
O633 C621 1.253 . S
O634 Cd594 2.417 . S
O634 C622 1.239 . S
O635 Cd594 2.330 . S
O635 C622 1.230 . S
O636 Cd595 2.417 . S
O636 C629 1.239 . S
O637 Cd595 2.330 . S
O637 C629 1.230 . S
H638 C624 0.929 . S
H639 C628 0.930 . S
H640 C598 0.931 . S
H641 C600 0.930 . S
H642 C606 0.929 . S
H643 C608 0.931 . S
H644 C615 0.931 . S
H645 C617 0.930 . S
H646 C625 0.929 . S
H647 C627 0.931 . S
Cd648 N651 2.334 . S
Cd648 N677 2.304 . S
Cd648 O684 2.268 . S
Cd648 O687 2.273 . S
Cd648 O688 2.417 . S
Cd648 O689 2.330 . S
Cd649 N664 2.304 . S
Cd649 N668 2.334 . S
Cd649 O685 2.273 . S
Cd649 O686 2.268 . S
Cd649 O690 2.417 . S
Cd649 O691 2.330 . S
C650 N651 1.332 . S
C650 C654 1.381 . S
C650 H656 0.931 . S
N651 Cd648 2.334 . S
N651 C650 1.332 . S
N651 C655 1.328 . S
C652 C653 1.396 . S
C652 C655 1.378 . S
C652 H694 0.931 . S
C653 C652 1.396 . S
C653 C654 1.382 . S
C654 C650 1.381 . S
C654 C653 1.382 . S
C654 H695 0.930 . S
C655 N651 1.328 . S
C655 C652 1.378 . S
C655 H657 0.930 . S
H656 C650 0.931 . S
H657 C655 0.930 . S
C658 O684 1.238 . S
C658 O685 1.253 . S
C659 C660 1.379 . S
C659 N664 1.337 . S
C659 H665 0.929 . S
C660 C659 1.379 . S
C660 C661 1.380 . S
C660 H696 0.929 . S
C661 C660 1.380 . S
C661 C662 1.399 . S
C662 C661 1.399 . S
C662 C663 1.376 . S
C662 H697 0.931 . S
C663 C662 1.376 . S
C663 N664 1.338 . S
C663 H666 0.930 . S
N664 Cd649 2.304 . S
N664 C659 1.337 . S
N664 C663 1.338 . S
H665 C659 0.929 . S
H666 C663 0.930 . S
C667 N668 1.332 . S
C667 C671 1.381 . S
C667 H673 0.931 . S
N668 Cd649 2.334 . S
N668 C667 1.332 . S
N668 C672 1.328 . S
C669 C670 1.396 . S
C669 C672 1.378 . S
C669 H698 0.931 . S
C670 C669 1.396 . S
C670 C671 1.382 . S
C671 C667 1.381 . S
C671 C670 1.382 . S
C671 H699 0.930 . S
C672 N668 1.328 . S
C672 C669 1.378 . S
C672 H674 0.930 . S
H673 C667 0.931 . S
H674 C672 0.930 . S
C675 O686 1.238 . S
C675 O687 1.253 . S
C676 O688 1.239 . S
C676 O689 1.230 . S
N677 Cd648 2.304 . S
N677 C678 1.337 . S
N677 C682 1.338 . S
C678 N677 1.337 . S
C678 C679 1.379 . S
C678 H692 0.929 . S
C679 C678 1.379 . S
C679 C680 1.380 . S
C679 H700 0.929 . S
C680 C679 1.380 . S
C680 C681 1.399 . S
C681 C680 1.399 . S
C681 C682 1.376 . S
C681 H701 0.931 . S
C682 N677 1.338 . S
C682 C681 1.376 . S
C682 H693 0.930 . S
C683 O690 1.239 . S
C683 O691 1.230 . S
O684 Cd648 2.268 . S
O684 C658 1.238 . S
O685 Cd649 2.273 . S
O685 C658 1.253 . S
O686 Cd649 2.268 . S
O686 C675 1.238 . S
O687 Cd648 2.273 . S
O687 C675 1.253 . S
O688 Cd648 2.417 . S
O688 C676 1.239 . S
O689 Cd648 2.330 . S
O689 C676 1.230 . S
O690 Cd649 2.417 . S
O690 C683 1.239 . S
O691 Cd649 2.330 . S
O691 C683 1.230 . S
H692 C678 0.929 . S
H693 C682 0.930 . S
H694 C652 0.931 . S
H695 C654 0.930 . S
H696 C660 0.929 . S
H697 C662 0.931 . S
H698 C669 0.931 . S
H699 C671 0.930 . S
H700 C679 0.929 . S
H701 C681 0.931 . S
Cd702 N705 2.334 . S
Cd702 N731 2.304 . S
Cd702 O738 2.268 . S
Cd702 O741 2.273 . S
Cd702 O742 2.417 1_554 S
Cd702 O743 2.330 1_554 S
Cd703 N718 2.304 . S
Cd703 N722 2.334 . S
Cd703 O739 2.273 . S
Cd703 O740 2.268 . S
Cd703 O744 2.417 . S
Cd703 O745 2.330 . S
C704 N705 1.332 . S
C704 C708 1.381 . S
C704 H710 0.931 . S
N705 Cd702 2.334 . S
N705 C704 1.332 . S
N705 C709 1.328 . S
C706 C707 1.396 . S
C706 C709 1.378 . S
C706 H748 0.931 . S
C707 C706 1.396 . S
C707 C708 1.382 . S
C708 C704 1.381 . S
C708 C707 1.382 . S
C708 H749 0.930 . S
C709 N705 1.328 . S
C709 C706 1.378 . S
C709 H711 0.930 . S
H710 C704 0.931 . S
H711 C709 0.930 . S
C712 O738 1.238 . S
C712 O739 1.253 . S
C713 C714 1.379 . S
C713 N718 1.337 . S
C713 H719 0.929 . S
C714 C713 1.379 . S
C714 C715 1.380 . S
C714 H750 0.929 . S
C715 C714 1.380 . S
C715 C716 1.399 . S
C716 C715 1.399 . S
C716 C717 1.376 . S
C716 H751 0.931 . S
C717 C716 1.376 . S
C717 N718 1.338 . S
C717 H720 0.930 . S
N718 Cd703 2.304 . S
N718 C713 1.337 . S
N718 C717 1.338 . S
H719 C713 0.929 . S
H720 C717 0.930 . S
C721 N722 1.332 . S
C721 C725 1.381 . S
C721 H727 0.931 . S
N722 Cd703 2.334 . S
N722 C721 1.332 . S
N722 C726 1.328 . S
C723 C724 1.396 . S
C723 C726 1.378 . S
C723 H752 0.931 . S
C724 C723 1.396 . S
C724 C725 1.382 . S
C725 C721 1.381 . S
C725 C724 1.382 . S
C725 H753 0.930 . S
C726 N722 1.328 . S
C726 C723 1.378 . S
C726 H728 0.930 . S
H727 C721 0.931 . S
H728 C726 0.930 . S
C729 O740 1.238 . S
C729 O741 1.253 . S
C730 O742 1.239 . S
C730 O743 1.230 . S
N731 Cd702 2.304 . S
N731 C732 1.337 . S
N731 C736 1.338 1_554 S
C732 N731 1.337 . S
C732 C733 1.379 . S
C732 H746 0.929 . S
C733 C732 1.379 . S
C733 C734 1.380 1_554 S
C733 H754 0.929 . S
C734 C733 1.380 1_556 S
C734 C735 1.399 . S
C735 C734 1.399 . S
C735 C736 1.376 . S
C735 H755 0.931 . S
C736 N731 1.338 1_556 S
C736 C735 1.376 . S
C736 H747 0.930 . S
C737 O744 1.239 . S
C737 O745 1.230 . S
O738 Cd702 2.268 . S
O738 C712 1.238 . S
O739 Cd703 2.273 . S
O739 C712 1.253 . S
O740 Cd703 2.268 . S
O740 C729 1.238 . S
O741 Cd702 2.273 . S
O741 C729 1.253 . S
O742 Cd702 2.417 1_556 S
O742 C730 1.239 . S
O743 Cd702 2.330 1_556 S
O743 C730 1.230 . S
O744 Cd703 2.417 . S
O744 C737 1.239 . S
O745 Cd703 2.330 . S
O745 C737 1.230 . S
H746 C732 0.929 . S
H747 C736 0.930 . S
H748 C706 0.931 . S
H749 C708 0.930 . S
H750 C714 0.929 . S
H751 C716 0.931 . S
H752 C723 0.931 . S
H753 C725 0.930 . S
H754 C733 0.929 . S
H755 C735 0.931 . S
Cd756 N759 2.334 . S
Cd756 N785 2.304 . S
Cd756 O792 2.268 . S
Cd756 O795 2.273 . S
Cd756 O796 2.417 . S
Cd756 O797 2.330 . S
Cd757 N772 2.304 . S
Cd757 N776 2.334 . S
Cd757 O793 2.273 . S
Cd757 O794 2.268 . S
Cd757 O798 2.417 . S
Cd757 O799 2.330 . S
C758 N759 1.332 . S
C758 C762 1.381 . S
C758 H764 0.931 . S
N759 Cd756 2.334 . S
N759 C758 1.332 . S
N759 C763 1.328 . S
C760 C761 1.396 . S
C760 C763 1.378 . S
C760 H802 0.931 . S
C761 C760 1.396 . S
C761 C762 1.382 . S
C762 C758 1.381 . S
C762 C761 1.382 . S
C762 H803 0.930 . S
C763 N759 1.328 . S
C763 C760 1.378 . S
C763 H765 0.930 . S
H764 C758 0.931 . S
H765 C763 0.930 . S
C766 O792 1.238 . S
C766 O793 1.253 . S
C767 C768 1.379 . S
C767 N772 1.337 . S
C767 H773 0.929 . S
C768 C767 1.379 . S
C768 C769 1.380 . S
C768 H804 0.929 . S
C769 C768 1.380 . S
C769 C770 1.399 . S
C770 C769 1.399 . S
C770 C771 1.376 . S
C770 H805 0.931 . S
C771 C770 1.376 . S
C771 N772 1.338 . S
C771 H774 0.930 . S
N772 Cd757 2.304 . S
N772 C767 1.337 . S
N772 C771 1.338 . S
H773 C767 0.929 . S
H774 C771 0.930 . S
C775 N776 1.332 . S
C775 C779 1.381 . S
C775 H781 0.931 . S
N776 Cd757 2.334 . S
N776 C775 1.332 . S
N776 C780 1.328 . S
C777 C778 1.396 . S
C777 C780 1.378 . S
C777 H806 0.931 . S
C778 C777 1.396 . S
C778 C779 1.382 . S
C779 C775 1.381 . S
C779 C778 1.382 . S
C779 H807 0.930 . S
C780 N776 1.328 . S
C780 C777 1.378 . S
C780 H782 0.930 . S
H781 C775 0.931 . S
H782 C780 0.930 . S
C783 O794 1.238 . S
C783 O795 1.253 . S
C784 O796 1.239 . S
C784 O797 1.230 . S
N785 Cd756 2.304 . S
N785 C786 1.337 . S
N785 C790 1.338 . S
C786 N785 1.337 . S
C786 C787 1.379 . S
C786 H800 0.929 . S
C787 C786 1.379 . S
C787 C788 1.380 . S
C787 H808 0.929 . S
C788 C787 1.380 . S
C788 C789 1.399 . S
C789 C788 1.399 . S
C789 C790 1.376 . S
C789 H809 0.931 . S
C790 N785 1.338 . S
C790 C789 1.376 . S
C790 H801 0.930 . S
C791 O798 1.239 . S
C791 O799 1.230 . S
O792 Cd756 2.268 . S
O792 C766 1.238 . S
O793 Cd757 2.273 . S
O793 C766 1.253 . S
O794 Cd757 2.268 . S
O794 C783 1.238 . S
O795 Cd756 2.273 . S
O795 C783 1.253 . S
O796 Cd756 2.417 . S
O796 C784 1.239 . S
O797 Cd756 2.330 . S
O797 C784 1.230 . S
O798 Cd757 2.417 . S
O798 C791 1.239 . S
O799 Cd757 2.330 . S
O799 C791 1.230 . S
H800 C786 0.929 . S
H801 C790 0.930 . S
H802 C760 0.931 . S
H803 C762 0.930 . S
H804 C768 0.929 . S
H805 C770 0.931 . S
H806 C777 0.931 . S
H807 C779 0.930 . S
H808 C787 0.929 . S
H809 C789 0.931 . S
Cd810 N813 2.334 . S
Cd810 N839 2.304 . S
Cd810 O846 2.268 . S
Cd810 O849 2.273 . S
Cd810 O850 2.417 1_556 S
Cd810 O851 2.330 1_556 S
Cd811 N826 2.304 . S
Cd811 N830 2.334 . S
Cd811 O847 2.273 . S
Cd811 O848 2.268 . S
Cd811 O852 2.417 . S
Cd811 O853 2.330 . S
C812 N813 1.332 . S
C812 C816 1.381 . S
C812 H818 0.931 . S
N813 Cd810 2.334 . S
N813 C812 1.332 . S
N813 C817 1.328 . S
C814 C815 1.396 . S
C814 C817 1.378 . S
C814 H856 0.931 . S
C815 C814 1.396 . S
C815 C816 1.382 . S
C816 C812 1.381 . S
C816 C815 1.382 . S
C816 H857 0.930 . S
C817 N813 1.328 . S
C817 C814 1.378 . S
C817 H819 0.930 . S
H818 C812 0.931 . S
H819 C817 0.930 . S
C820 O846 1.238 . S
C820 O847 1.253 . S
C821 C822 1.379 . S
C821 N826 1.337 . S
C821 H827 0.929 . S
C822 C821 1.379 . S
C822 C823 1.380 . S
C822 H858 0.929 . S
C823 C822 1.380 . S
C823 C824 1.399 . S
C824 C823 1.399 . S
C824 C825 1.376 . S
C824 H859 0.931 . S
C825 C824 1.376 . S
C825 N826 1.338 . S
C825 H828 0.930 . S
N826 Cd811 2.304 . S
N826 C821 1.337 . S
N826 C825 1.338 . S
H827 C821 0.929 . S
H828 C825 0.930 . S
C829 N830 1.332 . S
C829 C833 1.381 . S
C829 H835 0.931 . S
N830 Cd811 2.334 . S
N830 C829 1.332 . S
N830 C834 1.328 . S
C831 C832 1.396 . S
C831 C834 1.378 . S
C831 H860 0.931 . S
C832 C831 1.396 . S
C832 C833 1.382 . S
C833 C829 1.381 . S
C833 C832 1.382 . S
C833 H861 0.930 . S
C834 N830 1.328 . S
C834 C831 1.378 . S
C834 H836 0.930 . S
H835 C829 0.931 . S
H836 C834 0.930 . S
C837 O848 1.238 . S
C837 O849 1.253 . S
C838 O850 1.239 . S
C838 O851 1.230 . S
N839 Cd810 2.304 . S
N839 C840 1.337 . S
N839 C844 1.338 1_556 S
C840 N839 1.337 . S
C840 C841 1.379 . S
C840 H854 0.929 . S
C841 C840 1.379 . S
C841 C842 1.380 1_556 S
C841 H862 0.929 . S
C842 C841 1.380 1_554 S
C842 C843 1.399 . S
C843 C842 1.399 . S
C843 C844 1.376 . S
C843 H863 0.931 . S
C844 N839 1.338 1_554 S
C844 C843 1.376 . S
C844 H855 0.930 . S
C845 O852 1.239 . S
C845 O853 1.230 . S
O846 Cd810 2.268 . S
O846 C820 1.238 . S
O847 Cd811 2.273 . S
O847 C820 1.253 . S
O848 Cd811 2.268 . S
O848 C837 1.238 . S
O849 Cd810 2.273 . S
O849 C837 1.253 . S
O850 Cd810 2.417 1_554 S
O850 C838 1.239 . S
O851 Cd810 2.330 1_554 S
O851 C838 1.230 . S
O852 Cd811 2.417 . S
O852 C845 1.239 . S
O853 Cd811 2.330 . S
O853 C845 1.230 . S
H854 C840 0.929 . S
H855 C844 0.930 . S
H856 C814 0.931 . S
H857 C816 0.930 . S
H858 C822 0.929 . S
H859 C824 0.931 . S
H860 C831 0.931 . S
H861 C833 0.930 . S
H862 C841 0.929 . S
H863 C843 0.931 . S
Cd864 N867 2.334 . S
Cd864 N893 2.304 . S
Cd864 O900 2.268 . S
Cd864 O903 2.273 . S
Cd864 O904 2.417 . S
Cd864 O905 2.330 . S
Cd865 N880 2.304 . S
Cd865 N884 2.334 . S
Cd865 O901 2.273 . S
Cd865 O902 2.268 . S
Cd865 O906 2.417 . S
Cd865 O907 2.330 . S
C866 N867 1.332 . S
C866 C870 1.381 . S
C866 H872 0.931 . S
N867 Cd864 2.334 . S
N867 C866 1.332 . S
N867 C871 1.328 . S
C868 C869 1.396 . S
C868 C871 1.378 . S
C868 H910 0.931 . S
C869 C868 1.396 . S
C869 C870 1.382 . S
C870 C866 1.381 . S
C870 C869 1.382 . S
C870 H911 0.930 . S
C871 N867 1.328 . S
C871 C868 1.378 . S
C871 H873 0.930 . S
H872 C866 0.931 . S
H873 C871 0.930 . S
C874 O900 1.238 . S
C874 O901 1.253 . S
C875 C876 1.379 . S
C875 N880 1.337 . S
C875 H881 0.929 . S
C876 C875 1.379 . S
C876 C877 1.380 . S
C876 H912 0.929 . S
C877 C876 1.380 . S
C877 C878 1.399 . S
C878 C877 1.399 . S
C878 C879 1.376 . S
C878 H913 0.931 . S
C879 C878 1.376 . S
C879 N880 1.338 . S
C879 H882 0.930 . S
N880 Cd865 2.304 . S
N880 C875 1.337 . S
N880 C879 1.338 . S
H881 C875 0.929 . S
H882 C879 0.930 . S
C883 N884 1.332 . S
C883 C887 1.381 . S
C883 H889 0.931 . S
N884 Cd865 2.334 . S
N884 C883 1.332 . S
N884 C888 1.328 . S
C885 C886 1.396 . S
C885 C888 1.378 . S
C885 H914 0.931 . S
C886 C885 1.396 . S
C886 C887 1.382 . S
C887 C883 1.381 . S
C887 C886 1.382 . S
C887 H915 0.930 . S
C888 N884 1.328 . S
C888 C885 1.378 . S
C888 H890 0.930 . S
H889 C883 0.931 . S
H890 C888 0.930 . S
C891 O902 1.238 . S
C891 O903 1.253 . S
C892 O904 1.239 . S
C892 O905 1.230 . S
N893 Cd864 2.304 . S
N893 C894 1.337 . S
N893 C898 1.338 . S
C894 N893 1.337 . S
C894 C895 1.379 . S
C894 H908 0.929 . S
C895 C894 1.379 . S
C895 C896 1.380 . S
C895 H916 0.929 . S
C896 C895 1.380 . S
C896 C897 1.399 . S
C897 C896 1.399 . S
C897 C898 1.376 . S
C897 H917 0.931 . S
C898 N893 1.338 . S
C898 C897 1.376 . S
C898 H909 0.930 . S
C899 O906 1.239 . S
C899 O907 1.230 . S
O900 Cd864 2.268 . S
O900 C874 1.238 . S
O901 Cd865 2.273 . S
O901 C874 1.253 . S
O902 Cd865 2.268 . S
O902 C891 1.238 . S
O903 Cd864 2.273 . S
O903 C891 1.253 . S
O904 Cd864 2.417 . S
O904 C892 1.239 . S
O905 Cd864 2.330 . S
O905 C892 1.230 . S
O906 Cd865 2.417 . S
O906 C899 1.239 . S
O907 Cd865 2.330 . S
O907 C899 1.230 . S
H908 C894 0.929 . S
H909 C898 0.930 . S
H910 C868 0.931 . S
H911 C870 0.930 . S
H912 C876 0.929 . S
H913 C878 0.931 . S
H914 C885 0.931 . S
H915 C887 0.930 . S
H916 C895 0.929 . S
H917 C897 0.931 . S
Cd918 N921 2.334 . S
Cd918 N947 2.304 . S
Cd918 O954 2.268 . S
Cd918 O957 2.273 . S
Cd918 O958 2.417 1_655 S
Cd918 O959 2.330 1_655 S
Cd919 N934 2.304 . S
Cd919 N938 2.334 . S
Cd919 O955 2.273 . S
Cd919 O956 2.268 . S
Cd919 O960 2.417 . S
Cd919 O961 2.330 . S
C920 N921 1.332 . S
C920 C924 1.381 . S
C920 H926 0.931 . S
N921 Cd918 2.334 . S
N921 C920 1.332 . S
N921 C925 1.328 . S
C922 C923 1.396 . S
C922 C925 1.378 . S
C922 H964 0.931 . S
C923 C922 1.396 . S
C923 C924 1.382 . S
C924 C920 1.381 . S
C924 C923 1.382 . S
C924 H965 0.930 . S
C925 N921 1.328 . S
C925 C922 1.378 . S
C925 H927 0.930 . S
H926 C920 0.931 . S
H927 C925 0.930 . S
C928 O954 1.238 . S
C928 O955 1.253 . S
C929 C930 1.379 . S
C929 N934 1.337 . S
C929 H935 0.929 . S
C930 C929 1.379 . S
C930 C931 1.380 . S
C930 H966 0.929 . S
C931 C930 1.380 . S
C931 C932 1.399 . S
C932 C931 1.399 . S
C932 C933 1.376 . S
C932 H967 0.931 . S
C933 C932 1.376 . S
C933 N934 1.338 . S
C933 H936 0.930 . S
N934 Cd919 2.304 . S
N934 C929 1.337 . S
N934 C933 1.338 . S
H935 C929 0.929 . S
H936 C933 0.930 . S
C937 N938 1.332 . S
C937 C941 1.381 . S
C937 H943 0.931 . S
N938 Cd919 2.334 . S
N938 C937 1.332 . S
N938 C942 1.328 . S
C939 C940 1.396 . S
C939 C942 1.378 . S
C939 H968 0.931 . S
C940 C939 1.396 . S
C940 C941 1.382 . S
C941 C937 1.381 . S
C941 C940 1.382 . S
C941 H969 0.930 . S
C942 N938 1.328 . S
C942 C939 1.378 . S
C942 H944 0.930 . S
H943 C937 0.931 . S
H944 C942 0.930 . S
C945 O956 1.238 . S
C945 O957 1.253 . S
C946 O958 1.239 . S
C946 O959 1.230 . S
N947 Cd918 2.304 . S
N947 C948 1.337 . S
N947 C952 1.338 1_655 S
C948 N947 1.337 . S
C948 C949 1.379 . S
C948 H962 0.929 . S
C949 C948 1.379 . S
C949 C950 1.380 1_655 S
C949 H970 0.929 . S
C950 C949 1.380 1_455 S
C950 C951 1.399 . S
C951 C950 1.399 . S
C951 C952 1.376 . S
C951 H971 0.931 . S
C952 N947 1.338 1_455 S
C952 C951 1.376 . S
C952 H963 0.930 . S
C953 O960 1.239 . S
C953 O961 1.230 . S
O954 Cd918 2.268 . S
O954 C928 1.238 . S
O955 Cd919 2.273 . S
O955 C928 1.253 . S
O956 Cd919 2.268 . S
O956 C945 1.238 . S
O957 Cd918 2.273 . S
O957 C945 1.253 . S
O958 Cd918 2.417 1_455 S
O958 C946 1.239 . S
O959 Cd918 2.330 1_455 S
O959 C946 1.230 . S
O960 Cd919 2.417 . S
O960 C953 1.239 . S
O961 Cd919 2.330 . S
O961 C953 1.230 . S
H962 C948 0.929 . S
H963 C952 0.930 . S
H964 C922 0.931 . S
H965 C924 0.930 . S
H966 C930 0.929 . S
H967 C932 0.931 . S
H968 C939 0.931 . S
H969 C941 0.930 . S
H970 C949 0.929 . S
H971 C951 0.931 . S
Cd972 N975 2.334 . S
Cd972 N1001 2.304 . S
Cd972 O1008 2.268 . S
Cd972 O1011 2.273 . S
Cd972 O1012 2.417 1_455 S
Cd972 O1013 2.330 1_455 S
Cd973 N988 2.304 . S
Cd973 N992 2.334 . S
Cd973 O1009 2.273 . S
Cd973 O1010 2.268 . S
Cd973 O1014 2.417 . S
Cd973 O1015 2.330 . S
C974 N975 1.332 . S
C974 C978 1.381 . S
C974 H980 0.931 . S
N975 Cd972 2.334 . S
N975 C974 1.332 . S
N975 C979 1.328 . S
C976 C977 1.396 . S
C976 C979 1.378 . S
C976 H1018 0.931 . S
C977 C976 1.396 . S
C977 C978 1.382 . S
C978 C974 1.381 . S
C978 C977 1.382 . S
C978 H1019 0.930 . S
C979 N975 1.328 . S
C979 C976 1.378 . S
C979 H981 0.930 . S
H980 C974 0.931 . S
H981 C979 0.930 . S
C982 O1008 1.238 . S
C982 O1009 1.253 . S
C983 C984 1.379 . S
C983 N988 1.337 . S
C983 H989 0.929 . S
C984 C983 1.379 . S
C984 C985 1.380 . S
C984 H1020 0.929 . S
C985 C984 1.380 . S
C985 C986 1.399 . S
C986 C985 1.399 . S
C986 C987 1.376 . S
C986 H1021 0.931 . S
C987 C986 1.376 . S
C987 N988 1.338 . S
C987 H990 0.930 . S
N988 Cd973 2.304 . S
N988 C983 1.337 . S
N988 C987 1.338 . S
H989 C983 0.929 . S
H990 C987 0.930 . S
C991 N992 1.332 . S
C991 C995 1.381 . S
C991 H997 0.931 . S
N992 Cd973 2.334 . S
N992 C991 1.332 . S
N992 C996 1.328 . S
C993 C994 1.396 . S
C993 C996 1.378 . S
C993 H1022 0.931 . S
C994 C993 1.396 . S
C994 C995 1.382 . S
C995 C991 1.381 . S
C995 C994 1.382 . S
C995 H1023 0.930 . S
C996 N992 1.328 . S
C996 C993 1.378 . S
C996 H998 0.930 . S
H997 C991 0.931 . S
H998 C996 0.930 . S
C999 O1010 1.238 . S
C999 O1011 1.253 . S
C1000 O1012 1.239 . S
C1000 O1013 1.230 . S
N1001 Cd972 2.304 . S
N1001 C1002 1.337 . S
N1001 C1006 1.338 1_455 S
C1002 N1001 1.337 . S
C1002 C1003 1.379 . S
C1002 H1016 0.929 . S
C1003 C1002 1.379 . S
C1003 C1004 1.380 1_455 S
C1003 H1024 0.929 . S
C1004 C1003 1.380 1_655 S
C1004 C1005 1.399 . S
C1005 C1004 1.399 . S
C1005 C1006 1.376 . S
C1005 H1025 0.931 . S
C1006 N1001 1.338 1_655 S
C1006 C1005 1.376 . S
C1006 H1017 0.930 . S
C1007 O1014 1.239 . S
C1007 O1015 1.230 . S
O1008 Cd972 2.268 . S
O1008 C982 1.238 . S
O1009 Cd973 2.273 . S
O1009 C982 1.253 . S
O1010 Cd973 2.268 . S
O1010 C999 1.238 . S
O1011 Cd972 2.273 . S
O1011 C999 1.253 . S
O1012 Cd972 2.417 1_655 S
O1012 C1000 1.239 . S
O1013 Cd972 2.330 1_655 S
O1013 C1000 1.230 . S
O1014 Cd973 2.417 . S
O1014 C1007 1.239 . S
O1015 Cd973 2.330 . S
O1015 C1007 1.230 . S
H1016 C1002 0.929 . S
H1017 C1006 0.930 . S
H1018 C976 0.931 . S
H1019 C978 0.930 . S
H1020 C984 0.929 . S
H1021 C986 0.931 . S
H1022 C993 0.931 . S
H1023 C995 0.930 . S
H1024 C1003 0.929 . S
H1025 C1005 0.931 . S
Cd1026 N1029 2.334 . S
Cd1026 N1055 2.304 . S
Cd1026 O1062 2.268 . S
Cd1026 O1065 2.273 . S
Cd1026 O1066 2.417 . S
Cd1026 O1067 2.330 . S
Cd1027 N1042 2.304 . S
Cd1027 N1046 2.334 . S
Cd1027 O1063 2.273 . S
Cd1027 O1064 2.268 . S
Cd1027 O1068 2.417 . S
Cd1027 O1069 2.330 . S
C1028 N1029 1.332 . S
C1028 C1032 1.381 . S
C1028 H1034 0.931 . S
N1029 Cd1026 2.334 . S
N1029 C1028 1.332 . S
N1029 C1033 1.328 . S
C1030 C1031 1.396 . S
C1030 C1033 1.378 . S
C1030 H1072 0.931 . S
C1031 C1030 1.396 . S
C1031 C1032 1.382 . S
C1032 C1028 1.381 . S
C1032 C1031 1.382 . S
C1032 H1073 0.930 . S
C1033 N1029 1.328 . S
C1033 C1030 1.378 . S
C1033 H1035 0.930 . S
H1034 C1028 0.931 . S
H1035 C1033 0.930 . S
C1036 O1062 1.238 . S
C1036 O1063 1.253 . S
C1037 C1038 1.379 . S
C1037 N1042 1.337 . S
C1037 H1043 0.929 . S
C1038 C1037 1.379 . S
C1038 C1039 1.380 . S
C1038 H1074 0.929 . S
C1039 C1038 1.380 . S
C1039 C1040 1.399 . S
C1040 C1039 1.399 . S
C1040 C1041 1.376 . S
C1040 H1075 0.931 . S
C1041 C1040 1.376 . S
C1041 N1042 1.338 . S
C1041 H1044 0.930 . S
N1042 Cd1027 2.304 . S
N1042 C1037 1.337 . S
N1042 C1041 1.338 . S
H1043 C1037 0.929 . S
H1044 C1041 0.930 . S
C1045 N1046 1.332 . S
C1045 C1049 1.381 . S
C1045 H1051 0.931 . S
N1046 Cd1027 2.334 . S
N1046 C1045 1.332 . S
N1046 C1050 1.328 . S
C1047 C1048 1.396 . S
C1047 C1050 1.378 . S
C1047 H1076 0.931 . S
C1048 C1047 1.396 . S
C1048 C1049 1.382 . S
C1049 C1045 1.381 . S
C1049 C1048 1.382 . S
C1049 H1077 0.930 . S
C1050 N1046 1.328 . S
C1050 C1047 1.378 . S
C1050 H1052 0.930 . S
H1051 C1045 0.931 . S
H1052 C1050 0.930 . S
C1053 O1064 1.238 . S
C1053 O1065 1.253 . S
C1054 O1066 1.239 . S
C1054 O1067 1.230 . S
N1055 Cd1026 2.304 . S
N1055 C1056 1.337 . S
N1055 C1060 1.338 . S
C1056 N1055 1.337 . S
C1056 C1057 1.379 . S
C1056 H1070 0.929 . S
C1057 C1056 1.379 . S
C1057 C1058 1.380 . S
C1057 H1078 0.929 . S
C1058 C1057 1.380 . S
C1058 C1059 1.399 . S
C1059 C1058 1.399 . S
C1059 C1060 1.376 . S
C1059 H1079 0.931 . S
C1060 N1055 1.338 . S
C1060 C1059 1.376 . S
C1060 H1071 0.930 . S
C1061 O1068 1.239 . S
C1061 O1069 1.230 . S
O1062 Cd1026 2.268 . S
O1062 C1036 1.238 . S
O1063 Cd1027 2.273 . S
O1063 C1036 1.253 . S
O1064 Cd1027 2.268 . S
O1064 C1053 1.238 . S
O1065 Cd1026 2.273 . S
O1065 C1053 1.253 . S
O1066 Cd1026 2.417 . S
O1066 C1054 1.239 . S
O1067 Cd1026 2.330 . S
O1067 C1054 1.230 . S
O1068 Cd1027 2.417 . S
O1068 C1061 1.239 . S
O1069 Cd1027 2.330 . S
O1069 C1061 1.230 . S
H1070 C1056 0.929 . S
H1071 C1060 0.930 . S
H1072 C1030 0.931 . S
H1073 C1032 0.930 . S
H1074 C1038 0.929 . S
H1075 C1040 0.931 . S
H1076 C1047 0.931 . S
H1077 C1049 0.930 . S
H1078 C1057 0.929 . S
H1079 C1059 0.931 . S
Cd1080 N1083 2.334 . S
Cd1080 N1109 2.304 . S
Cd1080 O1116 2.268 . S
Cd1080 O1119 2.273 . S
Cd1080 O1120 2.417 . S
Cd1080 O1121 2.330 . S
Cd1081 N1096 2.304 . S
Cd1081 N1100 2.334 . S
Cd1081 O1117 2.273 . S
Cd1081 O1118 2.268 . S
Cd1081 O1122 2.417 . S
Cd1081 O1123 2.330 . S
C1082 N1083 1.332 . S
C1082 C1086 1.381 . S
C1082 H1088 0.931 . S
N1083 Cd1080 2.334 . S
N1083 C1082 1.332 . S
N1083 C1087 1.328 . S
C1084 C1085 1.396 . S
C1084 C1087 1.378 . S
C1084 H1126 0.931 . S
C1085 C1084 1.396 . S
C1085 C1086 1.382 . S
C1086 C1082 1.381 . S
C1086 C1085 1.382 . S
C1086 H1127 0.930 . S
C1087 N1083 1.328 . S
C1087 C1084 1.378 . S
C1087 H1089 0.930 . S
H1088 C1082 0.931 . S
H1089 C1087 0.930 . S
C1090 O1116 1.238 . S
C1090 O1117 1.253 . S
C1091 C1092 1.379 . S
C1091 N1096 1.337 . S
C1091 H1097 0.929 . S
C1092 C1091 1.379 . S
C1092 C1093 1.380 . S
C1092 H1128 0.929 . S
C1093 C1092 1.380 . S
C1093 C1094 1.399 . S
C1094 C1093 1.399 . S
C1094 C1095 1.376 . S
C1094 H1129 0.931 . S
C1095 C1094 1.376 . S
C1095 N1096 1.338 . S
C1095 H1098 0.930 . S
N1096 Cd1081 2.304 . S
N1096 C1091 1.337 . S
N1096 C1095 1.338 . S
H1097 C1091 0.929 . S
H1098 C1095 0.930 . S
C1099 N1100 1.332 . S
C1099 C1103 1.381 . S
C1099 H1105 0.931 . S
N1100 Cd1081 2.334 . S
N1100 C1099 1.332 . S
N1100 C1104 1.328 . S
C1101 C1102 1.396 . S
C1101 C1104 1.378 . S
C1101 H1130 0.931 . S
C1102 C1101 1.396 . S
C1102 C1103 1.382 . S
C1103 C1099 1.381 . S
C1103 C1102 1.382 . S
C1103 H1131 0.930 . S
C1104 N1100 1.328 . S
C1104 C1101 1.378 . S
C1104 H1106 0.930 . S
H1105 C1099 0.931 . S
H1106 C1104 0.930 . S
C1107 O1118 1.238 . S
C1107 O1119 1.253 . S
C1108 O1120 1.239 . S
C1108 O1121 1.230 . S
N1109 Cd1080 2.304 . S
N1109 C1110 1.337 . S
N1109 C1114 1.338 . S
C1110 N1109 1.337 . S
C1110 C1111 1.379 . S
C1110 H1124 0.929 . S
C1111 C1110 1.379 . S
C1111 C1112 1.380 . S
C1111 H1132 0.929 . S
C1112 C1111 1.380 . S
C1112 C1113 1.399 . S
C1113 C1112 1.399 . S
C1113 C1114 1.376 . S
C1113 H1133 0.931 . S
C1114 N1109 1.338 . S
C1114 C1113 1.376 . S
C1114 H1125 0.930 . S
C1115 O1122 1.239 . S
C1115 O1123 1.230 . S
O1116 Cd1080 2.268 . S
O1116 C1090 1.238 . S
O1117 Cd1081 2.273 . S
O1117 C1090 1.253 . S
O1118 Cd1081 2.268 . S
O1118 C1107 1.238 . S
O1119 Cd1080 2.273 . S
O1119 C1107 1.253 . S
O1120 Cd1080 2.417 . S
O1120 C1108 1.239 . S
O1121 Cd1080 2.330 . S
O1121 C1108 1.230 . S
O1122 Cd1081 2.417 . S
O1122 C1115 1.239 . S
O1123 Cd1081 2.330 . S
O1123 C1115 1.230 . S
H1124 C1110 0.929 . S
H1125 C1114 0.930 . S
H1126 C1084 0.931 . S
H1127 C1086 0.930 . S
H1128 C1092 0.929 . S
H1129 C1094 0.931 . S
H1130 C1101 0.931 . S
H1131 C1103 0.930 . S
H1132 C1111 0.929 . S
H1133 C1113 0.931 . S
Cd1134 N1137 2.334 . S
Cd1134 N1163 2.304 . S
Cd1134 O1170 2.268 . S
Cd1134 O1173 2.273 . S
Cd1134 O1174 2.417 1_565 S
Cd1134 O1175 2.330 1_565 S
Cd1135 N1150 2.304 . S
Cd1135 N1154 2.334 . S
Cd1135 O1171 2.273 . S
Cd1135 O1172 2.268 . S
Cd1135 O1176 2.417 . S
Cd1135 O1177 2.330 . S
C1136 N1137 1.332 . S
C1136 C1140 1.381 . S
C1136 H1142 0.931 . S
N1137 Cd1134 2.334 . S
N1137 C1136 1.332 . S
N1137 C1141 1.328 . S
C1138 C1139 1.396 . S
C1138 C1141 1.378 . S
C1138 H1180 0.931 . S
C1139 C1138 1.396 . S
C1139 C1140 1.382 . S
C1140 C1136 1.381 . S
C1140 C1139 1.382 . S
C1140 H1181 0.930 . S
C1141 N1137 1.328 . S
C1141 C1138 1.378 . S
C1141 H1143 0.930 . S
H1142 C1136 0.931 . S
H1143 C1141 0.930 . S
C1144 O1170 1.238 . S
C1144 O1171 1.253 . S
C1145 C1146 1.379 . S
C1145 N1150 1.337 . S
C1145 H1151 0.929 . S
C1146 C1145 1.379 . S
C1146 C1147 1.380 . S
C1146 H1182 0.929 . S
C1147 C1146 1.380 . S
C1147 C1148 1.399 . S
C1148 C1147 1.399 . S
C1148 C1149 1.376 . S
C1148 H1183 0.931 . S
C1149 C1148 1.376 . S
C1149 N1150 1.338 . S
C1149 H1152 0.930 . S
N1150 Cd1135 2.304 . S
N1150 C1145 1.337 . S
N1150 C1149 1.338 . S
H1151 C1145 0.929 . S
H1152 C1149 0.930 . S
C1153 N1154 1.332 . S
C1153 C1157 1.381 . S
C1153 H1159 0.931 . S
N1154 Cd1135 2.334 . S
N1154 C1153 1.332 . S
N1154 C1158 1.328 . S
C1155 C1156 1.396 . S
C1155 C1158 1.378 . S
C1155 H1184 0.931 . S
C1156 C1155 1.396 . S
C1156 C1157 1.382 . S
C1157 C1153 1.381 . S
C1157 C1156 1.382 . S
C1157 H1185 0.930 . S
C1158 N1154 1.328 . S
C1158 C1155 1.378 . S
C1158 H1160 0.930 . S
H1159 C1153 0.931 . S
H1160 C1158 0.930 . S
C1161 O1172 1.238 . S
C1161 O1173 1.253 . S
C1162 O1174 1.239 . S
C1162 O1175 1.230 . S
N1163 Cd1134 2.304 . S
N1163 C1164 1.337 . S
N1163 C1168 1.338 1_565 S
C1164 N1163 1.337 . S
C1164 C1165 1.379 . S
C1164 H1178 0.929 . S
C1165 C1164 1.379 . S
C1165 C1166 1.380 1_565 S
C1165 H1186 0.929 . S
C1166 C1165 1.380 1_545 S
C1166 C1167 1.399 . S
C1167 C1166 1.399 . S
C1167 C1168 1.376 . S
C1167 H1187 0.931 . S
C1168 N1163 1.338 1_545 S
C1168 C1167 1.376 . S
C1168 H1179 0.930 . S
C1169 O1176 1.239 . S
C1169 O1177 1.230 . S
O1170 Cd1134 2.268 . S
O1170 C1144 1.238 . S
O1171 Cd1135 2.273 . S
O1171 C1144 1.253 . S
O1172 Cd1135 2.268 . S
O1172 C1161 1.238 . S
O1173 Cd1134 2.273 . S
O1173 C1161 1.253 . S
O1174 Cd1134 2.417 1_545 S
O1174 C1162 1.239 . S
O1175 Cd1134 2.330 1_545 S
O1175 C1162 1.230 . S
O1176 Cd1135 2.417 . S
O1176 C1169 1.239 . S
O1177 Cd1135 2.330 . S
O1177 C1169 1.230 . S
H1178 C1164 0.929 . S
H1179 C1168 0.930 . S
H1180 C1138 0.931 . S
H1181 C1140 0.930 . S
H1182 C1146 0.929 . S
H1183 C1148 0.931 . S
H1184 C1155 0.931 . S
H1185 C1157 0.930 . S
H1186 C1165 0.929 . S
H1187 C1167 0.931 . S
Cd1188 N1191 2.334 . S
Cd1188 N1217 2.304 . S
Cd1188 O1224 2.268 . S
Cd1188 O1227 2.273 . S
Cd1188 O1228 2.417 1_545 S
Cd1188 O1229 2.330 1_545 S
Cd1189 N1204 2.304 . S
Cd1189 N1208 2.334 . S
Cd1189 O1225 2.273 . S
Cd1189 O1226 2.268 . S
Cd1189 O1230 2.417 . S
Cd1189 O1231 2.330 . S
C1190 N1191 1.332 . S
C1190 C1194 1.381 . S
C1190 H1196 0.931 . S
N1191 Cd1188 2.334 . S
N1191 C1190 1.332 . S
N1191 C1195 1.328 . S
C1192 C1193 1.396 . S
C1192 C1195 1.378 . S
C1192 H1234 0.931 . S
C1193 C1192 1.396 . S
C1193 C1194 1.382 . S
C1194 C1190 1.381 . S
C1194 C1193 1.382 . S
C1194 H1235 0.930 . S
C1195 N1191 1.328 . S
C1195 C1192 1.378 . S
C1195 H1197 0.930 . S
H1196 C1190 0.931 . S
H1197 C1195 0.930 . S
C1198 O1224 1.238 . S
C1198 O1225 1.253 . S
C1199 C1200 1.379 . S
C1199 N1204 1.337 . S
C1199 H1205 0.929 . S
C1200 C1199 1.379 . S
C1200 C1201 1.380 . S
C1200 H1236 0.929 . S
C1201 C1200 1.380 . S
C1201 C1202 1.399 . S
C1202 C1201 1.399 . S
C1202 C1203 1.376 . S
C1202 H1237 0.931 . S
C1203 C1202 1.376 . S
C1203 N1204 1.338 . S
C1203 H1206 0.930 . S
N1204 Cd1189 2.304 . S
N1204 C1199 1.337 . S
N1204 C1203 1.338 . S
H1205 C1199 0.929 . S
H1206 C1203 0.930 . S
C1207 N1208 1.332 . S
C1207 C1211 1.381 . S
C1207 H1213 0.931 . S
N1208 Cd1189 2.334 . S
N1208 C1207 1.332 . S
N1208 C1212 1.328 . S
C1209 C1210 1.396 . S
C1209 C1212 1.378 . S
C1209 H1238 0.931 . S
C1210 C1209 1.396 . S
C1210 C1211 1.382 . S
C1211 C1207 1.381 . S
C1211 C1210 1.382 . S
C1211 H1239 0.930 . S
C1212 N1208 1.328 . S
C1212 C1209 1.378 . S
C1212 H1214 0.930 . S
H1213 C1207 0.931 . S
H1214 C1212 0.930 . S
C1215 O1226 1.238 . S
C1215 O1227 1.253 . S
C1216 O1228 1.239 . S
C1216 O1229 1.230 . S
N1217 Cd1188 2.304 . S
N1217 C1218 1.337 . S
N1217 C1222 1.338 1_545 S
C1218 N1217 1.337 . S
C1218 C1219 1.379 . S
C1218 H1232 0.929 . S
C1219 C1218 1.379 . S
C1219 C1220 1.380 1_545 S
C1219 H1240 0.929 . S
C1220 C1219 1.380 1_565 S
C1220 C1221 1.399 . S
C1221 C1220 1.399 . S
C1221 C1222 1.376 . S
C1221 H1241 0.931 . S
C1222 N1217 1.338 1_565 S
C1222 C1221 1.376 . S
C1222 H1233 0.930 . S
C1223 O1230 1.239 . S
C1223 O1231 1.230 . S
O1224 Cd1188 2.268 . S
O1224 C1198 1.238 . S
O1225 Cd1189 2.273 . S
O1225 C1198 1.253 . S
O1226 Cd1189 2.268 . S
O1226 C1215 1.238 . S
O1227 Cd1188 2.273 . S
O1227 C1215 1.253 . S
O1228 Cd1188 2.417 1_565 S
O1228 C1216 1.239 . S
O1229 Cd1188 2.330 1_565 S
O1229 C1216 1.230 . S
O1230 Cd1189 2.417 . S
O1230 C1223 1.239 . S
O1231 Cd1189 2.330 . S
O1231 C1223 1.230 . S
H1232 C1218 0.929 . S
H1233 C1222 0.930 . S
H1234 C1192 0.931 . S
H1235 C1194 0.930 . S
H1236 C1200 0.929 . S
H1237 C1202 0.931 . S
H1238 C1209 0.931 . S
H1239 C1211 0.930 . S
H1240 C1219 0.929 . S
H1241 C1221 0.931 . S
Cd1242 N1245 2.334 . S
Cd1242 N1271 2.304 . S
Cd1242 O1278 2.268 . S
Cd1242 O1281 2.273 . S
Cd1242 O1282 2.417 . S
Cd1242 O1283 2.330 . S
Cd1243 N1258 2.304 . S
Cd1243 N1262 2.334 . S
Cd1243 O1279 2.273 . S
Cd1243 O1280 2.268 . S
Cd1243 O1284 2.417 . S
Cd1243 O1285 2.330 . S
C1244 N1245 1.332 . S
C1244 C1248 1.381 . S
C1244 H1250 0.931 . S
N1245 Cd1242 2.334 . S
N1245 C1244 1.332 . S
N1245 C1249 1.328 . S
C1246 C1247 1.396 . S
C1246 C1249 1.378 . S
C1246 H1288 0.931 . S
C1247 C1246 1.396 . S
C1247 C1248 1.382 . S
C1248 C1244 1.381 . S
C1248 C1247 1.382 . S
C1248 H1289 0.930 . S
C1249 N1245 1.328 . S
C1249 C1246 1.378 . S
C1249 H1251 0.930 . S
H1250 C1244 0.931 . S
H1251 C1249 0.930 . S
C1252 O1278 1.238 . S
C1252 O1279 1.253 . S
C1253 C1254 1.379 . S
C1253 N1258 1.337 . S
C1253 H1259 0.929 . S
C1254 C1253 1.379 . S
C1254 C1255 1.380 . S
C1254 H1290 0.929 . S
C1255 C1254 1.380 . S
C1255 C1256 1.399 . S
C1256 C1255 1.399 . S
C1256 C1257 1.376 . S
C1256 H1291 0.931 . S
C1257 C1256 1.376 . S
C1257 N1258 1.338 . S
C1257 H1260 0.930 . S
N1258 Cd1243 2.304 . S
N1258 C1253 1.337 . S
N1258 C1257 1.338 . S
H1259 C1253 0.929 . S
H1260 C1257 0.930 . S
C1261 N1262 1.332 . S
C1261 C1265 1.381 . S
C1261 H1267 0.931 . S
N1262 Cd1243 2.334 . S
N1262 C1261 1.332 . S
N1262 C1266 1.328 . S
C1263 C1264 1.396 . S
C1263 C1266 1.378 . S
C1263 H1292 0.931 . S
C1264 C1263 1.396 . S
C1264 C1265 1.382 . S
C1265 C1261 1.381 . S
C1265 C1264 1.382 . S
C1265 H1293 0.930 . S
C1266 N1262 1.328 . S
C1266 C1263 1.378 . S
C1266 H1268 0.930 . S
H1267 C1261 0.931 . S
H1268 C1266 0.930 . S
C1269 O1280 1.238 . S
C1269 O1281 1.253 . S
C1270 O1282 1.239 . S
C1270 O1283 1.230 . S
N1271 Cd1242 2.304 . S
N1271 C1272 1.337 . S
N1271 C1276 1.338 . S
C1272 N1271 1.337 . S
C1272 C1273 1.379 . S
C1272 H1286 0.929 . S
C1273 C1272 1.379 . S
C1273 C1274 1.380 . S
C1273 H1294 0.929 . S
C1274 C1273 1.380 . S
C1274 C1275 1.399 . S
C1275 C1274 1.399 . S
C1275 C1276 1.376 . S
C1275 H1295 0.931 . S
C1276 N1271 1.338 . S
C1276 C1275 1.376 . S
C1276 H1287 0.930 . S
C1277 O1284 1.239 . S
C1277 O1285 1.230 . S
O1278 Cd1242 2.268 . S
O1278 C1252 1.238 . S
O1279 Cd1243 2.273 . S
O1279 C1252 1.253 . S
O1280 Cd1243 2.268 . S
O1280 C1269 1.238 . S
O1281 Cd1242 2.273 . S
O1281 C1269 1.253 . S
O1282 Cd1242 2.417 . S
O1282 C1270 1.239 . S
O1283 Cd1242 2.330 . S
O1283 C1270 1.230 . S
O1284 Cd1243 2.417 . S
O1284 C1277 1.239 . S
O1285 Cd1243 2.330 . S
O1285 C1277 1.230 . S
H1286 C1272 0.929 . S
H1287 C1276 0.930 . S
H1288 C1246 0.931 . S
H1289 C1248 0.930 . S
H1290 C1254 0.929 . S
H1291 C1256 0.931 . S
H1292 C1263 0.931 . S
H1293 C1265 0.930 . S
H1294 C1273 0.929 . S
H1295 C1275 0.931 . S
H1296 C1308 0.930 . S
H1297 C1310 0.930 . S
H1298 C1311 0.930 . S
H1299 C1315 0.959 . S
H1300 C1315 0.959 . S
H1301 C1315 0.961 . S
H1302 C1316 0.960 . S
H1303 C1316 0.961 . S
H1304 C1316 0.959 . S
H1305 C1319 0.929 . S
H1306 C1320 0.931 . S
H1307 C1322 0.930 . S
C1308 H1296 0.930 . S
C1308 C1309 1.399 . S
C1308 C1313 1.399 . S
C1309 C1308 1.399 . S
C1309 C1310 1.376 . S
C1310 H1297 0.930 . S
C1310 C1309 1.376 . S
C1310 C1311 1.388 . S
C1311 H1298 0.930 . S
C1311 C1310 1.388 . S
C1311 C1312 1.390 . S
C1312 C1311 1.390 . S
C1312 C1313 1.394 . S
C1312 C1318 1.465 . S
C1313 C1308 1.399 . S
C1313 C1312 1.394 . S
C1313 C1314 1.516 . S
C1314 C1313 1.516 . S
C1314 C1315 1.502 . S
C1314 C1316 1.561 . S
C1314 C1317 1.526 . S
C1315 H1299 0.959 . S
C1315 H1300 0.959 . S
C1315 H1301 0.961 . S
C1315 C1314 1.502 . S
C1316 H1302 0.960 . S
C1316 H1303 0.961 . S
C1316 H1304 0.959 . S
C1316 C1314 1.561 . S
C1317 C1314 1.526 . S
C1317 C1318 1.396 . S
C1317 C1322 1.390 . S
C1318 C1312 1.465 . S
C1318 C1317 1.396 . S
C1318 C1319 1.399 . S
C1319 H1305 0.929 . S
C1319 C1318 1.399 . S
C1319 C1320 1.385 . S
C1320 H1306 0.931 . S
C1320 C1319 1.385 . S
C1320 C1321 1.389 . S
C1321 C1320 1.389 . S
C1321 C1322 1.387 . S
C1322 H1307 0.930 . S
C1322 C1317 1.390 . S
C1322 C1321 1.387 . S
H1323 C1335 0.930 . S
H1324 C1337 0.930 . S
H1325 C1338 0.930 . S
H1326 C1342 0.959 . S
H1327 C1342 0.959 . S
H1328 C1342 0.961 . S
H1329 C1343 0.960 . S
H1330 C1343 0.961 . S
H1331 C1343 0.959 . S
H1332 C1346 0.929 . S
H1333 C1347 0.931 . S
H1334 C1349 0.930 . S
C1335 H1323 0.930 . S
C1335 C1336 1.399 . S
C1335 C1340 1.399 . S
C1336 C1335 1.399 . S
C1336 C1337 1.376 . S
C1337 H1324 0.930 . S
C1337 C1336 1.376 . S
C1337 C1338 1.388 . S
C1338 H1325 0.930 . S
C1338 C1337 1.388 . S
C1338 C1339 1.390 . S
C1339 C1338 1.390 . S
C1339 C1340 1.394 . S
C1339 C1345 1.465 . S
C1340 C1335 1.399 . S
C1340 C1339 1.394 . S
C1340 C1341 1.516 . S
C1341 C1340 1.516 . S
C1341 C1342 1.502 . S
C1341 C1343 1.561 . S
C1341 C1344 1.526 . S
C1342 H1326 0.959 . S
C1342 H1327 0.959 . S
C1342 H1328 0.961 . S
C1342 C1341 1.502 . S
C1343 H1329 0.960 . S
C1343 H1330 0.961 . S
C1343 H1331 0.959 . S
C1343 C1341 1.561 . S
C1344 C1341 1.526 . S
C1344 C1345 1.396 . S
C1344 C1349 1.390 . S
C1345 C1339 1.465 . S
C1345 C1344 1.396 . S
C1345 C1346 1.399 . S
C1346 H1332 0.929 . S
C1346 C1345 1.399 . S
C1346 C1347 1.385 . S
C1347 H1333 0.931 . S
C1347 C1346 1.385 . S
C1347 C1348 1.389 . S
C1348 C1347 1.389 . S
C1348 C1349 1.387 . S
C1349 H1334 0.930 . S
C1349 C1344 1.390 . S
C1349 C1348 1.387 . S
H1350 C1362 0.930 . S
H1351 C1364 0.930 . S
H1352 C1365 0.930 . S
H1353 C1369 0.959 . S
H1354 C1369 0.959 . S
H1355 C1369 0.961 1_565 S
H1356 C1370 0.960 1_565 S
H1357 C1370 0.961 . S
H1358 C1370 0.959 . S
H1359 C1373 0.929 . S
H1360 C1374 0.931 . S
H1361 C1376 0.930 . S
C1362 H1350 0.930 . S
C1362 C1363 1.399 . S
C1362 C1367 1.399 1_565 S
C1363 C1362 1.399 . S
C1363 C1364 1.376 . S
C1364 H1351 0.930 . S
C1364 C1363 1.376 . S
C1364 C1365 1.388 1_565 S
C1365 H1352 0.930 . S
C1365 C1364 1.388 1_545 S
C1365 C1366 1.390 . S
C1366 C1365 1.390 . S
C1366 C1367 1.394 . S
C1366 C1372 1.465 . S
C1367 C1362 1.399 1_545 S
C1367 C1366 1.394 . S
C1367 C1368 1.516 . S
C1368 C1367 1.516 . S
C1368 C1369 1.502 . S
C1368 C1370 1.561 . S
C1368 C1371 1.526 . S
C1369 H1353 0.959 . S
C1369 H1354 0.959 . S
C1369 H1355 0.961 1_545 S
C1369 C1368 1.502 . S
C1370 H1356 0.960 1_545 S
C1370 H1357 0.961 . S
C1370 H1358 0.959 . S
C1370 C1368 1.561 . S
C1371 C1368 1.526 . S
C1371 C1372 1.396 . S
C1371 C1376 1.390 . S
C1372 C1366 1.465 . S
C1372 C1371 1.396 . S
C1372 C1373 1.399 . S
C1373 H1359 0.929 . S
C1373 C1372 1.399 . S
C1373 C1374 1.385 . S
C1374 H1360 0.931 . S
C1374 C1373 1.385 . S
C1374 C1375 1.389 . S
C1375 C1374 1.389 . S
C1375 C1376 1.387 . S
C1376 H1361 0.930 . S
C1376 C1371 1.390 . S
C1376 C1375 1.387 . S
H1377 C1389 0.930 . S
H1378 C1391 0.930 . S
H1379 C1392 0.930 . S
H1380 C1396 0.959 . S
H1381 C1396 0.959 . S
H1382 C1396 0.961 . S
H1383 C1397 0.960 . S
H1384 C1397 0.961 . S
H1385 C1397 0.959 . S
H1386 C1400 0.929 . S
H1387 C1401 0.931 . S
H1388 C1403 0.930 . S
C1389 H1377 0.930 . S
C1389 C1390 1.399 . S
C1389 C1394 1.399 . S
C1390 C1389 1.399 . S
C1390 C1391 1.376 . S
C1391 H1378 0.930 . S
C1391 C1390 1.376 . S
C1391 C1392 1.388 . S
C1392 H1379 0.930 . S
C1392 C1391 1.388 . S
C1392 C1393 1.390 . S
C1393 C1392 1.390 . S
C1393 C1394 1.394 . S
C1393 C1399 1.465 . S
C1394 C1389 1.399 . S
C1394 C1393 1.394 . S
C1394 C1395 1.516 . S
C1395 C1394 1.516 . S
C1395 C1396 1.502 . S
C1395 C1397 1.561 . S
C1395 C1398 1.526 . S
C1396 H1380 0.959 . S
C1396 H1381 0.959 . S
C1396 H1382 0.961 . S
C1396 C1395 1.502 . S
C1397 H1383 0.960 . S
C1397 H1384 0.961 . S
C1397 H1385 0.959 . S
C1397 C1395 1.561 . S
C1398 C1395 1.526 . S
C1398 C1399 1.396 . S
C1398 C1403 1.390 1_565 S
C1399 C1393 1.465 . S
C1399 C1398 1.396 . S
C1399 C1400 1.399 1_565 S
C1400 H1386 0.929 . S
C1400 C1399 1.399 1_545 S
C1400 C1401 1.385 . S
C1401 H1387 0.931 . S
C1401 C1400 1.385 . S
C1401 C1402 1.389 . S
C1402 C1401 1.389 . S
C1402 C1403 1.387 . S
C1403 H1388 0.930 . S
C1403 C1398 1.390 1_545 S
C1403 C1402 1.387 . S
H1404 C1416 0.930 . S
H1405 C1418 0.930 . S
H1406 C1419 0.930 . S
H1407 C1423 0.959 . S
H1408 C1423 0.959 . S
H1409 C1423 0.961 . S
H1410 C1424 0.960 . S
H1411 C1424 0.961 . S
H1412 C1424 0.959 . S
H1413 C1427 0.929 . S
H1414 C1428 0.931 . S
H1415 C1430 0.930 . S
C1416 H1404 0.930 . S
C1416 C1417 1.399 . S
C1416 C1421 1.399 . S
C1417 C1416 1.399 . S
C1417 C1418 1.376 . S
C1418 H1405 0.930 . S
C1418 C1417 1.376 . S
C1418 C1419 1.388 . S
C1419 H1406 0.930 . S
C1419 C1418 1.388 . S
C1419 C1420 1.390 . S
C1420 C1419 1.390 . S
C1420 C1421 1.394 . S
C1420 C1426 1.465 . S
C1421 C1416 1.399 . S
C1421 C1420 1.394 . S
C1421 C1422 1.516 . S
C1422 C1421 1.516 . S
C1422 C1423 1.502 . S
C1422 C1424 1.561 . S
C1422 C1425 1.526 . S
C1423 H1407 0.959 . S
C1423 H1408 0.959 . S
C1423 H1409 0.961 . S
C1423 C1422 1.502 . S
C1424 H1410 0.960 . S
C1424 H1411 0.961 . S
C1424 H1412 0.959 . S
C1424 C1422 1.561 . S
C1425 C1422 1.526 . S
C1425 C1426 1.396 . S
C1425 C1430 1.390 . S
C1426 C1420 1.465 . S
C1426 C1425 1.396 . S
C1426 C1427 1.399 . S
C1427 H1413 0.929 . S
C1427 C1426 1.399 . S
C1427 C1428 1.385 . S
C1428 H1414 0.931 . S
C1428 C1427 1.385 . S
C1428 C1429 1.389 . S
C1429 C1428 1.389 . S
C1429 C1430 1.387 . S
C1430 H1415 0.930 . S
C1430 C1425 1.390 . S
C1430 C1429 1.387 . S
H1431 C1443 0.930 . S
H1432 C1445 0.930 . S
H1433 C1446 0.930 . S
H1434 C1450 0.959 . S
H1435 C1450 0.959 . S
H1436 C1450 0.961 . S
H1437 C1451 0.960 . S
H1438 C1451 0.961 . S
H1439 C1451 0.959 . S
H1440 C1454 0.929 . S
H1441 C1455 0.931 . S
H1442 C1457 0.930 . S
C1443 H1431 0.930 . S
C1443 C1444 1.399 . S
C1443 C1448 1.399 1_554 S
C1444 C1443 1.399 . S
C1444 C1445 1.376 . S
C1445 H1432 0.930 . S
C1445 C1444 1.376 . S
C1445 C1446 1.388 . S
C1446 H1433 0.930 . S
C1446 C1445 1.388 . S
C1446 C1447 1.390 1_554 S
C1447 C1446 1.390 1_556 S
C1447 C1448 1.394 . S
C1447 C1453 1.465 . S
C1448 C1443 1.399 1_556 S
C1448 C1447 1.394 . S
C1448 C1449 1.516 . S
C1449 C1448 1.516 . S
C1449 C1450 1.502 . S
C1449 C1451 1.561 . S
C1449 C1452 1.526 . S
C1450 H1434 0.959 . S
C1450 H1435 0.959 . S
C1450 H1436 0.961 . S
C1450 C1449 1.502 . S
C1451 H1437 0.960 . S
C1451 H1438 0.961 . S
C1451 H1439 0.959 . S
C1451 C1449 1.561 . S
C1452 C1449 1.526 . S
C1452 C1453 1.396 . S
C1452 C1457 1.390 . S
C1453 C1447 1.465 . S
C1453 C1452 1.396 . S
C1453 C1454 1.399 . S
C1454 H1440 0.929 . S
C1454 C1453 1.399 . S
C1454 C1455 1.385 . S
C1455 H1441 0.931 . S
C1455 C1454 1.385 . S
C1455 C1456 1.389 . S
C1456 C1455 1.389 . S
C1456 C1457 1.387 . S
C1457 H1442 0.930 . S
C1457 C1452 1.390 . S
C1457 C1456 1.387 . S
H1458 C1470 0.930 . S
H1459 C1472 0.930 . S
H1460 C1473 0.930 . S
H1461 C1477 0.959 . S
H1462 C1477 0.959 . S
H1463 C1477 0.961 . S
H1464 C1478 0.960 . S
H1465 C1478 0.961 . S
H1466 C1478 0.959 . S
H1467 C1481 0.929 . S
H1468 C1482 0.931 . S
H1469 C1484 0.930 . S
C1470 H1458 0.930 . S
C1470 C1471 1.399 . S
C1470 C1475 1.399 . S
C1471 C1470 1.399 . S
C1471 C1472 1.376 . S
C1472 H1459 0.930 . S
C1472 C1471 1.376 . S
C1472 C1473 1.388 . S
C1473 H1460 0.930 . S
C1473 C1472 1.388 . S
C1473 C1474 1.390 . S
C1474 C1473 1.390 . S
C1474 C1475 1.394 . S
C1474 C1480 1.465 . S
C1475 C1470 1.399 . S
C1475 C1474 1.394 . S
C1475 C1476 1.516 . S
C1476 C1475 1.516 . S
C1476 C1477 1.502 . S
C1476 C1478 1.561 . S
C1476 C1479 1.526 . S
C1477 H1461 0.959 . S
C1477 H1462 0.959 . S
C1477 H1463 0.961 . S
C1477 C1476 1.502 . S
C1478 H1464 0.960 . S
C1478 H1465 0.961 . S
C1478 H1466 0.959 . S
C1478 C1476 1.561 . S
C1479 C1476 1.526 . S
C1479 C1480 1.396 . S
C1479 C1484 1.390 . S
C1480 C1474 1.465 . S
C1480 C1479 1.396 . S
C1480 C1481 1.399 . S
C1481 H1467 0.929 . S
C1481 C1480 1.399 . S
C1481 C1482 1.385 . S
C1482 H1468 0.931 . S
C1482 C1481 1.385 . S
C1482 C1483 1.389 . S
C1483 C1482 1.389 . S
C1483 C1484 1.387 . S
C1484 H1469 0.930 . S
C1484 C1479 1.390 . S
C1484 C1483 1.387 . S
H1485 C1497 0.930 . S
H1486 C1499 0.930 . S
H1487 C1500 0.930 1_554 S
H1488 C1504 0.959 . S
H1489 C1504 0.959 . S
H1490 C1504 0.961 . S
H1491 C1505 0.960 1_556 S
H1492 C1505 0.961 . S
H1493 C1505 0.959 . S
H1494 C1508 0.929 . S
H1495 C1509 0.931 . S
H1496 C1511 0.930 . S
C1497 H1485 0.930 . S
C1497 C1498 1.399 . S
C1497 C1502 1.399 1_556 S
C1498 C1497 1.399 . S
C1498 C1499 1.376 . S
C1499 H1486 0.930 . S
C1499 C1498 1.376 . S
C1499 C1500 1.388 . S
C1500 H1487 0.930 1_556 S
C1500 C1499 1.388 . S
C1500 C1501 1.390 1_556 S
C1501 C1500 1.390 1_554 S
C1501 C1502 1.394 . S
C1501 C1507 1.465 . S
C1502 C1497 1.399 1_554 S
C1502 C1501 1.394 . S
C1502 C1503 1.516 . S
C1503 C1502 1.516 . S
C1503 C1504 1.502 . S
C1503 C1505 1.561 . S
C1503 C1506 1.526 . S
C1504 H1488 0.959 . S
C1504 H1489 0.959 . S
C1504 H1490 0.961 . S
C1504 C1503 1.502 . S
C1505 H1491 0.960 1_554 S
C1505 H1492 0.961 . S
C1505 H1493 0.959 . S
C1505 C1503 1.561 . S
C1506 C1503 1.526 . S
C1506 C1507 1.396 . S
C1506 C1511 1.390 . S
C1507 C1501 1.465 . S
C1507 C1506 1.396 . S
C1507 C1508 1.399 . S
C1508 H1494 0.929 . S
C1508 C1507 1.399 . S
C1508 C1509 1.385 . S
C1509 H1495 0.931 . S
C1509 C1508 1.385 . S
C1509 C1510 1.389 . S
C1510 C1509 1.389 . S
C1510 C1511 1.387 . S
C1511 H1496 0.930 . S
C1511 C1506 1.390 . S
C1511 C1510 1.387 . S
H1512 C1524 0.930 . S
H1513 C1526 0.930 . S
H1514 C1527 0.930 . S
H1515 C1531 0.959 . S
H1516 C1531 0.959 . S
H1517 C1531 0.961 . S
H1518 C1532 0.960 . S
H1519 C1532 0.961 . S
H1520 C1532 0.959 . S
H1521 C1535 0.929 . S
H1522 C1536 0.931 . S
H1523 C1538 0.930 . S
C1524 H1512 0.930 . S
C1524 C1525 1.399 . S
C1524 C1529 1.399 . S
C1525 C1524 1.399 . S
C1525 C1526 1.376 . S
C1526 H1513 0.930 . S
C1526 C1525 1.376 . S
C1526 C1527 1.388 . S
C1527 H1514 0.930 . S
C1527 C1526 1.388 . S
C1527 C1528 1.390 . S
C1528 C1527 1.390 . S
C1528 C1529 1.394 . S
C1528 C1534 1.465 . S
C1529 C1524 1.399 . S
C1529 C1528 1.394 . S
C1529 C1530 1.516 . S
C1530 C1529 1.516 . S
C1530 C1531 1.502 . S
C1530 C1532 1.561 . S
C1530 C1533 1.526 . S
C1531 H1515 0.959 . S
C1531 H1516 0.959 . S
C1531 H1517 0.961 . S
C1531 C1530 1.502 . S
C1532 H1518 0.960 . S
C1532 H1519 0.961 . S
C1532 H1520 0.959 . S
C1532 C1530 1.561 . S
C1533 C1530 1.526 . S
C1533 C1534 1.396 . S
C1533 C1538 1.390 . S
C1534 C1528 1.465 . S
C1534 C1533 1.396 . S
C1534 C1535 1.399 . S
C1535 H1521 0.929 . S
C1535 C1534 1.399 . S
C1535 C1536 1.385 . S
C1536 H1522 0.931 . S
C1536 C1535 1.385 . S
C1536 C1537 1.389 . S
C1537 C1536 1.389 . S
C1537 C1538 1.387 . S
C1538 H1523 0.930 . S
C1538 C1533 1.390 . S
C1538 C1537 1.387 . S
H1539 C1551 0.930 . S
H1540 C1553 0.930 . S
H1541 C1554 0.930 . S
H1542 C1558 0.959 . S
H1543 C1558 0.959 . S
H1544 C1558 0.961 . S
H1545 C1559 0.960 1_455 S
H1546 C1559 0.961 . S
H1547 C1559 0.959 . S
H1548 C1562 0.929 . S
H1549 C1563 0.931 . S
H1550 C1565 0.930 . S
C1551 H1539 0.930 . S
C1551 C1552 1.399 . S
C1551 C1556 1.399 1_455 S
C1552 C1551 1.399 . S
C1552 C1553 1.376 . S
C1553 H1540 0.930 . S
C1553 C1552 1.376 . S
C1553 C1554 1.388 1_455 S
C1554 H1541 0.930 . S
C1554 C1553 1.388 1_655 S
C1554 C1555 1.390 . S
C1555 C1554 1.390 . S
C1555 C1556 1.394 . S
C1555 C1561 1.465 . S
C1556 C1551 1.399 1_655 S
C1556 C1555 1.394 . S
C1556 C1557 1.516 . S
C1557 C1556 1.516 . S
C1557 C1558 1.502 . S
C1557 C1559 1.561 . S
C1557 C1560 1.526 . S
C1558 H1542 0.959 . S
C1558 H1543 0.959 . S
C1558 H1544 0.961 . S
C1558 C1557 1.502 . S
C1559 H1545 0.960 1_655 S
C1559 H1546 0.961 . S
C1559 H1547 0.959 . S
C1559 C1557 1.561 . S
C1560 C1557 1.526 . S
C1560 C1561 1.396 . S
C1560 C1565 1.390 . S
C1561 C1555 1.465 . S
C1561 C1560 1.396 . S
C1561 C1562 1.399 . S
C1562 H1548 0.929 . S
C1562 C1561 1.399 . S
C1562 C1563 1.385 . S
C1563 H1549 0.931 . S
C1563 C1562 1.385 . S
C1563 C1564 1.389 . S
C1564 C1563 1.389 . S
C1564 C1565 1.387 . S
C1565 H1550 0.930 . S
C1565 C1560 1.390 . S
C1565 C1564 1.387 . S
H1566 C1578 0.930 . S
H1567 C1580 0.930 . S
H1568 C1581 0.930 . S
H1569 C1585 0.959 . S
H1570 C1585 0.959 . S
H1571 C1585 0.961 . S
H1572 C1586 0.960 . S
H1573 C1586 0.961 . S
H1574 C1586 0.959 . S
H1575 C1589 0.929 . S
H1576 C1590 0.931 . S
H1577 C1592 0.930 . S
C1578 H1566 0.930 . S
C1578 C1579 1.399 . S
C1578 C1583 1.399 . S
C1579 C1578 1.399 . S
C1579 C1580 1.376 . S
C1580 H1567 0.930 . S
C1580 C1579 1.376 . S
C1580 C1581 1.388 . S
C1581 H1568 0.930 . S
C1581 C1580 1.388 . S
C1581 C1582 1.390 . S
C1582 C1581 1.390 . S
C1582 C1583 1.394 . S
C1582 C1588 1.465 . S
C1583 C1578 1.399 . S
C1583 C1582 1.394 . S
C1583 C1584 1.516 . S
C1584 C1583 1.516 . S
C1584 C1585 1.502 . S
C1584 C1586 1.561 . S
C1584 C1587 1.526 . S
C1585 H1569 0.959 . S
C1585 H1570 0.959 . S
C1585 H1571 0.961 . S
C1585 C1584 1.502 . S
C1586 H1572 0.960 . S
C1586 H1573 0.961 . S
C1586 H1574 0.959 . S
C1586 C1584 1.561 . S
C1587 C1584 1.526 . S
C1587 C1588 1.396 . S
C1587 C1592 1.390 . S
C1588 C1582 1.465 . S
C1588 C1587 1.396 . S
C1588 C1589 1.399 . S
C1589 H1575 0.929 . S
C1589 C1588 1.399 . S
C1589 C1590 1.385 . S
C1590 H1576 0.931 . S
C1590 C1589 1.385 . S
C1590 C1591 1.389 . S
C1591 C1590 1.389 . S
C1591 C1592 1.387 . S
C1592 H1577 0.930 . S
C1592 C1587 1.390 . S
C1592 C1591 1.387 . S
H1593 C1605 0.930 . S
H1594 C1607 0.930 . S
H1595 C1608 0.929 . S
H1596 C1612 0.959 . S
H1597 C1612 0.959 . S
H1598 C1612 0.961 . S
H1599 C1613 0.960 . S
H1600 C1613 0.961 . S
H1601 C1613 0.959 . S
H1602 C1616 0.929 . S
H1603 C1617 0.931 . S
H1604 C1619 0.930 . S
C1605 H1593 0.930 . S
C1605 C1606 1.399 . S
C1605 C1610 1.399 1_655 S
C1606 C1605 1.399 . S
C1606 C1607 1.376 . S
C1607 H1594 0.930 . S
C1607 C1606 1.376 . S
C1607 C1608 1.391 1_655 S
C1608 H1595 0.929 . S
C1608 C1607 1.391 1_455 S
C1608 C1609 1.388 . S
C1609 C1608 1.388 . S
C1609 C1610 1.394 . S
C1609 C1615 1.465 . S
C1610 C1605 1.399 1_455 S
C1610 C1609 1.394 . S
C1610 C1611 1.516 . S
C1611 C1610 1.516 . S
C1611 C1612 1.502 . S
C1611 C1613 1.561 . S
C1611 C1614 1.526 . S
C1612 H1596 0.959 . S
C1612 H1597 0.959 . S
C1612 H1598 0.961 . S
C1612 C1611 1.502 . S
C1613 H1599 0.960 . S
C1613 H1600 0.961 . S
C1613 H1601 0.959 . S
C1613 C1611 1.561 . S
C1614 C1611 1.526 . S
C1614 C1615 1.396 . S
C1614 C1619 1.390 . S
C1615 C1609 1.465 . S
C1615 C1614 1.396 . S
C1615 C1616 1.399 . S
C1616 H1602 0.929 . S
C1616 C1615 1.399 . S
C1616 C1617 1.385 . S
C1617 H1603 0.931 . S
C1617 C1616 1.385 . S
C1617 C1618 1.389 . S
C1618 C1617 1.389 . S
C1618 C1619 1.387 . S
C1619 H1604 0.930 . S
C1619 C1614 1.390 . S
C1619 C1618 1.387 . S
H1620 C1632 0.930 . S
H1621 C1634 0.930 . S
H1622 C1635 0.930 . S
H1623 C1639 0.959 . S
H1624 C1639 0.959 . S
H1625 C1639 0.961 . S
H1626 C1640 0.960 . S
H1627 C1640 0.961 . S
H1628 C1640 0.959 . S
H1629 C1643 0.929 . S
H1630 C1644 0.931 . S
H1631 C1646 0.930 . S
C1632 H1620 0.930 . S
C1632 C1633 1.399 . S
C1632 C1637 1.399 . S
C1633 C1632 1.399 . S
C1633 C1634 1.376 . S
C1634 H1621 0.930 . S
C1634 C1633 1.376 . S
C1634 C1635 1.388 . S
C1635 H1622 0.930 . S
C1635 C1634 1.388 . S
C1635 C1636 1.390 . S
C1636 C1635 1.390 . S
C1636 C1637 1.394 . S
C1636 C1642 1.465 . S
C1637 C1632 1.399 . S
C1637 C1636 1.394 . S
C1637 C1638 1.516 . S
C1638 C1637 1.516 . S
C1638 C1639 1.502 . S
C1638 C1640 1.561 . S
C1638 C1641 1.526 . S
C1639 H1623 0.959 . S
C1639 H1624 0.959 . S
C1639 H1625 0.961 . S
C1639 C1638 1.502 . S
C1640 H1626 0.960 . S
C1640 H1627 0.961 . S
C1640 H1628 0.959 . S
C1640 C1638 1.561 . S
C1641 C1638 1.526 . S
C1641 C1642 1.396 . S
C1641 C1646 1.390 . S
C1642 C1636 1.465 . S
C1642 C1641 1.396 . S
C1642 C1643 1.399 . S
C1643 H1629 0.929 . S
C1643 C1642 1.399 . S
C1643 C1644 1.385 . S
C1644 H1630 0.931 . S
C1644 C1643 1.385 . S
C1644 C1645 1.389 . S
C1645 C1644 1.389 . S
C1645 C1646 1.387 . S
C1646 H1631 0.930 . S
C1646 C1641 1.390 . S
C1646 C1645 1.387 . S
H1647 C1659 0.930 . S
H1648 C1661 0.930 . S
H1649 C1662 0.930 . S
H1650 C1666 0.959 . S
H1651 C1666 0.959 . S
H1652 C1666 0.961 . S
H1653 C1667 0.960 . S
H1654 C1667 0.961 . S
H1655 C1667 0.959 . S
H1656 C1670 0.929 . S
H1657 C1671 0.931 . S
H1658 C1673 0.930 . S
C1659 H1647 0.930 . S
C1659 C1660 1.399 . S
C1659 C1664 1.399 . S
C1660 C1659 1.399 . S
C1660 C1661 1.376 . S
C1661 H1648 0.930 . S
C1661 C1660 1.376 . S
C1661 C1662 1.388 . S
C1662 H1649 0.930 . S
C1662 C1661 1.388 . S
C1662 C1663 1.390 . S
C1663 C1662 1.390 . S
C1663 C1664 1.394 . S
C1663 C1669 1.465 . S
C1664 C1659 1.399 . S
C1664 C1663 1.394 . S
C1664 C1665 1.516 . S
C1665 C1664 1.516 . S
C1665 C1666 1.502 . S
C1665 C1667 1.561 . S
C1665 C1668 1.526 . S
C1666 H1650 0.959 . S
C1666 H1651 0.959 . S
C1666 H1652 0.961 . S
C1666 C1665 1.502 . S
C1667 H1653 0.960 . S
C1667 H1654 0.961 . S
C1667 H1655 0.959 . S
C1667 C1665 1.561 . S
C1668 C1665 1.526 . S
C1668 C1669 1.396 . S
C1668 C1673 1.390 . S
C1669 C1663 1.465 . S
C1669 C1668 1.396 . S
C1669 C1670 1.399 . S
C1670 H1656 0.929 . S
C1670 C1669 1.399 . S
C1670 C1671 1.385 . S
C1671 H1657 0.931 . S
C1671 C1670 1.385 . S
C1671 C1672 1.389 . S
C1672 C1671 1.389 . S
C1672 C1673 1.387 . S
C1673 H1658 0.930 . S
C1673 C1668 1.390 . S
C1673 C1672 1.387 . S
H1674 C1686 0.930 . S
H1675 C1688 0.930 . S
H1676 C1689 0.930 . S
H1677 C1693 0.959 . S
H1678 C1693 0.959 . S
H1679 C1693 0.961 . S
H1680 C1694 0.960 . S
H1681 C1694 0.961 . S
H1682 C1694 0.959 . S
H1683 C1697 0.929 . S
H1684 C1698 0.931 . S
H1685 C1700 0.930 . S
C1686 H1674 0.930 . S
C1686 C1687 1.399 . S
C1686 C1691 1.399 1_545 S
C1687 C1686 1.399 . S
C1687 C1688 1.376 . S
C1688 H1675 0.930 . S
C1688 C1687 1.376 . S
C1688 C1689 1.388 . S
C1689 H1676 0.930 . S
C1689 C1688 1.388 . S
C1689 C1690 1.390 1_545 S
C1690 C1689 1.390 1_565 S
C1690 C1691 1.394 . S
C1690 C1696 1.465 . S
C1691 C1686 1.399 1_565 S
C1691 C1690 1.394 . S
C1691 C1692 1.516 . S
C1692 C1691 1.516 . S
C1692 C1693 1.502 . S
C1692 C1694 1.561 . S
C1692 C1695 1.526 . S
C1693 H1677 0.959 . S
C1693 H1678 0.959 . S
C1693 H1679 0.961 . S
C1693 C1692 1.502 . S
C1694 H1680 0.960 . S
C1694 H1681 0.961 . S
C1694 H1682 0.959 . S
C1694 C1692 1.561 . S
C1695 C1692 1.526 . S
C1695 C1696 1.396 . S
C1695 C1700 1.390 . S
C1696 C1690 1.465 . S
C1696 C1695 1.396 . S
C1696 C1697 1.399 . S
C1697 H1683 0.929 . S
C1697 C1696 1.399 . S
C1697 C1698 1.385 . S
C1698 H1684 0.931 . S
C1698 C1697 1.385 . S
C1698 C1699 1.389 . S
C1699 C1698 1.389 . S
C1699 C1700 1.387 . S
C1700 H1685 0.930 . S
C1700 C1695 1.390 . S
C1700 C1699 1.387 . S
H1701 C1713 0.930 . S
H1702 C1715 0.930 . S
H1703 C1716 0.930 . S
H1704 C1720 0.959 . S
H1705 C1720 0.959 . S
H1706 C1720 0.961 . S
H1707 C1721 0.960 . S
H1708 C1721 0.961 . S
H1709 C1721 0.959 . S
H1710 C1724 0.929 . S
H1711 C1725 0.931 . S
H1712 C1727 0.930 . S
C1713 H1701 0.930 . S
C1713 C1714 1.399 . S
C1713 C1718 1.399 . S
C1714 C1713 1.399 . S
C1714 C1715 1.376 . S
C1715 H1702 0.930 . S
C1715 C1714 1.376 . S
C1715 C1716 1.388 . S
C1716 H1703 0.930 . S
C1716 C1715 1.388 . S
C1716 C1717 1.390 . S
C1717 C1716 1.390 . S
C1717 C1718 1.394 . S
C1717 C1723 1.465 . S
C1718 C1713 1.399 . S
C1718 C1717 1.394 . S
C1718 C1719 1.516 . S
C1719 C1718 1.516 . S
C1719 C1720 1.502 . S
C1719 C1721 1.561 . S
C1719 C1722 1.526 . S
C1720 H1704 0.959 . S
C1720 H1705 0.959 . S
C1720 H1706 0.961 . S
C1720 C1719 1.502 . S
C1721 H1707 0.960 . S
C1721 H1708 0.961 . S
C1721 H1709 0.959 . S
C1721 C1719 1.561 . S
C1722 C1719 1.526 . S
C1722 C1723 1.396 . S
C1722 C1727 1.390 1_545 S
C1723 C1717 1.465 . S
C1723 C1722 1.396 . S
C1723 C1724 1.399 1_545 S
C1724 H1710 0.929 . S
C1724 C1723 1.399 1_565 S
C1724 C1725 1.385 . S
C1725 H1711 0.931 . S
C1725 C1724 1.385 . S
C1725 C1726 1.389 . S
C1726 C1725 1.389 . S
C1726 C1727 1.387 . S
C1727 H1712 0.930 . S
C1727 C1722 1.390 1_565 S
C1727 C1726 1.387 . S
H1728 C1740 0.930 . S
H1729 C1742 0.930 . S
H1730 C1743 0.930 . S
H1731 C1747 0.959 . S
H1732 C1747 0.959 . S
H1733 C1747 0.961 . S
H1734 C1748 0.960 . S
H1735 C1748 0.961 . S
H1736 C1748 0.959 . S
H1737 C1751 0.929 . S
H1738 C1752 0.931 . S
H1739 C1754 0.930 . S
C1740 H1728 0.930 . S
C1740 C1741 1.399 . S
C1740 C1745 1.399 . S
C1741 C1740 1.399 . S
C1741 C1742 1.376 . S
C1742 H1729 0.930 . S
C1742 C1741 1.376 . S
C1742 C1743 1.388 . S
C1743 H1730 0.930 . S
C1743 C1742 1.388 . S
C1743 C1744 1.390 . S
C1744 C1743 1.390 . S
C1744 C1745 1.394 . S
C1744 C1750 1.465 . S
C1745 C1740 1.399 . S
C1745 C1744 1.394 . S
C1745 C1746 1.516 . S
C1746 C1745 1.516 . S
C1746 C1747 1.502 . S
C1746 C1748 1.561 . S
C1746 C1749 1.526 . S
C1747 H1731 0.959 . S
C1747 H1732 0.959 . S
C1747 H1733 0.961 . S
C1747 C1746 1.502 . S
C1748 H1734 0.960 . S
C1748 H1735 0.961 . S
C1748 H1736 0.959 . S
C1748 C1746 1.561 . S
C1749 C1746 1.526 . S
C1749 C1750 1.396 . S
C1749 C1754 1.390 . S
C1750 C1744 1.465 . S
C1750 C1749 1.396 . S
C1750 C1751 1.399 . S
C1751 H1737 0.929 . S
C1751 C1750 1.399 . S
C1751 C1752 1.385 . S
C1752 H1738 0.931 . S
C1752 C1751 1.385 . S
C1752 C1753 1.389 . S
C1753 C1752 1.389 . S
C1753 C1754 1.387 . S
C1754 H1739 0.930 . S
C1754 C1749 1.390 . S
C1754 C1753 1.387 . S
H1755 C1767 0.930 . S
H1756 C1769 0.930 . S
H1757 C1770 0.930 . S
H1758 C1774 0.959 . S
H1759 C1774 0.959 . S
H1760 C1774 0.961 . S
H1761 C1775 0.960 . S
H1762 C1775 0.961 1_556 S
H1763 C1775 0.959 . S
H1764 C1778 0.939 . S
H1765 C1779 0.931 . S
H1766 C1781 0.930 . S
C1767 H1755 0.930 . S
C1767 C1768 1.399 . S
C1767 C1772 1.399 . S
C1768 C1767 1.399 . S
C1768 C1769 1.376 . S
C1769 H1756 0.930 . S
C1769 C1768 1.376 . S
C1769 C1770 1.388 . S
C1770 H1757 0.930 . S
C1770 C1769 1.388 . S
C1770 C1771 1.390 . S
C1771 C1770 1.390 . S
C1771 C1772 1.394 . S
C1771 C1777 1.465 . S
C1772 C1767 1.399 . S
C1772 C1771 1.394 . S
C1772 C1773 1.516 . S
C1773 C1772 1.516 . S
C1773 C1774 1.502 . S
C1773 C1775 1.561 . S
C1773 C1776 1.526 . S
C1774 H1758 0.959 . S
C1774 H1759 0.959 . S
C1774 H1760 0.961 . S
C1774 C1773 1.502 . S
C1775 H1761 0.960 . S
C1775 H1762 0.961 1_554 S
C1775 H1763 0.959 . S
C1775 C1773 1.561 . S
C1776 C1773 1.526 . S
C1776 C1777 1.396 . S
C1776 C1781 1.390 1_554 S
C1777 C1771 1.465 . S
C1777 C1776 1.396 . S
C1777 C1778 1.411 . S
C1778 H1764 0.939 . S
C1778 C1777 1.411 . S
C1778 C1779 1.363 1_554 S
C1779 H1765 0.931 . S
C1779 C1778 1.363 1_556 S
C1779 C1780 1.389 . S
C1780 C1779 1.389 . S
C1780 C1781 1.387 . S
C1781 H1766 0.930 . S
C1781 C1776 1.390 1_556 S
C1781 C1780 1.387 . S
H1782 C1794 0.930 . S
H1783 C1796 0.930 . S
H1784 C1797 0.930 . S
H1785 C1801 0.959 . S
H1786 C1801 0.959 . S
H1787 C1801 0.961 . S
H1788 C1802 0.960 . S
H1789 C1802 0.961 . S
H1790 C1802 0.959 . S
H1791 C1805 0.929 . S
H1792 C1806 0.931 . S
H1793 C1808 0.930 . S
C1794 H1782 0.930 . S
C1794 C1795 1.399 . S
C1794 C1799 1.399 . S
C1795 C1794 1.399 . S
C1795 C1796 1.376 . S
C1796 H1783 0.930 . S
C1796 C1795 1.376 . S
C1796 C1797 1.388 . S
C1797 H1784 0.930 . S
C1797 C1796 1.388 . S
C1797 C1798 1.390 . S
C1798 C1797 1.390 . S
C1798 C1799 1.394 . S
C1798 C1804 1.465 . S
C1799 C1794 1.399 . S
C1799 C1798 1.394 . S
C1799 C1800 1.516 . S
C1800 C1799 1.516 . S
C1800 C1801 1.502 . S
C1800 C1802 1.561 . S
C1800 C1803 1.526 . S
C1801 H1785 0.959 . S
C1801 H1786 0.959 . S
C1801 H1787 0.961 . S
C1801 C1800 1.502 . S
C1802 H1788 0.960 . S
C1802 H1789 0.961 . S
C1802 H1790 0.959 . S
C1802 C1800 1.561 . S
C1803 C1800 1.526 . S
C1803 C1804 1.396 . S
C1803 C1808 1.390 . S
C1804 C1798 1.465 . S
C1804 C1803 1.396 . S
C1804 C1805 1.399 . S
C1805 H1791 0.929 . S
C1805 C1804 1.399 . S
C1805 C1806 1.385 . S
C1806 H1792 0.931 . S
C1806 C1805 1.385 . S
C1806 C1807 1.389 . S
C1807 C1806 1.389 . S
C1807 C1808 1.387 . S
C1808 H1793 0.930 . S
C1808 C1803 1.390 . S
C1808 C1807 1.387 . S
H1809 C1821 0.930 . S
H1810 C1823 0.930 . S
H1811 C1824 0.930 . S
H1812 C1828 0.959 . S
H1813 C1828 0.959 . S
H1814 C1828 0.961 1_554 S
H1815 C1829 0.960 1_554 S
H1816 C1829 0.961 . S
H1817 C1829 0.959 . S
H1818 C1832 0.929 . S
H1819 C1833 0.931 . S
H1820 C1835 0.930 . S
C1821 H1809 0.930 . S
C1821 C1822 1.399 . S
C1821 C1826 1.399 1_554 S
C1822 C1821 1.399 . S
C1822 C1823 1.376 . S
C1823 H1810 0.930 . S
C1823 C1822 1.376 . S
C1823 C1824 1.388 1_554 S
C1824 H1811 0.930 . S
C1824 C1823 1.388 1_556 S
C1824 C1825 1.390 . S
C1825 C1824 1.390 . S
C1825 C1826 1.394 . S
C1825 C1831 1.465 . S
C1826 C1821 1.399 1_556 S
C1826 C1825 1.394 . S
C1826 C1827 1.516 . S
C1827 C1826 1.516 . S
C1827 C1828 1.502 . S
C1827 C1829 1.561 . S
C1827 C1830 1.526 . S
C1828 H1812 0.959 . S
C1828 H1813 0.959 . S
C1828 H1814 0.961 1_556 S
C1828 C1827 1.502 . S
C1829 H1815 0.960 1_556 S
C1829 H1816 0.961 . S
C1829 H1817 0.959 . S
C1829 C1827 1.561 . S
C1830 C1827 1.526 . S
C1830 C1831 1.396 . S
C1830 C1835 1.390 . S
C1831 C1825 1.465 . S
C1831 C1830 1.396 . S
C1831 C1832 1.399 . S
C1832 H1818 0.929 . S
C1832 C1831 1.399 . S
C1832 C1833 1.385 . S
C1833 H1819 0.931 . S
C1833 C1832 1.385 . S
C1833 C1834 1.389 . S
C1834 C1833 1.389 . S
C1834 C1835 1.387 . S
C1835 H1820 0.930 . S
C1835 C1830 1.390 . S
C1835 C1834 1.387 . S
H1836 C1848 0.930 . S
H1837 C1850 0.930 . S
H1838 C1851 0.930 . S
H1839 C1855 0.959 . S
H1840 C1855 0.959 . S
H1841 C1855 0.961 . S
H1842 C1856 0.960 . S
H1843 C1856 0.985 . S
H1844 C1856 0.959 . S
H1845 C1859 0.929 . S
H1846 C1860 0.931 . S
H1847 C1862 0.930 . S
C1848 H1836 0.930 . S
C1848 C1849 1.399 . S
C1848 C1853 1.399 . S
C1849 C1848 1.399 . S
C1849 C1850 1.376 . S
C1850 H1837 0.930 . S
C1850 C1849 1.376 . S
C1850 C1851 1.388 . S
C1851 H1838 0.930 . S
C1851 C1850 1.388 . S
C1851 C1852 1.390 . S
C1852 C1851 1.390 . S
C1852 C1853 1.394 . S
C1852 C1858 1.465 . S
C1853 C1848 1.399 . S
C1853 C1852 1.394 . S
C1853 C1854 1.516 . S
C1854 C1853 1.516 . S
C1854 C1855 1.502 . S
C1854 C1856 1.561 . S
C1854 C1857 1.526 . S
C1855 H1839 0.959 . S
C1855 H1840 0.959 . S
C1855 H1841 0.961 . S
C1855 C1854 1.502 . S
C1856 H1842 0.960 . S
C1856 H1843 0.985 . S
C1856 H1844 0.959 . S
C1856 C1854 1.561 . S
C1857 C1854 1.526 . S
C1857 C1858 1.396 . S
C1857 C1862 1.390 . S
C1858 C1852 1.465 . S
C1858 C1857 1.396 . S
C1858 C1859 1.399 . S
C1859 H1845 0.929 . S
C1859 C1858 1.399 . S
C1859 C1860 1.385 . S
C1860 H1846 0.931 . S
C1860 C1859 1.385 . S
C1860 C1861 1.389 . S
C1861 C1860 1.389 . S
C1861 C1862 1.387 . S
C1862 H1847 0.930 . S
C1862 C1857 1.390 . S
C1862 C1861 1.387 . S
H1863 C1875 0.930 . S
H1864 C1877 0.930 . S
H1865 C1878 0.930 1_455 S
H1866 C1882 0.959 . S
H1867 C1882 0.959 . S
H1868 C1882 0.961 . S
H1869 C1883 0.960 . S
H1870 C1883 0.961 . S
H1871 C1883 0.959 . S
H1872 C1886 0.929 . S
H1873 C1887 0.931 . S
H1874 C1889 0.930 . S
C1875 H1863 0.930 . S
C1875 C1876 1.399 . S
C1875 C1880 1.399 1_655 S
C1876 C1875 1.399 . S
C1876 C1877 1.376 . S
C1877 H1864 0.930 . S
C1877 C1876 1.376 . S
C1877 C1878 1.388 . S
C1878 H1865 0.930 1_655 S
C1878 C1877 1.388 . S
C1878 C1879 1.390 1_655 S
C1879 C1878 1.390 1_455 S
C1879 C1880 1.394 . S
C1879 C1885 1.465 . S
C1880 C1875 1.399 1_455 S
C1880 C1879 1.394 . S
C1880 C1881 1.516 . S
C1881 C1880 1.516 . S
C1881 C1882 1.502 . S
C1881 C1883 1.561 . S
C1881 C1884 1.526 . S
C1882 H1866 0.959 . S
C1882 H1867 0.959 . S
C1882 H1868 0.961 . S
C1882 C1881 1.502 . S
C1883 H1869 0.960 . S
C1883 H1870 0.961 . S
C1883 H1871 0.959 . S
C1883 C1881 1.561 . S
C1884 C1881 1.526 . S
C1884 C1885 1.396 . S
C1884 C1889 1.390 . S
C1885 C1879 1.465 . S
C1885 C1884 1.396 . S
C1885 C1886 1.399 . S
C1886 H1872 0.929 . S
C1886 C1885 1.399 . S
C1886 C1887 1.385 . S
C1887 H1873 0.931 . S
C1887 C1886 1.385 . S
C1887 C1888 1.389 . S
C1888 C1887 1.389 . S
C1888 C1889 1.387 . S
C1889 H1874 0.930 . S
C1889 C1884 1.390 . S
C1889 C1888 1.387 . S
H1890 C1902 0.930 . S
H1891 C1904 0.930 . S
H1892 C1905 0.930 . S
H1893 C1909 0.959 . S
H1894 C1909 0.959 . S
H1895 C1909 0.961 . S
H1896 C1910 0.960 . S
H1897 C1910 0.961 . S
H1898 C1910 0.959 . S
H1899 C1913 0.929 . S
H1900 C1914 0.931 . S
H1901 C1916 0.930 . S
C1902 H1890 0.930 . S
C1902 C1903 1.399 . S
C1902 C1907 1.399 . S
C1903 C1902 1.399 . S
C1903 C1904 1.376 . S
C1904 H1891 0.930 . S
C1904 C1903 1.376 . S
C1904 C1905 1.388 . S
C1905 H1892 0.930 . S
C1905 C1904 1.388 . S
C1905 C1906 1.390 . S
C1906 C1905 1.390 . S
C1906 C1907 1.394 . S
C1906 C1912 1.465 . S
C1907 C1902 1.399 . S
C1907 C1906 1.394 . S
C1907 C1908 1.516 . S
C1908 C1907 1.516 . S
C1908 C1909 1.502 . S
C1908 C1910 1.561 . S
C1908 C1911 1.526 . S
C1909 H1893 0.959 . S
C1909 H1894 0.959 . S
C1909 H1895 0.961 . S
C1909 C1908 1.502 . S
C1910 H1896 0.960 . S
C1910 H1897 0.961 . S
C1910 H1898 0.959 . S
C1910 C1908 1.561 . S
C1911 C1908 1.526 . S
C1911 C1912 1.396 . S
C1911 C1916 1.390 . S
C1912 C1906 1.465 . S
C1912 C1911 1.396 . S
C1912 C1913 1.399 . S
C1913 H1899 0.929 . S
C1913 C1912 1.399 . S
C1913 C1914 1.385 . S
C1914 H1900 0.931 . S
C1914 C1913 1.385 . S
C1914 C1915 1.389 . S
C1915 C1914 1.389 . S
C1915 C1916 1.387 . S
C1916 H1901 0.930 . S
C1916 C1911 1.390 . S
C1916 C1915 1.387 . S
H1917 C1929 0.930 . S
H1918 C1931 0.930 . S
H1919 C1932 0.930 . S
H1920 C1936 0.959 . S
H1921 C1936 0.959 . S
H1922 C1936 0.961 . S
H1923 C1937 0.960 . S
H1924 C1937 0.961 . S
H1925 C1937 0.959 . S
H1926 C1940 0.929 1_655 S
H1927 C1941 0.931 . S
H1928 C1943 0.930 . S
C1929 H1917 0.930 . S
C1929 C1930 1.399 . S
C1929 C1934 1.399 . S
C1930 C1929 1.399 . S
C1930 C1931 1.376 . S
C1931 H1918 0.930 . S
C1931 C1930 1.376 . S
C1931 C1932 1.388 . S
C1932 H1919 0.930 . S
C1932 C1931 1.388 . S
C1932 C1933 1.390 . S
C1933 C1932 1.390 . S
C1933 C1934 1.394 . S
C1933 C1939 1.465 . S
C1934 C1929 1.399 . S
C1934 C1933 1.394 . S
C1934 C1935 1.516 . S
C1935 C1934 1.516 . S
C1935 C1936 1.502 . S
C1935 C1937 1.561 . S
C1935 C1938 1.526 . S
C1936 H1920 0.959 . S
C1936 H1921 0.959 . S
C1936 H1922 0.961 . S
C1936 C1935 1.502 . S
C1937 H1923 0.960 . S
C1937 H1924 0.961 . S
C1937 H1925 0.959 . S
C1937 C1935 1.561 . S
C1938 C1935 1.526 . S
C1938 C1939 1.396 . S
C1938 C1943 1.390 1_655 S
C1939 C1933 1.465 . S
C1939 C1938 1.396 . S
C1939 C1940 1.399 1_655 S
C1940 H1926 0.929 1_455 S
C1940 C1939 1.399 1_455 S
C1940 C1941 1.385 . S
C1941 H1927 0.931 . S
C1941 C1940 1.385 . S
C1941 C1942 1.389 . S
C1942 C1941 1.389 . S
C1942 C1943 1.387 . S
C1943 H1928 0.930 . S
C1943 C1938 1.390 1_455 S
C1943 C1942 1.387 . S
H1944 C1956 0.930 . S
H1945 C1958 0.930 . S
H1946 C1959 0.930 . S
H1947 C1963 0.959 . S
H1948 C1963 0.959 . S
H1949 C1963 0.961 . S
H1950 C1964 0.960 . S
H1951 C1964 0.961 . S
H1952 C1964 0.959 . S
H1953 C1967 0.929 . S
H1954 C1968 0.931 . S
H1955 C1970 0.930 . S
C1956 H1944 0.930 . S
C1956 C1957 1.399 . S
C1956 C1961 1.399 . S
C1957 C1956 1.399 . S
C1957 C1958 1.376 . S
C1958 H1945 0.930 . S
C1958 C1957 1.376 . S
C1958 C1959 1.388 . S
C1959 H1946 0.930 . S
C1959 C1958 1.388 . S
C1959 C1960 1.390 . S
C1960 C1959 1.390 . S
C1960 C1961 1.394 . S
C1960 C1966 1.465 . S
C1961 C1956 1.399 . S
C1961 C1960 1.394 . S
C1961 C1962 1.516 . S
C1962 C1961 1.516 . S
C1962 C1963 1.502 . S
C1962 C1964 1.561 . S
C1962 C1965 1.526 . S
C1963 H1947 0.959 . S
C1963 H1948 0.959 . S
C1963 H1949 0.961 . S
C1963 C1962 1.502 . S
C1964 H1950 0.960 . S
C1964 H1951 0.961 . S
C1964 H1952 0.959 . S
C1964 C1962 1.561 . S
C1965 C1962 1.526 . S
C1965 C1966 1.396 . S
C1965 C1970 1.390 . S
C1966 C1960 1.465 . S
C1966 C1965 1.396 . S
C1966 C1967 1.399 . S
C1967 H1953 0.929 . S
C1967 C1966 1.399 . S
C1967 C1968 1.385 . S
C1968 H1954 0.931 . S
C1968 C1967 1.385 . S
C1968 C1969 1.389 . S
C1969 C1968 1.389 . S
C1969 C1970 1.387 . S
C1970 H1955 0.930 . S
C1970 C1965 1.390 . S
C1970 C1969 1.387 . S
H1971 C1983 0.930 . S
H1972 C1985 0.930 . S
H1973 C1986 0.930 . S
H1974 C1990 0.959 . S
H1975 C1990 0.959 . S
H1976 C1990 0.961 . S
H1977 C1991 0.960 . S
H1978 C1991 0.961 . S
H1979 C1991 0.959 . S
H1980 C1994 0.929 . S
H1981 C1995 0.931 . S
H1982 C1997 0.930 . S
C1983 H1971 0.930 . S
C1983 C1984 1.399 . S
C1983 C1988 1.399 . S
C1984 C1983 1.399 . S
C1984 C1985 1.376 . S
C1985 H1972 0.930 . S
C1985 C1984 1.376 . S
C1985 C1986 1.388 . S
C1986 H1973 0.930 . S
C1986 C1985 1.388 . S
C1986 C1987 1.390 . S
C1987 C1986 1.390 . S
C1987 C1988 1.394 . S
C1987 C1993 1.465 . S
C1988 C1983 1.399 . S
C1988 C1987 1.394 . S
C1988 C1989 1.516 . S
C1989 C1988 1.516 . S
C1989 C1990 1.502 . S
C1989 C1991 1.561 . S
C1989 C1992 1.526 . S
C1990 H1974 0.959 . S
C1990 H1975 0.959 . S
C1990 H1976 0.961 . S
C1990 C1989 1.502 . S
C1991 H1977 0.960 . S
C1991 H1978 0.961 . S
C1991 H1979 0.959 . S
C1991 C1989 1.561 . S
C1992 C1989 1.526 . S
C1992 C1993 1.396 . S
C1992 C1997 1.390 . S
C1993 C1987 1.465 . S
C1993 C1992 1.396 . S
C1993 C1994 1.399 . S
C1994 H1980 0.929 . S
C1994 C1993 1.399 . S
C1994 C1995 1.385 . S
C1995 H1981 0.931 . S
C1995 C1994 1.385 . S
C1995 C1996 1.389 . S
C1996 C1995 1.389 . S
C1996 C1997 1.387 . S
C1997 H1982 0.930 . S
C1997 C1992 1.390 . S
C1997 C1996 1.387 . S
H1998 C2010 0.930 . S
H1999 C2012 0.930 . S
H2000 C2013 0.930 . S
H2001 C2017 0.959 . S
H2002 C2017 0.959 . S
H2003 C2017 0.961 . S
H2004 C2018 0.960 . S
H2005 C2018 0.961 . S
H2006 C2018 0.959 . S
H2007 C2021 0.929 . S
H2008 C2022 0.931 . S
H2009 C2024 0.930 . S
C2010 H1998 0.930 . S
C2010 C2011 1.399 . S
C2010 C2015 1.399 . S
C2011 C2010 1.399 . S
C2011 C2012 1.376 . S
C2012 H1999 0.930 . S
C2012 C2011 1.376 . S
C2012 C2013 1.388 . S
C2013 H2000 0.930 . S
C2013 C2012 1.388 . S
C2013 C2014 1.390 . S
C2014 C2013 1.390 . S
C2014 C2015 1.394 . S
C2014 C2020 1.465 . S
C2015 C2010 1.399 . S
C2015 C2014 1.394 . S
C2015 C2016 1.516 . S
C2016 C2015 1.516 . S
C2016 C2017 1.502 . S
C2016 C2018 1.561 . S
C2016 C2019 1.526 . S
C2017 H2001 0.959 . S
C2017 H2002 0.959 . S
C2017 H2003 0.961 . S
C2017 C2016 1.502 . S
C2018 H2004 0.960 . S
C2018 H2005 0.961 . S
C2018 H2006 0.959 . S
C2018 C2016 1.561 . S
C2019 C2016 1.526 . S
C2019 C2020 1.396 . S
C2019 C2024 1.390 . S
C2020 C2014 1.465 . S
C2020 C2019 1.396 . S
C2020 C2021 1.399 . S
C2021 H2007 0.929 . S
C2021 C2020 1.399 . S
C2021 C2022 1.385 . S
C2022 H2008 0.931 . S
C2022 C2021 1.385 . S
C2022 C2023 1.389 . S
C2023 C2022 1.389 . S
C2023 C2024 1.387 . S
C2024 H2009 0.930 . S
C2024 C2019 1.390 . S
C2024 C2023 1.387 . S
H2025 C2037 0.930 . S
H2026 C2039 0.930 . S
H2027 C2040 0.930 . S
H2028 C2044 0.959 . S
H2029 C2044 0.959 . S
H2030 C2044 0.961 . S
H2031 C2045 0.960 . S
H2032 C2045 0.961 . S
H2033 C2045 0.959 . S
H2034 C2048 0.929 . S
H2035 C2049 0.931 . S
H2036 C2051 0.930 . S
C2037 H2025 0.930 . S
C2037 C2038 1.399 . S
C2037 C2042 1.399 . S
C2038 C2037 1.399 . S
C2038 C2039 1.376 . S
C2039 H2026 0.930 . S
C2039 C2038 1.376 . S
C2039 C2040 1.388 . S
C2040 H2027 0.930 . S
C2040 C2039 1.388 . S
C2040 C2041 1.390 . S
C2041 C2040 1.390 . S
C2041 C2042 1.394 . S
C2041 C2047 1.465 . S
C2042 C2037 1.399 . S
C2042 C2041 1.394 . S
C2042 C2043 1.516 . S
C2043 C2042 1.516 . S
C2043 C2044 1.502 . S
C2043 C2045 1.561 . S
C2043 C2046 1.526 . S
C2044 H2028 0.959 . S
C2044 H2029 0.959 . S
C2044 H2030 0.961 . S
C2044 C2043 1.502 . S
C2045 H2031 0.960 . S
C2045 H2032 0.961 . S
C2045 H2033 0.959 . S
C2045 C2043 1.561 . S
C2046 C2043 1.526 . S
C2046 C2047 1.396 . S
C2046 C2051 1.390 . S
C2047 C2041 1.465 . S
C2047 C2046 1.396 . S
C2047 C2048 1.399 . S
C2048 H2034 0.929 . S
C2048 C2047 1.399 . S
C2048 C2049 1.385 . S
C2049 H2035 0.931 . S
C2049 C2048 1.385 . S
C2049 C2050 1.389 . S
C2050 C2049 1.389 . S
C2050 C2051 1.387 . S
C2051 H2036 0.930 . S
C2051 C2046 1.390 . S
C2051 C2050 1.387 . S
H2052 C2064 0.930 . S
H2053 C2066 0.930 . S
H2054 C2067 0.930 . S
H2055 C2071 0.959 . S
H2056 C2071 0.959 . S
H2057 C2071 0.961 . S
H2058 C2072 0.960 . S
H2059 C2072 0.961 . S
H2060 C2072 0.959 . S
H2061 C2075 0.929 . S
H2062 C2076 0.931 . S
H2063 C2078 0.930 . S
C2064 H2052 0.930 . S
C2064 C2065 1.399 . S
C2064 C2069 1.399 . S
C2065 C2064 1.399 . S
C2065 C2066 1.376 . S
C2066 H2053 0.930 . S
C2066 C2065 1.376 . S
C2066 C2067 1.388 . S
C2067 H2054 0.930 . S
C2067 C2066 1.388 . S
C2067 C2068 1.390 . S
C2068 C2067 1.390 . S
C2068 C2069 1.394 . S
C2068 C2074 1.465 . S
C2069 C2064 1.399 . S
C2069 C2068 1.394 . S
C2069 C2070 1.516 . S
C2070 C2069 1.516 . S
C2070 C2071 1.502 . S
C2070 C2072 1.561 . S
C2070 C2073 1.526 . S
C2071 H2055 0.959 . S
C2071 H2056 0.959 . S
C2071 H2057 0.961 . S
C2071 C2070 1.502 . S
C2072 H2058 0.960 . S
C2072 H2059 0.961 . S
C2072 H2060 0.959 . S
C2072 C2070 1.561 . S
C2073 C2070 1.526 . S
C2073 C2074 1.396 . S
C2073 C2078 1.390 . S
C2074 C2068 1.465 . S
C2074 C2073 1.396 . S
C2074 C2075 1.399 . S
C2075 H2061 0.929 . S
C2075 C2074 1.399 . S
C2075 C2076 1.385 . S
C2076 H2062 0.931 . S
C2076 C2075 1.385 . S
C2076 C2077 1.389 . S
C2077 C2076 1.389 . S
C2077 C2078 1.387 . S
C2078 H2063 0.930 . S
C2078 C2073 1.390 . S
C2078 C2077 1.387 . S
H2079 C2091 0.930 . S
H2080 C2093 0.930 . S
H2081 C2094 0.930 . S
H2082 C2098 0.959 . S
H2083 C2098 0.959 . S
H2084 C2098 0.961 . S
H2085 C2099 0.960 . S
H2086 C2099 0.961 . S
H2087 C2099 0.959 . S
H2088 C2102 0.929 . S
H2089 C2103 0.931 . S
H2090 C2105 0.930 . S
C2091 H2079 0.930 . S
C2091 C2092 1.399 . S
C2091 C2096 1.399 . S
C2092 C2091 1.399 . S
C2092 C2093 1.376 . S
C2093 H2080 0.930 . S
C2093 C2092 1.376 . S
C2093 C2094 1.388 . S
C2094 H2081 0.930 . S
C2094 C2093 1.388 . S
C2094 C2095 1.390 . S
C2095 C2094 1.390 . S
C2095 C2096 1.394 . S
C2095 C2101 1.465 . S
C2096 C2091 1.399 . S
C2096 C2095 1.394 . S
C2096 C2097 1.516 . S
C2097 C2096 1.516 . S
C2097 C2098 1.502 . S
C2097 C2099 1.561 . S
C2097 C2100 1.526 . S
C2098 H2082 0.959 . S
C2098 H2083 0.959 . S
C2098 H2084 0.961 . S
C2098 C2097 1.502 . S
C2099 H2085 0.960 . S
C2099 H2086 0.961 . S
C2099 H2087 0.959 . S
C2099 C2097 1.561 . S
C2100 C2097 1.526 . S
C2100 C2101 1.396 . S
C2100 C2105 1.390 . S
C2101 C2095 1.465 . S
C2101 C2100 1.396 . S
C2101 C2102 1.399 . S
C2102 H2088 0.929 . S
C2102 C2101 1.399 . S
C2102 C2103 1.385 . S
C2103 H2089 0.931 . S
C2103 C2102 1.385 . S
C2103 C2104 1.389 . S
C2104 C2103 1.389 . S
C2104 C2105 1.387 . S
C2105 H2090 0.930 . S
C2105 C2100 1.390 . S
C2105 C2104 1.387 . S
H2106 C2118 0.930 . S
H2107 C2120 0.930 . S
H2108 C2121 0.930 . S
H2109 C2125 0.959 . S
H2110 C2125 0.959 . S
H2111 C2125 0.961 . S
H2112 C2126 0.960 . S
H2113 C2126 0.961 . S
H2114 C2126 0.959 . S
H2115 C2129 0.929 . S
H2116 C2130 0.931 . S
H2117 C2132 0.930 . S
C2118 H2106 0.930 . S
C2118 C2119 1.399 . S
C2118 C2123 1.399 . S
C2119 C2118 1.399 . S
C2119 C2120 1.376 . S
C2120 H2107 0.930 . S
C2120 C2119 1.376 . S
C2120 C2121 1.388 . S
C2121 H2108 0.930 . S
C2121 C2120 1.388 . S
C2121 C2122 1.390 . S
C2122 C2121 1.390 . S
C2122 C2123 1.394 . S
C2122 C2128 1.465 . S
C2123 C2118 1.399 . S
C2123 C2122 1.394 . S
C2123 C2124 1.516 . S
C2124 C2123 1.516 . S
C2124 C2125 1.502 . S
C2124 C2126 1.561 . S
C2124 C2127 1.526 . S
C2125 H2109 0.959 . S
C2125 H2110 0.959 . S
C2125 H2111 0.961 . S
C2125 C2124 1.502 . S
C2126 H2112 0.960 . S
C2126 H2113 0.961 . S
C2126 H2114 0.959 . S
C2126 C2124 1.561 . S
C2127 C2124 1.526 . S
C2127 C2128 1.396 . S
C2127 C2132 1.390 . S
C2128 C2122 1.465 . S
C2128 C2127 1.396 . S
C2128 C2129 1.399 . S
C2129 H2115 0.929 . S
C2129 C2128 1.399 . S
C2129 C2130 1.385 . S
C2130 H2116 0.931 . S
C2130 C2129 1.385 . S
C2130 C2131 1.389 . S
C2131 C2130 1.389 . S
C2131 C2132 1.387 . S
C2132 H2117 0.930 . S
C2132 C2127 1.390 . S
C2132 C2131 1.387 . S
H2133 C2145 0.930 . S
H2134 C2147 0.930 . S
H2135 C2148 0.930 . S
H2136 C2152 0.959 . S
H2137 C2152 0.959 . S
H2138 C2152 0.961 . S
H2139 C2153 0.960 . S
H2140 C2153 0.961 . S
H2141 C2153 0.959 . S
H2142 C2156 0.929 . S
H2143 C2157 0.931 . S
H2144 C2159 0.930 . S
C2145 H2133 0.930 . S
C2145 C2146 1.399 . S
C2145 C2150 1.399 . S
C2146 C2145 1.399 . S
C2146 C2147 1.376 . S
C2147 H2134 0.930 . S
C2147 C2146 1.376 . S
C2147 C2148 1.388 . S
C2148 H2135 0.930 . S
C2148 C2147 1.388 . S
C2148 C2149 1.390 . S
C2149 C2148 1.390 . S
C2149 C2150 1.394 . S
C2149 C2155 1.465 . S
C2150 C2145 1.399 . S
C2150 C2149 1.394 . S
C2150 C2151 1.516 . S
C2151 C2150 1.516 . S
C2151 C2152 1.502 . S
C2151 C2153 1.561 . S
C2151 C2154 1.526 . S
C2152 H2136 0.959 . S
C2152 H2137 0.959 . S
C2152 H2138 0.961 . S
C2152 C2151 1.502 . S
C2153 H2139 0.960 . S
C2153 H2140 0.961 . S
C2153 H2141 0.959 . S
C2153 C2151 1.561 . S
C2154 C2151 1.526 . S
C2154 C2155 1.396 . S
C2154 C2159 1.390 . S
C2155 C2149 1.465 . S
C2155 C2154 1.396 . S
C2155 C2156 1.399 . S
C2156 H2142 0.929 . S
C2156 C2155 1.399 . S
C2156 C2157 1.385 . S
C2157 H2143 0.931 . S
C2157 C2156 1.385 . S
C2157 C2158 1.389 . S
C2158 C2157 1.389 . S
C2158 C2159 1.387 . S
C2159 H2144 0.930 . S
C2159 C2154 1.390 . S
C2159 C2158 1.387 . S
H2160 C2172 0.930 . S
H2161 C2174 0.930 . S
H2162 C2175 0.930 . S
H2163 C2179 0.959 . S
H2164 C2179 0.959 . S
H2165 C2179 0.961 . S
H2166 C2180 0.960 . S
H2167 C2180 0.961 . S
H2168 C2180 0.959 . S
H2169 C2183 0.929 . S
H2170 C2184 0.931 . S
H2171 C2186 0.930 . S
C2172 H2160 0.930 . S
C2172 C2173 1.399 . S
C2172 C2177 1.399 . S
C2173 C2172 1.399 . S
C2173 C2174 1.376 . S
C2174 H2161 0.930 . S
C2174 C2173 1.376 . S
C2174 C2175 1.388 . S
C2175 H2162 0.930 . S
C2175 C2174 1.388 . S
C2175 C2176 1.390 . S
C2176 C2175 1.390 . S
C2176 C2177 1.394 . S
C2176 C2182 1.465 . S
C2177 C2172 1.399 . S
C2177 C2176 1.394 . S
C2177 C2178 1.516 . S
C2178 C2177 1.516 . S
C2178 C2179 1.502 . S
C2178 C2180 1.561 . S
C2178 C2181 1.526 . S
C2179 H2163 0.959 . S
C2179 H2164 0.959 . S
C2179 H2165 0.961 . S
C2179 C2178 1.502 . S
C2180 H2166 0.960 . S
C2180 H2167 0.961 . S
C2180 H2168 0.959 . S
C2180 C2178 1.561 . S
C2181 C2178 1.526 . S
C2181 C2182 1.396 . S
C2181 C2186 1.390 . S
C2182 C2176 1.465 . S
C2182 C2181 1.396 . S
C2182 C2183 1.399 . S
C2183 H2169 0.929 . S
C2183 C2182 1.399 . S
C2183 C2184 1.385 . S
C2184 H2170 0.931 . S
C2184 C2183 1.385 . S
C2184 C2185 1.389 . S
C2185 C2184 1.389 . S
C2185 C2186 1.387 . S
C2186 H2171 0.930 . S
C2186 C2181 1.390 . S
C2186 C2185 1.387 . S
H2187 C2199 0.930 . S
H2188 C2201 0.930 . S
H2189 C2202 0.930 . S
H2190 C2206 0.959 . S
H2191 C2206 0.959 . S
H2192 C2206 0.961 . S
H2193 C2207 0.960 . S
H2194 C2207 0.961 . S
H2195 C2207 0.959 . S
H2196 C2210 0.929 . S
H2197 C2211 0.931 . S
H2198 C2213 0.930 . S
C2199 H2187 0.930 . S
C2199 C2200 1.399 . S
C2199 C2204 1.399 . S
C2200 C2199 1.399 . S
C2200 C2201 1.376 . S
C2201 H2188 0.930 . S
C2201 C2200 1.376 . S
C2201 C2202 1.388 . S
C2202 H2189 0.930 . S
C2202 C2201 1.388 . S
C2202 C2203 1.390 . S
C2203 C2202 1.390 . S
C2203 C2204 1.394 . S
C2203 C2209 1.465 . S
C2204 C2199 1.399 . S
C2204 C2203 1.394 . S
C2204 C2205 1.516 . S
C2205 C2204 1.516 . S
C2205 C2206 1.502 . S
C2205 C2207 1.561 . S
C2205 C2208 1.526 . S
C2206 H2190 0.959 . S
C2206 H2191 0.959 . S
C2206 H2192 0.961 . S
C2206 C2205 1.502 . S
C2207 H2193 0.960 . S
C2207 H2194 0.961 . S
C2207 H2195 0.959 . S
C2207 C2205 1.561 . S
C2208 C2205 1.526 . S
C2208 C2209 1.396 . S
C2208 C2213 1.390 . S
C2209 C2203 1.465 . S
C2209 C2208 1.396 . S
C2209 C2210 1.399 . S
C2210 H2196 0.929 . S
C2210 C2209 1.399 . S
C2210 C2211 1.385 . S
C2211 H2197 0.931 . S
C2211 C2210 1.385 . S
C2211 C2212 1.389 . S
C2212 C2211 1.389 . S
C2212 C2213 1.387 . S
C2213 H2198 0.930 . S
C2213 C2208 1.390 . S
C2213 C2212 1.387 . S
H2214 C2226 0.930 . S
H2215 C2228 0.930 . S
H2216 C2229 0.930 . S
H2217 C2233 0.959 . S
H2218 C2233 0.959 . S
H2219 C2233 0.961 . S
H2220 C2234 0.960 . S
H2221 C2234 0.961 . S
H2222 C2234 0.959 . S
H2223 C2237 0.929 . S
H2224 C2238 0.931 . S
H2225 C2240 0.930 . S
C2226 H2214 0.930 . S
C2226 C2227 1.399 . S
C2226 C2231 1.399 . S
C2227 C2226 1.399 . S
C2227 C2228 1.376 . S
C2228 H2215 0.930 . S
C2228 C2227 1.376 . S
C2228 C2229 1.388 . S
C2229 H2216 0.930 . S
C2229 C2228 1.388 . S
C2229 C2230 1.390 . S
C2230 C2229 1.390 . S
C2230 C2231 1.394 . S
C2230 C2236 1.465 . S
C2231 C2226 1.399 . S
C2231 C2230 1.394 . S
C2231 C2232 1.516 . S
C2232 C2231 1.516 . S
C2232 C2233 1.502 . S
C2232 C2234 1.561 . S
C2232 C2235 1.526 . S
C2233 H2217 0.959 . S
C2233 H2218 0.959 . S
C2233 H2219 0.961 . S
C2233 C2232 1.502 . S
C2234 H2220 0.960 . S
C2234 H2221 0.961 . S
C2234 H2222 0.959 . S
C2234 C2232 1.561 . S
C2235 C2232 1.526 . S
C2235 C2236 1.396 . S
C2235 C2240 1.390 . S
C2236 C2230 1.465 . S
C2236 C2235 1.396 . S
C2236 C2237 1.399 . S
C2237 H2223 0.929 . S
C2237 C2236 1.399 . S
C2237 C2238 1.385 . S
C2238 H2224 0.931 . S
C2238 C2237 1.385 . S
C2238 C2239 1.389 . S
C2239 C2238 1.389 . S
C2239 C2240 1.387 . S
C2240 H2225 0.930 . S
C2240 C2235 1.390 . S
C2240 C2239 1.387 . S
H2241 C2253 0.930 . S
H2242 C2255 0.930 . S
H2243 C2256 0.930 . S
H2244 C2260 0.959 . S
H2245 C2260 0.959 . S
H2246 C2260 0.961 . S
H2247 C2261 0.960 . S
H2248 C2261 0.961 . S
H2249 C2261 0.959 . S
H2250 C2264 0.929 . S
H2251 C2265 0.931 . S
H2252 C2267 0.930 . S
C2253 H2241 0.930 . S
C2253 C2254 1.399 . S
C2253 C2258 1.399 . S
C2254 C2253 1.399 . S
C2254 C2255 1.376 . S
C2255 H2242 0.930 . S
C2255 C2254 1.376 . S
C2255 C2256 1.388 . S
C2256 H2243 0.930 . S
C2256 C2255 1.388 . S
C2256 C2257 1.390 . S
C2257 C2256 1.390 . S
C2257 C2258 1.394 . S
C2257 C2263 1.465 . S
C2258 C2253 1.399 . S
C2258 C2257 1.394 . S
C2258 C2259 1.516 . S
C2259 C2258 1.516 . S
C2259 C2260 1.502 . S
C2259 C2261 1.561 . S
C2259 C2262 1.526 . S
C2260 H2244 0.959 . S
C2260 H2245 0.959 . S
C2260 H2246 0.961 . S
C2260 C2259 1.502 . S
C2261 H2247 0.960 . S
C2261 H2248 0.961 . S
C2261 H2249 0.959 . S
C2261 C2259 1.561 . S
C2262 C2259 1.526 . S
C2262 C2263 1.396 . S
C2262 C2267 1.390 . S
C2263 C2257 1.465 . S
C2263 C2262 1.396 . S
C2263 C2264 1.399 . S
C2264 H2250 0.929 . S
C2264 C2263 1.399 . S
C2264 C2265 1.385 . S
C2265 H2251 0.931 . S
C2265 C2264 1.385 . S
C2265 C2266 1.389 . S
C2266 C2265 1.389 . S
C2266 C2267 1.387 . S
C2267 H2252 0.930 . S
C2267 C2262 1.390 . S
C2267 C2266 1.387 . S
H2268 C2280 0.930 . S
H2269 C2282 0.930 . S
H2270 C2283 0.930 . S
H2271 C2287 0.959 . S
H2272 C2287 0.959 . S
H2273 C2287 0.961 . S
H2274 C2288 0.960 . S
H2275 C2288 0.961 . S
H2276 C2288 0.959 . S
H2277 C2291 0.929 . S
H2278 C2292 0.931 . S
H2279 C2294 0.930 . S
C2280 H2268 0.930 . S
C2280 C2281 1.399 . S
C2280 C2285 1.399 . S
C2281 C2280 1.399 . S
C2281 C2282 1.376 . S
C2282 H2269 0.930 . S
C2282 C2281 1.376 . S
C2282 C2283 1.388 . S
C2283 H2270 0.930 . S
C2283 C2282 1.388 . S
C2283 C2284 1.390 . S
C2284 C2283 1.390 . S
C2284 C2285 1.394 . S
C2284 C2290 1.465 . S
C2285 C2280 1.399 . S
C2285 C2284 1.394 . S
C2285 C2286 1.516 . S
C2286 C2285 1.516 . S
C2286 C2287 1.502 . S
C2286 C2288 1.561 . S
C2286 C2289 1.526 . S
C2287 H2271 0.959 . S
C2287 H2272 0.959 . S
C2287 H2273 0.961 . S
C2287 C2286 1.502 . S
C2288 H2274 0.960 . S
C2288 H2275 0.961 . S
C2288 H2276 0.959 . S
C2288 C2286 1.561 . S
C2289 C2286 1.526 . S
C2289 C2290 1.396 . S
C2289 C2294 1.390 . S
C2290 C2284 1.465 . S
C2290 C2289 1.396 . S
C2290 C2291 1.399 . S
C2291 H2277 0.929 . S
C2291 C2290 1.399 . S
C2291 C2292 1.385 . S
C2292 H2278 0.931 . S
C2292 C2291 1.385 . S
C2292 C2293 1.389 . S
C2293 C2292 1.389 . S
C2293 C2294 1.387 . S
C2294 H2279 0.930 . S
C2294 C2289 1.390 . S
C2294 C2293 1.387 . S
H2295 C2307 0.930 . S
H2296 C2309 0.930 . S
H2297 C2310 0.930 . S
H2298 C2314 0.959 . S
H2299 C2314 0.959 . S
H2300 C2314 0.961 . S
H2301 C2315 0.960 . S
H2302 C2315 0.961 . S
H2303 C2315 0.959 . S
H2304 C2318 0.929 . S
H2305 C2319 0.931 . S
H2306 C2321 0.930 . S
C2307 H2295 0.930 . S
C2307 C2308 1.399 . S
C2307 C2312 1.399 . S
C2308 C2307 1.399 . S
C2308 C2309 1.376 . S
C2309 H2296 0.930 . S
C2309 C2308 1.376 . S
C2309 C2310 1.388 . S
C2310 H2297 0.930 . S
C2310 C2309 1.388 . S
C2310 C2311 1.390 . S
C2311 C2310 1.390 . S
C2311 C2312 1.394 . S
C2311 C2317 1.465 . S
C2312 C2307 1.399 . S
C2312 C2311 1.394 . S
C2312 C2313 1.516 . S
C2313 C2312 1.516 . S
C2313 C2314 1.502 . S
C2313 C2315 1.561 . S
C2313 C2316 1.526 . S
C2314 H2298 0.959 . S
C2314 H2299 0.959 . S
C2314 H2300 0.961 . S
C2314 C2313 1.502 . S
C2315 H2301 0.960 . S
C2315 H2302 0.961 . S
C2315 H2303 0.959 . S
C2315 C2313 1.561 . S
C2316 C2313 1.526 . S
C2316 C2317 1.396 . S
C2316 C2321 1.390 . S
C2317 C2311 1.465 . S
C2317 C2316 1.396 . S
C2317 C2318 1.399 . S
C2318 H2304 0.929 . S
C2318 C2317 1.399 . S
C2318 C2319 1.385 . S
C2319 H2305 0.931 . S
C2319 C2318 1.385 . S
C2319 C2320 1.389 . S
C2320 C2319 1.389 . S
C2320 C2321 1.387 . S
C2321 H2306 0.930 . S
C2321 C2316 1.390 . S
C2321 C2320 1.387 . S
H2322 C2334 0.930 . S
H2323 C2336 0.930 . S
H2324 C2337 0.930 . S
H2325 C2341 0.959 . S
H2326 C2341 0.959 . S
H2327 C2341 0.961 . S
H2328 C2342 0.960 . S
H2329 C2342 0.961 . S
H2330 C2342 0.959 . S
H2331 C2345 0.929 . S
H2332 C2346 0.931 . S
H2333 C2348 0.930 . S
C2334 H2322 0.930 . S
C2334 C2335 1.399 . S
C2334 C2339 1.399 . S
C2335 C2334 1.399 . S
C2335 C2336 1.376 . S
C2336 H2323 0.930 . S
C2336 C2335 1.376 . S
C2336 C2337 1.388 . S
C2337 H2324 0.930 . S
C2337 C2336 1.388 . S
C2337 C2338 1.390 . S
C2338 C2337 1.390 . S
C2338 C2339 1.394 . S
C2338 C2344 1.465 . S
C2339 C2334 1.399 . S
C2339 C2338 1.394 . S
C2339 C2340 1.516 . S
C2340 C2339 1.516 . S
C2340 C2341 1.502 . S
C2340 C2342 1.561 . S
C2340 C2343 1.526 . S
C2341 H2325 0.959 . S
C2341 H2326 0.959 . S
C2341 H2327 0.961 . S
C2341 C2340 1.502 . S
C2342 H2328 0.960 . S
C2342 H2329 0.961 . S
C2342 H2330 0.959 . S
C2342 C2340 1.561 . S
C2343 C2340 1.526 . S
C2343 C2344 1.396 . S
C2343 C2348 1.390 . S
C2344 C2338 1.465 . S
C2344 C2343 1.396 . S
C2344 C2345 1.399 . S
C2345 H2331 0.929 . S
C2345 C2344 1.399 . S
C2345 C2346 1.385 . S
C2346 H2332 0.931 . S
C2346 C2345 1.385 . S
C2346 C2347 1.389 . S
C2347 C2346 1.389 . S
C2347 C2348 1.387 . S
C2348 H2333 0.930 . S
C2348 C2343 1.390 . S
C2348 C2347 1.387 . S
H2349 C2361 0.930 . S
H2350 C2363 0.930 . S
H2351 C2364 0.930 . S
H2352 C2368 0.959 . S
H2353 C2368 0.959 . S
H2354 C2368 0.961 . S
H2355 C2369 0.960 . S
H2356 C2369 0.961 . S
H2357 C2369 0.959 . S
H2358 C2372 0.929 . S
H2359 C2373 0.931 . S
H2360 C2375 0.930 . S
C2361 H2349 0.930 . S
C2361 C2362 1.399 . S
C2361 C2366 1.399 . S
C2362 C2361 1.399 . S
C2362 C2363 1.376 . S
C2363 H2350 0.930 . S
C2363 C2362 1.376 . S
C2363 C2364 1.388 . S
C2364 H2351 0.930 . S
C2364 C2363 1.388 . S
C2364 C2365 1.390 . S
C2365 C2364 1.390 . S
C2365 C2366 1.394 . S
C2365 C2371 1.465 . S
C2366 C2361 1.399 . S
C2366 C2365 1.394 . S
C2366 C2367 1.516 . S
C2367 C2366 1.516 . S
C2367 C2368 1.502 . S
C2367 C2369 1.561 . S
C2367 C2370 1.526 . S
C2368 H2352 0.959 . S
C2368 H2353 0.959 . S
C2368 H2354 0.961 . S
C2368 C2367 1.502 . S
C2369 H2355 0.960 . S
C2369 H2356 0.961 . S
C2369 H2357 0.959 . S
C2369 C2367 1.561 . S
C2370 C2367 1.526 . S
C2370 C2371 1.396 . S
C2370 C2375 1.390 . S
C2371 C2365 1.465 . S
C2371 C2370 1.396 . S
C2371 C2372 1.399 . S
C2372 H2358 0.929 . S
C2372 C2371 1.399 . S
C2372 C2373 1.385 . S
C2373 H2359 0.931 . S
C2373 C2372 1.385 . S
C2373 C2374 1.389 . S
C2374 C2373 1.389 . S
C2374 C2375 1.387 . S
C2375 H2360 0.930 . S
C2375 C2370 1.390 . S
C2375 C2374 1.387 . S
H2376 C2388 0.930 . S
H2377 C2390 0.930 . S
H2378 C2391 0.930 . S
H2379 C2395 0.959 . S
H2380 C2395 0.959 . S
H2381 C2395 0.961 . S
H2382 C2396 0.960 . S
H2383 C2396 0.961 . S
H2384 C2396 0.959 . S
H2385 C2399 0.929 . S
H2386 C2400 0.931 . S
H2387 C2402 0.930 . S
C2388 H2376 0.930 . S
C2388 C2389 1.399 . S
C2388 C2393 1.399 . S
C2389 C2388 1.399 . S
C2389 C2390 1.376 . S
C2390 H2377 0.930 . S
C2390 C2389 1.376 . S
C2390 C2391 1.388 . S
C2391 H2378 0.930 . S
C2391 C2390 1.388 . S
C2391 C2392 1.390 . S
C2392 C2391 1.390 . S
C2392 C2393 1.394 . S
C2392 C2398 1.465 . S
C2393 C2388 1.399 . S
C2393 C2392 1.394 . S
C2393 C2394 1.516 . S
C2394 C2393 1.516 . S
C2394 C2395 1.502 . S
C2394 C2396 1.561 . S
C2394 C2397 1.526 . S
C2395 H2379 0.959 . S
C2395 H2380 0.959 . S
C2395 H2381 0.961 . S
C2395 C2394 1.502 . S
C2396 H2382 0.960 . S
C2396 H2383 0.961 . S
C2396 H2384 0.959 . S
C2396 C2394 1.561 . S
C2397 C2394 1.526 . S
C2397 C2398 1.396 . S
C2397 C2402 1.390 . S
C2398 C2392 1.465 . S
C2398 C2397 1.396 . S
C2398 C2399 1.399 . S
C2399 H2385 0.929 . S
C2399 C2398 1.399 . S
C2399 C2400 1.385 . S
C2400 H2386 0.931 . S
C2400 C2399 1.385 . S
C2400 C2401 1.389 . S
C2401 C2400 1.389 . S
C2401 C2402 1.387 . S
C2402 H2387 0.930 . S
C2402 C2397 1.390 . S
C2402 C2401 1.387 . S
H2403 C2415 0.930 . S
H2404 C2417 0.930 . S
H2405 C2418 0.930 . S
H2406 C2422 0.959 . S
H2407 C2422 0.959 . S
H2408 C2422 0.961 . S
H2409 C2423 0.960 . S
H2410 C2423 0.961 . S
H2411 C2423 0.959 . S
H2412 C2426 0.929 . S
H2413 C2427 0.931 . S
H2414 C2429 0.930 . S
C2415 H2403 0.930 . S
C2415 C2416 1.399 . S
C2415 C2420 1.399 . S
C2416 C2415 1.399 . S
C2416 C2417 1.376 . S
C2417 H2404 0.930 . S
C2417 C2416 1.376 . S
C2417 C2418 1.388 . S
C2418 H2405 0.930 . S
C2418 C2417 1.388 . S
C2418 C2419 1.390 . S
C2419 C2418 1.390 . S
C2419 C2420 1.394 . S
C2419 C2425 1.465 . S
C2420 C2415 1.399 . S
C2420 C2419 1.394 . S
C2420 C2421 1.516 . S
C2421 C2420 1.516 . S
C2421 C2422 1.502 . S
C2421 C2423 1.561 . S
C2421 C2424 1.526 . S
C2422 H2406 0.959 . S
C2422 H2407 0.959 . S
C2422 H2408 0.961 . S
C2422 C2421 1.502 . S
C2423 H2409 0.960 . S
C2423 H2410 0.961 . S
C2423 H2411 0.959 . S
C2423 C2421 1.561 . S
C2424 C2421 1.526 . S
C2424 C2425 1.396 . S
C2424 C2429 1.390 . S
C2425 C2419 1.465 . S
C2425 C2424 1.396 . S
C2425 C2426 1.399 . S
C2426 H2412 0.929 . S
C2426 C2425 1.399 . S
C2426 C2427 1.385 . S
C2427 H2413 0.931 . S
C2427 C2426 1.385 . S
C2427 C2428 1.389 . S
C2428 C2427 1.389 . S
C2428 C2429 1.387 . S
C2429 H2414 0.930 . S
C2429 C2424 1.390 . S
C2429 C2428 1.387 . S
H2430 C2442 0.930 . S
H2431 C2444 0.930 . S
H2432 C2445 0.930 . S
H2433 C2449 0.959 . S
H2434 C2449 0.959 . S
H2435 C2449 0.961 . S
H2436 C2450 0.960 . S
H2437 C2450 0.961 . S
H2438 C2450 0.959 . S
H2439 C2453 0.929 . S
H2440 C2454 0.931 . S
H2441 C2456 0.930 . S
C2442 H2430 0.930 . S
C2442 C2443 1.399 . S
C2442 C2447 1.399 . S
C2443 C2442 1.399 . S
C2443 C2444 1.376 . S
C2444 H2431 0.930 . S
C2444 C2443 1.376 . S
C2444 C2445 1.388 . S
C2445 H2432 0.930 . S
C2445 C2444 1.388 . S
C2445 C2446 1.390 . S
C2446 C2445 1.390 . S
C2446 C2447 1.394 . S
C2446 C2452 1.465 . S
C2447 C2442 1.399 . S
C2447 C2446 1.394 . S
C2447 C2448 1.516 . S
C2448 C2447 1.516 . S
C2448 C2449 1.502 . S
C2448 C2450 1.561 . S
C2448 C2451 1.526 . S
C2449 H2433 0.959 . S
C2449 H2434 0.959 . S
C2449 H2435 0.961 . S
C2449 C2448 1.502 . S
C2450 H2436 0.960 . S
C2450 H2437 0.961 . S
C2450 H2438 0.959 . S
C2450 C2448 1.561 . S
C2451 C2448 1.526 . S
C2451 C2452 1.396 . S
C2451 C2456 1.390 . S
C2452 C2446 1.465 . S
C2452 C2451 1.396 . S
C2452 C2453 1.399 . S
C2453 H2439 0.929 . S
C2453 C2452 1.399 . S
C2453 C2454 1.385 . S
C2454 H2440 0.931 . S
C2454 C2453 1.385 . S
C2454 C2455 1.389 . S
C2455 C2454 1.389 . S
C2455 C2456 1.387 . S
C2456 H2441 0.930 . S
C2456 C2451 1.390 . S
C2456 C2455 1.387 . S
H2457 C2469 0.930 . S
H2458 C2471 0.930 . S
H2459 C2472 0.930 . S
H2460 C2476 0.959 . S
H2461 C2476 0.959 . S
H2462 C2476 0.961 . S
H2463 C2477 0.960 . S
H2464 C2477 0.961 . S
H2465 C2477 0.959 . S
H2466 C2480 0.929 . S
H2467 C2481 0.931 . S
H2468 C2483 0.930 . S
C2469 H2457 0.930 . S
C2469 C2470 1.399 . S
C2469 C2474 1.399 . S
C2470 C2469 1.399 . S
C2470 C2471 1.376 . S
C2471 H2458 0.930 . S
C2471 C2470 1.376 . S
C2471 C2472 1.388 . S
C2472 H2459 0.930 . S
C2472 C2471 1.388 . S
C2472 C2473 1.390 . S
C2473 C2472 1.390 . S
C2473 C2474 1.394 . S
C2473 C2479 1.465 . S
C2474 C2469 1.399 . S
C2474 C2473 1.394 . S
C2474 C2475 1.516 . S
C2475 C2474 1.516 . S
C2475 C2476 1.502 . S
C2475 C2477 1.561 . S
C2475 C2478 1.526 . S
C2476 H2460 0.959 . S
C2476 H2461 0.959 . S
C2476 H2462 0.961 . S
C2476 C2475 1.502 . S
C2477 H2463 0.960 . S
C2477 H2464 0.961 . S
C2477 H2465 0.959 . S
C2477 C2475 1.561 . S
C2478 C2475 1.526 . S
C2478 C2479 1.396 . S
C2478 C2483 1.390 . S
C2479 C2473 1.465 . S
C2479 C2478 1.396 . S
C2479 C2480 1.399 . S
C2480 H2466 0.929 . S
C2480 C2479 1.399 . S
C2480 C2481 1.385 . S
C2481 H2467 0.931 . S
C2481 C2480 1.385 . S
C2481 C2482 1.389 . S
C2482 C2481 1.389 . S
C2482 C2483 1.387 . S
C2483 H2468 0.930 . S
C2483 C2478 1.390 . S
C2483 C2482 1.387 . S
H2484 C2496 0.930 . S
H2485 C2498 0.930 . S
H2486 C2499 0.930 . S
H2487 C2503 0.959 . S
H2488 C2503 0.959 . S
H2489 C2503 0.961 . S
H2490 C2504 0.960 . S
H2491 C2504 0.961 . S
H2492 C2504 0.959 . S
H2493 C2507 0.929 . S
H2494 C2508 0.931 . S
H2495 C2510 0.930 . S
C2496 H2484 0.930 . S
C2496 C2497 1.399 . S
C2496 C2501 1.399 . S
C2497 C2496 1.399 . S
C2497 C2498 1.376 . S
C2498 H2485 0.930 . S
C2498 C2497 1.376 . S
C2498 C2499 1.388 . S
C2499 H2486 0.930 . S
C2499 C2498 1.388 . S
C2499 C2500 1.390 . S
C2500 C2499 1.390 . S
C2500 C2501 1.394 . S
C2500 C2506 1.465 . S
C2501 C2496 1.399 . S
C2501 C2500 1.394 . S
C2501 C2502 1.516 . S
C2502 C2501 1.516 . S
C2502 C2503 1.502 . S
C2502 C2504 1.561 . S
C2502 C2505 1.526 . S
C2503 H2487 0.959 . S
C2503 H2488 0.959 . S
C2503 H2489 0.961 . S
C2503 C2502 1.502 . S
C2504 H2490 0.960 . S
C2504 H2491 0.961 . S
C2504 H2492 0.959 . S
C2504 C2502 1.561 . S
C2505 C2502 1.526 . S
C2505 C2506 1.396 . S
C2505 C2510 1.390 . S
C2506 C2500 1.465 . S
C2506 C2505 1.396 . S
C2506 C2507 1.399 . S
C2507 H2493 0.929 . S
C2507 C2506 1.399 . S
C2507 C2508 1.385 . S
C2508 H2494 0.931 . S
C2508 C2507 1.385 . S
C2508 C2509 1.389 . S
C2509 C2508 1.389 . S
C2509 C2510 1.387 . S
C2510 H2495 0.930 . S
C2510 C2505 1.390 . S
C2510 C2509 1.387 . S
H2511 C2523 0.930 . S
H2512 C2525 0.930 . S
H2513 C2526 0.930 . S
H2514 C2530 0.959 . S
H2515 C2530 0.959 . S
H2516 C2530 0.961 . S
H2517 C2531 0.960 . S
H2518 C2531 0.961 . S
H2519 C2531 0.959 . S
H2520 C2534 0.929 . S
H2521 C2535 0.931 . S
H2522 C2537 0.930 . S
C2523 H2511 0.930 . S
C2523 C2524 1.399 . S
C2523 C2528 1.399 . S
C2524 C2523 1.399 . S
C2524 C2525 1.376 . S
C2525 H2512 0.930 . S
C2525 C2524 1.376 . S
C2525 C2526 1.388 . S
C2526 H2513 0.930 . S
C2526 C2525 1.388 . S
C2526 C2527 1.390 . S
C2527 C2526 1.390 . S
C2527 C2528 1.394 . S
C2527 C2533 1.465 . S
C2528 C2523 1.399 . S
C2528 C2527 1.394 . S
C2528 C2529 1.516 . S
C2529 C2528 1.516 . S
C2529 C2530 1.502 . S
C2529 C2531 1.561 . S
C2529 C2532 1.526 . S
C2530 H2514 0.959 . S
C2530 H2515 0.959 . S
C2530 H2516 0.961 . S
C2530 C2529 1.502 . S
C2531 H2517 0.960 . S
C2531 H2518 0.961 . S
C2531 H2519 0.959 . S
C2531 C2529 1.561 . S
C2532 C2529 1.526 . S
C2532 C2533 1.396 . S
C2532 C2537 1.390 . S
C2533 C2527 1.465 . S
C2533 C2532 1.396 . S
C2533 C2534 1.399 . S
C2534 H2520 0.929 . S
C2534 C2533 1.399 . S
C2534 C2535 1.385 . S
C2535 H2521 0.931 . S
C2535 C2534 1.385 . S
C2535 C2536 1.389 . S
C2536 C2535 1.389 . S
C2536 C2537 1.387 . S
C2537 H2522 0.930 . S
C2537 C2532 1.390 . S
C2537 C2536 1.387 . S
H2538 C2550 0.930 . S
H2539 C2552 0.930 . S
H2540 C2553 0.930 . S
H2541 C2557 0.959 . S
H2542 C2557 0.959 . S
H2543 C2557 0.961 . S
H2544 C2558 0.960 . S
H2545 C2558 0.961 . S
H2546 C2558 0.959 . S
H2547 C2561 0.929 . S
H2548 C2562 0.931 . S
H2549 C2564 0.930 . S
C2550 H2538 0.930 . S
C2550 C2551 1.399 . S
C2550 C2555 1.399 . S
C2551 C2550 1.399 . S
C2551 C2552 1.376 . S
C2552 H2539 0.930 . S
C2552 C2551 1.376 . S
C2552 C2553 1.388 . S
C2553 H2540 0.930 . S
C2553 C2552 1.388 . S
C2553 C2554 1.390 . S
C2554 C2553 1.390 . S
C2554 C2555 1.394 . S
C2554 C2560 1.465 . S
C2555 C2550 1.399 . S
C2555 C2554 1.394 . S
C2555 C2556 1.516 . S
C2556 C2555 1.516 . S
C2556 C2557 1.502 . S
C2556 C2558 1.561 . S
C2556 C2559 1.526 . S
C2557 H2541 0.959 . S
C2557 H2542 0.959 . S
C2557 H2543 0.961 . S
C2557 C2556 1.502 . S
C2558 H2544 0.960 . S
C2558 H2545 0.961 . S
C2558 H2546 0.959 . S
C2558 C2556 1.561 . S
C2559 C2556 1.526 . S
C2559 C2560 1.396 . S
C2559 C2564 1.390 . S
C2560 C2554 1.465 . S
C2560 C2559 1.396 . S
C2560 C2561 1.399 . S
C2561 H2547 0.929 . S
C2561 C2560 1.399 . S
C2561 C2562 1.385 . S
C2562 H2548 0.931 . S
C2562 C2561 1.385 . S
C2562 C2563 1.389 . S
C2563 C2562 1.389 . S
C2563 C2564 1.387 . S
C2564 H2549 0.930 . S
C2564 C2559 1.390 . S
C2564 C2563 1.387 . S
H2565 C2577 0.930 . S
H2566 C2579 0.930 . S
H2567 C2580 0.930 . S
H2568 C2584 0.959 . S
H2569 C2584 0.959 . S
H2570 C2584 0.961 . S
H2571 C2585 0.960 . S
H2572 C2585 0.961 . S
H2573 C2585 0.959 . S
H2574 C2588 0.929 . S
H2575 C2589 0.931 . S
H2576 C2591 0.930 . S
C2577 H2565 0.930 . S
C2577 C2578 1.399 . S
C2577 C2582 1.399 . S
C2578 C2577 1.399 . S
C2578 C2579 1.376 . S
C2579 H2566 0.930 . S
C2579 C2578 1.376 . S
C2579 C2580 1.388 . S
C2580 H2567 0.930 . S
C2580 C2579 1.388 . S
C2580 C2581 1.390 . S
C2581 C2580 1.390 . S
C2581 C2582 1.394 . S
C2581 C2587 1.465 . S
C2582 C2577 1.399 . S
C2582 C2581 1.394 . S
C2582 C2583 1.516 . S
C2583 C2582 1.516 . S
C2583 C2584 1.502 . S
C2583 C2585 1.561 . S
C2583 C2586 1.526 . S
C2584 H2568 0.959 . S
C2584 H2569 0.959 . S
C2584 H2570 0.961 . S
C2584 C2583 1.502 . S
C2585 H2571 0.960 . S
C2585 H2572 0.961 . S
C2585 H2573 0.959 . S
C2585 C2583 1.561 . S
C2586 C2583 1.526 . S
C2586 C2587 1.396 . S
C2586 C2591 1.390 . S
C2587 C2581 1.465 . S
C2587 C2586 1.396 . S
C2587 C2588 1.399 . S
C2588 H2574 0.929 . S
C2588 C2587 1.399 . S
C2588 C2589 1.385 . S
C2589 H2575 0.931 . S
C2589 C2588 1.385 . S
C2589 C2590 1.389 . S
C2590 C2589 1.389 . S
C2590 C2591 1.387 . S
C2591 H2576 0.930 . S
C2591 C2586 1.390 . S
C2591 C2590 1.387 . S
H2592 C2604 0.930 . S
H2593 C2606 0.930 . S
H2594 C2607 0.930 . S
H2595 C2611 0.959 . S
H2596 C2611 0.959 . S
H2597 C2611 0.961 . S
H2598 C2612 0.960 . S
H2599 C2612 0.961 . S
H2600 C2612 0.959 . S
H2601 C2615 0.929 . S
H2602 C2616 0.931 . S
H2603 C2618 0.930 . S
C2604 H2592 0.930 . S
C2604 C2605 1.399 . S
C2604 C2609 1.399 . S
C2605 C2604 1.399 . S
C2605 C2606 1.376 . S
C2606 H2593 0.930 . S
C2606 C2605 1.376 . S
C2606 C2607 1.388 . S
C2607 H2594 0.930 . S
C2607 C2606 1.388 . S
C2607 C2608 1.390 . S
C2608 C2607 1.390 . S
C2608 C2609 1.394 . S
C2608 C2614 1.465 . S
C2609 C2604 1.399 . S
C2609 C2608 1.394 . S
C2609 C2610 1.516 . S
C2610 C2609 1.516 . S
C2610 C2611 1.502 . S
C2610 C2612 1.561 . S
C2610 C2613 1.526 . S
C2611 H2595 0.959 . S
C2611 H2596 0.959 . S
C2611 H2597 0.961 . S
C2611 C2610 1.502 . S
C2612 H2598 0.960 . S
C2612 H2599 0.961 . S
C2612 H2600 0.959 . S
C2612 C2610 1.561 . S
C2613 C2610 1.526 . S
C2613 C2614 1.396 . S
C2613 C2618 1.390 . S
C2614 C2608 1.465 . S
C2614 C2613 1.396 . S
C2614 C2615 1.399 . S
C2615 H2601 0.929 . S
C2615 C2614 1.399 . S
C2615 C2616 1.385 . S
C2616 H2602 0.931 . S
C2616 C2615 1.385 . S
C2616 C2617 1.389 . S
C2617 C2616 1.389 . S
C2617 C2618 1.387 . S
C2618 H2603 0.930 . S
C2618 C2613 1.390 . S
C2618 C2617 1.387 . S
H2619 C2631 0.930 . S
H2620 C2633 0.930 . S
H2621 C2634 0.930 . S
H2622 C2638 0.959 . S
H2623 C2638 0.959 . S
H2624 C2638 0.961 . S
H2625 C2639 0.960 . S
H2626 C2639 0.961 . S
H2627 C2639 0.959 . S
H2628 C2642 0.945 . S
H2629 C2643 0.931 . S
H2630 C2645 0.930 . S
C2631 H2619 0.930 . S
C2631 C2632 1.399 . S
C2631 C2636 1.399 . S
C2632 C2631 1.399 . S
C2632 C2633 1.376 . S
C2633 H2620 0.930 . S
C2633 C2632 1.376 . S
C2633 C2634 1.388 . S
C2634 H2621 0.930 . S
C2634 C2633 1.388 . S
C2634 C2635 1.390 . S
C2635 C2634 1.390 . S
C2635 C2636 1.394 . S
C2635 C2641 1.465 . S
C2636 C2631 1.399 . S
C2636 C2635 1.394 . S
C2636 C2637 1.516 . S
C2637 C2636 1.516 . S
C2637 C2638 1.502 . S
C2637 C2639 1.561 . S
C2637 C2640 1.526 . S
C2638 H2622 0.959 . S
C2638 H2623 0.959 . S
C2638 H2624 0.961 . S
C2638 C2637 1.502 . S
C2639 H2625 0.960 . S
C2639 H2626 0.961 . S
C2639 H2627 0.959 . S
C2639 C2637 1.561 . S
C2640 C2637 1.526 . S
C2640 C2641 1.396 . S
C2640 C2645 1.390 . S
C2641 C2635 1.465 . S
C2641 C2640 1.396 . S
C2641 C2642 1.366 1_554 S
C2642 H2628 0.945 . S
C2642 C2641 1.366 1_556 S
C2642 C2643 1.404 . S
C2643 H2629 0.931 . S
C2643 C2642 1.404 . S
C2643 C2644 1.389 . S
C2644 C2643 1.389 . S
C2644 C2645 1.387 1_556 S
C2645 H2630 0.930 . S
C2645 C2640 1.390 . S
C2645 C2644 1.387 1_554 S
H2646 C2658 0.930 . S
H2647 C2660 0.930 . S
H2648 C2661 0.930 . S
H2649 C2665 0.959 . S
H2650 C2665 0.959 . S
H2651 C2665 0.961 . S
H2652 C2666 0.960 . S
H2653 C2666 0.961 . S
H2654 C2666 0.959 . S
H2655 C2669 0.929 . S
H2656 C2670 0.931 . S
H2657 C2672 0.930 . S
C2658 H2646 0.930 . S
C2658 C2659 1.399 . S
C2658 C2663 1.399 . S
C2659 C2658 1.399 . S
C2659 C2660 1.376 . S
C2660 H2647 0.930 . S
C2660 C2659 1.376 . S
C2660 C2661 1.388 . S
C2661 H2648 0.930 . S
C2661 C2660 1.388 . S
C2661 C2662 1.390 . S
C2662 C2661 1.390 . S
C2662 C2663 1.394 . S
C2662 C2668 1.465 . S
C2663 C2658 1.399 . S
C2663 C2662 1.394 . S
C2663 C2664 1.516 . S
C2664 C2663 1.516 . S
C2664 C2665 1.502 . S
C2664 C2666 1.561 . S
C2664 C2667 1.526 . S
C2665 H2649 0.959 . S
C2665 H2650 0.959 . S
C2665 H2651 0.961 . S
C2665 C2664 1.502 . S
C2666 H2652 0.960 . S
C2666 H2653 0.961 . S
C2666 H2654 0.959 . S
C2666 C2664 1.561 . S
C2667 C2664 1.526 . S
C2667 C2668 1.396 . S
C2667 C2672 1.390 . S
C2668 C2662 1.465 . S
C2668 C2667 1.396 . S
C2668 C2669 1.399 . S
C2669 H2655 0.929 . S
C2669 C2668 1.399 . S
C2669 C2670 1.385 . S
C2670 H2656 0.931 . S
C2670 C2669 1.385 . S
C2670 C2671 1.389 . S
C2671 C2670 1.389 . S
C2671 C2672 1.387 . S
C2672 H2657 0.930 . S
C2672 C2667 1.390 . S
C2672 C2671 1.387 . S
H2673 C2685 0.930 . S
H2674 C2687 0.930 . S
H2675 C2688 0.930 . S
H2676 C2692 0.959 . S
H2677 C2692 0.959 . S
H2678 C2692 0.961 1_554 S
H2679 C2693 0.960 . S
H2680 C2693 0.961 . S
H2681 C2693 0.959 . S
H2682 C2696 0.929 . S
H2683 C2697 0.931 . S
H2684 C2699 0.930 . S
C2685 H2673 0.930 . S
C2685 C2686 1.401 . S
C2685 C2690 1.399 1_554 S
C2686 C2685 1.401 . S
C2686 C2687 1.367 1_554 S
C2687 H2674 0.930 . S
C2687 C2686 1.367 1_556 S
C2687 C2688 1.388 . S
C2688 H2675 0.930 . S
C2688 C2687 1.388 . S
C2688 C2689 1.390 . S
C2689 C2688 1.390 . S
C2689 C2690 1.394 . S
C2689 C2695 1.465 . S
C2690 C2685 1.399 1_556 S
C2690 C2689 1.394 . S
C2690 C2691 1.516 . S
C2691 C2690 1.516 . S
C2691 C2692 1.502 . S
C2691 C2693 1.561 1_556 S
C2691 C2694 1.526 . S
C2692 H2676 0.959 . S
C2692 H2677 0.959 . S
C2692 H2678 0.961 1_556 S
C2692 C2691 1.502 . S
C2693 H2679 0.960 . S
C2693 H2680 0.961 . S
C2693 H2681 0.959 . S
C2693 C2691 1.561 1_554 S
C2694 C2691 1.526 . S
C2694 C2695 1.396 . S
C2694 C2699 1.390 . S
C2695 C2689 1.465 . S
C2695 C2694 1.396 . S
C2695 C2696 1.399 . S
C2696 H2682 0.929 . S
C2696 C2695 1.399 . S
C2696 C2697 1.385 . S
C2697 H2683 0.931 . S
C2697 C2696 1.385 . S
C2697 C2698 1.389 . S
C2698 C2697 1.389 . S
C2698 C2699 1.387 . S
C2699 H2684 0.930 . S
C2699 C2694 1.390 . S
C2699 C2698 1.387 . S
H2700 C2712 0.930 . S
H2701 C2714 0.930 . S
H2702 C2715 0.930 . S
H2703 C2719 0.959 . S
H2704 C2719 0.959 . S
H2705 C2719 0.961 . S
H2706 C2720 0.960 . S
H2707 C2720 0.961 . S
H2708 C2720 0.959 . S
H2709 C2723 0.929 . S
H2710 C2724 0.931 . S
H2711 C2726 0.930 . S
C2712 H2700 0.930 . S
C2712 C2713 1.399 . S
C2712 C2717 1.399 . S
C2713 C2712 1.399 . S
C2713 C2714 1.376 . S
C2714 H2701 0.930 . S
C2714 C2713 1.376 . S
C2714 C2715 1.388 . S
C2715 H2702 0.930 . S
C2715 C2714 1.388 . S
C2715 C2716 1.390 . S
C2716 C2715 1.390 . S
C2716 C2717 1.394 . S
C2716 C2722 1.465 . S
C2717 C2712 1.399 . S
C2717 C2716 1.394 . S
C2717 C2718 1.516 . S
C2718 C2717 1.516 . S
C2718 C2719 1.502 . S
C2718 C2720 1.561 . S
C2718 C2721 1.526 . S
C2719 H2703 0.959 . S
C2719 H2704 0.959 . S
C2719 H2705 0.961 . S
C2719 C2718 1.502 . S
C2720 H2706 0.960 . S
C2720 H2707 0.961 . S
C2720 H2708 0.959 . S
C2720 C2718 1.561 . S
C2721 C2718 1.526 . S
C2721 C2722 1.396 . S
C2721 C2726 1.390 . S
C2722 C2716 1.465 . S
C2722 C2721 1.396 . S
C2722 C2723 1.399 . S
C2723 H2709 0.929 . S
C2723 C2722 1.399 . S
C2723 C2724 1.385 . S
C2724 H2710 0.931 . S
C2724 C2723 1.385 . S
C2724 C2725 1.389 . S
C2725 C2724 1.389 . S
C2725 C2726 1.387 . S
C2726 H2711 0.930 . S
C2726 C2721 1.390 . S
C2726 C2725 1.387 . S
H2727 C2739 0.930 . S
H2728 C2741 0.930 . S
H2729 C2742 0.930 . S
H2730 C2746 0.959 . S
H2731 C2746 0.959 . S
H2732 C2746 0.961 . S
H2733 C2747 0.960 . S
H2734 C2747 0.961 . S
H2735 C2747 0.959 . S
H2736 C2750 0.929 1_455 S
H2737 C2751 0.931 . S
H2738 C2753 0.930 . S
C2739 H2727 0.930 . S
C2739 C2740 1.399 . S
C2739 C2744 1.399 . S
C2740 C2739 1.399 . S
C2740 C2741 1.376 . S
C2741 H2728 0.930 . S
C2741 C2740 1.376 . S
C2741 C2742 1.388 . S
C2742 H2729 0.930 . S
C2742 C2741 1.388 . S
C2742 C2743 1.390 . S
C2743 C2742 1.390 . S
C2743 C2744 1.394 . S
C2743 C2749 1.465 . S
C2744 C2739 1.399 . S
C2744 C2743 1.394 . S
C2744 C2745 1.516 . S
C2745 C2744 1.516 . S
C2745 C2746 1.502 . S
C2745 C2747 1.561 . S
C2745 C2748 1.526 . S
C2746 H2730 0.959 . S
C2746 H2731 0.959 . S
C2746 H2732 0.961 . S
C2746 C2745 1.502 . S
C2747 H2733 0.960 . S
C2747 H2734 0.961 . S
C2747 H2735 0.959 . S
C2747 C2745 1.561 . S
C2748 C2745 1.526 . S
C2748 C2749 1.396 . S
C2748 C2753 1.390 . S
C2749 C2743 1.465 . S
C2749 C2748 1.396 . S
C2749 C2750 1.399 . S
C2750 H2736 0.929 1_655 S
C2750 C2749 1.399 . S
C2750 C2751 1.385 1_655 S
C2751 H2737 0.931 . S
C2751 C2750 1.385 1_455 S
C2751 C2752 1.389 . S
C2752 C2751 1.389 . S
C2752 C2753 1.387 1_455 S
C2753 H2738 0.930 . S
C2753 C2748 1.390 . S
C2753 C2752 1.387 1_655 S
H2754 C2766 0.930 . S
H2755 C2768 0.930 . S
H2756 C2769 0.930 . S
H2757 C2773 0.959 . S
H2758 C2773 0.959 . S
H2759 C2773 0.961 . S
H2760 C2774 0.960 . S
H2761 C2774 0.961 . S
H2762 C2774 0.959 . S
H2763 C2777 0.929 . S
H2764 C2778 0.931 . S
H2765 C2780 0.930 . S
C2766 H2754 0.930 . S
C2766 C2767 1.399 . S
C2766 C2771 1.399 . S
C2767 C2766 1.399 . S
C2767 C2768 1.376 . S
C2768 H2755 0.930 . S
C2768 C2767 1.376 . S
C2768 C2769 1.388 . S
C2769 H2756 0.930 . S
C2769 C2768 1.388 . S
C2769 C2770 1.390 . S
C2770 C2769 1.390 . S
C2770 C2771 1.394 . S
C2770 C2776 1.465 . S
C2771 C2766 1.399 . S
C2771 C2770 1.394 . S
C2771 C2772 1.516 . S
C2772 C2771 1.516 . S
C2772 C2773 1.502 . S
C2772 C2774 1.561 . S
C2772 C2775 1.526 . S
C2773 H2757 0.959 . S
C2773 H2758 0.959 . S
C2773 H2759 0.961 . S
C2773 C2772 1.502 . S
C2774 H2760 0.960 . S
C2774 H2761 0.961 . S
C2774 H2762 0.959 . S
C2774 C2772 1.561 . S
C2775 C2772 1.526 . S
C2775 C2776 1.396 . S
C2775 C2780 1.390 . S
C2776 C2770 1.465 . S
C2776 C2775 1.396 . S
C2776 C2777 1.399 1_455 S
C2777 H2763 0.929 . S
C2777 C2776 1.399 1_655 S
C2777 C2778 1.385 . S
C2778 H2764 0.931 . S
C2778 C2777 1.385 . S
C2778 C2779 1.389 . S
C2779 C2778 1.389 . S
C2779 C2780 1.387 1_655 S
C2780 H2765 0.930 . S
C2780 C2775 1.390 . S
C2780 C2779 1.387 1_455 S
H2781 C2793 0.930 . S
H2782 C2795 0.930 . S
H2783 C2796 0.930 . S
H2784 C2800 0.959 . S
H2785 C2800 0.959 . S
H2786 C2800 0.961 . S
H2787 C2801 0.960 . S
H2788 C2801 0.961 . S
H2789 C2801 0.959 . S
H2790 C2804 0.929 . S
H2791 C2805 0.931 . S
H2792 C2807 0.930 . S
C2793 H2781 0.930 . S
C2793 C2794 1.399 . S
C2793 C2798 1.399 . S
C2794 C2793 1.399 . S
C2794 C2795 1.376 . S
C2795 H2782 0.930 . S
C2795 C2794 1.376 . S
C2795 C2796 1.388 . S
C2796 H2783 0.930 . S
C2796 C2795 1.388 . S
C2796 C2797 1.390 . S
C2797 C2796 1.390 . S
C2797 C2798 1.394 . S
C2797 C2803 1.465 . S
C2798 C2793 1.399 . S
C2798 C2797 1.394 . S
C2798 C2799 1.516 . S
C2799 C2798 1.516 . S
C2799 C2800 1.502 . S
C2799 C2801 1.561 . S
C2799 C2802 1.526 . S
C2800 H2784 0.959 . S
C2800 H2785 0.959 . S
C2800 H2786 0.961 . S
C2800 C2799 1.502 . S
C2801 H2787 0.960 . S
C2801 H2788 0.961 . S
C2801 H2789 0.959 . S
C2801 C2799 1.561 . S
C2802 C2799 1.526 . S
C2802 C2803 1.396 . S
C2802 C2807 1.390 . S
C2803 C2797 1.465 . S
C2803 C2802 1.396 . S
C2803 C2804 1.399 . S
C2804 H2790 0.929 . S
C2804 C2803 1.399 . S
C2804 C2805 1.385 . S
C2805 H2791 0.931 . S
C2805 C2804 1.385 . S
C2805 C2806 1.389 . S
C2806 C2805 1.389 . S
C2806 C2807 1.387 . S
C2807 H2792 0.930 . S
C2807 C2802 1.390 . S
C2807 C2806 1.387 . S
H2808 C2820 0.930 . S
H2809 C2822 0.930 . S
H2810 C2823 0.930 . S
H2811 C2827 0.959 . S
H2812 C2827 0.959 . S
H2813 C2827 0.961 . S
H2814 C2828 0.960 . S
H2815 C2828 0.961 . S
H2816 C2828 0.959 . S
H2817 C2831 0.929 . S
H2818 C2832 0.931 . S
H2819 C2834 0.930 . S
C2820 H2808 0.930 . S
C2820 C2821 1.399 . S
C2820 C2825 1.399 . S
C2821 C2820 1.399 . S
C2821 C2822 1.376 . S
C2822 H2809 0.930 . S
C2822 C2821 1.376 . S
C2822 C2823 1.388 . S
C2823 H2810 0.930 . S
C2823 C2822 1.388 . S
C2823 C2824 1.390 . S
C2824 C2823 1.390 . S
C2824 C2825 1.394 . S
C2824 C2830 1.465 . S
C2825 C2820 1.399 . S
C2825 C2824 1.394 . S
C2825 C2826 1.516 . S
C2826 C2825 1.516 . S
C2826 C2827 1.502 . S
C2826 C2828 1.561 . S
C2826 C2829 1.526 . S
C2827 H2811 0.959 . S
C2827 H2812 0.959 . S
C2827 H2813 0.961 . S
C2827 C2826 1.502 . S
C2828 H2814 0.960 . S
C2828 H2815 0.961 . S
C2828 H2816 0.959 . S
C2828 C2826 1.561 . S
C2829 C2826 1.526 . S
C2829 C2830 1.396 . S
C2829 C2834 1.390 . S
C2830 C2824 1.465 . S
C2830 C2829 1.396 . S
C2830 C2831 1.399 . S
C2831 H2817 0.929 . S
C2831 C2830 1.399 . S
C2831 C2832 1.385 . S
C2832 H2818 0.931 . S
C2832 C2831 1.385 . S
C2832 C2833 1.389 . S
C2833 C2832 1.389 . S
C2833 C2834 1.387 . S
C2834 H2819 0.930 . S
C2834 C2829 1.390 . S
C2834 C2833 1.387 . S
H2835 C2847 0.930 . S
H2836 C2849 0.930 . S
H2837 C2850 0.930 . S
H2838 C2854 0.959 . S
H2839 C2854 0.959 . S
H2840 C2854 0.961 . S
H2841 C2855 0.960 . S
H2842 C2855 0.961 . S
H2843 C2855 0.959 . S
H2844 C2858 0.929 . S
H2845 C2859 0.931 . S
H2846 C2861 0.930 . S
C2847 H2835 0.930 . S
C2847 C2848 1.399 1_565 S
C2847 C2852 1.399 . S
C2848 C2847 1.399 1_545 S
C2848 C2849 1.376 . S
C2849 H2836 0.930 . S
C2849 C2848 1.376 . S
C2849 C2850 1.388 . S
C2850 H2837 0.930 . S
C2850 C2849 1.388 . S
C2850 C2851 1.390 1_545 S
C2851 C2850 1.390 1_565 S
C2851 C2852 1.394 . S
C2851 C2857 1.465 . S
C2852 C2847 1.399 . S
C2852 C2851 1.394 . S
C2852 C2853 1.516 . S
C2853 C2852 1.516 . S
C2853 C2854 1.502 . S
C2853 C2855 1.561 . S
C2853 C2856 1.526 . S
C2854 H2838 0.959 . S
C2854 H2839 0.959 . S
C2854 H2840 0.961 . S
C2854 C2853 1.502 . S
C2855 H2841 0.960 . S
C2855 H2842 0.961 . S
C2855 H2843 0.959 . S
C2855 C2853 1.561 . S
C2856 C2853 1.526 . S
C2856 C2857 1.396 . S
C2856 C2861 1.390 . S
C2857 C2851 1.465 . S
C2857 C2856 1.396 . S
C2857 C2858 1.399 . S
C2858 H2844 0.929 . S
C2858 C2857 1.399 . S
C2858 C2859 1.385 . S
C2859 H2845 0.931 . S
C2859 C2858 1.385 . S
C2859 C2860 1.389 . S
C2860 C2859 1.389 . S
C2860 C2861 1.387 . S
C2861 H2846 0.930 . S
C2861 C2856 1.390 . S
C2861 C2860 1.387 . S
H2862 C2874 0.930 . S
H2863 C2876 0.930 . S
H2864 C2877 0.930 . S
H2865 C2881 0.959 1_565 S
H2866 C2881 0.959 1_565 S
H2867 C2881 0.961 . S
H2868 C2882 0.960 . S
H2869 C2882 0.961 . S
H2870 C2882 0.959 . S
H2871 C2885 0.929 . S
H2872 C2886 0.931 . S
H2873 C2888 0.930 1_565 S
C2874 H2862 0.930 . S
C2874 C2875 1.399 . S
C2874 C2879 1.399 . S
C2875 C2874 1.399 . S
C2875 C2876 1.376 . S
C2876 H2863 0.930 . S
C2876 C2875 1.376 . S
C2876 C2877 1.388 . S
C2877 H2864 0.930 . S
C2877 C2876 1.388 . S
C2877 C2878 1.390 . S
C2878 C2877 1.390 . S
C2878 C2879 1.394 . S
C2878 C2884 1.465 . S
C2879 C2874 1.399 . S
C2879 C2878 1.394 . S
C2879 C2880 1.516 . S
C2880 C2879 1.516 . S
C2880 C2881 1.502 . S
C2880 C2882 1.561 . S
C2880 C2883 1.526 . S
C2881 H2865 0.959 1_545 S
C2881 H2866 0.959 1_545 S
C2881 H2867 0.961 . S
C2881 C2880 1.502 . S
C2882 H2868 0.960 . S
C2882 H2869 0.961 . S
C2882 H2870 0.959 . S
C2882 C2880 1.561 . S
C2883 C2880 1.526 . S
C2883 C2884 1.396 . S
C2883 C2888 1.390 . S
C2884 C2878 1.465 . S
C2884 C2883 1.396 . S
C2884 C2885 1.399 . S
C2885 H2871 0.929 . S
C2885 C2884 1.399 . S
C2885 C2886 1.385 . S
C2886 H2872 0.931 . S
C2886 C2885 1.385 . S
C2886 C2887 1.380 1_545 S
C2887 C2886 1.380 1_565 S
C2887 C2888 1.384 1_565 S
C2888 H2873 0.930 1_545 S
C2888 C2883 1.390 . S
C2888 C2887 1.384 1_545 S
H2889 C2901 0.930 . S
H2890 C2903 0.930 . S
H2891 C2904 0.930 . S
H2892 C2908 0.959 . S
H2893 C2908 0.959 . S
H2894 C2908 0.961 . S
H2895 C2909 0.960 . S
H2896 C2909 0.961 . S
H2897 C2909 0.959 . S
H2898 C2912 0.929 . S
H2899 C2913 0.931 . S
H2900 C2915 0.930 . S
C2901 H2889 0.930 . S
C2901 C2902 1.399 . S
C2901 C2906 1.399 . S
C2902 C2901 1.399 . S
C2902 C2903 1.376 . S
C2903 H2890 0.930 . S
C2903 C2902 1.376 . S
C2903 C2904 1.388 . S
C2904 H2891 0.930 . S
C2904 C2903 1.388 . S
C2904 C2905 1.390 . S
C2905 C2904 1.390 . S
C2905 C2906 1.394 . S
C2905 C2911 1.465 . S
C2906 C2901 1.399 . S
C2906 C2905 1.394 . S
C2906 C2907 1.516 . S
C2907 C2906 1.516 . S
C2907 C2908 1.502 . S
C2907 C2909 1.561 . S
C2907 C2910 1.526 . S
C2908 H2892 0.959 . S
C2908 H2893 0.959 . S
C2908 H2894 0.961 . S
C2908 C2907 1.502 . S
C2909 H2895 0.960 . S
C2909 H2896 0.961 . S
C2909 H2897 0.959 . S
C2909 C2907 1.561 . S
C2910 C2907 1.526 . S
C2910 C2911 1.396 . S
C2910 C2915 1.390 . S
C2911 C2905 1.465 . S
C2911 C2910 1.396 . S
C2911 C2912 1.399 . S
C2912 H2898 0.929 . S
C2912 C2911 1.399 . S
C2912 C2913 1.385 . S
C2913 H2899 0.931 . S
C2913 C2912 1.385 . S
C2913 C2914 1.389 . S
C2914 C2913 1.389 . S
C2914 C2915 1.387 . S
C2915 H2900 0.930 . S
C2915 C2910 1.390 . S
C2915 C2914 1.387 . S
H2916 C2928 0.930 . S
H2917 C2930 0.930 . S
H2918 C2931 0.930 . S
H2919 C2935 0.959 . S
H2920 C2935 0.959 . S
H2921 C2935 0.961 . S
H2922 C2936 0.960 . S
H2923 C2936 0.961 . S
H2924 C2936 0.959 . S
H2925 C2939 0.929 . S
H2926 C2940 0.931 . S
H2927 C2942 0.930 . S
C2928 H2916 0.930 . S
C2928 C2929 1.399 . S
C2928 C2933 1.399 . S
C2929 C2928 1.399 . S
C2929 C2930 1.376 . S
C2930 H2917 0.930 . S
C2930 C2929 1.376 . S
C2930 C2931 1.388 . S
C2931 H2918 0.930 . S
C2931 C2930 1.388 . S
C2931 C2932 1.390 . S
C2932 C2931 1.390 . S
C2932 C2933 1.394 . S
C2932 C2938 1.465 . S
C2933 C2928 1.399 . S
C2933 C2932 1.394 . S
C2933 C2934 1.516 . S
C2934 C2933 1.516 . S
C2934 C2935 1.502 . S
C2934 C2936 1.561 . S
C2934 C2937 1.526 . S
C2935 H2919 0.959 . S
C2935 H2920 0.959 . S
C2935 H2921 0.961 . S
C2935 C2934 1.502 . S
C2936 H2922 0.960 . S
C2936 H2923 0.961 . S
C2936 H2924 0.959 . S
C2936 C2934 1.561 . S
C2937 C2934 1.526 . S
C2937 C2938 1.396 . S
C2937 C2942 1.390 . S
C2938 C2932 1.465 . S
C2938 C2937 1.396 . S
C2938 C2939 1.399 . S
C2939 H2925 0.929 . S
C2939 C2938 1.399 . S
C2939 C2940 1.385 . S
C2940 H2926 0.931 . S
C2940 C2939 1.385 . S
C2940 C2941 1.389 . S
C2941 C2940 1.389 . S
C2941 C2942 1.387 . S
C2942 H2927 0.930 . S
C2942 C2937 1.390 . S
C2942 C2941 1.387 . S
H2943 C2955 0.930 . S
H2944 C2957 0.930 . S
H2945 C2958 0.930 . S
H2946 C2962 0.959 . S
H2947 C2962 0.959 . S
H2948 C2962 0.961 . S
H2949 C2963 0.960 . S
H2950 C2963 0.961 . S
H2951 C2963 0.959 . S
H2952 C2966 0.929 . S
H2953 C2967 0.931 . S
H2954 C2969 0.930 . S
C2955 H2943 0.930 . S
C2955 C2956 1.399 . S
C2955 C2960 1.399 . S
C2956 C2955 1.399 . S
C2956 C2957 1.376 . S
C2957 H2944 0.930 . S
C2957 C2956 1.376 . S
C2957 C2958 1.388 . S
C2958 H2945 0.930 . S
C2958 C2957 1.388 . S
C2958 C2959 1.390 . S
C2959 C2958 1.390 . S
C2959 C2960 1.394 . S
C2959 C2965 1.465 . S
C2960 C2955 1.399 . S
C2960 C2959 1.394 . S
C2960 C2961 1.516 . S
C2961 C2960 1.516 . S
C2961 C2962 1.502 . S
C2961 C2963 1.561 . S
C2961 C2964 1.526 . S
C2962 H2946 0.959 . S
C2962 H2947 0.959 . S
C2962 H2948 0.961 . S
C2962 C2961 1.502 . S
C2963 H2949 0.960 . S
C2963 H2950 0.961 . S
C2963 H2951 0.959 . S
C2963 C2961 1.561 . S
C2964 C2961 1.526 . S
C2964 C2965 1.396 . S
C2964 C2969 1.390 . S
C2965 C2959 1.465 . S
C2965 C2964 1.396 . S
C2965 C2966 1.399 1_556 S
C2966 H2952 0.929 . S
C2966 C2965 1.399 1_554 S
C2966 C2967 1.385 . S
C2967 H2953 0.931 . S
C2967 C2966 1.385 . S
C2967 C2968 1.389 . S
C2968 C2967 1.389 . S
C2968 C2969 1.387 1_554 S
C2969 H2954 0.930 . S
C2969 C2964 1.390 . S
C2969 C2968 1.387 1_556 S
H2970 C2982 0.930 . S
H2971 C2984 0.930 . S
H2972 C2985 0.930 . S
H2973 C2989 0.959 . S
H2974 C2989 0.959 . S
H2975 C2989 0.961 . S
H2976 C2990 0.960 . S
H2977 C2990 0.961 . S
H2978 C2990 0.959 . S
H2979 C2993 0.929 . S
H2980 C2994 0.931 . S
H2981 C2996 0.930 . S
C2982 H2970 0.930 . S
C2982 C2983 1.399 . S
C2982 C2987 1.399 . S
C2983 C2982 1.399 . S
C2983 C2984 1.376 . S
C2984 H2971 0.930 . S
C2984 C2983 1.376 . S
C2984 C2985 1.388 . S
C2985 H2972 0.930 . S
C2985 C2984 1.388 . S
C2985 C2986 1.390 . S
C2986 C2985 1.390 . S
C2986 C2987 1.394 . S
C2986 C2992 1.465 . S
C2987 C2982 1.399 . S
C2987 C2986 1.394 . S
C2987 C2988 1.516 . S
C2988 C2987 1.516 . S
C2988 C2989 1.502 . S
C2988 C2990 1.561 . S
C2988 C2991 1.526 . S
C2989 H2973 0.959 . S
C2989 H2974 0.959 . S
C2989 H2975 0.961 . S
C2989 C2988 1.502 . S
C2990 H2976 0.960 . S
C2990 H2977 0.961 . S
C2990 H2978 0.959 . S
C2990 C2988 1.561 . S
C2991 C2988 1.526 . S
C2991 C2992 1.396 . S
C2991 C2996 1.390 . S
C2992 C2986 1.465 . S
C2992 C2991 1.396 . S
C2992 C2993 1.399 . S
C2993 H2979 0.929 . S
C2993 C2992 1.399 . S
C2993 C2994 1.385 . S
C2994 H2980 0.931 . S
C2994 C2993 1.385 . S
C2994 C2995 1.389 . S
C2995 C2994 1.389 . S
C2995 C2996 1.387 . S
C2996 H2981 0.930 . S
C2996 C2991 1.390 . S
C2996 C2995 1.387 . S
H2997 C3009 0.930 . S
H2998 C3011 0.930 . S
H2999 C3012 0.930 . S
H3000 C3016 0.959 . S
H3001 C3016 0.959 . S
H3002 C3016 0.961 . S
H3003 C3017 0.960 . S
H3004 C3017 0.961 . S
H3005 C3017 0.959 . S
H3006 C3020 0.929 . S
H3007 C3021 0.931 . S
H3008 C3023 0.930 . S
C3009 H2997 0.930 . S
C3009 C3010 1.399 . S
C3009 C3014 1.399 . S
C3010 C3009 1.399 . S
C3010 C3011 1.376 . S
C3011 H2998 0.930 . S
C3011 C3010 1.376 . S
C3011 C3012 1.388 . S
C3012 H2999 0.930 . S
C3012 C3011 1.388 . S
C3012 C3013 1.390 . S
C3013 C3012 1.390 . S
C3013 C3014 1.394 . S
C3013 C3019 1.465 . S
C3014 C3009 1.399 . S
C3014 C3013 1.394 . S
C3014 C3015 1.516 . S
C3015 C3014 1.516 . S
C3015 C3016 1.502 . S
C3015 C3017 1.561 . S
C3015 C3018 1.526 . S
C3016 H3000 0.959 . S
C3016 H3001 0.959 . S
C3016 H3002 0.961 . S
C3016 C3015 1.502 . S
C3017 H3003 0.960 . S
C3017 H3004 0.961 . S
C3017 H3005 0.959 . S
C3017 C3015 1.561 . S
C3018 C3015 1.526 . S
C3018 C3019 1.396 . S
C3018 C3023 1.390 . S
C3019 C3013 1.465 . S
C3019 C3018 1.396 . S
C3019 C3020 1.399 1_554 S
C3020 H3006 0.929 . S
C3020 C3019 1.399 1_556 S
C3020 C3021 1.385 . S
C3021 H3007 0.931 . S
C3021 C3020 1.385 . S
C3021 C3022 1.389 . S
C3022 C3021 1.389 . S
C3022 C3023 1.387 1_556 S
C3023 H3008 0.930 . S
C3023 C3018 1.390 . S
C3023 C3022 1.387 1_554 S
H3024 C3036 0.930 . S
H3025 C3038 0.930 . S
H3026 C3039 0.930 . S
H3027 C3043 0.959 . S
H3028 C3043 0.959 . S
H3029 C3043 0.961 . S
H3030 C3044 0.960 . S
H3031 C3044 0.961 . S
H3032 C3044 0.959 . S
H3033 C3047 0.929 . S
H3034 C3048 0.931 . S
H3035 C3050 0.930 . S
C3036 H3024 0.930 . S
C3036 C3037 1.399 . S
C3036 C3041 1.399 . S
C3037 C3036 1.399 . S
C3037 C3038 1.376 . S
C3038 H3025 0.930 . S
C3038 C3037 1.376 . S
C3038 C3039 1.388 . S
C3039 H3026 0.930 . S
C3039 C3038 1.388 . S
C3039 C3040 1.390 . S
C3040 C3039 1.390 . S
C3040 C3041 1.394 . S
C3040 C3046 1.465 . S
C3041 C3036 1.399 . S
C3041 C3040 1.394 . S
C3041 C3042 1.516 . S
C3042 C3041 1.516 . S
C3042 C3043 1.502 . S
C3042 C3044 1.561 . S
C3042 C3045 1.526 . S
C3043 H3027 0.959 . S
C3043 H3028 0.959 . S
C3043 H3029 0.961 . S
C3043 C3042 1.502 . S
C3044 H3030 0.960 . S
C3044 H3031 0.961 . S
C3044 H3032 0.959 . S
C3044 C3042 1.561 . S
C3045 C3042 1.526 . S
C3045 C3046 1.396 . S
C3045 C3050 1.390 . S
C3046 C3040 1.465 . S
C3046 C3045 1.396 . S
C3046 C3047 1.399 . S
C3047 H3033 0.929 . S
C3047 C3046 1.399 . S
C3047 C3048 1.385 . S
C3048 H3034 0.931 . S
C3048 C3047 1.385 . S
C3048 C3049 1.389 . S
C3049 C3048 1.389 . S
C3049 C3050 1.387 . S
C3050 H3035 0.930 . S
C3050 C3045 1.390 . S
C3050 C3049 1.387 . S
H3051 C3063 0.930 . S
H3052 C3065 0.930 . S
H3053 C3066 0.930 . S
H3054 C3070 0.959 . S
H3055 C3070 0.959 . S
H3056 C3070 0.961 . S
H3057 C3071 0.960 . S
H3058 C3071 0.961 . S
H3059 C3071 0.959 . S
H3060 C3074 0.929 . S
H3061 C3075 0.931 . S
H3062 C3077 0.930 . S
C3063 H3051 0.930 . S
C3063 C3064 1.399 1_455 S
C3063 C3068 1.399 . S
C3064 C3063 1.399 1_655 S
C3064 C3065 1.376 . S
C3065 H3052 0.930 . S
C3065 C3064 1.376 . S
C3065 C3066 1.388 1_655 S
C3066 H3053 0.930 . S
C3066 C3065 1.388 1_455 S
C3066 C3067 1.390 . S
C3067 C3066 1.390 . S
C3067 C3068 1.394 . S
C3067 C3073 1.465 . S
C3068 C3063 1.399 . S
C3068 C3067 1.394 . S
C3068 C3069 1.516 . S
C3069 C3068 1.516 . S
C3069 C3070 1.502 . S
C3069 C3071 1.561 . S
C3069 C3072 1.526 . S
C3070 H3054 0.959 . S
C3070 H3055 0.959 . S
C3070 H3056 0.961 . S
C3070 C3069 1.502 . S
C3071 H3057 0.960 . S
C3071 H3058 0.961 . S
C3071 H3059 0.959 . S
C3071 C3069 1.561 . S
C3072 C3069 1.526 . S
C3072 C3073 1.396 . S
C3072 C3077 1.390 . S
C3073 C3067 1.465 . S
C3073 C3072 1.396 . S
C3073 C3074 1.399 . S
C3074 H3060 0.929 . S
C3074 C3073 1.399 . S
C3074 C3075 1.385 . S
C3075 H3061 0.931 . S
C3075 C3074 1.385 . S
C3075 C3076 1.389 . S
C3076 C3075 1.389 . S
C3076 C3077 1.387 . S
C3077 H3062 0.930 . S
C3077 C3072 1.390 . S
C3077 C3076 1.387 . S
H3078 C3090 0.930 . S
H3079 C3092 0.930 . S
H3080 C3093 0.930 . S
H3081 C3097 0.959 . S
H3082 C3097 0.959 . S
H3083 C3097 0.961 . S
H3084 C3098 0.960 . S
H3085 C3098 0.961 . S
H3086 C3098 0.959 . S
H3087 C3101 0.929 . S
H3088 C3102 0.931 . S
H3089 C3104 0.930 . S
C3090 H3078 0.930 . S
C3090 C3091 1.399 1_655 S
C3090 C3095 1.399 . S
C3091 C3090 1.399 1_455 S
C3091 C3092 1.376 . S
C3092 H3079 0.930 . S
C3092 C3091 1.376 . S
C3092 C3093 1.388 1_455 S
C3093 H3080 0.930 . S
C3093 C3092 1.388 1_655 S
C3093 C3094 1.390 . S
C3094 C3093 1.390 . S
C3094 C3095 1.394 . S
C3094 C3100 1.465 . S
C3095 C3090 1.399 . S
C3095 C3094 1.394 . S
C3095 C3096 1.516 . S
C3096 C3095 1.516 . S
C3096 C3097 1.502 . S
C3096 C3098 1.561 . S
C3096 C3099 1.526 . S
C3097 H3081 0.959 . S
C3097 H3082 0.959 . S
C3097 H3083 0.961 . S
C3097 C3096 1.502 . S
C3098 H3084 0.960 . S
C3098 H3085 0.961 . S
C3098 H3086 0.959 . S
C3098 C3096 1.561 . S
C3099 C3096 1.526 . S
C3099 C3100 1.396 . S
C3099 C3104 1.390 . S
C3100 C3094 1.465 . S
C3100 C3099 1.396 . S
C3100 C3101 1.399 . S
C3101 H3087 0.929 . S
C3101 C3100 1.399 . S
C3101 C3102 1.385 . S
C3102 H3088 0.931 . S
C3102 C3101 1.385 . S
C3102 C3103 1.389 . S
C3103 C3102 1.389 . S
C3103 C3104 1.387 . S
C3104 H3089 0.930 . S
C3104 C3099 1.390 . S
C3104 C3103 1.387 . S
H3105 C3117 0.930 . S
H3106 C3119 0.930 . S
H3107 C3120 0.930 . S
H3108 C3124 0.959 . S
H3109 C3124 0.959 . S
H3110 C3124 0.961 . S
H3111 C3125 0.960 . S
H3112 C3125 0.961 . S
H3113 C3125 0.959 . S
H3114 C3128 0.929 . S
H3115 C3129 0.931 . S
H3116 C3131 0.930 . S
C3117 H3105 0.930 . S
C3117 C3118 1.399 . S
C3117 C3122 1.399 . S
C3118 C3117 1.399 . S
C3118 C3119 1.376 . S
C3119 H3106 0.930 . S
C3119 C3118 1.376 . S
C3119 C3120 1.388 . S
C3120 H3107 0.930 . S
C3120 C3119 1.388 . S
C3120 C3121 1.390 . S
C3121 C3120 1.390 . S
C3121 C3122 1.394 . S
C3121 C3127 1.465 . S
C3122 C3117 1.399 . S
C3122 C3121 1.394 . S
C3122 C3123 1.516 . S
C3123 C3122 1.516 . S
C3123 C3124 1.502 . S
C3123 C3125 1.561 . S
C3123 C3126 1.526 . S
C3124 H3108 0.959 . S
C3124 H3109 0.959 . S
C3124 H3110 0.961 . S
C3124 C3123 1.502 . S
C3125 H3111 0.960 . S
C3125 H3112 0.961 . S
C3125 H3113 0.959 . S
C3125 C3123 1.561 . S
C3126 C3123 1.526 . S
C3126 C3127 1.396 . S
C3126 C3131 1.390 . S
C3127 C3121 1.465 . S
C3127 C3126 1.396 . S
C3127 C3128 1.399 . S
C3128 H3114 0.929 . S
C3128 C3127 1.399 . S
C3128 C3129 1.385 . S
C3129 H3115 0.931 . S
C3129 C3128 1.385 . S
C3129 C3130 1.389 . S
C3130 C3129 1.389 . S
C3130 C3131 1.387 . S
C3131 H3116 0.930 . S
C3131 C3126 1.390 . S
C3131 C3130 1.387 . S
H3132 C3144 0.930 . S
H3133 C3146 0.930 . S
H3134 C3147 0.930 . S
H3135 C3151 0.959 . S
H3136 C3151 0.959 . S
H3137 C3151 0.961 . S
H3138 C3152 0.960 . S
H3139 C3152 0.961 . S
H3140 C3152 0.959 . S
H3141 C3155 0.929 . S
H3142 C3156 0.931 . S
H3143 C3158 0.930 . S
C3144 H3132 0.930 . S
C3144 C3145 1.399 . S
C3144 C3149 1.399 . S
C3145 C3144 1.399 . S
C3145 C3146 1.376 . S
C3146 H3133 0.930 . S
C3146 C3145 1.376 . S
C3146 C3147 1.388 . S
C3147 H3134 0.930 . S
C3147 C3146 1.388 . S
C3147 C3148 1.390 . S
C3148 C3147 1.390 . S
C3148 C3149 1.394 . S
C3148 C3154 1.465 . S
C3149 C3144 1.399 . S
C3149 C3148 1.394 . S
C3149 C3150 1.516 . S
C3150 C3149 1.516 . S
C3150 C3151 1.502 . S
C3150 C3152 1.561 . S
C3150 C3153 1.526 . S
C3151 H3135 0.959 . S
C3151 H3136 0.959 . S
C3151 H3137 0.961 . S
C3151 C3150 1.502 . S
C3152 H3138 0.960 . S
C3152 H3139 0.961 . S
C3152 H3140 0.959 . S
C3152 C3150 1.561 . S
C3153 C3150 1.526 . S
C3153 C3154 1.396 . S
C3153 C3158 1.390 . S
C3154 C3148 1.465 . S
C3154 C3153 1.396 . S
C3154 C3155 1.399 . S
C3155 H3141 0.929 . S
C3155 C3154 1.399 . S
C3155 C3156 1.385 . S
C3156 H3142 0.931 . S
C3156 C3155 1.385 . S
C3156 C3157 1.389 . S
C3157 C3156 1.389 . S
C3157 C3158 1.387 . S
C3158 H3143 0.930 . S
C3158 C3153 1.390 . S
C3158 C3157 1.387 . S
H3159 C3171 0.930 . S
H3160 C3173 0.930 . S
H3161 C3174 0.930 . S
H3162 C3178 0.959 . S
H3163 C3178 0.959 . S
H3164 C3178 0.961 . S
H3165 C3179 0.960 . S
H3166 C3179 0.961 . S
H3167 C3179 0.959 . S
H3168 C3182 0.929 . S
H3169 C3183 0.931 . S
H3170 C3185 0.930 . S
C3171 H3159 0.930 . S
C3171 C3172 1.399 . S
C3171 C3176 1.399 . S
C3172 C3171 1.399 . S
C3172 C3173 1.376 . S
C3173 H3160 0.930 . S
C3173 C3172 1.376 . S
C3173 C3174 1.388 . S
C3174 H3161 0.930 . S
C3174 C3173 1.388 . S
C3174 C3175 1.390 . S
C3175 C3174 1.390 . S
C3175 C3176 1.394 . S
C3175 C3181 1.465 . S
C3176 C3171 1.399 . S
C3176 C3175 1.394 . S
C3176 C3177 1.516 . S
C3177 C3176 1.516 . S
C3177 C3178 1.502 . S
C3177 C3179 1.561 . S
C3177 C3180 1.526 . S
C3178 H3162 0.959 . S
C3178 H3163 0.959 . S
C3178 H3164 0.961 . S
C3178 C3177 1.502 . S
C3179 H3165 0.960 . S
C3179 H3166 0.961 . S
C3179 H3167 0.959 . S
C3179 C3177 1.561 . S
C3180 C3177 1.526 . S
C3180 C3181 1.396 . S
C3180 C3185 1.390 . S
C3181 C3175 1.465 . S
C3181 C3180 1.396 . S
C3181 C3182 1.399 1_545 S
C3182 H3168 0.929 . S
C3182 C3181 1.399 1_565 S
C3182 C3183 1.385 . S
C3183 H3169 0.931 . S
C3183 C3182 1.385 . S
C3183 C3184 1.389 . S
C3184 C3183 1.389 . S
C3184 C3185 1.387 1_565 S
C3185 H3170 0.930 . S
C3185 C3180 1.390 . S
C3185 C3184 1.387 1_545 S
H3186 C3198 0.930 . S
H3187 C3200 0.930 . S
H3188 C3201 0.930 . S
H3189 C3205 0.959 . S
H3190 C3205 0.936 1_545 S
H3191 C3205 0.961 . S
H3192 C3206 0.960 . S
H3193 C3206 0.961 . S
H3194 C3206 0.959 . S
H3195 C3209 0.929 . S
H3196 C3210 0.931 . S
H3197 C3212 0.930 . S
C3198 H3186 0.930 . S
C3198 C3199 1.399 . S
C3198 C3203 1.399 . S
C3199 C3198 1.399 . S
C3199 C3200 1.376 . S
C3200 H3187 0.930 . S
C3200 C3199 1.376 . S
C3200 C3201 1.388 . S
C3201 H3188 0.930 . S
C3201 C3200 1.388 . S
C3201 C3202 1.390 . S
C3202 C3201 1.390 . S
C3202 C3203 1.394 . S
C3202 C3208 1.465 . S
C3203 C3198 1.399 . S
C3203 C3202 1.394 . S
C3203 C3204 1.516 . S
C3204 C3203 1.516 . S
C3204 C3205 1.502 . S
C3204 C3206 1.561 1_565 S
C3204 C3207 1.526 . S
C3205 H3189 0.959 . S
C3205 H3190 0.936 1_565 S
C3205 H3191 0.961 . S
C3205 C3204 1.502 . S
C3206 H3192 0.960 . S
C3206 H3193 0.961 . S
C3206 H3194 0.959 . S
C3206 C3204 1.561 1_545 S
C3207 C3204 1.526 . S
C3207 C3208 1.396 . S
C3207 C3212 1.390 1_565 S
C3208 C3202 1.465 . S
C3208 C3207 1.396 . S
C3208 C3209 1.399 . S
C3209 H3195 0.929 . S
C3209 C3208 1.399 . S
C3209 C3210 1.385 . S
C3210 H3196 0.931 . S
C3210 C3209 1.385 . S
C3210 C3211 1.384 1_565 S
C3211 C3210 1.384 1_545 S
C3211 C3212 1.387 . S
C3212 H3197 0.930 . S
C3212 C3207 1.390 1_545 S
C3212 C3211 1.387 . S
H3213 C3225 0.930 . S
H3214 C3227 0.930 . S
H3215 C3228 0.930 . S
H3216 C3232 0.959 . S
H3217 C3232 0.959 . S
H3218 C3232 0.961 . S
H3219 C3233 0.960 . S
H3220 C3233 0.961 . S
H3221 C3233 0.959 . S
H3222 C3236 0.929 . S
H3223 C3237 0.931 . S
H3224 C3239 0.930 . S
C3225 H3213 0.930 . S
C3225 C3226 1.399 . S
C3225 C3230 1.399 . S
C3226 C3225 1.399 . S
C3226 C3227 1.376 . S
C3227 H3214 0.930 . S
C3227 C3226 1.376 . S
C3227 C3228 1.388 . S
C3228 H3215 0.930 . S
C3228 C3227 1.388 . S
C3228 C3229 1.390 . S
C3229 C3228 1.390 . S
C3229 C3230 1.394 . S
C3229 C3235 1.465 . S
C3230 C3225 1.399 . S
C3230 C3229 1.394 . S
C3230 C3231 1.516 . S
C3231 C3230 1.516 . S
C3231 C3232 1.502 . S
C3231 C3233 1.561 . S
C3231 C3234 1.526 . S
C3232 H3216 0.959 . S
C3232 H3217 0.959 . S
C3232 H3218 0.961 . S
C3232 C3231 1.502 . S
C3233 H3219 0.960 . S
C3233 H3220 0.961 . S
C3233 H3221 0.959 . S
C3233 C3231 1.561 . S
C3234 C3231 1.526 . S
C3234 C3235 1.396 . S
C3234 C3239 1.390 . S
C3235 C3229 1.465 . S
C3235 C3234 1.396 . S
C3235 C3236 1.399 . S
C3236 H3222 0.929 . S
C3236 C3235 1.399 . S
C3236 C3237 1.385 . S
C3237 H3223 0.931 . S
C3237 C3236 1.385 . S
C3237 C3238 1.389 . S
C3238 C3237 1.389 . S
C3238 C3239 1.387 . S
C3239 H3224 0.930 . S
C3239 C3234 1.390 . S
C3239 C3238 1.387 . S
H3240 C3252 0.930 . S
H3241 C3254 0.930 . S
H3242 C3255 0.930 . S
H3243 C3259 0.959 . S
H3244 C3259 0.959 . S
H3245 C3259 0.961 . S
H3246 C3260 0.960 . S
H3247 C3260 0.961 . S
H3248 C3260 0.959 . S
H3249 C3263 0.929 . S
H3250 C3264 0.931 . S
H3251 C3266 0.930 . S
C3252 H3240 0.930 . S
C3252 C3253 1.399 . S
C3252 C3257 1.399 . S
C3253 C3252 1.399 . S
C3253 C3254 1.376 . S
C3254 H3241 0.930 . S
C3254 C3253 1.376 . S
C3254 C3255 1.388 . S
C3255 H3242 0.930 . S
C3255 C3254 1.388 . S
C3255 C3256 1.390 . S
C3256 C3255 1.390 . S
C3256 C3257 1.394 . S
C3256 C3262 1.465 . S
C3257 C3252 1.399 . S
C3257 C3256 1.394 . S
C3257 C3258 1.516 . S
C3258 C3257 1.516 . S
C3258 C3259 1.502 . S
C3258 C3260 1.561 . S
C3258 C3261 1.526 . S
C3259 H3243 0.959 . S
C3259 H3244 0.959 . S
C3259 H3245 0.961 . S
C3259 C3258 1.502 . S
C3260 H3246 0.960 . S
C3260 H3247 0.961 . S
C3260 H3248 0.959 . S
C3260 C3258 1.561 . S
C3261 C3258 1.526 . S
C3261 C3262 1.396 . S
C3261 C3266 1.390 . S
C3262 C3256 1.465 . S
C3262 C3261 1.396 . S
C3262 C3263 1.399 . S
C3263 H3249 0.929 . S
C3263 C3262 1.399 . S
C3263 C3264 1.385 . S
C3264 H3250 0.931 . S
C3264 C3263 1.385 . S
C3264 C3265 1.389 . S
C3265 C3264 1.389 . S
C3265 C3266 1.387 . S
C3266 H3251 0.930 . S
C3266 C3261 1.390 . S
C3266 C3265 1.387 . S
H3267 C3279 0.930 . S
H3268 C3281 0.930 . S
H3269 C3282 0.930 . S
H3270 C3286 0.959 . S
H3271 C3286 0.959 . S
H3272 C3286 0.961 . S
H3273 C3287 0.960 . S
H3274 C3287 0.961 1_556 S
H3275 C3287 0.959 . S
H3276 C3290 0.929 . S
H3277 C3291 0.931 . S
H3278 C3293 0.961 . S
C3279 H3267 0.930 . S
C3279 C3280 1.399 . S
C3279 C3284 1.399 . S
C3280 C3279 1.399 . S
C3280 C3281 1.376 . S
C3281 H3268 0.930 . S
C3281 C3280 1.376 . S
C3281 C3282 1.388 . S
C3282 H3269 0.930 . S
C3282 C3281 1.388 . S
C3282 C3283 1.390 . S
C3283 C3282 1.390 . S
C3283 C3284 1.394 . S
C3283 C3289 1.465 . S
C3284 C3279 1.399 . S
C3284 C3283 1.394 . S
C3284 C3285 1.516 . S
C3285 C3284 1.516 . S
C3285 C3286 1.502 . S
C3285 C3287 1.561 . S
C3285 C3288 1.526 . S
C3286 H3270 0.959 . S
C3286 H3271 0.959 . S
C3286 H3272 0.961 . S
C3286 C3285 1.502 . S
C3287 H3273 0.960 . S
C3287 H3274 0.961 1_554 S
C3287 H3275 0.959 . S
C3287 C3285 1.561 . S
C3288 C3285 1.526 . S
C3288 C3289 1.396 . S
C3288 C3293 1.390 . S
C3289 C3283 1.465 . S
C3289 C3288 1.396 . S
C3289 C3290 1.399 . S
C3290 H3276 0.929 . S
C3290 C3289 1.399 . S
C3290 C3291 1.385 . S
C3291 H3277 0.931 . S
C3291 C3290 1.385 . S
C3291 C3292 1.389 . S
C3292 C3291 1.389 . S
C3292 C3293 1.387 . S
C3293 H3278 0.961 . S
C3293 C3288 1.390 . S
C3293 C3292 1.387 . S
H3294 C3306 0.930 . S
H3295 C3308 0.930 . S
H3296 C3309 0.930 . S
H3297 C3313 0.959 . S
H3298 C3313 0.959 . S
H3299 C3313 0.961 . S
H3300 C3314 0.960 . S
H3301 C3314 0.961 . S
H3302 C3314 0.959 . S
H3303 C3317 0.929 . S
H3304 C3318 0.931 . S
H3305 C3320 0.930 . S
C3306 H3294 0.930 . S
C3306 C3307 1.399 . S
C3306 C3311 1.399 . S
C3307 C3306 1.399 . S
C3307 C3308 1.376 . S
C3308 H3295 0.930 . S
C3308 C3307 1.376 . S
C3308 C3309 1.388 . S
C3309 H3296 0.930 . S
C3309 C3308 1.388 . S
C3309 C3310 1.390 . S
C3310 C3309 1.390 . S
C3310 C3311 1.394 . S
C3310 C3316 1.465 . S
C3311 C3306 1.399 . S
C3311 C3310 1.394 . S
C3311 C3312 1.516 . S
C3312 C3311 1.516 . S
C3312 C3313 1.502 . S
C3312 C3314 1.561 . S
C3312 C3315 1.526 . S
C3313 H3297 0.959 . S
C3313 H3298 0.959 . S
C3313 H3299 0.961 . S
C3313 C3312 1.502 . S
C3314 H3300 0.960 . S
C3314 H3301 0.961 . S
C3314 H3302 0.959 . S
C3314 C3312 1.561 . S
C3315 C3312 1.526 . S
C3315 C3316 1.396 . S
C3315 C3320 1.390 . S
C3316 C3310 1.465 . S
C3316 C3315 1.396 . S
C3316 C3317 1.399 . S
C3317 H3303 0.929 . S
C3317 C3316 1.399 . S
C3317 C3318 1.385 . S
C3318 H3304 0.931 . S
C3318 C3317 1.385 . S
C3318 C3319 1.389 . S
C3319 C3318 1.389 . S
C3319 C3320 1.387 . S
C3320 H3305 0.930 . S
C3320 C3315 1.390 . S
C3320 C3319 1.387 . S
H3321 C3333 0.930 . S
H3322 C3335 0.930 . S
H3323 C3336 0.930 . S
H3324 C3340 0.959 . S
H3325 C3340 0.972 . S
H3326 C3340 0.961 . S
H3327 C3341 0.960 . S
H3328 C3341 0.960 . S
H3329 C3341 0.959 . S
H3330 C3344 0.929 . S
H3331 C3345 0.931 . S
H3332 C3347 0.934 1_554 S
C3333 H3321 0.930 . S
C3333 C3334 1.399 . S
C3333 C3338 1.399 . S
C3334 C3333 1.399 . S
C3334 C3335 1.376 . S
C3335 H3322 0.930 . S
C3335 C3334 1.376 . S
C3335 C3336 1.388 . S
C3336 H3323 0.930 . S
C3336 C3335 1.388 . S
C3336 C3337 1.390 . S
C3337 C3336 1.390 . S
C3337 C3338 1.394 . S
C3337 C3343 1.465 . S
C3338 C3333 1.399 . S
C3338 C3337 1.394 . S
C3338 C3339 1.516 . S
C3339 C3338 1.516 . S
C3339 C3340 1.502 . S
C3339 C3341 1.561 . S
C3339 C3342 1.526 . S
C3340 H3324 0.959 . S
C3340 H3325 0.972 . S
C3340 H3326 0.961 . S
C3340 C3339 1.502 . S
C3341 H3327 0.960 . S
C3341 H3328 0.960 . S
C3341 H3329 0.959 . S
C3341 C3339 1.561 . S
C3342 C3339 1.526 . S
C3342 C3343 1.396 . S
C3342 C3347 1.390 . S
C3343 C3337 1.465 . S
C3343 C3342 1.396 . S
C3343 C3344 1.399 . S
C3344 H3330 0.929 . S
C3344 C3343 1.399 . S
C3344 C3345 1.385 . S
C3345 H3331 0.931 . S
C3345 C3344 1.385 . S
C3345 C3346 1.389 . S
C3346 C3345 1.389 . S
C3346 C3347 1.387 . S
C3347 H3332 0.934 1_556 S
C3347 C3342 1.390 . S
C3347 C3346 1.387 . S
H3348 C3360 0.930 . S
H3349 C3362 0.930 . S
H3350 C3363 0.930 . S
H3351 C3367 0.959 . S
H3352 C3367 0.959 . S
H3353 C3367 0.961 . S
H3354 C3368 0.960 . S
H3355 C3368 0.961 . S
H3356 C3368 0.959 . S
H3357 C3371 0.929 . S
H3358 C3372 0.931 . S
H3359 C3374 0.930 . S
C3360 H3348 0.930 . S
C3360 C3361 1.399 . S
C3360 C3365 1.399 . S
C3361 C3360 1.399 . S
C3361 C3362 1.376 . S
C3362 H3349 0.930 . S
C3362 C3361 1.376 . S
C3362 C3363 1.388 . S
C3363 H3350 0.930 . S
C3363 C3362 1.388 . S
C3363 C3364 1.390 . S
C3364 C3363 1.390 . S
C3364 C3365 1.394 . S
C3364 C3370 1.465 . S
C3365 C3360 1.399 . S
C3365 C3364 1.394 . S
C3365 C3366 1.516 . S
C3366 C3365 1.516 . S
C3366 C3367 1.502 . S
C3366 C3368 1.561 . S
C3366 C3369 1.526 . S
C3367 H3351 0.959 . S
C3367 H3352 0.959 . S
C3367 H3353 0.961 . S
C3367 C3366 1.502 . S
C3368 H3354 0.960 . S
C3368 H3355 0.961 . S
C3368 H3356 0.959 . S
C3368 C3366 1.561 . S
C3369 C3366 1.526 . S
C3369 C3370 1.396 . S
C3369 C3374 1.390 . S
C3370 C3364 1.465 . S
C3370 C3369 1.396 . S
C3370 C3371 1.399 . S
C3371 H3357 0.929 . S
C3371 C3370 1.399 . S
C3371 C3372 1.385 . S
C3372 H3358 0.931 . S
C3372 C3371 1.385 . S
C3372 C3373 1.389 . S
C3373 C3372 1.389 . S
C3373 C3374 1.387 . S
C3374 H3359 0.930 . S
C3374 C3369 1.390 . S
C3374 C3373 1.387 . S
H3375 C3387 0.930 . S
H3376 C3389 0.930 . S
H3377 C3390 0.930 . S
H3378 C3394 0.959 . S
H3379 C3394 0.959 . S
H3380 C3394 0.961 . S
H3381 C3395 0.960 . S
H3382 C3395 0.961 . S
H3383 C3395 0.959 . S
H3384 C3398 0.929 . S
H3385 C3399 0.931 . S
H3386 C3401 0.930 . S
C3387 H3375 0.930 . S
C3387 C3388 1.399 . S
C3387 C3392 1.399 . S
C3388 C3387 1.399 . S
C3388 C3389 1.376 . S
C3389 H3376 0.930 . S
C3389 C3388 1.376 . S
C3389 C3390 1.388 . S
C3390 H3377 0.930 . S
C3390 C3389 1.388 . S
C3390 C3391 1.390 . S
C3391 C3390 1.390 . S
C3391 C3392 1.394 . S
C3391 C3397 1.465 . S
C3392 C3387 1.399 . S
C3392 C3391 1.394 . S
C3392 C3393 1.516 . S
C3393 C3392 1.516 . S
C3393 C3394 1.502 . S
C3393 C3395 1.561 . S
C3393 C3396 1.526 . S
C3394 H3378 0.959 . S
C3394 H3379 0.959 . S
C3394 H3380 0.961 . S
C3394 C3393 1.502 . S
C3395 H3381 0.960 . S
C3395 H3382 0.961 . S
C3395 H3383 0.959 . S
C3395 C3393 1.561 . S
C3396 C3393 1.526 . S
C3396 C3397 1.396 . S
C3396 C3401 1.390 . S
C3397 C3391 1.465 . S
C3397 C3396 1.396 . S
C3397 C3398 1.399 . S
C3398 H3384 0.929 . S
C3398 C3397 1.399 . S
C3398 C3399 1.385 . S
C3399 H3385 0.931 . S
C3399 C3398 1.385 . S
C3399 C3400 1.389 . S
C3400 C3399 1.389 . S
C3400 C3401 1.387 . S
C3401 H3386 0.930 . S
C3401 C3396 1.390 . S
C3401 C3400 1.387 . S
H3402 C3414 0.930 . S
H3403 C3416 0.930 . S
H3404 C3417 0.930 . S
H3405 C3421 0.959 . S
H3406 C3421 0.959 . S
H3407 C3421 0.941 1_655 S
H3408 C3422 0.960 . S
H3409 C3422 0.961 . S
H3410 C3422 0.959 . S
H3411 C3425 0.929 . S
H3412 C3426 0.931 . S
H3413 C3428 0.930 . S
C3414 H3402 0.930 . S
C3414 C3415 1.399 . S
C3414 C3419 1.399 . S
C3415 C3414 1.399 . S
C3415 C3416 1.376 . S
C3416 H3403 0.930 . S
C3416 C3415 1.376 . S
C3416 C3417 1.388 . S
C3417 H3404 0.930 . S
C3417 C3416 1.388 . S
C3417 C3418 1.390 . S
C3418 C3417 1.390 . S
C3418 C3419 1.394 . S
C3418 C3424 1.465 . S
C3419 C3414 1.399 . S
C3419 C3418 1.394 . S
C3419 C3420 1.516 . S
C3420 C3419 1.516 . S
C3420 C3421 1.502 . S
C3420 C3422 1.561 . S
C3420 C3423 1.526 . S
C3421 H3405 0.959 . S
C3421 H3406 0.959 . S
C3421 H3407 0.941 1_455 S
C3421 C3420 1.502 . S
C3422 H3408 0.960 . S
C3422 H3409 0.961 . S
C3422 H3410 0.959 . S
C3422 C3420 1.561 . S
C3423 C3420 1.526 . S
C3423 C3424 1.396 . S
C3423 C3428 1.390 . S
C3424 C3418 1.465 . S
C3424 C3423 1.396 . S
C3424 C3425 1.399 . S
C3425 H3411 0.929 . S
C3425 C3424 1.399 . S
C3425 C3426 1.385 . S
C3426 H3412 0.931 . S
C3426 C3425 1.385 . S
C3426 C3427 1.389 . S
C3427 C3426 1.389 . S
C3427 C3428 1.387 . S
C3428 H3413 0.930 . S
C3428 C3423 1.390 . S
C3428 C3427 1.387 . S
H3429 C3441 0.930 . S
H3430 C3443 0.930 . S
H3431 C3444 0.930 . S
H3432 C3448 0.959 . S
H3433 C3448 0.959 . S
H3434 C3448 0.961 . S
H3435 C3449 0.960 . S
H3436 C3449 0.961 . S
H3437 C3449 0.959 . S
H3438 C3452 0.929 . S
H3439 C3453 0.931 . S
H3440 C3455 0.930 . S
C3441 H3429 0.930 . S
C3441 C3442 1.399 . S
C3441 C3446 1.399 . S
C3442 C3441 1.399 . S
C3442 C3443 1.376 . S
C3443 H3430 0.930 . S
C3443 C3442 1.376 . S
C3443 C3444 1.388 . S
C3444 H3431 0.930 . S
C3444 C3443 1.388 . S
C3444 C3445 1.390 . S
C3445 C3444 1.390 . S
C3445 C3446 1.394 . S
C3445 C3451 1.465 . S
C3446 C3441 1.399 . S
C3446 C3445 1.394 . S
C3446 C3447 1.516 . S
C3447 C3446 1.516 . S
C3447 C3448 1.502 . S
C3447 C3449 1.561 . S
C3447 C3450 1.526 . S
C3448 H3432 0.959 . S
C3448 H3433 0.959 . S
C3448 H3434 0.961 . S
C3448 C3447 1.502 . S
C3449 H3435 0.960 . S
C3449 H3436 0.961 . S
C3449 H3437 0.959 . S
C3449 C3447 1.561 . S
C3450 C3447 1.526 . S
C3450 C3451 1.396 . S
C3450 C3455 1.390 . S
C3451 C3445 1.465 . S
C3451 C3450 1.396 . S
C3451 C3452 1.399 . S
C3452 H3438 0.929 . S
C3452 C3451 1.399 . S
C3452 C3453 1.385 . S
C3453 H3439 0.931 . S
C3453 C3452 1.385 . S
C3453 C3454 1.389 . S
C3454 C3453 1.389 . S
C3454 C3455 1.387 . S
C3455 H3440 0.930 . S
C3455 C3450 1.390 . S
C3455 C3454 1.387 . S
H3456 C3468 0.930 . S
H3457 C3470 0.930 . S
H3458 C3471 0.930 . S
H3459 C3475 0.959 . S
H3460 C3475 0.959 . S
H3461 C3475 0.961 . S
H3462 C3476 0.960 . S
H3463 C3476 0.961 . S
H3464 C3476 0.959 . S
H3465 C3479 0.929 . S
H3466 C3480 0.931 . S
H3467 C3482 0.930 . S
C3468 H3456 0.930 . S
C3468 C3469 1.399 . S
C3468 C3473 1.399 . S
C3469 C3468 1.399 . S
C3469 C3470 1.376 . S
C3470 H3457 0.930 . S
C3470 C3469 1.376 . S
C3470 C3471 1.388 . S
C3471 H3458 0.930 . S
C3471 C3470 1.388 . S
C3471 C3472 1.390 . S
C3472 C3471 1.390 . S
C3472 C3473 1.394 . S
C3472 C3478 1.465 . S
C3473 C3468 1.399 . S
C3473 C3472 1.394 . S
C3473 C3474 1.516 . S
C3474 C3473 1.516 . S
C3474 C3475 1.502 . S
C3474 C3476 1.561 . S
C3474 C3477 1.526 . S
C3475 H3459 0.959 . S
C3475 H3460 0.959 . S
C3475 H3461 0.961 . S
C3475 C3474 1.502 . S
C3476 H3462 0.960 . S
C3476 H3463 0.961 . S
C3476 H3464 0.959 . S
C3476 C3474 1.561 . S
C3477 C3474 1.526 . S
C3477 C3478 1.396 . S
C3477 C3482 1.390 . S
C3478 C3472 1.465 . S
C3478 C3477 1.396 . S
C3478 C3479 1.399 . S
C3479 H3465 0.929 . S
C3479 C3478 1.399 . S
C3479 C3480 1.385 . S
C3480 H3466 0.931 . S
C3480 C3479 1.385 . S
C3480 C3481 1.389 . S
C3481 C3480 1.389 . S
C3481 C3482 1.387 . S
C3482 H3467 0.930 . S
C3482 C3477 1.390 . S
C3482 C3481 1.387 . S
H3483 C3495 0.930 . S
H3484 C3497 0.930 . S
H3485 C3498 0.930 . S
H3486 C3502 0.959 . S
H3487 C3502 0.959 . S
H3488 C3502 0.961 . S
H3489 C3503 0.960 . S
H3490 C3503 0.961 . S
H3491 C3503 0.959 . S
H3492 C3506 0.929 . S
H3493 C3507 0.931 . S
H3494 C3509 0.930 . S
C3495 H3483 0.930 . S
C3495 C3496 1.399 . S
C3495 C3500 1.399 . S
C3496 C3495 1.399 . S
C3496 C3497 1.376 . S
C3497 H3484 0.930 . S
C3497 C3496 1.376 . S
C3497 C3498 1.388 . S
C3498 H3485 0.930 . S
C3498 C3497 1.388 . S
C3498 C3499 1.390 . S
C3499 C3498 1.390 . S
C3499 C3500 1.394 . S
C3499 C3505 1.465 . S
C3500 C3495 1.399 . S
C3500 C3499 1.394 . S
C3500 C3501 1.516 . S
C3501 C3500 1.516 . S
C3501 C3502 1.502 . S
C3501 C3503 1.561 . S
C3501 C3504 1.526 . S
C3502 H3486 0.959 . S
C3502 H3487 0.959 . S
C3502 H3488 0.961 . S
C3502 C3501 1.502 . S
C3503 H3489 0.960 . S
C3503 H3490 0.961 . S
C3503 H3491 0.959 . S
C3503 C3501 1.561 . S
C3504 C3501 1.526 . S
C3504 C3505 1.396 . S
C3504 C3509 1.390 . S
C3505 C3499 1.465 . S
C3505 C3504 1.396 . S
C3505 C3506 1.399 . S
C3506 H3492 0.929 . S
C3506 C3505 1.399 . S
C3506 C3507 1.385 . S
C3507 H3493 0.931 . S
C3507 C3506 1.385 . S
C3507 C3508 1.389 . S
C3508 C3507 1.389 . S
C3508 C3509 1.387 . S
C3509 H3494 0.930 . S
C3509 C3504 1.390 . S
C3509 C3508 1.387 . S
H3510 C3522 0.930 . S
H3511 C3524 0.930 . S
H3512 C3525 0.930 . S
H3513 C3529 0.959 . S
H3514 C3529 0.959 . S
H3515 C3529 0.961 1_565 S
H3516 C3530 0.960 . S
H3517 C3530 0.961 . S
H3518 C3530 0.959 . S
H3519 C3533 0.929 . S
H3520 C3534 0.931 . S
H3521 C3536 0.930 . S
C3522 H3510 0.930 . S
C3522 C3523 1.399 . S
C3522 C3527 1.399 . S
C3523 C3522 1.399 . S
C3523 C3524 1.376 . S
C3524 H3511 0.930 . S
C3524 C3523 1.376 . S
C3524 C3525 1.388 . S
C3525 H3512 0.930 . S
C3525 C3524 1.388 . S
C3525 C3526 1.390 . S
C3526 C3525 1.390 . S
C3526 C3527 1.394 . S
C3526 C3532 1.465 . S
C3527 C3522 1.399 . S
C3527 C3526 1.394 . S
C3527 C3528 1.516 . S
C3528 C3527 1.516 . S
C3528 C3529 1.502 . S
C3528 C3530 1.561 . S
C3528 C3531 1.526 . S
C3529 H3513 0.959 . S
C3529 H3514 0.959 . S
C3529 H3515 0.961 1_545 S
C3529 C3528 1.502 . S
C3530 H3516 0.960 . S
C3530 H3517 0.961 . S
C3530 H3518 0.959 . S
C3530 C3528 1.561 . S
C3531 C3528 1.526 . S
C3531 C3532 1.396 . S
C3531 C3536 1.390 . S
C3532 C3526 1.465 . S
C3532 C3531 1.396 . S
C3532 C3533 1.399 . S
C3533 H3519 0.929 . S
C3533 C3532 1.399 . S
C3533 C3534 1.385 . S
C3534 H3520 0.931 . S
C3534 C3533 1.385 . S
C3534 C3535 1.389 . S
C3535 C3534 1.389 . S
C3535 C3536 1.387 . S
C3536 H3521 0.930 . S
C3536 C3531 1.390 . S
C3536 C3535 1.387 . S
H3537 C3549 0.930 . S
H3538 C3551 0.930 . S
H3539 C3552 0.930 . S
H3540 C3556 0.959 . S
H3541 C3556 0.959 . S
H3542 C3556 0.961 . S
H3543 C3557 0.960 . S
H3544 C3557 0.961 . S
H3545 C3557 0.959 . S
H3546 C3560 0.929 . S
H3547 C3561 0.931 . S
H3548 C3563 0.930 . S
C3549 H3537 0.930 . S
C3549 C3550 1.399 . S
C3549 C3554 1.399 . S
C3550 C3549 1.399 . S
C3550 C3551 1.376 . S
C3551 H3538 0.930 . S
C3551 C3550 1.376 . S
C3551 C3552 1.388 . S
C3552 H3539 0.930 . S
C3552 C3551 1.388 . S
C3552 C3553 1.390 . S
C3553 C3552 1.390 . S
C3553 C3554 1.394 . S
C3553 C3559 1.465 . S
C3554 C3549 1.399 . S
C3554 C3553 1.394 . S
C3554 C3555 1.516 . S
C3555 C3554 1.516 . S
C3555 C3556 1.502 . S
C3555 C3557 1.561 . S
C3555 C3558 1.526 . S
C3556 H3540 0.959 . S
C3556 H3541 0.959 . S
C3556 H3542 0.961 . S
C3556 C3555 1.502 . S
C3557 H3543 0.960 . S
C3557 H3544 0.961 . S
C3557 H3545 0.959 . S
C3557 C3555 1.561 . S
C3558 C3555 1.526 . S
C3558 C3559 1.396 . S
C3558 C3563 1.390 . S
C3559 C3553 1.465 . S
C3559 C3558 1.396 . S
C3559 C3560 1.399 . S
C3560 H3546 0.929 . S
C3560 C3559 1.399 . S
C3560 C3561 1.385 . S
C3561 H3547 0.931 . S
C3561 C3560 1.385 . S
C3561 C3562 1.389 . S
C3562 C3561 1.389 . S
C3562 C3563 1.387 . S
C3563 H3548 0.930 . S
C3563 C3558 1.390 . S
C3563 C3562 1.387 . S
H3564 C3576 0.930 . S
H3565 C3578 0.930 . S
H3566 C3579 0.930 . S
H3567 C3583 0.959 . S
H3568 C3583 0.959 . S
H3569 C3583 0.961 . S
H3570 C3584 0.960 . S
H3571 C3584 0.961 . S
H3572 C3584 0.959 . S
H3573 C3587 0.929 . S
H3574 C3588 0.931 . S
H3575 C3590 0.930 . S
C3576 H3564 0.930 . S
C3576 C3577 1.399 . S
C3576 C3581 1.399 . S
C3577 C3576 1.399 . S
C3577 C3578 1.376 . S
C3578 H3565 0.930 . S
C3578 C3577 1.376 . S
C3578 C3579 1.388 . S
C3579 H3566 0.930 . S
C3579 C3578 1.388 . S
C3579 C3580 1.390 . S
C3580 C3579 1.390 . S
C3580 C3581 1.394 . S
C3580 C3586 1.465 . S
C3581 C3576 1.399 . S
C3581 C3580 1.394 . S
C3581 C3582 1.516 . S
C3582 C3581 1.516 . S
C3582 C3583 1.502 . S
C3582 C3584 1.561 . S
C3582 C3585 1.526 . S
C3583 H3567 0.959 . S
C3583 H3568 0.959 . S
C3583 H3569 0.961 . S
C3583 C3582 1.502 . S
C3584 H3570 0.960 . S
C3584 H3571 0.961 . S
C3584 H3572 0.959 . S
C3584 C3582 1.561 . S
C3585 C3582 1.526 . S
C3585 C3586 1.396 . S
C3585 C3590 1.390 . S
C3586 C3580 1.465 . S
C3586 C3585 1.396 . S
C3586 C3587 1.399 . S
C3587 H3573 0.929 . S
C3587 C3586 1.399 . S
C3587 C3588 1.385 . S
C3588 H3574 0.931 . S
C3588 C3587 1.385 . S
C3588 C3589 1.389 . S
C3589 C3588 1.389 . S
C3589 C3590 1.387 . S
C3590 H3575 0.930 . S
C3590 C3585 1.390 . S
C3590 C3589 1.387 . S
H3591 C3603 0.930 . S
H3592 C3605 0.930 . S
H3593 C3606 0.930 . S
H3594 C3610 0.959 . S
H3595 C3610 0.959 . S
H3596 C3610 0.961 . S
H3597 C3611 0.960 . S
H3598 C3611 0.961 . S
H3599 C3611 0.959 . S
H3600 C3614 0.929 . S
H3601 C3615 0.931 . S
H3602 C3617 0.930 . S
C3603 H3591 0.930 . S
C3603 C3604 1.399 . S
C3603 C3608 1.399 . S
C3604 C3603 1.399 . S
C3604 C3605 1.376 . S
C3605 H3592 0.930 . S
C3605 C3604 1.376 . S
C3605 C3606 1.388 . S
C3606 H3593 0.930 . S
C3606 C3605 1.388 . S
C3606 C3607 1.390 . S
C3607 C3606 1.390 . S
C3607 C3608 1.394 . S
C3607 C3613 1.465 . S
C3608 C3603 1.399 . S
C3608 C3607 1.394 . S
C3608 C3609 1.516 . S
C3609 C3608 1.516 . S
C3609 C3610 1.502 . S
C3609 C3611 1.561 . S
C3609 C3612 1.526 . S
C3610 H3594 0.959 . S
C3610 H3595 0.959 . S
C3610 H3596 0.961 . S
C3610 C3609 1.502 . S
C3611 H3597 0.960 . S
C3611 H3598 0.961 . S
C3611 H3599 0.959 . S
C3611 C3609 1.561 . S
C3612 C3609 1.526 . S
C3612 C3613 1.396 . S
C3612 C3617 1.390 . S
C3613 C3607 1.465 . S
C3613 C3612 1.396 . S
C3613 C3614 1.399 . S
C3614 H3600 0.929 . S
C3614 C3613 1.399 . S
C3614 C3615 1.385 . S
C3615 H3601 0.931 . S
C3615 C3614 1.385 . S
C3615 C3616 1.389 . S
C3616 C3615 1.389 . S
C3616 C3617 1.387 . S
C3617 H3602 0.930 . S
C3617 C3612 1.390 . S
C3617 C3616 1.387 . S
H3618 C3630 0.930 . S
H3619 C3632 0.930 . S
H3620 C3633 0.930 . S
H3621 C3637 0.959 . S
H3622 C3637 0.959 . S
H3623 C3637 0.961 . S
H3624 C3638 0.960 . S
H3625 C3638 0.961 . S
H3626 C3638 0.959 . S
H3627 C3641 0.929 . S
H3628 C3642 0.931 . S
H3629 C3644 0.930 . S
C3630 H3618 0.930 . S
C3630 C3631 1.399 . S
C3630 C3635 1.399 . S
C3631 C3630 1.399 . S
C3631 C3632 1.376 . S
C3632 H3619 0.930 . S
C3632 C3631 1.376 . S
C3632 C3633 1.388 . S
C3633 H3620 0.930 . S
C3633 C3632 1.388 . S
C3633 C3634 1.390 . S
C3634 C3633 1.390 . S
C3634 C3635 1.394 . S
C3634 C3640 1.465 . S
C3635 C3630 1.399 . S
C3635 C3634 1.394 . S
C3635 C3636 1.516 . S
C3636 C3635 1.516 . S
C3636 C3637 1.502 . S
C3636 C3638 1.561 . S
C3636 C3639 1.526 . S
C3637 H3621 0.959 . S
C3637 H3622 0.959 . S
C3637 H3623 0.961 . S
C3637 C3636 1.502 . S
C3638 H3624 0.960 . S
C3638 H3625 0.961 . S
C3638 H3626 0.959 . S
C3638 C3636 1.561 . S
C3639 C3636 1.526 . S
C3639 C3640 1.396 . S
C3639 C3644 1.390 . S
C3640 C3634 1.465 . S
C3640 C3639 1.396 . S
C3640 C3641 1.399 . S
C3641 H3627 0.929 . S
C3641 C3640 1.399 . S
C3641 C3642 1.385 . S
C3642 H3628 0.931 . S
C3642 C3641 1.385 . S
C3642 C3643 1.389 . S
C3643 C3642 1.389 . S
C3643 C3644 1.387 . S
C3644 H3629 0.930 . S
C3644 C3639 1.390 . S
C3644 C3643 1.387 . S
H3645 C3657 0.930 . S
H3646 C3659 0.930 . S
H3647 C3660 0.930 . S
H3648 C3664 0.959 . S
H3649 C3664 0.959 . S
H3650 C3664 0.961 . S
H3651 C3665 0.960 . S
H3652 C3665 0.961 . S
H3653 C3665 0.959 . S
H3654 C3668 0.929 . S
H3655 C3669 0.931 1_556 S
H3656 C3671 0.930 . S
C3657 H3645 0.930 . S
C3657 C3658 1.399 . S
C3657 C3662 1.399 . S
C3658 C3657 1.399 . S
C3658 C3659 1.376 . S
C3659 H3646 0.930 . S
C3659 C3658 1.376 . S
C3659 C3660 1.388 . S
C3660 H3647 0.930 . S
C3660 C3659 1.388 . S
C3660 C3661 1.390 . S
C3661 C3660 1.390 . S
C3661 C3662 1.394 . S
C3661 C3667 1.465 . S
C3662 C3657 1.399 . S
C3662 C3661 1.394 . S
C3662 C3663 1.516 . S
C3663 C3662 1.516 . S
C3663 C3664 1.502 . S
C3663 C3665 1.561 . S
C3663 C3666 1.526 . S
C3664 H3648 0.959 . S
C3664 H3649 0.959 . S
C3664 H3650 0.961 . S
C3664 C3663 1.502 . S
C3665 H3651 0.960 . S
C3665 H3652 0.961 . S
C3665 H3653 0.959 . S
C3665 C3663 1.561 . S
C3666 C3663 1.526 . S
C3666 C3667 1.396 . S
C3666 C3671 1.390 . S
C3667 C3661 1.465 . S
C3667 C3666 1.396 . S
C3667 C3668 1.399 . S
C3668 H3654 0.929 . S
C3668 C3667 1.399 . S
C3668 C3669 1.385 . S
C3669 H3655 0.931 1_554 S
C3669 C3668 1.385 . S
C3669 C3670 1.389 . S
C3670 C3669 1.389 . S
C3670 C3671 1.387 . S
C3671 H3656 0.930 . S
C3671 C3666 1.390 . S
C3671 C3670 1.387 . S
H3672 C3684 0.930 . S
H3673 C3686 0.930 . S
H3674 C3687 0.930 . S
H3675 C3691 0.959 . S
H3676 C3691 0.959 . S
H3677 C3691 0.961 . S
H3678 C3692 0.960 . S
H3679 C3692 0.961 . S
H3680 C3692 0.959 . S
H3681 C3695 0.929 . S
H3682 C3696 0.931 . S
H3683 C3698 0.930 . S
C3684 H3672 0.930 . S
C3684 C3685 1.399 . S
C3684 C3689 1.399 . S
C3685 C3684 1.399 . S
C3685 C3686 1.376 . S
C3686 H3673 0.930 . S
C3686 C3685 1.376 . S
C3686 C3687 1.388 . S
C3687 H3674 0.930 . S
C3687 C3686 1.388 . S
C3687 C3688 1.390 . S
C3688 C3687 1.390 . S
C3688 C3689 1.394 . S
C3688 C3694 1.465 . S
C3689 C3684 1.399 . S
C3689 C3688 1.394 . S
C3689 C3690 1.516 . S
C3690 C3689 1.516 . S
C3690 C3691 1.502 . S
C3690 C3692 1.561 . S
C3690 C3693 1.526 . S
C3691 H3675 0.959 . S
C3691 H3676 0.959 . S
C3691 H3677 0.961 . S
C3691 C3690 1.502 . S
C3692 H3678 0.960 . S
C3692 H3679 0.961 . S
C3692 H3680 0.959 . S
C3692 C3690 1.561 . S
C3693 C3690 1.526 . S
C3693 C3694 1.396 . S
C3693 C3698 1.390 . S
C3694 C3688 1.465 . S
C3694 C3693 1.396 . S
C3694 C3695 1.399 . S
C3695 H3681 0.929 . S
C3695 C3694 1.399 . S
C3695 C3696 1.385 . S
C3696 H3682 0.931 . S
C3696 C3695 1.385 . S
C3696 C3697 1.389 . S
C3697 C3696 1.389 . S
C3697 C3698 1.387 . S
C3698 H3683 0.930 . S
C3698 C3693 1.390 . S
C3698 C3697 1.387 . S
H3699 C3711 0.930 . S
H3700 C3713 0.930 . S
H3701 C3714 0.930 . S
H3702 C3718 0.959 . S
H3703 C3718 0.959 . S
H3704 C3718 0.961 . S
H3705 C3719 0.960 . S
H3706 C3719 0.961 . S
H3707 C3719 0.959 . S
H3708 C3722 0.929 . S
H3709 C3723 0.931 . S
H3710 C3725 0.930 . S
C3711 H3699 0.930 . S
C3711 C3712 1.399 . S
C3711 C3716 1.399 . S
C3712 C3711 1.399 . S
C3712 C3713 1.376 . S
C3713 H3700 0.930 . S
C3713 C3712 1.376 . S
C3713 C3714 1.388 . S
C3714 H3701 0.930 . S
C3714 C3713 1.388 . S
C3714 C3715 1.390 . S
C3715 C3714 1.390 . S
C3715 C3716 1.394 . S
C3715 C3721 1.465 . S
C3716 C3711 1.399 . S
C3716 C3715 1.394 . S
C3716 C3717 1.516 . S
C3717 C3716 1.516 . S
C3717 C3718 1.502 . S
C3717 C3719 1.561 . S
C3717 C3720 1.526 . S
C3718 H3702 0.959 . S
C3718 H3703 0.959 . S
C3718 H3704 0.961 . S
C3718 C3717 1.502 . S
C3719 H3705 0.960 . S
C3719 H3706 0.961 . S
C3719 H3707 0.959 . S
C3719 C3717 1.561 . S
C3720 C3717 1.526 . S
C3720 C3721 1.396 . S
C3720 C3725 1.390 . S
C3721 C3715 1.465 . S
C3721 C3720 1.396 . S
C3721 C3722 1.399 . S
C3722 H3708 0.929 . S
C3722 C3721 1.399 . S
C3722 C3723 1.385 . S
C3723 H3709 0.931 . S
C3723 C3722 1.385 . S
C3723 C3724 1.389 . S
C3724 C3723 1.389 . S
C3724 C3725 1.387 . S
C3725 H3710 0.930 . S
C3725 C3720 1.390 . S
C3725 C3724 1.387 . S
H3726 C3738 0.930 . S
H3727 C3740 0.930 . S
H3728 C3741 0.930 . S
H3729 C3745 0.959 . S
H3730 C3745 0.959 . S
H3731 C3745 0.961 . S
H3732 C3746 0.960 . S
H3733 C3746 0.961 . S
H3734 C3746 0.959 . S
H3735 C3749 0.929 . S
H3736 C3750 0.931 . S
H3737 C3752 0.930 . S
C3738 H3726 0.930 . S
C3738 C3739 1.399 . S
C3738 C3743 1.399 . S
C3739 C3738 1.399 . S
C3739 C3740 1.376 . S
C3740 H3727 0.930 . S
C3740 C3739 1.376 . S
C3740 C3741 1.388 . S
C3741 H3728 0.930 . S
C3741 C3740 1.388 . S
C3741 C3742 1.390 . S
C3742 C3741 1.390 . S
C3742 C3743 1.394 . S
C3742 C3748 1.465 . S
C3743 C3738 1.399 . S
C3743 C3742 1.394 . S
C3743 C3744 1.516 . S
C3744 C3743 1.516 . S
C3744 C3745 1.502 . S
C3744 C3746 1.561 . S
C3744 C3747 1.526 . S
C3745 H3729 0.959 . S
C3745 H3730 0.959 . S
C3745 H3731 0.961 . S
C3745 C3744 1.502 . S
C3746 H3732 0.960 . S
C3746 H3733 0.961 . S
C3746 H3734 0.959 . S
C3746 C3744 1.561 . S
C3747 C3744 1.526 . S
C3747 C3748 1.396 . S
C3747 C3752 1.390 . S
C3748 C3742 1.465 . S
C3748 C3747 1.396 . S
C3748 C3749 1.399 . S
C3749 H3735 0.929 . S
C3749 C3748 1.399 . S
C3749 C3750 1.385 . S
C3750 H3736 0.931 . S
C3750 C3749 1.385 . S
C3750 C3751 1.389 . S
C3751 C3750 1.389 . S
C3751 C3752 1.387 . S
C3752 H3737 0.930 . S
C3752 C3747 1.390 . S
C3752 C3751 1.387 . S
H3753 C3765 0.930 . S
H3754 C3767 0.930 . S
H3755 C3768 0.930 . S
H3756 C3772 0.959 . S
H3757 C3772 0.959 . S
H3758 C3772 0.961 . S
H3759 C3773 0.960 . S
H3760 C3773 0.961 . S
H3761 C3773 0.959 . S
H3762 C3776 0.929 . S
H3763 C3777 0.931 . S
H3764 C3779 0.930 . S
C3765 H3753 0.930 . S
C3765 C3766 1.399 . S
C3765 C3770 1.399 . S
C3766 C3765 1.399 . S
C3766 C3767 1.376 . S
C3767 H3754 0.930 . S
C3767 C3766 1.376 . S
C3767 C3768 1.388 . S
C3768 H3755 0.930 . S
C3768 C3767 1.388 . S
C3768 C3769 1.390 . S
C3769 C3768 1.390 . S
C3769 C3770 1.394 . S
C3769 C3775 1.465 . S
C3770 C3765 1.399 . S
C3770 C3769 1.394 . S
C3770 C3771 1.516 . S
C3771 C3770 1.516 . S
C3771 C3772 1.502 . S
C3771 C3773 1.561 . S
C3771 C3774 1.526 . S
C3772 H3756 0.959 . S
C3772 H3757 0.959 . S
C3772 H3758 0.961 . S
C3772 C3771 1.502 . S
C3773 H3759 0.960 . S
C3773 H3760 0.961 . S
C3773 H3761 0.959 . S
C3773 C3771 1.561 . S
C3774 C3771 1.526 . S
C3774 C3775 1.396 . S
C3774 C3779 1.390 . S
C3775 C3769 1.465 . S
C3775 C3774 1.396 . S
C3775 C3776 1.399 . S
C3776 H3762 0.929 . S
C3776 C3775 1.399 . S
C3776 C3777 1.385 . S
C3777 H3763 0.931 . S
C3777 C3776 1.385 . S
C3777 C3778 1.389 . S
C3778 C3777 1.389 . S
C3778 C3779 1.387 . S
C3779 H3764 0.930 . S
C3779 C3774 1.390 . S
C3779 C3778 1.387 . S
H3780 C3792 0.930 . S
H3781 C3794 0.930 . S
H3782 C3795 0.930 . S
H3783 C3799 0.959 . S
H3784 C3799 0.959 . S
H3785 C3799 0.961 . S
H3786 C3800 0.960 . S
H3787 C3800 0.961 . S
H3788 C3800 0.959 . S
H3789 C3803 0.929 . S
H3790 C3804 0.931 . S
H3791 C3806 0.930 . S
C3792 H3780 0.930 . S
C3792 C3793 1.399 . S
C3792 C3797 1.399 . S
C3793 C3792 1.399 . S
C3793 C3794 1.376 . S
C3794 H3781 0.930 . S
C3794 C3793 1.376 . S
C3794 C3795 1.388 . S
C3795 H3782 0.930 . S
C3795 C3794 1.388 . S
C3795 C3796 1.390 . S
C3796 C3795 1.390 . S
C3796 C3797 1.394 . S
C3796 C3802 1.465 . S
C3797 C3792 1.399 . S
C3797 C3796 1.394 . S
C3797 C3798 1.516 . S
C3798 C3797 1.516 . S
C3798 C3799 1.502 . S
C3798 C3800 1.561 . S
C3798 C3801 1.526 . S
C3799 H3783 0.959 . S
C3799 H3784 0.959 . S
C3799 H3785 0.961 . S
C3799 C3798 1.502 . S
C3800 H3786 0.960 . S
C3800 H3787 0.961 . S
C3800 H3788 0.959 . S
C3800 C3798 1.561 . S
C3801 C3798 1.526 . S
C3801 C3802 1.396 . S
C3801 C3806 1.390 . S
C3802 C3796 1.465 . S
C3802 C3801 1.396 . S
C3802 C3803 1.399 . S
C3803 H3789 0.929 . S
C3803 C3802 1.399 . S
C3803 C3804 1.385 . S
C3804 H3790 0.931 . S
C3804 C3803 1.385 . S
C3804 C3805 1.389 . S
C3805 C3804 1.389 . S
C3805 C3806 1.387 . S
C3806 H3791 0.930 . S
C3806 C3801 1.390 . S
C3806 C3805 1.387 . S
H3807 C3819 0.930 . S
H3808 C3821 0.930 1_565 S
H3809 C3822 0.930 . S
H3810 C3826 0.959 . S
H3811 C3826 0.959 . S
H3812 C3826 0.961 . S
H3813 C3827 0.960 . S
H3814 C3827 0.961 . S
H3815 C3827 0.959 . S
H3816 C3830 0.929 . S
H3817 C3831 0.931 . S
H3818 C3833 0.930 . S
C3819 H3807 0.930 . S
C3819 C3820 1.399 . S
C3819 C3824 1.399 . S
C3820 C3819 1.399 . S
C3820 C3821 1.376 . S
C3821 H3808 0.930 1_545 S
C3821 C3820 1.376 . S
C3821 C3822 1.388 . S
C3822 H3809 0.930 . S
C3822 C3821 1.388 . S
C3822 C3823 1.390 . S
C3823 C3822 1.390 . S
C3823 C3824 1.394 . S
C3823 C3829 1.465 . S
C3824 C3819 1.399 . S
C3824 C3823 1.394 . S
C3824 C3825 1.516 . S
C3825 C3824 1.516 . S
C3825 C3826 1.502 . S
C3825 C3827 1.561 . S
C3825 C3828 1.526 . S
C3826 H3810 0.959 . S
C3826 H3811 0.959 . S
C3826 H3812 0.961 . S
C3826 C3825 1.502 . S
C3827 H3813 0.960 . S
C3827 H3814 0.961 . S
C3827 H3815 0.959 . S
C3827 C3825 1.561 . S
C3828 C3825 1.526 . S
C3828 C3829 1.396 . S
C3828 C3833 1.390 . S
C3829 C3823 1.465 . S
C3829 C3828 1.396 . S
C3829 C3830 1.399 . S
C3830 H3816 0.929 . S
C3830 C3829 1.399 . S
C3830 C3831 1.385 . S
C3831 H3817 0.931 . S
C3831 C3830 1.385 . S
C3831 C3832 1.389 . S
C3832 C3831 1.389 . S
C3832 C3833 1.387 . S
C3833 H3818 0.930 . S
C3833 C3828 1.390 . S
C3833 C3832 1.387 . S
H3834 C3846 0.930 . S
H3835 C3848 0.930 . S
H3836 C3849 0.930 . S
H3837 C3853 0.959 . S
H3838 C3853 0.959 . S
H3839 C3853 0.961 . S
H3840 C3854 0.960 . S
H3841 C3854 0.961 . S
H3842 C3854 0.959 . S
H3843 C3857 0.929 . S
H3844 C3858 0.931 . S
H3845 C3860 0.930 . S
C3846 H3834 0.930 . S
C3846 C3847 1.399 . S
C3846 C3851 1.399 . S
C3847 C3846 1.399 . S
C3847 C3848 1.376 . S
C3848 H3835 0.930 . S
C3848 C3847 1.376 . S
C3848 C3849 1.388 . S
C3849 H3836 0.930 . S
C3849 C3848 1.388 . S
C3849 C3850 1.390 . S
C3850 C3849 1.390 . S
C3850 C3851 1.394 . S
C3850 C3856 1.465 . S
C3851 C3846 1.399 . S
C3851 C3850 1.394 . S
C3851 C3852 1.516 . S
C3852 C3851 1.516 . S
C3852 C3853 1.502 . S
C3852 C3854 1.561 . S
C3852 C3855 1.526 . S
C3853 H3837 0.959 . S
C3853 H3838 0.959 . S
C3853 H3839 0.961 . S
C3853 C3852 1.502 . S
C3854 H3840 0.960 . S
C3854 H3841 0.961 . S
C3854 H3842 0.959 . S
C3854 C3852 1.561 . S
C3855 C3852 1.526 . S
C3855 C3856 1.396 . S
C3855 C3860 1.390 . S
C3856 C3850 1.465 . S
C3856 C3855 1.396 . S
C3856 C3857 1.399 . S
C3857 H3843 0.929 . S
C3857 C3856 1.399 . S
C3857 C3858 1.385 . S
C3858 H3844 0.931 . S
C3858 C3857 1.385 . S
C3858 C3859 1.389 . S
C3859 C3858 1.389 . S
C3859 C3860 1.387 . S
C3860 H3845 0.930 . S
C3860 C3855 1.390 . S
C3860 C3859 1.387 . S
H3861 C3873 0.930 . S
H3862 C3875 0.930 . S
H3863 C3876 0.930 . S
H3864 C3880 0.959 . S
H3865 C3880 0.959 . S
H3866 C3880 0.961 . S
H3867 C3881 0.960 . S
H3868 C3881 0.961 . S
H3869 C3881 0.959 . S
H3870 C3884 0.929 . S
H3871 C3885 0.931 . S
H3872 C3887 0.930 . S
C3873 H3861 0.930 . S
C3873 C3874 1.399 . S
C3873 C3878 1.399 . S
C3874 C3873 1.399 . S
C3874 C3875 1.376 . S
C3875 H3862 0.930 . S
C3875 C3874 1.376 . S
C3875 C3876 1.388 . S
C3876 H3863 0.930 . S
C3876 C3875 1.388 . S
C3876 C3877 1.390 . S
C3877 C3876 1.390 . S
C3877 C3878 1.394 . S
C3877 C3883 1.465 . S
C3878 C3873 1.399 . S
C3878 C3877 1.394 . S
C3878 C3879 1.516 . S
C3879 C3878 1.516 . S
C3879 C3880 1.502 . S
C3879 C3881 1.561 . S
C3879 C3882 1.526 . S
C3880 H3864 0.959 . S
C3880 H3865 0.959 . S
C3880 H3866 0.961 . S
C3880 C3879 1.502 . S
C3881 H3867 0.960 . S
C3881 H3868 0.961 . S
C3881 H3869 0.959 . S
C3881 C3879 1.561 . S
C3882 C3879 1.526 . S
C3882 C3883 1.396 . S
C3882 C3887 1.390 . S
C3883 C3877 1.465 . S
C3883 C3882 1.396 . S
C3883 C3884 1.399 . S
C3884 H3870 0.929 . S
C3884 C3883 1.399 . S
C3884 C3885 1.385 . S
C3885 H3871 0.931 . S
C3885 C3884 1.385 . S
C3885 C3886 1.389 . S
C3886 C3885 1.389 . S
C3886 C3887 1.387 . S
C3887 H3872 0.930 . S
C3887 C3882 1.390 . S
C3887 C3886 1.387 . S
C1309 C977 0.774 . S
C1321 C5 0.864 . S
C1336 C76 0.817 . S
C1348 C1031 0.787 . S
C1363 C886 0.824 . S
C1375 C113 0.910 . S
C1390 C184 0.881 . S
C1402 C923 0.910 . S
C1417 C1193 0.890 . S
C1429 C238 0.902 . S
C1444 C1139 0.798 . S
C1456 C275 0.805 . S
C1471 C1264 0.892 . S
C1483 C329 0.901 . S
C1498 C1085 0.905 . S
C1510 C400 0.890 . S
C1525 C454 0.908 . S
C1537 C707 0.879 . S
C1552 C815 0.899 . S
C1564 C491 0.895 . S
C1579 C562 0.786 . S
C1591 C778 0.837 . S
C1606 C670 0.773 . S
C1618 C616 0.847 . S
C1633 C346 0.800 . S
C1645 C653 0.837 . S
C1660 C383 0.886 . S
C1672 C724 0.787 . S
C1687 C221 0.888 . S
C1699 C761 0.875 . S
C1714 C832 0.803 . S
C1726 C292 0.916 . S
C1741 C545 0.775 . S
C1753 C869 0.898 . S
C1768 C940 0.881 . S
C1780 C508 0.882 . S
C1795 C599 0.777 . S
C1807 C994 0.902 . S
C1822 C437 0.774 . S
C1834 C1048 0.896 . S
C1849 C1102 0.828 . S
C1861 C59 0.810 . S
C1876 C167 0.875 . S
C1888 C1156 0.886 . S
C1903 C1210 0.860 . S
C1915 C130 0.900 . S
C1930 C1247 0.858 . S
C1942 C22 0.901 . S
C1957 C445 1.813 . S
C1969 C28 2.075 . S
C1984 C89 2.067 . S
C1996 C607 1.819 . S
C2011 C136 2.075 . S
C2023 C518 1.811 . S
C2038 C197 2.028 . S
C2050 C553 1.909 . S
C2065 C251 2.068 . S
C2077 C32 1.838 . S
C2092 C298 2.053 . S
C2104 C67 1.844 . S
C2119 C140 1.810 . S
C2131 C352 2.075 . S
C2146 C413 2.060 . S
C2158 C175 1.832 . S
C2173 C229 1.910 . S
C2185 C467 2.029 . S
C2200 C514 2.051 . S
C2212 C356 1.848 . S
C2227 C391 1.813 . S
C2239 C575 2.070 . S
C2254 C302 1.817 . S
C2266 C629 2.074 . S
C2281 C1093 1.910 . S
C2293 C676 2.028 . S
C2308 C737 2.053 . S
C2320 C1274 1.840 . S
C2335 C1147 1.811 . S
C2347 C784 2.072 . S
C2362 C845 2.064 . S
C2374 C1201 1.850 . S
C2389 C680 1.854 . S
C2401 C892 2.046 . S
C2416 C715 1.857 . S
C2428 C953 2.045 . S
C2443 C1007 2.076 . S
C2455 C788 1.813 . S
C2470 C823 1.856 . S
C2482 C1061 2.062 . S
C2497 C896 1.873 . S
C2509 C1115 2.054 . S
C2524 C1169 2.030 . S
C2536 C985 1.909 . S
C2551 C1223 2.028 . S
C2563 C1039 1.910 . S
C2578 C1270 2.027 . S
C2590 C931 1.899 . S
C2605 C27 1.062 . S
C2617 C622 0.994 . S
C2632 C460 0.947 . S
C2644 C64 1.001 . S
C2659 C135 1.063 . S
C2671 C568 1.011 . S
C2686 C172 1.058 . S
C2698 C521 0.959 . S
C2713 C143 1.059 . S
C2725 C226 1.018 . S
C2740 C190 1.042 . S
C2752 C297 1.001 . S
C2767 C35 1.030 . S
C2779 C351 0.995 . S
C2794 C388 1.038 . S
C2806 C82 0.947 . S
C2821 C406 1.057 . S
C2833 C442 1.047 . S
C2848 C513 0.987 . S
C2860 C305 0.988 . S
C2875 C244 0.956 . S
C2887 C550 1.061 . S
C2902 C604 1.029 . S
C2914 C359 1.062 . S
C2929 C1277 1.044 . S
C2941 C675 1.039 . S
C2956 C1108 1.046 . S
C2968 C712 0.989 . S
C2983 C1216 1.017 . S
C2995 C783 0.988 . S
C3010 C1162 1.040 . S
C3022 C820 0.988 . S
C3037 C891 0.996 . S
C3049 C791 1.057 . S
C3064 C928 0.998 . S
C3076 C838 1.059 . S
C3091 C982 1.027 . S
C3103 C683 0.945 . S
C3118 C1036 1.016 . S
C3130 C730 1.061 . S
C3145 C1054 1.059 . S
C3157 C1090 1.022 . S
C3172 C946 1.030 . S
C3184 C1144 0.987 . S
C3199 C899 0.940 . S
C3211 C1198 1.055 . S
C3226 C1000 1.057 . S
C3238 C1269 0.995 . S
C3253 C1215 2.224 . S
C3265 C13 2.185 . S
C3280 C1161 2.221 . S
C3292 C86 2.177 . S
C3307 C121 2.196 . S
C3319 C1252 2.195 . S
C3334 C1107 2.222 . S
C3346 C194 2.177 . S
C3361 C248 2.212 . S
C3373 C729 2.191 . S
C3388 C658 2.196 . S
C3400 C283 2.193 . S
C3415 C337 2.178 . S
C3427 C837 2.223 . S
C3442 C410 2.176 . S
C3454 C766 2.221 . S
C3469 C999 2.223 . S
C3481 C464 2.178 . S
C3496 C874 2.209 . S
C3508 C499 2.209 . S
C3523 C572 2.178 . S
C3535 C945 2.223 . S
C3550 C626 2.176 . S
C3562 C1053 2.217 . S
C3577 C661 2.209 . S
C3589 C567 2.194 . S
C3604 C734 2.196 . S
C3616 C496 2.211 . S
C3631 C621 2.198 . S
C3643 C769 2.209 . S
C3658 C459 2.192 . S
C3670 C842 2.210 . S
C3685 C877 2.210 . S
C3697 C81 2.193 . S
C3712 C950 2.199 . S
C3724 C10 2.201 . S
C3739 C1004 2.187 . S
C3751 C189 2.218 . S
C3766 C1058 2.197 . S
C3778 C118 2.202 . S
C3793 C1112 2.202 . S
C3805 C334 2.206 . S
C3820 C1166 2.215 . S
C3832 C243 2.192 . S
C3847 C1220 2.188 . S
C3859 C280 2.210 . S
C3874 C405 2.223 . S
C3886 C1255 2.176 . S
