# Generated by pormake.
# Topology can, (4)-cn, num edge types: 1
# Building blocks:
#     Node 0, Type 0, BuildingBlock: CEKHIL_clean_sbu_0, # of connection points: 4
#     Node 1, Type 0, BuildingBlock: CEKHIL_clean_sbu_0, # of connection points: 4
#     Node 2, Type 0, BuildingBlock: CEKHIL_clean_sbu_0, # of connection points: 4
#     Node 3, Type 0, BuildingBlock: CEKHIL_clean_sbu_0, # of connection points: 4
#     Node 4, Type 0, BuildingBlock: CEKHIL_clean_sbu_0, # of connection points: 4
#     Node 5, Type 0, BuildingBlock: CEKHIL_clean_sbu_0, # of connection points: 4
#     Node 6, Type 0, BuildingBlock: CEKHIL_clean_sbu_0, # of connection points: 4
#     Node 7, Type 0, BuildingBlock: CEKHIL_clean_sbu_0, # of connection points: 4
#     Node 8, Type 0, BuildingBlock: CEKHIL_clean_sbu_0, # of connection points: 4
#     Node 9, Type 0, BuildingBlock: CEKHIL_clean_sbu_0, # of connection points: 4
#     Node 10, Type 0, BuildingBlock: CEKHIL_clean_sbu_0, # of connection points: 4
#     Node 11, Type 0, BuildingBlock: CEKHIL_clean_sbu_0, # of connection points: 4
#     Edge 12, Type (0, 0), BuildingBlock: UVAHIK_clean_linker_0, # of connection points: 2
#     Edge 13, Type (0, 0), BuildingBlock: UVAHIK_clean_linker_0, # of connection points: 2
#     Edge 14, Type (0, 0), BuildingBlock: UVAHIK_clean_linker_0, # of connection points: 2
#     Edge 15, Type (0, 0), BuildingBlock: UVAHIK_clean_linker_0, # of connection points: 2
#     Edge 16, Type (0, 0), BuildingBlock: UVAHIK_clean_linker_0, # of connection points: 2
#     Edge 17, Type (0, 0), BuildingBlock: UVAHIK_clean_linker_0, # of connection points: 2
#     Edge 18, Type (0, 0), BuildingBlock: UVAHIK_clean_linker_0, # of connection points: 2
#     Edge 19, Type (0, 0), BuildingBlock: UVAHIK_clean_linker_0, # of connection points: 2
#     Edge 20, Type (0, 0), BuildingBlock: UVAHIK_clean_linker_0, # of connection points: 2
#     Edge 21, Type (0, 0), BuildingBlock: UVAHIK_clean_linker_0, # of connection points: 2
#     Edge 22, Type (0, 0), BuildingBlock: UVAHIK_clean_linker_0, # of connection points: 2
#     Edge 23, Type (0, 0), BuildingBlock: UVAHIK_clean_linker_0, # of connection points: 2
#     Edge 24, Type (0, 0), BuildingBlock: UVAHIK_clean_linker_0, # of connection points: 2
#     Edge 25, Type (0, 0), BuildingBlock: UVAHIK_clean_linker_0, # of connection points: 2
#     Edge 26, Type (0, 0), BuildingBlock: UVAHIK_clean_linker_0, # of connection points: 2
#     Edge 27, Type (0, 0), BuildingBlock: UVAHIK_clean_linker_0, # of connection points: 2
#     Edge 28, Type (0, 0), BuildingBlock: UVAHIK_clean_linker_0, # of connection points: 2
#     Edge 29, Type (0, 0), BuildingBlock: UVAHIK_clean_linker_0, # of connection points: 2
#     Edge 30, Type (0, 0), BuildingBlock: UVAHIK_clean_linker_0, # of connection points: 2
#     Edge 31, Type (0, 0), BuildingBlock: UVAHIK_clean_linker_0, # of connection points: 2
#     Edge 32, Type (0, 0), BuildingBlock: UVAHIK_clean_linker_0, # of connection points: 2
#     Edge 33, Type (0, 0), BuildingBlock: UVAHIK_clean_linker_0, # of connection points: 2
#     Edge 34, Type (0, 0), BuildingBlock: UVAHIK_clean_linker_0, # of connection points: 2
#     Edge 35, Type (0, 0), BuildingBlock: UVAHIK_clean_linker_0, # of connection points: 2
# Relax obj value: 0.060
# Max RMSD: 0.044
# Mean RMSD: 0.044
data_MOF--net-can--node1-CEKHIL_clean_sbu_0--edge1-UVAHIK_clean_linker_0
_symmetry_space_group_name_H-M    P1
_symmetry_Int_Tables_number       1
_symmetry_cell_setting            triclinic
loop_
_symmetry_equiv_pos_as_xyz
'x, y, z'
_cell_length_a     70.276464
_cell_length_b     70.226934
_cell_length_c     35.596033
_cell_angle_alpha  90.039309
_cell_angle_beta   89.936762
_cell_angle_gamma 120.00838
loop_
_atom_site_label
_atom_site_type_symbol
_atom_site_fract_x
_atom_site_fract_y
_atom_site_fract_z
_atom_type_partial_charge
Co0 Co 0.06398 0.39167 0.25311 0.0
O1 O 0.07776 0.37389 0.25188 0.0
O2 O 0.09319 0.40834 0.23208 0.0
C3 C 0.05159 0.38345 0.31266 0.0
O4 O 0.05552 0.41552 0.25152 0.0
Co5 Co 0.01358 0.37079 0.26479 0.0
O6 O 0.02106 0.40172 0.27333 0.0
C7 C 0.03083 0.36668 0.1914 0.0
C8 C 0.09494 0.39103 0.23835 0.0
C9 C 0.03937 0.41787 0.26265 0.0
O10 O 0.05059 0.38051 0.20186 0.0
O11 O 0.01422 0.35924 0.21346 0.0
O12 O 0.07182 0.39838 0.30601 0.0
O13 O 0.04026 0.37274 0.28367 0.0
Co14 Co 0.67248 0.06204 0.75217 0.0
O15 O 0.70406 0.07583 0.7515 0.0
O16 O 0.68519 0.09128 0.73121 0.0
C17 C 0.66788 0.04954 0.81162 0.0
O18 O 0.64021 0.05374 0.75011 0.0
Co19 Co 0.64267 0.01158 0.76374 0.0
O20 O 0.61892 0.01878 0.7693 0.0
C21 C 0.66405 0.02875 0.69027 0.0
C22 C 0.7042 0.09304 0.73785 0.0
C23 C 0.62139 0.03733 0.75938 0.0
O24 O 0.67058 0.04864 0.70096 0.0
O25 O 0.65441 0.01214 0.71223 0.0
O26 O 0.67331 0.06983 0.80506 0.0
O27 O 0.66742 0.03824 0.78268 0.0
Co28 Co 0.61249 0.67324 0.25241 0.0
O29 O 0.63029 0.70484 0.25241 0.0
O30 O 0.59586 0.68612 0.23261 0.0
C31 C 0.62068 0.66817 0.31141 0.0
O32 O 0.58852 0.64094 0.2499 0.0
Co33 Co 0.6333 0.64345 0.26198 0.0
O34 O 0.60239 0.61961 0.26772 0.0
C35 C 0.63707 0.66536 0.18927 0.0
C36 C 0.61316 0.70509 0.23944 0.0
C37 C 0.58623 0.62208 0.25852 0.0
O38 O 0.62371 0.67172 0.20067 0.0
O39 O 0.64422 0.65565 0.21062 0.0
O40 O 0.60582 0.67366 0.30559 0.0
O41 O 0.63138 0.66798 0.28206 0.0
Co42 Co 0.93891 0.61076 0.75311 0.0
O43 O 0.92512 0.62853 0.75321 0.0
O44 O 0.90935 0.59403 0.73353 0.0
C45 C 0.9523 0.61903 0.81208 0.0
O46 O 0.9474 0.58695 0.75037 0.0
Co47 Co 0.98956 0.6322 0.76143 0.0
O48 O 0.98308 0.60133 0.76533 0.0
C49 C 0.9708 0.63578 0.68964 0.0
C50 C 0.90773 0.61138 0.74024 0.0
C51 C 0.96432 0.58497 0.75721 0.0
O52 O 0.95136 0.62171 0.70121 0.0
O53 O 0.98782 0.64373 0.71073 0.0
O54 O 0.93196 0.60412 0.80627 0.0
O55 O 0.96313 0.62981 0.78271 0.0
Co56 Co 0.33002 0.94066 0.25148 0.0
O57 O 0.29847 0.9271 0.25129 0.0
O58 O 0.31705 0.91142 0.23044 0.0
C59 C 0.33488 0.95312 0.31099 0.0
O60 O 0.36221 0.94873 0.2488 0.0
Co61 Co 0.36024 0.99106 0.26316 0.0
O62 O 0.38392 0.98369 0.26761 0.0
C63 C 0.33858 0.97408 0.18984 0.0
C64 C 0.29813 0.90982 0.23747 0.0
C65 C 0.38118 0.96506 0.25755 0.0
O66 O 0.33184 0.95414 0.20043 0.0
O67 O 0.34844 0.99066 0.21181 0.0
O68 O 0.32932 0.93281 0.30428 0.0
O69 O 0.33537 0.9645 0.28218 0.0
Co70 Co 0.38971 0.32877 0.75189 0.0
O71 O 0.37157 0.29722 0.75059 0.0
O72 O 0.40613 0.31586 0.73129 0.0
C73 C 0.38132 0.33312 0.81118 0.0
O74 O 0.41405 0.36095 0.75068 0.0
Co75 Co 0.36973 0.35916 0.7633 0.0
O76 O 0.40074 0.38237 0.77077 0.0
C77 C 0.36592 0.33819 0.68952 0.0
C78 C 0.38866 0.29691 0.73745 0.0
C79 C 0.41671 0.37974 0.76088 0.0
O80 O 0.37886 0.33121 0.70043 0.0
O81 O 0.35907 0.34797 0.71139 0.0
O82 O 0.39603 0.32745 0.80495 0.0
O83 O 0.37091 0.33396 0.78197 0.0
Co84 Co 0.61165 0.94028 0.23909 0.0
O85 O 0.62949 0.92656 0.24052 0.0
O86 O 0.59517 0.91125 0.26089 0.0
C87 C 0.61957 0.95221 0.17928 0.0
O88 O 0.58765 0.94858 0.24051 0.0
Co89 Co 0.63221 0.99062 0.22571 0.0
O90 O 0.60123 0.98329 0.22004 0.0
C91 C 0.6369 0.97429 0.29966 0.0
C92 C 0.61245 0.90947 0.25455 0.0
C93 C 0.5852 0.96486 0.23051 0.0
O94 O 0.62324 0.95429 0.28995 0.0
O95 O 0.64386 0.99055 0.27693 0.0
O96 O 0.60471 0.93198 0.18629 0.0
O97 O 0.63033 0.96375 0.20803 0.0
Co98 Co 0.67171 0.61092 0.73905 0.0
O99 O 0.70325 0.62922 0.73948 0.0
O100 O 0.68485 0.59525 0.76169 0.0
C101 C 0.667 0.61754 0.67881 0.0
O102 O 0.63963 0.58653 0.74187 0.0
Co103 Co 0.64103 0.63027 0.72459 0.0
O104 O 0.61753 0.59903 0.72183 0.0
C105 C 0.66255 0.63653 0.79851 0.0
C106 C 0.70371 0.61257 0.75435 0.0
C107 C 0.62055 0.58349 0.73288 0.0
O108 O 0.66947 0.62325 0.78929 0.0
O109 O 0.65272 0.64272 0.7755 0.0
O110 O 0.67275 0.60307 0.68669 0.0
O111 O 0.66621 0.62873 0.70692 0.0
Co112 Co 0.06307 0.6729 0.23914 0.0
O113 O 0.07679 0.70447 0.24026 0.0
O114 O 0.09245 0.68557 0.25938 0.0
C115 C 0.05018 0.66855 0.17992 0.0
O116 O 0.05473 0.64063 0.2407 0.0
Co117 Co 0.0126 0.64324 0.22896 0.0
O118 O 0.01999 0.61973 0.2204 0.0
C119 C 0.03046 0.66473 0.30195 0.0
C120 C 0.0941 0.7046 0.2533 0.0
C121 C 0.03845 0.62201 0.23031 0.0
O122 O 0.05012 0.67068 0.29082 0.0
O123 O 0.01365 0.65553 0.28039 0.0
O124 O 0.07049 0.67397 0.186 0.0
O125 O 0.03907 0.66796 0.20927 0.0
Co126 Co 0.39072 0.06208 0.73864 0.0
O127 O 0.37269 0.0756 0.73944 0.0
O128 O 0.40691 0.09117 0.76028 0.0
C129 C 0.38315 0.05 0.6789 0.0
O130 O 0.41485 0.05399 0.74081 0.0
Co131 Co 0.37057 0.01176 0.72571 0.0
O132 O 0.40164 0.01918 0.72115 0.0
C133 C 0.36537 0.02819 0.79929 0.0
C134 C 0.38959 0.09278 0.75354 0.0
C135 C 0.41751 0.03773 0.73157 0.0
O136 O 0.37895 0.04819 0.78948 0.0
O137 O 0.35861 0.01187 0.77671 0.0
O138 O 0.3979 0.07028 0.68586 0.0
O139 O 0.3723 0.03848 0.70762 0.0
Co140 Co 0.33074 0.39116 0.23902 0.0
O141 O 0.29919 0.37322 0.23941 0.0
O142 O 0.31788 0.40729 0.26107 0.0
C143 C 0.33539 0.38405 0.17905 0.0
O144 O 0.36298 0.41519 0.24169 0.0
Co145 Co 0.36073 0.3709 0.22552 0.0
O146 O 0.38448 0.40198 0.22155 0.0
C147 C 0.33894 0.36526 0.29905 0.0
C148 C 0.29893 0.39007 0.25385 0.0
C149 C 0.38187 0.41784 0.23236 0.0
O150 O 0.33262 0.37896 0.28954 0.0
O151 O 0.34852 0.35861 0.27632 0.0
O152 O 0.32994 0.3988 0.1865 0.0
O153 O 0.33591 0.3729 0.20743 0.0
Co154 Co 0.93983 0.32972 0.73905 0.0
O155 O 0.92601 0.29814 0.73985 0.0
O156 O 0.91027 0.31705 0.75865 0.0
C157 C 0.95324 0.3343 0.68016 0.0
O158 O 0.94832 0.36205 0.74066 0.0
Co159 Co 0.99049 0.35899 0.7302 0.0
O160 O 0.98374 0.38306 0.7238 0.0
C161 C 0.97179 0.33686 0.80229 0.0
C162 C 0.90862 0.29802 0.75252 0.0
C163 C 0.96507 0.3808 0.7322 0.0
O164 O 0.95234 0.33161 0.79102 0.0
O165 O 0.98872 0.34577 0.78094 0.0
O166 O 0.93289 0.32891 0.68576 0.0
O167 O 0.96404 0.33464 0.70972 0.0
C168 C 0.03981 0.3742 0.12292 0.0
C169 C 0.02652 0.35997 0.15149 0.0
C170 C 0.03395 0.36901 0.08516 0.0
C171 C 0.98508 0.33363 0.02592 0.0
H172 H 0.0286 0.35443 0.94651 0.0
C173 C 0.96249 0.33597 0.8705 0.0
C174 C 0.97542 0.33406 0.84233 0.0
C175 C 0.96805 0.33654 0.9084 0.0
C176 C 0.01614 0.34812 0.96823 0.0
H177 H 0.99748 0.32853 0.16293 0.0
H178 H 0.98784 0.31898 0.0973 0.0
H179 H 0.04044 0.35961 0.01149 0.0
H180 H 0.00338 0.3297 0.83172 0.0
H181 H 0.01243 0.32956 0.8976 0.0
H182 H 0.96076 0.3214 0.98265 0.0
C183 C 0.00228 0.33459 0.10382 0.0
C184 C 0.023 0.35147 0.00569 0.0
C185 C 0.00791 0.33996 0.14151 0.0
C186 C 0.99326 0.33147 0.85284 0.0
C187 C 0.99857 0.33161 0.89066 0.0
C188 C 0.97821 0.32998 0.98845 0.0
C189 C 0.01487 0.34929 0.0751 0.0
C190 C 0.00759 0.34453 0.03511 0.0
C191 C 0.98645 0.3348 0.91898 0.0
C192 C 0.99364 0.33741 0.95903 0.0
H193 H 0.05417 0.38982 0.12976 0.0
H194 H 0.04396 0.38093 0.06402 0.0
H195 H 0.97266 0.32831 0.04762 0.0
H196 H 0.94874 0.33817 0.86321 0.0
H197 H 0.95843 0.33928 0.9292 0.0
C198 C 0.63556 0.96313 0.36742 0.0
C199 C 0.64413 0.97942 0.33938 0.0
C200 C 0.64102 0.9688 0.40524 0.0
C201 C 0.65782 0.01563 0.46843 0.0
H202 H 0.67157 0.98212 0.53868 0.0
C203 C 0.67638 0.04144 0.62389 0.0
C204 C 0.66645 0.02432 0.65028 0.0
C205 C 0.67682 0.03675 0.58575 0.0
C206 C 0.6676 0.99157 0.51948 0.0
H207 H 0.66612 0.0143 0.32917 0.0
H208 H 0.67543 0.02397 0.39463 0.0
H209 H 0.66569 0.97156 0.47245 0.0
H210 H 0.64986 0.98881 0.65716 0.0
H211 H 0.65019 0.98076 0.59121 0.0
H212 H 0.65894 0.0352 0.51526 0.0
C213 C 0.66428 0.00691 0.3875 0.0
C214 C 0.66424 0.9855 0.48158 0.0
C215 C 0.65895 0.00129 0.3499 0.0
C216 C 0.65765 0.00249 0.63777 0.0
C217 C 0.65799 0.99782 0.59979 0.0
C218 C 0.66096 0.02158 0.5063 0.0
C219 C 0.65505 0.99085 0.41564 0.0
C220 C 0.65921 0.99742 0.45573 0.0
C221 C 0.66727 0.01484 0.57317 0.0
C222 C 0.66572 0.00953 0.5324 0.0
H223 H 0.62416 0.94614 0.36035 0.0
H224 H 0.63362 0.95608 0.42643 0.0
H225 H 0.65366 0.02496 0.44922 0.0
H226 H 0.68345 0.05844 0.63252 0.0
H227 H 0.68443 0.05029 0.56607 0.0
C228 C 0.63529 0.67684 0.12284 0.0
C229 C 0.64365 0.66796 0.1491 0.0
C230 C 0.64008 0.67723 0.08454 0.0
C231 C 0.67688 0.66997 0.01722 0.0
H232 H 0.62805 0.65236 0.94871 0.0
C233 C 0.67347 0.6368 0.86612 0.0
C234 C 0.66459 0.64413 0.83801 0.0
C235 C 0.67329 0.64253 0.90379 0.0
C236 C 0.64194 0.65754 0.96742 0.0
H237 H 0.66437 0.65332 0.15555 0.0
H238 H 0.67219 0.65356 0.08936 0.0
H239 H 0.62348 0.65802 0.01478 0.0
H240 H 0.6495 0.66416 0.82758 0.0
H241 H 0.64919 0.67394 0.89282 0.0
H242 H 0.69503 0.66871 0.96971 0.0
C243 C 0.66222 0.66055 0.09814 0.0
C244 C 0.63936 0.66091 0.0053 0.0
C245 C 0.65754 0.66025 0.13627 0.0
C246 C 0.65631 0.65798 0.84834 0.0
C247 C 0.65603 0.66356 0.88583 0.0
C248 C 0.67939 0.6664 0.97932 0.0
C249 C 0.65329 0.6687 0.07167 0.0
C250 C 0.65672 0.66698 0.0308 0.0
C251 C 0.66412 0.65559 0.91404 0.0
C252 C 0.66189 0.66003 0.95409 0.0
H253 H 0.62465 0.68305 0.13171 0.0
H254 H 0.63321 0.68397 0.06496 0.0
H255 H 0.69072 0.67497 0.03592 0.0
H256 H 0.68002 0.62616 0.85921 0.0
H257 H 0.67958 0.63609 0.92503 0.0
C258 C 0.00833 0.66895 0.35295 0.0
C259 C 0.02653 0.66697 0.34212 0.0
C260 C 0.00291 0.66835 0.39088 0.0
C261 C 0.00425 0.64296 0.47749 0.0
H262 H 0.99349 0.68573 0.52779 0.0
C263 C 0.96126 0.62649 0.62178 0.0
C264 C 0.9743 0.64178 0.64938 0.0
C265 C 0.96681 0.63087 0.58376 0.0
C266 C 0.99637 0.67366 0.51394 0.0
H267 H 0.05363 0.66341 0.36254 0.0
H268 H 0.0437 0.66172 0.42899 0.0
H269 H 0.00645 0.69197 0.46236 0.0
H270 H 0.00252 0.67416 0.65874 0.0
H271 H 0.01172 0.68206 0.59215 0.0
H272 H 0.99374 0.62441 0.52863 0.0
C273 C 0.03386 0.66399 0.40799 0.0
C274 C 0.00377 0.67722 0.47668 0.0
C275 C 0.0396 0.66509 0.37006 0.0
C276 C 0.99221 0.66204 0.63808 0.0
C277 C 0.99745 0.6666 0.60004 0.0
C278 C 0.99641 0.63918 0.51438 0.0
C279 C 0.01528 0.66529 0.41864 0.0
C280 C 0.00792 0.66196 0.45827 0.0
C281 C 0.98517 0.65081 0.57265 0.0
C282 C 0.99248 0.65452 0.53298 0.0
H283 H 0.998 0.67048 0.33202 0.0
H284 H 0.98847 0.66931 0.39842 0.0
H285 H 0.00714 0.63087 0.46374 0.0
H286 H 0.94746 0.6107 0.62966 0.0
H287 H 0.95705 0.61849 0.56304 0.0
C288 C 0.36677 0.03947 0.86698 0.0
C289 C 0.35803 0.02316 0.83898 0.0
C290 C 0.36131 0.03387 0.90482 0.0
C291 C 0.3441 0.98697 0.96799 0.0
H292 H 0.33146 0.02117 0.0387 0.0
C293 C 0.32585 0.96147 0.12361 0.0
C294 C 0.33615 0.97859 0.14993 0.0
C295 C 0.32537 0.96619 0.08551 0.0
C296 C 0.33512 0.01152 0.01936 0.0
H297 H 0.3357 0.98834 0.82885 0.0
H298 H 0.32638 0.97879 0.89437 0.0
H299 H 0.33716 0.03161 0.97242 0.0
H300 H 0.35337 0.01412 0.15674 0.0
H301 H 0.35295 0.0222 0.09083 0.0
H302 H 0.34284 0.96732 0.01474 0.0
C303 C 0.33767 0.9958 0.88719 0.0
C304 C 0.33836 0.01752 0.98143 0.0
C305 C 0.34301 0.00136 0.84955 0.0
C306 C 0.34528 1.00045 0.1374 0.0
C307 C 0.3449 0.00513 0.09946 0.0
C308 C 0.34106 0.98109 0.00589 0.0
C309 C 0.3471 0.01187 0.9153 0.0
C310 C 0.34299 0.00535 0.95541 0.0
C311 C 0.33523 0.98811 0.07291 0.0
C312 C 0.3367 0.99338 0.03215 0.0
H313 H 0.37833 0.05641 0.85987 0.0
H314 H 0.36888 0.0466 0.92597 0.0
H315 H 0.34796 0.97746 0.94866 0.0
H316 H 0.31852 0.94446 0.13226 0.0
H317 H 0.31746 0.95265 0.06589 0.0
C318 C 0.32924 0.3666 0.36686 0.0
C319 C 0.33649 0.3577 0.33861 0.0
C320 C 0.32933 0.36099 0.40459 0.0
C321 C 0.35844 0.34281 0.46718 0.0
H322 H 0.31233 0.33173 0.53849 0.0
C323 C 0.36577 0.32527 0.62334 0.0
C324 C 0.35933 0.33601 0.64943 0.0
C325 C 0.3606 0.32471 0.5852 0.0
C326 C 0.32543 0.33495 0.51898 0.0
H327 H 0.34835 0.33491 0.32794 0.0
H328 H 0.34848 0.32529 0.39334 0.0
H329 H 0.30745 0.33724 0.47223 0.0
H330 H 0.3419 0.35413 0.65575 0.0
H331 H 0.33348 0.35359 0.58982 0.0
H332 H 0.37679 0.34131 0.51377 0.0
C333 C 0.34306 0.33685 0.38641 0.0
C334 C 0.3226 0.33808 0.48105 0.0
C335 C 0.34289 0.34235 0.34885 0.0
C336 C 0.34715 0.34565 0.63661 0.0
C337 C 0.34212 0.3452 0.59865 0.0
C338 C 0.36136 0.33988 0.50509 0.0
C339 C 0.33675 0.34644 0.41476 0.0
C340 C 0.33915 0.3422 0.45481 0.0
C341 C 0.34897 0.33495 0.57234 0.0
C342 C 0.345 0.33614 0.53157 0.0
H343 H 0.32416 0.37843 0.36001 0.0
H344 H 0.32445 0.36871 0.42592 0.0
H345 H 0.37163 0.34626 0.44768 0.0
H346 H 0.37505 0.31755 0.63223 0.0
H347 H 0.36587 0.31639 0.56576 0.0
C348 C 0.94931 0.61402 0.88172 0.0
C349 C 0.96246 0.62306 0.84965 0.0
C350 C 0.95881 0.61832 0.91743 0.0
C351 C 0.01009 0.63429 0.96736 0.0
H352 H 0.98554 0.65441 0.045 0.0
C353 C 0.05335 0.66692 0.11017 0.0
C354 C 0.04015 0.66251 0.14224 0.0
C355 C 0.04387 0.66163 0.07442 0.0
C356 C 0.99241 0.64846 0.02391 0.0
H357 H 0.99588 0.64333 0.82964 0.0
H358 H 0.01251 0.65056 0.89211 0.0
H359 H 0.96884 0.64555 0.98286 0.0
H360 H 0.00667 0.64867 0.16222 0.0
H361 H 0.99004 0.63873 0.10017 0.0
H362 H 0.03338 0.63671 0.00843 0.0
C363 C 0.99486 0.64022 0.88957 0.0
C364 C 0.98287 0.64348 0.98825 0.0
C365 C 0.98533 0.63618 0.85388 0.0
C366 C 0.01728 0.65242 0.13798 0.0
C367 C 0.00777 0.64686 0.10232 0.0
C368 C 0.01948 0.639 0.00319 0.0
C369 C 0.98166 0.63149 0.92169 0.0
C370 C 0.99166 0.63643 0.95961 0.0
C371 C 0.02094 0.65156 0.07001 0.0
C372 C 0.01081 0.64623 0.03193 0.0
H373 H 0.93163 0.60384 0.87931 0.0
H374 H 0.94829 0.61124 0.94173 0.0
H375 H 0.01704 0.62867 0.94584 0.0
H376 H 0.07106 0.67479 0.11261 0.0
H377 H 0.05459 0.66582 0.05024 0.0
C378 C 0.33714 0.94961 0.38048 0.0
C379 C 0.34126 0.96296 0.34871 0.0
C380 C 0.3426 0.95897 0.41629 0.0
C381 C 0.37839 0.01006 0.46654 0.0
H382 H 0.33347 0.98614 0.54377 0.0
C383 C 0.38871 0.05356 0.60926 0.0
C384 C 0.3797 0.04024 0.64111 0.0
C385 C 0.38473 0.04415 0.57343 0.0
C386 C 0.34636 0.99283 0.52278 0.0
H387 H 0.3547 0.99656 0.3293 0.0
H388 H 0.36453 0.0129 0.39183 0.0
H389 H 0.32561 0.96928 0.48175 0.0
H390 H 0.36 0.00663 0.66069 0.0
H391 H 0.35375 0.9902 0.59866 0.0
H392 H 0.39932 0.03338 0.50761 0.0
C393 C 0.35704 0.99522 0.38901 0.0
C394 C 0.34179 0.98318 0.48723 0.0
C395 C 0.3513 0.98585 0.35329 0.0
C396 C 0.36703 0.01735 0.63663 0.0
C397 C 0.36331 0.00794 0.60097 0.0
C398 C 0.38308 0.01957 0.50228 0.0
C399 C 0.35256 0.98186 0.42084 0.0
C400 C 0.35773 0.99175 0.45877 0.0
C401 C 0.37188 0.02121 0.56886 0.0
C402 C 0.36709 0.0111 0.53083 0.0
H403 H 0.32941 0.93192 0.37773 0.0
H404 H 0.33912 0.94834 0.44043 0.0
H405 H 0.39101 0.01686 0.44508 0.0
H406 H 0.39848 0.07127 0.61193 0.0
H407 H 0.39136 0.05491 0.54932 0.0
C408 C 0.36525 0.35013 0.85258 0.0
C409 C 0.37777 0.33973 0.84866 0.0
C410 C 0.36176 0.35638 0.88797 0.0
C411 C 0.38231 0.36585 0.98625 0.0
H412 H 0.32524 0.35937 0.00782 0.0
C413 C 0.35155 0.36794 0.13578 0.0
C414 C 0.3416 0.38082 0.14102 0.0
C415 C 0.35708 0.36444 0.0998 0.0
C416 C 0.34132 0.36148 0.00202 0.0
H417 H 0.39642 0.32761 0.87856 0.0
H418 H 0.3897 0.33781 0.94062 0.0
H419 H 0.33252 0.34978 0.94578 0.0
H420 H 0.3297 0.40022 0.1129 0.0
H421 H 0.33904 0.39372 0.04969 0.0
H422 H 0.39071 0.37685 0.04316 0.0
C423 C 0.38304 0.34169 0.9163 0.0
C424 C 0.34555 0.35605 0.96646 0.0
C425 C 0.38677 0.3357 0.88079 0.0
C426 C 0.33737 0.39023 0.10964 0.0
C427 C 0.34262 0.38646 0.07354 0.0
C428 C 0.37796 0.37101 0.02197 0.0
C429 C 0.37045 0.35209 0.92033 0.0
C430 C 0.36609 0.35814 0.95811 0.0
C431 C 0.35249 0.3735 0.06834 0.0
C432 C 0.35742 0.36884 0.03016 0.0
H433 H 0.35822 0.35359 0.82829 0.0
H434 H 0.35236 0.36473 0.88986 0.0
H435 H 0.39844 0.36805 0.98066 0.0
H436 H 0.35502 0.36049 0.15945 0.0
H437 H 0.36449 0.35422 0.09649 0.0
C438 C 0.95075 0.33644 0.61041 0.0
C439 C 0.96363 0.34056 0.64276 0.0
C440 C 0.96056 0.34197 0.57493 0.0
C441 C 0.01233 0.35525 0.52533 0.0
H442 H 0.98826 0.37555 0.44726 0.0
C443 C 0.05526 0.38885 0.38227 0.0
C444 C 0.04184 0.3797 0.35055 0.0
C445 C 0.04602 0.38488 0.41821 0.0
C446 C 0.99508 0.36981 0.4688 0.0
H447 H 0.99691 0.3541 0.66352 0.0
H448 H 0.01413 0.36445 0.60188 0.0
H449 H 0.97174 0.36751 0.50973 0.0
H450 H 0.00822 0.35952 0.33144 0.0
H451 H 0.99208 0.3529 0.39421 0.0
H452 H 0.03592 0.35798 0.48434 0.0
C453 C 0.99639 0.35638 0.60363 0.0
C454 C 0.98557 0.36509 0.50454 0.0
C455 C 0.98654 0.35059 0.63904 0.0
C456 C 0.01899 0.36678 0.35537 0.0
C457 C 0.00973 0.36307 0.39124 0.0
C458 C 0.02199 0.36023 0.48972 0.0
C459 C 0.98352 0.352 0.57106 0.0
C460 C 0.99398 0.3576 0.53322 0.0
C461 C 0.02317 0.37196 0.423 0.0
C462 C 0.01336 0.36741 0.46107 0.0
H463 H 0.93303 0.32862 0.61244 0.0
H464 H 0.95007 0.338 0.5505 0.0
H465 H 0.01902 0.34913 0.54641 0.0
H466 H 0.07293 0.39887 0.37937 0.0
H467 H 0.05673 0.39204 0.44226 0.0
C468 C 0.6515 0.01671 0.85372 0.0
C469 C 0.6615 0.03961 0.84929 0.0
C470 C 0.64572 0.00726 0.88939 0.0
C471 C 0.6609 0.01914 0.98763 0.0
H472 H 0.60343 0.96885 0.00803 0.0
C473 C 0.63578 0.98485 0.13699 0.0
C474 C 0.62307 0.96197 0.14147 0.0
C475 C 0.63949 0.99427 0.10135 0.0
C476 C 0.61965 0.98269 0.00269 0.0
H477 H 0.67321 0.07058 0.87854 0.0
H478 H 0.66347 0.05402 0.94114 0.0
H479 H 0.61171 0.98544 0.94555 0.0
H480 H 0.60421 0.93095 0.11229 0.0
H481 H 0.61131 0.94732 0.0497 0.0
H482 H 0.66925 0.01613 0.04407 0.0
C483 C 0.66004 0.04344 0.91692 0.0
C484 C 0.62433 0.99224 0.96698 0.0
C485 C 0.66553 0.05288 0.88116 0.0
C486 C 0.61402 0.94866 0.10962 0.0
C487 C 0.61798 0.95807 0.0738 0.0
C488 C 0.65636 0.00945 0.02314 0.0
C489 C 0.65013 0.02055 0.92132 0.0
C490 C 0.64497 0.01058 0.95921 0.0
C491 C 0.63086 0.98102 0.06923 0.0
C492 C 0.63564 0.99115 0.03121 0.0
H493 H 0.64816 0.00606 0.82966 0.0
H494 H 0.63826 0.98958 0.89209 0.0
H495 H 0.67707 0.03307 0.98214 0.0
H496 H 0.64285 0.99557 0.16104 0.0
H497 H 0.64906 0.01201 0.09906 0.0
C498 C 0.61482 0.66458 0.38092 0.0
C499 C 0.62417 0.66117 0.34858 0.0
C500 C 0.6185 0.65828 0.41616 0.0
C501 C 0.65644 0.64435 0.46568 0.0
H502 H 0.61103 0.62259 0.54217 0.0
C503 C 0.66531 0.61109 0.60943 0.0
C504 C 0.66071 0.62038 0.64061 0.0
C505 C 0.65996 0.61452 0.57319 0.0
C506 C 0.62385 0.62869 0.52104 0.0
H507 H 0.6443 0.64809 0.32755 0.0
H508 H 0.65012 0.63644 0.38867 0.0
H509 H 0.6032 0.63128 0.47973 0.0
H510 H 0.64652 0.64016 0.65849 0.0
H511 H 0.63689 0.6458 0.59533 0.0
H512 H 0.67694 0.64144 0.50708 0.0
C513 C 0.64045 0.64452 0.38715 0.0
C514 C 0.61944 0.63379 0.48535 0.0
C515 C 0.63699 0.65107 0.35202 0.0
C516 C 0.65029 0.63279 0.635 0.0
C517 C 0.64466 0.63594 0.5989 0.0
C518 C 0.66074 0.63898 0.50123 0.0
C519 C 0.63141 0.64819 0.41974 0.0
C520 C 0.63576 0.64191 0.45732 0.0
C521 C 0.64961 0.627 0.56764 0.0
C522 C 0.64456 0.63133 0.52933 0.0
H523 H 0.60493 0.67242 0.37908 0.0
H524 H 0.61157 0.66171 0.44066 0.0
H525 H 0.66954 0.65093 0.44509 0.0
H526 H 0.67334 0.60146 0.61297 0.0
H527 H 0.66385 0.60736 0.54951 0.0
C528 C 0.02552 0.58288 0.21268 0.0
C529 C 0.04079 0.60217 0.23135 0.0
C530 C 0.02685 0.56374 0.21529 0.0
C531 C 0.06366 0.54228 0.24336 0.0
H532 H 0.00843 0.48744 0.25127 0.0
C533 C 0.05801 0.45695 0.23971 0.0
C534 C 0.04163 0.44001 0.2616 0.0
C535 C 0.05904 0.47733 0.23679 0.0
C536 C 0.02404 0.5026 0.24957 0.0
H537 H 0.06974 0.61657 0.26686 0.0
H538 H 0.07173 0.58299 0.27224 0.0
H539 H 0.00823 0.52169 0.24468 0.0
H540 H 0.01418 0.43159 0.29908 0.0
H541 H 0.01636 0.46716 0.29493 0.0
H542 H 0.07944 0.52311 0.24963 0.0
C543 C 0.05894 0.58275 0.25497 0.0
C544 C 0.02392 0.52227 0.24512 0.0
C545 C 0.05775 0.602 0.25203 0.0
C546 C 0.02681 0.44416 0.28153 0.0
C547 C 0.02799 0.46456 0.27896 0.0
C548 C 0.06379 0.52255 0.2481 0.0
C549 C 0.04333 0.56329 0.23701 0.0
C550 C 0.0437 0.54239 0.24179 0.0
C551 C 0.04384 0.48129 0.25601 0.0
C552 C 0.04396 0.50244 0.25127 0.0
H553 H 0.01242 0.5825 0.1961 0.0
H554 H 0.01486 0.54926 0.2003 0.0
H555 H 0.07921 0.55742 0.24055 0.0
H556 H 0.06965 0.45427 0.2239 0.0
H557 H 0.07134 0.48972 0.21857 0.0
C558 C 0.45858 0.06093 0.73914 0.0
C559 C 0.43967 0.04015 0.73456 0.0
C560 C 0.47932 0.06283 0.74289 0.0
C561 C 0.50517 0.03144 0.77361 0.0
H562 H 0.55483 0.0708 0.71159 0.0
C563 C 0.58056 0.021 0.7605 0.0
C564 C 0.60158 0.03971 0.7578 0.0
C565 C 0.56176 0.02292 0.75909 0.0
C566 C 0.54125 0.05999 0.7296 0.0
H567 H 0.42786 0.00514 0.73009 0.0
H568 H 0.46381 0.00851 0.73706 0.0
H569 H 0.52024 0.07112 0.7067 0.0
H570 H 0.61925 0.07519 0.75146 0.0
H571 H 0.58629 0.07858 0.74978 0.0
H572 H 0.52591 0.02033 0.79681 0.0
C573 C 0.4626 0.02329 0.73779 0.0
C574 C 0.52145 0.06016 0.72669 0.0
C575 C 0.44201 0.0214 0.73357 0.0
C576 C 0.60331 0.06043 0.75354 0.0
C577 C 0.58441 0.06237 0.75241 0.0
C578 C 0.52494 0.03142 0.77681 0.0
C579 C 0.48145 0.04397 0.74272 0.0
C580 C 0.50309 0.04552 0.74809 0.0
C581 C 0.56339 0.04361 0.75533 0.0
C582 C 0.54309 0.0453 0.75422 0.0
H583 H 0.45737 0.0757 0.73989 0.0
H584 H 0.49361 0.07897 0.7467 0.0
H585 H 0.49138 0.02026 0.79094 0.0
H586 H 0.57854 0.00474 0.76337 0.0
H587 H 0.54589 0.00804 0.76048 0.0
C588 C 0.56183 0.5812 0.25911 0.0
C589 C 0.56406 0.60221 0.25708 0.0
C590 C 0.54115 0.56234 0.25794 0.0
C591 C 0.48328 0.54169 0.23036 0.0
H592 H 0.47385 0.4917 0.29064 0.0
C593 C 0.39985 0.4589 0.24057 0.0
C594 C 0.40165 0.43998 0.23556 0.0
C595 C 0.41872 0.47964 0.24427 0.0
C596 C 0.47626 0.50552 0.27359 0.0
H597 H 0.5461 0.61979 0.25218 0.0
H598 H 0.50979 0.58672 0.2509 0.0
H599 H 0.50832 0.52629 0.29602 0.0
H600 H 0.42479 0.42814 0.23037 0.0
H601 H 0.45744 0.4641 0.23724 0.0
H602 H 0.45094 0.52064 0.20822 0.0
C603 C 0.52418 0.5849 0.25282 0.0
C604 C 0.49605 0.52533 0.27652 0.0
C605 C 0.54499 0.60386 0.25371 0.0
C606 C 0.42272 0.4423 0.23418 0.0
C607 C 0.44147 0.4629 0.23834 0.0
C608 C 0.46331 0.52184 0.22772 0.0
C609 C 0.52201 0.56389 0.25511 0.0
C610 C 0.50005 0.54353 0.25431 0.0
C611 C 0.43969 0.48176 0.24362 0.0
C612 C 0.45984 0.50344 0.24873 0.0
H613 H 0.57613 0.57923 0.26128 0.0
H614 H 0.54021 0.54648 0.25882 0.0
H615 H 0.48583 0.5553 0.21266 0.0
H616 H 0.38388 0.45771 0.24162 0.0
H617 H 0.41691 0.49394 0.24837 0.0
C618 C 0.98128 0.56106 0.75256 0.0
C619 C 0.9623 0.56295 0.75421 0.0
C620 C 0.97965 0.54053 0.74845 0.0
C621 C 0.94365 0.48167 0.76411 0.0
H622 H 0.98157 0.47608 0.6911 0.0
C623 C 0.94234 0.39928 0.73816 0.0
C624 C 0.96289 0.40077 0.73289 0.0
C625 C 0.94057 0.41829 0.7389 0.0
C626 C 0.97102 0.47738 0.7119 0.0
H627 H 0.92665 0.54458 0.75351 0.0
H628 H 0.92385 0.50854 0.74683 0.0
H629 H 0.98164 0.51068 0.69651 0.0
H630 H 0.99771 0.42355 0.72463 0.0
H631 H 0.99468 0.45642 0.7267 0.0
H632 H 0.93349 0.44856 0.7803 0.0
C633 C 0.93997 0.52308 0.74856 0.0
C634 C 0.97102 0.4972 0.71488 0.0
C635 C 0.9416 0.54371 0.75223 0.0
C636 C 0.98158 0.42169 0.72846 0.0
C637 C 0.97982 0.44061 0.7294 0.0
C638 C 0.94378 0.46184 0.76137 0.0
C639 C 0.959 0.52134 0.74624 0.0
C640 C 0.95761 0.49968 0.74139 0.0
C641 C 0.9593 0.43919 0.73448 0.0
C642 C 0.95775 0.45959 0.73563 0.0
H643 H 0.9975 0.57548 0.75395 0.0
H644 H 0.9946 0.53966 0.74723 0.0
H645 H 0.93323 0.48318 0.78493 0.0
H646 H 0.92759 0.38345 0.74154 0.0
H647 H 0.92448 0.41657 0.74252 0.0
C648 C 0.42196 0.98133 0.25412 0.0
C649 C 0.40088 0.96258 0.25441 0.0
C650 C 0.44062 0.97935 0.24988 0.0
C651 C 0.46268 0.94272 0.26342 0.0
H652 H 0.50632 0.98092 0.19085 0.0
C653 C 0.54404 0.94185 0.23732 0.0
C654 C 0.563 0.96248 0.23187 0.0
C655 C 0.5232 0.93992 0.2383 0.0
C656 C 0.49444 0.97028 0.21153 0.0
H657 H 0.38298 0.92694 0.25131 0.0
H658 H 0.41587 0.92351 0.2445 0.0
H659 H 0.47192 0.98114 0.19655 0.0
H660 H 0.57483 0.9973 0.22394 0.0
H661 H 0.53888 0.99402 0.22655 0.0
H662 H 0.48554 0.9324 0.27935 0.0
C663 C 0.41775 0.93972 0.24731 0.0
C664 C 0.47469 0.97036 0.21464 0.0
C665 C 0.39897 0.94172 0.25104 0.0
C666 C 0.56062 0.98109 0.22778 0.0
C667 C 0.53991 0.97919 0.22902 0.0
C668 C 0.48261 0.9428 0.2606 0.0
C669 C 0.43873 0.95856 0.24625 0.0
C670 C 0.45877 0.95688 0.24103 0.0
C671 C 0.5209 0.95859 0.23402 0.0
C672 C 0.49891 0.95691 0.23508 0.0
H673 H 0.4241 0.99766 0.25661 0.0
H674 H 0.45662 0.99413 0.24962 0.0
H675 H 0.45069 0.93222 0.2841 0.0
H676 H 0.54526 0.92716 0.24048 0.0
H677 H 0.5089 0.92377 0.2419 0.0
C678 C 0.57994 0.55872 0.7388 0.0
C679 C 0.60106 0.56124 0.73692 0.0
C680 C 0.56148 0.53799 0.74377 0.0
C681 C 0.53942 0.47957 0.72861 0.0
H682 H 0.49713 0.47338 0.80467 0.0
C683 C 0.45781 0.39743 0.75372 0.0
C684 C 0.4391 0.39935 0.76039 0.0
C685 C 0.47881 0.41614 0.75324 0.0
C686 C 0.50865 0.47484 0.78306 0.0
H687 H 0.61927 0.5438 0.73802 0.0
H688 H 0.5867 0.50729 0.74596 0.0
H689 H 0.53154 0.50803 0.79869 0.0
H690 H 0.42789 0.42258 0.77136 0.0
H691 H 0.46411 0.45492 0.76967 0.0
H692 H 0.51614 0.44665 0.71194 0.0
C693 C 0.58464 0.52155 0.7439 0.0
C694 C 0.5284 0.49467 0.77979 0.0
C695 C 0.60324 0.54242 0.73951 0.0
C696 C 0.44189 0.42038 0.76644 0.0
C697 C 0.46276 0.439 0.76575 0.0
C698 C 0.51948 0.45973 0.73159 0.0
C699 C 0.56362 0.51921 0.74648 0.0
C700 C 0.54378 0.49739 0.7521 0.0
C701 C 0.48152 0.43717 0.75931 0.0
C702 C 0.50365 0.4573 0.75835 0.0
H703 H 0.57763 0.57284 0.737 0.0
H704 H 0.54544 0.53662 0.74524 0.0
H705 H 0.551 0.4813 0.70692 0.0
H706 H 0.45628 0.38148 0.74906 0.0
H707 H 0.49291 0.41411 0.74849 0.0
C708 C 0.13594 0.41139 0.23124 0.0
C709 C 0.11605 0.39136 0.23413 0.0
C710 C 0.15605 0.41179 0.23234 0.0
C711 C 0.18174 0.37763 0.21919 0.0
H712 H 0.22556 0.41797 0.28943 0.0
C713 C 0.25789 0.37073 0.254 0.0
C714 C 0.27809 0.39032 0.25771 0.0
C715 C 0.23823 0.37116 0.25252 0.0
C716 C 0.21366 0.40679 0.26931 0.0
H717 H 0.10162 0.35601 0.23885 0.0
H718 H 0.13666 0.35669 0.24004 0.0
H719 H 0.19148 0.41869 0.28079 0.0
H720 H 0.29351 0.42567 0.26392 0.0
H721 H 0.2593 0.42653 0.26049 0.0
H722 H 0.20388 0.36592 0.2071 0.0
C723 C 0.13673 0.37208 0.23714 0.0
C724 C 0.19412 0.40722 0.26438 0.0
C725 C 0.11666 0.3717 0.23653 0.0
C726 C 0.27818 0.41028 0.2613 0.0
C727 C 0.25852 0.41075 0.25938 0.0
C728 C 0.20134 0.37734 0.22381 0.0
C729 C 0.15665 0.39215 0.2358 0.0
C730 C 0.17789 0.39252 0.23949 0.0
C731 C 0.23831 0.39122 0.2542 0.0
C732 C 0.21751 0.39178 0.24919 0.0
H733 H 0.136 0.42681 0.22953 0.0
H734 H 0.17115 0.42748 0.23088 0.0
H735 H 0.16963 0.36628 0.19948 0.0
H736 H 0.25727 0.35506 0.25142 0.0
H737 H 0.22299 0.35573 0.24954 0.0
C738 C 0.88695 0.25695 0.7537 0.0
C739 C 0.88748 0.27718 0.75599 0.0
C740 C 0.86692 0.23723 0.75225 0.0
C741 C 0.80661 0.21262 0.76714 0.0
H742 H 0.80385 0.16759 0.70046 0.0
C743 C 0.72479 0.134 0.7299 0.0
C744 C 0.72499 0.11418 0.73384 0.0
C745 C 0.74444 0.15419 0.73092 0.0
C746 C 0.80439 0.17997 0.71931 0.0
H747 H 0.86742 0.29257 0.75963 0.0
H748 H 0.83243 0.25819 0.75628 0.0
H749 H 0.8383 0.20211 0.70753 0.0
H750 H 0.74596 0.09995 0.74046 0.0
H751 H 0.78022 0.13512 0.74157 0.0
H752 H 0.7725 0.19042 0.77833 0.0
C753 C 0.84746 0.25748 0.75625 0.0
C754 C 0.82418 0.19973 0.7236 0.0
C755 C 0.86754 0.27723 0.75811 0.0
C756 C 0.74526 0.11493 0.73731 0.0
C757 C 0.7649 0.13508 0.73786 0.0
C758 C 0.78675 0.1929 0.76255 0.0
C759 C 0.8469 0.23723 0.75258 0.0
C760 C 0.82564 0.21627 0.74784 0.0
C761 C 0.76468 0.15494 0.73539 0.0
C762 C 0.78547 0.1763 0.7388 0.0
H763 H 0.90204 0.25636 0.75229 0.0
H764 H 0.86718 0.22197 0.75045 0.0
H765 H 0.80712 0.22481 0.7864 0.0
H766 H 0.70942 0.13397 0.72733 0.0
H767 H 0.7438 0.16923 0.72855 0.0
C768 C 0.63238 0.74618 0.23989 0.0
C769 C 0.6128 0.72594 0.2365 0.0
C770 C 0.63193 0.76583 0.24177 0.0
C771 C 0.59612 0.79027 0.22604 0.0
H772 H 0.63741 0.83493 0.29422 0.0
C773 C 0.59214 0.86853 0.26292 0.0
C774 C 0.61214 0.88838 0.25921 0.0
C775 C 0.59168 0.84837 0.26225 0.0
C776 C 0.62584 0.82264 0.27498 0.0
H777 H 0.57741 0.71044 0.23147 0.0
H778 H 0.57651 0.74465 0.23558 0.0
H779 H 0.63762 0.80054 0.28697 0.0
H780 H 0.64741 0.9027 0.2535 0.0
H781 H 0.64664 0.86758 0.25304 0.0
H782 H 0.58418 0.81241 0.21462 0.0
C783 C 0.59231 0.74546 0.23611 0.0
C784 C 0.62603 0.80296 0.27058 0.0
C785 C 0.5928 0.72581 0.23381 0.0
C786 C 0.63174 0.88769 0.25644 0.0
C787 C 0.63131 0.86758 0.25627 0.0
C788 C 0.59579 0.80989 0.23076 0.0
C789 C 0.61185 0.76572 0.24079 0.0
C790 C 0.61133 0.78657 0.24576 0.0
C791 C 0.61125 0.84768 0.2584 0.0
C792 C 0.61077 0.82636 0.25504 0.0
H793 H 0.64808 0.74684 0.24179 0.0
H794 H 0.64736 0.78111 0.24436 0.0
H795 H 0.58474 0.7782 0.20634 0.0
H796 H 0.57675 0.86852 0.26495 0.0
H797 H 0.576 0.8333 0.26434 0.0
C798 C 0.86667 0.59122 0.73433 0.0
C799 C 0.88666 0.61118 0.73675 0.0
C800 C 0.84665 0.591 0.73569 0.0
C801 C 0.82131 0.62536 0.7218 0.0
H802 H 0.77741 0.58563 0.79261 0.0
C803 C 0.74479 0.6322 0.75444 0.0
C804 C 0.72466 0.61258 0.75857 0.0
C805 C 0.76453 0.63191 0.75346 0.0
C806 C 0.78932 0.59664 0.77233 0.0
H807 H 0.90135 0.64658 0.74103 0.0
H808 H 0.86645 0.6462 0.74264 0.0
H809 H 0.81145 0.58476 0.78446 0.0
H810 H 0.70946 0.57732 0.76601 0.0
H811 H 0.74379 0.57669 0.76341 0.0
H812 H 0.79921 0.637 0.70898 0.0
C813 C 0.86625 0.63074 0.73992 0.0
C814 C 0.80884 0.59613 0.76769 0.0
C815 C 0.88623 0.63094 0.73907 0.0
C816 C 0.72473 0.59274 0.76305 0.0
C817 C 0.74447 0.59241 0.76163 0.0
C818 C 0.80172 0.62571 0.7261 0.0
C819 C 0.84624 0.61075 0.73893 0.0
C820 C 0.8251 0.61058 0.74255 0.0
C821 C 0.76462 0.61195 0.75608 0.0
C822 C 0.7855 0.61147 0.75164 0.0
H823 H 0.86648 0.57572 0.73268 0.0
H824 H 0.83147 0.57537 0.7345 0.0
H825 H 0.83344 0.63652 0.70191 0.0
H826 H 0.74528 0.64777 0.75116 0.0
H827 H 0.77972 0.64737 0.75016 0.0
C828 C 0.27729 0.86882 0.23041 0.0
C829 C 0.27725 0.88872 0.23395 0.0
C830 C 0.25761 0.84869 0.23236 0.0
C831 C 0.20036 0.82488 0.26772 0.0
H832 H 0.19061 0.77378 0.21052 0.0
C833 C 0.11574 0.74568 0.25494 0.0
C834 C 0.11519 0.72544 0.25729 0.0
C835 C 0.13578 0.76542 0.25429 0.0
C836 C 0.19322 0.78786 0.22699 0.0
H837 H 0.25649 0.9032 0.24025 0.0
H838 H 0.22216 0.86825 0.24221 0.0
H839 H 0.2247 0.80862 0.20205 0.0
H840 H 0.13521 0.71003 0.26175 0.0
H841 H 0.17031 0.7446 0.26033 0.0
H842 H 0.1686 0.80416 0.29194 0.0
C843 C 0.23739 0.86805 0.23923 0.0
C844 C 0.21277 0.80785 0.22216 0.0
C845 C 0.25707 0.88813 0.23771 0.0
C846 C 0.1351 0.72537 0.26006 0.0
C847 C 0.15519 0.74513 0.25892 0.0
C848 C 0.18075 0.80497 0.27223 0.0
C849 C 0.23742 0.84804 0.23751 0.0
C850 C 0.21658 0.82667 0.24237 0.0
C851 C 0.15572 0.76534 0.25554 0.0
C852 C 0.17694 0.78625 0.25188 0.0
H853 H 0.29261 0.86874 0.22774 0.0
H854 H 0.25836 0.83368 0.23125 0.0
H855 H 0.20287 0.83883 0.28448 0.0
H856 H 0.10067 0.74627 0.25272 0.0
H857 H 0.13567 0.78072 0.25144 0.0
C858 C 0.40877 0.27602 0.73104 0.0
C859 C 0.38883 0.27601 0.73387 0.0
C860 C 0.40913 0.25629 0.73306 0.0
C861 C 0.3752 0.19888 0.76749 0.0
H862 H 0.41719 0.18934 0.71194 0.0
C863 C 0.37002 0.11429 0.75479 0.0
C864 C 0.3897 0.11379 0.75785 0.0
C865 C 0.37028 0.13432 0.75421 0.0
C866 C 0.40553 0.19189 0.72795 0.0
H867 H 0.35352 0.25526 0.739 0.0
H868 H 0.35401 0.22086 0.7411 0.0
H869 H 0.41655 0.22347 0.70318 0.0
H870 H 0.42505 0.13388 0.76373 0.0
H871 H 0.42551 0.16895 0.76241 0.0
H872 H 0.36389 0.16702 0.79152 0.0
C873 C 0.36949 0.2361 0.7386 0.0
C874 C 0.40515 0.21146 0.72295 0.0
C875 C 0.36917 0.25582 0.737 0.0
C876 C 0.4096 0.13373 0.76148 0.0
C877 C 0.4099 0.1538 0.7604 0.0
C878 C 0.37544 0.17924 0.77216 0.0
C879 C 0.38951 0.23609 0.7376 0.0
C880 C 0.38993 0.2152 0.74258 0.0
C881 C 0.39026 0.1543 0.75622 0.0
C882 C 0.39058 0.17552 0.75241 0.0
H883 H 0.42422 0.29134 0.72888 0.0
H884 H 0.42488 0.25702 0.73251 0.0
H885 H 0.36359 0.20134 0.7838 0.0
H886 H 0.35442 0.0992 0.75191 0.0
H887 H 0.3549 0.13418 0.75076 0.0
loop_
_geom_bond_atom_site_label_1
_geom_bond_atom_site_label_2
_geom_bond_distance
_geom_bond_site_symmetry_2
_ccdc_geom_bond_type
Co0 O1 2.216 . S
Co0 O2 2.091 . S
Co0 O4 2.004 . S
Co0 O10 2.021 . S
Co0 O12 2.137 . S
Co0 O13 2.244 . S
O1 Co0 2.216 . S
O1 C8 1.247 . S
O2 Co0 2.091 . S
O2 C8 1.261 . S
C3 O12 1.247 . S
C3 O13 1.272 . S
O4 Co0 2.004 . S
O4 C9 1.259 . S
Co5 O6 2.064 . S
Co5 O11 2.060 . S
Co5 O13 2.148 . S
O6 Co5 2.064 . S
O6 C9 1.235 . S
C7 O10 1.238 . S
C7 O11 1.241 . S
C8 O1 1.247 . S
C8 O2 1.261 . S
C9 O4 1.259 . S
C9 O6 1.235 . S
O10 Co0 2.021 . S
O10 C7 1.238 . S
O11 Co5 2.060 . S
O11 C7 1.241 . S
O12 Co0 2.137 . S
O12 C3 1.247 . S
O13 Co0 2.244 . S
O13 C3 1.272 . S
O13 Co5 2.148 . S
Co14 O15 2.216 . S
Co14 O16 2.091 . S
Co14 O18 2.004 . S
Co14 O24 2.021 . S
Co14 O26 2.137 . S
Co14 O27 2.244 . S
O15 Co14 2.216 . S
O15 C22 1.247 . S
O16 Co14 2.091 . S
O16 C22 1.261 . S
C17 O26 1.247 . S
C17 O27 1.272 . S
O18 Co14 2.004 . S
O18 C23 1.259 . S
Co19 O20 2.077 . S
Co19 O25 2.052 . S
Co19 O27 2.139 . S
O20 Co19 2.077 . S
O20 C23 1.235 . S
C21 O24 1.238 . S
C21 O25 1.241 . S
C22 O15 1.247 . S
C22 O16 1.261 . S
C23 O18 1.259 . S
C23 O20 1.235 . S
O24 Co14 2.021 . S
O24 C21 1.238 . S
O25 Co19 2.052 . S
O25 C21 1.241 . S
O26 Co14 2.137 . S
O26 C17 1.247 . S
O27 Co14 2.244 . S
O27 C17 1.272 . S
O27 Co19 2.139 . S
Co28 O29 2.216 . S
Co28 O30 2.091 . S
Co28 O32 2.004 . S
Co28 O38 2.021 . S
Co28 O40 2.137 . S
Co28 O41 2.244 . S
O29 Co28 2.216 . S
O29 C36 1.247 . S
O30 Co28 2.091 . S
O30 C36 1.261 . S
C31 O40 1.247 . S
C31 O41 1.272 . S
O32 Co28 2.004 . S
O32 C37 1.259 . S
Co33 O34 2.061 . S
Co33 O39 2.052 . S
Co33 O41 2.135 . S
O34 Co33 2.061 . S
O34 C37 1.235 . S
C35 O38 1.238 . S
C35 O39 1.241 . S
C36 O29 1.247 . S
C36 O30 1.261 . S
C37 O32 1.259 . S
C37 O34 1.235 . S
O38 Co28 2.021 . S
O38 C35 1.238 . S
O39 Co33 2.052 . S
O39 C35 1.241 . S
O40 Co28 2.137 . S
O40 C31 1.247 . S
O41 Co28 2.244 . S
O41 C31 1.272 . S
O41 Co33 2.135 . S
Co42 O43 2.216 . S
Co42 O44 2.091 . S
Co42 O46 2.004 . S
Co42 O52 2.021 . S
Co42 O54 2.137 . S
Co42 O55 2.244 . S
O43 Co42 2.216 . S
O43 C50 1.247 . S
O44 Co42 2.091 . S
O44 C50 1.261 . S
C45 O54 1.247 . S
C45 O55 1.272 . S
O46 Co42 2.004 . S
O46 C51 1.259 . S
Co47 O48 2.064 . S
Co47 O53 2.060 . S
Co47 O55 2.148 . S
O48 Co47 2.064 . S
O48 C51 1.235 . S
C49 O52 1.238 . S
C49 O53 1.241 . S
C50 O43 1.247 . S
C50 O44 1.261 . S
C51 O46 1.259 . S
C51 O48 1.235 . S
O52 Co42 2.021 . S
O52 C49 1.238 . S
O53 Co47 2.060 . S
O53 C49 1.241 . S
O54 Co42 2.137 . S
O54 C45 1.247 . S
O55 Co42 2.244 . S
O55 C45 1.272 . S
O55 Co47 2.148 . S
Co56 O57 2.216 . S
Co56 O58 2.091 . S
Co56 O60 2.004 . S
Co56 O66 2.021 . S
Co56 O68 2.137 . S
Co56 O69 2.244 . S
O57 Co56 2.216 . S
O57 C64 1.247 . S
O58 Co56 2.091 . S
O58 C64 1.261 . S
C59 O68 1.247 . S
C59 O69 1.272 . S
O60 Co56 2.004 . S
O60 C65 1.259 . S
Co61 O62 2.077 . S
Co61 O67 2.052 . S
Co61 O69 2.139 . S
O62 Co61 2.077 . S
O62 C65 1.235 . S
C63 O66 1.238 . S
C63 O67 1.241 . S
C64 O57 1.247 . S
C64 O58 1.261 . S
C65 O60 1.259 . S
C65 O62 1.235 . S
O66 Co56 2.021 . S
O66 C63 1.238 . S
O67 Co61 2.052 . S
O67 C63 1.241 . S
O68 Co56 2.137 . S
O68 C59 1.247 . S
O69 Co56 2.244 . S
O69 C59 1.272 . S
O69 Co61 2.139 . S
Co70 O71 2.216 . S
Co70 O72 2.091 . S
Co70 O74 2.004 . S
Co70 O80 2.021 . S
Co70 O82 2.137 . S
Co70 O83 2.244 . S
O71 Co70 2.216 . S
O71 C78 1.247 . S
O72 Co70 2.091 . S
O72 C78 1.261 . S
C73 O82 1.247 . S
C73 O83 1.272 . S
O74 Co70 2.004 . S
O74 C79 1.259 . S
Co75 O76 2.061 . S
Co75 O81 2.052 . S
Co75 O83 2.135 . S
O76 Co75 2.061 . S
O76 C79 1.235 . S
C77 O80 1.238 . S
C77 O81 1.241 . S
C78 O71 1.247 . S
C78 O72 1.261 . S
C79 O74 1.259 . S
C79 O76 1.235 . S
O80 Co70 2.021 . S
O80 C77 1.238 . S
O81 Co75 2.052 . S
O81 C77 1.241 . S
O82 Co70 2.137 . S
O82 C73 1.247 . S
O83 Co70 2.244 . S
O83 C73 1.272 . S
O83 Co75 2.135 . S
Co84 O85 2.216 . S
Co84 O86 2.091 . S
Co84 O88 2.004 . S
Co84 O94 2.021 . S
Co84 O96 2.137 . S
Co84 O97 2.244 . S
O85 Co84 2.216 . S
O85 C92 1.247 . S
O86 Co84 2.091 . S
O86 C92 1.261 . S
C87 O96 1.247 . S
C87 O97 1.272 . S
O88 Co84 2.004 . S
O88 C93 1.259 . S
Co89 O90 2.064 . S
Co89 O95 2.060 . S
Co89 O97 2.148 . S
O90 Co89 2.064 . S
O90 C93 1.235 . S
C91 O94 1.238 . S
C91 O95 1.241 . S
C92 O85 1.247 . S
C92 O86 1.261 . S
C93 O88 1.259 . S
C93 O90 1.235 . S
O94 Co84 2.021 . S
O94 C91 1.238 . S
O95 Co89 2.060 . S
O95 C91 1.241 . S
O96 Co84 2.137 . S
O96 C87 1.247 . S
O97 Co84 2.244 . S
O97 C87 1.272 . S
O97 Co89 2.148 . S
Co98 O99 2.216 . S
Co98 O100 2.091 . S
Co98 O102 2.004 . S
Co98 O108 2.021 . S
Co98 O110 2.137 . S
Co98 O111 2.244 . S
O99 Co98 2.216 . S
O99 C106 1.247 . S
O100 Co98 2.091 . S
O100 C106 1.261 . S
C101 O110 1.247 . S
C101 O111 1.272 . S
O102 Co98 2.004 . S
O102 C107 1.259 . S
Co103 O104 2.061 . S
Co103 O109 2.052 . S
Co103 O111 2.135 . S
O104 Co103 2.061 . S
O104 C107 1.235 . S
C105 O108 1.238 . S
C105 O109 1.241 . S
C106 O99 1.247 . S
C106 O100 1.261 . S
C107 O102 1.259 . S
C107 O104 1.235 . S
O108 Co98 2.021 . S
O108 C105 1.238 . S
O109 Co103 2.052 . S
O109 C105 1.241 . S
O110 Co98 2.137 . S
O110 C101 1.247 . S
O111 Co98 2.244 . S
O111 C101 1.272 . S
O111 Co103 2.135 . S
Co112 O113 2.216 . S
Co112 O114 2.091 . S
Co112 O116 2.004 . S
Co112 O122 2.021 . S
Co112 O124 2.137 . S
Co112 O125 2.244 . S
O113 Co112 2.216 . S
O113 C120 1.247 . S
O114 Co112 2.091 . S
O114 C120 1.261 . S
C115 O124 1.247 . S
C115 O125 1.272 . S
O116 Co112 2.004 . S
O116 C121 1.259 . S
Co117 O118 2.077 . S
Co117 O123 2.052 . S
Co117 O125 2.139 . S
O118 Co117 2.077 . S
O118 C121 1.235 . S
C119 O122 1.238 . S
C119 O123 1.241 . S
C120 O113 1.247 . S
C120 O114 1.261 . S
C121 O116 1.259 . S
C121 O118 1.235 . S
O122 Co112 2.021 . S
O122 C119 1.238 . S
O123 Co117 2.052 . S
O123 C119 1.241 . S
O124 Co112 2.137 . S
O124 C115 1.247 . S
O125 Co112 2.244 . S
O125 C115 1.272 . S
O125 Co117 2.139 . S
Co126 O127 2.216 . S
Co126 O128 2.091 . S
Co126 O130 2.004 . S
Co126 O136 2.021 . S
Co126 O138 2.137 . S
Co126 O139 2.244 . S
O127 Co126 2.216 . S
O127 C134 1.247 . S
O128 Co126 2.091 . S
O128 C134 1.261 . S
C129 O138 1.247 . S
C129 O139 1.272 . S
O130 Co126 2.004 . S
O130 C135 1.259 . S
Co131 O132 2.064 . S
Co131 O137 2.060 . S
Co131 O139 2.148 . S
O132 Co131 2.064 . S
O132 C135 1.235 . S
C133 O136 1.238 . S
C133 O137 1.241 . S
C134 O127 1.247 . S
C134 O128 1.261 . S
C135 O130 1.259 . S
C135 O132 1.235 . S
O136 Co126 2.021 . S
O136 C133 1.238 . S
O137 Co131 2.060 . S
O137 C133 1.241 . S
O138 Co126 2.137 . S
O138 C129 1.247 . S
O139 Co126 2.244 . S
O139 C129 1.272 . S
O139 Co131 2.148 . S
Co140 O141 2.216 . S
Co140 O142 2.091 . S
Co140 O144 2.004 . S
Co140 O150 2.021 . S
Co140 O152 2.137 . S
Co140 O153 2.244 . S
O141 Co140 2.216 . S
O141 C148 1.247 . S
O142 Co140 2.091 . S
O142 C148 1.261 . S
C143 O152 1.247 . S
C143 O153 1.272 . S
O144 Co140 2.004 . S
O144 C149 1.259 . S
Co145 O146 2.061 . S
Co145 O151 2.052 . S
Co145 O153 2.135 . S
O146 Co145 2.061 . S
O146 C149 1.235 . S
C147 O150 1.238 . S
C147 O151 1.241 . S
C148 O141 1.247 . S
C148 O142 1.261 . S
C149 O144 1.259 . S
C149 O146 1.235 . S
O150 Co140 2.021 . S
O150 C147 1.238 . S
O151 Co145 2.052 . S
O151 C147 1.241 . S
O152 Co140 2.137 . S
O152 C143 1.247 . S
O153 Co140 2.244 . S
O153 C143 1.272 . S
O153 Co145 2.135 . S
Co154 O155 2.216 . S
Co154 O156 2.091 . S
Co154 O158 2.004 . S
Co154 O164 2.021 . S
Co154 O166 2.137 . S
Co154 O167 2.244 . S
O155 Co154 2.216 . S
O155 C162 1.247 . S
O156 Co154 2.091 . S
O156 C162 1.261 . S
C157 O166 1.247 . S
C157 O167 1.272 . S
O158 Co154 2.004 . S
O158 C163 1.259 . S
Co159 O160 2.077 . S
Co159 O165 2.052 . S
Co159 O167 2.139 . S
O160 Co159 2.077 . S
O160 C163 1.235 . S
C161 O164 1.238 . S
C161 O165 1.241 . S
C162 O155 1.247 . S
C162 O156 1.261 . S
C163 O158 1.259 . S
C163 O160 1.235 . S
O164 Co154 2.021 . S
O164 C161 1.238 . S
O165 Co159 2.052 . S
O165 C161 1.241 . S
O166 Co154 2.137 . S
O166 C157 1.247 . S
O167 Co154 2.244 . S
O167 C157 1.272 . S
O167 Co159 2.139 . S
C168 C169 1.349 . S
C168 C170 1.327 . S
C168 H193 0.950 . S
C169 C168 1.349 . S
C169 C185 1.349 . S
C170 C168 1.327 . S
C170 C189 1.429 . S
C170 H194 0.950 . S
C171 C188 1.574 1_554 S
C171 C190 1.368 1_655 S
C171 H195 0.949 . S
H172 C176 0.949 . S
C173 C174 1.349 . S
C173 C175 1.327 . S
C173 H196 0.950 . S
C174 C173 1.349 . S
C174 C186 1.349 . S
C175 C173 1.327 . S
C175 C191 1.429 . S
C175 H197 0.950 . S
C176 H172 0.949 . S
C176 C184 1.574 1_556 S
C176 C192 1.368 1_455 S
H177 C185 0.950 1_655 S
H178 C183 0.950 . S
H179 C184 0.949 . S
H180 C186 0.950 1_455 S
H181 C187 0.950 . S
H182 C188 0.949 . S
C183 H178 0.950 . S
C183 C185 1.327 1_655 S
C183 C189 1.429 1_655 S
C184 C176 1.574 1_554 S
C184 H179 0.949 . S
C184 C190 1.368 . S
C185 C169 1.349 . S
C185 H177 0.950 1_455 S
C185 C183 1.327 1_455 S
C186 C174 1.349 . S
C186 H180 0.950 1_655 S
C186 C187 1.327 1_655 S
C187 H181 0.950 . S
C187 C186 1.327 1_455 S
C187 C191 1.429 1_455 S
C188 C171 1.574 1_556 S
C188 H182 0.949 . S
C188 C192 1.368 . S
C189 C170 1.429 . S
C189 C183 1.429 1_455 S
C189 C190 1.523 . S
C190 C171 1.368 1_455 S
C190 C184 1.368 . S
C190 C189 1.523 . S
C191 C175 1.429 . S
C191 C187 1.429 1_655 S
C191 C192 1.523 . S
C192 C176 1.368 1_655 S
C192 C188 1.368 . S
C192 C191 1.523 . S
H193 C168 0.950 . S
H194 C170 0.950 . S
H195 C171 0.949 . S
H196 C173 0.950 . S
H197 C175 0.950 . S
C198 C199 1.349 . S
C198 C200 1.327 . S
C198 H223 0.950 . S
C199 C198 1.349 . S
C199 C215 1.349 . S
C200 C198 1.327 . S
C200 C219 1.429 . S
C200 H224 0.950 . S
C201 C218 1.574 . S
C201 C220 1.368 1_545 S
C201 H225 0.949 . S
H202 C206 0.949 . S
C203 C204 1.349 . S
C203 C205 1.327 . S
C203 H226 0.950 . S
C204 C203 1.349 . S
C204 C216 1.349 . S
C205 C203 1.327 . S
C205 C221 1.429 . S
C205 H227 0.950 . S
C206 H202 0.949 . S
C206 C214 1.574 . S
C206 C222 1.368 1_565 S
H207 C215 0.950 . S
H208 C213 0.950 1_545 S
H209 C214 0.949 . S
H210 C216 0.950 . S
H211 C217 0.950 1_565 S
H212 C218 0.949 . S
C213 H208 0.950 1_565 S
C213 C215 1.327 . S
C213 C219 1.429 . S
C214 C206 1.574 . S
C214 H209 0.949 . S
C214 C220 1.368 . S
C215 C199 1.349 . S
C215 H207 0.950 . S
C215 C213 1.327 . S
C216 C204 1.349 . S
C216 H210 0.950 . S
C216 C217 1.327 . S
C217 H211 0.950 1_545 S
C217 C216 1.327 . S
C217 C221 1.429 . S
C218 C201 1.574 . S
C218 H212 0.949 . S
C218 C222 1.368 . S
C219 C200 1.429 . S
C219 C213 1.429 . S
C219 C220 1.523 . S
C220 C201 1.368 1_565 S
C220 C214 1.368 . S
C220 C219 1.523 . S
C221 C205 1.429 . S
C221 C217 1.429 . S
C221 C222 1.523 . S
C222 C206 1.368 1_545 S
C222 C218 1.368 . S
C222 C221 1.523 . S
H223 C198 0.950 . S
H224 C200 0.950 . S
H225 C201 0.949 . S
H226 C203 0.950 . S
H227 C205 0.950 . S
C228 C229 1.349 . S
C228 C230 1.327 . S
C228 H253 0.950 . S
C229 C228 1.349 . S
C229 C245 1.349 . S
C230 C228 1.327 . S
C230 C249 1.429 . S
C230 H254 0.950 . S
C231 C248 1.574 1_554 S
C231 C250 1.368 . S
C231 H255 0.949 . S
H232 C236 0.949 . S
C233 C234 1.349 . S
C233 C235 1.327 . S
C233 H256 0.950 . S
C234 C233 1.349 . S
C234 C246 1.349 . S
C235 C233 1.327 . S
C235 C251 1.429 . S
C235 H257 0.950 . S
C236 H232 0.949 . S
C236 C244 1.574 1_556 S
C236 C252 1.368 . S
H237 C245 0.950 . S
H238 C243 0.950 . S
H239 C244 0.949 . S
H240 C246 0.950 . S
H241 C247 0.950 . S
H242 C248 0.949 . S
C243 H238 0.950 . S
C243 C245 1.327 . S
C243 C249 1.429 . S
C244 C236 1.574 1_554 S
C244 H239 0.949 . S
C244 C250 1.368 . S
C245 C229 1.349 . S
C245 H237 0.950 . S
C245 C243 1.327 . S
C246 C234 1.349 . S
C246 H240 0.950 . S
C246 C247 1.327 . S
C247 H241 0.950 . S
C247 C246 1.327 . S
C247 C251 1.429 . S
C248 C231 1.574 1_556 S
C248 H242 0.949 . S
C248 C252 1.368 . S
C249 C230 1.429 . S
C249 C243 1.429 . S
C249 C250 1.523 . S
C250 C231 1.368 . S
C250 C244 1.368 . S
C250 C249 1.523 . S
C251 C235 1.429 . S
C251 C247 1.429 . S
C251 C252 1.523 . S
C252 C236 1.368 . S
C252 C248 1.368 . S
C252 C251 1.523 . S
H253 C228 0.950 . S
H254 C230 0.950 . S
H255 C231 0.949 . S
H256 C233 0.950 . S
H257 C235 0.950 . S
C258 C259 1.349 . S
C258 C260 1.327 . S
C258 H283 0.950 . S
C259 C258 1.349 . S
C259 C275 1.349 . S
C260 C258 1.327 . S
C260 C279 1.429 . S
C260 H284 0.950 . S
C261 C278 1.574 1_455 S
C261 C280 1.368 . S
C261 H285 0.949 . S
H262 C266 0.949 . S
C263 C264 1.349 . S
C263 C265 1.327 . S
C263 H286 0.950 . S
C264 C263 1.349 . S
C264 C276 1.349 . S
C265 C263 1.327 . S
C265 C281 1.429 . S
C265 H287 0.950 . S
C266 H262 0.949 . S
C266 C274 1.574 1_655 S
C266 C282 1.368 . S
H267 C275 0.950 . S
H268 C273 0.950 . S
H269 C274 0.949 . S
H270 C276 0.950 . S
H271 C277 0.950 . S
H272 C278 0.949 . S
C273 H268 0.950 . S
C273 C275 1.327 . S
C273 C279 1.429 . S
C274 C266 1.574 1_455 S
C274 H269 0.949 . S
C274 C280 1.368 . S
C275 C259 1.349 . S
C275 H267 0.950 . S
C275 C273 1.327 . S
C276 C264 1.349 . S
C276 H270 0.950 . S
C276 C277 1.327 . S
C277 H271 0.950 . S
C277 C276 1.327 . S
C277 C281 1.429 . S
C278 C261 1.574 1_655 S
C278 H272 0.949 . S
C278 C282 1.368 . S
C279 C260 1.429 . S
C279 C273 1.429 . S
C279 C280 1.523 . S
C280 C261 1.368 . S
C280 C274 1.368 . S
C280 C279 1.523 . S
C281 C265 1.429 . S
C281 C277 1.429 . S
C281 C282 1.523 . S
C282 C266 1.368 . S
C282 C278 1.368 . S
C282 C281 1.523 . S
H283 C258 0.950 . S
H284 C260 0.950 . S
H285 C261 0.949 . S
H286 C263 0.950 . S
H287 C265 0.950 . S
C288 C289 1.349 . S
C288 C290 1.327 . S
C288 H313 0.950 . S
C289 C288 1.349 . S
C289 C305 1.349 . S
C290 C288 1.327 . S
C290 C309 1.429 . S
C290 H314 0.950 . S
C291 C308 1.574 1_556 S
C291 C310 1.368 1_565 S
C291 H315 0.949 . S
H292 C296 0.949 . S
C293 C294 1.349 . S
C293 C295 1.327 . S
C293 H316 0.950 . S
C294 C293 1.349 . S
C294 C306 1.349 . S
C295 C293 1.327 . S
C295 C311 1.429 . S
C295 H317 0.950 . S
C296 H292 0.949 . S
C296 C304 1.574 1_554 S
C296 C312 1.368 1_545 S
H297 C305 0.950 . S
H298 C303 0.950 1_565 S
H299 C304 0.949 . S
H300 C306 0.950 . S
H301 C307 0.950 1_545 S
H302 C308 0.949 . S
C303 H298 0.950 1_545 S
C303 C305 1.327 . S
C303 C309 1.429 . S
C304 C296 1.574 1_556 S
C304 H299 0.949 . S
C304 C310 1.368 . S
C305 C289 1.349 . S
C305 H297 0.950 . S
C305 C303 1.327 . S
C306 C294 1.349 . S
C306 H300 0.950 . S
C306 C307 1.327 . S
C307 H301 0.950 1_565 S
C307 C306 1.327 . S
C307 C311 1.429 . S
C308 C291 1.574 1_554 S
C308 H302 0.949 . S
C308 C312 1.368 . S
C309 C290 1.429 . S
C309 C303 1.429 . S
C309 C310 1.523 . S
C310 C291 1.368 1_545 S
C310 C304 1.368 . S
C310 C309 1.523 . S
C311 C295 1.429 . S
C311 C307 1.429 . S
C311 C312 1.523 . S
C312 C296 1.368 1_565 S
C312 C308 1.368 . S
C312 C311 1.523 . S
H313 C288 0.950 . S
H314 C290 0.950 . S
H315 C291 0.949 . S
H316 C293 0.950 . S
H317 C295 0.950 . S
C318 C319 1.349 . S
C318 C320 1.327 . S
C318 H343 0.950 . S
C319 C318 1.349 . S
C319 C335 1.349 . S
C320 C318 1.327 . S
C320 C339 1.429 . S
C320 H344 0.950 . S
C321 C338 1.574 . S
C321 C340 1.368 . S
C321 H345 0.949 . S
H322 C326 0.949 . S
C323 C324 1.349 . S
C323 C325 1.327 . S
C323 H346 0.950 . S
C324 C323 1.349 . S
C324 C336 1.349 . S
C325 C323 1.327 . S
C325 C341 1.429 . S
C325 H347 0.950 . S
C326 H322 0.949 . S
C326 C334 1.574 . S
C326 C342 1.368 . S
H327 C335 0.950 . S
H328 C333 0.950 . S
H329 C334 0.949 . S
H330 C336 0.950 . S
H331 C337 0.950 . S
H332 C338 0.949 . S
C333 H328 0.950 . S
C333 C335 1.327 . S
C333 C339 1.429 . S
C334 C326 1.574 . S
C334 H329 0.949 . S
C334 C340 1.368 . S
C335 C319 1.349 . S
C335 H327 0.950 . S
C335 C333 1.327 . S
C336 C324 1.349 . S
C336 H330 0.950 . S
C336 C337 1.327 . S
C337 H331 0.950 . S
C337 C336 1.327 . S
C337 C341 1.429 . S
C338 C321 1.574 . S
C338 H332 0.949 . S
C338 C342 1.368 . S
C339 C320 1.429 . S
C339 C333 1.429 . S
C339 C340 1.523 . S
C340 C321 1.368 . S
C340 C334 1.368 . S
C340 C339 1.523 . S
C341 C325 1.429 . S
C341 C337 1.429 . S
C341 C342 1.523 . S
C342 C326 1.368 . S
C342 C338 1.368 . S
C342 C341 1.523 . S
H343 C318 0.950 . S
H344 C320 0.950 . S
H345 C321 0.949 . S
H346 C323 0.950 . S
H347 C325 0.950 . S
C348 C349 1.349 . S
C348 C350 1.327 . S
C348 H373 0.950 . S
C349 C348 1.349 . S
C349 C365 1.349 . S
C350 C348 1.327 . S
C350 C369 1.429 . S
C350 H374 0.950 . S
C351 C368 1.574 1_556 S
C351 C370 1.368 1_455 S
C351 H375 0.949 . S
H352 C356 0.949 . S
C353 C354 1.349 . S
C353 C355 1.327 . S
C353 H376 0.950 . S
C354 C353 1.349 . S
C354 C366 1.349 . S
C355 C353 1.327 . S
C355 C371 1.429 . S
C355 H377 0.950 . S
C356 H352 0.949 . S
C356 C364 1.574 1_554 S
C356 C372 1.368 1_655 S
H357 C365 0.950 . S
H358 C363 0.950 1_455 S
H359 C364 0.949 . S
H360 C366 0.950 . S
H361 C367 0.950 1_655 S
H362 C368 0.949 . S
C363 H358 0.950 1_655 S
C363 C365 1.327 . S
C363 C369 1.429 . S
C364 C356 1.574 1_556 S
C364 H359 0.949 . S
C364 C370 1.368 . S
C365 C349 1.349 . S
C365 H357 0.950 . S
C365 C363 1.327 . S
C366 C354 1.349 . S
C366 H360 0.950 . S
C366 C367 1.327 . S
C367 H361 0.950 1_455 S
C367 C366 1.327 . S
C367 C371 1.429 . S
C368 C351 1.574 1_554 S
C368 H362 0.949 . S
C368 C372 1.368 . S
C369 C350 1.429 . S
C369 C363 1.429 . S
C369 C370 1.523 . S
C370 C351 1.368 1_655 S
C370 C364 1.368 . S
C370 C369 1.523 . S
C371 C355 1.429 . S
C371 C367 1.429 . S
C371 C372 1.523 . S
C372 C356 1.368 1_455 S
C372 C368 1.368 . S
C372 C371 1.523 . S
H373 C348 0.950 . S
H374 C350 0.950 . S
H375 C351 0.949 . S
H376 C353 0.950 . S
H377 C355 0.950 . S
C378 C379 1.349 . S
C378 C380 1.327 . S
C378 H403 0.950 . S
C379 C378 1.349 . S
C379 C395 1.349 . S
C380 C378 1.327 . S
C380 C399 1.429 . S
C380 H404 0.950 . S
C381 C398 1.574 . S
C381 C400 1.368 1_545 S
C381 H405 0.949 . S
H382 C386 0.949 . S
C383 C384 1.349 . S
C383 C385 1.327 . S
C383 H406 0.950 . S
C384 C383 1.349 . S
C384 C396 1.349 . S
C385 C383 1.327 . S
C385 C401 1.429 . S
C385 H407 0.950 . S
C386 H382 0.949 . S
C386 C394 1.574 . S
C386 C402 1.368 1_565 S
H387 C395 0.950 1_545 S
H388 C393 0.938 1_545 S
H389 C394 0.949 . S
H390 C396 0.950 1_565 S
H391 C397 0.939 1_565 S
H392 C398 0.949 . S
C393 H388 0.938 1_565 S
C393 C395 1.330 . S
C393 C399 1.437 . S
C394 C386 1.574 . S
C394 H389 0.949 . S
C394 C400 1.368 . S
C395 C379 1.349 . S
C395 H387 0.950 1_565 S
C395 C393 1.330 . S
C396 C384 1.349 . S
C396 H390 0.950 1_545 S
C396 C397 1.330 . S
C397 H391 0.939 1_545 S
C397 C396 1.330 . S
C397 C401 1.436 . S
C398 C381 1.574 . S
C398 H392 0.949 . S
C398 C402 1.368 . S
C399 C380 1.429 . S
C399 C393 1.437 . S
C399 C400 1.523 . S
C400 C381 1.368 1_565 S
C400 C394 1.368 . S
C400 C399 1.523 . S
C401 C385 1.429 . S
C401 C397 1.436 . S
C401 C402 1.523 . S
C402 C386 1.368 1_545 S
C402 C398 1.368 . S
C402 C401 1.523 . S
H403 C378 0.950 . S
H404 C380 0.950 . S
H405 C381 0.949 . S
H406 C383 0.950 . S
H407 C385 0.950 . S
C408 C409 1.349 . S
C408 C410 1.327 . S
C408 H433 0.950 . S
C409 C408 1.349 . S
C409 C425 1.349 . S
C410 C408 1.327 . S
C410 C429 1.429 . S
C410 H434 0.950 . S
C411 C428 1.574 1_556 S
C411 C430 1.368 . S
C411 H435 0.949 . S
H412 C416 0.949 . S
C413 C414 1.349 . S
C413 C415 1.327 . S
C413 H436 0.950 . S
C414 C413 1.349 . S
C414 C426 1.349 . S
C415 C413 1.327 . S
C415 C431 1.429 . S
C415 H437 0.950 . S
C416 H412 0.949 . S
C416 C424 1.574 1_554 S
C416 C432 1.368 . S
H417 C425 0.950 . S
H418 C423 0.950 . S
H419 C424 0.949 . S
H420 C426 0.950 . S
H421 C427 0.950 . S
H422 C428 0.949 . S
C423 H418 0.950 . S
C423 C425 1.327 . S
C423 C429 1.429 . S
C424 C416 1.574 1_556 S
C424 H419 0.949 . S
C424 C430 1.368 . S
C425 C409 1.349 . S
C425 H417 0.950 . S
C425 C423 1.327 . S
C426 C414 1.349 . S
C426 H420 0.950 . S
C426 C427 1.327 . S
C427 H421 0.950 . S
C427 C426 1.327 . S
C427 C431 1.429 . S
C428 C411 1.574 1_554 S
C428 H422 0.949 . S
C428 C432 1.368 . S
C429 C410 1.429 . S
C429 C423 1.429 . S
C429 C430 1.523 . S
C430 C411 1.368 . S
C430 C424 1.368 . S
C430 C429 1.523 . S
C431 C415 1.429 . S
C431 C427 1.429 . S
C431 C432 1.523 . S
C432 C416 1.368 . S
C432 C428 1.368 . S
C432 C431 1.523 . S
H433 C408 0.950 . S
H434 C410 0.950 . S
H435 C411 0.949 . S
H436 C413 0.950 . S
H437 C415 0.950 . S
C438 C439 1.349 . S
C438 C440 1.327 . S
C438 H463 0.950 . S
C439 C438 1.349 . S
C439 C455 1.349 . S
C440 C438 1.327 . S
C440 C459 1.429 . S
C440 H464 0.950 . S
C441 C458 1.574 . S
C441 C460 1.368 1_455 S
C441 H465 0.949 . S
H442 C446 0.949 . S
C443 C444 1.349 . S
C443 C445 1.327 . S
C443 H466 0.950 . S
C444 C443 1.349 . S
C444 C456 1.349 . S
C445 C443 1.327 . S
C445 C461 1.429 . S
C445 H467 0.950 . S
C446 H442 0.949 . S
C446 C454 1.574 . S
C446 C462 1.368 1_655 S
H447 C455 0.950 1_455 S
H448 C453 0.971 . S
H449 C454 0.949 . S
H450 C456 0.950 1_655 S
H451 C457 0.971 . S
H452 C458 0.949 . S
C453 H448 0.971 . S
C453 C455 1.318 1_455 S
C453 C459 1.418 1_455 S
C454 C446 1.574 . S
C454 H449 0.949 . S
C454 C460 1.368 . S
C455 C439 1.349 . S
C455 H447 0.950 1_655 S
C455 C453 1.318 1_655 S
C456 C444 1.349 . S
C456 H450 0.950 1_455 S
C456 C457 1.318 1_455 S
C457 H451 0.971 . S
C457 C456 1.318 1_655 S
C457 C461 1.418 1_655 S
C458 C441 1.574 . S
C458 H452 0.949 . S
C458 C462 1.368 . S
C459 C440 1.429 . S
C459 C453 1.418 1_655 S
C459 C460 1.523 . S
C460 C441 1.368 1_655 S
C460 C454 1.368 . S
C460 C459 1.523 . S
C461 C445 1.429 . S
C461 C457 1.418 1_455 S
C461 C462 1.523 . S
C462 C446 1.368 1_455 S
C462 C458 1.368 . S
C462 C461 1.523 . S
H463 C438 0.950 . S
H464 C440 0.950 . S
H465 C441 0.949 . S
H466 C443 0.950 . S
H467 C445 0.950 . S
C468 C469 1.349 . S
C468 C470 1.329 . S
C468 H493 0.950 1_545 S
C469 C468 1.349 . S
C469 C485 1.349 . S
C470 C468 1.329 . S
C470 C489 1.434 . S
C470 H494 0.942 1_545 S
C471 C488 1.574 1_556 S
C471 C490 1.368 . S
C471 H495 0.949 . S
H472 C476 0.949 . S
C473 C474 1.349 . S
C473 C475 1.329 . S
C473 H496 0.950 1_565 S
C474 C473 1.349 . S
C474 C486 1.349 . S
C475 C473 1.329 . S
C475 C491 1.434 . S
C475 H497 0.943 1_565 S
C476 H472 0.949 . S
C476 C484 1.574 1_554 S
C476 C492 1.368 . S
H477 C485 0.950 . S
H478 C483 0.950 . S
H479 C484 0.949 . S
H480 C486 0.950 . S
H481 C487 0.950 . S
H482 C488 0.949 . S
C483 H478 0.950 . S
C483 C485 1.327 . S
C483 C489 1.429 . S
C484 C476 1.574 1_556 S
C484 H479 0.949 . S
C484 C490 1.368 1_565 S
C485 C469 1.349 . S
C485 H477 0.950 . S
C485 C483 1.327 . S
C486 C474 1.349 . S
C486 H480 0.950 . S
C486 C487 1.327 . S
C487 H481 0.950 . S
C487 C486 1.327 . S
C487 C491 1.429 . S
C488 C471 1.574 1_554 S
C488 H482 0.949 . S
C488 C492 1.368 1_545 S
C489 C470 1.434 . S
C489 C483 1.429 . S
C489 C490 1.523 . S
C490 C471 1.368 . S
C490 C484 1.368 1_545 S
C490 C489 1.523 . S
C491 C475 1.434 . S
C491 C487 1.429 . S
C491 C492 1.523 . S
C492 C476 1.368 . S
C492 C488 1.368 1_565 S
C492 C491 1.523 . S
H493 C468 0.950 1_565 S
H494 C470 0.942 1_565 S
H495 C471 0.949 . S
H496 C473 0.950 1_545 S
H497 C475 0.943 1_545 S
C498 C499 1.349 . S
C498 C500 1.327 . S
C498 H523 0.950 . S
C499 C498 1.349 . S
C499 C515 1.349 . S
C500 C498 1.327 . S
C500 C519 1.429 . S
C500 H524 0.950 . S
C501 C518 1.574 . S
C501 C520 1.368 . S
C501 H525 0.949 . S
H502 C506 0.949 . S
C503 C504 1.349 . S
C503 C505 1.327 . S
C503 H526 0.950 . S
C504 C503 1.349 . S
C504 C516 1.349 . S
C505 C503 1.327 . S
C505 C521 1.429 . S
C505 H527 0.950 . S
C506 H502 0.949 . S
C506 C514 1.574 . S
C506 C522 1.368 . S
H507 C515 0.950 . S
H508 C513 0.950 . S
H509 C514 0.949 . S
H510 C516 0.950 . S
H511 C517 0.950 . S
H512 C518 0.949 . S
C513 H508 0.950 . S
C513 C515 1.327 . S
C513 C519 1.429 . S
C514 C506 1.574 . S
C514 H509 0.949 . S
C514 C520 1.368 . S
C515 C499 1.349 . S
C515 H507 0.950 . S
C515 C513 1.327 . S
C516 C504 1.349 . S
C516 H510 0.950 . S
C516 C517 1.327 . S
C517 H511 0.950 . S
C517 C516 1.327 . S
C517 C521 1.429 . S
C518 C501 1.574 . S
C518 H512 0.949 . S
C518 C522 1.368 . S
C519 C500 1.429 . S
C519 C513 1.429 . S
C519 C520 1.523 . S
C520 C501 1.368 . S
C520 C514 1.368 . S
C520 C519 1.523 . S
C521 C505 1.429 . S
C521 C517 1.429 . S
C521 C522 1.523 . S
C522 C506 1.368 . S
C522 C518 1.368 . S
C522 C521 1.523 . S
H523 C498 0.950 . S
H524 C500 0.950 . S
H525 C501 0.949 . S
H526 C503 0.950 . S
H527 C505 0.950 . S
C528 C529 1.349 . S
C528 C530 1.327 . S
C528 H553 0.950 . S
C529 C528 1.349 . S
C529 C545 1.349 . S
C530 C528 1.327 . S
C530 C549 1.429 . S
C530 H554 0.950 . S
C531 C548 1.574 . S
C531 C550 1.368 . S
C531 H555 0.949 . S
H532 C536 0.949 . S
C533 C534 1.349 . S
C533 C535 1.327 . S
C533 H556 0.950 . S
C534 C533 1.349 . S
C534 C546 1.349 . S
C535 C533 1.327 . S
C535 C551 1.429 . S
C535 H557 0.950 . S
C536 H532 0.949 . S
C536 C544 1.574 . S
C536 C552 1.368 . S
H537 C545 0.950 . S
H538 C543 0.950 . S
H539 C544 0.949 . S
H540 C546 0.950 . S
H541 C547 0.950 . S
H542 C548 0.949 . S
C543 H538 0.950 . S
C543 C545 1.327 . S
C543 C549 1.429 . S
C544 C536 1.574 . S
C544 H539 0.949 . S
C544 C550 1.368 . S
C545 C529 1.349 . S
C545 H537 0.950 . S
C545 C543 1.327 . S
C546 C534 1.349 . S
C546 H540 0.950 . S
C546 C547 1.327 . S
C547 H541 0.950 . S
C547 C546 1.327 . S
C547 C551 1.429 . S
C548 C531 1.574 . S
C548 H542 0.949 . S
C548 C552 1.368 . S
C549 C530 1.429 . S
C549 C543 1.429 . S
C549 C550 1.523 . S
C550 C531 1.368 . S
C550 C544 1.368 . S
C550 C549 1.523 . S
C551 C535 1.429 . S
C551 C547 1.429 . S
C551 C552 1.523 . S
C552 C536 1.368 . S
C552 C548 1.368 . S
C552 C551 1.523 . S
H553 C528 0.950 . S
H554 C530 0.950 . S
H555 C531 0.949 . S
H556 C533 0.950 . S
H557 C535 0.950 . S
C558 C559 1.349 . S
C558 C560 1.327 . S
C558 H583 0.950 . S
C559 C558 1.349 . S
C559 C575 1.349 . S
C560 C558 1.327 . S
C560 C579 1.429 . S
C560 H584 0.950 . S
C561 C578 1.574 . S
C561 C580 1.368 . S
C561 H585 0.949 . S
H562 C566 0.949 . S
C563 C564 1.349 . S
C563 C565 1.327 . S
C563 H586 0.950 . S
C564 C563 1.349 . S
C564 C576 1.349 . S
C565 C563 1.327 . S
C565 C581 1.429 . S
C565 H587 0.950 . S
C566 H562 0.949 . S
C566 C574 1.574 . S
C566 C582 1.368 . S
H567 C575 0.950 . S
H568 C573 0.950 . S
H569 C574 0.949 . S
H570 C576 0.950 . S
H571 C577 0.950 . S
H572 C578 0.949 . S
C573 H568 0.950 . S
C573 C575 1.327 . S
C573 C579 1.429 . S
C574 C566 1.574 . S
C574 H569 0.949 . S
C574 C580 1.368 . S
C575 C559 1.349 . S
C575 H567 0.950 . S
C575 C573 1.327 . S
C576 C564 1.349 . S
C576 H570 0.950 . S
C576 C577 1.327 . S
C577 H571 0.950 . S
C577 C576 1.327 . S
C577 C581 1.429 . S
C578 C561 1.574 . S
C578 H572 0.949 . S
C578 C582 1.368 . S
C579 C560 1.429 . S
C579 C573 1.429 . S
C579 C580 1.523 . S
C580 C561 1.368 . S
C580 C574 1.368 . S
C580 C579 1.523 . S
C581 C565 1.429 . S
C581 C577 1.429 . S
C581 C582 1.523 . S
C582 C566 1.368 . S
C582 C578 1.368 . S
C582 C581 1.523 . S
H583 C558 0.950 . S
H584 C560 0.950 . S
H585 C561 0.949 . S
H586 C563 0.950 . S
H587 C565 0.950 . S
C588 C589 1.349 . S
C588 C590 1.327 . S
C588 H613 0.950 . S
C589 C588 1.349 . S
C589 C605 1.349 . S
C590 C588 1.327 . S
C590 C609 1.429 . S
C590 H614 0.950 . S
C591 C608 1.574 . S
C591 C610 1.368 . S
C591 H615 0.949 . S
H592 C596 0.949 . S
C593 C594 1.349 . S
C593 C595 1.327 . S
C593 H616 0.950 . S
C594 C593 1.349 . S
C594 C606 1.349 . S
C595 C593 1.327 . S
C595 C611 1.429 . S
C595 H617 0.950 . S
C596 H592 0.949 . S
C596 C604 1.574 . S
C596 C612 1.368 . S
H597 C605 0.950 . S
H598 C603 0.950 . S
H599 C604 0.949 . S
H600 C606 0.950 . S
H601 C607 0.950 . S
H602 C608 0.949 . S
C603 H598 0.950 . S
C603 C605 1.327 . S
C603 C609 1.429 . S
C604 C596 1.574 . S
C604 H599 0.949 . S
C604 C610 1.368 . S
C605 C589 1.349 . S
C605 H597 0.950 . S
C605 C603 1.327 . S
C606 C594 1.349 . S
C606 H600 0.950 . S
C606 C607 1.327 . S
C607 H601 0.950 . S
C607 C606 1.327 . S
C607 C611 1.429 . S
C608 C591 1.574 . S
C608 H602 0.949 . S
C608 C612 1.368 . S
C609 C590 1.429 . S
C609 C603 1.429 . S
C609 C610 1.523 . S
C610 C591 1.368 . S
C610 C604 1.368 . S
C610 C609 1.523 . S
C611 C595 1.429 . S
C611 C607 1.429 . S
C611 C612 1.523 . S
C612 C596 1.368 . S
C612 C608 1.368 . S
C612 C611 1.523 . S
H613 C588 0.950 . S
H614 C590 0.950 . S
H615 C591 0.949 . S
H616 C593 0.950 . S
H617 C595 0.950 . S
C618 C619 1.349 . S
C618 C620 1.327 . S
C618 H643 0.950 . S
C619 C618 1.349 . S
C619 C635 1.349 . S
C620 C618 1.327 . S
C620 C639 1.429 . S
C620 H644 0.950 . S
C621 C638 1.574 . S
C621 C640 1.368 . S
C621 H645 0.949 . S
H622 C626 0.949 . S
C623 C624 1.349 . S
C623 C625 1.327 . S
C623 H646 0.950 . S
C624 C623 1.349 . S
C624 C636 1.349 . S
C625 C623 1.327 . S
C625 C641 1.429 . S
C625 H647 0.950 . S
C626 H622 0.949 . S
C626 C634 1.574 . S
C626 C642 1.368 . S
H627 C635 0.950 . S
H628 C633 0.950 . S
H629 C634 0.949 . S
H630 C636 0.950 . S
H631 C637 0.950 . S
H632 C638 0.949 . S
C633 H628 0.950 . S
C633 C635 1.327 . S
C633 C639 1.429 . S
C634 C626 1.574 . S
C634 H629 0.949 . S
C634 C640 1.368 . S
C635 C619 1.349 . S
C635 H627 0.950 . S
C635 C633 1.327 . S
C636 C624 1.349 . S
C636 H630 0.950 . S
C636 C637 1.327 . S
C637 H631 0.950 . S
C637 C636 1.327 . S
C637 C641 1.429 . S
C638 C621 1.574 . S
C638 H632 0.949 . S
C638 C642 1.368 . S
C639 C620 1.429 . S
C639 C633 1.429 . S
C639 C640 1.523 . S
C640 C621 1.368 . S
C640 C634 1.368 . S
C640 C639 1.523 . S
C641 C625 1.429 . S
C641 C637 1.429 . S
C641 C642 1.523 . S
C642 C626 1.368 . S
C642 C638 1.368 . S
C642 C641 1.523 . S
H643 C618 0.950 . S
H644 C620 0.950 . S
H645 C621 0.949 . S
H646 C623 0.950 . S
H647 C625 0.950 . S
C648 C649 1.349 . S
C648 C650 1.327 . S
C648 H673 0.950 . S
C649 C648 1.349 . S
C649 C665 1.349 . S
C650 C648 1.327 . S
C650 C669 1.429 . S
C650 H674 0.950 . S
C651 C668 1.574 . S
C651 C670 1.368 . S
C651 H675 0.949 . S
H652 C656 0.949 . S
C653 C654 1.349 . S
C653 C655 1.327 . S
C653 H676 0.950 . S
C654 C653 1.349 . S
C654 C666 1.349 . S
C655 C653 1.327 . S
C655 C671 1.429 . S
C655 H677 0.950 . S
C656 H652 0.949 . S
C656 C664 1.574 . S
C656 C672 1.368 . S
H657 C665 0.950 . S
H658 C663 0.950 . S
H659 C664 0.949 . S
H660 C666 0.950 . S
H661 C667 0.950 . S
H662 C668 0.949 . S
C663 H658 0.950 . S
C663 C665 1.327 . S
C663 C669 1.429 . S
C664 C656 1.574 . S
C664 H659 0.949 . S
C664 C670 1.368 . S
C665 C649 1.349 . S
C665 H657 0.950 . S
C665 C663 1.327 . S
C666 C654 1.349 . S
C666 H660 0.950 . S
C666 C667 1.327 . S
C667 H661 0.950 . S
C667 C666 1.327 . S
C667 C671 1.429 . S
C668 C651 1.574 . S
C668 H662 0.949 . S
C668 C672 1.368 . S
C669 C650 1.429 . S
C669 C663 1.429 . S
C669 C670 1.523 . S
C670 C651 1.368 . S
C670 C664 1.368 . S
C670 C669 1.523 . S
C671 C655 1.429 . S
C671 C667 1.429 . S
C671 C672 1.523 . S
C672 C656 1.368 . S
C672 C668 1.368 . S
C672 C671 1.523 . S
H673 C648 0.950 . S
H674 C650 0.950 . S
H675 C651 0.949 . S
H676 C653 0.950 . S
H677 C655 0.950 . S
C678 C679 1.349 . S
C678 C680 1.327 . S
C678 H703 0.950 . S
C679 C678 1.349 . S
C679 C695 1.349 . S
C680 C678 1.327 . S
C680 C699 1.429 . S
C680 H704 0.950 . S
C681 C698 1.574 . S
C681 C700 1.368 . S
C681 H705 0.949 . S
H682 C686 0.949 . S
C683 C684 1.349 . S
C683 C685 1.327 . S
C683 H706 0.950 . S
C684 C683 1.349 . S
C684 C696 1.349 . S
C685 C683 1.327 . S
C685 C701 1.429 . S
C685 H707 0.950 . S
C686 H682 0.949 . S
C686 C694 1.574 . S
C686 C702 1.368 . S
H687 C695 0.950 . S
H688 C693 0.950 . S
H689 C694 0.949 . S
H690 C696 0.950 . S
H691 C697 0.950 . S
H692 C698 0.949 . S
C693 H688 0.950 . S
C693 C695 1.327 . S
C693 C699 1.429 . S
C694 C686 1.574 . S
C694 H689 0.949 . S
C694 C700 1.368 . S
C695 C679 1.349 . S
C695 H687 0.950 . S
C695 C693 1.327 . S
C696 C684 1.349 . S
C696 H690 0.950 . S
C696 C697 1.327 . S
C697 H691 0.950 . S
C697 C696 1.327 . S
C697 C701 1.429 . S
C698 C681 1.574 . S
C698 H692 0.949 . S
C698 C702 1.368 . S
C699 C680 1.429 . S
C699 C693 1.429 . S
C699 C700 1.523 . S
C700 C681 1.368 . S
C700 C694 1.368 . S
C700 C699 1.523 . S
C701 C685 1.429 . S
C701 C697 1.429 . S
C701 C702 1.523 . S
C702 C686 1.368 . S
C702 C698 1.368 . S
C702 C701 1.523 . S
H703 C678 0.950 . S
H704 C680 0.950 . S
H705 C681 0.949 . S
H706 C683 0.950 . S
H707 C685 0.950 . S
C708 C709 1.349 . S
C708 C710 1.327 . S
C708 H733 0.950 . S
C709 C708 1.349 . S
C709 C725 1.349 . S
C710 C708 1.327 . S
C710 C729 1.429 . S
C710 H734 0.950 . S
C711 C728 1.574 . S
C711 C730 1.368 . S
C711 H735 0.949 . S
H712 C716 0.949 . S
C713 C714 1.349 . S
C713 C715 1.327 . S
C713 H736 0.950 . S
C714 C713 1.349 . S
C714 C726 1.349 . S
C715 C713 1.327 . S
C715 C731 1.429 . S
C715 H737 0.950 . S
C716 H712 0.949 . S
C716 C724 1.574 . S
C716 C732 1.368 . S
H717 C725 0.950 . S
H718 C723 0.950 . S
H719 C724 0.949 . S
H720 C726 0.950 . S
H721 C727 0.950 . S
H722 C728 0.949 . S
C723 H718 0.950 . S
C723 C725 1.327 . S
C723 C729 1.429 . S
C724 C716 1.574 . S
C724 H719 0.949 . S
C724 C730 1.368 . S
C725 C709 1.349 . S
C725 H717 0.950 . S
C725 C723 1.327 . S
C726 C714 1.349 . S
C726 H720 0.950 . S
C726 C727 1.327 . S
C727 H721 0.950 . S
C727 C726 1.327 . S
C727 C731 1.429 . S
C728 C711 1.574 . S
C728 H722 0.949 . S
C728 C732 1.368 . S
C729 C710 1.429 . S
C729 C723 1.429 . S
C729 C730 1.523 . S
C730 C711 1.368 . S
C730 C724 1.368 . S
C730 C729 1.523 . S
C731 C715 1.429 . S
C731 C727 1.429 . S
C731 C732 1.523 . S
C732 C716 1.368 . S
C732 C728 1.368 . S
C732 C731 1.523 . S
H733 C708 0.950 . S
H734 C710 0.950 . S
H735 C711 0.949 . S
H736 C713 0.950 . S
H737 C715 0.950 . S
C738 C739 1.349 . S
C738 C740 1.327 . S
C738 H763 0.950 . S
C739 C738 1.349 . S
C739 C755 1.349 . S
C740 C738 1.327 . S
C740 C759 1.429 . S
C740 H764 0.950 . S
C741 C758 1.574 . S
C741 C760 1.368 . S
C741 H765 0.949 . S
H742 C746 0.949 . S
C743 C744 1.349 . S
C743 C745 1.327 . S
C743 H766 0.950 . S
C744 C743 1.349 . S
C744 C756 1.349 . S
C745 C743 1.327 . S
C745 C761 1.429 . S
C745 H767 0.950 . S
C746 H742 0.949 . S
C746 C754 1.574 . S
C746 C762 1.368 . S
H747 C755 0.950 . S
H748 C753 0.950 . S
H749 C754 0.949 . S
H750 C756 0.950 . S
H751 C757 0.950 . S
H752 C758 0.949 . S
C753 H748 0.950 . S
C753 C755 1.327 . S
C753 C759 1.429 . S
C754 C746 1.574 . S
C754 H749 0.949 . S
C754 C760 1.368 . S
C755 C739 1.349 . S
C755 H747 0.950 . S
C755 C753 1.327 . S
C756 C744 1.349 . S
C756 H750 0.950 . S
C756 C757 1.327 . S
C757 H751 0.950 . S
C757 C756 1.327 . S
C757 C761 1.429 . S
C758 C741 1.574 . S
C758 H752 0.949 . S
C758 C762 1.368 . S
C759 C740 1.429 . S
C759 C753 1.429 . S
C759 C760 1.523 . S
C760 C741 1.368 . S
C760 C754 1.368 . S
C760 C759 1.523 . S
C761 C745 1.429 . S
C761 C757 1.429 . S
C761 C762 1.523 . S
C762 C746 1.368 . S
C762 C758 1.368 . S
C762 C761 1.523 . S
H763 C738 0.950 . S
H764 C740 0.950 . S
H765 C741 0.949 . S
H766 C743 0.950 . S
H767 C745 0.950 . S
C768 C769 1.349 . S
C768 C770 1.327 . S
C768 H793 0.950 . S
C769 C768 1.349 . S
C769 C785 1.349 . S
C770 C768 1.327 . S
C770 C789 1.429 . S
C770 H794 0.950 . S
C771 C788 1.574 . S
C771 C790 1.368 . S
C771 H795 0.949 . S
H772 C776 0.949 . S
C773 C774 1.349 . S
C773 C775 1.327 . S
C773 H796 0.950 . S
C774 C773 1.349 . S
C774 C786 1.349 . S
C775 C773 1.327 . S
C775 C791 1.429 . S
C775 H797 0.950 . S
C776 H772 0.949 . S
C776 C784 1.574 . S
C776 C792 1.368 . S
H777 C785 0.950 . S
H778 C783 0.950 . S
H779 C784 0.949 . S
H780 C786 0.950 . S
H781 C787 0.950 . S
H782 C788 0.949 . S
C783 H778 0.950 . S
C783 C785 1.327 . S
C783 C789 1.429 . S
C784 C776 1.574 . S
C784 H779 0.949 . S
C784 C790 1.368 . S
C785 C769 1.349 . S
C785 H777 0.950 . S
C785 C783 1.327 . S
C786 C774 1.349 . S
C786 H780 0.950 . S
C786 C787 1.327 . S
C787 H781 0.950 . S
C787 C786 1.327 . S
C787 C791 1.429 . S
C788 C771 1.574 . S
C788 H782 0.949 . S
C788 C792 1.368 . S
C789 C770 1.429 . S
C789 C783 1.429 . S
C789 C790 1.523 . S
C790 C771 1.368 . S
C790 C784 1.368 . S
C790 C789 1.523 . S
C791 C775 1.429 . S
C791 C787 1.429 . S
C791 C792 1.523 . S
C792 C776 1.368 . S
C792 C788 1.368 . S
C792 C791 1.523 . S
H793 C768 0.950 . S
H794 C770 0.950 . S
H795 C771 0.949 . S
H796 C773 0.950 . S
H797 C775 0.950 . S
C798 C799 1.349 . S
C798 C800 1.327 . S
C798 H823 0.950 . S
C799 C798 1.349 . S
C799 C815 1.349 . S
C800 C798 1.327 . S
C800 C819 1.429 . S
C800 H824 0.950 . S
C801 C818 1.574 . S
C801 C820 1.368 . S
C801 H825 0.949 . S
H802 C806 0.949 . S
C803 C804 1.349 . S
C803 C805 1.327 . S
C803 H826 0.950 . S
C804 C803 1.349 . S
C804 C816 1.349 . S
C805 C803 1.327 . S
C805 C821 1.429 . S
C805 H827 0.950 . S
C806 H802 0.949 . S
C806 C814 1.574 . S
C806 C822 1.368 . S
H807 C815 0.950 . S
H808 C813 0.950 . S
H809 C814 0.949 . S
H810 C816 0.950 . S
H811 C817 0.950 . S
H812 C818 0.949 . S
C813 H808 0.950 . S
C813 C815 1.327 . S
C813 C819 1.429 . S
C814 C806 1.574 . S
C814 H809 0.949 . S
C814 C820 1.368 . S
C815 C799 1.349 . S
C815 H807 0.950 . S
C815 C813 1.327 . S
C816 C804 1.349 . S
C816 H810 0.950 . S
C816 C817 1.327 . S
C817 H811 0.950 . S
C817 C816 1.327 . S
C817 C821 1.429 . S
C818 C801 1.574 . S
C818 H812 0.949 . S
C818 C822 1.368 . S
C819 C800 1.429 . S
C819 C813 1.429 . S
C819 C820 1.523 . S
C820 C801 1.368 . S
C820 C814 1.368 . S
C820 C819 1.523 . S
C821 C805 1.429 . S
C821 C817 1.429 . S
C821 C822 1.523 . S
C822 C806 1.368 . S
C822 C818 1.368 . S
C822 C821 1.523 . S
H823 C798 0.950 . S
H824 C800 0.950 . S
H825 C801 0.949 . S
H826 C803 0.950 . S
H827 C805 0.950 . S
C828 C829 1.349 . S
C828 C830 1.327 . S
C828 H853 0.950 . S
C829 C828 1.349 . S
C829 C845 1.349 . S
C830 C828 1.327 . S
C830 C849 1.429 . S
C830 H854 0.950 . S
C831 C848 1.574 . S
C831 C850 1.368 . S
C831 H855 0.949 . S
H832 C836 0.949 . S
C833 C834 1.349 . S
C833 C835 1.327 . S
C833 H856 0.950 . S
C834 C833 1.349 . S
C834 C846 1.349 . S
C835 C833 1.327 . S
C835 C851 1.429 . S
C835 H857 0.950 . S
C836 H832 0.949 . S
C836 C844 1.574 . S
C836 C852 1.368 . S
H837 C845 0.950 . S
H838 C843 0.950 . S
H839 C844 0.949 . S
H840 C846 0.950 . S
H841 C847 0.950 . S
H842 C848 0.949 . S
C843 H838 0.950 . S
C843 C845 1.327 . S
C843 C849 1.429 . S
C844 C836 1.574 . S
C844 H839 0.949 . S
C844 C850 1.368 . S
C845 C829 1.349 . S
C845 H837 0.950 . S
C845 C843 1.327 . S
C846 C834 1.349 . S
C846 H840 0.950 . S
C846 C847 1.327 . S
C847 H841 0.950 . S
C847 C846 1.327 . S
C847 C851 1.429 . S
C848 C831 1.574 . S
C848 H842 0.949 . S
C848 C852 1.368 . S
C849 C830 1.429 . S
C849 C843 1.429 . S
C849 C850 1.523 . S
C850 C831 1.368 . S
C850 C844 1.368 . S
C850 C849 1.523 . S
C851 C835 1.429 . S
C851 C847 1.429 . S
C851 C852 1.523 . S
C852 C836 1.368 . S
C852 C848 1.368 . S
C852 C851 1.523 . S
H853 C828 0.950 . S
H854 C830 0.950 . S
H855 C831 0.949 . S
H856 C833 0.950 . S
H857 C835 0.950 . S
C858 C859 1.349 . S
C858 C860 1.327 . S
C858 H883 0.950 . S
C859 C858 1.349 . S
C859 C875 1.349 . S
C860 C858 1.327 . S
C860 C879 1.429 . S
C860 H884 0.950 . S
C861 C878 1.574 . S
C861 C880 1.368 . S
C861 H885 0.949 . S
H862 C866 0.949 . S
C863 C864 1.349 . S
C863 C865 1.327 . S
C863 H886 0.950 . S
C864 C863 1.349 . S
C864 C876 1.349 . S
C865 C863 1.327 . S
C865 C881 1.429 . S
C865 H887 0.950 . S
C866 H862 0.949 . S
C866 C874 1.574 . S
C866 C882 1.368 . S
H867 C875 0.950 . S
H868 C873 0.950 . S
H869 C874 0.949 . S
H870 C876 0.950 . S
H871 C877 0.950 . S
H872 C878 0.949 . S
C873 H868 0.950 . S
C873 C875 1.327 . S
C873 C879 1.429 . S
C874 C866 1.574 . S
C874 H869 0.949 . S
C874 C880 1.368 . S
C875 C859 1.349 . S
C875 H867 0.950 . S
C875 C873 1.327 . S
C876 C864 1.349 . S
C876 H870 0.950 . S
C876 C877 1.327 . S
C877 H871 0.950 . S
C877 C876 1.327 . S
C877 C881 1.429 . S
C878 C861 1.574 . S
C878 H872 0.949 . S
C878 C882 1.368 . S
C879 C860 1.429 . S
C879 C873 1.429 . S
C879 C880 1.523 . S
C880 C861 1.368 . S
C880 C874 1.368 . S
C880 C879 1.523 . S
C881 C865 1.429 . S
C881 C877 1.429 . S
C881 C882 1.523 . S
C882 C866 1.368 . S
C882 C878 1.368 . S
C882 C881 1.523 . S
H883 C858 0.950 . S
H884 C860 0.950 . S
H885 C861 0.949 . S
H886 C863 0.950 . S
H887 C865 0.950 . S
C169 C7 1.256 . S
C174 C161 1.256 . S
C199 C91 1.256 . S
C204 C21 1.256 . S
C229 C35 1.256 . S
C234 C105 1.256 . S
C259 C119 1.256 . S
C264 C49 1.256 . S
C289 C133 1.256 . S
C294 C63 1.256 . S
C319 C147 1.256 . S
C324 C77 1.256 . S
C349 C45 1.238 . S
C354 C115 1.238 . S
C379 C59 1.238 . S
C384 C129 1.238 . S
C409 C73 1.238 . S
C414 C143 1.238 . S
C439 C157 1.238 . S
C444 C3 1.238 . S
C469 C17 1.238 . S
C474 C87 1.238 . S
C499 C31 1.238 . S
C504 C101 1.238 . S
C529 C121 1.706 . S
C534 C9 1.706 . S
C559 C135 1.706 . S
C564 C23 1.706 . S
C589 C37 1.706 . S
C594 C149 1.706 . S
C619 C51 1.706 . S
C624 C163 1.706 . S
C649 C65 1.706 . S
C654 C93 1.706 . S
C679 C107 1.706 . S
C684 C79 1.706 . S
C709 C8 1.647 . S
C714 C148 1.647 . S
C739 C162 1.646 . S
C744 C22 1.646 . S
C769 C36 1.647 . S
C774 C92 1.647 . S
C799 C50 1.647 . S
C804 C106 1.647 . S
C829 C64 1.647 . S
C834 C120 1.647 . S
C859 C78 1.647 . S
C864 C134 1.647 . S
