# Generated by pormake.
# Topology umy, (4)-cn, num edge types: 1
# Building blocks:
#     Node 0, Type 0, BuildingBlock: UXUYUI_clean_sbu_0, # of connection points: 4
#     Node 1, Type 0, BuildingBlock: UXUYUI_clean_sbu_0, # of connection points: 4
#     Node 2, Type 0, BuildingBlock: UXUYUI_clean_sbu_0, # of connection points: 4
#     Node 3, Type 0, BuildingBlock: UXUYUI_clean_sbu_0, # of connection points: 4
#     Node 4, Type 0, BuildingBlock: UXUYUI_clean_sbu_0, # of connection points: 4
#     Node 5, Type 0, BuildingBlock: UXUYUI_clean_sbu_0, # of connection points: 4
#     Node 6, Type 0, BuildingBlock: UXUYUI_clean_sbu_0, # of connection points: 4
#     Node 7, Type 0, BuildingBlock: UXUYUI_clean_sbu_0, # of connection points: 4
#     Node 8, Type 0, BuildingBlock: UXUYUI_clean_sbu_0, # of connection points: 4
#     Node 9, Type 0, BuildingBlock: UXUYUI_clean_sbu_0, # of connection points: 4
#     Node 10, Type 0, BuildingBlock: UXUYUI_clean_sbu_0, # of connection points: 4
#     Node 11, Type 0, BuildingBlock: UXUYUI_clean_sbu_0, # of connection points: 4
#     Edge 12, Type (0, 0), BuildingBlock: AJUNOK_clean_linker_0, # of connection points: 2
#     Edge 13, Type (0, 0), BuildingBlock: AJUNOK_clean_linker_0, # of connection points: 2
#     Edge 14, Type (0, 0), BuildingBlock: AJUNOK_clean_linker_0, # of connection points: 2
#     Edge 15, Type (0, 0), BuildingBlock: AJUNOK_clean_linker_0, # of connection points: 2
#     Edge 16, Type (0, 0), BuildingBlock: AJUNOK_clean_linker_0, # of connection points: 2
#     Edge 17, Type (0, 0), BuildingBlock: AJUNOK_clean_linker_0, # of connection points: 2
#     Edge 18, Type (0, 0), BuildingBlock: AJUNOK_clean_linker_0, # of connection points: 2
#     Edge 19, Type (0, 0), BuildingBlock: AJUNOK_clean_linker_0, # of connection points: 2
#     Edge 20, Type (0, 0), BuildingBlock: AJUNOK_clean_linker_0, # of connection points: 2
#     Edge 21, Type (0, 0), BuildingBlock: AJUNOK_clean_linker_0, # of connection points: 2
#     Edge 22, Type (0, 0), BuildingBlock: AJUNOK_clean_linker_0, # of connection points: 2
#     Edge 23, Type (0, 0), BuildingBlock: AJUNOK_clean_linker_0, # of connection points: 2
#     Edge 24, Type (0, 0), BuildingBlock: AJUNOK_clean_linker_0, # of connection points: 2
#     Edge 25, Type (0, 0), BuildingBlock: AJUNOK_clean_linker_0, # of connection points: 2
#     Edge 26, Type (0, 0), BuildingBlock: AJUNOK_clean_linker_0, # of connection points: 2
#     Edge 27, Type (0, 0), BuildingBlock: AJUNOK_clean_linker_0, # of connection points: 2
#     Edge 28, Type (0, 0), BuildingBlock: AJUNOK_clean_linker_0, # of connection points: 2
#     Edge 29, Type (0, 0), BuildingBlock: AJUNOK_clean_linker_0, # of connection points: 2
#     Edge 30, Type (0, 0), BuildingBlock: AJUNOK_clean_linker_0, # of connection points: 2
#     Edge 31, Type (0, 0), BuildingBlock: AJUNOK_clean_linker_0, # of connection points: 2
#     Edge 32, Type (0, 0), BuildingBlock: AJUNOK_clean_linker_0, # of connection points: 2
#     Edge 33, Type (0, 0), BuildingBlock: AJUNOK_clean_linker_0, # of connection points: 2
#     Edge 34, Type (0, 0), BuildingBlock: AJUNOK_clean_linker_0, # of connection points: 2
#     Edge 35, Type (0, 0), BuildingBlock: AJUNOK_clean_linker_0, # of connection points: 2
# Relax obj value: 0.205
# Max RMSD: 0.156
# Mean RMSD: 0.156
data_MOF--net-umy--node1-UXUYUI_clean_sbu_0--edge1-AJUNOK_clean_linker_0
_symmetry_space_group_name_H-M    P1
_symmetry_Int_Tables_number       1
_symmetry_cell_setting            triclinic
loop_
_symmetry_equiv_pos_as_xyz
'x, y, z'
_cell_length_a     48.196667
_cell_length_b     48.227573
_cell_length_c     54.607389
_cell_angle_alpha  90.024224
_cell_angle_beta   89.973002
_cell_angle_gamma 119.99702
loop_
_atom_site_label
_atom_site_type_symbol
_atom_site_fract_x
_atom_site_fract_y
_atom_site_fract_z
_atom_type_partial_charge
Li0 Li 0.08589 0.33989 0.09322 0.0
Li1 Li 0.09246 0.3616 0.13614 0.0
Li2 Li 0.03946 0.32666 0.11968 0.0
Li3 Li 0.0697 0.38047 0.10595 0.0
C4 C 0.05988 0.28743 0.13445 0.0
N5 N 0.02692 0.22678 0.15441 0.0
C6 C 0.05417 0.28355 0.15965 0.0
C7 C 0.04907 0.26054 0.1194 0.0
C8 C 0.03737 0.25266 0.16938 0.0
C9 C 0.03242 0.23006 0.12985 0.0
C10 C 0.14461 0.40281 0.11222 0.0
C11 C 0.18594 0.44409 0.13719 0.0
N12 N 0.20778 0.43737 0.12723 0.0
C13 C 0.16755 0.39652 0.10209 0.0
C14 C 0.15394 0.42699 0.12977 0.0
C15 C 0.19933 0.41419 0.10995 0.0
C16 C 0.11129 0.33656 0.04634 0.0
N17 N 0.10703 0.32708 0.07018 0.0
C18 C 0.14237 0.30614 0.06547 0.0
C19 C 0.12154 0.31154 0.07974 0.0
C20 C 0.14828 0.31678 0.04112 0.0
C21 C 0.13179 0.33133 0.03127 0.0
H22 H 0.09986 0.34936 0.03934 0.0
H23 H 0.11822 0.30484 0.09887 0.0
C24 C 0.11118 0.37957 0.18554 0.0
N25 N 0.11817 0.36944 0.16442 0.0
C26 C 0.12848 0.38255 0.20685 0.0
C27 C 0.16002 0.36502 0.18412 0.0
C28 C 0.14199 0.36216 0.16332 0.0
C29 C 0.15295 0.37481 0.2063 0.0
H30 H 0.09165 0.38451 0.18601 0.0
H31 H 0.14651 0.35348 0.14636 0.0
C32 C 0.01877 0.31853 0.07367 0.0
N33 N 0.96332 0.27229 0.05141 0.0
C34 C 0.98995 0.31837 0.07715 0.0
C35 C 0.01943 0.29527 0.05879 0.0
C36 C 0.96216 0.29474 0.06578 0.0
C37 C 0.99113 0.27209 0.0477 0.0
C38 C 0.04326 0.38608 0.14526 0.0
C39 C 0.01135 0.3773 0.14068 0.0
C40 C 0.06422 0.41642 0.1548 0.0
C41 C 1.00101 0.39913 0.1456 0.0
C42 C 0.05298 0.43759 0.15939 0.0
N43 N 0.02188 0.42859 0.15472 0.0
C44 C 0.98986 0.29655 0.15358 0.0
C45 C 0.98102 0.26356 0.11898 0.0
C46 C 0.96253 0.27245 0.16499 0.0
N47 N 0.99855 0.29196 0.13091 0.0
C48 C 0.95333 0.23868 0.12976 0.0
C49 C 0.9439 0.24299 0.15314 0.0
H50 H 0.00468 0.31871 0.16322 0.0
H51 H 0.98901 0.25968 0.10152 0.0
C52 C 0.09608 0.44683 0.09683 0.0
N53 N 0.06861 0.41801 0.09553 0.0
C54 C 0.09566 0.4751 0.09222 0.0
C55 C 0.03888 0.44357 0.08417 0.0
C56 C 0.04044 0.41587 0.08878 0.0
C57 C 0.06666 0.4737 0.08631 0.0
H58 H 0.11822 0.44797 0.10201 0.0
H59 H 0.01896 0.39273 0.08772 0.0
O60 O 0.07537 0.31742 0.12448 0.0
O61 O 0.11324 0.38542 0.10499 0.0
O62 O 0.0463 0.34158 0.08445 0.0
O63 O 0.05406 0.36534 0.13995 0.0
H64 H 0.06227 0.30418 0.17149 0.0
H65 H 0.05312 0.26321 0.09983 0.0
H66 H 0.03255 0.24926 0.18882 0.0
H67 H 0.02372 0.209 0.11843 0.0
H68 H 0.19338 0.46263 0.15093 0.0
H69 H 0.161 0.37828 0.08826 0.0
H70 H 0.13656 0.43215 0.13789 0.0
H71 H 0.21727 0.40946 0.10232 0.0
H72 H 0.15461 0.29472 0.07361 0.0
H73 H 0.13597 0.33996 0.01257 0.0
H74 H 0.12251 0.39037 0.22364 0.0
H75 H 0.17852 0.35855 0.1831 0.0
H76 H 0.98895 0.33603 0.08873 0.0
H77 H 0.0415 0.29501 0.05593 0.0
H78 H 0.93965 0.2942 0.06843 0.0
H79 H 0.99126 0.2539 0.03619 0.0
H80 H 0.99485 0.35409 0.13305 0.0
H81 H 0.089 0.42371 0.15835 0.0
H82 H 0.97645 0.39272 0.14199 0.0
H83 H 0.06901 0.46123 0.16658 0.0
H84 H 0.95618 0.27673 0.18306 0.0
H85 H 0.94009 0.21603 0.12026 0.0
H86 H 0.11761 0.49789 0.09397 0.0
H87 H 0.01616 0.44147 0.07917 0.0
Li88 Li 0.74884 0.08561 0.26197 0.0
Li89 Li 0.73732 0.08981 0.3051 0.0
Li90 Li 0.72026 0.03601 0.28528 0.0
Li91 Li 0.6922 0.06562 0.27527 0.0
C92 C 0.79467 0.08156 0.28603 0.0
N93 N 0.8573 0.10043 0.27395 0.0
C94 C 0.81962 0.11088 0.29437 0.0
C95 C 0.80155 0.06163 0.27185 0.0
C96 C 0.85114 0.12005 0.28798 0.0
C97 C 0.83338 0.07165 0.26587 0.0
C98 C 0.72487 0.13474 0.2836 0.0
C99 C 0.69607 0.15398 0.30776 0.0
N100 N 0.71487 0.18384 0.29843 0.0
C101 C 0.74383 0.16558 0.27416 0.0
C102 C 0.70075 0.12886 0.30048 0.0
C103 C 0.73844 0.19009 0.28193 0.0
C104 C 0.78478 0.09852 0.21646 0.0
N105 N 0.78151 0.10994 0.23842 0.0
C106 C 0.82856 0.16039 0.23098 0.0
C107 C 0.8026 0.14027 0.24573 0.0
C108 C 0.83285 0.14936 0.20831 0.0
C109 C 0.81047 0.11801 0.20097 0.0
H110 H 0.76771 0.07428 0.21108 0.0
H111 H 0.79948 0.14865 0.26333 0.0
C112 C 0.74818 0.09739 0.35565 0.0
N113 N 0.75426 0.11375 0.33423 0.0
C114 C 0.76261 0.11352 0.37731 0.0
C115 C 0.78908 0.16309 0.35449 0.0
C116 C 0.77411 0.146 0.33326 0.0
C117 C 0.78382 0.1467 0.37678 0.0
H118 H 0.7327 0.07167 0.35578 0.0
H119 H 0.7792 0.15829 0.31587 0.0
C120 C 0.6973 0.01743 0.23937 0.0
N121 N 0.67322 0.9604 0.21405 0.0
C122 C 0.66436 0.99858 0.23533 0.0
C123 C 0.71803 0.00745 0.23036 0.0
C124 C 0.65264 0.96979 0.22251 0.0
C125 C 0.70538 0.97847 0.21767 0.0
C126 C 0.67011 0.03377 0.3225 0.0
C127 C 0.64936 1.00081 0.32014 0.0
C128 C 0.66449 0.05071 0.34076 0.0
C129 C 0.623 0.98544 0.33579 0.0
C130 C 0.63788 0.03448 0.35606 0.0
N131 N 0.61784 1.00246 0.35327 0.0
C132 C 0.73715 0.9978 0.31155 0.0
C133 C 0.69218 0.96628 0.28633 0.0
C134 C 0.73422 0.97042 0.32264 0.0
N135 N 0.716 0.99541 0.29405 0.0
C136 C 0.6884 0.93814 0.29695 0.0
C137 C 0.70907 0.94015 0.31585 0.0
H138 H 0.75561 0.02116 0.31764 0.0
H139 H 0.67506 0.96477 0.27291 0.0
C140 C 0.65233 0.08746 0.25502 0.0
N141 N 0.65188 0.06263 0.2672 0.0
C142 C 0.62387 0.08762 0.25052 0.0
C143 C 0.59466 0.03589 0.27002 0.0
C144 C 0.62372 0.03683 0.27427 0.0
C145 C 0.59451 0.06166 0.25819 0.0
H146 H 0.6749 0.10751 0.24918 0.0
H147 H 0.62369 0.01691 0.28321 0.0
O148 O 0.76362 0.0725 0.29159 0.0
O149 O 0.73011 0.11054 0.27643 0.0
O150 O 0.70921 0.04578 0.25171 0.0
O151 O 0.69634 0.04913 0.30757 0.0
H152 H 0.81467 0.12653 0.30542 0.0
H153 H 0.78251 0.03871 0.26552 0.0
H154 H 0.87068 0.1428 0.29413 0.0
H155 H 0.83906 0.05655 0.25479 0.0
H156 H 0.67744 0.14973 0.3208 0.0
H157 H 0.76252 0.17055 0.26098 0.0
H158 H 0.68563 0.10509 0.30766 0.0
H159 H 0.75298 0.21409 0.27482 0.0
H160 H 0.84513 0.18443 0.23726 0.0
H161 H 0.81317 0.10852 0.18373 0.0
H162 H 0.75765 0.10012 0.39422 0.0
H163 H 0.80551 0.18864 0.35335 0.0
H164 H 0.64802 0.00607 0.24202 0.0
H165 H 0.74359 0.02186 0.23319 0.0
H166 H 0.62719 0.9549 0.2193 0.0
H167 H 0.72112 0.97037 0.21069 0.0
H168 H 0.65321 0.98733 0.3061 0.0
H169 H 0.6806 0.07608 0.34327 0.0
H170 H 0.60661 0.95999 0.33401 0.0
H171 H 0.63322 0.04733 0.37021 0.0
H172 H 0.7509 0.97293 0.33694 0.0
H173 H 0.66859 0.9152 0.29134 0.0
H174 H 0.62496 0.10822 0.24166 0.0
H175 H 0.57253 0.01521 0.27593 0.0
Li176 Li 0.66973 0.74593 0.42535 0.0
Li177 Li 0.65099 0.73495 0.46923 0.0
Li178 Li 0.68522 0.7156 0.45281 0.0
Li179 Li 0.62965 0.68959 0.44122 0.0
C180 C 0.72485 0.77531 0.46542 0.0
N181 N 0.78562 0.8017 0.4851 0.0
C182 C 0.72936 0.78023 0.49067 0.0
C183 C 0.75122 0.78397 0.45015 0.0
C184 C 0.76029 0.79358 0.50027 0.0
C185 C 0.78176 0.79724 0.46047 0.0
C186 C 0.60567 0.74032 0.4448 0.0
C187 C 0.55949 0.73548 0.46591 0.0
N188 N 0.56686 0.765 0.45768 0.0
C189 C 0.61267 0.77052 0.4364 0.0
C190 C 0.57876 0.72255 0.45954 0.0
C191 C 0.59279 0.78261 0.44316 0.0
C192 C 0.66144 0.77185 0.38054 0.0
N193 N 0.68054 0.77746 0.40043 0.0
C194 C 0.71136 0.83301 0.39034 0.0
C195 C 0.70547 0.80718 0.40528 0.0
C196 C 0.69107 0.82839 0.37043 0.0
C197 C 0.66642 0.79716 0.3651 0.0
H198 H 0.64137 0.74808 0.37739 0.0
H199 H 0.7199 0.81119 0.42143 0.0
C200 C 0.63511 0.73916 0.51866 0.0
N201 N 0.64296 0.75425 0.49662 0.0
C202 C 0.63103 0.75418 0.5391 0.0
C203 C 0.64316 0.79994 0.51374 0.0
C204 C 0.64737 0.7842 0.49389 0.0
C205 C 0.63496 0.78496 0.53676 0.0
H206 H 0.63289 0.71584 0.52054 0.0
H207 H 0.65471 0.79609 0.47635 0.0
C208 C 0.68506 0.69366 0.4065 0.0
N209 N 0.72079 0.67258 0.38142 0.0
C210 C 0.68093 0.66338 0.41137 0.0
C211 C 0.70717 0.71317 0.38879 0.0
C212 C 0.69931 0.65319 0.39853 0.0
C213 C 0.72504 0.70206 0.37631 0.0
C214 C 0.6292 0.6642 0.48533 0.0
C215 C 0.64016 0.64235 0.48713 0.0
C216 C 0.59899 0.65602 0.49454 0.0
C217 C 0.62056 0.61255 0.49799 0.0
C218 C 0.58009 0.62596 0.50521 0.0
N219 N 0.59117 0.60503 0.5067 0.0
C220 C 0.72111 0.7065 0.48813 0.0
C221 C 0.74372 0.71072 0.44884 0.0
C222 C 0.74583 0.70385 0.49906 0.0
N223 N 0.72027 0.70968 0.46343 0.0
C224 C 0.76871 0.7076 0.45901 0.0
C225 C 0.76993 0.70423 0.48445 0.0
H226 H 0.70273 0.70656 0.49946 0.0
H227 H 0.74365 0.71473 0.42944 0.0
C228 C 0.56583 0.65141 0.42434 0.0
N229 N 0.59155 0.65008 0.43306 0.0
C230 C 0.53686 0.62327 0.4199 0.0
C231 C 0.56142 0.5928 0.43315 0.0
C232 C 0.59009 0.6215 0.43678 0.0
C233 C 0.53407 0.59337 0.42495 0.0
H234 H 0.56773 0.67437 0.42092 0.0
H235 H 0.61099 0.62087 0.44302 0.0
O236 O 0.69465 0.76129 0.45577 0.0
O237 O 0.6251 0.72826 0.43867 0.0
O238 O 0.6671 0.70397 0.41861 0.0
O239 O 0.64799 0.69346 0.47467 0.0
H240 H 0.70917 0.77346 0.50275 0.0
H241 H 0.74804 0.77993 0.4306 0.0
H242 H 0.76414 0.79736 0.51979 0.0
H243 H 0.80236 0.80381 0.44891 0.0
H244 H 0.53867 0.72204 0.4774 0.0
H245 H 0.63344 0.78467 0.42503 0.0
H246 H 0.57285 0.69905 0.46602 0.0
H247 H 0.59804 0.80602 0.43692 0.0
H248 H 0.73096 0.85663 0.39483 0.0
H249 H 0.65021 0.79267 0.34995 0.0
H250 H 0.62583 0.74221 0.55667 0.0
H251 H 0.64662 0.82374 0.51117 0.0
H252 H 0.66398 0.64808 0.42507 0.0
H253 H 0.71051 0.73663 0.38478 0.0
H254 H 0.69652 0.62989 0.40219 0.0
H255 H 0.74231 0.7169 0.36259 0.0
H256 H 0.66331 0.6481 0.47988 0.0
H257 H 0.59019 0.67265 0.49338 0.0
H258 H 0.62865 0.59535 0.49938 0.0
H259 H 0.5566 0.61927 0.51231 0.0
H260 H 0.74606 0.70141 0.51877 0.0
H261 H 0.78727 0.70859 0.44723 0.0
H262 H 0.51694 0.625 0.41253 0.0
H263 H 0.56058 0.5704 0.43715 0.0
Li264 Li 0.96898 0.6813 0.62262 0.0
Li265 Li 0.93901 0.62393 0.60934 0.0
Li266 Li 0.92199 0.66337 0.5959 0.0
Li267 Li 0.91634 0.64567 0.63748 0.0
C268 C 0.99041 0.66563 0.57904 0.0
N269 N 0.04527 0.66868 0.56064 0.0
C270 C 0.00762 0.65526 0.59324 0.0
C271 C 1.00107 0.67751 0.55549 0.0
C272 C 0.03529 0.65699 0.5836 0.0
C273 C 0.02889 0.6789 0.54652 0.0
C274 C 0.94868 0.62877 0.66514 0.0
C275 C 0.91858 0.58355 0.69182 0.0
N276 N 0.93356 0.60241 0.71152 0.0
C277 C 0.96392 0.64765 0.68564 0.0
C278 C 0.9259 0.59642 0.66822 0.0
C279 C 0.95589 0.6339 0.70894 0.0
C280 C 0.00697 0.72945 0.65481 0.0
N281 N 0.0091 0.71711 0.63297 0.0
C282 C 0.06551 0.75437 0.63125 0.0
C283 C 0.03752 0.7295 0.62082 0.0
C284 C 0.06408 0.76679 0.65422 0.0
C285 C 0.03419 0.75427 0.66581 0.0
H286 H 0.98401 0.71959 0.66389 0.0
H287 H 0.03875 0.71998 0.60323 0.0
C288 C 0.92894 0.57125 0.57926 0.0
N289 N 0.94186 0.58698 0.60062 0.0
C290 C 0.9292 0.54302 0.57372 0.0
C291 C 0.95624 0.54797 0.61211 0.0
C292 C 0.95586 0.57623 0.61674 0.0
C293 C 0.94264 0.53093 0.59045 0.0
H294 H 0.91792 0.5803 0.56679 0.0
H295 H 0.96642 0.58941 0.6334 0.0
C296 C 0.94351 0.72087 0.6192 0.0
N297 N 0.9645 0.78353 0.60578 0.0
C298 C 0.9337 0.73928 0.63242 0.0
C299 C 0.96398 0.73432 0.59912 0.0
C300 C 0.94457 0.77092 0.62535 0.0
C301 C 0.97433 0.76604 0.59265 0.0
C302 C 0.86525 0.59587 0.61247 0.0
C303 C 0.84107 0.60376 0.61397 0.0
C304 C 0.85759 0.564 0.61527 0.0
C305 C 0.8096 0.57963 0.61854 0.0
C306 C 0.82582 0.54056 0.61978 0.0
N307 N 0.80269 0.5488 0.62132 0.0
C308 C 0.90444 0.67284 0.54702 0.0
C309 C 0.87993 0.6831 0.58074 0.0
C310 C 0.88618 0.67954 0.53059 0.0
N311 N 0.90075 0.67449 0.57158 0.0
C312 C 0.86116 0.68974 0.56511 0.0
C313 C 0.86384 0.68772 0.53965 0.0
H314 H 0.92124 0.66598 0.54021 0.0
H315 H 0.87745 0.68421 0.60034 0.0
C316 C 0.89986 0.66453 0.68034 0.0
N317 N 0.89055 0.63809 0.66623 0.0
C318 C 0.88304 0.66283 0.7016 0.0
C319 C 0.84739 0.60656 0.69369 0.0
C320 C 0.86523 0.60924 0.67276 0.0
C321 C 0.8562 0.63368 0.70822 0.0
H322 H 0.92046 0.68701 0.67506 0.0
H323 H 0.85893 0.5882 0.66197 0.0
O324 O 0.96296 0.66375 0.58786 0.0
O325 O 0.95558 0.64194 0.64219 0.0
O326 O 0.93297 0.68984 0.62601 0.0
O327 O 0.89618 0.61905 0.60786 0.0
H328 H 0.99994 0.64629 0.61158 0.0
H329 H 0.98794 0.68556 0.54426 0.0
H330 H 0.04887 0.6491 0.59439 0.0
H331 H 0.03744 0.68807 0.52833 0.0
H332 H 0.90083 0.55862 0.69447 0.0
H333 H 0.98172 0.67264 0.68362 0.0
H334 H 0.91358 0.58154 0.65259 0.0
H335 H 0.9674 0.64827 0.72497 0.0
H336 H 0.0881 0.76313 0.62176 0.0
H337 H 0.03191 0.76342 0.68336 0.0
H338 H 0.9183 0.53035 0.55689 0.0
H339 H 0.96703 0.53946 0.62532 0.0
H340 H 0.91779 0.72921 0.64796 0.0
H341 H 0.97186 0.72055 0.58861 0.0
H342 H 0.93716 0.78544 0.63543 0.0
H343 H 0.99018 0.77675 0.57717 0.0
H344 H 0.84656 0.62827 0.61196 0.0
H345 H 0.87597 0.55744 0.61412 0.0
H346 H 0.79067 0.58543 0.61991 0.0
H347 H 0.81956 0.51582 0.62207 0.0
H348 H 0.88948 0.6783 0.51109 0.0
H349 H 0.84412 0.69565 0.57295 0.0
H350 H 0.89056 0.68418 0.71252 0.0
H351 H 0.82714 0.58355 0.6986 0.0
Li352 Li 0.31762 0.94001 0.77409 0.0
Li353 Li 0.29413 0.97081 0.78691 0.0
Li354 Li 0.27534 0.91802 0.8039 0.0
Li355 Li 0.2611 0.92408 0.76068 0.0
C356 C 0.34922 0.96743 0.8133 0.0
N357 N 0.41322 0.98987 0.82316 0.0
C358 C 0.37196 0.99945 0.80876 0.0
C359 C 0.35904 0.94686 0.82292 0.0
C360 C 0.40419 0.01034 0.8139 0.0
C361 C 0.39151 0.95864 0.82773 0.0
C362 C 0.30737 0.99035 0.74029 0.0
C363 C 0.28894 0.01687 0.7128 0.0
N364 N 0.31707 0.0447 0.71595 0.0
C365 C 0.33615 0.01918 0.74319 0.0
C366 C 0.28357 0.98912 0.72495 0.0
C367 C 0.34057 0.04641 0.73076 0.0
C368 C 0.35783 0.91357 0.76562 0.0
N369 N 0.3564 0.94097 0.76408 0.0
C370 C 0.41161 0.97053 0.75229 0.0
C371 C 0.38241 0.96905 0.75716 0.0
C372 C 0.41395 0.94274 0.75432 0.0
C373 C 0.3865 0.91393 0.76089 0.0
H374 H 0.33686 0.89148 0.77091 0.0
H375 H 0.38079 0.99054 0.75615 0.0
C376 C 0.31197 0.01976 0.82093 0.0
N377 N 0.3008 0.01208 0.79761 0.0
C378 C 0.3154 0.0473 0.83208 0.0
C379 C 0.29555 0.05892 0.79519 0.0
C380 C 0.2923 0.03089 0.78474 0.0
C381 C 0.30709 0.06727 0.81924 0.0
H382 H 0.31749 0.00399 0.83121 0.0
H383 H 0.28198 0.02373 0.76671 0.0
C384 C 0.26423 0.86557 0.78117 0.0
N385 N 0.23421 0.80319 0.79809 0.0
C386 C 0.23406 0.84305 0.77222 0.0
C387 C 0.27924 0.85623 0.79858 0.0
C388 C 0.21926 0.81166 0.78102 0.0
C389 C 0.26363 0.82464 0.80696 0.0
C390 C 0.2348 0.95168 0.80099 0.0
C391 C 0.23524 0.9566 0.82624 0.0
C392 C 0.22088 0.96429 0.78541 0.0
C393 C 0.22193 0.97438 0.8355 0.0
C394 C 0.20776 0.98187 0.79539 0.0
N395 N 0.2086 0.98655 0.82001 0.0
C396 C 0.2738 0.89645 0.85291 0.0
C397 C 0.22501 0.87001 0.83072 0.0
C398 C 0.25899 0.87759 0.87351 0.0
N399 N 0.25669 0.89217 0.83207 0.0
C400 C 0.20933 0.85056 0.85079 0.0
C401 C 0.22638 0.85422 0.87251 0.0
H402 H 0.29878 0.91473 0.85363 0.0
H403 H 0.2119 0.86768 0.81405 0.0
C404 C 0.23342 0.89522 0.7145 0.0
N405 N 0.22767 0.90297 0.73717 0.0
C406 C 0.20784 0.87521 0.69917 0.0
C407 C 0.17114 0.8723 0.73059 0.0
C408 C 0.19731 0.89229 0.74525 0.0
C409 C 0.17619 0.86302 0.70739 0.0
H410 H 0.25782 0.90349 0.70877 0.0
H411 H 0.19338 0.89815 0.76356 0.0
O412 O 0.31763 0.95613 0.80784 0.0
O413 O 0.30269 0.9633 0.75202 0.0
O414 O 0.2788 0.89664 0.77319 0.0
O415 O 0.24867 0.93529 0.79152 0.0
H416 H 0.36491 0.01563 0.80101 0.0
H417 H 0.34186 0.92195 0.82633 0.0
H418 H 0.42205 0.03501 0.81037 0.0
H419 H 0.39946 0.94293 0.835 0.0
H420 H 0.27071 0.01629 0.70091 0.0
H421 H 0.35469 0.02065 0.75516 0.0
H422 H 0.26116 0.96701 0.72248 0.0
H423 H 0.36264 0.06893 0.73295 0.0
H424 H 0.43232 0.99335 0.74769 0.0
H425 H 0.38723 0.89192 0.76245 0.0
H426 H 0.32426 0.05282 0.8507 0.0
H427 H 0.28816 0.07332 0.78489 0.0
H428 H 0.22207 0.84968 0.75869 0.0
H429 H 0.30242 0.87335 0.80593 0.0
H430 H 0.19586 0.79404 0.77431 0.0
H431 H 0.27485 0.81721 0.82061 0.0
H432 H 0.24614 0.94715 0.8385 0.0
H433 H 0.22066 0.96094 0.76579 0.0
H434 H 0.22231 0.9786 0.85498 0.0
H435 H 0.19709 0.99197 0.78356 0.0
H436 H 0.27281 0.88124 0.89005 0.0
H437 H 0.18396 0.83337 0.84952 0.0
H438 H 0.21274 0.86816 0.68159 0.0
H439 H 0.14713 0.86345 0.7376 0.0
Li440 Li 0.38417 0.31733 0.9442 0.0
Li441 Li 0.32826 0.28923 0.95615 0.0
Li442 Li 0.36459 0.27211 0.97331 0.0
Li443 Li 0.34747 0.26176 0.92893 0.0
C444 C 0.37557 0.33511 0.99552 0.0
N445 N 0.39536 0.38021 0.03251 0.0
C446 C 0.36144 0.35419 0.99822 0.0
C447 C 0.39961 0.33886 0.01178 0.0
C448 C 0.37182 0.37687 0.017 0.0
C449 C 0.40932 0.36182 0.03032 0.0
C450 C 0.34147 0.32583 0.913 0.0
C451 C 0.32321 0.34797 0.88151 0.0
N452 N 0.33264 0.37459 0.89546 0.0
C453 C 0.35097 0.35336 0.92701 0.0
C454 C 0.32748 0.32305 0.89006 0.0
C455 C 0.34631 0.37776 0.91783 0.0
C456 C 0.43985 0.35838 0.91697 0.0
N457 N 0.42171 0.35748 0.93637 0.0
C458 C 0.45965 0.41189 0.94632 0.0
C459 C 0.43089 0.38365 0.9508 0.0
C460 C 0.47929 0.41333 0.9268 0.0
C461 C 0.46881 0.38623 0.91176 0.0
H462 H 0.43204 0.33725 0.90577 0.0
H463 H 0.4162 0.38266 0.96602 0.0
C464 C 0.28702 0.28785 0.99144 0.0
N465 N 0.29262 0.2932 0.96703 0.0
C466 C 0.26323 0.29163 0.00275 0.0
C467 C 0.25058 0.30576 0.96354 0.0
C468 C 0.27466 0.30148 0.95287 0.0
C469 C 0.24514 0.30147 0.98892 0.0
H470 H 0.30154 0.28109 0.00221 0.0
H471 H 0.27927 0.30526 0.93344 0.0
C472 C 0.42151 0.28547 0.94704 0.0
N473 N 0.48283 0.2964 0.9547 0.0
C474 C 0.43226 0.26735 0.93449 0.0
C475 C 0.44195 0.30919 0.9634 0.0
C476 C 0.46333 0.2732 0.93866 0.0
C477 C 0.47287 0.31437 0.96702 0.0
C478 C 0.2893 0.22615 0.96151 0.0
C479 C 0.27604 0.21319 0.98432 0.0
C480 C 0.26929 0.22055 0.94138 0.0
C481 C 0.24276 0.19489 0.98665 0.0
C482 C 0.23613 0.20211 0.94446 0.0
N483 N 0.22367 0.18979 0.96685 0.0
C484 C 0.36152 0.25706 0.02307 0.0
C485 C 0.38673 0.23557 0.99837 0.0
C486 C 0.36427 0.24152 0.04369 0.0
N487 N 0.37265 0.25377 0.00103 0.0
C488 C 0.38989 0.21952 0.01849 0.0
C489 C 0.37814 0.22207 0.04141 0.0
H490 H 0.34976 0.2711 0.02448 0.0
H491 H 0.39474 0.23282 0.98051 0.0
C492 C 0.32759 0.2293 0.88174 0.0
N493 N 0.33828 0.22979 0.90488 0.0
C494 C 0.32109 0.20374 0.86599 0.0
C495 C 0.3368 0.18011 0.89827 0.0
C496 C 0.34296 0.20594 0.91327 0.0
C497 C 0.32564 0.17867 0.8743 0.0
H498 H 0.32388 0.24852 0.8756 0.0
H499 H 0.35145 0.20702 0.93179 0.0
O500 O 0.36562 0.31264 0.97728 0.0
O501 O 0.34545 0.30146 0.92169 0.0
O502 O 0.39115 0.27998 0.94317 0.0
O503 O 0.32172 0.24487 0.959 0.0
H504 H 0.34271 0.35163 0.98594 0.0
H505 H 0.41054 0.32408 0.01026 0.0
H506 H 0.36114 0.39181 0.01925 0.0
H507 H 0.42792 0.36497 0.043 0.0
H508 H 0.31238 0.34614 0.8638 0.0
H509 H 0.3617 0.35581 0.94478 0.0
H510 H 0.31991 0.30181 0.87902 0.0
H511 H 0.35354 0.3992 0.92852 0.0
H512 H 0.46679 0.4322 0.95836 0.0
H513 H 0.48282 0.38652 0.89616 0.0
H514 H 0.25921 0.28715 0.02222 0.0
H515 H 0.23697 0.31313 0.95223 0.0
H516 H 0.41671 0.24892 0.92172 0.0
H517 H 0.43411 0.32363 0.97301 0.0
H518 H 0.47196 0.25931 0.92912 0.0
H519 H 0.48897 0.33272 0.9796 0.0
H520 H 0.29129 0.21748 1.00008 0.0
H521 H 0.27927 0.23063 0.92364 0.0
H522 H 0.23211 0.18481 0.00422 0.0
H523 H 0.22031 0.19768 0.92909 0.0
H524 H 0.35466 0.24378 0.06103 0.0
H525 H 0.40097 0.20492 0.01611 0.0
H526 H 0.31211 0.2033 0.84774 0.0
H527 H 0.34088 0.16146 0.90534 0.0
Li528 Li 0.68458 0.96735 0.71299 0.0
Li529 Li 0.62729 0.93804 0.72372 0.0
Li530 Li 0.6642 0.91733 0.73703 0.0
Li531 Li 0.64698 0.91353 0.69433 0.0
C532 C 0.68295 0.98342 0.76162 0.0
N533 N 0.71928 0.035 0.79192 0.0
C534 C 0.67295 0.00544 0.76688 0.0
C535 C 0.71115 0.98735 0.77208 0.0
C536 C 0.69172 0.03143 0.78217 0.0
C537 C 0.72928 0.01367 0.78724 0.0
C538 C 0.63313 0.9703 0.68076 0.0
C539 C 0.59079 0.97014 0.65711 0.0
N540 N 0.60463 1.00233 0.66034 0.0
C541 C 0.64713 0.00342 0.6836 0.0
C542 C 0.60492 0.95355 0.66717 0.0
C543 C 0.6323 0.01916 0.67322 0.0
C544 C 0.73664 0.00551 0.68391 0.0
N545 N 0.72112 0.00765 0.70398 0.0
C546 C 0.75476 0.06474 0.70436 0.0
C547 C 0.72985 0.0365 0.71446 0.0
C548 C 0.77071 0.06318 0.6833 0.0
C549 C 0.76162 0.03299 0.67332 0.0
H550 H 0.72896 0.98238 0.6757 0.0
H551 H 0.71674 0.03789 0.72996 0.0
C552 C 0.56306 0.91436 0.73872 0.0
N553 N 0.59034 0.94148 0.73209 0.0
C554 C 0.53478 0.91498 0.74292 0.0
C555 C 0.56333 0.97172 0.73447 0.0
C556 C 0.59109 0.97001 0.73047 0.0
C557 C 0.53454 0.94382 0.74036 0.0
H558 H 0.56307 0.89207 0.74045 0.0
H559 H 0.61315 0.99146 0.72587 0.0
C560 C 0.71766 0.92793 0.7104 0.0
N561 N 0.7719 0.92314 0.71731 0.0
C562 C 0.71952 0.90226 0.70033 0.0
C563 C 0.74358 0.95144 0.72362 0.0
C564 C 0.74708 0.90017 0.70414 0.0
C565 C 0.77074 0.94854 0.727 0.0
C566 C 0.59544 0.86459 0.71551 0.0
C567 C 0.592 0.83593 0.72455 0.0
C568 C 0.57383 0.86371 0.69805 0.0
C569 C 0.56737 0.80684 0.71556 0.0
C570 C 0.54953 0.83417 0.68951 0.0
N571 N 0.54686 0.80657 0.69834 0.0
C572 C 0.67797 0.90004 0.78465 0.0
C573 C 0.67293 0.86708 0.75081 0.0
C574 C 0.68288 0.87997 0.80046 0.0
N575 N 0.67315 0.89322 0.76031 0.0
C576 C 0.67761 0.84644 0.76585 0.0
C577 C 0.68253 0.85265 0.79105 0.0
H578 H 0.67744 0.92065 0.79187 0.0
H579 H 0.66839 0.86186 0.7315 0.0
C580 C 0.63865 0.9013 0.64348 0.0
N581 N 0.63882 0.88848 0.6656 0.0
C582 C 0.63536 0.88419 0.62199 0.0
C583 C 0.63195 0.84085 0.64653 0.0
C584 C 0.63564 0.85892 0.6675 0.0
C585 C 0.63207 0.85363 0.62343 0.0
H586 H 0.64187 0.92513 0.6425 0.0
H587 H 0.63685 0.84972 0.68527 0.0
O588 O 0.66478 0.95776 0.74679 0.0
O589 O 0.64725 0.95447 0.69091 0.0
O590 O 0.69078 0.93026 0.70695 0.0
O591 O 0.61974 0.89337 0.72376 0.0
H592 H 0.65102 1.00258 0.75917 0.0
H593 H 0.71886 0.97016 0.76866 0.0
H594 H 0.68437 0.04876 0.78628 0.0
H595 H 0.75123 0.01707 0.79538 0.0
H596 H 0.56886 0.95745 0.64668 0.0
H597 H 0.66893 0.0168 0.69402 0.0
H598 H 0.5941 0.92806 0.6643 0.0
H599 H 0.64273 0.04475 0.67548 0.0
H600 H 0.76055 0.08757 0.71233 0.0
H601 H 0.77333 0.03068 0.65714 0.0
H602 H 0.51313 0.89296 0.74759 0.0
H603 H 0.56437 0.99461 0.73297 0.0
H604 H 0.69981 0.88403 0.68981 0.0
H605 H 0.74287 0.97185 0.73102 0.0
H606 H 0.74875 0.88031 0.69662 0.0
H607 H 0.79095 0.96652 0.73726 0.0
H608 H 0.6081 0.83607 0.73837 0.0
H609 H 0.57586 0.88563 0.69116 0.0
H610 H 0.56455 0.78448 0.72231 0.0
H611 H 0.53278 0.83317 0.67588 0.0
H612 H 0.68609 0.88529 0.81987 0.0
H613 H 0.67723 0.8257 0.75785 0.0
H614 H 0.63579 0.89485 0.60444 0.0
H615 H 0.6302 0.81766 0.64829 0.0
Li616 Li 0.71978 0.68139 0.88087 0.0
Li617 Li 0.6961 0.6271 0.89409 0.0
Li618 Li 0.7509 0.66968 0.90901 0.0
Li619 Li 0.74174 0.65028 0.86552 0.0
C620 C 0.69217 0.67889 0.92495 0.0
N621 N 0.65935 0.70703 0.94444 0.0
C622 C 0.66168 0.67038 0.91622 0.0
C623 C 0.7059 0.70146 0.94371 0.0
C624 C 0.64551 0.68498 0.92627 0.0
C625 C 0.68892 0.71547 0.95331 0.0
C626 C 0.68201 0.61686 0.84504 0.0
C627 C 0.66908 0.56385 0.83216 0.0
N628 N 0.64971 0.56464 0.81441 0.0
C629 C 0.66196 0.61712 0.82666 0.0
C630 C 0.6856 0.58999 0.84783 0.0
C631 C 0.64585 0.5905 0.81136 0.0
C632 C 0.70416 0.71177 0.84488 0.0
N633 N 0.71018 0.71362 0.86933 0.0
C634 C 0.70588 0.76093 0.87229 0.0
C635 C 0.71114 0.73764 0.88312 0.0
C636 C 0.69973 0.75954 0.84705 0.0
C637 C 0.69872 0.73442 0.83336 0.0
H638 H 0.70433 0.69302 0.83416 0.0
H639 H 0.71682 0.73936 0.90235 0.0
C640 C 0.65711 0.56736 0.91825 0.0
N641 N 0.6571 0.58894 0.90225 0.0
C642 C 0.62881 0.53858 0.92294 0.0
C643 C 0.60104 0.555 0.89483 0.0
C644 C 0.62975 0.58349 0.89084 0.0
C645 C 0.60035 0.5319 0.91086 0.0
H646 H 0.67912 0.57245 0.92728 0.0
H647 H 0.6303 0.60109 0.87829 0.0
C648 C 0.7784 0.72647 0.87377 0.0
N649 N 0.80127 0.79064 0.8645 0.0
C650 C 0.78727 0.73849 0.85002 0.0
C651 C 0.78135 0.74714 0.89283 0.0
C652 C 0.79868 0.77098 0.8457 0.0
C653 C 0.79299 0.77951 0.88778 0.0
C654 C 0.76009 0.61794 0.9008 0.0
C655 C 0.79211 0.64045 0.89586 0.0
C656 C 0.75252 0.58866 0.91147 0.0
C657 C 0.81603 0.63329 0.90177 0.0
C658 C 0.77713 0.58236 0.91703 0.0
N659 N 0.80811 0.60463 0.91214 0.0
C660 C 0.77622 0.66179 0.95406 0.0
C661 C 0.81152 0.70749 0.9308 0.0
C662 C 0.80128 0.66658 0.96971 0.0
N663 N 0.78194 0.68178 0.93474 0.0
C664 C 0.83703 0.71334 0.94609 0.0
C665 C 0.83239 0.69206 0.96527 0.0
H666 H 0.75268 0.64103 0.9564 0.0
H667 H 0.8159 0.7224 0.91491 0.0
C668 C 0.75947 0.65739 0.81644 0.0
N669 N 0.75951 0.64175 0.83713 0.0
C670 C 0.77301 0.65397 0.79486 0.0
C671 C 0.78544 0.61751 0.81601 0.0
C672 C 0.77124 0.62128 0.83708 0.0
C673 C 0.78663 0.63421 0.79468 0.0
H674 H 0.74905 0.67271 0.81678 0.0
H675 H 0.7697 0.60782 0.85328 0.0
O676 O 0.70836 0.66486 0.91544 0.0
O677 O 0.69788 0.64288 0.8601 0.0
O678 O 0.76639 0.69456 0.87832 0.0
O679 O 0.7364 0.62503 0.89622 0.0
H680 H 0.65081 0.65297 0.90168 0.0
H681 H 0.72946 0.70817 0.95068 0.0
H682 H 0.62198 0.6788 0.91961 0.0
H683 H 0.69926 0.73308 0.96777 0.0
H684 H 0.67165 0.54293 0.83413 0.0
H685 H 0.6588 0.63765 0.82428 0.0
H686 H 0.70089 0.58917 0.86191 0.0
H687 H 0.63025 0.59038 0.79708 0.0
H688 H 0.70666 0.77981 0.88353 0.0
H689 H 0.69445 0.7327 0.8138 0.0
H690 H 0.62919 0.52185 0.93596 0.0
H691 H 0.5797 0.55086 0.88513 0.0
H692 H 0.78534 0.72295 0.83507 0.0
H693 H 0.77414 0.73816 0.91127 0.0
H694 H 0.80548 0.78057 0.82738 0.0
H695 H 0.79516 0.7957 0.90232 0.0
H696 H 0.79845 0.66325 0.8876 0.0
H697 H 0.7279 0.57103 0.9155 0.0
H698 H 0.8409 0.65054 0.89816 0.0
H699 H 0.77161 0.5598 0.92531 0.0
H700 H 0.79674 0.64956 0.98426 0.0
H701 H 0.86052 0.7336 0.9423 0.0
H702 H 0.77353 0.66721 0.77868 0.0
H703 H 0.79536 0.60171 0.81634 0.0
Li704 Li 0.09061 0.73472 0.02673 0.0
Li705 Li 0.08806 0.74481 0.07132 0.0
Li706 Li 0.06675 0.68926 0.05686 0.0
Li707 Li 0.03967 0.71842 0.04836 0.0
C708 C 0.13034 0.71287 0.055 0.0
N709 N 0.1663 0.68281 0.05641 0.0
C710 C 0.14335 0.71021 0.07713 0.0
C711 C 0.13563 0.70033 0.03358 0.0
C712 C 0.16148 0.69491 0.07746 0.0
C713 C 0.15387 0.68519 0.03467 0.0
C714 C 0.08665 0.79259 0.04975 0.0
C715 C 0.08031 0.8314 0.07326 0.0
N716 N 0.11011 0.85451 0.06626 0.0
C717 C 0.11707 0.81676 0.04258 0.0
C718 C 0.06799 0.79996 0.06506 0.0
C719 C 0.12855 0.8479 0.0512 0.0
C720 C 0.10249 0.74603 0.97572 0.0
N721 N 0.11616 0.75209 0.99827 0.0
C722 C 0.16782 0.78691 0.98115 0.0
C723 C 0.1482 0.7718 0.00133 0.0
C724 C 0.15429 0.78154 0.95765 0.0
C725 C 0.12119 0.76064 0.95504 0.0
H726 H 0.07701 0.73035 0.97381 0.0
H727 H 0.15839 0.77622 0.01953 0.0
C728 C 0.10158 0.7819 0.11602 0.0
N729 N 0.11367 0.77612 0.09535 0.0
C730 C 0.12159 0.80723 0.13157 0.0
C731 C 0.16591 0.81971 0.10438 0.0
C732 C 0.14522 0.79412 0.08954 0.0
C733 C 0.15413 0.82671 0.12559 0.0
H734 H 0.07636 0.76737 0.12014 0.0
H735 H 0.15412 0.78909 0.07292 0.0
C736 C 0.02053 0.67249 0.01493 0.0
N737 N 0.96019 0.6325 0.99591 0.0
C738 C 1.0004 0.6428 0.0258 0.0
C739 C 0.00983 0.6819 0.99446 0.0
C740 C 0.97003 0.62291 0.01589 0.0
C741 C 0.97929 0.66133 0.9851 0.0
C742 C 0.01925 0.69313 0.09289 0.0
C743 C 1.00014 0.65999 0.09569 0.0
C744 C 0.00875 0.7133 0.10219 0.0
C745 C 0.9706 0.64755 0.10755 0.0
C746 C 0.97901 0.69993 0.11388 0.0
N747 N 0.96072 0.66761 0.11629 0.0
C748 C 0.06559 0.64015 0.08682 0.0
C749 C 0.06507 0.63188 0.04399 0.0
C750 C 0.06533 0.61147 0.09137 0.0
N751 N 0.06518 0.64957 0.06343 0.0
C752 C 0.06489 0.60315 0.04769 0.0
C753 C 0.06482 0.59252 0.07162 0.0
H754 H 0.06632 0.65502 0.10192 0.0
H755 H 0.06524 0.64022 0.02557 0.0
C756 C 1.00064 0.73902 0.02683 0.0
N757 N 0.99879 0.71513 0.04122 0.0
C758 C 0.97311 0.73645 0.01624 0.0
C759 C 0.94172 0.68541 0.03633 0.0
C760 C 0.96997 0.68882 0.04641 0.0
C761 C 0.94333 0.709 0.02044 0.0
H762 H 0.02375 0.75932 0.02241 0.0
H763 H 0.96893 0.66951 0.05706 0.0
O764 O 0.11188 0.72703 0.05442 0.0
O765 O 0.07543 0.76173 0.04226 0.0
O766 O 0.05021 0.69249 0.02463 0.0
O767 O 0.04842 0.70576 0.08162 0.0
H768 H 0.1393 0.7197 0.09388 0.0
H769 H 0.12539 0.70187 0.01635 0.0
H770 H 0.17166 0.6926 0.09446 0.0
H771 H 0.15803 0.67521 0.01827 0.0
H772 H 0.06621 0.83741 0.08524 0.0
H773 H 0.13183 0.81145 0.03077 0.0
H774 H 0.04432 0.78156 0.07063 0.0
H775 H 0.15218 0.8668 0.04598 0.0
H776 H 0.19325 0.80284 0.9839 0.0
H777 H 0.1097 0.75639 0.9373 0.0
H778 H 0.11158 0.81213 0.14765 0.0
H779 H 0.19087 0.8341 0.09921 0.0
H780 H 0.00788 0.63531 0.04193 0.0
H781 H 0.02461 0.70508 0.98617 0.0
H782 H 0.95421 0.59992 0.02417 0.0
H783 H 0.9707 0.66836 0.96932 0.0
H784 H 0.00789 0.64402 0.08864 0.0
H785 H 0.0233 0.73898 0.10031 0.0
H786 H 0.95549 0.62195 0.10975 0.0
H787 H 0.9705 0.71524 0.12105 0.0
H788 H 0.06605 0.60447 0.1101 0.0
H789 H 0.06459 0.58927 0.03199 0.0
H790 H 0.97522 0.75517 0.00409 0.0
H791 H 0.91916 0.66371 0.03971 0.0
Li792 Li 0.32877 0.03538 0.21387 0.0
Li793 Li 0.38221 0.06726 0.22778 0.0
Li794 Li 0.34029 0.08167 0.23999 0.0
Li795 Li 0.36225 0.08847 0.19721 0.0
C796 C 0.32036 0.01539 0.25988 0.0
N797 N 0.27404 0.95981 0.28191 0.0
C798 C 0.32072 0.9868 0.2568 0.0
C799 C 0.29656 0.01577 0.27427 0.0
C800 C 0.29704 0.95893 0.26804 0.0
C801 C 0.27334 0.9874 0.28525 0.0
C802 C 0.38978 0.04159 0.18917 0.0
C803 C 0.44223 0.05334 0.17561 0.0
N804 N 0.43484 0.02299 0.18141 0.0
C805 C 0.38272 0.01049 0.19498 0.0
C806 C 0.41977 0.06318 0.17935 0.0
C807 C 0.40579 1.00154 0.19089 0.0
C808 C 0.30095 0.9842 0.18095 0.0
N809 N 0.29514 0.99376 0.20285 0.0
C810 C 0.24179 0.9486 0.20327 0.0
C811 C 0.26615 0.97659 0.21408 0.0
C812 C 0.2473 0.93831 0.18062 0.0
C813 C 0.27747 0.95642 0.16962 0.0
H814 H 0.32356 0.99872 0.17179 0.0
H815 H 0.26141 0.9852 0.23093 0.0
C816 C 0.44906 0.09391 0.23404 0.0
N817 N 0.42027 0.06736 0.23853 0.0
C818 C 0.47748 0.09351 0.2379 0.0
C819 C 0.44633 0.03909 0.25248 0.0
C820 C 0.41843 0.04048 0.24817 0.0
C821 C 0.47625 0.06559 0.24668 0.0
H822 H 0.44998 0.11506 0.22663 0.0
H823 H 0.39529 0.01967 0.25158 0.0
C824 C 0.28882 0.0539 0.19699 0.0
N825 N 0.23046 0.01976 0.17358 0.0
C826 C 0.28764 0.04842 0.17178 0.0
C827 C 0.26036 0.04216 0.2103 0.0
C828 C 0.25789 0.03104 0.16029 0.0
C829 C 0.23108 0.02495 0.19812 0.0
C830 C 0.40137 0.14145 0.22066 0.0
C831 C 0.39292 0.16314 0.23018 0.0
C832 C 0.42581 0.15189 0.2032 0.0
C833 C 0.40884 0.1948 0.22191 0.0
C834 C 0.4411 0.18372 0.19536 0.0
N835 N 0.43237 0.20433 0.20479 0.0
C836 C 0.33978 0.10997 0.28587 0.0
C837 C 0.30601 0.11154 0.25503 0.0
C838 C 0.33335 0.12944 0.30113 0.0
N839 N 0.32643 0.10183 0.26319 0.0
C840 C 0.29886 0.13088 0.26966 0.0
C841 C 0.31305 0.1406 0.29287 0.0
H842 H 0.35653 0.10252 0.29166 0.0
H843 H 0.2964 0.10547 0.23669 0.0
C844 C 0.38242 0.10916 0.14823 0.0
N845 N 0.36945 0.11391 0.1688 0.0
C846 C 0.38604 0.12707 0.12717 0.0
C847 C 0.36264 0.15415 0.14884 0.0
C848 C 0.35949 0.13575 0.16946 0.0
C849 C 0.37575 0.14966 0.12727 0.0
H850 H 0.38943 0.09112 0.14803 0.0
H851 H 0.3487 0.13854 0.18597 0.0
O852 O 0.34339 0.04297 0.24914 0.0
O853 O 0.36781 0.05108 0.19374 0.0
O854 O 0.3177 0.06997 0.20869 0.0
O855 O 0.38569 0.11019 0.22828 0.0
H856 H 0.33884 0.98602 0.24563 0.0
H857 H 0.29592 0.03767 0.27687 0.0
H858 H 0.29689 0.93659 0.26568 0.0
H859 H 0.25472 0.98731 0.29638 0.0
H860 H 0.46561 0.0699 0.16823 0.0
H861 H 0.35984 0.99355 0.2029 0.0
H862 H 0.42593 0.08749 0.17511 0.0
H863 H 0.40068 0.97761 0.19543 0.0
H864 H 0.2186 0.93585 0.21208 0.0
H865 H 0.28277 0.94944 0.15216 0.0
H866 H 0.50017 0.11464 0.23368 0.0
H867 H 0.44448 0.01717 0.25935 0.0
H868 H 0.30947 0.05708 0.16127 0.0
H869 H 0.26088 0.04586 0.22989 0.0
H870 H 0.2566 0.02641 0.14082 0.0
H871 H 0.20885 0.01555 0.20819 0.0
H872 H 0.37427 0.15572 0.24379 0.0
H873 H 0.4324 0.13544 0.19531 0.0
H874 H 0.40246 0.21177 0.22909 0.0
H875 H 0.45981 0.19198 0.18167 0.0
H876 H 0.34531 0.1369 0.31868 0.0
H877 H 0.28308 0.13893 0.26259 0.0
H878 H 0.39657 0.12317 0.11095 0.0
H879 H 0.35415 0.17112 0.14955 0.0
Li880 Li 0.31688 0.38062 0.38936 0.0
Li881 Li 0.28786 0.32269 0.37717 0.0
Li882 Li 0.27195 0.35877 0.36179 0.0
Li883 Li 0.26032 0.34269 0.40365 0.0
C884 C 0.3203 0.37262 0.33333 0.0
N885 N 0.33166 0.3955 0.28582 0.0
C886 C 0.31428 0.35175 0.31371 0.0
C887 C 0.33228 0.40518 0.32877 0.0
C888 C 0.3201 0.36375 0.28983 0.0
C889 C 0.33786 0.41628 0.30464 0.0
C890 C 0.32556 0.33878 0.42042 0.0
C891 C 0.3497 0.32409 0.45283 0.0
N892 N 0.37654 0.33437 0.43897 0.0
C893 C 0.35338 0.34919 0.40648 0.0
C894 C 0.32368 0.32616 0.44379 0.0
C895 C 0.3789 0.34678 0.41619 0.0
C896 C 0.36046 0.4316 0.41997 0.0
N897 N 0.35717 0.41714 0.39794 0.0
C898 C 0.41027 0.45696 0.38643 0.0
C899 C 0.38163 0.42878 0.38152 0.0
C900 C 0.41417 0.47309 0.40872 0.0
C901 C 0.38901 0.45954 0.42588 0.0
H902 H 0.34075 0.42159 0.43284 0.0
H903 H 0.37881 0.41642 0.3644 0.0
C904 C 0.27467 0.27215 0.34636 0.0
N905 N 0.29104 0.28598 0.36729 0.0
C906 C 0.27666 0.24705 0.33546 0.0
C907 C 0.31117 0.2495 0.36844 0.0
C908 C 0.30848 0.27467 0.37877 0.0
C909 C 0.29553 0.23573 0.34626 0.0
H910 H 0.26055 0.2812 0.3378 0.0
H911 H 0.3208 0.28536 0.39565 0.0
C912 C 0.27398 0.41083 0.38405 0.0
N913 N 0.26274 0.45966 0.37086 0.0
C914 C 0.24259 0.40484 0.38153 0.0
C915 C 0.29965 0.44173 0.3801 0.0
C916 C 0.23741 0.42982 0.37475 0.0
C917 C 0.29347 0.46608 0.3734 0.0
C918 C 0.22273 0.2847 0.3823 0.0
C919 C 0.19259 0.26703 0.37138 0.0
C920 C 0.23114 0.27125 0.40158 0.0
C921 C 0.17146 0.23613 0.3798 0.0
C922 C 0.20935 0.24027 0.40945 0.0
N923 N 0.18022 0.22349 0.39849 0.0
C924 C 0.23081 0.33915 0.32191 0.0
C925 C 0.26131 0.39573 0.32432 0.0
C926 C 0.21438 0.34094 0.30153 0.0
N927 N 0.25336 0.36626 0.33316 0.0
C928 C 0.24559 0.39864 0.30384 0.0
C929 C 0.22142 0.37097 0.2925 0.0
H930 H 0.22556 0.31604 0.32877 0.0
H931 H 0.27982 0.41704 0.33305 0.0
C932 C 0.23338 0.33322 0.45275 0.0
N933 N 0.22858 0.33326 0.42819 0.0
C934 C 0.20887 0.32817 0.46918 0.0
C935 C 0.17526 0.3231 0.43465 0.0
C936 C 0.20007 0.32778 0.41901 0.0
C937 C 0.1796 0.32358 0.46005 0.0
H938 H 0.25633 0.33768 0.45956 0.0
H939 H 0.1968 0.32758 0.39942 0.0
O940 O 0.31432 0.36126 0.35685 0.0
O941 O 0.30045 0.34141 0.41156 0.0
O942 O 0.27961 0.38679 0.39084 0.0
O943 O 0.24347 0.31514 0.37431 0.0
H944 H 0.30527 0.32656 0.31683 0.0
H945 H 0.33658 0.42164 0.34366 0.0
H946 H 0.31545 0.34782 0.27448 0.0
H947 H 0.34689 0.44137 0.30086 0.0
H948 H 0.34857 0.31435 0.47088 0.0
H949 H 0.35517 0.35871 0.38827 0.0
H950 H 0.30233 0.31809 0.45481 0.0
H951 H 0.40054 0.35468 0.4056 0.0
H952 H 0.42894 0.46633 0.37266 0.0
H953 H 0.39127 0.47033 0.44369 0.0
H954 H 0.2639 0.23685 0.31852 0.0
H955 H 0.32616 0.24166 0.37728 0.0
H956 H 0.22246 0.38111 0.38446 0.0
H957 H 0.3241 0.44688 0.38206 0.0
H958 H 0.21325 0.42546 0.37256 0.0
H959 H 0.3131 0.49007 0.37018 0.0
H960 H 0.18548 0.27712 0.35663 0.0
H961 H 0.25418 0.28443 0.41043 0.0
H962 H 0.14808 0.22221 0.3715 0.0
H963 H 0.2156 0.22958 0.4243 0.0
H964 H 0.19644 0.31907 0.29284 0.0
H965 H 0.25186 0.42222 0.29717 0.0
H966 H 0.21301 0.32879 0.48872 0.0
H967 H 0.15292 0.31935 0.42698 0.0
Li968 Li 0.97126 0.29088 0.54762 0.0
Li969 Li 0.93985 0.31443 0.5595 0.0
Li970 Li 0.92525 0.25879 0.57476 0.0
Li971 Li 0.91775 0.27028 0.53116 0.0
C972 C 0.99125 0.30782 0.59452 0.0
N973 N 0.04582 0.32149 0.62047 0.0
C974 C 0.01902 0.33761 0.59193 0.0
C975 C 0.99115 0.28501 0.61036 0.0
C976 C 0.0464 0.34404 0.60518 0.0
C977 C 0.01901 0.29239 0.62332 0.0
C978 C 0.96595 0.34322 0.5181 0.0
C979 C 0.95545 0.38354 0.50173 0.0
N980 N 0.98723 0.40543 0.50316 0.0
C981 C 0.99853 0.36612 0.51937 0.0
C982 C 0.94424 0.35196 0.50911 0.0
C983 C 0.0088 0.39743 0.51171 0.0
C984 C 0.01808 0.305 0.51257 0.0
N985 N 0.01273 0.29813 0.53685 0.0
C986 C 0.06295 0.29939 0.54049 0.0
C987 C 0.03428 0.29472 0.55079 0.0
C988 C 0.06916 0.30694 0.51549 0.0
C989 C 0.04615 0.30958 0.50153 0.0
H990 H 1.0002 0.30646 0.5016 0.0
H991 H 0.02916 0.28783 0.56975 0.0
C992 C 0.91211 0.35287 0.57119 0.0
N993 N 0.94037 0.35337 0.56809 0.0
C994 C 0.91175 0.38134 0.57516 0.0
C995 C 0.96957 0.41028 0.57312 0.0
C996 C 0.96883 0.38123 0.56962 0.0
C997 C 0.94074 0.41053 0.57564 0.0
H998 H 0.8898 0.33044 0.57023 0.0
H999 H 0.991 0.38105 0.56747 0.0
C1000 C 0.95324 0.23154 0.53535 0.0
N1001 N 0.9895 0.20647 0.51704 0.0
C1002 C 0.95563 0.22869 0.51007 0.0
C1003 C 0.96911 0.2215 0.55133 0.0
C1004 C 0.97412 0.21598 0.50118 0.0
C1005 C 0.98737 0.20892 0.54171 0.0
C1006 C 0.86575 0.26027 0.55402 0.0
C1007 C 0.84397 0.22945 0.56228 0.0
C1008 C 0.85556 0.27565 0.53767 0.0
C1009 C 0.81238 0.21442 0.55385 0.0
C1010 C 0.82378 0.25979 0.52964 0.0
N1011 N 0.80303 0.22976 0.53783 0.0
C1012 C 0.8945 0.23253 0.62069 0.0
C1013 C 0.89758 0.19637 0.59293 0.0
C1014 C 0.8748 0.20724 0.63638 0.0
N1015 N 0.90503 0.22656 0.59929 0.0
C1016 C 0.87809 0.17051 0.60803 0.0
C1017 C 0.86587 0.17566 0.62984 0.0
H1018 H 0.90016 0.2567 0.62501 0.0
H1019 H 0.90555 0.19214 0.57556 0.0
C1020 C 0.8945 0.26593 0.48237 0.0
N1021 N 0.89125 0.24992 0.50362 0.0
C1022 C 0.87612 0.24962 0.46192 0.0
C1023 C 0.8513 0.20085 0.48578 0.0
C1024 C 0.8702 0.21804 0.50568 0.0
C1025 C 0.85456 0.21655 0.46342 0.0
H1026 H 0.91189 0.29114 0.48109 0.0
H1027 H 0.86848 0.20589 0.52274 0.0
O1028 O 0.96404 0.30121 0.58206 0.0
O1029 O 0.95532 0.31254 0.52588 0.0
O1030 O 0.93618 0.24493 0.54438 0.0
O1031 O 0.89698 0.27513 0.56164 0.0
H1032 H 0.01956 0.35543 0.57964 0.0
H1033 H 0.96983 0.26187 0.61261 0.0
H1034 H 0.06813 0.36693 0.60327 0.0
H1035 H 0.01932 0.27496 0.63561 0.0
H1036 H 0.93887 0.39068 0.49492 0.0
H1037 H 0.01565 0.36 0.52663 0.0
H1038 H 0.91895 0.33466 0.50812 0.0
H1039 H 0.0339 0.41542 0.51273 0.0
H1040 H 0.08007 0.29726 0.552 0.0
H1041 H 0.04957 0.3147 0.4821 0.0
H1042 H 0.88907 0.38068 0.57722 0.0
H1043 H 0.9924 0.43234 0.57381 0.0
H1044 H 0.94366 0.23657 0.49747 0.0
H1045 H 0.96775 0.22388 0.57095 0.0
H1046 H 0.97636 0.21379 0.48166 0.0
H1047 H 0.99999 0.20127 0.55384 0.0
H1048 H 0.85136 0.21712 0.5749 0.0
H1049 H 0.87208 0.29944 0.53104 0.0
H1050 H 0.79531 0.19052 0.56001 0.0
H1051 H 0.81564 0.27134 0.51687 0.0
H1052 H 0.86541 0.21219 0.6528 0.0
H1053 H 0.87182 0.14656 0.60232 0.0
H1054 H 0.87943 0.26248 0.44493 0.0
H1055 H 0.83458 0.17547 0.48777 0.0
C1056 C 0.08687 0.55611 0.0633 0.0
C1057 C 0.0648 0.56204 0.07579 0.0
C1058 C 0.08734 0.52754 0.06682 0.0
C1059 C 0.0655 0.50363 0.08273 0.0
H1060 H 0.10416 0.57387 0.05088 0.0
H1061 H 0.10477 0.524 0.05685 0.0
S1062 S 1.00292 0.50732 0.11981 0.0
N1063 N 0.02045 0.54152 0.10463 0.0
N1064 N 0.02153 0.48795 0.1114 0.0
C1065 C 0.04329 0.50922 0.09532 0.0
C1066 C 0.04294 0.5384 0.09186 0.0
C1067 C 0.54204 0.05356 0.27402 0.0
C1068 C 0.56398 0.06182 0.25454 0.0
C1069 C 0.51355 0.05449 0.27131 0.0
C1070 C 0.50605 0.06391 0.24907 0.0
H1071 H 0.5472 0.0469 0.29166 0.0
H1072 H 0.49757 0.04839 0.28686 0.0
S1073 S 0.55354 0.08456 0.19173 0.0
N1074 N 0.57487 0.07732 0.2117 0.0
N1075 N 0.52158 0.07944 0.20675 0.0
C1076 C 0.52734 0.0715 0.22931 0.0
C1077 C 0.55624 0.0704 0.232 0.0
C1078 C 0.50285 0.5362 0.4107 0.0
C1079 C 0.5031 0.56289 0.42142 0.0
C1080 C 0.47417 0.50731 0.40704 0.0
C1081 C 0.44436 0.50382 0.41375 0.0
H1082 H 0.525 0.5377 0.40477 0.0
H1083 H 0.47544 0.4875 0.3989 0.0
S1084 S 0.43167 0.56626 0.44283 0.0
N1085 N 0.47088 0.58348 0.43962 0.0
N1086 N 0.4169 0.5299 0.4314 0.0
C1087 C 0.44421 0.5303 0.42453 0.0
C1088 C 0.47351 0.55962 0.42859 0.0
C1089 C 0.92747 0.4753 0.60317 0.0
C1090 C 0.94176 0.50019 0.58587 0.0
C1091 C 0.92678 0.44615 0.59955 0.0
C1092 C 0.94092 0.44115 0.57876 0.0
H1093 H 0.91661 0.47835 0.61956 0.0
H1094 H 0.91559 0.42759 0.61331 0.0
S1095 S 0.98119 0.4986 0.52802 0.0
N1096 N 0.97 0.51779 0.5471 0.0
N1097 N 0.96917 0.46317 0.54049 0.0
C1098 C 0.95523 0.46579 0.56132 0.0
C1099 C 0.95549 0.49527 0.56482 0.0
C1100 C 0.48481 0.92985 0.76431 0.0
C1101 C 0.50429 0.94457 0.74374 0.0
C1102 C 0.45577 0.9295 0.76759 0.0
C1103 C 0.44502 0.94379 0.75041 0.0
H1104 H 0.49218 0.91868 0.77808 0.0
H1105 H 0.44174 0.91815 0.78383 0.0
S1106 S 0.48606 0.98356 0.69259 0.0
N1107 N 0.51013 0.97262 0.70542 0.0
N1108 N 0.45554 0.97193 0.71158 0.0
C1109 C 0.46418 0.95845 0.7297 0.0
C1110 C 0.49378 0.95883 0.72636 0.0
C1111 C 0.51212 0.47305 0.92273 0.0
C1112 C 0.51045 0.44307 0.92235 0.0
C1113 C 0.54121 0.50152 0.91905 0.0
C1114 C 0.56991 0.50123 0.91495 0.0
H1115 H 0.49068 0.47454 0.92573 0.0
H1116 H 0.54126 0.52399 0.91966 0.0
S1117 S 0.57862 0.42904 0.91226 0.0
N1118 N 0.54019 0.41486 0.91791 0.0
N1119 N 0.5947 0.46828 0.91032 0.0
C1120 C 0.5686 0.47142 0.91448 0.0
C1121 C 0.53895 0.44239 0.91827 0.0
C1122 C 0.16623 0.29778 0.00472 0.0
C1123 C 0.17348 0.31483 0.02691 0.0
C1124 C 0.18969 0.29414 0.99211 0.0
C1125 C 0.22115 0.30757 0.00125 0.0
H1126 H 0.1421 0.28645 0.99746 0.0
H1127 H 0.18293 0.27995 0.97551 0.0
S1128 S 0.2531 0.35834 0.05677 0.0
N1129 N 0.21479 0.34771 0.05626 0.0
N1130 N 0.25892 0.34145 0.03249 0.0
C1131 C 0.22891 0.32595 0.02282 0.0
C1132 C 0.20507 0.32943 0.03566 0.0
C1133 C 0.89168 0.18704 0.20363 0.0
C1134 C 0.86105 0.17071 0.19292 0.0
C1135 C 0.91837 0.20959 0.19038 0.0
C1136 C 0.91557 0.21682 0.16585 0.0
H1137 H 0.89498 0.18264 0.22257 0.0
H1138 H 0.94139 0.22178 0.19953 0.0
S1139 S 0.84075 0.18066 0.12923 0.0
N1140 N 0.82948 0.16302 0.15622 0.0
N1141 N 0.87974 0.20554 0.13127 0.0
C1142 C 0.88526 0.20005 0.15467 0.0
C1143 C 0.858 0.17698 0.16821 0.0
C1144 C 0.69591 0.85712 0.33072 0.0
C1145 C 0.69446 0.85642 0.35649 0.0
C1146 C 0.70023 0.88409 0.31754 0.0
C1147 C 0.7033 0.91122 0.32972 0.0
H1148 H 0.69431 0.83697 0.32073 0.0
H1149 H 0.70183 0.88397 0.29776 0.0
S1150 S 0.69667 0.91958 0.39668 0.0
N1151 N 0.6933 0.88399 0.39343 0.0
N1152 N 0.70157 0.93447 0.36877 0.0
C1153 C 0.70073 0.91028 0.35538 0.0
C1154 C 0.69628 0.88295 0.36873 0.0
C1155 C 0.81445 0.72302 0.51484 0.0
C1156 C 0.79631 0.7016 0.4961 0.0
C1157 C 0.83727 0.71918 0.52797 0.0
C1158 C 0.84263 0.69352 0.52312 0.0
H1159 H 0.81054 0.7426 0.51965 0.0
H1160 H 0.85036 0.73609 0.54245 0.0
S1161 S 0.80118 0.63089 0.47569 0.0
N1162 N 0.78552 0.65435 0.47286 0.0
N1163 N 0.82787 0.64651 0.49793 0.0
C1164 C 0.8252 0.67243 0.50391 0.0
C1165 C 0.80216 0.67659 0.49035 0.0
C1166 C 0.09834 0.78745 0.69168 0.0
C1167 C 0.09352 0.79156 0.66683 0.0
C1168 C 0.12518 0.81056 0.70445 0.0
C1169 C 0.14843 0.8388 0.69293 0.0
H1170 H 0.08126 0.76604 0.70136 0.0
H1171 H 0.12785 0.80616 0.72352 0.0
S1172 S 0.14676 0.86175 0.62837 0.0
N1173 N 0.11403 0.82641 0.63127 0.0
N1174 N 0.16469 0.86987 0.65532 0.0
C1175 C 0.14414 0.84319 0.66805 0.0
C1176 C 0.11667 0.81959 0.655 0.0
C1177 C 0.29633 0.09273 0.85511 0.0
C1178 C 0.30949 0.09587 0.83158 0.0
C1179 C 0.30071 0.11952 0.86831 0.0
C1180 C 0.3185 0.15063 0.85859 0.0
H1181 H 0.2829 0.06933 0.86354 0.0
H1182 H 0.2905 0.11589 0.88651 0.0
S1183 S 0.35766 0.17183 0.79761 0.0
N1184 N 0.34053 0.13242 0.79886 0.0
N1185 N 0.34896 0.18296 0.82378 0.0
C1186 C 0.33099 0.15407 0.83477 0.0
C1187 C 0.32644 0.12666 0.82126 0.0
C1188 C 0.66861 0.77439 0.81857 0.0
C1189 C 0.69462 0.78409 0.83467 0.0
C1190 C 0.66448 0.7968 0.80511 0.0
C1191 C 0.68622 0.82985 0.80718 0.0
H1192 H 0.65142 0.74919 0.81616 0.0
H1193 H 0.64423 0.78814 0.79277 0.0
S1194 S 0.75864 0.86775 0.84647 0.0
N1195 N 0.74259 0.82902 0.85185 0.0
N1196 N 0.73477 0.8712 0.82655 0.0
C1197 C 0.712 0.83998 0.82358 0.0
C1198 C 0.71622 0.8171 0.83731 0.0
C1199 C 0.85986 0.6942 0.0051 0.0
C1200 C 0.86034 0.69535 0.97931 0.0
C1201 C 0.88663 0.69828 0.01844 0.0
C1202 C 0.91477 0.70382 0.00641 0.0
H1203 H 0.83888 0.69069 0.01502 0.0
H1204 H 0.88554 0.69769 0.03826 0.0
S1205 S 0.92677 0.70461 0.9393 0.0
N1206 N 0.89028 0.69911 0.94237 0.0
N1207 N 0.94056 0.70747 0.9674 0.0
C1208 C 0.91516 0.70399 0.9807 0.0
C1209 C 0.88797 0.69959 0.96716 0.0
C1210 C 0.21664 0.91177 0.14247 0.0
C1211 C 0.22161 0.9098 0.16767 0.0
C1212 C 0.19431 0.88495 0.12923 0.0
C1213 C 0.17583 0.85506 0.14065 0.0
H1214 H 0.23033 0.93425 0.1328 0.0
H1215 H 0.19162 0.88759 0.10981 0.0
S1216 S 0.17937 0.83688 0.20615 0.0
N1217 N 0.206 0.87535 0.20354 0.0
N1218 N 0.16365 0.82497 0.17862 0.0
C1219 C 0.17987 0.85282 0.16593 0.0
C1220 C 0.20281 0.88017 0.17944 0.0
C1221 C 0.31195 0.19184 0.29558 0.0
C1222 C 0.30859 0.16433 0.30728 0.0
C1223 C 0.3078 0.21467 0.30838 0.0
C1224 C 0.30015 0.21105 0.33348 0.0
H1225 H 0.31819 0.19598 0.27634 0.0
H1226 H 0.31093 0.23556 0.29856 0.0
S1227 S 0.28738 0.14273 0.37254 0.0
N1228 N 0.29635 0.13434 0.34535 0.0
N1229 N 0.28859 0.17739 0.36949 0.0
C1230 C 0.29677 0.18372 0.34549 0.0
C1231 C 0.30099 0.16036 0.33239 0.0
C1232 C 0.14221 0.34201 0.47396 0.0
C1233 C 0.15376 0.32057 0.47653 0.0
C1234 C 0.11563 0.338 0.48731 0.0
C1235 C 0.09927 0.31217 0.50361 0.0
H1236 H 0.15353 0.36179 0.46118 0.0
H1237 H 0.10751 0.35505 0.48453 0.0
S1238 S 0.12008 0.24922 0.51677 0.0
N1239 N 0.14741 0.27296 0.49677 0.0
N1240 N 0.09685 0.26482 0.52156 0.0
C1241 C 0.11108 0.29093 0.50677 0.0
C1242 C 0.13844 0.29526 0.49329 0.0
C1243 C 0.81585 0.12227 0.63223 0.0
C1244 C 0.84185 0.1478 0.64434 0.0
C1245 C 0.79301 0.09533 0.64505 0.0
C1246 C 0.79513 0.09268 0.67056 0.0
H1247 H 0.81298 0.12321 0.61263 0.0
H1248 H 0.77335 0.07645 0.63486 0.0
S1249 S 0.85902 0.15243 0.71089 0.0
N1250 N 0.86866 0.16857 0.68331 0.0
N1251 N 0.82564 0.11775 0.70747 0.0
C1252 C 0.82085 0.11811 0.68299 0.0
C1253 C 0.8442 0.14567 0.66988 0.0
C1254 C 0.22025 0.39092 0.25043 0.0
C1255 C 0.20363 0.37324 0.27124 0.0
C1256 C 0.2037 0.39169 0.22955 0.0
C1257 C 0.17001 0.37524 0.22897 0.0
H1258 H 0.2462 0.40355 0.25007 0.0
H1259 H 0.21733 0.40511 0.21371 0.0
S1260 S 0.11544 0.32648 0.2791 0.0
N1261 N 0.15175 0.33975 0.29031 0.0
N1262 N 0.12064 0.34113 0.25108 0.0
C1263 C 0.15316 0.35807 0.24987 0.0
C1264 C 0.16997 0.35706 0.27099 0.0
C1265 C 0.81947 0.20922 0.42725 0.0
C1266 C 0.83638 0.1983 0.44153 0.0
C1267 C 0.80236 0.19235 0.40639 0.0
C1268 C 0.80155 0.16396 0.39912 0.0
H1269 H 0.81925 0.23082 0.43236 0.0
H1270 H 0.78947 0.20143 0.39598 0.0
S1271 S 0.84432 0.12698 0.42892 0.0
N1272 N 0.85289 0.15848 0.44606 0.0
N1273 N 0.82071 0.12677 0.40694 0.0
C1274 C 0.81874 0.15307 0.41304 0.0
C1275 C 0.83615 0.17023 0.43421 0.0
C1276 C 0.65543 0.85101 0.5833 0.0
C1277 C 0.63108 0.83607 0.6009 0.0
C1278 C 0.65623 0.83439 0.56252 0.0
C1279 C 0.63257 0.80227 0.55846 0.0
H1280 H 0.67451 0.87548 0.58595 0.0
H1281 H 0.67601 0.84662 0.54985 0.0
S1282 S 0.56193 0.75344 0.59799 0.0
N1283 N 0.58176 0.7881 0.61239 0.0
N1284 N 0.5828 0.75694 0.57303 0.0
C1285 C 0.60756 0.78736 0.57563 0.0
C1286 C 0.60692 0.80425 0.59691 0.0
C1287 C 0.85268 0.64098 0.75314 0.0
C1288 C 0.83749 0.63184 0.73022 0.0
C1289 C 0.83576 0.64083 0.77406 0.0
C1290 C 0.80327 0.63212 0.77262 0.0
H1291 H 0.87785 0.6484 0.75487 0.0
H1292 H 0.84836 0.64835 0.79137 0.0
S1293 S 0.75254 0.60591 0.71695 0.0
N1294 N 0.7881 0.61331 0.70732 0.0
N1295 N 0.75637 0.61352 0.74664 0.0
C1296 C 0.78776 0.62269 0.74986 0.0
C1297 C 0.80485 0.62238 0.72864 0.0
C1298 C 0.21217 0.84999 0.91693 0.0
C1299 C 0.20969 0.83481 0.89439 0.0
C1300 C 0.19474 0.83246 0.93744 0.0
C1301 C 0.17423 0.79909 0.93616 0.0
H1302 H 0.22693 0.87576 0.91854 0.0
H1303 H 0.19659 0.84528 0.95421 0.0
S1304 S 0.1623 0.74759 0.88216 0.0
N1305 N 0.18722 0.78427 0.87248 0.0
N1306 N 0.15453 0.75123 0.91107 0.0
C1307 C 0.17244 0.78349 0.91396 0.0
C1308 C 0.19015 0.80136 0.89307 0.0
C1309 C 0.39035 0.20121 0.10604 0.0
C1310 C 0.37768 0.16787 0.10484 0.0
C1311 C 0.39092 0.21868 0.08535 0.0
C1312 C 0.37894 0.20345 0.06271 0.0
H1313 H 0.3998 0.21386 0.12314 0.0
H1314 H 0.40075 0.24429 0.08708 0.0
S1315 S 0.34147 0.11644 0.05022 0.0
N1316 N 0.35177 0.12015 0.07938 0.0
N1317 N 0.35302 0.15303 0.04048 0.0
C1318 C 0.36629 0.17017 0.06123 0.0
C1319 C 0.36563 0.15237 0.08229 0.0
loop_
_geom_bond_atom_site_label_1
_geom_bond_atom_site_label_2
_geom_bond_distance
_geom_bond_site_symmetry_2
_ccdc_geom_bond_type
Li0 N17 1.990 . S
Li0 O60 1.956 . S
Li0 O61 1.970 . S
Li0 O62 1.961 . S
Li1 N25 1.990 . S
Li1 O60 1.970 . S
Li1 O61 1.956 . S
Li1 O63 1.961 . S
Li2 N47 1.990 1_455 S
Li2 O60 1.961 . S
Li2 O62 1.956 . S
Li2 O63 1.970 . S
Li3 N53 1.990 . S
Li3 O61 1.961 . S
Li3 O62 1.970 . S
Li3 O63 1.956 . S
C4 C6 1.348 . S
C4 C7 1.356 . S
C4 O60 1.325 . S
N5 C8 1.314 . S
N5 C9 1.279 . S
C6 C4 1.348 . S
C6 C8 1.353 . S
C6 H64 0.929 . S
C7 C4 1.356 . S
C7 C9 1.358 . S
C7 H65 0.930 . S
C8 N5 1.314 . S
C8 C6 1.353 . S
C8 H66 0.930 . S
C9 N5 1.279 . S
C9 C7 1.358 . S
C9 H67 0.930 . S
C10 C13 1.348 . S
C10 C14 1.356 . S
C10 O61 1.325 . S
C11 N12 1.279 . S
C11 C14 1.358 . S
C11 H68 0.930 . S
N12 C11 1.279 . S
N12 C15 1.314 . S
C13 C10 1.348 . S
C13 C15 1.353 . S
C13 H69 0.929 . S
C14 C10 1.356 . S
C14 C11 1.358 . S
C14 H70 0.930 . S
C15 N12 1.314 . S
C15 C13 1.353 . S
C15 H71 0.930 . S
C16 N17 1.314 . S
C16 C21 1.353 . S
C16 H22 0.930 . S
N17 Li0 1.990 . S
N17 C16 1.314 . S
N17 C19 1.279 . S
C18 C19 1.358 . S
C18 C20 1.356 . S
C18 H72 0.930 . S
C19 N17 1.279 . S
C19 C18 1.358 . S
C19 H23 0.930 . S
C20 C18 1.356 . S
C20 C21 1.348 . S
C21 C16 1.353 . S
C21 C20 1.348 . S
C21 H73 0.929 . S
H22 C16 0.930 . S
H23 C19 0.930 . S
C24 N25 1.314 . S
C24 C26 1.353 . S
C24 H30 0.930 . S
N25 Li1 1.990 . S
N25 C24 1.314 . S
N25 C28 1.279 . S
C26 C24 1.353 . S
C26 C29 1.348 . S
C26 H74 0.929 . S
C27 C28 1.358 . S
C27 C29 1.356 . S
C27 H75 0.930 . S
C28 N25 1.279 . S
C28 C27 1.358 . S
C28 H31 0.930 . S
C29 C26 1.348 . S
C29 C27 1.356 . S
H30 C24 0.930 . S
H31 C28 0.930 . S
C32 C34 1.348 . S
C32 C35 1.356 . S
C32 O62 1.325 . S
N33 C36 1.314 . S
N33 C37 1.279 . S
C34 C32 1.348 . S
C34 C36 1.353 . S
C34 H76 0.929 . S
C35 C32 1.356 . S
C35 C37 1.358 . S
C35 H77 0.930 . S
C36 N33 1.314 . S
C36 C34 1.353 . S
C36 H78 0.930 . S
C37 N33 1.279 . S
C37 C35 1.358 . S
C37 H79 0.930 . S
C38 C39 1.348 . S
C38 C40 1.356 . S
C38 O63 1.325 . S
C39 C38 1.348 . S
C39 C41 1.353 . S
C39 H80 0.929 . S
C40 C38 1.356 . S
C40 C42 1.358 . S
C40 H81 0.930 . S
C41 C39 1.353 . S
C41 N43 1.314 . S
C41 H82 0.930 1_455 S
C42 C40 1.358 . S
C42 N43 1.279 . S
C42 H83 0.930 . S
N43 C41 1.314 . S
N43 C42 1.279 . S
C44 C46 1.353 . S
C44 N47 1.314 . S
C44 H50 0.930 1_655 S
C45 N47 1.279 . S
C45 C48 1.358 . S
C45 H51 0.930 . S
C46 C44 1.353 . S
C46 C49 1.348 . S
C46 H84 0.929 . S
N47 Li2 1.990 1_655 S
N47 C44 1.314 . S
N47 C45 1.279 . S
C48 C45 1.358 . S
C48 C49 1.356 . S
C48 H85 0.930 . S
C49 C46 1.348 . S
C49 C48 1.356 . S
H50 C44 0.930 1_455 S
H51 C45 0.930 . S
C52 N53 1.314 . S
C52 C54 1.353 . S
C52 H58 0.930 . S
N53 Li3 1.990 . S
N53 C52 1.314 . S
N53 C56 1.279 . S
C54 C52 1.353 . S
C54 C57 1.348 . S
C54 H86 0.929 . S
C55 C56 1.358 . S
C55 C57 1.356 . S
C55 H87 0.930 . S
C56 N53 1.279 . S
C56 C55 1.358 . S
C56 H59 0.930 . S
C57 C54 1.348 . S
C57 C55 1.356 . S
H58 C52 0.930 . S
H59 C56 0.930 . S
O60 Li0 1.956 . S
O60 Li1 1.970 . S
O60 Li2 1.961 . S
O60 C4 1.325 . S
O61 Li0 1.970 . S
O61 Li1 1.956 . S
O61 Li3 1.961 . S
O61 C10 1.325 . S
O62 Li0 1.961 . S
O62 Li2 1.956 . S
O62 Li3 1.970 . S
O62 C32 1.325 . S
O63 Li1 1.961 . S
O63 Li2 1.970 . S
O63 Li3 1.956 . S
O63 C38 1.325 . S
H64 C6 0.929 . S
H65 C7 0.930 . S
H66 C8 0.930 . S
H67 C9 0.930 . S
H68 C11 0.930 . S
H69 C13 0.929 . S
H70 C14 0.930 . S
H71 C15 0.930 . S
H72 C18 0.930 . S
H73 C21 0.929 . S
H74 C26 0.929 . S
H75 C27 0.930 . S
H76 C34 0.929 . S
H77 C35 0.930 . S
H78 C36 0.930 . S
H79 C37 0.930 . S
H80 C39 0.929 . S
H81 C40 0.930 . S
H82 C41 0.930 1_655 S
H83 C42 0.930 . S
H84 C46 0.929 . S
H85 C48 0.930 . S
H86 C54 0.929 . S
H87 C55 0.930 . S
Li88 N105 1.990 . S
Li88 O148 1.956 . S
Li88 O149 1.970 . S
Li88 O150 1.961 . S
Li89 N113 1.990 . S
Li89 O148 1.970 . S
Li89 O149 1.956 . S
Li89 O151 1.961 . S
Li90 N135 1.990 1_545 S
Li90 O148 1.961 . S
Li90 O150 1.956 . S
Li90 O151 1.970 . S
Li91 N141 1.990 . S
Li91 O149 1.961 . S
Li91 O150 1.970 . S
Li91 O151 1.956 . S
C92 C94 1.348 . S
C92 C95 1.356 . S
C92 O148 1.325 . S
N93 C96 1.314 . S
N93 C97 1.279 . S
C94 C92 1.348 . S
C94 C96 1.353 . S
C94 H152 0.929 . S
C95 C92 1.356 . S
C95 C97 1.358 . S
C95 H153 0.930 . S
C96 N93 1.314 . S
C96 C94 1.353 . S
C96 H154 0.930 . S
C97 N93 1.279 . S
C97 C95 1.358 . S
C97 H155 0.930 . S
C98 C101 1.348 . S
C98 C102 1.356 . S
C98 O149 1.325 . S
C99 N100 1.279 . S
C99 C102 1.358 . S
C99 H156 0.930 . S
N100 C99 1.279 . S
N100 C103 1.314 . S
C101 C98 1.348 . S
C101 C103 1.353 . S
C101 H157 0.929 . S
C102 C98 1.356 . S
C102 C99 1.358 . S
C102 H158 0.930 . S
C103 N100 1.314 . S
C103 C101 1.353 . S
C103 H159 0.930 . S
C104 N105 1.314 . S
C104 C109 1.353 . S
C104 H110 0.930 . S
N105 Li88 1.990 . S
N105 C104 1.314 . S
N105 C107 1.279 . S
C106 C107 1.358 . S
C106 C108 1.356 . S
C106 H160 0.930 . S
C107 N105 1.279 . S
C107 C106 1.358 . S
C107 H111 0.930 . S
C108 C106 1.356 . S
C108 C109 1.348 . S
C109 C104 1.353 . S
C109 C108 1.348 . S
C109 H161 0.929 . S
H110 C104 0.930 . S
H111 C107 0.930 . S
C112 N113 1.314 . S
C112 C114 1.353 . S
C112 H118 0.930 . S
N113 Li89 1.990 . S
N113 C112 1.314 . S
N113 C116 1.279 . S
C114 C112 1.353 . S
C114 C117 1.348 . S
C114 H162 0.929 . S
C115 C116 1.358 . S
C115 C117 1.356 . S
C115 H163 0.930 . S
C116 N113 1.279 . S
C116 C115 1.358 . S
C116 H119 0.930 . S
C117 C114 1.348 . S
C117 C115 1.356 . S
H118 C112 0.930 . S
H119 C116 0.930 . S
C120 C122 1.348 . S
C120 C123 1.356 . S
C120 O150 1.325 . S
N121 C124 1.314 . S
N121 C125 1.279 . S
C122 C120 1.348 . S
C122 C124 1.353 . S
C122 H164 0.929 . S
C123 C120 1.356 . S
C123 C125 1.358 . S
C123 H165 0.930 . S
C124 N121 1.314 . S
C124 C122 1.353 . S
C124 H166 0.930 . S
C125 N121 1.279 . S
C125 C123 1.358 . S
C125 H167 0.930 . S
C126 C127 1.348 . S
C126 C128 1.356 . S
C126 O151 1.325 . S
C127 C126 1.348 . S
C127 C129 1.353 . S
C127 H168 0.929 . S
C128 C126 1.356 . S
C128 C130 1.358 . S
C128 H169 0.930 . S
C129 C127 1.353 . S
C129 N131 1.314 . S
C129 H170 0.930 1_545 S
C130 C128 1.358 . S
C130 N131 1.279 . S
C130 H171 0.930 . S
N131 C129 1.314 . S
N131 C130 1.279 . S
C132 C134 1.353 . S
C132 N135 1.314 . S
C132 H138 0.930 1_565 S
C133 N135 1.279 . S
C133 C136 1.358 . S
C133 H139 0.930 . S
C134 C132 1.353 . S
C134 C137 1.348 . S
C134 H172 0.929 . S
N135 Li90 1.990 1_565 S
N135 C132 1.314 . S
N135 C133 1.279 . S
C136 C133 1.358 . S
C136 C137 1.356 . S
C136 H173 0.930 . S
C137 C134 1.348 . S
C137 C136 1.356 . S
H138 C132 0.930 1_545 S
H139 C133 0.930 . S
C140 N141 1.314 . S
C140 C142 1.353 . S
C140 H146 0.930 . S
N141 Li91 1.990 . S
N141 C140 1.314 . S
N141 C144 1.279 . S
C142 C140 1.353 . S
C142 C145 1.348 . S
C142 H174 0.929 . S
C143 C144 1.358 . S
C143 C145 1.356 . S
C143 H175 0.930 . S
C144 N141 1.279 . S
C144 C143 1.358 . S
C144 H147 0.930 . S
C145 C142 1.348 . S
C145 C143 1.356 . S
H146 C140 0.930 . S
H147 C144 0.930 . S
O148 Li88 1.956 . S
O148 Li89 1.970 . S
O148 Li90 1.961 . S
O148 C92 1.325 . S
O149 Li88 1.970 . S
O149 Li89 1.956 . S
O149 Li91 1.961 . S
O149 C98 1.325 . S
O150 Li88 1.961 . S
O150 Li90 1.956 . S
O150 Li91 1.970 . S
O150 C120 1.325 . S
O151 Li89 1.961 . S
O151 Li90 1.970 . S
O151 Li91 1.956 . S
O151 C126 1.325 . S
H152 C94 0.929 . S
H153 C95 0.930 . S
H154 C96 0.930 . S
H155 C97 0.930 . S
H156 C99 0.930 . S
H157 C101 0.929 . S
H158 C102 0.930 . S
H159 C103 0.930 . S
H160 C106 0.930 . S
H161 C109 0.929 . S
H162 C114 0.929 . S
H163 C115 0.930 . S
H164 C122 0.929 . S
H165 C123 0.930 . S
H166 C124 0.930 . S
H167 C125 0.930 . S
H168 C127 0.929 . S
H169 C128 0.930 . S
H170 C129 0.930 1_565 S
H171 C130 0.930 . S
H172 C134 0.929 . S
H173 C136 0.930 . S
H174 C142 0.929 . S
H175 C143 0.930 . S
Li176 N193 1.990 . S
Li176 O236 1.956 . S
Li176 O237 1.970 . S
Li176 O238 1.961 . S
Li177 N201 1.990 . S
Li177 O236 1.970 . S
Li177 O237 1.956 . S
Li177 O239 1.961 . S
Li178 N223 1.990 . S
Li178 O236 1.961 . S
Li178 O238 1.956 . S
Li178 O239 1.970 . S
Li179 N229 1.990 . S
Li179 O237 1.961 . S
Li179 O238 1.970 . S
Li179 O239 1.956 . S
C180 C182 1.348 . S
C180 C183 1.356 . S
C180 O236 1.325 . S
N181 C184 1.314 . S
N181 C185 1.279 . S
C182 C180 1.348 . S
C182 C184 1.353 . S
C182 H240 0.929 . S
C183 C180 1.356 . S
C183 C185 1.358 . S
C183 H241 0.930 . S
C184 N181 1.314 . S
C184 C182 1.353 . S
C184 H242 0.930 . S
C185 N181 1.279 . S
C185 C183 1.358 . S
C185 H243 0.930 . S
C186 C189 1.348 . S
C186 C190 1.356 . S
C186 O237 1.325 . S
C187 N188 1.279 . S
C187 C190 1.358 . S
C187 H244 0.930 . S
N188 C187 1.279 . S
N188 C191 1.314 . S
C189 C186 1.348 . S
C189 C191 1.353 . S
C189 H245 0.929 . S
C190 C186 1.356 . S
C190 C187 1.358 . S
C190 H246 0.930 . S
C191 N188 1.314 . S
C191 C189 1.353 . S
C191 H247 0.930 . S
C192 N193 1.314 . S
C192 C197 1.353 . S
C192 H198 0.930 . S
N193 Li176 1.990 . S
N193 C192 1.314 . S
N193 C195 1.279 . S
C194 C195 1.358 . S
C194 C196 1.356 . S
C194 H248 0.930 . S
C195 N193 1.279 . S
C195 C194 1.358 . S
C195 H199 0.930 . S
C196 C194 1.356 . S
C196 C197 1.348 . S
C197 C192 1.353 . S
C197 C196 1.348 . S
C197 H249 0.929 . S
H198 C192 0.930 . S
H199 C195 0.930 . S
C200 N201 1.314 . S
C200 C202 1.353 . S
C200 H206 0.930 . S
N201 Li177 1.990 . S
N201 C200 1.314 . S
N201 C204 1.279 . S
C202 C200 1.353 . S
C202 C205 1.348 . S
C202 H250 0.929 . S
C203 C204 1.358 . S
C203 C205 1.356 . S
C203 H251 0.930 . S
C204 N201 1.279 . S
C204 C203 1.358 . S
C204 H207 0.930 . S
C205 C202 1.348 . S
C205 C203 1.356 . S
H206 C200 0.930 . S
H207 C204 0.930 . S
C208 C210 1.348 . S
C208 C211 1.356 . S
C208 O238 1.325 . S
N209 C212 1.314 . S
N209 C213 1.279 . S
C210 C208 1.348 . S
C210 C212 1.353 . S
C210 H252 0.929 . S
C211 C208 1.356 . S
C211 C213 1.358 . S
C211 H253 0.930 . S
C212 N209 1.314 . S
C212 C210 1.353 . S
C212 H254 0.930 . S
C213 N209 1.279 . S
C213 C211 1.358 . S
C213 H255 0.930 . S
C214 C215 1.348 . S
C214 C216 1.356 . S
C214 O239 1.325 . S
C215 C214 1.348 . S
C215 C217 1.353 . S
C215 H256 0.929 . S
C216 C214 1.356 . S
C216 C218 1.358 . S
C216 H257 0.930 . S
C217 C215 1.353 . S
C217 N219 1.314 . S
C217 H258 0.930 . S
C218 C216 1.358 . S
C218 N219 1.279 . S
C218 H259 0.930 . S
N219 C217 1.314 . S
N219 C218 1.279 . S
C220 C222 1.353 . S
C220 N223 1.314 . S
C220 H226 0.930 . S
C221 N223 1.279 . S
C221 C224 1.358 . S
C221 H227 0.930 . S
C222 C220 1.353 . S
C222 C225 1.348 . S
C222 H260 0.929 . S
N223 Li178 1.990 . S
N223 C220 1.314 . S
N223 C221 1.279 . S
C224 C221 1.358 . S
C224 C225 1.356 . S
C224 H261 0.930 . S
C225 C222 1.348 . S
C225 C224 1.356 . S
H226 C220 0.930 . S
H227 C221 0.930 . S
C228 N229 1.314 . S
C228 C230 1.353 . S
C228 H234 0.930 . S
N229 Li179 1.990 . S
N229 C228 1.314 . S
N229 C232 1.279 . S
C230 C228 1.353 . S
C230 C233 1.348 . S
C230 H262 0.929 . S
C231 C232 1.358 . S
C231 C233 1.356 . S
C231 H263 0.930 . S
C232 N229 1.279 . S
C232 C231 1.358 . S
C232 H235 0.930 . S
C233 C230 1.348 . S
C233 C231 1.356 . S
H234 C228 0.930 . S
H235 C232 0.930 . S
O236 Li176 1.956 . S
O236 Li177 1.970 . S
O236 Li178 1.961 . S
O236 C180 1.325 . S
O237 Li176 1.970 . S
O237 Li177 1.956 . S
O237 Li179 1.961 . S
O237 C186 1.325 . S
O238 Li176 1.961 . S
O238 Li178 1.956 . S
O238 Li179 1.970 . S
O238 C208 1.325 . S
O239 Li177 1.961 . S
O239 Li178 1.970 . S
O239 Li179 1.956 . S
O239 C214 1.325 . S
H240 C182 0.929 . S
H241 C183 0.930 . S
H242 C184 0.930 . S
H243 C185 0.930 . S
H244 C187 0.930 . S
H245 C189 0.929 . S
H246 C190 0.930 . S
H247 C191 0.930 . S
H248 C194 0.930 . S
H249 C197 0.929 . S
H250 C202 0.929 . S
H251 C203 0.930 . S
H252 C210 0.929 . S
H253 C211 0.930 . S
H254 C212 0.930 . S
H255 C213 0.930 . S
H256 C215 0.929 . S
H257 C216 0.930 . S
H258 C217 0.930 . S
H259 C218 0.930 . S
H260 C222 0.929 . S
H261 C224 0.930 . S
H262 C230 0.929 . S
H263 C231 0.930 . S
Li264 N281 1.990 1_655 S
Li264 O324 1.956 . S
Li264 O325 1.970 . S
Li264 O326 1.961 . S
Li265 N289 1.990 . S
Li265 O324 1.970 . S
Li265 O325 1.956 . S
Li265 O327 1.961 . S
Li266 N311 1.990 . S
Li266 O324 1.961 . S
Li266 O326 1.956 . S
Li266 O327 1.970 . S
Li267 N317 1.990 . S
Li267 O325 1.961 . S
Li267 O326 1.970 . S
Li267 O327 1.956 . S
C268 C270 1.348 . S
C268 C271 1.356 . S
C268 O324 1.325 . S
N269 C272 1.314 . S
N269 C273 1.279 . S
C270 C268 1.348 . S
C270 C272 1.353 . S
C270 H328 0.929 . S
C271 C268 1.356 . S
C271 C273 1.358 . S
C271 H329 0.930 . S
C272 N269 1.314 . S
C272 C270 1.353 . S
C272 H330 0.930 . S
C273 N269 1.279 . S
C273 C271 1.358 . S
C273 H331 0.930 . S
C274 C277 1.348 . S
C274 C278 1.356 . S
C274 O325 1.325 . S
C275 N276 1.279 . S
C275 C278 1.358 . S
C275 H332 0.930 . S
N276 C275 1.279 . S
N276 C279 1.314 . S
C277 C274 1.348 . S
C277 C279 1.353 . S
C277 H333 0.929 . S
C278 C274 1.356 . S
C278 C275 1.358 . S
C278 H334 0.930 . S
C279 N276 1.314 . S
C279 C277 1.353 . S
C279 H335 0.930 1_655 S
C280 N281 1.314 . S
C280 C285 1.353 . S
C280 H286 0.930 1_455 S
N281 Li264 1.990 1_455 S
N281 C280 1.314 . S
N281 C283 1.279 . S
C282 C283 1.358 . S
C282 C284 1.356 . S
C282 H336 0.930 . S
C283 N281 1.279 . S
C283 C282 1.358 . S
C283 H287 0.930 . S
C284 C282 1.356 . S
C284 C285 1.348 . S
C285 C280 1.353 . S
C285 C284 1.348 . S
C285 H337 0.929 . S
H286 C280 0.930 1_655 S
H287 C283 0.930 . S
C288 N289 1.314 . S
C288 C290 1.353 . S
C288 H294 0.930 . S
N289 Li265 1.990 . S
N289 C288 1.314 . S
N289 C292 1.279 . S
C290 C288 1.353 . S
C290 C293 1.348 . S
C290 H338 0.929 . S
C291 C292 1.358 . S
C291 C293 1.356 . S
C291 H339 0.930 . S
C292 N289 1.279 . S
C292 C291 1.358 . S
C292 H295 0.930 . S
C293 C290 1.348 . S
C293 C291 1.356 . S
H294 C288 0.930 . S
H295 C292 0.930 . S
C296 C298 1.348 . S
C296 C299 1.356 . S
C296 O326 1.325 . S
N297 C300 1.314 . S
N297 C301 1.279 . S
C298 C296 1.348 . S
C298 C300 1.353 . S
C298 H340 0.929 . S
C299 C296 1.356 . S
C299 C301 1.358 . S
C299 H341 0.930 . S
C300 N297 1.314 . S
C300 C298 1.353 . S
C300 H342 0.930 . S
C301 N297 1.279 . S
C301 C299 1.358 . S
C301 H343 0.930 . S
C302 C303 1.348 . S
C302 C304 1.356 . S
C302 O327 1.325 . S
C303 C302 1.348 . S
C303 C305 1.353 . S
C303 H344 0.929 . S
C304 C302 1.356 . S
C304 C306 1.358 . S
C304 H345 0.930 . S
C305 C303 1.353 . S
C305 N307 1.314 . S
C305 H346 0.930 . S
C306 C304 1.358 . S
C306 N307 1.279 . S
C306 H347 0.930 . S
N307 C305 1.314 . S
N307 C306 1.279 . S
C308 C310 1.353 . S
C308 N311 1.314 . S
C308 H314 0.930 . S
C309 N311 1.279 . S
C309 C312 1.358 . S
C309 H315 0.930 . S
C310 C308 1.353 . S
C310 C313 1.348 . S
C310 H348 0.929 . S
N311 Li266 1.990 . S
N311 C308 1.314 . S
N311 C309 1.279 . S
C312 C309 1.358 . S
C312 C313 1.356 . S
C312 H349 0.930 . S
C313 C310 1.348 . S
C313 C312 1.356 . S
H314 C308 0.930 . S
H315 C309 0.930 . S
C316 N317 1.314 . S
C316 C318 1.353 . S
C316 H322 0.930 . S
N317 Li267 1.990 . S
N317 C316 1.314 . S
N317 C320 1.279 . S
C318 C316 1.353 . S
C318 C321 1.348 . S
C318 H350 0.929 . S
C319 C320 1.358 . S
C319 C321 1.356 . S
C319 H351 0.930 . S
C320 N317 1.279 . S
C320 C319 1.358 . S
C320 H323 0.930 . S
C321 C318 1.348 . S
C321 C319 1.356 . S
H322 C316 0.930 . S
H323 C320 0.930 . S
O324 Li264 1.956 . S
O324 Li265 1.970 . S
O324 Li266 1.961 . S
O324 C268 1.325 . S
O325 Li264 1.970 . S
O325 Li265 1.956 . S
O325 Li267 1.961 . S
O325 C274 1.325 . S
O326 Li264 1.961 . S
O326 Li266 1.956 . S
O326 Li267 1.970 . S
O326 C296 1.325 . S
O327 Li265 1.961 . S
O327 Li266 1.970 . S
O327 Li267 1.956 . S
O327 C302 1.325 . S
H328 C270 0.929 . S
H329 C271 0.930 . S
H330 C272 0.930 . S
H331 C273 0.930 . S
H332 C275 0.930 . S
H333 C277 0.929 . S
H334 C278 0.930 . S
H335 C279 0.930 1_455 S
H336 C282 0.930 . S
H337 C285 0.929 . S
H338 C290 0.929 . S
H339 C291 0.930 . S
H340 C298 0.929 . S
H341 C299 0.930 . S
H342 C300 0.930 . S
H343 C301 0.930 . S
H344 C303 0.929 . S
H345 C304 0.930 . S
H346 C305 0.930 . S
H347 C306 0.930 . S
H348 C310 0.929 . S
H349 C312 0.930 . S
H350 C318 0.929 . S
H351 C319 0.930 . S
Li352 N369 1.990 . S
Li352 O412 1.956 . S
Li352 O413 1.970 . S
Li352 O414 1.961 . S
Li353 N377 1.990 1_565 S
Li353 O412 1.970 . S
Li353 O413 1.956 . S
Li353 O415 1.961 . S
Li354 N399 1.990 . S
Li354 O412 1.961 . S
Li354 O414 1.956 . S
Li354 O415 1.970 . S
Li355 N405 1.990 . S
Li355 O413 1.961 . S
Li355 O414 1.970 . S
Li355 O415 1.956 . S
C356 C358 1.348 . S
C356 C359 1.356 . S
C356 O412 1.325 . S
N357 C360 1.314 . S
N357 C361 1.279 . S
C358 C356 1.348 . S
C358 C360 1.353 . S
C358 H416 0.929 . S
C359 C356 1.356 . S
C359 C361 1.358 . S
C359 H417 0.930 . S
C360 N357 1.314 . S
C360 C358 1.353 . S
C360 H418 0.930 1_565 S
C361 N357 1.279 . S
C361 C359 1.358 . S
C361 H419 0.930 . S
C362 C365 1.348 . S
C362 C366 1.356 . S
C362 O413 1.325 . S
C363 N364 1.279 . S
C363 C366 1.358 . S
C363 H420 0.930 . S
N364 C363 1.279 . S
N364 C367 1.314 . S
C365 C362 1.348 . S
C365 C367 1.353 . S
C365 H421 0.929 . S
C366 C362 1.356 . S
C366 C363 1.358 . S
C366 H422 0.930 . S
C367 N364 1.314 . S
C367 C365 1.353 . S
C367 H423 0.930 . S
C368 N369 1.314 . S
C368 C373 1.353 . S
C368 H374 0.930 . S
N369 Li352 1.990 . S
N369 C368 1.314 . S
N369 C371 1.279 . S
C370 C371 1.358 . S
C370 C372 1.356 . S
C370 H424 0.930 . S
C371 N369 1.279 . S
C371 C370 1.358 . S
C371 H375 0.930 . S
C372 C370 1.356 . S
C372 C373 1.348 . S
C373 C368 1.353 . S
C373 C372 1.348 . S
C373 H425 0.929 . S
H374 C368 0.930 . S
H375 C371 0.930 . S
C376 N377 1.314 . S
C376 C378 1.353 . S
C376 H382 0.930 1_545 S
N377 Li353 1.990 1_545 S
N377 C376 1.314 . S
N377 C380 1.279 . S
C378 C376 1.353 . S
C378 C381 1.348 . S
C378 H426 0.929 . S
C379 C380 1.358 . S
C379 C381 1.356 . S
C379 H427 0.930 . S
C380 N377 1.279 . S
C380 C379 1.358 . S
C380 H383 0.930 . S
C381 C378 1.348 . S
C381 C379 1.356 . S
H382 C376 0.930 1_565 S
H383 C380 0.930 . S
C384 C386 1.348 . S
C384 C387 1.356 . S
C384 O414 1.325 . S
N385 C388 1.314 . S
N385 C389 1.279 . S
C386 C384 1.348 . S
C386 C388 1.353 . S
C386 H428 0.929 . S
C387 C384 1.356 . S
C387 C389 1.358 . S
C387 H429 0.930 . S
C388 N385 1.314 . S
C388 C386 1.353 . S
C388 H430 0.930 . S
C389 N385 1.279 . S
C389 C387 1.358 . S
C389 H431 0.930 . S
C390 C391 1.348 . S
C390 C392 1.356 . S
C390 O415 1.325 . S
C391 C390 1.348 . S
C391 C393 1.353 . S
C391 H432 0.929 . S
C392 C390 1.356 . S
C392 C394 1.358 . S
C392 H433 0.930 . S
C393 C391 1.353 . S
C393 N395 1.314 . S
C393 H434 0.930 . S
C394 C392 1.358 . S
C394 N395 1.279 . S
C394 H435 0.930 . S
N395 C393 1.314 . S
N395 C394 1.279 . S
C396 C398 1.353 . S
C396 N399 1.314 . S
C396 H402 0.930 . S
C397 N399 1.279 . S
C397 C400 1.358 . S
C397 H403 0.930 . S
C398 C396 1.353 . S
C398 C401 1.348 . S
C398 H436 0.929 . S
N399 Li354 1.990 . S
N399 C396 1.314 . S
N399 C397 1.279 . S
C400 C397 1.358 . S
C400 C401 1.356 . S
C400 H437 0.930 . S
C401 C398 1.348 . S
C401 C400 1.356 . S
H402 C396 0.930 . S
H403 C397 0.930 . S
C404 N405 1.314 . S
C404 C406 1.353 . S
C404 H410 0.930 . S
N405 Li355 1.990 . S
N405 C404 1.314 . S
N405 C408 1.279 . S
C406 C404 1.353 . S
C406 C409 1.348 . S
C406 H438 0.929 . S
C407 C408 1.358 . S
C407 C409 1.356 . S
C407 H439 0.930 . S
C408 N405 1.279 . S
C408 C407 1.358 . S
C408 H411 0.930 . S
C409 C406 1.348 . S
C409 C407 1.356 . S
H410 C404 0.930 . S
H411 C408 0.930 . S
O412 Li352 1.956 . S
O412 Li353 1.970 . S
O412 Li354 1.961 . S
O412 C356 1.325 . S
O413 Li352 1.970 . S
O413 Li353 1.956 . S
O413 Li355 1.961 . S
O413 C362 1.325 . S
O414 Li352 1.961 . S
O414 Li354 1.956 . S
O414 Li355 1.970 . S
O414 C384 1.325 . S
O415 Li353 1.961 . S
O415 Li354 1.970 . S
O415 Li355 1.956 . S
O415 C390 1.325 . S
H416 C358 0.929 . S
H417 C359 0.930 . S
H418 C360 0.930 1_545 S
H419 C361 0.930 . S
H420 C363 0.930 . S
H421 C365 0.929 . S
H422 C366 0.930 . S
H423 C367 0.930 . S
H424 C370 0.930 . S
H425 C373 0.929 . S
H426 C378 0.929 . S
H427 C379 0.930 . S
H428 C386 0.929 . S
H429 C387 0.930 . S
H430 C388 0.930 . S
H431 C389 0.930 . S
H432 C391 0.929 . S
H433 C392 0.930 . S
H434 C393 0.930 . S
H435 C394 0.930 . S
H436 C398 0.929 . S
H437 C400 0.930 . S
H438 C406 0.929 . S
H439 C407 0.930 . S
Li440 N457 1.990 . S
Li440 O500 1.956 . S
Li440 O501 1.970 . S
Li440 O502 1.961 . S
Li441 N465 1.990 . S
Li441 O500 1.970 . S
Li441 O501 1.956 . S
Li441 O503 1.961 . S
Li442 N487 1.990 . S
Li442 O500 1.961 . S
Li442 O502 1.956 . S
Li442 O503 1.970 . S
Li443 N493 1.990 . S
Li443 O501 1.961 . S
Li443 O502 1.970 . S
Li443 O503 1.956 . S
C444 C446 1.348 . S
C444 C447 1.356 . S
C444 O500 1.325 . S
N445 C448 1.314 . S
N445 C449 1.279 . S
C446 C444 1.348 . S
C446 C448 1.353 1_556 S
C446 H504 0.929 . S
C447 C444 1.356 . S
C447 C449 1.358 1_556 S
C447 H505 0.930 . S
C448 N445 1.314 . S
C448 C446 1.353 1_554 S
C448 H506 0.930 . S
C449 N445 1.279 . S
C449 C447 1.358 1_554 S
C449 H507 0.930 . S
C450 C453 1.348 . S
C450 C454 1.356 . S
C450 O501 1.325 . S
C451 N452 1.279 . S
C451 C454 1.358 . S
C451 H508 0.930 . S
N452 C451 1.279 . S
N452 C455 1.314 . S
C453 C450 1.348 . S
C453 C455 1.353 . S
C453 H509 0.929 . S
C454 C450 1.356 . S
C454 C451 1.358 . S
C454 H510 0.930 . S
C455 N452 1.314 . S
C455 C453 1.353 . S
C455 H511 0.930 . S
C456 N457 1.314 . S
C456 C461 1.353 . S
C456 H462 0.930 . S
N457 Li440 1.990 . S
N457 C456 1.314 . S
N457 C459 1.279 . S
C458 C459 1.358 . S
C458 C460 1.356 . S
C458 H512 0.930 . S
C459 N457 1.279 . S
C459 C458 1.358 . S
C459 H463 0.930 . S
C460 C458 1.356 . S
C460 C461 1.348 . S
C461 C456 1.353 . S
C461 C460 1.348 . S
C461 H513 0.929 . S
H462 C456 0.930 . S
H463 C459 0.930 . S
C464 N465 1.314 . S
C464 C466 1.353 . S
C464 H470 0.930 . S
N465 Li441 1.990 . S
N465 C464 1.314 . S
N465 C468 1.279 . S
C466 C464 1.353 . S
C466 C469 1.348 . S
C466 H514 0.929 . S
C467 C468 1.358 . S
C467 C469 1.356 . S
C467 H515 0.930 . S
C468 N465 1.279 . S
C468 C467 1.358 . S
C468 H471 0.930 . S
C469 C466 1.348 . S
C469 C467 1.356 . S
H470 C464 0.930 . S
H471 C468 0.930 . S
C472 C474 1.348 . S
C472 C475 1.356 . S
C472 O502 1.325 . S
N473 C476 1.314 . S
N473 C477 1.279 . S
C474 C472 1.348 . S
C474 C476 1.353 . S
C474 H516 0.929 . S
C475 C472 1.356 . S
C475 C477 1.358 . S
C475 H517 0.930 . S
C476 N473 1.314 . S
C476 C474 1.353 . S
C476 H518 0.930 . S
C477 N473 1.279 . S
C477 C475 1.358 . S
C477 H519 0.930 . S
C478 C479 1.348 . S
C478 C480 1.356 . S
C478 O503 1.325 . S
C479 C478 1.348 . S
C479 C481 1.353 . S
C479 H520 0.929 . S
C480 C478 1.356 . S
C480 C482 1.358 . S
C480 H521 0.930 . S
C481 C479 1.353 . S
C481 N483 1.314 . S
C481 H522 0.930 . S
C482 C480 1.358 . S
C482 N483 1.279 . S
C482 H523 0.930 . S
N483 C481 1.314 . S
N483 C482 1.279 . S
C484 C486 1.353 . S
C484 N487 1.314 1_554 S
C484 H490 0.930 . S
C485 N487 1.279 . S
C485 C488 1.358 1_556 S
C485 H491 0.930 . S
C486 C484 1.353 . S
C486 C489 1.348 . S
C486 H524 0.929 . S
N487 Li442 1.990 . S
N487 C484 1.314 1_556 S
N487 C485 1.279 . S
C488 C485 1.358 1_554 S
C488 C489 1.356 . S
C488 H525 0.930 . S
C489 C486 1.348 . S
C489 C488 1.356 . S
H490 C484 0.930 . S
H491 C485 0.930 . S
C492 N493 1.314 . S
C492 C494 1.353 . S
C492 H498 0.930 . S
N493 Li443 1.990 . S
N493 C492 1.314 . S
N493 C496 1.279 . S
C494 C492 1.353 . S
C494 C497 1.348 . S
C494 H526 0.929 . S
C495 C496 1.358 . S
C495 C497 1.356 . S
C495 H527 0.930 . S
C496 N493 1.279 . S
C496 C495 1.358 . S
C496 H499 0.930 . S
C497 C494 1.348 . S
C497 C495 1.356 . S
H498 C492 0.930 . S
H499 C496 0.930 . S
O500 Li440 1.956 . S
O500 Li441 1.970 . S
O500 Li442 1.961 . S
O500 C444 1.325 . S
O501 Li440 1.970 . S
O501 Li441 1.956 . S
O501 Li443 1.961 . S
O501 C450 1.325 . S
O502 Li440 1.961 . S
O502 Li442 1.956 . S
O502 Li443 1.970 . S
O502 C472 1.325 . S
O503 Li441 1.961 . S
O503 Li442 1.970 . S
O503 Li443 1.956 . S
O503 C478 1.325 . S
H504 C446 0.929 . S
H505 C447 0.930 . S
H506 C448 0.930 . S
H507 C449 0.930 . S
H508 C451 0.930 . S
H509 C453 0.929 . S
H510 C454 0.930 . S
H511 C455 0.930 . S
H512 C458 0.930 . S
H513 C461 0.929 . S
H514 C466 0.929 . S
H515 C467 0.930 . S
H516 C474 0.929 . S
H517 C475 0.930 . S
H518 C476 0.930 . S
H519 C477 0.930 . S
H520 C479 0.929 . S
H521 C480 0.930 . S
H522 C481 0.930 . S
H523 C482 0.930 . S
H524 C486 0.929 . S
H525 C488 0.930 . S
H526 C494 0.929 . S
H527 C495 0.930 . S
Li528 N545 1.990 1_565 S
Li528 O588 1.956 . S
Li528 O589 1.970 . S
Li528 O590 1.961 . S
Li529 N553 1.990 . S
Li529 O588 1.970 . S
Li529 O589 1.956 . S
Li529 O591 1.961 . S
Li530 N575 1.990 . S
Li530 O588 1.961 . S
Li530 O590 1.956 . S
Li530 O591 1.970 . S
Li531 N581 1.990 . S
Li531 O589 1.961 . S
Li531 O590 1.970 . S
Li531 O591 1.956 . S
C532 C534 1.348 . S
C532 C535 1.356 . S
C532 O588 1.325 . S
N533 C536 1.314 . S
N533 C537 1.279 . S
C534 C532 1.348 . S
C534 C536 1.353 . S
C534 H592 0.929 . S
C535 C532 1.356 . S
C535 C537 1.358 . S
C535 H593 0.930 . S
C536 N533 1.314 . S
C536 C534 1.353 . S
C536 H594 0.930 . S
C537 N533 1.279 . S
C537 C535 1.358 . S
C537 H595 0.930 . S
C538 C541 1.348 . S
C538 C542 1.356 . S
C538 O589 1.325 . S
C539 N540 1.279 . S
C539 C542 1.358 . S
C539 H596 0.930 . S
N540 C539 1.279 . S
N540 C543 1.314 . S
C541 C538 1.348 . S
C541 C543 1.353 . S
C541 H597 0.929 . S
C542 C538 1.356 . S
C542 C539 1.358 . S
C542 H598 0.930 . S
C543 N540 1.314 . S
C543 C541 1.353 . S
C543 H599 0.930 1_565 S
C544 N545 1.314 . S
C544 C549 1.353 . S
C544 H550 0.930 1_545 S
N545 Li528 1.990 1_545 S
N545 C544 1.314 . S
N545 C547 1.279 . S
C546 C547 1.358 . S
C546 C548 1.356 . S
C546 H600 0.930 . S
C547 N545 1.279 . S
C547 C546 1.358 . S
C547 H551 0.930 . S
C548 C546 1.356 . S
C548 C549 1.348 . S
C549 C544 1.353 . S
C549 C548 1.348 . S
C549 H601 0.929 . S
H550 C544 0.930 1_565 S
H551 C547 0.930 . S
C552 N553 1.314 . S
C552 C554 1.353 . S
C552 H558 0.930 . S
N553 Li529 1.990 . S
N553 C552 1.314 . S
N553 C556 1.279 . S
C554 C552 1.353 . S
C554 C557 1.348 . S
C554 H602 0.929 . S
C555 C556 1.358 . S
C555 C557 1.356 . S
C555 H603 0.930 . S
C556 N553 1.279 . S
C556 C555 1.358 . S
C556 H559 0.930 . S
C557 C554 1.348 . S
C557 C555 1.356 . S
H558 C552 0.930 . S
H559 C556 0.930 . S
C560 C562 1.348 . S
C560 C563 1.356 . S
C560 O590 1.325 . S
N561 C564 1.314 . S
N561 C565 1.279 . S
C562 C560 1.348 . S
C562 C564 1.353 . S
C562 H604 0.929 . S
C563 C560 1.356 . S
C563 C565 1.358 . S
C563 H605 0.930 . S
C564 N561 1.314 . S
C564 C562 1.353 . S
C564 H606 0.930 . S
C565 N561 1.279 . S
C565 C563 1.358 . S
C565 H607 0.930 . S
C566 C567 1.348 . S
C566 C568 1.356 . S
C566 O591 1.325 . S
C567 C566 1.348 . S
C567 C569 1.353 . S
C567 H608 0.929 . S
C568 C566 1.356 . S
C568 C570 1.358 . S
C568 H609 0.930 . S
C569 C567 1.353 . S
C569 N571 1.314 . S
C569 H610 0.930 . S
C570 C568 1.358 . S
C570 N571 1.279 . S
C570 H611 0.930 . S
N571 C569 1.314 . S
N571 C570 1.279 . S
C572 C574 1.353 . S
C572 N575 1.314 . S
C572 H578 0.930 . S
C573 N575 1.279 . S
C573 C576 1.358 . S
C573 H579 0.930 . S
C574 C572 1.353 . S
C574 C577 1.348 . S
C574 H612 0.929 . S
N575 Li530 1.990 . S
N575 C572 1.314 . S
N575 C573 1.279 . S
C576 C573 1.358 . S
C576 C577 1.356 . S
C576 H613 0.930 . S
C577 C574 1.348 . S
C577 C576 1.356 . S
H578 C572 0.930 . S
H579 C573 0.930 . S
C580 N581 1.314 . S
C580 C582 1.353 . S
C580 H586 0.930 . S
N581 Li531 1.990 . S
N581 C580 1.314 . S
N581 C584 1.279 . S
C582 C580 1.353 . S
C582 C585 1.348 . S
C582 H614 0.929 . S
C583 C584 1.358 . S
C583 C585 1.356 . S
C583 H615 0.930 . S
C584 N581 1.279 . S
C584 C583 1.358 . S
C584 H587 0.930 . S
C585 C582 1.348 . S
C585 C583 1.356 . S
H586 C580 0.930 . S
H587 C584 0.930 . S
O588 Li528 1.956 . S
O588 Li529 1.970 . S
O588 Li530 1.961 . S
O588 C532 1.325 . S
O589 Li528 1.970 . S
O589 Li529 1.956 . S
O589 Li531 1.961 . S
O589 C538 1.325 . S
O590 Li528 1.961 . S
O590 Li530 1.956 . S
O590 Li531 1.970 . S
O590 C560 1.325 . S
O591 Li529 1.961 . S
O591 Li530 1.970 . S
O591 Li531 1.956 . S
O591 C566 1.325 . S
H592 C534 0.929 . S
H593 C535 0.930 . S
H594 C536 0.930 . S
H595 C537 0.930 . S
H596 C539 0.930 . S
H597 C541 0.929 . S
H598 C542 0.930 . S
H599 C543 0.930 1_545 S
H600 C546 0.930 . S
H601 C549 0.929 . S
H602 C554 0.929 . S
H603 C555 0.930 . S
H604 C562 0.929 . S
H605 C563 0.930 . S
H606 C564 0.930 . S
H607 C565 0.930 . S
H608 C567 0.929 . S
H609 C568 0.930 . S
H610 C569 0.930 . S
H611 C570 0.930 . S
H612 C574 0.929 . S
H613 C576 0.930 . S
H614 C582 0.929 . S
H615 C583 0.930 . S
Li616 N633 1.990 . S
Li616 O676 1.956 . S
Li616 O677 1.970 . S
Li616 O678 1.961 . S
Li617 N641 1.990 . S
Li617 O676 1.970 . S
Li617 O677 1.956 . S
Li617 O679 1.961 . S
Li618 N663 1.990 . S
Li618 O676 1.961 . S
Li618 O678 1.956 . S
Li618 O679 1.970 . S
Li619 N669 1.990 . S
Li619 O677 1.961 . S
Li619 O678 1.970 . S
Li619 O679 1.956 . S
C620 C622 1.348 . S
C620 C623 1.356 . S
C620 O676 1.325 . S
N621 C624 1.314 . S
N621 C625 1.279 . S
C622 C620 1.348 . S
C622 C624 1.353 . S
C622 H680 0.929 . S
C623 C620 1.356 . S
C623 C625 1.358 . S
C623 H681 0.930 . S
C624 N621 1.314 . S
C624 C622 1.353 . S
C624 H682 0.930 . S
C625 N621 1.279 . S
C625 C623 1.358 . S
C625 H683 0.930 . S
C626 C629 1.348 . S
C626 C630 1.356 . S
C626 O677 1.325 . S
C627 N628 1.279 . S
C627 C630 1.358 . S
C627 H684 0.930 . S
N628 C627 1.279 . S
N628 C631 1.314 . S
C629 C626 1.348 . S
C629 C631 1.353 . S
C629 H685 0.929 . S
C630 C626 1.356 . S
C630 C627 1.358 . S
C630 H686 0.930 . S
C631 N628 1.314 . S
C631 C629 1.353 . S
C631 H687 0.930 . S
C632 N633 1.314 . S
C632 C637 1.353 . S
C632 H638 0.930 . S
N633 Li616 1.990 . S
N633 C632 1.314 . S
N633 C635 1.279 . S
C634 C635 1.358 . S
C634 C636 1.356 . S
C634 H688 0.930 . S
C635 N633 1.279 . S
C635 C634 1.358 . S
C635 H639 0.930 . S
C636 C634 1.356 . S
C636 C637 1.348 . S
C637 C632 1.353 . S
C637 C636 1.348 . S
C637 H689 0.929 . S
H638 C632 0.930 . S
H639 C635 0.930 . S
C640 N641 1.314 . S
C640 C642 1.353 . S
C640 H646 0.930 . S
N641 Li617 1.990 . S
N641 C640 1.314 . S
N641 C644 1.279 . S
C642 C640 1.353 . S
C642 C645 1.348 . S
C642 H690 0.929 . S
C643 C644 1.358 . S
C643 C645 1.356 . S
C643 H691 0.930 . S
C644 N641 1.279 . S
C644 C643 1.358 . S
C644 H647 0.930 . S
C645 C642 1.348 . S
C645 C643 1.356 . S
H646 C640 0.930 . S
H647 C644 0.930 . S
C648 C650 1.348 . S
C648 C651 1.356 . S
C648 O678 1.325 . S
N649 C652 1.314 . S
N649 C653 1.279 . S
C650 C648 1.348 . S
C650 C652 1.353 . S
C650 H692 0.929 . S
C651 C648 1.356 . S
C651 C653 1.358 . S
C651 H693 0.930 . S
C652 N649 1.314 . S
C652 C650 1.353 . S
C652 H694 0.930 . S
C653 N649 1.279 . S
C653 C651 1.358 . S
C653 H695 0.930 . S
C654 C655 1.348 . S
C654 C656 1.356 . S
C654 O679 1.325 . S
C655 C654 1.348 . S
C655 C657 1.353 . S
C655 H696 0.929 . S
C656 C654 1.356 . S
C656 C658 1.358 . S
C656 H697 0.930 . S
C657 C655 1.353 . S
C657 N659 1.314 . S
C657 H698 0.930 . S
C658 C656 1.358 . S
C658 N659 1.279 . S
C658 H699 0.930 . S
N659 C657 1.314 . S
N659 C658 1.279 . S
C660 C662 1.353 . S
C660 N663 1.314 . S
C660 H666 0.930 . S
C661 N663 1.279 . S
C661 C664 1.358 . S
C661 H667 0.930 . S
C662 C660 1.353 . S
C662 C665 1.348 . S
C662 H700 0.929 . S
N663 Li618 1.990 . S
N663 C660 1.314 . S
N663 C661 1.279 . S
C664 C661 1.358 . S
C664 C665 1.356 . S
C664 H701 0.930 . S
C665 C662 1.348 . S
C665 C664 1.356 . S
H666 C660 0.930 . S
H667 C661 0.930 . S
C668 N669 1.314 . S
C668 C670 1.353 . S
C668 H674 0.930 . S
N669 Li619 1.990 . S
N669 C668 1.314 . S
N669 C672 1.279 . S
C670 C668 1.353 . S
C670 C673 1.348 . S
C670 H702 0.929 . S
C671 C672 1.358 . S
C671 C673 1.356 . S
C671 H703 0.930 . S
C672 N669 1.279 . S
C672 C671 1.358 . S
C672 H675 0.930 . S
C673 C670 1.348 . S
C673 C671 1.356 . S
H674 C668 0.930 . S
H675 C672 0.930 . S
O676 Li616 1.956 . S
O676 Li617 1.970 . S
O676 Li618 1.961 . S
O676 C620 1.325 . S
O677 Li616 1.970 . S
O677 Li617 1.956 . S
O677 Li619 1.961 . S
O677 C626 1.325 . S
O678 Li616 1.961 . S
O678 Li618 1.956 . S
O678 Li619 1.970 . S
O678 C648 1.325 . S
O679 Li617 1.961 . S
O679 Li618 1.970 . S
O679 Li619 1.956 . S
O679 C654 1.325 . S
H680 C622 0.929 . S
H681 C623 0.930 . S
H682 C624 0.930 . S
H683 C625 0.930 . S
H684 C627 0.930 . S
H685 C629 0.929 . S
H686 C630 0.930 . S
H687 C631 0.930 . S
H688 C634 0.930 . S
H689 C637 0.929 . S
H690 C642 0.929 . S
H691 C643 0.930 . S
H692 C650 0.929 . S
H693 C651 0.930 . S
H694 C652 0.930 . S
H695 C653 0.930 . S
H696 C655 0.929 . S
H697 C656 0.930 . S
H698 C657 0.930 . S
H699 C658 0.930 . S
H700 C662 0.929 . S
H701 C664 0.930 . S
H702 C670 0.929 . S
H703 C671 0.930 . S
Li704 N721 1.990 . S
Li704 O764 1.956 . S
Li704 O765 1.970 . S
Li704 O766 1.961 . S
Li705 N729 1.990 . S
Li705 O764 1.970 . S
Li705 O765 1.956 . S
Li705 O767 1.961 . S
Li706 N751 1.990 . S
Li706 O764 1.961 . S
Li706 O766 1.956 . S
Li706 O767 1.970 . S
Li707 N757 1.990 1_455 S
Li707 O765 1.961 . S
Li707 O766 1.970 . S
Li707 O767 1.956 . S
C708 C710 1.348 . S
C708 C711 1.356 . S
C708 O764 1.325 . S
N709 C712 1.314 . S
N709 C713 1.279 . S
C710 C708 1.348 . S
C710 C712 1.353 . S
C710 H768 0.929 . S
C711 C708 1.356 . S
C711 C713 1.358 . S
C711 H769 0.930 . S
C712 N709 1.314 . S
C712 C710 1.353 . S
C712 H770 0.930 . S
C713 N709 1.279 . S
C713 C711 1.358 . S
C713 H771 0.930 . S
C714 C717 1.348 . S
C714 C718 1.356 . S
C714 O765 1.325 . S
C715 N716 1.279 . S
C715 C718 1.358 . S
C715 H772 0.930 . S
N716 C715 1.279 . S
N716 C719 1.314 . S
C717 C714 1.348 . S
C717 C719 1.353 . S
C717 H773 0.929 . S
C718 C714 1.356 . S
C718 C715 1.358 . S
C718 H774 0.930 . S
C719 N716 1.314 . S
C719 C717 1.353 . S
C719 H775 0.930 . S
C720 N721 1.314 1_556 S
C720 C725 1.353 . S
C720 H726 0.930 . S
N721 Li704 1.990 . S
N721 C720 1.314 1_554 S
N721 C723 1.279 . S
C722 C723 1.358 1_556 S
C722 C724 1.356 . S
C722 H776 0.930 . S
C723 N721 1.279 . S
C723 C722 1.358 1_554 S
C723 H727 0.930 . S
C724 C722 1.356 . S
C724 C725 1.348 . S
C725 C720 1.353 . S
C725 C724 1.348 . S
C725 H777 0.929 . S
H726 C720 0.930 . S
H727 C723 0.930 . S
C728 N729 1.314 . S
C728 C730 1.353 . S
C728 H734 0.930 . S
N729 Li705 1.990 . S
N729 C728 1.314 . S
N729 C732 1.279 . S
C730 C728 1.353 . S
C730 C733 1.348 . S
C730 H778 0.929 . S
C731 C732 1.358 . S
C731 C733 1.356 . S
C731 H779 0.930 . S
C732 N729 1.279 . S
C732 C731 1.358 . S
C732 H735 0.930 . S
C733 C730 1.348 . S
C733 C731 1.356 . S
H734 C728 0.930 . S
H735 C732 0.930 . S
C736 C738 1.348 . S
C736 C739 1.356 . S
C736 O766 1.325 . S
N737 C740 1.314 . S
N737 C741 1.279 . S
C738 C736 1.348 . S
C738 C740 1.353 1_554 S
C738 H780 0.929 . S
C739 C736 1.356 . S
C739 C741 1.358 1_554 S
C739 H781 0.930 . S
C740 N737 1.314 . S
C740 C738 1.353 1_556 S
C740 H782 0.930 1_455 S
C741 N737 1.279 . S
C741 C739 1.358 1_556 S
C741 H783 0.930 . S
C742 C743 1.348 . S
C742 C744 1.356 . S
C742 O767 1.325 . S
C743 C742 1.348 . S
C743 C745 1.353 . S
C743 H784 0.929 . S
C744 C742 1.356 . S
C744 C746 1.358 . S
C744 H785 0.930 . S
C745 C743 1.353 . S
C745 N747 1.314 . S
C745 H786 0.930 . S
C746 C744 1.358 . S
C746 N747 1.279 . S
C746 H787 0.930 . S
N747 C745 1.314 . S
N747 C746 1.279 . S
C748 C750 1.353 . S
C748 N751 1.314 . S
C748 H754 0.930 . S
C749 N751 1.279 . S
C749 C752 1.358 . S
C749 H755 0.930 . S
C750 C748 1.353 . S
C750 C753 1.348 . S
C750 H788 0.929 . S
N751 Li706 1.990 . S
N751 C748 1.314 . S
N751 C749 1.279 . S
C752 C749 1.358 . S
C752 C753 1.356 . S
C752 H789 0.930 . S
C753 C750 1.348 . S
C753 C752 1.356 . S
H754 C748 0.930 . S
H755 C749 0.930 . S
C756 N757 1.314 . S
C756 C758 1.353 . S
C756 H762 0.930 1_655 S
N757 Li707 1.990 1_655 S
N757 C756 1.314 . S
N757 C760 1.279 . S
C758 C756 1.353 . S
C758 C761 1.348 . S
C758 H790 0.929 . S
C759 C760 1.358 . S
C759 C761 1.356 . S
C759 H791 0.930 . S
C760 N757 1.279 . S
C760 C759 1.358 . S
C760 H763 0.930 . S
C761 C758 1.348 . S
C761 C759 1.356 . S
H762 C756 0.930 1_455 S
H763 C760 0.930 . S
O764 Li704 1.956 . S
O764 Li705 1.970 . S
O764 Li706 1.961 . S
O764 C708 1.325 . S
O765 Li704 1.970 . S
O765 Li705 1.956 . S
O765 Li707 1.961 . S
O765 C714 1.325 . S
O766 Li704 1.961 . S
O766 Li706 1.956 . S
O766 Li707 1.970 . S
O766 C736 1.325 . S
O767 Li705 1.961 . S
O767 Li706 1.970 . S
O767 Li707 1.956 . S
O767 C742 1.325 . S
H768 C710 0.929 . S
H769 C711 0.930 . S
H770 C712 0.930 . S
H771 C713 0.930 . S
H772 C715 0.930 . S
H773 C717 0.929 . S
H774 C718 0.930 . S
H775 C719 0.930 . S
H776 C722 0.930 . S
H777 C725 0.929 . S
H778 C730 0.929 . S
H779 C731 0.930 . S
H780 C738 0.929 . S
H781 C739 0.930 . S
H782 C740 0.930 1_655 S
H783 C741 0.930 . S
H784 C743 0.929 . S
H785 C744 0.930 . S
H786 C745 0.930 . S
H787 C746 0.930 . S
H788 C750 0.929 . S
H789 C752 0.930 . S
H790 C758 0.929 . S
H791 C759 0.930 . S
Li792 N809 1.990 1_545 S
Li792 O852 1.956 . S
Li792 O853 1.970 . S
Li792 O854 1.961 . S
Li793 N817 1.990 . S
Li793 O852 1.970 . S
Li793 O853 1.956 . S
Li793 O855 1.961 . S
Li794 N839 1.990 . S
Li794 O852 1.961 . S
Li794 O854 1.956 . S
Li794 O855 1.970 . S
Li795 N845 1.990 . S
Li795 O853 1.961 . S
Li795 O854 1.970 . S
Li795 O855 1.956 . S
C796 C798 1.348 . S
C796 C799 1.356 . S
C796 O852 1.325 . S
N797 C800 1.314 . S
N797 C801 1.279 . S
C798 C796 1.348 . S
C798 C800 1.353 . S
C798 H856 0.929 . S
C799 C796 1.356 . S
C799 C801 1.358 . S
C799 H857 0.930 . S
C800 N797 1.314 . S
C800 C798 1.353 . S
C800 H858 0.930 . S
C801 N797 1.279 . S
C801 C799 1.358 . S
C801 H859 0.930 . S
C802 C805 1.348 . S
C802 C806 1.356 . S
C802 O853 1.325 . S
C803 N804 1.279 . S
C803 C806 1.358 . S
C803 H860 0.930 . S
N804 C803 1.279 . S
N804 C807 1.314 . S
C805 C802 1.348 . S
C805 C807 1.353 . S
C805 H861 0.929 . S
C806 C802 1.356 . S
C806 C803 1.358 . S
C806 H862 0.930 . S
C807 N804 1.314 . S
C807 C805 1.353 . S
C807 H863 0.930 1_545 S
C808 N809 1.314 . S
C808 C813 1.353 . S
C808 H814 0.930 1_565 S
N809 Li792 1.990 1_565 S
N809 C808 1.314 . S
N809 C811 1.279 . S
C810 C811 1.358 . S
C810 C812 1.356 . S
C810 H864 0.930 . S
C811 N809 1.279 . S
C811 C810 1.358 . S
C811 H815 0.930 . S
C812 C810 1.356 . S
C812 C813 1.348 . S
C813 C808 1.353 . S
C813 C812 1.348 . S
C813 H865 0.929 . S
H814 C808 0.930 1_545 S
H815 C811 0.930 . S
C816 N817 1.314 . S
C816 C818 1.353 . S
C816 H822 0.930 . S
N817 Li793 1.990 . S
N817 C816 1.314 . S
N817 C820 1.279 . S
C818 C816 1.353 . S
C818 C821 1.348 . S
C818 H866 0.929 . S
C819 C820 1.358 . S
C819 C821 1.356 . S
C819 H867 0.930 . S
C820 N817 1.279 . S
C820 C819 1.358 . S
C820 H823 0.930 . S
C821 C818 1.348 . S
C821 C819 1.356 . S
H822 C816 0.930 . S
H823 C820 0.930 . S
C824 C826 1.348 . S
C824 C827 1.356 . S
C824 O854 1.325 . S
N825 C828 1.314 . S
N825 C829 1.279 . S
C826 C824 1.348 . S
C826 C828 1.353 . S
C826 H868 0.929 . S
C827 C824 1.356 . S
C827 C829 1.358 . S
C827 H869 0.930 . S
C828 N825 1.314 . S
C828 C826 1.353 . S
C828 H870 0.930 . S
C829 N825 1.279 . S
C829 C827 1.358 . S
C829 H871 0.930 . S
C830 C831 1.348 . S
C830 C832 1.356 . S
C830 O855 1.325 . S
C831 C830 1.348 . S
C831 C833 1.353 . S
C831 H872 0.929 . S
C832 C830 1.356 . S
C832 C834 1.358 . S
C832 H873 0.930 . S
C833 C831 1.353 . S
C833 N835 1.314 . S
C833 H874 0.930 . S
C834 C832 1.358 . S
C834 N835 1.279 . S
C834 H875 0.930 . S
N835 C833 1.314 . S
N835 C834 1.279 . S
C836 C838 1.353 . S
C836 N839 1.314 . S
C836 H842 0.930 . S
C837 N839 1.279 . S
C837 C840 1.358 . S
C837 H843 0.930 . S
C838 C836 1.353 . S
C838 C841 1.348 . S
C838 H876 0.929 . S
N839 Li794 1.990 . S
N839 C836 1.314 . S
N839 C837 1.279 . S
C840 C837 1.358 . S
C840 C841 1.356 . S
C840 H877 0.930 . S
C841 C838 1.348 . S
C841 C840 1.356 . S
H842 C836 0.930 . S
H843 C837 0.930 . S
C844 N845 1.314 . S
C844 C846 1.353 . S
C844 H850 0.930 . S
N845 Li795 1.990 . S
N845 C844 1.314 . S
N845 C848 1.279 . S
C846 C844 1.353 . S
C846 C849 1.348 . S
C846 H878 0.929 . S
C847 C848 1.358 . S
C847 C849 1.356 . S
C847 H879 0.930 . S
C848 N845 1.279 . S
C848 C847 1.358 . S
C848 H851 0.930 . S
C849 C846 1.348 . S
C849 C847 1.356 . S
H850 C844 0.930 . S
H851 C848 0.930 . S
O852 Li792 1.956 . S
O852 Li793 1.970 . S
O852 Li794 1.961 . S
O852 C796 1.325 . S
O853 Li792 1.970 . S
O853 Li793 1.956 . S
O853 Li795 1.961 . S
O853 C802 1.325 . S
O854 Li792 1.961 . S
O854 Li794 1.956 . S
O854 Li795 1.970 . S
O854 C824 1.325 . S
O855 Li793 1.961 . S
O855 Li794 1.970 . S
O855 Li795 1.956 . S
O855 C830 1.325 . S
H856 C798 0.929 . S
H857 C799 0.930 . S
H858 C800 0.930 . S
H859 C801 0.930 . S
H860 C803 0.930 . S
H861 C805 0.929 . S
H862 C806 0.930 . S
H863 C807 0.930 1_565 S
H864 C810 0.930 . S
H865 C813 0.929 . S
H866 C818 0.929 . S
H867 C819 0.930 . S
H868 C826 0.929 . S
H869 C827 0.930 . S
H870 C828 0.930 . S
H871 C829 0.930 . S
H872 C831 0.929 . S
H873 C832 0.930 . S
H874 C833 0.930 . S
H875 C834 0.930 . S
H876 C838 0.929 . S
H877 C840 0.930 . S
H878 C846 0.929 . S
H879 C847 0.930 . S
Li880 N897 1.990 . S
Li880 O940 1.956 . S
Li880 O941 1.970 . S
Li880 O942 1.961 . S
Li881 N905 1.990 . S
Li881 O940 1.970 . S
Li881 O941 1.956 . S
Li881 O943 1.961 . S
Li882 N927 1.990 . S
Li882 O940 1.961 . S
Li882 O942 1.956 . S
Li882 O943 1.970 . S
Li883 N933 1.990 . S
Li883 O941 1.961 . S
Li883 O942 1.970 . S
Li883 O943 1.956 . S
C884 C886 1.348 . S
C884 C887 1.356 . S
C884 O940 1.325 . S
N885 C888 1.314 . S
N885 C889 1.279 . S
C886 C884 1.348 . S
C886 C888 1.353 . S
C886 H944 0.929 . S
C887 C884 1.356 . S
C887 C889 1.358 . S
C887 H945 0.930 . S
C888 N885 1.314 . S
C888 C886 1.353 . S
C888 H946 0.930 . S
C889 N885 1.279 . S
C889 C887 1.358 . S
C889 H947 0.930 . S
C890 C893 1.348 . S
C890 C894 1.356 . S
C890 O941 1.325 . S
C891 N892 1.279 . S
C891 C894 1.358 . S
C891 H948 0.930 . S
N892 C891 1.279 . S
N892 C895 1.314 . S
C893 C890 1.348 . S
C893 C895 1.353 . S
C893 H949 0.929 . S
C894 C890 1.356 . S
C894 C891 1.358 . S
C894 H950 0.930 . S
C895 N892 1.314 . S
C895 C893 1.353 . S
C895 H951 0.930 . S
C896 N897 1.314 . S
C896 C901 1.353 . S
C896 H902 0.930 . S
N897 Li880 1.990 . S
N897 C896 1.314 . S
N897 C899 1.279 . S
C898 C899 1.358 . S
C898 C900 1.356 . S
C898 H952 0.930 . S
C899 N897 1.279 . S
C899 C898 1.358 . S
C899 H903 0.930 . S
C900 C898 1.356 . S
C900 C901 1.348 . S
C901 C896 1.353 . S
C901 C900 1.348 . S
C901 H953 0.929 . S
H902 C896 0.930 . S
H903 C899 0.930 . S
C904 N905 1.314 . S
C904 C906 1.353 . S
C904 H910 0.930 . S
N905 Li881 1.990 . S
N905 C904 1.314 . S
N905 C908 1.279 . S
C906 C904 1.353 . S
C906 C909 1.348 . S
C906 H954 0.929 . S
C907 C908 1.358 . S
C907 C909 1.356 . S
C907 H955 0.930 . S
C908 N905 1.279 . S
C908 C907 1.358 . S
C908 H911 0.930 . S
C909 C906 1.348 . S
C909 C907 1.356 . S
H910 C904 0.930 . S
H911 C908 0.930 . S
C912 C914 1.348 . S
C912 C915 1.356 . S
C912 O942 1.325 . S
N913 C916 1.314 . S
N913 C917 1.279 . S
C914 C912 1.348 . S
C914 C916 1.353 . S
C914 H956 0.929 . S
C915 C912 1.356 . S
C915 C917 1.358 . S
C915 H957 0.930 . S
C916 N913 1.314 . S
C916 C914 1.353 . S
C916 H958 0.930 . S
C917 N913 1.279 . S
C917 C915 1.358 . S
C917 H959 0.930 . S
C918 C919 1.348 . S
C918 C920 1.356 . S
C918 O943 1.325 . S
C919 C918 1.348 . S
C919 C921 1.353 . S
C919 H960 0.929 . S
C920 C918 1.356 . S
C920 C922 1.358 . S
C920 H961 0.930 . S
C921 C919 1.353 . S
C921 N923 1.314 . S
C921 H962 0.930 . S
C922 C920 1.358 . S
C922 N923 1.279 . S
C922 H963 0.930 . S
N923 C921 1.314 . S
N923 C922 1.279 . S
C924 C926 1.353 . S
C924 N927 1.314 . S
C924 H930 0.930 . S
C925 N927 1.279 . S
C925 C928 1.358 . S
C925 H931 0.930 . S
C926 C924 1.353 . S
C926 C929 1.348 . S
C926 H964 0.929 . S
N927 Li882 1.990 . S
N927 C924 1.314 . S
N927 C925 1.279 . S
C928 C925 1.358 . S
C928 C929 1.356 . S
C928 H965 0.930 . S
C929 C926 1.348 . S
C929 C928 1.356 . S
H930 C924 0.930 . S
H931 C925 0.930 . S
C932 N933 1.314 . S
C932 C934 1.353 . S
C932 H938 0.930 . S
N933 Li883 1.990 . S
N933 C932 1.314 . S
N933 C936 1.279 . S
C934 C932 1.353 . S
C934 C937 1.348 . S
C934 H966 0.929 . S
C935 C936 1.358 . S
C935 C937 1.356 . S
C935 H967 0.930 . S
C936 N933 1.279 . S
C936 C935 1.358 . S
C936 H939 0.930 . S
C937 C934 1.348 . S
C937 C935 1.356 . S
H938 C932 0.930 . S
H939 C936 0.930 . S
O940 Li880 1.956 . S
O940 Li881 1.970 . S
O940 Li882 1.961 . S
O940 C884 1.325 . S
O941 Li880 1.970 . S
O941 Li881 1.956 . S
O941 Li883 1.961 . S
O941 C890 1.325 . S
O942 Li880 1.961 . S
O942 Li882 1.956 . S
O942 Li883 1.970 . S
O942 C912 1.325 . S
O943 Li881 1.961 . S
O943 Li882 1.970 . S
O943 Li883 1.956 . S
O943 C918 1.325 . S
H944 C886 0.929 . S
H945 C887 0.930 . S
H946 C888 0.930 . S
H947 C889 0.930 . S
H948 C891 0.930 . S
H949 C893 0.929 . S
H950 C894 0.930 . S
H951 C895 0.930 . S
H952 C898 0.930 . S
H953 C901 0.929 . S
H954 C906 0.929 . S
H955 C907 0.930 . S
H956 C914 0.929 . S
H957 C915 0.930 . S
H958 C916 0.930 . S
H959 C917 0.930 . S
H960 C919 0.929 . S
H961 C920 0.930 . S
H962 C921 0.930 . S
H963 C922 0.930 . S
H964 C926 0.929 . S
H965 C928 0.930 . S
H966 C934 0.929 . S
H967 C935 0.930 . S
Li968 N985 1.990 1_655 S
Li968 O1028 1.956 . S
Li968 O1029 1.970 . S
Li968 O1030 1.961 . S
Li969 N993 1.990 . S
Li969 O1028 1.970 . S
Li969 O1029 1.956 . S
Li969 O1031 1.961 . S
Li970 N1015 1.990 . S
Li970 O1028 1.961 . S
Li970 O1030 1.956 . S
Li970 O1031 1.970 . S
Li971 N1021 1.990 . S
Li971 O1029 1.961 . S
Li971 O1030 1.970 . S
Li971 O1031 1.956 . S
C972 C974 1.348 . S
C972 C975 1.356 . S
C972 O1028 1.325 . S
N973 C976 1.314 . S
N973 C977 1.279 . S
C974 C972 1.348 . S
C974 C976 1.353 . S
C974 H1032 0.929 . S
C975 C972 1.356 . S
C975 C977 1.358 . S
C975 H1033 0.930 . S
C976 N973 1.314 . S
C976 C974 1.353 . S
C976 H1034 0.930 . S
C977 N973 1.279 . S
C977 C975 1.358 . S
C977 H1035 0.930 . S
C978 C981 1.348 . S
C978 C982 1.356 . S
C978 O1029 1.325 . S
C979 N980 1.279 . S
C979 C982 1.358 . S
C979 H1036 0.930 . S
N980 C979 1.279 . S
N980 C983 1.314 . S
C981 C978 1.348 . S
C981 C983 1.353 . S
C981 H1037 0.929 . S
C982 C978 1.356 . S
C982 C979 1.358 . S
C982 H1038 0.930 . S
C983 N980 1.314 . S
C983 C981 1.353 . S
C983 H1039 0.930 1_655 S
C984 N985 1.314 . S
C984 C989 1.353 . S
C984 H990 0.930 1_455 S
N985 Li968 1.990 1_455 S
N985 C984 1.314 . S
N985 C987 1.279 . S
C986 C987 1.358 . S
C986 C988 1.356 . S
C986 H1040 0.930 . S
C987 N985 1.279 . S
C987 C986 1.358 . S
C987 H991 0.930 . S
C988 C986 1.356 . S
C988 C989 1.348 . S
C989 C984 1.353 . S
C989 C988 1.348 . S
C989 H1041 0.929 . S
H990 C984 0.930 1_655 S
H991 C987 0.930 . S
C992 N993 1.314 . S
C992 C994 1.353 . S
C992 H998 0.930 . S
N993 Li969 1.990 . S
N993 C992 1.314 . S
N993 C996 1.279 . S
C994 C992 1.353 . S
C994 C997 1.348 . S
C994 H1042 0.929 . S
C995 C996 1.358 . S
C995 C997 1.356 . S
C995 H1043 0.930 . S
C996 N993 1.279 . S
C996 C995 1.358 . S
C996 H999 0.930 . S
C997 C994 1.348 . S
C997 C995 1.356 . S
H998 C992 0.930 . S
H999 C996 0.930 . S
C1000 C1002 1.348 . S
C1000 C1003 1.356 . S
C1000 O1030 1.325 . S
N1001 C1004 1.314 . S
N1001 C1005 1.279 . S
C1002 C1000 1.348 . S
C1002 C1004 1.353 . S
C1002 H1044 0.929 . S
C1003 C1000 1.356 . S
C1003 C1005 1.358 . S
C1003 H1045 0.930 . S
C1004 N1001 1.314 . S
C1004 C1002 1.353 . S
C1004 H1046 0.930 . S
C1005 N1001 1.279 . S
C1005 C1003 1.358 . S
C1005 H1047 0.930 . S
C1006 C1007 1.348 . S
C1006 C1008 1.356 . S
C1006 O1031 1.325 . S
C1007 C1006 1.348 . S
C1007 C1009 1.353 . S
C1007 H1048 0.929 . S
C1008 C1006 1.356 . S
C1008 C1010 1.358 . S
C1008 H1049 0.930 . S
C1009 C1007 1.353 . S
C1009 N1011 1.314 . S
C1009 H1050 0.930 . S
C1010 C1008 1.358 . S
C1010 N1011 1.279 . S
C1010 H1051 0.930 . S
N1011 C1009 1.314 . S
N1011 C1010 1.279 . S
C1012 C1014 1.353 . S
C1012 N1015 1.314 . S
C1012 H1018 0.930 . S
C1013 N1015 1.279 . S
C1013 C1016 1.358 . S
C1013 H1019 0.930 . S
C1014 C1012 1.353 . S
C1014 C1017 1.348 . S
C1014 H1052 0.929 . S
N1015 Li970 1.990 . S
N1015 C1012 1.314 . S
N1015 C1013 1.279 . S
C1016 C1013 1.358 . S
C1016 C1017 1.356 . S
C1016 H1053 0.930 . S
C1017 C1014 1.348 . S
C1017 C1016 1.356 . S
H1018 C1012 0.930 . S
H1019 C1013 0.930 . S
C1020 N1021 1.314 . S
C1020 C1022 1.353 . S
C1020 H1026 0.930 . S
N1021 Li971 1.990 . S
N1021 C1020 1.314 . S
N1021 C1024 1.279 . S
C1022 C1020 1.353 . S
C1022 C1025 1.348 . S
C1022 H1054 0.929 . S
C1023 C1024 1.358 . S
C1023 C1025 1.356 . S
C1023 H1055 0.930 . S
C1024 N1021 1.279 . S
C1024 C1023 1.358 . S
C1024 H1027 0.930 . S
C1025 C1022 1.348 . S
C1025 C1023 1.356 . S
H1026 C1020 0.930 . S
H1027 C1024 0.930 . S
O1028 Li968 1.956 . S
O1028 Li969 1.970 . S
O1028 Li970 1.961 . S
O1028 C972 1.325 . S
O1029 Li968 1.970 . S
O1029 Li969 1.956 . S
O1029 Li971 1.961 . S
O1029 C978 1.325 . S
O1030 Li968 1.961 . S
O1030 Li970 1.956 . S
O1030 Li971 1.970 . S
O1030 C1000 1.325 . S
O1031 Li969 1.961 . S
O1031 Li970 1.970 . S
O1031 Li971 1.956 . S
O1031 C1006 1.325 . S
H1032 C974 0.929 . S
H1033 C975 0.930 . S
H1034 C976 0.930 . S
H1035 C977 0.930 . S
H1036 C979 0.930 . S
H1037 C981 0.929 . S
H1038 C982 0.930 . S
H1039 C983 0.930 1_455 S
H1040 C986 0.930 . S
H1041 C989 0.929 . S
H1042 C994 0.929 . S
H1043 C995 0.930 . S
H1044 C1002 0.929 . S
H1045 C1003 0.930 . S
H1046 C1004 0.930 . S
H1047 C1005 0.930 . S
H1048 C1007 0.929 . S
H1049 C1008 0.930 . S
H1050 C1009 0.930 . S
H1051 C1010 0.930 . S
H1052 C1014 0.929 . S
H1053 C1016 0.930 . S
H1054 C1022 0.929 . S
H1055 C1023 0.930 . S
C1056 C1057 1.369 . S
C1056 C1058 1.419 . S
C1056 H1060 0.930 . S
C1057 C1056 1.369 . S
C1057 C1066 1.429 . S
C1058 C1056 1.419 . S
C1058 C1059 1.363 . S
C1058 H1061 0.929 . S
C1059 C1058 1.363 . S
C1059 C1065 1.428 . S
H1060 C1056 0.930 . S
H1061 C1058 0.929 . S
S1062 N1063 1.613 . S
S1062 N1064 1.610 . S
N1063 S1062 1.613 . S
N1063 C1066 1.350 . S
N1064 S1062 1.610 . S
N1064 C1065 1.351 . S
C1065 C1059 1.428 . S
C1065 N1064 1.351 . S
C1065 C1066 1.434 . S
C1066 C1057 1.429 . S
C1066 N1063 1.350 . S
C1066 C1065 1.434 . S
C1067 C1068 1.369 . S
C1067 C1069 1.419 . S
C1067 H1071 0.930 . S
C1068 C1067 1.369 . S
C1068 C1077 1.429 . S
C1069 C1067 1.419 . S
C1069 C1070 1.363 . S
C1069 H1072 0.929 . S
C1070 C1069 1.363 . S
C1070 C1076 1.428 . S
H1071 C1067 0.930 . S
H1072 C1069 0.929 . S
S1073 N1074 1.613 . S
S1073 N1075 1.610 . S
N1074 S1073 1.613 . S
N1074 C1077 1.350 . S
N1075 S1073 1.610 . S
N1075 C1076 1.351 . S
C1076 C1070 1.428 . S
C1076 N1075 1.351 . S
C1076 C1077 1.434 . S
C1077 C1068 1.429 . S
C1077 N1074 1.350 . S
C1077 C1076 1.434 . S
C1078 C1079 1.369 . S
C1078 C1080 1.419 . S
C1078 H1082 0.930 . S
C1079 C1078 1.369 . S
C1079 C1088 1.429 . S
C1080 C1078 1.419 . S
C1080 C1081 1.363 . S
C1080 H1083 0.929 . S
C1081 C1080 1.363 . S
C1081 C1087 1.428 . S
H1082 C1078 0.930 . S
H1083 C1080 0.929 . S
S1084 N1085 1.613 . S
S1084 N1086 1.610 . S
N1085 S1084 1.613 . S
N1085 C1088 1.350 . S
N1086 S1084 1.610 . S
N1086 C1087 1.351 . S
C1087 C1081 1.428 . S
C1087 N1086 1.351 . S
C1087 C1088 1.434 . S
C1088 C1079 1.429 . S
C1088 N1085 1.350 . S
C1088 C1087 1.434 . S
C1089 C1090 1.369 . S
C1089 C1091 1.419 . S
C1089 H1093 0.930 . S
C1090 C1089 1.369 . S
C1090 C1099 1.429 . S
C1091 C1089 1.419 . S
C1091 C1092 1.363 . S
C1091 H1094 0.929 . S
C1092 C1091 1.363 . S
C1092 C1098 1.428 . S
H1093 C1089 0.930 . S
H1094 C1091 0.929 . S
S1095 N1096 1.613 . S
S1095 N1097 1.610 . S
N1096 S1095 1.613 . S
N1096 C1099 1.350 . S
N1097 S1095 1.610 . S
N1097 C1098 1.351 . S
C1098 C1092 1.428 . S
C1098 N1097 1.351 . S
C1098 C1099 1.434 . S
C1099 C1090 1.429 . S
C1099 N1096 1.350 . S
C1099 C1098 1.434 . S
C1100 C1101 1.369 . S
C1100 C1102 1.419 . S
C1100 H1104 0.930 . S
C1101 C1100 1.369 . S
C1101 C1110 1.429 . S
C1102 C1100 1.419 . S
C1102 C1103 1.363 . S
C1102 H1105 0.929 . S
C1103 C1102 1.363 . S
C1103 C1109 1.428 . S
H1104 C1100 0.930 . S
H1105 C1102 0.929 . S
S1106 N1107 1.613 . S
S1106 N1108 1.610 . S
N1107 S1106 1.613 . S
N1107 C1110 1.350 . S
N1108 S1106 1.610 . S
N1108 C1109 1.351 . S
C1109 C1103 1.428 . S
C1109 N1108 1.351 . S
C1109 C1110 1.434 . S
C1110 C1101 1.429 . S
C1110 N1107 1.350 . S
C1110 C1109 1.434 . S
C1111 C1112 1.369 . S
C1111 C1113 1.419 . S
C1111 H1115 0.930 . S
C1112 C1111 1.369 . S
C1112 C1121 1.429 . S
C1113 C1111 1.419 . S
C1113 C1114 1.363 . S
C1113 H1116 0.929 . S
C1114 C1113 1.363 . S
C1114 C1120 1.428 . S
H1115 C1111 0.930 . S
H1116 C1113 0.929 . S
S1117 N1118 1.613 . S
S1117 N1119 1.610 . S
N1118 S1117 1.613 . S
N1118 C1121 1.350 . S
N1119 S1117 1.610 . S
N1119 C1120 1.351 . S
C1120 C1114 1.428 . S
C1120 N1119 1.351 . S
C1120 C1121 1.434 . S
C1121 C1112 1.429 . S
C1121 N1118 1.350 . S
C1121 C1120 1.434 . S
C1122 C1123 1.369 1_556 S
C1122 C1124 1.419 . S
C1122 H1126 0.930 . S
C1123 C1122 1.369 1_554 S
C1123 C1132 1.429 . S
C1124 C1122 1.419 . S
C1124 C1125 1.363 . S
C1124 H1127 0.929 . S
C1125 C1124 1.363 . S
C1125 C1131 1.428 . S
H1126 C1122 0.930 . S
H1127 C1124 0.929 . S
S1128 N1129 1.613 . S
S1128 N1130 1.610 . S
N1129 S1128 1.613 . S
N1129 C1132 1.350 . S
N1130 S1128 1.610 . S
N1130 C1131 1.351 1_554 S
C1131 C1125 1.428 . S
C1131 N1130 1.351 1_556 S
C1131 C1132 1.434 1_556 S
C1132 C1123 1.429 . S
C1132 N1129 1.350 . S
C1132 C1131 1.434 1_554 S
C1133 C1134 1.369 . S
C1133 C1135 1.419 . S
C1133 H1137 0.930 . S
C1134 C1133 1.369 . S
C1134 C1143 1.429 . S
C1135 C1133 1.419 . S
C1135 C1136 1.363 . S
C1135 H1138 0.929 . S
C1136 C1135 1.363 . S
C1136 C1142 1.428 . S
H1137 C1133 0.930 . S
H1138 C1135 0.929 . S
S1139 N1140 1.613 . S
S1139 N1141 1.610 . S
N1140 S1139 1.613 . S
N1140 C1143 1.350 . S
N1141 S1139 1.610 . S
N1141 C1142 1.351 . S
C1142 C1136 1.428 . S
C1142 N1141 1.351 . S
C1142 C1143 1.434 . S
C1143 C1134 1.429 . S
C1143 N1140 1.350 . S
C1143 C1142 1.434 . S
C1144 C1145 1.369 . S
C1144 C1146 1.419 . S
C1144 H1148 0.930 . S
C1145 C1144 1.369 . S
C1145 C1154 1.429 . S
C1146 C1144 1.419 . S
C1146 C1147 1.363 . S
C1146 H1149 0.929 . S
C1147 C1146 1.363 . S
C1147 C1153 1.428 . S
H1148 C1144 0.930 . S
H1149 C1146 0.929 . S
S1150 N1151 1.613 . S
S1150 N1152 1.610 . S
N1151 S1150 1.613 . S
N1151 C1154 1.350 . S
N1152 S1150 1.610 . S
N1152 C1153 1.351 . S
C1153 C1147 1.428 . S
C1153 N1152 1.351 . S
C1153 C1154 1.434 . S
C1154 C1145 1.429 . S
C1154 N1151 1.350 . S
C1154 C1153 1.434 . S
C1155 C1156 1.369 . S
C1155 C1157 1.419 . S
C1155 H1159 0.930 . S
C1156 C1155 1.369 . S
C1156 C1165 1.429 . S
C1157 C1155 1.419 . S
C1157 C1158 1.363 . S
C1157 H1160 0.929 . S
C1158 C1157 1.363 . S
C1158 C1164 1.428 . S
H1159 C1155 0.930 . S
H1160 C1157 0.929 . S
S1161 N1162 1.613 . S
S1161 N1163 1.610 . S
N1162 S1161 1.613 . S
N1162 C1165 1.350 . S
N1163 S1161 1.610 . S
N1163 C1164 1.351 . S
C1164 C1158 1.428 . S
C1164 N1163 1.351 . S
C1164 C1165 1.434 . S
C1165 C1156 1.429 . S
C1165 N1162 1.350 . S
C1165 C1164 1.434 . S
C1166 C1167 1.369 . S
C1166 C1168 1.419 . S
C1166 H1170 0.930 . S
C1167 C1166 1.369 . S
C1167 C1176 1.429 . S
C1168 C1166 1.419 . S
C1168 C1169 1.363 . S
C1168 H1171 0.929 . S
C1169 C1168 1.363 . S
C1169 C1175 1.428 . S
H1170 C1166 0.930 . S
H1171 C1168 0.929 . S
S1172 N1173 1.613 . S
S1172 N1174 1.610 . S
N1173 S1172 1.613 . S
N1173 C1176 1.350 . S
N1174 S1172 1.610 . S
N1174 C1175 1.351 . S
C1175 C1169 1.428 . S
C1175 N1174 1.351 . S
C1175 C1176 1.434 . S
C1176 C1167 1.429 . S
C1176 N1173 1.350 . S
C1176 C1175 1.434 . S
C1177 C1178 1.369 . S
C1177 C1179 1.419 . S
C1177 H1181 0.930 . S
C1178 C1177 1.369 . S
C1178 C1187 1.429 . S
C1179 C1177 1.419 . S
C1179 C1180 1.363 . S
C1179 H1182 0.929 . S
C1180 C1179 1.363 . S
C1180 C1186 1.428 . S
H1181 C1177 0.930 . S
H1182 C1179 0.929 . S
S1183 N1184 1.613 . S
S1183 N1185 1.610 . S
N1184 S1183 1.613 . S
N1184 C1187 1.350 . S
N1185 S1183 1.610 . S
N1185 C1186 1.351 . S
C1186 C1180 1.428 . S
C1186 N1185 1.351 . S
C1186 C1187 1.434 . S
C1187 C1178 1.429 . S
C1187 N1184 1.350 . S
C1187 C1186 1.434 . S
C1188 C1189 1.369 . S
C1188 C1190 1.419 . S
C1188 H1192 0.930 . S
C1189 C1188 1.369 . S
C1189 C1198 1.429 . S
C1190 C1188 1.419 . S
C1190 C1191 1.363 . S
C1190 H1193 0.929 . S
C1191 C1190 1.363 . S
C1191 C1197 1.428 . S
H1192 C1188 0.930 . S
H1193 C1190 0.929 . S
S1194 N1195 1.613 . S
S1194 N1196 1.610 . S
N1195 S1194 1.613 . S
N1195 C1198 1.350 . S
N1196 S1194 1.610 . S
N1196 C1197 1.351 . S
C1197 C1191 1.428 . S
C1197 N1196 1.351 . S
C1197 C1198 1.434 . S
C1198 C1189 1.429 . S
C1198 N1195 1.350 . S
C1198 C1197 1.434 . S
C1199 C1200 1.369 1_554 S
C1199 C1201 1.419 . S
C1199 H1203 0.930 . S
C1200 C1199 1.369 1_556 S
C1200 C1209 1.429 . S
C1201 C1199 1.419 . S
C1201 C1202 1.363 . S
C1201 H1204 0.929 . S
C1202 C1201 1.363 . S
C1202 C1208 1.428 . S
H1203 C1199 0.930 . S
H1204 C1201 0.929 . S
S1205 N1206 1.613 . S
S1205 N1207 1.610 . S
N1206 S1205 1.613 . S
N1206 C1209 1.350 . S
N1207 S1205 1.610 . S
N1207 C1208 1.351 1_556 S
C1208 C1202 1.428 . S
C1208 N1207 1.351 1_554 S
C1208 C1209 1.434 1_554 S
C1209 C1200 1.429 . S
C1209 N1206 1.350 . S
C1209 C1208 1.434 1_556 S
C1210 C1211 1.369 . S
C1210 C1212 1.419 . S
C1210 H1214 0.930 . S
C1211 C1210 1.369 . S
C1211 C1220 1.429 . S
C1212 C1210 1.419 . S
C1212 C1213 1.363 . S
C1212 H1215 0.929 . S
C1213 C1212 1.363 . S
C1213 C1219 1.428 . S
H1214 C1210 0.930 . S
H1215 C1212 0.929 . S
S1216 N1217 1.613 . S
S1216 N1218 1.610 . S
N1217 S1216 1.613 . S
N1217 C1220 1.350 . S
N1218 S1216 1.610 . S
N1218 C1219 1.351 . S
C1219 C1213 1.428 . S
C1219 N1218 1.351 . S
C1219 C1220 1.434 . S
C1220 C1211 1.429 . S
C1220 N1217 1.350 . S
C1220 C1219 1.434 . S
C1221 C1222 1.369 . S
C1221 C1223 1.419 . S
C1221 H1225 0.930 . S
C1222 C1221 1.369 . S
C1222 C1231 1.429 . S
C1223 C1221 1.419 . S
C1223 C1224 1.363 . S
C1223 H1226 0.929 . S
C1224 C1223 1.363 . S
C1224 C1230 1.428 . S
H1225 C1221 0.930 . S
H1226 C1223 0.929 . S
S1227 N1228 1.613 . S
S1227 N1229 1.610 . S
N1228 S1227 1.613 . S
N1228 C1231 1.350 . S
N1229 S1227 1.610 . S
N1229 C1230 1.351 . S
C1230 C1224 1.428 . S
C1230 N1229 1.351 . S
C1230 C1231 1.434 . S
C1231 C1222 1.429 . S
C1231 N1228 1.350 . S
C1231 C1230 1.434 . S
C1232 C1233 1.369 . S
C1232 C1234 1.419 . S
C1232 H1236 0.930 . S
C1233 C1232 1.369 . S
C1233 C1242 1.429 . S
C1234 C1232 1.419 . S
C1234 C1235 1.363 . S
C1234 H1237 0.929 . S
C1235 C1234 1.363 . S
C1235 C1241 1.428 . S
H1236 C1232 0.930 . S
H1237 C1234 0.929 . S
S1238 N1239 1.613 . S
S1238 N1240 1.610 . S
N1239 S1238 1.613 . S
N1239 C1242 1.350 . S
N1240 S1238 1.610 . S
N1240 C1241 1.351 . S
C1241 C1235 1.428 . S
C1241 N1240 1.351 . S
C1241 C1242 1.434 . S
C1242 C1233 1.429 . S
C1242 N1239 1.350 . S
C1242 C1241 1.434 . S
C1243 C1244 1.369 . S
C1243 C1245 1.419 . S
C1243 H1247 0.930 . S
C1244 C1243 1.369 . S
C1244 C1253 1.429 . S
C1245 C1243 1.419 . S
C1245 C1246 1.363 . S
C1245 H1248 0.929 . S
C1246 C1245 1.363 . S
C1246 C1252 1.428 . S
H1247 C1243 0.930 . S
H1248 C1245 0.929 . S
S1249 N1250 1.613 . S
S1249 N1251 1.610 . S
N1250 S1249 1.613 . S
N1250 C1253 1.350 . S
N1251 S1249 1.610 . S
N1251 C1252 1.351 . S
C1252 C1246 1.428 . S
C1252 N1251 1.351 . S
C1252 C1253 1.434 . S
C1253 C1244 1.429 . S
C1253 N1250 1.350 . S
C1253 C1252 1.434 . S
C1254 C1255 1.369 . S
C1254 C1256 1.419 . S
C1254 H1258 0.930 . S
C1255 C1254 1.369 . S
C1255 C1264 1.429 . S
C1256 C1254 1.419 . S
C1256 C1257 1.363 . S
C1256 H1259 0.929 . S
C1257 C1256 1.363 . S
C1257 C1263 1.428 . S
H1258 C1254 0.930 . S
H1259 C1256 0.929 . S
S1260 N1261 1.613 . S
S1260 N1262 1.610 . S
N1261 S1260 1.613 . S
N1261 C1264 1.350 . S
N1262 S1260 1.610 . S
N1262 C1263 1.351 . S
C1263 C1257 1.428 . S
C1263 N1262 1.351 . S
C1263 C1264 1.434 . S
C1264 C1255 1.429 . S
C1264 N1261 1.350 . S
C1264 C1263 1.434 . S
C1265 C1266 1.369 . S
C1265 C1267 1.419 . S
C1265 H1269 0.930 . S
C1266 C1265 1.369 . S
C1266 C1275 1.429 . S
C1267 C1265 1.419 . S
C1267 C1268 1.363 . S
C1267 H1270 0.929 . S
C1268 C1267 1.363 . S
C1268 C1274 1.428 . S
H1269 C1265 0.930 . S
H1270 C1267 0.929 . S
S1271 N1272 1.613 . S
S1271 N1273 1.610 . S
N1272 S1271 1.613 . S
N1272 C1275 1.350 . S
N1273 S1271 1.610 . S
N1273 C1274 1.351 . S
C1274 C1268 1.428 . S
C1274 N1273 1.351 . S
C1274 C1275 1.434 . S
C1275 C1266 1.429 . S
C1275 N1272 1.350 . S
C1275 C1274 1.434 . S
C1276 C1277 1.369 . S
C1276 C1278 1.419 . S
C1276 H1280 0.930 . S
C1277 C1276 1.369 . S
C1277 C1286 1.429 . S
C1278 C1276 1.419 . S
C1278 C1279 1.363 . S
C1278 H1281 0.929 . S
C1279 C1278 1.363 . S
C1279 C1285 1.428 . S
H1280 C1276 0.930 . S
H1281 C1278 0.929 . S
S1282 N1283 1.613 . S
S1282 N1284 1.610 . S
N1283 S1282 1.613 . S
N1283 C1286 1.350 . S
N1284 S1282 1.610 . S
N1284 C1285 1.351 . S
C1285 C1279 1.428 . S
C1285 N1284 1.351 . S
C1285 C1286 1.434 . S
C1286 C1277 1.429 . S
C1286 N1283 1.350 . S
C1286 C1285 1.434 . S
C1287 C1288 1.369 . S
C1287 C1289 1.419 . S
C1287 H1291 0.930 . S
C1288 C1287 1.369 . S
C1288 C1297 1.429 . S
C1289 C1287 1.419 . S
C1289 C1290 1.363 . S
C1289 H1292 0.929 . S
C1290 C1289 1.363 . S
C1290 C1296 1.428 . S
H1291 C1287 0.930 . S
H1292 C1289 0.929 . S
S1293 N1294 1.613 . S
S1293 N1295 1.610 . S
N1294 S1293 1.613 . S
N1294 C1297 1.350 . S
N1295 S1293 1.610 . S
N1295 C1296 1.351 . S
C1296 C1290 1.428 . S
C1296 N1295 1.351 . S
C1296 C1297 1.434 . S
C1297 C1288 1.429 . S
C1297 N1294 1.350 . S
C1297 C1296 1.434 . S
C1298 C1299 1.369 . S
C1298 C1300 1.419 . S
C1298 H1302 0.930 . S
C1299 C1298 1.369 . S
C1299 C1308 1.429 . S
C1300 C1298 1.419 . S
C1300 C1301 1.363 . S
C1300 H1303 0.929 . S
C1301 C1300 1.363 . S
C1301 C1307 1.428 . S
H1302 C1298 0.930 . S
H1303 C1300 0.929 . S
S1304 N1305 1.613 . S
S1304 N1306 1.610 . S
N1305 S1304 1.613 . S
N1305 C1308 1.350 . S
N1306 S1304 1.610 . S
N1306 C1307 1.351 . S
C1307 C1301 1.428 . S
C1307 N1306 1.351 . S
C1307 C1308 1.434 . S
C1308 C1299 1.429 . S
C1308 N1305 1.350 . S
C1308 C1307 1.434 . S
C1309 C1310 1.369 . S
C1309 C1311 1.419 . S
C1309 H1313 0.930 . S
C1310 C1309 1.369 . S
C1310 C1319 1.429 . S
C1311 C1309 1.419 . S
C1311 C1312 1.363 . S
C1311 H1314 0.929 . S
C1312 C1311 1.363 . S
C1312 C1318 1.428 . S
H1313 C1309 0.930 . S
H1314 C1311 0.929 . S
S1315 N1316 1.613 . S
S1315 N1317 1.610 . S
N1316 S1315 1.613 . S
N1316 C1319 1.350 . S
N1317 S1315 1.610 . S
N1317 C1318 1.351 . S
C1318 C1312 1.428 . S
C1318 N1317 1.351 . S
C1318 C1319 1.434 . S
C1319 C1310 1.429 . S
C1319 N1316 1.350 . S
C1319 C1318 1.434 . S
C1057 C753 1.466 . S
C1059 C57 1.459 . S
C1068 C145 1.466 . S
C1070 C821 1.459 . S
C1079 C233 1.458 . S
C1081 C900 1.465 . S
C1090 C293 1.467 . S
C1092 C997 1.459 . S
C1101 C557 1.460 . S
C1103 C372 1.464 . S
C1112 C460 1.459 . S
C1114 C645 1.464 . S
C1123 C20 1.570 . S
C1125 C469 1.552 . S
C1134 C108 1.572 . S
C1136 C49 1.556 . S
C1145 C196 1.571 . S
C1147 C137 1.550 . S
C1156 C225 1.552 . S
C1158 C313 1.571 . S
C1167 C284 1.557 . S
C1169 C409 1.573 . S
C1178 C381 1.553 . S
C1180 C497 1.571 . S
C1189 C636 1.556 . S
C1191 C577 1.575 . S
C1200 C665 1.571 . S
C1202 C761 1.550 . S
C1211 C812 1.551 . S
C1213 C733 1.570 . S
C1222 C841 1.575 . S
C1224 C909 1.555 . S
C1233 C937 1.575 . S
C1235 C988 1.555 . S
C1244 C1017 1.575 . S
C1246 C548 1.555 . S
C1255 C929 1.219 . S
C1257 C29 1.220 . S
C1266 C1025 1.220 . S
C1268 C117 1.220 . S
C1277 C585 1.222 . S
C1279 C205 1.221 . S
C1288 C321 1.221 . S
C1290 C673 1.220 . S
C1299 C401 1.222 . S
C1301 C724 1.221 . S
C1310 C849 1.220 . S
C1312 C489 1.221 . S
