# Generated by pormake.
# Topology uol, (4)-cn, num edge types: 1
# Building blocks:
#     Node 0, Type 0, BuildingBlock: TATPOV_clean_sbu_0, # of connection points: 4
#     Node 1, Type 0, BuildingBlock: TATPOV_clean_sbu_0, # of connection points: 4
#     Node 2, Type 0, BuildingBlock: TATPOV_clean_sbu_0, # of connection points: 4
#     Node 3, Type 0, BuildingBlock: TATPOV_clean_sbu_0, # of connection points: 4
#     Node 4, Type 0, BuildingBlock: TATPOV_clean_sbu_0, # of connection points: 4
#     Node 5, Type 0, BuildingBlock: TATPOV_clean_sbu_0, # of connection points: 4
#     Node 6, Type 0, BuildingBlock: TATPOV_clean_sbu_0, # of connection points: 4
#     Node 7, Type 0, BuildingBlock: TATPOV_clean_sbu_0, # of connection points: 4
#     Node 8, Type 0, BuildingBlock: TATPOV_clean_sbu_0, # of connection points: 4
#     Node 9, Type 0, BuildingBlock: TATPOV_clean_sbu_0, # of connection points: 4
#     Node 10, Type 0, BuildingBlock: TATPOV_clean_sbu_0, # of connection points: 4
#     Node 11, Type 0, BuildingBlock: TATPOV_clean_sbu_0, # of connection points: 4
#     Edge 12, Type (0, 0), BuildingBlock: OJICUG_clean_linker_0, # of connection points: 2
#     Edge 13, Type (0, 0), BuildingBlock: OJICUG_clean_linker_0, # of connection points: 2
#     Edge 14, Type (0, 0), BuildingBlock: OJICUG_clean_linker_0, # of connection points: 2
#     Edge 15, Type (0, 0), BuildingBlock: OJICUG_clean_linker_0, # of connection points: 2
#     Edge 16, Type (0, 0), BuildingBlock: OJICUG_clean_linker_0, # of connection points: 2
#     Edge 17, Type (0, 0), BuildingBlock: OJICUG_clean_linker_0, # of connection points: 2
#     Edge 18, Type (0, 0), BuildingBlock: OJICUG_clean_linker_0, # of connection points: 2
#     Edge 19, Type (0, 0), BuildingBlock: OJICUG_clean_linker_0, # of connection points: 2
#     Edge 20, Type (0, 0), BuildingBlock: OJICUG_clean_linker_0, # of connection points: 2
#     Edge 21, Type (0, 0), BuildingBlock: OJICUG_clean_linker_0, # of connection points: 2
#     Edge 22, Type (0, 0), BuildingBlock: OJICUG_clean_linker_0, # of connection points: 2
#     Edge 23, Type (0, 0), BuildingBlock: OJICUG_clean_linker_0, # of connection points: 2
#     Edge 24, Type (0, 0), BuildingBlock: OJICUG_clean_linker_0, # of connection points: 2
#     Edge 25, Type (0, 0), BuildingBlock: OJICUG_clean_linker_0, # of connection points: 2
#     Edge 26, Type (0, 0), BuildingBlock: OJICUG_clean_linker_0, # of connection points: 2
#     Edge 27, Type (0, 0), BuildingBlock: OJICUG_clean_linker_0, # of connection points: 2
#     Edge 28, Type (0, 0), BuildingBlock: OJICUG_clean_linker_0, # of connection points: 2
#     Edge 29, Type (0, 0), BuildingBlock: OJICUG_clean_linker_0, # of connection points: 2
#     Edge 30, Type (0, 0), BuildingBlock: OJICUG_clean_linker_0, # of connection points: 2
#     Edge 31, Type (0, 0), BuildingBlock: OJICUG_clean_linker_0, # of connection points: 2
#     Edge 32, Type (0, 0), BuildingBlock: OJICUG_clean_linker_0, # of connection points: 2
#     Edge 33, Type (0, 0), BuildingBlock: OJICUG_clean_linker_0, # of connection points: 2
#     Edge 34, Type (0, 0), BuildingBlock: OJICUG_clean_linker_0, # of connection points: 2
#     Edge 35, Type (0, 0), BuildingBlock: OJICUG_clean_linker_0, # of connection points: 2
# Relax obj value: 0.209
# Max RMSD: 0.264
# Mean RMSD: 0.264
data_MOF--net-uol--node1-TATPOV_clean_sbu_0--edge1-OJICUG_clean_linker_0
_symmetry_space_group_name_H-M    P1
_symmetry_Int_Tables_number       1
_symmetry_cell_setting            triclinic
loop_
_symmetry_equiv_pos_as_xyz
'x, y, z'
_cell_length_a     23.850458
_cell_length_b     24.06852
_cell_length_c     45.371324
_cell_angle_alpha  89.834096
_cell_angle_beta   90.07265
_cell_angle_gamma 119.65806
loop_
_atom_site_label
_atom_site_type_symbol
_atom_site_fract_x
_atom_site_fract_y
_atom_site_fract_z
_atom_type_partial_charge
Zn0 Zn 0.18127 0.29857 0.06617 0.0
Zn1 Zn 0.21235 0.41893 0.07301 0.0
O2 O 0.235 0.41482 0.02895 0.0
O3 O 0.20288 0.3123 0.02371 0.0
O4 O 0.23017 0.50924 0.07764 0.0
O5 O 0.09026 0.26779 0.07988 0.0
O6 O 0.1165 0.36832 0.08577 0.0
C7 C 0.22691 0.36792 0.013 0.0
C8 C 0.28031 0.36277 0.10962 0.0
O9 O 0.27046 0.40918 0.104 0.0
O10 O 0.25002 0.31081 0.09554 0.0
C11 C 0.22441 0.52774 0.10309 0.0
O12 O 0.21143 0.48871 0.12558 0.0
C13 C 0.07495 0.30902 0.08761 0.0
Zn14 Zn 0.93228 0.18201 0.2358 0.0
Zn15 Zn 0.83113 0.19388 0.23956 0.0
O16 O 0.86507 0.22129 0.19605 0.0
O17 O 0.94122 0.19506 0.1929 0.0
O18 O 0.74909 0.19942 0.24105 0.0
O19 O 0.88745 0.09325 0.25172 0.0
O20 O 0.799 0.10017 0.25338 0.0
C21 C 0.90722 0.21565 0.18098 0.0
C22 C 0.94877 0.27721 0.27754 0.0
O23 O 0.88925 0.25611 0.27189 0.0
O24 O 0.98022 0.25637 0.26338 0.0
C25 C 0.74888 0.25213 0.24206 0.0
O26 O 0.80415 0.30597 0.24168 0.0
C27 C 0.82806 0.06831 0.25766 0.0
Zn28 Zn 0.8209 0.84994 0.39457 0.0
Zn29 Zn 0.69956 0.82023 0.40508 0.0
O30 O 0.7156 0.85913 0.36318 0.0
O31 O 0.81435 0.87921 0.3537 0.0
O32 O 0.60485 0.7841 0.41247 0.0
O33 O 0.80544 0.761 0.40206 0.0
O34 O 0.70844 0.74103 0.41458 0.0
C35 C 0.76374 0.87985 0.34577 0.0
C36 C 0.80291 0.91798 0.44428 0.0
O37 O 0.74371 0.88779 0.43684 0.0
O38 O 0.84417 0.91006 0.43001 0.0
C39 C 0.5651 0.748 0.39311 0.0
O40 O 0.5874 0.74082 0.36778 0.0
C41 C 0.75046 0.72311 0.41272 0.0
Zn42 Zn 0.81893 0.69756 0.56597 0.0
Zn43 Zn 0.789 0.5772 0.57544 0.0
O44 O 0.76499 0.57653 0.5311 0.0
O45 O 0.79494 0.67818 0.52386 0.0
O46 O 0.77202 0.48836 0.58461 0.0
O47 O 0.91064 0.72926 0.57924 0.0
O48 O 0.88528 0.62933 0.58674 0.0
C49 C 0.77169 0.62185 0.51421 0.0
C50 C 0.7227 0.6372 0.61074 0.0
O51 O 0.73284 0.59077 0.60591 0.0
O52 O 0.75164 0.68798 0.5956 0.0
C53 C 0.75859 0.44367 0.56628 0.0
O54 O 0.75087 0.45261 0.53833 0.0
C55 C 0.92663 0.68876 0.58756 0.0
Zn56 Zn 0.07231 0.81562 0.73548 0.0
Zn57 Zn 0.17122 0.79965 0.73883 0.0
O58 O 0.13709 0.77418 0.6953 0.0
O59 O 0.06363 0.80412 0.69248 0.0
O60 O 0.25222 0.79245 0.74016 0.0
O61 O 0.11979 0.90392 0.75159 0.0
O62 O 0.20611 0.89329 0.75286 0.0
C63 C 0.09623 0.78228 0.68035 0.0
C64 C 0.05306 0.71831 0.77695 0.0
O65 O 0.11219 0.73768 0.77111 0.0
O66 O 0.02284 0.74094 0.76299 0.0
C67 C 0.25291 0.74034 0.74365 0.0
O68 O 0.19794 0.68652 0.74592 0.0
C69 C 0.17902 0.92682 0.75737 0.0
Zn70 Zn 0.18611 0.13494 0.89617 0.0
Zn71 Zn 0.30771 0.16759 0.90692 0.0
O72 O 0.29293 0.12997 0.86478 0.0
O73 O 0.19368 0.10834 0.85519 0.0
O74 O 0.40287 0.20641 0.91407 0.0
O75 O 0.19818 0.22224 0.90367 0.0
O76 O 0.29621 0.24544 0.9162 0.0
C77 C 0.24505 0.10943 0.84722 0.0
C78 C 0.20559 0.06702 0.94575 0.0
O79 O 0.265 0.09902 0.93874 0.0
O80 O 0.16389 0.07382 0.93118 0.0
C81 C 0.44091 0.24516 0.89485 0.0
O82 O 0.41655 0.25299 0.87022 0.0
C83 C 0.25281 0.26152 0.91413 0.0
Zn84 Zn 0.75021 0.81349 0.75848 0.0
Zn85 Zn 0.63724 0.80192 0.7549 0.0
O86 O 0.64478 0.77716 0.79874 0.0
O87 O 0.74714 0.80328 0.80158 0.0
O88 O 0.54962 0.7959 0.75308 0.0
O89 O 0.79332 0.90137 0.74156 0.0
O90 O 0.69819 0.89504 0.74034 0.0
C91 C 0.69307 0.78383 0.81377 0.0
C92 C 0.67046 0.71648 0.71779 0.0
O93 O 0.6325 0.73821 0.72327 0.0
O94 O 0.72303 0.73757 0.73177 0.0
C95 C 0.4968 0.7431 0.75344 0.0
O96 O 0.49838 0.68945 0.75563 0.0
C97 C 0.75889 0.92641 0.73563 0.0
Zn98 Zn 0.88431 0.70037 0.92917 0.0
Zn99 Zn 0.79387 0.57993 0.91956 0.0
O100 O 0.81655 0.57856 0.96392 0.0
O101 O 0.88827 0.68 0.97132 0.0
O102 O 0.7223 0.49118 0.91029 0.0
O103 O 0.82415 0.73205 0.91585 0.0
O104 O 0.74979 0.6322 0.90829 0.0
C105 C 0.85495 0.62352 0.98089 0.0
C106 C 0.92048 0.64063 0.88428 0.0
O107 O 0.86393 0.59412 0.88913 0.0
O108 O 0.94221 0.69118 0.89947 0.0
C109 C 0.69339 0.44467 0.92811 0.0
O110 O 0.71226 0.45142 0.95571 0.0
C111 C 0.76778 0.69163 0.90749 0.0
Zn112 Zn 0.03394 0.84542 0.10052 0.0
Zn113 Zn 0.12334 0.81334 0.09288 0.0
O114 O 0.14425 0.85781 0.13367 0.0
O115 O 0.06565 0.87885 0.14119 0.0
O116 O 0.17787 0.77097 0.09117 0.0
O117 O 0.95802 0.75788 0.09413 0.0
O118 O 0.03429 0.73637 0.08234 0.0
C119 C 0.11684 0.88046 0.14991 0.0
C120 C 0.12392 0.90836 0.05052 0.0
O121 O 0.15237 0.87832 0.05928 0.0
O122 O 0.0745 0.90187 0.06413 0.0
C123 C 0.17526 0.73773 0.1135 0.0
O124 O 0.14259 0.73793 0.13676 0.0
C125 C 0.97454 0.71948 0.08365 0.0
Zn126 Zn 0.25543 0.18981 0.25764 0.0
Zn127 Zn 0.36718 0.19859 0.25367 0.0
O128 O 0.36125 0.22396 0.29751 0.0
O129 O 0.25963 0.20031 0.30069 0.0
O130 O 0.4539 0.20234 0.25167 0.0
O131 O 0.21017 0.10184 0.24101 0.0
O132 O 0.3041 0.10557 0.23978 0.0
C133 C 0.3137 0.21856 0.31268 0.0
C134 C 0.33551 0.28589 0.21658 0.0
O135 O 0.37254 0.26288 0.22187 0.0
O136 O 0.28343 0.26588 0.23084 0.0
C137 C 0.50732 0.25452 0.25075 0.0
O138 O 0.507 0.30893 0.2515 0.0
C139 C 0.2433 0.07536 0.23526 0.0
Zn140 Zn 0.12175 0.29666 0.42879 0.0
Zn141 Zn 0.21002 0.4178 0.41892 0.0
O142 O 0.1872 0.41871 0.46323 0.0
O143 O 0.11834 0.3165 0.47095 0.0
O144 O 0.28059 0.507 0.40944 0.0
O145 O 0.1826 0.26634 0.4152 0.0
O146 O 0.25537 0.3668 0.40756 0.0
C147 C 0.1502 0.37315 0.48037 0.0
C148 C 0.08289 0.35551 0.38426 0.0
O149 O 0.13914 0.40269 0.38882 0.0
O150 O 0.06246 0.30493 0.39945 0.0
C151 C 0.3125 0.5514 0.42781 0.0
O152 O 0.29723 0.54182 0.45588 0.0
C153 C 0.23857 0.30766 0.40675 0.0
Zn154 Zn 0.96883 0.14393 0.59839 0.0
Zn155 Zn 0.87782 0.17463 0.588 0.0
O156 O 0.85473 0.13522 0.62981 0.0
O157 O 0.93287 0.11413 0.63911 0.0
O158 O 0.8195 0.21121 0.58073 0.0
O159 O 0.04248 0.23281 0.59143 0.0
O160 O 0.96606 0.25383 0.57894 0.0
C161 C 0.88193 0.11393 0.6471 0.0
C162 C 0.88313 0.07717 0.54843 0.0
O163 O 0.85434 0.10752 0.556 0.0
O164 O 0.93214 0.08455 0.56273 0.0
C165 C 0.81646 0.24752 0.60016 0.0
O166 O 0.84648 0.25465 0.62536 0.0
C167 C 0.02586 0.27129 0.58098 0.0
C168 C 0.21853 0.67834 0.08468 0.0
C169 C 0.19882 0.69135 0.11174 0.0
H170 H 0.24245 0.61642 0.06069 0.0
C171 C 0.19531 0.6548 0.1366 0.0
H172 H 0.22196 0.70579 0.06513 0.0
C173 C 0.20714 0.6037 0.13408 0.0
C174 C 0.22251 0.5879 0.10662 0.0
H175 H 0.18085 0.66396 0.15784 0.0
H176 H 0.20142 0.57493 0.15345 0.0
C177 C 0.23015 0.62701 0.08213 0.0
C178 C 0.62786 0.19518 0.24512 0.0
C179 C 0.68705 0.25273 0.24411 0.0
H180 H 0.52497 0.15051 0.24805 0.0
C181 C 0.68655 0.31087 0.24532 0.0
H182 H 0.62639 0.14951 0.24426 0.0
C183 C 0.6283 0.31144 0.24751 0.0
C184 C 0.56913 0.25389 0.24855 0.0
H185 H 0.73121 0.3561 0.24461 0.0
H186 H 0.62975 0.3571 0.24838 0.0
C187 C 0.56962 0.19575 0.24732 0.0
C188 C 0.47534 0.70217 0.43015 0.0
C189 C 0.49654 0.70567 0.40093 0.0
H190 H 0.40016 0.65073 0.46161 0.0
C191 C 0.45335 0.66322 0.37996 0.0
H192 H 0.50731 0.73445 0.44683 0.0
C193 C 0.39195 0.61535 0.38842 0.0
C194 C 0.37247 0.60877 0.41807 0.0
H195 H 0.46792 0.66503 0.35722 0.0
H196 H 0.36096 0.58168 0.37192 0.0
C197 C 0.41389 0.6541 0.43865 0.0
C198 C 0.77604 0.38026 0.60536 0.0
C199 C 0.762 0.38655 0.57583 0.0
H200 H 0.80354 0.33088 0.63627 0.0
C201 C 0.75755 0.34114 0.55518 0.0
H202 H 0.77916 0.41401 0.62192 0.0
C203 C 0.77138 0.29319 0.56348 0.0
C204 C 0.79007 0.2899 0.59256 0.0
H205 H 0.74634 0.34431 0.53231 0.0
H206 H 0.77056 0.26079 0.54675 0.0
C207 C 0.79 0.33251 0.61362 0.0
C208 C 0.37559 0.68419 0.75195 0.0
C209 C 0.43431 0.74222 0.75095 0.0
H210 H 0.27241 0.63797 0.75042 0.0
C211 C 0.43276 0.79949 0.74733 0.0
H212 H 0.37499 0.63918 0.7547 0.0
C213 C 0.37397 0.79877 0.74479 0.0
C214 C 0.31522 0.74078 0.74587 0.0
H215 H 0.47703 0.84505 0.7464 0.0
H216 H 0.37467 0.84384 0.74208 0.0
C217 C 0.31672 0.68349 0.74947 0.0
C218 C 0.55045 0.33377 0.88124 0.0
C219 C 0.50945 0.28897 0.90215 0.0
H220 H 0.64097 0.4176 0.87293 0.0
C221 C 0.53273 0.29116 0.93087 0.0
H222 H 0.53427 0.33307 0.85885 0.0
C223 C 0.5941 0.33991 0.93902 0.0
C224 C 0.63332 0.38727 0.91858 0.0
H225 H 0.50245 0.25711 0.94748 0.0
H226 H 0.60951 0.34205 0.96165 0.0
C227 C 0.61171 0.38233 0.88935 0.0
C228 C 0.32021 0.36755 0.1895 0.0
C229 C 0.34464 0.32505 0.19008 0.0
H230 H 0.2829 0.4154 0.16281 0.0
C231 C 0.36255 0.30851 0.16348 0.0
H232 H 0.30606 0.38097 0.20976 0.0
C233 C 0.34773 0.32681 0.13661 0.0
C234 C 0.31661 0.36342 0.13606 0.0
H235 H 0.38111 0.27552 0.1633 0.0
H236 H 0.35559 0.30786 0.11637 0.0
C237 C 0.30713 0.38738 0.16262 0.0
C238 C 0.94486 0.29712 0.33093 0.0
C239 C 0.97874 0.31539 0.30415 0.0
H240 H 0.95219 0.29567 0.37798 0.0
C241 C 0.0453 0.359 0.30445 0.0
H242 H 0.89361 0.26311 0.33128 0.0
C243 C 0.07856 0.37893 0.33117 0.0
C244 C 0.04593 0.35386 0.35787 0.0
H245 H 0.0724 0.37359 0.28403 0.0
H246 H 0.13064 0.40834 0.33071 0.0
C247 C 0.9784 0.31549 0.35764 0.0
C248 C 0.80139 0.01689 0.509 0.0
C249 C 0.86167 0.0357 0.52203 0.0
H250 H 0.73529 0.96468 0.47424 0.0
C251 C 0.90256 0.01619 0.50904 0.0
H252 H 0.76883 0.03124 0.51846 0.0
C253 C 0.88384 0.97905 0.48352 0.0
C254 C 0.82339 0.95974 0.47058 0.0
H255 H 0.94952 0.03022 0.51838 0.0
H256 H 0.91655 0.9648 0.47415 0.0
C257 C 0.78222 0.97886 0.48365 0.0
C258 C 0.69816 0.61467 0.66407 0.0
C259 C 0.68799 0.63816 0.63742 0.0
H260 H 0.70036 0.62177 0.71118 0.0
C261 C 0.6572 0.67506 0.63793 0.0
H262 H 0.72212 0.58641 0.66431 0.0
C263 C 0.64308 0.6938 0.66477 0.0
C264 C 0.6614 0.67744 0.69138 0.0
H265 H 0.64881 0.69365 0.61763 0.0
H266 H 0.62455 0.72682 0.66453 0.0
C267 C 0.68584 0.63499 0.6909 0.0
C268 C 0.02396 0.67846 0.85708 0.0
C269 C 0.95628 0.64181 0.85759 0.0
H270 H 0.10859 0.72936 0.83042 0.0
C271 C 0.92279 0.61836 0.83096 0.0
H272 H 0.05081 0.69707 0.87736 0.0
C273 C 0.95564 0.63822 0.80411 0.0
C274 C 0.02259 0.68008 0.80359 0.0
H275 H 0.87059 0.59036 0.83072 0.0
H276 H 0.92809 0.62495 0.78382 0.0
C277 C 0.05702 0.69667 0.83023 0.0
C278 C 0.20718 0.9691 0.0114 0.0
C279 C 0.14588 0.9487 0.02365 0.0
H280 H 0.27457 0.023 0.97717 0.0
C281 C 0.10435 0.96629 0.00965 0.0
H282 H 0.24021 0.95621 0.02165 0.0
C283 C 0.12347 0.00339 0.98409 0.0
C284 C 0.18503 0.02473 0.97201 0.0
H285 H 0.05658 0.95098 0.01833 0.0
H286 H 0.09016 0.01619 0.97407 0.0
C287 C 0.2268 0.00726 0.98594 0.0
C288 C 0.30605 0.37847 0.9758 0.0
C289 C 0.24721 0.37576 0.98213 0.0
H290 H 0.3553 0.34521 0.94788 0.0
C291 C 0.1991 0.35385 0.96046 0.0
H292 H 0.34361 0.39476 0.99238 0.0
C293 C 0.20541 0.32502 0.93495 0.0
C294 C 0.2595 0.31687 0.93124 0.0
H295 H 0.15312 0.35093 0.96504 0.0
H296 H 0.16427 0.30173 0.92032 0.0
C297 C 0.31239 0.34943 0.95035 0.0
C298 C 0.96197 0.30595 0.14617 0.0
C299 C 0.92447 0.23973 0.15069 0.0
H300 H 0.03985 0.38077 0.12189 0.0
C301 C 0.92521 0.19807 0.12936 0.0
H302 H 0.96289 0.33892 0.16263 0.0
C303 C 0.96927 0.22173 0.10612 0.0
C304 C 0.01395 0.28747 0.10412 0.0
H305 H 0.89711 0.14678 0.13259 0.0
H306 H 0.97284 0.18785 0.09167 0.0
C307 C 0.00655 0.3298 0.12296 0.0
C308 C 0.74529 0.99178 0.29338 0.0
C309 C 0.79703 0.00704 0.27406 0.0
H310 H 0.69327 0.93811 0.3315 0.0
C311 C 0.82738 0.96971 0.2748 0.0
H312 H 0.72085 0.01958 0.29328 0.0
C313 C 0.81193 0.92359 0.29667 0.0
C314 C 0.76552 0.91349 0.31816 0.0
H315 H 0.86669 0.97952 0.25989 0.0
H316 H 0.83967 0.8991 0.29799 0.0
C317 C 0.72954 0.94514 0.3153 0.0
C318 C 0.69379 0.60927 0.47585 0.0
C319 C 0.75206 0.61167 0.4832 0.0
H320 H 0.64616 0.64156 0.44623 0.0
C321 C 0.8007 0.63157 0.46185 0.0
H322 H 0.6558 0.59448 0.49214 0.0
C323 C 0.79564 0.65913 0.43554 0.0
C324 C 0.74223 0.66793 0.43067 0.0
H325 H 0.84626 0.63421 0.46719 0.0
H326 H 0.8373 0.68123 0.42114 0.0
C327 C 0.68864 0.6369 0.44957 0.0
C328 C 0.07573 0.80113 0.62919 0.0
C329 C 0.07838 0.75926 0.64999 0.0
H330 H 0.02627 0.81125 0.59212 0.0
C331 C 0.0427 0.69317 0.64497 0.0
H332 H 0.10257 0.85233 0.63277 0.0
C333 C 0.99776 0.66927 0.62191 0.0
C334 C 0.98826 0.71142 0.60371 0.0
H335 H 0.04337 0.65999 0.66097 0.0
H336 H 0.96585 0.61809 0.62048 0.0
C337 C 0.03137 0.77743 0.60609 0.0
C338 C 0.27842 0.04463 0.81627 0.0
C339 C 0.24449 0.07827 0.81915 0.0
H340 H 0.28453 0.96957 0.79371 0.0
C341 C 0.20024 0.0719 0.79717 0.0
H342 H 0.31297 0.04884 0.83287 0.0
C343 C 0.1843 0.02707 0.77478 0.0
C344 C 0.21198 0.98739 0.77404 0.0
H345 H 0.17421 0.09809 0.79855 0.0
H346 H 0.1463 0.01986 0.75952 0.0
C347 C 0.26216 -0.00073 0.79381 0.0
C348 C 0.65633 0.6958 0.84995 0.0
C349 C 0.68726 0.76178 0.84439 0.0
H350 H 0.65743 0.62093 0.8751 0.0
C351 C 0.73193 0.80392 0.86494 0.0
H352 H 0.62234 0.66241 0.83414 0.0
C353 C 0.75231 0.78046 0.88832 0.0
C354 C 0.72896 0.71441 0.8912 0.0
H355 H 0.7567 0.85503 0.86093 0.0
H356 H 0.79142 0.81439 0.90207 0.0
C357 C 0.67708 0.67214 0.87328 0.0
C358 C 0.83471 0.63229 0.03323 0.0
C359 C 0.86372 0.61267 0.01192 0.0
H360 H 0.84667 0.68001 0.07431 0.0
C361 C 0.91884 0.60907 0.01949 0.0
H362 H 0.79238 0.63587 0.02772 0.0
C363 C 0.95062 0.63499 0.0461 0.0
C364 C 0.92789 0.66561 0.06512 0.0
H365 H 0.94226 0.59452 0.00324 0.0
H366 H 0.99727 0.63869 0.0497 0.0
C367 C 0.86634 0.65814 0.05987 0.0
C368 C 0.1128 0.93081 0.1971 0.0
C369 C 0.14866 0.91701 0.17686 0.0
H370 H 0.11489 0.99073 0.23214 0.0
C371 C 0.21607 0.94704 0.18016 0.0
H372 H 0.06073 0.9077 0.19545 0.0
C373 C 0.24744 0.99521 0.20126 0.0
C374 C 0.21167 0.01369 0.21934 0.0
H375 H 0.24496 0.93717 0.16492 0.0
H376 H 0.29969 0.0213 0.20174 0.0
C377 C 0.14394 0.97846 0.21816 0.0
C378 C 0.35014 0.30628 0.3487 0.0
C379 C 0.3204 0.24037 0.3433 0.0
H380 H 0.34772 0.38021 0.37384 0.0
C381 C 0.27688 0.19767 0.36412 0.0
H382 H 0.38319 0.34008 0.33268 0.0
C383 C 0.25623 0.22037 0.38761 0.0
C384 C 0.27817 0.28616 0.39034 0.0
H385 H 0.25297 0.1466 0.36023 0.0
H386 H 0.21786 0.18591 0.40157 0.0
C387 C 0.32915 0.32917 0.37214 0.0
C388 C 0.16869 0.36324 0.5328 0.0
C389 C 0.1405 0.38353 0.51128 0.0
H390 H 0.15466 0.31306 0.57343 0.0
C391 C 0.08473 0.3863 0.51836 0.0
H392 H 0.21157 0.36039 0.52768 0.0
C393 C 0.05135 0.35838 0.54445 0.0
C394 C 0.07331 0.32685 0.56344 0.0
H395 H 0.06198 0.40143 0.50194 0.0
H396 H 0.00423 0.35388 0.54754 0.0
C397 C 0.13553 0.3355 0.55894 0.0
C398 C 0.75213 0.00233 0.69963 0.0
C399 C 0.78885 0.98734 0.719 0.0
H400 H 0.75335 0.05563 0.66139 0.0
C401 C 0.85645 0.02466 0.71818 0.0
H402 H 0.69993 0.9745 0.69979 0.0
C403 C 0.88684 0.07057 0.69624 0.0
C404 C 0.8503 0.08044 0.67473 0.0
H405 H 0.88612 0.01504 0.73313 0.0
H406 H 0.93903 0.0951 0.69489 0.0
C407 C 0.78274 0.04876 0.67762 0.0
loop_
_geom_bond_atom_site_label_1
_geom_bond_atom_site_label_2
_geom_bond_distance
_geom_bond_site_symmetry_2
_ccdc_geom_bond_type
Zn0 O3 2.031 . S
Zn0 O5 2.049 . S
Zn0 O10 2.067 . S
Zn1 O2 1.962 . S
Zn1 O4 1.986 . S
Zn1 O6 1.996 . S
Zn1 O9 1.943 . S
O2 Zn1 1.962 . S
O2 C7 1.254 . S
O3 Zn0 2.031 . S
O3 C7 1.269 . S
O4 Zn1 1.986 . S
O4 C11 1.262 . S
O5 Zn0 2.049 . S
O5 C13 1.260 . S
O6 Zn1 1.996 . S
O6 C13 1.257 . S
C7 O2 1.254 . S
C7 O3 1.269 . S
C8 O9 1.249 . S
C8 O10 1.270 . S
O9 Zn1 1.943 . S
O9 C8 1.249 . S
O10 Zn0 2.067 . S
O10 C8 1.270 . S
C11 O4 1.262 . S
C11 O12 1.232 . S
O12 C11 1.232 . S
C13 O5 1.260 . S
C13 O6 1.257 . S
Zn14 O17 2.031 . S
Zn14 O19 2.049 . S
Zn14 O24 2.067 . S
Zn15 O16 1.962 . S
Zn15 O18 1.986 . S
Zn15 O20 1.996 . S
Zn15 O23 1.943 . S
O16 Zn15 1.962 . S
O16 C21 1.254 . S
O17 Zn14 2.031 . S
O17 C21 1.269 . S
O18 Zn15 1.986 . S
O18 C25 1.262 . S
O19 Zn14 2.049 . S
O19 C27 1.260 . S
O20 Zn15 1.996 . S
O20 C27 1.257 . S
C21 O16 1.254 . S
C21 O17 1.269 . S
C22 O23 1.249 . S
C22 O24 1.270 . S
O23 Zn15 1.943 . S
O23 C22 1.249 . S
O24 Zn14 2.067 . S
O24 C22 1.270 . S
C25 O18 1.262 . S
C25 O26 1.232 . S
O26 C25 1.232 . S
C27 O19 1.260 . S
C27 O20 1.257 . S
Zn28 O31 2.031 . S
Zn28 O33 2.049 . S
Zn28 O38 2.067 . S
Zn29 O30 1.962 . S
Zn29 O32 1.986 . S
Zn29 O34 1.996 . S
Zn29 O37 1.943 . S
O30 Zn29 1.962 . S
O30 C35 1.254 . S
O31 Zn28 2.031 . S
O31 C35 1.269 . S
O32 Zn29 1.986 . S
O32 C39 1.262 . S
O33 Zn28 2.049 . S
O33 C41 1.260 . S
O34 Zn29 1.996 . S
O34 C41 1.257 . S
C35 O30 1.254 . S
C35 O31 1.269 . S
C36 O37 1.249 . S
C36 O38 1.270 . S
O37 Zn29 1.943 . S
O37 C36 1.249 . S
O38 Zn28 2.067 . S
O38 C36 1.270 . S
C39 O32 1.262 . S
C39 O40 1.232 . S
O40 C39 1.232 . S
C41 O33 1.260 . S
C41 O34 1.257 . S
Zn42 O45 2.031 . S
Zn42 O47 2.049 . S
Zn42 O52 2.067 . S
Zn43 O44 1.962 . S
Zn43 O46 1.986 . S
Zn43 O48 1.996 . S
Zn43 O51 1.943 . S
O44 Zn43 1.962 . S
O44 C49 1.254 . S
O45 Zn42 2.031 . S
O45 C49 1.269 . S
O46 Zn43 1.986 . S
O46 C53 1.262 . S
O47 Zn42 2.049 . S
O47 C55 1.260 . S
O48 Zn43 1.996 . S
O48 C55 1.257 . S
C49 O44 1.254 . S
C49 O45 1.269 . S
C50 O51 1.249 . S
C50 O52 1.270 . S
O51 Zn43 1.943 . S
O51 C50 1.249 . S
O52 Zn42 2.067 . S
O52 C50 1.270 . S
C53 O46 1.262 . S
C53 O54 1.232 . S
O54 C53 1.232 . S
C55 O47 1.260 . S
C55 O48 1.257 . S
Zn56 O59 2.031 . S
Zn56 O61 2.049 . S
Zn56 O66 2.067 . S
Zn57 O58 1.962 . S
Zn57 O60 1.986 . S
Zn57 O62 1.996 . S
Zn57 O65 1.943 . S
O58 Zn57 1.962 . S
O58 C63 1.254 . S
O59 Zn56 2.031 . S
O59 C63 1.269 . S
O60 Zn57 1.986 . S
O60 C67 1.262 . S
O61 Zn56 2.049 . S
O61 C69 1.260 . S
O62 Zn57 1.996 . S
O62 C69 1.257 . S
C63 O58 1.254 . S
C63 O59 1.269 . S
C64 O65 1.249 . S
C64 O66 1.270 . S
O65 Zn57 1.943 . S
O65 C64 1.249 . S
O66 Zn56 2.067 . S
O66 C64 1.270 . S
C67 O60 1.262 . S
C67 O68 1.232 . S
O68 C67 1.232 . S
C69 O61 1.260 . S
C69 O62 1.257 . S
Zn70 O73 2.031 . S
Zn70 O75 2.049 . S
Zn70 O80 2.067 . S
Zn71 O72 1.962 . S
Zn71 O74 1.986 . S
Zn71 O76 1.996 . S
Zn71 O79 1.943 . S
O72 Zn71 1.962 . S
O72 C77 1.254 . S
O73 Zn70 2.031 . S
O73 C77 1.269 . S
O74 Zn71 1.986 . S
O74 C81 1.262 . S
O75 Zn70 2.049 . S
O75 C83 1.260 . S
O76 Zn71 1.996 . S
O76 C83 1.257 . S
C77 O72 1.254 . S
C77 O73 1.269 . S
C78 O79 1.249 . S
C78 O80 1.270 . S
O79 Zn71 1.943 . S
O79 C78 1.249 . S
O80 Zn70 2.067 . S
O80 C78 1.270 . S
C81 O74 1.262 . S
C81 O82 1.232 . S
O82 C81 1.232 . S
C83 O75 1.260 . S
C83 O76 1.257 . S
Zn84 O87 2.031 . S
Zn84 O89 2.049 . S
Zn84 O94 2.067 . S
Zn85 O86 1.962 . S
Zn85 O88 1.986 . S
Zn85 O90 1.996 . S
Zn85 O93 1.943 . S
O86 Zn85 1.962 . S
O86 C91 1.254 . S
O87 Zn84 2.031 . S
O87 C91 1.269 . S
O88 Zn85 1.986 . S
O88 C95 1.262 . S
O89 Zn84 2.049 . S
O89 C97 1.260 . S
O90 Zn85 1.996 . S
O90 C97 1.257 . S
C91 O86 1.254 . S
C91 O87 1.269 . S
C92 O93 1.249 . S
C92 O94 1.270 . S
O93 Zn85 1.943 . S
O93 C92 1.249 . S
O94 Zn84 2.067 . S
O94 C92 1.270 . S
C95 O88 1.262 . S
C95 O96 1.232 . S
O96 C95 1.232 . S
C97 O89 1.260 . S
C97 O90 1.257 . S
Zn98 O101 2.031 . S
Zn98 O103 2.049 . S
Zn98 O108 2.067 . S
Zn99 O100 1.962 . S
Zn99 O102 1.986 . S
Zn99 O104 1.996 . S
Zn99 O107 1.943 . S
O100 Zn99 1.962 . S
O100 C105 1.254 . S
O101 Zn98 2.031 . S
O101 C105 1.269 . S
O102 Zn99 1.986 . S
O102 C109 1.262 . S
O103 Zn98 2.049 . S
O103 C111 1.260 . S
O104 Zn99 1.996 . S
O104 C111 1.257 . S
C105 O100 1.254 . S
C105 O101 1.269 . S
C106 O107 1.249 . S
C106 O108 1.270 . S
O107 Zn99 1.943 . S
O107 C106 1.249 . S
O108 Zn98 2.067 . S
O108 C106 1.270 . S
C109 O102 1.262 . S
C109 O110 1.232 . S
O110 C109 1.232 . S
C111 O103 1.260 . S
C111 O104 1.257 . S
Zn112 O115 2.031 . S
Zn112 O117 2.049 . S
Zn112 O122 2.067 . S
Zn113 O114 1.962 . S
Zn113 O116 1.986 . S
Zn113 O118 1.996 . S
Zn113 O121 1.943 . S
O114 Zn113 1.962 . S
O114 C119 1.254 . S
O115 Zn112 2.031 . S
O115 C119 1.269 . S
O116 Zn113 1.986 . S
O116 C123 1.262 . S
O117 Zn112 2.049 . S
O117 C125 1.260 . S
O118 Zn113 1.996 . S
O118 C125 1.257 . S
C119 O114 1.254 . S
C119 O115 1.269 . S
C120 O121 1.249 . S
C120 O122 1.270 . S
O121 Zn113 1.943 . S
O121 C120 1.249 . S
O122 Zn112 2.067 . S
O122 C120 1.270 . S
C123 O116 1.262 . S
C123 O124 1.232 . S
O124 C123 1.232 . S
C125 O117 1.260 . S
C125 O118 1.257 . S
Zn126 O129 2.031 . S
Zn126 O131 2.049 . S
Zn126 O136 2.067 . S
Zn127 O128 1.962 . S
Zn127 O130 1.986 . S
Zn127 O132 1.996 . S
Zn127 O135 1.943 . S
O128 Zn127 1.962 . S
O128 C133 1.254 . S
O129 Zn126 2.031 . S
O129 C133 1.269 . S
O130 Zn127 1.986 . S
O130 C137 1.262 . S
O131 Zn126 2.049 . S
O131 C139 1.260 . S
O132 Zn127 1.996 . S
O132 C139 1.257 . S
C133 O128 1.254 . S
C133 O129 1.269 . S
C134 O135 1.249 . S
C134 O136 1.270 . S
O135 Zn127 1.943 . S
O135 C134 1.249 . S
O136 Zn126 2.067 . S
O136 C134 1.270 . S
C137 O130 1.262 . S
C137 O138 1.232 . S
O138 C137 1.232 . S
C139 O131 1.260 . S
C139 O132 1.257 . S
Zn140 O143 2.031 . S
Zn140 O145 2.049 . S
Zn140 O150 2.067 . S
Zn141 O142 1.962 . S
Zn141 O144 1.986 . S
Zn141 O146 1.996 . S
Zn141 O149 1.943 . S
O142 Zn141 1.962 . S
O142 C147 1.254 . S
O143 Zn140 2.031 . S
O143 C147 1.269 . S
O144 Zn141 1.986 . S
O144 C151 1.262 . S
O145 Zn140 2.049 . S
O145 C153 1.260 . S
O146 Zn141 1.996 . S
O146 C153 1.257 . S
C147 O142 1.254 . S
C147 O143 1.269 . S
C148 O149 1.249 . S
C148 O150 1.270 . S
O149 Zn141 1.943 . S
O149 C148 1.249 . S
O150 Zn140 2.067 . S
O150 C148 1.270 . S
C151 O144 1.262 . S
C151 O152 1.232 . S
O152 C151 1.232 . S
C153 O145 1.260 . S
C153 O146 1.257 . S
Zn154 O157 2.031 . S
Zn154 O159 2.049 . S
Zn154 O164 2.067 . S
Zn155 O156 1.962 . S
Zn155 O158 1.986 . S
Zn155 O160 1.996 . S
Zn155 O163 1.943 . S
O156 Zn155 1.962 . S
O156 C161 1.254 . S
O157 Zn154 2.031 . S
O157 C161 1.269 . S
O158 Zn155 1.986 . S
O158 C165 1.262 . S
O159 Zn154 2.049 . S
O159 C167 1.260 . S
O160 Zn155 1.996 . S
O160 C167 1.257 . S
C161 O156 1.254 . S
C161 O157 1.269 . S
C162 O163 1.249 . S
C162 O164 1.270 . S
O163 Zn155 1.943 . S
O163 C162 1.249 . S
O164 Zn154 2.067 . S
O164 C162 1.270 . S
C165 O158 1.262 . S
C165 O166 1.232 . S
O166 C165 1.232 . S
C167 O159 1.260 . S
C167 O160 1.257 . S
C168 C169 1.387 . S
C168 H172 0.950 . S
C168 C177 1.390 . S
C169 C168 1.387 . S
C169 C171 1.387 . S
H170 C177 0.950 . S
C171 C169 1.387 . S
C171 C173 1.390 . S
C171 H175 0.950 . S
H172 C168 0.950 . S
C173 C171 1.390 . S
C173 C174 1.387 . S
C173 H176 0.950 . S
C174 C173 1.387 . S
C174 C177 1.387 . S
H175 C171 0.950 . S
H176 C173 0.950 . S
C177 C168 1.390 . S
C177 H170 0.950 . S
C177 C174 1.387 . S
C178 C179 1.387 . S
C178 H182 0.950 . S
C178 C187 1.390 . S
C179 C178 1.387 . S
C179 C181 1.387 . S
H180 C187 0.950 . S
C181 C179 1.387 . S
C181 C183 1.390 . S
C181 H185 0.950 . S
H182 C178 0.950 . S
C183 C181 1.390 . S
C183 C184 1.387 . S
C183 H186 0.950 . S
C184 C183 1.387 . S
C184 C187 1.387 . S
H185 C181 0.950 . S
H186 C183 0.950 . S
C187 C178 1.390 . S
C187 H180 0.950 . S
C187 C184 1.387 . S
C188 C189 1.387 . S
C188 H192 0.950 . S
C188 C197 1.390 . S
C189 C188 1.387 . S
C189 C191 1.387 . S
H190 C197 0.950 . S
C191 C189 1.387 . S
C191 C193 1.390 . S
C191 H195 0.950 . S
H192 C188 0.950 . S
C193 C191 1.390 . S
C193 C194 1.387 . S
C193 H196 0.950 . S
C194 C193 1.387 . S
C194 C197 1.387 . S
H195 C191 0.950 . S
H196 C193 0.950 . S
C197 C188 1.390 . S
C197 H190 0.950 . S
C197 C194 1.387 . S
C198 C199 1.387 . S
C198 H202 0.950 . S
C198 C207 1.390 . S
C199 C198 1.387 . S
C199 C201 1.387 . S
H200 C207 0.950 . S
C201 C199 1.387 . S
C201 C203 1.390 . S
C201 H205 0.950 . S
H202 C198 0.950 . S
C203 C201 1.390 . S
C203 C204 1.387 . S
C203 H206 0.950 . S
C204 C203 1.387 . S
C204 C207 1.387 . S
H205 C201 0.950 . S
H206 C203 0.950 . S
C207 C198 1.390 . S
C207 H200 0.950 . S
C207 C204 1.387 . S
C208 C209 1.387 . S
C208 H212 0.950 . S
C208 C217 1.390 . S
C209 C208 1.387 . S
C209 C211 1.387 . S
H210 C217 0.950 . S
C211 C209 1.387 . S
C211 C213 1.390 . S
C211 H215 0.950 . S
H212 C208 0.950 . S
C213 C211 1.390 . S
C213 C214 1.387 . S
C213 H216 0.950 . S
C214 C213 1.387 . S
C214 C217 1.387 . S
H215 C211 0.950 . S
H216 C213 0.950 . S
C217 C208 1.390 . S
C217 H210 0.950 . S
C217 C214 1.387 . S
C218 C219 1.387 . S
C218 H222 0.950 . S
C218 C227 1.390 . S
C219 C218 1.387 . S
C219 C221 1.387 . S
H220 C227 0.950 . S
C221 C219 1.387 . S
C221 C223 1.390 . S
C221 H225 0.950 . S
H222 C218 0.950 . S
C223 C221 1.390 . S
C223 C224 1.387 . S
C223 H226 0.950 . S
C224 C223 1.387 . S
C224 C227 1.387 . S
H225 C221 0.950 . S
H226 C223 0.950 . S
C227 C218 1.390 . S
C227 H220 0.950 . S
C227 C224 1.387 . S
C228 C229 1.387 . S
C228 H232 0.950 . S
C228 C237 1.390 . S
C229 C228 1.387 . S
C229 C231 1.387 . S
H230 C237 0.950 . S
C231 C229 1.387 . S
C231 C233 1.390 . S
C231 H235 0.950 . S
H232 C228 0.950 . S
C233 C231 1.390 . S
C233 C234 1.387 . S
C233 H236 0.950 . S
C234 C233 1.387 . S
C234 C237 1.387 . S
H235 C231 0.950 . S
H236 C233 0.950 . S
C237 C228 1.390 . S
C237 H230 0.950 . S
C237 C234 1.387 . S
C238 C239 1.387 . S
C238 H242 0.950 . S
C238 C247 1.390 1_655 S
C239 C238 1.387 . S
C239 C241 1.387 . S
H240 C247 0.950 . S
C241 C239 1.387 . S
C241 C243 1.390 1_655 S
C241 H245 0.950 . S
H242 C238 0.950 . S
C243 C241 1.390 1_455 S
C243 C244 1.387 . S
C243 H246 0.950 . S
C244 C243 1.387 . S
C244 C247 1.387 . S
H245 C241 0.950 . S
H246 C243 0.950 . S
C247 C238 1.390 1_455 S
C247 H240 0.950 . S
C247 C244 1.387 . S
C248 C249 1.387 . S
C248 H252 0.950 . S
C248 C257 1.390 1_545 S
C249 C248 1.387 . S
C249 C251 1.387 . S
H250 C257 0.950 . S
C251 C249 1.387 . S
C251 C253 1.390 1_545 S
C251 H255 0.950 . S
H252 C248 0.950 . S
C253 C251 1.390 1_565 S
C253 C254 1.387 . S
C253 H256 0.950 . S
C254 C253 1.387 . S
C254 C257 1.387 . S
H255 C251 0.950 . S
H256 C253 0.950 . S
C257 C248 1.390 1_565 S
C257 H250 0.950 . S
C257 C254 1.387 . S
C258 C259 1.387 . S
C258 H262 0.950 . S
C258 C267 1.390 . S
C259 C258 1.387 . S
C259 C261 1.387 . S
H260 C267 0.950 . S
C261 C259 1.387 . S
C261 C263 1.390 . S
C261 H265 0.950 . S
H262 C258 0.950 . S
C263 C261 1.390 . S
C263 C264 1.387 . S
C263 H266 0.950 . S
C264 C263 1.387 . S
C264 C267 1.387 . S
H265 C261 0.950 . S
H266 C263 0.950 . S
C267 C258 1.390 . S
C267 H260 0.950 . S
C267 C264 1.387 . S
C268 C269 1.387 . S
C268 H272 0.950 . S
C268 C277 1.390 1_655 S
C269 C268 1.387 . S
C269 C271 1.387 . S
H270 C277 0.950 . S
C271 C269 1.387 . S
C271 C273 1.390 1_655 S
C271 H275 0.950 . S
H272 C268 0.950 . S
C273 C271 1.390 1_455 S
C273 C274 1.387 . S
C273 H276 0.950 . S
C274 C273 1.387 . S
C274 C277 1.387 . S
H275 C271 0.950 . S
H276 C273 0.950 . S
C277 C268 1.390 1_455 S
C277 H270 0.950 . S
C277 C274 1.387 . S
C278 C279 1.387 . S
C278 H282 0.950 . S
C278 C287 1.390 1_564 S
C279 C278 1.387 . S
C279 C281 1.387 . S
H280 C287 0.950 . S
C281 C279 1.387 . S
C281 C283 1.390 1_564 S
C281 H285 0.950 . S
H282 C278 0.950 . S
C283 C281 1.390 1_546 S
C283 C284 1.387 . S
C283 H286 0.950 . S
C284 C283 1.387 . S
C284 C287 1.387 . S
H285 C281 0.950 . S
H286 C283 0.950 . S
C287 C278 1.390 1_546 S
C287 H280 0.950 . S
C287 C284 1.387 . S
C288 C289 1.387 . S
C288 H292 0.950 . S
C288 C297 1.390 1_554 S
C289 C288 1.387 . S
C289 C291 1.387 . S
H290 C297 0.950 . S
C291 C289 1.387 . S
C291 C293 1.390 . S
C291 H295 0.950 . S
H292 C288 0.950 . S
C293 C291 1.390 . S
C293 C294 1.387 1_554 S
C293 H296 0.950 . S
C294 C293 1.387 1_556 S
C294 C297 1.387 . S
H295 C291 0.950 . S
H296 C293 0.950 . S
C297 C288 1.390 1_556 S
C297 H290 0.950 . S
C297 C294 1.387 . S
C298 C299 1.387 . S
C298 H302 0.950 . S
C298 C307 1.390 . S
C299 C298 1.387 . S
C299 C301 1.387 . S
H300 C307 0.950 . S
C301 C299 1.387 . S
C301 C303 1.390 1_655 S
C301 H305 0.950 . S
H302 C298 0.950 . S
C303 C301 1.390 1_455 S
C303 C304 1.387 . S
C303 H306 0.950 . S
C304 C303 1.387 . S
C304 C307 1.387 1_455 S
H305 C301 0.950 . S
H306 C303 0.950 . S
C307 C298 1.390 . S
C307 H300 0.950 . S
C307 C304 1.387 1_655 S
C308 C309 1.387 1_565 S
C308 H312 0.950 . S
C308 C317 1.390 . S
C309 C308 1.387 1_545 S
C309 C311 1.390 . S
H310 C317 0.950 . S
C311 C309 1.390 . S
C311 C313 1.387 1_545 S
C311 H315 0.950 . S
H312 C308 0.950 . S
C313 C311 1.387 1_565 S
C313 C314 1.387 . S
C313 H316 0.950 . S
C314 C313 1.387 . S
C314 C317 1.387 . S
H315 C311 0.950 . S
H316 C313 0.950 . S
C317 C308 1.390 . S
C317 H310 0.950 . S
C317 C314 1.387 . S
C318 C319 1.387 . S
C318 H322 0.950 . S
C318 C327 1.390 . S
C319 C318 1.387 . S
C319 C321 1.387 . S
H320 C327 0.950 . S
C321 C319 1.387 . S
C321 C323 1.390 . S
C321 H325 0.950 . S
H322 C318 0.950 . S
C323 C321 1.390 . S
C323 C324 1.387 . S
C323 H326 0.950 . S
C324 C323 1.387 . S
C324 C327 1.387 . S
H325 C321 0.950 . S
H326 C323 0.950 . S
C327 C318 1.390 . S
C327 H320 0.950 . S
C327 C324 1.387 . S
C328 C329 1.387 . S
C328 H332 0.950 . S
C328 C337 1.390 . S
C329 C328 1.387 . S
C329 C331 1.387 . S
H330 C337 0.950 . S
C331 C329 1.387 . S
C331 C333 1.390 1_455 S
C331 H335 0.950 1_455 S
H332 C328 0.950 . S
C333 C331 1.390 1_655 S
C333 C334 1.387 . S
C333 H336 0.950 . S
C334 C333 1.387 . S
C334 C337 1.387 1_655 S
H335 C331 0.950 1_655 S
H336 C333 0.950 . S
C337 C328 1.390 . S
C337 H330 0.950 . S
C337 C334 1.387 1_455 S
C338 C339 1.387 . S
C338 H342 0.950 . S
C338 C347 1.390 1_545 S
C339 C338 1.387 . S
C339 C341 1.387 . S
H340 C347 0.950 . S
C341 C339 1.387 . S
C341 C343 1.390 . S
C341 H345 0.950 . S
H342 C338 0.950 . S
C343 C341 1.390 . S
C343 C344 1.387 1_545 S
C343 H346 0.950 . S
C344 C343 1.387 1_565 S
C344 C347 1.387 . S
H345 C341 0.950 . S
H346 C343 0.950 . S
C347 C338 1.390 1_565 S
C347 H340 0.950 . S
C347 C344 1.387 . S
C348 C349 1.387 . S
C348 H352 0.950 . S
C348 C357 1.390 . S
C349 C348 1.387 . S
C349 C351 1.387 . S
H350 C357 0.950 . S
C351 C349 1.387 . S
C351 C353 1.390 . S
C351 H355 0.950 . S
H352 C348 0.950 . S
C353 C351 1.390 . S
C353 C354 1.387 . S
C353 H356 0.950 . S
C354 C353 1.387 . S
C354 C357 1.387 . S
H355 C351 0.950 . S
H356 C353 0.950 . S
C357 C348 1.390 . S
C357 H350 0.950 . S
C357 C354 1.387 . S
C358 C359 1.387 . S
C358 H362 0.950 . S
C358 C367 1.390 1_655 S
C359 C358 1.387 . S
C359 C361 1.387 . S
H360 C367 0.950 . S
C361 C359 1.387 . S
C361 C363 1.390 1_556 S
C361 H365 0.950 . S
H362 C358 0.950 . S
C363 C361 1.390 1_554 S
C363 C364 1.387 1_655 S
C363 H366 0.950 . S
C364 C363 1.387 1_455 S
C364 C367 1.387 1_554 S
H365 C361 0.950 . S
H366 C363 0.950 . S
C367 C358 1.390 1_455 S
C367 H360 0.950 . S
C367 C364 1.387 1_556 S
C368 C369 1.387 . S
C368 H372 0.950 . S
C368 C377 1.390 . S
C369 C368 1.387 . S
C369 C371 1.387 . S
H370 C377 0.950 . S
C371 C369 1.387 . S
C371 C373 1.390 1_565 S
C371 H375 0.948 1_565 S
H372 C368 0.950 . S
C373 C371 1.390 1_545 S
C373 C374 1.387 . S
C373 H376 0.950 . S
C374 C373 1.387 . S
C374 C377 1.387 1_545 S
H375 C371 0.948 1_545 S
H376 C373 0.950 . S
C377 C368 1.390 . S
C377 H370 0.950 . S
C377 C374 1.387 1_565 S
C378 C379 1.387 . S
C378 H382 0.950 . S
C378 C387 1.390 . S
C379 C378 1.387 . S
C379 C381 1.387 . S
H380 C387 0.950 . S
C381 C379 1.387 . S
C381 C383 1.390 . S
C381 H385 0.950 . S
H382 C378 0.950 . S
C383 C381 1.390 . S
C383 C384 1.387 . S
C383 H386 0.950 . S
C384 C383 1.387 . S
C384 C387 1.387 . S
H385 C381 0.950 . S
H386 C383 0.950 . S
C387 C378 1.390 . S
C387 H380 0.950 . S
C387 C384 1.387 . S
C388 C389 1.387 . S
C388 H392 0.950 . S
C388 C397 1.390 1_455 S
C389 C388 1.387 . S
C389 C391 1.387 . S
H390 C397 0.950 . S
C391 C389 1.387 . S
C391 C393 1.390 . S
C391 H395 0.950 . S
H392 C388 0.950 . S
C393 C391 1.390 . S
C393 C394 1.387 1_455 S
C393 H396 0.950 . S
C394 C393 1.387 1_655 S
C394 C397 1.387 . S
H395 C391 0.950 . S
H396 C393 0.950 . S
C397 C388 1.390 1_655 S
C397 H390 0.950 . S
C397 C394 1.387 . S
C398 C399 1.387 1_545 S
C398 H402 0.950 . S
C398 C407 1.390 . S
C399 C398 1.387 1_565 S
C399 C401 1.387 . S
H400 C407 0.950 . S
C401 C399 1.387 . S
C401 C403 1.390 1_565 S
C401 H405 0.950 . S
H402 C398 0.950 . S
C403 C401 1.390 1_545 S
C403 C404 1.387 . S
C403 H406 0.950 . S
C404 C403 1.387 . S
C404 C407 1.387 . S
H405 C401 0.950 . S
H406 C403 0.950 . S
C407 C398 1.390 . S
C407 H400 0.950 . S
C407 C404 1.387 . S
C169 C123 1.342 . S
C174 C11 1.343 . S
C179 C25 1.342 . S
C184 C137 1.342 . S
C189 C39 1.342 . S
C194 C151 1.343 . S
C199 C53 1.342 . S
C204 C165 1.343 . S
C209 C95 1.343 . S
C214 C67 1.343 . S
C219 C81 1.343 . S
C224 C109 1.342 . S
C229 C134 0.992 . S
C234 C8 0.996 . S
C239 C22 0.996 . S
C244 C148 0.992 . S
C249 C162 0.994 . S
C254 C36 0.994 . S
C259 C50 0.997 . S
C264 C92 0.991 . S
C269 C106 0.993 . S
C274 C64 0.995 . S
C279 C120 0.994 . S
C284 C78 0.994 . S
C289 C7 1.393 . S
C294 C83 1.288 . S
C299 C21 1.394 . S
C304 C13 1.287 . S
C309 C27 1.287 . S
C314 C35 1.394 . S
C319 C49 1.394 . S
C324 C41 1.287 . S
C329 C63 1.393 . S
C334 C55 1.290 . S
C339 C77 1.394 . S
C344 C69 1.286 . S
C349 C91 1.393 . S
C354 C111 1.285 . S
C359 C105 1.392 . S
C364 C125 1.287 . S
C369 C119 1.393 . S
C374 C139 1.290 . S
C379 C133 1.393 . S
C384 C153 1.285 . S
C389 C147 1.392 . S
C394 C167 1.288 . S
C399 C97 1.288 . S
C404 C161 1.394 . S
