# Generated by pormake.
# Topology lcs, (4)-cn, num edge types: 1
# Building blocks:
#     Node 0, Type 0, BuildingBlock: KUFVIS_clean_sbu_0, # of connection points: 4
#     Node 1, Type 0, BuildingBlock: KUFVIS_clean_sbu_0, # of connection points: 4
#     Node 2, Type 0, BuildingBlock: KUFVIS_clean_sbu_0, # of connection points: 4
#     Node 3, Type 0, BuildingBlock: KUFVIS_clean_sbu_0, # of connection points: 4
#     Node 4, Type 0, BuildingBlock: KUFVIS_clean_sbu_0, # of connection points: 4
#     Node 5, Type 0, BuildingBlock: KUFVIS_clean_sbu_0, # of connection points: 4
#     Node 6, Type 0, BuildingBlock: KUFVIS_clean_sbu_0, # of connection points: 4
#     Node 7, Type 0, BuildingBlock: KUFVIS_clean_sbu_0, # of connection points: 4
#     Node 8, Type 0, BuildingBlock: KUFVIS_clean_sbu_0, # of connection points: 4
#     Node 9, Type 0, BuildingBlock: KUFVIS_clean_sbu_0, # of connection points: 4
#     Node 10, Type 0, BuildingBlock: KUFVIS_clean_sbu_0, # of connection points: 4
#     Node 11, Type 0, BuildingBlock: KUFVIS_clean_sbu_0, # of connection points: 4
#     Node 12, Type 0, BuildingBlock: KUFVIS_clean_sbu_0, # of connection points: 4
#     Node 13, Type 0, BuildingBlock: KUFVIS_clean_sbu_0, # of connection points: 4
#     Node 14, Type 0, BuildingBlock: KUFVIS_clean_sbu_0, # of connection points: 4
#     Node 15, Type 0, BuildingBlock: KUFVIS_clean_sbu_0, # of connection points: 4
#     Node 16, Type 0, BuildingBlock: KUFVIS_clean_sbu_0, # of connection points: 4
#     Node 17, Type 0, BuildingBlock: KUFVIS_clean_sbu_0, # of connection points: 4
#     Node 18, Type 0, BuildingBlock: KUFVIS_clean_sbu_0, # of connection points: 4
#     Node 19, Type 0, BuildingBlock: KUFVIS_clean_sbu_0, # of connection points: 4
#     Node 20, Type 0, BuildingBlock: KUFVIS_clean_sbu_0, # of connection points: 4
#     Node 21, Type 0, BuildingBlock: KUFVIS_clean_sbu_0, # of connection points: 4
#     Node 22, Type 0, BuildingBlock: KUFVIS_clean_sbu_0, # of connection points: 4
#     Node 23, Type 0, BuildingBlock: KUFVIS_clean_sbu_0, # of connection points: 4
#     Edge 24, Type (0, 0), BuildingBlock: XIVTED_clean_linker_0, # of connection points: 2
#     Edge 25, Type (0, 0), BuildingBlock: XIVTED_clean_linker_0, # of connection points: 2
#     Edge 26, Type (0, 0), BuildingBlock: XIVTED_clean_linker_0, # of connection points: 2
#     Edge 27, Type (0, 0), BuildingBlock: XIVTED_clean_linker_0, # of connection points: 2
#     Edge 28, Type (0, 0), BuildingBlock: XIVTED_clean_linker_0, # of connection points: 2
#     Edge 29, Type (0, 0), BuildingBlock: XIVTED_clean_linker_0, # of connection points: 2
#     Edge 30, Type (0, 0), BuildingBlock: XIVTED_clean_linker_0, # of connection points: 2
#     Edge 31, Type (0, 0), BuildingBlock: XIVTED_clean_linker_0, # of connection points: 2
#     Edge 32, Type (0, 0), BuildingBlock: XIVTED_clean_linker_0, # of connection points: 2
#     Edge 33, Type (0, 0), BuildingBlock: XIVTED_clean_linker_0, # of connection points: 2
#     Edge 34, Type (0, 0), BuildingBlock: XIVTED_clean_linker_0, # of connection points: 2
#     Edge 35, Type (0, 0), BuildingBlock: XIVTED_clean_linker_0, # of connection points: 2
#     Edge 36, Type (0, 0), BuildingBlock: XIVTED_clean_linker_0, # of connection points: 2
#     Edge 37, Type (0, 0), BuildingBlock: XIVTED_clean_linker_0, # of connection points: 2
#     Edge 38, Type (0, 0), BuildingBlock: XIVTED_clean_linker_0, # of connection points: 2
#     Edge 39, Type (0, 0), BuildingBlock: XIVTED_clean_linker_0, # of connection points: 2
#     Edge 40, Type (0, 0), BuildingBlock: XIVTED_clean_linker_0, # of connection points: 2
#     Edge 41, Type (0, 0), BuildingBlock: XIVTED_clean_linker_0, # of connection points: 2
#     Edge 42, Type (0, 0), BuildingBlock: XIVTED_clean_linker_0, # of connection points: 2
#     Edge 43, Type (0, 0), BuildingBlock: XIVTED_clean_linker_0, # of connection points: 2
#     Edge 44, Type (0, 0), BuildingBlock: XIVTED_clean_linker_0, # of connection points: 2
#     Edge 45, Type (0, 0), BuildingBlock: XIVTED_clean_linker_0, # of connection points: 2
#     Edge 46, Type (0, 0), BuildingBlock: XIVTED_clean_linker_0, # of connection points: 2
#     Edge 47, Type (0, 0), BuildingBlock: XIVTED_clean_linker_0, # of connection points: 2
#     Edge 48, Type (0, 0), BuildingBlock: XIVTED_clean_linker_0, # of connection points: 2
#     Edge 49, Type (0, 0), BuildingBlock: XIVTED_clean_linker_0, # of connection points: 2
#     Edge 50, Type (0, 0), BuildingBlock: XIVTED_clean_linker_0, # of connection points: 2
#     Edge 51, Type (0, 0), BuildingBlock: XIVTED_clean_linker_0, # of connection points: 2
#     Edge 52, Type (0, 0), BuildingBlock: XIVTED_clean_linker_0, # of connection points: 2
#     Edge 53, Type (0, 0), BuildingBlock: XIVTED_clean_linker_0, # of connection points: 2
#     Edge 54, Type (0, 0), BuildingBlock: XIVTED_clean_linker_0, # of connection points: 2
#     Edge 55, Type (0, 0), BuildingBlock: XIVTED_clean_linker_0, # of connection points: 2
#     Edge 56, Type (0, 0), BuildingBlock: XIVTED_clean_linker_0, # of connection points: 2
#     Edge 57, Type (0, 0), BuildingBlock: XIVTED_clean_linker_0, # of connection points: 2
#     Edge 58, Type (0, 0), BuildingBlock: XIVTED_clean_linker_0, # of connection points: 2
#     Edge 59, Type (0, 0), BuildingBlock: XIVTED_clean_linker_0, # of connection points: 2
#     Edge 60, Type (0, 0), BuildingBlock: XIVTED_clean_linker_0, # of connection points: 2
#     Edge 61, Type (0, 0), BuildingBlock: XIVTED_clean_linker_0, # of connection points: 2
#     Edge 62, Type (0, 0), BuildingBlock: XIVTED_clean_linker_0, # of connection points: 2
#     Edge 63, Type (0, 0), BuildingBlock: XIVTED_clean_linker_0, # of connection points: 2
#     Edge 64, Type (0, 0), BuildingBlock: XIVTED_clean_linker_0, # of connection points: 2
#     Edge 65, Type (0, 0), BuildingBlock: XIVTED_clean_linker_0, # of connection points: 2
#     Edge 66, Type (0, 0), BuildingBlock: XIVTED_clean_linker_0, # of connection points: 2
#     Edge 67, Type (0, 0), BuildingBlock: XIVTED_clean_linker_0, # of connection points: 2
#     Edge 68, Type (0, 0), BuildingBlock: XIVTED_clean_linker_0, # of connection points: 2
#     Edge 69, Type (0, 0), BuildingBlock: XIVTED_clean_linker_0, # of connection points: 2
#     Edge 70, Type (0, 0), BuildingBlock: XIVTED_clean_linker_0, # of connection points: 2
#     Edge 71, Type (0, 0), BuildingBlock: XIVTED_clean_linker_0, # of connection points: 2
# Relax obj value: 0.011
# Max RMSD: 0.062
# Mean RMSD: 0.054
data_MOF--net-lcs--node1-KUFVIS_clean_sbu_0--edge1-XIVTED_clean_linker_0
_symmetry_space_group_name_H-M    P1
_symmetry_Int_Tables_number       1
_symmetry_cell_setting            triclinic
loop_
_symmetry_equiv_pos_as_xyz
'x, y, z'
_cell_length_a     48.697806
_cell_length_b     49.412451
_cell_length_c     49.428136
_cell_angle_alpha  90.256253
_cell_angle_beta   91.167656
_cell_angle_gamma 91.093409
loop_
_atom_site_label
_atom_site_type_symbol
_atom_site_fract_x
_atom_site_fract_y
_atom_site_fract_z
_atom_type_partial_charge
Mn0 Mn 0.01318 0.25948 0.38008 0.0
Mn1 Mn 0.0394 0.29058 0.4361 0.0
C2 C 0.05455 0.24581 0.39832 0.0
C3 C 0.98508 0.2258 0.3605 0.0
C4 C 0.04163 0.31528 0.37995 0.0
O5 O 0.98048 0.27943 0.39465 0.0
O6 O 0.99915 0.29675 0.43321 0.0
C7 C 0.01173 0.25724 0.47743 0.0
N8 N 0.03526 0.26733 0.46659 0.0
C9 C 0.06306 0.24517 0.50032 0.0
C10 C 0.03911 0.23468 0.51196 0.0
C11 C 0.01335 0.2407 0.50042 0.0
C12 C 0.06016 0.2616 0.47747 0.0
H13 H 0.99189 0.26175 0.46857 0.0
C14 C 0.97875 0.29257 0.41681 0.0
O15 O 0.99191 0.24739 0.34712 0.0
O16 O 0.99395 0.22418 0.38533 0.0
N17 N 0.07808 0.28626 0.44169 0.0
C18 C 0.09921 0.29722 0.42747 0.0
C19 C 0.1264 0.29267 0.43605 0.0
C20 C 0.13158 0.27717 0.45929 0.0
C21 C 0.1095 0.2665 0.47386 0.0
C22 C 0.08283 0.27185 0.46443 0.0
H23 H 0.09538 0.30917 0.40962 0.0
O24 O 0.04799 0.24029 0.37332 0.0
O25 O 0.03653 0.25891 0.41208 0.0
O26 O 0.03036 0.29537 0.36709 0.0
O27 O 0.04524 0.31562 0.40564 0.0
C28 C 0.11289 0.25035 0.49706 0.0
C29 C 0.08969 0.23965 0.51025 0.0
H30 H 0.04027 0.22184 0.52963 0.0
H31 H 0.99478 0.23257 0.50921 0.0
H32 H 0.14333 0.30102 0.42473 0.0
H33 H 0.15258 0.27348 0.46569 0.0
H34 H 0.13326 0.24575 0.50473 0.0
H35 H 0.09258 0.227 0.52788 0.0
Mn36 Mn 0.01933 0.76677 0.63254 0.0
Mn37 Mn 0.98859 0.79443 0.68648 0.0
C38 C 0.03346 0.80883 0.64869 0.0
C39 C 0.05314 0.73977 0.61416 0.0
C40 C 0.96315 0.79422 0.62999 0.0
O41 O 0.9995 0.7343 0.64906 0.0
O42 O 0.98046 0.75483 0.68477 0.0
C43 C 0.02165 0.7676 0.72915 0.0
N44 N 0.0124 0.79068 0.71741 0.0
C45 C 0.03753 0.81842 0.74989 0.0
C46 C 0.04717 0.79495 0.76244 0.0
C47 C 0.03923 0.76943 0.75198 0.0
C48 C 0.02002 0.81533 0.72722 0.0
H49 H 0.01573 0.74794 0.7211 0.0
C50 C 0.98508 0.73383 0.67036 0.0
O51 O 0.03082 0.74521 0.60061 0.0
O52 O 0.05547 0.74929 0.63861 0.0
N53 N 0.99475 0.83259 0.69098 0.0
C54 C 0.98382 0.85326 0.67639 0.0
C55 C 0.98978 0.88013 0.68419 0.0
C56 C 0.00672 0.88548 0.707 0.0
C57 C 0.01734 0.86389 0.72197 0.0
C58 C 0.01042 0.83752 0.71342 0.0
H59 H 0.97081 0.84928 0.65882 0.0
O60 O 0.03859 0.80169 0.62406 0.0
O61 O 0.02047 0.79107 0.66322 0.0
O62 O 0.98258 0.78178 0.61854 0.0
O63 O 0.96329 0.79983 0.65527 0.0
C64 C 0.03473 0.86748 0.74488 0.0
C65 C 0.04489 0.84477 0.75878 0.0
H66 H 0.06081 0.79627 0.78001 0.0
H67 H 0.04669 0.75122 0.76148 0.0
H68 H 0.98144 0.89669 0.67257 0.0
H69 H 0.01153 0.90623 0.71278 0.0
H70 H 0.04061 0.88763 0.75185 0.0
H71 H 0.05844 0.84779 0.77623 0.0
Mn72 Mn 0.51447 0.7566 0.87806 0.0
Mn73 Mn 0.54094 0.78923 0.93312 0.0
C74 C 0.55618 0.74381 0.89612 0.0
C75 C 0.48665 0.72239 0.85918 0.0
C76 C 0.54287 0.81246 0.87641 0.0
O77 O 0.48167 0.7764 0.89244 0.0
O78 O 0.50066 0.79559 0.92994 0.0
C79 C 0.51284 0.75707 0.9751 0.0
N80 N 0.53649 0.76673 0.96414 0.0
C81 C 0.56397 0.74487 0.99833 0.0
C82 C 0.53989 0.73485 0.01009 0.0
C83 C 0.51422 0.74094 0.99839 0.0
C84 C 0.5613 0.76093 0.97519 0.0
H85 H 0.49307 0.76161 0.96611 0.0
C86 C 0.48009 0.79052 0.91398 0.0
O87 O 0.49312 0.74388 0.84547 0.0
O88 O 0.49571 0.72117 0.88398 0.0
N89 N 0.57957 0.78483 0.93908 0.0
C90 C 0.60085 0.79543 0.92482 0.0
C91 C 0.62796 0.79089 0.93366 0.0
C92 C 0.63291 0.7757 0.95715 0.0
C93 C 0.61068 0.76536 0.97171 0.0
C94 C 0.58411 0.77076 0.96208 0.0
H95 H 0.59721 0.80704 0.90671 0.0
O96 O 0.54941 0.73776 0.87129 0.0
O97 O 0.53814 0.75692 0.90989 0.0
O98 O 0.53103 0.7924 0.8643 0.0
O99 O 0.54712 0.81343 0.90201 0.0
C100 C 0.61385 0.74951 0.99516 0.0
C101 C 0.59051 0.73923 0.00842 0.0
H102 H 0.54087 0.7223 0.02799 0.0
H103 H 0.49555 0.73317 0.00727 0.0
H104 H 0.64501 0.79895 0.92231 0.0
H105 H 0.65385 0.77197 0.96372 0.0
H106 H 0.63415 0.74485 1.00298 0.0
H107 H 0.59322 0.72684 0.02627 0.0
Mn108 Mn 0.5199 0.26719 0.13653 0.0
Mn109 Mn 0.48927 0.29436 0.1907 0.0
C110 C 0.53283 0.30997 0.15184 0.0
C111 C 0.55456 0.24077 0.11866 0.0
C112 C 0.46252 0.2916 0.13459 0.0
O113 O 0.50097 0.23458 0.15372 0.0
O114 O 0.48411 0.25425 0.19101 0.0
C115 C 0.52563 0.27178 0.23336 0.0
N116 N 0.51417 0.29359 0.22109 0.0
C117 C 0.53793 0.3243 0.25184 0.0
C118 C 0.5497 0.30215 0.26501 0.0
C119 C 0.54358 0.27578 0.25567 0.0
C120 C 0.52008 0.31905 0.22979 0.0
H121 H 0.52123 0.2515 0.22607 0.0
C122 C 0.48847 0.23347 0.17618 0.0
O123 O 0.53181 0.2448 0.10521 0.0
O124 O 0.55674 0.25135 0.14266 0.0
N125 N 0.49298 0.33295 0.19329 0.0
C126 C 0.48079 0.35218 0.1777 0.0
C127 C 0.48519 0.37966 0.18407 0.0
C128 C 0.50198 0.38711 0.20643 0.0
C129 C 0.51408 0.36697 0.22233 0.0
C130 C 0.50866 0.33989 0.21521 0.0
H131 H 0.46793 0.34662 0.16045 0.0
O132 O 0.53803 0.30261 0.12727 0.0
O133 O 0.52053 0.292 0.16664 0.0
O134 O 0.48264 0.28073 0.12273 0.0
O135 O 0.46259 0.29682 0.15998 0.0
C136 C 0.53165 0.37271 0.24471 0.0
C137 C 0.54362 0.3514 0.2594 0.0
H138 H 0.56369 0.30515 0.28213 0.0
H139 H 0.55277 0.25859 0.26558 0.0
H140 H 0.47579 0.39509 0.17169 0.0
H141 H 0.50559 0.40833 0.21108 0.0
H142 H 0.53636 0.39346 0.25057 0.0
H143 H 0.55738 0.35607 0.27635 0.0
Mn144 Mn 0.00771 0.76093 0.13048 0.0
Mn145 Mn 0.98561 0.79833 0.07775 0.0
C146 C 0.96438 0.75271 0.11094 0.0
C147 C 0.03028 0.72323 0.14787 0.0
C148 C 0.9848 0.81825 0.13566 0.0
O149 O 0.04358 0.77814 0.11747 0.0
O150 O 0.0257 0.80239 0.08328 0.0
C151 C 0.01291 0.76733 0.03485 0.0
N152 N 0.98984 0.77829 0.04505 0.0
C153 C 0.96372 0.76725 0.00458 0.0
C154 C 0.98717 0.75578 0.99358 0.0
C155 C 0.01181 0.75561 0.00889 0.0
C156 C 0.96585 0.77775 0.03089 0.0
H157 H 0.03201 0.76772 0.04636 0.0
C158 C 0.04598 0.79478 0.09797 0.0
O159 O 0.02714 0.74483 0.16247 0.0
O160 O 0.02112 0.72387 0.12308 0.0
N161 N 0.94722 0.79712 0.06921 0.0
C162 C 0.92648 0.80869 0.08297 0.0
C163 C 0.90085 0.81197 0.07003 0.0
C164 C 0.897 0.80377 0.04297 0.0
C165 C 0.91843 0.79123 0.02944 0.0
C166 C 0.94345 0.78844 0.04341 0.0
H167 H 0.92969 0.81605 0.10341 0.0
O168 O 0.96995 0.74541 0.1356 0.0
O169 O 0.98436 0.76457 0.09829 0.0
O170 O 0.99589 0.79753 0.14636 0.0
O171 O 0.97993 0.82034 0.11031 0.0
C172 C 0.91599 0.78155 1.0026 0.0
C173 C 0.93846 0.76909 0.99036 0.0
H174 H 0.98653 0.7472 0.97337 0.0
H175 H 0.03001 0.74686 1.00053 0.0
H176 H 0.88431 0.82138 0.08066 0.0
H177 H 0.87739 0.80688 0.03285 0.0
H178 H 0.8968 0.78327 0.99132 0.0
H179 H 0.9362 0.76135 0.96988 0.0
Mn180 Mn 0.51437 0.76245 0.38178 0.0
Mn181 Mn 0.50466 0.80137 0.43705 0.0
C182 C 0.54938 0.79067 0.39787 0.0
C183 C 0.52779 0.72163 0.36248 0.0
C184 C 0.48322 0.81606 0.38118 0.0
O185 O 0.48044 0.74507 0.3981 0.0
O186 O 0.47561 0.77231 0.43422 0.0
C187 C 0.51666 0.75953 0.4781 0.0
N188 N 0.5219 0.78444 0.46749 0.0
C189 C 0.55714 0.7938 0.50127 0.0
C190 C 0.55197 0.76832 0.51268 0.0
C191 C 0.53168 0.7511 0.501 0.0
C192 C 0.54144 0.80114 0.47851 0.0
H193 H 0.50117 0.74617 0.46914 0.0
C194 C 0.46791 0.75212 0.41933 0.0
O195 O 0.51155 0.73783 0.34946 0.0
O196 O 0.53531 0.72876 0.38682 0.0
N197 N 0.53101 0.83016 0.44297 0.0
C198 C 0.53421 0.85365 0.42894 0.0
C199 C 0.55397 0.87298 0.43778 0.0
C200 C 0.57011 0.86805 0.46104 0.0
C201 C 0.56624 0.84388 0.47534 0.0
C202 C 0.54602 0.8255 0.46573 0.0
H203 H 0.5221 0.85744 0.4109 0.0
O204 O 0.5491 0.78215 0.37302 0.0
O205 O 0.52926 0.78219 0.41282 0.0
O206 O 0.49159 0.79492 0.36905 0.0
O207 O 0.48714 0.82053 0.40648 0.0
C208 C 0.58203 0.83707 0.49843 0.0
C209 C 0.57752 0.81202 0.51136 0.0
H210 H 0.56359 0.76169 0.53028 0.0
H211 H 0.52767 0.73135 0.50961 0.0
H212 H 0.55689 0.89154 0.42657 0.0
H213 H 0.58557 0.88284 0.46759 0.0
H214 H 0.59792 0.85081 0.50623 0.0
H215 H 0.58999 0.80689 0.52892 0.0
Mn216 Mn 0.50613 0.25895 0.62954 0.0
Mn217 Mn 0.4835 0.29553 0.57644 0.0
C218 C 0.46253 0.25065 0.61085 0.0
C219 C 0.52908 0.22163 0.64722 0.0
C220 C 0.48309 0.31632 0.63404 0.0
O221 O 0.54179 0.27591 0.61596 0.0
O222 O 0.52363 0.29977 0.58169 0.0
C223 C 0.51067 0.26372 0.53405 0.0
N224 N 0.48763 0.27489 0.5441 0.0
C225 C 0.46149 0.26342 0.50376 0.0
C226 C 0.4849 0.25171 0.49293 0.0
C227 C 0.50953 0.25164 0.50826 0.0
C228 C 0.46363 0.2742 0.52996 0.0
H229 H 0.52977 0.26421 0.54556 0.0
C230 C 0.54403 0.29233 0.59628 0.0
O231 O 0.52602 0.24343 0.66153 0.0
O232 O 0.51951 0.22181 0.62256 0.0
N233 N 0.44509 0.29424 0.56799 0.0
C234 C 0.42445 0.30628 0.58148 0.0
C235 C 0.39891 0.30968 0.5684 0.0
C236 C 0.39507 0.30117 0.54143 0.0
C237 C 0.41639 0.28818 0.52817 0.0
C238 C 0.4413 0.28522 0.5423 0.0
H239 H 0.42769 0.31394 0.60181 0.0
O240 O 0.46854 0.2436 0.63548 0.0
O241 O 0.48232 0.26211 0.59756 0.0
O242 O 0.49444 0.29581 0.64489 0.0
O243 O 0.47792 0.31806 0.6087 0.0
C244 C 0.41391 0.27816 0.50145 0.0
C245 C 0.43628 0.2653 0.48945 0.0
H246 H 0.48424 0.24289 0.47282 0.0
H247 H 0.5277 0.24271 0.50003 0.0
H248 H 0.38246 0.31946 0.57883 0.0
H249 H 0.37555 0.3044 0.53117 0.0
H250 H 0.39478 0.27993 0.49009 0.0
H251 H 0.43401 0.25733 0.46906 0.0
Mn252 Mn 0.01363 0.26057 0.88195 0.0
Mn253 Mn 0.00341 0.29869 0.9376 0.0
C254 C 0.04901 0.28756 0.89945 0.0
C255 C 0.02613 0.2194 0.86274 0.0
C256 C 0.98238 0.3137 0.88152 0.0
O257 O 0.9785 0.24421 0.89735 0.0
O258 O 0.97537 0.26882 0.93562 0.0
C259 C 0.01743 0.25817 0.97932 0.0
N260 N 0.02177 0.28294 0.96804 0.0
C261 C 0.05751 0.29394 1.00082 0.0
C262 C 0.05329 0.26862 0.01291 0.0
C263 C 0.0332 0.25065 1.00208 0.0
C264 C 0.04108 0.30037 0.97826 0.0
H265 H 1.00209 0.24425 0.97097 0.0
C266 C 0.96689 0.24982 0.9196 0.0
O267 O 0.01093 0.2363 0.84939 0.0
O268 O 0.03313 0.22607 0.88735 0.0
N269 N 0.02908 0.32825 0.94227 0.0
C270 C 0.0314 0.35139 0.92752 0.0
C271 C 0.05102 0.37127 0.93531 0.0
C272 C 0.06788 0.36727 0.95828 0.0
C273 C 0.06486 0.34347 0.97336 0.0
C274 C 0.0448 0.32447 0.96475 0.0
H275 H 0.0185 0.35458 0.90984 0.0
O276 O 0.04946 0.27918 0.87457 0.0
O277 O 0.02805 0.27957 0.91346 0.0
O278 O 0.99275 0.29394 0.86876 0.0
O279 O 0.98442 0.31678 0.90717 0.0
C280 C 0.08132 0.33762 0.99629 0.0
C281 C 0.07769 0.31286 0.00998 0.0
H282 H 0.0655 0.26269 0.03038 0.0
H283 H 0.02992 0.23102 0.01121 0.0
H284 H 0.05321 0.3896 0.92358 0.0
H285 H 0.08319 0.38252 0.96406 0.0
H286 H 0.09711 0.35186 1.00333 0.0
H287 H 0.09072 0.30843 0.02736 0.0
Mn288 Mn 0.38541 0.01663 0.2506 0.0
Mn289 Mn 0.32878 0.97677 0.25648 0.0
C290 C 0.37046 0.98996 0.21472 0.0
C291 C 0.40566 0.05824 0.23957 0.0
C292 C 0.3844 0.96155 0.27947 0.0
O293 O 0.36739 0.03224 0.28367 0.0
O294 O 0.33064 1.00414 0.28643 0.0
C295 C 0.28795 0.01903 0.24479 0.0
N296 N 0.29887 0.99458 0.23889 0.0
C297 C 0.26658 0.98748 0.20191 0.0
C298 C 0.25488 0.0125 0.20771 0.0
C299 C 0.26565 0.02836 0.22922 0.0
C300 C 0.28873 0.97921 0.21816 0.0
H301 H 0.29622 0.03135 0.26123 0.0
C302 C 0.34551 0.02417 0.29515 0.0
O303 O 0.41806 0.04153 0.25574 0.0
O304 O 0.38138 0.05113 0.23066 0.0
N305 N 0.32375 0.94952 0.22904 0.0
C306 C 0.33768 0.92611 0.22573 0.0
C307 C 0.32957 0.90801 0.20496 0.0
C308 C 0.30711 0.91406 0.18791 0.0
C309 C 0.29283 0.93806 0.19194 0.0
C310 C 0.3017 0.9552 0.21315 0.0
H311 H 0.35508 0.92146 0.2386 0.0
O312 O 0.39578 0.99855 0.21628 0.0
O313 O 0.35454 0.9974 0.23413 0.0
O314 O 0.39707 0.98331 0.27263 0.0
O315 O 0.35893 0.95683 0.27419 0.0
C316 C 0.27039 0.94584 0.1755 0.0
C317 C 0.25732 0.97056 0.18044 0.0
H318 H 0.23773 0.01981 0.19571 0.0
H319 H 0.25681 0.04775 0.23376 0.0
H320 H 0.34071 0.88954 0.20197 0.0
H321 H 0.30111 0.9002 0.17171 0.0
H322 H 0.26319 0.93308 0.15884 0.0
H323 H 0.24024 0.97643 0.16751 0.0
Mn324 Mn 0.26011 0.13308 0.51353 0.0
Mn325 Mn 0.28795 0.18695 0.48179 0.0
C326 C 0.30326 0.14963 0.52668 0.0
C327 C 0.23381 0.11584 0.54877 0.0
C328 C 0.28721 0.13041 0.45784 0.0
O329 O 0.22678 0.14908 0.49408 0.0
O330 O 0.248 0.18426 0.47403 0.0
C331 C 0.26021 0.22862 0.51397 0.0
N332 N 0.28377 0.21766 0.50483 0.0
C333 C 0.31155 0.24887 0.5315 0.0
C334 C 0.28762 0.26064 0.54106 0.0
C335 C 0.26183 0.25052 0.53217 0.0
C336 C 0.30867 0.22743 0.51299 0.0
H337 H 0.24033 0.22057 0.50764 0.0
C338 C 0.22654 0.16995 0.47895 0.0
O339 O 0.23759 0.10164 0.52699 0.0
O340 O 0.24413 0.14016 0.54934 0.0
N341 N 0.32655 0.1924 0.48751 0.0
C342 C 0.34764 0.17873 0.47642 0.0
C343 C 0.37484 0.18687 0.48259 0.0
C344 C 0.38002 0.20877 0.50029 0.0
C345 C 0.3579 0.22265 0.51116 0.0
C346 C 0.33131 0.21436 0.5034 0.0
H347 H 0.34374 0.16164 0.46312 0.0
O348 O 0.29598 0.12494 0.53219 0.0
O349 O 0.28515 0.16373 0.51356 0.0
O350 O 0.27436 0.11881 0.47711 0.0
O351 O 0.29341 0.15569 0.45774 0.0
C352 C 0.36118 0.24352 0.53042 0.0
C353 C 0.33811 0.2568 0.54046 0.0
H354 H 0.2888 0.27723 0.55546 0.0
H355 H 0.24324 0.25936 0.53959 0.0
H356 H 0.39176 0.17601 0.47412 0.0
H357 H 0.401 0.2145 0.50569 0.0
H358 H 0.3813 0.2484 0.53865 0.0
H359 H 0.34098 0.2726 0.55557 0.0
Mn360 Mn 0.13455 0.01812 0.76593 0.0
Mn361 Mn 0.19279 0.98318 0.75717 0.0
C362 C 0.15236 0.99274 0.80122 0.0
C363 C 0.11349 0.0585 0.77772 0.0
C364 C 0.13675 0.96406 0.73566 0.0
O365 O 0.1496 0.03405 0.7312 0.0
O366 O 0.18962 0.01201 0.72927 0.0
C367 C 0.23218 0.02755 0.77153 0.0
N368 N 0.22257 1.00183 0.77538 0.0
C369 C 0.25677 0.99409 0.81018 0.0
C370 C 0.26728 0.02038 0.80631 0.0
C371 C 0.25485 0.03722 0.78698 0.0
C372 C 0.23415 0.98558 0.79416 0.0
H373 H 0.22253 0.04062 0.75687 0.0
C374 C 0.17251 0.02933 0.72024 0.0
O375 O 0.10075 0.04048 0.76262 0.0
O376 O 0.13856 0.05339 0.78504 0.0
N377 N 0.19928 0.95461 0.78243 0.0
C378 C 0.18616 0.9301 0.78425 0.0
C379 C 0.19588 0.91092 0.80283 0.0
C380 C 0.21909 0.91703 0.8192 0.0
C381 C 0.23249 0.94224 0.81672 0.0
C382 C 0.22207 0.96041 0.79761 0.0
H383 H 0.16823 0.92531 0.77187 0.0
O384 O 0.12695 1.00006 0.80114 0.0
O385 O 0.16692 1.00107 0.78096 0.0
O386 O 0.12296 0.98364 0.74503 0.0
O387 O 0.16283 0.96227 0.73862 0.0
C388 C 0.25552 0.9502 0.83276 0.0
C389 C 0.26758 0.97615 0.82957 0.0
H390 H 0.28471 0.02794 0.81825 0.0
H391 H 0.26269 0.05761 0.78404 0.0
H392 H 0.18538 0.89153 0.80465 0.0
H393 H 0.22632 0.90232 0.83375 0.0
H394 H 0.26391 0.93665 0.84784 0.0
H395 H 0.28507 0.98217 0.84224 0.0
Mn396 Mn 0.26287 0.88764 0.01196 0.0
Mn397 Mn 0.23619 0.83253 0.97955 0.0
C398 C 0.22169 0.86917 0.02556 0.0
C399 C 0.29115 0.90668 0.04573 0.0
C400 C 0.23305 0.88939 0.95678 0.0
O401 O 0.29531 0.87366 0.99139 0.0
O402 O 0.27628 0.83607 0.97239 0.0
C403 C 0.26538 0.79052 0.01077 0.0
N404 N 0.24143 0.80134 1.00164 0.0
C405 C 0.21478 0.76649 0.02338 0.0
C406 C 0.23917 0.75487 0.03285 0.0
C407 C 0.26458 0.76698 0.02657 0.0
C408 C 0.21687 0.78991 0.00765 0.0
H409 H 0.28495 0.79981 0.00606 0.0
C410 C 0.29681 0.85218 0.97714 0.0
O411 O 0.28412 0.92039 0.02441 0.0
O412 O 0.28249 0.88176 0.04697 0.0
N413 N 0.19773 0.82622 0.98468 0.0
C414 C 0.17608 0.84053 0.97486 0.0
C415 C 0.14917 0.83141 0.97984 0.0
C416 C 0.14479 0.80756 0.99462 0.0
C417 C 0.16738 0.79295 0.00415 0.0
C418 C 0.19373 0.80292 0.99842 0.0
H419 H 0.17929 0.85891 0.96357 0.0
O420 O 0.22839 0.89403 0.03157 0.0
O421 O 0.23951 0.85556 0.01199 0.0
O422 O 0.24528 0.90148 0.97662 0.0
O423 O 0.22911 0.86375 0.95573 0.0
C424 C 0.16479 0.76917 0.0196 0.0
C425 C 0.18847 0.75599 0.02925 0.0
H426 H 0.23864 0.73677 0.04512 0.0
H427 H 0.28349 0.7582 0.03391 0.0
H428 H 0.13185 0.84281 0.97241 0.0
H429 H 0.12401 0.80074 0.99866 0.0
H430 H 0.14468 0.76106 0.02448 0.0
H431 H 0.18621 0.73791 0.04138 0.0
Mn432 Mn 0.25459 0.38944 0.00902 0.0
Mn433 Mn 0.26547 0.33352 0.97152 0.0
C434 C 0.21973 0.37191 0.9814 0.0
C435 C 0.24129 0.40884 0.04979 0.0
C436 C 0.28704 0.38946 0.95668 0.0
O437 O 0.2893 0.37397 0.02628 0.0
O438 O 0.29277 0.33548 1.00206 0.0
C439 C 0.25029 0.29207 0.01188 0.0
N440 N 0.24658 0.30325 0.98698 0.0
C441 C 0.2107 0.27082 0.97543 0.0
C442 C 0.21428 0.25882 1.00088 0.0
C443 C 0.23413 0.26952 0.01919 0.0
C444 C 0.22753 0.29313 0.9692 0.0
H445 H 0.26541 0.30034 0.02608 0.0
C446 C 0.30086 0.35157 0.02116 0.0
O447 O 0.2568 0.42213 0.03315 0.0
O448 O 0.2344 0.38421 0.04308 0.0
N449 N 0.24044 0.32887 0.94141 0.0
C450 C 0.23873 0.34353 0.91817 0.0
C451 C 0.21945 0.33583 0.89792 0.0
C452 C 0.20226 0.31306 0.9017 0.0
C453 C 0.20463 0.29809 0.92564 0.0
C454 C 0.22443 0.30656 0.94497 0.0
H455 H 0.25185 0.36108 0.91516 0.0
O456 O 0.21918 0.39686 0.9896 0.0
O457 O 0.2405 0.35788 0.98992 0.0
O458 O 0.27622 0.40237 0.97608 0.0
O459 O 0.28503 0.36377 0.95374 0.0
C460 C 0.18774 0.27544 0.93131 0.0
C461 C 0.19074 0.26184 0.9562 0.0
H462 H 0.20173 0.24154 0.00667 0.0
H463 H 0.2369 0.26047 0.03893 0.0
H464 H 0.21774 0.34749 0.87951 0.0
H465 H 0.18719 0.30738 0.88618 0.0
H466 H 0.17212 0.26853 0.91682 0.0
H467 H 0.17738 0.24468 0.96048 0.0
Mn468 Mn 0.74681 0.13397 1.00169 0.0
Mn469 Mn 0.77759 0.08033 0.9736 0.0
C470 C 0.73373 0.11921 0.95885 0.0
C471 C 0.71217 0.15176 0.02819 0.0
C472 C 0.80373 0.13643 0.9756 0.0
O473 O 0.76529 0.11627 0.03421 0.0
O474 O 0.7853 0.08133 0.01338 0.0
C475 C 0.74375 0.03761 0.99935 0.0
N476 N 0.75336 0.04964 0.97658 0.0
C477 C 0.72798 0.01803 0.94804 0.0
C478 C 0.71797 0.00519 0.97119 0.0
C479 C 0.72586 0.01506 0.99695 0.0
C480 C 0.74581 0.04037 0.9517 0.0
H481 H 0.74963 0.0452 0.01919 0.0
C482 C 0.78001 0.09518 0.03458 0.0
O483 O 0.73499 0.16514 0.02438 0.0
O484 O 0.7099 0.1279 0.0173 0.0
N485 N 0.77184 0.07649 0.93533 0.0
C486 C 0.78313 0.09131 0.91505 0.0
C487 C 0.77723 0.08411 0.888 0.0
C488 C 0.75996 0.06168 0.88209 0.0
C489 C 0.74896 0.04647 0.9033 0.0
C490 C 0.75583 0.05441 0.92986 0.0
H491 H 0.79637 0.10861 0.91945 0.0
O492 O 0.72888 0.14379 0.96645 0.0
O493 O 0.74597 0.10401 0.9766 0.0
O494 O 0.78438 0.14776 0.98833 0.0
O495 O 0.80322 0.11136 0.96904 0.0
C496 C 0.73123 0.02391 0.89914 0.0
C497 C 0.72069 0.00974 0.92149 0.0
H498 H 0.70409 0.98785 0.96943 0.0
H499 H 0.71813 0.00534 0.01491 0.0
H500 H 0.78585 0.09592 0.87174 0.0
H501 H 0.7552 0.05638 0.8612 0.0
H502 H 0.72539 0.01741 0.87883 0.0
H503 H 0.7069 0.99255 0.91804 0.0
Mn504 Mn 0.132 0.50823 0.2488 0.0
Mn505 Mn 0.07495 0.51753 0.28532 0.0
C506 C 0.11497 0.47312 0.27482 0.0
C507 C 0.15164 0.49616 0.20783 0.0
C508 C 0.13169 0.53855 0.30293 0.0
O509 O 0.11666 0.54299 0.23318 0.0
O510 O 0.07732 0.5453 0.25621 0.0
C511 C 0.03413 0.50326 0.24214 0.0
N512 N 0.04453 0.49943 0.26759 0.0
C513 C 0.01039 0.46494 0.27646 0.0
C514 C 0.99908 0.46878 0.25047 0.0
C515 C 0.01108 0.48795 0.23321 0.0
C516 C 0.03335 0.48081 0.28425 0.0
H517 H 0.04344 0.51781 0.22874 0.0
C518 C 0.09392 0.55409 0.23833 0.0
O519 O 0.16508 0.51115 0.22546 0.0
O520 O 0.12669 0.48912 0.21369 0.0
N521 N 0.06921 0.49243 0.31417 0.0
C522 C 0.08312 0.49053 0.33828 0.0
C523 C 0.07396 0.47203 0.35776 0.0
C524 C 0.05045 0.45584 0.35239 0.0
C525 C 0.03624 0.45839 0.32761 0.0
C526 C 0.04618 0.47739 0.30908 0.0
H527 H 0.10128 0.50277 0.34248 0.0
O528 O 0.14008 0.47307 0.26663 0.0
O529 O 0.10014 0.49339 0.26687 0.0
O530 O 0.14482 0.52906 0.28297 0.0
O531 O 0.10565 0.53593 0.30533 0.0
C532 C 0.01288 0.44251 0.32038 0.0
C533 C 1.00002 0.44571 0.29479 0.0
H534 H 0.98135 0.45695 0.24348 0.0
H535 H 1.00262 0.49087 0.21304 0.0
H536 H 0.08509 0.47013 0.37681 0.0
H537 H 0.04364 0.44136 0.36734 0.0
H538 H 0.00483 0.42754 0.33423 0.0
H539 H 0.98226 0.43316 0.28934 0.0
Mn540 Mn 0.7555 0.89243 0.50651 0.0
Mn541 Mn 0.76395 0.83675 0.46778 0.0
C542 C 0.71974 0.87627 0.47923 0.0
C543 C 0.7435 0.91278 0.54723 0.0
C544 C 0.78566 0.89229 0.45244 0.0
O545 O 0.78957 0.87584 0.52341 0.0
O546 O 0.79351 0.8394 0.49636 0.0
C547 C 0.75238 0.79594 0.50994 0.0
N548 N 0.74676 0.80653 0.48509 0.0
C549 C 0.71113 0.77302 0.4764 0.0
C550 C 0.71667 0.76163 0.50182 0.0
C551 C 0.73735 0.77319 0.51868 0.0
C552 C 0.72685 0.79563 0.46874 0.0
H553 H 0.76818 0.8048 0.52302 0.0
C554 C 0.8017 0.85435 0.51634 0.0
O555 O 0.75948 0.9251 0.53032 0.0
O556 O 0.73529 0.88841 0.54083 0.0
N557 N 0.73699 0.83102 0.43947 0.0
C558 C 0.73343 0.84505 0.41603 0.0
C559 C 0.71325 0.83634 0.39707 0.0
C560 C 0.69705 0.81321 0.40231 0.0
C561 C 0.70128 0.79892 0.42643 0.0
C562 C 0.72191 0.8084 0.44444 0.0
H563 H 0.74562 0.86297 0.41199 0.0
O564 O 0.72041 0.90127 0.48737 0.0
O565 O 0.73996 0.86127 0.48743 0.0
O566 O 0.77767 0.90455 0.4736 0.0
O567 O 0.78146 0.86702 0.44809 0.0
C568 C 0.68545 0.77597 0.43356 0.0
C569 C 0.69033 0.76307 0.45855 0.0
H570 H 0.70504 0.74415 0.50869 0.0
H571 H 0.74166 0.7646 0.53838 0.0
H572 H 0.71005 0.84754 0.37854 0.0
H573 H 0.68126 0.80676 0.3878 0.0
H574 H 0.66924 0.76829 0.42012 0.0
H575 H 0.67783 0.74562 0.46394 0.0
Mn576 Mn 0.88359 0.02276 0.25208 0.0
Mn577 Mn 0.94037 0.01567 0.29167 0.0
C578 C 0.90042 0.05897 0.27734 0.0
C579 C 0.86368 0.03249 0.20995 0.0
C580 C 0.88399 0.99482 0.30747 0.0
O581 O 0.89991 0.98817 0.23783 0.0
O582 O 0.93799 0.9858 0.26428 0.0
C583 C 0.98167 0.0264 0.24971 0.0
N584 N 0.97078 0.03255 0.27409 0.0
C585 C 0.00404 0.06859 0.28156 0.0
C586 C 0.01573 0.06252 0.25662 0.0
C587 C 0.00445 0.04137 0.2406 0.0
C588 C 0.98139 0.05295 0.2896 0.0
H589 H 0.97301 0.01023 0.23728 0.0
C590 C 0.92215 0.97678 0.2451 0.0
O591 O 0.85045 0.01838 0.22777 0.0
O592 O 0.88846 0.04048 0.21645 0.0
N593 N 0.94582 0.04305 0.31891 0.0
C594 C 0.93174 0.04678 0.34214 0.0
C595 C 0.94028 0.06731 0.36034 0.0
C596 C 0.96329 0.08369 0.35458 0.0
C597 C 0.97768 0.07925 0.33074 0.0
C598 C 0.96837 0.0583 0.31348 0.0
H599 H 0.91393 0.03442 0.34658 0.0
O600 O 0.8751 0.0584 0.26868 0.0
O601 O 0.91531 0.03848 0.27064 0.0
O602 O 0.87111 1.00274 0.28623 0.0
O603 O 0.90982 0.99855 0.3115 0.0
C604 C 1.00065 0.09505 0.32321 0.0
C605 C 0.01377 0.08977 0.29861 0.0
H606 H 0.03325 0.07407 0.24948 0.0
H607 H 0.01328 0.03664 0.22127 0.0
H608 H 0.92904 0.07063 0.37869 0.0
H609 H 0.96963 0.0997 0.36852 0.0
H610 H 0.0082 0.11149 0.33607 0.0
H611 H 0.03125 0.10222 0.29292 0.0
Mn612 Mn 0.24927 0.63545 0.50355 0.0
Mn613 Mn 0.28025 0.58168 0.47582 0.0
C614 C 0.23528 0.61944 0.46136 0.0
C615 C 0.21531 0.6536 0.5305 0.0
C616 C 0.30553 0.63822 0.47635 0.0
O617 O 0.2691 0.61886 0.53602 0.0
O618 O 0.28832 0.58326 0.51547 0.0
C619 C 0.24727 0.53884 0.50241 0.0
N620 N 0.25652 0.55068 0.4794 0.0
C621 C 0.23148 0.51828 0.45149 0.0
C622 C 0.22184 0.50563 0.47489 0.0
C623 C 0.22974 0.51599 0.50045 0.0
C624 C 0.24895 0.54095 0.4547 0.0
H625 H 0.25316 0.54682 0.5221 0.0
C626 C 0.28361 0.5976 0.53649 0.0
O627 O 0.23757 0.66727 0.52519 0.0
O628 O 0.21312 0.62919 0.52087 0.0
N629 N 0.27414 0.57731 0.43765 0.0
C630 C 0.28496 0.59207 0.41707 0.0
C631 C 0.27894 0.58443 0.39016 0.0
C632 C 0.26206 0.56162 0.38469 0.0
C633 C 0.25158 0.54646 0.40619 0.0
C634 C 0.25853 0.55487 0.43259 0.0
H635 H 0.29792 0.60964 0.42114 0.0
O636 O 0.23006 0.64403 0.4686 0.0
O637 O 0.24828 0.60486 0.47912 0.0
O638 O 0.28602 0.64959 0.48874 0.0
O639 O 0.30547 0.61296 0.47062 0.0
C640 C 0.23426 0.52353 0.40247 0.0
C641 C 0.22415 0.50949 0.4251 0.0
H642 H 0.20824 0.48805 0.47347 0.0
H643 H 0.22228 0.50642 0.51861 0.0
H644 H 0.28718 0.59619 0.37368 0.0
H645 H 0.25723 0.55596 0.36391 0.0
H646 H 0.22837 0.51666 0.3823 0.0
H647 H 0.21064 0.49204 0.42199 0.0
Mn648 Mn 0.38172 0.51942 0.75432 0.0
Mn649 Mn 0.43901 0.51087 0.79269 0.0
C650 C 0.39919 0.55493 0.78014 0.0
C651 C 0.36192 0.53017 0.71239 0.0
C652 C 0.38267 0.48939 0.80829 0.0
O653 O 0.39755 0.48461 0.73946 0.0
O654 O 0.43728 0.48291 0.76353 0.0
C655 C 0.48035 0.52525 0.75185 0.0
N656 N 0.46912 0.52958 0.77646 0.0
C657 C 0.50117 0.56616 0.78627 0.0
C658 C 0.51322 0.56196 0.7611 0.0
C659 C 0.50272 0.54144 0.7438 0.0
C660 C 0.47898 0.54932 0.79322 0.0
H661 H 0.47225 0.50959 0.73844 0.0
C662 C 0.42061 0.47385 0.74509 0.0
O663 O 0.34844 0.516 0.73001 0.0
O664 O 0.38686 0.53751 0.71894 0.0
N665 N 0.44355 0.53654 0.82164 0.0
C666 C 0.4293 0.53826 0.84501 0.0
C667 C 0.43706 0.55792 0.86445 0.0
C668 C 0.45949 0.57545 0.85976 0.0
C669 C 0.47411 0.573 0.83576 0.0
C670 C 0.46562 0.55283 0.81726 0.0
H671 H 0.41206 0.52483 0.84875 0.0
O672 O 0.3739 0.55501 0.77143 0.0
O673 O 0.41366 0.53434 0.77293 0.0
O674 O 0.36912 0.4995 0.78847 0.0
O675 O 0.40878 0.49163 0.81112 0.0
C676 C 0.49658 0.59 0.82932 0.0
C677 C 0.51006 0.58662 0.80456 0.0
H678 H 0.5304 0.57447 0.75478 0.0
H679 H 0.51182 0.53817 0.7243 0.0
H680 H 0.42571 0.55963 0.88296 0.0
H681 H 0.46522 0.59078 0.87467 0.0
H682 H 0.5035 0.6059 0.84315 0.0
H683 H 0.52714 0.59997 0.79973 0.0
Mn684 Mn 0.63245 0.00722 0.74745 0.0
Mn685 Mn 0.57381 0.01419 0.78215 0.0
C686 C 0.61575 0.97143 0.77275 0.0
C687 C 0.65448 0.99636 0.70742 0.0
C688 C 0.62914 0.03702 0.80174 0.0
O689 O 0.61627 0.0414 0.73129 0.0
O690 O 0.5764 0.04244 0.75356 0.0
C691 C 0.53517 0.99931 0.73727 0.0
N692 N 0.54467 0.99543 0.76304 0.0
C693 C 0.51139 0.95966 0.77006 0.0
C694 C 0.50099 0.96354 0.74372 0.0
C695 C 0.51302 0.98338 0.72722 0.0
C696 C 0.53348 0.97617 0.77896 0.0
H697 H 0.54454 0.01434 0.72444 0.0
C698 C 0.59309 0.05181 0.73606 0.0
O699 O 0.66635 0.01182 0.72568 0.0
O700 O 0.62961 0.98805 0.71208 0.0
N701 N 0.56772 0.9885 0.81041 0.0
C702 C 0.58061 0.98682 0.83507 0.0
C703 C 0.57123 0.96778 0.85394 0.0
C704 C 0.54857 0.95083 0.84739 0.0
C705 C 0.53536 0.95321 0.82207 0.0
C706 C 0.54543 0.97278 0.8042 0.0
H707 H 0.59811 0.99966 0.84019 0.0
O708 O 0.6412 0.97235 0.76558 0.0
O709 O 0.60046 0.99114 0.76428 0.0
O710 O 0.64311 0.02838 0.78199 0.0
O711 O 0.60316 0.03325 0.80355 0.0
C712 C 0.51287 0.93665 0.81371 0.0
C713 C 0.50095 0.9398 0.78768 0.0
H714 H 0.48395 0.95125 0.73588 0.0
H715 H 0.50528 0.98634 0.70679 0.0
H716 H 0.58156 0.96606 0.87344 0.0
H717 H 0.54162 0.93594 0.86187 0.0
H718 H 0.50476 0.92121 0.82702 0.0
H719 H 0.48387 0.92675 0.78136 0.0
Mn720 Mn 0.7629 0.63313 0.01225 0.0
Mn721 Mn 0.789 0.68825 0.98106 0.0
C722 C 0.80517 0.65122 0.02619 0.0
C723 C 0.73613 0.61392 0.04608 0.0
C724 C 0.79059 0.63191 0.95684 0.0
O725 O 0.72931 0.64789 0.99222 0.0
O726 O 0.7491 0.68452 0.97331 0.0
C727 C 0.76018 0.72892 0.01357 0.0
N728 N 0.78401 0.71869 0.00425 0.0
C729 C 0.81103 0.75081 0.03059 0.0
C730 C 0.7868 0.76185 0.04031 0.0
C731 C 0.76126 0.7509 0.03168 0.0
C732 C 0.80867 0.72924 0.01218 0.0
H733 H 0.74051 0.72023 0.00741 0.0
C734 C 0.72824 0.66916 0.97771 0.0
O735 O 0.74181 0.60045 0.02433 0.0
O736 O 0.74521 0.63871 0.0477 0.0
N737 N 0.82745 0.69471 0.9867 0.0
C738 C 0.84888 0.68165 0.97548 0.0
C739 C 0.87586 0.69071 0.98131 0.0
C740 C 0.88047 0.71287 0.99879 0.0
C741 C 0.85803 0.726 0.00993 0.0
C742 C 0.83164 0.71685 1.00245 0.0
H743 H 0.84543 0.66442 0.96228 0.0
O744 O 0.79865 0.6263 0.03158 0.0
O745 O 0.78674 0.66481 0.01287 0.0
O746 O 0.77853 0.61977 0.97622 0.0
O747 O 0.79541 0.65744 0.95661 0.0
C748 C 0.86082 0.74698 0.0291 0.0
C749 C 0.83742 0.7596 0.03928 0.0
H750 H 0.78757 0.77851 0.05464 0.0
H751 H 0.74245 0.75916 0.03924 0.0
H752 H 0.89305 0.68042 0.97266 0.0
H753 H 0.90131 0.71947 1.00371 0.0
H754 H 0.88085 0.75243 0.03718 0.0
H755 H 0.83994 0.77556 0.05427 0.0
Mn756 Mn 0.88887 0.51608 0.74995 0.0
Mn757 Mn 0.83199 0.47699 0.75772 0.0
C758 C 0.8725 0.48985 0.71428 0.0
C759 C 0.90818 0.55819 0.73932 0.0
C760 C 0.88825 0.46215 0.78007 0.0
O761 O 0.87239 0.5308 0.78447 0.0
O762 O 0.83301 0.5062 0.78566 0.0
C763 C 0.79032 0.51736 0.74268 0.0
N764 N 0.80189 0.49284 0.73859 0.0
C765 C 0.77018 0.48246 0.70186 0.0
C766 C 0.7578 0.50752 0.7058 0.0
C767 C 0.76795 0.52507 0.72626 0.0
C768 C 0.79235 0.47586 0.7189 0.0
H769 H 0.79815 0.53095 0.75831 0.0
C770 C 0.84932 0.52482 0.79498 0.0
O771 O 0.92173 0.54084 0.75379 0.0
O772 O 0.88342 0.55129 0.73165 0.0
N773 N 0.82806 0.44789 0.73215 0.0
C774 C 0.8426 0.42465 0.73071 0.0
C775 C 0.83522 0.40501 0.71112 0.0
C776 C 0.81283 0.40934 0.6934 0.0
C777 C 0.79788 0.43319 0.69558 0.0
C778 C 0.80603 0.45192 0.71567 0.0
H779 H 0.8598 0.42118 0.7443 0.0
O780 O 0.89762 0.49902 0.71464 0.0
O781 O 0.85745 0.49692 0.73451 0.0
O782 O 0.9017 0.48213 0.77019 0.0
O783 O 0.86221 0.45896 0.77738 0.0
C784 C 0.77543 0.43928 0.67839 0.0
C785 C 0.76163 0.46392 0.68149 0.0
H786 H 0.7406 0.51358 0.69312 0.0
H787 H 0.75859 0.5445 0.72934 0.0
H788 H 0.84682 0.38662 0.70961 0.0
H789 H 0.80737 0.39427 0.67814 0.0
H790 H 0.76878 0.42527 0.66255 0.0
H791 H 0.74455 0.46849 0.66799 0.0
Mn792 Mn 0.7607 0.38827 0.51286 0.0
Mn793 Mn 0.73315 0.33396 0.47975 0.0
C794 C 0.71897 0.37063 0.52582 0.0
C795 C 0.78907 0.40609 0.54727 0.0
C796 C 0.73153 0.39107 0.4574 0.0
O797 O 0.79302 0.37374 0.4925 0.0
O798 O 0.77334 0.33675 0.47295 0.0
C799 C 0.76119 0.2912 0.51098 0.0
N800 N 0.73755 0.30253 0.5017 0.0
C801 C 0.71 0.2682 0.52318 0.0
C802 C 0.73406 0.25605 0.5328 0.0
C803 C 0.75976 0.26764 0.52671 0.0
C804 C 0.71271 0.2916 0.50751 0.0
H805 H 0.78098 0.3001 0.50644 0.0
C806 C 0.79415 0.35239 0.47801 0.0
O807 O 0.7827 0.42033 0.52608 0.0
O808 O 0.77965 0.3814 0.54798 0.0
N809 N 0.69453 0.32834 0.48447 0.0
C810 C 0.67327 0.34302 0.47437 0.0
C811 C 0.64614 0.33436 0.47899 0.0
C812 C 0.64114 0.31061 0.49375 0.0
C813 C 0.66334 0.29562 0.50359 0.0
C814 C 0.68993 0.3051 0.49812 0.0
H815 H 0.67696 0.36134 0.4631 0.0
O816 O 0.72615 0.39528 0.53216 0.0
O817 O 0.73661 0.35675 0.51232 0.0
O818 O 0.74386 0.40281 0.47742 0.0
O819 O 0.727 0.36551 0.45618 0.0
C820 C 0.66012 0.27191 0.51903 0.0
C821 C 0.68343 0.25825 0.52887 0.0
H822 H 0.73305 0.23794 0.54504 0.0
H823 H 0.77842 0.25845 0.53417 0.0
H824 H 0.62913 0.34604 0.47133 0.0
H825 H 0.62019 0.30417 0.49755 0.0
H826 H 0.63981 0.2642 0.52373 0.0
H827 H 0.68069 0.2402 0.54096 0.0
Mn828 Mn 0.63732 0.521 0.26551 0.0
Mn829 Mn 0.6942 0.48405 0.2564 0.0
C830 C 0.65476 0.49544 0.30069 0.0
C831 C 0.61655 0.5615 0.27735 0.0
C832 C 0.63767 0.46522 0.23735 0.0
O833 O 0.65263 0.53708 0.23104 0.0
O834 O 0.68901 0.51026 0.2263 0.0
C835 C 0.73406 0.52949 0.26459 0.0
N836 N 0.72475 0.5043 0.27137 0.0
C837 C 0.7607 0.49986 0.30509 0.0
C838 C 0.77078 0.52568 0.29835 0.0
C839 C 0.75735 0.54059 0.27806 0.0
C840 C 0.73737 0.4899 0.29102 0.0
H841 H 0.72377 0.54104 0.24905 0.0
C842 C 0.67342 0.52925 0.21809 0.0
O843 O 0.60375 0.5436 0.26217 0.0
O844 O 0.64156 0.55622 0.28476 0.0
N845 N 0.70263 0.45762 0.28337 0.0
C846 C 0.69048 0.43291 0.28727 0.0
C847 C 0.70156 0.41534 0.30672 0.0
C848 C 0.72522 0.42319 0.3217 0.0
C849 C 0.73776 0.44845 0.31689 0.0
C850 C 0.72594 0.46498 0.29705 0.0
H851 H 0.67229 0.42677 0.27586 0.0
O852 O 0.62942 0.503 0.30052 0.0
O853 O 0.66958 0.50349 0.28046 0.0
O854 O 0.62507 0.48652 0.24448 0.0
O855 O 0.66342 0.46191 0.24138 0.0
C856 C 0.76138 0.45796 0.33115 0.0
C857 C 0.77279 0.48369 0.32533 0.0
H858 H 0.78875 0.53431 0.30868 0.0
H859 H 0.76494 0.56057 0.27281 0.0
H860 H 0.6918 0.39585 0.31025 0.0
H861 H 0.73353 0.40972 0.33689 0.0
H862 H 0.77085 0.44571 0.34674 0.0
H863 H 0.79085 0.49086 0.33654 0.0
H864 H 0.13714 0.45269 0.32071 0.0
H865 H 0.06871 0.3603 0.4 0.0
H866 H 0.07098 0.43962 0.26274 0.0
H867 H 0.03801 0.32496 0.32493 0.0
H868 H 0.08689 0.39858 0.37501 0.0
H869 H 0.12055 0.4138 0.34652 0.0
C870 C 0.11884 0.44174 0.3137 0.0
C871 C 0.10449 0.45004 0.29048 0.0
C872 C 0.07665 0.38225 0.36389 0.0
C873 C 0.08536 0.40552 0.31968 0.0
C874 C 0.06591 0.36042 0.37821 0.0
C875 C 0.05199 0.33906 0.36459 0.0
C876 C 0.0737 0.38286 0.3356 0.0
C877 C 0.04879 0.34079 0.3363 0.0
C878 C 0.10924 0.41969 0.32849 0.0
C879 C 0.08172 0.4345 0.28136 0.0
N880 N 0.05953 0.36235 0.32273 0.0
N881 N 0.0727 0.41298 0.29609 0.0
H882 H 0.92196 0.82813 0.64453 0.0
H883 H 0.83801 0.81436 0.50431 0.0
H884 H 0.94995 0.78094 0.57705 0.0
H885 H 0.82124 0.87457 0.56508 0.0
H886 H 0.87745 0.79983 0.53155 0.0
H887 H 0.88329 0.84309 0.61669 0.0
C888 C 0.92 0.82082 0.62387 0.0
C889 C 0.93937 0.80318 0.61319 0.0
C890 C 0.86519 0.81628 0.53886 0.0
C891 C 0.89484 0.82033 0.58111 0.0
C892 C 0.84259 0.82459 0.52335 0.0
C893 C 0.82617 0.84578 0.53235 0.0
C894 C 0.87134 0.82902 0.56376 0.0
C895 C 0.83327 0.85822 0.55722 0.0
C896 C 0.8979 0.82949 0.60795 0.0
C897 C 0.93563 0.79457 0.58619 0.0
N898 N 0.85521 0.84958 0.57207 0.0
N899 N 0.91377 0.80314 0.57114 0.0
H900 H 0.38338 0.58072 0.82576 0.0
H901 H 0.48085 0.70985 0.80544 0.0
H902 H 0.44078 0.58594 0.76075 0.0
H903 H 0.45788 0.68243 0.88475 0.0
H904 H 0.45849 0.66925 0.78566 0.0
H905 H 0.40305 0.62307 0.84486 0.0
C906 C 0.40023 0.59081 0.81567 0.0
C907 C 0.4113 0.57958 0.79236 0.0
C908 C 0.45825 0.67229 0.80736 0.0
C909 C 0.43291 0.62814 0.81316 0.0
C910 C 0.47079 0.69547 0.81863 0.0
C911 C 0.47119 0.69942 0.84675 0.0
C912 C 0.44555 0.65331 0.82431 0.0
C913 C 0.45808 0.68007 0.86297 0.0
C914 C 0.41136 0.61485 0.82647 0.0
C915 C 0.43244 0.59366 0.77934 0.0
N916 N 0.44566 0.65785 0.8515 0.0
N917 N 0.44263 0.6173 0.78993 0.0
H918 H 0.60822 0.2416 0.13575 0.0
H919 H 0.65854 0.13473 0.02717 0.0
H920 H 0.55376 0.207 0.07435 0.0
H921 H 0.71301 0.19567 0.06253 0.0
H922 H 0.61994 0.15543 0.04991 0.0
H923 H 0.64687 0.21927 0.11466 0.0
C924 C 0.60435 0.22912 0.11795 0.0
C925 C 0.57772 0.22616 0.10675 0.0
C926 C 0.64035 0.16421 0.05272 0.0
C927 C 0.62185 0.20045 0.0827 0.0
C928 C 0.66243 0.15235 0.03989 0.0
C929 C 0.68905 0.16353 0.04295 0.0
C930 C 0.64496 0.18714 0.06914 0.0
C931 C 0.69282 0.18646 0.05956 0.0
C932 C 0.62645 0.21653 0.10587 0.0
C933 C 0.57396 0.20988 0.08359 0.0
N934 N 0.67103 0.19745 0.07216 0.0
N935 N 0.59577 0.19751 0.07239 0.0
H936 H 0.12723 0.59659 0.22372 0.0
H937 H 0.01783 0.67135 0.13293 0.0
H938 H 0.04313 0.56768 0.21913 0.0
H939 H 0.06848 0.71821 0.18913 0.0
H940 H 0.03444 0.62972 0.15404 0.0
H941 H 0.1132 0.63851 0.20082 0.0
C942 C 0.10592 0.59895 0.21761 0.0
C943 C 0.08628 0.5787 0.22327 0.0
C944 C 0.04203 0.64916 0.16154 0.0
C945 C 0.07041 0.62597 0.1968 0.0
C946 C 0.03273 0.67286 0.14948 0.0
C947 C 0.04178 0.69822 0.15939 0.0
C948 C 0.06113 0.65081 0.18311 0.0
C949 C 0.06092 0.69902 0.18102 0.0
C950 C 0.09797 0.62283 0.20477 0.0
C951 C 0.05889 0.58282 0.21518 0.0
N952 N 0.07019 0.6756 0.19208 0.0
N953 N 0.05179 0.60587 0.20208 0.0
H954 H 0.5748 0.83504 0.37714 0.0
H955 H 0.69265 0.89631 0.43538 0.0
H956 H 0.58086 0.77716 0.44167 0.0
H957 H 0.68886 0.83275 0.49449 0.0
H958 H 0.65098 0.87813 0.41366 0.0
H959 H 0.616 0.85815 0.39461 0.0
C960 C 0.58486 0.82745 0.39525 0.0
C961 C 0.5739 0.80504 0.40877 0.0
C962 C 0.65906 0.86774 0.43114 0.0
C963 C 0.6216 0.83098 0.42902 0.0
C964 C 0.68297 0.87829 0.44356 0.0
C965 C 0.69471 0.86521 0.46587 0.0
C966 C 0.64652 0.84413 0.44153 0.0
C967 C 0.681 0.84263 0.47651 0.0
C968 C 0.60851 0.84066 0.40539 0.0
C969 C 0.5881 0.79519 0.43145 0.0
N970 N 0.65776 0.83267 0.46411 0.0
N971 N 0.6111 0.80834 0.44098 0.0
H972 H 0.49605 0.32643 0.68786 0.0
H973 H 0.39823 0.45437 0.69726 0.0
H974 H 0.44998 0.35825 0.61991 0.0
H975 H 0.46202 0.43856 0.75676 0.0
H976 H 0.41325 0.41558 0.67094 0.0
H977 H 0.48039 0.3642 0.71566 0.0
C978 C 0.48268 0.34127 0.67877 0.0
C979 C 0.47441 0.33909 0.65144 0.0
C980 C 0.42395 0.4206 0.68978 0.0
C981 C 0.45622 0.38212 0.68319 0.0
C982 C 0.4153 0.4427 0.70488 0.0
C983 C 0.42891 0.44986 0.72925 0.0
C984 C 0.4462 0.40531 0.69918 0.0
C985 C 0.451 0.43393 0.73802 0.0
C986 C 0.47379 0.36283 0.69463 0.0
C987 C 0.45704 0.35901 0.6408 0.0
N988 N 0.45891 0.41239 0.72304 0.0
N989 N 0.44847 0.37954 0.65669 0.0
H990 H 0.93108 0.26046 0.96025 0.0
H991 H 0.84474 0.12229 0.94134 0.0
H992 H 0.94676 0.20198 0.8975 0.0
H993 H 0.81792 0.1887 0.99073 0.0
H994 H 0.88392 0.14992 0.92738 0.0
H995 H 0.89136 0.23325 0.97378 0.0
C996 C 0.92622 0.2419 0.94928 0.0
C997 C 0.94242 0.23355 0.92765 0.0
C998 C 0.86946 0.15847 0.94124 0.0
C999 C 0.89682 0.20217 0.94326 0.0
C1000 C 0.84706 0.14266 0.94935 0.0
C1001 C 0.82786 0.15312 0.96733 0.0
C1002 C 0.873 0.18493 0.95131 0.0
C1003 C 0.83209 0.17975 0.97684 0.0
C1004 C 0.90344 0.22641 0.95701 0.0
C1005 C 0.93491 0.20931 0.91422 0.0
N1006 N 0.85423 0.19468 0.9688 0.0
N1007 N 0.91276 0.19444 0.92232 0.0
H1008 H 0.32173 0.14596 0.4176 0.0
H1009 H 0.3044 0.01015 0.33019 0.0
H1010 H 0.27265 0.07767 0.44401 0.0
H1011 H 0.36644 0.07187 0.31624 0.0
H1012 H 0.29022 0.03514 0.3703 0.0
H1013 H 0.33585 0.11974 0.37882 0.0
C1014 C 0.31386 0.12542 0.41532 0.0
C1015 C 0.2959 0.11408 0.43428 0.0
C1016 C 0.30697 0.04312 0.35847 0.0
C1017 C 0.31211 0.08378 0.3894 0.0
C1018 C 0.31506 0.02892 0.3355 0.0
C1019 C 0.33669 0.03888 0.3197 0.0
C1020 C 0.3204 0.06761 0.36558 0.0
C1021 C 0.34972 0.0633 0.32772 0.0
C1022 C 0.32205 0.1104 0.39309 0.0
C1023 C 0.28655 0.08727 0.43002 0.0
N1024 N 0.34131 0.07682 0.34997 0.0
N1025 N 0.29468 0.07306 0.40796 0.0
H1026 H 0.22237 0.0509 0.70752 0.0
H1027 H 0.19716 0.07277 0.5528 0.0
H1028 H 0.13948 0.04042 0.67631 0.0
H1029 H 0.24253 0.13243 0.60057 0.0
H1030 H 0.17966 0.05291 0.59503 0.0
H1031 H 0.23501 0.07326 0.66527 0.0
C1032 C 0.20683 0.05341 0.69179 0.0
C1033 C 0.1798 0.04409 0.69543 0.0
C1034 C 0.19325 0.07051 0.59603 0.0
C1035 C 0.19433 0.06873 0.6469 0.0
C1036 C 0.20327 0.08175 0.57208 0.0
C1037 C 0.22124 0.10429 0.57324 0.0
C1038 C 0.20206 0.08143 0.62109 0.0
C1039 C 0.22859 0.11516 0.59873 0.0
C1040 C 0.21404 0.06614 0.66777 0.0
C1041 C 0.16046 0.04767 0.67433 0.0
N1042 N 0.21934 0.10338 0.62164 0.0
N1043 N 0.16818 0.05942 0.6507 0.0
H1044 H 0.13336 0.94584 0.82264 0.0
H1045 H 0.24335 0.94314 0.94517 0.0
H1046 H 0.19555 0.00816 0.83419 0.0
H1047 H 0.19686 0.87298 0.91663 0.0
H1048 H 0.22313 0.96954 0.90811 0.0
H1049 H 0.15256 0.92148 0.86153 0.0
C1050 C 0.15115 0.95428 0.83343 0.0
C1051 C 0.16375 0.97827 0.82468 0.0
C1052 C 0.21742 0.94836 0.91006 0.0
C1053 C 0.18537 0.95112 0.86945 0.0
C1054 C 0.22891 0.93327 0.9312 0.0
C1055 C 0.2218 0.90575 0.93414 0.0
C1056 C 0.19835 0.93595 0.89201 0.0
C1057 C 0.20304 0.89408 0.91528 0.0
C1058 C 0.16211 0.94044 0.85555 0.0
C1059 C 0.18607 0.98905 0.83979 0.0
N1060 N 0.19191 0.90925 0.89519 0.0
N1061 N 0.19635 0.9753 0.86142 0.0
H1062 H 0.31975 0.88147 0.08611 0.0
H1063 H 0.32944 0.00884 0.18257 0.0
H1064 H 0.29655 0.96053 0.058 0.0
H1065 H 0.38895 0.94564 0.18834 0.0
H1066 H 0.31257 0.98956 0.13931 0.0
H1067 H 0.34111 0.90255 0.12651 0.0
C1068 C 0.31941 0.90328 0.08832 0.0
C1069 C 0.30646 0.91933 0.0687 0.0
C1070 C 0.32936 0.97997 0.15003 0.0
C1071 C 0.33032 0.94337 0.11491 0.0
C1072 C 0.33873 0.99074 0.17473 0.0
C1073 C 0.35987 0.97812 0.18923 0.0
C1074 C 0.34115 0.95634 0.14 0.0
C1075 C 0.3721 0.95542 0.17792 0.0
C1076 C 0.33162 0.91525 0.1113 0.0
C1077 C 0.3065 0.94747 0.07258 0.0
N1078 N 0.36221 0.94487 0.15413 0.0
N1079 N 0.31794 0.9586 0.09545 0.0
H1080 H 0.31911 0.37305 0.06997 0.0
H1081 H 0.44983 0.27776 0.08184 0.0
H1082 H 0.33714 0.31115 0.01134 0.0
H1083 H 0.41982 0.32384 0.14916 0.0
H1084 H 0.41065 0.2925 0.05437 0.0
H1085 H 0.35813 0.35821 0.09785 0.0
C1086 C 0.33128 0.35642 0.06288 0.0
C1087 C 0.32474 0.34334 0.03822 0.0
C1088 C 0.4126 0.29931 0.07519 0.0
C1089 C 0.36949 0.32631 0.07005 0.0
C1090 C 0.43501 0.29092 0.09091 0.0
C1091 C 0.43823 0.29952 0.11793 0.0
C1092 C 0.39332 0.3167 0.0864 0.0
C1093 C 0.41824 0.31659 0.12849 0.0
C1094 C 0.35349 0.34789 0.07888 0.0
C1095 C 0.34126 0.32182 0.0302 0.0
N1096 N 0.39676 0.32471 0.11267 0.0
N1097 N 0.36287 0.31407 0.046 0.0
H1098 H 0.99739 0.828 0.18972 0.0
H1099 H 0.90023 0.95647 0.19756 0.0
H1100 H 0.95204 0.86035 0.12155 0.0
H1101 H 0.96326 0.94127 0.25805 0.0
H1102 H 0.91526 0.91732 0.17207 0.0
H1103 H 0.98177 0.86589 0.21753 0.0
C1104 C 0.98419 0.84297 0.18059 0.0
C1105 C 0.9761 0.84091 0.15319 0.0
C1106 C 0.9258 0.92252 0.19094 0.0
C1107 C 0.95799 0.88401 0.18491 0.0
C1108 C 0.91715 0.94485 0.2056 0.0
C1109 C 0.93053 0.95233 0.23001 0.0
C1110 C 0.94789 0.90727 0.20075 0.0
C1111 C 0.9524 0.93639 0.23928 0.0
C1112 C 0.97533 0.86458 0.19646 0.0
C1113 C 0.95896 0.86098 0.14249 0.0
N1114 N 0.96039 0.91458 0.22466 0.0
N1115 N 0.95044 0.88151 0.15836 0.0
H1116 H 0.1796 0.62889 0.56493 0.0
H1117 H 0.06867 0.74119 0.56154 0.0
H1118 H 0.19861 0.70586 0.52832 0.0
H1119 H 0.0897 0.70594 0.63871 0.0
H1120 H 0.10923 0.72019 0.54208 0.0
H1121 H 0.13956 0.64922 0.5863 0.0
C1122 C 0.17539 0.65006 0.56153 0.0
C1123 C 0.19245 0.66584 0.54507 0.0
C1124 C 0.10475 0.71697 0.56321 0.0
C1125 C 0.1465 0.68867 0.56843 0.0
C1126 C 0.08159 0.7287 0.57425 0.0
C1127 C 0.07592 0.72522 0.60173 0.0
C1128 C 0.12176 0.70102 0.57958 0.0
C1129 C 0.09348 0.70911 0.61743 0.0
C1130 C 0.15267 0.66157 0.57368 0.0
C1131 C 0.1861 0.69314 0.54114 0.0
N1132 N 0.11553 0.69732 0.60607 0.0
N1133 N 0.16334 0.70362 0.55239 0.0
H1134 H 0.93754 0.72556 0.6974 0.0
H1135 H 0.96272 0.57158 0.73379 0.0
H1136 H 0.00611 0.68292 0.66496 0.0
H1137 H 0.88139 0.60388 0.72482 0.0
H1138 H 0.9819 0.61428 0.71613 0.0
H1139 H 0.91924 0.68279 0.71487 0.0
C1140 C 0.94872 0.70716 0.69392 0.0
C1141 C 0.97331 0.70774 0.67961 0.0
C1142 C 0.95988 0.61193 0.71813 0.0
C1143 C 0.95276 0.65888 0.70005 0.0
C1144 C 0.94897 0.58775 0.72839 0.0
C1145 C 0.92045 0.58427 0.73075 0.0
C1146 C 0.94215 0.63289 0.71084 0.0
C1147 C 0.90349 0.60572 0.72324 0.0
C1148 C 0.93824 0.6828 0.70385 0.0
C1149 C 0.98694 0.68328 0.67567 0.0
N1150 N 0.9146 0.62918 0.71379 0.0
N1151 N 0.97662 0.65981 0.68609 0.0
H1152 H 0.22064 0.2045 0.4367 0.0
H1153 H 0.05733 0.21287 0.44233 0.0
H1154 H 0.17308 0.15606 0.49197 0.0
H1155 H 0.10659 0.24938 0.38046 0.0
H1156 H 0.09873 0.19193 0.46162 0.0
H1157 H 0.17853 0.22147 0.41689 0.0
C1158 C 0.20128 0.19732 0.44469 0.0
C1159 C 0.20047 0.17883 0.46617 0.0
C1160 C 0.10048 0.20453 0.44385 0.0
C1161 C 0.15177 0.19839 0.44328 0.0
C1162 C 0.077 0.21666 0.43307 0.0
C1163 C 0.07904 0.23368 0.41057 0.0
C1164 C 0.12597 0.20941 0.4318 0.0
C1165 C 0.10449 0.23699 0.39835 0.0
C1166 C 0.17716 0.20702 0.43323 0.0
C1167 C 0.17467 0.17022 0.4754 0.0
N1168 N 0.12704 0.22526 0.40933 0.0
N1169 N 0.15126 0.18023 0.464 0.0
H1170 H 0.65249 0.41242 0.23287 0.0
H1171 H 0.52965 0.36292 0.13618 0.0
H1172 H 0.58692 0.46651 0.21161 0.0
H1173 H 0.56959 0.31029 0.19332 0.0
H1174 H 0.55475 0.40191 0.15689 0.0
H1175 H 0.62649 0.37522 0.21169 0.0
C1176 C 0.63262 0.41655 0.22376 0.0
C1177 C 0.62183 0.4427 0.22422 0.0
C1178 C 0.55784 0.38181 0.1649 0.0
C1179 C 0.59217 0.40004 0.19942 0.0
C1180 C 0.54365 0.3597 0.15312 0.0
C1181 C 0.54709 0.33373 0.16374 0.0
C1182 C 0.57625 0.3775 0.18663 0.0
C1183 C 0.5659 0.33023 0.18515 0.0
C1184 C 0.61778 0.39523 0.21171 0.0
C1185 C 0.59595 0.44667 0.21189 0.0
N1186 N 0.57984 0.35188 0.1959 0.0
N1187 N 0.58203 0.42556 0.19978 0.0
H1188 H 0.34729 0.8754 0.98914 0.0
H1189 H 0.4295 0.77756 0.89142 0.0
H1190 H 0.3082 0.81235 0.94035 0.0
H1191 H 0.46857 0.8274 0.95365 0.0
H1192 H 0.38485 0.79385 0.90531 0.0
H1193 H 0.39183 0.86178 0.97244 0.0
C1194 C 0.348 0.8588 0.9748 0.0
C1195 C 0.32387 0.84496 0.96623 0.0
C1196 C 0.40322 0.80125 0.91586 0.0
C1197 C 0.37493 0.82928 0.94703 0.0
C1198 C 0.42876 0.79203 0.90789 0.0
C1199 C 0.45292 0.80103 0.92142 0.0
C1200 C 0.40176 0.81978 0.93739 0.0
C1201 C 0.45055 0.81977 0.94269 0.0
C1202 C 0.37348 0.85098 0.96535 0.0
C1203 C 0.3262 0.82355 0.94765 0.0
N1204 N 0.42546 0.82851 0.94999 0.0
N1205 N 0.35126 0.81638 0.93869 0.0
H1206 H 0.94137 0.44576 0.77368 0.0
H1207 H 0.94072 0.34517 0.89858 0.0
H1208 H 0.86904 0.43031 0.82063 0.0
H1209 H 0.99133 0.3307 0.82955 0.0
H1210 H 0.91831 0.38169 0.87385 0.0
H1211 H 0.96447 0.40883 0.79777 0.0
C1212 C 0.93047 0.43478 0.78919 0.0
C1213 C 0.90326 0.44109 0.79519 0.0
C1214 C 0.93425 0.37044 0.86409 0.0
C1215 C 0.92951 0.3992 0.82276 0.0
C1216 C 0.94707 0.34965 0.87818 0.0
C1217 C 0.96781 0.33479 0.86603 0.0
C1218 C 0.94262 0.3769 0.83787 0.0
C1219 C 0.97523 0.34149 0.83953 0.0
C1220 C 0.94356 0.41363 0.80272 0.0
C1221 C 0.88998 0.42606 0.81529 0.0
N1222 N 0.96281 0.36226 0.82638 0.0
N1223 N 0.90329 0.40596 0.82847 0.0
H1224 H 0.35742 0.13622 0.52444 0.0
H1225 H 0.41041 0.25007 0.62955 0.0
H1226 H 0.30218 0.1904 0.56335 0.0
H1227 H 0.45909 0.22246 0.56344 0.0
H1228 H 0.37134 0.2227 0.6118 0.0
H1229 H 0.3965 0.16035 0.54676 0.0
C1230 C 0.35362 0.1531 0.53782 0.0
C1231 C 0.32689 0.16231 0.54118 0.0
C1232 C 0.39053 0.22278 0.60111 0.0
C1233 C 0.37093 0.18923 0.56724 0.0
C1234 C 0.41264 0.23859 0.61102 0.0
C1235 C 0.43769 0.23889 0.59757 0.0
C1236 C 0.39388 0.20644 0.57815 0.0
C1237 C 0.43986 0.22325 0.57399 0.0
C1238 C 0.37579 0.16678 0.55054 0.0
C1239 C 0.32272 0.18352 0.55946 0.0
N1240 N 0.4183 0.20741 0.56515 0.0
N1241 N 0.34454 0.19643 0.57171 0.0
H1242 H 0.56808 0.68968 0.38272 0.0
H1243 H 0.56613 0.5817 0.26231 0.0
H1244 H 0.51361 0.69786 0.31337 0.0
H1245 H 0.63567 0.59663 0.3162 0.0
H1246 H 0.54318 0.62068 0.28246 0.0
H1247 H 0.58909 0.65118 0.36097 0.0
C1248 C 0.56037 0.68327 0.36296 0.0
C1249 C 0.53907 0.6971 0.34982 0.0
C1250 C 0.56352 0.61543 0.28968 0.0
C1251 C 0.56323 0.65285 0.32469 0.0
C1252 C 0.57662 0.59324 0.27823 0.0
C1253 C 0.60286 0.5859 0.2876 0.0
C1254 C 0.57662 0.62999 0.31091 0.0
C1255 C 0.61549 0.60153 0.30828 0.0
C1256 C 0.57253 0.66134 0.35047 0.0
C1257 C 0.53003 0.68781 0.32418 0.0
N1258 N 0.60219 0.62263 0.31934 0.0
N1259 N 0.54213 0.66617 0.31242 0.0
H1260 H 0.05575 0.84268 0.07351 0.0
H1261 H 0.21722 0.82368 0.05659 0.0
H1262 H 0.09783 0.77385 0.10669 0.0
H1263 H 0.17058 0.88907 0.02291 0.0
H1264 H 0.17519 0.80562 0.07742 0.0
H1265 H 0.09898 0.86076 0.05768 0.0
C1266 C 0.07421 0.83136 0.07757 0.0
C1267 C 0.07311 0.80655 0.09123 0.0
C1268 C 0.17415 0.82384 0.06539 0.0
C1269 C 0.12315 0.82728 0.07287 0.0
C1270 C 0.19797 0.83393 0.05331 0.0
C1271 C 0.19683 0.85714 0.03715 0.0
C1272 C 0.14932 0.83746 0.06152 0.0
C1273 C 0.17198 0.87064 0.0346 0.0
C1274 C 0.09899 0.84175 0.06849 0.0
C1275 C 0.0978 0.79306 0.09623 0.0
N1276 N 0.14917 0.86045 0.04641 0.0
N1277 N 0.12191 0.8035 0.08681 0.0
H1278 H 0.75869 0.96271 0.56798 0.0
H1279 H 0.70586 0.01159 0.6902 0.0
H1280 H 0.70481 0.89406 0.58197 0.0
H1281 H 0.63657 0.95908 0.66993 0.0
H1282 H 0.73043 0.99294 0.6518 0.0
H1283 H 0.73891 0.98579 0.60676 0.0
C1284 C 0.74296 0.95236 0.57943 0.0
C1285 C 0.73347 0.92636 0.57178 0.0
C1286 C 0.70968 0.98586 0.65543 0.0
C1287 C 0.71083 0.95254 0.61626 0.0
C1288 C 0.69569 0.9964 0.67747 0.0
C1289 C 0.66907 0.98698 0.68322 0.0
C1290 C 0.69695 0.96563 0.63917 0.0
C1291 C 0.65699 0.96708 0.66621 0.0
C1292 C 0.73178 0.96549 0.60169 0.0
C1293 C 0.71288 0.91401 0.58718 0.0
N1294 N 0.67109 0.95695 0.64515 0.0
N1295 N 0.70212 0.9273 0.60849 0.0
H1296 H 0.83555 0.96584 0.30187 0.0
H1297 H 0.81439 0.94035 0.45847 0.0
H1298 H 0.89699 0.99097 0.36148 0.0
H1299 H 0.78961 0.8805 0.39846 0.0
H1300 H 0.83782 0.96617 0.4231 0.0
H1301 H 0.81101 0.94122 0.33736 0.0
C1302 C 0.84375 0.9664 0.32241 0.0
C1303 C 0.86837 0.98052 0.32869 0.0
C1304 C 0.82715 0.9474 0.4178 0.0
C1305 C 0.84022 0.95285 0.36925 0.0
C1306 C 0.81373 0.93271 0.43789 0.0
C1307 C 0.79999 0.90821 0.43145 0.0
C1308 C 0.8262 0.93787 0.391 0.0
C1309 C 0.79993 0.89924 0.40441 0.0
C1310 C 0.82983 0.95227 0.34255 0.0
C1311 C 0.87812 0.98038 0.35566 0.0
N1312 N 0.81261 0.91418 0.38513 0.0
N1313 N 0.86391 0.96695 0.37499 0.0
H1314 H 0.75961 0.10218 0.08549 0.0
H1315 H 0.88983 0.04521 0.1634 0.0
H1316 H 0.82702 0.06702 0.04322 0.0
H1317 H 0.809 0.03753 0.19697 0.0
H1318 H 0.86902 0.06007 0.12059 0.0
H1319 H 0.77932 0.0856 0.12837 0.0
C1320 C 0.77859 0.09111 0.08525 0.0
C1321 C 0.7917 0.08594 0.06077 0.0
C1322 C 0.85586 0.05501 0.1373 0.0
C1323 C 0.81436 0.0673 0.10957 0.0
C1324 C 0.86769 0.04659 0.16171 0.0
C1325 C 0.85107 0.04005 0.18368 0.0
C1326 C 0.82726 0.05756 0.13503 0.0
C1327 C 0.82249 0.04219 0.18042 0.0
C1328 C 0.78968 0.08153 0.10964 0.0
C1329 C 0.81616 0.07134 0.0616 0.0
N1330 N 0.81146 0.05107 0.1566 0.0
N1331 N 0.82683 0.06275 0.08561 0.0
H1332 H 0.61147 0.045 0.85337 0.0
H1333 H 0.7367 0.13624 0.90646 0.0
H1334 H 0.6805 0.0612 0.80198 0.0
H1335 H 0.69662 0.07785 0.95755 0.0
H1336 H 0.71096 0.11714 0.86708 0.0
H1337 H 0.63721 0.06551 0.89135 0.0
C1338 C 0.63197 0.05295 0.84997 0.0
C1339 C 0.64393 0.05107 0.82443 0.0
C1340 C 0.70796 0.10853 0.88694 0.0
C1341 C 0.67316 0.07512 0.86779 0.0
C1342 C 0.72253 0.11936 0.90926 0.0
C1343 C 0.71928 0.10791 0.93489 0.0
C1344 C 0.68923 0.08698 0.8907 0.0
C1345 C 0.70019 0.08662 0.93785 0.0
C1346 C 0.64663 0.06459 0.8717 0.0
C1347 C 0.67056 0.062 0.82134 0.0
N1348 N 0.68578 0.07685 0.91601 0.0
N1349 N 0.68426 0.07372 0.84276 0.0
H1350 H 0.60768 0.74787 0.87712 0.0
H1351 H 0.67539 0.65481 0.99211 0.0
H1352 H 0.56049 0.71178 0.94075 0.0
H1353 H 0.72101 0.70243 0.93467 0.0
H1354 H 0.63247 0.67179 0.97193 0.0
H1355 H 0.64908 0.72742 0.89608 0.0
C1356 C 0.60621 0.73575 0.89527 0.0
C1357 C 0.58113 0.73236 0.90816 0.0
C1358 C 0.65194 0.67835 0.96375 0.0
C1359 C 0.62802 0.70824 0.92961 0.0
C1360 C 0.67638 0.66858 0.97515 0.0
C1361 C 0.70183 0.67729 0.96515 0.0
C1362 C 0.65308 0.69662 0.94204 0.0
C1363 C 0.70193 0.6953 0.94325 0.0
C1364 C 0.62975 0.72403 0.90608 0.0
C1365 C 0.57986 0.7157 0.931 0.0
N1366 N 0.67801 0.70431 0.9325 0.0
N1367 N 0.60309 0.70434 0.94119 0.0
H1368 H 0.06315 0.07895 0.76254 0.0
H1369 H 0.0649 0.1861 0.88362 0.0
H1370 H 0.13248 0.0933 0.81685 0.0
H1371 H 0.01236 0.1964 0.81318 0.0
H1372 H 0.08537 0.14724 0.86196 0.0
H1373 H 0.04033 0.11803 0.78272 0.0
C1374 C 0.07361 0.09036 0.77856 0.0
C1375 C 0.09977 0.08285 0.78802 0.0
C1376 C 0.06933 0.15794 0.85121 0.0
C1377 C 0.07368 0.12702 0.81137 0.0
C1378 C 0.05748 0.18007 0.86364 0.0
C1379 C 0.03692 0.19461 0.85016 0.0
C1380 C 0.06044 0.14996 0.82514 0.0
C1381 C 0.02823 0.18579 0.82424 0.0
C1382 C 0.0606 0.11261 0.79002 0.0
C1383 C 0.11237 0.09833 0.80884 0.0
N1384 N 0.04001 0.16395 0.81254 0.0
N1385 N 0.09914 0.11946 0.81991 0.0
H1386 H 0.96766 0.32875 0.45711 0.0
H1387 H 0.80481 0.31292 0.4406 0.0
H1388 H 0.92799 0.28028 0.39417 0.0
H1389 H 0.84504 0.37433 0.49061 0.0
H1390 H 0.84962 0.29956 0.42432 0.0
H1391 H 0.92281 0.34451 0.47065 0.0
C1392 C 0.94954 0.32144 0.44606 0.0
C1393 C 0.95167 0.30308 0.42447 0.0
C1394 C 0.8486 0.31605 0.43874 0.0
C1395 C 0.90011 0.32102 0.44004 0.0
C1396 C 0.82302 0.32367 0.44812 0.0
C1397 C 0.82108 0.34478 0.46709 0.0
C1398 C 0.8725 0.32941 0.44857 0.0
C1399 C 0.84545 0.35798 0.47598 0.0
C1400 C 0.92392 0.33053 0.45379 0.0
C1401 C 0.9274 0.29446 0.41089 0.0
N1402 N 0.87012 0.34996 0.46678 0.0
N1403 N 0.90262 0.30337 0.41902 0.0
H1404 H 0.6358 0.95102 0.8197 0.0
H1405 H 0.53112 0.82421 0.82298 0.0
H1406 H 0.57368 0.93688 0.75775 0.0
H1407 H 0.57797 0.85362 0.89257 0.0
H1408 H 0.54927 0.86227 0.79665 0.0
H1409 H 0.61849 0.91145 0.84422 0.0
C1410 C 0.61841 0.93953 0.81139 0.0
C1411 C 0.60529 0.94771 0.78743 0.0
C1412 C 0.55553 0.8603 0.81768 0.0
C1413 C 0.58583 0.90213 0.81478 0.0
C1414 C 0.54522 0.83858 0.83273 0.0
C1415 C 0.55303 0.83559 0.86007 0.0
C1416 C 0.5741 0.87893 0.82994 0.0
C1417 C 0.57129 0.85498 0.87161 0.0
C1418 C 0.60852 0.91701 0.82532 0.0
C1419 C 0.58352 0.93172 0.77683 0.0
N1420 N 0.58126 0.87567 0.85647 0.0
N1421 N 0.5743 0.9097 0.79067 0.0
H1422 H 0.95572 0.186 0.38556 0.0
H1423 H 0.94271 0.08945 0.25836 0.0
H1424 H 0.97968 0.21351 0.3066 0.0
H1425 H 0.88307 0.08629 0.32148 0.0
H1426 H 0.96123 0.13219 0.27752 0.0
H1427 H 0.93335 0.14616 0.36446 0.0
C1428 C 0.95606 0.18375 0.36376 0.0
C1429 C 0.96946 0.20308 0.34775 0.0
C1430 C 0.94406 0.12215 0.28712 0.0
C1431 C 0.94442 0.15746 0.32367 0.0
C1432 C 0.93375 0.09773 0.27641 0.0
C1433 C 0.91208 0.0841 0.28906 0.0
C1434 C 0.93268 0.13273 0.3107 0.0
C1435 C 0.9003 0.096 0.31169 0.0
C1436 C 0.94325 0.1611 0.35177 0.0
C1437 C 0.96937 0.19917 0.31962 0.0
N1438 N 0.9111 0.11946 0.32216 0.0
N1439 N 0.95734 0.17658 0.30845 0.0
H1440 H 0.54205 0.06401 0.71668 0.0
H1441 H 0.56764 0.21768 0.68828 0.0
H1442 H 0.62528 0.09534 0.72175 0.0
H1443 H 0.51743 0.16941 0.63291 0.0
H1444 H 0.58532 0.17572 0.7084 0.0
H1445 H 0.52818 0.1054 0.69333 0.0
C1446 C 0.5574 0.07957 0.7128 0.0
C1447 C 0.58488 0.07621 0.72095 0.0
C1448 C 0.57059 0.17448 0.69171 0.0
C1449 C 0.56897 0.12377 0.69508 0.0
C1450 C 0.56044 0.19829 0.68034 0.0
C1451 C 0.54112 0.19693 0.65889 0.0
C1452 C 0.5606 0.14931 0.68211 0.0
C1453 C 0.53243 0.17133 0.6493 0.0
C1454 C 0.54949 0.10309 0.69947 0.0
C1455 C 0.60394 0.09709 0.71552 0.0
N1456 N 0.54189 0.14851 0.66126 0.0
N1457 N 0.59556 0.12024 0.70325 0.0
H1458 H 0.19227 0.38884 0.93621 0.0
H1459 H 0.07825 0.26983 0.9429 0.0
H1460 H 0.19017 0.32856 0.99881 0.0
H1461 H 0.07718 0.33226 0.88242 0.0
H1462 H 0.1203 0.29021 0.96275 0.0
H1463 H 0.15039 0.36838 0.91573 0.0
C1464 C 0.183 0.37114 0.94545 0.0
C1465 C 0.1951 0.35956 0.96846 0.0
C1466 C 0.11082 0.29963 0.94526 0.0
C1467 C 0.14713 0.33649 0.94577 0.0
C1468 C 0.08678 0.2881 0.93409 0.0
C1469 C 0.07383 0.30015 0.91179 0.0
C1470 C 0.12207 0.32325 0.93384 0.0
C1471 C 0.08627 0.32294 0.90016 0.0
C1472 C 0.15916 0.35951 0.93385 0.0
C1473 C 0.18196 0.33731 0.98037 0.0
N1474 N 0.10959 0.33399 0.91151 0.0
N1475 N 0.15876 0.32635 0.96879 0.0
H1476 H 0.43101 0.76389 0.45884 0.0
H1477 H 0.34698 0.62392 0.44268 0.0
H1478 H 0.44889 0.70331 0.39878 0.0
H1479 H 0.31869 0.69103 0.49022 0.0
H1480 H 0.38595 0.65176 0.42853 0.0
H1481 H 0.39135 0.7366 0.47256 0.0
C1482 C 0.42664 0.74487 0.44849 0.0
C1483 C 0.44343 0.73595 0.42756 0.0
C1484 C 0.3712 0.66042 0.44202 0.0
C1485 C 0.39797 0.70449 0.44338 0.0
C1486 C 0.34893 0.6445 0.45022 0.0
C1487 C 0.3294 0.65508 0.46775 0.0
C1488 C 0.37427 0.68714 0.45153 0.0
C1489 C 0.33312 0.68197 0.47668 0.0
C1490 C 0.40391 0.72933 0.45633 0.0
C1491 C 0.43658 0.71112 0.41494 0.0
N1492 N 0.35515 0.69702 0.46856 0.0
N1493 N 0.41448 0.69624 0.42312 0.0
H1494 H 0.80763 0.51226 0.82954 0.0
H1495 H 0.82494 0.64815 0.91654 0.0
H1496 H 0.87146 0.57225 0.81593 0.0
H1497 H 0.77724 0.57905 0.94323 0.0
H1498 H 0.83961 0.62192 0.87775 0.0
H1499 H 0.7937 0.53773 0.86929 0.0
C1500 C 0.81873 0.5308 0.83484 0.0
C1501 C 0.84079 0.54009 0.81926 0.0
C1502 C 0.826 0.61245 0.89212 0.0
C1503 C 0.82477 0.56942 0.86482 0.0
C1504 C 0.81751 0.62745 0.91431 0.0
C1505 C 0.79977 0.61584 0.93332 0.0
C1506 C 0.8165 0.58567 0.88858 0.0
C1507 C 0.79096 0.58886 0.9292 0.0
C1508 C 0.8108 0.54526 0.85764 0.0
C1509 C 0.85441 0.56422 0.82731 0.0
N1510 N 0.7993 0.57474 0.90721 0.0
N1511 N 0.84609 0.57809 0.84943 0.0
H1512 H 0.65845 0.5794 0.19944 0.0
H1513 H 0.72708 0.5599 0.05506 0.0
H1514 H 0.70268 0.50816 0.17677 0.0
H1515 H 0.71383 0.6387 0.08988 0.0
H1516 H 0.70905 0.53903 0.09606 0.0
H1517 H 0.67028 0.59998 0.15593 0.0
C1518 C 0.67051 0.56805 0.1853 0.0
C1519 C 0.67978 0.54211 0.19185 0.0
C1520 C 0.70989 0.56089 0.0946 0.0
C1521 C 0.69294 0.56531 0.14205 0.0
C1522 C 0.72 0.57281 0.07115 0.0
C1523 C 0.72212 0.60107 0.06914 0.0
C1524 C 0.70151 0.57735 0.11605 0.0
C1525 C 0.71272 0.61682 0.09068 0.0
C1526 C 0.67728 0.57982 0.16055 0.0
C1527 C 0.69535 0.52833 0.17274 0.0
N1528 N 0.70286 0.60475 0.11328 0.0
N1529 N 0.70135 0.54005 0.14872 0.0
H1530 H 0.74321 0.44464 0.44589 0.0
H1531 H 0.63419 0.44954 0.32273 0.0
H1532 H 0.69536 0.37549 0.41699 0.0
H1533 H 0.69867 0.50973 0.33332 0.0
H1534 H 0.65242 0.42513 0.362 0.0
H1535 H 0.72405 0.47141 0.40852 0.0
C1536 C 0.7287 0.43508 0.43179 0.0
C1537 C 0.72089 0.40773 0.4347 0.0
C1538 C 0.66269 0.44362 0.35572 0.0
C1539 C 0.69867 0.43834 0.39225 0.0
C1540 C 0.65228 0.45749 0.33338 0.0
C1541 C 0.66576 0.48088 0.32427 0.0
C1542 C 0.68631 0.45367 0.36949 0.0
C1543 C 0.68848 0.49107 0.33922 0.0
C1544 C 0.71781 0.45037 0.41047 0.0
C1545 C 0.70207 0.39644 0.41568 0.0
N1546 N 0.69822 0.47729 0.36108 0.0
N1547 N 0.69154 0.4118 0.39544 0.0
H1548 H 0.89149 0.44464 0.69033 0.0
H1549 H 0.81407 0.37899 0.58858 0.0
H1550 H 0.83049 0.50612 0.68161 0.0
H1551 H 0.7987 0.45962 0.55946 0.0
H1552 H 0.83626 0.39845 0.62916 0.0
H1553 H 0.87409 0.42329 0.64827 0.0
C1554 C 0.8742 0.45337 0.67962 0.0
C1555 C 0.86148 0.4763 0.68983 0.0
C1556 C 0.82855 0.41188 0.61364 0.0
C1557 C 0.84195 0.45264 0.64174 0.0
C1558 C 0.81572 0.40081 0.59056 0.0
C1559 C 0.80473 0.41774 0.57054 0.0
C1560 C 0.83014 0.4401 0.61685 0.0
C1561 C 0.80719 0.44586 0.57428 0.0
C1562 C 0.86425 0.44121 0.65576 0.0
C1563 C 0.83997 0.48772 0.6748 0.0
N1564 N 0.81935 0.4562 0.5972 0.0
N1565 N 0.8308 0.47573 0.65142 0.0
H1566 H 0.39494 0.0853 0.19293 0.0
H1567 H 0.48177 0.2172 0.22847 0.0
H1568 H 0.44645 0.08877 0.26495 0.0
H1569 H 0.47171 0.18929 0.14594 0.0
H1570 H 0.46329 0.17366 0.24413 0.0
H1571 H 0.41695 0.12711 0.17713 0.0
C1572 C 0.41082 0.09495 0.20548 0.0
C1573 C 0.41888 0.08363 0.23032 0.0
C1574 C 0.46532 0.17707 0.22263 0.0
C1575 C 0.44383 0.13156 0.21247 0.0
C1576 C 0.47573 0.2019 0.21364 0.0
C1577 C 0.47829 0.20686 0.18583 0.0
C1578 C 0.45669 0.15735 0.20366 0.0
C1579 C 0.4702 0.18626 0.16755 0.0
C1580 C 0.42346 0.11866 0.19635 0.0
C1581 C 0.4397 0.09685 0.24566 0.0
N1582 N 0.45941 0.16251 0.17677 0.0
N1583 N 0.45129 0.12035 0.23663 0.0
H1584 H 0.03091 0.86155 0.63265 0.0
H1585 H 0.15455 0.91272 0.72649 0.0
H1586 H 0.0699 0.80914 0.69063 0.0
H1587 H 0.08505 0.96413 0.71205 0.0
H1588 H 0.12913 0.87525 0.70482 0.0
H1589 H 0.05615 0.90053 0.65318 0.0
C1590 C 0.04475 0.85838 0.64973 0.0
C1591 C 0.04781 0.83249 0.66068 0.0
C1592 C 0.11952 0.89477 0.70641 0.0
C1593 C 0.07725 0.87622 0.68324 0.0
C1594 C 0.13399 0.91622 0.71874 0.0
C1595 C 0.12183 0.94162 0.7214 0.0
C1596 C 0.09298 0.89885 0.69597 0.0
C1597 C 0.09514 0.94485 0.71066 0.0
C1598 C 0.05901 0.88047 0.66138 0.0
C1599 C 0.06647 0.82903 0.68225 0.0
N1600 N 0.08162 0.92372 0.69821 0.0
N1601 N 0.0806 0.85067 0.69283 0.0
H1602 H 0.45581 0.81046 0.33219 0.0
H1603 H 0.43185 0.96736 0.3101 0.0
H1604 H 0.47789 0.86966 0.39378 0.0
H1605 H 0.37232 0.90726 0.28187 0.0
H1606 H 0.4566 0.93168 0.33428 0.0
H1607 H 0.43223 0.84599 0.30656 0.0
C1608 C 0.45586 0.83088 0.34025 0.0
C1609 C 0.46889 0.83705 0.36519 0.0
C1610 C 0.43815 0.92642 0.32266 0.0
C1611 C 0.44253 0.87767 0.33578 0.0
C1612 C 0.42409 0.9467 0.30881 0.0
C1613 C 0.39995 0.94033 0.29393 0.0
C1614 C 0.42839 0.89953 0.32105 0.0
C1615 C 0.39079 0.91316 0.29308 0.0
C1616 C 0.44237 0.85106 0.32567 0.0
C1617 C 0.46819 0.8639 0.37469 0.0
N1618 N 0.40513 0.89373 0.30627 0.0
N1619 N 0.45545 0.88325 0.35988 0.0
H1620 H 0.85887 0.63709 0.02303 0.0
H1621 H 0.96335 0.7271 0.06219 0.0
H1622 H 0.80555 0.69295 0.06214 0.0
H1623 H 0.91171 0.74821 0.12849 0.0
H1624 H 0.92582 0.69939 0.04271 0.0
H1625 H 0.89872 0.66043 0.04442 0.0
C1626 C 0.85568 0.65438 0.03606 0.0
C1627 C 0.82923 0.66415 0.03977 0.0
C1628 C 0.92258 0.71003 0.06151 0.0
C1629 C 0.87433 0.69076 0.06442 0.0
C1630 C 0.94381 0.72639 0.07228 0.0
C1631 C 0.94037 0.74032 0.09668 0.0
C1632 C 0.89763 0.70763 0.07522 0.0
C1633 C 0.91498 0.73796 0.10945 0.0
C1634 C 0.87835 0.66778 0.04814 0.0
C1635 C 0.82586 0.68572 0.05784 0.0
N1636 N 0.89446 0.7221 0.09845 0.0
N1637 N 0.84819 0.69846 0.06941 0.0
H1638 H 0.59593 0.27278 0.60761 0.0
H1639 H 0.66818 0.3912 0.52243 0.0
H1640 H 0.55376 0.3387 0.56884 0.0
H1641 H 0.71353 0.32527 0.55675 0.0
H1642 H 0.62635 0.37293 0.54233 0.0
H1643 H 0.63983 0.29212 0.59201 0.0
C1644 C 0.59592 0.29138 0.5961 0.0
C1645 C 0.57115 0.30402 0.58934 0.0
C1646 C 0.64535 0.36225 0.54549 0.0
C1647 C 0.62091 0.32615 0.57162 0.0
C1648 C 0.66913 0.37269 0.53405 0.0
C1649 C 0.6938 0.35897 0.53705 0.0
C1650 C 0.64638 0.33818 0.56053 0.0
C1651 C 0.69444 0.33565 0.5531 0.0
C1652 C 0.62089 0.30233 0.58714 0.0
C1653 C 0.57226 0.32802 0.57428 0.0
N1654 N 0.67093 0.32576 0.56412 0.0
N1655 N 0.59663 0.33819 0.56594 0.0
H1656 H 0.20536 0.38623 0.08496 0.0
H1657 H 0.12847 0.46198 0.17021 0.0
H1658 H 0.2513 0.46016 0.0705 0.0
H1659 H 0.204 0.50579 0.18923 0.0
H1660 H 0.15053 0.44085 0.132 0.0
H1661 H 0.18353 0.4079 0.123 0.0
C1662 C 0.21092 0.40705 0.08979 0.0
C1663 C 0.22998 0.4215 0.07429 0.0
C1664 C 0.16239 0.4549 0.14465 0.0
C1665 C 0.20447 0.44668 0.11764 0.0
C1666 C 0.14972 0.46723 0.16634 0.0
C1667 C 0.1645 0.48547 0.18318 0.0
C1668 C 0.19013 0.46075 0.13963 0.0
C1669 C 0.19193 0.49166 0.17689 0.0
C1670 C 0.19819 0.4195 0.11137 0.0
C1671 C 0.23653 0.44837 0.08179 0.0
N1672 N 0.20393 0.47929 0.15555 0.0
N1673 N 0.22378 0.46015 0.10302 0.0
H1674 H 0.32961 0.49625 0.82456 0.0
H1675 H 0.32926 0.37211 0.92607 0.0
H1676 H 0.40176 0.44912 0.84073 0.0
H1677 H 0.27849 0.44137 0.93925 0.0
H1678 H 0.35224 0.39657 0.88975 0.0
H1679 H 0.30633 0.47261 0.86157 0.0
C1680 C 0.34045 0.48081 0.83573 0.0
C1681 C 0.36765 0.47462 0.82957 0.0
C1682 C 0.33615 0.40644 0.90068 0.0
C1683 C 0.34118 0.44754 0.8716 0.0
C1684 C 0.32301 0.39251 0.92136 0.0
C1685 C 0.30203 0.40479 0.93578 0.0
C1686 C 0.32787 0.43264 0.8939 0.0
C1687 C 0.29475 0.43127 0.92881 0.0
C1688 C 0.32726 0.46752 0.85693 0.0
C1689 C 0.38083 0.45461 0.84486 0.0
N1690 N 0.30748 0.44426 0.90815 0.0
N1691 N 0.36742 0.44165 0.86501 0.0
H1692 H 0.33108 0.5703 0.54476 0.0
H1693 H 0.30727 0.53597 0.69942 0.0
H1694 H 0.26293 0.60346 0.58748 0.0
H1695 H 0.38828 0.54413 0.66633 0.0
H1696 H 0.28772 0.55318 0.65666 0.0
H1697 H 0.3497 0.55326 0.58761 0.0
C1698 C 0.32005 0.57401 0.56319 0.0
C1699 C 0.29548 0.58841 0.5626 0.0
C1700 C 0.30975 0.55111 0.65885 0.0
C1701 C 0.31643 0.56849 0.61157 0.0
C1702 C 0.32088 0.54112 0.68308 0.0
C1703 C 0.34941 0.53864 0.68635 0.0
C1704 C 0.32728 0.55802 0.63764 0.0
C1705 C 0.36617 0.5458 0.66466 0.0
C1706 C 0.33072 0.56433 0.5876 0.0
C1707 C 0.28206 0.59266 0.5871 0.0
N1708 N 0.35485 0.55499 0.64117 0.0
N1709 N 0.29258 0.5825 0.61063 0.0
H1710 H 0.18449 0.55968 0.30266 0.0
H1711 H 0.19897 0.57739 0.46074 0.0
H1712 H 0.11477 0.54853 0.3544 0.0
H1713 H 0.23787 0.6357 0.40871 0.0
H1714 H 0.17346 0.55858 0.42141 0.0
H1715 H 0.21025 0.58036 0.34104 0.0
C1716 C 0.17459 0.56155 0.32198 0.0
C1717 C 0.14742 0.5522 0.32528 0.0
C1718 C 0.18765 0.57543 0.41863 0.0
C1719 C 0.17689 0.57527 0.36905 0.0
C1720 C 0.20229 0.58598 0.44091 0.0
C1721 C 0.22096 0.60754 0.43761 0.0
C1722 C 0.19199 0.58639 0.3929 0.0
C1723 C 0.22399 0.61866 0.41178 0.0
C1724 C 0.18926 0.5734 0.34375 0.0
C1725 C 0.13564 0.55527 0.35082 0.0
N1726 N 0.20995 0.60765 0.39019 0.0
N1727 N 0.15055 0.56622 0.37178 0.0
loop_
_geom_bond_atom_site_label_1
_geom_bond_atom_site_label_2
_geom_bond_distance
_geom_bond_site_symmetry_2
_ccdc_geom_bond_type
Mn0 O5 2.095 1_455 S
Mn0 O15 2.162 1_455 S
Mn0 O16 2.297 1_455 S
Mn0 O24 2.385 . S
Mn0 O25 2.209 . S
Mn0 O26 2.094 . S
Mn1 O6 2.121 1_455 S
Mn1 N8 2.257 . S
Mn1 N17 2.282 . S
Mn1 O25 2.215 . S
Mn1 O27 2.117 . S
C2 O24 1.234 . S
C2 O25 1.283 . S
C3 O15 1.281 . S
C3 O16 1.236 . S
C4 O26 1.240 . S
C4 O27 1.264 . S
O5 Mn0 2.095 1_655 S
O5 C14 1.250 . S
O6 Mn1 2.121 1_655 S
O6 C14 1.258 . S
C7 N8 1.326 . S
C7 C11 1.460 . S
C7 H13 0.898 1_455 S
N8 Mn1 2.257 . S
N8 C7 1.326 . S
N8 C12 1.362 . S
C9 C10 1.258 . S
C9 C12 1.431 . S
C9 C29 1.449 . S
C10 C9 1.258 . S
C10 C11 1.477 . S
C10 H30 0.931 . S
C11 C7 1.460 . S
C11 C10 1.477 . S
C11 H31 0.930 . S
C12 N8 1.362 . S
C12 C9 1.431 . S
C12 C22 1.476 . S
H13 C7 0.898 1_655 S
C14 O5 1.250 . S
C14 O6 1.258 . S
O15 Mn0 2.162 1_655 S
O15 C3 1.281 . S
O16 Mn0 2.297 1_655 S
O16 C3 1.236 . S
N17 Mn1 2.282 . S
N17 C18 1.328 . S
N17 C22 1.318 . S
C18 N17 1.328 . S
C18 C19 1.457 . S
C18 H23 0.929 . S
C19 C18 1.457 . S
C19 C20 1.291 . S
C19 H32 0.931 . S
C20 C19 1.291 . S
C20 C21 1.373 . S
C20 H33 0.929 . S
C21 C20 1.373 . S
C21 C22 1.396 . S
C21 C28 1.403 . S
C22 C12 1.476 . S
C22 N17 1.318 . S
C22 C21 1.396 . S
H23 C18 0.929 . S
O24 Mn0 2.385 . S
O24 C2 1.234 . S
O25 Mn0 2.209 . S
O25 Mn1 2.215 . S
O25 C2 1.283 . S
O26 Mn0 2.094 . S
O26 C4 1.240 . S
O27 Mn1 2.117 . S
O27 C4 1.264 . S
C28 C21 1.403 . S
C28 C29 1.399 . S
C28 H34 0.929 . S
C29 C9 1.449 . S
C29 C28 1.399 . S
C29 H35 0.930 . S
H30 C10 0.931 . S
H31 C11 0.930 . S
H32 C19 0.931 . S
H33 C20 0.929 . S
H34 C28 0.929 . S
H35 C29 0.930 . S
Mn36 O41 2.095 1_455 S
Mn36 O51 2.162 . S
Mn36 O52 2.297 . S
Mn36 O60 2.385 . S
Mn36 O61 2.209 . S
Mn36 O62 2.094 1_455 S
Mn37 O42 2.121 . S
Mn37 N44 2.257 . S
Mn37 N53 2.282 . S
Mn37 O61 2.215 1_655 S
Mn37 O63 2.117 . S
C38 O60 1.234 . S
C38 O61 1.283 . S
C39 O51 1.281 . S
C39 O52 1.236 . S
C40 O62 1.240 . S
C40 O63 1.264 . S
O41 Mn36 2.095 1_655 S
O41 C50 1.250 . S
O42 Mn37 2.121 . S
O42 C50 1.258 . S
C43 N44 1.326 . S
C43 C47 1.460 . S
C43 H49 0.929 . S
N44 Mn37 2.257 . S
N44 C43 1.326 . S
N44 C48 1.362 . S
C45 C46 1.258 . S
C45 C48 1.431 . S
C45 C65 1.449 . S
C46 C45 1.258 . S
C46 C47 1.477 . S
C46 H66 0.931 . S
C47 C43 1.460 . S
C47 C46 1.477 . S
C47 H67 0.930 . S
C48 N44 1.362 . S
C48 C45 1.431 . S
C48 C58 1.476 . S
H49 C43 0.929 . S
C50 O41 1.250 . S
C50 O42 1.258 . S
O51 Mn36 2.162 . S
O51 C39 1.281 . S
O52 Mn36 2.297 . S
O52 C39 1.236 . S
N53 Mn37 2.282 . S
N53 C54 1.328 . S
N53 C58 1.318 . S
C54 N53 1.328 . S
C54 C55 1.457 . S
C54 H59 0.929 . S
C55 C54 1.457 . S
C55 C56 1.291 . S
C55 H68 0.931 . S
C56 C55 1.291 . S
C56 C57 1.373 . S
C56 H69 0.929 . S
C57 C56 1.373 . S
C57 C58 1.396 . S
C57 C64 1.403 . S
C58 C48 1.476 . S
C58 N53 1.318 . S
C58 C57 1.396 . S
H59 C54 0.929 . S
O60 Mn36 2.385 . S
O60 C38 1.234 . S
O61 Mn36 2.209 . S
O61 Mn37 2.215 1_455 S
O61 C38 1.283 . S
O62 Mn36 2.094 1_655 S
O62 C40 1.240 . S
O63 Mn37 2.117 . S
O63 C40 1.264 . S
C64 C57 1.403 . S
C64 C65 1.399 . S
C64 H70 0.929 . S
C65 C45 1.449 . S
C65 C64 1.399 . S
C65 H71 0.930 . S
H66 C46 0.931 . S
H67 C47 0.930 . S
H68 C55 0.931 . S
H69 C56 0.929 . S
H70 C64 0.929 . S
H71 C65 0.930 . S
Mn72 O77 2.095 . S
Mn72 O87 2.162 . S
Mn72 O88 2.297 . S
Mn72 O96 2.385 . S
Mn72 O97 2.209 . S
Mn72 O98 2.094 . S
Mn73 O78 2.121 . S
Mn73 N80 2.257 . S
Mn73 N89 2.282 . S
Mn73 O97 2.215 . S
Mn73 O99 2.117 . S
C74 O96 1.234 . S
C74 O97 1.283 . S
C75 O87 1.281 . S
C75 O88 1.236 . S
C76 O98 1.240 . S
C76 O99 1.264 . S
O77 Mn72 2.095 . S
O77 C86 1.250 . S
O78 Mn73 2.121 . S
O78 C86 1.258 . S
C79 N80 1.326 . S
C79 C83 1.460 1_556 S
C79 H85 0.929 . S
N80 Mn73 2.257 . S
N80 C79 1.326 . S
N80 C84 1.362 . S
C81 C82 1.233 1_556 S
C81 C84 1.463 . S
C81 C101 1.443 1_556 S
C82 C81 1.233 1_554 S
C82 C83 1.477 . S
C82 H102 0.931 . S
C83 C79 1.460 1_554 S
C83 C82 1.477 . S
C83 H103 0.930 . S
C84 N80 1.362 . S
C84 C81 1.463 . S
C84 C94 1.476 . S
H85 C79 0.929 . S
C86 O77 1.250 . S
C86 O78 1.258 . S
O87 Mn72 2.162 . S
O87 C75 1.281 . S
O88 Mn72 2.297 . S
O88 C75 1.236 . S
N89 Mn73 2.282 . S
N89 C90 1.328 . S
N89 C94 1.318 . S
C90 N89 1.328 . S
C90 C91 1.457 . S
C90 H95 0.929 . S
C91 C90 1.457 . S
C91 C92 1.291 . S
C91 H104 0.931 . S
C92 C91 1.291 . S
C92 C93 1.373 . S
C92 H105 0.929 . S
C93 C92 1.373 . S
C93 C94 1.396 . S
C93 C100 1.403 . S
C94 C84 1.476 . S
C94 N89 1.318 . S
C94 C93 1.396 . S
H95 C90 0.929 . S
O96 Mn72 2.385 . S
O96 C74 1.234 . S
O97 Mn72 2.209 . S
O97 Mn73 2.215 . S
O97 C74 1.283 . S
O98 Mn72 2.094 . S
O98 C76 1.240 . S
O99 Mn73 2.117 . S
O99 C76 1.264 . S
C100 C93 1.403 . S
C100 C101 1.399 1_556 S
C100 H106 0.929 . S
C101 C81 1.443 1_554 S
C101 C100 1.399 1_554 S
C101 H107 0.930 . S
H102 C82 0.931 . S
H103 C83 0.930 . S
H104 C91 0.931 . S
H105 C92 0.929 . S
H106 C100 0.929 . S
H107 C101 0.930 . S
Mn108 O113 2.095 . S
Mn108 O123 2.162 . S
Mn108 O124 2.297 . S
Mn108 O132 2.385 . S
Mn108 O133 2.209 . S
Mn108 O134 2.094 . S
Mn109 O114 2.121 . S
Mn109 N116 2.257 . S
Mn109 N125 2.282 . S
Mn109 O133 2.215 . S
Mn109 O135 2.117 . S
C110 O132 1.234 . S
C110 O133 1.283 . S
C111 O123 1.281 . S
C111 O124 1.236 . S
C112 O134 1.240 . S
C112 O135 1.264 . S
O113 Mn108 2.095 . S
O113 C122 1.250 . S
O114 Mn109 2.121 . S
O114 C122 1.258 . S
C115 N116 1.326 . S
C115 C119 1.460 . S
C115 H121 0.929 . S
N116 Mn109 2.257 . S
N116 C115 1.326 . S
N116 C120 1.362 . S
C117 C118 1.258 . S
C117 C120 1.431 . S
C117 C137 1.449 . S
C118 C117 1.258 . S
C118 C119 1.477 . S
C118 H138 0.931 . S
C119 C115 1.460 . S
C119 C118 1.477 . S
C119 H139 0.930 . S
C120 N116 1.362 . S
C120 C117 1.431 . S
C120 C130 1.476 . S
H121 C115 0.929 . S
C122 O113 1.250 . S
C122 O114 1.258 . S
O123 Mn108 2.162 . S
O123 C111 1.281 . S
O124 Mn108 2.297 . S
O124 C111 1.236 . S
N125 Mn109 2.282 . S
N125 C126 1.328 . S
N125 C130 1.318 . S
C126 N125 1.328 . S
C126 C127 1.457 . S
C126 H131 0.929 . S
C127 C126 1.457 . S
C127 C128 1.291 . S
C127 H140 0.931 . S
C128 C127 1.291 . S
C128 C129 1.373 . S
C128 H141 0.929 . S
C129 C128 1.373 . S
C129 C130 1.396 . S
C129 C136 1.403 . S
C130 C120 1.476 . S
C130 N125 1.318 . S
C130 C129 1.396 . S
H131 C126 0.929 . S
O132 Mn108 2.385 . S
O132 C110 1.234 . S
O133 Mn108 2.209 . S
O133 Mn109 2.215 . S
O133 C110 1.283 . S
O134 Mn108 2.094 . S
O134 C112 1.240 . S
O135 Mn109 2.117 . S
O135 C112 1.264 . S
C136 C129 1.403 . S
C136 C137 1.399 . S
C136 H142 0.929 . S
C137 C117 1.449 . S
C137 C136 1.399 . S
C137 H143 0.930 . S
H138 C118 0.931 . S
H139 C119 0.930 . S
H140 C127 0.931 . S
H141 C128 0.929 . S
H142 C136 0.929 . S
H143 C137 0.930 . S
Mn144 O149 2.095 . S
Mn144 O159 2.162 . S
Mn144 O160 2.297 . S
Mn144 O168 2.385 1_455 S
Mn144 O169 2.209 1_455 S
Mn144 O170 2.094 1_455 S
Mn145 O150 2.121 1_655 S
Mn145 N152 2.257 . S
Mn145 N161 2.282 . S
Mn145 O169 2.215 . S
Mn145 O171 2.117 . S
C146 O168 1.234 . S
C146 O169 1.283 . S
C147 O159 1.281 . S
C147 O160 1.236 . S
C148 O170 1.240 . S
C148 O171 1.264 . S
O149 Mn144 2.095 . S
O149 C158 1.250 . S
O150 Mn145 2.121 1_455 S
O150 C158 1.258 . S
C151 N152 1.326 . S
C151 C155 1.460 1_554 S
C151 H157 0.929 1_655 S
N152 Mn145 2.257 . S
N152 C151 1.326 . S
N152 C156 1.362 . S
C153 C154 1.258 1_554 S
C153 C156 1.431 . S
C153 C173 1.449 . S
C154 C153 1.258 1_556 S
C154 C155 1.477 . S
C154 H174 0.931 . S
C155 C151 1.460 1_556 S
C155 C154 1.477 . S
C155 H175 0.930 1_655 S
C156 N152 1.362 . S
C156 C153 1.431 . S
C156 C166 1.476 . S
H157 C151 0.929 1_455 S
C158 O149 1.250 . S
C158 O150 1.258 . S
O159 Mn144 2.162 . S
O159 C147 1.281 . S
O160 Mn144 2.297 . S
O160 C147 1.236 . S
N161 Mn145 2.282 . S
N161 C162 1.328 . S
N161 C166 1.318 . S
C162 N161 1.328 . S
C162 C163 1.457 . S
C162 H167 0.929 . S
C163 C162 1.457 . S
C163 C164 1.291 . S
C163 H176 0.931 . S
C164 C163 1.291 . S
C164 C165 1.373 . S
C164 H177 0.929 . S
C165 C164 1.373 . S
C165 C166 1.396 . S
C165 C172 1.403 . S
C166 C156 1.476 . S
C166 N161 1.318 . S
C166 C165 1.396 . S
H167 C162 0.929 . S
O168 Mn144 2.385 1_655 S
O168 C146 1.234 . S
O169 Mn144 2.209 1_655 S
O169 Mn145 2.215 . S
O169 C146 1.283 . S
O170 Mn144 2.094 1_655 S
O170 C148 1.240 . S
O171 Mn145 2.117 . S
O171 C148 1.264 . S
C172 C165 1.403 . S
C172 C173 1.399 . S
C172 H178 0.929 . S
C173 C153 1.449 . S
C173 C172 1.399 . S
C173 H179 0.930 1_554 S
H174 C154 0.931 . S
H175 C155 0.930 1_455 S
H176 C163 0.931 . S
H177 C164 0.929 . S
H178 C172 0.929 . S
H179 C173 0.930 1_556 S
Mn180 O185 2.095 . S
Mn180 O195 2.162 . S
Mn180 O196 2.297 . S
Mn180 O204 2.385 . S
Mn180 O205 2.209 . S
Mn180 O206 2.094 . S
Mn181 O186 2.121 . S
Mn181 N188 2.257 . S
Mn181 N197 2.282 . S
Mn181 O205 2.215 . S
Mn181 O207 2.117 . S
C182 O204 1.234 . S
C182 O205 1.283 . S
C183 O195 1.281 . S
C183 O196 1.236 . S
C184 O206 1.240 . S
C184 O207 1.264 . S
O185 Mn180 2.095 . S
O185 C194 1.250 . S
O186 Mn181 2.121 . S
O186 C194 1.258 . S
C187 N188 1.326 . S
C187 C191 1.460 . S
C187 H193 0.929 . S
N188 Mn181 2.257 . S
N188 C187 1.326 . S
N188 C192 1.362 . S
C189 C190 1.258 . S
C189 C192 1.431 . S
C189 C209 1.449 . S
C190 C189 1.258 . S
C190 C191 1.477 . S
C190 H210 0.931 . S
C191 C187 1.460 . S
C191 C190 1.477 . S
C191 H211 0.930 . S
C192 N188 1.362 . S
C192 C189 1.431 . S
C192 C202 1.476 . S
H193 C187 0.929 . S
C194 O185 1.250 . S
C194 O186 1.258 . S
O195 Mn180 2.162 . S
O195 C183 1.281 . S
O196 Mn180 2.297 . S
O196 C183 1.236 . S
N197 Mn181 2.282 . S
N197 C198 1.328 . S
N197 C202 1.318 . S
C198 N197 1.328 . S
C198 C199 1.457 . S
C198 H203 0.929 . S
C199 C198 1.457 . S
C199 C200 1.291 . S
C199 H212 0.931 . S
C200 C199 1.291 . S
C200 C201 1.373 . S
C200 H213 0.929 . S
C201 C200 1.373 . S
C201 C202 1.396 . S
C201 C208 1.403 . S
C202 C192 1.476 . S
C202 N197 1.318 . S
C202 C201 1.396 . S
H203 C198 0.929 . S
O204 Mn180 2.385 . S
O204 C182 1.234 . S
O205 Mn180 2.209 . S
O205 Mn181 2.215 . S
O205 C182 1.283 . S
O206 Mn180 2.094 . S
O206 C184 1.240 . S
O207 Mn181 2.117 . S
O207 C184 1.264 . S
C208 C201 1.403 . S
C208 C209 1.399 . S
C208 H214 0.929 . S
C209 C189 1.449 . S
C209 C208 1.399 . S
C209 H215 0.930 . S
H210 C190 0.931 . S
H211 C191 0.930 . S
H212 C199 0.931 . S
H213 C200 0.929 . S
H214 C208 0.929 . S
H215 C209 0.930 . S
Mn216 O221 2.095 . S
Mn216 O231 2.162 . S
Mn216 O232 2.297 . S
Mn216 O240 2.385 . S
Mn216 O241 2.209 . S
Mn216 O242 2.094 . S
Mn217 O222 2.121 . S
Mn217 N224 2.257 . S
Mn217 N233 2.282 . S
Mn217 O241 2.215 . S
Mn217 O243 2.117 . S
C218 O240 1.234 . S
C218 O241 1.283 . S
C219 O231 1.281 . S
C219 O232 1.236 . S
C220 O242 1.240 . S
C220 O243 1.264 . S
O221 Mn216 2.095 . S
O221 C230 1.250 . S
O222 Mn217 2.121 . S
O222 C230 1.258 . S
C223 N224 1.326 . S
C223 C227 1.460 . S
C223 H229 0.929 . S
N224 Mn217 2.257 . S
N224 C223 1.326 . S
N224 C228 1.362 . S
C225 C226 1.258 . S
C225 C228 1.431 . S
C225 C245 1.449 . S
C226 C225 1.258 . S
C226 C227 1.477 . S
C226 H246 0.931 . S
C227 C223 1.460 . S
C227 C226 1.477 . S
C227 H247 0.930 . S
C228 N224 1.362 . S
C228 C225 1.431 . S
C228 C238 1.476 . S
H229 C223 0.929 . S
C230 O221 1.250 . S
C230 O222 1.258 . S
O231 Mn216 2.162 . S
O231 C219 1.281 . S
O232 Mn216 2.297 . S
O232 C219 1.236 . S
N233 Mn217 2.282 . S
N233 C234 1.328 . S
N233 C238 1.318 . S
C234 N233 1.328 . S
C234 C235 1.457 . S
C234 H239 0.929 . S
C235 C234 1.457 . S
C235 C236 1.291 . S
C235 H248 0.931 . S
C236 C235 1.291 . S
C236 C237 1.373 . S
C236 H249 0.929 . S
C237 C236 1.373 . S
C237 C238 1.396 . S
C237 C244 1.403 . S
C238 C228 1.476 . S
C238 N233 1.318 . S
C238 C237 1.396 . S
H239 C234 0.929 . S
O240 Mn216 2.385 . S
O240 C218 1.234 . S
O241 Mn216 2.209 . S
O241 Mn217 2.215 . S
O241 C218 1.283 . S
O242 Mn216 2.094 . S
O242 C220 1.240 . S
O243 Mn217 2.117 . S
O243 C220 1.264 . S
C244 C237 1.403 . S
C244 C245 1.399 . S
C244 H250 0.929 . S
C245 C225 1.449 . S
C245 C244 1.399 . S
C245 H251 0.930 . S
H246 C226 0.931 . S
H247 C227 0.930 . S
H248 C235 0.931 . S
H249 C236 0.929 . S
H250 C244 0.929 . S
H251 C245 0.930 . S
Mn252 O257 2.095 1_455 S
Mn252 O267 2.162 . S
Mn252 O268 2.297 . S
Mn252 O276 2.385 . S
Mn252 O277 2.209 . S
Mn252 O278 2.094 1_455 S
Mn253 O258 2.121 . S
Mn253 N260 2.257 1_655 S
Mn253 N269 2.282 1_655 S
Mn253 O277 2.215 1_655 S
Mn253 O279 2.117 . S
C254 O276 1.234 . S
C254 O277 1.283 . S
C255 O267 1.281 . S
C255 O268 1.236 . S
C256 O278 1.240 . S
C256 O279 1.264 . S
O257 Mn252 2.095 1_655 S
O257 C266 1.250 . S
O258 Mn253 2.121 . S
O258 C266 1.258 . S
C259 N260 1.337 . S
C259 C263 1.468 1_556 S
C259 H265 0.912 1_455 S
N260 Mn253 2.257 1_455 S
N260 C259 1.337 . S
N260 C264 1.362 . S
C261 C262 1.258 . S
C261 C264 1.431 1_554 S
C261 C281 1.449 . S
C262 C261 1.258 . S
C262 C263 1.477 . S
C262 H282 0.931 . S
C263 C259 1.468 1_554 S
C263 C262 1.477 . S
C263 H283 0.930 . S
C264 N260 1.362 . S
C264 C261 1.431 1_556 S
C264 C274 1.476 . S
H265 C259 0.912 1_655 S
C266 O257 1.250 . S
C266 O258 1.258 . S
O267 Mn252 2.162 . S
O267 C255 1.281 . S
O268 Mn252 2.297 . S
O268 C255 1.236 . S
N269 Mn253 2.282 1_455 S
N269 C270 1.328 . S
N269 C274 1.318 . S
C270 N269 1.328 . S
C270 C271 1.457 . S
C270 H275 0.929 . S
C271 C270 1.457 . S
C271 C272 1.291 . S
C271 H284 0.931 . S
C272 C271 1.291 . S
C272 C273 1.373 . S
C272 H285 0.929 . S
C273 C272 1.373 . S
C273 C274 1.396 . S
C273 C280 1.403 . S
C274 C264 1.476 . S
C274 N269 1.318 . S
C274 C273 1.396 . S
H275 C270 0.929 . S
O276 Mn252 2.385 . S
O276 C254 1.234 . S
O277 Mn252 2.209 . S
O277 Mn253 2.215 1_455 S
O277 C254 1.283 . S
O278 Mn252 2.094 1_655 S
O278 C256 1.240 . S
O279 Mn253 2.117 . S
O279 C256 1.264 . S
C280 C273 1.403 . S
C280 C281 1.399 1_556 S
C280 H286 0.929 . S
C281 C261 1.449 . S
C281 C280 1.399 1_554 S
C281 H287 0.930 . S
H282 C262 0.931 . S
H283 C263 0.930 . S
H284 C271 0.931 . S
H285 C272 0.929 . S
H286 C280 0.929 . S
H287 C281 0.930 . S
Mn288 O293 2.095 . S
Mn288 O303 2.162 . S
Mn288 O304 2.297 . S
Mn288 O312 2.385 1_545 S
Mn288 O313 2.209 1_545 S
Mn288 O314 2.094 1_545 S
Mn289 O294 2.121 1_565 S
Mn289 N296 2.257 . S
Mn289 N305 2.282 . S
Mn289 O313 2.215 . S
Mn289 O315 2.117 . S
C290 O312 1.234 . S
C290 O313 1.283 . S
C291 O303 1.281 . S
C291 O304 1.236 . S
C292 O314 1.240 . S
C292 O315 1.264 . S
O293 Mn288 2.095 . S
O293 C302 1.250 . S
O294 Mn289 2.121 1_545 S
O294 C302 1.258 . S
C295 N296 1.326 . S
C295 C299 1.460 . S
C295 H301 0.929 1_565 S
N296 Mn289 2.257 . S
N296 C295 1.326 . S
N296 C300 1.362 . S
C297 C298 1.258 . S
C297 C300 1.431 . S
C297 C317 1.449 . S
C298 C297 1.258 . S
C298 C299 1.477 . S
C298 H318 0.931 . S
C299 C295 1.460 . S
C299 C298 1.477 . S
C299 H319 0.930 . S
C300 N296 1.362 . S
C300 C297 1.431 . S
C300 C310 1.476 . S
H301 C295 0.929 1_545 S
C302 O293 1.250 . S
C302 O294 1.258 . S
O303 Mn288 2.162 . S
O303 C291 1.281 . S
O304 Mn288 2.297 . S
O304 C291 1.236 . S
N305 Mn289 2.282 . S
N305 C306 1.328 . S
N305 C310 1.318 . S
C306 N305 1.328 . S
C306 C307 1.457 . S
C306 H311 0.929 . S
C307 C306 1.457 . S
C307 C308 1.291 . S
C307 H320 0.931 . S
C308 C307 1.291 . S
C308 C309 1.373 . S
C308 H321 0.929 . S
C309 C308 1.373 . S
C309 C310 1.396 . S
C309 C316 1.403 . S
C310 C300 1.476 . S
C310 N305 1.318 . S
C310 C309 1.396 . S
H311 C306 0.929 . S
O312 Mn288 2.385 1_565 S
O312 C290 1.234 . S
O313 Mn288 2.209 1_565 S
O313 Mn289 2.215 . S
O313 C290 1.283 . S
O314 Mn288 2.094 1_565 S
O314 C292 1.240 . S
O315 Mn289 2.117 . S
O315 C292 1.264 . S
C316 C309 1.403 . S
C316 C317 1.399 . S
C316 H322 0.929 . S
C317 C297 1.449 . S
C317 C316 1.399 . S
C317 H323 0.930 . S
H318 C298 0.931 . S
H319 C299 0.930 . S
H320 C307 0.931 . S
H321 C308 0.929 . S
H322 C316 0.929 . S
H323 C317 0.930 . S
Mn324 O329 2.095 . S
Mn324 O339 2.162 . S
Mn324 O340 2.297 . S
Mn324 O348 2.385 . S
Mn324 O349 2.209 . S
Mn324 O350 2.094 . S
Mn325 O330 2.121 . S
Mn325 N332 2.257 . S
Mn325 N341 2.282 . S
Mn325 O349 2.215 . S
Mn325 O351 2.117 . S
C326 O348 1.234 . S
C326 O349 1.283 . S
C327 O339 1.281 . S
C327 O340 1.236 . S
C328 O350 1.240 . S
C328 O351 1.264 . S
O329 Mn324 2.095 . S
O329 C338 1.250 . S
O330 Mn325 2.121 . S
O330 C338 1.258 . S
C331 N332 1.326 . S
C331 C335 1.460 . S
C331 H337 0.929 . S
N332 Mn325 2.257 . S
N332 C331 1.326 . S
N332 C336 1.362 . S
C333 C334 1.258 . S
C333 C336 1.431 . S
C333 C353 1.449 . S
C334 C333 1.258 . S
C334 C335 1.477 . S
C334 H354 0.931 . S
C335 C331 1.460 . S
C335 C334 1.477 . S
C335 H355 0.930 . S
C336 N332 1.362 . S
C336 C333 1.431 . S
C336 C346 1.476 . S
H337 C331 0.929 . S
C338 O329 1.250 . S
C338 O330 1.258 . S
O339 Mn324 2.162 . S
O339 C327 1.281 . S
O340 Mn324 2.297 . S
O340 C327 1.236 . S
N341 Mn325 2.282 . S
N341 C342 1.328 . S
N341 C346 1.318 . S
C342 N341 1.328 . S
C342 C343 1.457 . S
C342 H347 0.929 . S
C343 C342 1.457 . S
C343 C344 1.291 . S
C343 H356 0.931 . S
C344 C343 1.291 . S
C344 C345 1.373 . S
C344 H357 0.929 . S
C345 C344 1.373 . S
C345 C346 1.396 . S
C345 C352 1.403 . S
C346 C336 1.476 . S
C346 N341 1.318 . S
C346 C345 1.396 . S
H347 C342 0.929 . S
O348 Mn324 2.385 . S
O348 C326 1.234 . S
O349 Mn324 2.209 . S
O349 Mn325 2.215 . S
O349 C326 1.283 . S
O350 Mn324 2.094 . S
O350 C328 1.240 . S
O351 Mn325 2.117 . S
O351 C328 1.264 . S
C352 C345 1.403 . S
C352 C353 1.399 . S
C352 H358 0.929 . S
C353 C333 1.449 . S
C353 C352 1.399 . S
C353 H359 0.930 . S
H354 C334 0.931 . S
H355 C335 0.930 . S
H356 C343 0.931 . S
H357 C344 0.929 . S
H358 C352 0.929 . S
H359 C353 0.930 . S
Mn360 O365 2.095 . S
Mn360 O375 2.162 . S
Mn360 O376 2.297 . S
Mn360 O384 2.385 1_545 S
Mn360 O385 2.209 1_545 S
Mn360 O386 2.094 1_545 S
Mn361 O366 2.121 1_565 S
Mn361 N368 2.257 . S
Mn361 N377 2.282 . S
Mn361 O385 2.215 . S
Mn361 O387 2.117 . S
C362 O384 1.234 . S
C362 O385 1.283 . S
C363 O375 1.281 . S
C363 O376 1.236 . S
C364 O386 1.240 . S
C364 O387 1.264 . S
O365 Mn360 2.095 . S
O365 C374 1.250 . S
O366 Mn361 2.121 1_545 S
O366 C374 1.258 . S
C367 N368 1.326 . S
C367 C371 1.460 . S
C367 H373 0.918 1_565 S
N368 Mn361 2.257 . S
N368 C367 1.326 . S
N368 C372 1.362 . S
C369 C370 1.258 . S
C369 C372 1.431 . S
C369 C389 1.449 . S
C370 C369 1.258 . S
C370 C371 1.477 . S
C370 H390 0.931 . S
C371 C367 1.460 . S
C371 C370 1.477 . S
C371 H391 0.930 . S
C372 N368 1.362 . S
C372 C369 1.431 . S
C372 C382 1.476 . S
H373 C367 0.918 1_545 S
C374 O365 1.250 . S
C374 O366 1.258 . S
O375 Mn360 2.162 . S
O375 C363 1.281 . S
O376 Mn360 2.297 . S
O376 C363 1.236 . S
N377 Mn361 2.282 . S
N377 C378 1.328 . S
N377 C382 1.318 . S
C378 N377 1.328 . S
C378 C379 1.457 . S
C378 H383 0.929 . S
C379 C378 1.457 . S
C379 C380 1.291 . S
C379 H392 0.931 . S
C380 C379 1.291 . S
C380 C381 1.373 . S
C380 H393 0.929 . S
C381 C380 1.373 . S
C381 C382 1.396 . S
C381 C388 1.403 . S
C382 C372 1.476 . S
C382 N377 1.318 . S
C382 C381 1.396 . S
H383 C378 0.929 . S
O384 Mn360 2.385 1_565 S
O384 C362 1.234 . S
O385 Mn360 2.209 1_565 S
O385 Mn361 2.215 . S
O385 C362 1.283 . S
O386 Mn360 2.094 1_565 S
O386 C364 1.240 . S
O387 Mn361 2.117 . S
O387 C364 1.264 . S
C388 C381 1.403 . S
C388 C389 1.399 . S
C388 H394 0.929 . S
C389 C369 1.449 . S
C389 C388 1.399 . S
C389 H395 0.930 . S
H390 C370 0.931 . S
H391 C371 0.930 . S
H392 C379 0.931 . S
H393 C380 0.929 . S
H394 C388 0.929 . S
H395 C389 0.930 . S
Mn396 O401 2.095 1_554 S
Mn396 O411 2.162 . S
Mn396 O412 2.297 . S
Mn396 O420 2.385 . S
Mn396 O421 2.209 . S
Mn396 O422 2.094 1_554 S
Mn397 O402 2.121 . S
Mn397 N404 2.257 . S
Mn397 N413 2.282 . S
Mn397 O421 2.215 1_556 S
Mn397 O423 2.117 . S
C398 O420 1.234 . S
C398 O421 1.283 . S
C399 O411 1.281 . S
C399 O412 1.236 . S
C400 O422 1.240 . S
C400 O423 1.264 . S
O401 Mn396 2.095 1_556 S
O401 C410 1.250 . S
O402 Mn397 2.121 . S
O402 C410 1.258 . S
C403 N404 1.326 . S
C403 C407 1.460 . S
C403 H409 0.929 . S
N404 Mn397 2.257 . S
N404 C403 1.326 . S
N404 C408 1.362 . S
C405 C406 1.258 . S
C405 C408 1.431 . S
C405 C425 1.449 . S
C406 C405 1.258 . S
C406 C407 1.477 . S
C406 H426 0.931 . S
C407 C403 1.460 . S
C407 C406 1.477 . S
C407 H427 0.930 . S
C408 N404 1.362 . S
C408 C405 1.431 . S
C408 C418 1.476 . S
H409 C403 0.929 . S
C410 O401 1.250 . S
C410 O402 1.258 . S
O411 Mn396 2.162 . S
O411 C399 1.281 . S
O412 Mn396 2.297 . S
O412 C399 1.236 . S
N413 Mn397 2.282 . S
N413 C414 1.328 . S
N413 C418 1.318 . S
C414 N413 1.328 . S
C414 C415 1.457 . S
C414 H419 0.929 . S
C415 C414 1.457 . S
C415 C416 1.291 . S
C415 H428 0.931 . S
C416 C415 1.291 . S
C416 C417 1.373 . S
C416 H429 0.929 . S
C417 C416 1.373 . S
C417 C418 1.396 . S
C417 C424 1.403 . S
C418 C408 1.476 . S
C418 N413 1.318 . S
C418 C417 1.396 . S
H419 C414 0.929 . S
O420 Mn396 2.385 . S
O420 C398 1.234 . S
O421 Mn396 2.209 . S
O421 Mn397 2.215 1_554 S
O421 C398 1.283 . S
O422 Mn396 2.094 1_556 S
O422 C400 1.240 . S
O423 Mn397 2.117 . S
O423 C400 1.264 . S
C424 C417 1.403 . S
C424 C425 1.399 . S
C424 H430 0.929 . S
C425 C405 1.449 . S
C425 C424 1.399 . S
C425 H431 0.930 . S
H426 C406 0.931 . S
H427 C407 0.930 . S
H428 C415 0.931 . S
H429 C416 0.929 . S
H430 C424 0.929 . S
H431 C425 0.930 . S
Mn432 O437 2.095 . S
Mn432 O447 2.162 . S
Mn432 O448 2.297 . S
Mn432 O456 2.385 1_554 S
Mn432 O457 2.209 1_554 S
Mn432 O458 2.094 1_554 S
Mn433 O438 2.112 1_556 S
Mn433 N440 2.257 . S
Mn433 N449 2.282 . S
Mn433 O457 2.215 . S
Mn433 O459 2.117 . S
C434 O456 1.234 . S
C434 O457 1.283 . S
C435 O447 1.281 . S
C435 O448 1.236 . S
C436 O458 1.240 . S
C436 O459 1.264 . S
O437 Mn432 2.095 . S
O437 C446 1.250 . S
O438 Mn433 2.112 1_554 S
O438 C446 1.266 . S
C439 N440 1.326 . S
C439 C443 1.460 . S
C439 H445 0.929 . S
N440 Mn433 2.257 . S
N440 C439 1.326 . S
N440 C444 1.362 . S
C441 C442 1.258 . S
C441 C444 1.431 . S
C441 C461 1.449 . S
C442 C441 1.258 . S
C442 C443 1.477 . S
C442 H462 0.931 . S
C443 C439 1.460 . S
C443 C442 1.477 . S
C443 H463 0.930 . S
C444 N440 1.362 . S
C444 C441 1.431 . S
C444 C454 1.476 . S
H445 C439 0.929 . S
C446 O437 1.250 . S
C446 O438 1.266 . S
O447 Mn432 2.162 . S
O447 C435 1.281 . S
O448 Mn432 2.297 . S
O448 C435 1.236 . S
N449 Mn433 2.282 . S
N449 C450 1.328 . S
N449 C454 1.318 . S
C450 N449 1.328 . S
C450 C451 1.457 . S
C450 H455 0.929 . S
C451 C450 1.457 . S
C451 C452 1.291 . S
C451 H464 0.931 . S
C452 C451 1.291 . S
C452 C453 1.373 . S
C452 H465 0.929 . S
C453 C452 1.373 . S
C453 C454 1.396 . S
C453 C460 1.403 . S
C454 C444 1.476 . S
C454 N449 1.318 . S
C454 C453 1.396 . S
H455 C450 0.929 . S
O456 Mn432 2.385 1_556 S
O456 C434 1.234 . S
O457 Mn432 2.209 1_556 S
O457 Mn433 2.215 . S
O457 C434 1.283 . S
O458 Mn432 2.094 1_556 S
O458 C436 1.240 . S
O459 Mn433 2.117 . S
O459 C436 1.264 . S
C460 C453 1.403 . S
C460 C461 1.399 . S
C460 H466 0.929 . S
C461 C441 1.449 . S
C461 C460 1.399 . S
C461 H467 0.930 . S
H462 C442 0.931 . S
H463 C443 0.930 . S
H464 C451 0.931 . S
H465 C452 0.929 . S
H466 C460 0.929 . S
H467 C461 0.930 . S
Mn468 O473 2.095 . S
Mn468 O483 2.162 . S
Mn468 O484 2.297 . S
Mn468 O492 2.385 1_554 S
Mn468 O493 2.209 1_554 S
Mn468 O494 2.094 1_554 S
Mn469 O474 2.121 1_556 S
Mn469 N476 2.257 . S
Mn469 N485 2.282 . S
Mn469 O493 2.215 . S
Mn469 O495 2.117 . S
C470 O492 1.234 . S
C470 O493 1.283 . S
C471 O483 1.281 . S
C471 O484 1.236 . S
C472 O494 1.240 . S
C472 O495 1.264 . S
O473 Mn468 2.095 . S
O473 C482 1.250 . S
O474 Mn469 2.121 1_554 S
O474 C482 1.258 . S
C475 N476 1.326 . S
C475 C479 1.460 . S
C475 H481 0.929 1_556 S
N476 Mn469 2.257 . S
N476 C475 1.326 . S
N476 C480 1.362 . S
C477 C478 1.275 . S
C477 C480 1.431 . S
C477 C497 1.449 . S
C478 C477 1.275 . S
C478 C479 1.483 . S
C478 H498 0.908 1_545 S
C479 C475 1.460 . S
C479 C478 1.483 . S
C479 H499 0.913 1_546 S
C480 N476 1.362 . S
C480 C477 1.431 . S
C480 C490 1.476 . S
H481 C475 0.929 1_554 S
C482 O473 1.250 . S
C482 O474 1.258 . S
O483 Mn468 2.162 . S
O483 C471 1.281 . S
O484 Mn468 2.297 . S
O484 C471 1.236 . S
N485 Mn469 2.282 . S
N485 C486 1.328 . S
N485 C490 1.318 . S
C486 N485 1.328 . S
C486 C487 1.457 . S
C486 H491 0.929 . S
C487 C486 1.457 . S
C487 C488 1.291 . S
C487 H500 0.931 . S
C488 C487 1.291 . S
C488 C489 1.373 . S
C488 H501 0.929 . S
C489 C488 1.373 . S
C489 C490 1.396 . S
C489 C496 1.403 . S
C490 C480 1.476 . S
C490 N485 1.318 . S
C490 C489 1.396 . S
H491 C486 0.929 . S
O492 Mn468 2.385 1_556 S
O492 C470 1.234 . S
O493 Mn468 2.209 1_556 S
O493 Mn469 2.215 . S
O493 C470 1.283 . S
O494 Mn468 2.094 1_556 S
O494 C472 1.240 . S
O495 Mn469 2.117 . S
O495 C472 1.264 . S
C496 C489 1.403 . S
C496 C497 1.399 . S
C496 H502 0.929 . S
C497 C477 1.449 . S
C497 C496 1.399 . S
C497 H503 0.930 1_545 S
H498 C478 0.908 1_565 S
H499 C479 0.913 1_564 S
H500 C487 0.931 . S
H501 C488 0.929 . S
H502 C496 0.929 . S
H503 C497 0.930 1_565 S
Mn504 O509 2.095 . S
Mn504 O519 2.162 . S
Mn504 O520 2.297 . S
Mn504 O528 2.385 . S
Mn504 O529 2.209 . S
Mn504 O530 2.094 . S
Mn505 O510 2.121 . S
Mn505 N512 2.257 . S
Mn505 N521 2.282 . S
Mn505 O529 2.215 . S
Mn505 O531 2.117 . S
C506 O528 1.234 . S
C506 O529 1.283 . S
C507 O519 1.281 . S
C507 O520 1.236 . S
C508 O530 1.240 . S
C508 O531 1.264 . S
O509 Mn504 2.095 . S
O509 C518 1.250 . S
O510 Mn505 2.121 . S
O510 C518 1.258 . S
C511 N512 1.326 . S
C511 C515 1.460 1_455 S
C511 H517 0.929 . S
N512 Mn505 2.257 . S
N512 C511 1.326 . S
N512 C516 1.362 . S
C513 C514 1.258 1_455 S
C513 C516 1.431 . S
C513 C533 1.449 . S
C514 C513 1.258 1_655 S
C514 C515 1.477 . S
C514 H534 0.931 . S
C515 C511 1.460 1_655 S
C515 C514 1.477 . S
C515 H535 0.930 . S
C516 N512 1.362 . S
C516 C513 1.431 . S
C516 C526 1.476 . S
H517 C511 0.929 . S
C518 O509 1.250 . S
C518 O510 1.258 . S
O519 Mn504 2.162 . S
O519 C507 1.281 . S
O520 Mn504 2.297 . S
O520 C507 1.236 . S
N521 Mn505 2.282 . S
N521 C522 1.328 . S
N521 C526 1.318 . S
C522 N521 1.328 . S
C522 C523 1.457 . S
C522 H527 0.929 . S
C523 C522 1.457 . S
C523 C524 1.291 . S
C523 H536 0.931 . S
C524 C523 1.291 . S
C524 C525 1.373 . S
C524 H537 0.929 . S
C525 C524 1.373 . S
C525 C526 1.396 . S
C525 C532 1.403 . S
C526 C516 1.476 . S
C526 N521 1.318 . S
C526 C525 1.396 . S
H527 C522 0.929 . S
O528 Mn504 2.385 . S
O528 C506 1.234 . S
O529 Mn504 2.209 . S
O529 Mn505 2.215 . S
O529 C506 1.283 . S
O530 Mn504 2.094 . S
O530 C508 1.240 . S
O531 Mn505 2.117 . S
O531 C508 1.264 . S
C532 C525 1.403 . S
C532 C533 1.399 . S
C532 H538 0.929 . S
C533 C513 1.449 . S
C533 C532 1.399 . S
C533 H539 0.930 1_455 S
H534 C514 0.931 . S
H535 C515 0.930 . S
H536 C523 0.931 . S
H537 C524 0.929 . S
H538 C532 0.929 . S
H539 C533 0.930 1_655 S
Mn540 O545 2.095 . S
Mn540 O555 2.162 . S
Mn540 O556 2.297 . S
Mn540 O564 2.385 . S
Mn540 O565 2.209 . S
Mn540 O566 2.094 . S
Mn541 O546 2.121 . S
Mn541 N548 2.257 . S
Mn541 N557 2.282 . S
Mn541 O565 2.215 . S
Mn541 O567 2.117 . S
C542 O564 1.234 . S
C542 O565 1.283 . S
C543 O555 1.281 . S
C543 O556 1.236 . S
C544 O566 1.240 . S
C544 O567 1.264 . S
O545 Mn540 2.095 . S
O545 C554 1.250 . S
O546 Mn541 2.121 . S
O546 C554 1.258 . S
C547 N548 1.326 . S
C547 C551 1.460 . S
C547 H553 0.929 . S
N548 Mn541 2.257 . S
N548 C547 1.326 . S
N548 C552 1.362 . S
C549 C550 1.258 . S
C549 C552 1.431 . S
C549 C569 1.449 . S
C550 C549 1.258 . S
C550 C551 1.477 . S
C550 H570 0.931 . S
C551 C547 1.460 . S
C551 C550 1.477 . S
C551 H571 0.930 . S
C552 N548 1.362 . S
C552 C549 1.431 . S
C552 C562 1.476 . S
H553 C547 0.929 . S
C554 O545 1.250 . S
C554 O546 1.258 . S
O555 Mn540 2.162 . S
O555 C543 1.281 . S
O556 Mn540 2.297 . S
O556 C543 1.236 . S
N557 Mn541 2.282 . S
N557 C558 1.328 . S
N557 C562 1.318 . S
C558 N557 1.328 . S
C558 C559 1.457 . S
C558 H563 0.929 . S
C559 C558 1.457 . S
C559 C560 1.291 . S
C559 H572 0.931 . S
C560 C559 1.291 . S
C560 C561 1.373 . S
C560 H573 0.929 . S
C561 C560 1.373 . S
C561 C562 1.396 . S
C561 C568 1.403 . S
C562 C552 1.476 . S
C562 N557 1.318 . S
C562 C561 1.396 . S
H563 C558 0.929 . S
O564 Mn540 2.385 . S
O564 C542 1.234 . S
O565 Mn540 2.209 . S
O565 Mn541 2.215 . S
O565 C542 1.283 . S
O566 Mn540 2.094 . S
O566 C544 1.240 . S
O567 Mn541 2.117 . S
O567 C544 1.264 . S
C568 C561 1.403 . S
C568 C569 1.399 . S
C568 H574 0.929 . S
C569 C549 1.449 . S
C569 C568 1.399 . S
C569 H575 0.930 . S
H570 C550 0.931 . S
H571 C551 0.930 . S
H572 C559 0.931 . S
H573 C560 0.929 . S
H574 C568 0.929 . S
H575 C569 0.930 . S
Mn576 O581 2.095 1_545 S
Mn576 O591 2.162 . S
Mn576 O592 2.297 . S
Mn576 O600 2.385 . S
Mn576 O601 2.209 . S
Mn576 O602 2.094 1_545 S
Mn577 O582 2.121 . S
Mn577 N584 2.257 1_565 S
Mn577 N593 2.282 1_565 S
Mn577 O601 2.215 1_565 S
Mn577 O603 2.117 . S
C578 O600 1.234 . S
C578 O601 1.283 . S
C579 O591 1.281 . S
C579 O592 1.236 . S
C580 O602 1.240 . S
C580 O603 1.264 . S
O581 Mn576 2.095 1_565 S
O581 C590 1.250 . S
O582 Mn577 2.121 . S
O582 C590 1.258 . S
C583 N584 1.326 1_565 S
C583 C587 1.460 1_665 S
C583 H589 0.929 . S
N584 Mn577 2.257 1_545 S
N584 C583 1.326 1_545 S
N584 C588 1.362 . S
C585 C586 1.258 . S
C585 C588 1.431 1_455 S
C585 C605 1.449 . S
C586 C585 1.258 . S
C586 C587 1.477 . S
C586 H606 0.931 . S
C587 C583 1.460 1_445 S
C587 C586 1.477 . S
C587 H607 0.918 1_545 S
C588 N584 1.362 . S
C588 C585 1.431 1_655 S
C588 C598 1.476 . S
H589 C583 0.929 . S
C590 O581 1.250 . S
C590 O582 1.258 . S
O591 Mn576 2.162 . S
O591 C579 1.281 . S
O592 Mn576 2.297 . S
O592 C579 1.236 . S
N593 Mn577 2.282 1_545 S
N593 C594 1.328 . S
N593 C598 1.318 . S
C594 N593 1.328 . S
C594 C595 1.457 . S
C594 H599 0.929 . S
C595 C594 1.457 . S
C595 C596 1.291 . S
C595 H608 0.931 . S
C596 C595 1.291 . S
C596 C597 1.373 . S
C596 H609 0.929 . S
C597 C596 1.373 . S
C597 C598 1.396 . S
C597 C604 1.403 . S
C598 C588 1.476 . S
C598 N593 1.318 . S
C598 C597 1.396 . S
H599 C594 0.929 . S
O600 Mn576 2.385 . S
O600 C578 1.234 . S
O601 Mn576 2.209 . S
O601 Mn577 2.215 1_545 S
O601 C578 1.283 . S
O602 Mn576 2.094 1_565 S
O602 C580 1.240 . S
O603 Mn577 2.117 . S
O603 C580 1.264 . S
C604 C597 1.403 . S
C604 C605 1.399 1_655 S
C604 H610 0.929 . S
C605 C585 1.449 . S
C605 C604 1.399 1_455 S
C605 H611 0.930 . S
H606 C586 0.931 . S
H607 C587 0.918 1_565 S
H608 C595 0.931 . S
H609 C596 0.929 . S
H610 C604 0.929 . S
H611 C605 0.930 . S
Mn612 O617 2.095 . S
Mn612 O627 2.162 . S
Mn612 O628 2.297 . S
Mn612 O636 2.385 . S
Mn612 O637 2.209 . S
Mn612 O638 2.094 . S
Mn613 O618 2.121 . S
Mn613 N620 2.257 . S
Mn613 N629 2.282 . S
Mn613 O637 2.215 . S
Mn613 O639 2.117 . S
C614 O636 1.234 . S
C614 O637 1.283 . S
C615 O627 1.281 . S
C615 O628 1.236 . S
C616 O638 1.240 . S
C616 O639 1.264 . S
O617 Mn612 2.095 . S
O617 C626 1.250 . S
O618 Mn613 2.121 . S
O618 C626 1.258 . S
C619 N620 1.326 . S
C619 C623 1.460 . S
C619 H625 0.929 . S
N620 Mn613 2.257 . S
N620 C619 1.326 . S
N620 C624 1.362 . S
C621 C622 1.258 . S
C621 C624 1.431 . S
C621 C641 1.449 . S
C622 C621 1.258 . S
C622 C623 1.477 . S
C622 H642 0.931 . S
C623 C619 1.460 . S
C623 C622 1.477 . S
C623 H643 0.930 . S
C624 N620 1.362 . S
C624 C621 1.431 . S
C624 C634 1.476 . S
H625 C619 0.929 . S
C626 O617 1.250 . S
C626 O618 1.258 . S
O627 Mn612 2.162 . S
O627 C615 1.281 . S
O628 Mn612 2.297 . S
O628 C615 1.236 . S
N629 Mn613 2.282 . S
N629 C630 1.328 . S
N629 C634 1.318 . S
C630 N629 1.328 . S
C630 C631 1.457 . S
C630 H635 0.929 . S
C631 C630 1.457 . S
C631 C632 1.291 . S
C631 H644 0.931 . S
C632 C631 1.291 . S
C632 C633 1.373 . S
C632 H645 0.929 . S
C633 C632 1.373 . S
C633 C634 1.396 . S
C633 C640 1.403 . S
C634 C624 1.476 . S
C634 N629 1.318 . S
C634 C633 1.396 . S
H635 C630 0.929 . S
O636 Mn612 2.385 . S
O636 C614 1.234 . S
O637 Mn612 2.209 . S
O637 Mn613 2.215 . S
O637 C614 1.283 . S
O638 Mn612 2.094 . S
O638 C616 1.240 . S
O639 Mn613 2.117 . S
O639 C616 1.264 . S
C640 C633 1.403 . S
C640 C641 1.399 . S
C640 H646 0.929 . S
C641 C621 1.449 . S
C641 C640 1.399 . S
C641 H647 0.930 . S
H642 C622 0.931 . S
H643 C623 0.930 . S
H644 C631 0.931 . S
H645 C632 0.929 . S
H646 C640 0.929 . S
H647 C641 0.930 . S
Mn648 O653 2.095 . S
Mn648 O663 2.162 . S
Mn648 O664 2.297 . S
Mn648 O672 2.385 . S
Mn648 O673 2.209 . S
Mn648 O674 2.094 . S
Mn649 O654 2.121 . S
Mn649 N656 2.257 . S
Mn649 N665 2.282 . S
Mn649 O673 2.215 . S
Mn649 O675 2.117 . S
C650 O672 1.234 . S
C650 O673 1.283 . S
C651 O663 1.281 . S
C651 O664 1.236 . S
C652 O674 1.240 . S
C652 O675 1.264 . S
O653 Mn648 2.095 . S
O653 C662 1.250 . S
O654 Mn649 2.121 . S
O654 C662 1.258 . S
C655 N656 1.326 . S
C655 C659 1.460 . S
C655 H661 0.929 . S
N656 Mn649 2.257 . S
N656 C655 1.326 . S
N656 C660 1.362 . S
C657 C658 1.258 . S
C657 C660 1.431 . S
C657 C677 1.449 . S
C658 C657 1.258 . S
C658 C659 1.477 . S
C658 H678 0.931 . S
C659 C655 1.460 . S
C659 C658 1.477 . S
C659 H679 0.930 . S
C660 N656 1.362 . S
C660 C657 1.431 . S
C660 C670 1.476 . S
H661 C655 0.929 . S
C662 O653 1.250 . S
C662 O654 1.258 . S
O663 Mn648 2.162 . S
O663 C651 1.281 . S
O664 Mn648 2.297 . S
O664 C651 1.236 . S
N665 Mn649 2.282 . S
N665 C666 1.328 . S
N665 C670 1.318 . S
C666 N665 1.328 . S
C666 C667 1.457 . S
C666 H671 0.929 . S
C667 C666 1.457 . S
C667 C668 1.291 . S
C667 H680 0.931 . S
C668 C667 1.291 . S
C668 C669 1.373 . S
C668 H681 0.929 . S
C669 C668 1.373 . S
C669 C670 1.396 . S
C669 C676 1.403 . S
C670 C660 1.476 . S
C670 N665 1.318 . S
C670 C669 1.396 . S
H671 C666 0.929 . S
O672 Mn648 2.385 . S
O672 C650 1.234 . S
O673 Mn648 2.209 . S
O673 Mn649 2.215 . S
O673 C650 1.283 . S
O674 Mn648 2.094 . S
O674 C652 1.240 . S
O675 Mn649 2.117 . S
O675 C652 1.264 . S
C676 C669 1.403 . S
C676 C677 1.399 . S
C676 H682 0.929 . S
C677 C657 1.449 . S
C677 C676 1.399 . S
C677 H683 0.930 . S
H678 C658 0.931 . S
H679 C659 0.930 . S
H680 C667 0.931 . S
H681 C668 0.929 . S
H682 C676 0.929 . S
H683 C677 0.930 . S
Mn684 O689 2.095 . S
Mn684 O699 2.162 1_545 S
Mn684 O700 2.297 1_545 S
Mn684 O708 2.385 1_545 S
Mn684 O709 2.209 1_545 S
Mn684 O710 2.094 . S
Mn685 O690 2.121 . S
Mn685 N692 2.257 . S
Mn685 N701 2.282 1_545 S
Mn685 O709 2.215 1_545 S
Mn685 O711 2.117 . S
C686 O708 1.234 . S
C686 O709 1.283 . S
C687 O699 1.281 . S
C687 O700 1.236 . S
C688 O710 1.240 . S
C688 O711 1.264 . S
O689 Mn684 2.095 . S
O689 C698 1.250 . S
O690 Mn685 2.121 . S
O690 C698 1.258 . S
C691 N692 1.326 . S
C691 C695 1.460 . S
C691 H697 0.929 . S
N692 Mn685 2.257 . S
N692 C691 1.326 . S
N692 C696 1.362 1_545 S
C693 C694 1.258 . S
C693 C696 1.431 . S
C693 C713 1.449 . S
C694 C693 1.258 . S
C694 C695 1.477 1_565 S
C694 H714 0.931 . S
C695 C691 1.460 . S
C695 C694 1.477 1_545 S
C695 H715 0.930 . S
C696 N692 1.362 1_565 S
C696 C693 1.431 . S
C696 C706 1.476 . S
H697 C691 0.929 . S
C698 O689 1.250 . S
C698 O690 1.258 . S
O699 Mn684 2.162 1_565 S
O699 C687 1.281 . S
O700 Mn684 2.297 1_565 S
O700 C687 1.236 . S
N701 Mn685 2.282 1_565 S
N701 C702 1.328 . S
N701 C706 1.318 . S
C702 N701 1.328 . S
C702 C703 1.457 . S
C702 H707 0.929 . S
C703 C702 1.457 . S
C703 C704 1.291 . S
C703 H716 0.931 . S
C704 C703 1.291 . S
C704 C705 1.373 . S
C704 H717 0.929 . S
C705 C704 1.373 . S
C705 C706 1.396 . S
C705 C712 1.403 . S
C706 C696 1.476 . S
C706 N701 1.318 . S
C706 C705 1.396 . S
H707 C702 0.929 . S
O708 Mn684 2.385 1_565 S
O708 C686 1.234 . S
O709 Mn684 2.209 1_565 S
O709 Mn685 2.215 1_565 S
O709 C686 1.283 . S
O710 Mn684 2.094 . S
O710 C688 1.240 . S
O711 Mn685 2.117 . S
O711 C688 1.264 . S
C712 C705 1.403 . S
C712 C713 1.399 . S
C712 H718 0.929 . S
C713 C693 1.449 . S
C713 C712 1.399 . S
C713 H719 0.930 . S
H714 C694 0.931 . S
H715 C695 0.930 . S
H716 C703 0.931 . S
H717 C704 0.929 . S
H718 C712 0.929 . S
H719 C713 0.930 . S
Mn720 O725 2.095 1_554 S
Mn720 O735 2.162 . S
Mn720 O736 2.297 . S
Mn720 O744 2.385 . S
Mn720 O745 2.209 . S
Mn720 O746 2.094 1_554 S
Mn721 O726 2.121 . S
Mn721 N728 2.257 . S
Mn721 N737 2.282 . S
Mn721 O745 2.215 1_556 S
Mn721 O747 2.117 . S
C722 O744 1.234 . S
C722 O745 1.283 . S
C723 O735 1.281 . S
C723 O736 1.236 . S
C724 O746 1.240 . S
C724 O747 1.264 . S
O725 Mn720 2.095 1_556 S
O725 C734 1.250 . S
O726 Mn721 2.121 . S
O726 C734 1.258 . S
C727 N728 1.326 . S
C727 C731 1.460 . S
C727 H733 0.929 . S
N728 Mn721 2.257 . S
N728 C727 1.326 . S
N728 C732 1.362 . S
C729 C730 1.258 . S
C729 C732 1.431 . S
C729 C749 1.449 . S
C730 C729 1.258 . S
C730 C731 1.477 . S
C730 H750 0.931 . S
C731 C727 1.460 . S
C731 C730 1.477 . S
C731 H751 0.930 . S
C732 N728 1.362 . S
C732 C729 1.431 . S
C732 C742 1.476 . S
H733 C727 0.929 . S
C734 O725 1.250 . S
C734 O726 1.258 . S
O735 Mn720 2.162 . S
O735 C723 1.281 . S
O736 Mn720 2.297 . S
O736 C723 1.236 . S
N737 Mn721 2.282 . S
N737 C738 1.328 . S
N737 C742 1.318 . S
C738 N737 1.328 . S
C738 C739 1.457 . S
C738 H743 0.929 . S
C739 C738 1.457 . S
C739 C740 1.291 . S
C739 H752 0.931 . S
C740 C739 1.291 . S
C740 C741 1.373 . S
C740 H753 0.929 . S
C741 C740 1.373 . S
C741 C742 1.396 . S
C741 C748 1.403 . S
C742 C732 1.476 . S
C742 N737 1.318 . S
C742 C741 1.396 . S
H743 C738 0.929 . S
O744 Mn720 2.385 . S
O744 C722 1.234 . S
O745 Mn720 2.209 . S
O745 Mn721 2.215 1_554 S
O745 C722 1.283 . S
O746 Mn720 2.094 1_556 S
O746 C724 1.240 . S
O747 Mn721 2.117 . S
O747 C724 1.264 . S
C748 C741 1.403 . S
C748 C749 1.399 . S
C748 H754 0.929 . S
C749 C729 1.449 . S
C749 C748 1.399 . S
C749 H755 0.930 . S
H750 C730 0.931 . S
H751 C731 0.930 . S
H752 C739 0.931 . S
H753 C740 0.929 . S
H754 C748 0.929 . S
H755 C749 0.930 . S
Mn756 O761 2.095 . S
Mn756 O771 2.162 . S
Mn756 O772 2.297 . S
Mn756 O780 2.385 . S
Mn756 O781 2.209 . S
Mn756 O782 2.094 . S
Mn757 O762 2.121 . S
Mn757 N764 2.257 . S
Mn757 N773 2.282 . S
Mn757 O781 2.215 . S
Mn757 O783 2.117 . S
C758 O780 1.234 . S
C758 O781 1.283 . S
C759 O771 1.281 . S
C759 O772 1.236 . S
C760 O782 1.240 . S
C760 O783 1.264 . S
O761 Mn756 2.095 . S
O761 C770 1.250 . S
O762 Mn757 2.121 . S
O762 C770 1.258 . S
C763 N764 1.326 . S
C763 C767 1.460 . S
C763 H769 0.929 . S
N764 Mn757 2.257 . S
N764 C763 1.326 . S
N764 C768 1.362 . S
C765 C766 1.258 . S
C765 C768 1.431 . S
C765 C785 1.449 . S
C766 C765 1.258 . S
C766 C767 1.477 . S
C766 H786 0.931 . S
C767 C763 1.460 . S
C767 C766 1.477 . S
C767 H787 0.930 . S
C768 N764 1.362 . S
C768 C765 1.431 . S
C768 C778 1.476 . S
H769 C763 0.929 . S
C770 O761 1.250 . S
C770 O762 1.258 . S
O771 Mn756 2.162 . S
O771 C759 1.281 . S
O772 Mn756 2.297 . S
O772 C759 1.236 . S
N773 Mn757 2.282 . S
N773 C774 1.328 . S
N773 C778 1.318 . S
C774 N773 1.328 . S
C774 C775 1.457 . S
C774 H779 0.929 . S
C775 C774 1.457 . S
C775 C776 1.291 . S
C775 H788 0.931 . S
C776 C775 1.291 . S
C776 C777 1.373 . S
C776 H789 0.929 . S
C777 C776 1.373 . S
C777 C778 1.396 . S
C777 C784 1.403 . S
C778 C768 1.476 . S
C778 N773 1.318 . S
C778 C777 1.396 . S
H779 C774 0.929 . S
O780 Mn756 2.385 . S
O780 C758 1.234 . S
O781 Mn756 2.209 . S
O781 Mn757 2.215 . S
O781 C758 1.283 . S
O782 Mn756 2.094 . S
O782 C760 1.240 . S
O783 Mn757 2.117 . S
O783 C760 1.264 . S
C784 C777 1.403 . S
C784 C785 1.399 . S
C784 H790 0.929 . S
C785 C765 1.449 . S
C785 C784 1.399 . S
C785 H791 0.930 . S
H786 C766 0.931 . S
H787 C767 0.930 . S
H788 C775 0.931 . S
H789 C776 0.929 . S
H790 C784 0.929 . S
H791 C785 0.930 . S
Mn792 O797 2.095 . S
Mn792 O807 2.162 . S
Mn792 O808 2.297 . S
Mn792 O816 2.385 . S
Mn792 O817 2.209 . S
Mn792 O818 2.094 . S
Mn793 O798 2.121 . S
Mn793 N800 2.257 . S
Mn793 N809 2.282 . S
Mn793 O817 2.215 . S
Mn793 O819 2.117 . S
C794 O816 1.234 . S
C794 O817 1.283 . S
C795 O807 1.281 . S
C795 O808 1.236 . S
C796 O818 1.240 . S
C796 O819 1.264 . S
O797 Mn792 2.095 . S
O797 C806 1.250 . S
O798 Mn793 2.121 . S
O798 C806 1.258 . S
C799 N800 1.326 . S
C799 C803 1.460 . S
C799 H805 0.929 . S
N800 Mn793 2.257 . S
N800 C799 1.326 . S
N800 C804 1.362 . S
C801 C802 1.258 . S
C801 C804 1.431 . S
C801 C821 1.449 . S
C802 C801 1.258 . S
C802 C803 1.477 . S
C802 H822 0.931 . S
C803 C799 1.460 . S
C803 C802 1.477 . S
C803 H823 0.930 . S
C804 N800 1.362 . S
C804 C801 1.431 . S
C804 C814 1.476 . S
H805 C799 0.929 . S
C806 O797 1.250 . S
C806 O798 1.258 . S
O807 Mn792 2.162 . S
O807 C795 1.281 . S
O808 Mn792 2.297 . S
O808 C795 1.236 . S
N809 Mn793 2.282 . S
N809 C810 1.328 . S
N809 C814 1.318 . S
C810 N809 1.328 . S
C810 C811 1.457 . S
C810 H815 0.929 . S
C811 C810 1.457 . S
C811 C812 1.291 . S
C811 H824 0.931 . S
C812 C811 1.291 . S
C812 C813 1.373 . S
C812 H825 0.929 . S
C813 C812 1.373 . S
C813 C814 1.396 . S
C813 C820 1.403 . S
C814 C804 1.476 . S
C814 N809 1.318 . S
C814 C813 1.396 . S
H815 C810 0.929 . S
O816 Mn792 2.385 . S
O816 C794 1.234 . S
O817 Mn792 2.209 . S
O817 Mn793 2.215 . S
O817 C794 1.283 . S
O818 Mn792 2.094 . S
O818 C796 1.240 . S
O819 Mn793 2.117 . S
O819 C796 1.264 . S
C820 C813 1.403 . S
C820 C821 1.399 . S
C820 H826 0.929 . S
C821 C801 1.449 . S
C821 C820 1.399 . S
C821 H827 0.930 . S
H822 C802 0.931 . S
H823 C803 0.930 . S
H824 C811 0.931 . S
H825 C812 0.929 . S
H826 C820 0.929 . S
H827 C821 0.930 . S
Mn828 O833 2.095 . S
Mn828 O843 2.162 . S
Mn828 O844 2.297 . S
Mn828 O852 2.385 . S
Mn828 O853 2.209 . S
Mn828 O854 2.094 . S
Mn829 O834 2.121 . S
Mn829 N836 2.257 . S
Mn829 N845 2.282 . S
Mn829 O853 2.215 . S
Mn829 O855 2.117 . S
C830 O852 1.234 . S
C830 O853 1.283 . S
C831 O843 1.281 . S
C831 O844 1.236 . S
C832 O854 1.240 . S
C832 O855 1.264 . S
O833 Mn828 2.095 . S
O833 C842 1.250 . S
O834 Mn829 2.121 . S
O834 C842 1.258 . S
C835 N836 1.326 . S
C835 C839 1.460 . S
C835 H841 0.929 . S
N836 Mn829 2.257 . S
N836 C835 1.326 . S
N836 C840 1.362 . S
C837 C838 1.258 . S
C837 C840 1.431 . S
C837 C857 1.449 . S
C838 C837 1.258 . S
C838 C839 1.477 . S
C838 H858 0.931 . S
C839 C835 1.460 . S
C839 C838 1.477 . S
C839 H859 0.930 . S
C840 N836 1.362 . S
C840 C837 1.431 . S
C840 C850 1.476 . S
H841 C835 0.929 . S
C842 O833 1.250 . S
C842 O834 1.258 . S
O843 Mn828 2.162 . S
O843 C831 1.281 . S
O844 Mn828 2.297 . S
O844 C831 1.236 . S
N845 Mn829 2.282 . S
N845 C846 1.328 . S
N845 C850 1.318 . S
C846 N845 1.328 . S
C846 C847 1.457 . S
C846 H851 0.929 . S
C847 C846 1.457 . S
C847 C848 1.291 . S
C847 H860 0.931 . S
C848 C847 1.291 . S
C848 C849 1.373 . S
C848 H861 0.929 . S
C849 C848 1.373 . S
C849 C850 1.396 . S
C849 C856 1.403 . S
C850 C840 1.476 . S
C850 N845 1.318 . S
C850 C849 1.396 . S
H851 C846 0.929 . S
O852 Mn828 2.385 . S
O852 C830 1.234 . S
O853 Mn828 2.209 . S
O853 Mn829 2.215 . S
O853 C830 1.283 . S
O854 Mn828 2.094 . S
O854 C832 1.240 . S
O855 Mn829 2.117 . S
O855 C832 1.264 . S
C856 C849 1.403 . S
C856 C857 1.399 . S
C856 H862 0.929 . S
C857 C837 1.449 . S
C857 C856 1.399 . S
C857 H863 0.930 . S
H858 C838 0.931 . S
H859 C839 0.930 . S
H860 C847 0.931 . S
H861 C848 0.929 . S
H862 C856 0.929 . S
H863 C857 0.930 . S
H864 C870 0.930 . S
H865 C874 0.930 . S
H866 C879 0.929 . S
H867 C877 0.929 . S
H868 C872 0.929 . S
H869 C878 0.929 . S
C870 H864 0.930 . S
C870 C871 1.367 . S
C870 C878 1.378 . S
C871 C870 1.367 . S
C871 C879 1.433 . S
C872 H868 0.929 . S
C872 C874 1.378 . S
C872 C876 1.350 . S
C873 C876 1.463 . S
C873 C878 1.350 . S
C873 N881 1.427 . S
C874 H865 0.930 . S
C874 C872 1.378 . S
C874 C875 1.367 . S
C875 C874 1.367 . S
C875 C877 1.433 . S
C876 C872 1.350 . S
C876 C873 1.463 . S
C876 N880 1.427 . S
C877 H867 0.929 . S
C877 C875 1.433 . S
C877 N880 1.384 . S
C878 H869 0.929 . S
C878 C870 1.378 . S
C878 C873 1.350 . S
C879 H866 0.929 . S
C879 C871 1.433 . S
C879 N881 1.384 . S
N880 C876 1.427 . S
N880 C877 1.384 . S
N881 C873 1.427 . S
N881 C879 1.384 . S
H882 C888 0.930 . S
H883 C892 0.930 . S
H884 C897 0.929 . S
H885 C895 0.929 . S
H886 C890 0.929 . S
H887 C896 0.929 . S
C888 H882 0.930 . S
C888 C889 1.367 . S
C888 C896 1.378 . S
C889 C888 1.367 . S
C889 C897 1.433 . S
C890 H886 0.929 . S
C890 C892 1.378 . S
C890 C894 1.350 . S
C891 C894 1.463 . S
C891 C896 1.350 . S
C891 N899 1.427 . S
C892 H883 0.930 . S
C892 C890 1.378 . S
C892 C893 1.367 . S
C893 C892 1.367 . S
C893 C895 1.433 . S
C894 C890 1.350 . S
C894 C891 1.463 . S
C894 N898 1.427 . S
C895 H885 0.929 . S
C895 C893 1.433 . S
C895 N898 1.384 . S
C896 H887 0.929 . S
C896 C888 1.378 . S
C896 C891 1.350 . S
C897 H884 0.929 . S
C897 C889 1.433 . S
C897 N899 1.384 . S
N898 C894 1.427 . S
N898 C895 1.384 . S
N899 C891 1.427 . S
N899 C897 1.384 . S
H900 C906 0.930 . S
H901 C910 0.930 . S
H902 C915 0.929 . S
H903 C913 0.929 . S
H904 C908 0.929 . S
H905 C914 0.929 . S
C906 H900 0.930 . S
C906 C907 1.367 . S
C906 C914 1.378 . S
C907 C906 1.367 . S
C907 C915 1.433 . S
C908 H904 0.929 . S
C908 C910 1.378 . S
C908 C912 1.350 . S
C909 C912 1.463 . S
C909 C914 1.350 . S
C909 N917 1.427 . S
C910 H901 0.930 . S
C910 C908 1.378 . S
C910 C911 1.367 . S
C911 C910 1.367 . S
C911 C913 1.433 . S
C912 C908 1.350 . S
C912 C909 1.463 . S
C912 N916 1.427 . S
C913 H903 0.929 . S
C913 C911 1.433 . S
C913 N916 1.384 . S
C914 H905 0.929 . S
C914 C906 1.378 . S
C914 C909 1.350 . S
C915 H902 0.929 . S
C915 C907 1.433 . S
C915 N917 1.384 . S
N916 C912 1.427 . S
N916 C913 1.384 . S
N917 C909 1.427 . S
N917 C915 1.384 . S
H918 C924 0.930 . S
H919 C928 0.930 . S
H920 C933 0.929 . S
H921 C931 0.929 . S
H922 C926 0.929 . S
H923 C932 0.929 . S
C924 H918 0.930 . S
C924 C925 1.367 . S
C924 C932 1.378 . S
C925 C924 1.367 . S
C925 C933 1.433 . S
C926 H922 0.929 . S
C926 C928 1.378 . S
C926 C930 1.350 . S
C927 C930 1.463 . S
C927 C932 1.350 . S
C927 N935 1.427 . S
C928 H919 0.930 . S
C928 C926 1.378 . S
C928 C929 1.367 . S
C929 C928 1.367 . S
C929 C931 1.433 . S
C930 C926 1.350 . S
C930 C927 1.463 . S
C930 N934 1.427 . S
C931 H921 0.929 . S
C931 C929 1.433 . S
C931 N934 1.384 . S
C932 H923 0.929 . S
C932 C924 1.378 . S
C932 C927 1.350 . S
C933 H920 0.929 . S
C933 C925 1.433 . S
C933 N935 1.384 . S
N934 C930 1.427 . S
N934 C931 1.384 . S
N935 C927 1.427 . S
N935 C933 1.384 . S
H936 C942 0.930 . S
H937 C946 0.930 . S
H938 C951 0.929 . S
H939 C949 0.929 . S
H940 C944 0.929 . S
H941 C950 0.929 . S
C942 H936 0.930 . S
C942 C943 1.367 . S
C942 C950 1.378 . S
C943 C942 1.367 . S
C943 C951 1.433 . S
C944 H940 0.929 . S
C944 C946 1.378 . S
C944 C948 1.350 . S
C945 C948 1.463 . S
C945 C950 1.350 . S
C945 N953 1.427 . S
C946 H937 0.930 . S
C946 C944 1.378 . S
C946 C947 1.367 . S
C947 C946 1.367 . S
C947 C949 1.433 . S
C948 C944 1.350 . S
C948 C945 1.463 . S
C948 N952 1.427 . S
C949 H939 0.929 . S
C949 C947 1.433 . S
C949 N952 1.384 . S
C950 H941 0.929 . S
C950 C942 1.378 . S
C950 C945 1.350 . S
C951 H938 0.929 . S
C951 C943 1.433 . S
C951 N953 1.384 . S
N952 C948 1.427 . S
N952 C949 1.384 . S
N953 C945 1.427 . S
N953 C951 1.384 . S
H954 C960 0.930 . S
H955 C964 0.930 . S
H956 C969 0.929 . S
H957 C967 0.929 . S
H958 C962 0.929 . S
H959 C968 0.929 . S
C960 H954 0.930 . S
C960 C961 1.367 . S
C960 C968 1.378 . S
C961 C960 1.367 . S
C961 C969 1.433 . S
C962 H958 0.929 . S
C962 C964 1.378 . S
C962 C966 1.350 . S
C963 C966 1.463 . S
C963 C968 1.350 . S
C963 N971 1.427 . S
C964 H955 0.930 . S
C964 C962 1.378 . S
C964 C965 1.367 . S
C965 C964 1.367 . S
C965 C967 1.433 . S
C966 C962 1.350 . S
C966 C963 1.463 . S
C966 N970 1.427 . S
C967 H957 0.929 . S
C967 C965 1.433 . S
C967 N970 1.384 . S
C968 H959 0.929 . S
C968 C960 1.378 . S
C968 C963 1.350 . S
C969 H956 0.929 . S
C969 C961 1.433 . S
C969 N971 1.384 . S
N970 C966 1.427 . S
N970 C967 1.384 . S
N971 C963 1.427 . S
N971 C969 1.384 . S
H972 C978 0.930 . S
H973 C982 0.930 . S
H974 C987 0.929 . S
H975 C985 0.929 . S
H976 C980 0.929 . S
H977 C986 0.929 . S
C978 H972 0.930 . S
C978 C979 1.367 . S
C978 C986 1.378 . S
C979 C978 1.367 . S
C979 C987 1.433 . S
C980 H976 0.929 . S
C980 C982 1.378 . S
C980 C984 1.350 . S
C981 C984 1.463 . S
C981 C986 1.350 . S
C981 N989 1.427 . S
C982 H973 0.930 . S
C982 C980 1.378 . S
C982 C983 1.367 . S
C983 C982 1.367 . S
C983 C985 1.433 . S
C984 C980 1.350 . S
C984 C981 1.463 . S
C984 N988 1.427 . S
C985 H975 0.929 . S
C985 C983 1.433 . S
C985 N988 1.384 . S
C986 H977 0.929 . S
C986 C978 1.378 . S
C986 C981 1.350 . S
C987 H974 0.929 . S
C987 C979 1.433 . S
C987 N989 1.384 . S
N988 C984 1.427 . S
N988 C985 1.384 . S
N989 C981 1.427 . S
N989 C987 1.384 . S
H990 C996 0.930 . S
H991 C1000 0.930 . S
H992 C1005 0.929 . S
H993 C1003 0.929 . S
H994 C998 0.929 . S
H995 C1004 0.929 . S
C996 H990 0.930 . S
C996 C997 1.367 . S
C996 C1004 1.378 . S
C997 C996 1.367 . S
C997 C1005 1.433 . S
C998 H994 0.929 . S
C998 C1000 1.378 . S
C998 C1002 1.350 . S
C999 C1002 1.463 . S
C999 C1004 1.350 . S
C999 N1007 1.427 . S
C1000 H991 0.930 . S
C1000 C998 1.378 . S
C1000 C1001 1.367 . S
C1001 C1000 1.367 . S
C1001 C1003 1.433 . S
C1002 C998 1.350 . S
C1002 C999 1.463 . S
C1002 N1006 1.427 . S
C1003 H993 0.929 . S
C1003 C1001 1.433 . S
C1003 N1006 1.384 . S
C1004 H995 0.929 . S
C1004 C996 1.378 . S
C1004 C999 1.350 . S
C1005 H992 0.929 . S
C1005 C997 1.433 . S
C1005 N1007 1.384 . S
N1006 C1002 1.427 . S
N1006 C1003 1.384 . S
N1007 C999 1.427 . S
N1007 C1005 1.384 . S
H1008 C1014 0.930 . S
H1009 C1018 0.930 . S
H1010 C1023 0.929 . S
H1011 C1021 0.929 . S
H1012 C1016 0.929 . S
H1013 C1022 0.929 . S
C1014 H1008 0.930 . S
C1014 C1015 1.367 . S
C1014 C1022 1.378 . S
C1015 C1014 1.367 . S
C1015 C1023 1.433 . S
C1016 H1012 0.929 . S
C1016 C1018 1.378 . S
C1016 C1020 1.350 . S
C1017 C1020 1.463 . S
C1017 C1022 1.350 . S
C1017 N1025 1.427 . S
C1018 H1009 0.930 . S
C1018 C1016 1.378 . S
C1018 C1019 1.367 . S
C1019 C1018 1.367 . S
C1019 C1021 1.433 . S
C1020 C1016 1.350 . S
C1020 C1017 1.463 . S
C1020 N1024 1.427 . S
C1021 H1011 0.929 . S
C1021 C1019 1.433 . S
C1021 N1024 1.384 . S
C1022 H1013 0.929 . S
C1022 C1014 1.378 . S
C1022 C1017 1.350 . S
C1023 H1010 0.929 . S
C1023 C1015 1.433 . S
C1023 N1025 1.384 . S
N1024 C1020 1.427 . S
N1024 C1021 1.384 . S
N1025 C1017 1.427 . S
N1025 C1023 1.384 . S
H1026 C1032 0.930 . S
H1027 C1036 0.930 . S
H1028 C1041 0.929 . S
H1029 C1039 0.929 . S
H1030 C1034 0.929 . S
H1031 C1040 0.929 . S
C1032 H1026 0.930 . S
C1032 C1033 1.367 . S
C1032 C1040 1.378 . S
C1033 C1032 1.367 . S
C1033 C1041 1.433 . S
C1034 H1030 0.929 . S
C1034 C1036 1.378 . S
C1034 C1038 1.350 . S
C1035 C1038 1.463 . S
C1035 C1040 1.350 . S
C1035 N1043 1.427 . S
C1036 H1027 0.930 . S
C1036 C1034 1.378 . S
C1036 C1037 1.367 . S
C1037 C1036 1.367 . S
C1037 C1039 1.433 . S
C1038 C1034 1.350 . S
C1038 C1035 1.463 . S
C1038 N1042 1.427 . S
C1039 H1029 0.929 . S
C1039 C1037 1.433 . S
C1039 N1042 1.384 . S
C1040 H1031 0.929 . S
C1040 C1032 1.378 . S
C1040 C1035 1.350 . S
C1041 H1028 0.929 . S
C1041 C1033 1.433 . S
C1041 N1043 1.384 . S
N1042 C1038 1.427 . S
N1042 C1039 1.384 . S
N1043 C1035 1.427 . S
N1043 C1041 1.384 . S
H1044 C1050 0.930 . S
H1045 C1054 0.930 . S
H1046 C1059 0.929 1_545 S
H1047 C1057 0.929 . S
H1048 C1052 0.929 . S
H1049 C1058 0.929 . S
C1050 H1044 0.930 . S
C1050 C1051 1.367 . S
C1050 C1058 1.378 . S
C1051 C1050 1.367 . S
C1051 C1059 1.433 . S
C1052 H1048 0.929 . S
C1052 C1054 1.378 . S
C1052 C1056 1.350 . S
C1053 C1056 1.463 . S
C1053 C1058 1.350 . S
C1053 N1061 1.427 . S
C1054 H1045 0.930 . S
C1054 C1052 1.378 . S
C1054 C1055 1.367 . S
C1055 C1054 1.367 . S
C1055 C1057 1.433 . S
C1056 C1052 1.350 . S
C1056 C1053 1.463 . S
C1056 N1060 1.427 . S
C1057 H1047 0.929 . S
C1057 C1055 1.433 . S
C1057 N1060 1.384 . S
C1058 H1049 0.929 . S
C1058 C1050 1.378 . S
C1058 C1053 1.350 . S
C1059 H1046 0.929 1_565 S
C1059 C1051 1.433 . S
C1059 N1061 1.384 . S
N1060 C1056 1.427 . S
N1060 C1057 1.384 . S
N1061 C1053 1.427 . S
N1061 C1059 1.384 . S
H1062 C1068 0.930 . S
H1063 C1072 0.930 1_545 S
H1064 C1077 0.929 . S
H1065 C1075 0.929 . S
H1066 C1070 0.929 . S
H1067 C1076 0.929 . S
C1068 H1062 0.930 . S
C1068 C1069 1.367 . S
C1068 C1076 1.378 . S
C1069 C1068 1.367 . S
C1069 C1077 1.433 . S
C1070 H1066 0.929 . S
C1070 C1072 1.378 . S
C1070 C1074 1.350 . S
C1071 C1074 1.463 . S
C1071 C1076 1.350 . S
C1071 N1079 1.427 . S
C1072 H1063 0.930 1_565 S
C1072 C1070 1.378 . S
C1072 C1073 1.367 . S
C1073 C1072 1.367 . S
C1073 C1075 1.433 . S
C1074 C1070 1.350 . S
C1074 C1071 1.463 . S
C1074 N1078 1.427 . S
C1075 H1065 0.929 . S
C1075 C1073 1.433 . S
C1075 N1078 1.384 . S
C1076 H1067 0.929 . S
C1076 C1068 1.378 . S
C1076 C1071 1.350 . S
C1077 H1064 0.929 . S
C1077 C1069 1.433 . S
C1077 N1079 1.384 . S
N1078 C1074 1.427 . S
N1078 C1075 1.384 . S
N1079 C1071 1.427 . S
N1079 C1077 1.384 . S
H1080 C1086 0.930 . S
H1081 C1090 0.930 . S
H1082 C1095 0.929 . S
H1083 C1093 0.929 . S
H1084 C1088 0.929 . S
H1085 C1094 0.929 . S
C1086 H1080 0.930 . S
C1086 C1087 1.367 . S
C1086 C1094 1.378 . S
C1087 C1086 1.367 . S
C1087 C1095 1.433 . S
C1088 H1084 0.929 . S
C1088 C1090 1.378 . S
C1088 C1092 1.350 . S
C1089 C1092 1.463 . S
C1089 C1094 1.350 . S
C1089 N1097 1.427 . S
C1090 H1081 0.930 . S
C1090 C1088 1.378 . S
C1090 C1091 1.367 . S
C1091 C1090 1.367 . S
C1091 C1093 1.433 . S
C1092 C1088 1.350 . S
C1092 C1089 1.463 . S
C1092 N1096 1.427 . S
C1093 H1083 0.929 . S
C1093 C1091 1.433 . S
C1093 N1096 1.384 . S
C1094 H1085 0.929 . S
C1094 C1086 1.378 . S
C1094 C1089 1.350 . S
C1095 H1082 0.929 . S
C1095 C1087 1.433 . S
C1095 N1097 1.384 . S
N1096 C1092 1.427 . S
N1096 C1093 1.384 . S
N1097 C1089 1.427 . S
N1097 C1095 1.384 . S
H1098 C1104 0.930 1_455 S
H1099 C1108 0.930 . S
H1100 C1113 0.929 . S
H1101 C1111 0.929 . S
H1102 C1106 0.929 . S
H1103 C1112 0.929 . S
C1104 H1098 0.930 1_655 S
C1104 C1105 1.367 . S
C1104 C1112 1.378 . S
C1105 C1104 1.367 . S
C1105 C1113 1.433 . S
C1106 H1102 0.929 . S
C1106 C1108 1.378 . S
C1106 C1110 1.350 . S
C1107 C1110 1.463 . S
C1107 C1112 1.350 . S
C1107 N1115 1.427 . S
C1108 H1099 0.930 . S
C1108 C1106 1.378 . S
C1108 C1109 1.367 . S
C1109 C1108 1.367 . S
C1109 C1111 1.433 . S
C1110 C1106 1.350 . S
C1110 C1107 1.463 . S
C1110 N1114 1.427 . S
C1111 H1101 0.929 . S
C1111 C1109 1.433 . S
C1111 N1114 1.384 . S
C1112 H1103 0.929 . S
C1112 C1104 1.378 . S
C1112 C1107 1.350 . S
C1113 H1100 0.929 . S
C1113 C1105 1.433 . S
C1113 N1115 1.384 . S
N1114 C1110 1.427 . S
N1114 C1111 1.384 . S
N1115 C1107 1.427 . S
N1115 C1113 1.384 . S
H1116 C1122 0.930 . S
H1117 C1126 0.930 . S
H1118 C1131 0.929 . S
H1119 C1129 0.929 . S
H1120 C1124 0.929 . S
H1121 C1130 0.929 . S
C1122 H1116 0.930 . S
C1122 C1123 1.367 . S
C1122 C1130 1.378 . S
C1123 C1122 1.367 . S
C1123 C1131 1.433 . S
C1124 H1120 0.929 . S
C1124 C1126 1.378 . S
C1124 C1128 1.350 . S
C1125 C1128 1.463 . S
C1125 C1130 1.350 . S
C1125 N1133 1.427 . S
C1126 H1117 0.930 . S
C1126 C1124 1.378 . S
C1126 C1127 1.367 . S
C1127 C1126 1.367 . S
C1127 C1129 1.433 . S
C1128 C1124 1.350 . S
C1128 C1125 1.463 . S
C1128 N1132 1.427 . S
C1129 H1119 0.929 . S
C1129 C1127 1.433 . S
C1129 N1132 1.384 . S
C1130 H1121 0.929 . S
C1130 C1122 1.378 . S
C1130 C1125 1.350 . S
C1131 H1118 0.929 . S
C1131 C1123 1.433 . S
C1131 N1133 1.384 . S
N1132 C1128 1.427 . S
N1132 C1129 1.384 . S
N1133 C1125 1.427 . S
N1133 C1131 1.384 . S
H1134 C1140 0.930 . S
H1135 C1144 0.930 . S
H1136 C1149 0.929 . S
H1137 C1147 0.929 . S
H1138 C1142 0.929 . S
H1139 C1148 0.929 . S
C1140 H1134 0.930 . S
C1140 C1141 1.367 . S
C1140 C1148 1.378 . S
C1141 C1140 1.367 . S
C1141 C1149 1.433 . S
C1142 H1138 0.929 . S
C1142 C1144 1.378 . S
C1142 C1146 1.350 . S
C1143 C1146 1.463 . S
C1143 C1148 1.350 . S
C1143 N1151 1.427 . S
C1144 H1135 0.930 . S
C1144 C1142 1.378 . S
C1144 C1145 1.367 . S
C1145 C1144 1.367 . S
C1145 C1147 1.433 . S
C1146 C1142 1.350 . S
C1146 C1143 1.463 . S
C1146 N1150 1.427 . S
C1147 H1137 0.929 . S
C1147 C1145 1.433 . S
C1147 N1150 1.384 . S
C1148 H1139 0.929 . S
C1148 C1140 1.378 . S
C1148 C1143 1.350 . S
C1149 H1136 0.929 . S
C1149 C1141 1.433 . S
C1149 N1151 1.384 . S
N1150 C1146 1.427 . S
N1150 C1147 1.384 . S
N1151 C1143 1.427 . S
N1151 C1149 1.384 . S
H1152 C1158 0.930 . S
H1153 C1162 0.930 . S
H1154 C1167 0.929 . S
H1155 C1165 0.929 . S
H1156 C1160 0.929 . S
H1157 C1166 0.929 . S
C1158 H1152 0.930 . S
C1158 C1159 1.367 . S
C1158 C1166 1.378 . S
C1159 C1158 1.367 . S
C1159 C1167 1.433 . S
C1160 H1156 0.929 . S
C1160 C1162 1.378 . S
C1160 C1164 1.350 . S
C1161 C1164 1.463 . S
C1161 C1166 1.350 . S
C1161 N1169 1.427 . S
C1162 H1153 0.930 . S
C1162 C1160 1.378 . S
C1162 C1163 1.367 . S
C1163 C1162 1.367 . S
C1163 C1165 1.433 . S
C1164 C1160 1.350 . S
C1164 C1161 1.463 . S
C1164 N1168 1.427 . S
C1165 H1155 0.929 . S
C1165 C1163 1.433 . S
C1165 N1168 1.384 . S
C1166 H1157 0.929 . S
C1166 C1158 1.378 . S
C1166 C1161 1.350 . S
C1167 H1154 0.929 . S
C1167 C1159 1.433 . S
C1167 N1169 1.384 . S
N1168 C1164 1.427 . S
N1168 C1165 1.384 . S
N1169 C1161 1.427 . S
N1169 C1167 1.384 . S
H1170 C1176 0.930 . S
H1171 C1180 0.930 . S
H1172 C1185 0.929 . S
H1173 C1183 0.929 . S
H1174 C1178 0.929 . S
H1175 C1184 0.929 . S
C1176 H1170 0.930 . S
C1176 C1177 1.367 . S
C1176 C1184 1.378 . S
C1177 C1176 1.367 . S
C1177 C1185 1.433 . S
C1178 H1174 0.929 . S
C1178 C1180 1.378 . S
C1178 C1182 1.350 . S
C1179 C1182 1.463 . S
C1179 C1184 1.350 . S
C1179 N1187 1.427 . S
C1180 H1171 0.930 . S
C1180 C1178 1.378 . S
C1180 C1181 1.367 . S
C1181 C1180 1.367 . S
C1181 C1183 1.433 . S
C1182 C1178 1.350 . S
C1182 C1179 1.463 . S
C1182 N1186 1.427 . S
C1183 H1173 0.929 . S
C1183 C1181 1.433 . S
C1183 N1186 1.384 . S
C1184 H1175 0.929 . S
C1184 C1176 1.378 . S
C1184 C1179 1.350 . S
C1185 H1172 0.929 . S
C1185 C1177 1.433 . S
C1185 N1187 1.384 . S
N1186 C1182 1.427 . S
N1186 C1183 1.384 . S
N1187 C1179 1.427 . S
N1187 C1185 1.384 . S
H1188 C1194 0.930 . S
H1189 C1198 0.930 . S
H1190 C1203 0.929 . S
H1191 C1201 0.929 . S
H1192 C1196 0.929 . S
H1193 C1202 0.929 . S
C1194 H1188 0.930 . S
C1194 C1195 1.367 . S
C1194 C1202 1.378 . S
C1195 C1194 1.367 . S
C1195 C1203 1.433 . S
C1196 H1192 0.929 . S
C1196 C1198 1.378 . S
C1196 C1200 1.350 . S
C1197 C1200 1.463 . S
C1197 C1202 1.350 . S
C1197 N1205 1.427 . S
C1198 H1189 0.930 . S
C1198 C1196 1.378 . S
C1198 C1199 1.367 . S
C1199 C1198 1.367 . S
C1199 C1201 1.433 . S
C1200 C1196 1.350 . S
C1200 C1197 1.463 . S
C1200 N1204 1.427 . S
C1201 H1191 0.929 . S
C1201 C1199 1.433 . S
C1201 N1204 1.384 . S
C1202 H1193 0.929 . S
C1202 C1194 1.378 . S
C1202 C1197 1.350 . S
C1203 H1190 0.929 . S
C1203 C1195 1.433 . S
C1203 N1205 1.384 . S
N1204 C1200 1.427 . S
N1204 C1201 1.384 . S
N1205 C1197 1.427 . S
N1205 C1203 1.384 . S
H1206 C1212 0.930 . S
H1207 C1216 0.930 . S
H1208 C1221 0.929 . S
H1209 C1219 0.929 . S
H1210 C1214 0.929 . S
H1211 C1220 0.929 . S
C1212 H1206 0.930 . S
C1212 C1213 1.367 . S
C1212 C1220 1.378 . S
C1213 C1212 1.367 . S
C1213 C1221 1.433 . S
C1214 H1210 0.929 . S
C1214 C1216 1.378 . S
C1214 C1218 1.350 . S
C1215 C1218 1.463 . S
C1215 C1220 1.350 . S
C1215 N1223 1.427 . S
C1216 H1207 0.930 . S
C1216 C1214 1.378 . S
C1216 C1217 1.367 . S
C1217 C1216 1.367 . S
C1217 C1219 1.433 . S
C1218 C1214 1.350 . S
C1218 C1215 1.463 . S
C1218 N1222 1.427 . S
C1219 H1209 0.929 . S
C1219 C1217 1.433 . S
C1219 N1222 1.384 . S
C1220 H1211 0.929 . S
C1220 C1212 1.378 . S
C1220 C1215 1.350 . S
C1221 H1208 0.929 . S
C1221 C1213 1.433 . S
C1221 N1223 1.384 . S
N1222 C1218 1.427 . S
N1222 C1219 1.384 . S
N1223 C1215 1.427 . S
N1223 C1221 1.384 . S
H1224 C1230 0.930 . S
H1225 C1234 0.930 . S
H1226 C1239 0.929 . S
H1227 C1237 0.929 . S
H1228 C1232 0.929 . S
H1229 C1238 0.929 . S
C1230 H1224 0.930 . S
C1230 C1231 1.367 . S
C1230 C1238 1.378 . S
C1231 C1230 1.367 . S
C1231 C1239 1.433 . S
C1232 H1228 0.929 . S
C1232 C1234 1.378 . S
C1232 C1236 1.350 . S
C1233 C1236 1.463 . S
C1233 C1238 1.350 . S
C1233 N1241 1.427 . S
C1234 H1225 0.930 . S
C1234 C1232 1.378 . S
C1234 C1235 1.367 . S
C1235 C1234 1.367 . S
C1235 C1237 1.433 . S
C1236 C1232 1.350 . S
C1236 C1233 1.463 . S
C1236 N1240 1.427 . S
C1237 H1227 0.929 . S
C1237 C1235 1.433 . S
C1237 N1240 1.384 . S
C1238 H1229 0.929 . S
C1238 C1230 1.378 . S
C1238 C1233 1.350 . S
C1239 H1226 0.929 . S
C1239 C1231 1.433 . S
C1239 N1241 1.384 . S
N1240 C1236 1.427 . S
N1240 C1237 1.384 . S
N1241 C1233 1.427 . S
N1241 C1239 1.384 . S
H1242 C1248 0.930 . S
H1243 C1252 0.930 . S
H1244 C1257 0.929 . S
H1245 C1255 0.929 . S
H1246 C1250 0.929 . S
H1247 C1256 0.929 . S
C1248 H1242 0.930 . S
C1248 C1249 1.367 . S
C1248 C1256 1.378 . S
C1249 C1248 1.367 . S
C1249 C1257 1.433 . S
C1250 H1246 0.929 . S
C1250 C1252 1.378 . S
C1250 C1254 1.350 . S
C1251 C1254 1.463 . S
C1251 C1256 1.350 . S
C1251 N1259 1.427 . S
C1252 H1243 0.930 . S
C1252 C1250 1.378 . S
C1252 C1253 1.367 . S
C1253 C1252 1.367 . S
C1253 C1255 1.433 . S
C1254 C1250 1.350 . S
C1254 C1251 1.463 . S
C1254 N1258 1.427 . S
C1255 H1245 0.929 . S
C1255 C1253 1.433 . S
C1255 N1258 1.384 . S
C1256 H1247 0.929 . S
C1256 C1248 1.378 . S
C1256 C1251 1.350 . S
C1257 H1244 0.929 . S
C1257 C1249 1.433 . S
C1257 N1259 1.384 . S
N1258 C1254 1.427 . S
N1258 C1255 1.384 . S
N1259 C1251 1.427 . S
N1259 C1257 1.384 . S
H1260 C1266 0.930 . S
H1261 C1270 0.930 . S
H1262 C1275 0.929 . S
H1263 C1273 0.929 . S
H1264 C1268 0.929 . S
H1265 C1274 0.929 . S
C1266 H1260 0.930 . S
C1266 C1267 1.367 . S
C1266 C1274 1.378 . S
C1267 C1266 1.367 . S
C1267 C1275 1.433 . S
C1268 H1264 0.929 . S
C1268 C1270 1.378 . S
C1268 C1272 1.350 . S
C1269 C1272 1.463 . S
C1269 C1274 1.350 . S
C1269 N1277 1.427 . S
C1270 H1261 0.930 . S
C1270 C1268 1.378 . S
C1270 C1271 1.367 . S
C1271 C1270 1.367 . S
C1271 C1273 1.433 . S
C1272 C1268 1.350 . S
C1272 C1269 1.463 . S
C1272 N1276 1.427 . S
C1273 H1263 0.929 . S
C1273 C1271 1.433 . S
C1273 N1276 1.384 . S
C1274 H1265 0.929 . S
C1274 C1266 1.378 . S
C1274 C1269 1.350 . S
C1275 H1262 0.929 . S
C1275 C1267 1.433 . S
C1275 N1277 1.384 . S
N1276 C1272 1.427 . S
N1276 C1273 1.384 . S
N1277 C1269 1.427 . S
N1277 C1275 1.384 . S
H1278 C1284 0.930 . S
H1279 C1288 0.930 . S
H1280 C1293 0.929 . S
H1281 C1291 0.928 . S
H1282 C1286 0.929 . S
H1283 C1292 0.929 . S
C1284 H1278 0.930 . S
C1284 C1285 1.367 . S
C1284 C1292 1.378 . S
C1285 C1284 1.367 . S
C1285 C1293 1.433 . S
C1286 H1282 0.929 . S
C1286 C1288 1.378 . S
C1286 C1290 1.350 . S
C1287 C1290 1.463 . S
C1287 C1292 1.350 . S
C1287 N1295 1.427 . S
C1288 H1279 0.930 . S
C1288 C1286 1.378 . S
C1288 C1289 1.367 . S
C1289 C1288 1.367 . S
C1289 C1291 1.433 . S
C1290 C1286 1.350 . S
C1290 C1287 1.463 . S
C1290 N1294 1.427 . S
C1291 H1281 0.928 . S
C1291 C1289 1.433 . S
C1291 N1294 1.384 . S
C1292 H1283 0.929 . S
C1292 C1284 1.378 . S
C1292 C1287 1.350 . S
C1293 H1280 0.929 . S
C1293 C1285 1.433 . S
C1293 N1295 1.384 . S
N1294 C1290 1.427 . S
N1294 C1291 1.384 . S
N1295 C1287 1.427 . S
N1295 C1293 1.384 . S
H1296 C1302 0.930 . S
H1297 C1306 0.930 . S
H1298 C1311 0.929 . S
H1299 C1309 0.929 . S
H1300 C1304 0.929 . S
H1301 C1310 0.929 . S
C1302 H1296 0.930 . S
C1302 C1303 1.367 . S
C1302 C1310 1.378 . S
C1303 C1302 1.367 . S
C1303 C1311 1.433 . S
C1304 H1300 0.929 . S
C1304 C1306 1.378 . S
C1304 C1308 1.350 . S
C1305 C1308 1.463 . S
C1305 C1310 1.350 . S
C1305 N1313 1.427 . S
C1306 H1297 0.930 . S
C1306 C1304 1.378 . S
C1306 C1307 1.367 . S
C1307 C1306 1.367 . S
C1307 C1309 1.433 . S
C1308 C1304 1.350 . S
C1308 C1305 1.463 . S
C1308 N1312 1.427 . S
C1309 H1299 0.929 . S
C1309 C1307 1.433 . S
C1309 N1312 1.384 . S
C1310 H1301 0.929 . S
C1310 C1302 1.378 . S
C1310 C1305 1.350 . S
C1311 H1298 0.929 . S
C1311 C1303 1.433 . S
C1311 N1313 1.384 . S
N1312 C1308 1.427 . S
N1312 C1309 1.384 . S
N1313 C1305 1.427 . S
N1313 C1311 1.384 . S
H1314 C1320 0.930 . S
H1315 C1324 0.930 . S
H1316 C1329 0.929 . S
H1317 C1327 0.929 . S
H1318 C1322 0.929 . S
H1319 C1328 0.929 . S
C1320 H1314 0.930 . S
C1320 C1321 1.367 . S
C1320 C1328 1.378 . S
C1321 C1320 1.367 . S
C1321 C1329 1.433 . S
C1322 H1318 0.929 . S
C1322 C1324 1.378 . S
C1322 C1326 1.350 . S
C1323 C1326 1.463 . S
C1323 C1328 1.350 . S
C1323 N1331 1.427 . S
C1324 H1315 0.930 . S
C1324 C1322 1.378 . S
C1324 C1325 1.367 . S
C1325 C1324 1.367 . S
C1325 C1327 1.433 . S
C1326 C1322 1.350 . S
C1326 C1323 1.463 . S
C1326 N1330 1.427 . S
C1327 H1317 0.929 . S
C1327 C1325 1.433 . S
C1327 N1330 1.384 . S
C1328 H1319 0.929 . S
C1328 C1320 1.378 . S
C1328 C1323 1.350 . S
C1329 H1316 0.929 . S
C1329 C1321 1.433 . S
C1329 N1331 1.384 . S
N1330 C1326 1.427 . S
N1330 C1327 1.384 . S
N1331 C1323 1.427 . S
N1331 C1329 1.384 . S
H1332 C1338 0.930 . S
H1333 C1342 0.930 . S
H1334 C1347 0.929 . S
H1335 C1345 0.929 . S
H1336 C1340 0.929 . S
H1337 C1346 0.929 . S
C1338 H1332 0.930 . S
C1338 C1339 1.367 . S
C1338 C1346 1.378 . S
C1339 C1338 1.367 . S
C1339 C1347 1.433 . S
C1340 H1336 0.929 . S
C1340 C1342 1.378 . S
C1340 C1344 1.350 . S
C1341 C1344 1.463 . S
C1341 C1346 1.350 . S
C1341 N1349 1.427 . S
C1342 H1333 0.930 . S
C1342 C1340 1.378 . S
C1342 C1343 1.367 . S
C1343 C1342 1.367 . S
C1343 C1345 1.433 . S
C1344 C1340 1.350 . S
C1344 C1341 1.463 . S
C1344 N1348 1.427 . S
C1345 H1335 0.929 . S
C1345 C1343 1.433 . S
C1345 N1348 1.384 . S
C1346 H1337 0.929 . S
C1346 C1338 1.378 . S
C1346 C1341 1.350 . S
C1347 H1334 0.929 . S
C1347 C1339 1.433 . S
C1347 N1349 1.384 . S
N1348 C1344 1.427 . S
N1348 C1345 1.384 . S
N1349 C1341 1.427 . S
N1349 C1347 1.384 . S
H1350 C1356 0.930 . S
H1351 C1360 0.930 1_554 S
H1352 C1365 0.929 . S
H1353 C1363 0.929 . S
H1354 C1358 0.929 . S
H1355 C1364 0.929 . S
C1356 H1350 0.930 . S
C1356 C1357 1.367 . S
C1356 C1364 1.378 . S
C1357 C1356 1.367 . S
C1357 C1365 1.433 . S
C1358 H1354 0.929 . S
C1358 C1360 1.378 . S
C1358 C1362 1.350 . S
C1359 C1362 1.463 . S
C1359 C1364 1.350 . S
C1359 N1367 1.427 . S
C1360 H1351 0.930 1_556 S
C1360 C1358 1.378 . S
C1360 C1361 1.367 . S
C1361 C1360 1.367 . S
C1361 C1363 1.433 . S
C1362 C1358 1.350 . S
C1362 C1359 1.463 . S
C1362 N1366 1.427 . S
C1363 H1353 0.929 . S
C1363 C1361 1.433 . S
C1363 N1366 1.384 . S
C1364 H1355 0.929 . S
C1364 C1356 1.378 . S
C1364 C1359 1.350 . S
C1365 H1352 0.929 . S
C1365 C1357 1.433 . S
C1365 N1367 1.384 . S
N1366 C1362 1.427 . S
N1366 C1363 1.384 . S
N1367 C1359 1.427 . S
N1367 C1365 1.384 . S
H1368 C1374 0.930 . S
H1369 C1378 0.930 . S
H1370 C1383 0.929 . S
H1371 C1381 0.929 . S
H1372 C1376 0.929 . S
H1373 C1382 0.929 . S
C1374 H1368 0.930 . S
C1374 C1375 1.367 . S
C1374 C1382 1.378 . S
C1375 C1374 1.367 . S
C1375 C1383 1.433 . S
C1376 H1372 0.929 . S
C1376 C1378 1.378 . S
C1376 C1380 1.350 . S
C1377 C1380 1.463 . S
C1377 C1382 1.350 . S
C1377 N1385 1.427 . S
C1378 H1369 0.930 . S
C1378 C1376 1.378 . S
C1378 C1379 1.367 . S
C1379 C1378 1.367 . S
C1379 C1381 1.433 . S
C1380 C1376 1.350 . S
C1380 C1377 1.463 . S
C1380 N1384 1.427 . S
C1381 H1371 0.929 . S
C1381 C1379 1.433 . S
C1381 N1384 1.384 . S
C1382 H1373 0.929 . S
C1382 C1374 1.378 . S
C1382 C1377 1.350 . S
C1383 H1370 0.929 . S
C1383 C1375 1.433 . S
C1383 N1385 1.384 . S
N1384 C1380 1.427 . S
N1384 C1381 1.384 . S
N1385 C1377 1.427 . S
N1385 C1383 1.384 . S
H1386 C1392 0.930 . S
H1387 C1396 0.930 . S
H1388 C1401 0.929 . S
H1389 C1399 0.929 . S
H1390 C1394 0.929 . S
H1391 C1400 0.929 . S
C1392 H1386 0.930 . S
C1392 C1393 1.367 . S
C1392 C1400 1.378 . S
C1393 C1392 1.367 . S
C1393 C1401 1.433 . S
C1394 H1390 0.929 . S
C1394 C1396 1.378 . S
C1394 C1398 1.350 . S
C1395 C1398 1.463 . S
C1395 C1400 1.350 . S
C1395 N1403 1.427 . S
C1396 H1387 0.930 . S
C1396 C1394 1.378 . S
C1396 C1397 1.367 . S
C1397 C1396 1.367 . S
C1397 C1399 1.433 . S
C1398 C1394 1.350 . S
C1398 C1395 1.463 . S
C1398 N1402 1.427 . S
C1399 H1389 0.929 . S
C1399 C1397 1.433 . S
C1399 N1402 1.384 . S
C1400 H1391 0.929 . S
C1400 C1392 1.378 . S
C1400 C1395 1.350 . S
C1401 H1388 0.929 . S
C1401 C1393 1.433 . S
C1401 N1403 1.384 . S
N1402 C1398 1.427 . S
N1402 C1399 1.384 . S
N1403 C1395 1.427 . S
N1403 C1401 1.384 . S
H1404 C1410 0.930 . S
H1405 C1414 0.930 . S
H1406 C1419 0.929 . S
H1407 C1417 0.929 . S
H1408 C1412 0.929 . S
H1409 C1418 0.929 . S
C1410 H1404 0.930 . S
C1410 C1411 1.367 . S
C1410 C1418 1.378 . S
C1411 C1410 1.367 . S
C1411 C1419 1.433 . S
C1412 H1408 0.929 . S
C1412 C1414 1.378 . S
C1412 C1416 1.350 . S
C1413 C1416 1.463 . S
C1413 C1418 1.350 . S
C1413 N1421 1.427 . S
C1414 H1405 0.930 . S
C1414 C1412 1.378 . S
C1414 C1415 1.367 . S
C1415 C1414 1.367 . S
C1415 C1417 1.433 . S
C1416 C1412 1.350 . S
C1416 C1413 1.463 . S
C1416 N1420 1.427 . S
C1417 H1407 0.929 . S
C1417 C1415 1.433 . S
C1417 N1420 1.384 . S
C1418 H1409 0.929 . S
C1418 C1410 1.378 . S
C1418 C1413 1.350 . S
C1419 H1406 0.929 . S
C1419 C1411 1.433 . S
C1419 N1421 1.384 . S
N1420 C1416 1.427 . S
N1420 C1417 1.384 . S
N1421 C1413 1.427 . S
N1421 C1419 1.384 . S
H1422 C1428 0.930 . S
H1423 C1432 0.930 . S
H1424 C1437 0.929 . S
H1425 C1435 0.929 . S
H1426 C1430 0.929 . S
H1427 C1436 0.929 . S
C1428 H1422 0.930 . S
C1428 C1429 1.367 . S
C1428 C1436 1.378 . S
C1429 C1428 1.367 . S
C1429 C1437 1.433 . S
C1430 H1426 0.929 . S
C1430 C1432 1.378 . S
C1430 C1434 1.350 . S
C1431 C1434 1.463 . S
C1431 C1436 1.350 . S
C1431 N1439 1.427 . S
C1432 H1423 0.930 . S
C1432 C1430 1.378 . S
C1432 C1433 1.367 . S
C1433 C1432 1.367 . S
C1433 C1435 1.433 . S
C1434 C1430 1.350 . S
C1434 C1431 1.463 . S
C1434 N1438 1.427 . S
C1435 H1425 0.929 . S
C1435 C1433 1.433 . S
C1435 N1438 1.384 . S
C1436 H1427 0.929 . S
C1436 C1428 1.378 . S
C1436 C1431 1.350 . S
C1437 H1424 0.929 . S
C1437 C1429 1.433 . S
C1437 N1439 1.384 . S
N1438 C1434 1.427 . S
N1438 C1435 1.384 . S
N1439 C1431 1.427 . S
N1439 C1437 1.384 . S
H1440 C1446 0.930 . S
H1441 C1450 0.930 . S
H1442 C1455 0.929 . S
H1443 C1453 0.929 . S
H1444 C1448 0.929 . S
H1445 C1454 0.929 . S
C1446 H1440 0.930 . S
C1446 C1447 1.367 . S
C1446 C1454 1.378 . S
C1447 C1446 1.367 . S
C1447 C1455 1.433 . S
C1448 H1444 0.929 . S
C1448 C1450 1.378 . S
C1448 C1452 1.350 . S
C1449 C1452 1.463 . S
C1449 C1454 1.350 . S
C1449 N1457 1.427 . S
C1450 H1441 0.930 . S
C1450 C1448 1.378 . S
C1450 C1451 1.367 . S
C1451 C1450 1.367 . S
C1451 C1453 1.433 . S
C1452 C1448 1.350 . S
C1452 C1449 1.463 . S
C1452 N1456 1.427 . S
C1453 H1443 0.929 . S
C1453 C1451 1.433 . S
C1453 N1456 1.384 . S
C1454 H1445 0.929 . S
C1454 C1446 1.378 . S
C1454 C1449 1.350 . S
C1455 H1442 0.929 . S
C1455 C1447 1.433 . S
C1455 N1457 1.384 . S
N1456 C1452 1.427 . S
N1456 C1453 1.384 . S
N1457 C1449 1.427 . S
N1457 C1455 1.384 . S
H1458 C1464 0.930 . S
H1459 C1468 0.930 . S
H1460 C1473 0.929 1_554 S
H1461 C1471 0.929 . S
H1462 C1466 0.929 . S
H1463 C1472 0.929 . S
C1464 H1458 0.930 . S
C1464 C1465 1.367 . S
C1464 C1472 1.378 . S
C1465 C1464 1.367 . S
C1465 C1473 1.433 . S
C1466 H1462 0.929 . S
C1466 C1468 1.378 . S
C1466 C1470 1.350 . S
C1467 C1470 1.463 . S
C1467 C1472 1.350 . S
C1467 N1475 1.427 . S
C1468 H1459 0.930 . S
C1468 C1466 1.378 . S
C1468 C1469 1.367 . S
C1469 C1468 1.367 . S
C1469 C1471 1.433 . S
C1470 C1466 1.350 . S
C1470 C1467 1.463 . S
C1470 N1474 1.427 . S
C1471 H1461 0.929 . S
C1471 C1469 1.433 . S
C1471 N1474 1.384 . S
C1472 H1463 0.929 . S
C1472 C1464 1.378 . S
C1472 C1467 1.350 . S
C1473 H1460 0.929 1_556 S
C1473 C1465 1.433 . S
C1473 N1475 1.384 . S
N1474 C1470 1.427 . S
N1474 C1471 1.384 . S
N1475 C1467 1.427 . S
N1475 C1473 1.384 . S
H1476 C1482 0.930 . S
H1477 C1486 0.930 . S
H1478 C1491 0.929 . S
H1479 C1489 0.929 . S
H1480 C1484 0.929 . S
H1481 C1490 0.929 . S
C1482 H1476 0.930 . S
C1482 C1483 1.367 . S
C1482 C1490 1.378 . S
C1483 C1482 1.367 . S
C1483 C1491 1.433 . S
C1484 H1480 0.929 . S
C1484 C1486 1.378 . S
C1484 C1488 1.350 . S
C1485 C1488 1.463 . S
C1485 C1490 1.350 . S
C1485 N1493 1.427 . S
C1486 H1477 0.930 . S
C1486 C1484 1.378 . S
C1486 C1487 1.367 . S
C1487 C1486 1.367 . S
C1487 C1489 1.433 . S
C1488 C1484 1.350 . S
C1488 C1485 1.463 . S
C1488 N1492 1.427 . S
C1489 H1479 0.929 . S
C1489 C1487 1.433 . S
C1489 N1492 1.384 . S
C1490 H1481 0.929 . S
C1490 C1482 1.378 . S
C1490 C1485 1.350 . S
C1491 H1478 0.929 . S
C1491 C1483 1.433 . S
C1491 N1493 1.384 . S
N1492 C1488 1.427 . S
N1492 C1489 1.384 . S
N1493 C1485 1.427 . S
N1493 C1491 1.384 . S
H1494 C1500 0.930 . S
H1495 C1504 0.930 . S
H1496 C1509 0.929 . S
H1497 C1507 0.929 . S
H1498 C1502 0.929 . S
H1499 C1508 0.929 . S
C1500 H1494 0.930 . S
C1500 C1501 1.367 . S
C1500 C1508 1.378 . S
C1501 C1500 1.367 . S
C1501 C1509 1.433 . S
C1502 H1498 0.929 . S
C1502 C1504 1.378 . S
C1502 C1506 1.350 . S
C1503 C1506 1.463 . S
C1503 C1508 1.350 . S
C1503 N1511 1.427 . S
C1504 H1495 0.930 . S
C1504 C1502 1.378 . S
C1504 C1505 1.367 . S
C1505 C1504 1.367 . S
C1505 C1507 1.433 . S
C1506 C1502 1.350 . S
C1506 C1503 1.463 . S
C1506 N1510 1.427 . S
C1507 H1497 0.929 . S
C1507 C1505 1.433 . S
C1507 N1510 1.384 . S
C1508 H1499 0.929 . S
C1508 C1500 1.378 . S
C1508 C1503 1.350 . S
C1509 H1496 0.929 . S
C1509 C1501 1.433 . S
C1509 N1511 1.384 . S
N1510 C1506 1.427 . S
N1510 C1507 1.384 . S
N1511 C1503 1.427 . S
N1511 C1509 1.384 . S
H1512 C1518 0.930 . S
H1513 C1522 0.930 . S
H1514 C1527 0.929 . S
H1515 C1525 0.929 . S
H1516 C1520 0.929 . S
H1517 C1526 0.929 . S
C1518 H1512 0.930 . S
C1518 C1519 1.367 . S
C1518 C1526 1.378 . S
C1519 C1518 1.367 . S
C1519 C1527 1.433 . S
C1520 H1516 0.929 . S
C1520 C1522 1.378 . S
C1520 C1524 1.350 . S
C1521 C1524 1.463 . S
C1521 C1526 1.350 . S
C1521 N1529 1.427 . S
C1522 H1513 0.930 . S
C1522 C1520 1.378 . S
C1522 C1523 1.367 . S
C1523 C1522 1.367 . S
C1523 C1525 1.433 . S
C1524 C1520 1.350 . S
C1524 C1521 1.463 . S
C1524 N1528 1.427 . S
C1525 H1515 0.929 . S
C1525 C1523 1.433 . S
C1525 N1528 1.384 . S
C1526 H1517 0.929 . S
C1526 C1518 1.378 . S
C1526 C1521 1.350 . S
C1527 H1514 0.929 . S
C1527 C1519 1.433 . S
C1527 N1529 1.384 . S
N1528 C1524 1.427 . S
N1528 C1525 1.384 . S
N1529 C1521 1.427 . S
N1529 C1527 1.384 . S
H1530 C1536 0.930 . S
H1531 C1540 0.930 . S
H1532 C1545 0.929 . S
H1533 C1543 0.929 . S
H1534 C1538 0.929 . S
H1535 C1544 0.929 . S
C1536 H1530 0.930 . S
C1536 C1537 1.367 . S
C1536 C1544 1.378 . S
C1537 C1536 1.367 . S
C1537 C1545 1.433 . S
C1538 H1534 0.929 . S
C1538 C1540 1.378 . S
C1538 C1542 1.350 . S
C1539 C1542 1.463 . S
C1539 C1544 1.350 . S
C1539 N1547 1.427 . S
C1540 H1531 0.930 . S
C1540 C1538 1.378 . S
C1540 C1541 1.367 . S
C1541 C1540 1.367 . S
C1541 C1543 1.433 . S
C1542 C1538 1.350 . S
C1542 C1539 1.463 . S
C1542 N1546 1.427 . S
C1543 H1533 0.929 . S
C1543 C1541 1.433 . S
C1543 N1546 1.384 . S
C1544 H1535 0.929 . S
C1544 C1536 1.378 . S
C1544 C1539 1.350 . S
C1545 H1532 0.929 . S
C1545 C1537 1.433 . S
C1545 N1547 1.384 . S
N1546 C1542 1.427 . S
N1546 C1543 1.384 . S
N1547 C1539 1.427 . S
N1547 C1545 1.384 . S
H1548 C1554 0.930 . S
H1549 C1558 0.930 . S
H1550 C1563 0.929 . S
H1551 C1561 0.929 . S
H1552 C1556 0.929 . S
H1553 C1562 0.929 . S
C1554 H1548 0.930 . S
C1554 C1555 1.367 . S
C1554 C1562 1.378 . S
C1555 C1554 1.367 . S
C1555 C1563 1.433 . S
C1556 H1552 0.929 . S
C1556 C1558 1.378 . S
C1556 C1560 1.350 . S
C1557 C1560 1.463 . S
C1557 C1562 1.350 . S
C1557 N1565 1.427 . S
C1558 H1549 0.930 . S
C1558 C1556 1.378 . S
C1558 C1559 1.367 . S
C1559 C1558 1.367 . S
C1559 C1561 1.433 . S
C1560 C1556 1.350 . S
C1560 C1557 1.463 . S
C1560 N1564 1.427 . S
C1561 H1551 0.929 . S
C1561 C1559 1.433 . S
C1561 N1564 1.384 . S
C1562 H1553 0.929 . S
C1562 C1554 1.378 . S
C1562 C1557 1.350 . S
C1563 H1550 0.929 . S
C1563 C1555 1.433 . S
C1563 N1565 1.384 . S
N1564 C1560 1.427 . S
N1564 C1561 1.384 . S
N1565 C1557 1.427 . S
N1565 C1563 1.384 . S
H1566 C1572 0.930 . S
H1567 C1576 0.930 . S
H1568 C1581 0.929 . S
H1569 C1579 0.929 . S
H1570 C1574 0.929 . S
H1571 C1580 0.929 . S
C1572 H1566 0.930 . S
C1572 C1573 1.367 . S
C1572 C1580 1.378 . S
C1573 C1572 1.367 . S
C1573 C1581 1.433 . S
C1574 H1570 0.929 . S
C1574 C1576 1.378 . S
C1574 C1578 1.350 . S
C1575 C1578 1.463 . S
C1575 C1580 1.350 . S
C1575 N1583 1.427 . S
C1576 H1567 0.930 . S
C1576 C1574 1.378 . S
C1576 C1577 1.367 . S
C1577 C1576 1.367 . S
C1577 C1579 1.433 . S
C1578 C1574 1.350 . S
C1578 C1575 1.463 . S
C1578 N1582 1.427 . S
C1579 H1569 0.929 . S
C1579 C1577 1.433 . S
C1579 N1582 1.384 . S
C1580 H1571 0.929 . S
C1580 C1572 1.378 . S
C1580 C1575 1.350 . S
C1581 H1568 0.929 . S
C1581 C1573 1.433 . S
C1581 N1583 1.384 . S
N1582 C1578 1.427 . S
N1582 C1579 1.384 . S
N1583 C1575 1.427 . S
N1583 C1581 1.384 . S
H1584 C1590 0.930 . S
H1585 C1594 0.930 . S
H1586 C1599 0.929 . S
H1587 C1597 0.929 . S
H1588 C1592 0.929 . S
H1589 C1598 0.929 . S
C1590 H1584 0.930 . S
C1590 C1591 1.367 . S
C1590 C1598 1.378 . S
C1591 C1590 1.367 . S
C1591 C1599 1.433 . S
C1592 H1588 0.929 . S
C1592 C1594 1.378 . S
C1592 C1596 1.350 . S
C1593 C1596 1.463 . S
C1593 C1598 1.350 . S
C1593 N1601 1.427 . S
C1594 H1585 0.930 . S
C1594 C1592 1.378 . S
C1594 C1595 1.367 . S
C1595 C1594 1.367 . S
C1595 C1597 1.433 . S
C1596 C1592 1.350 . S
C1596 C1593 1.463 . S
C1596 N1600 1.427 . S
C1597 H1587 0.929 . S
C1597 C1595 1.433 . S
C1597 N1600 1.384 . S
C1598 H1589 0.929 . S
C1598 C1590 1.378 . S
C1598 C1593 1.350 . S
C1599 H1586 0.929 . S
C1599 C1591 1.433 . S
C1599 N1601 1.384 . S
N1600 C1596 1.427 . S
N1600 C1597 1.384 . S
N1601 C1593 1.427 . S
N1601 C1599 1.384 . S
H1602 C1608 0.930 . S
H1603 C1612 0.930 . S
H1604 C1617 0.929 . S
H1605 C1615 0.929 . S
H1606 C1610 0.929 . S
H1607 C1616 0.929 . S
C1608 H1602 0.930 . S
C1608 C1609 1.367 . S
C1608 C1616 1.378 . S
C1609 C1608 1.367 . S
C1609 C1617 1.433 . S
C1610 H1606 0.929 . S
C1610 C1612 1.378 . S
C1610 C1614 1.350 . S
C1611 C1614 1.463 . S
C1611 C1616 1.350 . S
C1611 N1619 1.427 . S
C1612 H1603 0.930 . S
C1612 C1610 1.378 . S
C1612 C1613 1.367 . S
C1613 C1612 1.367 . S
C1613 C1615 1.433 . S
C1614 C1610 1.350 . S
C1614 C1611 1.463 . S
C1614 N1618 1.427 . S
C1615 H1605 0.929 . S
C1615 C1613 1.433 . S
C1615 N1618 1.384 . S
C1616 H1607 0.929 . S
C1616 C1608 1.378 . S
C1616 C1611 1.350 . S
C1617 H1604 0.929 . S
C1617 C1609 1.433 . S
C1617 N1619 1.384 . S
N1618 C1614 1.427 . S
N1618 C1615 1.384 . S
N1619 C1611 1.427 . S
N1619 C1617 1.384 . S
H1620 C1626 0.930 . S
H1621 C1630 0.930 . S
H1622 C1635 0.929 . S
H1623 C1633 0.929 . S
H1624 C1628 0.929 . S
H1625 C1634 0.929 . S
C1626 H1620 0.930 . S
C1626 C1627 1.367 . S
C1626 C1634 1.378 . S
C1627 C1626 1.367 . S
C1627 C1635 1.433 . S
C1628 H1624 0.929 . S
C1628 C1630 1.378 . S
C1628 C1632 1.350 . S
C1629 C1632 1.463 . S
C1629 C1634 1.350 . S
C1629 N1637 1.427 . S
C1630 H1621 0.930 . S
C1630 C1628 1.378 . S
C1630 C1631 1.367 . S
C1631 C1630 1.367 . S
C1631 C1633 1.433 . S
C1632 C1628 1.350 . S
C1632 C1629 1.463 . S
C1632 N1636 1.427 . S
C1633 H1623 0.929 . S
C1633 C1631 1.433 . S
C1633 N1636 1.384 . S
C1634 H1625 0.929 . S
C1634 C1626 1.378 . S
C1634 C1629 1.350 . S
C1635 H1622 0.929 . S
C1635 C1627 1.433 . S
C1635 N1637 1.384 . S
N1636 C1632 1.427 . S
N1636 C1633 1.384 . S
N1637 C1629 1.427 . S
N1637 C1635 1.384 . S
H1638 C1644 0.930 . S
H1639 C1648 0.930 . S
H1640 C1653 0.929 . S
H1641 C1651 0.929 . S
H1642 C1646 0.929 . S
H1643 C1652 0.929 . S
C1644 H1638 0.930 . S
C1644 C1645 1.367 . S
C1644 C1652 1.378 . S
C1645 C1644 1.367 . S
C1645 C1653 1.433 . S
C1646 H1642 0.929 . S
C1646 C1648 1.378 . S
C1646 C1650 1.350 . S
C1647 C1650 1.463 . S
C1647 C1652 1.350 . S
C1647 N1655 1.427 . S
C1648 H1639 0.930 . S
C1648 C1646 1.378 . S
C1648 C1649 1.367 . S
C1649 C1648 1.367 . S
C1649 C1651 1.433 . S
C1650 C1646 1.350 . S
C1650 C1647 1.463 . S
C1650 N1654 1.427 . S
C1651 H1641 0.929 . S
C1651 C1649 1.433 . S
C1651 N1654 1.384 . S
C1652 H1643 0.929 . S
C1652 C1644 1.378 . S
C1652 C1647 1.350 . S
C1653 H1640 0.929 . S
C1653 C1645 1.433 . S
C1653 N1655 1.384 . S
N1654 C1650 1.427 . S
N1654 C1651 1.384 . S
N1655 C1647 1.427 . S
N1655 C1653 1.384 . S
H1656 C1662 0.930 . S
H1657 C1666 0.930 . S
H1658 C1671 0.929 . S
H1659 C1669 0.929 . S
H1660 C1664 0.929 . S
H1661 C1670 0.929 . S
C1662 H1656 0.930 . S
C1662 C1663 1.367 . S
C1662 C1670 1.378 . S
C1663 C1662 1.367 . S
C1663 C1671 1.433 . S
C1664 H1660 0.929 . S
C1664 C1666 1.378 . S
C1664 C1668 1.350 . S
C1665 C1668 1.463 . S
C1665 C1670 1.350 . S
C1665 N1673 1.427 . S
C1666 H1657 0.930 . S
C1666 C1664 1.378 . S
C1666 C1667 1.367 . S
C1667 C1666 1.367 . S
C1667 C1669 1.433 . S
C1668 C1664 1.350 . S
C1668 C1665 1.463 . S
C1668 N1672 1.427 . S
C1669 H1659 0.929 . S
C1669 C1667 1.433 . S
C1669 N1672 1.384 . S
C1670 H1661 0.929 . S
C1670 C1662 1.378 . S
C1670 C1665 1.350 . S
C1671 H1658 0.929 . S
C1671 C1663 1.433 . S
C1671 N1673 1.384 . S
N1672 C1668 1.427 . S
N1672 C1669 1.384 . S
N1673 C1665 1.427 . S
N1673 C1671 1.384 . S
H1674 C1680 0.930 . S
H1675 C1684 0.930 . S
H1676 C1689 0.929 . S
H1677 C1687 0.929 . S
H1678 C1682 0.929 . S
H1679 C1688 0.929 . S
C1680 H1674 0.930 . S
C1680 C1681 1.367 . S
C1680 C1688 1.378 . S
C1681 C1680 1.367 . S
C1681 C1689 1.433 . S
C1682 H1678 0.929 . S
C1682 C1684 1.378 . S
C1682 C1686 1.350 . S
C1683 C1686 1.463 . S
C1683 C1688 1.350 . S
C1683 N1691 1.427 . S
C1684 H1675 0.930 . S
C1684 C1682 1.378 . S
C1684 C1685 1.367 . S
C1685 C1684 1.367 . S
C1685 C1687 1.433 . S
C1686 C1682 1.350 . S
C1686 C1683 1.463 . S
C1686 N1690 1.427 . S
C1687 H1677 0.929 . S
C1687 C1685 1.433 . S
C1687 N1690 1.384 . S
C1688 H1679 0.929 . S
C1688 C1680 1.378 . S
C1688 C1683 1.350 . S
C1689 H1676 0.929 . S
C1689 C1681 1.433 . S
C1689 N1691 1.384 . S
N1690 C1686 1.427 . S
N1690 C1687 1.384 . S
N1691 C1683 1.427 . S
N1691 C1689 1.384 . S
H1692 C1698 0.930 . S
H1693 C1702 0.930 . S
H1694 C1707 0.929 . S
H1695 C1705 0.929 . S
H1696 C1700 0.929 . S
H1697 C1706 0.929 . S
C1698 H1692 0.930 . S
C1698 C1699 1.367 . S
C1698 C1706 1.378 . S
C1699 C1698 1.367 . S
C1699 C1707 1.433 . S
C1700 H1696 0.929 . S
C1700 C1702 1.378 . S
C1700 C1704 1.350 . S
C1701 C1704 1.463 . S
C1701 C1706 1.350 . S
C1701 N1709 1.427 . S
C1702 H1693 0.930 . S
C1702 C1700 1.378 . S
C1702 C1703 1.367 . S
C1703 C1702 1.367 . S
C1703 C1705 1.433 . S
C1704 C1700 1.350 . S
C1704 C1701 1.463 . S
C1704 N1708 1.427 . S
C1705 H1695 0.929 . S
C1705 C1703 1.433 . S
C1705 N1708 1.384 . S
C1706 H1697 0.929 . S
C1706 C1698 1.378 . S
C1706 C1701 1.350 . S
C1707 H1694 0.929 . S
C1707 C1699 1.433 . S
C1707 N1709 1.384 . S
N1708 C1704 1.427 . S
N1708 C1705 1.384 . S
N1709 C1701 1.427 . S
N1709 C1707 1.384 . S
H1710 C1716 0.930 . S
H1711 C1720 0.930 . S
H1712 C1725 0.929 . S
H1713 C1723 0.929 . S
H1714 C1718 0.929 . S
H1715 C1724 0.929 . S
C1716 H1710 0.930 . S
C1716 C1717 1.367 . S
C1716 C1724 1.378 . S
C1717 C1716 1.367 . S
C1717 C1725 1.433 . S
C1718 H1714 0.929 . S
C1718 C1720 1.378 . S
C1718 C1722 1.350 . S
C1719 C1722 1.463 . S
C1719 C1724 1.350 . S
C1719 N1727 1.427 . S
C1720 H1711 0.930 . S
C1720 C1718 1.378 . S
C1720 C1721 1.367 . S
C1721 C1720 1.367 . S
C1721 C1723 1.433 . S
C1722 C1718 1.350 . S
C1722 C1719 1.463 . S
C1722 N1726 1.427 . S
C1723 H1713 0.929 . S
C1723 C1721 1.433 . S
C1723 N1726 1.384 . S
C1724 H1715 0.929 . S
C1724 C1716 1.378 . S
C1724 C1719 1.350 . S
C1725 H1712 0.929 . S
C1725 C1717 1.433 . S
C1725 N1727 1.384 . S
N1726 C1722 1.427 . S
N1726 C1723 1.384 . S
N1727 C1719 1.427 . S
N1727 C1725 1.384 . S
C871 C506 1.437 . S
C875 C4 1.452 . S
C889 C40 1.284 . S
C893 C554 1.251 . S
C907 C650 1.432 . S
C911 C75 1.454 . S
C925 C111 1.322 . S
C929 C471 1.321 . S
C943 C518 1.434 . S
C947 C147 1.472 . S
C961 C182 1.304 . S
C965 C542 1.304 . S
C979 C220 1.440 . S
C983 C662 1.411 . S
C997 C266 1.251 . S
C1001 C472 1.284 . S
C1015 C328 1.434 . S
C1019 C302 1.398 . S
C1033 C374 1.436 . S
C1037 C327 1.471 . S
C1051 C362 1.437 . S
C1055 C400 1.457 . S
C1069 C399 1.454 . S
C1073 C290 1.437 . S
C1087 C446 1.261 . S
C1091 C112 1.289 . S
C1105 C148 1.438 . S
C1109 C590 1.406 . S
C1123 C615 1.320 . S
C1127 C39 1.321 . S
C1141 C50 1.345 . S
C1145 C759 1.386 . S
C1159 C338 1.586 . S
C1163 C2 1.608 . S
C1177 C832 1.435 . S
C1181 C110 1.430 . S
C1195 C410 1.588 . S
C1199 C86 1.590 . S
C1213 C760 1.435 . S
C1217 C256 1.433 . S
C1231 C326 1.573 . S
C1235 C218 1.574 . S
C1249 C183 1.443 . S
C1253 C831 1.442 . S
C1267 C158 1.584 . S
C1271 C398 1.612 . S
C1285 C543 1.444 . S
C1289 C687 1.445 . S
C1303 C580 1.438 . S
C1307 C544 1.438 . S
C1321 C482 1.357 . S
C1325 C579 1.384 . S
C1339 C688 1.437 . S
C1343 C470 1.428 . S
C1357 C74 1.603 . S
C1361 C734 1.594 . S
C1375 C363 1.442 . S
C1379 C255 1.443 . S
C1393 C14 1.578 . S
C1397 C806 1.580 . S
C1411 C686 1.436 . S
C1415 C76 1.453 . S
C1429 C3 1.455 . S
C1433 C578 1.433 . S
C1447 C698 1.435 . S
C1451 C219 1.471 . S
C1465 C434 1.303 . S
C1469 C254 1.311 . S
C1483 C194 1.251 . S
C1487 C616 1.284 . S
C1501 C770 1.399 . S
C1505 C724 1.435 . S
C1519 C842 1.440 . S
C1523 C723 1.472 . S
C1537 C796 1.453 . S
C1541 C830 1.436 . S
C1555 C758 1.431 . S
C1559 C795 1.455 . S
C1573 C291 1.386 . S
C1577 C122 1.349 . S
C1591 C38 1.430 . S
C1595 C364 1.435 . S
C1609 C184 1.438 . S
C1613 C292 1.438 . S
C1627 C722 1.573 . S
C1631 C146 1.578 . S
C1645 C230 1.593 . S
C1649 C794 1.604 . S
C1663 C435 1.442 . S
C1667 C507 1.442 . S
C1681 C652 1.434 . S
C1685 C436 1.433 . S
C1699 C626 1.346 . S
C1703 C651 1.385 . S
C1717 C508 1.440 . S
C1721 C614 1.436 . S
