# Generated by pormake.
# Topology uou, (4)-cn, num edge types: 1
# Building blocks:
#     Node 0, Type 0, BuildingBlock: TATPOV_clean_sbu_0, # of connection points: 4
#     Node 1, Type 0, BuildingBlock: TATPOV_clean_sbu_0, # of connection points: 4
#     Node 2, Type 0, BuildingBlock: TATPOV_clean_sbu_0, # of connection points: 4
#     Node 3, Type 0, BuildingBlock: TATPOV_clean_sbu_0, # of connection points: 4
#     Node 4, Type 0, BuildingBlock: TATPOV_clean_sbu_0, # of connection points: 4
#     Node 5, Type 0, BuildingBlock: TATPOV_clean_sbu_0, # of connection points: 4
#     Node 6, Type 0, BuildingBlock: TATPOV_clean_sbu_0, # of connection points: 4
#     Node 7, Type 0, BuildingBlock: TATPOV_clean_sbu_0, # of connection points: 4
#     Node 8, Type 0, BuildingBlock: TATPOV_clean_sbu_0, # of connection points: 4
#     Node 9, Type 0, BuildingBlock: TATPOV_clean_sbu_0, # of connection points: 4
#     Node 10, Type 0, BuildingBlock: TATPOV_clean_sbu_0, # of connection points: 4
#     Node 11, Type 0, BuildingBlock: TATPOV_clean_sbu_0, # of connection points: 4
#     Node 12, Type 0, BuildingBlock: TATPOV_clean_sbu_0, # of connection points: 4
#     Node 13, Type 0, BuildingBlock: TATPOV_clean_sbu_0, # of connection points: 4
#     Node 14, Type 0, BuildingBlock: TATPOV_clean_sbu_0, # of connection points: 4
#     Node 15, Type 0, BuildingBlock: TATPOV_clean_sbu_0, # of connection points: 4
#     Edge 16, Type (0, 0), BuildingBlock: CIFDUS_clean_linker_0, # of connection points: 2
#     Edge 17, Type (0, 0), BuildingBlock: CIFDUS_clean_linker_0, # of connection points: 2
#     Edge 18, Type (0, 0), BuildingBlock: CIFDUS_clean_linker_0, # of connection points: 2
#     Edge 19, Type (0, 0), BuildingBlock: CIFDUS_clean_linker_0, # of connection points: 2
#     Edge 20, Type (0, 0), BuildingBlock: CIFDUS_clean_linker_0, # of connection points: 2
#     Edge 21, Type (0, 0), BuildingBlock: CIFDUS_clean_linker_0, # of connection points: 2
#     Edge 22, Type (0, 0), BuildingBlock: CIFDUS_clean_linker_0, # of connection points: 2
#     Edge 23, Type (0, 0), BuildingBlock: CIFDUS_clean_linker_0, # of connection points: 2
#     Edge 24, Type (0, 0), BuildingBlock: CIFDUS_clean_linker_0, # of connection points: 2
#     Edge 25, Type (0, 0), BuildingBlock: CIFDUS_clean_linker_0, # of connection points: 2
#     Edge 26, Type (0, 0), BuildingBlock: CIFDUS_clean_linker_0, # of connection points: 2
#     Edge 27, Type (0, 0), BuildingBlock: CIFDUS_clean_linker_0, # of connection points: 2
#     Edge 28, Type (0, 0), BuildingBlock: CIFDUS_clean_linker_0, # of connection points: 2
#     Edge 29, Type (0, 0), BuildingBlock: CIFDUS_clean_linker_0, # of connection points: 2
#     Edge 30, Type (0, 0), BuildingBlock: CIFDUS_clean_linker_0, # of connection points: 2
#     Edge 31, Type (0, 0), BuildingBlock: CIFDUS_clean_linker_0, # of connection points: 2
#     Edge 32, Type (0, 0), BuildingBlock: CIFDUS_clean_linker_0, # of connection points: 2
#     Edge 33, Type (0, 0), BuildingBlock: CIFDUS_clean_linker_0, # of connection points: 2
#     Edge 34, Type (0, 0), BuildingBlock: CIFDUS_clean_linker_0, # of connection points: 2
#     Edge 35, Type (0, 0), BuildingBlock: CIFDUS_clean_linker_0, # of connection points: 2
#     Edge 36, Type (0, 0), BuildingBlock: CIFDUS_clean_linker_0, # of connection points: 2
#     Edge 37, Type (0, 0), BuildingBlock: CIFDUS_clean_linker_0, # of connection points: 2
#     Edge 38, Type (0, 0), BuildingBlock: CIFDUS_clean_linker_0, # of connection points: 2
#     Edge 39, Type (0, 0), BuildingBlock: CIFDUS_clean_linker_0, # of connection points: 2
#     Edge 40, Type (0, 0), BuildingBlock: CIFDUS_clean_linker_0, # of connection points: 2
#     Edge 41, Type (0, 0), BuildingBlock: CIFDUS_clean_linker_0, # of connection points: 2
#     Edge 42, Type (0, 0), BuildingBlock: CIFDUS_clean_linker_0, # of connection points: 2
#     Edge 43, Type (0, 0), BuildingBlock: CIFDUS_clean_linker_0, # of connection points: 2
#     Edge 44, Type (0, 0), BuildingBlock: CIFDUS_clean_linker_0, # of connection points: 2
#     Edge 45, Type (0, 0), BuildingBlock: CIFDUS_clean_linker_0, # of connection points: 2
#     Edge 46, Type (0, 0), BuildingBlock: CIFDUS_clean_linker_0, # of connection points: 2
#     Edge 47, Type (0, 0), BuildingBlock: CIFDUS_clean_linker_0, # of connection points: 2
# Relax obj value: 0.084
# Max RMSD: 0.141
# Mean RMSD: 0.141
data_MOF--net-uou--node1-TATPOV_clean_sbu_0--edge1-CIFDUS_clean_linker_0
_symmetry_space_group_name_H-M    P1
_symmetry_Int_Tables_number       1
_symmetry_cell_setting            triclinic
loop_
_symmetry_equiv_pos_as_xyz
'x, y, z'
_cell_length_a     34.781683
_cell_length_b     31.368544
_cell_length_c     49.303218
_cell_angle_alpha  89.901848
_cell_angle_beta   90.093542
_cell_angle_gamma 90.159142
loop_
_atom_site_label
_atom_site_type_symbol
_atom_site_fract_x
_atom_site_fract_y
_atom_site_fract_z
_atom_type_partial_charge
Zn0 Zn 0.9981 0.05426 0.09711 0.0
Zn1 Zn 0.07406 0.04769 0.1011 0.0
O2 O 0.05221 0.00982 0.13251 0.0
O3 O 0.98947 0.01241 0.12659 0.0
O4 O 0.13316 0.04427 0.1041 0.0
O5 O 0.99867 0.03581 0.05882 0.0
O6 O 0.0615 0.02827 0.06166 0.0
C7 C 0.01823 -0.00124 0.13964 0.0
C8 C 0.03246 0.13431 0.10822 0.0
O9 O 0.06319 0.11219 0.10674 0.0
O10 O 1.00003 0.1165 0.10546 0.0
C11 C 0.1535 0.01049 0.10345 0.0
O12 O 0.13621 0.97342 0.10091 0.0
C13 C 0.03034 0.02625 0.04793 0.0
Zn14 Zn 0.54034 0.94975 0.09966 0.0
Zn15 Zn 0.46368 0.95091 0.10475 0.0
O16 O 0.48452 0.98494 0.13805 0.0
O17 O 0.5471 0.98796 0.13148 0.0
O18 O 0.40448 0.95235 0.10723 0.0
O19 O 0.53826 0.9724 0.0621 0.0
O20 O 0.47521 0.97389 0.066 0.0
C21 C 0.51802 -0.00303 0.1457 0.0
C22 C 0.5087 0.86649 0.10832 0.0
O23 O 0.47694 0.88686 0.10823 0.0
O24 O 0.54016 0.88633 0.10535 0.0
C25 C 0.38398 0.98604 0.10706 0.0
O26 O 0.40121 0.02333 0.10598 0.0
C27 C 0.50558 0.97976 0.05191 0.0
Zn28 Zn 0.49955 0.92734 0.34549 0.0
Zn29 Zn 0.57582 0.9342 0.34305 0.0
O30 O 0.55597 0.97021 0.31009 0.0
O31 O 0.49303 0.96755 0.31477 0.0
O32 O 0.6352 0.93717 0.34208 0.0
O33 O 0.49791 0.94802 0.38333 0.0
O34 O 0.56086 0.95572 0.38171 0.0
C35 C 0.52227 0.98061 0.30199 0.0
C36 C 0.53432 0.84702 0.33654 0.0
O37 O 0.56495 0.86948 0.33818 0.0
O38 O 0.50178 0.86462 0.33851 0.0
C39 C 0.65624 0.97032 0.33933 0.0
O40 O 0.63966 0.00765 0.33652 0.0
C41 C 0.52912 0.95844 0.39469 0.0
Zn42 Zn 0.04493 0.02386 0.33893 0.0
Zn43 Zn 0.96817 0.02364 0.3373 0.0
O44 O 0.98607 0.98816 0.30371 0.0
O45 O 0.04917 0.98607 0.30707 0.0
O46 O 0.90873 0.02268 0.3362 0.0
O47 O 0.04637 -0.00043 0.37588 0.0
O48 O 0.98302 0.00277 0.37614 0.0
C49 C 0.01871 0.97612 0.29457 0.0
C50 C 0.01372 0.10759 0.33175 0.0
O51 O 0.98182 0.08736 0.3326 0.0
O52 O 0.04515 0.0876 0.33394 0.0
C53 C 0.88745 0.98974 0.33907 0.0
O54 O 0.90384 0.95255 0.34298 0.0
C55 C 0.01481 0.99478 0.38817 0.0
Zn56 Zn 0.02414 0.94597 0.84269 0.0
Zn57 Zn 0.94859 0.95426 0.83897 0.0
O58 O 0.97134 0.98855 0.80615 0.0
O59 O 0.03403 0.98513 0.81201 0.0
O60 O 0.88959 0.96253 0.83717 0.0
O61 O 0.02598 0.96698 0.88037 0.0
O62 O 0.96324 0.97536 0.87775 0.0
C63 C 1.00546 -0.00178 0.79855 0.0
C64 C 0.98712 0.86596 0.83397 0.0
O65 O 0.95672 0.88876 0.83494 0.0
O66 O 0.01984 0.88335 0.83615 0.0
C67 C 0.87353 -0.00229 0.83079 0.0
O68 O 0.8954 0.03048 0.82452 0.0
C69 C 0.99463 0.97774 0.89122 0.0
Zn70 Zn 0.49271 0.04572 0.84461 0.0
Zn71 Zn 0.56783 0.0443 0.83852 0.0
O72 O 0.54434 0.00901 0.80638 0.0
O73 O 0.48228 0.00533 0.8147 0.0
O74 O 0.62684 0.03607 0.83522 0.0
O75 O 0.49376 0.02653 0.88273 0.0
O76 O 0.55668 0.02472 0.87828 0.0
C77 C 0.51062 -0.00393 0.79986 0.0
C78 C 0.52397 0.1287 0.83323 0.0
O79 O 0.55615 0.10903 0.83365 0.0
O80 O 0.49295 0.10832 0.83685 0.0
C81 C 0.64974 0.06398 0.82551 0.0
O82 O 0.63537 0.10009 0.8166 0.0
C83 C 0.52659 0.02005 0.89287 0.0
Zn84 Zn 0.51703 0.0459 0.59834 0.0
Zn85 Zn 0.44292 0.04076 0.6019 0.0
O86 O 0.4658 0.00786 0.63552 0.0
O87 O 0.52828 0.00721 0.62881 0.0
O88 O 0.38396 0.03102 0.60506 0.0
O89 O 0.52008 0.02516 0.56089 0.0
O90 O 0.45717 0.01837 0.56299 0.0
C91 C 0.49961 -0.00326 0.64302 0.0
C92 C 0.48355 0.12771 0.60648 0.0
O93 O 0.45205 0.10657 0.60524 0.0
O94 O 0.51535 0.10848 0.60477 0.0
C95 C 0.36122 0.03464 0.58484 0.0
O96 O 0.37565 0.04602 0.56129 0.0
C97 C 0.48866 0.01509 0.54976 0.0
Zn98 Zn 0.98345 0.96117 0.59895 0.0
Zn99 Zn 0.05935 0.96629 0.59947 0.0
O100 O 0.03985 0.00061 0.63327 0.0
O101 O 0.97671 -0.00091 0.63038 0.0
O102 O 0.11821 0.9771 0.59802 0.0
O103 O 0.97711 0.98401 0.56196 0.0
O104 O 0.04046 0.98385 0.56073 0.0
C105 C 1.00682 0.01093 0.64259 0.0
C106 C 0.02049 0.87947 0.60641 0.0
O107 O 0.05153 0.90131 0.60504 0.0
O108 O 0.9882 0.89783 0.60448 0.0
C109 C 0.14022 0.97582 0.61874 0.0
O110 O 0.12512 0.96646 0.64243 0.0
C111 C 1.00801 0.98969 0.54906 0.0
Zn112 Zn 0.50841 0.53567 0.09553 0.0
Zn113 Zn 0.58296 0.52938 0.0961 0.0
O114 O 0.5625 0.49193 0.12843 0.0
O115 O 0.49955 0.49277 0.12413 0.0
O116 O 0.64167 0.51959 0.09584 0.0
O117 O 0.50279 0.52019 0.05708 0.0
O118 O 0.56574 0.51338 0.05665 0.0
C119 C 0.52918 0.47999 0.1365 0.0
C120 C 0.54465 0.61569 0.10643 0.0
O121 O 0.57545 0.59421 0.10304 0.0
O122 O 0.51228 0.59732 0.10515 0.0
C123 C 0.66367 0.53096 0.11526 0.0
O124 O 0.64837 0.54989 0.13639 0.0
C125 C 0.53335 0.51214 0.04433 0.0
Zn126 Zn 0.04265 0.46772 0.10341 0.0
Zn127 Zn 0.96731 0.47397 0.10668 0.0
O128 O 0.99039 0.50624 0.14031 0.0
O129 O 0.05315 0.50448 0.13493 0.0
O130 O 0.90873 0.48434 0.10882 0.0
O131 O 0.04576 0.49145 0.06645 0.0
O132 O 0.98245 0.49344 0.06755 0.0
C133 C 0.02426 0.51582 0.14857 0.0
C134 C 1.00497 0.38651 0.11104 0.0
O135 O 0.97434 0.40889 0.11065 0.0
O136 O 0.03748 0.40436 0.10856 0.0
C137 C 0.88623 0.47182 0.08997 0.0
O138 O 0.90107 0.45172 0.06912 0.0
C139 C 0.0141 0.49875 0.05481 0.0
Zn140 Zn 1.01296 0.43812 0.34589 0.0
Zn141 Zn 0.08755 0.44612 0.34341 0.0
O142 O 0.06554 0.48282 0.31129 0.0
O143 O 1.00285 0.48023 0.31702 0.0
O144 O 0.14617 0.45689 0.34299 0.0
O145 O 1.00914 0.4549 0.38423 0.0
O146 O 0.07185 0.46408 0.38267 0.0
C147 C 0.03162 0.4938 0.30399 0.0
C148 C 0.04943 0.3587 0.33476 0.0
O149 O 0.08017 0.38083 0.33726 0.0
O150 O 0.01696 0.37647 0.33675 0.0
C151 C 0.16886 0.44243 0.32493 0.0
O152 O 0.15445 0.41924 0.30519 0.0
C153 C 0.04021 0.46507 0.39583 0.0
Zn154 Zn 0.54675 0.51337 0.33776 0.0
Zn155 Zn 0.47158 0.50615 0.3349 0.0
O156 O 0.49448 0.47428 0.30109 0.0
O157 O 0.55733 0.47803 0.30569 0.0
O158 O 0.41313 0.49471 0.33269 0.0
O159 O 0.55062 0.48822 0.37432 0.0
O160 O 0.48726 0.48687 0.37403 0.0
C161 C 0.52829 0.46577 0.29241 0.0
C162 C 0.50845 0.5943 0.33134 0.0
O163 O 0.47799 0.57145 0.33129 0.0
O164 O 0.54108 0.57686 0.3337 0.0
C165 C 0.39 0.5093 0.35043 0.0
O166 O 0.40408 0.53234 0.37036 0.0
C167 C 0.51922 0.48113 0.38634 0.0
Zn168 Zn 0.51001 0.46113 0.83608 0.0
Zn169 Zn 0.43386 0.46161 0.8371 0.0
O170 O 0.45145 0.49743 0.80367 0.0
O171 O 0.51452 0.50148 0.80521 0.0
O172 O 0.37502 0.47005 0.83646 0.0
O173 O 0.51429 0.48085 0.87407 0.0
O174 O 0.451 0.48114 0.87567 0.0
C175 C 0.48316 0.51092 0.79375 0.0
C176 C 0.47674 0.37747 0.82901 0.0
O177 O 0.44476 0.39698 0.83198 0.0
O178 O 0.50804 0.39817 0.82925 0.0
C179 C 0.35091 0.45064 0.85155 0.0
O180 O 0.36364 0.42202 0.86884 0.0
C181 C 0.48359 0.48639 0.88726 0.0
Zn182 Zn 0.97436 0.53213 0.84371 0.0
Zn183 Zn 0.05093 0.5264 0.84365 0.0
O184 O 0.03123 0.49237 0.81 0.0
O185 O 0.96806 0.49358 0.81223 0.0
O186 O 0.10928 0.51433 0.8449 0.0
O187 O 0.96863 0.51016 0.88118 0.0
O188 O 0.03198 0.50961 0.88226 0.0
C189 C 0.99839 0.48191 0.80032 0.0
C190 C 0.01358 0.61332 0.83601 0.0
O191 O 0.04426 0.59117 0.83786 0.0
O192 O 0.98097 0.59541 0.83768 0.0
C193 C 0.13361 0.53267 0.82944 0.0
O194 O 0.12118 0.56112 0.81193 0.0
C195 C 0.99959 0.50447 0.89407 0.0
Zn196 Zn 0.02679 0.54656 0.60068 0.0
Zn197 Zn 0.95087 0.539 0.60262 0.0
O198 O 0.97262 0.50521 0.63583 0.0
O199 O 0.03558 0.5078 0.63181 0.0
O200 O 0.8923 0.52797 0.60459 0.0
O201 O 0.02957 0.525 0.56311 0.0
O202 O 0.96661 0.51763 0.56422 0.0
C203 C 1.00611 0.49516 0.64446 0.0
C204 C 0.98939 0.62711 0.60802 0.0
O205 O 0.95869 0.60467 0.60647 0.0
O206 O 0.02194 0.6093 0.60674 0.0
C207 C 0.86983 0.5341 0.58448 0.0
O208 O 0.88437 0.54918 0.56182 0.0
C209 C 0.99851 0.51467 0.55152 0.0
Zn210 Zn 0.49263 0.46215 0.59889 0.0
Zn211 Zn 0.56934 0.46144 0.59642 0.0
O212 O 0.55452 0.49827 0.62992 0.0
O213 O 0.49138 0.50152 0.63032 0.0
O214 O 0.62818 0.4695 0.59367 0.0
O215 O 0.4861 0.48382 0.56135 0.0
O216 O 0.54905 0.47793 0.55805 0.0
C217 C 0.52338 0.51141 0.64075 0.0
C218 C 0.5264 0.37795 0.60596 0.0
O219 O 0.5585 0.39749 0.60331 0.0
O220 O 0.4951 0.39851 0.60498 0.0
C221 C 0.6503 0.46546 0.61417 0.0
O222 O 0.63517 0.45406 0.6375 0.0
C223 C 0.51635 0.48569 0.54726 0.0
H224 H 0.33225 0.05159 0.10886 0.0
H225 H 0.33874 0.91434 0.10528 0.0
H226 H 0.26862 0.9098 0.10406 0.0
H227 H 0.20516 0.94469 0.10335 0.0
H228 H 0.19874 0.08194 0.10717 0.0
H229 H 0.26882 0.0864 0.10898 0.0
C230 C 0.31841 0.02062 0.10787 0.0
C231 C 0.34106 0.98336 0.10713 0.0
C232 C 0.27788 0.01819 0.10718 0.0
C233 C 0.32231 0.94359 0.10591 0.0
C234 C 0.28208 0.94095 0.10517 0.0
C235 C 0.21901 0.97563 0.10462 0.0
C236 C 0.19639 0.01293 0.10505 0.0
C237 C 0.25953 0.97802 0.10569 0.0
C238 C 0.21515 0.05266 0.10676 0.0
C239 C 0.25535 0.05526 0.1078 0.0
H240 H 0.70945 0.03436 0.33352 0.0
H241 H 0.70002 0.89846 0.34581 0.0
H242 H 0.77 0.89254 0.34672 0.0
H243 H 0.83421 0.92576 0.34427 0.0
H244 H 0.84377 0.06162 0.33192 0.0
H245 H 0.77374 0.06755 0.33079 0.0
C246 C 0.72262 0.00339 0.33638 0.0
C247 C 0.69915 0.96692 0.33961 0.0
C248 C 0.76312 0.00014 0.33689 0.0
C249 C 0.71706 0.92713 0.34327 0.0
C250 C 0.75723 0.92369 0.3438 0.0
C251 C 0.82107 0.95673 0.34131 0.0
C252 C 0.84457 0.99319 0.3382 0.0
C253 C 0.78059 0.95996 0.34067 0.0
C254 C 0.82669 0.03296 0.33438 0.0
C255 C 0.78651 0.0364 0.33373 0.0
H256 H 0.83144 0.0669 0.81541 0.0
H257 H 0.81887 0.93904 0.84656 0.0
H258 H 0.74893 0.94774 0.84769 0.0
H259 H 0.69087 0.9923 0.84025 0.0
H260 H 0.70484 0.11987 0.80864 0.0
H261 H 0.77422 0.11048 0.80732 0.0
C262 C 0.81352 0.0408 0.82244 0.0
C263 C 0.83072 0.00236 0.83094 0.0
C264 C 0.77327 0.04599 0.82299 0.0
C265 C 0.80667 0.96901 0.83987 0.0
C266 C 0.76656 0.97399 0.84055 0.0
C267 C 0.70907 0.01803 0.83304 0.0
C268 C 0.69225 0.05683 0.8246 0.0
C269 C 0.74944 0.01243 0.83224 0.0
C270 C 0.71659 0.08966 0.81529 0.0
C271 C 0.75647 0.08436 0.81452 0.0
H272 H 0.18151 0.00063 0.57381 0.0
H273 H 0.19427 0.97242 0.65904 0.0
H274 H 0.26289 0.98804 0.6564 0.0
H275 H 0.32005 0.00982 0.62997 0.0
H276 H 0.307 0.03841 0.54479 0.0
H277 H 0.23847 0.02271 0.54747 0.0
C278 C 0.19926 -0.00218 0.59182 0.0
C279 C 0.18236 0.98522 0.61658 0.0
C280 C 0.23902 0.00705 0.59024 0.0
C281 C 0.20614 0.98197 0.63966 0.0
C282 C 0.24558 0.99095 0.6382 0.0
C283 C 0.30225 0.01269 0.61199 0.0
C284 C 0.31907 0.02537 0.58721 0.0
C285 C 0.26244 0.00356 0.61361 0.0
C286 C 0.29521 0.0288 0.56419 0.0
C287 C 0.25581 0.01976 0.56566 0.0
H288 H 0.84451 0.51205 0.12977 0.0
H289 H 0.8322 0.44953 0.05231 0.0
H290 H 0.76311 0.46213 0.05309 0.0
H291 H 0.70553 0.49091 0.0756 0.0
H292 H 0.7176 0.55326 0.15312 0.0
H293 H 0.78678 0.54076 0.15236 0.0
C294 C 0.82675 0.50115 0.11306 0.0
C295 C 0.84389 0.47981 0.09103 0.0
C296 C 0.78667 0.5085 0.11358 0.0
C297 C 0.82012 0.46601 0.06959 0.0
C298 C 0.78042 0.47322 0.06998 0.0
C299 C 0.72324 0.50181 0.09234 0.0
C300 C 0.70604 0.52306 0.11437 0.0
C301 C 0.76329 0.49444 0.09185 0.0
C302 C 0.72975 0.53682 0.13585 0.0
C303 C 0.76949 0.52968 0.13547 0.0
H304 H 0.34997 0.46233 0.3126 0.0
H305 H 0.33449 0.53661 0.38537 0.0
H306 H 0.26552 0.52281 0.38404 0.0
H307 H 0.20899 0.48957 0.36243 0.0
H308 H 0.22423 0.41526 0.28967 0.0
H309 H 0.29327 0.42914 0.29089 0.0
C310 C 0.33155 0.47554 0.32817 0.0
C311 C 0.34775 0.50053 0.34905 0.0
C312 C 0.29155 0.46745 0.32735 0.0
C313 C 0.32314 0.51727 0.36902 0.0
C314 C 0.28351 0.50939 0.36831 0.0
C315 C 0.22736 0.47639 0.34682 0.0
C316 C 0.2111 0.45135 0.32599 0.0
C317 C 0.26732 0.4845 0.3476 0.0
C318 C 0.23565 0.43464 0.30598 0.0
C319 C 0.2753 0.44256 0.30664 0.0
H320 H 0.16962 0.47165 0.86044 0.0
H321 H 0.19227 0.57006 0.80125 0.0
H322 H 0.26069 0.55349 0.8026 0.0
H323 H 0.31468 0.51115 0.82049 0.0
H324 H 0.29226 0.41263 0.87963 0.0
H325 H 0.22374 0.42905 0.87825 0.0
C326 C 0.18949 0.48953 0.84785 0.0
C327 C 0.17548 0.52214 0.83077 0.0
C328 C 0.22912 0.47975 0.84864 0.0
C329 C 0.20192 0.54478 0.81459 0.0
C330 C 0.24123 0.53532 0.81533 0.0
C331 C 0.29485 0.49317 0.83306 0.0
C332 C 0.30894 0.46064 0.85014 0.0
C333 C 0.25523 0.50285 0.83224 0.0
C334 C 0.28253 0.43786 0.86628 0.0
C335 C 0.24318 0.44725 0.86553 0.0
H336 H 0.69071 0.49911 0.57127 0.0
H337 H 0.70493 0.45357 0.65331 0.0
H338 H 0.77333 0.47066 0.65163 0.0
H339 H 0.82964 0.49916 0.6271 0.0
H340 H 0.81529 0.54516 0.54517 0.0
H341 H 0.74703 0.52749 0.54672 0.0
C342 C 0.70876 0.49275 0.58876 0.0
C343 C 0.69237 0.47496 0.61237 0.0
C344 C 0.74834 0.50295 0.58777 0.0
C345 C 0.71646 0.46722 0.63483 0.0
C346 C 0.75574 0.47704 0.63393 0.0
C347 C 0.81162 0.5054 0.60958 0.0
C348 C 0.82793 0.52357 0.58606 0.0
C349 C 0.77206 0.49507 0.61055 0.0
C350 C 0.80384 0.53125 0.56359 0.0
C351 C 0.76462 0.5211 0.56442 0.0
H352 H 0.96227 0.96428 0.25673 0.0
H353 H 0.08439 0.94992 0.26948 0.0
H354 H 0.09494 0.9478 0.22078 0.0
H355 H 0.07114 0.96708 0.17541 0.0
H356 H 0.94889 0.98061 0.16273 0.0
H357 H 0.93698 0.96511 0.21025 0.0
C358 C 0.99103 0.95923 0.24891 0.0
C359 C 0.02256 0.95905 0.26672 0.0
C360 C 0.99712 0.95878 0.22076 0.0
C361 C 0.05957 0.95141 0.25621 0.0
C362 C 0.06577 0.95041 0.22829 0.0
C363 C 0.04185 0.96544 0.18286 0.0
C364 C 1.01119 0.97664 0.16574 0.0
C365 C 0.03503 0.95687 0.21042 0.0
C366 C 0.97328 0.97324 0.17559 0.0
C367 C 0.96631 0.96446 0.20286 0.0
H368 H 0.46456 0.01376 0.18475 0.0
H369 H 0.58681 0.01575 0.16971 0.0
H370 H 0.59952 0.01846 0.21817 0.0
H371 H 0.57613 0.00447 0.26442 0.0
H372 H 0.45381 0.00348 0.27934 0.0
H373 H 0.44126 0.01704 0.23164 0.0
C374 C 0.49395 0.0161 0.19201 0.0
C375 C 0.52458 0.01299 0.17361 0.0
C376 C 0.50123 0.01704 0.22004 0.0
C377 C 0.56252 0.01705 0.1834 0.0
C378 C 0.56994 0.01839 0.21121 0.0
C379 C 0.54679 0.00843 0.2574 0.0
C380 C 0.51605 0.0014 0.27532 0.0
C381 C 0.53956 0.01586 0.22972 0.0
C382 C 0.47817 0.00761 0.26592 0.0
C383 C 0.47083 0.01529 0.23854 0.0
H384 H 0.06267 0.0243 0.68066 0.0
H385 H 0.94065 0.03727 0.66687 0.0
H386 H 0.92951 0.04224 0.71543 0.0
H387 H 0.95288 0.02663 0.76145 0.0
H388 H 0.07502 0.01428 0.77516 0.0
H389 H 0.08741 0.02625 0.72729 0.0
C390 C 0.0338 0.02965 0.6882 0.0
C391 C 1.00249 0.02879 0.6702 0.0
C392 C 0.02737 0.03175 0.71628 0.0
C393 C 0.9653 0.03664 0.68032 0.0
C394 C 0.95878 0.0393 0.70816 0.0
C395 C 0.98225 0.02774 0.75411 0.0
C396 C 1.01274 0.018 0.77173 0.0
C397 C 0.98934 0.03423 0.72635 0.0
C398 C 0.05076 0.02061 0.76196 0.0
C399 C 0.058 0.02736 0.73449 0.0
H400 H 0.44733 0.97776 0.68271 0.0
H401 H 0.56891 0.97575 0.66515 0.0
H402 H 0.58348 0.96749 0.71306 0.0
H403 H 0.56227 0.97588 0.76022 0.0
H404 H 0.44071 0.97651 0.77787 0.0
H405 H 0.4259 0.96917 0.72992 0.0
C406 C 0.47694 0.97429 0.68926 0.0
C407 C 0.5069 0.97888 0.6704 0.0
C408 C 0.48534 0.9699 0.71703 0.0
C409 C 0.54514 0.97338 0.67924 0.0
C410 C 0.55364 0.96877 0.70674 0.0
C411 C 0.53257 0.97317 0.75368 0.0
C412 C 0.50277 0.97822 0.77257 0.0
C413 C 0.52406 0.96938 0.72592 0.0
C414 C 0.4644 0.97367 0.76375 0.0
C415 C 0.45576 0.96966 0.73623 0.0
H416 H 0.58416 0.45737 0.17347 0.0
H417 H 0.46162 0.45426 0.15936 0.0
H418 H 0.45022 0.44094 0.20724 0.0
H419 H 0.47433 0.44633 0.25396 0.0
H420 H 0.59688 0.44864 0.26805 0.0
H421 H 0.6087 0.44497 0.21955 0.0
C422 C 0.55504 0.45247 0.1807 0.0
C423 C 0.52385 0.45841 0.16299 0.0
C424 C 0.54848 0.44533 0.20846 0.0
C425 C 0.48628 0.45099 0.17264 0.0
C426 C 0.4796 0.44349 0.20012 0.0
C427 C 0.5036 0.4447 0.2465 0.0
C428 C 0.53454 0.44939 0.26459 0.0
C429 C 0.51037 0.44316 0.21843 0.0
C430 C 0.57235 0.44622 0.25456 0.0
C431 C 0.57927 0.44428 0.22674 0.0
H432 H 0.08437 0.5206 0.26651 0.0
H433 H 0.96238 0.51668 0.28254 0.0
H434 H 0.94871 0.53233 0.23526 0.0
H435 H 0.97118 0.53112 0.18812 0.0
H436 H 0.09309 0.53588 0.17201 0.0
H437 H 0.10667 0.53722 0.22037 0.0
C438 C 0.05484 0.52439 0.25984 0.0
C439 C 0.02456 0.51588 0.27787 0.0
C440 C 0.04698 0.53301 0.2324 0.0
C441 C 0.98641 0.52193 0.26898 0.0
C442 C 0.97843 0.53081 0.24185 0.0
C443 C 1.00065 0.53386 0.19514 0.0
C444 C 0.031 0.53173 0.17646 0.0
C445 C 1.00845 0.53392 0.2231 0.0
C446 C 0.06905 0.5363 0.18594 0.0
C447 C 0.07697 0.53686 0.21368 0.0
H448 H 0.46175 0.537 0.67014 0.0
H449 H 0.58555 0.52786 0.67346 0.0
H450 H 0.58379 0.53748 0.72257 0.0
H451 H 0.54653 0.53189 0.76446 0.0
H452 H 0.42244 0.53256 0.76104 0.0
H453 H 0.42494 0.54374 0.71207 0.0
C454 C 0.4885 0.53816 0.68146 0.0
C455 C 0.52367 0.53045 0.66822 0.0
C456 C 0.48712 0.54149 0.70978 0.0
C457 C 0.55803 0.53302 0.68316 0.0
C458 C 0.55701 0.53822 0.7113 0.0
C459 C 0.51996 0.53554 0.75316 0.0
C460 C 0.48431 0.53017 0.76631 0.0
C461 C 0.5216 0.53987 0.72489 0.0
C462 C 0.45025 0.53582 0.75139 0.0
C463 C 0.45167 0.54198 0.72334 0.0
H464 H 0.05573 0.46669 0.76395 0.0
H465 H 0.93264 0.45827 0.77396 0.0
H466 H 0.92418 0.45368 0.72507 0.0
H467 H 0.95074 0.46834 0.67986 0.0
H468 H 0.07384 0.47729 0.66997 0.0
H469 H 0.08308 0.46454 0.71817 0.0
C470 C 0.02714 0.46248 0.75552 0.0
C471 C 0.99487 0.4644 0.77255 0.0
C472 C 0.02231 0.46079 0.72727 0.0
C473 C 0.95805 0.45798 0.76129 0.0
C474 C 0.95308 0.45556 0.73325 0.0
C475 C 0.97961 0.46635 0.6881 0.0
C476 C 1.01138 0.47527 0.67146 0.0
C477 C 0.98484 0.4596 0.71603 0.0
C478 C 0.04869 0.47157 0.68239 0.0
C479 C 0.0541 0.46438 0.71005 0.0
H480 H 0.97218 0.18879 0.11214 0.0
H481 H 0.09633 0.18535 0.11206 0.0
H482 H 0.09842 0.26314 0.11437 0.0
H483 H 0.06513 0.33177 0.11397 0.0
H484 H 0.94099 0.33532 0.11309 0.0
H485 H 0.93886 0.25742 0.11373 0.0
C486 C 0.99978 0.20493 0.11279 0.0
C487 C 0.03409 0.18118 0.11174 0.0
C488 C 1.00076 0.24959 0.11384 0.0
C489 C 0.06951 0.20276 0.11276 0.0
C490 C 0.07071 0.24725 0.11403 0.0
C491 C 0.03752 0.31562 0.11405 0.0
C492 C 1.00323 0.33945 0.11329 0.0
C493 C 0.03652 0.27094 0.11418 0.0
C494 C 0.9678 0.31785 0.11359 0.0
C495 C 0.96657 0.2733 0.11391 0.0
H496 H 0.57129 0.81462 0.10798 0.0
H497 H 0.44748 0.81249 0.11486 0.0
H498 H 0.44842 0.73474 0.11692 0.0
H499 H 0.48377 0.66784 0.11432 0.0
H500 H 0.60739 0.6692 0.10612 0.0
H501 H 0.6071 0.74722 0.10738 0.0
C502 C 0.54446 0.79724 0.11007 0.0
C503 C 0.50929 0.81946 0.11107 0.0
C504 C 0.54518 0.75253 0.11101 0.0
C505 C 0.4749 0.7963 0.11391 0.0
C506 C 0.47543 0.75183 0.11509 0.0
C507 C 0.5108 0.68503 0.11299 0.0
C508 C 0.54558 0.6626 0.10993 0.0
C509 C 0.51033 0.72968 0.11329 0.0
C510 C 0.58023 0.6856 0.10843 0.0
C511 C 0.58004 0.7302 0.10905 0.0
H512 H 0.56824 0.65001 0.32996 0.0
H513 H 0.44413 0.64467 0.32937 0.0
H514 H 0.44149 0.72256 0.32973 0.0
H515 H 0.47436 0.79168 0.33225 0.0
H516 H 0.59848 0.79675 0.33362 0.0
H517 H 0.60107 0.71906 0.33083 0.0
C518 C 0.54052 0.66576 0.32978 0.0
C519 C 0.50639 0.64142 0.32979 0.0
C520 C 0.53923 0.71042 0.33022 0.0
C521 C 0.47083 0.66254 0.32942 0.0
C522 C 0.46931 0.70708 0.32968 0.0
C523 C 0.50206 0.77591 0.33181 0.0
C524 C 0.53622 0.80011 0.3333 0.0
C525 C 0.50333 0.73127 0.3304 0.0
C526 C 0.57177 0.779 0.33258 0.0
C527 C 0.57326 0.73456 0.33102 0.0
H528 H 0.98871 0.30606 0.3268 0.0
H529 H 0.11237 0.3057 0.33489 0.0
H530 H 0.11221 0.22764 0.33323 0.0
H531 H 0.07644 0.15985 0.33226 0.0
H532 H 0.95258 0.1613 0.32548 0.0
H533 H 0.95347 0.23902 0.32388 0.0
C534 C 0.01579 0.28909 0.32805 0.0
C535 C 0.05053 0.3118 0.33118 0.0
C536 C 0.01539 0.24447 0.32749 0.0
C537 C 0.08523 0.28909 0.33253 0.0
C538 C 0.08512 0.24446 0.33168 0.0
C539 C 0.04961 0.17709 0.33027 0.0
C540 C 0.01442 0.15466 0.32917 0.0
C541 C 0.05029 0.22185 0.32961 0.0
C542 C 0.98001 0.17764 0.3265 0.0
C543 C 0.9805 0.22211 0.32558 0.0
H544 H 0.95343 0.66825 0.83269 0.0
H545 H 0.07758 0.66426 0.83273 0.0
H546 H 0.07991 0.74206 0.83062 0.0
H547 H 0.04691 0.81079 0.83094 0.0
H548 H 0.9228 0.81508 0.8319 0.0
H549 H 0.92034 0.73714 0.83126 0.0
C550 C 0.98108 0.68427 0.83209 0.0
C551 C 0.01533 0.66032 0.83303 0.0
C552 C 0.98221 0.72896 0.83112 0.0
C553 C 0.05081 0.68179 0.83213 0.0
C554 C 0.05215 0.72629 0.83095 0.0
C555 C 0.01921 0.79483 0.83086 0.0
C556 C 0.98503 0.81888 0.83163 0.0
C557 C 0.01804 0.75015 0.83078 0.0
C558 C 0.94952 0.79746 0.83138 0.0
C559 C 0.94811 0.75288 0.83107 0.0
H560 H 0.54065 0.32851 0.82409 0.0
H561 H 0.4169 0.32022 0.82966 0.0
H562 H 0.42095 0.24239 0.83003 0.0
H563 H 0.45964 0.17738 0.83122 0.0
H564 H 0.58348 0.18562 0.82693 0.0
H565 H 0.57924 0.26331 0.82352 0.0
C566 C 0.51442 0.30981 0.8252 0.0
C567 C 0.47845 0.33033 0.82698 0.0
C568 C 0.51702 0.2652 0.82578 0.0
C569 C 0.44491 0.30538 0.82832 0.0
C570 C 0.44724 0.26087 0.8286 0.0
C571 C 0.48582 0.19601 0.82942 0.0
C572 C 0.52192 0.17558 0.82951 0.0
C573 C 0.48316 0.24054 0.82774 0.0
C574 C 0.55538 0.20042 0.827 0.0
C575 C 0.55295 0.24484 0.82508 0.0
H576 H 0.54637 0.17853 0.61072 0.0
H577 H 0.42235 0.18318 0.60743 0.0
H578 H 0.42491 0.26122 0.60844 0.0
H579 H 0.46254 0.32766 0.60804 0.0
H580 H 0.58663 0.32222 0.6101 0.0
H581 H 0.58371 0.24445 0.61187 0.0
C582 C 0.51974 0.19643 0.61033 0.0
C583 C 0.48414 0.17488 0.60884 0.0
C584 C 0.52148 0.24106 0.61062 0.0
C585 C 0.45009 0.19884 0.60852 0.0
C586 C 0.45158 0.24346 0.60905 0.0
C587 C 0.48903 0.30957 0.60906 0.0
C588 C 0.52484 0.33089 0.60883 0.0
C589 C 0.48715 0.26485 0.60976 0.0
C590 C 0.55874 0.30677 0.61017 0.0
C591 C 0.55708 0.26228 0.61115 0.0
H592 H 0.95929 0.82545 0.60844 0.0
H593 H 0.08346 0.82742 0.61053 0.0
H594 H 0.08429 0.74956 0.61258 0.0
H595 H 0.05003 0.6814 0.61183 0.0
H596 H 0.92592 0.67909 0.6087 0.0
H597 H 0.92489 0.7571 0.60918 0.0
C598 C 0.98663 0.80898 0.60948 0.0
C599 C 0.02134 0.83239 0.6092 0.0
C600 C 0.98688 0.76426 0.61041 0.0
C601 C 0.05637 0.81032 0.61064 0.0
C602 C 0.05684 0.76579 0.61179 0.0
C603 C 0.02263 0.6978 0.61138 0.0
C604 C 0.98804 0.67427 0.6101 0.0
C605 C 0.0223 0.74249 0.61138 0.0
C606 C 0.95293 0.69628 0.60965 0.0
C607 C 0.95235 0.74089 0.60987 0.0
H608 H 0.05613 0.97991 0.92504 0.0
H609 H 0.93374 0.00294 0.92253 0.0
H610 H 0.93435 0.01918 -0.02899 0.0
H611 H 0.96929 0.02566 0.01379 0.0
H612 H 0.09163 0.00245 0.01645 0.0
H613 H 0.0912 0.9869 0.96784 0.0
C614 C 0.02952 0.98869 0.93498 0.0
C615 C 0.99487 0.99024 0.92012 0.0
C616 C 0.03003 -0.00246 0.9628 0.0
C617 C 0.96076 0.00158 0.93344 0.0
C618 C 0.96109 0.01072 0.96116 0.0
C619 C 0.99595 0.01705 0.00386 0.0
C620 C 0.03049 0.01508 0.0188 0.0
C621 C 0.99551 0.0085 -0.02399 0.0
C622 C 0.06468 0.00407 0.00547 0.0
C623 C 0.06444 -0.00469 -0.02231 0.0
H624 H 0.46826 0.01727 0.92919 0.0
H625 H 0.59133 0.00227 0.92263 0.0
H626 H 0.59558 0.9906 -0.02839 0.0
H627 H 0.56436 0.98463 0.01592 0.0
H628 H 0.44124 -0.0006 0.02233 0.0
H629 H 0.43716 0.01199 -0.02652 0.0
C630 C 0.49608 0.01123 0.93836 0.0
C631 C 0.52946 0.01045 0.9222 0.0
C632 C 0.49833 0.005 0.96645 0.0
C633 C 0.5652 0.00285 0.93455 0.0
C634 C 0.56765 -0.00364 0.96256 0.0
C635 C 0.53659 0.99093 0.00674 0.0
C636 C 0.50311 0.99113 0.02282 0.0
C637 C 0.53441 -0.00247 -0.02133 0.0
C638 C 0.46743 -0.00084 0.01048 0.0
C639 C 0.46507 0.00616 -0.01746 0.0
H640 H 0.55096 0.01045 0.51707 0.0
H641 H 0.42793 0.99103 0.51744 0.0
H642 H 0.42988 0.97277 0.4692 0.0
H643 H 0.46645 0.96292 0.42727 0.0
H644 H 0.58945 0.9827 0.42709 0.0
H645 H 0.58739 0.00085 0.47527 0.0
C646 C 0.52446 0.00208 0.50673 0.0
C647 C 0.48929 0.00199 0.52093 0.0
C648 C 0.52578 0.99206 0.47909 0.0
C649 C 0.45535 0.9912 0.50706 0.0
C650 C 0.45647 0.98091 0.47948 0.0
C651 C 0.4929 0.97134 0.43766 0.0
C652 C 0.52813 0.97149 0.42352 0.0
C653 C 0.49151 0.98142 0.46532 0.0
C654 C 0.562 0.98242 0.43742 0.0
C655 C 0.56083 0.99266 0.46498 0.0
H656 H 0.05801 0.96412 0.51042 0.0
H657 H 0.95099 0.03073 0.52194 0.0
H658 H 0.94157 0.0348 0.47288 0.0
H659 H 0.96367 0.019 0.42664 0.0
H660 H 0.07049 0.95182 0.41531 0.0
H661 H 0.07953 0.9473 0.46432 0.0
C662 C 0.03301 0.98017 0.50213 0.0
C663 C 1.0055 -0.00244 0.51966 0.0
C664 C 0.02725 0.98134 0.47397 0.0
C665 C 0.97272 0.0174 0.50874 0.0
C666 C 0.96715 0.01942 0.48074 0.0
C667 C 0.98848 0.00264 0.43496 0.0
C668 C 0.01623 0.98556 0.41746 0.0
C669 C 0.994 0.00105 0.46315 0.0
C670 C 0.04865 0.9651 0.42845 0.0
C671 C 0.05403 0.96281 0.45644 0.0
H672 H 0.4689 0.51217 0.01341 0.0
H673 H 0.59206 0.49632 0.00861 0.0
H674 H 0.5873 0.48898 0.95932 0.0
H675 H 0.54831 0.48749 0.91798 0.0
H676 H 0.4251 0.50284 0.92292 0.0
H677 H 0.42997 0.51077 -0.02786 0.0
C678 C 0.49481 0.5069 0.00169 0.0
C679 C 0.53085 0.50469 0.01475 0.0
C680 C 0.49188 0.50316 -0.02653 0.0
C681 C 0.56399 0.49797 -0.00087 0.0
C682 C 0.56129 0.49399 -0.02905 0.0
C683 C 0.52245 0.49291 0.92972 0.0
C684 C 0.48634 0.49474 0.91672 0.0
C685 C 0.52541 0.49677 0.95795 0.0
C686 C 0.45322 0.50147 0.93237 0.0
C687 C 0.45598 0.5058 0.9605 0.0
H688 H 0.95908 0.47966 0.0176 0.0
H689 H 0.07161 0.5363 0.02629 0.0
H690 H 0.07826 0.54032 -0.02289 0.0
H691 H 0.05304 0.52579 0.93165 0.0
H692 H 0.94044 0.4695 0.92265 0.0
H693 H 0.93325 0.46635 -0.02809 0.0
C694 C 0.98469 0.49364 0.00869 0.0
C695 C 0.0147 0.50786 0.02549 0.0
C696 C 0.98873 0.49493 -0.01963 0.0
C697 C 0.04805 0.52524 0.01371 0.0
C698 C 0.05203 0.52725 -0.01438 0.0
C699 C 0.0272 0.51223 0.94049 0.0
C700 C 0.99753 0.49748 0.92361 0.0
C701 C 0.02286 0.51149 0.96876 0.0
C702 C 0.96382 0.48082 0.9353 0.0
C703 C 0.95955 0.47929 0.96344 0.0
H704 H 0.06132 0.5116 0.51917 0.0
H705 H 0.93857 0.48996 0.51889 0.0
H706 H 0.94101 0.47324 0.47049 0.0
H707 H 0.9777 0.46607 0.42853 0.0
H708 H 0.10036 0.48828 0.42872 0.0
H709 H 0.09807 0.50402 0.47726 0.0
C710 C 0.03503 0.50301 0.50864 0.0
C711 C 0.99976 0.50197 0.52268 0.0
C712 C 0.03659 0.49394 0.48087 0.0
C713 C 0.96607 0.4909 0.50861 0.0
C714 C 0.96744 0.48149 0.48094 0.0
C715 C 1.00402 0.47446 0.43909 0.0
C716 C 0.0392 0.47611 0.42496 0.0
C717 C 1.0025 0.48322 0.46689 0.0
C718 C 0.07293 0.4869 0.43907 0.0
C719 C 0.07164 0.49578 0.46681 0.0
H720 H 0.56466 0.45663 0.50852 0.0
H721 H 0.45811 0.52436 0.51973 0.0
H722 H 0.44719 0.52479 0.47076 0.0
H723 H 0.46829 0.50635 0.42463 0.0
H724 H 0.575 0.43883 0.41369 0.0
H725 H 0.58491 0.43671 0.4627 0.0
C726 C 0.53937 0.47205 0.5002 0.0
C727 C 0.5125 0.49089 0.51764 0.0
C728 C 0.53282 0.47129 0.47212 0.0
C729 C 0.47939 0.50994 0.50664 0.0
C730 C 0.47296 0.5099 0.47868 0.0
C731 C 0.49321 0.49033 0.43307 0.0
C732 C 0.52071 0.47248 0.41568 0.0
C733 C 0.49931 0.49034 0.46123 0.0
C734 C 0.55333 0.45259 0.42677 0.0
C735 C 0.55921 0.45172 0.45474 0.0
loop_
_geom_bond_atom_site_label_1
_geom_bond_atom_site_label_2
_geom_bond_distance
_geom_bond_site_symmetry_2
_ccdc_geom_bond_type
Zn0 O3 2.031 1_655 S
Zn0 O5 2.049 . S
Zn0 O10 2.067 1_655 S
Zn1 O2 1.962 . S
Zn1 O4 1.986 . S
Zn1 O6 1.996 . S
Zn1 O9 1.943 . S
O2 Zn1 1.962 . S
O2 C7 1.254 . S
O3 Zn0 2.031 1_455 S
O3 C7 1.269 . S
O4 Zn1 1.986 . S
O4 C11 1.262 . S
O5 Zn0 2.049 . S
O5 C13 1.260 1_655 S
O6 Zn1 1.996 . S
O6 C13 1.257 . S
C7 O2 1.254 . S
C7 O3 1.269 . S
C8 O9 1.249 . S
C8 O10 1.270 . S
O9 Zn1 1.943 . S
O9 C8 1.249 . S
O10 Zn0 2.067 1_455 S
O10 C8 1.270 . S
C11 O4 1.262 . S
C11 O12 1.232 . S
O12 C11 1.232 . S
C13 O5 1.260 1_455 S
C13 O6 1.257 . S
Zn14 O17 2.031 . S
Zn14 O19 2.049 . S
Zn14 O24 2.067 . S
Zn15 O16 1.962 . S
Zn15 O18 1.986 . S
Zn15 O20 1.996 . S
Zn15 O23 1.943 . S
O16 Zn15 1.962 . S
O16 C21 1.254 . S
O17 Zn14 2.031 . S
O17 C21 1.269 . S
O18 Zn15 1.986 . S
O18 C25 1.262 . S
O19 Zn14 2.049 . S
O19 C27 1.260 . S
O20 Zn15 1.996 . S
O20 C27 1.257 . S
C21 O16 1.254 . S
C21 O17 1.269 . S
C22 O23 1.249 . S
C22 O24 1.270 . S
O23 Zn15 1.943 . S
O23 C22 1.249 . S
O24 Zn14 2.067 . S
O24 C22 1.270 . S
C25 O18 1.262 . S
C25 O26 1.232 . S
O26 C25 1.232 . S
C27 O19 1.260 . S
C27 O20 1.257 . S
Zn28 O31 2.031 . S
Zn28 O33 2.049 . S
Zn28 O38 2.067 . S
Zn29 O30 1.962 . S
Zn29 O32 1.986 . S
Zn29 O34 1.996 . S
Zn29 O37 1.943 . S
O30 Zn29 1.962 . S
O30 C35 1.254 . S
O31 Zn28 2.031 . S
O31 C35 1.269 . S
O32 Zn29 1.986 . S
O32 C39 1.262 . S
O33 Zn28 2.049 . S
O33 C41 1.260 . S
O34 Zn29 1.996 . S
O34 C41 1.257 . S
C35 O30 1.254 . S
C35 O31 1.269 . S
C36 O37 1.249 . S
C36 O38 1.270 . S
O37 Zn29 1.943 . S
O37 C36 1.249 . S
O38 Zn28 2.067 . S
O38 C36 1.270 . S
C39 O32 1.262 . S
C39 O40 1.232 . S
O40 C39 1.232 . S
C41 O33 1.260 . S
C41 O34 1.257 . S
Zn42 O45 2.031 1_455 S
Zn42 O47 2.049 . S
Zn42 O52 2.067 1_455 S
Zn43 O44 1.962 . S
Zn43 O46 1.986 . S
Zn43 O48 1.996 . S
Zn43 O51 1.943 . S
O44 Zn43 1.962 . S
O44 C49 1.254 . S
O45 Zn42 2.031 1_655 S
O45 C49 1.269 . S
O46 Zn43 1.986 . S
O46 C53 1.262 . S
O47 Zn42 2.049 . S
O47 C55 1.260 1_455 S
O48 Zn43 1.996 . S
O48 C55 1.257 . S
C49 O44 1.254 . S
C49 O45 1.269 . S
C50 O51 1.249 . S
C50 O52 1.270 . S
O51 Zn43 1.943 . S
O51 C50 1.249 . S
O52 Zn42 2.067 1_655 S
O52 C50 1.270 . S
C53 O46 1.262 . S
C53 O54 1.232 . S
O54 C53 1.232 . S
C55 O47 1.260 1_655 S
C55 O48 1.257 . S
Zn56 O59 2.031 1_455 S
Zn56 O61 2.049 . S
Zn56 O66 2.067 1_455 S
Zn57 O58 1.962 . S
Zn57 O60 1.986 . S
Zn57 O62 1.996 . S
Zn57 O65 1.943 . S
O58 Zn57 1.962 . S
O58 C63 1.254 . S
O59 Zn56 2.031 1_655 S
O59 C63 1.269 . S
O60 Zn57 1.986 . S
O60 C67 1.262 . S
O61 Zn56 2.049 . S
O61 C69 1.260 1_455 S
O62 Zn57 1.996 . S
O62 C69 1.257 . S
C63 O58 1.254 . S
C63 O59 1.269 . S
C64 O65 1.249 . S
C64 O66 1.270 . S
O65 Zn57 1.943 . S
O65 C64 1.249 . S
O66 Zn56 2.067 1_655 S
O66 C64 1.270 . S
C67 O60 1.262 . S
C67 O68 1.232 . S
O68 C67 1.232 . S
C69 O61 1.260 1_655 S
C69 O62 1.257 . S
Zn70 O73 2.031 . S
Zn70 O75 2.049 . S
Zn70 O80 2.067 . S
Zn71 O72 1.962 . S
Zn71 O74 1.986 . S
Zn71 O76 1.996 . S
Zn71 O79 1.943 . S
O72 Zn71 1.962 . S
O72 C77 1.254 . S
O73 Zn70 2.031 . S
O73 C77 1.269 . S
O74 Zn71 1.986 . S
O74 C81 1.262 . S
O75 Zn70 2.049 . S
O75 C83 1.260 . S
O76 Zn71 1.996 . S
O76 C83 1.257 . S
C77 O72 1.254 . S
C77 O73 1.269 . S
C78 O79 1.249 . S
C78 O80 1.270 . S
O79 Zn71 1.943 . S
O79 C78 1.249 . S
O80 Zn70 2.067 . S
O80 C78 1.270 . S
C81 O74 1.262 . S
C81 O82 1.232 . S
O82 C81 1.232 . S
C83 O75 1.260 . S
C83 O76 1.257 . S
Zn84 O87 2.031 . S
Zn84 O89 2.049 . S
Zn84 O94 2.067 . S
Zn85 O86 1.962 . S
Zn85 O88 1.986 . S
Zn85 O90 1.996 . S
Zn85 O93 1.943 . S
O86 Zn85 1.962 . S
O86 C91 1.254 . S
O87 Zn84 2.031 . S
O87 C91 1.269 . S
O88 Zn85 1.986 . S
O88 C95 1.262 . S
O89 Zn84 2.049 . S
O89 C97 1.260 . S
O90 Zn85 1.996 . S
O90 C97 1.257 . S
C91 O86 1.254 . S
C91 O87 1.269 . S
C92 O93 1.249 . S
C92 O94 1.270 . S
O93 Zn85 1.943 . S
O93 C92 1.249 . S
O94 Zn84 2.067 . S
O94 C92 1.270 . S
C95 O88 1.262 . S
C95 O96 1.232 . S
O96 C95 1.232 . S
C97 O89 1.260 . S
C97 O90 1.257 . S
Zn98 O101 2.031 1_655 S
Zn98 O103 2.049 . S
Zn98 O108 2.067 1_655 S
Zn99 O100 1.962 . S
Zn99 O102 1.986 . S
Zn99 O104 1.996 . S
Zn99 O107 1.943 . S
O100 Zn99 1.962 . S
O100 C105 1.254 . S
O101 Zn98 2.031 1_455 S
O101 C105 1.269 . S
O102 Zn99 1.986 . S
O102 C109 1.262 . S
O103 Zn98 2.049 . S
O103 C111 1.260 1_655 S
O104 Zn99 1.996 . S
O104 C111 1.257 . S
C105 O100 1.254 . S
C105 O101 1.269 . S
C106 O107 1.249 . S
C106 O108 1.270 . S
O107 Zn99 1.943 . S
O107 C106 1.249 . S
O108 Zn98 2.067 1_455 S
O108 C106 1.270 . S
C109 O102 1.262 . S
C109 O110 1.232 . S
O110 C109 1.232 . S
C111 O103 1.260 1_455 S
C111 O104 1.257 . S
Zn112 O115 2.031 . S
Zn112 O117 2.049 . S
Zn112 O122 2.067 . S
Zn113 O114 1.962 . S
Zn113 O116 1.986 . S
Zn113 O118 1.996 . S
Zn113 O121 1.943 . S
O114 Zn113 1.962 . S
O114 C119 1.254 . S
O115 Zn112 2.031 . S
O115 C119 1.269 . S
O116 Zn113 1.986 . S
O116 C123 1.262 . S
O117 Zn112 2.049 . S
O117 C125 1.260 . S
O118 Zn113 1.996 . S
O118 C125 1.257 . S
C119 O114 1.254 . S
C119 O115 1.269 . S
C120 O121 1.249 . S
C120 O122 1.270 . S
O121 Zn113 1.943 . S
O121 C120 1.249 . S
O122 Zn112 2.067 . S
O122 C120 1.270 . S
C123 O116 1.262 . S
C123 O124 1.232 . S
O124 C123 1.232 . S
C125 O117 1.260 . S
C125 O118 1.257 . S
Zn126 O129 2.031 1_455 S
Zn126 O131 2.049 . S
Zn126 O136 2.067 1_455 S
Zn127 O128 1.962 . S
Zn127 O130 1.986 . S
Zn127 O132 1.996 . S
Zn127 O135 1.943 . S
O128 Zn127 1.962 . S
O128 C133 1.254 . S
O129 Zn126 2.031 1_655 S
O129 C133 1.269 . S
O130 Zn127 1.986 . S
O130 C137 1.262 . S
O131 Zn126 2.049 . S
O131 C139 1.260 1_455 S
O132 Zn127 1.996 . S
O132 C139 1.257 . S
C133 O128 1.254 . S
C133 O129 1.269 . S
C134 O135 1.249 . S
C134 O136 1.270 . S
O135 Zn127 1.943 . S
O135 C134 1.249 . S
O136 Zn126 2.067 1_655 S
O136 C134 1.270 . S
C137 O130 1.262 . S
C137 O138 1.232 . S
O138 C137 1.232 . S
C139 O131 1.260 1_655 S
C139 O132 1.257 . S
Zn140 O143 2.031 1_655 S
Zn140 O145 2.049 . S
Zn140 O150 2.067 1_655 S
Zn141 O142 1.962 . S
Zn141 O144 1.986 . S
Zn141 O146 1.996 . S
Zn141 O149 1.943 . S
O142 Zn141 1.962 . S
O142 C147 1.254 . S
O143 Zn140 2.031 1_455 S
O143 C147 1.269 . S
O144 Zn141 1.986 . S
O144 C151 1.262 . S
O145 Zn140 2.049 . S
O145 C153 1.260 1_655 S
O146 Zn141 1.996 . S
O146 C153 1.257 . S
C147 O142 1.254 . S
C147 O143 1.269 . S
C148 O149 1.249 . S
C148 O150 1.270 . S
O149 Zn141 1.943 . S
O149 C148 1.249 . S
O150 Zn140 2.067 1_455 S
O150 C148 1.270 . S
C151 O144 1.262 . S
C151 O152 1.232 . S
O152 C151 1.232 . S
C153 O145 1.260 1_455 S
C153 O146 1.257 . S
Zn154 O157 2.031 . S
Zn154 O159 2.049 . S
Zn154 O164 2.067 . S
Zn155 O156 1.962 . S
Zn155 O158 1.986 . S
Zn155 O160 1.996 . S
Zn155 O163 1.943 . S
O156 Zn155 1.962 . S
O156 C161 1.254 . S
O157 Zn154 2.031 . S
O157 C161 1.269 . S
O158 Zn155 1.986 . S
O158 C165 1.262 . S
O159 Zn154 2.049 . S
O159 C167 1.260 . S
O160 Zn155 1.996 . S
O160 C167 1.257 . S
C161 O156 1.254 . S
C161 O157 1.269 . S
C162 O163 1.249 . S
C162 O164 1.270 . S
O163 Zn155 1.943 . S
O163 C162 1.249 . S
O164 Zn154 2.067 . S
O164 C162 1.270 . S
C165 O158 1.262 . S
C165 O166 1.232 . S
O166 C165 1.232 . S
C167 O159 1.260 . S
C167 O160 1.257 . S
Zn168 O171 2.031 . S
Zn168 O173 2.049 . S
Zn168 O178 2.067 . S
Zn169 O170 1.962 . S
Zn169 O172 1.986 . S
Zn169 O174 1.996 . S
Zn169 O177 1.943 . S
O170 Zn169 1.962 . S
O170 C175 1.254 . S
O171 Zn168 2.031 . S
O171 C175 1.269 . S
O172 Zn169 1.986 . S
O172 C179 1.262 . S
O173 Zn168 2.049 . S
O173 C181 1.260 . S
O174 Zn169 1.996 . S
O174 C181 1.257 . S
C175 O170 1.254 . S
C175 O171 1.269 . S
C176 O177 1.249 . S
C176 O178 1.270 . S
O177 Zn169 1.943 . S
O177 C176 1.249 . S
O178 Zn168 2.067 . S
O178 C176 1.270 . S
C179 O172 1.262 . S
C179 O180 1.232 . S
O180 C179 1.232 . S
C181 O173 1.260 . S
C181 O174 1.257 . S
Zn182 O185 2.031 1_655 S
Zn182 O187 2.049 . S
Zn182 O192 2.067 1_655 S
Zn183 O184 1.962 . S
Zn183 O186 1.986 . S
Zn183 O188 1.996 . S
Zn183 O191 1.943 . S
O184 Zn183 1.962 . S
O184 C189 1.254 . S
O185 Zn182 2.031 1_455 S
O185 C189 1.269 . S
O186 Zn183 1.986 . S
O186 C193 1.262 . S
O187 Zn182 2.049 . S
O187 C195 1.260 1_655 S
O188 Zn183 1.996 . S
O188 C195 1.257 . S
C189 O184 1.254 . S
C189 O185 1.269 . S
C190 O191 1.249 . S
C190 O192 1.270 . S
O191 Zn183 1.943 . S
O191 C190 1.249 . S
O192 Zn182 2.067 1_455 S
O192 C190 1.270 . S
C193 O186 1.262 . S
C193 O194 1.232 . S
O194 C193 1.232 . S
C195 O187 1.260 1_455 S
C195 O188 1.257 . S
Zn196 O199 2.031 1_455 S
Zn196 O201 2.049 . S
Zn196 O206 2.067 1_455 S
Zn197 O198 1.962 . S
Zn197 O200 1.986 . S
Zn197 O202 1.996 . S
Zn197 O205 1.943 . S
O198 Zn197 1.962 . S
O198 C203 1.254 . S
O199 Zn196 2.031 1_655 S
O199 C203 1.269 . S
O200 Zn197 1.986 . S
O200 C207 1.262 . S
O201 Zn196 2.049 . S
O201 C209 1.260 1_455 S
O202 Zn197 1.996 . S
O202 C209 1.257 . S
C203 O198 1.254 . S
C203 O199 1.269 . S
C204 O205 1.249 . S
C204 O206 1.270 . S
O205 Zn197 1.943 . S
O205 C204 1.249 . S
O206 Zn196 2.067 1_655 S
O206 C204 1.270 . S
C207 O200 1.262 . S
C207 O208 1.232 . S
O208 C207 1.232 . S
C209 O201 1.260 1_655 S
C209 O202 1.257 . S
Zn210 O213 2.031 . S
Zn210 O215 2.049 . S
Zn210 O220 2.067 . S
Zn211 O212 1.962 . S
Zn211 O214 1.986 . S
Zn211 O216 1.996 . S
Zn211 O219 1.943 . S
O212 Zn211 1.962 . S
O212 C217 1.254 . S
O213 Zn210 2.031 . S
O213 C217 1.269 . S
O214 Zn211 1.986 . S
O214 C221 1.262 . S
O215 Zn210 2.049 . S
O215 C223 1.260 . S
O216 Zn211 1.996 . S
O216 C223 1.257 . S
C217 O212 1.254 . S
C217 O213 1.269 . S
C218 O219 1.249 . S
C218 O220 1.270 . S
O219 Zn211 1.943 . S
O219 C218 1.249 . S
O220 Zn210 2.067 . S
O220 C218 1.270 . S
C221 O214 1.262 . S
C221 O222 1.232 . S
O222 C221 1.232 . S
C223 O215 1.260 . S
C223 O216 1.257 . S
H224 C230 0.930 . S
H225 C233 0.930 . S
H226 C234 0.930 . S
H227 C235 0.930 . S
H228 C238 0.930 . S
H229 C239 0.930 . S
C230 H224 0.930 . S
C230 C231 1.355 . S
C230 C232 1.415 . S
C231 C230 1.355 . S
C231 C233 1.419 1_565 S
C232 C230 1.415 . S
C232 C237 1.425 1_565 S
C232 C239 1.409 . S
C233 H225 0.930 . S
C233 C231 1.419 1_545 S
C233 C234 1.362 . S
C234 H226 0.930 . S
C234 C233 1.362 . S
C234 C237 1.409 . S
C235 H227 0.930 . S
C235 C236 1.355 . S
C235 C237 1.415 . S
C236 C235 1.355 . S
C236 C238 1.419 1_545 S
C237 C232 1.425 1_545 S
C237 C234 1.409 . S
C237 C235 1.415 . S
C238 H228 0.930 . S
C238 C236 1.419 1_565 S
C238 C239 1.362 . S
C239 H229 0.930 . S
C239 C232 1.409 . S
C239 C238 1.362 . S
H240 C246 0.930 . S
H241 C249 0.930 . S
H242 C250 0.930 . S
H243 C251 0.930 . S
H244 C254 0.930 . S
H245 C255 0.930 . S
C246 H240 0.930 . S
C246 C247 1.355 . S
C246 C248 1.415 . S
C247 C246 1.355 . S
C247 C249 1.419 1_565 S
C248 C246 1.415 . S
C248 C253 1.425 1_565 S
C248 C255 1.409 . S
C249 H241 0.930 . S
C249 C247 1.419 1_545 S
C249 C250 1.362 . S
C250 H242 0.930 . S
C250 C249 1.362 . S
C250 C253 1.409 . S
C251 H243 0.930 . S
C251 C252 1.355 . S
C251 C253 1.415 . S
C252 C251 1.355 . S
C252 C254 1.419 1_545 S
C253 C248 1.425 1_545 S
C253 C250 1.409 . S
C253 C251 1.415 . S
C254 H244 0.930 . S
C254 C252 1.419 1_565 S
C254 C255 1.362 . S
C255 H245 0.930 . S
C255 C248 1.409 . S
C255 C254 1.362 . S
H256 C262 0.930 . S
H257 C265 0.930 . S
H258 C266 0.930 . S
H259 C267 0.930 . S
H260 C270 0.930 . S
H261 C271 0.930 . S
C262 H256 0.930 . S
C262 C263 1.355 1_545 S
C262 C264 1.415 . S
C263 C262 1.355 1_565 S
C263 C265 1.419 . S
C264 C262 1.415 . S
C264 C269 1.425 1_545 S
C264 C271 1.409 . S
C265 H257 0.930 . S
C265 C263 1.419 . S
C265 C266 1.362 . S
C266 H258 0.930 . S
C266 C265 1.362 . S
C266 C269 1.409 . S
C267 H259 0.930 . S
C267 C268 1.355 1_565 S
C267 C269 1.415 . S
C268 C267 1.355 1_545 S
C268 C270 1.419 . S
C269 C264 1.425 1_565 S
C269 C266 1.409 . S
C269 C267 1.415 . S
C270 H260 0.930 . S
C270 C268 1.419 . S
C270 C271 1.362 . S
C271 H261 0.930 . S
C271 C264 1.409 . S
C271 C270 1.362 . S
H272 C278 0.930 . S
H273 C281 0.930 . S
H274 C282 0.930 . S
H275 C283 0.930 . S
H276 C286 0.930 . S
H277 C287 0.930 . S
C278 H272 0.930 . S
C278 C279 1.355 1_545 S
C278 C280 1.415 . S
C279 C278 1.355 1_565 S
C279 C281 1.419 . S
C280 C278 1.415 . S
C280 C285 1.425 1_545 S
C280 C287 1.409 . S
C281 H273 0.930 . S
C281 C279 1.419 . S
C281 C282 1.362 . S
C282 H274 0.930 . S
C282 C281 1.362 . S
C282 C285 1.409 . S
C283 H275 0.930 . S
C283 C284 1.355 1_565 S
C283 C285 1.415 . S
C284 C283 1.355 1_545 S
C284 C286 1.419 . S
C285 C280 1.425 1_565 S
C285 C282 1.409 . S
C285 C283 1.415 . S
C286 H276 0.930 . S
C286 C284 1.419 . S
C286 C287 1.362 . S
C287 H277 0.930 . S
C287 C280 1.409 . S
C287 C286 1.362 . S
H288 C294 0.930 . S
H289 C297 0.930 . S
H290 C298 0.930 . S
H291 C299 0.930 . S
H292 C302 0.930 . S
H293 C303 0.930 . S
C294 H288 0.930 . S
C294 C295 1.355 . S
C294 C296 1.415 . S
C295 C294 1.355 . S
C295 C297 1.419 . S
C296 C294 1.415 . S
C296 C301 1.425 . S
C296 C303 1.409 . S
C297 H289 0.930 . S
C297 C295 1.419 . S
C297 C298 1.362 . S
C298 H290 0.930 . S
C298 C297 1.362 . S
C298 C301 1.409 . S
C299 H291 0.930 . S
C299 C300 1.355 . S
C299 C301 1.415 . S
C300 C299 1.355 . S
C300 C302 1.419 . S
C301 C296 1.425 . S
C301 C298 1.409 . S
C301 C299 1.415 . S
C302 H292 0.930 . S
C302 C300 1.419 . S
C302 C303 1.362 . S
C303 H293 0.930 . S
C303 C296 1.409 . S
C303 C302 1.362 . S
H304 C310 0.930 . S
H305 C313 0.930 . S
H306 C314 0.930 . S
H307 C315 0.930 . S
H308 C318 0.930 . S
H309 C319 0.930 . S
C310 H304 0.930 . S
C310 C311 1.355 . S
C310 C312 1.415 . S
C311 C310 1.355 . S
C311 C313 1.419 . S
C312 C310 1.415 . S
C312 C317 1.425 . S
C312 C319 1.409 . S
C313 H305 0.930 . S
C313 C311 1.419 . S
C313 C314 1.362 . S
C314 H306 0.930 . S
C314 C313 1.362 . S
C314 C317 1.409 . S
C315 H307 0.930 . S
C315 C316 1.355 . S
C315 C317 1.415 . S
C316 C315 1.355 . S
C316 C318 1.419 . S
C317 C312 1.425 . S
C317 C314 1.409 . S
C317 C315 1.415 . S
C318 H308 0.930 . S
C318 C316 1.419 . S
C318 C319 1.362 . S
C319 H309 0.930 . S
C319 C312 1.409 . S
C319 C318 1.362 . S
H320 C326 0.930 . S
H321 C329 0.930 . S
H322 C330 0.930 . S
H323 C331 0.930 . S
H324 C334 0.930 . S
H325 C335 0.930 . S
C326 H320 0.930 . S
C326 C327 1.355 . S
C326 C328 1.415 . S
C327 C326 1.355 . S
C327 C329 1.419 . S
C328 C326 1.415 . S
C328 C333 1.425 . S
C328 C335 1.409 . S
C329 H321 0.930 . S
C329 C327 1.419 . S
C329 C330 1.362 . S
C330 H322 0.930 . S
C330 C329 1.362 . S
C330 C333 1.409 . S
C331 H323 0.930 . S
C331 C332 1.355 . S
C331 C333 1.415 . S
C332 C331 1.355 . S
C332 C334 1.419 . S
C333 C328 1.425 . S
C333 C330 1.409 . S
C333 C331 1.415 . S
C334 H324 0.930 . S
C334 C332 1.419 . S
C334 C335 1.362 . S
C335 H325 0.930 . S
C335 C328 1.409 . S
C335 C334 1.362 . S
H336 C342 0.930 . S
H337 C345 0.930 . S
H338 C346 0.930 . S
H339 C347 0.930 . S
H340 C350 0.930 . S
H341 C351 0.930 . S
C342 H336 0.930 . S
C342 C343 1.355 . S
C342 C344 1.415 . S
C343 C342 1.355 . S
C343 C345 1.419 . S
C344 C342 1.415 . S
C344 C349 1.425 . S
C344 C351 1.409 . S
C345 H337 0.930 . S
C345 C343 1.419 . S
C345 C346 1.362 . S
C346 H338 0.930 . S
C346 C345 1.362 . S
C346 C349 1.409 . S
C347 H339 0.930 . S
C347 C348 1.355 . S
C347 C349 1.415 . S
C348 C347 1.355 . S
C348 C350 1.419 . S
C349 C344 1.425 . S
C349 C346 1.409 . S
C349 C347 1.415 . S
C350 H340 0.930 . S
C350 C348 1.419 . S
C350 C351 1.362 . S
C351 H341 0.930 . S
C351 C344 1.409 . S
C351 C350 1.362 . S
H352 C358 0.930 . S
H353 C361 0.930 . S
H354 C362 0.930 . S
H355 C363 0.930 . S
H356 C366 0.930 . S
H357 C367 0.930 . S
C358 H352 0.930 . S
C358 C359 1.355 . S
C358 C360 1.415 . S
C359 C358 1.355 . S
C359 C361 1.419 1_655 S
C360 C358 1.415 . S
C360 C365 1.425 1_655 S
C360 C367 1.409 . S
C361 H353 0.930 . S
C361 C359 1.419 1_455 S
C361 C362 1.362 . S
C362 H354 0.930 . S
C362 C361 1.362 . S
C362 C365 1.409 . S
C363 H355 0.930 . S
C363 C364 1.355 . S
C363 C365 1.415 . S
C364 C363 1.355 . S
C364 C366 1.419 1_455 S
C365 C360 1.425 1_455 S
C365 C362 1.409 . S
C365 C363 1.415 . S
C366 H356 0.930 . S
C366 C364 1.419 1_655 S
C366 C367 1.362 . S
C367 H357 0.930 . S
C367 C360 1.409 . S
C367 C366 1.362 . S
H368 C374 0.930 . S
H369 C377 0.930 . S
H370 C378 0.930 . S
H371 C379 0.930 . S
H372 C382 0.930 . S
H373 C383 0.930 . S
C374 H368 0.930 . S
C374 C375 1.355 . S
C374 C376 1.415 . S
C375 C374 1.355 . S
C375 C377 1.419 . S
C376 C374 1.415 . S
C376 C381 1.425 . S
C376 C383 1.409 . S
C377 H369 0.930 . S
C377 C375 1.419 . S
C377 C378 1.362 . S
C378 H370 0.930 . S
C378 C377 1.362 . S
C378 C381 1.409 . S
C379 H371 0.930 . S
C379 C380 1.355 . S
C379 C381 1.415 . S
C380 C379 1.355 . S
C380 C382 1.419 . S
C381 C376 1.425 . S
C381 C378 1.409 . S
C381 C379 1.415 . S
C382 H372 0.930 . S
C382 C380 1.419 . S
C382 C383 1.362 . S
C383 H373 0.930 . S
C383 C376 1.409 . S
C383 C382 1.362 . S
H384 C390 0.930 1_545 S
H385 C393 0.930 . S
H386 C394 0.930 . S
H387 C395 0.930 . S
H388 C398 0.930 . S
H389 C399 0.930 . S
C390 H384 0.930 1_565 S
C390 C391 1.355 . S
C390 C392 1.415 . S
C391 C390 1.355 . S
C391 C393 1.419 . S
C392 C390 1.415 . S
C392 C397 1.425 1_455 S
C392 C399 1.409 1_465 S
C393 H385 0.930 . S
C393 C391 1.419 . S
C393 C394 1.362 . S
C394 H386 0.930 . S
C394 C393 1.362 . S
C394 C397 1.409 1_455 S
C395 H387 0.930 . S
C395 C396 1.355 . S
C395 C397 1.415 . S
C396 C395 1.355 . S
C396 C398 1.419 1_565 S
C397 C392 1.425 1_655 S
C397 C394 1.409 1_655 S
C397 C395 1.415 . S
C398 H388 0.930 . S
C398 C396 1.419 1_545 S
C398 C399 1.362 . S
C399 H389 0.930 . S
C399 C392 1.409 1_645 S
C399 C398 1.362 . S
H400 C406 0.930 . S
H401 C409 0.930 . S
H402 C410 0.930 1_565 S
H403 C411 0.930 . S
H404 C414 0.930 . S
H405 C415 0.930 . S
C406 H400 0.930 . S
C406 C407 1.355 . S
C406 C408 1.415 . S
C407 C406 1.355 . S
C407 C409 1.419 . S
C408 C406 1.415 . S
C408 C413 1.425 . S
C408 C415 1.409 . S
C409 H401 0.930 . S
C409 C407 1.419 . S
C409 C410 1.362 . S
C410 H402 0.930 1_545 S
C410 C409 1.362 . S
C410 C413 1.409 . S
C411 H403 0.930 . S
C411 C412 1.355 . S
C411 C413 1.415 . S
C412 C411 1.355 . S
C412 C414 1.419 . S
C413 C408 1.425 . S
C413 C410 1.409 . S
C413 C411 1.415 . S
C414 H404 0.930 . S
C414 C412 1.419 . S
C414 C415 1.362 . S
C415 H405 0.930 . S
C415 C408 1.409 . S
C415 C414 1.362 . S
H416 C422 0.930 . S
H417 C425 0.930 . S
H418 C426 0.930 . S
H419 C427 0.930 . S
H420 C430 0.930 . S
H421 C431 0.930 . S
C422 H416 0.930 . S
C422 C423 1.355 . S
C422 C424 1.415 . S
C423 C422 1.355 . S
C423 C425 1.419 . S
C424 C422 1.415 . S
C424 C429 1.425 . S
C424 C431 1.409 . S
C425 H417 0.930 . S
C425 C423 1.419 . S
C425 C426 1.362 . S
C426 H418 0.930 . S
C426 C425 1.362 . S
C426 C429 1.409 . S
C427 H419 0.930 . S
C427 C428 1.355 . S
C427 C429 1.415 . S
C428 C427 1.355 . S
C428 C430 1.419 . S
C429 C424 1.425 . S
C429 C426 1.409 . S
C429 C427 1.415 . S
C430 H420 0.930 . S
C430 C428 1.419 . S
C430 C431 1.362 . S
C431 H421 0.930 . S
C431 C424 1.409 . S
C431 C430 1.362 . S
H432 C438 0.930 . S
H433 C441 0.930 . S
H434 C442 0.930 . S
H435 C443 0.930 . S
H436 C446 0.930 . S
H437 C447 0.930 . S
C438 H432 0.930 . S
C438 C439 1.355 . S
C438 C440 1.415 . S
C439 C438 1.355 . S
C439 C441 1.419 1_455 S
C440 C438 1.415 . S
C440 C445 1.425 1_455 S
C440 C447 1.409 . S
C441 H433 0.930 . S
C441 C439 1.419 1_655 S
C441 C442 1.362 . S
C442 H434 0.930 . S
C442 C441 1.362 . S
C442 C445 1.409 . S
C443 H435 0.930 . S
C443 C444 1.355 . S
C443 C445 1.415 . S
C444 C443 1.355 . S
C444 C446 1.419 1_655 S
C445 C440 1.425 1_655 S
C445 C442 1.409 . S
C445 C443 1.415 . S
C446 H436 0.930 . S
C446 C444 1.419 1_455 S
C446 C447 1.362 . S
C447 H437 0.930 . S
C447 C440 1.409 . S
C447 C446 1.362 . S
H448 C454 0.930 . S
H449 C457 0.930 . S
H450 C458 0.930 . S
H451 C459 0.930 . S
H452 C462 0.930 . S
H453 C463 0.930 . S
C454 H448 0.930 . S
C454 C455 1.355 . S
C454 C456 1.415 . S
C455 C454 1.355 . S
C455 C457 1.419 . S
C456 C454 1.415 . S
C456 C461 1.425 . S
C456 C463 1.409 . S
C457 H449 0.930 . S
C457 C455 1.419 . S
C457 C458 1.362 . S
C458 H450 0.930 . S
C458 C457 1.362 . S
C458 C461 1.409 . S
C459 H451 0.930 . S
C459 C460 1.355 . S
C459 C461 1.415 . S
C460 C459 1.355 . S
C460 C462 1.419 . S
C461 C456 1.425 . S
C461 C458 1.409 . S
C461 C459 1.415 . S
C462 H452 0.930 . S
C462 C460 1.419 . S
C462 C463 1.362 . S
C463 H453 0.930 . S
C463 C456 1.409 . S
C463 C462 1.362 . S
H464 C470 0.930 . S
H465 C473 0.930 . S
H466 C474 0.930 . S
H467 C475 0.930 . S
H468 C478 0.930 . S
H469 C479 0.930 . S
C470 H464 0.930 . S
C470 C471 1.355 . S
C470 C472 1.415 . S
C471 C470 1.355 . S
C471 C473 1.419 . S
C472 C470 1.415 . S
C472 C477 1.425 1_455 S
C472 C479 1.409 . S
C473 H465 0.930 . S
C473 C471 1.419 . S
C473 C474 1.362 1_455 S
C474 H466 0.930 . S
C474 C473 1.362 1_655 S
C474 C477 1.409 . S
C475 H467 0.930 . S
C475 C476 1.355 . S
C475 C477 1.415 . S
C476 C475 1.355 . S
C476 C478 1.419 . S
C477 C472 1.425 1_655 S
C477 C474 1.409 . S
C477 C475 1.415 . S
C478 H468 0.930 . S
C478 C476 1.419 . S
C478 C479 1.362 1_655 S
C479 H469 0.930 . S
C479 C472 1.409 . S
C479 C478 1.362 1_455 S
H480 C486 0.930 . S
H481 C489 0.930 . S
H482 C490 0.930 . S
H483 C491 0.930 . S
H484 C494 0.930 . S
H485 C495 0.930 . S
C486 H480 0.930 . S
C486 C487 1.355 . S
C486 C488 1.415 . S
C487 C486 1.355 . S
C487 C489 1.419 . S
C488 C486 1.415 . S
C488 C493 1.425 1_455 S
C488 C495 1.409 . S
C489 H481 0.930 . S
C489 C487 1.419 . S
C489 C490 1.362 1_455 S
C490 H482 0.930 . S
C490 C489 1.362 1_655 S
C490 C493 1.409 . S
C491 H483 0.930 . S
C491 C492 1.355 . S
C491 C493 1.415 . S
C492 C491 1.355 . S
C492 C494 1.419 . S
C493 C488 1.425 1_655 S
C493 C490 1.409 . S
C493 C491 1.415 . S
C494 H484 0.930 . S
C494 C492 1.419 . S
C494 C495 1.362 1_655 S
C495 H485 0.930 . S
C495 C488 1.409 . S
C495 C494 1.362 1_455 S
H496 C502 0.930 . S
H497 C505 0.930 . S
H498 C506 0.930 . S
H499 C507 0.930 . S
H500 C510 0.930 . S
H501 C511 0.930 . S
C502 H496 0.930 . S
C502 C503 1.355 . S
C502 C504 1.415 . S
C503 C502 1.355 . S
C503 C505 1.419 . S
C504 C502 1.415 . S
C504 C509 1.425 . S
C504 C511 1.409 . S
C505 H497 0.930 . S
C505 C503 1.419 . S
C505 C506 1.362 . S
C506 H498 0.930 . S
C506 C505 1.362 . S
C506 C509 1.409 . S
C507 H499 0.930 . S
C507 C508 1.355 . S
C507 C509 1.415 . S
C508 C507 1.355 . S
C508 C510 1.419 . S
C509 C504 1.425 . S
C509 C506 1.409 . S
C509 C507 1.415 . S
C510 H500 0.930 . S
C510 C508 1.419 . S
C510 C511 1.362 . S
C511 H501 0.930 . S
C511 C504 1.409 . S
C511 C510 1.362 . S
H512 C518 0.930 . S
H513 C521 0.930 . S
H514 C522 0.930 . S
H515 C523 0.930 . S
H516 C526 0.930 . S
H517 C527 0.930 . S
C518 H512 0.930 . S
C518 C519 1.355 . S
C518 C520 1.415 . S
C519 C518 1.355 . S
C519 C521 1.419 . S
C520 C518 1.415 . S
C520 C525 1.425 . S
C520 C527 1.409 . S
C521 H513 0.930 . S
C521 C519 1.419 . S
C521 C522 1.362 . S
C522 H514 0.930 . S
C522 C521 1.362 . S
C522 C525 1.409 . S
C523 H515 0.930 . S
C523 C524 1.355 . S
C523 C525 1.415 . S
C524 C523 1.355 . S
C524 C526 1.419 . S
C525 C520 1.425 . S
C525 C522 1.409 . S
C525 C523 1.415 . S
C526 H516 0.930 . S
C526 C524 1.419 . S
C526 C527 1.362 . S
C527 H517 0.930 . S
C527 C520 1.409 . S
C527 C526 1.362 . S
H528 C534 0.930 . S
H529 C537 0.930 . S
H530 C538 0.930 . S
H531 C539 0.930 . S
H532 C542 0.930 . S
H533 C543 0.930 . S
C534 H528 0.930 . S
C534 C535 1.355 1_655 S
C534 C536 1.415 . S
C535 C534 1.355 1_455 S
C535 C537 1.419 . S
C536 C534 1.415 . S
C536 C541 1.425 1_655 S
C536 C543 1.409 . S
C537 H529 0.930 . S
C537 C535 1.419 . S
C537 C538 1.362 . S
C538 H530 0.930 . S
C538 C537 1.362 . S
C538 C541 1.409 . S
C539 H531 0.930 . S
C539 C540 1.355 1_455 S
C539 C541 1.415 . S
C540 C539 1.355 1_655 S
C540 C542 1.419 . S
C541 C536 1.425 1_455 S
C541 C538 1.409 . S
C541 C539 1.415 . S
C542 H532 0.930 . S
C542 C540 1.419 . S
C542 C543 1.362 . S
C543 H533 0.930 . S
C543 C536 1.409 . S
C543 C542 1.362 . S
H544 C550 0.930 . S
H545 C553 0.930 . S
H546 C554 0.930 . S
H547 C555 0.930 . S
H548 C558 0.930 . S
H549 C559 0.930 . S
C550 H544 0.930 . S
C550 C551 1.355 . S
C550 C552 1.407 1_455 S
C551 C550 1.355 . S
C551 C553 1.419 . S
C552 C550 1.407 1_655 S
C552 C557 1.425 1_655 S
C552 C559 1.417 . S
C553 H545 0.930 . S
C553 C551 1.419 . S
C553 C554 1.362 . S
C554 H546 0.930 . S
C554 C553 1.362 . S
C554 C557 1.417 . S
C555 H547 0.930 . S
C555 C556 1.355 . S
C555 C557 1.407 1_655 S
C556 C555 1.355 . S
C556 C558 1.419 . S
C557 C552 1.425 1_455 S
C557 C554 1.417 . S
C557 C555 1.407 1_455 S
C558 H548 0.930 . S
C558 C556 1.419 . S
C558 C559 1.362 . S
C559 H549 0.930 . S
C559 C552 1.417 . S
C559 C558 1.362 . S
H560 C566 0.930 . S
H561 C569 0.930 . S
H562 C570 0.930 . S
H563 C571 0.930 . S
H564 C574 0.930 . S
H565 C575 0.930 . S
C566 H560 0.930 . S
C566 C567 1.355 . S
C566 C568 1.415 . S
C567 C566 1.355 . S
C567 C569 1.419 . S
C568 C566 1.415 . S
C568 C573 1.425 . S
C568 C575 1.409 . S
C569 H561 0.930 . S
C569 C567 1.419 . S
C569 C570 1.362 . S
C570 H562 0.930 . S
C570 C569 1.362 . S
C570 C573 1.409 . S
C571 H563 0.930 . S
C571 C572 1.355 . S
C571 C573 1.415 . S
C572 C571 1.355 . S
C572 C574 1.419 . S
C573 C568 1.425 . S
C573 C570 1.409 . S
C573 C571 1.415 . S
C574 H564 0.930 . S
C574 C572 1.419 . S
C574 C575 1.362 . S
C575 H565 0.930 . S
C575 C568 1.409 . S
C575 C574 1.362 . S
H576 C582 0.930 . S
H577 C585 0.930 . S
H578 C586 0.930 . S
H579 C587 0.930 . S
H580 C590 0.930 . S
H581 C591 0.930 . S
C582 H576 0.930 . S
C582 C583 1.355 . S
C582 C584 1.415 . S
C583 C582 1.355 . S
C583 C585 1.419 . S
C584 C582 1.415 . S
C584 C589 1.425 . S
C584 C591 1.409 . S
C585 H577 0.930 . S
C585 C583 1.419 . S
C585 C586 1.362 . S
C586 H578 0.930 . S
C586 C585 1.362 . S
C586 C589 1.409 . S
C587 H579 0.930 . S
C587 C588 1.355 . S
C587 C589 1.415 . S
C588 C587 1.355 . S
C588 C590 1.419 . S
C589 C584 1.425 . S
C589 C586 1.409 . S
C589 C587 1.415 . S
C590 H580 0.930 . S
C590 C588 1.419 . S
C590 C591 1.362 . S
C591 H581 0.930 . S
C591 C584 1.409 . S
C591 C590 1.362 . S
H592 C598 0.930 1_655 S
H593 C601 0.930 . S
H594 C602 0.930 . S
H595 C603 0.930 1_455 S
H596 C606 0.930 . S
H597 C607 0.930 . S
C598 H592 0.930 1_455 S
C598 C599 1.355 . S
C598 C600 1.415 1_455 S
C599 C598 1.355 . S
C599 C601 1.419 . S
C600 C598 1.415 1_655 S
C600 C605 1.425 1_655 S
C600 C607 1.409 . S
C601 H593 0.930 . S
C601 C599 1.419 . S
C601 C602 1.362 . S
C602 H594 0.930 . S
C602 C601 1.362 . S
C602 C605 1.409 . S
C603 H595 0.930 1_655 S
C603 C604 1.355 . S
C603 C605 1.415 1_655 S
C604 C603 1.355 . S
C604 C606 1.419 . S
C605 C600 1.425 1_455 S
C605 C602 1.409 . S
C605 C603 1.415 1_455 S
C606 H596 0.930 . S
C606 C604 1.419 . S
C606 C607 1.362 . S
C607 H597 0.930 . S
C607 C600 1.409 . S
C607 C606 1.362 . S
H608 C614 0.930 1_545 S
H609 C617 0.930 . S
H610 C618 0.930 1_554 S
H611 C619 0.930 1_565 S
H612 C622 0.930 . S
H613 C623 0.930 1_556 S
C614 H608 0.930 1_565 S
C614 C615 1.355 1_455 S
C614 C616 1.415 1_565 S
C615 C614 1.355 1_655 S
C615 C617 1.419 . S
C616 C614 1.415 1_545 S
C616 C621 1.425 1_446 S
C616 C623 1.409 1_556 S
C617 H609 0.930 . S
C617 C615 1.419 . S
C617 C618 1.362 . S
C618 H610 0.930 1_556 S
C618 C617 1.362 . S
C618 C621 1.409 1_556 S
C619 H611 0.930 1_545 S
C619 C620 1.355 1_655 S
C619 C621 1.415 1_545 S
C620 C619 1.355 1_455 S
C620 C622 1.419 . S
C621 C616 1.425 1_664 S
C621 C618 1.409 1_554 S
C621 C619 1.415 1_565 S
C622 H612 0.930 . S
C622 C620 1.419 . S
C622 C623 1.362 . S
C623 H613 0.930 1_554 S
C623 C616 1.409 1_554 S
C623 C622 1.362 . S
H624 C630 0.930 . S
H625 C633 0.930 . S
H626 C634 0.930 1_554 S
H627 C635 0.930 . S
H628 C638 0.930 . S
H629 C639 0.930 1_556 S
C630 H624 0.930 . S
C630 C631 1.355 . S
C630 C632 1.411 1_545 S
C631 C630 1.355 . S
C631 C633 1.419 . S
C632 C630 1.411 1_565 S
C632 C637 1.424 1_566 S
C632 C639 1.414 1_556 S
C633 H625 0.930 . S
C633 C631 1.419 . S
C633 C634 1.362 . S
C634 H626 0.930 1_556 S
C634 C633 1.362 . S
C634 C637 1.414 1_556 S
C635 H627 0.930 . S
C635 C636 1.355 . S
C635 C637 1.411 1_565 S
C636 C635 1.355 . S
C636 C638 1.419 . S
C637 C632 1.424 1_544 S
C637 C634 1.414 1_554 S
C637 C635 1.411 1_545 S
C638 H628 0.930 . S
C638 C636 1.419 . S
C638 C639 1.362 . S
C639 H629 0.930 1_554 S
C639 C632 1.414 1_554 S
C639 C638 1.362 . S
H640 C646 0.930 . S
H641 C649 0.930 . S
H642 C650 0.930 . S
H643 C651 0.930 . S
H644 C654 0.930 . S
H645 C655 0.930 . S
C646 H640 0.930 . S
C646 C647 1.355 1_565 S
C646 C648 1.415 . S
C647 C646 1.355 1_545 S
C647 C649 1.419 . S
C648 C646 1.415 . S
C648 C653 1.425 1_565 S
C648 C655 1.409 . S
C649 H641 0.930 . S
C649 C647 1.419 . S
C649 C650 1.362 . S
C650 H642 0.930 . S
C650 C649 1.362 . S
C650 C653 1.409 . S
C651 H643 0.930 . S
C651 C652 1.355 1_545 S
C651 C653 1.415 . S
C652 C651 1.355 1_565 S
C652 C654 1.419 . S
C653 C648 1.425 1_545 S
C653 C650 1.409 . S
C653 C651 1.415 . S
C654 H644 0.930 . S
C654 C652 1.419 . S
C654 C655 1.362 . S
C655 H645 0.930 . S
C655 C648 1.409 . S
C655 C654 1.362 . S
H656 C662 0.930 . S
H657 C665 0.930 . S
H658 C666 0.930 . S
H659 C667 0.930 . S
H660 C670 0.930 . S
H661 C671 0.930 . S
C662 H656 0.930 . S
C662 C663 1.355 1_545 S
C662 C664 1.415 . S
C663 C662 1.355 1_565 S
C663 C665 1.419 1_455 S
C664 C662 1.415 . S
C664 C669 1.425 1_445 S
C664 C671 1.409 . S
C665 H657 0.930 . S
C665 C663 1.419 1_655 S
C665 C666 1.362 . S
C666 H658 0.930 . S
C666 C665 1.362 . S
C666 C669 1.409 . S
C667 H659 0.930 . S
C667 C668 1.355 1_565 S
C667 C669 1.415 . S
C668 C667 1.355 1_545 S
C668 C670 1.419 1_655 S
C669 C664 1.425 1_665 S
C669 C666 1.409 . S
C669 C667 1.415 . S
C670 H660 0.930 . S
C670 C668 1.419 1_455 S
C670 C671 1.362 . S
C671 H661 0.930 . S
C671 C664 1.409 . S
C671 C670 1.362 . S
H672 C678 0.930 . S
H673 C681 0.930 . S
H674 C682 0.942 . S
H675 C683 0.930 . S
H676 C686 0.930 . S
H677 C687 0.942 . S
C678 H672 0.930 . S
C678 C679 1.355 . S
C678 C680 1.415 . S
C679 C678 1.355 . S
C679 C681 1.419 . S
C680 C678 1.415 . S
C680 C685 1.425 1_554 S
C680 C687 1.409 1_554 S
C681 H673 0.930 . S
C681 C679 1.419 . S
C681 C682 1.362 . S
C682 H674 0.942 . S
C682 C681 1.362 . S
C682 C685 1.409 1_554 S
C683 H675 0.930 . S
C683 C684 1.355 . S
C683 C685 1.415 . S
C684 C683 1.355 . S
C684 C686 1.419 . S
C685 C680 1.425 1_556 S
C685 C682 1.409 1_556 S
C685 C683 1.415 . S
C686 H676 0.930 . S
C686 C684 1.419 . S
C686 C687 1.362 . S
C687 H677 0.942 . S
C687 C680 1.409 1_556 S
C687 C686 1.362 . S
H688 C694 0.930 . S
H689 C697 0.930 . S
H690 C698 0.930 . S
H691 C699 0.930 . S
H692 C702 0.930 . S
H693 C703 0.930 . S
C694 H688 0.930 . S
C694 C695 1.355 . S
C694 C696 1.415 . S
C695 C694 1.355 . S
C695 C697 1.419 1_655 S
C696 C694 1.415 . S
C696 C701 1.425 1_654 S
C696 C703 1.409 1_554 S
C697 H689 0.930 . S
C697 C695 1.419 1_455 S
C697 C698 1.362 . S
C698 H690 0.930 . S
C698 C697 1.362 . S
C698 C701 1.409 1_554 S
C699 H691 0.930 . S
C699 C700 1.355 . S
C699 C701 1.415 . S
C700 C699 1.355 . S
C700 C702 1.419 1_455 S
C701 C696 1.425 1_456 S
C701 C698 1.409 1_556 S
C701 C699 1.415 . S
C702 H692 0.930 . S
C702 C700 1.419 1_655 S
C702 C703 1.362 . S
C703 H693 0.930 . S
C703 C696 1.409 1_556 S
C703 C702 1.362 . S
H704 C710 0.930 . S
H705 C713 0.930 . S
H706 C714 0.930 . S
H707 C715 0.930 . S
H708 C718 0.930 . S
H709 C719 0.930 . S
C710 H704 0.930 . S
C710 C711 1.355 1_455 S
C710 C712 1.415 . S
C711 C710 1.355 1_655 S
C711 C713 1.419 . S
C712 C710 1.415 . S
C712 C717 1.425 1_455 S
C712 C719 1.409 . S
C713 H705 0.930 . S
C713 C711 1.419 . S
C713 C714 1.362 . S
C714 H706 0.930 . S
C714 C713 1.362 . S
C714 C717 1.409 . S
C715 H707 0.930 . S
C715 C716 1.355 1_655 S
C715 C717 1.415 . S
C716 C715 1.355 1_455 S
C716 C718 1.419 . S
C717 C712 1.425 1_655 S
C717 C714 1.409 . S
C717 C715 1.415 . S
C718 H708 0.930 . S
C718 C716 1.419 . S
C718 C719 1.362 . S
C719 H709 0.930 . S
C719 C712 1.409 . S
C719 C718 1.362 . S
H720 C726 0.930 . S
H721 C729 0.930 . S
H722 C730 0.930 . S
H723 C731 0.930 . S
H724 C734 0.930 . S
H725 C735 0.930 . S
C726 H720 0.930 . S
C726 C727 1.355 . S
C726 C728 1.415 . S
C727 C726 1.355 . S
C727 C729 1.419 . S
C728 C726 1.415 . S
C728 C733 1.425 . S
C728 C735 1.409 . S
C729 H721 0.930 . S
C729 C727 1.419 . S
C729 C730 1.362 . S
C730 H722 0.930 . S
C730 C729 1.362 . S
C730 C733 1.409 . S
C731 H723 0.930 . S
C731 C732 1.355 . S
C731 C733 1.415 . S
C732 C731 1.355 . S
C732 C734 1.419 . S
C733 C728 1.425 . S
C733 C730 1.409 . S
C733 C731 1.415 . S
C734 H724 0.930 . S
C734 C732 1.419 . S
C734 C735 1.362 . S
C735 H725 0.930 . S
C735 C728 1.409 . S
C735 C734 1.362 . S
C231 C25 1.475 . S
C236 C11 1.474 . S
C247 C39 1.490 . S
C252 C53 1.469 . S
C263 C67 1.501 . S
C268 C81 1.479 . S
C279 C109 1.494 . S
C284 C95 1.498 . S
C295 C137 1.495 . S
C300 C123 1.497 . S
C311 C165 1.497 . S
C316 C151 1.496 . S
C327 C193 1.498 . S
C332 C179 1.495 . S
C343 C221 1.501 . S
C348 C207 1.488 . S
C359 C49 1.254 . S
C364 C7 1.249 . S
C375 C21 1.252 . S
C380 C35 1.251 . S
C391 C105 1.242 . S
C396 C63 1.270 . S
C407 C91 1.255 . S
C412 C77 1.248 . S
C423 C119 1.246 . S
C428 C161 1.257 . S
C439 C147 1.263 . S
C444 C133 1.242 . S
C455 C217 1.268 . S
C460 C175 1.246 . S
C471 C189 1.240 . S
C476 C203 1.270 . S
C487 C8 1.473 . S
C492 C134 1.443 . S
C503 C22 1.414 . S
C508 C120 1.427 . S
C519 C162 1.496 . S
C524 C36 1.487 . S
C535 C148 1.486 . S
C540 C50 1.496 . S
C551 C190 1.466 . S
C556 C64 1.437 . S
C567 C176 1.495 . S
C572 C78 1.480 . S
C583 C92 1.454 . S
C588 C218 1.427 . S
C599 C106 1.481 . S
C604 C204 1.453 . S
C615 C69 1.220 . S
C620 C13 1.220 . S
C631 C83 1.225 . S
C636 C27 1.225 . S
C647 C97 1.208 . S
C652 C41 1.208 . S
C663 C111 1.148 . S
C668 C55 1.148 . S
C679 C125 1.248 . S
C684 C181 1.248 . S
C695 C139 1.148 . S
C700 C195 1.148 . S
C711 C209 1.247 . S
C716 C153 1.247 . S
C727 C223 1.188 . S
C732 C167 1.188 . S
