# Generated by pormake.
# Topology uov, (4)-cn, num edge types: 1
# Building blocks:
#     Node 0, Type 0, BuildingBlock: GALJAG_clean_sbu_0, # of connection points: 4
#     Node 1, Type 0, BuildingBlock: GALJAG_clean_sbu_0, # of connection points: 4
#     Node 2, Type 0, BuildingBlock: GALJAG_clean_sbu_0, # of connection points: 4
#     Node 3, Type 0, BuildingBlock: GALJAG_clean_sbu_0, # of connection points: 4
#     Node 4, Type 0, BuildingBlock: GALJAG_clean_sbu_0, # of connection points: 4
#     Node 5, Type 0, BuildingBlock: GALJAG_clean_sbu_0, # of connection points: 4
#     Node 6, Type 0, BuildingBlock: GALJAG_clean_sbu_0, # of connection points: 4
#     Node 7, Type 0, BuildingBlock: GALJAG_clean_sbu_0, # of connection points: 4
#     Edge 8, Type (0, 0), BuildingBlock: XUDNAN_clean_linker_2, # of connection points: 2
#     Edge 9, Type (0, 0), BuildingBlock: XUDNAN_clean_linker_2, # of connection points: 2
#     Edge 10, Type (0, 0), BuildingBlock: XUDNAN_clean_linker_2, # of connection points: 2
#     Edge 11, Type (0, 0), BuildingBlock: XUDNAN_clean_linker_2, # of connection points: 2
#     Edge 12, Type (0, 0), BuildingBlock: XUDNAN_clean_linker_2, # of connection points: 2
#     Edge 13, Type (0, 0), BuildingBlock: XUDNAN_clean_linker_2, # of connection points: 2
#     Edge 14, Type (0, 0), BuildingBlock: XUDNAN_clean_linker_2, # of connection points: 2
#     Edge 15, Type (0, 0), BuildingBlock: XUDNAN_clean_linker_2, # of connection points: 2
#     Edge 16, Type (0, 0), BuildingBlock: XUDNAN_clean_linker_2, # of connection points: 2
#     Edge 17, Type (0, 0), BuildingBlock: XUDNAN_clean_linker_2, # of connection points: 2
#     Edge 18, Type (0, 0), BuildingBlock: XUDNAN_clean_linker_2, # of connection points: 2
#     Edge 19, Type (0, 0), BuildingBlock: XUDNAN_clean_linker_2, # of connection points: 2
#     Edge 20, Type (0, 0), BuildingBlock: XUDNAN_clean_linker_2, # of connection points: 2
#     Edge 21, Type (0, 0), BuildingBlock: XUDNAN_clean_linker_2, # of connection points: 2
#     Edge 22, Type (0, 0), BuildingBlock: XUDNAN_clean_linker_2, # of connection points: 2
#     Edge 23, Type (0, 0), BuildingBlock: XUDNAN_clean_linker_2, # of connection points: 2
# Relax obj value: 0.177
# Max RMSD: 0.147
# Mean RMSD: 0.147
data_MOF--net-uov--node1-GALJAG_clean_sbu_0--edge1-XUDNAN_clean_linker_2
_symmetry_space_group_name_H-M    P1
_symmetry_Int_Tables_number       1
_symmetry_cell_setting            triclinic
loop_
_symmetry_equiv_pos_as_xyz
'x, y, z'
_cell_length_a     28.773858
_cell_length_b     28.728721
_cell_length_c     46.277588
_cell_angle_alpha  89.954191
_cell_angle_beta   90.03579
_cell_angle_gamma 90.008637
loop_
_atom_site_label
_atom_site_type_symbol
_atom_site_fract_x
_atom_site_fract_y
_atom_site_fract_z
_atom_type_partial_charge
In0 In 0.02589 0.23945 0.61524 0.0
O1 O 0.03391 0.31641 0.60451 0.0
O2 O -0.00147 0.29833 0.64339 0.0
C3 C 0.07508 0.20033 0.57189 0.0
C4 C 0.07215 0.21101 0.66282 0.0
C5 C 0.9401 0.22088 0.59518 0.0
O6 O 0.07972 0.24259 0.57885 0.0
O7 O 0.04712 0.1777 0.58746 0.0
O8 O 0.9561 0.20031 0.61724 0.0
O9 O 0.96676 0.25094 0.58434 0.0
C10 C 0.01251 0.33024 0.62673 0.0
O11 O 0.03238 0.19526 0.65646 0.0
O12 O 0.08829 0.24021 0.64508 0.0
In13 In 0.24858 0.93003 0.3972 0.0
O14 O 0.32741 0.92111 0.39755 0.0
O15 O 0.29851 0.97577 0.37218 0.0
C16 C 0.24668 0.87814 0.44585 0.0
C17 C 0.21749 0.88747 0.34869 0.0
C18 C 0.2023 0.0045 0.41835 0.0
O19 O 0.27222 0.91356 0.44319 0.0
O20 O 0.22359 0.86783 0.42355 0.0
O21 O 0.18485 0.96421 0.418 0.0
O22 O 0.24158 0.00755 0.40651 0.0
C23 C 0.33462 0.95494 0.38068 0.0
O24 O 0.19846 0.92376 0.35851 0.0
O25 O 0.25085 0.8725 0.36367 0.0
In26 In 0.97061 0.75969 0.61408 0.0
O27 O 0.95194 0.68506 0.60172 0.0
O28 O 0.98294 0.69715 0.64296 0.0
C29 C 0.93999 0.81122 0.56923 0.0
C30 C 0.92236 0.79298 0.65944 0.0
C31 C 0.06043 0.76378 0.59844 0.0
O32 O 0.92321 0.77139 0.57453 0.0
O33 O 0.96969 0.82527 0.58723 0.0
O34 O 0.04512 0.7872 0.61959 0.0
O35 O 0.03107 0.73712 0.58682 0.0
C36 C 0.96681 0.66799 0.62518 0.0
O37 O 0.96558 0.79997 0.65677 0.0
O38 O 0.90385 0.77052 0.63901 0.0
In39 In 0.75067 0.05745 0.3913 0.0
O40 O 0.67653 0.07919 0.38227 0.0
O41 O 0.69218 0.00698 0.37911 0.0
C42 C 0.75326 0.10536 0.44147 0.0
C43 C 0.77778 0.09651 0.34096 0.0
C44 C 0.81007 0.99178 0.41033 0.0
O45 O 0.7284 0.06969 0.43809 0.0
O46 O 0.77522 0.11793 0.41923 0.0
O47 O 0.82343 0.03097 0.40116 0.0
O48 O 0.76696 0.98445 0.4079 0.0
C49 C 0.66202 0.03872 0.37701 0.0
O50 O 0.78447 0.05384 0.3462 0.0
O51 O 0.75871 0.11888 0.36113 0.0
In52 In 0.9459 0.24307 0.10935 0.0
O53 O 0.9359 0.19538 0.14867 0.0
O54 O 0.88325 0.24499 0.13903 0.0
C55 C 0.02342 0.19626 0.09402 0.0
C56 C 0.96343 0.33252 0.12278 0.0
C57 C 0.89815 0.23466 0.05937 0.0
O58 O 0.9835 0.17828 0.09342 0.0
O59 O 0.02476 0.23663 0.10464 0.0
O60 O 0.93464 0.25862 0.0616 0.0
O61 O 0.8845 0.21639 0.0827 0.0
C62 C 0.89734 0.21315 0.15566 0.0
O63 O 0.94447 0.32049 0.09938 0.0
O64 O 0.97364 0.29946 0.13957 0.0
In65 In 0.24005 0.03412 0.88706 0.0
O66 O 0.31705 0.04275 0.89612 0.0
O67 O 0.29773 0.00821 0.85721 0.0
C68 C 0.2056 0.08209 0.93225 0.0
C69 C 0.20711 0.08132 0.84094 0.0
C70 C 0.21999 0.94918 0.90829 0.0
O71 O 0.24696 0.08717 0.9237 0.0
O72 O 0.18132 0.05489 0.9171 0.0
O73 O 0.19865 0.96552 0.88662 0.0
O74 O 0.25231 0.97451 0.91772 0.0
C75 C 0.33012 0.02245 0.87337 0.0
O76 O 0.19533 0.03971 0.84605 0.0
O77 O 0.23464 0.09877 0.8592 0.0
In78 In 0.04439 0.75708 0.1142 0.0
O79 O 0.04716 0.6801 0.10322 0.0
O80 O 0.01561 0.69931 0.14303 0.0
C81 C 0.09291 0.76789 0.06474 0.0
C82 C 0.09246 0.7836 0.16156 0.0
C83 C 0.96716 0.80387 0.09805 0.0
O84 O 0.05835 0.74114 0.06681 0.0
O85 O 0.10435 0.78782 0.088 0.0
O86 O 0.0069 0.82226 0.09846 0.0
O87 O 0.96574 0.76322 0.10825 0.0
C88 C 0.02705 0.667 0.12601 0.0
O89 O 0.05297 0.80035 0.1556 0.0
O90 O 0.1077 0.75472 0.14336 0.0
In91 In 0.7568 0.9613 0.88644 0.0
O92 O 0.80331 0.95566 0.84629 0.0
O93 O 0.76007 0.89815 0.85709 0.0
C94 C 0.77544 0.04771 0.90582 0.0
C95 C 0.66647 0.97217 0.87309 0.0
C96 C 0.7911 0.91366 0.93203 0.0
O97 O 0.79728 0.03034 0.88471 0.0
O98 O 0.74353 0.0224 0.91578 0.0
O99 O 0.75015 0.90785 0.92295 0.0
O100 O 0.81523 0.94139 0.91719 0.0
C101 C 0.78933 0.91528 0.8398 0.0
O102 O 0.67997 0.95313 0.89619 0.0
O103 O 0.69854 0.98559 0.85644 0.0
H104 H 0.97608 0.59764 0.58596 0.0
H105 H 0.96194 0.6254 0.67761 0.0
H106 H 0.96903 0.54118 0.68795 0.0
H107 H 0.91558 0.48583 0.58427 0.0
H108 H 0.95562 0.46075 0.55871 0.0
H109 H 0.94484 0.52253 0.55841 0.0
H110 H 0.03313 0.53799 0.56402 0.0
H111 H 0.04415 0.47631 0.56453 0.0
H112 H 0.06412 0.5123 0.59391 0.0
H113 H 0.9783 0.45416 0.68823 0.0
H114 H 0.99423 0.3709 0.67874 0.0
H115 H 0.00904 0.40101 0.58734 0.0
C116 C 0.97361 0.58576 0.60812 0.0
C117 C 0.96781 0.61764 0.63101 0.0
C118 C 0.96607 0.60125 0.65982 0.0
C119 C 0.96998 0.55359 0.66588 0.0
C120 C 0.97637 0.523 0.64287 0.0
C121 C 0.97856 0.53843 0.61459 0.0
C122 C 0.98906 0.49879 0.59405 0.0
C123 C 0.94887 0.49155 0.5726 0.0
C124 C 0.03537 0.50684 0.57821 0.0
C125 C 0.99257 0.45872 0.6152 0.0
C126 C 0.98444 0.47329 0.6432 0.0
C127 C 0.98491 0.44235 0.66642 0.0
C128 C 0.99397 0.39524 0.66084 0.0
C129 C 0.00326 0.37983 0.63239 0.0
C130 C 0.00262 0.41205 0.60935 0.0
H131 H 0.61087 0.96113 0.38962 0.0
H132 H 0.60298 0.09726 0.34938 0.0
H133 H 0.51895 0.08611 0.34095 0.0
H134 H 0.52042 0.90249 0.34505 0.0
H135 H 0.49777 0.87076 0.37557 0.0
H136 H 0.55851 0.88602 0.37427 0.0
H137 H 0.55096 0.92723 0.42384 0.0
H138 H 0.49029 0.9123 0.42523 0.0
H139 H 0.50797 0.97228 0.4284 0.0
H140 H 0.43576 0.06349 0.34041 0.0
H141 H 0.35729 0.03293 0.35032 0.0
H142 H 0.41786 0.91318 0.39348 0.0
C143 C 0.59153 0.98792 0.37834 0.0
C144 C 0.61314 0.02976 0.36976 0.0
C145 C 0.58681 0.06486 0.35592 0.0
C146 C 0.53923 0.05874 0.35093 0.0
C147 C 0.51858 0.01751 0.36018 0.0
C148 C 0.54374 0.98274 0.37372 0.0
C149 C 0.51215 0.9442 0.38439 0.0
C150 C 0.52286 0.89814 0.36888 0.0
C151 C 0.51555 0.93872 0.41742 0.0
C152 C 0.4653 0.96335 0.37538 0.0
C153 C 0.46995 0.00521 0.36093 0.0
C154 C 0.43162 0.03054 0.35145 0.0
C155 C 0.38722 0.01293 0.35722 0.0
C156 C 0.3816 0.97075 0.37267 0.0
C157 C 0.42119 0.94542 0.38151 0.0
H158 H 0.97641 0.40339 0.08469 0.0
H159 H 0.97305 0.37161 0.17628 0.0
H160 H 0.9879 0.45465 0.18751 0.0
H161 H 0.07086 0.48526 0.08916 0.0
H162 H 0.04778 0.52257 0.06129 0.0
H163 H 0.03528 0.46116 0.06079 0.0
H164 H 0.94697 0.47905 0.05989 0.0
H165 H 0.95919 0.54052 0.06045 0.0
H166 H 0.92219 0.51528 0.08769 0.0
H167 H -0.00055 0.54213 0.18831 0.0
H168 H 0.01465 0.62566 0.17868 0.0
H169 H 0.01667 0.59767 0.08662 0.0
C170 C 0.97864 0.41401 0.1071 0.0
C171 C 0.97322 0.3815 0.12968 0.0
C172 C 0.9771 0.39626 0.15874 0.0
C173 C 0.98536 0.44324 0.16529 0.0
C174 C 0.99042 0.47456 0.14247 0.0
C175 C 0.98787 0.46039 0.11397 0.0
C176 C 0.99642 0.50039 0.09341 0.0
C177 C 0.04019 0.49182 0.07509 0.0
C178 C 0.95364 0.50933 0.07424 0.0
C179 C 0.00379 0.53946 0.11476 0.0
C180 C -0.00037 0.52409 0.14295 0.0
C181 C 0.00326 0.55446 0.16634 0.0
C182 C 0.01173 0.60172 0.16069 0.0
C183 C 0.01722 0.6177 0.13197 0.0
C184 C 0.01323 0.58613 0.10881 0.0
H185 H 0.40099 0.01534 0.9119 0.0
H186 H 0.37017 0.01137 0.82022 0.0
H187 H 0.45378 -0.00089 0.80966 0.0
H188 H 0.51093 0.07348 0.90792 0.0
H189 H 0.53694 0.03907 0.93622 0.0
H190 H 0.4752 0.04927 0.93618 0.0
H191 H 0.4603 0.96029 0.93752 0.0
H192 H 0.522 0.9498 0.93757 0.0
H193 H 0.48587 0.92368 0.91019 0.0
H194 H 0.54171 0.99089 0.80951 0.0
H195 H 0.62551 0.97945 0.81993 0.0
H196 H 0.59625 0.98195 0.91181 0.0
C197 C 0.41194 0.01216 0.88959 0.0
C198 C 0.37954 0.01478 0.8668 0.0
C199 C 0.39475 0.00956 0.83792 0.0
C200 C 0.44205 0.00274 0.83175 0.0
C201 C 0.47324 0.00037 0.85479 0.0
C202 C 0.45865 0.00426 0.88315 0.0
C203 C 0.49858 -0.00164 0.90407 0.0
C204 C 0.50583 0.04269 0.92215 0.0
C205 C 0.49124 0.95548 0.92347 0.0
C206 C 0.5381 0.99093 0.8831 0.0
C207 C 0.52302 0.99281 0.85475 0.0
C208 C 0.55382 0.98883 0.83162 0.0
C209 C 0.60122 0.98249 0.8377 0.0
C210 C 0.61693 0.97934 0.86661 0.0
C211 C 0.58492 0.98352 0.8895 0.0
H212 H 0.13169 0.00034 0.45787 0.0
H213 H 0.2297 0.09546 0.41799 0.0
H214 H 0.20534 0.15737 0.45175 0.0
H215 H 0.04036 0.08753 0.47428 0.0
H216 H 0.02641 0.06032 0.5083 0.0
H217 H 0.04744 0.02557 0.47867 0.0
H218 H 0.11354 0.99412 0.5113 0.0
H219 H 0.09323 0.02923 0.54089 0.0
H220 H 0.15248 0.03454 0.52868 0.0
H221 H 0.17528 0.20675 0.49252 0.0
H222 H 0.13912 0.24096 0.5361 0.0
H223 H 0.06237 0.11283 0.55001 0.0
C224 C 0.14702 0.03459 0.45569 0.0
C225 C 0.18222 0.04331 0.43513 0.0
C226 C 0.20236 0.08821 0.43343 0.0
C227 C 0.18882 0.12355 0.45255 0.0
C228 C 0.15512 0.1134 0.47322 0.0
C229 C 0.13415 0.07014 0.47474 0.0
C230 C 0.10105 0.06728 0.50012 0.0
C231 C 0.05084 0.05974 0.48971 0.0
C232 C 0.116 0.02903 0.52151 0.0
C233 C 0.10741 0.11534 0.51296 0.0
C234 C 0.13845 0.14154 0.49701 0.0
C235 C 0.15062 0.1867 0.50505 0.0
C236 C 0.1301 0.20576 0.52988 0.0
C237 C 0.0981 0.17953 0.54645 0.0
C238 C 0.08683 0.13371 0.53783 0.0
H239 H 0.19787 0.79854 0.45586 0.0
H240 H 0.2751 0.90762 0.4992 0.0
H241 H 0.24698 0.87891 0.54637 0.0
H242 H 0.10077 0.80793 0.49455 0.0
H243 H 0.08638 0.74692 0.49612 0.0
H244 H 0.12116 0.76867 0.46694 0.0
H245 H 0.18603 0.70928 0.47942 0.0
H246 H 0.15115 0.68712 0.50873 0.0
H247 H 0.20944 0.70736 0.51555 0.0
H248 H 0.19619 0.85043 0.58679 0.0
H249 H 0.13045 0.82228 0.61654 0.0
H250 H 0.0901 0.72894 0.54738 0.0
C251 C 0.21035 0.81518 0.47537 0.0
C252 C 0.23874 0.8551 0.47394 0.0
C253 C 0.25369 0.87662 0.49985 0.0
C254 C 0.23791 0.86052 0.52676 0.0
C255 C 0.20806 0.82229 0.52738 0.0
C256 C 0.19522 0.7993 0.50233 0.0
C257 C 0.15846 0.76292 0.50826 0.0
C258 C 0.11411 0.77222 0.49043 0.0
C259 C 0.17742 0.71375 0.50266 0.0
C260 C 0.15046 0.77102 0.54016 0.0
C261 C 0.1798 0.80487 0.551 0.0
C262 C 0.17408 0.82279 0.57884 0.0
C263 C 0.13665 0.80666 0.59561 0.0
C264 C 0.10558 0.77305 0.5844 0.0
C265 C 0.11392 0.75384 0.55682 0.0
H266 H 0.78616 0.91277 0.44018 0.0
H267 H 0.90273 0.00324 0.42042 0.0
H268 H 0.9503 0.96216 0.45668 0.0
H269 H 0.80117 0.91114 0.51379 0.0
H270 H 0.78585 0.85098 0.51945 0.0
H271 H 0.76267 0.88205 0.48891 0.0
H272 H 0.7959 0.81996 0.45405 0.0
H273 H 0.81856 0.78811 0.48454 0.0
H274 H 0.85682 0.80549 0.45564 0.0
H275 H 0.9808 0.92062 0.49966 0.0
H276 H 0.99585 0.87488 0.54372 0.0
H277 H 0.86108 0.80844 0.53529 0.0
C278 C 0.82219 0.92284 0.44278 0.0
C279 C 0.84087 0.96102 0.42735 0.0
C280 C 0.88783 0.97387 0.43181 0.0
C281 C 0.9151 0.9508 0.45242 0.0
C282 C 0.89506 0.91461 0.46813 0.0
C283 C 0.84999 0.90001 0.46322 0.0
C284 C 0.83597 0.86228 0.48449 0.0
C285 C 0.79394 0.87755 0.50273 0.0
C286 C 0.82625 0.81622 0.46874 0.0
C287 C 0.87967 0.85911 0.50271 0.0
C288 C 0.91326 0.88963 0.49279 0.0
C289 C 0.95518 0.8959 0.50727 0.0
C290 C 0.96321 0.87006 0.53242 0.0
C291 C 0.92968 0.83804 0.54278 0.0
C292 C 0.88751 0.83223 0.52758 0.0
H293 H 0.79888 0.18619 0.45291 0.0
H294 H 0.72974 0.06993 0.49436 0.0
H295 H 0.75977 0.09583 0.54172 0.0
H296 H 0.89895 0.17838 0.48896 0.0
H297 H 0.91044 0.23983 0.49227 0.0
H298 H 0.87498 0.21888 0.46316 0.0
H299 H 0.80797 0.27357 0.47891 0.0
H300 H 0.84353 0.29513 0.50807 0.0
H301 H 0.78683 0.27133 0.51555 0.0
H302 H 0.81136 0.12401 0.58205 0.0
H303 H 0.87597 0.15488 0.61184 0.0
H304 H 0.90807 0.2545 0.5443 0.0
C305 C 0.78857 0.16727 0.47211 0.0
C306 C 0.76193 0.12626 0.47007 0.0
C307 C 0.74975 0.10181 0.49554 0.0
C308 C 0.76666 0.11626 0.52254 0.0
C309 C 0.79481 0.15573 0.52368 0.0
C310 C 0.80483 0.18146 0.49915 0.0
C311 C 0.84004 0.21917 0.50538 0.0
C312 C 0.88365 0.21368 0.48633 0.0
C313 C 0.81827 0.26768 0.50177 0.0
C314 C 0.85044 0.20889 0.53676 0.0
C315 C 0.82363 0.17266 0.54717 0.0
C316 C 0.83154 0.15335 0.57445 0.0
C317 C 0.86833 0.17097 0.5912 0.0
C318 C 0.89664 0.20733 0.58048 0.0
C319 C 0.88645 0.22729 0.55334 0.0
H320 H 0.74538 0.07773 0.95802 0.0
H321 H 0.84099 0.11186 0.88879 0.0
H322 H 0.87438 0.17486 0.91886 0.0
H323 H 0.73112 0.19771 0.98893 0.0
H324 H 0.73095 0.17499 0.02525 0.0
H325 H 0.70779 0.14059 0.99603 0.0
H326 H 0.7635 0.07316 0.00971 0.0
H327 H 0.78702 0.10728 0.03873 0.0
H328 H 0.82515 0.08405 0.01142 0.0
H329 H 0.90465 0.2256 0.959 0.0
H330 H 0.93182 0.25647 0.00584 0.0
H331 H 0.8185 0.18563 0.04925 0.0
C332 C 0.77216 0.09957 0.94871 0.0
C333 C 0.79022 0.09044 0.92093 0.0
C334 C 0.8263 0.11876 0.90989 0.0
C335 C 0.84534 0.15463 0.9268 0.0
C336 C 0.82783 0.16156 0.95462 0.0
C337 C 0.79191 0.13477 0.96542 0.0
C338 C 0.78376 0.1441 0.99719 0.0
C339 C 0.73554 0.16565 0.00213 0.0
C340 C 0.79028 0.09952 0.0153 0.0
C341 C 0.8219 0.17902 0.00297 0.0
C342 C 0.84625 0.18956 0.97803 0.0
C343 C 0.8853 0.21825 0.97852 0.0
C344 C 0.90047 0.23563 0.00524 0.0
C345 C 0.87708 0.22357 0.03112 0.0
C346 C 0.83667 0.19591 0.02977 0.0
H347 H 0.12337 0.06314 0.95894 0.0
H348 H 0.24817 0.14697 0.96676 0.0
H349 H 0.21901 0.17894 0.01302 0.0
H350 H 0.04448 0.14655 0.98572 0.0
H351 H 0.00896 0.10459 0.00446 0.0
H352 H 0.04128 0.08732 0.973 0.0
H353 H 0.08058 0.0217 0.00283 0.0
H354 H 0.04883 0.03938 0.03452 0.0
H355 H 0.11138 0.03619 0.03554 0.0
H356 H 0.17331 0.20553 0.05664 0.0
H357 H 0.11342 0.22732 0.09248 0.0
H358 H 0.02075 0.12298 0.05684 0.0
C359 C 0.14462 0.08824 0.97036 0.0
C360 C 0.1879 0.10285 0.95925 0.0
C361 C 0.21481 0.13549 0.9749 0.0
C362 C 0.19867 0.15356 1.00125 0.0
C363 C 0.15592 0.1381 0.01173 0.0
C364 C 0.1293 0.10616 0.99673 0.0
C365 C 0.08382 0.09647 0.01195 0.0
C366 C 0.0422 0.10954 0.99264 0.0
C367 C 0.08101 0.0454 0.0218 0.0
C368 C 0.0883 0.12899 0.03748 0.0
C369 C 0.1303 0.15239 0.03718 0.0
C370 C 0.14064 0.1869 0.05736 0.0
C371 C 0.10652 0.19892 0.0777 0.0
C372 C 0.06272 0.17645 0.07764 0.0
C373 C 0.05429 0.14004 0.05786 0.0
H374 H 0.16994 0.82122 0.05512 0.0
H375 H 0.06253 0.74267 0.01101 0.0
H376 H 0.09048 0.77266 0.9641 0.0
H377 H 0.16063 0.92025 0.01449 0.0
H378 H 0.22174 0.93397 0.01393 0.0
H379 H 0.19806 0.90064 0.04329 0.0
H380 H 0.25741 0.83462 0.0333 0.0
H381 H 0.28144 0.86796 0.00386 0.0
H382 H 0.26091 0.80952 0.99767 0.0
H383 H 0.12156 0.8219 0.92317 0.0
H384 H 0.15617 0.88279 0.89185 0.0
H385 H 0.24564 0.92507 0.96257 0.0
C386 C 0.15322 0.80923 0.03552 0.0
C387 C 0.11429 0.77949 0.03665 0.0
C388 C 0.09276 0.76514 0.01059 0.0
C389 C 0.10837 0.78199 0.98384 0.0
C390 C 0.14602 0.81249 0.98351 0.0
C391 C 0.16862 0.82537 0.00867 0.0
C392 C 0.20567 0.86146 0.00284 0.0
C393 C 0.1959 0.90673 0.01962 0.0
C394 C 0.25424 0.84222 0.00983 0.0
C395 C 0.19927 0.86818 0.97067 0.0
C396 C 0.16489 0.83956 0.95978 0.0
C397 C 0.14944 0.84357 0.93126 0.0
C398 C 0.16919 0.87821 0.91363 0.0
C399 C 0.20407 0.90803 0.92464 0.0
C400 C 0.21991 0.90197 0.95327 0.0
H401 H 0.87293 0.93273 0.9594 0.0
H402 H 0.74757 0.84958 0.96662 0.0
H403 H 0.77509 0.81889 0.01362 0.0
H404 H 0.95065 0.84948 0.98862 0.0
H405 H 0.98569 0.89196 0.00723 0.0
H406 H 0.95468 0.90816 0.97501 0.0
H407 H 0.9147 0.97515 0.00317 0.0
H408 H 0.9451 0.95852 0.03563 0.0
H409 H 0.88255 0.9621 0.0356 0.0
H410 H 0.81886 0.79385 0.05834 0.0
H411 H 0.87711 0.77328 0.09554 0.0
H412 H 0.97173 0.8758 0.05982 0.0
C413 C 0.85126 0.90801 0.97084 0.0
C414 C 0.80823 0.89329 0.95935 0.0
C415 C 0.78076 0.86113 0.97503 0.0
C416 C 0.79595 0.84379 0.0018 0.0
C417 C 0.8384 0.85942 0.01267 0.0
C418 C 0.86567 0.89075 0.99762 0.0
C419 C 0.91062 0.90078 0.01342 0.0
C420 C 0.95288 0.88673 0.99498 0.0
C421 C 0.91337 0.95219 0.02249 0.0
C422 C 0.90498 0.86927 0.03939 0.0
C423 C 0.86293 0.84599 0.03874 0.0
C424 C 0.85158 0.81238 0.05931 0.0
C425 C 0.88476 0.80106 0.08044 0.0
C426 C 0.92863 0.82338 0.08079 0.0
C427 C 0.93807 0.85895 0.06056 0.0
H428 H 0.05668 0.136 0.69883 0.0
H429 H 0.14521 0.2568 0.6867 0.0
H430 H 0.18786 0.23718 0.73126 0.0
H431 H 0.05006 0.14114 0.77667 0.0
H432 H 0.05296 0.07896 0.78158 0.0
H433 H 0.0283 0.10277 0.74897 0.0
H434 H 0.08635 0.05478 0.71832 0.0
H435 H 0.11111 0.03075 0.75083 0.0
H436 H 0.14782 0.06022 0.7251 0.0
H437 H 0.21974 0.20628 0.77728 0.0
H438 H 0.24281 0.16268 0.82085 0.0
H439 H 0.13686 0.0591 0.80272 0.0
C440 C 0.08498 0.15829 0.70565 0.0
C441 C 0.09756 0.19804 0.68939 0.0
C442 C 0.13505 0.22616 0.6988 0.0
C443 C 0.1594 0.2154 0.72412 0.0
C444 C 0.1462 0.17608 0.73968 0.0
C445 C 0.11022 0.14764 0.73076 0.0
C446 C 0.10427 0.10667 0.75117 0.0
C447 C 0.05603 0.10746 0.76544 0.0
C448 C 0.11292 0.06037 0.73541 0.0
C449 C 0.14238 0.11677 0.77296 0.0
C450 C 0.1658 0.15723 0.76596 0.0
C451 C 0.20185 0.17442 0.78294 0.0
C452 C 0.21462 0.14945 0.80769 0.0
C453 C 0.19174 0.10746 0.81512 0.0
C454 C 0.1551 0.09097 0.79748 0.0
H455 H 0.07074 0.84877 0.20321 0.0
H456 H 0.17194 0.74271 0.18073 0.0
H457 H 0.21354 0.75724 0.22638 0.0
H458 H 0.15312 0.92816 0.23651 0.0
H459 H 0.1135 0.94633 0.26447 0.0
H460 H 0.09136 0.92776 0.22993 0.0
H461 H 0.03986 0.86625 0.25545 0.0
H462 H 0.06205 0.88444 0.29005 0.0
H463 H 0.06646 0.82432 0.27928 0.0
H464 H 0.24292 0.78091 0.2746 0.0
H465 H 0.26171 0.81616 0.32167 0.0
H466 H 0.14338 0.90898 0.31316 0.0
C467 C 0.10176 0.8288 0.20788 0.0
C468 C 0.11809 0.79456 0.18842 0.0
C469 C 0.15883 0.76917 0.19526 0.0
C470 C 0.18266 0.77706 0.22118 0.0
C471 C 0.1655 0.81068 0.24 0.0
C472 C 0.12629 0.8365 0.23365 0.0
C473 C 0.11579 0.87094 0.25764 0.0
C474 C 0.11863 0.92128 0.24647 0.0
C475 C 0.06822 0.86086 0.27142 0.0
C476 C 0.15515 0.86021 0.27845 0.0
C477 C 0.18316 0.82511 0.26783 0.0
C478 C 0.2214 0.80856 0.28312 0.0
C479 C 0.23169 0.82875 0.30989 0.0
C480 C 0.20405 0.86534 0.32107 0.0
C481 C 0.16515 0.8811 0.30514 0.0
H482 H 0.94477 0.8593 0.70023 0.0
H483 H 0.83967 0.75754 0.67704 0.0
H484 H 0.79562 0.77691 0.72108 0.0
H485 H 0.94172 0.84133 0.77707 0.0
H486 H 0.94795 0.90206 0.78604 0.0
H487 H 0.97208 0.87999 0.75285 0.0
H488 H 0.92554 0.94133 0.72373 0.0
H489 H 0.90146 0.96376 0.75683 0.0
H490 H 0.8634 0.94488 0.72819 0.0
H491 H 0.76478 0.80411 0.76828 0.0
H492 H 0.74437 0.8435 0.81385 0.0
H493 H 0.86597 0.93195 0.80557 0.0
C494 C 0.91245 0.84123 0.70447 0.0
C495 C 0.89566 0.8068 0.68531 0.0
C496 C 0.85307 0.78413 0.69139 0.0
C497 C 0.82789 0.79473 0.7164 0.0
C498 C 0.84542 0.82859 0.73495 0.0
C499 C 0.88631 0.85205 0.72917 0.0
C500 C 0.89635 0.88804 0.75234 0.0
C501 C 0.94225 0.87719 0.768 0.0
C502 C 0.89669 0.93743 0.7395 0.0
C503 C 0.8549 0.88078 0.7721 0.0
C504 C 0.82633 0.8459 0.76175 0.0
C505 C 0.78663 0.83175 0.77651 0.0
C506 C 0.77544 0.85421 0.80243 0.0
C507 C 0.80347 0.89085 0.81314 0.0
C508 C 0.84376 0.90424 0.79775 0.0
H509 H 0.84194 0.0689 0.3001 0.0
H510 H 0.73881 0.17475 0.31908 0.0
H511 H 0.7559 0.21341 0.27275 0.0
H512 H 0.92461 0.14771 0.26849 0.0
H513 H 0.94426 0.1073 0.24134 0.0
H514 H 0.92213 0.08594 0.27525 0.0
H515 H 0.86171 0.03566 0.24788 0.0
H516 H 0.88361 0.05697 0.21388 0.0
H517 H 0.82282 0.06304 0.22247 0.0
H518 H 0.78321 0.24058 0.22483 0.0
H519 H 0.8239 0.25867 0.17936 0.0
H520 H 0.91311 0.13841 0.19181 0.0
C521 C 0.82283 0.10001 0.29431 0.0
C522 C 0.78887 0.11876 0.31304 0.0
C523 C 0.76499 0.15989 0.30504 0.0
C524 C 0.77429 0.18198 0.27872 0.0
C525 C 0.80799 0.16284 0.26076 0.0
C526 C 0.83232 0.12312 0.26823 0.0
C527 C 0.86855 0.11151 0.24553 0.0
C528 C 0.9178 0.11323 0.25843 0.0
C529 C 0.85856 0.06397 0.23162 0.0
C530 C 0.8607 0.15094 0.22424 0.0
C531 C 0.82517 0.17973 0.23336 0.0
C532 C 0.81116 0.21839 0.21744 0.0
C533 C 0.83443 0.2283 0.19161 0.0
C534 C 0.87169 0.20002 0.18209 0.0
C535 C 0.88479 0.16068 0.19859 0.0
loop_
_geom_bond_atom_site_label_1
_geom_bond_atom_site_label_2
_geom_bond_distance
_geom_bond_site_symmetry_2
_ccdc_geom_bond_type
In0 O1 2.294 . S
In0 O2 2.326 . S
In0 O6 2.266 . S
In0 O7 2.326 . S
In0 O8 2.266 . S
In0 O9 2.326 . S
In0 O11 2.294 . S
In0 O12 2.326 . S
O1 In0 2.294 . S
O1 C10 1.240 . S
O2 In0 2.326 . S
O2 C10 1.252 . S
C3 O6 1.252 . S
C3 O7 1.260 . S
C4 O11 1.240 . S
C4 O12 1.252 . S
C5 O8 1.252 . S
C5 O9 1.260 . S
O6 In0 2.266 . S
O6 C3 1.252 . S
O7 In0 2.326 . S
O7 C3 1.260 . S
O8 In0 2.266 . S
O8 C5 1.252 . S
O9 In0 2.326 . S
O9 C5 1.260 . S
C10 O1 1.240 . S
C10 O2 1.252 . S
O11 In0 2.294 . S
O11 C4 1.240 . S
O12 In0 2.326 . S
O12 C4 1.252 . S
In13 O14 2.294 . S
In13 O15 2.326 . S
In13 O19 2.266 . S
In13 O20 2.326 . S
In13 O21 2.266 . S
In13 O22 2.326 . S
In13 O24 2.294 . S
In13 O25 2.326 . S
O14 In13 2.294 . S
O14 C23 1.240 . S
O15 In13 2.326 . S
O15 C23 1.252 . S
C16 O19 1.252 . S
C16 O20 1.260 . S
C17 O24 1.240 . S
C17 O25 1.252 . S
C18 O21 1.252 . S
C18 O22 1.260 . S
O19 In13 2.266 . S
O19 C16 1.252 . S
O20 In13 2.326 . S
O20 C16 1.260 . S
O21 In13 2.266 . S
O21 C18 1.252 . S
O22 In13 2.326 . S
O22 C18 1.260 . S
C23 O14 1.240 . S
C23 O15 1.252 . S
O24 In13 2.294 . S
O24 C17 1.240 . S
O25 In13 2.326 . S
O25 C17 1.252 . S
In26 O27 2.294 . S
In26 O28 2.326 . S
In26 O32 2.266 . S
In26 O33 2.326 . S
In26 O34 2.266 . S
In26 O35 2.326 . S
In26 O37 2.294 . S
In26 O38 2.326 . S
O27 In26 2.294 . S
O27 C36 1.240 . S
O28 In26 2.326 . S
O28 C36 1.252 . S
C29 O32 1.252 . S
C29 O33 1.260 . S
C30 O37 1.240 . S
C30 O38 1.252 . S
C31 O34 1.252 . S
C31 O35 1.260 . S
O32 In26 2.266 . S
O32 C29 1.252 . S
O33 In26 2.326 . S
O33 C29 1.260 . S
O34 In26 2.266 . S
O34 C31 1.252 . S
O35 In26 2.326 . S
O35 C31 1.260 . S
C36 O27 1.240 . S
C36 O28 1.252 . S
O37 In26 2.294 . S
O37 C30 1.240 . S
O38 In26 2.326 . S
O38 C30 1.252 . S
In39 O40 2.294 . S
In39 O41 2.326 . S
In39 O45 2.266 . S
In39 O46 2.326 . S
In39 O47 2.266 . S
In39 O48 2.326 . S
In39 O50 2.294 . S
In39 O51 2.326 . S
O40 In39 2.294 . S
O40 C49 1.240 . S
O41 In39 2.326 . S
O41 C49 1.252 . S
C42 O45 1.252 . S
C42 O46 1.260 . S
C43 O50 1.240 . S
C43 O51 1.252 . S
C44 O47 1.252 . S
C44 O48 1.260 . S
O45 In39 2.266 . S
O45 C42 1.252 . S
O46 In39 2.326 . S
O46 C42 1.260 . S
O47 In39 2.266 . S
O47 C44 1.252 . S
O48 In39 2.326 . S
O48 C44 1.260 . S
C49 O40 1.240 . S
C49 O41 1.252 . S
O50 In39 2.294 . S
O50 C43 1.240 . S
O51 In39 2.326 . S
O51 C43 1.252 . S
In52 O53 2.294 . S
In52 O54 2.326 . S
In52 O58 2.266 . S
In52 O59 2.326 . S
In52 O60 2.266 . S
In52 O61 2.326 . S
In52 O63 2.294 . S
In52 O64 2.326 . S
O53 In52 2.294 . S
O53 C62 1.240 . S
O54 In52 2.326 . S
O54 C62 1.252 . S
C55 O58 1.252 . S
C55 O59 1.260 . S
C56 O63 1.240 . S
C56 O64 1.252 . S
C57 O60 1.252 . S
C57 O61 1.260 . S
O58 In52 2.266 . S
O58 C55 1.252 . S
O59 In52 2.326 . S
O59 C55 1.260 . S
O60 In52 2.266 . S
O60 C57 1.252 . S
O61 In52 2.326 . S
O61 C57 1.260 . S
C62 O53 1.240 . S
C62 O54 1.252 . S
O63 In52 2.294 . S
O63 C56 1.240 . S
O64 In52 2.326 . S
O64 C56 1.252 . S
In65 O66 2.294 . S
In65 O67 2.326 . S
In65 O71 2.266 . S
In65 O72 2.326 . S
In65 O73 2.266 . S
In65 O74 2.326 . S
In65 O76 2.294 . S
In65 O77 2.326 . S
O66 In65 2.294 . S
O66 C75 1.240 . S
O67 In65 2.326 . S
O67 C75 1.252 . S
C68 O71 1.252 . S
C68 O72 1.260 . S
C69 O76 1.240 . S
C69 O77 1.252 . S
C70 O73 1.252 . S
C70 O74 1.260 . S
O71 In65 2.266 . S
O71 C68 1.252 . S
O72 In65 2.326 . S
O72 C68 1.260 . S
O73 In65 2.266 . S
O73 C70 1.252 . S
O74 In65 2.326 . S
O74 C70 1.260 . S
C75 O66 1.240 . S
C75 O67 1.252 . S
O76 In65 2.294 . S
O76 C69 1.240 . S
O77 In65 2.326 . S
O77 C69 1.252 . S
In78 O79 2.294 . S
In78 O80 2.326 . S
In78 O84 2.266 . S
In78 O85 2.326 . S
In78 O86 2.266 . S
In78 O87 2.326 . S
In78 O89 2.294 . S
In78 O90 2.326 . S
O79 In78 2.294 . S
O79 C88 1.240 . S
O80 In78 2.326 . S
O80 C88 1.252 . S
C81 O84 1.252 . S
C81 O85 1.260 . S
C82 O89 1.240 . S
C82 O90 1.252 . S
C83 O86 1.252 . S
C83 O87 1.260 . S
O84 In78 2.266 . S
O84 C81 1.252 . S
O85 In78 2.326 . S
O85 C81 1.260 . S
O86 In78 2.266 . S
O86 C83 1.252 . S
O87 In78 2.326 . S
O87 C83 1.260 . S
C88 O79 1.240 . S
C88 O80 1.252 . S
O89 In78 2.294 . S
O89 C82 1.240 . S
O90 In78 2.326 . S
O90 C82 1.252 . S
In91 O92 2.294 . S
In91 O93 2.326 . S
In91 O97 2.266 . S
In91 O98 2.326 . S
In91 O99 2.266 . S
In91 O100 2.326 . S
In91 O102 2.294 . S
In91 O103 2.326 . S
O92 In91 2.294 . S
O92 C101 1.240 . S
O93 In91 2.326 . S
O93 C101 1.252 . S
C94 O97 1.252 . S
C94 O98 1.260 . S
C95 O102 1.240 . S
C95 O103 1.252 . S
C96 O99 1.252 . S
C96 O100 1.260 . S
O97 In91 2.266 . S
O97 C94 1.252 . S
O98 In91 2.326 . S
O98 C94 1.260 . S
O99 In91 2.266 . S
O99 C96 1.252 . S
O100 In91 2.326 . S
O100 C96 1.260 . S
C101 O92 1.240 . S
C101 O93 1.252 . S
O102 In91 2.294 . S
O102 C95 1.240 . S
O103 In91 2.326 . S
O103 C95 1.252 . S
H104 C116 0.930 . S
H105 C118 0.930 . S
H106 C119 0.930 1_455 S
H107 C123 0.959 . S
H108 C123 0.959 . S
H109 C123 0.961 . S
H110 C124 0.960 . S
H111 C124 0.961 . S
H112 C124 0.959 . S
H113 C127 0.929 . S
H114 C128 0.931 . S
H115 C130 0.930 . S
C116 H104 0.930 . S
C116 C117 1.399 . S
C116 C121 1.399 . S
C117 C116 1.399 . S
C117 C118 1.376 . S
C118 H105 0.930 . S
C118 C117 1.376 . S
C118 C119 1.388 . S
C119 H106 0.930 1_655 S
C119 C118 1.388 . S
C119 C120 1.390 . S
C120 C119 1.390 . S
C120 C121 1.394 . S
C120 C126 1.465 1_655 S
C121 C116 1.399 . S
C121 C120 1.394 . S
C121 C122 1.516 . S
C122 C121 1.516 . S
C122 C123 1.502 . S
C122 C124 1.561 1_655 S
C122 C125 1.526 1_655 S
C123 H107 0.959 . S
C123 H108 0.959 . S
C123 H109 0.961 . S
C123 C122 1.502 . S
C124 H110 0.960 . S
C124 H111 0.961 . S
C124 H112 0.959 . S
C124 C122 1.561 1_455 S
C125 C122 1.526 1_455 S
C125 C126 1.396 . S
C125 C130 1.390 . S
C126 C120 1.465 1_455 S
C126 C125 1.396 . S
C126 C127 1.399 . S
C127 H113 0.929 . S
C127 C126 1.399 . S
C127 C128 1.385 . S
C128 H114 0.931 . S
C128 C127 1.385 . S
C128 C129 1.389 . S
C129 C128 1.389 . S
C129 C130 1.387 . S
C130 H115 0.930 . S
C130 C125 1.390 . S
C130 C129 1.387 . S
H131 C143 0.936 . S
H132 C145 0.930 . S
H133 C146 0.930 . S
H134 C150 0.959 . S
H135 C150 0.959 . S
H136 C150 0.961 . S
H137 C151 0.960 . S
H138 C151 0.961 . S
H139 C151 0.959 . S
H140 C154 0.929 . S
H141 C155 0.931 . S
H142 C157 0.930 . S
C143 H131 0.936 . S
C143 C144 1.399 . S
C143 C148 1.399 . S
C144 C143 1.399 . S
C144 C145 1.376 . S
C145 H132 0.930 . S
C145 C144 1.376 . S
C145 C146 1.388 . S
C146 H133 0.930 . S
C146 C145 1.388 . S
C146 C147 1.390 . S
C147 C146 1.390 . S
C147 C148 1.394 . S
C147 C153 1.465 . S
C148 C143 1.399 . S
C148 C147 1.394 . S
C148 C149 1.516 1_545 S
C149 C148 1.516 1_565 S
C149 C150 1.502 . S
C149 C151 1.561 . S
C149 C152 1.526 . S
C150 H134 0.959 . S
C150 H135 0.959 . S
C150 H136 0.961 . S
C150 C149 1.502 . S
C151 H137 0.960 . S
C151 H138 0.961 . S
C151 H139 0.959 . S
C151 C149 1.561 . S
C152 C149 1.526 . S
C152 C153 1.396 1_565 S
C152 C157 1.390 . S
C153 C147 1.465 . S
C153 C152 1.396 1_545 S
C153 C154 1.399 . S
C154 H140 0.929 . S
C154 C153 1.399 . S
C154 C155 1.385 1_545 S
C155 H141 0.931 . S
C155 C154 1.385 1_565 S
C155 C156 1.389 . S
C156 C155 1.389 . S
C156 C157 1.387 . S
C157 H142 0.930 . S
C157 C152 1.390 . S
C157 C156 1.387 . S
H158 C170 0.930 . S
H159 C172 0.930 . S
H160 C173 0.930 . S
H161 C177 0.959 . S
H162 C177 0.959 . S
H163 C177 0.961 . S
H164 C178 0.960 . S
H165 C178 0.961 . S
H166 C178 0.959 . S
H167 C181 0.929 1_655 S
H168 C182 0.931 . S
H169 C184 0.930 . S
C170 H158 0.930 . S
C170 C171 1.399 . S
C170 C175 1.399 . S
C171 C170 1.399 . S
C171 C172 1.376 . S
C172 H159 0.930 . S
C172 C171 1.376 . S
C172 C173 1.388 . S
C173 H160 0.930 . S
C173 C172 1.388 . S
C173 C174 1.390 . S
C174 C173 1.390 . S
C174 C175 1.394 . S
C174 C180 1.465 1_655 S
C175 C170 1.399 . S
C175 C174 1.394 . S
C175 C176 1.516 1_655 S
C176 C175 1.516 1_455 S
C176 C177 1.502 . S
C176 C178 1.561 1_455 S
C176 C179 1.526 . S
C177 H161 0.959 . S
C177 H162 0.959 . S
C177 H163 0.961 . S
C177 C176 1.502 . S
C178 H164 0.960 . S
C178 H165 0.961 . S
C178 H166 0.959 . S
C178 C176 1.561 1_655 S
C179 C176 1.526 . S
C179 C180 1.396 . S
C179 C184 1.390 . S
C180 C174 1.465 1_455 S
C180 C179 1.396 . S
C180 C181 1.399 . S
C181 H167 0.929 1_455 S
C181 C180 1.399 . S
C181 C182 1.385 . S
C182 H168 0.931 . S
C182 C181 1.385 . S
C182 C183 1.389 . S
C183 C182 1.389 . S
C183 C184 1.387 . S
C184 H169 0.930 . S
C184 C179 1.390 . S
C184 C183 1.387 . S
H185 C197 0.930 . S
H186 C199 0.930 . S
H187 C200 0.930 . S
H188 C204 0.959 . S
H189 C204 0.959 . S
H190 C204 0.961 . S
H191 C205 0.960 . S
H192 C205 0.960 . S
H193 C205 0.959 1_565 S
H194 C208 0.929 . S
H195 C209 0.931 . S
H196 C211 0.930 . S
C197 H185 0.930 . S
C197 C198 1.399 . S
C197 C202 1.399 . S
C198 C197 1.399 . S
C198 C199 1.376 . S
C199 H186 0.930 . S
C199 C198 1.376 . S
C199 C200 1.388 1_545 S
C200 H187 0.930 . S
C200 C199 1.388 1_565 S
C200 C201 1.390 . S
C201 C200 1.390 . S
C201 C202 1.394 1_565 S
C201 C207 1.465 . S
C202 C197 1.399 . S
C202 C201 1.394 1_545 S
C202 C203 1.516 . S
C203 C202 1.516 . S
C203 C204 1.502 . S
C203 C205 1.561 . S
C203 C206 1.526 1_545 S
C204 H188 0.959 . S
C204 H189 0.959 . S
C204 H190 0.961 . S
C204 C203 1.502 . S
C205 H191 0.960 . S
C205 H192 0.960 . S
C205 H193 0.959 1_545 S
C205 C203 1.561 . S
C206 C203 1.526 1_565 S
C206 C207 1.396 . S
C206 C211 1.390 . S
C207 C201 1.465 . S
C207 C206 1.396 . S
C207 C208 1.399 . S
C208 H194 0.929 . S
C208 C207 1.399 . S
C208 C209 1.385 . S
C209 H195 0.931 . S
C209 C208 1.385 . S
C209 C210 1.389 . S
C210 C209 1.389 . S
C210 C211 1.387 . S
C211 H196 0.930 . S
C211 C206 1.390 . S
C211 C210 1.387 . S
H212 C224 0.930 . S
H213 C226 0.930 . S
H214 C227 0.930 1_565 S
H215 C231 0.959 . S
H216 C231 0.959 . S
H217 C231 0.961 . S
H218 C232 0.960 . S
H219 C232 0.961 . S
H220 C232 0.959 . S
H221 C235 0.929 . S
H222 C236 0.931 . S
H223 C238 0.930 . S
C224 H212 0.930 . S
C224 C225 1.399 . S
C224 C229 1.399 . S
C225 C224 1.399 . S
C225 C226 1.376 1_545 S
C226 H213 0.930 . S
C226 C225 1.376 1_565 S
C226 C227 1.388 1_565 S
C227 H214 0.930 1_545 S
C227 C226 1.388 1_545 S
C227 C228 1.390 . S
C228 C227 1.390 . S
C228 C229 1.394 . S
C228 C234 1.465 . S
C229 C224 1.399 . S
C229 C228 1.394 . S
C229 C230 1.516 . S
C230 C229 1.516 . S
C230 C231 1.502 . S
C230 C232 1.561 . S
C230 C233 1.526 . S
C231 H215 0.959 . S
C231 H216 0.959 . S
C231 H217 0.961 . S
C231 C230 1.502 . S
C232 H218 0.960 . S
C232 H219 0.961 . S
C232 H220 0.959 . S
C232 C230 1.561 . S
C233 C230 1.526 . S
C233 C234 1.396 . S
C233 C238 1.390 . S
C234 C228 1.465 . S
C234 C233 1.396 . S
C234 C235 1.399 . S
C235 H221 0.929 . S
C235 C234 1.399 . S
C235 C236 1.385 . S
C236 H222 0.931 . S
C236 C235 1.385 . S
C236 C237 1.389 . S
C237 C236 1.389 . S
C237 C238 1.387 . S
C238 H223 0.930 . S
C238 C233 1.390 . S
C238 C237 1.387 . S
H239 C251 0.930 . S
H240 C253 0.930 . S
H241 C254 0.930 . S
H242 C258 0.959 . S
H243 C258 0.959 . S
H244 C258 0.961 . S
H245 C259 0.960 . S
H246 C259 0.961 . S
H247 C259 0.959 . S
H248 C262 0.929 . S
H249 C263 0.931 . S
H250 C265 0.930 . S
C251 H239 0.930 . S
C251 C252 1.399 . S
C251 C256 1.399 . S
C252 C251 1.399 . S
C252 C253 1.376 . S
C253 H240 0.930 . S
C253 C252 1.376 . S
C253 C254 1.388 . S
C254 H241 0.930 . S
C254 C253 1.388 . S
C254 C255 1.390 . S
C255 C254 1.390 . S
C255 C256 1.394 . S
C255 C261 1.465 . S
C256 C251 1.399 . S
C256 C255 1.394 . S
C256 C257 1.516 . S
C257 C256 1.516 . S
C257 C258 1.502 . S
C257 C259 1.561 . S
C257 C260 1.526 . S
C258 H242 0.959 . S
C258 H243 0.959 . S
C258 H244 0.961 . S
C258 C257 1.502 . S
C259 H245 0.960 . S
C259 H246 0.961 . S
C259 H247 0.959 . S
C259 C257 1.561 . S
C260 C257 1.526 . S
C260 C261 1.396 . S
C260 C265 1.390 . S
C261 C255 1.465 . S
C261 C260 1.396 . S
C261 C262 1.399 . S
C262 H248 0.929 . S
C262 C261 1.399 . S
C262 C263 1.385 . S
C263 H249 0.931 . S
C263 C262 1.385 . S
C263 C264 1.389 . S
C264 C263 1.389 . S
C264 C265 1.387 . S
C265 H250 0.930 . S
C265 C260 1.390 . S
C265 C264 1.387 . S
H266 C278 0.930 . S
H267 C280 0.930 . S
H268 C281 0.930 1_545 S
H269 C285 0.959 . S
H270 C285 0.959 . S
H271 C285 0.961 . S
H272 C286 0.960 . S
H273 C286 0.961 . S
H274 C286 0.959 . S
H275 C289 0.929 . S
H276 C290 0.931 . S
H277 C292 0.930 . S
C278 H266 0.930 . S
C278 C279 1.399 . S
C278 C283 1.399 . S
C279 C278 1.399 . S
C279 C280 1.376 1_565 S
C280 H267 0.930 . S
C280 C279 1.376 1_545 S
C280 C281 1.388 1_545 S
C281 H268 0.930 1_565 S
C281 C280 1.388 1_565 S
C281 C282 1.390 . S
C282 C281 1.390 . S
C282 C283 1.394 . S
C282 C288 1.465 . S
C283 C278 1.399 . S
C283 C282 1.394 . S
C283 C284 1.516 . S
C284 C283 1.516 . S
C284 C285 1.502 . S
C284 C286 1.561 . S
C284 C287 1.526 . S
C285 H269 0.959 . S
C285 H270 0.959 . S
C285 H271 0.961 . S
C285 C284 1.502 . S
C286 H272 0.960 . S
C286 H273 0.961 . S
C286 H274 0.959 . S
C286 C284 1.561 . S
C287 C284 1.526 . S
C287 C288 1.396 . S
C287 C292 1.390 . S
C288 C282 1.465 . S
C288 C287 1.396 . S
C288 C289 1.399 . S
C289 H275 0.929 . S
C289 C288 1.399 . S
C289 C290 1.385 . S
C290 H276 0.931 . S
C290 C289 1.385 . S
C290 C291 1.389 . S
C291 C290 1.389 . S
C291 C292 1.387 . S
C292 H277 0.930 . S
C292 C287 1.390 . S
C292 C291 1.387 . S
H293 C305 0.930 . S
H294 C307 0.930 . S
H295 C308 0.930 . S
H296 C312 0.959 . S
H297 C312 0.959 . S
H298 C312 0.961 . S
H299 C313 0.960 . S
H300 C313 0.961 . S
H301 C313 0.959 . S
H302 C316 0.929 . S
H303 C317 0.931 . S
H304 C319 0.943 . S
C305 H293 0.930 . S
C305 C306 1.399 . S
C305 C310 1.399 . S
C306 C305 1.399 . S
C306 C307 1.376 . S
C307 H294 0.930 . S
C307 C306 1.376 . S
C307 C308 1.388 . S
C308 H295 0.930 . S
C308 C307 1.388 . S
C308 C309 1.390 . S
C309 C308 1.390 . S
C309 C310 1.394 . S
C309 C315 1.465 . S
C310 C305 1.399 . S
C310 C309 1.394 . S
C310 C311 1.516 . S
C311 C310 1.516 . S
C311 C312 1.502 . S
C311 C313 1.561 . S
C311 C314 1.526 . S
C312 H296 0.959 . S
C312 H297 0.959 . S
C312 H298 0.961 . S
C312 C311 1.502 . S
C313 H299 0.960 . S
C313 H300 0.961 . S
C313 H301 0.959 . S
C313 C311 1.561 . S
C314 C311 1.526 . S
C314 C315 1.396 . S
C314 C319 1.390 . S
C315 C309 1.465 . S
C315 C314 1.396 . S
C315 C316 1.399 . S
C316 H302 0.929 . S
C316 C315 1.399 . S
C316 C317 1.385 . S
C317 H303 0.931 . S
C317 C316 1.385 . S
C317 C318 1.389 . S
C318 C317 1.389 . S
C318 C319 1.387 . S
C319 H304 0.943 . S
C319 C314 1.390 . S
C319 C318 1.387 . S
H320 C332 0.930 1_565 S
H321 C334 0.930 . S
H322 C335 0.930 . S
H323 C339 0.959 . S
H324 C339 0.959 . S
H325 C339 0.961 . S
H326 C340 0.960 1_565 S
H327 C340 0.961 . S
H328 C340 0.959 . S
H329 C343 0.954 . S
H330 C344 0.931 . S
H331 C346 0.930 . S
C332 H320 0.930 1_545 S
C332 C333 1.399 . S
C332 C337 1.399 . S
C333 C332 1.399 . S
C333 C334 1.376 . S
C334 H321 0.930 . S
C334 C333 1.376 . S
C334 C335 1.388 . S
C335 H322 0.930 . S
C335 C334 1.388 . S
C335 C336 1.390 . S
C336 C335 1.390 . S
C336 C337 1.394 . S
C336 C342 1.443 1_556 S
C337 C332 1.399 . S
C337 C336 1.394 . S
C337 C338 1.516 1_556 S
C338 C337 1.516 1_554 S
C338 C339 1.502 . S
C338 C340 1.561 . S
C338 C341 1.526 . S
C339 H323 0.959 . S
C339 H324 0.959 . S
C339 H325 0.961 . S
C339 C338 1.502 . S
C340 H326 0.960 1_545 S
C340 H327 0.961 . S
C340 H328 0.959 . S
C340 C338 1.561 . S
C341 C338 1.526 . S
C341 C342 1.423 . S
C341 C346 1.390 . S
C342 C336 1.443 1_554 S
C342 C341 1.423 . S
C342 C343 1.397 1_554 S
C343 H329 0.954 . S
C343 C342 1.397 1_556 S
C343 C344 1.362 1_556 S
C344 H330 0.931 . S
C344 C343 1.362 1_554 S
C344 C345 1.389 . S
C345 C344 1.389 . S
C345 C346 1.387 . S
C346 H331 0.930 . S
C346 C341 1.390 . S
C346 C345 1.387 . S
H347 C359 0.930 . S
H348 C361 0.930 . S
H349 C362 0.930 . S
H350 C366 0.959 . S
H351 C366 0.934 1_554 S
H352 C366 0.961 . S
H353 C367 0.960 . S
H354 C367 0.961 . S
H355 C367 0.959 . S
H356 C370 0.929 . S
H357 C371 0.931 . S
H358 C373 0.930 . S
C359 H347 0.930 . S
C359 C360 1.399 . S
C359 C364 1.399 . S
C360 C359 1.399 . S
C360 C361 1.376 . S
C361 H348 0.930 . S
C361 C360 1.376 . S
C361 C362 1.388 . S
C362 H349 0.930 . S
C362 C361 1.388 . S
C362 C363 1.390 . S
C363 C362 1.390 . S
C363 C364 1.394 . S
C363 C369 1.465 1_556 S
C364 C359 1.399 . S
C364 C363 1.394 . S
C364 C365 1.516 1_556 S
C365 C364 1.516 1_554 S
C365 C366 1.502 1_554 S
C365 C367 1.561 . S
C365 C368 1.526 . S
C366 H350 0.959 . S
C366 H351 0.934 1_556 S
C366 H352 0.961 . S
C366 C365 1.502 1_556 S
C367 H353 0.960 . S
C367 H354 0.961 . S
C367 H355 0.959 . S
C367 C365 1.561 . S
C368 C365 1.526 . S
C368 C369 1.396 . S
C368 C373 1.390 . S
C369 C363 1.465 1_554 S
C369 C368 1.396 . S
C369 C370 1.399 . S
C370 H356 0.929 . S
C370 C369 1.399 . S
C370 C371 1.385 . S
C371 H357 0.931 . S
C371 C370 1.385 . S
C371 C372 1.389 . S
C372 C371 1.389 . S
C372 C373 1.387 . S
C373 H358 0.930 . S
C373 C368 1.390 . S
C373 C372 1.387 . S
H374 C386 0.930 . S
H375 C388 0.930 . S
H376 C389 0.930 . S
H377 C393 0.959 . S
H378 C393 0.959 1_545 S
H379 C393 0.961 . S
H380 C394 0.960 . S
H381 C394 0.961 . S
H382 C394 0.959 . S
H383 C397 0.929 . S
H384 C398 0.931 . S
H385 C400 0.930 1_545 S
C386 H374 0.930 . S
C386 C387 1.399 . S
C386 C391 1.399 . S
C387 C386 1.399 . S
C387 C388 1.376 . S
C388 H375 0.930 . S
C388 C387 1.376 . S
C388 C389 1.388 1_554 S
C389 H376 0.930 . S
C389 C388 1.388 1_556 S
C389 C390 1.390 1_556 S
C390 C389 1.390 1_554 S
C390 C391 1.395 . S
C390 C396 1.464 1_554 S
C391 C386 1.399 . S
C391 C390 1.395 . S
C391 C392 1.516 . S
C392 C391 1.516 . S
C392 C393 1.502 . S
C392 C394 1.561 . S
C392 C395 1.526 1_554 S
C393 H377 0.959 . S
C393 H378 0.959 1_565 S
C393 H379 0.961 . S
C393 C392 1.502 . S
C394 H380 0.960 . S
C394 H381 0.961 . S
C394 H382 0.959 . S
C394 C392 1.561 . S
C395 C392 1.526 1_556 S
C395 C396 1.396 . S
C395 C400 1.390 . S
C396 C390 1.464 1_556 S
C396 C395 1.396 . S
C396 C397 1.399 . S
C397 H383 0.929 . S
C397 C396 1.399 . S
C397 C398 1.385 . S
C398 H384 0.931 . S
C398 C397 1.385 . S
C398 C399 1.389 . S
C399 C398 1.389 . S
C399 C400 1.387 . S
C400 H385 0.930 1_565 S
C400 C395 1.390 . S
C400 C399 1.387 . S
H401 C413 0.930 . S
H402 C415 0.930 . S
H403 C416 0.930 . S
H404 C420 0.959 . S
H405 C420 0.959 . S
H406 C420 0.961 . S
H407 C421 0.960 . S
H408 C421 0.961 . S
H409 C421 0.959 . S
H410 C424 0.929 . S
H411 C425 0.931 . S
H412 C427 0.930 . S
C413 H401 0.930 . S
C413 C414 1.399 . S
C413 C418 1.399 . S
C414 C413 1.399 . S
C414 C415 1.376 . S
C415 H402 0.930 . S
C415 C414 1.376 . S
C415 C416 1.388 . S
C416 H403 0.930 . S
C416 C415 1.388 . S
C416 C417 1.390 . S
C417 C416 1.390 . S
C417 C418 1.394 . S
C417 C423 1.465 1_556 S
C418 C413 1.399 . S
C418 C417 1.394 . S
C418 C419 1.516 1_556 S
C419 C418 1.516 1_554 S
C419 C420 1.502 1_554 S
C419 C421 1.561 . S
C419 C422 1.526 . S
C420 H404 0.959 . S
C420 H405 0.959 . S
C420 H406 0.961 . S
C420 C419 1.502 1_556 S
C421 H407 0.960 . S
C421 H408 0.961 . S
C421 H409 0.959 . S
C421 C419 1.561 . S
C422 C419 1.526 . S
C422 C423 1.396 . S
C422 C427 1.390 . S
C423 C417 1.465 1_554 S
C423 C422 1.396 . S
C423 C424 1.399 . S
C424 H410 0.929 . S
C424 C423 1.399 . S
C424 C425 1.385 . S
C425 H411 0.931 . S
C425 C424 1.385 . S
C425 C426 1.389 . S
C426 C425 1.389 . S
C426 C427 1.387 . S
C427 H412 0.930 . S
C427 C422 1.390 . S
C427 C426 1.387 . S
H428 C440 0.930 . S
H429 C442 0.930 . S
H430 C443 0.930 . S
H431 C447 0.959 . S
H432 C447 0.959 . S
H433 C447 0.961 . S
H434 C448 0.960 . S
H435 C448 0.961 . S
H436 C448 0.959 . S
H437 C451 0.929 . S
H438 C452 0.931 . S
H439 C454 0.930 . S
C440 H428 0.930 . S
C440 C441 1.399 . S
C440 C445 1.399 . S
C441 C440 1.399 . S
C441 C442 1.376 . S
C442 H429 0.930 . S
C442 C441 1.376 . S
C442 C443 1.388 . S
C443 H430 0.930 . S
C443 C442 1.388 . S
C443 C444 1.390 . S
C444 C443 1.390 . S
C444 C445 1.394 . S
C444 C450 1.465 . S
C445 C440 1.399 . S
C445 C444 1.394 . S
C445 C446 1.516 . S
C446 C445 1.516 . S
C446 C447 1.502 . S
C446 C448 1.561 . S
C446 C449 1.526 . S
C447 H431 0.959 . S
C447 H432 0.959 . S
C447 H433 0.961 . S
C447 C446 1.502 . S
C448 H434 0.960 . S
C448 H435 0.961 . S
C448 H436 0.959 . S
C448 C446 1.561 . S
C449 C446 1.526 . S
C449 C450 1.396 . S
C449 C454 1.390 . S
C450 C444 1.465 . S
C450 C449 1.396 . S
C450 C451 1.399 . S
C451 H437 0.929 . S
C451 C450 1.399 . S
C451 C452 1.385 . S
C452 H438 0.931 . S
C452 C451 1.385 . S
C452 C453 1.389 . S
C453 C452 1.389 . S
C453 C454 1.387 . S
C454 H439 0.930 . S
C454 C449 1.390 . S
C454 C453 1.387 . S
H455 C467 0.930 . S
H456 C469 0.930 . S
H457 C470 0.930 . S
H458 C474 0.959 . S
H459 C474 0.959 . S
H460 C474 0.961 . S
H461 C475 0.960 . S
H462 C475 0.961 . S
H463 C475 0.959 . S
H464 C478 0.929 . S
H465 C479 0.931 . S
H466 C481 0.930 . S
C467 H455 0.930 . S
C467 C468 1.399 . S
C467 C472 1.399 . S
C468 C467 1.399 . S
C468 C469 1.376 . S
C469 H456 0.930 . S
C469 C468 1.376 . S
C469 C470 1.388 . S
C470 H457 0.930 . S
C470 C469 1.388 . S
C470 C471 1.390 . S
C471 C470 1.390 . S
C471 C472 1.394 . S
C471 C477 1.465 . S
C472 C467 1.399 . S
C472 C471 1.394 . S
C472 C473 1.516 . S
C473 C472 1.516 . S
C473 C474 1.502 . S
C473 C475 1.561 . S
C473 C476 1.526 . S
C474 H458 0.959 . S
C474 H459 0.959 . S
C474 H460 0.961 . S
C474 C473 1.502 . S
C475 H461 0.960 . S
C475 H462 0.961 . S
C475 H463 0.959 . S
C475 C473 1.561 . S
C476 C473 1.526 . S
C476 C477 1.396 . S
C476 C481 1.390 . S
C477 C471 1.465 . S
C477 C476 1.396 . S
C477 C478 1.399 . S
C478 H464 0.929 . S
C478 C477 1.399 . S
C478 C479 1.385 . S
C479 H465 0.931 . S
C479 C478 1.385 . S
C479 C480 1.389 . S
C480 C479 1.389 . S
C480 C481 1.387 . S
C481 H466 0.930 . S
C481 C476 1.390 . S
C481 C480 1.387 . S
H482 C494 0.930 . S
H483 C496 0.930 . S
H484 C497 0.930 . S
H485 C501 0.959 . S
H486 C501 0.959 . S
H487 C501 0.961 . S
H488 C502 0.960 . S
H489 C502 0.961 . S
H490 C502 0.959 . S
H491 C505 0.929 . S
H492 C506 0.931 . S
H493 C508 0.930 . S
C494 H482 0.930 . S
C494 C495 1.399 . S
C494 C499 1.399 . S
C495 C494 1.399 . S
C495 C496 1.376 . S
C496 H483 0.930 . S
C496 C495 1.376 . S
C496 C497 1.388 . S
C497 H484 0.930 . S
C497 C496 1.388 . S
C497 C498 1.390 . S
C498 C497 1.390 . S
C498 C499 1.394 . S
C498 C504 1.465 . S
C499 C494 1.399 . S
C499 C498 1.394 . S
C499 C500 1.516 . S
C500 C499 1.516 . S
C500 C501 1.502 . S
C500 C502 1.561 . S
C500 C503 1.526 . S
C501 H485 0.959 . S
C501 H486 0.959 . S
C501 H487 0.961 . S
C501 C500 1.502 . S
C502 H488 0.960 . S
C502 H489 0.961 . S
C502 H490 0.959 . S
C502 C500 1.561 . S
C503 C500 1.526 . S
C503 C504 1.396 . S
C503 C508 1.390 . S
C504 C498 1.465 . S
C504 C503 1.396 . S
C504 C505 1.399 . S
C505 H491 0.929 . S
C505 C504 1.399 . S
C505 C506 1.385 . S
C506 H492 0.931 . S
C506 C505 1.385 . S
C506 C507 1.389 . S
C507 C506 1.389 . S
C507 C508 1.387 . S
C508 H493 0.930 . S
C508 C503 1.390 . S
C508 C507 1.387 . S
H509 C521 0.930 . S
H510 C523 0.930 . S
H511 C524 0.930 . S
H512 C528 0.959 . S
H513 C528 0.959 . S
H514 C528 0.961 . S
H515 C529 0.960 . S
H516 C529 0.961 . S
H517 C529 0.959 . S
H518 C532 0.929 . S
H519 C533 0.931 . S
H520 C535 0.930 . S
C521 H509 0.930 . S
C521 C522 1.399 . S
C521 C526 1.399 . S
C522 C521 1.399 . S
C522 C523 1.376 . S
C523 H510 0.930 . S
C523 C522 1.376 . S
C523 C524 1.388 . S
C524 H511 0.930 . S
C524 C523 1.388 . S
C524 C525 1.390 . S
C525 C524 1.390 . S
C525 C526 1.394 . S
C525 C531 1.465 . S
C526 C521 1.399 . S
C526 C525 1.394 . S
C526 C527 1.516 . S
C527 C526 1.516 . S
C527 C528 1.502 . S
C527 C529 1.561 . S
C527 C530 1.526 . S
C528 H512 0.959 . S
C528 H513 0.959 . S
C528 H514 0.961 . S
C528 C527 1.502 . S
C529 H515 0.960 . S
C529 H516 0.961 . S
C529 H517 0.959 . S
C529 C527 1.561 . S
C530 C527 1.526 . S
C530 C531 1.396 . S
C530 C535 1.390 . S
C531 C525 1.465 . S
C531 C530 1.396 . S
C531 C532 1.399 . S
C532 H518 0.929 . S
C532 C531 1.399 . S
C532 C533 1.385 . S
C533 H519 0.931 . S
C533 C532 1.385 . S
C533 C534 1.389 . S
C534 C533 1.389 . S
C534 C535 1.387 . S
C535 H520 0.930 . S
C535 C530 1.390 . S
C535 C534 1.387 . S
C117 C36 1.576 . S
C129 C10 1.606 . S
C144 C49 1.613 . S
C156 C23 1.566 . S
C171 C56 1.611 . S
C183 C88 1.585 . S
C198 C75 1.568 . S
C210 C95 1.611 . S
C225 C18 1.101 1_545 S
C237 C3 1.105 . S
C252 C16 1.072 . S
C264 C31 1.136 1_455 S
C279 C44 1.109 1_565 S
C291 C29 1.087 . S
C306 C42 1.094 . S
C318 C5 1.142 1_655 S
C333 C94 1.139 1_545 S
C345 C57 1.079 . S
C360 C68 1.138 . S
C372 C55 1.119 1_455 S
C387 C81 1.120 . S
C399 C70 1.140 1_565 S
C414 C96 1.135 . S
C426 C83 1.121 1_655 S
C441 C4 1.713 . S
C453 C69 1.714 . S
C468 C82 1.711 . S
C480 C17 1.722 . S
C495 C30 1.713 . S
C507 C101 1.713 . S
C522 C43 1.717 . S
C534 C62 1.718 . S
