# Generated by pormake.
# Topology ech, (8)-cn, num edge types: 1
# Building blocks:
#     Node 0, Type 0, BuildingBlock: AJUNOK_clean_sbu_0, # of connection points: 8
#     Node 1, Type 0, BuildingBlock: AJUNOK_clean_sbu_0, # of connection points: 8
#     Node 2, Type 0, BuildingBlock: AJUNOK_clean_sbu_0, # of connection points: 8
#     Node 3, Type 0, BuildingBlock: AJUNOK_clean_sbu_0, # of connection points: 8
#     Node 4, Type 0, BuildingBlock: AJUNOK_clean_sbu_0, # of connection points: 8
#     Node 5, Type 0, BuildingBlock: AJUNOK_clean_sbu_0, # of connection points: 8
#     Node 6, Type 0, BuildingBlock: AJUNOK_clean_sbu_0, # of connection points: 8
#     Node 7, Type 0, BuildingBlock: AJUNOK_clean_sbu_0, # of connection points: 8
#     Node 8, Type 0, BuildingBlock: AJUNOK_clean_sbu_0, # of connection points: 8
#     Node 9, Type 0, BuildingBlock: AJUNOK_clean_sbu_0, # of connection points: 8
#     Node 10, Type 0, BuildingBlock: AJUNOK_clean_sbu_0, # of connection points: 8
#     Node 11, Type 0, BuildingBlock: AJUNOK_clean_sbu_0, # of connection points: 8
#     Node 12, Type 0, BuildingBlock: AJUNOK_clean_sbu_0, # of connection points: 8
#     Node 13, Type 0, BuildingBlock: AJUNOK_clean_sbu_0, # of connection points: 8
#     Node 14, Type 0, BuildingBlock: AJUNOK_clean_sbu_0, # of connection points: 8
#     Node 15, Type 0, BuildingBlock: AJUNOK_clean_sbu_0, # of connection points: 8
#     Node 16, Type 0, BuildingBlock: AJUNOK_clean_sbu_0, # of connection points: 8
#     Node 17, Type 0, BuildingBlock: AJUNOK_clean_sbu_0, # of connection points: 8
#     Node 18, Type 0, BuildingBlock: AJUNOK_clean_sbu_0, # of connection points: 8
#     Node 19, Type 0, BuildingBlock: AJUNOK_clean_sbu_0, # of connection points: 8
#     Node 20, Type 0, BuildingBlock: AJUNOK_clean_sbu_0, # of connection points: 8
#     Node 21, Type 0, BuildingBlock: AJUNOK_clean_sbu_0, # of connection points: 8
#     Node 22, Type 0, BuildingBlock: AJUNOK_clean_sbu_0, # of connection points: 8
#     Node 23, Type 0, BuildingBlock: AJUNOK_clean_sbu_0, # of connection points: 8
#     Edge 24, Type (0, 0), BuildingBlock: EZIPEK_clean_linker_0, # of connection points: 2
#     Edge 25, Type (0, 0), BuildingBlock: EZIPEK_clean_linker_0, # of connection points: 2
#     Edge 26, Type (0, 0), BuildingBlock: EZIPEK_clean_linker_0, # of connection points: 2
#     Edge 27, Type (0, 0), BuildingBlock: EZIPEK_clean_linker_0, # of connection points: 2
#     Edge 28, Type (0, 0), BuildingBlock: EZIPEK_clean_linker_0, # of connection points: 2
#     Edge 29, Type (0, 0), BuildingBlock: EZIPEK_clean_linker_0, # of connection points: 2
#     Edge 30, Type (0, 0), BuildingBlock: EZIPEK_clean_linker_0, # of connection points: 2
#     Edge 31, Type (0, 0), BuildingBlock: EZIPEK_clean_linker_0, # of connection points: 2
#     Edge 32, Type (0, 0), BuildingBlock: EZIPEK_clean_linker_0, # of connection points: 2
#     Edge 33, Type (0, 0), BuildingBlock: EZIPEK_clean_linker_0, # of connection points: 2
#     Edge 34, Type (0, 0), BuildingBlock: EZIPEK_clean_linker_0, # of connection points: 2
#     Edge 35, Type (0, 0), BuildingBlock: EZIPEK_clean_linker_0, # of connection points: 2
#     Edge 36, Type (0, 0), BuildingBlock: EZIPEK_clean_linker_0, # of connection points: 2
#     Edge 37, Type (0, 0), BuildingBlock: EZIPEK_clean_linker_0, # of connection points: 2
#     Edge 38, Type (0, 0), BuildingBlock: EZIPEK_clean_linker_0, # of connection points: 2
#     Edge 39, Type (0, 0), BuildingBlock: EZIPEK_clean_linker_0, # of connection points: 2
#     Edge 40, Type (0, 0), BuildingBlock: EZIPEK_clean_linker_0, # of connection points: 2
#     Edge 41, Type (0, 0), BuildingBlock: EZIPEK_clean_linker_0, # of connection points: 2
#     Edge 42, Type (0, 0), BuildingBlock: EZIPEK_clean_linker_0, # of connection points: 2
#     Edge 43, Type (0, 0), BuildingBlock: EZIPEK_clean_linker_0, # of connection points: 2
#     Edge 44, Type (0, 0), BuildingBlock: EZIPEK_clean_linker_0, # of connection points: 2
#     Edge 45, Type (0, 0), BuildingBlock: EZIPEK_clean_linker_0, # of connection points: 2
#     Edge 46, Type (0, 0), BuildingBlock: EZIPEK_clean_linker_0, # of connection points: 2
#     Edge 47, Type (0, 0), BuildingBlock: EZIPEK_clean_linker_0, # of connection points: 2
#     Edge 48, Type (0, 0), BuildingBlock: EZIPEK_clean_linker_0, # of connection points: 2
#     Edge 49, Type (0, 0), BuildingBlock: EZIPEK_clean_linker_0, # of connection points: 2
#     Edge 50, Type (0, 0), BuildingBlock: EZIPEK_clean_linker_0, # of connection points: 2
#     Edge 51, Type (0, 0), BuildingBlock: EZIPEK_clean_linker_0, # of connection points: 2
#     Edge 52, Type (0, 0), BuildingBlock: EZIPEK_clean_linker_0, # of connection points: 2
#     Edge 53, Type (0, 0), BuildingBlock: EZIPEK_clean_linker_0, # of connection points: 2
#     Edge 54, Type (0, 0), BuildingBlock: EZIPEK_clean_linker_0, # of connection points: 2
#     Edge 55, Type (0, 0), BuildingBlock: EZIPEK_clean_linker_0, # of connection points: 2
#     Edge 56, Type (0, 0), BuildingBlock: EZIPEK_clean_linker_0, # of connection points: 2
#     Edge 57, Type (0, 0), BuildingBlock: EZIPEK_clean_linker_0, # of connection points: 2
#     Edge 58, Type (0, 0), BuildingBlock: EZIPEK_clean_linker_0, # of connection points: 2
#     Edge 59, Type (0, 0), BuildingBlock: EZIPEK_clean_linker_0, # of connection points: 2
#     Edge 60, Type (0, 0), BuildingBlock: EZIPEK_clean_linker_0, # of connection points: 2
#     Edge 61, Type (0, 0), BuildingBlock: EZIPEK_clean_linker_0, # of connection points: 2
#     Edge 62, Type (0, 0), BuildingBlock: EZIPEK_clean_linker_0, # of connection points: 2
#     Edge 63, Type (0, 0), BuildingBlock: EZIPEK_clean_linker_0, # of connection points: 2
#     Edge 64, Type (0, 0), BuildingBlock: EZIPEK_clean_linker_0, # of connection points: 2
#     Edge 65, Type (0, 0), BuildingBlock: EZIPEK_clean_linker_0, # of connection points: 2
#     Edge 66, Type (0, 0), BuildingBlock: EZIPEK_clean_linker_0, # of connection points: 2
#     Edge 67, Type (0, 0), BuildingBlock: EZIPEK_clean_linker_0, # of connection points: 2
#     Edge 68, Type (0, 0), BuildingBlock: EZIPEK_clean_linker_0, # of connection points: 2
#     Edge 69, Type (0, 0), BuildingBlock: EZIPEK_clean_linker_0, # of connection points: 2
#     Edge 70, Type (0, 0), BuildingBlock: EZIPEK_clean_linker_0, # of connection points: 2
#     Edge 71, Type (0, 0), BuildingBlock: EZIPEK_clean_linker_0, # of connection points: 2
#     Edge 72, Type (0, 0), BuildingBlock: EZIPEK_clean_linker_0, # of connection points: 2
#     Edge 73, Type (0, 0), BuildingBlock: EZIPEK_clean_linker_0, # of connection points: 2
#     Edge 74, Type (0, 0), BuildingBlock: EZIPEK_clean_linker_0, # of connection points: 2
#     Edge 75, Type (0, 0), BuildingBlock: EZIPEK_clean_linker_0, # of connection points: 2
#     Edge 76, Type (0, 0), BuildingBlock: EZIPEK_clean_linker_0, # of connection points: 2
#     Edge 77, Type (0, 0), BuildingBlock: EZIPEK_clean_linker_0, # of connection points: 2
#     Edge 78, Type (0, 0), BuildingBlock: EZIPEK_clean_linker_0, # of connection points: 2
#     Edge 79, Type (0, 0), BuildingBlock: EZIPEK_clean_linker_0, # of connection points: 2
#     Edge 80, Type (0, 0), BuildingBlock: EZIPEK_clean_linker_0, # of connection points: 2
#     Edge 81, Type (0, 0), BuildingBlock: EZIPEK_clean_linker_0, # of connection points: 2
#     Edge 82, Type (0, 0), BuildingBlock: EZIPEK_clean_linker_0, # of connection points: 2
#     Edge 83, Type (0, 0), BuildingBlock: EZIPEK_clean_linker_0, # of connection points: 2
#     Edge 84, Type (0, 0), BuildingBlock: EZIPEK_clean_linker_0, # of connection points: 2
#     Edge 85, Type (0, 0), BuildingBlock: EZIPEK_clean_linker_0, # of connection points: 2
#     Edge 86, Type (0, 0), BuildingBlock: EZIPEK_clean_linker_0, # of connection points: 2
#     Edge 87, Type (0, 0), BuildingBlock: EZIPEK_clean_linker_0, # of connection points: 2
#     Edge 88, Type (0, 0), BuildingBlock: EZIPEK_clean_linker_0, # of connection points: 2
#     Edge 89, Type (0, 0), BuildingBlock: EZIPEK_clean_linker_0, # of connection points: 2
#     Edge 90, Type (0, 0), BuildingBlock: EZIPEK_clean_linker_0, # of connection points: 2
#     Edge 91, Type (0, 0), BuildingBlock: EZIPEK_clean_linker_0, # of connection points: 2
#     Edge 92, Type (0, 0), BuildingBlock: EZIPEK_clean_linker_0, # of connection points: 2
#     Edge 93, Type (0, 0), BuildingBlock: EZIPEK_clean_linker_0, # of connection points: 2
#     Edge 94, Type (0, 0), BuildingBlock: EZIPEK_clean_linker_0, # of connection points: 2
#     Edge 95, Type (0, 0), BuildingBlock: EZIPEK_clean_linker_0, # of connection points: 2
#     Edge 96, Type (0, 0), BuildingBlock: EZIPEK_clean_linker_0, # of connection points: 2
#     Edge 97, Type (0, 0), BuildingBlock: EZIPEK_clean_linker_0, # of connection points: 2
#     Edge 98, Type (0, 0), BuildingBlock: EZIPEK_clean_linker_0, # of connection points: 2
#     Edge 99, Type (0, 0), BuildingBlock: EZIPEK_clean_linker_0, # of connection points: 2
#     Edge 100, Type (0, 0), BuildingBlock: EZIPEK_clean_linker_0, # of connection points: 2
#     Edge 101, Type (0, 0), BuildingBlock: EZIPEK_clean_linker_0, # of connection points: 2
#     Edge 102, Type (0, 0), BuildingBlock: EZIPEK_clean_linker_0, # of connection points: 2
#     Edge 103, Type (0, 0), BuildingBlock: EZIPEK_clean_linker_0, # of connection points: 2
#     Edge 104, Type (0, 0), BuildingBlock: EZIPEK_clean_linker_0, # of connection points: 2
#     Edge 105, Type (0, 0), BuildingBlock: EZIPEK_clean_linker_0, # of connection points: 2
#     Edge 106, Type (0, 0), BuildingBlock: EZIPEK_clean_linker_0, # of connection points: 2
#     Edge 107, Type (0, 0), BuildingBlock: EZIPEK_clean_linker_0, # of connection points: 2
#     Edge 108, Type (0, 0), BuildingBlock: EZIPEK_clean_linker_0, # of connection points: 2
#     Edge 109, Type (0, 0), BuildingBlock: EZIPEK_clean_linker_0, # of connection points: 2
#     Edge 110, Type (0, 0), BuildingBlock: EZIPEK_clean_linker_0, # of connection points: 2
#     Edge 111, Type (0, 0), BuildingBlock: EZIPEK_clean_linker_0, # of connection points: 2
#     Edge 112, Type (0, 0), BuildingBlock: EZIPEK_clean_linker_0, # of connection points: 2
#     Edge 113, Type (0, 0), BuildingBlock: EZIPEK_clean_linker_0, # of connection points: 2
#     Edge 114, Type (0, 0), BuildingBlock: EZIPEK_clean_linker_0, # of connection points: 2
#     Edge 115, Type (0, 0), BuildingBlock: EZIPEK_clean_linker_0, # of connection points: 2
#     Edge 116, Type (0, 0), BuildingBlock: EZIPEK_clean_linker_0, # of connection points: 2
#     Edge 117, Type (0, 0), BuildingBlock: EZIPEK_clean_linker_0, # of connection points: 2
#     Edge 118, Type (0, 0), BuildingBlock: EZIPEK_clean_linker_0, # of connection points: 2
#     Edge 119, Type (0, 0), BuildingBlock: EZIPEK_clean_linker_0, # of connection points: 2
# Relax obj value: 0.309
# Max RMSD: 0.227
# Mean RMSD: 0.227
data_MOF--net-ech--node1-AJUNOK_clean_sbu_0--edge1-EZIPEK_clean_linker_0
_symmetry_space_group_name_H-M    P1
_symmetry_Int_Tables_number       1
_symmetry_cell_setting            triclinic
loop_
_symmetry_equiv_pos_as_xyz
'x, y, z'
_cell_length_a     40.889226
_cell_length_b     40.901532
_cell_length_c     40.884612
_cell_angle_alpha  89.891022
_cell_angle_beta   90.123148
_cell_angle_gamma 90.108303
loop_
_atom_site_label
_atom_site_type_symbol
_atom_site_fract_x
_atom_site_fract_y
_atom_site_fract_z
_atom_type_partial_charge
Cd0 Cd 0.16681 0.31827 0.40948 0.0
Cd1 Cd 0.11903 0.27661 0.49431 0.0
C2 C 0.13223 0.3859 0.406 0.0
N3 N 0.12289 0.35408 0.40795 0.0
C4 C 0.06705 0.36881 0.39878 0.0
C5 C 0.07617 0.40181 0.39624 0.0
C6 C 0.10932 0.41017 0.39956 0.0
C7 C 0.0912 0.34504 0.40331 0.0
H8 H 0.15778 0.39231 0.40837 0.0
H9 H 0.08462 0.3195 0.40266 0.0
C10 C 0.10909 0.25215 0.4121 0.0
C11 C 0.13224 0.20096 0.50668 0.0
C12 C 0.14747 0.17318 0.51945 0.0
C13 C 0.18048 0.17486 0.52858 0.0
C14 C 0.19795 0.20389 0.52325 0.0
C15 C 0.18161 0.23119 0.51084 0.0
N16 N 0.14928 0.22936 0.50333 0.0
H17 H 0.10634 0.20048 0.50125 0.0
H18 H 0.19417 0.25427 0.50908 0.0
C19 C 0.05409 0.30274 0.46025 0.0
N20 N 0.08174 0.31486 0.47405 0.0
C21 C 0.05605 0.367 0.48139 0.0
C22 C 0.02591 0.35423 0.47004 0.0
C23 C 0.02662 0.32235 0.4567 0.0
C24 C 0.08367 0.34673 0.48333 0.0
H25 H 0.05242 0.27724 0.45377 0.0
H26 H 0.10574 0.35572 0.49485 0.0
C27 C 0.18101 0.33851 0.491 0.0
C28 C 0.19629 0.35148 0.35556 0.0
N29 N 0.20433 0.27653 0.4163 0.0
C30 C 0.22136 0.27194 0.44458 0.0
C31 C 0.24906 0.25197 0.44494 0.0
C32 C 0.25967 0.2381 0.41551 0.0
C33 C 0.24033 0.24134 0.38738 0.0
C34 C 0.21253 0.26082 0.38831 0.0
C35 C 0.08289 0.27395 0.55373 0.0
O36 O 0.1282 0.27457 0.40243 0.0
O37 O 0.10378 0.24868 0.44257 0.0
O38 O 0.16148 0.31812 0.50398 0.0
O39 O 0.18388 0.341 0.46029 0.0
O40 O 0.17367 0.33056 0.3516 0.0
O41 O 0.20564 0.35541 0.38478 0.0
O42 O 0.10973 0.28913 0.5512 0.0
O43 O 0.07314 0.25808 0.52891 0.0
H44 H 0.21488 0.28539 0.46622 0.0
H45 H 0.19882 0.2654 0.36614 0.0
H46 H 0.04173 0.36148 0.39604 0.0
H47 H 0.11737 0.43533 0.39733 0.0
H48 H 0.13337 0.15111 0.52354 0.0
H49 H 0.2234 0.20593 0.53042 0.0
H50 H 0.05895 0.39134 0.4905 0.0
H51 H 0.00534 0.31153 0.44519 0.0
H52 H 0.26347 0.24964 0.46709 0.0
H53 H 0.24786 0.23062 0.36439 0.0
Cd54 Cd 0.37477 0.72255 0.99533 0.0
Cd55 Cd 0.32848 0.67141 0.92051 0.0
C56 C 0.43878 0.69413 0.95814 0.0
N57 N 0.41812 0.68718 0.98324 0.0
C58 C 0.45437 0.6453 0.00245 0.0
C59 C 0.47516 0.65127 0.97584 0.0
C60 C 0.46685 0.67576 0.95337 0.0
C61 C 0.42549 0.66337 0.00541 0.0
H62 H 0.4344 0.71444 0.94212 0.0
H63 H 0.4097 0.65943 0.02622 0.0
C64 C 0.31304 0.65953 0.00106 0.0
C65 C 0.27523 0.72423 0.94988 0.0
C66 C 0.24743 0.7438 0.94606 0.0
C67 C 0.23772 0.75288 0.91439 0.0
C68 C 0.25743 0.74488 0.8877 0.0
C69 C 0.28474 0.72543 0.89262 0.0
N70 N 0.29226 0.71448 0.92303 0.0
H71 H 0.28177 0.71519 0.97381 0.0
H72 H 0.29859 0.71691 0.87188 0.0
C73 C 0.35341 0.60225 0.94151 0.0
N74 N 0.36666 0.63165 0.93317 0.0
C75 C 0.41589 0.60581 0.91584 0.0
C76 C 0.40153 0.57509 0.9215 0.0
C77 C 0.37063 0.57344 0.93598 0.0
C78 C 0.39752 0.63404 0.9212 0.0
H79 H 0.32809 0.60075 0.94887 0.0
H80 H 0.40634 0.65728 0.9122 0.0
C81 C 0.38337 0.73888 0.91106 0.0
C82 C 0.40984 0.73731 0.05313 0.0
N83 N 0.33677 0.76229 0.00559 0.0
C84 C 0.34084 0.79318 0.994 0.0
C85 C 0.32419 0.81905 0.00862 0.0
C86 C 0.30385 0.81265 0.03544 0.0
C87 C 0.29875 0.78042 0.0457 0.0
C88 C 0.31572 0.75536 0.03035 0.0
C89 C 0.30433 0.63587 0.86594 0.0
O90 O 0.33544 0.67958 0.00874 0.0
O91 O 0.30557 0.65426 0.97153 0.0
O92 O 0.36718 0.71336 0.90393 0.0
O93 O 0.38607 0.74745 0.94087 0.0
O94 O 0.38697 0.71645 0.05236 0.0
O95 O 0.41501 0.75352 0.02715 0.0
O96 O 0.32916 0.6542 0.86362 0.0
O97 O 0.28942 0.63533 0.89303 0.0
H98 H 0.35866 0.79801 0.97509 0.0
H99 H 0.31397 0.73073 0.03979 0.0
H100 H 0.46058 0.62719 0.02079 0.0
H101 H 0.48269 0.68151 0.93293 0.0
H102 H 0.23255 0.74984 0.96708 0.0
H103 H 0.25041 0.75165 0.86303 0.0
H104 H 0.4394 0.60772 0.90382 0.0
H105 H 0.35867 0.5501 0.93983 0.0
H106 H 0.32838 0.84386 0.0003 0.0
H107 H 0.28307 0.77497 0.06634 0.0
Cd108 Cd 0.6548 0.17115 0.57111 0.0
Cd109 Cd 0.6201 0.21985 0.49551 0.0
C110 C 0.62582 0.10266 0.5676 0.0
N111 N 0.61303 0.1332 0.56642 0.0
C112 C 0.55897 0.11176 0.57319 0.0
C113 C 0.57216 0.08029 0.57679 0.0
C114 C 0.60573 0.0759 0.57273 0.0
C115 C 0.58024 0.13827 0.56856 0.0
H116 H 0.65201 0.09928 0.56675 0.0
H117 H 0.57067 0.16273 0.56764 0.0
C118 C 0.59821 0.23332 0.57928 0.0
C119 C 0.64867 0.29433 0.49707 0.0
C120 C 0.66937 0.32043 0.48885 0.0
C121 C 0.70122 0.31485 0.47631 0.0
C122 C 0.71015 0.28164 0.47222 0.0
C123 C 0.68872 0.25638 0.48078 0.0
N124 N 0.65853 0.26299 0.49274 0.0
H125 H 0.6239 0.29914 0.5049 0.0
H126 H 0.69567 0.23141 0.47592 0.0
C127 C 0.54767 0.19622 0.514 0.0
N128 N 0.57622 0.18311 0.50351 0.0
C129 C 0.54943 0.1316 0.49414 0.0
C130 C 0.51921 0.14439 0.50508 0.0
C131 C 0.51949 0.17718 0.51603 0.0
C132 C 0.57749 0.15151 0.49327 0.0
H133 H 0.54649 0.22177 0.52052 0.0
H134 H 0.60025 0.14173 0.48414 0.0
C135 C 0.67483 0.15252 0.49378 0.0
C136 C 0.68884 0.1406 0.62376 0.0
N137 N 0.68902 0.21519 0.55705 0.0
C138 C 0.71787 0.20683 0.54291 0.0
C139 C 0.74597 0.22502 0.5491 0.0
C140 C 0.74396 0.25203 0.56984 0.0
C141 C 0.71315 0.26349 0.57937 0.0
C142 C 0.6857 0.24416 0.57309 0.0
C143 C 0.59049 0.23024 0.43337 0.0
O144 O 0.61662 0.21097 0.59024 0.0
O145 O 0.59723 0.23974 0.54874 0.0
O146 O 0.66341 0.17966 0.48399 0.0
O147 O 0.66885 0.14226 0.52225 0.0
O148 O 0.66464 0.15912 0.62894 0.0
O149 O 0.69812 0.13744 0.59449 0.0
O150 O 0.60931 0.20668 0.44005 0.0
O151 O 0.58666 0.25125 0.45585 0.0
H152 H 0.72019 0.18404 0.53031 0.0
H153 H 0.66301 0.25036 0.58483 0.0
H154 H 0.53301 0.11595 0.5762 0.0
H155 H 0.61653 0.0522 0.57538 0.0
H156 H 0.65902 0.34463 0.49034 0.0
H157 H 0.73237 0.27407 0.4606 0.0
H158 H 0.55246 0.1069 0.48607 0.0
H159 H 0.49788 0.18857 0.52608 0.0
H160 H 0.76947 0.21581 0.54114 0.0
H161 H 0.711 0.28446 0.59537 0.0
Cd162 Cd 0.87195 0.76852 0.98794 0.0
Cd163 Cd 0.83821 0.82066 0.07374 0.0
C164 C 0.94661 0.7891 -0.00342 0.0
N165 N 0.91652 0.8031 -0.0016 0.0
C166 C 0.94059 0.8544 0.01296 0.0
C167 C 0.97147 0.83954 0.01404 0.0
C168 C 0.97456 0.80699 0.00415 0.0
C169 C 0.91313 0.83552 0.00487 0.0
H170 H 0.94894 0.76338 0.99121 0.0
H171 H 0.88909 0.84643 0.00476 0.0
C172 C 0.8166 0.83663 0.99138 0.0
C173 C 0.77689 0.77653 0.04698 0.0
C174 C 0.74807 0.75861 0.05138 0.0
C175 C 0.74136 0.74528 0.08228 0.0
C176 C 0.76484 0.74758 0.10711 0.0
C177 C 0.79337 0.7653 0.10152 0.0
N178 N 0.79831 0.78023 0.07226 0.0
H179 H 0.78096 0.78909 0.02414 0.0
H180 H 0.81062 0.76907 0.12125 0.0
C181 C 0.87478 0.8868 0.06443 0.0
N182 N 0.88269 0.85567 0.07274 0.0
C183 C 0.93317 0.87363 0.09626 0.0
C184 C 0.92472 0.90606 0.08907 0.0
C185 C 0.89586 0.91246 0.07176 0.0
C186 C 0.91144 0.84849 0.08794 0.0
H187 H 0.85055 0.89205 0.05544 0.0
H188 H 0.91623 0.82382 0.09611 0.0
C189 C 0.89272 0.75149 0.07173 0.0
C190 C 0.89589 0.75844 0.92378 0.0
N191 N 0.83968 0.72242 0.99006 0.0
C192 C 0.85564 0.69331 0.98983 0.0
C193 C 0.83988 0.66536 0.97824 0.0
C194 C 0.80772 0.66786 0.96669 0.0
C195 C 0.79095 0.69755 0.96972 0.0
C196 C 0.80767 0.7249 0.98144 0.0
C197 C 0.81056 0.85534 0.12745 0.0
O198 O 0.83282 0.81354 0.97852 0.0
O199 O 0.81746 0.8415 0.02202 0.0
O200 O 0.8761 0.77508 0.08322 0.0
O201 O 0.89298 0.74518 0.04112 0.0
O202 O 0.86723 0.76907 0.92837 0.0
O203 O 0.91057 0.74688 0.94849 0.0
O204 O 0.83183 0.83326 0.13197 0.0
O205 O 0.80156 0.86072 0.0983 0.0
H206 H 0.88144 0.69246 -0.00432 0.0
H207 H 0.7961 0.74857 0.98079 0.0
H208 H 0.93759 0.87973 0.0199 0.0
H209 H -0.0019 0.79488 0.00469 0.0
H210 H 0.73032 0.75701 0.03175 0.0
H211 H 0.76029 0.73734 0.13113 0.0
H212 H 0.9546 0.86826 0.11091 0.0
H213 H 0.888 0.93737 0.06734 0.0
H214 H 0.85334 0.64268 0.97601 0.0
H215 H 0.76611 0.70006 0.9608 0.0
Cd216 Cd 0.5007 0.12429 0.26801 0.0
Cd217 Cd 0.42658 0.15652 0.32375 0.0
C218 C 0.47483 0.05413 0.28415 0.0
N219 N 0.48358 0.08161 0.30058 0.0
C220 C 0.47667 0.05442 0.35174 0.0
C221 C 0.46574 0.02638 0.33523 0.0
C222 C 0.46601 0.02603 0.30101 0.0
C223 C 0.48622 0.08187 0.33367 0.0
H224 H 0.47556 0.05382 0.25779 0.0
H225 H 0.49538 0.10344 0.34592 0.0
C226 C 0.50597 0.17904 0.33607 0.0
C227 C 0.45357 0.21909 0.2803 0.0
C228 C 0.44714 0.24643 0.26077 0.0
C229 C 0.42019 0.24572 0.23957 0.0
C230 C 0.40336 0.21636 0.23491 0.0
C231 C 0.41062 0.1898 0.25494 0.0
N232 N 0.43377 0.19232 0.2787 0.0
H233 H 0.47235 0.22072 0.29857 0.0
H234 H 0.39546 0.16853 0.25367 0.0
C235 C 0.4427 0.11791 0.39002 0.0
N236 N 0.42617 0.11402 0.36132 0.0
C237 C 0.39499 0.07011 0.38388 0.0
C238 C 0.4106 0.07471 0.41399 0.0
C239 C 0.43564 0.09794 0.41677 0.0
C240 C 0.40302 0.09037 0.35769 0.0
H241 H 0.45978 0.13785 0.39295 0.0
H242 H 0.38875 0.08896 0.3355 0.0
C243 C 0.41767 0.10201 0.25775 0.0
C244 C 0.55968 0.08755 0.261 0.0
N245 N 0.50903 0.15634 0.223 0.0
C246 C 0.49499 0.14992 0.19353 0.0
C247 C 0.50719 0.16485 0.16533 0.0
C248 C 0.53415 0.18591 0.168 0.0
C249 C 0.54727 0.19299 0.19881 0.0
C250 C 0.53427 0.1777 0.22624 0.0
C251 C 0.37404 0.18679 0.35761 0.0
O252 O 0.51512 0.16718 0.30883 0.0
O253 O 0.47738 0.1741 0.34661 0.0
O254 O 0.41077 0.11453 0.28522 0.0
O255 O 0.44556 0.10744 0.24491 0.0
O256 O 0.55575 0.109 0.28284 0.0
O257 O 0.53674 0.08416 0.2403 0.0
O258 O 0.36884 0.16976 0.33226 0.0
O259 O 0.40353 0.19147 0.36576 0.0
H260 H 0.47558 0.13203 0.1917 0.0
H261 H 0.54542 0.18142 0.24996 0.0
H262 H 0.4776 0.05505 0.37818 0.0
H263 H 0.45864 0.00446 0.2875 0.0
H264 H 0.46076 0.26884 0.26464 0.0
H265 H 0.38257 0.21507 0.21848 0.0
H266 H 0.37494 0.05292 0.38146 0.0
H267 H 0.4474 0.10249 0.4401 0.0
H268 H 0.49654 0.15931 0.1417 0.0
H269 H 0.56797 0.20937 0.2014 0.0
Cd270 Cd 0.07021 0.83288 0.81893 0.0
Cd271 Cd 0.98809 0.8769 0.77259 0.0
C272 C 0.06256 0.87862 0.88033 0.0
N273 N 0.07797 0.87823 0.85103 0.0
C274 C 0.11906 0.91486 0.87062 0.0
C275 C 0.10429 0.91457 0.90147 0.0
C276 C 0.07514 0.89706 0.90597 0.0
C277 C 0.10556 0.896 0.84563 0.0
H278 H 0.04312 0.86158 0.88498 0.0
H279 H 0.11914 0.89263 0.82325 0.0
C280 C 0.06929 0.89115 0.75201 0.0
C281 C 0.96936 0.85377 0.70236 0.0
C282 C 0.95584 0.83459 0.6777 0.0
C283 C 0.95467 0.80055 0.68143 0.0
C284 C 0.96939 0.78627 0.70908 0.0
C285 C 0.98243 0.80657 0.73353 0.0
N286 N 0.98138 0.83968 0.72996 0.0
H287 H 0.96842 0.88013 0.70047 0.0
H288 H 0.99163 0.79603 0.756 0.0
C289 C 0.02416 0.93818 0.80582 0.0
N290 N 0.00615 0.91178 0.81492 0.0
C291 C -0.00419 0.93644 0.86716 0.0
C292 C 0.01514 0.96353 0.85844 0.0
C293 C 0.03016 0.96357 0.82764 0.0
C294 C 0.992 0.91047 0.84502 0.0
H295 H 0.03209 0.94088 0.78087 0.0
H296 H 0.97453 0.89142 0.85018 0.0
C297 C 0.98818 0.81547 0.83484 0.0
C298 C 0.12312 0.80374 0.85363 0.0
N299 N 0.06625 0.79378 0.77874 0.0
C300 C 0.05567 0.76378 0.78847 0.0
C301 C 0.06448 0.73612 0.77075 0.0
C302 C 0.0848 0.73987 0.74344 0.0
C303 C 0.0921 0.77124 0.73183 0.0
C304 C 0.08264 0.79821 0.75018 0.0
C305 C 0.92899 0.91294 0.76438 0.0
O306 O 0.07965 0.87318 0.77522 0.0
O307 O 0.03898 0.89356 0.74533 0.0
O308 O 0.97722 0.83504 0.81342 0.0
O309 O 0.0185 0.81327 0.84088 0.0
O310 O 0.12732 0.81588 0.82536 0.0
O311 O 0.09431 0.80366 0.86489 0.0
O312 O 0.9304 0.88558 0.77872 0.0
O313 O 0.95517 0.92328 0.75134 0.0
H314 H 0.04357 0.76094 0.81178 0.0
H315 H 0.09157 0.82212 0.74344 0.0
H316 H 0.1423 0.92702 0.86682 0.0
H317 H 0.06412 0.89515 0.92996 0.0
H318 H 0.94499 0.8463 0.65651 0.0
H319 H 0.96915 0.76001 0.71247 0.0
H320 H 0.98215 0.93626 0.88982 0.0
H321 H 0.04446 0.98438 0.81952 0.0
H322 H 0.05869 0.71205 0.78023 0.0
H323 H 0.10783 0.77466 0.7108 0.0
Cd324 Cd 0.91632 0.31906 0.66839 0.0
Cd325 Cd -0.00218 0.37329 0.72003 0.0
C326 C 0.9309 0.35352 0.59791 0.0
N327 N 0.91418 0.35717 0.62644 0.0
C328 C 0.88143 0.39951 0.60327 0.0
C329 C 0.89724 0.39534 0.5732 0.0
C330 C 0.92262 0.37246 0.57063 0.0
C331 C 0.88971 0.37934 0.62941 0.0
H332 H 0.94914 0.33458 0.59565 0.0
H333 H 0.87528 0.37982 0.65147 0.0
C334 C 0.91551 0.38337 0.73229 0.0
C335 C 0.99281 0.34341 0.79409 0.0
C336 C 0.00397 0.32477 0.82058 0.0
C337 C 0.02889 0.30178 0.8155 0.0
C338 C 0.04037 0.29627 0.78375 0.0
C339 C 0.02836 0.31513 0.75808 0.0
N340 N 0.00572 0.33865 0.76384 0.0
H341 H 0.97511 0.36264 0.79793 0.0
H342 H 0.03825 0.31223 0.73374 0.0
C343 C 0.97778 0.44732 0.70109 0.0
N344 N 0.97562 0.41606 0.6899 0.0
C345 C 0.95169 0.43438 0.63995 0.0
C346 C 0.95281 0.4667 0.6511 0.0
C347 C 0.96703 0.47328 0.68165 0.0
C348 C 0.9635 0.40931 0.65982 0.0
H349 H 0.98805 0.45213 0.72497 0.0
H350 H 0.96322 0.38442 0.65149 0.0
C351 C 0.99532 0.31129 0.65503 0.0
C352 C 0.8601 0.28982 0.64046 0.0
N353 N 0.92362 0.28554 0.71326 0.0
C354 C 0.95198 0.26978 0.7207 0.0
C355 C 0.95163 0.24314 0.74218 0.0
C356 C 0.92162 0.2328 0.75512 0.0
C357 C 0.89357 0.25166 0.74967 0.0
C358 C 0.89513 0.27815 0.72849 0.0
C359 C 0.05741 0.407 0.71704 0.0
O360 O 0.90914 0.36242 0.71011 0.0
O361 O 0.94465 0.38913 0.74168 0.0
O362 O -0.0031 0.33271 0.67729 0.0
O363 O 0.96774 0.30027 0.64632 0.0
O364 O 0.85782 0.31363 0.66008 0.0
O365 O 0.8882 0.27757 0.6361 0.0
O366 O 0.05196 0.38202 0.69952 0.0
O367 O 0.03672 0.41392 0.73909 0.0
H368 H 0.97432 0.27642 0.70854 0.0
H369 H 0.8731 0.29133 0.72221 0.0
H370 H 0.86116 0.41636 0.60565 0.0
H371 H 0.93467 0.36824 0.54746 0.0
H372 H 0.99456 0.32929 0.84489 0.0
H373 H 0.05944 0.27851 0.77914 0.0
H374 H 0.94192 0.42879 0.61607 0.0
H375 H 0.96869 0.49809 0.69073 0.0
H376 H 0.9738 0.22933 0.74654 0.0
H377 H 0.87017 0.24451 0.75985 0.0
Cd378 Cd 0.48 0.62289 0.21805 0.0
Cd379 Cd 0.57031 0.65921 0.16878 0.0
C380 C 0.49218 0.54936 0.19648 0.0
N381 N 0.4955 0.58002 0.18391 0.0
C382 C 0.51888 0.55836 0.13511 0.0
C383 C 0.51872 0.52704 0.14913 0.0
C384 C 0.50398 0.52239 0.17954 0.0
C385 C 0.50724 0.58487 0.15322 0.0
H386 H 0.4827 0.54585 0.22083 0.0
H387 H 0.50842 0.60932 0.14327 0.0
C388 C 0.48733 0.67984 0.15173 0.0
C389 C 0.54195 0.71778 0.21532 0.0
C390 C 0.54593 0.74593 0.23429 0.0
C391 C 0.57687 0.75283 0.24748 0.0
C392 C 0.60183 0.72965 0.24491 0.0
C393 C 0.59659 0.70166 0.22644 0.0
N394 N 0.56762 0.69711 0.2108 0.0
H395 H 0.51921 0.71379 0.2025 0.0
H396 H 0.61644 0.6847 0.22263 0.0
C397 C 0.56676 0.62612 0.09949 0.0
N398 N 0.57547 0.61746 0.1304 0.0
C399 C 0.60151 0.56911 0.11047 0.0
C400 C 0.59272 0.57771 0.07836 0.0
C401 C 0.57451 0.60617 0.07303 0.0
C402 C 0.59268 0.58964 0.1364 0.0
H403 H 0.55606 0.64978 0.09516 0.0
H404 H 0.60111 0.58437 0.16092 0.0
C405 C 0.56329 0.60225 0.2362 0.0
C406 C 0.4164 0.59539 0.22435 0.0
N407 N 0.48272 0.65626 0.26363 0.0
C408 C 0.48688 0.64229 0.29355 0.0
C409 C 0.47803 0.65935 0.32171 0.0
C410 C 0.46436 0.6906 0.31855 0.0
C411 C 0.46293 0.70544 0.2877 0.0
C412 C 0.47235 0.68761 0.26029 0.0
C413 C 0.62475 0.69026 0.13803 0.0
O414 O 0.47294 0.66294 0.17349 0.0
O415 O 0.51821 0.67913 0.14864 0.0
O416 O 0.57577 0.61942 0.2134 0.0
O417 O 0.53256 0.60198 0.24172 0.0
O418 O 0.4206 0.62334 0.2117 0.0
O419 O 0.4406 0.58306 0.23926 0.0
O420 O 0.62858 0.67127 0.16231 0.0
O421 O 0.59565 0.69581 0.12889 0.0
H422 H 0.49436 0.617 0.29537 0.0
H423 H 0.46878 0.69771 0.23623 0.0
H424 H 0.52905 0.56245 0.11111 0.0
H425 H 0.50318 0.4984 0.19081 0.0
H426 H 0.52614 0.76337 0.23629 0.0
H427 H 0.6258 0.7342 0.25533 0.0
H428 H 0.61655 0.54784 0.11513 0.0
H429 H 0.56853 0.61409 0.04843 0.0
H430 H 0.47911 0.64731 0.3453 0.0
H431 H 0.45229 0.72949 0.28464 0.0
Cd432 Cd 0.26604 0.49375 0.11669 0.0
Cd433 Cd 0.32075 0.41603 0.16634 0.0
C434 C 0.27041 0.46531 0.04341 0.0
N435 N 0.28901 0.47193 0.07025 0.0
C436 C 0.33795 0.4683 0.03913 0.0
C437 C 0.31947 0.46147 0.01102 0.0
C438 C 0.28534 0.45912 0.01345 0.0
C439 C 0.32211 0.47272 0.0688 0.0
H440 H 0.24403 0.46595 0.04505 0.0
H441 H 0.33593 0.479 0.09021 0.0
C442 C 0.33097 0.49349 0.17959 0.0
C443 C 0.29163 0.42473 0.23492 0.0
C444 C 0.26945 0.42524 0.26047 0.0
C445 C 0.23632 0.43238 0.25432 0.0
C446 C 0.22738 0.44234 0.22254 0.0
C447 C 0.25043 0.44044 0.19729 0.0
N448 N 0.28148 0.43061 0.20395 0.0
H449 H 0.31664 0.41745 0.23938 0.0
H450 H 0.2432 0.44528 0.17235 0.0
C451 C 0.38371 0.44113 0.12676 0.0
N452 N 0.35628 0.42267 0.1228 0.0
C453 C 0.38063 0.39408 0.07831 0.0
C454 C 0.40937 0.41238 0.08221 0.0
C455 C 0.4105 0.43679 0.10615 0.0
C456 C 0.35399 0.39996 0.09869 0.0
H457 H 0.3861 0.45705 0.14763 0.0
H458 H 0.3328 0.38415 0.09745 0.0
C459 C 0.25226 0.40919 0.10865 0.0
C460 C 0.27039 0.55476 0.08399 0.0
N461 N 0.2233 0.50539 0.15058 0.0
C462 C 0.19281 0.49232 0.14808 0.0
C463 C 0.1674 0.50499 0.16697 0.0
C464 C 0.17384 0.53146 0.18782 0.0
C465 C 0.20582 0.54331 0.19093 0.0
C466 C 0.23039 0.52976 0.17192 0.0
C467 C 0.3517 0.36006 0.19391 0.0
O468 O 0.30868 0.49364 0.15799 0.0
O469 O 0.34181 0.46641 0.18976 0.0
O470 O 0.27659 0.40278 0.12702 0.0
O471 O 0.24403 0.43886 0.10395 0.0
O472 O 0.29251 0.54411 0.10304 0.0
O473 O 0.24463 0.53753 0.08087 0.0
O474 O 0.32476 0.35745 0.17878 0.0
O475 O 0.36337 0.38847 0.19743 0.0
H476 H 0.18804 0.47305 0.13066 0.0
H477 H 0.25496 0.53958 0.17302 0.0
H478 H 0.36429 0.4704 0.03804 0.0
H479 H 0.27047 0.4534 0.99226 0.0
H480 H 0.27788 0.41762 0.28443 0.0
H481 H 0.20289 0.45032 0.2168 0.0
H482 H 0.37981 0.37363 0.06154 0.0
H483 H 0.43292 0.44997 0.11106 0.0
H484 H 0.14284 0.49537 0.16433 0.0
H485 H 0.2114 0.56366 0.20694 0.0
Cd486 Cd 0.81836 0.07224 0.83409 0.0
Cd487 Cd 0.76182 0.99056 0.87555 0.0
C488 C 0.88988 0.06595 0.86607 0.0
N489 N 0.85853 0.07343 0.8744 0.0
C490 C 0.87664 0.09655 0.92474 0.0
C491 C 0.90932 0.08997 0.91667 0.0
C492 C 0.91586 0.0746 0.8867 0.0
C493 C 0.8516 0.08887 0.90287 0.0
H494 H 0.89488 0.05492 0.84258 0.0
H495 H 0.82677 0.09619 0.90807 0.0
C496 C 0.74895 0.07534 0.88953 0.0
C497 C 0.68947 0.98811 0.84784 0.0
C498 C 0.66405 0.98046 0.82642 0.0
C499 C 0.67005 0.97642 0.79259 0.0
C500 C 0.70224 0.98265 0.78161 0.0
C501 C 0.7271 0.98974 0.80408 0.0
N502 N 0.72042 0.99129 0.83655 0.0
H503 H 0.68492 0.98929 0.87387 0.0
H504 H 0.752 0.99246 0.79568 0.0
C505 C 0.78677 0.00747 0.94546 0.0
N506 N 0.79968 0.00675 0.91491 0.0
C507 C 0.853 0.01786 0.93635 0.0
C508 C 0.83979 0.02031 0.96787 0.0
C509 C 0.80643 0.01424 0.97245 0.0
C510 C 0.83225 0.01109 0.9099 0.0
H511 H 0.7608 0.00401 0.94867 0.0
H512 H 0.84199 0.00996 0.88546 0.0
C513 C 0.82501 0.98804 0.8171 0.0
C514 C 0.85498 0.12338 0.80495 0.0
N515 N 0.78228 0.06627 0.79097 0.0
C516 C 0.79377 0.05404 0.76231 0.0
C517 C 0.7758 0.05801 0.73358 0.0
C518 C 0.74643 0.07557 0.73465 0.0
C519 C 0.73376 0.0853 0.76488 0.0
C520 C 0.75242 0.08057 0.79301 0.0
C521 C 0.75249 0.93083 0.91086 0.0
O522 O 0.7731 0.08466 0.87219 0.0
O523 O 0.7413 0.04522 0.8926 0.0
O524 O 0.80201 0.97695 0.83457 0.0
O525 O 0.83309 0.01793 0.81748 0.0
O526 O 0.82934 0.12972 0.82124 0.0
O527 O 0.86185 0.09358 0.80044 0.0
O528 O 0.77247 0.93371 0.88749 0.0
O529 O 0.73357 0.95491 0.9159 0.0
H530 H 0.81806 0.04373 0.76119 0.0
H531 H 0.74449 0.09098 0.81582 0.0
H532 H 0.87091 0.10956 0.94693 0.0
H533 H 0.94076 0.06983 0.87914 0.0
H534 H 0.64031 0.97558 0.837 0.0
H535 H 0.70929 0.98145 0.75642 0.0
H536 H 0.87873 0.02239 0.93213 0.0
H537 H 0.79547 0.01621 -0.00353 0.0
H538 H 0.78623 0.05055 0.71043 0.0
H539 H 0.71122 0.09912 0.76627 0.0
Cd540 Cd 0.72206 0.00013 0.37321 0.0
Cd541 Cd 0.6726 0.91988 0.32849 0.0
C542 C 0.71325 0.97557 0.44708 0.0
N543 N 0.69478 0.98137 0.41995 0.0
C544 C 0.64569 0.97248 0.45045 0.0
C545 C 0.66431 0.96479 0.47832 0.0
C546 C 0.69847 0.96662 0.47652 0.0
C547 C 0.66155 0.9805 0.42119 0.0
H548 H 0.73959 0.97775 0.44578 0.0
H549 H 0.64741 0.98651 0.39962 0.0
C550 C 0.65767 0.00352 0.31414 0.0
C551 C 0.70108 0.94103 0.25962 0.0
C552 C 0.72093 0.93727 0.2322 0.0
C553 C 0.75192 0.92323 0.23605 0.0
C554 C 0.76408 0.91735 0.26756 0.0
C555 C 0.74344 0.92159 0.2943 0.0
N556 N 0.71211 0.93162 0.28959 0.0
H557 H 0.6758 0.94811 0.25648 0.0
H558 H 0.75134 0.91351 0.31812 0.0
C559 C 0.60353 0.93082 0.3607 0.0
N560 N 0.63326 0.91839 0.36877 0.0
C561 C 0.6096 0.88732 0.41212 0.0
C562 C 0.57897 0.90078 0.40501 0.0
C563 C 0.57601 0.92318 0.37928 0.0
C564 C 0.63678 0.89684 0.39384 0.0
H565 H 0.60064 0.94395 0.33803 0.0
H566 H 0.65991 0.88471 0.39762 0.0
C567 C 0.73803 0.91575 0.3861 0.0
C568 C 0.7278 0.05917 0.40755 0.0
N569 N 0.76806 0.00788 0.34121 0.0
C570 C 0.79839 0.00542 0.35473 0.0
C571 C 0.82537 0.01911 0.33878 0.0
C572 C 0.82063 0.03574 0.30909 0.0
C573 C 0.78942 0.0361 0.29486 0.0
C574 C 0.7633 0.02187 0.31148 0.0
C575 C 0.64023 0.86704 0.29705 0.0
O576 O 0.67998 0.01485 0.33251 0.0
O577 O 0.65235 0.97304 0.31226 0.0
O578 O 0.71472 0.9047 0.36868 0.0
O579 O 0.74396 0.94619 0.3883 0.0
O580 O 0.70238 0.05085 0.3919 0.0
O581 O 0.75236 0.04034 0.4059 0.0
O582 O 0.66562 0.86227 0.31425 0.0
O583 O 0.63133 0.89634 0.2927 0.0
H584 H 0.80126 0.9947 0.37877 0.0
H585 H 0.73892 0.02376 0.30172 0.0
H586 H 0.61929 0.97194 0.45124 0.0
H587 H 0.7135 0.96098 0.49763 0.0
H588 H 0.71084 0.94156 0.20805 0.0
H589 H 0.78781 0.90614 0.27108 0.0
H590 H 0.612 0.8682 0.43027 0.0
H591 H 0.55227 0.93218 0.37181 0.0
H592 H 0.84931 0.01815 0.35012 0.0
H593 H 0.78512 0.04839 0.27175 0.0
Cd594 Cd 0.2177 0.49297 0.61205 0.0
Cd595 Cd 0.18488 0.57543 0.66349 0.0
C596 C 0.18853 0.53039 0.54914 0.0
N597 N 0.17966 0.50816 0.57217 0.0
C598 C 0.13015 0.49661 0.54286 0.0
C599 C 0.13763 0.52162 0.52048 0.0
C600 C 0.16742 0.5383 0.52375 0.0
C601 C 0.15134 0.4908 0.56921 0.0
H602 H 0.21176 0.5425 0.55047 0.0
H603 H 0.14576 0.47173 0.58671 0.0
C604 C 0.15512 0.49678 0.67179 0.0
C605 C 0.20788 0.54878 0.73038 0.0
C606 C 0.22662 0.55192 0.75855 0.0
C607 C 0.25937 0.56133 0.75563 0.0
C608 C 0.27424 0.56148 0.72473 0.0
C609 C 0.25449 0.5579 0.69704 0.0
N610 N 0.22165 0.55419 0.70066 0.0
H611 H 0.18163 0.54661 0.73255 0.0
H612 H 0.26469 0.56205 0.67308 0.0
C613 C 0.11398 0.58153 0.63962 0.0
N614 N 0.14362 0.57731 0.62545 0.0
C615 C 0.1214 0.58967 0.57283 0.0
C616 C 0.09094 0.59632 0.58722 0.0
C617 C 0.08764 0.59232 0.62119 0.0
C618 C 0.14808 0.58204 0.5929 0.0
H619 H 0.11137 0.57879 0.66576 0.0
H620 H 0.17246 0.58174 0.58297 0.0
C621 C 0.24641 0.57417 0.60315 0.0
C622 C 0.23091 0.43617 0.57568 0.0
N623 N 0.25664 0.48801 0.65224 0.0
C624 C 0.2878 0.49568 0.64358 0.0
C625 C 0.31391 0.48471 0.66244 0.0
C626 C 0.30759 0.46537 0.68994 0.0
C627 C 0.27523 0.45986 0.69981 0.0
C628 C 0.24979 0.47139 0.68022 0.0
C629 C 0.16142 0.63227 0.69563 0.0
O630 O 0.17419 0.4845 0.65081 0.0
O631 O 0.15498 0.527 0.67816 0.0
O632 O 0.22667 0.58736 0.62306 0.0
O633 O 0.24591 0.54359 0.59852 0.0
O634 O 0.2099 0.43648 0.59836 0.0
O635 O 0.24866 0.46137 0.57235 0.0
O636 O 0.18295 0.6345 0.67351 0.0
O637 O 0.15324 0.60391 0.70478 0.0
H638 H 0.29252 0.50792 0.62062 0.0
H639 H 0.22485 0.46475 0.68587 0.0
H640 H 0.10824 0.48195 0.54008 0.0
H641 H 0.17457 0.55705 0.50641 0.0
H642 H 0.21463 0.55176 0.78217 0.0
H643 H 0.29957 0.56874 0.72194 0.0
H644 H 0.12498 0.59261 0.54675 0.0
H645 H 0.0649 0.59783 0.63353 0.0
H646 H 0.33874 0.48891 0.65419 0.0
H647 H 0.26985 0.44463 0.72083 0.0
Cd648 Cd 0.82382 0.6678 0.57171 0.0
Cd649 Cd 0.87388 0.71886 0.49474 0.0
C650 C 0.86211 0.60479 0.54317 0.0
N651 N 0.8654 0.6313 0.56309 0.0
C652 C 0.90059 0.60197 0.59885 0.0
C653 C 0.89721 0.57407 0.57936 0.0
C654 C 0.87852 0.57573 0.55063 0.0
C655 C 0.88507 0.63074 0.58979 0.0
H656 H 0.84469 0.60505 0.52331 0.0
H657 H 0.88538 0.6514 0.60626 0.0
C658 C 0.88022 0.73702 0.57832 0.0
C659 C 0.85096 0.79529 0.49349 0.0
C660 C 0.83374 0.82215 0.48112 0.0
C661 C 0.80783 0.81686 0.45916 0.0
C662 C 0.7986 0.78481 0.45142 0.0
C663 C 0.81622 0.75879 0.46453 0.0
N664 N 0.84218 0.76448 0.48455 0.0
H665 H 0.87211 0.79905 0.50896 0.0
H666 H 0.81025 0.73399 0.45752 0.0
C667 C 0.94471 0.7053 0.52551 0.0
N668 N 0.91834 0.68827 0.51441 0.0
C669 C 0.94807 0.63809 0.51869 0.0
C670 C 0.97526 0.65509 0.53103 0.0
C671 C 0.97329 0.68909 0.53463 0.0
C672 C 0.91959 0.65526 0.51078 0.0
H673 H 0.94382 0.73161 0.5265 0.0
H674 H 0.89887 0.64235 0.50088 0.0
C675 C 0.80841 0.65702 0.4946 0.0
C676 C 0.79859 0.63323 0.62687 0.0
N677 N 0.78345 0.70552 0.56113 0.0
C678 C 0.75338 0.69259 0.56655 0.0
C679 C 0.72699 0.71295 0.57249 0.0
C680 C 0.73179 0.7468 0.57262 0.0
C681 C 0.76204 0.75972 0.56261 0.0
C682 C 0.78815 0.73826 0.55741 0.0
C683 C 0.90578 0.71917 0.43385 0.0
O684 O 0.86268 0.7127 0.58719 0.0
O685 O 0.8843 0.74318 0.54817 0.0
O686 O 0.83098 0.6782 0.4933 0.0
O687 O 0.79839 0.64769 0.52226 0.0
O688 O 0.81247 0.66074 0.63036 0.0
O689 O 0.79554 0.62253 0.59807 0.0
O690 O 0.87894 0.70436 0.43861 0.0
O691 O 0.91686 0.73672 0.45698 0.0
H692 H 0.75062 0.66645 0.56921 0.0
H693 H 0.81246 0.74781 0.55328 0.0
H694 H 0.91379 0.60098 0.62184 0.0
H695 H 0.87449 0.55416 0.53582 0.0
H696 H 0.84134 0.84672 0.48742 0.0
H697 H 0.7787 0.78008 0.43453 0.0
H698 H 0.94883 0.61185 0.51541 0.0
H699 H 0.9938 0.703 0.54409 0.0
H700 H 0.7038 0.70238 0.5798 0.0
H701 H 0.76624 0.78588 0.56236 0.0
Cd702 Cd 0.61324 0.27613 0.98425 0.0
Cd703 Cd 0.66105 0.32003 0.06775 0.0
C704 C 0.54464 0.29903 0.01042 0.0
N705 N 0.57403 0.31282 0.00322 0.0
C706 C 0.55263 0.36616 0.01364 0.0
C707 C 0.52231 0.35236 0.02246 0.0
C708 C 0.51843 0.31837 0.02019 0.0
C709 C 0.57835 0.34577 0.00402 0.0
H710 H 0.5416 0.27281 0.00876 0.0
H711 H 0.60165 0.35622 -0.00291 0.0
C712 C 0.67513 0.33731 0.98321 0.0
C713 C 0.72184 0.2787 0.03574 0.0
C714 C 0.74707 0.25577 0.03437 0.0
C715 C 0.75243 0.23423 0.06075 0.0
C716 C 0.72956 0.23485 0.08656 0.0
C717 C 0.70357 0.25696 0.08604 0.0
N718 N 0.70071 0.27899 0.06134 0.0
H719 H 0.71958 0.2964 0.01633 0.0
H720 H 0.68653 0.25763 0.10623 0.0
C721 C 0.62798 0.39056 0.06267 0.0
N722 N 0.62073 0.36041 0.07467 0.0
C723 C 0.57822 0.38324 0.10775 0.0
C724 C 0.58485 0.41438 0.09501 0.0
C725 C 0.60986 0.41792 0.07196 0.0
C726 C 0.5966 0.35637 0.09717 0.0
H727 H 0.64966 0.39377 0.04827 0.0
H728 H 0.59345 0.33293 0.10891 0.0
C729 C 0.60282 0.25371 0.0659 0.0
C730 C 0.57952 0.26168 0.92496 0.0
N731 N 0.64787 0.2315 0.98298 0.0
C732 C 0.63308 0.20182 0.98067 0.0
C733 C 0.6505 0.17493 0.96921 0.0
C734 C 0.68313 0.17902 0.95961 0.0
C735 C 0.69845 0.20936 0.96435 0.0
C736 C 0.68018 0.23546 0.97643 0.0
C737 C 0.69112 0.34901 0.12292 0.0
O738 O 0.65468 0.31741 0.97096 0.0
O739 O 0.67819 0.34023 0.01403 0.0
O740 O 0.62134 0.27611 0.07704 0.0
O741 O 0.59828 0.24967 0.03546 0.0
O742 O 0.60511 0.2791 0.92622 0.0
O743 O 0.56984 0.25014 0.95202 0.0
O744 O 0.67482 0.32273 0.12554 0.0
O745 O 0.69519 0.36056 0.09444 0.0
H746 H 0.60714 0.19963 0.98536 0.0
H747 H 0.69109 0.25931 0.97839 0.0
H748 H 0.55662 0.39223 0.01418 0.0
H749 H 0.49552 0.30681 0.02687 0.0
H750 H 0.76163 0.25556 0.01259 0.0
H751 H 0.73233 0.21921 0.10778 0.0
H752 H 0.56006 0.38003 0.12673 0.0
H753 H 0.61656 0.44187 0.0628 0.0
H754 H 0.63811 0.15175 0.9658 0.0
H755 H 0.7237 0.21315 0.95728 0.0
Cd756 Cd 0.33379 0.8216 0.42251 0.0
Cd757 Cd 0.37551 0.7677 0.50513 0.0
C758 C 0.36828 0.89128 0.43278 0.0
N759 N 0.37386 0.8611 0.42007 0.0
C760 C 0.41828 0.88127 0.38811 0.0
C761 C 0.41205 0.91281 0.39969 0.0
C762 C 0.38743 0.91774 0.42293 0.0
C763 C 0.39849 0.85553 0.39853 0.0
H764 H 0.34756 0.8953 0.44862 0.0
H765 H 0.40128 0.83157 0.38777 0.0
C766 C 0.39174 0.75277 0.42279 0.0
C767 C 0.35202 0.69522 0.49692 0.0
C768 C 0.33417 0.66803 0.50689 0.0
C769 C 0.30315 0.6726 0.52058 0.0
C770 C 0.28881 0.70372 0.51998 0.0
C771 C 0.30766 0.73033 0.50989 0.0
N772 N 0.33906 0.72555 0.50021 0.0
H773 H 0.3774 0.69246 0.49009 0.0
H774 H 0.2985 0.75492 0.513 0.0
C775 C 0.45065 0.7909 0.49637 0.0
N776 N 0.41936 0.8012 0.49153 0.0
C777 C 0.43826 0.85204 0.4701 0.0
C778 C 0.47044 0.84072 0.47189 0.0
C779 C 0.47682 0.81028 0.48616 0.0
C780 C 0.41284 0.83132 0.47945 0.0
H781 H 0.45539 0.76679 0.50604 0.0
H782 H 0.38782 0.83856 0.4762 0.0
C783 C 0.32036 0.83741 0.503 0.0
C784 C 0.3065 0.85016 0.36519 0.0
N785 N 0.29099 0.78658 0.43387 0.0
C786 C 0.26106 0.80095 0.43408 0.0
C787 C 0.23322 0.78237 0.42794 0.0
C788 C 0.2367 0.74902 0.42126 0.0
C789 C 0.26724 0.73406 0.42542 0.0
C790 C 0.29443 0.75364 0.43214 0.0
C791 C 0.39987 0.76007 0.56931 0.0
O792 O 0.37321 0.77623 0.41398 0.0
O793 O 0.39519 0.745 0.4528 0.0
O794 O 0.33871 0.81373 0.51078 0.0
O795 O 0.31627 0.84566 0.47344 0.0
O796 O 0.32784 0.82778 0.36334 0.0
O797 O 0.29664 0.85776 0.39346 0.0
O798 O 0.3715 0.77136 0.56426 0.0
O799 O 0.41391 0.74645 0.54534 0.0
H800 H 0.25911 0.82724 0.43584 0.0
H801 H 0.31843 0.743 0.43346 0.0
H802 H 0.43657 0.87713 0.36945 0.0
H803 H 0.38168 0.94209 0.43154 0.0
H804 H 0.34578 0.64424 0.50733 0.0
H805 H 0.26495 0.70781 0.53067 0.0
H806 H 0.43292 0.87575 0.45975 0.0
H807 H 0.50155 0.80096 0.48779 0.0
H808 H 0.20981 0.79441 0.42499 0.0
H809 H 0.27043 0.70821 0.42072 0.0
Cd810 Cd 0.12016 0.21606 -0.00299 0.0
Cd811 Cd 0.15867 0.16225 0.91531 0.0
C812 C 0.04882 0.19414 0.97708 0.0
N813 N 0.07665 0.18021 0.98839 0.0
C814 C 0.049 0.12887 0.99508 0.0
C815 C 0.01919 0.14266 0.98398 0.0
C816 C 0.02048 0.17571 0.97358 0.0
C817 C 0.07726 0.14826 -0.00242 0.0
H818 H 0.04854 0.21979 0.97069 0.0
H819 H 0.09973 0.13771 0.00668 0.0
C820 C 0.17813 0.14867 -0.0045 0.0
C821 C 0.21609 0.21089 0.94405 0.0
C822 C 0.24458 0.22923 0.93905 0.0
C823 C 0.25142 0.24084 0.90746 0.0
C824 C 0.22801 0.23726 0.88273 0.0
C825 C 0.1999 0.21923 0.88887 0.0
N826 N 0.19523 0.20532 0.91863 0.0
H827 H 0.21214 0.19915 0.96735 0.0
H828 H 0.18316 0.21383 0.86908 0.0
C829 C 0.12373 0.09665 0.90863 0.0
N830 N 0.11468 0.12693 0.91841 0.0
C831 C 0.05824 0.11144 0.91693 0.0
C832 C 0.06727 0.08014 0.90645 0.0
C833 C 0.10028 0.07332 0.90123 0.0
C834 C 0.08265 0.13502 0.92186 0.0
H835 H 0.14921 0.0913 0.90482 0.0
H836 H 0.07605 0.15982 0.92743 0.0
C837 C 0.10341 0.22964 0.91229 0.0
C838 C 0.08928 0.22778 0.05857 0.0
N839 N 0.15866 0.25815 0.00208 0.0
C840 C 0.15004 0.28936 0.99508 0.0
C841 C 0.16989 0.31547 0.00494 0.0
C842 C 0.19981 0.30997 0.02178 0.0
C843 C 0.20724 0.27683 0.02888 0.0
C844 C 0.18671 0.25152 0.0185 0.0
C845 C 0.18553 0.12967 0.85975 0.0
O846 O 0.16103 0.17306 0.00401 0.0
O847 O 0.17763 0.13873 0.96615 0.0
O848 O 0.12164 0.20674 0.90216 0.0
O849 O 0.10103 0.23613 0.94269 0.0
O850 O 0.11092 0.20619 0.05382 0.0
O851 O 0.08268 0.24573 0.03407 0.0
O852 O 0.15844 0.14456 0.85874 0.0
O853 O 0.2014 0.1312 0.88635 0.0
H854 H 0.12655 0.29414 0.98385 0.0
H855 H 0.19211 0.22662 0.02558 0.0
H856 H 0.0518 0.10356 0.00128 0.0
H857 H -0.00021 0.1878 0.9624 0.0
H858 H 0.26218 0.23209 0.95869 0.0
H859 H 0.23256 0.24637 0.85825 0.0
H860 H 0.03275 0.11775 0.91998 0.0
H861 H 0.10767 0.05048 0.89053 0.0
H862 H 0.15981 0.33945 0.00116 0.0
H863 H 0.22729 0.26974 0.04445 0.0
Cd864 Cd 0.57181 0.83037 0.6797 0.0
Cd865 Cd 0.49157 0.8791 0.72349 0.0
C866 C 0.56311 0.87536 0.61676 0.0
N867 N 0.57853 0.87525 0.64616 0.0
C868 C 0.6186 0.91316 0.62683 0.0
C869 C 0.60369 0.91306 0.59588 0.0
C870 C 0.57493 0.89476 0.59135 0.0
C871 C 0.60528 0.89423 0.65193 0.0
H872 H 0.5438 0.85802 0.61205 0.0
H873 H 0.61808 0.89228 0.67501 0.0
C874 C 0.57196 0.8877 0.74802 0.0
C875 C 0.50362 0.83365 0.78904 0.0
C876 C 0.49489 0.81144 0.81368 0.0
C877 C 0.46712 0.79095 0.81008 0.0
C878 C 0.44909 0.79464 0.78065 0.0
C879 C 0.45875 0.817 0.75673 0.0
N880 N 0.48536 0.83625 0.76138 0.0
H881 H 0.52406 0.84995 0.79294 0.0
H882 H 0.4438 0.82034 0.73513 0.0
C883 C 0.54002 0.93054 0.68357 0.0
N884 N 0.51282 0.91161 0.67975 0.0
C885 C 0.49871 0.94141 0.63101 0.0
C886 C 0.52599 0.96183 0.63543 0.0
C887 C 0.54755 0.95507 0.66116 0.0
C888 C 0.49267 0.91619 0.65355 0.0
H889 H 0.55502 0.92864 0.70491 0.0
H890 H 0.47023 0.90227 0.6518 0.0
C891 C 0.48907 0.81726 0.66205 0.0
C892 C 0.62518 0.80141 0.64554 0.0
N893 N 0.57104 0.79419 0.72262 0.0
C894 C 0.54416 0.7761 0.73025 0.0
C895 C 0.5476 0.74737 0.74852 0.0
C896 C 0.57903 0.73784 0.75846 0.0
C897 C 0.60567 0.75854 0.75274 0.0
C898 C 0.6011 0.7868 0.73452 0.0
C899 C 0.43434 0.91816 0.73316 0.0
O900 O 0.57994 0.86875 0.72478 0.0
O901 O 0.54189 0.89417 0.75247 0.0
O902 O 0.47875 0.83822 0.68232 0.0
O903 O 0.51936 0.81256 0.65749 0.0
O904 O 0.62938 0.82434 0.66591 0.0
O905 O 0.59638 0.79022 0.64262 0.0
O906 O 0.43492 0.89367 0.71439 0.0
O907 O 0.45986 0.92337 0.75009 0.0
H908 H 0.52067 0.78264 0.72016 0.0
H909 H 0.62195 0.80142 0.72752 0.0
H910 H 0.64137 0.9261 0.63094 0.0
H911 H 0.56357 0.89312 0.56746 0.0
H912 H 0.50949 0.81232 0.83545 0.0
H913 H 0.42628 0.78195 0.77645 0.0
H914 H 0.48113 0.94633 0.61178 0.0
H915 H 0.56864 0.97056 0.66554 0.0
H916 H 0.52664 0.7317 0.7527 0.0
H917 H 0.63016 0.75161 0.76017 0.0
Cd918 Cd 0.00196 0.1238 0.2207 0.0
Cd919 Cd 0.91739 0.15959 0.16353 0.0
C920 C 0.97982 0.05025 0.20669 0.0
N921 N 0.98428 0.07877 0.19014 0.0
C922 C 0.97651 0.0514 0.13902 0.0
C923 C 0.9715 0.02171 0.15552 0.0
C924 C 0.97362 0.02129 0.1898 0.0
C925 C 0.98334 0.07974 0.15694 0.0
H926 H 0.98171 0.04989 0.23307 0.0
H927 H 0.98899 0.10233 0.14443 0.0
C928 C -0.00304 0.1808 0.15104 0.0
C929 C 0.9156 0.23151 0.18797 0.0
C930 C 0.91067 0.25734 0.2094 0.0
C931 C 0.91633 0.25258 0.24282 0.0
C932 C 0.93015 0.22317 0.25375 0.0
C933 C 0.93436 0.19776 0.23137 0.0
N934 N 0.92575 0.20211 0.19951 0.0
H935 H 0.90899 0.23407 0.16252 0.0
H936 H 0.94228 0.17408 0.23983 0.0
C937 C 0.93911 0.11656 0.10245 0.0
N938 N 0.92189 0.11416 0.1308 0.0
C939 C 0.89209 0.06828 0.11055 0.0
C940 C 0.90791 0.07168 0.08038 0.0
C941 C 0.93267 0.09513 0.07675 0.0
C942 C 0.89888 0.09062 0.13531 0.0
H943 H 0.95577 0.13675 0.09871 0.0
H944 H 0.88316 0.09168 0.15644 0.0
C945 C 0.91888 0.10918 0.23802 0.0
C946 C 0.06474 0.09367 0.22345 0.0
N947 N 0.00478 0.1597 0.26442 0.0
C948 C 0.00438 0.14867 0.29568 0.0
C949 C 0.01244 0.16969 0.32139 0.0
C950 C 0.02047 0.20289 0.3153 0.0
C951 C 0.0192 0.21333 0.28227 0.0
C952 C 0.01152 0.19135 0.25738 0.0
C953 C 0.86215 0.18292 0.12705 0.0
O954 O 0.00446 0.16268 0.17515 0.0
O955 O 0.96757 0.18207 0.14127 0.0
O956 O 0.90856 0.1241 0.21252 0.0
O957 O 0.94918 0.10787 0.24534 0.0
O958 O 0.06042 0.12136 0.2102 0.0
O959 O 0.04098 0.08198 0.23963 0.0
O960 O 0.85823 0.17142 0.15566 0.0
O961 O 0.89119 0.18455 0.11664 0.0
H962 H -0.00026 0.12306 0.30049 0.0
H963 H 0.01231 0.19927 0.23213 0.0
H964 H 0.97537 0.05254 0.11261 0.0
H965 H 0.96988 -0.00117 0.20338 0.0
H966 H 0.90008 0.2799 0.2004 0.0
H967 H 0.93473 0.21898 0.27953 0.0
H968 H 0.87187 0.05137 0.1134 0.0
H969 H 0.94443 0.09892 0.05331 0.0
H970 H 0.01444 0.15896 0.34548 0.0
H971 H 0.02547 0.2375 0.27435 0.0
Cd972 Cd 0.99145 0.6115 0.27184 0.0
Cd973 Cd 0.07047 0.66662 0.32112 0.0
C974 C 0.0253 0.5457 0.29963 0.0
N975 N 0.00812 0.57185 0.31072 0.0
C976 C -0.00189 0.54424 0.36154 0.0
C977 C 0.01686 0.51742 0.35117 0.0
C978 C 0.0313 0.51905 0.32 0.0
C979 C -0.00385 0.5722 0.34177 0.0
H980 H 0.0337 0.5449 0.27465 0.0
H981 H 0.98308 0.59338 0.35046 0.0
C982 C 0.9914 0.67825 0.33284 0.0
C983 C 0.0528 0.73383 0.291 0.0
C984 C 0.05641 0.76076 0.27064 0.0
C985 C 0.06854 0.75606 0.23908 0.0
C986 C 0.07191 0.7243 0.22675 0.0
C987 C 0.06718 0.69786 0.24785 0.0
N988 N 0.05955 0.70338 0.27975 0.0
H989 H 0.04823 0.73761 0.31673 0.0
H990 H 0.07304 0.67355 0.23959 0.0
C991 C 0.06091 0.63918 0.3917 0.0
N992 N 0.06193 0.6274 0.3607 0.0
C993 C 0.07346 0.57371 0.38032 0.0
C994 C 0.07572 0.58584 0.41235 0.0
C995 C 0.06864 0.6189 0.41801 0.0
C996 C 0.06767 0.59535 0.35458 0.0
H997 H 0.05714 0.66502 0.39569 0.0
H998 H 0.0694 0.58693 0.32976 0.0
C999 C 0.07504 0.605 0.25668 0.0
C1000 C 0.92984 0.57828 0.26527 0.0
N1001 N 0.98729 0.64503 0.22551 0.0
C1002 C 0.98561 0.6309 0.19547 0.0
C1003 C 0.97431 0.64884 0.16856 0.0
C1004 C 0.96444 0.68138 0.17289 0.0
C1005 C 0.96846 0.69598 0.20365 0.0
C1006 C 0.97999 0.67719 0.22986 0.0
C1007 C 0.12727 0.69388 0.35146 0.0
O1008 O 0.98899 0.65536 0.3121 0.0
O1009 O 0.01946 0.68759 0.34197 0.0
O1010 O 0.08202 0.62599 0.27852 0.0
O1011 O 0.04548 0.59798 0.24962 0.0
O1012 O 0.93205 0.60772 0.27464 0.0
O1013 O 0.95604 0.56493 0.25547 0.0
O1014 O 0.12926 0.66951 0.3325 0.0
O1015 O 0.09932 0.70656 0.35512 0.0
H1016 H 0.99094 0.60514 0.19287 0.0
H1017 H 0.981 0.68768 0.2541 0.0
H1018 H 0.98442 0.54358 0.38413 0.0
H1019 H 0.04564 0.49887 0.31066 0.0
H1020 H 0.05414 0.78511 0.28078 0.0
H1021 H 0.08163 0.7202 0.20248 0.0
H1022 H 0.07892 0.54836 0.37506 0.0
H1023 H 0.07053 0.62921 0.44232 0.0
H1024 H 0.97135 0.63691 0.14511 0.0
H1025 H 0.96097 0.72103 0.20773 0.0
Cd1026 Cd 0.49135 0.37467 0.77414 0.0
Cd1027 Cd 0.41416 0.32951 0.81296 0.0
C1028 C 0.48328 0.44685 0.80155 0.0
N1029 N 0.47891 0.41557 0.81204 0.0
C1030 C 0.46129 0.43461 0.86425 0.0
C1031 C 0.46209 0.467 0.85289 0.0
C1032 C 0.47551 0.4731 0.82186 0.0
C1033 C 0.47043 0.40914 0.84349 0.0
H1034 H 0.49172 0.45142 0.77691 0.0
H1035 H 0.46913 0.3843 0.85205 0.0
C1036 C 0.48914 0.31585 0.83679 0.0
C1037 C 0.44442 0.26521 0.78485 0.0
C1038 C 0.43802 0.23838 0.76497 0.0
C1039 C 0.4239 0.24378 0.73421 0.0
C1040 C 0.42308 0.27555 0.7214 0.0
C1041 C 0.43079 0.30162 0.74192 0.0
N1042 N 0.43781 0.29586 0.77385 0.0
H1043 H 0.44958 0.26113 0.81031 0.0
H1044 H 0.42698 0.3262 0.73358 0.0
C1045 C 0.3877 0.3608 0.87464 0.0
N1046 N 0.3984 0.37283 0.84568 0.0
C1047 C 0.38357 0.42699 0.86173 0.0
C1048 C 0.37245 0.41476 0.89177 0.0
C1049 C 0.3727 0.38091 0.897 0.0
C1050 C 0.3953 0.40516 0.83815 0.0
H1051 H 0.39043 0.33537 0.88052 0.0
H1052 H 0.40341 0.41436 0.81477 0.0
C1053 C 0.40959 0.38914 0.7509 0.0
C1054 C 0.55238 0.40792 0.76975 0.0
N1055 N 0.50409 0.3424 0.72995 0.0
C1056 C 0.48825 0.34337 0.70067 0.0
C1057 C 0.50049 0.32579 0.67411 0.0
C1058 C 0.52961 0.30809 0.6779 0.0
C1059 C 0.54522 0.3074 0.7084 0.0
C1060 C 0.5319 0.32481 0.73429 0.0
C1061 C 0.36243 0.28974 0.83825 0.0
O1062 O 0.49857 0.32507 0.80858 0.0
O1063 O 0.46183 0.32497 0.84801 0.0
O1064 O 0.3984 0.36879 0.77151 0.0
O1065 O 0.44023 0.39377 0.74763 0.0
O1066 O 0.54277 0.39211 0.79453 0.0
O1067 O 0.53348 0.40781 0.74507 0.0
O1068 O 0.35815 0.3071 0.8129 0.0
O1069 O 0.39144 0.28722 0.84866 0.0
H1070 H 0.46659 0.35824 0.69778 0.0
H1071 H 0.54425 0.3252 0.75772 0.0
H1072 H 0.45197 0.42888 0.88825 0.0
H1073 H 0.47756 0.49782 0.81251 0.0
H1074 H 0.43918 0.21399 0.7753 0.0
H1075 H 0.41285 0.28033 0.6974 0.0
H1076 H 0.38387 0.45292 0.85699 0.0
H1077 H 0.36374 0.37026 0.91958 0.0
H1078 H 0.48792 0.32652 0.65077 0.0
H1079 H 0.56766 0.29378 0.71196 0.0
Cd1080 Cd 0.7245 0.48603 0.87028 0.0
Cd1081 Cd 0.67353 0.56949 0.83659 0.0
C1082 C 0.70127 0.49355 0.94254 0.0
N1083 N 0.68775 0.49693 0.91235 0.0
C1084 C 0.63699 0.51303 0.93606 0.0
C1085 C 0.6516 0.51297 0.96715 0.0
C1086 C 0.6836 0.50144 0.97046 0.0
C1087 C 0.65567 0.50468 0.90867 0.0
H1088 H 0.7267 0.48705 0.94477 0.0
H1089 H 0.64492 0.50561 0.88457 0.0
C1090 C 0.65504 0.48872 0.81754 0.0
C1091 C 0.71897 0.53879 0.77848 0.0
C1092 C 0.73808 0.54227 0.75038 0.0
C1093 C 0.75387 0.57218 0.74461 0.0
C1094 C 0.7532 0.59652 0.76858 0.0
C1095 C 0.73376 0.59208 0.79608 0.0
N1096 N 0.71614 0.56417 0.79978 0.0
H1097 H 0.7044 0.51704 0.78168 0.0
H1098 H 0.73048 0.61201 0.81311 0.0
C1099 C 0.60658 0.56763 0.8727 0.0
N1100 N 0.63841 0.57339 0.88038 0.0
C1101 C 0.62316 0.59718 0.93136 0.0
C1102 C 0.59008 0.593 0.92331 0.0
C1103 C 0.58185 0.57741 0.89387 0.0
C1104 C 0.64715 0.58789 0.909 0.0
H1105 H 0.60036 0.55736 0.84914 0.0
H1106 H 0.67246 0.59374 0.9138 0.0
C1107 C 0.74262 0.56763 0.89135 0.0
C1108 C 0.73986 0.4257 0.90112 0.0
N1109 N 0.76045 0.48264 0.82721 0.0
C1110 C 0.78996 0.49802 0.82746 0.0
C1111 C 0.81541 0.4861 0.8081 0.0
C1112 C 0.81006 0.45802 0.78911 0.0
C1113 C 0.77868 0.4445 0.78727 0.0
C1114 C 0.75402 0.45726 0.80679 0.0
C1115 C 0.64048 0.62253 0.80591 0.0
O1116 O 0.68001 0.47741 0.83199 0.0
O1117 O 0.64813 0.51887 0.81904 0.0
O1118 O 0.71883 0.57933 0.87504 0.0
O1119 O 0.74924 0.5372 0.89113 0.0
O1120 O 0.71676 0.42882 0.88075 0.0
O1121 O 0.75829 0.45033 0.90522 0.0
O1122 O 0.66296 0.62751 0.82674 0.0
O1123 O 0.63475 0.59317 0.79799 0.0
H1124 H 0.79457 0.51753 0.84469 0.0
H1125 H 0.73063 0.44494 0.80798 0.0
H1126 H 0.61212 0.52107 0.93274 0.0
H1127 H 0.69554 0.5009 0.99414 0.0
H1128 H 0.73807 0.52319 0.73203 0.0
H1129 H 0.76503 0.61991 0.76454 0.0
H1130 H 0.63007 0.6097 0.95361 0.0
H1131 H 0.55653 0.57412 0.88673 0.0
H1132 H 0.83955 0.49688 0.80992 0.0
H1133 H 0.77402 0.42279 0.77284 0.0
Cd1134 Cd 0.23029 -0.0 0.11994 0.0
Cd1135 Cd 0.17069 0.92157 0.16084 0.0
C1136 C 0.21927 0.97824 0.0454 0.0
N1137 N 0.20288 0.97982 0.07429 0.0
C1138 C 0.15297 0.96427 0.04806 0.0
C1139 C 0.16961 0.96084 0.01833 0.0
C1140 C 0.20305 0.96838 0.01695 0.0
C1141 C 0.17032 0.97364 0.076 0.0
H1142 H 0.24499 0.9844 0.04456 0.0
H1143 H 0.15795 0.97615 0.09906 0.0
C1144 C 0.16089 0.00298 0.1755 0.0
C1145 C 0.19432 0.92423 0.23344 0.0
C1146 C 0.21447 0.91778 0.26007 0.0
C1147 C 0.24824 0.91566 0.25527 0.0
C1148 C 0.26154 0.92347 0.22467 0.0
C1149 C 0.24032 0.92931 0.19852 0.0
N1150 N 0.20744 0.92807 0.2032 0.0
H1151 H 0.1681 0.92364 0.23647 0.0
H1152 H 0.25001 0.93307 0.17434 0.0
C1153 C 0.10456 0.93478 0.11996 0.0
N1154 N 0.13393 0.91932 0.11801 0.0
C1155 C 0.11366 0.88357 0.0766 0.0
C1156 C 0.08299 0.89851 0.07854 0.0
C1157 C 0.07854 0.92465 0.10017 0.0
C1158 C 0.13898 0.89438 0.09675 0.0
H1159 H 0.10064 0.95317 0.1385 0.0
H1160 H 0.16193 0.88129 0.09718 0.0
C1161 C 0.24246 0.91643 0.10833 0.0
C1162 C 0.23471 0.05996 0.08576 0.0
N1163 N 0.27123 0.00353 0.15938 0.0
C1164 C 0.3025 0.00789 0.14933 0.0
C1165 C 0.32713 0.01465 0.17202 0.0
C1166 C 0.32004 0.01622 0.20583 0.0
C1167 C 0.28739 0.00981 0.21524 0.0
C1168 C 0.26334 0.00419 0.19157 0.0
C1169 C 0.13731 0.86764 0.18825 0.0
O1170 O 0.185 0.01016 0.15738 0.0
O1171 O 0.15095 0.97382 0.17835 0.0
O1172 O 0.21698 0.9091 0.1246 0.0
O1173 O 0.25222 0.94585 0.10522 0.0
O1174 O 0.2103 0.05128 0.10267 0.0
O1175 O 0.25962 0.04143 0.08667 0.0
O1176 O 0.16192 0.86375 0.16987 0.0
O1177 O 0.1292 0.89664 0.19523 0.0
H1178 H 0.30805 0.00762 0.12347 0.0
H1179 H 0.23815 0.00086 0.1989 0.0
H1180 H 0.12705 0.95928 0.04972 0.0
H1181 H 0.21642 0.96645 0.9942 0.0
H1182 H 0.2037 0.91207 0.28359 0.0
H1183 H 0.28766 0.92225 0.22051 0.0
H1184 H 0.11724 0.8623 0.06132 0.0
H1185 H 0.05467 0.93549 0.10327 0.0
H1186 H 0.35129 0.02012 0.16271 0.0
H1187 H 0.27943 0.00933 0.24017 0.0
Cd1188 Cd 0.27047 0.99257 0.62149 0.0
Cd1189 Cd 0.31863 0.08203 0.65563 0.0
C1190 C 0.29164 0.00135 0.54663 0.0
N1191 N 0.30435 0.0039 0.57731 0.0
C1192 C 0.35677 0.01754 0.55564 0.0
C1193 C 0.34349 0.0176 0.52403 0.0
C1194 C 0.31101 0.00777 0.51941 0.0
C1195 C 0.33652 0.01053 0.58219 0.0
H1196 H 0.26602 -0.0042 0.54321 0.0
H1197 H 0.3461 0.01122 0.6067 0.0
C1198 C 0.33694 0.00305 0.67925 0.0
C1199 C 0.29442 0.07515 0.72671 0.0
C1200 C 0.27335 0.07575 0.75319 0.0
C1201 C 0.24045 0.06748 0.7486 0.0
C1202 C 0.23022 0.05486 0.71834 0.0
C1203 C 0.25215 0.05541 0.6921 0.0
N1204 N 0.28308 0.06686 0.69664 0.0
H1205 H 0.31926 0.08368 0.72962 0.0
H1206 H 0.2439 0.04896 0.66787 0.0
C1207 C 0.38965 0.08106 0.6242 0.0
N1208 N 0.35788 0.08206 0.61424 0.0
C1209 C 0.37446 0.09669 0.56019 0.0
C1210 C 0.40745 0.09607 0.56979 0.0
C1211 C 0.41492 0.08821 0.60237 0.0
C1212 C 0.34987 0.09016 0.583 0.0
H1213 H 0.39536 0.0762 0.64957 0.0
H1214 H 0.32446 0.09251 0.57605 0.0
C1215 C 0.25029 0.07533 0.60086 0.0
C1216 C 0.26884 0.92867 0.59602 0.0
N1217 N 0.22432 0.98745 0.65289 0.0
C1218 C 0.19419 0.99518 0.64109 0.0
C1219 C 0.16626 0.98363 0.657 0.0
C1220 C 0.1699 0.96362 0.68464 0.0
C1221 C 0.2012 0.95758 0.69722 0.0
C1222 C 0.22833 0.9698 0.68076 0.0
C1223 C 0.34497 0.13925 0.68399 0.0
O1224 O 0.31496 0.98939 0.66203 0.0
O1225 O 0.34148 0.03365 0.67844 0.0
O1226 O 0.27323 0.0881 0.61754 0.0
O1227 O 0.24538 0.04448 0.60043 0.0
O1228 O 0.27998 0.93414 0.62441 0.0
O1229 O 0.25309 0.95154 0.58226 0.0
O1230 O 0.31839 0.14077 0.66802 0.0
O1231 O 0.35799 0.11155 0.6877 0.0
H1232 H 0.19189 0.00852 0.61834 0.0
H1233 H 0.25269 0.96347 0.68892 0.0
H1234 H 0.382 0.02442 0.55982 0.0
H1235 H 0.30017 0.00745 0.49521 0.0
H1236 H 0.28204 0.08507 0.77644 0.0
H1237 H 0.20498 0.04781 0.71432 0.0
H1238 H 0.36792 0.10398 0.53567 0.0
H1239 H 0.44 0.08819 0.61095 0.0
H1240 H 0.14226 0.98872 0.64697 0.0
H1241 H 0.20459 0.94229 0.71863 0.0
Cd1242 Cd 0.81869 0.41301 0.3328 0.0
Cd1243 Cd 0.7626 0.49955 0.37171 0.0
C1244 C 0.88848 0.42305 0.36493 0.0
N1245 N 0.85753 0.41469 0.37375 0.0
C1246 C 0.8764 0.39471 0.42527 0.0
C1247 C 0.90882 0.40191 0.4164 0.0
C1248 C 0.91471 0.41634 0.38577 0.0
C1249 C 0.85111 0.40023 0.40297 0.0
H1250 H 0.893 0.43297 0.34081 0.0
H1251 H 0.82653 0.39226 0.40857 0.0
C1252 C 0.74962 0.4179 0.39164 0.0
C1253 C 0.68744 0.50053 0.34878 0.0
C1254 C 0.66048 0.51313 0.33196 0.0
C1255 C 0.66558 0.53189 0.30368 0.0
C1256 C 0.69738 0.53581 0.29157 0.0
C1257 C 0.72359 0.52266 0.30907 0.0
N1258 N 0.71816 0.50618 0.33745 0.0
H1259 H 0.68404 0.48815 0.37193 0.0
H1260 H 0.74841 0.52746 0.30125 0.0
C1261 C 0.78211 0.47993 0.44411 0.0
N1262 N 0.79598 0.48237 0.41401 0.0
C1263 C 0.84821 0.46821 0.43577 0.0
C1264 C 0.8339 0.46265 0.46637 0.0
C1265 C 0.80077 0.47014 0.47086 0.0
C1266 C 0.82854 0.47764 0.40954 0.0
H1267 H 0.75631 0.48479 0.44713 0.0
H1268 H 0.83921 0.48074 0.38562 0.0
C1269 C 0.83019 0.49074 0.31205 0.0
C1270 C 0.84925 0.35651 0.30715 0.0
N1271 N 0.77452 0.41379 0.29766 0.0
C1272 C 0.76609 0.44027 0.2793 0.0
C1273 C 0.74714 0.43617 0.25117 0.0
C1274 C 0.73684 0.40462 0.2427 0.0
C1275 C 0.74291 0.37847 0.26392 0.0
C1276 C 0.76221 0.38362 0.29138 0.0
C1277 C 0.76338 0.56224 0.40174 0.0
O1278 O 0.77362 0.41137 0.37298 0.0
O1279 O 0.73969 0.44736 0.39338 0.0
O1280 O 0.80716 0.49544 0.33224 0.0
O1281 O 0.8406 0.46198 0.30767 0.0
O1282 O 0.83142 0.35473 0.33247 0.0
O1283 O 0.85135 0.38402 0.29302 0.0
O1284 O 0.7786 0.55636 0.37544 0.0
O1285 O 0.74452 0.53999 0.41244 0.0
H1286 H 0.77605 0.46402 0.28481 0.0
H1287 H 0.76978 0.36306 0.30607 0.0
H1288 H 0.87104 0.38316 0.44847 0.0
H1289 H 0.93941 0.42164 0.37777 0.0
H1290 H 0.63612 0.50985 0.34181 0.0
H1291 H 0.70192 0.55025 0.26981 0.0
H1292 H 0.87394 0.46364 0.43182 0.0
H1293 H 0.78912 0.46654 0.49437 0.0
H1294 H 0.74275 0.45671 0.235 0.0
H1295 H 0.73532 0.35385 0.25771 0.0
C1296 C 0.03493 0.48465 0.40171 0.0
C1297 C 0.02031 0.48616 0.37018 0.0
C1298 C 0.03301 0.42862 0.36073 0.0
C1299 C 0.05171 0.42813 0.3901 0.0
N1300 N 0.06624 0.45331 0.4414 0.0
N1301 N 0.99045 0.45585 0.32972 0.0
C1302 C 0.05041 0.45516 0.41193 0.0
C1303 C 0.01413 0.45665 0.3533 0.0
N1304 N 0.03309 0.51059 0.42241 0.0
N1305 N 0.03578 0.40417 0.33817 0.0
H1306 H 0.97606 0.47627 0.32442 0.0
H1307 H 0.98275 0.43432 0.31845 0.0
H1308 H 0.05101 0.38402 0.34105 0.0
H1309 H 0.02529 0.40547 0.31496 0.0
H1310 H 0.0366 0.50844 0.4475 0.0
H1311 H 0.02534 0.53364 0.41542 0.0
H1312 H 0.07113 0.47327 0.45639 0.0
H1313 H 0.07535 0.4314 0.45072 0.0
C1314 C 0.41003 0.5421 0.87079 0.0
C1315 C 0.41488 0.54581 0.90495 0.0
C1316 C 0.45151 0.49875 0.90532 0.0
C1317 C 0.44542 0.49377 0.8714 0.0
N1318 N 0.40879 0.50416 0.82588 0.0
N1319 N 0.43022 0.52057 0.95601 0.0
C1320 C 0.42182 0.51363 0.85518 0.0
C1321 C 0.43223 0.52173 0.92271 0.0
N1322 N 0.39372 0.56542 0.85318 0.0
N1323 N 0.47683 0.48322 0.92061 0.0
H1324 H 0.41672 0.53742 0.96951 0.0
H1325 H 0.44004 0.50147 0.96975 0.0
H1326 H 0.49322 0.4682 0.90825 0.0
H1327 H 0.48362 0.4882 0.94469 0.0
H1328 H 0.3931 0.56566 0.8277 0.0
H1329 H 0.3824 0.5856 0.86375 0.0
H1330 H 0.38929 0.51616 0.81465 0.0
H1331 H 0.41414 0.48179 0.81511 0.0
C1332 C 0.52804 0.02298 0.63504 0.0
C1333 C 0.52995 0.99326 0.6172 0.0
C1334 C 0.5499 0.02361 0.56928 0.0
C1335 C 0.55258 0.05216 0.58888 0.0
N1336 N 0.54817 0.07796 0.64193 0.0
N1337 N 0.54075 0.96495 0.56679 0.0
C1338 C 0.54199 0.05184 0.62192 0.0
C1339 C 0.53976 0.99357 0.5839 0.0
N1340 N 0.51334 0.02355 0.66501 0.0
N1341 N 0.55746 0.02541 0.53675 0.0
H1342 H 0.53127 0.94317 0.57592 0.0
H1343 H 0.55179 0.96232 0.54406 0.0
H1344 H 0.56485 0.04713 0.52553 0.0
H1345 H 0.55419 0.00638 0.52023 0.0
H1346 H 0.50687 0.04508 0.67691 0.0
H1347 H 0.50542 0.0026 0.67703 0.0
H1348 H 0.54503 0.07731 0.66719 0.0
H1349 H 0.55923 0.09955 0.63417 0.0
C1350 C 0.96781 0.95021 0.09477 0.0
C1351 C 0.94012 0.93335 0.10715 0.0
C1352 C 0.93111 0.97654 0.14666 0.0
C1353 C 0.961 0.99162 0.13766 0.0
N1354 N 0.0103 0.9906 0.10525 0.0
N1355 N 0.90031 0.9265 0.15026 0.0
C1356 C 0.98025 0.97778 0.11227 0.0
C1357 C 0.92362 0.94508 0.13507 0.0
N1358 N 0.98151 0.94041 0.06603 0.0
N1359 N 0.90845 0.9935 0.16401 0.0
H1360 H 0.89381 0.90311 0.14246 0.0
H1361 H 0.88975 0.93318 0.17245 0.0
H1362 H 0.91171 0.01816 0.16884 0.0
H1363 H 0.88501 0.98471 0.16891 0.0
H1364 H -0.00054 0.95368 0.05379 0.0
H1365 H 0.97295 0.92011 0.0532 0.0
H1366 H 0.02579 0.98127 0.08743 0.0
H1367 H 0.02083 0.00944 0.11884 0.0
C1368 C 0.38854 0.01515 0.48222 0.0
C1369 C 0.36197 0.03226 0.49652 0.0
C1370 C 0.37013 0.07828 0.45899 0.0
C1371 C 0.39563 0.06063 0.44368 0.0
N1372 N 0.43288 0.01534 0.44252 0.0
N1373 N 0.32503 0.0784 0.49687 0.0
C1374 C 0.40593 0.02985 0.4558 0.0
C1375 C 0.35209 0.0633 0.48438 0.0
N1376 N 0.3959 0.98431 0.49292 0.0
N1377 N 0.36429 0.11011 0.45035 0.0
H1378 H 0.3137 0.071 0.51841 0.0
H1379 H 0.31325 0.09793 0.48554 0.0
H1380 H 0.37675 0.12217 0.43168 0.0
H1381 H 0.34903 0.12571 0.46335 0.0
H1382 H 0.4132 0.96916 0.48219 0.0
H1383 H 0.38332 0.97282 0.51191 0.0
H1384 H 0.44375 0.99427 0.45165 0.0
H1385 H 0.44588 0.02573 0.4232 0.0
C1386 C 0.14579 0.91543 0.98427 0.0
C1387 C 0.15228 0.9493 0.98851 0.0
C1388 C 0.1281 0.96057 0.93476 0.0
C1389 C 0.12227 0.92678 0.93046 0.0
N1390 N 0.13477 0.87136 0.94646 0.0
N1391 N 0.14881 0.00459 0.96695 0.0
C1392 C 0.13373 0.90397 0.95391 0.0
C1393 C 0.14363 0.97184 0.96356 0.0
N1394 N 0.15015 0.89419 0.00957 0.0
N1395 N 0.11905 0.9824 0.91125 0.0
H1396 H 0.15924 0.01545 0.98758 0.0
H1397 H 0.15924 0.01545 0.98758 0.0
H1398 H 0.10619 0.97597 0.89016 0.0
H1399 H 0.12503 0.00699 0.9132 0.0
H1400 H 0.14282 0.86981 0.00894 0.0
H1401 H 0.15839 0.90171 0.03233 0.0
H1402 H 0.14661 0.85403 0.96091 0.0
H1403 H 0.12699 0.86194 0.92407 0.0
C1404 C 0.83974 0.41387 0.50272 0.0
C1405 C 0.85198 0.44466 0.49221 0.0
C1406 C 0.8985 0.43897 0.52972 0.0
C1407 C 0.88331 0.41104 0.54365 0.0
N1408 N 0.83759 0.37346 0.54559 0.0
N1409 N 0.89107 0.48861 0.49814 0.0
C1410 C 0.8534 0.39895 0.53076 0.0
C1411 C 0.88107 0.4577 0.50611 0.0
N1412 N 0.81608 0.39803 0.48502 0.0
N1413 N 0.92945 0.44756 0.53899 0.0
H1414 H 0.87836 0.5035 0.48176 0.0
H1415 H 0.91023 0.5006 0.50991 0.0
H1416 H 0.94261 0.43477 0.55671 0.0
H1417 H 0.9431 0.46551 0.5271 0.0
H1418 H 0.80889 0.37402 0.48964 0.0
H1419 H 0.80619 0.40726 0.46339 0.0
H1420 H 0.81355 0.36695 0.5401 0.0
H1421 H 0.84746 0.36027 0.56502 0.0
C1422 C 0.60874 0.51466 0.01143 0.0
C1423 C 0.63571 0.5294 0.99535 0.0
C1424 C 0.63581 0.57416 0.03523 0.0
C1425 C 0.60746 0.5606 0.04997 0.0
N1426 N 0.56368 0.5212 0.04927 0.0
N1427 N 0.67219 0.57545 0.98869 0.0
C1428 C 0.593 0.53171 0.0373 0.0
C1429 C 0.64854 0.55976 0.00644 0.0
N1430 N 0.59899 0.48387 0.0028 0.0
N1431 N 0.65082 0.60067 0.04907 0.0
H1432 H 0.68141 0.56628 0.96687 0.0
H1433 H 0.68034 0.59909 0.99342 0.0
H1434 H 0.64134 0.61293 0.06919 0.0
H1435 H 0.67375 0.60932 0.04217 0.0
H1436 H 0.58182 0.47033 0.01589 0.0
H1437 H 0.60998 0.47073 0.98396 0.0
H1438 H 0.54987 0.50277 0.03841 0.0
H1439 H 0.55182 0.53287 0.06848 0.0
C1440 C 0.45773 0.37567 0.08426 0.0
C1441 C 0.44018 0.40032 0.0675 0.0
C1442 C 0.47822 0.39649 0.02112 0.0
C1443 C 0.49581 0.3719 0.03827 0.0
N1444 N 0.50919 0.34828 0.09044 0.0
N1445 N 0.4379 0.44022 0.02431 0.0
C1446 C 0.4875 0.36449 0.07109 0.0
C1447 C 0.45178 0.41273 0.03721 0.0
N1448 N 0.44588 0.36249 0.11267 0.0
N1449 N 0.48649 0.40393 0.98961 0.0
H1450 H 0.41873 0.45238 0.03578 0.0
H1451 H 0.4469 0.45235 0.00383 0.0
H1452 H 0.50508 0.39189 0.9771 0.0
H1453 H 0.47422 0.42096 0.97522 0.0
H1454 H 0.4556 0.34146 0.12334 0.0
H1455 H 0.42506 0.37108 0.12452 0.0
H1456 H 0.50621 0.34546 0.11559 0.0
H1457 H 0.53215 0.34175 0.08189 0.0
C1458 C 0.98503 0.09003 0.9731 0.0
C1459 C 0.98713 0.12401 0.97987 0.0
C1460 C 0.93596 0.13348 0.95132 0.0
C1461 C 0.93617 0.1009 0.93918 0.0
N1462 N 0.95877 0.04627 0.94261 0.0
N1463 N 0.95214 0.16792 -0.00362 0.0
C1464 C 0.96018 0.0785 0.9512 0.0
C1465 C 0.95823 0.14227 0.97607 0.0
N1466 N 0.00171 0.06861 0.99244 0.0
N1467 N 0.91662 0.15698 0.93757 0.0
H1468 H 0.96803 0.17368 0.01559 0.0
H1469 H 0.9301 0.18073 -0.00399 0.0
H1470 H 0.90232 0.15287 0.91688 0.0
H1471 H 0.91797 0.18149 0.94445 0.0
H1472 H 0.00047 0.04331 0.9901 0.0
H1473 H 0.01141 0.07605 0.01481 0.0
H1474 H 0.97774 0.02987 0.94684 0.0
H1475 H 0.93884 0.03591 0.93055 0.0
C1476 C 0.54223 0.8973 0.45401 0.0
C1477 C 0.5495 0.88771 0.42147 0.0
C1478 C 0.50202 0.85129 0.42087 0.0
C1479 C 0.49677 0.85829 0.45444 0.0
N1480 N 0.51195 0.88628 0.50395 0.0
N1481 N 0.5389 0.85318 0.37476 0.0
C1482 C 0.51687 0.88093 0.47132 0.0
C1483 C 0.52996 0.8642 0.40503 0.0
N1484 N 0.55913 0.92257 0.46789 0.0
N1485 N 0.47992 0.83268 0.40396 0.0
H1486 H 0.55852 0.86277 0.36165 0.0
H1487 H 0.5284 0.83293 0.36345 0.0
H1488 H 0.45917 0.82256 0.41469 0.0
H1489 H 0.4804 0.82955 0.37871 0.0
H1490 H 0.55334 0.93293 0.49035 0.0
H1491 H 0.5777 0.93496 0.45564 0.0
H1492 H 0.5276 0.90003 0.51859 0.0
H1493 H 0.49287 0.87545 0.51699 0.0
C1494 C 0.00305 0.61328 0.56665 0.0
C1495 C 0.00519 0.63735 0.54183 0.0
C1496 C 0.06475 0.63528 0.54594 0.0
C1497 C 0.06231 0.60824 0.56789 0.0
N1498 N 0.02793 0.56515 0.5897 0.0
N1499 N 0.03864 0.66423 0.50129 0.0
C1500 C 0.03101 0.59493 0.57482 0.0
C1501 C 0.03626 0.64587 0.52909 0.0
N1502 N 0.97529 0.61 0.58463 0.0
N1503 N 0.09303 0.65287 0.54321 0.0
H1504 H 0.01814 0.67167 0.48798 0.0
H1505 H 0.06092 0.66897 0.48985 0.0
H1506 H 0.11352 0.6488 0.55779 0.0
H1507 H 0.09464 0.67424 0.52936 0.0
H1508 H 0.97364 0.59444 0.6048 0.0
H1509 H 0.95601 0.62634 0.58216 0.0
H1510 H 0.00533 0.55429 0.59422 0.0
H1511 H 0.04789 0.54995 0.5943 0.0
C1512 C 0.95249 0.50245 0.60072 0.0
C1513 C 0.93802 0.49323 0.63108 0.0
C1514 C 0.89218 0.53024 0.62077 0.0
C1515 C 0.90856 0.54247 0.5929 0.0
N1516 N 0.95235 0.53962 0.55395 0.0
N1517 N 0.89625 0.50174 0.67215 0.0
C1518 C 0.938 0.52805 0.58186 0.0
C1519 C 0.90839 0.50794 0.64164 0.0
N1520 N 0.98057 0.48741 0.59063 0.0
N1521 N 0.86068 0.53965 0.62688 0.0
H1522 H 0.90659 0.48513 0.6884 0.0
H1523 H 0.87736 0.51517 0.68259 0.0
H1524 H 0.84791 0.55575 0.61169 0.0
H1525 H 0.8461 0.52908 0.6449 0.0
H1526 H 0.99119 0.49072 0.56779 0.0
H1527 H 0.99338 0.47075 0.60511 0.0
H1528 H 0.97491 0.53209 0.5451 0.0
H1529 H 0.94158 0.5576 0.53942 0.0
C1530 C 0.5676 0.49039 0.1459 0.0
C1531 C 0.53633 0.49944 0.13372 0.0
C1532 C 0.53864 0.4551 0.09381 0.0
C1533 C 0.56811 0.44381 0.10828 0.0
N1534 N 0.60966 0.44885 0.14994 0.0
N1535 N 0.49035 0.48912 0.09832 0.0
C1536 C 0.58235 0.46097 0.13488 0.0
C1537 C 0.52136 0.48145 0.10826 0.0
N1538 N 0.58363 0.51055 0.16722 0.0
N1539 N 0.5278 0.44141 0.06548 0.0
H1540 H 0.4771 0.50855 0.10809 0.0
H1541 H 0.47694 0.47507 0.08184 0.0
H1542 H 0.53939 0.42151 0.05499 0.0
H1543 H 0.50954 0.45165 0.05098 0.0
H1544 H 0.60786 0.50729 0.17438 0.0
H1545 H 0.57365 0.53242 0.17553 0.0
H1546 H 0.61897 0.45795 0.17183 0.0
H1547 H 0.62195 0.42815 0.14169 0.0
C1548 C 0.47198 0.98 0.37572 0.0
C1549 C 0.45231 -0.0022 0.35314 0.0
C1550 C 0.4091 0.95686 0.3579 0.0
C1551 C 0.42694 0.94127 0.38317 0.0
N1552 N 0.4736 0.93933 0.41909 0.0
N1553 N 0.39901 0.00714 0.32888 0.0
C1554 C 0.45792 0.95325 0.39303 0.0
C1555 C 0.41991 0.98742 0.34605 0.0
N1556 N 0.50421 0.98791 0.3798 0.0
N1557 N 0.38244 0.9419 0.34432 0.0
H1558 H 0.40545 0.0303 0.3204 0.0
H1559 H 0.3742 0.00197 0.32605 0.0
H1560 H 0.37441 0.9188 0.35156 0.0
H1561 H 0.37052 0.95076 0.32357 0.0
H1562 H 0.52028 0.97465 0.39441 0.0
H1563 H 0.51568 0.0065 0.3667 0.0
H1564 H 0.49455 0.94911 0.4298 0.0
H1565 H 0.46415 0.91926 0.43167 0.0
C1566 C 0.04526 0.02536 0.9211 0.0
C1567 C 0.04324 0.05355 0.90097 0.0
C1568 C 0.00775 0.02395 0.86321 0.0
C1569 C 0.01701 0.99412 0.87843 0.0
N1570 N 0.04035 0.96646 0.92511 0.0
N1571 N 0.02184 0.0805 0.85295 0.0
C1572 C 0.03385 0.99485 0.90885 0.0
C1573 C 0.02347 0.05342 0.87252 0.0
N1574 N 0.05873 0.028 0.95162 0.0
N1575 N 0.9844 0.02377 0.83931 0.0
H1576 H 0.0329 0.10266 0.85891 0.0
H1577 H 0.01119 0.08044 0.82979 0.0
H1578 H 0.97279 0.00233 0.83197 0.0
H1579 H 0.9744 0.04493 0.82925 0.0
H1580 H 0.05913 0.00914 0.96873 0.0
H1581 H 0.06699 0.05029 0.96094 0.0
H1582 H 0.05593 0.96477 0.94517 0.0
H1583 H 0.03052 0.94413 0.91813 0.0
C1584 C 0.63974 0.91906 0.51087 0.0
C1585 C 0.64851 0.95251 0.5088 0.0
C1586 C 0.62919 0.96081 0.5652 0.0
C1587 C 0.6208 0.92714 0.56689 0.0
N1588 N 0.63102 0.87289 0.54649 0.0
N1589 N 0.65639 0.0046 0.53497 0.0
C1590 C 0.62969 0.90586 0.54115 0.0
C1591 C 0.64502 0.97319 0.5365 0.0
N1592 N 0.64105 0.89962 0.48388 0.0
N1593 N 0.6217 0.98076 0.59087 0.0
H1594 H 0.66601 0.01483 0.51366 0.0
H1595 H 0.65807 0.02012 0.55497 0.0
H1596 H 0.60704 0.97339 0.61036 0.0
H1597 H 0.62975 0.00461 0.59329 0.0
H1598 H 0.63164 0.87595 0.4834 0.0
H1599 H 0.64937 0.90796 0.46136 0.0
H1600 H 0.64075 0.8564 0.52976 0.0
H1601 H 0.62654 0.86252 0.56934 0.0
C1602 C 0.90126 0.02753 0.03806 0.0
C1603 C 0.89199 0.05833 0.05084 0.0
C1604 C 0.85228 0.0656 0.0068 0.0
C1605 C 0.85937 0.03361 0.99544 0.0
N1606 N 0.88787 0.98245 0.00168 0.0
N1607 N 0.85634 0.10547 0.05014 0.0
C1608 C 0.8833 0.0141 0.01134 0.0
C1609 C 0.86679 0.077 0.036 0.0
N1610 N 0.92735 0.01143 0.05132 0.0
N1611 N 0.83246 0.0856 0.98883 0.0
H1612 H 0.86745 0.11608 0.07049 0.0
H1613 H 0.83512 0.11769 0.04317 0.0
H1614 H 0.82314 0.0787 0.96624 0.0
H1615 H 0.82858 0.11022 0.99388 0.0
H1616 H 0.93752 0.99045 0.04126 0.0
H1617 H 0.94035 0.02049 0.07132 0.0
H1618 H 0.90266 0.96586 0.01407 0.0
H1619 H 0.87514 0.972 0.98217 0.0
C1620 C 0.08516 0.54424 0.49584 0.0
C1621 C 0.11654 0.52993 0.4919 0.0
C1622 C 0.11959 0.54966 0.43573 0.0
C1623 C 0.08855 0.56485 0.43928 0.0
N1624 N 0.03996 0.57439 0.47133 0.0
N1625 N 0.15605 0.50737 0.45487 0.0
C1626 C 0.07058 0.56112 0.46891 0.0
C1627 C 0.131 0.52862 0.46059 0.0
N1628 N 0.06905 0.54092 0.52485 0.0
N1629 N 0.13978 0.5577 0.41031 0.0
H1630 H 0.16456 0.49133 0.47283 0.0
H1631 H 0.16561 0.50321 0.43163 0.0
H1632 H 0.13429 0.57565 0.39306 0.0
H1633 H 0.16383 0.54948 0.40865 0.0
H1634 H 0.04438 0.54591 0.52796 0.0
H1635 H 0.07979 0.53147 0.54587 0.0
H1636 H 0.02668 0.57629 0.49288 0.0
H1637 H 0.02726 0.58364 0.45122 0.0
C1638 C 0.36056 0.43021 0.97892 0.0
C1639 C 0.33618 0.45459 0.9797 0.0
C1640 C 0.33874 0.45884 0.92007 0.0
C1641 C 0.36478 0.43584 0.92025 0.0
N1642 N 0.40859 0.41109 0.95125 0.0
N1643 N 0.30947 0.49937 0.95177 0.0
C1644 C 0.37903 0.42647 0.95039 0.0
C1645 C 0.32777 0.47154 0.9505 0.0
N1646 N 0.36373 0.40825 0.00384 0.0
N1647 N 0.32289 0.46679 0.89175 0.0
H1648 H 0.3018 0.50959 0.97381 0.0
H1649 H 0.30497 0.5139 0.93128 0.0
H1650 H 0.32906 0.45709 0.86909 0.0
H1651 H 0.30179 0.48104 0.89128 0.0
H1652 H 0.37954 0.38832 0.00274 0.0
H1653 H 0.34719 0.40722 0.02316 0.0
H1654 H 0.41945 0.40332 0.97293 0.0
H1655 H 0.42296 0.40825 0.93044 0.0
C1656 C 0.53799 0.58602 0.95481 0.0
C1657 C 0.56374 0.60671 0.94418 0.0
C1658 C 0.53562 0.65309 0.96888 0.0
C1659 C 0.50683 0.63402 0.97162 0.0
N1660 N 0.48017 0.58172 0.96493 0.0
N1661 N 0.58455 0.66199 0.93753 0.0
C1662 C 0.50794 0.60015 0.9646 0.0
C1663 C 0.56231 0.6408 0.95076 0.0
N1664 N 0.54222 0.55293 0.95553 0.0
N1665 N 0.53705 0.6833 0.9829 0.0
H1666 H 0.60337 0.65482 0.92206 0.0
H1667 H 0.58218 0.6873 0.93914 0.0
H1668 H 0.51757 0.6928 -0.00378 0.0
H1669 H 0.55849 0.69708 0.9841 0.0
H1670 H 0.52532 0.53688 0.9659 0.0
H1671 H 0.56421 0.54195 0.94909 0.0
H1672 H 0.47968 0.55808 0.95572 0.0
H1673 H 0.45738 0.59066 0.97178 0.0
C1674 C 0.01008 0.84373 0.06124 0.0
C1675 C -0.00041 0.85578 0.03036 0.0
C1676 C 0.0428 0.89751 0.03171 0.0
C1677 C 0.05459 0.88374 0.0614 0.0
N1678 N 0.05337 0.84009 0.10129 0.0
N1679 N 0.00765 0.89134 0.98404 0.0
C1680 C 0.0394 0.85575 0.0752 0.0
C1681 C 0.0164 0.88198 0.01495 0.0
N1682 N 0.99132 0.82154 0.07787 0.0
N1683 N 0.05667 0.92552 0.0198 0.0
H1684 H 0.98838 0.88051 0.97125 0.0
H1685 H 0.02058 0.90832 0.97018 0.0
H1686 H 0.07684 0.93665 0.03075 0.0
H1687 H 0.04708 0.93891 0.00039 0.0
H1688 H -0.00429 0.81461 0.10201 0.0
H1689 H 0.96925 0.81248 0.06891 0.0
H1690 H 0.04578 0.81725 0.10968 0.0
H1691 H 0.07441 0.8484 0.113 0.0
C1692 C 0.4329 0.13554 0.52941 0.0
C1693 C 0.4339 0.10497 0.54611 0.0
C1694 C 0.48535 0.09228 0.51758 0.0
C1695 C 0.48725 0.12532 0.50725 0.0
N1696 N 0.45386 0.16738 0.48397 0.0
N1697 N 0.45972 0.05211 0.55285 0.0
C1698 C 0.45774 0.14312 0.50656 0.0
C1699 C 0.45973 0.08263 0.53921 0.0
N1700 N 0.41038 0.15879 0.53752 0.0
N1701 N 0.50321 0.06917 0.50174 0.0
H1702 H 0.43987 0.04256 0.56566 0.0
H1703 H 0.47999 0.03674 0.55233 0.0
H1704 H 0.5146 0.07433 0.47959 0.0
H1705 H 0.50083 0.04419 0.50611 0.0
H1706 H 0.41081 0.18236 0.5278 0.0
H1707 H 0.39368 0.15601 0.55653 0.0
H1708 H 0.43177 0.17956 0.48036 0.0
H1709 H 0.472 0.1724 0.46668 0.0
C1710 C 0.96075 0.41607 0.44764 0.0
C1711 C 0.93661 0.39256 0.43826 0.0
C1712 C 0.96474 0.35205 0.47175 0.0
C1713 C 0.99314 0.37165 0.4716 0.0
N1714 N 0.00742 0.42754 0.48249 0.0
N1715 N 0.91897 0.33572 0.43898 0.0
C1716 C 0.98882 0.40555 0.46573 0.0
C1717 C 0.93892 0.36002 0.45037 0.0
N1718 N 0.95656 0.44829 0.43984 0.0
N1719 N 0.96318 0.32528 0.4916 0.0
H1720 H 0.90225 0.33899 0.42001 0.0
H1721 H 0.92203 0.31128 0.44561 0.0
H1722 H 0.98218 0.31958 0.50773 0.0
H1723 H 0.94197 0.31131 0.49425 0.0
H1724 H 0.97493 0.4658 0.44192 0.0
H1725 H 0.93465 0.45747 0.43058 0.0
H1726 H 0.00522 0.45278 0.48026 0.0
H1727 H 0.02027 0.42056 0.50335 0.0
C1728 C 0.19281 0.39538 0.27417 0.0
C1729 C 0.2121 0.42331 0.28014 0.0
C1730 C 0.22257 0.4044 0.33583 0.0
C1731 C 0.20645 0.3742 0.32858 0.0
N1732 N 0.1865 0.33815 0.28598 0.0
N1733 N 0.23172 0.46108 0.3199 0.0
C1734 C 0.19411 0.36893 0.29645 0.0
C1735 C 0.22146 0.43022 0.31256 0.0
N1736 N 0.17224 0.39455 0.24794 0.0
N1737 N 0.24252 0.40714 0.36255 0.0
H1738 H 0.23182 0.47946 0.30209 0.0
H1739 H 0.23679 0.46888 0.34362 0.0
H1740 H 0.25024 0.38704 0.37614 0.0
H1741 H 0.256 0.42808 0.36789 0.0
H1742 H 0.15566 0.37555 0.244 0.0
H1743 H 0.16821 0.41498 0.23331 0.0
H1744 H 0.17955 0.33307 0.26197 0.0
H1745 H 0.19209 0.31728 0.29954 0.0
C1746 C 0.30046 0.58256 0.83624 0.0
C1747 C 0.29301 0.61646 0.83787 0.0
C1748 C 0.26657 0.61445 0.78431 0.0
C1749 C 0.27371 0.58043 0.78271 0.0
N1750 N 0.30052 0.53262 0.80388 0.0
N1751 N 0.26459 0.66368 0.81715 0.0
C1752 C 0.29152 0.56456 0.80783 0.0
C1753 C 0.2751 0.63223 0.81278 0.0
N1754 N 0.31497 0.56753 0.86241 0.0
N1755 N 0.2522 0.62986 0.75823 0.0
H1756 H 0.27023 0.67741 0.83786 0.0
H1757 H 0.24807 0.6755 0.80179 0.0
H1758 H 0.24415 0.61776 0.73731 0.0
H1759 H 0.25002 0.65511 0.75608 0.0
H1760 H 0.31875 0.54247 0.86434 0.0
H1761 H 0.32189 0.58012 0.88344 0.0
H1762 H 0.31599 0.52002 0.81969 0.0
H1763 H 0.29406 0.51902 0.78327 0.0
C1764 C 0.73688 0.12989 0.65995 0.0
C1765 C 0.70446 0.12212 0.65049 0.0
C1766 C 0.70208 0.07911 0.69234 0.0
C1767 C 0.73272 0.08993 0.7044 0.0
N1768 N 0.77677 0.12958 0.70356 0.0
N1769 N 0.65504 0.09047 0.65794 0.0
C1770 C 0.74961 0.11623 0.68914 0.0
C1771 C 0.68666 0.09703 0.66679 0.0
N1772 N 0.75555 0.15036 0.6412 0.0
N1773 N 0.68823 0.05132 0.70481 0.0
H1774 H 0.64351 0.10159 0.63808 0.0
H1775 H 0.63956 0.07525 0.67127 0.0
H1776 H 0.69909 0.03774 0.72353 0.0
H1777 H 0.66751 0.04021 0.69498 0.0
H1778 H 0.78053 0.15379 0.64499 0.0
H1779 H 0.74686 0.16193 0.6202 0.0
H1780 H 0.78771 0.15114 0.69548 0.0
H1781 H 0.78672 0.12111 0.72547 0.0
C1782 C 0.80314 0.90668 0.16012 0.0
C1783 C 0.79572 0.87308 0.15508 0.0
C1784 C 0.75798 0.87358 0.20144 0.0
C1785 C 0.7672 0.90647 0.20795 0.0
N1786 N 0.80056 0.95362 0.19649 0.0
N1787 N 0.76859 0.82343 0.17202 0.0
C1788 C 0.79033 0.9229 0.18808 0.0
C1789 C 0.77392 0.8562 0.17612 0.0
N1790 N 0.82214 0.92307 0.13799 0.0
N1791 N 0.73321 0.85925 0.21889 0.0
H1792 H 0.77779 0.81023 0.15235 0.0
H1793 H 0.75659 0.80875 0.18902 0.0
H1794 H 0.72158 0.87041 0.23858 0.0
H1795 H 0.7224 0.83709 0.21259 0.0
H1796 H 0.82573 0.94827 0.13824 0.0
H1797 H 0.83308 0.91169 0.11804 0.0
H1798 H 0.81987 0.96577 0.18519 0.0
H1799 H 0.79101 0.96628 0.21643 0.0
C1800 C 0.3232 0.17682 0.39037 0.0
C1801 C 0.34693 0.1991 0.37796 0.0
C1802 C 0.31929 0.24425 0.40553 0.0
C1803 C 0.29246 0.22326 0.41193 0.0
N1804 N 0.26924 0.16941 0.41428 0.0
N1805 N 0.36662 0.25452 0.37171 0.0
C1806 C 0.29478 0.18931 0.4059 0.0
C1807 C 0.34516 0.23288 0.38557 0.0
N1808 N 0.3282 0.14387 0.38783 0.0
N1809 N 0.31979 0.27519 0.41804 0.0
H1810 H 0.38527 0.24755 0.35587 0.0
H1811 H 0.36414 0.2798 0.37341 0.0
H1812 H 0.30103 0.28455 0.4324 0.0
H1813 H 0.34027 0.29034 0.41708 0.0
H1814 H 0.31325 0.12633 0.39864 0.0
H1815 H 0.34902 0.13385 0.37718 0.0
H1816 H 0.26726 0.14501 0.40736 0.0
H1817 H 0.24929 0.17791 0.4277 0.0
C1818 C 0.17551 0.81305 0.88425 0.0
C1819 C 0.15074 0.79112 0.87328 0.0
C1820 C 0.1793 0.74515 0.89904 0.0
C1821 C 0.20512 0.76676 0.90749 0.0
N1822 N 0.22466 0.82119 0.9169 0.0
N1823 N 0.12873 0.73652 0.8689 0.0
C1824 C 0.20216 0.80079 0.90286 0.0
C1825 C 0.15215 0.75726 0.88094 0.0
N1826 N 0.17416 0.84535 0.87576 0.0
N1827 N 0.18105 0.71308 0.90847 0.0
H1828 H 0.10888 0.74441 0.85493 0.0
H1829 H 0.12955 0.7112 0.87091 0.0
H1830 H 0.20076 0.70366 0.92166 0.0
H1831 H 0.16228 0.69616 0.90551 0.0
H1832 H 0.19298 0.86201 0.87975 0.0
H1833 H 0.15459 0.85543 0.86306 0.0
H1834 H 0.22262 0.84654 0.91734 0.0
H1835 H 0.24417 0.81244 0.93089 0.0
C1836 C 0.79887 0.27947 0.57147 0.0
C1837 C 0.77364 0.26236 0.58789 0.0
C1838 C 0.80542 0.26282 0.63883 0.0
C1839 C 0.83134 0.27837 0.62199 0.0
N1840 N 0.85561 0.29669 0.57128 0.0
N1841 N 0.75576 0.23099 0.63489 0.0
C1842 C 0.82902 0.2851 0.58792 0.0
C1843 C 0.77763 0.25222 0.62099 0.0
N1844 N 0.79352 0.29122 0.54058 0.0
N1845 N 0.80742 0.25804 0.6719 0.0
H1846 H 0.73536 0.22177 0.62269 0.0
H1847 H 0.75934 0.21997 0.65758 0.0
H1848 H 0.82844 0.26308 0.68549 0.0
H1849 H 0.78764 0.25082 0.68622 0.0
H1850 H 0.80975 0.30646 0.52822 0.0
H1851 H 0.77149 0.28773 0.52812 0.0
H1852 H 0.85661 0.29842 0.54589 0.0
H1853 H 0.8776 0.30292 0.58259 0.0
C1854 C 0.67741 0.68326 0.10739 0.0
C1855 C 0.65304 0.70441 0.12035 0.0
C1856 C 0.68348 0.75232 0.10067 0.0
C1857 C 0.70893 0.73125 0.09029 0.0
N1858 N 0.72767 0.67757 0.0761 0.0
N1859 N 0.6339 0.75892 0.13241 0.0
C1860 C 0.70516 0.6969 0.09144 0.0
C1861 C 0.65597 0.73892 0.11722 0.0
N1862 N 0.67443 0.65015 0.11119 0.0
N1863 N 0.68565 0.78514 0.09451 0.0
H1864 H 0.61403 0.75025 0.14581 0.0
H1865 H 0.63648 0.78416 0.13421 0.0
H1866 H 0.70594 0.79596 0.0835 0.0
H1867 H 0.66645 0.80145 0.09782 0.0
H1868 H 0.69306 0.63357 0.10644 0.0
H1869 H 0.65338 0.63887 0.12008 0.0
H1870 H 0.72522 0.65245 0.07301 0.0
H1871 H 0.74794 0.68715 0.0639 0.0
C1872 C 0.40682 0.28547 0.1947 0.0
C1873 C 0.40492 0.27647 0.22811 0.0
C1874 C 0.37038 0.32401 0.23954 0.0
C1875 C 0.36972 0.33119 0.20565 0.0
N1876 N 0.38447 0.31779 0.15014 0.0
N1877 N 0.38076 0.2837 0.2816 0.0
C1878 C 0.38712 0.31161 0.18293 0.0
C1879 C 0.38575 0.29491 0.25043 0.0
N1880 N 0.42801 0.26944 0.17452 0.0
N1881 N 0.35633 0.34503 0.26134 0.0
H1882 H 0.39135 0.26243 0.29083 0.0
H1883 H 0.36395 0.29395 0.29767 0.0
H1884 H 0.34321 0.36568 0.25421 0.0
H1885 H 0.35956 0.34328 0.28656 0.0
H1886 H 0.43319 0.27686 0.15071 0.0
H1887 H 0.44251 0.25004 0.18254 0.0
H1888 H 0.39362 0.30239 0.13213 0.0
H1889 H 0.37132 0.33748 0.14064 0.0
C1890 C 0.8898 0.1727 0.81627 0.0
C1891 C 0.87742 0.14934 0.79361 0.0
C1892 C 0.91125 0.1734 0.75065 0.0
C1893 C 0.9172 0.20064 0.77107 0.0
N1894 N 0.91573 0.22572 0.82398 0.0
N1895 N 0.87434 0.129 0.73816 0.0
C1896 C 0.90795 0.19985 0.80433 0.0
C1897 C 0.88808 0.14966 0.76061 0.0
N1898 N 0.88493 0.16847 0.84908 0.0
N1899 N 0.92722 0.1706 0.7215 0.0
H1900 H 0.85588 0.11235 0.7439 0.0
H1901 H 0.87885 0.13064 0.71315 0.0
H1902 H 0.94447 0.18761 0.7136 0.0
H1903 H 0.92612 0.14964 0.70709 0.0
H1904 H 0.89533 0.18346 0.86682 0.0
H1905 H 0.87285 0.14825 0.85887 0.0
H1906 H 0.90648 0.22896 0.84744 0.0
H1907 H 0.93091 0.24467 0.81598 0.0
C1908 C 0.59013 0.78876 0.29502 0.0
C1909 C 0.58526 0.78536 0.2609 0.0
C1910 C 0.61474 0.83651 0.25052 0.0
C1911 C 0.62033 0.8396 0.28461 0.0
N1912 N 0.60785 0.82317 0.33998 0.0
N1913 N 0.58547 0.80917 0.20682 0.0
C1914 C 0.60632 0.81705 0.30712 0.0
C1915 C 0.59491 0.81047 0.2389 0.0
N1916 N 0.57985 0.76444 0.31559 0.0
N1917 N 0.63022 0.8571 0.22911 0.0
H1918 H 0.57201 0.7899 0.197 0.0
H1919 H 0.58852 0.82846 0.19046 0.0
H1920 H 0.64556 0.87608 0.23656 0.0
H1921 H 0.63019 0.85386 0.20387 0.0
H1922 H 0.58588 0.76314 0.3403 0.0
H1923 H 0.56592 0.74462 0.30749 0.0
H1924 H 0.59592 0.80926 0.35763 0.0
H1925 H 0.61896 0.84394 0.34972 0.0
C1926 C 0.09751 0.69889 0.69991 0.0
C1927 C 0.10398 0.71185 0.73132 0.0
C1928 C 0.14781 0.67197 0.73982 0.0
C1929 C 0.14329 0.66098 0.70732 0.0
N1930 N 0.11718 0.66663 0.65446 0.0
N1931 N 0.13933 0.71554 0.77876 0.0
C1932 C 0.1192 0.67533 0.68669 0.0
C1933 C 0.13023 0.6997 0.7507 0.0
N1934 N 0.07009 0.7084 0.68323 0.0
N1935 N 0.1687 0.65577 0.76035 0.0
H1936 H 0.12762 0.73638 0.78748 0.0
H1937 H 0.16038 0.70983 0.79194 0.0
H1938 H 0.18305 0.63614 0.75282 0.0
H1939 H 0.17012 0.66031 0.78538 0.0
H1940 H 0.06203 0.69728 0.66178 0.0
H1941 H 0.05373 0.72566 0.69235 0.0
H1942 H 0.10236 0.67855 0.6375 0.0
H1943 H 0.13223 0.64912 0.64382 0.0
C1944 C 0.74177 0.59536 0.68947 0.0
C1945 C 0.76483 0.58137 0.71142 0.0
C1946 C 0.81004 0.59958 0.67682 0.0
C1947 C 0.78699 0.61402 0.65511 0.0
N1948 N 0.73119 0.61996 0.6366 0.0
N1949 N 0.81941 0.56304 0.72292 0.0
C1950 C 0.75292 0.60984 0.65999 0.0
C1951 C 0.79859 0.58118 0.70404 0.0
N1952 N 0.70936 0.59645 0.69772 0.0
N1953 N 0.84279 0.60398 0.6717 0.0
H1954 H 0.81131 0.54929 0.74287 0.0
H1955 H 0.84394 0.55928 0.71735 0.0
H1956 H 0.85209 0.61607 0.65128 0.0
H1957 H 0.86082 0.59706 0.68832 0.0
H1958 H 0.69202 0.61018 0.6851 0.0
H1959 H 0.69982 0.58511 0.71847 0.0
H1960 H 0.70645 0.61392 0.63682 0.0
H1961 H 0.73811 0.63264 0.61561 0.0
C1962 C 0.73701 0.37211 0.15627 0.0
C1963 C 0.70297 0.36666 0.15206 0.0
C1964 C 0.69139 0.39577 0.20315 0.0
C1965 C 0.7253 0.39714 0.20938 0.0
N1966 N 0.78108 0.38771 0.19291 0.0
N1967 N 0.64731 0.37263 0.17116 0.0
C1968 C 0.74835 0.38614 0.18594 0.0
C1969 C 0.67999 0.37848 0.17533 0.0
N1970 N 0.75847 0.36336 0.1322 0.0
N1971 N 0.67029 0.41149 0.2237 0.0
H1972 H 0.63756 0.36216 0.15013 0.0
H1973 H 0.62981 0.37685 0.18909 0.0
H1974 H 0.67826 0.42431 0.24428 0.0
H1975 H 0.64544 0.4144 0.21897 0.0
H1976 H 0.78296 0.37031 0.13188 0.0
H1977 H 0.75163 0.35029 0.11143 0.0
H1978 H 0.79912 0.37635 0.17912 0.0
H1979 H 0.79039 0.39942 0.21358 0.0
C1980 C 0.27247 0.8657 0.28004 0.0
C1981 C 0.26828 0.9001 0.28098 0.0
C1982 C 0.29382 0.90222 0.33507 0.0
C1983 C 0.29422 0.86737 0.3358 0.0
N1984 N 0.2789 0.81588 0.31117 0.0
N1985 N 0.27317 0.95152 0.30902 0.0
C1986 C 0.28263 0.84904 0.30871 0.0
C1987 C 0.27856 0.91853 0.30839 0.0
N1988 N 0.2663 0.84881 0.25183 0.0
N1989 N 0.30892 0.91969 0.35929 0.0
H1990 H 0.26392 0.96438 0.28897 0.0
H1991 H 0.27625 0.96593 0.32976 0.0
H1992 H 0.32155 0.90885 0.37861 0.0
H1993 H 0.31184 0.94497 0.35879 0.0
H1994 H 0.27274 0.82442 0.24853 0.0
H1995 H 0.25724 0.85969 0.23061 0.0
H1996 H 0.267 0.80175 0.29363 0.0
H1997 H 0.28468 0.80261 0.33215 0.0
C1998 C 0.19641 0.12707 0.79989 0.0
C1999 C 0.19754 0.11149 0.8309 0.0
C2000 C 0.21884 0.0616 0.80521 0.0
C2001 C 0.21727 0.07745 0.77445 0.0
N2002 N 0.19503 0.12089 0.74121 0.0
N2003 N 0.20531 0.06214 0.86292 0.0
C2004 C 0.20255 0.10859 0.77139 0.0
C2005 C 0.20739 0.07814 0.8336 0.0
N2006 N 0.19205 0.16017 0.79775 0.0
N2007 N 0.23219 0.03103 0.80706 0.0
H2008 H 0.19789 0.07327 0.88449 0.0
H2009 H 0.20918 0.03718 0.86584 0.0
H2010 H 0.2384 0.01779 0.78616 0.0
H2011 H 0.23793 0.01915 0.82884 0.0
H2012 H 0.19446 0.17326 0.77601 0.0
H2013 H 0.18986 0.17527 0.81814 0.0
H2014 H 0.18116 0.14198 0.73785 0.0
H2015 H 0.19941 0.10835 0.71955 0.0
C2016 C 0.67673 0.7735 0.57296 0.0
C2017 C 0.70679 0.76707 0.58901 0.0
C2018 C 0.68251 0.7807 0.64186 0.0
C2019 C 0.65281 0.78885 0.62585 0.0
N2020 N 0.62285 0.798 0.57554 0.0
N2021 N 0.74059 0.77112 0.63743 0.0
C2022 C 0.65018 0.78665 0.59116 0.0
C2023 C 0.71047 0.77316 0.62296 0.0
N2024 N 0.6736 0.76651 0.54041 0.0
N2025 N 0.6834 0.77759 0.67517 0.0
H2026 H 0.76167 0.76418 0.62505 0.0
H2027 H 0.74525 0.77916 0.66115 0.0
H2028 H 0.66293 0.78069 0.68995 0.0
H2029 H 0.70338 0.76826 0.68794 0.0
H2030 H 0.65142 0.76661 0.52789 0.0
H2031 H 0.69334 0.7591 0.52608 0.0
H2032 H 0.62049 0.79941 0.55024 0.0
H2033 H 0.60334 0.80892 0.58765 0.0
C2034 C 0.78091 0.18291 0.0803 0.0
C2035 C 0.78297 0.21383 0.06452 0.0
C2036 C 0.83682 0.22288 0.08817 0.0
C2037 C 0.83446 0.19312 0.10585 0.0
N2038 N 0.80878 0.14 0.11074 0.0
N2039 N 0.823 0.24737 0.03675 0.0
C2040 C 0.80783 0.17148 0.0995 0.0
C2041 C 0.81384 0.22943 0.06329 0.0
N2042 N 0.75298 0.1649 0.07692 0.0
N2043 N 0.86056 0.24534 0.09515 0.0
H2044 H 0.81063 0.24573 0.01461 0.0
H2045 H 0.84622 0.25774 0.03456 0.0
H2046 H 0.87718 0.24256 0.11428 0.0
H2047 H 0.86126 0.2683 0.08398 0.0
H2048 H 0.74788 0.14385 0.09032 0.0
H2049 H 0.73438 0.17203 0.06089 0.0
H2050 H 0.79142 0.12235 0.10476 0.0
H2051 H 0.82851 0.1305 0.12382 0.0
C2052 C 0.18199 0.72126 0.35147 0.0
C2053 C 0.15614 0.70648 0.36924 0.0
C2054 C 0.18589 0.71486 0.42086 0.0
C2055 C 0.21025 0.73206 0.40337 0.0
N2056 N 0.23151 0.75389 0.35278 0.0
N2057 N 0.13188 0.6905 0.42071 0.0
C2058 C 0.20844 0.73565 0.36882 0.0
C2059 C 0.15764 0.70363 0.40394 0.0
N2060 N 0.18118 0.72161 0.31799 0.0
N2061 N 0.19023 0.70875 0.45349 0.0
H2062 H 0.11176 0.68007 0.40917 0.0
H2063 H 0.12951 0.6913 0.44603 0.0
H2064 H 0.21056 0.71709 0.46653 0.0
H2065 H 0.17518 0.69349 0.46722 0.0
H2066 H 0.20091 0.72833 0.30342 0.0
H2067 H 0.1612 0.71346 0.30437 0.0
H2068 H 0.22944 0.76125 0.3285 0.0
H2069 H 0.25227 0.76335 0.36422 0.0
C2070 C 0.28621 0.28805 0.89187 0.0
C2071 C 0.28374 0.25427 0.89822 0.0
C2072 C 0.33407 0.24383 0.86751 0.0
C2073 C 0.33481 0.27733 0.8582 0.0
N2074 N 0.3114 0.33182 0.86111 0.0
N2075 N 0.30893 0.20123 0.90059 0.0
C2076 C 0.311 0.29969 0.87049 0.0
C2077 C 0.30898 0.23254 0.88882 0.0
N2078 N 0.26526 0.30892 0.90738 0.0
N2079 N 0.35592 0.22245 0.85403 0.0
H2080 H 0.29066 0.19219 0.91587 0.0
H2081 H 0.3282 0.18493 0.89771 0.0
H2082 H 0.37385 0.22955 0.83736 0.0
H2083 H 0.35498 0.19723 0.85715 0.0
H2084 H 0.2673 0.33427 0.90682 0.0
H2085 H 0.24743 0.3006 0.92365 0.0
H2086 H 0.29256 0.34818 0.86583 0.0
H2087 H 0.3297 0.34236 0.84699 0.0
C2088 C 0.59759 0.6812 0.74786 0.0
C2089 C 0.58587 0.70452 0.77055 0.0
C2090 C 0.60273 0.66948 0.81593 0.0
C2091 C 0.62004 0.64953 0.7934 0.0
N2092 N 0.63542 0.63693 0.7378 0.0
N2093 N 0.57565 0.72131 0.82587 0.0
C2094 C 0.61739 0.6551 0.75923 0.0
C2095 C 0.58757 0.69858 0.80456 0.0
N2096 N 0.59001 0.68439 0.71543 0.0
N2097 N 0.59997 0.66009 0.84792 0.0
H2098 H 0.56279 0.74193 0.81806 0.0
H2099 H 0.57965 0.7205 0.85102 0.0
H2100 H 0.61034 0.63868 0.85709 0.0
H2101 H 0.58493 0.67183 0.86468 0.0
H2102 H 0.59515 0.66659 0.69803 0.0
H2103 H 0.57568 0.7035 0.70646 0.0
H2104 H 0.6372 0.64222 0.71295 0.0
H2105 H 0.6509 0.61806 0.74515 0.0
C2106 C 0.08592 0.83461 0.19317 0.0
C2107 C 0.11939 0.8394 0.20152 0.0
C2108 C 0.11935 0.78911 0.23391 0.0
C2109 C 0.08653 0.78333 0.22383 0.0
N2110 N 0.0398 0.79713 0.19085 0.0
N2111 N 0.16867 0.82164 0.22887 0.0
C2112 C 0.07011 0.80514 0.2026 0.0
C2113 C 0.13635 0.81666 0.22149 0.0
N2114 N 0.06912 0.85839 0.17668 0.0
N2115 N 0.13379 0.76888 0.25644 0.0
H2116 H 0.18111 0.84328 0.22355 0.0
H2117 H 0.18374 0.804 0.23932 0.0
H2118 H 0.12307 0.74735 0.26494 0.0
H2119 H 0.15574 0.77405 0.26826 0.0
H2120 H 0.04384 0.85818 0.17357 0.0
H2121 H 0.08008 0.87938 0.16725 0.0
H2122 H 0.02777 0.8102 0.17259 0.0
H2123 H 0.02764 0.77569 0.19758 0.0
C2124 C 0.35479 0.18254 0.72558 0.0
C2125 C 0.36239 0.16854 0.69498 0.0
C2126 C 0.41097 0.20313 0.69001 0.0
C2127 C 0.40256 0.21831 0.71991 0.0
N2128 N 0.36217 0.22844 0.76197 0.0
N2129 N 0.39337 0.16894 0.64487 0.0
C2130 C 0.37317 0.20978 0.73653 0.0
C2131 C 0.38918 0.17995 0.67616 0.0
N2132 N 0.33067 0.16925 0.74457 0.0
N2133 N 0.44019 0.21012 0.67548 0.0
H2134 H 0.37753 0.15221 0.63388 0.0
H2135 H 0.41069 0.17843 0.6288 0.0
H2136 H 0.45624 0.22757 0.6848 0.0
H2137 H 0.44952 0.19721 0.65568 0.0
H2138 H 0.32685 0.17582 0.76887 0.0
H2139 H 0.31586 0.14998 0.73673 0.0
H2140 H 0.33947 0.22507 0.77299 0.0
H2141 H 0.37414 0.24944 0.7701 0.0
C2142 C 0.85103 0.29866 0.28727 0.0
C2143 C 0.86772 0.32807 0.29499 0.0
C2144 C 0.91878 0.30569 0.27309 0.0
C2145 C 0.90206 0.27624 0.26594 0.0
N2146 N 0.85499 0.24134 0.27359 0.0
N2147 N 0.91881 0.35685 0.30287 0.0
C2148 C 0.86914 0.27158 0.27576 0.0
C2149 C 0.90208 0.33079 0.2902 0.0
N2150 N 0.81763 0.29728 0.28853 0.0
N2151 N 0.95029 0.30987 0.26277 0.0
H2152 H 0.90753 0.37522 0.31637 0.0
H2153 H 0.9442 0.35878 0.30272 0.0
H2154 H 0.96367 0.29114 0.25183 0.0
H2155 H 0.96257 0.33217 0.26359 0.0
H2156 H 0.804 0.27779 0.27937 0.0
H2157 H 0.80313 0.3168 0.29586 0.0
H2158 H 0.83235 0.23575 0.28383 0.0
H2159 H 0.86702 0.22096 0.26427 0.0
C2160 C 0.19531 0.3964 0.50344 0.0
C2161 C 0.19808 0.36281 0.51164 0.0
C2162 C 0.23038 0.37733 0.56 0.0
C2163 C 0.22881 0.41061 0.55049 0.0
N2164 N 0.21965 0.44991 0.50705 0.0
N2165 N 0.22467 0.32073 0.54347 0.0
C2166 C 0.215 0.41942 0.51996 0.0
C2167 C 0.21763 0.35299 0.53867 0.0
N2168 N 0.17191 0.40682 0.48188 0.0
N2169 N 0.24348 0.3692 0.58968 0.0
H2170 H 0.21648 0.30251 0.52771 0.0
H2171 H 0.24104 0.31242 0.56117 0.0
H2172 H 0.25495 0.3864 0.60468 0.0
H2173 H 0.24177 0.34589 0.59984 0.0
H2174 H 0.16703 0.43144 0.47753 0.0
H2175 H 0.15453 0.39124 0.47163 0.0
H2176 H 0.21229 0.45601 0.48339 0.0
H2177 H 0.23427 0.46768 0.51791 0.0
C2178 C 0.26054 0.61187 0.06173 0.0
C2179 C 0.27815 0.58204 0.06155 0.0
C2180 C 0.32086 0.60653 0.02817 0.0
C2181 C 0.30212 0.63533 0.02528 0.0
N2182 N 0.25251 0.66507 0.0361 0.0
N2183 N 0.31772 0.54839 0.03421 0.0
C2184 C 0.27132 0.63796 0.04108 0.0
C2185 C 0.3063 0.57867 0.04189 0.0
N2186 N 0.23429 0.61544 0.08199 0.0
N2187 N 0.35251 0.60552 0.01758 0.0
H2188 H 0.30459 0.52758 0.04043 0.0
H2189 H 0.3367 0.54435 0.01772 0.0
H2190 H 0.36427 0.62548 0.00695 0.0
H2191 H 0.36787 0.58568 0.02203 0.0
H2192 H 0.22225 0.63757 0.08547 0.0
H2193 H 0.22572 0.59648 0.09679 0.0
H2194 H 0.22848 0.66709 0.04421 0.0
H2195 H 0.26062 0.68498 0.02232 0.0
C2196 C 0.71975 0.11092 0.48321 0.0
C2197 C 0.69433 0.13176 0.47114 0.0
C2198 C 0.70831 0.11493 0.41571 0.0
C2199 C 0.72648 0.08853 0.4283 0.0
N2200 N 0.74932 0.06055 0.47533 0.0
N2201 N 0.65943 0.14558 0.42488 0.0
C2202 C 0.73279 0.08653 0.46234 0.0
C2203 C 0.68757 0.13222 0.43697 0.0
N2204 N 0.73198 0.11429 0.51415 0.0
N2205 N 0.70904 0.12172 0.38303 0.0
H2206 H 0.64024 0.15295 0.43974 0.0
H2207 H 0.65296 0.14434 0.40023 0.0
H2208 H 0.72415 0.10881 0.36704 0.0
H2209 H 0.69746 0.14208 0.37291 0.0
H2210 H 0.75284 0.10203 0.52219 0.0
H2211 H 0.72377 0.13136 0.53091 0.0
H2212 H 0.74982 0.05553 0.50034 0.0
H2213 H 0.76136 0.0431 0.46141 0.0
C2214 C 0.79691 0.89308 0.97837 0.0
C2215 C 0.79687 0.85935 0.9706 0.0
C2216 C 0.75992 0.87144 0.92463 0.0
C2217 C 0.75784 0.90439 0.93515 0.0
N2218 N 0.76377 0.94148 0.98062 0.0
N2219 N 0.77119 0.81539 0.94023 0.0
C2220 C 0.77248 0.9134 0.9651 0.0
C2221 C 0.77623 0.84804 0.94483 0.0
N2222 N 0.8219 0.90646 -0.00403 0.0
N2223 N 0.74664 0.86266 0.89528 0.0
H2224 H 0.78132 0.79762 0.95538 0.0
H2225 H 0.7543 0.80617 0.92349 0.0
H2226 H 0.73282 0.87891 0.8812 0.0
H2227 H 0.75059 0.83993 0.88452 0.0
H2228 H 0.82373 0.93152 0.00041 0.0
H2229 H 0.84301 0.89323 0.0013 0.0
H2230 H 0.77349 0.94808 0.0033 0.0
H2231 H 0.74373 0.95531 0.97316 0.0
C2232 C 0.58419 0.20925 0.37718 0.0
C2233 C 0.57137 0.2292 0.40226 0.0
C2234 C 0.51768 0.2254 0.37566 0.0
C2235 C 0.52912 0.19837 0.35674 0.0
N2236 N 0.57361 0.16052 0.34637 0.0
N2237 N 0.52487 0.25883 0.42377 0.0
C2238 C 0.56264 0.18947 0.35878 0.0
C2239 C 0.53793 0.23851 0.40082 0.0
N2240 N 0.61714 0.20803 0.37213 0.0
N2241 N 0.48798 0.23933 0.36927 0.0
H2242 H 0.53882 0.27362 0.43903 0.0
H2243 H 0.49975 0.26107 0.42746 0.0
H2244 H 0.47219 0.23129 0.35107 0.0
H2245 H 0.48033 0.26112 0.37992 0.0
H2246 H 0.62756 0.19508 0.35284 0.0
H2247 H 0.63333 0.22298 0.3851 0.0
H2248 H 0.5975 0.15231 0.34982 0.0
H2249 H 0.55813 0.14261 0.337 0.0
C2250 C 0.92639 0.80571 0.90209 0.0
C2251 C 0.91588 0.77292 0.89765 0.0
C2252 C 0.95162 0.76804 0.84987 0.0
C2253 C 0.96463 0.79945 0.857 0.0
N2254 N 0.97054 0.84376 0.89538 0.0
N2255 N 0.91995 0.7215 0.8695 0.0
C2256 C 0.95372 0.81703 0.8846 0.0
C2257 C 0.92891 0.75358 0.8721 0.0
N2258 N 0.91052 0.82634 0.92304 0.0
N2259 N 0.96082 0.75229 0.82195 0.0
H2260 H 0.90234 0.71093 0.88467 0.0
H2261 H 0.93099 0.70512 0.85352 0.0
H2262 H 0.97821 0.7619 0.80594 0.0
H2263 H 0.94997 0.73077 0.81374 0.0
H2264 H 0.91521 0.85138 0.92391 0.0
H2265 H 0.89068 0.81967 0.93743 0.0
H2266 H 0.96593 0.85521 0.91764 0.0
H2267 H 0.99148 0.85213 0.88386 0.0
C2268 C 0.06015 0.26305 0.60995 0.0
C2269 C 0.06067 0.28191 0.58087 0.0
C2270 C 0.02888 0.32471 0.60715 0.0
C2271 C 0.02378 0.30403 0.63426 0.0
N2272 N 0.03484 0.25392 0.66302 0.0
N2273 N 0.03863 0.32658 0.54937 0.0
C2274 C 0.03963 0.27323 0.63621 0.0
C2275 C 0.04317 0.31165 0.57883 0.0
N2276 N 0.07923 0.23576 0.61234 0.0
N2277 N 0.0201 0.35686 0.60846 0.0
H2278 H 0.04607 0.31568 0.52774 0.0
H2279 H 0.02375 0.34699 0.54607 0.0
H2280 H 0.01126 0.36751 0.62974 0.0
H2281 H 0.02556 0.37363 0.59003 0.0
H2282 H 0.08223 0.22241 0.63383 0.0
H2283 H 0.09339 0.22732 0.5929 0.0
H2284 H 0.04271 0.2298 0.66475 0.0
H2285 H 0.0223 0.26226 0.68354 0.0
C2286 C 0.47762 0.69926 0.09455 0.0
C2287 C 0.468 0.69943 0.12781 0.0
C2288 C 0.42184 0.73474 0.11289 0.0
C2289 C 0.43352 0.73584 0.08031 0.0
N2290 N 0.48064 0.73106 0.0452 0.0
N2291 N 0.43517 0.72499 0.16981 0.0
C2292 C 0.46444 0.72265 0.07305 0.0
C2293 C 0.44134 0.71957 0.13752 0.0
N2294 N 0.49649 0.67467 0.08249 0.0
N2295 N 0.39192 0.74761 0.12 0.0
H2296 H 0.44998 0.7157 0.18827 0.0
H2297 H 0.41756 0.74141 0.17799 0.0
H2298 H 0.37833 0.76061 0.10266 0.0
H2299 H 0.38029 0.74422 0.14241 0.0
H2300 H 0.50239 0.67281 0.05774 0.0
H2301 H 0.50156 0.65378 0.09622 0.0
H2302 H 0.50459 0.72346 0.04102 0.0
H2303 H 0.47227 0.74908 0.02923 0.0
C2304 C 0.39121 0.56408 0.17863 0.0
C2305 C 0.39021 0.57368 0.21207 0.0
C2306 C 0.34444 0.53595 0.22179 0.0
C2307 C 0.34791 0.52401 0.18941 0.0
N2308 N 0.37567 0.52481 0.1375 0.0
N2309 N 0.36704 0.56902 0.26591 0.0
C2310 C 0.37111 0.53804 0.1678 0.0
C2311 C 0.36697 0.55982 0.23378 0.0
N2312 N 0.41193 0.57925 0.15708 0.0
N2313 N 0.31929 0.52466 0.24071 0.0
H2314 H 0.38222 0.58751 0.27486 0.0
H2315 H 0.35317 0.55765 0.28397 0.0
H2316 H 0.30246 0.50738 0.23228 0.0
H2317 H 0.31349 0.53399 0.26362 0.0
H2318 H 0.40985 0.57713 0.13179 0.0
H2319 H 0.43047 0.59535 0.16375 0.0
H2320 H 0.39572 0.52973 0.12262 0.0
H2321 H 0.36031 0.50708 0.12788 0.0
C2322 C 0.8747 0.95555 0.82186 0.0
C2323 C 0.84803 0.96502 0.80234 0.0
C2324 C 0.87436 0.94036 0.75454 0.0
C2325 C 0.90271 0.9355 0.77383 0.0
N2326 N 0.93285 0.95071 0.8219 0.0
N2327 N 0.8225 0.96909 0.74929 0.0
C2328 C 0.90375 0.94676 0.80634 0.0
C2329 C 0.84778 0.9583 0.76824 0.0
N2330 N 0.87239 0.95477 0.85515 0.0
N2331 N 0.87285 0.92774 0.72372 0.0
H2332 H 0.80215 0.98073 0.75925 0.0
H2333 H 0.82246 0.96769 0.72386 0.0
H2334 H 0.89263 0.91561 0.71316 0.0
H2335 H 0.8517 0.92801 0.70947 0.0
H2336 H 0.89115 0.94605 0.87012 0.0
H2337 H 0.8503 0.95839 0.86723 0.0
H2338 H 0.93475 0.96061 0.84531 0.0
H2339 H 0.9547 0.94904 0.80905 0.0
C2340 C 0.57713 0.03469 0.28327 0.0
C2341 C 0.58569 0.06295 0.26546 0.0
C2342 C 0.64351 0.05053 0.27549 0.0
C2343 C 0.63392 0.02598 0.29825 0.0
N2344 N 0.59052 0.00517 0.33216 0.0
N2345 N 0.62736 0.0999 0.24635 0.0
C2346 C 0.60037 0.02088 0.30448 0.0
C2347 C 0.6191 0.07161 0.26205 0.0
N2348 N 0.54681 0.0212 0.28035 0.0
N2349 N 0.67535 0.05312 0.26605 0.0
H2350 H 0.6099 0.11467 0.23494 0.0
H2351 H 0.65108 0.10924 0.24605 0.0
H2352 H 0.69328 0.03725 0.27463 0.0
H2353 H 0.6832 0.06891 0.24763 0.0
H2354 H 0.54014 -0.00033 0.29235 0.0
H2355 H 0.53053 0.02892 0.26234 0.0
H2356 H 0.56597 0.00265 0.33848 0.0
H2357 H 0.60702 -0.0013 0.35057 0.0
C2358 C 0.10044 0.4717 0.66678 0.0
C2359 C 0.12927 0.47606 0.68539 0.0
C2360 C 0.10914 0.43836 0.7274 0.0
C2361 C 0.08213 0.43107 0.70685 0.0
N2362 N 0.0525 0.43911 0.65595 0.0
N2363 N 0.16263 0.4639 0.73246 0.0
C2364 C 0.07785 0.44731 0.67628 0.0
C2365 C 0.13401 0.45968 0.71562 0.0
N2366 N 0.0943 0.49154 0.64045 0.0
N2367 N 0.11091 0.4249 0.75799 0.0
H2368 H 0.18071 0.48031 0.725 0.0
H2369 H 0.16931 0.45015 0.75282 0.0
H2370 H 0.09384 0.40805 0.76671 0.0
H2371 H 0.12813 0.43172 0.77549 0.0
H2372 H 0.07189 0.49248 0.62834 0.0
H2373 H 0.11069 0.50927 0.63219 0.0
H2374 H 0.05084 0.4467 0.63168 0.0
H2375 H 0.03384 0.42307 0.66233 0.0
C2376 C 0.75176 0.61289 0.43515 0.0
C2377 C 0.77413 0.58946 0.423 0.0
C2378 C 0.81946 0.61891 0.44845 0.0
C2379 C 0.79702 0.63923 0.46507 0.0
N2380 N 0.7414 0.65598 0.47472 0.0
N2381 N 0.82799 0.56528 0.42652 0.0
C2382 C 0.76294 0.63641 0.45845 0.0
C2383 C 0.80766 0.59124 0.43172 0.0
N2384 N 0.72021 0.61291 0.42411 0.0
N2385 N 0.85216 0.62544 0.44878 0.0
H2386 H 0.82005 0.54336 0.4165 0.0
H2387 H 0.8517 0.56401 0.43588 0.0
H2388 H 0.86209 0.64602 0.4597 0.0
H2389 H 0.86888 0.61257 0.43456 0.0
H2390 H 0.70335 0.63106 0.42981 0.0
H2391 H 0.71155 0.59588 0.40719 0.0
H2392 H 0.71616 0.65272 0.47404 0.0
H2393 H 0.74908 0.67499 0.48994 0.0
C2394 C 0.73041 0.36689 0.91297 0.0
C2395 C 0.73825 0.39844 0.92475 0.0
C2396 C 0.70327 0.39021 0.9714 0.0
C2397 C 0.6963 0.35776 0.96157 0.0
N2398 N 0.71037 0.31269 0.92555 0.0
N2399 N 0.74472 0.43197 0.97274 0.0
C2400 C 0.71212 0.34509 0.93315 0.0
C2401 C 0.72951 0.40695 0.95687 0.0
N2402 N 0.73955 0.35839 0.88205 0.0
N2403 N 0.6826 0.40647 0.99169 0.0
H2404 H 0.76536 0.44349 0.96312 0.0
H2405 H 0.73904 0.43818 -0.00319 0.0
H2406 H 0.65947 0.39709 -0.00319 0.0
H2407 H 0.68605 0.4309 -0.00185 0.0
H2408 H 0.73123 0.33738 0.87027 0.0
H2409 H 0.75458 0.37347 0.86788 0.0
H2410 H 0.72414 0.30207 0.907 0.0
H2411 H 0.69731 0.29585 0.93928 0.0
C2412 C 0.26085 0.87932 0.56053 0.0
C2413 C 0.28219 0.90192 0.57601 0.0
C2414 C 0.32822 0.88213 0.54341 0.0
C2415 C 0.30731 0.85857 0.52897 0.0
N2416 N 0.25524 0.83112 0.5262 0.0
N2417 N 0.33743 0.92212 0.58552 0.0
C2418 C 0.274 0.85606 0.53828 0.0
C2419 C 0.31627 0.90219 0.5688 0.0
N2420 N 0.22803 0.88057 0.56675 0.0
N2421 N 0.35899 0.887 0.53125 0.0
H2422 H 0.33041 0.94063 0.60136 0.0
H2423 H 0.36271 0.91915 0.58503 0.0
H2424 H 0.36883 0.87293 0.51263 0.0
H2425 H 0.37382 0.90678 0.5374 0.0
H2426 H 0.21058 0.86748 0.5536 0.0
H2427 H 0.218 0.896 0.58436 0.0
H2428 H 0.23164 0.82596 0.53415 0.0
H2429 H 0.26418 0.81399 0.50959 0.0
C2430 C 0.21083 0.11421 0.07624 0.0
C2431 C 0.23155 0.08927 0.06456 0.0
C2432 C 0.22683 0.11344 0.01006 0.0
C2433 C 0.1984 0.13083 0.02021 0.0
N2434 N 0.16019 0.14121 0.06481 0.0
N2435 N 0.25874 0.06456 0.01796 0.0
C2436 C 0.18973 0.13011 0.05397 0.0
C2437 C 0.23993 0.08885 0.03085 0.0
N2438 N 0.2099 0.12113 0.10885 0.0
N2439 N 0.24205 0.12091 0.98129 0.0
H2440 H 0.27036 0.04672 0.03183 0.0
H2441 H 0.26142 0.06137 0.9928 0.0
H2442 H 0.23536 0.14084 0.96684 0.0
H2443 H 0.26401 0.11012 0.97421 0.0
H2444 H 0.19641 0.14057 0.11829 0.0
H2445 H 0.2255 0.10963 0.12553 0.0
H2446 H 0.15281 0.13888 0.0891 0.0
H2447 H 0.14114 0.14799 0.04941 0.0
C2448 C 0.45225 0.77061 0.64572 0.0
C2449 C 0.46533 0.80218 0.6394 0.0
C2450 C 0.43059 0.80763 0.5911 0.0
C2451 C 0.42017 0.77466 0.59525 0.0
N2452 N 0.42265 0.72357 0.62439 0.0
N2453 N 0.47124 0.84856 0.60337 0.0
C2454 C 0.43148 0.75572 0.62198 0.0
C2455 C 0.45561 0.82009 0.6114 0.0
N2456 N 0.45905 0.75533 0.67467 0.0
N2457 N 0.41651 0.82738 0.56796 0.0
H2458 H 0.48922 0.85901 0.618 0.0
H2459 H 0.46848 0.86034 0.58092 0.0
H2460 H 0.39904 0.81963 0.55118 0.0
H2461 H 0.4202 0.85257 0.56699 0.0
H2462 H 0.44789 0.73369 0.68217 0.0
H2463 H 0.47409 0.76572 0.69245 0.0
H2464 H 0.43275 0.70745 0.64134 0.0
H2465 H 0.4064 0.71255 0.60804 0.0
C2466 C 0.01575 0.22864 0.11612 0.0
C2467 C 0.02295 0.19851 0.1322 0.0
C2468 C 0.07931 0.20431 0.11361 0.0
C2469 C 0.06947 0.22693 0.0894 0.0
N2470 N 0.02815 0.26537 0.07132 0.0
N2471 N 0.06236 0.15452 0.13911 0.0
C2472 C 0.03765 0.24077 0.09178 0.0
C2473 C 0.05516 0.18566 0.12963 0.0
N2474 N 0.98909 0.24652 0.12521 0.0
N2475 N 0.11167 0.19976 0.12037 0.0
H2476 H 0.04448 0.13761 0.14538 0.0
H2477 H 0.08538 0.14414 0.1356 0.0
H2478 H 0.12974 0.21455 0.10999 0.0
H2479 H 0.1197 0.18431 0.13906 0.0
H2480 H 0.98408 0.26973 0.11595 0.0
H2481 H 0.97435 0.24006 0.14496 0.0
H2482 H 0.00377 0.27222 0.06841 0.0
H2483 H 0.04464 0.27928 0.0578 0.0
C2484 C 0.94212 0.66866 0.36686 0.0
C2485 C 0.96238 0.6911 0.3504 0.0
C2486 C 0.93994 0.73503 0.38469 0.0
C2487 C 0.92581 0.71078 0.40515 0.0
N2488 N 0.92298 0.65346 0.4199 0.0
N2489 N 0.97801 0.74694 0.34055 0.0
C2490 C 0.92944 0.67729 0.39739 0.0
C2491 C 0.96049 0.72486 0.35841 0.0
N2492 N 0.93416 0.6394 0.35335 0.0
N2493 N 0.93313 0.76729 0.38983 0.0
H2494 H 0.98968 0.74028 0.31891 0.0
H2495 H 0.98107 0.77132 0.34716 0.0
H2496 H 0.91785 0.7752 0.4086 0.0
H2497 H 0.94064 0.78597 0.37423 0.0
H2498 H 0.91738 0.62357 0.36427 0.0
H2499 H 0.93987 0.63385 0.3293 0.0
H2500 H 0.92807 0.62883 0.41566 0.0
H2501 H 0.91685 0.65867 0.444 0.0
C2502 C 0.54607 0.3041 0.85563 0.0
C2503 C 0.51219 0.29671 0.8576 0.0
C2504 C 0.52508 0.25288 0.89702 0.0
C2505 C 0.55843 0.26218 0.89522 0.0
N2506 N 0.60051 0.28194 0.85931 0.0
N2507 N 0.46989 0.25922 0.87618 0.0
C2508 C 0.56877 0.28239 0.86942 0.0
C2509 C 0.50168 0.26951 0.87705 0.0
N2510 N 0.5566 0.33353 0.84399 0.0
N2511 N 0.51604 0.22829 0.91775 0.0
H2512 H 0.45158 0.27126 0.8634 0.0
H2513 H 0.46161 0.23768 0.88691 0.0
H2514 H 0.5332 0.2124 0.928 0.0
H2515 H 0.492 0.22327 0.92438 0.0
H2516 H 0.58116 0.34048 0.84442 0.0
H2517 H 0.54047 0.35261 0.83925 0.0
H2518 H 0.60868 0.29559 0.83933 0.0
H2519 H 0.61719 0.26498 0.86864 0.0
C2520 C 0.58748 0.45881 0.76087 0.0
C2521 C 0.58384 0.42596 0.7717 0.0
C2522 C 0.62773 0.43349 0.81114 0.0
C2523 C 0.6326 0.46607 0.79989 0.0
N2524 N 0.62523 0.50399 0.75483 0.0
N2525 N 0.61097 0.37923 0.79518 0.0
C2526 C 0.61511 0.47699 0.77175 0.0
C2527 C 0.60797 0.41234 0.7924 0.0
N2528 N 0.56432 0.47349 0.74178 0.0
N2529 N 0.63889 0.42324 0.84097 0.0
H2530 H 0.597 0.36319 0.78099 0.0
H2531 H 0.62965 0.36827 0.80871 0.0
H2532 H 0.64914 0.43878 0.85833 0.0
H2533 H 0.63353 0.40011 0.85036 0.0
H2534 H 0.56435 0.49856 0.7371 0.0
H2535 H 0.5442 0.4614 0.73202 0.0
H2536 H 0.61459 0.51124 0.73279 0.0
H2537 H 0.64669 0.51658 0.76047 0.0
C2538 C 0.09131 0.06336 0.17784 0.0
C2539 C 0.09122 0.07202 0.21159 0.0
C2540 C 0.13994 0.03822 0.22106 0.0
C2541 C 0.13948 0.02935 0.18749 0.0
N2542 N 0.11599 0.03288 0.13351 0.0
N2543 N 0.11423 0.06834 0.26563 0.0
C2544 C 0.11583 0.04226 0.16567 0.0
C2545 C 0.11528 0.05963 0.23336 0.0
N2546 N 0.06724 0.07474 0.15755 0.0
N2547 N 0.16418 0.0262 0.2408 0.0
H2548 H 0.09691 0.08457 0.27486 0.0
H2549 H 0.12997 0.05956 0.28357 0.0
H2550 H 0.18261 0.01091 0.2321 0.0
H2551 H 0.167 0.0318 0.26542 0.0
H2552 H 0.06744 0.07336 0.13219 0.0
H2553 H 0.04635 0.08613 0.16613 0.0
H2554 H 0.09768 0.03783 0.11659 0.0
H2555 H 0.13475 0.01929 0.12321 0.0
C2556 C 0.37786 0.9419 0.73703 0.0
C2557 C 0.41062 0.94447 0.72612 0.0
C2558 C 0.39489 0.98569 0.68552 0.0
C2559 C 0.36188 0.98268 0.69575 0.0
N2560 N 0.3223 0.96316 0.73479 0.0
N2561 N 0.45098 0.96869 0.69091 0.0
C2562 C 0.35339 0.96221 0.72257 0.0
C2563 C 0.41937 0.96711 0.70136 0.0
N2564 N 0.37025 0.91932 0.7605 0.0
N2565 N 0.40291 0.00643 0.66047 0.0
H2566 H 0.47052 0.95892 0.70401 0.0
H2567 H 0.45765 0.9784 0.66843 0.0
H2568 H 0.38577 0.0161 0.6444 0.0
H2569 H 0.42646 0.01485 0.6557 0.0
H2570 H 0.3465 0.91348 0.76749 0.0
H2571 H 0.38815 0.90553 0.77242 0.0
H2572 H 0.31498 0.95109 0.75596 0.0
H2573 H 0.30405 0.97796 0.72482 0.0
C2574 C 0.8941 0.55598 0.30927 0.0
C2575 C 0.90127 0.55823 0.27543 0.0
C2576 C 0.85746 0.51873 0.26426 0.0
C2577 C 0.84944 0.51832 0.29822 0.0
N2578 N 0.85484 0.54485 0.35109 0.0
N2579 N 0.88727 0.54526 0.21985 0.0
C2580 C 0.86567 0.53987 0.31992 0.0
C2581 C 0.88212 0.54066 0.25254 0.0
N2582 N 0.91605 0.56675 0.33189 0.0
N2583 N 0.84176 0.49787 0.2434 0.0
H2584 H 0.90537 0.56092 0.21094 0.0
H2585 H 0.87234 0.53546 0.20168 0.0
H2586 H 0.82198 0.4835 0.25069 0.0
H2587 H 0.84891 0.49401 0.2193 0.0
H2588 H 0.91463 0.56122 0.35676 0.0
H2589 H 0.93749 0.57822 0.32526 0.0
H2590 H 0.86406 0.56338 0.36599 0.0
H2591 H 0.83473 0.53334 0.3612 0.0
C2592 C 0.21104 0.1222 0.59923 0.0
C2593 C 0.22862 0.09778 0.58207 0.0
C2594 C 0.2099 0.121 0.52974 0.0
C2595 C 0.19581 0.1475 0.54691 0.0
N2596 N 0.18439 0.1751 0.59772 0.0
N2597 N 0.24738 0.07528 0.53102 0.0
C2598 C 0.19669 0.14855 0.58161 0.0
C2599 C 0.22839 0.09726 0.54729 0.0
N2600 N 0.20718 0.11955 0.63236 0.0
N2601 N 0.2057 0.11865 0.49662 0.0
H2602 H 0.26146 0.05796 0.5431 0.0
H2603 H 0.2512 0.07565 0.50587 0.0
H2604 H 0.19353 0.13637 0.48285 0.0
H2605 H 0.21216 0.09816 0.48305 0.0
H2606 H 0.19204 0.13468 0.64604 0.0
H2607 H 0.21674 0.10016 0.64591 0.0
H2608 H 0.18804 0.17938 0.62255 0.0
H2609 H 0.17213 0.19412 0.58592 0.0
C2610 C 0.28802 0.87561 0.10197 0.0
C2611 C 0.25904 0.89023 0.08976 0.0
C2612 C 0.25911 0.85314 0.04268 0.0
C2613 C 0.2889 0.83977 0.05383 0.0
N2614 N 0.33436 0.84001 0.0915 0.0
N2615 N 0.21988 0.89659 0.04633 0.0
C2616 C 0.30416 0.85148 0.08281 0.0
C2617 C 0.24544 0.87996 0.05956 0.0
N2618 N 0.29958 0.88423 0.13214 0.0
N2619 N 0.24306 0.83932 0.01671 0.0
H2620 H 0.20659 0.91377 0.05945 0.0
H2621 H 0.21385 0.89494 0.02163 0.0
H2622 H 0.25255 0.81991 0.00322 0.0
H2623 H 0.21927 0.84549 0.00998 0.0
H2624 H 0.31838 0.87202 0.14421 0.0
H2625 H 0.28896 0.9026 0.14614 0.0
H2626 H 0.34838 0.84975 0.1104 0.0
H2627 H 0.3466 0.82199 0.07831 0.0
C2628 C 0.71216 0.37598 0.46736 0.0
C2629 C 0.72169 0.34312 0.4626 0.0
C2630 C 0.7486 0.35896 0.41186 0.0
C2631 C 0.73591 0.39141 0.41394 0.0
N2632 N 0.69654 0.42649 0.44156 0.0
N2633 N 0.7709 0.31625 0.44527 0.0
C2634 C 0.71549 0.39905 0.44134 0.0
C2635 C 0.74631 0.33779 0.43911 0.0
N2636 N 0.70288 0.38581 0.49779 0.0
N2637 N 0.76081 0.34696 0.38332 0.0
H2638 H 0.77365 0.30554 0.46832 0.0
H2639 H 0.79084 0.31352 0.42961 0.0
H2640 H 0.75744 0.35884 0.36105 0.0
H2641 H 0.76907 0.32292 0.38121 0.0
H2642 H 0.69889 0.41023 0.50383 0.0
H2643 H 0.70337 0.36972 0.51767 0.0
H2644 H 0.68013 0.4316 0.46034 0.0
H2645 H 0.69259 0.44096 0.42101 0.0
C2646 C 0.78236 0.61421 0.89489 0.0
C2647 C 0.76287 0.59056 0.91113 0.0
C2648 C 0.77519 0.61602 0.96424 0.0
C2649 C 0.79311 0.64064 0.94778 0.0
N2650 N 0.81281 0.66519 0.89784 0.0
N2651 N 0.74643 0.56442 0.96131 0.0
C2652 C 0.79664 0.64018 0.91319 0.0
C2653 C 0.76103 0.59012 0.94587 0.0
N2654 N 0.78859 0.61065 0.86223 0.0
N2655 N 0.77044 0.61837 -0.0027 0.0
H2656 H 0.73514 0.54574 0.94852 0.0
H2657 H 0.74721 0.56032 0.98641 0.0
H2658 H 0.78119 0.63657 0.0116 0.0
H2659 H 0.75433 0.60372 0.01047 0.0
H2660 H 0.80474 0.62522 0.84903 0.0
H2661 H 0.77974 0.59092 0.84869 0.0
H2662 H 0.81307 0.66865 0.87264 0.0
H2663 H 0.82477 0.68389 0.91044 0.0
C2664 C 0.5738 0.18445 0.12122 0.0
C2665 C 0.54891 0.20109 0.13877 0.0
C2666 C 0.55752 0.25033 0.10631 0.0
C2667 C 0.58302 0.23441 0.08921 0.0
N2668 N 0.61538 0.18656 0.07848 0.0
N2669 N 0.51252 0.24689 0.14461 0.0
C2670 C 0.59089 0.20127 0.0958 0.0
C2671 C 0.53948 0.23319 0.13032 0.0
N2672 N 0.58107 0.15279 0.12929 0.0
N2673 N 0.55129 0.28245 0.10033 0.0
H2674 H 0.49894 0.23515 0.16274 0.0
H2675 H 0.50196 0.26873 0.13689 0.0
H2676 H 0.56091 0.29484 0.08024 0.0
H2677 H 0.53859 0.29706 0.11672 0.0
H2678 H 0.59875 0.13865 0.11789 0.0
H2679 H 0.56888 0.14004 0.14774 0.0
H2680 H 0.62307 0.1626 0.08178 0.0
H2681 H 0.62846 0.19858 0.06015 0.0
C2682 C 0.88402 0.75955 0.63605 0.0
C2683 C 0.89751 0.75726 0.60399 0.0
C2684 C 0.94968 0.77901 0.62465 0.0
C2685 C 0.93655 0.78106 0.65647 0.0
N2686 N 0.8923 0.77092 0.69395 0.0
N2687 N 0.93768 0.78149 0.56728 0.0
C2688 C 0.904 0.77052 0.66264 0.0
C2689 C 0.92885 0.7715 0.59793 0.0
N2690 N 0.85118 0.75466 0.64023 0.0
N2691 N 0.98237 0.78415 0.61993 0.0
H2692 H 0.92142 0.78328 0.54783 0.0
H2693 H 0.95948 0.79379 0.56242 0.0
H2694 H -0.00163 0.78957 0.63911 0.0
H2695 H 0.994 0.77947 0.59776 0.0
H2696 H 0.83888 0.75779 0.66222 0.0
H2697 H 0.83517 0.75123 0.62064 0.0
H2698 H 0.87035 0.76021 0.70108 0.0
H2699 H 0.90559 0.78017 0.71364 0.0
C2700 C 0.04003 0.25045 0.84641 0.0
C2701 C 0.04482 0.28449 0.84318 0.0
C2702 C 0.08605 0.28322 0.887 0.0
C2703 C 0.0836 0.24851 0.88803 0.0
N2704 N 0.062 0.1987 0.86359 0.0
N2705 N 0.07455 0.33342 0.8574 0.0
C2706 C 0.0617 0.23198 0.86629 0.0
C2707 C 0.06811 0.30104 0.86296 0.0
N2708 N 0.01421 0.23582 0.83085 0.0
N2709 N 0.10635 0.29919 0.90829 0.0
H2710 H 0.06191 0.34743 0.84023 0.0
H2711 H 0.09387 0.34608 0.86812 0.0
H2712 H 0.12346 0.28727 0.92295 0.0
H2713 H 0.10556 0.32432 0.91224 0.0
H2714 H 0.00707 0.21173 0.83508 0.0
H2715 H -0.00218 0.24873 0.81611 0.0
H2716 H 0.04978 0.18606 0.84513 0.0
H2717 H 0.0766 0.1835 0.87759 0.0
C2718 C 0.4624 0.7275 0.36744 0.0
C2719 C 0.44642 0.70535 0.34624 0.0
C2720 C 0.3945 0.71417 0.37484 0.0
C2721 C 0.41079 0.73507 0.39734 0.0
N2722 N 0.46126 0.75743 0.41824 0.0
N2723 N 0.39875 0.67352 0.33196 0.0
C2724 C 0.4451 0.74035 0.39462 0.0
C2725 C 0.41289 0.69747 0.35062 0.0
N2726 N 0.49378 0.73713 0.36092 0.0
N2727 N 0.36132 0.71064 0.37625 0.0
H2728 H 0.41089 0.66156 0.31306 0.0
H2729 H 0.37571 0.66372 0.33658 0.0
H2730 H 0.34732 0.72059 0.39485 0.0
H2731 H 0.3474 0.69943 0.3581 0.0
H2732 H 0.50547 0.75629 0.37298 0.0
H2733 H 0.50744 0.72752 0.34168 0.0
H2734 H 0.48664 0.75876 0.42004 0.0
H2735 H 0.44911 0.76887 0.43724 0.0
C2736 C 0.10199 0.58808 0.2042 0.0
C2737 C 0.1018 0.58793 0.239 0.0
C2738 C 0.14548 0.54682 0.23937 0.0
C2739 C 0.14716 0.54873 0.20492 0.0
N2740 N 0.13123 0.57487 0.15441 0.0
N2741 N 0.12982 0.5732 0.28948 0.0
C2742 C 0.12642 0.57021 0.18721 0.0
C2743 C 0.12546 0.56919 0.25659 0.0
N2744 N 0.07923 0.60587 0.1873 0.0
N2745 N 0.16258 0.52307 0.25565 0.0
H2746 H 0.11687 0.58976 0.30351 0.0
H2747 H 0.1491 0.56272 0.30244 0.0
H2748 H 0.17744 0.50615 0.24373 0.0
H2749 H 0.15955 0.51805 0.28045 0.0
H2750 H 0.07493 0.60316 0.16234 0.0
H2751 H 0.06371 0.62273 0.19838 0.0
H2752 H 0.11954 0.59293 0.14079 0.0
H2753 H 0.14883 0.56231 0.14098 0.0
C2754 C 0.63068 0.90633 0.75212 0.0
C2755 C 0.59782 0.90941 0.7629 0.0
C2756 C 0.6106 0.96527 0.78113 0.0
C2757 C 0.64356 0.96118 0.7715 0.0
N2758 N 0.67401 0.93697 0.72739 0.0
N2759 N 0.56114 0.93838 0.79897 0.0
C2760 C 0.65103 0.93424 0.75128 0.0
C2761 C 0.58876 0.93815 0.78029 0.0
N2762 N 0.64317 0.87659 0.74389 0.0
N2763 N 0.60035 -0.00452 0.79065 0.0
H2764 H 0.54768 0.91723 0.80371 0.0
H2765 H 0.55462 0.95796 0.81383 0.0
H2766 H 0.61624 0.01553 0.79047 0.0
H2767 H 0.57593 0.00109 0.79522 0.0
H2768 H 0.66759 0.87346 0.73726 0.0
H2769 H 0.63054 0.85492 0.74854 0.0
H2770 H 0.67878 0.91817 0.71087 0.0
H2771 H 0.68247 0.95975 0.71974 0.0
C2772 C 0.86094 0.08263 0.30643 0.0
C2773 C 0.84792 0.05336 0.29278 0.0
C2774 C 0.88041 0.06183 0.24349 0.0
C2775 C 0.89525 0.08974 0.25769 0.0
N2776 N 0.90301 0.12471 0.30445 0.0
N2777 N 0.85012 0.01164 0.2513 0.0
C2778 C 0.88674 0.09939 0.28988 0.0
C2779 C 0.85897 0.04205 0.26212 0.0
N2780 N 0.84741 0.09539 0.33416 0.0
N2781 N 0.88639 0.05428 0.21172 0.0
H2782 H 0.83501 -0.00404 0.26462 0.0
H2783 H 0.86015 0.00079 0.23058 0.0
H2784 H 0.90585 0.06435 0.19875 0.0
H2785 H 0.87055 0.03956 0.19818 0.0
H2786 H 0.85333 0.11836 0.34337 0.0
H2787 H 0.82822 0.08418 0.34666 0.0
H2788 H 0.90048 0.13066 0.32906 0.0
H2789 H 0.92078 0.13853 0.29243 0.0
C2790 C 0.33819 0.41306 0.69584 0.0
C2791 C 0.33447 0.44633 0.70466 0.0
C2792 C 0.38424 0.44366 0.73771 0.0
C2793 C 0.38572 0.4093 0.73233 0.0
N2794 N 0.36156 0.36056 0.70884 0.0
N2795 N 0.35096 0.4927 0.73684 0.0
C2796 C 0.36194 0.39378 0.71215 0.0
C2797 C 0.35678 0.46156 0.72622 0.0
N2798 N 0.31971 0.40011 0.67106 0.0
N2799 N 0.40891 0.45939 0.75382 0.0
H2800 H 0.33113 0.50657 0.72871 0.0
H2801 H 0.3641 0.5038 0.75564 0.0
H2802 H 0.42827 0.44732 0.76493 0.0
H2803 H 0.41132 0.48474 0.75421 0.0
H2804 H 0.32402 0.37718 0.66092 0.0
H2805 H 0.30186 0.4133 0.65847 0.0
H2806 H 0.34224 0.34772 0.69825 0.0
H2807 H 0.37953 0.34545 0.71845 0.0
C2808 C 0.80652 0.85947 0.41489 0.0
C2809 C 0.79142 0.84465 0.44252 0.0
C2810 C 0.74271 0.87864 0.43467 0.0
C2811 C 0.75721 0.89253 0.40633 0.0
N2812 N 0.80488 0.90173 0.37305 0.0
N2813 N 0.74495 0.83802 0.47804 0.0
C2814 C 0.78978 0.88464 0.39754 0.0
C2815 C 0.75954 0.85388 0.45239 0.0
N2816 N 0.83605 0.84807 0.40416 0.0
N2817 N 0.71353 0.8905 0.44561 0.0
H2818 H 0.75724 0.82125 0.49286 0.0
H2819 H 0.72028 0.84007 0.48386 0.0
H2820 H 0.7004 0.90843 0.43313 0.0
H2821 H 0.70367 0.88478 0.46832 0.0
H2822 H 0.8467 0.85486 0.38208 0.0
H2823 H 0.84927 0.82995 0.41631 0.0
H2824 H 0.82965 0.89986 0.36763 0.0
H2825 H 0.79319 0.91989 0.35947 0.0
C2826 C 0.72474 0.13403 0.95773 0.0
C2827 C 0.70001 0.15235 0.94184 0.0
C2828 C 0.70493 0.11802 0.89281 0.0
C2829 C 0.73057 0.1005 0.90816 0.0
N2830 N 0.76094 0.08742 0.95671 0.0
N2831 N 0.67049 0.16624 0.89256 0.0
C2832 C 0.73947 0.10745 0.941 0.0
C2833 C 0.69106 0.1455 0.90892 0.0
N2834 N 0.73498 0.14285 0.98836 0.0
N2835 N 0.69268 0.10726 0.86361 0.0
H2836 H 0.66015 0.18687 0.90333 0.0
H2837 H 0.66583 0.16477 0.86757 0.0
H2838 H 0.70131 0.08624 0.85212 0.0
H2839 H 0.67192 0.11692 0.85247 0.0
H2840 H 0.75582 0.13356 -0.00032 0.0
H2841 H 0.72367 0.16109 0.00202 0.0
H2842 H 0.7647 0.0874 0.98188 0.0
H2843 H 0.77345 0.06913 0.94448 0.0
C2844 C 0.27192 0.59031 0.54902 0.0
C2845 C 0.2682 0.59574 0.58323 0.0
C2846 C 0.29356 0.64978 0.57647 0.0
C2847 C 0.28984 0.64676 0.54205 0.0
N2848 N 0.27212 0.61546 0.49544 0.0
N2849 N 0.27972 0.62961 0.63027 0.0
C2850 C 0.27795 0.61742 0.52829 0.0
C2851 C 0.2803 0.62525 0.59716 0.0
N2852 N 0.27202 0.55946 0.53631 0.0
N2853 N 0.31115 0.67523 0.58934 0.0
H2854 H 0.2755 0.6105 0.64658 0.0
H2855 H 0.283 0.65222 0.64151 0.0
H2856 H 0.32184 0.69355 0.57517 0.0
H2857 H 0.31775 0.67682 0.61389 0.0
H2858 H 0.27672 0.55472 0.51173 0.0
H2859 H 0.27275 0.53843 0.55059 0.0
H2860 H 0.26023 0.5956 0.48471 0.0
H2861 H 0.27635 0.63497 0.47949 0.0
C2862 C 0.25221 0.35112 0.0855 0.0
C2863 C 0.23712 0.38251 0.08779 0.0
C2864 C 0.20819 0.37055 0.03639 0.0
C2865 C 0.21968 0.33797 0.03686 0.0
N2866 N 0.27043 0.31031 0.04724 0.0
N2867 N 0.1914 0.41575 0.06957 0.0
C2868 C 0.24702 0.33175 0.05719 0.0
C2869 C 0.21251 0.39054 0.06435 0.0
N2870 N 0.26928 0.33817 0.11113 0.0
N2871 N 0.19792 0.38415 0.00774 0.0
H2872 H 0.18974 0.42764 0.09201 0.0
H2873 H 0.17224 0.421 0.0535 0.0
H2874 H 0.20014 0.37164 0.9856 0.0
H2875 H 0.19199 0.40887 0.00561 0.0
H2876 H 0.27916 0.31468 0.11041 0.0
H2877 H 0.26867 0.3481 0.13455 0.0
H2878 H 0.29243 0.30711 0.05982 0.0
H2879 H 0.26933 0.29932 0.02421 0.0
C2880 C 0.45814 0.77732 0.87088 0.0
C2881 C 0.45332 0.7696 0.83749 0.0
C2882 C 0.40166 0.743 0.85192 0.0
C2883 C 0.40425 0.75454 0.88476 0.0
N2884 N 0.43176 0.79322 0.92073 0.0
N2885 N 0.43145 0.72724 0.8034 0.0
C2886 C 0.43151 0.77479 0.89296 0.0
C2887 C 0.42844 0.74673 0.83024 0.0
N2888 N 0.489 0.78092 0.88289 0.0
N2889 N 0.37258 0.73147 0.84018 0.0
H2890 H 0.45216 0.7284 0.78849 0.0
H2891 H 0.41546 0.70797 0.7984 0.0
H2892 H 0.35086 0.73368 0.85324 0.0
H2893 H 0.36917 0.72477 0.81581 0.0
H2894 H 0.49381 0.78431 0.90772 0.0
H2895 H 0.50928 0.77384 0.86918 0.0
H2896 H 0.45094 0.80916 0.92624 0.0
H2897 H 0.41104 0.79693 0.93498 0.0
C2898 C 0.03244 0.2137 0.37547 0.0
C2899 C 0.03543 0.2236 0.34237 0.0
C2900 C 0.08887 0.24665 0.35414 0.0
C2901 C 0.08728 0.23586 0.3872 0.0
N2902 N 0.0607 0.19925 0.42543 0.0
N2903 N 0.05456 0.27153 0.31398 0.0
C2904 C 0.05969 0.2169 0.39708 0.0
C2905 C 0.0603 0.24633 0.33497 0.0
N2906 N 0.00274 0.20337 0.38656 0.0
N2907 N 0.11763 0.25628 0.34029 0.0
H2908 H 0.03083 0.27711 0.30633 0.0
H2909 H 0.07187 0.2898 0.30959 0.0
H2910 H 0.14017 0.25226 0.35157 0.0
H2911 H 0.11904 0.26349 0.31582 0.0
H2912 H -0.00217 0.19882 0.41115 0.0
H2913 H 0.98226 0.20304 0.37122 0.0
H2914 H 0.0421 0.18335 0.43257 0.0
H2915 H 0.08207 0.19653 0.43909 0.0
C2916 C 0.96353 0.71721 0.12272 0.0
C2917 C 0.94627 0.69868 0.14637 0.0
C2918 C 0.89406 0.7129 0.11984 0.0
C2919 C 0.91139 0.73062 0.09541 0.0
N2920 N 0.96279 0.7452 0.07053 0.0
N2921 N 0.89574 0.67595 0.16649 0.0
C2922 C 0.9462 0.73132 0.09591 0.0
C2923 C 0.91166 0.69577 0.14468 0.0
N2924 N -0.00362 0.72233 0.12661 0.0
N2925 N 0.86062 0.71251 0.11916 0.0
H2926 H 0.90757 0.66391 0.18565 0.0
H2927 H 0.87109 0.66983 0.16487 0.0
H2928 H 0.84714 0.72132 0.09936 0.0
H2929 H 0.84607 0.7043 0.13834 0.0
H2930 H 0.00987 0.73882 0.11264 0.0
H2931 H 0.00989 0.7119 0.14561 0.0
H2932 H 0.98796 0.74336 0.06728 0.0
H2933 H 0.95095 0.75674 0.05129 0.0
C2934 C 0.56253 0.30612 0.62617 0.0
C2935 C 0.54402 0.28958 0.65038 0.0
C2936 C 0.5606 0.23655 0.6284 0.0
C2937 C 0.57862 0.2528 0.60315 0.0
N2938 N 0.59727 0.30329 0.57833 0.0
N2939 N 0.52114 0.2401 0.67241 0.0
C2940 C 0.57932 0.28768 0.60187 0.0
C2941 C 0.54189 0.25512 0.65084 0.0
N2942 N 0.56574 0.33941 0.62781 0.0
N2943 N 0.56185 0.20331 0.63176 0.0
H2944 H 0.5076 0.25286 0.68979 0.0
H2945 H 0.51515 0.21538 0.67163 0.0
H2946 H 0.57165 0.18774 0.6145 0.0
H2947 H 0.55455 0.19088 0.65275 0.0
H2948 H 0.58153 0.35313 0.61335 0.0
H2949 H 0.55363 0.35368 0.64505 0.0
H2950 H 0.59466 0.32788 0.57237 0.0
H2951 H 0.61504 0.29172 0.56437 0.0
C2952 C 0.84533 0.44408 0.74112 0.0
C2953 C 0.8378 0.43989 0.77466 0.0
C2954 C 0.88012 0.39766 0.78011 0.0
C2955 C 0.88846 0.40253 0.74682 0.0
N2956 N 0.87887 0.42856 0.69484 0.0
N2957 N 0.84914 0.4156 0.82732 0.0
C2958 C 0.87093 0.42523 0.72708 0.0
C2959 C 0.85555 0.4175 0.79452 0.0
N2960 N 0.82881 0.46714 0.72326 0.0
N2961 N 0.89438 0.3727 0.79731 0.0
H2962 H 0.83025 0.42841 0.83859 0.0
H2963 H 0.86363 0.4029 0.84396 0.0
H2964 H 0.91209 0.35736 0.78735 0.0
H2965 H 0.88707 0.36532 0.82053 0.0
H2966 H 0.83394 0.47325 0.69914 0.0
H2967 H 0.81017 0.48148 0.73305 0.0
H2968 H 0.86462 0.44062 0.67756 0.0
H2969 H 0.9001 0.4187 0.68501 0.0
C2970 C 0.37935 0.02415 0.22085 0.0
C2971 C 0.34614 0.02884 0.229 0.0
C2972 C 0.35959 0.08128 0.25335 0.0
C2973 C 0.39289 0.07872 0.24299 0.0
N2974 N 0.43159 0.04886 0.20897 0.0
N2975 N 0.31474 0.04975 0.27395 0.0
C2976 C 0.40231 0.05022 0.22493 0.0
C2977 C 0.33869 0.05394 0.25122 0.0
N2978 N 0.38873 0.99412 0.20987 0.0
N2979 N 0.34698 0.11017 0.26409 0.0
H2980 H 0.30562 0.0266 0.27939 0.0
H2981 H 0.30965 0.06713 0.29186 0.0
H2982 H 0.35988 0.13197 0.26343 0.0
H2983 H 0.32221 0.11309 0.26941 0.0
H2984 H 0.41303 0.98729 0.20665 0.0
H2985 H 0.37188 0.975 0.20762 0.0
H2986 H 0.43822 0.02961 0.19376 0.0
H2987 H 0.44753 0.06847 0.20668 0.0
C2988 C 0.13091 0.95795 0.73099 0.0
C2989 C 0.14136 0.94738 0.69985 0.0
C2990 C 0.10086 0.90298 0.70073 0.0
C2991 C 0.0932 0.91121 0.73352 0.0
N2992 N 0.10331 0.94456 0.78127 0.0
N2993 N 0.13943 0.90798 0.65601 0.0
C2994 C 0.10886 0.93819 0.74902 0.0
C2995 C 0.12697 0.91957 0.68475 0.0
N2996 N 0.14166 0.98728 0.74302 0.0
N2997 N 0.08344 0.87913 0.685 0.0
H2998 H 0.15847 0.91941 0.64347 0.0
H2999 H 0.13262 0.88573 0.64569 0.0
H3000 H 0.06538 0.8652 0.69644 0.0
H3001 H 0.08529 0.8746 0.66003 0.0
H3002 H 0.13237 -0.00189 0.76406 0.0
H3003 H 0.15787 0.00239 0.73034 0.0
H3004 H 0.11698 0.96106 0.79505 0.0
H3005 H 0.08655 0.93148 0.79506 0.0
C3006 C 0.60807 0.60074 0.27838 0.0
C3007 C 0.58604 0.58357 0.25771 0.0
C3008 C 0.61655 0.53274 0.26688 0.0
C3009 C 0.63794 0.54959 0.28823 0.0
N3010 N 0.65107 0.5979 0.31939 0.0
N3011 N 0.56392 0.53189 0.24025 0.0
C3012 C 0.63281 0.58315 0.29551 0.0
C3013 C 0.58863 0.54913 0.25442 0.0
N3014 N 0.60532 0.6339 0.2815 0.0
N3015 N 0.62347 0.5014 0.25762 0.0
H3016 H 0.54285 0.54325 0.23206 0.0
H3017 H 0.56281 0.50645 0.23978 0.0
H3018 H 0.64358 0.48845 0.26652 0.0
H3019 H 0.61087 0.48923 0.23909 0.0
H3020 H 0.62292 0.64856 0.29267 0.0
H3021 H 0.58574 0.64703 0.27175 0.0
H3022 H 0.6464 0.62124 0.3283 0.0
H3023 H 0.6696 0.58587 0.33218 0.0
loop_
_geom_bond_atom_site_label_1
_geom_bond_atom_site_label_2
_geom_bond_distance
_geom_bond_site_symmetry_2
_ccdc_geom_bond_type
Cd0 N3 2.334 . S
Cd0 N29 2.304 . S
Cd0 O36 2.268 . S
Cd0 O39 2.273 . S
Cd0 O40 2.417 . S
Cd0 O41 2.330 . S
Cd1 N16 2.304 . S
Cd1 N20 2.334 . S
Cd1 O37 2.273 . S
Cd1 O38 2.268 . S
Cd1 O42 2.417 . S
Cd1 O43 2.330 . S
C2 N3 1.332 . S
C2 C6 1.381 . S
C2 H8 0.931 . S
N3 Cd0 2.334 . S
N3 C2 1.332 . S
N3 C7 1.328 . S
C4 C5 1.396 . S
C4 C7 1.378 . S
C4 H46 0.931 . S
C5 C4 1.396 . S
C5 C6 1.382 . S
C6 C2 1.381 . S
C6 C5 1.382 . S
C6 H47 0.930 . S
C7 N3 1.328 . S
C7 C4 1.378 . S
C7 H9 0.930 . S
H8 C2 0.931 . S
H9 C7 0.930 . S
C10 O36 1.238 . S
C10 O37 1.253 . S
C11 C12 1.379 . S
C11 N16 1.337 . S
C11 H17 0.929 . S
C12 C11 1.379 . S
C12 C13 1.380 . S
C12 H48 0.929 . S
C13 C12 1.380 . S
C13 C14 1.399 . S
C14 C13 1.399 . S
C14 C15 1.376 . S
C14 H49 0.931 . S
C15 C14 1.376 . S
C15 N16 1.338 . S
C15 H18 0.930 . S
N16 Cd1 2.304 . S
N16 C11 1.337 . S
N16 C15 1.338 . S
H17 C11 0.929 . S
H18 C15 0.930 . S
C19 N20 1.332 . S
C19 C23 1.381 . S
C19 H25 0.931 . S
N20 Cd1 2.334 . S
N20 C19 1.332 . S
N20 C24 1.328 . S
C21 C22 1.396 . S
C21 C24 1.378 . S
C21 H50 0.931 . S
C22 C21 1.396 . S
C22 C23 1.382 . S
C23 C19 1.381 . S
C23 C22 1.382 . S
C23 H51 0.930 . S
C24 N20 1.328 . S
C24 C21 1.378 . S
C24 H26 0.930 . S
H25 C19 0.931 . S
H26 C24 0.930 . S
C27 O38 1.238 . S
C27 O39 1.253 . S
C28 O40 1.239 . S
C28 O41 1.230 . S
N29 Cd0 2.304 . S
N29 C30 1.337 . S
N29 C34 1.338 . S
C30 N29 1.337 . S
C30 C31 1.379 . S
C30 H44 0.929 . S
C31 C30 1.379 . S
C31 C32 1.380 . S
C31 H52 0.929 . S
C32 C31 1.380 . S
C32 C33 1.399 . S
C33 C32 1.399 . S
C33 C34 1.376 . S
C33 H53 0.931 . S
C34 N29 1.338 . S
C34 C33 1.376 . S
C34 H45 0.930 . S
C35 O42 1.239 . S
C35 O43 1.230 . S
O36 Cd0 2.268 . S
O36 C10 1.238 . S
O37 Cd1 2.273 . S
O37 C10 1.253 . S
O38 Cd1 2.268 . S
O38 C27 1.238 . S
O39 Cd0 2.273 . S
O39 C27 1.253 . S
O40 Cd0 2.417 . S
O40 C28 1.239 . S
O41 Cd0 2.330 . S
O41 C28 1.230 . S
O42 Cd1 2.417 . S
O42 C35 1.239 . S
O43 Cd1 2.330 . S
O43 C35 1.230 . S
H44 C30 0.929 . S
H45 C34 0.930 . S
H46 C4 0.931 . S
H47 C6 0.930 . S
H48 C12 0.929 . S
H49 C14 0.931 . S
H50 C21 0.931 . S
H51 C23 0.930 . S
H52 C31 0.929 . S
H53 C33 0.931 . S
Cd54 N57 2.334 . S
Cd54 N83 2.304 1_556 S
Cd54 O90 2.268 . S
Cd54 O93 2.273 . S
Cd54 O94 2.417 1_556 S
Cd54 O95 2.330 1_556 S
Cd55 N70 2.304 . S
Cd55 N74 2.334 . S
Cd55 O91 2.273 . S
Cd55 O92 2.268 . S
Cd55 O96 2.417 . S
Cd55 O97 2.330 . S
C56 N57 1.332 . S
C56 C60 1.381 . S
C56 H62 0.931 . S
N57 Cd54 2.334 . S
N57 C56 1.332 . S
N57 C61 1.328 . S
C58 C59 1.396 . S
C58 C61 1.378 . S
C58 H100 0.931 . S
C59 C58 1.396 . S
C59 C60 1.382 . S
C60 C56 1.381 . S
C60 C59 1.382 . S
C60 H101 0.930 . S
C61 N57 1.328 . S
C61 C58 1.378 . S
C61 H63 0.930 . S
H62 C56 0.931 . S
H63 C61 0.930 . S
C64 O90 1.238 . S
C64 O91 1.253 . S
C65 C66 1.379 . S
C65 N70 1.337 . S
C65 H71 0.929 . S
C66 C65 1.379 . S
C66 C67 1.380 . S
C66 H102 0.929 . S
C67 C66 1.380 . S
C67 C68 1.399 . S
C68 C67 1.399 . S
C68 C69 1.376 . S
C68 H103 0.931 . S
C69 C68 1.376 . S
C69 N70 1.338 . S
C69 H72 0.930 . S
N70 Cd55 2.304 . S
N70 C65 1.337 . S
N70 C69 1.338 . S
H71 C65 0.929 . S
H72 C69 0.930 . S
C73 N74 1.332 . S
C73 C77 1.381 . S
C73 H79 0.931 . S
N74 Cd55 2.334 . S
N74 C73 1.332 . S
N74 C78 1.328 . S
C75 C76 1.396 . S
C75 C78 1.378 . S
C75 H104 0.931 . S
C76 C75 1.396 . S
C76 C77 1.382 . S
C77 C73 1.381 . S
C77 C76 1.382 . S
C77 H105 0.930 . S
C78 N74 1.328 . S
C78 C75 1.378 . S
C78 H80 0.930 . S
H79 C73 0.931 . S
H80 C78 0.930 . S
C81 O92 1.238 . S
C81 O93 1.253 . S
C82 O94 1.239 . S
C82 O95 1.230 . S
N83 Cd54 2.304 1_554 S
N83 C84 1.337 1_554 S
N83 C88 1.338 . S
C84 N83 1.337 1_556 S
C84 C85 1.379 1_556 S
C84 H98 0.929 . S
C85 C84 1.379 1_554 S
C85 C86 1.380 . S
C85 H106 0.929 1_554 S
C86 C85 1.380 . S
C86 C87 1.399 . S
C87 C86 1.399 . S
C87 C88 1.376 . S
C87 H107 0.931 . S
C88 N83 1.338 . S
C88 C87 1.376 . S
C88 H99 0.930 . S
C89 O96 1.239 . S
C89 O97 1.230 . S
O90 Cd54 2.268 . S
O90 C64 1.238 . S
O91 Cd55 2.273 . S
O91 C64 1.253 . S
O92 Cd55 2.268 . S
O92 C81 1.238 . S
O93 Cd54 2.273 . S
O93 C81 1.253 . S
O94 Cd54 2.417 1_554 S
O94 C82 1.239 . S
O95 Cd54 2.330 1_554 S
O95 C82 1.230 . S
O96 Cd55 2.417 . S
O96 C89 1.239 . S
O97 Cd55 2.330 . S
O97 C89 1.230 . S
H98 C84 0.929 . S
H99 C88 0.930 . S
H100 C58 0.931 . S
H101 C60 0.930 . S
H102 C66 0.929 . S
H103 C68 0.931 . S
H104 C75 0.931 . S
H105 C77 0.930 . S
H106 C85 0.929 1_556 S
H107 C87 0.931 . S
Cd108 N111 2.334 . S
Cd108 N137 2.304 . S
Cd108 O144 2.268 . S
Cd108 O147 2.273 . S
Cd108 O148 2.417 . S
Cd108 O149 2.330 . S
Cd109 N124 2.304 . S
Cd109 N128 2.334 . S
Cd109 O145 2.273 . S
Cd109 O146 2.268 . S
Cd109 O150 2.417 . S
Cd109 O151 2.330 . S
C110 N111 1.332 . S
C110 C114 1.381 . S
C110 H116 0.931 . S
N111 Cd108 2.334 . S
N111 C110 1.332 . S
N111 C115 1.328 . S
C112 C113 1.396 . S
C112 C115 1.378 . S
C112 H154 0.931 . S
C113 C112 1.396 . S
C113 C114 1.382 . S
C114 C110 1.381 . S
C114 C113 1.382 . S
C114 H155 0.930 . S
C115 N111 1.328 . S
C115 C112 1.378 . S
C115 H117 0.930 . S
H116 C110 0.931 . S
H117 C115 0.930 . S
C118 O144 1.238 . S
C118 O145 1.253 . S
C119 C120 1.379 . S
C119 N124 1.337 . S
C119 H125 0.929 . S
C120 C119 1.379 . S
C120 C121 1.380 . S
C120 H156 0.929 . S
C121 C120 1.380 . S
C121 C122 1.399 . S
C122 C121 1.399 . S
C122 C123 1.376 . S
C122 H157 0.931 . S
C123 C122 1.376 . S
C123 N124 1.338 . S
C123 H126 0.930 . S
N124 Cd109 2.304 . S
N124 C119 1.337 . S
N124 C123 1.338 . S
H125 C119 0.929 . S
H126 C123 0.930 . S
C127 N128 1.332 . S
C127 C131 1.381 . S
C127 H133 0.931 . S
N128 Cd109 2.334 . S
N128 C127 1.332 . S
N128 C132 1.328 . S
C129 C130 1.396 . S
C129 C132 1.378 . S
C129 H158 0.931 . S
C130 C129 1.396 . S
C130 C131 1.382 . S
C131 C127 1.381 . S
C131 C130 1.382 . S
C131 H159 0.930 . S
C132 N128 1.328 . S
C132 C129 1.378 . S
C132 H134 0.930 . S
H133 C127 0.931 . S
H134 C132 0.930 . S
C135 O146 1.238 . S
C135 O147 1.253 . S
C136 O148 1.239 . S
C136 O149 1.230 . S
N137 Cd108 2.304 . S
N137 C138 1.337 . S
N137 C142 1.338 . S
C138 N137 1.337 . S
C138 C139 1.379 . S
C138 H152 0.929 . S
C139 C138 1.379 . S
C139 C140 1.380 . S
C139 H160 0.929 . S
C140 C139 1.380 . S
C140 C141 1.399 . S
C141 C140 1.399 . S
C141 C142 1.376 . S
C141 H161 0.931 . S
C142 N137 1.338 . S
C142 C141 1.376 . S
C142 H153 0.930 . S
C143 O150 1.239 . S
C143 O151 1.230 . S
O144 Cd108 2.268 . S
O144 C118 1.238 . S
O145 Cd109 2.273 . S
O145 C118 1.253 . S
O146 Cd109 2.268 . S
O146 C135 1.238 . S
O147 Cd108 2.273 . S
O147 C135 1.253 . S
O148 Cd108 2.417 . S
O148 C136 1.239 . S
O149 Cd108 2.330 . S
O149 C136 1.230 . S
O150 Cd109 2.417 . S
O150 C143 1.239 . S
O151 Cd109 2.330 . S
O151 C143 1.230 . S
H152 C138 0.929 . S
H153 C142 0.930 . S
H154 C112 0.931 . S
H155 C114 0.930 . S
H156 C120 0.929 . S
H157 C122 0.931 . S
H158 C129 0.931 . S
H159 C131 0.930 . S
H160 C139 0.929 . S
H161 C141 0.931 . S
Cd162 N165 2.334 . S
Cd162 N191 2.304 1_554 S
Cd162 O198 2.268 . S
Cd162 O201 2.273 . S
Cd162 O202 2.417 1_554 S
Cd162 O203 2.330 1_554 S
Cd163 N178 2.304 . S
Cd163 N182 2.334 . S
Cd163 O199 2.273 . S
Cd163 O200 2.268 . S
Cd163 O204 2.417 . S
Cd163 O205 2.330 . S
C164 N165 1.332 . S
C164 C168 1.381 . S
C164 H170 0.931 . S
N165 Cd162 2.334 . S
N165 C164 1.332 . S
N165 C169 1.328 . S
C166 C167 1.396 . S
C166 C169 1.378 . S
C166 H208 0.931 . S
C167 C166 1.396 . S
C167 C168 1.382 . S
C168 C164 1.381 . S
C168 C167 1.382 . S
C168 H209 0.930 . S
C169 N165 1.328 . S
C169 C166 1.378 . S
C169 H171 0.930 . S
H170 C164 0.931 . S
H171 C169 0.930 . S
C172 O198 1.238 . S
C172 O199 1.253 . S
C173 C174 1.379 . S
C173 N178 1.337 . S
C173 H179 0.929 . S
C174 C173 1.379 . S
C174 C175 1.380 . S
C174 H210 0.929 . S
C175 C174 1.380 . S
C175 C176 1.399 . S
C176 C175 1.399 . S
C176 C177 1.376 . S
C176 H211 0.931 . S
C177 C176 1.376 . S
C177 N178 1.338 . S
C177 H180 0.930 . S
N178 Cd163 2.304 . S
N178 C173 1.337 . S
N178 C177 1.338 . S
H179 C173 0.929 . S
H180 C177 0.930 . S
C181 N182 1.332 . S
C181 C185 1.381 . S
C181 H187 0.931 . S
N182 Cd163 2.334 . S
N182 C181 1.332 . S
N182 C186 1.328 . S
C183 C184 1.396 . S
C183 C186 1.378 . S
C183 H212 0.931 . S
C184 C183 1.396 . S
C184 C185 1.382 . S
C185 C181 1.381 . S
C185 C184 1.382 . S
C185 H213 0.930 . S
C186 N182 1.328 . S
C186 C183 1.378 . S
C186 H188 0.930 . S
H187 C181 0.931 . S
H188 C186 0.930 . S
C189 O200 1.238 . S
C189 O201 1.253 . S
C190 O202 1.239 . S
C190 O203 1.230 . S
N191 Cd162 2.304 1_556 S
N191 C192 1.337 1_556 S
N191 C196 1.338 . S
C192 N191 1.337 1_554 S
C192 C193 1.379 1_554 S
C192 H206 0.929 . S
C193 C192 1.379 1_556 S
C193 C194 1.380 . S
C193 H214 0.929 1_556 S
C194 C193 1.380 . S
C194 C195 1.399 . S
C195 C194 1.399 . S
C195 C196 1.376 . S
C195 H215 0.931 . S
C196 N191 1.338 . S
C196 C195 1.376 . S
C196 H207 0.930 . S
C197 O204 1.239 . S
C197 O205 1.230 . S
O198 Cd162 2.268 . S
O198 C172 1.238 . S
O199 Cd163 2.273 . S
O199 C172 1.253 . S
O200 Cd163 2.268 . S
O200 C189 1.238 . S
O201 Cd162 2.273 . S
O201 C189 1.253 . S
O202 Cd162 2.417 1_556 S
O202 C190 1.239 . S
O203 Cd162 2.330 1_556 S
O203 C190 1.230 . S
O204 Cd163 2.417 . S
O204 C197 1.239 . S
O205 Cd163 2.330 . S
O205 C197 1.230 . S
H206 C192 0.929 . S
H207 C196 0.930 . S
H208 C166 0.931 . S
H209 C168 0.930 . S
H210 C174 0.929 . S
H211 C176 0.931 . S
H212 C183 0.931 . S
H213 C185 0.930 . S
H214 C193 0.929 1_554 S
H215 C195 0.931 . S
Cd216 N219 2.334 . S
Cd216 N245 2.304 . S
Cd216 O252 2.268 . S
Cd216 O255 2.273 . S
Cd216 O256 2.417 . S
Cd216 O257 2.330 . S
Cd217 N232 2.304 . S
Cd217 N236 2.334 . S
Cd217 O253 2.273 . S
Cd217 O254 2.268 . S
Cd217 O258 2.417 . S
Cd217 O259 2.330 . S
C218 N219 1.332 . S
C218 C222 1.381 . S
C218 H224 0.931 . S
N219 Cd216 2.334 . S
N219 C218 1.332 . S
N219 C223 1.328 . S
C220 C221 1.396 . S
C220 C223 1.378 . S
C220 H262 0.931 . S
C221 C220 1.396 . S
C221 C222 1.382 . S
C222 C218 1.381 . S
C222 C221 1.382 . S
C222 H263 0.930 . S
C223 N219 1.328 . S
C223 C220 1.378 . S
C223 H225 0.930 . S
H224 C218 0.931 . S
H225 C223 0.930 . S
C226 O252 1.238 . S
C226 O253 1.253 . S
C227 C228 1.379 . S
C227 N232 1.337 . S
C227 H233 0.929 . S
C228 C227 1.379 . S
C228 C229 1.380 . S
C228 H264 0.929 . S
C229 C228 1.380 . S
C229 C230 1.399 . S
C230 C229 1.399 . S
C230 C231 1.376 . S
C230 H265 0.931 . S
C231 C230 1.376 . S
C231 N232 1.338 . S
C231 H234 0.930 . S
N232 Cd217 2.304 . S
N232 C227 1.337 . S
N232 C231 1.338 . S
H233 C227 0.929 . S
H234 C231 0.930 . S
C235 N236 1.332 . S
C235 C239 1.381 . S
C235 H241 0.931 . S
N236 Cd217 2.334 . S
N236 C235 1.332 . S
N236 C240 1.328 . S
C237 C238 1.396 . S
C237 C240 1.378 . S
C237 H266 0.931 . S
C238 C237 1.396 . S
C238 C239 1.382 . S
C239 C235 1.381 . S
C239 C238 1.382 . S
C239 H267 0.930 . S
C240 N236 1.328 . S
C240 C237 1.378 . S
C240 H242 0.930 . S
H241 C235 0.931 . S
H242 C240 0.930 . S
C243 O254 1.238 . S
C243 O255 1.253 . S
C244 O256 1.239 . S
C244 O257 1.230 . S
N245 Cd216 2.304 . S
N245 C246 1.337 . S
N245 C250 1.338 . S
C246 N245 1.337 . S
C246 C247 1.379 . S
C246 H260 0.929 . S
C247 C246 1.379 . S
C247 C248 1.380 . S
C247 H268 0.929 . S
C248 C247 1.380 . S
C248 C249 1.399 . S
C249 C248 1.399 . S
C249 C250 1.376 . S
C249 H269 0.931 . S
C250 N245 1.338 . S
C250 C249 1.376 . S
C250 H261 0.930 . S
C251 O258 1.239 . S
C251 O259 1.230 . S
O252 Cd216 2.268 . S
O252 C226 1.238 . S
O253 Cd217 2.273 . S
O253 C226 1.253 . S
O254 Cd217 2.268 . S
O254 C243 1.238 . S
O255 Cd216 2.273 . S
O255 C243 1.253 . S
O256 Cd216 2.417 . S
O256 C244 1.239 . S
O257 Cd216 2.330 . S
O257 C244 1.230 . S
O258 Cd217 2.417 . S
O258 C251 1.239 . S
O259 Cd217 2.330 . S
O259 C251 1.230 . S
H260 C246 0.929 . S
H261 C250 0.930 . S
H262 C220 0.931 . S
H263 C222 0.930 . S
H264 C228 0.929 . S
H265 C230 0.931 . S
H266 C237 0.931 . S
H267 C239 0.930 . S
H268 C247 0.929 . S
H269 C249 0.931 . S
Cd270 N273 2.334 . S
Cd270 N299 2.304 . S
Cd270 O306 2.268 . S
Cd270 O309 2.273 . S
Cd270 O310 2.417 . S
Cd270 O311 2.330 . S
Cd271 N286 2.304 1_455 S
Cd271 N290 2.334 . S
Cd271 O307 2.273 . S
Cd271 O308 2.268 . S
Cd271 O312 2.417 1_455 S
Cd271 O313 2.330 1_455 S
C272 N273 1.332 . S
C272 C276 1.381 . S
C272 H278 0.931 . S
N273 Cd270 2.334 . S
N273 C272 1.332 . S
N273 C277 1.328 . S
C274 C275 1.396 . S
C274 C277 1.378 . S
C274 H316 0.931 . S
C275 C274 1.396 . S
C275 C276 1.382 . S
C276 C272 1.381 . S
C276 C275 1.382 . S
C276 H317 0.930 . S
C277 N273 1.328 . S
C277 C274 1.378 . S
C277 H279 0.930 . S
H278 C272 0.931 . S
H279 C277 0.930 . S
C280 O306 1.238 . S
C280 O307 1.253 . S
C281 C282 1.379 1_455 S
C281 N286 1.337 1_455 S
C281 H287 0.929 . S
C282 C281 1.379 1_655 S
C282 C283 1.380 . S
C282 H318 0.929 1_655 S
C283 C282 1.380 . S
C283 C284 1.399 . S
C284 C283 1.399 . S
C284 C285 1.376 . S
C284 H319 0.931 . S
C285 C284 1.376 . S
C285 N286 1.338 . S
C285 H288 0.930 . S
N286 Cd271 2.304 1_655 S
N286 C281 1.337 1_655 S
N286 C285 1.338 . S
H287 C281 0.929 . S
H288 C285 0.930 . S
C289 N290 1.332 . S
C289 C293 1.381 . S
C289 H295 0.931 . S
N290 Cd271 2.334 . S
N290 C289 1.332 . S
N290 C294 1.328 . S
C291 C292 1.396 . S
C291 C294 1.378 . S
C291 H320 0.931 . S
C292 C291 1.396 . S
C292 C293 1.382 . S
C293 C289 1.381 . S
C293 C292 1.382 . S
C293 H321 0.930 . S
C294 N290 1.328 . S
C294 C291 1.378 . S
C294 H296 0.930 . S
H295 C289 0.931 . S
H296 C294 0.930 . S
C297 O308 1.238 . S
C297 O309 1.253 . S
C298 O310 1.239 . S
C298 O311 1.230 . S
N299 Cd270 2.304 . S
N299 C300 1.337 . S
N299 C304 1.338 . S
C300 N299 1.337 . S
C300 C301 1.379 . S
C300 H314 0.929 . S
C301 C300 1.379 . S
C301 C302 1.380 . S
C301 H322 0.929 . S
C302 C301 1.380 . S
C302 C303 1.399 . S
C303 C302 1.399 . S
C303 C304 1.376 . S
C303 H323 0.931 . S
C304 N299 1.338 . S
C304 C303 1.376 . S
C304 H315 0.930 . S
C305 O312 1.239 . S
C305 O313 1.230 . S
O306 Cd270 2.268 . S
O306 C280 1.238 . S
O307 Cd271 2.273 . S
O307 C280 1.253 . S
O308 Cd271 2.268 . S
O308 C297 1.238 . S
O309 Cd270 2.273 . S
O309 C297 1.253 . S
O310 Cd270 2.417 . S
O310 C298 1.239 . S
O311 Cd270 2.330 . S
O311 C298 1.230 . S
O312 Cd271 2.417 1_655 S
O312 C305 1.239 . S
O313 Cd271 2.330 1_655 S
O313 C305 1.230 . S
H314 C300 0.929 . S
H315 C304 0.930 . S
H316 C274 0.931 . S
H317 C276 0.930 . S
H318 C282 0.929 1_455 S
H319 C284 0.931 . S
H320 C291 0.931 . S
H321 C293 0.930 . S
H322 C301 0.929 . S
H323 C303 0.931 . S
Cd324 N327 2.334 . S
Cd324 N353 2.304 . S
Cd324 O360 2.268 . S
Cd324 O363 2.273 . S
Cd324 O364 2.417 . S
Cd324 O365 2.330 . S
Cd325 N340 2.304 1_655 S
Cd325 N344 2.334 . S
Cd325 O361 2.273 . S
Cd325 O362 2.268 . S
Cd325 O366 2.417 1_655 S
Cd325 O367 2.330 1_655 S
C326 N327 1.332 . S
C326 C330 1.381 . S
C326 H332 0.931 . S
N327 Cd324 2.334 . S
N327 C326 1.332 . S
N327 C331 1.328 . S
C328 C329 1.396 . S
C328 C331 1.378 . S
C328 H370 0.931 . S
C329 C328 1.396 . S
C329 C330 1.382 . S
C330 C326 1.381 . S
C330 C329 1.382 . S
C330 H371 0.930 . S
C331 N327 1.328 . S
C331 C328 1.378 . S
C331 H333 0.930 . S
H332 C326 0.931 . S
H333 C331 0.930 . S
C334 O360 1.238 . S
C334 O361 1.253 . S
C335 C336 1.379 1_655 S
C335 N340 1.337 1_655 S
C335 H341 0.929 . S
C336 C335 1.379 1_455 S
C336 C337 1.380 . S
C336 H372 0.929 1_455 S
C337 C336 1.380 . S
C337 C338 1.399 . S
C338 C337 1.399 . S
C338 C339 1.376 . S
C338 H373 0.931 . S
C339 C338 1.376 . S
C339 N340 1.338 . S
C339 H342 0.930 . S
N340 Cd325 2.304 1_455 S
N340 C335 1.337 1_455 S
N340 C339 1.338 . S
H341 C335 0.929 . S
H342 C339 0.930 . S
C343 N344 1.332 . S
C343 C347 1.381 . S
C343 H349 0.931 . S
N344 Cd325 2.334 . S
N344 C343 1.332 . S
N344 C348 1.328 . S
C345 C346 1.396 . S
C345 C348 1.378 . S
C345 H374 0.931 . S
C346 C345 1.396 . S
C346 C347 1.382 . S
C347 C343 1.381 . S
C347 C346 1.382 . S
C347 H375 0.930 . S
C348 N344 1.328 . S
C348 C345 1.378 . S
C348 H350 0.930 . S
H349 C343 0.931 . S
H350 C348 0.930 . S
C351 O362 1.238 . S
C351 O363 1.253 . S
C352 O364 1.239 . S
C352 O365 1.230 . S
N353 Cd324 2.304 . S
N353 C354 1.337 . S
N353 C358 1.338 . S
C354 N353 1.337 . S
C354 C355 1.379 . S
C354 H368 0.929 . S
C355 C354 1.379 . S
C355 C356 1.380 . S
C355 H376 0.929 . S
C356 C355 1.380 . S
C356 C357 1.399 . S
C357 C356 1.399 . S
C357 C358 1.376 . S
C357 H377 0.931 . S
C358 N353 1.338 . S
C358 C357 1.376 . S
C358 H369 0.930 . S
C359 O366 1.239 . S
C359 O367 1.230 . S
O360 Cd324 2.268 . S
O360 C334 1.238 . S
O361 Cd325 2.273 . S
O361 C334 1.253 . S
O362 Cd325 2.268 . S
O362 C351 1.238 . S
O363 Cd324 2.273 . S
O363 C351 1.253 . S
O364 Cd324 2.417 . S
O364 C352 1.239 . S
O365 Cd324 2.330 . S
O365 C352 1.230 . S
O366 Cd325 2.417 1_455 S
O366 C359 1.239 . S
O367 Cd325 2.330 1_455 S
O367 C359 1.230 . S
H368 C354 0.929 . S
H369 C358 0.930 . S
H370 C328 0.931 . S
H371 C330 0.930 . S
H372 C336 0.929 1_655 S
H373 C338 0.931 . S
H374 C345 0.931 . S
H375 C347 0.930 . S
H376 C355 0.929 . S
H377 C357 0.931 . S
Cd378 N381 2.334 . S
Cd378 N407 2.304 . S
Cd378 O414 2.268 . S
Cd378 O417 2.273 . S
Cd378 O418 2.417 . S
Cd378 O419 2.330 . S
Cd379 N394 2.304 . S
Cd379 N398 2.334 . S
Cd379 O415 2.273 . S
Cd379 O416 2.268 . S
Cd379 O420 2.417 . S
Cd379 O421 2.330 . S
C380 N381 1.332 . S
C380 C384 1.381 . S
C380 H386 0.931 . S
N381 Cd378 2.334 . S
N381 C380 1.332 . S
N381 C385 1.328 . S
C382 C383 1.396 . S
C382 C385 1.378 . S
C382 H424 0.931 . S
C383 C382 1.396 . S
C383 C384 1.382 . S
C384 C380 1.381 . S
C384 C383 1.382 . S
C384 H425 0.930 . S
C385 N381 1.328 . S
C385 C382 1.378 . S
C385 H387 0.930 . S
H386 C380 0.931 . S
H387 C385 0.930 . S
C388 O414 1.238 . S
C388 O415 1.253 . S
C389 C390 1.379 . S
C389 N394 1.337 . S
C389 H395 0.929 . S
C390 C389 1.379 . S
C390 C391 1.380 . S
C390 H426 0.929 . S
C391 C390 1.380 . S
C391 C392 1.399 . S
C392 C391 1.399 . S
C392 C393 1.376 . S
C392 H427 0.931 . S
C393 C392 1.376 . S
C393 N394 1.338 . S
C393 H396 0.930 . S
N394 Cd379 2.304 . S
N394 C389 1.337 . S
N394 C393 1.338 . S
H395 C389 0.929 . S
H396 C393 0.930 . S
C397 N398 1.332 . S
C397 C401 1.381 . S
C397 H403 0.931 . S
N398 Cd379 2.334 . S
N398 C397 1.332 . S
N398 C402 1.328 . S
C399 C400 1.396 . S
C399 C402 1.378 . S
C399 H428 0.931 . S
C400 C399 1.396 . S
C400 C401 1.382 . S
C401 C397 1.381 . S
C401 C400 1.382 . S
C401 H429 0.930 . S
C402 N398 1.328 . S
C402 C399 1.378 . S
C402 H404 0.930 . S
H403 C397 0.931 . S
H404 C402 0.930 . S
C405 O416 1.238 . S
C405 O417 1.253 . S
C406 O418 1.239 . S
C406 O419 1.230 . S
N407 Cd378 2.304 . S
N407 C408 1.337 . S
N407 C412 1.338 . S
C408 N407 1.337 . S
C408 C409 1.379 . S
C408 H422 0.929 . S
C409 C408 1.379 . S
C409 C410 1.380 . S
C409 H430 0.929 . S
C410 C409 1.380 . S
C410 C411 1.399 . S
C411 C410 1.399 . S
C411 C412 1.376 . S
C411 H431 0.931 . S
C412 N407 1.338 . S
C412 C411 1.376 . S
C412 H423 0.930 . S
C413 O420 1.239 . S
C413 O421 1.230 . S
O414 Cd378 2.268 . S
O414 C388 1.238 . S
O415 Cd379 2.273 . S
O415 C388 1.253 . S
O416 Cd379 2.268 . S
O416 C405 1.238 . S
O417 Cd378 2.273 . S
O417 C405 1.253 . S
O418 Cd378 2.417 . S
O418 C406 1.239 . S
O419 Cd378 2.330 . S
O419 C406 1.230 . S
O420 Cd379 2.417 . S
O420 C413 1.239 . S
O421 Cd379 2.330 . S
O421 C413 1.230 . S
H422 C408 0.929 . S
H423 C412 0.930 . S
H424 C382 0.931 . S
H425 C384 0.930 . S
H426 C390 0.929 . S
H427 C392 0.931 . S
H428 C399 0.931 . S
H429 C401 0.930 . S
H430 C409 0.929 . S
H431 C411 0.931 . S
Cd432 N435 2.334 . S
Cd432 N461 2.304 . S
Cd432 O468 2.268 . S
Cd432 O471 2.273 . S
Cd432 O472 2.417 . S
Cd432 O473 2.330 . S
Cd433 N448 2.304 . S
Cd433 N452 2.334 . S
Cd433 O469 2.273 . S
Cd433 O470 2.268 . S
Cd433 O474 2.417 . S
Cd433 O475 2.330 . S
C434 N435 1.332 . S
C434 C438 1.381 . S
C434 H440 0.931 . S
N435 Cd432 2.334 . S
N435 C434 1.332 . S
N435 C439 1.328 . S
C436 C437 1.396 . S
C436 C439 1.378 . S
C436 H478 0.931 . S
C437 C436 1.396 . S
C437 C438 1.382 . S
C438 C434 1.381 . S
C438 C437 1.382 . S
C438 H479 0.930 . S
C439 N435 1.328 . S
C439 C436 1.378 . S
C439 H441 0.930 . S
H440 C434 0.931 . S
H441 C439 0.930 . S
C442 O468 1.238 . S
C442 O469 1.253 . S
C443 C444 1.379 . S
C443 N448 1.337 . S
C443 H449 0.929 . S
C444 C443 1.379 . S
C444 C445 1.380 . S
C444 H480 0.929 . S
C445 C444 1.380 . S
C445 C446 1.399 . S
C446 C445 1.399 . S
C446 C447 1.376 . S
C446 H481 0.931 . S
C447 C446 1.376 . S
C447 N448 1.338 . S
C447 H450 0.930 . S
N448 Cd433 2.304 . S
N448 C443 1.337 . S
N448 C447 1.338 . S
H449 C443 0.929 . S
H450 C447 0.930 . S
C451 N452 1.332 . S
C451 C455 1.381 . S
C451 H457 0.931 . S
N452 Cd433 2.334 . S
N452 C451 1.332 . S
N452 C456 1.328 . S
C453 C454 1.396 . S
C453 C456 1.378 . S
C453 H482 0.931 . S
C454 C453 1.396 . S
C454 C455 1.382 . S
C455 C451 1.381 . S
C455 C454 1.382 . S
C455 H483 0.930 . S
C456 N452 1.328 . S
C456 C453 1.378 . S
C456 H458 0.930 . S
H457 C451 0.931 . S
H458 C456 0.930 . S
C459 O470 1.238 . S
C459 O471 1.253 . S
C460 O472 1.239 . S
C460 O473 1.230 . S
N461 Cd432 2.304 . S
N461 C462 1.337 . S
N461 C466 1.338 . S
C462 N461 1.337 . S
C462 C463 1.379 . S
C462 H476 0.929 . S
C463 C462 1.379 . S
C463 C464 1.380 . S
C463 H484 0.929 . S
C464 C463 1.380 . S
C464 C465 1.399 . S
C465 C464 1.399 . S
C465 C466 1.376 . S
C465 H485 0.931 . S
C466 N461 1.338 . S
C466 C465 1.376 . S
C466 H477 0.930 . S
C467 O474 1.239 . S
C467 O475 1.230 . S
O468 Cd432 2.268 . S
O468 C442 1.238 . S
O469 Cd433 2.273 . S
O469 C442 1.253 . S
O470 Cd433 2.268 . S
O470 C459 1.238 . S
O471 Cd432 2.273 . S
O471 C459 1.253 . S
O472 Cd432 2.417 . S
O472 C460 1.239 . S
O473 Cd432 2.330 . S
O473 C460 1.230 . S
O474 Cd433 2.417 . S
O474 C467 1.239 . S
O475 Cd433 2.330 . S
O475 C467 1.230 . S
H476 C462 0.929 . S
H477 C466 0.930 . S
H478 C436 0.931 . S
H479 C438 0.930 . S
H480 C444 0.929 . S
H481 C446 0.931 . S
H482 C453 0.931 . S
H483 C455 0.930 . S
H484 C463 0.929 . S
H485 C465 0.931 . S
Cd486 N489 2.334 . S
Cd486 N515 2.304 . S
Cd486 O522 2.268 . S
Cd486 O525 2.273 . S
Cd486 O526 2.417 . S
Cd486 O527 2.330 . S
Cd487 N502 2.304 1_545 S
Cd487 N506 2.334 . S
Cd487 O523 2.273 . S
Cd487 O524 2.268 . S
Cd487 O528 2.417 1_545 S
Cd487 O529 2.330 1_545 S
C488 N489 1.332 . S
C488 C492 1.381 . S
C488 H494 0.931 . S
N489 Cd486 2.334 . S
N489 C488 1.332 . S
N489 C493 1.328 . S
C490 C491 1.396 . S
C490 C493 1.378 . S
C490 H532 0.931 . S
C491 C490 1.396 . S
C491 C492 1.382 . S
C492 C488 1.381 . S
C492 C491 1.382 . S
C492 H533 0.930 . S
C493 N489 1.328 . S
C493 C490 1.378 . S
C493 H495 0.930 . S
H494 C488 0.931 . S
H495 C493 0.930 . S
C496 O522 1.238 . S
C496 O523 1.253 . S
C497 C498 1.379 1_545 S
C497 N502 1.337 1_545 S
C497 H503 0.929 . S
C498 C497 1.379 1_565 S
C498 C499 1.380 . S
C498 H534 0.929 1_565 S
C499 C498 1.380 . S
C499 C500 1.399 . S
C500 C499 1.399 . S
C500 C501 1.376 . S
C500 H535 0.931 . S
C501 C500 1.376 . S
C501 N502 1.338 . S
C501 H504 0.930 . S
N502 Cd487 2.304 1_565 S
N502 C497 1.337 1_565 S
N502 C501 1.338 . S
H503 C497 0.929 . S
H504 C501 0.930 . S
C505 N506 1.332 . S
C505 C509 1.381 . S
C505 H511 0.931 . S
N506 Cd487 2.334 . S
N506 C505 1.332 . S
N506 C510 1.328 . S
C507 C508 1.396 . S
C507 C510 1.378 . S
C507 H536 0.931 . S
C508 C507 1.396 . S
C508 C509 1.382 . S
C509 C505 1.381 . S
C509 C508 1.382 . S
C509 H537 0.930 . S
C510 N506 1.328 . S
C510 C507 1.378 . S
C510 H512 0.930 . S
H511 C505 0.931 . S
H512 C510 0.930 . S
C513 O524 1.238 . S
C513 O525 1.253 . S
C514 O526 1.239 . S
C514 O527 1.230 . S
N515 Cd486 2.304 . S
N515 C516 1.337 . S
N515 C520 1.338 . S
C516 N515 1.337 . S
C516 C517 1.379 . S
C516 H530 0.929 . S
C517 C516 1.379 . S
C517 C518 1.380 . S
C517 H538 0.929 . S
C518 C517 1.380 . S
C518 C519 1.399 . S
C519 C518 1.399 . S
C519 C520 1.376 . S
C519 H539 0.931 . S
C520 N515 1.338 . S
C520 C519 1.376 . S
C520 H531 0.930 . S
C521 O528 1.239 . S
C521 O529 1.230 . S
O522 Cd486 2.268 . S
O522 C496 1.238 . S
O523 Cd487 2.273 . S
O523 C496 1.253 . S
O524 Cd487 2.268 . S
O524 C513 1.238 . S
O525 Cd486 2.273 . S
O525 C513 1.253 . S
O526 Cd486 2.417 . S
O526 C514 1.239 . S
O527 Cd486 2.330 . S
O527 C514 1.230 . S
O528 Cd487 2.417 1_565 S
O528 C521 1.239 . S
O529 Cd487 2.330 1_565 S
O529 C521 1.230 . S
H530 C516 0.929 . S
H531 C520 0.930 . S
H532 C490 0.931 . S
H533 C492 0.930 . S
H534 C498 0.929 1_545 S
H535 C500 0.931 . S
H536 C507 0.931 . S
H537 C509 0.930 . S
H538 C517 0.929 . S
H539 C519 0.931 . S
Cd540 N543 2.334 . S
Cd540 N569 2.304 1_565 S
Cd540 O576 2.268 . S
Cd540 O579 2.273 . S
Cd540 O580 2.417 1_565 S
Cd540 O581 2.330 1_565 S
Cd541 N556 2.304 . S
Cd541 N560 2.334 . S
Cd541 O577 2.273 . S
Cd541 O578 2.268 . S
Cd541 O582 2.417 . S
Cd541 O583 2.330 . S
C542 N543 1.332 . S
C542 C546 1.381 . S
C542 H548 0.931 . S
N543 Cd540 2.334 . S
N543 C542 1.332 . S
N543 C547 1.328 . S
C544 C545 1.396 . S
C544 C547 1.378 . S
C544 H586 0.931 . S
C545 C544 1.396 . S
C545 C546 1.382 . S
C546 C542 1.381 . S
C546 C545 1.382 . S
C546 H587 0.930 . S
C547 N543 1.328 . S
C547 C544 1.378 . S
C547 H549 0.930 . S
H548 C542 0.931 . S
H549 C547 0.930 . S
C550 O576 1.238 . S
C550 O577 1.253 . S
C551 C552 1.379 . S
C551 N556 1.337 . S
C551 H557 0.929 . S
C552 C551 1.379 . S
C552 C553 1.380 . S
C552 H588 0.929 . S
C553 C552 1.380 . S
C553 C554 1.399 . S
C554 C553 1.399 . S
C554 C555 1.376 . S
C554 H589 0.931 . S
C555 C554 1.376 . S
C555 N556 1.338 . S
C555 H558 0.930 . S
N556 Cd541 2.304 . S
N556 C551 1.337 . S
N556 C555 1.338 . S
H557 C551 0.929 . S
H558 C555 0.930 . S
C559 N560 1.332 . S
C559 C563 1.381 . S
C559 H565 0.931 . S
N560 Cd541 2.334 . S
N560 C559 1.332 . S
N560 C564 1.328 . S
C561 C562 1.396 . S
C561 C564 1.378 . S
C561 H590 0.931 . S
C562 C561 1.396 . S
C562 C563 1.382 . S
C563 C559 1.381 . S
C563 C562 1.382 . S
C563 H591 0.930 . S
C564 N560 1.328 . S
C564 C561 1.378 . S
C564 H566 0.930 . S
H565 C559 0.931 . S
H566 C564 0.930 . S
C567 O578 1.238 . S
C567 O579 1.253 . S
C568 O580 1.239 . S
C568 O581 1.230 . S
N569 Cd540 2.304 1_545 S
N569 C570 1.337 1_545 S
N569 C574 1.338 . S
C570 N569 1.337 1_565 S
C570 C571 1.379 1_565 S
C570 H584 0.929 . S
C571 C570 1.379 1_545 S
C571 C572 1.380 . S
C571 H592 0.929 1_545 S
C572 C571 1.380 . S
C572 C573 1.399 . S
C573 C572 1.399 . S
C573 C574 1.376 . S
C573 H593 0.931 . S
C574 N569 1.338 . S
C574 C573 1.376 . S
C574 H585 0.930 . S
C575 O582 1.239 . S
C575 O583 1.230 . S
O576 Cd540 2.268 . S
O576 C550 1.238 . S
O577 Cd541 2.273 . S
O577 C550 1.253 . S
O578 Cd541 2.268 . S
O578 C567 1.238 . S
O579 Cd540 2.273 . S
O579 C567 1.253 . S
O580 Cd540 2.417 1_545 S
O580 C568 1.239 . S
O581 Cd540 2.330 1_545 S
O581 C568 1.230 . S
O582 Cd541 2.417 . S
O582 C575 1.239 . S
O583 Cd541 2.330 . S
O583 C575 1.230 . S
H584 C570 0.929 . S
H585 C574 0.930 . S
H586 C544 0.931 . S
H587 C546 0.930 . S
H588 C552 0.929 . S
H589 C554 0.931 . S
H590 C561 0.931 . S
H591 C563 0.930 . S
H592 C571 0.929 1_565 S
H593 C573 0.931 . S
Cd594 N597 2.334 . S
Cd594 N623 2.304 . S
Cd594 O630 2.268 . S
Cd594 O633 2.273 . S
Cd594 O634 2.417 . S
Cd594 O635 2.330 . S
Cd595 N610 2.304 . S
Cd595 N614 2.334 . S
Cd595 O631 2.273 . S
Cd595 O632 2.268 . S
Cd595 O636 2.417 . S
Cd595 O637 2.330 . S
C596 N597 1.332 . S
C596 C600 1.381 . S
C596 H602 0.931 . S
N597 Cd594 2.334 . S
N597 C596 1.332 . S
N597 C601 1.328 . S
C598 C599 1.396 . S
C598 C601 1.378 . S
C598 H640 0.931 . S
C599 C598 1.396 . S
C599 C600 1.382 . S
C600 C596 1.381 . S
C600 C599 1.382 . S
C600 H641 0.930 . S
C601 N597 1.328 . S
C601 C598 1.378 . S
C601 H603 0.930 . S
H602 C596 0.931 . S
H603 C601 0.930 . S
C604 O630 1.238 . S
C604 O631 1.253 . S
C605 C606 1.379 . S
C605 N610 1.337 . S
C605 H611 0.929 . S
C606 C605 1.379 . S
C606 C607 1.380 . S
C606 H642 0.929 . S
C607 C606 1.380 . S
C607 C608 1.399 . S
C608 C607 1.399 . S
C608 C609 1.376 . S
C608 H643 0.931 . S
C609 C608 1.376 . S
C609 N610 1.338 . S
C609 H612 0.930 . S
N610 Cd595 2.304 . S
N610 C605 1.337 . S
N610 C609 1.338 . S
H611 C605 0.929 . S
H612 C609 0.930 . S
C613 N614 1.332 . S
C613 C617 1.381 . S
C613 H619 0.931 . S
N614 Cd595 2.334 . S
N614 C613 1.332 . S
N614 C618 1.328 . S
C615 C616 1.396 . S
C615 C618 1.378 . S
C615 H644 0.931 . S
C616 C615 1.396 . S
C616 C617 1.382 . S
C617 C613 1.381 . S
C617 C616 1.382 . S
C617 H645 0.930 . S
C618 N614 1.328 . S
C618 C615 1.378 . S
C618 H620 0.930 . S
H619 C613 0.931 . S
H620 C618 0.930 . S
C621 O632 1.238 . S
C621 O633 1.253 . S
C622 O634 1.239 . S
C622 O635 1.230 . S
N623 Cd594 2.304 . S
N623 C624 1.337 . S
N623 C628 1.338 . S
C624 N623 1.337 . S
C624 C625 1.379 . S
C624 H638 0.929 . S
C625 C624 1.379 . S
C625 C626 1.380 . S
C625 H646 0.929 . S
C626 C625 1.380 . S
C626 C627 1.399 . S
C627 C626 1.399 . S
C627 C628 1.376 . S
C627 H647 0.931 . S
C628 N623 1.338 . S
C628 C627 1.376 . S
C628 H639 0.930 . S
C629 O636 1.239 . S
C629 O637 1.230 . S
O630 Cd594 2.268 . S
O630 C604 1.238 . S
O631 Cd595 2.273 . S
O631 C604 1.253 . S
O632 Cd595 2.268 . S
O632 C621 1.238 . S
O633 Cd594 2.273 . S
O633 C621 1.253 . S
O634 Cd594 2.417 . S
O634 C622 1.239 . S
O635 Cd594 2.330 . S
O635 C622 1.230 . S
O636 Cd595 2.417 . S
O636 C629 1.239 . S
O637 Cd595 2.330 . S
O637 C629 1.230 . S
H638 C624 0.929 . S
H639 C628 0.930 . S
H640 C598 0.931 . S
H641 C600 0.930 . S
H642 C606 0.929 . S
H643 C608 0.931 . S
H644 C615 0.931 . S
H645 C617 0.930 . S
H646 C625 0.929 . S
H647 C627 0.931 . S
Cd648 N651 2.334 . S
Cd648 N677 2.304 . S
Cd648 O684 2.268 . S
Cd648 O687 2.273 . S
Cd648 O688 2.417 . S
Cd648 O689 2.330 . S
Cd649 N664 2.304 . S
Cd649 N668 2.334 . S
Cd649 O685 2.273 . S
Cd649 O686 2.268 . S
Cd649 O690 2.417 . S
Cd649 O691 2.330 . S
C650 N651 1.332 . S
C650 C654 1.381 . S
C650 H656 0.931 . S
N651 Cd648 2.334 . S
N651 C650 1.332 . S
N651 C655 1.328 . S
C652 C653 1.396 . S
C652 C655 1.378 . S
C652 H694 0.931 . S
C653 C652 1.396 . S
C653 C654 1.382 . S
C654 C650 1.381 . S
C654 C653 1.382 . S
C654 H695 0.930 . S
C655 N651 1.328 . S
C655 C652 1.378 . S
C655 H657 0.930 . S
H656 C650 0.931 . S
H657 C655 0.930 . S
C658 O684 1.238 . S
C658 O685 1.253 . S
C659 C660 1.379 . S
C659 N664 1.337 . S
C659 H665 0.929 . S
C660 C659 1.379 . S
C660 C661 1.380 . S
C660 H696 0.929 . S
C661 C660 1.380 . S
C661 C662 1.399 . S
C662 C661 1.399 . S
C662 C663 1.376 . S
C662 H697 0.931 . S
C663 C662 1.376 . S
C663 N664 1.338 . S
C663 H666 0.930 . S
N664 Cd649 2.304 . S
N664 C659 1.337 . S
N664 C663 1.338 . S
H665 C659 0.929 . S
H666 C663 0.930 . S
C667 N668 1.332 . S
C667 C671 1.381 . S
C667 H673 0.931 . S
N668 Cd649 2.334 . S
N668 C667 1.332 . S
N668 C672 1.328 . S
C669 C670 1.396 . S
C669 C672 1.378 . S
C669 H698 0.931 . S
C670 C669 1.396 . S
C670 C671 1.382 . S
C671 C667 1.381 . S
C671 C670 1.382 . S
C671 H699 0.930 . S
C672 N668 1.328 . S
C672 C669 1.378 . S
C672 H674 0.930 . S
H673 C667 0.931 . S
H674 C672 0.930 . S
C675 O686 1.238 . S
C675 O687 1.253 . S
C676 O688 1.239 . S
C676 O689 1.230 . S
N677 Cd648 2.304 . S
N677 C678 1.337 . S
N677 C682 1.338 . S
C678 N677 1.337 . S
C678 C679 1.379 . S
C678 H692 0.929 . S
C679 C678 1.379 . S
C679 C680 1.380 . S
C679 H700 0.929 . S
C680 C679 1.380 . S
C680 C681 1.399 . S
C681 C680 1.399 . S
C681 C682 1.376 . S
C681 H701 0.931 . S
C682 N677 1.338 . S
C682 C681 1.376 . S
C682 H693 0.930 . S
C683 O690 1.239 . S
C683 O691 1.230 . S
O684 Cd648 2.268 . S
O684 C658 1.238 . S
O685 Cd649 2.273 . S
O685 C658 1.253 . S
O686 Cd649 2.268 . S
O686 C675 1.238 . S
O687 Cd648 2.273 . S
O687 C675 1.253 . S
O688 Cd648 2.417 . S
O688 C676 1.239 . S
O689 Cd648 2.330 . S
O689 C676 1.230 . S
O690 Cd649 2.417 . S
O690 C683 1.239 . S
O691 Cd649 2.330 . S
O691 C683 1.230 . S
H692 C678 0.929 . S
H693 C682 0.930 . S
H694 C652 0.931 . S
H695 C654 0.930 . S
H696 C660 0.929 . S
H697 C662 0.931 . S
H698 C669 0.931 . S
H699 C671 0.930 . S
H700 C679 0.929 . S
H701 C681 0.931 . S
Cd702 N705 2.334 . S
Cd702 N731 2.304 1_554 S
Cd702 O738 2.268 . S
Cd702 O741 2.273 . S
Cd702 O742 2.417 1_554 S
Cd702 O743 2.330 1_554 S
Cd703 N718 2.304 . S
Cd703 N722 2.334 . S
Cd703 O739 2.273 . S
Cd703 O740 2.268 . S
Cd703 O744 2.417 . S
Cd703 O745 2.330 . S
C704 N705 1.332 . S
C704 C708 1.381 . S
C704 H710 0.931 . S
N705 Cd702 2.334 . S
N705 C704 1.332 . S
N705 C709 1.328 . S
C706 C707 1.396 . S
C706 C709 1.378 . S
C706 H748 0.931 . S
C707 C706 1.396 . S
C707 C708 1.382 . S
C708 C704 1.381 . S
C708 C707 1.382 . S
C708 H749 0.930 . S
C709 N705 1.328 . S
C709 C706 1.378 . S
C709 H711 0.930 . S
H710 C704 0.931 . S
H711 C709 0.930 . S
C712 O738 1.238 . S
C712 O739 1.253 . S
C713 C714 1.379 . S
C713 N718 1.337 . S
C713 H719 0.929 . S
C714 C713 1.379 . S
C714 C715 1.380 . S
C714 H750 0.929 . S
C715 C714 1.380 . S
C715 C716 1.399 . S
C716 C715 1.399 . S
C716 C717 1.376 . S
C716 H751 0.931 . S
C717 C716 1.376 . S
C717 N718 1.338 . S
C717 H720 0.930 . S
N718 Cd703 2.304 . S
N718 C713 1.337 . S
N718 C717 1.338 . S
H719 C713 0.929 . S
H720 C717 0.930 . S
C721 N722 1.332 . S
C721 C725 1.381 . S
C721 H727 0.931 . S
N722 Cd703 2.334 . S
N722 C721 1.332 . S
N722 C726 1.328 . S
C723 C724 1.396 . S
C723 C726 1.378 . S
C723 H752 0.931 . S
C724 C723 1.396 . S
C724 C725 1.382 . S
C725 C721 1.381 . S
C725 C724 1.382 . S
C725 H753 0.930 . S
C726 N722 1.328 . S
C726 C723 1.378 . S
C726 H728 0.930 . S
H727 C721 0.931 . S
H728 C726 0.930 . S
C729 O740 1.238 . S
C729 O741 1.253 . S
C730 O742 1.239 . S
C730 O743 1.230 . S
N731 Cd702 2.304 1_556 S
N731 C732 1.337 1_556 S
N731 C736 1.338 . S
C732 N731 1.337 1_554 S
C732 C733 1.379 1_554 S
C732 H746 0.929 . S
C733 C732 1.379 1_556 S
C733 C734 1.380 . S
C733 H754 0.929 1_556 S
C734 C733 1.380 . S
C734 C735 1.399 . S
C735 C734 1.399 . S
C735 C736 1.376 . S
C735 H755 0.931 . S
C736 N731 1.338 . S
C736 C735 1.376 . S
C736 H747 0.930 . S
C737 O744 1.239 . S
C737 O745 1.230 . S
O738 Cd702 2.268 . S
O738 C712 1.238 . S
O739 Cd703 2.273 . S
O739 C712 1.253 . S
O740 Cd703 2.268 . S
O740 C729 1.238 . S
O741 Cd702 2.273 . S
O741 C729 1.253 . S
O742 Cd702 2.417 1_556 S
O742 C730 1.239 . S
O743 Cd702 2.330 1_556 S
O743 C730 1.230 . S
O744 Cd703 2.417 . S
O744 C737 1.239 . S
O745 Cd703 2.330 . S
O745 C737 1.230 . S
H746 C732 0.929 . S
H747 C736 0.930 . S
H748 C706 0.931 . S
H749 C708 0.930 . S
H750 C714 0.929 . S
H751 C716 0.931 . S
H752 C723 0.931 . S
H753 C725 0.930 . S
H754 C733 0.929 1_554 S
H755 C735 0.931 . S
Cd756 N759 2.334 . S
Cd756 N785 2.304 . S
Cd756 O792 2.268 . S
Cd756 O795 2.273 . S
Cd756 O796 2.417 . S
Cd756 O797 2.330 . S
Cd757 N772 2.304 . S
Cd757 N776 2.334 . S
Cd757 O793 2.273 . S
Cd757 O794 2.268 . S
Cd757 O798 2.417 . S
Cd757 O799 2.330 . S
C758 N759 1.332 . S
C758 C762 1.381 . S
C758 H764 0.931 . S
N759 Cd756 2.334 . S
N759 C758 1.332 . S
N759 C763 1.328 . S
C760 C761 1.396 . S
C760 C763 1.378 . S
C760 H802 0.931 . S
C761 C760 1.396 . S
C761 C762 1.382 . S
C762 C758 1.381 . S
C762 C761 1.382 . S
C762 H803 0.930 . S
C763 N759 1.328 . S
C763 C760 1.378 . S
C763 H765 0.930 . S
H764 C758 0.931 . S
H765 C763 0.930 . S
C766 O792 1.238 . S
C766 O793 1.253 . S
C767 C768 1.379 . S
C767 N772 1.337 . S
C767 H773 0.929 . S
C768 C767 1.379 . S
C768 C769 1.380 . S
C768 H804 0.929 . S
C769 C768 1.380 . S
C769 C770 1.399 . S
C770 C769 1.399 . S
C770 C771 1.376 . S
C770 H805 0.931 . S
C771 C770 1.376 . S
C771 N772 1.338 . S
C771 H774 0.930 . S
N772 Cd757 2.304 . S
N772 C767 1.337 . S
N772 C771 1.338 . S
H773 C767 0.929 . S
H774 C771 0.930 . S
C775 N776 1.332 . S
C775 C779 1.381 . S
C775 H781 0.931 . S
N776 Cd757 2.334 . S
N776 C775 1.332 . S
N776 C780 1.328 . S
C777 C778 1.396 . S
C777 C780 1.378 . S
C777 H806 0.931 . S
C778 C777 1.396 . S
C778 C779 1.382 . S
C779 C775 1.381 . S
C779 C778 1.382 . S
C779 H807 0.930 . S
C780 N776 1.328 . S
C780 C777 1.378 . S
C780 H782 0.930 . S
H781 C775 0.931 . S
H782 C780 0.930 . S
C783 O794 1.238 . S
C783 O795 1.253 . S
C784 O796 1.239 . S
C784 O797 1.230 . S
N785 Cd756 2.304 . S
N785 C786 1.337 . S
N785 C790 1.338 . S
C786 N785 1.337 . S
C786 C787 1.379 . S
C786 H800 0.929 . S
C787 C786 1.379 . S
C787 C788 1.380 . S
C787 H808 0.929 . S
C788 C787 1.380 . S
C788 C789 1.399 . S
C789 C788 1.399 . S
C789 C790 1.376 . S
C789 H809 0.931 . S
C790 N785 1.338 . S
C790 C789 1.376 . S
C790 H801 0.930 . S
C791 O798 1.239 . S
C791 O799 1.230 . S
O792 Cd756 2.268 . S
O792 C766 1.238 . S
O793 Cd757 2.273 . S
O793 C766 1.253 . S
O794 Cd757 2.268 . S
O794 C783 1.238 . S
O795 Cd756 2.273 . S
O795 C783 1.253 . S
O796 Cd756 2.417 . S
O796 C784 1.239 . S
O797 Cd756 2.330 . S
O797 C784 1.230 . S
O798 Cd757 2.417 . S
O798 C791 1.239 . S
O799 Cd757 2.330 . S
O799 C791 1.230 . S
H800 C786 0.929 . S
H801 C790 0.930 . S
H802 C760 0.931 . S
H803 C762 0.930 . S
H804 C768 0.929 . S
H805 C770 0.931 . S
H806 C777 0.931 . S
H807 C779 0.930 . S
H808 C787 0.929 . S
H809 C789 0.931 . S
Cd810 N813 2.334 . S
Cd810 N839 2.304 1_556 S
Cd810 O846 2.268 . S
Cd810 O849 2.273 . S
Cd810 O850 2.417 1_556 S
Cd810 O851 2.330 1_556 S
Cd811 N826 2.304 . S
Cd811 N830 2.334 . S
Cd811 O847 2.273 . S
Cd811 O848 2.268 . S
Cd811 O852 2.417 . S
Cd811 O853 2.330 . S
C812 N813 1.332 . S
C812 C816 1.381 . S
C812 H818 0.931 . S
N813 Cd810 2.334 . S
N813 C812 1.332 . S
N813 C817 1.328 . S
C814 C815 1.396 . S
C814 C817 1.378 . S
C814 H856 0.931 . S
C815 C814 1.396 . S
C815 C816 1.382 . S
C816 C812 1.381 . S
C816 C815 1.382 . S
C816 H857 0.930 . S
C817 N813 1.328 . S
C817 C814 1.378 . S
C817 H819 0.930 . S
H818 C812 0.931 . S
H819 C817 0.930 . S
C820 O846 1.238 . S
C820 O847 1.253 . S
C821 C822 1.379 . S
C821 N826 1.337 . S
C821 H827 0.929 . S
C822 C821 1.379 . S
C822 C823 1.380 . S
C822 H858 0.929 . S
C823 C822 1.380 . S
C823 C824 1.399 . S
C824 C823 1.399 . S
C824 C825 1.376 . S
C824 H859 0.931 . S
C825 C824 1.376 . S
C825 N826 1.338 . S
C825 H828 0.930 . S
N826 Cd811 2.304 . S
N826 C821 1.337 . S
N826 C825 1.338 . S
H827 C821 0.929 . S
H828 C825 0.930 . S
C829 N830 1.332 . S
C829 C833 1.381 . S
C829 H835 0.931 . S
N830 Cd811 2.334 . S
N830 C829 1.332 . S
N830 C834 1.328 . S
C831 C832 1.396 . S
C831 C834 1.378 . S
C831 H860 0.931 . S
C832 C831 1.396 . S
C832 C833 1.382 . S
C833 C829 1.381 . S
C833 C832 1.382 . S
C833 H861 0.930 . S
C834 N830 1.328 . S
C834 C831 1.378 . S
C834 H836 0.930 . S
H835 C829 0.931 . S
H836 C834 0.930 . S
C837 O848 1.238 . S
C837 O849 1.253 . S
C838 O850 1.239 . S
C838 O851 1.230 . S
N839 Cd810 2.304 1_554 S
N839 C840 1.337 1_554 S
N839 C844 1.338 . S
C840 N839 1.337 1_556 S
C840 C841 1.379 1_556 S
C840 H854 0.929 . S
C841 C840 1.379 1_554 S
C841 C842 1.380 . S
C841 H862 0.929 1_554 S
C842 C841 1.380 . S
C842 C843 1.399 . S
C843 C842 1.399 . S
C843 C844 1.376 . S
C843 H863 0.931 . S
C844 N839 1.338 . S
C844 C843 1.376 . S
C844 H855 0.930 . S
C845 O852 1.239 . S
C845 O853 1.230 . S
O846 Cd810 2.268 . S
O846 C820 1.238 . S
O847 Cd811 2.273 . S
O847 C820 1.253 . S
O848 Cd811 2.268 . S
O848 C837 1.238 . S
O849 Cd810 2.273 . S
O849 C837 1.253 . S
O850 Cd810 2.417 1_554 S
O850 C838 1.239 . S
O851 Cd810 2.330 1_554 S
O851 C838 1.230 . S
O852 Cd811 2.417 . S
O852 C845 1.239 . S
O853 Cd811 2.330 . S
O853 C845 1.230 . S
H854 C840 0.929 . S
H855 C844 0.930 . S
H856 C814 0.931 . S
H857 C816 0.930 . S
H858 C822 0.929 . S
H859 C824 0.931 . S
H860 C831 0.931 . S
H861 C833 0.930 . S
H862 C841 0.929 1_556 S
H863 C843 0.931 . S
Cd864 N867 2.334 . S
Cd864 N893 2.304 . S
Cd864 O900 2.268 . S
Cd864 O903 2.273 . S
Cd864 O904 2.417 . S
Cd864 O905 2.330 . S
Cd865 N880 2.304 . S
Cd865 N884 2.334 . S
Cd865 O901 2.273 . S
Cd865 O902 2.268 . S
Cd865 O906 2.417 . S
Cd865 O907 2.330 . S
C866 N867 1.332 . S
C866 C870 1.381 . S
C866 H872 0.931 . S
N867 Cd864 2.334 . S
N867 C866 1.332 . S
N867 C871 1.328 . S
C868 C869 1.396 . S
C868 C871 1.378 . S
C868 H910 0.931 . S
C869 C868 1.396 . S
C869 C870 1.382 . S
C870 C866 1.381 . S
C870 C869 1.382 . S
C870 H911 0.930 . S
C871 N867 1.328 . S
C871 C868 1.378 . S
C871 H873 0.930 . S
H872 C866 0.931 . S
H873 C871 0.930 . S
C874 O900 1.238 . S
C874 O901 1.253 . S
C875 C876 1.379 . S
C875 N880 1.337 . S
C875 H881 0.929 . S
C876 C875 1.379 . S
C876 C877 1.380 . S
C876 H912 0.929 . S
C877 C876 1.380 . S
C877 C878 1.399 . S
C878 C877 1.399 . S
C878 C879 1.376 . S
C878 H913 0.931 . S
C879 C878 1.376 . S
C879 N880 1.338 . S
C879 H882 0.930 . S
N880 Cd865 2.304 . S
N880 C875 1.337 . S
N880 C879 1.338 . S
H881 C875 0.929 . S
H882 C879 0.930 . S
C883 N884 1.332 . S
C883 C887 1.381 . S
C883 H889 0.931 . S
N884 Cd865 2.334 . S
N884 C883 1.332 . S
N884 C888 1.328 . S
C885 C886 1.396 . S
C885 C888 1.378 . S
C885 H914 0.931 . S
C886 C885 1.396 . S
C886 C887 1.382 . S
C887 C883 1.381 . S
C887 C886 1.382 . S
C887 H915 0.930 . S
C888 N884 1.328 . S
C888 C885 1.378 . S
C888 H890 0.930 . S
H889 C883 0.931 . S
H890 C888 0.930 . S
C891 O902 1.238 . S
C891 O903 1.253 . S
C892 O904 1.239 . S
C892 O905 1.230 . S
N893 Cd864 2.304 . S
N893 C894 1.337 . S
N893 C898 1.338 . S
C894 N893 1.337 . S
C894 C895 1.379 . S
C894 H908 0.929 . S
C895 C894 1.379 . S
C895 C896 1.380 . S
C895 H916 0.929 . S
C896 C895 1.380 . S
C896 C897 1.399 . S
C897 C896 1.399 . S
C897 C898 1.376 . S
C897 H917 0.931 . S
C898 N893 1.338 . S
C898 C897 1.376 . S
C898 H909 0.930 . S
C899 O906 1.239 . S
C899 O907 1.230 . S
O900 Cd864 2.268 . S
O900 C874 1.238 . S
O901 Cd865 2.273 . S
O901 C874 1.253 . S
O902 Cd865 2.268 . S
O902 C891 1.238 . S
O903 Cd864 2.273 . S
O903 C891 1.253 . S
O904 Cd864 2.417 . S
O904 C892 1.239 . S
O905 Cd864 2.330 . S
O905 C892 1.230 . S
O906 Cd865 2.417 . S
O906 C899 1.239 . S
O907 Cd865 2.330 . S
O907 C899 1.230 . S
H908 C894 0.929 . S
H909 C898 0.930 . S
H910 C868 0.931 . S
H911 C870 0.930 . S
H912 C876 0.929 . S
H913 C878 0.931 . S
H914 C885 0.931 . S
H915 C887 0.930 . S
H916 C895 0.929 . S
H917 C897 0.931 . S
Cd918 N921 2.334 . S
Cd918 N947 2.304 1_655 S
Cd918 O954 2.268 . S
Cd918 O957 2.273 . S
Cd918 O958 2.417 1_655 S
Cd918 O959 2.330 1_655 S
Cd919 N934 2.304 . S
Cd919 N938 2.334 . S
Cd919 O955 2.273 . S
Cd919 O956 2.268 . S
Cd919 O960 2.417 . S
Cd919 O961 2.330 . S
C920 N921 1.332 . S
C920 C924 1.381 . S
C920 H926 0.931 . S
N921 Cd918 2.334 . S
N921 C920 1.332 . S
N921 C925 1.328 . S
C922 C923 1.396 . S
C922 C925 1.378 . S
C922 H964 0.931 . S
C923 C922 1.396 . S
C923 C924 1.382 . S
C924 C920 1.381 . S
C924 C923 1.382 . S
C924 H965 0.930 . S
C925 N921 1.328 . S
C925 C922 1.378 . S
C925 H927 0.930 . S
H926 C920 0.931 . S
H927 C925 0.930 . S
C928 O954 1.238 . S
C928 O955 1.253 . S
C929 C930 1.379 . S
C929 N934 1.337 . S
C929 H935 0.929 . S
C930 C929 1.379 . S
C930 C931 1.380 . S
C930 H966 0.929 . S
C931 C930 1.380 . S
C931 C932 1.399 . S
C932 C931 1.399 . S
C932 C933 1.376 . S
C932 H967 0.931 . S
C933 C932 1.376 . S
C933 N934 1.338 . S
C933 H936 0.930 . S
N934 Cd919 2.304 . S
N934 C929 1.337 . S
N934 C933 1.338 . S
H935 C929 0.929 . S
H936 C933 0.930 . S
C937 N938 1.332 . S
C937 C941 1.381 . S
C937 H943 0.931 . S
N938 Cd919 2.334 . S
N938 C937 1.332 . S
N938 C942 1.328 . S
C939 C940 1.396 . S
C939 C942 1.378 . S
C939 H968 0.931 . S
C940 C939 1.396 . S
C940 C941 1.382 . S
C941 C937 1.381 . S
C941 C940 1.382 . S
C941 H969 0.930 . S
C942 N938 1.328 . S
C942 C939 1.378 . S
C942 H944 0.930 . S
H943 C937 0.931 . S
H944 C942 0.930 . S
C945 O956 1.238 . S
C945 O957 1.253 . S
C946 O958 1.239 . S
C946 O959 1.230 . S
N947 Cd918 2.304 1_455 S
N947 C948 1.337 1_455 S
N947 C952 1.338 . S
C948 N947 1.337 1_655 S
C948 C949 1.379 1_655 S
C948 H962 0.929 . S
C949 C948 1.379 1_455 S
C949 C950 1.380 . S
C949 H970 0.929 1_455 S
C950 C949 1.380 . S
C950 C951 1.399 . S
C951 C950 1.399 . S
C951 C952 1.376 . S
C951 H971 0.931 . S
C952 N947 1.338 . S
C952 C951 1.376 . S
C952 H963 0.930 . S
C953 O960 1.239 . S
C953 O961 1.230 . S
O954 Cd918 2.268 . S
O954 C928 1.238 . S
O955 Cd919 2.273 . S
O955 C928 1.253 . S
O956 Cd919 2.268 . S
O956 C945 1.238 . S
O957 Cd918 2.273 . S
O957 C945 1.253 . S
O958 Cd918 2.417 1_455 S
O958 C946 1.239 . S
O959 Cd918 2.330 1_455 S
O959 C946 1.230 . S
O960 Cd919 2.417 . S
O960 C953 1.239 . S
O961 Cd919 2.330 . S
O961 C953 1.230 . S
H962 C948 0.929 . S
H963 C952 0.930 . S
H964 C922 0.931 . S
H965 C924 0.930 . S
H966 C930 0.929 . S
H967 C932 0.931 . S
H968 C939 0.931 . S
H969 C941 0.930 . S
H970 C949 0.929 1_655 S
H971 C951 0.931 . S
Cd972 N975 2.334 . S
Cd972 N1001 2.304 1_455 S
Cd972 O1008 2.268 . S
Cd972 O1011 2.273 . S
Cd972 O1012 2.417 1_455 S
Cd972 O1013 2.330 1_455 S
Cd973 N988 2.304 . S
Cd973 N992 2.334 . S
Cd973 O1009 2.273 . S
Cd973 O1010 2.268 . S
Cd973 O1014 2.417 . S
Cd973 O1015 2.330 . S
C974 N975 1.332 . S
C974 C978 1.381 . S
C974 H980 0.931 . S
N975 Cd972 2.334 . S
N975 C974 1.332 . S
N975 C979 1.328 . S
C976 C977 1.396 . S
C976 C979 1.378 . S
C976 H1018 0.931 . S
C977 C976 1.396 . S
C977 C978 1.382 . S
C978 C974 1.381 . S
C978 C977 1.382 . S
C978 H1019 0.930 . S
C979 N975 1.328 . S
C979 C976 1.378 . S
C979 H981 0.930 . S
H980 C974 0.931 . S
H981 C979 0.930 . S
C982 O1008 1.238 . S
C982 O1009 1.253 . S
C983 C984 1.379 . S
C983 N988 1.337 . S
C983 H989 0.929 . S
C984 C983 1.379 . S
C984 C985 1.380 . S
C984 H1020 0.929 . S
C985 C984 1.380 . S
C985 C986 1.399 . S
C986 C985 1.399 . S
C986 C987 1.376 . S
C986 H1021 0.931 . S
C987 C986 1.376 . S
C987 N988 1.338 . S
C987 H990 0.930 . S
N988 Cd973 2.304 . S
N988 C983 1.337 . S
N988 C987 1.338 . S
H989 C983 0.929 . S
H990 C987 0.930 . S
C991 N992 1.332 . S
C991 C995 1.381 . S
C991 H997 0.931 . S
N992 Cd973 2.334 . S
N992 C991 1.332 . S
N992 C996 1.328 . S
C993 C994 1.396 . S
C993 C996 1.378 . S
C993 H1022 0.931 . S
C994 C993 1.396 . S
C994 C995 1.382 . S
C995 C991 1.381 . S
C995 C994 1.382 . S
C995 H1023 0.930 . S
C996 N992 1.328 . S
C996 C993 1.378 . S
C996 H998 0.930 . S
H997 C991 0.931 . S
H998 C996 0.930 . S
C999 O1010 1.238 . S
C999 O1011 1.253 . S
C1000 O1012 1.239 . S
C1000 O1013 1.230 . S
N1001 Cd972 2.304 1_655 S
N1001 C1002 1.337 1_655 S
N1001 C1006 1.338 . S
C1002 N1001 1.337 1_455 S
C1002 C1003 1.379 1_455 S
C1002 H1016 0.929 . S
C1003 C1002 1.379 1_655 S
C1003 C1004 1.380 . S
C1003 H1024 0.929 1_655 S
C1004 C1003 1.380 . S
C1004 C1005 1.399 . S
C1005 C1004 1.399 . S
C1005 C1006 1.376 . S
C1005 H1025 0.931 . S
C1006 N1001 1.338 . S
C1006 C1005 1.376 . S
C1006 H1017 0.930 . S
C1007 O1014 1.239 . S
C1007 O1015 1.230 . S
O1008 Cd972 2.268 . S
O1008 C982 1.238 . S
O1009 Cd973 2.273 . S
O1009 C982 1.253 . S
O1010 Cd973 2.268 . S
O1010 C999 1.238 . S
O1011 Cd972 2.273 . S
O1011 C999 1.253 . S
O1012 Cd972 2.417 1_655 S
O1012 C1000 1.239 . S
O1013 Cd972 2.330 1_655 S
O1013 C1000 1.230 . S
O1014 Cd973 2.417 . S
O1014 C1007 1.239 . S
O1015 Cd973 2.330 . S
O1015 C1007 1.230 . S
H1016 C1002 0.929 . S
H1017 C1006 0.930 . S
H1018 C976 0.931 . S
H1019 C978 0.930 . S
H1020 C984 0.929 . S
H1021 C986 0.931 . S
H1022 C993 0.931 . S
H1023 C995 0.930 . S
H1024 C1003 0.929 1_455 S
H1025 C1005 0.931 . S
Cd1026 N1029 2.334 . S
Cd1026 N1055 2.304 . S
Cd1026 O1062 2.268 . S
Cd1026 O1065 2.273 . S
Cd1026 O1066 2.417 . S
Cd1026 O1067 2.330 . S
Cd1027 N1042 2.304 . S
Cd1027 N1046 2.334 . S
Cd1027 O1063 2.273 . S
Cd1027 O1064 2.268 . S
Cd1027 O1068 2.417 . S
Cd1027 O1069 2.330 . S
C1028 N1029 1.332 . S
C1028 C1032 1.381 . S
C1028 H1034 0.931 . S
N1029 Cd1026 2.334 . S
N1029 C1028 1.332 . S
N1029 C1033 1.328 . S
C1030 C1031 1.396 . S
C1030 C1033 1.378 . S
C1030 H1072 0.931 . S
C1031 C1030 1.396 . S
C1031 C1032 1.382 . S
C1032 C1028 1.381 . S
C1032 C1031 1.382 . S
C1032 H1073 0.930 . S
C1033 N1029 1.328 . S
C1033 C1030 1.378 . S
C1033 H1035 0.930 . S
H1034 C1028 0.931 . S
H1035 C1033 0.930 . S
C1036 O1062 1.238 . S
C1036 O1063 1.253 . S
C1037 C1038 1.379 . S
C1037 N1042 1.337 . S
C1037 H1043 0.929 . S
C1038 C1037 1.379 . S
C1038 C1039 1.380 . S
C1038 H1074 0.929 . S
C1039 C1038 1.380 . S
C1039 C1040 1.399 . S
C1040 C1039 1.399 . S
C1040 C1041 1.376 . S
C1040 H1075 0.931 . S
C1041 C1040 1.376 . S
C1041 N1042 1.338 . S
C1041 H1044 0.930 . S
N1042 Cd1027 2.304 . S
N1042 C1037 1.337 . S
N1042 C1041 1.338 . S
H1043 C1037 0.929 . S
H1044 C1041 0.930 . S
C1045 N1046 1.332 . S
C1045 C1049 1.381 . S
C1045 H1051 0.931 . S
N1046 Cd1027 2.334 . S
N1046 C1045 1.332 . S
N1046 C1050 1.328 . S
C1047 C1048 1.396 . S
C1047 C1050 1.378 . S
C1047 H1076 0.931 . S
C1048 C1047 1.396 . S
C1048 C1049 1.382 . S
C1049 C1045 1.381 . S
C1049 C1048 1.382 . S
C1049 H1077 0.930 . S
C1050 N1046 1.328 . S
C1050 C1047 1.378 . S
C1050 H1052 0.930 . S
H1051 C1045 0.931 . S
H1052 C1050 0.930 . S
C1053 O1064 1.238 . S
C1053 O1065 1.253 . S
C1054 O1066 1.239 . S
C1054 O1067 1.230 . S
N1055 Cd1026 2.304 . S
N1055 C1056 1.337 . S
N1055 C1060 1.338 . S
C1056 N1055 1.337 . S
C1056 C1057 1.379 . S
C1056 H1070 0.929 . S
C1057 C1056 1.379 . S
C1057 C1058 1.380 . S
C1057 H1078 0.929 . S
C1058 C1057 1.380 . S
C1058 C1059 1.399 . S
C1059 C1058 1.399 . S
C1059 C1060 1.376 . S
C1059 H1079 0.931 . S
C1060 N1055 1.338 . S
C1060 C1059 1.376 . S
C1060 H1071 0.930 . S
C1061 O1068 1.239 . S
C1061 O1069 1.230 . S
O1062 Cd1026 2.268 . S
O1062 C1036 1.238 . S
O1063 Cd1027 2.273 . S
O1063 C1036 1.253 . S
O1064 Cd1027 2.268 . S
O1064 C1053 1.238 . S
O1065 Cd1026 2.273 . S
O1065 C1053 1.253 . S
O1066 Cd1026 2.417 . S
O1066 C1054 1.239 . S
O1067 Cd1026 2.330 . S
O1067 C1054 1.230 . S
O1068 Cd1027 2.417 . S
O1068 C1061 1.239 . S
O1069 Cd1027 2.330 . S
O1069 C1061 1.230 . S
H1070 C1056 0.929 . S
H1071 C1060 0.930 . S
H1072 C1030 0.931 . S
H1073 C1032 0.930 . S
H1074 C1038 0.929 . S
H1075 C1040 0.931 . S
H1076 C1047 0.931 . S
H1077 C1049 0.930 . S
H1078 C1057 0.929 . S
H1079 C1059 0.931 . S
Cd1080 N1083 2.334 . S
Cd1080 N1109 2.304 . S
Cd1080 O1116 2.268 . S
Cd1080 O1119 2.273 . S
Cd1080 O1120 2.417 . S
Cd1080 O1121 2.330 . S
Cd1081 N1096 2.304 . S
Cd1081 N1100 2.334 . S
Cd1081 O1117 2.273 . S
Cd1081 O1118 2.268 . S
Cd1081 O1122 2.417 . S
Cd1081 O1123 2.330 . S
C1082 N1083 1.332 . S
C1082 C1086 1.381 . S
C1082 H1088 0.931 . S
N1083 Cd1080 2.334 . S
N1083 C1082 1.332 . S
N1083 C1087 1.328 . S
C1084 C1085 1.396 . S
C1084 C1087 1.378 . S
C1084 H1126 0.931 . S
C1085 C1084 1.396 . S
C1085 C1086 1.382 . S
C1086 C1082 1.381 . S
C1086 C1085 1.382 . S
C1086 H1127 0.930 . S
C1087 N1083 1.328 . S
C1087 C1084 1.378 . S
C1087 H1089 0.930 . S
H1088 C1082 0.931 . S
H1089 C1087 0.930 . S
C1090 O1116 1.238 . S
C1090 O1117 1.253 . S
C1091 C1092 1.379 . S
C1091 N1096 1.337 . S
C1091 H1097 0.929 . S
C1092 C1091 1.379 . S
C1092 C1093 1.380 . S
C1092 H1128 0.929 . S
C1093 C1092 1.380 . S
C1093 C1094 1.399 . S
C1094 C1093 1.399 . S
C1094 C1095 1.376 . S
C1094 H1129 0.931 . S
C1095 C1094 1.376 . S
C1095 N1096 1.338 . S
C1095 H1098 0.930 . S
N1096 Cd1081 2.304 . S
N1096 C1091 1.337 . S
N1096 C1095 1.338 . S
H1097 C1091 0.929 . S
H1098 C1095 0.930 . S
C1099 N1100 1.332 . S
C1099 C1103 1.381 . S
C1099 H1105 0.931 . S
N1100 Cd1081 2.334 . S
N1100 C1099 1.332 . S
N1100 C1104 1.328 . S
C1101 C1102 1.396 . S
C1101 C1104 1.378 . S
C1101 H1130 0.931 . S
C1102 C1101 1.396 . S
C1102 C1103 1.382 . S
C1103 C1099 1.381 . S
C1103 C1102 1.382 . S
C1103 H1131 0.930 . S
C1104 N1100 1.328 . S
C1104 C1101 1.378 . S
C1104 H1106 0.930 . S
H1105 C1099 0.931 . S
H1106 C1104 0.930 . S
C1107 O1118 1.238 . S
C1107 O1119 1.253 . S
C1108 O1120 1.239 . S
C1108 O1121 1.230 . S
N1109 Cd1080 2.304 . S
N1109 C1110 1.337 . S
N1109 C1114 1.338 . S
C1110 N1109 1.337 . S
C1110 C1111 1.379 . S
C1110 H1124 0.929 . S
C1111 C1110 1.379 . S
C1111 C1112 1.380 . S
C1111 H1132 0.929 . S
C1112 C1111 1.380 . S
C1112 C1113 1.399 . S
C1113 C1112 1.399 . S
C1113 C1114 1.376 . S
C1113 H1133 0.931 . S
C1114 N1109 1.338 . S
C1114 C1113 1.376 . S
C1114 H1125 0.930 . S
C1115 O1122 1.239 . S
C1115 O1123 1.230 . S
O1116 Cd1080 2.268 . S
O1116 C1090 1.238 . S
O1117 Cd1081 2.273 . S
O1117 C1090 1.253 . S
O1118 Cd1081 2.268 . S
O1118 C1107 1.238 . S
O1119 Cd1080 2.273 . S
O1119 C1107 1.253 . S
O1120 Cd1080 2.417 . S
O1120 C1108 1.239 . S
O1121 Cd1080 2.330 . S
O1121 C1108 1.230 . S
O1122 Cd1081 2.417 . S
O1122 C1115 1.239 . S
O1123 Cd1081 2.330 . S
O1123 C1115 1.230 . S
H1124 C1110 0.929 . S
H1125 C1114 0.930 . S
H1126 C1084 0.931 . S
H1127 C1086 0.930 . S
H1128 C1092 0.929 . S
H1129 C1094 0.931 . S
H1130 C1101 0.931 . S
H1131 C1103 0.930 . S
H1132 C1111 0.929 . S
H1133 C1113 0.931 . S
Cd1134 N1137 2.334 . S
Cd1134 N1163 2.304 1_565 S
Cd1134 O1170 2.268 . S
Cd1134 O1173 2.273 . S
Cd1134 O1174 2.417 1_565 S
Cd1134 O1175 2.330 1_565 S
Cd1135 N1150 2.304 . S
Cd1135 N1154 2.334 . S
Cd1135 O1171 2.273 . S
Cd1135 O1172 2.268 . S
Cd1135 O1176 2.417 . S
Cd1135 O1177 2.330 . S
C1136 N1137 1.332 . S
C1136 C1140 1.381 . S
C1136 H1142 0.931 . S
N1137 Cd1134 2.334 . S
N1137 C1136 1.332 . S
N1137 C1141 1.328 . S
C1138 C1139 1.396 . S
C1138 C1141 1.378 . S
C1138 H1180 0.931 . S
C1139 C1138 1.396 . S
C1139 C1140 1.382 . S
C1140 C1136 1.381 . S
C1140 C1139 1.382 . S
C1140 H1181 0.930 . S
C1141 N1137 1.328 . S
C1141 C1138 1.378 . S
C1141 H1143 0.930 . S
H1142 C1136 0.931 . S
H1143 C1141 0.930 . S
C1144 O1170 1.238 . S
C1144 O1171 1.253 . S
C1145 C1146 1.379 . S
C1145 N1150 1.337 . S
C1145 H1151 0.929 . S
C1146 C1145 1.379 . S
C1146 C1147 1.380 . S
C1146 H1182 0.929 . S
C1147 C1146 1.380 . S
C1147 C1148 1.399 . S
C1148 C1147 1.399 . S
C1148 C1149 1.376 . S
C1148 H1183 0.931 . S
C1149 C1148 1.376 . S
C1149 N1150 1.338 . S
C1149 H1152 0.930 . S
N1150 Cd1135 2.304 . S
N1150 C1145 1.337 . S
N1150 C1149 1.338 . S
H1151 C1145 0.929 . S
H1152 C1149 0.930 . S
C1153 N1154 1.332 . S
C1153 C1157 1.381 . S
C1153 H1159 0.931 . S
N1154 Cd1135 2.334 . S
N1154 C1153 1.332 . S
N1154 C1158 1.328 . S
C1155 C1156 1.396 . S
C1155 C1158 1.378 . S
C1155 H1184 0.931 . S
C1156 C1155 1.396 . S
C1156 C1157 1.382 . S
C1157 C1153 1.381 . S
C1157 C1156 1.382 . S
C1157 H1185 0.930 . S
C1158 N1154 1.328 . S
C1158 C1155 1.378 . S
C1158 H1160 0.930 . S
H1159 C1153 0.931 . S
H1160 C1158 0.930 . S
C1161 O1172 1.238 . S
C1161 O1173 1.253 . S
C1162 O1174 1.239 . S
C1162 O1175 1.230 . S
N1163 Cd1134 2.304 1_545 S
N1163 C1164 1.337 1_545 S
N1163 C1168 1.338 . S
C1164 N1163 1.337 1_565 S
C1164 C1165 1.379 1_565 S
C1164 H1178 0.929 . S
C1165 C1164 1.379 1_545 S
C1165 C1166 1.380 . S
C1165 H1186 0.929 1_545 S
C1166 C1165 1.380 . S
C1166 C1167 1.399 . S
C1167 C1166 1.399 . S
C1167 C1168 1.376 . S
C1167 H1187 0.931 . S
C1168 N1163 1.338 . S
C1168 C1167 1.376 . S
C1168 H1179 0.930 . S
C1169 O1176 1.239 . S
C1169 O1177 1.230 . S
O1170 Cd1134 2.268 . S
O1170 C1144 1.238 . S
O1171 Cd1135 2.273 . S
O1171 C1144 1.253 . S
O1172 Cd1135 2.268 . S
O1172 C1161 1.238 . S
O1173 Cd1134 2.273 . S
O1173 C1161 1.253 . S
O1174 Cd1134 2.417 1_545 S
O1174 C1162 1.239 . S
O1175 Cd1134 2.330 1_545 S
O1175 C1162 1.230 . S
O1176 Cd1135 2.417 . S
O1176 C1169 1.239 . S
O1177 Cd1135 2.330 . S
O1177 C1169 1.230 . S
H1178 C1164 0.929 . S
H1179 C1168 0.930 . S
H1180 C1138 0.931 . S
H1181 C1140 0.930 . S
H1182 C1146 0.929 . S
H1183 C1148 0.931 . S
H1184 C1155 0.931 . S
H1185 C1157 0.930 . S
H1186 C1165 0.929 1_565 S
H1187 C1167 0.931 . S
Cd1188 N1191 2.334 . S
Cd1188 N1217 2.304 1_545 S
Cd1188 O1224 2.268 . S
Cd1188 O1227 2.273 . S
Cd1188 O1228 2.417 1_545 S
Cd1188 O1229 2.330 1_545 S
Cd1189 N1204 2.304 . S
Cd1189 N1208 2.334 . S
Cd1189 O1225 2.273 . S
Cd1189 O1226 2.268 . S
Cd1189 O1230 2.417 . S
Cd1189 O1231 2.330 . S
C1190 N1191 1.332 . S
C1190 C1194 1.381 . S
C1190 H1196 0.931 . S
N1191 Cd1188 2.334 . S
N1191 C1190 1.332 . S
N1191 C1195 1.328 . S
C1192 C1193 1.396 . S
C1192 C1195 1.378 . S
C1192 H1234 0.931 . S
C1193 C1192 1.396 . S
C1193 C1194 1.382 . S
C1194 C1190 1.381 . S
C1194 C1193 1.382 . S
C1194 H1235 0.930 . S
C1195 N1191 1.328 . S
C1195 C1192 1.378 . S
C1195 H1197 0.930 . S
H1196 C1190 0.931 . S
H1197 C1195 0.930 . S
C1198 O1224 1.238 . S
C1198 O1225 1.253 . S
C1199 C1200 1.379 . S
C1199 N1204 1.337 . S
C1199 H1205 0.929 . S
C1200 C1199 1.379 . S
C1200 C1201 1.380 . S
C1200 H1236 0.929 . S
C1201 C1200 1.380 . S
C1201 C1202 1.399 . S
C1202 C1201 1.399 . S
C1202 C1203 1.376 . S
C1202 H1237 0.931 . S
C1203 C1202 1.376 . S
C1203 N1204 1.338 . S
C1203 H1206 0.930 . S
N1204 Cd1189 2.304 . S
N1204 C1199 1.337 . S
N1204 C1203 1.338 . S
H1205 C1199 0.929 . S
H1206 C1203 0.930 . S
C1207 N1208 1.332 . S
C1207 C1211 1.381 . S
C1207 H1213 0.931 . S
N1208 Cd1189 2.334 . S
N1208 C1207 1.332 . S
N1208 C1212 1.328 . S
C1209 C1210 1.396 . S
C1209 C1212 1.378 . S
C1209 H1238 0.931 . S
C1210 C1209 1.396 . S
C1210 C1211 1.382 . S
C1211 C1207 1.381 . S
C1211 C1210 1.382 . S
C1211 H1239 0.930 . S
C1212 N1208 1.328 . S
C1212 C1209 1.378 . S
C1212 H1214 0.930 . S
H1213 C1207 0.931 . S
H1214 C1212 0.930 . S
C1215 O1226 1.238 . S
C1215 O1227 1.253 . S
C1216 O1228 1.239 . S
C1216 O1229 1.230 . S
N1217 Cd1188 2.304 1_565 S
N1217 C1218 1.337 1_565 S
N1217 C1222 1.338 . S
C1218 N1217 1.337 1_545 S
C1218 C1219 1.379 1_545 S
C1218 H1232 0.929 . S
C1219 C1218 1.379 1_565 S
C1219 C1220 1.380 . S
C1219 H1240 0.929 1_565 S
C1220 C1219 1.380 . S
C1220 C1221 1.399 . S
C1221 C1220 1.399 . S
C1221 C1222 1.376 . S
C1221 H1241 0.931 . S
C1222 N1217 1.338 . S
C1222 C1221 1.376 . S
C1222 H1233 0.930 . S
C1223 O1230 1.239 . S
C1223 O1231 1.230 . S
O1224 Cd1188 2.268 . S
O1224 C1198 1.238 . S
O1225 Cd1189 2.273 . S
O1225 C1198 1.253 . S
O1226 Cd1189 2.268 . S
O1226 C1215 1.238 . S
O1227 Cd1188 2.273 . S
O1227 C1215 1.253 . S
O1228 Cd1188 2.417 1_565 S
O1228 C1216 1.239 . S
O1229 Cd1188 2.330 1_565 S
O1229 C1216 1.230 . S
O1230 Cd1189 2.417 . S
O1230 C1223 1.239 . S
O1231 Cd1189 2.330 . S
O1231 C1223 1.230 . S
H1232 C1218 0.929 . S
H1233 C1222 0.930 . S
H1234 C1192 0.931 . S
H1235 C1194 0.930 . S
H1236 C1200 0.929 . S
H1237 C1202 0.931 . S
H1238 C1209 0.931 . S
H1239 C1211 0.930 . S
H1240 C1219 0.929 1_545 S
H1241 C1221 0.931 . S
Cd1242 N1245 2.334 . S
Cd1242 N1271 2.304 . S
Cd1242 O1278 2.268 . S
Cd1242 O1281 2.273 . S
Cd1242 O1282 2.417 . S
Cd1242 O1283 2.330 . S
Cd1243 N1258 2.304 . S
Cd1243 N1262 2.334 . S
Cd1243 O1279 2.273 . S
Cd1243 O1280 2.268 . S
Cd1243 O1284 2.417 . S
Cd1243 O1285 2.330 . S
C1244 N1245 1.332 . S
C1244 C1248 1.381 . S
C1244 H1250 0.931 . S
N1245 Cd1242 2.334 . S
N1245 C1244 1.332 . S
N1245 C1249 1.328 . S
C1246 C1247 1.396 . S
C1246 C1249 1.378 . S
C1246 H1288 0.931 . S
C1247 C1246 1.396 . S
C1247 C1248 1.382 . S
C1248 C1244 1.381 . S
C1248 C1247 1.382 . S
C1248 H1289 0.930 . S
C1249 N1245 1.328 . S
C1249 C1246 1.378 . S
C1249 H1251 0.930 . S
H1250 C1244 0.931 . S
H1251 C1249 0.930 . S
C1252 O1278 1.238 . S
C1252 O1279 1.253 . S
C1253 C1254 1.379 . S
C1253 N1258 1.337 . S
C1253 H1259 0.929 . S
C1254 C1253 1.379 . S
C1254 C1255 1.380 . S
C1254 H1290 0.929 . S
C1255 C1254 1.380 . S
C1255 C1256 1.399 . S
C1256 C1255 1.399 . S
C1256 C1257 1.376 . S
C1256 H1291 0.931 . S
C1257 C1256 1.376 . S
C1257 N1258 1.338 . S
C1257 H1260 0.930 . S
N1258 Cd1243 2.304 . S
N1258 C1253 1.337 . S
N1258 C1257 1.338 . S
H1259 C1253 0.929 . S
H1260 C1257 0.930 . S
C1261 N1262 1.332 . S
C1261 C1265 1.381 . S
C1261 H1267 0.931 . S
N1262 Cd1243 2.334 . S
N1262 C1261 1.332 . S
N1262 C1266 1.328 . S
C1263 C1264 1.396 . S
C1263 C1266 1.378 . S
C1263 H1292 0.931 . S
C1264 C1263 1.396 . S
C1264 C1265 1.382 . S
C1265 C1261 1.381 . S
C1265 C1264 1.382 . S
C1265 H1293 0.930 . S
C1266 N1262 1.328 . S
C1266 C1263 1.378 . S
C1266 H1268 0.930 . S
H1267 C1261 0.931 . S
H1268 C1266 0.930 . S
C1269 O1280 1.238 . S
C1269 O1281 1.253 . S
C1270 O1282 1.239 . S
C1270 O1283 1.230 . S
N1271 Cd1242 2.304 . S
N1271 C1272 1.337 . S
N1271 C1276 1.338 . S
C1272 N1271 1.337 . S
C1272 C1273 1.379 . S
C1272 H1286 0.929 . S
C1273 C1272 1.379 . S
C1273 C1274 1.380 . S
C1273 H1294 0.929 . S
C1274 C1273 1.380 . S
C1274 C1275 1.399 . S
C1275 C1274 1.399 . S
C1275 C1276 1.376 . S
C1275 H1295 0.931 . S
C1276 N1271 1.338 . S
C1276 C1275 1.376 . S
C1276 H1287 0.930 . S
C1277 O1284 1.239 . S
C1277 O1285 1.230 . S
O1278 Cd1242 2.268 . S
O1278 C1252 1.238 . S
O1279 Cd1243 2.273 . S
O1279 C1252 1.253 . S
O1280 Cd1243 2.268 . S
O1280 C1269 1.238 . S
O1281 Cd1242 2.273 . S
O1281 C1269 1.253 . S
O1282 Cd1242 2.417 . S
O1282 C1270 1.239 . S
O1283 Cd1242 2.330 . S
O1283 C1270 1.230 . S
O1284 Cd1243 2.417 . S
O1284 C1277 1.239 . S
O1285 Cd1243 2.330 . S
O1285 C1277 1.230 . S
H1286 C1272 0.929 . S
H1287 C1276 0.930 . S
H1288 C1246 0.931 . S
H1289 C1248 0.930 . S
H1290 C1254 0.929 . S
H1291 C1256 0.931 . S
H1292 C1263 0.931 . S
H1293 C1265 0.930 . S
H1294 C1273 0.929 . S
H1295 C1275 0.931 . S
C1296 C1297 1.363 . S
C1296 C1302 1.379 . S
C1296 N1304 1.356 . S
C1297 C1296 1.363 . S
C1297 C1303 1.363 . S
C1298 C1299 1.363 . S
C1298 C1303 1.379 . S
C1298 N1305 1.356 . S
C1299 C1298 1.363 . S
C1299 C1302 1.363 . S
N1300 C1302 1.356 . S
N1300 H1312 0.984 . S
N1300 H1313 0.985 . S
N1301 C1303 1.356 . S
N1301 H1306 0.984 . S
N1301 H1307 0.985 . S
C1302 C1296 1.379 . S
C1302 C1299 1.363 . S
C1302 N1300 1.356 . S
C1303 C1297 1.363 . S
C1303 C1298 1.379 . S
C1303 N1301 1.356 . S
N1304 C1296 1.356 . S
N1304 H1310 0.984 . S
N1304 H1311 0.984 . S
N1305 C1298 1.356 . S
N1305 H1308 0.984 . S
N1305 H1309 0.985 . S
H1306 N1301 0.984 . S
H1307 N1301 0.985 . S
H1308 N1305 0.984 . S
H1309 N1305 0.985 . S
H1310 N1304 0.984 . S
H1311 N1304 0.984 . S
H1312 N1300 0.984 . S
H1313 N1300 0.985 . S
C1314 C1315 1.363 . S
C1314 C1320 1.379 . S
C1314 N1322 1.356 . S
C1315 C1314 1.363 . S
C1315 C1321 1.363 . S
C1316 C1317 1.363 . S
C1316 C1321 1.379 . S
C1316 N1323 1.356 . S
C1317 C1316 1.363 . S
C1317 C1320 1.363 . S
N1318 C1320 1.356 . S
N1318 H1330 0.984 . S
N1318 H1331 0.985 . S
N1319 C1321 1.356 . S
N1319 H1324 0.984 . S
N1319 H1325 0.985 . S
C1320 C1314 1.379 . S
C1320 C1317 1.363 . S
C1320 N1318 1.356 . S
C1321 C1315 1.363 . S
C1321 C1316 1.379 . S
C1321 N1319 1.356 . S
N1322 C1314 1.356 . S
N1322 H1328 0.984 . S
N1322 H1329 0.984 . S
N1323 C1316 1.356 . S
N1323 H1326 0.984 . S
N1323 H1327 0.985 . S
H1324 N1319 0.984 . S
H1325 N1319 0.985 . S
H1326 N1323 0.984 . S
H1327 N1323 0.985 . S
H1328 N1322 0.984 . S
H1329 N1322 0.984 . S
H1330 N1318 0.984 . S
H1331 N1318 0.985 . S
C1332 C1333 1.363 1_545 S
C1332 C1338 1.379 . S
C1332 N1340 1.356 1_545 S
C1333 C1332 1.363 1_565 S
C1333 C1339 1.363 1_565 S
C1334 C1335 1.363 . S
C1334 C1339 1.379 . S
C1334 N1341 1.356 . S
C1335 C1334 1.363 . S
C1335 C1338 1.363 . S
N1336 C1338 1.356 . S
N1336 H1348 0.984 . S
N1336 H1349 0.985 . S
N1337 C1339 1.356 1_565 S
N1337 H1342 0.984 . S
N1337 H1343 0.985 . S
C1338 C1332 1.379 . S
C1338 C1335 1.363 . S
C1338 N1336 1.356 . S
C1339 C1333 1.363 1_545 S
C1339 C1334 1.379 . S
C1339 N1337 1.356 1_545 S
N1340 C1332 1.356 1_565 S
N1340 H1346 0.984 1_565 S
N1340 H1347 0.984 . S
N1341 C1334 1.356 . S
N1341 H1344 0.984 . S
N1341 H1345 0.985 . S
H1342 N1337 0.984 . S
H1343 N1337 0.985 . S
H1344 N1341 0.984 . S
H1345 N1341 0.985 . S
H1346 N1340 0.984 1_545 S
H1347 N1340 0.984 . S
H1348 N1336 0.984 . S
H1349 N1336 0.985 . S
C1350 C1351 1.363 . S
C1350 C1356 1.379 . S
C1350 N1358 1.356 . S
C1351 C1350 1.363 . S
C1351 C1357 1.363 . S
C1352 C1353 1.363 1_565 S
C1352 C1357 1.379 . S
C1352 N1359 1.356 1_565 S
C1353 C1352 1.363 1_545 S
C1353 C1356 1.363 1_545 S
N1354 C1356 1.356 1_545 S
N1354 H1366 0.984 1_545 S
N1354 H1367 0.985 . S
N1355 C1357 1.356 . S
N1355 H1360 0.984 . S
N1355 H1361 0.985 . S
C1356 C1350 1.379 . S
C1356 C1353 1.363 1_565 S
C1356 N1354 1.356 1_565 S
C1357 C1351 1.363 . S
C1357 C1352 1.379 . S
C1357 N1355 1.356 . S
N1358 C1350 1.356 . S
N1358 H1364 0.984 . S
N1358 H1365 0.984 . S
N1359 C1352 1.356 1_545 S
N1359 H1362 0.984 . S
N1359 H1363 0.985 . S
H1360 N1355 0.984 . S
H1361 N1355 0.985 . S
H1362 N1359 0.984 . S
H1363 N1359 0.985 . S
H1364 N1358 0.984 . S
H1365 N1358 0.984 . S
H1366 N1354 0.984 1_565 S
H1367 N1354 0.985 . S
C1368 C1369 1.363 . S
C1368 C1374 1.379 . S
C1368 N1376 1.356 . S
C1369 C1368 1.363 . S
C1369 C1375 1.363 . S
C1370 C1371 1.363 . S
C1370 C1375 1.379 . S
C1370 N1377 1.356 . S
C1371 C1370 1.363 . S
C1371 C1374 1.363 . S
N1372 C1374 1.356 . S
N1372 H1384 0.984 . S
N1372 H1385 0.985 . S
N1373 C1375 1.356 . S
N1373 H1378 0.984 . S
N1373 H1379 0.985 . S
C1374 C1368 1.379 . S
C1374 C1371 1.363 . S
C1374 N1372 1.356 . S
C1375 C1369 1.363 . S
C1375 C1370 1.379 . S
C1375 N1373 1.356 . S
N1376 C1368 1.356 . S
N1376 H1382 0.984 1_545 S
N1376 H1383 0.984 . S
N1377 C1370 1.356 . S
N1377 H1380 0.984 . S
N1377 H1381 0.985 . S
H1378 N1373 0.984 . S
H1379 N1373 0.985 . S
H1380 N1377 0.984 . S
H1381 N1377 0.985 . S
H1382 N1376 0.984 1_565 S
H1383 N1376 0.984 . S
H1384 N1372 0.984 . S
H1385 N1372 0.985 . S
C1386 C1387 1.363 1_556 S
C1386 C1392 1.379 . S
C1386 N1394 1.356 1_556 S
C1387 C1386 1.363 1_554 S
C1387 C1393 1.363 1_554 S
C1388 C1389 1.363 . S
C1388 C1393 1.379 . S
C1388 N1395 1.356 . S
C1389 C1388 1.363 . S
C1389 C1392 1.363 . S
N1390 C1392 1.356 . S
N1390 H1402 0.984 . S
N1390 H1403 0.985 . S
N1391 C1393 1.356 1_545 S
N1391 H1396 0.984 1_556 S
N1391 H1397 0.985 . S
C1392 C1386 1.379 . S
C1392 C1389 1.363 . S
C1392 N1390 1.356 . S
C1393 C1387 1.363 1_556 S
C1393 C1388 1.379 . S
C1393 N1391 1.356 1_565 S
N1394 C1386 1.356 1_554 S
N1394 H1400 0.984 . S
N1394 H1401 0.984 . S
N1395 C1388 1.356 . S
N1395 H1398 0.984 . S
N1395 H1399 0.985 1_565 S
H1396 N1391 0.984 1_554 S
H1397 N1391 0.985 . S
H1398 N1395 0.984 . S
H1399 N1395 0.985 1_545 S
H1400 N1394 0.984 . S
H1401 N1394 0.984 . S
H1402 N1390 0.984 . S
H1403 N1390 0.985 . S
C1404 C1405 1.363 . S
C1404 C1410 1.379 . S
C1404 N1412 1.356 . S
C1405 C1404 1.363 . S
C1405 C1411 1.363 . S
C1406 C1407 1.363 . S
C1406 C1411 1.379 . S
C1406 N1413 1.356 . S
C1407 C1406 1.363 . S
C1407 C1410 1.363 . S
N1408 C1410 1.356 . S
N1408 H1420 0.984 . S
N1408 H1421 0.985 . S
N1409 C1411 1.356 . S
N1409 H1414 0.984 . S
N1409 H1415 0.985 . S
C1410 C1404 1.379 . S
C1410 C1407 1.363 . S
C1410 N1408 1.356 . S
C1411 C1405 1.363 . S
C1411 C1406 1.379 . S
C1411 N1409 1.356 . S
N1412 C1404 1.356 . S
N1412 H1418 0.984 . S
N1412 H1419 0.984 . S
N1413 C1406 1.356 . S
N1413 H1416 0.984 . S
N1413 H1417 0.985 . S
H1414 N1409 0.984 . S
H1415 N1409 0.985 . S
H1416 N1413 0.984 . S
H1417 N1413 0.985 . S
H1418 N1412 0.984 . S
H1419 N1412 0.984 . S
H1420 N1408 0.984 . S
H1421 N1408 0.985 . S
C1422 C1423 1.363 1_554 S
C1422 C1428 1.379 . S
C1422 N1430 1.356 1_554 S
C1423 C1422 1.363 1_556 S
C1423 C1429 1.363 1_556 S
C1424 C1425 1.363 . S
C1424 C1429 1.379 . S
C1424 N1431 1.356 . S
C1425 C1424 1.363 . S
C1425 C1428 1.363 . S
N1426 C1428 1.356 . S
N1426 H1438 0.984 . S
N1426 H1439 0.985 . S
N1427 C1429 1.356 1_556 S
N1427 H1432 0.984 . S
N1427 H1433 0.985 . S
C1428 C1422 1.379 . S
C1428 C1425 1.363 . S
C1428 N1426 1.356 . S
C1429 C1423 1.363 1_554 S
C1429 C1424 1.379 . S
C1429 N1427 1.356 1_554 S
N1430 C1422 1.356 1_556 S
N1430 H1436 0.984 1_556 S
N1430 H1437 0.984 . S
N1431 C1424 1.356 . S
N1431 H1434 0.984 . S
N1431 H1435 0.985 . S
H1432 N1427 0.984 . S
H1433 N1427 0.985 . S
H1434 N1431 0.984 . S
H1435 N1431 0.985 . S
H1436 N1430 0.984 1_554 S
H1437 N1430 0.984 . S
H1438 N1426 0.984 . S
H1439 N1426 0.985 . S
C1440 C1441 1.363 . S
C1440 C1446 1.379 . S
C1440 N1448 1.356 . S
C1441 C1440 1.363 . S
C1441 C1447 1.363 . S
C1442 C1443 1.363 . S
C1442 C1447 1.379 . S
C1442 N1449 1.356 . S
C1443 C1442 1.363 . S
C1443 C1446 1.363 . S
N1444 C1446 1.356 . S
N1444 H1456 0.984 . S
N1444 H1457 0.985 . S
N1445 C1447 1.356 . S
N1445 H1450 0.984 . S
N1445 H1451 0.985 . S
C1446 C1440 1.379 . S
C1446 C1443 1.363 . S
C1446 N1444 1.356 . S
C1447 C1441 1.363 . S
C1447 C1442 1.379 . S
C1447 N1445 1.356 . S
N1448 C1440 1.356 . S
N1448 H1454 0.984 . S
N1448 H1455 0.984 . S
N1449 C1442 1.356 . S
N1449 H1452 0.984 . S
N1449 H1453 0.985 . S
H1450 N1445 0.984 . S
H1451 N1445 0.985 . S
H1452 N1449 0.984 . S
H1453 N1449 0.985 . S
H1454 N1448 0.984 . S
H1455 N1448 0.984 . S
H1456 N1444 0.984 . S
H1457 N1444 0.985 . S
C1458 C1459 1.363 1_655 S
C1458 C1464 1.379 . S
C1458 N1466 1.356 1_655 S
C1459 C1458 1.363 1_455 S
C1459 C1465 1.363 1_455 S
C1460 C1461 1.363 . S
C1460 C1465 1.379 . S
C1460 N1467 1.356 . S
C1461 C1460 1.363 . S
C1461 C1464 1.363 . S
N1462 C1464 1.356 . S
N1462 H1474 0.984 . S
N1462 H1475 0.985 . S
N1463 C1465 1.356 1_455 S
N1463 H1468 0.984 . S
N1463 H1469 0.985 1_455 S
C1464 C1458 1.379 . S
C1464 C1461 1.363 . S
C1464 N1462 1.356 . S
C1465 C1459 1.363 1_655 S
C1465 C1460 1.379 . S
C1465 N1463 1.356 1_655 S
N1466 C1458 1.356 1_455 S
N1466 H1472 0.984 . S
N1466 H1473 0.984 . S
N1467 C1460 1.356 . S
N1467 H1470 0.984 . S
N1467 H1471 0.985 . S
H1468 N1463 0.984 . S
H1469 N1463 0.985 1_655 S
H1470 N1467 0.984 . S
H1471 N1467 0.985 . S
H1472 N1466 0.984 . S
H1473 N1466 0.984 . S
H1474 N1462 0.984 . S
H1475 N1462 0.985 . S
C1476 C1477 1.363 . S
C1476 C1482 1.379 . S
C1476 N1484 1.356 . S
C1477 C1476 1.363 . S
C1477 C1483 1.363 . S
C1478 C1479 1.363 . S
C1478 C1483 1.379 . S
C1478 N1485 1.356 . S
C1479 C1478 1.363 . S
C1479 C1482 1.363 . S
N1480 C1482 1.356 . S
N1480 H1492 0.984 . S
N1480 H1493 0.985 . S
N1481 C1483 1.356 . S
N1481 H1486 0.984 . S
N1481 H1487 0.985 . S
C1482 C1476 1.379 . S
C1482 C1479 1.363 . S
C1482 N1480 1.356 . S
C1483 C1477 1.363 . S
C1483 C1478 1.379 . S
C1483 N1481 1.356 . S
N1484 C1476 1.356 . S
N1484 H1490 0.984 . S
N1484 H1491 0.984 . S
N1485 C1478 1.356 . S
N1485 H1488 0.984 . S
N1485 H1489 0.985 . S
H1486 N1481 0.984 . S
H1487 N1481 0.985 . S
H1488 N1485 0.984 . S
H1489 N1485 0.985 . S
H1490 N1484 0.984 . S
H1491 N1484 0.984 . S
H1492 N1480 0.984 . S
H1493 N1480 0.985 . S
C1494 C1495 1.363 1_455 S
C1494 C1500 1.379 . S
C1494 N1502 1.356 1_455 S
C1495 C1494 1.363 1_655 S
C1495 C1501 1.363 1_655 S
C1496 C1497 1.363 . S
C1496 C1501 1.379 . S
C1496 N1503 1.356 . S
C1497 C1496 1.363 . S
C1497 C1500 1.363 . S
N1498 C1500 1.356 . S
N1498 H1510 0.984 . S
N1498 H1511 0.985 . S
N1499 C1501 1.356 1_655 S
N1499 H1504 0.984 . S
N1499 H1505 0.985 1_655 S
C1500 C1494 1.379 . S
C1500 C1497 1.363 . S
C1500 N1498 1.356 . S
C1501 C1495 1.363 1_455 S
C1501 C1496 1.379 . S
C1501 N1499 1.356 1_455 S
N1502 C1494 1.356 1_655 S
N1502 H1508 0.984 . S
N1502 H1509 0.984 . S
N1503 C1496 1.356 . S
N1503 H1506 0.984 . S
N1503 H1507 0.985 . S
H1504 N1499 0.984 . S
H1505 N1499 0.985 1_455 S
H1506 N1503 0.984 . S
H1507 N1503 0.985 . S
H1508 N1502 0.984 . S
H1509 N1502 0.984 . S
H1510 N1498 0.984 . S
H1511 N1498 0.985 . S
C1512 C1513 1.363 . S
C1512 C1518 1.379 . S
C1512 N1520 1.356 . S
C1513 C1512 1.363 . S
C1513 C1519 1.363 . S
C1514 C1515 1.363 . S
C1514 C1519 1.379 . S
C1514 N1521 1.356 . S
C1515 C1514 1.363 . S
C1515 C1518 1.363 . S
N1516 C1518 1.356 . S
N1516 H1528 0.984 . S
N1516 H1529 0.985 . S
N1517 C1519 1.356 . S
N1517 H1522 0.984 . S
N1517 H1523 0.985 . S
C1518 C1512 1.379 . S
C1518 C1515 1.363 . S
C1518 N1516 1.356 . S
C1519 C1513 1.363 . S
C1519 C1514 1.379 . S
C1519 N1517 1.356 . S
N1520 C1512 1.356 . S
N1520 H1526 0.984 . S
N1520 H1527 0.984 . S
N1521 C1514 1.356 . S
N1521 H1524 0.984 . S
N1521 H1525 0.985 . S
H1522 N1517 0.984 . S
H1523 N1517 0.985 . S
H1524 N1521 0.984 . S
H1525 N1521 0.985 . S
H1526 N1520 0.984 . S
H1527 N1520 0.984 . S
H1528 N1516 0.984 . S
H1529 N1516 0.985 . S
C1530 C1531 1.363 . S
C1530 C1536 1.379 . S
C1530 N1538 1.356 . S
C1531 C1530 1.363 . S
C1531 C1537 1.363 . S
C1532 C1533 1.363 . S
C1532 C1537 1.379 . S
C1532 N1539 1.356 . S
C1533 C1532 1.363 . S
C1533 C1536 1.363 . S
N1534 C1536 1.356 . S
N1534 H1546 0.984 . S
N1534 H1547 0.985 . S
N1535 C1537 1.356 . S
N1535 H1540 0.984 . S
N1535 H1541 0.985 . S
C1536 C1530 1.379 . S
C1536 C1533 1.363 . S
C1536 N1534 1.356 . S
C1537 C1531 1.363 . S
C1537 C1532 1.379 . S
C1537 N1535 1.356 . S
N1538 C1530 1.356 . S
N1538 H1544 0.984 . S
N1538 H1545 0.984 . S
N1539 C1532 1.356 . S
N1539 H1542 0.984 . S
N1539 H1543 0.985 . S
H1540 N1535 0.984 . S
H1541 N1535 0.985 . S
H1542 N1539 0.984 . S
H1543 N1539 0.985 . S
H1544 N1538 0.984 . S
H1545 N1538 0.984 . S
H1546 N1534 0.984 . S
H1547 N1534 0.985 . S
C1548 C1549 1.363 1_565 S
C1548 C1554 1.379 . S
C1548 N1556 1.356 1_565 S
C1549 C1548 1.363 1_545 S
C1549 C1555 1.363 1_545 S
C1550 C1551 1.363 . S
C1550 C1555 1.379 . S
C1550 N1557 1.356 . S
C1551 C1550 1.363 . S
C1551 C1554 1.363 . S
N1552 C1554 1.356 . S
N1552 H1564 0.984 . S
N1552 H1565 0.985 . S
N1553 C1555 1.356 1_545 S
N1553 H1558 0.984 . S
N1553 H1559 0.985 . S
C1554 C1548 1.379 . S
C1554 C1551 1.363 . S
C1554 N1552 1.356 . S
C1555 C1549 1.363 1_565 S
C1555 C1550 1.379 . S
C1555 N1553 1.356 1_565 S
N1556 C1548 1.356 1_545 S
N1556 H1562 0.984 1_545 S
N1556 H1563 0.984 . S
N1557 C1550 1.356 . S
N1557 H1560 0.984 . S
N1557 H1561 0.985 . S
H1558 N1553 0.984 . S
H1559 N1553 0.985 . S
H1560 N1557 0.984 . S
H1561 N1557 0.985 . S
H1562 N1556 0.984 1_565 S
H1563 N1556 0.984 . S
H1564 N1552 0.984 . S
H1565 N1552 0.985 . S
C1566 C1567 1.363 . S
C1566 C1572 1.379 . S
C1566 N1574 1.356 . S
C1567 C1566 1.363 . S
C1567 C1573 1.363 . S
C1568 C1569 1.363 1_545 S
C1568 C1573 1.379 . S
C1568 N1575 1.356 1_545 S
C1569 C1568 1.363 1_565 S
C1569 C1572 1.363 1_565 S
N1570 C1572 1.356 1_565 S
N1570 H1582 0.984 . S
N1570 H1583 0.985 . S
N1571 C1573 1.356 . S
N1571 H1576 0.984 . S
N1571 H1577 0.985 . S
C1572 C1566 1.379 . S
C1572 C1569 1.363 1_545 S
C1572 N1570 1.356 1_545 S
C1573 C1567 1.363 . S
C1573 C1568 1.379 . S
C1573 N1571 1.356 . S
N1574 C1566 1.356 . S
N1574 H1580 0.984 . S
N1574 H1581 0.984 . S
N1575 C1568 1.356 1_565 S
N1575 H1578 0.984 . S
N1575 H1579 0.985 1_565 S
H1576 N1571 0.984 . S
H1577 N1571 0.985 . S
H1578 N1575 0.984 . S
H1579 N1575 0.985 1_545 S
H1580 N1574 0.984 . S
H1581 N1574 0.984 . S
H1582 N1570 0.984 . S
H1583 N1570 0.985 . S
C1584 C1585 1.363 . S
C1584 C1590 1.379 . S
C1584 N1592 1.356 . S
C1585 C1584 1.363 . S
C1585 C1591 1.363 . S
C1586 C1587 1.363 . S
C1586 C1591 1.379 . S
C1586 N1593 1.356 . S
C1587 C1586 1.363 . S
C1587 C1590 1.363 . S
N1588 C1590 1.356 . S
N1588 H1600 0.984 . S
N1588 H1601 0.985 . S
N1589 C1591 1.356 . S
N1589 H1594 0.984 . S
N1589 H1595 0.985 1_565 S
C1590 C1584 1.379 . S
C1590 C1587 1.363 . S
C1590 N1588 1.356 . S
C1591 C1585 1.363 . S
C1591 C1586 1.379 . S
C1591 N1589 1.356 . S
N1592 C1584 1.356 . S
N1592 H1598 0.984 . S
N1592 H1599 0.984 . S
N1593 C1586 1.356 . S
N1593 H1596 0.984 . S
N1593 H1597 0.985 . S
H1594 N1589 0.984 . S
H1595 N1589 0.985 1_545 S
H1596 N1593 0.984 . S
H1597 N1593 0.985 . S
H1598 N1592 0.984 . S
H1599 N1592 0.984 . S
H1600 N1588 0.984 . S
H1601 N1588 0.985 . S
C1602 C1603 1.363 . S
C1602 C1608 1.379 . S
C1602 N1610 1.356 . S
C1603 C1602 1.363 . S
C1603 C1609 1.363 . S
C1604 C1605 1.363 1_554 S
C1604 C1609 1.379 . S
C1604 N1611 1.356 1_554 S
C1605 C1604 1.363 1_556 S
C1605 C1608 1.363 1_556 S
N1606 C1608 1.363 . S
N1606 H1618 0.978 1_545 S
N1606 H1619 0.984 1_554 S
N1607 C1609 1.356 . S
N1607 H1612 0.984 . S
N1607 H1613 0.985 . S
C1608 C1602 1.379 . S
C1608 C1605 1.363 1_554 S
C1608 N1606 1.363 . S
C1609 C1603 1.363 . S
C1609 C1604 1.379 . S
C1609 N1607 1.356 . S
N1610 C1602 1.356 . S
N1610 H1616 0.977 1_545 S
N1610 H1617 0.984 . S
N1611 C1604 1.356 1_556 S
N1611 H1614 0.984 . S
N1611 H1615 0.985 . S
H1612 N1607 0.984 . S
H1613 N1607 0.985 . S
H1614 N1611 0.984 . S
H1615 N1611 0.985 . S
H1616 N1610 0.977 1_565 S
H1617 N1610 0.984 . S
H1618 N1606 0.978 1_565 S
H1619 N1606 0.984 1_556 S
C1620 C1621 1.363 . S
C1620 C1626 1.379 . S
C1620 N1628 1.356 . S
C1621 C1620 1.363 . S
C1621 C1627 1.363 . S
C1622 C1623 1.363 . S
C1622 C1627 1.379 . S
C1622 N1629 1.356 . S
C1623 C1622 1.363 . S
C1623 C1626 1.363 . S
N1624 C1626 1.356 . S
N1624 H1636 0.984 . S
N1624 H1637 0.985 . S
N1625 C1627 1.356 . S
N1625 H1630 0.984 . S
N1625 H1631 0.985 . S
C1626 C1620 1.379 . S
C1626 C1623 1.363 . S
C1626 N1624 1.356 . S
C1627 C1621 1.363 . S
C1627 C1622 1.379 . S
C1627 N1625 1.356 . S
N1628 C1620 1.356 . S
N1628 H1634 0.984 . S
N1628 H1635 0.984 . S
N1629 C1622 1.356 . S
N1629 H1632 0.984 . S
N1629 H1633 0.985 . S
H1630 N1625 0.984 . S
H1631 N1625 0.985 . S
H1632 N1629 0.984 . S
H1633 N1629 0.985 . S
H1634 N1628 0.984 . S
H1635 N1628 0.984 . S
H1636 N1624 0.984 . S
H1637 N1624 0.985 . S
C1638 C1639 1.363 1_556 S
C1638 C1644 1.379 . S
C1638 N1646 1.356 1_556 S
C1639 C1638 1.363 1_554 S
C1639 C1645 1.363 1_554 S
C1640 C1641 1.363 . S
C1640 C1645 1.379 . S
C1640 N1647 1.356 . S
C1641 C1640 1.363 . S
C1641 C1644 1.363 . S
N1642 C1644 1.356 . S
N1642 H1654 0.984 . S
N1642 H1655 0.985 . S
N1643 C1645 1.356 1_554 S
N1643 H1648 0.984 . S
N1643 H1649 0.985 1_554 S
C1644 C1638 1.379 . S
C1644 C1641 1.363 . S
C1644 N1642 1.356 . S
C1645 C1639 1.363 1_556 S
C1645 C1640 1.379 . S
C1645 N1643 1.356 1_556 S
N1646 C1638 1.356 1_554 S
N1646 H1652 0.984 . S
N1646 H1653 0.984 . S
N1647 C1640 1.356 . S
N1647 H1650 0.984 . S
N1647 H1651 0.985 . S
H1648 N1643 0.984 . S
H1649 N1643 0.985 1_556 S
H1650 N1647 0.984 . S
H1651 N1647 0.985 . S
H1652 N1646 0.984 . S
H1653 N1646 0.984 . S
H1654 N1642 0.984 . S
H1655 N1642 0.985 . S
C1656 C1657 1.363 . S
C1656 C1662 1.379 . S
C1656 N1664 1.356 . S
C1657 C1656 1.363 . S
C1657 C1663 1.363 . S
C1658 C1659 1.363 . S
C1658 C1663 1.379 . S
C1658 N1665 1.356 . S
C1659 C1658 1.363 . S
C1659 C1662 1.363 . S
N1660 C1662 1.356 . S
N1660 H1672 0.984 . S
N1660 H1673 0.985 . S
N1661 C1663 1.356 . S
N1661 H1666 0.984 . S
N1661 H1667 0.985 . S
C1662 C1656 1.379 . S
C1662 C1659 1.363 . S
C1662 N1660 1.356 . S
C1663 C1657 1.363 . S
C1663 C1658 1.379 . S
C1663 N1661 1.356 . S
N1664 C1656 1.356 . S
N1664 H1670 0.984 . S
N1664 H1671 0.984 . S
N1665 C1658 1.356 . S
N1665 H1668 0.984 . S
N1665 H1669 0.985 . S
H1666 N1661 0.984 . S
H1667 N1661 0.985 . S
H1668 N1665 0.984 . S
H1669 N1665 0.985 . S
H1670 N1664 0.984 . S
H1671 N1664 0.984 . S
H1672 N1660 0.984 . S
H1673 N1660 0.985 . S
C1674 C1675 1.363 1_455 S
C1674 C1680 1.379 . S
C1674 N1682 1.356 1_455 S
C1675 C1674 1.363 1_655 S
C1675 C1681 1.363 1_655 S
C1676 C1677 1.363 . S
C1676 C1681 1.379 . S
C1676 N1683 1.356 . S
C1677 C1676 1.363 . S
C1677 C1680 1.363 . S
N1678 C1680 1.356 . S
N1678 H1690 0.984 . S
N1678 H1691 0.985 . S
N1679 C1681 1.356 1_655 S
N1679 H1684 0.984 . S
N1679 H1685 0.985 1_655 S
C1680 C1674 1.379 . S
C1680 C1677 1.363 . S
C1680 N1678 1.356 . S
C1681 C1675 1.363 1_455 S
C1681 C1676 1.379 . S
C1681 N1679 1.356 1_455 S
N1682 C1674 1.356 1_655 S
N1682 H1688 0.984 . S
N1682 H1689 0.984 . S
N1683 C1676 1.356 . S
N1683 H1686 0.984 . S
N1683 H1687 0.985 . S
H1684 N1679 0.984 . S
H1685 N1679 0.985 1_455 S
H1686 N1683 0.984 . S
H1687 N1683 0.985 . S
H1688 N1682 0.984 . S
H1689 N1682 0.984 . S
H1690 N1678 0.984 . S
H1691 N1678 0.985 . S
C1692 C1693 1.363 . S
C1692 C1698 1.379 . S
C1692 N1700 1.356 . S
C1693 C1692 1.363 . S
C1693 C1699 1.363 . S
C1694 C1695 1.363 . S
C1694 C1699 1.379 . S
C1694 N1701 1.356 . S
C1695 C1694 1.363 . S
C1695 C1698 1.363 . S
N1696 C1698 1.356 . S
N1696 H1708 0.984 . S
N1696 H1709 0.985 . S
N1697 C1699 1.356 . S
N1697 H1702 0.984 . S
N1697 H1703 0.985 . S
C1698 C1692 1.379 . S
C1698 C1695 1.363 . S
C1698 N1696 1.356 . S
C1699 C1693 1.363 . S
C1699 C1694 1.379 . S
C1699 N1697 1.356 . S
N1700 C1692 1.356 . S
N1700 H1706 0.984 . S
N1700 H1707 0.984 . S
N1701 C1694 1.356 . S
N1701 H1704 0.984 . S
N1701 H1705 0.985 . S
H1702 N1697 0.984 . S
H1703 N1697 0.985 . S
H1704 N1701 0.984 . S
H1705 N1701 0.985 . S
H1706 N1700 0.984 . S
H1707 N1700 0.984 . S
H1708 N1696 0.984 . S
H1709 N1696 0.985 . S
C1710 C1711 1.363 . S
C1710 C1716 1.379 . S
C1710 N1718 1.356 . S
C1711 C1710 1.363 . S
C1711 C1717 1.363 . S
C1712 C1713 1.363 1_655 S
C1712 C1717 1.379 . S
C1712 N1719 1.356 1_655 S
C1713 C1712 1.363 1_455 S
C1713 C1716 1.363 1_455 S
N1714 C1716 1.356 1_455 S
N1714 H1726 0.984 . S
N1714 H1727 0.985 . S
N1715 C1717 1.356 . S
N1715 H1720 0.984 . S
N1715 H1721 0.985 . S
C1716 C1710 1.379 . S
C1716 C1713 1.363 1_655 S
C1716 N1714 1.356 1_655 S
C1717 C1711 1.363 . S
C1717 C1712 1.379 . S
C1717 N1715 1.356 . S
N1718 C1710 1.356 . S
N1718 H1724 0.984 . S
N1718 H1725 0.984 . S
N1719 C1712 1.356 1_455 S
N1719 H1722 0.984 . S
N1719 H1723 0.985 1_455 S
H1720 N1715 0.984 . S
H1721 N1715 0.985 . S
H1722 N1719 0.984 . S
H1723 N1719 0.985 1_655 S
H1724 N1718 0.984 . S
H1725 N1718 0.984 . S
H1726 N1714 0.984 . S
H1727 N1714 0.985 . S
C1728 C1729 1.363 . S
C1728 C1734 1.379 . S
C1728 N1736 1.356 . S
C1729 C1728 1.363 . S
C1729 C1735 1.363 . S
C1730 C1731 1.363 . S
C1730 C1735 1.379 . S
C1730 N1737 1.356 . S
C1731 C1730 1.363 . S
C1731 C1734 1.363 . S
N1732 C1734 1.356 . S
N1732 H1744 0.984 . S
N1732 H1745 0.985 . S
N1733 C1735 1.356 . S
N1733 H1738 0.984 . S
N1733 H1739 0.985 . S
C1734 C1728 1.379 . S
C1734 C1731 1.363 . S
C1734 N1732 1.356 . S
C1735 C1729 1.363 . S
C1735 C1730 1.379 . S
C1735 N1733 1.356 . S
N1736 C1728 1.356 . S
N1736 H1742 0.984 . S
N1736 H1743 0.984 . S
N1737 C1730 1.356 . S
N1737 H1740 0.984 . S
N1737 H1741 0.985 . S
H1738 N1733 0.984 . S
H1739 N1733 0.985 . S
H1740 N1737 0.984 . S
H1741 N1737 0.985 . S
H1742 N1736 0.984 . S
H1743 N1736 0.984 . S
H1744 N1732 0.984 . S
H1745 N1732 0.985 . S
C1746 C1747 1.363 . S
C1746 C1752 1.379 . S
C1746 N1754 1.356 . S
C1747 C1746 1.363 . S
C1747 C1753 1.363 . S
C1748 C1749 1.363 . S
C1748 C1753 1.379 . S
C1748 N1755 1.356 . S
C1749 C1748 1.363 . S
C1749 C1752 1.363 . S
N1750 C1752 1.356 . S
N1750 H1762 0.984 . S
N1750 H1763 0.985 . S
N1751 C1753 1.356 . S
N1751 H1756 0.984 . S
N1751 H1757 0.985 . S
C1752 C1746 1.379 . S
C1752 C1749 1.363 . S
C1752 N1750 1.356 . S
C1753 C1747 1.363 . S
C1753 C1748 1.379 . S
C1753 N1751 1.356 . S
N1754 C1746 1.356 . S
N1754 H1760 0.984 . S
N1754 H1761 0.984 . S
N1755 C1748 1.356 . S
N1755 H1758 0.984 . S
N1755 H1759 0.985 . S
H1756 N1751 0.984 . S
H1757 N1751 0.985 . S
H1758 N1755 0.984 . S
H1759 N1755 0.985 . S
H1760 N1754 0.984 . S
H1761 N1754 0.984 . S
H1762 N1750 0.984 . S
H1763 N1750 0.985 . S
C1764 C1765 1.363 . S
C1764 C1770 1.379 . S
C1764 N1772 1.356 . S
C1765 C1764 1.363 . S
C1765 C1771 1.363 . S
C1766 C1767 1.363 . S
C1766 C1771 1.379 . S
C1766 N1773 1.356 . S
C1767 C1766 1.363 . S
C1767 C1770 1.363 . S
N1768 C1770 1.356 . S
N1768 H1780 0.984 . S
N1768 H1781 0.985 . S
N1769 C1771 1.356 . S
N1769 H1774 0.984 . S
N1769 H1775 0.985 . S
C1770 C1764 1.379 . S
C1770 C1767 1.363 . S
C1770 N1768 1.356 . S
C1771 C1765 1.363 . S
C1771 C1766 1.379 . S
C1771 N1769 1.356 . S
N1772 C1764 1.356 . S
N1772 H1778 0.984 . S
N1772 H1779 0.984 . S
N1773 C1766 1.356 . S
N1773 H1776 0.984 . S
N1773 H1777 0.985 . S
H1774 N1769 0.984 . S
H1775 N1769 0.985 . S
H1776 N1773 0.984 . S
H1777 N1773 0.985 . S
H1778 N1772 0.984 . S
H1779 N1772 0.984 . S
H1780 N1768 0.984 . S
H1781 N1768 0.985 . S
C1782 C1783 1.363 . S
C1782 C1788 1.379 . S
C1782 N1790 1.356 . S
C1783 C1782 1.363 . S
C1783 C1789 1.363 . S
C1784 C1785 1.363 . S
C1784 C1789 1.379 . S
C1784 N1791 1.356 . S
C1785 C1784 1.363 . S
C1785 C1788 1.363 . S
N1786 C1788 1.356 . S
N1786 H1798 0.984 . S
N1786 H1799 0.985 . S
N1787 C1789 1.356 . S
N1787 H1792 0.984 . S
N1787 H1793 0.985 . S
C1788 C1782 1.379 . S
C1788 C1785 1.363 . S
C1788 N1786 1.356 . S
C1789 C1783 1.363 . S
C1789 C1784 1.379 . S
C1789 N1787 1.356 . S
N1790 C1782 1.356 . S
N1790 H1796 0.984 . S
N1790 H1797 0.984 . S
N1791 C1784 1.356 . S
N1791 H1794 0.984 . S
N1791 H1795 0.985 . S
H1792 N1787 0.984 . S
H1793 N1787 0.985 . S
H1794 N1791 0.984 . S
H1795 N1791 0.985 . S
H1796 N1790 0.984 . S
H1797 N1790 0.984 . S
H1798 N1786 0.984 . S
H1799 N1786 0.985 . S
C1800 C1801 1.363 . S
C1800 C1806 1.379 . S
C1800 N1808 1.356 . S
C1801 C1800 1.363 . S
C1801 C1807 1.363 . S
C1802 C1803 1.363 . S
C1802 C1807 1.379 . S
C1802 N1809 1.356 . S
C1803 C1802 1.363 . S
C1803 C1806 1.363 . S
N1804 C1806 1.356 . S
N1804 H1816 0.984 . S
N1804 H1817 0.985 . S
N1805 C1807 1.356 . S
N1805 H1810 0.984 . S
N1805 H1811 0.985 . S
C1806 C1800 1.379 . S
C1806 C1803 1.363 . S
C1806 N1804 1.356 . S
C1807 C1801 1.363 . S
C1807 C1802 1.379 . S
C1807 N1805 1.356 . S
N1808 C1800 1.356 . S
N1808 H1814 0.984 . S
N1808 H1815 0.984 . S
N1809 C1802 1.356 . S
N1809 H1812 0.984 . S
N1809 H1813 0.985 . S
H1810 N1805 0.984 . S
H1811 N1805 0.985 . S
H1812 N1809 0.984 . S
H1813 N1809 0.985 . S
H1814 N1808 0.984 . S
H1815 N1808 0.984 . S
H1816 N1804 0.984 . S
H1817 N1804 0.985 . S
C1818 C1819 1.363 . S
C1818 C1824 1.379 . S
C1818 N1826 1.356 . S
C1819 C1818 1.363 . S
C1819 C1825 1.363 . S
C1820 C1821 1.363 . S
C1820 C1825 1.379 . S
C1820 N1827 1.356 . S
C1821 C1820 1.363 . S
C1821 C1824 1.363 . S
N1822 C1824 1.356 . S
N1822 H1834 0.984 . S
N1822 H1835 0.985 . S
N1823 C1825 1.356 . S
N1823 H1828 0.984 . S
N1823 H1829 0.985 . S
C1824 C1818 1.379 . S
C1824 C1821 1.363 . S
C1824 N1822 1.356 . S
C1825 C1819 1.363 . S
C1825 C1820 1.379 . S
C1825 N1823 1.356 . S
N1826 C1818 1.356 . S
N1826 H1832 0.984 . S
N1826 H1833 0.984 . S
N1827 C1820 1.356 . S
N1827 H1830 0.984 . S
N1827 H1831 0.985 . S
H1828 N1823 0.984 . S
H1829 N1823 0.985 . S
H1830 N1827 0.984 . S
H1831 N1827 0.985 . S
H1832 N1826 0.984 . S
H1833 N1826 0.984 . S
H1834 N1822 0.984 . S
H1835 N1822 0.985 . S
C1836 C1837 1.363 . S
C1836 C1842 1.379 . S
C1836 N1844 1.356 . S
C1837 C1836 1.363 . S
C1837 C1843 1.363 . S
C1838 C1839 1.363 . S
C1838 C1843 1.379 . S
C1838 N1845 1.356 . S
C1839 C1838 1.363 . S
C1839 C1842 1.363 . S
N1840 C1842 1.356 . S
N1840 H1852 0.984 . S
N1840 H1853 0.985 . S
N1841 C1843 1.356 . S
N1841 H1846 0.984 . S
N1841 H1847 0.985 . S
C1842 C1836 1.379 . S
C1842 C1839 1.363 . S
C1842 N1840 1.356 . S
C1843 C1837 1.363 . S
C1843 C1838 1.379 . S
C1843 N1841 1.356 . S
N1844 C1836 1.356 . S
N1844 H1850 0.984 . S
N1844 H1851 0.984 . S
N1845 C1838 1.356 . S
N1845 H1848 0.984 . S
N1845 H1849 0.985 . S
H1846 N1841 0.984 . S
H1847 N1841 0.985 . S
H1848 N1845 0.984 . S
H1849 N1845 0.985 . S
H1850 N1844 0.984 . S
H1851 N1844 0.984 . S
H1852 N1840 0.984 . S
H1853 N1840 0.985 . S
C1854 C1855 1.363 . S
C1854 C1860 1.379 . S
C1854 N1862 1.356 . S
C1855 C1854 1.363 . S
C1855 C1861 1.363 . S
C1856 C1857 1.363 . S
C1856 C1861 1.379 . S
C1856 N1863 1.356 . S
C1857 C1856 1.363 . S
C1857 C1860 1.363 . S
N1858 C1860 1.356 . S
N1858 H1870 0.984 . S
N1858 H1871 0.985 . S
N1859 C1861 1.356 . S
N1859 H1864 0.984 . S
N1859 H1865 0.985 . S
C1860 C1854 1.379 . S
C1860 C1857 1.363 . S
C1860 N1858 1.356 . S
C1861 C1855 1.363 . S
C1861 C1856 1.379 . S
C1861 N1859 1.356 . S
N1862 C1854 1.356 . S
N1862 H1868 0.984 . S
N1862 H1869 0.984 . S
N1863 C1856 1.356 . S
N1863 H1866 0.984 . S
N1863 H1867 0.985 . S
H1864 N1859 0.984 . S
H1865 N1859 0.985 . S
H1866 N1863 0.984 . S
H1867 N1863 0.985 . S
H1868 N1862 0.984 . S
H1869 N1862 0.984 . S
H1870 N1858 0.984 . S
H1871 N1858 0.985 . S
C1872 C1873 1.363 . S
C1872 C1878 1.379 . S
C1872 N1880 1.356 . S
C1873 C1872 1.363 . S
C1873 C1879 1.363 . S
C1874 C1875 1.363 . S
C1874 C1879 1.379 . S
C1874 N1881 1.356 . S
C1875 C1874 1.363 . S
C1875 C1878 1.363 . S
N1876 C1878 1.356 . S
N1876 H1888 0.984 . S
N1876 H1889 0.985 . S
N1877 C1879 1.356 . S
N1877 H1882 0.984 . S
N1877 H1883 0.985 . S
C1878 C1872 1.379 . S
C1878 C1875 1.363 . S
C1878 N1876 1.356 . S
C1879 C1873 1.363 . S
C1879 C1874 1.379 . S
C1879 N1877 1.356 . S
N1880 C1872 1.356 . S
N1880 H1886 0.984 . S
N1880 H1887 0.984 . S
N1881 C1874 1.356 . S
N1881 H1884 0.984 . S
N1881 H1885 0.985 . S
H1882 N1877 0.984 . S
H1883 N1877 0.985 . S
H1884 N1881 0.984 . S
H1885 N1881 0.985 . S
H1886 N1880 0.984 . S
H1887 N1880 0.984 . S
H1888 N1876 0.984 . S
H1889 N1876 0.985 . S
C1890 C1891 1.363 . S
C1890 C1896 1.379 . S
C1890 N1898 1.356 . S
C1891 C1890 1.363 . S
C1891 C1897 1.363 . S
C1892 C1893 1.363 . S
C1892 C1897 1.379 . S
C1892 N1899 1.356 . S
C1893 C1892 1.363 . S
C1893 C1896 1.363 . S
N1894 C1896 1.356 . S
N1894 H1906 0.984 . S
N1894 H1907 0.985 . S
N1895 C1897 1.356 . S
N1895 H1900 0.984 . S
N1895 H1901 0.985 . S
C1896 C1890 1.379 . S
C1896 C1893 1.363 . S
C1896 N1894 1.356 . S
C1897 C1891 1.363 . S
C1897 C1892 1.379 . S
C1897 N1895 1.356 . S
N1898 C1890 1.356 . S
N1898 H1904 0.984 . S
N1898 H1905 0.984 . S
N1899 C1892 1.356 . S
N1899 H1902 0.984 . S
N1899 H1903 0.985 . S
H1900 N1895 0.984 . S
H1901 N1895 0.985 . S
H1902 N1899 0.984 . S
H1903 N1899 0.985 . S
H1904 N1898 0.984 . S
H1905 N1898 0.984 . S
H1906 N1894 0.984 . S
H1907 N1894 0.985 . S
C1908 C1909 1.363 . S
C1908 C1914 1.379 . S
C1908 N1916 1.356 . S
C1909 C1908 1.363 . S
C1909 C1915 1.363 . S
C1910 C1911 1.363 . S
C1910 C1915 1.379 . S
C1910 N1917 1.356 . S
C1911 C1910 1.363 . S
C1911 C1914 1.363 . S
N1912 C1914 1.356 . S
N1912 H1924 0.984 . S
N1912 H1925 0.985 . S
N1913 C1915 1.356 . S
N1913 H1918 0.984 . S
N1913 H1919 0.985 . S
C1914 C1908 1.379 . S
C1914 C1911 1.363 . S
C1914 N1912 1.356 . S
C1915 C1909 1.363 . S
C1915 C1910 1.379 . S
C1915 N1913 1.356 . S
N1916 C1908 1.356 . S
N1916 H1922 0.984 . S
N1916 H1923 0.984 . S
N1917 C1910 1.356 . S
N1917 H1920 0.984 . S
N1917 H1921 0.985 . S
H1918 N1913 0.984 . S
H1919 N1913 0.985 . S
H1920 N1917 0.984 . S
H1921 N1917 0.985 . S
H1922 N1916 0.984 . S
H1923 N1916 0.984 . S
H1924 N1912 0.984 . S
H1925 N1912 0.985 . S
C1926 C1927 1.363 . S
C1926 C1932 1.379 . S
C1926 N1934 1.356 . S
C1927 C1926 1.363 . S
C1927 C1933 1.363 . S
C1928 C1929 1.363 . S
C1928 C1933 1.379 . S
C1928 N1935 1.356 . S
C1929 C1928 1.363 . S
C1929 C1932 1.363 . S
N1930 C1932 1.356 . S
N1930 H1942 0.984 . S
N1930 H1943 0.985 . S
N1931 C1933 1.356 . S
N1931 H1936 0.984 . S
N1931 H1937 0.985 . S
C1932 C1926 1.379 . S
C1932 C1929 1.363 . S
C1932 N1930 1.356 . S
C1933 C1927 1.363 . S
C1933 C1928 1.379 . S
C1933 N1931 1.356 . S
N1934 C1926 1.356 . S
N1934 H1940 0.984 . S
N1934 H1941 0.984 . S
N1935 C1928 1.356 . S
N1935 H1938 0.984 . S
N1935 H1939 0.985 . S
H1936 N1931 0.984 . S
H1937 N1931 0.985 . S
H1938 N1935 0.984 . S
H1939 N1935 0.985 . S
H1940 N1934 0.984 . S
H1941 N1934 0.984 . S
H1942 N1930 0.984 . S
H1943 N1930 0.985 . S
C1944 C1945 1.363 . S
C1944 C1950 1.379 . S
C1944 N1952 1.356 . S
C1945 C1944 1.363 . S
C1945 C1951 1.363 . S
C1946 C1947 1.363 . S
C1946 C1951 1.379 . S
C1946 N1953 1.356 . S
C1947 C1946 1.363 . S
C1947 C1950 1.363 . S
N1948 C1950 1.356 . S
N1948 H1960 0.984 . S
N1948 H1961 0.985 . S
N1949 C1951 1.356 . S
N1949 H1954 0.984 . S
N1949 H1955 0.985 . S
C1950 C1944 1.379 . S
C1950 C1947 1.363 . S
C1950 N1948 1.356 . S
C1951 C1945 1.363 . S
C1951 C1946 1.379 . S
C1951 N1949 1.356 . S
N1952 C1944 1.356 . S
N1952 H1958 0.984 . S
N1952 H1959 0.984 . S
N1953 C1946 1.356 . S
N1953 H1956 0.984 . S
N1953 H1957 0.985 . S
H1954 N1949 0.984 . S
H1955 N1949 0.985 . S
H1956 N1953 0.984 . S
H1957 N1953 0.985 . S
H1958 N1952 0.984 . S
H1959 N1952 0.984 . S
H1960 N1948 0.984 . S
H1961 N1948 0.985 . S
C1962 C1963 1.363 . S
C1962 C1968 1.379 . S
C1962 N1970 1.356 . S
C1963 C1962 1.363 . S
C1963 C1969 1.363 . S
C1964 C1965 1.363 . S
C1964 C1969 1.379 . S
C1964 N1971 1.356 . S
C1965 C1964 1.363 . S
C1965 C1968 1.363 . S
N1966 C1968 1.356 . S
N1966 H1978 0.984 . S
N1966 H1979 0.985 . S
N1967 C1969 1.356 . S
N1967 H1972 0.984 . S
N1967 H1973 0.985 . S
C1968 C1962 1.379 . S
C1968 C1965 1.363 . S
C1968 N1966 1.356 . S
C1969 C1963 1.363 . S
C1969 C1964 1.379 . S
C1969 N1967 1.356 . S
N1970 C1962 1.356 . S
N1970 H1976 0.984 . S
N1970 H1977 0.984 . S
N1971 C1964 1.356 . S
N1971 H1974 0.984 . S
N1971 H1975 0.985 . S
H1972 N1967 0.984 . S
H1973 N1967 0.985 . S
H1974 N1971 0.984 . S
H1975 N1971 0.985 . S
H1976 N1970 0.984 . S
H1977 N1970 0.984 . S
H1978 N1966 0.984 . S
H1979 N1966 0.985 . S
C1980 C1981 1.363 . S
C1980 C1986 1.379 . S
C1980 N1988 1.356 . S
C1981 C1980 1.363 . S
C1981 C1987 1.363 . S
C1982 C1983 1.363 . S
C1982 C1987 1.379 . S
C1982 N1989 1.356 . S
C1983 C1982 1.363 . S
C1983 C1986 1.363 . S
N1984 C1986 1.356 . S
N1984 H1996 0.984 . S
N1984 H1997 0.985 . S
N1985 C1987 1.356 . S
N1985 H1990 0.984 . S
N1985 H1991 0.985 . S
C1986 C1980 1.379 . S
C1986 C1983 1.363 . S
C1986 N1984 1.356 . S
C1987 C1981 1.363 . S
C1987 C1982 1.379 . S
C1987 N1985 1.356 . S
N1988 C1980 1.356 . S
N1988 H1994 0.984 . S
N1988 H1995 0.984 . S
N1989 C1982 1.356 . S
N1989 H1992 0.984 . S
N1989 H1993 0.985 . S
H1990 N1985 0.984 . S
H1991 N1985 0.985 . S
H1992 N1989 0.984 . S
H1993 N1989 0.985 . S
H1994 N1988 0.984 . S
H1995 N1988 0.984 . S
H1996 N1984 0.984 . S
H1997 N1984 0.985 . S
C1998 C1999 1.363 . S
C1998 C2004 1.379 . S
C1998 N2006 1.356 . S
C1999 C1998 1.363 . S
C1999 C2005 1.363 . S
C2000 C2001 1.363 . S
C2000 C2005 1.379 . S
C2000 N2007 1.356 . S
C2001 C2000 1.363 . S
C2001 C2004 1.363 . S
N2002 C2004 1.356 . S
N2002 H2014 0.984 . S
N2002 H2015 0.985 . S
N2003 C2005 1.356 . S
N2003 H2008 0.984 . S
N2003 H2009 0.985 . S
C2004 C1998 1.379 . S
C2004 C2001 1.363 . S
C2004 N2002 1.356 . S
C2005 C1999 1.363 . S
C2005 C2000 1.379 . S
C2005 N2003 1.356 . S
N2006 C1998 1.356 . S
N2006 H2012 0.984 . S
N2006 H2013 0.984 . S
N2007 C2000 1.356 . S
N2007 H2010 0.984 . S
N2007 H2011 0.985 . S
H2008 N2003 0.984 . S
H2009 N2003 0.985 . S
H2010 N2007 0.984 . S
H2011 N2007 0.985 . S
H2012 N2006 0.984 . S
H2013 N2006 0.984 . S
H2014 N2002 0.984 . S
H2015 N2002 0.985 . S
C2016 C2017 1.363 . S
C2016 C2022 1.379 . S
C2016 N2024 1.356 . S
C2017 C2016 1.363 . S
C2017 C2023 1.363 . S
C2018 C2019 1.363 . S
C2018 C2023 1.379 . S
C2018 N2025 1.356 . S
C2019 C2018 1.363 . S
C2019 C2022 1.363 . S
N2020 C2022 1.356 . S
N2020 H2032 0.984 . S
N2020 H2033 0.985 . S
N2021 C2023 1.356 . S
N2021 H2026 0.984 . S
N2021 H2027 0.985 . S
C2022 C2016 1.379 . S
C2022 C2019 1.363 . S
C2022 N2020 1.356 . S
C2023 C2017 1.363 . S
C2023 C2018 1.379 . S
C2023 N2021 1.356 . S
N2024 C2016 1.356 . S
N2024 H2030 0.984 . S
N2024 H2031 0.984 . S
N2025 C2018 1.356 . S
N2025 H2028 0.984 . S
N2025 H2029 0.985 . S
H2026 N2021 0.984 . S
H2027 N2021 0.985 . S
H2028 N2025 0.984 . S
H2029 N2025 0.985 . S
H2030 N2024 0.984 . S
H2031 N2024 0.984 . S
H2032 N2020 0.984 . S
H2033 N2020 0.985 . S
C2034 C2035 1.363 . S
C2034 C2040 1.379 . S
C2034 N2042 1.356 . S
C2035 C2034 1.363 . S
C2035 C2041 1.363 . S
C2036 C2037 1.363 . S
C2036 C2041 1.379 . S
C2036 N2043 1.356 . S
C2037 C2036 1.363 . S
C2037 C2040 1.363 . S
N2038 C2040 1.356 . S
N2038 H2050 0.984 . S
N2038 H2051 0.985 . S
N2039 C2041 1.356 . S
N2039 H2044 0.984 . S
N2039 H2045 0.985 . S
C2040 C2034 1.379 . S
C2040 C2037 1.363 . S
C2040 N2038 1.356 . S
C2041 C2035 1.363 . S
C2041 C2036 1.379 . S
C2041 N2039 1.356 . S
N2042 C2034 1.356 . S
N2042 H2048 0.984 . S
N2042 H2049 0.984 . S
N2043 C2036 1.356 . S
N2043 H2046 0.984 . S
N2043 H2047 0.985 . S
H2044 N2039 0.984 . S
H2045 N2039 0.985 . S
H2046 N2043 0.984 . S
H2047 N2043 0.985 . S
H2048 N2042 0.984 . S
H2049 N2042 0.984 . S
H2050 N2038 0.984 . S
H2051 N2038 0.985 . S
C2052 C2053 1.363 . S
C2052 C2058 1.379 . S
C2052 N2060 1.356 . S
C2053 C2052 1.363 . S
C2053 C2059 1.363 . S
C2054 C2055 1.363 . S
C2054 C2059 1.379 . S
C2054 N2061 1.356 . S
C2055 C2054 1.363 . S
C2055 C2058 1.363 . S
N2056 C2058 1.356 . S
N2056 H2068 0.984 . S
N2056 H2069 0.985 . S
N2057 C2059 1.356 . S
N2057 H2062 0.984 . S
N2057 H2063 0.985 . S
C2058 C2052 1.379 . S
C2058 C2055 1.363 . S
C2058 N2056 1.356 . S
C2059 C2053 1.363 . S
C2059 C2054 1.379 . S
C2059 N2057 1.356 . S
N2060 C2052 1.356 . S
N2060 H2066 0.984 . S
N2060 H2067 0.984 . S
N2061 C2054 1.356 . S
N2061 H2064 0.984 . S
N2061 H2065 0.985 . S
H2062 N2057 0.984 . S
H2063 N2057 0.985 . S
H2064 N2061 0.984 . S
H2065 N2061 0.985 . S
H2066 N2060 0.984 . S
H2067 N2060 0.984 . S
H2068 N2056 0.984 . S
H2069 N2056 0.985 . S
C2070 C2071 1.363 . S
C2070 C2076 1.379 . S
C2070 N2078 1.356 . S
C2071 C2070 1.363 . S
C2071 C2077 1.363 . S
C2072 C2073 1.363 . S
C2072 C2077 1.379 . S
C2072 N2079 1.356 . S
C2073 C2072 1.363 . S
C2073 C2076 1.363 . S
N2074 C2076 1.356 . S
N2074 H2086 0.984 . S
N2074 H2087 0.985 . S
N2075 C2077 1.356 . S
N2075 H2080 0.984 . S
N2075 H2081 0.985 . S
C2076 C2070 1.379 . S
C2076 C2073 1.363 . S
C2076 N2074 1.356 . S
C2077 C2071 1.363 . S
C2077 C2072 1.379 . S
C2077 N2075 1.356 . S
N2078 C2070 1.356 . S
N2078 H2084 0.984 . S
N2078 H2085 0.984 . S
N2079 C2072 1.356 . S
N2079 H2082 0.984 . S
N2079 H2083 0.985 . S
H2080 N2075 0.984 . S
H2081 N2075 0.985 . S
H2082 N2079 0.984 . S
H2083 N2079 0.985 . S
H2084 N2078 0.984 . S
H2085 N2078 0.984 . S
H2086 N2074 0.984 . S
H2087 N2074 0.985 . S
C2088 C2089 1.363 . S
C2088 C2094 1.379 . S
C2088 N2096 1.356 . S
C2089 C2088 1.363 . S
C2089 C2095 1.363 . S
C2090 C2091 1.363 . S
C2090 C2095 1.379 . S
C2090 N2097 1.356 . S
C2091 C2090 1.363 . S
C2091 C2094 1.363 . S
N2092 C2094 1.356 . S
N2092 H2104 0.984 . S
N2092 H2105 0.985 . S
N2093 C2095 1.356 . S
N2093 H2098 0.984 . S
N2093 H2099 0.985 . S
C2094 C2088 1.379 . S
C2094 C2091 1.363 . S
C2094 N2092 1.356 . S
C2095 C2089 1.363 . S
C2095 C2090 1.379 . S
C2095 N2093 1.356 . S
N2096 C2088 1.356 . S
N2096 H2102 0.984 . S
N2096 H2103 0.984 . S
N2097 C2090 1.356 . S
N2097 H2100 0.984 . S
N2097 H2101 0.985 . S
H2098 N2093 0.984 . S
H2099 N2093 0.985 . S
H2100 N2097 0.984 . S
H2101 N2097 0.985 . S
H2102 N2096 0.984 . S
H2103 N2096 0.984 . S
H2104 N2092 0.984 . S
H2105 N2092 0.985 . S
C2106 C2107 1.363 . S
C2106 C2112 1.379 . S
C2106 N2114 1.356 . S
C2107 C2106 1.363 . S
C2107 C2113 1.363 . S
C2108 C2109 1.363 . S
C2108 C2113 1.379 . S
C2108 N2115 1.356 . S
C2109 C2108 1.363 . S
C2109 C2112 1.363 . S
N2110 C2112 1.356 . S
N2110 H2122 0.984 . S
N2110 H2123 0.985 . S
N2111 C2113 1.356 . S
N2111 H2116 0.984 . S
N2111 H2117 0.985 . S
C2112 C2106 1.379 . S
C2112 C2109 1.363 . S
C2112 N2110 1.356 . S
C2113 C2107 1.363 . S
C2113 C2108 1.379 . S
C2113 N2111 1.356 . S
N2114 C2106 1.356 . S
N2114 H2120 0.984 . S
N2114 H2121 0.984 . S
N2115 C2108 1.356 . S
N2115 H2118 0.984 . S
N2115 H2119 0.985 . S
H2116 N2111 0.984 . S
H2117 N2111 0.985 . S
H2118 N2115 0.984 . S
H2119 N2115 0.985 . S
H2120 N2114 0.984 . S
H2121 N2114 0.984 . S
H2122 N2110 0.984 . S
H2123 N2110 0.985 . S
C2124 C2125 1.363 . S
C2124 C2130 1.379 . S
C2124 N2132 1.356 . S
C2125 C2124 1.363 . S
C2125 C2131 1.363 . S
C2126 C2127 1.363 . S
C2126 C2131 1.379 . S
C2126 N2133 1.356 . S
C2127 C2126 1.363 . S
C2127 C2130 1.363 . S
N2128 C2130 1.356 . S
N2128 H2140 0.984 . S
N2128 H2141 0.985 . S
N2129 C2131 1.356 . S
N2129 H2134 0.984 . S
N2129 H2135 0.985 . S
C2130 C2124 1.379 . S
C2130 C2127 1.363 . S
C2130 N2128 1.356 . S
C2131 C2125 1.363 . S
C2131 C2126 1.379 . S
C2131 N2129 1.356 . S
N2132 C2124 1.356 . S
N2132 H2138 0.984 . S
N2132 H2139 0.984 . S
N2133 C2126 1.356 . S
N2133 H2136 0.984 . S
N2133 H2137 0.985 . S
H2134 N2129 0.984 . S
H2135 N2129 0.985 . S
H2136 N2133 0.984 . S
H2137 N2133 0.985 . S
H2138 N2132 0.984 . S
H2139 N2132 0.984 . S
H2140 N2128 0.984 . S
H2141 N2128 0.985 . S
C2142 C2143 1.363 . S
C2142 C2148 1.379 . S
C2142 N2150 1.356 . S
C2143 C2142 1.363 . S
C2143 C2149 1.363 . S
C2144 C2145 1.363 . S
C2144 C2149 1.379 . S
C2144 N2151 1.356 . S
C2145 C2144 1.363 . S
C2145 C2148 1.363 . S
N2146 C2148 1.356 . S
N2146 H2158 0.984 . S
N2146 H2159 0.985 . S
N2147 C2149 1.356 . S
N2147 H2152 0.984 . S
N2147 H2153 0.985 . S
C2148 C2142 1.379 . S
C2148 C2145 1.363 . S
C2148 N2146 1.356 . S
C2149 C2143 1.363 . S
C2149 C2144 1.379 . S
C2149 N2147 1.356 . S
N2150 C2142 1.356 . S
N2150 H2156 0.984 . S
N2150 H2157 0.984 . S
N2151 C2144 1.356 . S
N2151 H2154 0.984 . S
N2151 H2155 0.985 . S
H2152 N2147 0.984 . S
H2153 N2147 0.985 . S
H2154 N2151 0.984 . S
H2155 N2151 0.985 . S
H2156 N2150 0.984 . S
H2157 N2150 0.984 . S
H2158 N2146 0.984 . S
H2159 N2146 0.985 . S
C2160 C2161 1.363 . S
C2160 C2166 1.379 . S
C2160 N2168 1.356 . S
C2161 C2160 1.363 . S
C2161 C2167 1.363 . S
C2162 C2163 1.363 . S
C2162 C2167 1.379 . S
C2162 N2169 1.356 . S
C2163 C2162 1.363 . S
C2163 C2166 1.363 . S
N2164 C2166 1.356 . S
N2164 H2176 0.984 . S
N2164 H2177 0.985 . S
N2165 C2167 1.356 . S
N2165 H2170 0.984 . S
N2165 H2171 0.985 . S
C2166 C2160 1.379 . S
C2166 C2163 1.363 . S
C2166 N2164 1.356 . S
C2167 C2161 1.363 . S
C2167 C2162 1.379 . S
C2167 N2165 1.356 . S
N2168 C2160 1.356 . S
N2168 H2174 0.984 . S
N2168 H2175 0.984 . S
N2169 C2162 1.356 . S
N2169 H2172 0.984 . S
N2169 H2173 0.985 . S
H2170 N2165 0.984 . S
H2171 N2165 0.985 . S
H2172 N2169 0.984 . S
H2173 N2169 0.985 . S
H2174 N2168 0.984 . S
H2175 N2168 0.984 . S
H2176 N2164 0.984 . S
H2177 N2164 0.985 . S
C2178 C2179 1.363 . S
C2178 C2184 1.379 . S
C2178 N2186 1.356 . S
C2179 C2178 1.363 . S
C2179 C2185 1.363 . S
C2180 C2181 1.363 . S
C2180 C2185 1.379 . S
C2180 N2187 1.356 1_554 S
C2181 C2180 1.363 . S
C2181 C2184 1.363 . S
N2182 C2184 1.356 . S
N2182 H2194 0.984 . S
N2182 H2195 0.985 . S
N2183 C2185 1.356 . S
N2183 H2188 0.984 . S
N2183 H2189 0.985 . S
C2184 C2178 1.379 . S
C2184 C2181 1.363 . S
C2184 N2182 1.356 . S
C2185 C2179 1.363 . S
C2185 C2180 1.379 . S
C2185 N2183 1.356 . S
N2186 C2178 1.356 . S
N2186 H2192 0.984 . S
N2186 H2193 0.984 . S
N2187 C2180 1.356 1_556 S
N2187 H2190 0.984 . S
N2187 H2191 0.985 . S
H2188 N2183 0.984 . S
H2189 N2183 0.985 . S
H2190 N2187 0.984 . S
H2191 N2187 0.985 . S
H2192 N2186 0.984 . S
H2193 N2186 0.984 . S
H2194 N2182 0.984 . S
H2195 N2182 0.985 . S
C2196 C2197 1.363 . S
C2196 C2202 1.379 . S
C2196 N2204 1.356 . S
C2197 C2196 1.363 . S
C2197 C2203 1.363 . S
C2198 C2199 1.363 . S
C2198 C2203 1.379 . S
C2198 N2205 1.356 . S
C2199 C2198 1.363 . S
C2199 C2202 1.363 . S
N2200 C2202 1.356 . S
N2200 H2212 0.984 . S
N2200 H2213 0.985 . S
N2201 C2203 1.356 . S
N2201 H2206 0.984 . S
N2201 H2207 0.985 . S
C2202 C2196 1.379 . S
C2202 C2199 1.363 . S
C2202 N2200 1.356 . S
C2203 C2197 1.363 . S
C2203 C2198 1.379 . S
C2203 N2201 1.356 . S
N2204 C2196 1.356 . S
N2204 H2210 0.984 . S
N2204 H2211 0.984 . S
N2205 C2198 1.356 . S
N2205 H2208 0.984 . S
N2205 H2209 0.985 . S
H2206 N2201 0.984 . S
H2207 N2201 0.985 . S
H2208 N2205 0.984 . S
H2209 N2205 0.985 . S
H2210 N2204 0.984 . S
H2211 N2204 0.984 . S
H2212 N2200 0.984 . S
H2213 N2200 0.985 . S
C2214 C2215 1.363 . S
C2214 C2220 1.379 . S
C2214 N2222 1.356 1_556 S
C2215 C2214 1.363 . S
C2215 C2221 1.363 . S
C2216 C2217 1.363 . S
C2216 C2221 1.379 . S
C2216 N2223 1.356 . S
C2217 C2216 1.363 . S
C2217 C2220 1.363 . S
N2218 C2220 1.356 . S
N2218 H2230 0.989 . S
N2218 H2231 0.985 . S
N2219 C2221 1.356 . S
N2219 H2224 0.984 . S
N2219 H2225 0.985 . S
C2220 C2214 1.379 . S
C2220 C2217 1.363 . S
C2220 N2218 1.356 . S
C2221 C2215 1.363 . S
C2221 C2216 1.379 . S
C2221 N2219 1.356 . S
N2222 C2214 1.356 1_554 S
N2222 H2228 0.984 . S
N2222 H2229 0.984 . S
N2223 C2216 1.356 . S
N2223 H2226 0.984 . S
N2223 H2227 0.985 . S
H2224 N2219 0.984 . S
H2225 N2219 0.985 . S
H2226 N2223 0.984 . S
H2227 N2223 0.985 . S
H2228 N2222 0.984 . S
H2229 N2222 0.984 . S
H2230 N2218 0.989 . S
H2231 N2218 0.985 . S
C2232 C2233 1.363 . S
C2232 C2238 1.379 . S
C2232 N2240 1.356 . S
C2233 C2232 1.363 . S
C2233 C2239 1.363 . S
C2234 C2235 1.363 . S
C2234 C2239 1.379 . S
C2234 N2241 1.356 . S
C2235 C2234 1.363 . S
C2235 C2238 1.363 . S
N2236 C2238 1.356 . S
N2236 H2248 0.984 . S
N2236 H2249 0.985 . S
N2237 C2239 1.356 . S
N2237 H2242 0.984 . S
N2237 H2243 0.985 . S
C2238 C2232 1.379 . S
C2238 C2235 1.363 . S
C2238 N2236 1.356 . S
C2239 C2233 1.363 . S
C2239 C2234 1.379 . S
C2239 N2237 1.356 . S
N2240 C2232 1.356 . S
N2240 H2246 0.984 . S
N2240 H2247 0.984 . S
N2241 C2234 1.356 . S
N2241 H2244 0.984 . S
N2241 H2245 0.985 . S
H2242 N2237 0.984 . S
H2243 N2237 0.985 . S
H2244 N2241 0.984 . S
H2245 N2241 0.985 . S
H2246 N2240 0.984 . S
H2247 N2240 0.984 . S
H2248 N2236 0.984 . S
H2249 N2236 0.985 . S
C2250 C2251 1.363 . S
C2250 C2256 1.379 . S
C2250 N2258 1.356 . S
C2251 C2250 1.363 . S
C2251 C2257 1.363 . S
C2252 C2253 1.363 . S
C2252 C2257 1.379 . S
C2252 N2259 1.356 . S
C2253 C2252 1.363 . S
C2253 C2256 1.363 . S
N2254 C2256 1.356 . S
N2254 H2266 0.984 . S
N2254 H2267 0.985 1_655 S
N2255 C2257 1.356 . S
N2255 H2260 0.984 . S
N2255 H2261 0.985 . S
C2256 C2250 1.379 . S
C2256 C2253 1.363 . S
C2256 N2254 1.356 . S
C2257 C2251 1.363 . S
C2257 C2252 1.379 . S
C2257 N2255 1.356 . S
N2258 C2250 1.356 . S
N2258 H2264 0.984 . S
N2258 H2265 0.984 . S
N2259 C2252 1.356 . S
N2259 H2262 0.984 . S
N2259 H2263 0.985 . S
H2260 N2255 0.984 . S
H2261 N2255 0.985 . S
H2262 N2259 0.984 . S
H2263 N2259 0.985 . S
H2264 N2258 0.984 . S
H2265 N2258 0.984 . S
H2266 N2254 0.984 . S
H2267 N2254 0.985 1_455 S
C2268 C2269 1.363 . S
C2268 C2274 1.379 . S
C2268 N2276 1.356 . S
C2269 C2268 1.363 . S
C2269 C2275 1.363 . S
C2270 C2271 1.363 . S
C2270 C2275 1.379 . S
C2270 N2277 1.356 . S
C2271 C2270 1.363 . S
C2271 C2274 1.363 . S
N2272 C2274 1.356 . S
N2272 H2284 0.984 . S
N2272 H2285 0.985 . S
N2273 C2275 1.356 . S
N2273 H2278 0.984 . S
N2273 H2279 0.985 . S
C2274 C2268 1.379 . S
C2274 C2271 1.363 . S
C2274 N2272 1.356 . S
C2275 C2269 1.363 . S
C2275 C2270 1.379 . S
C2275 N2273 1.356 . S
N2276 C2268 1.356 . S
N2276 H2282 0.984 . S
N2276 H2283 0.984 . S
N2277 C2270 1.356 . S
N2277 H2280 0.984 1_455 S
N2277 H2281 0.989 . S
H2278 N2273 0.984 . S
H2279 N2273 0.985 . S
H2280 N2277 0.984 1_655 S
H2281 N2277 0.989 . S
H2282 N2276 0.984 . S
H2283 N2276 0.984 . S
H2284 N2272 0.984 . S
H2285 N2272 0.985 . S
C2286 C2287 1.363 . S
C2286 C2292 1.379 . S
C2286 N2294 1.356 . S
C2287 C2286 1.363 . S
C2287 C2293 1.363 . S
C2288 C2289 1.363 . S
C2288 C2293 1.379 . S
C2288 N2295 1.356 . S
C2289 C2288 1.363 . S
C2289 C2292 1.363 . S
N2290 C2292 1.356 . S
N2290 H2302 0.984 . S
N2290 H2303 0.985 . S
N2291 C2293 1.356 . S
N2291 H2296 0.984 . S
N2291 H2297 0.985 . S
C2292 C2286 1.379 . S
C2292 C2289 1.363 . S
C2292 N2290 1.356 . S
C2293 C2287 1.363 . S
C2293 C2288 1.379 . S
C2293 N2291 1.356 . S
N2294 C2286 1.356 . S
N2294 H2300 0.984 . S
N2294 H2301 0.984 . S
N2295 C2288 1.356 . S
N2295 H2298 0.984 . S
N2295 H2299 0.985 . S
H2296 N2291 0.984 . S
H2297 N2291 0.985 . S
H2298 N2295 0.984 . S
H2299 N2295 0.985 . S
H2300 N2294 0.984 . S
H2301 N2294 0.984 . S
H2302 N2290 0.984 . S
H2303 N2290 0.985 . S
C2304 C2305 1.363 . S
C2304 C2310 1.379 . S
C2304 N2312 1.356 . S
C2305 C2304 1.363 . S
C2305 C2311 1.363 . S
C2306 C2307 1.363 . S
C2306 C2311 1.379 . S
C2306 N2313 1.356 . S
C2307 C2306 1.363 . S
C2307 C2310 1.363 . S
N2308 C2310 1.356 . S
N2308 H2320 0.984 . S
N2308 H2321 0.985 . S
N2309 C2311 1.356 . S
N2309 H2314 0.984 . S
N2309 H2315 0.985 . S
C2310 C2304 1.379 . S
C2310 C2307 1.363 . S
C2310 N2308 1.356 . S
C2311 C2305 1.363 . S
C2311 C2306 1.379 . S
C2311 N2309 1.356 . S
N2312 C2304 1.356 . S
N2312 H2318 0.984 . S
N2312 H2319 0.984 . S
N2313 C2306 1.356 . S
N2313 H2316 0.984 . S
N2313 H2317 0.985 . S
H2314 N2309 0.984 . S
H2315 N2309 0.985 . S
H2316 N2313 0.984 . S
H2317 N2313 0.985 . S
H2318 N2312 0.984 . S
H2319 N2312 0.984 . S
H2320 N2308 0.984 . S
H2321 N2308 0.985 . S
C2322 C2323 1.363 . S
C2322 C2328 1.379 . S
C2322 N2330 1.356 . S
C2323 C2322 1.363 . S
C2323 C2329 1.363 . S
C2324 C2325 1.363 . S
C2324 C2329 1.379 . S
C2324 N2331 1.356 . S
C2325 C2324 1.363 . S
C2325 C2328 1.363 . S
N2326 C2328 1.356 . S
N2326 H2338 0.984 . S
N2326 H2339 0.985 . S
N2327 C2329 1.356 . S
N2327 H2332 0.984 1_565 S
N2327 H2333 0.985 1_565 S
C2328 C2322 1.379 . S
C2328 C2325 1.363 . S
C2328 N2326 1.356 . S
C2329 C2323 1.363 . S
C2329 C2324 1.379 . S
C2329 N2327 1.356 . S
N2330 C2322 1.356 . S
N2330 H2336 0.984 . S
N2330 H2337 0.984 . S
N2331 C2324 1.356 . S
N2331 H2334 0.984 . S
N2331 H2335 0.985 . S
H2332 N2327 0.984 1_545 S
H2333 N2327 0.985 1_545 S
H2334 N2331 0.984 . S
H2335 N2331 0.985 . S
H2336 N2330 0.984 . S
H2337 N2330 0.984 . S
H2338 N2326 0.984 . S
H2339 N2326 0.985 . S
C2340 C2341 1.363 . S
C2340 C2346 1.379 . S
C2340 N2348 1.356 . S
C2341 C2340 1.363 . S
C2341 C2347 1.363 . S
C2342 C2343 1.363 . S
C2342 C2347 1.379 . S
C2342 N2349 1.356 . S
C2343 C2342 1.363 . S
C2343 C2346 1.363 . S
N2344 C2346 1.356 1_565 S
N2344 H2356 0.984 . S
N2344 H2357 0.985 . S
N2345 C2347 1.356 . S
N2345 H2350 0.984 . S
N2345 H2351 0.985 . S
C2346 C2340 1.379 . S
C2346 C2343 1.363 . S
C2346 N2344 1.356 1_545 S
C2347 C2341 1.363 . S
C2347 C2342 1.379 . S
C2347 N2345 1.356 . S
N2348 C2340 1.356 . S
N2348 H2354 0.984 . S
N2348 H2355 0.984 . S
N2349 C2342 1.356 . S
N2349 H2352 0.984 . S
N2349 H2353 0.985 . S
H2350 N2345 0.984 . S
H2351 N2345 0.985 . S
H2352 N2349 0.984 . S
H2353 N2349 0.985 . S
H2354 N2348 0.984 . S
H2355 N2348 0.984 . S
H2356 N2344 0.984 . S
H2357 N2344 0.985 . S
C2358 C2359 1.363 . S
C2358 C2364 1.379 . S
C2358 N2366 1.356 . S
C2359 C2358 1.363 . S
C2359 C2365 1.363 . S
C2360 C2361 1.363 . S
C2360 C2365 1.379 . S
C2360 N2367 1.356 . S
C2361 C2360 1.363 . S
C2361 C2364 1.363 . S
N2362 C2364 1.356 . S
N2362 H2374 0.984 . S
N2362 H2375 0.985 . S
N2363 C2365 1.356 . S
N2363 H2368 0.984 . S
N2363 H2369 0.985 . S
C2364 C2358 1.379 . S
C2364 C2361 1.363 . S
C2364 N2362 1.356 . S
C2365 C2359 1.363 . S
C2365 C2360 1.379 . S
C2365 N2363 1.356 . S
N2366 C2358 1.356 . S
N2366 H2372 0.984 . S
N2366 H2373 0.984 . S
N2367 C2360 1.356 . S
N2367 H2370 0.984 . S
N2367 H2371 0.985 . S
H2368 N2363 0.984 . S
H2369 N2363 0.985 . S
H2370 N2367 0.984 . S
H2371 N2367 0.985 . S
H2372 N2366 0.984 . S
H2373 N2366 0.984 . S
H2374 N2362 0.984 . S
H2375 N2362 0.985 . S
C2376 C2377 1.363 . S
C2376 C2382 1.379 . S
C2376 N2384 1.356 . S
C2377 C2376 1.363 . S
C2377 C2383 1.363 . S
C2378 C2379 1.363 . S
C2378 C2383 1.379 . S
C2378 N2385 1.356 . S
C2379 C2378 1.363 . S
C2379 C2382 1.363 . S
N2380 C2382 1.356 . S
N2380 H2392 0.984 . S
N2380 H2393 0.985 . S
N2381 C2383 1.356 . S
N2381 H2386 0.984 . S
N2381 H2387 0.985 . S
C2382 C2376 1.379 . S
C2382 C2379 1.363 . S
C2382 N2380 1.356 . S
C2383 C2377 1.363 . S
C2383 C2378 1.379 . S
C2383 N2381 1.356 . S
N2384 C2376 1.356 . S
N2384 H2390 0.984 . S
N2384 H2391 0.984 . S
N2385 C2378 1.356 . S
N2385 H2388 0.984 . S
N2385 H2389 0.985 . S
H2386 N2381 0.984 . S
H2387 N2381 0.985 . S
H2388 N2385 0.984 . S
H2389 N2385 0.985 . S
H2390 N2384 0.984 . S
H2391 N2384 0.984 . S
H2392 N2380 0.984 . S
H2393 N2380 0.985 . S
C2394 C2395 1.363 . S
C2394 C2400 1.379 . S
C2394 N2402 1.356 . S
C2395 C2394 1.363 . S
C2395 C2401 1.363 . S
C2396 C2397 1.363 . S
C2396 C2401 1.379 . S
C2396 N2403 1.356 1_556 S
C2397 C2396 1.363 . S
C2397 C2400 1.363 . S
N2398 C2400 1.356 . S
N2398 H2410 0.984 . S
N2398 H2411 0.985 . S
N2399 C2401 1.356 . S
N2399 H2404 0.984 . S
N2399 H2405 0.985 1_556 S
C2400 C2394 1.379 . S
C2400 C2397 1.363 . S
C2400 N2398 1.356 . S
C2401 C2395 1.363 . S
C2401 C2396 1.379 . S
C2401 N2399 1.356 . S
N2402 C2394 1.356 . S
N2402 H2408 0.984 . S
N2402 H2409 0.984 . S
N2403 C2396 1.356 1_554 S
N2403 H2406 0.984 . S
N2403 H2407 0.985 . S
H2404 N2399 0.984 . S
H2405 N2399 0.985 1_554 S
H2406 N2403 0.984 . S
H2407 N2403 0.985 . S
H2408 N2402 0.984 . S
H2409 N2402 0.984 . S
H2410 N2398 0.984 . S
H2411 N2398 0.985 . S
C2412 C2413 1.363 . S
C2412 C2418 1.379 . S
C2412 N2420 1.356 . S
C2413 C2412 1.363 . S
C2413 C2419 1.363 . S
C2414 C2415 1.363 . S
C2414 C2419 1.379 . S
C2414 N2421 1.356 . S
C2415 C2414 1.363 . S
C2415 C2418 1.363 . S
N2416 C2418 1.356 . S
N2416 H2428 0.984 . S
N2416 H2429 0.985 . S
N2417 C2419 1.356 . S
N2417 H2422 0.984 . S
N2417 H2423 0.985 . S
C2418 C2412 1.379 . S
C2418 C2415 1.363 . S
C2418 N2416 1.356 . S
C2419 C2413 1.363 . S
C2419 C2414 1.379 . S
C2419 N2417 1.356 . S
N2420 C2412 1.356 . S
N2420 H2426 0.984 . S
N2420 H2427 0.984 . S
N2421 C2414 1.356 . S
N2421 H2424 0.984 . S
N2421 H2425 0.985 . S
H2422 N2417 0.984 . S
H2423 N2417 0.985 . S
H2424 N2421 0.984 . S
H2425 N2421 0.985 . S
H2426 N2420 0.984 . S
H2427 N2420 0.984 . S
H2428 N2416 0.984 . S
H2429 N2416 0.985 . S
C2430 C2431 1.363 . S
C2430 C2436 1.379 . S
C2430 N2438 1.356 . S
C2431 C2430 1.363 . S
C2431 C2437 1.363 . S
C2432 C2433 1.363 . S
C2432 C2437 1.379 . S
C2432 N2439 1.356 1_554 S
C2433 C2432 1.363 . S
C2433 C2436 1.363 . S
N2434 C2436 1.356 . S
N2434 H2446 0.984 . S
N2434 H2447 0.985 . S
N2435 C2437 1.356 . S
N2435 H2440 0.984 . S
N2435 H2441 0.985 1_554 S
C2436 C2430 1.379 . S
C2436 C2433 1.363 . S
C2436 N2434 1.356 . S
C2437 C2431 1.363 . S
C2437 C2432 1.379 . S
C2437 N2435 1.356 . S
N2438 C2430 1.356 . S
N2438 H2444 0.984 . S
N2438 H2445 0.984 . S
N2439 C2432 1.356 1_556 S
N2439 H2442 0.984 . S
N2439 H2443 0.985 . S
H2440 N2435 0.984 . S
H2441 N2435 0.985 1_556 S
H2442 N2439 0.984 . S
H2443 N2439 0.985 . S
H2444 N2438 0.984 . S
H2445 N2438 0.984 . S
H2446 N2434 0.984 . S
H2447 N2434 0.985 . S
C2448 C2449 1.363 . S
C2448 C2454 1.379 . S
C2448 N2456 1.356 . S
C2449 C2448 1.363 . S
C2449 C2455 1.363 . S
C2450 C2451 1.363 . S
C2450 C2455 1.379 . S
C2450 N2457 1.356 . S
C2451 C2450 1.363 . S
C2451 C2454 1.363 . S
N2452 C2454 1.356 . S
N2452 H2464 0.984 . S
N2452 H2465 0.985 . S
N2453 C2455 1.356 . S
N2453 H2458 0.984 . S
N2453 H2459 0.985 . S
C2454 C2448 1.379 . S
C2454 C2451 1.363 . S
C2454 N2452 1.356 . S
C2455 C2449 1.363 . S
C2455 C2450 1.379 . S
C2455 N2453 1.356 . S
N2456 C2448 1.356 . S
N2456 H2462 0.984 . S
N2456 H2463 0.984 . S
N2457 C2450 1.356 . S
N2457 H2460 0.984 . S
N2457 H2461 0.985 . S
H2458 N2453 0.984 . S
H2459 N2453 0.985 . S
H2460 N2457 0.984 . S
H2461 N2457 0.985 . S
H2462 N2456 0.984 . S
H2463 N2456 0.984 . S
H2464 N2452 0.984 . S
H2465 N2452 0.985 . S
C2466 C2467 1.363 . S
C2466 C2472 1.379 . S
C2466 N2474 1.356 1_455 S
C2467 C2466 1.363 . S
C2467 C2473 1.363 . S
C2468 C2469 1.363 . S
C2468 C2473 1.379 . S
C2468 N2475 1.356 . S
C2469 C2468 1.363 . S
C2469 C2472 1.363 . S
N2470 C2472 1.356 . S
N2470 H2482 0.982 . S
N2470 H2483 0.985 . S
N2471 C2473 1.356 . S
N2471 H2476 0.984 . S
N2471 H2477 0.985 . S
C2472 C2466 1.379 . S
C2472 C2469 1.363 . S
C2472 N2470 1.356 . S
C2473 C2467 1.363 . S
C2473 C2468 1.379 . S
C2473 N2471 1.356 . S
N2474 C2466 1.356 1_655 S
N2474 H2480 0.984 . S
N2474 H2481 0.984 . S
N2475 C2468 1.356 . S
N2475 H2478 0.984 . S
N2475 H2479 0.985 . S
H2476 N2471 0.984 . S
H2477 N2471 0.985 . S
H2478 N2475 0.984 . S
H2479 N2475 0.985 . S
H2480 N2474 0.984 . S
H2481 N2474 0.984 . S
H2482 N2470 0.982 . S
H2483 N2470 0.985 . S
C2484 C2485 1.363 . S
C2484 C2490 1.379 . S
C2484 N2492 1.356 . S
C2485 C2484 1.363 . S
C2485 C2491 1.363 . S
C2486 C2487 1.363 . S
C2486 C2491 1.379 . S
C2486 N2493 1.356 . S
C2487 C2486 1.363 . S
C2487 C2490 1.363 . S
N2488 C2490 1.356 . S
N2488 H2500 0.984 . S
N2488 H2501 0.985 . S
N2489 C2491 1.356 1_455 S
N2489 H2494 0.984 . S
N2489 H2495 0.985 . S
C2490 C2484 1.379 . S
C2490 C2487 1.363 . S
C2490 N2488 1.356 . S
C2491 C2485 1.363 . S
C2491 C2486 1.379 . S
C2491 N2489 1.356 1_655 S
N2492 C2484 1.356 . S
N2492 H2498 0.984 . S
N2492 H2499 0.984 . S
N2493 C2486 1.356 . S
N2493 H2496 0.984 . S
N2493 H2497 0.985 . S
H2494 N2489 0.984 . S
H2495 N2489 0.985 . S
H2496 N2493 0.984 . S
H2497 N2493 0.985 . S
H2498 N2492 0.984 . S
H2499 N2492 0.984 . S
H2500 N2488 0.984 . S
H2501 N2488 0.985 . S
C2502 C2503 1.363 . S
C2502 C2508 1.379 . S
C2502 N2510 1.356 . S
C2503 C2502 1.363 . S
C2503 C2509 1.363 . S
C2504 C2505 1.363 . S
C2504 C2509 1.379 . S
C2504 N2511 1.356 . S
C2505 C2504 1.363 . S
C2505 C2508 1.363 . S
N2506 C2508 1.356 . S
N2506 H2518 0.984 . S
N2506 H2519 0.985 . S
N2507 C2509 1.356 . S
N2507 H2512 0.984 . S
N2507 H2513 0.985 . S
C2508 C2502 1.379 . S
C2508 C2505 1.363 . S
C2508 N2506 1.356 . S
C2509 C2503 1.363 . S
C2509 C2504 1.379 . S
C2509 N2507 1.356 . S
N2510 C2502 1.356 . S
N2510 H2516 0.984 . S
N2510 H2517 0.984 . S
N2511 C2504 1.356 . S
N2511 H2514 0.984 . S
N2511 H2515 0.985 . S
H2512 N2507 0.984 . S
H2513 N2507 0.985 . S
H2514 N2511 0.984 . S
H2515 N2511 0.985 . S
H2516 N2510 0.984 . S
H2517 N2510 0.984 . S
H2518 N2506 0.984 . S
H2519 N2506 0.985 . S
C2520 C2521 1.363 . S
C2520 C2526 1.379 . S
C2520 N2528 1.356 . S
C2521 C2520 1.363 . S
C2521 C2527 1.363 . S
C2522 C2523 1.363 . S
C2522 C2527 1.379 . S
C2522 N2529 1.356 . S
C2523 C2522 1.363 . S
C2523 C2526 1.363 . S
N2524 C2526 1.356 . S
N2524 H2536 0.984 . S
N2524 H2537 0.985 . S
N2525 C2527 1.356 . S
N2525 H2530 0.984 . S
N2525 H2531 0.985 . S
C2526 C2520 1.379 . S
C2526 C2523 1.363 . S
C2526 N2524 1.356 . S
C2527 C2521 1.363 . S
C2527 C2522 1.379 . S
C2527 N2525 1.356 . S
N2528 C2520 1.356 . S
N2528 H2534 0.984 . S
N2528 H2535 0.984 . S
N2529 C2522 1.356 . S
N2529 H2532 0.984 . S
N2529 H2533 0.985 . S
H2530 N2525 0.984 . S
H2531 N2525 0.985 . S
H2532 N2529 0.984 . S
H2533 N2529 0.985 . S
H2534 N2528 0.984 . S
H2535 N2528 0.984 . S
H2536 N2524 0.984 . S
H2537 N2524 0.985 . S
C2538 C2539 1.363 . S
C2538 C2544 1.379 . S
C2538 N2546 1.356 . S
C2539 C2538 1.363 . S
C2539 C2545 1.363 . S
C2540 C2541 1.363 . S
C2540 C2545 1.379 . S
C2540 N2547 1.356 . S
C2541 C2540 1.363 . S
C2541 C2544 1.363 . S
N2542 C2544 1.356 . S
N2542 H2554 0.984 . S
N2542 H2555 0.985 . S
N2543 C2545 1.356 . S
N2543 H2548 0.984 . S
N2543 H2549 0.985 . S
C2544 C2538 1.379 . S
C2544 C2541 1.363 . S
C2544 N2542 1.356 . S
C2545 C2539 1.363 . S
C2545 C2540 1.379 . S
C2545 N2543 1.356 . S
N2546 C2538 1.356 . S
N2546 H2552 0.984 . S
N2546 H2553 0.984 . S
N2547 C2540 1.356 . S
N2547 H2550 0.982 1_545 S
N2547 H2551 0.985 . S
H2548 N2543 0.984 . S
H2549 N2543 0.985 . S
H2550 N2547 0.982 1_565 S
H2551 N2547 0.985 . S
H2552 N2546 0.984 . S
H2553 N2546 0.984 . S
H2554 N2542 0.984 . S
H2555 N2542 0.985 . S
C2556 C2557 1.363 . S
C2556 C2562 1.379 . S
C2556 N2564 1.356 . S
C2557 C2556 1.363 . S
C2557 C2563 1.363 . S
C2558 C2559 1.363 . S
C2558 C2563 1.379 . S
C2558 N2565 1.356 . S
C2559 C2558 1.363 . S
C2559 C2562 1.363 . S
N2560 C2562 1.356 . S
N2560 H2572 0.984 . S
N2560 H2573 0.985 . S
N2561 C2563 1.356 . S
N2561 H2566 0.984 . S
N2561 H2567 0.985 . S
C2562 C2556 1.379 . S
C2562 C2559 1.363 . S
C2562 N2560 1.356 . S
C2563 C2557 1.363 . S
C2563 C2558 1.379 . S
C2563 N2561 1.356 . S
N2564 C2556 1.356 . S
N2564 H2570 0.984 . S
N2564 H2571 0.984 . S
N2565 C2558 1.356 . S
N2565 H2568 0.984 . S
N2565 H2569 0.985 . S
H2566 N2561 0.984 . S
H2567 N2561 0.985 . S
H2568 N2565 0.984 . S
H2569 N2565 0.985 . S
H2570 N2564 0.984 . S
H2571 N2564 0.984 . S
H2572 N2560 0.984 . S
H2573 N2560 0.985 . S
C2574 C2575 1.363 . S
C2574 C2580 1.379 . S
C2574 N2582 1.356 . S
C2575 C2574 1.363 . S
C2575 C2581 1.363 . S
C2576 C2577 1.363 . S
C2576 C2581 1.379 . S
C2576 N2583 1.356 . S
C2577 C2576 1.363 . S
C2577 C2580 1.363 . S
N2578 C2580 1.356 . S
N2578 H2590 0.984 . S
N2578 H2591 0.985 . S
N2579 C2581 1.356 . S
N2579 H2584 0.984 . S
N2579 H2585 0.985 . S
C2580 C2574 1.379 . S
C2580 C2577 1.363 . S
C2580 N2578 1.356 . S
C2581 C2575 1.363 . S
C2581 C2576 1.379 . S
C2581 N2579 1.356 . S
N2582 C2574 1.356 . S
N2582 H2588 0.984 . S
N2582 H2589 0.984 . S
N2583 C2576 1.356 . S
N2583 H2586 0.984 . S
N2583 H2587 0.985 . S
H2584 N2579 0.984 . S
H2585 N2579 0.985 . S
H2586 N2583 0.984 . S
H2587 N2583 0.985 . S
H2588 N2582 0.984 . S
H2589 N2582 0.984 . S
H2590 N2578 0.984 . S
H2591 N2578 0.985 . S
C2592 C2593 1.363 . S
C2592 C2598 1.379 . S
C2592 N2600 1.356 . S
C2593 C2592 1.363 . S
C2593 C2599 1.363 . S
C2594 C2595 1.363 . S
C2594 C2599 1.379 . S
C2594 N2601 1.356 . S
C2595 C2594 1.363 . S
C2595 C2598 1.363 . S
N2596 C2598 1.356 . S
N2596 H2608 0.984 . S
N2596 H2609 0.985 . S
N2597 C2599 1.356 . S
N2597 H2602 0.984 . S
N2597 H2603 0.985 . S
C2598 C2592 1.379 . S
C2598 C2595 1.363 . S
C2598 N2596 1.356 . S
C2599 C2593 1.363 . S
C2599 C2594 1.379 . S
C2599 N2597 1.356 . S
N2600 C2592 1.356 . S
N2600 H2606 0.984 . S
N2600 H2607 0.984 . S
N2601 C2594 1.356 . S
N2601 H2604 0.984 . S
N2601 H2605 0.985 . S
H2602 N2597 0.984 . S
H2603 N2597 0.985 . S
H2604 N2601 0.984 . S
H2605 N2601 0.985 . S
H2606 N2600 0.984 . S
H2607 N2600 0.984 . S
H2608 N2596 0.984 . S
H2609 N2596 0.985 . S
C2610 C2611 1.363 . S
C2610 C2616 1.379 . S
C2610 N2618 1.356 . S
C2611 C2610 1.363 . S
C2611 C2617 1.363 . S
C2612 C2613 1.363 . S
C2612 C2617 1.379 . S
C2612 N2619 1.356 . S
C2613 C2612 1.363 . S
C2613 C2616 1.363 . S
N2614 C2616 1.356 . S
N2614 H2626 0.984 . S
N2614 H2627 0.985 . S
N2615 C2617 1.356 . S
N2615 H2620 0.984 . S
N2615 H2621 0.985 . S
C2616 C2610 1.379 . S
C2616 C2613 1.363 . S
C2616 N2614 1.356 . S
C2617 C2611 1.363 . S
C2617 C2612 1.379 . S
C2617 N2615 1.356 . S
N2618 C2610 1.356 . S
N2618 H2624 0.984 . S
N2618 H2625 0.984 . S
N2619 C2612 1.356 . S
N2619 H2622 0.984 1_554 S
N2619 H2623 0.985 1_554 S
H2620 N2615 0.984 . S
H2621 N2615 0.985 . S
H2622 N2619 0.984 1_556 S
H2623 N2619 0.985 1_556 S
H2624 N2618 0.984 . S
H2625 N2618 0.984 . S
H2626 N2614 0.984 . S
H2627 N2614 0.985 . S
C2628 C2629 1.363 . S
C2628 C2634 1.379 . S
C2628 N2636 1.356 . S
C2629 C2628 1.363 . S
C2629 C2635 1.363 . S
C2630 C2631 1.363 . S
C2630 C2635 1.379 . S
C2630 N2637 1.356 . S
C2631 C2630 1.363 . S
C2631 C2634 1.363 . S
N2632 C2634 1.356 . S
N2632 H2644 0.984 . S
N2632 H2645 0.985 . S
N2633 C2635 1.356 . S
N2633 H2638 0.984 . S
N2633 H2639 0.985 . S
C2634 C2628 1.379 . S
C2634 C2631 1.363 . S
C2634 N2632 1.356 . S
C2635 C2629 1.363 . S
C2635 C2630 1.379 . S
C2635 N2633 1.356 . S
N2636 C2628 1.356 . S
N2636 H2642 0.984 . S
N2636 H2643 0.984 . S
N2637 C2630 1.356 . S
N2637 H2640 0.984 . S
N2637 H2641 0.985 . S
H2638 N2633 0.984 . S
H2639 N2633 0.985 . S
H2640 N2637 0.984 . S
H2641 N2637 0.985 . S
H2642 N2636 0.984 . S
H2643 N2636 0.984 . S
H2644 N2632 0.984 . S
H2645 N2632 0.985 . S
C2646 C2647 1.363 . S
C2646 C2652 1.379 . S
C2646 N2654 1.356 . S
C2647 C2646 1.363 . S
C2647 C2653 1.363 . S
C2648 C2649 1.363 . S
C2648 C2653 1.379 . S
C2648 N2655 1.353 1_556 S
C2649 C2648 1.363 . S
C2649 C2652 1.363 . S
N2650 C2652 1.356 . S
N2650 H2662 0.984 . S
N2650 H2663 0.985 . S
N2651 C2653 1.356 . S
N2651 H2656 0.984 . S
N2651 H2657 0.985 . S
C2652 C2646 1.379 . S
C2652 C2649 1.363 . S
C2652 N2650 1.356 . S
C2653 C2647 1.363 . S
C2653 C2648 1.379 . S
C2653 N2651 1.356 . S
N2654 C2646 1.356 . S
N2654 H2660 0.984 . S
N2654 H2661 0.984 . S
N2655 C2648 1.353 1_554 S
N2655 H2658 0.986 . S
N2655 H2659 0.987 . S
H2656 N2651 0.984 . S
H2657 N2651 0.985 . S
H2658 N2655 0.986 . S
H2659 N2655 0.987 . S
H2660 N2654 0.984 . S
H2661 N2654 0.984 . S
H2662 N2650 0.984 . S
H2663 N2650 0.985 . S
C2664 C2665 1.363 . S
C2664 C2670 1.379 . S
C2664 N2672 1.356 . S
C2665 C2664 1.363 . S
C2665 C2671 1.363 . S
C2666 C2667 1.363 . S
C2666 C2671 1.379 . S
C2666 N2673 1.356 . S
C2667 C2666 1.363 . S
C2667 C2670 1.363 . S
N2668 C2670 1.356 . S
N2668 H2680 0.984 . S
N2668 H2681 0.985 . S
N2669 C2671 1.356 . S
N2669 H2674 0.984 . S
N2669 H2675 0.985 . S
C2670 C2664 1.379 . S
C2670 C2667 1.363 . S
C2670 N2668 1.356 . S
C2671 C2665 1.363 . S
C2671 C2666 1.379 . S
C2671 N2669 1.356 . S
N2672 C2664 1.356 . S
N2672 H2678 0.984 . S
N2672 H2679 0.984 . S
N2673 C2666 1.356 . S
N2673 H2676 0.984 . S
N2673 H2677 0.985 . S
H2674 N2669 0.984 . S
H2675 N2669 0.985 . S
H2676 N2673 0.984 . S
H2677 N2673 0.985 . S
H2678 N2672 0.984 . S
H2679 N2672 0.984 . S
H2680 N2668 0.984 . S
H2681 N2668 0.985 . S
C2682 C2683 1.363 . S
C2682 C2688 1.379 . S
C2682 N2690 1.356 . S
C2683 C2682 1.363 . S
C2683 C2689 1.363 . S
C2684 C2685 1.363 . S
C2684 C2689 1.379 . S
C2684 N2691 1.356 . S
C2685 C2684 1.363 . S
C2685 C2688 1.363 . S
N2686 C2688 1.356 . S
N2686 H2698 0.984 . S
N2686 H2699 0.985 . S
N2687 C2689 1.356 . S
N2687 H2692 0.984 . S
N2687 H2693 0.985 . S
C2688 C2682 1.379 . S
C2688 C2685 1.363 . S
C2688 N2686 1.356 . S
C2689 C2683 1.363 . S
C2689 C2684 1.379 . S
C2689 N2687 1.356 . S
N2690 C2682 1.356 . S
N2690 H2696 0.984 . S
N2690 H2697 0.984 . S
N2691 C2684 1.356 . S
N2691 H2694 0.984 . S
N2691 H2695 0.974 1_655 S
H2692 N2687 0.984 . S
H2693 N2687 0.985 . S
H2694 N2691 0.984 . S
H2695 N2691 0.974 1_455 S
H2696 N2690 0.984 . S
H2697 N2690 0.984 . S
H2698 N2686 0.984 . S
H2699 N2686 0.985 . S
C2700 C2701 1.363 . S
C2700 C2706 1.379 . S
C2700 N2708 1.356 . S
C2701 C2700 1.363 . S
C2701 C2707 1.363 . S
C2702 C2703 1.363 . S
C2702 C2707 1.379 . S
C2702 N2709 1.356 . S
C2703 C2702 1.363 . S
C2703 C2706 1.363 . S
N2704 C2706 1.356 . S
N2704 H2716 0.984 . S
N2704 H2717 0.985 . S
N2705 C2707 1.356 . S
N2705 H2710 0.984 . S
N2705 H2711 0.985 . S
C2706 C2700 1.379 . S
C2706 C2703 1.363 . S
C2706 N2704 1.356 . S
C2707 C2701 1.363 . S
C2707 C2702 1.379 . S
C2707 N2705 1.356 . S
N2708 C2700 1.356 . S
N2708 H2714 0.984 . S
N2708 H2715 0.984 . S
N2709 C2702 1.356 . S
N2709 H2712 0.984 . S
N2709 H2713 0.985 . S
H2710 N2705 0.984 . S
H2711 N2705 0.985 . S
H2712 N2709 0.984 . S
H2713 N2709 0.985 . S
H2714 N2708 0.984 . S
H2715 N2708 0.984 . S
H2716 N2704 0.984 . S
H2717 N2704 0.985 . S
C2718 C2719 1.363 . S
C2718 C2724 1.379 . S
C2718 N2726 1.356 . S
C2719 C2718 1.363 . S
C2719 C2725 1.363 . S
C2720 C2721 1.363 . S
C2720 C2725 1.379 . S
C2720 N2727 1.356 . S
C2721 C2720 1.363 . S
C2721 C2724 1.363 . S
N2722 C2724 1.356 . S
N2722 H2734 0.984 . S
N2722 H2735 0.985 . S
N2723 C2725 1.356 . S
N2723 H2728 0.984 . S
N2723 H2729 0.985 . S
C2724 C2718 1.379 . S
C2724 C2721 1.363 . S
C2724 N2722 1.356 . S
C2725 C2719 1.363 . S
C2725 C2720 1.379 . S
C2725 N2723 1.356 . S
N2726 C2718 1.356 . S
N2726 H2732 0.984 . S
N2726 H2733 0.984 . S
N2727 C2720 1.356 . S
N2727 H2730 0.984 . S
N2727 H2731 0.985 . S
H2728 N2723 0.984 . S
H2729 N2723 0.985 . S
H2730 N2727 0.984 . S
H2731 N2727 0.985 . S
H2732 N2726 0.984 . S
H2733 N2726 0.984 . S
H2734 N2722 0.984 . S
H2735 N2722 0.985 . S
C2736 C2737 1.363 . S
C2736 C2742 1.379 . S
C2736 N2744 1.356 . S
C2737 C2736 1.363 . S
C2737 C2743 1.363 . S
C2738 C2739 1.363 . S
C2738 C2743 1.379 . S
C2738 N2745 1.356 . S
C2739 C2738 1.363 . S
C2739 C2742 1.363 . S
N2740 C2742 1.356 . S
N2740 H2752 0.984 . S
N2740 H2753 0.985 . S
N2741 C2743 1.356 . S
N2741 H2746 0.984 . S
N2741 H2747 0.985 . S
C2742 C2736 1.379 . S
C2742 C2739 1.363 . S
C2742 N2740 1.356 . S
C2743 C2737 1.363 . S
C2743 C2738 1.379 . S
C2743 N2741 1.356 . S
N2744 C2736 1.356 . S
N2744 H2750 0.984 . S
N2744 H2751 0.984 . S
N2745 C2738 1.356 . S
N2745 H2748 0.984 . S
N2745 H2749 0.985 . S
H2746 N2741 0.984 . S
H2747 N2741 0.985 . S
H2748 N2745 0.984 . S
H2749 N2745 0.985 . S
H2750 N2744 0.984 . S
H2751 N2744 0.984 . S
H2752 N2740 0.984 . S
H2753 N2740 0.985 . S
C2754 C2755 1.363 . S
C2754 C2760 1.379 . S
C2754 N2762 1.356 . S
C2755 C2754 1.363 . S
C2755 C2761 1.363 . S
C2756 C2757 1.363 . S
C2756 C2761 1.379 . S
C2756 N2763 1.356 . S
C2757 C2756 1.363 . S
C2757 C2760 1.363 . S
N2758 C2760 1.356 . S
N2758 H2770 0.984 . S
N2758 H2771 0.985 . S
N2759 C2761 1.356 . S
N2759 H2764 0.984 . S
N2759 H2765 0.985 . S
C2760 C2754 1.379 . S
C2760 C2757 1.363 . S
C2760 N2758 1.356 . S
C2761 C2755 1.363 . S
C2761 C2756 1.379 . S
C2761 N2759 1.356 . S
N2762 C2754 1.356 . S
N2762 H2768 0.984 . S
N2762 H2769 0.984 . S
N2763 C2756 1.356 . S
N2763 H2766 0.984 . S
N2763 H2767 0.985 . S
H2764 N2759 0.984 . S
H2765 N2759 0.985 . S
H2766 N2763 0.984 . S
H2767 N2763 0.985 . S
H2768 N2762 0.984 . S
H2769 N2762 0.984 . S
H2770 N2758 0.984 . S
H2771 N2758 0.985 . S
C2772 C2773 1.363 . S
C2772 C2778 1.379 . S
C2772 N2780 1.356 . S
C2773 C2772 1.363 . S
C2773 C2779 1.363 . S
C2774 C2775 1.363 . S
C2774 C2779 1.379 . S
C2774 N2781 1.356 . S
C2775 C2774 1.363 . S
C2775 C2778 1.363 . S
N2776 C2778 1.356 . S
N2776 H2788 0.984 . S
N2776 H2789 0.985 . S
N2777 C2779 1.356 . S
N2777 H2782 0.984 1_545 S
N2777 H2783 0.985 1_545 S
C2778 C2772 1.379 . S
C2778 C2775 1.363 . S
C2778 N2776 1.356 . S
C2779 C2773 1.363 . S
C2779 C2774 1.379 . S
C2779 N2777 1.356 . S
N2780 C2772 1.356 . S
N2780 H2786 0.984 . S
N2780 H2787 0.984 . S
N2781 C2774 1.356 . S
N2781 H2784 0.984 . S
N2781 H2785 0.985 . S
H2782 N2777 0.984 1_565 S
H2783 N2777 0.985 1_565 S
H2784 N2781 0.984 . S
H2785 N2781 0.985 . S
H2786 N2780 0.984 . S
H2787 N2780 0.984 . S
H2788 N2776 0.984 . S
H2789 N2776 0.985 . S
C2790 C2791 1.363 . S
C2790 C2796 1.379 . S
C2790 N2798 1.356 . S
C2791 C2790 1.363 . S
C2791 C2797 1.363 . S
C2792 C2793 1.363 . S
C2792 C2797 1.379 . S
C2792 N2799 1.356 . S
C2793 C2792 1.363 . S
C2793 C2796 1.363 . S
N2794 C2796 1.356 . S
N2794 H2806 0.984 . S
N2794 H2807 0.985 . S
N2795 C2797 1.356 . S
N2795 H2800 0.984 . S
N2795 H2801 0.985 . S
C2796 C2790 1.379 . S
C2796 C2793 1.363 . S
C2796 N2794 1.356 . S
C2797 C2791 1.363 . S
C2797 C2792 1.379 . S
C2797 N2795 1.356 . S
N2798 C2790 1.356 . S
N2798 H2804 0.984 . S
N2798 H2805 0.984 . S
N2799 C2792 1.356 . S
N2799 H2802 0.984 . S
N2799 H2803 0.985 . S
H2800 N2795 0.984 . S
H2801 N2795 0.985 . S
H2802 N2799 0.984 . S
H2803 N2799 0.985 . S
H2804 N2798 0.984 . S
H2805 N2798 0.984 . S
H2806 N2794 0.984 . S
H2807 N2794 0.985 . S
C2808 C2809 1.363 . S
C2808 C2814 1.379 . S
C2808 N2816 1.356 . S
C2809 C2808 1.363 . S
C2809 C2815 1.363 . S
C2810 C2811 1.363 . S
C2810 C2815 1.379 . S
C2810 N2817 1.356 . S
C2811 C2810 1.363 . S
C2811 C2814 1.363 . S
N2812 C2814 1.356 . S
N2812 H2824 0.984 . S
N2812 H2825 0.985 . S
N2813 C2815 1.356 . S
N2813 H2818 0.984 . S
N2813 H2819 0.985 . S
C2814 C2808 1.379 . S
C2814 C2811 1.363 . S
C2814 N2812 1.356 . S
C2815 C2809 1.363 . S
C2815 C2810 1.379 . S
C2815 N2813 1.356 . S
N2816 C2808 1.356 . S
N2816 H2822 0.984 . S
N2816 H2823 0.984 . S
N2817 C2810 1.356 . S
N2817 H2820 0.984 . S
N2817 H2821 0.985 . S
H2818 N2813 0.984 . S
H2819 N2813 0.985 . S
H2820 N2817 0.984 . S
H2821 N2817 0.985 . S
H2822 N2816 0.984 . S
H2823 N2816 0.984 . S
H2824 N2812 0.984 . S
H2825 N2812 0.985 . S
C2826 C2827 1.363 . S
C2826 C2832 1.379 . S
C2826 N2834 1.356 . S
C2827 C2826 1.363 . S
C2827 C2833 1.363 . S
C2828 C2829 1.363 . S
C2828 C2833 1.379 . S
C2828 N2835 1.356 . S
C2829 C2828 1.363 . S
C2829 C2832 1.363 . S
N2830 C2832 1.356 . S
N2830 H2842 0.984 . S
N2830 H2843 0.985 . S
N2831 C2833 1.356 . S
N2831 H2836 0.984 . S
N2831 H2837 0.985 . S
C2832 C2826 1.379 . S
C2832 C2829 1.363 . S
C2832 N2830 1.356 . S
C2833 C2827 1.363 . S
C2833 C2828 1.379 . S
C2833 N2831 1.356 . S
N2834 C2826 1.356 . S
N2834 H2840 0.984 1_556 S
N2834 H2841 0.984 1_556 S
N2835 C2828 1.356 . S
N2835 H2838 0.984 . S
N2835 H2839 0.985 . S
H2836 N2831 0.984 . S
H2837 N2831 0.985 . S
H2838 N2835 0.984 . S
H2839 N2835 0.985 . S
H2840 N2834 0.984 1_554 S
H2841 N2834 0.984 1_554 S
H2842 N2830 0.984 . S
H2843 N2830 0.985 . S
C2844 C2845 1.363 . S
C2844 C2850 1.379 . S
C2844 N2852 1.356 . S
C2845 C2844 1.363 . S
C2845 C2851 1.363 . S
C2846 C2847 1.363 . S
C2846 C2851 1.379 . S
C2846 N2853 1.356 . S
C2847 C2846 1.363 . S
C2847 C2850 1.363 . S
N2848 C2850 1.356 . S
N2848 H2860 0.984 . S
N2848 H2861 0.985 . S
N2849 C2851 1.356 . S
N2849 H2854 0.984 . S
N2849 H2855 0.985 . S
C2850 C2844 1.379 . S
C2850 C2847 1.363 . S
C2850 N2848 1.356 . S
C2851 C2845 1.363 . S
C2851 C2846 1.379 . S
C2851 N2849 1.356 . S
N2852 C2844 1.356 . S
N2852 H2858 0.984 . S
N2852 H2859 0.984 . S
N2853 C2846 1.356 . S
N2853 H2856 0.984 . S
N2853 H2857 0.985 . S
H2854 N2849 0.984 . S
H2855 N2849 0.985 . S
H2856 N2853 0.984 . S
H2857 N2853 0.985 . S
H2858 N2852 0.984 . S
H2859 N2852 0.984 . S
H2860 N2848 0.984 . S
H2861 N2848 0.985 . S
C2862 C2863 1.363 . S
C2862 C2868 1.379 . S
C2862 N2870 1.356 . S
C2863 C2862 1.363 . S
C2863 C2869 1.363 . S
C2864 C2865 1.363 . S
C2864 C2869 1.379 . S
C2864 N2871 1.356 . S
C2865 C2864 1.363 . S
C2865 C2868 1.363 . S
N2866 C2868 1.356 . S
N2866 H2878 0.984 . S
N2866 H2879 0.985 . S
N2867 C2869 1.356 . S
N2867 H2872 0.984 . S
N2867 H2873 0.985 . S
C2868 C2862 1.379 . S
C2868 C2865 1.363 . S
C2868 N2866 1.356 . S
C2869 C2863 1.363 . S
C2869 C2864 1.379 . S
C2869 N2867 1.356 . S
N2870 C2862 1.356 . S
N2870 H2876 0.984 . S
N2870 H2877 0.984 . S
N2871 C2864 1.356 . S
N2871 H2874 0.984 . S
N2871 H2875 0.985 . S
H2872 N2867 0.984 . S
H2873 N2867 0.985 . S
H2874 N2871 0.984 . S
H2875 N2871 0.985 . S
H2876 N2870 0.984 . S
H2877 N2870 0.984 . S
H2878 N2866 0.984 . S
H2879 N2866 0.985 . S
C2880 C2881 1.363 . S
C2880 C2886 1.379 . S
C2880 N2888 1.356 . S
C2881 C2880 1.363 . S
C2881 C2887 1.363 . S
C2882 C2883 1.363 . S
C2882 C2887 1.379 . S
C2882 N2889 1.356 . S
C2883 C2882 1.363 . S
C2883 C2886 1.363 . S
N2884 C2886 1.356 . S
N2884 H2896 0.984 . S
N2884 H2897 0.985 . S
N2885 C2887 1.356 . S
N2885 H2890 0.984 . S
N2885 H2891 0.985 . S
C2886 C2880 1.379 . S
C2886 C2883 1.363 . S
C2886 N2884 1.356 . S
C2887 C2881 1.363 . S
C2887 C2882 1.379 . S
C2887 N2885 1.356 . S
N2888 C2880 1.356 . S
N2888 H2894 0.984 . S
N2888 H2895 0.984 . S
N2889 C2882 1.356 . S
N2889 H2892 0.984 . S
N2889 H2893 0.985 . S
H2890 N2885 0.984 . S
H2891 N2885 0.985 . S
H2892 N2889 0.984 . S
H2893 N2889 0.985 . S
H2894 N2888 0.984 . S
H2895 N2888 0.984 . S
H2896 N2884 0.984 . S
H2897 N2884 0.985 . S
C2898 C2899 1.363 . S
C2898 C2904 1.379 . S
C2898 N2906 1.356 . S
C2899 C2898 1.363 . S
C2899 C2905 1.363 . S
C2900 C2901 1.363 . S
C2900 C2905 1.379 . S
C2900 N2907 1.356 . S
C2901 C2900 1.363 . S
C2901 C2904 1.363 . S
N2902 C2904 1.356 . S
N2902 H2914 0.984 . S
N2902 H2915 0.985 . S
N2903 C2905 1.356 . S
N2903 H2908 0.984 . S
N2903 H2909 0.985 . S
C2904 C2898 1.379 . S
C2904 C2901 1.363 . S
C2904 N2902 1.356 . S
C2905 C2899 1.363 . S
C2905 C2900 1.379 . S
C2905 N2903 1.356 . S
N2906 C2898 1.356 . S
N2906 H2912 0.984 . S
N2906 H2913 0.984 . S
N2907 C2900 1.356 . S
N2907 H2910 0.984 . S
N2907 H2911 0.985 . S
H2908 N2903 0.984 . S
H2909 N2903 0.985 . S
H2910 N2907 0.984 . S
H2911 N2907 0.985 . S
H2912 N2906 0.984 . S
H2913 N2906 0.984 . S
H2914 N2902 0.984 . S
H2915 N2902 0.985 . S
C2916 C2917 1.363 . S
C2916 C2922 1.379 . S
C2916 N2924 1.367 . S
C2917 C2916 1.363 . S
C2917 C2923 1.363 . S
C2918 C2919 1.363 . S
C2918 C2923 1.379 . S
C2918 N2925 1.356 . S
C2919 C2918 1.363 . S
C2919 C2922 1.363 . S
N2920 C2922 1.356 . S
N2920 H2932 0.984 . S
N2920 H2933 0.985 . S
N2921 C2923 1.356 . S
N2921 H2926 0.984 . S
N2921 H2927 0.985 . S
C2922 C2916 1.379 . S
C2922 C2919 1.363 . S
C2922 N2920 1.356 . S
C2923 C2917 1.363 . S
C2923 C2918 1.379 . S
C2923 N2921 1.356 . S
N2924 C2916 1.367 . S
N2924 H2930 0.977 1_655 S
N2924 H2931 0.981 1_655 S
N2925 C2918 1.356 . S
N2925 H2928 0.984 . S
N2925 H2929 0.985 . S
H2926 N2921 0.984 . S
H2927 N2921 0.985 . S
H2928 N2925 0.984 . S
H2929 N2925 0.985 . S
H2930 N2924 0.977 1_455 S
H2931 N2924 0.981 1_455 S
H2932 N2920 0.984 . S
H2933 N2920 0.985 . S
C2934 C2935 1.363 . S
C2934 C2940 1.379 . S
C2934 N2942 1.356 . S
C2935 C2934 1.363 . S
C2935 C2941 1.363 . S
C2936 C2937 1.363 . S
C2936 C2941 1.379 . S
C2936 N2943 1.356 . S
C2937 C2936 1.363 . S
C2937 C2940 1.363 . S
N2938 C2940 1.356 . S
N2938 H2950 0.984 . S
N2938 H2951 0.985 . S
N2939 C2941 1.356 . S
N2939 H2944 0.984 . S
N2939 H2945 0.985 . S
C2940 C2934 1.379 . S
C2940 C2937 1.363 . S
C2940 N2938 1.356 . S
C2941 C2935 1.363 . S
C2941 C2936 1.379 . S
C2941 N2939 1.356 . S
N2942 C2934 1.356 . S
N2942 H2948 0.984 . S
N2942 H2949 0.984 . S
N2943 C2936 1.356 . S
N2943 H2946 0.984 . S
N2943 H2947 0.985 . S
H2944 N2939 0.984 . S
H2945 N2939 0.985 . S
H2946 N2943 0.984 . S
H2947 N2943 0.985 . S
H2948 N2942 0.984 . S
H2949 N2942 0.984 . S
H2950 N2938 0.984 . S
H2951 N2938 0.985 . S
C2952 C2953 1.363 . S
C2952 C2958 1.379 . S
C2952 N2960 1.356 . S
C2953 C2952 1.363 . S
C2953 C2959 1.363 . S
C2954 C2955 1.363 . S
C2954 C2959 1.379 . S
C2954 N2961 1.356 . S
C2955 C2954 1.363 . S
C2955 C2958 1.363 . S
N2956 C2958 1.356 . S
N2956 H2968 0.984 . S
N2956 H2969 0.985 . S
N2957 C2959 1.356 . S
N2957 H2962 0.984 . S
N2957 H2963 0.985 . S
C2958 C2952 1.379 . S
C2958 C2955 1.363 . S
C2958 N2956 1.356 . S
C2959 C2953 1.363 . S
C2959 C2954 1.379 . S
C2959 N2957 1.356 . S
N2960 C2952 1.356 . S
N2960 H2966 0.984 . S
N2960 H2967 0.984 . S
N2961 C2954 1.356 . S
N2961 H2964 0.984 . S
N2961 H2965 0.985 . S
H2962 N2957 0.984 . S
H2963 N2957 0.985 . S
H2964 N2961 0.984 . S
H2965 N2961 0.985 . S
H2966 N2960 0.984 . S
H2967 N2960 0.984 . S
H2968 N2956 0.984 . S
H2969 N2956 0.985 . S
C2970 C2971 1.363 . S
C2970 C2976 1.379 . S
C2970 N2978 1.356 . S
C2971 C2970 1.363 . S
C2971 C2977 1.363 . S
C2972 C2973 1.363 . S
C2972 C2977 1.379 . S
C2972 N2979 1.356 . S
C2973 C2972 1.363 . S
C2973 C2976 1.363 . S
N2974 C2976 1.356 . S
N2974 H2986 0.984 . S
N2974 H2987 0.985 . S
N2975 C2977 1.356 . S
N2975 H2980 0.984 . S
N2975 H2981 0.985 . S
C2976 C2970 1.379 . S
C2976 C2973 1.363 . S
C2976 N2974 1.356 . S
C2977 C2971 1.363 . S
C2977 C2972 1.379 . S
C2977 N2975 1.356 . S
N2978 C2970 1.356 . S
N2978 H2984 0.996 . S
N2978 H2985 0.984 . S
N2979 C2972 1.356 . S
N2979 H2982 0.984 . S
N2979 H2983 0.985 . S
H2980 N2975 0.984 . S
H2981 N2975 0.985 . S
H2982 N2979 0.984 . S
H2983 N2979 0.985 . S
H2984 N2978 0.996 . S
H2985 N2978 0.984 . S
H2986 N2974 0.984 . S
H2987 N2974 0.985 . S
C2988 C2989 1.363 . S
C2988 C2994 1.379 . S
C2988 N2996 1.356 . S
C2989 C2988 1.363 . S
C2989 C2995 1.363 . S
C2990 C2991 1.363 . S
C2990 C2995 1.379 . S
C2990 N2997 1.356 . S
C2991 C2990 1.363 . S
C2991 C2994 1.363 . S
N2992 C2994 1.356 . S
N2992 H3004 0.984 . S
N2992 H3005 0.985 . S
N2993 C2995 1.356 . S
N2993 H2998 0.984 . S
N2993 H2999 0.985 . S
C2994 C2988 1.379 . S
C2994 C2991 1.363 . S
C2994 N2992 1.356 . S
C2995 C2989 1.363 . S
C2995 C2990 1.379 . S
C2995 N2993 1.356 . S
N2996 C2988 1.356 . S
N2996 H3002 0.984 . S
N2996 H3003 0.984 . S
N2997 C2990 1.356 . S
N2997 H3000 0.984 . S
N2997 H3001 0.985 . S
H2998 N2993 0.984 . S
H2999 N2993 0.985 . S
H3000 N2997 0.984 . S
H3001 N2997 0.985 . S
H3002 N2996 0.984 . S
H3003 N2996 0.984 . S
H3004 N2992 0.984 . S
H3005 N2992 0.985 . S
C3006 C3007 1.363 . S
C3006 C3012 1.379 . S
C3006 N3014 1.356 . S
C3007 C3006 1.363 . S
C3007 C3013 1.363 . S
C3008 C3009 1.363 . S
C3008 C3013 1.379 . S
C3008 N3015 1.356 . S
C3009 C3008 1.363 . S
C3009 C3012 1.363 . S
N3010 C3012 1.356 . S
N3010 H3022 0.984 . S
N3010 H3023 0.985 . S
N3011 C3013 1.356 . S
N3011 H3016 0.984 . S
N3011 H3017 0.985 . S
C3012 C3006 1.379 . S
C3012 C3009 1.363 . S
C3012 N3010 1.356 . S
C3013 C3007 1.363 . S
C3013 C3008 1.379 . S
C3013 N3011 1.356 . S
N3014 C3006 1.356 . S
N3014 H3020 0.984 . S
N3014 H3021 0.984 . S
N3015 C3008 1.356 . S
N3015 H3018 0.984 . S
N3015 H3019 0.985 . S
H3016 N3011 0.984 . S
H3017 N3011 0.985 . S
H3018 N3015 0.984 . S
H3019 N3015 0.985 . S
H3020 N3014 0.984 . S
H3021 N3014 0.984 . S
H3022 N3010 0.984 . S
H3023 N3010 0.985 . S
C1297 C977 0.966 . S
C1299 C5 0.994 . S
C1315 C76 0.994 . S
C1317 C1031 0.966 . S
C1333 C886 0.966 . S
C1335 C113 0.994 . S
C1351 C184 0.994 . S
C1353 C923 0.966 . S
C1369 C1193 0.966 . S
C1371 C238 0.994 . S
C1387 C1139 0.966 . S
C1389 C275 0.994 . S
C1405 C1264 0.966 . S
C1407 C329 0.994 . S
C1423 C1085 0.966 . S
C1425 C400 0.994 . S
C1441 C454 0.994 . S
C1443 C707 0.966 . S
C1459 C815 0.966 . S
C1461 C491 0.994 . S
C1477 C562 0.994 . S
C1479 C778 0.966 . S
C1495 C670 0.966 . S
C1497 C616 0.994 . S
C1513 C346 0.966 . S
C1515 C653 0.994 . S
C1531 C383 0.966 . S
C1533 C724 0.994 . S
C1549 C221 0.966 . S
C1551 C761 0.994 . S
C1567 C832 0.994 . S
C1569 C292 0.966 . S
C1585 C545 0.966 . S
C1587 C869 0.994 . S
C1603 C940 0.994 . S
C1605 C508 0.966 . S
C1621 C599 0.966 . S
C1623 C994 0.994 . S
C1639 C437 0.966 . S
C1641 C1048 0.994 . S
C1657 C1102 0.994 . S
C1659 C59 0.966 . S
C1675 C167 0.966 . S
C1677 C1156 0.994 . S
C1693 C1210 0.994 . S
C1695 C130 0.966 . S
C1711 C1247 0.994 . S
C1713 C22 0.966 . S
C1729 C445 1.903 . S
C1731 C28 2.162 . S
C1747 C89 2.162 . S
C1749 C607 1.903 . S
C1765 C136 2.162 . S
C1767 C518 1.903 . S
C1783 C197 2.162 . S
C1785 C553 1.903 . S
C1801 C251 2.162 . S
C1803 C32 1.903 . S
C1819 C298 2.162 . S
C1821 C67 1.903 . S
C1837 C140 1.903 . S
C1839 C352 2.162 . S
C1855 C413 2.162 . S
C1857 C175 1.903 . S
C1873 C229 1.903 . S
C1875 C467 2.162 . S
C1891 C514 2.162 . S
C1893 C356 1.903 . S
C1909 C391 1.903 . S
C1911 C575 2.162 . S
C1927 C302 1.903 . S
C1929 C629 2.162 . S
C1945 C1093 1.903 . S
C1947 C676 2.162 . S
C1963 C737 2.162 . S
C1965 C1274 1.903 . S
C1981 C1147 1.903 . S
C1983 C784 2.162 . S
C1999 C845 2.162 . S
C2001 C1201 1.903 . S
C2017 C680 1.903 . S
C2019 C892 2.162 . S
C2035 C715 1.903 . S
C2037 C953 2.162 . S
C2053 C1007 2.162 . S
C2055 C788 1.903 . S
C2071 C823 1.903 . S
C2073 C1061 2.162 . S
C2089 C896 1.903 . S
C2091 C1115 2.162 . S
C2107 C1169 2.162 . S
C2109 C985 1.903 . S
C2125 C1223 2.162 . S
C2127 C1039 1.903 . S
C2143 C1270 2.162 . S
C2145 C931 1.903 . S
C2161 C27 1.367 . S
C2163 C622 1.299 . S
C2179 C460 1.299 . S
C2181 C64 1.367 1_554 S
C2197 C135 1.367 . S
C2199 C568 1.299 . S
C2215 C172 1.367 1_556 S
C2217 C521 1.299 . S
C2233 C143 1.299 . S
C2235 C226 1.367 . S
C2251 C190 1.299 . S
C2253 C297 1.367 1_655 S
C2269 C35 1.299 . S
C2271 C351 1.367 1_455 S
C2287 C388 1.367 . S
C2289 C82 1.299 . S
C2305 C406 1.299 . S
C2307 C442 1.367 . S
C2323 C513 1.367 1_565 S
C2325 C305 1.299 . S
C2341 C244 1.299 . S
C2343 C550 1.367 1_545 S
C2359 C604 1.367 . S
C2361 C359 1.299 . S
C2377 C1277 1.299 . S
C2379 C675 1.367 . S
C2395 C1108 1.299 . S
C2397 C712 1.367 1_556 S
C2413 C1216 1.299 . S
C2415 C783 1.367 . S
C2431 C1162 1.299 . S
C2433 C820 1.367 1_554 S
C2449 C891 1.367 . S
C2451 C791 1.299 . S
C2467 C928 1.367 1_455 S
C2469 C838 1.299 . S
C2485 C982 1.367 1_655 S
C2487 C683 1.299 . S
C2503 C1036 1.367 . S
C2505 C730 1.299 . S
C2521 C1054 1.299 . S
C2523 C1090 1.367 . S
C2539 C946 1.299 . S
C2541 C1144 1.367 1_545 S
C2557 C899 1.299 . S
C2559 C1198 1.367 1_565 S
C2575 C1000 1.299 . S
C2577 C1269 1.367 . S
C2593 C1215 2.162 . S
C2595 C13 2.144 . S
C2611 C1161 2.162 . S
C2613 C86 2.144 . S
C2629 C121 2.144 . S
C2631 C1252 2.162 . S
C2647 C1107 2.162 . S
C2649 C194 2.144 . S
C2665 C248 2.144 . S
C2667 C729 2.162 . S
C2683 C658 2.162 . S
C2685 C283 2.144 . S
C2701 C337 2.144 . S
C2703 C837 2.162 . S
C2719 C410 2.144 . S
C2721 C766 2.162 . S
C2737 C999 2.162 . S
C2739 C464 2.144 . S
C2755 C874 2.162 . S
C2757 C499 2.144 . S
C2773 C572 2.144 . S
C2775 C945 2.162 . S
C2791 C626 2.144 . S
C2793 C1053 2.162 . S
C2809 C661 2.144 . S
C2811 C567 2.162 . S
C2827 C734 2.144 . S
C2829 C496 2.162 . S
C2845 C621 2.162 . S
C2847 C769 2.144 . S
C2863 C459 2.162 . S
C2865 C842 2.144 . S
C2881 C877 2.144 . S
C2883 C81 2.162 . S
C2899 C950 2.144 . S
C2901 C10 2.162 . S
C2917 C1004 2.144 . S
C2919 C189 2.162 . S
C2935 C1058 2.144 . S
C2937 C118 2.162 . S
C2953 C1112 2.144 . S
C2955 C334 2.162 . S
C2971 C1166 2.144 . S
C2973 C243 2.162 . S
C2989 C1220 2.144 . S
C2991 C280 2.162 . S
C3007 C405 2.162 . S
C3009 C1255 2.144 . S
