# Generated by pormake.
# Topology ato, (4)-cn, num edge types: 1
# Building blocks:
#     Node 0, Type 0, BuildingBlock: QUQFOY_clean_sbu_1, # of connection points: 4
#     Node 1, Type 0, BuildingBlock: QUQFOY_clean_sbu_1, # of connection points: 4
#     Node 2, Type 0, BuildingBlock: QUQFOY_clean_sbu_1, # of connection points: 4
#     Node 3, Type 0, BuildingBlock: QUQFOY_clean_sbu_1, # of connection points: 4
#     Node 4, Type 0, BuildingBlock: QUQFOY_clean_sbu_1, # of connection points: 4
#     Node 5, Type 0, BuildingBlock: QUQFOY_clean_sbu_1, # of connection points: 4
#     Node 6, Type 0, BuildingBlock: QUQFOY_clean_sbu_1, # of connection points: 4
#     Node 7, Type 0, BuildingBlock: QUQFOY_clean_sbu_1, # of connection points: 4
#     Node 8, Type 0, BuildingBlock: QUQFOY_clean_sbu_1, # of connection points: 4
#     Node 9, Type 0, BuildingBlock: QUQFOY_clean_sbu_1, # of connection points: 4
#     Node 10, Type 0, BuildingBlock: QUQFOY_clean_sbu_1, # of connection points: 4
#     Node 11, Type 0, BuildingBlock: QUQFOY_clean_sbu_1, # of connection points: 4
#     Node 12, Type 0, BuildingBlock: QUQFOY_clean_sbu_1, # of connection points: 4
#     Node 13, Type 0, BuildingBlock: QUQFOY_clean_sbu_1, # of connection points: 4
#     Node 14, Type 0, BuildingBlock: QUQFOY_clean_sbu_1, # of connection points: 4
#     Node 15, Type 0, BuildingBlock: QUQFOY_clean_sbu_1, # of connection points: 4
#     Node 16, Type 0, BuildingBlock: QUQFOY_clean_sbu_1, # of connection points: 4
#     Node 17, Type 0, BuildingBlock: QUQFOY_clean_sbu_1, # of connection points: 4
#     Node 18, Type 0, BuildingBlock: QUQFOY_clean_sbu_1, # of connection points: 4
#     Node 19, Type 0, BuildingBlock: QUQFOY_clean_sbu_1, # of connection points: 4
#     Node 20, Type 0, BuildingBlock: QUQFOY_clean_sbu_1, # of connection points: 4
#     Node 21, Type 0, BuildingBlock: QUQFOY_clean_sbu_1, # of connection points: 4
#     Node 22, Type 0, BuildingBlock: QUQFOY_clean_sbu_1, # of connection points: 4
#     Node 23, Type 0, BuildingBlock: QUQFOY_clean_sbu_1, # of connection points: 4
#     Node 24, Type 0, BuildingBlock: QUQFOY_clean_sbu_1, # of connection points: 4
#     Node 25, Type 0, BuildingBlock: QUQFOY_clean_sbu_1, # of connection points: 4
#     Node 26, Type 0, BuildingBlock: QUQFOY_clean_sbu_1, # of connection points: 4
#     Node 27, Type 0, BuildingBlock: QUQFOY_clean_sbu_1, # of connection points: 4
#     Node 28, Type 0, BuildingBlock: QUQFOY_clean_sbu_1, # of connection points: 4
#     Node 29, Type 0, BuildingBlock: QUQFOY_clean_sbu_1, # of connection points: 4
#     Node 30, Type 0, BuildingBlock: QUQFOY_clean_sbu_1, # of connection points: 4
#     Node 31, Type 0, BuildingBlock: QUQFOY_clean_sbu_1, # of connection points: 4
#     Node 32, Type 0, BuildingBlock: QUQFOY_clean_sbu_1, # of connection points: 4
#     Node 33, Type 0, BuildingBlock: QUQFOY_clean_sbu_1, # of connection points: 4
#     Node 34, Type 0, BuildingBlock: QUQFOY_clean_sbu_1, # of connection points: 4
#     Node 35, Type 0, BuildingBlock: QUQFOY_clean_sbu_1, # of connection points: 4
#     Edge 36, Type (0, 0), BuildingBlock: XUDNAN_clean_linker_2, # of connection points: 2
#     Edge 37, Type (0, 0), BuildingBlock: XUDNAN_clean_linker_2, # of connection points: 2
#     Edge 38, Type (0, 0), BuildingBlock: XUDNAN_clean_linker_2, # of connection points: 2
#     Edge 39, Type (0, 0), BuildingBlock: XUDNAN_clean_linker_2, # of connection points: 2
#     Edge 40, Type (0, 0), BuildingBlock: XUDNAN_clean_linker_2, # of connection points: 2
#     Edge 41, Type (0, 0), BuildingBlock: XUDNAN_clean_linker_2, # of connection points: 2
#     Edge 42, Type (0, 0), BuildingBlock: XUDNAN_clean_linker_2, # of connection points: 2
#     Edge 43, Type (0, 0), BuildingBlock: XUDNAN_clean_linker_2, # of connection points: 2
#     Edge 44, Type (0, 0), BuildingBlock: XUDNAN_clean_linker_2, # of connection points: 2
#     Edge 45, Type (0, 0), BuildingBlock: XUDNAN_clean_linker_2, # of connection points: 2
#     Edge 46, Type (0, 0), BuildingBlock: XUDNAN_clean_linker_2, # of connection points: 2
#     Edge 47, Type (0, 0), BuildingBlock: XUDNAN_clean_linker_2, # of connection points: 2
#     Edge 48, Type (0, 0), BuildingBlock: XUDNAN_clean_linker_2, # of connection points: 2
#     Edge 49, Type (0, 0), BuildingBlock: XUDNAN_clean_linker_2, # of connection points: 2
#     Edge 50, Type (0, 0), BuildingBlock: XUDNAN_clean_linker_2, # of connection points: 2
#     Edge 51, Type (0, 0), BuildingBlock: XUDNAN_clean_linker_2, # of connection points: 2
#     Edge 52, Type (0, 0), BuildingBlock: XUDNAN_clean_linker_2, # of connection points: 2
#     Edge 53, Type (0, 0), BuildingBlock: XUDNAN_clean_linker_2, # of connection points: 2
#     Edge 54, Type (0, 0), BuildingBlock: XUDNAN_clean_linker_2, # of connection points: 2
#     Edge 55, Type (0, 0), BuildingBlock: XUDNAN_clean_linker_2, # of connection points: 2
#     Edge 56, Type (0, 0), BuildingBlock: XUDNAN_clean_linker_2, # of connection points: 2
#     Edge 57, Type (0, 0), BuildingBlock: XUDNAN_clean_linker_2, # of connection points: 2
#     Edge 58, Type (0, 0), BuildingBlock: XUDNAN_clean_linker_2, # of connection points: 2
#     Edge 59, Type (0, 0), BuildingBlock: XUDNAN_clean_linker_2, # of connection points: 2
#     Edge 60, Type (0, 0), BuildingBlock: XUDNAN_clean_linker_2, # of connection points: 2
#     Edge 61, Type (0, 0), BuildingBlock: XUDNAN_clean_linker_2, # of connection points: 2
#     Edge 62, Type (0, 0), BuildingBlock: XUDNAN_clean_linker_2, # of connection points: 2
#     Edge 63, Type (0, 0), BuildingBlock: XUDNAN_clean_linker_2, # of connection points: 2
#     Edge 64, Type (0, 0), BuildingBlock: XUDNAN_clean_linker_2, # of connection points: 2
#     Edge 65, Type (0, 0), BuildingBlock: XUDNAN_clean_linker_2, # of connection points: 2
#     Edge 66, Type (0, 0), BuildingBlock: XUDNAN_clean_linker_2, # of connection points: 2
#     Edge 67, Type (0, 0), BuildingBlock: XUDNAN_clean_linker_2, # of connection points: 2
#     Edge 68, Type (0, 0), BuildingBlock: XUDNAN_clean_linker_2, # of connection points: 2
#     Edge 69, Type (0, 0), BuildingBlock: XUDNAN_clean_linker_2, # of connection points: 2
#     Edge 70, Type (0, 0), BuildingBlock: XUDNAN_clean_linker_2, # of connection points: 2
#     Edge 71, Type (0, 0), BuildingBlock: XUDNAN_clean_linker_2, # of connection points: 2
#     Edge 72, Type (0, 0), BuildingBlock: XUDNAN_clean_linker_2, # of connection points: 2
#     Edge 73, Type (0, 0), BuildingBlock: XUDNAN_clean_linker_2, # of connection points: 2
#     Edge 74, Type (0, 0), BuildingBlock: XUDNAN_clean_linker_2, # of connection points: 2
#     Edge 75, Type (0, 0), BuildingBlock: XUDNAN_clean_linker_2, # of connection points: 2
#     Edge 76, Type (0, 0), BuildingBlock: XUDNAN_clean_linker_2, # of connection points: 2
#     Edge 77, Type (0, 0), BuildingBlock: XUDNAN_clean_linker_2, # of connection points: 2
#     Edge 78, Type (0, 0), BuildingBlock: XUDNAN_clean_linker_2, # of connection points: 2
#     Edge 79, Type (0, 0), BuildingBlock: XUDNAN_clean_linker_2, # of connection points: 2
#     Edge 80, Type (0, 0), BuildingBlock: XUDNAN_clean_linker_2, # of connection points: 2
#     Edge 81, Type (0, 0), BuildingBlock: XUDNAN_clean_linker_2, # of connection points: 2
#     Edge 82, Type (0, 0), BuildingBlock: XUDNAN_clean_linker_2, # of connection points: 2
#     Edge 83, Type (0, 0), BuildingBlock: XUDNAN_clean_linker_2, # of connection points: 2
#     Edge 84, Type (0, 0), BuildingBlock: XUDNAN_clean_linker_2, # of connection points: 2
#     Edge 85, Type (0, 0), BuildingBlock: XUDNAN_clean_linker_2, # of connection points: 2
#     Edge 86, Type (0, 0), BuildingBlock: XUDNAN_clean_linker_2, # of connection points: 2
#     Edge 87, Type (0, 0), BuildingBlock: XUDNAN_clean_linker_2, # of connection points: 2
#     Edge 88, Type (0, 0), BuildingBlock: XUDNAN_clean_linker_2, # of connection points: 2
#     Edge 89, Type (0, 0), BuildingBlock: XUDNAN_clean_linker_2, # of connection points: 2
#     Edge 90, Type (0, 0), BuildingBlock: XUDNAN_clean_linker_2, # of connection points: 2
#     Edge 91, Type (0, 0), BuildingBlock: XUDNAN_clean_linker_2, # of connection points: 2
#     Edge 92, Type (0, 0), BuildingBlock: XUDNAN_clean_linker_2, # of connection points: 2
#     Edge 93, Type (0, 0), BuildingBlock: XUDNAN_clean_linker_2, # of connection points: 2
#     Edge 94, Type (0, 0), BuildingBlock: XUDNAN_clean_linker_2, # of connection points: 2
#     Edge 95, Type (0, 0), BuildingBlock: XUDNAN_clean_linker_2, # of connection points: 2
#     Edge 96, Type (0, 0), BuildingBlock: XUDNAN_clean_linker_2, # of connection points: 2
#     Edge 97, Type (0, 0), BuildingBlock: XUDNAN_clean_linker_2, # of connection points: 2
#     Edge 98, Type (0, 0), BuildingBlock: XUDNAN_clean_linker_2, # of connection points: 2
#     Edge 99, Type (0, 0), BuildingBlock: XUDNAN_clean_linker_2, # of connection points: 2
#     Edge 100, Type (0, 0), BuildingBlock: XUDNAN_clean_linker_2, # of connection points: 2
#     Edge 101, Type (0, 0), BuildingBlock: XUDNAN_clean_linker_2, # of connection points: 2
#     Edge 102, Type (0, 0), BuildingBlock: XUDNAN_clean_linker_2, # of connection points: 2
#     Edge 103, Type (0, 0), BuildingBlock: XUDNAN_clean_linker_2, # of connection points: 2
#     Edge 104, Type (0, 0), BuildingBlock: XUDNAN_clean_linker_2, # of connection points: 2
#     Edge 105, Type (0, 0), BuildingBlock: XUDNAN_clean_linker_2, # of connection points: 2
#     Edge 106, Type (0, 0), BuildingBlock: XUDNAN_clean_linker_2, # of connection points: 2
#     Edge 107, Type (0, 0), BuildingBlock: XUDNAN_clean_linker_2, # of connection points: 2
# Relax obj value: 0.079
# Max RMSD: 0.154
# Mean RMSD: 0.154
data_MOF--net-ato--node1-QUQFOY_clean_sbu_1--edge1-XUDNAN_clean_linker_2
_symmetry_space_group_name_H-M    P1
_symmetry_Int_Tables_number       1
_symmetry_cell_setting            triclinic
loop_
_symmetry_equiv_pos_as_xyz
'x, y, z'
_cell_length_a     110.643
_cell_length_b     110.63194
_cell_length_c     24.271596
_cell_angle_alpha  89.999061
_cell_angle_beta   90.019913
_cell_angle_gamma 120.00633
loop_
_atom_site_label
_atom_site_type_symbol
_atom_site_fract_x
_atom_site_fract_y
_atom_site_fract_z
_atom_type_partial_charge
O0 O 0.23944 0.03182 0.18105 0.0
Cd1 Cd 0.25312 0.03955 0.24603 0.0
Cd2 Cd 0.25615 0.06543 0.19752 0.0
O3 O 0.24228 0.05102 0.14138 0.0
O4 O 0.24978 0.02146 0.27751 0.0
O5 O 0.24605 0.03632 0.32484 0.0
C6 C 0.24555 0.02443 0.3221 0.0
C7 C 0.25245 0.08395 0.22082 0.0
C8 C 0.23662 0.0378 0.14264 0.0
C9 C 0.28185 0.06229 0.20823 0.0
O10 O 0.27671 0.06995 0.19542 0.0
O11 O 0.27422 0.05012 0.22804 0.0
O12 O 0.25722 0.08318 0.17338 0.0
O13 O 0.24973 0.07411 0.25582 0.0
O14 O 0.96999 0.22039 0.19087 0.0
Cd15 Cd 0.95772 0.21849 0.25835 0.0
Cd16 Cd 0.94073 0.19415 0.20691 0.0
O17 O 0.9591 0.198 0.16966 0.0
O18 O 0.9705 0.23166 0.3158 0.0
O19 O 0.95952 0.20868 0.32499 0.0
C20 C 0.96829 0.22089 0.34422 0.0
C21 C 0.92388 0.1712 0.23092 0.0
C22 C 0.96931 0.2103 0.16324 0.0
C23 C 0.93349 0.21715 0.20409 0.0
O24 O 0.93257 0.20642 0.18082 0.0
O25 O 0.94184 0.22287 0.24418 0.0
O26 O 0.92652 0.17519 0.18035 0.0
O27 O 0.93119 0.18018 0.26852 0.0
O28 O 0.78902 0.75915 0.17467 0.0
Cd29 Cd 0.78947 0.74956 0.24755 0.0
Cd30 Cd 0.8113 0.74748 0.18142 0.0
O31 O 0.80744 0.76045 0.13325 0.0
O32 O 0.77654 0.75203 0.29791 0.0
O33 O 0.79925 0.76214 0.31263 0.0
C34 C 0.7872 0.76018 0.32757 0.0
C35 C 0.83374 0.7502 0.17141 0.0
C36 C 0.79762 0.76325 0.13473 0.0
C37 C 0.78512 0.72101 0.21778 0.0
O38 O 0.79579 0.72691 0.18687 0.0
O39 O 0.78165 0.72811 0.24841 0.0
O40 O 0.82467 0.74553 0.13246 0.0
O41 O 0.83024 0.75359 0.21705 0.0
O42 O 0.03191 0.25211 0.82145 0.0
Cd43 Cd 0.04225 0.26178 0.75021 0.0
Cd44 Cd 0.0633 0.25565 0.79833 0.0
O45 O 0.04545 0.24351 0.84496 0.0
O46 O 0.02816 0.26101 0.69644 0.0
O47 O 0.03955 0.24947 0.68492 0.0
C48 C 0.03024 0.25239 0.66776 0.0
C49 C 0.07986 0.24813 0.8023 0.0
C50 C 0.03452 0.24438 0.85205 0.0
C51 C 0.06962 0.28613 0.78182 0.0
O52 O 0.07276 0.27726 0.80003 0.0
O53 O 0.05805 0.28222 0.75764 0.0
O54 O 0.07673 0.25299 0.84455 0.0
O55 O 0.07352 0.24733 0.75668 0.0
O56 O 0.75931 0.79324 0.79883 0.0
Cd57 Cd 0.74795 0.79448 0.7333 0.0
Cd58 Cd 0.74618 0.81259 0.81427 0.0
O59 O 0.75925 0.80819 0.85934 0.0
O60 O 0.74921 0.78171 0.67806 0.0
O61 O 0.75905 0.80443 0.66498 0.0
C62 C 0.75679 0.79243 0.64779 0.0
C63 C 0.75129 0.83553 0.79832 0.0
C64 C 0.763 0.79951 0.84497 0.0
C65 C 0.71945 0.78786 0.77755 0.0
O66 O 0.72548 0.79745 0.81319 0.0
O67 O 0.72643 0.78591 0.74043 0.0
O68 O 0.74691 0.82962 0.84565 0.0
O69 O 0.75319 0.8285 0.76011 0.0
O70 O 0.20901 0.97308 0.80867 0.0
Cd71 Cd 0.21348 0.96155 0.75461 0.0
Cd72 Cd 0.19315 0.93986 0.82017 0.0
O73 O 0.19541 0.95655 0.86713 0.0
O74 O 0.2259 0.97633 0.70146 0.0
O75 O 0.20591 0.95794 0.67693 0.0
C76 C 0.21687 0.96955 0.6636 0.0
C77 C 0.17052 0.922 0.79915 0.0
C78 C 0.20202 0.96933 0.85304 0.0
C79 C 0.22106 0.94158 0.8094 0.0
O80 O 0.20849 0.93445 0.82567 0.0
O81 O 0.22517 0.95287 0.78266 0.0
O82 O 0.1758 0.92329 0.84763 0.0
O83 O 0.17812 0.93101 0.76211 0.0
O84 O 0.75495 0.9742 0.83384 0.0
Cd85 Cd 0.74476 0.96487 0.76188 0.0
Cd86 Cd 0.74399 0.94116 0.8137 0.0
O87 O 0.75723 0.95686 0.86757 0.0
O88 O 0.74767 0.9805 0.71191 0.0
O89 O 0.75621 0.96661 0.69438 0.0
C90 C 0.75492 0.97718 0.68038 0.0
C91 C 0.74897 0.92317 0.79618 0.0
C92 C 0.7596 0.96934 0.87031 0.0
C93 C 0.71664 0.94097 0.79325 0.0
O94 O 0.72288 0.93504 0.81428 0.0
O95 O 0.72344 0.95254 0.76811 0.0
O96 O 0.74401 0.92425 0.84271 0.0
O97 O 0.75131 0.93247 0.75912 0.0
O98 O 0.03461 0.7844 0.80143 0.0
Cd99 Cd 0.04829 0.7863 0.74016 0.0
Cd100 Cd 0.06619 0.80991 0.80466 0.0
O101 O 0.04807 0.80353 0.84947 0.0
O102 O 0.03626 0.77391 0.67971 0.0
O103 O 0.04818 0.79696 0.67316 0.0
C104 C 0.03934 0.78503 0.65203 0.0
C105 C 0.08191 0.8337 0.79025 0.0
C106 C 0.03636 0.79257 0.84125 0.0
C107 C 0.07354 0.78702 0.78854 0.0
O108 O 0.07604 0.79841 0.81103 0.0
O109 O 0.06307 0.78045 0.7569 0.0
O110 O 0.0802 0.82803 0.8381 0.0
O111 O 0.07409 0.82597 0.7505 0.0
O112 O 0.2178 0.24897 0.81975 0.0
Cd113 Cd 0.21715 0.26034 0.75308 0.0
Cd114 Cd 0.19087 0.25265 0.81094 0.0
O115 O 0.19552 0.23819 0.84342 0.0
O116 O 0.2344 0.26474 0.71072 0.0
O117 O 0.21329 0.25155 0.67661 0.0
C118 C 0.22663 0.25728 0.67066 0.0
C119 C 0.167 0.24611 0.811 0.0
C120 C 0.20768 0.23981 0.84804 0.0
C121 C 0.2147 0.28287 0.81009 0.0
O122 O 0.20388 0.27326 0.83361 0.0
O123 O 0.22046 0.28009 0.77059 0.0
O124 O 0.17398 0.2481 0.85566 0.0
O125 O 0.17347 0.24763 0.76507 0.0
O126 O 0.97358 0.75519 0.17866 0.0
Cd127 Cd 0.96442 0.74466 0.25032 0.0
Cd128 Cd 0.93865 0.74084 0.19158 0.0
O129 O 0.95464 0.75257 0.13688 0.0
O130 O 0.98052 0.74769 0.29746 0.0
O131 O 0.96665 0.75602 0.31875 0.0
C132 C 0.97739 0.75482 0.33047 0.0
C133 C 0.91939 0.74427 0.18033 0.0
C134 C 0.96773 0.75723 0.13749 0.0
C135 C 0.9405 0.71525 0.22593 0.0
O136 O 0.93351 0.72034 0.20468 0.0
O137 O 0.95259 0.72313 0.24594 0.0
O138 O 0.92277 0.73804 0.14405 0.0
O139 O 0.92681 0.74848 0.22462 0.0
O140 O 0.25024 0.21968 0.18954 0.0
Cd141 Cd 0.26192 0.22015 0.25741 0.0
Cd142 Cd 0.25506 0.19428 0.20751 0.0
O143 O 0.24009 0.19722 0.16934 0.0
O144 O 0.26521 0.23715 0.29901 0.0
O145 O 0.25291 0.21593 0.33337 0.0
C146 C 0.25793 0.2292 0.33899 0.0
C147 C 0.25006 0.17143 0.22766 0.0
C148 C 0.24133 0.20917 0.16213 0.0
C149 C 0.28488 0.21825 0.20301 0.0
O150 O 0.27532 0.20711 0.18127 0.0
O151 O 0.28206 0.22428 0.2413 0.0
O152 O 0.25148 0.17595 0.17791 0.0
O153 O 0.25094 0.17975 0.26676 0.0
O154 O 0.78673 0.03598 0.20335 0.0
Cd155 Cd 0.78954 0.04884 0.26981 0.0
Cd156 Cd 0.81315 0.06492 0.21409 0.0
O157 O 0.80896 0.04605 0.1803 0.0
O158 O 0.77652 0.03659 0.32858 0.0
O159 O 0.79952 0.04695 0.33572 0.0
C160 C 0.78734 0.03855 0.35606 0.0
C161 C 0.83612 0.08205 0.23587 0.0
C162 C 0.7965 0.03602 0.17563 0.0
C163 C 0.79047 0.07253 0.21326 0.0
O164 O 0.80065 0.07283 0.18773 0.0
O165 O 0.7854 0.06486 0.2556 0.0
O166 O 0.83196 0.07892 0.18563 0.0
O167 O 0.82734 0.07502 0.27441 0.0
O168 O 0.91265 0.36571 0.50044 0.0
Cd169 Cd 0.92389 0.37453 0.57115 0.0
Cd170 Cd 0.92728 0.39929 0.51968 0.0
O171 O 0.9149 0.38473 0.46093 0.0
O172 O 0.92015 0.35829 0.61887 0.0
O173 O 0.91328 0.37332 0.64066 0.0
C174 C 0.91371 0.36216 0.6524 0.0
C175 C 0.92297 0.4176 0.53982 0.0
C176 C 0.91024 0.37163 0.4605 0.0
C177 C 0.95315 0.3972 0.54138 0.0
O178 O 0.94794 0.40435 0.52283 0.0
O179 O 0.9454 0.3853 0.56313 0.0
O180 O 0.92843 0.41698 0.49381 0.0
O181 O 0.9197 0.40761 0.57472 0.0
O182 O 0.63882 0.55174 0.52678 0.0
Cd183 Cd 0.62823 0.54971 0.59985 0.0
Cd184 Cd 0.60777 0.52636 0.54079 0.0
O185 O 0.62512 0.53037 0.49529 0.0
O186 O 0.64258 0.56341 0.65207 0.0
O187 O 0.63217 0.54058 0.66418 0.0
C188 C 0.6412 0.55298 0.68068 0.0
C189 C 0.59077 0.50292 0.55644 0.0
C190 C 0.63632 0.54208 0.49242 0.0
C191 C 0.60266 0.55019 0.56404 0.0
O192 O 0.6001 0.53997 0.53278 0.0
O193 O 0.61245 0.55459 0.59933 0.0
O194 O 0.59252 0.50865 0.50871 0.0
O195 O 0.59892 0.51047 0.5958 0.0
O196 O 0.4546 0.08692 0.53254 0.0
Cd197 Cd 0.45806 0.07884 0.60399 0.0
Cd198 Cd 0.47981 0.08166 0.53954 0.0
O199 O 0.47581 0.09561 0.49812 0.0
O200 O 0.44472 0.07907 0.65884 0.0
O201 O 0.46762 0.0922 0.66708 0.0
C202 C 0.45531 0.08843 0.68582 0.0
C203 C 0.50279 0.08736 0.55952 0.0
C204 C 0.46387 0.09462 0.49778 0.0
C205 C 0.45692 0.05285 0.56508 0.0
O206 O 0.46602 0.06046 0.52967 0.0
O207 O 0.45364 0.05835 0.60393 0.0
O208 O 0.49785 0.08438 0.51016 0.0
O209 O 0.49479 0.08762 0.59774 0.0
O210 O 0.7017 0.58554 0.15733 0.0
Cd211 Cd 0.71369 0.59592 0.08916 0.0
Cd212 Cd 0.73203 0.59098 0.1455 0.0
O213 O 0.71402 0.57578 0.18255 0.0
O214 O 0.70035 0.5951 0.03151 0.0
O215 O 0.71245 0.5842 0.02346 0.0
C216 C 0.70316 0.58686 0.00378 0.0
C217 C 0.75018 0.58639 0.12663 0.0
C218 C 0.70316 0.57686 0.1869 0.0
C219 C 0.73678 0.62037 0.14177 0.0
O220 O 0.73847 0.61139 0.16801 0.0
O221 O 0.72852 0.61671 0.10082 0.0
O222 O 0.74718 0.58815 0.17614 0.0
O223 O 0.74257 0.58684 0.0872 0.0
O224 O 0.42071 0.11632 0.1643 0.0
Cd225 Cd 0.41072 0.11637 0.09302 0.0
Cd226 Cd 0.40959 0.13824 0.14869 0.0
O227 O 0.42302 0.13566 0.20112 0.0
O228 O 0.41387 0.10433 0.04043 0.0
O229 O 0.42233 0.12691 0.02696 0.0
C230 C 0.42115 0.11525 0.01065 0.0
C231 C 0.41472 0.16116 0.12965 0.0
C232 C 0.42538 0.12553 0.20191 0.0
C233 C 0.38239 0.11136 0.12532 0.0
O234 O 0.38847 0.12319 0.14919 0.0
O235 O 0.38938 0.10713 0.09811 0.0
O236 O 0.4099 0.15537 0.17674 0.0
O237 O 0.41684 0.15395 0.09297 0.0
O238 O 0.88194 0.30365 0.12356 0.0
Cd239 Cd 0.8792 0.28991 0.06024 0.0
Cd240 Cd 0.86045 0.27175 0.14113 0.0
O241 O 0.86555 0.28989 0.18246 0.0
O242 O 0.89187 0.30271 0.00186 0.0
O243 O 0.86892 0.29115 0.99338 0.0
C244 C 0.88098 0.30008 0.97364 0.0
C245 C 0.83723 0.2547 0.12528 0.0
C246 C 0.87522 0.30192 0.16813 0.0
C247 C 0.8837 0.26704 0.10807 0.0
O248 O 0.87459 0.26488 0.14443 0.0
O249 O 0.88606 0.27555 0.0687 0.0
O250 O 0.84285 0.25646 0.17335 0.0
O251 O 0.84472 0.263 0.08614 0.0
O252 O 0.42501 0.30204 0.12384 0.0
Cd253 Cd 0.41199 0.29008 0.05974 0.0
Cd254 Cd 0.41204 0.26899 0.13933 0.0
O255 O 0.42544 0.28677 0.18188 0.0
O256 O 0.40953 0.30433 0.01836 0.0
O257 O 0.4203 0.294 0.98228 0.0
C258 C 0.41592 0.30279 0.97718 0.0
C259 C 0.4173 0.2512 0.12445 0.0
C260 C 0.42924 0.29926 0.16829 0.0
C261 C 0.3846 0.26622 0.10934 0.0
O262 O 0.39123 0.26282 0.14263 0.0
O263 O 0.39095 0.27559 0.07293 0.0
O264 O 0.41345 0.2532 0.17213 0.0
O265 O 0.41863 0.25968 0.08517 0.0
O266 O 0.70097 0.11742 0.16261 0.0
Cd267 Cd 0.71124 0.11941 0.08869 0.0
Cd268 Cd 0.73198 0.14253 0.14663 0.0
O269 O 0.71495 0.13877 0.19367 0.0
O270 O 0.69666 0.10585 0.03691 0.0
O271 O 0.70722 0.12871 0.02528 0.0
C272 C 0.69808 0.11635 0.00874 0.0
C273 C 0.74903 0.16574 0.12827 0.0
C274 C 0.70369 0.12712 0.19708 0.0
C275 C 0.73692 0.11876 0.1214 0.0
O276 O 0.73961 0.12889 0.15338 0.0
O277 O 0.72696 0.11444 0.08693 0.0
O278 O 0.74758 0.16032 0.17648 0.0
O279 O 0.74048 0.15805 0.09016 0.0
O280 O 0.87761 0.57208 0.17323 0.0
Cd281 Cd 0.88372 0.58599 0.10902 0.0
Cd282 Cd 0.86067 0.58881 0.15846 0.0
O283 O 0.86105 0.57458 0.21311 0.0
O284 O 0.89855 0.58277 0.07761 0.0
O285 O 0.88013 0.57927 0.02966 0.0
C286 C 0.89151 0.57876 0.03259 0.0
C287 C 0.83864 0.5857 0.13553 0.0
C288 C 0.8687 0.56902 0.21141 0.0
C289 C 0.88969 0.6145 0.14946 0.0
O290 O 0.87689 0.60927 0.16223 0.0
O291 O 0.89426 0.607 0.12852 0.0
O292 O 0.84414 0.59009 0.18335 0.0
O293 O 0.84563 0.58295 0.10011 0.0
O294 O 0.63789 0.08442 0.53202 0.0
Cd295 Cd 0.62569 0.07432 0.60013 0.0
Cd296 Cd 0.60786 0.07982 0.54387 0.0
O297 O 0.62605 0.09468 0.50671 0.0
O298 O 0.63878 0.07487 0.65824 0.0
O299 O 0.62712 0.08624 0.66538 0.0
C300 C 0.63618 0.08332 0.68553 0.0
C301 C 0.59034 0.08525 0.56375 0.0
C302 C 0.63672 0.09326 0.5024 0.0
C303 C 0.60225 0.05013 0.54805 0.0
O304 O 0.60085 0.05927 0.52159 0.0
O305 O 0.61051 0.05365 0.58891 0.0
O306 O 0.59308 0.08335 0.51402 0.0
O307 O 0.59781 0.0844 0.6028 0.0
O308 O 0.90792 0.54385 0.54395 0.0
Cd309 Cd 0.92399 0.54897 0.59849 0.0
Cd310 Cd 0.92612 0.52873 0.5321 0.0
O311 O 0.91113 0.53029 0.48615 0.0
O312 O 0.92098 0.56094 0.65184 0.0
O313 O 0.92015 0.54127 0.67594 0.0
C314 C 0.91902 0.55195 0.68951 0.0
C315 C 0.92274 0.50636 0.54908 0.0
C316 C 0.90471 0.53666 0.50006 0.0
C317 C 0.95173 0.5574 0.54412 0.0
O318 O 0.94656 0.54488 0.5275 0.0
O319 O 0.94436 0.56123 0.5711 0.0
O320 O 0.92663 0.51223 0.50152 0.0
O321 O 0.92062 0.51317 0.58749 0.0
O322 O 0.45543 0.36441 0.49649 0.0
Cd323 Cd 0.45306 0.37461 0.56324 0.0
Cd324 Cd 0.48064 0.3965 0.52185 0.0
O325 O 0.47638 0.38045 0.46734 0.0
O326 O 0.43608 0.36009 0.60217 0.0
O327 O 0.45706 0.37008 0.63981 0.0
C328 C 0.44387 0.36121 0.64349 0.0
C329 C 0.50411 0.4128 0.54216 0.0
C330 C 0.46555 0.36843 0.46291 0.0
C331 C 0.45622 0.40219 0.52689 0.0
O332 O 0.46883 0.40604 0.51524 0.0
O333 O 0.44821 0.39017 0.54716 0.0
O334 O 0.49888 0.41185 0.49396 0.0
O335 O 0.49617 0.40398 0.57899 0.0
O336 O 0.58601 0.6969 0.84729 0.0
Cd337 Cd 0.59598 0.70856 0.91664 0.0
Cd338 Cd 0.58951 0.72703 0.85871 0.0
O339 O 0.57471 0.70804 0.82688 0.0
O340 O 0.59604 0.69517 0.9722 0.0
O341 O 0.58404 0.70608 0.9831 0.0
C342 C 0.58736 0.69712 0.001 0.0
C343 C 0.58432 0.74525 0.85016 0.0
C344 C 0.57667 0.69777 0.81992 0.0
C345 C 0.6195 0.7326 0.86437 0.0
O346 O 0.61009 0.73373 0.8388 0.0
O347 O 0.6164 0.72438 0.90522 0.0
O348 O 0.58638 0.73943 0.80828 0.0
O349 O 0.58487 0.74057 0.8982 0.0
O350 O 0.30768 0.88999 0.85273 0.0
Cd351 Cd 0.2984 0.8904 0.92549 0.0
Cd352 Cd 0.27459 0.86764 0.87312 0.0
O353 O 0.29019 0.87066 0.81777 0.0
O354 O 0.31409 0.90323 0.97492 0.0
O355 O 0.30057 0.88073 0.99225 0.0
C356 C 0.31104 0.89267 0.00615 0.0
C357 C 0.25721 0.8443 0.88883 0.0
C358 C 0.3027 0.88074 0.8153 0.0
C359 C 0.27412 0.89446 0.89755 0.0
O360 O 0.26812 0.88238 0.87566 0.0
O361 O 0.28584 0.89916 0.92157 0.0
O362 O 0.25788 0.85064 0.84347 0.0
O363 O 0.26648 0.85123 0.92604 0.0
O364 O 0.12223 0.42559 0.83784 0.0
Cd365 Cd 0.11989 0.41204 0.90047 0.0
Cd366 Cd 0.14709 0.41657 0.85092 0.0
O367 O 0.14255 0.4296 0.80504 0.0
O368 O 0.10665 0.41306 0.95382 0.0
O369 O 0.12856 0.41947 0.97451 0.0
C370 C 0.1167 0.41809 0.9892 0.0
C371 C 0.1706 0.42216 0.84329 0.0
C372 C 0.13227 0.43172 0.80405 0.0
C373 C 0.12093 0.38689 0.86177 0.0
O374 O 0.13368 0.39523 0.85021 0.0
O375 O 0.11321 0.39138 0.88112 0.0
O376 O 0.1621 0.41754 0.80247 0.0
O377 O 0.1659 0.42382 0.8896 0.0
O378 O 0.36965 0.92094 0.48303 0.0
Cd379 Cd 0.3826 0.93076 0.41651 0.0
Cd380 Cd 0.39814 0.92243 0.47071 0.0
O381 O 0.37912 0.90813 0.50444 0.0
O382 O 0.3706 0.93153 0.35669 0.0
O383 O 0.3807 0.91859 0.35174 0.0
C384 C 0.37247 0.92247 0.3303 0.0
C385 C 0.41495 0.91607 0.45086 0.0
C386 C 0.36937 0.91094 0.50991 0.0
C387 C 0.4068 0.95303 0.472 0.0
O388 O 0.40674 0.94291 0.49703 0.0
O389 O 0.39902 0.95073 0.43023 0.0
O390 O 0.4117 0.91725 0.50071 0.0
O391 O 0.40813 0.91786 0.41154 0.0
O392 O 0.09641 0.45995 0.46832 0.0
Cd393 Cd 0.0818 0.45399 0.40631 0.0
Cd394 Cd 0.07819 0.47611 0.47577 0.0
O395 O 0.09208 0.47329 0.5235 0.0
O396 O 0.08491 0.43922 0.37318 0.0
O397 O 0.0881 0.45763 0.32611 0.0
C398 C 0.08874 0.4463 0.32828 0.0
C399 C 0.07978 0.49807 0.48678 0.0
C400 C 0.09867 0.46692 0.51242 0.0
C401 C 0.05306 0.44721 0.45054 0.0
O402 O 0.05812 0.45959 0.46874 0.0
O403 O 0.06073 0.44318 0.42694 0.0
O404 O 0.07518 0.4888 0.52502 0.0
O405 O 0.08355 0.49497 0.44109 0.0
O406 O 0.55609 0.63536 0.4757 0.0
Cd407 Cd 0.55407 0.62333 0.40728 0.0
Cd408 Cd 0.52857 0.60583 0.45982 0.0
O409 O 0.53351 0.62497 0.49277 0.0
O410 O 0.56727 0.63619 0.34994 0.0
O411 O 0.54428 0.62557 0.34151 0.0
C412 C 0.5565 0.63429 0.32221 0.0
C413 C 0.5045 0.5892 0.46047 0.0
C414 C 0.54585 0.6349 0.50131 0.0
C415 C 0.55183 0.59851 0.46002 0.0
O416 O 0.54107 0.59764 0.48278 0.0
O417 O 0.55786 0.60703 0.42064 0.0
O418 O 0.51162 0.59397 0.50494 0.0
O419 O 0.51097 0.59386 0.41434 0.0
O420 O 0.09501 0.64122 0.45643 0.0
Cd421 Cd 0.07953 0.62996 0.39985 0.0
Cd422 Cd 0.07749 0.60704 0.47389 0.0
O423 O 0.09207 0.62476 0.51566 0.0
O424 O 0.08236 0.64501 0.34699 0.0
O425 O 0.08422 0.62676 0.32269 0.0
C426 C 0.08495 0.63841 0.30944 0.0
C427 C 0.07975 0.58711 0.4861 0.0
C428 C 0.09816 0.63751 0.50115 0.0
C429 C 0.05156 0.60954 0.45097 0.0
O430 O 0.05706 0.60274 0.47044 0.0
O431 O 0.05879 0.6208 0.42416 0.0
O432 O 0.07572 0.59215 0.52505 0.0
O433 O 0.08267 0.59344 0.43919 0.0
O434 O 0.36889 0.45088 0.49354 0.0
Cd435 Cd 0.37908 0.45137 0.42196 0.0
Cd436 Cd 0.40113 0.47725 0.47046 0.0
O437 O 0.38522 0.47104 0.52764 0.0
O438 O 0.36446 0.43827 0.36946 0.0
O439 O 0.37651 0.46115 0.35688 0.0
C440 C 0.36677 0.44902 0.3406 0.0
C441 C 0.41699 0.50143 0.46777 0.0
C442 C 0.37326 0.46013 0.53105 0.0
C443 C 0.40658 0.45316 0.44641 0.0
O444 O 0.41073 0.46546 0.46383 0.0
O445 O 0.39431 0.44568 0.42728 0.0
O446 O 0.41573 0.49398 0.51027 0.0
O447 O 0.40914 0.49527 0.4258 0.0
O448 O 0.54656 0.90906 0.48957 0.0
Cd449 Cd 0.54853 0.92166 0.42312 0.0
Cd450 Cd 0.52699 0.92288 0.48235 0.0
O451 O 0.52883 0.90882 0.53214 0.0
O452 O 0.56075 0.91854 0.37134 0.0
O453 O 0.53917 0.91328 0.35074 0.0
C454 C 0.55059 0.9136 0.33657 0.0
C455 C 0.50445 0.91814 0.4594 0.0
C456 C 0.53777 0.90485 0.52876 0.0
C457 C 0.55383 0.94988 0.46301 0.0
O458 O 0.54217 0.94369 0.48788 0.0
O459 O 0.55791 0.9431 0.43349 0.0
O460 O 0.50956 0.92221 0.50803 0.0
O461 O 0.51216 0.91662 0.42324 0.0
O462 O 0.30567 0.42022 0.87412 0.0
Cd463 Cd 0.29197 0.41031 0.93874 0.0
Cd464 Cd 0.27341 0.41106 0.85269 0.0
O465 O 0.29215 0.42255 0.81285 0.0
O466 O 0.30466 0.4101 0.99703 0.0
O467 O 0.29423 0.4226 0.00431 0.0
C468 C 0.30279 0.419 0.02431 0.0
C469 C 0.25675 0.41814 0.84337 0.0
C470 C 0.30403 0.42465 0.82795 0.0
C471 C 0.26763 0.38309 0.89497 0.0
O472 O 0.26558 0.3899 0.85766 0.0
O473 O 0.27665 0.3893 0.93275 0.0
O474 O 0.26013 0.41293 0.80285 0.0
O475 O 0.26294 0.41953 0.88998 0.0
O476 O 0.57288 0.87382 0.86037 0.0
Cd477 Cd 0.58736 0.87897 0.92219 0.0
Cd478 Cd 0.59123 0.85833 0.85002 0.0
O479 O 0.5778 0.86167 0.80138 0.0
O480 O 0.58413 0.89342 0.95746 0.0
O481 O 0.58063 0.87452 0.00166 0.0
C482 C 0.57996 0.88583 0.00102 0.0
C483 C 0.58777 0.83559 0.84441 0.0
C484 C 0.57096 0.86764 0.81448 0.0
C485 C 0.61638 0.88655 0.87775 0.0
O486 O 0.61156 0.87441 0.85731 0.0
O487 O 0.60848 0.8901 0.90256 0.0
O488 O 0.59291 0.8443 0.80425 0.0
O489 O 0.58476 0.83981 0.8892 0.0
O490 O 0.12703 0.70129 0.828 0.0
Cd491 Cd 0.12278 0.70976 0.89557 0.0
Cd492 Cd 0.15029 0.7337 0.85432 0.0
O493 O 0.14723 0.7184 0.7975 0.0
O494 O 0.10664 0.6928 0.92819 0.0
O495 O 0.1266 0.7054 0.97244 0.0
C496 C 0.11422 0.6946 0.97108 0.0
C497 C 0.17333 0.75149 0.87293 0.0
C498 C 0.13704 0.70598 0.79373 0.0
C499 C 0.12391 0.73662 0.86599 0.0
O500 O 0.13673 0.74137 0.85476 0.0
O501 O 0.11624 0.72413 0.88253 0.0
O502 O 0.16747 0.75045 0.82605 0.0
O503 O 0.16634 0.74198 0.90919 0.0
H504 H 0.2312 0.9969 0.63275 0.0
H505 H 0.20744 0.9549 0.56724 0.0
H506 H 0.21211 0.96447 0.47238 0.0
H507 H 0.21883 0.01269 0.5326 0.0
H508 H 0.23529 0.02879 0.52952 0.0
H509 H 0.23018 0.01858 0.59186 0.0
H510 H 0.25318 0.01777 0.58999 0.0
H511 H 0.25834 0.02793 0.52759 0.0
H512 H 0.25752 0.01125 0.52956 0.0
H513 H 0.22091 0.97857 0.38521 0.0
H514 H 0.23093 0.99627 0.31137 0.0
H515 H 0.24712 0.02925 0.43377 0.0
C516 C 0.22698 0.98972 0.59837 0.0
C517 C 0.21907 0.97515 0.60703 0.0
C518 C 0.21353 0.96609 0.56128 0.0
C519 C 0.21616 0.97143 0.5074 0.0
C520 C 0.22409 0.98586 0.50026 0.0
C521 C 0.22922 0.9949 0.54452 0.0
C522 C 0.2371 0.00998 0.52571 0.0
C523 C 0.22992 0.01798 0.54613 0.0
C524 C 0.25244 0.01715 0.54432 0.0
C525 C 0.23583 0.00803 0.46382 0.0
C526 C 0.22842 0.99403 0.45005 0.0
C527 C 0.22654 0.98957 0.39549 0.0
C528 C 0.23233 0.99968 0.35391 0.0
C529 C 0.23967 0.01408 0.36702 0.0
C530 C 0.24136 0.0183 0.42269 0.0
H531 H 0.01729 0.26225 0.59986 0.0
H532 H 0.02354 0.22694 0.62489 0.0
H533 H 0.00753 0.21457 0.54734 0.0
H534 H 0.98124 0.2433 0.56251 0.0
H535 H 0.98267 0.25546 0.50996 0.0
H536 H 0.99443 0.26146 0.56785 0.0
H537 H 0.01564 0.27161 0.50163 0.0
H538 H 0.00394 0.26578 0.44354 0.0
H539 H 0.01682 0.26044 0.45041 0.0
H540 H 0.98969 0.20555 0.47016 0.0
H541 H 0.97413 0.20189 0.39095 0.0
H542 H 0.98099 0.24381 0.41184 0.0
C543 C 0.01532 0.25194 0.58884 0.0
C544 C 0.02159 0.24551 0.6185 0.0
C545 C 0.01888 0.23207 0.60254 0.0
C546 C 0.00973 0.22493 0.55881 0.0
C547 C 0.00356 0.23148 0.53085 0.0
C548 C 0.00646 0.2448 0.54453 0.0
C549 C 0.99896 0.24975 0.5064 0.0
C550 C 0.98872 0.25266 0.53862 0.0
C551 C 0.00947 0.26266 0.47354 0.0
C552 C 0.99128 0.23709 0.46943 0.0
C553 C 0.9939 0.22659 0.48472 0.0
C554 C 0.98767 0.21376 0.45754 0.0
C555 C 0.97877 0.21174 0.41283 0.0
C556 C 0.97638 0.22257 0.39515 0.0
C557 C 0.98267 0.23535 0.42425 0.0
H558 H 0.76442 0.75081 0.39448 0.0
H559 H 0.80616 0.78577 0.36932 0.0
H560 H 0.80254 0.7985 0.44576 0.0
H561 H 0.74749 0.77004 0.42968 0.0
H562 H 0.73667 0.758 0.48235 0.0
H563 H 0.74243 0.75185 0.42498 0.0
H564 H 0.75332 0.74171 0.49211 0.0
H565 H 0.74745 0.74767 0.54967 0.0
H566 H 0.76565 0.75291 0.54333 0.0
H567 H 0.7936 0.80784 0.52221 0.0
H568 H 0.78162 0.81158 0.60112 0.0
H569 H 0.74663 0.76965 0.58047 0.0
C570 C 0.77281 0.76114 0.40518 0.0
C571 C 0.78554 0.76738 0.37588 0.0
C572 C 0.79634 0.78081 0.39145 0.0
C573 C 0.79434 0.78814 0.4345 0.0
C574 C 0.78156 0.78176 0.46214 0.0
C575 C 0.7711 0.76843 0.44878 0.0
C576 C 0.75863 0.76359 0.48656 0.0
C577 C 0.74553 0.76071 0.45393 0.0
C578 C 0.75612 0.75071 0.5199 0.0
C579 C 0.76364 0.77631 0.52307 0.0
C580 C 0.77679 0.78678 0.50782 0.0
C581 C 0.78336 0.79966 0.53477 0.0
C582 C 0.77645 0.80173 0.57924 0.0
C583 C 0.76324 0.79089 0.59689 0.0
C584 C 0.75676 0.77809 0.56801 0.0
H585 H 0.74636 0.99184 0.61647 0.0
H586 H 0.77928 0.98167 0.63321 0.0
H587 H 0.79186 0.99731 0.55484 0.0
H588 H 0.74653 0.99212 0.46731 0.0
H589 H 0.74268 0.00611 0.4627 0.0
H590 H 0.73665 0.99449 0.521 0.0
H591 H 0.74908 0.01571 0.58671 0.0
H592 H 0.75529 0.02738 0.52856 0.0
H593 H 0.76751 0.02772 0.57853 0.0
H594 H 0.8014 0.01517 0.47748 0.0
H595 H 0.80543 0.03093 0.39853 0.0
H596 H 0.76529 0.02777 0.42786 0.0
C597 C 0.75621 0.9929 0.60353 0.0
C598 C 0.76192 0.98565 0.63102 0.0
C599 C 0.77473 0.98712 0.61253 0.0
C600 C 0.78198 0.99605 0.56835 0.0
C601 C 0.77614 0.0032 0.54254 0.0
C602 C 0.7634 1.00149 0.55875 0.0
C603 C 0.75903 0.00978 0.5224 0.0
C604 C 0.74542 1.00004 0.49152 0.0
C605 C 0.75765 0.0208 0.55608 0.0
C606 C 0.77135 0.01653 0.48341 0.0
C607 C 0.78123 0.01281 0.49625 0.0
C608 C 0.79368 0.01806 0.4668 0.0
C609 C 0.79593 0.02707 0.42229 0.0
C610 C 0.78567 0.03053 0.40706 0.0
C611 C 0.77329 0.02526 0.43844 0.0
H612 H 0.02826 0.76336 0.57877 0.0
H613 H 0.03311 0.80416 0.60975 0.0
H614 H 0.01755 0.8009 0.53089 0.0
H615 H 0.02808 0.76586 0.42759 0.0
H616 H 0.01561 0.74755 0.41973 0.0
H617 H 0.02748 0.75346 0.47729 0.0
H618 H 0.00649 0.74146 0.54422 0.0
H619 H 0.99454 0.7357 0.48697 0.0
H620 H 0.9929 0.74592 0.5412 0.0
H621 H 0.99931 0.79187 0.45479 0.0
H622 H 0.98296 0.77953 0.37784 0.0
H623 H 0.99178 0.74563 0.39222 0.0
C624 C 0.02622 0.7717 0.56835 0.0
C625 C 0.03186 0.78401 0.60025 0.0
C626 C 0.02898 0.7947 0.58545 0.0
C627 C 0.02008 0.79289 0.54103 0.0
C628 C 0.01439 0.78046 0.51123 0.0
C629 C 0.01764 0.7702 0.52345 0.0
C630 C 0.01035 0.7579 0.4846 0.0
C631 C 0.02102 0.75609 0.45026 0.0
C632 C 1.00048 0.74446 0.51615 0.0
C633 C 1.00227 0.76271 0.44926 0.0
C634 C 0.00458 0.77565 0.46567 0.0
C635 C 0.99761 0.78184 0.44102 0.0
C636 C 0.98828 0.77472 0.39771 0.0
C637 C 0.98623 0.76171 0.37901 0.0
C638 C 0.99329 0.75565 0.40534 0.0
H639 H 0.23535 0.21744 0.40991 0.0
H640 H 0.27506 0.25503 0.38056 0.0
H641 H 0.27122 0.26611 0.46169 0.0
H642 H 0.21705 0.23541 0.44983 0.0
H643 H 0.20655 0.22286 0.50169 0.0
H644 H 0.21262 0.21743 0.44299 0.0
H645 H 0.22414 0.20752 0.50792 0.0
H646 H 0.21804 0.21285 0.56682 0.0
H647 H 0.23636 0.21869 0.5595 0.0
H648 H 0.26356 0.27299 0.54658 0.0
H649 H 0.25189 0.27581 0.6281 0.0
H650 H 0.21614 0.23466 0.59997 0.0
C651 C 0.24328 0.22795 0.42105 0.0
C652 C 0.25558 0.23535 0.38926 0.0
C653 C 0.26559 0.24917 0.40438 0.0
C654 C 0.26351 0.25555 0.45043 0.0
C655 C 0.25124 0.24807 0.48058 0.0
C656 C 0.24122 0.23462 0.46643 0.0
C657 C 0.22872 0.2292 0.50483 0.0
C658 C 0.21545 0.22604 0.47292 0.0
C659 C 0.2267 0.2163 0.53666 0.0
C660 C 0.23336 0.24167 0.54287 0.0
C661 C 0.24646 0.25236 0.52827 0.0
C662 C 0.25325 0.26475 0.55816 0.0
C663 C 0.24655 0.26625 0.60442 0.0
C664 C 0.23307 0.25553 0.62 0.0
C665 C 0.22634 0.24312 0.58844 0.0
H666 H 0.92183 0.34686 0.71412 0.0
H667 H 0.88966 0.35816 0.70085 0.0
H668 H 0.87685 0.34223 0.7783 0.0
H669 H 0.90009 0.31091 0.74971 0.0
H670 H 0.91222 0.31074 0.79885 0.0
H671 H 0.91857 0.32264 0.74145 0.0
H672 H 0.93144 0.34355 0.80835 0.0
H673 H 0.92529 0.33169 0.86588 0.0
H674 H 0.92181 0.34595 0.86301 0.0
H675 H 0.86701 0.32393 0.85441 0.0
H676 H 0.86289 0.30791 0.93264 0.0
H677 H 0.90262 0.3104 0.90059 0.0
C678 C 0.9121 0.34599 0.72765 0.0
C679 C 0.90665 0.35363 0.70145 0.0
C680 C 0.894 0.3524 0.72063 0.0
C681 C 0.88662 0.34331 0.76423 0.0
C682 C 0.89219 0.33575 0.78875 0.0
C683 C 0.90481 0.33726 0.77189 0.0
C684 C 0.90897 0.32862 0.80703 0.0
C685 C 0.91002 0.31757 0.77216 0.0
C686 C 0.92269 0.33802 0.83791 0.0
C687 C 0.89669 0.32193 0.84616 0.0
C688 C 0.88698 0.32595 0.83435 0.0
C689 C 0.8746 0.32081 0.86427 0.0
C690 C 0.87229 0.31164 0.9083 0.0
C691 C 0.88244 0.30797 0.92256 0.0
C692 C 0.8947 0.31308 0.89063 0.0
H693 H 0.65351 0.57608 0.74698 0.0
H694 H 0.64911 0.53518 0.72448 0.0
H695 H 0.66538 0.53979 0.80218 0.0
H696 H 0.68964 0.59464 0.78413 0.0
H697 H 0.68763 0.60522 0.83574 0.0
H698 H 0.67591 0.59882 0.77776 0.0
H699 H 0.65471 0.58727 0.84389 0.0
H700 H 0.66636 0.59375 0.90205 0.0
H701 H 0.65405 0.57534 0.89601 0.0
H702 H 0.6832 0.54954 0.87978 0.0
H703 H 0.69846 0.56218 0.9589 0.0
H704 H 0.68972 0.59591 0.93472 0.0
C705 C 0.65596 0.56809 0.75849 0.0
C706 C 0.65013 0.5553 0.72955 0.0
C707 C 0.65344 0.54503 0.74623 0.0
C708 C 0.66273 0.5476 0.79006 0.0
C709 C 0.66844 0.5604 0.81734 0.0
C710 C 0.66497 0.57036 0.80283 0.0
C711 C 0.67201 0.58299 0.8403 0.0
C712 C 0.68188 0.59619 0.80751 0.0
C713 C 0.66113 0.58494 0.87248 0.0
C714 C 0.68008 0.57864 0.87799 0.0
C715 C 0.67807 0.56567 0.86358 0.0
C716 C 0.68475 0.55965 0.89166 0.0
C717 C 0.69347 0.56694 0.93631 0.0
C718 C 0.69524 0.58 0.95303 0.0
C719 C 0.68851 0.58592 0.92307 0.0
H720 H 0.43313 0.07685 0.75629 0.0
H721 H 0.47259 0.11465 0.72685 0.0
H722 H 0.46792 0.12605 0.80541 0.0
H723 H 0.41328 0.09268 0.7953 0.0
H724 H 0.40369 0.08017 0.84862 0.0
H725 H 0.41013 0.07508 0.79016 0.0
H726 H 0.42333 0.06703 0.85525 0.0
H727 H 0.4168 0.07195 0.91394 0.0
H728 H 0.43532 0.07905 0.90548 0.0
H729 H 0.45794 0.13371 0.88397 0.0
H730 H 0.44514 0.13593 0.96356 0.0
H731 H 0.41323 0.09248 0.94502 0.0
C732 C 0.44082 0.08751 0.76655 0.0
C733 C 0.45319 0.09492 0.73542 0.0
C734 C 0.46307 0.10879 0.75039 0.0
C735 C 0.46046 0.11536 0.79467 0.0
C736 C 0.44804 0.10782 0.82407 0.0
C737 C 0.43852 0.0941 0.81122 0.0
C738 C 0.42621 0.08809 0.85031 0.0
C739 C 0.41252 0.08375 0.81922 0.0
C740 C 0.42537 0.07581 0.8832 0.0
C741 C 0.43019 0.10061 0.8869 0.0
C742 C 0.44271 0.11196 0.87072 0.0
C743 C 0.44821 0.12483 0.89732 0.0
C744 C 0.44084 0.12603 0.94221 0.0
C745 C 0.42826 0.11436 0.96053 0.0
C746 C 0.42289 0.10154 0.9322 0.0
H747 H 0.4558 0.3509 0.71589 0.0
H748 H 0.41773 0.35181 0.68258 0.0
H749 H 0.4066 0.3369 0.76368 0.0
H750 H 0.43839 0.3146 0.75684 0.0
H751 H 0.45088 0.31709 0.80967 0.0
H752 H 0.45626 0.32844 0.7505 0.0
H753 H 0.46553 0.35 0.81453 0.0
H754 H 0.46024 0.33873 0.87389 0.0
H755 H 0.45402 0.35086 0.86494 0.0
H756 H 0.39984 0.32279 0.8495 0.0
H757 H 0.39719 0.3088 0.93252 0.0
H758 H 0.43867 0.31487 0.90727 0.0
C759 C 0.44517 0.34804 0.72612 0.0
C760 C 0.43764 0.35261 0.69334 0.0
C761 C 0.42367 0.34844 0.70722 0.0
C762 C 0.41727 0.33999 0.75323 0.0
C763 C 0.42488 0.33555 0.78446 0.0
C764 C 0.43847 0.33928 0.77137 0.0
C765 C 0.44403 0.33255 0.81086 0.0
C766 C 0.4476 0.32258 0.78012 0.0
C767 C 0.4567 0.3437 0.84296 0.0
C768 C 0.43149 0.32458 0.84836 0.0
C769 C 0.42064 0.32663 0.83253 0.0
C770 C 0.40819 0.32098 0.86198 0.0
C771 C 0.40679 0.31307 0.90906 0.0
C772 C 0.41764 0.31064 0.92576 0.0
C773 C 0.43011 0.31636 0.89469 0.0
H774 H 0.68543 0.09328 0.94254 0.0
H775 H 0.69045 0.13443 0.96535 0.0
H776 H 0.67422 0.13006 0.8877 0.0
H777 H 0.68493 0.09408 0.79375 0.0
H778 H 0.67243 0.07573 0.78759 0.0
H779 H 0.68406 0.08205 0.84582 0.0
H780 H 0.66282 0.07072 0.91183 0.0
H781 H 0.65112 0.06449 0.85378 0.0
H782 H 0.64927 0.07516 0.90541 0.0
H783 H 0.65646 0.12057 0.80981 0.0
H784 H 0.6412 0.10811 0.73043 0.0
H785 H 0.64928 0.07395 0.75483 0.0
C786 C 0.68312 0.10138 0.93115 0.0
C787 C 0.68912 0.11417 0.96013 0.0
C788 C 0.68599 0.12457 0.94358 0.0
C789 C 0.67672 0.12215 0.89978 0.0
C790 C 0.67086 0.10935 0.87243 0.0
C791 C 0.67414 0.09924 0.88689 0.0
C792 C 0.66697 0.08664 0.84935 0.0
C793 C 0.67774 0.08451 0.81722 0.0
C794 C 0.65695 0.07348 0.88206 0.0
C795 C 0.65906 0.09117 0.81166 0.0
C796 C 0.66125 0.10421 0.82612 0.0
C797 C 0.65476 0.1104 0.79792 0.0
C798 C 0.64604 0.10322 0.75312 0.0
C799 C 0.64409 0.09009 0.7364 0.0
C800 C 0.65062 0.084 0.76649 0.0
H801 H 0.90553 0.56579 0.72108 0.0
H802 H 0.92432 0.54243 0.78543 0.0
H803 H 0.91911 0.54663 0.88048 0.0
H804 H 0.91696 0.59175 0.82571 0.0
H805 H 0.90094 0.59226 0.8277 0.0
H806 H 0.90617 0.58745 0.76503 0.0
H807 H 0.88257 0.56423 0.76191 0.0
H808 H 0.87724 0.56898 0.82452 0.0
H809 H 0.87718 0.55269 0.82055 0.0
H810 H 0.9134 0.55489 0.96805 0.0
H811 H 0.90537 0.56443 0.04244 0.0
H812 H 0.88836 0.58062 0.92095 0.0
C813 C 0.90854 0.56156 0.75523 0.0
C814 C 0.91544 0.55389 0.74617 0.0
C815 C 0.91903 0.54833 0.79166 0.0
C816 C 0.91614 0.55069 0.84567 0.0
C817 C 0.90942 0.55839 0.8532 0.0
C818 C 0.90544 0.56354 0.80921 0.0
C819 C 0.89801 0.57116 0.82844 0.0
C820 C 0.906 0.58657 0.81067 0.0
C821 C 0.88285 0.56382 0.80762 0.0
C822 C 0.89861 0.5697 0.89028 0.0
C823 C 0.90538 0.56243 0.90363 0.0
C824 C 0.90792 0.56042 0.95809 0.0
C825 C 0.90338 0.56593 0.99999 0.0
C826 C 0.89616 0.57314 0.9873 0.0
C827 C 0.89367 0.57496 0.93172 0.0
H828 H 0.5793 0.64714 0.25388 0.0
H829 H 0.53763 0.64067 0.27814 0.0
H830 H 0.54126 0.65663 0.20052 0.0
H831 H 0.59618 0.68311 0.21779 0.0
H832 H 0.60711 0.68197 0.16541 0.0
H833 H 0.60127 0.67001 0.22264 0.0
H834 H 0.59052 0.64902 0.15529 0.0
H835 H 0.59648 0.66092 0.09784 0.0
H836 H 0.57827 0.64791 0.10373 0.0
H837 H 0.55015 0.67468 0.12423 0.0
H838 H 0.56226 0.69072 0.04656 0.0
H839 H 0.59742 0.68404 0.06748 0.0
C840 C 0.5709 0.64899 0.24254 0.0
C841 C 0.55818 0.64269 0.27215 0.0
C842 C 0.54742 0.64532 0.25585 0.0
C843 C 0.54942 0.65445 0.21206 0.0
C844 C 0.56217 0.66068 0.18432 0.0
C845 C 0.57262 0.65785 0.19819 0.0
C846 C 0.58516 0.66556 0.16065 0.0
C847 C 0.5982 0.67577 0.19361 0.0
C848 C 0.58776 0.65524 0.1274 0.0
C849 C 0.58021 0.67329 0.12386 0.0
C850 C 0.56699 0.6705 0.1387 0.0
C851 C 0.56043 0.67682 0.1119 0.0
C852 C 0.56743 0.68599 0.06808 0.0
C853 C 0.58075 0.68859 0.05086 0.0
C854 C 0.58721 0.6822 0.0795 0.0
H855 H 0.36176 0.93356 0.25737 0.0
H856 H 0.36495 0.89666 0.28884 0.0
H857 H 0.3493 0.88478 0.2098 0.0
H858 H 0.32627 0.91659 0.21821 0.0
H859 H 0.32858 0.92872 0.16411 0.0
H860 H 0.34028 0.93444 0.22216 0.0
H861 H 0.36147 0.94294 0.15652 0.0
H862 H 0.34984 0.93741 0.0982 0.0
H863 H 0.36182 0.93098 0.10696 0.0
H864 H 0.33148 0.87625 0.13217 0.0
H865 H 0.31574 0.87296 0.05384 0.0
H866 H 0.32579 0.91606 0.06903 0.0
C867 C 0.35929 0.92303 0.24721 0.0
C868 C 0.36453 0.916 0.27923 0.0
C869 C 0.36112 0.90226 0.26458 0.0
C870 C 0.35216 0.8954 0.22001 0.0
C871 C 0.34693 0.90253 0.18992 0.0
C872 C 0.35062 0.91615 0.2022 0.0
C873 C 0.34383 0.92159 0.16279 0.0
C874 C 0.33417 0.92557 0.19368 0.0
C875 C 0.3549 0.93396 0.12912 0.0
C876 C 0.33555 0.90884 0.12694 0.0
C877 C 0.33732 0.89788 0.14363 0.0
C878 C 0.33017 0.88483 0.11828 0.0
C879 C 0.32119 0.88302 0.07412 0.0
C880 C 0.31964 0.89428 0.05524 0.0
C881 C 0.3269 0.90731 0.08224 0.0
H882 H 0.08433 0.44641 0.21636 0.0
H883 H 0.10636 0.43622 0.33888 0.0
H884 H 0.11664 0.42877 0.2653 0.0
H885 H 0.07543 0.41641 0.13117 0.0
H886 H 0.07717 0.42537 0.06709 0.0
H887 H 0.07234 0.43093 0.12892 0.0
H888 H 0.09322 0.45596 0.11555 0.0
H889 H 0.09811 0.45047 0.05368 0.0
H890 H 0.11059 0.45855 0.10866 0.0
H891 H 0.12513 0.42314 0.1786 0.0
H892 H 0.12912 0.41706 0.08482 0.0
H893 H 0.09973 0.42843 0.01885 0.0
C894 C 0.09141 0.44272 0.22739 0.0
C895 C 0.0947 0.442 0.28309 0.0
C896 C 0.10376 0.43685 0.29633 0.0
C897 C 0.10968 0.43265 0.25487 0.0
C898 C 0.10621 0.43339 0.20033 0.0
C899 C 0.09712 0.43807 0.18644 0.0
C900 C 0.09442 0.43689 0.12484 0.0
C901 C 0.07892 0.4268 0.11229 0.0
C902 C 0.09938 0.45133 0.09918 0.0
C903 C 0.10347 0.4309 0.10644 0.0
C904 C 0.11036 0.4292 0.15056 0.0
C905 C 0.11969 0.4243 0.14375 0.0
C906 C 0.12192 0.42091 0.09042 0.0
C907 C 0.11463 0.42214 0.04489 0.0
C908 C 0.1053 0.42721 0.05314 0.0
H909 H 0.09961 0.66588 0.28031 0.0
H910 H 0.07887 0.62404 0.21223 0.0
H911 H 0.08418 0.63394 0.11789 0.0
H912 H 0.08925 0.68216 0.17919 0.0
H913 H 0.10578 0.6982 0.17755 0.0
H914 H 0.10027 0.68783 0.23941 0.0
H915 H 0.12312 0.68673 0.23966 0.0
H916 H 0.12874 0.69715 0.17792 0.0
H917 H 0.12778 0.6804 0.17948 0.0
H918 H 0.09005 0.6485 0.03159 0.0
H919 H 0.09872 0.66655 0.95879 0.0
H920 H 0.11784 0.69892 0.08292 0.0
C921 C 0.09621 0.65882 0.24545 0.0
C922 C 0.08872 0.6442 0.25324 0.0
C923 C 0.08462 0.63526 0.20692 0.0
C924 C 0.08755 0.6408 0.15333 0.0
C925 C 0.09486 0.65528 0.14703 0.0
C926 C 0.09938 0.66417 0.19184 0.0
C927 C 0.10747 0.67931 0.17385 0.0
C928 C 0.10026 0.68735 0.19368 0.0
C929 C 0.12268 0.68631 0.19392 0.0
C930 C 0.10658 0.67759 0.11182 0.0
C931 C 0.09909 0.66364 0.09726 0.0
C932 C 0.09612 0.65943 0.04247 0.0
C933 C 0.10101 0.66974 0.00149 0.0
C934 C 0.10904 0.68406 0.0154 0.0
C935 C 0.11192 0.68802 0.07126 0.0
H936 H 0.35139 0.42552 0.27857 0.0
H937 H 0.3621 0.46883 0.29361 0.0
H938 H 0.34585 0.46556 0.21741 0.0
H939 H 0.34953 0.42439 0.13 0.0
H940 H 0.33529 0.40663 0.12806 0.0
H941 H 0.34748 0.41244 0.18451 0.0
H942 H 0.32698 0.40446 0.25337 0.0
H943 H 0.31474 0.39879 0.19706 0.0
H944 H 0.31517 0.41115 0.24654 0.0
H945 H 0.3274 0.45705 0.14206 0.0
H946 H 0.31096 0.44504 0.06514 0.0
H947 H 0.31371 0.40788 0.09576 0.0
C948 C 0.35035 0.43433 0.26572 0.0
C949 C 0.35795 0.44742 0.29214 0.0
C950 C 0.35641 0.45873 0.27379 0.0
C951 C 0.34713 0.45693 0.23082 0.0
C952 C 0.33963 0.44382 0.20617 0.0
C953 C 0.34135 0.43279 0.22232 0.0
C954 C 0.33253 0.41994 0.18764 0.0
C955 C 0.34176 0.4156 0.15565 0.0
C956 C 0.32171 0.40787 0.22329 0.0
C957 C 0.32557 0.42544 0.14941 0.0
C958 C 0.32959 0.43916 0.16133 0.0
C959 C 0.32426 0.44633 0.13216 0.0
C960 C 0.31485 0.43941 0.08884 0.0
C961 C 0.3111 0.42556 0.07453 0.0
C962 C 0.31644 0.41849 0.1057 0.0
H963 H 0.5676 0.9032 0.3087 0.0
H964 H 0.53726 0.91309 0.24113 0.0
H965 H 0.54114 0.90645 0.14825 0.0
H966 H 0.59148 0.91537 0.19748 0.0
H967 H 0.59539 0.9014 0.20064 0.0
H968 H 0.59005 0.90665 0.26192 0.0
H969 H 0.56985 0.88129 0.27595 0.0
H970 H 0.57516 0.87594 0.2148 0.0
H971 H 0.55752 0.87262 0.22098 0.0
H972 H 0.55002 0.90102 0.0623 0.0
H973 H 0.56121 0.89444 0.98936 0.0
H974 H 0.58413 0.88576 0.11307 0.0
C975 C 0.56172 0.90388 0.27433 0.0
C976 C 0.55219 0.90874 0.28183 0.0
C977 C 0.54458 0.90936 0.23616 0.0
C978 C 0.54675 0.90565 0.18333 0.0
C979 C 0.55633 0.90106 0.17721 0.0
C980 C 0.56351 0.89989 0.22156 0.0
C981 C 0.57306 0.89445 0.20378 0.0
C982 C 0.5884 0.9051 0.21672 0.0
C983 C 0.56863 0.88023 0.23046 0.0
C984 C 0.57038 0.89303 0.14223 0.0
C985 C 0.56079 0.89704 0.12784 0.0
C986 C 0.55733 0.89761 0.07314 0.0
C987 C 0.56378 0.89392 0.03206 0.0
C988 C 0.57337 0.88947 0.04586 0.0
C989 C 0.57663 0.88889 0.10168 0.0
H990 H 0.20105 0.96875 0.96553 0.0
H991 H 0.20584 0.99485 0.82461 0.0
H992 H 0.2114 0.01462 0.88678 0.0
H993 H 0.18769 0.9855 0.06627 0.0
H994 H 0.19771 0.98399 0.12163 0.0
H995 H 0.19099 0.97111 0.06744 0.0
H996 H 0.21596 0.97564 0.04844 0.0
H997 H 0.22276 0.98854 0.10211 0.0
H998 H 0.22971 0.99314 0.0333 0.0
H999 H 0.21995 0.03238 0.96224 0.0
H1000 H 0.23159 0.04678 0.04417 0.0
H1001 H 0.22196 0.0093 0.13571 0.0
C1002 C 0.2027 0.97846 0.94802 0.0
C1003 C 0.20281 0.98024 0.89042 0.0
C1004 C 0.20558 0.99326 0.86873 0.0
C1005 C 0.20869 0.00453 0.90373 0.0
C1006 C 0.20902 0.00262 0.96034 0.0
C1007 C 0.20604 0.98988 0.98241 0.0
C1008 C 0.20905 0.99108 0.04365 0.0
C1009 C 0.19555 0.98241 0.07669 0.0
C1010 C 0.22002 0.98686 0.05764 0.0
C1011 C 0.21476 0.00657 0.05204 0.0
C1012 C 0.21435 0.01299 0.00384 0.0
C1013 C 0.22009 0.02743 1.0005 0.0
C1014 C 0.2267 0.03554 0.04728 0.0
C1015 C 0.22769 0.02919 0.09645 0.0
C1016 C 0.22129 0.01448 0.09896 0.0
H1017 H 0.98295 0.23365 0.10002 0.0
H1018 H 0.97878 0.19301 0.12773 0.0
H1019 H 0.9955 0.19743 0.0519 0.0
H1020 H 0.98334 0.23185 0.95364 0.0
H1021 H 0.99554 0.25019 0.94462 0.0
H1022 H 0.98421 0.24429 0.00377 0.0
H1023 H 0.00565 0.25645 0.0686 0.0
H1024 H 0.01706 0.26246 0.00964 0.0
H1025 H 0.0195 0.25242 0.06241 0.0
H1026 H 0.01312 0.20669 0.97379 0.0
H1027 H 0.02869 0.21918 0.89517 0.0
H1028 H 0.01934 0.25264 0.91383 0.0
C1029 C 0.98574 0.22577 0.09068 0.0
C1030 C 0.97979 0.21308 0.12015 0.0
C1031 C 0.98334 0.20285 0.10578 0.0
C1032 C 0.99282 0.20527 0.0629 0.0
C1033 C 0.9984 0.21787 0.03426 0.0
C1034 C 0.99487 0.22788 0.04723 0.0
C1035 C 1.0016 0.24015 0.00806 0.0
C1036 C 0.99051 0.2417 0.9756 0.0
C1037 C 0.01154 0.25367 0.03903 0.0
C1038 C 0.00954 0.23553 0.97107 0.0
C1039 C 0.00774 0.22275 0.98726 0.0
C1040 C 0.0145 0.21664 0.96046 0.0
C1041 C 0.02331 0.22379 0.91597 0.0
C1042 C 0.02504 0.23675 0.89814 0.0
C1043 C 0.018 0.24262 0.926 0.0
H1044 H 0.76067 0.79656 0.95709 0.0
H1045 H 0.78382 0.79446 0.81686 0.0
H1046 H 0.79683 0.78714 0.8782 0.0
H1047 H 0.78871 0.80795 0.06131 0.0
H1048 H 0.77688 0.79694 0.11418 0.0
H1049 H 0.77077 0.80389 0.06078 0.0
H1050 H 0.75127 0.77885 0.03595 0.0
H1051 H 0.75734 0.77183 0.08906 0.0
H1052 H 0.75589 0.76581 0.01906 0.0
H1053 H 0.80635 0.77893 0.95291 0.0
H1054 H 0.81066 0.76855 0.03489 0.0
H1055 H 0.7802 0.77434 0.12659 0.0
C1056 C 0.76873 0.79489 0.93972 0.0
C1057 C 0.77145 0.79627 0.88253 0.0
C1058 C 0.7817 0.79354 0.8607 0.0
C1059 C 0.78916 0.78945 0.8952 0.0
C1060 C 0.78609 0.78794 0.95131 0.0
C1061 C 0.77606 0.79047 0.97347 0.0
C1062 C 0.7738 0.78668 0.03413 0.0
C1063 C 0.77778 0.79964 0.0697 0.0
C1064 C 0.75868 0.7751 0.04517 0.0
C1065 C 0.78398 0.78143 0.0423 0.0
C1066 C 0.79113 0.78252 0.9942 0.0
C1067 C 0.80087 0.77809 0.99092 0.0
C1068 C 0.80325 0.77221 0.03784 0.0
C1069 C 0.79576 0.7706 0.08729 0.0
C1070 C 0.7861 0.77543 0.0895 0.0
H1071 H 0.7535 0.98691 0.92574 0.0
H1072 H 0.7825 0.97136 0.9226 0.0
H1073 H 0.79535 0.98672 0.00162 0.0
H1074 H 0.77738 0.02216 0.96227 0.0
H1075 H 0.76534 0.02373 0.00763 0.0
H1076 H 0.75885 0.01182 0.95032 0.0
H1077 H 0.74359 0.99148 0.01685 0.0
H1078 H 0.75004 0.00334 0.0744 0.0
H1079 H 0.75169 0.98793 0.07426 0.0
H1080 H 0.80589 0.00531 0.077 0.0
H1081 H 0.81161 0.02337 0.14884 0.0
H1082 H 0.77401 0.02441 0.10784 0.0
C1083 C 0.7626 0.98679 0.94162 0.0
C1084 C 0.76718 0.97815 0.91791 0.0
C1085 C 0.77891 0.97799 0.94032 0.0
C1086 C 0.78625 0.98668 0.98498 0.0
C1087 C 0.78147 0.99515 0.00737 0.0
C1088 C 0.76975 0.99505 0.98697 0.0
C1089 C 0.76636 0.00463 0.01954 0.0
C1090 C 0.76703 0.01627 0.98274 0.0
C1091 C 0.75208 0.99635 0.04795 0.0
C1092 C 0.77813 0.01035 0.061 0.0
C1093 C 0.78688 0.00493 0.05299 0.0
C1094 C 0.79898 0.00943 0.08424 0.0
C1095 C 0.80216 0.01968 0.12476 0.0
C1096 C 0.7931 0.02502 0.1343 0.0
C1097 C 0.78092 0.02022 0.10219 0.0
H1098 H 0.0367 0.7939 0.95377 0.0
H1099 H 0.00939 0.78273 0.81181 0.0
H1100 H 0.98905 0.77499 0.87343 0.0
H1101 H 0.01436 0.7642 0.03003 0.0
H1102 H 0.0185 0.77272 0.09626 0.0
H1103 H 0.03116 0.7795 0.04159 0.0
H1104 H 0.03284 0.80363 0.05114 0.0
H1105 H 0.02018 0.79691 0.10603 0.0
H1106 H 0.01721 0.80482 0.04652 0.0
H1107 H 0.97165 0.76716 0.94948 0.0
H1108 H 0.95797 0.75772 0.03455 0.0
H1109 H 0.99633 0.77233 0.12768 0.0
C1110 C 0.02646 0.79016 0.93591 0.0
C1111 C 0.02454 0.7891 0.87828 0.0
C1112 C 0.011 0.7837 0.85599 0.0
C1113 C 0.99943 0.77936 0.8906 0.0
C1114 C 1.00159 0.78031 0.94736 0.0
C1115 C 0.01474 0.78545 0.96997 0.0
C1116 C 0.01397 0.78383 0.03209 0.0
C1117 C 0.01984 0.7745 0.05108 0.0
C1118 C 0.0215 0.79815 0.06062 0.0
C1119 C 0.99833 0.77672 0.04067 0.0
C1120 C 0.99143 0.77508 0.99137 0.0
C1121 C 0.97693 0.76846 0.98842 0.0
C1122 C 0.96925 0.76314 0.03704 0.0
C1123 C 0.97607 0.76426 0.08783 0.0
C1124 C 0.99082 0.77133 0.08956 0.0
H1125 H 0.24987 0.23224 0.09815 0.0
H1126 H 0.21525 0.19032 0.12392 0.0
H1127 H 0.20275 0.19334 0.04505 0.0
H1128 H 0.2301 0.24847 0.05565 0.0
H1129 H 0.24264 0.25917 0.00414 0.0
H1130 H 0.24829 0.25386 0.06441 0.0
H1131 H 0.25952 0.24315 0.00196 0.0
H1132 H 0.25378 0.24829 0.94149 0.0
H1133 H 0.24896 0.23028 0.95112 0.0
H1134 H 0.19384 0.20146 0.96468 0.0
H1135 H 0.18982 0.21348 0.88662 0.0
H1136 H 0.23134 0.24905 0.90903 0.0
C1137 C 0.23956 0.22378 0.08772 0.0
C1138 C 0.23339 0.21113 0.11755 0.0
C1139 C 0.22008 0.20013 0.10174 0.0
C1140 C 0.21293 0.20175 0.05706 0.0
C1141 C 0.21939 0.21432 0.02805 0.0
C1142 C 0.23247 0.22509 0.04252 0.0
C1143 C 0.23744 0.23728 0.00324 0.0
C1144 C 0.23975 0.25047 0.03368 0.0
C1145 C 0.25071 0.2399 0.97264 0.0
C1146 C 0.22507 0.23179 0.96466 0.0
C1147 C 0.21469 0.21858 0.97989 0.0
C1148 C 0.20197 0.21172 0.95199 0.0
C1149 C 0.19978 0.2186 0.90775 0.0
C1150 C 0.21036 0.23206 0.89129 0.0
C1151 C 0.2232 0.23862 0.91985 0.0
H1152 H 0.89468 0.34315 0.45182 0.0
H1153 H 0.90985 0.3813 0.357 0.0
H1154 H 0.90066 0.36738 0.272 0.0
H1155 H 0.9034 0.32518 0.35864 0.0
H1156 H 0.88815 0.30832 0.36963 0.0
H1157 H 0.89439 0.32113 0.42382 0.0
H1158 H 0.87018 0.31937 0.42984 0.0
H1159 H 0.8638 0.30644 0.37589 0.0
H1160 H 0.86251 0.32197 0.36868 0.0
H1161 H 0.89306 0.34958 0.19643 0.0
H1162 H 0.88547 0.32896 0.13639 0.0
H1163 H 0.87395 0.30232 0.28059 0.0
C1164 C 0.89581 0.34858 0.41336 0.0
C1165 C 0.903 0.36332 0.41105 0.0
C1166 C 0.9043 0.37002 0.35986 0.0
C1167 C 0.89914 0.3622 0.31132 0.0
C1168 C 0.89248 0.3477 0.31485 0.0
C1169 C 0.89056 0.34094 0.36469 0.0
C1170 C 0.88361 0.32528 0.35696 0.0
C1171 C 0.89295 0.31966 0.37853 0.0
C1172 C 0.86917 0.31783 0.38447 0.0
C1173 C 0.88238 0.32432 0.2948 0.0
C1174 C 0.88756 0.33738 0.27128 0.0
C1175 C 0.88869 0.33928 0.21436 0.0
C1176 C 0.88443 0.32754 0.18064 0.0
C1177 C 0.87897 0.31407 0.20395 0.0
C1178 C 0.87778 0.31246 0.26172 0.0
H1179 H 0.689 0.58576 0.25113 0.0
H1180 H 0.69429 0.5501 0.2201 0.0
H1181 H 0.67738 0.537 0.29445 0.0
H1182 H 0.68802 0.58249 0.39786 0.0
H1183 H 0.67549 0.5882 0.40719 0.0
H1184 H 0.68714 0.5943 0.34901 0.0
H1185 H 0.66601 0.58517 0.2826 0.0
H1186 H 0.6543 0.57911 0.3406 0.0
H1187 H 0.65239 0.56715 0.28637 0.0
H1188 H 0.65924 0.52768 0.37037 0.0
H1189 H 0.64297 0.52353 0.44756 0.0
H1190 H 0.65163 0.56623 0.43476 0.0
C1191 C 0.68643 0.57512 0.25954 0.0
C1192 C 0.69271 0.5688 0.2295 0.0
C1193 C 0.68946 0.55503 0.24255 0.0
C1194 C 0.67988 0.54754 0.28456 0.0
C1195 C 0.67392 0.55412 0.31376 0.0
C1196 C 0.67722 0.56767 0.30226 0.0
C1197 C 0.67007 0.57267 0.34183 0.0
C1198 C 0.68082 0.58515 0.376 0.0
C1199 C 0.6601 0.57623 0.311 0.0
C1200 C 0.66213 0.55978 0.37719 0.0
C1201 C 0.66432 0.54912 0.35987 0.0
C1202 C 0.65758 0.536 0.38468 0.0
C1203 C 0.64836 0.53373 0.42834 0.0
C1204 C 0.64625 0.54463 0.44738 0.0
C1205 C 0.65329 0.55781 0.42162 0.0
H1206 H 0.41863 0.10189 0.25894 0.0
H1207 H 0.4496 0.14583 0.2486 0.0
H1208 H 0.46318 0.14281 0.32343 0.0
H1209 H 0.41946 0.10012 0.40803 0.0
H1210 H 0.41662 0.08259 0.40814 0.0
H1211 H 0.40975 0.08827 0.35296 0.0
H1212 H 0.42271 0.08138 0.28178 0.0
H1213 H 0.42967 0.07573 0.33672 0.0
H1214 H 0.44131 0.08859 0.28801 0.0
H1215 H 0.47415 0.13425 0.3945 0.0
H1216 H 0.48001 0.1217 0.46484 0.0
H1217 H 0.44038 0.08417 0.43525 0.0
C1218 C 0.42828 0.11086 0.27252 0.0
C1219 C 0.43322 0.12405 0.24792 0.0
C1220 C 0.44572 0.13564 0.26713 0.0
C1221 C 0.45349 0.134 0.30934 0.0
C1222 C 0.44837 0.12078 0.33258 0.0
C1223 C 0.4359 0.10949 0.31558 0.0
C1224 C 0.43233 0.09655 0.34878 0.0
C1225 C 0.41873 0.09159 0.38142 0.0
C1226 C 0.43146 0.08488 0.31159 0.0
C1227 C 0.44485 0.10223 0.38662 0.0
C1228 C 0.45411 0.11617 0.37613 0.0
C1229 C 0.46686 0.12341 0.40369 0.0
C1230 C 0.47013 0.11622 0.44331 0.0
C1231 C 0.46054 0.10209 0.45571 0.0
C1232 C 0.44775 0.09506 0.42712 0.0
H1233 H 0.42754 0.29948 0.28032 0.0
H1234 H 0.45045 0.32514 0.14065 0.0
H1235 H 0.46431 0.34501 0.20339 0.0
H1236 H 0.42393 0.32562 0.34626 0.0
H1237 H 0.42533 0.32045 0.41533 0.0
H1238 H 0.41881 0.30771 0.3609 0.0
H1239 H 0.43784 0.30128 0.38279 0.0
H1240 H 0.44443 0.31403 0.43739 0.0
H1241 H 0.45594 0.31478 0.38333 0.0
H1242 H 0.47483 0.36233 0.2807 0.0
H1243 H 0.4794 0.3766 0.3646 0.0
H1244 H 0.44819 0.34014 0.45272 0.0
C1245 C 0.43573 0.30919 0.26326 0.0
C1246 C 0.43817 0.31077 0.20594 0.0
C1247 C 0.44857 0.32374 0.18461 0.0
C1248 C 0.45652 0.33504 0.21992 0.0
C1249 C 0.45375 0.33322 0.27629 0.0
C1250 C 0.44349 0.32067 0.29778 0.0
C1251 C 0.44146 0.32191 0.35882 0.0
C1252 C 0.4265 0.31874 0.37101 0.0
C1253 C 0.44514 0.31244 0.39257 0.0
C1254 C 0.452 0.33718 0.36812 0.0
C1255 C 0.45921 0.34343 0.32031 0.0
C1256 C 0.46929 0.35754 0.31844 0.0
C1257 C 0.47184 0.36555 0.36637 0.0
C1258 C 0.46414 0.35949 0.41517 0.0
C1259 C 0.45425 0.34507 0.41606 0.0
H1260 H 0.68802 0.10299 0.2546 0.0
H1261 H 0.69766 0.14602 0.24282 0.0
H1262 H 0.68151 0.14215 0.32015 0.0
H1263 H 0.65178 0.08752 0.29094 0.0
H1264 H 0.65224 0.07539 0.33929 0.0
H1265 H 0.66401 0.08143 0.28149 0.0
H1266 H 0.68504 0.08991 0.34808 0.0
H1267 H 0.67333 0.08394 0.4061 0.0
H1268 H 0.68722 0.10185 0.40283 0.0
H1269 H 0.66336 0.1331 0.39584 0.0
H1270 H 0.64625 0.12018 0.46981 0.0
H1271 H 0.65051 0.08393 0.43803 0.0
C1272 C 0.68662 0.11154 0.26806 0.0
C1273 C 0.6939 0.12475 0.24251 0.0
C1274 C 0.69209 0.13581 0.26189 0.0
C1275 C 0.68295 0.1337 0.30563 0.0
C1276 C 0.67595 0.12056 0.33019 0.0
C1277 C 0.67783 0.10972 0.31258 0.0
C1278 C 0.66961 0.09682 0.34765 0.0
C1279 C 0.65877 0.08457 0.31275 0.0
C1280 C 0.67939 0.09291 0.37796 0.0
C1281 C 0.66268 0.10202 0.38735 0.0
C1282 C 0.66631 0.11568 0.37618 0.0
C1283 C 0.66059 0.12247 0.40549 0.0
C1284 C 0.6509 0.11508 0.44728 0.0
C1285 C 0.6473 0.10119 0.46001 0.0
C1286 C 0.65335 0.09465 0.42987 0.0
H1287 H 0.90393 0.53522 0.38765 0.0
H1288 H 0.88259 0.53974 0.52902 0.0
H1289 H 0.8677 0.54442 0.46709 0.0
H1290 H 0.90708 0.56322 0.31873 0.0
H1291 H 0.90469 0.55607 0.25025 0.0
H1292 H 0.91127 0.54976 0.30395 0.0
H1293 H 0.89122 0.52448 0.28639 0.0
H1294 H 0.8846 0.53073 0.2322 0.0
H1295 H 0.87337 0.52068 0.28825 0.0
H1296 H 0.85786 0.5523 0.39174 0.0
H1297 H 0.85464 0.56364 0.30987 0.0
H1298 H 0.88286 0.55468 0.21763 0.0
C1299 C 0.89572 0.53661 0.40534 0.0
C1300 C 0.89425 0.53691 0.46297 0.0
C1301 C 0.88379 0.53934 0.48487 0.0
C1302 C 0.87524 0.54194 0.45001 0.0
C1303 C 0.8773 0.54211 0.39331 0.0
C1304 C 0.88726 0.53945 0.37106 0.0
C1305 C 0.8888 0.54227 0.30967 0.0
C1306 C 0.90384 0.5535 0.29483 0.0
C1307 C 0.88422 0.52873 0.27721 0.0
C1308 C 0.87867 0.54754 0.30141 0.0
C1309 C 0.87187 0.54705 0.34981 0.0
C1310 C 0.86291 0.55249 0.35332 0.0
C1311 C 0.86115 0.55893 0.30657 0.0
C1312 C 0.86848 0.56005 0.25723 0.0
C1313 C 0.877 0.55389 0.25449 0.0
H1314 H 0.56899 0.64874 0.56625 0.0
H1315 H 0.52794 0.64348 0.53723 0.0
H1316 H 0.5312 0.65887 0.61656 0.0
H1317 H 0.56632 0.64716 0.71238 0.0
H1318 H 0.58441 0.65985 0.72415 0.0
H1319 H 0.57936 0.64934 0.66264 0.0
H1320 H 0.59107 0.67166 0.60231 0.0
H1321 H 0.59632 0.68223 0.66365 0.0
H1322 H 0.58624 0.68486 0.6116 0.0
H1323 H 0.53908 0.67498 0.69881 0.0
H1324 H 0.55079 0.69016 0.77917 0.0
H1325 H 0.5858 0.68323 0.75847 0.0
C1326 C 0.5608 0.65105 0.57598 0.0
C1327 C 0.54829 0.6451 0.54524 0.0
C1328 C 0.53765 0.64803 0.56011 0.0
C1329 C 0.53939 0.65673 0.60508 0.0
C1330 C 0.55175 0.66222 0.63521 0.0
C1331 C 0.56225 0.65945 0.6214 0.0
C1332 C 0.57423 0.66609 0.66199 0.0
C1333 C 0.57619 0.65494 0.69206 0.0
C1334 C 0.58776 0.67685 0.63316 0.0
C1335 C 0.56887 0.67307 0.70067 0.0
C1336 C 0.55594 0.67082 0.68427 0.0
C1337 C 0.54915 0.67672 0.71232 0.0
C1338 C 0.55585 0.68529 0.7579 0.0
C1339 C 0.56908 0.68768 0.77542 0.0
C1340 C 0.57555 0.68134 0.74673 0.0
H1341 H 0.32073 0.90465 0.76196 0.0
H1342 H 0.30411 0.8599 0.76003 0.0
H1343 H 0.31932 0.86254 0.68041 0.0
H1344 H 0.32188 0.90849 0.61369 0.0
H1345 H 0.33757 0.92533 0.61483 0.0
H1346 H 0.32572 0.91984 0.67238 0.0
H1347 H 0.34586 0.92393 0.7383 0.0
H1348 H 0.35777 0.92944 0.68099 0.0
H1349 H 0.3558 0.91539 0.72465 0.0
H1350 H 0.33783 0.87061 0.60512 0.0
H1351 H 0.35601 0.88302 0.53387 0.0
H1352 H 0.35826 0.92196 0.57968 0.0
C1353 C 0.32034 0.89542 0.74483 0.0
C1354 C 0.31144 0.8821 0.76728 0.0
C1355 C 0.31094 0.8702 0.74328 0.0
C1356 C 0.31954 0.87161 0.69826 0.0
C1357 C 0.32827 0.88495 0.67712 0.0
C1358 C 0.32852 0.8966 0.69908 0.0
C1359 C 0.33836 0.90968 0.66763 0.0
C1360 C 0.3304 0.91621 0.64052 0.0
C1361 C 0.35015 0.92023 0.70513 0.0
C1362 C 0.34382 0.90364 0.62502 0.0
C1363 C 0.33804 0.88939 0.63151 0.0
C1364 C 0.34223 0.88172 0.59905 0.0
C1365 C 0.35255 0.88883 0.55888 0.0
C1366 C 0.35828 0.90335 0.55088 0.0
C1367 C 0.35377 0.91078 0.58417 0.0
H1368 H 0.11311 0.44051 0.79307 0.0
H1369 H 0.14953 0.44287 0.71491 0.0
H1370 H 0.14668 0.45528 0.6362 0.0
H1371 H 0.09303 0.4331 0.67641 0.0
H1372 H 0.08513 0.44343 0.69386 0.0
H1373 H 0.09116 0.43655 0.74757 0.0
H1374 H 0.10671 0.46148 0.78658 0.0
H1375 H 0.1007 0.46846 0.73286 0.0
H1376 H 0.11913 0.47509 0.74214 0.0
H1377 H 0.13764 0.46363 0.55988 0.0
H1378 H 0.12372 0.46864 0.49363 0.0
H1379 H 0.09413 0.46248 0.62269 0.0
C1380 C 0.12069 0.44392 0.76003 0.0
C1381 C 0.13155 0.44069 0.76028 0.0
C1382 C 0.14116 0.44525 0.71591 0.0
C1383 C 0.13965 0.45235 0.67098 0.0
C1384 C 0.12862 0.45504 0.67137 0.0
C1385 C 0.11942 0.45116 0.71509 0.0
C1386 C 0.10789 0.45441 0.70353 0.0
C1387 C 0.09346 0.44108 0.70544 0.0
C1388 C 0.10866 0.46552 0.74367 0.0
C1389 C 0.11169 0.46015 0.64552 0.0
C1390 C 0.12375 0.4605 0.62787 0.0
C1391 C 0.12843 0.46382 0.57368 0.0
C1392 C 0.12047 0.46662 0.53635 0.0
C1393 C 0.1081 0.46627 0.5536 0.0
C1394 C 0.10385 0.46332 0.60913 0.0
H1395 H 0.12037 0.67769 0.78494 0.0
H1396 H 0.15103 0.71412 0.69516 0.0
H1397 H 0.14648 0.6996 0.61184 0.0
H1398 H 0.12756 0.65182 0.7141 0.0
H1399 H 0.10935 0.63861 0.71538 0.0
H1400 H 0.11656 0.65143 0.76964 0.0
H1401 H 0.09775 0.65834 0.75079 0.0
H1402 H 0.09056 0.64565 0.69641 0.0
H1403 H 0.09604 0.66367 0.68239 0.0
H1404 H 0.13561 0.68212 0.53516 0.0
H1405 H 0.12056 0.66264 0.4728 0.0
H1406 H 0.09795 0.6373 0.61362 0.0
C1407 C 0.12639 0.68256 0.74816 0.0
C1408 C 0.13606 0.69704 0.74654 0.0
C1409 C 0.14366 0.70303 0.69751 0.0
C1410 C 0.14113 0.69486 0.64996 0.0
C1411 C 0.13118 0.68069 0.65251 0.0
C1412 C 0.12412 0.67454 0.70068 0.0
C1413 C 0.11326 0.65935 0.69176 0.0
C1414 C 0.11691 0.64974 0.72468 0.0
C1415 C 0.09854 0.6566 0.70617 0.0
C1416 C 0.11485 0.65806 0.63048 0.0
C1417 C 0.1253 0.67046 0.6086 0.0
C1418 C 0.12767 0.67225 0.552 0.0
C1419 C 0.11905 0.66117 0.51691 0.0
C1420 C 0.10828 0.64842 0.53856 0.0
C1421 C 0.10638 0.64679 0.59612 0.0
H1422 H 0.30435 0.42343 0.71561 0.0
H1423 H 0.33096 0.44268 0.85761 0.0
H1424 H 0.35136 0.45527 0.79598 0.0
H1425 H 0.32876 0.41731 0.64349 0.0
H1426 H 0.32398 0.42044 0.5762 0.0
H1427 H 0.31132 0.41406 0.63096 0.0
H1428 H 0.30725 0.43497 0.61692 0.0
H1429 H 0.31994 0.44144 0.56215 0.0
H1430 H 0.32188 0.45251 0.61993 0.0
H1431 H 0.36874 0.46569 0.719 0.0
H1432 H 0.38251 0.47116 0.63328 0.0
H1433 H 0.34487 0.44356 0.54208 0.0
C1434 C 0.31446 0.43045 0.73355 0.0
C1435 C 0.31613 0.43227 0.79116 0.0
C1436 C 0.32952 0.44122 0.81347 0.0
C1437 C 0.34112 0.44845 0.77882 0.0
C1438 C 0.33914 0.4464 0.72213 0.0
C1439 C 0.32619 0.43747 0.69966 0.0
C1440 C 0.3271 0.43622 0.63783 0.0
C1441 C 0.32252 0.42111 0.62116 0.0
C1442 C 0.31853 0.44161 0.60743 0.0
C1443 C 0.3426 0.4458 0.62906 0.0
C1444 C 0.34931 0.45177 0.67807 0.0
C1445 C 0.36362 0.46105 0.6804 0.0
C1446 C 0.37134 0.46413 0.63147 0.0
C1447 C 0.36476 0.45774 0.58113 0.0
C1448 C 0.35019 0.44855 0.58002 0.0
H1449 H 0.57469 0.87166 0.70339 0.0
H1450 H 0.54662 0.86712 0.83647 0.0
H1451 H 0.5329 0.87298 0.77272 0.0
H1452 H 0.57705 0.90142 0.65085 0.0
H1453 H 0.57797 0.89769 0.57918 0.0
H1454 H 0.58378 0.89019 0.63122 0.0
H1455 H 0.56677 0.86538 0.59424 0.0
H1456 H 0.56097 0.87283 0.54157 0.0
H1457 H 0.54847 0.85974 0.58748 0.0
H1458 H 0.5242 0.88229 0.69893 0.0
H1459 H 0.52147 0.89504 0.62118 0.0
H1460 H 0.55588 0.89469 0.53654 0.0
C1461 C 0.56532 0.87135 0.71837 0.0
C1462 C 0.56151 0.86868 0.77443 0.0
C1463 C 0.54956 0.86897 0.79341 0.0
C1464 C 0.5417 0.87225 0.75749 0.0
C1465 C 0.546 0.87532 0.70281 0.0
C1466 C 0.55752 0.87488 0.68321 0.0
C1467 C 0.56101 0.88044 0.62482 0.0
C1468 C 0.57582 0.89319 0.62137 0.0
C1469 C 0.55919 0.86891 0.58465 0.0
C1470 C 0.54998 0.88452 0.61547 0.0
C1471 C 0.54125 0.8812 0.66052 0.0
C1472 C 0.53083 0.88474 0.66304 0.0
C1473 C 0.52939 0.89204 0.61867 0.0
C1474 C 0.53845 0.89588 0.57262 0.0
C1475 C 0.54871 0.89182 0.57084 0.0
H1476 H 0.36231 0.11817 0.15262 0.0
H1477 H 0.3682 0.08303 0.11606 0.0
H1478 H 0.34332 0.0668 0.13521 0.0
H1479 H 0.33781 0.10241 0.2624 0.0
H1480 H 0.32717 0.10983 0.24283 0.0
H1481 H 0.3455 0.11885 0.22636 0.0
H1482 H 0.33973 0.11928 0.12317 0.0
H1483 H 0.32139 0.11036 0.13938 0.0
H1484 H 0.32795 0.10315 0.08882 0.0
H1485 H 0.31829 0.05431 0.16385 0.0
H1486 H 0.29383 0.04633 0.18905 0.0
H1487 H 0.30349 0.08941 0.20074 0.0
C1488 C 0.35833 0.10706 0.1484 0.0
C1489 C 0.36721 0.10186 0.13298 0.0
C1490 C 0.36159 0.08726 0.12751 0.0
C1491 C 0.34749 0.07795 0.13861 0.0
C1492 C 0.33906 0.08338 0.15432 0.0
C1493 C 0.34417 0.09759 0.15827 0.0
C1494 C 0.33271 0.10063 0.17436 0.0
C1495 C 0.336 0.10839 0.22978 0.0
C1496 C 0.3303 0.10884 0.1287 0.0
C1497 C 0.32042 0.08592 0.17936 0.0
C1498 C 0.32438 0.07614 0.16829 0.0
C1499 C 0.31502 0.06186 0.17208 0.0
C1500 C 0.30117 0.05743 0.18673 0.0
C1501 C 0.29674 0.06724 0.19661 0.0
C1502 C 0.30655 0.08167 0.19298 0.0
H1503 H 0.89252 0.25978 0.20114 0.0
H1504 H 0.89252 0.25733 0.0228 0.0
H1505 H 0.90477 0.24379 0.02851 0.0
H1506 H 0.92734 0.26491 0.21838 0.0
H1507 H 0.92313 0.25498 0.28138 0.0
H1508 H 0.91393 0.26402 0.26325 0.0
H1509 H 0.8904 0.24085 0.27112 0.0
H1510 H 0.89952 0.23173 0.28901 0.0
H1511 H 0.88767 0.22592 0.23134 0.0
H1512 H 0.91566 0.2294 0.05394 0.0
H1513 H 0.92735 0.21767 0.09626 0.0
H1514 H 0.92246 0.2314 0.25794 0.0
C1515 C 0.89509 0.25635 0.16336 0.0
C1516 C 0.89148 0.25944 0.11148 0.0
C1517 C 0.8952 0.25504 0.06286 0.0
C1518 C 0.90209 0.24731 0.06575 0.0
C1519 C 0.90543 0.24435 0.11756 0.0
C1520 C 0.9023 0.24895 0.16547 0.0
C1521 C 0.90767 0.24494 0.21573 0.0
C1522 C 0.91868 0.25799 0.24648 0.0
C1523 C 0.89559 0.23529 0.25405 0.0
C1524 C 0.91417 0.23721 0.18863 0.0
C1525 C 0.91256 0.23682 0.13204 0.0
C1526 C 0.91713 0.22977 0.09812 0.0
C1527 C 0.92368 0.22308 0.12258 0.0
C1528 C 0.92585 0.2237 0.18028 0.0
C1529 C 0.92104 0.23088 0.21368 0.0
H1530 H 0.7496 0.64491 0.08302 0.0
H1531 H 0.73874 0.62818 0.24858 0.0
H1532 H 0.74897 0.6521 0.286 0.0
H1533 H 0.78314 0.67398 0.1212 0.0
H1534 H 0.78237 0.68582 0.07222 0.0
H1535 H 0.77338 0.66736 0.05817 0.0
H1536 H 0.75022 0.66756 0.04549 0.0
H1537 H 0.75914 0.68601 0.05975 0.0
H1538 H 0.74411 0.67424 0.09997 0.0
H1539 H 0.75946 0.67781 0.30497 0.0
H1540 H 0.77245 0.70369 0.30536 0.0
H1541 H 0.77875 0.70375 0.12902 0.0
C1542 C 0.74935 0.64634 0.12706 0.0
C1543 C 0.74331 0.63477 0.16302 0.0
C1544 C 0.74336 0.63697 0.2205 0.0
C1545 C 0.74906 0.65048 0.24207 0.0
C1546 C 0.75495 0.66171 0.20565 0.0
C1547 C 0.75539 0.65981 0.14949 0.0
C1548 C 0.76318 0.6737 0.11989 0.0
C1549 C 0.7763 0.67531 0.09119 0.0
C1550 C 0.75359 0.67548 0.07886 0.0
C1551 C 0.76695 0.68366 0.16811 0.0
C1552 C 0.76188 0.67654 0.21709 0.0
C1553 C 0.76362 0.68351 0.26695 0.0
C1554 C 0.77094 0.69817 0.26682 0.0
C1555 C 0.77668 0.70563 0.2174 0.0
C1556 C 0.7746 0.69826 0.1675 0.0
H1557 H 0.06385 0.30761 0.78946 0.0
H1558 H 0.09771 0.29852 0.79648 0.0
H1559 H 0.11427 0.32322 0.81756 0.0
H1560 H 0.0836 0.34225 0.72878 0.0
H1561 H 0.07508 0.34944 0.76951 0.0
H1562 H 0.06593 0.33116 0.75212 0.0
H1563 H 0.06123 0.32487 0.85566 0.0
H1564 H 0.07047 0.34313 0.87341 0.0
H1565 H 0.07571 0.33151 0.90305 0.0
H1566 H 0.12714 0.34858 0.83775 0.0
H1567 H 0.13572 0.37337 0.85783 0.0
H1568 H 0.09356 0.36631 0.84295 0.0
C1569 C 0.07478 0.31088 0.79471 0.0
C1570 C 0.07952 0.30116 0.79092 0.0
C1571 C 0.09386 0.30578 0.79912 0.0
C1572 C 0.10334 0.31978 0.81108 0.0
C1573 C 0.09832 0.32905 0.81532 0.0
C1574 C 0.0844 0.32483 0.80759 0.0
C1575 C 0.08174 0.3369 0.81656 0.0
C1576 C 0.07627 0.34013 0.76358 0.0
C1577 C 0.07169 0.33392 0.86506 0.0
C1578 C 0.09637 0.34853 0.83036 0.0
C1579 C 0.10575 0.34373 0.82901 0.0
C1580 C 0.11991 0.35247 0.83909 0.0
C1581 C 0.12468 0.36655 0.85041 0.0
C1582 C 0.11531 0.37178 0.85216 0.0
C1583 C 0.10093 0.36259 0.84248 0.0
H1584 H 0.70277 0.77975 0.86907 0.0
H1585 H 0.70165 0.77539 0.69121 0.0
H1586 H 0.67593 0.76065 0.6947 0.0
H1587 H 0.67561 0.74403 0.89588 0.0
H1588 H 0.66851 0.74868 0.95363 0.0
H1589 H 0.68678 0.75912 0.93709 0.0
H1590 H 0.68426 0.78113 0.93089 0.0
H1591 H 0.66598 0.77077 0.94734 0.0
H1592 H 0.67137 0.78111 0.88532 0.0
H1593 H 0.65045 0.74783 0.71694 0.0
H1594 H 0.62677 0.73559 0.75691 0.0
H1595 H 0.64438 0.74627 0.92133 0.0
C1596 C 0.69709 0.77571 0.83088 0.0
C1597 C 0.70413 0.7788 0.77974 0.0
C1598 C 0.69641 0.77314 0.73073 0.0
C1599 C 0.68183 0.7648 0.73233 0.0
C1600 C 0.67519 0.76199 0.7834 0.0
C1601 C 0.68256 0.76708 0.83188 0.0
C1602 C 0.6729 0.76211 0.88141 0.0
C1603 C 0.67615 0.75294 0.91922 0.0
C1604 C 0.67368 0.77452 0.91309 0.0
C1605 C 0.65891 0.7536 0.85312 0.0
C1606 C 0.66049 0.75383 0.79652 0.0
C1607 C 0.64908 0.74741 0.76118 0.0
C1608 C 0.6357 0.74055 0.78424 0.0
C1609 C 0.63382 0.73991 0.84209 0.0
C1610 C 0.64558 0.74644 0.877 0.0
H1611 H 0.21584 0.91476 0.82421 0.0
H1612 H 0.24903 0.95804 0.8265 0.0
H1613 H 0.26586 0.95063 0.85382 0.0
H1614 H 0.22764 0.90256 0.93866 0.0
H1615 H 0.2231 0.88609 0.90702 0.0
H1616 H 0.21347 0.89474 0.88987 0.0
H1617 H 0.2189 0.89416 0.78639 0.0
H1618 H 0.22846 0.88543 0.80318 0.0
H1619 H 0.23678 0.90148 0.76448 0.0
H1620 H 0.27886 0.93867 0.88393 0.0
H1621 H 0.28799 0.92286 0.9035 0.0
H1622 H 0.24683 0.8871 0.87482 0.0
C1623 C 0.22665 0.92266 0.83066 0.0
C1624 C 0.23114 0.93699 0.82366 0.0
C1625 C 0.24539 0.94701 0.83156 0.0
C1626 C 0.255 0.94291 0.84739 0.0
C1627 C 0.25023 0.92872 0.85425 0.0
C1628 C 0.23645 0.91872 0.84526 0.0
C1629 C 0.23425 0.90413 0.85252 0.0
C1630 C 0.22401 0.89643 0.89984 0.0
C1631 C 0.22931 0.89581 0.79842 0.0
C1632 C 0.24894 0.90751 0.86723 0.0
C1633 C 0.25792 0.92177 0.86883 0.0
C1634 C 0.27195 0.92749 0.88249 0.0
C1635 C 0.27702 0.9184 0.89383 0.0
C1636 C 0.26814 0.90373 0.8906 0.0
C1637 C 0.25388 0.89825 0.87743 0.0
H1638 H 0.69682 0.91352 0.81239 0.0
H1639 H 0.70228 0.95503 0.79576 0.0
H1640 H 0.67745 0.94572 0.81874 0.0
H1641 H 0.66226 0.89549 0.75002 0.0
H1642 H 0.65602 0.88057 0.79489 0.0
H1643 H 0.67429 0.89055 0.77783 0.0
H1644 H 0.68043 0.89426 0.88176 0.0
H1645 H 0.66218 0.88441 0.89913 0.0
H1646 H 0.67278 0.90193 0.92485 0.0
H1647 H 0.65245 0.93223 0.84919 0.0
H1648 H 0.62806 0.91487 0.87228 0.0
H1649 H 0.63826 0.88181 0.86231 0.0
C1650 C 0.69275 0.92062 0.81332 0.0
C1651 C 0.70148 0.93501 0.80246 0.0
C1652 C 0.69576 0.94396 0.80363 0.0
C1653 C 0.6817 0.93879 0.81701 0.0
C1654 C 0.67341 0.9246 0.82823 0.0
C1655 C 0.67864 0.91558 0.82547 0.0
C1656 C 0.66733 0.9007 0.83733 0.0
C1657 C 0.66483 0.89127 0.78701 0.0
C1658 C 0.6709 0.89499 0.88883 0.0
C1659 C 0.655 0.9028 0.84768 0.0
C1660 C 0.65879 0.9167 0.84303 0.0
C1661 C 0.64932 0.92129 0.85244 0.0
C1662 C 0.63551 0.91137 0.86588 0.0
C1663 C 0.63126 0.897 0.86886 0.0
C1664 C 0.64119 0.89272 0.85994 0.0
H1665 H 0.06788 0.75968 0.78664 0.0
H1666 H 0.10082 0.80226 0.81751 0.0
H1667 H 0.11689 0.79378 0.84162 0.0
H1668 H 0.07673 0.74443 0.89968 0.0
H1669 H 0.07274 0.72867 0.86325 0.0
H1670 H 0.06375 0.73795 0.84586 0.0
H1671 H 0.07153 0.73963 0.74417 0.0
H1672 H 0.08046 0.73026 0.76117 0.0
H1673 H 0.08982 0.74711 0.72848 0.0
H1674 H 0.12951 0.78114 0.86113 0.0
H1675 H 0.13808 0.76475 0.87701 0.0
H1676 H 0.09697 0.72991 0.83908 0.0
C1677 C 0.07852 0.7672 0.79793 0.0
C1678 C 0.08313 0.78164 0.79997 0.0
C1679 C 0.09706 0.79115 0.81576 0.0
C1680 C 0.10628 0.78645 0.8295 0.0
C1681 C 0.1014 0.77217 0.82786 0.0
C1682 C 0.08786 0.76264 0.81272 0.0
C1683 C 0.0853 0.74783 0.81601 0.0
C1684 C 0.07396 0.73921 0.85875 0.0
C1685 C 0.08156 0.74079 0.75906 0.0
C1686 C 0.09954 0.75059 0.83504 0.0
C1687 C 0.10864 0.76474 0.84124 0.0
C1688 C 0.12249 0.77003 0.85672 0.0
C1689 C 0.12725 0.76063 0.86559 0.0
C1690 C 0.11818 0.74607 0.85959 0.0
C1691 C 0.10408 0.74098 0.84471 0.0
H1692 H 0.22937 0.3077 0.75409 0.0
H1693 H 0.21511 0.2903 0.91711 0.0
H1694 H 0.22744 0.31401 0.95706 0.0
H1695 H 0.26312 0.33549 0.79193 0.0
H1696 H 0.26287 0.34799 0.74504 0.0
H1697 H 0.25311 0.32965 0.72913 0.0
H1698 H 0.2305 0.33102 0.71971 0.0
H1699 H 0.24021 0.3494 0.73525 0.0
H1700 H 0.22513 0.33794 0.77585 0.0
H1701 H 0.24278 0.3395 0.98 0.0
H1702 H 0.25733 0.36529 0.98272 0.0
H1703 H 0.25964 0.36626 0.8043 0.0
C1704 C 0.22883 0.30892 0.79814 0.0
C1705 C 0.22135 0.2972 0.8326 0.0
C1706 C 0.22073 0.29917 0.88998 0.0
C1707 C 0.22776 0.31258 0.91308 0.0
C1708 C 0.23514 0.32393 0.87811 0.0
C1709 C 0.23549 0.32228 0.82175 0.0
C1710 C 0.2437 0.33627 0.79319 0.0
C1711 C 0.25646 0.33741 0.76305 0.0
C1712 C 0.23432 0.33881 0.75368 0.0
C1713 C 0.24805 0.34601 0.84234 0.0
C1714 C 0.2432 0.33868 0.89104 0.0
C1715 C 0.24647 0.34538 0.94209 0.0
C1716 C 0.25478 0.35998 0.94331 0.0
C1717 C 0.25943 0.3677 0.89376 0.0
C1718 C 0.25602 0.36059 0.84275 0.0
H1719 H 0.91345 0.6945 0.20691 0.0
H1720 H 0.95521 0.70153 0.23583 0.0
H1721 H 0.94671 0.67652 0.21968 0.0
H1722 H 0.89513 0.6602 0.27395 0.0
H1723 H 0.88093 0.65338 0.2252 0.0
H1724 H 0.89024 0.67175 0.24109 0.0
H1725 H 0.89547 0.67742 0.1373 0.0
H1726 H 0.88633 0.65908 0.12114 0.0
H1727 H 0.90417 0.66995 0.0994 0.0
H1728 H 0.93417 0.65125 0.19221 0.0
H1729 H 0.9178 0.62675 0.16656 0.0
H1730 H 0.8839 0.6358 0.16078 0.0
C1731 C 0.92077 0.69076 0.21052 0.0
C1732 C 0.93501 0.7 0.22256 0.0
C1733 C 0.94425 0.69466 0.22699 0.0
C1734 C 0.93954 0.68047 0.2176 0.0
C1735 C 0.92552 0.67172 0.20463 0.0
C1736 C 0.91621 0.67659 0.2021 0.0
C1737 C 0.90166 0.66495 0.1876 0.0
C1738 C 0.89138 0.66242 0.23478 0.0
C1739 C 0.89662 0.66804 0.13312 0.0
C1740 C 0.9043 0.65284 0.18147 0.0
C1741 C 0.91816 0.657 0.19099 0.0
C1742 C 0.92325 0.64782 0.18536 0.0
C1743 C 0.9139 0.63395 0.17042 0.0
C1744 C 0.89957 0.62936 0.16196 0.0
C1745 C 0.89476 0.63897 0.16752 0.0
H1746 H 0.36844 0.25844 0.20225 0.0
H1747 H 0.36624 0.25802 0.02382 0.0
H1748 H 0.34043 0.24529 0.0288 0.0
H1749 H 0.33847 0.22489 0.22791 0.0
H1750 H 0.33274 0.2305 0.28715 0.0
H1751 H 0.351 0.23915 0.2697 0.0
H1752 H 0.35174 0.26292 0.26652 0.0
H1753 H 0.33349 0.25436 0.28415 0.0
H1754 H 0.33967 0.2649 0.22278 0.0
H1755 H 0.31506 0.23138 0.05319 0.0
H1756 H 0.29157 0.21982 0.09498 0.0
H1757 H 0.31006 0.23146 0.25775 0.0
C1758 C 0.36248 0.25562 0.16432 0.0
C1759 C 0.36924 0.25904 0.11258 0.0
C1760 C 0.3612 0.25545 0.06376 0.0
C1761 C 0.34657 0.24819 0.06623 0.0
C1762 C 0.3402 0.24491 0.11787 0.0
C1763 C 0.34788 0.24873 0.16607 0.0
C1764 C 0.33844 0.24454 0.21618 0.0
C1765 C 0.34027 0.23415 0.25236 0.0
C1766 C 0.34099 0.25745 0.24935 0.0
C1767 C 0.32424 0.23759 0.18862 0.0
C1768 C 0.32553 0.23774 0.1319 0.0
C1769 C 0.31392 0.23136 0.09748 0.0
C1770 C 0.30064 0.22477 0.12157 0.0
C1771 C 0.29906 0.22486 0.17943 0.0
C1772 C 0.31102 0.2314 0.21335 0.0
H1773 H 0.74655 0.11219 0.21392 0.0
H1774 H 0.74623 0.10978 0.03559 0.0
H1775 H 0.76084 0.09865 0.04006 0.0
H1776 H 0.78149 0.11859 0.23761 0.0
H1777 H 0.77678 0.10746 0.29737 0.0
H1778 H 0.76705 0.11601 0.2802 0.0
H1779 H 0.74414 0.09211 0.27884 0.0
H1780 H 0.75379 0.0835 0.29619 0.0
H1781 H 0.74295 0.07832 0.23549 0.0
H1782 H 0.77615 0.0887 0.0639 0.0
H1783 H 0.78861 0.07763 0.10512 0.0
H1784 H 0.77699 0.08417 0.26845 0.0
C1785 C 0.74967 0.10939 0.1759 0.0
C1786 C 0.74546 0.11197 0.12432 0.0
C1787 C 0.74942 0.10791 0.0754 0.0
C1788 C 0.75774 0.10165 0.07758 0.0
C1789 C 0.76175 0.09927 0.12907 0.0
C1790 C 0.75764 0.10277 0.17741 0.0
C1791 C 0.76258 0.09819 0.22737 0.0
C1792 C 0.77257 0.11082 0.26271 0.0
C1793 C 0.75012 0.08739 0.26147 0.0
C1794 C 0.77019 0.09165 0.19956 0.0
C1795 C 0.76978 0.09263 0.14287 0.0
C1796 C 0.77644 0.08776 0.1082 0.0
C1797 C 0.78355 0.08156 0.13202 0.0
C1798 C 0.78371 0.08001 0.18991 0.0
C1799 C 0.77694 0.08514 0.22406 0.0
H1800 H 0.03205 0.45306 0.46719 0.0
H1801 H 0.04036 0.41871 0.45747 0.0
H1802 H 0.01585 0.40222 0.48312 0.0
H1803 H 0.00907 0.44089 0.58217 0.0
H1804 H 0.9975 0.44656 0.55567 0.0
H1805 H 0.01564 0.45565 0.53624 0.0
H1806 H 0.00874 0.45162 0.43301 0.0
H1807 H 0.99058 0.44268 0.4521 0.0
H1808 H 0.99724 0.43413 0.40858 0.0
H1809 H 0.99074 0.38973 0.51538 0.0
H1810 H 0.96617 0.3817 0.53945 0.0
H1811 H 0.97407 0.42411 0.52289 0.0
C1812 C 0.0287 0.44206 0.47014 0.0
C1813 C 0.03812 0.43716 0.46055 0.0
C1814 C 0.0333 0.42268 0.46436 0.0
C1815 C 0.01943 0.41325 0.47928 0.0
C1816 C 0.01049 0.41847 0.48945 0.0
C1817 C 0.01486 0.4325 0.48405 0.0
C1818 C 0.0031 0.4354 0.49565 0.0
C1819 C 0.00654 0.4452 0.54539 0.0
C1820 C 0.99971 0.4413 0.44427 0.0
C1821 C 0.99142 0.42081 0.50887 0.0
C1822 C 0.99593 0.41122 0.50578 0.0
C1823 C 0.98707 0.39714 0.5175 0.0
C1824 C 0.97316 0.39269 0.53151 0.0
C1825 C 0.96819 0.40227 0.53292 0.0
C1826 C 0.97753 0.41653 0.52193 0.0
H1827 H 0.59477 0.55775 0.46927 0.0
H1828 H 0.59203 0.5585 0.64729 0.0
H1829 H 0.57786 0.57006 0.63923 0.0
H1830 H 0.59937 0.59209 0.4495 0.0
H1831 H 0.58962 0.58771 0.386 0.0
H1832 H 0.59866 0.57861 0.40553 0.0
H1833 H 0.57559 0.55499 0.39759 0.0
H1834 H 0.56646 0.56402 0.37815 0.0
H1835 H 0.56052 0.55229 0.43622 0.0
H1836 H 0.56336 0.5806 0.61179 0.0
H1837 H 0.55191 0.59236 0.56793 0.0
H1838 H 0.56612 0.58723 0.40762 0.0
C1839 C 0.59106 0.56026 0.50642 0.0
C1840 C 0.59427 0.5571 0.55895 0.0
C1841 C 0.58958 0.56081 0.60678 0.0
C1842 C 0.58151 0.56731 0.60255 0.0
C1843 C 0.57851 0.5703 0.55017 0.0
C1844 C 0.58334 0.56714 0.50295 0.0
C1845 C 0.57944 0.57237 0.45194 0.0
C1846 C 0.59255 0.58335 0.42146 0.0
C1847 C 0.56993 0.56019 0.41373 0.0
C1848 C 0.57157 0.57888 0.47786 0.0
C1849 C 0.57096 0.57732 0.5345 0.0
C1850 C 0.56386 0.582 0.56755 0.0
C1851 C 0.55733 0.5886 0.5422 0.0
C1852 C 0.55818 0.59074 0.48445 0.0
C1853 C 0.56541 0.58582 0.45189 0.0
H1854 H 0.44835 0.03672 0.47185 0.0
H1855 H 0.44984 0.03449 0.6499 0.0
H1856 H 0.43819 0.00874 0.64451 0.0
H1857 H 0.41393 0.00706 0.45877 0.0
H1858 H 0.41746 1.00114 0.3948 0.0
H1859 H 0.42691 0.01942 0.41212 0.0
H1860 H 0.45031 0.01967 0.40029 0.0
H1861 H 0.44093 1.00138 0.38298 0.0
H1862 H 0.45333 0.00749 0.43884 0.0
H1863 H 0.42692 0.98349 0.61989 0.0
H1864 H 0.41425 0.95997 0.57895 0.0
H1865 H 0.41791 0.97822 0.41718 0.0
C1866 C 0.44634 0.03078 0.50954 0.0
C1867 C 0.45012 0.03752 0.5613 0.0
C1868 C 0.44705 0.02946 0.60993 0.0
C1869 C 0.4405 0.01487 0.60722 0.0
C1870 C 0.43684 0.00851 0.55562 0.0
C1871 C 0.43945 0.01616 0.50767 0.0
C1872 C 0.43355 0.00666 0.45792 0.0
C1873 C 0.42229 0.00869 0.42923 0.0
C1874 C 0.44523 0.00894 0.41764 0.0
C1875 C 0.42726 0.99247 0.48543 0.0
C1876 C 0.42951 0.99383 0.54168 0.0
C1877 C 0.42501 0.98228 0.57595 0.0
C1878 C 0.41788 0.96897 0.55225 0.0
C1879 C 0.41506 0.96727 0.49495 0.0
C1880 C 0.41984 0.97921 0.46115 0.0
H1881 H 0.58738 0.02534 0.60446 0.0
H1882 H 0.60246 0.04277 0.44222 0.0
H1883 H 0.59255 0.019 0.4037 0.0
H1884 H 0.59218 0.99549 0.59402 0.0
H1885 H 0.57612 0.98373 0.62877 0.0
H1886 H 0.58502 0.00211 0.64456 0.0
H1887 H 0.56262 0.003 0.6214 0.0
H1888 H 0.55364 0.98462 0.60582 0.0
H1889 H 0.55441 0.9969 0.55516 0.0
H1890 H 0.58218 0.99353 0.38376 0.0
H1891 H 0.56889 0.96772 0.38055 0.0
H1892 H 0.5581 0.96656 0.553 0.0
C1893 C 0.58858 0.02407 0.56091 0.0
C1894 C 0.59573 0.0358 0.52619 0.0
C1895 C 0.59697 0.03386 0.46929 0.0
C1896 C 0.59145 0.02043 0.44716 0.0
C1897 C 0.58447 0.00904 0.48231 0.0
C1898 C 0.58274 0.01068 0.53773 0.0
C1899 C 0.57397 0.99664 0.56549 0.0
C1900 C 0.58233 0.99436 0.61089 0.0
C1901 C 0.56035 0.99521 0.5883 0.0
C1902 C 0.57118 0.9869 0.51713 0.0
C1903 C 0.57757 0.99428 0.46982 0.0
C1904 C 0.57699 0.98761 0.42036 0.0
C1905 C 0.56949 0.97298 0.41896 0.0
C1906 C 0.56242 0.96522 0.46635 0.0
C1907 C 0.5633 0.97228 0.51604 0.0
H1908 H 0.97307 0.55222 0.52391 0.0
H1909 H 0.9636 0.58576 0.53438 0.0
H1910 H 0.98796 0.60277 0.50853 0.0
H1911 H 0.00738 0.57166 0.58377 0.0
H1912 H 0.01469 0.56366 0.54065 0.0
H1913 H 0.99643 0.55419 0.55811 0.0
H1914 H 0.99007 0.5504 0.45434 0.0
H1915 H 0.00831 0.55994 0.43656 0.0
H1916 H 0.99658 0.5653 0.40915 0.0
H1917 H 0.01327 0.61598 0.47774 0.0
H1918 H 0.03807 0.62465 0.45466 0.0
H1919 H 0.03116 0.58259 0.47077 0.0
C1920 C 0.97611 0.56314 0.52063 0.0
C1921 C 0.96643 0.56767 0.53075 0.0
C1922 C 0.97086 0.58208 0.52686 0.0
C1923 C 0.98465 0.5918 0.51195 0.0
C1924 C 0.99391 0.58697 0.50189 0.0
C1925 C 0.98987 0.573 0.50688 0.0
C1926 C 1.00197 0.57056 0.49622 0.0
C1927 C 0.00532 0.56468 0.54776 0.0
C1928 C 0.99906 0.56099 0.44608 0.0
C1929 C 0.01345 0.58533 0.48415 0.0
C1930 C 0.00857 0.59463 0.48688 0.0
C1931 C 0.01722 0.60881 0.4759 0.0
C1932 C 0.03126 0.61362 0.46258 0.0
C1933 C 0.03655 0.60431 0.46126 0.0
C1934 C 0.02746 0.58999 0.47196 0.0
H1935 H 0.39987 0.42577 0.46091 0.0
H1936 H 0.43491 0.46794 0.44555 0.0
H1937 H 0.4512 0.45929 0.46344 0.0
H1938 H 0.41385 0.416 0.57298 0.0
H1939 H 0.40727 0.39827 0.55046 0.0
H1940 H 0.3982 0.4074 0.53187 0.0
H1941 H 0.40001 0.40264 0.42857 0.0
H1942 H 0.40895 0.39335 0.44688 0.0
H1943 H 0.41687 0.40776 0.39925 0.0
H1944 H 0.46365 0.44654 0.48568 0.0
H1945 H 0.4718 0.43023 0.51037 0.0
H1946 H 0.42887 0.39616 0.51561 0.0
C1947 C 0.41099 0.43311 0.46022 0.0
C1948 C 0.41615 0.44752 0.45136 0.0
C1949 C 0.43074 0.45686 0.45209 0.0
C1950 C 0.44007 0.45206 0.46221 0.0
C1951 C 0.43467 0.43788 0.47202 0.0
C1952 C 0.42049 0.4285 0.47109 0.0
C1953 C 0.4175 0.4139 0.48558 0.0
C1954 C 0.40868 0.40858 0.53836 0.0
C1955 C 0.41041 0.40382 0.43718 0.0
C1956 C 0.43221 0.4166 0.49495 0.0
C1957 C 0.44191 0.4305 0.48654 0.0
C1958 C 0.45617 0.43561 0.49228 0.0
C1959 C 0.46068 0.42625 0.50638 0.0
C1960 C 0.45098 0.41191 0.51506 0.0
C1961 C 0.43653 0.40707 0.5097 0.0
H1962 H 0.25374 0.10363 0.14965 0.0
H1963 H 0.24647 0.09126 0.32152 0.0
H1964 H 0.24397 0.11184 0.34251 0.0
H1965 H 0.2741 0.13997 0.17152 0.0
H1966 H 0.26693 0.1445 0.11363 0.0
H1967 H 0.26755 0.12855 0.11261 0.0
H1968 H 0.24087 0.11445 0.09488 0.0
H1969 H 0.24018 0.13038 0.09587 0.0
H1970 H 0.2292 0.11626 0.14158 0.0
H1971 H 0.24364 0.13489 0.34458 0.0
H1972 H 0.24494 0.15759 0.32703 0.0
H1973 H 0.25173 0.15386 0.1533 0.0
C1974 C 0.25155 0.10517 0.19174 0.0
C1975 C 0.25034 0.09585 0.234 0.0
C1976 C 0.24742 0.09825 0.28845 0.0
C1977 C 0.24599 0.10992 0.30074 0.0
C1978 C 0.24737 0.11897 0.258 0.0
C1979 C 0.24999 0.11662 0.20453 0.0
C1980 C 0.25124 0.12793 0.16595 0.0
C1981 C 0.26582 0.13569 0.1394 0.0
C1982 C 0.23968 0.12189 0.12199 0.0
C1983 C 0.24913 0.13716 0.20605 0.0
C1984 C 0.2469 0.13188 0.25899 0.0
C1985 C 0.24525 0.13902 0.30314 0.0
C1986 C 0.246 0.15191 0.29282 0.0
C1987 C 0.24833 0.15747 0.23877 0.0
C1988 C 0.24977 0.14986 0.19503 0.0
H1989 H 0.856 0.099 0.16186 0.0
H1990 H 0.84801 0.09231 0.33738 0.0
H1991 H 0.8707 0.11358 0.35628 0.0
H1992 H 0.89389 0.11309 0.16778 0.0
H1993 H 0.89716 0.12549 0.11356 0.0
H1994 H 0.88103 0.10905 0.11468 0.0
H1995 H 0.86712 0.12219 0.11246 0.0
H1996 H 0.88317 0.13863 0.11153 0.0
H1997 H 0.8704 0.13513 0.16442 0.0
H1998 H 0.89362 0.13687 0.355 0.0
H1999 H 0.91437 0.15977 0.33365 0.0
H2000 H 0.90684 0.15073 0.159 0.0
C2001 C 0.8591 0.10182 0.20438 0.0
C2002 C 0.85024 0.09393 0.24817 0.0
C2003 C 0.85465 0.09814 0.30315 0.0
C2004 C 0.86753 0.1102 0.31426 0.0
C2005 C 0.87588 0.11789 0.26995 0.0
C2006 C 0.87184 0.11379 0.21611 0.0
C2007 C 0.88221 0.12421 0.17563 0.0
C2008 C 0.88897 0.11756 0.14087 0.0
C2009 C 0.87531 0.1304 0.13888 0.0
C2010 C 0.89262 0.135 0.21496 0.0
C2011 C 0.8889 0.13117 0.26923 0.0
C2012 C 0.89669 0.13988 0.31263 0.0
C2013 C 0.90846 0.15287 0.30013 0.0
C2014 C 0.91228 0.15704 0.24468 0.0
C2015 C 0.9043 0.14784 0.20184 0.0
H2016 H 0.90377 0.74973 0.25527 0.0
H2017 H 0.9081 0.74386 0.08096 0.0
H2018 H 0.88786 0.74661 0.06051 0.0
H2019 H 0.86671 0.73011 0.25703 0.0
H2020 H 0.86448 0.74121 0.30543 0.0
H2021 H 0.88015 0.74007 0.30691 0.0
H2022 H 0.89508 0.7669 0.29611 0.0
H2023 H 0.87944 0.76812 0.29458 0.0
H2024 H 0.89185 0.77531 0.23896 0.0
H2025 H 0.86675 0.74857 0.05806 0.0
H2026 H 0.84504 0.74898 0.07396 0.0
H2027 H 0.85334 0.75332 0.24992 0.0
C2028 C 0.90055 0.74924 0.21282 0.0
C2029 C 0.90755 0.74662 0.16967 0.0
C2030 C 0.9029 0.74582 0.11471 0.0
C2031 C 0.89144 0.74743 0.10257 0.0
C2032 C 0.88466 0.74982 0.14583 0.0
C2033 C 0.88895 0.75069 0.19988 0.0
C2034 C 0.87914 0.75248 0.23854 0.0
C2035 C 0.87221 0.74024 0.27938 0.0
C2036 C 0.88684 0.76654 0.26884 0.0
C2037 C 0.8686 0.75223 0.19767 0.0
C2038 C 0.87214 0.75082 0.14445 0.0
C2039 C 0.86389 0.74978 0.09947 0.0
C2040 C 0.85154 0.74999 0.10901 0.0
C2041 C 0.84749 0.75121 0.16315 0.0
C2042 C 0.85625 0.75254 0.20804 0.0
H2043 H 0.09946 0.25067 0.72565 0.0
H2044 H 0.08467 0.23663 0.89177 0.0
H2045 H 0.10399 0.232 0.90704 0.0
H2046 H 0.11337 0.22648 0.6984 0.0
H2047 H 0.1284 0.23967 0.66204 0.0
H2048 H 0.11221 0.23987 0.66045 0.0
H2049 H 0.12498 0.26527 0.69696 0.0
H2050 H 0.14117 0.26513 0.69889 0.0
H2051 H 0.13476 0.26922 0.76029 0.0
H2052 H 0.12586 0.23133 0.90897 0.0
H2053 H 0.14955 0.23496 0.89813 0.0
H2054 H 0.15122 0.24982 0.73123 0.0
C2055 C 0.1001 0.24621 0.76451 0.0
C2056 C 0.09048 0.24382 0.80736 0.0
C2057 C 0.09188 0.23844 0.85837 0.0
C2058 C 0.10279 0.23573 0.86736 0.0
C2059 C 0.11231 0.23852 0.82501 0.0
C2060 C 0.11113 0.24363 0.77451 0.0
C2061 C 0.12365 0.24701 0.73828 0.0
C2062 C 0.11913 0.2377 0.68673 0.0
C2063 C 0.13161 0.26258 0.72272 0.0
C2064 C 0.13217 0.24337 0.77693 0.0
C2065 C 0.12528 0.23832 0.82641 0.0
C2066 C 0.13129 0.23508 0.87016 0.0
C2067 C 0.14478 0.23722 0.86363 0.0
C2068 C 0.15221 0.24259 0.81375 0.0
C2069 C 0.1457 0.24547 0.76946 0.0
H2070 H 0.74653 0.85184 0.86967 0.0
H2071 H 0.76046 0.8511 0.70323 0.0
H2072 H 0.76244 0.87405 0.68505 0.0
H2073 H 0.7254 0.86632 0.83611 0.0
H2074 H 0.72957 0.87678 0.89767 0.0
H2075 H 0.73019 0.86083 0.89832 0.0
H2076 H 0.75585 0.87437 0.93206 0.0
H2077 H 0.7553 0.89037 0.93169 0.0
H2078 H 0.76858 0.88917 0.89315 0.0
H2079 H 0.76178 0.89681 0.68433 0.0
H2080 H 0.75855 0.91711 0.70127 0.0
H2081 H 0.74493 0.90243 0.86797 0.0
C2082 C 0.75017 0.85655 0.82954 0.0
C2083 C 0.7534 0.84968 0.78793 0.0
C2084 C 0.75798 0.85618 0.73584 0.0
C2085 C 0.75914 0.86922 0.72514 0.0
C2086 C 0.75569 0.87562 0.76697 0.0
C2087 C 0.75134 0.86949 0.81819 0.0
C2088 C 0.74776 0.87819 0.8556 0.0
C2089 C 0.73231 0.87004 0.87292 0.0
C2090 C 0.75745 0.88333 0.9061 0.0
C2091 C 0.75061 0.89013 0.81735 0.0
C2092 C 0.75525 0.88854 0.76647 0.0
C2093 C 0.75823 0.89818 0.72416 0.0
C2094 C 0.75636 0.90967 0.73414 0.0
C2095 C 0.75151 0.9114 0.78594 0.0
C2096 C 0.7487 0.90148 0.82795 0.0
H2097 H 0.15231 0.90222 0.87068 0.0
H2098 H 0.15666 0.9152 0.69969 0.0
H2099 H 0.13338 0.89488 0.6794 0.0
H2100 H 0.13656 0.86627 0.84556 0.0
H2101 H 0.12512 0.86123 0.9044 0.0
H2102 H 0.14152 0.87733 0.90561 0.0
H2103 H 0.12863 0.89092 0.9275 0.0
H2104 H 0.11215 0.87483 0.92624 0.0
H2105 H 0.11487 0.88915 0.8825 0.0
H2106 H 0.1101 0.87196 0.67728 0.0
H2107 H 0.08934 0.8487 0.69339 0.0
H2108 H 0.10061 0.85139 0.86604 0.0
C2109 C 0.14834 0.90092 0.82902 0.0
C2110 C 0.15631 0.91033 0.78677 0.0
C2111 C 0.15072 0.90816 0.73278 0.0
C2112 C 0.1375 0.89665 0.7209 0.0
C2113 C 0.12998 0.88749 0.76356 0.0
C2114 C 0.13521 0.88957 0.81657 0.0
C2115 C 0.12545 0.87795 0.8547 0.0
C2116 C 0.13259 0.87024 0.87896 0.0
C2117 C 0.11995 0.88355 0.90043 0.0
C2118 C 0.114 0.86882 0.81475 0.0
C2119 C 0.11669 0.8745 0.76241 0.0
C2120 C 0.10783 0.86751 0.71826 0.0
C2121 C 0.09605 0.85431 0.72779 0.0
C2122 C 0.09329 0.84824 0.78101 0.0
C2123 C 0.10231 0.85577 0.82497 0.0
H2124 H 0.92817 0.4393 0.47147 0.0
H2125 H 0.91339 0.42322 0.63574 0.0
H2126 H 0.91111 0.44394 0.65613 0.0
H2127 H 0.94865 0.47495 0.50875 0.0
H2128 H 0.94448 0.48134 0.44749 0.0
H2129 H 0.94439 0.46504 0.44569 0.0
H2130 H 0.91887 0.45248 0.41018 0.0
H2131 H 0.91889 0.46877 0.41173 0.0
H2132 H 0.9057 0.45387 0.44879 0.0
H2133 H 0.91134 0.46718 0.65895 0.0
H2134 H 0.91366 0.49039 0.64333 0.0
H2135 H 0.92811 0.49065 0.47689 0.0
C2136 C 0.92436 0.44004 0.51169 0.0
C2137 C 0.92095 0.42961 0.55202 0.0
C2138 C 0.91603 0.43106 0.60413 0.0
C2139 C 0.91472 0.4428 0.61608 0.0
C2140 C 0.9183 0.45295 0.57541 0.0
C2141 C 0.92297 0.45162 0.52419 0.0
C2142 C 0.92637 0.46402 0.48775 0.0
C2143 C 0.94189 0.4718 0.47149 0.0
C2144 C 0.91689 0.45951 0.4366 0.0
C2145 C 0.92301 0.47264 0.52652 0.0
C2146 C 0.91836 0.46612 0.5769 0.0
C2147 C 0.91491 0.47233 0.61951 0.0
C2148 C 0.91627 0.48551 0.6103 0.0
C2149 C 0.92103 0.49234 0.55887 0.0
C2150 C 0.92437 0.48572 0.51661 0.0
H2151 H 0.52238 0.43275 0.47149 0.0
H2152 H 0.51789 0.41936 0.64196 0.0
H2153 H 0.54063 0.44029 0.66385 0.0
H2154 H 0.56037 0.44802 0.46186 0.0
H2155 H 0.56224 0.46211 0.4187 0.0
H2156 H 0.54642 0.44542 0.41615 0.0
H2157 H 0.53197 0.45743 0.43762 0.0
H2158 H 0.54772 0.47413 0.44057 0.0
H2159 H 0.53594 0.46812 0.49845 0.0
H2160 H 0.56318 0.464 0.66778 0.0
H2161 H 0.58323 0.48781 0.65313 0.0
H2162 H 0.57232 0.48514 0.48007 0.0
C2163 C 0.52626 0.43403 0.5133 0.0
C2164 C 0.51837 0.42435 0.55498 0.0
C2165 C 0.52379 0.42657 0.60925 0.0
C2166 C 0.53669 0.43844 0.62205 0.0
C2167 C 0.54405 0.44794 0.58006 0.0
C2168 C 0.53903 0.44576 0.52669 0.0
C2169 C 0.54841 0.45782 0.48949 0.0
C2170 C 0.55474 0.45306 0.44386 0.0
C2171 C 0.54054 0.46478 0.46513 0.0
C2172 C 0.5594 0.4673 0.53034 0.0
C2173 C 0.55682 0.46143 0.58234 0.0
C2174 C 0.56535 0.46861 0.62707 0.0
C2175 C 0.57671 0.48213 0.61839 0.0
C2176 C 0.5794 0.48835 0.56545 0.0
C2177 C 0.57065 0.48069 0.52101 0.0
H2178 H 0.5722 0.08593 0.48907 0.0
H2179 H 0.58164 0.08989 0.66391 0.0
H2180 H 0.56107 0.09257 0.68196 0.0
H2181 H 0.55946 0.11064 0.48313 0.0
H2182 H 0.54604 0.10026 0.43382 0.0
H2183 H 0.56207 0.09977 0.43484 0.0
H2184 H 0.54801 0.07287 0.44615 0.0
H2185 H 0.53196 0.07328 0.4452 0.0
H2186 H 0.53582 0.06536 0.50236 0.0
H2187 H 0.53841 0.09342 0.68068 0.0
H2188 H 0.51577 0.09194 0.6604 0.0
H2189 H 0.52155 0.08729 0.48645 0.0
C2190 C 0.57009 0.08755 0.53117 0.0
C2191 C 0.57859 0.08776 0.57508 0.0
C2192 C 0.57532 0.08975 0.62957 0.0
C2193 C 0.56367 0.0913 0.64019 0.0
C2194 C 0.55541 0.09087 0.59587 0.0
C2195 C 0.55853 0.08907 0.54244 0.0
C2196 C 0.5477 0.08826 0.50222 0.0
C2197 C 0.55421 0.10046 0.46108 0.0
C2198 C 0.54045 0.0741 0.47225 0.0
C2199 C 0.53784 0.08967 0.54135 0.0
C2200 C 0.54248 0.09128 0.59517 0.0
C2201 C 0.53476 0.09228 0.6386 0.0
C2202 C 0.52191 0.09144 0.62669 0.0
C2203 C 0.51689 0.08955 0.57183 0.0
C2204 C 0.52511 0.08884 0.5288 0.0
H2205 H 0.76952 0.58829 0.20125 0.0
H2206 H 0.75858 0.58057 0.02806 0.0
H2207 H 0.77962 0.57857 0.01118 0.0
H2208 H 0.80591 0.6097 0.18166 0.0
H2209 H 0.81055 0.60323 0.24144 0.0
H2210 H 0.79425 0.60315 0.23987 0.0
H2211 H 0.78088 0.57658 0.25995 0.0
H2212 H 0.79715 0.57657 0.26171 0.0
H2213 H 0.78345 0.56497 0.21566 0.0
H2214 H 0.80254 0.57809 0.01376 0.0
H2215 H 0.82522 0.57971 0.03511 0.0
H2216 H 0.82085 0.58828 0.20616 0.0
C2217 C 0.77142 0.58603 0.15978 0.0
C2218 C 0.76234 0.5845 0.116 0.0
C2219 C 0.76536 0.58172 0.06229 0.0
C2220 C 0.77727 0.58056 0.05235 0.0
C2221 C 0.78607 0.58225 0.09652 0.0
C2222 C 0.78326 0.58494 0.14915 0.0
C2223 C 0.79455 0.58687 0.18932 0.0
C2224 C 0.80174 0.60161 0.21453 0.0
C2225 C 0.78865 0.57557 0.2343 0.0
C2226 C 0.80426 0.58496 0.15113 0.0
C2227 C 0.7992 0.58221 0.09781 0.0
C2228 C 0.80655 0.58021 0.05543 0.0
C2229 C 0.81942 0.58114 0.06793 0.0
C2230 C 0.82483 0.58414 0.12226 0.0
C2231 C 0.81704 0.58599 0.16418 0.0
H2232 H 0.41148 0.17851 0.20067 0.0
H2233 H 0.42367 0.17609 0.03293 0.0
H2234 H 0.4269 0.19953 0.01396 0.0
H2235 H 0.39185 0.19481 0.16946 0.0
H2236 H 0.39712 0.20558 0.23037 0.0
H2237 H 0.39659 0.18906 0.23109 0.0
H2238 H 0.42252 0.2014 0.26152 0.0
H2239 H 0.42313 0.21798 0.26091 0.0
H2240 H 0.43549 0.2156 0.22082 0.0
H2241 H 0.42759 0.22295 0.01266 0.0
H2242 H 0.42571 0.24404 0.02918 0.0
H2243 H 0.41326 0.23079 0.19806 0.0
C2244 C 0.41495 0.18293 0.16002 0.0
C2245 C 0.41734 0.17545 0.11829 0.0
C2246 C 0.42181 0.18163 0.06561 0.0
C2247 C 0.42368 0.19494 0.05448 0.0
C2248 C 0.4211 0.20196 0.09653 0.0
C2249 C 0.41688 0.19615 0.1483 0.0
C2250 C 0.41437 0.20557 0.18601 0.0
C2251 C 0.39907 0.19832 0.20534 0.0
C2252 C 0.42448 0.21042 0.23522 0.0
C2253 C 0.41764 0.21753 0.14726 0.0
C2254 C 0.42156 0.21533 0.09587 0.0
C2255 C 0.42463 0.22481 0.0529 0.0
C2256 C 0.42354 0.23677 0.06266 0.0
C2257 C 0.4194 0.23913 0.11496 0.0
C2258 C 0.41656 0.22939 0.15773 0.0
H2259 H 0.76863 0.18365 0.20115 0.0
H2260 H 0.75582 0.18019 0.03017 0.0
H2261 H 0.77625 0.20351 0.01144 0.0
H2262 H 0.78211 0.22115 0.21612 0.0
H2263 H 0.79634 0.22347 0.25952 0.0
H2264 H 0.78014 0.2071 0.25983 0.0
H2265 H 0.79348 0.19406 0.2362 0.0
H2266 H 0.8097 0.21037 0.23571 0.0
H2267 H 0.80452 0.19916 0.17609 0.0
H2268 H 0.79921 0.22671 0.01075 0.0
H2269 H 0.82241 0.24742 0.02807 0.0
H2270 H 0.81972 0.23524 0.19957 0.0
C2271 C 0.76997 0.18785 0.15987 0.0
C2272 C 0.76058 0.1801 0.11714 0.0
C2273 C 0.76284 0.18596 0.06362 0.0
C2274 C 0.77441 0.19919 0.05263 0.0
C2275 C 0.78357 0.20646 0.09565 0.0
C2276 C 0.78141 0.20097 0.14825 0.0
C2277 C 0.79308 0.21047 0.18681 0.0
C2278 C 0.78759 0.21587 0.23331 0.0
C2279 C 0.80064 0.20307 0.21004 0.0
C2280 C 0.80232 0.22207 0.14758 0.0
C2281 C 0.79665 0.21966 0.09524 0.0
C2282 C 0.80366 0.22874 0.05173 0.0
C2283 C 0.81683 0.24049 0.06195 0.0
C2284 C 0.82287 0.243 0.11521 0.0
C2285 C 0.81537 0.23371 0.15848 0.0
H2286 H 0.58518 0.76412 0.92765 0.0
H2287 H 0.57867 0.75372 0.75354 0.0
H2288 H 0.57728 0.77483 0.73554 0.0
H2289 H 0.56203 0.77955 0.93497 0.0
H2290 H 0.57341 0.79311 0.982 0.0
H2291 H 0.57263 0.77643 0.98291 0.0
H2292 H 0.59938 0.78881 0.96855 0.0
H2293 H 0.60024 0.8055 0.96725 0.0
H2294 H 0.60707 0.80028 0.91034 0.0
H2295 H 0.57906 0.79785 0.73351 0.0
H2296 H 0.5826 0.8214 0.74856 0.0
H2297 H 0.58718 0.81739 0.92417 0.0
C2298 C 0.58316 0.76615 0.88601 0.0
C2299 C 0.58202 0.75723 0.84202 0.0
C2300 C 0.5796 0.76037 0.78794 0.0
C2301 C 0.57876 0.77234 0.77722 0.0
C2302 C 0.58026 0.78109 0.82102 0.0
C2303 C 0.58227 0.77815 0.87446 0.0
C2304 C 0.58422 0.78979 0.91324 0.0
C2305 C 0.57236 0.78439 0.9558 0.0
C2306 C 0.59858 0.79649 0.94149 0.0
C2307 C 0.58332 0.79981 0.87287 0.0
C2308 C 0.581 0.79449 0.81997 0.0
C2309 C 0.58065 0.80206 0.77482 0.0
C2310 C 0.58276 0.81546 0.78377 0.0
C2311 C 0.58507 0.82117 0.83751 0.0
C2312 C 0.5852 0.81317 0.88277 0.0
H2313 H 0.18922 0.77341 0.80479 0.0
H2314 H 0.18862 0.75764 0.96905 0.0
H2315 H 0.21075 0.77931 0.99064 0.0
H2316 H 0.22691 0.7913 0.78431 0.0
H2317 H 0.22709 0.80558 0.74785 0.0
H2318 H 0.2119 0.78842 0.74478 0.0
H2319 H 0.19658 0.79848 0.77975 0.0
H2320 H 0.21172 0.81564 0.78327 0.0
H2321 H 0.20104 0.80811 0.84356 0.0
H2322 H 0.23254 0.80367 0.9951 0.0
H2323 H 0.25172 0.82801 0.98173 0.0
H2324 H 0.23731 0.82734 0.81486 0.0
C2325 C 0.19382 0.77437 0.84511 0.0
C2326 C 0.18721 0.76377 0.88515 0.0
C2327 C 0.19353 0.76558 0.93758 0.0
C2328 C 0.20609 0.77786 0.95021 0.0
C2329 C 0.21219 0.78822 0.90993 0.0
C2330 C 0.20625 0.78652 0.85836 0.0
C2331 C 0.21442 0.79935 0.82293 0.0
C2332 C 0.22044 0.79596 0.77196 0.0
C2333 C 0.2054 0.80577 0.80644 0.0
C2334 C 0.22583 0.80866 0.86273 0.0
C2335 C 0.22447 0.80208 0.91264 0.0
C2336 C 0.23372 0.80886 0.95602 0.0
C2337 C 0.24458 0.82269 0.9481 0.0
C2338 C 0.24604 0.8296 0.89728 0.0
C2339 C 0.23653 0.82238 0.85421 0.0
H2340 H 0.18864 0.42213 0.92217 0.0
H2341 H 0.18501 0.42813 0.74754 0.0
H2342 H 0.20795 0.4303 0.7312 0.0
H2343 H 0.22737 0.44563 0.93204 0.0
H2344 H 0.22934 0.43415 0.97928 0.0
H2345 H 0.21347 0.43498 0.97916 0.0
H2346 H 0.19909 0.40824 0.96405 0.0
H2347 H 0.21488 0.40734 0.96389 0.0
H2348 H 0.20307 0.40062 0.90618 0.0
H2349 H 0.22954 0.42908 0.73097 0.0
H2350 H 0.24905 0.42481 0.74718 0.0
H2351 H 0.23953 0.41971 0.92197 0.0
C2352 C 0.19289 0.42429 0.88084 0.0
C2353 C 0.18509 0.42507 0.83614 0.0
C2354 C 0.1908 0.42752 0.78237 0.0
C2355 C 0.20386 0.42882 0.77267 0.0
C2356 C 0.21114 0.42765 0.81716 0.0
C2357 C 0.20595 0.4255 0.87028 0.0
C2358 C 0.21546 0.42347 0.9097 0.0
C2359 C 0.22179 0.43526 0.95259 0.0
C2360 C 0.20766 0.40906 0.93757 0.0
C2361 C 0.22653 0.42441 0.87007 0.0
C2362 C 0.22384 0.42697 0.81703 0.0
C2363 C 0.23191 0.42731 0.77242 0.0
C2364 C 0.24294 0.42482 0.78203 0.0
C2365 C 0.24587 0.42205 0.83584 0.0
C2366 C 0.23769 0.42208 0.88058 0.0
H2367 H 0.43297 0.91557 0.52623 0.0
H2368 H 0.42419 0.91196 0.35089 0.0
H2369 H 0.44545 0.91042 0.33361 0.0
H2370 H 0.46896 0.93773 0.51481 0.0
H2371 H 0.47336 0.93023 0.5719 0.0
H2372 H 0.45675 0.92949 0.57047 0.0
H2373 H 0.44405 0.90256 0.58056 0.0
H2374 H 0.46065 0.90322 0.58232 0.0
H2375 H 0.44768 0.89241 0.53223 0.0
H2376 H 0.46876 0.91076 0.33598 0.0
H2377 H 0.49187 0.91341 0.35755 0.0
H2378 H 0.48512 0.91745 0.53104 0.0
C2379 C 0.43532 0.91418 0.48419 0.0
C2380 C 0.42683 0.91377 0.43992 0.0
C2381 C 0.43048 0.9122 0.3855 0.0
C2382 C 0.44254 0.91132 0.37532 0.0
C2383 C 0.45082 0.91202 0.42001 0.0
C2384 C 0.44731 0.9134 0.47337 0.0
C2385 C 0.45831 0.91483 0.51404 0.0
C2386 C 0.46472 0.9289 0.54457 0.0
C2387 C 0.45231 0.90252 0.55468 0.0
C2388 C 0.46871 0.91428 0.4753 0.0
C2389 C 0.4642 0.91251 0.42126 0.0
C2390 C 0.47234 0.91206 0.37823 0.0
C2391 C 0.48544 0.91357 0.39085 0.0
C2392 C 0.49032 0.91565 0.44595 0.0
C2393 C 0.48172 0.91587 0.48849 0.0
H2394 H 0.08407 0.57088 0.41015 0.0
H2395 H 0.07737 0.57439 0.5844 0.0
H2396 H 0.07771 0.55272 0.60263 0.0
H2397 H 0.06224 0.53389 0.40192 0.0
H2398 H 0.07328 0.53124 0.35471 0.0
H2399 H 0.07335 0.54756 0.35474 0.0
H2400 H 0.10009 0.56091 0.37038 0.0
H2401 H 0.1001 0.54462 0.37028 0.0
H2402 H 0.10728 0.55634 0.42808 0.0
H2403 H 0.07755 0.53041 0.6027 0.0
H2404 H 0.07715 0.50836 0.58472 0.0
H2405 H 0.08411 0.51857 0.41053 0.0
C2406 C 0.08284 0.56715 0.45216 0.0
C2407 C 0.08071 0.57438 0.49585 0.0
C2408 C 0.079 0.56907 0.55019 0.0
C2409 C 0.0792 0.55677 0.56107 0.0
C2410 C 0.08115 0.54982 0.51725 0.0
C2411 C 0.08298 0.55477 0.46387 0.0
C2412 C 0.08441 0.54489 0.4244 0.0
C2413 C 0.07262 0.53905 0.38141 0.0
C2414 C 0.09883 0.55212 0.39665 0.0
C2415 C 0.08293 0.53358 0.46401 0.0
C2416 C 0.08111 0.53674 0.51733 0.0
C2417 C 0.07907 0.52784 0.5612 0.0
C2418 C 0.07882 0.5153 0.55046 0.0
C2419 C 0.08062 0.51171 0.49624 0.0
C2420 C 0.08282 0.52107 0.45247 0.0
H2421 H 0.48827 0.56902 0.38386 0.0
H2422 H 0.48712 0.58499 0.54589 0.0
H2423 H 0.46305 0.56575 0.55875 0.0
H2424 H 0.45034 0.55493 0.34914 0.0
H2425 H 0.44892 0.53971 0.31578 0.0
H2426 H 0.46527 0.55596 0.31484 0.0
H2427 H 0.47766 0.54357 0.3575 0.0
H2428 H 0.46138 0.52734 0.35867 0.0
H2429 H 0.47125 0.53415 0.42134 0.0
H2430 H 0.44098 0.5435 0.56092 0.0
H2431 H 0.42168 0.51925 0.55149 0.0
H2432 H 0.436 0.51711 0.38754 0.0
C2433 C 0.48276 0.56866 0.42123 0.0
C2434 C 0.48951 0.57855 0.46374 0.0
C2435 C 0.48214 0.57754 0.51277 0.0
C2436 C 0.46843 0.56669 0.52037 0.0
C2437 C 0.46217 0.55689 0.47852 0.0
C2438 C 0.469 0.55775 0.42972 0.0
C2439 C 0.46028 0.54501 0.39396 0.0
C2440 C 0.45594 0.54915 0.34024 0.0
C2441 C 0.46811 0.53705 0.38221 0.0
C2442 C 0.44777 0.53667 0.43124 0.0
C2443 C 0.44906 0.54386 0.47952 0.0
C2444 C 0.43965 0.53789 0.52282 0.0
C2445 C 0.42874 0.52412 0.51717 0.0
C2446 C 0.42724 0.51649 0.46846 0.0
C2447 C 0.4367 0.52293 0.42444 0.0
loop_
_geom_bond_atom_site_label_1
_geom_bond_atom_site_label_2
_geom_bond_distance
_geom_bond_site_symmetry_2
_ccdc_geom_bond_type
O0 Cd1 2.223 . S
O0 C8 1.315 . S
Cd1 O0 2.223 . S
Cd1 O4 2.297 . S
Cd1 O5 2.439 . S
Cd1 O11 2.240 . S
Cd2 O3 2.240 . S
Cd2 O10 2.223 . S
Cd2 O12 2.297 . S
Cd2 O13 2.439 . S
O3 Cd2 2.240 . S
O3 C8 1.279 . S
O4 Cd1 2.297 . S
O4 C6 1.247 . S
O5 Cd1 2.439 . S
O5 C6 1.208 . S
C6 O4 1.247 . S
C6 O5 1.208 . S
C7 O12 1.247 . S
C7 O13 1.208 . S
C8 O0 1.315 . S
C8 O3 1.279 . S
C9 O10 1.315 . S
C9 O11 1.279 . S
O10 Cd2 2.223 . S
O10 C9 1.315 . S
O11 Cd1 2.240 . S
O11 C9 1.279 . S
O12 Cd2 2.297 . S
O12 C7 1.247 . S
O13 Cd2 2.439 . S
O13 C7 1.208 . S
O14 Cd15 2.223 . S
O14 C22 1.315 . S
Cd15 O14 2.223 . S
Cd15 O18 2.297 . S
Cd15 O19 2.439 . S
Cd15 O25 2.240 . S
Cd16 O17 2.240 . S
Cd16 O24 2.223 . S
Cd16 O26 2.297 . S
Cd16 O27 2.439 . S
O17 Cd16 2.240 . S
O17 C22 1.279 . S
O18 Cd15 2.297 . S
O18 C20 1.247 . S
O19 Cd15 2.439 . S
O19 C20 1.208 . S
C20 O18 1.247 . S
C20 O19 1.208 . S
C21 O26 1.247 . S
C21 O27 1.208 . S
C22 O14 1.315 . S
C22 O17 1.279 . S
C23 O24 1.315 . S
C23 O25 1.279 . S
O24 Cd16 2.223 . S
O24 C23 1.315 . S
O25 Cd15 2.240 . S
O25 C23 1.279 . S
O26 Cd16 2.297 . S
O26 C21 1.247 . S
O27 Cd16 2.439 . S
O27 C21 1.208 . S
O28 Cd29 2.223 . S
O28 C36 1.315 . S
Cd29 O28 2.223 . S
Cd29 O32 2.297 . S
Cd29 O33 2.439 . S
Cd29 O39 2.240 . S
Cd30 O31 2.240 . S
Cd30 O38 2.223 . S
Cd30 O40 2.297 . S
Cd30 O41 2.439 . S
O31 Cd30 2.240 . S
O31 C36 1.279 . S
O32 Cd29 2.297 . S
O32 C34 1.247 . S
O33 Cd29 2.439 . S
O33 C34 1.208 . S
C34 O32 1.247 . S
C34 O33 1.208 . S
C35 O40 1.247 . S
C35 O41 1.208 . S
C36 O28 1.315 . S
C36 O31 1.279 . S
C37 O38 1.315 . S
C37 O39 1.279 . S
O38 Cd30 2.223 . S
O38 C37 1.315 . S
O39 Cd29 2.240 . S
O39 C37 1.279 . S
O40 Cd30 2.297 . S
O40 C35 1.247 . S
O41 Cd30 2.439 . S
O41 C35 1.208 . S
O42 Cd43 2.223 . S
O42 C50 1.315 . S
Cd43 O42 2.223 . S
Cd43 O46 2.297 . S
Cd43 O47 2.439 . S
Cd43 O53 2.240 . S
Cd44 O45 2.240 . S
Cd44 O52 2.223 . S
Cd44 O54 2.297 . S
Cd44 O55 2.439 . S
O45 Cd44 2.240 . S
O45 C50 1.279 . S
O46 Cd43 2.297 . S
O46 C48 1.247 . S
O47 Cd43 2.439 . S
O47 C48 1.208 . S
C48 O46 1.247 . S
C48 O47 1.208 . S
C49 O54 1.247 . S
C49 O55 1.208 . S
C50 O42 1.315 . S
C50 O45 1.279 . S
C51 O52 1.315 . S
C51 O53 1.279 . S
O52 Cd44 2.223 . S
O52 C51 1.315 . S
O53 Cd43 2.240 . S
O53 C51 1.279 . S
O54 Cd44 2.297 . S
O54 C49 1.247 . S
O55 Cd44 2.439 . S
O55 C49 1.208 . S
O56 Cd57 2.223 . S
O56 C64 1.315 . S
Cd57 O56 2.223 . S
Cd57 O60 2.297 . S
Cd57 O61 2.439 . S
Cd57 O67 2.240 . S
Cd58 O59 2.240 . S
Cd58 O66 2.223 . S
Cd58 O68 2.297 . S
Cd58 O69 2.439 . S
O59 Cd58 2.240 . S
O59 C64 1.279 . S
O60 Cd57 2.297 . S
O60 C62 1.247 . S
O61 Cd57 2.439 . S
O61 C62 1.208 . S
C62 O60 1.247 . S
C62 O61 1.208 . S
C63 O68 1.247 . S
C63 O69 1.208 . S
C64 O56 1.315 . S
C64 O59 1.279 . S
C65 O66 1.315 . S
C65 O67 1.279 . S
O66 Cd58 2.223 . S
O66 C65 1.315 . S
O67 Cd57 2.240 . S
O67 C65 1.279 . S
O68 Cd58 2.297 . S
O68 C63 1.247 . S
O69 Cd58 2.439 . S
O69 C63 1.208 . S
O70 Cd71 2.223 . S
O70 C78 1.315 . S
Cd71 O70 2.223 . S
Cd71 O74 2.297 . S
Cd71 O75 2.439 . S
Cd71 O81 2.240 . S
Cd72 O73 2.240 . S
Cd72 O80 2.223 . S
Cd72 O82 2.297 . S
Cd72 O83 2.439 . S
O73 Cd72 2.240 . S
O73 C78 1.279 . S
O74 Cd71 2.297 . S
O74 C76 1.247 . S
O75 Cd71 2.439 . S
O75 C76 1.208 . S
C76 O74 1.247 . S
C76 O75 1.208 . S
C77 O82 1.247 . S
C77 O83 1.208 . S
C78 O70 1.315 . S
C78 O73 1.279 . S
C79 O80 1.315 . S
C79 O81 1.279 . S
O80 Cd72 2.223 . S
O80 C79 1.315 . S
O81 Cd71 2.240 . S
O81 C79 1.279 . S
O82 Cd72 2.297 . S
O82 C77 1.247 . S
O83 Cd72 2.439 . S
O83 C77 1.208 . S
O84 Cd85 2.223 . S
O84 C92 1.315 . S
Cd85 O84 2.223 . S
Cd85 O88 2.297 . S
Cd85 O89 2.439 . S
Cd85 O95 2.240 . S
Cd86 O87 2.240 . S
Cd86 O94 2.223 . S
Cd86 O96 2.297 . S
Cd86 O97 2.439 . S
O87 Cd86 2.240 . S
O87 C92 1.279 . S
O88 Cd85 2.297 . S
O88 C90 1.247 . S
O89 Cd85 2.439 . S
O89 C90 1.208 . S
C90 O88 1.247 . S
C90 O89 1.208 . S
C91 O96 1.247 . S
C91 O97 1.208 . S
C92 O84 1.315 . S
C92 O87 1.279 . S
C93 O94 1.315 . S
C93 O95 1.279 . S
O94 Cd86 2.223 . S
O94 C93 1.315 . S
O95 Cd85 2.240 . S
O95 C93 1.279 . S
O96 Cd86 2.297 . S
O96 C91 1.247 . S
O97 Cd86 2.439 . S
O97 C91 1.208 . S
O98 Cd99 2.223 . S
O98 C106 1.315 . S
Cd99 O98 2.223 . S
Cd99 O102 2.297 . S
Cd99 O103 2.439 . S
Cd99 O109 2.240 . S
Cd100 O101 2.240 . S
Cd100 O108 2.223 . S
Cd100 O110 2.297 . S
Cd100 O111 2.439 . S
O101 Cd100 2.240 . S
O101 C106 1.279 . S
O102 Cd99 2.297 . S
O102 C104 1.247 . S
O103 Cd99 2.439 . S
O103 C104 1.208 . S
C104 O102 1.247 . S
C104 O103 1.208 . S
C105 O110 1.247 . S
C105 O111 1.208 . S
C106 O98 1.315 . S
C106 O101 1.279 . S
C107 O108 1.315 . S
C107 O109 1.279 . S
O108 Cd100 2.223 . S
O108 C107 1.315 . S
O109 Cd99 2.240 . S
O109 C107 1.279 . S
O110 Cd100 2.297 . S
O110 C105 1.247 . S
O111 Cd100 2.439 . S
O111 C105 1.208 . S
O112 Cd113 2.223 . S
O112 C120 1.315 . S
Cd113 O112 2.223 . S
Cd113 O116 2.297 . S
Cd113 O117 2.439 . S
Cd113 O123 2.240 . S
Cd114 O115 2.240 . S
Cd114 O122 2.223 . S
Cd114 O124 2.297 . S
Cd114 O125 2.439 . S
O115 Cd114 2.240 . S
O115 C120 1.279 . S
O116 Cd113 2.297 . S
O116 C118 1.247 . S
O117 Cd113 2.439 . S
O117 C118 1.208 . S
C118 O116 1.247 . S
C118 O117 1.208 . S
C119 O124 1.247 . S
C119 O125 1.208 . S
C120 O112 1.315 . S
C120 O115 1.279 . S
C121 O122 1.315 . S
C121 O123 1.279 . S
O122 Cd114 2.223 . S
O122 C121 1.315 . S
O123 Cd113 2.240 . S
O123 C121 1.279 . S
O124 Cd114 2.297 . S
O124 C119 1.247 . S
O125 Cd114 2.439 . S
O125 C119 1.208 . S
O126 Cd127 2.223 . S
O126 C134 1.315 . S
Cd127 O126 2.223 . S
Cd127 O130 2.297 . S
Cd127 O131 2.439 . S
Cd127 O137 2.240 . S
Cd128 O129 2.240 . S
Cd128 O136 2.223 . S
Cd128 O138 2.297 . S
Cd128 O139 2.439 . S
O129 Cd128 2.240 . S
O129 C134 1.279 . S
O130 Cd127 2.297 . S
O130 C132 1.247 . S
O131 Cd127 2.439 . S
O131 C132 1.208 . S
C132 O130 1.247 . S
C132 O131 1.208 . S
C133 O138 1.247 . S
C133 O139 1.208 . S
C134 O126 1.315 . S
C134 O129 1.279 . S
C135 O136 1.315 . S
C135 O137 1.279 . S
O136 Cd128 2.223 . S
O136 C135 1.315 . S
O137 Cd127 2.240 . S
O137 C135 1.279 . S
O138 Cd128 2.297 . S
O138 C133 1.247 . S
O139 Cd128 2.439 . S
O139 C133 1.208 . S
O140 Cd141 2.223 . S
O140 C148 1.315 . S
Cd141 O140 2.223 . S
Cd141 O144 2.297 . S
Cd141 O145 2.439 . S
Cd141 O151 2.240 . S
Cd142 O143 2.240 . S
Cd142 O150 2.223 . S
Cd142 O152 2.297 . S
Cd142 O153 2.439 . S
O143 Cd142 2.240 . S
O143 C148 1.279 . S
O144 Cd141 2.297 . S
O144 C146 1.247 . S
O145 Cd141 2.439 . S
O145 C146 1.208 . S
C146 O144 1.247 . S
C146 O145 1.208 . S
C147 O152 1.247 . S
C147 O153 1.208 . S
C148 O140 1.315 . S
C148 O143 1.279 . S
C149 O150 1.315 . S
C149 O151 1.279 . S
O150 Cd142 2.223 . S
O150 C149 1.315 . S
O151 Cd141 2.240 . S
O151 C149 1.279 . S
O152 Cd142 2.297 . S
O152 C147 1.247 . S
O153 Cd142 2.439 . S
O153 C147 1.208 . S
O154 Cd155 2.223 . S
O154 C162 1.315 . S
Cd155 O154 2.223 . S
Cd155 O158 2.297 . S
Cd155 O159 2.439 . S
Cd155 O165 2.240 . S
Cd156 O157 2.240 . S
Cd156 O164 2.223 . S
Cd156 O166 2.297 . S
Cd156 O167 2.439 . S
O157 Cd156 2.240 . S
O157 C162 1.279 . S
O158 Cd155 2.297 . S
O158 C160 1.247 . S
O159 Cd155 2.439 . S
O159 C160 1.208 . S
C160 O158 1.247 . S
C160 O159 1.208 . S
C161 O166 1.247 . S
C161 O167 1.208 . S
C162 O154 1.315 . S
C162 O157 1.279 . S
C163 O164 1.315 . S
C163 O165 1.279 . S
O164 Cd156 2.223 . S
O164 C163 1.315 . S
O165 Cd155 2.240 . S
O165 C163 1.279 . S
O166 Cd156 2.297 . S
O166 C161 1.247 . S
O167 Cd156 2.439 . S
O167 C161 1.208 . S
O168 Cd169 2.223 . S
O168 C176 1.315 . S
Cd169 O168 2.223 . S
Cd169 O172 2.297 . S
Cd169 O173 2.439 . S
Cd169 O179 2.240 . S
Cd170 O171 2.240 . S
Cd170 O178 2.223 . S
Cd170 O180 2.297 . S
Cd170 O181 2.439 . S
O171 Cd170 2.240 . S
O171 C176 1.279 . S
O172 Cd169 2.297 . S
O172 C174 1.247 . S
O173 Cd169 2.439 . S
O173 C174 1.208 . S
C174 O172 1.247 . S
C174 O173 1.208 . S
C175 O180 1.247 . S
C175 O181 1.208 . S
C176 O168 1.315 . S
C176 O171 1.279 . S
C177 O178 1.315 . S
C177 O179 1.279 . S
O178 Cd170 2.223 . S
O178 C177 1.315 . S
O179 Cd169 2.240 . S
O179 C177 1.279 . S
O180 Cd170 2.297 . S
O180 C175 1.247 . S
O181 Cd170 2.439 . S
O181 C175 1.208 . S
O182 Cd183 2.223 . S
O182 C190 1.315 . S
Cd183 O182 2.223 . S
Cd183 O186 2.297 . S
Cd183 O187 2.439 . S
Cd183 O193 2.240 . S
Cd184 O185 2.240 . S
Cd184 O192 2.223 . S
Cd184 O194 2.297 . S
Cd184 O195 2.439 . S
O185 Cd184 2.240 . S
O185 C190 1.279 . S
O186 Cd183 2.297 . S
O186 C188 1.247 . S
O187 Cd183 2.439 . S
O187 C188 1.208 . S
C188 O186 1.247 . S
C188 O187 1.208 . S
C189 O194 1.247 . S
C189 O195 1.208 . S
C190 O182 1.315 . S
C190 O185 1.279 . S
C191 O192 1.315 . S
C191 O193 1.279 . S
O192 Cd184 2.223 . S
O192 C191 1.315 . S
O193 Cd183 2.240 . S
O193 C191 1.279 . S
O194 Cd184 2.297 . S
O194 C189 1.247 . S
O195 Cd184 2.439 . S
O195 C189 1.208 . S
O196 Cd197 2.223 . S
O196 C204 1.315 . S
Cd197 O196 2.223 . S
Cd197 O200 2.297 . S
Cd197 O201 2.439 . S
Cd197 O207 2.240 . S
Cd198 O199 2.240 . S
Cd198 O206 2.223 . S
Cd198 O208 2.297 . S
Cd198 O209 2.439 . S
O199 Cd198 2.240 . S
O199 C204 1.279 . S
O200 Cd197 2.297 . S
O200 C202 1.247 . S
O201 Cd197 2.439 . S
O201 C202 1.208 . S
C202 O200 1.247 . S
C202 O201 1.208 . S
C203 O208 1.247 . S
C203 O209 1.208 . S
C204 O196 1.315 . S
C204 O199 1.279 . S
C205 O206 1.315 . S
C205 O207 1.279 . S
O206 Cd198 2.223 . S
O206 C205 1.315 . S
O207 Cd197 2.240 . S
O207 C205 1.279 . S
O208 Cd198 2.297 . S
O208 C203 1.247 . S
O209 Cd198 2.439 . S
O209 C203 1.208 . S
O210 Cd211 2.223 . S
O210 C218 1.315 . S
Cd211 O210 2.223 . S
Cd211 O214 2.297 . S
Cd211 O215 2.434 1_554 S
Cd211 O221 2.240 . S
Cd212 O213 2.240 . S
Cd212 O220 2.223 . S
Cd212 O222 2.297 . S
Cd212 O223 2.439 . S
O213 Cd212 2.240 . S
O213 C218 1.279 . S
O214 Cd211 2.297 . S
O214 C216 1.247 1_554 S
O215 Cd211 2.434 1_556 S
O215 C216 1.211 . S
C216 O214 1.247 1_556 S
C216 O215 1.211 . S
C217 O222 1.247 . S
C217 O223 1.208 . S
C218 O210 1.315 . S
C218 O213 1.279 . S
C219 O220 1.315 . S
C219 O221 1.279 . S
O220 Cd212 2.223 . S
O220 C219 1.315 . S
O221 Cd211 2.240 . S
O221 C219 1.279 . S
O222 Cd212 2.297 . S
O222 C217 1.247 . S
O223 Cd212 2.439 . S
O223 C217 1.208 . S
O224 Cd225 2.223 . S
O224 C232 1.315 . S
Cd225 O224 2.223 . S
Cd225 O228 2.297 . S
Cd225 O229 2.434 1_554 S
Cd225 O235 2.240 . S
Cd226 O227 2.240 . S
Cd226 O234 2.223 . S
Cd226 O236 2.297 . S
Cd226 O237 2.439 . S
O227 Cd226 2.240 . S
O227 C232 1.279 . S
O228 Cd225 2.297 . S
O228 C230 1.247 1_554 S
O229 Cd225 2.434 1_556 S
O229 C230 1.211 . S
C230 O228 1.247 1_556 S
C230 O229 1.211 . S
C231 O236 1.247 . S
C231 O237 1.208 . S
C232 O224 1.315 . S
C232 O227 1.279 . S
C233 O234 1.315 . S
C233 O235 1.279 . S
O234 Cd226 2.223 . S
O234 C233 1.315 . S
O235 Cd225 2.240 . S
O235 C233 1.279 . S
O236 Cd226 2.297 . S
O236 C231 1.247 . S
O237 Cd226 2.439 . S
O237 C231 1.208 . S
O238 Cd239 2.223 . S
O238 C246 1.315 . S
Cd239 O238 2.223 . S
Cd239 O242 2.297 . S
Cd239 O243 2.434 1_554 S
Cd239 O249 2.240 . S
Cd240 O241 2.240 . S
Cd240 O248 2.223 . S
Cd240 O250 2.297 . S
Cd240 O251 2.439 . S
O241 Cd240 2.240 . S
O241 C246 1.279 . S
O242 Cd239 2.297 . S
O242 C244 1.247 1_554 S
O243 Cd239 2.434 1_556 S
O243 C244 1.212 . S
C244 O242 1.247 1_556 S
C244 O243 1.212 . S
C245 O250 1.247 . S
C245 O251 1.208 . S
C246 O238 1.315 . S
C246 O241 1.279 . S
C247 O248 1.315 . S
C247 O249 1.279 . S
O248 Cd240 2.223 . S
O248 C247 1.315 . S
O249 Cd239 2.240 . S
O249 C247 1.279 . S
O250 Cd240 2.297 . S
O250 C245 1.247 . S
O251 Cd240 2.439 . S
O251 C245 1.208 . S
O252 Cd253 2.223 . S
O252 C260 1.315 . S
Cd253 O252 2.223 . S
Cd253 O256 2.297 . S
Cd253 O257 2.434 1_554 S
Cd253 O263 2.240 . S
Cd254 O255 2.240 . S
Cd254 O262 2.223 . S
Cd254 O264 2.297 . S
Cd254 O265 2.439 . S
O255 Cd254 2.240 . S
O255 C260 1.279 . S
O256 Cd253 2.297 . S
O256 C258 1.247 1_554 S
O257 Cd253 2.434 1_556 S
O257 C258 1.211 . S
C258 O256 1.247 1_556 S
C258 O257 1.211 . S
C259 O264 1.247 . S
C259 O265 1.208 . S
C260 O252 1.315 . S
C260 O255 1.279 . S
C261 O262 1.315 . S
C261 O263 1.279 . S
O262 Cd254 2.223 . S
O262 C261 1.315 . S
O263 Cd253 2.240 . S
O263 C261 1.279 . S
O264 Cd254 2.297 . S
O264 C259 1.247 . S
O265 Cd254 2.439 . S
O265 C259 1.208 . S
O266 Cd267 2.223 . S
O266 C274 1.315 . S
Cd267 O266 2.223 . S
Cd267 O270 2.297 . S
Cd267 O271 2.434 1_554 S
Cd267 O277 2.240 . S
Cd268 O269 2.240 . S
Cd268 O276 2.223 . S
Cd268 O278 2.297 . S
Cd268 O279 2.439 . S
O269 Cd268 2.240 . S
O269 C274 1.279 . S
O270 Cd267 2.297 . S
O270 C272 1.247 1_554 S
O271 Cd267 2.434 1_556 S
O271 C272 1.212 . S
C272 O270 1.247 1_556 S
C272 O271 1.212 . S
C273 O278 1.247 . S
C273 O279 1.208 . S
C274 O266 1.315 . S
C274 O269 1.279 . S
C275 O276 1.315 . S
C275 O277 1.279 . S
O276 Cd268 2.223 . S
O276 C275 1.315 . S
O277 Cd267 2.240 . S
O277 C275 1.279 . S
O278 Cd268 2.297 . S
O278 C273 1.247 . S
O279 Cd268 2.439 . S
O279 C273 1.208 . S
O280 Cd281 2.223 . S
O280 C288 1.315 . S
Cd281 O280 2.223 . S
Cd281 O284 2.297 . S
Cd281 O285 2.434 1_554 S
Cd281 O291 2.240 . S
Cd282 O283 2.240 . S
Cd282 O290 2.223 . S
Cd282 O292 2.297 . S
Cd282 O293 2.439 . S
O283 Cd282 2.240 . S
O283 C288 1.279 . S
O284 Cd281 2.297 . S
O284 C286 1.247 1_554 S
O285 Cd281 2.434 1_556 S
O285 C286 1.211 . S
C286 O284 1.247 1_556 S
C286 O285 1.211 . S
C287 O292 1.247 . S
C287 O293 1.208 . S
C288 O280 1.315 . S
C288 O283 1.279 . S
C289 O290 1.315 . S
C289 O291 1.279 . S
O290 Cd282 2.223 . S
O290 C289 1.315 . S
O291 Cd281 2.240 . S
O291 C289 1.279 . S
O292 Cd282 2.297 . S
O292 C287 1.247 . S
O293 Cd282 2.439 . S
O293 C287 1.208 . S
O294 Cd295 2.223 . S
O294 C302 1.315 . S
Cd295 O294 2.223 . S
Cd295 O298 2.297 . S
Cd295 O299 2.439 . S
Cd295 O305 2.240 . S
Cd296 O297 2.240 . S
Cd296 O304 2.223 . S
Cd296 O306 2.297 . S
Cd296 O307 2.439 . S
O297 Cd296 2.240 . S
O297 C302 1.279 . S
O298 Cd295 2.297 . S
O298 C300 1.247 . S
O299 Cd295 2.439 . S
O299 C300 1.208 . S
C300 O298 1.247 . S
C300 O299 1.208 . S
C301 O306 1.247 . S
C301 O307 1.208 . S
C302 O294 1.315 . S
C302 O297 1.279 . S
C303 O304 1.315 . S
C303 O305 1.279 . S
O304 Cd296 2.223 . S
O304 C303 1.315 . S
O305 Cd295 2.240 . S
O305 C303 1.279 . S
O306 Cd296 2.297 . S
O306 C301 1.247 . S
O307 Cd296 2.439 . S
O307 C301 1.208 . S
O308 Cd309 2.223 . S
O308 C316 1.315 . S
Cd309 O308 2.223 . S
Cd309 O312 2.297 . S
Cd309 O313 2.439 . S
Cd309 O319 2.240 . S
Cd310 O311 2.240 . S
Cd310 O318 2.223 . S
Cd310 O320 2.297 . S
Cd310 O321 2.439 . S
O311 Cd310 2.240 . S
O311 C316 1.279 . S
O312 Cd309 2.297 . S
O312 C314 1.247 . S
O313 Cd309 2.439 . S
O313 C314 1.208 . S
C314 O312 1.247 . S
C314 O313 1.208 . S
C315 O320 1.247 . S
C315 O321 1.208 . S
C316 O308 1.315 . S
C316 O311 1.279 . S
C317 O318 1.315 . S
C317 O319 1.279 . S
O318 Cd310 2.223 . S
O318 C317 1.315 . S
O319 Cd309 2.240 . S
O319 C317 1.279 . S
O320 Cd310 2.297 . S
O320 C315 1.247 . S
O321 Cd310 2.439 . S
O321 C315 1.208 . S
O322 Cd323 2.223 . S
O322 C330 1.315 . S
Cd323 O322 2.223 . S
Cd323 O326 2.297 . S
Cd323 O327 2.439 . S
Cd323 O333 2.240 . S
Cd324 O325 2.240 . S
Cd324 O332 2.223 . S
Cd324 O334 2.297 . S
Cd324 O335 2.439 . S
O325 Cd324 2.240 . S
O325 C330 1.279 . S
O326 Cd323 2.297 . S
O326 C328 1.247 . S
O327 Cd323 2.439 . S
O327 C328 1.208 . S
C328 O326 1.247 . S
C328 O327 1.208 . S
C329 O334 1.247 . S
C329 O335 1.208 . S
C330 O322 1.315 . S
C330 O325 1.279 . S
C331 O332 1.315 . S
C331 O333 1.279 . S
O332 Cd324 2.223 . S
O332 C331 1.315 . S
O333 Cd323 2.240 . S
O333 C331 1.279 . S
O334 Cd324 2.297 . S
O334 C329 1.247 . S
O335 Cd324 2.439 . S
O335 C329 1.208 . S
O336 Cd337 2.223 . S
O336 C344 1.315 . S
Cd337 O336 2.223 . S
Cd337 O340 2.297 . S
Cd337 O341 2.434 1_556 S
Cd337 O347 2.240 . S
Cd338 O339 2.240 . S
Cd338 O346 2.223 . S
Cd338 O348 2.297 . S
Cd338 O349 2.439 . S
O339 Cd338 2.240 . S
O339 C344 1.279 . S
O340 Cd337 2.297 . S
O340 C342 1.247 1_556 S
O341 Cd337 2.434 1_554 S
O341 C342 1.211 . S
C342 O340 1.247 1_554 S
C342 O341 1.211 . S
C343 O348 1.247 . S
C343 O349 1.208 . S
C344 O336 1.315 . S
C344 O339 1.279 . S
C345 O346 1.315 . S
C345 O347 1.279 . S
O346 Cd338 2.223 . S
O346 C345 1.315 . S
O347 Cd337 2.240 . S
O347 C345 1.279 . S
O348 Cd338 2.297 . S
O348 C343 1.247 . S
O349 Cd338 2.439 . S
O349 C343 1.208 . S
O350 Cd351 2.223 . S
O350 C358 1.315 . S
Cd351 O350 2.223 . S
Cd351 O354 2.297 . S
Cd351 O355 2.434 1_556 S
Cd351 O361 2.240 . S
Cd352 O353 2.240 . S
Cd352 O360 2.223 . S
Cd352 O362 2.297 . S
Cd352 O363 2.439 . S
O353 Cd352 2.240 . S
O353 C358 1.279 . S
O354 Cd351 2.297 . S
O354 C356 1.247 1_556 S
O355 Cd351 2.434 1_554 S
O355 C356 1.212 . S
C356 O354 1.247 1_554 S
C356 O355 1.212 . S
C357 O362 1.247 . S
C357 O363 1.208 . S
C358 O350 1.315 . S
C358 O353 1.279 . S
C359 O360 1.315 . S
C359 O361 1.279 . S
O360 Cd352 2.223 . S
O360 C359 1.315 . S
O361 Cd351 2.240 . S
O361 C359 1.279 . S
O362 Cd352 2.297 . S
O362 C357 1.247 . S
O363 Cd352 2.439 . S
O363 C357 1.208 . S
O364 Cd365 2.223 . S
O364 C372 1.315 . S
Cd365 O364 2.223 . S
Cd365 O368 2.297 . S
Cd365 O369 2.434 1_556 S
Cd365 O375 2.240 . S
Cd366 O367 2.240 . S
Cd366 O374 2.223 . S
Cd366 O376 2.297 . S
Cd366 O377 2.439 . S
O367 Cd366 2.240 . S
O367 C372 1.279 . S
O368 Cd365 2.297 . S
O368 C370 1.247 1_556 S
O369 Cd365 2.434 1_554 S
O369 C370 1.211 . S
C370 O368 1.247 1_554 S
C370 O369 1.211 . S
C371 O376 1.247 . S
C371 O377 1.208 . S
C372 O364 1.315 . S
C372 O367 1.279 . S
C373 O374 1.315 . S
C373 O375 1.279 . S
O374 Cd366 2.223 . S
O374 C373 1.315 . S
O375 Cd365 2.240 . S
O375 C373 1.279 . S
O376 Cd366 2.297 . S
O376 C371 1.247 . S
O377 Cd366 2.439 . S
O377 C371 1.208 . S
O378 Cd379 2.223 . S
O378 C386 1.315 . S
Cd379 O378 2.223 . S
Cd379 O382 2.297 . S
Cd379 O383 2.439 . S
Cd379 O389 2.240 . S
Cd380 O381 2.240 . S
Cd380 O388 2.223 . S
Cd380 O390 2.297 . S
Cd380 O391 2.439 . S
O381 Cd380 2.240 . S
O381 C386 1.279 . S
O382 Cd379 2.297 . S
O382 C384 1.247 . S
O383 Cd379 2.439 . S
O383 C384 1.208 . S
C384 O382 1.247 . S
C384 O383 1.208 . S
C385 O390 1.247 . S
C385 O391 1.208 . S
C386 O378 1.315 . S
C386 O381 1.279 . S
C387 O388 1.315 . S
C387 O389 1.279 . S
O388 Cd380 2.223 . S
O388 C387 1.315 . S
O389 Cd379 2.240 . S
O389 C387 1.279 . S
O390 Cd380 2.297 . S
O390 C385 1.247 . S
O391 Cd380 2.439 . S
O391 C385 1.208 . S
O392 Cd393 2.223 . S
O392 C400 1.315 . S
Cd393 O392 2.223 . S
Cd393 O396 2.297 . S
Cd393 O397 2.439 . S
Cd393 O403 2.240 . S
Cd394 O395 2.240 . S
Cd394 O402 2.223 . S
Cd394 O404 2.297 . S
Cd394 O405 2.439 . S
O395 Cd394 2.240 . S
O395 C400 1.279 . S
O396 Cd393 2.297 . S
O396 C398 1.247 . S
O397 Cd393 2.439 . S
O397 C398 1.208 . S
C398 O396 1.247 . S
C398 O397 1.208 . S
C399 O404 1.247 . S
C399 O405 1.208 . S
C400 O392 1.315 . S
C400 O395 1.279 . S
C401 O402 1.315 . S
C401 O403 1.279 . S
O402 Cd394 2.223 . S
O402 C401 1.315 . S
O403 Cd393 2.240 . S
O403 C401 1.279 . S
O404 Cd394 2.297 . S
O404 C399 1.247 . S
O405 Cd394 2.439 . S
O405 C399 1.208 . S
O406 Cd407 2.223 . S
O406 C414 1.315 . S
Cd407 O406 2.223 . S
Cd407 O410 2.297 . S
Cd407 O411 2.439 . S
Cd407 O417 2.240 . S
Cd408 O409 2.240 . S
Cd408 O416 2.223 . S
Cd408 O418 2.297 . S
Cd408 O419 2.439 . S
O409 Cd408 2.240 . S
O409 C414 1.279 . S
O410 Cd407 2.297 . S
O410 C412 1.247 . S
O411 Cd407 2.439 . S
O411 C412 1.208 . S
C412 O410 1.247 . S
C412 O411 1.208 . S
C413 O418 1.247 . S
C413 O419 1.208 . S
C414 O406 1.315 . S
C414 O409 1.279 . S
C415 O416 1.315 . S
C415 O417 1.279 . S
O416 Cd408 2.223 . S
O416 C415 1.315 . S
O417 Cd407 2.240 . S
O417 C415 1.279 . S
O418 Cd408 2.297 . S
O418 C413 1.247 . S
O419 Cd408 2.439 . S
O419 C413 1.208 . S
O420 Cd421 2.223 . S
O420 C428 1.315 . S
Cd421 O420 2.223 . S
Cd421 O424 2.297 . S
Cd421 O425 2.439 . S
Cd421 O431 2.240 . S
Cd422 O423 2.240 . S
Cd422 O430 2.223 . S
Cd422 O432 2.297 . S
Cd422 O433 2.439 . S
O423 Cd422 2.240 . S
O423 C428 1.279 . S
O424 Cd421 2.297 . S
O424 C426 1.247 . S
O425 Cd421 2.439 . S
O425 C426 1.208 . S
C426 O424 1.247 . S
C426 O425 1.208 . S
C427 O432 1.247 . S
C427 O433 1.208 . S
C428 O420 1.315 . S
C428 O423 1.279 . S
C429 O430 1.315 . S
C429 O431 1.279 . S
O430 Cd422 2.223 . S
O430 C429 1.315 . S
O431 Cd421 2.240 . S
O431 C429 1.279 . S
O432 Cd422 2.297 . S
O432 C427 1.247 . S
O433 Cd422 2.439 . S
O433 C427 1.208 . S
O434 Cd435 2.223 . S
O434 C442 1.315 . S
Cd435 O434 2.223 . S
Cd435 O438 2.297 . S
Cd435 O439 2.439 . S
Cd435 O445 2.240 . S
Cd436 O437 2.240 . S
Cd436 O444 2.223 . S
Cd436 O446 2.297 . S
Cd436 O447 2.439 . S
O437 Cd436 2.240 . S
O437 C442 1.279 . S
O438 Cd435 2.297 . S
O438 C440 1.247 . S
O439 Cd435 2.439 . S
O439 C440 1.208 . S
C440 O438 1.247 . S
C440 O439 1.208 . S
C441 O446 1.247 . S
C441 O447 1.208 . S
C442 O434 1.315 . S
C442 O437 1.279 . S
C443 O444 1.315 . S
C443 O445 1.279 . S
O444 Cd436 2.223 . S
O444 C443 1.315 . S
O445 Cd435 2.240 . S
O445 C443 1.279 . S
O446 Cd436 2.297 . S
O446 C441 1.247 . S
O447 Cd436 2.439 . S
O447 C441 1.208 . S
O448 Cd449 2.223 . S
O448 C456 1.315 . S
Cd449 O448 2.223 . S
Cd449 O452 2.297 . S
Cd449 O453 2.439 . S
Cd449 O459 2.240 . S
Cd450 O451 2.240 . S
Cd450 O458 2.223 . S
Cd450 O460 2.297 . S
Cd450 O461 2.439 . S
O451 Cd450 2.240 . S
O451 C456 1.279 . S
O452 Cd449 2.297 . S
O452 C454 1.247 . S
O453 Cd449 2.439 . S
O453 C454 1.208 . S
C454 O452 1.247 . S
C454 O453 1.208 . S
C455 O460 1.247 . S
C455 O461 1.208 . S
C456 O448 1.315 . S
C456 O451 1.279 . S
C457 O458 1.315 . S
C457 O459 1.279 . S
O458 Cd450 2.223 . S
O458 C457 1.315 . S
O459 Cd449 2.240 . S
O459 C457 1.279 . S
O460 Cd450 2.297 . S
O460 C455 1.247 . S
O461 Cd450 2.439 . S
O461 C455 1.208 . S
O462 Cd463 2.223 . S
O462 C470 1.315 . S
Cd463 O462 2.223 . S
Cd463 O466 2.297 . S
Cd463 O467 2.434 1_556 S
Cd463 O473 2.240 . S
Cd464 O465 2.240 . S
Cd464 O472 2.223 . S
Cd464 O474 2.297 . S
Cd464 O475 2.439 . S
O465 Cd464 2.240 . S
O465 C470 1.279 . S
O466 Cd463 2.297 . S
O466 C468 1.247 1_556 S
O467 Cd463 2.434 1_554 S
O467 C468 1.211 . S
C468 O466 1.247 1_554 S
C468 O467 1.211 . S
C469 O474 1.247 . S
C469 O475 1.208 . S
C470 O462 1.315 . S
C470 O465 1.279 . S
C471 O472 1.315 . S
C471 O473 1.279 . S
O472 Cd464 2.223 . S
O472 C471 1.315 . S
O473 Cd463 2.240 . S
O473 C471 1.279 . S
O474 Cd464 2.297 . S
O474 C469 1.247 . S
O475 Cd464 2.439 . S
O475 C469 1.208 . S
O476 Cd477 2.223 . S
O476 C484 1.315 . S
Cd477 O476 2.223 . S
Cd477 O480 2.297 . S
Cd477 O481 2.434 1_556 S
Cd477 O487 2.240 . S
Cd478 O479 2.240 . S
Cd478 O486 2.223 . S
Cd478 O488 2.297 . S
Cd478 O489 2.439 . S
O479 Cd478 2.240 . S
O479 C484 1.279 . S
O480 Cd477 2.297 . S
O480 C482 1.247 1_556 S
O481 Cd477 2.434 1_554 S
O481 C482 1.211 . S
C482 O480 1.247 1_554 S
C482 O481 1.211 . S
C483 O488 1.247 . S
C483 O489 1.208 . S
C484 O476 1.315 . S
C484 O479 1.279 . S
C485 O486 1.315 . S
C485 O487 1.279 . S
O486 Cd478 2.223 . S
O486 C485 1.315 . S
O487 Cd477 2.240 . S
O487 C485 1.279 . S
O488 Cd478 2.297 . S
O488 C483 1.247 . S
O489 Cd478 2.439 . S
O489 C483 1.208 . S
O490 Cd491 2.223 . S
O490 C498 1.315 . S
Cd491 O490 2.223 . S
Cd491 O494 2.297 . S
Cd491 O495 2.434 1_556 S
Cd491 O501 2.240 . S
Cd492 O493 2.240 . S
Cd492 O500 2.223 . S
Cd492 O502 2.297 . S
Cd492 O503 2.439 . S
O493 Cd492 2.240 . S
O493 C498 1.279 . S
O494 Cd491 2.297 . S
O494 C496 1.247 1_556 S
O495 Cd491 2.434 1_554 S
O495 C496 1.212 . S
C496 O494 1.247 1_554 S
C496 O495 1.212 . S
C497 O502 1.247 . S
C497 O503 1.208 . S
C498 O490 1.315 . S
C498 O493 1.279 . S
C499 O500 1.315 . S
C499 O501 1.279 . S
O500 Cd492 2.223 . S
O500 C499 1.315 . S
O501 Cd491 2.240 . S
O501 C499 1.279 . S
O502 Cd492 2.297 . S
O502 C497 1.247 . S
O503 Cd492 2.439 . S
O503 C497 1.208 . S
H504 C516 0.930 . S
H505 C518 0.930 . S
H506 C519 0.930 . S
H507 C523 0.959 . S
H508 C523 0.959 . S
H509 C523 0.961 . S
H510 C524 0.960 . S
H511 C524 0.961 . S
H512 C524 0.959 . S
H513 C527 0.929 . S
H514 C528 0.931 . S
H515 C530 0.930 . S
C516 H504 0.930 . S
C516 C517 1.399 . S
C516 C521 1.399 . S
C517 C516 1.399 . S
C517 C518 1.376 . S
C518 H505 0.930 . S
C518 C517 1.376 . S
C518 C519 1.388 . S
C519 H506 0.930 . S
C519 C518 1.388 . S
C519 C520 1.390 . S
C520 C519 1.390 . S
C520 C521 1.394 . S
C520 C526 1.466 1_565 S
C521 C516 1.399 . S
C521 C520 1.394 . S
C521 C522 1.516 1_565 S
C522 C521 1.516 1_545 S
C522 C523 1.502 . S
C522 C524 1.561 . S
C522 C525 1.526 . S
C523 H507 0.959 . S
C523 H508 0.959 . S
C523 H509 0.961 . S
C523 C522 1.502 . S
C524 H510 0.960 . S
C524 H511 0.961 . S
C524 H512 0.959 . S
C524 C522 1.561 . S
C525 C522 1.526 . S
C525 C526 1.395 . S
C525 C530 1.390 . S
C526 C520 1.466 1_545 S
C526 C525 1.395 . S
C526 C527 1.399 1_545 S
C527 H513 0.929 . S
C527 C526 1.399 1_565 S
C527 C528 1.385 1_565 S
C528 H514 0.931 . S
C528 C527 1.385 1_545 S
C528 C529 1.389 . S
C529 C528 1.389 . S
C529 C530 1.387 . S
C530 H515 0.930 . S
C530 C525 1.390 . S
C530 C529 1.387 . S
H531 C543 0.930 . S
H532 C545 0.930 . S
H533 C546 0.930 . S
H534 C550 0.959 . S
H535 C550 0.959 . S
H536 C550 0.961 . S
H537 C551 0.960 . S
H538 C551 0.961 . S
H539 C551 0.959 . S
H540 C554 0.929 . S
H541 C555 0.931 . S
H542 C557 0.930 . S
C543 H531 0.930 . S
C543 C544 1.399 . S
C543 C548 1.399 . S
C544 C543 1.399 . S
C544 C545 1.376 . S
C545 H532 0.930 . S
C545 C544 1.376 . S
C545 C546 1.388 1_455 S
C546 H533 0.930 . S
C546 C545 1.388 1_655 S
C546 C547 1.390 . S
C547 C546 1.390 . S
C547 C548 1.394 1_655 S
C547 C553 1.465 . S
C548 C543 1.399 . S
C548 C547 1.394 1_455 S
C548 C549 1.516 . S
C549 C548 1.516 . S
C549 C550 1.502 . S
C549 C551 1.561 . S
C549 C552 1.526 1_455 S
C550 H534 0.959 . S
C550 H535 0.959 . S
C550 H536 0.961 . S
C550 C549 1.502 . S
C551 H537 0.960 . S
C551 H538 0.961 . S
C551 H539 0.959 . S
C551 C549 1.561 . S
C552 C549 1.526 1_655 S
C552 C553 1.396 . S
C552 C557 1.390 . S
C553 C547 1.465 . S
C553 C552 1.396 . S
C553 C554 1.399 . S
C554 H540 0.929 . S
C554 C553 1.399 . S
C554 C555 1.385 . S
C555 H541 0.931 . S
C555 C554 1.385 . S
C555 C556 1.389 . S
C556 C555 1.389 . S
C556 C557 1.387 . S
C557 H542 0.930 . S
C557 C552 1.390 . S
C557 C556 1.387 . S
H558 C570 0.930 . S
H559 C572 0.930 . S
H560 C573 0.930 . S
H561 C577 0.959 . S
H562 C577 0.959 . S
H563 C577 0.961 . S
H564 C578 0.960 . S
H565 C578 0.961 . S
H566 C578 0.959 . S
H567 C581 0.929 . S
H568 C582 0.931 . S
H569 C584 0.930 . S
C570 H558 0.930 . S
C570 C571 1.399 . S
C570 C575 1.399 . S
C571 C570 1.399 . S
C571 C572 1.376 . S
C572 H559 0.930 . S
C572 C571 1.376 . S
C572 C573 1.388 . S
C573 H560 0.930 . S
C573 C572 1.388 . S
C573 C574 1.390 . S
C574 C573 1.390 . S
C574 C575 1.394 . S
C574 C580 1.465 . S
C575 C570 1.399 . S
C575 C574 1.394 . S
C575 C576 1.516 . S
C576 C575 1.516 . S
C576 C577 1.502 . S
C576 C578 1.561 . S
C576 C579 1.526 . S
C577 H561 0.959 . S
C577 H562 0.959 . S
C577 H563 0.961 . S
C577 C576 1.502 . S
C578 H564 0.960 . S
C578 H565 0.961 . S
C578 H566 0.959 . S
C578 C576 1.561 . S
C579 C576 1.526 . S
C579 C580 1.396 . S
C579 C584 1.390 . S
C580 C574 1.465 . S
C580 C579 1.396 . S
C580 C581 1.399 . S
C581 H567 0.929 . S
C581 C580 1.399 . S
C581 C582 1.385 . S
C582 H568 0.931 . S
C582 C581 1.385 . S
C582 C583 1.389 . S
C583 C582 1.389 . S
C583 C584 1.387 . S
C584 H569 0.930 . S
C584 C579 1.390 . S
C584 C583 1.387 . S
H585 C597 0.930 . S
H586 C599 0.930 . S
H587 C600 0.930 . S
H588 C604 0.978 . S
H589 C604 0.937 1_545 S
H590 C604 0.963 . S
H591 C605 0.960 . S
H592 C605 0.961 . S
H593 C605 0.959 . S
H594 C608 0.929 . S
H595 C609 0.931 . S
H596 C611 0.930 . S
C597 H585 0.930 . S
C597 C598 1.399 . S
C597 C602 1.399 . S
C598 C597 1.399 . S
C598 C599 1.376 . S
C599 H586 0.930 . S
C599 C598 1.376 . S
C599 C600 1.388 . S
C600 H587 0.930 . S
C600 C599 1.388 . S
C600 C601 1.390 . S
C601 C600 1.390 . S
C601 C602 1.394 . S
C601 C607 1.465 1_565 S
C602 C597 1.399 . S
C602 C601 1.394 . S
C602 C603 1.516 1_565 S
C603 C602 1.516 1_545 S
C603 C604 1.505 1_545 S
C603 C605 1.561 . S
C603 C606 1.526 . S
C604 H588 0.978 . S
C604 H589 0.937 1_565 S
C604 H590 0.963 . S
C604 C603 1.505 1_565 S
C605 H591 0.960 . S
C605 H592 0.961 . S
C605 H593 0.959 . S
C605 C603 1.561 . S
C606 C603 1.526 . S
C606 C607 1.396 . S
C606 C611 1.390 . S
C607 C601 1.465 1_545 S
C607 C606 1.396 . S
C607 C608 1.399 . S
C608 H594 0.929 . S
C608 C607 1.399 . S
C608 C609 1.385 . S
C609 H595 0.931 . S
C609 C608 1.385 . S
C609 C610 1.389 . S
C610 C609 1.389 . S
C610 C611 1.387 . S
C611 H596 0.930 . S
C611 C606 1.390 . S
C611 C610 1.387 . S
H612 C624 0.930 . S
H613 C626 0.930 . S
H614 C627 0.930 . S
H615 C631 0.959 . S
H616 C631 0.959 1_655 S
H617 C631 0.961 . S
H618 C632 0.960 . S
H619 C632 0.961 . S
H620 C632 0.959 . S
H621 C635 0.929 . S
H622 C636 0.931 . S
H623 C638 0.930 . S
C624 H612 0.930 . S
C624 C625 1.399 . S
C624 C629 1.399 . S
C625 C624 1.399 . S
C625 C626 1.376 . S
C626 H613 0.930 . S
C626 C625 1.376 . S
C626 C627 1.388 . S
C627 H614 0.930 . S
C627 C626 1.388 . S
C627 C628 1.390 . S
C628 C627 1.390 . S
C628 C629 1.394 . S
C628 C634 1.465 1_455 S
C629 C624 1.399 . S
C629 C628 1.394 . S
C629 C630 1.516 1_455 S
C630 C629 1.516 1_655 S
C630 C631 1.502 1_655 S
C630 C632 1.561 . S
C630 C633 1.526 . S
C631 H615 0.959 . S
C631 H616 0.959 1_455 S
C631 H617 0.961 . S
C631 C630 1.502 1_455 S
C632 H618 0.960 . S
C632 H619 0.961 . S
C632 H620 0.959 . S
C632 C630 1.561 . S
C633 C630 1.526 . S
C633 C634 1.396 . S
C633 C638 1.390 . S
C634 C628 1.465 1_655 S
C634 C633 1.396 . S
C634 C635 1.399 . S
C635 H621 0.929 . S
C635 C634 1.399 . S
C635 C636 1.385 . S
C636 H622 0.931 . S
C636 C635 1.385 . S
C636 C637 1.389 . S
C637 C636 1.389 . S
C637 C638 1.387 . S
C638 H623 0.930 . S
C638 C633 1.390 . S
C638 C637 1.387 . S
H639 C651 0.930 . S
H640 C653 0.930 . S
H641 C654 0.930 . S
H642 C658 0.959 . S
H643 C658 0.959 . S
H644 C658 0.961 . S
H645 C659 0.960 . S
H646 C659 0.961 . S
H647 C659 0.959 . S
H648 C662 0.929 . S
H649 C663 0.931 . S
H650 C665 0.930 . S
C651 H639 0.930 . S
C651 C652 1.399 . S
C651 C656 1.399 . S
C652 C651 1.399 . S
C652 C653 1.376 . S
C653 H640 0.930 . S
C653 C652 1.376 . S
C653 C654 1.388 . S
C654 H641 0.930 . S
C654 C653 1.388 . S
C654 C655 1.390 . S
C655 C654 1.390 . S
C655 C656 1.394 . S
C655 C661 1.465 . S
C656 C651 1.399 . S
C656 C655 1.394 . S
C656 C657 1.516 . S
C657 C656 1.516 . S
C657 C658 1.502 . S
C657 C659 1.561 . S
C657 C660 1.526 . S
C658 H642 0.959 . S
C658 H643 0.959 . S
C658 H644 0.961 . S
C658 C657 1.502 . S
C659 H645 0.960 . S
C659 H646 0.961 . S
C659 H647 0.959 . S
C659 C657 1.561 . S
C660 C657 1.526 . S
C660 C661 1.396 . S
C660 C665 1.390 . S
C661 C655 1.465 . S
C661 C660 1.396 . S
C661 C662 1.399 . S
C662 H648 0.929 . S
C662 C661 1.399 . S
C662 C663 1.385 . S
C663 H649 0.931 . S
C663 C662 1.385 . S
C663 C664 1.389 . S
C664 C663 1.389 . S
C664 C665 1.387 . S
C665 H650 0.930 . S
C665 C660 1.390 . S
C665 C664 1.387 . S
H666 C678 0.930 . S
H667 C680 0.930 . S
H668 C681 0.930 . S
H669 C685 0.959 . S
H670 C685 0.959 . S
H671 C685 0.961 . S
H672 C686 0.960 . S
H673 C686 0.961 . S
H674 C686 0.959 . S
H675 C689 0.929 . S
H676 C690 0.931 . S
H677 C692 0.930 . S
C678 H666 0.930 . S
C678 C679 1.399 . S
C678 C683 1.399 . S
C679 C678 1.399 . S
C679 C680 1.376 . S
C680 H667 0.930 . S
C680 C679 1.376 . S
C680 C681 1.388 . S
C681 H668 0.930 . S
C681 C680 1.388 . S
C681 C682 1.390 . S
C682 C681 1.390 . S
C682 C683 1.394 . S
C682 C688 1.465 . S
C683 C678 1.399 . S
C683 C682 1.394 . S
C683 C684 1.516 . S
C684 C683 1.516 . S
C684 C685 1.502 . S
C684 C686 1.561 . S
C684 C687 1.526 . S
C685 H669 0.959 . S
C685 H670 0.959 . S
C685 H671 0.961 . S
C685 C684 1.502 . S
C686 H672 0.960 . S
C686 H673 0.961 . S
C686 H674 0.959 . S
C686 C684 1.561 . S
C687 C684 1.526 . S
C687 C688 1.396 . S
C687 C692 1.390 . S
C688 C682 1.465 . S
C688 C687 1.396 . S
C688 C689 1.399 . S
C689 H675 0.929 . S
C689 C688 1.399 . S
C689 C690 1.385 . S
C690 H676 0.931 . S
C690 C689 1.385 . S
C690 C691 1.389 . S
C691 C690 1.389 . S
C691 C692 1.387 . S
C692 H677 0.930 . S
C692 C687 1.390 . S
C692 C691 1.387 . S
H693 C705 0.930 . S
H694 C707 0.930 . S
H695 C708 0.930 . S
H696 C712 0.959 . S
H697 C712 0.959 . S
H698 C712 0.961 . S
H699 C713 0.960 . S
H700 C713 0.961 . S
H701 C713 0.959 . S
H702 C716 0.929 . S
H703 C717 0.931 . S
H704 C719 0.930 . S
C705 H693 0.930 . S
C705 C706 1.399 . S
C705 C710 1.399 . S
C706 C705 1.399 . S
C706 C707 1.376 . S
C707 H694 0.930 . S
C707 C706 1.376 . S
C707 C708 1.388 . S
C708 H695 0.930 . S
C708 C707 1.388 . S
C708 C709 1.390 . S
C709 C708 1.390 . S
C709 C710 1.394 . S
C709 C715 1.465 . S
C710 C705 1.399 . S
C710 C709 1.394 . S
C710 C711 1.516 . S
C711 C710 1.516 . S
C711 C712 1.502 . S
C711 C713 1.561 . S
C711 C714 1.526 . S
C712 H696 0.959 . S
C712 H697 0.959 . S
C712 H698 0.961 . S
C712 C711 1.502 . S
C713 H699 0.960 . S
C713 H700 0.961 . S
C713 H701 0.959 . S
C713 C711 1.561 . S
C714 C711 1.526 . S
C714 C715 1.396 . S
C714 C719 1.390 . S
C715 C709 1.465 . S
C715 C714 1.396 . S
C715 C716 1.399 . S
C716 H702 0.929 . S
C716 C715 1.399 . S
C716 C717 1.385 . S
C717 H703 0.931 . S
C717 C716 1.385 . S
C717 C718 1.389 . S
C718 C717 1.389 . S
C718 C719 1.387 . S
C719 H704 0.930 . S
C719 C714 1.390 . S
C719 C718 1.387 . S
H720 C732 0.930 . S
H721 C734 0.930 . S
H722 C735 0.930 . S
H723 C739 0.959 . S
H724 C739 0.959 . S
H725 C739 0.961 . S
H726 C740 0.960 . S
H727 C740 0.961 . S
H728 C740 0.959 . S
H729 C743 0.929 . S
H730 C744 0.931 . S
H731 C746 0.930 . S
C732 H720 0.930 . S
C732 C733 1.399 . S
C732 C737 1.399 . S
C733 C732 1.399 . S
C733 C734 1.376 . S
C734 H721 0.930 . S
C734 C733 1.376 . S
C734 C735 1.388 . S
C735 H722 0.930 . S
C735 C734 1.388 . S
C735 C736 1.390 . S
C736 C735 1.390 . S
C736 C737 1.394 . S
C736 C742 1.465 . S
C737 C732 1.399 . S
C737 C736 1.394 . S
C737 C738 1.516 . S
C738 C737 1.516 . S
C738 C739 1.502 . S
C738 C740 1.561 . S
C738 C741 1.526 . S
C739 H723 0.959 . S
C739 H724 0.959 . S
C739 H725 0.961 . S
C739 C738 1.502 . S
C740 H726 0.960 . S
C740 H727 0.961 . S
C740 H728 0.959 . S
C740 C738 1.561 . S
C741 C738 1.526 . S
C741 C742 1.396 . S
C741 C746 1.390 . S
C742 C736 1.465 . S
C742 C741 1.396 . S
C742 C743 1.399 . S
C743 H729 0.929 . S
C743 C742 1.399 . S
C743 C744 1.385 . S
C744 H730 0.931 . S
C744 C743 1.385 . S
C744 C745 1.389 . S
C745 C744 1.389 . S
C745 C746 1.387 . S
C746 H731 0.930 . S
C746 C741 1.390 . S
C746 C745 1.387 . S
H747 C759 0.930 . S
H748 C761 0.930 . S
H749 C762 0.930 . S
H750 C766 0.959 . S
H751 C766 0.959 . S
H752 C766 0.961 . S
H753 C767 0.960 . S
H754 C767 0.961 . S
H755 C767 0.959 . S
H756 C770 0.929 . S
H757 C771 0.931 . S
H758 C773 0.930 . S
C759 H747 0.930 . S
C759 C760 1.399 . S
C759 C764 1.399 . S
C760 C759 1.399 . S
C760 C761 1.376 . S
C761 H748 0.930 . S
C761 C760 1.376 . S
C761 C762 1.388 . S
C762 H749 0.930 . S
C762 C761 1.388 . S
C762 C763 1.390 . S
C763 C762 1.390 . S
C763 C764 1.394 . S
C763 C769 1.465 . S
C764 C759 1.399 . S
C764 C763 1.394 . S
C764 C765 1.516 . S
C765 C764 1.516 . S
C765 C766 1.502 . S
C765 C767 1.561 . S
C765 C768 1.526 . S
C766 H750 0.959 . S
C766 H751 0.959 . S
C766 H752 0.961 . S
C766 C765 1.502 . S
C767 H753 0.960 . S
C767 H754 0.961 . S
C767 H755 0.959 . S
C767 C765 1.561 . S
C768 C765 1.526 . S
C768 C769 1.396 . S
C768 C773 1.390 . S
C769 C763 1.465 . S
C769 C768 1.396 . S
C769 C770 1.399 . S
C770 H756 0.929 . S
C770 C769 1.399 . S
C770 C771 1.385 . S
C771 H757 0.931 . S
C771 C770 1.385 . S
C771 C772 1.389 . S
C772 C771 1.389 . S
C772 C773 1.387 . S
C773 H758 0.930 . S
C773 C768 1.390 . S
C773 C772 1.387 . S
H774 C786 0.930 . S
H775 C788 0.930 . S
H776 C789 0.930 . S
H777 C793 0.959 . S
H778 C793 0.959 . S
H779 C793 0.961 . S
H780 C794 0.960 . S
H781 C794 0.961 . S
H782 C794 0.959 . S
H783 C797 0.929 . S
H784 C798 0.931 . S
H785 C800 0.930 . S
C786 H774 0.930 . S
C786 C787 1.399 . S
C786 C791 1.399 . S
C787 C786 1.399 . S
C787 C788 1.376 . S
C788 H775 0.930 . S
C788 C787 1.376 . S
C788 C789 1.388 . S
C789 H776 0.930 . S
C789 C788 1.388 . S
C789 C790 1.390 . S
C790 C789 1.390 . S
C790 C791 1.394 . S
C790 C796 1.465 . S
C791 C786 1.399 . S
C791 C790 1.394 . S
C791 C792 1.516 . S
C792 C791 1.516 . S
C792 C793 1.502 . S
C792 C794 1.561 . S
C792 C795 1.526 . S
C793 H777 0.959 . S
C793 H778 0.959 . S
C793 H779 0.961 . S
C793 C792 1.502 . S
C794 H780 0.960 . S
C794 H781 0.961 . S
C794 H782 0.959 . S
C794 C792 1.561 . S
C795 C792 1.526 . S
C795 C796 1.396 . S
C795 C800 1.390 . S
C796 C790 1.465 . S
C796 C795 1.396 . S
C796 C797 1.399 . S
C797 H783 0.929 . S
C797 C796 1.399 . S
C797 C798 1.385 . S
C798 H784 0.931 . S
C798 C797 1.385 . S
C798 C799 1.389 . S
C799 C798 1.389 . S
C799 C800 1.387 . S
C800 H785 0.930 . S
C800 C795 1.390 . S
C800 C799 1.387 . S
H801 C813 0.930 . S
H802 C815 0.930 . S
H803 C816 0.930 . S
H804 C820 0.959 . S
H805 C820 0.959 . S
H806 C820 0.961 . S
H807 C821 0.960 . S
H808 C821 0.961 . S
H809 C821 0.959 . S
H810 C824 0.929 . S
H811 C825 0.931 . S
H812 C827 0.930 . S
C813 H801 0.930 . S
C813 C814 1.399 . S
C813 C818 1.399 . S
C814 C813 1.399 . S
C814 C815 1.376 . S
C815 H802 0.930 . S
C815 C814 1.376 . S
C815 C816 1.388 . S
C816 H803 0.930 . S
C816 C815 1.388 . S
C816 C817 1.390 . S
C817 C816 1.390 . S
C817 C818 1.394 . S
C817 C823 1.465 . S
C818 C813 1.399 . S
C818 C817 1.394 . S
C818 C819 1.516 . S
C819 C818 1.516 . S
C819 C820 1.502 . S
C819 C821 1.561 . S
C819 C822 1.526 . S
C820 H804 0.959 . S
C820 H805 0.959 . S
C820 H806 0.961 . S
C820 C819 1.502 . S
C821 H807 0.960 . S
C821 H808 0.961 . S
C821 H809 0.959 . S
C821 C819 1.561 . S
C822 C819 1.526 . S
C822 C823 1.396 . S
C822 C827 1.390 . S
C823 C817 1.465 . S
C823 C822 1.396 . S
C823 C824 1.399 . S
C824 H810 0.929 . S
C824 C823 1.399 . S
C824 C825 1.385 . S
C825 H811 0.931 . S
C825 C824 1.385 . S
C825 C826 1.389 . S
C826 C825 1.389 . S
C826 C827 1.387 . S
C827 H812 0.930 . S
C827 C822 1.390 . S
C827 C826 1.387 . S
H828 C840 0.930 . S
H829 C842 0.930 . S
H830 C843 0.930 . S
H831 C847 0.959 . S
H832 C847 0.959 . S
H833 C847 0.961 . S
H834 C848 0.960 . S
H835 C848 0.961 . S
H836 C848 0.959 . S
H837 C851 0.929 . S
H838 C852 0.931 . S
H839 C854 0.930 . S
C840 H828 0.930 . S
C840 C841 1.399 . S
C840 C845 1.399 . S
C841 C840 1.399 . S
C841 C842 1.376 . S
C842 H829 0.930 . S
C842 C841 1.376 . S
C842 C843 1.388 . S
C843 H830 0.930 . S
C843 C842 1.388 . S
C843 C844 1.390 . S
C844 C843 1.390 . S
C844 C845 1.394 . S
C844 C850 1.465 . S
C845 C840 1.399 . S
C845 C844 1.394 . S
C845 C846 1.516 . S
C846 C845 1.516 . S
C846 C847 1.502 . S
C846 C848 1.561 . S
C846 C849 1.526 . S
C847 H831 0.959 . S
C847 H832 0.959 . S
C847 H833 0.961 . S
C847 C846 1.502 . S
C848 H834 0.960 . S
C848 H835 0.961 . S
C848 H836 0.959 . S
C848 C846 1.561 . S
C849 C846 1.526 . S
C849 C850 1.396 . S
C849 C854 1.390 . S
C850 C844 1.465 . S
C850 C849 1.396 . S
C850 C851 1.399 . S
C851 H837 0.929 . S
C851 C850 1.399 . S
C851 C852 1.385 . S
C852 H838 0.931 . S
C852 C851 1.385 . S
C852 C853 1.389 . S
C853 C852 1.389 . S
C853 C854 1.387 . S
C854 H839 0.930 . S
C854 C849 1.390 . S
C854 C853 1.387 . S
H855 C867 0.930 . S
H856 C869 0.930 . S
H857 C870 0.930 . S
H858 C874 0.959 . S
H859 C874 0.959 . S
H860 C874 0.961 . S
H861 C875 0.960 . S
H862 C875 0.961 . S
H863 C875 0.959 . S
H864 C878 0.929 . S
H865 C879 0.931 . S
H866 C881 0.930 . S
C867 H855 0.930 . S
C867 C868 1.399 . S
C867 C872 1.399 . S
C868 C867 1.399 . S
C868 C869 1.376 . S
C869 H856 0.930 . S
C869 C868 1.376 . S
C869 C870 1.388 . S
C870 H857 0.930 . S
C870 C869 1.388 . S
C870 C871 1.390 . S
C871 C870 1.390 . S
C871 C872 1.394 . S
C871 C877 1.465 . S
C872 C867 1.399 . S
C872 C871 1.394 . S
C872 C873 1.516 . S
C873 C872 1.516 . S
C873 C874 1.502 . S
C873 C875 1.561 . S
C873 C876 1.526 . S
C874 H858 0.959 . S
C874 H859 0.959 . S
C874 H860 0.961 . S
C874 C873 1.502 . S
C875 H861 0.960 . S
C875 H862 0.961 . S
C875 H863 0.959 . S
C875 C873 1.561 . S
C876 C873 1.526 . S
C876 C877 1.396 . S
C876 C881 1.390 . S
C877 C871 1.465 . S
C877 C876 1.396 . S
C877 C878 1.399 . S
C878 H864 0.929 . S
C878 C877 1.399 . S
C878 C879 1.385 . S
C879 H865 0.931 . S
C879 C878 1.385 . S
C879 C880 1.389 . S
C880 C879 1.389 . S
C880 C881 1.387 . S
C881 H866 0.930 . S
C881 C876 1.390 . S
C881 C880 1.387 . S
H882 C894 0.930 . S
H883 C896 0.930 . S
H884 C897 0.930 . S
H885 C901 0.959 . S
H886 C901 0.959 . S
H887 C901 0.961 . S
H888 C902 0.960 . S
H889 C902 0.961 . S
H890 C902 0.959 . S
H891 C905 0.929 . S
H892 C906 0.931 . S
H893 C908 0.930 . S
C894 H882 0.930 . S
C894 C895 1.399 . S
C894 C899 1.399 . S
C895 C894 1.399 . S
C895 C896 1.376 . S
C896 H883 0.930 . S
C896 C895 1.376 . S
C896 C897 1.388 . S
C897 H884 0.930 . S
C897 C896 1.388 . S
C897 C898 1.390 . S
C898 C897 1.390 . S
C898 C899 1.394 . S
C898 C904 1.465 . S
C899 C894 1.399 . S
C899 C898 1.394 . S
C899 C900 1.516 . S
C900 C899 1.516 . S
C900 C901 1.502 . S
C900 C902 1.561 . S
C900 C903 1.526 . S
C901 H885 0.959 . S
C901 H886 0.959 . S
C901 H887 0.961 . S
C901 C900 1.502 . S
C902 H888 0.960 . S
C902 H889 0.961 . S
C902 H890 0.959 . S
C902 C900 1.561 . S
C903 C900 1.526 . S
C903 C904 1.396 . S
C903 C908 1.390 . S
C904 C898 1.465 . S
C904 C903 1.396 . S
C904 C905 1.399 . S
C905 H891 0.929 . S
C905 C904 1.399 . S
C905 C906 1.385 . S
C906 H892 0.931 . S
C906 C905 1.385 . S
C906 C907 1.389 . S
C907 C906 1.389 . S
C907 C908 1.387 . S
C908 H893 0.930 . S
C908 C903 1.390 . S
C908 C907 1.387 . S
H909 C921 0.930 . S
H910 C923 0.930 . S
H911 C924 0.930 . S
H912 C928 0.959 . S
H913 C928 0.959 . S
H914 C928 0.961 . S
H915 C929 0.960 . S
H916 C929 0.961 . S
H917 C929 0.959 . S
H918 C932 0.929 . S
H919 C933 0.913 1_556 S
H920 C935 0.930 . S
C921 H909 0.930 . S
C921 C922 1.399 . S
C921 C926 1.399 . S
C922 C921 1.399 . S
C922 C923 1.376 . S
C923 H910 0.930 . S
C923 C922 1.376 . S
C923 C924 1.388 . S
C924 H911 0.930 . S
C924 C923 1.388 . S
C924 C925 1.390 . S
C925 C924 1.390 . S
C925 C926 1.394 . S
C925 C931 1.465 . S
C926 C921 1.399 . S
C926 C925 1.394 . S
C926 C927 1.516 . S
C927 C926 1.516 . S
C927 C928 1.502 . S
C927 C929 1.561 . S
C927 C930 1.526 . S
C928 H912 0.959 . S
C928 H913 0.959 . S
C928 H914 0.961 . S
C928 C927 1.502 . S
C929 H915 0.960 . S
C929 H916 0.961 . S
C929 H917 0.959 . S
C929 C927 1.561 . S
C930 C927 1.526 . S
C930 C931 1.396 . S
C930 C935 1.390 . S
C931 C925 1.465 . S
C931 C930 1.396 . S
C931 C932 1.399 . S
C932 H918 0.929 . S
C932 C931 1.399 . S
C932 C933 1.385 . S
C933 H919 0.913 1_554 S
C933 C932 1.385 . S
C933 C934 1.389 . S
C934 C933 1.389 . S
C934 C935 1.387 . S
C935 H920 0.930 . S
C935 C930 1.390 . S
C935 C934 1.387 . S
H936 C948 0.930 . S
H937 C950 0.930 . S
H938 C951 0.930 . S
H939 C955 0.959 . S
H940 C955 0.959 . S
H941 C955 0.961 . S
H942 C956 0.960 . S
H943 C956 0.961 . S
H944 C956 0.959 . S
H945 C959 0.929 . S
H946 C960 0.931 . S
H947 C962 0.930 . S
C948 H936 0.930 . S
C948 C949 1.399 . S
C948 C953 1.399 . S
C949 C948 1.399 . S
C949 C950 1.376 . S
C950 H937 0.930 . S
C950 C949 1.376 . S
C950 C951 1.388 . S
C951 H938 0.930 . S
C951 C950 1.388 . S
C951 C952 1.390 . S
C952 C951 1.390 . S
C952 C953 1.394 . S
C952 C958 1.465 . S
C953 C948 1.399 . S
C953 C952 1.394 . S
C953 C954 1.516 . S
C954 C953 1.516 . S
C954 C955 1.502 . S
C954 C956 1.561 . S
C954 C957 1.526 . S
C955 H939 0.959 . S
C955 H940 0.959 . S
C955 H941 0.961 . S
C955 C954 1.502 . S
C956 H942 0.960 . S
C956 H943 0.961 . S
C956 H944 0.959 . S
C956 C954 1.561 . S
C957 C954 1.526 . S
C957 C958 1.396 . S
C957 C962 1.390 . S
C958 C952 1.465 . S
C958 C957 1.396 . S
C958 C959 1.399 . S
C959 H945 0.929 . S
C959 C958 1.399 . S
C959 C960 1.385 . S
C960 H946 0.931 . S
C960 C959 1.385 . S
C960 C961 1.389 . S
C961 C960 1.389 . S
C961 C962 1.387 . S
C962 H947 0.930 . S
C962 C957 1.390 . S
C962 C961 1.387 . S
H963 C975 0.930 . S
H964 C977 0.930 . S
H965 C978 0.930 . S
H966 C982 0.959 . S
H967 C982 0.959 . S
H968 C982 0.961 . S
H969 C983 0.960 . S
H970 C983 0.961 . S
H971 C983 0.959 . S
H972 C986 0.929 . S
H973 C987 0.931 . S
H974 C989 0.930 . S
C975 H963 0.930 . S
C975 C976 1.399 . S
C975 C980 1.399 . S
C976 C975 1.399 . S
C976 C977 1.376 . S
C977 H964 0.930 . S
C977 C976 1.376 . S
C977 C978 1.388 . S
C978 H965 0.930 . S
C978 C977 1.388 . S
C978 C979 1.390 . S
C979 C978 1.390 . S
C979 C980 1.394 . S
C979 C985 1.465 . S
C980 C975 1.399 . S
C980 C979 1.394 . S
C980 C981 1.516 . S
C981 C980 1.516 . S
C981 C982 1.502 . S
C981 C983 1.561 . S
C981 C984 1.526 . S
C982 H966 0.959 . S
C982 H967 0.959 . S
C982 H968 0.961 . S
C982 C981 1.502 . S
C983 H969 0.960 . S
C983 H970 0.961 . S
C983 H971 0.959 . S
C983 C981 1.561 . S
C984 C981 1.526 . S
C984 C985 1.396 . S
C984 C989 1.390 . S
C985 C979 1.465 . S
C985 C984 1.396 . S
C985 C986 1.399 . S
C986 H972 0.929 . S
C986 C985 1.399 . S
C986 C987 1.385 . S
C987 H973 0.931 . S
C987 C986 1.385 . S
C987 C988 1.389 . S
C988 C987 1.389 . S
C988 C989 1.387 . S
C989 H974 0.930 . S
C989 C984 1.390 . S
C989 C988 1.387 . S
H990 C1002 0.930 . S
H991 C1004 0.930 . S
H992 C1005 0.930 . S
H993 C1009 0.959 . S
H994 C1009 0.959 . S
H995 C1009 0.961 . S
H996 C1010 0.960 . S
H997 C1010 0.961 . S
H998 C1010 0.959 . S
H999 C1013 0.929 1_556 S
H1000 C1014 0.931 . S
H1001 C1016 0.930 . S
C1002 H990 0.930 . S
C1002 C1003 1.399 . S
C1002 C1007 1.399 . S
C1003 C1002 1.399 . S
C1003 C1004 1.376 . S
C1004 H991 0.930 . S
C1004 C1003 1.376 . S
C1004 C1005 1.388 1_565 S
C1005 H992 0.930 . S
C1005 C1004 1.388 1_545 S
C1005 C1006 1.405 . S
C1006 C1005 1.405 . S
C1006 C1007 1.334 1_545 S
C1006 C1012 1.506 1_556 S
C1007 C1002 1.399 . S
C1007 C1006 1.334 1_565 S
C1007 C1008 1.516 1_556 S
C1008 C1007 1.516 1_554 S
C1008 C1009 1.502 . S
C1008 C1010 1.561 . S
C1008 C1011 1.526 1_565 S
C1009 H993 0.959 . S
C1009 H994 0.959 . S
C1009 H995 0.961 . S
C1009 C1008 1.502 . S
C1010 H996 0.960 . S
C1010 H997 0.961 . S
C1010 H998 0.959 . S
C1010 C1008 1.561 . S
C1011 C1008 1.526 1_545 S
C1011 C1012 1.396 . S
C1011 C1016 1.390 . S
C1012 C1006 1.506 1_554 S
C1012 C1011 1.396 . S
C1012 C1013 1.399 . S
C1013 H999 0.929 1_554 S
C1013 C1012 1.399 . S
C1013 C1014 1.385 . S
C1014 H1000 0.931 . S
C1014 C1013 1.385 . S
C1014 C1015 1.389 . S
C1015 C1014 1.389 . S
C1015 C1016 1.387 . S
C1016 H1001 0.930 . S
C1016 C1011 1.390 . S
C1016 C1015 1.387 . S
H1017 C1029 0.930 . S
H1018 C1031 0.930 . S
H1019 C1032 0.930 . S
H1020 C1036 0.959 . S
H1021 C1036 0.959 1_455 S
H1022 C1036 0.961 1_554 S
H1023 C1037 0.960 . S
H1024 C1037 0.961 . S
H1025 C1037 0.959 . S
H1026 C1040 0.929 . S
H1027 C1041 0.931 . S
H1028 C1043 0.930 . S
C1029 H1017 0.930 . S
C1029 C1030 1.399 . S
C1029 C1034 1.399 . S
C1030 C1029 1.399 . S
C1030 C1031 1.376 . S
C1031 H1018 0.930 . S
C1031 C1030 1.376 . S
C1031 C1032 1.388 . S
C1032 H1019 0.930 . S
C1032 C1031 1.388 . S
C1032 C1033 1.390 . S
C1033 C1032 1.390 . S
C1033 C1034 1.394 . S
C1033 C1039 1.465 1_654 S
C1034 C1029 1.399 . S
C1034 C1033 1.394 . S
C1034 C1035 1.516 1_655 S
C1035 C1034 1.516 1_455 S
C1035 C1036 1.502 1_454 S
C1035 C1037 1.561 . S
C1035 C1038 1.526 1_554 S
C1036 H1020 0.959 . S
C1036 H1021 0.959 1_655 S
C1036 H1022 0.961 1_556 S
C1036 C1035 1.502 1_656 S
C1037 H1023 0.960 . S
C1037 H1024 0.961 . S
C1037 H1025 0.959 . S
C1037 C1035 1.561 . S
C1038 C1035 1.526 1_556 S
C1038 C1039 1.396 . S
C1038 C1043 1.390 . S
C1039 C1033 1.465 1_456 S
C1039 C1038 1.396 . S
C1039 C1040 1.399 . S
C1040 H1026 0.929 . S
C1040 C1039 1.399 . S
C1040 C1041 1.385 . S
C1041 H1027 0.931 . S
C1041 C1040 1.385 . S
C1041 C1042 1.389 . S
C1042 C1041 1.389 . S
C1042 C1043 1.387 . S
C1043 H1028 0.930 . S
C1043 C1038 1.390 . S
C1043 C1042 1.387 . S
H1044 C1056 0.930 . S
H1045 C1058 0.930 . S
H1046 C1059 0.930 . S
H1047 C1063 0.961 . S
H1048 C1063 0.959 . S
H1049 C1063 0.961 . S
H1050 C1064 0.960 . S
H1051 C1064 0.961 . S
H1052 C1064 0.959 . S
H1053 C1067 0.929 . S
H1054 C1068 0.931 . S
H1055 C1070 0.930 . S
C1056 H1044 0.930 . S
C1056 C1057 1.399 . S
C1056 C1061 1.399 . S
C1057 C1056 1.399 . S
C1057 C1058 1.376 . S
C1058 H1045 0.930 . S
C1058 C1057 1.376 . S
C1058 C1059 1.388 . S
C1059 H1046 0.930 . S
C1059 C1058 1.388 . S
C1059 C1060 1.390 . S
C1060 C1059 1.390 . S
C1060 C1061 1.394 . S
C1060 C1066 1.465 1_556 S
C1061 C1056 1.399 . S
C1061 C1060 1.394 . S
C1061 C1062 1.516 1_556 S
C1062 C1061 1.516 1_554 S
C1062 C1063 1.502 . S
C1062 C1064 1.561 . S
C1062 C1065 1.526 . S
C1063 H1047 0.961 . S
C1063 H1048 0.959 . S
C1063 H1049 0.961 . S
C1063 C1062 1.502 . S
C1064 H1050 0.960 . S
C1064 H1051 0.961 . S
C1064 H1052 0.959 . S
C1064 C1062 1.561 . S
C1065 C1062 1.526 . S
C1065 C1066 1.396 . S
C1065 C1070 1.390 . S
C1066 C1060 1.465 1_554 S
C1066 C1065 1.396 . S
C1066 C1067 1.399 . S
C1067 H1053 0.929 . S
C1067 C1066 1.399 . S
C1067 C1068 1.385 . S
C1068 H1054 0.931 . S
C1068 C1067 1.385 . S
C1068 C1069 1.389 . S
C1069 C1068 1.389 . S
C1069 C1070 1.387 . S
C1070 H1055 0.930 . S
C1070 C1065 1.390 . S
C1070 C1069 1.387 . S
H1071 C1083 0.930 . S
H1072 C1085 0.930 . S
H1073 C1086 0.930 . S
H1074 C1090 0.959 . S
H1075 C1090 0.959 . S
H1076 C1090 0.961 . S
H1077 C1091 0.960 1_556 S
H1078 C1091 0.961 1_545 S
H1079 C1091 0.959 . S
H1080 C1094 0.929 1_565 S
H1081 C1095 0.931 . S
H1082 C1097 0.930 . S
C1083 H1071 0.930 . S
C1083 C1084 1.399 . S
C1083 C1088 1.399 . S
C1084 C1083 1.399 . S
C1084 C1085 1.376 . S
C1085 H1072 0.930 . S
C1085 C1084 1.376 . S
C1085 C1086 1.388 . S
C1086 H1073 0.930 . S
C1086 C1085 1.388 . S
C1086 C1087 1.390 . S
C1087 C1086 1.390 . S
C1087 C1088 1.394 . S
C1087 C1093 1.465 1_566 S
C1088 C1083 1.399 . S
C1088 C1087 1.394 . S
C1088 C1089 1.516 1_565 S
C1089 C1088 1.516 1_545 S
C1089 C1090 1.502 . S
C1089 C1091 1.561 1_546 S
C1089 C1092 1.526 1_556 S
C1090 H1074 0.959 . S
C1090 H1075 0.959 . S
C1090 H1076 0.961 . S
C1090 C1089 1.502 . S
C1091 H1077 0.960 1_554 S
C1091 H1078 0.961 1_565 S
C1091 H1079 0.959 . S
C1091 C1089 1.561 1_564 S
C1092 C1089 1.526 1_554 S
C1092 C1093 1.396 . S
C1092 C1097 1.390 . S
C1093 C1087 1.465 1_544 S
C1093 C1092 1.396 . S
C1093 C1094 1.399 . S
C1094 H1080 0.929 1_545 S
C1094 C1093 1.399 . S
C1094 C1095 1.385 . S
C1095 H1081 0.931 . S
C1095 C1094 1.385 . S
C1095 C1096 1.389 . S
C1096 C1095 1.389 . S
C1096 C1097 1.387 . S
C1097 H1082 0.930 . S
C1097 C1092 1.390 . S
C1097 C1096 1.387 . S
H1098 C1110 0.930 . S
H1099 C1112 0.930 . S
H1100 C1113 0.930 . S
H1101 C1117 0.959 . S
H1102 C1117 0.959 . S
H1103 C1117 0.961 . S
H1104 C1118 0.960 . S
H1105 C1118 0.961 . S
H1106 C1118 0.986 . S
H1107 C1121 0.929 1_556 S
H1108 C1122 0.931 . S
H1109 C1124 0.930 . S
C1110 H1098 0.930 . S
C1110 C1111 1.399 . S
C1110 C1115 1.399 . S
C1111 C1110 1.399 . S
C1111 C1112 1.376 . S
C1112 H1099 0.930 . S
C1112 C1111 1.376 . S
C1112 C1113 1.388 1_455 S
C1113 H1100 0.930 . S
C1113 C1112 1.388 1_655 S
C1113 C1114 1.386 . S
C1114 C1113 1.386 . S
C1114 C1115 1.380 1_655 S
C1114 C1120 1.482 1_556 S
C1115 C1110 1.399 . S
C1115 C1114 1.380 1_455 S
C1115 C1116 1.516 1_556 S
C1116 C1115 1.516 1_554 S
C1116 C1117 1.502 . S
C1116 C1118 1.561 . S
C1116 C1119 1.526 1_455 S
C1117 H1101 0.959 . S
C1117 H1102 0.959 . S
C1117 H1103 0.961 . S
C1117 C1116 1.502 . S
C1118 H1104 0.960 . S
C1118 H1105 0.961 . S
C1118 H1106 0.986 . S
C1118 C1116 1.561 . S
C1119 C1116 1.526 1_655 S
C1119 C1120 1.396 . S
C1119 C1124 1.390 . S
C1120 C1114 1.482 1_554 S
C1120 C1119 1.396 . S
C1120 C1121 1.399 . S
C1121 H1107 0.929 1_554 S
C1121 C1120 1.399 . S
C1121 C1122 1.385 . S
C1122 H1108 0.931 . S
C1122 C1121 1.385 . S
C1122 C1123 1.389 . S
C1123 C1122 1.389 . S
C1123 C1124 1.387 . S
C1124 H1109 0.930 . S
C1124 C1119 1.390 . S
C1124 C1123 1.387 . S
H1125 C1137 0.930 . S
H1126 C1139 0.930 . S
H1127 C1140 0.930 1_556 S
H1128 C1144 0.959 . S
H1129 C1144 0.959 . S
H1130 C1144 0.961 . S
H1131 C1145 0.960 . S
H1132 C1145 0.961 . S
H1133 C1145 0.959 . S
H1134 C1148 0.929 . S
H1135 C1149 0.931 . S
H1136 C1151 0.930 . S
C1137 H1125 0.930 . S
C1137 C1138 1.399 . S
C1137 C1142 1.399 . S
C1138 C1137 1.399 . S
C1138 C1139 1.376 . S
C1139 H1126 0.930 . S
C1139 C1138 1.376 . S
C1139 C1140 1.388 . S
C1140 H1127 0.930 1_554 S
C1140 C1139 1.388 . S
C1140 C1141 1.390 . S
C1141 C1140 1.390 . S
C1141 C1142 1.394 . S
C1141 C1147 1.465 1_554 S
C1142 C1137 1.399 . S
C1142 C1141 1.394 . S
C1142 C1143 1.516 . S
C1143 C1142 1.516 . S
C1143 C1144 1.502 . S
C1143 C1145 1.561 . S
C1143 C1146 1.526 1_554 S
C1144 H1128 0.959 . S
C1144 H1129 0.959 . S
C1144 H1130 0.961 . S
C1144 C1143 1.502 . S
C1145 H1131 0.960 . S
C1145 H1132 0.961 . S
C1145 H1133 0.959 . S
C1145 C1143 1.561 . S
C1146 C1143 1.526 1_556 S
C1146 C1147 1.396 . S
C1146 C1151 1.390 . S
C1147 C1141 1.465 1_556 S
C1147 C1146 1.396 . S
C1147 C1148 1.399 . S
C1148 H1134 0.929 . S
C1148 C1147 1.399 . S
C1148 C1149 1.385 . S
C1149 H1135 0.931 . S
C1149 C1148 1.385 . S
C1149 C1150 1.389 . S
C1150 C1149 1.389 . S
C1150 C1151 1.387 . S
C1151 H1136 0.930 . S
C1151 C1146 1.390 . S
C1151 C1150 1.387 . S
H1152 C1164 0.930 . S
H1153 C1166 0.930 . S
H1154 C1167 0.930 . S
H1155 C1171 0.959 . S
H1156 C1171 0.959 . S
H1157 C1171 0.961 . S
H1158 C1172 0.960 . S
H1159 C1172 0.961 . S
H1160 C1172 0.959 . S
H1161 C1175 0.929 . S
H1162 C1176 0.931 . S
H1163 C1178 0.930 . S
C1164 H1152 0.930 . S
C1164 C1165 1.399 . S
C1164 C1169 1.399 . S
C1165 C1164 1.399 . S
C1165 C1166 1.376 . S
C1166 H1153 0.930 . S
C1166 C1165 1.376 . S
C1166 C1167 1.388 . S
C1167 H1154 0.930 . S
C1167 C1166 1.388 . S
C1167 C1168 1.390 . S
C1168 C1167 1.390 . S
C1168 C1169 1.394 . S
C1168 C1174 1.465 . S
C1169 C1164 1.399 . S
C1169 C1168 1.394 . S
C1169 C1170 1.516 . S
C1170 C1169 1.516 . S
C1170 C1171 1.502 . S
C1170 C1172 1.561 . S
C1170 C1173 1.526 . S
C1171 H1155 0.959 . S
C1171 H1156 0.959 . S
C1171 H1157 0.961 . S
C1171 C1170 1.502 . S
C1172 H1158 0.960 . S
C1172 H1159 0.961 . S
C1172 H1160 0.959 . S
C1172 C1170 1.561 . S
C1173 C1170 1.526 . S
C1173 C1174 1.396 . S
C1173 C1178 1.390 . S
C1174 C1168 1.465 . S
C1174 C1173 1.396 . S
C1174 C1175 1.399 . S
C1175 H1161 0.929 . S
C1175 C1174 1.399 . S
C1175 C1176 1.385 . S
C1176 H1162 0.931 . S
C1176 C1175 1.385 . S
C1176 C1177 1.389 . S
C1177 C1176 1.389 . S
C1177 C1178 1.387 . S
C1178 H1163 0.930 . S
C1178 C1173 1.390 . S
C1178 C1177 1.387 . S
H1179 C1191 0.930 . S
H1180 C1193 0.930 . S
H1181 C1194 0.930 . S
H1182 C1198 0.959 . S
H1183 C1198 0.959 . S
H1184 C1198 0.961 . S
H1185 C1199 0.960 . S
H1186 C1199 0.961 . S
H1187 C1199 0.959 . S
H1188 C1202 0.929 . S
H1189 C1203 0.931 . S
H1190 C1205 0.930 . S
C1191 H1179 0.930 . S
C1191 C1192 1.399 . S
C1191 C1196 1.399 . S
C1192 C1191 1.399 . S
C1192 C1193 1.376 . S
C1193 H1180 0.930 . S
C1193 C1192 1.376 . S
C1193 C1194 1.388 . S
C1194 H1181 0.930 . S
C1194 C1193 1.388 . S
C1194 C1195 1.390 . S
C1195 C1194 1.390 . S
C1195 C1196 1.394 . S
C1195 C1201 1.465 . S
C1196 C1191 1.399 . S
C1196 C1195 1.394 . S
C1196 C1197 1.516 . S
C1197 C1196 1.516 . S
C1197 C1198 1.502 . S
C1197 C1199 1.561 . S
C1197 C1200 1.526 . S
C1198 H1182 0.959 . S
C1198 H1183 0.959 . S
C1198 H1184 0.961 . S
C1198 C1197 1.502 . S
C1199 H1185 0.960 . S
C1199 H1186 0.961 . S
C1199 H1187 0.959 . S
C1199 C1197 1.561 . S
C1200 C1197 1.526 . S
C1200 C1201 1.396 . S
C1200 C1205 1.390 . S
C1201 C1195 1.465 . S
C1201 C1200 1.396 . S
C1201 C1202 1.399 . S
C1202 H1188 0.929 . S
C1202 C1201 1.399 . S
C1202 C1203 1.385 . S
C1203 H1189 0.931 . S
C1203 C1202 1.385 . S
C1203 C1204 1.389 . S
C1204 C1203 1.389 . S
C1204 C1205 1.387 . S
C1205 H1190 0.930 . S
C1205 C1200 1.390 . S
C1205 C1204 1.387 . S
H1206 C1218 0.930 . S
H1207 C1220 0.930 . S
H1208 C1221 0.930 . S
H1209 C1225 0.959 . S
H1210 C1225 0.959 . S
H1211 C1225 0.961 . S
H1212 C1226 0.960 . S
H1213 C1226 0.961 . S
H1214 C1226 0.959 . S
H1215 C1229 0.929 . S
H1216 C1230 0.931 . S
H1217 C1232 0.930 . S
C1218 H1206 0.930 . S
C1218 C1219 1.399 . S
C1218 C1223 1.399 . S
C1219 C1218 1.399 . S
C1219 C1220 1.376 . S
C1220 H1207 0.930 . S
C1220 C1219 1.376 . S
C1220 C1221 1.388 . S
C1221 H1208 0.930 . S
C1221 C1220 1.388 . S
C1221 C1222 1.390 . S
C1222 C1221 1.390 . S
C1222 C1223 1.394 . S
C1222 C1228 1.465 . S
C1223 C1218 1.399 . S
C1223 C1222 1.394 . S
C1223 C1224 1.516 . S
C1224 C1223 1.516 . S
C1224 C1225 1.502 . S
C1224 C1226 1.561 . S
C1224 C1227 1.526 . S
C1225 H1209 0.959 . S
C1225 H1210 0.959 . S
C1225 H1211 0.961 . S
C1225 C1224 1.502 . S
C1226 H1212 0.960 . S
C1226 H1213 0.961 . S
C1226 H1214 0.959 . S
C1226 C1224 1.561 . S
C1227 C1224 1.526 . S
C1227 C1228 1.396 . S
C1227 C1232 1.390 . S
C1228 C1222 1.465 . S
C1228 C1227 1.396 . S
C1228 C1229 1.399 . S
C1229 H1215 0.929 . S
C1229 C1228 1.399 . S
C1229 C1230 1.385 . S
C1230 H1216 0.931 . S
C1230 C1229 1.385 . S
C1230 C1231 1.389 . S
C1231 C1230 1.389 . S
C1231 C1232 1.387 . S
C1232 H1217 0.930 . S
C1232 C1227 1.390 . S
C1232 C1231 1.387 . S
H1233 C1245 0.930 . S
H1234 C1247 0.930 . S
H1235 C1248 0.930 . S
H1236 C1252 0.959 . S
H1237 C1252 0.959 . S
H1238 C1252 0.961 . S
H1239 C1253 0.960 . S
H1240 C1253 0.961 . S
H1241 C1253 0.959 . S
H1242 C1256 0.929 . S
H1243 C1257 0.931 . S
H1244 C1259 0.930 . S
C1245 H1233 0.930 . S
C1245 C1246 1.399 . S
C1245 C1250 1.399 . S
C1246 C1245 1.399 . S
C1246 C1247 1.376 . S
C1247 H1234 0.930 . S
C1247 C1246 1.376 . S
C1247 C1248 1.388 . S
C1248 H1235 0.930 . S
C1248 C1247 1.388 . S
C1248 C1249 1.390 . S
C1249 C1248 1.390 . S
C1249 C1250 1.394 . S
C1249 C1255 1.465 . S
C1250 C1245 1.399 . S
C1250 C1249 1.394 . S
C1250 C1251 1.516 . S
C1251 C1250 1.516 . S
C1251 C1252 1.502 . S
C1251 C1253 1.561 . S
C1251 C1254 1.526 . S
C1252 H1236 0.959 . S
C1252 H1237 0.959 . S
C1252 H1238 0.961 . S
C1252 C1251 1.502 . S
C1253 H1239 0.960 . S
C1253 H1240 0.961 . S
C1253 H1241 0.959 . S
C1253 C1251 1.561 . S
C1254 C1251 1.526 . S
C1254 C1255 1.396 . S
C1254 C1259 1.390 . S
C1255 C1249 1.465 . S
C1255 C1254 1.396 . S
C1255 C1256 1.399 . S
C1256 H1242 0.929 . S
C1256 C1255 1.399 . S
C1256 C1257 1.385 . S
C1257 H1243 0.931 . S
C1257 C1256 1.385 . S
C1257 C1258 1.389 . S
C1258 C1257 1.389 . S
C1258 C1259 1.387 . S
C1259 H1244 0.930 . S
C1259 C1254 1.390 . S
C1259 C1258 1.387 . S
H1260 C1272 0.930 . S
H1261 C1274 0.930 . S
H1262 C1275 0.930 . S
H1263 C1279 0.959 . S
H1264 C1279 0.959 . S
H1265 C1279 0.961 . S
H1266 C1280 0.960 . S
H1267 C1280 0.961 . S
H1268 C1280 0.959 . S
H1269 C1283 0.929 . S
H1270 C1284 0.931 . S
H1271 C1286 0.930 . S
C1272 H1260 0.930 . S
C1272 C1273 1.399 . S
C1272 C1277 1.399 . S
C1273 C1272 1.399 . S
C1273 C1274 1.376 . S
C1274 H1261 0.930 . S
C1274 C1273 1.376 . S
C1274 C1275 1.388 . S
C1275 H1262 0.930 . S
C1275 C1274 1.388 . S
C1275 C1276 1.390 . S
C1276 C1275 1.390 . S
C1276 C1277 1.394 . S
C1276 C1282 1.465 . S
C1277 C1272 1.399 . S
C1277 C1276 1.394 . S
C1277 C1278 1.516 . S
C1278 C1277 1.516 . S
C1278 C1279 1.502 . S
C1278 C1280 1.561 . S
C1278 C1281 1.526 . S
C1279 H1263 0.959 . S
C1279 H1264 0.959 . S
C1279 H1265 0.961 . S
C1279 C1278 1.502 . S
C1280 H1266 0.960 . S
C1280 H1267 0.961 . S
C1280 H1268 0.959 . S
C1280 C1278 1.561 . S
C1281 C1278 1.526 . S
C1281 C1282 1.396 . S
C1281 C1286 1.390 . S
C1282 C1276 1.465 . S
C1282 C1281 1.396 . S
C1282 C1283 1.399 . S
C1283 H1269 0.929 . S
C1283 C1282 1.399 . S
C1283 C1284 1.385 . S
C1284 H1270 0.931 . S
C1284 C1283 1.385 . S
C1284 C1285 1.389 . S
C1285 C1284 1.389 . S
C1285 C1286 1.387 . S
C1286 H1271 0.930 . S
C1286 C1281 1.390 . S
C1286 C1285 1.387 . S
H1287 C1299 0.930 . S
H1288 C1301 0.930 . S
H1289 C1302 0.930 . S
H1290 C1306 0.959 . S
H1291 C1306 0.959 . S
H1292 C1306 0.961 . S
H1293 C1307 0.960 . S
H1294 C1307 0.961 . S
H1295 C1307 0.959 . S
H1296 C1310 0.929 . S
H1297 C1311 0.931 . S
H1298 C1313 0.930 . S
C1299 H1287 0.930 . S
C1299 C1300 1.399 . S
C1299 C1304 1.399 . S
C1300 C1299 1.399 . S
C1300 C1301 1.376 . S
C1301 H1288 0.930 . S
C1301 C1300 1.376 . S
C1301 C1302 1.388 . S
C1302 H1289 0.930 . S
C1302 C1301 1.388 . S
C1302 C1303 1.390 . S
C1303 C1302 1.390 . S
C1303 C1304 1.394 . S
C1303 C1309 1.465 . S
C1304 C1299 1.399 . S
C1304 C1303 1.394 . S
C1304 C1305 1.516 . S
C1305 C1304 1.516 . S
C1305 C1306 1.502 . S
C1305 C1307 1.561 . S
C1305 C1308 1.526 . S
C1306 H1290 0.959 . S
C1306 H1291 0.959 . S
C1306 H1292 0.961 . S
C1306 C1305 1.502 . S
C1307 H1293 0.960 . S
C1307 H1294 0.961 . S
C1307 H1295 0.959 . S
C1307 C1305 1.561 . S
C1308 C1305 1.526 . S
C1308 C1309 1.396 . S
C1308 C1313 1.390 . S
C1309 C1303 1.465 . S
C1309 C1308 1.396 . S
C1309 C1310 1.399 . S
C1310 H1296 0.929 . S
C1310 C1309 1.399 . S
C1310 C1311 1.385 . S
C1311 H1297 0.931 . S
C1311 C1310 1.385 . S
C1311 C1312 1.389 . S
C1312 C1311 1.389 . S
C1312 C1313 1.387 . S
C1313 H1298 0.930 . S
C1313 C1308 1.390 . S
C1313 C1312 1.387 . S
H1314 C1326 0.930 . S
H1315 C1328 0.930 . S
H1316 C1329 0.930 . S
H1317 C1333 0.959 . S
H1318 C1333 0.959 . S
H1319 C1333 0.961 . S
H1320 C1334 0.960 . S
H1321 C1334 0.961 . S
H1322 C1334 0.959 . S
H1323 C1337 0.929 . S
H1324 C1338 0.931 . S
H1325 C1340 0.930 . S
C1326 H1314 0.930 . S
C1326 C1327 1.399 . S
C1326 C1331 1.399 . S
C1327 C1326 1.399 . S
C1327 C1328 1.376 . S
C1328 H1315 0.930 . S
C1328 C1327 1.376 . S
C1328 C1329 1.388 . S
C1329 H1316 0.930 . S
C1329 C1328 1.388 . S
C1329 C1330 1.390 . S
C1330 C1329 1.390 . S
C1330 C1331 1.394 . S
C1330 C1336 1.465 . S
C1331 C1326 1.399 . S
C1331 C1330 1.394 . S
C1331 C1332 1.516 . S
C1332 C1331 1.516 . S
C1332 C1333 1.502 . S
C1332 C1334 1.561 . S
C1332 C1335 1.526 . S
C1333 H1317 0.959 . S
C1333 H1318 0.959 . S
C1333 H1319 0.961 . S
C1333 C1332 1.502 . S
C1334 H1320 0.960 . S
C1334 H1321 0.961 . S
C1334 H1322 0.959 . S
C1334 C1332 1.561 . S
C1335 C1332 1.526 . S
C1335 C1336 1.396 . S
C1335 C1340 1.390 . S
C1336 C1330 1.465 . S
C1336 C1335 1.396 . S
C1336 C1337 1.399 . S
C1337 H1323 0.929 . S
C1337 C1336 1.399 . S
C1337 C1338 1.385 . S
C1338 H1324 0.931 . S
C1338 C1337 1.385 . S
C1338 C1339 1.389 . S
C1339 C1338 1.389 . S
C1339 C1340 1.387 . S
C1340 H1325 0.930 . S
C1340 C1335 1.390 . S
C1340 C1339 1.387 . S
H1341 C1353 0.930 . S
H1342 C1355 0.930 . S
H1343 C1356 0.930 . S
H1344 C1360 0.959 . S
H1345 C1360 0.959 . S
H1346 C1360 0.961 . S
H1347 C1361 0.960 . S
H1348 C1361 0.961 . S
H1349 C1361 0.959 . S
H1350 C1364 0.929 . S
H1351 C1365 0.931 . S
H1352 C1367 0.930 . S
C1353 H1341 0.930 . S
C1353 C1354 1.399 . S
C1353 C1358 1.399 . S
C1354 C1353 1.399 . S
C1354 C1355 1.376 . S
C1355 H1342 0.930 . S
C1355 C1354 1.376 . S
C1355 C1356 1.388 . S
C1356 H1343 0.930 . S
C1356 C1355 1.388 . S
C1356 C1357 1.390 . S
C1357 C1356 1.390 . S
C1357 C1358 1.394 . S
C1357 C1363 1.465 . S
C1358 C1353 1.399 . S
C1358 C1357 1.394 . S
C1358 C1359 1.516 . S
C1359 C1358 1.516 . S
C1359 C1360 1.502 . S
C1359 C1361 1.561 . S
C1359 C1362 1.526 . S
C1360 H1344 0.959 . S
C1360 H1345 0.959 . S
C1360 H1346 0.961 . S
C1360 C1359 1.502 . S
C1361 H1347 0.960 . S
C1361 H1348 0.961 . S
C1361 H1349 0.959 . S
C1361 C1359 1.561 . S
C1362 C1359 1.526 . S
C1362 C1363 1.396 . S
C1362 C1367 1.390 . S
C1363 C1357 1.465 . S
C1363 C1362 1.396 . S
C1363 C1364 1.399 . S
C1364 H1350 0.929 . S
C1364 C1363 1.399 . S
C1364 C1365 1.385 . S
C1365 H1351 0.931 . S
C1365 C1364 1.385 . S
C1365 C1366 1.389 . S
C1366 C1365 1.389 . S
C1366 C1367 1.387 . S
C1367 H1352 0.930 . S
C1367 C1362 1.390 . S
C1367 C1366 1.387 . S
H1368 C1380 0.930 . S
H1369 C1382 0.930 . S
H1370 C1383 0.930 . S
H1371 C1387 0.959 . S
H1372 C1387 0.959 . S
H1373 C1387 0.961 . S
H1374 C1388 0.960 . S
H1375 C1388 0.961 . S
H1376 C1388 0.959 . S
H1377 C1391 0.929 . S
H1378 C1392 0.931 . S
H1379 C1394 0.930 . S
C1380 H1368 0.930 . S
C1380 C1381 1.399 . S
C1380 C1385 1.399 . S
C1381 C1380 1.399 . S
C1381 C1382 1.376 . S
C1382 H1369 0.930 . S
C1382 C1381 1.376 . S
C1382 C1383 1.388 . S
C1383 H1370 0.930 . S
C1383 C1382 1.388 . S
C1383 C1384 1.390 . S
C1384 C1383 1.390 . S
C1384 C1385 1.394 . S
C1384 C1390 1.465 . S
C1385 C1380 1.399 . S
C1385 C1384 1.394 . S
C1385 C1386 1.516 . S
C1386 C1385 1.516 . S
C1386 C1387 1.502 . S
C1386 C1388 1.561 . S
C1386 C1389 1.526 . S
C1387 H1371 0.959 . S
C1387 H1372 0.959 . S
C1387 H1373 0.961 . S
C1387 C1386 1.502 . S
C1388 H1374 0.960 . S
C1388 H1375 0.961 . S
C1388 H1376 0.959 . S
C1388 C1386 1.561 . S
C1389 C1386 1.526 . S
C1389 C1390 1.396 . S
C1389 C1394 1.390 . S
C1390 C1384 1.465 . S
C1390 C1389 1.396 . S
C1390 C1391 1.399 . S
C1391 H1377 0.929 . S
C1391 C1390 1.399 . S
C1391 C1392 1.385 . S
C1392 H1378 0.931 . S
C1392 C1391 1.385 . S
C1392 C1393 1.389 . S
C1393 C1392 1.389 . S
C1393 C1394 1.387 . S
C1394 H1379 0.930 . S
C1394 C1389 1.390 . S
C1394 C1393 1.387 . S
H1395 C1407 0.930 . S
H1396 C1409 0.930 . S
H1397 C1410 0.930 . S
H1398 C1414 0.959 . S
H1399 C1414 0.959 . S
H1400 C1414 0.961 . S
H1401 C1415 0.960 . S
H1402 C1415 0.961 . S
H1403 C1415 0.959 . S
H1404 C1418 0.929 . S
H1405 C1419 0.931 . S
H1406 C1421 0.930 . S
C1407 H1395 0.930 . S
C1407 C1408 1.399 . S
C1407 C1412 1.399 . S
C1408 C1407 1.399 . S
C1408 C1409 1.376 . S
C1409 H1396 0.930 . S
C1409 C1408 1.376 . S
C1409 C1410 1.388 . S
C1410 H1397 0.930 . S
C1410 C1409 1.388 . S
C1410 C1411 1.390 . S
C1411 C1410 1.390 . S
C1411 C1412 1.394 . S
C1411 C1417 1.465 . S
C1412 C1407 1.399 . S
C1412 C1411 1.394 . S
C1412 C1413 1.516 . S
C1413 C1412 1.516 . S
C1413 C1414 1.502 . S
C1413 C1415 1.561 . S
C1413 C1416 1.526 . S
C1414 H1398 0.959 . S
C1414 H1399 0.959 . S
C1414 H1400 0.961 . S
C1414 C1413 1.502 . S
C1415 H1401 0.960 . S
C1415 H1402 0.961 . S
C1415 H1403 0.959 . S
C1415 C1413 1.561 . S
C1416 C1413 1.526 . S
C1416 C1417 1.396 . S
C1416 C1421 1.390 . S
C1417 C1411 1.465 . S
C1417 C1416 1.396 . S
C1417 C1418 1.399 . S
C1418 H1404 0.929 . S
C1418 C1417 1.399 . S
C1418 C1419 1.385 . S
C1419 H1405 0.931 . S
C1419 C1418 1.385 . S
C1419 C1420 1.389 . S
C1420 C1419 1.389 . S
C1420 C1421 1.387 . S
C1421 H1406 0.930 . S
C1421 C1416 1.390 . S
C1421 C1420 1.387 . S
H1422 C1434 0.930 . S
H1423 C1436 0.930 . S
H1424 C1437 0.930 . S
H1425 C1441 0.959 . S
H1426 C1441 0.959 . S
H1427 C1441 0.961 . S
H1428 C1442 0.960 . S
H1429 C1442 0.961 . S
H1430 C1442 0.959 . S
H1431 C1445 0.929 . S
H1432 C1446 0.931 . S
H1433 C1448 0.930 . S
C1434 H1422 0.930 . S
C1434 C1435 1.399 . S
C1434 C1439 1.399 . S
C1435 C1434 1.399 . S
C1435 C1436 1.376 . S
C1436 H1423 0.930 . S
C1436 C1435 1.376 . S
C1436 C1437 1.388 . S
C1437 H1424 0.930 . S
C1437 C1436 1.388 . S
C1437 C1438 1.390 . S
C1438 C1437 1.390 . S
C1438 C1439 1.394 . S
C1438 C1444 1.465 . S
C1439 C1434 1.399 . S
C1439 C1438 1.394 . S
C1439 C1440 1.516 . S
C1440 C1439 1.516 . S
C1440 C1441 1.502 . S
C1440 C1442 1.561 . S
C1440 C1443 1.526 . S
C1441 H1425 0.959 . S
C1441 H1426 0.959 . S
C1441 H1427 0.961 . S
C1441 C1440 1.502 . S
C1442 H1428 0.960 . S
C1442 H1429 0.961 . S
C1442 H1430 0.959 . S
C1442 C1440 1.561 . S
C1443 C1440 1.526 . S
C1443 C1444 1.396 . S
C1443 C1448 1.390 . S
C1444 C1438 1.465 . S
C1444 C1443 1.396 . S
C1444 C1445 1.399 . S
C1445 H1431 0.929 . S
C1445 C1444 1.399 . S
C1445 C1446 1.385 . S
C1446 H1432 0.931 . S
C1446 C1445 1.385 . S
C1446 C1447 1.389 . S
C1447 C1446 1.389 . S
C1447 C1448 1.387 . S
C1448 H1433 0.930 . S
C1448 C1443 1.390 . S
C1448 C1447 1.387 . S
H1449 C1461 0.930 . S
H1450 C1463 0.930 . S
H1451 C1464 0.930 . S
H1452 C1468 0.959 . S
H1453 C1468 0.959 . S
H1454 C1468 0.961 . S
H1455 C1469 0.960 . S
H1456 C1469 0.961 . S
H1457 C1469 0.959 . S
H1458 C1472 0.929 . S
H1459 C1473 0.931 . S
H1460 C1475 0.930 . S
C1461 H1449 0.930 . S
C1461 C1462 1.399 . S
C1461 C1466 1.399 . S
C1462 C1461 1.399 . S
C1462 C1463 1.376 . S
C1463 H1450 0.930 . S
C1463 C1462 1.376 . S
C1463 C1464 1.388 . S
C1464 H1451 0.930 . S
C1464 C1463 1.388 . S
C1464 C1465 1.390 . S
C1465 C1464 1.390 . S
C1465 C1466 1.394 . S
C1465 C1471 1.465 . S
C1466 C1461 1.399 . S
C1466 C1465 1.394 . S
C1466 C1467 1.516 . S
C1467 C1466 1.516 . S
C1467 C1468 1.502 . S
C1467 C1469 1.561 . S
C1467 C1470 1.526 . S
C1468 H1452 0.959 . S
C1468 H1453 0.959 . S
C1468 H1454 0.961 . S
C1468 C1467 1.502 . S
C1469 H1455 0.960 . S
C1469 H1456 0.961 . S
C1469 H1457 0.959 . S
C1469 C1467 1.561 . S
C1470 C1467 1.526 . S
C1470 C1471 1.396 . S
C1470 C1475 1.390 . S
C1471 C1465 1.465 . S
C1471 C1470 1.396 . S
C1471 C1472 1.399 . S
C1472 H1458 0.929 . S
C1472 C1471 1.399 . S
C1472 C1473 1.385 . S
C1473 H1459 0.931 . S
C1473 C1472 1.385 . S
C1473 C1474 1.389 . S
C1474 C1473 1.389 . S
C1474 C1475 1.387 . S
C1475 H1460 0.930 . S
C1475 C1470 1.390 . S
C1475 C1474 1.387 . S
H1476 C1488 0.930 . S
H1477 C1490 0.930 . S
H1478 C1491 0.930 . S
H1479 C1495 0.959 . S
H1480 C1495 0.959 . S
H1481 C1495 0.961 . S
H1482 C1496 0.960 . S
H1483 C1496 0.961 . S
H1484 C1496 0.959 . S
H1485 C1499 0.929 . S
H1486 C1500 0.931 . S
H1487 C1502 0.930 . S
C1488 H1476 0.930 . S
C1488 C1489 1.399 . S
C1488 C1493 1.399 . S
C1489 C1488 1.399 . S
C1489 C1490 1.376 . S
C1490 H1477 0.930 . S
C1490 C1489 1.376 . S
C1490 C1491 1.388 . S
C1491 H1478 0.930 . S
C1491 C1490 1.388 . S
C1491 C1492 1.390 . S
C1492 C1491 1.390 . S
C1492 C1493 1.394 . S
C1492 C1498 1.465 . S
C1493 C1488 1.399 . S
C1493 C1492 1.394 . S
C1493 C1494 1.516 . S
C1494 C1493 1.516 . S
C1494 C1495 1.502 . S
C1494 C1496 1.561 . S
C1494 C1497 1.526 . S
C1495 H1479 0.959 . S
C1495 H1480 0.959 . S
C1495 H1481 0.961 . S
C1495 C1494 1.502 . S
C1496 H1482 0.960 . S
C1496 H1483 0.961 . S
C1496 H1484 0.959 . S
C1496 C1494 1.561 . S
C1497 C1494 1.526 . S
C1497 C1498 1.396 . S
C1497 C1502 1.390 . S
C1498 C1492 1.465 . S
C1498 C1497 1.396 . S
C1498 C1499 1.399 . S
C1499 H1485 0.929 . S
C1499 C1498 1.399 . S
C1499 C1500 1.385 . S
C1500 H1486 0.931 . S
C1500 C1499 1.385 . S
C1500 C1501 1.389 . S
C1501 C1500 1.389 . S
C1501 C1502 1.387 . S
C1502 H1487 0.930 . S
C1502 C1497 1.390 . S
C1502 C1501 1.387 . S
H1503 C1515 0.930 . S
H1504 C1517 0.930 . S
H1505 C1518 0.930 . S
H1506 C1522 0.959 . S
H1507 C1522 0.959 . S
H1508 C1522 0.961 . S
H1509 C1523 0.960 . S
H1510 C1523 0.961 . S
H1511 C1523 0.959 . S
H1512 C1526 0.929 . S
H1513 C1527 0.931 . S
H1514 C1529 0.930 . S
C1515 H1503 0.930 . S
C1515 C1516 1.399 . S
C1515 C1520 1.399 . S
C1516 C1515 1.399 . S
C1516 C1517 1.376 . S
C1517 H1504 0.930 . S
C1517 C1516 1.376 . S
C1517 C1518 1.388 . S
C1518 H1505 0.930 . S
C1518 C1517 1.388 . S
C1518 C1519 1.390 . S
C1519 C1518 1.390 . S
C1519 C1520 1.394 . S
C1519 C1525 1.465 . S
C1520 C1515 1.399 . S
C1520 C1519 1.394 . S
C1520 C1521 1.516 . S
C1521 C1520 1.516 . S
C1521 C1522 1.502 . S
C1521 C1523 1.561 . S
C1521 C1524 1.526 . S
C1522 H1506 0.959 . S
C1522 H1507 0.959 . S
C1522 H1508 0.961 . S
C1522 C1521 1.502 . S
C1523 H1509 0.960 . S
C1523 H1510 0.961 . S
C1523 H1511 0.959 . S
C1523 C1521 1.561 . S
C1524 C1521 1.526 . S
C1524 C1525 1.396 . S
C1524 C1529 1.390 . S
C1525 C1519 1.465 . S
C1525 C1524 1.396 . S
C1525 C1526 1.399 . S
C1526 H1512 0.929 . S
C1526 C1525 1.399 . S
C1526 C1527 1.385 . S
C1527 H1513 0.931 . S
C1527 C1526 1.385 . S
C1527 C1528 1.389 . S
C1528 C1527 1.389 . S
C1528 C1529 1.387 . S
C1529 H1514 0.930 . S
C1529 C1524 1.390 . S
C1529 C1528 1.387 . S
H1530 C1542 0.930 . S
H1531 C1544 0.930 . S
H1532 C1545 0.930 . S
H1533 C1549 0.959 . S
H1534 C1549 0.959 . S
H1535 C1549 0.961 . S
H1536 C1550 0.960 . S
H1537 C1550 0.961 . S
H1538 C1550 0.959 . S
H1539 C1553 0.929 . S
H1540 C1554 0.931 . S
H1541 C1556 0.930 . S
C1542 H1530 0.930 . S
C1542 C1543 1.399 . S
C1542 C1547 1.399 . S
C1543 C1542 1.399 . S
C1543 C1544 1.376 . S
C1544 H1531 0.930 . S
C1544 C1543 1.376 . S
C1544 C1545 1.388 . S
C1545 H1532 0.930 . S
C1545 C1544 1.388 . S
C1545 C1546 1.390 . S
C1546 C1545 1.390 . S
C1546 C1547 1.394 . S
C1546 C1552 1.465 . S
C1547 C1542 1.399 . S
C1547 C1546 1.394 . S
C1547 C1548 1.516 . S
C1548 C1547 1.516 . S
C1548 C1549 1.502 . S
C1548 C1550 1.561 . S
C1548 C1551 1.526 . S
C1549 H1533 0.959 . S
C1549 H1534 0.959 . S
C1549 H1535 0.961 . S
C1549 C1548 1.502 . S
C1550 H1536 0.960 . S
C1550 H1537 0.961 . S
C1550 H1538 0.959 . S
C1550 C1548 1.561 . S
C1551 C1548 1.526 . S
C1551 C1552 1.396 . S
C1551 C1556 1.390 . S
C1552 C1546 1.465 . S
C1552 C1551 1.396 . S
C1552 C1553 1.399 . S
C1553 H1539 0.929 . S
C1553 C1552 1.399 . S
C1553 C1554 1.385 . S
C1554 H1540 0.931 . S
C1554 C1553 1.385 . S
C1554 C1555 1.389 . S
C1555 C1554 1.389 . S
C1555 C1556 1.387 . S
C1556 H1541 0.930 . S
C1556 C1551 1.390 . S
C1556 C1555 1.387 . S
H1557 C1569 0.930 . S
H1558 C1571 0.930 . S
H1559 C1572 0.930 . S
H1560 C1576 0.959 . S
H1561 C1576 0.959 . S
H1562 C1576 0.961 . S
H1563 C1577 0.960 . S
H1564 C1577 0.961 . S
H1565 C1577 0.959 . S
H1566 C1580 0.929 . S
H1567 C1581 0.931 . S
H1568 C1583 0.930 . S
C1569 H1557 0.930 . S
C1569 C1570 1.399 . S
C1569 C1574 1.399 . S
C1570 C1569 1.399 . S
C1570 C1571 1.376 . S
C1571 H1558 0.930 . S
C1571 C1570 1.376 . S
C1571 C1572 1.388 . S
C1572 H1559 0.930 . S
C1572 C1571 1.388 . S
C1572 C1573 1.390 . S
C1573 C1572 1.390 . S
C1573 C1574 1.394 . S
C1573 C1579 1.465 . S
C1574 C1569 1.399 . S
C1574 C1573 1.394 . S
C1574 C1575 1.516 . S
C1575 C1574 1.516 . S
C1575 C1576 1.502 . S
C1575 C1577 1.561 . S
C1575 C1578 1.526 . S
C1576 H1560 0.959 . S
C1576 H1561 0.959 . S
C1576 H1562 0.961 . S
C1576 C1575 1.502 . S
C1577 H1563 0.960 . S
C1577 H1564 0.961 . S
C1577 H1565 0.959 . S
C1577 C1575 1.561 . S
C1578 C1575 1.526 . S
C1578 C1579 1.396 . S
C1578 C1583 1.390 . S
C1579 C1573 1.465 . S
C1579 C1578 1.396 . S
C1579 C1580 1.399 . S
C1580 H1566 0.929 . S
C1580 C1579 1.399 . S
C1580 C1581 1.385 . S
C1581 H1567 0.931 . S
C1581 C1580 1.385 . S
C1581 C1582 1.389 . S
C1582 C1581 1.389 . S
C1582 C1583 1.387 . S
C1583 H1568 0.930 . S
C1583 C1578 1.390 . S
C1583 C1582 1.387 . S
H1584 C1596 0.930 . S
H1585 C1598 0.930 . S
H1586 C1599 0.930 . S
H1587 C1603 0.959 . S
H1588 C1603 0.959 . S
H1589 C1603 0.961 . S
H1590 C1604 0.960 . S
H1591 C1604 0.961 . S
H1592 C1604 0.959 . S
H1593 C1607 0.929 . S
H1594 C1608 0.931 . S
H1595 C1610 0.930 . S
C1596 H1584 0.930 . S
C1596 C1597 1.399 . S
C1596 C1601 1.399 . S
C1597 C1596 1.399 . S
C1597 C1598 1.376 . S
C1598 H1585 0.930 . S
C1598 C1597 1.376 . S
C1598 C1599 1.388 . S
C1599 H1586 0.930 . S
C1599 C1598 1.388 . S
C1599 C1600 1.390 . S
C1600 C1599 1.390 . S
C1600 C1601 1.394 . S
C1600 C1606 1.465 . S
C1601 C1596 1.399 . S
C1601 C1600 1.394 . S
C1601 C1602 1.516 . S
C1602 C1601 1.516 . S
C1602 C1603 1.502 . S
C1602 C1604 1.561 . S
C1602 C1605 1.526 . S
C1603 H1587 0.959 . S
C1603 H1588 0.959 . S
C1603 H1589 0.961 . S
C1603 C1602 1.502 . S
C1604 H1590 0.960 . S
C1604 H1591 0.961 . S
C1604 H1592 0.959 . S
C1604 C1602 1.561 . S
C1605 C1602 1.526 . S
C1605 C1606 1.396 . S
C1605 C1610 1.390 . S
C1606 C1600 1.465 . S
C1606 C1605 1.396 . S
C1606 C1607 1.399 . S
C1607 H1593 0.929 . S
C1607 C1606 1.399 . S
C1607 C1608 1.385 . S
C1608 H1594 0.931 . S
C1608 C1607 1.385 . S
C1608 C1609 1.389 . S
C1609 C1608 1.389 . S
C1609 C1610 1.387 . S
C1610 H1595 0.930 . S
C1610 C1605 1.390 . S
C1610 C1609 1.387 . S
H1611 C1623 0.930 . S
H1612 C1625 0.930 . S
H1613 C1626 0.930 . S
H1614 C1630 0.959 . S
H1615 C1630 0.959 . S
H1616 C1630 0.961 . S
H1617 C1631 0.960 . S
H1618 C1631 0.961 . S
H1619 C1631 0.959 . S
H1620 C1634 0.929 . S
H1621 C1635 0.931 . S
H1622 C1637 0.930 . S
C1623 H1611 0.930 . S
C1623 C1624 1.399 . S
C1623 C1628 1.399 . S
C1624 C1623 1.399 . S
C1624 C1625 1.376 . S
C1625 H1612 0.930 . S
C1625 C1624 1.376 . S
C1625 C1626 1.388 . S
C1626 H1613 0.930 . S
C1626 C1625 1.388 . S
C1626 C1627 1.390 . S
C1627 C1626 1.390 . S
C1627 C1628 1.394 . S
C1627 C1633 1.465 . S
C1628 C1623 1.399 . S
C1628 C1627 1.394 . S
C1628 C1629 1.516 . S
C1629 C1628 1.516 . S
C1629 C1630 1.502 . S
C1629 C1631 1.561 . S
C1629 C1632 1.526 . S
C1630 H1614 0.959 . S
C1630 H1615 0.959 . S
C1630 H1616 0.961 . S
C1630 C1629 1.502 . S
C1631 H1617 0.960 . S
C1631 H1618 0.961 . S
C1631 H1619 0.959 . S
C1631 C1629 1.561 . S
C1632 C1629 1.526 . S
C1632 C1633 1.396 . S
C1632 C1637 1.390 . S
C1633 C1627 1.465 . S
C1633 C1632 1.396 . S
C1633 C1634 1.399 . S
C1634 H1620 0.929 . S
C1634 C1633 1.399 . S
C1634 C1635 1.385 . S
C1635 H1621 0.931 . S
C1635 C1634 1.385 . S
C1635 C1636 1.389 . S
C1636 C1635 1.389 . S
C1636 C1637 1.387 . S
C1637 H1622 0.930 . S
C1637 C1632 1.390 . S
C1637 C1636 1.387 . S
H1638 C1650 0.930 . S
H1639 C1652 0.930 . S
H1640 C1653 0.930 . S
H1641 C1657 0.959 . S
H1642 C1657 0.959 . S
H1643 C1657 0.961 . S
H1644 C1658 0.960 . S
H1645 C1658 0.961 . S
H1646 C1658 0.959 . S
H1647 C1661 0.929 . S
H1648 C1662 0.931 . S
H1649 C1664 0.930 . S
C1650 H1638 0.930 . S
C1650 C1651 1.399 . S
C1650 C1655 1.399 . S
C1651 C1650 1.399 . S
C1651 C1652 1.376 . S
C1652 H1639 0.930 . S
C1652 C1651 1.376 . S
C1652 C1653 1.388 . S
C1653 H1640 0.930 . S
C1653 C1652 1.388 . S
C1653 C1654 1.390 . S
C1654 C1653 1.390 . S
C1654 C1655 1.394 . S
C1654 C1660 1.465 . S
C1655 C1650 1.399 . S
C1655 C1654 1.394 . S
C1655 C1656 1.516 . S
C1656 C1655 1.516 . S
C1656 C1657 1.502 . S
C1656 C1658 1.561 . S
C1656 C1659 1.526 . S
C1657 H1641 0.959 . S
C1657 H1642 0.959 . S
C1657 H1643 0.961 . S
C1657 C1656 1.502 . S
C1658 H1644 0.960 . S
C1658 H1645 0.961 . S
C1658 H1646 0.959 . S
C1658 C1656 1.561 . S
C1659 C1656 1.526 . S
C1659 C1660 1.396 . S
C1659 C1664 1.390 . S
C1660 C1654 1.465 . S
C1660 C1659 1.396 . S
C1660 C1661 1.399 . S
C1661 H1647 0.929 . S
C1661 C1660 1.399 . S
C1661 C1662 1.385 . S
C1662 H1648 0.931 . S
C1662 C1661 1.385 . S
C1662 C1663 1.389 . S
C1663 C1662 1.389 . S
C1663 C1664 1.387 . S
C1664 H1649 0.930 . S
C1664 C1659 1.390 . S
C1664 C1663 1.387 . S
H1665 C1677 0.930 . S
H1666 C1679 0.930 . S
H1667 C1680 0.930 . S
H1668 C1684 0.959 . S
H1669 C1684 0.959 . S
H1670 C1684 0.961 . S
H1671 C1685 0.960 . S
H1672 C1685 0.961 . S
H1673 C1685 0.959 . S
H1674 C1688 0.929 . S
H1675 C1689 0.931 . S
H1676 C1691 0.930 . S
C1677 H1665 0.930 . S
C1677 C1678 1.399 . S
C1677 C1682 1.399 . S
C1678 C1677 1.399 . S
C1678 C1679 1.376 . S
C1679 H1666 0.930 . S
C1679 C1678 1.376 . S
C1679 C1680 1.388 . S
C1680 H1667 0.930 . S
C1680 C1679 1.388 . S
C1680 C1681 1.390 . S
C1681 C1680 1.390 . S
C1681 C1682 1.394 . S
C1681 C1687 1.465 . S
C1682 C1677 1.399 . S
C1682 C1681 1.394 . S
C1682 C1683 1.516 . S
C1683 C1682 1.516 . S
C1683 C1684 1.502 . S
C1683 C1685 1.561 . S
C1683 C1686 1.526 . S
C1684 H1668 0.959 . S
C1684 H1669 0.959 . S
C1684 H1670 0.961 . S
C1684 C1683 1.502 . S
C1685 H1671 0.960 . S
C1685 H1672 0.961 . S
C1685 H1673 0.959 . S
C1685 C1683 1.561 . S
C1686 C1683 1.526 . S
C1686 C1687 1.396 . S
C1686 C1691 1.390 . S
C1687 C1681 1.465 . S
C1687 C1686 1.396 . S
C1687 C1688 1.399 . S
C1688 H1674 0.929 . S
C1688 C1687 1.399 . S
C1688 C1689 1.385 . S
C1689 H1675 0.931 . S
C1689 C1688 1.385 . S
C1689 C1690 1.389 . S
C1690 C1689 1.389 . S
C1690 C1691 1.387 . S
C1691 H1676 0.930 . S
C1691 C1686 1.390 . S
C1691 C1690 1.387 . S
H1692 C1704 0.930 . S
H1693 C1706 0.930 . S
H1694 C1707 0.930 . S
H1695 C1711 0.959 . S
H1696 C1711 0.959 . S
H1697 C1711 0.961 . S
H1698 C1712 0.960 . S
H1699 C1712 0.961 . S
H1700 C1712 0.959 . S
H1701 C1715 0.929 . S
H1702 C1716 0.931 . S
H1703 C1718 0.930 . S
C1704 H1692 0.930 . S
C1704 C1705 1.399 . S
C1704 C1709 1.399 . S
C1705 C1704 1.399 . S
C1705 C1706 1.376 . S
C1706 H1693 0.930 . S
C1706 C1705 1.376 . S
C1706 C1707 1.388 . S
C1707 H1694 0.930 . S
C1707 C1706 1.388 . S
C1707 C1708 1.390 . S
C1708 C1707 1.390 . S
C1708 C1709 1.394 . S
C1708 C1714 1.465 . S
C1709 C1704 1.399 . S
C1709 C1708 1.394 . S
C1709 C1710 1.516 . S
C1710 C1709 1.516 . S
C1710 C1711 1.502 . S
C1710 C1712 1.561 . S
C1710 C1713 1.526 . S
C1711 H1695 0.959 . S
C1711 H1696 0.959 . S
C1711 H1697 0.961 . S
C1711 C1710 1.502 . S
C1712 H1698 0.960 . S
C1712 H1699 0.961 . S
C1712 H1700 0.959 . S
C1712 C1710 1.561 . S
C1713 C1710 1.526 . S
C1713 C1714 1.396 . S
C1713 C1718 1.390 . S
C1714 C1708 1.465 . S
C1714 C1713 1.396 . S
C1714 C1715 1.399 . S
C1715 H1701 0.929 . S
C1715 C1714 1.399 . S
C1715 C1716 1.385 . S
C1716 H1702 0.931 . S
C1716 C1715 1.385 . S
C1716 C1717 1.389 . S
C1717 C1716 1.389 . S
C1717 C1718 1.387 . S
C1718 H1703 0.930 . S
C1718 C1713 1.390 . S
C1718 C1717 1.387 . S
H1719 C1731 0.930 . S
H1720 C1733 0.930 . S
H1721 C1734 0.930 . S
H1722 C1738 0.959 . S
H1723 C1738 0.959 . S
H1724 C1738 0.961 . S
H1725 C1739 0.960 . S
H1726 C1739 0.961 . S
H1727 C1739 0.959 . S
H1728 C1742 0.929 . S
H1729 C1743 0.931 . S
H1730 C1745 0.930 . S
C1731 H1719 0.930 . S
C1731 C1732 1.399 . S
C1731 C1736 1.399 . S
C1732 C1731 1.399 . S
C1732 C1733 1.376 . S
C1733 H1720 0.930 . S
C1733 C1732 1.376 . S
C1733 C1734 1.388 . S
C1734 H1721 0.930 . S
C1734 C1733 1.388 . S
C1734 C1735 1.390 . S
C1735 C1734 1.390 . S
C1735 C1736 1.394 . S
C1735 C1741 1.465 . S
C1736 C1731 1.399 . S
C1736 C1735 1.394 . S
C1736 C1737 1.516 . S
C1737 C1736 1.516 . S
C1737 C1738 1.502 . S
C1737 C1739 1.561 . S
C1737 C1740 1.526 . S
C1738 H1722 0.959 . S
C1738 H1723 0.959 . S
C1738 H1724 0.961 . S
C1738 C1737 1.502 . S
C1739 H1725 0.960 . S
C1739 H1726 0.961 . S
C1739 H1727 0.959 . S
C1739 C1737 1.561 . S
C1740 C1737 1.526 . S
C1740 C1741 1.396 . S
C1740 C1745 1.390 . S
C1741 C1735 1.465 . S
C1741 C1740 1.396 . S
C1741 C1742 1.399 . S
C1742 H1728 0.929 . S
C1742 C1741 1.399 . S
C1742 C1743 1.385 . S
C1743 H1729 0.931 . S
C1743 C1742 1.385 . S
C1743 C1744 1.389 . S
C1744 C1743 1.389 . S
C1744 C1745 1.387 . S
C1745 H1730 0.930 . S
C1745 C1740 1.390 . S
C1745 C1744 1.387 . S
H1746 C1758 0.930 . S
H1747 C1760 0.930 . S
H1748 C1761 0.930 . S
H1749 C1765 0.959 . S
H1750 C1765 0.959 . S
H1751 C1765 0.961 . S
H1752 C1766 0.960 . S
H1753 C1766 0.961 . S
H1754 C1766 0.959 . S
H1755 C1769 0.929 . S
H1756 C1770 0.931 . S
H1757 C1772 0.930 . S
C1758 H1746 0.930 . S
C1758 C1759 1.399 . S
C1758 C1763 1.399 . S
C1759 C1758 1.399 . S
C1759 C1760 1.376 . S
C1760 H1747 0.930 . S
C1760 C1759 1.376 . S
C1760 C1761 1.388 . S
C1761 H1748 0.930 . S
C1761 C1760 1.388 . S
C1761 C1762 1.390 . S
C1762 C1761 1.390 . S
C1762 C1763 1.394 . S
C1762 C1768 1.465 . S
C1763 C1758 1.399 . S
C1763 C1762 1.394 . S
C1763 C1764 1.516 . S
C1764 C1763 1.516 . S
C1764 C1765 1.502 . S
C1764 C1766 1.561 . S
C1764 C1767 1.526 . S
C1765 H1749 0.959 . S
C1765 H1750 0.959 . S
C1765 H1751 0.961 . S
C1765 C1764 1.502 . S
C1766 H1752 0.960 . S
C1766 H1753 0.961 . S
C1766 H1754 0.959 . S
C1766 C1764 1.561 . S
C1767 C1764 1.526 . S
C1767 C1768 1.396 . S
C1767 C1772 1.390 . S
C1768 C1762 1.465 . S
C1768 C1767 1.396 . S
C1768 C1769 1.399 . S
C1769 H1755 0.929 . S
C1769 C1768 1.399 . S
C1769 C1770 1.385 . S
C1770 H1756 0.931 . S
C1770 C1769 1.385 . S
C1770 C1771 1.389 . S
C1771 C1770 1.389 . S
C1771 C1772 1.387 . S
C1772 H1757 0.930 . S
C1772 C1767 1.390 . S
C1772 C1771 1.387 . S
H1773 C1785 0.930 . S
H1774 C1787 0.930 . S
H1775 C1788 0.930 . S
H1776 C1792 0.959 . S
H1777 C1792 0.959 . S
H1778 C1792 0.961 . S
H1779 C1793 0.960 . S
H1780 C1793 0.961 . S
H1781 C1793 0.959 . S
H1782 C1796 0.929 . S
H1783 C1797 0.931 . S
H1784 C1799 0.930 . S
C1785 H1773 0.930 . S
C1785 C1786 1.399 . S
C1785 C1790 1.399 . S
C1786 C1785 1.399 . S
C1786 C1787 1.376 . S
C1787 H1774 0.930 . S
C1787 C1786 1.376 . S
C1787 C1788 1.388 . S
C1788 H1775 0.930 . S
C1788 C1787 1.388 . S
C1788 C1789 1.390 . S
C1789 C1788 1.390 . S
C1789 C1790 1.394 . S
C1789 C1795 1.465 . S
C1790 C1785 1.399 . S
C1790 C1789 1.394 . S
C1790 C1791 1.516 . S
C1791 C1790 1.516 . S
C1791 C1792 1.502 . S
C1791 C1793 1.561 . S
C1791 C1794 1.526 . S
C1792 H1776 0.959 . S
C1792 H1777 0.959 . S
C1792 H1778 0.961 . S
C1792 C1791 1.502 . S
C1793 H1779 0.960 . S
C1793 H1780 0.961 . S
C1793 H1781 0.959 . S
C1793 C1791 1.561 . S
C1794 C1791 1.526 . S
C1794 C1795 1.396 . S
C1794 C1799 1.390 . S
C1795 C1789 1.465 . S
C1795 C1794 1.396 . S
C1795 C1796 1.399 . S
C1796 H1782 0.929 . S
C1796 C1795 1.399 . S
C1796 C1797 1.385 . S
C1797 H1783 0.931 . S
C1797 C1796 1.385 . S
C1797 C1798 1.389 . S
C1798 C1797 1.389 . S
C1798 C1799 1.387 . S
C1799 H1784 0.930 . S
C1799 C1794 1.390 . S
C1799 C1798 1.387 . S
H1800 C1812 0.930 . S
H1801 C1814 0.930 . S
H1802 C1815 0.930 . S
H1803 C1819 0.956 1_455 S
H1804 C1819 0.980 . S
H1805 C1819 0.951 1_455 S
H1806 C1820 0.960 1_455 S
H1807 C1820 0.961 . S
H1808 C1820 0.959 . S
H1809 C1823 0.929 . S
H1810 C1824 0.931 . S
H1811 C1826 0.930 . S
C1812 H1800 0.930 . S
C1812 C1813 1.399 . S
C1812 C1817 1.399 . S
C1813 C1812 1.399 . S
C1813 C1814 1.376 . S
C1814 H1801 0.930 . S
C1814 C1813 1.376 . S
C1814 C1815 1.388 . S
C1815 H1802 0.930 . S
C1815 C1814 1.388 . S
C1815 C1816 1.390 . S
C1816 C1815 1.390 . S
C1816 C1817 1.394 . S
C1816 C1822 1.465 1_455 S
C1817 C1812 1.399 . S
C1817 C1816 1.394 . S
C1817 C1818 1.421 1_455 S
C1818 C1817 1.421 1_655 S
C1818 C1819 1.534 . S
C1818 C1820 1.583 . S
C1818 C1821 1.561 . S
C1819 H1803 0.956 1_655 S
C1819 H1804 0.980 . S
C1819 H1805 0.951 1_655 S
C1819 C1818 1.534 . S
C1820 H1806 0.960 1_655 S
C1820 H1807 0.961 . S
C1820 H1808 0.959 . S
C1820 C1818 1.583 . S
C1821 C1818 1.561 . S
C1821 C1822 1.396 . S
C1821 C1826 1.390 . S
C1822 C1816 1.465 1_655 S
C1822 C1821 1.396 . S
C1822 C1823 1.399 . S
C1823 H1809 0.929 . S
C1823 C1822 1.399 . S
C1823 C1824 1.385 . S
C1824 H1810 0.931 . S
C1824 C1823 1.385 . S
C1824 C1825 1.389 . S
C1825 C1824 1.389 . S
C1825 C1826 1.387 . S
C1826 H1811 0.930 . S
C1826 C1821 1.390 . S
C1826 C1825 1.387 . S
H1827 C1839 0.930 . S
H1828 C1841 0.930 . S
H1829 C1842 0.930 . S
H1830 C1846 0.959 . S
H1831 C1846 0.959 . S
H1832 C1846 0.961 . S
H1833 C1847 0.960 . S
H1834 C1847 0.961 . S
H1835 C1847 0.959 . S
H1836 C1850 0.929 . S
H1837 C1851 0.931 . S
H1838 C1853 0.930 . S
C1839 H1827 0.930 . S
C1839 C1840 1.399 . S
C1839 C1844 1.399 . S
C1840 C1839 1.399 . S
C1840 C1841 1.376 . S
C1841 H1828 0.930 . S
C1841 C1840 1.376 . S
C1841 C1842 1.388 . S
C1842 H1829 0.930 . S
C1842 C1841 1.388 . S
C1842 C1843 1.390 . S
C1843 C1842 1.390 . S
C1843 C1844 1.394 . S
C1843 C1849 1.465 . S
C1844 C1839 1.399 . S
C1844 C1843 1.394 . S
C1844 C1845 1.516 . S
C1845 C1844 1.516 . S
C1845 C1846 1.502 . S
C1845 C1847 1.561 . S
C1845 C1848 1.526 . S
C1846 H1830 0.959 . S
C1846 H1831 0.959 . S
C1846 H1832 0.961 . S
C1846 C1845 1.502 . S
C1847 H1833 0.960 . S
C1847 H1834 0.961 . S
C1847 H1835 0.959 . S
C1847 C1845 1.561 . S
C1848 C1845 1.526 . S
C1848 C1849 1.396 . S
C1848 C1853 1.390 . S
C1849 C1843 1.465 . S
C1849 C1848 1.396 . S
C1849 C1850 1.399 . S
C1850 H1836 0.929 . S
C1850 C1849 1.399 . S
C1850 C1851 1.385 . S
C1851 H1837 0.931 . S
C1851 C1850 1.385 . S
C1851 C1852 1.389 . S
C1852 C1851 1.389 . S
C1852 C1853 1.387 . S
C1853 H1838 0.930 . S
C1853 C1848 1.390 . S
C1853 C1852 1.387 . S
H1854 C1866 0.930 . S
H1855 C1868 0.930 . S
H1856 C1869 0.930 . S
H1857 C1873 0.960 1_565 S
H1858 C1873 0.959 1_565 S
H1859 C1873 0.961 . S
H1860 C1874 0.960 . S
H1861 C1874 0.961 1_565 S
H1862 C1874 0.959 . S
H1863 C1877 0.929 . S
H1864 C1878 0.931 . S
H1865 C1880 0.930 . S
C1866 H1854 0.930 . S
C1866 C1867 1.399 . S
C1866 C1871 1.399 . S
C1867 C1866 1.399 . S
C1867 C1868 1.376 . S
C1868 H1855 0.930 . S
C1868 C1867 1.376 . S
C1868 C1869 1.388 . S
C1869 H1856 0.930 . S
C1869 C1868 1.388 . S
C1869 C1870 1.390 . S
C1870 C1869 1.390 . S
C1870 C1871 1.394 . S
C1870 C1876 1.465 1_545 S
C1871 C1866 1.399 . S
C1871 C1870 1.394 . S
C1871 C1872 1.516 . S
C1872 C1871 1.516 . S
C1872 C1873 1.502 . S
C1872 C1874 1.561 . S
C1872 C1875 1.526 1_545 S
C1873 H1857 0.960 1_545 S
C1873 H1858 0.959 1_545 S
C1873 H1859 0.961 . S
C1873 C1872 1.502 . S
C1874 H1860 0.960 . S
C1874 H1861 0.961 1_545 S
C1874 H1862 0.959 . S
C1874 C1872 1.561 . S
C1875 C1872 1.526 1_565 S
C1875 C1876 1.396 . S
C1875 C1880 1.390 . S
C1876 C1870 1.465 1_565 S
C1876 C1875 1.396 . S
C1876 C1877 1.399 . S
C1877 H1863 0.929 . S
C1877 C1876 1.399 . S
C1877 C1878 1.385 . S
C1878 H1864 0.931 . S
C1878 C1877 1.385 . S
C1878 C1879 1.389 . S
C1879 C1878 1.389 . S
C1879 C1880 1.387 . S
C1880 H1865 0.930 . S
C1880 C1875 1.390 . S
C1880 C1879 1.387 . S
H1881 C1893 0.930 . S
H1882 C1895 0.930 . S
H1883 C1896 0.930 . S
H1884 C1900 0.959 . S
H1885 C1900 0.959 . S
H1886 C1900 0.961 1_545 S
H1887 C1901 0.960 1_545 S
H1888 C1901 0.961 . S
H1889 C1901 0.959 . S
H1890 C1904 0.929 . S
H1891 C1905 0.931 . S
H1892 C1907 0.930 . S
C1893 H1881 0.930 . S
C1893 C1894 1.399 . S
C1893 C1898 1.399 . S
C1894 C1893 1.399 . S
C1894 C1895 1.376 . S
C1895 H1882 0.930 . S
C1895 C1894 1.376 . S
C1895 C1896 1.388 . S
C1896 H1883 0.930 . S
C1896 C1895 1.388 . S
C1896 C1897 1.390 . S
C1897 C1896 1.390 . S
C1897 C1898 1.394 . S
C1897 C1903 1.465 1_545 S
C1898 C1893 1.399 . S
C1898 C1897 1.394 . S
C1898 C1899 1.516 1_545 S
C1899 C1898 1.516 1_565 S
C1899 C1900 1.502 . S
C1899 C1901 1.561 . S
C1899 C1902 1.526 . S
C1900 H1884 0.959 . S
C1900 H1885 0.959 . S
C1900 H1886 0.961 1_565 S
C1900 C1899 1.502 . S
C1901 H1887 0.960 1_565 S
C1901 H1888 0.961 . S
C1901 H1889 0.959 . S
C1901 C1899 1.561 . S
C1902 C1899 1.526 . S
C1902 C1903 1.396 . S
C1902 C1907 1.390 . S
C1903 C1897 1.465 1_565 S
C1903 C1902 1.396 . S
C1903 C1904 1.399 . S
C1904 H1890 0.929 . S
C1904 C1903 1.399 . S
C1904 C1905 1.385 . S
C1905 H1891 0.931 . S
C1905 C1904 1.385 . S
C1905 C1906 1.389 . S
C1906 C1905 1.389 . S
C1906 C1907 1.387 . S
C1907 H1892 0.930 . S
C1907 C1902 1.390 . S
C1907 C1906 1.387 . S
H1908 C1920 0.930 . S
H1909 C1922 0.930 . S
H1910 C1923 0.930 . S
H1911 C1927 0.959 . S
H1912 C1927 0.959 1_455 S
H1913 C1927 0.961 . S
H1914 C1928 0.960 . S
H1915 C1928 0.961 1_455 S
H1916 C1928 0.959 . S
H1917 C1931 0.929 . S
H1918 C1932 0.931 . S
H1919 C1934 0.930 . S
C1920 H1908 0.930 . S
C1920 C1921 1.399 . S
C1920 C1925 1.399 . S
C1921 C1920 1.399 . S
C1921 C1922 1.376 . S
C1922 H1909 0.930 . S
C1922 C1921 1.376 . S
C1922 C1923 1.388 . S
C1923 H1910 0.930 . S
C1923 C1922 1.388 . S
C1923 C1924 1.390 . S
C1924 C1923 1.390 . S
C1924 C1925 1.394 . S
C1924 C1930 1.465 1_655 S
C1925 C1920 1.399 . S
C1925 C1924 1.394 . S
C1925 C1926 1.516 . S
C1926 C1925 1.516 . S
C1926 C1927 1.502 . S
C1926 C1928 1.561 . S
C1926 C1929 1.526 1_655 S
C1927 H1911 0.959 . S
C1927 H1912 0.959 1_655 S
C1927 H1913 0.961 . S
C1927 C1926 1.502 . S
C1928 H1914 0.960 . S
C1928 H1915 0.961 1_655 S
C1928 H1916 0.959 . S
C1928 C1926 1.561 . S
C1929 C1926 1.526 1_455 S
C1929 C1930 1.396 . S
C1929 C1934 1.390 . S
C1930 C1924 1.465 1_455 S
C1930 C1929 1.396 . S
C1930 C1931 1.399 . S
C1931 H1917 0.929 . S
C1931 C1930 1.399 . S
C1931 C1932 1.385 . S
C1932 H1918 0.931 . S
C1932 C1931 1.385 . S
C1932 C1933 1.389 . S
C1933 C1932 1.389 . S
C1933 C1934 1.387 . S
C1934 H1919 0.930 . S
C1934 C1929 1.390 . S
C1934 C1933 1.387 . S
H1935 C1947 0.930 . S
H1936 C1949 0.930 . S
H1937 C1950 0.930 . S
H1938 C1954 0.959 . S
H1939 C1954 0.959 . S
H1940 C1954 0.961 . S
H1941 C1955 0.960 . S
H1942 C1955 0.961 . S
H1943 C1955 0.959 . S
H1944 C1958 0.929 . S
H1945 C1959 0.931 . S
H1946 C1961 0.930 . S
C1947 H1935 0.930 . S
C1947 C1948 1.399 . S
C1947 C1952 1.399 . S
C1948 C1947 1.399 . S
C1948 C1949 1.376 . S
C1949 H1936 0.930 . S
C1949 C1948 1.376 . S
C1949 C1950 1.388 . S
C1950 H1937 0.930 . S
C1950 C1949 1.388 . S
C1950 C1951 1.390 . S
C1951 C1950 1.390 . S
C1951 C1952 1.394 . S
C1951 C1957 1.465 . S
C1952 C1947 1.399 . S
C1952 C1951 1.394 . S
C1952 C1953 1.516 . S
C1953 C1952 1.516 . S
C1953 C1954 1.502 . S
C1953 C1955 1.561 . S
C1953 C1956 1.526 . S
C1954 H1938 0.959 . S
C1954 H1939 0.959 . S
C1954 H1940 0.961 . S
C1954 C1953 1.502 . S
C1955 H1941 0.960 . S
C1955 H1942 0.961 . S
C1955 H1943 0.959 . S
C1955 C1953 1.561 . S
C1956 C1953 1.526 . S
C1956 C1957 1.396 . S
C1956 C1961 1.390 . S
C1957 C1951 1.465 . S
C1957 C1956 1.396 . S
C1957 C1958 1.399 . S
C1958 H1944 0.929 . S
C1958 C1957 1.399 . S
C1958 C1959 1.385 . S
C1959 H1945 0.931 . S
C1959 C1958 1.385 . S
C1959 C1960 1.389 . S
C1960 C1959 1.389 . S
C1960 C1961 1.387 . S
C1961 H1946 0.930 . S
C1961 C1956 1.390 . S
C1961 C1960 1.387 . S
H1962 C1974 0.930 . S
H1963 C1976 0.930 . S
H1964 C1977 0.930 . S
H1965 C1981 0.959 . S
H1966 C1981 0.959 . S
H1967 C1981 0.961 . S
H1968 C1982 0.960 . S
H1969 C1982 0.961 . S
H1970 C1982 0.959 . S
H1971 C1985 0.929 . S
H1972 C1986 0.931 . S
H1973 C1988 0.930 . S
C1974 H1962 0.930 . S
C1974 C1975 1.399 . S
C1974 C1979 1.399 . S
C1975 C1974 1.399 . S
C1975 C1976 1.376 . S
C1976 H1963 0.930 . S
C1976 C1975 1.376 . S
C1976 C1977 1.388 . S
C1977 H1964 0.930 . S
C1977 C1976 1.388 . S
C1977 C1978 1.390 . S
C1978 C1977 1.390 . S
C1978 C1979 1.394 . S
C1978 C1984 1.465 . S
C1979 C1974 1.399 . S
C1979 C1978 1.394 . S
C1979 C1980 1.516 . S
C1980 C1979 1.516 . S
C1980 C1981 1.502 . S
C1980 C1982 1.561 . S
C1980 C1983 1.526 . S
C1981 H1965 0.959 . S
C1981 H1966 0.959 . S
C1981 H1967 0.961 . S
C1981 C1980 1.502 . S
C1982 H1968 0.960 . S
C1982 H1969 0.961 . S
C1982 H1970 0.959 . S
C1982 C1980 1.561 . S
C1983 C1980 1.526 . S
C1983 C1984 1.396 . S
C1983 C1988 1.390 . S
C1984 C1978 1.465 . S
C1984 C1983 1.396 . S
C1984 C1985 1.399 . S
C1985 H1971 0.929 . S
C1985 C1984 1.399 . S
C1985 C1986 1.385 . S
C1986 H1972 0.931 . S
C1986 C1985 1.385 . S
C1986 C1987 1.389 . S
C1987 C1986 1.389 . S
C1987 C1988 1.387 . S
C1988 H1973 0.930 . S
C1988 C1983 1.390 . S
C1988 C1987 1.387 . S
H1989 C2001 0.930 . S
H1990 C2003 0.930 . S
H1991 C2004 0.930 . S
H1992 C2008 0.959 . S
H1993 C2008 0.959 . S
H1994 C2008 0.961 . S
H1995 C2009 0.960 . S
H1996 C2009 0.961 . S
H1997 C2009 0.959 . S
H1998 C2012 0.929 . S
H1999 C2013 0.931 . S
H2000 C2015 0.930 . S
C2001 H1989 0.930 . S
C2001 C2002 1.399 . S
C2001 C2006 1.399 . S
C2002 C2001 1.399 . S
C2002 C2003 1.376 . S
C2003 H1990 0.930 . S
C2003 C2002 1.376 . S
C2003 C2004 1.388 . S
C2004 H1991 0.930 . S
C2004 C2003 1.388 . S
C2004 C2005 1.390 . S
C2005 C2004 1.390 . S
C2005 C2006 1.394 . S
C2005 C2011 1.465 . S
C2006 C2001 1.399 . S
C2006 C2005 1.394 . S
C2006 C2007 1.516 . S
C2007 C2006 1.516 . S
C2007 C2008 1.502 . S
C2007 C2009 1.561 . S
C2007 C2010 1.526 . S
C2008 H1992 0.959 . S
C2008 H1993 0.959 . S
C2008 H1994 0.961 . S
C2008 C2007 1.502 . S
C2009 H1995 0.960 . S
C2009 H1996 0.961 . S
C2009 H1997 0.959 . S
C2009 C2007 1.561 . S
C2010 C2007 1.526 . S
C2010 C2011 1.396 . S
C2010 C2015 1.390 . S
C2011 C2005 1.465 . S
C2011 C2010 1.396 . S
C2011 C2012 1.399 . S
C2012 H1998 0.929 . S
C2012 C2011 1.399 . S
C2012 C2013 1.385 . S
C2013 H1999 0.931 . S
C2013 C2012 1.385 . S
C2013 C2014 1.389 . S
C2014 C2013 1.389 . S
C2014 C2015 1.387 . S
C2015 H2000 0.930 . S
C2015 C2010 1.390 . S
C2015 C2014 1.387 . S
H2016 C2028 0.930 . S
H2017 C2030 0.930 . S
H2018 C2031 0.930 . S
H2019 C2035 0.959 . S
H2020 C2035 0.959 . S
H2021 C2035 0.961 . S
H2022 C2036 0.960 . S
H2023 C2036 0.961 . S
H2024 C2036 0.959 . S
H2025 C2039 0.929 . S
H2026 C2040 0.931 . S
H2027 C2042 0.930 . S
C2028 H2016 0.930 . S
C2028 C2029 1.399 . S
C2028 C2033 1.399 . S
C2029 C2028 1.399 . S
C2029 C2030 1.376 . S
C2030 H2017 0.930 . S
C2030 C2029 1.376 . S
C2030 C2031 1.388 . S
C2031 H2018 0.930 . S
C2031 C2030 1.388 . S
C2031 C2032 1.390 . S
C2032 C2031 1.390 . S
C2032 C2033 1.394 . S
C2032 C2038 1.465 . S
C2033 C2028 1.399 . S
C2033 C2032 1.394 . S
C2033 C2034 1.516 . S
C2034 C2033 1.516 . S
C2034 C2035 1.502 . S
C2034 C2036 1.561 . S
C2034 C2037 1.526 . S
C2035 H2019 0.959 . S
C2035 H2020 0.959 . S
C2035 H2021 0.961 . S
C2035 C2034 1.502 . S
C2036 H2022 0.960 . S
C2036 H2023 0.961 . S
C2036 H2024 0.959 . S
C2036 C2034 1.561 . S
C2037 C2034 1.526 . S
C2037 C2038 1.396 . S
C2037 C2042 1.390 . S
C2038 C2032 1.465 . S
C2038 C2037 1.396 . S
C2038 C2039 1.399 . S
C2039 H2025 0.929 . S
C2039 C2038 1.399 . S
C2039 C2040 1.385 . S
C2040 H2026 0.931 . S
C2040 C2039 1.385 . S
C2040 C2041 1.389 . S
C2041 C2040 1.389 . S
C2041 C2042 1.387 . S
C2042 H2027 0.930 . S
C2042 C2037 1.390 . S
C2042 C2041 1.387 . S
H2043 C2055 0.930 . S
H2044 C2057 0.930 . S
H2045 C2058 0.930 . S
H2046 C2062 0.959 . S
H2047 C2062 0.959 . S
H2048 C2062 0.961 . S
H2049 C2063 0.960 . S
H2050 C2063 0.961 . S
H2051 C2063 0.959 . S
H2052 C2066 0.929 . S
H2053 C2067 0.931 . S
H2054 C2069 0.930 . S
C2055 H2043 0.930 . S
C2055 C2056 1.399 . S
C2055 C2060 1.399 . S
C2056 C2055 1.399 . S
C2056 C2057 1.376 . S
C2057 H2044 0.930 . S
C2057 C2056 1.376 . S
C2057 C2058 1.388 . S
C2058 H2045 0.930 . S
C2058 C2057 1.388 . S
C2058 C2059 1.390 . S
C2059 C2058 1.390 . S
C2059 C2060 1.394 . S
C2059 C2065 1.465 . S
C2060 C2055 1.399 . S
C2060 C2059 1.394 . S
C2060 C2061 1.516 . S
C2061 C2060 1.516 . S
C2061 C2062 1.502 . S
C2061 C2063 1.561 . S
C2061 C2064 1.526 . S
C2062 H2046 0.959 . S
C2062 H2047 0.959 . S
C2062 H2048 0.961 . S
C2062 C2061 1.502 . S
C2063 H2049 0.960 . S
C2063 H2050 0.961 . S
C2063 H2051 0.959 . S
C2063 C2061 1.561 . S
C2064 C2061 1.526 . S
C2064 C2065 1.396 . S
C2064 C2069 1.390 . S
C2065 C2059 1.465 . S
C2065 C2064 1.396 . S
C2065 C2066 1.399 . S
C2066 H2052 0.929 . S
C2066 C2065 1.399 . S
C2066 C2067 1.385 . S
C2067 H2053 0.931 . S
C2067 C2066 1.385 . S
C2067 C2068 1.389 . S
C2068 C2067 1.389 . S
C2068 C2069 1.387 . S
C2069 H2054 0.930 . S
C2069 C2064 1.390 . S
C2069 C2068 1.387 . S
H2070 C2082 0.930 . S
H2071 C2084 0.930 . S
H2072 C2085 0.930 . S
H2073 C2089 0.959 . S
H2074 C2089 0.959 . S
H2075 C2089 0.961 . S
H2076 C2090 0.960 . S
H2077 C2090 0.961 . S
H2078 C2090 0.959 . S
H2079 C2093 0.929 . S
H2080 C2094 0.931 . S
H2081 C2096 0.930 . S
C2082 H2070 0.930 . S
C2082 C2083 1.399 . S
C2082 C2087 1.399 . S
C2083 C2082 1.399 . S
C2083 C2084 1.376 . S
C2084 H2071 0.930 . S
C2084 C2083 1.376 . S
C2084 C2085 1.388 . S
C2085 H2072 0.930 . S
C2085 C2084 1.388 . S
C2085 C2086 1.390 . S
C2086 C2085 1.390 . S
C2086 C2087 1.394 . S
C2086 C2092 1.465 . S
C2087 C2082 1.399 . S
C2087 C2086 1.394 . S
C2087 C2088 1.516 . S
C2088 C2087 1.516 . S
C2088 C2089 1.502 . S
C2088 C2090 1.561 . S
C2088 C2091 1.526 . S
C2089 H2073 0.959 . S
C2089 H2074 0.959 . S
C2089 H2075 0.961 . S
C2089 C2088 1.502 . S
C2090 H2076 0.960 . S
C2090 H2077 0.961 . S
C2090 H2078 0.959 . S
C2090 C2088 1.561 . S
C2091 C2088 1.526 . S
C2091 C2092 1.396 . S
C2091 C2096 1.390 . S
C2092 C2086 1.465 . S
C2092 C2091 1.396 . S
C2092 C2093 1.399 . S
C2093 H2079 0.929 . S
C2093 C2092 1.399 . S
C2093 C2094 1.385 . S
C2094 H2080 0.931 . S
C2094 C2093 1.385 . S
C2094 C2095 1.389 . S
C2095 C2094 1.389 . S
C2095 C2096 1.387 . S
C2096 H2081 0.930 . S
C2096 C2091 1.390 . S
C2096 C2095 1.387 . S
H2097 C2109 0.930 . S
H2098 C2111 0.930 . S
H2099 C2112 0.930 . S
H2100 C2116 0.959 . S
H2101 C2116 0.959 . S
H2102 C2116 0.961 . S
H2103 C2117 0.960 . S
H2104 C2117 0.961 . S
H2105 C2117 0.959 . S
H2106 C2120 0.929 . S
H2107 C2121 0.931 . S
H2108 C2123 0.930 . S
C2109 H2097 0.930 . S
C2109 C2110 1.399 . S
C2109 C2114 1.399 . S
C2110 C2109 1.399 . S
C2110 C2111 1.376 . S
C2111 H2098 0.930 . S
C2111 C2110 1.376 . S
C2111 C2112 1.388 . S
C2112 H2099 0.930 . S
C2112 C2111 1.388 . S
C2112 C2113 1.390 . S
C2113 C2112 1.390 . S
C2113 C2114 1.394 . S
C2113 C2119 1.465 . S
C2114 C2109 1.399 . S
C2114 C2113 1.394 . S
C2114 C2115 1.516 . S
C2115 C2114 1.516 . S
C2115 C2116 1.502 . S
C2115 C2117 1.561 . S
C2115 C2118 1.526 . S
C2116 H2100 0.959 . S
C2116 H2101 0.959 . S
C2116 H2102 0.961 . S
C2116 C2115 1.502 . S
C2117 H2103 0.960 . S
C2117 H2104 0.961 . S
C2117 H2105 0.959 . S
C2117 C2115 1.561 . S
C2118 C2115 1.526 . S
C2118 C2119 1.396 . S
C2118 C2123 1.390 . S
C2119 C2113 1.465 . S
C2119 C2118 1.396 . S
C2119 C2120 1.399 . S
C2120 H2106 0.929 . S
C2120 C2119 1.399 . S
C2120 C2121 1.385 . S
C2121 H2107 0.931 . S
C2121 C2120 1.385 . S
C2121 C2122 1.389 . S
C2122 C2121 1.389 . S
C2122 C2123 1.387 . S
C2123 H2108 0.930 . S
C2123 C2118 1.390 . S
C2123 C2122 1.387 . S
H2124 C2136 0.930 . S
H2125 C2138 0.930 . S
H2126 C2139 0.930 . S
H2127 C2143 0.959 . S
H2128 C2143 0.959 . S
H2129 C2143 0.961 . S
H2130 C2144 0.960 . S
H2131 C2144 0.961 . S
H2132 C2144 0.959 . S
H2133 C2147 0.929 . S
H2134 C2148 0.931 . S
H2135 C2150 0.930 . S
C2136 H2124 0.930 . S
C2136 C2137 1.399 . S
C2136 C2141 1.399 . S
C2137 C2136 1.399 . S
C2137 C2138 1.376 . S
C2138 H2125 0.930 . S
C2138 C2137 1.376 . S
C2138 C2139 1.388 . S
C2139 H2126 0.930 . S
C2139 C2138 1.388 . S
C2139 C2140 1.390 . S
C2140 C2139 1.390 . S
C2140 C2141 1.394 . S
C2140 C2146 1.465 . S
C2141 C2136 1.399 . S
C2141 C2140 1.394 . S
C2141 C2142 1.516 . S
C2142 C2141 1.516 . S
C2142 C2143 1.502 . S
C2142 C2144 1.561 . S
C2142 C2145 1.526 . S
C2143 H2127 0.959 . S
C2143 H2128 0.959 . S
C2143 H2129 0.961 . S
C2143 C2142 1.502 . S
C2144 H2130 0.960 . S
C2144 H2131 0.961 . S
C2144 H2132 0.959 . S
C2144 C2142 1.561 . S
C2145 C2142 1.526 . S
C2145 C2146 1.396 . S
C2145 C2150 1.390 . S
C2146 C2140 1.465 . S
C2146 C2145 1.396 . S
C2146 C2147 1.399 . S
C2147 H2133 0.929 . S
C2147 C2146 1.399 . S
C2147 C2148 1.385 . S
C2148 H2134 0.931 . S
C2148 C2147 1.385 . S
C2148 C2149 1.389 . S
C2149 C2148 1.389 . S
C2149 C2150 1.387 . S
C2150 H2135 0.930 . S
C2150 C2145 1.390 . S
C2150 C2149 1.387 . S
H2151 C2163 0.930 . S
H2152 C2165 0.930 . S
H2153 C2166 0.930 . S
H2154 C2170 0.959 . S
H2155 C2170 0.959 . S
H2156 C2170 0.961 . S
H2157 C2171 0.960 . S
H2158 C2171 0.961 . S
H2159 C2171 0.959 . S
H2160 C2174 0.929 . S
H2161 C2175 0.931 . S
H2162 C2177 0.930 . S
C2163 H2151 0.930 . S
C2163 C2164 1.399 . S
C2163 C2168 1.399 . S
C2164 C2163 1.399 . S
C2164 C2165 1.376 . S
C2165 H2152 0.930 . S
C2165 C2164 1.376 . S
C2165 C2166 1.388 . S
C2166 H2153 0.930 . S
C2166 C2165 1.388 . S
C2166 C2167 1.390 . S
C2167 C2166 1.390 . S
C2167 C2168 1.394 . S
C2167 C2173 1.465 . S
C2168 C2163 1.399 . S
C2168 C2167 1.394 . S
C2168 C2169 1.516 . S
C2169 C2168 1.516 . S
C2169 C2170 1.502 . S
C2169 C2171 1.561 . S
C2169 C2172 1.526 . S
C2170 H2154 0.959 . S
C2170 H2155 0.959 . S
C2170 H2156 0.961 . S
C2170 C2169 1.502 . S
C2171 H2157 0.960 . S
C2171 H2158 0.961 . S
C2171 H2159 0.959 . S
C2171 C2169 1.561 . S
C2172 C2169 1.526 . S
C2172 C2173 1.396 . S
C2172 C2177 1.390 . S
C2173 C2167 1.465 . S
C2173 C2172 1.396 . S
C2173 C2174 1.399 . S
C2174 H2160 0.929 . S
C2174 C2173 1.399 . S
C2174 C2175 1.385 . S
C2175 H2161 0.931 . S
C2175 C2174 1.385 . S
C2175 C2176 1.389 . S
C2176 C2175 1.389 . S
C2176 C2177 1.387 . S
C2177 H2162 0.930 . S
C2177 C2172 1.390 . S
C2177 C2176 1.387 . S
H2178 C2190 0.930 . S
H2179 C2192 0.930 . S
H2180 C2193 0.930 . S
H2181 C2197 0.959 . S
H2182 C2197 0.959 . S
H2183 C2197 0.961 . S
H2184 C2198 0.960 . S
H2185 C2198 0.961 . S
H2186 C2198 0.959 . S
H2187 C2201 0.929 . S
H2188 C2202 0.931 . S
H2189 C2204 0.930 . S
C2190 H2178 0.930 . S
C2190 C2191 1.399 . S
C2190 C2195 1.399 . S
C2191 C2190 1.399 . S
C2191 C2192 1.376 . S
C2192 H2179 0.930 . S
C2192 C2191 1.376 . S
C2192 C2193 1.388 . S
C2193 H2180 0.930 . S
C2193 C2192 1.388 . S
C2193 C2194 1.390 . S
C2194 C2193 1.390 . S
C2194 C2195 1.394 . S
C2194 C2200 1.465 . S
C2195 C2190 1.399 . S
C2195 C2194 1.394 . S
C2195 C2196 1.516 . S
C2196 C2195 1.516 . S
C2196 C2197 1.502 . S
C2196 C2198 1.561 . S
C2196 C2199 1.526 . S
C2197 H2181 0.959 . S
C2197 H2182 0.959 . S
C2197 H2183 0.961 . S
C2197 C2196 1.502 . S
C2198 H2184 0.960 . S
C2198 H2185 0.961 . S
C2198 H2186 0.959 . S
C2198 C2196 1.561 . S
C2199 C2196 1.526 . S
C2199 C2200 1.396 . S
C2199 C2204 1.390 . S
C2200 C2194 1.465 . S
C2200 C2199 1.396 . S
C2200 C2201 1.399 . S
C2201 H2187 0.929 . S
C2201 C2200 1.399 . S
C2201 C2202 1.385 . S
C2202 H2188 0.931 . S
C2202 C2201 1.385 . S
C2202 C2203 1.389 . S
C2203 C2202 1.389 . S
C2203 C2204 1.387 . S
C2204 H2189 0.930 . S
C2204 C2199 1.390 . S
C2204 C2203 1.387 . S
H2205 C2217 0.930 . S
H2206 C2219 0.930 1_556 S
H2207 C2220 0.930 . S
H2208 C2224 0.959 . S
H2209 C2224 0.959 . S
H2210 C2224 0.961 . S
H2211 C2225 0.960 . S
H2212 C2225 0.961 . S
H2213 C2225 0.959 . S
H2214 C2228 0.929 . S
H2215 C2229 0.931 1_556 S
H2216 C2231 0.930 . S
C2217 H2205 0.930 . S
C2217 C2218 1.399 . S
C2217 C2222 1.399 . S
C2218 C2217 1.399 . S
C2218 C2219 1.376 . S
C2219 H2206 0.930 1_554 S
C2219 C2218 1.376 . S
C2219 C2220 1.388 1_554 S
C2220 H2207 0.930 . S
C2220 C2219 1.388 1_556 S
C2220 C2221 1.390 1_556 S
C2221 C2220 1.390 1_554 S
C2221 C2222 1.394 . S
C2221 C2227 1.465 . S
C2222 C2217 1.399 . S
C2222 C2221 1.394 . S
C2222 C2223 1.516 . S
C2223 C2222 1.516 . S
C2223 C2224 1.502 . S
C2223 C2225 1.561 . S
C2223 C2226 1.526 . S
C2224 H2208 0.959 . S
C2224 H2209 0.959 . S
C2224 H2210 0.961 . S
C2224 C2223 1.502 . S
C2225 H2211 0.960 . S
C2225 H2212 0.961 . S
C2225 H2213 0.959 . S
C2225 C2223 1.561 . S
C2226 C2223 1.526 . S
C2226 C2227 1.396 . S
C2226 C2231 1.390 . S
C2227 C2221 1.465 . S
C2227 C2226 1.396 . S
C2227 C2228 1.399 1_554 S
C2228 H2214 0.929 . S
C2228 C2227 1.399 1_556 S
C2228 C2229 1.385 1_556 S
C2229 H2215 0.931 1_554 S
C2229 C2228 1.385 1_554 S
C2229 C2230 1.389 . S
C2230 C2229 1.389 . S
C2230 C2231 1.387 . S
C2231 H2216 0.930 . S
C2231 C2226 1.390 . S
C2231 C2230 1.387 . S
H2232 C2244 0.930 . S
H2233 C2246 0.930 1_556 S
H2234 C2247 0.930 1_556 S
H2235 C2251 0.959 . S
H2236 C2251 0.959 . S
H2237 C2251 0.961 . S
H2238 C2252 0.960 . S
H2239 C2252 0.961 . S
H2240 C2252 0.959 . S
H2241 C2255 0.929 1_556 S
H2242 C2256 0.931 1_556 S
H2243 C2258 0.930 . S
C2244 H2232 0.930 . S
C2244 C2245 1.399 . S
C2244 C2249 1.399 . S
C2245 C2244 1.399 . S
C2245 C2246 1.376 . S
C2246 H2233 0.930 1_554 S
C2246 C2245 1.376 . S
C2246 C2247 1.388 . S
C2247 H2234 0.930 1_554 S
C2247 C2246 1.388 . S
C2247 C2248 1.390 . S
C2248 C2247 1.390 . S
C2248 C2249 1.394 . S
C2248 C2254 1.465 . S
C2249 C2244 1.399 . S
C2249 C2248 1.394 . S
C2249 C2250 1.516 . S
C2250 C2249 1.516 . S
C2250 C2251 1.502 . S
C2250 C2252 1.561 . S
C2250 C2253 1.526 . S
C2251 H2235 0.959 . S
C2251 H2236 0.959 . S
C2251 H2237 0.961 . S
C2251 C2250 1.502 . S
C2252 H2238 0.960 . S
C2252 H2239 0.961 . S
C2252 H2240 0.959 . S
C2252 C2250 1.561 . S
C2253 C2250 1.526 . S
C2253 C2254 1.396 . S
C2253 C2258 1.390 . S
C2254 C2248 1.465 . S
C2254 C2253 1.396 . S
C2254 C2255 1.399 . S
C2255 H2241 0.929 1_554 S
C2255 C2254 1.399 . S
C2255 C2256 1.385 . S
C2256 H2242 0.931 1_554 S
C2256 C2255 1.385 . S
C2256 C2257 1.389 . S
C2257 C2256 1.389 . S
C2257 C2258 1.387 . S
C2258 H2243 0.930 . S
C2258 C2253 1.390 . S
C2258 C2257 1.387 . S
H2259 C2271 0.930 . S
H2260 C2273 0.930 . S
H2261 C2274 0.930 1_556 S
H2262 C2278 0.959 . S
H2263 C2278 0.959 . S
H2264 C2278 0.961 . S
H2265 C2279 0.960 . S
H2266 C2279 0.961 . S
H2267 C2279 0.959 . S
H2268 C2282 0.929 1_556 S
H2269 C2283 0.931 1_556 S
H2270 C2285 0.930 . S
C2271 H2259 0.930 . S
C2271 C2272 1.399 . S
C2271 C2276 1.399 . S
C2272 C2271 1.399 . S
C2272 C2273 1.376 . S
C2273 H2260 0.930 . S
C2273 C2272 1.376 . S
C2273 C2274 1.388 . S
C2274 H2261 0.930 1_554 S
C2274 C2273 1.388 . S
C2274 C2275 1.390 . S
C2275 C2274 1.390 . S
C2275 C2276 1.394 . S
C2275 C2281 1.465 . S
C2276 C2271 1.399 . S
C2276 C2275 1.394 . S
C2276 C2277 1.516 . S
C2277 C2276 1.516 . S
C2277 C2278 1.502 . S
C2277 C2279 1.561 . S
C2277 C2280 1.526 . S
C2278 H2262 0.959 . S
C2278 H2263 0.959 . S
C2278 H2264 0.961 . S
C2278 C2277 1.502 . S
C2279 H2265 0.960 . S
C2279 H2266 0.961 . S
C2279 H2267 0.959 . S
C2279 C2277 1.561 . S
C2280 C2277 1.526 . S
C2280 C2281 1.396 . S
C2280 C2285 1.390 . S
C2281 C2275 1.465 . S
C2281 C2280 1.396 . S
C2281 C2282 1.399 . S
C2282 H2268 0.929 1_554 S
C2282 C2281 1.399 . S
C2282 C2283 1.385 . S
C2283 H2269 0.931 1_554 S
C2283 C2282 1.385 . S
C2283 C2284 1.389 . S
C2284 C2283 1.389 . S
C2284 C2285 1.387 . S
C2285 H2270 0.930 . S
C2285 C2280 1.390 . S
C2285 C2284 1.387 . S
H2286 C2298 0.930 1_554 S
H2287 C2300 0.930 . S
H2288 C2301 0.930 . S
H2289 C2305 0.959 1_556 S
H2290 C2305 0.959 . S
H2291 C2305 0.961 . S
H2292 C2306 0.960 . S
H2293 C2306 0.961 . S
H2294 C2306 0.959 . S
H2295 C2309 0.929 . S
H2296 C2310 0.931 . S
H2297 C2312 0.930 1_554 S
C2298 H2286 0.930 1_556 S
C2298 C2299 1.399 . S
C2298 C2303 1.399 . S
C2299 C2298 1.399 . S
C2299 C2300 1.376 . S
C2300 H2287 0.930 . S
C2300 C2299 1.376 . S
C2300 C2301 1.388 . S
C2301 H2288 0.930 . S
C2301 C2300 1.388 . S
C2301 C2302 1.390 . S
C2302 C2301 1.390 . S
C2302 C2303 1.394 . S
C2302 C2308 1.465 . S
C2303 C2298 1.399 . S
C2303 C2302 1.394 . S
C2303 C2304 1.516 . S
C2304 C2303 1.516 . S
C2304 C2305 1.502 1_556 S
C2304 C2306 1.561 1_556 S
C2304 C2307 1.526 . S
C2305 H2289 0.959 1_554 S
C2305 H2290 0.959 . S
C2305 H2291 0.961 . S
C2305 C2304 1.502 1_554 S
C2306 H2292 0.960 . S
C2306 H2293 0.961 . S
C2306 H2294 0.959 . S
C2306 C2304 1.561 1_554 S
C2307 C2304 1.526 . S
C2307 C2308 1.396 . S
C2307 C2312 1.390 . S
C2308 C2302 1.465 . S
C2308 C2307 1.396 . S
C2308 C2309 1.399 . S
C2309 H2295 0.929 . S
C2309 C2308 1.399 . S
C2309 C2310 1.385 . S
C2310 H2296 0.931 . S
C2310 C2309 1.385 . S
C2310 C2311 1.389 . S
C2311 C2310 1.389 . S
C2311 C2312 1.387 . S
C2312 H2297 0.930 1_556 S
C2312 C2307 1.390 . S
C2312 C2311 1.387 . S
H2313 C2325 0.930 . S
H2314 C2327 0.930 . S
H2315 C2328 0.930 . S
H2316 C2332 0.959 . S
H2317 C2332 0.959 . S
H2318 C2332 0.961 . S
H2319 C2333 0.960 . S
H2320 C2333 0.961 . S
H2321 C2333 0.959 1_554 S
H2322 C2336 0.929 . S
H2323 C2337 0.931 . S
H2324 C2339 0.930 . S
C2325 H2313 0.930 . S
C2325 C2326 1.399 . S
C2325 C2330 1.399 . S
C2326 C2325 1.399 . S
C2326 C2327 1.376 . S
C2327 H2314 0.930 . S
C2327 C2326 1.376 . S
C2327 C2328 1.388 . S
C2328 H2315 0.930 . S
C2328 C2327 1.388 . S
C2328 C2329 1.390 . S
C2329 C2328 1.390 . S
C2329 C2330 1.394 . S
C2329 C2335 1.465 . S
C2330 C2325 1.399 . S
C2330 C2329 1.394 . S
C2330 C2331 1.516 . S
C2331 C2330 1.516 . S
C2331 C2332 1.502 . S
C2331 C2333 1.561 . S
C2331 C2334 1.526 . S
C2332 H2316 0.959 . S
C2332 H2317 0.959 . S
C2332 H2318 0.961 . S
C2332 C2331 1.502 . S
C2333 H2319 0.960 . S
C2333 H2320 0.961 . S
C2333 H2321 0.959 1_556 S
C2333 C2331 1.561 . S
C2334 C2331 1.526 . S
C2334 C2335 1.396 . S
C2334 C2339 1.390 . S
C2335 C2329 1.465 . S
C2335 C2334 1.396 . S
C2335 C2336 1.399 . S
C2336 H2322 0.929 . S
C2336 C2335 1.399 . S
C2336 C2337 1.385 . S
C2337 H2323 0.931 . S
C2337 C2336 1.385 . S
C2337 C2338 1.389 . S
C2338 C2337 1.389 . S
C2338 C2339 1.387 . S
C2339 H2324 0.930 . S
C2339 C2334 1.390 . S
C2339 C2338 1.387 . S
H2340 C2352 0.930 . S
H2341 C2354 0.930 . S
H2342 C2355 0.930 . S
H2343 C2359 0.959 . S
H2344 C2359 0.959 . S
H2345 C2359 0.961 . S
H2346 C2360 0.960 . S
H2347 C2360 0.965 . S
H2348 C2360 0.959 . S
H2349 C2363 0.929 . S
H2350 C2364 0.931 . S
H2351 C2366 0.930 . S
C2352 H2340 0.930 . S
C2352 C2353 1.399 . S
C2352 C2357 1.399 . S
C2353 C2352 1.399 . S
C2353 C2354 1.376 . S
C2354 H2341 0.930 . S
C2354 C2353 1.376 . S
C2354 C2355 1.388 . S
C2355 H2342 0.930 . S
C2355 C2354 1.388 . S
C2355 C2356 1.390 . S
C2356 C2355 1.390 . S
C2356 C2357 1.394 . S
C2356 C2362 1.465 . S
C2357 C2352 1.399 . S
C2357 C2356 1.394 . S
C2357 C2358 1.516 . S
C2358 C2357 1.516 . S
C2358 C2359 1.502 1_556 S
C2358 C2360 1.561 . S
C2358 C2361 1.526 . S
C2359 H2343 0.959 . S
C2359 H2344 0.959 . S
C2359 H2345 0.961 . S
C2359 C2358 1.502 1_554 S
C2360 H2346 0.960 . S
C2360 H2347 0.965 . S
C2360 H2348 0.959 . S
C2360 C2358 1.561 . S
C2361 C2358 1.526 . S
C2361 C2362 1.396 . S
C2361 C2366 1.390 . S
C2362 C2356 1.465 . S
C2362 C2361 1.396 . S
C2362 C2363 1.399 . S
C2363 H2349 0.929 . S
C2363 C2362 1.399 . S
C2363 C2364 1.385 . S
C2364 H2350 0.931 . S
C2364 C2363 1.385 . S
C2364 C2365 1.389 . S
C2365 C2364 1.389 . S
C2365 C2366 1.387 . S
C2366 H2351 0.930 . S
C2366 C2361 1.390 . S
C2366 C2365 1.387 . S
H2367 C2379 0.930 . S
H2368 C2381 0.930 . S
H2369 C2382 0.930 . S
H2370 C2386 0.959 . S
H2371 C2386 0.959 . S
H2372 C2386 0.961 . S
H2373 C2387 0.960 . S
H2374 C2387 0.961 . S
H2375 C2387 0.959 . S
H2376 C2390 0.929 . S
H2377 C2391 0.931 . S
H2378 C2393 0.930 . S
C2379 H2367 0.930 . S
C2379 C2380 1.399 . S
C2379 C2384 1.399 . S
C2380 C2379 1.399 . S
C2380 C2381 1.376 . S
C2381 H2368 0.930 . S
C2381 C2380 1.376 . S
C2381 C2382 1.388 . S
C2382 H2369 0.930 . S
C2382 C2381 1.388 . S
C2382 C2383 1.390 . S
C2383 C2382 1.390 . S
C2383 C2384 1.394 . S
C2383 C2389 1.465 . S
C2384 C2379 1.399 . S
C2384 C2383 1.394 . S
C2384 C2385 1.516 . S
C2385 C2384 1.516 . S
C2385 C2386 1.502 . S
C2385 C2387 1.561 . S
C2385 C2388 1.526 . S
C2386 H2370 0.959 . S
C2386 H2371 0.959 . S
C2386 H2372 0.961 . S
C2386 C2385 1.502 . S
C2387 H2373 0.960 . S
C2387 H2374 0.961 . S
C2387 H2375 0.959 . S
C2387 C2385 1.561 . S
C2388 C2385 1.526 . S
C2388 C2389 1.396 . S
C2388 C2393 1.390 . S
C2389 C2383 1.465 . S
C2389 C2388 1.396 . S
C2389 C2390 1.399 . S
C2390 H2376 0.929 . S
C2390 C2389 1.399 . S
C2390 C2391 1.385 . S
C2391 H2377 0.931 . S
C2391 C2390 1.385 . S
C2391 C2392 1.389 . S
C2392 C2391 1.389 . S
C2392 C2393 1.387 . S
C2393 H2378 0.930 . S
C2393 C2388 1.390 . S
C2393 C2392 1.387 . S
H2394 C2406 0.930 . S
H2395 C2408 0.930 . S
H2396 C2409 0.930 . S
H2397 C2413 0.959 . S
H2398 C2413 0.959 . S
H2399 C2413 0.961 . S
H2400 C2414 0.960 . S
H2401 C2414 0.961 . S
H2402 C2414 0.959 . S
H2403 C2417 0.929 . S
H2404 C2418 0.931 . S
H2405 C2420 0.930 . S
C2406 H2394 0.930 . S
C2406 C2407 1.399 . S
C2406 C2411 1.399 . S
C2407 C2406 1.399 . S
C2407 C2408 1.376 . S
C2408 H2395 0.930 . S
C2408 C2407 1.376 . S
C2408 C2409 1.388 . S
C2409 H2396 0.930 . S
C2409 C2408 1.388 . S
C2409 C2410 1.390 . S
C2410 C2409 1.390 . S
C2410 C2411 1.394 . S
C2410 C2416 1.465 . S
C2411 C2406 1.399 . S
C2411 C2410 1.394 . S
C2411 C2412 1.516 . S
C2412 C2411 1.516 . S
C2412 C2413 1.502 . S
C2412 C2414 1.561 . S
C2412 C2415 1.526 . S
C2413 H2397 0.959 . S
C2413 H2398 0.959 . S
C2413 H2399 0.961 . S
C2413 C2412 1.502 . S
C2414 H2400 0.960 . S
C2414 H2401 0.961 . S
C2414 H2402 0.959 . S
C2414 C2412 1.561 . S
C2415 C2412 1.526 . S
C2415 C2416 1.396 . S
C2415 C2420 1.390 . S
C2416 C2410 1.465 . S
C2416 C2415 1.396 . S
C2416 C2417 1.399 . S
C2417 H2403 0.929 . S
C2417 C2416 1.399 . S
C2417 C2418 1.385 . S
C2418 H2404 0.931 . S
C2418 C2417 1.385 . S
C2418 C2419 1.389 . S
C2419 C2418 1.389 . S
C2419 C2420 1.387 . S
C2420 H2405 0.930 . S
C2420 C2415 1.390 . S
C2420 C2419 1.387 . S
H2421 C2433 0.930 . S
H2422 C2435 0.930 . S
H2423 C2436 0.930 . S
H2424 C2440 0.959 . S
H2425 C2440 0.959 . S
H2426 C2440 0.961 . S
H2427 C2441 0.960 . S
H2428 C2441 0.961 . S
H2429 C2441 0.959 . S
H2430 C2444 0.929 . S
H2431 C2445 0.931 . S
H2432 C2447 0.930 . S
C2433 H2421 0.930 . S
C2433 C2434 1.399 . S
C2433 C2438 1.399 . S
C2434 C2433 1.399 . S
C2434 C2435 1.376 . S
C2435 H2422 0.930 . S
C2435 C2434 1.376 . S
C2435 C2436 1.388 . S
C2436 H2423 0.930 . S
C2436 C2435 1.388 . S
C2436 C2437 1.390 . S
C2437 C2436 1.390 . S
C2437 C2438 1.394 . S
C2437 C2443 1.465 . S
C2438 C2433 1.399 . S
C2438 C2437 1.394 . S
C2438 C2439 1.516 . S
C2439 C2438 1.516 . S
C2439 C2440 1.502 . S
C2439 C2441 1.561 . S
C2439 C2442 1.526 . S
C2440 H2424 0.959 . S
C2440 H2425 0.959 . S
C2440 H2426 0.961 . S
C2440 C2439 1.502 . S
C2441 H2427 0.960 . S
C2441 H2428 0.961 . S
C2441 H2429 0.959 . S
C2441 C2439 1.561 . S
C2442 C2439 1.526 . S
C2442 C2443 1.396 . S
C2442 C2447 1.390 . S
C2443 C2437 1.465 . S
C2443 C2442 1.396 . S
C2443 C2444 1.399 . S
C2444 H2430 0.929 . S
C2444 C2443 1.399 . S
C2444 C2445 1.385 . S
C2445 H2431 0.931 . S
C2445 C2444 1.385 . S
C2445 C2446 1.389 . S
C2446 C2445 1.389 . S
C2446 C2447 1.387 . S
C2447 H2432 0.930 . S
C2447 C2442 1.390 . S
C2447 C2446 1.387 . S
C517 C76 1.226 . S
C529 C6 1.234 . S
C544 C48 1.266 . S
C556 C20 1.256 . S
C571 C34 1.305 . S
C583 C62 1.304 . S
C598 C90 1.304 . S
C610 C160 1.303 . S
C625 C104 1.302 . S
C637 C132 1.304 . S
C652 C146 1.219 . S
C664 C118 1.216 . S
C679 C174 1.295 . S
C691 C244 1.300 . S
C706 C188 1.225 . S
C718 C216 1.234 . S
C733 C202 1.283 . S
C745 C230 1.291 . S
C760 C328 1.215 . S
C772 C258 1.220 . S
C787 C272 1.304 . S
C799 C300 1.302 . S
C814 C314 1.242 . S
C826 C286 1.229 . S
C841 C412 1.282 . S
C853 C342 1.272 . S
C868 C384 1.296 . S
C880 C356 1.300 . S
C895 C398 1.244 . S
C907 C370 1.235 . S
C922 C426 1.294 . S
C934 C496 1.280 . S
C949 C440 1.242 . S
C961 C468 1.228 . S
C976 C454 1.247 . S
C988 C482 1.232 . S
C1003 C78 2.009 . S
C1015 C8 2.033 . S
C1030 C22 2.024 . S
C1042 C50 2.028 . S
C1057 C64 2.014 . S
C1069 C36 2.022 . S
C1084 C92 2.034 . S
C1096 C162 2.020 . S
C1111 C106 2.010 . S
C1123 C134 2.029 . S
C1138 C148 2.033 . S
C1150 C120 2.014 . S
C1165 C176 2.032 . S
C1177 C246 2.018 . S
C1192 C218 2.017 . S
C1204 C190 2.033 . S
C1219 C232 2.023 . S
C1231 C204 2.028 . S
C1246 C260 2.009 . S
C1258 C330 2.028 . S
C1273 C274 2.034 . S
C1285 C302 2.022 . S
C1300 C316 2.009 . S
C1312 C288 2.028 . S
C1327 C414 2.011 . S
C1339 C344 2.034 . S
C1354 C358 2.023 . S
C1366 C386 2.028 . S
C1381 C372 2.032 . S
C1393 C400 2.010 . S
C1408 C498 2.026 . S
C1420 C428 2.010 . S
C1435 C470 2.011 . S
C1447 C442 2.031 . S
C1462 C484 2.009 . S
C1474 C456 2.026 . S
C1489 C233 1.582 . S
C1501 C9 1.593 . S
C1516 C247 1.584 . S
C1528 C23 1.596 . S
C1543 C219 1.615 . S
C1555 C37 1.607 . S
C1570 C51 1.579 . S
C1582 C373 1.587 . S
C1597 C65 1.583 . S
C1609 C345 1.594 . S
C1624 C79 1.616 . S
C1636 C359 1.616 . S
C1651 C93 1.608 . S
C1663 C485 1.609 . S
C1678 C107 1.578 . S
C1690 C499 1.579 . S
C1705 C121 1.587 . S
C1717 C471 1.587 . S
C1732 C135 1.590 . S
C1744 C289 1.590 . S
C1759 C261 1.606 . S
C1771 C149 1.607 . S
C1786 C275 1.596 . S
C1798 C163 1.596 . S
C1813 C401 1.616 . S
C1825 C177 1.616 . S
C1840 C191 1.584 . S
C1852 C415 1.596 . S
C1867 C205 1.579 . S
C1879 C387 1.587 . S
C1894 C303 1.585 . S
C1906 C457 1.586 . S
C1921 C317 1.601 . S
C1933 C429 1.602 . S
C1948 C443 1.581 . S
C1960 C331 1.581 . S
C1975 C7 1.446 . S
C1987 C147 1.454 . S
C2002 C161 1.462 . S
C2014 C21 1.462 . S
C2029 C133 1.391 . S
C2041 C35 1.389 . S
C2056 C49 1.389 . S
C2068 C119 1.393 . S
C2083 C63 1.446 . S
C2095 C91 1.454 . S
C2110 C77 1.446 . S
C2122 C105 1.454 . S
C2137 C175 1.449 . S
C2149 C315 1.456 . S
C2164 C329 1.450 . S
C2176 C189 1.457 . S
C2191 C301 1.462 . S
C2203 C203 1.457 . S
C2218 C217 1.460 . S
C2230 C287 1.462 . S
C2245 C231 1.453 . S
C2257 C259 1.459 . S
C2272 C273 1.444 . S
C2284 C245 1.453 . S
C2299 C343 1.399 . S
C2311 C483 1.393 . S
C2326 C497 1.450 . S
C2338 C357 1.440 . S
C2353 C371 1.388 . S
C2365 C469 1.392 . S
C2380 C385 1.457 . S
C2392 C455 1.450 . S
C2407 C427 1.393 . S
C2419 C399 1.400 . S
C2434 C413 1.401 . S
C2446 C441 1.394 . S
