# Generated by pormake.
# Topology snp, (6)-cn, num edge types: 1
# Building blocks:
#     Node 0, Type 0, BuildingBlock: MIFKUJ_clean_sbu_0, # of connection points: 6
#     Node 1, Type 0, BuildingBlock: MIFKUJ_clean_sbu_0, # of connection points: 6
#     Node 2, Type 0, BuildingBlock: MIFKUJ_clean_sbu_0, # of connection points: 6
#     Node 3, Type 0, BuildingBlock: MIFKUJ_clean_sbu_0, # of connection points: 6
#     Edge 4, Type (0, 0), BuildingBlock: ZUJKAS_clean_linker_0, # of connection points: 2
#     Edge 5, Type (0, 0), BuildingBlock: ZUJKAS_clean_linker_0, # of connection points: 2
#     Edge 6, Type (0, 0), BuildingBlock: ZUJKAS_clean_linker_0, # of connection points: 2
#     Edge 7, Type (0, 0), BuildingBlock: ZUJKAS_clean_linker_0, # of connection points: 2
#     Edge 8, Type (0, 0), BuildingBlock: ZUJKAS_clean_linker_0, # of connection points: 2
#     Edge 9, Type (0, 0), BuildingBlock: ZUJKAS_clean_linker_0, # of connection points: 2
#     Edge 10, Type (0, 0), BuildingBlock: ZUJKAS_clean_linker_0, # of connection points: 2
#     Edge 11, Type (0, 0), BuildingBlock: ZUJKAS_clean_linker_0, # of connection points: 2
#     Edge 12, Type (0, 0), BuildingBlock: ZUJKAS_clean_linker_0, # of connection points: 2
#     Edge 13, Type (0, 0), BuildingBlock: ZUJKAS_clean_linker_0, # of connection points: 2
#     Edge 14, Type (0, 0), BuildingBlock: ZUJKAS_clean_linker_0, # of connection points: 2
#     Edge 15, Type (0, 0), BuildingBlock: ZUJKAS_clean_linker_0, # of connection points: 2
# Relax obj value: 0.291
# Max RMSD: 0.222
# Mean RMSD: 0.222
data_MOF--net-snp--node1-MIFKUJ_clean_sbu_0--edge1-ZUJKAS_clean_linker_0
_symmetry_space_group_name_H-M    P1
_symmetry_Int_Tables_number       1
_symmetry_cell_setting            triclinic
loop_
_symmetry_equiv_pos_as_xyz
'x, y, z'
_cell_length_a     31.429082
_cell_length_b     31.33878
_cell_length_c     38.420541
_cell_angle_alpha  89.975907
_cell_angle_beta   89.86977
_cell_angle_gamma 89.540336
loop_
_atom_site_label
_atom_site_type_symbol
_atom_site_fract_x
_atom_site_fract_y
_atom_site_fract_z
_atom_type_partial_charge
Zn0 Zn 0.29906 0.95404 0.0585 0.0
Zn1 Zn 0.29744 0.94643 0.9472 0.0
C2 C 0.27915 0.92861 0.12381 0.0
O3 O 0.25775 0.96419 0.11871 0.0
C4 C 0.30992 0.00904 0.89515 0.0
O5 O 0.32949 0.97572 0.88165 0.0
O6 O 0.30376 0.0158 0.07393 0.0
O7 O 0.33214 0.94146 0.01493 0.0
O8 O 0.35785 0.93329 0.96295 0.0
C9 C 0.32966 0.02633 0.09775 0.0
O10 O 0.35612 -0.00258 0.11 0.0
O11 O 0.30398 0.91481 0.10002 0.0
C12 C 0.24752 0.91878 0.89158 0.0
O13 O 0.22908 0.95533 0.8993 0.0
O14 O 0.27924 0.90612 0.90938 0.0
O15 O 0.25667 0.943 0.98853 0.0
O16 O 0.23921 0.94523 0.04383 0.0
O17 O 0.29483 0.00614 0.92581 0.0
C18 C 0.36426 0.93539 0.99555 0.0
C19 C 0.2284 0.94067 0.01224 0.0
Zn20 Zn 0.14821 0.29842 0.5581 0.0
Zn21 Zn 0.15499 0.29519 0.44545 0.0
C22 C 0.17223 0.27019 0.62066 0.0
O23 O 0.13934 0.24794 0.61033 0.0
C24 C 0.09157 0.31191 0.39557 0.0
O25 O 0.12205 0.33822 0.38659 0.0
O26 O 0.08647 0.30066 0.57268 0.0
O27 O 0.16055 0.32836 0.51359 0.0
O28 O 0.15885 0.35667 0.46232 0.0
C29 C 0.0734 0.32943 0.59348 0.0
O30 O 0.09844 0.36168 0.60039 0.0
O31 O 0.18472 0.30126 0.60178 0.0
C32 C 0.1824 0.24978 0.38735 0.0
O33 O 0.14708 0.23034 0.39606 0.0
O34 O 0.19601 0.2799 0.40649 0.0
O35 O 0.16168 0.25295 0.48568 0.0
O36 O 0.16024 0.23933 0.54205 0.0
O37 O 0.09625 0.28996 0.42324 0.0
C38 C 0.155 0.36118 0.49505 0.0
C39 C 0.16583 0.22679 0.51089 0.0
Zn40 Zn 0.81261 0.14674 0.04841 0.0
Zn41 Zn 0.81184 0.16322 0.94632 0.0
C42 C 0.85631 0.18108 0.10322 0.0
O43 O 0.88234 0.15268 0.08952 0.0
C44 C 0.80631 0.07752 0.9207 0.0
O45 O 0.76552 0.08643 0.92328 0.0
O46 O 0.80984 0.0894 0.07146 0.0
O47 O 0.75884 0.15267 0.02118 0.0
O48 O 0.75132 0.16169 0.96408 0.0
C49 C 0.78159 0.08567 0.09496 0.0
O50 O 0.75493 0.11753 0.10032 0.0
O51 O 0.82005 0.18717 0.08921 0.0
C52 C 0.83278 0.22851 0.8948 0.0
O53 O 0.84371 0.25155 0.92184 0.0
O54 O 0.81542 0.1925 0.89964 0.0
O55 O 0.85151 0.19415 0.97837 0.0
O56 O 0.86561 0.14889 0.02069 0.0
O57 O 0.83296 0.10392 0.93296 0.0
C58 C 0.73551 0.15761 0.99447 0.0
C59 C 0.87806 0.17342 0.99659 0.0
Zn60 Zn 0.95363 0.81316 0.55646 0.0
Zn61 Zn 0.94311 0.80643 0.44319 0.0
C62 C 0.92588 0.8521 0.61467 0.0
O63 O 0.96003 0.87185 0.60354 0.0
C64 C 0.00649 0.78792 0.39119 0.0
O65 O 0.97605 0.76272 0.38035 0.0
O66 O 0.01258 0.80555 0.57709 0.0
O67 O 0.94263 0.77826 0.51387 0.0
O68 O 0.9365 0.74675 0.46399 0.0
C69 C 0.01297 0.78378 0.60505 0.0
O70 O 0.97816 0.76387 0.61448 0.0
O71 O 0.91282 0.81957 0.59778 0.0
C72 C 0.91153 0.85277 0.38791 0.0
O73 O 0.9475 0.87139 0.39559 0.0
O74 O 0.90027 0.8202 0.40532 0.0
O75 O 0.9419 0.85458 0.47959 0.0
O76 O 0.94832 0.87025 0.5355 0.0
O77 O 0.00092 0.80872 0.41929 0.0
C78 C 0.9418 0.74384 0.49668 0.0
C79 C 0.94154 0.88181 0.50432 0.0
H80 H 0.90442 0.15612 0.93054 0.0
H81 H 0.96768 0.11259 0.91775 0.0
H82 H 0.01175 0.13057 0.0229 0.0
H83 H 0.9484 0.17313 0.03598 0.0
H84 H 0.07555 0.11559 0.95227 0.0
H85 H 0.9501 0.00036 0.9926 0.0
H86 H 0.93708 0.04616 0.96607 0.0
H87 H 0.951 0.0533 0.01087 0.0
C88 C 0.92882 0.15274 0.95023 0.0
C89 C 0.92156 0.16685 0.98439 0.0
C90 C 0.96479 0.12788 0.94293 0.0
C91 C -0.00648 0.11804 0.96964 0.0
C92 C -0.01037 0.13796 0.0021 0.0
H93 H 0.16167 0.95546 0.05608 0.0
H94 H 0.09372 -0.01444 0.03819 0.0
C95 C 0.95357 0.16223 0.00951 0.0
C96 C 0.02043 0.07984 0.96713 0.0
H97 H 0.02038 0.97429 0.98895 0.0
C98 C 0.0635 0.08437 0.95918 0.0
C99 C 0.00418 0.03966 0.97712 0.0
C100 C 0.95806 0.03419 0.98719 0.0
C101 C 0.09148 0.04961 0.96215 0.0
C102 C 0.07542 0.00953 0.97285 0.0
C103 C 0.03204 0.00479 0.97979 0.0
C104 C 0.10482 0.97531 0.98321 0.0
C105 C 0.13847 0.05666 0.95629 0.0
C106 C 0.13097 0.95543 0.95839 0.0
C107 C 0.16987 0.9379 0.96867 0.0
C108 C 0.18292 0.94139 0.00341 0.0
C109 C 0.15314 0.954 0.02881 0.0
C110 C 0.11411 0.97099 0.01867 0.0
H111 H 0.14601 0.09077 0.95167 0.0
H112 H 0.15698 0.0454 0.97916 0.0
H113 H 0.14924 0.03799 0.93332 0.0
H114 H 0.12352 0.95759 0.93092 0.0
H115 H 0.19121 0.92522 0.94923 0.0
H116 H 0.93318 0.94652 0.55124 0.0
H117 H 0.96825 0.01489 0.5446 0.0
H118 H -0.01504 -0.00916 0.43498 0.0
H119 H 0.95078 0.92218 0.44162 0.0
H120 H 0.05346 0.98039 0.51482 0.0
H121 H -0.01066 0.12768 0.45189 0.0
H122 H 0.95659 0.09336 0.47847 0.0
H123 H 0.97229 0.07654 0.43574 0.0
C124 C 0.94249 0.95657 0.52534 0.0
C125 C 0.94193 0.92792 0.49714 0.0
C126 C 0.96202 -0.00404 0.52159 0.0
C127 C 0.98015 0.00687 0.48955 0.0
C128 C 0.97137 0.98245 0.45999 0.0
H129 H 0.17262 0.18568 0.44818 0.0
H130 H 0.14254 0.11538 0.43764 0.0
C131 C 0.95216 0.94289 0.46383 0.0
C132 C 0.01927 0.03172 0.48956 0.0
H133 H 0.06296 0.12451 0.46263 0.0
C134 C 0.05578 0.01199 0.50341 0.0
C135 C 0.02182 0.07211 0.474 0.0
C136 C 0.983 0.09402 0.45922 0.0
C137 C 0.0952 0.03215 0.50251 0.0
C138 C 0.09777 0.07318 0.48766 0.0
C139 C 0.06119 0.09248 0.47321 0.0
C140 C 0.1352 0.10036 0.49229 0.0
C141 C 0.13338 0.00953 0.51781 0.0
C142 C 0.1459 0.11234 0.52628 0.0
C143 C 0.16304 0.15236 0.53226 0.0
C144 C 0.16854 0.1807 0.50428 0.0
C145 C 0.16643 0.1651 0.47014 0.0
C146 C 0.14975 0.12475 0.46411 0.0
H147 H 0.13075 0.97441 0.51462 0.0
H148 H 0.16352 0.02026 0.50564 0.0
H149 H 0.13475 0.01619 0.54616 0.0
H150 H 0.13525 0.09396 0.54848 0.0
H151 H 0.16615 0.16296 0.55897 0.0
H152 H 0.68182 0.12583 0.94526 0.0
H153 H 0.61607 0.08717 0.95713 0.0
H154 H 0.6221 0.12421 0.06501 0.0
H155 H 0.68775 0.16323 0.0535 0.0
H156 H 0.62555 0.02353 0.03582 0.0
H157 H 0.48963 0.13141 0.00255 0.0
H158 H 0.53685 0.13228 0.97575 0.0
H159 H 0.53913 0.15166 0.01957 0.0
C160 C 0.66828 0.12731 0.97119 0.0
C161 C 0.69013 0.1472 0.99855 0.0
C162 C 0.63098 0.10489 0.97796 0.0
C163 C 0.61498 0.1026 0.01198 0.0
C164 C 0.63442 0.12557 0.03867 0.0
H165 H 0.38773 0.95945 0.06051 0.0
H166 H 0.45507 -0.00625 0.07531 0.0
C167 C 0.67169 0.14797 0.03197 0.0
C168 C 0.5809 0.07242 0.02017 0.0
H169 H 0.47395 0.05914 0.01385 0.0
C170 C 0.59227 0.03131 0.03157 0.0
C171 C 0.53787 0.08313 0.01471 0.0
C172 C 0.52475 0.12704 0.00258 0.0
C173 C 0.56136 -0.00027 0.03602 0.0
C174 C 0.51853 0.00999 0.02905 0.0
C175 C 0.50703 0.05171 0.01939 0.0
C176 C 0.48553 0.97726 0.02658 0.0
C177 C 0.57446 0.95537 0.04697 0.0
C178 C 0.48156 0.95482 0.99523 0.0
C179 C 0.44274 0.93661 0.98638 0.0
C180 C 0.40776 0.9405 0.009 0.0
C181 C 0.41392 0.95737 0.04242 0.0
C182 C 0.45242 0.97648 0.05099 0.0
H183 H 0.60775 0.95422 0.05662 0.0
H184 H 0.55285 0.94352 0.06768 0.0
H185 H 0.57176 0.9335 0.02438 0.0
H186 H 0.50694 0.95529 0.9761 0.0
H187 H 0.43914 0.923 0.96065 0.0
H188 H 0.16894 0.40329 0.55632 0.0
H189 H 0.13095 0.46773 0.57722 0.0
H190 H 0.05115 0.46507 0.48607 0.0
H191 H 0.08943 0.40229 0.46476 0.0
H192 H 0.1214 0.54688 0.52436 0.0
H193 H 0.97286 0.48099 0.58041 0.0
H194 H 0.02304 0.45224 0.58066 0.0
H195 H -0.00795 0.45513 0.54152 0.0
C196 C 0.1432 0.41666 0.54098 0.0
C197 C 0.13243 0.39865 0.50876 0.0
C198 C 0.12149 0.45302 0.55297 0.0
C199 C 0.08813 0.47052 0.53325 0.0
C200 C 0.0766 0.4516 0.5017 0.0
H201 H 0.92471 0.66326 0.47397 0.0
H202 H 0.95993 0.59712 0.49285 0.0
C203 C 0.09876 0.41614 0.48941 0.0
C204 C 0.06771 0.51123 0.54272 0.0
H205 H 0.96934 0.55317 0.55924 0.0
C206 C 0.0886 0.54873 0.53315 0.0
C207 C 0.0249 0.51293 0.55376 0.0
C208 C 0.00183 0.47322 0.56497 0.0
C209 C 0.06659 0.58771 0.53144 0.0
C210 C 0.02286 0.589 0.54038 0.0
C211 C 0.00282 0.55195 0.55238 0.0
C212 C -0.00337 0.62731 0.53345 0.0
C213 C 0.08938 0.62634 0.51739 0.0
C214 C 0.00465 0.66565 0.55083 0.0
C215 C -0.01538 0.70321 0.54001 0.0
C216 C 0.9561 0.70309 0.512 0.0
C217 C 0.94638 0.66422 0.49584 0.0
C218 C 0.96638 0.62651 0.50663 0.0
H219 H 0.12102 0.61804 0.50622 0.0
H220 H 0.07007 0.64226 0.49692 0.0
H221 H 0.09424 0.64958 0.53876 0.0
H222 H 0.0279 0.6669 0.57157 0.0
H223 H -0.0063 0.73278 0.55187 0.0
H224 H 0.14289 0.2256 0.32845 0.0
H225 H 0.17545 0.20134 0.27403 0.0
H226 H 0.30012 0.22358 0.31662 0.0
H227 H 0.26749 0.24892 0.37134 0.0
H228 H 0.25138 0.24779 0.22921 0.0
H229 H 0.27587 0.08679 0.28826 0.0
H230 H 0.23399 0.12228 0.30286 0.0
H231 H 0.28819 0.13356 0.31357 0.0
C232 C 0.17726 0.22575 0.3261 0.0
C233 C 0.20284 0.23878 0.35404 0.0
C234 C 0.19571 0.21222 0.29497 0.0
C235 C 0.24001 0.2109 0.29146 0.0
C236 C 0.26578 0.22486 0.31894 0.0
H237 H 0.38416 0.06272 0.14361 0.0
H238 H 0.3665 0.11691 0.18705 0.0
C239 C 0.24723 0.2392 0.35005 0.0
C240 C 0.25888 0.19101 0.26022 0.0
H241 H 0.29546 0.09542 0.22986 0.0
C242 C 0.26154 0.21464 0.22926 0.0
C243 C 0.27127 0.14766 0.26054 0.0
C244 C 0.26719 0.12075 0.29295 0.0
C245 C 0.27667 0.19574 0.19838 0.0
C246 C 0.28902 0.15229 0.19875 0.0
C247 C 0.28646 0.12892 0.22984 0.0
C248 C 0.30325 0.12919 0.16722 0.0
C249 C 0.2794 0.22214 0.16567 0.0
C250 C 0.27415 0.11964 0.14074 0.0
C251 C 0.28419 0.08864 0.11577 0.0
C252 C 0.32327 0.06646 0.11732 0.0
C253 C 0.35365 0.07891 0.142 0.0
C254 C 0.34368 0.10995 0.16677 0.0
H255 H 0.27704 0.25686 0.17128 0.0
H256 H 0.30973 0.21556 0.15172 0.0
H257 H 0.25287 0.21349 0.14808 0.0
H258 H 0.24256 0.13371 0.14093 0.0
H259 H 0.26008 0.07972 0.09709 0.0
H260 H 0.0318 0.38553 0.63633 0.0
H261 H 0.98155 0.36781 0.68294 0.0
H262 H 0.98269 0.23633 0.65019 0.0
H263 H 0.03252 0.25362 0.60336 0.0
H264 H 0.895 0.31068 0.6805 0.0
H265 H 0.03498 0.25243 0.75645 0.0
H266 H 0.04023 0.29177 0.72236 0.0
H267 H 0.03042 0.23718 0.71138 0.0
C268 C 0.02055 0.35305 0.6385 0.0
C269 C 0.03643 0.32095 0.61634 0.0
C270 C -0.00814 0.34302 0.66511 0.0
C271 C 0.97885 0.30076 0.67005 0.0
C272 C -0.00753 0.26913 0.64669 0.0
H273 H 0.83836 0.1777 0.83707 0.0
H274 H 0.87123 0.19515 0.78105 0.0
C275 C 0.02084 0.27916 0.61988 0.0
C276 C 0.95473 0.28904 0.70165 0.0
H277 H 0.96777 0.24818 0.7834 0.0
C278 C 0.91076 0.2969 0.70298 0.0
C279 C 0.97561 0.27114 0.73083 0.0
C280 C 0.02295 0.26265 0.73056 0.0
C281 C 0.88707 0.28724 0.73301 0.0
C282 C 0.90805 0.26976 0.76224 0.0
C283 C 0.95193 0.26164 0.76082 0.0
C284 C 0.88509 0.26039 0.7949 0.0
C285 C 0.83984 0.29582 0.73367 0.0
C286 C 0.88179 0.29155 0.82095 0.0
C287 C 0.86318 0.28173 0.85305 0.0
C288 C 0.84745 0.2406 0.85951 0.0
C289 C 0.8497 0.20984 0.83283 0.0
C290 C 0.86861 0.21963 0.80086 0.0
H291 H 0.82792 0.30829 0.70841 0.0
H292 H 0.82269 0.26597 0.74008 0.0
H293 H 0.83229 0.31938 0.75441 0.0
H294 H 0.89451 0.32316 0.81671 0.0
H295 H 0.862 0.30606 0.87305 0.0
H296 H 0.86615 0.80784 0.33948 0.0
H297 H 0.83617 0.83645 0.28496 0.0
H298 H 0.87105 0.96362 0.31629 0.0
H299 H 0.90195 0.93523 0.3698 0.0
H300 H 0.77417 0.90018 0.26869 0.0
H301 H 0.93519 0.9469 0.22464 0.0
H302 H 0.92678 0.91166 0.26115 0.0
H303 H 0.92176 0.96855 0.26647 0.0
C304 C 0.86659 0.84193 0.33485 0.0
C305 C 0.88661 0.86938 0.35847 0.0
C306 C 0.84969 0.85819 0.30377 0.0
C307 C 0.85243 0.90198 0.29631 0.0
C308 C 0.86968 0.9296 0.32115 0.0
H309 H 0.74261 0.08018 0.15818 0.0
H310 H 0.75563 0.02712 0.20336 0.0
C311 C 0.88707 0.9134 0.35175 0.0
C312 C 0.83939 0.91914 0.26206 0.0
H313 H 0.87652 0.97842 0.19421 0.0
C314 C 0.79656 0.91675 0.25207 0.0
C315 C 0.86889 0.94004 0.24014 0.0
C316 C 0.9158 0.9416 0.24844 0.0
C317 C 0.78202 0.93693 0.22161 0.0
C318 C 0.81105 0.96029 0.20103 0.0
C319 C 0.85424 0.96065 0.2101 0.0
C320 C 0.79727 -0.0123 0.1717 0.0
C321 C 0.73571 0.93354 0.21193 0.0
C322 C 0.81627 0.98317 0.13879 0.0
C323 C 0.80941 0.0139 0.11299 0.0
C324 C 0.78343 0.04967 0.11974 0.0
C325 C 0.76257 0.05285 0.15206 0.0
C326 C 0.76972 0.02232 0.17789 0.0
H327 H 0.72087 0.905 0.22391 0.0
H328 H 0.71834 0.96217 0.22155 0.0
H329 H 0.73175 0.93188 0.18325 0.0
H330 H 0.83783 0.95677 0.13357 0.0
H331 H 0.82573 0.0105 0.08827 0.0
H332 H 0.00812 0.77452 0.67472 0.0
H333 H 0.06281 0.78852 0.71755 0.0
H334 H 0.15297 0.81405 0.63532 0.0
H335 H 0.0969 0.80239 0.59189 0.0
H336 H 0.13582 0.75381 0.73302 0.0
H337 H 0.16325 0.92121 0.68998 0.0
H338 H 0.12075 0.8895 0.67256 0.0
H339 H 0.17462 0.88091 0.65807 0.0
C340 C 0.03968 0.78268 0.66561 0.0
C341 C 0.04827 0.78748 0.62998 0.0
C342 C 0.071 0.79068 0.69019 0.0
C343 C 0.11193 0.80293 0.67976 0.0
C344 C 0.12133 0.80574 0.64403 0.0
H345 H 0.29446 0.86952 0.84677 0.0
H346 H 0.26912 0.83578 0.79282 0.0
C347 C 0.08947 0.79873 0.61926 0.0
C348 C 0.14329 0.81427 0.70695 0.0
H349 H 0.19694 0.89883 0.74109 0.0
C350 C 0.14989 0.78525 0.7344 0.0
C351 C 0.16149 0.85544 0.70886 0.0
C352 C 0.15451 0.88874 0.68099 0.0
C353 C 0.17175 0.79719 0.76457 0.0
C354 C 0.18823 0.83872 0.76692 0.0
C355 C 0.18429 0.86685 0.73876 0.0
C356 C 0.20371 0.85577 0.80018 0.0
C357 C 0.17461 0.76658 0.79478 0.0
C358 C 0.17505 0.87757 0.82189 0.0
C359 C 0.18934 0.897 0.85222 0.0
C360 C 0.23244 0.89449 0.86145 0.0
C361 C 0.26097 0.8714 0.84029 0.0
C362 C 0.24668 0.85237 0.80956 0.0
H363 H 0.16389 0.73403 0.78768 0.0
H364 H 0.20783 0.7647 0.80445 0.0
H365 H 0.15438 0.7786 0.81645 0.0
H366 H 0.14174 0.8803 0.81494 0.0
H367 H 0.16676 0.91446 0.86826 0.0
H368 H 0.88232 0.07017 0.88593 0.0
H369 H 0.89856 0.02225 0.83728 0.0
H370 H 0.77869 0.95883 0.85259 0.0
H371 H 0.76153 0.00769 0.90031 0.0
H372 H 0.90675 0.93756 0.82646 0.0
H373 H 0.7665 -0.0015 0.75365 0.0
H374 H 0.78441 0.02265 0.79352 0.0
H375 H 0.75304 0.97487 0.7947 0.0
C376 C 0.85975 0.04551 0.87936 0.0
C377 C 0.82037 0.04306 0.89672 0.0
C378 C 0.86902 0.01819 0.85143 0.0
C379 C 0.83929 -0.0123 0.84055 0.0
C380 C 0.80152 0.98298 0.85971 0.0
H381 H 0.8789 0.80837 0.66389 0.0
H382 H 0.85423 0.83655 0.72061 0.0
C383 C 0.79194 0.01067 0.88724 0.0
C384 C 0.84683 0.9626 0.80813 0.0
H385 H 0.80628 0.94329 0.72707 0.0
C386 C 0.88451 0.93845 0.80493 0.0
C387 C 0.81814 0.96426 0.77966 0.0
C388 C 0.77848 -0.00823 0.7803 0.0
C389 C 0.8943 0.91625 0.77408 0.0
C390 C 0.86552 0.91782 0.74593 0.0
C391 C 0.82769 0.94139 0.74913 0.0
C392 C 0.87721 0.90048 0.71136 0.0
C393 C 0.93612 0.89261 0.77102 0.0
C394 C 0.89719 0.92738 0.68744 0.0
C395 C 0.91113 0.91155 0.65551 0.0
C396 C 0.90517 0.86846 0.64662 0.0
C397 C 0.88355 0.84174 0.66999 0.0
C398 C 0.86978 0.85769 0.70235 0.0
H399 H 0.95412 0.89239 0.79588 0.0
H400 H 0.9305 0.85917 0.76278 0.0
H401 H 0.95599 0.90788 0.75065 0.0
H402 H 0.90298 0.96049 0.69388 0.0
H403 H 0.92746 0.93305 0.63798 0.0
H404 H 0.23494 0.85495 0.12549 0.0
H405 H 0.19808 0.82576 0.17655 0.0
H406 H 0.25989 0.91822 0.242 0.0
H407 H 0.29547 0.9483 0.19076 0.0
H408 H 0.22254 0.79352 0.24323 0.0
H409 H 0.13309 0.94699 0.25286 0.0
H410 H 0.16412 0.93265 0.215 0.0
H411 H 0.19 0.95143 0.25366 0.0
C412 C 0.24185 0.86779 0.15103 0.0
C413 C 0.26847 0.90323 0.15457 0.0
C414 C 0.22055 0.85143 0.18008 0.0
C415 C 0.22572 0.87034 0.21294 0.0
C416 C 0.25491 0.90367 0.21679 0.0
H417 H 0.07095 0.84525 0.40142 0.0
H418 H 0.12842 0.86323 0.36091 0.0
C419 C 0.27565 0.92042 0.1877 0.0
C420 C 0.19787 0.85774 0.24234 0.0
H421 H 0.11795 0.89475 0.29493 0.0
C422 C 0.19981 0.81565 0.25469 0.0
C423 C 0.16816 0.88673 0.25717 0.0
C424 C 0.16328 0.93188 0.2439 0.0
C425 C 0.17287 0.80174 0.28158 0.0
C426 C 0.14265 0.83051 0.296 0.0
C427 C 0.14126 0.87281 0.28401 0.0
C428 C 0.11039 0.81692 0.32198 0.0
C429 C 0.17722 0.75644 0.29443 0.0
C430 C 0.0812 0.78489 0.31362 0.0
C431 C 0.04845 0.77447 0.33671 0.0
C432 C 0.04392 0.79613 0.36858 0.0
C433 C 0.07366 0.82773 0.37721 0.0
C434 C 0.10647 0.83813 0.35405 0.0
H435 H 0.20948 0.74324 0.28901 0.0
H436 H 0.17096 0.75433 0.32283 0.0
H437 H 0.15382 0.73617 0.28073 0.0
H438 H 0.08287 0.76882 0.2887 0.0
H439 H 0.02599 0.7502 0.32907 0.0
H440 H 0.21361 0.31648 0.67157 0.0
H441 H 0.24565 0.28732 0.72548 0.0
H442 H 0.21495 0.15993 0.69204 0.0
H443 H 0.18299 0.18838 0.63923 0.0
H444 H 0.19548 0.2214 0.77531 0.0
H445 H 0.34841 0.16493 0.71867 0.0
H446 H 0.31821 0.20889 0.7004 0.0
H447 H 0.30207 0.15486 0.69267 0.0
C448 C 0.21436 0.2823 0.67572 0.0
C449 C 0.19584 0.25467 0.65137 0.0
C450 C 0.2323 0.26575 0.70647 0.0
C451 C 0.23256 0.2215 0.71259 0.0
C452 C 0.21508 0.19412 0.68778 0.0
H453 H 0.29322 0.00598 0.82642 0.0
H454 H 0.2755 0.06459 0.78736 0.0
C455 C 0.19681 0.21049 0.65763 0.0
C456 C 0.24995 0.20251 0.74489 0.0
H457 H 0.32545 0.13081 0.77098 0.0
C458 C 0.22452 0.20248 0.77498 0.0
C459 C 0.28755 0.17764 0.74402 0.0
C460 C 0.31591 0.17669 0.7123 0.0
C461 C 0.23413 0.17554 0.80331 0.0
C462 C 0.27052 0.14863 0.80152 0.0
C463 C 0.29746 0.15123 0.77236 0.0
C464 C 0.27868 0.11364 0.82692 0.0
C465 C 0.20366 0.17383 0.83367 0.0
C466 C 0.28565 0.1214 0.86253 0.0
C467 C 0.29514 0.08745 0.88524 0.0
C468 C 0.29886 0.04556 0.87241 0.0
C469 C 0.29147 0.03803 0.83693 0.0
C470 C 0.28119 0.07154 0.81458 0.0
H471 H 0.17347 0.19126 0.82826 0.0
H472 H 0.19609 0.14025 0.84032 0.0
H473 H 0.21869 0.18865 0.85674 0.0
H474 H 0.28459 0.15364 0.87262 0.0
H475 H 0.30065 0.09404 0.91252 0.0
H476 H 0.93548 0.20644 0.11944 0.0
H477 H 0.96105 0.23242 0.17553 0.0
H478 H 0.83334 0.2289 0.21654 0.0
H479 H 0.80724 0.20309 0.15982 0.0
H480 H 0.90166 0.31065 0.22734 0.0
H481 H 0.9477 0.14637 0.26867 0.0
H482 H 0.95457 0.16047 0.22351 0.0
H483 H 0.902 0.15694 0.24139 0.0
C484 C 0.9127 0.21187 0.14022 0.0
C485 C 0.86941 0.20298 0.13536 0.0
C486 C 0.92736 0.22659 0.17221 0.0
C487 C 0.89912 0.23221 0.2001 0.0
C488 C 0.85552 0.2248 0.19516 0.0
H489 H 0.02153 0.26064 0.40472 0.0
H490 H 0.96699 0.24336 0.36136 0.0
C491 C 0.84066 0.2104 0.16282 0.0
C492 C 0.91638 0.24412 0.23449 0.0
H493 H 0.97677 0.20367 0.30061 0.0
C494 C 0.91736 0.28729 0.24384 0.0
C495 C 0.93648 0.21346 0.25596 0.0
C496 C 0.93516 0.16658 0.24719 0.0
C497 C 0.93988 0.3009 0.27333 0.0
C498 C 0.9628 0.27055 0.29347 0.0
C499 C 0.95954 0.22703 0.28517 0.0
C500 C -0.00658 0.28348 0.32097 0.0
C501 C 0.93943 0.34779 0.28216 0.0
C502 C 0.02655 0.31152 0.31275 0.0
C503 C 0.05729 0.32176 0.33747 0.0
C504 C 0.05625 0.30358 0.37094 0.0
C505 C 0.02306 0.27547 0.37929 0.0
C506 C -0.00807 0.2655 0.35451 0.0
H507 H 0.90942 0.36332 0.27337 0.0
H508 H 0.94301 0.35313 0.31056 0.0
H509 H 0.96609 0.36364 0.26843 0.0
H510 H 0.02943 0.32465 0.28678 0.0
H511 H 0.08268 0.34301 0.32985 0.0
loop_
_geom_bond_atom_site_label_1
_geom_bond_atom_site_label_2
_geom_bond_distance
_geom_bond_site_symmetry_2
_ccdc_geom_bond_type
Zn0 O6 1.969 . S
Zn0 O7 1.965 . S
Zn0 O11 2.024 1_545 S
Zn0 O16 1.969 . S
Zn1 O8 1.969 . S
Zn1 O14 1.969 . S
Zn1 O15 1.965 . S
Zn1 O17 2.024 1_565 S
C2 O3 1.229 . S
C2 O11 1.058 . S
O3 C2 1.229 . S
C4 O5 1.229 . S
C4 O17 1.058 . S
O5 C4 1.229 . S
O6 Zn0 1.969 . S
O6 C9 1.267 . S
O7 Zn0 1.965 . S
O7 C18 1.267 1_554 S
O8 Zn1 1.969 . S
O8 C18 1.255 1_565 S
C9 O6 1.267 . S
C9 O10 1.228 . S
O10 C9 1.228 . S
O11 Zn0 2.024 1_565 S
O11 C2 1.058 . S
C12 O13 1.228 . S
C12 O14 1.267 . S
O13 C12 1.228 . S
O14 Zn1 1.969 . S
O14 C12 1.267 . S
O15 Zn1 1.965 . S
O15 C19 1.264 1_556 S
O16 Zn0 1.969 . S
O16 C19 1.256 1_545 S
O17 Zn1 2.024 1_545 S
O17 C4 1.058 . S
C18 O7 1.267 1_556 S
C18 O8 1.255 1_545 S
C19 O15 1.264 1_554 S
C19 O16 1.256 1_565 S
Zn20 O26 1.969 . S
Zn20 O27 1.965 . S
Zn20 O31 2.024 . S
Zn20 O36 1.969 . S
Zn21 O28 1.969 . S
Zn21 O34 1.969 . S
Zn21 O35 1.965 . S
Zn21 O37 2.024 . S
C22 O23 1.229 . S
C22 O31 1.058 . S
O23 C22 1.229 . S
C24 O25 1.229 . S
C24 O37 1.058 . S
O25 C24 1.229 . S
O26 Zn20 1.969 . S
O26 C29 1.267 . S
O27 Zn20 1.965 . S
O27 C38 1.260 . S
O28 Zn21 1.969 . S
O28 C38 1.258 . S
C29 O26 1.267 . S
C29 O30 1.228 . S
O30 C29 1.228 . S
O31 Zn20 2.024 . S
O31 C22 1.058 . S
C32 O33 1.228 . S
C32 O34 1.267 . S
O33 C32 1.228 . S
O34 Zn21 1.969 . S
O34 C32 1.267 . S
O35 Zn21 1.965 . S
O35 C39 1.260 . S
O36 Zn20 1.969 . S
O36 C39 1.258 . S
O37 Zn21 2.024 . S
O37 C24 1.058 . S
C38 O27 1.260 . S
C38 O28 1.258 . S
C39 O35 1.260 . S
C39 O36 1.258 . S
Zn40 O46 1.969 . S
Zn40 O47 1.965 . S
Zn40 O51 2.024 . S
Zn40 O56 1.969 . S
Zn41 O48 1.969 . S
Zn41 O54 1.969 . S
Zn41 O55 1.965 . S
Zn41 O57 2.024 . S
C42 O43 1.229 . S
C42 O51 1.058 . S
O43 C42 1.229 . S
C44 O45 1.229 . S
C44 O57 1.058 . S
O45 C44 1.229 . S
O46 Zn40 1.969 . S
O46 C49 1.267 . S
O47 Zn40 1.965 . S
O47 C58 1.260 1_554 S
O48 Zn41 1.969 . S
O48 C58 1.258 . S
C49 O46 1.267 . S
C49 O50 1.228 . S
O50 C49 1.228 . S
O51 Zn40 2.024 . S
O51 C42 1.058 . S
C52 O53 1.228 . S
C52 O54 1.267 . S
O53 C52 1.228 . S
O54 Zn41 1.969 . S
O54 C52 1.267 . S
O55 Zn41 1.965 . S
O55 C59 1.260 1_556 S
O56 Zn40 1.969 . S
O56 C59 1.258 . S
O57 Zn41 2.024 . S
O57 C44 1.058 . S
C58 O47 1.260 1_556 S
C58 O48 1.258 . S
C59 O55 1.260 1_554 S
C59 O56 1.258 . S
Zn60 O66 1.969 . S
Zn60 O67 1.965 . S
Zn60 O71 2.024 1_455 S
Zn60 O76 1.969 . S
Zn61 O68 1.969 . S
Zn61 O74 1.969 . S
Zn61 O75 1.965 . S
Zn61 O77 2.024 1_655 S
C62 O63 1.229 . S
C62 O71 1.058 . S
O63 C62 1.229 . S
C64 O65 1.229 . S
C64 O77 1.058 . S
O65 C64 1.229 . S
O66 Zn60 1.969 . S
O66 C69 1.267 . S
O67 Zn60 1.965 . S
O67 C78 1.267 . S
O68 Zn61 1.969 . S
O68 C78 1.255 1_655 S
C69 O66 1.267 . S
C69 O70 1.228 . S
O70 C69 1.228 . S
O71 Zn60 2.024 1_655 S
O71 C62 1.058 . S
C72 O73 1.228 . S
C72 O74 1.267 . S
O73 C72 1.228 . S
O74 Zn61 1.969 . S
O74 C72 1.267 . S
O75 Zn61 1.965 . S
O75 C79 1.264 . S
O76 Zn60 1.969 . S
O76 C79 1.256 1_455 S
O77 Zn61 2.024 1_455 S
O77 C64 1.058 . S
C78 O67 1.267 . S
C78 O68 1.255 1_455 S
C79 O75 1.264 . S
C79 O76 1.256 1_655 S
H80 C88 0.929 . S
H81 C90 0.930 . S
H82 C92 0.930 . S
H83 C95 0.929 . S
H84 C98 0.930 . S
H85 C100 0.950 1_465 S
H86 C100 0.994 . S
H87 C100 0.973 . S
C88 H80 0.929 . S
C88 C89 1.377 . S
C88 C90 1.384 . S
C89 C88 1.377 . S
C89 C95 1.390 1_556 S
C90 H81 0.930 . S
C90 C88 1.384 . S
C90 C91 1.372 . S
C91 C90 1.372 . S
C91 C92 1.400 1_556 S
C91 C96 1.490 1_655 S
C92 H82 0.930 . S
C92 C91 1.400 1_554 S
C92 C95 1.386 . S
H93 C109 0.930 1_565 S
H94 C110 0.931 . S
C95 H83 0.929 . S
C95 C89 1.390 1_554 S
C95 C92 1.386 . S
C96 C91 1.490 1_455 S
C96 C98 1.395 . S
C96 C99 1.403 1_556 S
H97 C103 0.930 . S
C98 H84 0.930 . S
C98 C96 1.395 . S
C98 C101 1.403 . S
C99 C96 1.403 1_554 S
C99 C100 1.504 1_455 S
C99 C103 1.400 . S
C100 H85 0.950 1_645 S
C100 H86 0.994 . S
C100 H87 0.973 . S
C100 C99 1.504 1_655 S
C101 C98 1.403 . S
C101 C102 1.392 . S
C101 C105 1.495 . S
C102 C101 1.392 . S
C102 C103 1.385 1_556 S
C102 C104 1.478 . S
C103 H97 0.930 . S
C103 C99 1.400 . S
C103 C102 1.385 1_554 S
C104 C102 1.478 . S
C104 C106 1.381 . S
C104 C110 1.383 1_556 S
C105 C101 1.495 . S
C105 H111 0.959 . S
C105 H112 0.961 . S
C105 H113 0.960 . S
C106 C104 1.381 . S
C106 C107 1.394 . S
C106 H114 0.930 . S
C107 C106 1.394 . S
C107 C108 1.383 1_545 S
C107 H115 0.929 1_545 S
C108 C107 1.383 1_565 S
C108 C109 1.377 1_566 S
C109 H93 0.930 1_545 S
C109 C108 1.377 1_544 S
C109 C110 1.379 . S
C110 H94 0.931 . S
C110 C104 1.383 1_554 S
C110 C109 1.379 . S
H111 C105 0.959 . S
H112 C105 0.961 . S
H113 C105 0.960 . S
H114 C106 0.930 . S
H115 C107 0.929 1_565 S
H116 C124 0.929 . S
H117 C126 0.930 . S
H118 C128 0.930 . S
H119 C131 0.929 . S
H120 C134 0.930 . S
H121 C136 0.960 . S
H122 C136 0.960 . S
H123 C136 0.960 . S
C124 H116 0.929 . S
C124 C125 1.377 . S
C124 C126 1.384 1_655 S
C125 C124 1.377 . S
C125 C131 1.390 . S
C126 H117 0.930 . S
C126 C124 1.384 1_455 S
C126 C127 1.372 . S
C127 C126 1.372 . S
C127 C128 1.400 . S
C127 C132 1.490 1_565 S
C128 H118 0.930 . S
C128 C127 1.400 . S
C128 C131 1.386 1_455 S
H129 C145 0.930 . S
H130 C146 0.931 . S
C131 H119 0.929 . S
C131 C125 1.390 . S
C131 C128 1.386 1_655 S
C132 C127 1.490 1_545 S
C132 C134 1.395 . S
C132 C135 1.403 . S
H133 C139 0.930 . S
C134 H120 0.930 . S
C134 C132 1.395 . S
C134 C137 1.403 . S
C135 C132 1.403 . S
C135 C136 1.524 1_455 S
C135 C139 1.400 . S
C136 H121 0.960 . S
C136 H122 0.960 . S
C136 H123 0.960 . S
C136 C135 1.524 1_655 S
C137 C134 1.403 . S
C137 C138 1.392 . S
C137 C141 1.495 . S
C138 C137 1.392 . S
C138 C139 1.385 . S
C138 C140 1.478 . S
C139 H133 0.930 . S
C139 C135 1.400 . S
C139 C138 1.385 . S
C140 C138 1.478 . S
C140 C142 1.381 . S
C140 C146 1.383 . S
C141 C137 1.495 . S
C141 H147 0.959 . S
C141 H148 0.961 . S
C141 H149 0.960 . S
C142 C140 1.381 . S
C142 C143 1.394 . S
C142 H150 0.930 . S
C143 C142 1.394 . S
C143 C144 1.383 . S
C143 H151 0.929 . S
C144 C143 1.383 . S
C144 C145 1.377 . S
C145 H129 0.930 . S
C145 C144 1.377 . S
C145 C146 1.379 . S
C146 H130 0.931 . S
C146 C140 1.383 . S
C146 C145 1.379 . S
H147 C141 0.959 . S
H148 C141 0.961 . S
H149 C141 0.960 . S
H150 C142 0.930 . S
H151 C143 0.929 . S
H152 C160 0.929 . S
H153 C162 0.930 . S
H154 C164 0.930 . S
H155 C167 0.929 . S
H156 C170 0.930 . S
H157 C172 0.960 . S
H158 C172 0.960 . S
H159 C172 0.985 . S
C160 H152 0.929 . S
C160 C161 1.377 1_556 S
C160 C162 1.384 . S
C161 C160 1.377 1_554 S
C161 C167 1.390 . S
C162 H153 0.930 . S
C162 C160 1.384 . S
C162 C163 1.372 1_556 S
C163 C162 1.372 1_554 S
C163 C164 1.400 . S
C163 C168 1.490 . S
C164 H154 0.930 . S
C164 C163 1.400 . S
C164 C167 1.386 . S
H165 C181 0.930 . S
H166 C182 0.931 . S
C167 H155 0.929 . S
C167 C161 1.390 . S
C167 C164 1.386 . S
C168 C163 1.490 . S
C168 C170 1.395 . S
C168 C171 1.403 1_554 S
H169 C175 0.930 . S
C170 H156 0.930 . S
C170 C168 1.395 . S
C170 C173 1.403 . S
C171 C168 1.403 1_556 S
C171 C172 1.524 . S
C171 C175 1.400 . S
C172 H157 0.960 . S
C172 H158 0.960 . S
C172 H159 0.985 . S
C172 C171 1.524 . S
C173 C170 1.403 . S
C173 C174 1.392 . S
C173 C177 1.495 1_545 S
C174 C173 1.392 . S
C174 C175 1.385 1_554 S
C174 C176 1.478 . S
C175 H169 0.930 . S
C175 C171 1.400 . S
C175 C174 1.385 1_556 S
C176 C174 1.478 . S
C176 C178 1.381 1_544 S
C176 C182 1.383 . S
C177 C173 1.495 1_565 S
C177 H183 0.959 . S
C177 H184 0.961 . S
C177 H185 0.960 . S
C178 C176 1.381 1_566 S
C178 C179 1.394 . S
C178 H186 0.930 . S
C179 C178 1.394 . S
C179 C180 1.383 1_556 S
C179 H187 0.929 . S
C180 C179 1.383 1_554 S
C180 C181 1.377 1_565 S
C181 H165 0.930 . S
C181 C180 1.377 1_545 S
C181 C182 1.379 . S
C182 H166 0.931 . S
C182 C176 1.383 . S
C182 C181 1.379 . S
H183 C177 0.959 . S
H184 C177 0.961 . S
H185 C177 0.960 . S
H186 C178 0.930 . S
H187 C179 0.929 . S
H188 C196 0.929 . S
H189 C198 0.930 . S
H190 C200 0.930 . S
H191 C203 0.929 . S
H192 C206 0.930 . S
H193 C208 0.960 1_655 S
H194 C208 0.960 . S
H195 C208 0.960 . S
C196 H188 0.929 . S
C196 C197 1.377 . S
C196 C198 1.384 . S
C197 C196 1.377 . S
C197 C203 1.390 . S
C198 H189 0.930 . S
C198 C196 1.384 . S
C198 C199 1.372 . S
C199 C198 1.372 . S
C199 C200 1.400 . S
C199 C204 1.490 . S
C200 H190 0.930 . S
C200 C199 1.400 . S
C200 C203 1.386 . S
H201 C217 0.930 . S
H202 C218 0.925 1_655 S
C203 H191 0.929 . S
C203 C197 1.390 . S
C203 C200 1.386 . S
C204 C199 1.490 . S
C204 C206 1.395 . S
C204 C207 1.403 . S
H205 C211 0.930 . S
C206 H192 0.930 . S
C206 C204 1.395 . S
C206 C209 1.403 . S
C207 C204 1.403 . S
C207 C208 1.524 . S
C207 C211 1.400 . S
C208 H193 0.960 1_455 S
C208 H194 0.960 . S
C208 H195 0.960 . S
C208 C207 1.524 . S
C209 C206 1.403 . S
C209 C210 1.392 . S
C209 C213 1.495 . S
C210 C209 1.392 . S
C210 C211 1.385 . S
C210 C212 1.478 . S
C211 H205 0.930 . S
C211 C207 1.400 . S
C211 C210 1.385 . S
C212 C210 1.478 . S
C212 C214 1.381 . S
C212 C218 1.383 . S
C213 C209 1.495 . S
C213 H219 0.959 . S
C213 H220 0.961 . S
C213 H221 0.960 . S
C214 C212 1.381 . S
C214 C215 1.394 . S
C214 H222 0.930 . S
C215 C214 1.394 . S
C215 C216 1.383 . S
C215 H223 0.929 . S
C216 C215 1.383 . S
C216 C217 1.377 1_455 S
C217 H201 0.930 . S
C217 C216 1.377 1_655 S
C217 C218 1.379 1_655 S
C218 H202 0.925 1_455 S
C218 C212 1.383 . S
C218 C217 1.379 1_455 S
H219 C213 0.959 . S
H220 C213 0.961 . S
H221 C213 0.960 . S
H222 C214 0.930 . S
H223 C215 0.929 . S
H224 C232 0.929 . S
H225 C234 0.930 . S
H226 C236 0.930 . S
H227 C239 0.929 . S
H228 C242 0.930 . S
H229 C244 0.960 . S
H230 C244 0.960 . S
H231 C244 0.960 . S
C232 H224 0.929 . S
C232 C233 1.377 . S
C232 C234 1.384 . S
C233 C232 1.377 . S
C233 C239 1.390 . S
C234 H225 0.930 . S
C234 C232 1.384 . S
C234 C235 1.372 . S
C235 C234 1.372 . S
C235 C236 1.400 . S
C235 C240 1.490 . S
C236 H226 0.930 . S
C236 C235 1.400 . S
C236 C239 1.386 . S
H237 C253 0.930 . S
H238 C254 0.931 . S
C239 H227 0.929 . S
C239 C233 1.390 . S
C239 C236 1.386 . S
C240 C235 1.490 . S
C240 C242 1.395 . S
C240 C243 1.403 . S
H241 C247 0.930 . S
C242 H228 0.930 . S
C242 C240 1.395 . S
C242 C245 1.403 . S
C243 C240 1.403 . S
C243 C244 1.524 . S
C243 C247 1.400 . S
C244 H229 0.960 . S
C244 H230 0.960 . S
C244 H231 0.960 . S
C244 C243 1.524 . S
C245 C242 1.403 . S
C245 C246 1.392 . S
C245 C249 1.495 . S
C246 C245 1.392 . S
C246 C247 1.385 . S
C246 C248 1.478 . S
C247 H241 0.930 . S
C247 C243 1.400 . S
C247 C246 1.385 . S
C248 C246 1.478 . S
C248 C250 1.381 . S
C248 C254 1.383 . S
C249 C245 1.495 . S
C249 H255 0.959 . S
C249 H256 0.961 . S
C249 H257 0.960 . S
C250 C248 1.381 . S
C250 C251 1.394 . S
C250 H258 0.930 . S
C251 C250 1.394 . S
C251 C252 1.383 . S
C251 H259 0.929 . S
C252 C251 1.383 . S
C252 C253 1.377 . S
C253 H237 0.930 . S
C253 C252 1.377 . S
C253 C254 1.379 . S
C254 H238 0.931 . S
C254 C248 1.383 . S
C254 C253 1.379 . S
H255 C249 0.959 . S
H256 C249 0.961 . S
H257 C249 0.960 . S
H258 C250 0.930 . S
H259 C251 0.929 . S
H260 C268 0.929 . S
H261 C270 0.930 . S
H262 C272 0.930 . S
H263 C275 0.929 . S
H264 C278 0.930 . S
H265 C280 0.960 . S
H266 C280 0.960 . S
H267 C280 0.960 . S
C268 H260 0.929 . S
C268 C269 1.377 . S
C268 C270 1.384 1_455 S
C269 C268 1.377 . S
C269 C275 1.390 . S
C270 H261 0.930 . S
C270 C268 1.384 1_655 S
C270 C271 1.372 1_655 S
C271 C270 1.372 1_455 S
C271 C272 1.401 . S
C271 C276 1.489 1_455 S
C272 H262 0.930 . S
C272 C271 1.401 . S
C272 C275 1.386 . S
H273 C289 0.930 . S
H274 C290 0.931 . S
C275 H263 0.929 . S
C275 C269 1.390 . S
C275 C272 1.386 . S
C276 C271 1.489 1_655 S
C276 C278 1.395 . S
C276 C279 1.398 1_655 S
H277 C283 0.930 . S
C278 H264 0.930 . S
C278 C276 1.395 . S
C278 C281 1.403 . S
C279 C276 1.398 1_455 S
C279 C280 1.534 . S
C279 C283 1.394 1_455 S
C280 H265 0.960 . S
C280 H266 0.960 . S
C280 H267 0.960 . S
C280 C279 1.534 . S
C281 C278 1.403 . S
C281 C282 1.392 . S
C281 C285 1.495 . S
C282 C281 1.392 . S
C282 C283 1.385 . S
C282 C284 1.478 . S
C283 H277 0.930 . S
C283 C279 1.394 1_655 S
C283 C282 1.385 . S
C284 C282 1.478 . S
C284 C286 1.381 . S
C284 C290 1.383 . S
C285 C281 1.495 . S
C285 H291 0.959 . S
C285 H292 0.961 . S
C285 H293 0.960 . S
C286 C284 1.381 . S
C286 C287 1.394 . S
C286 H294 0.930 . S
C287 C286 1.394 . S
C287 C288 1.383 . S
C287 H295 0.929 . S
C288 C287 1.383 . S
C288 C289 1.377 . S
C289 H273 0.930 . S
C289 C288 1.377 . S
C289 C290 1.379 . S
C290 H274 0.931 . S
C290 C284 1.383 . S
C290 C289 1.379 . S
H291 C285 0.959 . S
H292 C285 0.961 . S
H293 C285 0.960 . S
H294 C286 0.930 . S
H295 C287 0.929 . S
H296 C304 0.929 . S
H297 C306 0.930 . S
H298 C308 0.930 . S
H299 C311 0.929 . S
H300 C314 0.930 . S
H301 C316 0.960 . S
H302 C316 0.960 . S
H303 C316 0.960 . S
C304 H296 0.929 . S
C304 C305 1.377 . S
C304 C306 1.384 . S
C305 C304 1.377 . S
C305 C311 1.390 . S
C306 H297 0.930 . S
C306 C304 1.384 . S
C306 C307 1.372 . S
C307 C306 1.372 . S
C307 C308 1.400 . S
C307 C312 1.490 . S
C308 H298 0.930 . S
C308 C307 1.400 . S
C308 C311 1.386 . S
H309 C325 0.930 . S
H310 C326 0.931 . S
C311 H299 0.929 . S
C311 C305 1.390 . S
C311 C308 1.386 . S
C312 C307 1.490 . S
C312 C314 1.395 . S
C312 C315 1.403 . S
H313 C319 0.930 . S
C314 H300 0.930 . S
C314 C312 1.395 . S
C314 C317 1.403 . S
C315 C312 1.403 . S
C315 C316 1.524 . S
C315 C319 1.400 . S
C316 H301 0.960 . S
C316 H302 0.960 . S
C316 H303 0.960 . S
C316 C315 1.524 . S
C317 C314 1.403 . S
C317 C318 1.392 . S
C317 C321 1.495 . S
C318 C317 1.392 . S
C318 C319 1.385 . S
C318 C320 1.478 . S
C319 H313 0.930 . S
C319 C315 1.400 . S
C319 C318 1.385 . S
C320 C318 1.478 . S
C320 C322 1.381 . S
C320 C326 1.383 1_565 S
C321 C317 1.495 . S
C321 H327 0.959 . S
C321 H328 0.961 . S
C321 H329 0.960 . S
C322 C320 1.381 . S
C322 C323 1.394 . S
C322 H330 0.930 . S
C323 C322 1.394 . S
C323 C324 1.383 1_565 S
C323 H331 0.929 . S
C324 C323 1.383 1_545 S
C324 C325 1.377 . S
C325 H309 0.930 . S
C325 C324 1.377 . S
C325 C326 1.379 . S
C326 H310 0.931 . S
C326 C320 1.383 1_545 S
C326 C325 1.379 . S
H327 C321 0.959 . S
H328 C321 0.961 . S
H329 C321 0.960 . S
H330 C322 0.930 . S
H331 C323 0.929 . S
H332 C340 0.929 . S
H333 C342 0.930 . S
H334 C344 0.930 . S
H335 C347 0.929 . S
H336 C350 0.930 . S
H337 C352 0.960 . S
H338 C352 0.960 . S
H339 C352 0.960 . S
C340 H332 0.929 . S
C340 C341 1.377 . S
C340 C342 1.384 . S
C341 C340 1.377 . S
C341 C347 1.390 . S
C342 H333 0.930 . S
C342 C340 1.384 . S
C342 C343 1.372 . S
C343 C342 1.372 . S
C343 C344 1.400 . S
C343 C348 1.490 . S
C344 H334 0.930 . S
C344 C343 1.400 . S
C344 C347 1.386 . S
H345 C361 0.930 . S
H346 C362 0.931 . S
C347 H335 0.929 . S
C347 C341 1.390 . S
C347 C344 1.386 . S
C348 C343 1.490 . S
C348 C350 1.395 . S
C348 C351 1.403 . S
H349 C355 0.930 . S
C350 H336 0.930 . S
C350 C348 1.395 . S
C350 C353 1.403 . S
C351 C348 1.403 . S
C351 C352 1.524 . S
C351 C355 1.400 . S
C352 H337 0.960 . S
C352 H338 0.960 . S
C352 H339 0.960 . S
C352 C351 1.524 . S
C353 C350 1.403 . S
C353 C354 1.392 . S
C353 C357 1.495 . S
C354 C353 1.392 . S
C354 C355 1.385 . S
C354 C356 1.478 . S
C355 H349 0.930 . S
C355 C351 1.400 . S
C355 C354 1.385 . S
C356 C354 1.478 . S
C356 C358 1.381 . S
C356 C362 1.383 . S
C357 C353 1.495 . S
C357 H363 0.959 . S
C357 H364 0.961 . S
C357 H365 0.960 . S
C358 C356 1.381 . S
C358 C359 1.394 . S
C358 H366 0.930 . S
C359 C358 1.394 . S
C359 C360 1.383 . S
C359 H367 0.929 . S
C360 C359 1.383 . S
C360 C361 1.377 . S
C361 H345 0.930 . S
C361 C360 1.377 . S
C361 C362 1.379 . S
C362 H346 0.931 . S
C362 C356 1.383 . S
C362 C361 1.379 . S
H363 C357 0.959 . S
H364 C357 0.961 . S
H365 C357 0.960 . S
H366 C358 0.930 . S
H367 C359 0.929 . S
H368 C376 0.929 . S
H369 C378 0.930 . S
H370 C380 0.930 . S
H371 C383 0.929 1_565 S
H372 C386 0.930 . S
H373 C388 0.960 . S
H374 C388 0.961 1_545 S
H375 C388 0.960 . S
C376 H368 0.929 . S
C376 C377 1.377 . S
C376 C378 1.384 . S
C377 C376 1.377 . S
C377 C383 1.390 . S
C378 H369 0.930 . S
C378 C376 1.384 . S
C378 C379 1.372 . S
C379 C378 1.372 . S
C379 C380 1.400 1_545 S
C379 C384 1.490 1_545 S
C380 H370 0.930 . S
C380 C379 1.400 1_565 S
C380 C383 1.386 1_565 S
H381 C397 0.930 . S
H382 C398 0.931 . S
C383 H371 0.929 1_545 S
C383 C377 1.390 . S
C383 C380 1.386 1_545 S
C384 C379 1.490 1_565 S
C384 C386 1.395 . S
C384 C387 1.403 . S
H385 C391 0.930 . S
C386 H372 0.930 . S
C386 C384 1.395 . S
C386 C389 1.403 . S
C387 C384 1.403 . S
C387 C388 1.523 . S
C387 C391 1.400 . S
C388 H373 0.960 . S
C388 H374 0.961 1_565 S
C388 H375 0.960 . S
C388 C387 1.523 . S
C389 C386 1.403 . S
C389 C390 1.392 . S
C389 C393 1.495 . S
C390 C389 1.392 . S
C390 C391 1.385 . S
C390 C392 1.478 . S
C391 H385 0.930 . S
C391 C387 1.400 . S
C391 C390 1.385 . S
C392 C390 1.478 . S
C392 C394 1.381 . S
C392 C398 1.383 . S
C393 C389 1.495 . S
C393 H399 0.959 . S
C393 H400 0.961 . S
C393 H401 0.960 . S
C394 C392 1.381 . S
C394 C395 1.394 . S
C394 H402 0.930 . S
C395 C394 1.394 . S
C395 C396 1.383 . S
C395 H403 0.929 . S
C396 C395 1.383 . S
C396 C397 1.377 . S
C397 H381 0.930 . S
C397 C396 1.377 . S
C397 C398 1.379 . S
C398 H382 0.931 . S
C398 C392 1.383 . S
C398 C397 1.379 . S
H399 C393 0.959 . S
H400 C393 0.961 . S
H401 C393 0.960 . S
H402 C394 0.930 . S
H403 C395 0.929 . S
H404 C412 0.929 . S
H405 C414 0.930 . S
H406 C416 0.930 . S
H407 C419 0.929 . S
H408 C422 0.930 . S
H409 C424 0.960 . S
H410 C424 0.960 . S
H411 C424 0.960 . S
C412 H404 0.929 . S
C412 C413 1.377 . S
C412 C414 1.384 . S
C413 C412 1.377 . S
C413 C419 1.390 . S
C414 H405 0.930 . S
C414 C412 1.384 . S
C414 C415 1.372 . S
C415 C414 1.372 . S
C415 C416 1.400 . S
C415 C420 1.490 . S
C416 H406 0.930 . S
C416 C415 1.400 . S
C416 C419 1.386 . S
H417 C433 0.930 . S
H418 C434 0.931 . S
C419 H407 0.929 . S
C419 C413 1.390 . S
C419 C416 1.386 . S
C420 C415 1.490 . S
C420 C422 1.395 . S
C420 C423 1.403 . S
H421 C427 0.930 . S
C422 H408 0.930 . S
C422 C420 1.395 . S
C422 C425 1.403 . S
C423 C420 1.403 . S
C423 C424 1.524 . S
C423 C427 1.400 . S
C424 H409 0.960 . S
C424 H410 0.960 . S
C424 H411 0.960 . S
C424 C423 1.524 . S
C425 C422 1.403 . S
C425 C426 1.392 . S
C425 C429 1.495 . S
C426 C425 1.392 . S
C426 C427 1.385 . S
C426 C428 1.478 . S
C427 H421 0.930 . S
C427 C423 1.400 . S
C427 C426 1.385 . S
C428 C426 1.478 . S
C428 C430 1.381 . S
C428 C434 1.383 . S
C429 C425 1.495 . S
C429 H435 0.959 . S
C429 H436 0.961 . S
C429 H437 0.960 . S
C430 C428 1.381 . S
C430 C431 1.394 . S
C430 H438 0.930 . S
C431 C430 1.394 . S
C431 C432 1.383 . S
C431 H439 0.929 . S
C432 C431 1.383 . S
C432 C433 1.377 . S
C433 H417 0.930 . S
C433 C432 1.377 . S
C433 C434 1.379 . S
C434 H418 0.931 . S
C434 C428 1.383 . S
C434 C433 1.379 . S
H435 C429 0.959 . S
H436 C429 0.961 . S
H437 C429 0.960 . S
H438 C430 0.930 . S
H439 C431 0.929 . S
H440 C448 0.929 . S
H441 C450 0.930 . S
H442 C452 0.930 . S
H443 C455 0.929 . S
H444 C458 0.930 . S
H445 C460 0.960 . S
H446 C460 0.960 . S
H447 C460 0.960 . S
C448 H440 0.929 . S
C448 C449 1.377 . S
C448 C450 1.384 . S
C449 C448 1.377 . S
C449 C455 1.390 . S
C450 H441 0.930 . S
C450 C448 1.384 . S
C450 C451 1.372 . S
C451 C450 1.372 . S
C451 C452 1.400 . S
C451 C456 1.490 . S
C452 H442 0.930 . S
C452 C451 1.400 . S
C452 C455 1.386 . S
H453 C469 0.930 . S
H454 C470 0.931 . S
C455 H443 0.929 . S
C455 C449 1.390 . S
C455 C452 1.386 . S
C456 C451 1.490 . S
C456 C458 1.395 . S
C456 C459 1.403 . S
H457 C463 0.930 . S
C458 H444 0.930 . S
C458 C456 1.395 . S
C458 C461 1.403 . S
C459 C456 1.403 . S
C459 C460 1.524 . S
C459 C463 1.400 . S
C460 H445 0.960 . S
C460 H446 0.960 . S
C460 H447 0.960 . S
C460 C459 1.524 . S
C461 C458 1.403 . S
C461 C462 1.392 . S
C461 C465 1.495 . S
C462 C461 1.392 . S
C462 C463 1.385 . S
C462 C464 1.478 . S
C463 H457 0.930 . S
C463 C459 1.400 . S
C463 C462 1.385 . S
C464 C462 1.478 . S
C464 C466 1.381 . S
C464 C470 1.383 . S
C465 C461 1.495 . S
C465 H471 0.959 . S
C465 H472 0.961 . S
C465 H473 0.960 . S
C466 C464 1.381 . S
C466 C467 1.394 . S
C466 H474 0.930 . S
C467 C466 1.394 . S
C467 C468 1.383 . S
C467 H475 0.929 . S
C468 C467 1.383 . S
C468 C469 1.377 . S
C469 H453 0.930 . S
C469 C468 1.377 . S
C469 C470 1.379 . S
C470 H454 0.931 . S
C470 C464 1.383 . S
C470 C469 1.379 . S
H471 C465 0.959 . S
H472 C465 0.961 . S
H473 C465 0.960 . S
H474 C466 0.930 . S
H475 C467 0.929 . S
H476 C484 0.929 . S
H477 C486 0.930 . S
H478 C488 0.930 . S
H479 C491 0.929 . S
H480 C494 0.930 . S
H481 C496 0.960 . S
H482 C496 0.960 . S
H483 C496 0.960 . S
C484 H476 0.929 . S
C484 C485 1.377 . S
C484 C486 1.384 . S
C485 C484 1.377 . S
C485 C491 1.390 . S
C486 H477 0.930 . S
C486 C484 1.384 . S
C486 C487 1.372 . S
C487 C486 1.372 . S
C487 C488 1.400 . S
C487 C492 1.490 . S
C488 H478 0.930 . S
C488 C487 1.400 . S
C488 C491 1.386 . S
H489 C505 0.921 1_655 S
H490 C506 0.931 . S
C491 H479 0.929 . S
C491 C485 1.390 . S
C491 C488 1.386 . S
C492 C487 1.490 . S
C492 C494 1.395 . S
C492 C495 1.403 . S
H493 C499 0.930 . S
C494 H480 0.930 . S
C494 C492 1.395 . S
C494 C497 1.403 . S
C495 C492 1.403 . S
C495 C496 1.524 . S
C495 C499 1.400 . S
C496 H481 0.960 . S
C496 H482 0.960 . S
C496 H483 0.960 . S
C496 C495 1.524 . S
C497 C494 1.403 . S
C497 C498 1.392 . S
C497 C501 1.495 . S
C498 C497 1.392 . S
C498 C499 1.385 . S
C498 C500 1.488 . S
C499 H493 0.930 . S
C499 C495 1.400 . S
C499 C498 1.385 . S
C500 C498 1.488 . S
C500 C502 1.359 1_655 S
C500 C506 1.393 . S
C501 C497 1.495 . S
C501 H507 0.959 . S
C501 H508 0.961 . S
C501 H509 0.960 . S
C502 C500 1.359 1_455 S
C502 C503 1.394 . S
C502 H510 0.930 . S
C503 C502 1.394 . S
C503 C504 1.383 . S
C503 H511 0.929 . S
C504 C503 1.383 . S
C504 C505 1.394 . S
C505 H489 0.921 1_455 S
C505 C504 1.394 . S
C505 C506 1.371 1_455 S
C506 H490 0.931 . S
C506 C500 1.393 . S
C506 C505 1.371 1_655 S
H507 C501 0.959 . S
H508 C501 0.961 . S
H509 C501 0.960 . S
H510 C502 0.930 . S
H511 C503 0.929 . S
C89 C59 0.559 1_556 S
C108 C19 0.568 1_556 S
C125 C79 0.562 . S
C144 C39 0.575 . S
C161 C58 1.052 1_554 S
C180 C18 1.099 1_564 S
C197 C38 1.059 . S
C216 C78 1.007 . S
C233 C32 1.117 . S
C252 C9 1.205 . S
C269 C29 1.175 . S
C288 C52 1.149 . S
C305 C72 1.123 . S
C324 C49 1.196 . S
C341 C69 1.171 . S
C360 C12 1.169 . S
C377 C44 1.588 . S
C396 C62 1.450 . S
C413 C2 1.486 . S
C432 C64 1.611 . S
C449 C22 1.497 . S
C468 C4 1.598 . S
C485 C42 1.484 . S
C504 C24 1.604 . S
