# Generated by pormake.
# Topology acs-a, (4)-cn, num edge types: 1
# Building blocks:
#     Node 0, Type 0, BuildingBlock: NAHDIM_clean_sbu_0, # of connection points: 4
#     Node 1, Type 0, BuildingBlock: NAHDIM_clean_sbu_0, # of connection points: 4
#     Node 2, Type 0, BuildingBlock: NAHDIM_clean_sbu_0, # of connection points: 4
#     Node 3, Type 0, BuildingBlock: NAHDIM_clean_sbu_0, # of connection points: 4
#     Node 4, Type 0, BuildingBlock: NAHDIM_clean_sbu_0, # of connection points: 4
#     Node 5, Type 0, BuildingBlock: NAHDIM_clean_sbu_0, # of connection points: 4
#     Node 6, Type 0, BuildingBlock: NAHDIM_clean_sbu_0, # of connection points: 4
#     Node 7, Type 0, BuildingBlock: NAHDIM_clean_sbu_0, # of connection points: 4
#     Node 8, Type 0, BuildingBlock: NAHDIM_clean_sbu_0, # of connection points: 4
#     Node 9, Type 0, BuildingBlock: NAHDIM_clean_sbu_0, # of connection points: 4
#     Node 10, Type 0, BuildingBlock: NAHDIM_clean_sbu_0, # of connection points: 4
#     Node 11, Type 0, BuildingBlock: NAHDIM_clean_sbu_0, # of connection points: 4
#     Edge 12, Type (0, 0), BuildingBlock: XUDNAN_clean_linker_2, # of connection points: 2
#     Edge 13, Type (0, 0), BuildingBlock: XUDNAN_clean_linker_2, # of connection points: 2
#     Edge 14, Type (0, 0), BuildingBlock: XUDNAN_clean_linker_2, # of connection points: 2
#     Edge 15, Type (0, 0), BuildingBlock: XUDNAN_clean_linker_2, # of connection points: 2
#     Edge 16, Type (0, 0), BuildingBlock: XUDNAN_clean_linker_2, # of connection points: 2
#     Edge 17, Type (0, 0), BuildingBlock: XUDNAN_clean_linker_2, # of connection points: 2
#     Edge 18, Type (0, 0), BuildingBlock: XUDNAN_clean_linker_2, # of connection points: 2
#     Edge 19, Type (0, 0), BuildingBlock: XUDNAN_clean_linker_2, # of connection points: 2
#     Edge 20, Type (0, 0), BuildingBlock: XUDNAN_clean_linker_2, # of connection points: 2
#     Edge 21, Type (0, 0), BuildingBlock: XUDNAN_clean_linker_2, # of connection points: 2
#     Edge 22, Type (0, 0), BuildingBlock: XUDNAN_clean_linker_2, # of connection points: 2
#     Edge 23, Type (0, 0), BuildingBlock: XUDNAN_clean_linker_2, # of connection points: 2
#     Edge 24, Type (0, 0), BuildingBlock: XUDNAN_clean_linker_2, # of connection points: 2
#     Edge 25, Type (0, 0), BuildingBlock: XUDNAN_clean_linker_2, # of connection points: 2
#     Edge 26, Type (0, 0), BuildingBlock: XUDNAN_clean_linker_2, # of connection points: 2
#     Edge 27, Type (0, 0), BuildingBlock: XUDNAN_clean_linker_2, # of connection points: 2
#     Edge 28, Type (0, 0), BuildingBlock: XUDNAN_clean_linker_2, # of connection points: 2
#     Edge 29, Type (0, 0), BuildingBlock: XUDNAN_clean_linker_2, # of connection points: 2
#     Edge 30, Type (0, 0), BuildingBlock: XUDNAN_clean_linker_2, # of connection points: 2
#     Edge 31, Type (0, 0), BuildingBlock: XUDNAN_clean_linker_2, # of connection points: 2
#     Edge 32, Type (0, 0), BuildingBlock: XUDNAN_clean_linker_2, # of connection points: 2
#     Edge 33, Type (0, 0), BuildingBlock: XUDNAN_clean_linker_2, # of connection points: 2
#     Edge 34, Type (0, 0), BuildingBlock: XUDNAN_clean_linker_2, # of connection points: 2
#     Edge 35, Type (0, 0), BuildingBlock: XUDNAN_clean_linker_2, # of connection points: 2
# Relax obj value: 0.412
# Max RMSD: 0.207
# Mean RMSD: 0.202
data_MOF--net-acs-a--node1-NAHDIM_clean_sbu_0--edge1-XUDNAN_clean_linker_2
_symmetry_space_group_name_H-M    P1
_symmetry_Int_Tables_number       1
_symmetry_cell_setting            triclinic
loop_
_symmetry_equiv_pos_as_xyz
'x, y, z'
_cell_length_a     47.723204
_cell_length_b     47.769419
_cell_length_c     42.896171
_cell_angle_alpha  90.002464
_cell_angle_beta   89.97335
_cell_angle_gamma 114.7425
loop_
_atom_site_label
_atom_site_type_symbol
_atom_site_fract_x
_atom_site_fract_y
_atom_site_fract_z
_atom_type_partial_charge
C0 C 0.64372 0.13256 0.98813 0.0
O1 O 0.64136 0.15803 0.98016 0.0
O2 O 0.65557 0.19809 0.03063 0.0
Zn3 Zn 0.6713 0.1668 0.0438 0.0
O4 O 0.65414 0.14977 0.08592 0.0
C5 C 0.7319 0.19994 0.02015 0.0
O6 O 0.71635 0.19596 0.99401 0.0
O7 O 0.65683 0.13162 0.01362 0.0
C8 C 0.65884 0.16639 0.11016 0.0
O9 O 0.67647 0.19607 0.10823 0.0
C10 C 0.63049 0.19817 0.04047 0.0
O11 O 0.61357 0.17711 0.06054 0.0
O12 O 0.71739 0.18804 0.04506 0.0
C13 C 0.46284 0.56399 0.54242 0.0
O14 O 0.47855 0.57345 0.56838 0.0
O15 O 0.37749 0.57326 0.56874 0.0
Zn16 Zn 0.42348 0.58883 0.571 0.0
O17 O 0.43362 0.57978 0.61413 0.0
C18 C 0.42489 0.64285 0.5445 0.0
O19 O 0.40487 0.6218 0.52634 0.0
O20 O 0.43876 0.5686 0.53819 0.0
C21 C 0.45817 0.59684 0.62839 0.0
O22 O 0.4788 0.62104 0.61412 0.0
C23 C 0.3579 0.54861 0.58089 0.0
O24 O 0.36742 0.52971 0.5949 0.0
O25 O 0.43918 0.63453 0.56487 0.0
C26 C 0.96044 0.48441 0.12561 0.0
O27 O 0.95963 0.47078 0.1524 0.0
O28 O 0.89211 0.40272 0.0879 0.0
Zn29 Zn 0.89845 0.43683 0.11837 0.0
O30 O 0.90002 0.4219 0.16183 0.0
C31 C 0.85879 0.46545 0.09594 0.0
O32 O 0.88185 0.48107 0.0772 0.0
O33 O 0.93703 0.47393 0.10782 0.0
C34 C 0.87581 0.40079 0.17321 0.0
O35 O 0.85046 0.38978 0.15641 0.0
C36 C 0.89671 0.37914 0.09494 0.0
O37 O 0.90792 0.37749 0.12249 0.0
O38 O 0.86149 0.44652 0.1152 0.0
C39 C 0.34686 0.85575 0.49613 0.0
O40 O 0.33942 0.82603 0.49436 0.0
O41 O 0.34103 0.80779 0.5567 0.0
Zn42 Zn 0.32166 0.83786 0.55663 0.0
O43 O 0.33244 0.86023 0.59755 0.0
C44 C 0.26085 0.80672 0.52753 0.0
O45 O 0.27555 0.81692 0.50115 0.0
O46 O 0.34029 0.86662 0.52074 0.0
C47 C 0.32264 0.84365 0.62176 0.0
O48 O 0.30484 0.81415 0.61836 0.0
C49 C 0.36897 0.81665 0.56512 0.0
O50 O 0.38442 0.8452 0.57456 0.0
O51 O 0.27567 0.81393 0.55306 0.0
C52 C 0.54947 0.45664 0.0839 0.0
O53 O 0.55952 0.45972 0.11275 0.0
O54 O 0.62606 0.4419 0.0783 0.0
Zn55 Zn 0.5802 0.41714 0.08239 0.0
O56 O 0.57124 0.40927 0.12812 0.0
C57 C 0.58335 0.37635 0.03506 0.0
O58 O 0.59949 0.40253 0.02077 0.0
O59 O 0.55599 0.43948 0.06532 0.0
C60 C 0.55716 0.38266 0.14003 0.0
O61 O 0.54675 0.35832 0.12183 0.0
C62 C 0.64135 0.42921 0.09199 0.0
O63 O 0.62625 0.40314 0.10689 0.0
O64 O 0.57058 0.37684 0.0609 0.0
C65 C 0.05306 0.49434 0.60056 0.0
O66 O 0.06962 0.49089 0.62347 0.0
O67 O 0.10543 0.59403 0.57773 0.0
Zn68 Zn 0.09734 0.55688 0.60469 0.0
O69 O 0.0911 0.56585 0.64928 0.0
C70 C 0.15992 0.56448 0.59235 0.0
O71 O 0.16378 0.59208 0.58311 0.0
O72 O 0.06032 0.52099 0.5891 0.0
C73 C 0.11236 0.58834 0.66292 0.0
O74 O 0.13771 0.60495 0.64748 0.0
C75 C 0.09885 0.61611 0.58602 0.0
O76 O 0.08462 0.61448 0.61262 0.0
O77 O 0.13368 0.54583 0.60247 0.0
C78 C 0.88289 0.34661 0.477 0.0
O79 O 0.87663 0.36208 0.45482 0.0
O80 O 0.8039 0.32304 0.45607 0.0
Zn81 Zn 0.83261 0.30253 0.44751 0.0
O82 O 0.85121 0.31477 0.4049 0.0
C83 C 0.78495 0.24565 0.46718 0.0
O84 O 0.77992 0.26422 0.48673 0.0
O85 O 0.86643 0.31783 0.47926 0.0
C86 C 0.83458 0.30645 0.38058 0.0
O87 O 0.80503 0.2885 0.38346 0.0
C88 C 0.8027 0.34471 0.4397 0.0
O89 O 0.82113 0.35519 0.41559 0.0
O90 O 0.80797 0.25667 0.44891 0.0
C91 C 0.47768 0.95373 0.89843 0.0
O92 O 0.46068 0.96097 0.87875 0.0
O93 O 0.394 0.88331 0.9207 0.0
Zn94 Zn 0.4304 0.89098 0.8932 0.0
O95 O 0.42003 0.89705 0.84913 0.0
C96 C 0.44468 0.84575 0.92261 0.0
O97 O 0.44528 0.8629 0.94677 0.0
O98 O 0.4685 0.92612 0.90779 0.0
C99 C 0.39674 0.87553 0.83686 0.0
O100 O 0.38108 0.8506 0.85327 0.0
C101 C 0.37366 0.89331 0.91518 0.0
O102 O 0.37793 0.91267 0.89202 0.0
O103 O 0.43866 0.85326 0.89585 0.0
C104 C 0.53029 0.42313 0.43329 0.0
O105 O 0.51863 0.40596 0.40859 0.0
O106 O 0.53894 0.34539 0.45113 0.0
Zn107 Zn 0.56599 0.38757 0.435 0.0
O108 O 0.56365 0.3825 0.38842 0.0
C109 C 0.63229 0.40531 0.43237 0.0
O110 O 0.62952 0.41246 0.40333 0.0
O111 O 0.55118 0.4194 0.44882 0.0
C112 C 0.5706 0.40324 0.36764 0.0
O113 O 0.58172 0.43238 0.37591 0.0
C114 C 0.51384 0.32905 0.43729 0.0
O115 O 0.50342 0.34194 0.41592 0.0
O116 O 0.60887 0.39633 0.45019 0.0
C117 C 0.131 0.63275 0.00514 0.0
O118 O 0.16072 0.64095 0.00871 0.0
O119 O 0.18115 0.6365 0.9437 0.0
Zn120 Zn 0.15039 0.65534 0.94352 0.0
O121 O 0.12769 0.64344 0.9027 0.0
C122 C 0.19565 0.71364 0.96491 0.0
O123 O 0.2044 0.69562 0.98154 0.0
O124 O 0.12099 0.63727 0.97903 0.0
C125 C 0.13806 0.66003 0.87858 0.0
O126 O 0.16247 0.68637 0.88109 0.0
C127 C 0.20425 0.64621 0.92545 0.0
O128 O 0.20867 0.66964 0.90701 0.0
O129 O 0.17233 0.70154 0.94719 0.0
C130 C 0.49649 0.02369 0.37253 0.0
O131 O 0.50989 0.02454 0.34557 0.0
O132 O 0.57416 0.1014 0.39977 0.0
Zn133 Zn 0.53513 0.08972 0.37527 0.0
O134 O 0.54558 0.09074 0.3298 0.0
C135 C 0.52176 0.13369 0.41036 0.0
O136 O 0.53854 0.12777 0.4314 0.0
O137 O 0.50417 0.04823 0.38838 0.0
C138 C 0.56637 0.11542 0.31887 0.0
O139 O 0.57936 0.13933 0.33738 0.0
C140 C 0.5936 0.09035 0.39385 0.0
O141 O 0.58753 0.0696 0.37173 0.0
O142 O 0.5172 0.12018 0.3841 0.0
C143 C 0.43919 0.5601 0.97453 0.0
O144 O 0.42795 0.57936 0.98443 0.0
O145 O 0.44838 0.62627 0.92812 0.0
Zn146 Zn 0.42953 0.58162 0.91512 0.0
O147 O 0.44501 0.57826 0.8724 0.0
C148 C 0.37398 0.58452 0.89726 0.0
O149 O 0.39317 0.60321 0.87676 0.0
O150 O 0.44144 0.55673 0.94542 0.0
C151 C 0.42903 0.56013 0.85115 0.0
O152 O 0.40045 0.54074 0.85712 0.0
C153 C 0.45765 0.64742 0.90762 0.0
O154 O 0.45806 0.63997 0.87821 0.0
O155 O 0.38371 0.56968 0.91567 0.0
H156 H 0.60829 0.16561 0.28772 0.0
H157 H 0.54775 0.06862 0.27602 0.0
H158 H 0.56572 0.07093 0.2217 0.0
H159 H 0.59728 0.18962 0.21109 0.0
H160 H 0.63674 0.2175 0.20714 0.0
H161 H 0.61934 0.20809 0.2452 0.0
H162 H 0.66349 0.19388 0.26356 0.0
H163 H 0.68097 0.20315 0.22552 0.0
H164 H 0.6715 0.1656 0.24211 0.0
H165 H 0.59032 0.08371 0.16886 0.0
H166 H 0.61861 0.10639 0.12046 0.0
H167 H 0.66283 0.19523 0.16651 0.0
C168 C 0.59878 0.14484 0.27376 0.0
C169 C 0.57661 0.11691 0.28613 0.0
C170 C 0.56471 0.09028 0.26704 0.0
C171 C 0.57482 0.09134 0.23618 0.0
C172 C 0.59677 0.11921 0.22478 0.0
C173 C 0.60853 0.1455 0.24292 0.0
C174 C 0.63163 0.17262 0.2249 0.0
C175 C 0.62057 0.19848 0.22191 0.0
C176 C 0.6638 0.1845 0.23992 0.0
C177 C 0.63099 0.15746 0.19375 0.0
C178 C 0.61082 0.12663 0.19423 0.0
C179 C 0.60618 0.10783 0.16818 0.0
C180 C 0.6224 0.12095 0.14081 0.0
C181 C 0.64296 0.15261 0.13966 0.0
C182 C 0.64734 0.17097 0.16662 0.0
H183 H 0.41518 0.55562 0.66716 0.0
H184 H 0.50978 0.62497 0.66457 0.0
H185 H 0.51453 0.618 0.72108 0.0
H186 H 0.39536 0.57962 0.73622 0.0
H187 H 0.37075 0.54166 0.7503 0.0
H188 H 0.37627 0.54859 0.70909 0.0
H189 H 0.39469 0.50485 0.70419 0.0
H190 H 0.38914 0.49771 0.7455 0.0
H191 H 0.42613 0.5058 0.72811 0.0
H192 H 0.50716 0.60774 0.77832 0.0
H193 H 0.48801 0.59602 0.83226 0.0
H194 H 0.39793 0.5337 0.79752 0.0
C195 C 0.43716 0.56883 0.67829 0.0
C196 C 0.46219 0.59073 0.66145 0.0
C197 C 0.49034 0.608 0.67701 0.0
C198 C 0.4933 0.60409 0.70906 0.0
C199 C 0.46793 0.58277 0.7251 0.0
C200 C 0.44043 0.56536 0.71023 0.0
C201 C 0.41576 0.54618 0.73319 0.0
C202 C 0.38791 0.55453 0.73213 0.0
C203 C 0.40586 0.51158 0.7274 0.0
C204 C 0.43338 0.5563 0.76347 0.0
C205 C 0.46357 0.57703 0.75825 0.0
C206 C 0.48372 0.59118 0.78269 0.0
C207 C 0.47258 0.58442 0.81325 0.0
C208 C 0.44148 0.56385 0.81911 0.0
C209 C 0.42191 0.54917 0.79383 0.0
H210 H 0.82733 0.35749 0.20525 0.0
H211 H 0.92549 0.41576 0.2121 0.0
H212 H 0.92624 0.39512 0.26469 0.0
H213 H 0.80889 0.36656 0.28347 0.0
H214 H 0.78036 0.32743 0.28764 0.0
H215 H 0.78799 0.34545 0.24985 0.0
H216 H 0.79954 0.30076 0.22804 0.0
H217 H 0.79205 0.28264 0.26585 0.0
H218 H 0.82837 0.29138 0.24667 0.0
H219 H 0.91591 0.36998 0.31726 0.0
H220 H 0.89493 0.34318 0.36683 0.0
H221 H 0.80354 0.30125 0.32556 0.0
C222 C 0.84905 0.36578 0.21768 0.0
C223 C 0.87637 0.38822 0.20455 0.0
C224 C 0.90426 0.39858 0.2217 0.0
C225 C 0.90496 0.38692 0.25153 0.0
C226 C 0.87759 0.36488 0.26382 0.0
C227 C 0.85015 0.35443 0.24748 0.0
C228 C 0.82375 0.33158 0.26649 0.0
C229 C 0.79879 0.34348 0.2722 0.0
C230 C 0.81013 0.2997 0.25082 0.0
C231 C 0.84055 0.33119 0.29628 0.0
C232 C 0.87162 0.35037 0.29417 0.0
C233 C 0.89166 0.35471 0.31914 0.0
C234 C 0.87951 0.33938 0.34719 0.0
C235 C 0.84761 0.32004 0.35005 0.0
C236 C 0.82806 0.31562 0.32404 0.0
H237 H 0.35137 0.83148 0.80249 0.0
H238 H 0.42142 0.92563 0.79805 0.0
H239 H 0.40692 0.92931 0.74341 0.0
H240 H 0.3638 0.80979 0.72742 0.0
H241 H 0.32372 0.78572 0.71976 0.0
H242 H 0.3378 0.79155 0.7592 0.0
H243 H 0.29648 0.81105 0.77447 0.0
H244 H 0.28228 0.80532 0.735 0.0
H245 H 0.29421 0.84257 0.75317 0.0
H246 H 0.38684 0.92154 0.68829 0.0
H247 H 0.36401 0.90236 0.63662 0.0
H248 H 0.30744 0.8133 0.67756 0.0
C249 C 0.36345 0.85302 0.79019 0.0
C250 C 0.38749 0.87829 0.80454 0.0
C251 C 0.40291 0.90596 0.78751 0.0
C252 C 0.39476 0.90832 0.75652 0.0
C253 C 0.37111 0.88285 0.74299 0.0
C254 C 0.35568 0.85574 0.7593 0.0
C255 C 0.33236 0.83115 0.73894 0.0
C256 C 0.33989 0.8029 0.73617 0.0
C257 C 0.29938 0.82199 0.75112 0.0
C258 C 0.33753 0.84843 0.7084 0.0
C259 C 0.3597 0.87833 0.71127 0.0
C260 C 0.36925 0.89827 0.68582 0.0
C261 C 0.35614 0.88716 0.65658 0.0
C262 C 0.3339 0.85635 0.65305 0.0
C263 C 0.32422 0.83702 0.67948 0.0
H264 H 0.5856 0.44094 0.31615 0.0
H265 H 0.54334 0.34475 0.34425 0.0
H266 H 0.53385 0.32907 0.28917 0.0
H267 H 0.53425 0.43395 0.25189 0.0
H268 H 0.56421 0.46076 0.22746 0.0
H269 H 0.56726 0.4646 0.26924 0.0
H270 H 0.62055 0.46228 0.26731 0.0
H271 H 0.6177 0.45854 0.22554 0.0
H272 H 0.62396 0.43009 0.24853 0.0
H273 H 0.52938 0.32366 0.23108 0.0
H274 H 0.53157 0.32908 0.17375 0.0
H275 H 0.57683 0.42866 0.18369 0.0
C276 C 0.57429 0.41659 0.31073 0.0
C277 C 0.56522 0.39411 0.33452 0.0
C278 C 0.55057 0.36244 0.32643 0.0
C279 C 0.54498 0.35326 0.29521 0.0
C280 C 0.55419 0.37599 0.27234 0.0
C281 C 0.5686 0.40699 0.27967 0.0
C282 C 0.57671 0.42672 0.25058 0.0
C283 C 0.55958 0.44774 0.24975 0.0
C284 C 0.61181 0.4455 0.24784 0.0
C285 C 0.56473 0.40195 0.22582 0.0
C286 C 0.55171 0.37285 0.23883 0.0
C287 C 0.53945 0.34632 0.22057 0.0
C288 C 0.54077 0.34964 0.18805 0.0
C289 C 0.55434 0.37926 0.17424 0.0
C290 C 0.56624 0.40568 0.1935 0.0
H291 H 0.15104 0.63814 0.69668 0.0
H292 H 0.06514 0.55579 0.70299 0.0
H293 H 0.05989 0.56777 0.75811 0.0
H294 H 0.17939 0.63223 0.77062 0.0
H295 H 0.19655 0.67309 0.77821 0.0
H296 H 0.19217 0.65925 0.73872 0.0
H297 H 0.16159 0.69147 0.7251 0.0
H298 H 0.16581 0.70537 0.76465 0.0
H299 H 0.12794 0.68648 0.74764 0.0
H300 H 0.0663 0.58641 0.81357 0.0
H301 H 0.08388 0.61038 0.86514 0.0
H302 H 0.16477 0.6812 0.82193 0.0
C303 C 0.13096 0.62275 0.70953 0.0
C304 C 0.10852 0.59601 0.69555 0.0
C305 C 0.08262 0.57644 0.71321 0.0
C306 C 0.07938 0.58309 0.74451 0.0
C307 C 0.10208 0.60953 0.75765 0.0
C308 C 0.12729 0.62912 0.74067 0.0
C309 C 0.14912 0.65529 0.76061 0.0
C310 C 0.18119 0.65492 0.76213 0.0
C311 C 0.15122 0.6865 0.74879 0.0
C312 C 0.13267 0.6469 0.79168 0.0
C313 C 0.10548 0.62056 0.78946 0.0
C314 C 0.08732 0.60729 0.81552 0.0
C315 C 0.09751 0.62104 0.8447 0.0
C316 C 0.12556 0.64778 0.84751 0.0
C317 C 0.14297 0.66109 0.8205 0.0
H318 H 0.59924 0.12185 0.94383 0.0
H319 H 0.64916 0.07811 0.99402 0.0
H320 H 0.615 0.02795 0.97131 0.0
H321 H 0.52722 0.06555 0.95727 0.0
H322 H 0.5109 0.06745 0.91986 0.0
H323 H 0.54249 0.10085 0.93507 0.0
H324 H 0.57451 0.10421 0.88528 0.0
H325 H 0.54279 0.07099 0.86963 0.0
H326 H 0.58046 0.07103 0.87293 0.0
H327 H 0.57147 0.98217 0.95001 0.0
H328 H 0.52241 0.9435 0.92937 0.0
H329 H 0.5003 0.01665 0.8929 0.0
C330 C 0.60365 0.10191 0.94921 0.0
C331 C 0.62692 0.10385 0.97055 0.0
C332 C 0.6315 0.07712 0.97764 0.0
C333 C 0.61228 0.04856 0.9648 0.0
C334 C 0.58876 0.04721 0.94481 0.0
C335 C 0.58455 0.0732 0.93674 0.0
C336 C 0.55571 0.06499 0.91729 0.0
C337 C 0.53274 0.07532 0.93335 0.0
C338 C 0.56386 0.07861 0.88432 0.0
C339 C 0.54373 0.03024 0.91674 0.0
C340 C 0.56337 0.02053 0.93244 0.0
C341 C 0.55618 0.98946 0.93714 0.0
C342 C 0.52815 0.96769 0.9255 0.0
C343 C 0.5076 0.9771 0.90943 0.0
C344 C 0.51573 0.00879 0.90472 0.0
H345 H 0.50781 0.54288 0.54836 0.0
H346 H 0.43739 0.54401 0.48492 0.0
H347 H 0.44954 0.51072 0.4484 0.0
H348 H 0.56269 0.54215 0.48845 0.0
H349 H 0.57389 0.51649 0.5107 0.0
H350 H 0.56164 0.54276 0.53045 0.0
H351 H 0.51995 0.49692 0.56006 0.0
H352 H 0.53193 0.47052 0.54032 0.0
H353 H 0.49226 0.46511 0.53825 0.0
H354 H 0.46659 0.47442 0.42072 0.0
H355 H 0.48757 0.43777 0.40353 0.0
H356 H 0.54665 0.46007 0.48526 0.0
C357 C 0.49528 0.53658 0.52656 0.0
C358 C 0.4717 0.54611 0.51945 0.0
C359 C 0.45558 0.53702 0.49084 0.0
C360 C 0.46236 0.51817 0.46992 0.0
C361 C 0.48535 0.50873 0.47792 0.0
C362 C 0.50166 0.51772 0.50548 0.0
C363 C 0.52405 0.50299 0.50933 0.0
C364 C 0.55755 0.52757 0.50974 0.0
C365 C 0.51658 0.48268 0.53873 0.0
C366 C 0.51727 0.48377 0.47994 0.0
C367 C 0.49508 0.48762 0.46202 0.0
C368 C 0.48419 0.47141 0.4344 0.0
C369 C 0.49619 0.45058 0.42489 0.0
C370 C 0.51876 0.44606 0.44304 0.0
C371 C 0.52955 0.46312 0.47078 0.0
H372 H 0.068 0.60478 0.00196 0.0
H373 H 0.14492 0.62173 0.0645 0.0
H374 H 0.10875 0.58915 0.10451 0.0
H375 H 0.01136 0.60186 0.06225 0.0
H376 H 0.98019 0.57132 0.04243 0.0
H377 H 0.01175 0.59904 0.02035 0.0
H378 H 0.02132 0.55462 0.99482 0.0
H379 H 0.98997 0.52683 0.01688 0.0
H380 H 0.02786 0.52727 0.01933 0.0
H381 H 0.06477 0.55091 0.13567 0.0
H382 H 0.01641 0.50975 0.15538 0.0
H383 H 0.96877 0.51781 0.07197 0.0
C384 C 0.07722 0.60222 0.0243 0.0
C385 C 0.10926 0.61588 0.03017 0.0
C386 C 0.12043 0.61153 0.05953 0.0
C387 C 0.10007 0.59315 0.08244 0.0
C388 C 0.06865 0.57944 0.07562 0.0
C389 C 0.05728 0.58389 0.04732 0.0
C390 C 0.02288 0.56476 0.04485 0.0
C391 C 0.00552 0.58549 0.04233 0.0
C392 C 0.01507 0.54203 0.01735 0.0
C393 C 0.01682 0.54818 0.07582 0.0
C394 C 0.0434 0.55722 0.09344 0.0
C395 C 0.04372 0.54391 0.12227 0.0
C396 C 0.01617 0.52053 0.13323 0.0
C397 C 0.98883 0.51059 0.11523 0.0
C398 C 0.98923 0.52497 0.08637 0.0
H399 H 0.46273 0.01595 0.42576 0.0
H400 H 0.47576 0.96584 0.34671 0.0
H401 H 0.43591 0.91739 0.36802 0.0
H402 H 0.45375 0.9597 0.48266 0.0
H403 H 0.42498 0.9665 0.50461 0.0
H404 H 0.45312 -0.00283 0.48207 0.0
H405 H 0.40919 0.00446 0.45263 0.0
H406 H 0.38088 0.9737 0.47504 0.0
H407 H 0.37986 0.97203 0.43305 0.0
H408 H 0.39667 0.8742 0.39968 0.0
H409 H 0.36172 0.83957 0.43933 0.0
H410 H 0.37443 0.91878 0.49685 0.0
C411 C 0.45714 0.99487 0.41273 0.0
C412 C 0.47235 0.99465 0.38455 0.0
C413 C 0.46435 0.96653 0.36833 0.0
C414 C 0.44172 0.93894 0.38021 0.0
C415 C 0.42727 0.94003 0.40815 0.0
C416 C 0.43465 0.9673 0.42414 0.0
C417 C 0.41666 0.96224 0.45421 0.0
C418 C 0.43843 0.97197 0.48255 0.0
C419 C 0.39538 0.97911 0.45368 0.0
C420 C 0.39832 0.92771 0.45298 0.0
C421 C 0.40459 0.91531 0.42617 0.0
C422 C 0.39137 0.88368 0.42061 0.0
C423 C 0.37157 0.86422 0.44327 0.0
C424 C 0.36526 0.8765 0.47111 0.0
C425 C 0.37851 0.9087 0.47568 0.0
H426 H 0.46444 0.5195 0.96119 0.0
H427 H 0.4419 0.56548 0.03818 0.0
H428 H 0.46583 0.54213 0.07491 0.0
H429 H 0.45152 0.44832 0.00301 0.0
H430 H 0.48325 0.44426 0.98387 0.0
H431 H 0.46244 0.46291 0.96402 0.0
H432 H 0.51366 0.51119 0.95515 0.0
H433 H 0.53459 0.4928 0.97512 0.0
H434 H 0.53758 0.52983 0.98816 0.0
H435 H 0.4953 0.51674 0.10263 0.0
H436 H 0.52664 0.4896 0.11978 0.0
H437 H 0.52948 0.45992 0.02458 0.0
C438 C 0.46416 0.52439 0.98581 0.0
C439 C 0.4513 0.54433 0.99683 0.0
C440 C 0.45156 0.55023 0.02921 0.0
C441 C 0.4651 0.53708 0.05025 0.0
C442 C 0.47805 0.51797 0.03851 0.0
C443 C 0.47749 0.51144 0.00709 0.0
C444 C 0.49393 0.49102 0.00033 0.0
C445 C 0.47144 0.45977 0.98703 0.0
C446 C 0.52158 0.50719 0.9784 0.0
C447 C 0.50436 0.48756 0.03282 0.0
C448 C 0.49487 0.50318 0.05452 0.0
C449 C 0.50263 0.5042 0.0859 0.0
C450 C 0.52054 0.4888 0.09538 0.0
C451 C 0.53047 0.47261 0.07353 0.0
C452 C 0.5221 0.47194 0.04188 0.0
H453 H 0.92003 0.40807 0.47826 0.0
H454 H 0.90245 0.32221 0.52609 0.0
H455 H 0.9441 0.35064 0.56365 0.0
H456 H 0.0023 0.4418 0.48628 0.0
H457 H 0.00487 0.48018 0.49198 0.0
H458 H 0.97395 0.45281 0.46905 0.0
H459 H 0.93398 0.46092 0.50458 0.0
H460 H 0.96477 0.48823 0.5277 0.0
H461 H 0.93492 0.45527 0.54605 0.0
H462 H 0.98792 0.3891 0.59599 0.0
H463 H 0.03028 0.43404 0.61997 0.0
H464 H 0.01764 0.49383 0.55046 0.0
C465 C 0.9249 0.39512 0.49655 0.0
C466 C 0.90803 0.36293 0.49926 0.0
C467 C 0.91515 0.34692 0.52359 0.0
C468 C 0.93871 0.36285 0.54502 0.0
C469 C 0.95478 0.39468 0.54171 0.0
C470 C 0.94815 0.41057 0.51803 0.0
C471 C 0.96858 0.44469 0.51945 0.0
C472 C 0.98861 0.45549 0.48994 0.0
C473 C 0.94941 0.46336 0.52477 0.0
C474 C 0.9878 0.44563 0.54769 0.0
C475 C 0.97961 0.41662 0.56025 0.0
C476 C 0.99449 0.41192 0.58635 0.0
C477 C 0.01848 0.43757 0.59981 0.0
C478 C 0.02721 0.46744 0.58713 0.0
C479 C 0.01148 0.47135 0.56082 0.0
H480 H 0.5901 0.21687 0.06931 0.0
H481 H 0.65098 0.23536 0.98936 0.0
H482 H 0.63876 0.27897 0.97462 0.0
H483 H 0.53209 0.24026 0.03329 0.0
H484 H 0.52731 0.2578 0.06892 0.0
H485 H 0.5369 0.22511 0.0704 0.0
H486 H 0.58485 0.25646 0.10427 0.0
H487 H 0.57533 0.28908 0.10297 0.0
H488 H 0.61282 0.29309 0.09023 0.0
H489 H 0.62459 0.32367 0.97183 0.0
H490 H 0.61221 0.36788 0.98303 0.0
H491 H 0.56112 0.32073 0.06525 0.0
C492 C 0.60023 0.22961 0.04826 0.0
C493 C 0.62128 0.22263 0.03033 0.0
C494 C 0.63472 0.24032 0.00339 0.0
C495 C 0.62776 0.26498 0.99472 0.0
C496 C 0.60732 0.27163 0.01321 0.0
C497 C 0.59378 0.2545 0.03947 0.0
C498 C 0.57536 0.26848 0.05727 0.0
C499 C 0.54086 0.2466 0.05746 0.0
C500 C 0.58785 0.27731 0.09064 0.0
C501 C 0.58152 0.29671 0.03751 0.0
C502 C 0.5995 0.2978 0.01188 0.0
C503 C 0.61012 0.32286 0.99155 0.0
C504 C 0.60296 0.34788 -0.00189 0.0
C505 C 0.58562 0.34776 0.02496 0.0
C506 C 0.57405 0.32138 0.0443 0.0
H507 H 0.33344 0.58882 0.56389 0.0
H508 H 0.30838 0.49691 0.60112 0.0
H509 H 0.25423 0.49008 0.60617 0.0
H510 H 0.2864 0.60884 0.61465 0.0
H511 H 0.27681 0.63079 0.58573 0.0
H512 H 0.31279 0.62716 0.5832 0.0
H513 H 0.29882 0.60557 0.5271 0.0
H514 H 0.26271 0.60898 0.5297 0.0
H515 H 0.26305 0.57234 0.52028 0.0
H516 H 0.20339 0.49438 0.60928 0.0
H517 H 0.15974 0.50933 0.61035 0.0
H518 H 0.21892 0.59887 0.57197 0.0
C519 C 0.31654 0.56703 0.57269 0.0
C520 C 0.32509 0.54328 0.58195 0.0
C521 C 0.30231 0.51536 0.59378 0.0
C522 C 0.27153 0.51127 0.59671 0.0
C523 C 0.26403 0.53537 0.58779 0.0
C524 C 0.2859 0.56269 0.57599 0.0
C525 C 0.27232 0.5856 0.56946 0.0
C526 C 0.28801 0.61481 0.58946 0.0
C527 C 0.27434 0.59357 0.53456 0.0
C528 C 0.23931 0.56694 0.57958 0.0
C529 C 0.23495 0.538 0.58995 0.0
C530 C 0.2065 0.51691 0.60107 0.0
C531 C 0.18186 0.52565 0.60162 0.0
C532 C 0.18588 0.55526 0.59122 0.0
C533 C 0.21503 0.57604 0.58 0.0
H534 H 0.86997 0.31971 0.11432 0.0
H535 H 0.89056 0.37688 0.03163 0.0
H536 H 0.85812 0.3315 0.00022 0.0
H537 H 0.85846 0.2437 0.07464 0.0
H538 H 0.82656 0.22263 0.1002 0.0
H539 H 0.8585 0.25672 0.11409 0.0
H540 H 0.82049 0.28022 0.12991 0.0
H541 H 0.78863 0.24653 0.11593 0.0
H542 H 0.79488 0.28394 0.10096 0.0
H543 H 0.81626 0.28358 0.98025 0.0
H544 H 0.76632 0.23871 0.97402 0.0
H545 H 0.7705 0.21328 0.07045 0.0
C546 C 0.86885 0.32227 0.08933 0.0
C547 C 0.88316 0.35151 0.07518 0.0
C548 C 0.88006 0.35447 0.04271 0.0
C549 C 0.86182 0.3288 0.02471 0.0
C550 C 0.84674 0.30043 0.03961 0.0
C551 C 0.85013 0.29701 0.07125 0.0
C552 C 0.82712 0.2659 0.0828 0.0
C553 C 0.84366 0.24606 0.09356 0.0
C554 C 0.80658 0.26939 0.1089 0.0
C555 C 0.80898 0.25319 0.05322 0.0
C556 C 0.82134 0.27294 0.02832 0.0
C557 C 0.80675 0.26761 -0.00062 0.0
C558 C 0.77832 0.24206 0.99608 0.0
C559 C 0.76449 0.22254 0.02179 0.0
C560 C 0.78064 0.22763 0.05031 0.0
H561 H 0.34684 0.75992 0.53738 0.0
H562 H 0.42531 0.82521 0.58881 0.0
H563 H 0.45038 0.78928 0.5859 0.0
H564 H 0.34499 0.69192 0.57268 0.0
H565 H 0.33436 0.66958 0.5373 0.0
H566 H 0.32342 0.70097 0.54292 0.0
H567 H 0.35048 0.72537 0.49092 0.0
H568 H 0.36179 0.69414 0.48546 0.0
H569 H 0.39058 0.73341 0.48542 0.0
H570 H 0.46521 0.74454 0.58018 0.0
H571 H 0.46855 0.69473 0.57181 0.0
H572 H 0.38143 0.66049 0.52203 0.0
C573 C 0.36933 0.76674 0.54799 0.0
C574 C 0.38411 0.79533 0.56338 0.0
C575 C 0.41358 0.80342 0.57685 0.0
C576 C 0.42802 0.7832 0.57528 0.0
C577 C 0.4128 0.75518 0.55988 0.0
C578 C 0.38414 0.74701 0.5464 0.0
C579 C 0.37236 0.71537 0.53171 0.0
C580 C 0.342 0.69317 0.54709 0.0
C581 C 0.36859 0.7172 0.49627 0.0
C582 C 0.39864 0.70677 0.53948 0.0
C583 C 0.42179 0.72998 0.55571 0.0
C584 C 0.44745 0.72638 0.56709 0.0
C585 C 0.44918 0.69808 0.56221 0.0
C586 C 0.42549 0.67396 0.54591 0.0
C587 C 0.40028 0.67872 0.53395 0.0
H588 H 0.67927 0.40995 0.12399 0.0
H589 H 0.68029 0.47769 0.05605 0.0
H590 H 0.73706 0.49681 0.05154 0.0
H591 H 0.75158 0.45808 0.16234 0.0
H592 H 0.76198 0.42626 0.16808 0.0
H593 H 0.72193 0.41956 0.16712 0.0
H594 H 0.712 0.37956 0.12285 0.0
H595 H 0.75197 0.38616 0.12362 0.0
H596 H 0.73478 0.39083 0.08772 0.0
H597 H 0.79363 0.50583 0.05219 0.0
H598 H 0.84465 0.50458 0.0586 0.0
H599 H 0.80524 0.4312 0.12675 0.0
C600 C 0.69138 0.42903 0.10836 0.0
C601 C 0.67538 0.44235 0.09036 0.0
C602 C 0.69214 0.46723 0.07016 0.0
C603 C 0.72435 0.47821 0.06745 0.0
C604 C 0.73935 0.46421 0.0853 0.0
C605 C 0.72334 0.44028 0.10551 0.0
C606 C 0.74444 0.42836 0.12138 0.0
C607 C 0.74501 0.43338 0.15683 0.0
C608 C 0.73525 0.39421 0.11339 0.0
C609 C 0.77485 0.44893 0.10658 0.0
C610 C 0.77159 0.46957 0.08591 0.0
C611 C 0.79648 0.48998 0.06856 0.0
C612 C 0.82534 0.48908 0.07233 0.0
C613 C 0.82899 0.4679 0.09327 0.0
C614 C 0.80337 0.44787 0.11075 0.0
H615 H 0.12417 0.67326 0.61133 0.0
H616 H 0.10759 0.62464 0.52328 0.0
H617 H 0.13984 0.67335 0.49636 0.0
H618 H 0.13381 0.7516 0.58047 0.0
H619 H 0.16491 0.77103 0.60742 0.0
H620 H 0.13375 0.73491 0.61818 0.0
H621 H 0.17325 0.71212 0.63001 0.0
H622 H 0.20437 0.74791 0.61917 0.0
H623 H 0.20003 0.71272 0.60006 0.0
H624 H 0.18023 0.72446 0.48069 0.0
H625 H 0.22861 0.77177 0.47817 0.0
H626 H 0.22173 0.78614 0.57723 0.0
C627 C 0.12618 0.67326 0.58618 0.0
C628 C 0.11292 0.64555 0.56915 0.0
C629 C 0.11723 0.64588 0.53652 0.0
C630 C 0.13536 0.67344 0.52109 0.0
C631 C 0.14919 0.70031 0.53871 0.0
C632 C 0.14486 0.7004 0.57062 0.0
C633 C 0.16663 0.73061 0.58507 0.0
C634 C 0.1487 0.74807 0.59857 0.0
C635 C 0.18728 0.72551 0.61001 0.0
C636 C 0.18501 0.74684 0.55663 0.0
C637 C 0.1739 0.72948 0.52995 0.0
C638 C 0.18878 0.73853 0.5013 0.0
C639 C 0.21628 0.76546 0.50009 0.0
C640 C 0.22892 0.78257 0.52752 0.0
C641 C 0.21247 0.77363 0.55584 0.0
H642 H 0.78286 0.3786 0.40156 0.0
H643 H 0.76999 0.33771 0.49378 0.0
H644 H 0.72916 0.3554 0.50451 0.0
H645 H 0.76645 0.44563 0.42223 0.0
H646 H 0.74606 0.44329 0.38627 0.0
H647 H 0.77716 0.43127 0.38745 0.0
H648 H 0.74071 0.37769 0.36574 0.0
H649 H 0.70961 0.38955 0.36441 0.0
H650 H 0.70503 0.3554 0.38576 0.0
H651 H 0.6868 0.37329 0.50347 0.0
H652 H 0.64393 0.38693 0.48959 0.0
H653 H 0.68378 0.41524 0.39761 0.0
C654 C 0.77195 0.37398 0.42428 0.0
C655 C 0.77975 0.35702 0.44695 0.0
C656 C 0.76442 0.35077 0.47611 0.0
C657 C 0.74134 0.36088 0.48248 0.0
C658 C 0.73388 0.37719 0.45945 0.0
C659 C 0.74867 0.38363 0.43089 0.0
C660 C 0.73427 0.39878 0.40903 0.0
C661 C 0.75737 0.4317 0.40077 0.0
C662 C 0.72165 0.37917 0.37951 0.0
C663 C 0.70849 0.39902 0.42944 0.0
C664 C 0.70901 0.38699 0.45862 0.0
C665 C 0.68637 0.3831 0.48083 0.0
C666 C 0.66209 0.39093 0.47272 0.0
C667 C 0.66049 0.40221 0.44252 0.0
C668 C 0.68449 0.40701 0.42098 0.0
H669 H 0.35779 0.85214 0.96309 0.0
H670 H 0.31975 0.89688 0.89842 0.0
H671 H 0.26718 0.86018 0.9131 0.0
H672 H 0.31257 0.78088 0.94349 0.0
H673 H 0.30746 0.76347 0.98157 0.0
H674 H 0.34118 0.79805 0.97346 0.0
H675 H 0.32874 0.82562 0.01993 0.0
H676 H 0.29502 0.7908 0.0286 0.0
H677 H 0.29139 0.82646 0.02242 0.0
H678 H 0.22055 0.8119 0.92461 0.0
H679 H 0.18396 0.75789 0.93392 0.0
H680 H 0.25228 0.74464 0.99128 0.0
C681 C 0.33839 0.85507 0.95299 0.0
C682 C 0.34286 0.87733 0.9296 0.0
C683 C 0.31691 0.88014 0.91656 0.0
C684 C 0.28691 0.85938 0.9248 0.0
C685 C 0.28332 0.83635 0.94647 0.0
C686 C 0.30842 0.8345 0.96088 0.0
C687 C 0.2989 0.80518 0.97976 0.0
C688 C 0.31603 0.78577 0.96889 0.0
C689 C 0.3038 0.81246 0.01476 0.0
C690 C 0.26494 0.78975 0.97188 0.0
C691 C 0.25618 0.80836 0.95328 0.0
C692 C 0.22689 0.79749 0.93992 0.0
C693 C 0.20631 0.76671 0.94519 0.0
C694 C 0.21524 0.74711 0.96346 0.0
C695 C 0.24458 0.75919 0.97768 0.0
H696 H 0.54295 0.1801 0.4532 0.0
H697 H 0.47449 0.1407 0.38047 0.0
H698 H 0.45764 0.18262 0.38774 0.0
H699 H 0.49864 0.21281 0.50255 0.0
H700 H 0.53307 0.24692 0.5111 0.0
H701 H 0.53539 0.21061 0.50487 0.0
H702 H 0.57607 0.2354 0.46138 0.0
H703 H 0.57401 0.27165 0.46762 0.0
H704 H 0.56705 0.25461 0.4293 0.0
H705 H 0.45314 0.23191 0.3976 0.0
H706 H 0.46461 0.28672 0.40549 0.0
H707 H 0.53683 0.29476 0.47108 0.0
C708 C 0.52377 0.17979 0.43949 0.0
C709 C 0.50978 0.15705 0.41651 0.0
C710 C 0.48542 0.15789 0.39831 0.0
C711 C 0.47552 0.18144 0.40246 0.0
C712 C 0.49023 0.20393 0.42491 0.0
C713 C 0.51392 0.20335 0.44307 0.0
C714 C 0.52889 0.23244 0.46229 0.0
C715 C 0.52367 0.22525 0.49728 0.0
C716 C 0.56353 0.24952 0.45466 0.0
C717 C 0.51091 0.25012 0.45099 0.0
C718 C 0.48814 0.23294 0.43011 0.0
C719 C 0.47051 0.24541 0.41433 0.0
C720 C 0.47721 0.27661 0.41898 0.0
C721 C 0.50165 0.29507 0.43888 0.0
C722 C 0.51774 0.2812 0.45604 0.0
H723 H 0.25519 0.66097 0.88839 0.0
H724 H 0.20145 0.59686 0.96018 0.0
H725 H 0.23701 0.57134 0.95812 0.0
H726 H 0.27361 0.60658 0.84349 0.0
H727 H 0.31205 0.63444 0.83427 0.0
H728 H 0.2817 0.64689 0.84057 0.0
H729 H 0.31437 0.6847 0.8835 0.0
H730 H 0.34486 0.67253 0.87712 0.0
H731 H 0.32883 0.67022 0.91559 0.0
H732 H 0.27997 0.55433 0.94979 0.0
H733 H 0.32769 0.54832 0.93688 0.0
H734 H 0.35215 0.62302 0.86994 0.0
C735 C 0.25077 0.64148 0.90361 0.0
C736 C 0.22551 0.6309 0.92442 0.0
C737 C 0.22065 0.60538 0.94401 0.0
C738 C 0.24065 0.59066 0.94295 0.0
C739 C 0.2653 0.60167 0.9221 0.0
C740 C 0.27043 0.62653 0.90282 0.0
C741 C 0.29912 0.63454 0.88323 0.0
C742 C 0.29113 0.63035 0.84832 0.0
C743 C 0.32321 0.66744 0.8903 0.0
C744 C 0.30959 0.61055 0.89479 0.0
C745 C 0.28974 0.59169 0.91709 0.0
C746 C 0.29553 0.56878 0.93215 0.0
C747 C 0.32265 0.5655 0.92463 0.0
C748 C 0.34356 0.58505 0.90227 0.0
C749 C 0.33649 0.60741 0.88683 0.0
H750 H 0.61213 0.13189 0.44161 0.0
H751 H 0.64461 0.08028 0.37925 0.0
H752 H 0.69764 0.10924 0.39886 0.0
H753 H 0.67057 0.20155 0.42938 0.0
H754 H 0.67331 0.2157 0.46873 0.0
H755 H 0.63742 0.18677 0.45478 0.0
H756 H 0.63625 0.15091 0.50058 0.0
H757 H 0.67225 0.17989 0.51482 0.0
H758 H 0.66866 0.14149 0.50682 0.0
H759 H 0.74769 0.15015 0.41754 0.0
H760 H 0.79026 0.19872 0.43464 0.0
H761 H 0.72496 0.2225 0.486 0.0
C762 C 0.63022 0.12599 0.43274 0.0
C763 C 0.62425 0.10382 0.40892 0.0
C764 C 0.64861 0.09705 0.39764 0.0
C765 C 0.67881 0.11333 0.40871 0.0
C766 C 0.6841 0.13589 0.4314 0.0
C767 C 0.66036 0.1419 0.44361 0.0
C768 C 0.67243 0.16949 0.46517 0.0
C769 C 0.66287 0.19486 0.45381 0.0
C770 C 0.66176 0.15986 0.49885 0.0
C771 C 0.70677 0.17916 0.46181 0.0
C772 C 0.71309 0.15922 0.44267 0.0
C773 C 0.74309 0.16547 0.43324 0.0
C774 C 0.76711 0.19314 0.44298 0.0
C775 C 0.76093 0.2142 0.4619 0.0
C776 C 0.73051 0.20653 0.47218 0.0
H777 H 0.45543 0.69137 0.86853 0.0
H778 H 0.46814 0.67398 0.96564 0.0
H779 H 0.46922 0.72463 0.97989 0.0
H780 H 0.50245 0.77465 0.86822 0.0
H781 H 0.47604 0.78186 0.84293 0.0
H782 H 0.47976 0.74592 0.84027 0.0
H783 H 0.42079 0.71604 0.84889 0.0
H784 H 0.41691 0.75182 0.85187 0.0
H785 H 0.40331 0.72401 0.88301 0.0
H786 H 0.46543 0.77564 0.98369 0.0
H787 H 0.45702 0.8229 0.97693 0.0
H788 H 0.4451 0.80545 0.87738 0.0
C789 C 0.45925 0.69851 0.89271 0.0
C790 C 0.46213 0.67897 0.91596 0.0
C791 C 0.46616 0.68877 0.94745 0.0
C792 C 0.46679 0.71745 0.95574 0.0
C793 C 0.46316 0.73585 0.93226 0.0
C794 C 0.45949 0.72676 0.90139 0.0
C795 C 0.45369 0.74956 0.88092 0.0
C796 C 0.47953 0.76385 0.85666 0.0
C797 C 0.42179 0.73445 0.86526 0.0
C798 C 0.45465 0.77297 0.90508 0.0
C799 C 0.46026 0.76476 0.93453 0.0
C800 C 0.46126 0.78242 0.9607 0.0
C801 C 0.4564 0.80919 0.95662 0.0
C802 C 0.45048 0.81791 0.92662 0.0
C803 C 0.44972 0.79952 0.90059 0.0
loop_
_geom_bond_atom_site_label_1
_geom_bond_atom_site_label_2
_geom_bond_distance
_geom_bond_site_symmetry_2
_ccdc_geom_bond_type
C0 O1 1.160 . S
C0 O7 1.185 . S
O1 C0 1.160 . S
O2 Zn3 1.899 . S
O2 C10 1.284 . S
Zn3 O2 1.899 . S
Zn3 O4 2.032 . S
Zn3 O7 2.086 . S
Zn3 O12 1.977 . S
O4 Zn3 2.032 . S
O4 C8 1.278 . S
C5 O6 1.203 . S
C5 O12 1.267 . S
O6 C5 1.203 . S
O7 C0 1.185 . S
O7 Zn3 2.086 . S
C8 O4 1.278 . S
C8 O9 1.211 . S
O9 C8 1.211 . S
C10 O2 1.284 . S
C10 O11 1.273 . S
O11 C10 1.273 . S
O12 Zn3 1.977 . S
O12 C5 1.267 . S
C13 O14 1.160 . S
C13 O20 1.185 . S
O14 C13 1.160 . S
O15 Zn16 1.899 . S
O15 C23 1.284 . S
Zn16 O15 1.899 . S
Zn16 O17 2.032 . S
Zn16 O20 2.086 . S
Zn16 O25 1.977 . S
O17 Zn16 2.032 . S
O17 C21 1.278 . S
C18 O19 1.203 . S
C18 O25 1.267 . S
O19 C18 1.203 . S
O20 C13 1.185 . S
O20 Zn16 2.086 . S
C21 O17 1.278 . S
C21 O22 1.211 . S
O22 C21 1.211 . S
C23 O15 1.284 . S
C23 O24 1.273 . S
O24 C23 1.273 . S
O25 Zn16 1.977 . S
O25 C18 1.267 . S
C26 O27 1.160 . S
C26 O33 1.185 . S
O27 C26 1.160 . S
O28 Zn29 1.899 . S
O28 C36 1.284 . S
Zn29 O28 1.899 . S
Zn29 O30 2.032 . S
Zn29 O33 2.086 . S
Zn29 O38 1.977 . S
O30 Zn29 2.032 . S
O30 C34 1.278 . S
C31 O32 1.203 . S
C31 O38 1.267 . S
O32 C31 1.203 . S
O33 C26 1.185 . S
O33 Zn29 2.086 . S
C34 O30 1.278 . S
C34 O35 1.211 . S
O35 C34 1.211 . S
C36 O28 1.284 . S
C36 O37 1.273 . S
O37 C36 1.273 . S
O38 Zn29 1.977 . S
O38 C31 1.267 . S
C39 O40 1.160 . S
C39 O46 1.185 . S
O40 C39 1.160 . S
O41 Zn42 1.899 . S
O41 C49 1.284 . S
Zn42 O41 1.899 . S
Zn42 O43 2.032 . S
Zn42 O46 2.086 . S
Zn42 O51 1.977 . S
O43 Zn42 2.032 . S
O43 C47 1.278 . S
C44 O45 1.203 . S
C44 O51 1.267 . S
O45 C44 1.203 . S
O46 C39 1.185 . S
O46 Zn42 2.086 . S
C47 O43 1.278 . S
C47 O48 1.211 . S
O48 C47 1.211 . S
C49 O41 1.284 . S
C49 O50 1.273 . S
O50 C49 1.273 . S
O51 Zn42 1.977 . S
O51 C44 1.267 . S
C52 O53 1.160 . S
C52 O59 1.185 . S
O53 C52 1.160 . S
O54 Zn55 1.899 . S
O54 C62 1.284 . S
Zn55 O54 1.899 . S
Zn55 O56 2.032 . S
Zn55 O59 2.086 . S
Zn55 O64 1.977 . S
O56 Zn55 2.032 . S
O56 C60 1.278 . S
C57 O58 1.203 . S
C57 O64 1.267 . S
O58 C57 1.203 . S
O59 C52 1.185 . S
O59 Zn55 2.086 . S
C60 O56 1.278 . S
C60 O61 1.211 . S
O61 C60 1.211 . S
C62 O54 1.284 . S
C62 O63 1.273 . S
O63 C62 1.273 . S
O64 Zn55 1.977 . S
O64 C57 1.267 . S
C65 O66 1.160 . S
C65 O72 1.185 . S
O66 C65 1.160 . S
O67 Zn68 1.899 . S
O67 C75 1.284 . S
Zn68 O67 1.899 . S
Zn68 O69 2.032 . S
Zn68 O72 2.086 . S
Zn68 O77 1.977 . S
O69 Zn68 2.032 . S
O69 C73 1.278 . S
C70 O71 1.203 . S
C70 O77 1.267 . S
O71 C70 1.203 . S
O72 C65 1.185 . S
O72 Zn68 2.086 . S
C73 O69 1.278 . S
C73 O74 1.211 . S
O74 C73 1.211 . S
C75 O67 1.284 . S
C75 O76 1.273 . S
O76 C75 1.273 . S
O77 Zn68 1.977 . S
O77 C70 1.267 . S
C78 O79 1.160 . S
C78 O85 1.185 . S
O79 C78 1.160 . S
O80 Zn81 1.899 . S
O80 C88 1.284 . S
Zn81 O80 1.899 . S
Zn81 O82 2.032 . S
Zn81 O85 2.086 . S
Zn81 O90 1.977 . S
O82 Zn81 2.032 . S
O82 C86 1.278 . S
C83 O84 1.203 . S
C83 O90 1.267 . S
O84 C83 1.203 . S
O85 C78 1.185 . S
O85 Zn81 2.086 . S
C86 O82 1.278 . S
C86 O87 1.211 . S
O87 C86 1.211 . S
C88 O80 1.284 . S
C88 O89 1.273 . S
O89 C88 1.273 . S
O90 Zn81 1.977 . S
O90 C83 1.267 . S
C91 O92 1.160 . S
C91 O98 1.185 . S
O92 C91 1.160 . S
O93 Zn94 1.899 . S
O93 C101 1.284 . S
Zn94 O93 1.899 . S
Zn94 O95 2.032 . S
Zn94 O98 2.086 . S
Zn94 O103 1.977 . S
O95 Zn94 2.032 . S
O95 C99 1.278 . S
C96 O97 1.203 . S
C96 O103 1.267 . S
O97 C96 1.203 . S
O98 C91 1.185 . S
O98 Zn94 2.086 . S
C99 O95 1.278 . S
C99 O100 1.211 . S
O100 C99 1.211 . S
C101 O93 1.284 . S
C101 O102 1.273 . S
O102 C101 1.273 . S
O103 Zn94 1.977 . S
O103 C96 1.267 . S
C104 O105 1.160 . S
C104 O111 1.185 . S
O105 C104 1.160 . S
O106 Zn107 1.899 . S
O106 C114 1.284 . S
Zn107 O106 1.899 . S
Zn107 O108 2.032 . S
Zn107 O111 2.086 . S
Zn107 O116 1.977 . S
O108 Zn107 2.032 . S
O108 C112 1.278 . S
C109 O110 1.203 . S
C109 O116 1.267 . S
O110 C109 1.203 . S
O111 C104 1.185 . S
O111 Zn107 2.086 . S
C112 O108 1.278 . S
C112 O113 1.211 . S
O113 C112 1.211 . S
C114 O106 1.284 . S
C114 O115 1.273 . S
O115 C114 1.273 . S
O116 Zn107 1.977 . S
O116 C109 1.267 . S
C117 O118 1.160 . S
C117 O124 1.185 . S
O118 C117 1.160 . S
O119 Zn120 1.899 . S
O119 C127 1.284 . S
Zn120 O119 1.899 . S
Zn120 O121 2.032 . S
Zn120 O124 2.086 . S
Zn120 O129 1.977 . S
O121 Zn120 2.032 . S
O121 C125 1.278 . S
C122 O123 1.203 . S
C122 O129 1.267 . S
O123 C122 1.203 . S
O124 C117 1.185 . S
O124 Zn120 2.086 . S
C125 O121 1.278 . S
C125 O126 1.211 . S
O126 C125 1.211 . S
C127 O119 1.284 . S
C127 O128 1.273 . S
O128 C127 1.273 . S
O129 Zn120 1.977 . S
O129 C122 1.267 . S
C130 O131 1.160 . S
C130 O137 1.185 . S
O131 C130 1.160 . S
O132 Zn133 1.899 . S
O132 C140 1.284 . S
Zn133 O132 1.899 . S
Zn133 O134 2.032 . S
Zn133 O137 2.086 . S
Zn133 O142 1.977 . S
O134 Zn133 2.032 . S
O134 C138 1.278 . S
C135 O136 1.203 . S
C135 O142 1.267 . S
O136 C135 1.203 . S
O137 C130 1.185 . S
O137 Zn133 2.086 . S
C138 O134 1.278 . S
C138 O139 1.211 . S
O139 C138 1.211 . S
C140 O132 1.284 . S
C140 O141 1.273 . S
O141 C140 1.273 . S
O142 Zn133 1.977 . S
O142 C135 1.267 . S
C143 O144 1.160 . S
C143 O150 1.185 . S
O144 C143 1.160 . S
O145 Zn146 1.899 . S
O145 C153 1.284 . S
Zn146 O145 1.899 . S
Zn146 O147 2.032 . S
Zn146 O150 2.086 . S
Zn146 O155 1.977 . S
O147 Zn146 2.032 . S
O147 C151 1.278 . S
C148 O149 1.203 . S
C148 O155 1.267 . S
O149 C148 1.203 . S
O150 C143 1.185 . S
O150 Zn146 2.086 . S
C151 O147 1.278 . S
C151 O152 1.211 . S
O152 C151 1.211 . S
C153 O145 1.284 . S
C153 O154 1.273 . S
O154 C153 1.273 . S
O155 Zn146 1.977 . S
O155 C148 1.267 . S
H156 C168 0.930 . S
H157 C170 0.930 . S
H158 C171 0.930 . S
H159 C175 0.959 . S
H160 C175 0.959 . S
H161 C175 0.961 . S
H162 C176 0.960 . S
H163 C176 0.961 . S
H164 C176 0.959 . S
H165 C179 0.929 . S
H166 C180 0.931 . S
H167 C182 0.930 . S
C168 H156 0.930 . S
C168 C169 1.399 . S
C168 C173 1.399 . S
C169 C168 1.399 . S
C169 C170 1.376 . S
C170 H157 0.930 . S
C170 C169 1.376 . S
C170 C171 1.388 . S
C171 H158 0.930 . S
C171 C170 1.388 . S
C171 C172 1.390 . S
C172 C171 1.390 . S
C172 C173 1.394 . S
C172 C178 1.465 . S
C173 C168 1.399 . S
C173 C172 1.394 . S
C173 C174 1.516 . S
C174 C173 1.516 . S
C174 C175 1.502 . S
C174 C176 1.561 . S
C174 C177 1.526 . S
C175 H159 0.959 . S
C175 H160 0.959 . S
C175 H161 0.961 . S
C175 C174 1.502 . S
C176 H162 0.960 . S
C176 H163 0.961 . S
C176 H164 0.959 . S
C176 C174 1.561 . S
C177 C174 1.526 . S
C177 C178 1.396 . S
C177 C182 1.390 . S
C178 C172 1.465 . S
C178 C177 1.396 . S
C178 C179 1.399 . S
C179 H165 0.929 . S
C179 C178 1.399 . S
C179 C180 1.385 . S
C180 H166 0.931 . S
C180 C179 1.385 . S
C180 C181 1.389 . S
C181 C180 1.389 . S
C181 C182 1.387 . S
C182 H167 0.930 . S
C182 C177 1.390 . S
C182 C181 1.387 . S
H183 C195 0.930 . S
H184 C197 0.930 . S
H185 C198 0.930 . S
H186 C202 0.959 . S
H187 C202 0.959 . S
H188 C202 0.961 . S
H189 C203 0.960 . S
H190 C203 0.961 . S
H191 C203 0.959 . S
H192 C206 0.929 . S
H193 C207 0.931 . S
H194 C209 0.930 . S
C195 H183 0.930 . S
C195 C196 1.399 . S
C195 C200 1.399 . S
C196 C195 1.399 . S
C196 C197 1.376 . S
C197 H184 0.930 . S
C197 C196 1.376 . S
C197 C198 1.388 . S
C198 H185 0.930 . S
C198 C197 1.388 . S
C198 C199 1.390 . S
C199 C198 1.390 . S
C199 C200 1.394 . S
C199 C205 1.465 . S
C200 C195 1.399 . S
C200 C199 1.394 . S
C200 C201 1.516 . S
C201 C200 1.516 . S
C201 C202 1.502 . S
C201 C203 1.561 . S
C201 C204 1.526 . S
C202 H186 0.959 . S
C202 H187 0.959 . S
C202 H188 0.961 . S
C202 C201 1.502 . S
C203 H189 0.960 . S
C203 H190 0.961 . S
C203 H191 0.959 . S
C203 C201 1.561 . S
C204 C201 1.526 . S
C204 C205 1.396 . S
C204 C209 1.390 . S
C205 C199 1.465 . S
C205 C204 1.396 . S
C205 C206 1.399 . S
C206 H192 0.929 . S
C206 C205 1.399 . S
C206 C207 1.385 . S
C207 H193 0.931 . S
C207 C206 1.385 . S
C207 C208 1.389 . S
C208 C207 1.389 . S
C208 C209 1.387 . S
C209 H194 0.930 . S
C209 C204 1.390 . S
C209 C208 1.387 . S
H210 C222 0.930 . S
H211 C224 0.930 . S
H212 C225 0.930 . S
H213 C229 0.959 . S
H214 C229 0.959 . S
H215 C229 0.961 . S
H216 C230 0.960 . S
H217 C230 0.961 . S
H218 C230 0.959 . S
H219 C233 0.929 . S
H220 C234 0.931 . S
H221 C236 0.930 . S
C222 H210 0.930 . S
C222 C223 1.399 . S
C222 C227 1.399 . S
C223 C222 1.399 . S
C223 C224 1.376 . S
C224 H211 0.930 . S
C224 C223 1.376 . S
C224 C225 1.388 . S
C225 H212 0.930 . S
C225 C224 1.388 . S
C225 C226 1.390 . S
C226 C225 1.390 . S
C226 C227 1.394 . S
C226 C232 1.465 . S
C227 C222 1.399 . S
C227 C226 1.394 . S
C227 C228 1.516 . S
C228 C227 1.516 . S
C228 C229 1.502 . S
C228 C230 1.561 . S
C228 C231 1.526 . S
C229 H213 0.959 . S
C229 H214 0.959 . S
C229 H215 0.961 . S
C229 C228 1.502 . S
C230 H216 0.960 . S
C230 H217 0.961 . S
C230 H218 0.959 . S
C230 C228 1.561 . S
C231 C228 1.526 . S
C231 C232 1.396 . S
C231 C236 1.390 . S
C232 C226 1.465 . S
C232 C231 1.396 . S
C232 C233 1.399 . S
C233 H219 0.929 . S
C233 C232 1.399 . S
C233 C234 1.385 . S
C234 H220 0.931 . S
C234 C233 1.385 . S
C234 C235 1.389 . S
C235 C234 1.389 . S
C235 C236 1.387 . S
C236 H221 0.930 . S
C236 C231 1.390 . S
C236 C235 1.387 . S
H237 C249 0.930 . S
H238 C251 0.930 . S
H239 C252 0.930 . S
H240 C256 0.959 . S
H241 C256 0.959 . S
H242 C256 0.961 . S
H243 C257 0.960 . S
H244 C257 0.961 . S
H245 C257 0.959 . S
H246 C260 0.929 . S
H247 C261 0.931 . S
H248 C263 0.930 . S
C249 H237 0.930 . S
C249 C250 1.399 . S
C249 C254 1.399 . S
C250 C249 1.399 . S
C250 C251 1.376 . S
C251 H238 0.930 . S
C251 C250 1.376 . S
C251 C252 1.388 . S
C252 H239 0.930 . S
C252 C251 1.388 . S
C252 C253 1.390 . S
C253 C252 1.390 . S
C253 C254 1.394 . S
C253 C259 1.465 . S
C254 C249 1.399 . S
C254 C253 1.394 . S
C254 C255 1.516 . S
C255 C254 1.516 . S
C255 C256 1.502 . S
C255 C257 1.561 . S
C255 C258 1.526 . S
C256 H240 0.959 . S
C256 H241 0.959 . S
C256 H242 0.961 . S
C256 C255 1.502 . S
C257 H243 0.960 . S
C257 H244 0.961 . S
C257 H245 0.959 . S
C257 C255 1.561 . S
C258 C255 1.526 . S
C258 C259 1.396 . S
C258 C263 1.390 . S
C259 C253 1.465 . S
C259 C258 1.396 . S
C259 C260 1.399 . S
C260 H246 0.929 . S
C260 C259 1.399 . S
C260 C261 1.385 . S
C261 H247 0.931 . S
C261 C260 1.385 . S
C261 C262 1.389 . S
C262 C261 1.389 . S
C262 C263 1.387 . S
C263 H248 0.930 . S
C263 C258 1.390 . S
C263 C262 1.387 . S
H264 C276 0.930 . S
H265 C278 0.930 . S
H266 C279 0.930 . S
H267 C283 0.959 . S
H268 C283 0.959 . S
H269 C283 0.961 . S
H270 C284 0.960 . S
H271 C284 0.961 . S
H272 C284 0.959 . S
H273 C287 0.929 . S
H274 C288 0.931 . S
H275 C290 0.930 . S
C276 H264 0.930 . S
C276 C277 1.399 . S
C276 C281 1.399 . S
C277 C276 1.399 . S
C277 C278 1.376 . S
C278 H265 0.930 . S
C278 C277 1.376 . S
C278 C279 1.388 . S
C279 H266 0.930 . S
C279 C278 1.388 . S
C279 C280 1.390 . S
C280 C279 1.390 . S
C280 C281 1.394 . S
C280 C286 1.465 . S
C281 C276 1.399 . S
C281 C280 1.394 . S
C281 C282 1.516 . S
C282 C281 1.516 . S
C282 C283 1.502 . S
C282 C284 1.561 . S
C282 C285 1.526 . S
C283 H267 0.959 . S
C283 H268 0.959 . S
C283 H269 0.961 . S
C283 C282 1.502 . S
C284 H270 0.960 . S
C284 H271 0.961 . S
C284 H272 0.959 . S
C284 C282 1.561 . S
C285 C282 1.526 . S
C285 C286 1.396 . S
C285 C290 1.390 . S
C286 C280 1.465 . S
C286 C285 1.396 . S
C286 C287 1.399 . S
C287 H273 0.929 . S
C287 C286 1.399 . S
C287 C288 1.385 . S
C288 H274 0.931 . S
C288 C287 1.385 . S
C288 C289 1.389 . S
C289 C288 1.389 . S
C289 C290 1.387 . S
C290 H275 0.930 . S
C290 C285 1.390 . S
C290 C289 1.387 . S
H291 C303 0.930 . S
H292 C305 0.930 . S
H293 C306 0.930 . S
H294 C310 0.959 . S
H295 C310 0.959 . S
H296 C310 0.961 . S
H297 C311 0.960 . S
H298 C311 0.961 . S
H299 C311 0.959 . S
H300 C314 0.929 . S
H301 C315 0.931 . S
H302 C317 0.930 . S
C303 H291 0.930 . S
C303 C304 1.399 . S
C303 C308 1.399 . S
C304 C303 1.399 . S
C304 C305 1.376 . S
C305 H292 0.930 . S
C305 C304 1.376 . S
C305 C306 1.388 . S
C306 H293 0.930 . S
C306 C305 1.388 . S
C306 C307 1.390 . S
C307 C306 1.390 . S
C307 C308 1.394 . S
C307 C313 1.465 . S
C308 C303 1.399 . S
C308 C307 1.394 . S
C308 C309 1.516 . S
C309 C308 1.516 . S
C309 C310 1.502 . S
C309 C311 1.561 . S
C309 C312 1.526 . S
C310 H294 0.959 . S
C310 H295 0.959 . S
C310 H296 0.961 . S
C310 C309 1.502 . S
C311 H297 0.960 . S
C311 H298 0.961 . S
C311 H299 0.959 . S
C311 C309 1.561 . S
C312 C309 1.526 . S
C312 C313 1.396 . S
C312 C317 1.390 . S
C313 C307 1.465 . S
C313 C312 1.396 . S
C313 C314 1.399 . S
C314 H300 0.929 . S
C314 C313 1.399 . S
C314 C315 1.385 . S
C315 H301 0.931 . S
C315 C314 1.385 . S
C315 C316 1.389 . S
C316 C315 1.389 . S
C316 C317 1.387 . S
C317 H302 0.930 . S
C317 C312 1.390 . S
C317 C316 1.387 . S
H318 C330 0.937 . S
H319 C332 0.930 . S
H320 C333 0.930 1_565 S
H321 C337 0.959 . S
H322 C337 0.959 . S
H323 C337 0.961 . S
H324 C338 0.960 . S
H325 C338 0.961 . S
H326 C338 0.959 . S
H327 C341 0.929 . S
H328 C342 0.931 . S
H329 C344 0.930 . S
C330 H318 0.937 . S
C330 C331 1.399 . S
C330 C335 1.403 . S
C331 C330 1.399 . S
C331 C332 1.376 . S
C332 H319 0.930 . S
C332 C331 1.376 . S
C332 C333 1.388 . S
C333 H320 0.930 1_545 S
C333 C332 1.388 . S
C333 C334 1.390 . S
C334 C333 1.390 . S
C334 C335 1.400 . S
C334 C340 1.465 1_545 S
C335 C330 1.403 . S
C335 C334 1.400 . S
C335 C336 1.507 1_554 S
C336 C335 1.507 1_556 S
C336 C337 1.502 . S
C336 C338 1.561 . S
C336 C339 1.526 1_545 S
C337 H321 0.959 . S
C337 H322 0.959 . S
C337 H323 0.961 . S
C337 C336 1.502 . S
C338 H324 0.960 . S
C338 H325 0.961 . S
C338 H326 0.959 . S
C338 C336 1.561 . S
C339 C336 1.526 1_565 S
C339 C340 1.396 1_556 S
C339 C344 1.390 . S
C340 C334 1.465 1_565 S
C340 C339 1.396 1_554 S
C340 C341 1.399 . S
C341 H327 0.929 . S
C341 C340 1.399 . S
C341 C342 1.385 1_554 S
C342 H328 0.931 . S
C342 C341 1.385 1_556 S
C342 C343 1.389 . S
C343 C342 1.389 . S
C343 C344 1.387 . S
C344 H329 0.930 . S
C344 C339 1.390 . S
C344 C343 1.387 . S
H345 C357 0.930 . S
H346 C359 0.930 . S
H347 C360 0.930 . S
H348 C364 0.959 . S
H349 C364 0.959 . S
H350 C364 0.961 . S
H351 C365 0.960 . S
H352 C365 0.961 . S
H353 C365 0.959 . S
H354 C368 0.929 . S
H355 C369 0.931 . S
H356 C371 0.930 . S
C357 H345 0.930 . S
C357 C358 1.399 . S
C357 C362 1.399 . S
C358 C357 1.399 . S
C358 C359 1.376 . S
C359 H346 0.930 . S
C359 C358 1.376 . S
C359 C360 1.388 . S
C360 H347 0.930 . S
C360 C359 1.388 . S
C360 C361 1.390 . S
C361 C360 1.390 . S
C361 C362 1.394 . S
C361 C367 1.465 . S
C362 C357 1.399 . S
C362 C361 1.394 . S
C362 C363 1.516 . S
C363 C362 1.516 . S
C363 C364 1.502 . S
C363 C365 1.561 . S
C363 C366 1.526 . S
C364 H348 0.959 . S
C364 H349 0.959 . S
C364 H350 0.961 . S
C364 C363 1.502 . S
C365 H351 0.960 . S
C365 H352 0.961 . S
C365 H353 0.959 . S
C365 C363 1.561 . S
C366 C363 1.526 . S
C366 C367 1.396 . S
C366 C371 1.390 . S
C367 C361 1.465 . S
C367 C366 1.396 . S
C367 C368 1.399 . S
C368 H354 0.929 . S
C368 C367 1.399 . S
C368 C369 1.385 . S
C369 H355 0.931 . S
C369 C368 1.385 . S
C369 C370 1.389 . S
C370 C369 1.389 . S
C370 C371 1.387 . S
C371 H356 0.930 . S
C371 C366 1.390 . S
C371 C370 1.387 . S
H372 C384 0.930 . S
H373 C386 0.930 . S
H374 C387 0.930 . S
H375 C391 0.959 . S
H376 C391 0.959 . S
H377 C391 0.965 . S
H378 C392 0.960 . S
H379 C392 0.961 . S
H380 C392 0.959 . S
H381 C395 0.929 . S
H382 C396 0.931 . S
H383 C398 0.930 . S
C384 H372 0.930 . S
C384 C385 1.399 . S
C384 C389 1.399 . S
C385 C384 1.399 . S
C385 C386 1.376 . S
C386 H373 0.930 . S
C386 C385 1.376 . S
C386 C387 1.388 . S
C387 H374 0.930 . S
C387 C386 1.388 . S
C387 C388 1.390 . S
C388 C387 1.390 . S
C388 C389 1.394 . S
C388 C394 1.465 1_456 S
C389 C384 1.399 . S
C389 C388 1.394 . S
C389 C390 1.516 1_455 S
C390 C389 1.516 1_655 S
C390 C391 1.502 1_556 S
C390 C392 1.561 . S
C390 C393 1.526 1_556 S
C391 H375 0.959 . S
C391 H376 0.959 . S
C391 H377 0.965 . S
C391 C390 1.502 1_554 S
C392 H378 0.960 . S
C392 H379 0.961 . S
C392 H380 0.959 . S
C392 C390 1.561 . S
C393 C390 1.526 1_554 S
C393 C394 1.396 . S
C393 C398 1.390 . S
C394 C388 1.465 1_654 S
C394 C393 1.396 . S
C394 C395 1.399 . S
C395 H381 0.929 . S
C395 C394 1.399 . S
C395 C396 1.385 . S
C396 H382 0.931 . S
C396 C395 1.385 . S
C396 C397 1.389 . S
C397 C396 1.389 . S
C397 C398 1.387 . S
C398 H383 0.930 . S
C398 C393 1.390 . S
C398 C397 1.387 . S
H399 C411 0.930 . S
H400 C413 0.930 . S
H401 C414 0.930 1_565 S
H402 C418 0.959 . S
H403 C418 0.959 . S
H404 C418 0.961 . S
H405 C419 0.960 . S
H406 C419 0.961 . S
H407 C419 0.959 . S
H408 C422 0.929 . S
H409 C423 0.931 . S
H410 C425 0.930 . S
C411 H399 0.930 . S
C411 C412 1.399 . S
C411 C416 1.399 . S
C412 C411 1.399 . S
C412 C413 1.376 . S
C413 H400 0.930 . S
C413 C412 1.376 . S
C413 C414 1.388 . S
C414 H401 0.930 1_545 S
C414 C413 1.388 . S
C414 C415 1.390 . S
C415 C414 1.390 . S
C415 C416 1.394 . S
C415 C421 1.465 1_545 S
C416 C411 1.399 . S
C416 C415 1.394 . S
C416 C417 1.516 . S
C417 C416 1.516 . S
C417 C418 1.502 . S
C417 C419 1.561 . S
C417 C420 1.526 1_545 S
C418 H402 0.959 . S
C418 H403 0.959 . S
C418 H404 0.961 . S
C418 C417 1.502 . S
C419 H405 0.960 . S
C419 H406 0.961 . S
C419 H407 0.959 . S
C419 C417 1.561 . S
C420 C417 1.526 1_565 S
C420 C421 1.396 . S
C420 C425 1.390 . S
C421 C415 1.465 1_565 S
C421 C420 1.396 . S
C421 C422 1.399 . S
C422 H408 0.929 . S
C422 C421 1.399 . S
C422 C423 1.385 . S
C423 H409 0.931 . S
C423 C422 1.385 . S
C423 C424 1.389 . S
C424 C423 1.389 . S
C424 C425 1.387 . S
C425 H410 0.930 . S
C425 C420 1.390 . S
C425 C424 1.387 . S
H426 C438 0.930 . S
H427 C440 0.930 . S
H428 C441 0.942 . S
H429 C445 0.959 1_554 S
H430 C445 0.959 . S
H431 C445 0.961 . S
H432 C446 0.960 . S
H433 C446 0.961 . S
H434 C446 0.959 . S
H435 C449 0.929 . S
H436 C450 0.931 . S
H437 C452 0.930 . S
C438 H426 0.930 . S
C438 C439 1.399 . S
C438 C443 1.399 . S
C439 C438 1.399 . S
C439 C440 1.376 . S
C440 H427 0.930 . S
C440 C439 1.376 . S
C440 C441 1.378 1_556 S
C441 H428 0.942 . S
C441 C440 1.378 1_554 S
C441 C442 1.388 1_554 S
C442 C441 1.388 1_556 S
C442 C443 1.394 . S
C442 C448 1.465 1_556 S
C443 C438 1.399 . S
C443 C442 1.394 . S
C443 C444 1.516 . S
C444 C443 1.516 . S
C444 C445 1.502 . S
C444 C446 1.561 . S
C444 C447 1.526 1_556 S
C445 H429 0.959 1_556 S
C445 H430 0.959 . S
C445 H431 0.961 . S
C445 C444 1.502 . S
C446 H432 0.960 . S
C446 H433 0.961 . S
C446 H434 0.959 . S
C446 C444 1.561 . S
C447 C444 1.526 1_554 S
C447 C448 1.396 . S
C447 C452 1.390 . S
C448 C442 1.465 1_554 S
C448 C447 1.396 . S
C448 C449 1.399 . S
C449 H435 0.929 . S
C449 C448 1.399 . S
C449 C450 1.385 . S
C450 H436 0.931 . S
C450 C449 1.385 . S
C450 C451 1.389 . S
C451 C450 1.389 . S
C451 C452 1.387 . S
C452 H437 0.930 . S
C452 C447 1.390 . S
C452 C451 1.387 . S
H453 C465 0.930 . S
H454 C467 0.930 . S
H455 C468 0.930 . S
H456 C472 0.959 . S
H457 C472 0.959 . S
H458 C472 0.961 . S
H459 C473 0.960 1_655 S
H460 C473 0.961 . S
H461 C473 0.959 1_655 S
H462 C476 0.929 . S
H463 C477 0.931 . S
H464 C479 0.930 . S
C465 H453 0.930 . S
C465 C466 1.399 . S
C465 C470 1.399 . S
C466 C465 1.399 . S
C466 C467 1.376 . S
C467 H454 0.930 . S
C467 C466 1.376 . S
C467 C468 1.388 . S
C468 H455 0.930 . S
C468 C467 1.388 . S
C468 C469 1.390 . S
C469 C468 1.390 . S
C469 C470 1.394 . S
C469 C475 1.465 1_655 S
C470 C465 1.399 . S
C470 C469 1.394 . S
C470 C471 1.516 1_655 S
C471 C470 1.516 1_455 S
C471 C472 1.502 . S
C471 C473 1.561 . S
C471 C474 1.526 . S
C472 H456 0.959 . S
C472 H457 0.959 . S
C472 H458 0.961 . S
C472 C471 1.502 . S
C473 H459 0.960 1_455 S
C473 H460 0.961 . S
C473 H461 0.959 1_455 S
C473 C471 1.561 . S
C474 C471 1.526 . S
C474 C475 1.396 . S
C474 C479 1.390 . S
C475 C469 1.465 1_455 S
C475 C474 1.396 . S
C475 C476 1.399 . S
C476 H462 0.929 . S
C476 C475 1.399 . S
C476 C477 1.385 . S
C477 H463 0.931 . S
C477 C476 1.385 . S
C477 C478 1.389 . S
C478 C477 1.389 . S
C478 C479 1.387 . S
C479 H464 0.930 . S
C479 C474 1.390 . S
C479 C478 1.387 . S
H480 C492 0.930 . S
H481 C494 0.930 . S
H482 C495 0.930 . S
H483 C499 0.959 . S
H484 C499 0.959 . S
H485 C499 0.961 . S
H486 C500 0.960 . S
H487 C500 0.961 . S
H488 C500 0.959 . S
H489 C503 0.929 . S
H490 C504 0.931 . S
H491 C506 0.930 . S
C492 H480 0.930 . S
C492 C493 1.399 . S
C492 C497 1.399 . S
C493 C492 1.399 . S
C493 C494 1.376 . S
C494 H481 0.930 . S
C494 C493 1.376 . S
C494 C495 1.388 . S
C495 H482 0.930 . S
C495 C494 1.388 . S
C495 C496 1.390 . S
C496 C495 1.390 . S
C496 C497 1.394 . S
C496 C502 1.465 . S
C497 C492 1.399 . S
C497 C496 1.394 . S
C497 C498 1.516 . S
C498 C497 1.516 . S
C498 C499 1.502 . S
C498 C500 1.561 . S
C498 C501 1.526 . S
C499 H483 0.959 . S
C499 H484 0.959 . S
C499 H485 0.961 . S
C499 C498 1.502 . S
C500 H486 0.960 . S
C500 H487 0.961 . S
C500 H488 0.959 . S
C500 C498 1.561 . S
C501 C498 1.526 . S
C501 C502 1.396 . S
C501 C506 1.390 . S
C502 C496 1.465 . S
C502 C501 1.396 . S
C502 C503 1.399 . S
C503 H489 0.929 . S
C503 C502 1.399 . S
C503 C504 1.385 . S
C504 H490 0.931 . S
C504 C503 1.385 . S
C504 C505 1.389 . S
C505 C504 1.389 . S
C505 C506 1.387 . S
C506 H491 0.930 . S
C506 C501 1.390 . S
C506 C505 1.387 . S
H507 C519 0.930 . S
H508 C521 0.930 . S
H509 C522 0.930 . S
H510 C526 0.959 . S
H511 C526 0.959 . S
H512 C526 0.961 . S
H513 C527 0.960 . S
H514 C527 0.961 . S
H515 C527 0.959 . S
H516 C530 0.929 . S
H517 C531 0.931 . S
H518 C533 0.930 . S
C519 H507 0.930 . S
C519 C520 1.399 . S
C519 C524 1.399 . S
C520 C519 1.399 . S
C520 C521 1.376 . S
C521 H508 0.930 . S
C521 C520 1.376 . S
C521 C522 1.388 . S
C522 H509 0.930 . S
C522 C521 1.388 . S
C522 C523 1.390 . S
C523 C522 1.390 . S
C523 C524 1.394 . S
C523 C529 1.465 . S
C524 C519 1.399 . S
C524 C523 1.394 . S
C524 C525 1.516 . S
C525 C524 1.516 . S
C525 C526 1.502 . S
C525 C527 1.561 . S
C525 C528 1.526 . S
C526 H510 0.959 . S
C526 H511 0.959 . S
C526 H512 0.961 . S
C526 C525 1.502 . S
C527 H513 0.960 . S
C527 H514 0.961 . S
C527 H515 0.959 . S
C527 C525 1.561 . S
C528 C525 1.526 . S
C528 C529 1.396 . S
C528 C533 1.390 . S
C529 C523 1.465 . S
C529 C528 1.396 . S
C529 C530 1.399 . S
C530 H516 0.929 . S
C530 C529 1.399 . S
C530 C531 1.385 . S
C531 H517 0.931 . S
C531 C530 1.385 . S
C531 C532 1.389 . S
C532 C531 1.389 . S
C532 C533 1.387 . S
C533 H518 0.930 . S
C533 C528 1.390 . S
C533 C532 1.387 . S
H534 C546 0.930 . S
H535 C548 0.930 . S
H536 C549 0.930 . S
H537 C553 0.959 . S
H538 C553 0.959 . S
H539 C553 0.961 . S
H540 C554 0.960 . S
H541 C554 0.961 . S
H542 C554 0.959 . S
H543 C557 0.929 . S
H544 C558 0.931 . S
H545 C560 0.930 . S
C546 H534 0.930 . S
C546 C547 1.399 . S
C546 C551 1.399 . S
C547 C546 1.399 . S
C547 C548 1.376 . S
C548 H535 0.930 . S
C548 C547 1.376 . S
C548 C549 1.388 . S
C549 H536 0.930 . S
C549 C548 1.388 . S
C549 C550 1.390 . S
C550 C549 1.390 . S
C550 C551 1.394 . S
C550 C556 1.465 . S
C551 C546 1.399 . S
C551 C550 1.394 . S
C551 C552 1.516 . S
C552 C551 1.516 . S
C552 C553 1.502 . S
C552 C554 1.561 . S
C552 C555 1.526 . S
C553 H537 0.959 . S
C553 H538 0.959 . S
C553 H539 0.961 . S
C553 C552 1.502 . S
C554 H540 0.960 . S
C554 H541 0.961 . S
C554 H542 0.959 . S
C554 C552 1.561 . S
C555 C552 1.526 . S
C555 C556 1.396 . S
C555 C560 1.390 . S
C556 C550 1.465 . S
C556 C555 1.396 . S
C556 C557 1.399 . S
C557 H543 0.929 . S
C557 C556 1.399 . S
C557 C558 1.385 . S
C558 H544 0.931 . S
C558 C557 1.385 . S
C558 C559 1.389 . S
C559 C558 1.389 . S
C559 C560 1.387 . S
C560 H545 0.930 . S
C560 C555 1.390 . S
C560 C559 1.387 . S
H561 C573 0.930 . S
H562 C575 0.930 . S
H563 C576 0.930 . S
H564 C580 0.959 . S
H565 C580 0.959 . S
H566 C580 0.961 . S
H567 C581 0.960 . S
H568 C581 0.961 . S
H569 C581 0.959 . S
H570 C584 0.929 . S
H571 C585 0.931 . S
H572 C587 0.930 . S
C573 H561 0.930 . S
C573 C574 1.399 . S
C573 C578 1.399 . S
C574 C573 1.399 . S
C574 C575 1.376 . S
C575 H562 0.930 . S
C575 C574 1.376 . S
C575 C576 1.388 . S
C576 H563 0.930 . S
C576 C575 1.388 . S
C576 C577 1.390 . S
C577 C576 1.390 . S
C577 C578 1.394 . S
C577 C583 1.465 . S
C578 C573 1.399 . S
C578 C577 1.394 . S
C578 C579 1.516 . S
C579 C578 1.516 . S
C579 C580 1.502 . S
C579 C581 1.561 . S
C579 C582 1.526 . S
C580 H564 0.959 . S
C580 H565 0.959 . S
C580 H566 0.961 . S
C580 C579 1.502 . S
C581 H567 0.960 . S
C581 H568 0.961 . S
C581 H569 0.959 . S
C581 C579 1.561 . S
C582 C579 1.526 . S
C582 C583 1.396 . S
C582 C587 1.390 . S
C583 C577 1.465 . S
C583 C582 1.396 . S
C583 C584 1.399 . S
C584 H570 0.929 . S
C584 C583 1.399 . S
C584 C585 1.385 . S
C585 H571 0.931 . S
C585 C584 1.385 . S
C585 C586 1.389 . S
C586 C585 1.389 . S
C586 C587 1.387 . S
C587 H572 0.930 . S
C587 C582 1.390 . S
C587 C586 1.387 . S
H588 C600 0.930 . S
H589 C602 0.930 . S
H590 C603 0.930 . S
H591 C607 0.959 . S
H592 C607 0.959 . S
H593 C607 0.961 . S
H594 C608 0.960 . S
H595 C608 0.961 . S
H596 C608 0.959 . S
H597 C611 0.929 . S
H598 C612 0.931 . S
H599 C614 0.930 . S
C600 H588 0.930 . S
C600 C601 1.399 . S
C600 C605 1.399 . S
C601 C600 1.399 . S
C601 C602 1.376 . S
C602 H589 0.930 . S
C602 C601 1.376 . S
C602 C603 1.388 . S
C603 H590 0.930 . S
C603 C602 1.388 . S
C603 C604 1.390 . S
C604 C603 1.390 . S
C604 C605 1.394 . S
C604 C610 1.465 . S
C605 C600 1.399 . S
C605 C604 1.394 . S
C605 C606 1.516 . S
C606 C605 1.516 . S
C606 C607 1.502 . S
C606 C608 1.561 . S
C606 C609 1.526 . S
C607 H591 0.959 . S
C607 H592 0.959 . S
C607 H593 0.961 . S
C607 C606 1.502 . S
C608 H594 0.960 . S
C608 H595 0.961 . S
C608 H596 0.959 . S
C608 C606 1.561 . S
C609 C606 1.526 . S
C609 C610 1.396 . S
C609 C614 1.390 . S
C610 C604 1.465 . S
C610 C609 1.396 . S
C610 C611 1.399 . S
C611 H597 0.929 . S
C611 C610 1.399 . S
C611 C612 1.385 . S
C612 H598 0.931 . S
C612 C611 1.385 . S
C612 C613 1.389 . S
C613 C612 1.389 . S
C613 C614 1.387 . S
C614 H599 0.930 . S
C614 C609 1.390 . S
C614 C613 1.387 . S
H615 C627 0.930 . S
H616 C629 0.930 . S
H617 C630 0.930 . S
H618 C634 0.959 . S
H619 C634 0.959 . S
H620 C634 0.961 . S
H621 C635 0.960 . S
H622 C635 0.961 . S
H623 C635 0.959 . S
H624 C638 0.929 . S
H625 C639 0.931 . S
H626 C641 0.930 . S
C627 H615 0.930 . S
C627 C628 1.399 . S
C627 C632 1.399 . S
C628 C627 1.399 . S
C628 C629 1.376 . S
C629 H616 0.930 . S
C629 C628 1.376 . S
C629 C630 1.388 . S
C630 H617 0.930 . S
C630 C629 1.388 . S
C630 C631 1.390 . S
C631 C630 1.390 . S
C631 C632 1.394 . S
C631 C637 1.465 . S
C632 C627 1.399 . S
C632 C631 1.394 . S
C632 C633 1.516 . S
C633 C632 1.516 . S
C633 C634 1.502 . S
C633 C635 1.561 . S
C633 C636 1.526 . S
C634 H618 0.959 . S
C634 H619 0.959 . S
C634 H620 0.961 . S
C634 C633 1.502 . S
C635 H621 0.960 . S
C635 H622 0.961 . S
C635 H623 0.959 . S
C635 C633 1.561 . S
C636 C633 1.526 . S
C636 C637 1.396 . S
C636 C641 1.390 . S
C637 C631 1.465 . S
C637 C636 1.396 . S
C637 C638 1.399 . S
C638 H624 0.929 . S
C638 C637 1.399 . S
C638 C639 1.385 . S
C639 H625 0.931 . S
C639 C638 1.385 . S
C639 C640 1.389 . S
C640 C639 1.389 . S
C640 C641 1.387 . S
C641 H626 0.930 . S
C641 C636 1.390 . S
C641 C640 1.387 . S
H642 C654 0.930 . S
H643 C656 0.930 . S
H644 C657 0.930 . S
H645 C661 0.959 . S
H646 C661 0.959 . S
H647 C661 0.961 . S
H648 C662 0.960 . S
H649 C662 0.961 . S
H650 C662 0.959 . S
H651 C665 0.929 . S
H652 C666 0.931 . S
H653 C668 0.930 . S
C654 H642 0.930 . S
C654 C655 1.399 . S
C654 C659 1.399 . S
C655 C654 1.399 . S
C655 C656 1.376 . S
C656 H643 0.930 . S
C656 C655 1.376 . S
C656 C657 1.388 . S
C657 H644 0.930 . S
C657 C656 1.388 . S
C657 C658 1.390 . S
C658 C657 1.390 . S
C658 C659 1.394 . S
C658 C664 1.465 . S
C659 C654 1.399 . S
C659 C658 1.394 . S
C659 C660 1.516 . S
C660 C659 1.516 . S
C660 C661 1.502 . S
C660 C662 1.561 . S
C660 C663 1.526 . S
C661 H645 0.959 . S
C661 H646 0.959 . S
C661 H647 0.961 . S
C661 C660 1.502 . S
C662 H648 0.960 . S
C662 H649 0.961 . S
C662 H650 0.959 . S
C662 C660 1.561 . S
C663 C660 1.526 . S
C663 C664 1.396 . S
C663 C668 1.390 . S
C664 C658 1.465 . S
C664 C663 1.396 . S
C664 C665 1.399 . S
C665 H651 0.929 . S
C665 C664 1.399 . S
C665 C666 1.385 . S
C666 H652 0.931 . S
C666 C665 1.385 . S
C666 C667 1.389 . S
C667 C666 1.389 . S
C667 C668 1.387 . S
C668 H653 0.930 . S
C668 C663 1.390 . S
C668 C667 1.387 . S
H669 C681 0.930 . S
H670 C683 0.930 . S
H671 C684 0.930 . S
H672 C688 0.959 . S
H673 C688 0.959 . S
H674 C688 0.961 . S
H675 C689 0.960 . S
H676 C689 0.961 . S
H677 C689 0.960 1_556 S
H678 C692 0.929 . S
H679 C693 0.931 . S
H680 C695 0.930 . S
C681 H669 0.930 . S
C681 C682 1.399 . S
C681 C686 1.399 . S
C682 C681 1.399 . S
C682 C683 1.376 . S
C683 H670 0.930 . S
C683 C682 1.376 . S
C683 C684 1.388 . S
C684 H671 0.930 . S
C684 C683 1.388 . S
C684 C685 1.390 . S
C685 C684 1.390 . S
C685 C686 1.394 . S
C685 C691 1.465 . S
C686 C681 1.399 . S
C686 C685 1.394 . S
C686 C687 1.516 . S
C687 C686 1.516 . S
C687 C688 1.502 . S
C687 C689 1.561 1_556 S
C687 C690 1.526 . S
C688 H672 0.959 . S
C688 H673 0.959 . S
C688 H674 0.961 . S
C688 C687 1.502 . S
C689 H675 0.960 . S
C689 H676 0.961 . S
C689 H677 0.960 1_554 S
C689 C687 1.561 1_554 S
C690 C687 1.526 . S
C690 C691 1.396 . S
C690 C695 1.390 . S
C691 C685 1.465 . S
C691 C690 1.396 . S
C691 C692 1.399 . S
C692 H678 0.929 . S
C692 C691 1.399 . S
C692 C693 1.385 . S
C693 H679 0.931 . S
C693 C692 1.385 . S
C693 C694 1.389 . S
C694 C693 1.389 . S
C694 C695 1.387 . S
C695 H680 0.930 . S
C695 C690 1.390 . S
C695 C694 1.387 . S
H696 C708 0.930 . S
H697 C710 0.930 . S
H698 C711 0.930 . S
H699 C715 0.959 . S
H700 C715 0.959 . S
H701 C715 0.961 . S
H702 C716 0.960 . S
H703 C716 0.961 . S
H704 C716 0.959 . S
H705 C719 0.929 . S
H706 C720 0.931 . S
H707 C722 0.930 . S
C708 H696 0.930 . S
C708 C709 1.399 . S
C708 C713 1.399 . S
C709 C708 1.399 . S
C709 C710 1.376 . S
C710 H697 0.930 . S
C710 C709 1.376 . S
C710 C711 1.388 . S
C711 H698 0.930 . S
C711 C710 1.388 . S
C711 C712 1.390 . S
C712 C711 1.390 . S
C712 C713 1.394 . S
C712 C718 1.465 . S
C713 C708 1.399 . S
C713 C712 1.394 . S
C713 C714 1.516 . S
C714 C713 1.516 . S
C714 C715 1.502 . S
C714 C716 1.561 . S
C714 C717 1.526 . S
C715 H699 0.959 . S
C715 H700 0.959 . S
C715 H701 0.961 . S
C715 C714 1.502 . S
C716 H702 0.960 . S
C716 H703 0.961 . S
C716 H704 0.959 . S
C716 C714 1.561 . S
C717 C714 1.526 . S
C717 C718 1.396 . S
C717 C722 1.390 . S
C718 C712 1.465 . S
C718 C717 1.396 . S
C718 C719 1.399 . S
C719 H705 0.929 . S
C719 C718 1.399 . S
C719 C720 1.385 . S
C720 H706 0.931 . S
C720 C719 1.385 . S
C720 C721 1.389 . S
C721 C720 1.389 . S
C721 C722 1.387 . S
C722 H707 0.930 . S
C722 C717 1.390 . S
C722 C721 1.387 . S
H723 C735 0.930 . S
H724 C737 0.930 . S
H725 C738 0.930 . S
H726 C742 0.959 . S
H727 C742 0.959 . S
H728 C742 0.961 . S
H729 C743 0.960 . S
H730 C743 0.961 . S
H731 C743 0.959 . S
H732 C746 0.929 . S
H733 C747 0.931 . S
H734 C749 0.930 . S
C735 H723 0.930 . S
C735 C736 1.399 . S
C735 C740 1.399 . S
C736 C735 1.399 . S
C736 C737 1.376 . S
C737 H724 0.930 . S
C737 C736 1.376 . S
C737 C738 1.388 . S
C738 H725 0.930 . S
C738 C737 1.388 . S
C738 C739 1.390 . S
C739 C738 1.390 . S
C739 C740 1.394 . S
C739 C745 1.465 . S
C740 C735 1.399 . S
C740 C739 1.394 . S
C740 C741 1.516 . S
C741 C740 1.516 . S
C741 C742 1.502 . S
C741 C743 1.561 . S
C741 C744 1.526 . S
C742 H726 0.959 . S
C742 H727 0.959 . S
C742 H728 0.961 . S
C742 C741 1.502 . S
C743 H729 0.960 . S
C743 H730 0.961 . S
C743 H731 0.959 . S
C743 C741 1.561 . S
C744 C741 1.526 . S
C744 C745 1.396 . S
C744 C749 1.390 . S
C745 C739 1.465 . S
C745 C744 1.396 . S
C745 C746 1.399 . S
C746 H732 0.929 . S
C746 C745 1.399 . S
C746 C747 1.385 . S
C747 H733 0.931 . S
C747 C746 1.385 . S
C747 C748 1.389 . S
C748 C747 1.389 . S
C748 C749 1.387 . S
C749 H734 0.930 . S
C749 C744 1.390 . S
C749 C748 1.387 . S
H750 C762 0.930 . S
H751 C764 0.930 . S
H752 C765 0.930 . S
H753 C769 0.959 . S
H754 C769 0.959 . S
H755 C769 0.961 . S
H756 C770 0.960 . S
H757 C770 0.961 . S
H758 C770 0.959 . S
H759 C773 0.929 . S
H760 C774 0.931 . S
H761 C776 0.930 . S
C762 H750 0.930 . S
C762 C763 1.399 . S
C762 C767 1.399 . S
C763 C762 1.399 . S
C763 C764 1.376 . S
C764 H751 0.930 . S
C764 C763 1.376 . S
C764 C765 1.388 . S
C765 H752 0.930 . S
C765 C764 1.388 . S
C765 C766 1.390 . S
C766 C765 1.390 . S
C766 C767 1.394 . S
C766 C772 1.465 . S
C767 C762 1.399 . S
C767 C766 1.394 . S
C767 C768 1.516 . S
C768 C767 1.516 . S
C768 C769 1.502 . S
C768 C770 1.561 . S
C768 C771 1.526 . S
C769 H753 0.959 . S
C769 H754 0.959 . S
C769 H755 0.961 . S
C769 C768 1.502 . S
C770 H756 0.960 . S
C770 H757 0.961 . S
C770 H758 0.959 . S
C770 C768 1.561 . S
C771 C768 1.526 . S
C771 C772 1.396 . S
C771 C776 1.390 . S
C772 C766 1.465 . S
C772 C771 1.396 . S
C772 C773 1.399 . S
C773 H759 0.929 . S
C773 C772 1.399 . S
C773 C774 1.385 . S
C774 H760 0.931 . S
C774 C773 1.385 . S
C774 C775 1.389 . S
C775 C774 1.389 . S
C775 C776 1.387 . S
C776 H761 0.930 . S
C776 C771 1.390 . S
C776 C775 1.387 . S
H777 C789 0.930 . S
H778 C791 0.930 . S
H779 C792 0.930 . S
H780 C796 0.959 . S
H781 C796 0.959 . S
H782 C796 0.961 . S
H783 C797 0.960 . S
H784 C797 0.961 . S
H785 C797 0.959 . S
H786 C800 0.929 . S
H787 C801 0.931 . S
H788 C803 0.930 . S
C789 H777 0.930 . S
C789 C790 1.399 . S
C789 C794 1.399 . S
C790 C789 1.399 . S
C790 C791 1.376 . S
C791 H778 0.930 . S
C791 C790 1.376 . S
C791 C792 1.388 . S
C792 H779 0.930 . S
C792 C791 1.388 . S
C792 C793 1.390 . S
C793 C792 1.390 . S
C793 C794 1.394 . S
C793 C799 1.465 . S
C794 C789 1.399 . S
C794 C793 1.394 . S
C794 C795 1.516 . S
C795 C794 1.516 . S
C795 C796 1.502 . S
C795 C797 1.561 . S
C795 C798 1.526 . S
C796 H780 0.959 . S
C796 H781 0.959 . S
C796 H782 0.961 . S
C796 C795 1.502 . S
C797 H783 0.960 . S
C797 H784 0.961 . S
C797 H785 0.959 . S
C797 C795 1.561 . S
C798 C795 1.526 . S
C798 C799 1.396 . S
C798 C803 1.390 . S
C799 C793 1.465 . S
C799 C798 1.396 . S
C799 C800 1.399 . S
C800 H786 0.929 . S
C800 C799 1.399 . S
C800 C801 1.385 . S
C801 H787 0.931 . S
C801 C800 1.385 . S
C801 C802 1.389 . S
C802 C801 1.389 . S
C802 C803 1.387 . S
C803 H788 0.930 . S
C803 C798 1.390 . S
C803 C802 1.387 . S
C169 C138 1.472 . S
C181 C8 1.464 . S
C196 C21 1.342 . S
C208 C151 1.363 . S
C223 C34 1.466 . S
C235 C86 1.480 . S
C250 C99 1.456 . S
C262 C47 1.441 . S
C277 C112 1.295 . S
C289 C60 1.287 . S
C304 C73 1.467 . S
C316 C125 1.481 . S
C331 C0 0.952 . S
C343 C91 0.906 . S
C358 C13 0.781 . S
C370 C104 0.827 . S
C385 C117 0.833 . S
C397 C26 0.903 . S
C412 C130 0.923 . S
C424 C39 0.864 . S
C439 C143 0.758 . S
C451 C52 0.774 . S
C466 C78 0.867 . S
C478 C65 0.924 . S
C493 C10 0.880 . S
C505 C57 0.824 . S
C520 C23 0.902 . S
C532 C70 0.919 . S
C547 C36 0.874 . S
C559 C5 0.837 . S
C574 C49 0.802 . S
C586 C18 0.786 . S
C601 C62 0.783 . S
C613 C31 0.780 . S
C628 C75 0.870 . S
C640 C44 0.832 . S
C655 C88 0.889 . S
C667 C109 0.840 . S
C682 C101 0.853 . S
C694 C122 0.869 . S
C709 C135 0.782 . S
C721 C114 0.785 . S
C736 C127 0.827 . S
C748 C148 0.756 . S
C763 C140 0.843 . S
C775 C83 0.858 . S
C790 C153 0.883 . S
C802 C96 0.855 . S
