# Generated by pormake.
# Topology wjd, (6)-cn, num edge types: 1
# Building blocks:
#     Node 0, Type 0, BuildingBlock: MIFKUJ_clean_sbu_0, # of connection points: 6
#     Node 1, Type 0, BuildingBlock: MIFKUJ_clean_sbu_0, # of connection points: 6
#     Node 2, Type 0, BuildingBlock: MIFKUJ_clean_sbu_0, # of connection points: 6
#     Node 3, Type 0, BuildingBlock: MIFKUJ_clean_sbu_0, # of connection points: 6
#     Node 4, Type 0, BuildingBlock: MIFKUJ_clean_sbu_0, # of connection points: 6
#     Node 5, Type 0, BuildingBlock: MIFKUJ_clean_sbu_0, # of connection points: 6
#     Node 6, Type 0, BuildingBlock: MIFKUJ_clean_sbu_0, # of connection points: 6
#     Node 7, Type 0, BuildingBlock: MIFKUJ_clean_sbu_0, # of connection points: 6
#     Node 8, Type 0, BuildingBlock: MIFKUJ_clean_sbu_0, # of connection points: 6
#     Node 9, Type 0, BuildingBlock: MIFKUJ_clean_sbu_0, # of connection points: 6
#     Node 10, Type 0, BuildingBlock: MIFKUJ_clean_sbu_0, # of connection points: 6
#     Node 11, Type 0, BuildingBlock: MIFKUJ_clean_sbu_0, # of connection points: 6
#     Edge 12, Type (0, 0), BuildingBlock: MIFKUJ_clean_linker_0, # of connection points: 2
#     Edge 13, Type (0, 0), BuildingBlock: MIFKUJ_clean_linker_0, # of connection points: 2
#     Edge 14, Type (0, 0), BuildingBlock: MIFKUJ_clean_linker_0, # of connection points: 2
#     Edge 15, Type (0, 0), BuildingBlock: MIFKUJ_clean_linker_0, # of connection points: 2
#     Edge 16, Type (0, 0), BuildingBlock: MIFKUJ_clean_linker_0, # of connection points: 2
#     Edge 17, Type (0, 0), BuildingBlock: MIFKUJ_clean_linker_0, # of connection points: 2
#     Edge 18, Type (0, 0), BuildingBlock: MIFKUJ_clean_linker_0, # of connection points: 2
#     Edge 19, Type (0, 0), BuildingBlock: MIFKUJ_clean_linker_0, # of connection points: 2
#     Edge 20, Type (0, 0), BuildingBlock: MIFKUJ_clean_linker_0, # of connection points: 2
#     Edge 21, Type (0, 0), BuildingBlock: MIFKUJ_clean_linker_0, # of connection points: 2
#     Edge 22, Type (0, 0), BuildingBlock: MIFKUJ_clean_linker_0, # of connection points: 2
#     Edge 23, Type (0, 0), BuildingBlock: MIFKUJ_clean_linker_0, # of connection points: 2
#     Edge 24, Type (0, 0), BuildingBlock: MIFKUJ_clean_linker_0, # of connection points: 2
#     Edge 25, Type (0, 0), BuildingBlock: MIFKUJ_clean_linker_0, # of connection points: 2
#     Edge 26, Type (0, 0), BuildingBlock: MIFKUJ_clean_linker_0, # of connection points: 2
#     Edge 27, Type (0, 0), BuildingBlock: MIFKUJ_clean_linker_0, # of connection points: 2
#     Edge 28, Type (0, 0), BuildingBlock: MIFKUJ_clean_linker_0, # of connection points: 2
#     Edge 29, Type (0, 0), BuildingBlock: MIFKUJ_clean_linker_0, # of connection points: 2
#     Edge 30, Type (0, 0), BuildingBlock: MIFKUJ_clean_linker_0, # of connection points: 2
#     Edge 31, Type (0, 0), BuildingBlock: MIFKUJ_clean_linker_0, # of connection points: 2
#     Edge 32, Type (0, 0), BuildingBlock: MIFKUJ_clean_linker_0, # of connection points: 2
#     Edge 33, Type (0, 0), BuildingBlock: MIFKUJ_clean_linker_0, # of connection points: 2
#     Edge 34, Type (0, 0), BuildingBlock: MIFKUJ_clean_linker_0, # of connection points: 2
#     Edge 35, Type (0, 0), BuildingBlock: MIFKUJ_clean_linker_0, # of connection points: 2
#     Edge 36, Type (0, 0), BuildingBlock: MIFKUJ_clean_linker_0, # of connection points: 2
#     Edge 37, Type (0, 0), BuildingBlock: MIFKUJ_clean_linker_0, # of connection points: 2
#     Edge 38, Type (0, 0), BuildingBlock: MIFKUJ_clean_linker_0, # of connection points: 2
#     Edge 39, Type (0, 0), BuildingBlock: MIFKUJ_clean_linker_0, # of connection points: 2
#     Edge 40, Type (0, 0), BuildingBlock: MIFKUJ_clean_linker_0, # of connection points: 2
#     Edge 41, Type (0, 0), BuildingBlock: MIFKUJ_clean_linker_0, # of connection points: 2
#     Edge 42, Type (0, 0), BuildingBlock: MIFKUJ_clean_linker_0, # of connection points: 2
#     Edge 43, Type (0, 0), BuildingBlock: MIFKUJ_clean_linker_0, # of connection points: 2
#     Edge 44, Type (0, 0), BuildingBlock: MIFKUJ_clean_linker_0, # of connection points: 2
#     Edge 45, Type (0, 0), BuildingBlock: MIFKUJ_clean_linker_0, # of connection points: 2
#     Edge 46, Type (0, 0), BuildingBlock: MIFKUJ_clean_linker_0, # of connection points: 2
#     Edge 47, Type (0, 0), BuildingBlock: MIFKUJ_clean_linker_0, # of connection points: 2
# Relax obj value: 0.078
# Max RMSD: 0.176
# Mean RMSD: 0.176
data_MOF--net-wjd--node1-MIFKUJ_clean_sbu_0--edge1-MIFKUJ_clean_linker_0
_symmetry_space_group_name_H-M    P1
_symmetry_Int_Tables_number       1
_symmetry_cell_setting            triclinic
loop_
_symmetry_equiv_pos_as_xyz
'x, y, z'
_cell_length_a     43.547203
_cell_length_b     43.64393
_cell_length_c     69.446548
_cell_angle_alpha  90.012603
_cell_angle_beta   89.987614
_cell_angle_gamma 119.90197
loop_
_atom_site_label
_atom_site_type_symbol
_atom_site_fract_x
_atom_site_fract_y
_atom_site_fract_z
_atom_type_partial_charge
Zn0 Zn 0.2694 0.08319 0.11635 0.0
Zn1 Zn 0.36377 0.1493 0.11096 0.0
C2 C 0.26371 0.14608 0.10851 0.0
O3 O 0.27891 0.15673 0.12541 0.0
C4 C 0.4261 0.15007 0.09824 0.0
O5 O 0.41731 0.16031 0.08241 0.0
O6 O 0.22361 0.03651 0.1155 0.0
O7 O 0.30602 0.07442 0.10487 0.0
O8 O 0.33664 0.12149 0.08733 0.0
C9 C 0.20667 0.02814 0.09965 0.0
O10 O 0.21951 0.05003 0.08502 0.0
O11 O 0.26013 0.11761 0.10143 0.0
C12 C 0.3994 0.2224 0.12037 0.0
O13 O 0.39591 0.20904 0.13772 0.0
O14 O 0.38538 0.20153 0.10619 0.0
O15 O 0.33956 0.1373 0.13734 0.0
O16 O 0.28282 0.09925 0.14319 0.0
O17 O 0.40625 0.14263 0.11296 0.0
C18 C 0.31631 0.08832 0.08849 0.0
C19 C 0.31366 0.12168 0.149 0.0
Zn20 Zn 0.80845 0.63262 0.39252 0.0
Zn21 Zn 0.81073 0.71611 0.3845 0.0
C22 C 0.73981 0.58026 0.40735 0.0
O23 O 0.75577 0.59033 0.42411 0.0
C24 C 0.87951 0.76912 0.38139 0.0
O25 O 0.86278 0.77433 0.36714 0.0
O26 O 0.83328 0.60444 0.39745 0.0
O27 O 0.81918 0.65166 0.36482 0.0
O28 O 0.81064 0.69706 0.35887 0.0
C29 C 0.83367 0.58523 0.38377 0.0
O30 O 0.82028 0.5865 0.36704 0.0
O31 O 0.75683 0.59544 0.39213 0.0
C32 C 0.80342 0.77508 0.396 0.0
O33 O 0.8188 0.77165 0.41147 0.0
O34 O 0.79561 0.75302 0.38231 0.0
O35 O 0.77878 0.67876 0.40273 0.0
O36 O 0.81576 0.66466 0.4156 0.0
O37 O 0.86219 0.74278 0.39249 0.0
C38 C 0.81756 0.67348 0.35321 0.0
C39 C 0.79501 0.67708 0.4174 0.0
Zn40 Zn 0.91724 0.20509 0.11256 0.0
Zn41 Zn 0.84153 0.21161 0.10557 0.0
C42 C 0.87223 0.13072 0.11692 0.0
O43 O 0.88188 0.14 0.13486 0.0
C44 C 0.83589 0.27097 0.09305 0.0
O45 O 0.81308 0.24697 0.08118 0.0
O46 O 0.96649 0.21189 0.10983 0.0
O47 O 0.91482 0.24179 0.09692 0.0
O48 O 0.86637 0.20538 0.08215 0.0
C49 C 0.97238 0.19867 0.09489 0.0
O50 O 0.94661 0.18162 0.08247 0.0
O51 O 0.88314 0.15454 0.10399 0.0
C52 C 0.76986 0.18552 0.11565 0.0
O53 O 0.78588 0.20276 0.13139 0.0
O54 O 0.78839 0.18351 0.10207 0.0
O55 O 0.85303 0.20379 0.13334 0.0
O56 O 0.90589 0.20976 0.13942 0.0
O57 O 0.85276 0.26243 0.10479 0.0
C58 C 0.89927 0.22756 0.08139 0.0
C59 C 0.87609 0.20496 0.14516 0.0
Zn60 Zn 0.37949 0.17046 0.39175 0.0
Zn61 Zn 0.3092 0.09878 0.37955 0.0
C62 C 0.43619 0.16295 0.40651 0.0
O63 O 0.43254 0.1814 0.42036 0.0
C64 C 0.27303 0.13164 0.36411 0.0
O65 O 0.27189 0.1115 0.34973 0.0
O66 O 0.40976 0.22277 0.39682 0.0
O67 O 0.36211 0.16659 0.36401 0.0
O68 O 0.3451 0.11061 0.35906 0.0
C69 C 0.43248 0.24097 0.38401 0.0
O70 O 0.43377 0.22528 0.36813 0.0
O71 O 0.41463 0.15287 0.39243 0.0
C72 C 0.23838 0.04725 0.38381 0.0
O73 O 0.24141 0.07253 0.39529 0.0
O74 O 0.26544 0.05129 0.3746 0.0
O75 O 0.32423 0.09366 0.40545 0.0
O76 O 0.34558 0.14894 0.41456 0.0
O77 O 0.29098 0.13354 0.37899 0.0
C78 C 0.35732 0.14173 0.35261 0.0
C79 C 0.32975 0.1161 0.41846 0.0
Zn80 Zn 0.79169 0.71299 0.11598 0.0
Zn81 Zn 0.77324 0.62109 0.11136 0.0
C82 C 0.8635 0.72649 0.1081 0.0
O83 O 0.85854 0.70714 0.12351 0.0
C84 C 0.70961 0.56077 0.09878 0.0
O85 O 0.72906 0.56702 0.08324 0.0
O86 O 0.78415 0.75509 0.1161 0.0
O87 O 0.75024 0.67203 0.10396 0.0
O88 O 0.77583 0.64891 0.0873 0.0
C89 C 0.79267 0.77418 0.10102 0.0
O90 O 0.80421 0.76476 0.08592 0.0
O91 O 0.83792 0.72964 0.10162 0.0
C92 C 0.79481 0.57256 0.12047 0.0
O93 O 0.77317 0.56864 0.13466 0.0
O94 O 0.80133 0.59614 0.10783 0.0
O95 O 0.78598 0.64539 0.13776 0.0
O96 O 0.79655 0.70017 0.14262 0.0
O97 O 0.72257 0.58148 0.11311 0.0
C98 C 0.75867 0.66535 0.08777 0.0
C99 C 0.79373 0.67152 0.1489 0.0
Zn100 Zn 0.84838 0.20809 0.38879 0.0
Zn101 Zn 0.91877 0.20011 0.37783 0.0
C102 C 0.86746 0.27702 0.40359 0.0
O103 O 0.85657 0.2591 0.41975 0.0
C104 C 0.87682 0.12788 0.36842 0.0
O105 O 0.89206 0.14139 0.35182 0.0
O106 O 0.7961 0.18876 0.3946 0.0
O107 O 0.84958 0.19298 0.36101 0.0
O108 O 0.90648 0.21605 0.35399 0.0
C109 C 0.78169 0.20299 0.38489 0.0
O110 O 0.80083 0.22712 0.37203 0.0
O111 O 0.86842 0.26116 0.38842 0.0
C112 C 0.97144 0.17975 0.38357 0.0
O113 O 0.94702 0.15772 0.39552 0.0
O114 O 0.96581 0.20145 0.37407 0.0
O115 O 0.92537 0.23077 0.40015 0.0
O116 O 0.87165 0.19749 0.41156 0.0
O117 O 0.88251 0.14866 0.38254 0.0
C118 C 0.87458 0.20383 0.34871 0.0
C119 C 0.90467 0.21781 0.41437 0.0
Zn120 Zn 0.15205 0.37693 0.61497 0.0
Zn121 Zn 0.08359 0.28378 0.62543 0.0
C122 C 0.15067 0.43735 0.59921 0.0
O123 O 0.16922 0.43346 0.58549 0.0
C124 C 0.11723 0.24618 0.63075 0.0
O125 O 0.09532 0.23867 0.64531 0.0
O126 O 0.20521 0.40143 0.61243 0.0
O127 O 0.13814 0.35758 0.64241 0.0
O128 O 0.09523 0.30459 0.65152 0.0
C129 C 0.22274 0.42638 0.62428 0.0
O130 O 0.20549 0.43318 0.63757 0.0
O131 O 0.13977 0.41573 0.61322 0.0
C132 C 0.03279 0.21861 0.60988 0.0
O133 O 0.05888 0.22915 0.59745 0.0
O134 O 0.03638 0.23832 0.62423 0.0
O135 O 0.0791 0.31698 0.6077 0.0
O136 O 0.12873 0.34507 0.59182 0.0
O137 O 0.12004 0.26943 0.61869 0.0
C138 C 0.12037 0.33538 0.6556 0.0
C139 C 0.09565 0.32354 0.59196 0.0
Zn140 Zn 0.20544 0.89718 0.88055 0.0
Zn141 Zn 0.19881 0.82222 0.89062 0.0
C142 C 0.13189 0.86496 0.87198 0.0
O143 O 0.1457 0.87653 0.85488 0.0
C144 C 0.26787 0.83557 0.90295 0.0
O145 O 0.25256 0.8288 0.91993 0.0
O146 O 0.21605 0.94749 0.87826 0.0
O147 O 0.23586 0.89764 0.90172 0.0
O148 O 0.19389 0.84841 0.9139 0.0
C149 C 0.20681 0.95872 0.89282 0.0
O150 O 0.19206 0.9374 0.90753 0.0
O151 O 0.15241 0.86927 0.88608 0.0
C152 C 0.17866 0.75145 0.88451 0.0
O153 O 0.19661 0.76666 0.86878 0.0
O154 O 0.17452 0.77037 0.89701 0.0
O155 O 0.1816 0.8248 0.86347 0.0
O156 O 0.21576 0.8812 0.85616 0.0
O157 O 0.25052 0.83577 0.88824 0.0
C158 C 0.21898 0.87993 0.91627 0.0
C159 C 0.19709 0.8492 0.85098 0.0
Zn160 Zn 0.62626 0.78461 0.60702 0.0
Zn161 Zn 0.72179 0.81277 0.61376 0.0
C162 C 0.57469 0.7113 0.59818 0.0
O163 O 0.58829 0.71977 0.58081 0.0
C164 C 0.72687 0.87992 0.60257 0.0
O165 O 0.70538 0.87422 0.6171 0.0
O166 O 0.59902 0.80955 0.60002 0.0
O167 O 0.65069 0.80202 0.63328 0.0
O168 O 0.70695 0.81879 0.63968 0.0
C169 C 0.59341 0.8285 0.61185 0.0
O170 O 0.60892 0.83554 0.62877 0.0
O171 O 0.58746 0.73427 0.61152 0.0
C172 C 0.78764 0.82164 0.60035 0.0
O173 O 0.77693 0.83074 0.5848 0.0
O174 O 0.76765 0.81144 0.61514 0.0
O175 O 0.68385 0.76758 0.60309 0.0
O176 O 0.65534 0.78425 0.58402 0.0
O177 O 0.73354 0.85581 0.59763 0.0
C178 C 0.67671 0.81342 0.645 0.0
C179 C 0.6758 0.77163 0.58622 0.0
Zn180 Zn 0.11278 0.27996 0.88517 0.0
Zn181 Zn 0.1825 0.37371 0.89694 0.0
C182 C 0.16915 0.26314 0.8828 0.0
O183 O 0.17406 0.27826 0.86587 0.0
C184 C 0.15484 0.4187 0.91239 0.0
O185 O 0.14845 0.40103 0.9286 0.0
O186 O 0.06403 0.23676 0.88223 0.0
O187 O 0.10883 0.31283 0.90318 0.0
O188 O 0.15818 0.33952 0.91941 0.0
C189 C 0.05623 0.20887 0.89172 0.0
O190 O 0.07991 0.20876 0.90339 0.0
O191 O 0.14624 0.26317 0.89416 0.0
C192 C 0.25818 0.40889 0.88779 0.0
O193 O 0.24706 0.39492 0.87067 0.0
O194 O 0.23565 0.40167 0.90119 0.0
O195 O 0.17121 0.35734 0.86869 0.0
O196 O 0.12856 0.30372 0.86012 0.0
O197 O 0.16811 0.41082 0.89825 0.0
C198 C 0.12523 0.31737 0.91885 0.0
C199 C 0.15314 0.33459 0.85577 0.0
Zn200 Zn 0.21144 0.84432 0.60881 0.0
Zn201 Zn 0.21618 0.92024 0.62016 0.0
C202 C 0.27387 0.84544 0.59543 0.0
O203 O 0.25264 0.83016 0.58074 0.0
C204 C 0.14461 0.89489 0.62433 0.0
O205 O 0.15926 0.91397 0.63982 0.0
O206 O 0.18478 0.79274 0.60107 0.0
O207 O 0.19752 0.84769 0.63679 0.0
O208 O 0.21924 0.90352 0.64593 0.0
C209 C 0.16057 0.76837 0.61117 0.0
O210 O 0.14915 0.77688 0.62665 0.0
O211 O 0.26253 0.85536 0.60966 0.0
C212 C 0.21205 0.97878 0.60649 0.0
O213 O 0.19618 0.9556 0.59267 0.0
O214 O 0.22526 0.97058 0.62059 0.0
O215 O 0.25073 0.91865 0.60228 0.0
O216 O 0.20867 0.87429 0.58693 0.0
O217 O 0.16447 0.89104 0.61226 0.0
C218 C 0.20464 0.87081 0.64991 0.0
C219 C 0.23502 0.90548 0.58662 0.0
Zn220 Zn 0.71113 0.79832 0.87582 0.0
Zn221 Zn 0.64025 0.80049 0.88745 0.0
C222 C 0.75147 0.86861 0.86485 0.0
O223 O 0.75372 0.85125 0.84995 0.0
C224 C 0.58688 0.734 0.90102 0.0
O225 O 0.59092 0.75411 0.91599 0.0
O226 O 0.75447 0.79278 0.8723 0.0
O227 O 0.68761 0.77157 0.89931 0.0
O228 O 0.67333 0.80995 0.91035 0.0
C229 C 0.77813 0.80777 0.88523 0.0
O230 O 0.77223 0.82421 0.89936 0.0
O231 O 0.73159 0.85105 0.87884 0.0
C232 C 0.58419 0.81342 0.88024 0.0
O233 O 0.58485 0.79712 0.86446 0.0
O234 O 0.6073 0.81976 0.89319 0.0
O235 O 0.65883 0.81714 0.86017 0.0
O236 O 0.68025 0.78217 0.85284 0.0
O237 O 0.60685 0.74775 0.88646 0.0
C238 C 0.68472 0.78856 0.91327 0.0
C239 C 0.66572 0.79989 0.84776 0.0
H240 H 0.99162 0.17131 0.06494 0.0
H241 H 0.04669 0.16991 0.06119 0.0
H242 H 0.08677 0.2294 0.11375 0.0
H243 H 0.03158 0.23081 0.11773 0.0
H244 H 0.13824 0.25018 0.08307 0.0
H245 H 0.05163 0.14556 0.11714 0.0
H246 H 0.99382 0.09155 0.12157 0.0
H247 H 0.00938 0.04821 0.06941 0.0
H248 H 0.06722 0.10224 0.06455 0.0
H249 H 0.25831 0.20191 0.1223 0.0
H250 H 0.21476 0.21868 0.11294 0.0
H251 H 0.1793 0.14279 0.06659 0.0
H252 H 0.22247 0.12541 0.07606 0.0
H253 H 0.12595 0.13127 0.08894 0.0
H254 H 0.21684 0.23213 0.05735 0.0
H255 H 0.27518 0.28563 0.05316 0.0
H256 H 0.25273 0.33596 0.09987 0.0
H257 H 0.19442 0.28256 0.10452 0.0
C258 C 0.01221 0.18435 0.07566 0.0
C259 C 0.007 0.20071 0.09182 0.0
C260 C 0.04369 0.18358 0.07344 0.0
C261 C 0.07058 0.19926 0.08728 0.0
C262 C 0.06627 0.21717 0.10291 0.0
C263 C 0.03466 0.21777 0.10521 0.0
C264 C 0.10191 0.19448 0.08634 0.0
C265 C 0.13573 0.22427 0.08445 0.0
C266 C 0.09836 0.16052 0.08753 0.0
C267 C 0.06349 0.12814 0.09033 0.0
C268 C 0.04254 0.12468 0.1065 0.0
C269 C 0.00981 0.09402 0.10912 0.0
C270 C 0.99782 0.06651 0.09574 0.0
C271 C 0.01862 0.06959 0.07972 0.0
C272 C 0.0514 0.10021 0.07704 0.0
C273 C 0.24192 0.18941 0.10979 0.0
C274 C 0.24356 0.16195 0.10011 0.0
C275 C 0.21709 0.19918 0.10438 0.0
C276 C 0.19364 0.18195 0.08907 0.0
C277 C 0.19702 0.15636 0.07849 0.0
C278 C 0.22181 0.14652 0.08391 0.0
C279 C 0.16275 0.18708 0.08595 0.0
C280 C 0.12876 0.15725 0.08715 0.0
C281 C 0.16626 0.221 0.08408 0.0
C282 C 0.20134 0.2532 0.08138 0.0
C283 C 0.22445 0.25449 0.06684 0.0
C284 C 0.2575 0.28483 0.06436 0.0
C285 C 0.26769 0.31415 0.07627 0.0
C286 C 0.24481 0.31321 0.09066 0.0
C287 C 0.21173 0.28293 0.0932 0.0
H288 H 0.29328 0.33761 0.07432 0.0
H289 H 0.97248 0.04278 0.09781 0.0
H290 H 0.17567 0.04472 0.38017 0.0
H291 H 0.11673 0.99255 0.38105 0.0
H292 H 0.16343 0.92566 0.38492 0.0
H293 H 0.22284 0.97826 0.38304 0.0
H294 H 0.10604 0.89377 0.36419 0.0
H295 H 0.13205 0.94874 0.42538 0.0
H296 H 0.15188 0.99727 0.44884 0.0
H297 H 0.06614 0.0137 0.43235 0.0
H298 H 0.04625 0.96577 0.40841 0.0
H299 H 0.93019 0.7576 0.39798 0.0
H300 H 0.99417 0.80027 0.40036 0.0
H301 H 0.97737 0.88033 0.3742 0.0
H302 H 0.91423 0.83791 0.3712 0.0
H303 H 0.02219 0.89852 0.4109 0.0
H304 H 0.00458 0.84788 0.34583 0.0
H305 H 0.98532 0.79738 0.32368 0.0
H306 H 0.0565 0.76958 0.35103 0.0
H307 H 0.07577 0.81966 0.37355 0.0
C308 C 0.17328 0.01881 0.38098 0.0
C309 C 0.20354 0.01531 0.38175 0.0
C310 C 0.13964 0.98903 0.38161 0.0
C311 C 0.13559 0.9552 0.38373 0.0
C312 C 0.16589 0.95151 0.3835 0.0
C313 C 0.19974 0.98144 0.38239 0.0
C314 C 0.0997 0.92419 0.38674 0.0
C315 C 0.088 0.89458 0.37469 0.0
C316 C 0.07605 0.92492 0.40055 0.0
C317 C 0.0877 0.95365 0.41505 0.0
C318 C 0.11751 0.96279 0.42667 0.0
C319 C 0.12875 0.9902 0.44007 0.0
C320 C 0.11013 0.00841 0.44218 0.0
C321 C 0.08041 0.99943 0.43077 0.0
C322 C 0.06915 0.97215 0.41727 0.0
C323 C 0.94026 0.78439 0.39289 0.0
C324 C 0.91742 0.79453 0.38437 0.0
C325 C 0.97665 0.8086 0.39421 0.0
C326 C 0.99027 0.8433 0.38742 0.0
C327 C 0.96727 0.85365 0.37952 0.0
C328 C 0.93127 0.82939 0.37778 0.0
C329 C 0.02858 0.86909 0.38797 0.0
C330 C 0.04064 0.89762 0.40073 0.0
C331 C 0.05264 0.86703 0.37513 0.0
C332 C 0.04123 0.83717 0.36152 0.0
C333 C 0.01583 0.83077 0.34725 0.0
C334 C 0.00498 0.80228 0.3346 0.0
C335 C 0.01958 0.7802 0.33599 0.0
C336 C 0.04515 0.78665 0.35 0.0
C337 C 0.05605 0.81508 0.3627 0.0
H338 H 0.01115 0.75817 0.32619 0.0
H339 H 0.11873 0.0295 0.45261 0.0
H340 H 0.82844 0.07643 0.14008 0.0
H341 H 0.80616 0.01357 0.13477 0.0
H342 H 0.85197 0.03609 0.07786 0.0
H343 H 0.87362 0.09933 0.08294 0.0
H344 H 0.78925 0.97221 0.0791 0.0
H345 H 0.89824 0.03038 0.1144 0.0
H346 H 0.93814 0.06784 0.14024 0.0
H347 H 0.86783 0.99571 0.18283 0.0
H348 H 0.82703 0.9582 0.15727 0.0
H349 H 0.81499 0.82314 0.07219 0.0
H350 H 0.82004 0.8813 0.07285 0.0
H351 H 0.77619 0.86092 0.1302 0.0
H352 H 0.77129 0.80255 0.12971 0.0
H353 H 0.83653 0.92341 0.12791 0.0
H354 H 0.72872 0.86328 0.09128 0.0
H355 H 0.69111 0.82608 0.06468 0.0
H356 H 0.76225 0.90152 0.02353 0.0
H357 H 0.80059 0.93895 0.04988 0.0
C358 C 0.83309 0.06794 0.12626 0.0
C359 C 0.85313 0.09275 0.11201 0.0
C360 C 0.8204 0.03201 0.12326 0.0
C361 C 0.82816 0.02025 0.10611 0.0
C362 C 0.84585 0.04464 0.09125 0.0
C363 C 0.85819 0.08073 0.09415 0.0
C364 C 0.82105 0.98333 0.10467 0.0
C365 C 0.79981 0.96157 0.08965 0.0
C366 C 0.83464 0.96939 0.11853 0.0
C367 C 0.8594 0.99166 0.13393 0.0
C368 C 0.89115 0.02263 0.12928 0.0
C369 C 0.91395 0.04386 0.14387 0.0
C370 C 0.90553 0.03417 0.16316 0.0
C371 C 0.8743 0.0032 0.16789 0.0
C372 C 0.85131 0.98195 0.15336 0.0
C373 C 0.80585 0.8307 0.08484 0.0
C374 C 0.7927 0.80813 0.10089 0.0
C375 C 0.80868 0.864 0.08516 0.0
C376 C 0.79821 0.87537 0.1015 0.0
C377 C 0.78436 0.85263 0.11742 0.0
C378 C 0.78153 0.81927 0.11711 0.0
C379 C 0.80418 0.91192 0.10254 0.0
C380 C 0.82561 0.93382 0.11743 0.0
C381 C 0.79107 0.92593 0.08843 0.0
C382 C 0.76768 0.90379 0.07257 0.0
C383 C 0.73646 0.87184 0.07656 0.0
C384 C 0.715 0.85073 0.06152 0.0
C385 C 0.72433 0.86139 0.04242 0.0
C386 C 0.75507 0.89328 0.03833 0.0
C387 C 0.77665 0.91448 0.05331 0.0
H388 H 0.7077 0.84497 0.0308 0.0
H389 H 0.92323 0.05065 0.17443 0.0
H390 H 0.26659 0.17332 0.39163 0.0
H391 H 0.21947 0.18821 0.39424 0.0
H392 H 0.17473 0.1341 0.34067 0.0
H393 H 0.22229 0.12041 0.33761 0.0
H394 H 0.1663 0.18831 0.34241 0.0
H395 H 0.14332 0.09318 0.38524 0.0
H396 H 0.15819 0.06416 0.41119 0.0
H397 H 0.16935 0.14426 0.45106 0.0
H398 H 0.15485 0.17398 0.4253 0.0
H399 H 0.98174 0.12445 0.39119 0.0
H400 H 0.03576 0.1214 0.38712 0.0
H401 H 0.09073 0.22967 0.36748 0.0
H402 H 0.03594 0.23211 0.37057 0.0
H403 H 0.0956 0.15031 0.4026 0.0
H404 H 0.15767 0.24504 0.33751 0.0
H405 H 0.13849 0.26465 0.3089 0.0
H406 H 0.03875 0.16774 0.30923 0.0
H407 H 0.05751 0.14739 0.33768 0.0
C408 C 0.2471 0.1652 0.38023 0.0
C409 C 0.24805 0.1454 0.3645 0.0
C410 C 0.22002 0.17351 0.3818 0.0
C411 C 0.19303 0.16161 0.36786 0.0
C412 C 0.19511 0.14353 0.35165 0.0
C413 C 0.22236 0.13562 0.34995 0.0
C414 C 0.16147 0.16592 0.37064 0.0
C415 C 0.15096 0.18021 0.35562 0.0
C416 C 0.14076 0.1544 0.38764 0.0
C417 C 0.1484 0.13603 0.4033 0.0
C418 C 0.14907 0.10468 0.39953 0.0
C419 C 0.15745 0.08812 0.41418 0.0
C420 C 0.16494 0.10251 0.43271 0.0
C421 C 0.16366 0.13324 0.43668 0.0
C422 C 0.15532 0.14993 0.42206 0.0
C423 C 0.00531 0.14758 0.38592 0.0
C424 C 0.00455 0.17846 0.38109 0.0
C425 C 0.0363 0.14587 0.38368 0.0
C426 C 0.06747 0.17517 0.37682 0.0
C427 C 0.06694 0.20637 0.37236 0.0
C428 C 0.03564 0.20783 0.3742 0.0
C429 C 0.10024 0.17271 0.37432 0.0
C430 C 0.11104 0.15876 0.38943 0.0
C431 C 0.12028 0.18304 0.35705 0.0
C432 C 0.10886 0.19492 0.33986 0.0
C433 C 0.13169 0.2279 0.33144 0.0
C434 C 0.12089 0.23914 0.31526 0.0
C435 C 0.08737 0.21751 0.3073 0.0
C436 C 0.06464 0.18453 0.31546 0.0
C437 C 0.07533 0.17315 0.33162 0.0
H438 H 0.07905 0.22627 0.29478 0.0
H439 H 0.1717 0.08982 0.444 0.0
H440 H 0.15888 0.00892 0.07035 0.0
H441 H 0.10193 0.95436 0.06729 0.0
H442 H 0.1209 0.91663 0.12085 0.0
H443 H 0.17789 0.97142 0.12418 0.0
H444 H 0.09349 0.86509 0.08974 0.0
H445 H 0.07002 0.94927 0.12263 0.0
H446 H 0.0721 0.0065 0.12614 0.0
H447 H 0.01428 0.9882 0.07331 0.0
H448 H 0.01234 0.93103 0.06933 0.0
H449 H 0.92542 0.73543 0.12304 0.0
H450 H 0.98502 0.78318 0.11616 0.0
H451 H 0.94437 0.82036 0.07064 0.0
H452 H 0.88424 0.77305 0.07786 0.0
H453 H 0.98357 0.87248 0.09333 0.0
H454 H 1.00057 0.786 0.06157 0.0
H455 H 0.99891 0.72923 0.05676 0.0
H456 H 0.06868 0.75138 0.10494 0.0
H457 H 0.07038 0.80808 0.11022 0.0
C458 C 0.15105 0.98899 0.08146 0.0
C459 C 0.17277 0.99459 0.0976 0.0
C460 C 0.11851 0.95785 0.07967 0.0
C461 C 0.10724 0.93161 0.09388 0.0
C462 C 0.12924 0.93662 0.10973 0.0
C463 C 0.16165 0.96798 0.11166 0.0
C464 C 0.07178 0.89962 0.09263 0.0
C465 C 0.06936 0.86651 0.09067 0.0
C466 C 0.04049 0.90184 0.09313 0.0
C467 C 0.04142 0.93608 0.09557 0.0
C468 C 0.05804 0.95759 0.11167 0.0
C469 C 0.05914 0.98999 0.11376 0.0
C470 C 0.04344 0.00103 0.09992 0.0
C471 C 0.0265 0.97964 0.084 0.0
C472 C 0.02538 0.94723 0.08182 0.0
C473 C 0.92914 0.75323 0.11127 0.0
C474 C 0.89996 0.75059 0.10114 0.0
C475 C 0.9634 0.78052 0.10727 0.0
C476 C 0.96934 0.80544 0.09284 0.0
C477 C 0.94047 0.80157 0.0819 0.0
C478 C 0.9061 0.77439 0.08599 0.0
C479 C 0.00492 0.83741 0.09072 0.0
C480 C 0.0075 0.87075 0.09209 0.0
C481 C 0.03632 0.83535 0.08946 0.0
C482 C 0.03538 0.80122 0.08637 0.0
C483 C 0.01534 0.77866 0.07124 0.0
C484 C 0.01443 0.7465 0.06841 0.0
C485 C 0.03362 0.73667 0.08056 0.0
C486 C 0.05381 0.75902 0.09554 0.0
C487 C 0.0548 0.7912 0.09844 0.0
H488 H 0.03289 0.71177 0.07834 0.0
H489 H 0.04434 0.02613 0.10158 0.0
H490 H 0.79228 0.80142 0.36263 0.0
H491 H 0.79556 0.85859 0.35813 0.0
H492 H 0.81083 0.87838 0.41918 0.0
H493 H 0.80784 0.82133 0.42382 0.0
H494 H 0.76574 0.9013 0.40182 0.0
H495 H 0.88148 0.91451 0.39442 0.0
H496 H 0.92501 0.89938 0.38156 0.0
H497 H 0.90237 0.91825 0.32399 0.0
H498 H 0.85857 0.93346 0.33657 0.0
H499 H 0.85622 0.09085 0.40236 0.0
H500 H 0.83416 0.02765 0.40685 0.0
H501 H 0.83375 0.01403 0.34529 0.0
H502 H 0.85627 0.07715 0.34072 0.0
H503 H 0.86844 0.98642 0.36267 0.0
H504 H 0.75617 0.98013 0.3717 0.0
H505 H 0.71439 0.99633 0.38601 0.0
H506 H 0.73138 0.96524 0.44186 0.0
H507 H 0.77367 0.94931 0.42793 0.0
C508 C 0.79566 0.81761 0.37515 0.0
C509 C 0.80011 0.807 0.39357 0.0
C510 C 0.79761 0.85029 0.37255 0.0
C511 C 0.80373 0.87279 0.38831 0.0
C512 C 0.80607 0.86138 0.40685 0.0
C513 C 0.80452 0.82886 0.40944 0.0
C514 C 0.8109 0.90938 0.38521 0.0
C515 C 0.78828 0.92008 0.39338 0.0
C516 C 0.84013 0.93365 0.37405 0.0
C517 C 0.86651 0.92473 0.3664 0.0
C518 C 0.8856 0.91518 0.37901 0.0
C519 C 0.91037 0.90665 0.37178 0.0
C520 C 0.91632 0.90764 0.35196 0.0
C521 C 0.89767 0.91741 0.33934 0.0
C522 C 0.87294 0.92608 0.34651 0.0
C523 C 0.85075 0.07427 0.38977 0.0
C524 C 0.85823 0.08907 0.37119 0.0
C525 C 0.83805 0.0381 0.39235 0.0
C526 C 0.83223 0.01602 0.3764 0.0
C527 C 0.83817 0.03054 0.35782 0.0
C528 C 0.85099 0.06665 0.35523 0.0
C529 C 0.82301 0.97859 0.37907 0.0
C530 C 0.84554 0.9677 0.37092 0.0
C531 C 0.79385 0.95437 0.39038 0.0
C532 C 0.76834 0.96383 0.39879 0.0
C533 C 0.75122 0.97701 0.38706 0.0
C534 C 0.7274 0.9861 0.3951 0.0
C535 C 0.7203 0.9819 0.41484 0.0
C536 C 0.73694 0.96851 0.42658 0.0
C537 C 0.7608 0.95942 0.41861 0.0
H538 H 0.70185 0.98894 0.42104 0.0
H539 H 0.93546 0.90095 0.34639 0.0
H540 H 0.25544 0.04087 0.62538 0.0
H541 H 0.24912 0.09357 0.62696 0.0
H542 H 0.15675 0.04232 0.59044 0.0
H543 H 0.16432 0.99085 0.58791 0.0
H544 H 0.18656 0.10595 0.58197 0.0
H545 H 0.15329 0.04484 0.64221 0.0
H546 H 0.1608 0.01735 0.67153 0.0
H547 H 0.24847 0.11722 0.68893 0.0
H548 H 0.24172 0.14522 0.65957 0.0
H549 H 0.10196 0.18552 0.64915 0.0
H550 H 0.12567 0.14666 0.64315 0.0
H551 H 0.19542 0.21835 0.5997 0.0
H552 H 0.17022 0.25706 0.60511 0.0
H553 H 0.18406 0.15002 0.64743 0.0
H554 H 0.21126 0.17105 0.56533 0.0
H555 H 0.18907 0.18798 0.53688 0.0
H556 H 0.0885 0.15081 0.56464 0.0
H557 H 0.1099 0.13316 0.5931 0.0
C558 C 0.23407 0.04114 0.61754 0.0
C559 C 0.2102 0.01168 0.60667 0.0
C560 C 0.23034 0.07117 0.6185 0.0
C561 C 0.20189 0.07175 0.6092 0.0
C562 C 0.17888 0.04272 0.59778 0.0
C563 C 0.18315 0.01316 0.59641 0.0
C564 C 0.19449 0.1013 0.61225 0.0
C565 C 0.18625 0.11572 0.59629 0.0
C566 C 0.19317 0.11366 0.63093 0.0
C567 C 0.19729 0.097 0.6486 0.0
C568 C 0.17431 0.06087 0.65223 0.0
C569 C 0.17841 0.04521 0.66886 0.0
C570 C 0.20517 0.0655 0.68205 0.0
C571 C 0.22781 0.10153 0.67867 0.0
C572 C 0.22386 0.11731 0.66205 0.0
C573 C 0.12248 0.19329 0.63835 0.0
C574 C 0.13417 0.22443 0.62758 0.0
C575 C 0.13616 0.17098 0.63497 0.0
C576 C 0.16229 0.17933 0.62091 0.0
C577 C 0.17487 0.21098 0.61044 0.0
C578 C 0.16063 0.23319 0.6136 0.0
C579 C 0.17529 0.1541 0.61722 0.0
C580 C 0.18485 0.14064 0.63307 0.0
C581 C 0.17562 0.1411 0.59857 0.0
C582 C 0.1624 0.1513 0.58144 0.0
C583 C 0.1844 0.16644 0.56533 0.0
C584 C 0.17195 0.17613 0.54921 0.0
C585 C 0.13745 0.17062 0.54899 0.0
C586 C 0.11526 0.15521 0.56486 0.0
C587 C 0.12755 0.14538 0.58099 0.0
H588 H 0.12789 0.1782 0.53652 0.0
H589 H 0.20831 0.05334 0.69492 0.0
H590 H 0.07921 0.8288 0.84611 0.0
H591 H 0.01685 0.812 0.84898 0.0
H592 H 0.03608 0.8552 0.90652 0.0
H593 H 0.09816 0.87012 0.90403 0.0
H594 H 0.97433 0.80119 0.90614 0.0
H595 H 0.03305 0.90131 0.86395 0.0
H596 H 0.06783 0.93571 0.83584 0.0
H597 H 0.99071 0.85806 0.79774 0.0
H598 H 0.9557 0.8229 0.82559 0.0
H599 H 0.83243 0.83722 0.91107 0.0
H600 H 0.88985 0.84045 0.90925 0.0
H601 H 0.85941 0.78273 0.8557 0.0
H602 H 0.8017 0.77976 0.85728 0.0
H603 H 0.9248 0.84064 0.85366 0.0
H604 H 0.86387 0.74356 0.89786 0.0
H605 H 0.82872 0.71457 0.92691 0.0
H606 H 0.91106 0.79271 0.96258 0.0
H607 H 0.94652 0.82245 0.93374 0.0
C608 C 0.06995 0.83419 0.85948 0.0
C609 C 0.09351 0.8509 0.87481 0.0
C610 C 0.03434 0.82487 0.86106 0.0
C611 C 0.02177 0.83328 0.87775 0.0
C612 C 0.04502 0.84857 0.89343 0.0
C613 C 0.08051 0.85707 0.89202 0.0
C614 C 0.98491 0.82733 0.8786 0.0
C615 C 0.96371 0.81015 0.89472 0.0
C616 C 0.97053 0.83847 0.86361 0.0
C617 C 0.99191 0.85932 0.84686 0.0
C618 C 0.02366 0.89143 0.84958 0.0
C619 C 0.04337 0.91109 0.8337 0.0
C620 C 0.03144 0.89911 0.81504 0.0
C621 C 0.99988 0.86733 0.8122 0.0
C622 C 0.9801 0.84752 0.82802 0.0
C623 C 0.83774 0.82496 0.89893 0.0
C624 C 0.81237 0.80816 0.88431 0.0
C625 C 0.87061 0.82668 0.89798 0.0
C626 C 0.87885 0.81143 0.88248 0.0
C627 C 0.85358 0.79455 0.86786 0.0
C628 C 0.82058 0.7928 0.86879 0.0
C629 C 0.91444 0.81461 0.88114 0.0
C630 C 0.93541 0.8314 0.86496 0.0
C631 C 0.92876 0.80371 0.89622 0.0
C632 C 0.90776 0.78538 0.91361 0.0
C633 C 0.87441 0.75467 0.91189 0.0
C634 C 0.85443 0.73809 0.92833 0.0
C635 C 0.86761 0.75183 0.94658 0.0
C636 C 0.90087 0.7821 0.94844 0.0
C637 C 0.92095 0.7988 0.93205 0.0
H638 H 0.85207 0.73901 0.95929 0.0
H639 H 0.04662 0.91449 0.80277 0.0
H640 H 0.77751 0.90213 0.57437 0.0
H641 H 0.82702 0.96212 0.57006 0.0
H642 H 0.78141 1.00051 0.61214 0.0
H643 H 0.73148 0.94082 0.61628 0.0
H644 H 0.81715 0.04993 0.58437 0.0
H645 H 0.83803 0.97278 0.62589 0.0
H646 H 0.84062 0.91885 0.63334 0.0
H647 H 0.91754 0.94394 0.58856 0.0
H648 H 0.91499 0.99781 0.58063 0.0
H649 H 0.96811 0.19439 0.62716 0.0
H650 H 0.91378 0.13806 0.62122 0.0
H651 H 0.96923 0.10958 0.57989 0.0
H652 H 0.02347 0.1656 0.58575 0.0
H653 H 0.92948 0.05552 0.60393 0.0
H654 H 0.91359 0.13578 0.56454 0.0
H655 H 0.91184 0.1901 0.55711 0.0
H656 H 0.82645 0.15968 0.59727 0.0
H657 H 0.82818 0.10545 0.60519 0.0
C658 C 0.77743 0.92347 0.58229 0.0
C659 C 0.75093 0.91656 0.596 0.0
C660 C 0.80584 0.95775 0.57985 0.0
C661 C 0.80837 0.98555 0.5912 0.0
C662 C 0.78014 0.97936 0.60337 0.0
C663 C 0.75159 0.94514 0.60574 0.0
C664 C 0.84203 0.01973 0.59229 0.0
C665 C 0.84169 0.05122 0.58873 0.0
C666 C 0.8742 0.02131 0.59766 0.0
C667 C 0.87605 0.98914 0.60255 0.0
C668 C 0.85533 0.96669 0.61755 0.0
C669 C 0.85679 0.93614 0.62186 0.0
C670 C 0.87921 0.92797 0.61142 0.0
C671 C 0.90018 0.95032 0.59663 0.0
C672 C 0.89874 0.98086 0.59222 0.0
C673 C 0.96868 0.17609 0.61683 0.0
C674 C 0.99996 0.18449 0.60684 0.0
C675 C 0.93762 0.14404 0.61336 0.0
C676 C 0.93739 0.11985 0.59991 0.0
C677 C 0.96877 0.12795 0.59021 0.0
C678 C 0.99969 0.16004 0.59354 0.0
C679 C 0.90458 0.08581 0.59619 0.0
C680 C 0.90508 0.05431 0.59933 0.0
C681 C 0.87267 0.08427 0.59041 0.0
C682 C 0.87125 0.11668 0.58557 0.0
C683 C 0.89464 0.1408 0.57189 0.0
C684 C 0.89362 0.17156 0.56758 0.0
C685 C 0.86908 0.17837 0.57674 0.0
C686 C 0.84547 0.15438 0.5902 0.0
C687 C 0.84645 0.12361 0.5946 0.0
H688 H 0.86831 0.20219 0.57339 0.0
H689 H 0.88042 0.90441 0.61485 0.0
H690 H 0.15701 0.21985 0.91391 0.0
H691 H 0.17361 0.1742 0.91713 0.0
H692 H 0.23194 0.20833 0.86382 0.0
H693 H 0.21545 0.25393 0.86044 0.0
H694 H 0.18273 0.13807 0.86379 0.0
H695 H 0.27524 0.21956 0.90576 0.0
H696 H 0.29996 0.26051 0.93325 0.0
H697 H 0.23544 0.17635 0.97226 0.0
H698 H 0.20996 0.13497 0.94497 0.0
H699 H 0.23686 0.01032 0.86523 0.0
H700 H 0.23996 0.06787 0.86504 0.0
H701 H 0.18821 0.04496 0.92041 0.0
H702 H 0.18579 0.98792 0.92094 0.0
H703 H 0.23872 0.11234 0.91894 0.0
H704 H 0.14161 0.03323 0.87913 0.0
H705 H 0.11217 0.99023 0.85296 0.0
H706 H 0.17934 0.06757 0.81138 0.0
H707 H 0.20957 0.11095 0.8374 0.0
C708 C 0.17408 0.21822 0.9031 0.0
C709 C 0.18461 0.24031 0.88681 0.0
C710 C 0.18359 0.19213 0.90498 0.0
C711 C 0.20393 0.18783 0.89067 0.0
C712 C 0.21613 0.21114 0.87498 0.0
C713 C 0.20672 0.23725 0.87311 0.0
C714 C 0.20933 0.15688 0.89102 0.0
C715 C 0.19568 0.13284 0.87566 0.0
C716 C 0.22501 0.14944 0.90684 0.0
C717 C 0.24049 0.17423 0.92329 0.0
C718 C 0.26612 0.20984 0.92018 0.0
C719 C 0.28031 0.23312 0.93574 0.0
C720 C 0.26923 0.22106 0.95449 0.0
C721 C 0.24399 0.18566 0.95773 0.0
C722 C 0.2297 0.16227 0.94222 0.0
C723 C 0.22641 0.01767 0.87743 0.0
C724 C 0.21076 0.9944 0.893 0.0
C725 C 0.22814 0.05053 0.87729 0.0
C726 C 0.21386 0.06051 0.89259 0.0
C727 C 0.19939 0.03784 0.90845 0.0
C728 C 0.19785 0.00512 0.90866 0.0
C729 C 0.21225 0.09366 0.89167 0.0
C730 C 0.22631 0.11791 0.90694 0.0
C731 C 0.19634 0.10107 0.87593 0.0
C732 C 0.17812 0.07518 0.86023 0.0
C733 C 0.15029 0.04098 0.86442 0.0
C734 C 0.13342 0.01655 0.84961 0.0
C735 C 0.14393 0.0261 0.83051 0.0
C736 C 0.17127 0.06018 0.82619 0.0
C737 C 0.18828 0.08471 0.84096 0.0
H738 H 0.13083 0.00713 0.81906 0.0
H739 H 0.28023 0.23912 0.96651 0.0
H740 H 0.10477 0.85739 0.59295 0.0
H741 H 0.04309 0.84114 0.58593 0.0
H742 H 0.03756 0.88732 0.63977 0.0
H743 H 0.09844 0.90334 0.64694 0.0
H744 H 0.97784 0.80018 0.60715 0.0
H745 H 0.998 0.9361 0.63043 0.0
H746 H 0.0463 0.99814 0.63208 0.0
H747 H 0.09947 0.97991 0.58518 0.0
H748 H 0.0514 0.91792 0.58314 0.0
H749 H 0.81621 0.79865 0.62815 0.0
H750 H 0.87635 0.8074 0.62917 0.0
H751 H 0.90016 0.86268 0.57493 0.0
H752 H 0.8402 0.85376 0.57368 0.0
H753 H 0.95168 0.89848 0.60292 0.0
H754 H 0.88838 0.78316 0.57485 0.0
H755 H 0.84062 0.72104 0.57266 0.0
H756 H 0.87398 0.69808 0.62629 0.0
H757 H 0.92163 0.76023 0.62895 0.0
C758 C 0.09023 0.86369 0.60336 0.0
C759 C 0.10662 0.88186 0.62044 0.0
C760 C 0.05504 0.85436 0.59935 0.0
C761 C 0.03599 0.86343 0.61224 0.0
C762 C 0.05194 0.88044 0.62954 0.0
C763 C 0.0868 0.88952 0.6336 0.0
C764 C 0.99991 0.85664 0.60754 0.0
C765 C 0.97208 0.82162 0.60611 0.0
C766 C 0.99258 0.88471 0.60598 0.0
C767 C 0.0212 0.92226 0.60675 0.0
C768 C 0.01992 0.94539 0.62041 0.0
C769 C 0.04731 0.98053 0.62144 0.0
C770 C 0.07604 0.99293 0.60881 0.0
C771 C 0.07735 0.97025 0.59505 0.0
C772 C 0.05005 0.93509 0.59397 0.0
C773 C 0.83417 0.81244 0.61638 0.0
C774 C 0.82338 0.82543 0.60082 0.0
C775 C 0.86847 0.81735 0.61696 0.0
C776 C 0.89263 0.83555 0.60207 0.0
C777 C 0.88191 0.8485 0.58653 0.0
C778 C 0.84755 0.84324 0.58582 0.0
C779 C 0.9294 0.84196 0.60298 0.0
C780 C 0.9574 0.87699 0.60377 0.0
C781 C 0.93686 0.8139 0.60379 0.0
C782 C 0.9084 0.77644 0.60218 0.0
C783 C 0.88536 0.76494 0.58626 0.0
C784 C 0.85834 0.7297 0.58492 0.0
C785 C 0.85422 0.70564 0.59935 0.0
C786 C 0.87718 0.71675 0.61513 0.0
C787 C 0.90423 0.75198 0.61655 0.0
H788 H 0.83328 0.67837 0.59829 0.0
H789 H 0.09723 0.02013 0.60966 0.0
H790 H 0.03824 0.14183 0.90196 0.0
H791 H 0.98158 0.08793 0.89744 0.0
H792 H 0.93786 0.14877 0.87284 0.0
H793 H 0.99528 0.20282 0.87656 0.0
H794 H 0.91953 0.06325 0.91064 0.0
H795 H 0.87412 0.0994 0.84013 0.0
H796 H 0.90009 0.13696 0.81142 0.0
H797 H 0.99524 0.13159 0.81859 0.0
H798 H 0.96967 0.09366 0.84718 0.0
H799 H 0.75156 0.9148 0.8918 0.0
H800 H 0.79683 0.97699 0.89614 0.0
H801 H 0.85292 0.97062 0.84642 0.0
H802 H 0.80715 0.90955 0.84146 0.0
H803 H 0.86075 0.03188 0.84678 0.0
H804 H 0.87289 0.95895 0.89484 0.0
H805 H 0.85284 0.91633 0.92171 0.0
H806 H 0.83545 0.98757 0.95658 0.0
H807 H 0.85497 0.03041 0.92979 0.0
C808 C 0.01658 0.14378 0.89558 0.0
C809 C 0.02131 0.17654 0.88948 0.0
C810 C 0.98408 0.1129 0.89308 0.0
C811 C 0.95539 0.11407 0.88463 0.0
C812 C 0.95974 0.14698 0.87903 0.0
C813 C 0.99253 0.17789 0.88122 0.0
C814 C 0.92141 0.08061 0.88138 0.0
C815 C 0.9066 0.05654 0.89668 0.0
C816 C 0.90459 0.07146 0.86315 0.0
C817 C 0.92015 0.09412 0.84593 0.0
C818 C 0.90056 0.10621 0.83555 0.0
C819 C 0.91521 0.12755 0.8193 0.0
C820 C 0.94935 0.13678 0.81324 0.0
C821 C 0.96886 0.12456 0.82336 0.0
C822 C 0.95432 0.10318 0.83959 0.0
C823 C 0.77325 0.92693 0.88163 0.0
C824 C 0.77597 0.90714 0.86643 0.0
C825 C 0.79923 0.96241 0.88417 0.0
C826 C 0.82882 0.97839 0.87187 0.0
C827 C 0.83048 0.95906 0.85615 0.0
C828 C 0.80427 0.92395 0.85338 0.0
C829 C 0.85936 0.01421 0.87591 0.0
C830 C 0.8734 0.03882 0.86081 0.0
C831 C 0.87642 0.02322 0.89409 0.0
C832 C 0.86498 0.99767 0.91026 0.0
C833 C 0.86459 0.96541 0.9082 0.0
C834 C 0.85334 0.94123 0.92342 0.0
C835 C 0.84278 0.9492 0.94083 0.0
C836 C 0.84356 0.98141 0.94307 0.0
C837 C 0.85472 0.00565 0.92788 0.0
H838 H 0.83407 0.93045 0.95259 0.0
H839 H 0.96065 0.15332 0.80066 0.0
H840 H 0.36025 0.1973 0.33267 0.0
H841 H 0.35506 0.20146 0.29775 0.0
H842 H 0.35442 0.10301 0.29028 0.0
H843 H 0.35882 0.09827 0.32504 0.0
H844 H 0.39147 0.20272 0.26554 0.0
H845 H 0.29082 0.05202 0.25943 0.0
H846 H 0.2459 0.00434 0.27975 0.0
H847 H 0.23349 0.08056 0.31285 0.0
H848 H 0.27794 0.12864 0.29259 0.0
H849 H 0.3753 0.14604 0.16904 0.0
H850 H 0.38411 0.15671 0.20365 0.0
H851 H 0.27452 0.12878 0.21004 0.0
H852 H 0.2652 0.11621 0.17559 0.0
H853 H 0.28835 0.09844 0.23626 0.0
H854 H 0.34687 0.21686 0.21399 0.0
H855 H 0.38791 0.26766 0.19404 0.0
H856 H 0.47644 0.26323 0.21808 0.0
H857 H 0.4359 0.21201 0.23795 0.0
C858 C 0.35952 0.17682 0.32355 0.0
C859 C 0.35935 0.14715 0.33158 0.0
C860 C 0.35663 0.17929 0.30362 0.0
C861 C 0.35367 0.1522 0.29152 0.0
C862 C 0.35596 0.12383 0.29944 0.0
C863 C 0.35849 0.12118 0.31929 0.0
C864 C 0.34554 0.15187 0.27081 0.0
C865 C 0.36891 0.18006 0.25906 0.0
C866 C 0.31535 0.12285 0.26257 0.0
C867 C 0.28794 0.09395 0.27457 0.0
C868 C 0.27836 0.05859 0.27097 0.0
C869 C 0.25302 0.0315 0.2825 0.0
C870 C 0.23695 0.03944 0.29762 0.0
C871 C 0.24606 0.07447 0.30119 0.0
C872 C 0.27135 0.10165 0.2897 0.0
C873 C 0.35318 0.1424 0.17784 0.0
C874 C 0.31953 0.13013 0.16969 0.0
C875 C 0.35829 0.14878 0.1976 0.0
C876 C 0.33011 0.14405 0.20948 0.0
C877 C 0.29666 0.13254 0.20122 0.0
C878 C 0.29135 0.12537 0.18154 0.0
C879 C 0.33491 0.14885 0.23064 0.0
C880 C 0.3108 0.12141 0.24259 0.0
C881 C 0.3637 0.17918 0.23906 0.0
C882 C 0.38828 0.2104 0.22737 0.0
C883 C 0.37508 0.22658 0.21495 0.0
C884 C 0.39825 0.25547 0.20365 0.0
C885 C 0.43475 0.26862 0.20476 0.0
C886 C 0.44815 0.253 0.21723 0.0
C887 C 0.42509 0.22406 0.22853 0.0
H888 H 0.45264 0.29095 0.19598 0.0
H889 H 0.21738 0.01843 0.30654 0.0
H890 H 0.83731 0.72517 0.32646 0.0
H891 H 0.83628 0.71902 0.29158 0.0
H892 H 0.80568 0.60905 0.29759 0.0
H893 H 0.80722 0.61516 0.3328 0.0
H894 H 0.8529 0.64312 0.26652 0.0
H895 H 0.74254 0.62677 0.29014 0.0
H896 H 0.70405 0.64135 0.30947 0.0
H897 H 0.74362 0.73965 0.27916 0.0
H898 H 0.78276 0.72589 0.25983 0.0
H899 H 0.78639 0.61362 0.16857 0.0
H900 H 0.79305 0.60864 0.20326 0.0
H901 H 0.82077 0.71759 0.21071 0.0
H902 H 0.81386 0.72276 0.1763 0.0
H903 H 0.7696 0.67435 0.23533 0.0
H904 H 0.88294 0.69211 0.21326 0.0
H905 H 0.92168 0.67753 0.19415 0.0
H906 H 0.87561 0.57563 0.22121 0.0
H907 H 0.83624 0.58944 0.2403 0.0
C908 C 0.83079 0.69975 0.3204 0.0
C909 C 0.82175 0.67047 0.33233 0.0
C910 C 0.83027 0.6963 0.30047 0.0
C911 C 0.82016 0.66341 0.29206 0.0
C912 C 0.81337 0.63461 0.30386 0.0
C913 C 0.81422 0.63813 0.32393 0.0
C914 C 0.81387 0.65896 0.27107 0.0
C915 C 0.83428 0.64933 0.25966 0.0
C916 C 0.78964 0.66722 0.26221 0.0
C917 C 0.76575 0.67538 0.27362 0.0
C918 C 0.74319 0.65159 0.28767 0.0
C919 C 0.72124 0.6597 0.29862 0.0
C920 C 0.72143 0.69143 0.29557 0.0
C921 C 0.7435 0.71508 0.28151 0.0
C922 C 0.76554 0.70712 0.27054 0.0
C923 C 0.7941 0.63657 0.17758 0.0
C924 C 0.79934 0.66853 0.16967 0.0
C925 C 0.79804 0.6337 0.19738 0.0
C926 C 0.80747 0.66277 0.20951 0.0
C927 C 0.81335 0.6948 0.20158 0.0
C928 C 0.80938 0.69769 0.18189 0.0
C929 C 0.80956 0.6598 0.23063 0.0
C930 C 0.78801 0.66777 0.24212 0.0
C931 C 0.8326 0.64987 0.23946 0.0
C932 C 0.85636 0.64165 0.22804 0.0
C933 C 0.88085 0.66647 0.21501 0.0
C934 C 0.90297 0.65838 0.20421 0.0
C935 C 0.90103 0.62563 0.20642 0.0
C936 C 0.87704 0.60096 0.21948 0.0
C937 C 0.85484 0.60892 0.23031 0.0
H938 H 0.91818 0.61941 0.19804 0.0
H939 H 0.70443 0.69768 0.30407 0.0
H940 H 0.81418 0.19046 0.16331 0.0
H941 H 0.80148 0.18244 0.19786 0.0
H942 H 0.90689 0.20074 0.20862 0.0
H943 H 0.91966 0.20836 0.1743 0.0
H944 H 0.85785 0.14496 0.22897 0.0
H945 H 0.88509 0.26569 0.21483 0.0
H946 H 0.87482 0.30972 0.19821 0.0
H947 H 0.76924 0.26089 0.22112 0.0
H948 H 0.77876 0.21625 0.23767 0.0
H949 H 0.91968 0.21335 0.31925 0.0
H950 H 0.90672 0.20583 0.28497 0.0
H951 H 0.7986 0.17839 0.29632 0.0
H952 H 0.81134 0.18591 0.33102 0.0
H953 H 0.83186 0.22745 0.26522 0.0
H954 H 0.80987 0.11431 0.28483 0.0
H955 H 0.82177 0.07221 0.30235 0.0
H956 H 0.91692 0.10626 0.26952 0.0
H957 H 0.90601 0.1491 0.25206 0.0
C958 C 0.83467 0.19285 0.17303 0.0
C959 C 0.86804 0.20031 0.16601 0.0
C960 C 0.82734 0.18821 0.19276 0.0
C961 C 0.8533 0.19115 0.20579 0.0
C962 C 0.88641 0.19821 0.1988 0.0
C963 C 0.89373 0.20276 0.17915 0.0
C964 C 0.84685 0.1878 0.22681 0.0
C965 C 0.85211 0.16293 0.2369 0.0
C966 C 0.838 0.21037 0.23708 0.0
C967 C 0.83248 0.23741 0.22728 0.0
C968 C 0.8596 0.26421 0.2162 0.0
C969 C 0.85393 0.28929 0.20681 0.0
C970 C 0.82135 0.28803 0.20855 0.0
C971 C 0.79443 0.26177 0.21974 0.0
C972 C 0.79995 0.23659 0.22914 0.0
C973 C 0.89311 0.20583 0.31456 0.0
C974 C 0.86648 0.20009 0.32789 0.0
C975 C 0.88574 0.20141 0.29494 0.0
C976 C 0.85163 0.19115 0.2882 0.0
C977 C 0.82505 0.18615 0.30133 0.0
C978 C 0.83236 0.19035 0.3211 0.0
C979 C 0.84448 0.18572 0.26732 0.0
C980 C 0.83659 0.2088 0.25726 0.0
C981 C 0.85084 0.16145 0.25706 0.0
C982 C 0.85715 0.13507 0.26717 0.0
C983 C 0.83344 0.11297 0.2814 0.0
C984 C 0.84001 0.08897 0.29133 0.0
C985 C 0.8701 0.08658 0.28706 0.0
C986 C 0.89362 0.10813 0.27281 0.0
C987 C 0.88722 0.13226 0.26287 0.0
H988 H 0.87516 0.06801 0.29478 0.0
H989 H 0.81697 0.30745 0.20127 0.0
H990 H 0.17583 0.39633 0.67027 0.0
H991 H 0.19038 0.41211 0.70421 0.0
H992 H 0.09909 0.31362 0.72101 0.0
H993 H 0.08422 0.29776 0.6873 0.0
H994 H 0.10574 0.37033 0.74191 0.0
H995 H 0.18201 0.32347 0.71998 0.0
H996 H 0.22886 0.32552 0.6991 0.0
H997 H 0.30133 0.43059 0.71887 0.0
H998 H 0.25474 0.42924 0.73974 0.0
H999 H 0.11631 0.29387 0.8252 0.0
H1000 H 0.12111 0.31112 0.79164 0.0
H1001 H 0.20713 0.41504 0.80543 0.0
H1002 H 0.20232 0.39815 0.83957 0.0
H1003 H 0.21423 0.37767 0.76971 0.0
H1004 H 0.14238 0.41943 0.79704 0.0
H1005 H 0.09608 0.41808 0.81807 0.0
H1006 H 0.01678 0.32656 0.78817 0.0
H1007 H 0.06267 0.32705 0.76713 0.0
C1008 C 0.15872 0.37814 0.68118 0.0
C1009 C 0.12887 0.34573 0.67605 0.0
C1010 C 0.16715 0.38719 0.70056 0.0
C1011 C 0.14586 0.36398 0.71508 0.0
C1012 C 0.11578 0.33197 0.70999 0.0
C1013 C 0.10741 0.32287 0.6907 0.0
C1014 C 0.15496 0.37191 0.73569 0.0
C1015 C 0.12957 0.37221 0.74799 0.0
C1016 C 0.18679 0.37593 0.74352 0.0
C1017 C 0.21483 0.37641 0.73124 0.0
C1018 C 0.20789 0.34707 0.71979 0.0
C1019 C 0.23439 0.34809 0.70797 0.0
C1020 C 0.26802 0.37821 0.70761 0.0
C1021 C 0.27526 0.4073 0.71914 0.0
C1022 C 0.24883 0.40641 0.73097 0.0
C1023 C 0.1365 0.32038 0.82124 0.0
C1024 C 0.15875 0.34472 0.83517 0.0
C1025 C 0.13915 0.33017 0.802 0.0
C1026 C 0.16419 0.36439 0.79617 0.0
C1027 C 0.18757 0.38852 0.80976 0.0
C1028 C 0.18473 0.37881 0.82921 0.0
C1029 C 0.16416 0.3743 0.77586 0.0
C1030 C 0.19108 0.37722 0.7636 0.0
C1031 C 0.13393 0.37368 0.76801 0.0
C1032 C 0.10604 0.37322 0.78055 0.0
C1033 C 0.11511 0.39886 0.79504 0.0
C1034 C 0.08893 0.39827 0.80694 0.0
C1035 C 0.05352 0.37222 0.80447 0.0
C1036 C 0.04422 0.34674 0.79006 0.0
C1037 C 0.07031 0.3472 0.77811 0.0
H1038 H 0.03329 0.37182 0.8137 0.0
H1039 H 0.28849 0.37899 0.69844 0.0
H1040 H 0.22366 0.89598 0.82138 0.0
H1041 H 0.21158 0.88432 0.78725 0.0
H1042 H 0.14461 0.77313 0.79883 0.0
H1043 H 0.15665 0.78452 0.83349 0.0
H1044 H 0.19461 0.79206 0.76611 0.0
H1045 H 0.10219 0.81142 0.78862 0.0
H1046 H 0.07864 0.84192 0.80849 0.0
H1047 H 0.14365 0.93857 0.77785 0.0
H1048 H 0.16798 0.90884 0.75798 0.0
H1049 H 0.16894 0.80312 0.66426 0.0
H1050 H 0.15384 0.78522 0.69792 0.0
H1051 H 0.20497 0.89487 0.71491 0.0
H1052 H 0.21934 0.91289 0.68149 0.0
H1053 H 0.14377 0.85781 0.73338 0.0
H1054 H 0.2462 0.84382 0.71832 0.0
H1055 H 0.2762 0.81764 0.70016 0.0
H1056 H 0.1957 0.71371 0.71739 0.0
H1057 H 0.16505 0.73932 0.7355 0.0
C1058 C 0.20644 0.86895 0.8168 0.0
C1059 C 0.19086 0.8412 0.83021 0.0
C1060 C 0.19955 0.86237 0.79725 0.0
C1061 C 0.17685 0.82798 0.79063 0.0
C1062 C 0.16206 0.79987 0.80378 0.0
C1063 C 0.16889 0.80646 0.82351 0.0
C1064 C 0.16855 0.82257 0.76988 0.0
C1065 C 0.18248 0.80542 0.75888 0.0
C1066 C 0.15296 0.84028 0.76061 0.0
C1067 C 0.13696 0.85786 0.77181 0.0
C1068 C 0.11148 0.83918 0.78612 0.0
C1069 C 0.09802 0.85635 0.7974 0.0
C1070 C 0.10974 0.89217 0.79447 0.0
C1071 C 0.13461 0.91081 0.7801 0.0
C1072 C 0.14817 0.89378 0.76878 0.0
C1073 C 0.17687 0.8234 0.67516 0.0
C1074 C 0.19549 0.85947 0.67017 0.0
C1075 C 0.16822 0.8131 0.69439 0.0
C1076 C 0.1784 0.83871 0.70892 0.0
C1077 C 0.19664 0.87463 0.70392 0.0
C1078 C 0.20505 0.88491 0.68478 0.0
C1079 C 0.17151 0.82888 0.72953 0.0
C1080 C 0.15459 0.84316 0.74051 0.0
C1081 C 0.18454 0.80871 0.73876 0.0
C1082 C 0.20315 0.79342 0.72804 0.0
C1083 C 0.23481 0.81537 0.71813 0.0
C1084 C 0.25194 0.80065 0.70786 0.0
C1085 C 0.2378 0.76403 0.70757 0.0
C1086 C 0.20658 0.74206 0.71759 0.0
C1087 C 0.18933 0.75666 0.72786 0.0
H1088 H 0.25111 0.75269 0.69961 0.0
H1089 H 0.09967 0.90553 0.80336 0.0
H1090 H 0.72587 0.83727 0.6738 0.0
H1091 H 0.71599 0.84056 0.70802 0.0
H1092 H 0.60615 0.8068 0.69696 0.0
H1093 H 0.61554 0.80249 0.66257 0.0
H1094 H 0.69439 0.87509 0.73094 0.0
H1095 H 0.5575 0.75083 0.73347 0.0
H1096 H 0.52028 0.69704 0.71439 0.0
H1097 H 0.61351 0.69957 0.6921 0.0
H1098 H 0.6512 0.75308 0.71121 0.0
H1099 H 0.6451 0.84332 0.83055 0.0
H1100 H 0.63799 0.84942 0.79599 0.0
H1101 H 0.66464 0.76847 0.78396 0.0
H1102 H 0.67167 0.76211 0.81825 0.0
H1103 H 0.60944 0.7612 0.76175 0.0
H1104 H 0.72671 0.85282 0.78152 0.0
H1105 H 0.76798 0.90424 0.80106 0.0
H1106 H 0.72163 0.96383 0.77891 0.0
H1107 H 0.67964 0.91249 0.75949 0.0
C1108 C 0.69964 0.83083 0.67855 0.0
C1109 C 0.67138 0.81912 0.66544 0.0
C1110 C 0.69411 0.83301 0.69814 0.0
C1111 C 0.66027 0.82358 0.70505 0.0
C1112 C 0.63239 0.81379 0.69193 0.0
C1113 C 0.63784 0.81139 0.67228 0.0
C1114 C 0.65399 0.82094 0.72609 0.0
C1115 C 0.67542 0.85036 0.73768 0.0
C1116 C 0.62943 0.78859 0.73489 0.0
C1117 C 0.6071 0.75615 0.72356 0.0
C1118 C 0.57001 0.73982 0.72452 0.0
C1119 C 0.54884 0.7094 0.71371 0.0
C1120 C 0.56452 0.69498 0.70198 0.0
C1121 C 0.6014 0.71084 0.70112 0.0
C1122 C 0.62267 0.74122 0.71193 0.0
C1123 C 0.64915 0.82663 0.82054 0.0
C1124 C 0.65932 0.80248 0.82711 0.0
C1125 C 0.64505 0.83014 0.80084 0.0
C1126 C 0.65094 0.80948 0.78748 0.0
C1127 C 0.65984 0.78455 0.79407 0.0
C1128 C 0.66411 0.78115 0.81367 0.0
C1129 C 0.65031 0.81511 0.76655 0.0
C1130 C 0.62758 0.78625 0.755 0.0
C1131 C 0.67422 0.84772 0.75781 0.0
C1132 C 0.69977 0.87871 0.76925 0.0
C1133 C 0.72515 0.87681 0.78094 0.0
C1134 C 0.74869 0.90594 0.79197 0.0
C1135 C 0.74736 0.93725 0.79127 0.0
C1136 C 0.72257 0.93953 0.77948 0.0
C1137 C 0.69889 0.91043 0.76846 0.0
H1138 H 0.7656 0.95977 0.79982 0.0
H1139 H 0.5481 0.67147 0.6936 0.0
H1140 H 0.19012 0.85206 0.95178 0.0
H1141 H 0.2043 0.88388 0.98266 0.0
H1142 H 0.27954 0.97994 0.95383 0.0
H1143 H 0.26637 0.9487 0.92346 0.0
H1144 H 0.30725 0.97226 0.98568 0.0
H1145 H 0.19648 0.96335 0.96664 0.0
H1146 H 0.13334 0.93212 0.95757 0.0
H1147 H 0.10612 0.87804 0.01194 0.0
H1148 H 0.16922 0.90858 0.02122 0.0
H1149 H 0.33462 0.10786 0.05085 0.0
H1150 H 0.31519 0.06919 0.02254 0.0
H1151 H 0.25029 0.97944 0.05872 0.0
H1152 H 0.26942 0.01763 0.08698 0.0
H1153 H 0.21615 0.97943 0.02523 0.0
H1154 H 0.32829 0.99241 0.04451 0.0
H1155 H 0.39157 0.0263 0.05321 0.0
H1156 H 0.41626 0.07533 0.99745 0.0
H1157 H 0.35303 0.04211 0.98852 0.0
C1158 C 0.20976 0.87991 0.95212 0.0
C1159 C 0.22711 0.89779 0.93519 0.0
C1160 C 0.21773 0.89807 0.96971 0.0
C1161 C 0.24288 0.93433 0.97049 0.0
C1162 C 0.26023 0.95196 0.95361 0.0
C1163 C 0.25254 0.93395 0.9362 0.0
C1164 C 0.25159 0.95455 0.98872 0.0
C1165 C 0.28732 0.97396 0.99425 0.0
C1166 C 0.22552 0.95627 0.0001 0.0
C1167 C 0.18761 0.93789 0.99452 0.0
C1168 C 0.17707 0.94455 0.97659 0.0
C1169 C 0.14128 0.92702 0.97142 0.0
C1170 C 0.11574 0.90301 0.98414 0.0
C1171 C 0.12594 0.89657 0.00208 0.0
C1172 C 0.16171 0.91398 0.0073 0.0
C1173 C 0.31608 0.07994 0.05275 0.0
C1174 C 0.30373 0.0658 0.07115 0.0
C1175 C 0.30505 0.0579 0.0366 0.0
C1176 C 0.2816 0.02145 0.03863 0.0
C1177 C 0.26843 0.00748 0.05688 0.0
C1178 C 0.27955 0.02939 0.07301 0.0
C1179 C 0.2718 0.9976 0.02183 0.0
C1180 C 0.23595 0.97744 0.01669 0.0
C1181 C 0.29777 0.99542 0.01067 0.0
C1182 C 0.33588 0.01498 0.01591 0.0
C1183 C 0.34719 0.01058 0.03415 0.0
C1184 C 0.38305 0.02965 0.03912 0.0
C1185 C 0.40791 0.05301 0.02591 0.0
C1186 C 0.39697 0.05725 0.00768 0.0
C1187 C 0.36113 0.03828 0.00264 0.0
H1188 H 0.43565 0.06778 0.02979 0.0
H1189 H 0.08804 0.88948 0.98012 0.0
H1190 H 0.82098 0.67413 0.45309 0.0
H1191 H 0.8096 0.69477 0.4838 0.0
H1192 H 0.74727 0.73171 0.45408 0.0
H1193 H 0.75757 0.71064 0.42373 0.0
H1194 H 0.79379 0.77987 0.48211 0.0
H1195 H 0.70599 0.65553 0.47418 0.0
H1196 H 0.68764 0.59271 0.46938 0.0
H1197 H 0.74124 0.5934 0.52141 0.0
H1198 H 0.76044 0.65647 0.52633 0.0
H1199 H 0.67228 0.78529 0.54793 0.0
H1200 H 0.70116 0.77338 0.52096 0.0
H1201 H 0.74833 0.73239 0.56045 0.0
H1202 H 0.71949 0.74382 0.58734 0.0
H1203 H 0.71832 0.68883 0.53 0.0
H1204 H 0.79833 0.81086 0.5408 0.0
H1205 H 0.816 0.87344 0.54584 0.0
H1206 H 0.7788 0.87807 0.48927 0.0
H1207 H 0.76015 0.81528 0.48401 0.0
C1208 C 0.8051 0.6869 0.45313 0.0
C1209 C 0.79028 0.69082 0.43597 0.0
C1210 C 0.7987 0.69872 0.47063 0.0
C1211 C 0.77772 0.71487 0.47112 0.0
C1212 C 0.76378 0.71962 0.45396 0.0
C1213 C 0.76962 0.70737 0.43662 0.0
C1214 C 0.76777 0.72462 0.48952 0.0
C1215 C 0.7773 0.76006 0.49262 0.0
C1216 C 0.74689 0.69877 0.50333 0.0
C1217 C 0.73504 0.6608 0.50049 0.0
C1218 C 0.71413 0.64236 0.4845 0.0
C1219 C 0.70353 0.60671 0.48177 0.0
C1220 C 0.71336 0.5891 0.49505 0.0
C1221 C 0.73372 0.6071 0.51111 0.0
C1222 C 0.74448 0.6428 0.51388 0.0
C1223 C 0.6889 0.77388 0.55085 0.0
C1224 C 0.69361 0.76555 0.56975 0.0
C1225 C 0.70549 0.76723 0.53547 0.0
C1226 C 0.72706 0.75222 0.53877 0.0
C1227 C 0.7318 0.74395 0.55761 0.0
C1228 C 0.71532 0.75061 0.57295 0.0
C1229 C 0.74374 0.74406 0.52248 0.0
C1230 C 0.73541 0.70888 0.51974 0.0
C1231 C 0.76586 0.77022 0.50908 0.0
C1232 C 0.77756 0.8082 0.51206 0.0
C1233 C 0.79365 0.82511 0.52948 0.0
C1234 C 0.80387 0.86064 0.53238 0.0
C1235 C 0.79849 0.87968 0.5179 0.0
C1236 C 0.78293 0.86326 0.50048 0.0
C1237 C 0.77253 0.8277 0.49752 0.0
H1238 H 0.80642 0.90718 0.52018 0.0
H1239 H 0.70512 0.56149 0.49291 0.0
H1240 H 0.14479 0.3333 0.95687 0.0
H1241 H 0.10625 0.30808 0.98511 0.0
H1242 H 0.02131 0.23517 0.94828 0.0
H1243 H 0.05905 0.26053 0.92024 0.0
H1244 H 1.00117 0.27213 0.96932 0.0
H1245 H 0.06169 0.20804 0.98039 0.0
H1246 H 0.11122 0.19712 0.98618 0.0
H1247 H 0.13706 0.25749 0.03847 0.0
H1248 H 0.0883 0.26966 0.03274 0.0
H1249 H 0.87804 0.19212 0.04677 0.0
H1250 H 0.91595 0.19828 0.01912 0.0
H1251 H 0.00744 0.27638 0.0502 0.0
H1252 H 0.97022 0.27062 0.07757 0.0
H1253 H 0.02133 0.22968 0.03167 0.0
H1254 H 0.96851 0.30187 0.01762 0.0
H1255 H 0.91871 0.31284 0.01275 0.0
H1256 H 0.87931 0.23708 0.96672 0.0
H1257 H 0.92867 0.22531 0.9715 0.0
C1258 C 0.11814 0.3114 0.95489 0.0
C1259 C 0.10484 0.29917 0.93632 0.0
C1260 C 0.09619 0.29691 0.97103 0.0
C1261 C 0.06084 0.26978 0.96879 0.0
C1262 C 0.04839 0.25618 0.95036 0.0
C1263 C 0.07008 0.27075 0.93432 0.0
C1264 C 0.03544 0.25855 0.98506 0.0
C1265 C 0.00535 0.2622 0.98281 0.0
C1266 C 0.04128 0.24642 0.00285 0.0
C1267 C 0.07153 0.24021 0.00596 0.0
C1268 C 0.07827 0.21954 0.99295 0.0
C1269 C 0.10618 0.21303 0.99626 0.0
C1270 C 0.12737 0.22673 0.01264 0.0
C1271 C 0.12072 0.24702 0.02574 0.0
C1272 C 0.09297 0.25378 0.02245 0.0
C1273 C 0.90621 0.2106 0.04765 0.0
C1274 C 0.92107 0.2309 0.06434 0.0
C1275 C 0.92782 0.21401 0.03191 0.0
C1276 C 0.9645 0.2378 0.03266 0.0
C1277 C 0.97929 0.25772 0.04937 0.0
C1278 C 0.95783 0.25452 0.06496 0.0
C1279 C 0.98761 0.24364 0.01582 0.0
C1280 C 0.0172 0.23917 0.01801 0.0
C1281 C 0.98161 0.25529 0.99799 0.0
C1282 C 0.952 0.26239 0.99507 0.0
C1283 C 0.94905 0.28733 0.00657 0.0
C1284 C 0.92094 0.29374 0.00381 0.0
C1285 C 0.89579 0.27558 0.98948 0.0
C1286 C 0.89876 0.25106 0.97784 0.0
C1287 C 0.9268 0.24452 0.98056 0.0
H1288 H 0.87405 0.28058 0.98736 0.0
H1289 H 0.14886 0.22152 0.01521 0.0
H1290 H 0.26949 0.0562 0.42737 0.0
H1291 H 0.25091 0.02832 0.45883 0.0
H1292 H 0.34181 0.11673 0.48494 0.0
H1293 H 0.36031 0.14537 0.45319 0.0
H1294 H 0.33671 0.05141 0.49182 0.0
H1295 H 0.26366 0.10256 0.49626 0.0
H1296 H 0.21953 0.1194 0.48689 0.0
H1297 H 0.1387 0.0101 0.48505 0.0
H1298 H 0.18255 0.99243 0.49362 0.0
H1299 H 0.28896 0.97303 0.58352 0.0
H1300 H 0.30238 0.01374 0.55684 0.0
H1301 H 0.2137 0.93331 0.52502 0.0
H1302 H 0.19951 0.892 0.55206 0.0
H1303 H 0.21906 1.00024 0.52338 0.0
H1304 H 0.29423 0.94979 0.51403 0.0
H1305 H 0.33795 0.93264 0.52394 0.0
H1306 H 0.41408 0.04125 0.53551 0.0
H1307 H 0.3706 0.05901 0.52592 0.0
C1308 C 0.28511 0.07013 0.43987 0.0
C1309 C 0.31644 0.10281 0.43791 0.0
C1310 C 0.27433 0.05424 0.45785 0.0
C1311 C 0.29492 0.07052 0.47418 0.0
C1312 C 0.3255 0.10392 0.47245 0.0
C1313 C 0.33599 0.12025 0.4544 0.0
C1314 C 0.28665 0.05022 0.49232 0.0
C1315 C 0.31128 0.04089 0.499 0.0
C1316 C 0.253 0.03566 0.50123 0.0
C1317 C 0.22662 0.04613 0.49544 0.0
C1318 C 0.23663 0.08203 0.49354 0.0
C1319 C 0.21162 0.09174 0.48837 0.0
C1320 C 0.17636 0.06584 0.48531 0.0
C1321 C 0.16605 0.03015 0.48735 0.0
C1322 C 0.19101 0.02026 0.49231 0.0
C1323 C 0.2722 0.96379 0.57087 0.0
C1324 C 0.24322 0.92914 0.56986 0.0
C1325 C 0.27998 0.98718 0.55563 0.0
C1326 C 0.25923 0.97643 0.53894 0.0
C1327 C 0.23001 0.94202 0.53784 0.0
C1328 C 0.22211 0.91842 0.55319 0.0
C1329 C 0.26887 0.00112 0.52253 0.0
C1330 C 0.24453 0.01113 0.51623 0.0
C1331 C 0.30271 0.01626 0.51385 0.0
C1332 C 0.32904 0.00568 0.51943 0.0
C1333 C 0.3202 0.96999 0.51882 0.0
C1334 C 0.34495 0.96016 0.52436 0.0
C1335 C 0.37874 0.98583 0.5304 0.0
C1336 C 0.38788 0.02139 0.53085 0.0
C1337 C 0.36321 0.03136 0.52535 0.0
H1338 H 0.39787 0.97817 0.53467 0.0
H1339 H 0.157 0.07342 0.48142 0.0
H1340 H 0.78328 0.66732 0.05108 0.0
H1341 H 0.77298 0.69418 0.02257 0.0
H1342 H 0.7115 0.72657 0.05689 0.0
H1343 H 0.72108 0.69951 0.08518 0.0
H1344 H 0.67859 0.69615 0.0234 0.0
H1345 H 0.79459 0.78488 0.04392 0.0
H1346 H 0.85692 0.80742 0.05326 0.0
H1347 H 0.87922 0.78175 0.99721 0.0
H1348 H 0.81692 0.75848 0.98766 0.0
H1349 H 0.66603 0.80229 0.94877 0.0
H1350 H 0.68141 0.78804 0.98036 0.0
H1351 H 0.74373 0.74923 0.95228 0.0
H1352 H 0.72849 0.76293 0.92108 0.0
H1353 H 0.77678 0.78796 0.98432 0.0
H1354 H 0.66279 0.69224 0.96505 0.0
H1355 H 0.60037 0.66494 0.9548 0.0
H1356 H 0.57462 0.69978 0.00706 0.0
H1357 H 0.63705 0.72772 0.0175 0.0
C1358 C 0.7676 0.68018 0.05251 0.0
C1359 C 0.75315 0.68144 0.07038 0.0
C1360 C 0.76186 0.69562 0.03627 0.0
C1361 C 0.74172 0.71259 0.03771 0.0
C1362 C 0.7271 0.71361 0.05549 0.0
C1363 C 0.73274 0.6982 0.07165 0.0
C1364 C 0.73523 0.72884 0.02065 0.0
C1365 C 0.70004 0.71669 0.01505 0.0
C1366 C 0.76331 0.75508 0.00958 0.0
C1367 C 0.80099 0.76968 0.01515 0.0
C1368 C 0.81276 0.78387 0.03364 0.0
C1369 C 0.84807 0.79678 0.03897 0.0
C1370 C 0.87199 0.79597 0.02585 0.0
C1371 C 0.86066 0.78234 0.00736 0.0
C1372 C 0.82535 0.7693 0.00198 0.0
C1373 C 0.68335 0.79115 0.94944 0.0
C1374 C 0.6958 0.78345 0.9325 0.0
C1375 C 0.69204 0.78298 0.96741 0.0
C1376 C 0.71356 0.76744 0.96856 0.0
C1377 C 0.7272 0.76129 0.95169 0.0
C1378 C 0.71823 0.76897 0.93386 0.0
C1379 C 0.72019 0.75512 0.98707 0.0
C1380 C 0.75537 0.76788 0.9929 0.0
C1381 C 0.69216 0.72905 0.99821 0.0
C1382 C 0.65466 0.71248 0.99193 0.0
C1383 C 0.64388 0.69439 0.97426 0.0
C1384 C 0.6085 0.67873 0.96844 0.0
C1385 C 0.58357 0.68072 0.98024 0.0
C1386 C 0.59398 0.69833 0.99791 0.0
C1387 C 0.62935 0.71408 0.00379 0.0
H1388 H 0.55617 0.66853 0.97572 0.0
H1389 H 0.8993 0.80593 0.03001 0.0
H1390 H 0.02657 0.27237 0.58848 0.0
H1391 H 0.99154 0.25058 0.55915 0.0
H1392 H 0.08261 0.32168 0.52534 0.0
H1393 H 0.11844 0.34307 0.55475 0.0
H1394 H 0.01938 0.32472 0.51797 0.0
H1395 H 0.05869 0.24055 0.52386 0.0
H1396 H 0.06797 0.19503 0.53936 0.0
H1397 H 0.95555 0.12683 0.54434 0.0
H1398 H 0.94551 0.17245 0.52947 0.0
H1399 H 0.97197 0.26666 0.42387 0.0
H1400 H 0.99908 0.28074 0.45551 0.0
H1401 H 0.90041 0.20308 0.48114 0.0
H1402 H 0.87256 0.18842 0.44907 0.0
H1403 H 0.96172 0.20091 0.49443 0.0
H1404 H 0.92237 0.28425 0.48712 0.0
H1405 H 0.9136 0.32865 0.46986 0.0
H1406 H 0.02618 0.39764 0.46675 0.0
H1407 H 0.0357 0.35334 0.48366 0.0
C1408 C 0.03942 0.28303 0.57481 0.0
C1409 C 0.07541 0.30933 0.57393 0.0
C1410 C 0.01928 0.27054 0.55807 0.0
C1411 C 0.03455 0.2845 0.54015 0.0
C1412 C 0.07046 0.31061 0.53912 0.0
C1413 C 0.09088 0.3227 0.55588 0.0
C1414 C 0.01249 0.27287 0.52261 0.0
C1415 C 0.00704 0.29775 0.5127 0.0
C1416 C 0.99542 0.23733 0.51626 0.0
C1417 C 1.00136 0.2102 0.52577 0.0
C1418 C 0.03592 0.21613 0.52856 0.0
C1419 C 0.04132 0.19026 0.5372 0.0
C1420 C 0.01236 0.15812 0.54287 0.0
C1421 C 0.97794 0.15183 0.54001 0.0
C1422 C 0.97238 0.17772 0.53152 0.0
C1423 C 0.95579 0.25247 0.43616 0.0
C1424 C 0.92 0.22642 0.43394 0.0
C1425 C 0.9714 0.26068 0.45426 0.0
C1426 C 0.95166 0.24318 0.47062 0.0
C1427 C 0.91598 0.2169 0.46861 0.0
C1428 C 0.90012 0.20871 0.45035 0.0
C1429 C 0.96907 0.25289 0.48967 0.0
C1430 C 0.97364 0.22773 0.49989 0.0
C1431 C 0.98528 0.28816 0.49638 0.0
C1432 C 0.97974 0.31531 0.48657 0.0
C1433 C 0.94529 0.30878 0.48266 0.0
C1434 C 0.94017 0.33394 0.47294 0.0
C1435 C 0.96931 0.36591 0.4672 0.0
C1436 C 0.00363 0.37284 0.47121 0.0
C1437 C 0.0089 0.34772 0.48088 0.0
H1438 H 0.96527 0.38531 0.45966 0.0
H1439 H 0.01659 0.13805 0.54946 0.0
H1440 H 0.73327 0.17163 0.08171 0.0
H1441 H 0.67248 0.1599 0.0773 0.0
H1442 H 0.66009 0.16105 0.13885 0.0
H1443 H 0.72083 0.17312 0.14339 0.0
H1444 H 0.59981 0.10638 0.11943 0.0
H1445 H 0.6809 0.2327 0.11554 0.0
H1446 H 0.73211 0.28644 0.10246 0.0
H1447 H 0.68494 0.26196 0.0462 0.0
H1448 H 0.63367 0.20778 0.0589 0.0
H1449 H 0.45723 0.13945 0.12985 0.0
H1450 H 0.51366 0.14022 0.13128 0.0
H1451 H 0.52678 0.15844 0.06999 0.0
H1452 H 0.47083 0.15863 0.06854 0.0
H1453 H 0.58619 0.20045 0.08726 0.0
H1454 H 0.50395 0.07685 0.09024 0.0
H1455 H 0.45239 0.02212 0.1021 0.0
H1456 H 0.50052 0.03886 0.15793 0.0
H1457 H 0.55219 0.09399 0.14648 0.0
C1458 C 0.71737 0.16873 0.09431 0.0
C1459 C 0.73184 0.17343 0.1129 0.0
C1460 C 0.68275 0.16221 0.09176 0.0
C1461 C 0.66198 0.15993 0.10775 0.0
C1462 C 0.67572 0.16275 0.12634 0.0
C1463 C 0.71044 0.16973 0.12889 0.0
C1464 C 0.62676 0.15684 0.10519 0.0
C1465 C 0.59675 0.12699 0.11252 0.0
C1466 C 0.62283 0.18338 0.09574 0.0
C1467 C 0.65366 0.21597 0.08813 0.0
C1468 C 0.68161 0.2386 0.10035 0.0
C1469 C 0.71061 0.26918 0.09301 0.0
C1470 C 0.71181 0.27755 0.0735 0.0
C1471 C 0.68399 0.2554 0.0613 0.0
C1472 C 0.65496 0.22477 0.06856 0.0
C1473 C 0.472 0.14338 0.11665 0.0
C1474 C 0.45946 0.14886 0.09907 0.0
C1475 C 0.50422 0.14366 0.11747 0.0
C1476 C 0.5243 0.1489 0.10069 0.0
C1477 C 0.51176 0.15428 0.08312 0.0
C1478 C 0.47969 0.15428 0.08232 0.0
C1479 C 0.55893 0.14993 0.10158 0.0
C1480 C 0.58897 0.17952 0.09399 0.0
C1481 C 0.56279 0.12292 0.1106 0.0
C1482 C 0.53181 0.08973 0.11754 0.0
C1483 C 0.50343 0.06901 0.10509 0.0
C1484 C 0.4742 0.03789 0.11173 0.0
C1485 C 0.47314 0.02706 0.13077 0.0
C1486 C 0.50136 0.0473 0.14319 0.0
C1487 C 0.53065 0.07847 0.13663 0.0
H1488 H 0.45049 0.00296 0.13589 0.0
H1489 H 0.73422 0.30123 0.06783 0.0
H1490 H 0.69401 0.54432 0.43679 0.0
H1491 H 0.63671 0.48988 0.43453 0.0
H1492 H 0.64725 0.49106 0.37271 0.0
H1493 H 0.70401 0.54582 0.3748 0.0
H1494 H 0.58085 0.47022 0.38199 0.0
H1495 H 0.66817 0.43953 0.40129 0.0
H1496 H 0.71596 0.44238 0.42163 0.0
H1497 H 0.64644 0.40823 0.47058 0.0
H1498 H 0.59834 0.40557 0.45056 0.0
H1499 H 0.47786 0.28859 0.35788 0.0
H1500 H 0.52465 0.34932 0.36377 0.0
H1501 H 0.49452 0.33918 0.42359 0.0
H1502 H 0.44739 0.27817 0.41782 0.0
H1503 H 0.56693 0.36577 0.41793 0.0
H1504 H 0.47677 0.38958 0.39545 0.0
H1505 H 0.43057 0.38486 0.37314 0.0
H1506 H 0.50748 0.43004 0.32779 0.0
H1507 H 0.55407 0.43457 0.34976 0.0
C1508 C 0.68396 0.53317 0.4227 0.0
C1509 C 0.70373 0.54922 0.40599 0.0
C1510 C 0.65126 0.50199 0.42143 0.0
C1511 C 0.63796 0.48605 0.40347 0.0
C1512 C 0.65698 0.50283 0.38673 0.0
C1513 C 0.68951 0.53412 0.38796 0.0
C1514 C 0.60513 0.45109 0.40208 0.0
C1515 C 0.57789 0.44735 0.38977 0.0
C1516 C 0.60099 0.42132 0.41245 0.0
C1517 C 0.6298 0.42274 0.42449 0.0
C1518 C 0.66317 0.43288 0.41642 0.0
C1519 C 0.69029 0.43441 0.42788 0.0
C1520 C 0.68427 0.42559 0.44739 0.0
C1521 C 0.65108 0.41511 0.45547 0.0
C1522 C 0.62387 0.41356 0.44407 0.0
C1523 C 0.4809 0.29934 0.37226 0.0
C1524 C 0.45892 0.27857 0.38739 0.0
C1525 C 0.50758 0.33412 0.37558 0.0
C1526 C 0.51288 0.3488 0.39408 0.0
C1527 C 0.49075 0.32832 0.40919 0.0
C1528 C 0.46379 0.29356 0.40585 0.0
C1529 C 0.54284 0.38488 0.39773 0.0
C1530 C 0.56964 0.38878 0.4104 0.0
C1531 C 0.5468 0.41461 0.38744 0.0
C1532 C 0.51887 0.41219 0.37423 0.0
C1533 C 0.48379 0.39828 0.38069 0.0
C1534 C 0.45754 0.39568 0.36811 0.0
C1535 C 0.46607 0.40709 0.34905 0.0
C1536 C 0.5009 0.4212 0.34256 0.0
C1537 C 0.52726 0.42384 0.35507 0.0
H1538 H 0.4457 0.40504 0.33933 0.0
H1539 H 0.7053 0.4268 0.45625 0.0
H1540 H 0.88952 0.33158 0.10892 0.0
H1541 H 0.8923 0.38881 0.11214 0.0
H1542 H 0.79113 0.34631 0.08361 0.0
H1543 H 0.78917 0.28991 0.07948 0.0
H1544 H 0.82924 0.40941 0.07228 0.0
H1545 H 0.8027 0.35345 0.13478 0.0
H1546 H 0.81337 0.32633 0.1633 0.0
H1547 H 0.91123 0.42216 0.17403 0.0
H1548 H 0.90135 0.44969 0.14543 0.0
H1549 H 0.77449 0.51246 0.14104 0.0
H1550 H 0.79051 0.46719 0.13554 0.0
H1551 H 0.8613 0.52993 0.0899 0.0
H1552 H 0.84417 0.57502 0.09487 0.0
H1553 H 0.84602 0.46146 0.13758 0.0
H1554 H 0.86229 0.47555 0.0551 0.0
H1555 H 0.84206 0.49683 0.02763 0.0
H1556 H 0.74795 0.47456 0.05878 0.0
H1557 H 0.76743 0.45277 0.08631 0.0
C1558 C 0.86808 0.33465 0.10317 0.0
C1559 C 0.83904 0.30624 0.09404 0.0
C1560 C 0.8696 0.36729 0.1051 0.0
C1561 C 0.8416 0.37177 0.09842 0.0
C1562 C 0.8131 0.34363 0.08884 0.0
C1563 C 0.81194 0.31131 0.08655 0.0
C1564 C 0.8409 0.40504 0.10199 0.0
C1565 C 0.83318 0.42091 0.08656 0.0
C1566 C 0.84561 0.41997 0.12063 0.0
C1567 C 0.8515 0.40347 0.13785 0.0
C1568 C 0.82661 0.36864 0.14315 0.0
C1569 C 0.8325 0.35321 0.15934 0.0
C1570 C 0.86302 0.37248 0.17043 0.0
C1571 C 0.88765 0.40725 0.1654 0.0
C1572 C 0.88192 0.42278 0.14921 0.0
C1573 C 0.79369 0.51686 0.12991 0.0
C1574 C 0.80779 0.54721 0.11825 0.0
C1575 C 0.80296 0.49094 0.12683 0.0
C1576 C 0.82677 0.49483 0.11214 0.0
C1577 C 0.84232 0.52597 0.10108 0.0
C1578 C 0.83263 0.55179 0.10398 0.0
C1579 C 0.83356 0.46529 0.10797 0.0
C1580 C 0.84263 0.45027 0.12326 0.0
C1581 C 0.82869 0.45027 0.08936 0.0
C1582 C 0.81656 0.463 0.07283 0.0
C1583 C 0.83726 0.47515 0.05605 0.0
C1584 C 0.82592 0.48729 0.04048 0.0
C1585 C 0.79381 0.48718 0.04149 0.0
C1586 C 0.77289 0.47477 0.05804 0.0
C1587 C 0.78408 0.46255 0.07364 0.0
H1588 H 0.7851 0.49662 0.02943 0.0
H1589 H 0.86756 0.36055 0.18296 0.0
H1590 H 0.49292 0.19223 0.43081 0.0
H1591 H 0.54814 0.19119 0.42793 0.0
H1592 H 0.50612 0.12149 0.37895 0.0
H1593 H 0.45102 0.12346 0.38134 0.0
H1594 H 0.57044 0.14628 0.42951 0.0
H1595 H 0.57117 0.14177 0.34637 0.0
H1596 H 0.54615 0.15759 0.31874 0.0
H1597 H 0.54096 0.23697 0.35285 0.0
H1598 H 0.56637 0.22194 0.38056 0.0
H1599 H 0.72758 0.1432 0.40162 0.0
H1600 H 0.66578 0.12869 0.40579 0.0
H1601 H 0.69098 0.22892 0.3805 0.0
H1602 H 0.75181 0.24262 0.37555 0.0
H1603 H 0.63252 0.18312 0.36668 0.0
H1604 H 0.67938 0.21025 0.4311 0.0
H1605 H 0.70809 0.20401 0.46028 0.0
H1606 H 0.62519 0.09607 0.46623 0.0
H1607 H 0.59621 0.10156 0.43694 0.0
C1608 C 0.49519 0.17635 0.41953 0.0
C1609 C 0.46767 0.15828 0.40615 0.0
C1610 C 0.52683 0.17567 0.41795 0.0
C1611 C 0.53164 0.15673 0.40304 0.0
C1612 C 0.50337 0.1369 0.39035 0.0
C1613 C 0.47181 0.13793 0.39177 0.0
C1614 C 0.56703 0.15996 0.40009 0.0
C1615 C 0.58392 0.15408 0.41573 0.0
C1616 C 0.58505 0.17082 0.38224 0.0
C1617 C 0.57024 0.1804 0.36558 0.0
C1618 C 0.56477 0.16266 0.34793 0.0
C1619 C 0.55052 0.17149 0.33227 0.0
C1620 C 0.54184 0.19817 0.33406 0.0
C1621 C 0.54756 0.21622 0.3515 0.0
C1622 C 0.56186 0.20754 0.36719 0.0
C1623 C 0.71981 0.16206 0.39699 0.0
C1624 C 0.74452 0.19399 0.38821 0.0
C1625 C 0.68452 0.15383 0.39944 0.0
C1626 C 0.67357 0.17779 0.39359 0.0
C1627 C 0.69848 0.20978 0.385 0.0
C1628 C 0.73339 0.21766 0.38223 0.0
C1629 C 0.63633 0.16999 0.39619 0.0
C1630 C 0.61897 0.17486 0.38043 0.0
C1631 C 0.6185 0.15956 0.41413 0.0
C1632 C 0.63587 0.15619 0.43172 0.0
C1633 C 0.66743 0.18511 0.43856 0.0
C1634 C 0.68372 0.18172 0.45513 0.0
C1635 C 0.66854 0.14963 0.46507 0.0
C1636 C 0.63697 0.12089 0.45849 0.0
C1637 C 0.62059 0.12412 0.44192 0.0
H1638 H 0.68119 0.14706 0.4779 0.0
H1639 H 0.53077 0.20492 0.32193 0.0
H1640 H 0.42596 0.25601 0.08602 0.0
H1641 H 0.47458 0.31644 0.08129 0.0
H1642 H 0.47865 0.33506 0.14247 0.0
H1643 H 0.43006 0.27464 0.14738 0.0
H1644 H 0.48909 0.39364 0.11996 0.0
H1645 H 0.53247 0.31173 0.12504 0.0
H1646 H 0.5345 0.25797 0.11636 0.0
H1647 H 0.56425 0.29628 0.05854 0.0
H1648 H 0.56174 0.35001 0.0668 0.0
H1649 H 0.66598 0.53526 0.1302 0.0
H1650 H 0.60944 0.48014 0.13262 0.0
H1651 H 0.61651 0.45857 0.07264 0.0
H1652 H 0.67341 0.51326 0.07022 0.0
H1653 H 0.59878 0.40168 0.09352 0.0
H1654 H 0.55809 0.48512 0.0887 0.0
H1655 H 0.55499 0.53835 0.09726 0.0
H1656 H 0.52007 0.4975 0.15423 0.0
H1657 H 0.52342 0.44422 0.14608 0.0
C1658 C 0.43667 0.27315 0.09844 0.0
C1659 C 0.4244 0.26042 0.11711 0.0
C1660 C 0.46454 0.30762 0.09571 0.0
C1661 C 0.48046 0.32997 0.11156 0.0
C1662 C 0.46674 0.31815 0.13006 0.0
C1663 C 0.43905 0.28358 0.13283 0.0
C1664 C 0.51323 0.3645 0.10905 0.0
C1665 C 0.5132 0.39549 0.11433 0.0
C1666 C 0.54442 0.36676 0.1014 0.0
C1667 C 0.54652 0.33472 0.09648 0.0
C1668 C 0.53916 0.30857 0.11043 0.0
C1669 C 0.54043 0.27811 0.1056 0.0
C1670 C 0.5494 0.27366 0.0869 0.0
C1671 C 0.55724 0.29973 0.07302 0.0
C1672 C 0.5559 0.3302 0.07776 0.0
C1673 C 0.65536 0.51895 0.11748 0.0
C1674 C 0.67421 0.52867 0.10001 0.0
C1675 C 0.62294 0.48749 0.11886 0.0
C1676 C 0.60852 0.46533 0.10276 0.0
C1677 C 0.6271 0.47522 0.08526 0.0
C1678 C 0.65959 0.50657 0.08389 0.0
C1679 C 0.5748 0.43116 0.10435 0.0
C1680 C 0.57467 0.40006 0.09899 0.0
C1681 C 0.54349 0.42886 0.11191 0.0
C1682 C 0.54131 0.46081 0.11683 0.0
C1683 C 0.55 0.4876 0.1031 0.0
C1684 C 0.54816 0.51776 0.10787 0.0
C1685 C 0.53742 0.52134 0.12629 0.0
C1686 C 0.52841 0.49471 0.13997 0.0
C1687 C 0.53024 0.46451 0.13528 0.0
H1688 H 0.53601 0.54472 0.12996 0.0
H1689 H 0.55034 0.25005 0.08318 0.0
H1690 H 0.84659 0.54821 0.35653 0.0
H1691 H 0.85896 0.5001 0.36146 0.0
H1692 H 0.85856 0.51362 0.42297 0.0
H1693 H 0.84684 0.56256 0.41812 0.0
H1694 H 0.90909 0.49751 0.41266 0.0
H1695 H 0.78571 0.4496 0.40132 0.0
H1696 H 0.73239 0.44196 0.38458 0.0
H1697 H 0.76185 0.40646 0.33385 0.0
H1698 H 0.81564 0.41436 0.35019 0.0
H1699 H 0.87067 0.31968 0.43336 0.0
H1700 H 0.87175 0.37618 0.4312 0.0
H1701 H 0.87732 0.37293 0.36929 0.0
H1702 H 0.87607 0.31641 0.37129 0.0
H1703 H 0.82385 0.38394 0.38169 0.0
H1704 H 0.94824 0.4314 0.39541 0.0
H1705 H 0.99871 0.43701 0.41433 0.0
H1706 H 0.96339 0.47051 0.46357 0.0
H1707 H 0.9124 0.46462 0.44502 0.0
C1708 C 0.84952 0.54128 0.37113 0.0
C1709 C 0.84535 0.55899 0.38694 0.0
C1710 C 0.85651 0.51367 0.37392 0.0
C1711 C 0.85896 0.50273 0.39259 0.0
C1712 C 0.85662 0.5215 0.40843 0.0
C1713 C 0.84988 0.54943 0.40563 0.0
C1714 C 0.86187 0.47046 0.39539 0.0
C1715 C 0.89024 0.47257 0.40608 0.0
C1716 C 0.83731 0.43787 0.38679 0.0
C1717 C 0.80488 0.43288 0.37692 0.0
C1718 C 0.78096 0.4404 0.38654 0.0
C1719 C 0.75063 0.43599 0.37714 0.0
C1720 C 0.74379 0.42381 0.35815 0.0
C1721 C 0.76721 0.41593 0.34855 0.0
C1722 C 0.79761 0.42034 0.35788 0.0
C1723 C 0.87265 0.33123 0.41929 0.0
C1724 C 0.87309 0.31341 0.40248 0.0
C1725 C 0.87338 0.36361 0.41809 0.0
C1726 C 0.87461 0.3788 0.40008 0.0
C1727 C 0.8763 0.36166 0.38333 0.0
C1728 C 0.87575 0.32941 0.38452 0.0
C1729 C 0.87155 0.41114 0.39855 0.0
C1730 C 0.84283 0.40892 0.3882 0.0
C1731 C 0.89541 0.4433 0.40778 0.0
C1732 C 0.92632 0.44728 0.41886 0.0
C1733 C 0.95109 0.43974 0.41031 0.0
C1734 C 0.97983 0.44301 0.42096 0.0
C1735 C 0.98424 0.45409 0.44014 0.0
C1736 C 0.95995 0.46196 0.4487 0.0
C1737 C 0.93115 0.45869 0.43812 0.0
H1738 H 0.00647 0.45655 0.44837 0.0
H1739 H 0.7203 0.42041 0.35089 0.0
H1740 H 0.11561 0.71014 0.63234 0.0
H1741 H 0.10535 0.65002 0.62878 0.0
H1742 H 0.17157 0.68173 0.57818 0.0
H1743 H 0.18178 0.74185 0.58151 0.0
H1744 H 0.11358 0.61467 0.57449 0.0
H1745 H 0.20632 0.6808 0.62075 0.0
H1746 H 0.23176 0.71704 0.64992 0.0
H1747 H 0.15262 0.63378 0.68472 0.0
H1748 H 0.12639 0.59722 0.6557 0.0
H1749 H 0.17352 0.49032 0.5725 0.0
H1750 H 0.16669 0.54254 0.57331 0.0
H1751 H 0.10695 0.50567 0.62608 0.0
H1752 H 0.11417 0.4536 0.62556 0.0
H1753 H 0.15643 0.57293 0.62919 0.0
H1754 H 0.06662 0.50437 0.58324 0.0
H1755 H 0.04114 0.46814 0.5541 0.0
H1756 H 0.11378 0.55493 0.51875 0.0
H1757 H 0.14007 0.59156 0.54771 0.0
C1758 C 0.12751 0.70423 0.62025 0.0
C1759 C 0.14985 0.73094 0.60733 0.0
C1760 C 0.12168 0.66985 0.61827 0.0
C1761 C 0.13817 0.66157 0.6034 0.0
C1762 C 0.15868 0.68759 0.5898 0.0
C1763 C 0.16456 0.72198 0.59176 0.0
C1764 C 0.13642 0.62674 0.60288 0.0
C1765 C 0.12314 0.60558 0.58637 0.0
C1766 C 0.14824 0.61461 0.61857 0.0
C1767 C 0.16416 0.63644 0.63604 0.0
C1768 C 0.19418 0.67033 0.63461 0.0
C1769 C 0.20876 0.69091 0.65111 0.0
C1770 C 0.19375 0.67775 0.66915 0.0
C1771 C 0.16418 0.64395 0.67073 0.0
C1772 C 0.14945 0.62328 0.65426 0.0
C1773 C 0.15864 0.49312 0.5842 0.0
C1774 C 0.14445 0.46779 0.59899 0.0
C1775 C 0.15459 0.52294 0.58458 0.0
C1776 C 0.136 0.52791 0.59966 0.0
C1777 C 0.12136 0.50239 0.61429 0.0
C1778 C 0.12546 0.47259 0.61394 0.0
C1779 C 0.13366 0.5607 0.60074 0.0
C1780 C 0.14639 0.58165 0.61736 0.0
C1781 C 0.1213 0.57254 0.58515 0.0
C1782 C 0.10552 0.55062 0.56768 0.0
C1783 C 0.07736 0.51566 0.56927 0.0
C1784 C 0.06273 0.49506 0.55278 0.0
C1785 C 0.07589 0.5092 0.53459 0.0
C1786 C 0.10364 0.544 0.53285 0.0
C1787 C 0.11839 0.56471 0.5493 0.0
H1788 H 0.06452 0.49321 0.52184 0.0
H1789 H 0.20508 0.69369 0.68191 0.0
H1790 H 0.31618 0.8473 0.93125 0.0
H1791 H 0.3727 0.84834 0.92805 0.0
H1792 H 0.35614 0.83223 0.86682 0.0
H1793 H 0.29977 0.83152 0.86984 0.0
H1794 H 0.37319 0.78488 0.8852 0.0
H1795 H 0.4161 0.9102 0.88227 0.0
H1796 H 0.42318 0.96672 0.89395 0.0
H1797 H 0.47225 0.95791 0.94567 0.0
H1798 H 0.46499 0.90103 0.93441 0.0
H1799 H 0.53591 0.80869 0.85379 0.0
H1800 H 0.48501 0.8167 0.85884 0.0
H1801 H 0.51488 0.84359 0.9183 0.0
H1802 H 0.56657 0.83608 0.91327 0.0
H1803 H 0.49114 0.88522 0.90283 0.0
H1804 H 0.45001 0.76203 0.90688 0.0
H1805 H 0.44238 0.70444 0.89686 0.0
H1806 H 0.38859 0.70701 0.8456 0.0
H1807 H 0.39642 0.76494 0.85516 0.0
C1808 C 0.32474 0.84437 0.91706 0.0
C1809 C 0.30346 0.83931 0.9008 0.0
C1810 C 0.35709 0.84505 0.91526 0.0
C1811 C 0.36863 0.8404 0.89719 0.0
C1812 C 0.34771 0.83587 0.88089 0.0
C1813 C 0.31558 0.83564 0.88264 0.0
C1814 C 0.40166 0.83857 0.89539 0.0
C1815 C 0.39905 0.80698 0.88879 0.0
C1816 C 0.43518 0.86694 0.90082 0.0
C1817 C 0.43965 0.90116 0.90759 0.0
C1818 C 0.4281 0.92014 0.89621 0.0
C1819 C 0.43221 0.95228 0.90274 0.0
C1820 C 0.44806 0.96584 0.92057 0.0
C1821 C 0.45993 0.94734 0.93188 0.0
C1822 C 0.45585 0.91517 0.92542 0.0
C1823 C 0.5319 0.81655 0.86794 0.0
C1824 C 0.55518 0.82143 0.88318 0.0
C1825 C 0.50266 0.82102 0.87081 0.0
C1826 C 0.49569 0.83008 0.88904 0.0
C1827 C 0.51963 0.83641 0.90414 0.0
C1828 C 0.54913 0.83207 0.90125 0.0
C1829 C 0.46276 0.83171 0.89227 0.0
C1830 C 0.46531 0.86311 0.89924 0.0
C1831 C 0.42901 0.80295 0.88745 0.0
C1832 C 0.42411 0.76802 0.88165 0.0
C1833 C 0.43681 0.75046 0.89339 0.0
C1834 C 0.43241 0.71773 0.88781 0.0
C1835 C 0.41508 0.70211 0.87059 0.0
C1836 C 0.40205 0.71917 0.85893 0.0
C1837 C 0.40644 0.75195 0.86443 0.0
H1838 H 0.41168 0.67676 0.86629 0.0
H1839 H 0.45123 0.99074 0.9256 0.0
H1840 H 0.54366 0.65429 0.574 0.0
H1841 H 0.48742 0.59952 0.57861 0.0
H1842 H 0.47615 0.63567 0.63459 0.0
H1843 H 0.53274 0.69005 0.63031 0.0
H1844 H 0.45322 0.56669 0.63566 0.0
H1845 H 0.43653 0.64545 0.59455 0.0
H1846 H 0.447 0.68367 0.56631 0.0
H1847 H 0.41566 0.59478 0.52872 0.0
H1848 H 0.4055 0.55616 0.55679 0.0
H1849 H 0.26746 0.47855 0.64868 0.0
H1850 H 0.33035 0.52029 0.64414 0.0
H1851 H 0.32898 0.46893 0.59081 0.0
H1852 H 0.26568 0.42704 0.59517 0.0
H1853 H 0.35997 0.5404 0.58692 0.0
H1854 H 0.3705 0.46037 0.62983 0.0
H1855 H 0.35686 0.42386 0.65909 0.0
H1856 H 0.39728 0.51688 0.69431 0.0
H1857 H 0.41067 0.55392 0.66526 0.0
C1858 C 0.52943 0.65041 0.58739 0.0
C1859 C 0.54252 0.67669 0.60171 0.0
C1860 C 0.49723 0.61911 0.58998 0.0
C1861 C 0.47726 0.61373 0.60681 0.0
C1862 C 0.49106 0.63923 0.62148 0.0
C1863 C 0.52339 0.67039 0.61897 0.0
C1864 C 0.44107 0.58268 0.6087 0.0
C1865 C 0.43279 0.56103 0.62505 0.0
C1866 C 0.41452 0.57488 0.59468 0.0
C1867 C 0.42062 0.59803 0.57777 0.0
C1868 C 0.43209 0.63413 0.58026 0.0
C1869 C 0.43794 0.65585 0.56429 0.0
C1870 C 0.43206 0.64167 0.54573 0.0
C1871 C 0.42026 0.60574 0.54311 0.0
C1872 C 0.41446 0.58393 0.55905 0.0
C1873 C 0.28054 0.47582 0.63607 0.0
C1874 C 0.26153 0.4495 0.62226 0.0
C1875 C 0.31659 0.49963 0.63355 0.0
C1876 C 0.33444 0.49754 0.61722 0.0
C1877 C 0.31571 0.47092 0.60355 0.0
C1878 C 0.27959 0.44695 0.60609 0.0
C1879 C 0.37206 0.5246 0.61394 0.0
C1880 C 0.38057 0.54563 0.59735 0.0
C1881 C 0.39864 0.53204 0.62784 0.0
C1882 C 0.39138 0.50991 0.64535 0.0
C1883 C 0.37632 0.47303 0.64381 0.0
C1884 C 0.36864 0.45224 0.66037 0.0
C1885 C 0.37612 0.46803 0.67855 0.0
C1886 C 0.39147 0.50468 0.68021 0.0
C1887 C 0.39917 0.5256 0.66371 0.0
H1888 H 0.37007 0.45187 0.69135 0.0
H1889 H 0.43658 0.65852 0.53337 0.0
H1890 H 0.14322 0.71157 0.91611 0.0
H1891 H 0.12712 0.65016 0.92263 0.0
H1892 H 0.17051 0.64493 0.86767 0.0
H1893 H 0.18591 0.70566 0.8609 0.0
H1894 H 0.11098 0.58467 0.87466 0.0
H1895 H 0.21849 0.66263 0.90973 0.0
H1896 H 0.25424 0.70966 0.93311 0.0
H1897 H 0.18199 0.64921 0.97832 0.0
H1898 H 0.14556 0.602 0.95513 0.0
H1899 H 0.17006 0.4629 0.88173 0.0
H1900 H 0.16258 0.51433 0.87911 0.0
H1901 H 0.11739 0.49459 0.93615 0.0
H1902 H 0.12558 0.4431 0.9391 0.0
H1903 H 0.16619 0.56272 0.93157 0.0
H1904 H 0.06495 0.47929 0.89597 0.0
H1905 H 0.03299 0.4325 0.87184 0.0
H1906 H 0.09605 0.50328 0.82674 0.0
H1907 H 0.1287 0.55037 0.85062 0.0
C1908 C 0.14894 0.69717 0.90534 0.0
C1909 C 0.16612 0.7136 0.88806 0.0
C1910 C 0.13982 0.66213 0.90911 0.0
C1911 C 0.14802 0.6431 0.89574 0.0
C1912 C 0.16389 0.65906 0.8782 0.0
C1913 C 0.17285 0.69391 0.87439 0.0
C1914 C 0.14214 0.60733 0.90024 0.0
C1915 C 0.12303 0.57983 0.8871 0.0
C1916 C 0.15713 0.60077 0.91673 0.0
C1917 C 0.17909 0.62903 0.93067 0.0
C1918 C 0.2101 0.6595 0.92463 0.0
C1919 C 0.2305 0.68616 0.93785 0.0
C1920 C 0.22033 0.68247 0.95718 0.0
C1921 C 0.18979 0.65206 0.96334 0.0
C1922 C 0.16926 0.62535 0.95017 0.0
C1923 C 0.15825 0.46921 0.8937 0.0
C1924 C 0.14839 0.44883 0.91064 0.0
C1925 C 0.15377 0.49857 0.89212 0.0
C1926 C 0.13885 0.50799 0.9073 0.0
C1927 C 0.12875 0.48764 0.92422 0.0
C1928 C 0.13341 0.45823 0.92586 0.0
C1929 C 0.13583 0.54029 0.9057 0.0
C1930 C 0.15331 0.56719 0.91939 0.0
C1931 C 0.1196 0.54636 0.88961 0.0
C1932 C 0.09938 0.51835 0.87513 0.0
C1933 C 0.07209 0.48485 0.88092 0.0
C1934 C 0.05385 0.45827 0.86728 0.0
C1935 C 0.06252 0.4649 0.84777 0.0
C1936 C 0.08935 0.49818 0.84186 0.0
C1937 C 0.10768 0.52486 0.85544 0.0
H1938 H 0.04845 0.44425 0.83724 0.0
H1939 H 0.23615 0.70314 0.96739 0.0
H1940 H 0.32686 0.87965 0.6221 0.0
H1941 H 0.38421 0.88187 0.6233 0.0
H1942 H 0.35836 0.82042 0.57109 0.0
H1943 H 0.30124 0.81814 0.56973 0.0
H1944 H 0.38275 0.79433 0.59953 0.0
H1945 H 0.41749 0.90605 0.56969 0.0
H1946 H 0.42212 0.9645 0.56679 0.0
H1947 H 0.48047 0.99741 0.6198 0.0
H1948 H 0.47571 0.93891 0.62319 0.0
H1949 H 0.54788 0.8079 0.58117 0.0
H1950 H 0.49668 0.81607 0.57704 0.0
H1951 H 0.52379 0.87729 0.62936 0.0
H1952 H 0.57517 0.86933 0.63363 0.0
H1953 H 0.49946 0.90471 0.60082 0.0
H1954 H 0.46351 0.79369 0.63144 0.0
H1955 H 0.45776 0.73495 0.63553 0.0
H1956 H 0.40065 0.70051 0.5822 0.0
H1957 H 0.40662 0.75933 0.57761 0.0
C1958 C 0.33351 0.86684 0.6108 0.0
C1959 C 0.30943 0.84869 0.59583 0.0
C1960 C 0.36633 0.86823 0.61147 0.0
C1961 C 0.37561 0.85141 0.59724 0.0
C1962 C 0.35175 0.83356 0.58222 0.0
C1963 C 0.31912 0.8324 0.58145 0.0
C1964 C 0.40957 0.85118 0.59833 0.0
C1965 C 0.40828 0.81846 0.59951 0.0
C1966 C 0.44283 0.88269 0.59884 0.0
C1967 C 0.44592 0.91796 0.59679 0.0
C1968 C 0.43104 0.92564 0.58082 0.0
C1969 C 0.43374 0.9588 0.57907 0.0
C1970 C 0.4515 0.98463 0.59312 0.0
C1971 C 0.46668 0.97736 0.60893 0.0
C1972 C 0.46401 0.94421 0.61077 0.0
C1973 C 0.54335 0.82361 0.59166 0.0
C1974 C 0.56549 0.83769 0.60784 0.0
C1975 C 0.51397 0.82814 0.5893 0.0
C1976 C 0.50614 0.84686 0.60304 0.0
C1977 C 0.52929 0.86267 0.61861 0.0
C1978 C 0.5586 0.85799 0.62105 0.0
C1979 C 0.47257 0.84784 0.60184 0.0
C1980 C 0.47391 0.88062 0.60073 0.0
C1981 C 0.43925 0.81637 0.60149 0.0
C1982 C 0.43586 0.78105 0.60408 0.0
C1983 C 0.45006 0.77373 0.62048 0.0
C1984 C 0.44672 0.74041 0.6229 0.0
C1985 C 0.42893 0.71406 0.60911 0.0
C1986 C 0.41449 0.72099 0.59285 0.0
C1987 C 0.41784 0.75432 0.59033 0.0
H1988 H 0.42617 0.68823 0.61111 0.0
H1989 H 0.45357 0.01029 0.59174 0.0
H1990 H 0.53709 0.6991 0.9288 0.0
H1991 H 0.4851 0.64027 0.92694 0.0
H1992 H 0.51712 0.62601 0.87039 0.0
H1993 H 0.56895 0.68545 0.87194 0.0
H1994 H 0.4488 0.60751 0.87083 0.0
H1995 H 0.52396 0.58241 0.91049 0.0
H1996 H 0.56366 0.59307 0.93811 0.0
H1997 H 0.47918 0.57267 0.97722 0.0
H1998 H 0.4391 0.56242 0.94983 0.0
H1999 H 0.31326 0.43039 0.86243 0.0
H2000 H 0.37291 0.48124 0.86547 0.0
H2001 H 0.34752 0.50209 0.92226 0.0
H2002 H 0.28802 0.45083 0.91951 0.0
H2003 H 0.41472 0.51543 0.92117 0.0
H2004 H 0.34199 0.54626 0.88314 0.0
H2005 H 0.30191 0.54017 0.85649 0.0
H2006 H 0.38119 0.55309 0.81539 0.0
H2007 H 0.42159 0.55878 0.84182 0.0
C2008 C 0.53334 0.68338 0.91602 0.0
C2009 C 0.55721 0.69703 0.9005 0.0
C2010 C 0.50362 0.64961 0.91502 0.0
C2011 C 0.49735 0.62849 0.89861 0.0
C2012 C 0.52145 0.6418 0.88322 0.0
C2013 C 0.55114 0.67572 0.88416 0.0
C2014 C 0.46471 0.59331 0.89716 0.0
C2015 C 0.44174 0.58709 0.88162 0.0
C2016 C 0.45492 0.56709 0.91158 0.0
C2017 C 0.47857 0.57185 0.92809 0.0
C2018 C 0.51387 0.58029 0.92498 0.0
C2019 C 0.53644 0.58628 0.94059 0.0
C2020 C 0.52397 0.58361 0.9594 0.0
C2021 C 0.48881 0.57473 0.96264 0.0
C2022 C 0.46613 0.56877 0.94707 0.0
C2023 C 0.32048 0.44545 0.8757 0.0
C2024 C 0.29568 0.43671 0.89064 0.0
C2025 C 0.3546 0.47463 0.87738 0.0
C2026 C 0.36451 0.49593 0.89395 0.0
C2027 C 0.34047 0.48615 0.90931 0.0
C2028 C 0.30639 0.45683 0.90769 0.0
C2029 C 0.39896 0.52961 0.89475 0.0
C2030 C 0.42211 0.53564 0.91022 0.0
C2031 C 0.40886 0.5559 0.88037 0.0
C2032 C 0.38464 0.55252 0.86445 0.0
C2033 C 0.35076 0.54751 0.86842 0.0
C2034 C 0.32801 0.54419 0.85335 0.0
C2035 C 0.33896 0.54613 0.83426 0.0
C2036 C 0.37272 0.55151 0.83019 0.0
C2037 C 0.39557 0.55481 0.8452 0.0
H2038 H 0.3213 0.54356 0.82261 0.0
H2039 H 0.54153 0.58841 0.97147 0.0
loop_
_geom_bond_atom_site_label_1
_geom_bond_atom_site_label_2
_geom_bond_distance
_geom_bond_site_symmetry_2
_ccdc_geom_bond_type
Zn0 O6 1.969 . S
Zn0 O7 1.965 . S
Zn0 O11 2.024 . S
Zn0 O16 1.969 . S
Zn1 O8 1.969 . S
Zn1 O14 1.969 . S
Zn1 O15 1.965 . S
Zn1 O17 2.024 . S
C2 O3 1.229 . S
C2 O11 1.058 . S
O3 C2 1.229 . S
C4 O5 1.229 . S
C4 O17 1.058 . S
O5 C4 1.229 . S
O6 Zn0 1.969 . S
O6 C9 1.267 . S
O7 Zn0 1.965 . S
O7 C18 1.260 . S
O8 Zn1 1.969 . S
O8 C18 1.258 . S
C9 O6 1.267 . S
C9 O10 1.228 . S
O10 C9 1.228 . S
O11 Zn0 2.024 . S
O11 C2 1.058 . S
C12 O13 1.228 . S
C12 O14 1.267 . S
O13 C12 1.228 . S
O14 Zn1 1.969 . S
O14 C12 1.267 . S
O15 Zn1 1.965 . S
O15 C19 1.260 . S
O16 Zn0 1.969 . S
O16 C19 1.258 . S
O17 Zn1 2.024 . S
O17 C4 1.058 . S
C18 O7 1.260 . S
C18 O8 1.258 . S
C19 O15 1.260 . S
C19 O16 1.258 . S
Zn20 O26 1.969 . S
Zn20 O27 1.965 . S
Zn20 O31 2.024 . S
Zn20 O36 1.969 . S
Zn21 O28 1.969 . S
Zn21 O34 1.969 . S
Zn21 O35 1.965 . S
Zn21 O37 2.024 . S
C22 O23 1.229 . S
C22 O31 1.058 . S
O23 C22 1.229 . S
C24 O25 1.229 . S
C24 O37 1.058 . S
O25 C24 1.229 . S
O26 Zn20 1.969 . S
O26 C29 1.267 . S
O27 Zn20 1.965 . S
O27 C38 1.260 . S
O28 Zn21 1.969 . S
O28 C38 1.258 . S
C29 O26 1.267 . S
C29 O30 1.228 . S
O30 C29 1.228 . S
O31 Zn20 2.024 . S
O31 C22 1.058 . S
C32 O33 1.228 . S
C32 O34 1.267 . S
O33 C32 1.228 . S
O34 Zn21 1.969 . S
O34 C32 1.267 . S
O35 Zn21 1.965 . S
O35 C39 1.260 . S
O36 Zn20 1.969 . S
O36 C39 1.258 . S
O37 Zn21 2.024 . S
O37 C24 1.058 . S
C38 O27 1.260 . S
C38 O28 1.258 . S
C39 O35 1.260 . S
C39 O36 1.258 . S
Zn40 O46 1.969 . S
Zn40 O47 1.965 . S
Zn40 O51 2.024 . S
Zn40 O56 1.969 . S
Zn41 O48 1.969 . S
Zn41 O54 1.969 . S
Zn41 O55 1.965 . S
Zn41 O57 2.024 . S
C42 O43 1.229 . S
C42 O51 1.058 . S
O43 C42 1.229 . S
C44 O45 1.229 . S
C44 O57 1.058 . S
O45 C44 1.229 . S
O46 Zn40 1.969 . S
O46 C49 1.267 . S
O47 Zn40 1.965 . S
O47 C58 1.260 . S
O48 Zn41 1.969 . S
O48 C58 1.258 . S
C49 O46 1.267 . S
C49 O50 1.228 . S
O50 C49 1.228 . S
O51 Zn40 2.024 . S
O51 C42 1.058 . S
C52 O53 1.228 . S
C52 O54 1.267 . S
O53 C52 1.228 . S
O54 Zn41 1.969 . S
O54 C52 1.267 . S
O55 Zn41 1.965 . S
O55 C59 1.260 . S
O56 Zn40 1.969 . S
O56 C59 1.258 . S
O57 Zn41 2.024 . S
O57 C44 1.058 . S
C58 O47 1.260 . S
C58 O48 1.258 . S
C59 O55 1.260 . S
C59 O56 1.258 . S
Zn60 O66 1.969 . S
Zn60 O67 1.965 . S
Zn60 O71 2.024 . S
Zn60 O76 1.969 . S
Zn61 O68 1.969 . S
Zn61 O74 1.969 . S
Zn61 O75 1.965 . S
Zn61 O77 2.024 . S
C62 O63 1.229 . S
C62 O71 1.058 . S
O63 C62 1.229 . S
C64 O65 1.229 . S
C64 O77 1.058 . S
O65 C64 1.229 . S
O66 Zn60 1.969 . S
O66 C69 1.267 . S
O67 Zn60 1.965 . S
O67 C78 1.260 . S
O68 Zn61 1.969 . S
O68 C78 1.258 . S
C69 O66 1.267 . S
C69 O70 1.228 . S
O70 C69 1.228 . S
O71 Zn60 2.024 . S
O71 C62 1.058 . S
C72 O73 1.228 . S
C72 O74 1.267 . S
O73 C72 1.228 . S
O74 Zn61 1.969 . S
O74 C72 1.267 . S
O75 Zn61 1.965 . S
O75 C79 1.260 . S
O76 Zn60 1.969 . S
O76 C79 1.258 . S
O77 Zn61 2.024 . S
O77 C64 1.058 . S
C78 O67 1.260 . S
C78 O68 1.258 . S
C79 O75 1.260 . S
C79 O76 1.258 . S
Zn80 O86 1.969 . S
Zn80 O87 1.965 . S
Zn80 O91 2.024 . S
Zn80 O96 1.969 . S
Zn81 O88 1.969 . S
Zn81 O94 1.969 . S
Zn81 O95 1.965 . S
Zn81 O97 2.024 . S
C82 O83 1.229 . S
C82 O91 1.058 . S
O83 C82 1.229 . S
C84 O85 1.229 . S
C84 O97 1.058 . S
O85 C84 1.229 . S
O86 Zn80 1.969 . S
O86 C89 1.267 . S
O87 Zn80 1.965 . S
O87 C98 1.260 . S
O88 Zn81 1.969 . S
O88 C98 1.258 . S
C89 O86 1.267 . S
C89 O90 1.228 . S
O90 C89 1.228 . S
O91 Zn80 2.024 . S
O91 C82 1.058 . S
C92 O93 1.228 . S
C92 O94 1.267 . S
O93 C92 1.228 . S
O94 Zn81 1.969 . S
O94 C92 1.267 . S
O95 Zn81 1.965 . S
O95 C99 1.260 . S
O96 Zn80 1.969 . S
O96 C99 1.258 . S
O97 Zn81 2.024 . S
O97 C84 1.058 . S
C98 O87 1.260 . S
C98 O88 1.258 . S
C99 O95 1.260 . S
C99 O96 1.258 . S
Zn100 O106 1.969 . S
Zn100 O107 1.965 . S
Zn100 O111 2.024 . S
Zn100 O116 1.969 . S
Zn101 O108 1.969 . S
Zn101 O114 1.969 . S
Zn101 O115 1.965 . S
Zn101 O117 2.024 . S
C102 O103 1.229 . S
C102 O111 1.058 . S
O103 C102 1.229 . S
C104 O105 1.229 . S
C104 O117 1.058 . S
O105 C104 1.229 . S
O106 Zn100 1.969 . S
O106 C109 1.267 . S
O107 Zn100 1.965 . S
O107 C118 1.260 . S
O108 Zn101 1.969 . S
O108 C118 1.258 . S
C109 O106 1.267 . S
C109 O110 1.228 . S
O110 C109 1.228 . S
O111 Zn100 2.024 . S
O111 C102 1.058 . S
C112 O113 1.228 . S
C112 O114 1.267 . S
O113 C112 1.228 . S
O114 Zn101 1.969 . S
O114 C112 1.267 . S
O115 Zn101 1.965 . S
O115 C119 1.260 . S
O116 Zn100 1.969 . S
O116 C119 1.258 . S
O117 Zn101 2.024 . S
O117 C104 1.058 . S
C118 O107 1.260 . S
C118 O108 1.258 . S
C119 O115 1.260 . S
C119 O116 1.258 . S
Zn120 O126 1.969 . S
Zn120 O127 1.965 . S
Zn120 O131 2.024 . S
Zn120 O136 1.969 . S
Zn121 O128 1.969 . S
Zn121 O134 1.969 . S
Zn121 O135 1.965 . S
Zn121 O137 2.024 . S
C122 O123 1.229 . S
C122 O131 1.058 . S
O123 C122 1.229 . S
C124 O125 1.229 . S
C124 O137 1.058 . S
O125 C124 1.229 . S
O126 Zn120 1.969 . S
O126 C129 1.267 . S
O127 Zn120 1.965 . S
O127 C138 1.260 . S
O128 Zn121 1.969 . S
O128 C138 1.258 . S
C129 O126 1.267 . S
C129 O130 1.228 . S
O130 C129 1.228 . S
O131 Zn120 2.024 . S
O131 C122 1.058 . S
C132 O133 1.228 . S
C132 O134 1.267 . S
O133 C132 1.228 . S
O134 Zn121 1.969 . S
O134 C132 1.267 . S
O135 Zn121 1.965 . S
O135 C139 1.260 . S
O136 Zn120 1.969 . S
O136 C139 1.258 . S
O137 Zn121 2.024 . S
O137 C124 1.058 . S
C138 O127 1.260 . S
C138 O128 1.258 . S
C139 O135 1.260 . S
C139 O136 1.258 . S
Zn140 O146 1.969 . S
Zn140 O147 1.965 . S
Zn140 O151 2.024 . S
Zn140 O156 1.969 . S
Zn141 O148 1.969 . S
Zn141 O154 1.969 . S
Zn141 O155 1.965 . S
Zn141 O157 2.024 . S
C142 O143 1.229 . S
C142 O151 1.058 . S
O143 C142 1.229 . S
C144 O145 1.229 . S
C144 O157 1.058 . S
O145 C144 1.229 . S
O146 Zn140 1.969 . S
O146 C149 1.267 . S
O147 Zn140 1.965 . S
O147 C158 1.260 . S
O148 Zn141 1.969 . S
O148 C158 1.258 . S
C149 O146 1.267 . S
C149 O150 1.228 . S
O150 C149 1.228 . S
O151 Zn140 2.024 . S
O151 C142 1.058 . S
C152 O153 1.228 . S
C152 O154 1.267 . S
O153 C152 1.228 . S
O154 Zn141 1.969 . S
O154 C152 1.267 . S
O155 Zn141 1.965 . S
O155 C159 1.260 . S
O156 Zn140 1.969 . S
O156 C159 1.258 . S
O157 Zn141 2.024 . S
O157 C144 1.058 . S
C158 O147 1.260 . S
C158 O148 1.258 . S
C159 O155 1.260 . S
C159 O156 1.258 . S
Zn160 O166 1.969 . S
Zn160 O167 1.965 . S
Zn160 O171 2.024 . S
Zn160 O176 1.969 . S
Zn161 O168 1.969 . S
Zn161 O174 1.969 . S
Zn161 O175 1.965 . S
Zn161 O177 2.024 . S
C162 O163 1.229 . S
C162 O171 1.058 . S
O163 C162 1.229 . S
C164 O165 1.229 . S
C164 O177 1.058 . S
O165 C164 1.229 . S
O166 Zn160 1.969 . S
O166 C169 1.267 . S
O167 Zn160 1.965 . S
O167 C178 1.260 . S
O168 Zn161 1.969 . S
O168 C178 1.258 . S
C169 O166 1.267 . S
C169 O170 1.228 . S
O170 C169 1.228 . S
O171 Zn160 2.024 . S
O171 C162 1.058 . S
C172 O173 1.228 . S
C172 O174 1.267 . S
O173 C172 1.228 . S
O174 Zn161 1.969 . S
O174 C172 1.267 . S
O175 Zn161 1.965 . S
O175 C179 1.260 . S
O176 Zn160 1.969 . S
O176 C179 1.258 . S
O177 Zn161 2.024 . S
O177 C164 1.058 . S
C178 O167 1.260 . S
C178 O168 1.258 . S
C179 O175 1.260 . S
C179 O176 1.258 . S
Zn180 O186 1.969 . S
Zn180 O187 1.965 . S
Zn180 O191 2.024 . S
Zn180 O196 1.969 . S
Zn181 O188 1.969 . S
Zn181 O194 1.969 . S
Zn181 O195 1.965 . S
Zn181 O197 2.024 . S
C182 O183 1.229 . S
C182 O191 1.058 . S
O183 C182 1.229 . S
C184 O185 1.229 . S
C184 O197 1.058 . S
O185 C184 1.229 . S
O186 Zn180 1.969 . S
O186 C189 1.267 . S
O187 Zn180 1.965 . S
O187 C198 1.260 . S
O188 Zn181 1.969 . S
O188 C198 1.258 . S
C189 O186 1.267 . S
C189 O190 1.228 . S
O190 C189 1.228 . S
O191 Zn180 2.024 . S
O191 C182 1.058 . S
C192 O193 1.228 . S
C192 O194 1.267 . S
O193 C192 1.228 . S
O194 Zn181 1.969 . S
O194 C192 1.267 . S
O195 Zn181 1.965 . S
O195 C199 1.260 . S
O196 Zn180 1.969 . S
O196 C199 1.258 . S
O197 Zn181 2.024 . S
O197 C184 1.058 . S
C198 O187 1.260 . S
C198 O188 1.258 . S
C199 O195 1.260 . S
C199 O196 1.258 . S
Zn200 O206 1.969 . S
Zn200 O207 1.965 . S
Zn200 O211 2.024 . S
Zn200 O216 1.969 . S
Zn201 O208 1.969 . S
Zn201 O214 1.969 . S
Zn201 O215 1.965 . S
Zn201 O217 2.024 . S
C202 O203 1.229 . S
C202 O211 1.058 . S
O203 C202 1.229 . S
C204 O205 1.229 . S
C204 O217 1.058 . S
O205 C204 1.229 . S
O206 Zn200 1.969 . S
O206 C209 1.267 . S
O207 Zn200 1.965 . S
O207 C218 1.260 . S
O208 Zn201 1.969 . S
O208 C218 1.258 . S
C209 O206 1.267 . S
C209 O210 1.228 . S
O210 C209 1.228 . S
O211 Zn200 2.024 . S
O211 C202 1.058 . S
C212 O213 1.228 . S
C212 O214 1.267 . S
O213 C212 1.228 . S
O214 Zn201 1.969 . S
O214 C212 1.267 . S
O215 Zn201 1.965 . S
O215 C219 1.260 . S
O216 Zn200 1.969 . S
O216 C219 1.258 . S
O217 Zn201 2.024 . S
O217 C204 1.058 . S
C218 O207 1.260 . S
C218 O208 1.258 . S
C219 O215 1.260 . S
C219 O216 1.258 . S
Zn220 O226 1.969 . S
Zn220 O227 1.965 . S
Zn220 O231 2.024 . S
Zn220 O236 1.969 . S
Zn221 O228 1.969 . S
Zn221 O234 1.969 . S
Zn221 O235 1.965 . S
Zn221 O237 2.024 . S
C222 O223 1.229 . S
C222 O231 1.058 . S
O223 C222 1.229 . S
C224 O225 1.229 . S
C224 O237 1.058 . S
O225 C224 1.229 . S
O226 Zn220 1.969 . S
O226 C229 1.267 . S
O227 Zn220 1.965 . S
O227 C238 1.260 . S
O228 Zn221 1.969 . S
O228 C238 1.258 . S
C229 O226 1.267 . S
C229 O230 1.228 . S
O230 C229 1.228 . S
O231 Zn220 2.024 . S
O231 C222 1.058 . S
C232 O233 1.228 . S
C232 O234 1.267 . S
O233 C232 1.228 . S
O234 Zn221 1.969 . S
O234 C232 1.267 . S
O235 Zn221 1.965 . S
O235 C239 1.260 . S
O236 Zn220 1.969 . S
O236 C239 1.258 . S
O237 Zn221 2.024 . S
O237 C224 1.058 . S
C238 O227 1.260 . S
C238 O228 1.258 . S
C239 O235 1.260 . S
C239 O236 1.258 . S
H240 C258 0.951 . S
H241 C260 0.951 . S
H242 C262 0.950 . S
H243 C263 0.950 . S
H244 C265 0.950 . S
H245 C268 0.950 . S
H246 C269 0.950 1_655 S
H247 C271 0.950 . S
H248 C272 0.950 . S
H249 C273 0.951 . S
H250 C275 0.951 . S
H251 C277 0.950 . S
H252 C278 0.950 . S
H253 C280 0.950 . S
H254 C283 0.950 . S
H255 C284 0.950 . S
H256 C286 0.950 . S
H257 C287 0.950 . S
C258 H240 0.951 . S
C258 C259 1.366 . S
C258 C260 1.388 1_655 S
C259 C258 1.366 . S
C259 C263 1.385 1_655 S
C260 H241 0.951 . S
C260 C258 1.388 1_455 S
C260 C261 1.366 . S
C261 C260 1.366 . S
C261 C262 1.414 . S
C261 C264 1.499 . S
C262 H242 0.950 . S
C262 C261 1.414 . S
C262 C263 1.374 . S
C263 H243 0.950 . S
C263 C259 1.385 1_455 S
C263 C262 1.374 . S
C264 C261 1.499 . S
C264 C265 1.373 . S
C264 C266 1.389 . S
C265 H244 0.950 . S
C265 C264 1.373 . S
C265 C281 1.377 . S
C266 C264 1.389 . S
C266 C267 1.524 . S
C266 C280 1.377 . S
C267 C266 1.524 . S
C267 C268 1.397 . S
C267 C272 1.363 . S
C268 H245 0.950 . S
C268 C267 1.397 . S
C268 C269 1.334 . S
C269 H246 0.950 1_455 S
C269 C268 1.334 . S
C269 C270 1.287 1_455 S
C270 C269 1.287 1_655 S
C270 C271 1.535 . S
C270 H289 0.913 . S
C271 H247 0.950 . S
C271 C270 1.535 . S
C271 C272 1.404 1_655 S
C272 H248 0.950 . S
C272 C267 1.363 . S
C272 C271 1.404 1_455 S
C273 H249 0.951 . S
C273 C274 1.366 . S
C273 C275 1.388 . S
C274 C273 1.366 . S
C274 C278 1.385 . S
C275 H250 0.951 . S
C275 C273 1.388 . S
C275 C276 1.366 . S
C276 C275 1.366 . S
C276 C277 1.414 . S
C276 C279 1.499 . S
C277 H251 0.950 . S
C277 C276 1.414 . S
C277 C278 1.374 . S
C278 H252 0.950 . S
C278 C274 1.385 . S
C278 C277 1.374 . S
C279 C276 1.499 . S
C279 C280 1.373 . S
C279 C281 1.389 . S
C280 H253 0.950 . S
C280 C266 1.377 . S
C280 C279 1.373 . S
C281 C265 1.377 . S
C281 C279 1.389 . S
C281 C282 1.524 . S
C282 C281 1.524 . S
C282 C283 1.397 . S
C282 C287 1.363 . S
C283 H254 0.950 . S
C283 C282 1.397 . S
C283 C284 1.334 . S
C284 H255 0.950 . S
C284 C283 1.334 . S
C284 C285 1.287 . S
C285 C284 1.287 . S
C285 C286 1.524 . S
C285 H288 0.999 . S
C286 H256 0.950 . S
C286 C285 1.524 . S
C286 C287 1.415 . S
C287 H257 0.950 . S
C287 C282 1.363 . S
C287 C286 1.415 . S
H288 C285 0.999 . S
H289 C270 0.913 . S
H290 C308 0.951 . S
H291 C310 0.951 . S
H292 C312 0.950 . S
H293 C313 0.950 . S
H294 C315 0.950 . S
H295 C318 0.950 . S
H296 C319 0.948 . S
H297 C321 0.950 1_545 S
H298 C322 0.950 . S
H299 C323 0.951 . S
H300 C325 0.951 1_455 S
H301 C327 0.950 . S
H302 C328 0.950 . S
H303 C330 0.950 . S
H304 C333 0.950 . S
H305 C334 0.950 . S
H306 C336 0.950 . S
H307 C337 0.950 . S
C308 H290 0.951 . S
C308 C309 1.366 . S
C308 C310 1.388 1_545 S
C309 C308 1.366 . S
C309 C313 1.385 1_545 S
C310 H291 0.951 . S
C310 C308 1.388 1_565 S
C310 C311 1.366 . S
C311 C310 1.366 . S
C311 C312 1.414 . S
C311 C314 1.499 . S
C312 H292 0.950 . S
C312 C311 1.414 . S
C312 C313 1.374 . S
C313 H293 0.950 . S
C313 C309 1.385 1_565 S
C313 C312 1.374 . S
C314 C311 1.499 . S
C314 C315 1.373 . S
C314 C316 1.389 . S
C315 H294 0.950 . S
C315 C314 1.373 . S
C315 C331 1.377 . S
C316 C314 1.389 . S
C316 C317 1.524 . S
C316 C330 1.377 . S
C317 C316 1.524 . S
C317 C318 1.397 . S
C317 C322 1.363 . S
C318 H295 0.950 . S
C318 C317 1.397 . S
C318 C319 1.334 . S
C319 H296 0.948 . S
C319 C318 1.334 . S
C319 C320 1.287 1_565 S
C320 C319 1.287 1_545 S
C320 C321 1.524 1_545 S
C320 H339 0.913 . S
C321 H297 0.950 1_565 S
C321 C320 1.524 1_565 S
C321 C322 1.415 . S
C322 H298 0.950 . S
C322 C317 1.363 . S
C322 C321 1.415 . S
C323 H299 0.951 . S
C323 C324 1.366 . S
C323 C325 1.388 . S
C324 C323 1.366 . S
C324 C328 1.385 . S
C325 H300 0.951 1_655 S
C325 C323 1.388 . S
C325 C326 1.366 . S
C326 C325 1.366 . S
C326 C327 1.414 . S
C326 C329 1.499 1_655 S
C327 H301 0.950 . S
C327 C326 1.414 . S
C327 C328 1.374 . S
C328 H302 0.950 . S
C328 C324 1.385 . S
C328 C327 1.374 . S
C329 C326 1.499 1_455 S
C329 C330 1.373 . S
C329 C331 1.389 . S
C330 H303 0.950 . S
C330 C316 1.377 . S
C330 C329 1.373 . S
C331 C315 1.377 . S
C331 C329 1.389 . S
C331 C332 1.524 . S
C332 C331 1.524 . S
C332 C333 1.397 . S
C332 C337 1.363 . S
C333 H304 0.950 . S
C333 C332 1.397 . S
C333 C334 1.334 . S
C334 H305 0.950 . S
C334 C333 1.334 . S
C334 C335 1.287 . S
C335 C334 1.287 . S
C335 C336 1.524 . S
C335 H338 0.999 . S
C336 H306 0.950 . S
C336 C335 1.524 . S
C336 C337 1.415 . S
C337 H307 0.950 . S
C337 C332 1.363 . S
C337 C336 1.415 . S
H338 C335 0.999 . S
H339 C320 0.913 . S
H340 C358 0.951 . S
H341 C360 0.951 . S
H342 C362 0.950 . S
H343 C363 0.950 . S
H344 C365 0.950 . S
H345 C368 0.950 . S
H346 C369 0.950 . S
H347 C371 0.950 . S
H348 C372 0.950 . S
H349 C373 0.951 . S
H350 C375 0.951 . S
H351 C377 0.950 . S
H352 C378 0.950 . S
H353 C380 0.950 . S
H354 C383 0.950 . S
H355 C384 0.950 . S
H356 C386 0.950 . S
H357 C387 0.950 . S
C358 H340 0.951 . S
C358 C359 1.366 . S
C358 C360 1.388 . S
C359 C358 1.366 . S
C359 C363 1.385 . S
C360 H341 0.951 . S
C360 C358 1.388 . S
C360 C361 1.366 . S
C361 C360 1.366 . S
C361 C362 1.414 . S
C361 C364 1.499 1_545 S
C362 H342 0.950 . S
C362 C361 1.414 . S
C362 C363 1.374 . S
C363 H343 0.950 . S
C363 C359 1.385 . S
C363 C362 1.374 . S
C364 C361 1.499 1_565 S
C364 C365 1.373 . S
C364 C366 1.389 . S
C365 H344 0.950 . S
C365 C364 1.373 . S
C365 C381 1.377 . S
C366 C364 1.389 . S
C366 C367 1.524 . S
C366 C380 1.377 . S
C367 C366 1.524 . S
C367 C368 1.397 1_565 S
C367 C372 1.363 . S
C368 H345 0.950 . S
C368 C367 1.397 1_545 S
C368 C369 1.334 . S
C369 H346 0.950 . S
C369 C368 1.334 . S
C369 C370 1.287 . S
C370 C369 1.287 . S
C370 C371 1.524 1_545 S
C370 H389 0.913 . S
C371 H347 0.950 . S
C371 C370 1.524 1_565 S
C371 C372 1.415 . S
C372 H348 0.950 . S
C372 C367 1.363 . S
C372 C371 1.415 . S
C373 H349 0.951 . S
C373 C374 1.366 . S
C373 C375 1.388 . S
C374 C373 1.366 . S
C374 C378 1.385 . S
C375 H350 0.951 . S
C375 C373 1.388 . S
C375 C376 1.366 . S
C376 C375 1.366 . S
C376 C377 1.414 . S
C376 C379 1.499 . S
C377 H351 0.950 . S
C377 C376 1.414 . S
C377 C378 1.374 . S
C378 H352 0.950 . S
C378 C374 1.385 . S
C378 C377 1.374 . S
C379 C376 1.499 . S
C379 C380 1.373 . S
C379 C381 1.389 . S
C380 H353 0.950 . S
C380 C366 1.377 . S
C380 C379 1.373 . S
C381 C365 1.377 . S
C381 C379 1.389 . S
C381 C382 1.524 . S
C382 C381 1.524 . S
C382 C383 1.397 . S
C382 C387 1.363 . S
C383 H354 0.950 . S
C383 C382 1.397 . S
C383 C384 1.334 . S
C384 H355 0.950 . S
C384 C383 1.334 . S
C384 C385 1.287 . S
C385 C384 1.287 . S
C385 C386 1.524 . S
C385 H388 0.999 . S
C386 H356 0.950 . S
C386 C385 1.524 . S
C386 C387 1.415 . S
C387 H357 0.950 . S
C387 C382 1.363 . S
C387 C386 1.415 . S
H388 C385 0.999 . S
H389 C370 0.913 . S
H390 C408 0.951 . S
H391 C410 0.951 . S
H392 C412 0.950 . S
H393 C413 0.950 . S
H394 C415 0.950 . S
H395 C418 0.950 . S
H396 C419 0.950 . S
H397 C421 0.950 . S
H398 C422 0.950 . S
H399 C423 0.951 . S
H400 C425 0.951 . S
H401 C427 0.950 . S
H402 C428 0.950 . S
H403 C430 0.950 . S
H404 C433 0.950 . S
H405 C434 0.950 . S
H406 C436 0.950 . S
H407 C437 0.950 . S
C408 H390 0.951 . S
C408 C409 1.366 . S
C408 C410 1.388 . S
C409 C408 1.366 . S
C409 C413 1.385 . S
C410 H391 0.951 . S
C410 C408 1.388 . S
C410 C411 1.366 . S
C411 C410 1.366 . S
C411 C412 1.414 . S
C411 C414 1.499 . S
C412 H392 0.950 . S
C412 C411 1.414 . S
C412 C413 1.374 . S
C413 H393 0.950 . S
C413 C409 1.385 . S
C413 C412 1.374 . S
C414 C411 1.499 . S
C414 C415 1.373 . S
C414 C416 1.389 . S
C415 H394 0.950 . S
C415 C414 1.373 . S
C415 C431 1.377 . S
C416 C414 1.389 . S
C416 C417 1.524 . S
C416 C430 1.377 . S
C417 C416 1.524 . S
C417 C418 1.397 . S
C417 C422 1.363 . S
C418 H395 0.950 . S
C418 C417 1.397 . S
C418 C419 1.334 . S
C419 H396 0.950 . S
C419 C418 1.334 . S
C419 C420 1.287 . S
C420 C419 1.287 . S
C420 C421 1.524 . S
C420 H439 0.913 . S
C421 H397 0.950 . S
C421 C420 1.524 . S
C421 C422 1.415 . S
C422 H398 0.950 . S
C422 C417 1.363 . S
C422 C421 1.415 . S
C423 H399 0.951 . S
C423 C424 1.366 . S
C423 C425 1.388 1_655 S
C424 C423 1.366 . S
C424 C428 1.385 1_655 S
C425 H400 0.951 . S
C425 C423 1.388 1_455 S
C425 C426 1.366 . S
C426 C425 1.366 . S
C426 C427 1.414 . S
C426 C429 1.499 . S
C427 H401 0.950 . S
C427 C426 1.414 . S
C427 C428 1.374 . S
C428 H402 0.950 . S
C428 C424 1.385 1_455 S
C428 C427 1.374 . S
C429 C426 1.499 . S
C429 C430 1.373 . S
C429 C431 1.389 . S
C430 H403 0.950 . S
C430 C416 1.377 . S
C430 C429 1.373 . S
C431 C415 1.377 . S
C431 C429 1.389 . S
C431 C432 1.524 . S
C432 C431 1.524 . S
C432 C433 1.397 . S
C432 C437 1.363 . S
C433 H404 0.950 . S
C433 C432 1.397 . S
C433 C434 1.334 . S
C434 H405 0.950 . S
C434 C433 1.334 . S
C434 C435 1.287 . S
C435 C434 1.287 . S
C435 C436 1.524 . S
C435 H438 0.999 . S
C436 H406 0.950 . S
C436 C435 1.524 . S
C436 C437 1.415 . S
C437 H407 0.950 . S
C437 C432 1.363 . S
C437 C436 1.415 . S
H438 C435 0.999 . S
H439 C420 0.913 . S
H440 C458 0.951 . S
H441 C460 0.951 . S
H442 C462 0.950 . S
H443 C463 0.950 . S
H444 C465 0.950 . S
H445 C468 0.950 . S
H446 C469 0.950 . S
H447 C471 0.950 . S
H448 C472 0.950 . S
H449 C473 0.951 . S
H450 C475 0.951 1_455 S
H451 C477 0.950 . S
H452 C478 0.950 . S
H453 C480 0.950 . S
H454 C483 0.950 . S
H455 C484 0.950 . S
H456 C486 0.950 . S
H457 C487 0.950 . S
C458 H440 0.951 . S
C458 C459 1.366 . S
C458 C460 1.388 1_545 S
C459 C458 1.366 . S
C459 C463 1.385 1_545 S
C460 H441 0.951 . S
C460 C458 1.388 1_565 S
C460 C461 1.366 . S
C461 C460 1.366 . S
C461 C462 1.414 . S
C461 C464 1.499 . S
C462 H442 0.950 . S
C462 C461 1.414 . S
C462 C463 1.374 . S
C463 H443 0.950 . S
C463 C459 1.385 1_565 S
C463 C462 1.374 . S
C464 C461 1.499 . S
C464 C465 1.373 . S
C464 C466 1.389 . S
C465 H444 0.950 . S
C465 C464 1.373 . S
C465 C481 1.377 . S
C466 C464 1.389 . S
C466 C467 1.524 . S
C466 C480 1.377 . S
C467 C466 1.524 . S
C467 C468 1.397 . S
C467 C472 1.363 . S
C468 H445 0.950 . S
C468 C467 1.397 . S
C468 C469 1.334 1_565 S
C469 H446 0.950 . S
C469 C468 1.334 1_545 S
C469 C470 1.287 . S
C470 C469 1.287 . S
C470 C471 1.524 . S
C470 H489 0.913 . S
C471 H447 0.950 . S
C471 C470 1.524 . S
C471 C472 1.415 1_545 S
C472 H448 0.950 . S
C472 C467 1.363 . S
C472 C471 1.415 1_565 S
C473 H449 0.951 . S
C473 C474 1.366 . S
C473 C475 1.388 . S
C474 C473 1.366 . S
C474 C478 1.385 . S
C475 H450 0.951 1_655 S
C475 C473 1.388 . S
C475 C476 1.366 . S
C476 C475 1.366 . S
C476 C477 1.414 . S
C476 C479 1.499 1_655 S
C477 H451 0.950 . S
C477 C476 1.414 . S
C477 C478 1.374 . S
C478 H452 0.950 . S
C478 C474 1.385 . S
C478 C477 1.374 . S
C479 C476 1.499 1_455 S
C479 C480 1.373 . S
C479 C481 1.389 . S
C480 H453 0.950 . S
C480 C466 1.377 . S
C480 C479 1.373 . S
C481 C465 1.377 . S
C481 C479 1.389 . S
C481 C482 1.524 . S
C482 C481 1.524 . S
C482 C483 1.397 . S
C482 C487 1.363 . S
C483 H454 0.950 . S
C483 C482 1.397 . S
C483 C484 1.334 . S
C484 H455 0.950 . S
C484 C483 1.334 . S
C484 C485 1.287 . S
C485 C484 1.287 . S
C485 C486 1.524 . S
C485 H488 0.999 . S
C486 H456 0.950 . S
C486 C485 1.524 . S
C486 C487 1.415 . S
C487 H457 0.950 . S
C487 C482 1.363 . S
C487 C486 1.415 . S
H488 C485 0.999 . S
H489 C470 0.913 . S
H490 C508 0.951 . S
H491 C510 0.951 . S
H492 C512 0.950 . S
H493 C513 0.950 . S
H494 C515 0.950 . S
H495 C518 0.950 . S
H496 C519 0.950 . S
H497 C521 0.950 . S
H498 C522 0.950 . S
H499 C523 0.951 . S
H500 C525 0.951 . S
H501 C527 0.950 . S
H502 C528 0.950 . S
H503 C530 0.950 . S
H504 C533 0.950 . S
H505 C534 0.950 . S
H506 C536 0.950 . S
H507 C537 0.950 . S
C508 H490 0.951 . S
C508 C509 1.366 . S
C508 C510 1.388 . S
C509 C508 1.366 . S
C509 C513 1.385 . S
C510 H491 0.951 . S
C510 C508 1.388 . S
C510 C511 1.366 . S
C511 C510 1.366 . S
C511 C512 1.414 . S
C511 C514 1.499 . S
C512 H492 0.950 . S
C512 C511 1.414 . S
C512 C513 1.374 . S
C513 H493 0.950 . S
C513 C509 1.385 . S
C513 C512 1.374 . S
C514 C511 1.499 . S
C514 C515 1.373 . S
C514 C516 1.389 . S
C515 H494 0.950 . S
C515 C514 1.373 . S
C515 C531 1.377 . S
C516 C514 1.389 . S
C516 C517 1.524 . S
C516 C530 1.377 . S
C517 C516 1.524 . S
C517 C518 1.397 . S
C517 C522 1.363 . S
C518 H495 0.950 . S
C518 C517 1.397 . S
C518 C519 1.334 . S
C519 H496 0.950 . S
C519 C518 1.334 . S
C519 C520 1.287 . S
C520 C519 1.287 . S
C520 C521 1.524 . S
C520 H539 0.913 . S
C521 H497 0.950 . S
C521 C520 1.524 . S
C521 C522 1.415 . S
C522 H498 0.950 . S
C522 C517 1.363 . S
C522 C521 1.415 . S
C523 H499 0.951 . S
C523 C524 1.366 . S
C523 C525 1.388 . S
C524 C523 1.366 . S
C524 C528 1.385 . S
C525 H500 0.951 . S
C525 C523 1.388 . S
C525 C526 1.366 . S
C526 C525 1.366 . S
C526 C527 1.414 . S
C526 C529 1.499 1_545 S
C527 H501 0.950 . S
C527 C526 1.414 . S
C527 C528 1.374 . S
C528 H502 0.950 . S
C528 C524 1.385 . S
C528 C527 1.374 . S
C529 C526 1.499 1_565 S
C529 C530 1.373 . S
C529 C531 1.389 . S
C530 H503 0.950 . S
C530 C516 1.377 . S
C530 C529 1.373 . S
C531 C515 1.377 . S
C531 C529 1.389 . S
C531 C532 1.524 . S
C532 C531 1.524 . S
C532 C533 1.397 . S
C532 C537 1.363 . S
C533 H504 0.950 . S
C533 C532 1.397 . S
C533 C534 1.334 . S
C534 H505 0.950 . S
C534 C533 1.334 . S
C534 C535 1.287 . S
C535 C534 1.287 . S
C535 C536 1.524 . S
C535 H538 0.999 . S
C536 H506 0.950 . S
C536 C535 1.524 . S
C536 C537 1.415 . S
C537 H507 0.950 . S
C537 C532 1.363 . S
C537 C536 1.415 . S
H538 C535 0.999 . S
H539 C520 0.913 . S
H540 C558 0.951 . S
H541 C560 0.951 . S
H542 C562 0.950 . S
H543 C563 0.950 . S
H544 C565 0.950 . S
H545 C568 0.950 . S
H546 C569 0.950 . S
H547 C571 0.950 . S
H548 C572 0.950 . S
H549 C573 0.951 . S
H550 C575 0.951 . S
H551 C577 0.950 . S
H552 C578 0.950 . S
H553 C580 0.950 . S
H554 C583 0.950 . S
H555 C584 0.950 . S
H556 C586 0.950 . S
H557 C587 0.950 . S
C558 H540 0.951 . S
C558 C559 1.366 1_545 S
C558 C560 1.388 . S
C559 C558 1.366 1_565 S
C559 C563 1.385 . S
C560 H541 0.951 . S
C560 C558 1.388 . S
C560 C561 1.366 . S
C561 C560 1.366 . S
C561 C562 1.414 . S
C561 C564 1.499 . S
C562 H542 0.950 . S
C562 C561 1.414 . S
C562 C563 1.374 1_545 S
C563 H543 0.950 . S
C563 C559 1.385 . S
C563 C562 1.374 1_565 S
C564 C561 1.499 . S
C564 C565 1.373 . S
C564 C566 1.389 . S
C565 H544 0.950 . S
C565 C564 1.373 . S
C565 C581 1.377 . S
C566 C564 1.389 . S
C566 C567 1.524 . S
C566 C580 1.377 . S
C567 C566 1.524 . S
C567 C568 1.397 . S
C567 C572 1.363 . S
C568 H545 0.950 . S
C568 C567 1.397 . S
C568 C569 1.334 . S
C569 H546 0.950 . S
C569 C568 1.334 . S
C569 C570 1.287 . S
C570 C569 1.287 . S
C570 C571 1.524 . S
C570 H589 0.913 . S
C571 H547 0.950 . S
C571 C570 1.524 . S
C571 C572 1.415 . S
C572 H548 0.950 . S
C572 C567 1.363 . S
C572 C571 1.415 . S
C573 H549 0.951 . S
C573 C574 1.366 . S
C573 C575 1.388 . S
C574 C573 1.366 . S
C574 C578 1.385 . S
C575 H550 0.951 . S
C575 C573 1.388 . S
C575 C576 1.366 . S
C576 C575 1.366 . S
C576 C577 1.414 . S
C576 C579 1.499 . S
C577 H551 0.950 . S
C577 C576 1.414 . S
C577 C578 1.374 . S
C578 H552 0.950 . S
C578 C574 1.385 . S
C578 C577 1.374 . S
C579 C576 1.499 . S
C579 C580 1.373 . S
C579 C581 1.389 . S
C580 H553 0.950 . S
C580 C566 1.377 . S
C580 C579 1.373 . S
C581 C565 1.377 . S
C581 C579 1.389 . S
C581 C582 1.524 . S
C582 C581 1.524 . S
C582 C583 1.397 . S
C582 C587 1.363 . S
C583 H554 0.950 . S
C583 C582 1.397 . S
C583 C584 1.334 . S
C584 H555 0.950 . S
C584 C583 1.334 . S
C584 C585 1.287 . S
C585 C584 1.287 . S
C585 C586 1.524 . S
C585 H588 0.999 . S
C586 H556 0.950 . S
C586 C585 1.524 . S
C586 C587 1.415 . S
C587 H557 0.950 . S
C587 C582 1.363 . S
C587 C586 1.415 . S
H588 C585 0.999 . S
H589 C570 0.913 . S
H590 C608 0.951 . S
H591 C610 0.951 1_655 S
H592 C612 0.950 . S
H593 C613 0.950 . S
H594 C615 0.950 . S
H595 C618 0.948 1_455 S
H596 C619 0.950 . S
H597 C621 0.950 . S
H598 C622 0.950 . S
H599 C623 0.951 . S
H600 C625 0.951 . S
H601 C627 0.950 . S
H602 C628 0.950 . S
H603 C630 0.950 . S
H604 C633 0.950 . S
H605 C634 0.950 . S
H606 C636 0.950 . S
H607 C637 0.950 . S
C608 H590 0.951 . S
C608 C609 1.366 . S
C608 C610 1.388 . S
C609 C608 1.366 . S
C609 C613 1.385 . S
C610 H591 0.951 1_455 S
C610 C608 1.388 . S
C610 C611 1.366 . S
C611 C610 1.366 . S
C611 C612 1.414 . S
C611 C614 1.499 1_455 S
C612 H592 0.950 . S
C612 C611 1.414 . S
C612 C613 1.374 . S
C613 H593 0.950 . S
C613 C609 1.385 . S
C613 C612 1.374 . S
C614 C611 1.499 1_655 S
C614 C615 1.373 . S
C614 C616 1.389 . S
C615 H594 0.950 . S
C615 C614 1.373 . S
C615 C631 1.377 . S
C616 C614 1.389 . S
C616 C617 1.524 . S
C616 C630 1.377 . S
C617 C616 1.524 . S
C617 C618 1.413 . S
C617 C622 1.363 . S
C618 H595 0.948 1_655 S
C618 C617 1.413 . S
C618 C619 1.320 1_655 S
C619 H596 0.950 . S
C619 C618 1.320 1_455 S
C619 C620 1.287 . S
C620 C619 1.287 . S
C620 C621 1.524 1_455 S
C620 H639 0.913 . S
C621 H597 0.950 . S
C621 C620 1.524 1_655 S
C621 C622 1.415 . S
C622 H598 0.950 . S
C622 C617 1.363 . S
C622 C621 1.415 . S
C623 H599 0.951 . S
C623 C624 1.366 . S
C623 C625 1.388 . S
C624 C623 1.366 . S
C624 C628 1.385 . S
C625 H600 0.951 . S
C625 C623 1.388 . S
C625 C626 1.366 . S
C626 C625 1.366 . S
C626 C627 1.414 . S
C626 C629 1.499 . S
C627 H601 0.950 . S
C627 C626 1.414 . S
C627 C628 1.374 . S
C628 H602 0.950 . S
C628 C624 1.385 . S
C628 C627 1.374 . S
C629 C626 1.499 . S
C629 C630 1.373 . S
C629 C631 1.389 . S
C630 H603 0.950 . S
C630 C616 1.377 . S
C630 C629 1.373 . S
C631 C615 1.377 . S
C631 C629 1.389 . S
C631 C632 1.524 . S
C632 C631 1.524 . S
C632 C633 1.397 . S
C632 C637 1.363 . S
C633 H604 0.950 . S
C633 C632 1.397 . S
C633 C634 1.334 . S
C634 H605 0.950 . S
C634 C633 1.334 . S
C634 C635 1.287 . S
C635 C634 1.287 . S
C635 C636 1.524 . S
C635 H638 0.999 . S
C636 H606 0.950 . S
C636 C635 1.524 . S
C636 C637 1.415 . S
C637 H607 0.950 . S
C637 C632 1.363 . S
C637 C636 1.415 . S
H638 C635 0.999 . S
H639 C620 0.913 . S
H640 C658 0.951 . S
H641 C660 0.951 . S
H642 C662 0.950 1_545 S
H643 C663 0.950 . S
H644 C665 0.950 . S
H645 C668 0.950 . S
H646 C669 0.950 . S
H647 C671 0.950 . S
H648 C672 0.950 . S
H649 C673 0.951 . S
H650 C675 0.951 . S
H651 C677 0.950 . S
H652 C678 0.950 . S
H653 C680 0.950 . S
H654 C683 0.950 . S
H655 C684 0.950 . S
H656 C686 0.950 . S
H657 C687 0.950 . S
C658 H640 0.951 . S
C658 C659 1.366 . S
C658 C660 1.388 . S
C659 C658 1.366 . S
C659 C663 1.385 . S
C660 H641 0.951 . S
C660 C658 1.388 . S
C660 C661 1.366 . S
C661 C660 1.366 . S
C661 C662 1.414 . S
C661 C664 1.499 1_565 S
C662 H642 0.950 1_565 S
C662 C661 1.414 . S
C662 C663 1.374 . S
C663 H643 0.950 . S
C663 C659 1.385 . S
C663 C662 1.374 . S
C664 C661 1.499 1_545 S
C664 C665 1.373 . S
C664 C666 1.389 . S
C665 H644 0.950 . S
C665 C664 1.373 . S
C665 C681 1.377 . S
C666 C664 1.389 . S
C666 C667 1.524 . S
C666 C680 1.377 . S
C667 C666 1.524 . S
C667 C668 1.397 1_545 S
C667 C672 1.363 . S
C668 H645 0.950 . S
C668 C667 1.397 1_565 S
C668 C669 1.334 . S
C669 H646 0.950 . S
C669 C668 1.334 . S
C669 C670 1.287 . S
C670 C669 1.287 . S
C670 C671 1.524 . S
C670 H689 0.913 . S
C671 H647 0.950 . S
C671 C670 1.524 . S
C671 C672 1.415 1_565 S
C672 H648 0.950 . S
C672 C667 1.363 . S
C672 C671 1.415 1_545 S
C673 H649 0.951 . S
C673 C674 1.366 1_655 S
C673 C675 1.388 . S
C674 C673 1.366 1_455 S
C674 C678 1.385 . S
C675 H650 0.951 . S
C675 C673 1.388 . S
C675 C676 1.366 . S
C676 C675 1.366 . S
C676 C677 1.414 . S
C676 C679 1.499 . S
C677 H651 0.950 . S
C677 C676 1.414 . S
C677 C678 1.374 1_655 S
C678 H652 0.950 . S
C678 C674 1.385 . S
C678 C677 1.374 1_455 S
C679 C676 1.499 . S
C679 C680 1.373 . S
C679 C681 1.389 . S
C680 H653 0.950 . S
C680 C666 1.377 . S
C680 C679 1.373 . S
C681 C665 1.377 . S
C681 C679 1.389 . S
C681 C682 1.524 . S
C682 C681 1.524 . S
C682 C683 1.397 . S
C682 C687 1.363 . S
C683 H654 0.950 . S
C683 C682 1.397 . S
C683 C684 1.334 . S
C684 H655 0.950 . S
C684 C683 1.334 . S
C684 C685 1.287 . S
C685 C684 1.287 . S
C685 C686 1.524 . S
C685 H688 0.999 . S
C686 H656 0.950 . S
C686 C685 1.524 . S
C686 C687 1.415 . S
C687 H657 0.950 . S
C687 C682 1.363 . S
C687 C686 1.415 . S
H688 C685 0.999 . S
H689 C670 0.913 . S
H690 C708 0.951 . S
H691 C710 0.951 . S
H692 C712 0.950 . S
H693 C713 0.950 . S
H694 C715 0.950 . S
H695 C718 0.950 . S
H696 C719 0.950 . S
H697 C721 0.950 . S
H698 C722 0.950 . S
H699 C723 0.951 . S
H700 C725 0.951 . S
H701 C727 0.950 . S
H702 C728 0.950 . S
H703 C730 0.950 . S
H704 C733 0.950 . S
H705 C734 0.950 1_565 S
H706 C736 0.950 . S
H707 C737 0.950 . S
C708 H690 0.951 . S
C708 C709 1.366 . S
C708 C710 1.388 . S
C709 C708 1.366 . S
C709 C713 1.385 . S
C710 H691 0.951 . S
C710 C708 1.388 . S
C710 C711 1.366 . S
C711 C710 1.366 . S
C711 C712 1.414 . S
C711 C714 1.499 . S
C712 H692 0.950 . S
C712 C711 1.414 . S
C712 C713 1.374 . S
C713 H693 0.950 . S
C713 C709 1.385 . S
C713 C712 1.374 . S
C714 C711 1.499 . S
C714 C715 1.373 . S
C714 C716 1.389 . S
C715 H694 0.950 . S
C715 C714 1.373 . S
C715 C731 1.377 . S
C716 C714 1.389 . S
C716 C717 1.524 . S
C716 C730 1.377 . S
C717 C716 1.524 . S
C717 C718 1.397 . S
C717 C722 1.363 . S
C718 H695 0.950 . S
C718 C717 1.397 . S
C718 C719 1.334 . S
C719 H696 0.950 . S
C719 C718 1.334 . S
C719 C720 1.287 . S
C720 C719 1.287 . S
C720 C721 1.524 . S
C720 H739 0.913 . S
C721 H697 0.950 . S
C721 C720 1.524 . S
C721 C722 1.415 . S
C722 H698 0.950 . S
C722 C717 1.363 . S
C722 C721 1.415 . S
C723 H699 0.951 . S
C723 C724 1.366 1_545 S
C723 C725 1.388 . S
C724 C723 1.366 1_565 S
C724 C728 1.385 . S
C725 H700 0.951 . S
C725 C723 1.388 . S
C725 C726 1.366 . S
C726 C725 1.366 . S
C726 C727 1.414 . S
C726 C729 1.499 . S
C727 H701 0.950 . S
C727 C726 1.414 . S
C727 C728 1.374 1_545 S
C728 H702 0.950 . S
C728 C724 1.385 . S
C728 C727 1.374 1_565 S
C729 C726 1.499 . S
C729 C730 1.373 . S
C729 C731 1.389 . S
C730 H703 0.950 . S
C730 C716 1.377 . S
C730 C729 1.373 . S
C731 C715 1.377 . S
C731 C729 1.389 . S
C731 C732 1.524 . S
C732 C731 1.524 . S
C732 C733 1.397 . S
C732 C737 1.363 . S
C733 H704 0.950 . S
C733 C732 1.397 . S
C733 C734 1.334 . S
C734 H705 0.950 1_545 S
C734 C733 1.334 . S
C734 C735 1.287 . S
C735 C734 1.287 . S
C735 C736 1.524 . S
C735 H738 0.999 . S
C736 H706 0.950 . S
C736 C735 1.524 . S
C736 C737 1.415 . S
C737 H707 0.950 . S
C737 C732 1.363 . S
C737 C736 1.415 . S
H738 C735 0.999 . S
H739 C720 0.913 . S
H740 C758 0.951 . S
H741 C760 0.951 . S
H742 C762 0.950 1_655 S
H743 C763 0.950 . S
H744 C765 0.950 . S
H745 C768 0.945 . S
H746 C769 0.950 . S
H747 C771 0.950 . S
H748 C772 0.950 . S
H749 C773 0.951 . S
H750 C775 0.951 . S
H751 C777 0.950 . S
H752 C778 0.950 . S
H753 C780 0.950 . S
H754 C783 0.950 . S
H755 C784 0.950 . S
H756 C786 0.950 . S
H757 C787 0.950 . S
C758 H740 0.951 . S
C758 C759 1.366 . S
C758 C760 1.388 . S
C759 C758 1.366 . S
C759 C763 1.385 . S
C760 H741 0.951 . S
C760 C758 1.388 . S
C760 C761 1.366 . S
C761 C760 1.366 . S
C761 C762 1.414 . S
C761 C764 1.499 1_455 S
C762 H742 0.950 1_455 S
C762 C761 1.414 . S
C762 C763 1.374 . S
C763 H743 0.950 . S
C763 C759 1.385 . S
C763 C762 1.374 . S
C764 C761 1.499 1_655 S
C764 C765 1.373 . S
C764 C766 1.389 . S
C765 H744 0.950 . S
C765 C764 1.373 . S
C765 C781 1.377 . S
C766 C764 1.389 . S
C766 C767 1.524 . S
C766 C780 1.377 . S
C767 C766 1.524 . S
C767 C768 1.407 . S
C767 C772 1.363 . S
C768 H745 0.945 . S
C768 C767 1.407 . S
C768 C769 1.329 1_655 S
C769 H746 0.950 . S
C769 C768 1.329 1_455 S
C769 C770 1.287 . S
C770 C769 1.287 . S
C770 C771 1.524 . S
C770 H789 0.913 . S
C771 H747 0.950 . S
C771 C770 1.524 . S
C771 C772 1.415 1_455 S
C772 H748 0.950 . S
C772 C767 1.363 . S
C772 C771 1.415 1_655 S
C773 H749 0.951 . S
C773 C774 1.366 . S
C773 C775 1.388 . S
C774 C773 1.366 . S
C774 C778 1.385 . S
C775 H750 0.951 . S
C775 C773 1.388 . S
C775 C776 1.366 . S
C776 C775 1.366 . S
C776 C777 1.414 . S
C776 C779 1.499 . S
C777 H751 0.950 . S
C777 C776 1.414 . S
C777 C778 1.374 . S
C778 H752 0.950 . S
C778 C774 1.385 . S
C778 C777 1.374 . S
C779 C776 1.499 . S
C779 C780 1.373 . S
C779 C781 1.389 . S
C780 H753 0.950 . S
C780 C766 1.377 . S
C780 C779 1.373 . S
C781 C765 1.377 . S
C781 C779 1.389 . S
C781 C782 1.524 . S
C782 C781 1.524 . S
C782 C783 1.397 . S
C782 C787 1.363 . S
C783 H754 0.950 . S
C783 C782 1.397 . S
C783 C784 1.334 . S
C784 H755 0.950 . S
C784 C783 1.334 . S
C784 C785 1.287 . S
C785 C784 1.287 . S
C785 C786 1.524 . S
C785 H788 0.999 . S
C786 H756 0.950 . S
C786 C785 1.524 . S
C786 C787 1.415 . S
C787 H757 0.950 . S
C787 C782 1.363 . S
C787 C786 1.415 . S
H788 C785 0.999 . S
H789 C770 0.913 . S
H790 C808 0.951 . S
H791 C810 0.951 . S
H792 C812 0.950 . S
H793 C813 0.950 . S
H794 C815 0.950 . S
H795 C818 0.950 . S
H796 C819 0.950 . S
H797 C821 0.952 . S
H798 C822 0.950 . S
H799 C823 0.951 . S
H800 C825 0.951 1_545 S
H801 C827 0.950 . S
H802 C828 0.950 . S
H803 C830 0.950 . S
H804 C833 0.950 . S
H805 C834 0.950 . S
H806 C836 0.950 . S
H807 C837 0.950 . S
C808 H790 0.951 . S
C808 C809 1.366 . S
C808 C810 1.388 1_455 S
C809 C808 1.366 . S
C809 C813 1.385 1_455 S
C810 H791 0.951 . S
C810 C808 1.388 1_655 S
C810 C811 1.366 . S
C811 C810 1.366 . S
C811 C812 1.414 . S
C811 C814 1.499 . S
C812 H792 0.950 . S
C812 C811 1.414 . S
C812 C813 1.374 . S
C813 H793 0.950 . S
C813 C809 1.385 1_655 S
C813 C812 1.374 . S
C814 C811 1.499 . S
C814 C815 1.373 . S
C814 C816 1.389 . S
C815 H794 0.950 . S
C815 C814 1.373 . S
C815 C831 1.377 . S
C816 C814 1.389 . S
C816 C817 1.524 . S
C816 C830 1.377 . S
C817 C816 1.524 . S
C817 C818 1.397 . S
C817 C822 1.363 . S
C818 H795 0.950 . S
C818 C817 1.397 . S
C818 C819 1.334 . S
C819 H796 0.950 . S
C819 C818 1.334 . S
C819 C820 1.287 . S
C820 C819 1.287 . S
C820 C821 1.524 . S
C820 H839 0.913 1_655 S
C821 H797 0.952 . S
C821 C820 1.524 . S
C821 C822 1.415 . S
C822 H798 0.950 . S
C822 C817 1.363 . S
C822 C821 1.415 . S
C823 H799 0.951 . S
C823 C824 1.366 . S
C823 C825 1.388 . S
C824 C823 1.366 . S
C824 C828 1.385 . S
C825 H800 0.951 1_565 S
C825 C823 1.388 . S
C825 C826 1.366 . S
C826 C825 1.366 . S
C826 C827 1.414 . S
C826 C829 1.499 1_565 S
C827 H801 0.950 . S
C827 C826 1.414 . S
C827 C828 1.374 . S
C828 H802 0.950 . S
C828 C824 1.385 . S
C828 C827 1.374 . S
C829 C826 1.499 1_545 S
C829 C830 1.373 . S
C829 C831 1.389 . S
C830 H803 0.950 . S
C830 C816 1.377 . S
C830 C829 1.373 . S
C831 C815 1.377 . S
C831 C829 1.389 . S
C831 C832 1.524 . S
C832 C831 1.524 . S
C832 C833 1.397 . S
C832 C837 1.363 . S
C833 H804 0.950 . S
C833 C832 1.397 . S
C833 C834 1.334 . S
C834 H805 0.950 . S
C834 C833 1.334 . S
C834 C835 1.287 . S
C835 C834 1.287 . S
C835 C836 1.524 . S
C835 H838 0.999 . S
C836 H806 0.950 . S
C836 C835 1.524 . S
C836 C837 1.415 . S
C837 H807 0.950 . S
C837 C832 1.363 . S
C837 C836 1.415 . S
H838 C835 0.999 . S
H839 C820 0.913 1_455 S
H840 C858 0.951 . S
H841 C860 0.951 . S
H842 C862 0.950 . S
H843 C863 0.950 . S
H844 C865 0.950 . S
H845 C868 0.950 . S
H846 C869 0.950 . S
H847 C871 0.950 . S
H848 C872 0.950 . S
H849 C873 0.951 . S
H850 C875 0.951 . S
H851 C877 0.950 . S
H852 C878 0.950 . S
H853 C880 0.950 . S
H854 C883 0.950 . S
H855 C884 0.950 . S
H856 C886 0.950 . S
H857 C887 0.950 . S
C858 H840 0.951 . S
C858 C859 1.366 . S
C858 C860 1.388 . S
C859 C858 1.366 . S
C859 C863 1.385 . S
C860 H841 0.951 . S
C860 C858 1.388 . S
C860 C861 1.366 . S
C861 C860 1.366 . S
C861 C862 1.414 . S
C861 C864 1.499 . S
C862 H842 0.950 . S
C862 C861 1.414 . S
C862 C863 1.374 . S
C863 H843 0.950 . S
C863 C859 1.385 . S
C863 C862 1.374 . S
C864 C861 1.499 . S
C864 C865 1.373 . S
C864 C866 1.389 . S
C865 H844 0.950 . S
C865 C864 1.373 . S
C865 C881 1.377 . S
C866 C864 1.389 . S
C866 C867 1.524 . S
C866 C880 1.377 . S
C867 C866 1.524 . S
C867 C868 1.397 . S
C867 C872 1.363 . S
C868 H845 0.950 . S
C868 C867 1.397 . S
C868 C869 1.334 . S
C869 H846 0.950 . S
C869 C868 1.334 . S
C869 C870 1.287 . S
C870 C869 1.287 . S
C870 C871 1.524 . S
C870 H889 0.913 . S
C871 H847 0.950 . S
C871 C870 1.524 . S
C871 C872 1.415 . S
C872 H848 0.950 . S
C872 C867 1.363 . S
C872 C871 1.415 . S
C873 H849 0.951 . S
C873 C874 1.366 . S
C873 C875 1.388 . S
C874 C873 1.366 . S
C874 C878 1.385 . S
C875 H850 0.951 . S
C875 C873 1.388 . S
C875 C876 1.366 . S
C876 C875 1.366 . S
C876 C877 1.414 . S
C876 C879 1.499 . S
C877 H851 0.950 . S
C877 C876 1.414 . S
C877 C878 1.374 . S
C878 H852 0.950 . S
C878 C874 1.385 . S
C878 C877 1.374 . S
C879 C876 1.499 . S
C879 C880 1.373 . S
C879 C881 1.389 . S
C880 H853 0.950 . S
C880 C866 1.377 . S
C880 C879 1.373 . S
C881 C865 1.377 . S
C881 C879 1.389 . S
C881 C882 1.524 . S
C882 C881 1.524 . S
C882 C883 1.397 . S
C882 C887 1.363 . S
C883 H854 0.950 . S
C883 C882 1.397 . S
C883 C884 1.334 . S
C884 H855 0.950 . S
C884 C883 1.334 . S
C884 C885 1.287 . S
C885 C884 1.287 . S
C885 C886 1.524 . S
C885 H888 0.999 . S
C886 H856 0.950 . S
C886 C885 1.524 . S
C886 C887 1.415 . S
C887 H857 0.950 . S
C887 C882 1.363 . S
C887 C886 1.415 . S
H888 C885 0.999 . S
H889 C870 0.913 . S
H890 C908 0.951 . S
H891 C910 0.951 . S
H892 C912 0.950 . S
H893 C913 0.950 . S
H894 C915 0.950 . S
H895 C918 0.950 . S
H896 C919 0.950 . S
H897 C921 0.950 . S
H898 C922 0.950 . S
H899 C923 0.951 . S
H900 C925 0.951 . S
H901 C927 0.950 . S
H902 C928 0.950 . S
H903 C930 0.950 . S
H904 C933 0.950 . S
H905 C934 0.950 . S
H906 C936 0.950 . S
H907 C937 0.950 . S
C908 H890 0.951 . S
C908 C909 1.366 . S
C908 C910 1.388 . S
C909 C908 1.366 . S
C909 C913 1.385 . S
C910 H891 0.951 . S
C910 C908 1.388 . S
C910 C911 1.366 . S
C911 C910 1.366 . S
C911 C912 1.414 . S
C911 C914 1.499 . S
C912 H892 0.950 . S
C912 C911 1.414 . S
C912 C913 1.374 . S
C913 H893 0.950 . S
C913 C909 1.385 . S
C913 C912 1.374 . S
C914 C911 1.499 . S
C914 C915 1.373 . S
C914 C916 1.389 . S
C915 H894 0.950 . S
C915 C914 1.373 . S
C915 C931 1.377 . S
C916 C914 1.389 . S
C916 C917 1.524 . S
C916 C930 1.377 . S
C917 C916 1.524 . S
C917 C918 1.397 . S
C917 C922 1.363 . S
C918 H895 0.950 . S
C918 C917 1.397 . S
C918 C919 1.334 . S
C919 H896 0.950 . S
C919 C918 1.334 . S
C919 C920 1.287 . S
C920 C919 1.287 . S
C920 C921 1.524 . S
C920 H939 0.913 . S
C921 H897 0.950 . S
C921 C920 1.524 . S
C921 C922 1.415 . S
C922 H898 0.950 . S
C922 C917 1.363 . S
C922 C921 1.415 . S
C923 H899 0.951 . S
C923 C924 1.366 . S
C923 C925 1.388 . S
C924 C923 1.366 . S
C924 C928 1.385 . S
C925 H900 0.951 . S
C925 C923 1.388 . S
C925 C926 1.366 . S
C926 C925 1.366 . S
C926 C927 1.414 . S
C926 C929 1.499 . S
C927 H901 0.950 . S
C927 C926 1.414 . S
C927 C928 1.374 . S
C928 H902 0.950 . S
C928 C924 1.385 . S
C928 C927 1.374 . S
C929 C926 1.499 . S
C929 C930 1.373 . S
C929 C931 1.389 . S
C930 H903 0.950 . S
C930 C916 1.377 . S
C930 C929 1.373 . S
C931 C915 1.377 . S
C931 C929 1.389 . S
C931 C932 1.524 . S
C932 C931 1.524 . S
C932 C933 1.397 . S
C932 C937 1.363 . S
C933 H904 0.950 . S
C933 C932 1.397 . S
C933 C934 1.334 . S
C934 H905 0.950 . S
C934 C933 1.334 . S
C934 C935 1.287 . S
C935 C934 1.287 . S
C935 C936 1.524 . S
C935 H938 0.999 . S
C936 H906 0.950 . S
C936 C935 1.524 . S
C936 C937 1.415 . S
C937 H907 0.950 . S
C937 C932 1.363 . S
C937 C936 1.415 . S
H938 C935 0.999 . S
H939 C920 0.913 . S
H940 C958 0.951 . S
H941 C960 0.951 . S
H942 C962 0.950 . S
H943 C963 0.950 . S
H944 C965 0.950 . S
H945 C968 0.950 . S
H946 C969 0.950 . S
H947 C971 0.950 . S
H948 C972 0.950 . S
H949 C973 0.951 . S
H950 C975 0.951 . S
H951 C977 0.950 . S
H952 C978 0.950 . S
H953 C980 0.950 . S
H954 C983 0.950 . S
H955 C984 0.950 . S
H956 C986 0.950 . S
H957 C987 0.950 . S
C958 H940 0.951 . S
C958 C959 1.366 . S
C958 C960 1.388 . S
C959 C958 1.366 . S
C959 C963 1.385 . S
C960 H941 0.951 . S
C960 C958 1.388 . S
C960 C961 1.366 . S
C961 C960 1.366 . S
C961 C962 1.414 . S
C961 C964 1.499 . S
C962 H942 0.950 . S
C962 C961 1.414 . S
C962 C963 1.374 . S
C963 H943 0.950 . S
C963 C959 1.385 . S
C963 C962 1.374 . S
C964 C961 1.499 . S
C964 C965 1.373 . S
C964 C966 1.389 . S
C965 H944 0.950 . S
C965 C964 1.373 . S
C965 C981 1.377 . S
C966 C964 1.389 . S
C966 C967 1.524 . S
C966 C980 1.377 . S
C967 C966 1.524 . S
C967 C968 1.397 . S
C967 C972 1.363 . S
C968 H945 0.950 . S
C968 C967 1.397 . S
C968 C969 1.334 . S
C969 H946 0.950 . S
C969 C968 1.334 . S
C969 C970 1.287 . S
C970 C969 1.287 . S
C970 C971 1.524 . S
C970 H989 0.913 . S
C971 H947 0.950 . S
C971 C970 1.524 . S
C971 C972 1.415 . S
C972 H948 0.950 . S
C972 C967 1.363 . S
C972 C971 1.415 . S
C973 H949 0.951 . S
C973 C974 1.366 . S
C973 C975 1.388 . S
C974 C973 1.366 . S
C974 C978 1.385 . S
C975 H950 0.951 . S
C975 C973 1.388 . S
C975 C976 1.366 . S
C976 C975 1.366 . S
C976 C977 1.414 . S
C976 C979 1.499 . S
C977 H951 0.950 . S
C977 C976 1.414 . S
C977 C978 1.374 . S
C978 H952 0.950 . S
C978 C974 1.385 . S
C978 C977 1.374 . S
C979 C976 1.499 . S
C979 C980 1.373 . S
C979 C981 1.389 . S
C980 H953 0.950 . S
C980 C966 1.377 . S
C980 C979 1.373 . S
C981 C965 1.377 . S
C981 C979 1.389 . S
C981 C982 1.524 . S
C982 C981 1.524 . S
C982 C983 1.397 . S
C982 C987 1.363 . S
C983 H954 0.950 . S
C983 C982 1.397 . S
C983 C984 1.334 . S
C984 H955 0.950 . S
C984 C983 1.334 . S
C984 C985 1.287 . S
C985 C984 1.287 . S
C985 C986 1.524 . S
C985 H988 0.999 . S
C986 H956 0.950 . S
C986 C985 1.524 . S
C986 C987 1.415 . S
C987 H957 0.950 . S
C987 C982 1.363 . S
C987 C986 1.415 . S
H988 C985 0.999 . S
H989 C970 0.913 . S
H990 C1008 0.951 . S
H991 C1010 0.951 . S
H992 C1012 0.950 . S
H993 C1013 0.950 . S
H994 C1015 0.950 . S
H995 C1018 0.950 . S
H996 C1019 0.950 . S
H997 C1021 0.950 . S
H998 C1022 0.950 . S
H999 C1023 0.951 . S
H1000 C1025 0.951 . S
H1001 C1027 0.950 . S
H1002 C1028 0.950 . S
H1003 C1030 0.950 . S
H1004 C1033 0.950 . S
H1005 C1034 0.950 . S
H1006 C1036 0.950 . S
H1007 C1037 0.950 . S
C1008 H990 0.951 . S
C1008 C1009 1.366 . S
C1008 C1010 1.388 . S
C1009 C1008 1.366 . S
C1009 C1013 1.385 . S
C1010 H991 0.951 . S
C1010 C1008 1.388 . S
C1010 C1011 1.366 . S
C1011 C1010 1.366 . S
C1011 C1012 1.414 . S
C1011 C1014 1.499 . S
C1012 H992 0.950 . S
C1012 C1011 1.414 . S
C1012 C1013 1.374 . S
C1013 H993 0.950 . S
C1013 C1009 1.385 . S
C1013 C1012 1.374 . S
C1014 C1011 1.499 . S
C1014 C1015 1.373 . S
C1014 C1016 1.389 . S
C1015 H994 0.950 . S
C1015 C1014 1.373 . S
C1015 C1031 1.377 . S
C1016 C1014 1.389 . S
C1016 C1017 1.524 . S
C1016 C1030 1.377 . S
C1017 C1016 1.524 . S
C1017 C1018 1.397 . S
C1017 C1022 1.363 . S
C1018 H995 0.950 . S
C1018 C1017 1.397 . S
C1018 C1019 1.334 . S
C1019 H996 0.950 . S
C1019 C1018 1.334 . S
C1019 C1020 1.287 . S
C1020 C1019 1.287 . S
C1020 C1021 1.524 . S
C1020 H1039 0.913 . S
C1021 H997 0.950 . S
C1021 C1020 1.524 . S
C1021 C1022 1.415 . S
C1022 H998 0.950 . S
C1022 C1017 1.363 . S
C1022 C1021 1.415 . S
C1023 H999 0.951 . S
C1023 C1024 1.366 . S
C1023 C1025 1.388 . S
C1024 C1023 1.366 . S
C1024 C1028 1.385 . S
C1025 H1000 0.951 . S
C1025 C1023 1.388 . S
C1025 C1026 1.366 . S
C1026 C1025 1.366 . S
C1026 C1027 1.414 . S
C1026 C1029 1.499 . S
C1027 H1001 0.950 . S
C1027 C1026 1.414 . S
C1027 C1028 1.374 . S
C1028 H1002 0.950 . S
C1028 C1024 1.385 . S
C1028 C1027 1.374 . S
C1029 C1026 1.499 . S
C1029 C1030 1.373 . S
C1029 C1031 1.389 . S
C1030 H1003 0.950 . S
C1030 C1016 1.377 . S
C1030 C1029 1.373 . S
C1031 C1015 1.377 . S
C1031 C1029 1.389 . S
C1031 C1032 1.524 . S
C1032 C1031 1.524 . S
C1032 C1033 1.397 . S
C1032 C1037 1.363 . S
C1033 H1004 0.950 . S
C1033 C1032 1.397 . S
C1033 C1034 1.334 . S
C1034 H1005 0.950 . S
C1034 C1033 1.334 . S
C1034 C1035 1.287 . S
C1035 C1034 1.287 . S
C1035 C1036 1.524 . S
C1035 H1038 0.999 . S
C1036 H1006 0.950 . S
C1036 C1035 1.524 . S
C1036 C1037 1.415 . S
C1037 H1007 0.950 . S
C1037 C1032 1.363 . S
C1037 C1036 1.415 . S
H1038 C1035 0.999 . S
H1039 C1020 0.913 . S
H1040 C1058 0.951 . S
H1041 C1060 0.951 . S
H1042 C1062 0.950 . S
H1043 C1063 0.950 . S
H1044 C1065 0.950 . S
H1045 C1068 0.950 . S
H1046 C1069 0.950 . S
H1047 C1071 0.950 . S
H1048 C1072 0.950 . S
H1049 C1073 0.951 . S
H1050 C1075 0.951 . S
H1051 C1077 0.950 . S
H1052 C1078 0.950 . S
H1053 C1080 0.950 . S
H1054 C1083 0.950 . S
H1055 C1084 0.950 . S
H1056 C1086 0.950 . S
H1057 C1087 0.950 . S
C1058 H1040 0.951 . S
C1058 C1059 1.366 . S
C1058 C1060 1.388 . S
C1059 C1058 1.366 . S
C1059 C1063 1.385 . S
C1060 H1041 0.951 . S
C1060 C1058 1.388 . S
C1060 C1061 1.366 . S
C1061 C1060 1.366 . S
C1061 C1062 1.414 . S
C1061 C1064 1.499 . S
C1062 H1042 0.950 . S
C1062 C1061 1.414 . S
C1062 C1063 1.374 . S
C1063 H1043 0.950 . S
C1063 C1059 1.385 . S
C1063 C1062 1.374 . S
C1064 C1061 1.499 . S
C1064 C1065 1.373 . S
C1064 C1066 1.389 . S
C1065 H1044 0.950 . S
C1065 C1064 1.373 . S
C1065 C1081 1.377 . S
C1066 C1064 1.389 . S
C1066 C1067 1.524 . S
C1066 C1080 1.377 . S
C1067 C1066 1.524 . S
C1067 C1068 1.397 . S
C1067 C1072 1.363 . S
C1068 H1045 0.950 . S
C1068 C1067 1.397 . S
C1068 C1069 1.334 . S
C1069 H1046 0.950 . S
C1069 C1068 1.334 . S
C1069 C1070 1.287 . S
C1070 C1069 1.287 . S
C1070 C1071 1.524 . S
C1070 H1089 0.913 . S
C1071 H1047 0.950 . S
C1071 C1070 1.524 . S
C1071 C1072 1.415 . S
C1072 H1048 0.950 . S
C1072 C1067 1.363 . S
C1072 C1071 1.415 . S
C1073 H1049 0.951 . S
C1073 C1074 1.366 . S
C1073 C1075 1.388 . S
C1074 C1073 1.366 . S
C1074 C1078 1.385 . S
C1075 H1050 0.951 . S
C1075 C1073 1.388 . S
C1075 C1076 1.366 . S
C1076 C1075 1.366 . S
C1076 C1077 1.414 . S
C1076 C1079 1.499 . S
C1077 H1051 0.950 . S
C1077 C1076 1.414 . S
C1077 C1078 1.374 . S
C1078 H1052 0.950 . S
C1078 C1074 1.385 . S
C1078 C1077 1.374 . S
C1079 C1076 1.499 . S
C1079 C1080 1.373 . S
C1079 C1081 1.389 . S
C1080 H1053 0.950 . S
C1080 C1066 1.377 . S
C1080 C1079 1.373 . S
C1081 C1065 1.377 . S
C1081 C1079 1.389 . S
C1081 C1082 1.524 . S
C1082 C1081 1.524 . S
C1082 C1083 1.397 . S
C1082 C1087 1.363 . S
C1083 H1054 0.950 . S
C1083 C1082 1.397 . S
C1083 C1084 1.334 . S
C1084 H1055 0.950 . S
C1084 C1083 1.334 . S
C1084 C1085 1.287 . S
C1085 C1084 1.287 . S
C1085 C1086 1.524 . S
C1085 H1088 0.999 . S
C1086 H1056 0.950 . S
C1086 C1085 1.524 . S
C1086 C1087 1.415 . S
C1087 H1057 0.950 . S
C1087 C1082 1.363 . S
C1087 C1086 1.415 . S
H1088 C1085 0.999 . S
H1089 C1070 0.913 . S
H1090 C1108 0.951 . S
H1091 C1110 0.951 . S
H1092 C1112 0.950 . S
H1093 C1113 0.950 . S
H1094 C1115 0.950 . S
H1095 C1118 0.950 . S
H1096 C1119 0.950 . S
H1097 C1121 0.950 . S
H1098 C1122 0.950 . S
H1099 C1123 0.951 . S
H1100 C1125 0.951 . S
H1101 C1127 0.950 . S
H1102 C1128 0.950 . S
H1103 C1130 0.950 . S
H1104 C1133 0.950 . S
H1105 C1134 0.950 . S
H1106 C1136 0.950 . S
H1107 C1137 0.950 . S
C1108 H1090 0.951 . S
C1108 C1109 1.366 . S
C1108 C1110 1.388 . S
C1109 C1108 1.366 . S
C1109 C1113 1.385 . S
C1110 H1091 0.951 . S
C1110 C1108 1.388 . S
C1110 C1111 1.366 . S
C1111 C1110 1.366 . S
C1111 C1112 1.414 . S
C1111 C1114 1.499 . S
C1112 H1092 0.950 . S
C1112 C1111 1.414 . S
C1112 C1113 1.374 . S
C1113 H1093 0.950 . S
C1113 C1109 1.385 . S
C1113 C1112 1.374 . S
C1114 C1111 1.499 . S
C1114 C1115 1.373 . S
C1114 C1116 1.389 . S
C1115 H1094 0.950 . S
C1115 C1114 1.373 . S
C1115 C1131 1.377 . S
C1116 C1114 1.389 . S
C1116 C1117 1.524 . S
C1116 C1130 1.377 . S
C1117 C1116 1.524 . S
C1117 C1118 1.397 . S
C1117 C1122 1.363 . S
C1118 H1095 0.950 . S
C1118 C1117 1.397 . S
C1118 C1119 1.334 . S
C1119 H1096 0.950 . S
C1119 C1118 1.334 . S
C1119 C1120 1.287 . S
C1120 C1119 1.287 . S
C1120 C1121 1.524 . S
C1120 H1139 0.913 . S
C1121 H1097 0.950 . S
C1121 C1120 1.524 . S
C1121 C1122 1.415 . S
C1122 H1098 0.950 . S
C1122 C1117 1.363 . S
C1122 C1121 1.415 . S
C1123 H1099 0.951 . S
C1123 C1124 1.366 . S
C1123 C1125 1.388 . S
C1124 C1123 1.366 . S
C1124 C1128 1.385 . S
C1125 H1100 0.951 . S
C1125 C1123 1.388 . S
C1125 C1126 1.366 . S
C1126 C1125 1.366 . S
C1126 C1127 1.414 . S
C1126 C1129 1.499 . S
C1127 H1101 0.950 . S
C1127 C1126 1.414 . S
C1127 C1128 1.374 . S
C1128 H1102 0.950 . S
C1128 C1124 1.385 . S
C1128 C1127 1.374 . S
C1129 C1126 1.499 . S
C1129 C1130 1.373 . S
C1129 C1131 1.389 . S
C1130 H1103 0.950 . S
C1130 C1116 1.377 . S
C1130 C1129 1.373 . S
C1131 C1115 1.377 . S
C1131 C1129 1.389 . S
C1131 C1132 1.524 . S
C1132 C1131 1.524 . S
C1132 C1133 1.397 . S
C1132 C1137 1.363 . S
C1133 H1104 0.950 . S
C1133 C1132 1.397 . S
C1133 C1134 1.334 . S
C1134 H1105 0.950 . S
C1134 C1133 1.334 . S
C1134 C1135 1.287 . S
C1135 C1134 1.287 . S
C1135 C1136 1.524 . S
C1135 H1138 0.999 . S
C1136 H1106 0.950 . S
C1136 C1135 1.524 . S
C1136 C1137 1.415 . S
C1137 H1107 0.950 . S
C1137 C1132 1.363 . S
C1137 C1136 1.415 . S
H1138 C1135 0.999 . S
H1139 C1120 0.913 . S
H1140 C1158 0.951 . S
H1141 C1160 0.951 . S
H1142 C1162 0.950 . S
H1143 C1163 0.950 . S
H1144 C1165 0.950 . S
H1145 C1168 0.950 . S
H1146 C1169 0.950 . S
H1147 C1171 0.950 . S
H1148 C1172 0.950 . S
H1149 C1173 0.951 . S
H1150 C1175 0.951 . S
H1151 C1177 0.950 . S
H1152 C1178 0.950 . S
H1153 C1180 0.950 . S
H1154 C1183 0.950 . S
H1155 C1184 0.950 . S
H1156 C1186 0.950 . S
H1157 C1187 0.950 . S
C1158 H1140 0.951 . S
C1158 C1159 1.366 . S
C1158 C1160 1.388 . S
C1159 C1158 1.366 . S
C1159 C1163 1.385 . S
C1160 H1141 0.951 . S
C1160 C1158 1.388 . S
C1160 C1161 1.366 . S
C1161 C1160 1.366 . S
C1161 C1162 1.414 . S
C1161 C1164 1.499 . S
C1162 H1142 0.950 . S
C1162 C1161 1.414 . S
C1162 C1163 1.374 . S
C1163 H1143 0.950 . S
C1163 C1159 1.385 . S
C1163 C1162 1.374 . S
C1164 C1161 1.499 . S
C1164 C1165 1.373 1_565 S
C1164 C1166 1.389 1_556 S
C1165 H1144 0.950 . S
C1165 C1164 1.373 1_545 S
C1165 C1181 1.377 . S
C1166 C1164 1.389 1_554 S
C1166 C1167 1.524 . S
C1166 C1180 1.377 . S
C1167 C1166 1.524 . S
C1167 C1168 1.397 1_554 S
C1167 C1172 1.363 . S
C1168 H1145 0.950 . S
C1168 C1167 1.397 1_556 S
C1168 C1169 1.334 . S
C1169 H1146 0.950 . S
C1169 C1168 1.334 . S
C1169 C1170 1.287 1_556 S
C1170 C1169 1.287 1_554 S
C1170 C1171 1.524 . S
C1170 H1189 0.913 . S
C1171 H1147 0.950 . S
C1171 C1170 1.524 . S
C1171 C1172 1.415 . S
C1172 H1148 0.950 . S
C1172 C1167 1.363 . S
C1172 C1171 1.415 . S
C1173 H1149 0.951 . S
C1173 C1174 1.366 . S
C1173 C1175 1.388 . S
C1174 C1173 1.366 . S
C1174 C1178 1.385 . S
C1175 H1150 0.951 . S
C1175 C1173 1.388 . S
C1175 C1176 1.366 . S
C1176 C1175 1.366 . S
C1176 C1177 1.414 . S
C1176 C1179 1.499 . S
C1177 H1151 0.950 . S
C1177 C1176 1.414 . S
C1177 C1178 1.374 . S
C1178 H1152 0.950 . S
C1178 C1174 1.385 . S
C1178 C1177 1.374 . S
C1179 C1176 1.499 . S
C1179 C1180 1.373 1_545 S
C1179 C1181 1.389 1_554 S
C1180 H1153 0.950 . S
C1180 C1166 1.377 . S
C1180 C1179 1.373 1_565 S
C1181 C1165 1.377 . S
C1181 C1179 1.389 1_556 S
C1181 C1182 1.524 . S
C1182 C1181 1.524 . S
C1182 C1183 1.397 1_556 S
C1182 C1187 1.363 . S
C1183 H1154 0.950 . S
C1183 C1182 1.397 1_554 S
C1183 C1184 1.334 . S
C1184 H1155 0.950 . S
C1184 C1183 1.334 . S
C1184 C1185 1.287 1_554 S
C1185 C1184 1.287 1_556 S
C1185 C1186 1.524 . S
C1185 H1188 0.999 . S
C1186 H1156 0.950 . S
C1186 C1185 1.524 . S
C1186 C1187 1.415 . S
C1187 H1157 0.950 . S
C1187 C1182 1.363 . S
C1187 C1186 1.415 . S
H1188 C1185 0.999 . S
H1189 C1170 0.913 . S
H1190 C1208 0.951 . S
H1191 C1210 0.951 . S
H1192 C1212 0.950 . S
H1193 C1213 0.950 . S
H1194 C1215 0.950 . S
H1195 C1218 0.950 . S
H1196 C1219 0.950 . S
H1197 C1221 0.950 . S
H1198 C1222 0.950 . S
H1199 C1223 0.951 . S
H1200 C1225 0.951 . S
H1201 C1227 0.950 . S
H1202 C1228 0.950 . S
H1203 C1230 0.950 . S
H1204 C1233 0.950 . S
H1205 C1234 0.950 . S
H1206 C1236 0.950 . S
H1207 C1237 0.950 . S
C1208 H1190 0.951 . S
C1208 C1209 1.366 . S
C1208 C1210 1.388 . S
C1209 C1208 1.366 . S
C1209 C1213 1.385 . S
C1210 H1191 0.951 . S
C1210 C1208 1.388 . S
C1210 C1211 1.366 . S
C1211 C1210 1.366 . S
C1211 C1212 1.414 . S
C1211 C1214 1.499 . S
C1212 H1192 0.950 . S
C1212 C1211 1.414 . S
C1212 C1213 1.374 . S
C1213 H1193 0.950 . S
C1213 C1209 1.385 . S
C1213 C1212 1.374 . S
C1214 C1211 1.499 . S
C1214 C1215 1.373 . S
C1214 C1216 1.389 . S
C1215 H1194 0.950 . S
C1215 C1214 1.373 . S
C1215 C1231 1.377 . S
C1216 C1214 1.389 . S
C1216 C1217 1.524 . S
C1216 C1230 1.377 . S
C1217 C1216 1.524 . S
C1217 C1218 1.397 . S
C1217 C1222 1.363 . S
C1218 H1195 0.950 . S
C1218 C1217 1.397 . S
C1218 C1219 1.334 . S
C1219 H1196 0.950 . S
C1219 C1218 1.334 . S
C1219 C1220 1.287 . S
C1220 C1219 1.287 . S
C1220 C1221 1.524 . S
C1220 H1239 0.913 . S
C1221 H1197 0.950 . S
C1221 C1220 1.524 . S
C1221 C1222 1.415 . S
C1222 H1198 0.950 . S
C1222 C1217 1.363 . S
C1222 C1221 1.415 . S
C1223 H1199 0.951 . S
C1223 C1224 1.366 . S
C1223 C1225 1.388 . S
C1224 C1223 1.366 . S
C1224 C1228 1.385 . S
C1225 H1200 0.951 . S
C1225 C1223 1.388 . S
C1225 C1226 1.366 . S
C1226 C1225 1.366 . S
C1226 C1227 1.414 . S
C1226 C1229 1.499 . S
C1227 H1201 0.950 . S
C1227 C1226 1.414 . S
C1227 C1228 1.374 . S
C1228 H1202 0.950 . S
C1228 C1224 1.385 . S
C1228 C1227 1.374 . S
C1229 C1226 1.499 . S
C1229 C1230 1.373 . S
C1229 C1231 1.389 . S
C1230 H1203 0.950 . S
C1230 C1216 1.377 . S
C1230 C1229 1.373 . S
C1231 C1215 1.377 . S
C1231 C1229 1.389 . S
C1231 C1232 1.524 . S
C1232 C1231 1.524 . S
C1232 C1233 1.397 . S
C1232 C1237 1.363 . S
C1233 H1204 0.950 . S
C1233 C1232 1.397 . S
C1233 C1234 1.334 . S
C1234 H1205 0.950 . S
C1234 C1233 1.334 . S
C1234 C1235 1.287 . S
C1235 C1234 1.287 . S
C1235 C1236 1.524 . S
C1235 H1238 0.999 . S
C1236 H1206 0.950 . S
C1236 C1235 1.524 . S
C1236 C1237 1.415 . S
C1237 H1207 0.950 . S
C1237 C1232 1.363 . S
C1237 C1236 1.415 . S
H1238 C1235 0.999 . S
H1239 C1220 0.913 . S
H1240 C1258 0.951 . S
H1241 C1260 0.951 . S
H1242 C1262 0.950 . S
H1243 C1263 0.950 . S
H1244 C1265 0.950 . S
H1245 C1268 0.952 . S
H1246 C1269 0.950 1_556 S
H1247 C1271 0.950 . S
H1248 C1272 0.950 . S
H1249 C1273 0.951 . S
H1250 C1275 0.951 . S
H1251 C1277 0.950 . S
H1252 C1278 0.950 . S
H1253 C1280 0.950 . S
H1254 C1283 0.952 . S
H1255 C1284 0.950 1_554 S
H1256 C1286 0.950 . S
H1257 C1287 0.950 . S
C1258 H1240 0.951 . S
C1258 C1259 1.366 . S
C1258 C1260 1.388 . S
C1259 C1258 1.366 . S
C1259 C1263 1.385 . S
C1260 H1241 0.951 . S
C1260 C1258 1.388 . S
C1260 C1261 1.366 . S
C1261 C1260 1.366 . S
C1261 C1262 1.414 . S
C1261 C1264 1.499 . S
C1262 H1242 0.950 . S
C1262 C1261 1.414 . S
C1262 C1263 1.374 . S
C1263 H1243 0.950 . S
C1263 C1259 1.385 . S
C1263 C1262 1.374 . S
C1264 C1261 1.499 . S
C1264 C1265 1.373 1_455 S
C1264 C1266 1.389 1_556 S
C1265 H1244 0.950 . S
C1265 C1264 1.373 1_655 S
C1265 C1281 1.377 . S
C1266 C1264 1.389 1_554 S
C1266 C1267 1.524 . S
C1266 C1280 1.377 . S
C1267 C1266 1.524 . S
C1267 C1268 1.395 1_554 S
C1267 C1272 1.363 . S
C1268 H1245 0.952 . S
C1268 C1267 1.395 1_556 S
C1268 C1269 1.333 1_556 S
C1269 H1246 0.950 1_554 S
C1269 C1268 1.333 1_554 S
C1269 C1270 1.287 . S
C1270 C1269 1.287 . S
C1270 C1271 1.524 . S
C1270 H1289 0.913 . S
C1271 H1247 0.950 . S
C1271 C1270 1.524 . S
C1271 C1272 1.415 . S
C1272 H1248 0.950 . S
C1272 C1267 1.363 . S
C1272 C1271 1.415 . S
C1273 H1249 0.951 . S
C1273 C1274 1.366 . S
C1273 C1275 1.388 . S
C1274 C1273 1.366 . S
C1274 C1278 1.385 . S
C1275 H1250 0.951 . S
C1275 C1273 1.388 . S
C1275 C1276 1.366 . S
C1276 C1275 1.366 . S
C1276 C1277 1.414 . S
C1276 C1279 1.499 . S
C1277 H1251 0.950 . S
C1277 C1276 1.414 . S
C1277 C1278 1.374 . S
C1278 H1252 0.950 . S
C1278 C1274 1.385 . S
C1278 C1277 1.374 . S
C1279 C1276 1.499 . S
C1279 C1280 1.373 1_655 S
C1279 C1281 1.389 1_554 S
C1280 H1253 0.950 . S
C1280 C1266 1.377 . S
C1280 C1279 1.373 1_455 S
C1281 C1265 1.377 . S
C1281 C1279 1.389 1_556 S
C1281 C1282 1.524 . S
C1282 C1281 1.524 . S
C1282 C1283 1.395 1_556 S
C1282 C1287 1.363 . S
C1283 H1254 0.952 . S
C1283 C1282 1.395 1_554 S
C1283 C1284 1.333 1_554 S
C1284 H1255 0.950 1_556 S
C1284 C1283 1.333 1_556 S
C1284 C1285 1.287 . S
C1285 C1284 1.287 . S
C1285 C1286 1.524 . S
C1285 H1288 0.999 . S
C1286 H1256 0.950 . S
C1286 C1285 1.524 . S
C1286 C1287 1.415 . S
C1287 H1257 0.950 . S
C1287 C1282 1.363 . S
C1287 C1286 1.415 . S
H1288 C1285 0.999 . S
H1289 C1270 0.913 . S
H1290 C1308 0.951 . S
H1291 C1310 0.951 . S
H1292 C1312 0.950 . S
H1293 C1313 0.950 . S
H1294 C1315 0.950 . S
H1295 C1318 0.950 . S
H1296 C1319 0.950 . S
H1297 C1321 0.950 . S
H1298 C1322 0.950 1_565 S
H1299 C1323 0.951 . S
H1300 C1325 0.951 . S
H1301 C1327 0.950 . S
H1302 C1328 0.950 . S
H1303 C1330 0.950 . S
H1304 C1333 0.950 . S
H1305 C1334 0.950 . S
H1306 C1336 0.950 . S
H1307 C1337 0.950 1_545 S
C1308 H1290 0.951 . S
C1308 C1309 1.366 . S
C1308 C1310 1.388 . S
C1309 C1308 1.366 . S
C1309 C1313 1.385 . S
C1310 H1291 0.951 . S
C1310 C1308 1.388 . S
C1310 C1311 1.366 . S
C1311 C1310 1.366 . S
C1311 C1312 1.414 . S
C1311 C1314 1.499 . S
C1312 H1292 0.950 . S
C1312 C1311 1.414 . S
C1312 C1313 1.374 . S
C1313 H1293 0.950 . S
C1313 C1309 1.385 . S
C1313 C1312 1.374 . S
C1314 C1311 1.499 . S
C1314 C1315 1.373 . S
C1314 C1316 1.389 . S
C1315 H1294 0.950 . S
C1315 C1314 1.373 . S
C1315 C1331 1.377 1_545 S
C1316 C1314 1.389 . S
C1316 C1317 1.524 . S
C1316 C1330 1.377 1_545 S
C1317 C1316 1.524 . S
C1317 C1318 1.397 . S
C1317 C1322 1.363 . S
C1318 H1295 0.950 . S
C1318 C1317 1.397 . S
C1318 C1319 1.334 . S
C1319 H1296 0.950 . S
C1319 C1318 1.334 . S
C1319 C1320 1.287 . S
C1320 C1319 1.287 . S
C1320 C1321 1.524 . S
C1320 H1339 0.913 . S
C1321 H1297 0.950 . S
C1321 C1320 1.524 . S
C1321 C1322 1.415 . S
C1322 H1298 0.950 1_545 S
C1322 C1317 1.363 . S
C1322 C1321 1.415 . S
C1323 H1299 0.951 . S
C1323 C1324 1.366 . S
C1323 C1325 1.388 . S
C1324 C1323 1.366 . S
C1324 C1328 1.385 . S
C1325 H1300 0.951 . S
C1325 C1323 1.388 . S
C1325 C1326 1.366 . S
C1326 C1325 1.366 . S
C1326 C1327 1.414 . S
C1326 C1329 1.499 . S
C1327 H1301 0.950 . S
C1327 C1326 1.414 . S
C1327 C1328 1.374 . S
C1328 H1302 0.950 . S
C1328 C1324 1.385 . S
C1328 C1327 1.374 . S
C1329 C1326 1.499 . S
C1329 C1330 1.373 . S
C1329 C1331 1.389 . S
C1330 H1303 0.950 . S
C1330 C1316 1.377 1_565 S
C1330 C1329 1.373 . S
C1331 C1315 1.377 1_565 S
C1331 C1329 1.389 . S
C1331 C1332 1.524 . S
C1332 C1331 1.524 . S
C1332 C1333 1.397 . S
C1332 C1337 1.363 . S
C1333 H1304 0.950 . S
C1333 C1332 1.397 . S
C1333 C1334 1.334 . S
C1334 H1305 0.950 . S
C1334 C1333 1.334 . S
C1334 C1335 1.287 . S
C1335 C1334 1.287 . S
C1335 C1336 1.524 . S
C1335 H1338 0.999 . S
C1336 H1306 0.950 . S
C1336 C1335 1.524 . S
C1336 C1337 1.415 . S
C1337 H1307 0.950 1_565 S
C1337 C1332 1.363 . S
C1337 C1336 1.415 . S
H1338 C1335 0.999 . S
H1339 C1320 0.913 . S
H1340 C1358 0.951 . S
H1341 C1360 0.951 . S
H1342 C1362 0.950 . S
H1343 C1363 0.950 . S
H1344 C1365 0.950 . S
H1345 C1368 0.950 . S
H1346 C1369 0.950 . S
H1347 C1371 0.933 1_556 S
H1348 C1372 0.950 . S
H1349 C1373 0.951 . S
H1350 C1375 0.951 . S
H1351 C1377 0.950 . S
H1352 C1378 0.950 . S
H1353 C1380 0.950 . S
H1354 C1383 0.950 . S
H1355 C1384 0.950 . S
H1356 C1386 0.933 1_554 S
H1357 C1387 0.950 . S
C1358 H1340 0.951 . S
C1358 C1359 1.366 . S
C1358 C1360 1.388 . S
C1359 C1358 1.366 . S
C1359 C1363 1.385 . S
C1360 H1341 0.951 . S
C1360 C1358 1.388 . S
C1360 C1361 1.366 . S
C1361 C1360 1.366 . S
C1361 C1362 1.414 . S
C1361 C1364 1.499 . S
C1362 H1342 0.950 . S
C1362 C1361 1.414 . S
C1362 C1363 1.374 . S
C1363 H1343 0.950 . S
C1363 C1359 1.385 . S
C1363 C1362 1.374 . S
C1364 C1361 1.499 . S
C1364 C1365 1.373 . S
C1364 C1366 1.389 . S
C1365 H1344 0.950 . S
C1365 C1364 1.373 . S
C1365 C1381 1.377 1_554 S
C1366 C1364 1.389 . S
C1366 C1367 1.524 . S
C1366 C1380 1.377 1_554 S
C1367 C1366 1.524 . S
C1367 C1368 1.397 . S
C1367 C1372 1.363 1_554 S
C1368 H1345 0.950 . S
C1368 C1367 1.397 . S
C1368 C1369 1.334 . S
C1369 H1346 0.950 . S
C1369 C1368 1.334 . S
C1369 C1370 1.287 . S
C1370 C1369 1.287 . S
C1370 C1371 1.549 . S
C1370 H1389 0.913 . S
C1371 H1347 0.933 1_554 S
C1371 C1370 1.549 . S
C1371 C1372 1.409 1_554 S
C1372 H1348 0.950 . S
C1372 C1367 1.363 1_556 S
C1372 C1371 1.409 1_556 S
C1373 H1349 0.951 . S
C1373 C1374 1.366 . S
C1373 C1375 1.388 . S
C1374 C1373 1.366 . S
C1374 C1378 1.385 . S
C1375 H1350 0.951 . S
C1375 C1373 1.388 . S
C1375 C1376 1.366 . S
C1376 C1375 1.366 . S
C1376 C1377 1.414 . S
C1376 C1379 1.499 . S
C1377 H1351 0.950 . S
C1377 C1376 1.414 . S
C1377 C1378 1.374 . S
C1378 H1352 0.950 . S
C1378 C1374 1.385 . S
C1378 C1377 1.374 . S
C1379 C1376 1.499 . S
C1379 C1380 1.373 . S
C1379 C1381 1.389 . S
C1380 H1353 0.950 . S
C1380 C1366 1.377 1_556 S
C1380 C1379 1.373 . S
C1381 C1365 1.377 1_556 S
C1381 C1379 1.389 . S
C1381 C1382 1.524 . S
C1382 C1381 1.524 . S
C1382 C1383 1.397 . S
C1382 C1387 1.363 1_556 S
C1383 H1354 0.950 . S
C1383 C1382 1.397 . S
C1383 C1384 1.334 . S
C1384 H1355 0.950 . S
C1384 C1383 1.334 . S
C1384 C1385 1.287 . S
C1385 C1384 1.287 . S
C1385 C1386 1.549 . S
C1385 H1388 0.999 . S
C1386 H1356 0.933 1_556 S
C1386 C1385 1.549 . S
C1386 C1387 1.409 1_556 S
C1387 H1357 0.950 . S
C1387 C1382 1.363 1_554 S
C1387 C1386 1.409 1_554 S
H1388 C1385 0.999 . S
H1389 C1370 0.913 . S
H1390 C1408 0.951 . S
H1391 C1410 0.951 . S
H1392 C1412 0.950 . S
H1393 C1413 0.950 . S
H1394 C1415 0.950 . S
H1395 C1418 0.950 . S
H1396 C1419 0.950 . S
H1397 C1421 0.950 . S
H1398 C1422 0.950 . S
H1399 C1423 0.951 . S
H1400 C1425 0.951 . S
H1401 C1427 0.950 . S
H1402 C1428 0.950 . S
H1403 C1430 0.950 . S
H1404 C1433 0.950 . S
H1405 C1434 0.950 . S
H1406 C1436 0.950 . S
H1407 C1437 0.950 . S
C1408 H1390 0.951 . S
C1408 C1409 1.366 . S
C1408 C1410 1.388 . S
C1409 C1408 1.366 . S
C1409 C1413 1.385 . S
C1410 H1391 0.951 . S
C1410 C1408 1.388 . S
C1410 C1411 1.366 . S
C1411 C1410 1.366 . S
C1411 C1412 1.414 . S
C1411 C1414 1.499 . S
C1412 H1392 0.950 . S
C1412 C1411 1.414 . S
C1412 C1413 1.374 . S
C1413 H1393 0.950 . S
C1413 C1409 1.385 . S
C1413 C1412 1.374 . S
C1414 C1411 1.499 . S
C1414 C1415 1.373 . S
C1414 C1416 1.389 . S
C1415 H1394 0.950 . S
C1415 C1414 1.373 . S
C1415 C1431 1.377 1_455 S
C1416 C1414 1.389 . S
C1416 C1417 1.524 . S
C1416 C1430 1.377 1_455 S
C1417 C1416 1.524 . S
C1417 C1418 1.397 . S
C1417 C1422 1.363 1_455 S
C1418 H1395 0.950 . S
C1418 C1417 1.397 . S
C1418 C1419 1.334 . S
C1419 H1396 0.950 . S
C1419 C1418 1.334 . S
C1419 C1420 1.287 . S
C1420 C1419 1.287 . S
C1420 C1421 1.524 1_455 S
C1420 H1439 0.913 . S
C1421 H1397 0.950 . S
C1421 C1420 1.524 1_655 S
C1421 C1422 1.415 . S
C1422 H1398 0.950 . S
C1422 C1417 1.363 1_655 S
C1422 C1421 1.415 . S
C1423 H1399 0.951 . S
C1423 C1424 1.366 . S
C1423 C1425 1.388 . S
C1424 C1423 1.366 . S
C1424 C1428 1.385 . S
C1425 H1400 0.951 . S
C1425 C1423 1.388 . S
C1425 C1426 1.366 . S
C1426 C1425 1.366 . S
C1426 C1427 1.414 . S
C1426 C1429 1.499 . S
C1427 H1401 0.950 . S
C1427 C1426 1.414 . S
C1427 C1428 1.374 . S
C1428 H1402 0.950 . S
C1428 C1424 1.385 . S
C1428 C1427 1.374 . S
C1429 C1426 1.499 . S
C1429 C1430 1.373 . S
C1429 C1431 1.389 . S
C1430 H1403 0.950 . S
C1430 C1416 1.377 1_655 S
C1430 C1429 1.373 . S
C1431 C1415 1.377 1_655 S
C1431 C1429 1.389 . S
C1431 C1432 1.524 . S
C1432 C1431 1.524 . S
C1432 C1433 1.397 . S
C1432 C1437 1.363 1_655 S
C1433 H1404 0.950 . S
C1433 C1432 1.397 . S
C1433 C1434 1.334 . S
C1434 H1405 0.950 . S
C1434 C1433 1.334 . S
C1434 C1435 1.287 . S
C1435 C1434 1.287 . S
C1435 C1436 1.524 1_655 S
C1435 H1438 0.999 . S
C1436 H1406 0.950 . S
C1436 C1435 1.524 1_455 S
C1436 C1437 1.415 . S
C1437 H1407 0.950 . S
C1437 C1432 1.363 1_455 S
C1437 C1436 1.415 . S
H1438 C1435 0.999 . S
H1439 C1420 0.913 . S
H1440 C1458 0.951 . S
H1441 C1460 0.951 . S
H1442 C1462 0.950 . S
H1443 C1463 0.950 . S
H1444 C1465 0.950 . S
H1445 C1468 0.950 . S
H1446 C1469 0.950 . S
H1447 C1471 0.950 . S
H1448 C1472 0.950 . S
H1449 C1473 0.951 . S
H1450 C1475 0.951 . S
H1451 C1477 0.950 . S
H1452 C1478 0.950 . S
H1453 C1480 0.950 . S
H1454 C1483 0.950 . S
H1455 C1484 0.950 . S
H1456 C1486 0.950 . S
H1457 C1487 0.950 . S
C1458 H1440 0.951 . S
C1458 C1459 1.366 . S
C1458 C1460 1.388 . S
C1459 C1458 1.366 . S
C1459 C1463 1.385 . S
C1460 H1441 0.951 . S
C1460 C1458 1.388 . S
C1460 C1461 1.366 . S
C1461 C1460 1.366 . S
C1461 C1462 1.414 . S
C1461 C1464 1.499 . S
C1462 H1442 0.950 . S
C1462 C1461 1.414 . S
C1462 C1463 1.374 . S
C1463 H1443 0.950 . S
C1463 C1459 1.385 . S
C1463 C1462 1.374 . S
C1464 C1461 1.499 . S
C1464 C1465 1.373 . S
C1464 C1466 1.389 . S
C1465 H1444 0.950 . S
C1465 C1464 1.373 . S
C1465 C1481 1.377 . S
C1466 C1464 1.389 . S
C1466 C1467 1.524 . S
C1466 C1480 1.377 . S
C1467 C1466 1.524 . S
C1467 C1468 1.397 . S
C1467 C1472 1.363 . S
C1468 H1445 0.950 . S
C1468 C1467 1.397 . S
C1468 C1469 1.334 . S
C1469 H1446 0.950 . S
C1469 C1468 1.334 . S
C1469 C1470 1.287 . S
C1470 C1469 1.287 . S
C1470 C1471 1.524 . S
C1470 H1489 0.913 . S
C1471 H1447 0.950 . S
C1471 C1470 1.524 . S
C1471 C1472 1.415 . S
C1472 H1448 0.950 . S
C1472 C1467 1.363 . S
C1472 C1471 1.415 . S
C1473 H1449 0.951 . S
C1473 C1474 1.366 . S
C1473 C1475 1.388 . S
C1474 C1473 1.366 . S
C1474 C1478 1.385 . S
C1475 H1450 0.951 . S
C1475 C1473 1.388 . S
C1475 C1476 1.366 . S
C1476 C1475 1.366 . S
C1476 C1477 1.414 . S
C1476 C1479 1.499 . S
C1477 H1451 0.950 . S
C1477 C1476 1.414 . S
C1477 C1478 1.374 . S
C1478 H1452 0.950 . S
C1478 C1474 1.385 . S
C1478 C1477 1.374 . S
C1479 C1476 1.499 . S
C1479 C1480 1.373 . S
C1479 C1481 1.389 . S
C1480 H1453 0.950 . S
C1480 C1466 1.377 . S
C1480 C1479 1.373 . S
C1481 C1465 1.377 . S
C1481 C1479 1.389 . S
C1481 C1482 1.524 . S
C1482 C1481 1.524 . S
C1482 C1483 1.397 . S
C1482 C1487 1.363 . S
C1483 H1454 0.950 . S
C1483 C1482 1.397 . S
C1483 C1484 1.334 . S
C1484 H1455 0.950 . S
C1484 C1483 1.334 . S
C1484 C1485 1.287 . S
C1485 C1484 1.287 . S
C1485 C1486 1.524 . S
C1485 H1488 0.999 1_545 S
C1486 H1456 0.950 . S
C1486 C1485 1.524 . S
C1486 C1487 1.415 . S
C1487 H1457 0.950 . S
C1487 C1482 1.363 . S
C1487 C1486 1.415 . S
H1488 C1485 0.999 1_565 S
H1489 C1470 0.913 . S
H1490 C1508 0.951 . S
H1491 C1510 0.951 . S
H1492 C1512 0.950 . S
H1493 C1513 0.950 . S
H1494 C1515 0.950 . S
H1495 C1518 0.950 . S
H1496 C1519 0.950 . S
H1497 C1521 0.950 . S
H1498 C1522 0.950 . S
H1499 C1523 0.951 . S
H1500 C1525 0.951 . S
H1501 C1527 0.950 . S
H1502 C1528 0.950 . S
H1503 C1530 0.950 . S
H1504 C1533 0.950 . S
H1505 C1534 0.950 . S
H1506 C1536 0.950 . S
H1507 C1537 0.950 . S
C1508 H1490 0.951 . S
C1508 C1509 1.366 . S
C1508 C1510 1.388 . S
C1509 C1508 1.366 . S
C1509 C1513 1.385 . S
C1510 H1491 0.951 . S
C1510 C1508 1.388 . S
C1510 C1511 1.366 . S
C1511 C1510 1.366 . S
C1511 C1512 1.414 . S
C1511 C1514 1.499 . S
C1512 H1492 0.950 . S
C1512 C1511 1.414 . S
C1512 C1513 1.374 . S
C1513 H1493 0.950 . S
C1513 C1509 1.385 . S
C1513 C1512 1.374 . S
C1514 C1511 1.499 . S
C1514 C1515 1.373 . S
C1514 C1516 1.389 . S
C1515 H1494 0.950 . S
C1515 C1514 1.373 . S
C1515 C1531 1.377 . S
C1516 C1514 1.389 . S
C1516 C1517 1.524 . S
C1516 C1530 1.377 . S
C1517 C1516 1.524 . S
C1517 C1518 1.397 . S
C1517 C1522 1.363 . S
C1518 H1495 0.950 . S
C1518 C1517 1.397 . S
C1518 C1519 1.334 . S
C1519 H1496 0.950 . S
C1519 C1518 1.334 . S
C1519 C1520 1.287 . S
C1520 C1519 1.287 . S
C1520 C1521 1.524 . S
C1520 H1539 0.913 . S
C1521 H1497 0.950 . S
C1521 C1520 1.524 . S
C1521 C1522 1.415 . S
C1522 H1498 0.950 . S
C1522 C1517 1.363 . S
C1522 C1521 1.415 . S
C1523 H1499 0.951 . S
C1523 C1524 1.366 . S
C1523 C1525 1.388 . S
C1524 C1523 1.366 . S
C1524 C1528 1.385 . S
C1525 H1500 0.951 . S
C1525 C1523 1.388 . S
C1525 C1526 1.366 . S
C1526 C1525 1.366 . S
C1526 C1527 1.414 . S
C1526 C1529 1.499 . S
C1527 H1501 0.950 . S
C1527 C1526 1.414 . S
C1527 C1528 1.374 . S
C1528 H1502 0.950 . S
C1528 C1524 1.385 . S
C1528 C1527 1.374 . S
C1529 C1526 1.499 . S
C1529 C1530 1.373 . S
C1529 C1531 1.389 . S
C1530 H1503 0.950 . S
C1530 C1516 1.377 . S
C1530 C1529 1.373 . S
C1531 C1515 1.377 . S
C1531 C1529 1.389 . S
C1531 C1532 1.524 . S
C1532 C1531 1.524 . S
C1532 C1533 1.397 . S
C1532 C1537 1.363 . S
C1533 H1504 0.950 . S
C1533 C1532 1.397 . S
C1533 C1534 1.334 . S
C1534 H1505 0.950 . S
C1534 C1533 1.334 . S
C1534 C1535 1.287 . S
C1535 C1534 1.287 . S
C1535 C1536 1.524 . S
C1535 H1538 0.999 . S
C1536 H1506 0.950 . S
C1536 C1535 1.524 . S
C1536 C1537 1.415 . S
C1537 H1507 0.950 . S
C1537 C1532 1.363 . S
C1537 C1536 1.415 . S
H1538 C1535 0.999 . S
H1539 C1520 0.913 . S
H1540 C1558 0.951 . S
H1541 C1560 0.951 . S
H1542 C1562 0.950 . S
H1543 C1563 0.950 . S
H1544 C1565 0.950 . S
H1545 C1568 0.950 . S
H1546 C1569 0.950 . S
H1547 C1571 0.950 . S
H1548 C1572 0.950 . S
H1549 C1573 0.951 . S
H1550 C1575 0.951 . S
H1551 C1577 0.950 . S
H1552 C1578 0.950 . S
H1553 C1580 0.950 . S
H1554 C1583 0.950 . S
H1555 C1584 0.950 . S
H1556 C1586 0.950 . S
H1557 C1587 0.950 . S
C1558 H1540 0.951 . S
C1558 C1559 1.366 . S
C1558 C1560 1.388 . S
C1559 C1558 1.366 . S
C1559 C1563 1.385 . S
C1560 H1541 0.951 . S
C1560 C1558 1.388 . S
C1560 C1561 1.366 . S
C1561 C1560 1.366 . S
C1561 C1562 1.414 . S
C1561 C1564 1.499 . S
C1562 H1542 0.950 . S
C1562 C1561 1.414 . S
C1562 C1563 1.374 . S
C1563 H1543 0.950 . S
C1563 C1559 1.385 . S
C1563 C1562 1.374 . S
C1564 C1561 1.499 . S
C1564 C1565 1.373 . S
C1564 C1566 1.389 . S
C1565 H1544 0.950 . S
C1565 C1564 1.373 . S
C1565 C1581 1.377 . S
C1566 C1564 1.389 . S
C1566 C1567 1.524 . S
C1566 C1580 1.377 . S
C1567 C1566 1.524 . S
C1567 C1568 1.397 . S
C1567 C1572 1.363 . S
C1568 H1545 0.950 . S
C1568 C1567 1.397 . S
C1568 C1569 1.334 . S
C1569 H1546 0.950 . S
C1569 C1568 1.334 . S
C1569 C1570 1.287 . S
C1570 C1569 1.287 . S
C1570 C1571 1.524 . S
C1570 H1589 0.913 . S
C1571 H1547 0.950 . S
C1571 C1570 1.524 . S
C1571 C1572 1.415 . S
C1572 H1548 0.950 . S
C1572 C1567 1.363 . S
C1572 C1571 1.415 . S
C1573 H1549 0.951 . S
C1573 C1574 1.366 . S
C1573 C1575 1.388 . S
C1574 C1573 1.366 . S
C1574 C1578 1.385 . S
C1575 H1550 0.951 . S
C1575 C1573 1.388 . S
C1575 C1576 1.366 . S
C1576 C1575 1.366 . S
C1576 C1577 1.414 . S
C1576 C1579 1.499 . S
C1577 H1551 0.950 . S
C1577 C1576 1.414 . S
C1577 C1578 1.374 . S
C1578 H1552 0.950 . S
C1578 C1574 1.385 . S
C1578 C1577 1.374 . S
C1579 C1576 1.499 . S
C1579 C1580 1.373 . S
C1579 C1581 1.389 . S
C1580 H1553 0.950 . S
C1580 C1566 1.377 . S
C1580 C1579 1.373 . S
C1581 C1565 1.377 . S
C1581 C1579 1.389 . S
C1581 C1582 1.524 . S
C1582 C1581 1.524 . S
C1582 C1583 1.397 . S
C1582 C1587 1.363 . S
C1583 H1554 0.950 . S
C1583 C1582 1.397 . S
C1583 C1584 1.334 . S
C1584 H1555 0.950 . S
C1584 C1583 1.334 . S
C1584 C1585 1.287 . S
C1585 C1584 1.287 . S
C1585 C1586 1.524 . S
C1585 H1588 0.999 . S
C1586 H1556 0.950 . S
C1586 C1585 1.524 . S
C1586 C1587 1.415 . S
C1587 H1557 0.950 . S
C1587 C1582 1.363 . S
C1587 C1586 1.415 . S
H1588 C1585 0.999 . S
H1589 C1570 0.913 . S
H1590 C1608 0.951 . S
H1591 C1610 0.951 . S
H1592 C1612 0.950 . S
H1593 C1613 0.950 . S
H1594 C1615 0.950 . S
H1595 C1618 0.950 . S
H1596 C1619 0.950 . S
H1597 C1621 0.950 . S
H1598 C1622 0.950 . S
H1599 C1623 0.951 . S
H1600 C1625 0.951 . S
H1601 C1627 0.950 . S
H1602 C1628 0.950 . S
H1603 C1630 0.950 . S
H1604 C1633 0.950 . S
H1605 C1634 0.950 . S
H1606 C1636 0.950 . S
H1607 C1637 0.950 . S
C1608 H1590 0.951 . S
C1608 C1609 1.366 . S
C1608 C1610 1.388 . S
C1609 C1608 1.366 . S
C1609 C1613 1.385 . S
C1610 H1591 0.951 . S
C1610 C1608 1.388 . S
C1610 C1611 1.366 . S
C1611 C1610 1.366 . S
C1611 C1612 1.414 . S
C1611 C1614 1.499 . S
C1612 H1592 0.950 . S
C1612 C1611 1.414 . S
C1612 C1613 1.374 . S
C1613 H1593 0.950 . S
C1613 C1609 1.385 . S
C1613 C1612 1.374 . S
C1614 C1611 1.499 . S
C1614 C1615 1.373 . S
C1614 C1616 1.389 . S
C1615 H1594 0.950 . S
C1615 C1614 1.373 . S
C1615 C1631 1.377 . S
C1616 C1614 1.389 . S
C1616 C1617 1.524 . S
C1616 C1630 1.377 . S
C1617 C1616 1.524 . S
C1617 C1618 1.397 . S
C1617 C1622 1.363 . S
C1618 H1595 0.950 . S
C1618 C1617 1.397 . S
C1618 C1619 1.334 . S
C1619 H1596 0.950 . S
C1619 C1618 1.334 . S
C1619 C1620 1.287 . S
C1620 C1619 1.287 . S
C1620 C1621 1.524 . S
C1620 H1639 0.913 . S
C1621 H1597 0.950 . S
C1621 C1620 1.524 . S
C1621 C1622 1.415 . S
C1622 H1598 0.950 . S
C1622 C1617 1.363 . S
C1622 C1621 1.415 . S
C1623 H1599 0.951 . S
C1623 C1624 1.366 . S
C1623 C1625 1.388 . S
C1624 C1623 1.366 . S
C1624 C1628 1.385 . S
C1625 H1600 0.951 . S
C1625 C1623 1.388 . S
C1625 C1626 1.366 . S
C1626 C1625 1.366 . S
C1626 C1627 1.414 . S
C1626 C1629 1.499 . S
C1627 H1601 0.950 . S
C1627 C1626 1.414 . S
C1627 C1628 1.374 . S
C1628 H1602 0.950 . S
C1628 C1624 1.385 . S
C1628 C1627 1.374 . S
C1629 C1626 1.499 . S
C1629 C1630 1.373 . S
C1629 C1631 1.389 . S
C1630 H1603 0.950 . S
C1630 C1616 1.377 . S
C1630 C1629 1.373 . S
C1631 C1615 1.377 . S
C1631 C1629 1.389 . S
C1631 C1632 1.524 . S
C1632 C1631 1.524 . S
C1632 C1633 1.397 . S
C1632 C1637 1.363 . S
C1633 H1604 0.950 . S
C1633 C1632 1.397 . S
C1633 C1634 1.334 . S
C1634 H1605 0.950 . S
C1634 C1633 1.334 . S
C1634 C1635 1.287 . S
C1635 C1634 1.287 . S
C1635 C1636 1.524 . S
C1635 H1638 0.999 . S
C1636 H1606 0.950 . S
C1636 C1635 1.524 . S
C1636 C1637 1.415 . S
C1637 H1607 0.950 . S
C1637 C1632 1.363 . S
C1637 C1636 1.415 . S
H1638 C1635 0.999 . S
H1639 C1620 0.913 . S
H1640 C1658 0.951 . S
H1641 C1660 0.951 . S
H1642 C1662 0.950 . S
H1643 C1663 0.950 . S
H1644 C1665 0.950 . S
H1645 C1668 0.950 . S
H1646 C1669 0.950 . S
H1647 C1671 0.950 . S
H1648 C1672 0.950 . S
H1649 C1673 0.951 . S
H1650 C1675 0.951 . S
H1651 C1677 0.950 . S
H1652 C1678 0.950 . S
H1653 C1680 0.950 . S
H1654 C1683 0.950 . S
H1655 C1684 0.950 . S
H1656 C1686 0.950 . S
H1657 C1687 0.950 . S
C1658 H1640 0.951 . S
C1658 C1659 1.366 . S
C1658 C1660 1.388 . S
C1659 C1658 1.366 . S
C1659 C1663 1.385 . S
C1660 H1641 0.951 . S
C1660 C1658 1.388 . S
C1660 C1661 1.366 . S
C1661 C1660 1.366 . S
C1661 C1662 1.414 . S
C1661 C1664 1.499 . S
C1662 H1642 0.950 . S
C1662 C1661 1.414 . S
C1662 C1663 1.374 . S
C1663 H1643 0.950 . S
C1663 C1659 1.385 . S
C1663 C1662 1.374 . S
C1664 C1661 1.499 . S
C1664 C1665 1.373 . S
C1664 C1666 1.389 . S
C1665 H1644 0.950 . S
C1665 C1664 1.373 . S
C1665 C1681 1.377 . S
C1666 C1664 1.389 . S
C1666 C1667 1.524 . S
C1666 C1680 1.377 . S
C1667 C1666 1.524 . S
C1667 C1668 1.397 . S
C1667 C1672 1.363 . S
C1668 H1645 0.950 . S
C1668 C1667 1.397 . S
C1668 C1669 1.334 . S
C1669 H1646 0.950 . S
C1669 C1668 1.334 . S
C1669 C1670 1.287 . S
C1670 C1669 1.287 . S
C1670 C1671 1.524 . S
C1670 H1689 0.913 . S
C1671 H1647 0.950 . S
C1671 C1670 1.524 . S
C1671 C1672 1.415 . S
C1672 H1648 0.950 . S
C1672 C1667 1.363 . S
C1672 C1671 1.415 . S
C1673 H1649 0.951 . S
C1673 C1674 1.366 . S
C1673 C1675 1.388 . S
C1674 C1673 1.366 . S
C1674 C1678 1.385 . S
C1675 H1650 0.951 . S
C1675 C1673 1.388 . S
C1675 C1676 1.366 . S
C1676 C1675 1.366 . S
C1676 C1677 1.414 . S
C1676 C1679 1.499 . S
C1677 H1651 0.950 . S
C1677 C1676 1.414 . S
C1677 C1678 1.374 . S
C1678 H1652 0.950 . S
C1678 C1674 1.385 . S
C1678 C1677 1.374 . S
C1679 C1676 1.499 . S
C1679 C1680 1.373 . S
C1679 C1681 1.389 . S
C1680 H1653 0.950 . S
C1680 C1666 1.377 . S
C1680 C1679 1.373 . S
C1681 C1665 1.377 . S
C1681 C1679 1.389 . S
C1681 C1682 1.524 . S
C1682 C1681 1.524 . S
C1682 C1683 1.397 . S
C1682 C1687 1.363 . S
C1683 H1654 0.950 . S
C1683 C1682 1.397 . S
C1683 C1684 1.334 . S
C1684 H1655 0.950 . S
C1684 C1683 1.334 . S
C1684 C1685 1.287 . S
C1685 C1684 1.287 . S
C1685 C1686 1.524 . S
C1685 H1688 0.999 . S
C1686 H1656 0.950 . S
C1686 C1685 1.524 . S
C1686 C1687 1.415 . S
C1687 H1657 0.950 . S
C1687 C1682 1.363 . S
C1687 C1686 1.415 . S
H1688 C1685 0.999 . S
H1689 C1670 0.913 . S
H1690 C1708 0.951 . S
H1691 C1710 0.951 . S
H1692 C1712 0.950 . S
H1693 C1713 0.950 . S
H1694 C1715 0.950 . S
H1695 C1718 0.950 . S
H1696 C1719 0.950 . S
H1697 C1721 0.950 . S
H1698 C1722 0.950 . S
H1699 C1723 0.951 . S
H1700 C1725 0.951 . S
H1701 C1727 0.950 . S
H1702 C1728 0.950 . S
H1703 C1730 0.950 . S
H1704 C1733 0.950 . S
H1705 C1734 0.950 . S
H1706 C1736 0.950 . S
H1707 C1737 0.950 . S
C1708 H1690 0.951 . S
C1708 C1709 1.366 . S
C1708 C1710 1.388 . S
C1709 C1708 1.366 . S
C1709 C1713 1.385 . S
C1710 H1691 0.951 . S
C1710 C1708 1.388 . S
C1710 C1711 1.366 . S
C1711 C1710 1.366 . S
C1711 C1712 1.414 . S
C1711 C1714 1.499 . S
C1712 H1692 0.950 . S
C1712 C1711 1.414 . S
C1712 C1713 1.374 . S
C1713 H1693 0.950 . S
C1713 C1709 1.385 . S
C1713 C1712 1.374 . S
C1714 C1711 1.499 . S
C1714 C1715 1.373 . S
C1714 C1716 1.389 . S
C1715 H1694 0.950 . S
C1715 C1714 1.373 . S
C1715 C1731 1.377 . S
C1716 C1714 1.389 . S
C1716 C1717 1.524 . S
C1716 C1730 1.377 . S
C1717 C1716 1.524 . S
C1717 C1718 1.397 . S
C1717 C1722 1.363 . S
C1718 H1695 0.950 . S
C1718 C1717 1.397 . S
C1718 C1719 1.334 . S
C1719 H1696 0.950 . S
C1719 C1718 1.334 . S
C1719 C1720 1.287 . S
C1720 C1719 1.287 . S
C1720 C1721 1.524 . S
C1720 H1739 0.913 . S
C1721 H1697 0.950 . S
C1721 C1720 1.524 . S
C1721 C1722 1.415 . S
C1722 H1698 0.950 . S
C1722 C1717 1.363 . S
C1722 C1721 1.415 . S
C1723 H1699 0.951 . S
C1723 C1724 1.366 . S
C1723 C1725 1.388 . S
C1724 C1723 1.366 . S
C1724 C1728 1.385 . S
C1725 H1700 0.951 . S
C1725 C1723 1.388 . S
C1725 C1726 1.366 . S
C1726 C1725 1.366 . S
C1726 C1727 1.414 . S
C1726 C1729 1.499 . S
C1727 H1701 0.950 . S
C1727 C1726 1.414 . S
C1727 C1728 1.374 . S
C1728 H1702 0.950 . S
C1728 C1724 1.385 . S
C1728 C1727 1.374 . S
C1729 C1726 1.499 . S
C1729 C1730 1.373 . S
C1729 C1731 1.389 . S
C1730 H1703 0.950 . S
C1730 C1716 1.377 . S
C1730 C1729 1.373 . S
C1731 C1715 1.377 . S
C1731 C1729 1.389 . S
C1731 C1732 1.524 . S
C1732 C1731 1.524 . S
C1732 C1733 1.397 . S
C1732 C1737 1.363 . S
C1733 H1704 0.950 . S
C1733 C1732 1.397 . S
C1733 C1734 1.334 . S
C1734 H1705 0.950 . S
C1734 C1733 1.334 . S
C1734 C1735 1.287 . S
C1735 C1734 1.287 . S
C1735 C1736 1.524 . S
C1735 H1738 0.999 . S
C1736 H1706 0.950 . S
C1736 C1735 1.524 . S
C1736 C1737 1.415 . S
C1737 H1707 0.950 . S
C1737 C1732 1.363 . S
C1737 C1736 1.415 . S
H1738 C1735 0.999 . S
H1739 C1720 0.913 . S
H1740 C1758 0.951 . S
H1741 C1760 0.951 . S
H1742 C1762 0.950 . S
H1743 C1763 0.950 . S
H1744 C1765 0.950 . S
H1745 C1768 0.950 . S
H1746 C1769 0.950 . S
H1747 C1771 0.950 . S
H1748 C1772 0.950 . S
H1749 C1773 0.951 . S
H1750 C1775 0.951 . S
H1751 C1777 0.950 . S
H1752 C1778 0.950 . S
H1753 C1780 0.950 . S
H1754 C1783 0.950 . S
H1755 C1784 0.950 . S
H1756 C1786 0.950 . S
H1757 C1787 0.950 . S
C1758 H1740 0.951 . S
C1758 C1759 1.366 . S
C1758 C1760 1.388 . S
C1759 C1758 1.366 . S
C1759 C1763 1.385 . S
C1760 H1741 0.951 . S
C1760 C1758 1.388 . S
C1760 C1761 1.366 . S
C1761 C1760 1.366 . S
C1761 C1762 1.414 . S
C1761 C1764 1.499 . S
C1762 H1742 0.950 . S
C1762 C1761 1.414 . S
C1762 C1763 1.374 . S
C1763 H1743 0.950 . S
C1763 C1759 1.385 . S
C1763 C1762 1.374 . S
C1764 C1761 1.499 . S
C1764 C1765 1.373 . S
C1764 C1766 1.389 . S
C1765 H1744 0.950 . S
C1765 C1764 1.373 . S
C1765 C1781 1.377 . S
C1766 C1764 1.389 . S
C1766 C1767 1.524 . S
C1766 C1780 1.377 . S
C1767 C1766 1.524 . S
C1767 C1768 1.397 . S
C1767 C1772 1.363 . S
C1768 H1745 0.950 . S
C1768 C1767 1.397 . S
C1768 C1769 1.334 . S
C1769 H1746 0.950 . S
C1769 C1768 1.334 . S
C1769 C1770 1.287 . S
C1770 C1769 1.287 . S
C1770 C1771 1.524 . S
C1770 H1789 0.913 . S
C1771 H1747 0.950 . S
C1771 C1770 1.524 . S
C1771 C1772 1.415 . S
C1772 H1748 0.950 . S
C1772 C1767 1.363 . S
C1772 C1771 1.415 . S
C1773 H1749 0.951 . S
C1773 C1774 1.366 . S
C1773 C1775 1.388 . S
C1774 C1773 1.366 . S
C1774 C1778 1.385 . S
C1775 H1750 0.951 . S
C1775 C1773 1.388 . S
C1775 C1776 1.366 . S
C1776 C1775 1.366 . S
C1776 C1777 1.414 . S
C1776 C1779 1.499 . S
C1777 H1751 0.950 . S
C1777 C1776 1.414 . S
C1777 C1778 1.374 . S
C1778 H1752 0.950 . S
C1778 C1774 1.385 . S
C1778 C1777 1.374 . S
C1779 C1776 1.499 . S
C1779 C1780 1.373 . S
C1779 C1781 1.389 . S
C1780 H1753 0.950 . S
C1780 C1766 1.377 . S
C1780 C1779 1.373 . S
C1781 C1765 1.377 . S
C1781 C1779 1.389 . S
C1781 C1782 1.524 . S
C1782 C1781 1.524 . S
C1782 C1783 1.397 . S
C1782 C1787 1.363 . S
C1783 H1754 0.950 . S
C1783 C1782 1.397 . S
C1783 C1784 1.334 . S
C1784 H1755 0.950 . S
C1784 C1783 1.334 . S
C1784 C1785 1.287 . S
C1785 C1784 1.287 . S
C1785 C1786 1.524 . S
C1785 H1788 0.999 . S
C1786 H1756 0.950 . S
C1786 C1785 1.524 . S
C1786 C1787 1.415 . S
C1787 H1757 0.950 . S
C1787 C1782 1.363 . S
C1787 C1786 1.415 . S
H1788 C1785 0.999 . S
H1789 C1770 0.913 . S
H1790 C1808 0.951 . S
H1791 C1810 0.951 . S
H1792 C1812 0.950 . S
H1793 C1813 0.950 . S
H1794 C1815 0.950 . S
H1795 C1818 0.950 . S
H1796 C1819 0.950 . S
H1797 C1821 0.950 . S
H1798 C1822 0.950 . S
H1799 C1823 0.951 . S
H1800 C1825 0.951 . S
H1801 C1827 0.950 . S
H1802 C1828 0.950 . S
H1803 C1830 0.950 . S
H1804 C1833 0.950 . S
H1805 C1834 0.950 . S
H1806 C1836 0.950 . S
H1807 C1837 0.950 . S
C1808 H1790 0.951 . S
C1808 C1809 1.366 . S
C1808 C1810 1.388 . S
C1809 C1808 1.366 . S
C1809 C1813 1.385 . S
C1810 H1791 0.951 . S
C1810 C1808 1.388 . S
C1810 C1811 1.366 . S
C1811 C1810 1.366 . S
C1811 C1812 1.414 . S
C1811 C1814 1.499 . S
C1812 H1792 0.950 . S
C1812 C1811 1.414 . S
C1812 C1813 1.374 . S
C1813 H1793 0.950 . S
C1813 C1809 1.385 . S
C1813 C1812 1.374 . S
C1814 C1811 1.499 . S
C1814 C1815 1.373 . S
C1814 C1816 1.389 . S
C1815 H1794 0.950 . S
C1815 C1814 1.373 . S
C1815 C1831 1.377 . S
C1816 C1814 1.389 . S
C1816 C1817 1.524 . S
C1816 C1830 1.377 . S
C1817 C1816 1.524 . S
C1817 C1818 1.397 . S
C1817 C1822 1.363 . S
C1818 H1795 0.950 . S
C1818 C1817 1.397 . S
C1818 C1819 1.334 . S
C1819 H1796 0.950 . S
C1819 C1818 1.334 . S
C1819 C1820 1.287 . S
C1820 C1819 1.287 . S
C1820 C1821 1.524 . S
C1820 H1839 0.913 . S
C1821 H1797 0.950 . S
C1821 C1820 1.524 . S
C1821 C1822 1.415 . S
C1822 H1798 0.950 . S
C1822 C1817 1.363 . S
C1822 C1821 1.415 . S
C1823 H1799 0.951 . S
C1823 C1824 1.366 . S
C1823 C1825 1.388 . S
C1824 C1823 1.366 . S
C1824 C1828 1.385 . S
C1825 H1800 0.951 . S
C1825 C1823 1.388 . S
C1825 C1826 1.366 . S
C1826 C1825 1.366 . S
C1826 C1827 1.414 . S
C1826 C1829 1.499 . S
C1827 H1801 0.950 . S
C1827 C1826 1.414 . S
C1827 C1828 1.374 . S
C1828 H1802 0.950 . S
C1828 C1824 1.385 . S
C1828 C1827 1.374 . S
C1829 C1826 1.499 . S
C1829 C1830 1.373 . S
C1829 C1831 1.389 . S
C1830 H1803 0.950 . S
C1830 C1816 1.377 . S
C1830 C1829 1.373 . S
C1831 C1815 1.377 . S
C1831 C1829 1.389 . S
C1831 C1832 1.524 . S
C1832 C1831 1.524 . S
C1832 C1833 1.397 . S
C1832 C1837 1.363 . S
C1833 H1804 0.950 . S
C1833 C1832 1.397 . S
C1833 C1834 1.334 . S
C1834 H1805 0.950 . S
C1834 C1833 1.334 . S
C1834 C1835 1.287 . S
C1835 C1834 1.287 . S
C1835 C1836 1.524 . S
C1835 H1838 0.999 . S
C1836 H1806 0.950 . S
C1836 C1835 1.524 . S
C1836 C1837 1.415 . S
C1837 H1807 0.950 . S
C1837 C1832 1.363 . S
C1837 C1836 1.415 . S
H1838 C1835 0.999 . S
H1839 C1820 0.913 . S
H1840 C1858 0.951 . S
H1841 C1860 0.951 . S
H1842 C1862 0.950 . S
H1843 C1863 0.950 . S
H1844 C1865 0.950 . S
H1845 C1868 0.950 . S
H1846 C1869 0.950 . S
H1847 C1871 0.950 . S
H1848 C1872 0.950 . S
H1849 C1873 0.951 . S
H1850 C1875 0.951 . S
H1851 C1877 0.950 . S
H1852 C1878 0.950 . S
H1853 C1880 0.950 . S
H1854 C1883 0.950 . S
H1855 C1884 0.950 . S
H1856 C1886 0.950 . S
H1857 C1887 0.950 . S
C1858 H1840 0.951 . S
C1858 C1859 1.366 . S
C1858 C1860 1.388 . S
C1859 C1858 1.366 . S
C1859 C1863 1.385 . S
C1860 H1841 0.951 . S
C1860 C1858 1.388 . S
C1860 C1861 1.366 . S
C1861 C1860 1.366 . S
C1861 C1862 1.414 . S
C1861 C1864 1.499 . S
C1862 H1842 0.950 . S
C1862 C1861 1.414 . S
C1862 C1863 1.374 . S
C1863 H1843 0.950 . S
C1863 C1859 1.385 . S
C1863 C1862 1.374 . S
C1864 C1861 1.499 . S
C1864 C1865 1.373 . S
C1864 C1866 1.389 . S
C1865 H1844 0.950 . S
C1865 C1864 1.373 . S
C1865 C1881 1.377 . S
C1866 C1864 1.389 . S
C1866 C1867 1.524 . S
C1866 C1880 1.377 . S
C1867 C1866 1.524 . S
C1867 C1868 1.397 . S
C1867 C1872 1.363 . S
C1868 H1845 0.950 . S
C1868 C1867 1.397 . S
C1868 C1869 1.334 . S
C1869 H1846 0.950 . S
C1869 C1868 1.334 . S
C1869 C1870 1.287 . S
C1870 C1869 1.287 . S
C1870 C1871 1.524 . S
C1870 H1889 0.913 . S
C1871 H1847 0.950 . S
C1871 C1870 1.524 . S
C1871 C1872 1.415 . S
C1872 H1848 0.950 . S
C1872 C1867 1.363 . S
C1872 C1871 1.415 . S
C1873 H1849 0.951 . S
C1873 C1874 1.366 . S
C1873 C1875 1.388 . S
C1874 C1873 1.366 . S
C1874 C1878 1.385 . S
C1875 H1850 0.951 . S
C1875 C1873 1.388 . S
C1875 C1876 1.366 . S
C1876 C1875 1.366 . S
C1876 C1877 1.414 . S
C1876 C1879 1.499 . S
C1877 H1851 0.950 . S
C1877 C1876 1.414 . S
C1877 C1878 1.374 . S
C1878 H1852 0.950 . S
C1878 C1874 1.385 . S
C1878 C1877 1.374 . S
C1879 C1876 1.499 . S
C1879 C1880 1.373 . S
C1879 C1881 1.389 . S
C1880 H1853 0.950 . S
C1880 C1866 1.377 . S
C1880 C1879 1.373 . S
C1881 C1865 1.377 . S
C1881 C1879 1.389 . S
C1881 C1882 1.524 . S
C1882 C1881 1.524 . S
C1882 C1883 1.397 . S
C1882 C1887 1.363 . S
C1883 H1854 0.950 . S
C1883 C1882 1.397 . S
C1883 C1884 1.334 . S
C1884 H1855 0.950 . S
C1884 C1883 1.334 . S
C1884 C1885 1.287 . S
C1885 C1884 1.287 . S
C1885 C1886 1.524 . S
C1885 H1888 0.999 . S
C1886 H1856 0.950 . S
C1886 C1885 1.524 . S
C1886 C1887 1.415 . S
C1887 H1857 0.950 . S
C1887 C1882 1.363 . S
C1887 C1886 1.415 . S
H1888 C1885 0.999 . S
H1889 C1870 0.913 . S
H1890 C1908 0.951 . S
H1891 C1910 0.951 . S
H1892 C1912 0.950 . S
H1893 C1913 0.950 . S
H1894 C1915 0.950 . S
H1895 C1918 0.950 . S
H1896 C1919 0.950 . S
H1897 C1921 0.950 . S
H1898 C1922 0.950 . S
H1899 C1923 0.951 . S
H1900 C1925 0.951 . S
H1901 C1927 0.950 . S
H1902 C1928 0.950 . S
H1903 C1930 0.950 . S
H1904 C1933 0.950 . S
H1905 C1934 0.950 . S
H1906 C1936 0.950 . S
H1907 C1937 0.950 . S
C1908 H1890 0.951 . S
C1908 C1909 1.366 . S
C1908 C1910 1.388 . S
C1909 C1908 1.366 . S
C1909 C1913 1.385 . S
C1910 H1891 0.951 . S
C1910 C1908 1.388 . S
C1910 C1911 1.366 . S
C1911 C1910 1.366 . S
C1911 C1912 1.414 . S
C1911 C1914 1.499 . S
C1912 H1892 0.950 . S
C1912 C1911 1.414 . S
C1912 C1913 1.374 . S
C1913 H1893 0.950 . S
C1913 C1909 1.385 . S
C1913 C1912 1.374 . S
C1914 C1911 1.499 . S
C1914 C1915 1.373 . S
C1914 C1916 1.389 . S
C1915 H1894 0.950 . S
C1915 C1914 1.373 . S
C1915 C1931 1.377 . S
C1916 C1914 1.389 . S
C1916 C1917 1.524 . S
C1916 C1930 1.377 . S
C1917 C1916 1.524 . S
C1917 C1918 1.397 . S
C1917 C1922 1.363 . S
C1918 H1895 0.950 . S
C1918 C1917 1.397 . S
C1918 C1919 1.334 . S
C1919 H1896 0.950 . S
C1919 C1918 1.334 . S
C1919 C1920 1.287 . S
C1920 C1919 1.287 . S
C1920 C1921 1.524 . S
C1920 H1939 0.913 . S
C1921 H1897 0.950 . S
C1921 C1920 1.524 . S
C1921 C1922 1.415 . S
C1922 H1898 0.950 . S
C1922 C1917 1.363 . S
C1922 C1921 1.415 . S
C1923 H1899 0.951 . S
C1923 C1924 1.366 . S
C1923 C1925 1.388 . S
C1924 C1923 1.366 . S
C1924 C1928 1.385 . S
C1925 H1900 0.951 . S
C1925 C1923 1.388 . S
C1925 C1926 1.366 . S
C1926 C1925 1.366 . S
C1926 C1927 1.414 . S
C1926 C1929 1.499 . S
C1927 H1901 0.950 . S
C1927 C1926 1.414 . S
C1927 C1928 1.374 . S
C1928 H1902 0.950 . S
C1928 C1924 1.385 . S
C1928 C1927 1.374 . S
C1929 C1926 1.499 . S
C1929 C1930 1.373 . S
C1929 C1931 1.389 . S
C1930 H1903 0.950 . S
C1930 C1916 1.377 . S
C1930 C1929 1.373 . S
C1931 C1915 1.377 . S
C1931 C1929 1.389 . S
C1931 C1932 1.524 . S
C1932 C1931 1.524 . S
C1932 C1933 1.397 . S
C1932 C1937 1.363 . S
C1933 H1904 0.950 . S
C1933 C1932 1.397 . S
C1933 C1934 1.334 . S
C1934 H1905 0.950 . S
C1934 C1933 1.334 . S
C1934 C1935 1.287 . S
C1935 C1934 1.287 . S
C1935 C1936 1.524 . S
C1935 H1938 0.999 . S
C1936 H1906 0.950 . S
C1936 C1935 1.524 . S
C1936 C1937 1.415 . S
C1937 H1907 0.950 . S
C1937 C1932 1.363 . S
C1937 C1936 1.415 . S
H1938 C1935 0.999 . S
H1939 C1920 0.913 . S
H1940 C1958 0.951 . S
H1941 C1960 0.951 . S
H1942 C1962 0.950 . S
H1943 C1963 0.950 . S
H1944 C1965 0.950 . S
H1945 C1968 0.950 . S
H1946 C1969 0.950 . S
H1947 C1971 0.950 . S
H1948 C1972 0.950 . S
H1949 C1973 0.951 . S
H1950 C1975 0.951 . S
H1951 C1977 0.950 . S
H1952 C1978 0.950 . S
H1953 C1980 0.950 . S
H1954 C1983 0.950 . S
H1955 C1984 0.950 . S
H1956 C1986 0.950 . S
H1957 C1987 0.950 . S
C1958 H1940 0.951 . S
C1958 C1959 1.366 . S
C1958 C1960 1.388 . S
C1959 C1958 1.366 . S
C1959 C1963 1.385 . S
C1960 H1941 0.951 . S
C1960 C1958 1.388 . S
C1960 C1961 1.366 . S
C1961 C1960 1.366 . S
C1961 C1962 1.414 . S
C1961 C1964 1.499 . S
C1962 H1942 0.950 . S
C1962 C1961 1.414 . S
C1962 C1963 1.374 . S
C1963 H1943 0.950 . S
C1963 C1959 1.385 . S
C1963 C1962 1.374 . S
C1964 C1961 1.499 . S
C1964 C1965 1.373 . S
C1964 C1966 1.389 . S
C1965 H1944 0.950 . S
C1965 C1964 1.373 . S
C1965 C1981 1.377 . S
C1966 C1964 1.389 . S
C1966 C1967 1.524 . S
C1966 C1980 1.377 . S
C1967 C1966 1.524 . S
C1967 C1968 1.397 . S
C1967 C1972 1.363 . S
C1968 H1945 0.950 . S
C1968 C1967 1.397 . S
C1968 C1969 1.334 . S
C1969 H1946 0.950 . S
C1969 C1968 1.334 . S
C1969 C1970 1.287 . S
C1970 C1969 1.287 . S
C1970 C1971 1.524 . S
C1970 H1989 0.913 . S
C1971 H1947 0.950 . S
C1971 C1970 1.524 . S
C1971 C1972 1.415 . S
C1972 H1948 0.950 . S
C1972 C1967 1.363 . S
C1972 C1971 1.415 . S
C1973 H1949 0.951 . S
C1973 C1974 1.366 . S
C1973 C1975 1.388 . S
C1974 C1973 1.366 . S
C1974 C1978 1.385 . S
C1975 H1950 0.951 . S
C1975 C1973 1.388 . S
C1975 C1976 1.366 . S
C1976 C1975 1.366 . S
C1976 C1977 1.414 . S
C1976 C1979 1.499 . S
C1977 H1951 0.950 . S
C1977 C1976 1.414 . S
C1977 C1978 1.374 . S
C1978 H1952 0.950 . S
C1978 C1974 1.385 . S
C1978 C1977 1.374 . S
C1979 C1976 1.499 . S
C1979 C1980 1.373 . S
C1979 C1981 1.389 . S
C1980 H1953 0.950 . S
C1980 C1966 1.377 . S
C1980 C1979 1.373 . S
C1981 C1965 1.377 . S
C1981 C1979 1.389 . S
C1981 C1982 1.524 . S
C1982 C1981 1.524 . S
C1982 C1983 1.397 . S
C1982 C1987 1.363 . S
C1983 H1954 0.950 . S
C1983 C1982 1.397 . S
C1983 C1984 1.334 . S
C1984 H1955 0.950 . S
C1984 C1983 1.334 . S
C1984 C1985 1.287 . S
C1985 C1984 1.287 . S
C1985 C1986 1.524 . S
C1985 H1988 0.999 . S
C1986 H1956 0.950 . S
C1986 C1985 1.524 . S
C1986 C1987 1.415 . S
C1987 H1957 0.950 . S
C1987 C1982 1.363 . S
C1987 C1986 1.415 . S
H1988 C1985 0.999 . S
H1989 C1970 0.913 . S
H1990 C2008 0.951 . S
H1991 C2010 0.951 . S
H1992 C2012 0.950 . S
H1993 C2013 0.950 . S
H1994 C2015 0.950 . S
H1995 C2018 0.950 . S
H1996 C2019 0.950 . S
H1997 C2021 0.950 . S
H1998 C2022 0.950 . S
H1999 C2023 0.951 . S
H2000 C2025 0.951 . S
H2001 C2027 0.950 . S
H2002 C2028 0.950 . S
H2003 C2030 0.950 . S
H2004 C2033 0.950 . S
H2005 C2034 0.950 . S
H2006 C2036 0.950 . S
H2007 C2037 0.950 . S
C2008 H1990 0.951 . S
C2008 C2009 1.366 . S
C2008 C2010 1.388 . S
C2009 C2008 1.366 . S
C2009 C2013 1.385 . S
C2010 H1991 0.951 . S
C2010 C2008 1.388 . S
C2010 C2011 1.366 . S
C2011 C2010 1.366 . S
C2011 C2012 1.414 . S
C2011 C2014 1.499 . S
C2012 H1992 0.950 . S
C2012 C2011 1.414 . S
C2012 C2013 1.374 . S
C2013 H1993 0.950 . S
C2013 C2009 1.385 . S
C2013 C2012 1.374 . S
C2014 C2011 1.499 . S
C2014 C2015 1.373 . S
C2014 C2016 1.389 . S
C2015 H1994 0.950 . S
C2015 C2014 1.373 . S
C2015 C2031 1.377 . S
C2016 C2014 1.389 . S
C2016 C2017 1.524 . S
C2016 C2030 1.377 . S
C2017 C2016 1.524 . S
C2017 C2018 1.397 . S
C2017 C2022 1.363 . S
C2018 H1995 0.950 . S
C2018 C2017 1.397 . S
C2018 C2019 1.334 . S
C2019 H1996 0.950 . S
C2019 C2018 1.334 . S
C2019 C2020 1.287 . S
C2020 C2019 1.287 . S
C2020 C2021 1.524 . S
C2020 H2039 0.913 . S
C2021 H1997 0.950 . S
C2021 C2020 1.524 . S
C2021 C2022 1.415 . S
C2022 H1998 0.950 . S
C2022 C2017 1.363 . S
C2022 C2021 1.415 . S
C2023 H1999 0.951 . S
C2023 C2024 1.366 . S
C2023 C2025 1.388 . S
C2024 C2023 1.366 . S
C2024 C2028 1.385 . S
C2025 H2000 0.951 . S
C2025 C2023 1.388 . S
C2025 C2026 1.366 . S
C2026 C2025 1.366 . S
C2026 C2027 1.414 . S
C2026 C2029 1.499 . S
C2027 H2001 0.950 . S
C2027 C2026 1.414 . S
C2027 C2028 1.374 . S
C2028 H2002 0.950 . S
C2028 C2024 1.385 . S
C2028 C2027 1.374 . S
C2029 C2026 1.499 . S
C2029 C2030 1.373 . S
C2029 C2031 1.389 . S
C2030 H2003 0.950 . S
C2030 C2016 1.377 . S
C2030 C2029 1.373 . S
C2031 C2015 1.377 . S
C2031 C2029 1.389 . S
C2031 C2032 1.524 . S
C2032 C2031 1.524 . S
C2032 C2033 1.397 . S
C2032 C2037 1.363 . S
C2033 H2004 0.950 . S
C2033 C2032 1.397 . S
C2033 C2034 1.334 . S
C2034 H2005 0.950 . S
C2034 C2033 1.334 . S
C2034 C2035 1.287 . S
C2035 C2034 1.287 . S
C2035 C2036 1.524 . S
C2035 H2038 0.999 . S
C2036 H2006 0.950 . S
C2036 C2035 1.524 . S
C2036 C2037 1.415 . S
C2037 H2007 0.950 . S
C2037 C2032 1.363 . S
C2037 C2036 1.415 . S
H2038 C2035 0.999 . S
H2039 C2020 0.913 . S
C259 C49 0.997 . S
C274 C2 1.004 . S
C309 C72 0.998 . S
C324 C24 1.005 . S
C359 C42 1.006 . S
C374 C89 0.996 . S
C409 C64 1.005 . S
C424 C112 0.997 . S
C459 C9 0.997 . S
C474 C82 1.004 . S
C509 C32 0.997 . S
C524 C104 1.004 . S
C559 C212 0.996 . S
C574 C124 1.005 . S
C609 C142 1.006 . S
C624 C229 0.997 . S
C659 C164 1.006 . S
C674 C132 0.997 . S
C709 C182 1.004 . S
C724 C149 0.997 . S
C759 C204 1.006 . S
C774 C172 0.997 . S
C809 C189 0.997 . S
C824 C222 1.005 . S
C859 C78 1.785 . S
C874 C19 1.784 . S
C909 C38 1.785 . S
C924 C99 1.784 . S
C959 C59 1.784 . S
C974 C118 1.785 . S
C1009 C138 1.784 . S
C1024 C199 1.784 . S
C1059 C159 1.785 . S
C1074 C218 1.784 . S
C1109 C178 1.784 . S
C1124 C239 1.785 . S
C1159 C158 1.962 . S
C1174 C18 1.962 . S
C1209 C39 1.962 . S
C1224 C179 1.962 . S
C1259 C198 1.962 . S
C1274 C58 1.962 . S
C1309 C79 1.962 . S
C1324 C219 1.962 . S
C1359 C98 1.962 . S
C1374 C238 1.962 . S
C1409 C139 1.962 . S
C1424 C119 1.962 . S
C1459 C52 1.358 . S
C1474 C4 1.258 . S
C1509 C22 1.259 . S
C1524 C69 1.357 . S
C1559 C44 1.258 . S
C1574 C92 1.357 . S
C1609 C62 1.258 . S
C1624 C109 1.357 . S
C1659 C12 1.358 . S
C1674 C84 1.257 . S
C1709 C29 1.358 . S
C1724 C102 1.258 . S
C1759 C209 1.358 . S
C1774 C122 1.258 . S
C1809 C144 1.258 . S
C1824 C232 1.357 . S
C1859 C162 1.259 . S
C1874 C129 1.358 . S
C1909 C152 1.357 . S
C1924 C184 1.258 . S
C1959 C202 1.258 . S
C1974 C169 1.358 . S
C2009 C224 1.258 . S
C2024 C192 1.358 . S
