# Generated by pormake.
# Topology wse, (4)-cn, num edge types: 1
# Building blocks:
#     Node 0, Type 0, BuildingBlock: CEKHIL_clean_sbu_0, # of connection points: 4
#     Node 1, Type 0, BuildingBlock: CEKHIL_clean_sbu_0, # of connection points: 4
#     Node 2, Type 0, BuildingBlock: CEKHIL_clean_sbu_0, # of connection points: 4
#     Node 3, Type 0, BuildingBlock: CEKHIL_clean_sbu_0, # of connection points: 4
#     Node 4, Type 0, BuildingBlock: CEKHIL_clean_sbu_0, # of connection points: 4
#     Node 5, Type 0, BuildingBlock: CEKHIL_clean_sbu_0, # of connection points: 4
#     Node 6, Type 0, BuildingBlock: CEKHIL_clean_sbu_0, # of connection points: 4
#     Node 7, Type 0, BuildingBlock: CEKHIL_clean_sbu_0, # of connection points: 4
#     Node 8, Type 0, BuildingBlock: CEKHIL_clean_sbu_0, # of connection points: 4
#     Node 9, Type 0, BuildingBlock: CEKHIL_clean_sbu_0, # of connection points: 4
#     Node 10, Type 0, BuildingBlock: CEKHIL_clean_sbu_0, # of connection points: 4
#     Node 11, Type 0, BuildingBlock: CEKHIL_clean_sbu_0, # of connection points: 4
#     Node 12, Type 0, BuildingBlock: CEKHIL_clean_sbu_0, # of connection points: 4
#     Node 13, Type 0, BuildingBlock: CEKHIL_clean_sbu_0, # of connection points: 4
#     Node 14, Type 0, BuildingBlock: CEKHIL_clean_sbu_0, # of connection points: 4
#     Node 15, Type 0, BuildingBlock: CEKHIL_clean_sbu_0, # of connection points: 4
#     Node 16, Type 0, BuildingBlock: CEKHIL_clean_sbu_0, # of connection points: 4
#     Node 17, Type 0, BuildingBlock: CEKHIL_clean_sbu_0, # of connection points: 4
#     Node 18, Type 0, BuildingBlock: CEKHIL_clean_sbu_0, # of connection points: 4
#     Node 19, Type 0, BuildingBlock: CEKHIL_clean_sbu_0, # of connection points: 4
#     Node 20, Type 0, BuildingBlock: CEKHIL_clean_sbu_0, # of connection points: 4
#     Node 21, Type 0, BuildingBlock: CEKHIL_clean_sbu_0, # of connection points: 4
#     Node 22, Type 0, BuildingBlock: CEKHIL_clean_sbu_0, # of connection points: 4
#     Node 23, Type 0, BuildingBlock: CEKHIL_clean_sbu_0, # of connection points: 4
#     Node 24, Type 0, BuildingBlock: CEKHIL_clean_sbu_0, # of connection points: 4
#     Node 25, Type 0, BuildingBlock: CEKHIL_clean_sbu_0, # of connection points: 4
#     Node 26, Type 0, BuildingBlock: CEKHIL_clean_sbu_0, # of connection points: 4
#     Node 27, Type 0, BuildingBlock: CEKHIL_clean_sbu_0, # of connection points: 4
#     Node 28, Type 0, BuildingBlock: CEKHIL_clean_sbu_0, # of connection points: 4
#     Node 29, Type 0, BuildingBlock: CEKHIL_clean_sbu_0, # of connection points: 4
#     Node 30, Type 0, BuildingBlock: CEKHIL_clean_sbu_0, # of connection points: 4
#     Node 31, Type 0, BuildingBlock: CEKHIL_clean_sbu_0, # of connection points: 4
#     Node 32, Type 0, BuildingBlock: CEKHIL_clean_sbu_0, # of connection points: 4
#     Node 33, Type 0, BuildingBlock: CEKHIL_clean_sbu_0, # of connection points: 4
#     Node 34, Type 0, BuildingBlock: CEKHIL_clean_sbu_0, # of connection points: 4
#     Node 35, Type 0, BuildingBlock: CEKHIL_clean_sbu_0, # of connection points: 4
#     Node 36, Type 0, BuildingBlock: CEKHIL_clean_sbu_0, # of connection points: 4
#     Node 37, Type 0, BuildingBlock: CEKHIL_clean_sbu_0, # of connection points: 4
#     Node 38, Type 0, BuildingBlock: CEKHIL_clean_sbu_0, # of connection points: 4
#     Node 39, Type 0, BuildingBlock: CEKHIL_clean_sbu_0, # of connection points: 4
#     Node 40, Type 0, BuildingBlock: CEKHIL_clean_sbu_0, # of connection points: 4
#     Node 41, Type 0, BuildingBlock: CEKHIL_clean_sbu_0, # of connection points: 4
#     Node 42, Type 0, BuildingBlock: CEKHIL_clean_sbu_0, # of connection points: 4
#     Node 43, Type 0, BuildingBlock: CEKHIL_clean_sbu_0, # of connection points: 4
#     Node 44, Type 0, BuildingBlock: CEKHIL_clean_sbu_0, # of connection points: 4
#     Node 45, Type 0, BuildingBlock: CEKHIL_clean_sbu_0, # of connection points: 4
#     Node 46, Type 0, BuildingBlock: CEKHIL_clean_sbu_0, # of connection points: 4
#     Node 47, Type 0, BuildingBlock: CEKHIL_clean_sbu_0, # of connection points: 4
#     Node 48, Type 0, BuildingBlock: CEKHIL_clean_sbu_0, # of connection points: 4
#     Node 49, Type 0, BuildingBlock: CEKHIL_clean_sbu_0, # of connection points: 4
#     Node 50, Type 0, BuildingBlock: CEKHIL_clean_sbu_0, # of connection points: 4
#     Node 51, Type 0, BuildingBlock: CEKHIL_clean_sbu_0, # of connection points: 4
#     Node 52, Type 0, BuildingBlock: CEKHIL_clean_sbu_0, # of connection points: 4
#     Node 53, Type 0, BuildingBlock: CEKHIL_clean_sbu_0, # of connection points: 4
#     Node 54, Type 0, BuildingBlock: CEKHIL_clean_sbu_0, # of connection points: 4
#     Node 55, Type 0, BuildingBlock: CEKHIL_clean_sbu_0, # of connection points: 4
#     Node 56, Type 0, BuildingBlock: CEKHIL_clean_sbu_0, # of connection points: 4
#     Node 57, Type 0, BuildingBlock: CEKHIL_clean_sbu_0, # of connection points: 4
#     Node 58, Type 0, BuildingBlock: CEKHIL_clean_sbu_0, # of connection points: 4
#     Node 59, Type 0, BuildingBlock: CEKHIL_clean_sbu_0, # of connection points: 4
#     Node 60, Type 0, BuildingBlock: CEKHIL_clean_sbu_0, # of connection points: 4
#     Node 61, Type 0, BuildingBlock: CEKHIL_clean_sbu_0, # of connection points: 4
#     Node 62, Type 0, BuildingBlock: CEKHIL_clean_sbu_0, # of connection points: 4
#     Node 63, Type 0, BuildingBlock: CEKHIL_clean_sbu_0, # of connection points: 4
#     Node 64, Type 0, BuildingBlock: CEKHIL_clean_sbu_0, # of connection points: 4
#     Node 65, Type 0, BuildingBlock: CEKHIL_clean_sbu_0, # of connection points: 4
#     Node 66, Type 0, BuildingBlock: CEKHIL_clean_sbu_0, # of connection points: 4
#     Node 67, Type 0, BuildingBlock: CEKHIL_clean_sbu_0, # of connection points: 4
#     Node 68, Type 0, BuildingBlock: CEKHIL_clean_sbu_0, # of connection points: 4
#     Node 69, Type 0, BuildingBlock: CEKHIL_clean_sbu_0, # of connection points: 4
#     Node 70, Type 0, BuildingBlock: CEKHIL_clean_sbu_0, # of connection points: 4
#     Node 71, Type 0, BuildingBlock: CEKHIL_clean_sbu_0, # of connection points: 4
#     Node 72, Type 0, BuildingBlock: CEKHIL_clean_sbu_0, # of connection points: 4
#     Node 73, Type 0, BuildingBlock: CEKHIL_clean_sbu_0, # of connection points: 4
#     Node 74, Type 0, BuildingBlock: CEKHIL_clean_sbu_0, # of connection points: 4
#     Node 75, Type 0, BuildingBlock: CEKHIL_clean_sbu_0, # of connection points: 4
#     Node 76, Type 0, BuildingBlock: CEKHIL_clean_sbu_0, # of connection points: 4
#     Node 77, Type 0, BuildingBlock: CEKHIL_clean_sbu_0, # of connection points: 4
#     Node 78, Type 0, BuildingBlock: CEKHIL_clean_sbu_0, # of connection points: 4
#     Node 79, Type 0, BuildingBlock: CEKHIL_clean_sbu_0, # of connection points: 4
#     Node 80, Type 0, BuildingBlock: CEKHIL_clean_sbu_0, # of connection points: 4
#     Node 81, Type 0, BuildingBlock: CEKHIL_clean_sbu_0, # of connection points: 4
#     Node 82, Type 0, BuildingBlock: CEKHIL_clean_sbu_0, # of connection points: 4
#     Node 83, Type 0, BuildingBlock: CEKHIL_clean_sbu_0, # of connection points: 4
#     Node 84, Type 0, BuildingBlock: CEKHIL_clean_sbu_0, # of connection points: 4
#     Node 85, Type 0, BuildingBlock: CEKHIL_clean_sbu_0, # of connection points: 4
#     Node 86, Type 0, BuildingBlock: CEKHIL_clean_sbu_0, # of connection points: 4
#     Node 87, Type 0, BuildingBlock: CEKHIL_clean_sbu_0, # of connection points: 4
#     Node 88, Type 0, BuildingBlock: CEKHIL_clean_sbu_0, # of connection points: 4
#     Node 89, Type 0, BuildingBlock: CEKHIL_clean_sbu_0, # of connection points: 4
#     Node 90, Type 0, BuildingBlock: CEKHIL_clean_sbu_0, # of connection points: 4
#     Node 91, Type 0, BuildingBlock: CEKHIL_clean_sbu_0, # of connection points: 4
#     Node 92, Type 0, BuildingBlock: CEKHIL_clean_sbu_0, # of connection points: 4
#     Node 93, Type 0, BuildingBlock: CEKHIL_clean_sbu_0, # of connection points: 4
#     Node 94, Type 0, BuildingBlock: CEKHIL_clean_sbu_0, # of connection points: 4
#     Node 95, Type 0, BuildingBlock: CEKHIL_clean_sbu_0, # of connection points: 4
#     Edge 96, Type (0, 0), BuildingBlock: UVAHIK_clean_linker_0, # of connection points: 2
#     Edge 97, Type (0, 0), BuildingBlock: UVAHIK_clean_linker_0, # of connection points: 2
#     Edge 98, Type (0, 0), BuildingBlock: UVAHIK_clean_linker_0, # of connection points: 2
#     Edge 99, Type (0, 0), BuildingBlock: UVAHIK_clean_linker_0, # of connection points: 2
#     Edge 100, Type (0, 0), BuildingBlock: UVAHIK_clean_linker_0, # of connection points: 2
#     Edge 101, Type (0, 0), BuildingBlock: UVAHIK_clean_linker_0, # of connection points: 2
#     Edge 102, Type (0, 0), BuildingBlock: UVAHIK_clean_linker_0, # of connection points: 2
#     Edge 103, Type (0, 0), BuildingBlock: UVAHIK_clean_linker_0, # of connection points: 2
#     Edge 104, Type (0, 0), BuildingBlock: UVAHIK_clean_linker_0, # of connection points: 2
#     Edge 105, Type (0, 0), BuildingBlock: UVAHIK_clean_linker_0, # of connection points: 2
#     Edge 106, Type (0, 0), BuildingBlock: UVAHIK_clean_linker_0, # of connection points: 2
#     Edge 107, Type (0, 0), BuildingBlock: UVAHIK_clean_linker_0, # of connection points: 2
#     Edge 108, Type (0, 0), BuildingBlock: UVAHIK_clean_linker_0, # of connection points: 2
#     Edge 109, Type (0, 0), BuildingBlock: UVAHIK_clean_linker_0, # of connection points: 2
#     Edge 110, Type (0, 0), BuildingBlock: UVAHIK_clean_linker_0, # of connection points: 2
#     Edge 111, Type (0, 0), BuildingBlock: UVAHIK_clean_linker_0, # of connection points: 2
#     Edge 112, Type (0, 0), BuildingBlock: UVAHIK_clean_linker_0, # of connection points: 2
#     Edge 113, Type (0, 0), BuildingBlock: UVAHIK_clean_linker_0, # of connection points: 2
#     Edge 114, Type (0, 0), BuildingBlock: UVAHIK_clean_linker_0, # of connection points: 2
#     Edge 115, Type (0, 0), BuildingBlock: UVAHIK_clean_linker_0, # of connection points: 2
#     Edge 116, Type (0, 0), BuildingBlock: UVAHIK_clean_linker_0, # of connection points: 2
#     Edge 117, Type (0, 0), BuildingBlock: UVAHIK_clean_linker_0, # of connection points: 2
#     Edge 118, Type (0, 0), BuildingBlock: UVAHIK_clean_linker_0, # of connection points: 2
#     Edge 119, Type (0, 0), BuildingBlock: UVAHIK_clean_linker_0, # of connection points: 2
#     Edge 120, Type (0, 0), BuildingBlock: UVAHIK_clean_linker_0, # of connection points: 2
#     Edge 121, Type (0, 0), BuildingBlock: UVAHIK_clean_linker_0, # of connection points: 2
#     Edge 122, Type (0, 0), BuildingBlock: UVAHIK_clean_linker_0, # of connection points: 2
#     Edge 123, Type (0, 0), BuildingBlock: UVAHIK_clean_linker_0, # of connection points: 2
#     Edge 124, Type (0, 0), BuildingBlock: UVAHIK_clean_linker_0, # of connection points: 2
#     Edge 125, Type (0, 0), BuildingBlock: UVAHIK_clean_linker_0, # of connection points: 2
#     Edge 126, Type (0, 0), BuildingBlock: UVAHIK_clean_linker_0, # of connection points: 2
#     Edge 127, Type (0, 0), BuildingBlock: UVAHIK_clean_linker_0, # of connection points: 2
#     Edge 128, Type (0, 0), BuildingBlock: UVAHIK_clean_linker_0, # of connection points: 2
#     Edge 129, Type (0, 0), BuildingBlock: UVAHIK_clean_linker_0, # of connection points: 2
#     Edge 130, Type (0, 0), BuildingBlock: UVAHIK_clean_linker_0, # of connection points: 2
#     Edge 131, Type (0, 0), BuildingBlock: UVAHIK_clean_linker_0, # of connection points: 2
#     Edge 132, Type (0, 0), BuildingBlock: UVAHIK_clean_linker_0, # of connection points: 2
#     Edge 133, Type (0, 0), BuildingBlock: UVAHIK_clean_linker_0, # of connection points: 2
#     Edge 134, Type (0, 0), BuildingBlock: UVAHIK_clean_linker_0, # of connection points: 2
#     Edge 135, Type (0, 0), BuildingBlock: UVAHIK_clean_linker_0, # of connection points: 2
#     Edge 136, Type (0, 0), BuildingBlock: UVAHIK_clean_linker_0, # of connection points: 2
#     Edge 137, Type (0, 0), BuildingBlock: UVAHIK_clean_linker_0, # of connection points: 2
#     Edge 138, Type (0, 0), BuildingBlock: UVAHIK_clean_linker_0, # of connection points: 2
#     Edge 139, Type (0, 0), BuildingBlock: UVAHIK_clean_linker_0, # of connection points: 2
#     Edge 140, Type (0, 0), BuildingBlock: UVAHIK_clean_linker_0, # of connection points: 2
#     Edge 141, Type (0, 0), BuildingBlock: UVAHIK_clean_linker_0, # of connection points: 2
#     Edge 142, Type (0, 0), BuildingBlock: UVAHIK_clean_linker_0, # of connection points: 2
#     Edge 143, Type (0, 0), BuildingBlock: UVAHIK_clean_linker_0, # of connection points: 2
#     Edge 144, Type (0, 0), BuildingBlock: UVAHIK_clean_linker_0, # of connection points: 2
#     Edge 145, Type (0, 0), BuildingBlock: UVAHIK_clean_linker_0, # of connection points: 2
#     Edge 146, Type (0, 0), BuildingBlock: UVAHIK_clean_linker_0, # of connection points: 2
#     Edge 147, Type (0, 0), BuildingBlock: UVAHIK_clean_linker_0, # of connection points: 2
#     Edge 148, Type (0, 0), BuildingBlock: UVAHIK_clean_linker_0, # of connection points: 2
#     Edge 149, Type (0, 0), BuildingBlock: UVAHIK_clean_linker_0, # of connection points: 2
#     Edge 150, Type (0, 0), BuildingBlock: UVAHIK_clean_linker_0, # of connection points: 2
#     Edge 151, Type (0, 0), BuildingBlock: UVAHIK_clean_linker_0, # of connection points: 2
#     Edge 152, Type (0, 0), BuildingBlock: UVAHIK_clean_linker_0, # of connection points: 2
#     Edge 153, Type (0, 0), BuildingBlock: UVAHIK_clean_linker_0, # of connection points: 2
#     Edge 154, Type (0, 0), BuildingBlock: UVAHIK_clean_linker_0, # of connection points: 2
#     Edge 155, Type (0, 0), BuildingBlock: UVAHIK_clean_linker_0, # of connection points: 2
#     Edge 156, Type (0, 0), BuildingBlock: UVAHIK_clean_linker_0, # of connection points: 2
#     Edge 157, Type (0, 0), BuildingBlock: UVAHIK_clean_linker_0, # of connection points: 2
#     Edge 158, Type (0, 0), BuildingBlock: UVAHIK_clean_linker_0, # of connection points: 2
#     Edge 159, Type (0, 0), BuildingBlock: UVAHIK_clean_linker_0, # of connection points: 2
#     Edge 160, Type (0, 0), BuildingBlock: UVAHIK_clean_linker_0, # of connection points: 2
#     Edge 161, Type (0, 0), BuildingBlock: UVAHIK_clean_linker_0, # of connection points: 2
#     Edge 162, Type (0, 0), BuildingBlock: UVAHIK_clean_linker_0, # of connection points: 2
#     Edge 163, Type (0, 0), BuildingBlock: UVAHIK_clean_linker_0, # of connection points: 2
#     Edge 164, Type (0, 0), BuildingBlock: UVAHIK_clean_linker_0, # of connection points: 2
#     Edge 165, Type (0, 0), BuildingBlock: UVAHIK_clean_linker_0, # of connection points: 2
#     Edge 166, Type (0, 0), BuildingBlock: UVAHIK_clean_linker_0, # of connection points: 2
#     Edge 167, Type (0, 0), BuildingBlock: UVAHIK_clean_linker_0, # of connection points: 2
#     Edge 168, Type (0, 0), BuildingBlock: UVAHIK_clean_linker_0, # of connection points: 2
#     Edge 169, Type (0, 0), BuildingBlock: UVAHIK_clean_linker_0, # of connection points: 2
#     Edge 170, Type (0, 0), BuildingBlock: UVAHIK_clean_linker_0, # of connection points: 2
#     Edge 171, Type (0, 0), BuildingBlock: UVAHIK_clean_linker_0, # of connection points: 2
#     Edge 172, Type (0, 0), BuildingBlock: UVAHIK_clean_linker_0, # of connection points: 2
#     Edge 173, Type (0, 0), BuildingBlock: UVAHIK_clean_linker_0, # of connection points: 2
#     Edge 174, Type (0, 0), BuildingBlock: UVAHIK_clean_linker_0, # of connection points: 2
#     Edge 175, Type (0, 0), BuildingBlock: UVAHIK_clean_linker_0, # of connection points: 2
#     Edge 176, Type (0, 0), BuildingBlock: UVAHIK_clean_linker_0, # of connection points: 2
#     Edge 177, Type (0, 0), BuildingBlock: UVAHIK_clean_linker_0, # of connection points: 2
#     Edge 178, Type (0, 0), BuildingBlock: UVAHIK_clean_linker_0, # of connection points: 2
#     Edge 179, Type (0, 0), BuildingBlock: UVAHIK_clean_linker_0, # of connection points: 2
#     Edge 180, Type (0, 0), BuildingBlock: UVAHIK_clean_linker_0, # of connection points: 2
#     Edge 181, Type (0, 0), BuildingBlock: UVAHIK_clean_linker_0, # of connection points: 2
#     Edge 182, Type (0, 0), BuildingBlock: UVAHIK_clean_linker_0, # of connection points: 2
#     Edge 183, Type (0, 0), BuildingBlock: UVAHIK_clean_linker_0, # of connection points: 2
#     Edge 184, Type (0, 0), BuildingBlock: UVAHIK_clean_linker_0, # of connection points: 2
#     Edge 185, Type (0, 0), BuildingBlock: UVAHIK_clean_linker_0, # of connection points: 2
#     Edge 186, Type (0, 0), BuildingBlock: UVAHIK_clean_linker_0, # of connection points: 2
#     Edge 187, Type (0, 0), BuildingBlock: UVAHIK_clean_linker_0, # of connection points: 2
#     Edge 188, Type (0, 0), BuildingBlock: UVAHIK_clean_linker_0, # of connection points: 2
#     Edge 189, Type (0, 0), BuildingBlock: UVAHIK_clean_linker_0, # of connection points: 2
#     Edge 190, Type (0, 0), BuildingBlock: UVAHIK_clean_linker_0, # of connection points: 2
#     Edge 191, Type (0, 0), BuildingBlock: UVAHIK_clean_linker_0, # of connection points: 2
#     Edge 192, Type (0, 0), BuildingBlock: UVAHIK_clean_linker_0, # of connection points: 2
#     Edge 193, Type (0, 0), BuildingBlock: UVAHIK_clean_linker_0, # of connection points: 2
#     Edge 194, Type (0, 0), BuildingBlock: UVAHIK_clean_linker_0, # of connection points: 2
#     Edge 195, Type (0, 0), BuildingBlock: UVAHIK_clean_linker_0, # of connection points: 2
#     Edge 196, Type (0, 0), BuildingBlock: UVAHIK_clean_linker_0, # of connection points: 2
#     Edge 197, Type (0, 0), BuildingBlock: UVAHIK_clean_linker_0, # of connection points: 2
#     Edge 198, Type (0, 0), BuildingBlock: UVAHIK_clean_linker_0, # of connection points: 2
#     Edge 199, Type (0, 0), BuildingBlock: UVAHIK_clean_linker_0, # of connection points: 2
#     Edge 200, Type (0, 0), BuildingBlock: UVAHIK_clean_linker_0, # of connection points: 2
#     Edge 201, Type (0, 0), BuildingBlock: UVAHIK_clean_linker_0, # of connection points: 2
#     Edge 202, Type (0, 0), BuildingBlock: UVAHIK_clean_linker_0, # of connection points: 2
#     Edge 203, Type (0, 0), BuildingBlock: UVAHIK_clean_linker_0, # of connection points: 2
#     Edge 204, Type (0, 0), BuildingBlock: UVAHIK_clean_linker_0, # of connection points: 2
#     Edge 205, Type (0, 0), BuildingBlock: UVAHIK_clean_linker_0, # of connection points: 2
#     Edge 206, Type (0, 0), BuildingBlock: UVAHIK_clean_linker_0, # of connection points: 2
#     Edge 207, Type (0, 0), BuildingBlock: UVAHIK_clean_linker_0, # of connection points: 2
#     Edge 208, Type (0, 0), BuildingBlock: UVAHIK_clean_linker_0, # of connection points: 2
#     Edge 209, Type (0, 0), BuildingBlock: UVAHIK_clean_linker_0, # of connection points: 2
#     Edge 210, Type (0, 0), BuildingBlock: UVAHIK_clean_linker_0, # of connection points: 2
#     Edge 211, Type (0, 0), BuildingBlock: UVAHIK_clean_linker_0, # of connection points: 2
#     Edge 212, Type (0, 0), BuildingBlock: UVAHIK_clean_linker_0, # of connection points: 2
#     Edge 213, Type (0, 0), BuildingBlock: UVAHIK_clean_linker_0, # of connection points: 2
#     Edge 214, Type (0, 0), BuildingBlock: UVAHIK_clean_linker_0, # of connection points: 2
#     Edge 215, Type (0, 0), BuildingBlock: UVAHIK_clean_linker_0, # of connection points: 2
#     Edge 216, Type (0, 0), BuildingBlock: UVAHIK_clean_linker_0, # of connection points: 2
#     Edge 217, Type (0, 0), BuildingBlock: UVAHIK_clean_linker_0, # of connection points: 2
#     Edge 218, Type (0, 0), BuildingBlock: UVAHIK_clean_linker_0, # of connection points: 2
#     Edge 219, Type (0, 0), BuildingBlock: UVAHIK_clean_linker_0, # of connection points: 2
#     Edge 220, Type (0, 0), BuildingBlock: UVAHIK_clean_linker_0, # of connection points: 2
#     Edge 221, Type (0, 0), BuildingBlock: UVAHIK_clean_linker_0, # of connection points: 2
#     Edge 222, Type (0, 0), BuildingBlock: UVAHIK_clean_linker_0, # of connection points: 2
#     Edge 223, Type (0, 0), BuildingBlock: UVAHIK_clean_linker_0, # of connection points: 2
#     Edge 224, Type (0, 0), BuildingBlock: UVAHIK_clean_linker_0, # of connection points: 2
#     Edge 225, Type (0, 0), BuildingBlock: UVAHIK_clean_linker_0, # of connection points: 2
#     Edge 226, Type (0, 0), BuildingBlock: UVAHIK_clean_linker_0, # of connection points: 2
#     Edge 227, Type (0, 0), BuildingBlock: UVAHIK_clean_linker_0, # of connection points: 2
#     Edge 228, Type (0, 0), BuildingBlock: UVAHIK_clean_linker_0, # of connection points: 2
#     Edge 229, Type (0, 0), BuildingBlock: UVAHIK_clean_linker_0, # of connection points: 2
#     Edge 230, Type (0, 0), BuildingBlock: UVAHIK_clean_linker_0, # of connection points: 2
#     Edge 231, Type (0, 0), BuildingBlock: UVAHIK_clean_linker_0, # of connection points: 2
#     Edge 232, Type (0, 0), BuildingBlock: UVAHIK_clean_linker_0, # of connection points: 2
#     Edge 233, Type (0, 0), BuildingBlock: UVAHIK_clean_linker_0, # of connection points: 2
#     Edge 234, Type (0, 0), BuildingBlock: UVAHIK_clean_linker_0, # of connection points: 2
#     Edge 235, Type (0, 0), BuildingBlock: UVAHIK_clean_linker_0, # of connection points: 2
#     Edge 236, Type (0, 0), BuildingBlock: UVAHIK_clean_linker_0, # of connection points: 2
#     Edge 237, Type (0, 0), BuildingBlock: UVAHIK_clean_linker_0, # of connection points: 2
#     Edge 238, Type (0, 0), BuildingBlock: UVAHIK_clean_linker_0, # of connection points: 2
#     Edge 239, Type (0, 0), BuildingBlock: UVAHIK_clean_linker_0, # of connection points: 2
#     Edge 240, Type (0, 0), BuildingBlock: UVAHIK_clean_linker_0, # of connection points: 2
#     Edge 241, Type (0, 0), BuildingBlock: UVAHIK_clean_linker_0, # of connection points: 2
#     Edge 242, Type (0, 0), BuildingBlock: UVAHIK_clean_linker_0, # of connection points: 2
#     Edge 243, Type (0, 0), BuildingBlock: UVAHIK_clean_linker_0, # of connection points: 2
#     Edge 244, Type (0, 0), BuildingBlock: UVAHIK_clean_linker_0, # of connection points: 2
#     Edge 245, Type (0, 0), BuildingBlock: UVAHIK_clean_linker_0, # of connection points: 2
#     Edge 246, Type (0, 0), BuildingBlock: UVAHIK_clean_linker_0, # of connection points: 2
#     Edge 247, Type (0, 0), BuildingBlock: UVAHIK_clean_linker_0, # of connection points: 2
#     Edge 248, Type (0, 0), BuildingBlock: UVAHIK_clean_linker_0, # of connection points: 2
#     Edge 249, Type (0, 0), BuildingBlock: UVAHIK_clean_linker_0, # of connection points: 2
#     Edge 250, Type (0, 0), BuildingBlock: UVAHIK_clean_linker_0, # of connection points: 2
#     Edge 251, Type (0, 0), BuildingBlock: UVAHIK_clean_linker_0, # of connection points: 2
#     Edge 252, Type (0, 0), BuildingBlock: UVAHIK_clean_linker_0, # of connection points: 2
#     Edge 253, Type (0, 0), BuildingBlock: UVAHIK_clean_linker_0, # of connection points: 2
#     Edge 254, Type (0, 0), BuildingBlock: UVAHIK_clean_linker_0, # of connection points: 2
#     Edge 255, Type (0, 0), BuildingBlock: UVAHIK_clean_linker_0, # of connection points: 2
#     Edge 256, Type (0, 0), BuildingBlock: UVAHIK_clean_linker_0, # of connection points: 2
#     Edge 257, Type (0, 0), BuildingBlock: UVAHIK_clean_linker_0, # of connection points: 2
#     Edge 258, Type (0, 0), BuildingBlock: UVAHIK_clean_linker_0, # of connection points: 2
#     Edge 259, Type (0, 0), BuildingBlock: UVAHIK_clean_linker_0, # of connection points: 2
#     Edge 260, Type (0, 0), BuildingBlock: UVAHIK_clean_linker_0, # of connection points: 2
#     Edge 261, Type (0, 0), BuildingBlock: UVAHIK_clean_linker_0, # of connection points: 2
#     Edge 262, Type (0, 0), BuildingBlock: UVAHIK_clean_linker_0, # of connection points: 2
#     Edge 263, Type (0, 0), BuildingBlock: UVAHIK_clean_linker_0, # of connection points: 2
#     Edge 264, Type (0, 0), BuildingBlock: UVAHIK_clean_linker_0, # of connection points: 2
#     Edge 265, Type (0, 0), BuildingBlock: UVAHIK_clean_linker_0, # of connection points: 2
#     Edge 266, Type (0, 0), BuildingBlock: UVAHIK_clean_linker_0, # of connection points: 2
#     Edge 267, Type (0, 0), BuildingBlock: UVAHIK_clean_linker_0, # of connection points: 2
#     Edge 268, Type (0, 0), BuildingBlock: UVAHIK_clean_linker_0, # of connection points: 2
#     Edge 269, Type (0, 0), BuildingBlock: UVAHIK_clean_linker_0, # of connection points: 2
#     Edge 270, Type (0, 0), BuildingBlock: UVAHIK_clean_linker_0, # of connection points: 2
#     Edge 271, Type (0, 0), BuildingBlock: UVAHIK_clean_linker_0, # of connection points: 2
#     Edge 272, Type (0, 0), BuildingBlock: UVAHIK_clean_linker_0, # of connection points: 2
#     Edge 273, Type (0, 0), BuildingBlock: UVAHIK_clean_linker_0, # of connection points: 2
#     Edge 274, Type (0, 0), BuildingBlock: UVAHIK_clean_linker_0, # of connection points: 2
#     Edge 275, Type (0, 0), BuildingBlock: UVAHIK_clean_linker_0, # of connection points: 2
#     Edge 276, Type (0, 0), BuildingBlock: UVAHIK_clean_linker_0, # of connection points: 2
#     Edge 277, Type (0, 0), BuildingBlock: UVAHIK_clean_linker_0, # of connection points: 2
#     Edge 278, Type (0, 0), BuildingBlock: UVAHIK_clean_linker_0, # of connection points: 2
#     Edge 279, Type (0, 0), BuildingBlock: UVAHIK_clean_linker_0, # of connection points: 2
#     Edge 280, Type (0, 0), BuildingBlock: UVAHIK_clean_linker_0, # of connection points: 2
#     Edge 281, Type (0, 0), BuildingBlock: UVAHIK_clean_linker_0, # of connection points: 2
#     Edge 282, Type (0, 0), BuildingBlock: UVAHIK_clean_linker_0, # of connection points: 2
#     Edge 283, Type (0, 0), BuildingBlock: UVAHIK_clean_linker_0, # of connection points: 2
#     Edge 284, Type (0, 0), BuildingBlock: UVAHIK_clean_linker_0, # of connection points: 2
#     Edge 285, Type (0, 0), BuildingBlock: UVAHIK_clean_linker_0, # of connection points: 2
#     Edge 286, Type (0, 0), BuildingBlock: UVAHIK_clean_linker_0, # of connection points: 2
#     Edge 287, Type (0, 0), BuildingBlock: UVAHIK_clean_linker_0, # of connection points: 2
# Relax obj value: 0.323
# Max RMSD: 0.156
# Mean RMSD: 0.150
data_MOF--net-wse--node1-CEKHIL_clean_sbu_0--edge1-UVAHIK_clean_linker_0
_symmetry_space_group_name_H-M    P1
_symmetry_Int_Tables_number       1
_symmetry_cell_setting            triclinic
loop_
_symmetry_equiv_pos_as_xyz
'x, y, z'
_cell_length_a     127.22992
_cell_length_b     127.20516
_cell_length_c     127.20501
_cell_angle_alpha  90.003329
_cell_angle_beta   90.000906
_cell_angle_gamma 90.011561
loop_
_atom_site_label
_atom_site_type_symbol
_atom_site_fract_x
_atom_site_fract_y
_atom_site_fract_z
_atom_type_partial_charge
Co0 Co 0.08981 0.18121 0.42399 0.0
O1 O 0.10386 0.17551 0.42523 0.0
O2 O 0.09023 0.16698 0.41865 0.0
C3 C 0.0948 0.1971 0.41767 0.0
O4 O 0.07427 0.1842 0.42104 0.0
Co5 Co 0.08211 0.20109 0.43589 0.0
O6 O 0.06969 0.20035 0.42648 0.0
C7 C 0.08404 0.1807 0.44709 0.0
C8 C 0.10012 0.1669 0.4212 0.0
C9 C 0.06761 0.1918 0.4217 0.0
O10 O 0.08633 0.17586 0.43851 0.0
O11 O 0.08267 0.19066 0.44769 0.0
O12 O 0.09387 0.18913 0.41131 0.0
O13 O 0.09323 0.19509 0.42746 0.0
Co14 Co 0.82073 0.09156 0.42276 0.0
O15 O 0.82622 0.10572 0.42314 0.0
O16 O 0.83477 0.09193 0.41689 0.0
C17 C 0.80447 0.09582 0.41684 0.0
O18 O 0.81774 0.07588 0.42071 0.0
Co19 Co 0.80166 0.08474 0.4365 0.0
O20 O 0.80281 0.07115 0.42889 0.0
C21 C 0.82207 0.08965 0.44624 0.0
C22 C 0.83477 0.10193 0.41903 0.0
C23 C 0.81066 0.069 0.42304 0.0
O24 O 0.82667 0.08892 0.43726 0.0
O25 O 0.81208 0.08947 0.44738 0.0
O26 O 0.81223 0.09488 0.41021 0.0
O27 O 0.80701 0.09492 0.42658 0.0
Co28 Co 0.91361 0.82192 0.42298 0.0
O29 O 0.89967 0.8278 0.4245 0.0
O30 O 0.9135 0.8365 0.41858 0.0
C31 C 0.90828 0.80668 0.41555 0.0
O32 O 0.92909 0.81875 0.4199 0.0
Co33 Co 0.92067 0.80107 0.4335 0.0
O34 O 0.93317 0.80214 0.42424 0.0
C35 C 0.91928 0.82069 0.4461 0.0
C36 C 0.90357 0.83657 0.421 0.0
C37 C 0.93552 0.81092 0.42005 0.0
O38 O 0.91715 0.82618 0.43786 0.0
O39 O 0.92031 0.81067 0.44599 0.0
O40 O 0.90953 0.815 0.40975 0.0
O41 O 0.90976 0.80793 0.42547 0.0
Co42 Co 0.18185 0.91208 0.42235 0.0
O43 O 0.17653 0.89798 0.42427 0.0
O44 O 0.16776 0.91093 0.41669 0.0
C45 C 0.19803 0.9072 0.41668 0.0
O46 O 0.18459 0.92754 0.4186 0.0
Co47 Co 0.20125 0.9207 0.43453 0.0
O48 O 0.20013 0.93295 0.425 0.0
C49 C 0.18058 0.91893 0.44516 0.0
C50 C 0.16793 0.90119 0.4198 0.0
C51 C 0.19185 0.93455 0.41959 0.0
O52 O 0.17603 0.91624 0.43653 0.0
O53 O 0.1905 0.9204 0.44602 0.0
O54 O 0.19018 0.90747 0.41012 0.0
O55 O 0.1957 0.90923 0.42631 0.0
Co56 Co 0.08876 0.82069 0.57851 0.0
O57 O 0.1028 0.82619 0.57659 0.0
O58 O 0.08961 0.83499 0.5837 0.0
C59 C 0.09392 0.80484 0.58478 0.0
O60 O 0.07333 0.81785 0.58218 0.0
Co61 Co 0.08046 0.80071 0.56716 0.0
O62 O 0.06855 0.80161 0.57717 0.0
C63 C 0.08192 0.821 0.55568 0.0
C64 C 0.0994 0.83487 0.58076 0.0
C65 C 0.06666 0.81021 0.58193 0.0
O66 O 0.08465 0.82592 0.5641 0.0
O67 O 0.0805 0.81104 0.55526 0.0
O68 O 0.09331 0.81288 0.59108 0.0
O69 O 0.09193 0.80676 0.57505 0.0
Co70 Co 0.18021 0.09037 0.58015 0.0
O71 O 0.17492 0.10459 0.57973 0.0
O72 O 0.16576 0.09076 0.58494 0.0
C73 C 0.19594 0.09449 0.58743 0.0
O74 O 0.18289 0.07459 0.5821 0.0
Co75 Co 0.20039 0.08353 0.56813 0.0
O76 O 0.19869 0.07 0.57568 0.0
C77 C 0.18084 0.0885 0.55653 0.0
C78 C 0.16607 0.10082 0.58316 0.0
C79 C 0.19024 0.06777 0.58057 0.0
O80 O 0.17546 0.08821 0.56512 0.0
O81 O 0.19089 0.08785 0.55634 0.0
O82 O 0.18771 0.09333 0.59342 0.0
O83 O 0.1942 0.09373 0.57751 0.0
Co84 Co 0.91057 0.1821 0.58029 0.0
O85 O 0.89653 0.17633 0.58002 0.0
O86 O 0.91084 0.16738 0.58417 0.0
C87 C 0.9062 0.19712 0.58872 0.0
O88 O 0.9263 0.18515 0.5819 0.0
Co89 Co 0.91648 0.20316 0.56949 0.0
O90 O 0.9303 0.20147 0.57651 0.0
C91 C 0.91219 0.18422 0.55666 0.0
C92 C 0.90071 0.16743 0.58276 0.0
C93 C 0.93289 0.19275 0.58072 0.0
O94 O 0.91238 0.17836 0.56493 0.0
O95 O 0.91271 0.19426 0.55705 0.0
O96 O 0.90795 0.1886 0.59411 0.0
O97 O 0.90661 0.19613 0.57867 0.0
Co98 Co 0.82056 0.91107 0.57987 0.0
O99 O 0.82567 0.89678 0.57915 0.0
O100 O 0.83503 0.91043 0.5845 0.0
C101 C 0.80487 0.90698 0.58725 0.0
O102 O 0.81818 0.92684 0.58209 0.0
Co103 Co 0.80033 0.9186 0.56841 0.0
O104 O 0.80216 0.93177 0.57657 0.0
C105 C 0.81967 0.91369 0.55635 0.0
C106 C 0.8346 0.9004 0.58254 0.0
C107 C 0.81086 0.93378 0.5811 0.0
O108 O 0.82516 0.91343 0.56486 0.0
O109 O 0.80965 0.91468 0.55632 0.0
O110 O 0.81317 0.90795 0.59316 0.0
O111 O 0.80649 0.90796 0.57732 0.0
Co112 Co 0.42429 0.09039 0.18139 0.0
O113 O 0.4247 0.10448 0.17572 0.0
O114 O 0.41892 0.09051 0.16714 0.0
C115 C 0.4177 0.09488 0.19731 0.0
O116 O 0.42228 0.07474 0.18447 0.0
Co117 Co 0.43709 0.08378 0.20112 0.0
O118 O 0.42889 0.07049 0.20029 0.0
C119 C 0.44784 0.08787 0.18094 0.0
C120 C 0.4209 0.10054 0.1671 0.0
C121 C 0.42379 0.06812 0.19199 0.0
O122 O 0.43899 0.08778 0.17604 0.0
O123 O 0.44861 0.08749 0.19097 0.0
O124 O 0.41139 0.09364 0.18934 0.0
O125 O 0.42755 0.09403 0.19522 0.0
Co126 Co 0.90991 0.42295 0.17975 0.0
O127 O 0.89596 0.42352 0.17377 0.0
O128 O 0.91034 0.41927 0.16498 0.0
C129 C 0.90514 0.41439 0.19456 0.0
O130 O 0.92556 0.42107 0.18299 0.0
Co131 Co 0.91579 0.43318 0.20108 0.0
O132 O 0.92916 0.42523 0.19975 0.0
C133 C 0.91216 0.44647 0.18226 0.0
C134 C 0.90024 0.42084 0.16489 0.0
C135 C 0.9319 0.42149 0.19088 0.0
O136 O 0.91205 0.43829 0.17628 0.0
O137 O 0.91267 0.44591 0.19231 0.0
O138 O 0.90696 0.40908 0.186 0.0
O139 O 0.90575 0.42444 0.19376 0.0
Co140 Co 0.57871 0.90928 0.18113 0.0
O141 O 0.57827 0.8952 0.17542 0.0
O142 O 0.58303 0.90936 0.16654 0.0
C143 C 0.58659 0.90485 0.19645 0.0
O144 O 0.5806 0.92498 0.18412 0.0
Co145 Co 0.56754 0.91567 0.20187 0.0
O146 O 0.57568 0.92894 0.2006 0.0
C147 C 0.55513 0.91168 0.18255 0.0
C148 C 0.58136 0.89927 0.16658 0.0
C149 C 0.57986 0.93147 0.19186 0.0
O150 O 0.56356 0.91148 0.17694 0.0
O151 O 0.55523 0.91235 0.1926 0.0
O152 O 0.59226 0.90636 0.18806 0.0
O153 O 0.57659 0.90549 0.19515 0.0
Co154 Co 0.09229 0.57996 0.18079 0.0
O155 O 0.10633 0.57966 0.17498 0.0
O156 O 0.092 0.5838 0.16606 0.0
C157 C 0.09668 0.58844 0.19576 0.0
O158 O 0.07659 0.58159 0.18383 0.0
Co159 Co 0.08628 0.5694 0.20194 0.0
O160 O 0.07285 0.57722 0.20052 0.0
C161 C 0.09026 0.55638 0.183 0.0
C162 C 0.10213 0.58239 0.16608 0.0
C163 C 0.07017 0.58101 0.19165 0.0
O164 O 0.09039 0.56463 0.17712 0.0
O165 O 0.08962 0.55681 0.19304 0.0
O166 O 0.09493 0.5938 0.18722 0.0
O167 O 0.09627 0.57839 0.19485 0.0
Co168 Co 0.42331 0.91246 0.82181 0.0
O169 O 0.42374 0.89826 0.82716 0.0
O170 O 0.41798 0.91203 0.83607 0.0
C171 C 0.41669 0.90832 0.8058 0.0
O172 O 0.42134 0.92817 0.81901 0.0
Co173 Co 0.43619 0.91931 0.80217 0.0
O174 O 0.42788 0.93251 0.80317 0.0
C175 C 0.44688 0.91481 0.82229 0.0
C176 C 0.41998 0.902 0.83588 0.0
C177 C 0.42282 0.93482 0.8115 0.0
O178 O 0.43803 0.91494 0.82719 0.0
O179 O 0.44766 0.91531 0.81226 0.0
O180 O 0.41039 0.90933 0.8138 0.0
O181 O 0.42654 0.90912 0.80793 0.0
Co182 Co 0.0914 0.42336 0.8219 0.0
O183 O 0.1052 0.42577 0.82779 0.0
O184 O 0.09187 0.41866 0.83639 0.0
C185 C 0.09711 0.4165 0.80653 0.0
O186 O 0.07612 0.41942 0.81872 0.0
Co187 Co 0.08366 0.43374 0.80119 0.0
O188 O 0.07168 0.42383 0.80222 0.0
C189 C 0.08429 0.44609 0.82103 0.0
C190 C 0.10159 0.42182 0.83648 0.0
C191 C 0.06962 0.41939 0.81095 0.0
O192 O 0.08693 0.43792 0.82641 0.0
O193 O 0.08328 0.44606 0.81101 0.0
O194 O 0.09627 0.41052 0.81479 0.0
O195 O 0.09504 0.42629 0.80794 0.0
Co196 Co 0.58138 0.0927 0.82226 0.0
O197 O 0.58107 0.10677 0.82799 0.0
O198 O 0.58482 0.09245 0.83709 0.0
C199 C 0.59033 0.0969 0.80753 0.0
O200 O 0.58292 0.07696 0.8193 0.0
Co201 Co 0.57127 0.08678 0.80087 0.0
O202 O 0.57901 0.07331 0.80248 0.0
C203 C 0.55783 0.09085 0.81948 0.0
C204 C 0.58352 0.10259 0.83698 0.0
C205 C 0.58253 0.07057 0.81144 0.0
O206 O 0.56594 0.09097 0.82554 0.0
O207 O 0.55848 0.09014 0.80945 0.0
O208 O 0.59542 0.09515 0.81623 0.0
O209 O 0.58025 0.09663 0.80815 0.0
Co210 Co 0.91095 0.57899 0.82219 0.0
O211 O 0.8968 0.57834 0.82766 0.0
O212 O 0.91054 0.58437 0.83644 0.0
C213 C 0.90657 0.58545 0.80615 0.0
O214 O 0.9266 0.58122 0.81923 0.0
Co215 Co 0.91781 0.56609 0.80253 0.0
O216 O 0.93096 0.5745 0.80346 0.0
C217 C 0.9133 0.5555 0.82266 0.0
C218 C 0.90055 0.58218 0.83635 0.0
C219 C 0.93324 0.57972 0.81171 0.0
O220 O 0.91371 0.56433 0.82759 0.0
O221 O 0.91358 0.55471 0.81263 0.0
O222 O 0.90752 0.59182 0.81412 0.0
O223 O 0.90756 0.57564 0.80835 0.0
Co224 Co 0.18007 0.42334 0.0923 0.0
O225 O 0.17414 0.42473 0.10623 0.0
O226 O 0.1659 0.41779 0.09259 0.0
C227 C 0.19592 0.41732 0.0977 0.0
O228 O 0.1834 0.42019 0.07686 0.0
Co229 Co 0.19993 0.43549 0.08494 0.0
O230 O 0.19919 0.42653 0.07222 0.0
C231 C 0.17932 0.44634 0.08608 0.0
C232 C 0.16565 0.42049 0.10245 0.0
C233 C 0.19091 0.42131 0.07013 0.0
O234 O 0.17457 0.43773 0.08847 0.0
O235 O 0.1893 0.44709 0.08497 0.0
O236 O 0.18808 0.41083 0.09665 0.0
O237 O 0.19382 0.42706 0.096 0.0
Co238 Co 0.18165 0.58033 0.90977 0.0
O239 O 0.17593 0.58004 0.89571 0.0
O240 O 0.16697 0.58443 0.90994 0.0
C241 C 0.19679 0.58848 0.90534 0.0
O242 O 0.18468 0.582 0.9255 0.0
Co243 Co 0.2025 0.56922 0.91576 0.0
O244 O 0.2009 0.57633 0.92955 0.0
C245 C 0.18339 0.55671 0.91134 0.0
C246 C 0.16704 0.58292 0.89983 0.0
C247 C 0.19226 0.58071 0.93211 0.0
O248 O 0.17766 0.56506 0.91165 0.0
O249 O 0.19344 0.55695 0.91183 0.0
O250 O 0.18837 0.59402 0.90706 0.0
O251 O 0.19565 0.57845 0.90582 0.0
Co252 Co 0.42414 0.18159 0.9116 0.0
O253 O 0.42477 0.1762 0.8974 0.0
O254 O 0.41852 0.16746 0.91107 0.0
C255 C 0.41796 0.19775 0.90729 0.0
O256 O 0.42188 0.1844 0.92728 0.0
Co257 Co 0.4372 0.20097 0.91885 0.0
O258 O 0.42875 0.2 0.93196 0.0
C259 C 0.44761 0.1807 0.91436 0.0
C260 C 0.42075 0.16756 0.9011 0.0
C261 C 0.42345 0.19176 0.93407 0.0
O262 O 0.43869 0.17593 0.91439 0.0
O263 O 0.44853 0.19071 0.9149 0.0
O264 O 0.41147 0.18987 0.90815 0.0
O265 O 0.42773 0.19542 0.90836 0.0
Co266 Co 0.8218 0.4228 0.90902 0.0
O267 O 0.82762 0.42341 0.89499 0.0
O268 O 0.8362 0.41791 0.90908 0.0
C269 C 0.80617 0.41569 0.90428 0.0
O270 O 0.81861 0.42062 0.92465 0.0
Co271 Co 0.80147 0.43477 0.91545 0.0
O272 O 0.80275 0.42707 0.92895 0.0
C273 C 0.82124 0.44638 0.91143 0.0
C274 C 0.8363 0.41986 0.89905 0.0
C275 C 0.81112 0.42211 0.93132 0.0
O276 O 0.82656 0.43776 0.91162 0.0
O277 O 0.81118 0.44661 0.91177 0.0
O278 O 0.81431 0.40963 0.9056 0.0
O279 O 0.80794 0.42559 0.90524 0.0
Co280 Co 0.57913 0.82197 0.91005 0.0
O281 O 0.57881 0.82777 0.89601 0.0
O282 O 0.58326 0.83662 0.91029 0.0
C283 C 0.58725 0.80683 0.90552 0.0
O284 O 0.58079 0.81891 0.92576 0.0
Co285 Co 0.56822 0.80103 0.91616 0.0
O286 O 0.5761 0.80233 0.92958 0.0
C287 C 0.55555 0.82021 0.9122 0.0
C288 C 0.58175 0.83662 0.90018 0.0
C289 C 0.58006 0.81114 0.93222 0.0
O290 O 0.56389 0.82595 0.91207 0.0
O291 O 0.5558 0.81016 0.91283 0.0
O292 O 0.5928 0.81525 0.90727 0.0
O293 O 0.57722 0.80796 0.90608 0.0
Co294 Co 0.82208 0.58118 0.09206 0.0
O295 O 0.82757 0.58054 0.1062 0.0
O296 O 0.83667 0.58553 0.09226 0.0
C297 C 0.80666 0.58887 0.09653 0.0
O298 O 0.81928 0.58322 0.07632 0.0
Co299 Co 0.80138 0.57005 0.08529 0.0
O300 O 0.80285 0.57828 0.07212 0.0
C301 C 0.82062 0.55765 0.08978 0.0
C302 C 0.83646 0.5837 0.10232 0.0
C303 C 0.81162 0.58249 0.06972 0.0
O304 O 0.8263 0.56604 0.08977 0.0
O305 O 0.81057 0.55782 0.08907 0.0
O306 O 0.815 0.59465 0.09518 0.0
O307 O 0.80808 0.57892 0.09562 0.0
Co308 Co 0.42005 0.82053 0.09075 0.0
O309 O 0.42036 0.82609 0.10487 0.0
O310 O 0.41635 0.83531 0.09069 0.0
C311 C 0.41144 0.80555 0.09472 0.0
O312 O 0.41852 0.81768 0.07501 0.0
Co313 Co 0.43094 0.79948 0.08478 0.0
O314 O 0.42364 0.80123 0.07107 0.0
C315 C 0.44359 0.81829 0.08974 0.0
C316 C 0.41776 0.83509 0.10082 0.0
C317 C 0.41955 0.81001 0.06847 0.0
O318 O 0.43539 0.82416 0.08895 0.0
O319 O 0.44324 0.80823 0.08947 0.0
O320 O 0.40616 0.81418 0.09325 0.0
O321 O 0.4215 0.8064 0.09446 0.0
Co322 Co 0.58045 0.17972 0.09278 0.0
O323 O 0.58018 0.17408 0.10686 0.0
O324 O 0.58571 0.16542 0.09284 0.0
C325 C 0.58718 0.19562 0.0972 0.0
O326 O 0.58223 0.18286 0.07711 0.0
Co327 Co 0.56758 0.1996 0.08654 0.0
O328 O 0.57562 0.19878 0.07316 0.0
C329 C 0.5569 0.17951 0.0911 0.0
C330 C 0.58385 0.16542 0.10289 0.0
C331 C 0.58065 0.19049 0.07062 0.0
O332 O 0.56566 0.17449 0.09039 0.0
O333 O 0.55623 0.18955 0.09097 0.0
O334 O 0.59345 0.18762 0.09592 0.0
O335 O 0.57733 0.19352 0.09646 0.0
Co336 Co 0.94259 0.82809 0.57227 0.0
O337 O 0.93711 0.84138 0.57718 0.0
O338 O 0.92786 0.82672 0.57578 0.0
C339 C 0.95777 0.82829 0.5815 0.0
O340 O 0.94535 0.81287 0.56798 0.0
Co341 Co 0.96333 0.82674 0.55949 0.0
O342 O 0.96133 0.81127 0.56064 0.0
C343 C 0.94439 0.83579 0.54984 0.0
C344 C 0.92808 0.83669 0.57804 0.0
C345 C 0.9528 0.80726 0.56405 0.0
O346 O 0.93875 0.83205 0.55736 0.0
O347 O 0.95445 0.83552 0.54986 0.0
O348 O 0.94912 0.82514 0.58599 0.0
O349 O 0.95674 0.83199 0.57214 0.0
Co350 Co 0.17285 0.94211 0.57012 0.0
O351 O 0.15929 0.93697 0.57469 0.0
O352 O 0.17397 0.92766 0.57472 0.0
C353 C 0.1721 0.958 0.57816 0.0
O354 O 0.18829 0.94457 0.56638 0.0
Co355 Co 0.17499 0.96199 0.55602 0.0
O356 O 0.19031 0.96039 0.55876 0.0
C357 C 0.16589 0.94249 0.54751 0.0
C358 C 0.16389 0.92801 0.57638 0.0
C359 C 0.19412 0.95197 0.56265 0.0
O360 O 0.16959 0.93726 0.55534 0.0
O361 O 0.16619 0.95253 0.54695 0.0
O362 O 0.17498 0.94974 0.58349 0.0
O363 O 0.16903 0.95616 0.56871 0.0
Co364 Co 0.05959 0.17398 0.57103 0.0
O365 O 0.0643 0.16057 0.5764 0.0
O366 O 0.07374 0.17518 0.57643 0.0
C367 C 0.04323 0.17386 0.57809 0.0
O368 O 0.05751 0.18927 0.56659 0.0
Co369 Co 0.0408 0.17541 0.55544 0.0
O370 O 0.04344 0.19081 0.55595 0.0
C371 C 0.06063 0.16574 0.54889 0.0
C372 C 0.07321 0.16515 0.57839 0.0
C373 C 0.05114 0.1948 0.56099 0.0
O374 O 0.06532 0.17011 0.55671 0.0
O375 O 0.05064 0.16577 0.54779 0.0
O376 O 0.05122 0.17674 0.58382 0.0
O377 O 0.04559 0.17028 0.56893 0.0
Co378 Co 0.82814 0.05949 0.57163 0.0
O379 O 0.84183 0.06447 0.57592 0.0
O380 O 0.82735 0.07408 0.57587 0.0
C381 C 0.82869 0.04394 0.58018 0.0
O382 O 0.81262 0.05725 0.56816 0.0
Co383 Co 0.82536 0.03935 0.55815 0.0
O384 O 0.81015 0.04118 0.56127 0.0
C385 C 0.83365 0.05868 0.54841 0.0
C386 C 0.83743 0.07355 0.57748 0.0
C387 C 0.80657 0.04983 0.56486 0.0
O388 O 0.83123 0.06393 0.55672 0.0
O389 O 0.83279 0.04867 0.5478 0.0
O390 O 0.82594 0.05241 0.58521 0.0
O391 O 0.83174 0.04528 0.57063 0.0
Co392 Co 0.94239 0.17416 0.43197 0.0
O393 O 0.93738 0.16063 0.4272 0.0
O394 O 0.92785 0.17517 0.42759 0.0
C395 C 0.95807 0.17395 0.4236 0.0
O396 O 0.94469 0.18957 0.43589 0.0
Co397 Co 0.96234 0.17618 0.4459 0.0
O398 O 0.95982 0.19154 0.44486 0.0
C399 C 0.9428 0.16788 0.45507 0.0
C400 C 0.92835 0.16514 0.42566 0.0
C401 C 0.9516 0.19532 0.44055 0.0
O402 O 0.93771 0.17064 0.44677 0.0
O403 O 0.95282 0.16847 0.45578 0.0
O404 O 0.94963 0.17677 0.41856 0.0
O405 O 0.95659 0.1705 0.43301 0.0
Co406 Co 0.83001 0.94381 0.43268 0.0
O407 O 0.84381 0.93909 0.42837 0.0
O408 O 0.82942 0.92934 0.42804 0.0
C409 C 0.83044 0.95971 0.42463 0.0
O410 O 0.81442 0.94575 0.4361 0.0
Co411 Co 0.82678 0.96363 0.44663 0.0
O412 O 0.81165 0.96162 0.44335 0.0
C413 C 0.83541 0.94417 0.45591 0.0
C414 C 0.83951 0.92999 0.42656 0.0
C415 C 0.80823 0.95299 0.43955 0.0
O416 O 0.83309 0.93902 0.44751 0.0
O417 O 0.83435 0.95416 0.45669 0.0
O418 O 0.8279 0.95135 0.41927 0.0
O419 O 0.83336 0.95801 0.43415 0.0
Co420 Co 0.06021 0.82835 0.43025 0.0
O421 O 0.06565 0.84161 0.42519 0.0
O422 O 0.07493 0.82699 0.42667 0.0
C423 C 0.04496 0.82844 0.42113 0.0
O424 O 0.05751 0.81316 0.43468 0.0
Co425 Co 0.03956 0.82706 0.44319 0.0
O426 O 0.04158 0.81159 0.44216 0.0
C427 C 0.05851 0.83637 0.45255 0.0
C428 C 0.07469 0.83694 0.42434 0.0
C429 C 0.05009 0.80756 0.43872 0.0
O430 O 0.06413 0.83247 0.44509 0.0
O431 O 0.04846 0.83611 0.45256 0.0
O432 O 0.05358 0.82527 0.4166 0.0
O433 O 0.04606 0.83222 0.43044 0.0
Co434 Co 0.17236 0.05868 0.43237 0.0
O435 O 0.15859 0.06367 0.42827 0.0
O436 O 0.17311 0.07324 0.42807 0.0
C437 C 0.17168 0.04299 0.42392 0.0
O438 O 0.18797 0.05651 0.43558 0.0
Co439 Co 0.1756 0.03849 0.44576 0.0
O440 O 0.19071 0.04043 0.44235 0.0
C441 C 0.16725 0.05778 0.45566 0.0
C442 C 0.163 0.07274 0.42661 0.0
C443 C 0.19415 0.04913 0.43876 0.0
O444 O 0.16945 0.06313 0.44734 0.0
O445 O 0.16829 0.04778 0.45618 0.0
O446 O 0.17425 0.05145 0.41875 0.0
O447 O 0.16889 0.04448 0.43352 0.0
Co448 Co 0.57091 0.9448 0.82825 0.0
O449 O 0.57579 0.9398 0.84174 0.0
O450 O 0.57519 0.93024 0.82723 0.0
C451 C 0.57932 0.96046 0.82839 0.0
O452 O 0.56678 0.9471 0.81291 0.0
Co453 Co 0.55702 0.96479 0.82639 0.0
O454 O 0.55846 0.96257 0.81097 0.0
C455 C 0.54822 0.94545 0.83542 0.0
C456 C 0.57717 0.93073 0.83725 0.0
C457 C 0.56244 0.9542 0.80713 0.0
O458 O 0.55616 0.94024 0.83196 0.0
O459 O 0.54764 0.95549 0.83503 0.0
O460 O 0.58432 0.95201 0.82549 0.0
O461 O 0.56995 0.95899 0.83191 0.0
Co462 Co 0.05786 0.57156 0.82903 0.0
O463 O 0.06323 0.5764 0.8424 0.0
O464 O 0.07259 0.57507 0.82781 0.0
C465 C 0.04268 0.58081 0.82917 0.0
O466 O 0.05527 0.56734 0.81377 0.0
Co467 Co 0.03705 0.55892 0.82719 0.0
O468 O 0.03892 0.56097 0.81178 0.0
C469 C 0.05589 0.54901 0.83632 0.0
C470 C 0.0723 0.57729 0.83779 0.0
C471 C 0.04768 0.564 0.80795 0.0
O472 O 0.06162 0.55664 0.83294 0.0
O473 O 0.04584 0.54901 0.83577 0.0
O474 O 0.05135 0.5853 0.8261 0.0
O475 O 0.04366 0.57142 0.83279 0.0
Co476 Co 0.43276 0.06011 0.8282 0.0
O477 O 0.42811 0.06517 0.84175 0.0
O478 O 0.42862 0.07472 0.82723 0.0
C479 C 0.42412 0.04458 0.8285 0.0
O480 O 0.43662 0.05777 0.81278 0.0
Co481 Co 0.44623 0.03988 0.82597 0.0
O482 O 0.44427 0.04199 0.81062 0.0
C483 C 0.45591 0.05927 0.83421 0.0
C484 C 0.42672 0.07424 0.83726 0.0
C485 C 0.44053 0.05051 0.80689 0.0
O486 O 0.44763 0.06452 0.83168 0.0
O487 O 0.45648 0.04925 0.83343 0.0
O488 O 0.41922 0.05309 0.82564 0.0
O489 O 0.43357 0.0459 0.83187 0.0
Co490 Co 0.94483 0.43019 0.82768 0.0
O491 O 0.93975 0.42549 0.8412 0.0
O492 O 0.93023 0.42607 0.82666 0.0
C493 C 0.96036 0.42156 0.82795 0.0
O494 O 0.94714 0.43416 0.8123 0.0
Co495 Co 0.965 0.44371 0.82542 0.0
O496 O 0.96318 0.44119 0.81009 0.0
C497 C 0.94563 0.4533 0.83376 0.0
C498 C 0.93068 0.42415 0.83669 0.0
C499 C 0.95454 0.43772 0.80638 0.0
O500 O 0.94043 0.44502 0.83119 0.0
O501 O 0.95565 0.45396 0.83296 0.0
O502 O 0.95184 0.41666 0.82507 0.0
O503 O 0.95905 0.43101 0.83134 0.0
Co504 Co 0.57194 0.05684 0.17401 0.0
O505 O 0.57683 0.06202 0.16058 0.0
O506 O 0.57612 0.0714 0.1752 0.0
C507 C 0.58048 0.04126 0.17377 0.0
O508 O 0.56779 0.05445 0.18931 0.0
Co509 Co 0.55834 0.03667 0.17599 0.0
O510 O 0.5606 0.03845 0.19138 0.0
C511 C 0.54914 0.056 0.16719 0.0
C512 C 0.57817 0.07104 0.16519 0.0
C513 C 0.56411 0.04705 0.19516 0.0
O514 O 0.55717 0.0613 0.17034 0.0
O515 O 0.5486 0.04596 0.16774 0.0
O516 O 0.5854 0.04973 0.17676 0.0
O517 O 0.5711 0.04266 0.17026 0.0
Co518 Co 0.94466 0.57085 0.17412 0.0
O519 O 0.93945 0.57559 0.16065 0.0
O520 O 0.93011 0.57509 0.17531 0.0
C521 C 0.96026 0.57935 0.17372 0.0
O522 O 0.94714 0.5669 0.18949 0.0
Co523 Co 0.96478 0.55719 0.17608 0.0
O524 O 0.96289 0.55917 0.19145 0.0
C525 C 0.94525 0.54774 0.16795 0.0
C526 C 0.93045 0.57702 0.16527 0.0
C527 C 0.95444 0.56294 0.19529 0.0
O528 O 0.94009 0.55604 0.17061 0.0
O529 O 0.95527 0.54707 0.16864 0.0
O530 O 0.95181 0.58432 0.17667 0.0
O531 O 0.95882 0.56993 0.1703 0.0
Co532 Co 0.43116 0.94335 0.17284 0.0
O533 O 0.42648 0.93828 0.15927 0.0
O534 O 0.42724 0.9287 0.17376 0.0
C535 C 0.42229 0.95875 0.17275 0.0
O536 O 0.43509 0.94557 0.18824 0.0
Co537 Co 0.44422 0.96379 0.17544 0.0
O538 O 0.44142 0.96186 0.1907 0.0
C539 C 0.4543 0.94466 0.16698 0.0
C540 C 0.42526 0.92917 0.16374 0.0
C541 C 0.43825 0.95306 0.19428 0.0
O542 O 0.44605 0.93923 0.16922 0.0
O543 O 0.45477 0.95465 0.16809 0.0
O544 O 0.41753 0.95013 0.17557 0.0
O545 O 0.43174 0.95762 0.16932 0.0
Co546 Co 0.05738 0.43189 0.17434 0.0
O547 O 0.06242 0.42739 0.16072 0.0
O548 O 0.07199 0.42778 0.17523 0.0
C549 C 0.04186 0.42323 0.17398 0.0
O550 O 0.05516 0.43559 0.18981 0.0
Co551 Co 0.03712 0.44519 0.17708 0.0
O552 O 0.039 0.44223 0.19231 0.0
C553 C 0.05642 0.45515 0.16886 0.0
C554 C 0.0715 0.42598 0.16518 0.0
C555 C 0.04773 0.43884 0.19588 0.0
O556 O 0.06172 0.44679 0.17101 0.0
O557 O 0.04643 0.45572 0.16993 0.0
O558 O 0.05038 0.4183 0.17677 0.0
O559 O 0.04314 0.43274 0.17077 0.0
Co560 Co 0.82826 0.56996 0.94452 0.0
O561 O 0.84187 0.57442 0.93938 0.0
O562 O 0.82734 0.57387 0.92987 0.0
C563 C 0.82865 0.57886 0.95992 0.0
O564 O 0.81279 0.56628 0.9468 0.0
Co565 Co 0.82546 0.55699 0.96498 0.0
O566 O 0.81024 0.55989 0.96305 0.0
C567 C 0.83385 0.54676 0.94589 0.0
C568 C 0.83738 0.57571 0.93029 0.0
C569 C 0.80669 0.56315 0.95426 0.0
O570 O 0.83167 0.555 0.94042 0.0
O571 O 0.83272 0.54636 0.95589 0.0
O572 O 0.82582 0.58365 0.95132 0.0
O573 O 0.83185 0.56933 0.95878 0.0
Co574 Co 0.82796 0.43383 0.05696 0.0
O575 O 0.84184 0.4298 0.06169 0.0
O576 O 0.82741 0.429 0.07136 0.0
C577 C 0.82869 0.42596 0.04099 0.0
O578 O 0.8123 0.43687 0.05501 0.0
Co579 Co 0.82438 0.44788 0.03728 0.0
O580 O 0.80934 0.44416 0.0392 0.0
C581 C 0.8328 0.45717 0.05684 0.0
C582 C 0.83754 0.42775 0.07073 0.0
C583 C 0.80602 0.44021 0.04779 0.0
O584 O 0.83068 0.44867 0.06192 0.0
O585 O 0.8317 0.45802 0.04687 0.0
O586 O 0.82624 0.42045 0.04927 0.0
O587 O 0.83132 0.43555 0.0428 0.0
Co588 Co 0.56993 0.82708 0.05864 0.0
O589 O 0.57438 0.84072 0.06362 0.0
O590 O 0.57482 0.8261 0.07302 0.0
C591 C 0.57773 0.82773 0.04267 0.0
O592 O 0.5664 0.8116 0.05631 0.0
Co593 Co 0.55537 0.82484 0.03917 0.0
O594 O 0.55763 0.80949 0.04111 0.0
C595 C 0.54666 0.83256 0.05914 0.0
C596 C 0.57632 0.83621 0.07258 0.0
C597 C 0.56204 0.80573 0.0493 0.0
O598 O 0.55523 0.82997 0.06386 0.0
O599 O 0.54556 0.83213 0.04914 0.0
O600 O 0.58317 0.82501 0.0509 0.0
O601 O 0.56828 0.83084 0.04452 0.0
Co602 Co 0.17462 0.57023 0.05866 0.0
O603 O 0.16099 0.57511 0.06329 0.0
O604 O 0.17544 0.57538 0.07295 0.0
C605 C 0.17435 0.57765 0.04245 0.0
O606 O 0.19006 0.56627 0.05674 0.0
Co607 Co 0.17706 0.5553 0.03944 0.0
O608 O 0.19237 0.55789 0.04135 0.0
C609 C 0.16734 0.54775 0.05902 0.0
C610 C 0.16538 0.57708 0.0723 0.0
C611 C 0.19603 0.56212 0.04968 0.0
O612 O 0.17109 0.5557 0.06402 0.0
O613 O 0.16784 0.54679 0.04902 0.0
O614 O 0.17706 0.58328 0.05056 0.0
O615 O 0.17114 0.5683 0.04458 0.0
Co616 Co 0.43155 0.17318 0.05943 0.0
O617 O 0.42693 0.15956 0.06433 0.0
O618 O 0.42714 0.17404 0.07396 0.0
C619 C 0.42323 0.17295 0.04372 0.0
O620 O 0.43535 0.18863 0.05727 0.0
Co621 Co 0.44541 0.1757 0.03951 0.0
O622 O 0.44256 0.19097 0.04132 0.0
C623 C 0.45474 0.16739 0.05902 0.0
C624 C 0.42537 0.16398 0.07341 0.0
C625 C 0.4389 0.19462 0.04992 0.0
O626 O 0.44633 0.16984 0.06409 0.0
O627 O 0.45556 0.16822 0.04902 0.0
O628 O 0.41813 0.17568 0.05216 0.0
O629 O 0.43268 0.16963 0.0452 0.0
Co630 Co 0.17341 0.43299 0.94464 0.0
O631 O 0.15944 0.42927 0.94002 0.0
O632 O 0.17379 0.4279 0.93029 0.0
C633 C 0.17265 0.42534 0.96073 0.0
O634 O 0.18913 0.43584 0.9466 0.0
Co635 Co 0.17679 0.44744 0.96412 0.0
O636 O 0.19191 0.44445 0.96179 0.0
C637 C 0.16864 0.45637 0.94435 0.0
C638 C 0.16363 0.42701 0.93098 0.0
C639 C 0.19532 0.43995 0.95351 0.0
O640 O 0.17097 0.44782 0.93945 0.0
O641 O 0.16943 0.45734 0.95434 0.0
O642 O 0.17492 0.41969 0.9525 0.0
O643 O 0.17007 0.43492 0.95879 0.0
Co644 Co 0.57111 0.17493 0.94479 0.0
O645 O 0.5761 0.16145 0.93987 0.0
O646 O 0.57545 0.17591 0.93023 0.0
C647 C 0.57947 0.17492 0.96047 0.0
O648 O 0.56688 0.19026 0.94699 0.0
Co649 Co 0.55714 0.17681 0.9647 0.0
O650 O 0.55849 0.19222 0.96242 0.0
C651 C 0.54848 0.16759 0.94539 0.0
C652 C 0.5775 0.1659 0.93078 0.0
C653 C 0.56248 0.19604 0.95405 0.0
O654 O 0.55641 0.1711 0.94018 0.0
O655 O 0.54787 0.16803 0.95542 0.0
O656 O 0.58448 0.17782 0.95203 0.0
O657 O 0.57013 0.17132 0.95899 0.0
Co658 Co 0.43119 0.82924 0.94361 0.0
O659 O 0.42654 0.84278 0.93848 0.0
O660 O 0.42737 0.82826 0.92894 0.0
C661 C 0.42223 0.82939 0.95895 0.0
O662 O 0.43513 0.81385 0.94592 0.0
Co663 Co 0.44415 0.82676 0.96413 0.0
O664 O 0.44149 0.81148 0.96221 0.0
C665 C 0.45434 0.83511 0.945 0.0
C666 C 0.42538 0.83828 0.92937 0.0
C667 C 0.43834 0.80785 0.95342 0.0
O668 O 0.44611 0.83284 0.93956 0.0
O669 O 0.45475 0.83406 0.95501 0.0
O670 O 0.41752 0.82654 0.95032 0.0
O671 O 0.43169 0.83282 0.95786 0.0
Co672 Co 0.59194 0.68224 0.92438 0.0
O673 O 0.60606 0.67667 0.92505 0.0
O674 O 0.59206 0.66765 0.92006 0.0
C675 C 0.59641 0.69762 0.91661 0.0
O676 O 0.57624 0.68508 0.92226 0.0
Co677 Co 0.58516 0.70292 0.93544 0.0
O678 O 0.57204 0.70152 0.92711 0.0
C679 C 0.58926 0.68365 0.94792 0.0
C680 C 0.60212 0.66779 0.9219 0.0
C681 C 0.56966 0.69275 0.9229 0.0
O682 O 0.58957 0.67802 0.9395 0.0
O683 O 0.58848 0.69369 0.94779 0.0
O684 O 0.59504 0.68924 0.91089 0.0
O685 O 0.59557 0.69629 0.92659 0.0
Co686 Co 0.32155 0.59341 0.92307 0.0
O687 O 0.3271 0.60754 0.9232 0.0
O688 O 0.33608 0.5934 0.91853 0.0
C689 C 0.30604 0.59758 0.91541 0.0
O690 O 0.31866 0.57765 0.9215 0.0
Co691 Co 0.30112 0.58715 0.93488 0.0
O692 O 0.30272 0.57337 0.92775 0.0
C693 C 0.32056 0.59194 0.94672 0.0
C694 C 0.33595 0.60351 0.92008 0.0
C695 C 0.31123 0.57093 0.92307 0.0
O696 O 0.32603 0.59157 0.9382 0.0
O697 O 0.31051 0.59138 0.9468 0.0
O698 O 0.31433 0.59606 0.9096 0.0
O699 O 0.30756 0.59711 0.92539 0.0
Co700 Co 0.41189 0.32325 0.92214 0.0
O701 O 0.39782 0.32897 0.92242 0.0
O702 O 0.41194 0.33761 0.9171 0.0
C703 C 0.40745 0.30746 0.91517 0.0
O704 O 0.42755 0.32009 0.92039 0.0
Co705 Co 0.41805 0.30316 0.93471 0.0
O706 O 0.43149 0.30409 0.92678 0.0
C707 C 0.41339 0.32306 0.9457 0.0
C708 C 0.40188 0.33767 0.91892 0.0
C709 C 0.43404 0.31245 0.92188 0.0
O710 O 0.4142 0.32823 0.93704 0.0
O711 O 0.4135 0.313 0.94619 0.0
O712 O 0.40881 0.31553 0.90902 0.0
O713 O 0.40815 0.30941 0.92506 0.0
Co714 Co 0.68183 0.41113 0.92321 0.0
O715 O 0.6766 0.39688 0.92396 0.0
O716 O 0.66738 0.41056 0.91849 0.0
C717 C 0.69757 0.40695 0.91598 0.0
O718 O 0.68431 0.42689 0.92093 0.0
Co719 Co 0.70201 0.41864 0.9348 0.0
O720 O 0.70026 0.43182 0.92665 0.0
C721 C 0.68259 0.41372 0.94672 0.0
C722 C 0.66771 0.40054 0.92051 0.0
C723 C 0.69163 0.43383 0.92199 0.0
O724 O 0.67714 0.41357 0.93819 0.0
O725 O 0.69262 0.41464 0.94681 0.0
O726 O 0.68932 0.4079 0.90999 0.0
O727 O 0.69587 0.40799 0.92588 0.0
Co728 Co 0.59082 0.3204 0.0788 0.0
O729 O 0.60499 0.32585 0.07792 0.0
O730 O 0.59123 0.33484 0.08357 0.0
C731 C 0.59532 0.30469 0.0859 0.0
O732 O 0.57514 0.31768 0.08123 0.0
Co733 Co 0.58348 0.30013 0.06726 0.0
O734 O 0.57058 0.30145 0.07593 0.0
C735 C 0.58778 0.3197 0.05531 0.0
C736 C 0.60122 0.33466 0.08145 0.0
C737 C 0.56843 0.31012 0.08048 0.0
O738 O 0.58812 0.32512 0.06387 0.0
O739 O 0.58694 0.30966 0.0552 0.0
O740 O 0.5943 0.3129 0.09194 0.0
O741 O 0.59415 0.30642 0.07602 0.0
Co742 Co 0.68215 0.59059 0.07921 0.0
O743 O 0.67679 0.60477 0.07822 0.0
O744 O 0.66787 0.59119 0.08441 0.0
C745 C 0.69809 0.5951 0.0858 0.0
O746 O 0.6849 0.57494 0.08187 0.0
Co747 Co 0.70196 0.58312 0.06696 0.0
O748 O 0.70041 0.56991 0.07509 0.0
C749 C 0.68209 0.58758 0.05574 0.0
C750 C 0.66806 0.60114 0.08209 0.0
C751 C 0.69212 0.56798 0.08037 0.0
O752 O 0.67696 0.58766 0.06447 0.0
O753 O 0.69212 0.58695 0.05528 0.0
O754 O 0.69004 0.59428 0.09207 0.0
O755 O 0.69606 0.5938 0.07598 0.0
Co756 Co 0.41255 0.68119 0.08118 0.0
O757 O 0.39841 0.67568 0.08026 0.0
O758 O 0.41245 0.6663 0.08437 0.0
C759 C 0.40831 0.69586 0.0902 0.0
O760 O 0.42827 0.68385 0.08333 0.0
Co761 Co 0.41919 0.70263 0.07153 0.0
O762 O 0.43247 0.70056 0.07944 0.0
C763 C 0.41516 0.68428 0.05773 0.0
C764 C 0.40237 0.66659 0.08272 0.0
C765 C 0.43487 0.69154 0.08307 0.0
O766 O 0.41478 0.67811 0.06576 0.0
O767 O 0.41595 0.69429 0.05853 0.0
O768 O 0.40962 0.68704 0.09521 0.0
O769 O 0.40896 0.6954 0.08013 0.0
Co770 Co 0.32093 0.41038 0.08141 0.0
O771 O 0.32628 0.39616 0.08138 0.0
O772 O 0.33562 0.41026 0.08541 0.0
C773 C 0.30568 0.40666 0.08976 0.0
O774 O 0.31834 0.4262 0.08279 0.0
Co775 Co 0.30018 0.41672 0.07026 0.0
O776 O 0.30219 0.43056 0.07717 0.0
C777 C 0.31911 0.41159 0.05775 0.0
C778 C 0.33529 0.40012 0.0841 0.0
C779 C 0.31091 0.43297 0.08147 0.0
O780 O 0.32487 0.41185 0.06608 0.0
O781 O 0.30907 0.41237 0.05801 0.0
O782 O 0.31422 0.40818 0.0952 0.0
O783 O 0.30679 0.40684 0.07971 0.0
Co784 Co 0.92172 0.59171 0.68023 0.0
O785 O 0.92217 0.60583 0.67463 0.0
O786 O 0.91629 0.59193 0.66601 0.0
C787 C 0.91526 0.59612 0.69626 0.0
O788 O 0.91971 0.57605 0.68327 0.0
Co789 Co 0.93469 0.58505 0.6999 0.0
O790 O 0.92645 0.57179 0.69905 0.0
C791 C 0.94527 0.58926 0.67965 0.0
C792 C 0.91835 0.60195 0.66599 0.0
C793 C 0.92129 0.56943 0.69078 0.0
O794 O 0.93639 0.58908 0.67479 0.0
O795 O 0.94609 0.58891 0.68968 0.0
O796 O 0.90888 0.59502 0.68833 0.0
O797 O 0.92508 0.59524 0.69404 0.0
Co798 Co 0.41266 0.92474 0.68047 0.0
O799 O 0.39871 0.92683 0.67476 0.0
O800 O 0.41194 0.91952 0.66619 0.0
C801 C 0.40728 0.91858 0.69631 0.0
O802 O 0.42799 0.92088 0.68353 0.0
Co803 Co 0.42085 0.93603 0.70058 0.0
O804 O 0.43263 0.92586 0.69982 0.0
C805 C 0.41987 0.94747 0.68022 0.0
C806 C 0.40219 0.92257 0.66615 0.0
C807 C 0.43456 0.92106 0.69125 0.0
O808 O 0.41705 0.9391 0.67527 0.0
O809 O 0.42115 0.94788 0.6902 0.0
O810 O 0.40781 0.91225 0.68828 0.0
O811 O 0.4094 0.92827 0.69435 0.0
Co812 Co 0.07946 0.4108 0.68097 0.0
O813 O 0.07938 0.39667 0.67544 0.0
O814 O 0.08438 0.41074 0.66654 0.0
C815 C 0.08674 0.40671 0.69668 0.0
O816 O 0.08098 0.42653 0.68394 0.0
Co817 Co 0.06697 0.41692 0.70106 0.0
O818 O 0.07486 0.43039 0.70006 0.0
C819 C 0.05578 0.41273 0.68114 0.0
C820 C 0.08277 0.40063 0.66667 0.0
C821 C 0.07957 0.433 0.69161 0.0
O822 O 0.06452 0.41288 0.67605 0.0
O823 O 0.05523 0.41314 0.69119 0.0
O824 O 0.09272 0.40813 0.6885 0.0
O825 O 0.07679 0.4071 0.69492 0.0
Co826 Co 0.5893 0.07891 0.68234 0.0
O827 O 0.6032 0.07614 0.67689 0.0
O828 O 0.59051 0.08411 0.66808 0.0
C829 C 0.59472 0.08495 0.69819 0.0
O830 O 0.57406 0.08336 0.68512 0.0
Co831 Co 0.58037 0.06803 0.70232 0.0
O832 O 0.56888 0.07849 0.70128 0.0
C833 C 0.58142 0.05643 0.68207 0.0
C834 C 0.60009 0.08054 0.66822 0.0
C835 C 0.5673 0.08335 0.69267 0.0
O836 O 0.58446 0.06472 0.67712 0.0
O837 O 0.58001 0.0561 0.69203 0.0
O838 O 0.59448 0.09124 0.69012 0.0
O839 O 0.59225 0.07533 0.69631 0.0
Co840 Co 0.92366 0.411 0.31907 0.0
O841 O 0.92423 0.39691 0.32473 0.0
O842 O 0.91908 0.41096 0.33357 0.0
C843 C 0.91616 0.40645 0.30359 0.0
O844 O 0.9216 0.42668 0.31614 0.0
Co845 Co 0.93507 0.41772 0.29856 0.0
O846 O 0.92686 0.43093 0.29983 0.0
C847 C 0.94721 0.41369 0.31807 0.0
C848 C 0.92092 0.40091 0.33352 0.0
C849 C 0.92247 0.4333 0.30851 0.0
O850 O 0.93869 0.41342 0.32354 0.0
O851 O 0.94725 0.4144 0.30802 0.0
O852 O 0.91031 0.40785 0.31187 0.0
O853 O 0.92612 0.40732 0.30508 0.0
Co854 Co 0.59352 0.92161 0.32193 0.0
O855 O 0.60758 0.92155 0.32762 0.0
O856 O 0.59337 0.91655 0.33631 0.0
C857 C 0.59781 0.91453 0.3062 0.0
O858 O 0.57783 0.92021 0.31876 0.0
Co859 Co 0.58778 0.93448 0.30199 0.0
O860 O 0.57382 0.92755 0.3032 0.0
C861 C 0.59255 0.94523 0.32192 0.0
C862 C 0.60348 0.91816 0.33633 0.0
C863 C 0.57123 0.92235 0.31137 0.0
O864 O 0.59154 0.93653 0.32698 0.0
O865 O 0.59255 0.94582 0.31188 0.0
O866 O 0.5962 0.90842 0.31425 0.0
O867 O 0.59744 0.92445 0.30808 0.0
Co868 Co 0.07833 0.59225 0.32141 0.0
O869 O 0.07807 0.60634 0.32709 0.0
O870 O 0.08367 0.5923 0.33567 0.0
C871 C 0.08504 0.59668 0.30552 0.0
O872 O 0.08017 0.57659 0.3183 0.0
Co873 Co 0.06551 0.58586 0.30162 0.0
O874 O 0.0736 0.57251 0.30241 0.0
C875 C 0.05474 0.58998 0.32179 0.0
C876 C 0.08181 0.60236 0.33572 0.0
C877 C 0.07864 0.57004 0.31072 0.0
O878 O 0.06358 0.58981 0.32671 0.0
O879 O 0.054 0.58962 0.31176 0.0
O880 O 0.0913 0.59535 0.31352 0.0
O881 O 0.07517 0.59596 0.30757 0.0
Co882 Co 0.4098 0.08037 0.32254 0.0
O883 O 0.3958 0.08076 0.32842 0.0
O884 O 0.41034 0.08451 0.33718 0.0
C885 C 0.40573 0.08862 0.30735 0.0
O886 O 0.42551 0.08121 0.31931 0.0
Co887 Co 0.41494 0.06873 0.3017 0.0
O888 O 0.42891 0.07568 0.30288 0.0
C889 C 0.40988 0.05678 0.32094 0.0
C890 C 0.40017 0.08344 0.33726 0.0
C891 C 0.43184 0.07983 0.31153 0.0
O892 O 0.41108 0.06509 0.32659 0.0
O893 O 0.40997 0.05686 0.31087 0.0
O894 O 0.40772 0.09414 0.31574 0.0
O895 O 0.40565 0.07859 0.30858 0.0
Co896 Co 0.68084 0.92186 0.59104 0.0
O897 O 0.67509 0.92414 0.60493 0.0
O898 O 0.66647 0.91688 0.59169 0.0
C899 C 0.69649 0.91548 0.59667 0.0
O900 O 0.68393 0.91788 0.57574 0.0
Co901 Co 0.70122 0.93269 0.58294 0.0
O902 O 0.7003 0.92261 0.5711 0.0
C903 C 0.6811 0.94455 0.5838 0.0
C904 C 0.66644 0.92 0.60143 0.0
C905 C 0.69164 0.91796 0.56916 0.0
O906 O 0.67594 0.93628 0.58654 0.0
O907 O 0.6911 0.94476 0.58264 0.0
O908 O 0.68837 0.90927 0.59605 0.0
O909 O 0.69473 0.92517 0.59441 0.0
Co910 Co 0.67917 0.07835 0.41259 0.0
O911 O 0.67376 0.07772 0.39838 0.0
O912 O 0.66471 0.08307 0.41222 0.0
C913 C 0.69486 0.08565 0.40829 0.0
O914 O 0.68185 0.0805 0.42832 0.0
Co915 Co 0.69948 0.06674 0.41969 0.0
O916 O 0.6979 0.07479 0.43295 0.0
C917 C 0.68002 0.05481 0.415 0.0
C918 C 0.66492 0.08115 0.40218 0.0
C919 C 0.68929 0.07941 0.43513 0.0
O920 O 0.67453 0.06333 0.41499 0.0
O921 O 0.69006 0.05475 0.41572 0.0
O922 O 0.68662 0.09162 0.40942 0.0
O923 O 0.69317 0.07573 0.40922 0.0
Co924 Co 0.92398 0.68085 0.41012 0.0
O925 O 0.92402 0.6754 0.39595 0.0
O926 O 0.91882 0.66652 0.40995 0.0
C927 C 0.917 0.69671 0.40605 0.0
O928 O 0.92243 0.68373 0.42586 0.0
Co929 Co 0.93672 0.7007 0.41649 0.0
O930 O 0.9288 0.6997 0.42994 0.0
C931 C 0.94762 0.68069 0.41197 0.0
C932 C 0.92048 0.66666 0.39986 0.0
C933 C 0.92394 0.6913 0.43243 0.0
O934 O 0.93883 0.67569 0.41219 0.0
O935 O 0.94829 0.69072 0.41247 0.0
O936 O 0.91086 0.68864 0.40741 0.0
O937 O 0.92691 0.69478 0.40653 0.0
Co938 Co 0.32287 0.92231 0.41075 0.0
O939 O 0.32838 0.92256 0.3966 0.0
O940 O 0.3374 0.91772 0.41064 0.0
C941 C 0.30729 0.91476 0.40654 0.0
O942 O 0.31998 0.92059 0.42651 0.0
Co943 Co 0.30243 0.93417 0.41706 0.0
O944 O 0.304 0.92681 0.43072 0.0
C945 C 0.3219 0.94595 0.41226 0.0
C946 C 0.33723 0.91935 0.40055 0.0
C947 C 0.31249 0.92209 0.43318 0.0
O948 O 0.32739 0.93744 0.41273 0.0
O949 O 0.31185 0.94602 0.41274 0.0
O950 O 0.31557 0.90889 0.40794 0.0
O951 O 0.30891 0.92471 0.40713 0.0
Co952 Co 0.08089 0.3217 0.41011 0.0
O953 O 0.0809 0.32742 0.39602 0.0
O954 O 0.08449 0.33647 0.41042 0.0
C955 C 0.0897 0.30682 0.4061 0.0
O956 O 0.0821 0.31881 0.42588 0.0
Co957 Co 0.07045 0.30047 0.41603 0.0
O958 O 0.07788 0.3021 0.42967 0.0
C959 C 0.0573 0.31918 0.41149 0.0
C960 C 0.08334 0.33639 0.40026 0.0
C961 C 0.08146 0.31106 0.43237 0.0
O962 O 0.06547 0.32516 0.41151 0.0
O963 O 0.05783 0.30916 0.41229 0.0
O964 O 0.09488 0.31544 0.40792 0.0
O965 O 0.07962 0.30758 0.40622 0.0
Co966 Co 0.3208 0.08119 0.59184 0.0
O967 O 0.32661 0.07941 0.60577 0.0
O968 O 0.33497 0.08669 0.59238 0.0
C969 C 0.30489 0.08714 0.59724 0.0
O970 O 0.31756 0.08475 0.57646 0.0
Co971 Co 0.3009 0.06922 0.58409 0.0
O972 O 0.30175 0.07854 0.57164 0.0
C973 C 0.32147 0.0583 0.5852 0.0
C974 C 0.33512 0.08374 0.60217 0.0
C975 C 0.31006 0.08378 0.5697 0.0
O976 O 0.32626 0.06687 0.58767 0.0
O977 O 0.31149 0.05759 0.58409 0.0
O978 O 0.31279 0.0936 0.59654 0.0
O979 O 0.30702 0.07745 0.59527 0.0
Co980 Co 0.92292 0.32245 0.59029 0.0
O981 O 0.92301 0.32738 0.60468 0.0
O982 O 0.91784 0.33676 0.59099 0.0
C983 C 0.91595 0.30638 0.59351 0.0
O984 O 0.92136 0.32021 0.57443 0.0
Co985 Co 0.93591 0.30295 0.58314 0.0
O986 O 0.92814 0.30458 0.56969 0.0
C987 C 0.94649 0.32248 0.58953 0.0
C988 C 0.91954 0.33628 0.60106 0.0
C989 C 0.92308 0.31295 0.56756 0.0
O990 O 0.93784 0.32763 0.5885 0.0
O991 O 0.94706 0.31246 0.58894 0.0
O992 O 0.90979 0.31452 0.59284 0.0
O993 O 0.92585 0.3084 0.59311 0.0
Co994 Co 0.08037 0.68065 0.59178 0.0
O995 O 0.07989 0.675 0.60588 0.0
O996 O 0.08381 0.66581 0.59166 0.0
C997 C 0.08925 0.69541 0.59602 0.0
O998 O 0.08207 0.68351 0.57604 0.0
Co999 Co 0.07031 0.70199 0.58563 0.0
O1000 O 0.07818 0.70031 0.57225 0.0
C1001 C 0.05683 0.6834 0.5897 0.0
C1002 C 0.08238 0.66599 0.60178 0.0
C1003 C 0.08173 0.69133 0.5696 0.0
O1004 O 0.06495 0.67735 0.58992 0.0
O1005 O 0.05748 0.69343 0.58894 0.0
O1006 O 0.09437 0.68671 0.59437 0.0
O1007 O 0.07917 0.69478 0.59563 0.0
Co1008 Co 0.44329 0.32781 0.0719 0.0
O1009 O 0.43812 0.34139 0.07638 0.0
O1010 O 0.42873 0.32676 0.07617 0.0
C1011 C 0.45888 0.32835 0.0804 0.0
O1012 O 0.4457 0.31238 0.06822 0.0
Co1013 Co 0.46341 0.32545 0.05832 0.0
O1014 O 0.46175 0.31017 0.06122 0.0
C1015 C 0.44393 0.33355 0.04872 0.0
C1016 C 0.42911 0.33683 0.0779 0.0
C1017 C 0.45315 0.30645 0.06479 0.0
O1018 O 0.43876 0.33101 0.05704 0.0
O1019 O 0.45395 0.33284 0.04806 0.0
O1020 O 0.45043 0.32551 0.08543 0.0
O1021 O 0.45746 0.33157 0.07091 0.0
Co1022 Co 0.6728 0.44321 0.07046 0.0
O1023 O 0.6592 0.43798 0.07484 0.0
O1024 O 0.67392 0.42873 0.07492 0.0
C1025 C 0.67196 0.45898 0.07871 0.0
O1026 O 0.68829 0.44565 0.06696 0.0
Co1027 Co 0.6754 0.46327 0.05675 0.0
O1028 O 0.69061 0.46166 0.05989 0.0
C1029 C 0.66721 0.4437 0.04729 0.0
C1030 C 0.66383 0.42902 0.0765 0.0
C1031 C 0.69427 0.45308 0.06356 0.0
O1032 O 0.66973 0.4385 0.05561 0.0
O1033 O 0.66801 0.45371 0.04663 0.0
O1034 O 0.67478 0.45065 0.08394 0.0
O1035 O 0.66902 0.45731 0.06918 0.0
Co1036 Co 0.55966 0.67281 0.07211 0.0
O1037 O 0.56511 0.65943 0.07683 0.0
O1038 O 0.5743 0.67418 0.07597 0.0
C1039 C 0.54429 0.67235 0.08101 0.0
O1040 O 0.55695 0.68813 0.06812 0.0
Co1041 Co 0.53918 0.6745 0.05895 0.0
O1042 O 0.54099 0.6899 0.06079 0.0
C1043 C 0.55854 0.66648 0.04907 0.0
C1044 C 0.5741 0.66415 0.07799 0.0
C1045 C 0.5495 0.69384 0.06432 0.0
O1046 O 0.56388 0.66923 0.05722 0.0
O1047 O 0.54851 0.66708 0.04864 0.0
O1048 O 0.55283 0.67541 0.08574 0.0
O1049 O 0.54552 0.66887 0.07158 0.0
Co1050 Co 0.32981 0.55862 0.06975 0.0
O1051 O 0.34357 0.56363 0.07387 0.0
O1052 O 0.32896 0.57302 0.07453 0.0
C1053 C 0.33071 0.54267 0.07765 0.0
O1054 O 0.3142 0.55636 0.06658 0.0
Co1055 Co 0.32673 0.53885 0.05569 0.0
O1056 O 0.31165 0.54042 0.05942 0.0
C1057 C 0.3348 0.55857 0.04642 0.0
C1058 C 0.33909 0.57261 0.07583 0.0
C1059 C 0.30811 0.54896 0.06329 0.0
O1060 O 0.33255 0.5636 0.05492 0.0
O1061 O 0.33388 0.54858 0.04556 0.0
O1062 O 0.3281 0.55093 0.08312 0.0
O1063 O 0.33344 0.54452 0.06809 0.0
Co1064 Co 0.44474 0.67482 0.9318 0.0
O1065 O 0.43951 0.6612 0.92747 0.0
O1066 O 0.43012 0.67583 0.92782 0.0
C1067 C 0.46016 0.67426 0.92296 0.0
O1068 O 0.44714 0.69028 0.93533 0.0
Co1069 Co 0.46519 0.67754 0.94482 0.0
O1070 O 0.46336 0.69277 0.94183 0.0
C1071 C 0.44595 0.66952 0.95507 0.0
C1072 C 0.43047 0.66577 0.92609 0.0
C1073 C 0.45461 0.69634 0.93849 0.0
O1074 O 0.44055 0.67166 0.94678 0.0
O1075 O 0.45597 0.67048 0.95549 0.0
O1076 O 0.4516 0.67708 0.91811 0.0
O1077 O 0.45896 0.67113 0.93251 0.0
Co1078 Co 0.32896 0.44455 0.93417 0.0
O1079 O 0.34281 0.43994 0.92992 0.0
O1080 O 0.32837 0.43032 0.92884 0.0
C1081 C 0.32962 0.4608 0.92686 0.0
O1082 O 0.3133 0.44647 0.93732 0.0
Co1083 Co 0.32574 0.46371 0.94903 0.0
O1084 O 0.31059 0.46166 0.94593 0.0
C1085 C 0.33407 0.44379 0.95747 0.0
C1086 C 0.33849 0.43099 0.92757 0.0
C1087 C 0.30714 0.45341 0.9414 0.0
O1088 O 0.3317 0.43904 0.94884 0.0
O1089 O 0.33322 0.45374 0.95865 0.0
O1090 O 0.32719 0.4527 0.92108 0.0
O1091 O 0.33237 0.45865 0.93634 0.0
Co1092 Co 0.55912 0.329 0.93154 0.0
O1093 O 0.56456 0.34235 0.92671 0.0
O1094 O 0.57379 0.32766 0.9278 0.0
C1095 C 0.5438 0.32931 0.92255 0.0
O1096 O 0.55645 0.31371 0.93567 0.0
Co1097 Co 0.53856 0.3273 0.94457 0.0
O1098 O 0.54043 0.31188 0.94289 0.0
C1099 C 0.55777 0.33569 0.95446 0.0
C1100 C 0.57357 0.33766 0.92567 0.0
C1101 C 0.549 0.30797 0.93945 0.0
O1102 O 0.5632 0.33281 0.94642 0.0
O1103 O 0.54773 0.33501 0.9548 0.0
O1104 O 0.55238 0.32622 0.9179 0.0
O1105 O 0.54495 0.33289 0.93195 0.0
Co1106 Co 0.67354 0.55868 0.93193 0.0
O1107 O 0.66 0.56404 0.92749 0.0
O1108 O 0.67458 0.57346 0.92855 0.0
C1109 C 0.67317 0.54363 0.9225 0.0
O1110 O 0.68895 0.5562 0.9357 0.0
Co1111 Co 0.6761 0.53777 0.9442 0.0
O1112 O 0.69136 0.53972 0.94151 0.0
C1113 C 0.66761 0.55651 0.95497 0.0
C1114 C 0.66455 0.57315 0.92659 0.0
C1115 C 0.69498 0.5486 0.93862 0.0
O1116 O 0.66996 0.56226 0.94697 0.0
O1117 O 0.66869 0.5465 0.95504 0.0
O1118 O 0.67612 0.55236 0.91804 0.0
O1119 O 0.66987 0.54444 0.93203 0.0
Co1120 Co 0.07081 0.44502 0.32882 0.0
O1121 O 0.07546 0.44003 0.3424 0.0
O1122 O 0.07474 0.43036 0.32797 0.0
C1123 C 0.07964 0.46044 0.32889 0.0
O1124 O 0.06688 0.44718 0.3134 0.0
Co1125 Co 0.0577 0.46543 0.32615 0.0
O1126 O 0.06042 0.46341 0.31089 0.0
C1127 C 0.04767 0.44631 0.3347 0.0
C1128 C 0.0767 0.43089 0.33798 0.0
C1129 C 0.06365 0.45461 0.30733 0.0
O1130 O 0.05592 0.44089 0.33244 0.0
O1131 O 0.0472 0.4563 0.33358 0.0
O1132 O 0.08443 0.45184 0.32609 0.0
O1133 O 0.07019 0.4593 0.33229 0.0
Co1134 Co 0.55821 0.0698 0.32826 0.0
O1135 O 0.563 0.07451 0.34188 0.0
O1136 O 0.57265 0.07453 0.32742 0.0
C1137 C 0.54232 0.07775 0.32851 0.0
O1138 O 0.55612 0.06593 0.31281 0.0
Co1139 Co 0.53862 0.05545 0.32582 0.0
O1140 O 0.54033 0.05835 0.31054 0.0
C1141 C 0.55837 0.0466 0.33405 0.0
C1142 C 0.57205 0.07626 0.33748 0.0
C1143 C 0.54883 0.06219 0.30686 0.0
O1144 O 0.56322 0.05513 0.33158 0.0
O1145 O 0.5484 0.04552 0.33325 0.0
O1146 O 0.55063 0.08306 0.32577 0.0
O1147 O 0.54402 0.06834 0.33182 0.0
Co1148 Co 0.93092 0.55855 0.328 0.0
O1149 O 0.92585 0.56372 0.34137 0.0
O1150 O 0.92667 0.57309 0.32675 0.0
C1151 C 0.9225 0.5429 0.32809 0.0
O1152 O 0.93525 0.55611 0.31276 0.0
Co1153 Co 0.94482 0.53855 0.3265 0.0
O1154 O 0.94355 0.54061 0.31104 0.0
C1155 C 0.95359 0.55799 0.33534 0.0
C1156 C 0.92454 0.57273 0.33675 0.0
C1157 C 0.93964 0.54895 0.30709 0.0
O1158 O 0.94562 0.56315 0.33185 0.0
O1159 O 0.9542 0.54795 0.33502 0.0
O1160 O 0.91754 0.55134 0.32509 0.0
O1161 O 0.9318 0.54438 0.33179 0.0
Co1162 Co 0.44437 0.93174 0.32758 0.0
O1163 O 0.43953 0.92748 0.34135 0.0
O1164 O 0.43026 0.92615 0.32669 0.0
C1165 C 0.46073 0.92478 0.32855 0.0
O1166 O 0.44656 0.93495 0.312 0.0
Co1167 Co 0.46321 0.94707 0.32477 0.0
O1168 O 0.46181 0.94354 0.3096 0.0
C1169 C 0.44289 0.95503 0.33251 0.0
C1170 C 0.4307 0.925 0.33684 0.0
C1171 C 0.45365 0.93897 0.30598 0.0
O1172 O 0.43848 0.94626 0.33005 0.0
O1173 O 0.45283 0.95653 0.33197 0.0
O1174 O 0.4528 0.91882 0.32601 0.0
O1175 O 0.45834 0.93423 0.33127 0.0
Co1176 Co 0.06932 0.55842 0.67472 0.0
O1177 O 0.0741 0.56335 0.66117 0.0
O1178 O 0.07338 0.57306 0.67557 0.0
C1179 C 0.07802 0.54293 0.67468 0.0
O1180 O 0.06525 0.55622 0.69009 0.0
Co1181 Co 0.0559 0.53815 0.67698 0.0
O1182 O 0.05828 0.54014 0.69232 0.0
C1183 C 0.04654 0.55726 0.66788 0.0
C1184 C 0.07538 0.57248 0.66555 0.0
C1185 C 0.06171 0.54881 0.69602 0.0
O1186 O 0.0545 0.56267 0.671 0.0
O1187 O 0.04609 0.54722 0.66856 0.0
O1188 O 0.08287 0.55148 0.67752 0.0
O1189 O 0.06861 0.54418 0.6712 0.0
Co1190 Co 0.44349 0.07299 0.67393 0.0
O1191 O 0.4382 0.07795 0.66059 0.0
O1192 O 0.42875 0.07655 0.67512 0.0
C1193 C 0.45871 0.08217 0.67392 0.0
O1194 O 0.44606 0.06867 0.68917 0.0
Co1195 Co 0.46415 0.06011 0.67546 0.0
O1196 O 0.462 0.06126 0.69091 0.0
C1197 C 0.44529 0.0506 0.66612 0.0
C1198 C 0.42911 0.07884 0.66516 0.0
C1199 C 0.45345 0.0647 0.69485 0.0
O1200 O 0.43964 0.05811 0.66988 0.0
O1201 O 0.45534 0.0506 0.66647 0.0
O1202 O 0.45004 0.08668 0.67697 0.0
O1203 O 0.45768 0.07282 0.67019 0.0
Co1204 Co 0.93117 0.44404 0.67368 0.0
O1205 O 0.92643 0.43883 0.6602 0.0
O1206 O 0.92707 0.42945 0.67482 0.0
C1207 C 0.92252 0.45957 0.67338 0.0
O1208 O 0.93518 0.44647 0.68901 0.0
Co1209 Co 0.94464 0.46429 0.67574 0.0
O1210 O 0.94232 0.46248 0.69112 0.0
C1211 C 0.95408 0.44497 0.66717 0.0
C1212 C 0.92511 0.4298 0.66479 0.0
C1213 C 0.93882 0.45386 0.69488 0.0
O1214 O 0.946 0.43967 0.67015 0.0
O1215 O 0.95459 0.45501 0.66772 0.0
O1216 O 0.91764 0.45106 0.67631 0.0
O1217 O 0.93194 0.45824 0.66994 0.0
Co1218 Co 0.55868 0.93089 0.67428 0.0
O1219 O 0.56393 0.92596 0.66092 0.0
O1220 O 0.57345 0.92738 0.6754 0.0
C1221 C 0.54349 0.92166 0.67428 0.0
O1222 O 0.55614 0.9352 0.68954 0.0
Co1223 Co 0.53796 0.94368 0.67588 0.0
O1224 O 0.54017 0.94255 0.69132 0.0
C1225 C 0.55677 0.95327 0.66651 0.0
C1226 C 0.57305 0.9251 0.66544 0.0
C1227 C 0.54876 0.93915 0.69524 0.0
O1228 O 0.56247 0.94579 0.67024 0.0
O1229 O 0.54672 0.95323 0.66689 0.0
O1230 O 0.55217 0.91717 0.67733 0.0
O1231 O 0.54449 0.93102 0.67058 0.0
Co1232 Co 0.3277 0.06988 0.44499 0.0
O1233 O 0.34159 0.07391 0.44029 0.0
O1234 O 0.32724 0.07446 0.4305 0.0
C1235 C 0.32826 0.07807 0.46081 0.0
O1236 O 0.31203 0.06679 0.44688 0.0
Co1237 Co 0.32405 0.05618 0.46491 0.0
O1238 O 0.30902 0.05984 0.46283 0.0
C1239 C 0.33254 0.04651 0.44555 0.0
C1240 C 0.33735 0.07581 0.43119 0.0
C1241 C 0.30572 0.06359 0.45414 0.0
O1242 O 0.33053 0.05495 0.44032 0.0
O1243 O 0.33133 0.04583 0.45552 0.0
O1244 O 0.32587 0.08339 0.4524 0.0
O1245 O 0.33096 0.06845 0.45921 0.0
Co1246 Co 0.32815 0.93338 0.55937 0.0
O1247 O 0.34184 0.92893 0.56423 0.0
O1248 O 0.32732 0.92857 0.57378 0.0
C1249 C 0.32882 0.92556 0.54335 0.0
O1250 O 0.31262 0.93692 0.55718 0.0
Co1251 Co 0.32554 0.94772 0.53971 0.0
O1252 O 0.31029 0.94473 0.54149 0.0
C1253 C 0.33483 0.95607 0.5592 0.0
C1254 C 0.33742 0.92705 0.57324 0.0
C1255 C 0.30664 0.94067 0.54991 0.0
O1256 O 0.33127 0.94813 0.56437 0.0
O1257 O 0.33438 0.95675 0.54917 0.0
O1258 O 0.32611 0.92008 0.55157 0.0
O1259 O 0.33175 0.93503 0.54529 0.0
Co1260 Co 0.07147 0.32851 0.55892 0.0
O1261 O 0.07633 0.34199 0.56399 0.0
O1262 O 0.07651 0.32725 0.57322 0.0
C1263 C 0.07903 0.32904 0.54285 0.0
O1264 O 0.06751 0.31314 0.55646 0.0
Co1265 Co 0.05647 0.32703 0.53971 0.0
O1266 O 0.05764 0.31159 0.54185 0.0
C1267 C 0.04847 0.33495 0.55984 0.0
C1268 C 0.07824 0.33733 0.57288 0.0
C1269 C 0.06242 0.30759 0.54969 0.0
O1270 O 0.05692 0.33178 0.56439 0.0
O1271 O 0.04725 0.33481 0.54985 0.0
O1272 O 0.08453 0.32615 0.55099 0.0
O1273 O 0.06972 0.33245 0.54487 0.0
Co1274 Co 0.67308 0.07085 0.56049 0.0
O1275 O 0.6593 0.07478 0.56549 0.0
O1276 O 0.67369 0.07457 0.57526 0.0
C1277 C 0.67262 0.08003 0.54529 0.0
O1278 O 0.68863 0.06753 0.55822 0.0
Co1279 Co 0.67596 0.05827 0.53974 0.0
O1280 O 0.69118 0.06106 0.54198 0.0
C1281 C 0.66678 0.04809 0.55841 0.0
C1282 C 0.66359 0.07604 0.57468 0.0
C1283 C 0.69472 0.06439 0.55075 0.0
O1284 O 0.66997 0.05574 0.56422 0.0
O1285 O 0.6674 0.04819 0.54836 0.0
O1286 O 0.67527 0.08474 0.55398 0.0
O1287 O 0.66961 0.07043 0.54624 0.0
Co1288 Co 0.93211 0.674 0.55815 0.0
O1289 O 0.92736 0.66044 0.56311 0.0
O1290 O 0.92769 0.67495 0.57268 0.0
C1291 C 0.92379 0.67376 0.54244 0.0
O1292 O 0.93602 0.68943 0.55593 0.0
Co1293 Co 0.94597 0.6763 0.53819 0.0
O1294 O 0.94399 0.69165 0.54032 0.0
C1295 C 0.95526 0.668 0.55773 0.0
C1296 C 0.9258 0.66491 0.57216 0.0
C1297 C 0.94008 0.69534 0.54878 0.0
O1298 O 0.94689 0.67052 0.56283 0.0
O1299 O 0.95602 0.6688 0.54772 0.0
O1300 O 0.91871 0.67659 0.55087 0.0
O1301 O 0.9332 0.67038 0.54394 0.0
Co1302 Co 0.67511 0.93026 0.44496 0.0
O1303 O 0.66149 0.92582 0.43983 0.0
O1304 O 0.67596 0.92663 0.43023 0.0
C1305 C 0.67486 0.92104 0.46016 0.0
O1306 O 0.69058 0.93398 0.4472 0.0
Co1307 Co 0.67799 0.94282 0.46565 0.0
O1308 O 0.69322 0.93999 0.46357 0.0
C1309 C 0.66937 0.95338 0.44684 0.0
C1310 C 0.66593 0.92471 0.43069 0.0
C1311 C 0.69671 0.93695 0.45469 0.0
O1312 O 0.67159 0.94528 0.44118 0.0
O1313 O 0.67057 0.95358 0.45683 0.0
O1314 O 0.67767 0.91645 0.45145 0.0
O1315 O 0.67162 0.93058 0.45924 0.0
Co1316 Co 0.07148 0.67442 0.44362 0.0
O1317 O 0.07641 0.66096 0.4386 0.0
O1318 O 0.07597 0.67553 0.42912 0.0
C1319 C 0.07966 0.67417 0.45941 0.0
O1320 O 0.06735 0.68975 0.44598 0.0
Co1321 Co 0.05729 0.67612 0.46341 0.0
O1322 O 0.05884 0.69156 0.46137 0.0
C1323 C 0.04874 0.66733 0.44386 0.0
C1324 C 0.07793 0.6655 0.42958 0.0
C1325 C 0.06294 0.69546 0.45309 0.0
O1326 O 0.0568 0.67079 0.43881 0.0
O1327 O 0.048 0.66763 0.45389 0.0
O1328 O 0.0848 0.67711 0.45105 0.0
O1329 O 0.07032 0.67065 0.45777 0.0
Co1330 Co 0.93285 0.32935 0.44176 0.0
O1331 O 0.92818 0.34287 0.43666 0.0
O1332 O 0.92832 0.32822 0.42728 0.0
C1333 C 0.92466 0.32987 0.45753 0.0
O1334 O 0.93664 0.31393 0.4442 0.0
Co1335 Co 0.94697 0.32743 0.46159 0.0
O1336 O 0.94577 0.31204 0.45924 0.0
C1337 C 0.95595 0.33553 0.44188 0.0
C1338 C 0.92654 0.33828 0.42768 0.0
C1339 C 0.94133 0.30822 0.45112 0.0
O1340 O 0.94761 0.33268 0.4369 0.0
O1341 O 0.95675 0.33507 0.4519 0.0
O1342 O 0.91949 0.32697 0.44918 0.0
O1343 O 0.93408 0.33318 0.4559 0.0
C1344 C 0.10208 0.14762 0.41739 0.0
C1345 C 0.10667 0.15729 0.42013 0.0
C1346 C 0.10814 0.13843 0.41704 0.0
C1347 C 0.13547 0.12861 0.41506 0.0
H1348 H 0.12424 0.1037 0.42856 0.0
C1349 C 0.16132 0.09228 0.4244 0.0
C1350 C 0.1567 0.08224 0.42409 0.0
C1351 C 0.15519 0.10133 0.423 0.0
C1352 C 0.12745 0.11051 0.42459 0.0
H1353 H 0.12129 0.16492 0.42444 0.0
H1354 H 0.13186 0.14891 0.42376 0.0
H1355 H 0.11363 0.11961 0.42769 0.0
H1356 H 0.14209 0.07383 0.4217 0.0
H1357 H 0.13146 0.08955 0.41895 0.0
H1358 H 0.14927 0.11952 0.4119 0.0
C1359 C 0.12358 0.14843 0.42185 0.0
C1360 C 0.12136 0.11966 0.42412 0.0
C1361 C 0.11751 0.1576 0.42229 0.0
C1362 C 0.14588 0.08145 0.42203 0.0
C1363 C 0.13977 0.09049 0.42054 0.0
C1364 C 0.14154 0.11943 0.41545 0.0
C1365 C 0.11895 0.1387 0.41933 0.0
C1366 C 0.12531 0.12885 0.41942 0.0
C1367 C 0.1443 0.10058 0.42117 0.0
C1368 C 0.13766 0.11026 0.4203 0.0
H1369 H 0.09376 0.1471 0.41568 0.0
H1370 H 0.10434 0.13109 0.41496 0.0
H1371 H 0.1387 0.13551 0.41127 0.0
H1372 H 0.16962 0.09319 0.42604 0.0
H1373 H 0.15898 0.10892 0.42368 0.0
C1374 C 0.85394 0.10402 0.41476 0.0
C1375 C 0.84427 0.10855 0.41759 0.0
C1376 C 0.86308 0.11014 0.4143 0.0
C1377 C 0.87278 0.13763 0.41264 0.0
H1378 H 0.89767 0.1263 0.42606 0.0
C1379 C 0.90883 0.16348 0.42316 0.0
C1380 C 0.91889 0.15894 0.42276 0.0
C1381 C 0.89983 0.15736 0.42143 0.0
C1382 C 0.89087 0.12955 0.42211 0.0
H1383 H 0.83658 0.12315 0.42185 0.0
H1384 H 0.85249 0.13383 0.42101 0.0
H1385 H 0.88187 0.11559 0.42486 0.0
H1386 H 0.9274 0.14448 0.41981 0.0
H1387 H 0.91178 0.13388 0.41653 0.0
H1388 H 0.88177 0.1516 0.40989 0.0
C1389 C 0.85302 0.12555 0.41911 0.0
C1390 C 0.88178 0.12339 0.42144 0.0
C1391 C 0.8439 0.11941 0.41964 0.0
C1392 C 0.91976 0.14822 0.42024 0.0
C1393 C 0.91078 0.14212 0.41844 0.0
C1394 C 0.8819 0.14377 0.41325 0.0
C1395 C 0.86276 0.12097 0.41659 0.0
C1396 C 0.87259 0.12737 0.41678 0.0
C1397 C 0.90067 0.14655 0.4192 0.0
C1398 C 0.89106 0.13986 0.41807 0.0
H1399 H 0.85451 0.09568 0.41313 0.0
H1400 H 0.87043 0.10639 0.41221 0.0
H1401 H 0.86587 0.14089 0.40888 0.0
H1402 H 0.90786 0.17171 0.42514 0.0
H1403 H 0.8922 0.16106 0.42221 0.0
C1404 C 0.85681 0.9216 0.42205 0.0
C1405 C 0.84597 0.92062 0.42394 0.0
C1406 C 0.86309 0.91267 0.42057 0.0
C1407 C 0.86191 0.88378 0.41516 0.0
H1408 H 0.88951 0.88387 0.42809 0.0
C1409 C 0.88616 0.84582 0.42202 0.0
C1410 C 0.89705 0.84623 0.42017 0.0
C1411 C 0.88004 0.85495 0.42162 0.0
C1412 C 0.88188 0.88375 0.42432 0.0
H1413 H 0.8332 0.90945 0.42555 0.0
H1414 H 0.84413 0.89391 0.42318 0.0
H1415 H 0.87865 0.89962 0.42885 0.0
H1416 H 0.91003 0.8566 0.41635 0.0
H1417 H 0.89935 0.87256 0.41569 0.0
H1418 H 0.8651 0.86779 0.41087 0.0
C1419 C 0.8478 0.90157 0.42264 0.0
C1420 C 0.87563 0.89281 0.42473 0.0
C1421 C 0.84151 0.91051 0.42405 0.0
C1422 C 0.90166 0.856 0.41782 0.0
C1423 C 0.89555 0.86516 0.4175 0.0
C1424 C 0.86813 0.87469 0.41482 0.0
C1425 C 0.85871 0.90251 0.42102 0.0
C1426 C 0.86553 0.89295 0.4202 0.0
C1427 C 0.88466 0.86476 0.41943 0.0
C1428 C 0.87818 0.87454 0.41944 0.0
H1429 H 0.8605 0.92927 0.42187 0.0
H1430 H 0.87141 0.91376 0.41914 0.0
H1431 H 0.85427 0.88361 0.41142 0.0
H1432 H 0.88236 0.83843 0.42387 0.0
H1433 H 0.87171 0.85437 0.42326 0.0
C1434 C 0.09434 0.83817 0.42284 0.0
C1435 C 0.08441 0.84291 0.42183 0.0
C1436 C 0.10353 0.84409 0.42158 0.0
C1437 C 0.11408 0.86905 0.41078 0.0
H1438 H 0.13562 0.86538 0.43201 0.0
C1439 C 0.14886 0.89821 0.41558 0.0
C1440 C 0.15864 0.8942 0.41876 0.0
C1441 C 0.13997 0.8917 0.41522 0.0
C1442 C 0.12979 0.86641 0.4259 0.0
H1443 H 0.07637 0.85753 0.41834 0.0
H1444 H 0.0924 0.86784 0.41607 0.0
H1445 H 0.11998 0.85439 0.43241 0.0
H1446 H 0.16683 0.88012 0.42378 0.0
H1447 H 0.15146 0.86874 0.42291 0.0
H1448 H 0.12391 0.88106 0.40424 0.0
C1449 C 0.09309 0.85953 0.41782 0.0
C1450 C 0.12079 0.8601 0.42615 0.0
C1451 C 0.08389 0.85363 0.41916 0.0
C1452 C 0.15939 0.88348 0.42135 0.0
C1453 C 0.15054 0.87697 0.42093 0.0
C1454 C 0.12313 0.87533 0.41049 0.0
C1455 C 0.10303 0.85489 0.41921 0.0
C1456 C 0.11279 0.86136 0.41863 0.0
C1457 C 0.14066 0.881 0.41799 0.0
C1458 C 0.13111 0.87414 0.41808 0.0
H1459 H 0.09502 0.82994 0.4249 0.0
H1460 H 0.11106 0.84024 0.42257 0.0
H1461 H 0.10812 0.87015 0.4048 0.0
H1462 H 0.148 0.90644 0.41358 0.0
H1463 H 0.1325 0.89515 0.41305 0.0
C1464 C 0.14689 0.91906 0.58099 0.0
C1465 C 0.15775 0.91842 0.579 0.0
C1466 C 0.14087 0.90993 0.58233 0.0
C1467 C 0.14067 0.88199 0.57492 0.0
H1468 H 0.11854 0.87953 0.59573 0.0
C1469 C 0.11709 0.84349 0.57961 0.0
C1470 C 0.10628 0.84425 0.58173 0.0
C1471 C 0.12355 0.85239 0.58007 0.0
C1472 C 0.1246 0.88012 0.58978 0.0
H1473 H 0.17084 0.90766 0.57717 0.0
H1474 H 0.16034 0.89175 0.57948 0.0
H1475 H 0.12947 0.89531 0.59527 0.0
H1476 H 0.09378 0.85498 0.58608 0.0
H1477 H 0.10497 0.87055 0.58662 0.0
H1478 H 0.1357 0.86699 0.56922 0.0
C1479 C 0.15647 0.89932 0.57994 0.0
C1480 C 0.13089 0.88917 0.58955 0.0
C1481 C 0.1625 0.90845 0.57869 0.0
C1482 C 0.10209 0.85411 0.58445 0.0
C1483 C 0.10854 0.86304 0.58481 0.0
C1484 C 0.13433 0.87299 0.57509 0.0
C1485 C 0.14555 0.89994 0.58161 0.0
C1486 C 0.13901 0.89021 0.58212 0.0
C1487 C 0.11936 0.86233 0.58255 0.0
C1488 C 0.1262 0.87191 0.58252 0.0
H1489 H 0.14298 0.92662 0.58126 0.0
H1490 H 0.13248 0.9107 0.58354 0.0
H1491 H 0.14672 0.88261 0.56897 0.0
H1492 H 0.12059 0.836 0.57757 0.0
H1493 H 0.13186 0.85144 0.57849 0.0
C1494 C 0.09259 0.16383 0.58185 0.0
C1495 C 0.08265 0.15902 0.58149 0.0
C1496 C 0.10168 0.15781 0.58336 0.0
C1497 C 0.11153 0.13178 0.5922 0.0
H1498 H 0.13455 0.13779 0.57316 0.0
C1499 C 0.14673 0.10328 0.58643 0.0
C1500 C 0.15669 0.10764 0.58447 0.0
C1501 C 0.1378 0.10971 0.58697 0.0
C1502 C 0.12829 0.13608 0.57868 0.0
H1503 H 0.07444 0.14415 0.5829 0.0
H1504 H 0.09028 0.13366 0.58559 0.0
H1505 H 0.11892 0.14878 0.57286 0.0
H1506 H 0.16513 0.12222 0.58189 0.0
H1507 H 0.14967 0.13343 0.58309 0.0
H1508 H 0.12092 0.11906 0.59801 0.0
C1509 C 0.09106 0.14209 0.58472 0.0
C1510 C 0.1193 0.1424 0.57849 0.0
C1511 C 0.08197 0.14811 0.58315 0.0
C1512 C 0.15756 0.11859 0.58334 0.0
C1513 C 0.14866 0.12502 0.58395 0.0
C1514 C 0.12057 0.12548 0.59244 0.0
C1515 C 0.10105 0.14684 0.58461 0.0
C1516 C 0.11078 0.14032 0.58521 0.0
C1517 C 0.13863 0.12067 0.58563 0.0
C1518 C 0.12907 0.12752 0.58564 0.0
H1519 H 0.0934 0.17222 0.58061 0.0
H1520 H 0.10923 0.16174 0.5834 0.0
H1521 H 0.10515 0.13002 0.59756 0.0
H1522 H 0.14578 0.09486 0.58729 0.0
H1523 H 0.13021 0.10604 0.58815 0.0
C1524 C 0.88331 0.15816 0.58253 0.0
C1525 C 0.89428 0.15774 0.58374 0.0
C1526 C 0.87725 0.14898 0.58295 0.0
C1527 C 0.8792 0.12027 0.57925 0.0
H1528 H 0.852 0.11986 0.59301 0.0
C1529 C 0.85465 0.08215 0.5818 0.0
C1530 C 0.84378 0.08301 0.58003 0.0
C1531 C 0.86085 0.09113 0.58323 0.0
C1532 C 0.85953 0.11985 0.58904 0.0
H1533 H 0.90749 0.14733 0.58651 0.0
H1534 H 0.89692 0.1313 0.58727 0.0
H1535 H 0.86275 0.13574 0.59366 0.0
H1536 H 0.83086 0.09402 0.57861 0.0
H1537 H 0.84166 0.1097 0.58097 0.0
H1538 H 0.87594 0.10448 0.57445 0.0
C1539 C 0.893 0.13873 0.5859 0.0
C1540 C 0.86571 0.12897 0.58943 0.0
C1541 C 0.89905 0.14793 0.58554 0.0
C1542 C 0.8392 0.09307 0.58001 0.0
C1543 C 0.8454 0.10207 0.5814 0.0
C1544 C 0.87301 0.11117 0.57883 0.0
C1545 C 0.88202 0.13913 0.58455 0.0
C1546 C 0.8756 0.12931 0.58449 0.0
C1547 C 0.85634 0.10123 0.58288 0.0
C1548 C 0.86307 0.11084 0.58367 0.0
H1549 H 0.87938 0.16558 0.58112 0.0
H1550 H 0.86885 0.14957 0.58175 0.0
H1551 H 0.88669 0.1203 0.57522 0.0
H1552 H 0.85843 0.07452 0.5819 0.0
H1553 H 0.8692 0.09015 0.58455 0.0
C1554 C 0.90846 0.83778 0.57991 0.0
C1555 C 0.91836 0.84264 0.58054 0.0
C1556 C 0.89924 0.84365 0.58121 0.0
C1557 C 0.88882 0.86898 0.59134 0.0
H1558 H 0.86656 0.86412 0.57111 0.0
C1559 C 0.85386 0.89774 0.58602 0.0
C1560 C 0.84394 0.8935 0.58361 0.0
C1561 C 0.86277 0.89129 0.58642 0.0
C1562 C 0.87261 0.86549 0.57694 0.0
H1563 H 0.92634 0.85745 0.58335 0.0
H1564 H 0.91028 0.86767 0.58563 0.0
H1565 H 0.88228 0.85324 0.57067 0.0
H1566 H 0.83557 0.8791 0.58002 0.0
H1567 H 0.85103 0.86782 0.58092 0.0
H1568 H 0.87915 0.88126 0.5976 0.0
C1569 C 0.90962 0.85931 0.58419 0.0
C1570 C 0.88165 0.85924 0.57668 0.0
C1571 C 0.91884 0.85344 0.58284 0.0
C1572 C 0.8431 0.88263 0.58184 0.0
C1573 C 0.85199 0.87617 0.58229 0.0
C1574 C 0.87975 0.87521 0.59164 0.0
C1575 C 0.8997 0.85452 0.58321 0.0
C1576 C 0.8899 0.86093 0.58384 0.0
C1577 C 0.86198 0.88042 0.58446 0.0
C1578 C 0.87154 0.87359 0.5844 0.0
H1579 H 0.90781 0.82947 0.57816 0.0
H1580 H 0.89174 0.83968 0.58056 0.0
H1581 H 0.89497 0.87041 0.59705 0.0
H1582 H 0.85479 0.9061 0.58738 0.0
H1583 H 0.87032 0.89488 0.58799 0.0
C1584 C 0.4169 0.10244 0.14783 0.0
C1585 C 0.4195 0.10707 0.15752 0.0
C1586 C 0.41631 0.10853 0.13867 0.0
C1587 C 0.41366 0.13594 0.12902 0.0
H1588 H 0.42728 0.12512 0.10401 0.0
C1589 C 0.42301 0.1622 0.09294 0.0
C1590 C 0.42268 0.15767 0.08287 0.0
C1591 C 0.42156 0.15601 0.10194 0.0
C1592 C 0.42327 0.12822 0.11084 0.0
H1593 H 0.42328 0.12181 0.16521 0.0
H1594 H 0.42222 0.13242 0.14927 0.0
H1595 H 0.42658 0.11436 0.11981 0.0
H1596 H 0.42017 0.14314 0.07434 0.0
H1597 H 0.41738 0.1324 0.08996 0.0
H1598 H 0.41036 0.14981 0.12006 0.0
C1599 C 0.42059 0.12409 0.14874 0.0
C1600 C 0.42289 0.12203 0.11994 0.0
C1601 C 0.42125 0.11798 0.15788 0.0
C1602 C 0.42052 0.14687 0.08198 0.0
C1603 C 0.41901 0.14069 0.09097 0.0
C1604 C 0.41399 0.14212 0.1199 0.0
C1605 C 0.41824 0.11942 0.13899 0.0
C1606 C 0.41816 0.12584 0.12917 0.0
C1607 C 0.41969 0.14513 0.10109 0.0
C1608 C 0.41888 0.13838 0.1107 0.0
H1609 H 0.4155 0.09405 0.14728 0.0
H1610 H 0.41436 0.1047 0.13132 0.0
H1611 H 0.40983 0.13907 0.13595 0.0
H1612 H 0.42472 0.17049 0.09391 0.0
H1613 H 0.42228 0.15971 0.10957 0.0
C1614 C 0.89885 0.41852 0.14531 0.0
C1615 C 0.89394 0.42005 0.15509 0.0
C1616 C 0.89292 0.41832 0.13603 0.0
C1617 C 0.86585 0.41464 0.12583 0.0
H1618 H 0.87601 0.43054 0.10191 0.0
C1619 C 0.83938 0.42456 0.09013 0.0
C1620 C 0.84398 0.42506 0.08009 0.0
C1621 C 0.84559 0.42301 0.09908 0.0
C1622 C 0.87311 0.4259 0.10843 0.0
H1623 H 0.87892 0.42239 0.1628 0.0
H1624 H 0.8686 0.42202 0.14664 0.0
H1625 H 0.88664 0.4295 0.1178 0.0
H1626 H 0.8587 0.42398 0.07158 0.0
H1627 H 0.8695 0.42104 0.08715 0.0
H1628 H 0.85232 0.41104 0.11649 0.0
C1629 C 0.87702 0.42091 0.14613 0.0
C1630 C 0.87922 0.42533 0.11757 0.0
C1631 C 0.88295 0.42118 0.1554 0.0
C1632 C 0.8549 0.42367 0.0792 0.0
C1633 C 0.86111 0.42207 0.08815 0.0
C1634 C 0.85976 0.41517 0.11667 0.0
C1635 C 0.88193 0.41957 0.13632 0.0
C1636 C 0.87563 0.41977 0.12642 0.0
C1637 C 0.85657 0.42188 0.09824 0.0
C1638 C 0.86326 0.42088 0.10786 0.0
H1639 H 0.9073 0.41763 0.1448 0.0
H1640 H 0.89695 0.41717 0.12862 0.0
H1641 H 0.86291 0.41016 0.13245 0.0
H1642 H 0.83099 0.42566 0.09111 0.0
H1643 H 0.8418 0.42305 0.1067 0.0
C1644 C 0.58101 0.88184 0.15733 0.0
C1645 C 0.58245 0.89279 0.15693 0.0
C1646 C 0.58152 0.87576 0.14816 0.0
C1647 C 0.57836 0.87777 0.1194 0.0
H1648 H 0.59178 0.85041 0.11913 0.0
C1649 C 0.58091 0.85333 0.08124 0.0
C1650 C 0.57906 0.84246 0.08205 0.0
C1651 C 0.58239 0.85947 0.09025 0.0
C1652 C 0.5879 0.85798 0.11908 0.0
H1653 H 0.5857 0.90593 0.14657 0.0
H1654 H 0.58658 0.89533 0.13057 0.0
H1655 H 0.59229 0.86109 0.13506 0.0
H1656 H 0.57757 0.82949 0.09299 0.0
H1657 H 0.57998 0.84019 0.10872 0.0
H1658 H 0.57377 0.87462 0.10354 0.0
C1659 C 0.58499 0.89144 0.13797 0.0
C1660 C 0.58821 0.86412 0.12822 0.0
C1661 C 0.58455 0.89751 0.14716 0.0
C1662 C 0.57904 0.83783 0.09208 0.0
C1663 C 0.58046 0.84398 0.10111 0.0
C1664 C 0.578 0.87162 0.11028 0.0
C1665 C 0.58341 0.8805 0.13834 0.0
C1666 C 0.58341 0.87408 0.12851 0.0
C1667 C 0.58199 0.85492 0.10034 0.0
C1668 C 0.58273 0.86161 0.10999 0.0
H1669 H 0.57936 0.87795 0.16472 0.0
H1670 H 0.58015 0.86738 0.14873 0.0
H1671 H 0.57443 0.88532 0.11938 0.0
H1672 H 0.58102 0.85715 0.07363 0.0
H1673 H 0.58376 0.86782 0.08931 0.0
C1674 C 0.10373 0.58522 0.14659 0.0
C1675 C 0.10853 0.58342 0.15638 0.0
C1676 C 0.10975 0.58568 0.13738 0.0
C1677 C 0.13697 0.58953 0.12755 0.0
H1678 H 0.12686 0.5745 0.10304 0.0
C1679 C 0.16358 0.58023 0.09172 0.0
C1680 C 0.15902 0.58 0.08165 0.0
C1681 C 0.15735 0.58173 0.10068 0.0
C1682 C 0.12975 0.5789 0.10973 0.0
H1683 H 0.12347 0.58087 0.16417 0.0
H1684 H 0.13397 0.58168 0.14814 0.0
H1685 H 0.11613 0.57511 0.11887 0.0
H1686 H 0.14437 0.5816 0.0731 0.0
H1687 H 0.13356 0.58446 0.08866 0.0
H1688 H 0.15062 0.59329 0.11843 0.0
C1689 C 0.12555 0.5828 0.14757 0.0
C1690 C 0.12358 0.57923 0.11884 0.0
C1691 C 0.11952 0.58228 0.15676 0.0
C1692 C 0.14814 0.58169 0.08073 0.0
C1693 C 0.14192 0.58324 0.08968 0.0
C1694 C 0.14313 0.58924 0.11842 0.0
C1695 C 0.12074 0.58441 0.13774 0.0
C1696 C 0.12714 0.58448 0.1279 0.0
C1697 C 0.1464 0.58308 0.0998 0.0
C1698 C 0.13964 0.58385 0.1094 0.0
H1699 H 0.09528 0.58614 0.14601 0.0
H1700 H 0.1058 0.58705 0.12996 0.0
H1701 H 0.13989 0.59377 0.13433 0.0
H1702 H 0.17193 0.57889 0.09272 0.0
H1703 H 0.1611 0.58144 0.10832 0.0
C1704 C 0.4165 0.89963 0.8552 0.0
C1705 C 0.4187 0.89524 0.8453 0.0
C1706 C 0.41615 0.89328 0.86421 0.0
C1707 C 0.42559 0.86744 0.87406 0.0
H1708 H 0.40631 0.87282 0.89704 0.0
C1709 C 0.42299 0.83966 0.90983 0.0
C1710 C 0.4228 0.84444 0.9198 0.0
C1711 C 0.42157 0.84565 0.90071 0.0
C1712 C 0.41179 0.87126 0.89071 0.0
H1713 H 0.42188 0.88067 0.83706 0.0
H1714 H 0.42104 0.8696 0.85264 0.0
H1715 H 0.40546 0.88362 0.88118 0.0
H1716 H 0.42065 0.85923 0.92799 0.0
H1717 H 0.41816 0.86968 0.91207 0.0
H1718 H 0.43192 0.8551 0.88357 0.0
C1719 C 0.41983 0.87798 0.85354 0.0
C1720 C 0.41132 0.87747 0.88162 0.0
C1721 C 0.42024 0.88432 0.84457 0.0
C1722 C 0.42083 0.8553 0.92044 0.0
C1723 C 0.41936 0.86128 0.91131 0.0
C1724 C 0.42602 0.86122 0.88311 0.0
C1725 C 0.41795 0.88238 0.86352 0.0
C1726 C 0.41823 0.87566 0.87317 0.0
C1727 C 0.41989 0.85657 0.90132 0.0
C1728 C 0.41915 0.86305 0.89157 0.0
H1729 H 0.41532 0.90802 0.85605 0.0
H1730 H 0.41479 0.89699 0.87175 0.0
H1731 H 0.4312 0.86593 0.86784 0.0
H1732 H 0.42448 0.83131 0.90905 0.0
H1733 H 0.42188 0.84173 0.89316 0.0
C1734 C 0.1169 0.42801 0.8472 0.0
C1735 C 0.10813 0.42137 0.84613 0.0
C1736 C 0.12285 0.42797 0.85646 0.0
C1737 C 0.13116 0.41213 0.87863 0.0
H1738 H 0.13459 0.43851 0.89356 0.0
C1739 C 0.16138 0.42029 0.91249 0.0
C1740 C 0.15701 0.4247 0.92165 0.0
C1741 C 0.15524 0.41902 0.90341 0.0
C1742 C 0.13369 0.43109 0.88947 0.0
H1743 H 0.09888 0.40931 0.85381 0.0
H1744 H 0.10956 0.409 0.86989 0.0
H1745 H 0.12436 0.43801 0.87724 0.0
H1746 H 0.14277 0.43114 0.92846 0.0
H1747 H 0.13221 0.42921 0.91252 0.0
H1748 H 0.14076 0.40528 0.89074 0.0
C1749 C 0.1117 0.41431 0.86359 0.0
C1750 C 0.12788 0.43082 0.88013 0.0
C1751 C 0.10558 0.41452 0.85442 0.0
C1752 C 0.14636 0.42766 0.92157 0.0
C1753 C 0.14032 0.42661 0.91244 0.0
C1754 C 0.13719 0.41245 0.88786 0.0
C1755 C 0.12032 0.42113 0.86474 0.0
C1756 C 0.12652 0.42133 0.87464 0.0
C1757 C 0.14472 0.42237 0.90324 0.0
C1758 C 0.13845 0.42193 0.8934 0.0
H1759 H 0.11904 0.43341 0.84097 0.0
H1760 H 0.12948 0.43328 0.85713 0.0
H1761 H 0.13025 0.40472 0.87452 0.0
H1762 H 0.16956 0.41796 0.91231 0.0
H1763 H 0.15883 0.41577 0.89641 0.0
C1764 C 0.58305 0.12002 0.84621 0.0
C1765 C 0.58436 0.10905 0.84666 0.0
C1766 C 0.5834 0.1261 0.85537 0.0
C1767 C 0.57985 0.12418 0.88414 0.0
H1768 H 0.59317 0.1516 0.88437 0.0
C1769 C 0.58232 0.14882 0.92219 0.0
C1770 C 0.58026 0.15964 0.92133 0.0
C1771 C 0.58384 0.14265 0.9132 0.0
C1772 C 0.58933 0.144 0.88443 0.0
H1773 H 0.58724 0.0959 0.85712 0.0
H1774 H 0.5879 0.10652 0.87311 0.0
H1775 H 0.59386 0.14082 0.86852 0.0
H1776 H 0.57845 0.17251 0.91031 0.0
H1777 H 0.58098 0.16175 0.89463 0.0
H1778 H 0.57516 0.12739 0.89997 0.0
C1779 C 0.58649 0.11041 0.86567 0.0
C1780 C 0.58973 0.13781 0.87532 0.0
C1781 C 0.58617 0.10433 0.85649 0.0
C1782 C 0.58007 0.16421 0.91126 0.0
C1783 C 0.58156 0.15803 0.90226 0.0
C1784 C 0.57942 0.13037 0.89323 0.0
C1785 C 0.58504 0.12138 0.86524 0.0
C1786 C 0.58496 0.12784 0.87504 0.0
C1787 C 0.58329 0.14712 0.9031 0.0
C1788 C 0.58411 0.1404 0.8935 0.0
H1789 H 0.58162 0.12391 0.83878 0.0
H1790 H 0.58212 0.1345 0.85475 0.0
H1791 H 0.57593 0.11662 0.88417 0.0
H1792 H 0.58256 0.14504 0.92982 0.0
H1793 H 0.58535 0.13433 0.91419 0.0
C1794 C 0.83874 0.57817 0.91075 0.0
C1795 C 0.84355 0.57827 0.9207 0.0
C1796 C 0.84471 0.57963 0.90162 0.0
C1797 C 0.87025 0.58952 0.89159 0.0
H1798 H 0.86481 0.57035 0.86853 0.0
C1799 C 0.89831 0.5855 0.85572 0.0
C1800 C 0.89385 0.58332 0.84585 0.0
C1801 C 0.89205 0.58569 0.86479 0.0
C1802 C 0.86635 0.5759 0.8748 0.0
H1803 H 0.85838 0.58029 0.92886 0.0
H1804 H 0.86878 0.58287 0.91292 0.0
H1805 H 0.8541 0.56941 0.88434 0.0
H1806 H 0.87925 0.58001 0.83772 0.0
H1807 H 0.86832 0.5806 0.85341 0.0
H1808 H 0.8825 0.59603 0.88202 0.0
C1809 C 0.86038 0.58171 0.91218 0.0
C1810 C 0.8602 0.57534 0.8839 0.0
C1811 C 0.85442 0.58019 0.92132 0.0
C1812 C 0.88296 0.58164 0.84521 0.0
C1813 C 0.87669 0.5819 0.85424 0.0
C1814 C 0.87638 0.59013 0.88244 0.0
C1815 C 0.85563 0.58128 0.9022 0.0
C1816 C 0.86207 0.58212 0.89242 0.0
C1817 C 0.88116 0.58375 0.8642 0.0
C1818 C 0.87453 0.58331 0.87392 0.0
H1819 H 0.83038 0.57673 0.90998 0.0
H1820 H 0.84076 0.5794 0.89408 0.0
H1821 H 0.87185 0.59493 0.89796 0.0
H1822 H 0.90669 0.58678 0.8565 0.0
H1823 H 0.89581 0.58703 0.87231 0.0
C1824 C 0.14642 0.41636 0.10434 0.0
C1825 C 0.15602 0.41933 0.10894 0.0
C1826 C 0.13721 0.41592 0.11037 0.0
C1827 C 0.12737 0.41423 0.13775 0.0
H1828 H 0.10228 0.42717 0.1263 0.0
C1829 C 0.09106 0.42389 0.1635 0.0
C1830 C 0.08101 0.42334 0.15894 0.0
C1831 C 0.10009 0.42239 0.15738 0.0
C1832 C 0.10914 0.42335 0.12958 0.0
H1833 H 0.16351 0.42395 0.12354 0.0
H1834 H 0.14748 0.42313 0.13406 0.0
H1835 H 0.11817 0.42628 0.11567 0.0
H1836 H 0.07258 0.42041 0.14443 0.0
H1837 H 0.08827 0.41751 0.13383 0.0
H1838 H 0.11836 0.41127 0.15166 0.0
C1839 C 0.14706 0.4211 0.1258 0.0
C1840 C 0.11828 0.42286 0.12347 0.0
C1841 C 0.15625 0.42162 0.11975 0.0
C1842 C 0.0802 0.42093 0.14818 0.0
C1843 C 0.08922 0.41936 0.14208 0.0
C1844 C 0.1182 0.41465 0.14385 0.0
C1845 C 0.13741 0.41836 0.12117 0.0
C1846 C 0.12754 0.41839 0.12751 0.0
C1847 C 0.09932 0.42024 0.14655 0.0
C1848 C 0.10897 0.4193 0.13989 0.0
H1849 H 0.14597 0.41455 0.09604 0.0
H1850 H 0.12993 0.41368 0.10658 0.0
H1851 H 0.13433 0.4106 0.14106 0.0
H1852 H 0.09197 0.42579 0.17175 0.0
H1853 H 0.10769 0.42327 0.16111 0.0
C1854 C 0.09188 0.57959 0.83889 0.0
C1855 C 0.08199 0.57979 0.84381 0.0
C1856 C 0.10109 0.58093 0.84475 0.0
C1857 C 0.11144 0.59044 0.87039 0.0
H1858 H 0.13441 0.57137 0.86429 0.0
C1859 C 0.14754 0.58562 0.898 0.0
C1860 C 0.1574 0.58387 0.89333 0.0
C1861 C 0.13838 0.58585 0.89186 0.0
C1862 C 0.12815 0.57688 0.86602 0.0
H1863 H 0.07404 0.58188 0.85874 0.0
H1864 H 0.0901 0.58422 0.86897 0.0
H1865 H 0.11849 0.57069 0.85372 0.0
H1866 H 0.16539 0.5813 0.8785 0.0
H1867 H 0.14953 0.5819 0.86781 0.0
H1868 H 0.12111 0.5966 0.88274 0.0
C1869 C 0.09074 0.58308 0.86056 0.0
C1870 C 0.119 0.57648 0.85994 0.0
C1871 C 0.08152 0.5817 0.85469 0.0
C1872 C 0.15792 0.5826 0.88237 0.0
C1873 C 0.1488 0.58287 0.87624 0.0
C1874 C 0.12062 0.59086 0.87647 0.0
C1875 C 0.10066 0.58254 0.85569 0.0
C1876 C 0.11051 0.58323 0.86205 0.0
C1877 C 0.13888 0.58436 0.8809 0.0
C1878 C 0.12911 0.58407 0.87438 0.0
H1879 H 0.09253 0.57815 0.83052 0.0
H1880 H 0.10858 0.58064 0.84072 0.0
H1881 H 0.1051 0.59583 0.87217 0.0
H1882 H 0.14685 0.58659 0.90643 0.0
H1883 H 0.13089 0.58691 0.89576 0.0
C1884 C 0.42456 0.09381 0.83899 0.0
C1885 C 0.42398 0.08373 0.84349 0.0
C1886 C 0.42299 0.10281 0.84515 0.0
C1887 C 0.42377 0.11163 0.873 0.0
H1888 H 0.41086 0.13686 0.8618 0.0
C1889 C 0.41657 0.14839 0.89881 0.0
C1890 C 0.41943 0.1581 0.89438 0.0
C1891 C 0.41614 0.13931 0.8926 0.0
C1892 C 0.41454 0.12989 0.86503 0.0
H1893 H 0.42088 0.07521 0.85792 0.0
H1894 H 0.41786 0.09084 0.86857 0.0
H1895 H 0.41172 0.12103 0.85099 0.0
H1896 H 0.42382 0.16592 0.87988 0.0
H1897 H 0.42303 0.1501 0.86906 0.0
H1898 H 0.42659 0.1205 0.88703 0.0
C1899 C 0.4198 0.09184 0.86035 0.0
C1900 C 0.41506 0.1208 0.85881 0.0
C1901 C 0.42144 0.08286 0.85421 0.0
C1902 C 0.42157 0.15857 0.88355 0.0
C1903 C 0.42107 0.1495 0.87732 0.0
C1904 C 0.42319 0.12069 0.87922 0.0
C1905 C 0.42073 0.10196 0.85595 0.0
C1906 C 0.41975 0.11156 0.86269 0.0
C1907 C 0.41849 0.13973 0.8818 0.0
C1908 C 0.41864 0.12996 0.8753 0.0
H1909 H 0.42656 0.09477 0.83077 0.0
H1910 H 0.42389 0.11044 0.84148 0.0
H1911 H 0.42763 0.10476 0.87622 0.0
H1912 H 0.41487 0.14775 0.90713 0.0
H1913 H 0.41399 0.13193 0.89627 0.0
C1914 C 0.85561 0.41606 0.89737 0.0
C1915 C 0.84596 0.41861 0.89262 0.0
C1916 C 0.86483 0.4155 0.89137 0.0
C1917 C 0.87473 0.41277 0.86407 0.0
H1918 H 0.89967 0.42632 0.87514 0.0
C1919 C 0.91112 0.42196 0.83824 0.0
C1920 C 0.92114 0.42153 0.84288 0.0
C1921 C 0.90205 0.42057 0.84432 0.0
C1922 C 0.89285 0.42233 0.87197 0.0
H1923 H 0.83841 0.42235 0.87781 0.0
H1924 H 0.85446 0.42135 0.86736 0.0
H1925 H 0.88374 0.42573 0.88572 0.0
H1926 H 0.92949 0.41888 0.8575 0.0
H1927 H 0.91372 0.41619 0.86805 0.0
H1928 H 0.88383 0.40938 0.85031 0.0
C1929 C 0.85491 0.41973 0.87571 0.0
C1930 C 0.88369 0.42201 0.87806 0.0
C1931 C 0.8457 0.42036 0.88171 0.0
C1932 C 0.92189 0.41931 0.85368 0.0
C1933 C 0.91283 0.41786 0.85975 0.0
C1934 C 0.88392 0.41304 0.858 0.0
C1935 C 0.86461 0.4174 0.88048 0.0
C1936 C 0.87449 0.4173 0.87416 0.0
C1937 C 0.90277 0.41865 0.85521 0.0
C1938 C 0.89309 0.4179 0.86183 0.0
H1939 H 0.85608 0.41466 0.90575 0.0
H1940 H 0.87214 0.41357 0.89528 0.0
H1941 H 0.86782 0.40895 0.86088 0.0
H1942 H 0.91026 0.42371 0.82995 0.0
H1943 H 0.89447 0.42135 0.84054 0.0
C1944 C 0.57955 0.91118 0.83889 0.0
C1945 C 0.57985 0.92123 0.84349 0.0
C1946 C 0.58094 0.90215 0.84504 0.0
C1947 C 0.57879 0.89306 0.8727 0.0
H1948 H 0.59271 0.86814 0.86205 0.0
C1949 C 0.58499 0.85605 0.89851 0.0
C1950 C 0.58286 0.84631 0.89375 0.0
C1951 C 0.58549 0.86525 0.89247 0.0
C1952 C 0.58873 0.87501 0.86512 0.0
H1953 H 0.58226 0.92966 0.85811 0.0
H1954 H 0.58492 0.91396 0.86877 0.0
H1955 H 0.59225 0.88406 0.85135 0.0
H1956 H 0.57976 0.83858 0.87887 0.0
H1957 H 0.58062 0.85459 0.86837 0.0
H1958 H 0.57524 0.88401 0.88644 0.0
C1959 C 0.58337 0.91302 0.86045 0.0
C1960 C 0.58846 0.88415 0.85897 0.0
C1961 C 0.58194 0.92204 0.85431 0.0
C1962 C 0.58144 0.84595 0.88279 0.0
C1963 C 0.58199 0.85513 0.87675 0.0
C1964 C 0.5791 0.88394 0.87885 0.0
C1965 C 0.5827 0.90293 0.85595 0.0
C1966 C 0.58342 0.89329 0.86265 0.0
C1967 C 0.58393 0.86493 0.88152 0.0
C1968 C 0.58401 0.87477 0.87512 0.0
H1969 H 0.5779 0.91027 0.83059 0.0
H1970 H 0.58026 0.89454 0.84129 0.0
H1971 H 0.57467 0.89986 0.87574 0.0
H1972 H 0.58614 0.85661 0.90693 0.0
H1973 H 0.58713 0.87264 0.89639 0.0
C1974 C 0.91094 0.57978 0.16411 0.0
C1975 C 0.92085 0.57974 0.15922 0.0
C1976 C 0.90177 0.58128 0.1582 0.0
C1977 C 0.89169 0.59091 0.13254 0.0
H1978 H 0.86851 0.572 0.13836 0.0
C1979 C 0.85592 0.58647 0.10449 0.0
C1980 C 0.846 0.58463 0.10899 0.0
C1981 C 0.86498 0.58666 0.11077 0.0
C1982 C 0.87482 0.57747 0.13671 0.0
H1983 H 0.9289 0.58159 0.14431 0.0
H1984 H 0.91292 0.58424 0.13401 0.0
H1985 H 0.88432 0.57117 0.14908 0.0
H1986 H 0.83778 0.58186 0.12366 0.0
H1987 H 0.85347 0.58241 0.1346 0.0
H1988 H 0.88218 0.5972 0.12014 0.0
C1989 C 0.91223 0.58315 0.14243 0.0
C1990 C 0.88391 0.57698 0.14288 0.0
C1991 C 0.92139 0.5816 0.14833 0.0
C1992 C 0.84531 0.58323 0.11993 0.0
C1993 C 0.85434 0.58347 0.1262 0.0
C1994 C 0.88256 0.59144 0.12639 0.0
C1995 C 0.90229 0.58284 0.14726 0.0
C1996 C 0.89249 0.58366 0.14086 0.0
C1997 C 0.86432 0.58505 0.12171 0.0
C1998 C 0.87401 0.5847 0.12837 0.0
H1999 H 0.91023 0.57839 0.17248 0.0
H2000 H 0.89426 0.58115 0.1622 0.0
H2001 H 0.8981 0.59625 0.13083 0.0
H2002 H 0.85673 0.58754 0.09608 0.0
H2003 H 0.87252 0.58778 0.10699 0.0
C2004 C 0.41557 0.85465 0.10278 0.0
C2005 C 0.41701 0.84471 0.10739 0.0
C2006 C 0.41554 0.86377 0.10898 0.0
C2007 C 0.42454 0.87357 0.13499 0.0
H2008 H 0.40635 0.89722 0.12878 0.0
C2009 C 0.42247 0.90968 0.16239 0.0
C2010 C 0.42263 0.91962 0.15756 0.0
C2011 C 0.42096 0.90056 0.15641 0.0
C2012 C 0.41154 0.89071 0.13057 0.0
H2013 H 0.41923 0.83654 0.12218 0.0
H2014 H 0.41896 0.85234 0.13298 0.0
H2015 H 0.40523 0.88129 0.1181 0.0
H2016 H 0.42103 0.92777 0.14268 0.0
H2017 H 0.4184 0.91187 0.13225 0.0
H2018 H 0.43087 0.88296 0.14742 0.0
C2019 C 0.41809 0.85316 0.12456 0.0
C2020 C 0.41091 0.88157 0.12443 0.0
C2021 C 0.41816 0.84407 0.11836 0.0
C2022 C 0.42092 0.92024 0.14666 0.0
C2023 C 0.41938 0.91112 0.14068 0.0
C2024 C 0.42514 0.88267 0.14113 0.0
C2025 C 0.41691 0.86316 0.11995 0.0
C2026 C 0.41741 0.87287 0.12655 0.0
C2027 C 0.41955 0.90114 0.14545 0.0
C2028 C 0.41867 0.89137 0.13901 0.0
H2029 H 0.41469 0.85543 0.09435 0.0
H2030 H 0.41472 0.87131 0.10513 0.0
H2031 H 0.42984 0.86714 0.13674 0.0
H2032 H 0.42373 0.90891 0.17077 0.0
H2033 H 0.42098 0.89303 0.16038 0.0
C2034 C 0.5872 0.14602 0.10485 0.0
C2035 C 0.58518 0.15586 0.10946 0.0
C2036 C 0.58757 0.1369 0.11104 0.0
C2037 C 0.57845 0.12672 0.13687 0.0
H2038 H 0.59735 0.1036 0.13081 0.0
C2039 C 0.58097 0.09054 0.16408 0.0
C2040 C 0.58092 0.08065 0.15915 0.0
C2041 C 0.58247 0.09972 0.1582 0.0
C2042 C 0.59198 0.10997 0.13256 0.0
H2043 H 0.58235 0.16388 0.12423 0.0
H2044 H 0.58325 0.1481 0.13501 0.0
H2045 H 0.59821 0.11962 0.12023 0.0
H2046 H 0.58277 0.07263 0.14422 0.0
H2047 H 0.58541 0.08865 0.13397 0.0
H2048 H 0.57221 0.1171 0.14917 0.0
C2049 C 0.58428 0.14734 0.12659 0.0
C2050 C 0.59245 0.11915 0.12648 0.0
C2051 C 0.58385 0.15642 0.12041 0.0
C2052 C 0.58278 0.08013 0.14827 0.0
C2053 C 0.58433 0.08931 0.14239 0.0
C2054 C 0.57802 0.11759 0.14296 0.0
C2055 C 0.58597 0.13742 0.12198 0.0
C2056 C 0.58568 0.12766 0.12854 0.0
C2057 C 0.584 0.09924 0.14725 0.0
C2058 C 0.58475 0.10907 0.14089 0.0
H2059 H 0.58821 0.14532 0.09643 0.0
H2060 H 0.58878 0.12941 0.10718 0.0
H2061 H 0.57294 0.13298 0.13857 0.0
H2062 H 0.57959 0.09123 0.17245 0.0
H2063 H 0.58233 0.10722 0.16222 0.0
C2064 C 0.66334 0.59276 0.92469 0.0
C2065 C 0.65845 0.58285 0.92433 0.0
C2066 C 0.65743 0.60198 0.92352 0.0
C2067 C 0.63186 0.61239 0.91406 0.0
H2068 H 0.63771 0.63508 0.93355 0.0
C2069 C 0.60413 0.64834 0.91894 0.0
C2070 C 0.6087 0.65819 0.92098 0.0
C2071 C 0.61031 0.63922 0.91869 0.0
C2072 C 0.63605 0.62891 0.92793 0.0
H2073 H 0.64355 0.57487 0.92217 0.0
H2074 H 0.63325 0.59094 0.9201 0.0
H2075 H 0.6483 0.61917 0.93409 0.0
H2076 H 0.62342 0.66621 0.92407 0.0
H2077 H 0.6342 0.6504 0.92342 0.0
H2078 H 0.61959 0.62215 0.90789 0.0
C2079 C 0.64167 0.59159 0.92124 0.0
C2080 C 0.64214 0.61975 0.92825 0.0
C2081 C 0.64757 0.58237 0.92246 0.0
C2082 C 0.61963 0.65874 0.92254 0.0
C2083 C 0.62581 0.64964 0.92224 0.0
C2084 C 0.62578 0.62158 0.9137 0.0
C2085 C 0.64649 0.60152 0.92192 0.0
C2086 C 0.64012 0.61136 0.92134 0.0
C2087 C 0.62123 0.63973 0.92044 0.0
C2088 C 0.62778 0.62997 0.92065 0.0
H2089 H 0.6717 0.59343 0.92611 0.0
H2090 H 0.66143 0.60948 0.92393 0.0
H2091 H 0.63016 0.60613 0.90854 0.0
H2092 H 0.59573 0.64763 0.91775 0.0
H2093 H 0.60646 0.63173 0.9174 0.0
C2094 C 0.41096 0.66459 0.92338 0.0
C2095 C 0.42084 0.65966 0.92355 0.0
C2096 C 0.40177 0.6587 0.92195 0.0
C2097 C 0.39159 0.63295 0.91273 0.0
H2098 H 0.36829 0.63934 0.93131 0.0
C2099 C 0.35543 0.60541 0.91729 0.0
C2100 C 0.34555 0.61006 0.91899 0.0
C2101 C 0.36456 0.61158 0.91705 0.0
C2102 C 0.37463 0.63753 0.92593 0.0
H2103 H 0.42883 0.64468 0.92206 0.0
H2104 H 0.4128 0.6344 0.91956 0.0
H2105 H 0.38421 0.64989 0.93213 0.0
H2106 H 0.33748 0.62487 0.92142 0.0
H2107 H 0.35331 0.63562 0.92077 0.0
H2108 H 0.38199 0.62057 0.90653 0.0
C2109 C 0.41216 0.64284 0.92047 0.0
C2110 C 0.38379 0.6436 0.92641 0.0
C2111 C 0.42135 0.64873 0.92194 0.0
C2112 C 0.34497 0.62103 0.92016 0.0
C2113 C 0.35408 0.62719 0.91987 0.0
C2114 C 0.38239 0.6269 0.9122 0.0
C2115 C 0.40224 0.64773 0.92063 0.0
C2116 C 0.3924 0.64138 0.91985 0.0
C2117 C 0.36403 0.62255 0.91847 0.0
C2118 C 0.37379 0.62909 0.91882 0.0
H2119 H 0.41028 0.673 0.92457 0.0
H2120 H 0.39428 0.66275 0.92196 0.0
H2121 H 0.39802 0.6311 0.90748 0.0
H2122 H 0.35615 0.59698 0.9164 0.0
H2123 H 0.37206 0.60769 0.91607 0.0
C2124 C 0.38448 0.34695 0.91917 0.0
C2125 C 0.39544 0.34733 0.91776 0.0
C2126 C 0.37845 0.35615 0.91885 0.0
C2127 C 0.38057 0.3847 0.92304 0.0
H2128 H 0.35318 0.38556 0.90972 0.0
C2129 C 0.35579 0.42278 0.92278 0.0
C2130 C 0.34492 0.42174 0.92449 0.0
C2131 C 0.36203 0.41392 0.92081 0.0
C2132 C 0.36076 0.38544 0.91358 0.0
H2133 H 0.40862 0.35769 0.9147 0.0
H2134 H 0.39809 0.37377 0.91418 0.0
H2135 H 0.36389 0.36971 0.90839 0.0
H2136 H 0.33207 0.41059 0.92526 0.0
H2137 H 0.34294 0.39515 0.92203 0.0
H2138 H 0.37738 0.40028 0.92848 0.0
C2139 C 0.39417 0.36634 0.91558 0.0
C2140 C 0.36692 0.37634 0.91279 0.0
C2141 C 0.4002 0.35712 0.91581 0.0
C2142 C 0.3404 0.41167 0.92391 0.0
C2143 C 0.34665 0.40281 0.92201 0.0
C2144 C 0.37439 0.39376 0.9239 0.0
C2145 C 0.38323 0.36598 0.9172 0.0
C2146 C 0.37687 0.37583 0.91757 0.0
C2147 C 0.35759 0.40378 0.92057 0.0
C2148 C 0.36436 0.39426 0.91923 0.0
H2149 H 0.38056 0.33954 0.92069 0.0
H2150 H 0.37007 0.35559 0.92022 0.0
H2151 H 0.38813 0.38452 0.92696 0.0
H2152 H 0.35952 0.43042 0.92312 0.0
H2153 H 0.37037 0.41504 0.91953 0.0
C2154 C 0.59318 0.33867 0.92362 0.0
C2155 C 0.5833 0.3436 0.92315 0.0
C2156 C 0.60242 0.3445 0.92229 0.0
C2157 C 0.61296 0.3698 0.91225 0.0
H2158 H 0.63543 0.36457 0.93216 0.0
C2159 C 0.64841 0.39809 0.91714 0.0
C2160 C 0.65829 0.39374 0.91949 0.0
C2161 C 0.63941 0.39174 0.91683 0.0
C2162 C 0.62932 0.36604 0.92642 0.0
H2163 H 0.5754 0.35849 0.92061 0.0
H2164 H 0.59152 0.36864 0.91826 0.0
H2165 H 0.61958 0.35388 0.93275 0.0
H2166 H 0.6665 0.37924 0.92306 0.0
H2167 H 0.6509 0.36815 0.9223 0.0
H2168 H 0.62271 0.38199 0.90592 0.0
C2169 C 0.59212 0.36026 0.91961 0.0
C2170 C 0.62021 0.3599 0.92677 0.0
C2171 C 0.58288 0.35444 0.92099 0.0
C2172 C 0.659 0.38286 0.92128 0.0
C2173 C 0.65002 0.37651 0.92092 0.0
C2174 C 0.62211 0.37592 0.91186 0.0
C2175 C 0.60202 0.35539 0.92041 0.0
C2176 C 0.61188 0.36172 0.91973 0.0
C2177 C 0.64007 0.38087 0.91881 0.0
C2178 C 0.63041 0.37417 0.91898 0.0
H2179 H 0.59379 0.33034 0.92527 0.0
H2180 H 0.60991 0.34047 0.92281 0.0
H2181 H 0.60676 0.37134 0.90663 0.0
H2182 H 0.64757 0.40645 0.91577 0.0
H2183 H 0.63189 0.39543 0.91531 0.0
C2184 C 0.61882 0.34355 0.08092 0.0
C2185 C 0.60791 0.34417 0.08249 0.0
C2186 C 0.62508 0.35259 0.08132 0.0
C2187 C 0.62516 0.38067 0.08999 0.0
H2188 H 0.64786 0.38299 0.06979 0.0
C2189 C 0.64684 0.41984 0.08072 0.0
C2190 C 0.65776 0.41938 0.07907 0.0
C2191 C 0.64098 0.41062 0.08211 0.0
C2192 C 0.64164 0.38242 0.07557 0.0
H2193 H 0.59502 0.3548 0.08584 0.0
H2194 H 0.60587 0.3706 0.08633 0.0
H2195 H 0.63724 0.36709 0.07028 0.0
H2196 H 0.67111 0.40885 0.07786 0.0
H2197 H 0.66089 0.39279 0.08028 0.0
H2198 H 0.62948 0.39616 0.09508 0.0
C2199 C 0.60967 0.3631 0.08498 0.0
C2200 C 0.63554 0.37327 0.07588 0.0
C2201 C 0.60342 0.35404 0.08465 0.0
C2202 C 0.66272 0.4095 0.07912 0.0
C2203 C 0.65685 0.40028 0.08042 0.0
C2204 C 0.63123 0.38986 0.08962 0.0
C2205 C 0.62058 0.36253 0.08322 0.0
C2206 C 0.6272 0.37225 0.08308 0.0
C2207 C 0.64588 0.40071 0.08178 0.0
C2208 C 0.63955 0.39085 0.08241 0.0
H2209 H 0.62255 0.33607 0.07931 0.0
H2210 H 0.63347 0.35178 0.08014 0.0
H2211 H 0.61892 0.38014 0.09575 0.0
H2212 H 0.64278 0.42732 0.08071 0.0
H2213 H 0.63254 0.41123 0.08306 0.0
C2214 C 0.65936 0.61881 0.08143 0.0
C2215 C 0.65866 0.60795 0.08329 0.0
C2216 C 0.6504 0.62518 0.08195 0.0
C2217 C 0.62266 0.62584 0.09148 0.0
H2218 H 0.61987 0.64783 0.07056 0.0
C2219 C 0.5937 0.66313 0.08001 0.0
C2220 C 0.58381 0.65821 0.0805 0.0
C2221 C 0.60294 0.65729 0.08129 0.0
C2222 C 0.62058 0.64182 0.07655 0.0
H2223 H 0.64802 0.59526 0.08731 0.0
H2224 H 0.63236 0.6063 0.08802 0.0
H2225 H 0.63568 0.63708 0.07093 0.0
H2226 H 0.5759 0.64333 0.08307 0.0
H2227 H 0.59201 0.63316 0.08535 0.0
H2228 H 0.60739 0.63049 0.09692 0.0
C2229 C 0.63985 0.60997 0.08633 0.0
C2230 C 0.62967 0.63565 0.07678 0.0
C2231 C 0.64883 0.60361 0.08587 0.0
C2232 C 0.58338 0.64737 0.08266 0.0
C2233 C 0.59262 0.64154 0.08401 0.0
C2234 C 0.61352 0.63199 0.09121 0.0
C2235 C 0.64049 0.62083 0.08427 0.0
C2236 C 0.63085 0.62755 0.08423 0.0
C2237 C 0.60252 0.6464 0.08315 0.0
C2238 C 0.61236 0.64005 0.08372 0.0
H2239 H 0.66682 0.62241 0.07948 0.0
H2240 H 0.65127 0.63352 0.08052 0.0
H2241 H 0.62333 0.6198 0.09744 0.0
H2242 H 0.59432 0.67146 0.07836 0.0
H2243 H 0.61043 0.6613 0.08073 0.0
C2244 C 0.3563 0.58153 0.07965 0.0
C2245 C 0.34533 0.58213 0.07842 0.0
C2246 C 0.36231 0.59065 0.08108 0.0
C2247 C 0.36165 0.61912 0.07563 0.0
H2248 H 0.38524 0.62038 0.09487 0.0
C2249 C 0.38479 0.65767 0.08211 0.0
C2250 C 0.39575 0.65698 0.08323 0.0
C2251 C 0.37855 0.6486 0.08219 0.0
C2252 C 0.37876 0.62014 0.08936 0.0
H2253 H 0.33206 0.59281 0.07802 0.0
H2254 H 0.34252 0.6087 0.08054 0.0
H2255 H 0.37454 0.60447 0.09396 0.0
H2256 H 0.40876 0.6462 0.08537 0.0
H2257 H 0.39794 0.63036 0.0853 0.0
H2258 H 0.36592 0.63467 0.07085 0.0
C2259 C 0.3465 0.60118 0.0803 0.0
C2260 C 0.3726 0.61101 0.08887 0.0
C2261 C 0.34049 0.59205 0.07893 0.0
C2262 C 0.40033 0.64701 0.08454 0.0
C2263 C 0.3941 0.63792 0.08455 0.0
C2264 C 0.36782 0.62822 0.07608 0.0
C2265 C 0.35751 0.60061 0.08125 0.0
C2266 C 0.36396 0.61039 0.08199 0.0
C2267 C 0.38312 0.63858 0.0833 0.0
C2268 C 0.37647 0.62887 0.08295 0.0
H2269 H 0.36029 0.57401 0.07927 0.0
H2270 H 0.37077 0.58992 0.0817 0.0
H2271 H 0.35518 0.61886 0.0701 0.0
H2272 H 0.38099 0.66523 0.08115 0.0
H2273 H 0.37012 0.64947 0.0814 0.0
C2274 C 0.40962 0.33809 0.08078 0.0
C2275 C 0.41953 0.34297 0.08053 0.0
C2276 C 0.40047 0.34405 0.08223 0.0
C2277 C 0.39055 0.36999 0.0913 0.0
H2278 H 0.36706 0.36364 0.07297 0.0
C2279 C 0.35479 0.39797 0.08657 0.0
C2280 C 0.34481 0.39345 0.08508 0.0
C2281 C 0.36383 0.39167 0.08679 0.0
C2282 C 0.37346 0.36544 0.07828 0.0
H2283 H 0.42761 0.35791 0.08192 0.0
H2284 H 0.41168 0.36829 0.08444 0.0
H2285 H 0.38284 0.35287 0.07219 0.0
H2286 H 0.3365 0.37872 0.08296 0.0
H2287 H 0.35218 0.36775 0.08356 0.0
H2288 H 0.38116 0.38259 0.09737 0.0
C2289 C 0.41096 0.35985 0.08358 0.0
C2290 C 0.38254 0.35925 0.07782 0.0
C2291 C 0.4201 0.3539 0.08209 0.0
C2292 C 0.34407 0.38247 0.08406 0.0
C2293 C 0.35308 0.37618 0.08433 0.0
C2294 C 0.38144 0.37617 0.09179 0.0
C2295 C 0.40101 0.35502 0.0835 0.0
C2296 C 0.39122 0.36146 0.08429 0.0
C2297 C 0.36311 0.38069 0.08556 0.0
C2298 C 0.37277 0.374 0.08526 0.0
H2299 H 0.40888 0.32969 0.07962 0.0
H2300 H 0.39295 0.34005 0.08227 0.0
H2301 H 0.39704 0.37185 0.09648 0.0
H2302 H 0.35564 0.40641 0.08733 0.0
H2303 H 0.3714 0.39546 0.08763 0.0
C2304 C 0.92056 0.64792 0.58074 0.0
C2305 C 0.9229 0.65869 0.58161 0.0
C2306 C 0.91875 0.64182 0.58972 0.0
C2307 C 0.91312 0.6435 0.61853 0.0
H2308 H 0.92508 0.61548 0.61885 0.0
C2309 C 0.91903 0.61938 0.65676 0.0
C2310 C 0.91712 0.6085 0.6564 0.0
C2311 C 0.91865 0.62546 0.6476 0.0
C2312 C 0.92156 0.62323 0.61886 0.0
H2313 H 0.92497 0.67152 0.59263 0.0
H2314 H 0.92201 0.66087 0.60829 0.0
H2315 H 0.92639 0.62614 0.60302 0.0
H2316 H 0.91309 0.59552 0.64612 0.0
H2317 H 0.91242 0.60613 0.63012 0.0
H2318 H 0.90852 0.64063 0.63449 0.0
C2319 C 0.92138 0.65714 0.60066 0.0
C2320 C 0.92229 0.62936 0.60975 0.0
C2321 C 0.92313 0.66326 0.59167 0.0
C2322 C 0.9146 0.60388 0.64668 0.0
C2323 C 0.91429 0.60995 0.63749 0.0
C2324 C 0.91244 0.63738 0.62766 0.0
C2325 C 0.91931 0.64629 0.59983 0.0
C2326 C 0.91813 0.63962 0.60946 0.0
C2327 C 0.91641 0.62081 0.63782 0.0
C2328 C 0.9167 0.62718 0.62796 0.0
H2329 H 0.92027 0.64415 0.57311 0.0
H2330 H 0.91698 0.63355 0.58872 0.0
H2331 H 0.90966 0.65128 0.61857 0.0
H2332 H 0.92101 0.62319 0.66412 0.0
H2333 H 0.92042 0.63377 0.64813 0.0
C2334 C 0.35453 0.92213 0.58172 0.0
C2335 C 0.34376 0.92438 0.58267 0.0
C2336 C 0.36079 0.92071 0.59067 0.0
C2337 C 0.35961 0.91644 0.61978 0.0
H2338 H 0.38766 0.92834 0.61893 0.0
C2339 C 0.38468 0.924 0.65716 0.0
C2340 C 0.39545 0.9216 0.65667 0.0
C2341 C 0.37838 0.92345 0.64814 0.0
C2342 C 0.3799 0.92486 0.61927 0.0
H2343 H 0.33108 0.92669 0.5938 0.0
H2344 H 0.34198 0.92445 0.60939 0.0
H2345 H 0.37668 0.92888 0.60328 0.0
H2346 H 0.40804 0.91664 0.64631 0.0
H2347 H 0.39707 0.91576 0.63055 0.0
H2348 H 0.36281 0.91269 0.63591 0.0
C2349 C 0.34561 0.92357 0.60174 0.0
C2350 C 0.37358 0.92514 0.61027 0.0
C2351 C 0.33933 0.92489 0.59278 0.0
C2352 C 0.39977 0.91854 0.64696 0.0
C2353 C 0.39349 0.91809 0.63792 0.0
C2354 C 0.36591 0.91625 0.62883 0.0
C2355 C 0.35647 0.92162 0.60083 0.0
C2356 C 0.36332 0.92096 0.61038 0.0
C2357 C 0.38273 0.92059 0.63838 0.0
C2358 C 0.37612 0.92049 0.62869 0.0
H2359 H 0.35819 0.92163 0.57405 0.0
H2360 H 0.36906 0.91899 0.5896 0.0
H2361 H 0.35185 0.91298 0.62017 0.0
H2362 H 0.3811 0.92639 0.6645 0.0
H2363 H 0.37015 0.92553 0.64876 0.0
C2364 C 0.08312 0.38301 0.65787 0.0
C2365 C 0.08414 0.39398 0.65717 0.0
C2366 C 0.08369 0.37671 0.64887 0.0
C2367 C 0.09184 0.3767 0.62067 0.0
H2368 H 0.07239 0.35329 0.61893 0.0
C2369 C 0.08266 0.35435 0.58187 0.0
C2370 C 0.08109 0.34342 0.58244 0.0
C2371 C 0.08414 0.3603 0.59103 0.0
C2372 C 0.07798 0.3597 0.61933 0.0
H2373 H 0.08674 0.40695 0.64643 0.0
H2374 H 0.08754 0.396 0.63067 0.0
H2375 H 0.07278 0.3641 0.63469 0.0
H2376 H 0.08019 0.33013 0.59307 0.0
H2377 H 0.08281 0.34049 0.60902 0.0
H2378 H 0.09685 0.37236 0.60516 0.0
C2379 C 0.08647 0.39221 0.63821 0.0
C2380 C 0.07822 0.36592 0.6284 0.0
C2381 C 0.08597 0.39851 0.64725 0.0
C2382 C 0.08138 0.33853 0.59234 0.0
C2383 C 0.0828 0.34448 0.6015 0.0
C2384 C 0.09156 0.37049 0.61156 0.0
C2385 C 0.08521 0.38123 0.63888 0.0
C2386 C 0.08514 0.37452 0.62921 0.0
C2387 C 0.08401 0.35547 0.60098 0.0
C2388 C 0.08462 0.36191 0.61077 0.0
H2389 H 0.08178 0.37925 0.6654 0.0
H2390 H 0.0829 0.36828 0.64976 0.0
H2391 H 0.09738 0.38315 0.62104 0.0
H2392 H 0.08246 0.35837 0.57437 0.0
H2393 H 0.08497 0.36874 0.59032 0.0
C2394 C 0.60503 0.08825 0.6507 0.0
C2395 C 0.60698 0.08102 0.65884 0.0
C2396 C 0.61145 0.08846 0.64174 0.0
C2397 C 0.62724 0.07171 0.62514 0.0
H2398 H 0.64159 0.09691 0.61565 0.0
C2399 C 0.6463 0.07571 0.58403 0.0
C2400 C 0.6571 0.07805 0.58415 0.0
C2401 C 0.64026 0.07661 0.59318 0.0
C2402 C 0.63762 0.08983 0.61823 0.0
H2403 H 0.61714 0.06833 0.66393 0.0
H2404 H 0.6281 0.06847 0.64812 0.0
H2405 H 0.63079 0.09745 0.63169 0.0
H2406 H 0.66996 0.08352 0.59389 0.0
H2407 H 0.65926 0.08548 0.60985 0.0
H2408 H 0.63381 0.06415 0.61157 0.0
C2409 C 0.62172 0.07407 0.64877 0.0
C2410 C 0.63142 0.09015 0.62735 0.0
C2411 C 0.61547 0.07402 0.65782 0.0
C2412 C 0.66166 0.08166 0.59355 0.0
C2413 C 0.65555 0.0828 0.60267 0.0
C2414 C 0.63321 0.07146 0.61592 0.0
C2415 C 0.61977 0.08128 0.64064 0.0
C2416 C 0.62623 0.08107 0.63092 0.0
C2417 C 0.64484 0.08011 0.6026 0.0
C2418 C 0.6385 0.08049 0.61239 0.0
H2419 H 0.59856 0.09375 0.65127 0.0
H2420 H 0.60976 0.09407 0.63556 0.0
H2421 H 0.62328 0.06462 0.62771 0.0
H2422 H 0.64255 0.07284 0.57694 0.0
H2423 H 0.63201 0.07452 0.59292 0.0
C2424 C 0.92157 0.35523 0.41891 0.0
C2425 C 0.92376 0.34443 0.41815 0.0
C2426 C 0.92 0.36129 0.40986 0.0
C2427 C 0.91483 0.35955 0.38101 0.0
H2428 H 0.92757 0.38724 0.38073 0.0
C2429 C 0.92152 0.38349 0.34278 0.0
C2430 C 0.91981 0.3944 0.34315 0.0
C2431 C 0.92104 0.37741 0.35194 0.0
C2432 C 0.92384 0.37959 0.38071 0.0
H2433 H 0.92577 0.33147 0.40727 0.0
H2434 H 0.92321 0.34204 0.39149 0.0
H2435 H 0.92838 0.37662 0.39662 0.0
H2436 H 0.91607 0.40746 0.35344 0.0
H2437 H 0.91523 0.39687 0.36943 0.0
H2438 H 0.91051 0.36249 0.36498 0.0
C2439 C 0.92254 0.34583 0.39908 0.0
C2440 C 0.92428 0.37348 0.38985 0.0
C2441 C 0.92404 0.33976 0.40814 0.0
C2442 C 0.91744 0.39908 0.35288 0.0
C2443 C 0.91702 0.39301 0.36206 0.0
C2444 C 0.91444 0.36565 0.37184 0.0
C2445 C 0.92066 0.35672 0.3998 0.0
C2446 C 0.91982 0.36335 0.39013 0.0
C2447 C 0.9189 0.38211 0.36172 0.0
C2448 C 0.91897 0.37573 0.37156 0.0
H2449 H 0.92125 0.35907 0.4265 0.0
H2450 H 0.91836 0.36959 0.41076 0.0
H2451 H 0.91117 0.35187 0.38095 0.0
H2452 H 0.92338 0.37963 0.33541 0.0
H2453 H 0.92264 0.36907 0.35141 0.0
C2454 C 0.66456 0.9221 0.41118 0.0
C2455 C 0.65973 0.92219 0.42112 0.0
C2456 C 0.65858 0.92064 0.40206 0.0
C2457 C 0.63282 0.91115 0.39212 0.0
H2458 H 0.63896 0.92963 0.36868 0.0
C2459 C 0.60527 0.91524 0.35582 0.0
C2460 C 0.60996 0.91694 0.34596 0.0
C2461 C 0.61139 0.91506 0.36499 0.0
C2462 C 0.63722 0.92428 0.37507 0.0
H2463 H 0.64486 0.92052 0.42927 0.0
H2464 H 0.63443 0.91797 0.41334 0.0
H2465 H 0.64955 0.93066 0.38455 0.0
H2466 H 0.62481 0.91936 0.33796 0.0
H2467 H 0.63547 0.91881 0.35383 0.0
H2468 H 0.62046 0.90477 0.3826 0.0
C2469 C 0.64285 0.91897 0.4126 0.0
C2470 C 0.64331 0.92488 0.3842 0.0
C2471 C 0.64883 0.92048 0.42174 0.0
C2472 C 0.62093 0.91811 0.34544 0.0
C2473 C 0.62705 0.91788 0.35457 0.0
C2474 C 0.62674 0.9105 0.38294 0.0
C2475 C 0.64763 0.9192 0.40263 0.0
C2476 C 0.6412 0.91834 0.39285 0.0
C2477 C 0.62236 0.91654 0.3645 0.0
C2478 C 0.62886 0.91706 0.37428 0.0
H2479 H 0.67294 0.92338 0.41041 0.0
H2480 H 0.66255 0.9207 0.39452 0.0
H2481 H 0.63104 0.90591 0.39859 0.0
H2482 H 0.59683 0.91435 0.3565 0.0
H2483 H 0.60748 0.91411 0.37249 0.0
C2484 C 0.08023 0.66388 0.41002 0.0
C2485 C 0.0807 0.65931 0.42007 0.0
C2486 C 0.08167 0.65773 0.40098 0.0
C2487 C 0.08004 0.62997 0.39203 0.0
H2488 H 0.09311 0.64091 0.36678 0.0
C2489 C 0.08598 0.60423 0.35495 0.0
C2490 C 0.0833 0.60888 0.34529 0.0
C2491 C 0.08667 0.61032 0.36411 0.0
C2492 C 0.08938 0.63776 0.37375 0.0
H2493 H 0.08349 0.64477 0.42851 0.0
H2494 H 0.08626 0.63413 0.41282 0.0
H2495 H 0.09272 0.65164 0.38268 0.0
H2496 H 0.07948 0.62363 0.33765 0.0
H2497 H 0.0807 0.63423 0.35358 0.0
H2498 H 0.07667 0.61611 0.38309 0.0
C2499 C 0.08452 0.64241 0.41187 0.0
C2500 C 0.08914 0.64392 0.38288 0.0
C2501 C 0.08303 0.64854 0.42089 0.0
C2502 C 0.08158 0.61979 0.34495 0.0
C2503 C 0.08233 0.62589 0.35409 0.0
C2504 C 0.08033 0.6238 0.38293 0.0
C2505 C 0.08366 0.64687 0.40177 0.0
C2506 C 0.08439 0.64015 0.39214 0.0
C2507 C 0.08476 0.62122 0.36381 0.0
C2508 C 0.08493 0.62763 0.37364 0.0
H2509 H 0.0784 0.67214 0.4091 0.0
H2510 H 0.08083 0.66145 0.39337 0.0
H2511 H 0.07613 0.62684 0.39892 0.0
H2512 H 0.08736 0.59585 0.35549 0.0
H2513 H 0.08868 0.60648 0.37144 0.0
C2514 C 0.39884 0.08591 0.35683 0.0
C2515 C 0.3939 0.08453 0.34704 0.0
C2516 C 0.39293 0.08615 0.36612 0.0
C2517 C 0.36585 0.08988 0.37642 0.0
H2518 H 0.37595 0.07351 0.40006 0.0
C2519 C 0.33927 0.07917 0.41183 0.0
C2520 C 0.34383 0.07856 0.42188 0.0
C2521 C 0.34552 0.08088 0.40292 0.0
C2522 C 0.37307 0.07827 0.39362 0.0
H2523 H 0.37882 0.08256 0.33934 0.0
H2524 H 0.36853 0.08299 0.3555 0.0
H2525 H 0.3866 0.07485 0.38421 0.0
H2526 H 0.35851 0.07959 0.43046 0.0
H2527 H 0.36937 0.08279 0.41498 0.0
H2528 H 0.35229 0.09328 0.3858 0.0
C2529 C 0.37697 0.08395 0.35602 0.0
C2530 C 0.37919 0.07903 0.3845 0.0
C2531 C 0.38289 0.08365 0.34674 0.0
C2532 C 0.35475 0.07998 0.42284 0.0
C2533 C 0.36099 0.08174 0.41393 0.0
C2534 C 0.35974 0.08917 0.38556 0.0
C2535 C 0.38192 0.08507 0.36584 0.0
C2536 C 0.37563 0.08476 0.37575 0.0
C2537 C 0.35649 0.08207 0.40383 0.0
C2538 C 0.36321 0.08327 0.39426 0.0
H2539 H 0.40731 0.08661 0.35734 0.0
H2540 H 0.39698 0.08715 0.37354 0.0
H2541 H 0.36293 0.09449 0.36989 0.0
H2542 H 0.3309 0.07806 0.41079 0.0
H2543 H 0.34176 0.08095 0.39528 0.0
C2544 C 0.59268 0.9238 0.66372 0.0
C2545 C 0.58263 0.92258 0.65928 0.0
C2546 C 0.60172 0.92247 0.65757 0.0
C2547 C 0.61038 0.92282 0.62965 0.0
H2548 H 0.63623 0.91144 0.64108 0.0
C2549 C 0.64727 0.91591 0.60388 0.0
C2550 C 0.65692 0.91919 0.60813 0.0
C2551 C 0.63821 0.91558 0.61013 0.0
C2552 C 0.62908 0.9147 0.63779 0.0
H2553 H 0.57423 0.91861 0.645 0.0
H2554 H 0.58994 0.91602 0.63437 0.0
H2555 H 0.62044 0.91193 0.65197 0.0
H2556 H 0.66466 0.92452 0.62236 0.0
H2557 H 0.64889 0.92391 0.63326 0.0
H2558 H 0.61903 0.92557 0.61547 0.0
C2559 C 0.59088 0.91827 0.64253 0.0
C2560 C 0.62002 0.915 0.64405 0.0
C2561 C 0.58185 0.91966 0.64866 0.0
C2562 C 0.65735 0.92195 0.61883 0.0
C2563 C 0.64831 0.92155 0.6251 0.0
C2564 C 0.61942 0.92246 0.62339 0.0
C2565 C 0.60095 0.91984 0.64684 0.0
C2566 C 0.61055 0.91913 0.64009 0.0
C2567 C 0.63861 0.91844 0.62081 0.0
C2568 C 0.6289 0.91845 0.62739 0.0
H2569 H 0.59357 0.92611 0.67187 0.0
H2570 H 0.60931 0.92387 0.66116 0.0
H2571 H 0.60332 0.92625 0.62636 0.0
H2572 H 0.64667 0.91372 0.59567 0.0
H2573 H 0.63089 0.91304 0.60661 0.0
C2574 C 0.65601 0.08061 0.38457 0.0
C2575 C 0.65543 0.08232 0.39547 0.0
C2576 C 0.64698 0.08116 0.3783 0.0
C2577 C 0.61814 0.07861 0.37984 0.0
H2578 H 0.61861 0.09133 0.35214 0.0
C2579 C 0.58048 0.08115 0.35464 0.0
C2580 C 0.58145 0.07902 0.34384 0.0
C2581 C 0.5894 0.08265 0.3609 0.0
C2582 C 0.61835 0.08765 0.35981 0.0
H2583 H 0.64489 0.08612 0.40831 0.0
H2584 H 0.62913 0.08708 0.39739 0.0
H2585 H 0.63435 0.09182 0.36311 0.0
H2586 H 0.5926 0.07707 0.33111 0.0
H2587 H 0.60816 0.0795 0.34203 0.0
H2588 H 0.60226 0.07422 0.37651 0.0
C2589 C 0.63657 0.08524 0.39368 0.0
C2590 C 0.62739 0.08795 0.36611 0.0
C2591 C 0.64562 0.08475 0.39994 0.0
C2592 C 0.59156 0.07875 0.33939 0.0
C2593 C 0.6005 0.08019 0.34567 0.0
C2594 C 0.60913 0.07826 0.37353 0.0
C2595 C 0.63712 0.08337 0.38279 0.0
C2596 C 0.62741 0.0834 0.37619 0.0
C2597 C 0.59956 0.08199 0.35655 0.0
C2598 C 0.6091 0.08273 0.3634 0.0
H2599 H 0.66344 0.0787 0.38087 0.0
H2600 H 0.64768 0.07957 0.36996 0.0
H2601 H 0.61791 0.07488 0.38749 0.0
H2602 H 0.57281 0.08147 0.35832 0.0
H2603 H 0.58833 0.08424 0.3692 0.0
C2604 C 0.92192 0.59227 0.33792 0.0
C2605 C 0.92183 0.58235 0.3428 0.0
C2606 C 0.92056 0.60145 0.34384 0.0
C2607 C 0.91132 0.61169 0.3696 0.0
H2608 H 0.93068 0.63446 0.36365 0.0
C2609 C 0.91695 0.64732 0.39769 0.0
C2610 C 0.91904 0.65719 0.39319 0.0
C2611 C 0.91641 0.63828 0.39139 0.0
C2612 C 0.92508 0.62827 0.36534 0.0
H2613 H 0.91987 0.57431 0.3577 0.0
H2614 H 0.91748 0.59031 0.36802 0.0
H2615 H 0.93106 0.61867 0.35289 0.0
H2616 H 0.92183 0.66536 0.37849 0.0
H2617 H 0.92065 0.64972 0.36753 0.0
H2618 H 0.90536 0.62131 0.38209 0.0
C2619 C 0.91855 0.591 0.3596 0.0
C2620 C 0.92531 0.61918 0.35915 0.0
C2621 C 0.91996 0.58182 0.35368 0.0
C2622 C 0.92028 0.65787 0.38223 0.0
C2623 C 0.91968 0.64887 0.37594 0.0
C2624 C 0.91105 0.62082 0.37578 0.0
C2625 C 0.91903 0.60095 0.35479 0.0
C2626 C 0.91846 0.61076 0.36121 0.0
C2627 C 0.9179 0.63891 0.38044 0.0
C2628 C 0.91796 0.62923 0.37375 0.0
H2629 H 0.92333 0.59297 0.32955 0.0
H2630 H 0.92081 0.60896 0.33985 0.0
H2631 H 0.90586 0.6054 0.37135 0.0
H2632 H 0.916 0.64652 0.40611 0.0
H2633 H 0.91513 0.63076 0.39517 0.0
C2634 C 0.42191 0.92101 0.35409 0.0
C2635 C 0.42127 0.9221 0.3431 0.0
C2636 C 0.41283 0.91944 0.36012 0.0
C2637 C 0.38437 0.92461 0.35942 0.0
H2638 H 0.38325 0.9058 0.38337 0.0
C2639 C 0.34601 0.919 0.38291 0.0
C2640 C 0.34675 0.91817 0.3939 0.0
C2641 C 0.35502 0.91856 0.37661 0.0
C2642 C 0.38345 0.91118 0.37678 0.0
H2643 H 0.41058 0.92205 0.32982 0.0
H2644 H 0.39477 0.91931 0.34034 0.0
H2645 H 0.39912 0.90654 0.37258 0.0
H2646 H 0.35756 0.91606 0.40689 0.0
H2647 H 0.37332 0.91551 0.39595 0.0
H2648 H 0.36887 0.92947 0.36369 0.0
C2649 C 0.40229 0.91976 0.3443 0.0
C2650 C 0.39255 0.91158 0.37057 0.0
C2651 C 0.41137 0.92125 0.33826 0.0
C2652 C 0.35671 0.91668 0.39844 0.0
C2653 C 0.36575 0.91632 0.39215 0.0
C2654 C 0.37532 0.92427 0.36565 0.0
C2655 C 0.40288 0.91901 0.35532 0.0
C2656 C 0.39312 0.9183 0.36181 0.0
C2657 C 0.36505 0.91737 0.38114 0.0
C2658 C 0.37471 0.91755 0.37443 0.0
H2659 H 0.42941 0.92164 0.35807 0.0
H2660 H 0.41358 0.91898 0.36859 0.0
H2661 H 0.3846 0.93002 0.35285 0.0
H2662 H 0.33845 0.92008 0.37914 0.0
H2663 H 0.3541 0.91917 0.36817 0.0
C2664 C 0.08124 0.42216 0.3551 0.0
C2665 C 0.07932 0.42139 0.34424 0.0
C2666 C 0.08278 0.41311 0.36118 0.0
C2667 C 0.08875 0.38444 0.35946 0.0
H2668 H 0.07527 0.38356 0.38678 0.0
C2669 C 0.08296 0.34579 0.38291 0.0
C2670 C 0.08421 0.34613 0.39388 0.0
C2671 C 0.08322 0.35503 0.37693 0.0
C2672 C 0.07921 0.38371 0.37924 0.0
H2673 H 0.07775 0.41049 0.33123 0.0
H2674 H 0.08032 0.39473 0.34183 0.0
H2675 H 0.07427 0.39951 0.37624 0.0
H2676 H 0.08691 0.35647 0.40716 0.0
H2677 H 0.08742 0.37258 0.39674 0.0
H2678 H 0.09353 0.36856 0.36242 0.0
C2679 C 0.08077 0.40232 0.34566 0.0
C2680 C 0.07865 0.39288 0.37318 0.0
C2681 C 0.07926 0.41137 0.33957 0.0
C2682 C 0.0859 0.35592 0.39873 0.0
C2683 C 0.08613 0.36517 0.39276 0.0
C2684 C 0.08928 0.37526 0.36552 0.0
C2685 C 0.08242 0.40305 0.35658 0.0
C2686 C 0.08337 0.39337 0.36318 0.0
C2687 C 0.08471 0.36486 0.38179 0.0
C2688 C 0.08447 0.37475 0.37546 0.0
H2689 H 0.08137 0.42975 0.35895 0.0
H2690 H 0.08421 0.41401 0.36953 0.0
H2691 H 0.09262 0.38456 0.35188 0.0
H2692 H 0.08162 0.33838 0.37892 0.0
H2693 H 0.08199 0.35449 0.36853 0.0
C2694 C 0.34438 0.08215 0.61951 0.0
C2695 C 0.34467 0.08482 0.60879 0.0
C2696 C 0.35349 0.08267 0.62567 0.0
C2697 C 0.38234 0.08175 0.62357 0.0
H2698 H 0.38171 0.09237 0.65213 0.0
C2699 C 0.42021 0.08432 0.64844 0.0
C2700 C 0.41949 0.08141 0.65908 0.0
C2701 C 0.41113 0.08578 0.64239 0.0
C2702 C 0.38202 0.08927 0.64421 0.0
H2703 H 0.35474 0.09026 0.59616 0.0
H2704 H 0.37064 0.09113 0.6069 0.0
H2705 H 0.3658 0.0929 0.64143 0.0
H2706 H 0.40865 0.07799 0.67176 0.0
H2707 H 0.39283 0.08035 0.66121 0.0
H2708 H 0.39845 0.07789 0.62636 0.0
C2709 C 0.36338 0.08859 0.61054 0.0
C2710 C 0.37289 0.0896 0.63807 0.0
C2711 C 0.35425 0.08815 0.60439 0.0
C2712 C 0.40948 0.08029 0.6636 0.0
C2713 C 0.40039 0.08168 0.65754 0.0
C2714 C 0.39145 0.08136 0.62972 0.0
C2715 C 0.36313 0.08579 0.62124 0.0
C2716 C 0.37292 0.08581 0.62768 0.0
C2717 C 0.40109 0.0843 0.6468 0.0
C2718 C 0.39142 0.08508 0.64015 0.0
H2719 H 0.33714 0.07955 0.62314 0.0
H2720 H 0.35303 0.08036 0.63385 0.0
H2721 H 0.38261 0.07861 0.61566 0.0
H2722 H 0.4278 0.0853 0.64471 0.0
H2723 H 0.412 0.088 0.63423 0.0
C2724 C 0.91969 0.34476 0.61888 0.0
C2725 C 0.91829 0.34562 0.60796 0.0
C2726 C 0.91927 0.35369 0.62532 0.0
C2727 C 0.91094 0.38186 0.62585 0.0
H2728 H 0.93118 0.38364 0.64856 0.0
C2729 C 0.92061 0.42072 0.64783 0.0
C2730 C 0.92246 0.42018 0.65872 0.0
C2731 C 0.91911 0.41154 0.64192 0.0
C2732 C 0.92538 0.38323 0.64235 0.0
H2733 H 0.91518 0.35654 0.59525 0.0
H2734 H 0.91465 0.37211 0.60641 0.0
H2735 H 0.93044 0.36787 0.63777 0.0
H2736 H 0.92387 0.40956 0.67197 0.0
H2737 H 0.9212 0.39357 0.66169 0.0
H2738 H 0.90606 0.39736 0.63034 0.0
C2739 C 0.91588 0.36453 0.61007 0.0
C2740 C 0.92494 0.37415 0.63614 0.0
C2741 C 0.91624 0.35559 0.60364 0.0
C2742 C 0.92248 0.41026 0.6636 0.0
C2743 C 0.92103 0.40109 0.65769 0.0
C2744 C 0.91143 0.39098 0.63203 0.0
C2745 C 0.91752 0.36373 0.62099 0.0
C2746 C 0.91773 0.37333 0.62778 0.0
C2747 C 0.91947 0.40159 0.64675 0.0
C2748 C 0.91867 0.39179 0.64035 0.0
H2749 H 0.92122 0.3372 0.62247 0.0
H2750 H 0.92036 0.3527 0.6337 0.0
H2751 H 0.90518 0.38149 0.61959 0.0
H2752 H 0.92058 0.42822 0.64381 0.0
H2753 H 0.91802 0.41223 0.63351 0.0
C2754 C 0.07788 0.59201 0.66375 0.0
C2755 C 0.07807 0.58193 0.65923 0.0
C2756 C 0.0794 0.60098 0.65754 0.0
C2757 C 0.07752 0.60992 0.62982 0.0
H2758 H 0.0921 0.63456 0.64027 0.0
C2759 C 0.08487 0.64646 0.60365 0.0
C2760 C 0.0831 0.65633 0.60831 0.0
C2761 C 0.08504 0.63732 0.60979 0.0
C2762 C 0.08793 0.62777 0.63726 0.0
H2763 H 0.08039 0.57336 0.64468 0.0
H2764 H 0.08325 0.58894 0.6339 0.0
H2765 H 0.09117 0.61876 0.65112 0.0
H2766 H 0.08028 0.66432 0.6231 0.0
H2767 H 0.08055 0.6484 0.63377 0.0
H2768 H 0.07425 0.61894 0.61599 0.0
C2769 C 0.0817 0.58997 0.64221 0.0
C2770 C 0.08739 0.6187 0.64349 0.0
C2771 C 0.08015 0.58101 0.64841 0.0
C2772 C 0.08169 0.65685 0.61926 0.0
C2773 C 0.0819 0.64772 0.62539 0.0
C2774 C 0.07809 0.61897 0.62359 0.0
C2775 C 0.08119 0.60009 0.64664 0.0
C2776 C 0.08212 0.60966 0.63989 0.0
C2777 C 0.08349 0.63781 0.62074 0.0
C2778 C 0.08325 0.62804 0.62724 0.0
H2779 H 0.07624 0.593 0.67205 0.0
H2780 H 0.07884 0.60863 0.66123 0.0
H2781 H 0.07323 0.6032 0.62683 0.0
H2782 H 0.08601 0.64578 0.59524 0.0
H2783 H 0.08642 0.62984 0.60595 0.0
C2784 C 0.10048 0.21537 0.42168 0.0
C2785 C 0.09696 0.20801 0.41422 0.0
C2786 C 0.10193 0.22588 0.41895 0.0
C2787 C 0.09197 0.24577 0.4011 0.0
H2788 H 0.11512 0.26245 0.41188 0.0
C2789 C 0.09164 0.29044 0.39585 0.0
C2790 C 0.09459 0.29645 0.40461 0.0
C2791 C 0.09404 0.27975 0.39535 0.0
C2792 C 0.10857 0.25794 0.40886 0.0
H2793 H 0.09242 0.20585 0.39796 0.0
H2794 H 0.09478 0.22445 0.39317 0.0
H2795 H 0.11534 0.24336 0.41394 0.0
H2796 H 0.10254 0.29618 0.41961 0.0
H2797 H 0.10651 0.27735 0.41897 0.0
H2798 H 0.08489 0.26025 0.3965 0.0
C2799 C 0.09646 0.22198 0.40114 0.0
C2800 C 0.10872 0.24699 0.40999 0.0
C2801 C 0.09515 0.21135 0.40386 0.0
C2802 C 0.10041 0.29172 0.41268 0.0
C2803 C 0.10264 0.28092 0.41229 0.0
C2804 C 0.09176 0.25671 0.40005 0.0
C2805 C 0.09979 0.22937 0.40871 0.0
C2806 C 0.10034 0.2408 0.40628 0.0
C2807 C 0.09917 0.27471 0.40376 0.0
C2808 C 0.09998 0.26299 0.40405 0.0
H2809 H 0.10198 0.21303 0.42973 0.0
H2810 H 0.10436 0.23137 0.42499 0.0
H2811 H 0.08532 0.24125 0.3983 0.0
H2812 H 0.08708 0.29395 0.38957 0.0
H2813 H 0.0915 0.27534 0.38852 0.0
C2814 C 0.78567 0.09814 0.42167 0.0
C2815 C 0.79335 0.09739 0.41376 0.0
C2816 C 0.7751 0.09945 0.41915 0.0
C2817 C 0.75607 0.09468 0.39796 0.0
H2818 H 0.73756 0.10939 0.41724 0.0
C2819 C 0.71357 0.08221 0.40402 0.0
C2820 C 0.7057 0.08954 0.40655 0.0
C2821 C 0.72399 0.08533 0.40288 0.0
C2822 C 0.74259 0.10542 0.41163 0.0
H2823 H 0.79593 0.09764 0.39694 0.0
H2824 H 0.7773 0.1 0.39245 0.0
H2825 H 0.75653 0.11136 0.41893 0.0
H2826 H 0.70258 0.10599 0.40962 0.0
H2827 H 0.72101 0.11152 0.40764 0.0
H2828 H 0.74213 0.08871 0.3907 0.0
C2829 C 0.77952 0.09948 0.40065 0.0
C2830 C 0.75349 0.10643 0.41269 0.0
C2831 C 0.79019 0.09814 0.4032 0.0
C2832 C 0.70848 0.10017 0.40768 0.0
C2833 C 0.71903 0.10331 0.40657 0.0
C2834 C 0.74517 0.09374 0.39686 0.0
C2835 C 0.77183 0.10011 0.40862 0.0
C2836 C 0.76038 0.10071 0.40616 0.0
C2837 C 0.72692 0.09588 0.40423 0.0
C2838 C 0.73829 0.09873 0.40397 0.0
H2839 H 0.78779 0.09759 0.4299 0.0
H2840 H 0.76944 0.09963 0.42551 0.0
H2841 H 0.76108 0.09018 0.39277 0.0
H2842 H 0.71173 0.07395 0.40306 0.0
H2843 H 0.72983 0.07933 0.40131 0.0
C2844 C 0.89841 0.78996 0.41659 0.0
C2845 C 0.90592 0.79613 0.4114 0.0
C2846 C 0.89731 0.77931 0.41422 0.0
C2847 C 0.90623 0.75795 0.39591 0.0
H2848 H 0.90162 0.74055 0.42053 0.0
C2849 C 0.91991 0.71496 0.39973 0.0
C2850 C 0.91325 0.70762 0.40462 0.0
C2851 C 0.9171 0.72554 0.39911 0.0
C2852 C 0.90272 0.74528 0.41354 0.0
H2853 H 0.91803 0.79617 0.39948 0.0
H2854 H 0.91648 0.77739 0.39556 0.0
H2855 H 0.90046 0.75953 0.42205 0.0
H2856 H 0.89831 0.70553 0.41248 0.0
H2857 H 0.89346 0.72425 0.41165 0.0
H2858 H 0.90913 0.74355 0.3876 0.0
C2859 C 0.91114 0.78081 0.40124 0.0
C2860 C 0.90204 0.75622 0.41438 0.0
C2861 C 0.91206 0.79158 0.40346 0.0
C2862 C 0.90356 0.71103 0.40864 0.0
C2863 C 0.90082 0.72171 0.40819 0.0
C2864 C 0.90707 0.74699 0.39511 0.0
C2865 C 0.90394 0.77445 0.40682 0.0
C2866 C 0.9039 0.76275 0.40561 0.0
C2867 C 0.90764 0.72909 0.40352 0.0
C2868 C 0.90545 0.74056 0.40396 0.0
H2869 H 0.89357 0.79333 0.42274 0.0
H2870 H 0.89144 0.77482 0.41845 0.0
H2871 H 0.90754 0.76265 0.38894 0.0
H2872 H 0.92742 0.71255 0.39653 0.0
H2873 H 0.92257 0.73102 0.39557 0.0
C2874 C 0.212 0.90308 0.40316 0.0
C2875 C 0.20907 0.90512 0.41361 0.0
C2876 C 0.22259 0.90125 0.40059 0.0
C2877 C 0.24868 0.89516 0.41288 0.0
H2878 H 0.26001 0.91017 0.38894 0.0
C2879 C 0.29365 0.90027 0.407 0.0
C2880 C 0.2965 0.91073 0.40489 0.0
C2881 C 0.28309 0.8971 0.40614 0.0
C2882 C 0.25698 0.90588 0.39564 0.0
H2883 H 0.21495 0.90674 0.42956 0.0
H2884 H 0.23317 0.90383 0.4251 0.0
H2885 H 0.24106 0.90928 0.39141 0.0
H2886 H 0.29063 0.92592 0.3998 0.0
H2887 H 0.2725 0.92051 0.39843 0.0
H2888 H 0.26462 0.89243 0.41752 0.0
C2889 C 0.22739 0.90338 0.41887 0.0
C2890 C 0.24608 0.90527 0.39699 0.0
C2891 C 0.21689 0.90518 0.42141 0.0
C2892 C 0.28871 0.9178 0.40154 0.0
C2893 C 0.27828 0.91466 0.40062 0.0
C2894 C 0.25958 0.89584 0.41157 0.0
C2895 C 0.23042 0.90141 0.40844 0.0
C2896 C 0.2418 0.90027 0.40586 0.0
C2897 C 0.27526 0.90432 0.40304 0.0
C2898 C 0.26387 0.90158 0.40317 0.0
H2899 H 0.20614 0.90294 0.39698 0.0
H2900 H 0.22464 0.89972 0.39247 0.0
H2901 H 0.24566 0.89101 0.41967 0.0
H2902 H 0.2995 0.89465 0.4096 0.0
H2903 H 0.28104 0.88906 0.40803 0.0
C2904 C 0.09992 0.71052 0.58949 0.0
C2905 C 0.09425 0.7057 0.59761 0.0
C2906 C 0.10223 0.7213 0.58999 0.0
C2907 C 0.09168 0.74536 0.60274 0.0
H2908 H 0.11489 0.75879 0.58831 0.0
C2909 C 0.09481 0.79072 0.59869 0.0
C2910 C 0.09625 0.79399 0.58824 0.0
C2911 C 0.09627 0.78012 0.60144 0.0
C2912 C 0.10839 0.75514 0.59242 0.0
H2913 H 0.08707 0.708 0.61284 0.0
H2914 H 0.09162 0.72657 0.61407 0.0
H2915 H 0.11477 0.7397 0.59035 0.0
H2916 H 0.10077 0.78887 0.57261 0.0
H2917 H 0.10342 0.77058 0.57742 0.0
H2918 H 0.08525 0.7608 0.60466 0.0
C2919 C 0.094 0.72226 0.60713 0.0
C2920 C 0.10828 0.74419 0.59354 0.0
C2921 C 0.09153 0.71158 0.60652 0.0
C2922 C 0.09955 0.78659 0.58073 0.0
C2923 C 0.10116 0.77611 0.5835 0.0
C2924 C 0.09185 0.7563 0.60171 0.0
C2925 C 0.09897 0.72739 0.59868 0.0
C2926 C 0.0998 0.73911 0.59851 0.0
C2927 C 0.09939 0.7727 0.59384 0.0
C2928 C 0.10007 0.7613 0.59632 0.0
H2929 H 0.10187 0.70616 0.58244 0.0
H2930 H 0.10596 0.72494 0.58327 0.0
H2931 H 0.0849 0.74179 0.60644 0.0
H2932 H 0.09224 0.79625 0.60463 0.0
H2933 H 0.09486 0.77771 0.60949 0.0
C2934 C 0.20934 0.09598 0.60206 0.0
C2935 C 0.20676 0.0963 0.59133 0.0
C2936 C 0.21981 0.09742 0.60531 0.0
C2937 C 0.24593 0.1069 0.59556 0.0
H2938 H 0.25737 0.08623 0.61476 0.0
C2939 C 0.2909 0.10097 0.60001 0.0
C2940 C 0.29394 0.09037 0.59949 0.0
C2941 C 0.2803 0.10365 0.60159 0.0
C2942 C 0.2543 0.0921 0.60941 0.0
H2943 H 0.21307 0.09862 0.57563 0.0
H2944 H 0.23104 0.10095 0.58121 0.0
H2945 H 0.2384 0.08753 0.61249 0.0
H2946 H 0.28832 0.07429 0.60056 0.0
H2947 H 0.27008 0.07889 0.6031 0.0
H2948 H 0.26184 0.11093 0.59188 0.0
C2949 C 0.2251 0.09978 0.58719 0.0
C2950 C 0.2434 0.09293 0.60821 0.0
C2951 C 0.21476 0.0983 0.58398 0.0
C2952 C 0.28627 0.08255 0.60088 0.0
C2953 C 0.27577 0.08519 0.60248 0.0
C2954 C 0.25683 0.10602 0.5967 0.0
C2955 C 0.22782 0.09931 0.59788 0.0
C2956 C 0.23911 0.10002 0.60092 0.0
C2957 C 0.27259 0.09576 0.60275 0.0
C2958 C 0.26116 0.09829 0.6033 0.0
H2959 H 0.20334 0.09447 0.6079 0.0
H2960 H 0.22164 0.09703 0.61361 0.0
H2961 H 0.24287 0.11263 0.59006 0.0
H2962 H 0.29665 0.10717 0.599 0.0
H2963 H 0.27812 0.11188 0.6018 0.0
C2964 C 0.9034 0.29248 0.60008 0.0
C2965 C 0.91229 0.29537 0.59419 0.0
C2966 C 0.90119 0.28179 0.60193 0.0
C2967 C 0.91489 0.25602 0.60216 0.0
H2968 H 0.88725 0.24365 0.59909 0.0
C2969 C 0.90974 0.21107 0.6023 0.0
C2970 C 0.90429 0.20757 0.59337 0.0
C2971 C 0.9092 0.22169 0.6053 0.0
C2972 C 0.89501 0.24701 0.60007 0.0
H2973 H 0.92531 0.28938 0.58498 0.0
H2974 H 0.92134 0.27104 0.58787 0.0
H2975 H 0.88929 0.26276 0.59808 0.0
H2976 H 0.89347 0.2121 0.58104 0.0
H2977 H 0.89241 0.23041 0.58627 0.0
H2978 H 0.92074 0.24033 0.60352 0.0
C2979 C 0.9163 0.27689 0.59146 0.0
C2980 C 0.89616 0.25795 0.59955 0.0
C2981 C 0.91853 0.28745 0.58972 0.0
C2982 C 0.89777 0.21462 0.58795 0.0
C2983 C 0.8971 0.22512 0.59101 0.0
C2984 C 0.91375 0.24511 0.60267 0.0
C2985 C 0.90782 0.2739 0.59786 0.0
C2986 C 0.90618 0.26254 0.60017 0.0
C2987 C 0.90307 0.22888 0.5995 0.0
C2988 C 0.90385 0.24044 0.60126 0.0
H2989 H 0.89849 0.29844 0.60366 0.0
H2990 H 0.89455 0.27973 0.60684 0.0
H2991 H 0.92271 0.25932 0.6029 0.0
H2992 H 0.91488 0.20578 0.60656 0.0
H2993 H 0.91386 0.22434 0.61191 0.0
C2994 C 0.79161 0.90523 0.60198 0.0
C2995 C 0.79409 0.9051 0.59122 0.0
C2996 C 0.78117 0.90373 0.6053 0.0
C2997 C 0.75492 0.89454 0.5956 0.0
H2998 H 0.74373 0.91509 0.61506 0.0
C2999 C 0.71006 0.90127 0.59969 0.0
C3000 C 0.70729 0.91195 0.59918 0.0
C3001 C 0.72057 0.89833 0.60143 0.0
C3002 C 0.74673 0.90924 0.60964 0.0
H3003 H 0.78763 0.90306 0.57555 0.0
H3004 H 0.76971 0.90064 0.58124 0.0
H3005 H 0.76268 0.91359 0.61279 0.0
H3006 H 0.71326 0.92788 0.60049 0.0
H3007 H 0.73133 0.92284 0.60332 0.0
H3008 H 0.73898 0.89076 0.59183 0.0
C3009 C 0.77571 0.9017 0.58719 0.0
C3010 C 0.75762 0.9083 0.60844 0.0
C3011 C 0.78602 0.90323 0.58391 0.0
C3012 C 0.71511 0.91957 0.60079 0.0
C3013 C 0.72551 0.91667 0.60256 0.0
C3014 C 0.74404 0.89554 0.59674 0.0
C3015 C 0.7731 0.90198 0.59791 0.0
C3016 C 0.76183 0.90127 0.60103 0.0
C3017 C 0.72844 0.90603 0.60278 0.0
C3018 C 0.7398 0.90324 0.60342 0.0
H3019 H 0.79767 0.90663 0.6078 0.0
H3020 H 0.77941 0.90399 0.61363 0.0
H3021 H 0.75792 0.88886 0.59 0.0
H3022 H 0.70418 0.89522 0.5985 0.0
H3023 H 0.72255 0.89005 0.60159 0.0
C3024 C 0.41177 0.09967 0.2922 0.0
C3025 C 0.40421 0.09308 0.29678 0.0
C3026 C 0.41143 0.10178 0.28137 0.0
C3027 C 0.40069 0.08979 0.25692 0.0
H3028 H 0.41238 0.11466 0.24378 0.0
C3029 C 0.40399 0.094 0.21161 0.0
C3030 C 0.41415 0.09668 0.20824 0.0
C3031 C 0.40124 0.09497 0.22226 0.0
C3032 C 0.40905 0.10768 0.24735 0.0
H3033 H 0.39004 0.08413 0.29396 0.0
H3034 H 0.38903 0.08831 0.27533 0.0
H3035 H 0.41025 0.11413 0.26286 0.0
H3036 H 0.42923 0.10289 0.21324 0.0
H3037 H 0.4244 0.10471 0.23164 0.0
H3038 H 0.39959 0.08333 0.24141 0.0
C3039 C 0.39548 0.09153 0.27986 0.0
C3040 C 0.40789 0.10735 0.2583 0.0
C3041 C 0.39596 0.08924 0.29057 0.0
C3042 C 0.42134 0.10072 0.2156 0.0
C3043 C 0.41855 0.10184 0.22615 0.0
C3044 C 0.40175 0.09018 0.24599 0.0
C3045 C 0.40344 0.09746 0.27499 0.0
C3046 C 0.40386 0.09832 0.26327 0.0
C3047 C 0.40854 0.09883 0.22965 0.0
C3048 C 0.40613 0.09904 0.24109 0.0
H3049 H 0.41832 0.10255 0.29682 0.0
H3050 H 0.41777 0.10631 0.27794 0.0
H3051 H 0.39777 0.08259 0.26039 0.0
H3052 H 0.39831 0.09085 0.20611 0.0
H3053 H 0.39344 0.09261 0.22475 0.0
C3054 C 0.90993 0.40247 0.20947 0.0
C3055 C 0.90294 0.40962 0.20486 0.0
C3056 C 0.90907 0.40003 0.2202 0.0
C3057 C 0.89843 0.4121 0.24457 0.0
H3058 H 0.90833 0.38634 0.25744 0.0
C3059 C 0.90199 0.40773 0.28977 0.0
C3060 C 0.91205 0.40445 0.2929 0.0
C3061 C 0.89888 0.40676 0.27921 0.0
C3062 C 0.90548 0.39357 0.25395 0.0
H3063 H 0.88918 0.41926 0.20746 0.0
H3064 H 0.88726 0.41457 0.22591 0.0
H3065 H 0.90645 0.38729 0.23835 0.0
H3066 H 0.9265 0.3971 0.28764 0.0
H3067 H 0.92107 0.3953 0.26943 0.0
H3068 H 0.89765 0.41842 0.26015 0.0
C3069 C 0.89367 0.41112 0.22149 0.0
C3070 C 0.90447 0.39413 0.243 0.0
C3071 C 0.89467 0.41371 0.21088 0.0
C3072 C 0.91871 0.39975 0.28545 0.0
C3073 C 0.91556 0.39863 0.27501 0.0
C3074 C 0.89935 0.41149 0.2555 0.0
C3075 C 0.90112 0.40462 0.22643 0.0
C3076 C 0.90114 0.40349 0.23813 0.0
C3077 C 0.90571 0.40231 0.27171 0.0
C3078 C 0.90313 0.40231 0.2603 0.0
H3079 H 0.91648 0.39937 0.20499 0.0
H3080 H 0.91502 0.39506 0.22371 0.0
H3081 H 0.89605 0.41953 0.24117 0.0
H3082 H 0.89672 0.41141 0.29535 0.0
H3083 H 0.89122 0.40965 0.27688 0.0
C3084 C 0.59394 0.90246 0.29103 0.0
C3085 C 0.59972 0.91077 0.2954 0.0
C3086 C 0.59466 0.9003 0.28022 0.0
C3087 C 0.60238 0.91379 0.25534 0.0
H3088 H 0.59704 0.88647 0.243 0.0
C3089 C 0.60044 0.90788 0.21028 0.0
C3090 C 0.59094 0.90325 0.2071 0.0
C3091 C 0.60349 0.90752 0.22088 0.0
C3092 C 0.59861 0.89414 0.24635 0.0
H3093 H 0.61131 0.92281 0.29221 0.0
H3094 H 0.61307 0.91868 0.27366 0.0
H3095 H 0.59874 0.88809 0.26207 0.0
H3096 H 0.57753 0.89411 0.21229 0.0
H3097 H 0.58295 0.89328 0.23061 0.0
H3098 H 0.60219 0.91981 0.23963 0.0
C3099 C 0.6076 0.91411 0.27831 0.0
C3100 C 0.5995 0.89509 0.25729 0.0
C3101 C 0.60669 0.91642 0.28899 0.0
C3102 C 0.58488 0.89778 0.21454 0.0
C3103 C 0.58802 0.89724 0.22503 0.0
C3104 C 0.60164 0.9128 0.24443 0.0
C3105 C 0.60132 0.90629 0.27366 0.0
C3106 C 0.60121 0.90498 0.26197 0.0
C3107 C 0.59721 0.90233 0.22839 0.0
C3108 C 0.59954 0.90301 0.23982 0.0
H3109 H 0.58844 0.89807 0.29581 0.0
H3110 H 0.58962 0.89426 0.27696 0.0
H3111 H 0.60346 0.92159 0.25857 0.0
H3112 H 0.6052 0.91221 0.2047 0.0
H3113 H 0.61063 0.9115 0.22327 0.0
C3114 C 0.10663 0.58931 0.21241 0.0
C3115 C 0.09839 0.59315 0.20619 0.0
C3116 C 0.10722 0.59182 0.22308 0.0
C3117 C 0.09516 0.60821 0.2444 0.0
H3118 H 0.10307 0.58434 0.26167 0.0
C3119 C 0.08156 0.60243 0.28717 0.0
C3120 C 0.08866 0.59834 0.29459 0.0
C3121 C 0.0844 0.60339 0.27662 0.0
C3122 C 0.10103 0.59115 0.25698 0.0
H3123 H 0.08442 0.60281 0.20605 0.0
H3124 H 0.08516 0.60695 0.22484 0.0
H3125 H 0.10486 0.58326 0.2427 0.0
H3126 H 0.10439 0.59225 0.29683 0.0
H3127 H 0.10933 0.59372 0.27819 0.0
H3128 H 0.0908 0.61582 0.2588 0.0
C3129 C 0.09141 0.60227 0.22146 0.0
C3130 C 0.10207 0.59056 0.24606 0.0
C3131 C 0.09096 0.59994 0.21068 0.0
C3132 C 0.09878 0.59545 0.29128 0.0
C3133 C 0.10158 0.59625 0.28063 0.0
C3134 C 0.09401 0.60874 0.25534 0.0
C3135 C 0.09938 0.59796 0.22787 0.0
C3136 C 0.09903 0.59903 0.23958 0.0
C3137 C 0.09436 0.60015 0.27318 0.0
C3138 C 0.09679 0.60015 0.26174 0.0
H3139 H 0.11244 0.58404 0.20909 0.0
H3140 H 0.11365 0.5886 0.22763 0.0
H3141 H 0.0929 0.61495 0.23973 0.0
H3142 H 0.07371 0.60476 0.28949 0.0
H3143 H 0.07862 0.60629 0.27109 0.0
C3144 C 0.42075 0.90526 0.78692 0.0
C3145 C 0.41316 0.90687 0.79479 0.0
C3146 C 0.41784 0.90421 0.77642 0.0
C3147 C 0.39707 0.91152 0.75788 0.0
H3148 H 0.41383 0.89435 0.73904 0.0
C3149 C 0.40497 0.90449 0.71016 0.0
C3150 C 0.40522 0.91514 0.70725 0.0
C3151 C 0.40366 0.90164 0.72076 0.0
C3152 C 0.40891 0.89904 0.74416 0.0
H3153 H 0.39648 0.90843 0.79779 0.0
H3154 H 0.39131 0.90659 0.77926 0.0
H3155 H 0.41563 0.8922 0.75798 0.0
H3156 H 0.40396 0.93112 0.71311 0.0
H3157 H 0.40186 0.92623 0.73134 0.0
H3158 H 0.39044 0.91844 0.74406 0.0
C3159 C 0.39956 0.90619 0.7813 0.0
C3160 C 0.41003 0.8979 0.75504 0.0
C3161 C 0.40251 0.90722 0.7919 0.0
C3162 C 0.40384 0.92283 0.71506 0.0
C3163 C 0.4025 0.92002 0.72555 0.0
C3164 C 0.39591 0.91261 0.74699 0.0
C3165 C 0.40723 0.90472 0.77343 0.0
C3166 C 0.40446 0.90444 0.76203 0.0
C3167 C 0.4025 0.9094 0.72859 0.0
C3168 C 0.40213 0.9067 0.74 0.0
H3169 H 0.42904 0.90494 0.78884 0.0
H3170 H 0.42399 0.90333 0.77061 0.0
H3171 H 0.39264 0.91668 0.763 0.0
H3172 H 0.406 0.89839 0.70431 0.0
H3173 H 0.40365 0.89339 0.72283 0.0
C3174 C 0.0937 0.40427 0.79146 0.0
C3175 C 0.09942 0.41258 0.79589 0.0
C3176 C 0.09449 0.40213 0.78067 0.0
C3177 C 0.10231 0.41577 0.75587 0.0
H3178 H 0.09634 0.38864 0.74338 0.0
C3179 C 0.10035 0.40973 0.71074 0.0
C3180 C 0.09072 0.4054 0.70751 0.0
C3181 C 0.10329 0.40943 0.72137 0.0
C3182 C 0.09809 0.39625 0.74677 0.0
H3183 H 0.11095 0.4247 0.79284 0.0
H3184 H 0.11292 0.42056 0.77427 0.0
H3185 H 0.09827 0.39008 0.76243 0.0
H3186 H 0.07689 0.39691 0.71271 0.0
H3187 H 0.08212 0.39616 0.73112 0.0
H3188 H 0.10211 0.4219 0.74019 0.0
C3189 C 0.10744 0.41597 0.77888 0.0
C3190 C 0.09911 0.39711 0.75771 0.0
C3191 C 0.10643 0.41826 0.78956 0.0
C3192 C 0.08435 0.40034 0.71498 0.0
C3193 C 0.08737 0.39985 0.72552 0.0
C3194 C 0.10145 0.41487 0.74496 0.0
C3195 C 0.10117 0.40816 0.77416 0.0
C3196 C 0.10104 0.40693 0.76245 0.0
C3197 C 0.09675 0.40457 0.72888 0.0
C3198 C 0.09913 0.40515 0.7403 0.0
H3199 H 0.08812 0.3999 0.79619 0.0
H3200 H 0.08945 0.39613 0.77737 0.0
H3201 H 0.10354 0.42353 0.75914 0.0
H3202 H 0.10538 0.41372 0.70514 0.0
H3203 H 0.11057 0.41313 0.72377 0.0
C3204 C 0.5961 0.09889 0.71223 0.0
C3205 C 0.59715 0.08837 0.70904 0.0
C3206 C 0.59763 0.10167 0.7228 0.0
C3207 C 0.59309 0.10217 0.74661 0.0
H3208 H 0.61574 0.09043 0.76331 0.0
C3209 C 0.59279 0.10726 0.7913 0.0
C3210 C 0.59537 0.09836 0.79724 0.0
C3211 C 0.59529 0.10777 0.78062 0.0
C3212 C 0.60933 0.09372 0.75879 0.0
H3213 H 0.60104 0.07262 0.71427 0.0
H3214 H 0.60385 0.07747 0.73254 0.0
H3215 H 0.6158 0.08821 0.74423 0.0
H3216 H 0.60276 0.08307 0.7969 0.0
H3217 H 0.60687 0.0837 0.77812 0.0
H3218 H 0.58624 0.10717 0.76107 0.0
C3219 C 0.60183 0.08358 0.72696 0.0
C3220 C 0.6094 0.0925 0.74785 0.0
C3221 C 0.60013 0.08079 0.7165 0.0
C3222 C 0.60092 0.09012 0.79248 0.0
C3223 C 0.60324 0.09051 0.78171 0.0
C3224 C 0.59294 0.10329 0.75755 0.0
C3225 C 0.60045 0.094 0.73029 0.0
C3226 C 0.60118 0.09655 0.74167 0.0
C3227 C 0.60013 0.0992 0.77555 0.0
C3228 C 0.60096 0.09893 0.76383 0.0
H3229 H 0.59378 0.10489 0.70664 0.0
H3230 H 0.59652 0.10977 0.72516 0.0
H3231 H 0.58656 0.10524 0.74208 0.0
H3232 H 0.58843 0.11367 0.79483 0.0
H3233 H 0.59302 0.11471 0.77626 0.0
C3234 C 0.91956 0.59953 0.71502 0.0
C3235 C 0.91187 0.59764 0.70731 0.0
C3236 C 0.91682 0.6005 0.72557 0.0
C3237 C 0.89663 0.59247 0.74449 0.0
H3238 H 0.91333 0.60991 0.76314 0.0
C3239 C 0.90377 0.58116 0.78728 0.0
C3240 C 0.90498 0.58886 0.79512 0.0
C3241 C 0.90254 0.58397 0.77677 0.0
C3242 C 0.90843 0.60512 0.75808 0.0
H3243 H 0.89519 0.59554 0.70463 0.0
H3244 H 0.89033 0.59727 0.72326 0.0
H3245 H 0.91471 0.61224 0.74419 0.0
H3246 H 0.90567 0.60562 0.79804 0.0
H3247 H 0.90347 0.6106 0.7795 0.0
H3248 H 0.8904 0.58531 0.75838 0.0
C3249 C 0.89853 0.59793 0.72106 0.0
C3250 C 0.90932 0.60637 0.74719 0.0
C3251 C 0.90129 0.59698 0.7104 0.0
C3252 C 0.90477 0.59951 0.79218 0.0
C3253 C 0.90354 0.60234 0.78157 0.0
C3254 C 0.8957 0.59127 0.75539 0.0
C3255 C 0.9063 0.59964 0.72879 0.0
C3256 C 0.90376 0.59976 0.74025 0.0
C3257 C 0.90245 0.59458 0.77372 0.0
C3258 C 0.90191 0.59728 0.76232 0.0
H3259 H 0.92779 0.6001 0.71294 0.0
H3260 H 0.92306 0.60158 0.73126 0.0
H3261 H 0.89222 0.58724 0.73943 0.0
H3262 H 0.90389 0.57287 0.78923 0.0
H3263 H 0.90197 0.57774 0.77099 0.0
C3264 C 0.21123 0.40492 0.09609 0.0
C3265 C 0.20677 0.41409 0.10024 0.0
C3266 C 0.22203 0.40295 0.09733 0.0
C3267 C 0.24682 0.4176 0.10308 0.0
H3268 H 0.25912 0.38974 0.10278 0.0
C3269 C 0.29184 0.4114 0.10306 0.0
C3270 C 0.29511 0.40545 0.09436 0.0
C3271 C 0.28121 0.41145 0.10603 0.0
C3272 C 0.25577 0.39757 0.10295 0.0
H3273 H 0.20978 0.42802 0.10956 0.0
H3274 H 0.2283 0.42435 0.11227 0.0
H3275 H 0.24003 0.39167 0.10379 0.0
H3276 H 0.29009 0.39446 0.08236 0.0
H3277 H 0.27171 0.39431 0.08772 0.0
H3278 H 0.26257 0.42347 0.1022 0.0
C3279 C 0.22374 0.41887 0.10763 0.0
C3280 C 0.24483 0.39869 0.10343 0.0
C3281 C 0.21308 0.42093 0.10617 0.0
C3282 C 0.28776 0.3991 0.08911 0.0
C3283 C 0.27725 0.39898 0.09221 0.0
C3284 C 0.25774 0.41648 0.10277 0.0
C3285 C 0.22848 0.41005 0.10293 0.0
C3286 C 0.24017 0.40873 0.1033 0.0
C3287 C 0.27379 0.40538 0.10049 0.0
C3288 C 0.26233 0.40646 0.10249 0.0
H3289 H 0.20653 0.39957 0.09142 0.0
H3290 H 0.22536 0.39613 0.09351 0.0
H3291 H 0.24361 0.42547 0.10272 0.0
H3292 H 0.29736 0.41643 0.10715 0.0
H3293 H 0.27874 0.41646 0.11246 0.0
C3294 C 0.21331 0.5883 0.89515 0.0
C3295 C 0.20722 0.59294 0.90308 0.0
C3296 C 0.22391 0.59084 0.89403 0.0
C3297 C 0.24527 0.60871 0.90362 0.0
H3298 H 0.26262 0.58421 0.89824 0.0
C3299 C 0.28793 0.60441 0.9177 0.0
C3300 C 0.29534 0.59934 0.91126 0.0
C3301 C 0.27746 0.60527 0.91461 0.0
C3302 C 0.25791 0.59118 0.89953 0.0
H3303 H 0.20724 0.60413 0.91587 0.0
H3304 H 0.22597 0.60836 0.91424 0.0
H3305 H 0.24365 0.58279 0.89694 0.0
H3306 H 0.29768 0.59148 0.89636 0.0
H3307 H 0.27914 0.59278 0.89096 0.0
H3308 H 0.25966 0.6169 0.9068 0.0
C3309 C 0.22251 0.60297 0.90864 0.0
C3310 C 0.24698 0.5904 0.89878 0.0
C3311 C 0.21177 0.60057 0.9096 0.0
C3312 C 0.29213 0.59545 0.90145 0.0
C3313 C 0.28154 0.59615 0.8984 0.0
C3314 C 0.25622 0.60946 0.90447 0.0
C3315 C 0.22879 0.59787 0.90104 0.0
C3316 C 0.24048 0.5991 0.90096 0.0
C3317 C 0.27408 0.60095 0.90504 0.0
C3318 C 0.26265 0.60065 0.90262 0.0
H3319 H 0.20993 0.58242 0.89 0.0
H3320 H 0.22836 0.587 0.88788 0.0
H3321 H 0.24056 0.61563 0.90518 0.0
H3322 H 0.29019 0.60753 0.9253 0.0
H3323 H 0.27191 0.60888 0.91996 0.0
C3324 C 0.40411 0.21176 0.90452 0.0
C3325 C 0.4147 0.20881 0.90561 0.0
C3326 C 0.4014 0.22236 0.903 0.0
C3327 C 0.41315 0.24848 0.89594 0.0
H3328 H 0.39049 0.25981 0.91279 0.0
C3329 C 0.40733 0.29349 0.90099 0.0
C3330 C 0.40584 0.29652 0.91151 0.0
C3331 C 0.40643 0.28286 0.89808 0.0
C3332 C 0.39683 0.25677 0.908 0.0
H3333 H 0.43073 0.21469 0.90585 0.0
H3334 H 0.42605 0.23293 0.90349 0.0
H3335 H 0.39293 0.24085 0.91179 0.0
H3336 H 0.40187 0.29085 0.92711 0.0
H3337 H 0.40046 0.2726 0.92214 0.0
H3338 H 0.41751 0.26441 0.89275 0.0
C3339 C 0.4198 0.22715 0.90355 0.0
C3340 C 0.39815 0.24587 0.90732 0.0
C3341 C 0.42248 0.21664 0.90504 0.0
C3342 C 0.40311 0.28881 0.91893 0.0
C3343 C 0.40217 0.2783 0.91605 0.0
C3344 C 0.41188 0.25938 0.89668 0.0
C3345 C 0.40923 0.2302 0.90251 0.0
C3346 C 0.40659 0.24159 0.90162 0.0
C3347 C 0.40393 0.27512 0.90563 0.0
C3348 C 0.40395 0.26367 0.90306 0.0
H3349 H 0.39795 0.20589 0.90489 0.0
H3350 H 0.39318 0.22442 0.9022 0.0
H3351 H 0.41958 0.24545 0.89124 0.0
H3352 H 0.40944 0.29926 0.8951 0.0
H3353 H 0.4078 0.28069 0.88996 0.0
C3354 C 0.79255 0.40121 0.90314 0.0
C3355 C 0.79533 0.41187 0.90237 0.0
C3356 C 0.78202 0.39811 0.90192 0.0
C3357 C 0.7557 0.40811 0.89295 0.0
H3358 H 0.74484 0.38973 0.91464 0.0
C3359 C 0.71088 0.40452 0.90136 0.0
C3360 C 0.70841 0.40513 0.91211 0.0
C3361 C 0.72133 0.40294 0.89813 0.0
C3362 C 0.74774 0.39486 0.9085 0.0
H3363 H 0.78932 0.42755 0.89931 0.0
H3364 H 0.77122 0.42225 0.8974 0.0
H3365 H 0.76374 0.39153 0.91242 0.0
H3366 H 0.71496 0.40441 0.92787 0.0
H3367 H 0.73289 0.4019 0.92232 0.0
H3368 H 0.7397 0.41207 0.88959 0.0
C3369 C 0.77705 0.4162 0.89877 0.0
C3370 C 0.7586 0.39578 0.90713 0.0
C3371 C 0.78747 0.41927 0.90001 0.0
C3372 C 0.71653 0.40398 0.91951 0.0
C3373 C 0.72687 0.4024 0.91632 0.0
C3374 C 0.74483 0.40726 0.89439 0.0
C3375 C 0.77412 0.4056 0.89982 0.0
C3376 C 0.76273 0.40278 0.89965 0.0
C3377 C 0.72946 0.40187 0.90561 0.0
C3378 C 0.74073 0.40099 0.9025 0.0
H3379 H 0.79845 0.39534 0.90493 0.0
H3380 H 0.78004 0.38987 0.90273 0.0
H3381 H 0.75861 0.41337 0.88692 0.0
H3382 H 0.70478 0.40535 0.89548 0.0
H3383 H 0.72306 0.40256 0.8898 0.0
C3384 C 0.59935 0.7919 0.90992 0.0
C3385 C 0.59171 0.79637 0.90337 0.0
C3386 C 0.60175 0.78115 0.90909 0.0
C3387 C 0.58922 0.75652 0.89948 0.0
H3388 H 0.61574 0.74399 0.90764 0.0
C3389 C 0.59439 0.71139 0.90249 0.0
C3390 C 0.59826 0.70827 0.91234 0.0
C3391 C 0.59509 0.72196 0.89937 0.0
C3392 C 0.6083 0.74739 0.90528 0.0
H3393 H 0.58115 0.79349 0.89035 0.0
H3394 H 0.58573 0.77503 0.88844 0.0
H3395 H 0.61442 0.76307 0.90586 0.0
H3396 H 0.60638 0.71354 0.92637 0.0
H3397 H 0.60774 0.73178 0.92088 0.0
H3398 H 0.58308 0.74085 0.89906 0.0
C3399 C 0.58959 0.77956 0.89453 0.0
C3400 C 0.60751 0.75833 0.90433 0.0
C3401 C 0.58705 0.79018 0.89553 0.0
C3402 C 0.6033 0.71573 0.91874 0.0
C3403 C 0.60415 0.72618 0.91556 0.0
C3404 C 0.59004 0.74559 0.90033 0.0
C3405 C 0.59664 0.77476 0.90157 0.0
C3406 C 0.5979 0.76307 0.90162 0.0
C3407 C 0.59985 0.72949 0.90596 0.0
C3408 C 0.59952 0.74091 0.90346 0.0
H3409 H 0.60292 0.79651 0.91613 0.0
H3410 H 0.60715 0.77776 0.91471 0.0
H3411 H 0.5816 0.75981 0.8976 0.0
H3412 H 0.59044 0.70579 0.89744 0.0
H3413 H 0.59172 0.72429 0.8919 0.0
C3414 C 0.71704 0.59745 0.08172 0.0
C3415 C 0.709 0.5972 0.08929 0.0
C3416 C 0.72739 0.59952 0.08457 0.0
C3417 C 0.74562 0.59804 0.10684 0.0
H3418 H 0.76409 0.61149 0.08664 0.0
C3419 C 0.78824 0.58593 0.10212 0.0
C3420 C 0.79597 0.59298 0.09857 0.0
C3421 C 0.77785 0.5891 0.10328 0.0
C3422 C 0.75908 0.60793 0.09252 0.0
H3423 H 0.70554 0.59904 0.10586 0.0
H3424 H 0.72383 0.60272 0.11093 0.0
H3425 H 0.74515 0.61255 0.08433 0.0
H3426 H 0.79892 0.60907 0.09386 0.0
H3427 H 0.78052 0.61471 0.09587 0.0
H3428 H 0.75957 0.59336 0.11499 0.0
C3429 C 0.72204 0.60124 0.10274 0.0
C3430 C 0.74818 0.60839 0.09111 0.0
C3431 C 0.71158 0.59914 0.09985 0.0
C3432 C 0.79312 0.60347 0.09659 0.0
C3433 C 0.78259 0.60666 0.09771 0.0
C3434 C 0.75651 0.59766 0.10831 0.0
C3435 C 0.73007 0.60147 0.0951 0.0
C3436 C 0.74135 0.603 0.09795 0.0
C3437 C 0.7748 0.59945 0.10094 0.0
C3438 C 0.76339 0.60214 0.10087 0.0
H3439 H 0.71538 0.59598 0.0735 0.0
H3440 H 0.73335 0.59931 0.0785 0.0
H3441 H 0.74063 0.59384 0.11231 0.0
H3442 H 0.79016 0.5778 0.10378 0.0
H3443 H 0.77211 0.58325 0.10557 0.0
C3444 C 0.41539 0.71226 0.09809 0.0
C3445 C 0.4067 0.70606 0.09537 0.0
C3446 C 0.41412 0.72299 0.10017 0.0
C3447 C 0.39598 0.7447 0.09336 0.0
H3448 H 0.41439 0.76075 0.11155 0.0
C3449 C 0.40401 0.78903 0.08741 0.0
C3450 C 0.40659 0.79517 0.09617 0.0
C3451 C 0.40209 0.77824 0.08856 0.0
C3452 C 0.40903 0.75642 0.10654 0.0
H3453 H 0.38988 0.70595 0.09304 0.0
H3454 H 0.38752 0.72458 0.09714 0.0
H3455 H 0.41475 0.74165 0.11224 0.0
H3456 H 0.40888 0.79513 0.11301 0.0
H3457 H 0.40507 0.77642 0.11516 0.0
H3458 H 0.39022 0.75947 0.08771 0.0
C3459 C 0.39536 0.72128 0.09749 0.0
C3460 C 0.40936 0.74543 0.10684 0.0
C3461 C 0.39666 0.71058 0.09531 0.0
C3462 C 0.40672 0.79054 0.10617 0.0
C3463 C 0.4047 0.77979 0.10735 0.0
C3464 C 0.39562 0.75569 0.09311 0.0
C3465 C 0.40411 0.72772 0.09956 0.0
C3466 C 0.40298 0.73941 0.10011 0.0
C3467 C 0.40273 0.77341 0.09852 0.0
C3468 C 0.40228 0.76172 0.09955 0.0
H3469 H 0.42324 0.70896 0.09793 0.0
H3470 H 0.42107 0.72768 0.10161 0.0
H3471 H 0.39104 0.74038 0.08795 0.0
H3472 H 0.40413 0.79242 0.07959 0.0
H3473 H 0.40074 0.77361 0.08155 0.0
C3474 C 0.58313 0.21437 0.10082 0.0
C3475 C 0.59072 0.20659 0.09889 0.0
C3476 C 0.586 0.22487 0.10201 0.0
C3477 C 0.60655 0.24358 0.09446 0.0
H3478 H 0.5895 0.26229 0.11149 0.0
C3479 C 0.59877 0.28583 0.08225 0.0
C3480 C 0.59724 0.29384 0.08971 0.0
C3481 C 0.6003 0.27546 0.08537 0.0
C3482 C 0.59451 0.25721 0.10684 0.0
H3483 H 0.60738 0.20369 0.09697 0.0
H3484 H 0.6125 0.22221 0.09908 0.0
H3485 H 0.58814 0.24335 0.11392 0.0
H3486 H 0.59633 0.29725 0.10636 0.0
H3487 H 0.59902 0.27891 0.1119 0.0
H3488 H 0.61287 0.25743 0.08733 0.0
C3489 C 0.60426 0.22013 0.0996 0.0
C3490 C 0.59363 0.24632 0.10813 0.0
C3491 C 0.60136 0.20953 0.09842 0.0
C3492 C 0.59746 0.29124 0.10044 0.0
C3493 C 0.59898 0.28074 0.10359 0.0
C3494 C 0.60749 0.25446 0.09323 0.0
C3495 C 0.59658 0.22794 0.10134 0.0
C3496 C 0.59927 0.23936 0.10161 0.0
C3497 C 0.60038 0.27272 0.09606 0.0
C3498 C 0.60112 0.2614 0.09905 0.0
H3499 H 0.57486 0.21241 0.10126 0.0
H3500 H 0.57983 0.23062 0.10308 0.0
H3501 H 0.61104 0.2385 0.08932 0.0
H3502 H 0.59867 0.28752 0.07391 0.0
H3503 H 0.60107 0.26952 0.07931 0.0
C3504 C 0.94308 0.79057 0.56848 0.0
C3505 C 0.95131 0.79569 0.56317 0.0
C3506 C 0.94166 0.77968 0.56751 0.0
C3507 C 0.95559 0.75531 0.55878 0.0
H3508 H 0.92746 0.7436 0.55775 0.0
C3509 C 0.94738 0.71315 0.54441 0.0
C3510 C 0.94071 0.70688 0.55062 0.0
C3511 C 0.94841 0.72391 0.54638 0.0
C3512 C 0.93536 0.74676 0.55812 0.0
H3513 H 0.96444 0.79332 0.55254 0.0
H3514 H 0.96181 0.77452 0.5506 0.0
H3515 H 0.92981 0.76249 0.56035 0.0
H3516 H 0.9297 0.70714 0.56364 0.0
H3517 H 0.9314 0.72603 0.56696 0.0
H3518 H 0.9611 0.73961 0.55624 0.0
C3519 C 0.95659 0.77881 0.55578 0.0
C3520 C 0.93673 0.75758 0.55965 0.0
C3521 C 0.95807 0.78965 0.55684 0.0
C3522 C 0.93492 0.71171 0.55872 0.0
C3523 C 0.93586 0.72254 0.5606 0.0
C3524 C 0.95421 0.74454 0.55713 0.0
C3525 C 0.94839 0.77364 0.56112 0.0
C3526 C 0.94687 0.76204 0.55991 0.0
C3527 C 0.94272 0.72873 0.55452 0.0
C3528 C 0.94409 0.74014 0.55669 0.0
H3529 H 0.93775 0.79495 0.57347 0.0
H3530 H 0.93535 0.77599 0.57187 0.0
H3531 H 0.96352 0.75836 0.5592 0.0
H3532 H 0.95196 0.70973 0.53811 0.0
H3533 H 0.95366 0.72849 0.54148 0.0
C3534 C 0.21026 0.94052 0.56375 0.0
C3535 C 0.20573 0.95052 0.56244 0.0
C3536 C 0.22116 0.93912 0.56286 0.0
C3537 C 0.24492 0.95223 0.5518 0.0
H3538 H 0.25993 0.93151 0.56832 0.0
C3539 C 0.29065 0.93927 0.56155 0.0
C3540 C 0.29505 0.94071 0.5515 0.0
C3541 C 0.27976 0.94001 0.56309 0.0
C3542 C 0.25589 0.9374 0.5637 0.0
H3543 H 0.20922 0.96698 0.55964 0.0
H3544 H 0.22813 0.96462 0.55843 0.0
H3545 H 0.24114 0.93406 0.57111 0.0
H3546 H 0.29132 0.9436 0.53511 0.0
H3547 H 0.27243 0.94457 0.53771 0.0
H3548 H 0.25966 0.95587 0.54466 0.0
C3549 C 0.22328 0.95776 0.55979 0.0
C3550 C 0.24506 0.93878 0.56521 0.0
C3551 C 0.2124 0.95913 0.56056 0.0
C3552 C 0.28825 0.94258 0.54299 0.0
C3553 C 0.27738 0.94321 0.5445 0.0
C3554 C 0.25573 0.95092 0.55035 0.0
C3555 C 0.22783 0.94771 0.56075 0.0
C3556 C 0.23941 0.94622 0.55927 0.0
C3557 C 0.27297 0.94211 0.5546 0.0
C3558 C 0.26139 0.94346 0.55624 0.0
H3559 H 0.20537 0.9337 0.56517 0.0
H3560 H 0.22431 0.93125 0.56355 0.0
H3561 H 0.24087 0.95792 0.54693 0.0
H3562 H 0.29565 0.93785 0.5683 0.0
H3563 H 0.27671 0.93922 0.57099 0.0
C3564 C 0.05134 0.2113 0.55038 0.0
C3565 C 0.05296 0.20625 0.56005 0.0
C3566 C 0.05298 0.22211 0.54936 0.0
C3567 C 0.06412 0.24571 0.56344 0.0
H3568 H 0.04774 0.26031 0.54237 0.0
C3569 C 0.07022 0.29025 0.55511 0.0
C3570 C 0.06168 0.29608 0.55125 0.0
C3571 C 0.06945 0.27931 0.55627 0.0
C3572 C 0.05227 0.25648 0.54846 0.0
H3573 H 0.0575 0.20854 0.57627 0.0
H3574 H 0.05967 0.22754 0.57476 0.0
H3575 H 0.04547 0.24169 0.54463 0.0
H3576 H 0.04552 0.29514 0.54603 0.0
H3577 H 0.04389 0.27634 0.5487 0.0
H3578 H 0.0703 0.26072 0.5678 0.0
C3579 C 0.05757 0.22315 0.56778 0.0
C3580 C 0.05115 0.24562 0.54959 0.0
C3581 C 0.05625 0.21225 0.56871 0.0
C3582 C 0.05229 0.29082 0.54885 0.0
C3583 C 0.05141 0.27996 0.55031 0.0
C3584 C 0.06503 0.25666 0.5625 0.0
C3585 C 0.05594 0.22829 0.55808 0.0
C3586 C 0.05711 0.24 0.55704 0.0
C3587 C 0.06002 0.27397 0.55388 0.0
C3588 C 0.05913 0.26224 0.55497 0.0
H3589 H 0.04898 0.20683 0.54352 0.0
H3590 H 0.05197 0.22557 0.54165 0.0
H3591 H 0.06901 0.24176 0.56917 0.0
H3592 H 0.07757 0.29412 0.55698 0.0
H3593 H 0.07635 0.27506 0.55887 0.0
C3594 C 0.79075 0.0617 0.56595 0.0
C3595 C 0.795 0.05157 0.56468 0.0
C3596 C 0.7799 0.0634 0.565 0.0
C3597 C 0.756 0.06435 0.56718 0.0
H3598 H 0.74127 0.04811 0.54603 0.0
C3599 C 0.71049 0.06504 0.56273 0.0
C3600 C 0.70627 0.06411 0.55255 0.0
C3601 C 0.72133 0.064 0.56445 0.0
C3602 C 0.74525 0.05282 0.5519 0.0
H3603 H 0.79106 0.03521 0.56188 0.0
H3604 H 0.77223 0.03812 0.56051 0.0
H3605 H 0.75996 0.04541 0.54864 0.0
H3606 H 0.71027 0.06181 0.53613 0.0
H3607 H 0.72908 0.06027 0.53906 0.0
H3608 H 0.7413 0.072 0.57018 0.0
C3609 C 0.77727 0.04483 0.56192 0.0
C3610 C 0.75598 0.05114 0.55353 0.0
C3611 C 0.7881 0.04314 0.56278 0.0
C3612 C 0.7132 0.06245 0.54409 0.0
C3613 C 0.72402 0.06149 0.54579 0.0
C3614 C 0.74525 0.06608 0.56552 0.0
C3615 C 0.77302 0.055 0.56284 0.0
C3616 C 0.76153 0.05685 0.56121 0.0
C3617 C 0.72823 0.06207 0.55601 0.0
C3618 C 0.73972 0.06034 0.55783 0.0
H3619 H 0.79582 0.06839 0.56738 0.0
H3620 H 0.77697 0.07136 0.56566 0.0
H3621 H 0.75996 0.06884 0.57324 0.0
H3622 H 0.7054 0.06629 0.56944 0.0
H3623 H 0.72424 0.0644 0.57243 0.0
C3624 C 0.95183 0.21197 0.45085 0.0
C3625 C 0.94981 0.20677 0.44135 0.0
C3626 C 0.9503 0.22281 0.45174 0.0
C3627 C 0.93892 0.24629 0.43763 0.0
H3628 H 0.95609 0.26101 0.45799 0.0
C3629 C 0.93339 0.29096 0.44571 0.0
C3630 C 0.94202 0.29674 0.44942 0.0
C3631 C 0.93408 0.28001 0.44454 0.0
C3632 C 0.95134 0.25715 0.45209 0.0
H3633 H 0.94466 0.20878 0.42527 0.0
H3634 H 0.94269 0.22783 0.42651 0.0
H3635 H 0.95813 0.24236 0.45589 0.0
H3636 H 0.95828 0.29576 0.45429 0.0
H3637 H 0.9598 0.27696 0.45154 0.0
H3638 H 0.93274 0.26129 0.43327 0.0
C3639 C 0.94501 0.22356 0.43349 0.0
C3640 C 0.95233 0.24626 0.45106 0.0
C3641 C 0.94622 0.21262 0.43271 0.0
C3642 C 0.95144 0.29145 0.45159 0.0
C3643 C 0.95225 0.2806 0.4501 0.0
C3644 C 0.93815 0.25726 0.43845 0.0
C3645 C 0.94707 0.22886 0.44302 0.0
C3646 C 0.94607 0.24059 0.4439 0.0
C3647 C 0.94353 0.27463 0.44674 0.0
C3648 C 0.94432 0.26289 0.44573 0.0
H3649 H 0.95444 0.20761 0.45768 0.0
H3650 H 0.95162 0.22639 0.45934 0.0
H3651 H 0.93381 0.24231 0.43212 0.0
H3652 H 0.92601 0.29486 0.44402 0.0
H3653 H 0.9271 0.2758 0.44211 0.0
C3654 C 0.71237 0.93661 0.44255 0.0
C3655 C 0.70825 0.9374 0.45278 0.0
C3656 C 0.72318 0.93776 0.44073 0.0
C3657 C 0.74709 0.93589 0.43936 0.0
H3658 H 0.76182 0.95655 0.45624 0.0
C3659 C 0.79257 0.94088 0.43838 0.0
C3660 C 0.79669 0.95107 0.43971 0.0
C3661 C 0.78176 0.93901 0.43941 0.0
C3662 C 0.75784 0.95083 0.45135 0.0
H3663 H 0.7124 0.93958 0.46918 0.0
H3664 H 0.73117 0.94132 0.46606 0.0
H3665 H 0.7432 0.95363 0.45908 0.0
H3666 H 0.79252 0.96734 0.44269 0.0
H3667 H 0.77376 0.96413 0.44421 0.0
H3668 H 0.76174 0.93336 0.43142 0.0
C3669 C 0.72605 0.94012 0.45937 0.0
C3670 C 0.74714 0.94902 0.45311 0.0
C3671 C 0.71525 0.93905 0.46118 0.0
C3672 C 0.78967 0.95937 0.44173 0.0
C3673 C 0.77888 0.95751 0.44268 0.0
C3674 C 0.75781 0.93775 0.43757 0.0
C3675 C 0.73016 0.93967 0.44911 0.0
C3676 C 0.74161 0.94151 0.44717 0.0
C3677 C 0.77478 0.94728 0.44174 0.0
C3678 C 0.76333 0.94526 0.44353 0.0
H3679 H 0.70722 0.93538 0.43588 0.0
H3680 H 0.72601 0.93747 0.4327 0.0
H3681 H 0.74314 0.92998 0.43469 0.0
H3682 H 0.79773 0.93429 0.43684 0.0
H3683 H 0.77893 0.93101 0.43872 0.0
C3684 C 0.04483 0.78996 0.44598 0.0
C3685 C 0.05159 0.79599 0.43964 0.0
C3686 C 0.04629 0.77912 0.44704 0.0
C3687 C 0.06613 0.75787 0.44313 0.0
H3688 H 0.04174 0.73988 0.44634 0.0
C3689 C 0.06808 0.71205 0.44351 0.0
C3690 C 0.06221 0.70702 0.45143 0.0
C3691 C 0.0671 0.7229 0.4418 0.0
C3692 C 0.04863 0.7448 0.44552 0.0
H3693 H 0.06515 0.79524 0.42933 0.0
H3694 H 0.06753 0.77629 0.43094 0.0
H3695 H 0.03934 0.75866 0.44356 0.0
H3696 H 0.05073 0.70957 0.4638 0.0
H3697 H 0.04897 0.72839 0.46074 0.0
H3698 H 0.07538 0.74387 0.44491 0.0
C3699 C 0.06122 0.77998 0.43531 0.0
C3700 C 0.04727 0.7556 0.44397 0.0
C3701 C 0.05982 0.79086 0.43433 0.0
C3702 C 0.05539 0.71314 0.45763 0.0
C3703 C 0.05432 0.72393 0.45584 0.0
C3704 C 0.06748 0.74703 0.44457 0.0
C3705 C 0.05449 0.77394 0.4417 0.0
C3706 C 0.05599 0.76233 0.44288 0.0
C3707 C 0.06012 0.72894 0.44788 0.0
C3708 C 0.05875 0.74039 0.44591 0.0
H3709 H 0.03846 0.79363 0.45027 0.0
H3710 H 0.04107 0.77483 0.45221 0.0
H3711 H 0.07305 0.76277 0.44247 0.0
H3712 H 0.07342 0.7076 0.43859 0.0
H3713 H 0.07164 0.72652 0.43558 0.0
C3714 C 0.21268 0.0426 0.44057 0.0
C3715 C 0.2057 0.05099 0.43884 0.0
C3716 C 0.22349 0.04437 0.44147 0.0
C3717 C 0.24456 0.05074 0.45026 0.0
H3718 H 0.25937 0.07192 0.4341 0.0
C3719 C 0.28711 0.06197 0.46049 0.0
C3720 C 0.2942 0.06363 0.45217 0.0
C3721 C 0.27632 0.06114 0.45861 0.0
C3722 C 0.25538 0.06592 0.43863 0.0
H3723 H 0.20472 0.06784 0.43641 0.0
H3724 H 0.22356 0.07097 0.43821 0.0
H3725 H 0.24074 0.0687 0.43076 0.0
H3726 H 0.29537 0.06603 0.43533 0.0
H3727 H 0.27654 0.06437 0.43201 0.0
H3728 H 0.25918 0.0477 0.45792 0.0
C3729 C 0.22069 0.06297 0.43872 0.0
C3730 C 0.24465 0.06415 0.43679 0.0
C3731 C 0.20986 0.06118 0.43773 0.0
C3732 C 0.29015 0.06477 0.44193 0.0
C3733 C 0.27933 0.06385 0.44004 0.0
C3734 C 0.25526 0.05247 0.45206 0.0
C3735 C 0.22764 0.05461 0.44077 0.0
C3736 C 0.23909 0.05652 0.44258 0.0
C3737 C 0.27228 0.06185 0.44833 0.0
C3738 C 0.26083 0.0601 0.44631 0.0
H3739 H 0.20979 0.03462 0.44134 0.0
H3740 H 0.22859 0.03769 0.44279 0.0
H3741 H 0.24056 0.04492 0.45501 0.0
H3742 H 0.28991 0.06118 0.46849 0.0
H3743 H 0.27114 0.05987 0.46524 0.0
C3744 C 0.54362 0.94636 0.71289 0.0
C3745 C 0.55036 0.94007 0.70679 0.0
C3746 C 0.54518 0.94743 0.72372 0.0
C3747 C 0.56523 0.94369 0.7448 0.0
H3748 H 0.54097 0.94688 0.76297 0.0
C3749 C 0.56749 0.94445 0.79062 0.0
C3750 C 0.56165 0.95243 0.79559 0.0
C3751 C 0.56645 0.94263 0.77979 0.0
C3752 C 0.54783 0.94606 0.75799 0.0
H3753 H 0.564 0.92986 0.70742 0.0
H3754 H 0.56655 0.93149 0.72636 0.0
H3755 H 0.53843 0.94395 0.74423 0.0
H3756 H 0.55015 0.96477 0.79299 0.0
H3757 H 0.54827 0.96151 0.77421 0.0
H3758 H 0.57458 0.94562 0.75871 0.0
C3759 C 0.56018 0.9358 0.72272 0.0
C3760 C 0.54638 0.94442 0.74721 0.0
C3761 C 0.55868 0.93481 0.71185 0.0
C3762 C 0.55479 0.95857 0.78946 0.0
C3763 C 0.55365 0.95666 0.77869 0.0
C3764 C 0.56666 0.94521 0.75562 0.0
C3765 C 0.55346 0.94215 0.72882 0.0
C3766 C 0.55506 0.94336 0.74042 0.0
C3767 C 0.55943 0.94865 0.77374 0.0
C3768 C 0.55797 0.94655 0.76231 0.0
H3769 H 0.53719 0.95061 0.70928 0.0
H3770 H 0.53996 0.95257 0.72805 0.0
H3771 H 0.57211 0.94305 0.73984 0.0
H3772 H 0.57286 0.93958 0.79509 0.0
H3773 H 0.57097 0.93638 0.7762 0.0
C3774 C 0.05909 0.54213 0.71443 0.0
C3775 C 0.06116 0.55055 0.70757 0.0
C3776 C 0.05808 0.5438 0.72525 0.0
C3777 C 0.06337 0.5633 0.74655 0.0
H3778 H 0.04237 0.54696 0.7614 0.0
C3779 C 0.04076 0.56137 0.78962 0.0
C3780 C 0.04929 0.56327 0.79639 0.0
C3781 C 0.04232 0.56025 0.77878 0.0
C3782 C 0.0482 0.5517 0.75738 0.0
H3783 H 0.06392 0.56737 0.70682 0.0
H3784 H 0.0619 0.57033 0.72565 0.0
H3785 H 0.04486 0.54431 0.74267 0.0
H3786 H 0.06618 0.56561 0.79697 0.0
H3787 H 0.06892 0.56342 0.77815 0.0
H3788 H 0.06644 0.57093 0.76124 0.0
C3789 C 0.06125 0.56237 0.72269 0.0
C3790 C 0.04975 0.55005 0.74662 0.0
C3791 C 0.06236 0.56068 0.71186 0.0
C3792 C 0.05941 0.56419 0.79201 0.0
C3793 C 0.06098 0.56298 0.78117 0.0
C3794 C 0.06177 0.565 0.75732 0.0
C3795 C 0.059 0.55397 0.72954 0.0
C3796 C 0.05738 0.55579 0.74104 0.0
C3797 C 0.05247 0.56091 0.77441 0.0
C3798 C 0.05416 0.55921 0.76289 0.0
H3799 H 0.05823 0.5342 0.71144 0.0
H3800 H 0.05658 0.53709 0.73027 0.0
H3801 H 0.0694 0.5678 0.74257 0.0
H3802 H 0.03285 0.56072 0.79268 0.0
H3803 H 0.03553 0.55889 0.77384 0.0
C3804 C 0.45854 0.05748 0.7125 0.0
C3805 C 0.45189 0.06387 0.70641 0.0
C3806 C 0.45703 0.05652 0.72335 0.0
C3807 C 0.43725 0.06092 0.74456 0.0
H3808 H 0.4616 0.05728 0.76253 0.0
C3809 C 0.43554 0.06044 0.79046 0.0
C3810 C 0.44118 0.05227 0.79534 0.0
C3811 C 0.43649 0.06222 0.77962 0.0
C3812 C 0.45472 0.05823 0.75761 0.0
H3813 H 0.43848 0.07438 0.70705 0.0
H3814 H 0.43604 0.07295 0.72602 0.0
H3815 H 0.46404 0.06001 0.74376 0.0
H3816 H 0.4522 0.03953 0.79257 0.0
H3817 H 0.45392 0.04273 0.77378 0.0
H3818 H 0.42798 0.05932 0.75858 0.0
C3819 C 0.44228 0.06847 0.72237 0.0
C3820 C 0.4561 0.05975 0.74681 0.0
C3821 C 0.44372 0.06934 0.71148 0.0
C3822 C 0.44772 0.04589 0.78911 0.0
C3823 C 0.44877 0.04776 0.77833 0.0
C3824 C 0.43588 0.05952 0.75541 0.0
C3825 C 0.44891 0.06203 0.72847 0.0
C3826 C 0.44739 0.06096 0.74009 0.0
C3827 C 0.44321 0.05597 0.77346 0.0
C3828 C 0.4446 0.05802 0.76203 0.0
H3829 H 0.46485 0.05306 0.70888 0.0
H3830 H 0.46216 0.0513 0.72768 0.0
H3831 H 0.43034 0.06169 0.73967 0.0
H3832 H 0.43041 0.06549 0.79501 0.0
H3833 H 0.43213 0.06863 0.77608 0.0
C3834 C 0.93826 0.44196 0.71066 0.0
C3835 C 0.93944 0.45211 0.70642 0.0
C3836 C 0.9395 0.44019 0.72146 0.0
C3837 C 0.95134 0.4523 0.74533 0.0
H3838 H 0.93498 0.43111 0.75989 0.0
C3839 C 0.94258 0.43737 0.79063 0.0
C3840 C 0.95275 0.43836 0.79484 0.0
C3841 C 0.94081 0.4387 0.77984 0.0
C3842 C 0.93956 0.43713 0.75599 0.0
H3843 H 0.94248 0.46842 0.71034 0.0
H3844 H 0.94433 0.46541 0.72914 0.0
H3845 H 0.93167 0.43455 0.74135 0.0
H3846 H 0.96911 0.44111 0.79089 0.0
H3847 H 0.96609 0.44311 0.77212 0.0
H3848 H 0.95898 0.45516 0.76001 0.0
C3849 C 0.94275 0.45874 0.7241 0.0
C3850 C 0.93775 0.43901 0.74529 0.0
C3851 C 0.94162 0.46049 0.7133 0.0
C3852 C 0.96115 0.4404 0.78795 0.0
C3853 C 0.9594 0.44163 0.77716 0.0
C3854 C 0.9531 0.45048 0.75603 0.0
C3855 C 0.94186 0.44855 0.72833 0.0
C3856 C 0.94363 0.44661 0.73979 0.0
C3857 C 0.94918 0.44095 0.77296 0.0
C3858 C 0.94727 0.44284 0.76152 0.0
H3859 H 0.93664 0.4353 0.70561 0.0
H3860 H 0.93887 0.43222 0.72436 0.0
H3861 H 0.95615 0.4581 0.74137 0.0
H3862 H 0.93591 0.43585 0.7957 0.0
H3863 H 0.93281 0.43824 0.77695 0.0
C3864 C 0.56464 0.05891 0.21099 0.0
C3865 C 0.56348 0.04877 0.20671 0.0
C3866 C 0.56344 0.06063 0.2218 0.0
C3867 C 0.55178 0.04834 0.24567 0.0
H3868 H 0.56809 0.06954 0.26027 0.0
C3869 C 0.56071 0.06296 0.29105 0.0
C3870 C 0.55057 0.06179 0.29531 0.0
C3871 C 0.56243 0.06178 0.28023 0.0
C3872 C 0.56352 0.06352 0.25636 0.0
H3873 H 0.56054 0.03243 0.21058 0.0
H3874 H 0.55876 0.03536 0.2294 0.0
H3875 H 0.57131 0.06625 0.24169 0.0
H3876 H 0.53422 0.05893 0.29141 0.0
H3877 H 0.53714 0.05721 0.2726 0.0
H3878 H 0.54427 0.04532 0.26038 0.0
C3879 C 0.56028 0.04206 0.22438 0.0
C3880 C 0.56528 0.06172 0.24563 0.0
C3881 C 0.56137 0.04036 0.21356 0.0
C3882 C 0.54215 0.05976 0.28844 0.0
C3883 C 0.54385 0.05869 0.27762 0.0
C3884 C 0.55009 0.05008 0.25639 0.0
C3885 C 0.56115 0.05224 0.22865 0.0
C3886 C 0.55942 0.05411 0.24013 0.0
C3887 C 0.55404 0.05951 0.27337 0.0
C3888 C 0.5559 0.05772 0.2619 0.0
H3889 H 0.56621 0.06559 0.20595 0.0
H3890 H 0.56404 0.0686 0.22473 0.0
H3891 H 0.54699 0.04253 0.24172 0.0
H3892 H 0.56738 0.06448 0.2961 0.0
H3893 H 0.5704 0.06236 0.2773 0.0
C3894 C 0.94451 0.56775 0.21177 0.0
C3895 C 0.95283 0.56236 0.20686 0.0
C3896 C 0.94292 0.56693 0.22265 0.0
C3897 C 0.95642 0.55853 0.24738 0.0
H3898 H 0.92807 0.55729 0.25851 0.0
C3899 C 0.94748 0.54448 0.28953 0.0
C3900 C 0.94055 0.55064 0.29556 0.0
C3901 C 0.94875 0.54635 0.27878 0.0
C3902 C 0.93603 0.55771 0.25552 0.0
H3903 H 0.96595 0.55181 0.20963 0.0
H3904 H 0.96304 0.55017 0.22839 0.0
H3905 H 0.93078 0.55981 0.23966 0.0
H3906 H 0.92933 0.56347 0.29486 0.0
H3907 H 0.93145 0.56661 0.276 0.0
H3908 H 0.96163 0.55614 0.26321 0.0
C3909 C 0.95787 0.55527 0.22394 0.0
C3910 C 0.9376 0.5592 0.24471 0.0
C3911 C 0.95952 0.55616 0.21311 0.0
C3912 C 0.93476 0.55859 0.29048 0.0
C3913 C 0.93594 0.56037 0.27967 0.0
C3914 C 0.95484 0.55692 0.25813 0.0
C3915 C 0.94957 0.56065 0.22889 0.0
C3916 C 0.94783 0.55954 0.24047 0.0
C3917 C 0.94304 0.55434 0.27372 0.0
C3918 C 0.94463 0.55641 0.26232 0.0
H3919 H 0.93923 0.57263 0.20722 0.0
H3920 H 0.93654 0.57132 0.22617 0.0
H3921 H 0.96441 0.55901 0.24449 0.0
H3922 H 0.95209 0.5383 0.29315 0.0
H3923 H 0.9542 0.54149 0.27438 0.0
C3924 C 0.43819 0.94098 0.20997 0.0
C3925 C 0.43876 0.95122 0.20582 0.0
C3926 C 0.4394 0.93922 0.22077 0.0
C3927 C 0.4502 0.95199 0.24478 0.0
H3928 H 0.43518 0.92978 0.25926 0.0
C3929 C 0.44198 0.93705 0.29011 0.0
C3930 C 0.452 0.93891 0.29441 0.0
C3931 C 0.44026 0.93795 0.27927 0.0
C3932 C 0.43939 0.93608 0.25537 0.0
H3933 H 0.44057 0.96768 0.2099 0.0
H3934 H 0.44235 0.96466 0.22869 0.0
H3935 H 0.43182 0.93294 0.24066 0.0
H3936 H 0.46818 0.94267 0.29056 0.0
H3937 H 0.46528 0.94392 0.27171 0.0
H3938 H 0.45749 0.95541 0.25951 0.0
C3939 C 0.44132 0.95793 0.22359 0.0
C3940 C 0.43755 0.93781 0.24464 0.0
C3941 C 0.44022 0.95967 0.21278 0.0
C3942 C 0.46033 0.9413 0.28756 0.0
C3943 C 0.45864 0.9421 0.27672 0.0
C3944 C 0.45198 0.95031 0.25549 0.0
C3945 C 0.4411 0.94767 0.22773 0.0
C3946 C 0.44293 0.9458 0.23919 0.0
C3947 C 0.44854 0.94065 0.27243 0.0
C3948 C 0.44663 0.94232 0.26095 0.0
H3949 H 0.43711 0.93427 0.20483 0.0
H3950 H 0.43929 0.9312 0.22362 0.0
H3951 H 0.45464 0.95811 0.24086 0.0
H3952 H 0.43537 0.93523 0.29516 0.0
H3953 H 0.43236 0.93687 0.2763 0.0
C3954 C 0.06123 0.46108 0.28882 0.0
C3955 C 0.06312 0.45272 0.2958 0.0
C3956 C 0.0601 0.45925 0.27804 0.0
C3957 C 0.06464 0.43933 0.25699 0.0
H3958 H 0.04362 0.45576 0.2423 0.0
C3959 C 0.0412 0.44115 0.21437 0.0
C3960 C 0.04957 0.43923 0.20742 0.0
C3961 C 0.04299 0.44221 0.22517 0.0
C3962 C 0.04944 0.451 0.24627 0.0
H3963 H 0.06549 0.43586 0.29681 0.0
H3964 H 0.06329 0.43264 0.27805 0.0
H3965 H 0.04652 0.45867 0.26092 0.0
H3966 H 0.06641 0.43671 0.20647 0.0
H3967 H 0.06956 0.43878 0.22526 0.0
H3968 H 0.0673 0.43142 0.24236 0.0
C3969 C 0.06286 0.44066 0.28088 0.0
C3970 C 0.05124 0.4528 0.25697 0.0
C3971 C 0.06407 0.4425 0.29167 0.0
C3972 C 0.05976 0.43815 0.21159 0.0
C3973 C 0.06156 0.4393 0.22239 0.0
C3974 C 0.0628 0.43748 0.24629 0.0
C3975 C 0.06073 0.449 0.27392 0.0
C3976 C 0.05889 0.44702 0.26248 0.0
C3977 C 0.05322 0.44148 0.22933 0.0
C3978 C 0.05517 0.4433 0.24077 0.0
H3979 H 0.06056 0.46907 0.29169 0.0
H3980 H 0.05872 0.46591 0.27292 0.0
H3981 H 0.07067 0.43478 0.26093 0.0
H3982 H 0.03323 0.44192 0.21148 0.0
H3983 H 0.03632 0.44363 0.23027 0.0
C3984 C 0.71344 0.5419 0.9408 0.0
C3985 C 0.70653 0.55037 0.93913 0.0
C3986 C 0.72425 0.54358 0.94189 0.0
C3987 C 0.74546 0.54964 0.95073 0.0
H3988 H 0.76021 0.57111 0.93492 0.0
C3989 C 0.78819 0.5608 0.96078 0.0
C3990 C 0.79514 0.56278 0.95241 0.0
C3991 C 0.77738 0.55982 0.959 0.0
C3992 C 0.75624 0.56502 0.93935 0.0
H3993 H 0.7057 0.56729 0.9371 0.0
H3994 H 0.72452 0.57025 0.93921 0.0
H3995 H 0.74157 0.56802 0.93163 0.0
H3996 H 0.79607 0.56548 0.9356 0.0
H3997 H 0.77726 0.56356 0.93246 0.0
H3998 H 0.76013 0.5464 0.95822 0.0
C3999 C 0.7216 0.56226 0.93952 0.0
C4000 C 0.7455 0.56333 0.93755 0.0
C4001 C 0.71077 0.56056 0.93835 0.0
C4002 C 0.79096 0.56398 0.94224 0.0
C4003 C 0.78014 0.56293 0.94045 0.0
C4004 C 0.75618 0.55129 0.95249 0.0
C4005 C 0.72848 0.5538 0.94143 0.0
C4006 C 0.73995 0.55561 0.94322 0.0
C4007 C 0.77321 0.5607 0.94879 0.0
C4008 C 0.76174 0.55902 0.94685 0.0
H4009 H 0.71049 0.53393 0.94132 0.0
H4010 H 0.7293 0.53684 0.9431 0.0
H4011 H 0.74146 0.54374 0.95538 0.0
H4012 H 0.79109 0.55993 0.96874 0.0
H4013 H 0.77229 0.55835 0.96566 0.0
C4014 C 0.78741 0.44174 0.04141 0.0
C4015 C 0.79449 0.44006 0.04973 0.0
C4016 C 0.7766 0.44244 0.04328 0.0
C4017 C 0.75572 0.43725 0.06324 0.0
H4018 H 0.74057 0.45804 0.04692 0.0
C4019 C 0.71267 0.45992 0.06145 0.0
C4020 C 0.70585 0.45143 0.06332 0.0
C4021 C 0.7235 0.45832 0.06046 0.0
C4022 C 0.74467 0.45228 0.05166 0.0
H4023 H 0.79565 0.43751 0.06655 0.0
H4024 H 0.77682 0.43896 0.06985 0.0
H4025 H 0.75923 0.45555 0.04398 0.0
H4026 H 0.70517 0.43458 0.06587 0.0
H4027 H 0.72402 0.43175 0.0639 0.0
H4028 H 0.74116 0.43426 0.07117 0.0
C4029 C 0.7796 0.43958 0.06183 0.0
C4030 C 0.75539 0.45071 0.04983 0.0
C4031 C 0.79043 0.43878 0.05994 0.0
C4032 C 0.71018 0.44132 0.06446 0.0
C4033 C 0.72103 0.4397 0.06337 0.0
C4034 C 0.74498 0.43887 0.06512 0.0
C4035 C 0.77255 0.44158 0.05354 0.0
C4036 C 0.76108 0.44315 0.05556 0.0
C4037 C 0.72782 0.44816 0.0612 0.0
C4038 C 0.7393 0.44642 0.05935 0.0
H4039 H 0.79022 0.44263 0.03342 0.0
H4040 H 0.77143 0.44371 0.03664 0.0
H4041 H 0.7598 0.43129 0.06775 0.0
H4042 H 0.70964 0.46784 0.06066 0.0
H4043 H 0.72848 0.46508 0.05906 0.0
C4044 C 0.54409 0.71158 0.0576 0.0
C4045 C 0.55099 0.70542 0.06365 0.0
C4046 C 0.5456 0.72242 0.05663 0.0
C4047 C 0.56572 0.74344 0.05999 0.0
H4048 H 0.54137 0.7616 0.05746 0.0
C4049 C 0.5677 0.78933 0.0589 0.0
C4050 C 0.56161 0.79417 0.05103 0.0
C4051 C 0.56684 0.7785 0.0608 0.0
C4052 C 0.54825 0.75662 0.0581 0.0
H4053 H 0.56484 0.70595 0.07357 0.0
H4054 H 0.56731 0.72492 0.07213 0.0
H4055 H 0.53892 0.74287 0.06053 0.0
H4056 H 0.54989 0.79133 0.03894 0.0
H4057 H 0.54833 0.77256 0.04236 0.0
H4058 H 0.57501 0.75735 0.05773 0.0
C4059 C 0.56085 0.72132 0.06792 0.0
C4060 C 0.54686 0.74586 0.05982 0.0
C4061 C 0.5594 0.71043 0.0688 0.0
C4062 C 0.55473 0.7879 0.04506 0.0
C4063 C 0.55377 0.77714 0.04706 0.0
C4064 C 0.56711 0.75426 0.05839 0.0
C4065 C 0.55398 0.72747 0.06179 0.0
C4066 C 0.55556 0.73907 0.06062 0.0
C4067 C 0.55975 0.77233 0.055 0.0
C4068 C 0.55838 0.76093 0.05727 0.0
H4069 H 0.53758 0.70801 0.05342 0.0
H4070 H 0.54026 0.7268 0.05165 0.0
H4071 H 0.57262 0.73848 0.06044 0.0
H4072 H 0.5731 0.7939 0.06364 0.0
H4073 H 0.57153 0.77501 0.067 0.0
C4074 C 0.28968 0.54201 0.06213 0.0
C4075 C 0.29654 0.55059 0.0634 0.0
C4076 C 0.27882 0.54355 0.06142 0.0
C4077 C 0.25737 0.54907 0.05302 0.0
H4078 H 0.24272 0.57106 0.06818 0.0
C4079 C 0.21444 0.55937 0.04312 0.0
C4080 C 0.20759 0.56185 0.05143 0.0
C4081 C 0.22527 0.55853 0.04482 0.0
C4082 C 0.24666 0.56481 0.06395 0.0
H4083 H 0.29726 0.56753 0.06516 0.0
H4084 H 0.27834 0.57026 0.06363 0.0
H4085 H 0.26143 0.56822 0.0713 0.0
H4086 H 0.20685 0.56557 0.06805 0.0
H4087 H 0.22571 0.56384 0.07108 0.0
H4088 H 0.2426 0.54538 0.04594 0.0
C4089 C 0.28134 0.56229 0.06338 0.0
C4090 C 0.25744 0.56327 0.06564 0.0
C4091 C 0.29222 0.56074 0.06422 0.0
C4092 C 0.21189 0.56368 0.06146 0.0
C4093 C 0.22274 0.56273 0.06318 0.0
C4094 C 0.2466 0.55055 0.05139 0.0
C4095 C 0.27449 0.55373 0.06181 0.0
C4096 C 0.26296 0.55537 0.06019 0.0
C4097 C 0.22957 0.56003 0.05491 0.0
C4098 C 0.24108 0.55848 0.05678 0.0
H4099 H 0.29271 0.53407 0.06161 0.0
H4100 H 0.27383 0.53672 0.0605 0.0
H4101 H 0.26132 0.54302 0.04852 0.0
H4102 H 0.21145 0.55803 0.03526 0.0
H4103 H 0.23027 0.5567 0.03818 0.0
C4104 C 0.43805 0.21041 0.06183 0.0
C4105 C 0.43927 0.20617 0.05169 0.0
C4106 C 0.43913 0.22123 0.06357 0.0
C4107 C 0.43713 0.2451 0.06464 0.0
H4108 H 0.45817 0.25989 0.04832 0.0
C4109 C 0.44138 0.29056 0.06553 0.0
C4110 C 0.4515 0.29488 0.06444 0.0
C4111 C 0.43975 0.27972 0.06444 0.0
C4112 C 0.45234 0.25589 0.05305 0.0
H4113 H 0.44216 0.21011 0.03535 0.0
H4114 H 0.44374 0.22893 0.03832 0.0
H4115 H 0.45555 0.24121 0.04558 0.0
H4116 H 0.46791 0.29108 0.06182 0.0
H4117 H 0.46513 0.27222 0.06024 0.0
H4118 H 0.43419 0.25977 0.07237 0.0
C4119 C 0.44226 0.22389 0.04501 0.0
C4120 C 0.4507 0.24516 0.05135 0.0
C4121 C 0.44129 0.21307 0.04329 0.0
C4122 C 0.45999 0.28805 0.06258 0.0
C4123 C 0.45838 0.27722 0.0616 0.0
C4124 C 0.43882 0.25585 0.0664 0.0
C4125 C 0.44137 0.22812 0.0552 0.0
C4126 C 0.44305 0.2396 0.05708 0.0
C4127 C 0.44821 0.2729 0.06234 0.0
C4128 C 0.44645 0.2614 0.06062 0.0
H4129 H 0.43654 0.20533 0.0685 0.0
H4130 H 0.43849 0.22415 0.07154 0.0
H4131 H 0.43109 0.24114 0.06915 0.0
H4132 H 0.43465 0.29557 0.06692 0.0
H4133 H 0.4318 0.27673 0.06496 0.0
C4134 C 0.21147 0.43416 0.94344 0.0
C4135 C 0.20685 0.44016 0.95152 0.0
C4136 C 0.22229 0.43494 0.94135 0.0
C4137 C 0.24418 0.45346 0.94384 0.0
H4138 H 0.26271 0.42933 0.9423 0.0
C4139 C 0.28887 0.45829 0.94697 0.0
C4140 C 0.29557 0.45163 0.94124 0.0
C4141 C 0.27803 0.45655 0.94718 0.0
C4142 C 0.25764 0.43615 0.94252 0.0
H4143 H 0.21011 0.45158 0.9638 0.0
H4144 H 0.22877 0.453 0.96005 0.0
H4145 H 0.24377 0.42669 0.9445 0.0
H4146 H 0.296 0.43789 0.93113 0.0
H4147 H 0.277 0.43499 0.93132 0.0
H4148 H 0.25786 0.46296 0.94177 0.0
C4149 C 0.22405 0.4477 0.95534 0.0
C4150 C 0.24678 0.43463 0.94381 0.0
C4151 C 0.21334 0.44682 0.95752 0.0
C4152 C 0.29109 0.44319 0.93564 0.0
C4153 C 0.28019 0.44148 0.9358 0.0
C4154 C 0.25495 0.45498 0.94243 0.0
C4155 C 0.22864 0.44186 0.94717 0.0
C4156 C 0.23998 0.44328 0.94473 0.0
C4157 C 0.27351 0.44815 0.94159 0.0
C4158 C 0.26189 0.44637 0.94202 0.0
H4159 H 0.20673 0.42893 0.93868 0.0
H4160 H 0.22563 0.43034 0.93501 0.0
H4161 H 0.2391 0.46028 0.94433 0.0
H4162 H 0.29199 0.46482 0.95146 0.0
H4163 H 0.27322 0.46173 0.95193 0.0
C4164 C 0.5589 0.29139 0.93496 0.0
C4165 C 0.55052 0.2964 0.94017 0.0
C4166 C 0.56036 0.2805 0.93583 0.0
C4167 C 0.54644 0.25593 0.944 0.0
H4168 H 0.57462 0.24445 0.94563 0.0
C4169 C 0.5547 0.21369 0.95825 0.0
C4170 C 0.56166 0.20757 0.95222 0.0
C4171 C 0.55355 0.22445 0.95631 0.0
C4172 C 0.56671 0.24754 0.94509 0.0
H4173 H 0.53718 0.29379 0.95047 0.0
H4174 H 0.53988 0.275 0.95222 0.0
H4175 H 0.57218 0.26333 0.9431 0.0
H4176 H 0.57305 0.20808 0.93954 0.0
H4177 H 0.57115 0.22696 0.93627 0.0
H4178 H 0.54099 0.24015 0.9463 0.0
C4179 C 0.54518 0.27938 0.94721 0.0
C4180 C 0.56529 0.25836 0.9436 0.0
C4181 C 0.54366 0.29023 0.94626 0.0
C4182 C 0.5676 0.21254 0.94432 0.0
C4183 C 0.56655 0.22336 0.94247 0.0
C4184 C 0.54786 0.24515 0.94562 0.0
C4185 C 0.55354 0.27434 0.942 0.0
C4186 C 0.55512 0.26273 0.94313 0.0
C4187 C 0.55943 0.22941 0.94838 0.0
C4188 C 0.558 0.24083 0.94626 0.0
H4189 H 0.56431 0.29588 0.93015 0.0
H4190 H 0.56679 0.27691 0.93157 0.0
H4191 H 0.53849 0.2589 0.94342 0.0
H4192 H 0.54998 0.21015 0.9644 0.0
H4193 H 0.54809 0.22892 0.96108 0.0
C4194 C 0.43805 0.79211 0.94141 0.0
C4195 C 0.43893 0.79631 0.9516 0.0
C4196 C 0.43934 0.78132 0.93964 0.0
C4197 C 0.45102 0.75754 0.95199 0.0
H4198 H 0.43508 0.74272 0.93066 0.0
C4199 C 0.44261 0.71205 0.93768 0.0
C4200 C 0.45279 0.70789 0.93882 0.0
C4201 C 0.4408 0.72286 0.93875 0.0
C4202 C 0.43955 0.74671 0.93671 0.0
H4203 H 0.44144 0.79232 0.96799 0.0
H4204 H 0.44341 0.77355 0.96497 0.0
H4205 H 0.43164 0.7613 0.93388 0.0
H4206 H 0.46913 0.71196 0.94153 0.0
H4207 H 0.46603 0.73077 0.9431 0.0
H4208 H 0.45869 0.74293 0.95509 0.0
C4209 C 0.44202 0.77861 0.95827 0.0
C4210 C 0.43766 0.75742 0.93847 0.0
C4211 C 0.44082 0.7894 0.96002 0.0
C4212 C 0.46116 0.71486 0.94072 0.0
C4213 C 0.45937 0.72566 0.94169 0.0
C4214 C 0.45286 0.74685 0.95027 0.0
C4215 C 0.44146 0.77443 0.94804 0.0
C4216 C 0.44337 0.76299 0.94615 0.0
C4217 C 0.44914 0.72981 0.94089 0.0
C4218 C 0.44718 0.74127 0.9426 0.0
H4219 H 0.43664 0.79719 0.93472 0.0
H4220 H 0.43895 0.77843 0.93165 0.0
H4221 H 0.4557 0.76156 0.95785 0.0
H4222 H 0.43596 0.70693 0.93626 0.0
H4223 H 0.4328 0.72572 0.93818 0.0
C4224 C 0.05236 0.18002 0.41751 0.0
C4225 C 0.0567 0.19018 0.41788 0.0
C4226 C 0.04164 0.17857 0.41549 0.0
C4227 C 0.01629 0.19338 0.41643 0.0
H4228 H 0.00527 0.16711 0.40559 0.0
C4229 C 0.9715 0.18428 0.41343 0.0
C4230 C 0.96884 0.17547 0.41954 0.0
C4231 C 0.98206 0.18635 0.41097 0.0
C4232 C 0.00825 0.17453 0.40855 0.0
H4233 H 0.05331 0.20672 0.41571 0.0
H4234 H 0.03478 0.20419 0.41162 0.0
H4235 H 0.02415 0.17043 0.405 0.0
H4236 H 0.97496 0.1617 0.42744 0.0
H4237 H 0.99328 0.16506 0.42279 0.0
H4238 H 1.00028 0.19743 0.41986 0.0
C4239 C 0.03951 0.19734 0.41334 0.0
C4240 C 0.01909 0.17641 0.40833 0.0
C4241 C 0.05019 0.1988 0.41558 0.0
C4242 C 0.97681 0.16853 0.4227 0.0
C4243 C 0.98728 0.17043 0.42001 0.0
C4244 C 0.00543 0.19158 0.41645 0.0
C4245 C 0.03498 0.18722 0.41357 0.0
C4246 C 0.02333 0.18574 0.41255 0.0
C4247 C 0.99005 0.17948 0.41434 0.0
C4248 C 0.00133 0.18203 0.41275 0.0
H4249 H 0.05713 0.17321 0.41935 0.0
H4250 H 0.03853 0.17067 0.41593 0.0
H4251 H 0.01914 0.20059 0.41993 0.0
H4252 H 0.9655 0.18981 0.411 0.0
H4253 H 0.98402 0.19339 0.4066 0.0
C4254 C 0.82069 0.05498 0.41321 0.0
C4255 C 0.81204 0.05793 0.41945 0.0
C4256 C 0.82252 0.04439 0.41078 0.0
C4257 C 0.81044 0.01748 0.4118 0.0
H4258 H 0.83935 0.00852 0.41516 0.0
C4259 C 0.83417 0.97879 0.42633 0.0
C4260 C 0.82916 0.97064 0.42081 0.0
C4261 C 0.83244 0.98927 0.42369 0.0
C4262 C 0.83123 0.01088 0.41415 0.0
H4263 H 0.79829 0.05196 0.42761 0.0
H4264 H 0.80159 0.03362 0.42359 0.0
H4265 H 0.8352 0.02716 0.41516 0.0
H4266 H 0.81854 0.96711 0.40799 0.0
H4267 H 0.81542 0.98564 0.40333 0.0
H4268 H 0.80645 1.0011 0.41141 0.0
C4269 C 0.8069 0.03947 0.42042 0.0
C4270 C 0.82885 0.02161 0.41403 0.0
C4271 C 0.80505 0.05004 0.4228 0.0
C4272 C 0.82254 0.97323 0.41235 0.0
C4273 C 0.82071 0.98382 0.40974 0.0
C4274 C 0.81282 0.00672 0.41194 0.0
C4275 C 0.81578 0.03645 0.41455 0.0
C4276 C 0.81839 0.02507 0.41315 0.0
C4277 C 0.82559 0.99197 0.41546 0.0
C4278 C 0.82322 0.00328 0.41345 0.0
H4279 H 0.82621 0.06083 0.4104 0.0
H4280 H 0.82934 0.04241 0.40609 0.0
H4281 H 0.80231 0.01984 0.41091 0.0
H4282 H 0.83932 0.97707 0.43289 0.0
H4283 H 0.8362 0.99529 0.4284 0.0
C4284 C 0.95287 0.80376 0.41387 0.0
C4285 C 0.94646 0.81245 0.41624 0.0
C4286 C 0.96354 0.80511 0.41152 0.0
C4287 C 0.984 0.82574 0.40585 0.0
H4288 H 0.00287 0.80494 0.4177 0.0
C4289 C 0.02642 0.83416 0.41914 0.0
C4290 C 0.03433 0.82685 0.41673 0.0
C4291 C 0.01597 0.83218 0.41647 0.0
C4292 C 0.99771 0.81072 0.41418 0.0
H4293 H 0.94622 0.82942 0.41769 0.0
H4294 H 0.96481 0.83178 0.414 0.0
H4295 H 0.98399 0.80188 0.4181 0.0
H4296 H 0.03758 0.81179 0.4095 0.0
H4297 H 0.01909 0.80813 0.40508 0.0
H4298 H 0.99782 0.83485 0.40259 0.0
C4299 C 0.96161 0.8239 0.41365 0.0
C4300 C 0.98684 0.80898 0.41437 0.0
C4301 C 0.9509 0.82256 0.41583 0.0
C4302 C 0.03164 0.81761 0.41132 0.0
C4303 C 0.02108 0.81549 0.40886 0.0
C4304 C 0.99486 0.82755 0.40582 0.0
C4305 C 0.96815 0.81518 0.41165 0.0
C4306 C 0.97979 0.81656 0.4104 0.0
C4307 C 0.01313 0.82271 0.41155 0.0
C4308 C 0.00181 0.82014 0.41015 0.0
H4309 H 0.94968 0.79586 0.41401 0.0
H4310 H 0.9682 0.79821 0.40976 0.0
H4311 H 0.97891 0.83166 0.40247 0.0
H4312 H 0.0283 0.84132 0.42336 0.0
H4313 H 0.01002 0.83783 0.41874 0.0
C4314 C 0.18063 0.94808 0.41035 0.0
C4315 C 0.19011 0.94534 0.41535 0.0
C4316 C 0.17843 0.95859 0.40785 0.0
C4317 C 0.19034 0.98569 0.40691 0.0
H4318 H 0.16216 0.99433 0.41453 0.0
C4319 C 0.16847 0.02379 0.42559 0.0
C4320 C 0.17277 0.03214 0.41977 0.0
C4321 C 0.16994 0.0134 0.42246 0.0
C4322 C 0.17007 0.99207 0.41234 0.0
H4323 H 0.20496 0.95155 0.42103 0.0
H4324 H 0.20106 0.96972 0.41695 0.0
H4325 H 0.16637 0.97575 0.41362 0.0
H4326 H 0.18183 0.03612 0.40592 0.0
H4327 H 0.18444 0.01777 0.40036 0.0
H4328 H 0.19417 0.0021 0.40634 0.0
C4329 C 0.19534 0.96379 0.41479 0.0
C4330 C 0.17246 0.98137 0.41168 0.0
C4331 C 0.19755 0.95331 0.41722 0.0
C4332 C 0.1784 0.02985 0.41055 0.0
C4333 C 0.17994 0.01935 0.40741 0.0
C4334 C 0.18796 0.99643 0.40765 0.0
C4335 C 0.18563 0.96665 0.41033 0.0
C4336 C 0.18272 0.978 0.40928 0.0
C4337 C 0.17577 0.01099 0.41339 0.0
C4338 C 0.17787 0.99975 0.41073 0.0
H4339 H 0.17473 0.94216 0.4087 0.0
H4340 H 0.17096 0.96044 0.40422 0.0
H4341 H 0.19827 0.98343 0.40482 0.0
H4342 H 0.16408 0.02525 0.43274 0.0
H4343 H 0.16678 0.00722 0.42739 0.0
C4344 C 0.97095 0.81754 0.59156 0.0
C4345 C 0.96835 0.82672 0.586 0.0
C4346 C 0.98148 0.81541 0.59412 0.0
C4347 C 0.00777 0.8273 0.59716 0.0
H4348 H 0.01843 0.80152 0.58495 0.0
C4349 C 0.05161 0.82199 0.58681 0.0
C4350 C 0.05593 0.81184 0.58621 0.0
C4351 C 0.04097 0.82342 0.58922 0.0
C4352 C 0.01565 0.80864 0.58867 0.0
H4353 H 0.9745 0.84108 0.57925 0.0
H4354 H 0.99273 0.83757 0.58405 0.0
H4355 H 0.99959 0.80469 0.58537 0.0
H4356 H 0.05261 0.79528 0.58842 0.0
H4357 H 0.03422 0.79777 0.59312 0.0
H4358 H 0.02376 0.83131 0.60048 0.0
C4359 C 0.98673 0.83198 0.58635 0.0
C4360 C 0.0048 0.81046 0.58887 0.0
C4361 C 0.97631 0.83397 0.58357 0.0
C4362 C 0.0495 0.8032 0.5887 0.0
C4363 C 0.03891 0.80464 0.5913 0.0
C4364 C 0.01862 0.82541 0.59713 0.0
C4365 C 0.98948 0.82256 0.5914 0.0
C4366 C 1.00077 0.81992 0.59286 0.0
C4367 C 0.03438 0.81474 0.59128 0.0
C4368 C 0.02276 0.81618 0.5926 0.0
H4369 H 0.96497 0.81177 0.5934 0.0
H4370 H 0.9834 0.80809 0.59801 0.0
H4371 H 0.00487 0.83464 0.60035 0.0
H4372 H 0.05631 0.82882 0.58485 0.0
H4373 H 0.03783 0.83132 0.58895 0.0
C4374 C 0.19596 0.04886 0.58127 0.0
C4375 C 0.18859 0.05667 0.58396 0.0
C4376 C 0.19406 0.03827 0.58352 0.0
C4377 C 0.17196 0.02002 0.58831 0.0
H4378 H 0.19455 1.00001 0.59267 0.0
C4379 C 0.17925 0.97177 0.59065 0.0
C4380 C 0.17308 0.969 0.58192 0.0
C4381 C 0.18072 0.98241 0.5933 0.0
C4382 C 0.18811 0.00549 0.59164 0.0
H4383 H 0.17363 0.05938 0.59166 0.0
H4384 H 0.17039 0.04092 0.59578 0.0
H4385 H 0.19824 0.01883 0.59338 0.0
H4386 H 0.16335 0.97517 0.56935 0.0
H4387 H 0.1659 0.99345 0.57386 0.0
H4388 H 0.16184 0.00671 0.58657 0.0
C4389 C 0.17757 0.04299 0.5917 0.0
C4390 C 0.19025 0.0163 0.5919 0.0
C4391 C 0.17945 0.05361 0.58938 0.0
C4392 C 0.16817 0.97701 0.57613 0.0
C4393 C 0.16956 0.98755 0.57878 0.0
C4394 C 0.16982 0.00924 0.58811 0.0
C4395 C 0.18475 0.03514 0.58861 0.0
C4396 C 0.18226 0.02372 0.58991 0.0
C4397 C 0.17593 0.99044 0.58733 0.0
C4398 C 0.17792 0.00182 0.58941 0.0
H4399 H 0.2031 0.05087 0.57709 0.0
H4400 H 0.19972 0.03251 0.58086 0.0
H4401 H 0.1656 0.02543 0.58669 0.0
H4402 H 0.18317 0.96576 0.59524 0.0
H4403 H 0.18564 0.98437 0.59996 0.0
C4404 C 0.02909 0.18114 0.59005 0.0
C4405 C 0.03208 0.17526 0.58117 0.0
C4406 C 0.01839 0.18279 0.59231 0.0
C4407 C 0.99545 0.19055 0.59041 0.0
H4408 H 0.97551 0.16831 0.58431 0.0
C4409 C 0.95176 0.19867 0.5811 0.0
C4410 C 0.9441 0.19111 0.58368 0.0
C4411 C 0.96243 0.19676 0.58297 0.0
C4412 C 0.98092 0.17459 0.58624 0.0
H4413 H 0.02619 0.16637 0.56786 0.0
H4414 H 0.0078 0.16925 0.57172 0.0
H4415 H 0.99422 0.16457 0.58397 0.0
H4416 H 0.94173 0.17578 0.59077 0.0
H4417 H 0.9603 0.17253 0.59421 0.0
H4418 H 0.9821 0.20057 0.59267 0.0
C4419 C 0.0136 0.17251 0.57703 0.0
C4420 C 0.99169 0.17247 0.58591 0.0
C4421 C 0.02419 0.17093 0.57477 0.0
C4422 C 0.94739 0.18176 0.58859 0.0
C4423 C 0.95807 0.17987 0.59051 0.0
C4424 C 0.98464 0.19267 0.59077 0.0
C4425 C 0.01052 0.17849 0.58579 0.0
C4426 C 0.99911 0.18047 0.58769 0.0
C4427 C 0.96576 0.18725 0.58753 0.0
C4428 C 0.97722 0.18478 0.58843 0.0
H4429 H 0.03499 0.1846 0.59511 0.0
H4430 H 0.01629 0.1874 0.59914 0.0
H4431 H 1.00093 0.19691 0.5918 0.0
H4432 H 0.94957 0.20597 0.57731 0.0
H4433 H 0.96809 0.20259 0.58042 0.0
C4434 C 0.83604 0.02625 0.58351 0.0
C4435 C 0.82759 0.03324 0.58444 0.0
C4436 C 0.8347 0.01555 0.58558 0.0
C4437 C 0.81556 0.99536 0.5956 0.0
H4438 H 0.83121 0.97737 0.5766 0.0
C4439 C 0.80464 0.95208 0.58528 0.0
C4440 C 0.81293 0.94479 0.58447 0.0
C4441 C 0.80669 0.96273 0.5872 0.0
C4442 C 0.82688 0.98226 0.58207 0.0
H4443 H 0.81114 0.03469 0.58843 0.0
H4444 H 0.80858 0.01587 0.59162 0.0
H4445 H 0.83423 0.99618 0.57636 0.0
H4446 H 0.82985 0.94297 0.58547 0.0
H4447 H 0.83341 0.96157 0.58865 0.0
H4448 H 0.80783 0.98127 0.60084 0.0
C4449 C 0.81638 0.01864 0.58966 0.0
C4450 C 0.82864 0.9931 0.58199 0.0
C4451 C 0.81782 0.02944 0.58785 0.0
C4452 C 0.82328 0.94834 0.58604 0.0
C4453 C 0.82533 0.95901 0.58781 0.0
C4454 C 0.81368 0.98448 0.59555 0.0
C4455 C 0.82475 0.01149 0.58825 0.0
C4456 C 0.82303 0.99984 0.58875 0.0
C4457 C 0.81707 0.96636 0.5882 0.0
C4458 C 0.81933 0.97782 0.58877 0.0
H4459 H 0.84365 0.02903 0.58088 0.0
H4460 H 0.84144 0.01043 0.58474 0.0
H4461 H 0.81116 1.00022 0.60102 0.0
H4462 H 0.79657 0.94962 0.58417 0.0
H4463 H 0.80017 0.9682 0.58741 0.0
C4464 C 0.41893 0.05043 0.19938 0.0
C4465 C 0.42021 0.05708 0.19064 0.0
C4466 C 0.41648 0.03978 0.19803 0.0
C4467 C 0.40837 0.01989 0.17762 0.0
H4468 H 0.42189 1.00036 0.19672 0.0
C4469 C 0.42017 0.97735 0.16733 0.0
C4470 C 0.41808 0.96938 0.17467 0.0
C4471 C 0.41789 0.98784 0.16966 0.0
C4472 C 0.41791 0.00572 0.19143 0.0
H4473 H 0.41972 0.05774 0.17362 0.0
H4474 H 0.41592 0.03919 0.17123 0.0
H4475 H 0.42299 0.01916 0.20009 0.0
H4476 H 0.41187 0.96602 0.19015 0.0
H4477 H 0.40816 0.98454 0.19441 0.0
H4478 H 0.40395 0.00633 0.1686 0.0
C4479 C 0.41646 0.04219 0.17918 0.0
C4480 C 0.4185 0.01654 0.19336 0.0
C4481 C 0.41871 0.05287 0.18053 0.0
C4482 C 0.41338 0.97203 0.1843 0.0
C4483 C 0.41135 0.9826 0.18676 0.0
C4484 C 0.40795 0.00908 0.17559 0.0
C4485 C 0.41544 0.03542 0.1879 0.0
C4486 C 0.4139 0.02383 0.18638 0.0
C4487 C 0.41373 0.99061 0.1795 0.0
C4488 C 0.41286 0.0019 0.18239 0.0
H4489 H 0.41993 0.05345 0.20728 0.0
H4490 H 0.41551 0.03496 0.20497 0.0
H4491 H 0.40447 0.02517 0.1722 0.0
H4492 H 0.42388 0.9755 0.15989 0.0
H4493 H 0.41991 0.99384 0.16397 0.0
C4494 C 0.02835 0.41331 0.18445 0.0
C4495 C 0.03115 0.419 0.17541 0.0
C4496 C 0.01775 0.41097 0.18648 0.0
C4497 C 0.99158 0.40855 0.17432 0.0
H4498 H 0.98067 0.4204 0.20017 0.0
C4499 C 0.94755 0.4182 0.17931 0.0
C4500 C 0.94304 0.41831 0.18939 0.0
C4501 C 0.95831 0.41627 0.17799 0.0
C4502 C 0.98353 0.4168 0.19301 0.0
H4503 H 0.02524 0.42626 0.1612 0.0
H4504 H 0.00688 0.42182 0.1645 0.0
H4505 H 0.99956 0.41995 0.19719 0.0
H4506 H 0.94623 0.4159 0.20596 0.0
H4507 H 0.96484 0.41209 0.20365 0.0
H4508 H 0.97563 0.40534 0.17009 0.0
C4509 C 0.01278 0.41926 0.17008 0.0
C4510 C 0.9944 0.41657 0.19131 0.0
C4511 C 0.02329 0.42182 0.1682 0.0
C4512 C 0.94947 0.41599 0.19808 0.0
C4513 C 0.96019 0.41388 0.19675 0.0
C4514 C 0.98071 0.4086 0.17608 0.0
C4515 C 0.00985 0.41405 0.17935 0.0
C4516 C 0.99852 0.4127 0.18184 0.0
C4517 C 0.96484 0.41421 0.1867 0.0
C4518 C 0.97649 0.413 0.18534 0.0
H4519 H 0.03426 0.41118 0.1902 0.0
H4520 H 0.01568 0.40695 0.1937 0.0
H4521 H 0.99455 0.40545 0.16697 0.0
H4522 H 0.94286 0.42003 0.17244 0.0
H4523 H 0.96153 0.4168 0.17013 0.0
C4524 C 0.58534 0.94906 0.19902 0.0
C4525 C 0.58325 0.94255 0.19034 0.0
C4526 C 0.58767 0.95974 0.19762 0.0
C4527 C 0.594 0.9799 0.17689 0.0
H4528 H 0.58225 0.99919 0.19737 0.0
C4529 C 0.58182 0.02264 0.16815 0.0
C4530 C 0.58452 0.03051 0.1754 0.0
C4531 C 0.58414 0.01211 0.17019 0.0
C4532 C 0.58574 0.9939 0.19167 0.0
H4533 H 0.58214 0.94215 0.17334 0.0
H4534 H 0.58573 0.96075 0.1709 0.0
H4535 H 0.58136 0.98034 0.20054 0.0
H4536 H 0.59188 0.03361 0.19042 0.0
H4537 H 0.59568 0.015 0.1942 0.0
H4538 H 0.59771 0.99358 0.16774 0.0
C4539 C 0.58593 0.95762 0.17881 0.0
C4540 C 0.58526 0.98305 0.19349 0.0
C4541 C 0.58379 0.94691 0.1802 0.0
C4542 C 0.58985 0.02769 0.18464 0.0
C4543 C 0.59195 0.01707 0.18683 0.0
C4544 C 0.59429 0.99074 0.175 0.0
C4545 C 0.58777 0.96425 0.1875 0.0
C4546 C 0.58921 0.97586 0.18603 0.0
C4547 C 0.58898 0.00917 0.17966 0.0
C4548 C 0.59002 0.99784 0.1823 0.0
H4549 H 0.5851 0.94593 0.20693 0.0
H4550 H 0.58928 0.96446 0.20451 0.0
H4551 H 0.59738 0.97469 0.17107 0.0
H4552 H 0.57764 0.02461 0.16099 0.0
H4553 H 0.58166 0.00619 0.16458 0.0
C4554 C 0.05249 0.58639 0.19868 0.0
C4555 C 0.05901 0.5841 0.19006 0.0
C4556 C 0.04178 0.58846 0.19724 0.0
C4557 C 0.02147 0.59364 0.17633 0.0
H4558 H 0.00241 0.58238 0.19729 0.0
C4559 C 0.97893 0.58041 0.16817 0.0
C4560 C 0.97102 0.58341 0.17525 0.0
C4561 C 0.98944 0.5829 0.17012 0.0
C4562 C 0.00764 0.58572 0.19145 0.0
H4563 H 0.05938 0.58235 0.17311 0.0
H4564 H 0.04072 0.58548 0.17061 0.0
H4565 H 0.02128 0.58193 0.20046 0.0
H4566 H 0.96782 0.59149 0.18988 0.0
H4567 H 0.98639 0.59559 0.19353 0.0
H4568 H 0.00772 0.59674 0.16706 0.0
C4569 C 0.04386 0.58604 0.1785 0.0
C4570 C 0.01849 0.5855 0.19326 0.0
C4571 C 0.05461 0.58417 0.17993 0.0
C4572 C 0.97377 0.5892 0.18424 0.0
C4573 C 0.98437 0.59148 0.18635 0.0
C4574 C 0.01063 0.59367 0.17445 0.0
C4575 C 0.03724 0.5881 0.18714 0.0
C4576 C 0.02561 0.58928 0.18564 0.0
C4577 C 0.99231 0.58823 0.17935 0.0
C4578 C 0.00362 0.58956 0.18192 0.0
H4579 H 0.05566 0.58652 0.20659 0.0
H4580 H 0.03705 0.59025 0.20408 0.0
H4581 H 0.02661 0.59689 0.17038 0.0
H4582 H 0.97701 0.57589 0.1612 0.0
H4583 H 0.99538 0.58022 0.16465 0.0
C4584 C 0.41753 0.95236 0.80415 0.0
C4585 C 0.41932 0.94586 0.81291 0.0
C4586 C 0.41529 0.96306 0.80546 0.0
C4587 C 0.40908 0.98352 0.82599 0.0
H4588 H 0.4215 0.00233 0.80547 0.0
C4589 C 0.42263 0.026 0.83425 0.0
C4590 C 0.41991 0.03387 0.82701 0.0
C4591 C 0.42003 0.0155 0.83235 0.0
C4592 C 0.41783 0.99718 0.81117 0.0
H4593 H 0.41994 0.94548 0.82992 0.0
H4594 H 0.41654 0.96414 0.83222 0.0
H4595 H 0.42196 0.98345 0.80246 0.0
H4596 H 0.41224 0.03703 0.81216 0.0
H4597 H 0.408 0.01847 0.80859 0.0
H4598 H 0.40568 0.99737 0.83501 0.0
C4599 C 0.4165 0.96099 0.82432 0.0
C4600 C 0.41805 0.98631 0.80945 0.0
C4601 C 0.41851 0.95025 0.82301 0.0
C4602 C 0.41429 0.0311 0.81792 0.0
C4603 C 0.41194 0.02052 0.81586 0.0
C4604 C 0.40906 0.99438 0.82779 0.0
C4605 C 0.41501 0.96762 0.81555 0.0
C4606 C 0.41384 0.97927 0.81692 0.0
C4607 C 0.4149 0.01261 0.82301 0.0
C4608 C 0.41358 0.0013 0.82047 0.0
H4609 H 0.41798 0.94919 0.79626 0.0
H4610 H 0.41392 0.96776 0.7985 0.0
H4611 H 0.4055 0.97845 0.83182 0.0
H4612 H 0.42701 0.02794 0.8413 0.0
H4613 H 0.4225 0.00958 0.83794 0.0
C4614 C 0.05437 0.41511 0.82269 0.0
C4615 C 0.05882 0.41526 0.81258 0.0
C4616 C 0.04367 0.41293 0.82408 0.0
C4617 C 0.01853 0.41327 0.80897 0.0
H4618 H 0.00728 0.4031 0.8354 0.0
C4619 C 0.97367 0.41106 0.8178 0.0
C4620 C 0.97105 0.41728 0.82654 0.0
C4621 C 0.98421 0.4084 0.81583 0.0
C4622 C 0.01032 0.40586 0.82794 0.0
H4623 H 0.05568 0.41247 0.79608 0.0
H4624 H 0.03718 0.40814 0.79851 0.0
H4625 H 0.02619 0.40241 0.83226 0.0
H4626 H 0.9772 0.42517 0.84031 0.0
H4627 H 0.99546 0.4202 0.83712 0.0
H4628 H 0.00257 0.41666 0.80471 0.0
C4629 C 0.04181 0.41014 0.80536 0.0
C4630 C 0.02118 0.40557 0.82616 0.0
C4631 C 0.05246 0.41253 0.80396 0.0
C4632 C 0.97902 0.42035 0.83353 0.0
C4633 C 0.98946 0.41748 0.83173 0.0
C4634 C 0.00766 0.41336 0.81068 0.0
C4635 C 0.03716 0.41064 0.81541 0.0
C4636 C 0.0255 0.40957 0.81677 0.0
C4637 C 0.9922 0.41169 0.82275 0.0
C4638 C 0.00348 0.40992 0.82029 0.0
H4639 H 0.05901 0.41727 0.8295 0.0
H4640 H 0.04045 0.41357 0.83192 0.0
H4641 H 0.02146 0.41659 0.8017 0.0
H4642 H 0.96768 0.4087 0.81223 0.0
H4643 H 0.98614 0.40395 0.80884 0.0
C4644 C 0.58804 0.05293 0.80444 0.0
C4645 C 0.5855 0.05939 0.81305 0.0
C4646 C 0.58996 0.04218 0.80585 0.0
C4647 C 0.59417 0.02159 0.82669 0.0
H4648 H 0.58342 0.00289 0.80514 0.0
C4649 C 0.58025 0.97913 0.834 0.0
C4650 C 0.5834 0.97124 0.82696 0.0
C4651 C 0.58288 0.98963 0.8322 0.0
C4652 C 0.58662 0.00801 0.81115 0.0
H4653 H 0.58315 0.05961 0.82992 0.0
H4654 H 0.58603 0.04088 0.83234 0.0
H4655 H 0.5833 0.0218 0.80217 0.0
H4656 H 0.5919 0.96807 0.81256 0.0
H4657 H 0.59625 0.98664 0.80917 0.0
H4658 H 0.5968 0.0077 0.8359 0.0
C4659 C 0.5869 0.0441 0.82451 0.0
C4660 C 0.58659 0.01889 0.80946 0.0
C4661 C 0.58517 0.05488 0.82313 0.0
C4662 C 0.58948 0.97401 0.81816 0.0
C4663 C 0.5919 0.98461 0.8162 0.0
C4664 C 0.59401 0.01072 0.82844 0.0
C4665 C 0.58919 0.03754 0.81588 0.0
C4666 C 0.59019 0.02588 0.81728 0.0
C4667 C 0.58852 0.99252 0.82317 0.0
C4668 C 0.59008 0.00384 0.82076 0.0
H4669 H 0.58848 0.05617 0.79658 0.0
H4670 H 0.59195 0.0375 0.79903 0.0
H4671 H 0.59727 0.02662 0.83281 0.0
H4672 H 0.57553 0.9772 0.84083 0.0
H4673 H 0.58009 0.99556 0.83764 0.0
C4674 C 0.02932 0.58987 0.81782 0.0
C4675 C 0.03211 0.58524 0.82745 0.0
C4676 C 0.01873 0.59205 0.81558 0.0
C4677 C 0.99246 0.59567 0.82734 0.0
H4678 H 0.9819 0.58086 0.80291 0.0
C4679 C 0.94857 0.58488 0.82304 0.0
C4680 C 0.94423 0.58346 0.81298 0.0
C4681 C 0.95926 0.58719 0.82426 0.0
C4682 C 0.98466 0.58529 0.80963 0.0
H4683 H 0.02623 0.57974 0.84244 0.0
H4684 H 0.00788 0.58394 0.83872 0.0
H4685 H 1.00075 0.5819 0.80594 0.0
H4686 H 0.94761 0.584 0.79629 0.0
H4687 H 0.96609 0.5885 0.79837 0.0
H4688 H 0.97644 0.59912 0.83108 0.0
C4689 C 0.01378 0.58581 0.83287 0.0
C4690 C 0.99551 0.58585 0.81137 0.0
C4691 C 0.02427 0.58339 0.83499 0.0
C4692 C 0.95073 0.58492 0.80416 0.0
C4693 C 0.96138 0.58742 0.80537 0.0
C4694 C 0.9816 0.59528 0.82552 0.0
C4695 C 0.01085 0.58988 0.82304 0.0
C4696 C 0.99951 0.59081 0.82037 0.0
C4697 C 0.96589 0.58833 0.81545 0.0
C4698 C 0.97751 0.58984 0.81678 0.0
H4699 H 0.03521 0.5912 0.81182 0.0
H4700 H 0.01667 0.59518 0.80794 0.0
H4701 H 0.99534 0.59961 0.83432 0.0
H4702 H 0.9438 0.58374 0.83001 0.0
H4703 H 0.96238 0.58764 0.83216 0.0
C4704 C 0.18001 0.41251 0.05609 0.0
C4705 C 0.18943 0.41743 0.05918 0.0
C4706 C 0.17806 0.41027 0.04548 0.0
C4707 C 0.19055 0.40953 0.01872 0.0
H4708 H 0.1627 0.41768 0.00947 0.0
C4709 C 0.1697 0.42794 0.97988 0.0
C4710 C 0.17372 0.42165 0.97174 0.0
C4711 C 0.17107 0.42511 0.99038 0.0
C4712 C 0.17052 0.41534 0.01191 0.0
H4713 H 0.20442 0.42327 0.05348 0.0
H4714 H 0.20095 0.41957 0.0351 0.0
H4715 H 0.16652 0.41675 0.02816 0.0
H4716 H 0.18222 0.40731 0.96825 0.0
H4717 H 0.18467 0.40232 0.98678 0.0
H4718 H 0.19466 0.40873 0.00238 0.0
C4719 C 0.19509 0.41731 0.04084 0.0
C4720 C 0.17269 0.41468 0.02266 0.0
C4721 C 0.19706 0.41951 0.05144 0.0
C4722 C 0.17901 0.4123 0.97435 0.0
C4723 C 0.18046 0.40949 0.98495 0.0
C4724 C 0.18838 0.41022 0.00794 0.0
C4725 C 0.18546 0.41291 0.03767 0.0
C4726 C 0.18281 0.41205 0.02624 0.0
C4727 C 0.17652 0.4159 0.99309 0.0
C4728 C 0.17842 0.41346 0.00441 0.0
H4729 H 0.17398 0.41071 0.06182 0.0
H4730 H 0.17063 0.40669 0.04336 0.0
H4731 H 0.19839 0.40731 0.02117 0.0
H4732 H 0.16559 0.43519 0.97816 0.0
H4733 H 0.1681 0.43035 0.99639 0.0
C4734 C 0.19827 0.5812 0.95095 0.0
C4735 C 0.19068 0.58377 0.94332 0.0
C4736 C 0.19643 0.58315 0.96162 0.0
C4737 C 0.17439 0.58664 0.98023 0.0
H4738 H 0.19689 0.59199 1.0001 0.0
C4739 C 0.18141 0.58992 0.02843 0.0
C4740 C 0.17557 0.581 0.03134 0.0
C4741 C 0.18294 0.59235 0.01774 0.0
C4742 C 0.19048 0.59066 0.99466 0.0
H4743 H 0.17538 0.59091 0.94099 0.0
H4744 H 0.17225 0.59448 0.95956 0.0
H4745 H 0.20042 0.59288 0.98124 0.0
H4746 H 0.16657 0.56781 0.02534 0.0
H4747 H 0.16923 0.57196 0.00698 0.0
H4748 H 0.16446 0.58441 0.99361 0.0
C4749 C 0.17955 0.59073 0.95731 0.0
C4750 C 0.19253 0.59103 0.98383 0.0
C4751 C 0.18137 0.58873 0.94662 0.0
C4752 C 0.17111 0.57475 0.0234 0.0
C4753 C 0.17257 0.57718 0.01282 0.0
C4754 C 0.17234 0.58631 0.99103 0.0
C4755 C 0.18697 0.58777 0.96499 0.0
C4756 C 0.18457 0.58875 0.97647 0.0
C4757 C 0.17854 0.58597 0.00981 0.0
C4758 C 0.18042 0.588 0.9984 0.0
H4759 H 0.20555 0.57737 0.94874 0.0
H4760 H 0.20228 0.58061 0.96726 0.0
H4761 H 0.16806 0.58476 0.97487 0.0
H4762 H 0.18497 0.59487 0.03437 0.0
H4763 H 0.18755 0.5992 0.01568 0.0
C4764 C 0.41376 0.1838 0.03021 0.0
C4765 C 0.41928 0.17463 0.03294 0.0
C4766 C 0.41164 0.18606 0.01961 0.0
C4767 C 0.40908 0.17461 0.99326 0.0
H4768 H 0.42237 0.19998 0.98289 0.0
C4769 C 0.41879 0.18007 0.94926 0.0
C4770 C 0.41981 0.19023 0.94506 0.0
C4771 C 0.41671 0.1786 0.95997 0.0
C4772 C 0.41835 0.19298 0.98559 0.0
H4773 H 0.42647 0.16044 0.0269 0.0
H4774 H 0.42237 0.16414 0.0085 0.0
H4775 H 0.4217 0.19665 0.00171 0.0
H4776 H 0.4188 0.20683 0.9487 0.0
H4777 H 0.4146 0.20433 0.96721 0.0
H4778 H 0.40559 0.17091 0.97725 0.0
C4779 C 0.41979 0.16964 0.01448 0.0
C4780 C 0.41802 0.19108 0.99643 0.0
C4781 C 0.42215 0.16754 0.02499 0.0
C4782 C 0.41817 0.19889 0.95172 0.0
C4783 C 0.41586 0.19744 0.96238 0.0
C4784 C 0.40921 0.17661 0.98243 0.0
C4785 C 0.41475 0.17903 0.01165 0.0
C4786 C 0.41361 0.18176 1.00035 0.0
C4787 C 0.41536 0.18727 0.96676 0.0
C4788 C 0.4141 0.18569 0.97839 0.0
H4789 H 0.41159 0.18946 0.03619 0.0
H4790 H 0.40776 0.19337 0.01761 0.0
H4791 H 0.40558 0.16738 0.9961 0.0
H4792 H 0.42011 0.17322 0.94437 0.0
H4793 H 0.41659 0.17064 0.96296 0.0
C4794 C 0.80507 0.42127 0.95012 0.0
C4795 C 0.81258 0.41866 0.94242 0.0
C4796 C 0.80691 0.41911 0.96075 0.0
C4797 C 0.829 0.41513 0.97912 0.0
H4798 H 0.80653 0.41038 0.99917 0.0
C4799 C 0.82196 0.41309 0.02736 0.0
C4800 C 0.82772 0.42215 0.03002 0.0
C4801 C 0.82053 0.4103 0.01675 0.0
C4802 C 0.81293 0.41152 0.99368 0.0
H4803 H 0.82767 0.41113 0.9399 0.0
H4804 H 0.83078 0.40719 0.95841 0.0
H4805 H 0.80288 0.4093 0.98034 0.0
H4806 H 0.83673 0.43516 0.02367 0.0
H4807 H 0.83426 0.43037 0.00543 0.0
H4808 H 0.83903 0.41743 0.99242 0.0
C4809 C 0.82356 0.41114 0.95624 0.0
C4810 C 0.81082 0.41104 0.98287 0.0
C4811 C 0.82175 0.41336 0.9456 0.0
C4812 C 0.83224 0.42814 0.02191 0.0
C4813 C 0.8309 0.42533 0.01142 0.0
C4814 C 0.83111 0.41558 0.98989 0.0
C4815 C 0.81627 0.41421 0.964 0.0
C4816 C 0.81876 0.41315 0.97544 0.0
C4817 C 0.82496 0.41645 0.00865 0.0
C4818 C 0.82304 0.41413 0.99732 0.0
H4819 H 0.79791 0.42535 0.94802 0.0
H4820 H 0.80116 0.42172 0.96645 0.0
H4821 H 0.83532 0.41687 0.9737 0.0
H4822 H 0.81835 0.40835 0.03344 0.0
H4823 H 0.81593 0.40339 0.01489 0.0
C4824 C 0.57772 0.83327 0.02393 0.0
C4825 C 0.58146 0.82642 0.03174 0.0
C4826 C 0.58014 0.83156 0.01336 0.0
C4827 C 0.5842 0.81085 0.99481 0.0
H4828 H 0.59458 0.83264 0.97621 0.0
C4829 C 0.58552 0.80414 0.94988 0.0
C4830 C 0.58308 0.81274 0.94339 0.0
C4831 C 0.58742 0.80556 0.96064 0.0
C4832 C 0.59154 0.82648 0.98123 0.0
H4833 H 0.59073 0.81246 0.03468 0.0
H4834 H 0.59468 0.80922 0.016 0.0
H4835 H 0.59408 0.83572 0.99513 0.0
H4836 H 0.58088 0.82963 0.94312 0.0
H4837 H 0.58368 0.83208 0.96184 0.0
H4838 H 0.58093 0.80185 0.98102 0.0
C4839 C 0.59005 0.81603 0.01815 0.0
C4840 C 0.59137 0.82823 0.9921 0.0
C4841 C 0.58785 0.81791 0.0288 0.0
C4842 C 0.58283 0.82284 0.94787 0.0
C4843 C 0.58451 0.82424 0.95866 0.0
C4844 C 0.58415 0.80917 0.98393 0.0
C4845 C 0.58614 0.82281 0.01033 0.0
C4846 C 0.58757 0.82048 0.99898 0.0
C4847 C 0.5867 0.8156 0.96526 0.0
C4848 C 0.58766 0.81703 0.97693 0.0
H4849 H 0.57274 0.83987 0.02599 0.0
H4850 H 0.57695 0.83685 0.00749 0.0
H4851 H 0.5811 0.80479 0.99994 0.0
H4852 H 0.58588 0.79626 0.94665 0.0
H4853 H 0.58934 0.79873 0.96533 0.0
C4854 C 0.80467 0.58814 0.05212 0.0
C4855 C 0.81328 0.58578 0.05864 0.0
C4856 C 0.8061 0.59013 0.04139 0.0
C4857 C 0.82693 0.59466 0.02083 0.0
H4858 H 0.80562 0.58336 0.00219 0.0
C4859 C 0.83449 0.58049 0.97846 0.0
C4860 C 0.8273 0.58329 0.97057 0.0
C4861 C 0.83269 0.58328 0.98892 0.0
C4862 C 0.81156 0.58672 0.00729 0.0
H4863 H 0.8302 0.58392 0.05899 0.0
H4864 H 0.83269 0.58693 0.04029 0.0
H4865 H 0.80263 0.58333 0.02109 0.0
H4866 H 0.81267 0.59134 0.96735 0.0
H4867 H 0.80931 0.59598 0.98585 0.0
H4868 H 0.83611 0.59735 0.00693 0.0
C4869 C 0.82482 0.58758 0.04345 0.0
C4870 C 0.80985 0.58674 0.01817 0.0
C4871 C 0.8234 0.58579 0.05422 0.0
C4872 C 0.81839 0.58921 0.97328 0.0
C4873 C 0.81644 0.59179 0.98385 0.0
C4874 C 0.8287 0.59445 0.00996 0.0
C4875 C 0.81617 0.58961 0.03681 0.0
C4876 C 0.81759 0.59055 0.02514 0.0
C4877 C 0.82353 0.58873 0.99178 0.0
C4878 C 0.8211 0.59033 0.0031 0.0
H4879 H 0.79677 0.58831 0.0553 0.0
H4880 H 0.79925 0.59194 0.03668 0.0
H4881 H 0.83299 0.59791 0.02584 0.0
H4882 H 0.8414 0.57588 0.97657 0.0
H4883 H 0.83824 0.58073 0.99486 0.0
C4884 C 0.41243 0.81838 0.97209 0.0
C4885 C 0.41788 0.82764 0.96956 0.0
C4886 C 0.41002 0.81606 0.98261 0.0
C4887 C 0.40691 0.82751 0.00901 0.0
H4888 H 0.41957 0.80186 0.01946 0.0
C4889 C 0.41614 0.82182 0.05303 0.0
C4890 C 0.41655 0.81164 0.0573 0.0
C4891 C 0.41433 0.82333 0.04228 0.0
C4892 C 0.41574 0.80895 0.01672 0.0
H4893 H 0.42465 0.84194 0.97585 0.0
H4894 H 0.42007 0.83811 0.99409 0.0
H4895 H 0.41923 0.80527 1.00064 0.0
H4896 H 0.4148 0.79508 0.05369 0.0
H4897 H 0.41118 0.7977 0.03507 0.0
H4898 H 0.40334 0.83124 0.025 0.0
C4899 C 0.41775 0.83259 0.98803 0.0
C4900 C 0.41558 0.8109 0.00589 0.0
C4901 C 0.42038 0.83477 0.9776 0.0
C4902 C 0.41466 0.80302 0.05064 0.0
C4903 C 0.41266 0.80454 0.03991 0.0
C4904 C 0.40689 0.82549 0.01982 0.0
C4905 C 0.41279 0.8231 0.99069 0.0
C4906 C 0.4114 0.82032 0.00195 0.0
C4907 C 0.41268 0.8147 0.03551 0.0
C4908 C 0.41157 0.81631 0.02389 0.0
H4909 H 0.41055 0.8127 0.96603 0.0
H4910 H 0.4062 0.80868 0.98447 0.0
H4911 H 0.40357 0.83481 0.00616 0.0
H4912 H 0.41764 0.82863 0.05792 0.0
H4913 H 0.41462 0.83127 0.03925 0.0
C4914 C 0.58904 0.1855 0.97414 0.0
C4915 C 0.58351 0.1764 0.97125 0.0
C4916 C 0.59131 0.18748 0.98476 0.0
C4917 C 0.59424 0.17527 0.01073 0.0
H4918 H 0.58109 0.20029 0.02205 0.0
C4919 C 0.58489 0.17927 0.05495 0.0
C4920 C 0.58403 0.18929 0.05951 0.0
C4921 C 0.58684 0.17816 0.04417 0.0
C4922 C 0.58507 0.19339 0.01908 0.0
H4923 H 0.57644 0.16202 0.97701 0.0
H4924 H 0.58079 0.16525 0.99543 0.0
H4925 H 0.58156 0.19757 0.00312 0.0
H4926 H 0.58517 0.20601 0.05643 0.0
H4927 H 0.58912 0.2041 0.0378 0.0
H4928 H 0.59787 0.17105 0.02659 0.0
C4929 C 0.58326 0.17091 0.98957 0.0
C4930 C 0.58529 0.19183 0.00819 0.0
C4931 C 0.58076 0.16908 0.97904 0.0
C4932 C 0.58567 0.19817 0.05313 0.0
C4933 C 0.58785 0.19706 0.0424 0.0
C4934 C 0.59422 0.17691 0.02162 0.0
C4935 C 0.58833 0.18024 0.99258 0.0
C4936 C 0.58964 0.18264 0.00393 0.0
C4937 C 0.58821 0.18704 0.03768 0.0
C4938 C 0.58937 0.18586 0.026 0.0
H4939 H 0.59113 0.19132 0.96827 0.0
H4940 H 0.59521 0.19475 0.9869 0.0
H4941 H 0.5977 0.16813 0.00763 0.0
H4942 H 0.58357 0.17227 0.05962 0.0
H4943 H 0.58686 0.17031 0.0409 0.0
C4944 C 0.55433 0.68094 0.91896 0.0
C4945 C 0.55863 0.69111 0.91941 0.0
C4946 C 0.54364 0.67945 0.9168 0.0
C4947 C 0.51816 0.69402 0.91728 0.0
H4948 H 0.50771 0.66803 0.90527 0.0
C4949 C 0.47356 0.68495 0.91317 0.0
C4950 C 0.47083 0.67579 0.91868 0.0
C4951 C 0.48415 0.68712 0.91091 0.0
C4952 C 0.51053 0.67536 0.90856 0.0
H4953 H 0.55517 0.70766 0.91732 0.0
H4954 H 0.53668 0.70507 0.91308 0.0
H4955 H 0.52658 0.67146 0.90549 0.0
H4956 H 0.47682 0.66148 0.92568 0.0
H4957 H 0.49518 0.66503 0.92137 0.0
H4958 H 0.50202 0.69787 0.92028 0.0
C4959 C 0.54143 0.69823 0.91481 0.0
C4960 C 0.52136 0.67731 0.90879 0.0
C4961 C 0.55208 0.69972 0.91716 0.0
C4962 C 0.47873 0.66858 0.92137 0.0
C4963 C 0.48923 0.6706 0.91888 0.0
C4964 C 0.50732 0.69215 0.91687 0.0
C4965 C 0.53698 0.68809 0.91483 0.0
C4966 C 0.52537 0.68654 0.91343 0.0
C4967 C 0.4921 0.68001 0.91389 0.0
C4968 C 0.50341 0.68269 0.91274 0.0
H4969 H 0.55913 0.67413 0.92073 0.0
H4970 H 0.54056 0.67153 0.91709 0.0
H4971 H 0.52085 0.70115 0.92107 0.0
H4972 H 0.46761 0.6907 0.91115 0.0
H4973 H 0.48616 0.69445 0.90707 0.0
C4974 C 0.32225 0.55649 0.91508 0.0
C4975 C 0.31289 0.55974 0.92002 0.0
C4976 C 0.32418 0.54582 0.91315 0.0
C4977 C 0.31149 0.5192 0.91285 0.0
H4978 H 0.3395 0.5097 0.92012 0.0
C4979 C 0.33273 0.47987 0.92981 0.0
C4980 C 0.32851 0.47189 0.92344 0.0
C4981 C 0.3313 0.49043 0.92729 0.0
C4982 C 0.33164 0.51221 0.91803 0.0
H4983 H 0.29805 0.5542 0.92638 0.0
H4984 H 0.30149 0.5357 0.92321 0.0
H4985 H 0.33575 0.52842 0.91955 0.0
H4986 H 0.31957 0.46877 0.90929 0.0
H4987 H 0.31703 0.48743 0.90483 0.0
H4988 H 0.30728 0.50289 0.9119 0.0
C4989 C 0.3073 0.54139 0.92068 0.0
C4990 C 0.32951 0.52298 0.91758 0.0
C4991 C 0.30536 0.55205 0.92258 0.0
C4992 C 0.32295 0.47475 0.91433 0.0
C4993 C 0.32144 0.48542 0.91182 0.0
C4994 C 0.31362 0.50839 0.91332 0.0
C4995 C 0.31682 0.53809 0.91612 0.0
C4996 C 0.31934 0.52664 0.91525 0.0
C4997 C 0.32559 0.49339 0.91832 0.0
C4998 C 0.32366 0.50476 0.91621 0.0
H4999 H 0.3282 0.56218 0.91292 0.0
H5000 H 0.33152 0.54361 0.90946 0.0
H5001 H 0.30361 0.52171 0.91085 0.0
H5002 H 0.33705 0.47796 0.9369 0.0
H5003 H 0.33445 0.49631 0.93259 0.0
C5004 C 0.45161 0.30487 0.91696 0.0
C5005 C 0.44515 0.3137 0.91848 0.0
C5006 C 0.46231 0.30606 0.91469 0.0
C5007 C 0.48277 0.32629 0.90764 0.0
H5008 H 0.50164 0.30624 0.92072 0.0
C5009 C 0.52531 0.33514 0.92048 0.0
C5010 C 0.53316 0.32771 0.91823 0.0
C5011 C 0.51482 0.33312 0.91796 0.0
C5012 C 0.49647 0.3118 0.91686 0.0
H5013 H 0.44486 0.33073 0.91862 0.0
H5014 H 0.46351 0.33284 0.91515 0.0
H5015 H 0.48276 0.30327 0.92141 0.0
H5016 H 0.53628 0.31242 0.91146 0.0
H5017 H 0.51773 0.3087 0.90733 0.0
H5018 H 0.49661 0.33515 0.90377 0.0
C5019 C 0.46033 0.32495 0.91535 0.0
C5020 C 0.4856 0.31011 0.91722 0.0
C5021 C 0.44959 0.32376 0.91741 0.0
C5022 C 0.53038 0.31832 0.91313 0.0
C5023 C 0.51979 0.31618 0.91084 0.0
C5024 C 0.49363 0.32807 0.90747 0.0
C5025 C 0.46691 0.31612 0.91409 0.0
C5026 C 0.47855 0.31742 0.91278 0.0
C5027 C 0.5119 0.32352 0.91338 0.0
C5028 C 0.50058 0.32093 0.91222 0.0
H5029 H 0.44841 0.297 0.91762 0.0
H5030 H 0.46699 0.29905 0.91352 0.0
H5031 H 0.47769 0.33198 0.90388 0.0
H5032 H 0.52726 0.3424 0.92447 0.0
H5033 H 0.50891 0.33887 0.9201 0.0
C5034 C 0.68464 0.52937 0.91533 0.0
C5035 C 0.67459 0.53315 0.9178 0.0
C5036 C 0.68621 0.51861 0.91342 0.0
C5037 C 0.67327 0.49305 0.91958 0.0
H5038 H 0.69577 0.48137 0.90269 0.0
C5039 C 0.67937 0.4483 0.91636 0.0
C5040 C 0.68965 0.44483 0.91853 0.0
C5041 C 0.67735 0.45895 0.91442 0.0
C5042 C 0.68945 0.48453 0.90744 0.0
H5043 H 0.65823 0.52896 0.91961 0.0
H5044 H 0.66076 0.51042 0.91557 0.0
H5045 H 0.69241 0.50031 0.90228 0.0
H5046 H 0.70592 0.44981 0.91973 0.0
H5047 H 0.70237 0.46834 0.91625 0.0
H5048 H 0.67031 0.47731 0.92472 0.0
C5049 C 0.66756 0.51554 0.91552 0.0
C5050 C 0.68754 0.4954 0.90725 0.0
C5051 C 0.66605 0.5262 0.91766 0.0
C5052 C 0.6979 0.4522 0.91815 0.0
C5053 C 0.69589 0.46282 0.9161 0.0
C5054 C 0.67509 0.48222 0.91966 0.0
C5055 C 0.67772 0.51148 0.91382 0.0
C5056 C 0.67947 0.49984 0.91339 0.0
C5057 C 0.68555 0.46637 0.91448 0.0
C5058 C 0.68325 0.47783 0.91368 0.0
H5059 H 0.69137 0.53458 0.91563 0.0
H5060 H 0.69417 0.51584 0.91225 0.0
H5061 H 0.66718 0.4961 0.92468 0.0
H5062 H 0.67282 0.44287 0.91656 0.0
H5063 H 0.66931 0.46142 0.91309 0.0
C5064 C 0.55094 0.30323 0.08653 0.0
C5065 C 0.55748 0.31182 0.08415 0.0
C5066 C 0.5403 0.30475 0.0889 0.0
C5067 C 0.52017 0.32576 0.09447 0.0
H5068 H 0.50093 0.30489 0.08334 0.0
C5069 C 0.47754 0.33398 0.08146 0.0
C5070 C 0.46964 0.32689 0.0845 0.0
C5071 C 0.48805 0.33205 0.08395 0.0
C5072 C 0.5062 0.3107 0.08665 0.0
H5073 H 0.558 0.32877 0.08264 0.0
H5074 H 0.53944 0.33143 0.0863 0.0
H5075 H 0.51977 0.30166 0.08271 0.0
H5076 H 0.46647 0.31228 0.09263 0.0
H5077 H 0.48505 0.30868 0.09671 0.0
H5078 H 0.50647 0.33508 0.09769 0.0
C5079 C 0.54252 0.3235 0.08669 0.0
C5080 C 0.51705 0.30886 0.08633 0.0
C5081 C 0.5532 0.32199 0.08452 0.0
C5082 C 0.47241 0.31793 0.09033 0.0
C5083 C 0.48301 0.31584 0.09259 0.0
C5084 C 0.50933 0.32768 0.09459 0.0
C5085 C 0.53584 0.31489 0.08875 0.0
C5086 C 0.52423 0.31644 0.09006 0.0
C5087 C 0.49094 0.32284 0.0893 0.0
C5088 C 0.50225 0.32024 0.09054 0.0
H5089 H 0.55402 0.29529 0.08642 0.0
H5090 H 0.53556 0.29793 0.09072 0.0
H5091 H 0.52535 0.3317 0.09768 0.0
H5092 H 0.4756 0.34091 0.07692 0.0
H5093 H 0.49398 0.33751 0.08122 0.0
C5094 C 0.68135 0.55426 0.08985 0.0
C5095 C 0.69043 0.55702 0.08417 0.0
C5096 C 0.6793 0.54373 0.09241 0.0
C5097 C 0.69131 0.51672 0.09261 0.0
H5098 H 0.6626 0.50783 0.08774 0.0
C5099 C 0.66818 0.47805 0.07698 0.0
C5100 C 0.67306 0.46991 0.08262 0.0
C5101 C 0.66977 0.48853 0.07973 0.0
C5102 C 0.67066 0.51017 0.08916 0.0
H5103 H 0.70468 0.5508 0.07712 0.0
H5104 H 0.701 0.53259 0.08131 0.0
H5105 H 0.66681 0.52645 0.08779 0.0
H5106 H 0.68326 0.46637 0.09577 0.0
H5107 H 0.68609 0.48488 0.10065 0.0
H5108 H 0.69523 0.50034 0.09331 0.0
C5109 C 0.69552 0.53852 0.08399 0.0
C5110 C 0.67307 0.52089 0.08932 0.0
C5111 C 0.69759 0.54902 0.0815 0.0
C5112 C 0.67937 0.47249 0.09131 0.0
C5113 C 0.68104 0.48308 0.09405 0.0
C5114 C 0.68891 0.50597 0.0924 0.0
C5115 C 0.68624 0.53568 0.0893 0.0
C5116 C 0.68348 0.52433 0.09074 0.0
C5117 C 0.67632 0.49123 0.0882 0.0
C5118 C 0.6786 0.50255 0.09032 0.0
H5119 H 0.67568 0.56019 0.09212 0.0
H5120 H 0.67217 0.54188 0.09666 0.0
H5121 H 0.69939 0.51905 0.09395 0.0
H5122 H 0.66326 0.47635 0.07024 0.0
H5123 H 0.66615 0.49455 0.07491 0.0
C5124 C 0.45019 0.67949 0.08618 0.0
C5125 C 0.44592 0.68967 0.08634 0.0
C5126 C 0.46089 0.67786 0.08814 0.0
C5127 C 0.48641 0.69234 0.08808 0.0
H5128 H 0.49688 0.66577 0.09872 0.0
C5129 C 0.531 0.68287 0.09116 0.0
C5130 C 0.53362 0.67389 0.08529 0.0
C5131 C 0.52045 0.68502 0.0936 0.0
C5132 C 0.49406 0.67326 0.09582 0.0
H5133 H 0.44946 0.70607 0.08932 0.0
H5134 H 0.46799 0.70322 0.09318 0.0
H5135 H 0.47803 0.66928 0.09892 0.0
H5136 H 0.52745 0.65988 0.07784 0.0
H5137 H 0.50916 0.66341 0.08243 0.0
H5138 H 0.50252 0.69626 0.08503 0.0
C5139 C 0.46319 0.69649 0.09114 0.0
C5140 C 0.48324 0.67525 0.09582 0.0
C5141 C 0.45252 0.69813 0.089 0.0
C5142 C 0.52563 0.66684 0.08241 0.0
C5143 C 0.51518 0.66884 0.08506 0.0
C5144 C 0.49724 0.6904 0.08825 0.0
C5145 C 0.46761 0.68635 0.0905 0.0
C5146 C 0.47921 0.68471 0.09168 0.0
C5147 C 0.51243 0.67808 0.09044 0.0
C5148 C 0.50115 0.68075 0.09187 0.0
H5149 H 0.44535 0.6728 0.08409 0.0
H5150 H 0.46395 0.66995 0.08738 0.0
H5151 H 0.48369 0.69964 0.08467 0.0
H5152 H 0.53701 0.68848 0.09336 0.0
H5153 H 0.51854 0.6922 0.09775 0.0
C5154 C 0.32204 0.44722 0.08962 0.0
C5155 C 0.31276 0.44415 0.08445 0.0
C5156 C 0.3241 0.45786 0.09165 0.0
C5157 C 0.3118 0.48468 0.09161 0.0
H5158 H 0.34026 0.49378 0.08571 0.0
C5159 C 0.33426 0.5236 0.07543 0.0
C5160 C 0.32964 0.53168 0.08138 0.0
C5161 C 0.33272 0.51309 0.07807 0.0
C5162 C 0.33227 0.49138 0.08741 0.0
H5163 H 0.29821 0.44995 0.07767 0.0
H5164 H 0.30191 0.46838 0.08094 0.0
H5165 H 0.33621 0.47512 0.08602 0.0
H5166 H 0.31993 0.53505 0.09495 0.0
H5167 H 0.3172 0.51648 0.09963 0.0
H5168 H 0.30779 0.50104 0.09238 0.0
C5169 C 0.30754 0.4626 0.08364 0.0
C5170 C 0.32996 0.48064 0.08772 0.0
C5171 C 0.30545 0.45198 0.08167 0.0
C5172 C 0.32362 0.52899 0.09024 0.0
C5173 C 0.32201 0.51837 0.09287 0.0
C5174 C 0.31412 0.49546 0.09126 0.0
C5175 C 0.31697 0.46572 0.0885 0.0
C5176 C 0.31963 0.47713 0.08955 0.0
C5177 C 0.32649 0.51029 0.08674 0.0
C5178 C 0.32432 0.49894 0.08884 0.0
H5179 H 0.32782 0.44142 0.09197 0.0
H5180 H 0.33137 0.45992 0.09558 0.0
H5181 H 0.3038 0.48229 0.09325 0.0
H5182 H 0.33895 0.52539 0.06855 0.0
H5183 H 0.33615 0.50713 0.07305 0.0
C5184 C 0.9163 0.55181 0.6982 0.0
C5185 C 0.91783 0.55836 0.68943 0.0
C5186 C 0.91412 0.5411 0.69692 0.0
C5187 C 0.90758 0.52066 0.67644 0.0
H5188 H 0.92049 0.50183 0.69663 0.0
C5189 C 0.92099 0.4782 0.66774 0.0
C5190 C 0.91838 0.47029 0.67499 0.0
C5191 C 0.91847 0.48869 0.66975 0.0
C5192 C 0.91669 0.50699 0.69102 0.0
H5193 H 0.91806 0.55878 0.67241 0.0
H5194 H 0.91476 0.54012 0.67013 0.0
H5195 H 0.92093 0.5207 0.6997 0.0
H5196 H 0.91101 0.46711 0.69 0.0
H5197 H 0.90691 0.48566 0.69373 0.0
H5198 H 0.90406 0.50683 0.66743 0.0
C5199 C 0.91487 0.54323 0.67804 0.0
C5200 C 0.9169 0.51785 0.69278 0.0
C5201 C 0.91683 0.55399 0.67934 0.0
C5202 C 0.91297 0.47305 0.68422 0.0
C5203 C 0.9107 0.48364 0.68637 0.0
C5204 C 0.90758 0.50981 0.67459 0.0
C5205 C 0.91364 0.53656 0.68682 0.0
C5206 C 0.9125 0.5249 0.68542 0.0
C5207 C 0.91354 0.49156 0.67919 0.0
C5208 C 0.91226 0.50288 0.68179 0.0
H5209 H 0.91691 0.55496 0.7061 0.0
H5210 H 0.91294 0.53636 0.70389 0.0
H5211 H 0.90386 0.52572 0.6707 0.0
H5212 H 0.92522 0.47627 0.6606 0.0
H5213 H 0.92085 0.49464 0.66413 0.0
C5214 C 0.52501 0.91947 0.66848 0.0
C5215 C 0.53293 0.9171 0.67579 0.0
C5216 C 0.51459 0.91662 0.67039 0.0
C5217 C 0.49636 0.91399 0.69175 0.0
H5218 H 0.47766 0.9023 0.67071 0.0
C5219 C 0.45158 0.91416 0.69848 0.0
C5220 C 0.44528 0.91668 0.68975 0.0
C5221 C 0.46219 0.91152 0.69717 0.0
C5222 C 0.48273 0.90567 0.67666 0.0
H5223 H 0.53625 0.90972 0.69076 0.0
H5224 H 0.51782 0.90499 0.69431 0.0
H5225 H 0.49659 0.90249 0.66758 0.0
H5226 H 0.44511 0.91803 0.67278 0.0
H5227 H 0.46361 0.91386 0.6705 0.0
H5228 H 0.48262 0.91788 0.70054 0.0
C5229 C 0.51977 0.90888 0.687 0.0
C5230 C 0.49359 0.90568 0.67489 0.0
C5231 C 0.5303 0.91152 0.68495 0.0
C5232 C 0.44972 0.91605 0.67966 0.0
C5233 C 0.46037 0.9136 0.67837 0.0
C5234 C 0.4855 0.91416 0.69345 0.0
C5235 C 0.5118 0.91154 0.67979 0.0
C5236 C 0.50051 0.91001 0.68233 0.0
C5237 C 0.46684 0.91153 0.68713 0.0
C5238 C 0.47848 0.9102 0.68583 0.0
H5239 H 0.52684 0.92381 0.66138 0.0
H5240 H 0.50862 0.91887 0.66475 0.0
H5241 H 0.5015 0.91752 0.69756 0.0
H5242 H 0.44838 0.91447 0.70636 0.0
H5243 H 0.46678 0.9097 0.7041 0.0
C5244 C 0.07978 0.52437 0.66896 0.0
C5245 C 0.08224 0.53224 0.67629 0.0
C5246 C 0.08232 0.51388 0.67095 0.0
C5247 C 0.08394 0.49552 0.6922 0.0
H5248 H 0.09671 0.47685 0.67178 0.0
C5249 C 0.0844 0.45063 0.69911 0.0
C5250 C 0.08279 0.44415 0.6903 0.0
C5251 C 0.08652 0.46137 0.69789 0.0
C5252 C 0.09301 0.4819 0.67755 0.0
H5253 H 0.08938 0.5354 0.69141 0.0
H5254 H 0.09354 0.51685 0.6951 0.0
H5255 H 0.09661 0.49577 0.66863 0.0
H5256 H 0.08235 0.44387 0.67328 0.0
H5257 H 0.08556 0.46257 0.67112 0.0
H5258 H 0.07965 0.48176 0.7008 0.0
C5259 C 0.08984 0.51889 0.6877 0.0
C5260 C 0.09307 0.49276 0.67577 0.0
C5261 C 0.08754 0.52948 0.68557 0.0
C5262 C 0.08362 0.44861 0.68023 0.0
C5263 C 0.08554 0.45938 0.679 0.0
C5264 C 0.0837 0.48465 0.6939 0.0
C5265 C 0.08713 0.51099 0.68045 0.0
C5266 C 0.0884 0.49966 0.683 0.0
C5267 C 0.08688 0.46598 0.68782 0.0
C5268 C 0.08806 0.47763 0.6865 0.0
H5269 H 0.07563 0.52631 0.66177 0.0
H5270 H 0.08004 0.50795 0.66527 0.0
H5271 H 0.08016 0.50066 0.69784 0.0
H5272 H 0.08392 0.44742 0.70698 0.0
H5273 H 0.08776 0.46606 0.70487 0.0
C5274 C 0.47177 0.09257 0.68452 0.0
C5275 C 0.46929 0.08669 0.67551 0.0
C5276 C 0.48226 0.09529 0.68666 0.0
C5277 C 0.5086 0.09823 0.67487 0.0
H5278 H 0.51924 0.08697 0.70108 0.0
C5279 C 0.55245 0.08829 0.68068 0.0
C5280 C 0.55669 0.08788 0.69087 0.0
C5281 C 0.54182 0.09072 0.67913 0.0
C5282 C 0.51645 0.09044 0.69383 0.0
H5283 H 0.47563 0.0795 0.66144 0.0
H5284 H 0.49379 0.08456 0.66495 0.0
H5285 H 0.50041 0.08708 0.69779 0.0
H5286 H 0.55331 0.09052 0.70735 0.0
H5287 H 0.53497 0.09528 0.70465 0.0
H5288 H 0.52456 0.10161 0.67084 0.0
C5289 C 0.48772 0.087 0.67042 0.0
C5290 C 0.50561 0.09046 0.69195 0.0
C5291 C 0.47734 0.08407 0.66842 0.0
C5292 C 0.55025 0.09065 0.69941 0.0
C5293 C 0.53968 0.09328 0.69785 0.0
C5294 C 0.51943 0.09839 0.67682 0.0
C5295 C 0.49035 0.0924 0.67967 0.0
C5296 C 0.5016 0.09409 0.68234 0.0
C5297 C 0.53519 0.09299 0.68772 0.0
C5298 C 0.52357 0.0942 0.6862 0.0
H5299 H 0.46571 0.09458 0.69015 0.0
H5300 H 0.48408 0.09945 0.69386 0.0
H5301 H 0.50569 0.10115 0.66741 0.0
H5302 H 0.55716 0.08611 0.67394 0.0
H5303 H 0.53873 0.09025 0.67122 0.0
C5304 C 0.91705 0.451 0.30158 0.0
C5305 C 0.91906 0.44435 0.31017 0.0
C5306 C 0.9148 0.46167 0.30312 0.0
C5307 C 0.90869 0.48161 0.32416 0.0
H5308 H 0.92057 0.50105 0.30391 0.0
C5309 C 0.92145 0.52413 0.33335 0.0
C5310 C 0.91857 0.53212 0.3263 0.0
C5311 C 0.91909 0.51363 0.33118 0.0
C5312 C 0.91706 0.49572 0.30954 0.0
H5313 H 0.92009 0.44369 0.32716 0.0
H5314 H 0.91664 0.46227 0.32987 0.0
H5315 H 0.92124 0.48224 0.30047 0.0
H5316 H 0.91086 0.53547 0.3115 0.0
H5317 H 0.90702 0.51692 0.30749 0.0
H5318 H 0.9052 0.49521 0.33353 0.0
C5319 C 0.91644 0.45927 0.32191 0.0
C5320 C 0.9174 0.4849 0.30757 0.0
C5321 C 0.91849 0.44857 0.32037 0.0
C5322 C 0.91304 0.52945 0.31712 0.0
C5323 C 0.91092 0.51887 0.3148 0.0
C5324 C 0.90854 0.49243 0.32621 0.0
C5325 C 0.9147 0.46604 0.3133 0.0
C5326 C 0.91339 0.47764 0.31494 0.0
C5327 C 0.91403 0.51086 0.32177 0.0
C5328 C 0.91287 0.49957 0.31899 0.0
H5329 H 0.91732 0.44798 0.29362 0.0
H5330 H 0.91325 0.4665 0.29629 0.0
H5331 H 0.90526 0.47637 0.32992 0.0
H5332 H 0.92576 0.52599 0.34046 0.0
H5333 H 0.92167 0.50763 0.33664 0.0
C5334 C 0.47496 0.91267 0.32177 0.0
C5335 C 0.4719 0.92162 0.32749 0.0
C5336 C 0.48568 0.91041 0.32028 0.0
C5337 C 0.51225 0.91677 0.3308 0.0
H5338 H 0.5221 0.91053 0.30265 0.0
C5339 C 0.55661 0.91396 0.32181 0.0
C5340 C 0.56 0.9193 0.31273 0.0
C5341 C 0.5459 0.91202 0.32352 0.0
C5342 C 0.51948 0.91227 0.31056 0.0
H5343 H 0.47764 0.93502 0.33634 0.0
H5344 H 0.4961 0.93111 0.33377 0.0
H5345 H 0.50322 0.9113 0.30618 0.0
H5346 H 0.5547 0.92637 0.29812 0.0
H5347 H 0.53612 0.92315 0.30119 0.0
H5348 H 0.52841 0.91825 0.33512 0.0
C5349 C 0.49034 0.92577 0.33048 0.0
C5350 C 0.50865 0.91258 0.31261 0.0
C5351 C 0.47971 0.92806 0.33189 0.0
C5352 C 0.55242 0.92226 0.30522 0.0
C5353 C 0.54173 0.92033 0.30695 0.0
C5354 C 0.52304 0.91645 0.32877 0.0
C5355 C 0.49349 0.91698 0.3246 0.0
C5356 C 0.50491 0.91511 0.3227 0.0
C5357 C 0.53829 0.91537 0.31622 0.0
C5358 C 0.52682 0.91444 0.31857 0.0
H5359 H 0.46911 0.90758 0.31826 0.0
H5360 H 0.48785 0.90355 0.31573 0.0
H5361 H 0.50964 0.9186 0.33869 0.0
H5362 H 0.56219 0.91149 0.32773 0.0
H5363 H 0.54358 0.90803 0.33067 0.0
C5364 C 0.08344 0.5524 0.3032 0.0
C5365 C 0.08214 0.55896 0.312 0.0
C5366 C 0.08583 0.54172 0.30445 0.0
C5367 C 0.09374 0.5216 0.3247 0.0
H5368 H 0.08028 0.50231 0.30532 0.0
C5369 C 0.08178 0.47899 0.33448 0.0
C5370 C 0.08388 0.47109 0.32708 0.0
C5371 C 0.0841 0.48949 0.33227 0.0
C5372 C 0.08424 0.5076 0.31069 0.0
H5373 H 0.08251 0.55946 0.32902 0.0
H5374 H 0.08621 0.54086 0.33125 0.0
H5375 H 0.07925 0.52114 0.30214 0.0
H5376 H 0.09015 0.46787 0.3116 0.0
H5377 H 0.09393 0.48642 0.30753 0.0
H5378 H 0.09807 0.50793 0.33361 0.0
C5379 C 0.08574 0.54394 0.32333 0.0
C5380 C 0.08369 0.51844 0.30887 0.0
C5381 C 0.08354 0.55465 0.32207 0.0
C5382 C 0.08862 0.47382 0.31749 0.0
C5383 C 0.0907 0.48441 0.31515 0.0
C5384 C 0.09411 0.51077 0.32662 0.0
C5385 C 0.08678 0.53726 0.31455 0.0
C5386 C 0.08827 0.52564 0.31595 0.0
C5387 C 0.08831 0.49235 0.32248 0.0
C5388 C 0.08923 0.50367 0.31972 0.0
H5389 H 0.08252 0.55549 0.29532 0.0
H5390 H 0.08682 0.53696 0.29747 0.0
H5391 H 0.09762 0.52681 0.33021 0.0
H5392 H 0.07803 0.47708 0.34189 0.0
H5393 H 0.08207 0.49544 0.33801 0.0
C5394 C 0.52857 0.08729 0.31799 0.0
C5395 C 0.53145 0.08152 0.32695 0.0
C5396 C 0.51793 0.08938 0.3159 0.0
C5397 C 0.49183 0.09159 0.32785 0.0
H5398 H 0.48085 0.07926 0.30226 0.0
C5399 C 0.44762 0.08281 0.32298 0.0
C5400 C 0.44313 0.08251 0.31289 0.0
C5401 C 0.45843 0.08443 0.32427 0.0
C5402 C 0.48373 0.08299 0.30933 0.0
H5403 H 0.52561 0.0738 0.34095 0.0
H5404 H 0.50715 0.07783 0.33756 0.0
H5405 H 0.49975 0.07965 0.30525 0.0
H5406 H 0.44641 0.08417 0.29626 0.0
H5407 H 0.46514 0.08749 0.2985 0.0
H5408 H 0.47593 0.09508 0.33197 0.0
C5409 C 0.51304 0.08063 0.33209 0.0
C5410 C 0.4946 0.08318 0.31104 0.0
C5411 C 0.5236 0.07831 0.33401 0.0
C5412 C 0.44965 0.08425 0.30414 0.0
C5413 C 0.46043 0.08608 0.30544 0.0
C5414 C 0.48097 0.09161 0.32606 0.0
C5415 C 0.51007 0.08598 0.32291 0.0
C5416 C 0.49874 0.08724 0.32042 0.0
C5417 C 0.46504 0.086 0.31551 0.0
C5418 C 0.47671 0.08705 0.3169 0.0
H5419 H 0.53448 0.08973 0.31236 0.0
H5420 H 0.51582 0.0935 0.30875 0.0
H5421 H 0.49484 0.09483 0.33513 0.0
H5422 H 0.44285 0.08141 0.32989 0.0
H5423 H 0.4616 0.08408 0.33215 0.0
C5424 C 0.66905 0.91898 0.47866 0.0
C5425 C 0.67622 0.91636 0.47069 0.0
C5426 C 0.67085 0.91591 0.48904 0.0
C5427 C 0.69201 0.91206 0.50725 0.0
H5428 H 0.67054 0.90072 0.52567 0.0
C5429 C 0.69867 0.91109 0.55204 0.0
C5430 C 0.69003 0.91374 0.55839 0.0
C5431 C 0.6973 0.9087 0.54138 0.0
C5432 C 0.67661 0.90399 0.52069 0.0
H5433 H 0.69082 0.90834 0.46724 0.0
H5434 H 0.69419 0.90322 0.48562 0.0
H5435 H 0.66744 0.90146 0.50675 0.0
H5436 H 0.6731 0.91558 0.55859 0.0
H5437 H 0.67071 0.91185 0.54001 0.0
H5438 H 0.70091 0.91533 0.52108 0.0
C5439 C 0.68706 0.90748 0.48373 0.0
C5440 C 0.67485 0.90431 0.50982 0.0
C5441 C 0.68511 0.91034 0.47324 0.0
C5442 C 0.67993 0.91348 0.55394 0.0
C5443 C 0.67856 0.91129 0.54324 0.0
C5444 C 0.6937 0.91193 0.51812 0.0
C5445 C 0.67999 0.91037 0.49174 0.0
C5446 C 0.68246 0.90852 0.50302 0.0
C5447 C 0.68726 0.90911 0.53672 0.0
C5448 C 0.68594 0.90809 0.52505 0.0
H5449 H 0.66216 0.92366 0.4769 0.0
H5450 H 0.66533 0.91834 0.49506 0.0
H5451 H 0.69795 0.91549 0.5022 0.0
H5452 H 0.70656 0.91112 0.55525 0.0
H5453 H 0.70418 0.90677 0.53676 0.0
C5454 C 0.66524 0.08479 0.52795 0.0
C5455 C 0.67389 0.08463 0.53475 0.0
C5456 C 0.66659 0.08678 0.51723 0.0
C5457 C 0.68631 0.09459 0.49666 0.0
H5458 H 0.66864 0.07703 0.47908 0.0
C5459 C 0.69587 0.08324 0.45339 0.0
C5460 C 0.68749 0.08286 0.44617 0.0
C5461 C 0.69404 0.08535 0.46404 0.0
C5462 C 0.67354 0.08211 0.48385 0.0
H5463 H 0.69073 0.08658 0.53586 0.0
H5464 H 0.69324 0.08971 0.51703 0.0
H5465 H 0.66582 0.07734 0.49792 0.0
H5466 H 0.67064 0.08486 0.44449 0.0
H5467 H 0.66746 0.08844 0.46308 0.0
H5468 H 0.69434 0.09891 0.48244 0.0
C5469 C 0.68532 0.08867 0.51996 0.0
C5470 C 0.6719 0.08234 0.4947 0.0
C5471 C 0.68391 0.08691 0.53076 0.0
C5472 C 0.67728 0.08506 0.44981 0.0
C5473 C 0.67544 0.08706 0.46048 0.0
C5474 C 0.68803 0.09425 0.48577 0.0
C5475 C 0.6767 0.08829 0.51298 0.0
C5476 C 0.67826 0.08856 0.50131 0.0
C5477 C 0.68377 0.08704 0.46775 0.0
C5478 C 0.68168 0.08797 0.47924 0.0
H5479 H 0.65744 0.08297 0.53087 0.0
H5480 H 0.65971 0.08673 0.51223 0.0
H5481 H 0.6913 0.09957 0.50143 0.0
H5482 H 0.70384 0.08164 0.45088 0.0
H5483 H 0.70062 0.08522 0.46945 0.0
C5484 C 0.91903 0.69866 0.4501 0.0
C5485 C 0.92065 0.6899 0.44355 0.0
C5486 C 0.9168 0.69734 0.4608 0.0
C5487 C 0.91008 0.6768 0.48108 0.0
H5488 H 0.92254 0.69703 0.50018 0.0
C5489 C 0.92262 0.66812 0.5238 0.0
C5490 C 0.91984 0.67536 0.53165 0.0
C5491 C 0.92032 0.67013 0.51326 0.0
C5492 C 0.91886 0.69141 0.49494 0.0
H5493 H 0.92105 0.67288 0.44311 0.0
H5494 H 0.91768 0.67056 0.46176 0.0
H5495 H 0.92334 0.70011 0.48132 0.0
H5496 H 0.91237 0.69034 0.5347 0.0
H5497 H 0.90864 0.69407 0.51606 0.0
H5498 H 0.9063 0.66778 0.49484 0.0
C5499 C 0.91775 0.67848 0.45865 0.0
C5500 C 0.91928 0.69317 0.48409 0.0
C5501 C 0.91975 0.6798 0.44791 0.0
C5502 C 0.91446 0.68457 0.5288 0.0
C5503 C 0.9124 0.68673 0.51816 0.0
C5504 C 0.90986 0.67495 0.49193 0.0
C5505 C 0.91636 0.68723 0.46532 0.0
C5506 C 0.91505 0.68581 0.47695 0.0
C5507 C 0.91543 0.67956 0.51029 0.0
C5508 C 0.91438 0.68216 0.49896 0.0
H5509 H 0.91955 0.70656 0.44696 0.0
H5510 H 0.91553 0.70429 0.46554 0.0
H5511 H 0.90647 0.67106 0.47594 0.0
H5512 H 0.92683 0.66099 0.5258 0.0
H5513 H 0.92284 0.66452 0.50736 0.0
C5514 C 0.32321 0.91373 0.44765 0.0
C5515 C 0.31399 0.91887 0.44435 0.0
C5516 C 0.32493 0.91158 0.45833 0.0
C5517 C 0.31175 0.91125 0.48476 0.0
H5518 H 0.33978 0.91759 0.49483 0.0
C5519 C 0.33264 0.9279 0.52435 0.0
C5520 C 0.32793 0.92188 0.53232 0.0
C5521 C 0.33144 0.92522 0.5138 0.0
C5522 C 0.33191 0.91576 0.49216 0.0
H5523 H 0.29918 0.92541 0.44978 0.0
H5524 H 0.30228 0.92191 0.46825 0.0
H5525 H 0.33639 0.9172 0.47605 0.0
H5526 H 0.31836 0.90815 0.53545 0.0
H5527 H 0.31619 0.9034 0.51681 0.0
H5528 H 0.30718 0.91043 0.50098 0.0
C5529 C 0.30813 0.91935 0.46262 0.0
C5530 C 0.32998 0.91541 0.48135 0.0
C5531 C 0.30639 0.92145 0.45197 0.0
C5532 C 0.32211 0.91292 0.52948 0.0
C5533 C 0.32083 0.91025 0.51882 0.0
C5534 C 0.31368 0.91164 0.49561 0.0
C5535 C 0.31751 0.91455 0.46599 0.0
C5536 C 0.31981 0.91344 0.47748 0.0
C5537 C 0.32545 0.91642 0.51085 0.0
C5538 C 0.32372 0.91423 0.49945 0.0
H5539 H 0.32921 0.91155 0.44202 0.0
H5540 H 0.33217 0.90772 0.46058 0.0
H5541 H 0.30386 0.9095 0.48209 0.0
H5542 H 0.33719 0.93485 0.52624 0.0
H5543 H 0.33495 0.93029 0.50793 0.0
C5544 C 0.07862 0.3343 0.52402 0.0
C5545 C 0.08253 0.32758 0.53187 0.0
C5546 C 0.0809 0.33248 0.51344 0.0
C5547 C 0.08508 0.31159 0.49505 0.0
H5548 H 0.09505 0.33333 0.47617 0.0
C5549 C 0.08673 0.30434 0.4502 0.0
C5550 C 0.08417 0.31282 0.44359 0.0
C5551 C 0.08848 0.30593 0.46096 0.0
C5552 C 0.09213 0.32718 0.48127 0.0
H5553 H 0.09196 0.31373 0.53483 0.0
H5554 H 0.09568 0.3103 0.51615 0.0
H5555 H 0.09455 0.33662 0.49506 0.0
H5556 H 0.08157 0.32965 0.44311 0.0
H5557 H 0.08412 0.33237 0.46183 0.0
H5558 H 0.08195 0.30237 0.48138 0.0
C5559 C 0.09101 0.31709 0.51828 0.0
C5560 C 0.09196 0.32906 0.49212 0.0
C5561 C 0.08894 0.31908 0.52894 0.0
C5562 C 0.08362 0.32295 0.44795 0.0
C5563 C 0.08516 0.32451 0.45874 0.0
C5564 C 0.08504 0.30978 0.48419 0.0
C5565 C 0.08694 0.32375 0.51044 0.0
C5566 C 0.08831 0.32133 0.4991 0.0
C5567 C 0.08751 0.31601 0.46545 0.0
C5568 C 0.08841 0.31761 0.4771 0.0
H5569 H 0.07363 0.34089 0.52607 0.0
H5570 H 0.07759 0.33767 0.50756 0.0
H5571 H 0.08211 0.30554 0.50026 0.0
H5572 H 0.08732 0.29645 0.44706 0.0
H5573 H 0.09052 0.2992 0.46574 0.0
C5574 C 0.3039 0.08593 0.55105 0.0
C5575 C 0.31156 0.08784 0.55881 0.0
C5576 C 0.3059 0.08816 0.54048 0.0
C5577 C 0.32841 0.09051 0.52238 0.0
H5578 H 0.30646 0.09614 0.50198 0.0
C5579 C 0.32192 0.09155 0.47402 0.0
C5580 C 0.32722 0.08213 0.47169 0.0
C5581 C 0.32053 0.09472 0.48453 0.0
C5582 C 0.31274 0.09474 0.50756 0.0
H5583 H 0.32709 0.09435 0.5615 0.0
H5584 H 0.33049 0.09846 0.54308 0.0
H5585 H 0.30274 0.09797 0.52073 0.0
H5586 H 0.33542 0.06883 0.47853 0.0
H5587 H 0.33298 0.07425 0.49658 0.0
H5588 H 0.33838 0.08722 0.50925 0.0
C5589 C 0.32301 0.09497 0.54516 0.0
C5590 C 0.31057 0.09566 0.51833 0.0
C5591 C 0.32103 0.09268 0.55576 0.0
C5592 C 0.33129 0.07613 0.48002 0.0
C5593 C 0.32997 0.0793 0.49042 0.0
C5594 C 0.33058 0.08964 0.51164 0.0
C5595 C 0.3156 0.09244 0.53733 0.0
C5596 C 0.31829 0.09322 0.5259 0.0
C5597 C 0.32452 0.08859 0.49285 0.0
C5598 C 0.32267 0.09138 0.5041 0.0
H5599 H 0.29649 0.08224 0.55305 0.0
H5600 H 0.30002 0.08598 0.53472 0.0
H5601 H 0.33456 0.08849 0.5279 0.0
H5602 H 0.31867 0.09632 0.46777 0.0
H5603 H 0.31631 0.10193 0.48613 0.0
C5604 C 0.91467 0.3198 0.47128 0.0
C5605 C 0.92069 0.32858 0.46836 0.0
C5606 C 0.9124 0.31793 0.48192 0.0
C5607 C 0.91045 0.33015 0.50798 0.0
H5608 H 0.92213 0.30424 0.51892 0.0
C5609 C 0.91943 0.32479 0.5522 0.0
C5610 C 0.91974 0.31463 0.55651 0.0
C5611 C 0.91756 0.32626 0.54145 0.0
C5612 C 0.91855 0.31141 0.51606 0.0
H5613 H 0.92859 0.34254 0.47408 0.0
H5614 H 0.92426 0.33951 0.49254 0.0
H5615 H 0.92174 0.30722 0.50004 0.0
H5616 H 0.91768 0.29809 0.55306 0.0
H5617 H 0.91385 0.30062 0.53449 0.0
H5618 H 0.90713 0.33437 0.52391 0.0
C5619 C 0.92141 0.33401 0.48668 0.0
C5620 C 0.91838 0.31311 0.50519 0.0
C5621 C 0.92392 0.33572 0.47614 0.0
C5622 C 0.91761 0.30601 0.54994 0.0
C5623 C 0.91551 0.30748 0.53925 0.0
C5624 C 0.91041 0.32837 0.51885 0.0
C5625 C 0.91586 0.32497 0.48972 0.0
C5626 C 0.91455 0.32258 0.50107 0.0
C5627 C 0.91574 0.3176 0.53475 0.0
C5628 C 0.91471 0.31907 0.52309 0.0
H5629 H 0.9122 0.31413 0.46543 0.0
H5630 H 0.90812 0.31089 0.48408 0.0
H5631 H 0.9074 0.33751 0.50498 0.0
H5632 H 0.92112 0.33159 0.55705 0.0
H5633 H 0.91799 0.33417 0.53836 0.0
C5634 C 0.08024 0.66856 0.4781 0.0
C5635 C 0.08357 0.67558 0.47025 0.0
C5636 C 0.08272 0.67036 0.48864 0.0
C5637 C 0.08638 0.69139 0.50707 0.0
H5638 H 0.09664 0.66968 0.52583 0.0
C5639 C 0.08744 0.69822 0.55198 0.0
C5640 C 0.08479 0.68966 0.55845 0.0
C5641 C 0.08943 0.69676 0.54125 0.0
C5642 C 0.09365 0.67581 0.52076 0.0
H5643 H 0.09223 0.68991 0.46721 0.0
H5644 H 0.09631 0.69328 0.48584 0.0
H5645 H 0.09634 0.66655 0.50691 0.0
H5646 H 0.08233 0.6728 0.55872 0.0
H5647 H 0.08534 0.67029 0.54002 0.0
H5648 H 0.083 0.70042 0.52081 0.0
C5649 C 0.09194 0.68628 0.48375 0.0
C5650 C 0.09359 0.67404 0.50989 0.0
C5651 C 0.08967 0.68433 0.47311 0.0
C5652 C 0.08443 0.67956 0.55398 0.0
C5653 C 0.08623 0.67812 0.54322 0.0
C5654 C 0.08625 0.6931 0.51795 0.0
C5655 C 0.08839 0.67935 0.49161 0.0
C5656 C 0.08981 0.68175 0.50295 0.0
C5657 C 0.08863 0.68672 0.53664 0.0
C5658 C 0.08971 0.68527 0.52499 0.0
H5659 H 0.0755 0.66177 0.4761 0.0
H5660 H 0.0798 0.66494 0.49452 0.0
H5661 H 0.08329 0.69742 0.50191 0.0
H5662 H 0.0879 0.70609 0.5552 0.0
H5663 H 0.0915 0.70355 0.53657 0.0
C5664 C 0.06293 0.15284 0.5344 0.0
C5665 C 0.06683 0.16145 0.5401 0.0
C5666 C 0.06713 0.15031 0.5246 0.0
C5667 C 0.08734 0.15808 0.50458 0.0
H5668 H 0.06333 0.15669 0.48584 0.0
C5669 C 0.08911 0.16596 0.45924 0.0
C5670 C 0.08266 0.17462 0.45685 0.0
C5671 C 0.08826 0.16096 0.46903 0.0
C5672 C 0.07014 0.15687 0.49096 0.0
H5673 H 0.0788 0.17353 0.54057 0.0
H5674 H 0.08589 0.16943 0.52323 0.0
H5675 H 0.06088 0.15358 0.50448 0.0
H5676 H 0.07001 0.18452 0.46251 0.0
H5677 H 0.06833 0.17566 0.47936 0.0
H5678 H 0.09639 0.16218 0.49093 0.0
C5679 C 0.07974 0.16446 0.52637 0.0
C5680 C 0.06878 0.15501 0.50166 0.0
C5681 C 0.07566 0.16686 0.53631 0.0
C5682 C 0.07511 0.17791 0.46417 0.0
C5683 C 0.0741 0.1728 0.47378 0.0
C5684 C 0.0887 0.15991 0.49381 0.0
C5685 C 0.07514 0.15651 0.52018 0.0
C5686 C 0.07727 0.15603 0.50868 0.0
C5687 C 0.08075 0.16438 0.47637 0.0
C5688 C 0.08001 0.15978 0.48701 0.0
H5689 H 0.05622 0.14844 0.53726 0.0
H5690 H 0.06361 0.14395 0.52017 0.0
H5691 H 0.09406 0.1588 0.50976 0.0
H5692 H 0.09502 0.16333 0.45371 0.0
H5693 H 0.09347 0.1545 0.4709 0.0
C5694 C 0.82623 0.09802 0.4633 0.0
C5695 C 0.82837 0.09016 0.45589 0.0
C5696 C 0.8303 0.09732 0.47346 0.0
C5697 C 0.84738 0.08102 0.49119 0.0
H5698 H 0.82531 0.08737 0.51124 0.0
C5699 C 0.83537 0.07538 0.538 0.0
C5700 C 0.8369 0.06446 0.53882 0.0
C5701 C 0.83709 0.08053 0.52845 0.0
C5702 C 0.83168 0.08576 0.50582 0.0
H5703 H 0.83682 0.07572 0.45294 0.0
H5704 H 0.84355 0.07414 0.47085 0.0
H5705 H 0.82342 0.09292 0.49317 0.0
H5706 H 0.84225 0.05057 0.53047 0.0
H5707 H 0.84518 0.05955 0.51385 0.0
H5708 H 0.85526 0.07321 0.5039 0.0
C5709 C 0.83904 0.08106 0.46881 0.0
C5710 C 0.83062 0.08898 0.4954 0.0
C5711 C 0.83517 0.08192 0.45854 0.0
C5712 C 0.84087 0.05896 0.53009 0.0
C5713 C 0.84266 0.06413 0.52058 0.0
C5714 C 0.84839 0.0777 0.50164 0.0
C5715 C 0.83628 0.08853 0.47652 0.0
C5716 C 0.83833 0.08645 0.48787 0.0
C5717 C 0.84047 0.0749 0.51956 0.0
C5718 C 0.84042 0.07983 0.50899 0.0
H5719 H 0.82103 0.10448 0.46136 0.0
H5720 H 0.82828 0.1034 0.47906 0.0
H5721 H 0.85356 0.07909 0.48567 0.0
H5722 H 0.8324 0.07988 0.54459 0.0
H5723 H 0.83544 0.08887 0.52791 0.0
C5724 C 0.92975 0.83523 0.53668 0.0
C5725 C 0.93923 0.83968 0.54019 0.0
C5726 C 0.92616 0.83722 0.52647 0.0
C5727 C 0.93813 0.84303 0.50105 0.0
H5728 H 0.90953 0.84041 0.49084 0.0
C5729 C 0.92784 0.82139 0.46362 0.0
C5730 C 0.92108 0.82604 0.45625 0.0
C5731 C 0.9295 0.82604 0.47337 0.0
C5732 C 0.91753 0.84137 0.49357 0.0
H5733 H 0.95167 0.85066 0.53633 0.0
H5734 H 0.94523 0.8544 0.5187 0.0
H5735 H 0.91271 0.84399 0.50953 0.0
H5736 H 0.91072 0.83925 0.45329 0.0
H5737 H 0.91345 0.84733 0.4707 0.0
H5738 H 0.94296 0.83993 0.48525 0.0
C5739 C 0.94078 0.84907 0.52363 0.0
C5740 C 0.91937 0.84331 0.50426 0.0
C5741 C 0.94445 0.84696 0.53374 0.0
C5742 C 0.91601 0.83553 0.45883 0.0
C5743 C 0.91753 0.84011 0.46875 0.0
C5744 C 0.9363 0.84106 0.49044 0.0
C5745 C 0.93191 0.8438 0.51966 0.0
C5746 C 0.92971 0.84382 0.50818 0.0
C5747 C 0.92433 0.83539 0.47607 0.0
C5748 C 0.92601 0.83983 0.48668 0.0
H5749 H 0.92556 0.82961 0.5415 0.0
H5750 H 0.91932 0.83299 0.52367 0.0
H5751 H 0.9462 0.84322 0.50375 0.0
H5752 H 0.93192 0.81412 0.46185 0.0
H5753 H 0.9347 0.82218 0.47891 0.0
C5754 C 0.17715 0.92879 0.46158 0.0
C5755 C 0.17423 0.92071 0.45467 0.0
C5756 C 0.17203 0.93004 0.47115 0.0
C5757 C 0.15968 0.91536 0.49171 0.0
H5758 H 0.15395 0.94333 0.50234 0.0
C5759 C 0.16699 0.92793 0.53435 0.0
C5760 C 0.1618 0.93684 0.53826 0.0
C5761 C 0.16461 0.92412 0.5243 0.0
C5762 C 0.15521 0.93539 0.49954 0.0
H5763 H 0.1635 0.90772 0.45218 0.0
H5764 H 0.15461 0.90975 0.46929 0.0
H5765 H 0.15659 0.94073 0.48367 0.0
H5766 H 0.14924 0.94797 0.53542 0.0
H5767 H 0.14474 0.94106 0.51814 0.0
H5768 H 0.15874 0.91009 0.50769 0.0
C5769 C 0.16081 0.91516 0.46714 0.0
C5770 C 0.15682 0.93394 0.48881 0.0
C5771 C 0.16584 0.91404 0.45738 0.0
C5772 C 0.15348 0.9412 0.53247 0.0
C5773 C 0.15095 0.93726 0.52256 0.0
C5774 C 0.15806 0.9168 0.5025 0.0
C5775 C 0.16394 0.92314 0.47412 0.0
C5776 C 0.15953 0.92402 0.48485 0.0
C5777 C 0.15688 0.92907 0.51809 0.0
C5778 C 0.15625 0.92693 0.5066 0.0
H5779 H 0.18357 0.93406 0.45966 0.0
H5780 H 0.1747 0.93617 0.47643 0.0
H5781 H 0.16179 0.90762 0.48884 0.0
H5782 H 0.17344 0.92444 0.53868 0.0
H5783 H 0.16939 0.91784 0.52113 0.0
C5784 C 0.07292 0.83577 0.46592 0.0
C5785 C 0.0637 0.84045 0.46209 0.0
C5786 C 0.07643 0.83798 0.47612 0.0
C5787 C 0.06428 0.84534 0.50111 0.0
H5788 H 0.09246 0.84092 0.51185 0.0
C5789 C 0.07245 0.82331 0.5388 0.0
C5790 C 0.08003 0.82698 0.54593 0.0
C5791 C 0.07096 0.82832 0.5292 0.0
C5792 C 0.08458 0.84241 0.50898 0.0
H5793 H 0.05166 0.85205 0.46532 0.0
H5794 H 0.05799 0.85623 0.4829 0.0
H5795 H 0.08984 0.84438 0.49308 0.0
H5796 H 0.0919 0.83888 0.5487 0.0
H5797 H 0.08946 0.84757 0.53155 0.0
H5798 H 0.05898 0.84293 0.51687 0.0
C5799 C 0.06229 0.85053 0.47826 0.0
C5800 C 0.08306 0.84427 0.49823 0.0
C5801 C 0.05868 0.84817 0.46818 0.0
C5802 C 0.08598 0.83593 0.54334 0.0
C5803 C 0.08462 0.84086 0.53356 0.0
C5804 C 0.0658 0.84348 0.51179 0.0
C5805 C 0.07085 0.84503 0.48258 0.0
C5806 C 0.07285 0.84534 0.49411 0.0
C5807 C 0.07711 0.83704 0.5264 0.0
C5808 C 0.0759 0.84156 0.51575 0.0
H5809 H 0.07695 0.82979 0.46139 0.0
H5810 H 0.08302 0.83355 0.47917 0.0
H5811 H 0.05628 0.84601 0.49827 0.0
H5812 H 0.0677 0.81647 0.54061 0.0
H5813 H 0.06521 0.82513 0.52379 0.0
C5814 C 0.16218 0.07428 0.46543 0.0
C5815 C 0.16383 0.06335 0.46532 0.0
C5816 C 0.15981 0.07948 0.47486 0.0
C5817 C 0.15336 0.07449 0.50332 0.0
H5818 H 0.17045 0.09928 0.5078 0.0
C5819 C 0.16455 0.08752 0.54522 0.0
C5820 C 0.17541 0.08928 0.54625 0.0
C5821 C 0.15988 0.08721 0.53522 0.0
C5822 C 0.16558 0.09238 0.50669 0.0
H5823 H 0.16378 0.04928 0.475 0.0
H5824 H 0.16009 0.05825 0.49126 0.0
H5825 H 0.16796 0.09268 0.49009 0.0
H5826 H 0.18972 0.09282 0.53762 0.0
H5827 H 0.18177 0.09203 0.52048 0.0
H5828 H 0.1519 0.07358 0.52003 0.0
C5829 C 0.16034 0.06287 0.48412 0.0
C5830 C 0.16402 0.08867 0.49648 0.0
C5831 C 0.1626 0.0577 0.47474 0.0
C5832 C 0.18135 0.09131 0.53716 0.0
C5833 C 0.17673 0.09101 0.52726 0.0
C5834 C 0.15509 0.0781 0.51355 0.0
C5835 C 0.1591 0.07385 0.48438 0.0
C5836 C 0.15837 0.07933 0.49471 0.0
C5837 C 0.16599 0.08874 0.5261 0.0
C5838 C 0.16171 0.08675 0.51539 0.0
H5839 H 0.16293 0.07887 0.4583 0.0
H5840 H 0.15877 0.08793 0.47473 0.0
H5841 H 0.14865 0.06748 0.50223 0.0
H5842 H 0.15973 0.086 0.55207 0.0
H5843 H 0.15156 0.08553 0.53462 0.0
C5844 C 0.91203 0.16835 0.54471 0.0
C5845 C 0.9117 0.17932 0.54608 0.0
C5846 C 0.9123 0.164 0.53457 0.0
C5847 C 0.90901 0.17113 0.50615 0.0
H5848 H 0.93067 0.15022 0.50168 0.0
C5849 C 0.92585 0.16471 0.46485 0.0
C5850 C 0.9369 0.16467 0.46462 0.0
C5851 C 0.92045 0.16309 0.47432 0.0
C5852 C 0.92457 0.15605 0.50278 0.0
H5853 H 0.91097 0.19426 0.53782 0.0
H5854 H 0.91171 0.18679 0.52044 0.0
H5855 H 0.92512 0.15438 0.51949 0.0
H5856 H 0.95089 0.16214 0.47408 0.0
H5857 H 0.94163 0.15971 0.49043 0.0
H5858 H 0.90913 0.17355 0.48956 0.0
C5859 C 0.91155 0.18147 0.52708 0.0
C5860 C 0.92127 0.15833 0.51301 0.0
C5861 C 0.91126 0.18578 0.53712 0.0
C5862 C 0.94238 0.16232 0.47392 0.0
C5863 C 0.93703 0.16079 0.48335 0.0
C5864 C 0.91242 0.16898 0.49594 0.0
C5865 C 0.91221 0.17054 0.52563 0.0
C5866 C 0.91382 0.16628 0.51485 0.0
C5867 C 0.926 0.16145 0.48376 0.0
C5868 C 0.92061 0.16178 0.49416 0.0
H5869 H 0.91231 0.16313 0.55143 0.0
H5870 H 0.91273 0.15554 0.53374 0.0
H5871 H 0.90302 0.17708 0.50726 0.0
H5872 H 0.92136 0.16637 0.4578 0.0
H5873 H 0.91195 0.16347 0.47429 0.0
C5874 C 0.84075 0.94386 0.47481 0.0
C5875 C 0.83888 0.93836 0.46541 0.0
C5876 C 0.84279 0.93848 0.48413 0.0
C5877 C 0.83673 0.91314 0.49631 0.0
H5878 H 0.85006 0.9269 0.52002 0.0
C5879 C 0.81888 0.91205 0.53683 0.0
C5880 C 0.82498 0.91302 0.54599 0.0
C5881 C 0.82355 0.91217 0.52695 0.0
C5882 C 0.84651 0.92275 0.51349 0.0
H5883 H 0.83851 0.92286 0.4583 0.0
H5884 H 0.84225 0.91343 0.47461 0.0
H5885 H 0.85406 0.93271 0.50225 0.0
H5886 H 0.84091 0.91437 0.55192 0.0
H5887 H 0.84914 0.91457 0.53449 0.0
H5888 H 0.82913 0.90324 0.50755 0.0
C5889 C 0.84189 0.92194 0.47479 0.0
C5890 C 0.84868 0.92619 0.50329 0.0
C5891 C 0.83977 0.92734 0.46543 0.0
C5892 C 0.83598 0.91368 0.54502 0.0
C5893 C 0.84069 0.91381 0.53504 0.0
C5894 C 0.83469 0.9096 0.50649 0.0
C5895 C 0.84312 0.92744 0.48432 0.0
C5896 C 0.8433 0.92187 0.49463 0.0
C5897 C 0.83449 0.91321 0.52589 0.0
C5898 C 0.83903 0.91481 0.51523 0.0
H5899 H 0.84022 0.95235 0.47513 0.0
H5900 H 0.8435 0.94304 0.49128 0.0
H5901 H 0.83246 0.90955 0.48988 0.0
H5902 H 0.81039 0.91145 0.53724 0.0
H5903 H 0.81847 0.91192 0.52013 0.0
C5904 C 0.46684 0.09223 0.17926 0.0
C5905 C 0.45773 0.08781 0.17487 0.0
C5906 C 0.47657 0.09088 0.17441 0.0
C5907 C 0.49017 0.071 0.16 0.0
H5908 H 0.51278 0.09143 0.15913 0.0
C5909 C 0.53259 0.05682 0.15667 0.0
C5910 C 0.53969 0.06169 0.16357 0.0
C5911 C 0.52289 0.06146 0.15447 0.0
C5912 C 0.50657 0.08561 0.15936 0.0
H5913 H 0.45153 0.07901 0.16167 0.0
H5914 H 0.4687 0.07636 0.1533 0.0
H5915 H 0.49469 0.09734 0.16176 0.0
H5916 H 0.5425 0.07551 0.17312 0.0
H5917 H 0.52543 0.08339 0.16973 0.0
H5918 H 0.50193 0.05919 0.15849 0.0
C5919 C 0.46824 0.08097 0.16045 0.0
C5920 C 0.49621 0.08902 0.16077 0.0
C5921 C 0.45844 0.0825 0.16521 0.0
C5922 C 0.53718 0.07159 0.16775 0.0
C5923 C 0.52738 0.07613 0.16573 0.0
C5924 C 0.50052 0.06758 0.15875 0.0
C5925 C 0.47742 0.08493 0.16516 0.0
C5926 C 0.48797 0.08171 0.16142 0.0
C5927 C 0.51996 0.07096 0.15933 0.0
C5928 C 0.5089 0.07481 0.15875 0.0
H5929 H 0.4665 0.09644 0.18666 0.0
H5930 H 0.48352 0.09393 0.17828 0.0
H5931 H 0.48399 0.06518 0.16062 0.0
H5932 H 0.5344 0.04926 0.15319 0.0
H5933 H 0.51754 0.05739 0.14925 0.0
C5934 C 0.91151 0.466 0.18404 0.0
C5935 C 0.91201 0.45711 0.17749 0.0
C5936 C 0.91216 0.47608 0.17985 0.0
C5937 C 0.92323 0.49012 0.15737 0.0
H5938 H 0.91081 0.51372 0.17213 0.0
C5939 C 0.94484 0.52879 0.16274 0.0
C5940 C 0.93939 0.5382 0.16466 0.0
C5941 C 0.93942 0.51944 0.16096 0.0
C5942 C 0.91419 0.50729 0.16769 0.0
H5943 H 0.91311 0.45192 0.16128 0.0
H5944 H 0.9142 0.46967 0.15391 0.0
H5945 H 0.90416 0.49612 0.17521 0.0
H5946 H 0.92389 0.54529 0.16539 0.0
H5947 H 0.91439 0.52894 0.16209 0.0
H5948 H 0.93329 0.5013 0.14988 0.0
C5949 C 0.91342 0.46876 0.16234 0.0
C5950 C 0.91046 0.49715 0.16958 0.0
C5951 C 0.91277 0.45859 0.16656 0.0
C5952 C 0.92835 0.53816 0.16408 0.0
C5953 C 0.9229 0.52877 0.16222 0.0
C5954 C 0.92686 0.50029 0.15536 0.0
C5955 C 0.91328 0.47762 0.16898 0.0
C5956 C 0.91533 0.48839 0.1649 0.0
C5957 C 0.92837 0.51923 0.16095 0.0
C5958 C 0.92278 0.50894 0.16093 0.0
H5959 H 0.91088 0.46521 0.1925 0.0
H5960 H 0.91225 0.48266 0.18525 0.0
H5961 H 0.92714 0.48358 0.15358 0.0
H5962 H 0.95335 0.5285 0.16306 0.0
H5963 H 0.94395 0.51228 0.16019 0.0
C5964 C 0.46414 0.92814 0.16223 0.0
C5965 C 0.464 0.93911 0.16363 0.0
C5966 C 0.47362 0.92289 0.16028 0.0
C5967 C 0.50228 0.92749 0.15472 0.0
H5968 H 0.50592 0.90331 0.17287 0.0
C5969 C 0.54365 0.91294 0.1664 0.0
C5970 C 0.54471 0.91151 0.17732 0.0
C5971 C 0.53365 0.91372 0.16183 0.0
C5972 C 0.50504 0.91002 0.16771 0.0
H5973 H 0.47366 0.95319 0.16344 0.0
H5974 H 0.49003 0.94411 0.16044 0.0
H5975 H 0.4884 0.9101 0.1697 0.0
H5976 H 0.53605 0.90921 0.19187 0.0
H5977 H 0.51888 0.91078 0.18402 0.0
H5978 H 0.51904 0.92797 0.15356 0.0
C5979 C 0.48288 0.9395 0.16061 0.0
C5980 C 0.49494 0.91385 0.16576 0.0
C5981 C 0.47344 0.94474 0.16247 0.0
C5982 C 0.53558 0.91039 0.18345 0.0
C5983 C 0.52567 0.91116 0.1789 0.0
C5984 C 0.5124 0.92374 0.1568 0.0
C5985 C 0.48316 0.92849 0.15976 0.0
C5986 C 0.49348 0.92295 0.15966 0.0
C5987 C 0.52454 0.91302 0.16808 0.0
C5988 C 0.51392 0.91528 0.16374 0.0
H5989 H 0.457 0.92356 0.16294 0.0
H5990 H 0.47351 0.91441 0.15949 0.0
H5991 H 0.50143 0.93433 0.14973 0.0
H5992 H 0.55052 0.91377 0.16145 0.0
H5993 H 0.53306 0.91508 0.15345 0.0
C5994 C 0.09138 0.53685 0.18453 0.0
C5995 C 0.09043 0.5458 0.17811 0.0
C5996 C 0.09054 0.5268 0.18029 0.0
C5997 C 0.07801 0.51304 0.15843 0.0
H5998 H 0.09114 0.48919 0.17213 0.0
C5999 C 0.05658 0.47429 0.16436 0.0
C6000 C 0.06211 0.46482 0.16566 0.0
C6001 C 0.06191 0.48369 0.16256 0.0
C6002 C 0.08754 0.49569 0.16798 0.0
H6003 H 0.08839 0.55113 0.16204 0.0
H6004 H 0.08695 0.53343 0.15458 0.0
H6005 H 0.09809 0.50673 0.175 0.0
H6006 H 0.07762 0.45771 0.16531 0.0
H6007 H 0.08695 0.47416 0.16198 0.0
H6008 H 0.06742 0.502 0.15144 0.0
C6009 C 0.08824 0.53428 0.16295 0.0
C6010 C 0.09145 0.5058 0.16976 0.0
C6011 C 0.08909 0.54441 0.16722 0.0
C6012 C 0.07311 0.46489 0.16448 0.0
C6013 C 0.07846 0.47433 0.1626 0.0
C6014 C 0.07418 0.50291 0.15654 0.0
C6015 C 0.08875 0.52536 0.16949 0.0
C6016 C 0.08638 0.51463 0.16546 0.0
C6017 C 0.07294 0.48389 0.1619 0.0
C6018 C 0.07854 0.49418 0.16174 0.0
H6019 H 0.09249 0.53758 0.19294 0.0
H6020 H 0.09078 0.52017 0.18563 0.0
H6021 H 0.07392 0.51964 0.15494 0.0
H6022 H 0.04811 0.47457 0.16517 0.0
H6023 H 0.05736 0.49088 0.16225 0.0
C6024 C 0.45755 0.91975 0.83812 0.0
C6025 C 0.45677 0.91462 0.82836 0.0
C6026 C 0.46738 0.92104 0.84291 0.0
C6027 C 0.49527 0.91265 0.84231 0.0
H6028 H 0.50133 0.94236 0.84516 0.0
C6029 C 0.53621 0.9299 0.8349 0.0
C6030 C 0.53888 0.9397 0.83921 0.0
C6031 C 0.52644 0.92536 0.83707 0.0
C6032 C 0.49982 0.93399 0.84473 0.0
H6033 H 0.46541 0.90607 0.81642 0.0
H6034 H 0.48246 0.90818 0.82484 0.0
H6035 H 0.4833 0.93661 0.84309 0.0
H6036 H 0.53393 0.95193 0.84998 0.0
H6037 H 0.51712 0.9438 0.85418 0.0
H6038 H 0.51183 0.91004 0.84369 0.0
C6039 C 0.47556 0.91126 0.82877 0.0
C6040 C 0.48943 0.93071 0.84353 0.0
C6041 C 0.46581 0.91014 0.8239 0.0
C6042 C 0.53198 0.94445 0.8464 0.0
C6043 C 0.52232 0.93981 0.84875 0.0
C6044 C 0.50568 0.91592 0.84367 0.0
C6045 C 0.4765 0.91703 0.83812 0.0
C6046 C 0.48709 0.92006 0.84189 0.0
C6047 C 0.51921 0.93044 0.84376 0.0
C6048 C 0.50813 0.92668 0.84446 0.0
H6049 H 0.45069 0.92328 0.84172 0.0
H6050 H 0.46791 0.92552 0.85014 0.0
H6051 H 0.49365 0.90437 0.84115 0.0
H6052 H 0.54138 0.92607 0.82932 0.0
H6053 H 0.52435 0.9182 0.83298 0.0
C6054 C 0.07071 0.53605 0.83611 0.0
C6055 C 0.061 0.53933 0.84021 0.0
C6056 C 0.07442 0.52589 0.83813 0.0
C6057 C 0.06285 0.50011 0.84339 0.0
H6058 H 0.0918 0.49072 0.84163 0.0
C6059 C 0.07471 0.46305 0.82195 0.0
C6060 C 0.08189 0.45603 0.82653 0.0
C6061 C 0.07255 0.47266 0.82668 0.0
C6062 C 0.08369 0.49322 0.84235 0.0
H6063 H 0.04817 0.53508 0.85059 0.0
H6064 H 0.0548 0.51754 0.8544 0.0
H6065 H 0.08798 0.50928 0.84521 0.0
H6066 H 0.09239 0.45351 0.83971 0.0
H6067 H 0.08874 0.47067 0.84794 0.0
H6068 H 0.05856 0.4842 0.84011 0.0
C6069 C 0.05937 0.52261 0.84931 0.0
C6070 C 0.0815 0.50384 0.84429 0.0
C6071 C 0.05558 0.53267 0.84715 0.0
C6072 C 0.0868 0.45878 0.83604 0.0
C6073 C 0.08476 0.46857 0.84071 0.0
C6074 C 0.06504 0.48956 0.84145 0.0
C6075 C 0.06854 0.5189 0.84439 0.0
C6076 C 0.07104 0.50747 0.84446 0.0
C6077 C 0.07758 0.47556 0.83605 0.0
C6078 C 0.07546 0.48609 0.8405 0.0
H6079 H 0.07506 0.54103 0.83075 0.0
H6080 H 0.08149 0.52329 0.83416 0.0
H6081 H 0.05471 0.50258 0.84333 0.0
H6082 H 0.07074 0.46113 0.81466 0.0
H6083 H 0.06708 0.47795 0.82285 0.0
C6084 C 0.46578 0.07606 0.8378 0.0
C6085 C 0.46554 0.06501 0.83743 0.0
C6086 C 0.47528 0.08138 0.83952 0.0
C6087 C 0.5037 0.07707 0.84635 0.0
H6088 H 0.50819 0.09929 0.82602 0.0
C6089 C 0.54558 0.09061 0.83509 0.0
C6090 C 0.54715 0.09116 0.82415 0.0
C6091 C 0.53538 0.09008 0.83924 0.0
C6092 C 0.50707 0.09312 0.83178 0.0
H6093 H 0.475 0.05091 0.83927 0.0
H6094 H 0.49139 0.06007 0.8419 0.0
H6095 H 0.4905 0.09296 0.82925 0.0
H6096 H 0.53917 0.09205 0.80907 0.0
H6097 H 0.52165 0.0909 0.81621 0.0
H6098 H 0.5204 0.07661 0.84815 0.0
C6099 C 0.48431 0.06472 0.84107 0.0
C6100 C 0.49688 0.08958 0.83376 0.0
C6101 C 0.47486 0.05943 0.83943 0.0
C6102 C 0.53831 0.09158 0.81753 0.0
C6103 C 0.52819 0.09105 0.82165 0.0
C6104 C 0.51392 0.08053 0.84426 0.0
C6105 C 0.48472 0.07576 0.84085 0.0
C6106 C 0.49511 0.08117 0.8407 0.0
C6107 C 0.52657 0.09014 0.83254 0.0
C6108 C 0.51576 0.08825 0.83658 0.0
H6109 H 0.45873 0.08062 0.83642 0.0
H6110 H 0.47526 0.08989 0.83948 0.0
H6111 H 0.5026 0.07077 0.85197 0.0
H6112 H 0.5522 0.09033 0.84042 0.0
H6113 H 0.5344 0.08945 0.84767 0.0
C6114 C 0.92888 0.46358 0.83542 0.0
C6115 C 0.93979 0.46283 0.83704 0.0
C6116 C 0.92365 0.47311 0.83708 0.0
C6117 C 0.91846 0.49569 0.83148 0.0
H6118 H 0.9243 0.51581 0.85363 0.0
C6119 C 0.90544 0.53803 0.82612 0.0
C6120 C 0.91301 0.54563 0.82863 0.0
C6121 C 0.90633 0.52782 0.83002 0.0
C6122 C 0.92261 0.5103 0.84736 0.0
H6123 H 0.95358 0.47127 0.84251 0.0
H6124 H 0.94447 0.48784 0.84537 0.0
H6125 H 0.93043 0.49767 0.85536 0.0
H6126 H 0.9271 0.54885 0.83756 0.0
H6127 H 0.92905 0.53086 0.84398 0.0
H6128 H 0.91131 0.50827 0.82311 0.0
C6129 C 0.93996 0.48108 0.84281 0.0
C6130 C 0.92608 0.49991 0.84839 0.0
C6131 C 0.9452 0.47159 0.84107 0.0
C6132 C 0.92114 0.54309 0.83561 0.0
C6133 C 0.9222 0.53278 0.83931 0.0
C6134 C 0.91512 0.50607 0.83039 0.0
C6135 C 0.92921 0.48203 0.8405 0.0
C6136 C 0.92422 0.49256 0.84035 0.0
C6137 C 0.91503 0.52491 0.83621 0.0
C6138 C 0.91733 0.51359 0.83821 0.0
H6139 H 0.92444 0.45697 0.8324 0.0
H6140 H 0.91534 0.4736 0.83534 0.0
H6141 H 0.91707 0.49027 0.82506 0.0
H6142 H 0.89906 0.53989 0.82079 0.0
H6143 H 0.90047 0.5221 0.82774 0.0
C6144 C 0.16469 0.45886 0.09052 0.0
C6145 C 0.17314 0.45591 0.08405 0.0
C6146 C 0.15978 0.46864 0.08909 0.0
C6147 C 0.15621 0.48977 0.06968 0.0
H6148 H 0.15856 0.50947 0.09282 0.0
C6149 C 0.15443 0.53318 0.0607 0.0
C6150 C 0.16289 0.53884 0.06494 0.0
C6151 C 0.15148 0.52353 0.065 0.0
C6152 C 0.15776 0.50406 0.0863 0.0
H6153 H 0.18275 0.46047 0.07075 0.0
H6154 H 0.17409 0.47727 0.06809 0.0
H6155 H 0.16113 0.49065 0.09599 0.0
H6156 H 0.17438 0.53937 0.07747 0.0
H6157 H 0.16964 0.52225 0.08471 0.0
H6158 H 0.15372 0.50301 0.05978 0.0
C6159 C 0.17128 0.47217 0.0743 0.0
C6160 C 0.1591 0.49328 0.08815 0.0
C6161 C 0.17628 0.46259 0.07587 0.0
C6162 C 0.16782 0.53512 0.07407 0.0
C6163 C 0.16504 0.52532 0.07824 0.0
C6164 C 0.15488 0.50048 0.06783 0.0
C6165 C 0.16311 0.47539 0.08098 0.0
C6166 C 0.15882 0.48613 0.07974 0.0
C6167 C 0.15715 0.51919 0.07344 0.0
C6168 C 0.1561 0.50782 0.07602 0.0
H6169 H 0.16218 0.45383 0.09692 0.0
H6170 H 0.15352 0.47099 0.09435 0.0
H6171 H 0.15589 0.48439 0.06308 0.0
H6172 H 0.15037 0.536 0.05376 0.0
H6173 H 0.14516 0.51919 0.06131 0.0
C6174 C 0.16472 0.46557 0.92722 0.0
C6175 C 0.16546 0.46579 0.93826 0.0
C6176 C 0.16274 0.47483 0.92158 0.0
C6177 C 0.15569 0.50333 0.92514 0.0
H6178 H 0.17513 0.50732 0.90205 0.0
C6179 C 0.16738 0.54497 0.91164 0.0
C6180 C 0.17833 0.54622 0.91076 0.0
C6181 C 0.16293 0.53488 0.91199 0.0
C6182 C 0.16961 0.50634 0.90846 0.0
H6183 H 0.16407 0.47585 0.952 0.0
H6184 H 0.161 0.4918 0.94228 0.0
H6185 H 0.17214 0.48977 0.90888 0.0
H6186 H 0.1931 0.5378 0.909 0.0
H6187 H 0.18548 0.52051 0.9099 0.0
H6188 H 0.15397 0.52004 0.92539 0.0
C6189 C 0.16172 0.48454 0.9379 0.0
C6190 C 0.16777 0.49622 0.91229 0.0
C6191 C 0.16363 0.47534 0.94351 0.0
C6192 C 0.18464 0.5372 0.90976 0.0
C6193 C 0.18022 0.5272 0.91013 0.0
C6194 C 0.15767 0.51348 0.92142 0.0
C6195 C 0.16148 0.48448 0.92685 0.0
C6196 C 0.16122 0.49466 0.92105 0.0
C6197 C 0.16934 0.52587 0.91144 0.0
C6198 C 0.16509 0.51515 0.91341 0.0
H6199 H 0.16597 0.45833 0.92293 0.0
H6200 H 0.16246 0.47446 0.91308 0.0
H6201 H 0.15032 0.50238 0.93167 0.0
H6202 H 0.16228 0.55175 0.91234 0.0
H6203 H 0.1545 0.53414 0.91292 0.0
C6204 C 0.4665 0.17881 0.9097 0.0
C6205 C 0.4574 0.17449 0.91422 0.0
C6206 C 0.47619 0.17383 0.91085 0.0
C6207 C 0.48984 0.15911 0.93045 0.0
H6208 H 0.51232 0.15873 0.90986 0.0
C6209 C 0.53233 0.15649 0.9444 0.0
C6210 C 0.5392 0.16369 0.93962 0.0
C6211 C 0.52271 0.15403 0.93973 0.0
C6212 C 0.50615 0.1588 0.91572 0.0
H6213 H 0.45115 0.16127 0.92296 0.0
H6214 H 0.46826 0.15266 0.92526 0.0
H6215 H 0.49417 0.16123 0.9041 0.0
H6216 H 0.54171 0.17346 0.9259 0.0
H6217 H 0.52475 0.16961 0.91798 0.0
H6218 H 0.5017 0.15757 0.94216 0.0
C6219 C 0.46782 0.15986 0.92073 0.0
C6220 C 0.49576 0.16014 0.9124 0.0
C6221 C 0.45806 0.16476 0.9194 0.0
C6222 C 0.53656 0.16788 0.92976 0.0
C6223 C 0.52684 0.16559 0.92519 0.0
C6224 C 0.50022 0.15791 0.93378 0.0
C6225 C 0.47701 0.1645 0.91669 0.0
C6226 C 0.48756 0.16066 0.91977 0.0
C6227 C 0.51962 0.15891 0.93029 0.0
C6228 C 0.50856 0.15812 0.9265 0.0
H6229 H 0.4662 0.18626 0.90558 0.0
H6230 H 0.48314 0.17765 0.90775 0.0
H6231 H 0.4837 0.15961 0.93632 0.0
H6232 H 0.53425 0.153 0.95192 0.0
H6233 H 0.51751 0.14861 0.94374 0.0
C6234 C 0.83786 0.52752 0.94598 0.0
C6235 C 0.83732 0.53706 0.94043 0.0
C6236 C 0.84017 0.51815 0.94081 0.0
C6237 C 0.83812 0.50635 0.91452 0.0
H6238 H 0.84875 0.48222 0.9298 0.0
C6239 C 0.82098 0.4658 0.90902 0.0
C6240 C 0.82674 0.45664 0.91125 0.0
C6241 C 0.82555 0.47568 0.91004 0.0
C6242 C 0.84599 0.48887 0.92525 0.0
H6243 H 0.83947 0.54429 0.92513 0.0
H6244 H 0.84375 0.52789 0.91609 0.0
H6245 H 0.85164 0.4998 0.9367 0.0
H6246 H 0.84209 0.45069 0.91563 0.0
H6247 H 0.85018 0.4681 0.91736 0.0
H6248 H 0.83249 0.49542 0.90306 0.0
C6249 C 0.84211 0.52765 0.92444 0.0
C6250 C 0.8475 0.49897 0.92931 0.0
C6251 C 0.83968 0.53706 0.92963 0.0
C6252 C 0.83742 0.4576 0.91393 0.0
C6253 C 0.84203 0.46757 0.91496 0.0
C6254 C 0.83677 0.49627 0.91037 0.0
C6255 C 0.84215 0.51803 0.92993 0.0
C6256 C 0.84303 0.50778 0.92431 0.0
C6257 C 0.83605 0.47674 0.91327 0.0
C6258 C 0.84013 0.48737 0.91601 0.0
H6259 H 0.83609 0.52719 0.9543 0.0
H6260 H 0.83988 0.51094 0.94531 0.0
H6261 H 0.8346 0.5129 0.91038 0.0
H6262 H 0.81276 0.46539 0.90682 0.0
H6263 H 0.8206 0.4825 0.90883 0.0
C6264 C 0.46425 0.83973 0.92849 0.0
C6265 C 0.46406 0.83841 0.93947 0.0
C6266 C 0.47374 0.84165 0.92327 0.0
C6267 C 0.50235 0.84739 0.92792 0.0
H6268 H 0.50618 0.82913 0.90385 0.0
C6269 C 0.54384 0.83618 0.91339 0.0
C6270 C 0.54506 0.82528 0.912 0.0
C6271 C 0.53378 0.84062 0.91417 0.0
C6272 C 0.50525 0.83432 0.91054 0.0
H6273 H 0.47366 0.83871 0.95359 0.0
H6274 H 0.49007 0.84168 0.94455 0.0
H6275 H 0.48862 0.83217 0.91062 0.0
H6276 H 0.5366 0.8106 0.90976 0.0
H6277 H 0.51932 0.8182 0.91133 0.0
H6278 H 0.51909 0.84874 0.9284 0.0
C6279 C 0.48293 0.84146 0.93992 0.0
C6280 C 0.49513 0.8362 0.91435 0.0
C6281 C 0.47347 0.83963 0.94513 0.0
C6282 C 0.53602 0.81901 0.91091 0.0
C6283 C 0.52604 0.82342 0.91168 0.0
C6284 C 0.51249 0.8454 0.92419 0.0
C6285 C 0.48326 0.84224 0.9289 0.0
C6286 C 0.49359 0.84235 0.9234 0.0
C6287 C 0.52476 0.83423 0.91351 0.0
C6288 C 0.51408 0.83843 0.91577 0.0
H6289 H 0.45712 0.83898 0.92389 0.0
H6290 H 0.47367 0.84238 0.91478 0.0
H6291 H 0.50143 0.85242 0.93473 0.0
H6292 H 0.55064 0.84124 0.9142 0.0
H6293 H 0.53307 0.84899 0.9155 0.0
C6294 C 0.83766 0.46645 0.07368 0.0
C6295 C 0.83623 0.46665 0.06272 0.0
C6296 C 0.84006 0.47571 0.07916 0.0
C6297 C 0.84715 0.50412 0.07507 0.0
H6298 H 0.82933 0.50838 0.09938 0.0
C6299 C 0.83659 0.5459 0.08893 0.0
C6300 C 0.8257 0.54718 0.09032 0.0
C6301 C 0.841 0.5358 0.08848 0.0
C6302 C 0.83441 0.50732 0.09263 0.0
H6303 H 0.83672 0.47667 0.04889 0.0
H6304 H 0.84048 0.49264 0.05836 0.0
H6305 H 0.83167 0.49078 0.09244 0.0
H6306 H 0.81103 0.53884 0.09298 0.0
H6307 H 0.81855 0.52152 0.09195 0.0
H6308 H 0.84902 0.5208 0.07464 0.0
C6309 C 0.84002 0.48539 0.06279 0.0
C6310 C 0.83588 0.49717 0.08872 0.0
C6311 C 0.83771 0.47618 0.05734 0.0
C6312 C 0.81943 0.5382 0.09179 0.0
C6313 C 0.8238 0.52819 0.09135 0.0
C6314 C 0.84554 0.51429 0.07888 0.0
C6315 C 0.84103 0.48534 0.07379 0.0
C6316 C 0.8418 0.49552 0.07954 0.0
C6317 C 0.83459 0.52682 0.08948 0.0
C6318 C 0.83867 0.51606 0.08735 0.0
H6319 H 0.83671 0.45922 0.07807 0.0
H6320 H 0.8409 0.47535 0.08762 0.0
H6321 H 0.85205 0.50308 0.06819 0.0
H6322 H 0.84166 0.55266 0.08785 0.0
H6323 H 0.84936 0.53502 0.08711 0.0
C6324 C 0.45674 0.83164 0.08387 0.0
C6325 C 0.45404 0.8232 0.09043 0.0
C6326 C 0.46719 0.83501 0.08322 0.0
C6327 C 0.49386 0.82424 0.08788 0.0
H6328 H 0.50258 0.8518 0.07822 0.0
C6329 C 0.53651 0.83183 0.07601 0.0
C6330 C 0.53729 0.83518 0.06551 0.0
C6331 C 0.52696 0.83261 0.0814 0.0
C6332 C 0.50025 0.8441 0.08101 0.0
H6333 H 0.45979 0.81232 0.10217 0.0
H6334 H 0.47785 0.81859 0.10157 0.0
H6335 H 0.4844 0.84901 0.08382 0.0
H6336 H 0.52894 0.84285 0.05276 0.0
H6337 H 0.51234 0.84427 0.06219 0.0
H6338 H 0.50964 0.81932 0.08496 0.0
C6339 C 0.4721 0.82229 0.0965 0.0
C6340 C 0.48983 0.84246 0.08415 0.0
C6341 C 0.46174 0.81874 0.09693 0.0
C6342 C 0.52857 0.84009 0.0608 0.0
C6343 C 0.51908 0.84099 0.06623 0.0
C6344 C 0.50427 0.82593 0.08492 0.0
C6345 C 0.47508 0.83015 0.0893 0.0
C6346 C 0.48642 0.83243 0.08736 0.0
C6347 C 0.51808 0.8369 0.07643 0.0
C6348 C 0.50751 0.83579 0.0812 0.0
H6349 H 0.45092 0.83516 0.07875 0.0
H6350 H 0.46914 0.84101 0.07751 0.0
H6351 H 0.49157 0.81634 0.09004 0.0
H6352 H 0.54309 0.82805 0.07987 0.0
H6353 H 0.5264 0.82946 0.08929 0.0
C6354 C 0.53935 0.1765 0.09897 0.0
C6355 C 0.54697 0.17364 0.09155 0.0
C6356 C 0.52914 0.1726 0.0982 0.0
C6357 C 0.51164 0.15458 0.08265 0.0
H6358 H 0.49159 0.17707 0.08725 0.0
C6359 C 0.47299 0.16004 0.05976 0.0
C6360 C 0.46421 0.16423 0.06502 0.0
C6361 C 0.48245 0.15847 0.06509 0.0
C6362 C 0.49702 0.17061 0.08613 0.0
H6363 H 0.55021 0.16409 0.07787 0.0
H6364 H 0.53221 0.15766 0.07612 0.0
H6365 H 0.50959 0.17929 0.09292 0.0
H6366 H 0.4583 0.16937 0.08018 0.0
H6367 H 0.47491 0.16675 0.08943 0.0
H6368 H 0.49901 0.14625 0.07516 0.0
C6369 C 0.53411 0.16262 0.08277 0.0
C6370 C 0.50739 0.17185 0.08942 0.0
C6371 C 0.54444 0.16632 0.08372 0.0
C6372 C 0.46492 0.1662 0.07587 0.0
C6373 C 0.47444 0.16472 0.08118 0.0
C6374 C 0.50124 0.15339 0.07923 0.0
C6375 C 0.52623 0.16605 0.08977 0.0
C6376 C 0.51492 0.16395 0.08754 0.0
C6377 C 0.48337 0.16114 0.07576 0.0
C6378 C 0.49389 0.1615 0.08075 0.0
H6379 H 0.5412 0.18208 0.10514 0.0
H6380 H 0.5234 0.17514 0.10395 0.0
H6381 H 0.51715 0.14825 0.08122 0.0
H6382 H 0.47268 0.15833 0.05143 0.0
H6383 H 0.48922 0.15577 0.06068 0.0
C6384 C 0.58895 0.66746 0.95942 0.0
C6385 C 0.58957 0.67845 0.95836 0.0
C6386 C 0.58855 0.66283 0.96942 0.0
C6387 C 0.59223 0.66899 0.99796 0.0
H6388 H 0.56951 0.64913 0.00204 0.0
C6389 C 0.57523 0.6626 0.03913 0.0
C6390 C 0.56419 0.66322 0.0394 0.0
C6391 C 0.58048 0.66084 0.02962 0.0
C6392 C 0.57592 0.65465 1.00105 0.0
H6393 H 0.59071 0.69314 0.96703 0.0
H6394 H 0.58979 0.68519 0.9842 0.0
H6395 H 0.57522 0.65343 0.9843 0.0
H6396 H 0.55004 0.66174 0.02996 0.0
H6397 H 0.5591 0.65907 0.01352 0.0
H6398 H 0.5923 0.671 0.0146 0.0
C6399 C 0.58978 0.68006 0.9774 0.0
C6400 C 0.57929 0.657 0.99086 0.0
C6401 C 0.59017 0.68465 0.96749 0.0
C6402 C 0.55855 0.6614 0.03008 0.0
C6403 C 0.56378 0.65973 0.0206 0.0
C6404 C 0.58876 0.66676 0.00813 0.0
C6405 C 0.58883 0.66912 0.97853 0.0
C6406 C 0.58713 0.66461 0.98919 0.0
C6407 C 0.57482 0.65972 0.02017 0.0
C6408 C 0.5802 0.65996 0.00977 0.0
H6409 H 0.58853 0.66245 0.95255 0.0
H6410 H 0.58786 0.65437 0.97002 0.0
H6411 H 0.5985 0.67467 0.99695 0.0
H6412 H 0.57983 0.66382 0.04619 0.0
H6413 H 0.58899 0.66069 0.02962 0.0
C6414 C 0.33946 0.55924 0.02736 0.0
C6415 C 0.33813 0.56452 0.03697 0.0
C6416 C 0.34165 0.56478 0.01818 0.0
C6417 C 0.33739 0.59086 0.00675 0.0
H6418 H 0.3499 0.5769 0.98272 0.0
C6419 C 0.31994 0.59424 0.96617 0.0
C6420 C 0.32594 0.59263 0.95703 0.0
C6421 C 0.32457 0.59382 0.97606 0.0
C6422 C 0.34659 0.58111 0.98934 0.0
H6423 H 0.33876 0.57979 0.04455 0.0
H6424 H 0.34276 0.5895 0.02846 0.0
H6425 H 0.35332 0.57031 1.0003 0.0
H6426 H 0.34171 0.58999 0.95114 0.0
H6427 H 0.3499 0.58931 0.96855 0.0
H6428 H 0.33065 0.60165 0.99578 0.0
C6429 C 0.34188 0.58105 0.02803 0.0
C6430 C 0.34843 0.57722 0.99944 0.0
C6431 C 0.3396 0.57548 0.03725 0.0
C6432 C 0.33685 0.59117 0.95803 0.0
C6433 C 0.34153 0.59075 0.968 0.0
C6434 C 0.33571 0.59487 0.99667 0.0
C6435 C 0.34268 0.57578 0.01832 0.0
C6436 C 0.34329 0.58163 0.00819 0.0
C6437 C 0.33538 0.59183 0.97715 0.0
C6438 C 0.33973 0.58963 0.98779 0.0
H6439 H 0.33843 0.5508 0.0268 0.0
H6440 H 0.34198 0.56042 0.01088 0.0
H6441 H 0.33335 0.59455 0.01327 0.0
H6442 H 0.31153 0.5955 0.96575 0.0
H6443 H 0.31951 0.59449 0.98287 0.0
C6444 C 0.44343 0.3411 0.03055 0.0
C6445 C 0.43807 0.33669 0.03916 0.0
C6446 C 0.43826 0.34274 0.02101 0.0
C6447 C 0.42441 0.34802 0.00208 0.0
H6448 H 0.41106 0.32221 0.99295 0.0
C6449 C 0.42059 0.336 0.95853 0.0
C6450 C 0.4128 0.32873 0.95573 0.0
C6451 C 0.42141 0.33947 0.96895 0.0
C6452 C 0.41447 0.32962 0.99537 0.0
H6453 H 0.42289 0.33121 0.0447 0.0
H6454 H 0.41391 0.33396 0.02795 0.0
H6455 H 0.41644 0.32406 0.01109 0.0
H6456 H 0.39916 0.32015 0.96115 0.0
H6457 H 0.40012 0.32669 0.97912 0.0
H6458 H 0.42262 0.35349 0.98625 0.0
C6459 C 0.42213 0.3361 0.02861 0.0
C6460 C 0.41759 0.33066 0.00582 0.0
C6461 C 0.42727 0.33455 0.0382 0.0
C6462 C 0.40529 0.3257 0.9632 0.0
C6463 C 0.40593 0.32937 0.97351 0.0
C6464 C 0.42116 0.34704 0.9916 0.0
C6465 C 0.42765 0.33993 0.01984 0.0
C6466 C 0.42284 0.33974 0.00923 0.0
C6467 C 0.41432 0.33585 0.97666 0.0
C6468 C 0.41639 0.3377 0.98805 0.0
H6469 H 0.45172 0.34294 0.03104 0.0
H6470 H 0.44275 0.34562 0.01437 0.0
H6471 H 0.42838 0.35514 0.00453 0.0
H6472 H 0.42651 0.33836 0.95288 0.0
H6473 H 0.42802 0.3444 0.97105 0.0
C6474 C 0.66284 0.4269 0.03769 0.0
C6475 C 0.66377 0.43792 0.03775 0.0
C6476 C 0.66065 0.42154 0.02832 0.0
C6477 C 0.65372 0.42598 0.99988 0.0
H6478 H 0.67298 0.40284 0.9954 0.0
C6479 C 0.66626 0.41375 0.95803 0.0
C6480 C 0.67725 0.41298 0.95705 0.0
C6481 C 0.66154 0.41381 0.968 0.0
C6482 C 0.66749 0.40925 0.99652 0.0
H6483 H 0.66248 0.45195 0.02809 0.0
H6484 H 0.65909 0.44272 0.01192 0.0
H6485 H 0.6698 0.40909 0.01312 0.0
H6486 H 0.6918 0.41113 0.96581 0.0
H6487 H 0.68372 0.41149 0.98291 0.0
H6488 H 0.65228 0.42681 0.98315 0.0
C6489 C 0.6598 0.43813 0.01905 0.0
C6490 C 0.66555 0.41276 0.00673 0.0
C6491 C 0.6619 0.44346 0.02838 0.0
C6492 C 0.68333 0.41183 0.96621 0.0
C6493 C 0.67865 0.41187 0.97608 0.0
C6494 C 0.65581 0.42258 0.98964 0.0
C6495 C 0.6594 0.42709 0.01881 0.0
C6496 C 0.6591 0.42156 0.00849 0.0
C6497 C 0.66772 0.41303 0.97715 0.0
C6498 C 0.6632 0.41457 0.98782 0.0
H6499 H 0.66409 0.42239 0.0448 0.0
H6500 H 0.66024 0.41304 0.02847 0.0
H6501 H 0.64841 0.43254 1.00097 0.0
H6502 H 0.66134 0.41458 0.95113 0.0
H6503 H 0.65309 0.41466 0.96855 0.0
C6504 C 0.58926 0.3191 0.03579 0.0
C6505 C 0.5882 0.32511 0.04499 0.0
C6506 C 0.58899 0.32383 0.02594 0.0
C6507 C 0.57791 0.34661 0.01258 0.0
H6508 H 0.59177 0.3332 0.98899 0.0
C6509 C 0.55756 0.34099 0.97338 0.0
C6510 C 0.56329 0.33926 0.96409 0.0
C6511 C 0.56271 0.34303 0.98283 0.0
C6512 C 0.58798 0.33729 0.99541 0.0
H6513 H 0.58646 0.34096 0.05104 0.0
H6514 H 0.58597 0.34931 0.03367 0.0
H6515 H 0.59795 0.32984 0.00669 0.0
H6516 H 0.57894 0.3392 0.95731 0.0
H6517 H 0.58795 0.34299 0.97383 0.0
H6518 H 0.5679 0.35403 0.0013 0.0
C6519 C 0.58694 0.34087 0.03416 0.0
C6520 C 0.59145 0.33524 0.00561 0.0
C6521 C 0.58724 0.33609 0.0441 0.0
C6522 C 0.57429 0.34033 0.96435 0.0
C6523 C 0.57946 0.34248 0.97384 0.0
C6524 C 0.57454 0.3488 0.00235 0.0
C6525 C 0.58768 0.33475 0.02496 0.0
C6526 C 0.58603 0.33934 0.01433 0.0
C6527 C 0.57375 0.34352 0.98327 0.0
C6528 C 0.57912 0.34366 0.99368 0.0
H6529 H 0.59009 0.31063 0.03612 0.0
H6530 H 0.58935 0.31881 0.01907 0.0
H6531 H 0.57359 0.34998 0.0191 0.0
H6532 H 0.54908 0.34029 0.97351 0.0
H6533 H 0.558 0.3436 0.98989 0.0
C6534 C 0.6617 0.57245 0.96514 0.0
C6535 C 0.66405 0.56165 0.96481 0.0
C6536 C 0.65927 0.57735 0.9747 0.0
C6537 C 0.65415 0.57167 0.00329 0.0
H6538 H 0.66966 0.59754 0.00738 0.0
C6539 C 0.66558 0.58561 0.04488 0.0
C6540 C 0.67636 0.58796 0.0456 0.0
C6541 C 0.66068 0.58494 0.03502 0.0
C6542 C 0.66523 0.59034 0.00638 0.0
H6543 H 0.66517 0.54746 0.97423 0.0
H6544 H 0.66138 0.55596 0.99075 0.0
H6545 H 0.66705 0.59087 0.98973 0.0
H6546 H 0.69024 0.59213 0.03658 0.0
H6547 H 0.68189 0.59076 0.01965 0.0
H6548 H 0.65327 0.57062 0.02005 0.0
C6549 C 0.66112 0.56068 0.98368 0.0
C6550 C 0.66359 0.58657 0.99621 0.0
C6551 C 0.66343 0.5558 0.97416 0.0
C6552 C 0.68195 0.59018 0.03634 0.0
C6553 C 0.67709 0.58954 0.02658 0.0
C6554 C 0.65594 0.57535 0.01349 0.0
C6555 C 0.65922 0.57157 0.98414 0.0
C6556 C 0.65852 0.57689 0.99456 0.0
C6557 C 0.66646 0.5867 0.02574 0.0
C6558 C 0.66201 0.58443 0.01516 0.0
H6559 H 0.66197 0.57718 0.95806 0.0
H6560 H 0.65768 0.58571 0.97471 0.0
H6561 H 0.64989 0.56436 0.00231 0.0
H6562 H 0.66104 0.58392 0.05188 0.0
H6563 H 0.65245 0.5828 0.03465 0.0
C6564 C 0.41474 0.68648 0.03823 0.0
C6565 C 0.41499 0.67974 0.04699 0.0
C6566 C 0.4153 0.68246 0.02806 0.0
C6567 C 0.42558 0.65993 0.01354 0.0
H6568 H 0.41299 0.67507 0.99027 0.0
C6569 C 0.44614 0.66465 0.97412 0.0
C6570 C 0.44039 0.66649 0.96486 0.0
C6571 C 0.44102 0.66312 0.98368 0.0
C6572 C 0.41641 0.67054 0.99661 0.0
H6573 H 0.4156 0.66341 0.05186 0.0
H6574 H 0.41654 0.65636 0.03397 0.0
H6575 H 0.40687 0.67831 0.00805 0.0
H6576 H 0.42466 0.66737 0.95831 0.0
H6577 H 0.41569 0.66455 0.97505 0.0
H6578 H 0.43519 0.65222 0.00209 0.0
C6579 C 0.41602 0.66478 0.03505 0.0
C6580 C 0.41299 0.67251 0.00685 0.0
C6581 C 0.41544 0.66882 0.04529 0.0
C6582 C 0.42935 0.6661 0.96531 0.0
C6583 C 0.4242 0.66452 0.97491 0.0
C6584 C 0.42893 0.65787 0.00328 0.0
C6585 C 0.41608 0.67159 0.02632 0.0
C6586 C 0.41791 0.66764 0.01547 0.0
C6587 C 0.42999 0.66331 0.98427 0.0
C6588 C 0.42475 0.66353 0.99474 0.0
H6589 H 0.41436 0.69493 0.03918 0.0
H6590 H 0.41555 0.68797 0.02158 0.0
H6591 H 0.42953 0.656 0.01997 0.0
H6592 H 0.45465 0.66481 0.97411 0.0
H6593 H 0.44577 0.66238 0.9907 0.0
C6594 C 0.33765 0.42649 0.96653 0.0
C6595 C 0.33734 0.43755 0.96677 0.0
C6596 C 0.3396 0.42076 0.97574 0.0
C6597 C 0.34714 0.42402 0.00418 0.0
H6598 H 0.32681 0.40176 0.00837 0.0
C6599 C 0.33508 0.41124 0.04595 0.0
C6600 C 0.32411 0.41075 0.04724 0.0
C6601 C 0.33951 0.41137 0.03585 0.0
C6602 C 0.33257 0.40794 0.00734 0.0
H6603 H 0.33954 0.4512 0.9768 0.0
H6604 H 0.34253 0.44135 0.99268 0.0
H6605 H 0.32994 0.40841 0.99078 0.0
H6606 H 0.30927 0.40945 0.03888 0.0
H6607 H 0.31685 0.40998 0.02156 0.0
H6608 H 0.34896 0.42427 0.02088 0.0
C6609 C 0.34149 0.43701 0.98544 0.0
C6610 C 0.3345 0.41166 0.99719 0.0
C6611 C 0.33962 0.4427 0.97628 0.0
C6612 C 0.31774 0.40991 0.03825 0.0
C6613 C 0.32213 0.41007 0.02824 0.0
C6614 C 0.34507 0.42043 0.01436 0.0
C6615 C 0.34125 0.42596 0.98538 0.0
C6616 C 0.34139 0.42015 0.99555 0.0
C6617 C 0.33305 0.41099 0.02686 0.0
C6618 C 0.33733 0.41274 0.0161 0.0
H6619 H 0.33605 0.42226 0.95931 0.0
H6620 H 0.33951 0.41226 0.97535 0.0
H6621 H 0.35277 0.43033 0.00318 0.0
H6622 H 0.34023 0.41181 0.05271 0.0
H6623 H 0.34796 0.412 0.03508 0.0
C6624 C 0.96418 0.59387 0.67783 0.0
C6625 C 0.95512 0.58923 0.67355 0.0
C6626 C 0.97394 0.59245 0.67306 0.0
C6627 C 0.98764 0.57211 0.65943 0.0
H6628 H 0.01033 0.59245 0.65834 0.0
C6629 C 0.03008 0.55776 0.6572 0.0
C6630 C 0.03709 0.56281 0.66406 0.0
C6631 C 0.02042 0.56234 0.65473 0.0
C6632 C 0.0041 0.58666 0.65863 0.0
H6633 H 0.94903 0.58001 0.66058 0.0
H6634 H 0.96626 0.57726 0.65235 0.0
H6635 H 0.99222 0.59848 0.66047 0.0
H6636 H 0.03977 0.57688 0.67328 0.0
H6637 H 0.02274 0.58466 0.66943 0.0
H6638 H 0.99939 0.56024 0.65847 0.0
C6639 C 0.96573 0.58208 0.65936 0.0
C6640 C 0.99373 0.59013 0.65975 0.0
C6641 C 0.9559 0.58368 0.66404 0.0
C6642 C 0.03451 0.57281 0.66795 0.0
C6643 C 0.02475 0.5773 0.66567 0.0
C6644 C 0.99799 0.56863 0.65846 0.0
C6645 C 0.97487 0.58622 0.664 0.0
C6646 C 0.98545 0.58287 0.66049 0.0
C6647 C 0.01743 0.57197 0.65928 0.0
C6648 C 0.0064 0.57583 0.65839 0.0
H6649 H 0.96378 0.59826 0.68512 0.0
H6650 H 0.98085 0.59564 0.67688 0.0
H6651 H 0.98143 0.56633 0.66013 0.0
H6652 H 0.03195 0.55011 0.65394 0.0
H6653 H 0.01514 0.55814 0.64954 0.0
C6654 C 0.44522 0.03488 0.65442 0.0
C6655 C 0.44013 0.04104 0.66204 0.0
C6656 C 0.44153 0.02484 0.652 0.0
C6657 C 0.42028 0.0052 0.65776 0.0
H6658 H 0.44396 0.98605 0.65897 0.0
C6659 C 0.4162 0.96008 0.66541 0.0
C6660 C 0.4221 0.95719 0.67429 0.0
C6661 C 0.41783 0.9699 0.66063 0.0
C6662 C 0.43725 0.99128 0.65846 0.0
H6663 H 0.42672 0.04189 0.67248 0.0
H6664 H 0.4205 0.02417 0.66862 0.0
H6665 H 0.44707 0.00464 0.65628 0.0
H6666 H 0.43464 0.96195 0.68481 0.0
H6667 H 0.43761 0.97882 0.67642 0.0
H6668 H 0.41058 0.99172 0.66077 0.0
C6669 C 0.42721 0.02714 0.66431 0.0
C6670 C 0.43901 0.00196 0.65683 0.0
C6671 C 0.4308 0.0373 0.66659 0.0
C6672 C 0.42993 0.96401 0.67802 0.0
C6673 C 0.43168 0.97364 0.67316 0.0
C6674 C 0.41853 0.99445 0.65941 0.0
C6675 C 0.43281 0.02063 0.65733 0.0
C6676 C 0.43059 0.00914 0.65686 0.0
C6677 C 0.42558 0.97677 0.66452 0.0
C6678 C 0.42705 0.98748 0.66022 0.0
H6679 H 0.45233 0.03767 0.65065 0.0
H6680 H 0.44586 0.02017 0.64635 0.0
H6681 H 0.41361 0.01048 0.65767 0.0
H6682 H 0.41009 0.95496 0.66243 0.0
H6683 H 0.41302 0.97215 0.65398 0.0
C6684 C 0.03669 0.40853 0.67988 0.0
C6685 C 0.04577 0.41279 0.67527 0.0
C6686 C 0.02688 0.40994 0.6752 0.0
C6687 C 0.01322 0.42978 0.6608 0.0
H6688 H 0.9905 0.40946 0.66003 0.0
C6689 C 0.97086 0.44413 0.657 0.0
C6690 C 0.96361 0.43929 0.66377 0.0
C6691 C 0.98059 0.43946 0.655 0.0
C6692 C 0.99674 0.41526 0.66024 0.0
H6693 H 0.05181 0.42138 0.66185 0.0
H6694 H 0.03452 0.42412 0.65378 0.0
H6695 H 0.00855 0.40348 0.66274 0.0
H6696 H 0.96061 0.42552 0.67333 0.0
H6697 H 0.97774 0.41761 0.67031 0.0
H6698 H 0.00152 0.44164 0.65919 0.0
C6699 C 0.03506 0.41959 0.66097 0.0
C6700 C 0.00707 0.4118 0.6617 0.0
C6701 C 0.04493 0.418 0.66556 0.0
C6702 C 0.96604 0.42941 0.66805 0.0
C6703 C 0.97587 0.42485 0.66625 0.0
C6704 C 0.00289 0.43325 0.65952 0.0
C6705 C 0.02593 0.41579 0.66589 0.0
C6706 C 0.01536 0.41907 0.66228 0.0
C6707 C 0.98341 0.42998 0.65995 0.0
C6708 C 0.99446 0.42607 0.65953 0.0
H6709 H 0.03712 0.40441 0.68733 0.0
H6710 H 0.01996 0.40701 0.67922 0.0
H6711 H 0.01944 0.43557 0.66137 0.0
H6712 H 0.96911 0.45167 0.65346 0.0
H6713 H 0.98604 0.4435 0.64986 0.0
C6714 C 0.5567 0.96913 0.65501 0.0
C6715 C 0.56188 0.96289 0.6625 0.0
C6716 C 0.56029 0.97924 0.65275 0.0
C6717 C 0.58136 0.99898 0.65874 0.0
H6718 H 0.55748 0.01782 0.66076 0.0
C6719 C 0.58503 0.04398 0.66712 0.0
C6720 C 0.57923 0.04671 0.67612 0.0
C6721 C 0.58344 0.03421 0.66224 0.0
C6722 C 0.56423 0.01268 0.66004 0.0
H6723 H 0.57537 0.96197 0.67285 0.0
H6724 H 0.58142 0.97979 0.66925 0.0
H6725 H 0.55454 0.99925 0.65767 0.0
H6726 H 0.56693 0.04166 0.68679 0.0
H6727 H 0.56404 0.02485 0.67824 0.0
H6728 H 0.59095 0.0125 0.66191 0.0
C6729 C 0.57471 0.97684 0.66493 0.0
C6730 C 0.56258 0.00202 0.65816 0.0
C6731 C 0.57122 0.96662 0.66705 0.0
C6732 C 0.57156 0.03974 0.6799 0.0
C6733 C 0.56985 0.03015 0.67495 0.0
C6734 C 0.58301 0.0097 0.66062 0.0
C6735 C 0.569 0.98343 0.65811 0.0
C6736 C 0.57108 0.99495 0.65789 0.0
C6737 C 0.57584 0.02721 0.66617 0.0
C6738 C 0.57442 0.01655 0.66172 0.0
H6739 H 0.54958 0.96636 0.65124 0.0
H6740 H 0.55588 0.98399 0.64723 0.0
H6741 H 0.58809 0.99378 0.65842 0.0
H6742 H 0.59102 0.04922 0.66408 0.0
H6743 H 0.58816 0.0321 0.65548 0.0
C6744 C 0.03785 0.42979 0.33949 0.0
C6745 C 0.03799 0.44076 0.33808 0.0
C6746 C 0.02838 0.42453 0.34143 0.0
C6747 C 0.99967 0.4291 0.34682 0.0
H6748 H 0.99618 0.40504 0.32848 0.0
C6749 C 0.95842 0.41481 0.3344 0.0
C6750 C 0.95754 0.4135 0.32345 0.0
C6751 C 0.96835 0.41551 0.33915 0.0
C6752 C 0.99702 0.41172 0.3337 0.0
H6753 H 0.02833 0.45483 0.33828 0.0
H6754 H 0.01196 0.44573 0.34127 0.0
H6755 H 0.01368 0.41176 0.33191 0.0
H6756 H 0.96643 0.41133 0.30903 0.0
H6757 H 0.98348 0.41275 0.31717 0.0
H6758 H 0.9829 0.42963 0.34778 0.0
C6759 C 0.01911 0.44114 0.34111 0.0
C6760 C 0.0071 0.4155 0.33579 0.0
C6761 C 0.02855 0.44638 0.33926 0.0
C6762 C 0.96676 0.41243 0.31746 0.0
C6763 C 0.9766 0.41311 0.32218 0.0
C6764 C 0.98957 0.42539 0.3446 0.0
C6765 C 0.01884 0.43012 0.34194 0.0
C6766 C 0.00852 0.42457 0.34195 0.0
C6767 C 0.97755 0.41483 0.33304 0.0
C6768 C 0.98811 0.41699 0.33757 0.0
H6769 H 0.045 0.42522 0.33877 0.0
H6770 H 0.0285 0.41605 0.34221 0.0
H6771 H 1.00049 0.43591 0.35186 0.0
H6772 H 0.95147 0.4156 0.33925 0.0
H6773 H 0.96881 0.41677 0.34756 0.0
C6774 C 0.55965 0.02838 0.34141 0.0
C6775 C 0.56464 0.03729 0.33717 0.0
C6776 C 0.56525 0.01906 0.34296 0.0
C6777 C 0.58651 0.00504 0.33067 0.0
H6778 H 0.58253 0.98492 0.35321 0.0
C6779 C 0.60015 0.96297 0.32466 0.0
C6780 C 0.59297 0.9552 0.32773 0.0
C6781 C 0.59927 0.97319 0.32854 0.0
C6782 C 0.5837 0.99042 0.34683 0.0
H6783 H 0.5796 0.04361 0.33193 0.0
H6784 H 0.58932 0.02726 0.33451 0.0
H6785 H 0.576 0.00289 0.35521 0.0
H6786 H 0.57962 0.95172 0.33767 0.0
H6787 H 0.57765 0.9697 0.34406 0.0
H6788 H 0.59347 0.99261 0.32193 0.0
C6789 C 0.58106 0.02752 0.33659 0.0
C6790 C 0.58001 1.00073 0.34801 0.0
C6791 C 0.57549 0.03688 0.33514 0.0
C6792 C 0.58529 0.95761 0.33526 0.0
C6793 C 0.58421 0.96792 0.33893 0.0
C6794 C 0.59005 0.99475 0.32942 0.0
C6795 C 0.57592 0.01844 0.34023 0.0
C6796 C 0.5812 0.00807 0.33984 0.0
C6797 C 0.59094 0.97594 0.33529 0.0
C6798 C 0.5885 0.98722 0.33739 0.0
H6799 H 0.55132 0.02846 0.34317 0.0
H6800 H 0.56106 0.01218 0.3457 0.0
H6801 H 0.58738 0.01047 0.32416 0.0
H6802 H 0.60621 0.96123 0.31893 0.0
H6803 H 0.60483 0.97904 0.32583 0.0
C6804 C 0.96545 0.57365 0.33471 0.0
C6805 C 0.96293 0.56382 0.33903 0.0
C6806 C 0.9752 0.57828 0.33677 0.0
C6807 C 0.00201 0.56992 0.3441 0.0
H6808 H 0.00781 0.59963 0.34065 0.0
C6809 C 0.0441 0.58476 0.33754 0.0
C6810 C 0.04484 0.58999 0.32784 0.0
C6811 C 0.03428 0.58328 0.3423 0.0
C6812 C 0.00629 0.59133 0.34177 0.0
H6813 H 0.96814 0.55161 0.3497 0.0
H6814 H 0.98493 0.55988 0.35369 0.0
H6815 H 0.98972 0.59374 0.34327 0.0
H6816 H 0.0361 0.59853 0.31596 0.0
H6817 H 0.01906 0.5961 0.32432 0.0
H6818 H 0.01855 0.56751 0.34235 0.0
C6819 C 0.97962 0.56384 0.34834 0.0
C6820 C 0.99593 0.58793 0.34318 0.0
C6821 C 0.96996 0.55911 0.34611 0.0
C6822 C 0.03574 0.59438 0.3234 0.0
C6823 C 0.026 0.59308 0.32823 0.0
C6824 C 0.01236 0.57333 0.34285 0.0
C6825 C 0.98257 0.57325 0.34334 0.0
C6826 C 0.99361 0.57713 0.34394 0.0
C6827 C 0.02511 0.58721 0.33753 0.0
C6828 C 0.01456 0.58402 0.34127 0.0
H6829 H 0.96018 0.57745 0.32921 0.0
H6830 H 0.97718 0.58547 0.33267 0.0
H6831 H 1.0006 0.56154 0.3445 0.0
H6832 H 0.051 0.58129 0.34113 0.0
H6833 H 0.0338 0.57873 0.34948 0.0
C6834 C 0.44065 0.97292 0.34035 0.0
C6835 C 0.43621 0.96412 0.33536 0.0
C6836 C 0.43481 0.98211 0.3417 0.0
C6837 C 0.41947 1.00012 0.34594 0.0
H6838 H 0.40887 0.0092 0.31888 0.0
C6839 C 0.41589 0.04368 0.33425 0.0
C6840 C 0.40902 0.04646 0.3261 0.0
C6841 C 0.41654 0.03321 0.33759 0.0
C6842 C 0.41147 0.00678 0.32661 0.0
H6843 H 0.42191 0.95781 0.32851 0.0
H6844 H 0.41176 0.97398 0.33071 0.0
H6845 H 0.4146 0.99122 0.32113 0.0
H6846 H 0.39669 0.0409 0.31578 0.0
H6847 H 0.39731 0.02282 0.32202 0.0
H6848 H 0.41651 0.01577 0.35137 0.0
C6849 C 0.41977 0.97373 0.33357 0.0
C6850 C 0.4148 0.99642 0.32788 0.0
C6851 C 0.42558 0.96447 0.33234 0.0
C6852 C 0.40217 0.03887 0.32198 0.0
C6853 C 0.4026 0.0285 0.3255 0.0
C6854 C 0.41598 0.01048 0.34473 0.0
C6855 C 0.42444 0.98272 0.33799 0.0
C6856 C 0.41913 0.99307 0.33745 0.0
C6857 C 0.41016 0.02541 0.33297 0.0
C6858 C 0.41224 0.01404 0.33494 0.0
H6859 H 0.44878 0.97286 0.34287 0.0
H6860 H 0.43864 0.98893 0.34505 0.0
H6861 H 0.42271 0.99769 0.35343 0.0
H6862 H 0.42129 0.04941 0.33749 0.0
H6863 H 0.42252 0.03118 0.34329 0.0
C6864 C 0.66628 0.95725 0.58713 0.0
C6865 C 0.67539 0.95438 0.58155 0.0
C6866 C 0.66161 0.9671 0.58543 0.0
C6867 C 0.66013 0.98852 0.56608 0.0
H6868 H 0.65834 0.00769 0.58972 0.0
C6869 C 0.65556 0.03206 0.55807 0.0
C6870 C 0.6629 0.03836 0.56338 0.0
C6871 C 0.65326 0.02196 0.56167 0.0
C6872 C 0.65872 0.00242 0.58305 0.0
H6873 H 0.68644 0.95929 0.56954 0.0
H6874 H 0.67825 0.97623 0.56646 0.0
H6875 H 0.66152 0.98895 0.59283 0.0
H6876 H 0.67298 0.0394 0.57705 0.0
H6877 H 0.66935 0.02157 0.58312 0.0
H6878 H 0.65814 0.00187 0.55622 0.0
C6879 C 0.67473 0.97098 0.57218 0.0
C6880 C 0.66042 0.99169 0.58484 0.0
C6881 C 0.67948 0.96131 0.574 0.0
C6882 C 0.6673 0.03469 0.57281 0.0
C6883 C 0.66516 0.02448 0.57631 0.0
C6884 C 0.65845 0.99919 0.56429 0.0
C6885 C 0.66584 0.97404 0.57794 0.0
C6886 C 0.66156 0.98474 0.57634 0.0
C6887 C 0.65844 0.01784 0.57052 0.0
C6888 C 0.65811 0.00635 0.57271 0.0
H6889 H 0.66301 0.95205 0.59303 0.0
H6890 H 0.65476 0.96931 0.58997 0.0
H6891 H 0.66092 0.9833 0.5594 0.0
H6892 H 0.65189 0.03479 0.55088 0.0
H6893 H 0.64782 0.01718 0.55719 0.0
C6894 C 0.66335 0.96337 0.43082 0.0
C6895 C 0.66574 0.96315 0.44161 0.0
C6896 C 0.66073 0.97286 0.42587 0.0
C6897 C 0.65478 0.00129 0.43144 0.0
H6898 H 0.66973 0.0058 0.40531 0.0
C6899 C 0.66403 0.04322 0.41707 0.0
C6900 C 0.67472 0.04445 0.41453 0.0
C6901 C 0.65961 0.03314 0.41784 0.0
C6902 C 0.66546 0.00468 0.41259 0.0
H6903 H 0.66684 0.97271 0.45572 0.0
H6904 H 0.66271 0.9891 0.44713 0.0
H6905 H 0.66797 0.9881 0.41218 0.0
H6906 H 0.68891 0.03609 0.41003 0.0
H6907 H 0.68139 0.01878 0.41156 0.0
H6908 H 0.65318 0.01799 0.43235 0.0
C6909 C 0.66255 0.98199 0.44246 0.0
C6910 C 0.66432 0.99447 0.41648 0.0
C6911 C 0.66506 0.97254 0.4474 0.0
C6912 C 0.68068 0.03547 0.41214 0.0
C6913 C 0.6763 0.02548 0.41288 0.0
C6914 C 0.65607 0.01152 0.42764 0.0
C6915 C 0.66053 0.98234 0.43159 0.0
C6916 C 0.65943 0.9927 0.42623 0.0
C6917 C 0.66579 0.02413 0.41598 0.0
C6918 C 0.66192 0.01337 0.41844 0.0
H6919 H 0.66367 0.95626 0.42615 0.0
H6920 H 0.65908 0.97279 0.41752 0.0
H6921 H 0.65066 1.00019 0.43881 0.0
H6922 H 0.65921 0.05 0.4189 0.0
H6923 H 0.65146 0.03239 0.42015 0.0
C6924 C 0.03247 0.65645 0.44245 0.0
C6925 C 0.03947 0.66368 0.43791 0.0
C6926 C 0.02287 0.65422 0.43763 0.0
C6927 C 0.00661 0.65975 0.41357 0.0
H6928 H 0.98392 0.65992 0.43392 0.0
C6929 C 0.96663 0.67934 0.40749 0.0
C6930 C 0.95757 0.67472 0.41179 0.0
C6931 C 0.97642 0.67455 0.40868 0.0
C6932 C 0.99013 0.65961 0.42811 0.0
H6933 H 0.04223 0.67377 0.42448 0.0
H6934 H 0.02529 0.67032 0.41631 0.0
H6935 H 0.00186 0.65781 0.43991 0.0
H6936 H 0.95153 0.66117 0.42017 0.0
H6937 H 0.96878 0.6529 0.42251 0.0
H6938 H 0.99475 0.66244 0.40188 0.0
C6939 C 0.02726 0.6661 0.42343 0.0
C6940 C 1.00048 0.65837 0.43154 0.0
C6941 C 0.03698 0.66815 0.42814 0.0
C6942 C 0.95839 0.66489 0.41678 0.0
C6943 C 0.96824 0.66018 0.41814 0.0
C6944 C 0.99625 0.66115 0.41017 0.0
C6945 C 0.01993 0.65937 0.42829 0.0
C6946 C 0.0089 0.65877 0.42436 0.0
C6947 C 0.97737 0.66512 0.41433 0.0
C6948 C 0.98795 0.66141 0.41746 0.0
H6949 H 0.03429 0.65274 0.4499 0.0
H6950 H 0.01758 0.64875 0.44146 0.0
H6951 H 0.01284 0.65985 0.40778 0.0
H6952 H 0.96622 0.68686 0.40353 0.0
H6953 H 0.98332 0.67859 0.40575 0.0
C6954 C 0.33818 0.03708 0.42903 0.0
C6955 C 0.33602 0.03693 0.43988 0.0
C6956 C 0.34078 0.02778 0.42373 0.0
C6957 C 0.34734 0.99932 0.4284 0.0
H6958 H 0.33184 0.99513 0.40254 0.0
C6959 C 0.33793 0.95754 0.414 0.0
C6960 C 0.32721 0.95631 0.4116 0.0
C6961 C 0.34236 0.96763 0.41464 0.0
C6962 C 0.33627 0.99616 0.40974 0.0
H6963 H 0.3353 0.0269 0.45368 0.0
H6964 H 0.33941 0.01086 0.4445 0.0
H6965 H 0.33353 0.01272 0.40973 0.0
H6966 H 0.31298 0.96465 0.4072 0.0
H6967 H 0.32049 0.98195 0.40858 0.0
H6968 H 0.34916 0.98264 0.42896 0.0
C6969 C 0.3394 0.01811 0.44005 0.0
C6970 C 0.33736 0.00631 0.4138 0.0
C6971 C 0.33689 0.02736 0.44533 0.0
C6972 C 0.32123 0.96528 0.40921 0.0
C6973 C 0.32561 0.97527 0.40985 0.0
C6974 C 0.34608 0.98916 0.42443 0.0
C6975 C 0.34123 0.01813 0.42915 0.0
C6976 C 0.34243 0.00794 0.42349 0.0
C6977 C 0.33615 0.97663 0.41285 0.0
C6978 C 0.34002 0.9874 0.41536 0.0
H6979 H 0.33769 0.04434 0.4246 0.0
H6980 H 0.34226 0.02812 0.41535 0.0
H6981 H 0.35162 1.00033 0.43569 0.0
H6982 H 0.34277 0.95078 0.4158 0.0
H6983 H 0.35054 0.96838 0.41685 0.0
C6984 C 0.97474 0.34124 0.44122 0.0
C6985 C 0.96541 0.33872 0.43586 0.0
C6986 C 0.9841 0.34277 0.43575 0.0
C6987 C 0.99653 0.3341 0.41128 0.0
H6988 H 0.02006 0.34918 0.42344 0.0
C6989 C 0.03777 0.31743 0.41067 0.0
C6990 C 0.04668 0.32396 0.41083 0.0
C6991 C 0.0277 0.3217 0.4108 0.0
C6992 C 0.01358 0.34508 0.41974 0.0
H6993 H 0.95847 0.33671 0.4204 0.0
H6994 H 0.97485 0.33957 0.4108 0.0
H6995 H 0.00226 0.35341 0.42895 0.0
H6996 H 0.05194 0.34019 0.41079 0.0
H6997 H 0.03422 0.34769 0.41096 0.0
H6998 H 0.00784 0.32574 0.4021 0.0
C6999 C 0.97494 0.3401 0.4193 0.0
C7000 C 0.00336 0.34742 0.42301 0.0
C7001 C 0.96554 0.3385 0.4248 0.0
C7002 C 0.04524 0.33493 0.41074 0.0
C7003 C 0.0351 0.33923 0.41085 0.0
C7004 C 0.00673 0.33188 0.4079 0.0
C7005 C 0.98441 0.34191 0.42474 0.0
C7006 C 0.99476 0.34153 0.41927 0.0
C7007 C 0.0262 0.33264 0.41104 0.0
C7008 C 0.01542 0.33691 0.41253 0.0
H7009 H 0.97497 0.34157 0.44973 0.0
H7010 H 0.99121 0.34398 0.44027 0.0
H7011 H 0.99015 0.3294 0.40817 0.0
H7012 H 0.03852 0.30895 0.41071 0.0
H7013 H 0.02109 0.31635 0.41118 0.0
C7014 C 0.33615 0.04578 0.58949 0.0
C7015 C 0.3276 0.0487 0.58314 0.0
C7016 C 0.34099 0.03596 0.58807 0.0
C7017 C 0.3442 0.01465 0.5688 0.0
H7018 H 0.34268 0.99522 0.59224 0.0
C7019 C 0.34719 0.97114 0.56049 0.0
C7020 C 0.33897 0.96525 0.56491 0.0
C7021 C 0.34981 0.98097 0.56458 0.0
C7022 C 0.34324 1.00056 0.58564 0.0
H7023 H 0.31774 0.04402 0.57005 0.0
H7024 H 0.32628 0.02716 0.56743 0.0
H7025 H 0.33987 0.01404 0.59523 0.0
H7026 H 0.32759 0.96458 0.57753 0.0
H7027 H 0.33178 0.982 0.58441 0.0
H7028 H 0.34672 0.00133 0.55903 0.0
C7029 C 0.32923 0.03231 0.57354 0.0
C7030 C 0.34176 0.01134 0.58737 0.0
C7031 C 0.32429 0.04194 0.57508 0.0
C7032 C 0.33396 0.96898 0.57399 0.0
C7033 C 0.33642 0.97896 0.57796 0.0
C7034 C 0.34567 0.00394 0.56706 0.0
C7035 C 0.3375 0.02914 0.58011 0.0
C7036 C 0.34177 0.01839 0.57888 0.0
C7037 C 0.34406 0.98526 0.57298 0.0
C7038 C 0.34478 0.9967 0.57538 0.0
H7039 H 0.33879 0.05087 0.59579 0.0
H7040 H 0.34735 0.03366 0.59324 0.0
H7041 H 0.3443 0.01995 0.56213 0.0
H7042 H 0.3513 0.96832 0.55358 0.0
H7043 H 0.35594 0.98546 0.56075 0.0
C7044 C 0.95933 0.33623 0.58399 0.0
C7045 C 0.95645 0.32816 0.59091 0.0
C7046 C 0.96973 0.33982 0.58375 0.0
C7047 C 0.99602 0.32928 0.58991 0.0
H7048 H 0.00531 0.3561 0.57881 0.0
C7049 C 0.03863 0.33487 0.57693 0.0
C7050 C 0.03933 0.33801 0.56636 0.0
C7051 C 0.02925 0.33616 0.5825 0.0
C7052 C 0.00283 0.34861 0.58201 0.0
H7053 H 0.96168 0.31826 0.60372 0.0
H7054 H 0.97961 0.32493 0.60376 0.0
H7055 H 0.98703 0.35393 0.58438 0.0
H7056 H 0.03104 0.34583 0.55366 0.0
H7057 H 0.01473 0.34807 0.56337 0.0
H7058 H 0.01169 0.32387 0.5873 0.0
C7059 C 0.97408 0.32818 0.59817 0.0
C7060 C 0.99235 0.34734 0.58514 0.0
C7061 C 0.96379 0.32442 0.59823 0.0
C7062 C 0.03073 0.34321 0.56175 0.0
C7063 C 0.0214 0.34459 0.56735 0.0
C7064 C 0.00647 0.33059 0.5869 0.0
C7065 C 0.97734 0.33551 0.59056 0.0
C7066 C 0.98874 0.33755 0.58884 0.0
C7067 C 0.02043 0.34073 0.57765 0.0
C7068 C 0.00992 0.34016 0.58263 0.0
H7069 H 0.95378 0.33916 0.57824 0.0
H7070 H 0.97192 0.34542 0.57773 0.0
H7071 H 0.99356 0.32156 0.59249 0.0
H7072 H 0.04513 0.33088 0.58073 0.0
H7073 H 0.02874 0.33319 0.59047 0.0
C7074 C 0.96494 0.66465 0.57468 0.0
C7075 C 0.9648 0.6648 0.56363 0.0
C7076 C 0.97437 0.66302 0.58012 0.0
C7077 C 0.00283 0.65606 0.57621 0.0
H7078 H 0.00716 0.677 0.5979 0.0
C7079 C 0.0446 0.66777 0.5897 0.0
C7080 C 0.04615 0.67872 0.58999 0.0
C7081 C 0.03442 0.66359 0.5892 0.0
C7082 C 0.00609 0.67107 0.59189 0.0
H7083 H 0.97437 0.66257 0.54966 0.0
H7084 H 0.99067 0.66008 0.55902 0.0
H7085 H 0.98951 0.67357 0.59155 0.0
H7086 H 0.03814 0.69381 0.5904 0.0
H7087 H 0.02065 0.6866 0.58931 0.0
H7088 H 0.01953 0.65428 0.5759 0.0
C7089 C 0.98355 0.66105 0.56358 0.0
C7090 C 0.99591 0.66898 0.58834 0.0
C7091 C 0.97416 0.66261 0.55817 0.0
C7092 C 0.0373 0.68534 0.59015 0.0
C7093 C 0.0272 0.68118 0.58965 0.0
C7094 C 0.01302 0.65826 0.57967 0.0
C7095 C 0.98386 0.66153 0.57462 0.0
C7096 C 0.9942 0.66181 0.5801 0.0
C7097 C 0.0256 0.67027 0.58902 0.0
C7098 C 0.0148 0.66615 0.58719 0.0
H7099 H 0.95785 0.66618 0.57915 0.0
H7100 H 0.97429 0.66326 0.58863 0.0
H7101 H 0.00177 0.65028 0.57006 0.0
H7102 H 0.05124 0.66244 0.58962 0.0
H7103 H 0.03346 0.65514 0.5888 0.0
loop_
_geom_bond_atom_site_label_1
_geom_bond_atom_site_label_2
_geom_bond_distance
_geom_bond_site_symmetry_2
_ccdc_geom_bond_type
Co0 O1 2.216 . S
Co0 O2 2.091 . S
Co0 O4 2.004 . S
Co0 O10 2.021 . S
Co0 O12 2.137 . S
Co0 O13 2.244 . S
O1 Co0 2.216 . S
O1 C8 1.247 . S
O2 Co0 2.091 . S
O2 C8 1.261 . S
C3 O12 1.247 . S
C3 O13 1.272 . S
O4 Co0 2.004 . S
O4 C9 1.259 . S
Co5 O6 2.061 . S
Co5 O11 2.052 . S
Co5 O13 2.135 . S
O6 Co5 2.061 . S
O6 C9 1.235 . S
C7 O10 1.238 . S
C7 O11 1.241 . S
C8 O1 1.247 . S
C8 O2 1.261 . S
C9 O4 1.259 . S
C9 O6 1.235 . S
O10 Co0 2.021 . S
O10 C7 1.238 . S
O11 Co5 2.052 . S
O11 C7 1.241 . S
O12 Co0 2.137 . S
O12 C3 1.247 . S
O13 Co0 2.244 . S
O13 C3 1.272 . S
O13 Co5 2.135 . S
Co14 O15 2.216 . S
Co14 O16 2.091 . S
Co14 O18 2.004 . S
Co14 O24 2.021 . S
Co14 O26 2.137 . S
Co14 O27 2.244 . S
O15 Co14 2.216 . S
O15 C22 1.247 . S
O16 Co14 2.091 . S
O16 C22 1.261 . S
C17 O26 1.247 . S
C17 O27 1.272 . S
O18 Co14 2.004 . S
O18 C23 1.259 . S
Co19 O20 2.061 . S
Co19 O25 2.052 . S
Co19 O27 2.135 . S
O20 Co19 2.061 . S
O20 C23 1.235 . S
C21 O24 1.238 . S
C21 O25 1.241 . S
C22 O15 1.247 . S
C22 O16 1.261 . S
C23 O18 1.259 . S
C23 O20 1.235 . S
O24 Co14 2.021 . S
O24 C21 1.238 . S
O25 Co19 2.052 . S
O25 C21 1.241 . S
O26 Co14 2.137 . S
O26 C17 1.247 . S
O27 Co14 2.244 . S
O27 C17 1.272 . S
O27 Co19 2.135 . S
Co28 O29 2.216 . S
Co28 O30 2.091 . S
Co28 O32 2.004 . S
Co28 O38 2.021 . S
Co28 O40 2.137 . S
Co28 O41 2.244 . S
O29 Co28 2.216 . S
O29 C36 1.247 . S
O30 Co28 2.091 . S
O30 C36 1.261 . S
C31 O40 1.247 . S
C31 O41 1.272 . S
O32 Co28 2.004 . S
O32 C37 1.259 . S
Co33 O34 2.061 . S
Co33 O39 2.052 . S
Co33 O41 2.135 . S
O34 Co33 2.061 . S
O34 C37 1.235 . S
C35 O38 1.238 . S
C35 O39 1.241 . S
C36 O29 1.247 . S
C36 O30 1.261 . S
C37 O32 1.259 . S
C37 O34 1.235 . S
O38 Co28 2.021 . S
O38 C35 1.238 . S
O39 Co33 2.052 . S
O39 C35 1.241 . S
O40 Co28 2.137 . S
O40 C31 1.247 . S
O41 Co28 2.244 . S
O41 C31 1.272 . S
O41 Co33 2.135 . S
Co42 O43 2.216 . S
Co42 O44 2.091 . S
Co42 O46 2.004 . S
Co42 O52 2.021 . S
Co42 O54 2.137 . S
Co42 O55 2.244 . S
O43 Co42 2.216 . S
O43 C50 1.247 . S
O44 Co42 2.091 . S
O44 C50 1.261 . S
C45 O54 1.247 . S
C45 O55 1.272 . S
O46 Co42 2.004 . S
O46 C51 1.259 . S
Co47 O48 2.061 . S
Co47 O53 2.052 . S
Co47 O55 2.135 . S
O48 Co47 2.061 . S
O48 C51 1.235 . S
C49 O52 1.238 . S
C49 O53 1.241 . S
C50 O43 1.247 . S
C50 O44 1.261 . S
C51 O46 1.259 . S
C51 O48 1.235 . S
O52 Co42 2.021 . S
O52 C49 1.238 . S
O53 Co47 2.052 . S
O53 C49 1.241 . S
O54 Co42 2.137 . S
O54 C45 1.247 . S
O55 Co42 2.244 . S
O55 C45 1.272 . S
O55 Co47 2.135 . S
Co56 O57 2.216 . S
Co56 O58 2.091 . S
Co56 O60 2.004 . S
Co56 O66 2.021 . S
Co56 O68 2.137 . S
Co56 O69 2.244 . S
O57 Co56 2.216 . S
O57 C64 1.247 . S
O58 Co56 2.091 . S
O58 C64 1.261 . S
C59 O68 1.247 . S
C59 O69 1.272 . S
O60 Co56 2.004 . S
O60 C65 1.259 . S
Co61 O62 2.061 . S
Co61 O67 2.052 . S
Co61 O69 2.135 . S
O62 Co61 2.061 . S
O62 C65 1.235 . S
C63 O66 1.238 . S
C63 O67 1.241 . S
C64 O57 1.247 . S
C64 O58 1.261 . S
C65 O60 1.259 . S
C65 O62 1.235 . S
O66 Co56 2.021 . S
O66 C63 1.238 . S
O67 Co61 2.052 . S
O67 C63 1.241 . S
O68 Co56 2.137 . S
O68 C59 1.247 . S
O69 Co56 2.244 . S
O69 C59 1.272 . S
O69 Co61 2.135 . S
Co70 O71 2.216 . S
Co70 O72 2.091 . S
Co70 O74 2.004 . S
Co70 O80 2.021 . S
Co70 O82 2.137 . S
Co70 O83 2.244 . S
O71 Co70 2.216 . S
O71 C78 1.247 . S
O72 Co70 2.091 . S
O72 C78 1.261 . S
C73 O82 1.247 . S
C73 O83 1.272 . S
O74 Co70 2.004 . S
O74 C79 1.259 . S
Co75 O76 2.061 . S
Co75 O81 2.052 . S
Co75 O83 2.135 . S
O76 Co75 2.061 . S
O76 C79 1.235 . S
C77 O80 1.238 . S
C77 O81 1.241 . S
C78 O71 1.247 . S
C78 O72 1.261 . S
C79 O74 1.259 . S
C79 O76 1.235 . S
O80 Co70 2.021 . S
O80 C77 1.238 . S
O81 Co75 2.052 . S
O81 C77 1.241 . S
O82 Co70 2.137 . S
O82 C73 1.247 . S
O83 Co70 2.244 . S
O83 C73 1.272 . S
O83 Co75 2.135 . S
Co84 O85 2.216 . S
Co84 O86 2.091 . S
Co84 O88 2.004 . S
Co84 O94 2.021 . S
Co84 O96 2.137 . S
Co84 O97 2.244 . S
O85 Co84 2.216 . S
O85 C92 1.247 . S
O86 Co84 2.091 . S
O86 C92 1.261 . S
C87 O96 1.247 . S
C87 O97 1.272 . S
O88 Co84 2.004 . S
O88 C93 1.259 . S
Co89 O90 2.061 . S
Co89 O95 2.052 . S
Co89 O97 2.135 . S
O90 Co89 2.061 . S
O90 C93 1.235 . S
C91 O94 1.238 . S
C91 O95 1.241 . S
C92 O85 1.247 . S
C92 O86 1.261 . S
C93 O88 1.259 . S
C93 O90 1.235 . S
O94 Co84 2.021 . S
O94 C91 1.238 . S
O95 Co89 2.052 . S
O95 C91 1.241 . S
O96 Co84 2.137 . S
O96 C87 1.247 . S
O97 Co84 2.244 . S
O97 C87 1.272 . S
O97 Co89 2.135 . S
Co98 O99 2.216 . S
Co98 O100 2.091 . S
Co98 O102 2.004 . S
Co98 O108 2.021 . S
Co98 O110 2.137 . S
Co98 O111 2.244 . S
O99 Co98 2.216 . S
O99 C106 1.247 . S
O100 Co98 2.091 . S
O100 C106 1.261 . S
C101 O110 1.247 . S
C101 O111 1.272 . S
O102 Co98 2.004 . S
O102 C107 1.259 . S
Co103 O104 2.061 . S
Co103 O109 2.052 . S
Co103 O111 2.135 . S
O104 Co103 2.061 . S
O104 C107 1.235 . S
C105 O108 1.238 . S
C105 O109 1.241 . S
C106 O99 1.247 . S
C106 O100 1.261 . S
C107 O102 1.259 . S
C107 O104 1.235 . S
O108 Co98 2.021 . S
O108 C105 1.238 . S
O109 Co103 2.052 . S
O109 C105 1.241 . S
O110 Co98 2.137 . S
O110 C101 1.247 . S
O111 Co98 2.244 . S
O111 C101 1.272 . S
O111 Co103 2.135 . S
Co112 O113 2.216 . S
Co112 O114 2.091 . S
Co112 O116 2.004 . S
Co112 O122 2.021 . S
Co112 O124 2.137 . S
Co112 O125 2.244 . S
O113 Co112 2.216 . S
O113 C120 1.247 . S
O114 Co112 2.091 . S
O114 C120 1.261 . S
C115 O124 1.247 . S
C115 O125 1.272 . S
O116 Co112 2.004 . S
O116 C121 1.259 . S
Co117 O118 2.061 . S
Co117 O123 2.052 . S
Co117 O125 2.135 . S
O118 Co117 2.061 . S
O118 C121 1.235 . S
C119 O122 1.238 . S
C119 O123 1.241 . S
C120 O113 1.247 . S
C120 O114 1.261 . S
C121 O116 1.259 . S
C121 O118 1.235 . S
O122 Co112 2.021 . S
O122 C119 1.238 . S
O123 Co117 2.052 . S
O123 C119 1.241 . S
O124 Co112 2.137 . S
O124 C115 1.247 . S
O125 Co112 2.244 . S
O125 C115 1.272 . S
O125 Co117 2.135 . S
Co126 O127 2.216 . S
Co126 O128 2.091 . S
Co126 O130 2.004 . S
Co126 O136 2.021 . S
Co126 O138 2.137 . S
Co126 O139 2.244 . S
O127 Co126 2.216 . S
O127 C134 1.247 . S
O128 Co126 2.091 . S
O128 C134 1.261 . S
C129 O138 1.247 . S
C129 O139 1.272 . S
O130 Co126 2.004 . S
O130 C135 1.259 . S
Co131 O132 2.061 . S
Co131 O137 2.052 . S
Co131 O139 2.135 . S
O132 Co131 2.061 . S
O132 C135 1.235 . S
C133 O136 1.238 . S
C133 O137 1.241 . S
C134 O127 1.247 . S
C134 O128 1.261 . S
C135 O130 1.259 . S
C135 O132 1.235 . S
O136 Co126 2.021 . S
O136 C133 1.238 . S
O137 Co131 2.052 . S
O137 C133 1.241 . S
O138 Co126 2.137 . S
O138 C129 1.247 . S
O139 Co126 2.244 . S
O139 C129 1.272 . S
O139 Co131 2.135 . S
Co140 O141 2.216 . S
Co140 O142 2.091 . S
Co140 O144 2.004 . S
Co140 O150 2.021 . S
Co140 O152 2.137 . S
Co140 O153 2.244 . S
O141 Co140 2.216 . S
O141 C148 1.247 . S
O142 Co140 2.091 . S
O142 C148 1.261 . S
C143 O152 1.247 . S
C143 O153 1.272 . S
O144 Co140 2.004 . S
O144 C149 1.259 . S
Co145 O146 2.061 . S
Co145 O151 2.052 . S
Co145 O153 2.135 . S
O146 Co145 2.061 . S
O146 C149 1.235 . S
C147 O150 1.238 . S
C147 O151 1.241 . S
C148 O141 1.247 . S
C148 O142 1.261 . S
C149 O144 1.259 . S
C149 O146 1.235 . S
O150 Co140 2.021 . S
O150 C147 1.238 . S
O151 Co145 2.052 . S
O151 C147 1.241 . S
O152 Co140 2.137 . S
O152 C143 1.247 . S
O153 Co140 2.244 . S
O153 C143 1.272 . S
O153 Co145 2.135 . S
Co154 O155 2.216 . S
Co154 O156 2.091 . S
Co154 O158 2.004 . S
Co154 O164 2.021 . S
Co154 O166 2.137 . S
Co154 O167 2.244 . S
O155 Co154 2.216 . S
O155 C162 1.247 . S
O156 Co154 2.091 . S
O156 C162 1.261 . S
C157 O166 1.247 . S
C157 O167 1.272 . S
O158 Co154 2.004 . S
O158 C163 1.259 . S
Co159 O160 2.061 . S
Co159 O165 2.052 . S
Co159 O167 2.135 . S
O160 Co159 2.061 . S
O160 C163 1.235 . S
C161 O164 1.238 . S
C161 O165 1.241 . S
C162 O155 1.247 . S
C162 O156 1.261 . S
C163 O158 1.259 . S
C163 O160 1.235 . S
O164 Co154 2.021 . S
O164 C161 1.238 . S
O165 Co159 2.052 . S
O165 C161 1.241 . S
O166 Co154 2.137 . S
O166 C157 1.247 . S
O167 Co154 2.244 . S
O167 C157 1.272 . S
O167 Co159 2.135 . S
Co168 O169 2.216 . S
Co168 O170 2.091 . S
Co168 O172 2.004 . S
Co168 O178 2.021 . S
Co168 O180 2.137 . S
Co168 O181 2.244 . S
O169 Co168 2.216 . S
O169 C176 1.247 . S
O170 Co168 2.091 . S
O170 C176 1.261 . S
C171 O180 1.247 . S
C171 O181 1.272 . S
O172 Co168 2.004 . S
O172 C177 1.259 . S
Co173 O174 2.061 . S
Co173 O179 2.052 . S
Co173 O181 2.135 . S
O174 Co173 2.061 . S
O174 C177 1.235 . S
C175 O178 1.238 . S
C175 O179 1.241 . S
C176 O169 1.247 . S
C176 O170 1.261 . S
C177 O172 1.259 . S
C177 O174 1.235 . S
O178 Co168 2.021 . S
O178 C175 1.238 . S
O179 Co173 2.052 . S
O179 C175 1.241 . S
O180 Co168 2.137 . S
O180 C171 1.247 . S
O181 Co168 2.244 . S
O181 C171 1.272 . S
O181 Co173 2.135 . S
Co182 O183 2.216 . S
Co182 O184 2.091 . S
Co182 O186 2.004 . S
Co182 O192 2.021 . S
Co182 O194 2.137 . S
Co182 O195 2.244 . S
O183 Co182 2.216 . S
O183 C190 1.247 . S
O184 Co182 2.091 . S
O184 C190 1.261 . S
C185 O194 1.247 . S
C185 O195 1.272 . S
O186 Co182 2.004 . S
O186 C191 1.259 . S
Co187 O188 2.061 . S
Co187 O193 2.052 . S
Co187 O195 2.135 . S
O188 Co187 2.061 . S
O188 C191 1.235 . S
C189 O192 1.238 . S
C189 O193 1.241 . S
C190 O183 1.247 . S
C190 O184 1.261 . S
C191 O186 1.259 . S
C191 O188 1.235 . S
O192 Co182 2.021 . S
O192 C189 1.238 . S
O193 Co187 2.052 . S
O193 C189 1.241 . S
O194 Co182 2.137 . S
O194 C185 1.247 . S
O195 Co182 2.244 . S
O195 C185 1.272 . S
O195 Co187 2.135 . S
Co196 O197 2.216 . S
Co196 O198 2.091 . S
Co196 O200 2.004 . S
Co196 O206 2.021 . S
Co196 O208 2.137 . S
Co196 O209 2.244 . S
O197 Co196 2.216 . S
O197 C204 1.247 . S
O198 Co196 2.091 . S
O198 C204 1.261 . S
C199 O208 1.247 . S
C199 O209 1.272 . S
O200 Co196 2.004 . S
O200 C205 1.259 . S
Co201 O202 2.061 . S
Co201 O207 2.052 . S
Co201 O209 2.135 . S
O202 Co201 2.061 . S
O202 C205 1.235 . S
C203 O206 1.238 . S
C203 O207 1.241 . S
C204 O197 1.247 . S
C204 O198 1.261 . S
C205 O200 1.259 . S
C205 O202 1.235 . S
O206 Co196 2.021 . S
O206 C203 1.238 . S
O207 Co201 2.052 . S
O207 C203 1.241 . S
O208 Co196 2.137 . S
O208 C199 1.247 . S
O209 Co196 2.244 . S
O209 C199 1.272 . S
O209 Co201 2.135 . S
Co210 O211 2.216 . S
Co210 O212 2.091 . S
Co210 O214 2.004 . S
Co210 O220 2.021 . S
Co210 O222 2.137 . S
Co210 O223 2.244 . S
O211 Co210 2.216 . S
O211 C218 1.247 . S
O212 Co210 2.091 . S
O212 C218 1.261 . S
C213 O222 1.247 . S
C213 O223 1.272 . S
O214 Co210 2.004 . S
O214 C219 1.259 . S
Co215 O216 2.061 . S
Co215 O221 2.052 . S
Co215 O223 2.135 . S
O216 Co215 2.061 . S
O216 C219 1.235 . S
C217 O220 1.238 . S
C217 O221 1.241 . S
C218 O211 1.247 . S
C218 O212 1.261 . S
C219 O214 1.259 . S
C219 O216 1.235 . S
O220 Co210 2.021 . S
O220 C217 1.238 . S
O221 Co215 2.052 . S
O221 C217 1.241 . S
O222 Co210 2.137 . S
O222 C213 1.247 . S
O223 Co210 2.244 . S
O223 C213 1.272 . S
O223 Co215 2.135 . S
Co224 O225 2.216 . S
Co224 O226 2.091 . S
Co224 O228 2.004 . S
Co224 O234 2.021 . S
Co224 O236 2.137 . S
Co224 O237 2.244 . S
O225 Co224 2.216 . S
O225 C232 1.247 . S
O226 Co224 2.091 . S
O226 C232 1.261 . S
C227 O236 1.247 . S
C227 O237 1.272 . S
O228 Co224 2.004 . S
O228 C233 1.259 . S
Co229 O230 2.061 . S
Co229 O235 2.052 . S
Co229 O237 2.135 . S
O230 Co229 2.061 . S
O230 C233 1.235 . S
C231 O234 1.238 . S
C231 O235 1.241 . S
C232 O225 1.247 . S
C232 O226 1.261 . S
C233 O228 1.259 . S
C233 O230 1.235 . S
O234 Co224 2.021 . S
O234 C231 1.238 . S
O235 Co229 2.052 . S
O235 C231 1.241 . S
O236 Co224 2.137 . S
O236 C227 1.247 . S
O237 Co224 2.244 . S
O237 C227 1.272 . S
O237 Co229 2.135 . S
Co238 O239 2.216 . S
Co238 O240 2.091 . S
Co238 O242 2.004 . S
Co238 O248 2.021 . S
Co238 O250 2.137 . S
Co238 O251 2.244 . S
O239 Co238 2.216 . S
O239 C246 1.247 . S
O240 Co238 2.091 . S
O240 C246 1.261 . S
C241 O250 1.247 . S
C241 O251 1.272 . S
O242 Co238 2.004 . S
O242 C247 1.259 . S
Co243 O244 2.061 . S
Co243 O249 2.052 . S
Co243 O251 2.135 . S
O244 Co243 2.061 . S
O244 C247 1.235 . S
C245 O248 1.238 . S
C245 O249 1.241 . S
C246 O239 1.247 . S
C246 O240 1.261 . S
C247 O242 1.259 . S
C247 O244 1.235 . S
O248 Co238 2.021 . S
O248 C245 1.238 . S
O249 Co243 2.052 . S
O249 C245 1.241 . S
O250 Co238 2.137 . S
O250 C241 1.247 . S
O251 Co238 2.244 . S
O251 C241 1.272 . S
O251 Co243 2.135 . S
Co252 O253 2.216 . S
Co252 O254 2.091 . S
Co252 O256 2.004 . S
Co252 O262 2.021 . S
Co252 O264 2.137 . S
Co252 O265 2.244 . S
O253 Co252 2.216 . S
O253 C260 1.247 . S
O254 Co252 2.091 . S
O254 C260 1.261 . S
C255 O264 1.247 . S
C255 O265 1.272 . S
O256 Co252 2.004 . S
O256 C261 1.259 . S
Co257 O258 2.061 . S
Co257 O263 2.052 . S
Co257 O265 2.135 . S
O258 Co257 2.061 . S
O258 C261 1.235 . S
C259 O262 1.238 . S
C259 O263 1.241 . S
C260 O253 1.247 . S
C260 O254 1.261 . S
C261 O256 1.259 . S
C261 O258 1.235 . S
O262 Co252 2.021 . S
O262 C259 1.238 . S
O263 Co257 2.052 . S
O263 C259 1.241 . S
O264 Co252 2.137 . S
O264 C255 1.247 . S
O265 Co252 2.244 . S
O265 C255 1.272 . S
O265 Co257 2.135 . S
Co266 O267 2.216 . S
Co266 O268 2.091 . S
Co266 O270 2.004 . S
Co266 O276 2.021 . S
Co266 O278 2.137 . S
Co266 O279 2.244 . S
O267 Co266 2.216 . S
O267 C274 1.247 . S
O268 Co266 2.091 . S
O268 C274 1.261 . S
C269 O278 1.247 . S
C269 O279 1.272 . S
O270 Co266 2.004 . S
O270 C275 1.259 . S
Co271 O272 2.061 . S
Co271 O277 2.052 . S
Co271 O279 2.135 . S
O272 Co271 2.061 . S
O272 C275 1.235 . S
C273 O276 1.238 . S
C273 O277 1.241 . S
C274 O267 1.247 . S
C274 O268 1.261 . S
C275 O270 1.259 . S
C275 O272 1.235 . S
O276 Co266 2.021 . S
O276 C273 1.238 . S
O277 Co271 2.052 . S
O277 C273 1.241 . S
O278 Co266 2.137 . S
O278 C269 1.247 . S
O279 Co266 2.244 . S
O279 C269 1.272 . S
O279 Co271 2.135 . S
Co280 O281 2.216 . S
Co280 O282 2.091 . S
Co280 O284 2.004 . S
Co280 O290 2.021 . S
Co280 O292 2.137 . S
Co280 O293 2.244 . S
O281 Co280 2.216 . S
O281 C288 1.247 . S
O282 Co280 2.091 . S
O282 C288 1.261 . S
C283 O292 1.247 . S
C283 O293 1.272 . S
O284 Co280 2.004 . S
O284 C289 1.259 . S
Co285 O286 2.061 . S
Co285 O291 2.052 . S
Co285 O293 2.135 . S
O286 Co285 2.061 . S
O286 C289 1.235 . S
C287 O290 1.238 . S
C287 O291 1.241 . S
C288 O281 1.247 . S
C288 O282 1.261 . S
C289 O284 1.259 . S
C289 O286 1.235 . S
O290 Co280 2.021 . S
O290 C287 1.238 . S
O291 Co285 2.052 . S
O291 C287 1.241 . S
O292 Co280 2.137 . S
O292 C283 1.247 . S
O293 Co280 2.244 . S
O293 C283 1.272 . S
O293 Co285 2.135 . S
Co294 O295 2.216 . S
Co294 O296 2.091 . S
Co294 O298 2.004 . S
Co294 O304 2.021 . S
Co294 O306 2.137 . S
Co294 O307 2.244 . S
O295 Co294 2.216 . S
O295 C302 1.247 . S
O296 Co294 2.091 . S
O296 C302 1.261 . S
C297 O306 1.247 . S
C297 O307 1.272 . S
O298 Co294 2.004 . S
O298 C303 1.259 . S
Co299 O300 2.061 . S
Co299 O305 2.052 . S
Co299 O307 2.135 . S
O300 Co299 2.061 . S
O300 C303 1.235 . S
C301 O304 1.238 . S
C301 O305 1.241 . S
C302 O295 1.247 . S
C302 O296 1.261 . S
C303 O298 1.259 . S
C303 O300 1.235 . S
O304 Co294 2.021 . S
O304 C301 1.238 . S
O305 Co299 2.052 . S
O305 C301 1.241 . S
O306 Co294 2.137 . S
O306 C297 1.247 . S
O307 Co294 2.244 . S
O307 C297 1.272 . S
O307 Co299 2.135 . S
Co308 O309 2.216 . S
Co308 O310 2.091 . S
Co308 O312 2.004 . S
Co308 O318 2.021 . S
Co308 O320 2.137 . S
Co308 O321 2.244 . S
O309 Co308 2.216 . S
O309 C316 1.247 . S
O310 Co308 2.091 . S
O310 C316 1.261 . S
C311 O320 1.247 . S
C311 O321 1.272 . S
O312 Co308 2.004 . S
O312 C317 1.259 . S
Co313 O314 2.061 . S
Co313 O319 2.052 . S
Co313 O321 2.135 . S
O314 Co313 2.061 . S
O314 C317 1.235 . S
C315 O318 1.238 . S
C315 O319 1.241 . S
C316 O309 1.247 . S
C316 O310 1.261 . S
C317 O312 1.259 . S
C317 O314 1.235 . S
O318 Co308 2.021 . S
O318 C315 1.238 . S
O319 Co313 2.052 . S
O319 C315 1.241 . S
O320 Co308 2.137 . S
O320 C311 1.247 . S
O321 Co308 2.244 . S
O321 C311 1.272 . S
O321 Co313 2.135 . S
Co322 O323 2.216 . S
Co322 O324 2.091 . S
Co322 O326 2.004 . S
Co322 O332 2.021 . S
Co322 O334 2.137 . S
Co322 O335 2.244 . S
O323 Co322 2.216 . S
O323 C330 1.247 . S
O324 Co322 2.091 . S
O324 C330 1.261 . S
C325 O334 1.247 . S
C325 O335 1.272 . S
O326 Co322 2.004 . S
O326 C331 1.259 . S
Co327 O328 2.061 . S
Co327 O333 2.052 . S
Co327 O335 2.135 . S
O328 Co327 2.061 . S
O328 C331 1.235 . S
C329 O332 1.238 . S
C329 O333 1.241 . S
C330 O323 1.247 . S
C330 O324 1.261 . S
C331 O326 1.259 . S
C331 O328 1.235 . S
O332 Co322 2.021 . S
O332 C329 1.238 . S
O333 Co327 2.052 . S
O333 C329 1.241 . S
O334 Co322 2.137 . S
O334 C325 1.247 . S
O335 Co322 2.244 . S
O335 C325 1.272 . S
O335 Co327 2.135 . S
Co336 O337 2.216 . S
Co336 O338 2.091 . S
Co336 O340 2.004 . S
Co336 O346 2.021 . S
Co336 O348 2.137 . S
Co336 O349 2.244 . S
O337 Co336 2.216 . S
O337 C344 1.247 . S
O338 Co336 2.091 . S
O338 C344 1.261 . S
C339 O348 1.247 . S
C339 O349 1.272 . S
O340 Co336 2.004 . S
O340 C345 1.259 . S
Co341 O342 2.061 . S
Co341 O347 2.052 . S
Co341 O349 2.135 . S
O342 Co341 2.061 . S
O342 C345 1.235 . S
C343 O346 1.238 . S
C343 O347 1.241 . S
C344 O337 1.247 . S
C344 O338 1.261 . S
C345 O340 1.259 . S
C345 O342 1.235 . S
O346 Co336 2.021 . S
O346 C343 1.238 . S
O347 Co341 2.052 . S
O347 C343 1.241 . S
O348 Co336 2.137 . S
O348 C339 1.247 . S
O349 Co336 2.244 . S
O349 C339 1.272 . S
O349 Co341 2.135 . S
Co350 O351 2.216 . S
Co350 O352 2.091 . S
Co350 O354 2.004 . S
Co350 O360 2.021 . S
Co350 O362 2.137 . S
Co350 O363 2.244 . S
O351 Co350 2.216 . S
O351 C358 1.247 . S
O352 Co350 2.091 . S
O352 C358 1.261 . S
C353 O362 1.247 . S
C353 O363 1.272 . S
O354 Co350 2.004 . S
O354 C359 1.259 . S
Co355 O356 2.061 . S
Co355 O361 2.052 . S
Co355 O363 2.135 . S
O356 Co355 2.061 . S
O356 C359 1.235 . S
C357 O360 1.238 . S
C357 O361 1.241 . S
C358 O351 1.247 . S
C358 O352 1.261 . S
C359 O354 1.259 . S
C359 O356 1.235 . S
O360 Co350 2.021 . S
O360 C357 1.238 . S
O361 Co355 2.052 . S
O361 C357 1.241 . S
O362 Co350 2.137 . S
O362 C353 1.247 . S
O363 Co350 2.244 . S
O363 C353 1.272 . S
O363 Co355 2.135 . S
Co364 O365 2.216 . S
Co364 O366 2.091 . S
Co364 O368 2.004 . S
Co364 O374 2.021 . S
Co364 O376 2.137 . S
Co364 O377 2.244 . S
O365 Co364 2.216 . S
O365 C372 1.247 . S
O366 Co364 2.091 . S
O366 C372 1.261 . S
C367 O376 1.247 . S
C367 O377 1.272 . S
O368 Co364 2.004 . S
O368 C373 1.259 . S
Co369 O370 2.061 . S
Co369 O375 2.052 . S
Co369 O377 2.135 . S
O370 Co369 2.061 . S
O370 C373 1.235 . S
C371 O374 1.238 . S
C371 O375 1.241 . S
C372 O365 1.247 . S
C372 O366 1.261 . S
C373 O368 1.259 . S
C373 O370 1.235 . S
O374 Co364 2.021 . S
O374 C371 1.238 . S
O375 Co369 2.052 . S
O375 C371 1.241 . S
O376 Co364 2.137 . S
O376 C367 1.247 . S
O377 Co364 2.244 . S
O377 C367 1.272 . S
O377 Co369 2.135 . S
Co378 O379 2.216 . S
Co378 O380 2.091 . S
Co378 O382 2.004 . S
Co378 O388 2.021 . S
Co378 O390 2.137 . S
Co378 O391 2.244 . S
O379 Co378 2.216 . S
O379 C386 1.247 . S
O380 Co378 2.091 . S
O380 C386 1.261 . S
C381 O390 1.247 . S
C381 O391 1.272 . S
O382 Co378 2.004 . S
O382 C387 1.259 . S
Co383 O384 2.061 . S
Co383 O389 2.052 . S
Co383 O391 2.135 . S
O384 Co383 2.061 . S
O384 C387 1.235 . S
C385 O388 1.238 . S
C385 O389 1.241 . S
C386 O379 1.247 . S
C386 O380 1.261 . S
C387 O382 1.259 . S
C387 O384 1.235 . S
O388 Co378 2.021 . S
O388 C385 1.238 . S
O389 Co383 2.052 . S
O389 C385 1.241 . S
O390 Co378 2.137 . S
O390 C381 1.247 . S
O391 Co378 2.244 . S
O391 C381 1.272 . S
O391 Co383 2.135 . S
Co392 O393 2.216 . S
Co392 O394 2.091 . S
Co392 O396 2.004 . S
Co392 O402 2.021 . S
Co392 O404 2.137 . S
Co392 O405 2.244 . S
O393 Co392 2.216 . S
O393 C400 1.247 . S
O394 Co392 2.091 . S
O394 C400 1.261 . S
C395 O404 1.247 . S
C395 O405 1.272 . S
O396 Co392 2.004 . S
O396 C401 1.259 . S
Co397 O398 2.061 . S
Co397 O403 2.052 . S
Co397 O405 2.135 . S
O398 Co397 2.061 . S
O398 C401 1.235 . S
C399 O402 1.238 . S
C399 O403 1.241 . S
C400 O393 1.247 . S
C400 O394 1.261 . S
C401 O396 1.259 . S
C401 O398 1.235 . S
O402 Co392 2.021 . S
O402 C399 1.238 . S
O403 Co397 2.052 . S
O403 C399 1.241 . S
O404 Co392 2.137 . S
O404 C395 1.247 . S
O405 Co392 2.244 . S
O405 C395 1.272 . S
O405 Co397 2.135 . S
Co406 O407 2.216 . S
Co406 O408 2.091 . S
Co406 O410 2.004 . S
Co406 O416 2.021 . S
Co406 O418 2.137 . S
Co406 O419 2.244 . S
O407 Co406 2.216 . S
O407 C414 1.247 . S
O408 Co406 2.091 . S
O408 C414 1.261 . S
C409 O418 1.247 . S
C409 O419 1.272 . S
O410 Co406 2.004 . S
O410 C415 1.259 . S
Co411 O412 2.061 . S
Co411 O417 2.052 . S
Co411 O419 2.135 . S
O412 Co411 2.061 . S
O412 C415 1.235 . S
C413 O416 1.238 . S
C413 O417 1.241 . S
C414 O407 1.247 . S
C414 O408 1.261 . S
C415 O410 1.259 . S
C415 O412 1.235 . S
O416 Co406 2.021 . S
O416 C413 1.238 . S
O417 Co411 2.052 . S
O417 C413 1.241 . S
O418 Co406 2.137 . S
O418 C409 1.247 . S
O419 Co406 2.244 . S
O419 C409 1.272 . S
O419 Co411 2.135 . S
Co420 O421 2.216 . S
Co420 O422 2.091 . S
Co420 O424 2.004 . S
Co420 O430 2.021 . S
Co420 O432 2.137 . S
Co420 O433 2.244 . S
O421 Co420 2.216 . S
O421 C428 1.247 . S
O422 Co420 2.091 . S
O422 C428 1.261 . S
C423 O432 1.247 . S
C423 O433 1.272 . S
O424 Co420 2.004 . S
O424 C429 1.259 . S
Co425 O426 2.061 . S
Co425 O431 2.052 . S
Co425 O433 2.135 . S
O426 Co425 2.061 . S
O426 C429 1.235 . S
C427 O430 1.238 . S
C427 O431 1.241 . S
C428 O421 1.247 . S
C428 O422 1.261 . S
C429 O424 1.259 . S
C429 O426 1.235 . S
O430 Co420 2.021 . S
O430 C427 1.238 . S
O431 Co425 2.052 . S
O431 C427 1.241 . S
O432 Co420 2.137 . S
O432 C423 1.247 . S
O433 Co420 2.244 . S
O433 C423 1.272 . S
O433 Co425 2.135 . S
Co434 O435 2.216 . S
Co434 O436 2.091 . S
Co434 O438 2.004 . S
Co434 O444 2.021 . S
Co434 O446 2.137 . S
Co434 O447 2.244 . S
O435 Co434 2.216 . S
O435 C442 1.247 . S
O436 Co434 2.091 . S
O436 C442 1.261 . S
C437 O446 1.247 . S
C437 O447 1.272 . S
O438 Co434 2.004 . S
O438 C443 1.259 . S
Co439 O440 2.061 . S
Co439 O445 2.052 . S
Co439 O447 2.135 . S
O440 Co439 2.061 . S
O440 C443 1.235 . S
C441 O444 1.238 . S
C441 O445 1.241 . S
C442 O435 1.247 . S
C442 O436 1.261 . S
C443 O438 1.259 . S
C443 O440 1.235 . S
O444 Co434 2.021 . S
O444 C441 1.238 . S
O445 Co439 2.052 . S
O445 C441 1.241 . S
O446 Co434 2.137 . S
O446 C437 1.247 . S
O447 Co434 2.244 . S
O447 C437 1.272 . S
O447 Co439 2.135 . S
Co448 O449 2.216 . S
Co448 O450 2.091 . S
Co448 O452 2.004 . S
Co448 O458 2.021 . S
Co448 O460 2.137 . S
Co448 O461 2.244 . S
O449 Co448 2.216 . S
O449 C456 1.247 . S
O450 Co448 2.091 . S
O450 C456 1.261 . S
C451 O460 1.247 . S
C451 O461 1.272 . S
O452 Co448 2.004 . S
O452 C457 1.259 . S
Co453 O454 2.061 . S
Co453 O459 2.052 . S
Co453 O461 2.135 . S
O454 Co453 2.061 . S
O454 C457 1.235 . S
C455 O458 1.238 . S
C455 O459 1.241 . S
C456 O449 1.247 . S
C456 O450 1.261 . S
C457 O452 1.259 . S
C457 O454 1.235 . S
O458 Co448 2.021 . S
O458 C455 1.238 . S
O459 Co453 2.052 . S
O459 C455 1.241 . S
O460 Co448 2.137 . S
O460 C451 1.247 . S
O461 Co448 2.244 . S
O461 C451 1.272 . S
O461 Co453 2.135 . S
Co462 O463 2.216 . S
Co462 O464 2.091 . S
Co462 O466 2.004 . S
Co462 O472 2.021 . S
Co462 O474 2.137 . S
Co462 O475 2.244 . S
O463 Co462 2.216 . S
O463 C470 1.247 . S
O464 Co462 2.091 . S
O464 C470 1.261 . S
C465 O474 1.247 . S
C465 O475 1.272 . S
O466 Co462 2.004 . S
O466 C471 1.259 . S
Co467 O468 2.061 . S
Co467 O473 2.052 . S
Co467 O475 2.135 . S
O468 Co467 2.061 . S
O468 C471 1.235 . S
C469 O472 1.238 . S
C469 O473 1.241 . S
C470 O463 1.247 . S
C470 O464 1.261 . S
C471 O466 1.259 . S
C471 O468 1.235 . S
O472 Co462 2.021 . S
O472 C469 1.238 . S
O473 Co467 2.052 . S
O473 C469 1.241 . S
O474 Co462 2.137 . S
O474 C465 1.247 . S
O475 Co462 2.244 . S
O475 C465 1.272 . S
O475 Co467 2.135 . S
Co476 O477 2.216 . S
Co476 O478 2.091 . S
Co476 O480 2.004 . S
Co476 O486 2.021 . S
Co476 O488 2.137 . S
Co476 O489 2.244 . S
O477 Co476 2.216 . S
O477 C484 1.247 . S
O478 Co476 2.091 . S
O478 C484 1.261 . S
C479 O488 1.247 . S
C479 O489 1.272 . S
O480 Co476 2.004 . S
O480 C485 1.259 . S
Co481 O482 2.061 . S
Co481 O487 2.052 . S
Co481 O489 2.135 . S
O482 Co481 2.061 . S
O482 C485 1.235 . S
C483 O486 1.238 . S
C483 O487 1.241 . S
C484 O477 1.247 . S
C484 O478 1.261 . S
C485 O480 1.259 . S
C485 O482 1.235 . S
O486 Co476 2.021 . S
O486 C483 1.238 . S
O487 Co481 2.052 . S
O487 C483 1.241 . S
O488 Co476 2.137 . S
O488 C479 1.247 . S
O489 Co476 2.244 . S
O489 C479 1.272 . S
O489 Co481 2.135 . S
Co490 O491 2.216 . S
Co490 O492 2.091 . S
Co490 O494 2.004 . S
Co490 O500 2.021 . S
Co490 O502 2.137 . S
Co490 O503 2.244 . S
O491 Co490 2.216 . S
O491 C498 1.247 . S
O492 Co490 2.091 . S
O492 C498 1.261 . S
C493 O502 1.247 . S
C493 O503 1.272 . S
O494 Co490 2.004 . S
O494 C499 1.259 . S
Co495 O496 2.061 . S
Co495 O501 2.052 . S
Co495 O503 2.135 . S
O496 Co495 2.061 . S
O496 C499 1.235 . S
C497 O500 1.238 . S
C497 O501 1.241 . S
C498 O491 1.247 . S
C498 O492 1.261 . S
C499 O494 1.259 . S
C499 O496 1.235 . S
O500 Co490 2.021 . S
O500 C497 1.238 . S
O501 Co495 2.052 . S
O501 C497 1.241 . S
O502 Co490 2.137 . S
O502 C493 1.247 . S
O503 Co490 2.244 . S
O503 C493 1.272 . S
O503 Co495 2.135 . S
Co504 O505 2.216 . S
Co504 O506 2.091 . S
Co504 O508 2.004 . S
Co504 O514 2.021 . S
Co504 O516 2.137 . S
Co504 O517 2.244 . S
O505 Co504 2.216 . S
O505 C512 1.247 . S
O506 Co504 2.091 . S
O506 C512 1.261 . S
C507 O516 1.247 . S
C507 O517 1.272 . S
O508 Co504 2.004 . S
O508 C513 1.259 . S
Co509 O510 2.061 . S
Co509 O515 2.052 . S
Co509 O517 2.135 . S
O510 Co509 2.061 . S
O510 C513 1.235 . S
C511 O514 1.238 . S
C511 O515 1.241 . S
C512 O505 1.247 . S
C512 O506 1.261 . S
C513 O508 1.259 . S
C513 O510 1.235 . S
O514 Co504 2.021 . S
O514 C511 1.238 . S
O515 Co509 2.052 . S
O515 C511 1.241 . S
O516 Co504 2.137 . S
O516 C507 1.247 . S
O517 Co504 2.244 . S
O517 C507 1.272 . S
O517 Co509 2.135 . S
Co518 O519 2.216 . S
Co518 O520 2.091 . S
Co518 O522 2.004 . S
Co518 O528 2.021 . S
Co518 O530 2.137 . S
Co518 O531 2.244 . S
O519 Co518 2.216 . S
O519 C526 1.247 . S
O520 Co518 2.091 . S
O520 C526 1.261 . S
C521 O530 1.247 . S
C521 O531 1.272 . S
O522 Co518 2.004 . S
O522 C527 1.259 . S
Co523 O524 2.061 . S
Co523 O529 2.052 . S
Co523 O531 2.135 . S
O524 Co523 2.061 . S
O524 C527 1.235 . S
C525 O528 1.238 . S
C525 O529 1.241 . S
C526 O519 1.247 . S
C526 O520 1.261 . S
C527 O522 1.259 . S
C527 O524 1.235 . S
O528 Co518 2.021 . S
O528 C525 1.238 . S
O529 Co523 2.052 . S
O529 C525 1.241 . S
O530 Co518 2.137 . S
O530 C521 1.247 . S
O531 Co518 2.244 . S
O531 C521 1.272 . S
O531 Co523 2.135 . S
Co532 O533 2.216 . S
Co532 O534 2.091 . S
Co532 O536 2.004 . S
Co532 O542 2.021 . S
Co532 O544 2.137 . S
Co532 O545 2.244 . S
O533 Co532 2.216 . S
O533 C540 1.247 . S
O534 Co532 2.091 . S
O534 C540 1.261 . S
C535 O544 1.247 . S
C535 O545 1.272 . S
O536 Co532 2.004 . S
O536 C541 1.259 . S
Co537 O538 2.061 . S
Co537 O543 2.052 . S
Co537 O545 2.135 . S
O538 Co537 2.061 . S
O538 C541 1.235 . S
C539 O542 1.238 . S
C539 O543 1.241 . S
C540 O533 1.247 . S
C540 O534 1.261 . S
C541 O536 1.259 . S
C541 O538 1.235 . S
O542 Co532 2.021 . S
O542 C539 1.238 . S
O543 Co537 2.052 . S
O543 C539 1.241 . S
O544 Co532 2.137 . S
O544 C535 1.247 . S
O545 Co532 2.244 . S
O545 C535 1.272 . S
O545 Co537 2.135 . S
Co546 O547 2.216 . S
Co546 O548 2.091 . S
Co546 O550 2.004 . S
Co546 O556 2.021 . S
Co546 O558 2.137 . S
Co546 O559 2.244 . S
O547 Co546 2.216 . S
O547 C554 1.247 . S
O548 Co546 2.091 . S
O548 C554 1.261 . S
C549 O558 1.247 . S
C549 O559 1.272 . S
O550 Co546 2.004 . S
O550 C555 1.259 . S
Co551 O552 2.061 . S
Co551 O557 2.052 . S
Co551 O559 2.135 . S
O552 Co551 2.061 . S
O552 C555 1.235 . S
C553 O556 1.238 . S
C553 O557 1.241 . S
C554 O547 1.247 . S
C554 O548 1.261 . S
C555 O550 1.259 . S
C555 O552 1.235 . S
O556 Co546 2.021 . S
O556 C553 1.238 . S
O557 Co551 2.052 . S
O557 C553 1.241 . S
O558 Co546 2.137 . S
O558 C549 1.247 . S
O559 Co546 2.244 . S
O559 C549 1.272 . S
O559 Co551 2.135 . S
Co560 O561 2.216 . S
Co560 O562 2.091 . S
Co560 O564 2.004 . S
Co560 O570 2.021 . S
Co560 O572 2.137 . S
Co560 O573 2.244 . S
O561 Co560 2.216 . S
O561 C568 1.247 . S
O562 Co560 2.091 . S
O562 C568 1.261 . S
C563 O572 1.247 . S
C563 O573 1.272 . S
O564 Co560 2.004 . S
O564 C569 1.259 . S
Co565 O566 2.061 . S
Co565 O571 2.052 . S
Co565 O573 2.135 . S
O566 Co565 2.061 . S
O566 C569 1.235 . S
C567 O570 1.238 . S
C567 O571 1.241 . S
C568 O561 1.247 . S
C568 O562 1.261 . S
C569 O564 1.259 . S
C569 O566 1.235 . S
O570 Co560 2.021 . S
O570 C567 1.238 . S
O571 Co565 2.052 . S
O571 C567 1.241 . S
O572 Co560 2.137 . S
O572 C563 1.247 . S
O573 Co560 2.244 . S
O573 C563 1.272 . S
O573 Co565 2.135 . S
Co574 O575 2.216 . S
Co574 O576 2.091 . S
Co574 O578 2.004 . S
Co574 O584 2.021 . S
Co574 O586 2.137 . S
Co574 O587 2.244 . S
O575 Co574 2.216 . S
O575 C582 1.247 . S
O576 Co574 2.091 . S
O576 C582 1.261 . S
C577 O586 1.247 . S
C577 O587 1.272 . S
O578 Co574 2.004 . S
O578 C583 1.259 . S
Co579 O580 2.061 . S
Co579 O585 2.052 . S
Co579 O587 2.135 . S
O580 Co579 2.061 . S
O580 C583 1.235 . S
C581 O584 1.238 . S
C581 O585 1.241 . S
C582 O575 1.247 . S
C582 O576 1.261 . S
C583 O578 1.259 . S
C583 O580 1.235 . S
O584 Co574 2.021 . S
O584 C581 1.238 . S
O585 Co579 2.052 . S
O585 C581 1.241 . S
O586 Co574 2.137 . S
O586 C577 1.247 . S
O587 Co574 2.244 . S
O587 C577 1.272 . S
O587 Co579 2.135 . S
Co588 O589 2.216 . S
Co588 O590 2.091 . S
Co588 O592 2.004 . S
Co588 O598 2.021 . S
Co588 O600 2.137 . S
Co588 O601 2.244 . S
O589 Co588 2.216 . S
O589 C596 1.247 . S
O590 Co588 2.091 . S
O590 C596 1.261 . S
C591 O600 1.247 . S
C591 O601 1.272 . S
O592 Co588 2.004 . S
O592 C597 1.259 . S
Co593 O594 2.061 . S
Co593 O599 2.052 . S
Co593 O601 2.135 . S
O594 Co593 2.061 . S
O594 C597 1.235 . S
C595 O598 1.238 . S
C595 O599 1.241 . S
C596 O589 1.247 . S
C596 O590 1.261 . S
C597 O592 1.259 . S
C597 O594 1.235 . S
O598 Co588 2.021 . S
O598 C595 1.238 . S
O599 Co593 2.052 . S
O599 C595 1.241 . S
O600 Co588 2.137 . S
O600 C591 1.247 . S
O601 Co588 2.244 . S
O601 C591 1.272 . S
O601 Co593 2.135 . S
Co602 O603 2.216 . S
Co602 O604 2.091 . S
Co602 O606 2.004 . S
Co602 O612 2.021 . S
Co602 O614 2.137 . S
Co602 O615 2.244 . S
O603 Co602 2.216 . S
O603 C610 1.247 . S
O604 Co602 2.091 . S
O604 C610 1.261 . S
C605 O614 1.247 . S
C605 O615 1.272 . S
O606 Co602 2.004 . S
O606 C611 1.259 . S
Co607 O608 2.061 . S
Co607 O613 2.052 . S
Co607 O615 2.135 . S
O608 Co607 2.061 . S
O608 C611 1.235 . S
C609 O612 1.238 . S
C609 O613 1.241 . S
C610 O603 1.247 . S
C610 O604 1.261 . S
C611 O606 1.259 . S
C611 O608 1.235 . S
O612 Co602 2.021 . S
O612 C609 1.238 . S
O613 Co607 2.052 . S
O613 C609 1.241 . S
O614 Co602 2.137 . S
O614 C605 1.247 . S
O615 Co602 2.244 . S
O615 C605 1.272 . S
O615 Co607 2.135 . S
Co616 O617 2.216 . S
Co616 O618 2.091 . S
Co616 O620 2.004 . S
Co616 O626 2.021 . S
Co616 O628 2.137 . S
Co616 O629 2.244 . S
O617 Co616 2.216 . S
O617 C624 1.247 . S
O618 Co616 2.091 . S
O618 C624 1.261 . S
C619 O628 1.247 . S
C619 O629 1.272 . S
O620 Co616 2.004 . S
O620 C625 1.259 . S
Co621 O622 2.061 . S
Co621 O627 2.052 . S
Co621 O629 2.135 . S
O622 Co621 2.061 . S
O622 C625 1.235 . S
C623 O626 1.238 . S
C623 O627 1.241 . S
C624 O617 1.247 . S
C624 O618 1.261 . S
C625 O620 1.259 . S
C625 O622 1.235 . S
O626 Co616 2.021 . S
O626 C623 1.238 . S
O627 Co621 2.052 . S
O627 C623 1.241 . S
O628 Co616 2.137 . S
O628 C619 1.247 . S
O629 Co616 2.244 . S
O629 C619 1.272 . S
O629 Co621 2.135 . S
Co630 O631 2.216 . S
Co630 O632 2.091 . S
Co630 O634 2.004 . S
Co630 O640 2.021 . S
Co630 O642 2.137 . S
Co630 O643 2.244 . S
O631 Co630 2.216 . S
O631 C638 1.247 . S
O632 Co630 2.091 . S
O632 C638 1.261 . S
C633 O642 1.247 . S
C633 O643 1.272 . S
O634 Co630 2.004 . S
O634 C639 1.259 . S
Co635 O636 2.061 . S
Co635 O641 2.052 . S
Co635 O643 2.135 . S
O636 Co635 2.061 . S
O636 C639 1.235 . S
C637 O640 1.238 . S
C637 O641 1.241 . S
C638 O631 1.247 . S
C638 O632 1.261 . S
C639 O634 1.259 . S
C639 O636 1.235 . S
O640 Co630 2.021 . S
O640 C637 1.238 . S
O641 Co635 2.052 . S
O641 C637 1.241 . S
O642 Co630 2.137 . S
O642 C633 1.247 . S
O643 Co630 2.244 . S
O643 C633 1.272 . S
O643 Co635 2.135 . S
Co644 O645 2.216 . S
Co644 O646 2.091 . S
Co644 O648 2.004 . S
Co644 O654 2.021 . S
Co644 O656 2.137 . S
Co644 O657 2.244 . S
O645 Co644 2.216 . S
O645 C652 1.247 . S
O646 Co644 2.091 . S
O646 C652 1.261 . S
C647 O656 1.247 . S
C647 O657 1.272 . S
O648 Co644 2.004 . S
O648 C653 1.259 . S
Co649 O650 2.061 . S
Co649 O655 2.052 . S
Co649 O657 2.135 . S
O650 Co649 2.061 . S
O650 C653 1.235 . S
C651 O654 1.238 . S
C651 O655 1.241 . S
C652 O645 1.247 . S
C652 O646 1.261 . S
C653 O648 1.259 . S
C653 O650 1.235 . S
O654 Co644 2.021 . S
O654 C651 1.238 . S
O655 Co649 2.052 . S
O655 C651 1.241 . S
O656 Co644 2.137 . S
O656 C647 1.247 . S
O657 Co644 2.244 . S
O657 C647 1.272 . S
O657 Co649 2.135 . S
Co658 O659 2.216 . S
Co658 O660 2.091 . S
Co658 O662 2.004 . S
Co658 O668 2.021 . S
Co658 O670 2.137 . S
Co658 O671 2.244 . S
O659 Co658 2.216 . S
O659 C666 1.247 . S
O660 Co658 2.091 . S
O660 C666 1.261 . S
C661 O670 1.247 . S
C661 O671 1.272 . S
O662 Co658 2.004 . S
O662 C667 1.259 . S
Co663 O664 2.061 . S
Co663 O669 2.052 . S
Co663 O671 2.135 . S
O664 Co663 2.061 . S
O664 C667 1.235 . S
C665 O668 1.238 . S
C665 O669 1.241 . S
C666 O659 1.247 . S
C666 O660 1.261 . S
C667 O662 1.259 . S
C667 O664 1.235 . S
O668 Co658 2.021 . S
O668 C665 1.238 . S
O669 Co663 2.052 . S
O669 C665 1.241 . S
O670 Co658 2.137 . S
O670 C661 1.247 . S
O671 Co658 2.244 . S
O671 C661 1.272 . S
O671 Co663 2.135 . S
Co672 O673 2.216 . S
Co672 O674 2.091 . S
Co672 O676 2.004 . S
Co672 O682 2.021 . S
Co672 O684 2.137 . S
Co672 O685 2.244 . S
O673 Co672 2.216 . S
O673 C680 1.247 . S
O674 Co672 2.091 . S
O674 C680 1.261 . S
C675 O684 1.247 . S
C675 O685 1.272 . S
O676 Co672 2.004 . S
O676 C681 1.259 . S
Co677 O678 2.061 . S
Co677 O683 2.052 . S
Co677 O685 2.135 . S
O678 Co677 2.061 . S
O678 C681 1.235 . S
C679 O682 1.238 . S
C679 O683 1.241 . S
C680 O673 1.247 . S
C680 O674 1.261 . S
C681 O676 1.259 . S
C681 O678 1.235 . S
O682 Co672 2.021 . S
O682 C679 1.238 . S
O683 Co677 2.052 . S
O683 C679 1.241 . S
O684 Co672 2.137 . S
O684 C675 1.247 . S
O685 Co672 2.244 . S
O685 C675 1.272 . S
O685 Co677 2.135 . S
Co686 O687 2.216 . S
Co686 O688 2.091 . S
Co686 O690 2.004 . S
Co686 O696 2.021 . S
Co686 O698 2.137 . S
Co686 O699 2.244 . S
O687 Co686 2.216 . S
O687 C694 1.247 . S
O688 Co686 2.091 . S
O688 C694 1.261 . S
C689 O698 1.247 . S
C689 O699 1.272 . S
O690 Co686 2.004 . S
O690 C695 1.259 . S
Co691 O692 2.061 . S
Co691 O697 2.052 . S
Co691 O699 2.135 . S
O692 Co691 2.061 . S
O692 C695 1.235 . S
C693 O696 1.238 . S
C693 O697 1.241 . S
C694 O687 1.247 . S
C694 O688 1.261 . S
C695 O690 1.259 . S
C695 O692 1.235 . S
O696 Co686 2.021 . S
O696 C693 1.238 . S
O697 Co691 2.052 . S
O697 C693 1.241 . S
O698 Co686 2.137 . S
O698 C689 1.247 . S
O699 Co686 2.244 . S
O699 C689 1.272 . S
O699 Co691 2.135 . S
Co700 O701 2.216 . S
Co700 O702 2.091 . S
Co700 O704 2.004 . S
Co700 O710 2.021 . S
Co700 O712 2.137 . S
Co700 O713 2.244 . S
O701 Co700 2.216 . S
O701 C708 1.247 . S
O702 Co700 2.091 . S
O702 C708 1.261 . S
C703 O712 1.247 . S
C703 O713 1.272 . S
O704 Co700 2.004 . S
O704 C709 1.259 . S
Co705 O706 2.061 . S
Co705 O711 2.052 . S
Co705 O713 2.135 . S
O706 Co705 2.061 . S
O706 C709 1.235 . S
C707 O710 1.238 . S
C707 O711 1.241 . S
C708 O701 1.247 . S
C708 O702 1.261 . S
C709 O704 1.259 . S
C709 O706 1.235 . S
O710 Co700 2.021 . S
O710 C707 1.238 . S
O711 Co705 2.052 . S
O711 C707 1.241 . S
O712 Co700 2.137 . S
O712 C703 1.247 . S
O713 Co700 2.244 . S
O713 C703 1.272 . S
O713 Co705 2.135 . S
Co714 O715 2.216 . S
Co714 O716 2.091 . S
Co714 O718 2.004 . S
Co714 O724 2.021 . S
Co714 O726 2.137 . S
Co714 O727 2.244 . S
O715 Co714 2.216 . S
O715 C722 1.247 . S
O716 Co714 2.091 . S
O716 C722 1.261 . S
C717 O726 1.247 . S
C717 O727 1.272 . S
O718 Co714 2.004 . S
O718 C723 1.259 . S
Co719 O720 2.061 . S
Co719 O725 2.052 . S
Co719 O727 2.135 . S
O720 Co719 2.061 . S
O720 C723 1.235 . S
C721 O724 1.238 . S
C721 O725 1.241 . S
C722 O715 1.247 . S
C722 O716 1.261 . S
C723 O718 1.259 . S
C723 O720 1.235 . S
O724 Co714 2.021 . S
O724 C721 1.238 . S
O725 Co719 2.052 . S
O725 C721 1.241 . S
O726 Co714 2.137 . S
O726 C717 1.247 . S
O727 Co714 2.244 . S
O727 C717 1.272 . S
O727 Co719 2.135 . S
Co728 O729 2.216 . S
Co728 O730 2.091 . S
Co728 O732 2.004 . S
Co728 O738 2.021 . S
Co728 O740 2.137 . S
Co728 O741 2.244 . S
O729 Co728 2.216 . S
O729 C736 1.247 . S
O730 Co728 2.091 . S
O730 C736 1.261 . S
C731 O740 1.247 . S
C731 O741 1.272 . S
O732 Co728 2.004 . S
O732 C737 1.259 . S
Co733 O734 2.061 . S
Co733 O739 2.052 . S
Co733 O741 2.135 . S
O734 Co733 2.061 . S
O734 C737 1.235 . S
C735 O738 1.238 . S
C735 O739 1.241 . S
C736 O729 1.247 . S
C736 O730 1.261 . S
C737 O732 1.259 . S
C737 O734 1.235 . S
O738 Co728 2.021 . S
O738 C735 1.238 . S
O739 Co733 2.052 . S
O739 C735 1.241 . S
O740 Co728 2.137 . S
O740 C731 1.247 . S
O741 Co728 2.244 . S
O741 C731 1.272 . S
O741 Co733 2.135 . S
Co742 O743 2.216 . S
Co742 O744 2.091 . S
Co742 O746 2.004 . S
Co742 O752 2.021 . S
Co742 O754 2.137 . S
Co742 O755 2.244 . S
O743 Co742 2.216 . S
O743 C750 1.247 . S
O744 Co742 2.091 . S
O744 C750 1.261 . S
C745 O754 1.247 . S
C745 O755 1.272 . S
O746 Co742 2.004 . S
O746 C751 1.259 . S
Co747 O748 2.061 . S
Co747 O753 2.052 . S
Co747 O755 2.135 . S
O748 Co747 2.061 . S
O748 C751 1.235 . S
C749 O752 1.238 . S
C749 O753 1.241 . S
C750 O743 1.247 . S
C750 O744 1.261 . S
C751 O746 1.259 . S
C751 O748 1.235 . S
O752 Co742 2.021 . S
O752 C749 1.238 . S
O753 Co747 2.052 . S
O753 C749 1.241 . S
O754 Co742 2.137 . S
O754 C745 1.247 . S
O755 Co742 2.244 . S
O755 C745 1.272 . S
O755 Co747 2.135 . S
Co756 O757 2.216 . S
Co756 O758 2.091 . S
Co756 O760 2.004 . S
Co756 O766 2.021 . S
Co756 O768 2.137 . S
Co756 O769 2.244 . S
O757 Co756 2.216 . S
O757 C764 1.247 . S
O758 Co756 2.091 . S
O758 C764 1.261 . S
C759 O768 1.247 . S
C759 O769 1.272 . S
O760 Co756 2.004 . S
O760 C765 1.259 . S
Co761 O762 2.061 . S
Co761 O767 2.052 . S
Co761 O769 2.135 . S
O762 Co761 2.061 . S
O762 C765 1.235 . S
C763 O766 1.238 . S
C763 O767 1.241 . S
C764 O757 1.247 . S
C764 O758 1.261 . S
C765 O760 1.259 . S
C765 O762 1.235 . S
O766 Co756 2.021 . S
O766 C763 1.238 . S
O767 Co761 2.052 . S
O767 C763 1.241 . S
O768 Co756 2.137 . S
O768 C759 1.247 . S
O769 Co756 2.244 . S
O769 C759 1.272 . S
O769 Co761 2.135 . S
Co770 O771 2.216 . S
Co770 O772 2.091 . S
Co770 O774 2.004 . S
Co770 O780 2.021 . S
Co770 O782 2.137 . S
Co770 O783 2.244 . S
O771 Co770 2.216 . S
O771 C778 1.247 . S
O772 Co770 2.091 . S
O772 C778 1.261 . S
C773 O782 1.247 . S
C773 O783 1.272 . S
O774 Co770 2.004 . S
O774 C779 1.259 . S
Co775 O776 2.061 . S
Co775 O781 2.052 . S
Co775 O783 2.135 . S
O776 Co775 2.061 . S
O776 C779 1.235 . S
C777 O780 1.238 . S
C777 O781 1.241 . S
C778 O771 1.247 . S
C778 O772 1.261 . S
C779 O774 1.259 . S
C779 O776 1.235 . S
O780 Co770 2.021 . S
O780 C777 1.238 . S
O781 Co775 2.052 . S
O781 C777 1.241 . S
O782 Co770 2.137 . S
O782 C773 1.247 . S
O783 Co770 2.244 . S
O783 C773 1.272 . S
O783 Co775 2.135 . S
Co784 O785 2.216 . S
Co784 O786 2.091 . S
Co784 O788 2.004 . S
Co784 O794 2.021 . S
Co784 O796 2.137 . S
Co784 O797 2.244 . S
O785 Co784 2.216 . S
O785 C792 1.247 . S
O786 Co784 2.091 . S
O786 C792 1.261 . S
C787 O796 1.247 . S
C787 O797 1.272 . S
O788 Co784 2.004 . S
O788 C793 1.259 . S
Co789 O790 2.061 . S
Co789 O795 2.052 . S
Co789 O797 2.135 . S
O790 Co789 2.061 . S
O790 C793 1.235 . S
C791 O794 1.238 . S
C791 O795 1.241 . S
C792 O785 1.247 . S
C792 O786 1.261 . S
C793 O788 1.259 . S
C793 O790 1.235 . S
O794 Co784 2.021 . S
O794 C791 1.238 . S
O795 Co789 2.052 . S
O795 C791 1.241 . S
O796 Co784 2.137 . S
O796 C787 1.247 . S
O797 Co784 2.244 . S
O797 C787 1.272 . S
O797 Co789 2.135 . S
Co798 O799 2.216 . S
Co798 O800 2.091 . S
Co798 O802 2.004 . S
Co798 O808 2.021 . S
Co798 O810 2.137 . S
Co798 O811 2.244 . S
O799 Co798 2.216 . S
O799 C806 1.247 . S
O800 Co798 2.091 . S
O800 C806 1.261 . S
C801 O810 1.247 . S
C801 O811 1.272 . S
O802 Co798 2.004 . S
O802 C807 1.259 . S
Co803 O804 2.061 . S
Co803 O809 2.052 . S
Co803 O811 2.135 . S
O804 Co803 2.061 . S
O804 C807 1.235 . S
C805 O808 1.238 . S
C805 O809 1.241 . S
C806 O799 1.247 . S
C806 O800 1.261 . S
C807 O802 1.259 . S
C807 O804 1.235 . S
O808 Co798 2.021 . S
O808 C805 1.238 . S
O809 Co803 2.052 . S
O809 C805 1.241 . S
O810 Co798 2.137 . S
O810 C801 1.247 . S
O811 Co798 2.244 . S
O811 C801 1.272 . S
O811 Co803 2.135 . S
Co812 O813 2.216 . S
Co812 O814 2.091 . S
Co812 O816 2.004 . S
Co812 O822 2.021 . S
Co812 O824 2.137 . S
Co812 O825 2.244 . S
O813 Co812 2.216 . S
O813 C820 1.247 . S
O814 Co812 2.091 . S
O814 C820 1.261 . S
C815 O824 1.247 . S
C815 O825 1.272 . S
O816 Co812 2.004 . S
O816 C821 1.259 . S
Co817 O818 2.061 . S
Co817 O823 2.052 . S
Co817 O825 2.135 . S
O818 Co817 2.061 . S
O818 C821 1.235 . S
C819 O822 1.238 . S
C819 O823 1.241 . S
C820 O813 1.247 . S
C820 O814 1.261 . S
C821 O816 1.259 . S
C821 O818 1.235 . S
O822 Co812 2.021 . S
O822 C819 1.238 . S
O823 Co817 2.052 . S
O823 C819 1.241 . S
O824 Co812 2.137 . S
O824 C815 1.247 . S
O825 Co812 2.244 . S
O825 C815 1.272 . S
O825 Co817 2.135 . S
Co826 O827 2.216 . S
Co826 O828 2.091 . S
Co826 O830 2.004 . S
Co826 O836 2.021 . S
Co826 O838 2.137 . S
Co826 O839 2.244 . S
O827 Co826 2.216 . S
O827 C834 1.247 . S
O828 Co826 2.091 . S
O828 C834 1.261 . S
C829 O838 1.247 . S
C829 O839 1.272 . S
O830 Co826 2.004 . S
O830 C835 1.259 . S
Co831 O832 2.061 . S
Co831 O837 2.052 . S
Co831 O839 2.135 . S
O832 Co831 2.061 . S
O832 C835 1.235 . S
C833 O836 1.238 . S
C833 O837 1.241 . S
C834 O827 1.247 . S
C834 O828 1.261 . S
C835 O830 1.259 . S
C835 O832 1.235 . S
O836 Co826 2.021 . S
O836 C833 1.238 . S
O837 Co831 2.052 . S
O837 C833 1.241 . S
O838 Co826 2.137 . S
O838 C829 1.247 . S
O839 Co826 2.244 . S
O839 C829 1.272 . S
O839 Co831 2.135 . S
Co840 O841 2.216 . S
Co840 O842 2.091 . S
Co840 O844 2.004 . S
Co840 O850 2.021 . S
Co840 O852 2.137 . S
Co840 O853 2.244 . S
O841 Co840 2.216 . S
O841 C848 1.247 . S
O842 Co840 2.091 . S
O842 C848 1.261 . S
C843 O852 1.247 . S
C843 O853 1.272 . S
O844 Co840 2.004 . S
O844 C849 1.259 . S
Co845 O846 2.061 . S
Co845 O851 2.052 . S
Co845 O853 2.135 . S
O846 Co845 2.061 . S
O846 C849 1.235 . S
C847 O850 1.238 . S
C847 O851 1.241 . S
C848 O841 1.247 . S
C848 O842 1.261 . S
C849 O844 1.259 . S
C849 O846 1.235 . S
O850 Co840 2.021 . S
O850 C847 1.238 . S
O851 Co845 2.052 . S
O851 C847 1.241 . S
O852 Co840 2.137 . S
O852 C843 1.247 . S
O853 Co840 2.244 . S
O853 C843 1.272 . S
O853 Co845 2.135 . S
Co854 O855 2.216 . S
Co854 O856 2.091 . S
Co854 O858 2.004 . S
Co854 O864 2.021 . S
Co854 O866 2.137 . S
Co854 O867 2.244 . S
O855 Co854 2.216 . S
O855 C862 1.247 . S
O856 Co854 2.091 . S
O856 C862 1.261 . S
C857 O866 1.247 . S
C857 O867 1.272 . S
O858 Co854 2.004 . S
O858 C863 1.259 . S
Co859 O860 2.061 . S
Co859 O865 2.052 . S
Co859 O867 2.135 . S
O860 Co859 2.061 . S
O860 C863 1.235 . S
C861 O864 1.238 . S
C861 O865 1.241 . S
C862 O855 1.247 . S
C862 O856 1.261 . S
C863 O858 1.259 . S
C863 O860 1.235 . S
O864 Co854 2.021 . S
O864 C861 1.238 . S
O865 Co859 2.052 . S
O865 C861 1.241 . S
O866 Co854 2.137 . S
O866 C857 1.247 . S
O867 Co854 2.244 . S
O867 C857 1.272 . S
O867 Co859 2.135 . S
Co868 O869 2.216 . S
Co868 O870 2.091 . S
Co868 O872 2.004 . S
Co868 O878 2.021 . S
Co868 O880 2.137 . S
Co868 O881 2.244 . S
O869 Co868 2.216 . S
O869 C876 1.247 . S
O870 Co868 2.091 . S
O870 C876 1.261 . S
C871 O880 1.247 . S
C871 O881 1.272 . S
O872 Co868 2.004 . S
O872 C877 1.259 . S
Co873 O874 2.061 . S
Co873 O879 2.052 . S
Co873 O881 2.135 . S
O874 Co873 2.061 . S
O874 C877 1.235 . S
C875 O878 1.238 . S
C875 O879 1.241 . S
C876 O869 1.247 . S
C876 O870 1.261 . S
C877 O872 1.259 . S
C877 O874 1.235 . S
O878 Co868 2.021 . S
O878 C875 1.238 . S
O879 Co873 2.052 . S
O879 C875 1.241 . S
O880 Co868 2.137 . S
O880 C871 1.247 . S
O881 Co868 2.244 . S
O881 C871 1.272 . S
O881 Co873 2.135 . S
Co882 O883 2.216 . S
Co882 O884 2.091 . S
Co882 O886 2.004 . S
Co882 O892 2.021 . S
Co882 O894 2.137 . S
Co882 O895 2.244 . S
O883 Co882 2.216 . S
O883 C890 1.247 . S
O884 Co882 2.091 . S
O884 C890 1.261 . S
C885 O894 1.247 . S
C885 O895 1.272 . S
O886 Co882 2.004 . S
O886 C891 1.259 . S
Co887 O888 2.061 . S
Co887 O893 2.052 . S
Co887 O895 2.135 . S
O888 Co887 2.061 . S
O888 C891 1.235 . S
C889 O892 1.238 . S
C889 O893 1.241 . S
C890 O883 1.247 . S
C890 O884 1.261 . S
C891 O886 1.259 . S
C891 O888 1.235 . S
O892 Co882 2.021 . S
O892 C889 1.238 . S
O893 Co887 2.052 . S
O893 C889 1.241 . S
O894 Co882 2.137 . S
O894 C885 1.247 . S
O895 Co882 2.244 . S
O895 C885 1.272 . S
O895 Co887 2.135 . S
Co896 O897 2.216 . S
Co896 O898 2.091 . S
Co896 O900 2.004 . S
Co896 O906 2.021 . S
Co896 O908 2.137 . S
Co896 O909 2.244 . S
O897 Co896 2.216 . S
O897 C904 1.247 . S
O898 Co896 2.091 . S
O898 C904 1.261 . S
C899 O908 1.247 . S
C899 O909 1.272 . S
O900 Co896 2.004 . S
O900 C905 1.259 . S
Co901 O902 2.061 . S
Co901 O907 2.052 . S
Co901 O909 2.135 . S
O902 Co901 2.061 . S
O902 C905 1.235 . S
C903 O906 1.238 . S
C903 O907 1.241 . S
C904 O897 1.247 . S
C904 O898 1.261 . S
C905 O900 1.259 . S
C905 O902 1.235 . S
O906 Co896 2.021 . S
O906 C903 1.238 . S
O907 Co901 2.052 . S
O907 C903 1.241 . S
O908 Co896 2.137 . S
O908 C899 1.247 . S
O909 Co896 2.244 . S
O909 C899 1.272 . S
O909 Co901 2.135 . S
Co910 O911 2.216 . S
Co910 O912 2.091 . S
Co910 O914 2.004 . S
Co910 O920 2.021 . S
Co910 O922 2.137 . S
Co910 O923 2.244 . S
O911 Co910 2.216 . S
O911 C918 1.247 . S
O912 Co910 2.091 . S
O912 C918 1.261 . S
C913 O922 1.247 . S
C913 O923 1.272 . S
O914 Co910 2.004 . S
O914 C919 1.259 . S
Co915 O916 2.061 . S
Co915 O921 2.052 . S
Co915 O923 2.135 . S
O916 Co915 2.061 . S
O916 C919 1.235 . S
C917 O920 1.238 . S
C917 O921 1.241 . S
C918 O911 1.247 . S
C918 O912 1.261 . S
C919 O914 1.259 . S
C919 O916 1.235 . S
O920 Co910 2.021 . S
O920 C917 1.238 . S
O921 Co915 2.052 . S
O921 C917 1.241 . S
O922 Co910 2.137 . S
O922 C913 1.247 . S
O923 Co910 2.244 . S
O923 C913 1.272 . S
O923 Co915 2.135 . S
Co924 O925 2.216 . S
Co924 O926 2.091 . S
Co924 O928 2.004 . S
Co924 O934 2.021 . S
Co924 O936 2.137 . S
Co924 O937 2.244 . S
O925 Co924 2.216 . S
O925 C932 1.247 . S
O926 Co924 2.091 . S
O926 C932 1.261 . S
C927 O936 1.247 . S
C927 O937 1.272 . S
O928 Co924 2.004 . S
O928 C933 1.259 . S
Co929 O930 2.061 . S
Co929 O935 2.052 . S
Co929 O937 2.135 . S
O930 Co929 2.061 . S
O930 C933 1.235 . S
C931 O934 1.238 . S
C931 O935 1.241 . S
C932 O925 1.247 . S
C932 O926 1.261 . S
C933 O928 1.259 . S
C933 O930 1.235 . S
O934 Co924 2.021 . S
O934 C931 1.238 . S
O935 Co929 2.052 . S
O935 C931 1.241 . S
O936 Co924 2.137 . S
O936 C927 1.247 . S
O937 Co924 2.244 . S
O937 C927 1.272 . S
O937 Co929 2.135 . S
Co938 O939 2.216 . S
Co938 O940 2.091 . S
Co938 O942 2.004 . S
Co938 O948 2.021 . S
Co938 O950 2.137 . S
Co938 O951 2.244 . S
O939 Co938 2.216 . S
O939 C946 1.247 . S
O940 Co938 2.091 . S
O940 C946 1.261 . S
C941 O950 1.247 . S
C941 O951 1.272 . S
O942 Co938 2.004 . S
O942 C947 1.259 . S
Co943 O944 2.061 . S
Co943 O949 2.052 . S
Co943 O951 2.135 . S
O944 Co943 2.061 . S
O944 C947 1.235 . S
C945 O948 1.238 . S
C945 O949 1.241 . S
C946 O939 1.247 . S
C946 O940 1.261 . S
C947 O942 1.259 . S
C947 O944 1.235 . S
O948 Co938 2.021 . S
O948 C945 1.238 . S
O949 Co943 2.052 . S
O949 C945 1.241 . S
O950 Co938 2.137 . S
O950 C941 1.247 . S
O951 Co938 2.244 . S
O951 C941 1.272 . S
O951 Co943 2.135 . S
Co952 O953 2.216 . S
Co952 O954 2.091 . S
Co952 O956 2.004 . S
Co952 O962 2.021 . S
Co952 O964 2.137 . S
Co952 O965 2.244 . S
O953 Co952 2.216 . S
O953 C960 1.247 . S
O954 Co952 2.091 . S
O954 C960 1.261 . S
C955 O964 1.247 . S
C955 O965 1.272 . S
O956 Co952 2.004 . S
O956 C961 1.259 . S
Co957 O958 2.061 . S
Co957 O963 2.052 . S
Co957 O965 2.135 . S
O958 Co957 2.061 . S
O958 C961 1.235 . S
C959 O962 1.238 . S
C959 O963 1.241 . S
C960 O953 1.247 . S
C960 O954 1.261 . S
C961 O956 1.259 . S
C961 O958 1.235 . S
O962 Co952 2.021 . S
O962 C959 1.238 . S
O963 Co957 2.052 . S
O963 C959 1.241 . S
O964 Co952 2.137 . S
O964 C955 1.247 . S
O965 Co952 2.244 . S
O965 C955 1.272 . S
O965 Co957 2.135 . S
Co966 O967 2.216 . S
Co966 O968 2.091 . S
Co966 O970 2.004 . S
Co966 O976 2.021 . S
Co966 O978 2.137 . S
Co966 O979 2.244 . S
O967 Co966 2.216 . S
O967 C974 1.247 . S
O968 Co966 2.091 . S
O968 C974 1.261 . S
C969 O978 1.247 . S
C969 O979 1.272 . S
O970 Co966 2.004 . S
O970 C975 1.259 . S
Co971 O972 2.061 . S
Co971 O977 2.052 . S
Co971 O979 2.135 . S
O972 Co971 2.061 . S
O972 C975 1.235 . S
C973 O976 1.238 . S
C973 O977 1.241 . S
C974 O967 1.247 . S
C974 O968 1.261 . S
C975 O970 1.259 . S
C975 O972 1.235 . S
O976 Co966 2.021 . S
O976 C973 1.238 . S
O977 Co971 2.052 . S
O977 C973 1.241 . S
O978 Co966 2.137 . S
O978 C969 1.247 . S
O979 Co966 2.244 . S
O979 C969 1.272 . S
O979 Co971 2.135 . S
Co980 O981 2.216 . S
Co980 O982 2.091 . S
Co980 O984 2.004 . S
Co980 O990 2.021 . S
Co980 O992 2.137 . S
Co980 O993 2.244 . S
O981 Co980 2.216 . S
O981 C988 1.247 . S
O982 Co980 2.091 . S
O982 C988 1.261 . S
C983 O992 1.247 . S
C983 O993 1.272 . S
O984 Co980 2.004 . S
O984 C989 1.259 . S
Co985 O986 2.061 . S
Co985 O991 2.052 . S
Co985 O993 2.135 . S
O986 Co985 2.061 . S
O986 C989 1.235 . S
C987 O990 1.238 . S
C987 O991 1.241 . S
C988 O981 1.247 . S
C988 O982 1.261 . S
C989 O984 1.259 . S
C989 O986 1.235 . S
O990 Co980 2.021 . S
O990 C987 1.238 . S
O991 Co985 2.052 . S
O991 C987 1.241 . S
O992 Co980 2.137 . S
O992 C983 1.247 . S
O993 Co980 2.244 . S
O993 C983 1.272 . S
O993 Co985 2.135 . S
Co994 O995 2.216 . S
Co994 O996 2.091 . S
Co994 O998 2.004 . S
Co994 O1004 2.021 . S
Co994 O1006 2.137 . S
Co994 O1007 2.244 . S
O995 Co994 2.216 . S
O995 C1002 1.247 . S
O996 Co994 2.091 . S
O996 C1002 1.261 . S
C997 O1006 1.247 . S
C997 O1007 1.272 . S
O998 Co994 2.004 . S
O998 C1003 1.259 . S
Co999 O1000 2.061 . S
Co999 O1005 2.052 . S
Co999 O1007 2.135 . S
O1000 Co999 2.061 . S
O1000 C1003 1.235 . S
C1001 O1004 1.238 . S
C1001 O1005 1.241 . S
C1002 O995 1.247 . S
C1002 O996 1.261 . S
C1003 O998 1.259 . S
C1003 O1000 1.235 . S
O1004 Co994 2.021 . S
O1004 C1001 1.238 . S
O1005 Co999 2.052 . S
O1005 C1001 1.241 . S
O1006 Co994 2.137 . S
O1006 C997 1.247 . S
O1007 Co994 2.244 . S
O1007 C997 1.272 . S
O1007 Co999 2.135 . S
Co1008 O1009 2.216 . S
Co1008 O1010 2.091 . S
Co1008 O1012 2.004 . S
Co1008 O1018 2.021 . S
Co1008 O1020 2.137 . S
Co1008 O1021 2.244 . S
O1009 Co1008 2.216 . S
O1009 C1016 1.247 . S
O1010 Co1008 2.091 . S
O1010 C1016 1.261 . S
C1011 O1020 1.247 . S
C1011 O1021 1.272 . S
O1012 Co1008 2.004 . S
O1012 C1017 1.259 . S
Co1013 O1014 2.061 . S
Co1013 O1019 2.052 . S
Co1013 O1021 2.135 . S
O1014 Co1013 2.061 . S
O1014 C1017 1.235 . S
C1015 O1018 1.238 . S
C1015 O1019 1.241 . S
C1016 O1009 1.247 . S
C1016 O1010 1.261 . S
C1017 O1012 1.259 . S
C1017 O1014 1.235 . S
O1018 Co1008 2.021 . S
O1018 C1015 1.238 . S
O1019 Co1013 2.052 . S
O1019 C1015 1.241 . S
O1020 Co1008 2.137 . S
O1020 C1011 1.247 . S
O1021 Co1008 2.244 . S
O1021 C1011 1.272 . S
O1021 Co1013 2.135 . S
Co1022 O1023 2.216 . S
Co1022 O1024 2.091 . S
Co1022 O1026 2.004 . S
Co1022 O1032 2.021 . S
Co1022 O1034 2.137 . S
Co1022 O1035 2.244 . S
O1023 Co1022 2.216 . S
O1023 C1030 1.247 . S
O1024 Co1022 2.091 . S
O1024 C1030 1.261 . S
C1025 O1034 1.247 . S
C1025 O1035 1.272 . S
O1026 Co1022 2.004 . S
O1026 C1031 1.259 . S
Co1027 O1028 2.061 . S
Co1027 O1033 2.052 . S
Co1027 O1035 2.135 . S
O1028 Co1027 2.061 . S
O1028 C1031 1.235 . S
C1029 O1032 1.238 . S
C1029 O1033 1.241 . S
C1030 O1023 1.247 . S
C1030 O1024 1.261 . S
C1031 O1026 1.259 . S
C1031 O1028 1.235 . S
O1032 Co1022 2.021 . S
O1032 C1029 1.238 . S
O1033 Co1027 2.052 . S
O1033 C1029 1.241 . S
O1034 Co1022 2.137 . S
O1034 C1025 1.247 . S
O1035 Co1022 2.244 . S
O1035 C1025 1.272 . S
O1035 Co1027 2.135 . S
Co1036 O1037 2.216 . S
Co1036 O1038 2.091 . S
Co1036 O1040 2.004 . S
Co1036 O1046 2.021 . S
Co1036 O1048 2.137 . S
Co1036 O1049 2.244 . S
O1037 Co1036 2.216 . S
O1037 C1044 1.247 . S
O1038 Co1036 2.091 . S
O1038 C1044 1.261 . S
C1039 O1048 1.247 . S
C1039 O1049 1.272 . S
O1040 Co1036 2.004 . S
O1040 C1045 1.259 . S
Co1041 O1042 2.061 . S
Co1041 O1047 2.052 . S
Co1041 O1049 2.135 . S
O1042 Co1041 2.061 . S
O1042 C1045 1.235 . S
C1043 O1046 1.238 . S
C1043 O1047 1.241 . S
C1044 O1037 1.247 . S
C1044 O1038 1.261 . S
C1045 O1040 1.259 . S
C1045 O1042 1.235 . S
O1046 Co1036 2.021 . S
O1046 C1043 1.238 . S
O1047 Co1041 2.052 . S
O1047 C1043 1.241 . S
O1048 Co1036 2.137 . S
O1048 C1039 1.247 . S
O1049 Co1036 2.244 . S
O1049 C1039 1.272 . S
O1049 Co1041 2.135 . S
Co1050 O1051 2.216 . S
Co1050 O1052 2.091 . S
Co1050 O1054 2.004 . S
Co1050 O1060 2.021 . S
Co1050 O1062 2.137 . S
Co1050 O1063 2.244 . S
O1051 Co1050 2.216 . S
O1051 C1058 1.247 . S
O1052 Co1050 2.091 . S
O1052 C1058 1.261 . S
C1053 O1062 1.247 . S
C1053 O1063 1.272 . S
O1054 Co1050 2.004 . S
O1054 C1059 1.259 . S
Co1055 O1056 2.061 . S
Co1055 O1061 2.052 . S
Co1055 O1063 2.135 . S
O1056 Co1055 2.061 . S
O1056 C1059 1.235 . S
C1057 O1060 1.238 . S
C1057 O1061 1.241 . S
C1058 O1051 1.247 . S
C1058 O1052 1.261 . S
C1059 O1054 1.259 . S
C1059 O1056 1.235 . S
O1060 Co1050 2.021 . S
O1060 C1057 1.238 . S
O1061 Co1055 2.052 . S
O1061 C1057 1.241 . S
O1062 Co1050 2.137 . S
O1062 C1053 1.247 . S
O1063 Co1050 2.244 . S
O1063 C1053 1.272 . S
O1063 Co1055 2.135 . S
Co1064 O1065 2.216 . S
Co1064 O1066 2.091 . S
Co1064 O1068 2.004 . S
Co1064 O1074 2.021 . S
Co1064 O1076 2.137 . S
Co1064 O1077 2.244 . S
O1065 Co1064 2.216 . S
O1065 C1072 1.247 . S
O1066 Co1064 2.091 . S
O1066 C1072 1.261 . S
C1067 O1076 1.247 . S
C1067 O1077 1.272 . S
O1068 Co1064 2.004 . S
O1068 C1073 1.259 . S
Co1069 O1070 2.061 . S
Co1069 O1075 2.052 . S
Co1069 O1077 2.135 . S
O1070 Co1069 2.061 . S
O1070 C1073 1.235 . S
C1071 O1074 1.238 . S
C1071 O1075 1.241 . S
C1072 O1065 1.247 . S
C1072 O1066 1.261 . S
C1073 O1068 1.259 . S
C1073 O1070 1.235 . S
O1074 Co1064 2.021 . S
O1074 C1071 1.238 . S
O1075 Co1069 2.052 . S
O1075 C1071 1.241 . S
O1076 Co1064 2.137 . S
O1076 C1067 1.247 . S
O1077 Co1064 2.244 . S
O1077 C1067 1.272 . S
O1077 Co1069 2.135 . S
Co1078 O1079 2.216 . S
Co1078 O1080 2.091 . S
Co1078 O1082 2.004 . S
Co1078 O1088 2.021 . S
Co1078 O1090 2.137 . S
Co1078 O1091 2.244 . S
O1079 Co1078 2.216 . S
O1079 C1086 1.247 . S
O1080 Co1078 2.091 . S
O1080 C1086 1.261 . S
C1081 O1090 1.247 . S
C1081 O1091 1.272 . S
O1082 Co1078 2.004 . S
O1082 C1087 1.259 . S
Co1083 O1084 2.061 . S
Co1083 O1089 2.052 . S
Co1083 O1091 2.135 . S
O1084 Co1083 2.061 . S
O1084 C1087 1.235 . S
C1085 O1088 1.238 . S
C1085 O1089 1.241 . S
C1086 O1079 1.247 . S
C1086 O1080 1.261 . S
C1087 O1082 1.259 . S
C1087 O1084 1.235 . S
O1088 Co1078 2.021 . S
O1088 C1085 1.238 . S
O1089 Co1083 2.052 . S
O1089 C1085 1.241 . S
O1090 Co1078 2.137 . S
O1090 C1081 1.247 . S
O1091 Co1078 2.244 . S
O1091 C1081 1.272 . S
O1091 Co1083 2.135 . S
Co1092 O1093 2.216 . S
Co1092 O1094 2.091 . S
Co1092 O1096 2.004 . S
Co1092 O1102 2.021 . S
Co1092 O1104 2.137 . S
Co1092 O1105 2.244 . S
O1093 Co1092 2.216 . S
O1093 C1100 1.247 . S
O1094 Co1092 2.091 . S
O1094 C1100 1.261 . S
C1095 O1104 1.247 . S
C1095 O1105 1.272 . S
O1096 Co1092 2.004 . S
O1096 C1101 1.259 . S
Co1097 O1098 2.061 . S
Co1097 O1103 2.052 . S
Co1097 O1105 2.135 . S
O1098 Co1097 2.061 . S
O1098 C1101 1.235 . S
C1099 O1102 1.238 . S
C1099 O1103 1.241 . S
C1100 O1093 1.247 . S
C1100 O1094 1.261 . S
C1101 O1096 1.259 . S
C1101 O1098 1.235 . S
O1102 Co1092 2.021 . S
O1102 C1099 1.238 . S
O1103 Co1097 2.052 . S
O1103 C1099 1.241 . S
O1104 Co1092 2.137 . S
O1104 C1095 1.247 . S
O1105 Co1092 2.244 . S
O1105 C1095 1.272 . S
O1105 Co1097 2.135 . S
Co1106 O1107 2.216 . S
Co1106 O1108 2.091 . S
Co1106 O1110 2.004 . S
Co1106 O1116 2.021 . S
Co1106 O1118 2.137 . S
Co1106 O1119 2.244 . S
O1107 Co1106 2.216 . S
O1107 C1114 1.247 . S
O1108 Co1106 2.091 . S
O1108 C1114 1.261 . S
C1109 O1118 1.247 . S
C1109 O1119 1.272 . S
O1110 Co1106 2.004 . S
O1110 C1115 1.259 . S
Co1111 O1112 2.061 . S
Co1111 O1117 2.052 . S
Co1111 O1119 2.135 . S
O1112 Co1111 2.061 . S
O1112 C1115 1.235 . S
C1113 O1116 1.238 . S
C1113 O1117 1.241 . S
C1114 O1107 1.247 . S
C1114 O1108 1.261 . S
C1115 O1110 1.259 . S
C1115 O1112 1.235 . S
O1116 Co1106 2.021 . S
O1116 C1113 1.238 . S
O1117 Co1111 2.052 . S
O1117 C1113 1.241 . S
O1118 Co1106 2.137 . S
O1118 C1109 1.247 . S
O1119 Co1106 2.244 . S
O1119 C1109 1.272 . S
O1119 Co1111 2.135 . S
Co1120 O1121 2.216 . S
Co1120 O1122 2.091 . S
Co1120 O1124 2.004 . S
Co1120 O1130 2.021 . S
Co1120 O1132 2.137 . S
Co1120 O1133 2.244 . S
O1121 Co1120 2.216 . S
O1121 C1128 1.247 . S
O1122 Co1120 2.091 . S
O1122 C1128 1.261 . S
C1123 O1132 1.247 . S
C1123 O1133 1.272 . S
O1124 Co1120 2.004 . S
O1124 C1129 1.259 . S
Co1125 O1126 2.061 . S
Co1125 O1131 2.052 . S
Co1125 O1133 2.135 . S
O1126 Co1125 2.061 . S
O1126 C1129 1.235 . S
C1127 O1130 1.238 . S
C1127 O1131 1.241 . S
C1128 O1121 1.247 . S
C1128 O1122 1.261 . S
C1129 O1124 1.259 . S
C1129 O1126 1.235 . S
O1130 Co1120 2.021 . S
O1130 C1127 1.238 . S
O1131 Co1125 2.052 . S
O1131 C1127 1.241 . S
O1132 Co1120 2.137 . S
O1132 C1123 1.247 . S
O1133 Co1120 2.244 . S
O1133 C1123 1.272 . S
O1133 Co1125 2.135 . S
Co1134 O1135 2.216 . S
Co1134 O1136 2.091 . S
Co1134 O1138 2.004 . S
Co1134 O1144 2.021 . S
Co1134 O1146 2.137 . S
Co1134 O1147 2.244 . S
O1135 Co1134 2.216 . S
O1135 C1142 1.247 . S
O1136 Co1134 2.091 . S
O1136 C1142 1.261 . S
C1137 O1146 1.247 . S
C1137 O1147 1.272 . S
O1138 Co1134 2.004 . S
O1138 C1143 1.259 . S
Co1139 O1140 2.061 . S
Co1139 O1145 2.052 . S
Co1139 O1147 2.135 . S
O1140 Co1139 2.061 . S
O1140 C1143 1.235 . S
C1141 O1144 1.238 . S
C1141 O1145 1.241 . S
C1142 O1135 1.247 . S
C1142 O1136 1.261 . S
C1143 O1138 1.259 . S
C1143 O1140 1.235 . S
O1144 Co1134 2.021 . S
O1144 C1141 1.238 . S
O1145 Co1139 2.052 . S
O1145 C1141 1.241 . S
O1146 Co1134 2.137 . S
O1146 C1137 1.247 . S
O1147 Co1134 2.244 . S
O1147 C1137 1.272 . S
O1147 Co1139 2.135 . S
Co1148 O1149 2.216 . S
Co1148 O1150 2.091 . S
Co1148 O1152 2.004 . S
Co1148 O1158 2.021 . S
Co1148 O1160 2.137 . S
Co1148 O1161 2.244 . S
O1149 Co1148 2.216 . S
O1149 C1156 1.247 . S
O1150 Co1148 2.091 . S
O1150 C1156 1.261 . S
C1151 O1160 1.247 . S
C1151 O1161 1.272 . S
O1152 Co1148 2.004 . S
O1152 C1157 1.259 . S
Co1153 O1154 2.061 . S
Co1153 O1159 2.052 . S
Co1153 O1161 2.135 . S
O1154 Co1153 2.061 . S
O1154 C1157 1.235 . S
C1155 O1158 1.238 . S
C1155 O1159 1.241 . S
C1156 O1149 1.247 . S
C1156 O1150 1.261 . S
C1157 O1152 1.259 . S
C1157 O1154 1.235 . S
O1158 Co1148 2.021 . S
O1158 C1155 1.238 . S
O1159 Co1153 2.052 . S
O1159 C1155 1.241 . S
O1160 Co1148 2.137 . S
O1160 C1151 1.247 . S
O1161 Co1148 2.244 . S
O1161 C1151 1.272 . S
O1161 Co1153 2.135 . S
Co1162 O1163 2.216 . S
Co1162 O1164 2.091 . S
Co1162 O1166 2.004 . S
Co1162 O1172 2.021 . S
Co1162 O1174 2.137 . S
Co1162 O1175 2.244 . S
O1163 Co1162 2.216 . S
O1163 C1170 1.247 . S
O1164 Co1162 2.091 . S
O1164 C1170 1.261 . S
C1165 O1174 1.247 . S
C1165 O1175 1.272 . S
O1166 Co1162 2.004 . S
O1166 C1171 1.259 . S
Co1167 O1168 2.061 . S
Co1167 O1173 2.052 . S
Co1167 O1175 2.135 . S
O1168 Co1167 2.061 . S
O1168 C1171 1.235 . S
C1169 O1172 1.238 . S
C1169 O1173 1.241 . S
C1170 O1163 1.247 . S
C1170 O1164 1.261 . S
C1171 O1166 1.259 . S
C1171 O1168 1.235 . S
O1172 Co1162 2.021 . S
O1172 C1169 1.238 . S
O1173 Co1167 2.052 . S
O1173 C1169 1.241 . S
O1174 Co1162 2.137 . S
O1174 C1165 1.247 . S
O1175 Co1162 2.244 . S
O1175 C1165 1.272 . S
O1175 Co1167 2.135 . S
Co1176 O1177 2.216 . S
Co1176 O1178 2.091 . S
Co1176 O1180 2.004 . S
Co1176 O1186 2.021 . S
Co1176 O1188 2.137 . S
Co1176 O1189 2.244 . S
O1177 Co1176 2.216 . S
O1177 C1184 1.247 . S
O1178 Co1176 2.091 . S
O1178 C1184 1.261 . S
C1179 O1188 1.247 . S
C1179 O1189 1.272 . S
O1180 Co1176 2.004 . S
O1180 C1185 1.259 . S
Co1181 O1182 2.061 . S
Co1181 O1187 2.052 . S
Co1181 O1189 2.135 . S
O1182 Co1181 2.061 . S
O1182 C1185 1.235 . S
C1183 O1186 1.238 . S
C1183 O1187 1.241 . S
C1184 O1177 1.247 . S
C1184 O1178 1.261 . S
C1185 O1180 1.259 . S
C1185 O1182 1.235 . S
O1186 Co1176 2.021 . S
O1186 C1183 1.238 . S
O1187 Co1181 2.052 . S
O1187 C1183 1.241 . S
O1188 Co1176 2.137 . S
O1188 C1179 1.247 . S
O1189 Co1176 2.244 . S
O1189 C1179 1.272 . S
O1189 Co1181 2.135 . S
Co1190 O1191 2.216 . S
Co1190 O1192 2.091 . S
Co1190 O1194 2.004 . S
Co1190 O1200 2.021 . S
Co1190 O1202 2.137 . S
Co1190 O1203 2.244 . S
O1191 Co1190 2.216 . S
O1191 C1198 1.247 . S
O1192 Co1190 2.091 . S
O1192 C1198 1.261 . S
C1193 O1202 1.247 . S
C1193 O1203 1.272 . S
O1194 Co1190 2.004 . S
O1194 C1199 1.259 . S
Co1195 O1196 2.061 . S
Co1195 O1201 2.052 . S
Co1195 O1203 2.135 . S
O1196 Co1195 2.061 . S
O1196 C1199 1.235 . S
C1197 O1200 1.238 . S
C1197 O1201 1.241 . S
C1198 O1191 1.247 . S
C1198 O1192 1.261 . S
C1199 O1194 1.259 . S
C1199 O1196 1.235 . S
O1200 Co1190 2.021 . S
O1200 C1197 1.238 . S
O1201 Co1195 2.052 . S
O1201 C1197 1.241 . S
O1202 Co1190 2.137 . S
O1202 C1193 1.247 . S
O1203 Co1190 2.244 . S
O1203 C1193 1.272 . S
O1203 Co1195 2.135 . S
Co1204 O1205 2.216 . S
Co1204 O1206 2.091 . S
Co1204 O1208 2.004 . S
Co1204 O1214 2.021 . S
Co1204 O1216 2.137 . S
Co1204 O1217 2.244 . S
O1205 Co1204 2.216 . S
O1205 C1212 1.247 . S
O1206 Co1204 2.091 . S
O1206 C1212 1.261 . S
C1207 O1216 1.247 . S
C1207 O1217 1.272 . S
O1208 Co1204 2.004 . S
O1208 C1213 1.259 . S
Co1209 O1210 2.061 . S
Co1209 O1215 2.052 . S
Co1209 O1217 2.135 . S
O1210 Co1209 2.061 . S
O1210 C1213 1.235 . S
C1211 O1214 1.238 . S
C1211 O1215 1.241 . S
C1212 O1205 1.247 . S
C1212 O1206 1.261 . S
C1213 O1208 1.259 . S
C1213 O1210 1.235 . S
O1214 Co1204 2.021 . S
O1214 C1211 1.238 . S
O1215 Co1209 2.052 . S
O1215 C1211 1.241 . S
O1216 Co1204 2.137 . S
O1216 C1207 1.247 . S
O1217 Co1204 2.244 . S
O1217 C1207 1.272 . S
O1217 Co1209 2.135 . S
Co1218 O1219 2.216 . S
Co1218 O1220 2.091 . S
Co1218 O1222 2.004 . S
Co1218 O1228 2.021 . S
Co1218 O1230 2.137 . S
Co1218 O1231 2.244 . S
O1219 Co1218 2.216 . S
O1219 C1226 1.247 . S
O1220 Co1218 2.091 . S
O1220 C1226 1.261 . S
C1221 O1230 1.247 . S
C1221 O1231 1.272 . S
O1222 Co1218 2.004 . S
O1222 C1227 1.259 . S
Co1223 O1224 2.061 . S
Co1223 O1229 2.052 . S
Co1223 O1231 2.135 . S
O1224 Co1223 2.061 . S
O1224 C1227 1.235 . S
C1225 O1228 1.238 . S
C1225 O1229 1.241 . S
C1226 O1219 1.247 . S
C1226 O1220 1.261 . S
C1227 O1222 1.259 . S
C1227 O1224 1.235 . S
O1228 Co1218 2.021 . S
O1228 C1225 1.238 . S
O1229 Co1223 2.052 . S
O1229 C1225 1.241 . S
O1230 Co1218 2.137 . S
O1230 C1221 1.247 . S
O1231 Co1218 2.244 . S
O1231 C1221 1.272 . S
O1231 Co1223 2.135 . S
Co1232 O1233 2.216 . S
Co1232 O1234 2.091 . S
Co1232 O1236 2.004 . S
Co1232 O1242 2.021 . S
Co1232 O1244 2.137 . S
Co1232 O1245 2.244 . S
O1233 Co1232 2.216 . S
O1233 C1240 1.247 . S
O1234 Co1232 2.091 . S
O1234 C1240 1.261 . S
C1235 O1244 1.247 . S
C1235 O1245 1.272 . S
O1236 Co1232 2.004 . S
O1236 C1241 1.259 . S
Co1237 O1238 2.061 . S
Co1237 O1243 2.052 . S
Co1237 O1245 2.135 . S
O1238 Co1237 2.061 . S
O1238 C1241 1.235 . S
C1239 O1242 1.238 . S
C1239 O1243 1.241 . S
C1240 O1233 1.247 . S
C1240 O1234 1.261 . S
C1241 O1236 1.259 . S
C1241 O1238 1.235 . S
O1242 Co1232 2.021 . S
O1242 C1239 1.238 . S
O1243 Co1237 2.052 . S
O1243 C1239 1.241 . S
O1244 Co1232 2.137 . S
O1244 C1235 1.247 . S
O1245 Co1232 2.244 . S
O1245 C1235 1.272 . S
O1245 Co1237 2.135 . S
Co1246 O1247 2.216 . S
Co1246 O1248 2.091 . S
Co1246 O1250 2.004 . S
Co1246 O1256 2.021 . S
Co1246 O1258 2.137 . S
Co1246 O1259 2.244 . S
O1247 Co1246 2.216 . S
O1247 C1254 1.247 . S
O1248 Co1246 2.091 . S
O1248 C1254 1.261 . S
C1249 O1258 1.247 . S
C1249 O1259 1.272 . S
O1250 Co1246 2.004 . S
O1250 C1255 1.259 . S
Co1251 O1252 2.061 . S
Co1251 O1257 2.052 . S
Co1251 O1259 2.135 . S
O1252 Co1251 2.061 . S
O1252 C1255 1.235 . S
C1253 O1256 1.238 . S
C1253 O1257 1.241 . S
C1254 O1247 1.247 . S
C1254 O1248 1.261 . S
C1255 O1250 1.259 . S
C1255 O1252 1.235 . S
O1256 Co1246 2.021 . S
O1256 C1253 1.238 . S
O1257 Co1251 2.052 . S
O1257 C1253 1.241 . S
O1258 Co1246 2.137 . S
O1258 C1249 1.247 . S
O1259 Co1246 2.244 . S
O1259 C1249 1.272 . S
O1259 Co1251 2.135 . S
Co1260 O1261 2.216 . S
Co1260 O1262 2.091 . S
Co1260 O1264 2.004 . S
Co1260 O1270 2.021 . S
Co1260 O1272 2.137 . S
Co1260 O1273 2.244 . S
O1261 Co1260 2.216 . S
O1261 C1268 1.247 . S
O1262 Co1260 2.091 . S
O1262 C1268 1.261 . S
C1263 O1272 1.247 . S
C1263 O1273 1.272 . S
O1264 Co1260 2.004 . S
O1264 C1269 1.259 . S
Co1265 O1266 2.061 . S
Co1265 O1271 2.052 . S
Co1265 O1273 2.135 . S
O1266 Co1265 2.061 . S
O1266 C1269 1.235 . S
C1267 O1270 1.238 . S
C1267 O1271 1.241 . S
C1268 O1261 1.247 . S
C1268 O1262 1.261 . S
C1269 O1264 1.259 . S
C1269 O1266 1.235 . S
O1270 Co1260 2.021 . S
O1270 C1267 1.238 . S
O1271 Co1265 2.052 . S
O1271 C1267 1.241 . S
O1272 Co1260 2.137 . S
O1272 C1263 1.247 . S
O1273 Co1260 2.244 . S
O1273 C1263 1.272 . S
O1273 Co1265 2.135 . S
Co1274 O1275 2.216 . S
Co1274 O1276 2.091 . S
Co1274 O1278 2.004 . S
Co1274 O1284 2.021 . S
Co1274 O1286 2.137 . S
Co1274 O1287 2.244 . S
O1275 Co1274 2.216 . S
O1275 C1282 1.247 . S
O1276 Co1274 2.091 . S
O1276 C1282 1.261 . S
C1277 O1286 1.247 . S
C1277 O1287 1.272 . S
O1278 Co1274 2.004 . S
O1278 C1283 1.259 . S
Co1279 O1280 2.061 . S
Co1279 O1285 2.052 . S
Co1279 O1287 2.135 . S
O1280 Co1279 2.061 . S
O1280 C1283 1.235 . S
C1281 O1284 1.238 . S
C1281 O1285 1.241 . S
C1282 O1275 1.247 . S
C1282 O1276 1.261 . S
C1283 O1278 1.259 . S
C1283 O1280 1.235 . S
O1284 Co1274 2.021 . S
O1284 C1281 1.238 . S
O1285 Co1279 2.052 . S
O1285 C1281 1.241 . S
O1286 Co1274 2.137 . S
O1286 C1277 1.247 . S
O1287 Co1274 2.244 . S
O1287 C1277 1.272 . S
O1287 Co1279 2.135 . S
Co1288 O1289 2.216 . S
Co1288 O1290 2.091 . S
Co1288 O1292 2.004 . S
Co1288 O1298 2.021 . S
Co1288 O1300 2.137 . S
Co1288 O1301 2.244 . S
O1289 Co1288 2.216 . S
O1289 C1296 1.247 . S
O1290 Co1288 2.091 . S
O1290 C1296 1.261 . S
C1291 O1300 1.247 . S
C1291 O1301 1.272 . S
O1292 Co1288 2.004 . S
O1292 C1297 1.259 . S
Co1293 O1294 2.061 . S
Co1293 O1299 2.052 . S
Co1293 O1301 2.135 . S
O1294 Co1293 2.061 . S
O1294 C1297 1.235 . S
C1295 O1298 1.238 . S
C1295 O1299 1.241 . S
C1296 O1289 1.247 . S
C1296 O1290 1.261 . S
C1297 O1292 1.259 . S
C1297 O1294 1.235 . S
O1298 Co1288 2.021 . S
O1298 C1295 1.238 . S
O1299 Co1293 2.052 . S
O1299 C1295 1.241 . S
O1300 Co1288 2.137 . S
O1300 C1291 1.247 . S
O1301 Co1288 2.244 . S
O1301 C1291 1.272 . S
O1301 Co1293 2.135 . S
Co1302 O1303 2.216 . S
Co1302 O1304 2.091 . S
Co1302 O1306 2.004 . S
Co1302 O1312 2.021 . S
Co1302 O1314 2.137 . S
Co1302 O1315 2.244 . S
O1303 Co1302 2.216 . S
O1303 C1310 1.247 . S
O1304 Co1302 2.091 . S
O1304 C1310 1.261 . S
C1305 O1314 1.247 . S
C1305 O1315 1.272 . S
O1306 Co1302 2.004 . S
O1306 C1311 1.259 . S
Co1307 O1308 2.061 . S
Co1307 O1313 2.052 . S
Co1307 O1315 2.135 . S
O1308 Co1307 2.061 . S
O1308 C1311 1.235 . S
C1309 O1312 1.238 . S
C1309 O1313 1.241 . S
C1310 O1303 1.247 . S
C1310 O1304 1.261 . S
C1311 O1306 1.259 . S
C1311 O1308 1.235 . S
O1312 Co1302 2.021 . S
O1312 C1309 1.238 . S
O1313 Co1307 2.052 . S
O1313 C1309 1.241 . S
O1314 Co1302 2.137 . S
O1314 C1305 1.247 . S
O1315 Co1302 2.244 . S
O1315 C1305 1.272 . S
O1315 Co1307 2.135 . S
Co1316 O1317 2.216 . S
Co1316 O1318 2.091 . S
Co1316 O1320 2.004 . S
Co1316 O1326 2.021 . S
Co1316 O1328 2.137 . S
Co1316 O1329 2.244 . S
O1317 Co1316 2.216 . S
O1317 C1324 1.247 . S
O1318 Co1316 2.091 . S
O1318 C1324 1.261 . S
C1319 O1328 1.247 . S
C1319 O1329 1.272 . S
O1320 Co1316 2.004 . S
O1320 C1325 1.259 . S
Co1321 O1322 2.061 . S
Co1321 O1327 2.052 . S
Co1321 O1329 2.135 . S
O1322 Co1321 2.061 . S
O1322 C1325 1.235 . S
C1323 O1326 1.238 . S
C1323 O1327 1.241 . S
C1324 O1317 1.247 . S
C1324 O1318 1.261 . S
C1325 O1320 1.259 . S
C1325 O1322 1.235 . S
O1326 Co1316 2.021 . S
O1326 C1323 1.238 . S
O1327 Co1321 2.052 . S
O1327 C1323 1.241 . S
O1328 Co1316 2.137 . S
O1328 C1319 1.247 . S
O1329 Co1316 2.244 . S
O1329 C1319 1.272 . S
O1329 Co1321 2.135 . S
Co1330 O1331 2.216 . S
Co1330 O1332 2.091 . S
Co1330 O1334 2.004 . S
Co1330 O1340 2.021 . S
Co1330 O1342 2.137 . S
Co1330 O1343 2.244 . S
O1331 Co1330 2.216 . S
O1331 C1338 1.247 . S
O1332 Co1330 2.091 . S
O1332 C1338 1.261 . S
C1333 O1342 1.247 . S
C1333 O1343 1.272 . S
O1334 Co1330 2.004 . S
O1334 C1339 1.259 . S
Co1335 O1336 2.061 . S
Co1335 O1341 2.052 . S
Co1335 O1343 2.135 . S
O1336 Co1335 2.061 . S
O1336 C1339 1.235 . S
C1337 O1340 1.238 . S
C1337 O1341 1.241 . S
C1338 O1331 1.247 . S
C1338 O1332 1.261 . S
C1339 O1334 1.259 . S
C1339 O1336 1.235 . S
O1340 Co1330 2.021 . S
O1340 C1337 1.238 . S
O1341 Co1335 2.052 . S
O1341 C1337 1.241 . S
O1342 Co1330 2.137 . S
O1342 C1333 1.247 . S
O1343 Co1330 2.244 . S
O1343 C1333 1.272 . S
O1343 Co1335 2.135 . S
C1344 C1345 1.349 . S
C1344 C1346 1.327 . S
C1344 H1369 0.950 . S
C1345 C1344 1.349 . S
C1345 C1361 1.349 . S
C1346 C1344 1.327 . S
C1346 C1365 1.429 . S
C1346 H1370 0.950 . S
C1347 C1364 1.574 . S
C1347 C1366 1.368 . S
C1347 H1371 0.949 . S
H1348 C1352 0.949 . S
C1349 C1350 1.349 . S
C1349 C1351 1.327 . S
C1349 H1372 0.950 . S
C1350 C1349 1.349 . S
C1350 C1362 1.349 . S
C1351 C1349 1.327 . S
C1351 C1367 1.429 . S
C1351 H1373 0.950 . S
C1352 H1348 0.949 . S
C1352 C1360 1.574 . S
C1352 C1368 1.368 . S
H1353 C1361 0.950 . S
H1354 C1359 0.950 . S
H1355 C1360 0.949 . S
H1356 C1362 0.950 . S
H1357 C1363 0.950 . S
H1358 C1364 0.949 . S
C1359 H1354 0.950 . S
C1359 C1361 1.327 . S
C1359 C1365 1.429 . S
C1360 C1352 1.574 . S
C1360 H1355 0.949 . S
C1360 C1366 1.368 . S
C1361 C1345 1.349 . S
C1361 H1353 0.950 . S
C1361 C1359 1.327 . S
C1362 C1350 1.349 . S
C1362 H1356 0.950 . S
C1362 C1363 1.327 . S
C1363 H1357 0.950 . S
C1363 C1362 1.327 . S
C1363 C1367 1.429 . S
C1364 C1347 1.574 . S
C1364 H1358 0.949 . S
C1364 C1368 1.368 . S
C1365 C1346 1.429 . S
C1365 C1359 1.429 . S
C1365 C1366 1.523 . S
C1366 C1347 1.368 . S
C1366 C1360 1.368 . S
C1366 C1365 1.523 . S
C1367 C1351 1.429 . S
C1367 C1363 1.429 . S
C1367 C1368 1.523 . S
C1368 C1352 1.368 . S
C1368 C1364 1.368 . S
C1368 C1367 1.523 . S
H1369 C1344 0.950 . S
H1370 C1346 0.950 . S
H1371 C1347 0.949 . S
H1372 C1349 0.950 . S
H1373 C1351 0.950 . S
C1374 C1375 1.349 . S
C1374 C1376 1.327 . S
C1374 H1399 0.950 . S
C1375 C1374 1.349 . S
C1375 C1391 1.349 . S
C1376 C1374 1.327 . S
C1376 C1395 1.429 . S
C1376 H1400 0.950 . S
C1377 C1394 1.574 . S
C1377 C1396 1.368 . S
C1377 H1401 0.949 . S
H1378 C1382 0.949 . S
C1379 C1380 1.349 . S
C1379 C1381 1.327 . S
C1379 H1402 0.950 . S
C1380 C1379 1.349 . S
C1380 C1392 1.349 . S
C1381 C1379 1.327 . S
C1381 C1397 1.429 . S
C1381 H1403 0.950 . S
C1382 H1378 0.949 . S
C1382 C1390 1.574 . S
C1382 C1398 1.368 . S
H1383 C1391 0.950 . S
H1384 C1389 0.950 . S
H1385 C1390 0.949 . S
H1386 C1392 0.950 . S
H1387 C1393 0.950 . S
H1388 C1394 0.949 . S
C1389 H1384 0.950 . S
C1389 C1391 1.327 . S
C1389 C1395 1.429 . S
C1390 C1382 1.574 . S
C1390 H1385 0.949 . S
C1390 C1396 1.368 . S
C1391 C1375 1.349 . S
C1391 H1383 0.950 . S
C1391 C1389 1.327 . S
C1392 C1380 1.349 . S
C1392 H1386 0.950 . S
C1392 C1393 1.327 . S
C1393 H1387 0.950 . S
C1393 C1392 1.327 . S
C1393 C1397 1.429 . S
C1394 C1377 1.574 . S
C1394 H1388 0.949 . S
C1394 C1398 1.368 . S
C1395 C1376 1.429 . S
C1395 C1389 1.429 . S
C1395 C1396 1.523 . S
C1396 C1377 1.368 . S
C1396 C1390 1.368 . S
C1396 C1395 1.523 . S
C1397 C1381 1.429 . S
C1397 C1393 1.429 . S
C1397 C1398 1.523 . S
C1398 C1382 1.368 . S
C1398 C1394 1.368 . S
C1398 C1397 1.523 . S
H1399 C1374 0.950 . S
H1400 C1376 0.950 . S
H1401 C1377 0.949 . S
H1402 C1379 0.950 . S
H1403 C1381 0.950 . S
C1404 C1405 1.349 . S
C1404 C1406 1.327 . S
C1404 H1429 0.950 . S
C1405 C1404 1.349 . S
C1405 C1421 1.349 . S
C1406 C1404 1.327 . S
C1406 C1425 1.429 . S
C1406 H1430 0.950 . S
C1407 C1424 1.574 . S
C1407 C1426 1.368 . S
C1407 H1431 0.949 . S
H1408 C1412 0.949 . S
C1409 C1410 1.349 . S
C1409 C1411 1.327 . S
C1409 H1432 0.950 . S
C1410 C1409 1.349 . S
C1410 C1422 1.349 . S
C1411 C1409 1.327 . S
C1411 C1427 1.429 . S
C1411 H1433 0.950 . S
C1412 H1408 0.949 . S
C1412 C1420 1.574 . S
C1412 C1428 1.368 . S
H1413 C1421 0.950 . S
H1414 C1419 0.950 . S
H1415 C1420 0.949 . S
H1416 C1422 0.950 . S
H1417 C1423 0.950 . S
H1418 C1424 0.949 . S
C1419 H1414 0.950 . S
C1419 C1421 1.327 . S
C1419 C1425 1.429 . S
C1420 C1412 1.574 . S
C1420 H1415 0.949 . S
C1420 C1426 1.368 . S
C1421 C1405 1.349 . S
C1421 H1413 0.950 . S
C1421 C1419 1.327 . S
C1422 C1410 1.349 . S
C1422 H1416 0.950 . S
C1422 C1423 1.327 . S
C1423 H1417 0.950 . S
C1423 C1422 1.327 . S
C1423 C1427 1.429 . S
C1424 C1407 1.574 . S
C1424 H1418 0.949 . S
C1424 C1428 1.368 . S
C1425 C1406 1.429 . S
C1425 C1419 1.429 . S
C1425 C1426 1.523 . S
C1426 C1407 1.368 . S
C1426 C1420 1.368 . S
C1426 C1425 1.523 . S
C1427 C1411 1.429 . S
C1427 C1423 1.429 . S
C1427 C1428 1.523 . S
C1428 C1412 1.368 . S
C1428 C1424 1.368 . S
C1428 C1427 1.523 . S
H1429 C1404 0.950 . S
H1430 C1406 0.950 . S
H1431 C1407 0.949 . S
H1432 C1409 0.950 . S
H1433 C1411 0.950 . S
C1434 C1435 1.349 . S
C1434 C1436 1.327 . S
C1434 H1459 0.950 . S
C1435 C1434 1.349 . S
C1435 C1451 1.349 . S
C1436 C1434 1.327 . S
C1436 C1455 1.429 . S
C1436 H1460 0.950 . S
C1437 C1454 1.574 . S
C1437 C1456 1.368 . S
C1437 H1461 0.949 . S
H1438 C1442 0.949 . S
C1439 C1440 1.349 . S
C1439 C1441 1.327 . S
C1439 H1462 0.950 . S
C1440 C1439 1.349 . S
C1440 C1452 1.349 . S
C1441 C1439 1.327 . S
C1441 C1457 1.429 . S
C1441 H1463 0.950 . S
C1442 H1438 0.949 . S
C1442 C1450 1.574 . S
C1442 C1458 1.368 . S
H1443 C1451 0.950 . S
H1444 C1449 0.950 . S
H1445 C1450 0.949 . S
H1446 C1452 0.950 . S
H1447 C1453 0.950 . S
H1448 C1454 0.949 . S
C1449 H1444 0.950 . S
C1449 C1451 1.327 . S
C1449 C1455 1.429 . S
C1450 C1442 1.574 . S
C1450 H1445 0.949 . S
C1450 C1456 1.368 . S
C1451 C1435 1.349 . S
C1451 H1443 0.950 . S
C1451 C1449 1.327 . S
C1452 C1440 1.349 . S
C1452 H1446 0.950 . S
C1452 C1453 1.327 . S
C1453 H1447 0.950 . S
C1453 C1452 1.327 . S
C1453 C1457 1.429 . S
C1454 C1437 1.574 . S
C1454 H1448 0.949 . S
C1454 C1458 1.368 . S
C1455 C1436 1.429 . S
C1455 C1449 1.429 . S
C1455 C1456 1.523 . S
C1456 C1437 1.368 . S
C1456 C1450 1.368 . S
C1456 C1455 1.523 . S
C1457 C1441 1.429 . S
C1457 C1453 1.429 . S
C1457 C1458 1.523 . S
C1458 C1442 1.368 . S
C1458 C1454 1.368 . S
C1458 C1457 1.523 . S
H1459 C1434 0.950 . S
H1460 C1436 0.950 . S
H1461 C1437 0.949 . S
H1462 C1439 0.950 . S
H1463 C1441 0.950 . S
C1464 C1465 1.349 . S
C1464 C1466 1.327 . S
C1464 H1489 0.950 . S
C1465 C1464 1.349 . S
C1465 C1481 1.349 . S
C1466 C1464 1.327 . S
C1466 C1485 1.429 . S
C1466 H1490 0.950 . S
C1467 C1484 1.574 . S
C1467 C1486 1.368 . S
C1467 H1491 0.949 . S
H1468 C1472 0.949 . S
C1469 C1470 1.349 . S
C1469 C1471 1.327 . S
C1469 H1492 0.950 . S
C1470 C1469 1.349 . S
C1470 C1482 1.349 . S
C1471 C1469 1.327 . S
C1471 C1487 1.429 . S
C1471 H1493 0.950 . S
C1472 H1468 0.949 . S
C1472 C1480 1.574 . S
C1472 C1488 1.368 . S
H1473 C1481 0.950 . S
H1474 C1479 0.950 . S
H1475 C1480 0.949 . S
H1476 C1482 0.950 . S
H1477 C1483 0.950 . S
H1478 C1484 0.949 . S
C1479 H1474 0.950 . S
C1479 C1481 1.327 . S
C1479 C1485 1.429 . S
C1480 C1472 1.574 . S
C1480 H1475 0.949 . S
C1480 C1486 1.368 . S
C1481 C1465 1.349 . S
C1481 H1473 0.950 . S
C1481 C1479 1.327 . S
C1482 C1470 1.349 . S
C1482 H1476 0.950 . S
C1482 C1483 1.327 . S
C1483 H1477 0.950 . S
C1483 C1482 1.327 . S
C1483 C1487 1.429 . S
C1484 C1467 1.574 . S
C1484 H1478 0.949 . S
C1484 C1488 1.368 . S
C1485 C1466 1.429 . S
C1485 C1479 1.429 . S
C1485 C1486 1.523 . S
C1486 C1467 1.368 . S
C1486 C1480 1.368 . S
C1486 C1485 1.523 . S
C1487 C1471 1.429 . S
C1487 C1483 1.429 . S
C1487 C1488 1.523 . S
C1488 C1472 1.368 . S
C1488 C1484 1.368 . S
C1488 C1487 1.523 . S
H1489 C1464 0.950 . S
H1490 C1466 0.950 . S
H1491 C1467 0.949 . S
H1492 C1469 0.950 . S
H1493 C1471 0.950 . S
C1494 C1495 1.349 . S
C1494 C1496 1.327 . S
C1494 H1519 0.950 . S
C1495 C1494 1.349 . S
C1495 C1511 1.349 . S
C1496 C1494 1.327 . S
C1496 C1515 1.429 . S
C1496 H1520 0.950 . S
C1497 C1514 1.574 . S
C1497 C1516 1.368 . S
C1497 H1521 0.949 . S
H1498 C1502 0.949 . S
C1499 C1500 1.349 . S
C1499 C1501 1.327 . S
C1499 H1522 0.950 . S
C1500 C1499 1.349 . S
C1500 C1512 1.349 . S
C1501 C1499 1.327 . S
C1501 C1517 1.429 . S
C1501 H1523 0.950 . S
C1502 H1498 0.949 . S
C1502 C1510 1.574 . S
C1502 C1518 1.368 . S
H1503 C1511 0.950 . S
H1504 C1509 0.950 . S
H1505 C1510 0.949 . S
H1506 C1512 0.950 . S
H1507 C1513 0.950 . S
H1508 C1514 0.949 . S
C1509 H1504 0.950 . S
C1509 C1511 1.327 . S
C1509 C1515 1.429 . S
C1510 C1502 1.574 . S
C1510 H1505 0.949 . S
C1510 C1516 1.368 . S
C1511 C1495 1.349 . S
C1511 H1503 0.950 . S
C1511 C1509 1.327 . S
C1512 C1500 1.349 . S
C1512 H1506 0.950 . S
C1512 C1513 1.327 . S
C1513 H1507 0.950 . S
C1513 C1512 1.327 . S
C1513 C1517 1.429 . S
C1514 C1497 1.574 . S
C1514 H1508 0.949 . S
C1514 C1518 1.368 . S
C1515 C1496 1.429 . S
C1515 C1509 1.429 . S
C1515 C1516 1.523 . S
C1516 C1497 1.368 . S
C1516 C1510 1.368 . S
C1516 C1515 1.523 . S
C1517 C1501 1.429 . S
C1517 C1513 1.429 . S
C1517 C1518 1.523 . S
C1518 C1502 1.368 . S
C1518 C1514 1.368 . S
C1518 C1517 1.523 . S
H1519 C1494 0.950 . S
H1520 C1496 0.950 . S
H1521 C1497 0.949 . S
H1522 C1499 0.950 . S
H1523 C1501 0.950 . S
C1524 C1525 1.349 . S
C1524 C1526 1.327 . S
C1524 H1549 0.950 . S
C1525 C1524 1.349 . S
C1525 C1541 1.349 . S
C1526 C1524 1.327 . S
C1526 C1545 1.429 . S
C1526 H1550 0.950 . S
C1527 C1544 1.574 . S
C1527 C1546 1.368 . S
C1527 H1551 0.949 . S
H1528 C1532 0.949 . S
C1529 C1530 1.349 . S
C1529 C1531 1.327 . S
C1529 H1552 0.950 . S
C1530 C1529 1.349 . S
C1530 C1542 1.349 . S
C1531 C1529 1.327 . S
C1531 C1547 1.429 . S
C1531 H1553 0.950 . S
C1532 H1528 0.949 . S
C1532 C1540 1.574 . S
C1532 C1548 1.368 . S
H1533 C1541 0.950 . S
H1534 C1539 0.950 . S
H1535 C1540 0.949 . S
H1536 C1542 0.950 . S
H1537 C1543 0.950 . S
H1538 C1544 0.949 . S
C1539 H1534 0.950 . S
C1539 C1541 1.327 . S
C1539 C1545 1.429 . S
C1540 C1532 1.574 . S
C1540 H1535 0.949 . S
C1540 C1546 1.368 . S
C1541 C1525 1.349 . S
C1541 H1533 0.950 . S
C1541 C1539 1.327 . S
C1542 C1530 1.349 . S
C1542 H1536 0.950 . S
C1542 C1543 1.327 . S
C1543 H1537 0.950 . S
C1543 C1542 1.327 . S
C1543 C1547 1.429 . S
C1544 C1527 1.574 . S
C1544 H1538 0.949 . S
C1544 C1548 1.368 . S
C1545 C1526 1.429 . S
C1545 C1539 1.429 . S
C1545 C1546 1.523 . S
C1546 C1527 1.368 . S
C1546 C1540 1.368 . S
C1546 C1545 1.523 . S
C1547 C1531 1.429 . S
C1547 C1543 1.429 . S
C1547 C1548 1.523 . S
C1548 C1532 1.368 . S
C1548 C1544 1.368 . S
C1548 C1547 1.523 . S
H1549 C1524 0.950 . S
H1550 C1526 0.950 . S
H1551 C1527 0.949 . S
H1552 C1529 0.950 . S
H1553 C1531 0.950 . S
C1554 C1555 1.349 . S
C1554 C1556 1.327 . S
C1554 H1579 0.950 . S
C1555 C1554 1.349 . S
C1555 C1571 1.349 . S
C1556 C1554 1.327 . S
C1556 C1575 1.429 . S
C1556 H1580 0.950 . S
C1557 C1574 1.574 . S
C1557 C1576 1.368 . S
C1557 H1581 0.949 . S
H1558 C1562 0.949 . S
C1559 C1560 1.349 . S
C1559 C1561 1.327 . S
C1559 H1582 0.950 . S
C1560 C1559 1.349 . S
C1560 C1572 1.349 . S
C1561 C1559 1.327 . S
C1561 C1577 1.429 . S
C1561 H1583 0.950 . S
C1562 H1558 0.949 . S
C1562 C1570 1.574 . S
C1562 C1578 1.368 . S
H1563 C1571 0.950 . S
H1564 C1569 0.950 . S
H1565 C1570 0.949 . S
H1566 C1572 0.950 . S
H1567 C1573 0.950 . S
H1568 C1574 0.949 . S
C1569 H1564 0.950 . S
C1569 C1571 1.327 . S
C1569 C1575 1.429 . S
C1570 C1562 1.574 . S
C1570 H1565 0.949 . S
C1570 C1576 1.368 . S
C1571 C1555 1.349 . S
C1571 H1563 0.950 . S
C1571 C1569 1.327 . S
C1572 C1560 1.349 . S
C1572 H1566 0.950 . S
C1572 C1573 1.327 . S
C1573 H1567 0.950 . S
C1573 C1572 1.327 . S
C1573 C1577 1.429 . S
C1574 C1557 1.574 . S
C1574 H1568 0.949 . S
C1574 C1578 1.368 . S
C1575 C1556 1.429 . S
C1575 C1569 1.429 . S
C1575 C1576 1.523 . S
C1576 C1557 1.368 . S
C1576 C1570 1.368 . S
C1576 C1575 1.523 . S
C1577 C1561 1.429 . S
C1577 C1573 1.429 . S
C1577 C1578 1.523 . S
C1578 C1562 1.368 . S
C1578 C1574 1.368 . S
C1578 C1577 1.523 . S
H1579 C1554 0.950 . S
H1580 C1556 0.950 . S
H1581 C1557 0.949 . S
H1582 C1559 0.950 . S
H1583 C1561 0.950 . S
C1584 C1585 1.349 . S
C1584 C1586 1.327 . S
C1584 H1609 0.950 . S
C1585 C1584 1.349 . S
C1585 C1601 1.349 . S
C1586 C1584 1.327 . S
C1586 C1605 1.429 . S
C1586 H1610 0.950 . S
C1587 C1604 1.574 . S
C1587 C1606 1.368 . S
C1587 H1611 0.949 . S
H1588 C1592 0.949 . S
C1589 C1590 1.349 . S
C1589 C1591 1.327 . S
C1589 H1612 0.950 . S
C1590 C1589 1.349 . S
C1590 C1602 1.349 . S
C1591 C1589 1.327 . S
C1591 C1607 1.429 . S
C1591 H1613 0.950 . S
C1592 H1588 0.949 . S
C1592 C1600 1.574 . S
C1592 C1608 1.368 . S
H1593 C1601 0.950 . S
H1594 C1599 0.950 . S
H1595 C1600 0.949 . S
H1596 C1602 0.950 . S
H1597 C1603 0.950 . S
H1598 C1604 0.949 . S
C1599 H1594 0.950 . S
C1599 C1601 1.327 . S
C1599 C1605 1.429 . S
C1600 C1592 1.574 . S
C1600 H1595 0.949 . S
C1600 C1606 1.368 . S
C1601 C1585 1.349 . S
C1601 H1593 0.950 . S
C1601 C1599 1.327 . S
C1602 C1590 1.349 . S
C1602 H1596 0.950 . S
C1602 C1603 1.327 . S
C1603 H1597 0.950 . S
C1603 C1602 1.327 . S
C1603 C1607 1.429 . S
C1604 C1587 1.574 . S
C1604 H1598 0.949 . S
C1604 C1608 1.368 . S
C1605 C1586 1.429 . S
C1605 C1599 1.429 . S
C1605 C1606 1.523 . S
C1606 C1587 1.368 . S
C1606 C1600 1.368 . S
C1606 C1605 1.523 . S
C1607 C1591 1.429 . S
C1607 C1603 1.429 . S
C1607 C1608 1.523 . S
C1608 C1592 1.368 . S
C1608 C1604 1.368 . S
C1608 C1607 1.523 . S
H1609 C1584 0.950 . S
H1610 C1586 0.950 . S
H1611 C1587 0.949 . S
H1612 C1589 0.950 . S
H1613 C1591 0.950 . S
C1614 C1615 1.349 . S
C1614 C1616 1.327 . S
C1614 H1639 0.950 . S
C1615 C1614 1.349 . S
C1615 C1631 1.349 . S
C1616 C1614 1.327 . S
C1616 C1635 1.429 . S
C1616 H1640 0.950 . S
C1617 C1634 1.574 . S
C1617 C1636 1.368 . S
C1617 H1641 0.949 . S
H1618 C1622 0.949 . S
C1619 C1620 1.349 . S
C1619 C1621 1.327 . S
C1619 H1642 0.950 . S
C1620 C1619 1.349 . S
C1620 C1632 1.349 . S
C1621 C1619 1.327 . S
C1621 C1637 1.429 . S
C1621 H1643 0.950 . S
C1622 H1618 0.949 . S
C1622 C1630 1.574 . S
C1622 C1638 1.368 . S
H1623 C1631 0.950 . S
H1624 C1629 0.950 . S
H1625 C1630 0.949 . S
H1626 C1632 0.950 . S
H1627 C1633 0.950 . S
H1628 C1634 0.949 . S
C1629 H1624 0.950 . S
C1629 C1631 1.327 . S
C1629 C1635 1.429 . S
C1630 C1622 1.574 . S
C1630 H1625 0.949 . S
C1630 C1636 1.368 . S
C1631 C1615 1.349 . S
C1631 H1623 0.950 . S
C1631 C1629 1.327 . S
C1632 C1620 1.349 . S
C1632 H1626 0.950 . S
C1632 C1633 1.327 . S
C1633 H1627 0.950 . S
C1633 C1632 1.327 . S
C1633 C1637 1.429 . S
C1634 C1617 1.574 . S
C1634 H1628 0.949 . S
C1634 C1638 1.368 . S
C1635 C1616 1.429 . S
C1635 C1629 1.429 . S
C1635 C1636 1.523 . S
C1636 C1617 1.368 . S
C1636 C1630 1.368 . S
C1636 C1635 1.523 . S
C1637 C1621 1.429 . S
C1637 C1633 1.429 . S
C1637 C1638 1.523 . S
C1638 C1622 1.368 . S
C1638 C1634 1.368 . S
C1638 C1637 1.523 . S
H1639 C1614 0.950 . S
H1640 C1616 0.950 . S
H1641 C1617 0.949 . S
H1642 C1619 0.950 . S
H1643 C1621 0.950 . S
C1644 C1645 1.349 . S
C1644 C1646 1.327 . S
C1644 H1669 0.950 . S
C1645 C1644 1.349 . S
C1645 C1661 1.349 . S
C1646 C1644 1.327 . S
C1646 C1665 1.429 . S
C1646 H1670 0.950 . S
C1647 C1664 1.574 . S
C1647 C1666 1.368 . S
C1647 H1671 0.949 . S
H1648 C1652 0.949 . S
C1649 C1650 1.349 . S
C1649 C1651 1.327 . S
C1649 H1672 0.950 . S
C1650 C1649 1.349 . S
C1650 C1662 1.349 . S
C1651 C1649 1.327 . S
C1651 C1667 1.429 . S
C1651 H1673 0.950 . S
C1652 H1648 0.949 . S
C1652 C1660 1.574 . S
C1652 C1668 1.368 . S
H1653 C1661 0.950 . S
H1654 C1659 0.950 . S
H1655 C1660 0.949 . S
H1656 C1662 0.950 . S
H1657 C1663 0.950 . S
H1658 C1664 0.949 . S
C1659 H1654 0.950 . S
C1659 C1661 1.327 . S
C1659 C1665 1.429 . S
C1660 C1652 1.574 . S
C1660 H1655 0.949 . S
C1660 C1666 1.368 . S
C1661 C1645 1.349 . S
C1661 H1653 0.950 . S
C1661 C1659 1.327 . S
C1662 C1650 1.349 . S
C1662 H1656 0.950 . S
C1662 C1663 1.327 . S
C1663 H1657 0.950 . S
C1663 C1662 1.327 . S
C1663 C1667 1.429 . S
C1664 C1647 1.574 . S
C1664 H1658 0.949 . S
C1664 C1668 1.368 . S
C1665 C1646 1.429 . S
C1665 C1659 1.429 . S
C1665 C1666 1.523 . S
C1666 C1647 1.368 . S
C1666 C1660 1.368 . S
C1666 C1665 1.523 . S
C1667 C1651 1.429 . S
C1667 C1663 1.429 . S
C1667 C1668 1.523 . S
C1668 C1652 1.368 . S
C1668 C1664 1.368 . S
C1668 C1667 1.523 . S
H1669 C1644 0.950 . S
H1670 C1646 0.950 . S
H1671 C1647 0.949 . S
H1672 C1649 0.950 . S
H1673 C1651 0.950 . S
C1674 C1675 1.349 . S
C1674 C1676 1.327 . S
C1674 H1699 0.950 . S
C1675 C1674 1.349 . S
C1675 C1691 1.349 . S
C1676 C1674 1.327 . S
C1676 C1695 1.429 . S
C1676 H1700 0.950 . S
C1677 C1694 1.574 . S
C1677 C1696 1.368 . S
C1677 H1701 0.949 . S
H1678 C1682 0.949 . S
C1679 C1680 1.349 . S
C1679 C1681 1.327 . S
C1679 H1702 0.950 . S
C1680 C1679 1.349 . S
C1680 C1692 1.349 . S
C1681 C1679 1.327 . S
C1681 C1697 1.429 . S
C1681 H1703 0.950 . S
C1682 H1678 0.949 . S
C1682 C1690 1.574 . S
C1682 C1698 1.368 . S
H1683 C1691 0.950 . S
H1684 C1689 0.950 . S
H1685 C1690 0.949 . S
H1686 C1692 0.950 . S
H1687 C1693 0.950 . S
H1688 C1694 0.949 . S
C1689 H1684 0.950 . S
C1689 C1691 1.327 . S
C1689 C1695 1.429 . S
C1690 C1682 1.574 . S
C1690 H1685 0.949 . S
C1690 C1696 1.368 . S
C1691 C1675 1.349 . S
C1691 H1683 0.950 . S
C1691 C1689 1.327 . S
C1692 C1680 1.349 . S
C1692 H1686 0.950 . S
C1692 C1693 1.327 . S
C1693 H1687 0.950 . S
C1693 C1692 1.327 . S
C1693 C1697 1.429 . S
C1694 C1677 1.574 . S
C1694 H1688 0.949 . S
C1694 C1698 1.368 . S
C1695 C1676 1.429 . S
C1695 C1689 1.429 . S
C1695 C1696 1.523 . S
C1696 C1677 1.368 . S
C1696 C1690 1.368 . S
C1696 C1695 1.523 . S
C1697 C1681 1.429 . S
C1697 C1693 1.429 . S
C1697 C1698 1.523 . S
C1698 C1682 1.368 . S
C1698 C1694 1.368 . S
C1698 C1697 1.523 . S
H1699 C1674 0.950 . S
H1700 C1676 0.950 . S
H1701 C1677 0.949 . S
H1702 C1679 0.950 . S
H1703 C1681 0.950 . S
C1704 C1705 1.349 . S
C1704 C1706 1.327 . S
C1704 H1729 0.950 . S
C1705 C1704 1.349 . S
C1705 C1721 1.349 . S
C1706 C1704 1.327 . S
C1706 C1725 1.429 . S
C1706 H1730 0.950 . S
C1707 C1724 1.574 . S
C1707 C1726 1.368 . S
C1707 H1731 0.949 . S
H1708 C1712 0.949 . S
C1709 C1710 1.349 . S
C1709 C1711 1.327 . S
C1709 H1732 0.950 . S
C1710 C1709 1.349 . S
C1710 C1722 1.349 . S
C1711 C1709 1.327 . S
C1711 C1727 1.429 . S
C1711 H1733 0.950 . S
C1712 H1708 0.949 . S
C1712 C1720 1.574 . S
C1712 C1728 1.368 . S
H1713 C1721 0.950 . S
H1714 C1719 0.950 . S
H1715 C1720 0.949 . S
H1716 C1722 0.950 . S
H1717 C1723 0.950 . S
H1718 C1724 0.949 . S
C1719 H1714 0.950 . S
C1719 C1721 1.327 . S
C1719 C1725 1.429 . S
C1720 C1712 1.574 . S
C1720 H1715 0.949 . S
C1720 C1726 1.368 . S
C1721 C1705 1.349 . S
C1721 H1713 0.950 . S
C1721 C1719 1.327 . S
C1722 C1710 1.349 . S
C1722 H1716 0.950 . S
C1722 C1723 1.327 . S
C1723 H1717 0.950 . S
C1723 C1722 1.327 . S
C1723 C1727 1.429 . S
C1724 C1707 1.574 . S
C1724 H1718 0.949 . S
C1724 C1728 1.368 . S
C1725 C1706 1.429 . S
C1725 C1719 1.429 . S
C1725 C1726 1.523 . S
C1726 C1707 1.368 . S
C1726 C1720 1.368 . S
C1726 C1725 1.523 . S
C1727 C1711 1.429 . S
C1727 C1723 1.429 . S
C1727 C1728 1.523 . S
C1728 C1712 1.368 . S
C1728 C1724 1.368 . S
C1728 C1727 1.523 . S
H1729 C1704 0.950 . S
H1730 C1706 0.950 . S
H1731 C1707 0.949 . S
H1732 C1709 0.950 . S
H1733 C1711 0.950 . S
C1734 C1735 1.349 . S
C1734 C1736 1.327 . S
C1734 H1759 0.950 . S
C1735 C1734 1.349 . S
C1735 C1751 1.349 . S
C1736 C1734 1.327 . S
C1736 C1755 1.429 . S
C1736 H1760 0.950 . S
C1737 C1754 1.574 . S
C1737 C1756 1.368 . S
C1737 H1761 0.949 . S
H1738 C1742 0.949 . S
C1739 C1740 1.349 . S
C1739 C1741 1.327 . S
C1739 H1762 0.950 . S
C1740 C1739 1.349 . S
C1740 C1752 1.349 . S
C1741 C1739 1.327 . S
C1741 C1757 1.429 . S
C1741 H1763 0.950 . S
C1742 H1738 0.949 . S
C1742 C1750 1.574 . S
C1742 C1758 1.368 . S
H1743 C1751 0.950 . S
H1744 C1749 0.950 . S
H1745 C1750 0.949 . S
H1746 C1752 0.950 . S
H1747 C1753 0.950 . S
H1748 C1754 0.949 . S
C1749 H1744 0.950 . S
C1749 C1751 1.327 . S
C1749 C1755 1.429 . S
C1750 C1742 1.574 . S
C1750 H1745 0.949 . S
C1750 C1756 1.368 . S
C1751 C1735 1.349 . S
C1751 H1743 0.950 . S
C1751 C1749 1.327 . S
C1752 C1740 1.349 . S
C1752 H1746 0.950 . S
C1752 C1753 1.327 . S
C1753 H1747 0.950 . S
C1753 C1752 1.327 . S
C1753 C1757 1.429 . S
C1754 C1737 1.574 . S
C1754 H1748 0.949 . S
C1754 C1758 1.368 . S
C1755 C1736 1.429 . S
C1755 C1749 1.429 . S
C1755 C1756 1.523 . S
C1756 C1737 1.368 . S
C1756 C1750 1.368 . S
C1756 C1755 1.523 . S
C1757 C1741 1.429 . S
C1757 C1753 1.429 . S
C1757 C1758 1.523 . S
C1758 C1742 1.368 . S
C1758 C1754 1.368 . S
C1758 C1757 1.523 . S
H1759 C1734 0.950 . S
H1760 C1736 0.950 . S
H1761 C1737 0.949 . S
H1762 C1739 0.950 . S
H1763 C1741 0.950 . S
C1764 C1765 1.349 . S
C1764 C1766 1.327 . S
C1764 H1789 0.950 . S
C1765 C1764 1.349 . S
C1765 C1781 1.349 . S
C1766 C1764 1.327 . S
C1766 C1785 1.429 . S
C1766 H1790 0.950 . S
C1767 C1784 1.574 . S
C1767 C1786 1.368 . S
C1767 H1791 0.949 . S
H1768 C1772 0.949 . S
C1769 C1770 1.349 . S
C1769 C1771 1.327 . S
C1769 H1792 0.950 . S
C1770 C1769 1.349 . S
C1770 C1782 1.349 . S
C1771 C1769 1.327 . S
C1771 C1787 1.429 . S
C1771 H1793 0.950 . S
C1772 H1768 0.949 . S
C1772 C1780 1.574 . S
C1772 C1788 1.368 . S
H1773 C1781 0.950 . S
H1774 C1779 0.950 . S
H1775 C1780 0.949 . S
H1776 C1782 0.950 . S
H1777 C1783 0.950 . S
H1778 C1784 0.949 . S
C1779 H1774 0.950 . S
C1779 C1781 1.327 . S
C1779 C1785 1.429 . S
C1780 C1772 1.574 . S
C1780 H1775 0.949 . S
C1780 C1786 1.368 . S
C1781 C1765 1.349 . S
C1781 H1773 0.950 . S
C1781 C1779 1.327 . S
C1782 C1770 1.349 . S
C1782 H1776 0.950 . S
C1782 C1783 1.327 . S
C1783 H1777 0.950 . S
C1783 C1782 1.327 . S
C1783 C1787 1.429 . S
C1784 C1767 1.574 . S
C1784 H1778 0.949 . S
C1784 C1788 1.368 . S
C1785 C1766 1.429 . S
C1785 C1779 1.429 . S
C1785 C1786 1.523 . S
C1786 C1767 1.368 . S
C1786 C1780 1.368 . S
C1786 C1785 1.523 . S
C1787 C1771 1.429 . S
C1787 C1783 1.429 . S
C1787 C1788 1.523 . S
C1788 C1772 1.368 . S
C1788 C1784 1.368 . S
C1788 C1787 1.523 . S
H1789 C1764 0.950 . S
H1790 C1766 0.950 . S
H1791 C1767 0.949 . S
H1792 C1769 0.950 . S
H1793 C1771 0.950 . S
C1794 C1795 1.349 . S
C1794 C1796 1.327 . S
C1794 H1819 0.950 . S
C1795 C1794 1.349 . S
C1795 C1811 1.349 . S
C1796 C1794 1.327 . S
C1796 C1815 1.429 . S
C1796 H1820 0.950 . S
C1797 C1814 1.574 . S
C1797 C1816 1.368 . S
C1797 H1821 0.949 . S
H1798 C1802 0.949 . S
C1799 C1800 1.349 . S
C1799 C1801 1.327 . S
C1799 H1822 0.950 . S
C1800 C1799 1.349 . S
C1800 C1812 1.349 . S
C1801 C1799 1.327 . S
C1801 C1817 1.429 . S
C1801 H1823 0.950 . S
C1802 H1798 0.949 . S
C1802 C1810 1.574 . S
C1802 C1818 1.368 . S
H1803 C1811 0.950 . S
H1804 C1809 0.950 . S
H1805 C1810 0.949 . S
H1806 C1812 0.950 . S
H1807 C1813 0.950 . S
H1808 C1814 0.949 . S
C1809 H1804 0.950 . S
C1809 C1811 1.327 . S
C1809 C1815 1.429 . S
C1810 C1802 1.574 . S
C1810 H1805 0.949 . S
C1810 C1816 1.368 . S
C1811 C1795 1.349 . S
C1811 H1803 0.950 . S
C1811 C1809 1.327 . S
C1812 C1800 1.349 . S
C1812 H1806 0.950 . S
C1812 C1813 1.327 . S
C1813 H1807 0.950 . S
C1813 C1812 1.327 . S
C1813 C1817 1.429 . S
C1814 C1797 1.574 . S
C1814 H1808 0.949 . S
C1814 C1818 1.368 . S
C1815 C1796 1.429 . S
C1815 C1809 1.429 . S
C1815 C1816 1.523 . S
C1816 C1797 1.368 . S
C1816 C1810 1.368 . S
C1816 C1815 1.523 . S
C1817 C1801 1.429 . S
C1817 C1813 1.429 . S
C1817 C1818 1.523 . S
C1818 C1802 1.368 . S
C1818 C1814 1.368 . S
C1818 C1817 1.523 . S
H1819 C1794 0.950 . S
H1820 C1796 0.950 . S
H1821 C1797 0.949 . S
H1822 C1799 0.950 . S
H1823 C1801 0.950 . S
C1824 C1825 1.349 . S
C1824 C1826 1.327 . S
C1824 H1849 0.950 . S
C1825 C1824 1.349 . S
C1825 C1841 1.349 . S
C1826 C1824 1.327 . S
C1826 C1845 1.429 . S
C1826 H1850 0.950 . S
C1827 C1844 1.574 . S
C1827 C1846 1.368 . S
C1827 H1851 0.949 . S
H1828 C1832 0.949 . S
C1829 C1830 1.349 . S
C1829 C1831 1.327 . S
C1829 H1852 0.950 . S
C1830 C1829 1.349 . S
C1830 C1842 1.349 . S
C1831 C1829 1.327 . S
C1831 C1847 1.429 . S
C1831 H1853 0.950 . S
C1832 H1828 0.949 . S
C1832 C1840 1.574 . S
C1832 C1848 1.368 . S
H1833 C1841 0.950 . S
H1834 C1839 0.950 . S
H1835 C1840 0.949 . S
H1836 C1842 0.950 . S
H1837 C1843 0.950 . S
H1838 C1844 0.949 . S
C1839 H1834 0.950 . S
C1839 C1841 1.327 . S
C1839 C1845 1.429 . S
C1840 C1832 1.574 . S
C1840 H1835 0.949 . S
C1840 C1846 1.368 . S
C1841 C1825 1.349 . S
C1841 H1833 0.950 . S
C1841 C1839 1.327 . S
C1842 C1830 1.349 . S
C1842 H1836 0.950 . S
C1842 C1843 1.327 . S
C1843 H1837 0.950 . S
C1843 C1842 1.327 . S
C1843 C1847 1.429 . S
C1844 C1827 1.574 . S
C1844 H1838 0.949 . S
C1844 C1848 1.368 . S
C1845 C1826 1.429 . S
C1845 C1839 1.429 . S
C1845 C1846 1.523 . S
C1846 C1827 1.368 . S
C1846 C1840 1.368 . S
C1846 C1845 1.523 . S
C1847 C1831 1.429 . S
C1847 C1843 1.429 . S
C1847 C1848 1.523 . S
C1848 C1832 1.368 . S
C1848 C1844 1.368 . S
C1848 C1847 1.523 . S
H1849 C1824 0.950 . S
H1850 C1826 0.950 . S
H1851 C1827 0.949 . S
H1852 C1829 0.950 . S
H1853 C1831 0.950 . S
C1854 C1855 1.349 . S
C1854 C1856 1.327 . S
C1854 H1879 0.950 . S
C1855 C1854 1.349 . S
C1855 C1871 1.349 . S
C1856 C1854 1.327 . S
C1856 C1875 1.429 . S
C1856 H1880 0.950 . S
C1857 C1874 1.574 . S
C1857 C1876 1.368 . S
C1857 H1881 0.949 . S
H1858 C1862 0.949 . S
C1859 C1860 1.349 . S
C1859 C1861 1.327 . S
C1859 H1882 0.950 . S
C1860 C1859 1.349 . S
C1860 C1872 1.349 . S
C1861 C1859 1.327 . S
C1861 C1877 1.429 . S
C1861 H1883 0.950 . S
C1862 H1858 0.949 . S
C1862 C1870 1.574 . S
C1862 C1878 1.368 . S
H1863 C1871 0.950 . S
H1864 C1869 0.950 . S
H1865 C1870 0.949 . S
H1866 C1872 0.950 . S
H1867 C1873 0.950 . S
H1868 C1874 0.949 . S
C1869 H1864 0.950 . S
C1869 C1871 1.327 . S
C1869 C1875 1.429 . S
C1870 C1862 1.574 . S
C1870 H1865 0.949 . S
C1870 C1876 1.368 . S
C1871 C1855 1.349 . S
C1871 H1863 0.950 . S
C1871 C1869 1.327 . S
C1872 C1860 1.349 . S
C1872 H1866 0.950 . S
C1872 C1873 1.327 . S
C1873 H1867 0.950 . S
C1873 C1872 1.327 . S
C1873 C1877 1.429 . S
C1874 C1857 1.574 . S
C1874 H1868 0.949 . S
C1874 C1878 1.368 . S
C1875 C1856 1.429 . S
C1875 C1869 1.429 . S
C1875 C1876 1.523 . S
C1876 C1857 1.368 . S
C1876 C1870 1.368 . S
C1876 C1875 1.523 . S
C1877 C1861 1.429 . S
C1877 C1873 1.429 . S
C1877 C1878 1.523 . S
C1878 C1862 1.368 . S
C1878 C1874 1.368 . S
C1878 C1877 1.523 . S
H1879 C1854 0.950 . S
H1880 C1856 0.950 . S
H1881 C1857 0.949 . S
H1882 C1859 0.950 . S
H1883 C1861 0.950 . S
C1884 C1885 1.349 . S
C1884 C1886 1.327 . S
C1884 H1909 0.950 . S
C1885 C1884 1.349 . S
C1885 C1901 1.349 . S
C1886 C1884 1.327 . S
C1886 C1905 1.429 . S
C1886 H1910 0.950 . S
C1887 C1904 1.574 . S
C1887 C1906 1.368 . S
C1887 H1911 0.949 . S
H1888 C1892 0.949 . S
C1889 C1890 1.349 . S
C1889 C1891 1.327 . S
C1889 H1912 0.950 . S
C1890 C1889 1.349 . S
C1890 C1902 1.349 . S
C1891 C1889 1.327 . S
C1891 C1907 1.429 . S
C1891 H1913 0.950 . S
C1892 H1888 0.949 . S
C1892 C1900 1.574 . S
C1892 C1908 1.368 . S
H1893 C1901 0.950 . S
H1894 C1899 0.950 . S
H1895 C1900 0.949 . S
H1896 C1902 0.950 . S
H1897 C1903 0.950 . S
H1898 C1904 0.949 . S
C1899 H1894 0.950 . S
C1899 C1901 1.327 . S
C1899 C1905 1.429 . S
C1900 C1892 1.574 . S
C1900 H1895 0.949 . S
C1900 C1906 1.368 . S
C1901 C1885 1.349 . S
C1901 H1893 0.950 . S
C1901 C1899 1.327 . S
C1902 C1890 1.349 . S
C1902 H1896 0.950 . S
C1902 C1903 1.327 . S
C1903 H1897 0.950 . S
C1903 C1902 1.327 . S
C1903 C1907 1.429 . S
C1904 C1887 1.574 . S
C1904 H1898 0.949 . S
C1904 C1908 1.368 . S
C1905 C1886 1.429 . S
C1905 C1899 1.429 . S
C1905 C1906 1.523 . S
C1906 C1887 1.368 . S
C1906 C1900 1.368 . S
C1906 C1905 1.523 . S
C1907 C1891 1.429 . S
C1907 C1903 1.429 . S
C1907 C1908 1.523 . S
C1908 C1892 1.368 . S
C1908 C1904 1.368 . S
C1908 C1907 1.523 . S
H1909 C1884 0.950 . S
H1910 C1886 0.950 . S
H1911 C1887 0.949 . S
H1912 C1889 0.950 . S
H1913 C1891 0.950 . S
C1914 C1915 1.349 . S
C1914 C1916 1.327 . S
C1914 H1939 0.950 . S
C1915 C1914 1.349 . S
C1915 C1931 1.349 . S
C1916 C1914 1.327 . S
C1916 C1935 1.429 . S
C1916 H1940 0.950 . S
C1917 C1934 1.574 . S
C1917 C1936 1.368 . S
C1917 H1941 0.949 . S
H1918 C1922 0.949 . S
C1919 C1920 1.349 . S
C1919 C1921 1.327 . S
C1919 H1942 0.950 . S
C1920 C1919 1.349 . S
C1920 C1932 1.349 . S
C1921 C1919 1.327 . S
C1921 C1937 1.429 . S
C1921 H1943 0.950 . S
C1922 H1918 0.949 . S
C1922 C1930 1.574 . S
C1922 C1938 1.368 . S
H1923 C1931 0.950 . S
H1924 C1929 0.950 . S
H1925 C1930 0.949 . S
H1926 C1932 0.950 . S
H1927 C1933 0.950 . S
H1928 C1934 0.949 . S
C1929 H1924 0.950 . S
C1929 C1931 1.327 . S
C1929 C1935 1.429 . S
C1930 C1922 1.574 . S
C1930 H1925 0.949 . S
C1930 C1936 1.368 . S
C1931 C1915 1.349 . S
C1931 H1923 0.950 . S
C1931 C1929 1.327 . S
C1932 C1920 1.349 . S
C1932 H1926 0.950 . S
C1932 C1933 1.327 . S
C1933 H1927 0.950 . S
C1933 C1932 1.327 . S
C1933 C1937 1.429 . S
C1934 C1917 1.574 . S
C1934 H1928 0.949 . S
C1934 C1938 1.368 . S
C1935 C1916 1.429 . S
C1935 C1929 1.429 . S
C1935 C1936 1.523 . S
C1936 C1917 1.368 . S
C1936 C1930 1.368 . S
C1936 C1935 1.523 . S
C1937 C1921 1.429 . S
C1937 C1933 1.429 . S
C1937 C1938 1.523 . S
C1938 C1922 1.368 . S
C1938 C1934 1.368 . S
C1938 C1937 1.523 . S
H1939 C1914 0.950 . S
H1940 C1916 0.950 . S
H1941 C1917 0.949 . S
H1942 C1919 0.950 . S
H1943 C1921 0.950 . S
C1944 C1945 1.349 . S
C1944 C1946 1.327 . S
C1944 H1969 0.950 . S
C1945 C1944 1.349 . S
C1945 C1961 1.349 . S
C1946 C1944 1.327 . S
C1946 C1965 1.429 . S
C1946 H1970 0.950 . S
C1947 C1964 1.574 . S
C1947 C1966 1.368 . S
C1947 H1971 0.949 . S
H1948 C1952 0.949 . S
C1949 C1950 1.349 . S
C1949 C1951 1.327 . S
C1949 H1972 0.950 . S
C1950 C1949 1.349 . S
C1950 C1962 1.349 . S
C1951 C1949 1.327 . S
C1951 C1967 1.429 . S
C1951 H1973 0.950 . S
C1952 H1948 0.949 . S
C1952 C1960 1.574 . S
C1952 C1968 1.368 . S
H1953 C1961 0.950 . S
H1954 C1959 0.950 . S
H1955 C1960 0.949 . S
H1956 C1962 0.950 . S
H1957 C1963 0.950 . S
H1958 C1964 0.949 . S
C1959 H1954 0.950 . S
C1959 C1961 1.327 . S
C1959 C1965 1.429 . S
C1960 C1952 1.574 . S
C1960 H1955 0.949 . S
C1960 C1966 1.368 . S
C1961 C1945 1.349 . S
C1961 H1953 0.950 . S
C1961 C1959 1.327 . S
C1962 C1950 1.349 . S
C1962 H1956 0.950 . S
C1962 C1963 1.327 . S
C1963 H1957 0.950 . S
C1963 C1962 1.327 . S
C1963 C1967 1.429 . S
C1964 C1947 1.574 . S
C1964 H1958 0.949 . S
C1964 C1968 1.368 . S
C1965 C1946 1.429 . S
C1965 C1959 1.429 . S
C1965 C1966 1.523 . S
C1966 C1947 1.368 . S
C1966 C1960 1.368 . S
C1966 C1965 1.523 . S
C1967 C1951 1.429 . S
C1967 C1963 1.429 . S
C1967 C1968 1.523 . S
C1968 C1952 1.368 . S
C1968 C1964 1.368 . S
C1968 C1967 1.523 . S
H1969 C1944 0.950 . S
H1970 C1946 0.950 . S
H1971 C1947 0.949 . S
H1972 C1949 0.950 . S
H1973 C1951 0.950 . S
C1974 C1975 1.349 . S
C1974 C1976 1.327 . S
C1974 H1999 0.950 . S
C1975 C1974 1.349 . S
C1975 C1991 1.349 . S
C1976 C1974 1.327 . S
C1976 C1995 1.429 . S
C1976 H2000 0.950 . S
C1977 C1994 1.574 . S
C1977 C1996 1.368 . S
C1977 H2001 0.949 . S
H1978 C1982 0.949 . S
C1979 C1980 1.349 . S
C1979 C1981 1.327 . S
C1979 H2002 0.950 . S
C1980 C1979 1.349 . S
C1980 C1992 1.349 . S
C1981 C1979 1.327 . S
C1981 C1997 1.429 . S
C1981 H2003 0.950 . S
C1982 H1978 0.949 . S
C1982 C1990 1.574 . S
C1982 C1998 1.368 . S
H1983 C1991 0.950 . S
H1984 C1989 0.950 . S
H1985 C1990 0.949 . S
H1986 C1992 0.950 . S
H1987 C1993 0.950 . S
H1988 C1994 0.949 . S
C1989 H1984 0.950 . S
C1989 C1991 1.327 . S
C1989 C1995 1.429 . S
C1990 C1982 1.574 . S
C1990 H1985 0.949 . S
C1990 C1996 1.368 . S
C1991 C1975 1.349 . S
C1991 H1983 0.950 . S
C1991 C1989 1.327 . S
C1992 C1980 1.349 . S
C1992 H1986 0.950 . S
C1992 C1993 1.327 . S
C1993 H1987 0.950 . S
C1993 C1992 1.327 . S
C1993 C1997 1.429 . S
C1994 C1977 1.574 . S
C1994 H1988 0.949 . S
C1994 C1998 1.368 . S
C1995 C1976 1.429 . S
C1995 C1989 1.429 . S
C1995 C1996 1.523 . S
C1996 C1977 1.368 . S
C1996 C1990 1.368 . S
C1996 C1995 1.523 . S
C1997 C1981 1.429 . S
C1997 C1993 1.429 . S
C1997 C1998 1.523 . S
C1998 C1982 1.368 . S
C1998 C1994 1.368 . S
C1998 C1997 1.523 . S
H1999 C1974 0.950 . S
H2000 C1976 0.950 . S
H2001 C1977 0.949 . S
H2002 C1979 0.950 . S
H2003 C1981 0.950 . S
C2004 C2005 1.349 . S
C2004 C2006 1.327 . S
C2004 H2029 0.950 . S
C2005 C2004 1.349 . S
C2005 C2021 1.349 . S
C2006 C2004 1.327 . S
C2006 C2025 1.429 . S
C2006 H2030 0.950 . S
C2007 C2024 1.574 . S
C2007 C2026 1.368 . S
C2007 H2031 0.949 . S
H2008 C2012 0.949 . S
C2009 C2010 1.349 . S
C2009 C2011 1.327 . S
C2009 H2032 0.950 . S
C2010 C2009 1.349 . S
C2010 C2022 1.349 . S
C2011 C2009 1.327 . S
C2011 C2027 1.429 . S
C2011 H2033 0.950 . S
C2012 H2008 0.949 . S
C2012 C2020 1.574 . S
C2012 C2028 1.368 . S
H2013 C2021 0.950 . S
H2014 C2019 0.950 . S
H2015 C2020 0.949 . S
H2016 C2022 0.950 . S
H2017 C2023 0.950 . S
H2018 C2024 0.949 . S
C2019 H2014 0.950 . S
C2019 C2021 1.327 . S
C2019 C2025 1.429 . S
C2020 C2012 1.574 . S
C2020 H2015 0.949 . S
C2020 C2026 1.368 . S
C2021 C2005 1.349 . S
C2021 H2013 0.950 . S
C2021 C2019 1.327 . S
C2022 C2010 1.349 . S
C2022 H2016 0.950 . S
C2022 C2023 1.327 . S
C2023 H2017 0.950 . S
C2023 C2022 1.327 . S
C2023 C2027 1.429 . S
C2024 C2007 1.574 . S
C2024 H2018 0.949 . S
C2024 C2028 1.368 . S
C2025 C2006 1.429 . S
C2025 C2019 1.429 . S
C2025 C2026 1.523 . S
C2026 C2007 1.368 . S
C2026 C2020 1.368 . S
C2026 C2025 1.523 . S
C2027 C2011 1.429 . S
C2027 C2023 1.429 . S
C2027 C2028 1.523 . S
C2028 C2012 1.368 . S
C2028 C2024 1.368 . S
C2028 C2027 1.523 . S
H2029 C2004 0.950 . S
H2030 C2006 0.950 . S
H2031 C2007 0.949 . S
H2032 C2009 0.950 . S
H2033 C2011 0.950 . S
C2034 C2035 1.349 . S
C2034 C2036 1.327 . S
C2034 H2059 0.950 . S
C2035 C2034 1.349 . S
C2035 C2051 1.349 . S
C2036 C2034 1.327 . S
C2036 C2055 1.429 . S
C2036 H2060 0.950 . S
C2037 C2054 1.574 . S
C2037 C2056 1.368 . S
C2037 H2061 0.949 . S
H2038 C2042 0.949 . S
C2039 C2040 1.349 . S
C2039 C2041 1.327 . S
C2039 H2062 0.950 . S
C2040 C2039 1.349 . S
C2040 C2052 1.349 . S
C2041 C2039 1.327 . S
C2041 C2057 1.429 . S
C2041 H2063 0.950 . S
C2042 H2038 0.949 . S
C2042 C2050 1.574 . S
C2042 C2058 1.368 . S
H2043 C2051 0.950 . S
H2044 C2049 0.950 . S
H2045 C2050 0.949 . S
H2046 C2052 0.950 . S
H2047 C2053 0.950 . S
H2048 C2054 0.949 . S
C2049 H2044 0.950 . S
C2049 C2051 1.327 . S
C2049 C2055 1.429 . S
C2050 C2042 1.574 . S
C2050 H2045 0.949 . S
C2050 C2056 1.368 . S
C2051 C2035 1.349 . S
C2051 H2043 0.950 . S
C2051 C2049 1.327 . S
C2052 C2040 1.349 . S
C2052 H2046 0.950 . S
C2052 C2053 1.327 . S
C2053 H2047 0.950 . S
C2053 C2052 1.327 . S
C2053 C2057 1.429 . S
C2054 C2037 1.574 . S
C2054 H2048 0.949 . S
C2054 C2058 1.368 . S
C2055 C2036 1.429 . S
C2055 C2049 1.429 . S
C2055 C2056 1.523 . S
C2056 C2037 1.368 . S
C2056 C2050 1.368 . S
C2056 C2055 1.523 . S
C2057 C2041 1.429 . S
C2057 C2053 1.429 . S
C2057 C2058 1.523 . S
C2058 C2042 1.368 . S
C2058 C2054 1.368 . S
C2058 C2057 1.523 . S
H2059 C2034 0.950 . S
H2060 C2036 0.950 . S
H2061 C2037 0.949 . S
H2062 C2039 0.950 . S
H2063 C2041 0.950 . S
C2064 C2065 1.349 . S
C2064 C2066 1.327 . S
C2064 H2089 0.950 . S
C2065 C2064 1.349 . S
C2065 C2081 1.349 . S
C2066 C2064 1.327 . S
C2066 C2085 1.429 . S
C2066 H2090 0.950 . S
C2067 C2084 1.574 . S
C2067 C2086 1.368 . S
C2067 H2091 0.949 . S
H2068 C2072 0.949 . S
C2069 C2070 1.349 . S
C2069 C2071 1.327 . S
C2069 H2092 0.950 . S
C2070 C2069 1.349 . S
C2070 C2082 1.349 . S
C2071 C2069 1.327 . S
C2071 C2087 1.429 . S
C2071 H2093 0.950 . S
C2072 H2068 0.949 . S
C2072 C2080 1.574 . S
C2072 C2088 1.368 . S
H2073 C2081 0.950 . S
H2074 C2079 0.950 . S
H2075 C2080 0.949 . S
H2076 C2082 0.950 . S
H2077 C2083 0.950 . S
H2078 C2084 0.949 . S
C2079 H2074 0.950 . S
C2079 C2081 1.327 . S
C2079 C2085 1.429 . S
C2080 C2072 1.574 . S
C2080 H2075 0.949 . S
C2080 C2086 1.368 . S
C2081 C2065 1.349 . S
C2081 H2073 0.950 . S
C2081 C2079 1.327 . S
C2082 C2070 1.349 . S
C2082 H2076 0.950 . S
C2082 C2083 1.327 . S
C2083 H2077 0.950 . S
C2083 C2082 1.327 . S
C2083 C2087 1.429 . S
C2084 C2067 1.574 . S
C2084 H2078 0.949 . S
C2084 C2088 1.368 . S
C2085 C2066 1.429 . S
C2085 C2079 1.429 . S
C2085 C2086 1.523 . S
C2086 C2067 1.368 . S
C2086 C2080 1.368 . S
C2086 C2085 1.523 . S
C2087 C2071 1.429 . S
C2087 C2083 1.429 . S
C2087 C2088 1.523 . S
C2088 C2072 1.368 . S
C2088 C2084 1.368 . S
C2088 C2087 1.523 . S
H2089 C2064 0.950 . S
H2090 C2066 0.950 . S
H2091 C2067 0.949 . S
H2092 C2069 0.950 . S
H2093 C2071 0.950 . S
C2094 C2095 1.349 . S
C2094 C2096 1.327 . S
C2094 H2119 0.950 . S
C2095 C2094 1.349 . S
C2095 C2111 1.349 . S
C2096 C2094 1.327 . S
C2096 C2115 1.429 . S
C2096 H2120 0.950 . S
C2097 C2114 1.574 . S
C2097 C2116 1.368 . S
C2097 H2121 0.949 . S
H2098 C2102 0.949 . S
C2099 C2100 1.349 . S
C2099 C2101 1.327 . S
C2099 H2122 0.950 . S
C2100 C2099 1.349 . S
C2100 C2112 1.349 . S
C2101 C2099 1.327 . S
C2101 C2117 1.429 . S
C2101 H2123 0.950 . S
C2102 H2098 0.949 . S
C2102 C2110 1.574 . S
C2102 C2118 1.368 . S
H2103 C2111 0.950 . S
H2104 C2109 0.950 . S
H2105 C2110 0.949 . S
H2106 C2112 0.950 . S
H2107 C2113 0.950 . S
H2108 C2114 0.949 . S
C2109 H2104 0.950 . S
C2109 C2111 1.327 . S
C2109 C2115 1.429 . S
C2110 C2102 1.574 . S
C2110 H2105 0.949 . S
C2110 C2116 1.368 . S
C2111 C2095 1.349 . S
C2111 H2103 0.950 . S
C2111 C2109 1.327 . S
C2112 C2100 1.349 . S
C2112 H2106 0.950 . S
C2112 C2113 1.327 . S
C2113 H2107 0.950 . S
C2113 C2112 1.327 . S
C2113 C2117 1.429 . S
C2114 C2097 1.574 . S
C2114 H2108 0.949 . S
C2114 C2118 1.368 . S
C2115 C2096 1.429 . S
C2115 C2109 1.429 . S
C2115 C2116 1.523 . S
C2116 C2097 1.368 . S
C2116 C2110 1.368 . S
C2116 C2115 1.523 . S
C2117 C2101 1.429 . S
C2117 C2113 1.429 . S
C2117 C2118 1.523 . S
C2118 C2102 1.368 . S
C2118 C2114 1.368 . S
C2118 C2117 1.523 . S
H2119 C2094 0.950 . S
H2120 C2096 0.950 . S
H2121 C2097 0.949 . S
H2122 C2099 0.950 . S
H2123 C2101 0.950 . S
C2124 C2125 1.349 . S
C2124 C2126 1.327 . S
C2124 H2149 0.950 . S
C2125 C2124 1.349 . S
C2125 C2141 1.349 . S
C2126 C2124 1.327 . S
C2126 C2145 1.429 . S
C2126 H2150 0.950 . S
C2127 C2144 1.574 . S
C2127 C2146 1.368 . S
C2127 H2151 0.949 . S
H2128 C2132 0.949 . S
C2129 C2130 1.349 . S
C2129 C2131 1.327 . S
C2129 H2152 0.950 . S
C2130 C2129 1.349 . S
C2130 C2142 1.349 . S
C2131 C2129 1.327 . S
C2131 C2147 1.429 . S
C2131 H2153 0.950 . S
C2132 H2128 0.949 . S
C2132 C2140 1.574 . S
C2132 C2148 1.368 . S
H2133 C2141 0.950 . S
H2134 C2139 0.950 . S
H2135 C2140 0.949 . S
H2136 C2142 0.950 . S
H2137 C2143 0.950 . S
H2138 C2144 0.949 . S
C2139 H2134 0.950 . S
C2139 C2141 1.327 . S
C2139 C2145 1.429 . S
C2140 C2132 1.574 . S
C2140 H2135 0.949 . S
C2140 C2146 1.368 . S
C2141 C2125 1.349 . S
C2141 H2133 0.950 . S
C2141 C2139 1.327 . S
C2142 C2130 1.349 . S
C2142 H2136 0.950 . S
C2142 C2143 1.327 . S
C2143 H2137 0.950 . S
C2143 C2142 1.327 . S
C2143 C2147 1.429 . S
C2144 C2127 1.574 . S
C2144 H2138 0.949 . S
C2144 C2148 1.368 . S
C2145 C2126 1.429 . S
C2145 C2139 1.429 . S
C2145 C2146 1.523 . S
C2146 C2127 1.368 . S
C2146 C2140 1.368 . S
C2146 C2145 1.523 . S
C2147 C2131 1.429 . S
C2147 C2143 1.429 . S
C2147 C2148 1.523 . S
C2148 C2132 1.368 . S
C2148 C2144 1.368 . S
C2148 C2147 1.523 . S
H2149 C2124 0.950 . S
H2150 C2126 0.950 . S
H2151 C2127 0.949 . S
H2152 C2129 0.950 . S
H2153 C2131 0.950 . S
C2154 C2155 1.349 . S
C2154 C2156 1.327 . S
C2154 H2179 0.950 . S
C2155 C2154 1.349 . S
C2155 C2171 1.349 . S
C2156 C2154 1.327 . S
C2156 C2175 1.429 . S
C2156 H2180 0.950 . S
C2157 C2174 1.574 . S
C2157 C2176 1.368 . S
C2157 H2181 0.949 . S
H2158 C2162 0.949 . S
C2159 C2160 1.349 . S
C2159 C2161 1.327 . S
C2159 H2182 0.950 . S
C2160 C2159 1.349 . S
C2160 C2172 1.349 . S
C2161 C2159 1.327 . S
C2161 C2177 1.429 . S
C2161 H2183 0.950 . S
C2162 H2158 0.949 . S
C2162 C2170 1.574 . S
C2162 C2178 1.368 . S
H2163 C2171 0.950 . S
H2164 C2169 0.950 . S
H2165 C2170 0.949 . S
H2166 C2172 0.950 . S
H2167 C2173 0.950 . S
H2168 C2174 0.949 . S
C2169 H2164 0.950 . S
C2169 C2171 1.327 . S
C2169 C2175 1.429 . S
C2170 C2162 1.574 . S
C2170 H2165 0.949 . S
C2170 C2176 1.368 . S
C2171 C2155 1.349 . S
C2171 H2163 0.950 . S
C2171 C2169 1.327 . S
C2172 C2160 1.349 . S
C2172 H2166 0.950 . S
C2172 C2173 1.327 . S
C2173 H2167 0.950 . S
C2173 C2172 1.327 . S
C2173 C2177 1.429 . S
C2174 C2157 1.574 . S
C2174 H2168 0.949 . S
C2174 C2178 1.368 . S
C2175 C2156 1.429 . S
C2175 C2169 1.429 . S
C2175 C2176 1.523 . S
C2176 C2157 1.368 . S
C2176 C2170 1.368 . S
C2176 C2175 1.523 . S
C2177 C2161 1.429 . S
C2177 C2173 1.429 . S
C2177 C2178 1.523 . S
C2178 C2162 1.368 . S
C2178 C2174 1.368 . S
C2178 C2177 1.523 . S
H2179 C2154 0.950 . S
H2180 C2156 0.950 . S
H2181 C2157 0.949 . S
H2182 C2159 0.950 . S
H2183 C2161 0.950 . S
C2184 C2185 1.349 . S
C2184 C2186 1.327 . S
C2184 H2209 0.950 . S
C2185 C2184 1.349 . S
C2185 C2201 1.349 . S
C2186 C2184 1.327 . S
C2186 C2205 1.429 . S
C2186 H2210 0.950 . S
C2187 C2204 1.574 . S
C2187 C2206 1.368 . S
C2187 H2211 0.949 . S
H2188 C2192 0.949 . S
C2189 C2190 1.349 . S
C2189 C2191 1.327 . S
C2189 H2212 0.950 . S
C2190 C2189 1.349 . S
C2190 C2202 1.349 . S
C2191 C2189 1.327 . S
C2191 C2207 1.429 . S
C2191 H2213 0.950 . S
C2192 H2188 0.949 . S
C2192 C2200 1.574 . S
C2192 C2208 1.368 . S
H2193 C2201 0.950 . S
H2194 C2199 0.950 . S
H2195 C2200 0.949 . S
H2196 C2202 0.950 . S
H2197 C2203 0.950 . S
H2198 C2204 0.949 . S
C2199 H2194 0.950 . S
C2199 C2201 1.327 . S
C2199 C2205 1.429 . S
C2200 C2192 1.574 . S
C2200 H2195 0.949 . S
C2200 C2206 1.368 . S
C2201 C2185 1.349 . S
C2201 H2193 0.950 . S
C2201 C2199 1.327 . S
C2202 C2190 1.349 . S
C2202 H2196 0.950 . S
C2202 C2203 1.327 . S
C2203 H2197 0.950 . S
C2203 C2202 1.327 . S
C2203 C2207 1.429 . S
C2204 C2187 1.574 . S
C2204 H2198 0.949 . S
C2204 C2208 1.368 . S
C2205 C2186 1.429 . S
C2205 C2199 1.429 . S
C2205 C2206 1.523 . S
C2206 C2187 1.368 . S
C2206 C2200 1.368 . S
C2206 C2205 1.523 . S
C2207 C2191 1.429 . S
C2207 C2203 1.429 . S
C2207 C2208 1.523 . S
C2208 C2192 1.368 . S
C2208 C2204 1.368 . S
C2208 C2207 1.523 . S
H2209 C2184 0.950 . S
H2210 C2186 0.950 . S
H2211 C2187 0.949 . S
H2212 C2189 0.950 . S
H2213 C2191 0.950 . S
C2214 C2215 1.349 . S
C2214 C2216 1.327 . S
C2214 H2239 0.950 . S
C2215 C2214 1.349 . S
C2215 C2231 1.349 . S
C2216 C2214 1.327 . S
C2216 C2235 1.429 . S
C2216 H2240 0.950 . S
C2217 C2234 1.574 . S
C2217 C2236 1.368 . S
C2217 H2241 0.949 . S
H2218 C2222 0.949 . S
C2219 C2220 1.349 . S
C2219 C2221 1.327 . S
C2219 H2242 0.950 . S
C2220 C2219 1.349 . S
C2220 C2232 1.349 . S
C2221 C2219 1.327 . S
C2221 C2237 1.429 . S
C2221 H2243 0.950 . S
C2222 H2218 0.949 . S
C2222 C2230 1.574 . S
C2222 C2238 1.368 . S
H2223 C2231 0.950 . S
H2224 C2229 0.950 . S
H2225 C2230 0.949 . S
H2226 C2232 0.950 . S
H2227 C2233 0.950 . S
H2228 C2234 0.949 . S
C2229 H2224 0.950 . S
C2229 C2231 1.327 . S
C2229 C2235 1.429 . S
C2230 C2222 1.574 . S
C2230 H2225 0.949 . S
C2230 C2236 1.368 . S
C2231 C2215 1.349 . S
C2231 H2223 0.950 . S
C2231 C2229 1.327 . S
C2232 C2220 1.349 . S
C2232 H2226 0.950 . S
C2232 C2233 1.327 . S
C2233 H2227 0.950 . S
C2233 C2232 1.327 . S
C2233 C2237 1.429 . S
C2234 C2217 1.574 . S
C2234 H2228 0.949 . S
C2234 C2238 1.368 . S
C2235 C2216 1.429 . S
C2235 C2229 1.429 . S
C2235 C2236 1.523 . S
C2236 C2217 1.368 . S
C2236 C2230 1.368 . S
C2236 C2235 1.523 . S
C2237 C2221 1.429 . S
C2237 C2233 1.429 . S
C2237 C2238 1.523 . S
C2238 C2222 1.368 . S
C2238 C2234 1.368 . S
C2238 C2237 1.523 . S
H2239 C2214 0.950 . S
H2240 C2216 0.950 . S
H2241 C2217 0.949 . S
H2242 C2219 0.950 . S
H2243 C2221 0.950 . S
C2244 C2245 1.349 . S
C2244 C2246 1.327 . S
C2244 H2269 0.950 . S
C2245 C2244 1.349 . S
C2245 C2261 1.349 . S
C2246 C2244 1.327 . S
C2246 C2265 1.429 . S
C2246 H2270 0.950 . S
C2247 C2264 1.574 . S
C2247 C2266 1.368 . S
C2247 H2271 0.949 . S
H2248 C2252 0.949 . S
C2249 C2250 1.349 . S
C2249 C2251 1.327 . S
C2249 H2272 0.950 . S
C2250 C2249 1.349 . S
C2250 C2262 1.349 . S
C2251 C2249 1.327 . S
C2251 C2267 1.429 . S
C2251 H2273 0.950 . S
C2252 H2248 0.949 . S
C2252 C2260 1.574 . S
C2252 C2268 1.368 . S
H2253 C2261 0.950 . S
H2254 C2259 0.950 . S
H2255 C2260 0.949 . S
H2256 C2262 0.950 . S
H2257 C2263 0.950 . S
H2258 C2264 0.949 . S
C2259 H2254 0.950 . S
C2259 C2261 1.327 . S
C2259 C2265 1.429 . S
C2260 C2252 1.574 . S
C2260 H2255 0.949 . S
C2260 C2266 1.368 . S
C2261 C2245 1.349 . S
C2261 H2253 0.950 . S
C2261 C2259 1.327 . S
C2262 C2250 1.349 . S
C2262 H2256 0.950 . S
C2262 C2263 1.327 . S
C2263 H2257 0.950 . S
C2263 C2262 1.327 . S
C2263 C2267 1.429 . S
C2264 C2247 1.574 . S
C2264 H2258 0.949 . S
C2264 C2268 1.368 . S
C2265 C2246 1.429 . S
C2265 C2259 1.429 . S
C2265 C2266 1.523 . S
C2266 C2247 1.368 . S
C2266 C2260 1.368 . S
C2266 C2265 1.523 . S
C2267 C2251 1.429 . S
C2267 C2263 1.429 . S
C2267 C2268 1.523 . S
C2268 C2252 1.368 . S
C2268 C2264 1.368 . S
C2268 C2267 1.523 . S
H2269 C2244 0.950 . S
H2270 C2246 0.950 . S
H2271 C2247 0.949 . S
H2272 C2249 0.950 . S
H2273 C2251 0.950 . S
C2274 C2275 1.349 . S
C2274 C2276 1.327 . S
C2274 H2299 0.950 . S
C2275 C2274 1.349 . S
C2275 C2291 1.349 . S
C2276 C2274 1.327 . S
C2276 C2295 1.429 . S
C2276 H2300 0.950 . S
C2277 C2294 1.574 . S
C2277 C2296 1.368 . S
C2277 H2301 0.949 . S
H2278 C2282 0.949 . S
C2279 C2280 1.349 . S
C2279 C2281 1.327 . S
C2279 H2302 0.950 . S
C2280 C2279 1.349 . S
C2280 C2292 1.349 . S
C2281 C2279 1.327 . S
C2281 C2297 1.429 . S
C2281 H2303 0.950 . S
C2282 H2278 0.949 . S
C2282 C2290 1.574 . S
C2282 C2298 1.368 . S
H2283 C2291 0.950 . S
H2284 C2289 0.950 . S
H2285 C2290 0.949 . S
H2286 C2292 0.950 . S
H2287 C2293 0.950 . S
H2288 C2294 0.949 . S
C2289 H2284 0.950 . S
C2289 C2291 1.327 . S
C2289 C2295 1.429 . S
C2290 C2282 1.574 . S
C2290 H2285 0.949 . S
C2290 C2296 1.368 . S
C2291 C2275 1.349 . S
C2291 H2283 0.950 . S
C2291 C2289 1.327 . S
C2292 C2280 1.349 . S
C2292 H2286 0.950 . S
C2292 C2293 1.327 . S
C2293 H2287 0.950 . S
C2293 C2292 1.327 . S
C2293 C2297 1.429 . S
C2294 C2277 1.574 . S
C2294 H2288 0.949 . S
C2294 C2298 1.368 . S
C2295 C2276 1.429 . S
C2295 C2289 1.429 . S
C2295 C2296 1.523 . S
C2296 C2277 1.368 . S
C2296 C2290 1.368 . S
C2296 C2295 1.523 . S
C2297 C2281 1.429 . S
C2297 C2293 1.429 . S
C2297 C2298 1.523 . S
C2298 C2282 1.368 . S
C2298 C2294 1.368 . S
C2298 C2297 1.523 . S
H2299 C2274 0.950 . S
H2300 C2276 0.950 . S
H2301 C2277 0.949 . S
H2302 C2279 0.950 . S
H2303 C2281 0.950 . S
C2304 C2305 1.349 . S
C2304 C2306 1.327 . S
C2304 H2329 0.950 . S
C2305 C2304 1.349 . S
C2305 C2321 1.349 . S
C2306 C2304 1.327 . S
C2306 C2325 1.429 . S
C2306 H2330 0.950 . S
C2307 C2324 1.574 . S
C2307 C2326 1.368 . S
C2307 H2331 0.949 . S
H2308 C2312 0.949 . S
C2309 C2310 1.349 . S
C2309 C2311 1.327 . S
C2309 H2332 0.950 . S
C2310 C2309 1.349 . S
C2310 C2322 1.349 . S
C2311 C2309 1.327 . S
C2311 C2327 1.429 . S
C2311 H2333 0.950 . S
C2312 H2308 0.949 . S
C2312 C2320 1.574 . S
C2312 C2328 1.368 . S
H2313 C2321 0.950 . S
H2314 C2319 0.950 . S
H2315 C2320 0.949 . S
H2316 C2322 0.950 . S
H2317 C2323 0.950 . S
H2318 C2324 0.949 . S
C2319 H2314 0.950 . S
C2319 C2321 1.327 . S
C2319 C2325 1.429 . S
C2320 C2312 1.574 . S
C2320 H2315 0.949 . S
C2320 C2326 1.368 . S
C2321 C2305 1.349 . S
C2321 H2313 0.950 . S
C2321 C2319 1.327 . S
C2322 C2310 1.349 . S
C2322 H2316 0.950 . S
C2322 C2323 1.327 . S
C2323 H2317 0.950 . S
C2323 C2322 1.327 . S
C2323 C2327 1.429 . S
C2324 C2307 1.574 . S
C2324 H2318 0.949 . S
C2324 C2328 1.368 . S
C2325 C2306 1.429 . S
C2325 C2319 1.429 . S
C2325 C2326 1.523 . S
C2326 C2307 1.368 . S
C2326 C2320 1.368 . S
C2326 C2325 1.523 . S
C2327 C2311 1.429 . S
C2327 C2323 1.429 . S
C2327 C2328 1.523 . S
C2328 C2312 1.368 . S
C2328 C2324 1.368 . S
C2328 C2327 1.523 . S
H2329 C2304 0.950 . S
H2330 C2306 0.950 . S
H2331 C2307 0.949 . S
H2332 C2309 0.950 . S
H2333 C2311 0.950 . S
C2334 C2335 1.349 . S
C2334 C2336 1.327 . S
C2334 H2359 0.950 . S
C2335 C2334 1.349 . S
C2335 C2351 1.349 . S
C2336 C2334 1.327 . S
C2336 C2355 1.429 . S
C2336 H2360 0.950 . S
C2337 C2354 1.574 . S
C2337 C2356 1.368 . S
C2337 H2361 0.949 . S
H2338 C2342 0.949 . S
C2339 C2340 1.349 . S
C2339 C2341 1.327 . S
C2339 H2362 0.950 . S
C2340 C2339 1.349 . S
C2340 C2352 1.349 . S
C2341 C2339 1.327 . S
C2341 C2357 1.429 . S
C2341 H2363 0.950 . S
C2342 H2338 0.949 . S
C2342 C2350 1.574 . S
C2342 C2358 1.368 . S
H2343 C2351 0.950 . S
H2344 C2349 0.950 . S
H2345 C2350 0.949 . S
H2346 C2352 0.950 . S
H2347 C2353 0.950 . S
H2348 C2354 0.949 . S
C2349 H2344 0.950 . S
C2349 C2351 1.327 . S
C2349 C2355 1.429 . S
C2350 C2342 1.574 . S
C2350 H2345 0.949 . S
C2350 C2356 1.368 . S
C2351 C2335 1.349 . S
C2351 H2343 0.950 . S
C2351 C2349 1.327 . S
C2352 C2340 1.349 . S
C2352 H2346 0.950 . S
C2352 C2353 1.327 . S
C2353 H2347 0.950 . S
C2353 C2352 1.327 . S
C2353 C2357 1.429 . S
C2354 C2337 1.574 . S
C2354 H2348 0.949 . S
C2354 C2358 1.368 . S
C2355 C2336 1.429 . S
C2355 C2349 1.429 . S
C2355 C2356 1.523 . S
C2356 C2337 1.368 . S
C2356 C2350 1.368 . S
C2356 C2355 1.523 . S
C2357 C2341 1.429 . S
C2357 C2353 1.429 . S
C2357 C2358 1.523 . S
C2358 C2342 1.368 . S
C2358 C2354 1.368 . S
C2358 C2357 1.523 . S
H2359 C2334 0.950 . S
H2360 C2336 0.950 . S
H2361 C2337 0.949 . S
H2362 C2339 0.950 . S
H2363 C2341 0.950 . S
C2364 C2365 1.349 . S
C2364 C2366 1.327 . S
C2364 H2389 0.950 . S
C2365 C2364 1.349 . S
C2365 C2381 1.349 . S
C2366 C2364 1.327 . S
C2366 C2385 1.429 . S
C2366 H2390 0.950 . S
C2367 C2384 1.574 . S
C2367 C2386 1.368 . S
C2367 H2391 0.949 . S
H2368 C2372 0.949 . S
C2369 C2370 1.349 . S
C2369 C2371 1.327 . S
C2369 H2392 0.950 . S
C2370 C2369 1.349 . S
C2370 C2382 1.349 . S
C2371 C2369 1.327 . S
C2371 C2387 1.429 . S
C2371 H2393 0.950 . S
C2372 H2368 0.949 . S
C2372 C2380 1.574 . S
C2372 C2388 1.368 . S
H2373 C2381 0.950 . S
H2374 C2379 0.950 . S
H2375 C2380 0.949 . S
H2376 C2382 0.950 . S
H2377 C2383 0.950 . S
H2378 C2384 0.949 . S
C2379 H2374 0.950 . S
C2379 C2381 1.327 . S
C2379 C2385 1.429 . S
C2380 C2372 1.574 . S
C2380 H2375 0.949 . S
C2380 C2386 1.368 . S
C2381 C2365 1.349 . S
C2381 H2373 0.950 . S
C2381 C2379 1.327 . S
C2382 C2370 1.349 . S
C2382 H2376 0.950 . S
C2382 C2383 1.327 . S
C2383 H2377 0.950 . S
C2383 C2382 1.327 . S
C2383 C2387 1.429 . S
C2384 C2367 1.574 . S
C2384 H2378 0.949 . S
C2384 C2388 1.368 . S
C2385 C2366 1.429 . S
C2385 C2379 1.429 . S
C2385 C2386 1.523 . S
C2386 C2367 1.368 . S
C2386 C2380 1.368 . S
C2386 C2385 1.523 . S
C2387 C2371 1.429 . S
C2387 C2383 1.429 . S
C2387 C2388 1.523 . S
C2388 C2372 1.368 . S
C2388 C2384 1.368 . S
C2388 C2387 1.523 . S
H2389 C2364 0.950 . S
H2390 C2366 0.950 . S
H2391 C2367 0.949 . S
H2392 C2369 0.950 . S
H2393 C2371 0.950 . S
C2394 C2395 1.349 . S
C2394 C2396 1.327 . S
C2394 H2419 0.950 . S
C2395 C2394 1.349 . S
C2395 C2411 1.349 . S
C2396 C2394 1.327 . S
C2396 C2415 1.429 . S
C2396 H2420 0.950 . S
C2397 C2414 1.574 . S
C2397 C2416 1.368 . S
C2397 H2421 0.949 . S
H2398 C2402 0.949 . S
C2399 C2400 1.349 . S
C2399 C2401 1.327 . S
C2399 H2422 0.950 . S
C2400 C2399 1.349 . S
C2400 C2412 1.349 . S
C2401 C2399 1.327 . S
C2401 C2417 1.429 . S
C2401 H2423 0.950 . S
C2402 H2398 0.949 . S
C2402 C2410 1.574 . S
C2402 C2418 1.368 . S
H2403 C2411 0.950 . S
H2404 C2409 0.950 . S
H2405 C2410 0.949 . S
H2406 C2412 0.950 . S
H2407 C2413 0.950 . S
H2408 C2414 0.949 . S
C2409 H2404 0.950 . S
C2409 C2411 1.327 . S
C2409 C2415 1.429 . S
C2410 C2402 1.574 . S
C2410 H2405 0.949 . S
C2410 C2416 1.368 . S
C2411 C2395 1.349 . S
C2411 H2403 0.950 . S
C2411 C2409 1.327 . S
C2412 C2400 1.349 . S
C2412 H2406 0.950 . S
C2412 C2413 1.327 . S
C2413 H2407 0.950 . S
C2413 C2412 1.327 . S
C2413 C2417 1.429 . S
C2414 C2397 1.574 . S
C2414 H2408 0.949 . S
C2414 C2418 1.368 . S
C2415 C2396 1.429 . S
C2415 C2409 1.429 . S
C2415 C2416 1.523 . S
C2416 C2397 1.368 . S
C2416 C2410 1.368 . S
C2416 C2415 1.523 . S
C2417 C2401 1.429 . S
C2417 C2413 1.429 . S
C2417 C2418 1.523 . S
C2418 C2402 1.368 . S
C2418 C2414 1.368 . S
C2418 C2417 1.523 . S
H2419 C2394 0.950 . S
H2420 C2396 0.950 . S
H2421 C2397 0.949 . S
H2422 C2399 0.950 . S
H2423 C2401 0.950 . S
C2424 C2425 1.349 . S
C2424 C2426 1.327 . S
C2424 H2449 0.950 . S
C2425 C2424 1.349 . S
C2425 C2441 1.349 . S
C2426 C2424 1.327 . S
C2426 C2445 1.429 . S
C2426 H2450 0.950 . S
C2427 C2444 1.574 . S
C2427 C2446 1.368 . S
C2427 H2451 0.949 . S
H2428 C2432 0.949 . S
C2429 C2430 1.349 . S
C2429 C2431 1.327 . S
C2429 H2452 0.950 . S
C2430 C2429 1.349 . S
C2430 C2442 1.349 . S
C2431 C2429 1.327 . S
C2431 C2447 1.429 . S
C2431 H2453 0.950 . S
C2432 H2428 0.949 . S
C2432 C2440 1.574 . S
C2432 C2448 1.368 . S
H2433 C2441 0.950 . S
H2434 C2439 0.950 . S
H2435 C2440 0.949 . S
H2436 C2442 0.950 . S
H2437 C2443 0.950 . S
H2438 C2444 0.949 . S
C2439 H2434 0.950 . S
C2439 C2441 1.327 . S
C2439 C2445 1.429 . S
C2440 C2432 1.574 . S
C2440 H2435 0.949 . S
C2440 C2446 1.368 . S
C2441 C2425 1.349 . S
C2441 H2433 0.950 . S
C2441 C2439 1.327 . S
C2442 C2430 1.349 . S
C2442 H2436 0.950 . S
C2442 C2443 1.327 . S
C2443 H2437 0.950 . S
C2443 C2442 1.327 . S
C2443 C2447 1.429 . S
C2444 C2427 1.574 . S
C2444 H2438 0.949 . S
C2444 C2448 1.368 . S
C2445 C2426 1.429 . S
C2445 C2439 1.429 . S
C2445 C2446 1.523 . S
C2446 C2427 1.368 . S
C2446 C2440 1.368 . S
C2446 C2445 1.523 . S
C2447 C2431 1.429 . S
C2447 C2443 1.429 . S
C2447 C2448 1.523 . S
C2448 C2432 1.368 . S
C2448 C2444 1.368 . S
C2448 C2447 1.523 . S
H2449 C2424 0.950 . S
H2450 C2426 0.950 . S
H2451 C2427 0.949 . S
H2452 C2429 0.950 . S
H2453 C2431 0.950 . S
C2454 C2455 1.349 . S
C2454 C2456 1.327 . S
C2454 H2479 0.950 . S
C2455 C2454 1.349 . S
C2455 C2471 1.349 . S
C2456 C2454 1.327 . S
C2456 C2475 1.429 . S
C2456 H2480 0.950 . S
C2457 C2474 1.574 . S
C2457 C2476 1.368 . S
C2457 H2481 0.949 . S
H2458 C2462 0.949 . S
C2459 C2460 1.349 . S
C2459 C2461 1.327 . S
C2459 H2482 0.950 . S
C2460 C2459 1.349 . S
C2460 C2472 1.349 . S
C2461 C2459 1.327 . S
C2461 C2477 1.429 . S
C2461 H2483 0.950 . S
C2462 H2458 0.949 . S
C2462 C2470 1.574 . S
C2462 C2478 1.368 . S
H2463 C2471 0.950 . S
H2464 C2469 0.950 . S
H2465 C2470 0.949 . S
H2466 C2472 0.950 . S
H2467 C2473 0.950 . S
H2468 C2474 0.949 . S
C2469 H2464 0.950 . S
C2469 C2471 1.327 . S
C2469 C2475 1.429 . S
C2470 C2462 1.574 . S
C2470 H2465 0.949 . S
C2470 C2476 1.368 . S
C2471 C2455 1.349 . S
C2471 H2463 0.950 . S
C2471 C2469 1.327 . S
C2472 C2460 1.349 . S
C2472 H2466 0.950 . S
C2472 C2473 1.327 . S
C2473 H2467 0.950 . S
C2473 C2472 1.327 . S
C2473 C2477 1.429 . S
C2474 C2457 1.574 . S
C2474 H2468 0.949 . S
C2474 C2478 1.368 . S
C2475 C2456 1.429 . S
C2475 C2469 1.429 . S
C2475 C2476 1.523 . S
C2476 C2457 1.368 . S
C2476 C2470 1.368 . S
C2476 C2475 1.523 . S
C2477 C2461 1.429 . S
C2477 C2473 1.429 . S
C2477 C2478 1.523 . S
C2478 C2462 1.368 . S
C2478 C2474 1.368 . S
C2478 C2477 1.523 . S
H2479 C2454 0.950 . S
H2480 C2456 0.950 . S
H2481 C2457 0.949 . S
H2482 C2459 0.950 . S
H2483 C2461 0.950 . S
C2484 C2485 1.349 . S
C2484 C2486 1.327 . S
C2484 H2509 0.950 . S
C2485 C2484 1.349 . S
C2485 C2501 1.349 . S
C2486 C2484 1.327 . S
C2486 C2505 1.429 . S
C2486 H2510 0.950 . S
C2487 C2504 1.574 . S
C2487 C2506 1.368 . S
C2487 H2511 0.949 . S
H2488 C2492 0.949 . S
C2489 C2490 1.349 . S
C2489 C2491 1.327 . S
C2489 H2512 0.950 . S
C2490 C2489 1.349 . S
C2490 C2502 1.349 . S
C2491 C2489 1.327 . S
C2491 C2507 1.429 . S
C2491 H2513 0.950 . S
C2492 H2488 0.949 . S
C2492 C2500 1.574 . S
C2492 C2508 1.368 . S
H2493 C2501 0.950 . S
H2494 C2499 0.950 . S
H2495 C2500 0.949 . S
H2496 C2502 0.950 . S
H2497 C2503 0.950 . S
H2498 C2504 0.949 . S
C2499 H2494 0.950 . S
C2499 C2501 1.327 . S
C2499 C2505 1.429 . S
C2500 C2492 1.574 . S
C2500 H2495 0.949 . S
C2500 C2506 1.368 . S
C2501 C2485 1.349 . S
C2501 H2493 0.950 . S
C2501 C2499 1.327 . S
C2502 C2490 1.349 . S
C2502 H2496 0.950 . S
C2502 C2503 1.327 . S
C2503 H2497 0.950 . S
C2503 C2502 1.327 . S
C2503 C2507 1.429 . S
C2504 C2487 1.574 . S
C2504 H2498 0.949 . S
C2504 C2508 1.368 . S
C2505 C2486 1.429 . S
C2505 C2499 1.429 . S
C2505 C2506 1.523 . S
C2506 C2487 1.368 . S
C2506 C2500 1.368 . S
C2506 C2505 1.523 . S
C2507 C2491 1.429 . S
C2507 C2503 1.429 . S
C2507 C2508 1.523 . S
C2508 C2492 1.368 . S
C2508 C2504 1.368 . S
C2508 C2507 1.523 . S
H2509 C2484 0.950 . S
H2510 C2486 0.950 . S
H2511 C2487 0.949 . S
H2512 C2489 0.950 . S
H2513 C2491 0.950 . S
C2514 C2515 1.349 . S
C2514 C2516 1.327 . S
C2514 H2539 0.950 . S
C2515 C2514 1.349 . S
C2515 C2531 1.349 . S
C2516 C2514 1.327 . S
C2516 C2535 1.429 . S
C2516 H2540 0.950 . S
C2517 C2534 1.574 . S
C2517 C2536 1.368 . S
C2517 H2541 0.949 . S
H2518 C2522 0.949 . S
C2519 C2520 1.349 . S
C2519 C2521 1.327 . S
C2519 H2542 0.950 . S
C2520 C2519 1.349 . S
C2520 C2532 1.349 . S
C2521 C2519 1.327 . S
C2521 C2537 1.429 . S
C2521 H2543 0.950 . S
C2522 H2518 0.949 . S
C2522 C2530 1.574 . S
C2522 C2538 1.368 . S
H2523 C2531 0.950 . S
H2524 C2529 0.950 . S
H2525 C2530 0.949 . S
H2526 C2532 0.950 . S
H2527 C2533 0.950 . S
H2528 C2534 0.949 . S
C2529 H2524 0.950 . S
C2529 C2531 1.327 . S
C2529 C2535 1.429 . S
C2530 C2522 1.574 . S
C2530 H2525 0.949 . S
C2530 C2536 1.368 . S
C2531 C2515 1.349 . S
C2531 H2523 0.950 . S
C2531 C2529 1.327 . S
C2532 C2520 1.349 . S
C2532 H2526 0.950 . S
C2532 C2533 1.327 . S
C2533 H2527 0.950 . S
C2533 C2532 1.327 . S
C2533 C2537 1.429 . S
C2534 C2517 1.574 . S
C2534 H2528 0.949 . S
C2534 C2538 1.368 . S
C2535 C2516 1.429 . S
C2535 C2529 1.429 . S
C2535 C2536 1.523 . S
C2536 C2517 1.368 . S
C2536 C2530 1.368 . S
C2536 C2535 1.523 . S
C2537 C2521 1.429 . S
C2537 C2533 1.429 . S
C2537 C2538 1.523 . S
C2538 C2522 1.368 . S
C2538 C2534 1.368 . S
C2538 C2537 1.523 . S
H2539 C2514 0.950 . S
H2540 C2516 0.950 . S
H2541 C2517 0.949 . S
H2542 C2519 0.950 . S
H2543 C2521 0.950 . S
C2544 C2545 1.349 . S
C2544 C2546 1.327 . S
C2544 H2569 0.950 . S
C2545 C2544 1.349 . S
C2545 C2561 1.349 . S
C2546 C2544 1.327 . S
C2546 C2565 1.429 . S
C2546 H2570 0.950 . S
C2547 C2564 1.574 . S
C2547 C2566 1.368 . S
C2547 H2571 0.949 . S
H2548 C2552 0.949 . S
C2549 C2550 1.349 . S
C2549 C2551 1.327 . S
C2549 H2572 0.950 . S
C2550 C2549 1.349 . S
C2550 C2562 1.349 . S
C2551 C2549 1.327 . S
C2551 C2567 1.429 . S
C2551 H2573 0.950 . S
C2552 H2548 0.949 . S
C2552 C2560 1.574 . S
C2552 C2568 1.368 . S
H2553 C2561 0.950 . S
H2554 C2559 0.950 . S
H2555 C2560 0.949 . S
H2556 C2562 0.950 . S
H2557 C2563 0.950 . S
H2558 C2564 0.949 . S
C2559 H2554 0.950 . S
C2559 C2561 1.327 . S
C2559 C2565 1.429 . S
C2560 C2552 1.574 . S
C2560 H2555 0.949 . S
C2560 C2566 1.368 . S
C2561 C2545 1.349 . S
C2561 H2553 0.950 . S
C2561 C2559 1.327 . S
C2562 C2550 1.349 . S
C2562 H2556 0.950 . S
C2562 C2563 1.327 . S
C2563 H2557 0.950 . S
C2563 C2562 1.327 . S
C2563 C2567 1.429 . S
C2564 C2547 1.574 . S
C2564 H2558 0.949 . S
C2564 C2568 1.368 . S
C2565 C2546 1.429 . S
C2565 C2559 1.429 . S
C2565 C2566 1.523 . S
C2566 C2547 1.368 . S
C2566 C2560 1.368 . S
C2566 C2565 1.523 . S
C2567 C2551 1.429 . S
C2567 C2563 1.429 . S
C2567 C2568 1.523 . S
C2568 C2552 1.368 . S
C2568 C2564 1.368 . S
C2568 C2567 1.523 . S
H2569 C2544 0.950 . S
H2570 C2546 0.950 . S
H2571 C2547 0.949 . S
H2572 C2549 0.950 . S
H2573 C2551 0.950 . S
C2574 C2575 1.349 . S
C2574 C2576 1.327 . S
C2574 H2599 0.950 . S
C2575 C2574 1.349 . S
C2575 C2591 1.349 . S
C2576 C2574 1.327 . S
C2576 C2595 1.429 . S
C2576 H2600 0.950 . S
C2577 C2594 1.574 . S
C2577 C2596 1.368 . S
C2577 H2601 0.949 . S
H2578 C2582 0.949 . S
C2579 C2580 1.349 . S
C2579 C2581 1.327 . S
C2579 H2602 0.950 . S
C2580 C2579 1.349 . S
C2580 C2592 1.349 . S
C2581 C2579 1.327 . S
C2581 C2597 1.429 . S
C2581 H2603 0.950 . S
C2582 H2578 0.949 . S
C2582 C2590 1.574 . S
C2582 C2598 1.368 . S
H2583 C2591 0.950 . S
H2584 C2589 0.950 . S
H2585 C2590 0.949 . S
H2586 C2592 0.950 . S
H2587 C2593 0.950 . S
H2588 C2594 0.949 . S
C2589 H2584 0.950 . S
C2589 C2591 1.327 . S
C2589 C2595 1.429 . S
C2590 C2582 1.574 . S
C2590 H2585 0.949 . S
C2590 C2596 1.368 . S
C2591 C2575 1.349 . S
C2591 H2583 0.950 . S
C2591 C2589 1.327 . S
C2592 C2580 1.349 . S
C2592 H2586 0.950 . S
C2592 C2593 1.327 . S
C2593 H2587 0.950 . S
C2593 C2592 1.327 . S
C2593 C2597 1.429 . S
C2594 C2577 1.574 . S
C2594 H2588 0.949 . S
C2594 C2598 1.368 . S
C2595 C2576 1.429 . S
C2595 C2589 1.429 . S
C2595 C2596 1.523 . S
C2596 C2577 1.368 . S
C2596 C2590 1.368 . S
C2596 C2595 1.523 . S
C2597 C2581 1.429 . S
C2597 C2593 1.429 . S
C2597 C2598 1.523 . S
C2598 C2582 1.368 . S
C2598 C2594 1.368 . S
C2598 C2597 1.523 . S
H2599 C2574 0.950 . S
H2600 C2576 0.950 . S
H2601 C2577 0.949 . S
H2602 C2579 0.950 . S
H2603 C2581 0.950 . S
C2604 C2605 1.349 . S
C2604 C2606 1.327 . S
C2604 H2629 0.950 . S
C2605 C2604 1.349 . S
C2605 C2621 1.349 . S
C2606 C2604 1.327 . S
C2606 C2625 1.429 . S
C2606 H2630 0.950 . S
C2607 C2624 1.574 . S
C2607 C2626 1.368 . S
C2607 H2631 0.949 . S
H2608 C2612 0.949 . S
C2609 C2610 1.349 . S
C2609 C2611 1.327 . S
C2609 H2632 0.950 . S
C2610 C2609 1.349 . S
C2610 C2622 1.349 . S
C2611 C2609 1.327 . S
C2611 C2627 1.429 . S
C2611 H2633 0.950 . S
C2612 H2608 0.949 . S
C2612 C2620 1.574 . S
C2612 C2628 1.368 . S
H2613 C2621 0.950 . S
H2614 C2619 0.950 . S
H2615 C2620 0.949 . S
H2616 C2622 0.950 . S
H2617 C2623 0.950 . S
H2618 C2624 0.949 . S
C2619 H2614 0.950 . S
C2619 C2621 1.327 . S
C2619 C2625 1.429 . S
C2620 C2612 1.574 . S
C2620 H2615 0.949 . S
C2620 C2626 1.368 . S
C2621 C2605 1.349 . S
C2621 H2613 0.950 . S
C2621 C2619 1.327 . S
C2622 C2610 1.349 . S
C2622 H2616 0.950 . S
C2622 C2623 1.327 . S
C2623 H2617 0.950 . S
C2623 C2622 1.327 . S
C2623 C2627 1.429 . S
C2624 C2607 1.574 . S
C2624 H2618 0.949 . S
C2624 C2628 1.368 . S
C2625 C2606 1.429 . S
C2625 C2619 1.429 . S
C2625 C2626 1.523 . S
C2626 C2607 1.368 . S
C2626 C2620 1.368 . S
C2626 C2625 1.523 . S
C2627 C2611 1.429 . S
C2627 C2623 1.429 . S
C2627 C2628 1.523 . S
C2628 C2612 1.368 . S
C2628 C2624 1.368 . S
C2628 C2627 1.523 . S
H2629 C2604 0.950 . S
H2630 C2606 0.950 . S
H2631 C2607 0.949 . S
H2632 C2609 0.950 . S
H2633 C2611 0.950 . S
C2634 C2635 1.349 . S
C2634 C2636 1.327 . S
C2634 H2659 0.950 . S
C2635 C2634 1.349 . S
C2635 C2651 1.349 . S
C2636 C2634 1.327 . S
C2636 C2655 1.429 . S
C2636 H2660 0.950 . S
C2637 C2654 1.574 . S
C2637 C2656 1.368 . S
C2637 H2661 0.949 . S
H2638 C2642 0.949 . S
C2639 C2640 1.349 . S
C2639 C2641 1.327 . S
C2639 H2662 0.950 . S
C2640 C2639 1.349 . S
C2640 C2652 1.349 . S
C2641 C2639 1.327 . S
C2641 C2657 1.429 . S
C2641 H2663 0.950 . S
C2642 H2638 0.949 . S
C2642 C2650 1.574 . S
C2642 C2658 1.368 . S
H2643 C2651 0.950 . S
H2644 C2649 0.950 . S
H2645 C2650 0.949 . S
H2646 C2652 0.950 . S
H2647 C2653 0.950 . S
H2648 C2654 0.949 . S
C2649 H2644 0.950 . S
C2649 C2651 1.327 . S
C2649 C2655 1.429 . S
C2650 C2642 1.574 . S
C2650 H2645 0.949 . S
C2650 C2656 1.368 . S
C2651 C2635 1.349 . S
C2651 H2643 0.950 . S
C2651 C2649 1.327 . S
C2652 C2640 1.349 . S
C2652 H2646 0.950 . S
C2652 C2653 1.327 . S
C2653 H2647 0.950 . S
C2653 C2652 1.327 . S
C2653 C2657 1.429 . S
C2654 C2637 1.574 . S
C2654 H2648 0.949 . S
C2654 C2658 1.368 . S
C2655 C2636 1.429 . S
C2655 C2649 1.429 . S
C2655 C2656 1.523 . S
C2656 C2637 1.368 . S
C2656 C2650 1.368 . S
C2656 C2655 1.523 . S
C2657 C2641 1.429 . S
C2657 C2653 1.429 . S
C2657 C2658 1.523 . S
C2658 C2642 1.368 . S
C2658 C2654 1.368 . S
C2658 C2657 1.523 . S
H2659 C2634 0.950 . S
H2660 C2636 0.950 . S
H2661 C2637 0.949 . S
H2662 C2639 0.950 . S
H2663 C2641 0.950 . S
C2664 C2665 1.349 . S
C2664 C2666 1.327 . S
C2664 H2689 0.950 . S
C2665 C2664 1.349 . S
C2665 C2681 1.349 . S
C2666 C2664 1.327 . S
C2666 C2685 1.429 . S
C2666 H2690 0.950 . S
C2667 C2684 1.574 . S
C2667 C2686 1.368 . S
C2667 H2691 0.949 . S
H2668 C2672 0.949 . S
C2669 C2670 1.349 . S
C2669 C2671 1.327 . S
C2669 H2692 0.950 . S
C2670 C2669 1.349 . S
C2670 C2682 1.349 . S
C2671 C2669 1.327 . S
C2671 C2687 1.429 . S
C2671 H2693 0.950 . S
C2672 H2668 0.949 . S
C2672 C2680 1.574 . S
C2672 C2688 1.368 . S
H2673 C2681 0.950 . S
H2674 C2679 0.950 . S
H2675 C2680 0.949 . S
H2676 C2682 0.950 . S
H2677 C2683 0.950 . S
H2678 C2684 0.949 . S
C2679 H2674 0.950 . S
C2679 C2681 1.327 . S
C2679 C2685 1.429 . S
C2680 C2672 1.574 . S
C2680 H2675 0.949 . S
C2680 C2686 1.368 . S
C2681 C2665 1.349 . S
C2681 H2673 0.950 . S
C2681 C2679 1.327 . S
C2682 C2670 1.349 . S
C2682 H2676 0.950 . S
C2682 C2683 1.327 . S
C2683 H2677 0.950 . S
C2683 C2682 1.327 . S
C2683 C2687 1.429 . S
C2684 C2667 1.574 . S
C2684 H2678 0.949 . S
C2684 C2688 1.368 . S
C2685 C2666 1.429 . S
C2685 C2679 1.429 . S
C2685 C2686 1.523 . S
C2686 C2667 1.368 . S
C2686 C2680 1.368 . S
C2686 C2685 1.523 . S
C2687 C2671 1.429 . S
C2687 C2683 1.429 . S
C2687 C2688 1.523 . S
C2688 C2672 1.368 . S
C2688 C2684 1.368 . S
C2688 C2687 1.523 . S
H2689 C2664 0.950 . S
H2690 C2666 0.950 . S
H2691 C2667 0.949 . S
H2692 C2669 0.950 . S
H2693 C2671 0.950 . S
C2694 C2695 1.349 . S
C2694 C2696 1.327 . S
C2694 H2719 0.950 . S
C2695 C2694 1.349 . S
C2695 C2711 1.349 . S
C2696 C2694 1.327 . S
C2696 C2715 1.429 . S
C2696 H2720 0.950 . S
C2697 C2714 1.574 . S
C2697 C2716 1.368 . S
C2697 H2721 0.949 . S
H2698 C2702 0.949 . S
C2699 C2700 1.349 . S
C2699 C2701 1.327 . S
C2699 H2722 0.950 . S
C2700 C2699 1.349 . S
C2700 C2712 1.349 . S
C2701 C2699 1.327 . S
C2701 C2717 1.429 . S
C2701 H2723 0.950 . S
C2702 H2698 0.949 . S
C2702 C2710 1.574 . S
C2702 C2718 1.368 . S
H2703 C2711 0.950 . S
H2704 C2709 0.950 . S
H2705 C2710 0.949 . S
H2706 C2712 0.950 . S
H2707 C2713 0.950 . S
H2708 C2714 0.949 . S
C2709 H2704 0.950 . S
C2709 C2711 1.327 . S
C2709 C2715 1.429 . S
C2710 C2702 1.574 . S
C2710 H2705 0.949 . S
C2710 C2716 1.368 . S
C2711 C2695 1.349 . S
C2711 H2703 0.950 . S
C2711 C2709 1.327 . S
C2712 C2700 1.349 . S
C2712 H2706 0.950 . S
C2712 C2713 1.327 . S
C2713 H2707 0.950 . S
C2713 C2712 1.327 . S
C2713 C2717 1.429 . S
C2714 C2697 1.574 . S
C2714 H2708 0.949 . S
C2714 C2718 1.368 . S
C2715 C2696 1.429 . S
C2715 C2709 1.429 . S
C2715 C2716 1.523 . S
C2716 C2697 1.368 . S
C2716 C2710 1.368 . S
C2716 C2715 1.523 . S
C2717 C2701 1.429 . S
C2717 C2713 1.429 . S
C2717 C2718 1.523 . S
C2718 C2702 1.368 . S
C2718 C2714 1.368 . S
C2718 C2717 1.523 . S
H2719 C2694 0.950 . S
H2720 C2696 0.950 . S
H2721 C2697 0.949 . S
H2722 C2699 0.950 . S
H2723 C2701 0.950 . S
C2724 C2725 1.349 . S
C2724 C2726 1.327 . S
C2724 H2749 0.950 . S
C2725 C2724 1.349 . S
C2725 C2741 1.349 . S
C2726 C2724 1.327 . S
C2726 C2745 1.429 . S
C2726 H2750 0.950 . S
C2727 C2744 1.574 . S
C2727 C2746 1.368 . S
C2727 H2751 0.949 . S
H2728 C2732 0.949 . S
C2729 C2730 1.349 . S
C2729 C2731 1.327 . S
C2729 H2752 0.950 . S
C2730 C2729 1.349 . S
C2730 C2742 1.349 . S
C2731 C2729 1.327 . S
C2731 C2747 1.429 . S
C2731 H2753 0.950 . S
C2732 H2728 0.949 . S
C2732 C2740 1.574 . S
C2732 C2748 1.368 . S
H2733 C2741 0.950 . S
H2734 C2739 0.950 . S
H2735 C2740 0.949 . S
H2736 C2742 0.950 . S
H2737 C2743 0.950 . S
H2738 C2744 0.949 . S
C2739 H2734 0.950 . S
C2739 C2741 1.327 . S
C2739 C2745 1.429 . S
C2740 C2732 1.574 . S
C2740 H2735 0.949 . S
C2740 C2746 1.368 . S
C2741 C2725 1.349 . S
C2741 H2733 0.950 . S
C2741 C2739 1.327 . S
C2742 C2730 1.349 . S
C2742 H2736 0.950 . S
C2742 C2743 1.327 . S
C2743 H2737 0.950 . S
C2743 C2742 1.327 . S
C2743 C2747 1.429 . S
C2744 C2727 1.574 . S
C2744 H2738 0.949 . S
C2744 C2748 1.368 . S
C2745 C2726 1.429 . S
C2745 C2739 1.429 . S
C2745 C2746 1.523 . S
C2746 C2727 1.368 . S
C2746 C2740 1.368 . S
C2746 C2745 1.523 . S
C2747 C2731 1.429 . S
C2747 C2743 1.429 . S
C2747 C2748 1.523 . S
C2748 C2732 1.368 . S
C2748 C2744 1.368 . S
C2748 C2747 1.523 . S
H2749 C2724 0.950 . S
H2750 C2726 0.950 . S
H2751 C2727 0.949 . S
H2752 C2729 0.950 . S
H2753 C2731 0.950 . S
C2754 C2755 1.349 . S
C2754 C2756 1.327 . S
C2754 H2779 0.950 . S
C2755 C2754 1.349 . S
C2755 C2771 1.349 . S
C2756 C2754 1.327 . S
C2756 C2775 1.429 . S
C2756 H2780 0.950 . S
C2757 C2774 1.574 . S
C2757 C2776 1.368 . S
C2757 H2781 0.949 . S
H2758 C2762 0.949 . S
C2759 C2760 1.349 . S
C2759 C2761 1.327 . S
C2759 H2782 0.950 . S
C2760 C2759 1.349 . S
C2760 C2772 1.349 . S
C2761 C2759 1.327 . S
C2761 C2777 1.429 . S
C2761 H2783 0.950 . S
C2762 H2758 0.949 . S
C2762 C2770 1.574 . S
C2762 C2778 1.368 . S
H2763 C2771 0.950 . S
H2764 C2769 0.950 . S
H2765 C2770 0.949 . S
H2766 C2772 0.950 . S
H2767 C2773 0.950 . S
H2768 C2774 0.949 . S
C2769 H2764 0.950 . S
C2769 C2771 1.327 . S
C2769 C2775 1.429 . S
C2770 C2762 1.574 . S
C2770 H2765 0.949 . S
C2770 C2776 1.368 . S
C2771 C2755 1.349 . S
C2771 H2763 0.950 . S
C2771 C2769 1.327 . S
C2772 C2760 1.349 . S
C2772 H2766 0.950 . S
C2772 C2773 1.327 . S
C2773 H2767 0.950 . S
C2773 C2772 1.327 . S
C2773 C2777 1.429 . S
C2774 C2757 1.574 . S
C2774 H2768 0.949 . S
C2774 C2778 1.368 . S
C2775 C2756 1.429 . S
C2775 C2769 1.429 . S
C2775 C2776 1.523 . S
C2776 C2757 1.368 . S
C2776 C2770 1.368 . S
C2776 C2775 1.523 . S
C2777 C2761 1.429 . S
C2777 C2773 1.429 . S
C2777 C2778 1.523 . S
C2778 C2762 1.368 . S
C2778 C2774 1.368 . S
C2778 C2777 1.523 . S
H2779 C2754 0.950 . S
H2780 C2756 0.950 . S
H2781 C2757 0.949 . S
H2782 C2759 0.950 . S
H2783 C2761 0.950 . S
C2784 C2785 1.349 . S
C2784 C2786 1.327 . S
C2784 H2809 0.950 . S
C2785 C2784 1.349 . S
C2785 C2801 1.349 . S
C2786 C2784 1.327 . S
C2786 C2805 1.429 . S
C2786 H2810 0.950 . S
C2787 C2804 1.574 . S
C2787 C2806 1.368 . S
C2787 H2811 0.949 . S
H2788 C2792 0.949 . S
C2789 C2790 1.349 . S
C2789 C2791 1.327 . S
C2789 H2812 0.950 . S
C2790 C2789 1.349 . S
C2790 C2802 1.349 . S
C2791 C2789 1.327 . S
C2791 C2807 1.429 . S
C2791 H2813 0.950 . S
C2792 H2788 0.949 . S
C2792 C2800 1.574 . S
C2792 C2808 1.368 . S
H2793 C2801 0.950 . S
H2794 C2799 0.950 . S
H2795 C2800 0.949 . S
H2796 C2802 0.950 . S
H2797 C2803 0.950 . S
H2798 C2804 0.949 . S
C2799 H2794 0.950 . S
C2799 C2801 1.327 . S
C2799 C2805 1.429 . S
C2800 C2792 1.574 . S
C2800 H2795 0.949 . S
C2800 C2806 1.368 . S
C2801 C2785 1.349 . S
C2801 H2793 0.950 . S
C2801 C2799 1.327 . S
C2802 C2790 1.349 . S
C2802 H2796 0.950 . S
C2802 C2803 1.327 . S
C2803 H2797 0.950 . S
C2803 C2802 1.327 . S
C2803 C2807 1.429 . S
C2804 C2787 1.574 . S
C2804 H2798 0.949 . S
C2804 C2808 1.368 . S
C2805 C2786 1.429 . S
C2805 C2799 1.429 . S
C2805 C2806 1.523 . S
C2806 C2787 1.368 . S
C2806 C2800 1.368 . S
C2806 C2805 1.523 . S
C2807 C2791 1.429 . S
C2807 C2803 1.429 . S
C2807 C2808 1.523 . S
C2808 C2792 1.368 . S
C2808 C2804 1.368 . S
C2808 C2807 1.523 . S
H2809 C2784 0.950 . S
H2810 C2786 0.950 . S
H2811 C2787 0.949 . S
H2812 C2789 0.950 . S
H2813 C2791 0.950 . S
C2814 C2815 1.349 . S
C2814 C2816 1.327 . S
C2814 H2839 0.950 . S
C2815 C2814 1.349 . S
C2815 C2831 1.349 . S
C2816 C2814 1.327 . S
C2816 C2835 1.429 . S
C2816 H2840 0.950 . S
C2817 C2834 1.574 . S
C2817 C2836 1.368 . S
C2817 H2841 0.949 . S
H2818 C2822 0.949 . S
C2819 C2820 1.349 . S
C2819 C2821 1.327 . S
C2819 H2842 0.950 . S
C2820 C2819 1.349 . S
C2820 C2832 1.349 . S
C2821 C2819 1.327 . S
C2821 C2837 1.429 . S
C2821 H2843 0.950 . S
C2822 H2818 0.949 . S
C2822 C2830 1.574 . S
C2822 C2838 1.368 . S
H2823 C2831 0.950 . S
H2824 C2829 0.950 . S
H2825 C2830 0.949 . S
H2826 C2832 0.950 . S
H2827 C2833 0.950 . S
H2828 C2834 0.949 . S
C2829 H2824 0.950 . S
C2829 C2831 1.327 . S
C2829 C2835 1.429 . S
C2830 C2822 1.574 . S
C2830 H2825 0.949 . S
C2830 C2836 1.368 . S
C2831 C2815 1.349 . S
C2831 H2823 0.950 . S
C2831 C2829 1.327 . S
C2832 C2820 1.349 . S
C2832 H2826 0.950 . S
C2832 C2833 1.327 . S
C2833 H2827 0.950 . S
C2833 C2832 1.327 . S
C2833 C2837 1.429 . S
C2834 C2817 1.574 . S
C2834 H2828 0.949 . S
C2834 C2838 1.368 . S
C2835 C2816 1.429 . S
C2835 C2829 1.429 . S
C2835 C2836 1.523 . S
C2836 C2817 1.368 . S
C2836 C2830 1.368 . S
C2836 C2835 1.523 . S
C2837 C2821 1.429 . S
C2837 C2833 1.429 . S
C2837 C2838 1.523 . S
C2838 C2822 1.368 . S
C2838 C2834 1.368 . S
C2838 C2837 1.523 . S
H2839 C2814 0.950 . S
H2840 C2816 0.950 . S
H2841 C2817 0.949 . S
H2842 C2819 0.950 . S
H2843 C2821 0.950 . S
C2844 C2845 1.349 . S
C2844 C2846 1.327 . S
C2844 H2869 0.950 . S
C2845 C2844 1.349 . S
C2845 C2861 1.349 . S
C2846 C2844 1.327 . S
C2846 C2865 1.429 . S
C2846 H2870 0.950 . S
C2847 C2864 1.574 . S
C2847 C2866 1.368 . S
C2847 H2871 0.949 . S
H2848 C2852 0.949 . S
C2849 C2850 1.349 . S
C2849 C2851 1.327 . S
C2849 H2872 0.950 . S
C2850 C2849 1.349 . S
C2850 C2862 1.349 . S
C2851 C2849 1.327 . S
C2851 C2867 1.429 . S
C2851 H2873 0.950 . S
C2852 H2848 0.949 . S
C2852 C2860 1.574 . S
C2852 C2868 1.368 . S
H2853 C2861 0.950 . S
H2854 C2859 0.950 . S
H2855 C2860 0.949 . S
H2856 C2862 0.950 . S
H2857 C2863 0.950 . S
H2858 C2864 0.949 . S
C2859 H2854 0.950 . S
C2859 C2861 1.327 . S
C2859 C2865 1.429 . S
C2860 C2852 1.574 . S
C2860 H2855 0.949 . S
C2860 C2866 1.368 . S
C2861 C2845 1.349 . S
C2861 H2853 0.950 . S
C2861 C2859 1.327 . S
C2862 C2850 1.349 . S
C2862 H2856 0.950 . S
C2862 C2863 1.327 . S
C2863 H2857 0.950 . S
C2863 C2862 1.327 . S
C2863 C2867 1.429 . S
C2864 C2847 1.574 . S
C2864 H2858 0.949 . S
C2864 C2868 1.368 . S
C2865 C2846 1.429 . S
C2865 C2859 1.429 . S
C2865 C2866 1.523 . S
C2866 C2847 1.368 . S
C2866 C2860 1.368 . S
C2866 C2865 1.523 . S
C2867 C2851 1.429 . S
C2867 C2863 1.429 . S
C2867 C2868 1.523 . S
C2868 C2852 1.368 . S
C2868 C2864 1.368 . S
C2868 C2867 1.523 . S
H2869 C2844 0.950 . S
H2870 C2846 0.950 . S
H2871 C2847 0.949 . S
H2872 C2849 0.950 . S
H2873 C2851 0.950 . S
C2874 C2875 1.349 . S
C2874 C2876 1.327 . S
C2874 H2899 0.950 . S
C2875 C2874 1.349 . S
C2875 C2891 1.349 . S
C2876 C2874 1.327 . S
C2876 C2895 1.429 . S
C2876 H2900 0.950 . S
C2877 C2894 1.574 . S
C2877 C2896 1.368 . S
C2877 H2901 0.949 . S
H2878 C2882 0.949 . S
C2879 C2880 1.349 . S
C2879 C2881 1.327 . S
C2879 H2902 0.950 . S
C2880 C2879 1.349 . S
C2880 C2892 1.349 . S
C2881 C2879 1.327 . S
C2881 C2897 1.429 . S
C2881 H2903 0.950 . S
C2882 H2878 0.949 . S
C2882 C2890 1.574 . S
C2882 C2898 1.368 . S
H2883 C2891 0.950 . S
H2884 C2889 0.950 . S
H2885 C2890 0.949 . S
H2886 C2892 0.950 . S
H2887 C2893 0.950 . S
H2888 C2894 0.949 . S
C2889 H2884 0.950 . S
C2889 C2891 1.327 . S
C2889 C2895 1.429 . S
C2890 C2882 1.574 . S
C2890 H2885 0.949 . S
C2890 C2896 1.368 . S
C2891 C2875 1.349 . S
C2891 H2883 0.950 . S
C2891 C2889 1.327 . S
C2892 C2880 1.349 . S
C2892 H2886 0.950 . S
C2892 C2893 1.327 . S
C2893 H2887 0.950 . S
C2893 C2892 1.327 . S
C2893 C2897 1.429 . S
C2894 C2877 1.574 . S
C2894 H2888 0.949 . S
C2894 C2898 1.368 . S
C2895 C2876 1.429 . S
C2895 C2889 1.429 . S
C2895 C2896 1.523 . S
C2896 C2877 1.368 . S
C2896 C2890 1.368 . S
C2896 C2895 1.523 . S
C2897 C2881 1.429 . S
C2897 C2893 1.429 . S
C2897 C2898 1.523 . S
C2898 C2882 1.368 . S
C2898 C2894 1.368 . S
C2898 C2897 1.523 . S
H2899 C2874 0.950 . S
H2900 C2876 0.950 . S
H2901 C2877 0.949 . S
H2902 C2879 0.950 . S
H2903 C2881 0.950 . S
C2904 C2905 1.349 . S
C2904 C2906 1.327 . S
C2904 H2929 0.950 . S
C2905 C2904 1.349 . S
C2905 C2921 1.349 . S
C2906 C2904 1.327 . S
C2906 C2925 1.429 . S
C2906 H2930 0.950 . S
C2907 C2924 1.574 . S
C2907 C2926 1.368 . S
C2907 H2931 0.949 . S
H2908 C2912 0.949 . S
C2909 C2910 1.349 . S
C2909 C2911 1.327 . S
C2909 H2932 0.950 . S
C2910 C2909 1.349 . S
C2910 C2922 1.349 . S
C2911 C2909 1.327 . S
C2911 C2927 1.429 . S
C2911 H2933 0.950 . S
C2912 H2908 0.949 . S
C2912 C2920 1.574 . S
C2912 C2928 1.368 . S
H2913 C2921 0.950 . S
H2914 C2919 0.950 . S
H2915 C2920 0.949 . S
H2916 C2922 0.950 . S
H2917 C2923 0.950 . S
H2918 C2924 0.949 . S
C2919 H2914 0.950 . S
C2919 C2921 1.327 . S
C2919 C2925 1.429 . S
C2920 C2912 1.574 . S
C2920 H2915 0.949 . S
C2920 C2926 1.368 . S
C2921 C2905 1.349 . S
C2921 H2913 0.950 . S
C2921 C2919 1.327 . S
C2922 C2910 1.349 . S
C2922 H2916 0.950 . S
C2922 C2923 1.327 . S
C2923 H2917 0.950 . S
C2923 C2922 1.327 . S
C2923 C2927 1.429 . S
C2924 C2907 1.574 . S
C2924 H2918 0.949 . S
C2924 C2928 1.368 . S
C2925 C2906 1.429 . S
C2925 C2919 1.429 . S
C2925 C2926 1.523 . S
C2926 C2907 1.368 . S
C2926 C2920 1.368 . S
C2926 C2925 1.523 . S
C2927 C2911 1.429 . S
C2927 C2923 1.429 . S
C2927 C2928 1.523 . S
C2928 C2912 1.368 . S
C2928 C2924 1.368 . S
C2928 C2927 1.523 . S
H2929 C2904 0.950 . S
H2930 C2906 0.950 . S
H2931 C2907 0.949 . S
H2932 C2909 0.950 . S
H2933 C2911 0.950 . S
C2934 C2935 1.349 . S
C2934 C2936 1.327 . S
C2934 H2959 0.950 . S
C2935 C2934 1.349 . S
C2935 C2951 1.349 . S
C2936 C2934 1.327 . S
C2936 C2955 1.429 . S
C2936 H2960 0.950 . S
C2937 C2954 1.574 . S
C2937 C2956 1.368 . S
C2937 H2961 0.949 . S
H2938 C2942 0.949 . S
C2939 C2940 1.349 . S
C2939 C2941 1.327 . S
C2939 H2962 0.950 . S
C2940 C2939 1.349 . S
C2940 C2952 1.349 . S
C2941 C2939 1.327 . S
C2941 C2957 1.429 . S
C2941 H2963 0.950 . S
C2942 H2938 0.949 . S
C2942 C2950 1.574 . S
C2942 C2958 1.368 . S
H2943 C2951 0.950 . S
H2944 C2949 0.950 . S
H2945 C2950 0.949 . S
H2946 C2952 0.950 . S
H2947 C2953 0.950 . S
H2948 C2954 0.949 . S
C2949 H2944 0.950 . S
C2949 C2951 1.327 . S
C2949 C2955 1.429 . S
C2950 C2942 1.574 . S
C2950 H2945 0.949 . S
C2950 C2956 1.368 . S
C2951 C2935 1.349 . S
C2951 H2943 0.950 . S
C2951 C2949 1.327 . S
C2952 C2940 1.349 . S
C2952 H2946 0.950 . S
C2952 C2953 1.327 . S
C2953 H2947 0.950 . S
C2953 C2952 1.327 . S
C2953 C2957 1.429 . S
C2954 C2937 1.574 . S
C2954 H2948 0.949 . S
C2954 C2958 1.368 . S
C2955 C2936 1.429 . S
C2955 C2949 1.429 . S
C2955 C2956 1.523 . S
C2956 C2937 1.368 . S
C2956 C2950 1.368 . S
C2956 C2955 1.523 . S
C2957 C2941 1.429 . S
C2957 C2953 1.429 . S
C2957 C2958 1.523 . S
C2958 C2942 1.368 . S
C2958 C2954 1.368 . S
C2958 C2957 1.523 . S
H2959 C2934 0.950 . S
H2960 C2936 0.950 . S
H2961 C2937 0.949 . S
H2962 C2939 0.950 . S
H2963 C2941 0.950 . S
C2964 C2965 1.349 . S
C2964 C2966 1.327 . S
C2964 H2989 0.950 . S
C2965 C2964 1.349 . S
C2965 C2981 1.349 . S
C2966 C2964 1.327 . S
C2966 C2985 1.429 . S
C2966 H2990 0.950 . S
C2967 C2984 1.574 . S
C2967 C2986 1.368 . S
C2967 H2991 0.949 . S
H2968 C2972 0.949 . S
C2969 C2970 1.349 . S
C2969 C2971 1.327 . S
C2969 H2992 0.950 . S
C2970 C2969 1.349 . S
C2970 C2982 1.349 . S
C2971 C2969 1.327 . S
C2971 C2987 1.429 . S
C2971 H2993 0.950 . S
C2972 H2968 0.949 . S
C2972 C2980 1.574 . S
C2972 C2988 1.368 . S
H2973 C2981 0.950 . S
H2974 C2979 0.950 . S
H2975 C2980 0.949 . S
H2976 C2982 0.950 . S
H2977 C2983 0.950 . S
H2978 C2984 0.949 . S
C2979 H2974 0.950 . S
C2979 C2981 1.327 . S
C2979 C2985 1.429 . S
C2980 C2972 1.574 . S
C2980 H2975 0.949 . S
C2980 C2986 1.368 . S
C2981 C2965 1.349 . S
C2981 H2973 0.950 . S
C2981 C2979 1.327 . S
C2982 C2970 1.349 . S
C2982 H2976 0.950 . S
C2982 C2983 1.327 . S
C2983 H2977 0.950 . S
C2983 C2982 1.327 . S
C2983 C2987 1.429 . S
C2984 C2967 1.574 . S
C2984 H2978 0.949 . S
C2984 C2988 1.368 . S
C2985 C2966 1.429 . S
C2985 C2979 1.429 . S
C2985 C2986 1.523 . S
C2986 C2967 1.368 . S
C2986 C2980 1.368 . S
C2986 C2985 1.523 . S
C2987 C2971 1.429 . S
C2987 C2983 1.429 . S
C2987 C2988 1.523 . S
C2988 C2972 1.368 . S
C2988 C2984 1.368 . S
C2988 C2987 1.523 . S
H2989 C2964 0.950 . S
H2990 C2966 0.950 . S
H2991 C2967 0.949 . S
H2992 C2969 0.950 . S
H2993 C2971 0.950 . S
C2994 C2995 1.349 . S
C2994 C2996 1.327 . S
C2994 H3019 0.950 . S
C2995 C2994 1.349 . S
C2995 C3011 1.349 . S
C2996 C2994 1.327 . S
C2996 C3015 1.429 . S
C2996 H3020 0.950 . S
C2997 C3014 1.574 . S
C2997 C3016 1.368 . S
C2997 H3021 0.949 . S
H2998 C3002 0.949 . S
C2999 C3000 1.349 . S
C2999 C3001 1.327 . S
C2999 H3022 0.950 . S
C3000 C2999 1.349 . S
C3000 C3012 1.349 . S
C3001 C2999 1.327 . S
C3001 C3017 1.429 . S
C3001 H3023 0.950 . S
C3002 H2998 0.949 . S
C3002 C3010 1.574 . S
C3002 C3018 1.368 . S
H3003 C3011 0.950 . S
H3004 C3009 0.950 . S
H3005 C3010 0.949 . S
H3006 C3012 0.950 . S
H3007 C3013 0.950 . S
H3008 C3014 0.949 . S
C3009 H3004 0.950 . S
C3009 C3011 1.327 . S
C3009 C3015 1.429 . S
C3010 C3002 1.574 . S
C3010 H3005 0.949 . S
C3010 C3016 1.368 . S
C3011 C2995 1.349 . S
C3011 H3003 0.950 . S
C3011 C3009 1.327 . S
C3012 C3000 1.349 . S
C3012 H3006 0.950 . S
C3012 C3013 1.327 . S
C3013 H3007 0.950 . S
C3013 C3012 1.327 . S
C3013 C3017 1.429 . S
C3014 C2997 1.574 . S
C3014 H3008 0.949 . S
C3014 C3018 1.368 . S
C3015 C2996 1.429 . S
C3015 C3009 1.429 . S
C3015 C3016 1.523 . S
C3016 C2997 1.368 . S
C3016 C3010 1.368 . S
C3016 C3015 1.523 . S
C3017 C3001 1.429 . S
C3017 C3013 1.429 . S
C3017 C3018 1.523 . S
C3018 C3002 1.368 . S
C3018 C3014 1.368 . S
C3018 C3017 1.523 . S
H3019 C2994 0.950 . S
H3020 C2996 0.950 . S
H3021 C2997 0.949 . S
H3022 C2999 0.950 . S
H3023 C3001 0.950 . S
C3024 C3025 1.349 . S
C3024 C3026 1.327 . S
C3024 H3049 0.950 . S
C3025 C3024 1.349 . S
C3025 C3041 1.349 . S
C3026 C3024 1.327 . S
C3026 C3045 1.429 . S
C3026 H3050 0.950 . S
C3027 C3044 1.574 . S
C3027 C3046 1.368 . S
C3027 H3051 0.949 . S
H3028 C3032 0.949 . S
C3029 C3030 1.349 . S
C3029 C3031 1.327 . S
C3029 H3052 0.950 . S
C3030 C3029 1.349 . S
C3030 C3042 1.349 . S
C3031 C3029 1.327 . S
C3031 C3047 1.429 . S
C3031 H3053 0.950 . S
C3032 H3028 0.949 . S
C3032 C3040 1.574 . S
C3032 C3048 1.368 . S
H3033 C3041 0.950 . S
H3034 C3039 0.950 . S
H3035 C3040 0.949 . S
H3036 C3042 0.950 . S
H3037 C3043 0.950 . S
H3038 C3044 0.949 . S
C3039 H3034 0.950 . S
C3039 C3041 1.327 . S
C3039 C3045 1.429 . S
C3040 C3032 1.574 . S
C3040 H3035 0.949 . S
C3040 C3046 1.368 . S
C3041 C3025 1.349 . S
C3041 H3033 0.950 . S
C3041 C3039 1.327 . S
C3042 C3030 1.349 . S
C3042 H3036 0.950 . S
C3042 C3043 1.327 . S
C3043 H3037 0.950 . S
C3043 C3042 1.327 . S
C3043 C3047 1.429 . S
C3044 C3027 1.574 . S
C3044 H3038 0.949 . S
C3044 C3048 1.368 . S
C3045 C3026 1.429 . S
C3045 C3039 1.429 . S
C3045 C3046 1.523 . S
C3046 C3027 1.368 . S
C3046 C3040 1.368 . S
C3046 C3045 1.523 . S
C3047 C3031 1.429 . S
C3047 C3043 1.429 . S
C3047 C3048 1.523 . S
C3048 C3032 1.368 . S
C3048 C3044 1.368 . S
C3048 C3047 1.523 . S
H3049 C3024 0.950 . S
H3050 C3026 0.950 . S
H3051 C3027 0.949 . S
H3052 C3029 0.950 . S
H3053 C3031 0.950 . S
C3054 C3055 1.349 . S
C3054 C3056 1.327 . S
C3054 H3079 0.950 . S
C3055 C3054 1.349 . S
C3055 C3071 1.349 . S
C3056 C3054 1.327 . S
C3056 C3075 1.429 . S
C3056 H3080 0.950 . S
C3057 C3074 1.574 . S
C3057 C3076 1.368 . S
C3057 H3081 0.949 . S
H3058 C3062 0.949 . S
C3059 C3060 1.349 . S
C3059 C3061 1.327 . S
C3059 H3082 0.950 . S
C3060 C3059 1.349 . S
C3060 C3072 1.349 . S
C3061 C3059 1.327 . S
C3061 C3077 1.429 . S
C3061 H3083 0.950 . S
C3062 H3058 0.949 . S
C3062 C3070 1.574 . S
C3062 C3078 1.368 . S
H3063 C3071 0.950 . S
H3064 C3069 0.950 . S
H3065 C3070 0.949 . S
H3066 C3072 0.950 . S
H3067 C3073 0.950 . S
H3068 C3074 0.949 . S
C3069 H3064 0.950 . S
C3069 C3071 1.327 . S
C3069 C3075 1.429 . S
C3070 C3062 1.574 . S
C3070 H3065 0.949 . S
C3070 C3076 1.368 . S
C3071 C3055 1.349 . S
C3071 H3063 0.950 . S
C3071 C3069 1.327 . S
C3072 C3060 1.349 . S
C3072 H3066 0.950 . S
C3072 C3073 1.327 . S
C3073 H3067 0.950 . S
C3073 C3072 1.327 . S
C3073 C3077 1.429 . S
C3074 C3057 1.574 . S
C3074 H3068 0.949 . S
C3074 C3078 1.368 . S
C3075 C3056 1.429 . S
C3075 C3069 1.429 . S
C3075 C3076 1.523 . S
C3076 C3057 1.368 . S
C3076 C3070 1.368 . S
C3076 C3075 1.523 . S
C3077 C3061 1.429 . S
C3077 C3073 1.429 . S
C3077 C3078 1.523 . S
C3078 C3062 1.368 . S
C3078 C3074 1.368 . S
C3078 C3077 1.523 . S
H3079 C3054 0.950 . S
H3080 C3056 0.950 . S
H3081 C3057 0.949 . S
H3082 C3059 0.950 . S
H3083 C3061 0.950 . S
C3084 C3085 1.349 . S
C3084 C3086 1.327 . S
C3084 H3109 0.950 . S
C3085 C3084 1.349 . S
C3085 C3101 1.349 . S
C3086 C3084 1.327 . S
C3086 C3105 1.429 . S
C3086 H3110 0.950 . S
C3087 C3104 1.574 . S
C3087 C3106 1.368 . S
C3087 H3111 0.949 . S
H3088 C3092 0.949 . S
C3089 C3090 1.349 . S
C3089 C3091 1.327 . S
C3089 H3112 0.950 . S
C3090 C3089 1.349 . S
C3090 C3102 1.349 . S
C3091 C3089 1.327 . S
C3091 C3107 1.429 . S
C3091 H3113 0.950 . S
C3092 H3088 0.949 . S
C3092 C3100 1.574 . S
C3092 C3108 1.368 . S
H3093 C3101 0.950 . S
H3094 C3099 0.950 . S
H3095 C3100 0.949 . S
H3096 C3102 0.950 . S
H3097 C3103 0.950 . S
H3098 C3104 0.949 . S
C3099 H3094 0.950 . S
C3099 C3101 1.327 . S
C3099 C3105 1.429 . S
C3100 C3092 1.574 . S
C3100 H3095 0.949 . S
C3100 C3106 1.368 . S
C3101 C3085 1.349 . S
C3101 H3093 0.950 . S
C3101 C3099 1.327 . S
C3102 C3090 1.349 . S
C3102 H3096 0.950 . S
C3102 C3103 1.327 . S
C3103 H3097 0.950 . S
C3103 C3102 1.327 . S
C3103 C3107 1.429 . S
C3104 C3087 1.574 . S
C3104 H3098 0.949 . S
C3104 C3108 1.368 . S
C3105 C3086 1.429 . S
C3105 C3099 1.429 . S
C3105 C3106 1.523 . S
C3106 C3087 1.368 . S
C3106 C3100 1.368 . S
C3106 C3105 1.523 . S
C3107 C3091 1.429 . S
C3107 C3103 1.429 . S
C3107 C3108 1.523 . S
C3108 C3092 1.368 . S
C3108 C3104 1.368 . S
C3108 C3107 1.523 . S
H3109 C3084 0.950 . S
H3110 C3086 0.950 . S
H3111 C3087 0.949 . S
H3112 C3089 0.950 . S
H3113 C3091 0.950 . S
C3114 C3115 1.349 . S
C3114 C3116 1.327 . S
C3114 H3139 0.950 . S
C3115 C3114 1.349 . S
C3115 C3131 1.349 . S
C3116 C3114 1.327 . S
C3116 C3135 1.429 . S
C3116 H3140 0.950 . S
C3117 C3134 1.574 . S
C3117 C3136 1.368 . S
C3117 H3141 0.949 . S
H3118 C3122 0.949 . S
C3119 C3120 1.349 . S
C3119 C3121 1.327 . S
C3119 H3142 0.950 . S
C3120 C3119 1.349 . S
C3120 C3132 1.349 . S
C3121 C3119 1.327 . S
C3121 C3137 1.429 . S
C3121 H3143 0.950 . S
C3122 H3118 0.949 . S
C3122 C3130 1.574 . S
C3122 C3138 1.368 . S
H3123 C3131 0.950 . S
H3124 C3129 0.950 . S
H3125 C3130 0.949 . S
H3126 C3132 0.950 . S
H3127 C3133 0.950 . S
H3128 C3134 0.949 . S
C3129 H3124 0.950 . S
C3129 C3131 1.327 . S
C3129 C3135 1.429 . S
C3130 C3122 1.574 . S
C3130 H3125 0.949 . S
C3130 C3136 1.368 . S
C3131 C3115 1.349 . S
C3131 H3123 0.950 . S
C3131 C3129 1.327 . S
C3132 C3120 1.349 . S
C3132 H3126 0.950 . S
C3132 C3133 1.327 . S
C3133 H3127 0.950 . S
C3133 C3132 1.327 . S
C3133 C3137 1.429 . S
C3134 C3117 1.574 . S
C3134 H3128 0.949 . S
C3134 C3138 1.368 . S
C3135 C3116 1.429 . S
C3135 C3129 1.429 . S
C3135 C3136 1.523 . S
C3136 C3117 1.368 . S
C3136 C3130 1.368 . S
C3136 C3135 1.523 . S
C3137 C3121 1.429 . S
C3137 C3133 1.429 . S
C3137 C3138 1.523 . S
C3138 C3122 1.368 . S
C3138 C3134 1.368 . S
C3138 C3137 1.523 . S
H3139 C3114 0.950 . S
H3140 C3116 0.950 . S
H3141 C3117 0.949 . S
H3142 C3119 0.950 . S
H3143 C3121 0.950 . S
C3144 C3145 1.349 . S
C3144 C3146 1.327 . S
C3144 H3169 0.950 . S
C3145 C3144 1.349 . S
C3145 C3161 1.349 . S
C3146 C3144 1.327 . S
C3146 C3165 1.429 . S
C3146 H3170 0.950 . S
C3147 C3164 1.574 . S
C3147 C3166 1.368 . S
C3147 H3171 0.949 . S
H3148 C3152 0.949 . S
C3149 C3150 1.349 . S
C3149 C3151 1.327 . S
C3149 H3172 0.950 . S
C3150 C3149 1.349 . S
C3150 C3162 1.349 . S
C3151 C3149 1.327 . S
C3151 C3167 1.429 . S
C3151 H3173 0.950 . S
C3152 H3148 0.949 . S
C3152 C3160 1.574 . S
C3152 C3168 1.368 . S
H3153 C3161 0.950 . S
H3154 C3159 0.950 . S
H3155 C3160 0.949 . S
H3156 C3162 0.950 . S
H3157 C3163 0.950 . S
H3158 C3164 0.949 . S
C3159 H3154 0.950 . S
C3159 C3161 1.327 . S
C3159 C3165 1.429 . S
C3160 C3152 1.574 . S
C3160 H3155 0.949 . S
C3160 C3166 1.368 . S
C3161 C3145 1.349 . S
C3161 H3153 0.950 . S
C3161 C3159 1.327 . S
C3162 C3150 1.349 . S
C3162 H3156 0.950 . S
C3162 C3163 1.327 . S
C3163 H3157 0.950 . S
C3163 C3162 1.327 . S
C3163 C3167 1.429 . S
C3164 C3147 1.574 . S
C3164 H3158 0.949 . S
C3164 C3168 1.368 . S
C3165 C3146 1.429 . S
C3165 C3159 1.429 . S
C3165 C3166 1.523 . S
C3166 C3147 1.368 . S
C3166 C3160 1.368 . S
C3166 C3165 1.523 . S
C3167 C3151 1.429 . S
C3167 C3163 1.429 . S
C3167 C3168 1.523 . S
C3168 C3152 1.368 . S
C3168 C3164 1.368 . S
C3168 C3167 1.523 . S
H3169 C3144 0.950 . S
H3170 C3146 0.950 . S
H3171 C3147 0.949 . S
H3172 C3149 0.950 . S
H3173 C3151 0.950 . S
C3174 C3175 1.349 . S
C3174 C3176 1.327 . S
C3174 H3199 0.950 . S
C3175 C3174 1.349 . S
C3175 C3191 1.349 . S
C3176 C3174 1.327 . S
C3176 C3195 1.429 . S
C3176 H3200 0.950 . S
C3177 C3194 1.574 . S
C3177 C3196 1.368 . S
C3177 H3201 0.949 . S
H3178 C3182 0.949 . S
C3179 C3180 1.349 . S
C3179 C3181 1.327 . S
C3179 H3202 0.950 . S
C3180 C3179 1.349 . S
C3180 C3192 1.349 . S
C3181 C3179 1.327 . S
C3181 C3197 1.429 . S
C3181 H3203 0.950 . S
C3182 H3178 0.949 . S
C3182 C3190 1.574 . S
C3182 C3198 1.368 . S
H3183 C3191 0.950 . S
H3184 C3189 0.950 . S
H3185 C3190 0.949 . S
H3186 C3192 0.950 . S
H3187 C3193 0.950 . S
H3188 C3194 0.949 . S
C3189 H3184 0.950 . S
C3189 C3191 1.327 . S
C3189 C3195 1.429 . S
C3190 C3182 1.574 . S
C3190 H3185 0.949 . S
C3190 C3196 1.368 . S
C3191 C3175 1.349 . S
C3191 H3183 0.950 . S
C3191 C3189 1.327 . S
C3192 C3180 1.349 . S
C3192 H3186 0.950 . S
C3192 C3193 1.327 . S
C3193 H3187 0.950 . S
C3193 C3192 1.327 . S
C3193 C3197 1.429 . S
C3194 C3177 1.574 . S
C3194 H3188 0.949 . S
C3194 C3198 1.368 . S
C3195 C3176 1.429 . S
C3195 C3189 1.429 . S
C3195 C3196 1.523 . S
C3196 C3177 1.368 . S
C3196 C3190 1.368 . S
C3196 C3195 1.523 . S
C3197 C3181 1.429 . S
C3197 C3193 1.429 . S
C3197 C3198 1.523 . S
C3198 C3182 1.368 . S
C3198 C3194 1.368 . S
C3198 C3197 1.523 . S
H3199 C3174 0.950 . S
H3200 C3176 0.950 . S
H3201 C3177 0.949 . S
H3202 C3179 0.950 . S
H3203 C3181 0.950 . S
C3204 C3205 1.349 . S
C3204 C3206 1.327 . S
C3204 H3229 0.950 . S
C3205 C3204 1.349 . S
C3205 C3221 1.349 . S
C3206 C3204 1.327 . S
C3206 C3225 1.429 . S
C3206 H3230 0.950 . S
C3207 C3224 1.574 . S
C3207 C3226 1.368 . S
C3207 H3231 0.949 . S
H3208 C3212 0.949 . S
C3209 C3210 1.349 . S
C3209 C3211 1.327 . S
C3209 H3232 0.950 . S
C3210 C3209 1.349 . S
C3210 C3222 1.349 . S
C3211 C3209 1.327 . S
C3211 C3227 1.429 . S
C3211 H3233 0.950 . S
C3212 H3208 0.949 . S
C3212 C3220 1.574 . S
C3212 C3228 1.368 . S
H3213 C3221 0.950 . S
H3214 C3219 0.950 . S
H3215 C3220 0.949 . S
H3216 C3222 0.950 . S
H3217 C3223 0.950 . S
H3218 C3224 0.949 . S
C3219 H3214 0.950 . S
C3219 C3221 1.327 . S
C3219 C3225 1.429 . S
C3220 C3212 1.574 . S
C3220 H3215 0.949 . S
C3220 C3226 1.368 . S
C3221 C3205 1.349 . S
C3221 H3213 0.950 . S
C3221 C3219 1.327 . S
C3222 C3210 1.349 . S
C3222 H3216 0.950 . S
C3222 C3223 1.327 . S
C3223 H3217 0.950 . S
C3223 C3222 1.327 . S
C3223 C3227 1.429 . S
C3224 C3207 1.574 . S
C3224 H3218 0.949 . S
C3224 C3228 1.368 . S
C3225 C3206 1.429 . S
C3225 C3219 1.429 . S
C3225 C3226 1.523 . S
C3226 C3207 1.368 . S
C3226 C3220 1.368 . S
C3226 C3225 1.523 . S
C3227 C3211 1.429 . S
C3227 C3223 1.429 . S
C3227 C3228 1.523 . S
C3228 C3212 1.368 . S
C3228 C3224 1.368 . S
C3228 C3227 1.523 . S
H3229 C3204 0.950 . S
H3230 C3206 0.950 . S
H3231 C3207 0.949 . S
H3232 C3209 0.950 . S
H3233 C3211 0.950 . S
C3234 C3235 1.349 . S
C3234 C3236 1.327 . S
C3234 H3259 0.950 . S
C3235 C3234 1.349 . S
C3235 C3251 1.349 . S
C3236 C3234 1.327 . S
C3236 C3255 1.429 . S
C3236 H3260 0.950 . S
C3237 C3254 1.574 . S
C3237 C3256 1.368 . S
C3237 H3261 0.949 . S
H3238 C3242 0.949 . S
C3239 C3240 1.349 . S
C3239 C3241 1.327 . S
C3239 H3262 0.950 . S
C3240 C3239 1.349 . S
C3240 C3252 1.349 . S
C3241 C3239 1.327 . S
C3241 C3257 1.429 . S
C3241 H3263 0.950 . S
C3242 H3238 0.949 . S
C3242 C3250 1.574 . S
C3242 C3258 1.368 . S
H3243 C3251 0.950 . S
H3244 C3249 0.950 . S
H3245 C3250 0.949 . S
H3246 C3252 0.950 . S
H3247 C3253 0.950 . S
H3248 C3254 0.949 . S
C3249 H3244 0.950 . S
C3249 C3251 1.327 . S
C3249 C3255 1.429 . S
C3250 C3242 1.574 . S
C3250 H3245 0.949 . S
C3250 C3256 1.368 . S
C3251 C3235 1.349 . S
C3251 H3243 0.950 . S
C3251 C3249 1.327 . S
C3252 C3240 1.349 . S
C3252 H3246 0.950 . S
C3252 C3253 1.327 . S
C3253 H3247 0.950 . S
C3253 C3252 1.327 . S
C3253 C3257 1.429 . S
C3254 C3237 1.574 . S
C3254 H3248 0.949 . S
C3254 C3258 1.368 . S
C3255 C3236 1.429 . S
C3255 C3249 1.429 . S
C3255 C3256 1.523 . S
C3256 C3237 1.368 . S
C3256 C3250 1.368 . S
C3256 C3255 1.523 . S
C3257 C3241 1.429 . S
C3257 C3253 1.429 . S
C3257 C3258 1.523 . S
C3258 C3242 1.368 . S
C3258 C3254 1.368 . S
C3258 C3257 1.523 . S
H3259 C3234 0.950 . S
H3260 C3236 0.950 . S
H3261 C3237 0.949 . S
H3262 C3239 0.950 . S
H3263 C3241 0.950 . S
C3264 C3265 1.349 . S
C3264 C3266 1.327 . S
C3264 H3289 0.950 . S
C3265 C3264 1.349 . S
C3265 C3281 1.349 . S
C3266 C3264 1.327 . S
C3266 C3285 1.429 . S
C3266 H3290 0.950 . S
C3267 C3284 1.574 . S
C3267 C3286 1.368 . S
C3267 H3291 0.949 . S
H3268 C3272 0.949 . S
C3269 C3270 1.349 . S
C3269 C3271 1.327 . S
C3269 H3292 0.950 . S
C3270 C3269 1.349 . S
C3270 C3282 1.349 . S
C3271 C3269 1.327 . S
C3271 C3287 1.429 . S
C3271 H3293 0.950 . S
C3272 H3268 0.949 . S
C3272 C3280 1.574 . S
C3272 C3288 1.368 . S
H3273 C3281 0.950 . S
H3274 C3279 0.950 . S
H3275 C3280 0.949 . S
H3276 C3282 0.950 . S
H3277 C3283 0.950 . S
H3278 C3284 0.949 . S
C3279 H3274 0.950 . S
C3279 C3281 1.327 . S
C3279 C3285 1.429 . S
C3280 C3272 1.574 . S
C3280 H3275 0.949 . S
C3280 C3286 1.368 . S
C3281 C3265 1.349 . S
C3281 H3273 0.950 . S
C3281 C3279 1.327 . S
C3282 C3270 1.349 . S
C3282 H3276 0.950 . S
C3282 C3283 1.327 . S
C3283 H3277 0.950 . S
C3283 C3282 1.327 . S
C3283 C3287 1.429 . S
C3284 C3267 1.574 . S
C3284 H3278 0.949 . S
C3284 C3288 1.368 . S
C3285 C3266 1.429 . S
C3285 C3279 1.429 . S
C3285 C3286 1.523 . S
C3286 C3267 1.368 . S
C3286 C3280 1.368 . S
C3286 C3285 1.523 . S
C3287 C3271 1.429 . S
C3287 C3283 1.429 . S
C3287 C3288 1.523 . S
C3288 C3272 1.368 . S
C3288 C3284 1.368 . S
C3288 C3287 1.523 . S
H3289 C3264 0.950 . S
H3290 C3266 0.950 . S
H3291 C3267 0.949 . S
H3292 C3269 0.950 . S
H3293 C3271 0.950 . S
C3294 C3295 1.349 . S
C3294 C3296 1.327 . S
C3294 H3319 0.950 . S
C3295 C3294 1.349 . S
C3295 C3311 1.349 . S
C3296 C3294 1.327 . S
C3296 C3315 1.429 . S
C3296 H3320 0.950 . S
C3297 C3314 1.574 . S
C3297 C3316 1.368 . S
C3297 H3321 0.949 . S
H3298 C3302 0.949 . S
C3299 C3300 1.349 . S
C3299 C3301 1.327 . S
C3299 H3322 0.950 . S
C3300 C3299 1.349 . S
C3300 C3312 1.349 . S
C3301 C3299 1.327 . S
C3301 C3317 1.429 . S
C3301 H3323 0.950 . S
C3302 H3298 0.949 . S
C3302 C3310 1.574 . S
C3302 C3318 1.368 . S
H3303 C3311 0.950 . S
H3304 C3309 0.950 . S
H3305 C3310 0.949 . S
H3306 C3312 0.950 . S
H3307 C3313 0.950 . S
H3308 C3314 0.949 . S
C3309 H3304 0.950 . S
C3309 C3311 1.327 . S
C3309 C3315 1.429 . S
C3310 C3302 1.574 . S
C3310 H3305 0.949 . S
C3310 C3316 1.368 . S
C3311 C3295 1.349 . S
C3311 H3303 0.950 . S
C3311 C3309 1.327 . S
C3312 C3300 1.349 . S
C3312 H3306 0.950 . S
C3312 C3313 1.327 . S
C3313 H3307 0.950 . S
C3313 C3312 1.327 . S
C3313 C3317 1.429 . S
C3314 C3297 1.574 . S
C3314 H3308 0.949 . S
C3314 C3318 1.368 . S
C3315 C3296 1.429 . S
C3315 C3309 1.429 . S
C3315 C3316 1.523 . S
C3316 C3297 1.368 . S
C3316 C3310 1.368 . S
C3316 C3315 1.523 . S
C3317 C3301 1.429 . S
C3317 C3313 1.429 . S
C3317 C3318 1.523 . S
C3318 C3302 1.368 . S
C3318 C3314 1.368 . S
C3318 C3317 1.523 . S
H3319 C3294 0.950 . S
H3320 C3296 0.950 . S
H3321 C3297 0.949 . S
H3322 C3299 0.950 . S
H3323 C3301 0.950 . S
C3324 C3325 1.349 . S
C3324 C3326 1.327 . S
C3324 H3349 0.950 . S
C3325 C3324 1.349 . S
C3325 C3341 1.349 . S
C3326 C3324 1.327 . S
C3326 C3345 1.429 . S
C3326 H3350 0.950 . S
C3327 C3344 1.574 . S
C3327 C3346 1.368 . S
C3327 H3351 0.949 . S
H3328 C3332 0.949 . S
C3329 C3330 1.349 . S
C3329 C3331 1.327 . S
C3329 H3352 0.950 . S
C3330 C3329 1.349 . S
C3330 C3342 1.349 . S
C3331 C3329 1.327 . S
C3331 C3347 1.429 . S
C3331 H3353 0.950 . S
C3332 H3328 0.949 . S
C3332 C3340 1.574 . S
C3332 C3348 1.368 . S
H3333 C3341 0.950 . S
H3334 C3339 0.950 . S
H3335 C3340 0.949 . S
H3336 C3342 0.950 . S
H3337 C3343 0.950 . S
H3338 C3344 0.949 . S
C3339 H3334 0.950 . S
C3339 C3341 1.327 . S
C3339 C3345 1.429 . S
C3340 C3332 1.574 . S
C3340 H3335 0.949 . S
C3340 C3346 1.368 . S
C3341 C3325 1.349 . S
C3341 H3333 0.950 . S
C3341 C3339 1.327 . S
C3342 C3330 1.349 . S
C3342 H3336 0.950 . S
C3342 C3343 1.327 . S
C3343 H3337 0.950 . S
C3343 C3342 1.327 . S
C3343 C3347 1.429 . S
C3344 C3327 1.574 . S
C3344 H3338 0.949 . S
C3344 C3348 1.368 . S
C3345 C3326 1.429 . S
C3345 C3339 1.429 . S
C3345 C3346 1.523 . S
C3346 C3327 1.368 . S
C3346 C3340 1.368 . S
C3346 C3345 1.523 . S
C3347 C3331 1.429 . S
C3347 C3343 1.429 . S
C3347 C3348 1.523 . S
C3348 C3332 1.368 . S
C3348 C3344 1.368 . S
C3348 C3347 1.523 . S
H3349 C3324 0.950 . S
H3350 C3326 0.950 . S
H3351 C3327 0.949 . S
H3352 C3329 0.950 . S
H3353 C3331 0.950 . S
C3354 C3355 1.349 . S
C3354 C3356 1.327 . S
C3354 H3379 0.950 . S
C3355 C3354 1.349 . S
C3355 C3371 1.349 . S
C3356 C3354 1.327 . S
C3356 C3375 1.429 . S
C3356 H3380 0.950 . S
C3357 C3374 1.574 . S
C3357 C3376 1.368 . S
C3357 H3381 0.949 . S
H3358 C3362 0.949 . S
C3359 C3360 1.349 . S
C3359 C3361 1.327 . S
C3359 H3382 0.950 . S
C3360 C3359 1.349 . S
C3360 C3372 1.349 . S
C3361 C3359 1.327 . S
C3361 C3377 1.429 . S
C3361 H3383 0.950 . S
C3362 H3358 0.949 . S
C3362 C3370 1.574 . S
C3362 C3378 1.368 . S
H3363 C3371 0.950 . S
H3364 C3369 0.950 . S
H3365 C3370 0.949 . S
H3366 C3372 0.950 . S
H3367 C3373 0.950 . S
H3368 C3374 0.949 . S
C3369 H3364 0.950 . S
C3369 C3371 1.327 . S
C3369 C3375 1.429 . S
C3370 C3362 1.574 . S
C3370 H3365 0.949 . S
C3370 C3376 1.368 . S
C3371 C3355 1.349 . S
C3371 H3363 0.950 . S
C3371 C3369 1.327 . S
C3372 C3360 1.349 . S
C3372 H3366 0.950 . S
C3372 C3373 1.327 . S
C3373 H3367 0.950 . S
C3373 C3372 1.327 . S
C3373 C3377 1.429 . S
C3374 C3357 1.574 . S
C3374 H3368 0.949 . S
C3374 C3378 1.368 . S
C3375 C3356 1.429 . S
C3375 C3369 1.429 . S
C3375 C3376 1.523 . S
C3376 C3357 1.368 . S
C3376 C3370 1.368 . S
C3376 C3375 1.523 . S
C3377 C3361 1.429 . S
C3377 C3373 1.429 . S
C3377 C3378 1.523 . S
C3378 C3362 1.368 . S
C3378 C3374 1.368 . S
C3378 C3377 1.523 . S
H3379 C3354 0.950 . S
H3380 C3356 0.950 . S
H3381 C3357 0.949 . S
H3382 C3359 0.950 . S
H3383 C3361 0.950 . S
C3384 C3385 1.349 . S
C3384 C3386 1.327 . S
C3384 H3409 0.950 . S
C3385 C3384 1.349 . S
C3385 C3401 1.349 . S
C3386 C3384 1.327 . S
C3386 C3405 1.429 . S
C3386 H3410 0.950 . S
C3387 C3404 1.574 . S
C3387 C3406 1.368 . S
C3387 H3411 0.949 . S
H3388 C3392 0.949 . S
C3389 C3390 1.349 . S
C3389 C3391 1.327 . S
C3389 H3412 0.950 . S
C3390 C3389 1.349 . S
C3390 C3402 1.349 . S
C3391 C3389 1.327 . S
C3391 C3407 1.429 . S
C3391 H3413 0.950 . S
C3392 H3388 0.949 . S
C3392 C3400 1.574 . S
C3392 C3408 1.368 . S
H3393 C3401 0.950 . S
H3394 C3399 0.950 . S
H3395 C3400 0.949 . S
H3396 C3402 0.950 . S
H3397 C3403 0.950 . S
H3398 C3404 0.949 . S
C3399 H3394 0.950 . S
C3399 C3401 1.327 . S
C3399 C3405 1.429 . S
C3400 C3392 1.574 . S
C3400 H3395 0.949 . S
C3400 C3406 1.368 . S
C3401 C3385 1.349 . S
C3401 H3393 0.950 . S
C3401 C3399 1.327 . S
C3402 C3390 1.349 . S
C3402 H3396 0.950 . S
C3402 C3403 1.327 . S
C3403 H3397 0.950 . S
C3403 C3402 1.327 . S
C3403 C3407 1.429 . S
C3404 C3387 1.574 . S
C3404 H3398 0.949 . S
C3404 C3408 1.368 . S
C3405 C3386 1.429 . S
C3405 C3399 1.429 . S
C3405 C3406 1.523 . S
C3406 C3387 1.368 . S
C3406 C3400 1.368 . S
C3406 C3405 1.523 . S
C3407 C3391 1.429 . S
C3407 C3403 1.429 . S
C3407 C3408 1.523 . S
C3408 C3392 1.368 . S
C3408 C3404 1.368 . S
C3408 C3407 1.523 . S
H3409 C3384 0.950 . S
H3410 C3386 0.950 . S
H3411 C3387 0.949 . S
H3412 C3389 0.950 . S
H3413 C3391 0.950 . S
C3414 C3415 1.349 . S
C3414 C3416 1.327 . S
C3414 H3439 0.950 . S
C3415 C3414 1.349 . S
C3415 C3431 1.349 . S
C3416 C3414 1.327 . S
C3416 C3435 1.429 . S
C3416 H3440 0.950 . S
C3417 C3434 1.574 . S
C3417 C3436 1.368 . S
C3417 H3441 0.949 . S
H3418 C3422 0.949 . S
C3419 C3420 1.349 . S
C3419 C3421 1.327 . S
C3419 H3442 0.950 . S
C3420 C3419 1.349 . S
C3420 C3432 1.349 . S
C3421 C3419 1.327 . S
C3421 C3437 1.429 . S
C3421 H3443 0.950 . S
C3422 H3418 0.949 . S
C3422 C3430 1.574 . S
C3422 C3438 1.368 . S
H3423 C3431 0.950 . S
H3424 C3429 0.950 . S
H3425 C3430 0.949 . S
H3426 C3432 0.950 . S
H3427 C3433 0.950 . S
H3428 C3434 0.949 . S
C3429 H3424 0.950 . S
C3429 C3431 1.327 . S
C3429 C3435 1.429 . S
C3430 C3422 1.574 . S
C3430 H3425 0.949 . S
C3430 C3436 1.368 . S
C3431 C3415 1.349 . S
C3431 H3423 0.950 . S
C3431 C3429 1.327 . S
C3432 C3420 1.349 . S
C3432 H3426 0.950 . S
C3432 C3433 1.327 . S
C3433 H3427 0.950 . S
C3433 C3432 1.327 . S
C3433 C3437 1.429 . S
C3434 C3417 1.574 . S
C3434 H3428 0.949 . S
C3434 C3438 1.368 . S
C3435 C3416 1.429 . S
C3435 C3429 1.429 . S
C3435 C3436 1.523 . S
C3436 C3417 1.368 . S
C3436 C3430 1.368 . S
C3436 C3435 1.523 . S
C3437 C3421 1.429 . S
C3437 C3433 1.429 . S
C3437 C3438 1.523 . S
C3438 C3422 1.368 . S
C3438 C3434 1.368 . S
C3438 C3437 1.523 . S
H3439 C3414 0.950 . S
H3440 C3416 0.950 . S
H3441 C3417 0.949 . S
H3442 C3419 0.950 . S
H3443 C3421 0.950 . S
C3444 C3445 1.349 . S
C3444 C3446 1.327 . S
C3444 H3469 0.950 . S
C3445 C3444 1.349 . S
C3445 C3461 1.349 . S
C3446 C3444 1.327 . S
C3446 C3465 1.429 . S
C3446 H3470 0.950 . S
C3447 C3464 1.574 . S
C3447 C3466 1.368 . S
C3447 H3471 0.949 . S
H3448 C3452 0.949 . S
C3449 C3450 1.349 . S
C3449 C3451 1.327 . S
C3449 H3472 0.950 . S
C3450 C3449 1.349 . S
C3450 C3462 1.349 . S
C3451 C3449 1.327 . S
C3451 C3467 1.429 . S
C3451 H3473 0.950 . S
C3452 H3448 0.949 . S
C3452 C3460 1.574 . S
C3452 C3468 1.368 . S
H3453 C3461 0.950 . S
H3454 C3459 0.950 . S
H3455 C3460 0.949 . S
H3456 C3462 0.950 . S
H3457 C3463 0.950 . S
H3458 C3464 0.949 . S
C3459 H3454 0.950 . S
C3459 C3461 1.327 . S
C3459 C3465 1.429 . S
C3460 C3452 1.574 . S
C3460 H3455 0.949 . S
C3460 C3466 1.368 . S
C3461 C3445 1.349 . S
C3461 H3453 0.950 . S
C3461 C3459 1.327 . S
C3462 C3450 1.349 . S
C3462 H3456 0.950 . S
C3462 C3463 1.327 . S
C3463 H3457 0.950 . S
C3463 C3462 1.327 . S
C3463 C3467 1.429 . S
C3464 C3447 1.574 . S
C3464 H3458 0.949 . S
C3464 C3468 1.368 . S
C3465 C3446 1.429 . S
C3465 C3459 1.429 . S
C3465 C3466 1.523 . S
C3466 C3447 1.368 . S
C3466 C3460 1.368 . S
C3466 C3465 1.523 . S
C3467 C3451 1.429 . S
C3467 C3463 1.429 . S
C3467 C3468 1.523 . S
C3468 C3452 1.368 . S
C3468 C3464 1.368 . S
C3468 C3467 1.523 . S
H3469 C3444 0.950 . S
H3470 C3446 0.950 . S
H3471 C3447 0.949 . S
H3472 C3449 0.950 . S
H3473 C3451 0.950 . S
C3474 C3475 1.349 . S
C3474 C3476 1.327 . S
C3474 H3499 0.950 . S
C3475 C3474 1.349 . S
C3475 C3491 1.349 . S
C3476 C3474 1.327 . S
C3476 C3495 1.429 . S
C3476 H3500 0.950 . S
C3477 C3494 1.574 . S
C3477 C3496 1.368 . S
C3477 H3501 0.949 . S
H3478 C3482 0.949 . S
C3479 C3480 1.349 . S
C3479 C3481 1.327 . S
C3479 H3502 0.950 . S
C3480 C3479 1.349 . S
C3480 C3492 1.349 . S
C3481 C3479 1.327 . S
C3481 C3497 1.429 . S
C3481 H3503 0.950 . S
C3482 H3478 0.949 . S
C3482 C3490 1.574 . S
C3482 C3498 1.368 . S
H3483 C3491 0.950 . S
H3484 C3489 0.950 . S
H3485 C3490 0.949 . S
H3486 C3492 0.950 . S
H3487 C3493 0.950 . S
H3488 C3494 0.949 . S
C3489 H3484 0.950 . S
C3489 C3491 1.327 . S
C3489 C3495 1.429 . S
C3490 C3482 1.574 . S
C3490 H3485 0.949 . S
C3490 C3496 1.368 . S
C3491 C3475 1.349 . S
C3491 H3483 0.950 . S
C3491 C3489 1.327 . S
C3492 C3480 1.349 . S
C3492 H3486 0.950 . S
C3492 C3493 1.327 . S
C3493 H3487 0.950 . S
C3493 C3492 1.327 . S
C3493 C3497 1.429 . S
C3494 C3477 1.574 . S
C3494 H3488 0.949 . S
C3494 C3498 1.368 . S
C3495 C3476 1.429 . S
C3495 C3489 1.429 . S
C3495 C3496 1.523 . S
C3496 C3477 1.368 . S
C3496 C3490 1.368 . S
C3496 C3495 1.523 . S
C3497 C3481 1.429 . S
C3497 C3493 1.429 . S
C3497 C3498 1.523 . S
C3498 C3482 1.368 . S
C3498 C3494 1.368 . S
C3498 C3497 1.523 . S
H3499 C3474 0.950 . S
H3500 C3476 0.950 . S
H3501 C3477 0.949 . S
H3502 C3479 0.950 . S
H3503 C3481 0.950 . S
C3504 C3505 1.349 . S
C3504 C3506 1.327 . S
C3504 H3529 0.950 . S
C3505 C3504 1.349 . S
C3505 C3521 1.349 . S
C3506 C3504 1.327 . S
C3506 C3525 1.429 . S
C3506 H3530 0.950 . S
C3507 C3524 1.574 . S
C3507 C3526 1.368 . S
C3507 H3531 0.949 . S
H3508 C3512 0.949 . S
C3509 C3510 1.349 . S
C3509 C3511 1.327 . S
C3509 H3532 0.950 . S
C3510 C3509 1.349 . S
C3510 C3522 1.349 . S
C3511 C3509 1.327 . S
C3511 C3527 1.429 . S
C3511 H3533 0.950 . S
C3512 H3508 0.949 . S
C3512 C3520 1.574 . S
C3512 C3528 1.368 . S
H3513 C3521 0.950 . S
H3514 C3519 0.950 . S
H3515 C3520 0.949 . S
H3516 C3522 0.950 . S
H3517 C3523 0.950 . S
H3518 C3524 0.949 . S
C3519 H3514 0.950 . S
C3519 C3521 1.327 . S
C3519 C3525 1.429 . S
C3520 C3512 1.574 . S
C3520 H3515 0.949 . S
C3520 C3526 1.368 . S
C3521 C3505 1.349 . S
C3521 H3513 0.950 . S
C3521 C3519 1.327 . S
C3522 C3510 1.349 . S
C3522 H3516 0.950 . S
C3522 C3523 1.327 . S
C3523 H3517 0.950 . S
C3523 C3522 1.327 . S
C3523 C3527 1.429 . S
C3524 C3507 1.574 . S
C3524 H3518 0.949 . S
C3524 C3528 1.368 . S
C3525 C3506 1.429 . S
C3525 C3519 1.429 . S
C3525 C3526 1.523 . S
C3526 C3507 1.368 . S
C3526 C3520 1.368 . S
C3526 C3525 1.523 . S
C3527 C3511 1.429 . S
C3527 C3523 1.429 . S
C3527 C3528 1.523 . S
C3528 C3512 1.368 . S
C3528 C3524 1.368 . S
C3528 C3527 1.523 . S
H3529 C3504 0.950 . S
H3530 C3506 0.950 . S
H3531 C3507 0.949 . S
H3532 C3509 0.950 . S
H3533 C3511 0.950 . S
C3534 C3535 1.349 . S
C3534 C3536 1.327 . S
C3534 H3559 0.950 . S
C3535 C3534 1.349 . S
C3535 C3551 1.349 . S
C3536 C3534 1.327 . S
C3536 C3555 1.429 . S
C3536 H3560 0.950 . S
C3537 C3554 1.574 . S
C3537 C3556 1.368 . S
C3537 H3561 0.949 . S
H3538 C3542 0.949 . S
C3539 C3540 1.349 . S
C3539 C3541 1.327 . S
C3539 H3562 0.950 . S
C3540 C3539 1.349 . S
C3540 C3552 1.349 . S
C3541 C3539 1.327 . S
C3541 C3557 1.429 . S
C3541 H3563 0.950 . S
C3542 H3538 0.949 . S
C3542 C3550 1.574 . S
C3542 C3558 1.368 . S
H3543 C3551 0.950 . S
H3544 C3549 0.950 . S
H3545 C3550 0.949 . S
H3546 C3552 0.950 . S
H3547 C3553 0.950 . S
H3548 C3554 0.949 . S
C3549 H3544 0.950 . S
C3549 C3551 1.327 . S
C3549 C3555 1.429 . S
C3550 C3542 1.574 . S
C3550 H3545 0.949 . S
C3550 C3556 1.368 . S
C3551 C3535 1.349 . S
C3551 H3543 0.950 . S
C3551 C3549 1.327 . S
C3552 C3540 1.349 . S
C3552 H3546 0.950 . S
C3552 C3553 1.327 . S
C3553 H3547 0.950 . S
C3553 C3552 1.327 . S
C3553 C3557 1.429 . S
C3554 C3537 1.574 . S
C3554 H3548 0.949 . S
C3554 C3558 1.368 . S
C3555 C3536 1.429 . S
C3555 C3549 1.429 . S
C3555 C3556 1.523 . S
C3556 C3537 1.368 . S
C3556 C3550 1.368 . S
C3556 C3555 1.523 . S
C3557 C3541 1.429 . S
C3557 C3553 1.429 . S
C3557 C3558 1.523 . S
C3558 C3542 1.368 . S
C3558 C3554 1.368 . S
C3558 C3557 1.523 . S
H3559 C3534 0.950 . S
H3560 C3536 0.950 . S
H3561 C3537 0.949 . S
H3562 C3539 0.950 . S
H3563 C3541 0.950 . S
C3564 C3565 1.349 . S
C3564 C3566 1.327 . S
C3564 H3589 0.950 . S
C3565 C3564 1.349 . S
C3565 C3581 1.349 . S
C3566 C3564 1.327 . S
C3566 C3585 1.429 . S
C3566 H3590 0.950 . S
C3567 C3584 1.574 . S
C3567 C3586 1.368 . S
C3567 H3591 0.949 . S
H3568 C3572 0.949 . S
C3569 C3570 1.349 . S
C3569 C3571 1.327 . S
C3569 H3592 0.950 . S
C3570 C3569 1.349 . S
C3570 C3582 1.349 . S
C3571 C3569 1.327 . S
C3571 C3587 1.429 . S
C3571 H3593 0.950 . S
C3572 H3568 0.949 . S
C3572 C3580 1.574 . S
C3572 C3588 1.368 . S
H3573 C3581 0.950 . S
H3574 C3579 0.950 . S
H3575 C3580 0.949 . S
H3576 C3582 0.950 . S
H3577 C3583 0.950 . S
H3578 C3584 0.949 . S
C3579 H3574 0.950 . S
C3579 C3581 1.327 . S
C3579 C3585 1.429 . S
C3580 C3572 1.574 . S
C3580 H3575 0.949 . S
C3580 C3586 1.368 . S
C3581 C3565 1.349 . S
C3581 H3573 0.950 . S
C3581 C3579 1.327 . S
C3582 C3570 1.349 . S
C3582 H3576 0.950 . S
C3582 C3583 1.327 . S
C3583 H3577 0.950 . S
C3583 C3582 1.327 . S
C3583 C3587 1.429 . S
C3584 C3567 1.574 . S
C3584 H3578 0.949 . S
C3584 C3588 1.368 . S
C3585 C3566 1.429 . S
C3585 C3579 1.429 . S
C3585 C3586 1.523 . S
C3586 C3567 1.368 . S
C3586 C3580 1.368 . S
C3586 C3585 1.523 . S
C3587 C3571 1.429 . S
C3587 C3583 1.429 . S
C3587 C3588 1.523 . S
C3588 C3572 1.368 . S
C3588 C3584 1.368 . S
C3588 C3587 1.523 . S
H3589 C3564 0.950 . S
H3590 C3566 0.950 . S
H3591 C3567 0.949 . S
H3592 C3569 0.950 . S
H3593 C3571 0.950 . S
C3594 C3595 1.349 . S
C3594 C3596 1.327 . S
C3594 H3619 0.950 . S
C3595 C3594 1.349 . S
C3595 C3611 1.349 . S
C3596 C3594 1.327 . S
C3596 C3615 1.429 . S
C3596 H3620 0.950 . S
C3597 C3614 1.574 . S
C3597 C3616 1.368 . S
C3597 H3621 0.949 . S
H3598 C3602 0.949 . S
C3599 C3600 1.349 . S
C3599 C3601 1.327 . S
C3599 H3622 0.950 . S
C3600 C3599 1.349 . S
C3600 C3612 1.349 . S
C3601 C3599 1.327 . S
C3601 C3617 1.429 . S
C3601 H3623 0.950 . S
C3602 H3598 0.949 . S
C3602 C3610 1.574 . S
C3602 C3618 1.368 . S
H3603 C3611 0.950 . S
H3604 C3609 0.950 . S
H3605 C3610 0.949 . S
H3606 C3612 0.950 . S
H3607 C3613 0.950 . S
H3608 C3614 0.949 . S
C3609 H3604 0.950 . S
C3609 C3611 1.327 . S
C3609 C3615 1.429 . S
C3610 C3602 1.574 . S
C3610 H3605 0.949 . S
C3610 C3616 1.368 . S
C3611 C3595 1.349 . S
C3611 H3603 0.950 . S
C3611 C3609 1.327 . S
C3612 C3600 1.349 . S
C3612 H3606 0.950 . S
C3612 C3613 1.327 . S
C3613 H3607 0.950 . S
C3613 C3612 1.327 . S
C3613 C3617 1.429 . S
C3614 C3597 1.574 . S
C3614 H3608 0.949 . S
C3614 C3618 1.368 . S
C3615 C3596 1.429 . S
C3615 C3609 1.429 . S
C3615 C3616 1.523 . S
C3616 C3597 1.368 . S
C3616 C3610 1.368 . S
C3616 C3615 1.523 . S
C3617 C3601 1.429 . S
C3617 C3613 1.429 . S
C3617 C3618 1.523 . S
C3618 C3602 1.368 . S
C3618 C3614 1.368 . S
C3618 C3617 1.523 . S
H3619 C3594 0.950 . S
H3620 C3596 0.950 . S
H3621 C3597 0.949 . S
H3622 C3599 0.950 . S
H3623 C3601 0.950 . S
C3624 C3625 1.349 . S
C3624 C3626 1.327 . S
C3624 H3649 0.950 . S
C3625 C3624 1.349 . S
C3625 C3641 1.349 . S
C3626 C3624 1.327 . S
C3626 C3645 1.429 . S
C3626 H3650 0.950 . S
C3627 C3644 1.574 . S
C3627 C3646 1.368 . S
C3627 H3651 0.949 . S
H3628 C3632 0.949 . S
C3629 C3630 1.349 . S
C3629 C3631 1.327 . S
C3629 H3652 0.950 . S
C3630 C3629 1.349 . S
C3630 C3642 1.349 . S
C3631 C3629 1.327 . S
C3631 C3647 1.429 . S
C3631 H3653 0.950 . S
C3632 H3628 0.949 . S
C3632 C3640 1.574 . S
C3632 C3648 1.368 . S
H3633 C3641 0.950 . S
H3634 C3639 0.950 . S
H3635 C3640 0.949 . S
H3636 C3642 0.950 . S
H3637 C3643 0.950 . S
H3638 C3644 0.949 . S
C3639 H3634 0.950 . S
C3639 C3641 1.327 . S
C3639 C3645 1.429 . S
C3640 C3632 1.574 . S
C3640 H3635 0.949 . S
C3640 C3646 1.368 . S
C3641 C3625 1.349 . S
C3641 H3633 0.950 . S
C3641 C3639 1.327 . S
C3642 C3630 1.349 . S
C3642 H3636 0.950 . S
C3642 C3643 1.327 . S
C3643 H3637 0.950 . S
C3643 C3642 1.327 . S
C3643 C3647 1.429 . S
C3644 C3627 1.574 . S
C3644 H3638 0.949 . S
C3644 C3648 1.368 . S
C3645 C3626 1.429 . S
C3645 C3639 1.429 . S
C3645 C3646 1.523 . S
C3646 C3627 1.368 . S
C3646 C3640 1.368 . S
C3646 C3645 1.523 . S
C3647 C3631 1.429 . S
C3647 C3643 1.429 . S
C3647 C3648 1.523 . S
C3648 C3632 1.368 . S
C3648 C3644 1.368 . S
C3648 C3647 1.523 . S
H3649 C3624 0.950 . S
H3650 C3626 0.950 . S
H3651 C3627 0.949 . S
H3652 C3629 0.950 . S
H3653 C3631 0.950 . S
C3654 C3655 1.349 . S
C3654 C3656 1.327 . S
C3654 H3679 0.950 . S
C3655 C3654 1.349 . S
C3655 C3671 1.349 . S
C3656 C3654 1.327 . S
C3656 C3675 1.429 . S
C3656 H3680 0.950 . S
C3657 C3674 1.574 . S
C3657 C3676 1.368 . S
C3657 H3681 0.949 . S
H3658 C3662 0.949 . S
C3659 C3660 1.349 . S
C3659 C3661 1.327 . S
C3659 H3682 0.950 . S
C3660 C3659 1.349 . S
C3660 C3672 1.349 . S
C3661 C3659 1.327 . S
C3661 C3677 1.429 . S
C3661 H3683 0.950 . S
C3662 H3658 0.949 . S
C3662 C3670 1.574 . S
C3662 C3678 1.368 . S
H3663 C3671 0.950 . S
H3664 C3669 0.950 . S
H3665 C3670 0.949 . S
H3666 C3672 0.950 . S
H3667 C3673 0.950 . S
H3668 C3674 0.949 . S
C3669 H3664 0.950 . S
C3669 C3671 1.327 . S
C3669 C3675 1.429 . S
C3670 C3662 1.574 . S
C3670 H3665 0.949 . S
C3670 C3676 1.368 . S
C3671 C3655 1.349 . S
C3671 H3663 0.950 . S
C3671 C3669 1.327 . S
C3672 C3660 1.349 . S
C3672 H3666 0.950 . S
C3672 C3673 1.327 . S
C3673 H3667 0.950 . S
C3673 C3672 1.327 . S
C3673 C3677 1.429 . S
C3674 C3657 1.574 . S
C3674 H3668 0.949 . S
C3674 C3678 1.368 . S
C3675 C3656 1.429 . S
C3675 C3669 1.429 . S
C3675 C3676 1.523 . S
C3676 C3657 1.368 . S
C3676 C3670 1.368 . S
C3676 C3675 1.523 . S
C3677 C3661 1.429 . S
C3677 C3673 1.429 . S
C3677 C3678 1.523 . S
C3678 C3662 1.368 . S
C3678 C3674 1.368 . S
C3678 C3677 1.523 . S
H3679 C3654 0.950 . S
H3680 C3656 0.950 . S
H3681 C3657 0.949 . S
H3682 C3659 0.950 . S
H3683 C3661 0.950 . S
C3684 C3685 1.349 . S
C3684 C3686 1.327 . S
C3684 H3709 0.950 . S
C3685 C3684 1.349 . S
C3685 C3701 1.349 . S
C3686 C3684 1.327 . S
C3686 C3705 1.429 . S
C3686 H3710 0.950 . S
C3687 C3704 1.574 . S
C3687 C3706 1.368 . S
C3687 H3711 0.949 . S
H3688 C3692 0.949 . S
C3689 C3690 1.349 . S
C3689 C3691 1.327 . S
C3689 H3712 0.950 . S
C3690 C3689 1.349 . S
C3690 C3702 1.349 . S
C3691 C3689 1.327 . S
C3691 C3707 1.429 . S
C3691 H3713 0.950 . S
C3692 H3688 0.949 . S
C3692 C3700 1.574 . S
C3692 C3708 1.368 . S
H3693 C3701 0.950 . S
H3694 C3699 0.950 . S
H3695 C3700 0.949 . S
H3696 C3702 0.950 . S
H3697 C3703 0.950 . S
H3698 C3704 0.949 . S
C3699 H3694 0.950 . S
C3699 C3701 1.327 . S
C3699 C3705 1.429 . S
C3700 C3692 1.574 . S
C3700 H3695 0.949 . S
C3700 C3706 1.368 . S
C3701 C3685 1.349 . S
C3701 H3693 0.950 . S
C3701 C3699 1.327 . S
C3702 C3690 1.349 . S
C3702 H3696 0.950 . S
C3702 C3703 1.327 . S
C3703 H3697 0.950 . S
C3703 C3702 1.327 . S
C3703 C3707 1.429 . S
C3704 C3687 1.574 . S
C3704 H3698 0.949 . S
C3704 C3708 1.368 . S
C3705 C3686 1.429 . S
C3705 C3699 1.429 . S
C3705 C3706 1.523 . S
C3706 C3687 1.368 . S
C3706 C3700 1.368 . S
C3706 C3705 1.523 . S
C3707 C3691 1.429 . S
C3707 C3703 1.429 . S
C3707 C3708 1.523 . S
C3708 C3692 1.368 . S
C3708 C3704 1.368 . S
C3708 C3707 1.523 . S
H3709 C3684 0.950 . S
H3710 C3686 0.950 . S
H3711 C3687 0.949 . S
H3712 C3689 0.950 . S
H3713 C3691 0.950 . S
C3714 C3715 1.349 . S
C3714 C3716 1.327 . S
C3714 H3739 0.950 . S
C3715 C3714 1.349 . S
C3715 C3731 1.349 . S
C3716 C3714 1.327 . S
C3716 C3735 1.429 . S
C3716 H3740 0.950 . S
C3717 C3734 1.574 . S
C3717 C3736 1.368 . S
C3717 H3741 0.949 . S
H3718 C3722 0.949 . S
C3719 C3720 1.349 . S
C3719 C3721 1.327 . S
C3719 H3742 0.950 . S
C3720 C3719 1.349 . S
C3720 C3732 1.349 . S
C3721 C3719 1.327 . S
C3721 C3737 1.429 . S
C3721 H3743 0.950 . S
C3722 H3718 0.949 . S
C3722 C3730 1.574 . S
C3722 C3738 1.368 . S
H3723 C3731 0.950 . S
H3724 C3729 0.950 . S
H3725 C3730 0.949 . S
H3726 C3732 0.950 . S
H3727 C3733 0.950 . S
H3728 C3734 0.949 . S
C3729 H3724 0.950 . S
C3729 C3731 1.327 . S
C3729 C3735 1.429 . S
C3730 C3722 1.574 . S
C3730 H3725 0.949 . S
C3730 C3736 1.368 . S
C3731 C3715 1.349 . S
C3731 H3723 0.950 . S
C3731 C3729 1.327 . S
C3732 C3720 1.349 . S
C3732 H3726 0.950 . S
C3732 C3733 1.327 . S
C3733 H3727 0.950 . S
C3733 C3732 1.327 . S
C3733 C3737 1.429 . S
C3734 C3717 1.574 . S
C3734 H3728 0.949 . S
C3734 C3738 1.368 . S
C3735 C3716 1.429 . S
C3735 C3729 1.429 . S
C3735 C3736 1.523 . S
C3736 C3717 1.368 . S
C3736 C3730 1.368 . S
C3736 C3735 1.523 . S
C3737 C3721 1.429 . S
C3737 C3733 1.429 . S
C3737 C3738 1.523 . S
C3738 C3722 1.368 . S
C3738 C3734 1.368 . S
C3738 C3737 1.523 . S
H3739 C3714 0.950 . S
H3740 C3716 0.950 . S
H3741 C3717 0.949 . S
H3742 C3719 0.950 . S
H3743 C3721 0.950 . S
C3744 C3745 1.349 . S
C3744 C3746 1.327 . S
C3744 H3769 0.950 . S
C3745 C3744 1.349 . S
C3745 C3761 1.349 . S
C3746 C3744 1.327 . S
C3746 C3765 1.429 . S
C3746 H3770 0.950 . S
C3747 C3764 1.574 . S
C3747 C3766 1.368 . S
C3747 H3771 0.949 . S
H3748 C3752 0.949 . S
C3749 C3750 1.349 . S
C3749 C3751 1.327 . S
C3749 H3772 0.950 . S
C3750 C3749 1.349 . S
C3750 C3762 1.349 . S
C3751 C3749 1.327 . S
C3751 C3767 1.429 . S
C3751 H3773 0.950 . S
C3752 H3748 0.949 . S
C3752 C3760 1.574 . S
C3752 C3768 1.368 . S
H3753 C3761 0.950 . S
H3754 C3759 0.950 . S
H3755 C3760 0.949 . S
H3756 C3762 0.950 . S
H3757 C3763 0.950 . S
H3758 C3764 0.949 . S
C3759 H3754 0.950 . S
C3759 C3761 1.327 . S
C3759 C3765 1.429 . S
C3760 C3752 1.574 . S
C3760 H3755 0.949 . S
C3760 C3766 1.368 . S
C3761 C3745 1.349 . S
C3761 H3753 0.950 . S
C3761 C3759 1.327 . S
C3762 C3750 1.349 . S
C3762 H3756 0.950 . S
C3762 C3763 1.327 . S
C3763 H3757 0.950 . S
C3763 C3762 1.327 . S
C3763 C3767 1.429 . S
C3764 C3747 1.574 . S
C3764 H3758 0.949 . S
C3764 C3768 1.368 . S
C3765 C3746 1.429 . S
C3765 C3759 1.429 . S
C3765 C3766 1.523 . S
C3766 C3747 1.368 . S
C3766 C3760 1.368 . S
C3766 C3765 1.523 . S
C3767 C3751 1.429 . S
C3767 C3763 1.429 . S
C3767 C3768 1.523 . S
C3768 C3752 1.368 . S
C3768 C3764 1.368 . S
C3768 C3767 1.523 . S
H3769 C3744 0.950 . S
H3770 C3746 0.950 . S
H3771 C3747 0.949 . S
H3772 C3749 0.950 . S
H3773 C3751 0.950 . S
C3774 C3775 1.349 . S
C3774 C3776 1.327 . S
C3774 H3799 0.950 . S
C3775 C3774 1.349 . S
C3775 C3791 1.349 . S
C3776 C3774 1.327 . S
C3776 C3795 1.429 . S
C3776 H3800 0.950 . S
C3777 C3794 1.574 . S
C3777 C3796 1.368 . S
C3777 H3801 0.949 . S
H3778 C3782 0.949 . S
C3779 C3780 1.349 . S
C3779 C3781 1.327 . S
C3779 H3802 0.950 . S
C3780 C3779 1.349 . S
C3780 C3792 1.349 . S
C3781 C3779 1.327 . S
C3781 C3797 1.429 . S
C3781 H3803 0.950 . S
C3782 H3778 0.949 . S
C3782 C3790 1.574 . S
C3782 C3798 1.368 . S
H3783 C3791 0.950 . S
H3784 C3789 0.950 . S
H3785 C3790 0.949 . S
H3786 C3792 0.950 . S
H3787 C3793 0.950 . S
H3788 C3794 0.949 . S
C3789 H3784 0.950 . S
C3789 C3791 1.327 . S
C3789 C3795 1.429 . S
C3790 C3782 1.574 . S
C3790 H3785 0.949 . S
C3790 C3796 1.368 . S
C3791 C3775 1.349 . S
C3791 H3783 0.950 . S
C3791 C3789 1.327 . S
C3792 C3780 1.349 . S
C3792 H3786 0.950 . S
C3792 C3793 1.327 . S
C3793 H3787 0.950 . S
C3793 C3792 1.327 . S
C3793 C3797 1.429 . S
C3794 C3777 1.574 . S
C3794 H3788 0.949 . S
C3794 C3798 1.368 . S
C3795 C3776 1.429 . S
C3795 C3789 1.429 . S
C3795 C3796 1.523 . S
C3796 C3777 1.368 . S
C3796 C3790 1.368 . S
C3796 C3795 1.523 . S
C3797 C3781 1.429 . S
C3797 C3793 1.429 . S
C3797 C3798 1.523 . S
C3798 C3782 1.368 . S
C3798 C3794 1.368 . S
C3798 C3797 1.523 . S
H3799 C3774 0.950 . S
H3800 C3776 0.950 . S
H3801 C3777 0.949 . S
H3802 C3779 0.950 . S
H3803 C3781 0.950 . S
C3804 C3805 1.349 . S
C3804 C3806 1.327 . S
C3804 H3829 0.950 . S
C3805 C3804 1.349 . S
C3805 C3821 1.349 . S
C3806 C3804 1.327 . S
C3806 C3825 1.429 . S
C3806 H3830 0.950 . S
C3807 C3824 1.574 . S
C3807 C3826 1.368 . S
C3807 H3831 0.949 . S
H3808 C3812 0.949 . S
C3809 C3810 1.349 . S
C3809 C3811 1.327 . S
C3809 H3832 0.950 . S
C3810 C3809 1.349 . S
C3810 C3822 1.349 . S
C3811 C3809 1.327 . S
C3811 C3827 1.429 . S
C3811 H3833 0.950 . S
C3812 H3808 0.949 . S
C3812 C3820 1.574 . S
C3812 C3828 1.368 . S
H3813 C3821 0.950 . S
H3814 C3819 0.950 . S
H3815 C3820 0.949 . S
H3816 C3822 0.950 . S
H3817 C3823 0.950 . S
H3818 C3824 0.949 . S
C3819 H3814 0.950 . S
C3819 C3821 1.327 . S
C3819 C3825 1.429 . S
C3820 C3812 1.574 . S
C3820 H3815 0.949 . S
C3820 C3826 1.368 . S
C3821 C3805 1.349 . S
C3821 H3813 0.950 . S
C3821 C3819 1.327 . S
C3822 C3810 1.349 . S
C3822 H3816 0.950 . S
C3822 C3823 1.327 . S
C3823 H3817 0.950 . S
C3823 C3822 1.327 . S
C3823 C3827 1.429 . S
C3824 C3807 1.574 . S
C3824 H3818 0.949 . S
C3824 C3828 1.368 . S
C3825 C3806 1.429 . S
C3825 C3819 1.429 . S
C3825 C3826 1.523 . S
C3826 C3807 1.368 . S
C3826 C3820 1.368 . S
C3826 C3825 1.523 . S
C3827 C3811 1.429 . S
C3827 C3823 1.429 . S
C3827 C3828 1.523 . S
C3828 C3812 1.368 . S
C3828 C3824 1.368 . S
C3828 C3827 1.523 . S
H3829 C3804 0.950 . S
H3830 C3806 0.950 . S
H3831 C3807 0.949 . S
H3832 C3809 0.950 . S
H3833 C3811 0.950 . S
C3834 C3835 1.349 . S
C3834 C3836 1.327 . S
C3834 H3859 0.950 . S
C3835 C3834 1.349 . S
C3835 C3851 1.349 . S
C3836 C3834 1.327 . S
C3836 C3855 1.429 . S
C3836 H3860 0.950 . S
C3837 C3854 1.574 . S
C3837 C3856 1.368 . S
C3837 H3861 0.949 . S
H3838 C3842 0.949 . S
C3839 C3840 1.349 . S
C3839 C3841 1.327 . S
C3839 H3862 0.950 . S
C3840 C3839 1.349 . S
C3840 C3852 1.349 . S
C3841 C3839 1.327 . S
C3841 C3857 1.429 . S
C3841 H3863 0.950 . S
C3842 H3838 0.949 . S
C3842 C3850 1.574 . S
C3842 C3858 1.368 . S
H3843 C3851 0.950 . S
H3844 C3849 0.950 . S
H3845 C3850 0.949 . S
H3846 C3852 0.950 . S
H3847 C3853 0.950 . S
H3848 C3854 0.949 . S
C3849 H3844 0.950 . S
C3849 C3851 1.327 . S
C3849 C3855 1.429 . S
C3850 C3842 1.574 . S
C3850 H3845 0.949 . S
C3850 C3856 1.368 . S
C3851 C3835 1.349 . S
C3851 H3843 0.950 . S
C3851 C3849 1.327 . S
C3852 C3840 1.349 . S
C3852 H3846 0.950 . S
C3852 C3853 1.327 . S
C3853 H3847 0.950 . S
C3853 C3852 1.327 . S
C3853 C3857 1.429 . S
C3854 C3837 1.574 . S
C3854 H3848 0.949 . S
C3854 C3858 1.368 . S
C3855 C3836 1.429 . S
C3855 C3849 1.429 . S
C3855 C3856 1.523 . S
C3856 C3837 1.368 . S
C3856 C3850 1.368 . S
C3856 C3855 1.523 . S
C3857 C3841 1.429 . S
C3857 C3853 1.429 . S
C3857 C3858 1.523 . S
C3858 C3842 1.368 . S
C3858 C3854 1.368 . S
C3858 C3857 1.523 . S
H3859 C3834 0.950 . S
H3860 C3836 0.950 . S
H3861 C3837 0.949 . S
H3862 C3839 0.950 . S
H3863 C3841 0.950 . S
C3864 C3865 1.349 . S
C3864 C3866 1.327 . S
C3864 H3889 0.950 . S
C3865 C3864 1.349 . S
C3865 C3881 1.349 . S
C3866 C3864 1.327 . S
C3866 C3885 1.429 . S
C3866 H3890 0.950 . S
C3867 C3884 1.574 . S
C3867 C3886 1.368 . S
C3867 H3891 0.949 . S
H3868 C3872 0.949 . S
C3869 C3870 1.349 . S
C3869 C3871 1.327 . S
C3869 H3892 0.950 . S
C3870 C3869 1.349 . S
C3870 C3882 1.349 . S
C3871 C3869 1.327 . S
C3871 C3887 1.429 . S
C3871 H3893 0.950 . S
C3872 H3868 0.949 . S
C3872 C3880 1.574 . S
C3872 C3888 1.368 . S
H3873 C3881 0.950 . S
H3874 C3879 0.950 . S
H3875 C3880 0.949 . S
H3876 C3882 0.950 . S
H3877 C3883 0.950 . S
H3878 C3884 0.949 . S
C3879 H3874 0.950 . S
C3879 C3881 1.327 . S
C3879 C3885 1.429 . S
C3880 C3872 1.574 . S
C3880 H3875 0.949 . S
C3880 C3886 1.368 . S
C3881 C3865 1.349 . S
C3881 H3873 0.950 . S
C3881 C3879 1.327 . S
C3882 C3870 1.349 . S
C3882 H3876 0.950 . S
C3882 C3883 1.327 . S
C3883 H3877 0.950 . S
C3883 C3882 1.327 . S
C3883 C3887 1.429 . S
C3884 C3867 1.574 . S
C3884 H3878 0.949 . S
C3884 C3888 1.368 . S
C3885 C3866 1.429 . S
C3885 C3879 1.429 . S
C3885 C3886 1.523 . S
C3886 C3867 1.368 . S
C3886 C3880 1.368 . S
C3886 C3885 1.523 . S
C3887 C3871 1.429 . S
C3887 C3883 1.429 . S
C3887 C3888 1.523 . S
C3888 C3872 1.368 . S
C3888 C3884 1.368 . S
C3888 C3887 1.523 . S
H3889 C3864 0.950 . S
H3890 C3866 0.950 . S
H3891 C3867 0.949 . S
H3892 C3869 0.950 . S
H3893 C3871 0.950 . S
C3894 C3895 1.349 . S
C3894 C3896 1.327 . S
C3894 H3919 0.950 . S
C3895 C3894 1.349 . S
C3895 C3911 1.349 . S
C3896 C3894 1.327 . S
C3896 C3915 1.429 . S
C3896 H3920 0.950 . S
C3897 C3914 1.574 . S
C3897 C3916 1.368 . S
C3897 H3921 0.949 . S
H3898 C3902 0.949 . S
C3899 C3900 1.349 . S
C3899 C3901 1.327 . S
C3899 H3922 0.950 . S
C3900 C3899 1.349 . S
C3900 C3912 1.349 . S
C3901 C3899 1.327 . S
C3901 C3917 1.429 . S
C3901 H3923 0.950 . S
C3902 H3898 0.949 . S
C3902 C3910 1.574 . S
C3902 C3918 1.368 . S
H3903 C3911 0.950 . S
H3904 C3909 0.950 . S
H3905 C3910 0.949 . S
H3906 C3912 0.950 . S
H3907 C3913 0.950 . S
H3908 C3914 0.949 . S
C3909 H3904 0.950 . S
C3909 C3911 1.327 . S
C3909 C3915 1.429 . S
C3910 C3902 1.574 . S
C3910 H3905 0.949 . S
C3910 C3916 1.368 . S
C3911 C3895 1.349 . S
C3911 H3903 0.950 . S
C3911 C3909 1.327 . S
C3912 C3900 1.349 . S
C3912 H3906 0.950 . S
C3912 C3913 1.327 . S
C3913 H3907 0.950 . S
C3913 C3912 1.327 . S
C3913 C3917 1.429 . S
C3914 C3897 1.574 . S
C3914 H3908 0.949 . S
C3914 C3918 1.368 . S
C3915 C3896 1.429 . S
C3915 C3909 1.429 . S
C3915 C3916 1.523 . S
C3916 C3897 1.368 . S
C3916 C3910 1.368 . S
C3916 C3915 1.523 . S
C3917 C3901 1.429 . S
C3917 C3913 1.429 . S
C3917 C3918 1.523 . S
C3918 C3902 1.368 . S
C3918 C3914 1.368 . S
C3918 C3917 1.523 . S
H3919 C3894 0.950 . S
H3920 C3896 0.950 . S
H3921 C3897 0.949 . S
H3922 C3899 0.950 . S
H3923 C3901 0.950 . S
C3924 C3925 1.349 . S
C3924 C3926 1.327 . S
C3924 H3949 0.950 . S
C3925 C3924 1.349 . S
C3925 C3941 1.349 . S
C3926 C3924 1.327 . S
C3926 C3945 1.429 . S
C3926 H3950 0.950 . S
C3927 C3944 1.574 . S
C3927 C3946 1.368 . S
C3927 H3951 0.949 . S
H3928 C3932 0.949 . S
C3929 C3930 1.349 . S
C3929 C3931 1.327 . S
C3929 H3952 0.950 . S
C3930 C3929 1.349 . S
C3930 C3942 1.349 . S
C3931 C3929 1.327 . S
C3931 C3947 1.429 . S
C3931 H3953 0.950 . S
C3932 H3928 0.949 . S
C3932 C3940 1.574 . S
C3932 C3948 1.368 . S
H3933 C3941 0.950 . S
H3934 C3939 0.950 . S
H3935 C3940 0.949 . S
H3936 C3942 0.950 . S
H3937 C3943 0.950 . S
H3938 C3944 0.949 . S
C3939 H3934 0.950 . S
C3939 C3941 1.327 . S
C3939 C3945 1.429 . S
C3940 C3932 1.574 . S
C3940 H3935 0.949 . S
C3940 C3946 1.368 . S
C3941 C3925 1.349 . S
C3941 H3933 0.950 . S
C3941 C3939 1.327 . S
C3942 C3930 1.349 . S
C3942 H3936 0.950 . S
C3942 C3943 1.327 . S
C3943 H3937 0.950 . S
C3943 C3942 1.327 . S
C3943 C3947 1.429 . S
C3944 C3927 1.574 . S
C3944 H3938 0.949 . S
C3944 C3948 1.368 . S
C3945 C3926 1.429 . S
C3945 C3939 1.429 . S
C3945 C3946 1.523 . S
C3946 C3927 1.368 . S
C3946 C3940 1.368 . S
C3946 C3945 1.523 . S
C3947 C3931 1.429 . S
C3947 C3943 1.429 . S
C3947 C3948 1.523 . S
C3948 C3932 1.368 . S
C3948 C3944 1.368 . S
C3948 C3947 1.523 . S
H3949 C3924 0.950 . S
H3950 C3926 0.950 . S
H3951 C3927 0.949 . S
H3952 C3929 0.950 . S
H3953 C3931 0.950 . S
C3954 C3955 1.349 . S
C3954 C3956 1.327 . S
C3954 H3979 0.950 . S
C3955 C3954 1.349 . S
C3955 C3971 1.349 . S
C3956 C3954 1.327 . S
C3956 C3975 1.429 . S
C3956 H3980 0.950 . S
C3957 C3974 1.574 . S
C3957 C3976 1.368 . S
C3957 H3981 0.949 . S
H3958 C3962 0.949 . S
C3959 C3960 1.349 . S
C3959 C3961 1.327 . S
C3959 H3982 0.950 . S
C3960 C3959 1.349 . S
C3960 C3972 1.349 . S
C3961 C3959 1.327 . S
C3961 C3977 1.429 . S
C3961 H3983 0.950 . S
C3962 H3958 0.949 . S
C3962 C3970 1.574 . S
C3962 C3978 1.368 . S
H3963 C3971 0.950 . S
H3964 C3969 0.950 . S
H3965 C3970 0.949 . S
H3966 C3972 0.950 . S
H3967 C3973 0.950 . S
H3968 C3974 0.949 . S
C3969 H3964 0.950 . S
C3969 C3971 1.327 . S
C3969 C3975 1.429 . S
C3970 C3962 1.574 . S
C3970 H3965 0.949 . S
C3970 C3976 1.368 . S
C3971 C3955 1.349 . S
C3971 H3963 0.950 . S
C3971 C3969 1.327 . S
C3972 C3960 1.349 . S
C3972 H3966 0.950 . S
C3972 C3973 1.327 . S
C3973 H3967 0.950 . S
C3973 C3972 1.327 . S
C3973 C3977 1.429 . S
C3974 C3957 1.574 . S
C3974 H3968 0.949 . S
C3974 C3978 1.368 . S
C3975 C3956 1.429 . S
C3975 C3969 1.429 . S
C3975 C3976 1.523 . S
C3976 C3957 1.368 . S
C3976 C3970 1.368 . S
C3976 C3975 1.523 . S
C3977 C3961 1.429 . S
C3977 C3973 1.429 . S
C3977 C3978 1.523 . S
C3978 C3962 1.368 . S
C3978 C3974 1.368 . S
C3978 C3977 1.523 . S
H3979 C3954 0.950 . S
H3980 C3956 0.950 . S
H3981 C3957 0.949 . S
H3982 C3959 0.950 . S
H3983 C3961 0.950 . S
C3984 C3985 1.349 . S
C3984 C3986 1.327 . S
C3984 H4009 0.950 . S
C3985 C3984 1.349 . S
C3985 C4001 1.349 . S
C3986 C3984 1.327 . S
C3986 C4005 1.429 . S
C3986 H4010 0.950 . S
C3987 C4004 1.574 . S
C3987 C4006 1.368 . S
C3987 H4011 0.949 . S
H3988 C3992 0.949 . S
C3989 C3990 1.349 . S
C3989 C3991 1.327 . S
C3989 H4012 0.950 . S
C3990 C3989 1.349 . S
C3990 C4002 1.349 . S
C3991 C3989 1.327 . S
C3991 C4007 1.429 . S
C3991 H4013 0.950 . S
C3992 H3988 0.949 . S
C3992 C4000 1.574 . S
C3992 C4008 1.368 . S
H3993 C4001 0.950 . S
H3994 C3999 0.950 . S
H3995 C4000 0.949 . S
H3996 C4002 0.950 . S
H3997 C4003 0.950 . S
H3998 C4004 0.949 . S
C3999 H3994 0.950 . S
C3999 C4001 1.327 . S
C3999 C4005 1.429 . S
C4000 C3992 1.574 . S
C4000 H3995 0.949 . S
C4000 C4006 1.368 . S
C4001 C3985 1.349 . S
C4001 H3993 0.950 . S
C4001 C3999 1.327 . S
C4002 C3990 1.349 . S
C4002 H3996 0.950 . S
C4002 C4003 1.327 . S
C4003 H3997 0.950 . S
C4003 C4002 1.327 . S
C4003 C4007 1.429 . S
C4004 C3987 1.574 . S
C4004 H3998 0.949 . S
C4004 C4008 1.368 . S
C4005 C3986 1.429 . S
C4005 C3999 1.429 . S
C4005 C4006 1.523 . S
C4006 C3987 1.368 . S
C4006 C4000 1.368 . S
C4006 C4005 1.523 . S
C4007 C3991 1.429 . S
C4007 C4003 1.429 . S
C4007 C4008 1.523 . S
C4008 C3992 1.368 . S
C4008 C4004 1.368 . S
C4008 C4007 1.523 . S
H4009 C3984 0.950 . S
H4010 C3986 0.950 . S
H4011 C3987 0.949 . S
H4012 C3989 0.950 . S
H4013 C3991 0.950 . S
C4014 C4015 1.349 . S
C4014 C4016 1.327 . S
C4014 H4039 0.950 . S
C4015 C4014 1.349 . S
C4015 C4031 1.349 . S
C4016 C4014 1.327 . S
C4016 C4035 1.429 . S
C4016 H4040 0.950 . S
C4017 C4034 1.574 . S
C4017 C4036 1.368 . S
C4017 H4041 0.949 . S
H4018 C4022 0.949 . S
C4019 C4020 1.349 . S
C4019 C4021 1.327 . S
C4019 H4042 0.950 . S
C4020 C4019 1.349 . S
C4020 C4032 1.349 . S
C4021 C4019 1.327 . S
C4021 C4037 1.429 . S
C4021 H4043 0.950 . S
C4022 H4018 0.949 . S
C4022 C4030 1.574 . S
C4022 C4038 1.368 . S
H4023 C4031 0.950 . S
H4024 C4029 0.950 . S
H4025 C4030 0.949 . S
H4026 C4032 0.950 . S
H4027 C4033 0.950 . S
H4028 C4034 0.949 . S
C4029 H4024 0.950 . S
C4029 C4031 1.327 . S
C4029 C4035 1.429 . S
C4030 C4022 1.574 . S
C4030 H4025 0.949 . S
C4030 C4036 1.368 . S
C4031 C4015 1.349 . S
C4031 H4023 0.950 . S
C4031 C4029 1.327 . S
C4032 C4020 1.349 . S
C4032 H4026 0.950 . S
C4032 C4033 1.327 . S
C4033 H4027 0.950 . S
C4033 C4032 1.327 . S
C4033 C4037 1.429 . S
C4034 C4017 1.574 . S
C4034 H4028 0.949 . S
C4034 C4038 1.368 . S
C4035 C4016 1.429 . S
C4035 C4029 1.429 . S
C4035 C4036 1.523 . S
C4036 C4017 1.368 . S
C4036 C4030 1.368 . S
C4036 C4035 1.523 . S
C4037 C4021 1.429 . S
C4037 C4033 1.429 . S
C4037 C4038 1.523 . S
C4038 C4022 1.368 . S
C4038 C4034 1.368 . S
C4038 C4037 1.523 . S
H4039 C4014 0.950 . S
H4040 C4016 0.950 . S
H4041 C4017 0.949 . S
H4042 C4019 0.950 . S
H4043 C4021 0.950 . S
C4044 C4045 1.349 . S
C4044 C4046 1.327 . S
C4044 H4069 0.950 . S
C4045 C4044 1.349 . S
C4045 C4061 1.349 . S
C4046 C4044 1.327 . S
C4046 C4065 1.429 . S
C4046 H4070 0.950 . S
C4047 C4064 1.574 . S
C4047 C4066 1.368 . S
C4047 H4071 0.949 . S
H4048 C4052 0.949 . S
C4049 C4050 1.349 . S
C4049 C4051 1.327 . S
C4049 H4072 0.950 . S
C4050 C4049 1.349 . S
C4050 C4062 1.349 . S
C4051 C4049 1.327 . S
C4051 C4067 1.429 . S
C4051 H4073 0.950 . S
C4052 H4048 0.949 . S
C4052 C4060 1.574 . S
C4052 C4068 1.368 . S
H4053 C4061 0.950 . S
H4054 C4059 0.950 . S
H4055 C4060 0.949 . S
H4056 C4062 0.950 . S
H4057 C4063 0.950 . S
H4058 C4064 0.949 . S
C4059 H4054 0.950 . S
C4059 C4061 1.327 . S
C4059 C4065 1.429 . S
C4060 C4052 1.574 . S
C4060 H4055 0.949 . S
C4060 C4066 1.368 . S
C4061 C4045 1.349 . S
C4061 H4053 0.950 . S
C4061 C4059 1.327 . S
C4062 C4050 1.349 . S
C4062 H4056 0.950 . S
C4062 C4063 1.327 . S
C4063 H4057 0.950 . S
C4063 C4062 1.327 . S
C4063 C4067 1.429 . S
C4064 C4047 1.574 . S
C4064 H4058 0.949 . S
C4064 C4068 1.368 . S
C4065 C4046 1.429 . S
C4065 C4059 1.429 . S
C4065 C4066 1.523 . S
C4066 C4047 1.368 . S
C4066 C4060 1.368 . S
C4066 C4065 1.523 . S
C4067 C4051 1.429 . S
C4067 C4063 1.429 . S
C4067 C4068 1.523 . S
C4068 C4052 1.368 . S
C4068 C4064 1.368 . S
C4068 C4067 1.523 . S
H4069 C4044 0.950 . S
H4070 C4046 0.950 . S
H4071 C4047 0.949 . S
H4072 C4049 0.950 . S
H4073 C4051 0.950 . S
C4074 C4075 1.349 . S
C4074 C4076 1.327 . S
C4074 H4099 0.950 . S
C4075 C4074 1.349 . S
C4075 C4091 1.349 . S
C4076 C4074 1.327 . S
C4076 C4095 1.429 . S
C4076 H4100 0.950 . S
C4077 C4094 1.574 . S
C4077 C4096 1.368 . S
C4077 H4101 0.949 . S
H4078 C4082 0.949 . S
C4079 C4080 1.349 . S
C4079 C4081 1.327 . S
C4079 H4102 0.950 . S
C4080 C4079 1.349 . S
C4080 C4092 1.349 . S
C4081 C4079 1.327 . S
C4081 C4097 1.429 . S
C4081 H4103 0.950 . S
C4082 H4078 0.949 . S
C4082 C4090 1.574 . S
C4082 C4098 1.368 . S
H4083 C4091 0.950 . S
H4084 C4089 0.950 . S
H4085 C4090 0.949 . S
H4086 C4092 0.950 . S
H4087 C4093 0.950 . S
H4088 C4094 0.949 . S
C4089 H4084 0.950 . S
C4089 C4091 1.327 . S
C4089 C4095 1.429 . S
C4090 C4082 1.574 . S
C4090 H4085 0.949 . S
C4090 C4096 1.368 . S
C4091 C4075 1.349 . S
C4091 H4083 0.950 . S
C4091 C4089 1.327 . S
C4092 C4080 1.349 . S
C4092 H4086 0.950 . S
C4092 C4093 1.327 . S
C4093 H4087 0.950 . S
C4093 C4092 1.327 . S
C4093 C4097 1.429 . S
C4094 C4077 1.574 . S
C4094 H4088 0.949 . S
C4094 C4098 1.368 . S
C4095 C4076 1.429 . S
C4095 C4089 1.429 . S
C4095 C4096 1.523 . S
C4096 C4077 1.368 . S
C4096 C4090 1.368 . S
C4096 C4095 1.523 . S
C4097 C4081 1.429 . S
C4097 C4093 1.429 . S
C4097 C4098 1.523 . S
C4098 C4082 1.368 . S
C4098 C4094 1.368 . S
C4098 C4097 1.523 . S
H4099 C4074 0.950 . S
H4100 C4076 0.950 . S
H4101 C4077 0.949 . S
H4102 C4079 0.950 . S
H4103 C4081 0.950 . S
C4104 C4105 1.349 . S
C4104 C4106 1.327 . S
C4104 H4129 0.950 . S
C4105 C4104 1.349 . S
C4105 C4121 1.349 . S
C4106 C4104 1.327 . S
C4106 C4125 1.429 . S
C4106 H4130 0.950 . S
C4107 C4124 1.574 . S
C4107 C4126 1.368 . S
C4107 H4131 0.949 . S
H4108 C4112 0.949 . S
C4109 C4110 1.349 . S
C4109 C4111 1.327 . S
C4109 H4132 0.950 . S
C4110 C4109 1.349 . S
C4110 C4122 1.349 . S
C4111 C4109 1.327 . S
C4111 C4127 1.429 . S
C4111 H4133 0.950 . S
C4112 H4108 0.949 . S
C4112 C4120 1.574 . S
C4112 C4128 1.368 . S
H4113 C4121 0.950 . S
H4114 C4119 0.950 . S
H4115 C4120 0.949 . S
H4116 C4122 0.950 . S
H4117 C4123 0.950 . S
H4118 C4124 0.949 . S
C4119 H4114 0.950 . S
C4119 C4121 1.327 . S
C4119 C4125 1.429 . S
C4120 C4112 1.574 . S
C4120 H4115 0.949 . S
C4120 C4126 1.368 . S
C4121 C4105 1.349 . S
C4121 H4113 0.950 . S
C4121 C4119 1.327 . S
C4122 C4110 1.349 . S
C4122 H4116 0.950 . S
C4122 C4123 1.327 . S
C4123 H4117 0.950 . S
C4123 C4122 1.327 . S
C4123 C4127 1.429 . S
C4124 C4107 1.574 . S
C4124 H4118 0.949 . S
C4124 C4128 1.368 . S
C4125 C4106 1.429 . S
C4125 C4119 1.429 . S
C4125 C4126 1.523 . S
C4126 C4107 1.368 . S
C4126 C4120 1.368 . S
C4126 C4125 1.523 . S
C4127 C4111 1.429 . S
C4127 C4123 1.429 . S
C4127 C4128 1.523 . S
C4128 C4112 1.368 . S
C4128 C4124 1.368 . S
C4128 C4127 1.523 . S
H4129 C4104 0.950 . S
H4130 C4106 0.950 . S
H4131 C4107 0.949 . S
H4132 C4109 0.950 . S
H4133 C4111 0.950 . S
C4134 C4135 1.349 . S
C4134 C4136 1.327 . S
C4134 H4159 0.950 . S
C4135 C4134 1.349 . S
C4135 C4151 1.349 . S
C4136 C4134 1.327 . S
C4136 C4155 1.429 . S
C4136 H4160 0.950 . S
C4137 C4154 1.574 . S
C4137 C4156 1.368 . S
C4137 H4161 0.949 . S
H4138 C4142 0.949 . S
C4139 C4140 1.349 . S
C4139 C4141 1.327 . S
C4139 H4162 0.950 . S
C4140 C4139 1.349 . S
C4140 C4152 1.349 . S
C4141 C4139 1.327 . S
C4141 C4157 1.429 . S
C4141 H4163 0.950 . S
C4142 H4138 0.949 . S
C4142 C4150 1.574 . S
C4142 C4158 1.368 . S
H4143 C4151 0.950 . S
H4144 C4149 0.950 . S
H4145 C4150 0.949 . S
H4146 C4152 0.950 . S
H4147 C4153 0.950 . S
H4148 C4154 0.949 . S
C4149 H4144 0.950 . S
C4149 C4151 1.327 . S
C4149 C4155 1.429 . S
C4150 C4142 1.574 . S
C4150 H4145 0.949 . S
C4150 C4156 1.368 . S
C4151 C4135 1.349 . S
C4151 H4143 0.950 . S
C4151 C4149 1.327 . S
C4152 C4140 1.349 . S
C4152 H4146 0.950 . S
C4152 C4153 1.327 . S
C4153 H4147 0.950 . S
C4153 C4152 1.327 . S
C4153 C4157 1.429 . S
C4154 C4137 1.574 . S
C4154 H4148 0.949 . S
C4154 C4158 1.368 . S
C4155 C4136 1.429 . S
C4155 C4149 1.429 . S
C4155 C4156 1.523 . S
C4156 C4137 1.368 . S
C4156 C4150 1.368 . S
C4156 C4155 1.523 . S
C4157 C4141 1.429 . S
C4157 C4153 1.429 . S
C4157 C4158 1.523 . S
C4158 C4142 1.368 . S
C4158 C4154 1.368 . S
C4158 C4157 1.523 . S
H4159 C4134 0.950 . S
H4160 C4136 0.950 . S
H4161 C4137 0.949 . S
H4162 C4139 0.950 . S
H4163 C4141 0.950 . S
C4164 C4165 1.349 . S
C4164 C4166 1.327 . S
C4164 H4189 0.950 . S
C4165 C4164 1.349 . S
C4165 C4181 1.349 . S
C4166 C4164 1.327 . S
C4166 C4185 1.429 . S
C4166 H4190 0.950 . S
C4167 C4184 1.574 . S
C4167 C4186 1.368 . S
C4167 H4191 0.949 . S
H4168 C4172 0.949 . S
C4169 C4170 1.349 . S
C4169 C4171 1.327 . S
C4169 H4192 0.950 . S
C4170 C4169 1.349 . S
C4170 C4182 1.349 . S
C4171 C4169 1.327 . S
C4171 C4187 1.429 . S
C4171 H4193 0.950 . S
C4172 H4168 0.949 . S
C4172 C4180 1.574 . S
C4172 C4188 1.368 . S
H4173 C4181 0.950 . S
H4174 C4179 0.950 . S
H4175 C4180 0.949 . S
H4176 C4182 0.950 . S
H4177 C4183 0.950 . S
H4178 C4184 0.949 . S
C4179 H4174 0.950 . S
C4179 C4181 1.327 . S
C4179 C4185 1.429 . S
C4180 C4172 1.574 . S
C4180 H4175 0.949 . S
C4180 C4186 1.368 . S
C4181 C4165 1.349 . S
C4181 H4173 0.950 . S
C4181 C4179 1.327 . S
C4182 C4170 1.349 . S
C4182 H4176 0.950 . S
C4182 C4183 1.327 . S
C4183 H4177 0.950 . S
C4183 C4182 1.327 . S
C4183 C4187 1.429 . S
C4184 C4167 1.574 . S
C4184 H4178 0.949 . S
C4184 C4188 1.368 . S
C4185 C4166 1.429 . S
C4185 C4179 1.429 . S
C4185 C4186 1.523 . S
C4186 C4167 1.368 . S
C4186 C4180 1.368 . S
C4186 C4185 1.523 . S
C4187 C4171 1.429 . S
C4187 C4183 1.429 . S
C4187 C4188 1.523 . S
C4188 C4172 1.368 . S
C4188 C4184 1.368 . S
C4188 C4187 1.523 . S
H4189 C4164 0.950 . S
H4190 C4166 0.950 . S
H4191 C4167 0.949 . S
H4192 C4169 0.950 . S
H4193 C4171 0.950 . S
C4194 C4195 1.349 . S
C4194 C4196 1.327 . S
C4194 H4219 0.950 . S
C4195 C4194 1.349 . S
C4195 C4211 1.349 . S
C4196 C4194 1.327 . S
C4196 C4215 1.429 . S
C4196 H4220 0.950 . S
C4197 C4214 1.574 . S
C4197 C4216 1.368 . S
C4197 H4221 0.949 . S
H4198 C4202 0.949 . S
C4199 C4200 1.349 . S
C4199 C4201 1.327 . S
C4199 H4222 0.950 . S
C4200 C4199 1.349 . S
C4200 C4212 1.349 . S
C4201 C4199 1.327 . S
C4201 C4217 1.429 . S
C4201 H4223 0.950 . S
C4202 H4198 0.949 . S
C4202 C4210 1.574 . S
C4202 C4218 1.368 . S
H4203 C4211 0.950 . S
H4204 C4209 0.950 . S
H4205 C4210 0.949 . S
H4206 C4212 0.950 . S
H4207 C4213 0.950 . S
H4208 C4214 0.949 . S
C4209 H4204 0.950 . S
C4209 C4211 1.327 . S
C4209 C4215 1.429 . S
C4210 C4202 1.574 . S
C4210 H4205 0.949 . S
C4210 C4216 1.368 . S
C4211 C4195 1.349 . S
C4211 H4203 0.950 . S
C4211 C4209 1.327 . S
C4212 C4200 1.349 . S
C4212 H4206 0.950 . S
C4212 C4213 1.327 . S
C4213 H4207 0.950 . S
C4213 C4212 1.327 . S
C4213 C4217 1.429 . S
C4214 C4197 1.574 . S
C4214 H4208 0.949 . S
C4214 C4218 1.368 . S
C4215 C4196 1.429 . S
C4215 C4209 1.429 . S
C4215 C4216 1.523 . S
C4216 C4197 1.368 . S
C4216 C4210 1.368 . S
C4216 C4215 1.523 . S
C4217 C4201 1.429 . S
C4217 C4213 1.429 . S
C4217 C4218 1.523 . S
C4218 C4202 1.368 . S
C4218 C4214 1.368 . S
C4218 C4217 1.523 . S
H4219 C4194 0.950 . S
H4220 C4196 0.950 . S
H4221 C4197 0.949 . S
H4222 C4199 0.950 . S
H4223 C4201 0.950 . S
C4224 C4225 1.349 . S
C4224 C4226 1.327 . S
C4224 H4249 0.950 . S
C4225 C4224 1.349 . S
C4225 C4241 1.349 . S
C4226 C4224 1.327 . S
C4226 C4245 1.429 . S
C4226 H4250 0.950 . S
C4227 C4244 1.574 1_455 S
C4227 C4246 1.368 . S
C4227 H4251 0.949 . S
H4228 C4232 0.949 . S
C4229 C4230 1.349 . S
C4229 C4231 1.327 . S
C4229 H4252 0.950 . S
C4230 C4229 1.349 . S
C4230 C4242 1.349 . S
C4231 C4229 1.327 . S
C4231 C4247 1.429 . S
C4231 H4253 0.950 . S
C4232 H4228 0.949 . S
C4232 C4240 1.574 1_655 S
C4232 C4248 1.368 . S
H4233 C4241 0.950 . S
H4234 C4239 0.950 . S
H4235 C4240 0.949 . S
H4236 C4242 0.950 . S
H4237 C4243 0.950 . S
H4238 C4244 0.949 . S
C4239 H4234 0.950 . S
C4239 C4241 1.327 . S
C4239 C4245 1.429 . S
C4240 C4232 1.574 1_455 S
C4240 H4235 0.949 . S
C4240 C4246 1.368 . S
C4241 C4225 1.349 . S
C4241 H4233 0.950 . S
C4241 C4239 1.327 . S
C4242 C4230 1.349 . S
C4242 H4236 0.950 . S
C4242 C4243 1.327 . S
C4243 H4237 0.950 . S
C4243 C4242 1.327 . S
C4243 C4247 1.429 . S
C4244 C4227 1.574 1_655 S
C4244 H4238 0.949 . S
C4244 C4248 1.368 . S
C4245 C4226 1.429 . S
C4245 C4239 1.429 . S
C4245 C4246 1.523 . S
C4246 C4227 1.368 . S
C4246 C4240 1.368 . S
C4246 C4245 1.523 . S
C4247 C4231 1.429 . S
C4247 C4243 1.429 . S
C4247 C4248 1.523 . S
C4248 C4232 1.368 . S
C4248 C4244 1.368 . S
C4248 C4247 1.523 . S
H4249 C4224 0.950 . S
H4250 C4226 0.950 . S
H4251 C4227 0.949 . S
H4252 C4229 0.950 . S
H4253 C4231 0.950 . S
C4254 C4255 1.349 . S
C4254 C4256 1.327 . S
C4254 H4279 0.950 . S
C4255 C4254 1.349 . S
C4255 C4271 1.349 . S
C4256 C4254 1.327 . S
C4256 C4275 1.429 . S
C4256 H4280 0.950 . S
C4257 C4274 1.574 1_545 S
C4257 C4276 1.368 . S
C4257 H4281 0.949 . S
H4258 C4262 0.949 . S
C4259 C4260 1.349 . S
C4259 C4261 1.327 . S
C4259 H4282 0.950 . S
C4260 C4259 1.349 . S
C4260 C4272 1.349 . S
C4261 C4259 1.327 . S
C4261 C4277 1.429 . S
C4261 H4283 0.950 . S
C4262 H4258 0.949 . S
C4262 C4270 1.574 1_565 S
C4262 C4278 1.368 . S
H4263 C4271 0.950 . S
H4264 C4269 0.950 . S
H4265 C4270 0.949 . S
H4266 C4272 0.950 . S
H4267 C4273 0.950 . S
H4268 C4274 0.949 . S
C4269 H4264 0.950 . S
C4269 C4271 1.327 . S
C4269 C4275 1.429 . S
C4270 C4262 1.574 1_545 S
C4270 H4265 0.949 . S
C4270 C4276 1.368 . S
C4271 C4255 1.349 . S
C4271 H4263 0.950 . S
C4271 C4269 1.327 . S
C4272 C4260 1.349 . S
C4272 H4266 0.950 . S
C4272 C4273 1.327 . S
C4273 H4267 0.950 . S
C4273 C4272 1.327 . S
C4273 C4277 1.429 . S
C4274 C4257 1.574 1_565 S
C4274 H4268 0.949 . S
C4274 C4278 1.368 . S
C4275 C4256 1.429 . S
C4275 C4269 1.429 . S
C4275 C4276 1.523 . S
C4276 C4257 1.368 . S
C4276 C4270 1.368 . S
C4276 C4275 1.523 . S
C4277 C4261 1.429 . S
C4277 C4273 1.429 . S
C4277 C4278 1.523 . S
C4278 C4262 1.368 . S
C4278 C4274 1.368 . S
C4278 C4277 1.523 . S
H4279 C4254 0.950 . S
H4280 C4256 0.950 . S
H4281 C4257 0.949 . S
H4282 C4259 0.950 . S
H4283 C4261 0.950 . S
C4284 C4285 1.349 . S
C4284 C4286 1.327 . S
C4284 H4309 0.950 . S
C4285 C4284 1.349 . S
C4285 C4301 1.349 . S
C4286 C4284 1.327 . S
C4286 C4305 1.429 . S
C4286 H4310 0.950 . S
C4287 C4304 1.574 1_655 S
C4287 C4306 1.368 . S
C4287 H4311 0.949 . S
H4288 C4292 0.949 . S
C4289 C4290 1.349 . S
C4289 C4291 1.327 . S
C4289 H4312 0.950 . S
C4290 C4289 1.349 . S
C4290 C4302 1.349 . S
C4291 C4289 1.327 . S
C4291 C4307 1.429 . S
C4291 H4313 0.950 . S
C4292 H4288 0.949 . S
C4292 C4300 1.574 1_455 S
C4292 C4308 1.368 . S
H4293 C4301 0.950 . S
H4294 C4299 0.950 . S
H4295 C4300 0.949 . S
H4296 C4302 0.950 . S
H4297 C4303 0.950 . S
H4298 C4304 0.949 . S
C4299 H4294 0.950 . S
C4299 C4301 1.327 . S
C4299 C4305 1.429 . S
C4300 C4292 1.574 1_655 S
C4300 H4295 0.949 . S
C4300 C4306 1.368 . S
C4301 C4285 1.349 . S
C4301 H4293 0.950 . S
C4301 C4299 1.327 . S
C4302 C4290 1.349 . S
C4302 H4296 0.950 . S
C4302 C4303 1.327 . S
C4303 H4297 0.950 . S
C4303 C4302 1.327 . S
C4303 C4307 1.429 . S
C4304 C4287 1.574 1_455 S
C4304 H4298 0.949 . S
C4304 C4308 1.368 . S
C4305 C4286 1.429 . S
C4305 C4299 1.429 . S
C4305 C4306 1.523 . S
C4306 C4287 1.368 . S
C4306 C4300 1.368 . S
C4306 C4305 1.523 . S
C4307 C4291 1.429 . S
C4307 C4303 1.429 . S
C4307 C4308 1.523 . S
C4308 C4292 1.368 . S
C4308 C4304 1.368 . S
C4308 C4307 1.523 . S
H4309 C4284 0.950 . S
H4310 C4286 0.950 . S
H4311 C4287 0.949 . S
H4312 C4289 0.950 . S
H4313 C4291 0.950 . S
C4314 C4315 1.349 . S
C4314 C4316 1.327 . S
C4314 H4339 0.950 . S
C4315 C4314 1.349 . S
C4315 C4331 1.349 . S
C4316 C4314 1.327 . S
C4316 C4335 1.429 . S
C4316 H4340 0.950 . S
C4317 C4334 1.574 1_565 S
C4317 C4336 1.368 . S
C4317 H4341 0.949 . S
H4318 C4322 0.949 . S
C4319 C4320 1.349 . S
C4319 C4321 1.327 . S
C4319 H4342 0.950 . S
C4320 C4319 1.349 . S
C4320 C4332 1.349 . S
C4321 C4319 1.327 . S
C4321 C4337 1.429 . S
C4321 H4343 0.950 . S
C4322 H4318 0.949 . S
C4322 C4330 1.574 1_545 S
C4322 C4338 1.368 . S
H4323 C4331 0.950 . S
H4324 C4329 0.950 . S
H4325 C4330 0.949 . S
H4326 C4332 0.950 . S
H4327 C4333 0.950 . S
H4328 C4334 0.949 . S
C4329 H4324 0.950 . S
C4329 C4331 1.327 . S
C4329 C4335 1.429 . S
C4330 C4322 1.574 1_565 S
C4330 H4325 0.949 . S
C4330 C4336 1.368 . S
C4331 C4315 1.349 . S
C4331 H4323 0.950 . S
C4331 C4329 1.327 . S
C4332 C4320 1.349 . S
C4332 H4326 0.950 . S
C4332 C4333 1.327 . S
C4333 H4327 0.950 . S
C4333 C4332 1.327 . S
C4333 C4337 1.429 . S
C4334 C4317 1.574 1_545 S
C4334 H4328 0.949 . S
C4334 C4338 1.368 . S
C4335 C4316 1.429 . S
C4335 C4329 1.429 . S
C4335 C4336 1.523 . S
C4336 C4317 1.368 . S
C4336 C4330 1.368 . S
C4336 C4335 1.523 . S
C4337 C4321 1.429 . S
C4337 C4333 1.429 . S
C4337 C4338 1.523 . S
C4338 C4322 1.368 . S
C4338 C4334 1.368 . S
C4338 C4337 1.523 . S
H4339 C4314 0.950 . S
H4340 C4316 0.950 . S
H4341 C4317 0.949 . S
H4342 C4319 0.950 . S
H4343 C4321 0.950 . S
C4344 C4345 1.349 . S
C4344 C4346 1.327 . S
C4344 H4369 0.950 . S
C4345 C4344 1.349 . S
C4345 C4361 1.349 . S
C4346 C4344 1.327 . S
C4346 C4365 1.429 . S
C4346 H4370 0.950 . S
C4347 C4364 1.574 1_655 S
C4347 C4366 1.368 . S
C4347 H4371 0.949 . S
H4348 C4352 0.949 . S
C4349 C4350 1.349 . S
C4349 C4351 1.327 . S
C4349 H4372 0.950 . S
C4350 C4349 1.349 . S
C4350 C4362 1.349 . S
C4351 C4349 1.327 . S
C4351 C4367 1.429 . S
C4351 H4373 0.950 . S
C4352 H4348 0.949 . S
C4352 C4360 1.574 1_455 S
C4352 C4368 1.368 . S
H4353 C4361 0.950 . S
H4354 C4359 0.950 . S
H4355 C4360 0.949 . S
H4356 C4362 0.950 . S
H4357 C4363 0.950 . S
H4358 C4364 0.949 . S
C4359 H4354 0.950 . S
C4359 C4361 1.327 . S
C4359 C4365 1.429 . S
C4360 C4352 1.574 1_655 S
C4360 H4355 0.949 . S
C4360 C4366 1.368 . S
C4361 C4345 1.349 . S
C4361 H4353 0.950 . S
C4361 C4359 1.327 . S
C4362 C4350 1.349 . S
C4362 H4356 0.950 . S
C4362 C4363 1.327 . S
C4363 H4357 0.950 . S
C4363 C4362 1.327 . S
C4363 C4367 1.429 . S
C4364 C4347 1.574 1_455 S
C4364 H4358 0.949 . S
C4364 C4368 1.368 . S
C4365 C4346 1.429 . S
C4365 C4359 1.429 . S
C4365 C4366 1.523 . S
C4366 C4347 1.368 . S
C4366 C4360 1.368 . S
C4366 C4365 1.523 . S
C4367 C4351 1.429 . S
C4367 C4363 1.429 . S
C4367 C4368 1.523 . S
C4368 C4352 1.368 . S
C4368 C4364 1.368 . S
C4368 C4367 1.523 . S
H4369 C4344 0.950 . S
H4370 C4346 0.950 . S
H4371 C4347 0.949 . S
H4372 C4349 0.950 . S
H4373 C4351 0.950 . S
C4374 C4375 1.349 . S
C4374 C4376 1.327 . S
C4374 H4399 0.950 . S
C4375 C4374 1.349 . S
C4375 C4391 1.349 . S
C4376 C4374 1.327 . S
C4376 C4395 1.429 . S
C4376 H4400 0.950 . S
C4377 C4394 1.574 1_545 S
C4377 C4396 1.368 . S
C4377 H4401 0.949 . S
H4378 C4382 0.949 . S
C4379 C4380 1.349 . S
C4379 C4381 1.327 . S
C4379 H4402 0.950 . S
C4380 C4379 1.349 . S
C4380 C4392 1.349 . S
C4381 C4379 1.327 . S
C4381 C4397 1.429 . S
C4381 H4403 0.950 . S
C4382 H4378 0.949 . S
C4382 C4390 1.574 1_565 S
C4382 C4398 1.368 . S
H4383 C4391 0.950 . S
H4384 C4389 0.950 . S
H4385 C4390 0.949 . S
H4386 C4392 0.950 . S
H4387 C4393 0.950 . S
H4388 C4394 0.949 . S
C4389 H4384 0.950 . S
C4389 C4391 1.327 . S
C4389 C4395 1.429 . S
C4390 C4382 1.574 1_545 S
C4390 H4385 0.949 . S
C4390 C4396 1.368 . S
C4391 C4375 1.349 . S
C4391 H4383 0.950 . S
C4391 C4389 1.327 . S
C4392 C4380 1.349 . S
C4392 H4386 0.950 . S
C4392 C4393 1.327 . S
C4393 H4387 0.950 . S
C4393 C4392 1.327 . S
C4393 C4397 1.429 . S
C4394 C4377 1.574 1_565 S
C4394 H4388 0.949 . S
C4394 C4398 1.368 . S
C4395 C4376 1.429 . S
C4395 C4389 1.429 . S
C4395 C4396 1.523 . S
C4396 C4377 1.368 . S
C4396 C4390 1.368 . S
C4396 C4395 1.523 . S
C4397 C4381 1.429 . S
C4397 C4393 1.429 . S
C4397 C4398 1.523 . S
C4398 C4382 1.368 . S
C4398 C4394 1.368 . S
C4398 C4397 1.523 . S
H4399 C4374 0.950 . S
H4400 C4376 0.950 . S
H4401 C4377 0.949 . S
H4402 C4379 0.950 . S
H4403 C4381 0.950 . S
C4404 C4405 1.349 . S
C4404 C4406 1.327 . S
C4404 H4429 0.950 . S
C4405 C4404 1.349 . S
C4405 C4421 1.349 . S
C4406 C4404 1.327 . S
C4406 C4425 1.429 . S
C4406 H4430 0.950 . S
C4407 C4424 1.574 1_455 S
C4407 C4426 1.368 . S
C4407 H4431 0.949 . S
H4408 C4412 0.949 . S
C4409 C4410 1.349 . S
C4409 C4411 1.327 . S
C4409 H4432 0.950 . S
C4410 C4409 1.349 . S
C4410 C4422 1.349 . S
C4411 C4409 1.327 . S
C4411 C4427 1.429 . S
C4411 H4433 0.950 . S
C4412 H4408 0.949 . S
C4412 C4420 1.574 1_655 S
C4412 C4428 1.368 . S
H4413 C4421 0.950 . S
H4414 C4419 0.950 . S
H4415 C4420 0.949 . S
H4416 C4422 0.950 . S
H4417 C4423 0.950 . S
H4418 C4424 0.949 . S
C4419 H4414 0.950 . S
C4419 C4421 1.327 . S
C4419 C4425 1.429 . S
C4420 C4412 1.574 1_455 S
C4420 H4415 0.949 . S
C4420 C4426 1.368 . S
C4421 C4405 1.349 . S
C4421 H4413 0.950 . S
C4421 C4419 1.327 . S
C4422 C4410 1.349 . S
C4422 H4416 0.950 . S
C4422 C4423 1.327 . S
C4423 H4417 0.950 . S
C4423 C4422 1.327 . S
C4423 C4427 1.429 . S
C4424 C4407 1.574 1_655 S
C4424 H4418 0.949 . S
C4424 C4428 1.368 . S
C4425 C4406 1.429 . S
C4425 C4419 1.429 . S
C4425 C4426 1.523 . S
C4426 C4407 1.368 . S
C4426 C4420 1.368 . S
C4426 C4425 1.523 . S
C4427 C4411 1.429 . S
C4427 C4423 1.429 . S
C4427 C4428 1.523 . S
C4428 C4412 1.368 . S
C4428 C4424 1.368 . S
C4428 C4427 1.523 . S
H4429 C4404 0.950 . S
H4430 C4406 0.950 . S
H4431 C4407 0.949 . S
H4432 C4409 0.950 . S
H4433 C4411 0.950 . S
C4434 C4435 1.349 . S
C4434 C4436 1.327 . S
C4434 H4459 0.950 . S
C4435 C4434 1.349 . S
C4435 C4451 1.349 . S
C4436 C4434 1.327 . S
C4436 C4455 1.429 . S
C4436 H4460 0.950 . S
C4437 C4454 1.574 1_545 S
C4437 C4456 1.368 . S
C4437 H4461 0.949 . S
H4438 C4442 0.949 . S
C4439 C4440 1.349 . S
C4439 C4441 1.327 . S
C4439 H4462 0.950 . S
C4440 C4439 1.349 . S
C4440 C4452 1.349 . S
C4441 C4439 1.327 . S
C4441 C4457 1.429 . S
C4441 H4463 0.950 . S
C4442 H4438 0.949 . S
C4442 C4450 1.574 1_565 S
C4442 C4458 1.368 . S
H4443 C4451 0.950 . S
H4444 C4449 0.950 . S
H4445 C4450 0.949 . S
H4446 C4452 0.950 . S
H4447 C4453 0.950 . S
H4448 C4454 0.949 . S
C4449 H4444 0.950 . S
C4449 C4451 1.327 . S
C4449 C4455 1.429 . S
C4450 C4442 1.574 1_545 S
C4450 H4445 0.949 . S
C4450 C4456 1.368 . S
C4451 C4435 1.349 . S
C4451 H4443 0.950 . S
C4451 C4449 1.327 . S
C4452 C4440 1.349 . S
C4452 H4446 0.950 . S
C4452 C4453 1.327 . S
C4453 H4447 0.950 . S
C4453 C4452 1.327 . S
C4453 C4457 1.429 . S
C4454 C4437 1.574 1_565 S
C4454 H4448 0.949 . S
C4454 C4458 1.368 . S
C4455 C4436 1.429 . S
C4455 C4449 1.429 . S
C4455 C4456 1.523 . S
C4456 C4437 1.368 . S
C4456 C4450 1.368 . S
C4456 C4455 1.523 . S
C4457 C4441 1.429 . S
C4457 C4453 1.429 . S
C4457 C4458 1.523 . S
C4458 C4442 1.368 . S
C4458 C4454 1.368 . S
C4458 C4457 1.523 . S
H4459 C4434 0.950 . S
H4460 C4436 0.950 . S
H4461 C4437 0.949 . S
H4462 C4439 0.950 . S
H4463 C4441 0.950 . S
C4464 C4465 1.349 . S
C4464 C4466 1.327 . S
C4464 H4489 0.950 . S
C4465 C4464 1.349 . S
C4465 C4481 1.349 . S
C4466 C4464 1.327 . S
C4466 C4485 1.429 . S
C4466 H4490 0.950 . S
C4467 C4484 1.574 1_545 S
C4467 C4486 1.368 . S
C4467 H4491 0.949 . S
H4468 C4472 0.949 . S
C4469 C4470 1.349 . S
C4469 C4471 1.327 . S
C4469 H4492 0.950 . S
C4470 C4469 1.349 . S
C4470 C4482 1.349 . S
C4471 C4469 1.327 . S
C4471 C4487 1.429 . S
C4471 H4493 0.950 . S
C4472 H4468 0.949 . S
C4472 C4480 1.574 1_565 S
C4472 C4488 1.368 . S
H4473 C4481 0.950 . S
H4474 C4479 0.950 . S
H4475 C4480 0.949 . S
H4476 C4482 0.950 . S
H4477 C4483 0.950 . S
H4478 C4484 0.949 . S
C4479 H4474 0.950 . S
C4479 C4481 1.327 . S
C4479 C4485 1.429 . S
C4480 C4472 1.574 1_545 S
C4480 H4475 0.949 . S
C4480 C4486 1.368 . S
C4481 C4465 1.349 . S
C4481 H4473 0.950 . S
C4481 C4479 1.327 . S
C4482 C4470 1.349 . S
C4482 H4476 0.950 . S
C4482 C4483 1.327 . S
C4483 H4477 0.950 . S
C4483 C4482 1.327 . S
C4483 C4487 1.429 . S
C4484 C4467 1.574 1_565 S
C4484 H4478 0.949 . S
C4484 C4488 1.368 . S
C4485 C4466 1.429 . S
C4485 C4479 1.429 . S
C4485 C4486 1.523 . S
C4486 C4467 1.368 . S
C4486 C4480 1.368 . S
C4486 C4485 1.523 . S
C4487 C4471 1.429 . S
C4487 C4483 1.429 . S
C4487 C4488 1.523 . S
C4488 C4472 1.368 . S
C4488 C4484 1.368 . S
C4488 C4487 1.523 . S
H4489 C4464 0.950 . S
H4490 C4466 0.950 . S
H4491 C4467 0.949 . S
H4492 C4469 0.950 . S
H4493 C4471 0.950 . S
C4494 C4495 1.349 . S
C4494 C4496 1.327 . S
C4494 H4519 0.950 . S
C4495 C4494 1.349 . S
C4495 C4511 1.349 . S
C4496 C4494 1.327 . S
C4496 C4515 1.429 . S
C4496 H4520 0.950 . S
C4497 C4514 1.574 1_455 S
C4497 C4516 1.368 . S
C4497 H4521 0.949 . S
H4498 C4502 0.949 . S
C4499 C4500 1.349 . S
C4499 C4501 1.327 . S
C4499 H4522 0.950 . S
C4500 C4499 1.349 . S
C4500 C4512 1.349 . S
C4501 C4499 1.327 . S
C4501 C4517 1.429 . S
C4501 H4523 0.950 . S
C4502 H4498 0.949 . S
C4502 C4510 1.574 1_655 S
C4502 C4518 1.368 . S
H4503 C4511 0.950 . S
H4504 C4509 0.950 . S
H4505 C4510 0.949 . S
H4506 C4512 0.950 . S
H4507 C4513 0.950 . S
H4508 C4514 0.949 . S
C4509 H4504 0.950 . S
C4509 C4511 1.327 . S
C4509 C4515 1.429 . S
C4510 C4502 1.574 1_455 S
C4510 H4505 0.949 . S
C4510 C4516 1.368 . S
C4511 C4495 1.349 . S
C4511 H4503 0.950 . S
C4511 C4509 1.327 . S
C4512 C4500 1.349 . S
C4512 H4506 0.950 . S
C4512 C4513 1.327 . S
C4513 H4507 0.950 . S
C4513 C4512 1.327 . S
C4513 C4517 1.429 . S
C4514 C4497 1.574 1_655 S
C4514 H4508 0.949 . S
C4514 C4518 1.368 . S
C4515 C4496 1.429 . S
C4515 C4509 1.429 . S
C4515 C4516 1.523 . S
C4516 C4497 1.368 . S
C4516 C4510 1.368 . S
C4516 C4515 1.523 . S
C4517 C4501 1.429 . S
C4517 C4513 1.429 . S
C4517 C4518 1.523 . S
C4518 C4502 1.368 . S
C4518 C4514 1.368 . S
C4518 C4517 1.523 . S
H4519 C4494 0.950 . S
H4520 C4496 0.950 . S
H4521 C4497 0.949 . S
H4522 C4499 0.950 . S
H4523 C4501 0.950 . S
C4524 C4525 1.349 . S
C4524 C4526 1.327 . S
C4524 H4549 0.950 . S
C4525 C4524 1.349 . S
C4525 C4541 1.349 . S
C4526 C4524 1.327 . S
C4526 C4545 1.429 . S
C4526 H4550 0.950 . S
C4527 C4544 1.574 1_565 S
C4527 C4546 1.368 . S
C4527 H4551 0.949 . S
H4528 C4532 0.949 . S
C4529 C4530 1.349 . S
C4529 C4531 1.327 . S
C4529 H4552 0.950 . S
C4530 C4529 1.349 . S
C4530 C4542 1.349 . S
C4531 C4529 1.327 . S
C4531 C4547 1.429 . S
C4531 H4553 0.950 . S
C4532 H4528 0.949 . S
C4532 C4540 1.574 1_545 S
C4532 C4548 1.368 . S
H4533 C4541 0.950 . S
H4534 C4539 0.950 . S
H4535 C4540 0.949 . S
H4536 C4542 0.950 . S
H4537 C4543 0.950 . S
H4538 C4544 0.949 . S
C4539 H4534 0.950 . S
C4539 C4541 1.327 . S
C4539 C4545 1.429 . S
C4540 C4532 1.574 1_565 S
C4540 H4535 0.949 . S
C4540 C4546 1.368 . S
C4541 C4525 1.349 . S
C4541 H4533 0.950 . S
C4541 C4539 1.327 . S
C4542 C4530 1.349 . S
C4542 H4536 0.950 . S
C4542 C4543 1.327 . S
C4543 H4537 0.950 . S
C4543 C4542 1.327 . S
C4543 C4547 1.429 . S
C4544 C4527 1.574 1_545 S
C4544 H4538 0.949 . S
C4544 C4548 1.368 . S
C4545 C4526 1.429 . S
C4545 C4539 1.429 . S
C4545 C4546 1.523 . S
C4546 C4527 1.368 . S
C4546 C4540 1.368 . S
C4546 C4545 1.523 . S
C4547 C4531 1.429 . S
C4547 C4543 1.429 . S
C4547 C4548 1.523 . S
C4548 C4532 1.368 . S
C4548 C4544 1.368 . S
C4548 C4547 1.523 . S
H4549 C4524 0.950 . S
H4550 C4526 0.950 . S
H4551 C4527 0.949 . S
H4552 C4529 0.950 . S
H4553 C4531 0.950 . S
C4554 C4555 1.349 . S
C4554 C4556 1.327 . S
C4554 H4579 0.950 . S
C4555 C4554 1.349 . S
C4555 C4571 1.349 . S
C4556 C4554 1.327 . S
C4556 C4575 1.429 . S
C4556 H4580 0.950 . S
C4557 C4574 1.574 1_455 S
C4557 C4576 1.368 . S
C4557 H4581 0.949 . S
H4558 C4562 0.949 . S
C4559 C4560 1.349 . S
C4559 C4561 1.327 . S
C4559 H4582 0.950 . S
C4560 C4559 1.349 . S
C4560 C4572 1.349 . S
C4561 C4559 1.327 . S
C4561 C4577 1.429 . S
C4561 H4583 0.950 . S
C4562 H4558 0.949 . S
C4562 C4570 1.574 1_655 S
C4562 C4578 1.368 . S
H4563 C4571 0.950 . S
H4564 C4569 0.950 . S
H4565 C4570 0.949 . S
H4566 C4572 0.950 . S
H4567 C4573 0.950 . S
H4568 C4574 0.949 . S
C4569 H4564 0.950 . S
C4569 C4571 1.327 . S
C4569 C4575 1.429 . S
C4570 C4562 1.574 1_455 S
C4570 H4565 0.949 . S
C4570 C4576 1.368 . S
C4571 C4555 1.349 . S
C4571 H4563 0.950 . S
C4571 C4569 1.327 . S
C4572 C4560 1.349 . S
C4572 H4566 0.950 . S
C4572 C4573 1.327 . S
C4573 H4567 0.950 . S
C4573 C4572 1.327 . S
C4573 C4577 1.429 . S
C4574 C4557 1.574 1_655 S
C4574 H4568 0.949 . S
C4574 C4578 1.368 . S
C4575 C4556 1.429 . S
C4575 C4569 1.429 . S
C4575 C4576 1.523 . S
C4576 C4557 1.368 . S
C4576 C4570 1.368 . S
C4576 C4575 1.523 . S
C4577 C4561 1.429 . S
C4577 C4573 1.429 . S
C4577 C4578 1.523 . S
C4578 C4562 1.368 . S
C4578 C4574 1.368 . S
C4578 C4577 1.523 . S
H4579 C4554 0.950 . S
H4580 C4556 0.950 . S
H4581 C4557 0.949 . S
H4582 C4559 0.950 . S
H4583 C4561 0.950 . S
C4584 C4585 1.349 . S
C4584 C4586 1.327 . S
C4584 H4609 0.950 . S
C4585 C4584 1.349 . S
C4585 C4601 1.349 . S
C4586 C4584 1.327 . S
C4586 C4605 1.429 . S
C4586 H4610 0.950 . S
C4587 C4604 1.574 1_565 S
C4587 C4606 1.368 . S
C4587 H4611 0.949 . S
H4588 C4592 0.949 . S
C4589 C4590 1.349 . S
C4589 C4591 1.327 . S
C4589 H4612 0.950 . S
C4590 C4589 1.349 . S
C4590 C4602 1.349 . S
C4591 C4589 1.327 . S
C4591 C4607 1.429 . S
C4591 H4613 0.950 . S
C4592 H4588 0.949 . S
C4592 C4600 1.574 1_545 S
C4592 C4608 1.368 . S
H4593 C4601 0.950 . S
H4594 C4599 0.950 . S
H4595 C4600 0.949 . S
H4596 C4602 0.950 . S
H4597 C4603 0.950 . S
H4598 C4604 0.949 . S
C4599 H4594 0.950 . S
C4599 C4601 1.327 . S
C4599 C4605 1.429 . S
C4600 C4592 1.574 1_565 S
C4600 H4595 0.949 . S
C4600 C4606 1.368 . S
C4601 C4585 1.349 . S
C4601 H4593 0.950 . S
C4601 C4599 1.327 . S
C4602 C4590 1.349 . S
C4602 H4596 0.950 . S
C4602 C4603 1.327 . S
C4603 H4597 0.950 . S
C4603 C4602 1.327 . S
C4603 C4607 1.429 . S
C4604 C4587 1.574 1_545 S
C4604 H4598 0.949 . S
C4604 C4608 1.368 . S
C4605 C4586 1.429 . S
C4605 C4599 1.429 . S
C4605 C4606 1.523 . S
C4606 C4587 1.368 . S
C4606 C4600 1.368 . S
C4606 C4605 1.523 . S
C4607 C4591 1.429 . S
C4607 C4603 1.429 . S
C4607 C4608 1.523 . S
C4608 C4592 1.368 . S
C4608 C4604 1.368 . S
C4608 C4607 1.523 . S
H4609 C4584 0.950 . S
H4610 C4586 0.950 . S
H4611 C4587 0.949 . S
H4612 C4589 0.950 . S
H4613 C4591 0.950 . S
C4614 C4615 1.349 . S
C4614 C4616 1.327 . S
C4614 H4639 0.950 . S
C4615 C4614 1.349 . S
C4615 C4631 1.349 . S
C4616 C4614 1.327 . S
C4616 C4635 1.429 . S
C4616 H4640 0.950 . S
C4617 C4634 1.574 1_455 S
C4617 C4636 1.368 . S
C4617 H4641 0.949 . S
H4618 C4622 0.949 . S
C4619 C4620 1.349 . S
C4619 C4621 1.327 . S
C4619 H4642 0.950 . S
C4620 C4619 1.349 . S
C4620 C4632 1.349 . S
C4621 C4619 1.327 . S
C4621 C4637 1.429 . S
C4621 H4643 0.950 . S
C4622 H4618 0.949 . S
C4622 C4630 1.574 1_655 S
C4622 C4638 1.368 . S
H4623 C4631 0.950 . S
H4624 C4629 0.950 . S
H4625 C4630 0.949 . S
H4626 C4632 0.950 . S
H4627 C4633 0.950 . S
H4628 C4634 0.949 . S
C4629 H4624 0.950 . S
C4629 C4631 1.327 . S
C4629 C4635 1.429 . S
C4630 C4622 1.574 1_455 S
C4630 H4625 0.949 . S
C4630 C4636 1.368 . S
C4631 C4615 1.349 . S
C4631 H4623 0.950 . S
C4631 C4629 1.327 . S
C4632 C4620 1.349 . S
C4632 H4626 0.950 . S
C4632 C4633 1.327 . S
C4633 H4627 0.950 . S
C4633 C4632 1.327 . S
C4633 C4637 1.429 . S
C4634 C4617 1.574 1_655 S
C4634 H4628 0.949 . S
C4634 C4638 1.368 . S
C4635 C4616 1.429 . S
C4635 C4629 1.429 . S
C4635 C4636 1.523 . S
C4636 C4617 1.368 . S
C4636 C4630 1.368 . S
C4636 C4635 1.523 . S
C4637 C4621 1.429 . S
C4637 C4633 1.429 . S
C4637 C4638 1.523 . S
C4638 C4622 1.368 . S
C4638 C4634 1.368 . S
C4638 C4637 1.523 . S
H4639 C4614 0.950 . S
H4640 C4616 0.950 . S
H4641 C4617 0.949 . S
H4642 C4619 0.950 . S
H4643 C4621 0.950 . S
C4644 C4645 1.349 . S
C4644 C4646 1.327 . S
C4644 H4669 0.950 . S
C4645 C4644 1.349 . S
C4645 C4661 1.349 . S
C4646 C4644 1.327 . S
C4646 C4665 1.429 . S
C4646 H4670 0.950 . S
C4647 C4664 1.574 1_545 S
C4647 C4666 1.368 . S
C4647 H4671 0.949 . S
H4648 C4652 0.949 . S
C4649 C4650 1.349 . S
C4649 C4651 1.327 . S
C4649 H4672 0.950 . S
C4650 C4649 1.349 . S
C4650 C4662 1.349 . S
C4651 C4649 1.327 . S
C4651 C4667 1.429 . S
C4651 H4673 0.950 . S
C4652 H4648 0.949 . S
C4652 C4660 1.574 1_565 S
C4652 C4668 1.368 . S
H4653 C4661 0.950 . S
H4654 C4659 0.950 . S
H4655 C4660 0.949 . S
H4656 C4662 0.950 . S
H4657 C4663 0.950 . S
H4658 C4664 0.949 . S
C4659 H4654 0.950 . S
C4659 C4661 1.327 . S
C4659 C4665 1.429 . S
C4660 C4652 1.574 1_545 S
C4660 H4655 0.949 . S
C4660 C4666 1.368 . S
C4661 C4645 1.349 . S
C4661 H4653 0.950 . S
C4661 C4659 1.327 . S
C4662 C4650 1.349 . S
C4662 H4656 0.950 . S
C4662 C4663 1.327 . S
C4663 H4657 0.950 . S
C4663 C4662 1.327 . S
C4663 C4667 1.429 . S
C4664 C4647 1.574 1_565 S
C4664 H4658 0.949 . S
C4664 C4668 1.368 . S
C4665 C4646 1.429 . S
C4665 C4659 1.429 . S
C4665 C4666 1.523 . S
C4666 C4647 1.368 . S
C4666 C4660 1.368 . S
C4666 C4665 1.523 . S
C4667 C4651 1.429 . S
C4667 C4663 1.429 . S
C4667 C4668 1.523 . S
C4668 C4652 1.368 . S
C4668 C4664 1.368 . S
C4668 C4667 1.523 . S
H4669 C4644 0.950 . S
H4670 C4646 0.950 . S
H4671 C4647 0.949 . S
H4672 C4649 0.950 . S
H4673 C4651 0.950 . S
C4674 C4675 1.349 . S
C4674 C4676 1.327 . S
C4674 H4699 0.950 . S
C4675 C4674 1.349 . S
C4675 C4691 1.349 . S
C4676 C4674 1.327 . S
C4676 C4695 1.429 . S
C4676 H4700 0.950 . S
C4677 C4694 1.574 1_455 S
C4677 C4696 1.368 . S
C4677 H4701 0.949 . S
H4678 C4682 0.949 . S
C4679 C4680 1.349 . S
C4679 C4681 1.327 . S
C4679 H4702 0.950 . S
C4680 C4679 1.349 . S
C4680 C4692 1.349 . S
C4681 C4679 1.327 . S
C4681 C4697 1.429 . S
C4681 H4703 0.950 . S
C4682 H4678 0.949 . S
C4682 C4690 1.574 1_655 S
C4682 C4698 1.368 . S
H4683 C4691 0.950 . S
H4684 C4689 0.950 . S
H4685 C4690 0.949 . S
H4686 C4692 0.950 . S
H4687 C4693 0.950 . S
H4688 C4694 0.949 . S
C4689 H4684 0.950 . S
C4689 C4691 1.327 . S
C4689 C4695 1.429 . S
C4690 C4682 1.574 1_455 S
C4690 H4685 0.949 . S
C4690 C4696 1.368 . S
C4691 C4675 1.349 . S
C4691 H4683 0.950 . S
C4691 C4689 1.327 . S
C4692 C4680 1.349 . S
C4692 H4686 0.950 . S
C4692 C4693 1.327 . S
C4693 H4687 0.950 . S
C4693 C4692 1.327 . S
C4693 C4697 1.429 . S
C4694 C4677 1.574 1_655 S
C4694 H4688 0.949 . S
C4694 C4698 1.368 . S
C4695 C4676 1.429 . S
C4695 C4689 1.429 . S
C4695 C4696 1.523 . S
C4696 C4677 1.368 . S
C4696 C4690 1.368 . S
C4696 C4695 1.523 . S
C4697 C4681 1.429 . S
C4697 C4693 1.429 . S
C4697 C4698 1.523 . S
C4698 C4682 1.368 . S
C4698 C4694 1.368 . S
C4698 C4697 1.523 . S
H4699 C4674 0.950 . S
H4700 C4676 0.950 . S
H4701 C4677 0.949 . S
H4702 C4679 0.950 . S
H4703 C4681 0.950 . S
C4704 C4705 1.349 . S
C4704 C4706 1.327 . S
C4704 H4729 0.950 . S
C4705 C4704 1.349 . S
C4705 C4721 1.349 . S
C4706 C4704 1.327 . S
C4706 C4725 1.429 . S
C4706 H4730 0.950 . S
C4707 C4724 1.574 1_554 S
C4707 C4726 1.368 . S
C4707 H4731 0.949 . S
H4708 C4712 0.949 . S
C4709 C4710 1.349 . S
C4709 C4711 1.327 . S
C4709 H4732 0.950 . S
C4710 C4709 1.349 . S
C4710 C4722 1.349 . S
C4711 C4709 1.327 . S
C4711 C4727 1.429 . S
C4711 H4733 0.950 . S
C4712 H4708 0.949 . S
C4712 C4720 1.574 1_556 S
C4712 C4728 1.368 . S
H4713 C4721 0.950 . S
H4714 C4719 0.950 . S
H4715 C4720 0.949 . S
H4716 C4722 0.950 . S
H4717 C4723 0.950 . S
H4718 C4724 0.949 . S
C4719 H4714 0.950 . S
C4719 C4721 1.327 . S
C4719 C4725 1.429 . S
C4720 C4712 1.574 1_554 S
C4720 H4715 0.949 . S
C4720 C4726 1.368 . S
C4721 C4705 1.349 . S
C4721 H4713 0.950 . S
C4721 C4719 1.327 . S
C4722 C4710 1.349 . S
C4722 H4716 0.950 . S
C4722 C4723 1.327 . S
C4723 H4717 0.950 . S
C4723 C4722 1.327 . S
C4723 C4727 1.429 . S
C4724 C4707 1.574 1_556 S
C4724 H4718 0.949 . S
C4724 C4728 1.368 . S
C4725 C4706 1.429 . S
C4725 C4719 1.429 . S
C4725 C4726 1.523 . S
C4726 C4707 1.368 . S
C4726 C4720 1.368 . S
C4726 C4725 1.523 . S
C4727 C4711 1.429 . S
C4727 C4723 1.429 . S
C4727 C4728 1.523 . S
C4728 C4712 1.368 . S
C4728 C4724 1.368 . S
C4728 C4727 1.523 . S
H4729 C4704 0.950 . S
H4730 C4706 0.950 . S
H4731 C4707 0.949 . S
H4732 C4709 0.950 . S
H4733 C4711 0.950 . S
C4734 C4735 1.349 . S
C4734 C4736 1.327 . S
C4734 H4759 0.950 . S
C4735 C4734 1.349 . S
C4735 C4751 1.349 . S
C4736 C4734 1.327 . S
C4736 C4755 1.429 . S
C4736 H4760 0.950 . S
C4737 C4754 1.574 1_556 S
C4737 C4756 1.368 . S
C4737 H4761 0.949 . S
H4738 C4742 0.949 . S
C4739 C4740 1.349 . S
C4739 C4741 1.327 . S
C4739 H4762 0.950 . S
C4740 C4739 1.349 . S
C4740 C4752 1.349 . S
C4741 C4739 1.327 . S
C4741 C4757 1.429 . S
C4741 H4763 0.950 . S
C4742 H4738 0.949 . S
C4742 C4750 1.574 1_554 S
C4742 C4758 1.368 . S
H4743 C4751 0.950 . S
H4744 C4749 0.950 . S
H4745 C4750 0.949 . S
H4746 C4752 0.950 . S
H4747 C4753 0.950 . S
H4748 C4754 0.949 . S
C4749 H4744 0.950 . S
C4749 C4751 1.327 . S
C4749 C4755 1.429 . S
C4750 C4742 1.574 1_556 S
C4750 H4745 0.949 . S
C4750 C4756 1.368 . S
C4751 C4735 1.349 . S
C4751 H4743 0.950 . S
C4751 C4749 1.327 . S
C4752 C4740 1.349 . S
C4752 H4746 0.950 . S
C4752 C4753 1.327 . S
C4753 H4747 0.950 . S
C4753 C4752 1.327 . S
C4753 C4757 1.429 . S
C4754 C4737 1.574 1_554 S
C4754 H4748 0.949 . S
C4754 C4758 1.368 . S
C4755 C4736 1.429 . S
C4755 C4749 1.429 . S
C4755 C4756 1.523 . S
C4756 C4737 1.368 . S
C4756 C4750 1.368 . S
C4756 C4755 1.523 . S
C4757 C4741 1.429 . S
C4757 C4753 1.429 . S
C4757 C4758 1.523 . S
C4758 C4742 1.368 . S
C4758 C4754 1.368 . S
C4758 C4757 1.523 . S
H4759 C4734 0.950 . S
H4760 C4736 0.950 . S
H4761 C4737 0.949 . S
H4762 C4739 0.950 . S
H4763 C4741 0.950 . S
C4764 C4765 1.349 . S
C4764 C4766 1.327 . S
C4764 H4789 0.950 . S
C4765 C4764 1.349 . S
C4765 C4781 1.349 . S
C4766 C4764 1.327 . S
C4766 C4785 1.429 . S
C4766 H4790 0.950 . S
C4767 C4784 1.574 1_554 S
C4767 C4786 1.368 . S
C4767 H4791 0.949 . S
H4768 C4772 0.949 . S
C4769 C4770 1.349 . S
C4769 C4771 1.327 . S
C4769 H4792 0.950 . S
C4770 C4769 1.349 . S
C4770 C4782 1.349 . S
C4771 C4769 1.327 . S
C4771 C4787 1.429 . S
C4771 H4793 0.950 . S
C4772 H4768 0.949 . S
C4772 C4780 1.574 1_556 S
C4772 C4788 1.368 . S
H4773 C4781 0.950 . S
H4774 C4779 0.950 . S
H4775 C4780 0.949 . S
H4776 C4782 0.950 . S
H4777 C4783 0.950 . S
H4778 C4784 0.949 . S
C4779 H4774 0.950 . S
C4779 C4781 1.327 . S
C4779 C4785 1.429 . S
C4780 C4772 1.574 1_554 S
C4780 H4775 0.949 . S
C4780 C4786 1.368 . S
C4781 C4765 1.349 . S
C4781 H4773 0.950 . S
C4781 C4779 1.327 . S
C4782 C4770 1.349 . S
C4782 H4776 0.950 . S
C4782 C4783 1.327 . S
C4783 H4777 0.950 . S
C4783 C4782 1.327 . S
C4783 C4787 1.429 . S
C4784 C4767 1.574 1_556 S
C4784 H4778 0.949 . S
C4784 C4788 1.368 . S
C4785 C4766 1.429 . S
C4785 C4779 1.429 . S
C4785 C4786 1.523 . S
C4786 C4767 1.368 . S
C4786 C4780 1.368 . S
C4786 C4785 1.523 . S
C4787 C4771 1.429 . S
C4787 C4783 1.429 . S
C4787 C4788 1.523 . S
C4788 C4772 1.368 . S
C4788 C4784 1.368 . S
C4788 C4787 1.523 . S
H4789 C4764 0.950 . S
H4790 C4766 0.950 . S
H4791 C4767 0.949 . S
H4792 C4769 0.950 . S
H4793 C4771 0.950 . S
C4794 C4795 1.349 . S
C4794 C4796 1.327 . S
C4794 H4819 0.950 . S
C4795 C4794 1.349 . S
C4795 C4811 1.349 . S
C4796 C4794 1.327 . S
C4796 C4815 1.429 . S
C4796 H4820 0.950 . S
C4797 C4814 1.574 1_556 S
C4797 C4816 1.368 . S
C4797 H4821 0.949 . S
H4798 C4802 0.949 . S
C4799 C4800 1.349 . S
C4799 C4801 1.327 . S
C4799 H4822 0.950 . S
C4800 C4799 1.349 . S
C4800 C4812 1.349 . S
C4801 C4799 1.327 . S
C4801 C4817 1.429 . S
C4801 H4823 0.950 . S
C4802 H4798 0.949 . S
C4802 C4810 1.574 1_554 S
C4802 C4818 1.368 . S
H4803 C4811 0.950 . S
H4804 C4809 0.950 . S
H4805 C4810 0.949 . S
H4806 C4812 0.950 . S
H4807 C4813 0.950 . S
H4808 C4814 0.949 . S
C4809 H4804 0.950 . S
C4809 C4811 1.327 . S
C4809 C4815 1.429 . S
C4810 C4802 1.574 1_556 S
C4810 H4805 0.949 . S
C4810 C4816 1.368 . S
C4811 C4795 1.349 . S
C4811 H4803 0.950 . S
C4811 C4809 1.327 . S
C4812 C4800 1.349 . S
C4812 H4806 0.950 . S
C4812 C4813 1.327 . S
C4813 H4807 0.950 . S
C4813 C4812 1.327 . S
C4813 C4817 1.429 . S
C4814 C4797 1.574 1_554 S
C4814 H4808 0.949 . S
C4814 C4818 1.368 . S
C4815 C4796 1.429 . S
C4815 C4809 1.429 . S
C4815 C4816 1.523 . S
C4816 C4797 1.368 . S
C4816 C4810 1.368 . S
C4816 C4815 1.523 . S
C4817 C4801 1.429 . S
C4817 C4813 1.429 . S
C4817 C4818 1.523 . S
C4818 C4802 1.368 . S
C4818 C4814 1.368 . S
C4818 C4817 1.523 . S
H4819 C4794 0.950 . S
H4820 C4796 0.950 . S
H4821 C4797 0.949 . S
H4822 C4799 0.950 . S
H4823 C4801 0.950 . S
C4824 C4825 1.349 . S
C4824 C4826 1.327 . S
C4824 H4849 0.950 . S
C4825 C4824 1.349 . S
C4825 C4841 1.349 . S
C4826 C4824 1.327 . S
C4826 C4845 1.429 . S
C4826 H4850 0.950 . S
C4827 C4844 1.574 1_554 S
C4827 C4846 1.368 . S
C4827 H4851 0.949 . S
H4828 C4832 0.949 . S
C4829 C4830 1.349 . S
C4829 C4831 1.327 . S
C4829 H4852 0.950 . S
C4830 C4829 1.349 . S
C4830 C4842 1.349 . S
C4831 C4829 1.327 . S
C4831 C4847 1.429 . S
C4831 H4853 0.950 . S
C4832 H4828 0.949 . S
C4832 C4840 1.574 1_556 S
C4832 C4848 1.368 . S
H4833 C4841 0.950 . S
H4834 C4839 0.950 . S
H4835 C4840 0.949 . S
H4836 C4842 0.950 . S
H4837 C4843 0.950 . S
H4838 C4844 0.949 . S
C4839 H4834 0.950 . S
C4839 C4841 1.327 . S
C4839 C4845 1.429 . S
C4840 C4832 1.574 1_554 S
C4840 H4835 0.949 . S
C4840 C4846 1.368 . S
C4841 C4825 1.349 . S
C4841 H4833 0.950 . S
C4841 C4839 1.327 . S
C4842 C4830 1.349 . S
C4842 H4836 0.950 . S
C4842 C4843 1.327 . S
C4843 H4837 0.950 . S
C4843 C4842 1.327 . S
C4843 C4847 1.429 . S
C4844 C4827 1.574 1_556 S
C4844 H4838 0.949 . S
C4844 C4848 1.368 . S
C4845 C4826 1.429 . S
C4845 C4839 1.429 . S
C4845 C4846 1.523 . S
C4846 C4827 1.368 . S
C4846 C4840 1.368 . S
C4846 C4845 1.523 . S
C4847 C4831 1.429 . S
C4847 C4843 1.429 . S
C4847 C4848 1.523 . S
C4848 C4832 1.368 . S
C4848 C4844 1.368 . S
C4848 C4847 1.523 . S
H4849 C4824 0.950 . S
H4850 C4826 0.950 . S
H4851 C4827 0.949 . S
H4852 C4829 0.950 . S
H4853 C4831 0.950 . S
C4854 C4855 1.349 . S
C4854 C4856 1.327 . S
C4854 H4879 0.950 . S
C4855 C4854 1.349 . S
C4855 C4871 1.349 . S
C4856 C4854 1.327 . S
C4856 C4875 1.429 . S
C4856 H4880 0.950 . S
C4857 C4874 1.574 1_554 S
C4857 C4876 1.368 . S
C4857 H4881 0.949 . S
H4858 C4862 0.949 . S
C4859 C4860 1.349 . S
C4859 C4861 1.327 . S
C4859 H4882 0.950 . S
C4860 C4859 1.349 . S
C4860 C4872 1.349 . S
C4861 C4859 1.327 . S
C4861 C4877 1.429 . S
C4861 H4883 0.950 . S
C4862 H4858 0.949 . S
C4862 C4870 1.574 1_556 S
C4862 C4878 1.368 . S
H4863 C4871 0.950 . S
H4864 C4869 0.950 . S
H4865 C4870 0.949 . S
H4866 C4872 0.950 . S
H4867 C4873 0.950 . S
H4868 C4874 0.949 . S
C4869 H4864 0.950 . S
C4869 C4871 1.327 . S
C4869 C4875 1.429 . S
C4870 C4862 1.574 1_554 S
C4870 H4865 0.949 . S
C4870 C4876 1.368 . S
C4871 C4855 1.349 . S
C4871 H4863 0.950 . S
C4871 C4869 1.327 . S
C4872 C4860 1.349 . S
C4872 H4866 0.950 . S
C4872 C4873 1.327 . S
C4873 H4867 0.950 . S
C4873 C4872 1.327 . S
C4873 C4877 1.429 . S
C4874 C4857 1.574 1_556 S
C4874 H4868 0.949 . S
C4874 C4878 1.368 . S
C4875 C4856 1.429 . S
C4875 C4869 1.429 . S
C4875 C4876 1.523 . S
C4876 C4857 1.368 . S
C4876 C4870 1.368 . S
C4876 C4875 1.523 . S
C4877 C4861 1.429 . S
C4877 C4873 1.429 . S
C4877 C4878 1.523 . S
C4878 C4862 1.368 . S
C4878 C4874 1.368 . S
C4878 C4877 1.523 . S
H4879 C4854 0.950 . S
H4880 C4856 0.950 . S
H4881 C4857 0.949 . S
H4882 C4859 0.950 . S
H4883 C4861 0.950 . S
C4884 C4885 1.349 . S
C4884 C4886 1.327 . S
C4884 H4909 0.950 . S
C4885 C4884 1.349 . S
C4885 C4901 1.349 . S
C4886 C4884 1.327 . S
C4886 C4905 1.429 . S
C4886 H4910 0.950 . S
C4887 C4904 1.574 1_556 S
C4887 C4906 1.368 . S
C4887 H4911 0.949 . S
H4888 C4892 0.949 . S
C4889 C4890 1.349 . S
C4889 C4891 1.327 . S
C4889 H4912 0.950 . S
C4890 C4889 1.349 . S
C4890 C4902 1.349 . S
C4891 C4889 1.327 . S
C4891 C4907 1.429 . S
C4891 H4913 0.950 . S
C4892 H4888 0.949 . S
C4892 C4900 1.574 1_554 S
C4892 C4908 1.368 . S
H4893 C4901 0.950 . S
H4894 C4899 0.950 . S
H4895 C4900 0.949 . S
H4896 C4902 0.950 . S
H4897 C4903 0.950 . S
H4898 C4904 0.949 . S
C4899 H4894 0.950 . S
C4899 C4901 1.327 . S
C4899 C4905 1.429 . S
C4900 C4892 1.574 1_556 S
C4900 H4895 0.949 . S
C4900 C4906 1.368 . S
C4901 C4885 1.349 . S
C4901 H4893 0.950 . S
C4901 C4899 1.327 . S
C4902 C4890 1.349 . S
C4902 H4896 0.950 . S
C4902 C4903 1.327 . S
C4903 H4897 0.950 . S
C4903 C4902 1.327 . S
C4903 C4907 1.429 . S
C4904 C4887 1.574 1_554 S
C4904 H4898 0.949 . S
C4904 C4908 1.368 . S
C4905 C4886 1.429 . S
C4905 C4899 1.429 . S
C4905 C4906 1.523 . S
C4906 C4887 1.368 . S
C4906 C4900 1.368 . S
C4906 C4905 1.523 . S
C4907 C4891 1.429 . S
C4907 C4903 1.429 . S
C4907 C4908 1.523 . S
C4908 C4892 1.368 . S
C4908 C4904 1.368 . S
C4908 C4907 1.523 . S
H4909 C4884 0.950 . S
H4910 C4886 0.950 . S
H4911 C4887 0.949 . S
H4912 C4889 0.950 . S
H4913 C4891 0.950 . S
C4914 C4915 1.349 . S
C4914 C4916 1.327 . S
C4914 H4939 0.950 . S
C4915 C4914 1.349 . S
C4915 C4931 1.349 . S
C4916 C4914 1.327 . S
C4916 C4935 1.429 . S
C4916 H4940 0.950 . S
C4917 C4934 1.574 1_556 S
C4917 C4936 1.368 . S
C4917 H4941 0.949 . S
H4918 C4922 0.949 . S
C4919 C4920 1.349 . S
C4919 C4921 1.327 . S
C4919 H4942 0.950 . S
C4920 C4919 1.349 . S
C4920 C4932 1.349 . S
C4921 C4919 1.327 . S
C4921 C4937 1.429 . S
C4921 H4943 0.950 . S
C4922 H4918 0.949 . S
C4922 C4930 1.574 1_554 S
C4922 C4938 1.368 . S
H4923 C4931 0.950 . S
H4924 C4929 0.950 . S
H4925 C4930 0.949 . S
H4926 C4932 0.950 . S
H4927 C4933 0.950 . S
H4928 C4934 0.949 . S
C4929 H4924 0.950 . S
C4929 C4931 1.327 . S
C4929 C4935 1.429 . S
C4930 C4922 1.574 1_556 S
C4930 H4925 0.949 . S
C4930 C4936 1.368 . S
C4931 C4915 1.349 . S
C4931 H4923 0.950 . S
C4931 C4929 1.327 . S
C4932 C4920 1.349 . S
C4932 H4926 0.950 . S
C4932 C4933 1.327 . S
C4933 H4927 0.950 . S
C4933 C4932 1.327 . S
C4933 C4937 1.429 . S
C4934 C4917 1.574 1_554 S
C4934 H4928 0.949 . S
C4934 C4938 1.368 . S
C4935 C4916 1.429 . S
C4935 C4929 1.429 . S
C4935 C4936 1.523 . S
C4936 C4917 1.368 . S
C4936 C4930 1.368 . S
C4936 C4935 1.523 . S
C4937 C4921 1.429 . S
C4937 C4933 1.429 . S
C4937 C4938 1.523 . S
C4938 C4922 1.368 . S
C4938 C4934 1.368 . S
C4938 C4937 1.523 . S
H4939 C4914 0.950 . S
H4940 C4916 0.950 . S
H4941 C4917 0.949 . S
H4942 C4919 0.950 . S
H4943 C4921 0.950 . S
C4944 C4945 1.349 . S
C4944 C4946 1.327 . S
C4944 H4969 0.950 . S
C4945 C4944 1.349 . S
C4945 C4961 1.349 . S
C4946 C4944 1.327 . S
C4946 C4965 1.429 . S
C4946 H4970 0.950 . S
C4947 C4964 1.574 . S
C4947 C4966 1.368 . S
C4947 H4971 0.949 . S
H4948 C4952 0.949 . S
C4949 C4950 1.349 . S
C4949 C4951 1.327 . S
C4949 H4972 0.950 . S
C4950 C4949 1.349 . S
C4950 C4962 1.349 . S
C4951 C4949 1.327 . S
C4951 C4967 1.429 . S
C4951 H4973 0.950 . S
C4952 H4948 0.949 . S
C4952 C4960 1.574 . S
C4952 C4968 1.368 . S
H4953 C4961 0.950 . S
H4954 C4959 0.950 . S
H4955 C4960 0.949 . S
H4956 C4962 0.950 . S
H4957 C4963 0.950 . S
H4958 C4964 0.949 . S
C4959 H4954 0.950 . S
C4959 C4961 1.327 . S
C4959 C4965 1.429 . S
C4960 C4952 1.574 . S
C4960 H4955 0.949 . S
C4960 C4966 1.368 . S
C4961 C4945 1.349 . S
C4961 H4953 0.950 . S
C4961 C4959 1.327 . S
C4962 C4950 1.349 . S
C4962 H4956 0.950 . S
C4962 C4963 1.327 . S
C4963 H4957 0.950 . S
C4963 C4962 1.327 . S
C4963 C4967 1.429 . S
C4964 C4947 1.574 . S
C4964 H4958 0.949 . S
C4964 C4968 1.368 . S
C4965 C4946 1.429 . S
C4965 C4959 1.429 . S
C4965 C4966 1.523 . S
C4966 C4947 1.368 . S
C4966 C4960 1.368 . S
C4966 C4965 1.523 . S
C4967 C4951 1.429 . S
C4967 C4963 1.429 . S
C4967 C4968 1.523 . S
C4968 C4952 1.368 . S
C4968 C4964 1.368 . S
C4968 C4967 1.523 . S
H4969 C4944 0.950 . S
H4970 C4946 0.950 . S
H4971 C4947 0.949 . S
H4972 C4949 0.950 . S
H4973 C4951 0.950 . S
C4974 C4975 1.349 . S
C4974 C4976 1.327 . S
C4974 H4999 0.950 . S
C4975 C4974 1.349 . S
C4975 C4991 1.349 . S
C4976 C4974 1.327 . S
C4976 C4995 1.429 . S
C4976 H5000 0.950 . S
C4977 C4994 1.574 . S
C4977 C4996 1.368 . S
C4977 H5001 0.949 . S
H4978 C4982 0.949 . S
C4979 C4980 1.349 . S
C4979 C4981 1.327 . S
C4979 H5002 0.950 . S
C4980 C4979 1.349 . S
C4980 C4992 1.349 . S
C4981 C4979 1.327 . S
C4981 C4997 1.429 . S
C4981 H5003 0.950 . S
C4982 H4978 0.949 . S
C4982 C4990 1.574 . S
C4982 C4998 1.368 . S
H4983 C4991 0.950 . S
H4984 C4989 0.950 . S
H4985 C4990 0.949 . S
H4986 C4992 0.950 . S
H4987 C4993 0.950 . S
H4988 C4994 0.949 . S
C4989 H4984 0.950 . S
C4989 C4991 1.327 . S
C4989 C4995 1.429 . S
C4990 C4982 1.574 . S
C4990 H4985 0.949 . S
C4990 C4996 1.368 . S
C4991 C4975 1.349 . S
C4991 H4983 0.950 . S
C4991 C4989 1.327 . S
C4992 C4980 1.349 . S
C4992 H4986 0.950 . S
C4992 C4993 1.327 . S
C4993 H4987 0.950 . S
C4993 C4992 1.327 . S
C4993 C4997 1.429 . S
C4994 C4977 1.574 . S
C4994 H4988 0.949 . S
C4994 C4998 1.368 . S
C4995 C4976 1.429 . S
C4995 C4989 1.429 . S
C4995 C4996 1.523 . S
C4996 C4977 1.368 . S
C4996 C4990 1.368 . S
C4996 C4995 1.523 . S
C4997 C4981 1.429 . S
C4997 C4993 1.429 . S
C4997 C4998 1.523 . S
C4998 C4982 1.368 . S
C4998 C4994 1.368 . S
C4998 C4997 1.523 . S
H4999 C4974 0.950 . S
H5000 C4976 0.950 . S
H5001 C4977 0.949 . S
H5002 C4979 0.950 . S
H5003 C4981 0.950 . S
C5004 C5005 1.349 . S
C5004 C5006 1.327 . S
C5004 H5029 0.950 . S
C5005 C5004 1.349 . S
C5005 C5021 1.349 . S
C5006 C5004 1.327 . S
C5006 C5025 1.429 . S
C5006 H5030 0.950 . S
C5007 C5024 1.574 . S
C5007 C5026 1.368 . S
C5007 H5031 0.949 . S
H5008 C5012 0.949 . S
C5009 C5010 1.349 . S
C5009 C5011 1.327 . S
C5009 H5032 0.950 . S
C5010 C5009 1.349 . S
C5010 C5022 1.349 . S
C5011 C5009 1.327 . S
C5011 C5027 1.429 . S
C5011 H5033 0.950 . S
C5012 H5008 0.949 . S
C5012 C5020 1.574 . S
C5012 C5028 1.368 . S
H5013 C5021 0.950 . S
H5014 C5019 0.950 . S
H5015 C5020 0.949 . S
H5016 C5022 0.950 . S
H5017 C5023 0.950 . S
H5018 C5024 0.949 . S
C5019 H5014 0.950 . S
C5019 C5021 1.327 . S
C5019 C5025 1.429 . S
C5020 C5012 1.574 . S
C5020 H5015 0.949 . S
C5020 C5026 1.368 . S
C5021 C5005 1.349 . S
C5021 H5013 0.950 . S
C5021 C5019 1.327 . S
C5022 C5010 1.349 . S
C5022 H5016 0.950 . S
C5022 C5023 1.327 . S
C5023 H5017 0.950 . S
C5023 C5022 1.327 . S
C5023 C5027 1.429 . S
C5024 C5007 1.574 . S
C5024 H5018 0.949 . S
C5024 C5028 1.368 . S
C5025 C5006 1.429 . S
C5025 C5019 1.429 . S
C5025 C5026 1.523 . S
C5026 C5007 1.368 . S
C5026 C5020 1.368 . S
C5026 C5025 1.523 . S
C5027 C5011 1.429 . S
C5027 C5023 1.429 . S
C5027 C5028 1.523 . S
C5028 C5012 1.368 . S
C5028 C5024 1.368 . S
C5028 C5027 1.523 . S
H5029 C5004 0.950 . S
H5030 C5006 0.950 . S
H5031 C5007 0.949 . S
H5032 C5009 0.950 . S
H5033 C5011 0.950 . S
C5034 C5035 1.349 . S
C5034 C5036 1.327 . S
C5034 H5059 0.950 . S
C5035 C5034 1.349 . S
C5035 C5051 1.349 . S
C5036 C5034 1.327 . S
C5036 C5055 1.429 . S
C5036 H5060 0.950 . S
C5037 C5054 1.574 . S
C5037 C5056 1.368 . S
C5037 H5061 0.949 . S
H5038 C5042 0.949 . S
C5039 C5040 1.349 . S
C5039 C5041 1.327 . S
C5039 H5062 0.950 . S
C5040 C5039 1.349 . S
C5040 C5052 1.349 . S
C5041 C5039 1.327 . S
C5041 C5057 1.429 . S
C5041 H5063 0.950 . S
C5042 H5038 0.949 . S
C5042 C5050 1.574 . S
C5042 C5058 1.368 . S
H5043 C5051 0.950 . S
H5044 C5049 0.950 . S
H5045 C5050 0.949 . S
H5046 C5052 0.950 . S
H5047 C5053 0.950 . S
H5048 C5054 0.949 . S
C5049 H5044 0.950 . S
C5049 C5051 1.327 . S
C5049 C5055 1.429 . S
C5050 C5042 1.574 . S
C5050 H5045 0.949 . S
C5050 C5056 1.368 . S
C5051 C5035 1.349 . S
C5051 H5043 0.950 . S
C5051 C5049 1.327 . S
C5052 C5040 1.349 . S
C5052 H5046 0.950 . S
C5052 C5053 1.327 . S
C5053 H5047 0.950 . S
C5053 C5052 1.327 . S
C5053 C5057 1.429 . S
C5054 C5037 1.574 . S
C5054 H5048 0.949 . S
C5054 C5058 1.368 . S
C5055 C5036 1.429 . S
C5055 C5049 1.429 . S
C5055 C5056 1.523 . S
C5056 C5037 1.368 . S
C5056 C5050 1.368 . S
C5056 C5055 1.523 . S
C5057 C5041 1.429 . S
C5057 C5053 1.429 . S
C5057 C5058 1.523 . S
C5058 C5042 1.368 . S
C5058 C5054 1.368 . S
C5058 C5057 1.523 . S
H5059 C5034 0.950 . S
H5060 C5036 0.950 . S
H5061 C5037 0.949 . S
H5062 C5039 0.950 . S
H5063 C5041 0.950 . S
C5064 C5065 1.349 . S
C5064 C5066 1.327 . S
C5064 H5089 0.950 . S
C5065 C5064 1.349 . S
C5065 C5081 1.349 . S
C5066 C5064 1.327 . S
C5066 C5085 1.429 . S
C5066 H5090 0.950 . S
C5067 C5084 1.574 . S
C5067 C5086 1.368 . S
C5067 H5091 0.949 . S
H5068 C5072 0.949 . S
C5069 C5070 1.349 . S
C5069 C5071 1.327 . S
C5069 H5092 0.950 . S
C5070 C5069 1.349 . S
C5070 C5082 1.349 . S
C5071 C5069 1.327 . S
C5071 C5087 1.429 . S
C5071 H5093 0.950 . S
C5072 H5068 0.949 . S
C5072 C5080 1.574 . S
C5072 C5088 1.368 . S
H5073 C5081 0.950 . S
H5074 C5079 0.950 . S
H5075 C5080 0.949 . S
H5076 C5082 0.950 . S
H5077 C5083 0.950 . S
H5078 C5084 0.949 . S
C5079 H5074 0.950 . S
C5079 C5081 1.327 . S
C5079 C5085 1.429 . S
C5080 C5072 1.574 . S
C5080 H5075 0.949 . S
C5080 C5086 1.368 . S
C5081 C5065 1.349 . S
C5081 H5073 0.950 . S
C5081 C5079 1.327 . S
C5082 C5070 1.349 . S
C5082 H5076 0.950 . S
C5082 C5083 1.327 . S
C5083 H5077 0.950 . S
C5083 C5082 1.327 . S
C5083 C5087 1.429 . S
C5084 C5067 1.574 . S
C5084 H5078 0.949 . S
C5084 C5088 1.368 . S
C5085 C5066 1.429 . S
C5085 C5079 1.429 . S
C5085 C5086 1.523 . S
C5086 C5067 1.368 . S
C5086 C5080 1.368 . S
C5086 C5085 1.523 . S
C5087 C5071 1.429 . S
C5087 C5083 1.429 . S
C5087 C5088 1.523 . S
C5088 C5072 1.368 . S
C5088 C5084 1.368 . S
C5088 C5087 1.523 . S
H5089 C5064 0.950 . S
H5090 C5066 0.950 . S
H5091 C5067 0.949 . S
H5092 C5069 0.950 . S
H5093 C5071 0.950 . S
C5094 C5095 1.349 . S
C5094 C5096 1.327 . S
C5094 H5119 0.950 . S
C5095 C5094 1.349 . S
C5095 C5111 1.349 . S
C5096 C5094 1.327 . S
C5096 C5115 1.429 . S
C5096 H5120 0.950 . S
C5097 C5114 1.574 . S
C5097 C5116 1.368 . S
C5097 H5121 0.949 . S
H5098 C5102 0.949 . S
C5099 C5100 1.349 . S
C5099 C5101 1.327 . S
C5099 H5122 0.950 . S
C5100 C5099 1.349 . S
C5100 C5112 1.349 . S
C5101 C5099 1.327 . S
C5101 C5117 1.429 . S
C5101 H5123 0.950 . S
C5102 H5098 0.949 . S
C5102 C5110 1.574 . S
C5102 C5118 1.368 . S
H5103 C5111 0.950 . S
H5104 C5109 0.950 . S
H5105 C5110 0.949 . S
H5106 C5112 0.950 . S
H5107 C5113 0.950 . S
H5108 C5114 0.949 . S
C5109 H5104 0.950 . S
C5109 C5111 1.327 . S
C5109 C5115 1.429 . S
C5110 C5102 1.574 . S
C5110 H5105 0.949 . S
C5110 C5116 1.368 . S
C5111 C5095 1.349 . S
C5111 H5103 0.950 . S
C5111 C5109 1.327 . S
C5112 C5100 1.349 . S
C5112 H5106 0.950 . S
C5112 C5113 1.327 . S
C5113 H5107 0.950 . S
C5113 C5112 1.327 . S
C5113 C5117 1.429 . S
C5114 C5097 1.574 . S
C5114 H5108 0.949 . S
C5114 C5118 1.368 . S
C5115 C5096 1.429 . S
C5115 C5109 1.429 . S
C5115 C5116 1.523 . S
C5116 C5097 1.368 . S
C5116 C5110 1.368 . S
C5116 C5115 1.523 . S
C5117 C5101 1.429 . S
C5117 C5113 1.429 . S
C5117 C5118 1.523 . S
C5118 C5102 1.368 . S
C5118 C5114 1.368 . S
C5118 C5117 1.523 . S
H5119 C5094 0.950 . S
H5120 C5096 0.950 . S
H5121 C5097 0.949 . S
H5122 C5099 0.950 . S
H5123 C5101 0.950 . S
C5124 C5125 1.349 . S
C5124 C5126 1.327 . S
C5124 H5149 0.950 . S
C5125 C5124 1.349 . S
C5125 C5141 1.349 . S
C5126 C5124 1.327 . S
C5126 C5145 1.429 . S
C5126 H5150 0.950 . S
C5127 C5144 1.574 . S
C5127 C5146 1.368 . S
C5127 H5151 0.949 . S
H5128 C5132 0.949 . S
C5129 C5130 1.349 . S
C5129 C5131 1.327 . S
C5129 H5152 0.950 . S
C5130 C5129 1.349 . S
C5130 C5142 1.349 . S
C5131 C5129 1.327 . S
C5131 C5147 1.429 . S
C5131 H5153 0.950 . S
C5132 H5128 0.949 . S
C5132 C5140 1.574 . S
C5132 C5148 1.368 . S
H5133 C5141 0.950 . S
H5134 C5139 0.950 . S
H5135 C5140 0.949 . S
H5136 C5142 0.950 . S
H5137 C5143 0.950 . S
H5138 C5144 0.949 . S
C5139 H5134 0.950 . S
C5139 C5141 1.327 . S
C5139 C5145 1.429 . S
C5140 C5132 1.574 . S
C5140 H5135 0.949 . S
C5140 C5146 1.368 . S
C5141 C5125 1.349 . S
C5141 H5133 0.950 . S
C5141 C5139 1.327 . S
C5142 C5130 1.349 . S
C5142 H5136 0.950 . S
C5142 C5143 1.327 . S
C5143 H5137 0.950 . S
C5143 C5142 1.327 . S
C5143 C5147 1.429 . S
C5144 C5127 1.574 . S
C5144 H5138 0.949 . S
C5144 C5148 1.368 . S
C5145 C5126 1.429 . S
C5145 C5139 1.429 . S
C5145 C5146 1.523 . S
C5146 C5127 1.368 . S
C5146 C5140 1.368 . S
C5146 C5145 1.523 . S
C5147 C5131 1.429 . S
C5147 C5143 1.429 . S
C5147 C5148 1.523 . S
C5148 C5132 1.368 . S
C5148 C5144 1.368 . S
C5148 C5147 1.523 . S
H5149 C5124 0.950 . S
H5150 C5126 0.950 . S
H5151 C5127 0.949 . S
H5152 C5129 0.950 . S
H5153 C5131 0.950 . S
C5154 C5155 1.349 . S
C5154 C5156 1.327 . S
C5154 H5179 0.950 . S
C5155 C5154 1.349 . S
C5155 C5171 1.349 . S
C5156 C5154 1.327 . S
C5156 C5175 1.429 . S
C5156 H5180 0.950 . S
C5157 C5174 1.574 . S
C5157 C5176 1.368 . S
C5157 H5181 0.949 . S
H5158 C5162 0.949 . S
C5159 C5160 1.349 . S
C5159 C5161 1.327 . S
C5159 H5182 0.950 . S
C5160 C5159 1.349 . S
C5160 C5172 1.349 . S
C5161 C5159 1.327 . S
C5161 C5177 1.429 . S
C5161 H5183 0.950 . S
C5162 H5158 0.949 . S
C5162 C5170 1.574 . S
C5162 C5178 1.368 . S
H5163 C5171 0.950 . S
H5164 C5169 0.950 . S
H5165 C5170 0.949 . S
H5166 C5172 0.950 . S
H5167 C5173 0.950 . S
H5168 C5174 0.949 . S
C5169 H5164 0.950 . S
C5169 C5171 1.327 . S
C5169 C5175 1.429 . S
C5170 C5162 1.574 . S
C5170 H5165 0.949 . S
C5170 C5176 1.368 . S
C5171 C5155 1.349 . S
C5171 H5163 0.950 . S
C5171 C5169 1.327 . S
C5172 C5160 1.349 . S
C5172 H5166 0.950 . S
C5172 C5173 1.327 . S
C5173 H5167 0.950 . S
C5173 C5172 1.327 . S
C5173 C5177 1.429 . S
C5174 C5157 1.574 . S
C5174 H5168 0.949 . S
C5174 C5178 1.368 . S
C5175 C5156 1.429 . S
C5175 C5169 1.429 . S
C5175 C5176 1.523 . S
C5176 C5157 1.368 . S
C5176 C5170 1.368 . S
C5176 C5175 1.523 . S
C5177 C5161 1.429 . S
C5177 C5173 1.429 . S
C5177 C5178 1.523 . S
C5178 C5162 1.368 . S
C5178 C5174 1.368 . S
C5178 C5177 1.523 . S
H5179 C5154 0.950 . S
H5180 C5156 0.950 . S
H5181 C5157 0.949 . S
H5182 C5159 0.950 . S
H5183 C5161 0.950 . S
C5184 C5185 1.349 . S
C5184 C5186 1.327 . S
C5184 H5209 0.950 . S
C5185 C5184 1.349 . S
C5185 C5201 1.349 . S
C5186 C5184 1.327 . S
C5186 C5205 1.429 . S
C5186 H5210 0.950 . S
C5187 C5204 1.574 . S
C5187 C5206 1.368 . S
C5187 H5211 0.949 . S
H5188 C5192 0.949 . S
C5189 C5190 1.349 . S
C5189 C5191 1.327 . S
C5189 H5212 0.950 . S
C5190 C5189 1.349 . S
C5190 C5202 1.349 . S
C5191 C5189 1.327 . S
C5191 C5207 1.429 . S
C5191 H5213 0.950 . S
C5192 H5188 0.949 . S
C5192 C5200 1.574 . S
C5192 C5208 1.368 . S
H5193 C5201 0.950 . S
H5194 C5199 0.950 . S
H5195 C5200 0.949 . S
H5196 C5202 0.950 . S
H5197 C5203 0.950 . S
H5198 C5204 0.949 . S
C5199 H5194 0.950 . S
C5199 C5201 1.327 . S
C5199 C5205 1.429 . S
C5200 C5192 1.574 . S
C5200 H5195 0.949 . S
C5200 C5206 1.368 . S
C5201 C5185 1.349 . S
C5201 H5193 0.950 . S
C5201 C5199 1.327 . S
C5202 C5190 1.349 . S
C5202 H5196 0.950 . S
C5202 C5203 1.327 . S
C5203 H5197 0.950 . S
C5203 C5202 1.327 . S
C5203 C5207 1.429 . S
C5204 C5187 1.574 . S
C5204 H5198 0.949 . S
C5204 C5208 1.368 . S
C5205 C5186 1.429 . S
C5205 C5199 1.429 . S
C5205 C5206 1.523 . S
C5206 C5187 1.368 . S
C5206 C5200 1.368 . S
C5206 C5205 1.523 . S
C5207 C5191 1.429 . S
C5207 C5203 1.429 . S
C5207 C5208 1.523 . S
C5208 C5192 1.368 . S
C5208 C5204 1.368 . S
C5208 C5207 1.523 . S
H5209 C5184 0.950 . S
H5210 C5186 0.950 . S
H5211 C5187 0.949 . S
H5212 C5189 0.950 . S
H5213 C5191 0.950 . S
C5214 C5215 1.349 . S
C5214 C5216 1.327 . S
C5214 H5239 0.950 . S
C5215 C5214 1.349 . S
C5215 C5231 1.349 . S
C5216 C5214 1.327 . S
C5216 C5235 1.429 . S
C5216 H5240 0.950 . S
C5217 C5234 1.574 . S
C5217 C5236 1.368 . S
C5217 H5241 0.949 . S
H5218 C5222 0.949 . S
C5219 C5220 1.349 . S
C5219 C5221 1.327 . S
C5219 H5242 0.950 . S
C5220 C5219 1.349 . S
C5220 C5232 1.349 . S
C5221 C5219 1.327 . S
C5221 C5237 1.429 . S
C5221 H5243 0.950 . S
C5222 H5218 0.949 . S
C5222 C5230 1.574 . S
C5222 C5238 1.368 . S
H5223 C5231 0.950 . S
H5224 C5229 0.950 . S
H5225 C5230 0.949 . S
H5226 C5232 0.950 . S
H5227 C5233 0.950 . S
H5228 C5234 0.949 . S
C5229 H5224 0.950 . S
C5229 C5231 1.327 . S
C5229 C5235 1.429 . S
C5230 C5222 1.574 . S
C5230 H5225 0.949 . S
C5230 C5236 1.368 . S
C5231 C5215 1.349 . S
C5231 H5223 0.950 . S
C5231 C5229 1.327 . S
C5232 C5220 1.349 . S
C5232 H5226 0.950 . S
C5232 C5233 1.327 . S
C5233 H5227 0.950 . S
C5233 C5232 1.327 . S
C5233 C5237 1.429 . S
C5234 C5217 1.574 . S
C5234 H5228 0.949 . S
C5234 C5238 1.368 . S
C5235 C5216 1.429 . S
C5235 C5229 1.429 . S
C5235 C5236 1.523 . S
C5236 C5217 1.368 . S
C5236 C5230 1.368 . S
C5236 C5235 1.523 . S
C5237 C5221 1.429 . S
C5237 C5233 1.429 . S
C5237 C5238 1.523 . S
C5238 C5222 1.368 . S
C5238 C5234 1.368 . S
C5238 C5237 1.523 . S
H5239 C5214 0.950 . S
H5240 C5216 0.950 . S
H5241 C5217 0.949 . S
H5242 C5219 0.950 . S
H5243 C5221 0.950 . S
C5244 C5245 1.349 . S
C5244 C5246 1.327 . S
C5244 H5269 0.950 . S
C5245 C5244 1.349 . S
C5245 C5261 1.349 . S
C5246 C5244 1.327 . S
C5246 C5265 1.429 . S
C5246 H5270 0.950 . S
C5247 C5264 1.574 . S
C5247 C5266 1.368 . S
C5247 H5271 0.949 . S
H5248 C5252 0.949 . S
C5249 C5250 1.349 . S
C5249 C5251 1.327 . S
C5249 H5272 0.950 . S
C5250 C5249 1.349 . S
C5250 C5262 1.349 . S
C5251 C5249 1.327 . S
C5251 C5267 1.429 . S
C5251 H5273 0.950 . S
C5252 H5248 0.949 . S
C5252 C5260 1.574 . S
C5252 C5268 1.368 . S
H5253 C5261 0.950 . S
H5254 C5259 0.950 . S
H5255 C5260 0.949 . S
H5256 C5262 0.950 . S
H5257 C5263 0.950 . S
H5258 C5264 0.949 . S
C5259 H5254 0.950 . S
C5259 C5261 1.327 . S
C5259 C5265 1.429 . S
C5260 C5252 1.574 . S
C5260 H5255 0.949 . S
C5260 C5266 1.368 . S
C5261 C5245 1.349 . S
C5261 H5253 0.950 . S
C5261 C5259 1.327 . S
C5262 C5250 1.349 . S
C5262 H5256 0.950 . S
C5262 C5263 1.327 . S
C5263 H5257 0.950 . S
C5263 C5262 1.327 . S
C5263 C5267 1.429 . S
C5264 C5247 1.574 . S
C5264 H5258 0.949 . S
C5264 C5268 1.368 . S
C5265 C5246 1.429 . S
C5265 C5259 1.429 . S
C5265 C5266 1.523 . S
C5266 C5247 1.368 . S
C5266 C5260 1.368 . S
C5266 C5265 1.523 . S
C5267 C5251 1.429 . S
C5267 C5263 1.429 . S
C5267 C5268 1.523 . S
C5268 C5252 1.368 . S
C5268 C5264 1.368 . S
C5268 C5267 1.523 . S
H5269 C5244 0.950 . S
H5270 C5246 0.950 . S
H5271 C5247 0.949 . S
H5272 C5249 0.950 . S
H5273 C5251 0.950 . S
C5274 C5275 1.349 . S
C5274 C5276 1.327 . S
C5274 H5299 0.950 . S
C5275 C5274 1.349 . S
C5275 C5291 1.349 . S
C5276 C5274 1.327 . S
C5276 C5295 1.429 . S
C5276 H5300 0.950 . S
C5277 C5294 1.574 . S
C5277 C5296 1.368 . S
C5277 H5301 0.949 . S
H5278 C5282 0.949 . S
C5279 C5280 1.349 . S
C5279 C5281 1.327 . S
C5279 H5302 0.950 . S
C5280 C5279 1.349 . S
C5280 C5292 1.349 . S
C5281 C5279 1.327 . S
C5281 C5297 1.429 . S
C5281 H5303 0.950 . S
C5282 H5278 0.949 . S
C5282 C5290 1.574 . S
C5282 C5298 1.368 . S
H5283 C5291 0.950 . S
H5284 C5289 0.950 . S
H5285 C5290 0.949 . S
H5286 C5292 0.950 . S
H5287 C5293 0.950 . S
H5288 C5294 0.949 . S
C5289 H5284 0.950 . S
C5289 C5291 1.327 . S
C5289 C5295 1.429 . S
C5290 C5282 1.574 . S
C5290 H5285 0.949 . S
C5290 C5296 1.368 . S
C5291 C5275 1.349 . S
C5291 H5283 0.950 . S
C5291 C5289 1.327 . S
C5292 C5280 1.349 . S
C5292 H5286 0.950 . S
C5292 C5293 1.327 . S
C5293 H5287 0.950 . S
C5293 C5292 1.327 . S
C5293 C5297 1.429 . S
C5294 C5277 1.574 . S
C5294 H5288 0.949 . S
C5294 C5298 1.368 . S
C5295 C5276 1.429 . S
C5295 C5289 1.429 . S
C5295 C5296 1.523 . S
C5296 C5277 1.368 . S
C5296 C5290 1.368 . S
C5296 C5295 1.523 . S
C5297 C5281 1.429 . S
C5297 C5293 1.429 . S
C5297 C5298 1.523 . S
C5298 C5282 1.368 . S
C5298 C5294 1.368 . S
C5298 C5297 1.523 . S
H5299 C5274 0.950 . S
H5300 C5276 0.950 . S
H5301 C5277 0.949 . S
H5302 C5279 0.950 . S
H5303 C5281 0.950 . S
C5304 C5305 1.349 . S
C5304 C5306 1.327 . S
C5304 H5329 0.950 . S
C5305 C5304 1.349 . S
C5305 C5321 1.349 . S
C5306 C5304 1.327 . S
C5306 C5325 1.429 . S
C5306 H5330 0.950 . S
C5307 C5324 1.574 . S
C5307 C5326 1.368 . S
C5307 H5331 0.949 . S
H5308 C5312 0.949 . S
C5309 C5310 1.349 . S
C5309 C5311 1.327 . S
C5309 H5332 0.950 . S
C5310 C5309 1.349 . S
C5310 C5322 1.349 . S
C5311 C5309 1.327 . S
C5311 C5327 1.429 . S
C5311 H5333 0.950 . S
C5312 H5308 0.949 . S
C5312 C5320 1.574 . S
C5312 C5328 1.368 . S
H5313 C5321 0.950 . S
H5314 C5319 0.950 . S
H5315 C5320 0.949 . S
H5316 C5322 0.950 . S
H5317 C5323 0.950 . S
H5318 C5324 0.949 . S
C5319 H5314 0.950 . S
C5319 C5321 1.327 . S
C5319 C5325 1.429 . S
C5320 C5312 1.574 . S
C5320 H5315 0.949 . S
C5320 C5326 1.368 . S
C5321 C5305 1.349 . S
C5321 H5313 0.950 . S
C5321 C5319 1.327 . S
C5322 C5310 1.349 . S
C5322 H5316 0.950 . S
C5322 C5323 1.327 . S
C5323 H5317 0.950 . S
C5323 C5322 1.327 . S
C5323 C5327 1.429 . S
C5324 C5307 1.574 . S
C5324 H5318 0.949 . S
C5324 C5328 1.368 . S
C5325 C5306 1.429 . S
C5325 C5319 1.429 . S
C5325 C5326 1.523 . S
C5326 C5307 1.368 . S
C5326 C5320 1.368 . S
C5326 C5325 1.523 . S
C5327 C5311 1.429 . S
C5327 C5323 1.429 . S
C5327 C5328 1.523 . S
C5328 C5312 1.368 . S
C5328 C5324 1.368 . S
C5328 C5327 1.523 . S
H5329 C5304 0.950 . S
H5330 C5306 0.950 . S
H5331 C5307 0.949 . S
H5332 C5309 0.950 . S
H5333 C5311 0.950 . S
C5334 C5335 1.349 . S
C5334 C5336 1.327 . S
C5334 H5359 0.950 . S
C5335 C5334 1.349 . S
C5335 C5351 1.349 . S
C5336 C5334 1.327 . S
C5336 C5355 1.429 . S
C5336 H5360 0.950 . S
C5337 C5354 1.574 . S
C5337 C5356 1.368 . S
C5337 H5361 0.949 . S
H5338 C5342 0.949 . S
C5339 C5340 1.349 . S
C5339 C5341 1.327 . S
C5339 H5362 0.950 . S
C5340 C5339 1.349 . S
C5340 C5352 1.349 . S
C5341 C5339 1.327 . S
C5341 C5357 1.429 . S
C5341 H5363 0.950 . S
C5342 H5338 0.949 . S
C5342 C5350 1.574 . S
C5342 C5358 1.368 . S
H5343 C5351 0.950 . S
H5344 C5349 0.950 . S
H5345 C5350 0.949 . S
H5346 C5352 0.950 . S
H5347 C5353 0.950 . S
H5348 C5354 0.949 . S
C5349 H5344 0.950 . S
C5349 C5351 1.327 . S
C5349 C5355 1.429 . S
C5350 C5342 1.574 . S
C5350 H5345 0.949 . S
C5350 C5356 1.368 . S
C5351 C5335 1.349 . S
C5351 H5343 0.950 . S
C5351 C5349 1.327 . S
C5352 C5340 1.349 . S
C5352 H5346 0.950 . S
C5352 C5353 1.327 . S
C5353 H5347 0.950 . S
C5353 C5352 1.327 . S
C5353 C5357 1.429 . S
C5354 C5337 1.574 . S
C5354 H5348 0.949 . S
C5354 C5358 1.368 . S
C5355 C5336 1.429 . S
C5355 C5349 1.429 . S
C5355 C5356 1.523 . S
C5356 C5337 1.368 . S
C5356 C5350 1.368 . S
C5356 C5355 1.523 . S
C5357 C5341 1.429 . S
C5357 C5353 1.429 . S
C5357 C5358 1.523 . S
C5358 C5342 1.368 . S
C5358 C5354 1.368 . S
C5358 C5357 1.523 . S
H5359 C5334 0.950 . S
H5360 C5336 0.950 . S
H5361 C5337 0.949 . S
H5362 C5339 0.950 . S
H5363 C5341 0.950 . S
C5364 C5365 1.349 . S
C5364 C5366 1.327 . S
C5364 H5389 0.950 . S
C5365 C5364 1.349 . S
C5365 C5381 1.349 . S
C5366 C5364 1.327 . S
C5366 C5385 1.429 . S
C5366 H5390 0.950 . S
C5367 C5384 1.574 . S
C5367 C5386 1.368 . S
C5367 H5391 0.949 . S
H5368 C5372 0.949 . S
C5369 C5370 1.349 . S
C5369 C5371 1.327 . S
C5369 H5392 0.950 . S
C5370 C5369 1.349 . S
C5370 C5382 1.349 . S
C5371 C5369 1.327 . S
C5371 C5387 1.429 . S
C5371 H5393 0.950 . S
C5372 H5368 0.949 . S
C5372 C5380 1.574 . S
C5372 C5388 1.368 . S
H5373 C5381 0.950 . S
H5374 C5379 0.950 . S
H5375 C5380 0.949 . S
H5376 C5382 0.950 . S
H5377 C5383 0.950 . S
H5378 C5384 0.949 . S
C5379 H5374 0.950 . S
C5379 C5381 1.327 . S
C5379 C5385 1.429 . S
C5380 C5372 1.574 . S
C5380 H5375 0.949 . S
C5380 C5386 1.368 . S
C5381 C5365 1.349 . S
C5381 H5373 0.950 . S
C5381 C5379 1.327 . S
C5382 C5370 1.349 . S
C5382 H5376 0.950 . S
C5382 C5383 1.327 . S
C5383 H5377 0.950 . S
C5383 C5382 1.327 . S
C5383 C5387 1.429 . S
C5384 C5367 1.574 . S
C5384 H5378 0.949 . S
C5384 C5388 1.368 . S
C5385 C5366 1.429 . S
C5385 C5379 1.429 . S
C5385 C5386 1.523 . S
C5386 C5367 1.368 . S
C5386 C5380 1.368 . S
C5386 C5385 1.523 . S
C5387 C5371 1.429 . S
C5387 C5383 1.429 . S
C5387 C5388 1.523 . S
C5388 C5372 1.368 . S
C5388 C5384 1.368 . S
C5388 C5387 1.523 . S
H5389 C5364 0.950 . S
H5390 C5366 0.950 . S
H5391 C5367 0.949 . S
H5392 C5369 0.950 . S
H5393 C5371 0.950 . S
C5394 C5395 1.349 . S
C5394 C5396 1.327 . S
C5394 H5419 0.950 . S
C5395 C5394 1.349 . S
C5395 C5411 1.349 . S
C5396 C5394 1.327 . S
C5396 C5415 1.429 . S
C5396 H5420 0.950 . S
C5397 C5414 1.574 . S
C5397 C5416 1.368 . S
C5397 H5421 0.949 . S
H5398 C5402 0.949 . S
C5399 C5400 1.349 . S
C5399 C5401 1.327 . S
C5399 H5422 0.950 . S
C5400 C5399 1.349 . S
C5400 C5412 1.349 . S
C5401 C5399 1.327 . S
C5401 C5417 1.429 . S
C5401 H5423 0.950 . S
C5402 H5398 0.949 . S
C5402 C5410 1.574 . S
C5402 C5418 1.368 . S
H5403 C5411 0.950 . S
H5404 C5409 0.950 . S
H5405 C5410 0.949 . S
H5406 C5412 0.950 . S
H5407 C5413 0.950 . S
H5408 C5414 0.949 . S
C5409 H5404 0.950 . S
C5409 C5411 1.327 . S
C5409 C5415 1.429 . S
C5410 C5402 1.574 . S
C5410 H5405 0.949 . S
C5410 C5416 1.368 . S
C5411 C5395 1.349 . S
C5411 H5403 0.950 . S
C5411 C5409 1.327 . S
C5412 C5400 1.349 . S
C5412 H5406 0.950 . S
C5412 C5413 1.327 . S
C5413 H5407 0.950 . S
C5413 C5412 1.327 . S
C5413 C5417 1.429 . S
C5414 C5397 1.574 . S
C5414 H5408 0.949 . S
C5414 C5418 1.368 . S
C5415 C5396 1.429 . S
C5415 C5409 1.429 . S
C5415 C5416 1.523 . S
C5416 C5397 1.368 . S
C5416 C5410 1.368 . S
C5416 C5415 1.523 . S
C5417 C5401 1.429 . S
C5417 C5413 1.429 . S
C5417 C5418 1.523 . S
C5418 C5402 1.368 . S
C5418 C5414 1.368 . S
C5418 C5417 1.523 . S
H5419 C5394 0.950 . S
H5420 C5396 0.950 . S
H5421 C5397 0.949 . S
H5422 C5399 0.950 . S
H5423 C5401 0.950 . S
C5424 C5425 1.349 . S
C5424 C5426 1.327 . S
C5424 H5449 0.950 . S
C5425 C5424 1.349 . S
C5425 C5441 1.349 . S
C5426 C5424 1.327 . S
C5426 C5445 1.429 . S
C5426 H5450 0.950 . S
C5427 C5444 1.574 . S
C5427 C5446 1.368 . S
C5427 H5451 0.949 . S
H5428 C5432 0.949 . S
C5429 C5430 1.349 . S
C5429 C5431 1.327 . S
C5429 H5452 0.950 . S
C5430 C5429 1.349 . S
C5430 C5442 1.349 . S
C5431 C5429 1.327 . S
C5431 C5447 1.429 . S
C5431 H5453 0.950 . S
C5432 H5428 0.949 . S
C5432 C5440 1.574 . S
C5432 C5448 1.368 . S
H5433 C5441 0.950 . S
H5434 C5439 0.950 . S
H5435 C5440 0.949 . S
H5436 C5442 0.950 . S
H5437 C5443 0.950 . S
H5438 C5444 0.949 . S
C5439 H5434 0.950 . S
C5439 C5441 1.327 . S
C5439 C5445 1.429 . S
C5440 C5432 1.574 . S
C5440 H5435 0.949 . S
C5440 C5446 1.368 . S
C5441 C5425 1.349 . S
C5441 H5433 0.950 . S
C5441 C5439 1.327 . S
C5442 C5430 1.349 . S
C5442 H5436 0.950 . S
C5442 C5443 1.327 . S
C5443 H5437 0.950 . S
C5443 C5442 1.327 . S
C5443 C5447 1.429 . S
C5444 C5427 1.574 . S
C5444 H5438 0.949 . S
C5444 C5448 1.368 . S
C5445 C5426 1.429 . S
C5445 C5439 1.429 . S
C5445 C5446 1.523 . S
C5446 C5427 1.368 . S
C5446 C5440 1.368 . S
C5446 C5445 1.523 . S
C5447 C5431 1.429 . S
C5447 C5443 1.429 . S
C5447 C5448 1.523 . S
C5448 C5432 1.368 . S
C5448 C5444 1.368 . S
C5448 C5447 1.523 . S
H5449 C5424 0.950 . S
H5450 C5426 0.950 . S
H5451 C5427 0.949 . S
H5452 C5429 0.950 . S
H5453 C5431 0.950 . S
C5454 C5455 1.349 . S
C5454 C5456 1.327 . S
C5454 H5479 0.950 . S
C5455 C5454 1.349 . S
C5455 C5471 1.349 . S
C5456 C5454 1.327 . S
C5456 C5475 1.429 . S
C5456 H5480 0.950 . S
C5457 C5474 1.574 . S
C5457 C5476 1.368 . S
C5457 H5481 0.949 . S
H5458 C5462 0.949 . S
C5459 C5460 1.349 . S
C5459 C5461 1.327 . S
C5459 H5482 0.950 . S
C5460 C5459 1.349 . S
C5460 C5472 1.349 . S
C5461 C5459 1.327 . S
C5461 C5477 1.429 . S
C5461 H5483 0.950 . S
C5462 H5458 0.949 . S
C5462 C5470 1.574 . S
C5462 C5478 1.368 . S
H5463 C5471 0.950 . S
H5464 C5469 0.950 . S
H5465 C5470 0.949 . S
H5466 C5472 0.950 . S
H5467 C5473 0.950 . S
H5468 C5474 0.949 . S
C5469 H5464 0.950 . S
C5469 C5471 1.327 . S
C5469 C5475 1.429 . S
C5470 C5462 1.574 . S
C5470 H5465 0.949 . S
C5470 C5476 1.368 . S
C5471 C5455 1.349 . S
C5471 H5463 0.950 . S
C5471 C5469 1.327 . S
C5472 C5460 1.349 . S
C5472 H5466 0.950 . S
C5472 C5473 1.327 . S
C5473 H5467 0.950 . S
C5473 C5472 1.327 . S
C5473 C5477 1.429 . S
C5474 C5457 1.574 . S
C5474 H5468 0.949 . S
C5474 C5478 1.368 . S
C5475 C5456 1.429 . S
C5475 C5469 1.429 . S
C5475 C5476 1.523 . S
C5476 C5457 1.368 . S
C5476 C5470 1.368 . S
C5476 C5475 1.523 . S
C5477 C5461 1.429 . S
C5477 C5473 1.429 . S
C5477 C5478 1.523 . S
C5478 C5462 1.368 . S
C5478 C5474 1.368 . S
C5478 C5477 1.523 . S
H5479 C5454 0.950 . S
H5480 C5456 0.950 . S
H5481 C5457 0.949 . S
H5482 C5459 0.950 . S
H5483 C5461 0.950 . S
C5484 C5485 1.349 . S
C5484 C5486 1.327 . S
C5484 H5509 0.950 . S
C5485 C5484 1.349 . S
C5485 C5501 1.349 . S
C5486 C5484 1.327 . S
C5486 C5505 1.429 . S
C5486 H5510 0.950 . S
C5487 C5504 1.574 . S
C5487 C5506 1.368 . S
C5487 H5511 0.949 . S
H5488 C5492 0.949 . S
C5489 C5490 1.349 . S
C5489 C5491 1.327 . S
C5489 H5512 0.950 . S
C5490 C5489 1.349 . S
C5490 C5502 1.349 . S
C5491 C5489 1.327 . S
C5491 C5507 1.429 . S
C5491 H5513 0.950 . S
C5492 H5488 0.949 . S
C5492 C5500 1.574 . S
C5492 C5508 1.368 . S
H5493 C5501 0.950 . S
H5494 C5499 0.950 . S
H5495 C5500 0.949 . S
H5496 C5502 0.950 . S
H5497 C5503 0.950 . S
H5498 C5504 0.949 . S
C5499 H5494 0.950 . S
C5499 C5501 1.327 . S
C5499 C5505 1.429 . S
C5500 C5492 1.574 . S
C5500 H5495 0.949 . S
C5500 C5506 1.368 . S
C5501 C5485 1.349 . S
C5501 H5493 0.950 . S
C5501 C5499 1.327 . S
C5502 C5490 1.349 . S
C5502 H5496 0.950 . S
C5502 C5503 1.327 . S
C5503 H5497 0.950 . S
C5503 C5502 1.327 . S
C5503 C5507 1.429 . S
C5504 C5487 1.574 . S
C5504 H5498 0.949 . S
C5504 C5508 1.368 . S
C5505 C5486 1.429 . S
C5505 C5499 1.429 . S
C5505 C5506 1.523 . S
C5506 C5487 1.368 . S
C5506 C5500 1.368 . S
C5506 C5505 1.523 . S
C5507 C5491 1.429 . S
C5507 C5503 1.429 . S
C5507 C5508 1.523 . S
C5508 C5492 1.368 . S
C5508 C5504 1.368 . S
C5508 C5507 1.523 . S
H5509 C5484 0.950 . S
H5510 C5486 0.950 . S
H5511 C5487 0.949 . S
H5512 C5489 0.950 . S
H5513 C5491 0.950 . S
C5514 C5515 1.349 . S
C5514 C5516 1.327 . S
C5514 H5539 0.950 . S
C5515 C5514 1.349 . S
C5515 C5531 1.349 . S
C5516 C5514 1.327 . S
C5516 C5535 1.429 . S
C5516 H5540 0.950 . S
C5517 C5534 1.574 . S
C5517 C5536 1.368 . S
C5517 H5541 0.949 . S
H5518 C5522 0.949 . S
C5519 C5520 1.349 . S
C5519 C5521 1.327 . S
C5519 H5542 0.950 . S
C5520 C5519 1.349 . S
C5520 C5532 1.349 . S
C5521 C5519 1.327 . S
C5521 C5537 1.429 . S
C5521 H5543 0.950 . S
C5522 H5518 0.949 . S
C5522 C5530 1.574 . S
C5522 C5538 1.368 . S
H5523 C5531 0.950 . S
H5524 C5529 0.950 . S
H5525 C5530 0.949 . S
H5526 C5532 0.950 . S
H5527 C5533 0.950 . S
H5528 C5534 0.949 . S
C5529 H5524 0.950 . S
C5529 C5531 1.327 . S
C5529 C5535 1.429 . S
C5530 C5522 1.574 . S
C5530 H5525 0.949 . S
C5530 C5536 1.368 . S
C5531 C5515 1.349 . S
C5531 H5523 0.950 . S
C5531 C5529 1.327 . S
C5532 C5520 1.349 . S
C5532 H5526 0.950 . S
C5532 C5533 1.327 . S
C5533 H5527 0.950 . S
C5533 C5532 1.327 . S
C5533 C5537 1.429 . S
C5534 C5517 1.574 . S
C5534 H5528 0.949 . S
C5534 C5538 1.368 . S
C5535 C5516 1.429 . S
C5535 C5529 1.429 . S
C5535 C5536 1.523 . S
C5536 C5517 1.368 . S
C5536 C5530 1.368 . S
C5536 C5535 1.523 . S
C5537 C5521 1.429 . S
C5537 C5533 1.429 . S
C5537 C5538 1.523 . S
C5538 C5522 1.368 . S
C5538 C5534 1.368 . S
C5538 C5537 1.523 . S
H5539 C5514 0.950 . S
H5540 C5516 0.950 . S
H5541 C5517 0.949 . S
H5542 C5519 0.950 . S
H5543 C5521 0.950 . S
C5544 C5545 1.349 . S
C5544 C5546 1.327 . S
C5544 H5569 0.950 . S
C5545 C5544 1.349 . S
C5545 C5561 1.349 . S
C5546 C5544 1.327 . S
C5546 C5565 1.429 . S
C5546 H5570 0.950 . S
C5547 C5564 1.574 . S
C5547 C5566 1.368 . S
C5547 H5571 0.949 . S
H5548 C5552 0.949 . S
C5549 C5550 1.349 . S
C5549 C5551 1.327 . S
C5549 H5572 0.950 . S
C5550 C5549 1.349 . S
C5550 C5562 1.349 . S
C5551 C5549 1.327 . S
C5551 C5567 1.429 . S
C5551 H5573 0.950 . S
C5552 H5548 0.949 . S
C5552 C5560 1.574 . S
C5552 C5568 1.368 . S
H5553 C5561 0.950 . S
H5554 C5559 0.950 . S
H5555 C5560 0.949 . S
H5556 C5562 0.950 . S
H5557 C5563 0.950 . S
H5558 C5564 0.949 . S
C5559 H5554 0.950 . S
C5559 C5561 1.327 . S
C5559 C5565 1.429 . S
C5560 C5552 1.574 . S
C5560 H5555 0.949 . S
C5560 C5566 1.368 . S
C5561 C5545 1.349 . S
C5561 H5553 0.950 . S
C5561 C5559 1.327 . S
C5562 C5550 1.349 . S
C5562 H5556 0.950 . S
C5562 C5563 1.327 . S
C5563 H5557 0.950 . S
C5563 C5562 1.327 . S
C5563 C5567 1.429 . S
C5564 C5547 1.574 . S
C5564 H5558 0.949 . S
C5564 C5568 1.368 . S
C5565 C5546 1.429 . S
C5565 C5559 1.429 . S
C5565 C5566 1.523 . S
C5566 C5547 1.368 . S
C5566 C5560 1.368 . S
C5566 C5565 1.523 . S
C5567 C5551 1.429 . S
C5567 C5563 1.429 . S
C5567 C5568 1.523 . S
C5568 C5552 1.368 . S
C5568 C5564 1.368 . S
C5568 C5567 1.523 . S
H5569 C5544 0.950 . S
H5570 C5546 0.950 . S
H5571 C5547 0.949 . S
H5572 C5549 0.950 . S
H5573 C5551 0.950 . S
C5574 C5575 1.349 . S
C5574 C5576 1.327 . S
C5574 H5599 0.950 . S
C5575 C5574 1.349 . S
C5575 C5591 1.349 . S
C5576 C5574 1.327 . S
C5576 C5595 1.429 . S
C5576 H5600 0.950 . S
C5577 C5594 1.574 . S
C5577 C5596 1.368 . S
C5577 H5601 0.949 . S
H5578 C5582 0.949 . S
C5579 C5580 1.349 . S
C5579 C5581 1.327 . S
C5579 H5602 0.950 . S
C5580 C5579 1.349 . S
C5580 C5592 1.349 . S
C5581 C5579 1.327 . S
C5581 C5597 1.429 . S
C5581 H5603 0.950 . S
C5582 H5578 0.949 . S
C5582 C5590 1.574 . S
C5582 C5598 1.368 . S
H5583 C5591 0.950 . S
H5584 C5589 0.950 . S
H5585 C5590 0.949 . S
H5586 C5592 0.950 . S
H5587 C5593 0.950 . S
H5588 C5594 0.949 . S
C5589 H5584 0.950 . S
C5589 C5591 1.327 . S
C5589 C5595 1.429 . S
C5590 C5582 1.574 . S
C5590 H5585 0.949 . S
C5590 C5596 1.368 . S
C5591 C5575 1.349 . S
C5591 H5583 0.950 . S
C5591 C5589 1.327 . S
C5592 C5580 1.349 . S
C5592 H5586 0.950 . S
C5592 C5593 1.327 . S
C5593 H5587 0.950 . S
C5593 C5592 1.327 . S
C5593 C5597 1.429 . S
C5594 C5577 1.574 . S
C5594 H5588 0.949 . S
C5594 C5598 1.368 . S
C5595 C5576 1.429 . S
C5595 C5589 1.429 . S
C5595 C5596 1.523 . S
C5596 C5577 1.368 . S
C5596 C5590 1.368 . S
C5596 C5595 1.523 . S
C5597 C5581 1.429 . S
C5597 C5593 1.429 . S
C5597 C5598 1.523 . S
C5598 C5582 1.368 . S
C5598 C5594 1.368 . S
C5598 C5597 1.523 . S
H5599 C5574 0.950 . S
H5600 C5576 0.950 . S
H5601 C5577 0.949 . S
H5602 C5579 0.950 . S
H5603 C5581 0.950 . S
C5604 C5605 1.349 . S
C5604 C5606 1.327 . S
C5604 H5629 0.950 . S
C5605 C5604 1.349 . S
C5605 C5621 1.349 . S
C5606 C5604 1.327 . S
C5606 C5625 1.429 . S
C5606 H5630 0.950 . S
C5607 C5624 1.574 . S
C5607 C5626 1.368 . S
C5607 H5631 0.949 . S
H5608 C5612 0.949 . S
C5609 C5610 1.349 . S
C5609 C5611 1.327 . S
C5609 H5632 0.950 . S
C5610 C5609 1.349 . S
C5610 C5622 1.349 . S
C5611 C5609 1.327 . S
C5611 C5627 1.429 . S
C5611 H5633 0.950 . S
C5612 H5608 0.949 . S
C5612 C5620 1.574 . S
C5612 C5628 1.368 . S
H5613 C5621 0.950 . S
H5614 C5619 0.950 . S
H5615 C5620 0.949 . S
H5616 C5622 0.950 . S
H5617 C5623 0.950 . S
H5618 C5624 0.949 . S
C5619 H5614 0.950 . S
C5619 C5621 1.327 . S
C5619 C5625 1.429 . S
C5620 C5612 1.574 . S
C5620 H5615 0.949 . S
C5620 C5626 1.368 . S
C5621 C5605 1.349 . S
C5621 H5613 0.950 . S
C5621 C5619 1.327 . S
C5622 C5610 1.349 . S
C5622 H5616 0.950 . S
C5622 C5623 1.327 . S
C5623 H5617 0.950 . S
C5623 C5622 1.327 . S
C5623 C5627 1.429 . S
C5624 C5607 1.574 . S
C5624 H5618 0.949 . S
C5624 C5628 1.368 . S
C5625 C5606 1.429 . S
C5625 C5619 1.429 . S
C5625 C5626 1.523 . S
C5626 C5607 1.368 . S
C5626 C5620 1.368 . S
C5626 C5625 1.523 . S
C5627 C5611 1.429 . S
C5627 C5623 1.429 . S
C5627 C5628 1.523 . S
C5628 C5612 1.368 . S
C5628 C5624 1.368 . S
C5628 C5627 1.523 . S
H5629 C5604 0.950 . S
H5630 C5606 0.950 . S
H5631 C5607 0.949 . S
H5632 C5609 0.950 . S
H5633 C5611 0.950 . S
C5634 C5635 1.349 . S
C5634 C5636 1.327 . S
C5634 H5659 0.950 . S
C5635 C5634 1.349 . S
C5635 C5651 1.349 . S
C5636 C5634 1.327 . S
C5636 C5655 1.429 . S
C5636 H5660 0.950 . S
C5637 C5654 1.574 . S
C5637 C5656 1.368 . S
C5637 H5661 0.949 . S
H5638 C5642 0.949 . S
C5639 C5640 1.349 . S
C5639 C5641 1.327 . S
C5639 H5662 0.950 . S
C5640 C5639 1.349 . S
C5640 C5652 1.349 . S
C5641 C5639 1.327 . S
C5641 C5657 1.429 . S
C5641 H5663 0.950 . S
C5642 H5638 0.949 . S
C5642 C5650 1.574 . S
C5642 C5658 1.368 . S
H5643 C5651 0.950 . S
H5644 C5649 0.950 . S
H5645 C5650 0.949 . S
H5646 C5652 0.950 . S
H5647 C5653 0.950 . S
H5648 C5654 0.949 . S
C5649 H5644 0.950 . S
C5649 C5651 1.327 . S
C5649 C5655 1.429 . S
C5650 C5642 1.574 . S
C5650 H5645 0.949 . S
C5650 C5656 1.368 . S
C5651 C5635 1.349 . S
C5651 H5643 0.950 . S
C5651 C5649 1.327 . S
C5652 C5640 1.349 . S
C5652 H5646 0.950 . S
C5652 C5653 1.327 . S
C5653 H5647 0.950 . S
C5653 C5652 1.327 . S
C5653 C5657 1.429 . S
C5654 C5637 1.574 . S
C5654 H5648 0.949 . S
C5654 C5658 1.368 . S
C5655 C5636 1.429 . S
C5655 C5649 1.429 . S
C5655 C5656 1.523 . S
C5656 C5637 1.368 . S
C5656 C5650 1.368 . S
C5656 C5655 1.523 . S
C5657 C5641 1.429 . S
C5657 C5653 1.429 . S
C5657 C5658 1.523 . S
C5658 C5642 1.368 . S
C5658 C5654 1.368 . S
C5658 C5657 1.523 . S
H5659 C5634 0.950 . S
H5660 C5636 0.950 . S
H5661 C5637 0.949 . S
H5662 C5639 0.950 . S
H5663 C5641 0.950 . S
C5664 C5665 1.349 . S
C5664 C5666 1.327 . S
C5664 H5689 0.950 . S
C5665 C5664 1.349 . S
C5665 C5681 1.349 . S
C5666 C5664 1.327 . S
C5666 C5685 1.429 . S
C5666 H5690 0.950 . S
C5667 C5684 1.574 . S
C5667 C5686 1.368 . S
C5667 H5691 0.949 . S
H5668 C5672 0.949 . S
C5669 C5670 1.349 . S
C5669 C5671 1.327 . S
C5669 H5692 0.950 . S
C5670 C5669 1.349 . S
C5670 C5682 1.349 . S
C5671 C5669 1.327 . S
C5671 C5687 1.429 . S
C5671 H5693 0.950 . S
C5672 H5668 0.949 . S
C5672 C5680 1.574 . S
C5672 C5688 1.368 . S
H5673 C5681 0.950 . S
H5674 C5679 0.950 . S
H5675 C5680 0.949 . S
H5676 C5682 0.950 . S
H5677 C5683 0.950 . S
H5678 C5684 0.949 . S
C5679 H5674 0.950 . S
C5679 C5681 1.327 . S
C5679 C5685 1.429 . S
C5680 C5672 1.574 . S
C5680 H5675 0.949 . S
C5680 C5686 1.368 . S
C5681 C5665 1.349 . S
C5681 H5673 0.950 . S
C5681 C5679 1.327 . S
C5682 C5670 1.349 . S
C5682 H5676 0.950 . S
C5682 C5683 1.327 . S
C5683 H5677 0.950 . S
C5683 C5682 1.327 . S
C5683 C5687 1.429 . S
C5684 C5667 1.574 . S
C5684 H5678 0.949 . S
C5684 C5688 1.368 . S
C5685 C5666 1.429 . S
C5685 C5679 1.429 . S
C5685 C5686 1.523 . S
C5686 C5667 1.368 . S
C5686 C5680 1.368 . S
C5686 C5685 1.523 . S
C5687 C5671 1.429 . S
C5687 C5683 1.429 . S
C5687 C5688 1.523 . S
C5688 C5672 1.368 . S
C5688 C5684 1.368 . S
C5688 C5687 1.523 . S
H5689 C5664 0.950 . S
H5690 C5666 0.950 . S
H5691 C5667 0.949 . S
H5692 C5669 0.950 . S
H5693 C5671 0.950 . S
C5694 C5695 1.349 . S
C5694 C5696 1.327 . S
C5694 H5719 0.950 . S
C5695 C5694 1.349 . S
C5695 C5711 1.349 . S
C5696 C5694 1.327 . S
C5696 C5715 1.429 . S
C5696 H5720 0.950 . S
C5697 C5714 1.574 . S
C5697 C5716 1.368 . S
C5697 H5721 0.949 . S
H5698 C5702 0.949 . S
C5699 C5700 1.349 . S
C5699 C5701 1.327 . S
C5699 H5722 0.950 . S
C5700 C5699 1.349 . S
C5700 C5712 1.349 . S
C5701 C5699 1.327 . S
C5701 C5717 1.429 . S
C5701 H5723 0.950 . S
C5702 H5698 0.949 . S
C5702 C5710 1.574 . S
C5702 C5718 1.368 . S
H5703 C5711 0.950 . S
H5704 C5709 0.950 . S
H5705 C5710 0.949 . S
H5706 C5712 0.950 . S
H5707 C5713 0.950 . S
H5708 C5714 0.949 . S
C5709 H5704 0.950 . S
C5709 C5711 1.327 . S
C5709 C5715 1.429 . S
C5710 C5702 1.574 . S
C5710 H5705 0.949 . S
C5710 C5716 1.368 . S
C5711 C5695 1.349 . S
C5711 H5703 0.950 . S
C5711 C5709 1.327 . S
C5712 C5700 1.349 . S
C5712 H5706 0.950 . S
C5712 C5713 1.327 . S
C5713 H5707 0.950 . S
C5713 C5712 1.327 . S
C5713 C5717 1.429 . S
C5714 C5697 1.574 . S
C5714 H5708 0.949 . S
C5714 C5718 1.368 . S
C5715 C5696 1.429 . S
C5715 C5709 1.429 . S
C5715 C5716 1.523 . S
C5716 C5697 1.368 . S
C5716 C5710 1.368 . S
C5716 C5715 1.523 . S
C5717 C5701 1.429 . S
C5717 C5713 1.429 . S
C5717 C5718 1.523 . S
C5718 C5702 1.368 . S
C5718 C5714 1.368 . S
C5718 C5717 1.523 . S
H5719 C5694 0.950 . S
H5720 C5696 0.950 . S
H5721 C5697 0.949 . S
H5722 C5699 0.950 . S
H5723 C5701 0.950 . S
C5724 C5725 1.349 . S
C5724 C5726 1.327 . S
C5724 H5749 0.950 . S
C5725 C5724 1.349 . S
C5725 C5741 1.349 . S
C5726 C5724 1.327 . S
C5726 C5745 1.429 . S
C5726 H5750 0.950 . S
C5727 C5744 1.574 . S
C5727 C5746 1.368 . S
C5727 H5751 0.949 . S
H5728 C5732 0.949 . S
C5729 C5730 1.349 . S
C5729 C5731 1.327 . S
C5729 H5752 0.950 . S
C5730 C5729 1.349 . S
C5730 C5742 1.349 . S
C5731 C5729 1.327 . S
C5731 C5747 1.429 . S
C5731 H5753 0.950 . S
C5732 H5728 0.949 . S
C5732 C5740 1.574 . S
C5732 C5748 1.368 . S
H5733 C5741 0.950 . S
H5734 C5739 0.950 . S
H5735 C5740 0.949 . S
H5736 C5742 0.950 . S
H5737 C5743 0.950 . S
H5738 C5744 0.949 . S
C5739 H5734 0.950 . S
C5739 C5741 1.327 . S
C5739 C5745 1.429 . S
C5740 C5732 1.574 . S
C5740 H5735 0.949 . S
C5740 C5746 1.368 . S
C5741 C5725 1.349 . S
C5741 H5733 0.950 . S
C5741 C5739 1.327 . S
C5742 C5730 1.349 . S
C5742 H5736 0.950 . S
C5742 C5743 1.327 . S
C5743 H5737 0.950 . S
C5743 C5742 1.327 . S
C5743 C5747 1.429 . S
C5744 C5727 1.574 . S
C5744 H5738 0.949 . S
C5744 C5748 1.368 . S
C5745 C5726 1.429 . S
C5745 C5739 1.429 . S
C5745 C5746 1.523 . S
C5746 C5727 1.368 . S
C5746 C5740 1.368 . S
C5746 C5745 1.523 . S
C5747 C5731 1.429 . S
C5747 C5743 1.429 . S
C5747 C5748 1.523 . S
C5748 C5732 1.368 . S
C5748 C5744 1.368 . S
C5748 C5747 1.523 . S
H5749 C5724 0.950 . S
H5750 C5726 0.950 . S
H5751 C5727 0.949 . S
H5752 C5729 0.950 . S
H5753 C5731 0.950 . S
C5754 C5755 1.349 . S
C5754 C5756 1.327 . S
C5754 H5779 0.950 . S
C5755 C5754 1.349 . S
C5755 C5771 1.349 . S
C5756 C5754 1.327 . S
C5756 C5775 1.429 . S
C5756 H5780 0.950 . S
C5757 C5774 1.574 . S
C5757 C5776 1.368 . S
C5757 H5781 0.949 . S
H5758 C5762 0.949 . S
C5759 C5760 1.349 . S
C5759 C5761 1.327 . S
C5759 H5782 0.950 . S
C5760 C5759 1.349 . S
C5760 C5772 1.349 . S
C5761 C5759 1.327 . S
C5761 C5777 1.429 . S
C5761 H5783 0.950 . S
C5762 H5758 0.949 . S
C5762 C5770 1.574 . S
C5762 C5778 1.368 . S
H5763 C5771 0.950 . S
H5764 C5769 0.950 . S
H5765 C5770 0.949 . S
H5766 C5772 0.950 . S
H5767 C5773 0.950 . S
H5768 C5774 0.949 . S
C5769 H5764 0.950 . S
C5769 C5771 1.327 . S
C5769 C5775 1.429 . S
C5770 C5762 1.574 . S
C5770 H5765 0.949 . S
C5770 C5776 1.368 . S
C5771 C5755 1.349 . S
C5771 H5763 0.950 . S
C5771 C5769 1.327 . S
C5772 C5760 1.349 . S
C5772 H5766 0.950 . S
C5772 C5773 1.327 . S
C5773 H5767 0.950 . S
C5773 C5772 1.327 . S
C5773 C5777 1.429 . S
C5774 C5757 1.574 . S
C5774 H5768 0.949 . S
C5774 C5778 1.368 . S
C5775 C5756 1.429 . S
C5775 C5769 1.429 . S
C5775 C5776 1.523 . S
C5776 C5757 1.368 . S
C5776 C5770 1.368 . S
C5776 C5775 1.523 . S
C5777 C5761 1.429 . S
C5777 C5773 1.429 . S
C5777 C5778 1.523 . S
C5778 C5762 1.368 . S
C5778 C5774 1.368 . S
C5778 C5777 1.523 . S
H5779 C5754 0.950 . S
H5780 C5756 0.950 . S
H5781 C5757 0.949 . S
H5782 C5759 0.950 . S
H5783 C5761 0.950 . S
C5784 C5785 1.349 . S
C5784 C5786 1.327 . S
C5784 H5809 0.950 . S
C5785 C5784 1.349 . S
C5785 C5801 1.349 . S
C5786 C5784 1.327 . S
C5786 C5805 1.429 . S
C5786 H5810 0.950 . S
C5787 C5804 1.574 . S
C5787 C5806 1.368 . S
C5787 H5811 0.949 . S
H5788 C5792 0.949 . S
C5789 C5790 1.349 . S
C5789 C5791 1.327 . S
C5789 H5812 0.950 . S
C5790 C5789 1.349 . S
C5790 C5802 1.349 . S
C5791 C5789 1.327 . S
C5791 C5807 1.429 . S
C5791 H5813 0.950 . S
C5792 H5788 0.949 . S
C5792 C5800 1.574 . S
C5792 C5808 1.368 . S
H5793 C5801 0.950 . S
H5794 C5799 0.950 . S
H5795 C5800 0.949 . S
H5796 C5802 0.950 . S
H5797 C5803 0.950 . S
H5798 C5804 0.949 . S
C5799 H5794 0.950 . S
C5799 C5801 1.327 . S
C5799 C5805 1.429 . S
C5800 C5792 1.574 . S
C5800 H5795 0.949 . S
C5800 C5806 1.368 . S
C5801 C5785 1.349 . S
C5801 H5793 0.950 . S
C5801 C5799 1.327 . S
C5802 C5790 1.349 . S
C5802 H5796 0.950 . S
C5802 C5803 1.327 . S
C5803 H5797 0.950 . S
C5803 C5802 1.327 . S
C5803 C5807 1.429 . S
C5804 C5787 1.574 . S
C5804 H5798 0.949 . S
C5804 C5808 1.368 . S
C5805 C5786 1.429 . S
C5805 C5799 1.429 . S
C5805 C5806 1.523 . S
C5806 C5787 1.368 . S
C5806 C5800 1.368 . S
C5806 C5805 1.523 . S
C5807 C5791 1.429 . S
C5807 C5803 1.429 . S
C5807 C5808 1.523 . S
C5808 C5792 1.368 . S
C5808 C5804 1.368 . S
C5808 C5807 1.523 . S
H5809 C5784 0.950 . S
H5810 C5786 0.950 . S
H5811 C5787 0.949 . S
H5812 C5789 0.950 . S
H5813 C5791 0.950 . S
C5814 C5815 1.349 . S
C5814 C5816 1.327 . S
C5814 H5839 0.950 . S
C5815 C5814 1.349 . S
C5815 C5831 1.349 . S
C5816 C5814 1.327 . S
C5816 C5835 1.429 . S
C5816 H5840 0.950 . S
C5817 C5834 1.574 . S
C5817 C5836 1.368 . S
C5817 H5841 0.949 . S
H5818 C5822 0.949 . S
C5819 C5820 1.349 . S
C5819 C5821 1.327 . S
C5819 H5842 0.950 . S
C5820 C5819 1.349 . S
C5820 C5832 1.349 . S
C5821 C5819 1.327 . S
C5821 C5837 1.429 . S
C5821 H5843 0.950 . S
C5822 H5818 0.949 . S
C5822 C5830 1.574 . S
C5822 C5838 1.368 . S
H5823 C5831 0.950 . S
H5824 C5829 0.950 . S
H5825 C5830 0.949 . S
H5826 C5832 0.950 . S
H5827 C5833 0.950 . S
H5828 C5834 0.949 . S
C5829 H5824 0.950 . S
C5829 C5831 1.327 . S
C5829 C5835 1.429 . S
C5830 C5822 1.574 . S
C5830 H5825 0.949 . S
C5830 C5836 1.368 . S
C5831 C5815 1.349 . S
C5831 H5823 0.950 . S
C5831 C5829 1.327 . S
C5832 C5820 1.349 . S
C5832 H5826 0.950 . S
C5832 C5833 1.327 . S
C5833 H5827 0.950 . S
C5833 C5832 1.327 . S
C5833 C5837 1.429 . S
C5834 C5817 1.574 . S
C5834 H5828 0.949 . S
C5834 C5838 1.368 . S
C5835 C5816 1.429 . S
C5835 C5829 1.429 . S
C5835 C5836 1.523 . S
C5836 C5817 1.368 . S
C5836 C5830 1.368 . S
C5836 C5835 1.523 . S
C5837 C5821 1.429 . S
C5837 C5833 1.429 . S
C5837 C5838 1.523 . S
C5838 C5822 1.368 . S
C5838 C5834 1.368 . S
C5838 C5837 1.523 . S
H5839 C5814 0.950 . S
H5840 C5816 0.950 . S
H5841 C5817 0.949 . S
H5842 C5819 0.950 . S
H5843 C5821 0.950 . S
C5844 C5845 1.349 . S
C5844 C5846 1.327 . S
C5844 H5869 0.950 . S
C5845 C5844 1.349 . S
C5845 C5861 1.349 . S
C5846 C5844 1.327 . S
C5846 C5865 1.429 . S
C5846 H5870 0.950 . S
C5847 C5864 1.574 . S
C5847 C5866 1.368 . S
C5847 H5871 0.949 . S
H5848 C5852 0.949 . S
C5849 C5850 1.349 . S
C5849 C5851 1.327 . S
C5849 H5872 0.950 . S
C5850 C5849 1.349 . S
C5850 C5862 1.349 . S
C5851 C5849 1.327 . S
C5851 C5867 1.429 . S
C5851 H5873 0.950 . S
C5852 H5848 0.949 . S
C5852 C5860 1.574 . S
C5852 C5868 1.368 . S
H5853 C5861 0.950 . S
H5854 C5859 0.950 . S
H5855 C5860 0.949 . S
H5856 C5862 0.950 . S
H5857 C5863 0.950 . S
H5858 C5864 0.949 . S
C5859 H5854 0.950 . S
C5859 C5861 1.327 . S
C5859 C5865 1.429 . S
C5860 C5852 1.574 . S
C5860 H5855 0.949 . S
C5860 C5866 1.368 . S
C5861 C5845 1.349 . S
C5861 H5853 0.950 . S
C5861 C5859 1.327 . S
C5862 C5850 1.349 . S
C5862 H5856 0.950 . S
C5862 C5863 1.327 . S
C5863 H5857 0.950 . S
C5863 C5862 1.327 . S
C5863 C5867 1.429 . S
C5864 C5847 1.574 . S
C5864 H5858 0.949 . S
C5864 C5868 1.368 . S
C5865 C5846 1.429 . S
C5865 C5859 1.429 . S
C5865 C5866 1.523 . S
C5866 C5847 1.368 . S
C5866 C5860 1.368 . S
C5866 C5865 1.523 . S
C5867 C5851 1.429 . S
C5867 C5863 1.429 . S
C5867 C5868 1.523 . S
C5868 C5852 1.368 . S
C5868 C5864 1.368 . S
C5868 C5867 1.523 . S
H5869 C5844 0.950 . S
H5870 C5846 0.950 . S
H5871 C5847 0.949 . S
H5872 C5849 0.950 . S
H5873 C5851 0.950 . S
C5874 C5875 1.349 . S
C5874 C5876 1.327 . S
C5874 H5899 0.950 . S
C5875 C5874 1.349 . S
C5875 C5891 1.349 . S
C5876 C5874 1.327 . S
C5876 C5895 1.429 . S
C5876 H5900 0.950 . S
C5877 C5894 1.574 . S
C5877 C5896 1.368 . S
C5877 H5901 0.949 . S
H5878 C5882 0.949 . S
C5879 C5880 1.349 . S
C5879 C5881 1.327 . S
C5879 H5902 0.950 . S
C5880 C5879 1.349 . S
C5880 C5892 1.349 . S
C5881 C5879 1.327 . S
C5881 C5897 1.429 . S
C5881 H5903 0.950 . S
C5882 H5878 0.949 . S
C5882 C5890 1.574 . S
C5882 C5898 1.368 . S
H5883 C5891 0.950 . S
H5884 C5889 0.950 . S
H5885 C5890 0.949 . S
H5886 C5892 0.950 . S
H5887 C5893 0.950 . S
H5888 C5894 0.949 . S
C5889 H5884 0.950 . S
C5889 C5891 1.327 . S
C5889 C5895 1.429 . S
C5890 C5882 1.574 . S
C5890 H5885 0.949 . S
C5890 C5896 1.368 . S
C5891 C5875 1.349 . S
C5891 H5883 0.950 . S
C5891 C5889 1.327 . S
C5892 C5880 1.349 . S
C5892 H5886 0.950 . S
C5892 C5893 1.327 . S
C5893 H5887 0.950 . S
C5893 C5892 1.327 . S
C5893 C5897 1.429 . S
C5894 C5877 1.574 . S
C5894 H5888 0.949 . S
C5894 C5898 1.368 . S
C5895 C5876 1.429 . S
C5895 C5889 1.429 . S
C5895 C5896 1.523 . S
C5896 C5877 1.368 . S
C5896 C5890 1.368 . S
C5896 C5895 1.523 . S
C5897 C5881 1.429 . S
C5897 C5893 1.429 . S
C5897 C5898 1.523 . S
C5898 C5882 1.368 . S
C5898 C5894 1.368 . S
C5898 C5897 1.523 . S
H5899 C5874 0.950 . S
H5900 C5876 0.950 . S
H5901 C5877 0.949 . S
H5902 C5879 0.950 . S
H5903 C5881 0.950 . S
C5904 C5905 1.349 . S
C5904 C5906 1.327 . S
C5904 H5929 0.950 . S
C5905 C5904 1.349 . S
C5905 C5921 1.349 . S
C5906 C5904 1.327 . S
C5906 C5925 1.429 . S
C5906 H5930 0.950 . S
C5907 C5924 1.574 . S
C5907 C5926 1.368 . S
C5907 H5931 0.949 . S
H5908 C5912 0.949 . S
C5909 C5910 1.349 . S
C5909 C5911 1.327 . S
C5909 H5932 0.950 . S
C5910 C5909 1.349 . S
C5910 C5922 1.349 . S
C5911 C5909 1.327 . S
C5911 C5927 1.429 . S
C5911 H5933 0.950 . S
C5912 H5908 0.949 . S
C5912 C5920 1.574 . S
C5912 C5928 1.368 . S
H5913 C5921 0.950 . S
H5914 C5919 0.950 . S
H5915 C5920 0.949 . S
H5916 C5922 0.950 . S
H5917 C5923 0.950 . S
H5918 C5924 0.949 . S
C5919 H5914 0.950 . S
C5919 C5921 1.327 . S
C5919 C5925 1.429 . S
C5920 C5912 1.574 . S
C5920 H5915 0.949 . S
C5920 C5926 1.368 . S
C5921 C5905 1.349 . S
C5921 H5913 0.950 . S
C5921 C5919 1.327 . S
C5922 C5910 1.349 . S
C5922 H5916 0.950 . S
C5922 C5923 1.327 . S
C5923 H5917 0.950 . S
C5923 C5922 1.327 . S
C5923 C5927 1.429 . S
C5924 C5907 1.574 . S
C5924 H5918 0.949 . S
C5924 C5928 1.368 . S
C5925 C5906 1.429 . S
C5925 C5919 1.429 . S
C5925 C5926 1.523 . S
C5926 C5907 1.368 . S
C5926 C5920 1.368 . S
C5926 C5925 1.523 . S
C5927 C5911 1.429 . S
C5927 C5923 1.429 . S
C5927 C5928 1.523 . S
C5928 C5912 1.368 . S
C5928 C5924 1.368 . S
C5928 C5927 1.523 . S
H5929 C5904 0.950 . S
H5930 C5906 0.950 . S
H5931 C5907 0.949 . S
H5932 C5909 0.950 . S
H5933 C5911 0.950 . S
C5934 C5935 1.349 . S
C5934 C5936 1.327 . S
C5934 H5959 0.950 . S
C5935 C5934 1.349 . S
C5935 C5951 1.349 . S
C5936 C5934 1.327 . S
C5936 C5955 1.429 . S
C5936 H5960 0.950 . S
C5937 C5954 1.574 . S
C5937 C5956 1.368 . S
C5937 H5961 0.949 . S
H5938 C5942 0.949 . S
C5939 C5940 1.349 . S
C5939 C5941 1.327 . S
C5939 H5962 0.950 . S
C5940 C5939 1.349 . S
C5940 C5952 1.349 . S
C5941 C5939 1.327 . S
C5941 C5957 1.429 . S
C5941 H5963 0.950 . S
C5942 H5938 0.949 . S
C5942 C5950 1.574 . S
C5942 C5958 1.368 . S
H5943 C5951 0.950 . S
H5944 C5949 0.950 . S
H5945 C5950 0.949 . S
H5946 C5952 0.950 . S
H5947 C5953 0.950 . S
H5948 C5954 0.949 . S
C5949 H5944 0.950 . S
C5949 C5951 1.327 . S
C5949 C5955 1.429 . S
C5950 C5942 1.574 . S
C5950 H5945 0.949 . S
C5950 C5956 1.368 . S
C5951 C5935 1.349 . S
C5951 H5943 0.950 . S
C5951 C5949 1.327 . S
C5952 C5940 1.349 . S
C5952 H5946 0.950 . S
C5952 C5953 1.327 . S
C5953 H5947 0.950 . S
C5953 C5952 1.327 . S
C5953 C5957 1.429 . S
C5954 C5937 1.574 . S
C5954 H5948 0.949 . S
C5954 C5958 1.368 . S
C5955 C5936 1.429 . S
C5955 C5949 1.429 . S
C5955 C5956 1.523 . S
C5956 C5937 1.368 . S
C5956 C5950 1.368 . S
C5956 C5955 1.523 . S
C5957 C5941 1.429 . S
C5957 C5953 1.429 . S
C5957 C5958 1.523 . S
C5958 C5942 1.368 . S
C5958 C5954 1.368 . S
C5958 C5957 1.523 . S
H5959 C5934 0.950 . S
H5960 C5936 0.950 . S
H5961 C5937 0.949 . S
H5962 C5939 0.950 . S
H5963 C5941 0.950 . S
C5964 C5965 1.349 . S
C5964 C5966 1.327 . S
C5964 H5989 0.950 . S
C5965 C5964 1.349 . S
C5965 C5981 1.349 . S
C5966 C5964 1.327 . S
C5966 C5985 1.429 . S
C5966 H5990 0.950 . S
C5967 C5984 1.574 . S
C5967 C5986 1.368 . S
C5967 H5991 0.949 . S
H5968 C5972 0.949 . S
C5969 C5970 1.349 . S
C5969 C5971 1.327 . S
C5969 H5992 0.950 . S
C5970 C5969 1.349 . S
C5970 C5982 1.349 . S
C5971 C5969 1.327 . S
C5971 C5987 1.429 . S
C5971 H5993 0.950 . S
C5972 H5968 0.949 . S
C5972 C5980 1.574 . S
C5972 C5988 1.368 . S
H5973 C5981 0.950 . S
H5974 C5979 0.950 . S
H5975 C5980 0.949 . S
H5976 C5982 0.950 . S
H5977 C5983 0.950 . S
H5978 C5984 0.949 . S
C5979 H5974 0.950 . S
C5979 C5981 1.327 . S
C5979 C5985 1.429 . S
C5980 C5972 1.574 . S
C5980 H5975 0.949 . S
C5980 C5986 1.368 . S
C5981 C5965 1.349 . S
C5981 H5973 0.950 . S
C5981 C5979 1.327 . S
C5982 C5970 1.349 . S
C5982 H5976 0.950 . S
C5982 C5983 1.327 . S
C5983 H5977 0.950 . S
C5983 C5982 1.327 . S
C5983 C5987 1.429 . S
C5984 C5967 1.574 . S
C5984 H5978 0.949 . S
C5984 C5988 1.368 . S
C5985 C5966 1.429 . S
C5985 C5979 1.429 . S
C5985 C5986 1.523 . S
C5986 C5967 1.368 . S
C5986 C5980 1.368 . S
C5986 C5985 1.523 . S
C5987 C5971 1.429 . S
C5987 C5983 1.429 . S
C5987 C5988 1.523 . S
C5988 C5972 1.368 . S
C5988 C5984 1.368 . S
C5988 C5987 1.523 . S
H5989 C5964 0.950 . S
H5990 C5966 0.950 . S
H5991 C5967 0.949 . S
H5992 C5969 0.950 . S
H5993 C5971 0.950 . S
C5994 C5995 1.349 . S
C5994 C5996 1.327 . S
C5994 H6019 0.950 . S
C5995 C5994 1.349 . S
C5995 C6011 1.349 . S
C5996 C5994 1.327 . S
C5996 C6015 1.429 . S
C5996 H6020 0.950 . S
C5997 C6014 1.574 . S
C5997 C6016 1.368 . S
C5997 H6021 0.949 . S
H5998 C6002 0.949 . S
C5999 C6000 1.349 . S
C5999 C6001 1.327 . S
C5999 H6022 0.950 . S
C6000 C5999 1.349 . S
C6000 C6012 1.349 . S
C6001 C5999 1.327 . S
C6001 C6017 1.429 . S
C6001 H6023 0.950 . S
C6002 H5998 0.949 . S
C6002 C6010 1.574 . S
C6002 C6018 1.368 . S
H6003 C6011 0.950 . S
H6004 C6009 0.950 . S
H6005 C6010 0.949 . S
H6006 C6012 0.950 . S
H6007 C6013 0.950 . S
H6008 C6014 0.949 . S
C6009 H6004 0.950 . S
C6009 C6011 1.327 . S
C6009 C6015 1.429 . S
C6010 C6002 1.574 . S
C6010 H6005 0.949 . S
C6010 C6016 1.368 . S
C6011 C5995 1.349 . S
C6011 H6003 0.950 . S
C6011 C6009 1.327 . S
C6012 C6000 1.349 . S
C6012 H6006 0.950 . S
C6012 C6013 1.327 . S
C6013 H6007 0.950 . S
C6013 C6012 1.327 . S
C6013 C6017 1.429 . S
C6014 C5997 1.574 . S
C6014 H6008 0.949 . S
C6014 C6018 1.368 . S
C6015 C5996 1.429 . S
C6015 C6009 1.429 . S
C6015 C6016 1.523 . S
C6016 C5997 1.368 . S
C6016 C6010 1.368 . S
C6016 C6015 1.523 . S
C6017 C6001 1.429 . S
C6017 C6013 1.429 . S
C6017 C6018 1.523 . S
C6018 C6002 1.368 . S
C6018 C6014 1.368 . S
C6018 C6017 1.523 . S
H6019 C5994 0.950 . S
H6020 C5996 0.950 . S
H6021 C5997 0.949 . S
H6022 C5999 0.950 . S
H6023 C6001 0.950 . S
C6024 C6025 1.349 . S
C6024 C6026 1.327 . S
C6024 H6049 0.950 . S
C6025 C6024 1.349 . S
C6025 C6041 1.349 . S
C6026 C6024 1.327 . S
C6026 C6045 1.429 . S
C6026 H6050 0.950 . S
C6027 C6044 1.574 . S
C6027 C6046 1.368 . S
C6027 H6051 0.949 . S
H6028 C6032 0.949 . S
C6029 C6030 1.349 . S
C6029 C6031 1.327 . S
C6029 H6052 0.950 . S
C6030 C6029 1.349 . S
C6030 C6042 1.349 . S
C6031 C6029 1.327 . S
C6031 C6047 1.429 . S
C6031 H6053 0.950 . S
C6032 H6028 0.949 . S
C6032 C6040 1.574 . S
C6032 C6048 1.368 . S
H6033 C6041 0.950 . S
H6034 C6039 0.950 . S
H6035 C6040 0.949 . S
H6036 C6042 0.950 . S
H6037 C6043 0.950 . S
H6038 C6044 0.949 . S
C6039 H6034 0.950 . S
C6039 C6041 1.327 . S
C6039 C6045 1.429 . S
C6040 C6032 1.574 . S
C6040 H6035 0.949 . S
C6040 C6046 1.368 . S
C6041 C6025 1.349 . S
C6041 H6033 0.950 . S
C6041 C6039 1.327 . S
C6042 C6030 1.349 . S
C6042 H6036 0.950 . S
C6042 C6043 1.327 . S
C6043 H6037 0.950 . S
C6043 C6042 1.327 . S
C6043 C6047 1.429 . S
C6044 C6027 1.574 . S
C6044 H6038 0.949 . S
C6044 C6048 1.368 . S
C6045 C6026 1.429 . S
C6045 C6039 1.429 . S
C6045 C6046 1.523 . S
C6046 C6027 1.368 . S
C6046 C6040 1.368 . S
C6046 C6045 1.523 . S
C6047 C6031 1.429 . S
C6047 C6043 1.429 . S
C6047 C6048 1.523 . S
C6048 C6032 1.368 . S
C6048 C6044 1.368 . S
C6048 C6047 1.523 . S
H6049 C6024 0.950 . S
H6050 C6026 0.950 . S
H6051 C6027 0.949 . S
H6052 C6029 0.950 . S
H6053 C6031 0.950 . S
C6054 C6055 1.349 . S
C6054 C6056 1.327 . S
C6054 H6079 0.950 . S
C6055 C6054 1.349 . S
C6055 C6071 1.349 . S
C6056 C6054 1.327 . S
C6056 C6075 1.429 . S
C6056 H6080 0.950 . S
C6057 C6074 1.574 . S
C6057 C6076 1.368 . S
C6057 H6081 0.949 . S
H6058 C6062 0.949 . S
C6059 C6060 1.349 . S
C6059 C6061 1.327 . S
C6059 H6082 0.950 . S
C6060 C6059 1.349 . S
C6060 C6072 1.349 . S
C6061 C6059 1.327 . S
C6061 C6077 1.429 . S
C6061 H6083 0.950 . S
C6062 H6058 0.949 . S
C6062 C6070 1.574 . S
C6062 C6078 1.368 . S
H6063 C6071 0.950 . S
H6064 C6069 0.950 . S
H6065 C6070 0.949 . S
H6066 C6072 0.950 . S
H6067 C6073 0.950 . S
H6068 C6074 0.949 . S
C6069 H6064 0.950 . S
C6069 C6071 1.327 . S
C6069 C6075 1.429 . S
C6070 C6062 1.574 . S
C6070 H6065 0.949 . S
C6070 C6076 1.368 . S
C6071 C6055 1.349 . S
C6071 H6063 0.950 . S
C6071 C6069 1.327 . S
C6072 C6060 1.349 . S
C6072 H6066 0.950 . S
C6072 C6073 1.327 . S
C6073 H6067 0.950 . S
C6073 C6072 1.327 . S
C6073 C6077 1.429 . S
C6074 C6057 1.574 . S
C6074 H6068 0.949 . S
C6074 C6078 1.368 . S
C6075 C6056 1.429 . S
C6075 C6069 1.429 . S
C6075 C6076 1.523 . S
C6076 C6057 1.368 . S
C6076 C6070 1.368 . S
C6076 C6075 1.523 . S
C6077 C6061 1.429 . S
C6077 C6073 1.429 . S
C6077 C6078 1.523 . S
C6078 C6062 1.368 . S
C6078 C6074 1.368 . S
C6078 C6077 1.523 . S
H6079 C6054 0.950 . S
H6080 C6056 0.950 . S
H6081 C6057 0.949 . S
H6082 C6059 0.950 . S
H6083 C6061 0.950 . S
C6084 C6085 1.349 . S
C6084 C6086 1.327 . S
C6084 H6109 0.950 . S
C6085 C6084 1.349 . S
C6085 C6101 1.349 . S
C6086 C6084 1.327 . S
C6086 C6105 1.429 . S
C6086 H6110 0.950 . S
C6087 C6104 1.574 . S
C6087 C6106 1.368 . S
C6087 H6111 0.949 . S
H6088 C6092 0.949 . S
C6089 C6090 1.349 . S
C6089 C6091 1.327 . S
C6089 H6112 0.950 . S
C6090 C6089 1.349 . S
C6090 C6102 1.349 . S
C6091 C6089 1.327 . S
C6091 C6107 1.429 . S
C6091 H6113 0.950 . S
C6092 H6088 0.949 . S
C6092 C6100 1.574 . S
C6092 C6108 1.368 . S
H6093 C6101 0.950 . S
H6094 C6099 0.950 . S
H6095 C6100 0.949 . S
H6096 C6102 0.950 . S
H6097 C6103 0.950 . S
H6098 C6104 0.949 . S
C6099 H6094 0.950 . S
C6099 C6101 1.327 . S
C6099 C6105 1.429 . S
C6100 C6092 1.574 . S
C6100 H6095 0.949 . S
C6100 C6106 1.368 . S
C6101 C6085 1.349 . S
C6101 H6093 0.950 . S
C6101 C6099 1.327 . S
C6102 C6090 1.349 . S
C6102 H6096 0.950 . S
C6102 C6103 1.327 . S
C6103 H6097 0.950 . S
C6103 C6102 1.327 . S
C6103 C6107 1.429 . S
C6104 C6087 1.574 . S
C6104 H6098 0.949 . S
C6104 C6108 1.368 . S
C6105 C6086 1.429 . S
C6105 C6099 1.429 . S
C6105 C6106 1.523 . S
C6106 C6087 1.368 . S
C6106 C6100 1.368 . S
C6106 C6105 1.523 . S
C6107 C6091 1.429 . S
C6107 C6103 1.429 . S
C6107 C6108 1.523 . S
C6108 C6092 1.368 . S
C6108 C6104 1.368 . S
C6108 C6107 1.523 . S
H6109 C6084 0.950 . S
H6110 C6086 0.950 . S
H6111 C6087 0.949 . S
H6112 C6089 0.950 . S
H6113 C6091 0.950 . S
C6114 C6115 1.349 . S
C6114 C6116 1.327 . S
C6114 H6139 0.950 . S
C6115 C6114 1.349 . S
C6115 C6131 1.349 . S
C6116 C6114 1.327 . S
C6116 C6135 1.429 . S
C6116 H6140 0.950 . S
C6117 C6134 1.574 . S
C6117 C6136 1.368 . S
C6117 H6141 0.949 . S
H6118 C6122 0.949 . S
C6119 C6120 1.349 . S
C6119 C6121 1.327 . S
C6119 H6142 0.950 . S
C6120 C6119 1.349 . S
C6120 C6132 1.349 . S
C6121 C6119 1.327 . S
C6121 C6137 1.429 . S
C6121 H6143 0.950 . S
C6122 H6118 0.949 . S
C6122 C6130 1.574 . S
C6122 C6138 1.368 . S
H6123 C6131 0.950 . S
H6124 C6129 0.950 . S
H6125 C6130 0.949 . S
H6126 C6132 0.950 . S
H6127 C6133 0.950 . S
H6128 C6134 0.949 . S
C6129 H6124 0.950 . S
C6129 C6131 1.327 . S
C6129 C6135 1.429 . S
C6130 C6122 1.574 . S
C6130 H6125 0.949 . S
C6130 C6136 1.368 . S
C6131 C6115 1.349 . S
C6131 H6123 0.950 . S
C6131 C6129 1.327 . S
C6132 C6120 1.349 . S
C6132 H6126 0.950 . S
C6132 C6133 1.327 . S
C6133 H6127 0.950 . S
C6133 C6132 1.327 . S
C6133 C6137 1.429 . S
C6134 C6117 1.574 . S
C6134 H6128 0.949 . S
C6134 C6138 1.368 . S
C6135 C6116 1.429 . S
C6135 C6129 1.429 . S
C6135 C6136 1.523 . S
C6136 C6117 1.368 . S
C6136 C6130 1.368 . S
C6136 C6135 1.523 . S
C6137 C6121 1.429 . S
C6137 C6133 1.429 . S
C6137 C6138 1.523 . S
C6138 C6122 1.368 . S
C6138 C6134 1.368 . S
C6138 C6137 1.523 . S
H6139 C6114 0.950 . S
H6140 C6116 0.950 . S
H6141 C6117 0.949 . S
H6142 C6119 0.950 . S
H6143 C6121 0.950 . S
C6144 C6145 1.349 . S
C6144 C6146 1.327 . S
C6144 H6169 0.950 . S
C6145 C6144 1.349 . S
C6145 C6161 1.349 . S
C6146 C6144 1.327 . S
C6146 C6165 1.429 . S
C6146 H6170 0.950 . S
C6147 C6164 1.574 . S
C6147 C6166 1.368 . S
C6147 H6171 0.949 . S
H6148 C6152 0.949 . S
C6149 C6150 1.349 . S
C6149 C6151 1.327 . S
C6149 H6172 0.950 . S
C6150 C6149 1.349 . S
C6150 C6162 1.349 . S
C6151 C6149 1.327 . S
C6151 C6167 1.429 . S
C6151 H6173 0.950 . S
C6152 H6148 0.949 . S
C6152 C6160 1.574 . S
C6152 C6168 1.368 . S
H6153 C6161 0.950 . S
H6154 C6159 0.950 . S
H6155 C6160 0.949 . S
H6156 C6162 0.950 . S
H6157 C6163 0.950 . S
H6158 C6164 0.949 . S
C6159 H6154 0.950 . S
C6159 C6161 1.327 . S
C6159 C6165 1.429 . S
C6160 C6152 1.574 . S
C6160 H6155 0.949 . S
C6160 C6166 1.368 . S
C6161 C6145 1.349 . S
C6161 H6153 0.950 . S
C6161 C6159 1.327 . S
C6162 C6150 1.349 . S
C6162 H6156 0.950 . S
C6162 C6163 1.327 . S
C6163 H6157 0.950 . S
C6163 C6162 1.327 . S
C6163 C6167 1.429 . S
C6164 C6147 1.574 . S
C6164 H6158 0.949 . S
C6164 C6168 1.368 . S
C6165 C6146 1.429 . S
C6165 C6159 1.429 . S
C6165 C6166 1.523 . S
C6166 C6147 1.368 . S
C6166 C6160 1.368 . S
C6166 C6165 1.523 . S
C6167 C6151 1.429 . S
C6167 C6163 1.429 . S
C6167 C6168 1.523 . S
C6168 C6152 1.368 . S
C6168 C6164 1.368 . S
C6168 C6167 1.523 . S
H6169 C6144 0.950 . S
H6170 C6146 0.950 . S
H6171 C6147 0.949 . S
H6172 C6149 0.950 . S
H6173 C6151 0.950 . S
C6174 C6175 1.349 . S
C6174 C6176 1.327 . S
C6174 H6199 0.950 . S
C6175 C6174 1.349 . S
C6175 C6191 1.349 . S
C6176 C6174 1.327 . S
C6176 C6195 1.429 . S
C6176 H6200 0.950 . S
C6177 C6194 1.574 . S
C6177 C6196 1.368 . S
C6177 H6201 0.949 . S
H6178 C6182 0.949 . S
C6179 C6180 1.349 . S
C6179 C6181 1.327 . S
C6179 H6202 0.950 . S
C6180 C6179 1.349 . S
C6180 C6192 1.349 . S
C6181 C6179 1.327 . S
C6181 C6197 1.429 . S
C6181 H6203 0.950 . S
C6182 H6178 0.949 . S
C6182 C6190 1.574 . S
C6182 C6198 1.368 . S
H6183 C6191 0.950 . S
H6184 C6189 0.950 . S
H6185 C6190 0.949 . S
H6186 C6192 0.950 . S
H6187 C6193 0.950 . S
H6188 C6194 0.949 . S
C6189 H6184 0.950 . S
C6189 C6191 1.327 . S
C6189 C6195 1.429 . S
C6190 C6182 1.574 . S
C6190 H6185 0.949 . S
C6190 C6196 1.368 . S
C6191 C6175 1.349 . S
C6191 H6183 0.950 . S
C6191 C6189 1.327 . S
C6192 C6180 1.349 . S
C6192 H6186 0.950 . S
C6192 C6193 1.327 . S
C6193 H6187 0.950 . S
C6193 C6192 1.327 . S
C6193 C6197 1.429 . S
C6194 C6177 1.574 . S
C6194 H6188 0.949 . S
C6194 C6198 1.368 . S
C6195 C6176 1.429 . S
C6195 C6189 1.429 . S
C6195 C6196 1.523 . S
C6196 C6177 1.368 . S
C6196 C6190 1.368 . S
C6196 C6195 1.523 . S
C6197 C6181 1.429 . S
C6197 C6193 1.429 . S
C6197 C6198 1.523 . S
C6198 C6182 1.368 . S
C6198 C6194 1.368 . S
C6198 C6197 1.523 . S
H6199 C6174 0.950 . S
H6200 C6176 0.950 . S
H6201 C6177 0.949 . S
H6202 C6179 0.950 . S
H6203 C6181 0.950 . S
C6204 C6205 1.349 . S
C6204 C6206 1.327 . S
C6204 H6229 0.950 . S
C6205 C6204 1.349 . S
C6205 C6221 1.349 . S
C6206 C6204 1.327 . S
C6206 C6225 1.429 . S
C6206 H6230 0.950 . S
C6207 C6224 1.574 . S
C6207 C6226 1.368 . S
C6207 H6231 0.949 . S
H6208 C6212 0.949 . S
C6209 C6210 1.349 . S
C6209 C6211 1.327 . S
C6209 H6232 0.950 . S
C6210 C6209 1.349 . S
C6210 C6222 1.349 . S
C6211 C6209 1.327 . S
C6211 C6227 1.429 . S
C6211 H6233 0.950 . S
C6212 H6208 0.949 . S
C6212 C6220 1.574 . S
C6212 C6228 1.368 . S
H6213 C6221 0.950 . S
H6214 C6219 0.950 . S
H6215 C6220 0.949 . S
H6216 C6222 0.950 . S
H6217 C6223 0.950 . S
H6218 C6224 0.949 . S
C6219 H6214 0.950 . S
C6219 C6221 1.327 . S
C6219 C6225 1.429 . S
C6220 C6212 1.574 . S
C6220 H6215 0.949 . S
C6220 C6226 1.368 . S
C6221 C6205 1.349 . S
C6221 H6213 0.950 . S
C6221 C6219 1.327 . S
C6222 C6210 1.349 . S
C6222 H6216 0.950 . S
C6222 C6223 1.327 . S
C6223 H6217 0.950 . S
C6223 C6222 1.327 . S
C6223 C6227 1.429 . S
C6224 C6207 1.574 . S
C6224 H6218 0.949 . S
C6224 C6228 1.368 . S
C6225 C6206 1.429 . S
C6225 C6219 1.429 . S
C6225 C6226 1.523 . S
C6226 C6207 1.368 . S
C6226 C6220 1.368 . S
C6226 C6225 1.523 . S
C6227 C6211 1.429 . S
C6227 C6223 1.429 . S
C6227 C6228 1.523 . S
C6228 C6212 1.368 . S
C6228 C6224 1.368 . S
C6228 C6227 1.523 . S
H6229 C6204 0.950 . S
H6230 C6206 0.950 . S
H6231 C6207 0.949 . S
H6232 C6209 0.950 . S
H6233 C6211 0.950 . S
C6234 C6235 1.349 . S
C6234 C6236 1.327 . S
C6234 H6259 0.950 . S
C6235 C6234 1.349 . S
C6235 C6251 1.349 . S
C6236 C6234 1.327 . S
C6236 C6255 1.429 . S
C6236 H6260 0.950 . S
C6237 C6254 1.574 . S
C6237 C6256 1.368 . S
C6237 H6261 0.949 . S
H6238 C6242 0.949 . S
C6239 C6240 1.349 . S
C6239 C6241 1.327 . S
C6239 H6262 0.950 . S
C6240 C6239 1.349 . S
C6240 C6252 1.349 . S
C6241 C6239 1.327 . S
C6241 C6257 1.429 . S
C6241 H6263 0.950 . S
C6242 H6238 0.949 . S
C6242 C6250 1.574 . S
C6242 C6258 1.368 . S
H6243 C6251 0.950 . S
H6244 C6249 0.950 . S
H6245 C6250 0.949 . S
H6246 C6252 0.950 . S
H6247 C6253 0.950 . S
H6248 C6254 0.949 . S
C6249 H6244 0.950 . S
C6249 C6251 1.327 . S
C6249 C6255 1.429 . S
C6250 C6242 1.574 . S
C6250 H6245 0.949 . S
C6250 C6256 1.368 . S
C6251 C6235 1.349 . S
C6251 H6243 0.950 . S
C6251 C6249 1.327 . S
C6252 C6240 1.349 . S
C6252 H6246 0.950 . S
C6252 C6253 1.327 . S
C6253 H6247 0.950 . S
C6253 C6252 1.327 . S
C6253 C6257 1.429 . S
C6254 C6237 1.574 . S
C6254 H6248 0.949 . S
C6254 C6258 1.368 . S
C6255 C6236 1.429 . S
C6255 C6249 1.429 . S
C6255 C6256 1.523 . S
C6256 C6237 1.368 . S
C6256 C6250 1.368 . S
C6256 C6255 1.523 . S
C6257 C6241 1.429 . S
C6257 C6253 1.429 . S
C6257 C6258 1.523 . S
C6258 C6242 1.368 . S
C6258 C6254 1.368 . S
C6258 C6257 1.523 . S
H6259 C6234 0.950 . S
H6260 C6236 0.950 . S
H6261 C6237 0.949 . S
H6262 C6239 0.950 . S
H6263 C6241 0.950 . S
C6264 C6265 1.349 . S
C6264 C6266 1.327 . S
C6264 H6289 0.950 . S
C6265 C6264 1.349 . S
C6265 C6281 1.349 . S
C6266 C6264 1.327 . S
C6266 C6285 1.429 . S
C6266 H6290 0.950 . S
C6267 C6284 1.574 . S
C6267 C6286 1.368 . S
C6267 H6291 0.949 . S
H6268 C6272 0.949 . S
C6269 C6270 1.349 . S
C6269 C6271 1.327 . S
C6269 H6292 0.950 . S
C6270 C6269 1.349 . S
C6270 C6282 1.349 . S
C6271 C6269 1.327 . S
C6271 C6287 1.429 . S
C6271 H6293 0.950 . S
C6272 H6268 0.949 . S
C6272 C6280 1.574 . S
C6272 C6288 1.368 . S
H6273 C6281 0.950 . S
H6274 C6279 0.950 . S
H6275 C6280 0.949 . S
H6276 C6282 0.950 . S
H6277 C6283 0.950 . S
H6278 C6284 0.949 . S
C6279 H6274 0.950 . S
C6279 C6281 1.327 . S
C6279 C6285 1.429 . S
C6280 C6272 1.574 . S
C6280 H6275 0.949 . S
C6280 C6286 1.368 . S
C6281 C6265 1.349 . S
C6281 H6273 0.950 . S
C6281 C6279 1.327 . S
C6282 C6270 1.349 . S
C6282 H6276 0.950 . S
C6282 C6283 1.327 . S
C6283 H6277 0.950 . S
C6283 C6282 1.327 . S
C6283 C6287 1.429 . S
C6284 C6267 1.574 . S
C6284 H6278 0.949 . S
C6284 C6288 1.368 . S
C6285 C6266 1.429 . S
C6285 C6279 1.429 . S
C6285 C6286 1.523 . S
C6286 C6267 1.368 . S
C6286 C6280 1.368 . S
C6286 C6285 1.523 . S
C6287 C6271 1.429 . S
C6287 C6283 1.429 . S
C6287 C6288 1.523 . S
C6288 C6272 1.368 . S
C6288 C6284 1.368 . S
C6288 C6287 1.523 . S
H6289 C6264 0.950 . S
H6290 C6266 0.950 . S
H6291 C6267 0.949 . S
H6292 C6269 0.950 . S
H6293 C6271 0.950 . S
C6294 C6295 1.349 . S
C6294 C6296 1.327 . S
C6294 H6319 0.950 . S
C6295 C6294 1.349 . S
C6295 C6311 1.349 . S
C6296 C6294 1.327 . S
C6296 C6315 1.429 . S
C6296 H6320 0.950 . S
C6297 C6314 1.574 . S
C6297 C6316 1.368 . S
C6297 H6321 0.949 . S
H6298 C6302 0.949 . S
C6299 C6300 1.349 . S
C6299 C6301 1.327 . S
C6299 H6322 0.950 . S
C6300 C6299 1.349 . S
C6300 C6312 1.349 . S
C6301 C6299 1.327 . S
C6301 C6317 1.429 . S
C6301 H6323 0.950 . S
C6302 H6298 0.949 . S
C6302 C6310 1.574 . S
C6302 C6318 1.368 . S
H6303 C6311 0.950 . S
H6304 C6309 0.950 . S
H6305 C6310 0.949 . S
H6306 C6312 0.950 . S
H6307 C6313 0.950 . S
H6308 C6314 0.949 . S
C6309 H6304 0.950 . S
C6309 C6311 1.327 . S
C6309 C6315 1.429 . S
C6310 C6302 1.574 . S
C6310 H6305 0.949 . S
C6310 C6316 1.368 . S
C6311 C6295 1.349 . S
C6311 H6303 0.950 . S
C6311 C6309 1.327 . S
C6312 C6300 1.349 . S
C6312 H6306 0.950 . S
C6312 C6313 1.327 . S
C6313 H6307 0.950 . S
C6313 C6312 1.327 . S
C6313 C6317 1.429 . S
C6314 C6297 1.574 . S
C6314 H6308 0.949 . S
C6314 C6318 1.368 . S
C6315 C6296 1.429 . S
C6315 C6309 1.429 . S
C6315 C6316 1.523 . S
C6316 C6297 1.368 . S
C6316 C6310 1.368 . S
C6316 C6315 1.523 . S
C6317 C6301 1.429 . S
C6317 C6313 1.429 . S
C6317 C6318 1.523 . S
C6318 C6302 1.368 . S
C6318 C6314 1.368 . S
C6318 C6317 1.523 . S
H6319 C6294 0.950 . S
H6320 C6296 0.950 . S
H6321 C6297 0.949 . S
H6322 C6299 0.950 . S
H6323 C6301 0.950 . S
C6324 C6325 1.349 . S
C6324 C6326 1.327 . S
C6324 H6349 0.950 . S
C6325 C6324 1.349 . S
C6325 C6341 1.349 . S
C6326 C6324 1.327 . S
C6326 C6345 1.429 . S
C6326 H6350 0.950 . S
C6327 C6344 1.574 . S
C6327 C6346 1.368 . S
C6327 H6351 0.949 . S
H6328 C6332 0.949 . S
C6329 C6330 1.349 . S
C6329 C6331 1.327 . S
C6329 H6352 0.950 . S
C6330 C6329 1.349 . S
C6330 C6342 1.349 . S
C6331 C6329 1.327 . S
C6331 C6347 1.429 . S
C6331 H6353 0.950 . S
C6332 H6328 0.949 . S
C6332 C6340 1.574 . S
C6332 C6348 1.368 . S
H6333 C6341 0.950 . S
H6334 C6339 0.950 . S
H6335 C6340 0.949 . S
H6336 C6342 0.950 . S
H6337 C6343 0.950 . S
H6338 C6344 0.949 . S
C6339 H6334 0.950 . S
C6339 C6341 1.327 . S
C6339 C6345 1.429 . S
C6340 C6332 1.574 . S
C6340 H6335 0.949 . S
C6340 C6346 1.368 . S
C6341 C6325 1.349 . S
C6341 H6333 0.950 . S
C6341 C6339 1.327 . S
C6342 C6330 1.349 . S
C6342 H6336 0.950 . S
C6342 C6343 1.327 . S
C6343 H6337 0.950 . S
C6343 C6342 1.327 . S
C6343 C6347 1.429 . S
C6344 C6327 1.574 . S
C6344 H6338 0.949 . S
C6344 C6348 1.368 . S
C6345 C6326 1.429 . S
C6345 C6339 1.429 . S
C6345 C6346 1.523 . S
C6346 C6327 1.368 . S
C6346 C6340 1.368 . S
C6346 C6345 1.523 . S
C6347 C6331 1.429 . S
C6347 C6343 1.429 . S
C6347 C6348 1.523 . S
C6348 C6332 1.368 . S
C6348 C6344 1.368 . S
C6348 C6347 1.523 . S
H6349 C6324 0.950 . S
H6350 C6326 0.950 . S
H6351 C6327 0.949 . S
H6352 C6329 0.950 . S
H6353 C6331 0.950 . S
C6354 C6355 1.349 . S
C6354 C6356 1.327 . S
C6354 H6379 0.950 . S
C6355 C6354 1.349 . S
C6355 C6371 1.349 . S
C6356 C6354 1.327 . S
C6356 C6375 1.429 . S
C6356 H6380 0.950 . S
C6357 C6374 1.574 . S
C6357 C6376 1.368 . S
C6357 H6381 0.949 . S
H6358 C6362 0.949 . S
C6359 C6360 1.349 . S
C6359 C6361 1.327 . S
C6359 H6382 0.950 . S
C6360 C6359 1.349 . S
C6360 C6372 1.349 . S
C6361 C6359 1.327 . S
C6361 C6377 1.429 . S
C6361 H6383 0.950 . S
C6362 H6358 0.949 . S
C6362 C6370 1.574 . S
C6362 C6378 1.368 . S
H6363 C6371 0.950 . S
H6364 C6369 0.950 . S
H6365 C6370 0.949 . S
H6366 C6372 0.950 . S
H6367 C6373 0.950 . S
H6368 C6374 0.949 . S
C6369 H6364 0.950 . S
C6369 C6371 1.327 . S
C6369 C6375 1.429 . S
C6370 C6362 1.574 . S
C6370 H6365 0.949 . S
C6370 C6376 1.368 . S
C6371 C6355 1.349 . S
C6371 H6363 0.950 . S
C6371 C6369 1.327 . S
C6372 C6360 1.349 . S
C6372 H6366 0.950 . S
C6372 C6373 1.327 . S
C6373 H6367 0.950 . S
C6373 C6372 1.327 . S
C6373 C6377 1.429 . S
C6374 C6357 1.574 . S
C6374 H6368 0.949 . S
C6374 C6378 1.368 . S
C6375 C6356 1.429 . S
C6375 C6369 1.429 . S
C6375 C6376 1.523 . S
C6376 C6357 1.368 . S
C6376 C6370 1.368 . S
C6376 C6375 1.523 . S
C6377 C6361 1.429 . S
C6377 C6373 1.429 . S
C6377 C6378 1.523 . S
C6378 C6362 1.368 . S
C6378 C6374 1.368 . S
C6378 C6377 1.523 . S
H6379 C6354 0.950 . S
H6380 C6356 0.950 . S
H6381 C6357 0.949 . S
H6382 C6359 0.950 . S
H6383 C6361 0.950 . S
C6384 C6385 1.349 . S
C6384 C6386 1.327 . S
C6384 H6409 0.950 . S
C6385 C6384 1.349 . S
C6385 C6401 1.349 . S
C6386 C6384 1.327 . S
C6386 C6405 1.429 . S
C6386 H6410 0.950 . S
C6387 C6404 1.574 . S
C6387 C6406 1.368 . S
C6387 H6411 0.949 . S
H6388 C6392 0.949 1_554 S
C6389 C6390 1.349 . S
C6389 C6391 1.327 . S
C6389 H6412 0.950 . S
C6390 C6389 1.349 . S
C6390 C6402 1.349 . S
C6391 C6389 1.327 . S
C6391 C6407 1.429 . S
C6391 H6413 0.950 . S
C6392 H6388 0.949 1_556 S
C6392 C6400 1.574 . S
C6392 C6408 1.339 1_556 S
H6393 C6401 0.950 . S
H6394 C6399 0.950 . S
H6395 C6400 0.949 . S
H6396 C6402 0.950 . S
H6397 C6403 0.950 . S
H6398 C6404 0.941 1_554 S
C6399 H6394 0.950 . S
C6399 C6401 1.327 . S
C6399 C6405 1.429 . S
C6400 C6392 1.574 . S
C6400 H6395 0.949 . S
C6400 C6406 1.368 . S
C6401 C6385 1.349 . S
C6401 H6393 0.950 . S
C6401 C6399 1.327 . S
C6402 C6390 1.349 . S
C6402 H6396 0.950 . S
C6402 C6403 1.327 . S
C6403 H6397 0.950 . S
C6403 C6402 1.327 . S
C6403 C6407 1.429 . S
C6404 C6387 1.574 . S
C6404 H6398 0.941 1_556 S
C6404 C6408 1.334 1_556 S
C6405 C6386 1.429 . S
C6405 C6399 1.429 . S
C6405 C6406 1.523 . S
C6406 C6387 1.368 . S
C6406 C6400 1.368 . S
C6406 C6405 1.523 . S
C6407 C6391 1.429 . S
C6407 C6403 1.429 . S
C6407 C6408 1.611 . S
C6408 C6392 1.339 1_554 S
C6408 C6404 1.334 1_554 S
C6408 C6407 1.611 . S
H6409 C6384 0.950 . S
H6410 C6386 0.950 . S
H6411 C6387 0.949 . S
H6412 C6389 0.950 . S
H6413 C6391 0.950 . S
C6414 C6415 1.349 . S
C6414 C6416 1.327 . S
C6414 H6439 0.950 . S
C6415 C6414 1.349 . S
C6415 C6431 1.349 . S
C6416 C6414 1.327 . S
C6416 C6435 1.429 . S
C6416 H6440 0.950 . S
C6417 C6434 1.574 . S
C6417 C6436 1.338 1_556 S
C6417 H6441 0.891 1_556 S
H6418 C6422 0.949 . S
C6419 C6420 1.349 . S
C6419 C6421 1.327 . S
C6419 H6442 0.950 . S
C6420 C6419 1.349 . S
C6420 C6432 1.349 . S
C6421 C6419 1.327 . S
C6421 C6437 1.429 . S
C6421 H6443 0.950 . S
C6422 H6418 0.949 . S
C6422 C6430 1.574 . S
C6422 C6438 1.368 . S
H6423 C6431 0.950 . S
H6424 C6429 0.950 . S
H6425 C6430 0.920 1_554 S
H6426 C6432 0.950 . S
H6427 C6433 0.950 . S
H6428 C6434 0.949 . S
C6429 H6424 0.950 . S
C6429 C6431 1.327 . S
C6429 C6435 1.429 . S
C6430 C6422 1.574 . S
C6430 H6425 0.920 1_556 S
C6430 C6436 1.335 1_556 S
C6431 C6415 1.349 . S
C6431 H6423 0.950 . S
C6431 C6429 1.327 . S
C6432 C6420 1.349 . S
C6432 H6426 0.950 . S
C6432 C6433 1.327 . S
C6433 H6427 0.950 . S
C6433 C6432 1.327 . S
C6433 C6437 1.429 . S
C6434 C6417 1.574 . S
C6434 H6428 0.949 . S
C6434 C6438 1.368 . S
C6435 C6416 1.429 . S
C6435 C6429 1.429 . S
C6435 C6436 1.611 . S
C6436 C6417 1.338 1_554 S
C6436 C6430 1.335 1_554 S
C6436 C6435 1.611 . S
C6437 C6421 1.429 . S
C6437 C6433 1.429 . S
C6437 C6438 1.523 . S
C6438 C6422 1.368 . S
C6438 C6434 1.368 . S
C6438 C6437 1.523 . S
H6439 C6414 0.950 . S
H6440 C6416 0.950 . S
H6441 C6417 0.891 1_554 S
H6442 C6419 0.950 . S
H6443 C6421 0.950 . S
C6444 C6445 1.349 . S
C6444 C6446 1.327 . S
C6444 H6469 0.950 . S
C6445 C6444 1.349 . S
C6445 C6461 1.349 . S
C6446 C6444 1.327 . S
C6446 C6465 1.429 . S
C6446 H6470 0.950 . S
C6447 C6464 1.574 . S
C6447 C6466 1.342 1_556 S
C6447 H6471 0.949 1_556 S
H6448 C6452 0.949 . S
C6449 C6450 1.349 . S
C6449 C6451 1.327 . S
C6449 H6472 0.950 . S
C6450 C6449 1.349 . S
C6450 C6462 1.349 . S
C6451 C6449 1.327 . S
C6451 C6467 1.429 . S
C6451 H6473 0.950 . S
C6452 H6448 0.949 . S
C6452 C6460 1.574 . S
C6452 C6468 1.368 . S
H6453 C6461 0.950 . S
H6454 C6459 0.950 . S
H6455 C6460 0.958 . S
H6456 C6462 0.950 . S
H6457 C6463 0.950 . S
H6458 C6464 0.949 . S
C6459 H6454 0.950 . S
C6459 C6461 1.327 . S
C6459 C6465 1.429 . S
C6460 C6452 1.574 . S
C6460 H6455 0.958 . S
C6460 C6466 1.331 1_556 S
C6461 C6445 1.349 . S
C6461 H6453 0.950 . S
C6461 C6459 1.327 . S
C6462 C6450 1.349 . S
C6462 H6456 0.950 . S
C6462 C6463 1.327 . S
C6463 H6457 0.950 . S
C6463 C6462 1.327 . S
C6463 C6467 1.429 . S
C6464 C6447 1.574 . S
C6464 H6458 0.949 . S
C6464 C6468 1.368 . S
C6465 C6446 1.429 . S
C6465 C6459 1.429 . S
C6465 C6466 1.611 . S
C6466 C6447 1.342 1_554 S
C6466 C6460 1.331 1_554 S
C6466 C6465 1.611 . S
C6467 C6451 1.429 . S
C6467 C6463 1.429 . S
C6467 C6468 1.523 . S
C6468 C6452 1.368 . S
C6468 C6464 1.368 . S
C6468 C6467 1.523 . S
H6469 C6444 0.950 . S
H6470 C6446 0.950 . S
H6471 C6447 0.949 1_554 S
H6472 C6449 0.950 . S
H6473 C6451 0.950 . S
C6474 C6475 1.349 . S
C6474 C6476 1.327 . S
C6474 H6499 0.950 . S
C6475 C6474 1.349 . S
C6475 C6491 1.349 . S
C6476 C6474 1.327 . S
C6476 C6495 1.429 . S
C6476 H6500 0.950 . S
C6477 C6494 1.574 . S
C6477 C6496 1.338 1_556 S
C6477 H6501 0.890 1_556 S
H6478 C6482 0.949 . S
C6479 C6480 1.349 . S
C6479 C6481 1.327 . S
C6479 H6502 0.950 . S
C6480 C6479 1.349 . S
C6480 C6492 1.349 . S
C6481 C6479 1.327 . S
C6481 C6497 1.429 . S
C6481 H6503 0.950 . S
C6482 H6478 0.949 . S
C6482 C6490 1.574 . S
C6482 C6498 1.368 . S
H6483 C6491 0.950 . S
H6484 C6489 0.950 . S
H6485 C6490 0.920 1_554 S
H6486 C6492 0.950 . S
H6487 C6493 0.950 . S
H6488 C6494 0.949 . S
C6489 H6484 0.950 . S
C6489 C6491 1.327 . S
C6489 C6495 1.429 . S
C6490 C6482 1.574 . S
C6490 H6485 0.920 1_556 S
C6490 C6496 1.335 1_556 S
C6491 C6475 1.349 . S
C6491 H6483 0.950 . S
C6491 C6489 1.327 . S
C6492 C6480 1.349 . S
C6492 H6486 0.950 . S
C6492 C6493 1.327 . S
C6493 H6487 0.950 . S
C6493 C6492 1.327 . S
C6493 C6497 1.429 . S
C6494 C6477 1.574 . S
C6494 H6488 0.949 . S
C6494 C6498 1.368 . S
C6495 C6476 1.429 . S
C6495 C6489 1.429 . S
C6495 C6496 1.611 . S
C6496 C6477 1.338 1_554 S
C6496 C6490 1.335 1_554 S
C6496 C6495 1.611 . S
C6497 C6481 1.429 . S
C6497 C6493 1.429 . S
C6497 C6498 1.523 . S
C6498 C6482 1.368 . S
C6498 C6494 1.368 . S
C6498 C6497 1.523 . S
H6499 C6474 0.950 . S
H6500 C6476 0.950 . S
H6501 C6477 0.890 1_554 S
H6502 C6479 0.950 . S
H6503 C6481 0.950 . S
C6504 C6505 1.349 . S
C6504 C6506 1.327 . S
C6504 H6529 0.950 . S
C6505 C6504 1.349 . S
C6505 C6521 1.349 . S
C6506 C6504 1.327 . S
C6506 C6525 1.429 . S
C6506 H6530 0.950 . S
C6507 C6524 1.574 . S
C6507 C6526 1.368 . S
C6507 H6531 0.949 . S
H6508 C6512 0.941 1_556 S
C6509 C6510 1.349 . S
C6509 C6511 1.327 . S
C6509 H6532 0.950 . S
C6510 C6509 1.349 . S
C6510 C6522 1.349 . S
C6511 C6509 1.327 . S
C6511 C6527 1.429 . S
C6511 H6533 0.950 . S
C6512 H6508 0.941 1_554 S
C6512 C6520 1.574 . S
C6512 C6528 1.334 1_554 S
H6513 C6521 0.950 . S
H6514 C6519 0.950 . S
H6515 C6520 0.949 . S
H6516 C6522 0.950 . S
H6517 C6523 0.950 . S
H6518 C6524 0.949 1_556 S
C6519 H6514 0.950 . S
C6519 C6521 1.327 . S
C6519 C6525 1.429 . S
C6520 C6512 1.574 . S
C6520 H6515 0.949 . S
C6520 C6526 1.368 . S
C6521 C6505 1.349 . S
C6521 H6513 0.950 . S
C6521 C6519 1.327 . S
C6522 C6510 1.349 . S
C6522 H6516 0.950 . S
C6522 C6523 1.327 . S
C6523 H6517 0.950 . S
C6523 C6522 1.327 . S
C6523 C6527 1.429 . S
C6524 C6507 1.574 . S
C6524 H6518 0.949 1_554 S
C6524 C6528 1.339 1_554 S
C6525 C6506 1.429 . S
C6525 C6519 1.429 . S
C6525 C6526 1.523 . S
C6526 C6507 1.368 . S
C6526 C6520 1.368 . S
C6526 C6525 1.523 . S
C6527 C6511 1.429 . S
C6527 C6523 1.429 . S
C6527 C6528 1.611 . S
C6528 C6512 1.334 1_556 S
C6528 C6524 1.339 1_556 S
C6528 C6527 1.611 . S
H6529 C6504 0.950 . S
H6530 C6506 0.950 . S
H6531 C6507 0.949 . S
H6532 C6509 0.950 . S
H6533 C6511 0.950 . S
C6534 C6535 1.349 . S
C6534 C6536 1.327 . S
C6534 H6559 0.950 . S
C6535 C6534 1.349 . S
C6535 C6551 1.349 . S
C6536 C6534 1.327 . S
C6536 C6555 1.429 . S
C6536 H6560 0.950 . S
C6537 C6554 1.574 . S
C6537 C6556 1.335 1_554 S
C6537 H6561 0.921 1_554 S
H6538 C6542 0.949 . S
C6539 C6540 1.349 . S
C6539 C6541 1.327 . S
C6539 H6562 0.950 . S
C6540 C6539 1.349 . S
C6540 C6552 1.349 . S
C6541 C6539 1.327 . S
C6541 C6557 1.429 . S
C6541 H6563 0.950 . S
C6542 H6538 0.949 . S
C6542 C6550 1.574 . S
C6542 C6558 1.368 . S
H6543 C6551 0.950 . S
H6544 C6549 0.950 . S
H6545 C6550 0.890 1_556 S
H6546 C6552 0.950 . S
H6547 C6553 0.950 . S
H6548 C6554 0.949 . S
C6549 H6544 0.950 . S
C6549 C6551 1.327 . S
C6549 C6555 1.429 . S
C6550 C6542 1.574 . S
C6550 H6545 0.890 1_554 S
C6550 C6556 1.338 1_554 S
C6551 C6535 1.349 . S
C6551 H6543 0.950 . S
C6551 C6549 1.327 . S
C6552 C6540 1.349 . S
C6552 H6546 0.950 . S
C6552 C6553 1.327 . S
C6553 H6547 0.950 . S
C6553 C6552 1.327 . S
C6553 C6557 1.429 . S
C6554 C6537 1.574 . S
C6554 H6548 0.949 . S
C6554 C6558 1.368 . S
C6555 C6536 1.429 . S
C6555 C6549 1.429 . S
C6555 C6556 1.611 . S
C6556 C6537 1.335 1_556 S
C6556 C6550 1.338 1_556 S
C6556 C6555 1.611 . S
C6557 C6541 1.429 . S
C6557 C6553 1.429 . S
C6557 C6558 1.523 . S
C6558 C6542 1.368 . S
C6558 C6554 1.368 . S
C6558 C6557 1.523 . S
H6559 C6534 0.950 . S
H6560 C6536 0.950 . S
H6561 C6537 0.921 1_556 S
H6562 C6539 0.950 . S
H6563 C6541 0.950 . S
C6564 C6565 1.349 . S
C6564 C6566 1.327 . S
C6564 H6589 0.950 . S
C6565 C6564 1.349 . S
C6565 C6581 1.349 . S
C6566 C6564 1.327 . S
C6566 C6585 1.429 . S
C6566 H6590 0.950 . S
C6567 C6584 1.574 . S
C6567 C6586 1.368 . S
C6567 H6591 0.949 . S
H6568 C6572 0.939 1_556 S
C6569 C6570 1.349 . S
C6569 C6571 1.327 . S
C6569 H6592 0.950 . S
C6570 C6569 1.349 . S
C6570 C6582 1.349 . S
C6571 C6569 1.327 . S
C6571 C6587 1.429 . S
C6571 H6593 0.950 . S
C6572 H6568 0.939 1_554 S
C6572 C6580 1.574 . S
C6572 C6588 1.334 1_554 S
H6573 C6581 0.950 . S
H6574 C6579 0.950 . S
H6575 C6580 0.949 . S
H6576 C6582 0.950 . S
H6577 C6583 0.950 . S
H6578 C6584 0.949 1_556 S
C6579 H6574 0.950 . S
C6579 C6581 1.327 . S
C6579 C6585 1.429 . S
C6580 C6572 1.574 . S
C6580 H6575 0.949 . S
C6580 C6586 1.368 . S
C6581 C6565 1.349 . S
C6581 H6573 0.950 . S
C6581 C6579 1.327 . S
C6582 C6570 1.349 . S
C6582 H6576 0.950 . S
C6582 C6583 1.327 . S
C6583 H6577 0.950 . S
C6583 C6582 1.327 . S
C6583 C6587 1.429 . S
C6584 C6567 1.574 . S
C6584 H6578 0.949 1_554 S
C6584 C6588 1.339 1_554 S
C6585 C6566 1.429 . S
C6585 C6579 1.429 . S
C6585 C6586 1.523 . S
C6586 C6567 1.368 . S
C6586 C6580 1.368 . S
C6586 C6585 1.523 . S
C6587 C6571 1.429 . S
C6587 C6583 1.429 . S
C6587 C6588 1.611 . S
C6588 C6572 1.334 1_556 S
C6588 C6584 1.339 1_556 S
C6588 C6587 1.611 . S
H6589 C6564 0.950 . S
H6590 C6566 0.950 . S
H6591 C6567 0.949 . S
H6592 C6569 0.950 . S
H6593 C6571 0.950 . S
C6594 C6595 1.349 . S
C6594 C6596 1.327 . S
C6594 H6619 0.950 . S
C6595 C6594 1.349 . S
C6595 C6611 1.349 . S
C6596 C6594 1.327 . S
C6596 C6615 1.429 . S
C6596 H6620 0.950 . S
C6597 C6614 1.574 . S
C6597 C6616 1.335 1_554 S
C6597 H6621 0.920 1_554 S
H6598 C6602 0.949 . S
C6599 C6600 1.349 . S
C6599 C6601 1.327 . S
C6599 H6622 0.950 . S
C6600 C6599 1.349 . S
C6600 C6612 1.349 . S
C6601 C6599 1.327 . S
C6601 C6617 1.429 . S
C6601 H6623 0.950 . S
C6602 H6598 0.949 . S
C6602 C6610 1.574 . S
C6602 C6618 1.368 . S
H6603 C6611 0.950 . S
H6604 C6609 0.950 . S
H6605 C6610 0.891 1_556 S
H6606 C6612 0.950 . S
H6607 C6613 0.950 . S
H6608 C6614 0.949 . S
C6609 H6604 0.950 . S
C6609 C6611 1.327 . S
C6609 C6615 1.429 . S
C6610 C6602 1.574 . S
C6610 H6605 0.891 1_554 S
C6610 C6616 1.338 1_554 S
C6611 C6595 1.349 . S
C6611 H6603 0.950 . S
C6611 C6609 1.327 . S
C6612 C6600 1.349 . S
C6612 H6606 0.950 . S
C6612 C6613 1.327 . S
C6613 H6607 0.950 . S
C6613 C6612 1.327 . S
C6613 C6617 1.429 . S
C6614 C6597 1.574 . S
C6614 H6608 0.949 . S
C6614 C6618 1.368 . S
C6615 C6596 1.429 . S
C6615 C6609 1.429 . S
C6615 C6616 1.611 . S
C6616 C6597 1.335 1_556 S
C6616 C6610 1.338 1_556 S
C6616 C6615 1.611 . S
C6617 C6601 1.429 . S
C6617 C6613 1.429 . S
C6617 C6618 1.523 . S
C6618 C6602 1.368 . S
C6618 C6614 1.368 . S
C6618 C6617 1.523 . S
H6619 C6594 0.950 . S
H6620 C6596 0.950 . S
H6621 C6597 0.920 1_556 S
H6622 C6599 0.950 . S
H6623 C6601 0.950 . S
C6624 C6625 1.349 . S
C6624 C6626 1.327 . S
C6624 H6649 0.950 . S
C6625 C6624 1.349 . S
C6625 C6641 1.349 . S
C6626 C6624 1.327 . S
C6626 C6645 1.429 . S
C6626 H6650 0.950 . S
C6627 C6644 1.574 . S
C6627 C6646 1.368 . S
C6627 H6651 0.949 . S
H6628 C6632 0.928 1_455 S
C6629 C6630 1.349 . S
C6629 C6631 1.327 . S
C6629 H6652 0.950 . S
C6630 C6629 1.349 . S
C6630 C6642 1.349 . S
C6631 C6629 1.327 . S
C6631 C6647 1.429 . S
C6631 H6653 0.950 . S
C6632 H6628 0.928 1_655 S
C6632 C6640 1.574 . S
C6632 C6648 1.335 1_655 S
H6633 C6641 0.950 . S
H6634 C6639 0.950 . S
H6635 C6640 0.949 . S
H6636 C6642 0.950 . S
H6637 C6643 0.950 . S
H6638 C6644 0.949 1_455 S
C6639 H6634 0.950 . S
C6639 C6641 1.327 . S
C6639 C6645 1.429 . S
C6640 C6632 1.574 . S
C6640 H6635 0.949 . S
C6640 C6646 1.368 . S
C6641 C6625 1.349 . S
C6641 H6633 0.950 . S
C6641 C6639 1.327 . S
C6642 C6630 1.349 . S
C6642 H6636 0.950 . S
C6642 C6643 1.327 . S
C6643 H6637 0.950 . S
C6643 C6642 1.327 . S
C6643 C6647 1.429 . S
C6644 C6627 1.574 . S
C6644 H6638 0.949 1_655 S
C6644 C6648 1.338 1_655 S
C6645 C6626 1.429 . S
C6645 C6639 1.429 . S
C6645 C6646 1.523 . S
C6646 C6627 1.368 . S
C6646 C6640 1.368 . S
C6646 C6645 1.523 . S
C6647 C6631 1.429 . S
C6647 C6643 1.429 . S
C6647 C6648 1.611 . S
C6648 C6632 1.335 1_455 S
C6648 C6644 1.338 1_455 S
C6648 C6647 1.611 . S
H6649 C6624 0.950 . S
H6650 C6626 0.950 . S
H6651 C6627 0.949 . S
H6652 C6629 0.950 . S
H6653 C6631 0.950 . S
C6654 C6655 1.349 . S
C6654 C6656 1.327 . S
C6654 H6679 0.950 . S
C6655 C6654 1.349 . S
C6655 C6671 1.349 . S
C6656 C6654 1.327 . S
C6656 C6675 1.429 . S
C6656 H6680 0.950 . S
C6657 C6674 1.574 . S
C6657 C6676 1.332 1_565 S
C6657 H6681 0.956 . S
H6658 C6662 0.949 . S
C6659 C6660 1.349 . S
C6659 C6661 1.327 . S
C6659 H6682 0.950 . S
C6660 C6659 1.349 . S
C6660 C6672 1.349 . S
C6661 C6659 1.327 . S
C6661 C6677 1.429 . S
C6661 H6683 0.950 . S
C6662 H6658 0.949 . S
C6662 C6670 1.574 . S
C6662 C6678 1.368 . S
H6663 C6671 0.950 . S
H6664 C6669 0.950 . S
H6665 C6670 0.949 1_545 S
H6666 C6672 0.950 . S
H6667 C6673 0.950 . S
H6668 C6674 0.949 . S
C6669 H6664 0.950 . S
C6669 C6671 1.327 . S
C6669 C6675 1.429 . S
C6670 C6662 1.574 . S
C6670 H6665 0.949 1_565 S
C6670 C6676 1.342 1_565 S
C6671 C6655 1.349 . S
C6671 H6663 0.950 . S
C6671 C6669 1.327 . S
C6672 C6660 1.349 . S
C6672 H6666 0.950 . S
C6672 C6673 1.327 . S
C6673 H6667 0.950 . S
C6673 C6672 1.327 . S
C6673 C6677 1.429 . S
C6674 C6657 1.574 . S
C6674 H6668 0.949 . S
C6674 C6678 1.368 . S
C6675 C6656 1.429 . S
C6675 C6669 1.429 . S
C6675 C6676 1.611 . S
C6676 C6657 1.332 1_545 S
C6676 C6670 1.342 1_545 S
C6676 C6675 1.611 . S
C6677 C6661 1.429 . S
C6677 C6673 1.429 . S
C6677 C6678 1.523 . S
C6678 C6662 1.368 . S
C6678 C6674 1.368 . S
C6678 C6677 1.523 . S
H6679 C6654 0.950 . S
H6680 C6656 0.950 . S
H6681 C6657 0.956 . S
H6682 C6659 0.950 . S
H6683 C6661 0.950 . S
C6684 C6685 1.349 . S
C6684 C6686 1.327 . S
C6684 H6709 0.950 . S
C6685 C6684 1.349 . S
C6685 C6701 1.349 . S
C6686 C6684 1.327 . S
C6686 C6705 1.429 . S
C6686 H6710 0.950 . S
C6687 C6704 1.574 . S
C6687 C6706 1.368 . S
C6687 H6711 0.949 . S
H6688 C6692 0.933 1_655 S
C6689 C6690 1.349 . S
C6689 C6691 1.327 . S
C6689 H6712 0.950 . S
C6690 C6689 1.349 . S
C6690 C6702 1.349 . S
C6691 C6689 1.327 . S
C6691 C6707 1.429 . S
C6691 H6713 0.950 . S
C6692 H6688 0.933 1_455 S
C6692 C6700 1.574 . S
C6692 C6708 1.334 1_455 S
H6693 C6701 0.950 . S
H6694 C6699 0.950 . S
H6695 C6700 0.949 . S
H6696 C6702 0.950 . S
H6697 C6703 0.950 . S
H6698 C6704 0.949 1_655 S
C6699 H6694 0.950 . S
C6699 C6701 1.327 . S
C6699 C6705 1.429 . S
C6700 C6692 1.574 . S
C6700 H6695 0.949 . S
C6700 C6706 1.368 . S
C6701 C6685 1.349 . S
C6701 H6693 0.950 . S
C6701 C6699 1.327 . S
C6702 C6690 1.349 . S
C6702 H6696 0.950 . S
C6702 C6703 1.327 . S
C6703 H6697 0.950 . S
C6703 C6702 1.327 . S
C6703 C6707 1.429 . S
C6704 C6687 1.574 . S
C6704 H6698 0.949 1_455 S
C6704 C6708 1.339 1_455 S
C6705 C6686 1.429 . S
C6705 C6699 1.429 . S
C6705 C6706 1.523 . S
C6706 C6687 1.368 . S
C6706 C6700 1.368 . S
C6706 C6705 1.523 . S
C6707 C6691 1.429 . S
C6707 C6703 1.429 . S
C6707 C6708 1.611 . S
C6708 C6692 1.334 1_655 S
C6708 C6704 1.339 1_655 S
C6708 C6707 1.611 . S
H6709 C6684 0.950 . S
H6710 C6686 0.950 . S
H6711 C6687 0.949 . S
H6712 C6689 0.950 . S
H6713 C6691 0.950 . S
C6714 C6715 1.349 . S
C6714 C6716 1.327 . S
C6714 H6739 0.950 . S
C6715 C6714 1.349 . S
C6715 C6731 1.349 . S
C6716 C6714 1.327 . S
C6716 C6735 1.429 . S
C6716 H6740 0.950 . S
C6717 C6734 1.574 . S
C6717 C6736 1.332 1_545 S
C6717 H6741 0.957 . S
H6718 C6722 0.949 . S
C6719 C6720 1.349 . S
C6719 C6721 1.327 . S
C6719 H6742 0.950 . S
C6720 C6719 1.349 . S
C6720 C6732 1.349 . S
C6721 C6719 1.327 . S
C6721 C6737 1.429 . S
C6721 H6743 0.950 . S
C6722 H6718 0.949 . S
C6722 C6730 1.574 . S
C6722 C6738 1.368 . S
H6723 C6731 0.950 . S
H6724 C6729 0.950 . S
H6725 C6730 0.949 1_565 S
H6726 C6732 0.950 . S
H6727 C6733 0.950 . S
H6728 C6734 0.949 . S
C6729 H6724 0.950 . S
C6729 C6731 1.327 . S
C6729 C6735 1.429 . S
C6730 C6722 1.574 . S
C6730 H6725 0.949 1_545 S
C6730 C6736 1.342 1_545 S
C6731 C6715 1.349 . S
C6731 H6723 0.950 . S
C6731 C6729 1.327 . S
C6732 C6720 1.349 . S
C6732 H6726 0.950 . S
C6732 C6733 1.327 . S
C6733 H6727 0.950 . S
C6733 C6732 1.327 . S
C6733 C6737 1.429 . S
C6734 C6717 1.574 . S
C6734 H6728 0.949 . S
C6734 C6738 1.368 . S
C6735 C6716 1.429 . S
C6735 C6729 1.429 . S
C6735 C6736 1.611 . S
C6736 C6717 1.332 1_565 S
C6736 C6730 1.342 1_565 S
C6736 C6735 1.611 . S
C6737 C6721 1.429 . S
C6737 C6733 1.429 . S
C6737 C6738 1.523 . S
C6738 C6722 1.368 . S
C6738 C6734 1.368 . S
C6738 C6737 1.523 . S
H6739 C6714 0.950 . S
H6740 C6716 0.950 . S
H6741 C6717 0.957 . S
H6742 C6719 0.950 . S
H6743 C6721 0.950 . S
C6744 C6745 1.349 . S
C6744 C6746 1.327 . S
C6744 H6769 0.950 . S
C6745 C6744 1.349 . S
C6745 C6761 1.349 . S
C6746 C6744 1.327 . S
C6746 C6765 1.429 . S
C6746 H6770 0.950 . S
C6747 C6764 1.574 . S
C6747 C6766 1.340 1_655 S
C6747 H6771 0.949 1_655 S
H6748 C6752 0.949 . S
C6749 C6750 1.349 . S
C6749 C6751 1.327 . S
C6749 H6772 0.950 . S
C6750 C6749 1.349 . S
C6750 C6762 1.349 . S
C6751 C6749 1.327 . S
C6751 C6767 1.429 . S
C6751 H6773 0.950 . S
C6752 H6748 0.949 . S
C6752 C6760 1.574 . S
C6752 C6768 1.368 . S
H6753 C6761 0.950 . S
H6754 C6759 0.950 . S
H6755 C6760 0.944 1_455 S
H6756 C6762 0.950 . S
H6757 C6763 0.950 . S
H6758 C6764 0.949 . S
C6759 H6754 0.950 . S
C6759 C6761 1.327 . S
C6759 C6765 1.429 . S
C6760 C6752 1.574 . S
C6760 H6755 0.944 1_655 S
C6760 C6766 1.334 1_655 S
C6761 C6745 1.349 . S
C6761 H6753 0.950 . S
C6761 C6759 1.327 . S
C6762 C6750 1.349 . S
C6762 H6756 0.950 . S
C6762 C6763 1.327 . S
C6763 H6757 0.950 . S
C6763 C6762 1.327 . S
C6763 C6767 1.429 . S
C6764 C6747 1.574 . S
C6764 H6758 0.949 . S
C6764 C6768 1.368 . S
C6765 C6746 1.429 . S
C6765 C6759 1.429 . S
C6765 C6766 1.611 . S
C6766 C6747 1.340 1_455 S
C6766 C6760 1.334 1_455 S
C6766 C6765 1.611 . S
C6767 C6751 1.429 . S
C6767 C6763 1.429 . S
C6767 C6768 1.523 . S
C6768 C6752 1.368 . S
C6768 C6764 1.368 . S
C6768 C6767 1.523 . S
H6769 C6744 0.950 . S
H6770 C6746 0.950 . S
H6771 C6747 0.949 1_455 S
H6772 C6749 0.950 . S
H6773 C6751 0.950 . S
C6774 C6775 1.349 . S
C6774 C6776 1.327 . S
C6774 H6799 0.950 . S
C6775 C6774 1.349 . S
C6775 C6791 1.349 . S
C6776 C6774 1.327 . S
C6776 C6795 1.429 . S
C6776 H6800 0.950 . S
C6777 C6794 1.574 . S
C6777 C6796 1.331 1_565 S
C6777 H6801 0.958 . S
H6778 C6782 0.949 . S
C6779 C6780 1.349 . S
C6779 C6781 1.327 . S
C6779 H6802 0.950 . S
C6780 C6779 1.349 . S
C6780 C6792 1.349 . S
C6781 C6779 1.327 . S
C6781 C6797 1.429 . S
C6781 H6803 0.950 . S
C6782 H6778 0.949 . S
C6782 C6790 1.574 . S
C6782 C6798 1.368 . S
H6783 C6791 0.950 . S
H6784 C6789 0.950 . S
H6785 C6790 0.949 1_545 S
H6786 C6792 0.950 . S
H6787 C6793 0.950 . S
H6788 C6794 0.949 . S
C6789 H6784 0.950 . S
C6789 C6791 1.327 . S
C6789 C6795 1.429 . S
C6790 C6782 1.574 . S
C6790 H6785 0.949 1_565 S
C6790 C6796 1.342 1_565 S
C6791 C6775 1.349 . S
C6791 H6783 0.950 . S
C6791 C6789 1.327 . S
C6792 C6780 1.349 . S
C6792 H6786 0.950 . S
C6792 C6793 1.327 . S
C6793 H6787 0.950 . S
C6793 C6792 1.327 . S
C6793 C6797 1.429 . S
C6794 C6777 1.574 . S
C6794 H6788 0.949 . S
C6794 C6798 1.368 . S
C6795 C6776 1.429 . S
C6795 C6789 1.429 . S
C6795 C6796 1.611 . S
C6796 C6777 1.331 1_545 S
C6796 C6790 1.342 1_545 S
C6796 C6795 1.611 . S
C6797 C6781 1.429 . S
C6797 C6793 1.429 . S
C6797 C6798 1.523 . S
C6798 C6782 1.368 . S
C6798 C6794 1.368 . S
C6798 C6797 1.523 . S
H6799 C6774 0.950 . S
H6800 C6776 0.950 . S
H6801 C6777 0.958 . S
H6802 C6779 0.950 . S
H6803 C6781 0.950 . S
C6804 C6805 1.349 . S
C6804 C6806 1.327 . S
C6804 H6829 0.950 . S
C6805 C6804 1.349 . S
C6805 C6821 1.349 . S
C6806 C6804 1.327 . S
C6806 C6825 1.429 . S
C6806 H6830 0.950 . S
C6807 C6824 1.574 . S
C6807 C6826 1.338 1_455 S
C6807 H6831 0.949 1_455 S
H6808 C6812 0.949 . S
C6809 C6810 1.349 . S
C6809 C6811 1.327 . S
C6809 H6832 0.950 . S
C6810 C6809 1.349 . S
C6810 C6822 1.349 . S
C6811 C6809 1.327 . S
C6811 C6827 1.429 . S
C6811 H6833 0.950 . S
C6812 H6808 0.949 . S
C6812 C6820 1.574 . S
C6812 C6828 1.368 . S
H6813 C6821 0.950 . S
H6814 C6819 0.950 . S
H6815 C6820 0.929 1_655 S
H6816 C6822 0.950 . S
H6817 C6823 0.950 . S
H6818 C6824 0.949 . S
C6819 H6814 0.950 . S
C6819 C6821 1.327 . S
C6819 C6825 1.429 . S
C6820 C6812 1.574 . S
C6820 H6815 0.929 1_455 S
C6820 C6826 1.335 1_455 S
C6821 C6805 1.349 . S
C6821 H6813 0.950 . S
C6821 C6819 1.327 . S
C6822 C6810 1.349 . S
C6822 H6816 0.950 . S
C6822 C6823 1.327 . S
C6823 H6817 0.950 . S
C6823 C6822 1.327 . S
C6823 C6827 1.429 . S
C6824 C6807 1.574 . S
C6824 H6818 0.949 . S
C6824 C6828 1.368 . S
C6825 C6806 1.429 . S
C6825 C6819 1.429 . S
C6825 C6826 1.611 . S
C6826 C6807 1.338 1_655 S
C6826 C6820 1.335 1_655 S
C6826 C6825 1.611 . S
C6827 C6811 1.429 . S
C6827 C6823 1.429 . S
C6827 C6828 1.523 . S
C6828 C6812 1.368 . S
C6828 C6824 1.368 . S
C6828 C6827 1.523 . S
H6829 C6804 0.950 . S
H6830 C6806 0.950 . S
H6831 C6807 0.949 1_655 S
H6832 C6809 0.950 . S
H6833 C6811 0.950 . S
C6834 C6835 1.349 . S
C6834 C6836 1.327 . S
C6834 H6859 0.950 . S
C6835 C6834 1.349 . S
C6835 C6851 1.349 . S
C6836 C6834 1.327 . S
C6836 C6855 1.429 . S
C6836 H6860 0.950 . S
C6837 C6854 1.574 . S
C6837 C6856 1.342 1_545 S
C6837 H6861 0.949 1_545 S
H6838 C6842 0.949 . S
C6839 C6840 1.349 . S
C6839 C6841 1.327 . S
C6839 H6862 0.950 . S
C6840 C6839 1.349 . S
C6840 C6852 1.349 . S
C6841 C6839 1.327 . S
C6841 C6857 1.429 . S
C6841 H6863 0.950 . S
C6842 H6838 0.949 . S
C6842 C6850 1.574 . S
C6842 C6858 1.368 . S
H6843 C6851 0.950 . S
H6844 C6849 0.950 . S
H6845 C6850 0.957 . S
H6846 C6852 0.950 . S
H6847 C6853 0.950 . S
H6848 C6854 0.949 . S
C6849 H6844 0.950 . S
C6849 C6851 1.327 . S
C6849 C6855 1.429 . S
C6850 C6842 1.574 . S
C6850 H6845 0.957 . S
C6850 C6856 1.332 1_545 S
C6851 C6835 1.349 . S
C6851 H6843 0.950 . S
C6851 C6849 1.327 . S
C6852 C6840 1.349 . S
C6852 H6846 0.950 . S
C6852 C6853 1.327 . S
C6853 H6847 0.950 . S
C6853 C6852 1.327 . S
C6853 C6857 1.429 . S
C6854 C6837 1.574 . S
C6854 H6848 0.949 . S
C6854 C6858 1.368 . S
C6855 C6836 1.429 . S
C6855 C6849 1.429 . S
C6855 C6856 1.611 . S
C6856 C6837 1.342 1_565 S
C6856 C6850 1.332 1_565 S
C6856 C6855 1.611 . S
C6857 C6841 1.429 . S
C6857 C6853 1.429 . S
C6857 C6858 1.523 . S
C6858 C6842 1.368 . S
C6858 C6854 1.368 . S
C6858 C6857 1.523 . S
H6859 C6834 0.950 . S
H6860 C6836 0.950 . S
H6861 C6837 0.949 1_565 S
H6862 C6839 0.950 . S
H6863 C6841 0.950 . S
C6864 C6865 1.349 . S
C6864 C6866 1.327 . S
C6864 H6889 0.950 . S
C6865 C6864 1.349 . S
C6865 C6881 1.349 . S
C6866 C6864 1.327 . S
C6866 C6885 1.429 . S
C6866 H6890 0.950 . S
C6867 C6884 1.574 . S
C6867 C6886 1.368 . S
C6867 H6891 0.949 . S
H6868 C6872 0.948 . S
C6869 C6870 1.349 . S
C6869 C6871 1.327 . S
C6869 H6892 0.950 . S
C6870 C6869 1.349 . S
C6870 C6882 1.349 . S
C6871 C6869 1.327 . S
C6871 C6887 1.429 . S
C6871 H6893 0.950 . S
C6872 H6868 0.948 . S
C6872 C6880 1.574 . S
C6872 C6888 1.332 1_565 S
H6873 C6881 0.950 . S
H6874 C6879 0.950 . S
H6875 C6880 0.949 . S
H6876 C6882 0.950 . S
H6877 C6883 0.950 . S
H6878 C6884 0.949 1_545 S
C6879 H6874 0.950 . S
C6879 C6881 1.327 . S
C6879 C6885 1.429 . S
C6880 C6872 1.574 . S
C6880 H6875 0.949 . S
C6880 C6886 1.368 . S
C6881 C6865 1.349 . S
C6881 H6873 0.950 . S
C6881 C6879 1.327 . S
C6882 C6870 1.349 . S
C6882 H6876 0.950 . S
C6882 C6883 1.327 . S
C6883 H6877 0.950 . S
C6883 C6882 1.327 . S
C6883 C6887 1.429 . S
C6884 C6867 1.574 . S
C6884 H6878 0.949 1_565 S
C6884 C6888 1.341 1_565 S
C6885 C6866 1.429 . S
C6885 C6879 1.429 . S
C6885 C6886 1.523 . S
C6886 C6867 1.368 . S
C6886 C6880 1.368 . S
C6886 C6885 1.523 . S
C6887 C6871 1.429 . S
C6887 C6883 1.429 . S
C6887 C6888 1.611 . S
C6888 C6872 1.332 1_545 S
C6888 C6884 1.341 1_545 S
C6888 C6887 1.611 . S
H6889 C6864 0.950 . S
H6890 C6866 0.950 . S
H6891 C6867 0.949 . S
H6892 C6869 0.950 . S
H6893 C6871 0.950 . S
C6894 C6895 1.349 . S
C6894 C6896 1.327 . S
C6894 H6919 0.950 . S
C6895 C6894 1.349 . S
C6895 C6911 1.349 . S
C6896 C6894 1.327 . S
C6896 C6915 1.429 . S
C6896 H6920 0.950 . S
C6897 C6914 1.574 . S
C6897 C6916 1.336 1_545 S
C6897 H6921 0.919 1_545 S
H6898 C6902 0.949 . S
C6899 C6900 1.349 . S
C6899 C6901 1.327 . S
C6899 H6922 0.950 . S
C6900 C6899 1.349 . S
C6900 C6912 1.349 . S
C6901 C6899 1.327 . S
C6901 C6917 1.429 . S
C6901 H6923 0.950 . S
C6902 H6898 0.949 . S
C6902 C6910 1.574 . S
C6902 C6918 1.368 . S
H6903 C6911 0.950 . S
H6904 C6909 0.950 . S
H6905 C6910 0.892 1_565 S
H6906 C6912 0.950 . S
H6907 C6913 0.950 . S
H6908 C6914 0.949 . S
C6909 H6904 0.950 . S
C6909 C6911 1.327 . S
C6909 C6915 1.429 . S
C6910 C6902 1.574 . S
C6910 H6905 0.892 1_545 S
C6910 C6916 1.338 1_545 S
C6911 C6895 1.349 . S
C6911 H6903 0.950 . S
C6911 C6909 1.327 . S
C6912 C6900 1.349 . S
C6912 H6906 0.950 . S
C6912 C6913 1.327 . S
C6913 H6907 0.950 . S
C6913 C6912 1.327 . S
C6913 C6917 1.429 . S
C6914 C6897 1.574 . S
C6914 H6908 0.949 . S
C6914 C6918 1.368 . S
C6915 C6896 1.429 . S
C6915 C6909 1.429 . S
C6915 C6916 1.611 . S
C6916 C6897 1.336 1_565 S
C6916 C6910 1.338 1_565 S
C6916 C6915 1.611 . S
C6917 C6901 1.429 . S
C6917 C6913 1.429 . S
C6917 C6918 1.523 . S
C6918 C6902 1.368 . S
C6918 C6914 1.368 . S
C6918 C6917 1.523 . S
H6919 C6894 0.950 . S
H6920 C6896 0.950 . S
H6921 C6897 0.919 1_565 S
H6922 C6899 0.950 . S
H6923 C6901 0.950 . S
C6924 C6925 1.349 . S
C6924 C6926 1.327 . S
C6924 H6949 0.950 . S
C6925 C6924 1.349 . S
C6925 C6941 1.349 . S
C6926 C6924 1.327 . S
C6926 C6945 1.429 . S
C6926 H6950 0.950 . S
C6927 C6944 1.574 . S
C6927 C6946 1.334 1_655 S
C6927 H6951 0.934 1_655 S
H6928 C6932 0.949 . S
C6929 C6930 1.349 . S
C6929 C6931 1.327 . S
C6929 H6952 0.950 . S
C6930 C6929 1.349 . S
C6930 C6942 1.349 . S
C6931 C6929 1.327 . S
C6931 C6947 1.429 . S
C6931 H6953 0.950 . S
C6932 H6928 0.949 . S
C6932 C6940 1.574 . S
C6932 C6948 1.368 . S
H6933 C6941 0.950 . S
H6934 C6939 0.950 . S
H6935 C6940 0.949 1_455 S
H6936 C6942 0.950 . S
H6937 C6943 0.950 . S
H6938 C6944 0.949 . S
C6939 H6934 0.950 . S
C6939 C6941 1.327 . S
C6939 C6945 1.429 . S
C6940 C6932 1.574 . S
C6940 H6935 0.949 1_655 S
C6940 C6946 1.339 1_655 S
C6941 C6925 1.349 . S
C6941 H6933 0.950 . S
C6941 C6939 1.327 . S
C6942 C6930 1.349 . S
C6942 H6936 0.950 . S
C6942 C6943 1.327 . S
C6943 H6937 0.950 . S
C6943 C6942 1.327 . S
C6943 C6947 1.429 . S
C6944 C6927 1.574 . S
C6944 H6938 0.949 . S
C6944 C6948 1.368 . S
C6945 C6926 1.429 . S
C6945 C6939 1.429 . S
C6945 C6946 1.611 . S
C6946 C6927 1.334 1_455 S
C6946 C6940 1.339 1_455 S
C6946 C6945 1.611 . S
C6947 C6931 1.429 . S
C6947 C6943 1.429 . S
C6947 C6948 1.523 . S
C6948 C6932 1.368 . S
C6948 C6944 1.368 . S
C6948 C6947 1.523 . S
H6949 C6924 0.950 . S
H6950 C6926 0.950 . S
H6951 C6927 0.934 1_455 S
H6952 C6929 0.950 . S
H6953 C6931 0.950 . S
C6954 C6955 1.349 . S
C6954 C6956 1.327 . S
C6954 H6979 0.950 . S
C6955 C6954 1.349 . S
C6955 C6971 1.349 . S
C6956 C6954 1.327 . S
C6956 C6975 1.429 . S
C6956 H6980 0.950 . S
C6957 C6974 1.574 . S
C6957 C6976 1.335 1_565 S
C6957 H6981 0.921 1_565 S
H6958 C6962 0.949 . S
C6959 C6960 1.349 . S
C6959 C6961 1.327 . S
C6959 H6982 0.950 . S
C6960 C6959 1.349 . S
C6960 C6972 1.349 . S
C6961 C6959 1.327 . S
C6961 C6977 1.429 . S
C6961 H6983 0.950 . S
C6962 H6958 0.949 . S
C6962 C6970 1.574 . S
C6962 C6978 1.368 . S
H6963 C6971 0.950 . S
H6964 C6969 0.950 . S
H6965 C6970 0.890 1_545 S
H6966 C6972 0.950 . S
H6967 C6973 0.950 . S
H6968 C6974 0.949 . S
C6969 H6964 0.950 . S
C6969 C6971 1.327 . S
C6969 C6975 1.429 . S
C6970 C6962 1.574 . S
C6970 H6965 0.890 1_565 S
C6970 C6976 1.338 1_565 S
C6971 C6955 1.349 . S
C6971 H6963 0.950 . S
C6971 C6969 1.327 . S
C6972 C6960 1.349 . S
C6972 H6966 0.950 . S
C6972 C6973 1.327 . S
C6973 H6967 0.950 . S
C6973 C6972 1.327 . S
C6973 C6977 1.429 . S
C6974 C6957 1.574 . S
C6974 H6968 0.949 . S
C6974 C6978 1.368 . S
C6975 C6956 1.429 . S
C6975 C6969 1.429 . S
C6975 C6976 1.611 . S
C6976 C6957 1.335 1_545 S
C6976 C6970 1.338 1_545 S
C6976 C6975 1.611 . S
C6977 C6961 1.429 . S
C6977 C6973 1.429 . S
C6977 C6978 1.523 . S
C6978 C6962 1.368 . S
C6978 C6974 1.368 . S
C6978 C6977 1.523 . S
H6979 C6954 0.950 . S
H6980 C6956 0.950 . S
H6981 C6957 0.921 1_545 S
H6982 C6959 0.950 . S
H6983 C6961 0.950 . S
C6984 C6985 1.349 . S
C6984 C6986 1.327 . S
C6984 H7009 0.950 . S
C6985 C6984 1.349 . S
C6985 C7001 1.349 . S
C6986 C6984 1.327 . S
C6986 C7005 1.429 . S
C6986 H7010 0.950 . S
C6987 C7004 1.574 . S
C6987 C7006 1.334 1_455 S
C6987 H7011 0.939 1_455 S
H6988 C6992 0.949 . S
C6989 C6990 1.349 . S
C6989 C6991 1.327 . S
C6989 H7012 0.950 . S
C6990 C6989 1.349 . S
C6990 C7002 1.349 . S
C6991 C6989 1.327 . S
C6991 C7007 1.429 . S
C6991 H7013 0.950 . S
C6992 H6988 0.949 . S
C6992 C7000 1.574 . S
C6992 C7008 1.368 . S
H6993 C7001 0.950 . S
H6994 C6999 0.950 . S
H6995 C7000 0.949 1_655 S
H6996 C7002 0.950 . S
H6997 C7003 0.950 . S
H6998 C7004 0.949 . S
C6999 H6994 0.950 . S
C6999 C7001 1.327 . S
C6999 C7005 1.429 . S
C7000 C6992 1.574 . S
C7000 H6995 0.949 1_455 S
C7000 C7006 1.339 1_455 S
C7001 C6985 1.349 . S
C7001 H6993 0.950 . S
C7001 C6999 1.327 . S
C7002 C6990 1.349 . S
C7002 H6996 0.950 . S
C7002 C7003 1.327 . S
C7003 H6997 0.950 . S
C7003 C7002 1.327 . S
C7003 C7007 1.429 . S
C7004 C6987 1.574 . S
C7004 H6998 0.949 . S
C7004 C7008 1.368 . S
C7005 C6986 1.429 . S
C7005 C6999 1.429 . S
C7005 C7006 1.611 . S
C7006 C6987 1.334 1_655 S
C7006 C7000 1.339 1_655 S
C7006 C7005 1.611 . S
C7007 C6991 1.429 . S
C7007 C7003 1.429 . S
C7007 C7008 1.523 . S
C7008 C6992 1.368 . S
C7008 C7004 1.368 . S
C7008 C7007 1.523 . S
H7009 C6984 0.950 . S
H7010 C6986 0.950 . S
H7011 C6987 0.939 1_655 S
H7012 C6989 0.950 . S
H7013 C6991 0.950 . S
C7014 C7015 1.349 . S
C7014 C7016 1.327 . S
C7014 H7039 0.950 . S
C7015 C7014 1.349 . S
C7015 C7031 1.349 . S
C7016 C7014 1.327 . S
C7016 C7035 1.429 . S
C7016 H7040 0.950 . S
C7017 C7034 1.574 . S
C7017 C7036 1.368 . S
C7017 H7041 0.949 . S
H7018 C7022 0.948 . S
C7019 C7020 1.349 . S
C7019 C7021 1.327 . S
C7019 H7042 0.950 . S
C7020 C7019 1.349 . S
C7020 C7032 1.349 . S
C7021 C7019 1.327 . S
C7021 C7037 1.429 . S
C7021 H7043 0.950 . S
C7022 H7018 0.948 . S
C7022 C7030 1.574 . S
C7022 C7038 1.332 1_545 S
H7023 C7031 0.950 . S
H7024 C7029 0.950 . S
H7025 C7030 0.949 . S
H7026 C7032 0.950 . S
H7027 C7033 0.950 . S
H7028 C7034 0.949 1_565 S
C7029 H7024 0.950 . S
C7029 C7031 1.327 . S
C7029 C7035 1.429 . S
C7030 C7022 1.574 . S
C7030 H7025 0.949 . S
C7030 C7036 1.368 . S
C7031 C7015 1.349 . S
C7031 H7023 0.950 . S
C7031 C7029 1.327 . S
C7032 C7020 1.349 . S
C7032 H7026 0.950 . S
C7032 C7033 1.327 . S
C7033 H7027 0.950 . S
C7033 C7032 1.327 . S
C7033 C7037 1.429 . S
C7034 C7017 1.574 . S
C7034 H7028 0.949 1_545 S
C7034 C7038 1.341 1_545 S
C7035 C7016 1.429 . S
C7035 C7029 1.429 . S
C7035 C7036 1.523 . S
C7036 C7017 1.368 . S
C7036 C7030 1.368 . S
C7036 C7035 1.523 . S
C7037 C7021 1.429 . S
C7037 C7033 1.429 . S
C7037 C7038 1.611 . S
C7038 C7022 1.332 1_565 S
C7038 C7034 1.341 1_565 S
C7038 C7037 1.611 . S
H7039 C7014 0.950 . S
H7040 C7016 0.950 . S
H7041 C7017 0.949 . S
H7042 C7019 0.950 . S
H7043 C7021 0.950 . S
C7044 C7045 1.349 . S
C7044 C7046 1.327 . S
C7044 H7069 0.950 . S
C7045 C7044 1.349 . S
C7045 C7061 1.349 . S
C7046 C7044 1.327 . S
C7046 C7065 1.429 . S
C7046 H7070 0.950 . S
C7047 C7064 1.574 . S
C7047 C7066 1.368 . S
C7047 H7071 0.949 . S
H7048 C7052 0.949 1_455 S
C7049 C7050 1.349 . S
C7049 C7051 1.327 . S
C7049 H7072 0.950 . S
C7050 C7049 1.349 . S
C7050 C7062 1.349 . S
C7051 C7049 1.327 . S
C7051 C7067 1.429 . S
C7051 H7073 0.950 . S
C7052 H7048 0.949 1_655 S
C7052 C7060 1.574 . S
C7052 C7068 1.342 1_655 S
H7053 C7061 0.950 . S
H7054 C7059 0.950 . S
H7055 C7060 0.949 . S
H7056 C7062 0.950 . S
H7057 C7063 0.950 . S
H7058 C7064 0.957 . S
C7059 H7054 0.950 . S
C7059 C7061 1.327 . S
C7059 C7065 1.429 . S
C7060 C7052 1.574 . S
C7060 H7055 0.949 . S
C7060 C7066 1.368 . S
C7061 C7045 1.349 . S
C7061 H7053 0.950 . S
C7061 C7059 1.327 . S
C7062 C7050 1.349 . S
C7062 H7056 0.950 . S
C7062 C7063 1.327 . S
C7063 H7057 0.950 . S
C7063 C7062 1.327 . S
C7063 C7067 1.429 . S
C7064 C7047 1.574 . S
C7064 H7058 0.957 . S
C7064 C7068 1.332 1_655 S
C7065 C7046 1.429 . S
C7065 C7059 1.429 . S
C7065 C7066 1.523 . S
C7066 C7047 1.368 . S
C7066 C7060 1.368 . S
C7066 C7065 1.523 . S
C7067 C7051 1.429 . S
C7067 C7063 1.429 . S
C7067 C7068 1.611 . S
C7068 C7052 1.342 1_455 S
C7068 C7064 1.332 1_455 S
C7068 C7067 1.611 . S
H7069 C7044 0.950 . S
H7070 C7046 0.950 . S
H7071 C7047 0.949 . S
H7072 C7049 0.950 . S
H7073 C7051 0.950 . S
C7074 C7075 1.349 . S
C7074 C7076 1.327 . S
C7074 H7099 0.950 . S
C7075 C7074 1.349 . S
C7075 C7091 1.349 . S
C7076 C7074 1.327 . S
C7076 C7095 1.429 . S
C7076 H7100 0.950 . S
C7077 C7094 1.574 . S
C7077 C7096 1.340 1_455 S
C7077 H7101 0.949 1_455 S
H7078 C7082 0.949 . S
C7079 C7080 1.349 . S
C7079 C7081 1.327 . S
C7079 H7102 0.950 . S
C7080 C7079 1.349 . S
C7080 C7092 1.349 . S
C7081 C7079 1.327 . S
C7081 C7097 1.429 . S
C7081 H7103 0.950 . S
C7082 H7078 0.949 . S
C7082 C7090 1.574 . S
C7082 C7098 1.368 . S
H7083 C7091 0.950 . S
H7084 C7089 0.950 . S
H7085 C7090 0.951 1_655 S
H7086 C7092 0.950 . S
H7087 C7093 0.950 . S
H7088 C7094 0.949 . S
C7089 H7084 0.950 . S
C7089 C7091 1.327 . S
C7089 C7095 1.429 . S
C7090 C7082 1.574 . S
C7090 H7085 0.951 1_455 S
C7090 C7096 1.333 1_455 S
C7091 C7075 1.349 . S
C7091 H7083 0.950 . S
C7091 C7089 1.327 . S
C7092 C7080 1.349 . S
C7092 H7086 0.950 . S
C7092 C7093 1.327 . S
C7093 H7087 0.950 . S
C7093 C7092 1.327 . S
C7093 C7097 1.429 . S
C7094 C7077 1.574 . S
C7094 H7088 0.949 . S
C7094 C7098 1.368 . S
C7095 C7076 1.429 . S
C7095 C7089 1.429 . S
C7095 C7096 1.611 . S
C7096 C7077 1.340 1_655 S
C7096 C7090 1.333 1_655 S
C7096 C7095 1.611 . S
C7097 C7081 1.429 . S
C7097 C7093 1.429 . S
C7097 C7098 1.523 . S
C7098 C7082 1.368 . S
C7098 C7094 1.368 . S
C7098 C7097 1.523 . S
H7099 C7074 0.950 . S
H7100 C7076 0.950 . S
H7101 C7077 0.949 1_655 S
H7102 C7079 0.950 . S
H7103 C7081 0.950 . S
C1345 C8 1.114 . S
C1350 C442 1.134 . S
C1375 C22 1.114 . S
C1380 C400 1.134 . S
C1405 C414 1.134 . S
C1410 C36 1.114 . S
C1435 C428 1.134 . S
C1440 C50 1.114 . S
C1465 C358 1.134 . S
C1470 C64 1.114 . S
C1495 C372 1.134 . S
C1500 C78 1.114 . S
C1525 C92 1.114 . S
C1530 C386 1.134 . S
C1555 C344 1.134 . S
C1560 C106 1.114 . S
C1585 C120 1.114 . S
C1590 C624 1.134 . S
C1615 C134 1.114 . S
C1620 C582 1.134 . S
C1645 C148 1.114 . S
C1650 C596 1.134 . S
C1675 C162 1.114 . S
C1680 C610 1.134 . S
C1705 C176 1.114 . S
C1710 C666 1.134 . S
C1735 C190 1.114 . S
C1740 C638 1.134 . S
C1765 C204 1.114 . S
C1770 C652 1.134 . S
C1795 C568 1.134 . S
C1800 C218 1.114 . S
C1825 C232 1.114 . S
C1830 C554 1.134 . S
C1855 C470 1.134 . S
C1860 C246 1.114 . S
C1885 C484 1.134 . S
C1890 C260 1.114 . S
C1915 C274 1.114 . S
C1920 C498 1.134 . S
C1945 C456 1.134 . S
C1950 C288 1.114 . S
C1975 C526 1.134 . S
C1980 C302 1.114 . S
C2005 C316 1.114 . S
C2010 C540 1.134 . S
C2035 C330 1.114 . S
C2040 C512 1.134 . S
C2065 C1114 1.134 . S
C2070 C680 1.114 . S
C2095 C1072 1.134 . S
C2100 C694 1.114 . S
C2125 C708 1.114 . S
C2130 C1086 1.134 . S
C2155 C1100 1.134 . S
C2160 C722 1.114 . S
C2185 C736 1.114 . S
C2190 C1030 1.134 . S
C2215 C750 1.114 . S
C2220 C1044 1.134 . S
C2245 C1058 1.134 . S
C2250 C764 1.114 . S
C2275 C1016 1.134 . S
C2280 C778 1.114 . S
C2305 C1296 1.134 . S
C2310 C792 1.114 . S
C2335 C1254 1.134 . S
C2340 C806 1.114 . S
C2365 C820 1.114 . S
C2370 C1268 1.134 . S
C2395 C834 1.114 . S
C2400 C1282 1.134 . S
C2425 C1338 1.134 . S
C2430 C848 1.114 . S
C2455 C1310 1.134 . S
C2460 C862 1.114 . S
C2485 C1324 1.134 . S
C2490 C876 1.114 . S
C2515 C890 1.114 . S
C2520 C1240 1.134 . S
C2545 C1226 1.134 . S
C2550 C904 1.114 . S
C2575 C918 1.114 . S
C2580 C1142 1.134 . S
C2605 C1156 1.134 . S
C2610 C932 1.114 . S
C2635 C1170 1.134 . S
C2640 C946 1.114 . S
C2665 C1128 1.134 . S
C2670 C960 1.114 . S
C2695 C974 1.114 . S
C2700 C1198 1.134 . S
C2725 C988 1.114 . S
C2730 C1212 1.134 . S
C2755 C1184 1.134 . S
C2760 C1002 1.114 . S
C2785 C3 1.856 . S
C2790 C955 1.856 . S
C2815 C17 1.856 . S
C2820 C913 1.856 . S
C2845 C31 1.856 . S
C2850 C927 1.856 . S
C2875 C45 1.856 . S
C2880 C941 1.856 . S
C2905 C997 1.856 . S
C2910 C59 1.856 . S
C2935 C73 1.856 . S
C2940 C969 1.856 . S
C2965 C983 1.856 . S
C2970 C87 1.856 . S
C2995 C101 1.856 . S
C3000 C899 1.856 . S
C3025 C885 1.856 . S
C3030 C115 1.856 . S
C3055 C129 1.856 . S
C3060 C843 1.856 . S
C3085 C857 1.856 . S
C3090 C143 1.856 . S
C3115 C157 1.856 . S
C3120 C871 1.856 . S
C3145 C171 1.856 . S
C3150 C801 1.856 . S
C3175 C185 1.856 . S
C3180 C815 1.856 . S
C3205 C829 1.856 . S
C3210 C199 1.856 . S
C3235 C787 1.856 . S
C3240 C213 1.856 . S
C3265 C227 1.856 . S
C3270 C773 1.856 . S
C3295 C241 1.856 . S
C3300 C689 1.856 . S
C3325 C255 1.856 . S
C3330 C703 1.856 . S
C3355 C269 1.856 . S
C3360 C717 1.856 . S
C3385 C283 1.856 . S
C3390 C675 1.856 . S
C3415 C745 1.856 . S
C3420 C297 1.856 . S
C3445 C759 1.856 . S
C3450 C311 1.856 . S
C3475 C325 1.856 . S
C3480 C731 1.856 . S
C3505 C345 0.999 . S
C3510 C1297 0.999 . S
C3535 C359 0.999 . S
C3540 C1255 0.999 . S
C3565 C373 0.999 . S
C3570 C1269 0.999 . S
C3595 C387 0.999 . S
C3600 C1283 0.999 . S
C3625 C401 0.999 . S
C3630 C1339 0.999 . S
C3655 C1311 0.999 . S
C3660 C415 0.999 . S
C3685 C429 0.999 . S
C3690 C1325 0.999 . S
C3715 C443 0.999 . S
C3720 C1241 0.999 . S
C3745 C1227 0.999 . S
C3750 C457 0.999 . S
C3775 C1185 0.999 . S
C3780 C471 0.999 . S
C3805 C1199 0.999 . S
C3810 C485 0.999 . S
C3835 C1213 0.999 . S
C3840 C499 0.999 . S
C3865 C513 0.999 . S
C3870 C1143 0.999 . S
C3895 C527 0.999 . S
C3900 C1157 0.999 . S
C3925 C541 0.999 . S
C3930 C1171 0.999 . S
C3955 C1129 0.999 . S
C3960 C555 0.999 . S
C3985 C1115 0.999 . S
C3990 C569 0.999 . S
C4015 C583 0.999 . S
C4020 C1031 0.999 . S
C4045 C1045 0.999 . S
C4050 C597 0.999 . S
C4075 C1059 0.999 . S
C4080 C611 0.999 . S
C4105 C625 0.999 . S
C4110 C1017 0.999 . S
C4135 C639 0.999 . S
C4140 C1087 0.999 . S
C4165 C1101 0.999 . S
C4170 C653 0.999 . S
C4195 C667 0.999 . S
C4200 C1073 0.999 . S
C4225 C9 1.472 . S
C4230 C395 1.501 . S
C4255 C23 1.472 . S
C4260 C409 1.501 . S
C4285 C37 1.472 . S
C4290 C423 1.501 . S
C4315 C51 1.472 . S
C4320 C437 1.501 . S
C4345 C339 1.501 . S
C4350 C65 1.472 . S
C4375 C79 1.472 . S
C4380 C353 1.501 . S
C4405 C367 1.501 . S
C4410 C93 1.472 . S
C4435 C381 1.501 . S
C4440 C107 1.472 . S
C4465 C121 1.472 . S
C4470 C535 1.501 . S
C4495 C549 1.501 . S
C4500 C135 1.472 . S
C4525 C149 1.472 . S
C4530 C507 1.501 . S
C4555 C163 1.472 . S
C4560 C521 1.501 . S
C4585 C177 1.472 . S
C4590 C479 1.501 . S
C4615 C191 1.472 . S
C4620 C493 1.501 . S
C4645 C205 1.472 . S
C4650 C451 1.501 . S
C4675 C465 1.501 . S
C4680 C219 1.472 . S
C4705 C233 1.472 . S
C4710 C633 1.501 . S
C4735 C247 1.472 . S
C4740 C605 1.501 . S
C4765 C619 1.501 . S
C4770 C261 1.472 . S
C4795 C275 1.472 . S
C4800 C577 1.501 . S
C4825 C591 1.501 . S
C4830 C289 1.472 . S
C4855 C303 1.472 . S
C4860 C563 1.501 . S
C4885 C661 1.501 . S
C4890 C317 1.472 . S
C4915 C647 1.501 . S
C4920 C331 1.472 . S
C4945 C681 1.472 . S
C4950 C1067 1.501 . S
C4975 C695 1.472 . S
C4980 C1081 1.501 . S
C5005 C709 1.472 . S
C5010 C1095 1.501 . S
C5035 C1109 1.501 . S
C5040 C723 1.472 . S
C5065 C737 1.472 . S
C5070 C1011 1.501 . S
C5095 C751 1.472 . S
C5100 C1025 1.501 . S
C5125 C765 1.472 . S
C5130 C1039 1.501 . S
C5155 C779 1.472 . S
C5160 C1053 1.501 . S
C5185 C793 1.472 . S
C5190 C1207 1.501 . S
C5215 C1221 1.501 . S
C5220 C807 1.472 . S
C5245 C1179 1.501 . S
C5250 C821 1.472 . S
C5275 C1193 1.501 . S
C5280 C835 1.472 . S
C5305 C849 1.472 . S
C5310 C1151 1.501 . S
C5335 C1165 1.501 . S
C5340 C863 1.472 . S
C5365 C877 1.472 . S
C5370 C1123 1.501 . S
C5395 C1137 1.501 . S
C5400 C891 1.472 . S
C5425 C1305 1.501 . S
C5430 C905 1.472 . S
C5455 C1277 1.501 . S
C5460 C919 1.472 . S
C5485 C933 1.472 . S
C5490 C1291 1.501 . S
C5515 C947 1.472 . S
C5520 C1249 1.501 . S
C5545 C1263 1.501 . S
C5550 C961 1.472 . S
C5575 C975 1.472 . S
C5580 C1235 1.501 . S
C5605 C1333 1.501 . S
C5610 C989 1.472 . S
C5635 C1319 1.501 . S
C5640 C1003 1.472 . S
C5665 C371 1.363 . S
C5670 C7 1.361 . S
C5695 C21 1.361 . S
C5700 C385 1.363 . S
C5725 C343 1.363 . S
C5730 C35 1.361 . S
C5755 C49 1.361 . S
C5760 C357 1.363 . S
C5785 C427 1.363 . S
C5790 C63 1.361 . S
C5815 C441 1.363 . S
C5820 C77 1.361 . S
C5845 C91 1.361 . S
C5850 C399 1.363 . S
C5875 C413 1.363 . S
C5880 C105 1.361 . S
C5905 C119 1.361 . S
C5910 C511 1.363 . S
C5935 C133 1.361 . S
C5940 C525 1.363 . S
C5965 C539 1.363 . S
C5970 C147 1.361 . S
C5995 C161 1.361 . S
C6000 C553 1.363 . S
C6025 C175 1.361 . S
C6030 C455 1.363 . S
C6055 C469 1.363 . S
C6060 C189 1.361 . S
C6085 C483 1.363 . S
C6090 C203 1.361 . S
C6115 C497 1.363 . S
C6120 C217 1.361 . S
C6145 C231 1.361 . S
C6150 C609 1.363 . S
C6175 C637 1.363 . S
C6180 C245 1.361 . S
C6205 C259 1.361 . S
C6210 C651 1.363 . S
C6235 C567 1.363 . S
C6240 C273 1.361 . S
C6265 C665 1.363 . S
C6270 C287 1.361 . S
C6295 C581 1.363 . S
C6300 C301 1.361 . S
C6325 C315 1.361 . S
C6330 C595 1.363 . S
C6355 C329 1.361 . S
C6360 C623 1.363 . S
C6385 C679 1.361 . S
C6390 C1043 1.363 . S
C6415 C1057 1.363 . S
C6420 C693 1.361 . S
C6445 C1015 1.363 . S
C6450 C707 1.361 . S
C6475 C1029 1.363 . S
C6480 C721 1.361 . S
C6505 C735 1.361 . S
C6510 C1099 1.363 . S
C6535 C1113 1.363 . S
C6540 C749 1.361 . S
C6565 C763 1.361 . S
C6570 C1071 1.363 . S
C6595 C1085 1.363 . S
C6600 C777 1.361 . S
C6625 C791 1.361 . S
C6630 C1183 1.363 . S
C6655 C1197 1.363 . S
C6660 C805 1.361 . S
C6685 C819 1.361 . S
C6690 C1211 1.363 . S
C6715 C1225 1.363 . S
C6720 C833 1.361 . S
C6745 C1127 1.363 . S
C6750 C847 1.361 . S
C6775 C1141 1.363 . S
C6780 C861 1.361 . S
C6805 C1155 1.363 . S
C6810 C875 1.361 . S
C6835 C1169 1.363 . S
C6840 C889 1.361 . S
C6865 C903 1.361 . S
C6870 C1281 1.363 . S
C6895 C1309 1.363 . S
C6900 C917 1.361 . S
C6925 C1323 1.363 . S
C6930 C931 1.361 . S
C6955 C1239 1.363 . S
C6960 C945 1.361 . S
C6985 C1337 1.363 . S
C6990 C959 1.361 . S
C7015 C973 1.361 . S
C7020 C1253 1.363 . S
C7045 C987 1.361 . S
C7050 C1267 1.363 . S
C7075 C1295 1.363 . S
C7080 C1001 1.361 . S
