# Generated by pormake.
# Topology qtz-e, (6)-cn, num edge types: 1
# Building blocks:
#     Node 0, Type 0, BuildingBlock: UKALOJ_clean_sbu_0, # of connection points: 6
#     Node 1, Type 0, BuildingBlock: UKALOJ_clean_sbu_0, # of connection points: 6
#     Node 2, Type 0, BuildingBlock: UKALOJ_clean_sbu_0, # of connection points: 6
#     Node 3, Type 0, BuildingBlock: UKALOJ_clean_sbu_0, # of connection points: 6
#     Node 4, Type 0, BuildingBlock: UKALOJ_clean_sbu_0, # of connection points: 6
#     Node 5, Type 0, BuildingBlock: UKALOJ_clean_sbu_0, # of connection points: 6
#     Edge 6, Type (0, 0), BuildingBlock: XUDNAN_clean_linker_2, # of connection points: 2
#     Edge 7, Type (0, 0), BuildingBlock: XUDNAN_clean_linker_2, # of connection points: 2
#     Edge 8, Type (0, 0), BuildingBlock: XUDNAN_clean_linker_2, # of connection points: 2
#     Edge 9, Type (0, 0), BuildingBlock: XUDNAN_clean_linker_2, # of connection points: 2
#     Edge 10, Type (0, 0), BuildingBlock: XUDNAN_clean_linker_2, # of connection points: 2
#     Edge 11, Type (0, 0), BuildingBlock: XUDNAN_clean_linker_2, # of connection points: 2
#     Edge 12, Type (0, 0), BuildingBlock: XUDNAN_clean_linker_2, # of connection points: 2
#     Edge 13, Type (0, 0), BuildingBlock: XUDNAN_clean_linker_2, # of connection points: 2
#     Edge 14, Type (0, 0), BuildingBlock: XUDNAN_clean_linker_2, # of connection points: 2
#     Edge 15, Type (0, 0), BuildingBlock: XUDNAN_clean_linker_2, # of connection points: 2
#     Edge 16, Type (0, 0), BuildingBlock: XUDNAN_clean_linker_2, # of connection points: 2
#     Edge 17, Type (0, 0), BuildingBlock: XUDNAN_clean_linker_2, # of connection points: 2
#     Edge 18, Type (0, 0), BuildingBlock: XUDNAN_clean_linker_2, # of connection points: 2
#     Edge 19, Type (0, 0), BuildingBlock: XUDNAN_clean_linker_2, # of connection points: 2
#     Edge 20, Type (0, 0), BuildingBlock: XUDNAN_clean_linker_2, # of connection points: 2
#     Edge 21, Type (0, 0), BuildingBlock: XUDNAN_clean_linker_2, # of connection points: 2
#     Edge 22, Type (0, 0), BuildingBlock: XUDNAN_clean_linker_2, # of connection points: 2
#     Edge 23, Type (0, 0), BuildingBlock: XUDNAN_clean_linker_2, # of connection points: 2
# Relax obj value: 0.464
# Max RMSD: 0.263
# Mean RMSD: 0.263
data_MOF--net-qtz-e--node1-UKALOJ_clean_sbu_0--edge1-XUDNAN_clean_linker_2
_symmetry_space_group_name_H-M    P1
_symmetry_Int_Tables_number       1
_symmetry_cell_setting            triclinic
loop_
_symmetry_equiv_pos_as_xyz
'x, y, z'
_cell_length_a     27.451658
_cell_length_b     27.49215
_cell_length_c     37.38279
_cell_angle_alpha  89.899047
_cell_angle_beta   89.988779
_cell_angle_gamma 119.67865
loop_
_atom_site_label
_atom_site_type_symbol
_atom_site_fract_x
_atom_site_fract_y
_atom_site_fract_z
_atom_type_partial_charge
Zn0 Zn 0.22229 0.4174 0.01176 0.0
O1 O 0.15429 0.43136 0.01097 0.0
C2 C 0.16322 0.3136 0.05185 0.0
Zn3 Zn 0.17754 0.34747 0.97449 0.0
C4 C 0.10775 0.3967 -0.00301 0.0
O5 O 0.10263 0.35319 0.98134 0.0
C6 C 0.29689 0.37709 0.98853 0.0
O7 O 0.19807 0.40009 0.93032 0.0
O8 O 0.25428 0.46802 0.96595 0.0
N9 N 0.13666 0.27825 0.9424 0.0
C10 C 0.15113 0.26719 0.91023 0.0
C11 C 0.07849 0.19267 0.92763 0.0
N12 N 0.09131 0.23196 0.95309 0.0
N13 N 0.11527 0.21404 0.90041 0.0
C14 C 0.25773 0.51267 0.06747 0.0
C15 C 0.3446 0.56317 0.05455 0.0
N16 N 0.26927 0.48654 0.04125 0.0
N17 N 0.32324 0.51775 0.03342 0.0
N18 N 0.30439 0.56072 0.07623 0.0
H19 H 0.18021 0.51296 0.06482 0.0
H20 H 0.20104 0.50762 0.10948 0.0
H21 H 0.17369 0.44782 0.07999 0.0
C22 C 0.19994 0.494 0.08149 0.0
C23 C 0.1987 0.30905 0.88749 0.0
H24 H 0.1855 0.33689 0.87437 0.0
H25 H 0.21018 0.28867 0.86613 0.0
H26 H 0.23617 0.33544 0.90381 0.0
O27 O 0.25657 0.34702 0.96754 0.0
O28 O 0.28952 0.4052 0.01235 0.0
C29 C 0.2351 0.45076 0.93486 0.0
O30 O 0.19048 0.36611 0.05718 0.0
O31 O 0.15482 0.29466 0.02009 0.0
Zn32 Zn 0.8242 0.18982 0.3107 0.0
O33 O 0.786 0.2148 0.27258 0.0
C34 C 0.91756 0.30903 0.32024 0.0
Zn35 Zn 0.8117 0.2357 0.35526 0.0
C36 C 0.77 0.24848 0.28309 0.0
O37 O 0.77715 0.26457 0.31546 0.0
C38 C 0.86296 0.17406 0.38375 0.0
O39 O 0.73327 0.16608 0.36301 0.0
O40 O 0.74407 0.11766 0.32012 0.0
N41 N 0.79591 0.28036 0.39199 0.0
C42 C 0.76311 0.2646 0.42125 0.0
C43 C 0.79652 0.35263 0.41501 0.0
N44 N 0.81693 0.33512 0.38824 0.0
N45 N 0.76251 0.309 0.4359 0.0
C46 C 0.8748 0.16508 0.24378 0.0
C47 C 0.86449 0.08499 0.25638 0.0
N48 N 0.84348 0.14721 0.27373 0.0
N49 N 0.8364 0.09699 0.28123 0.0
N50 N 0.88841 0.12688 0.23236 0.0
H51 H 0.87158 0.24125 0.23487 0.0
H52 H 0.89986 0.22014 0.19824 0.0
H53 H 0.94105 0.24951 0.23769 0.0
C54 C 0.89771 0.22235 0.22779 0.0
C55 C 0.73326 0.20634 0.43623 0.0
H56 H 0.69087 0.1832 0.4242 0.0
H57 H 0.72838 0.20721 0.46565 0.0
H58 H 0.75635 0.18383 0.43004 0.0
O59 O 0.84594 0.20694 0.39424 0.0
O60 O 0.86037 0.16204 0.35072 0.0
C61 C 0.71409 0.1217 0.34463 0.0
O62 O 0.90307 0.2665 0.30036 0.0
O63 O 0.88789 0.30459 0.34719 0.0
Zn64 Zn 0.57935 0.79332 0.67991 0.0
O65 O 0.56255 0.71032 0.67668 0.0
C66 C 0.68959 0.82791 0.70792 0.0
Zn67 Zn 0.63752 0.81517 0.63416 0.0
C68 C 0.58641 0.6952 0.65373 0.0
O69 O 0.62279 0.73137 0.63264 0.0
C70 C 0.62019 0.90952 0.65801 0.0
O71 O 0.57476 0.79214 0.59533 0.0
O72 O 0.5181 0.77533 0.6408 0.0
N73 N 0.699 0.83919 0.59616 0.0
C74 C 0.71461 0.87683 0.56936 0.0
C75 C 0.77809 0.85411 0.57426 0.0
N76 N 0.73826 0.82469 0.59891 0.0
N77 N 0.76375 0.8866 0.55516 0.0
C78 C 0.49774 0.73477 0.74288 0.0
C79 C 0.44546 0.77172 0.73873 0.0
N80 N 0.51901 0.77358 0.71687 0.0
N81 N 0.48691 0.79693 0.71459 0.0
N82 N 0.45168 0.73294 0.75693 0.0
H83 H 0.49441 0.65606 0.73601 0.0
H84 H 0.51204 0.68347 0.78054 0.0
H85 H 0.56362 0.7136 0.74535 0.0
C86 C 0.51847 0.69496 0.75181 0.0
C87 C 0.68479 0.90797 0.55901 0.0
H88 H 0.63951 0.88327 0.56519 0.0
H89 H 0.69037 0.91811 0.53003 0.0
H90 H 0.70329 0.94803 0.57396 0.0
O91 O 0.64634 0.8976 0.63466 0.0
O92 O 0.59396 0.87454 0.68257 0.0
C93 C 0.52597 0.77676 0.60731 0.0
O94 O 0.63973 0.8103 0.7186 0.0
O95 O 0.70052 0.83613 0.67463 0.0
Zn96 Zn 0.76075 0.57201 0.03267 0.0
O97 O 0.81624 0.54049 0.03478 0.0
C98 C 0.8448 0.6859 0.05048 0.0
Zn99 Zn 0.80484 0.6157 0.98395 0.0
C100 C 0.85951 0.55765 0.01523 0.0
O101 O 0.87085 0.59637 0.99242 0.0
C102 C 0.69619 0.61506 -0.00133 0.0
O103 O 0.76363 0.54379 0.9531 0.0
O104 O 0.70862 0.50434 -0.0007 0.0
N105 N 0.84515 0.66439 0.94028 0.0
C106 C 0.82539 0.66659 0.90769 0.0
C107 C 0.90533 0.73981 0.91307 0.0
N108 N 0.8952 0.70961 0.94339 0.0
N109 N 0.86205 0.71375 0.89025 0.0
C110 C 0.72969 0.50434 0.10345 0.0
C111 C 0.64057 0.46601 0.1025 0.0
N112 N 0.71599 0.52506 0.07502 0.0
N113 N 0.66067 0.50184 0.07476 0.0
N114 N 0.68307 0.46716 0.12112 0.0
H115 H 0.81939 0.55802 0.10152 0.0
H116 H 0.79504 0.48386 0.0984 0.0
H117 H 0.79419 0.51422 0.14069 0.0
C118 C 0.78801 0.51604 0.11155 0.0
C119 C 0.77173 0.62107 0.89207 0.0
H120 H 0.77485 0.58256 0.88943 0.0
H121 H 0.76336 0.63209 0.86511 0.0
H122 H 0.73603 0.61145 0.90991 0.0
O123 O 0.73388 0.6283 0.97487 0.0
O124 O 0.70441 0.60072 0.02925 0.0
C125 C 0.72102 0.5023 0.96686 0.0
O126 O 0.81248 0.63948 0.06565 0.0
O127 O 0.84693 0.6884 0.01652 0.0
Zn128 Zn 0.21993 0.78308 0.33338 0.0
O129 O 0.2947 0.85491 0.34296 0.0
C130 C 0.16148 0.83447 0.36843 0.0
Zn131 Zn 0.19985 0.83075 0.29383 0.0
C132 C 0.31013 0.90119 0.32739 0.0
O133 O 0.27854 0.90549 0.30414 0.0
C134 C 0.11252 0.70856 0.30126 0.0
O135 O 0.2386 0.8124 0.25239 0.0
O136 O 0.2572 0.76311 0.29062 0.0
N137 N 0.17603 0.87317 0.25956 0.0
C138 C 0.14327 0.85485 0.23032 0.0
C139 C 0.15809 0.93721 0.24105 0.0
N140 N 0.18566 0.9246 0.26604 0.0
N141 N 0.1313 0.89398 0.21839 0.0
C142 C 0.25745 0.74653 0.40114 0.0
C143 C 0.26159 0.67536 0.3824 0.0
N144 N 0.24192 0.73919 0.36659 0.0
N145 N 0.24424 0.69484 0.355 0.0
N146 N 0.26927 0.7067 0.41168 0.0
H147 H 0.29832 0.80611 0.4438 0.0
H148 H 0.22458 0.78122 0.43883 0.0
H149 H 0.27355 0.83151 0.40763 0.0
C150 C 0.2642 0.79434 0.42399 0.0
C151 C 0.12197 0.7984 0.21341 0.0
H152 H 0.15087 0.78189 0.2181 0.0
H153 H 0.11656 0.8009 0.18416 0.0
H154 H 0.08036 0.76866 0.22488 0.0
O155 O 0.12199 0.75211 0.28367 0.0
O156 O 0.14723 0.71184 0.32455 0.0
C157 C 0.25961 0.78144 0.2591 0.0
O158 O 0.18186 0.80287 0.37504 0.0
O159 O 0.16257 0.85142 0.33664 0.0
Zn160 Zn 0.35752 0.16933 0.63723 0.0
O161 O 0.42391 0.20106 0.6001 0.0
C162 C 0.39108 0.08636 0.65896 0.0
Zn163 Zn 0.41469 0.19842 0.68366 0.0
C164 C 0.47324 0.22751 0.6128 0.0
O165 O 0.48037 0.23226 0.6464 0.0
C166 C 0.29915 0.14274 0.70915 0.0
O167 O 0.41663 0.27558 0.68402 0.0
O168 O 0.36224 0.2492 0.63669 0.0
N169 N 0.47182 0.22253 0.72304 0.0
C170 C 0.47392 0.24225 0.75621 0.0
C171 C 0.54718 0.23498 0.74897 0.0
N172 N 0.51718 0.21781 0.71861 0.0
N173 N 0.5205 0.24979 0.77308 0.0
C174 C 0.28673 0.10519 0.57106 0.0
C175 C 0.2207 0.1247 0.57245 0.0
N176 N 0.29868 0.14245 0.59758 0.0
N177 N 0.25784 0.15496 0.59818 0.0
N178 N 0.2383 0.09354 0.55496 0.0
H179 H 0.36571 0.10643 0.56774 0.0
H180 H 0.316 0.06674 0.53296 0.0
H181 H 0.30548 0.039 0.57755 0.0
C182 C 0.32081 0.07808 0.56174 0.0
C183 C 0.43211 0.25674 0.77134 0.0
H184 H 0.4536 0.2955 0.78757 0.0
H185 H 0.40282 0.22223 0.78908 0.0
H186 H 0.40746 0.26249 0.75005 0.0
O187 O 0.34914 0.16518 0.72053 0.0
O188 O 0.29038 0.13844 0.6756 0.0
C189 C 0.39207 0.28686 0.65931 0.0
O190 O 0.35879 0.0918 0.63692 0.0
O191 O 0.41587 0.1235 0.68256 0.0
H192 H 0.26373 0.68497 0.2559 0.0
H193 H 0.30324 0.83536 0.19595 0.0
H194 H 0.32988 0.79838 0.14381 0.0
H195 H 0.37163 0.65719 0.2155 0.0
H196 H 0.32412 0.58272 0.21498 0.0
H197 H 0.31815 0.62532 0.24939 0.0
H198 H 0.21393 0.5871 0.23232 0.0
H199 H 0.21965 0.54501 0.19761 0.0
H200 H 0.19632 0.59411 0.18686 0.0
H201 H 0.34232 0.74144 0.09677 0.0
H202 H 0.33672 0.66646 0.05725 0.0
H203 H 0.28543 0.55233 0.14716 0.0
C204 C 0.27978 0.71085 0.23218 0.0
C205 C 0.28228 0.76318 0.22987 0.0
C206 C 0.30151 0.79523 0.19811 0.0
C207 C 0.31691 0.77472 0.16852 0.0
C208 C 0.31241 0.72212 0.17127 0.0
C209 C 0.29432 0.69059 0.20228 0.0
C210 C 0.28673 0.63274 0.19701 0.0
C211 C 0.32761 0.62401 0.22062 0.0
C212 C 0.22554 0.58709 0.20385 0.0
C213 C 0.30193 0.63615 0.15792 0.0
C214 C 0.31757 0.68836 0.14371 0.0
C215 C 0.33078 0.70062 0.10765 0.0
C216 C 0.3274 0.65811 0.08548 0.0
C217 C 0.31007 0.60423 0.09949 0.0
C218 C 0.29817 0.59336 0.13613 0.0
H219 H 0.48011 0.19594 0.54463 0.0
H220 H 0.57734 0.31347 0.62826 0.0
H221 H 0.66171 0.35174 0.59004 0.0
H222 H 0.58492 0.16432 0.5195 0.0
H223 H 0.56873 0.15789 0.47243 0.0
H224 H 0.51471 0.14342 0.50485 0.0
H225 H 0.49453 0.21655 0.47457 0.0
H226 H 0.54833 0.23104 0.4419 0.0
H227 H 0.55101 0.28722 0.46819 0.0
H228 H 0.73614 0.37467 0.54377 0.0
H229 H 0.79618 0.37688 0.49332 0.0
H230 H 0.65076 0.24308 0.44133 0.0
C231 C 0.51895 0.2304 0.55457 0.0
C232 C 0.52237 0.25215 0.58914 0.0
C233 C 0.57406 0.29635 0.60172 0.0
C234 C 0.62207 0.31849 0.58021 0.0
C235 C 0.61756 0.29564 0.54638 0.0
C236 C 0.5674 0.25245 0.53366 0.0
C237 C 0.57468 0.23275 0.49738 0.0
C238 C 0.55989 0.17095 0.49864 0.0
C239 C 0.54009 0.2425 0.46883 0.0
C240 C 0.6368 0.27122 0.49191 0.0
C241 C 0.66074 0.30763 0.52025 0.0
C242 C 0.71791 0.34646 0.52137 0.0
C243 C 0.75158 0.34754 0.49283 0.0
C244 C 0.72782 0.30949 0.46422 0.0
C245 C 0.66975 0.27165 0.46348 0.0
H246 H 0.33553 0.54653 0.9304 0.0
H247 H 0.18402 0.44028 0.87046 0.0
H248 H 0.22183 0.5048 0.81881 0.0
H249 H 0.36013 0.67981 0.89644 0.0
H250 H 0.43511 0.7091 0.8944 0.0
H251 H 0.39469 0.65627 0.92724 0.0
H252 H 0.43558 0.59502 0.90397 0.0
H253 H 0.47616 0.64764 0.87109 0.0
H254 H 0.42895 0.57676 0.85723 0.0
H255 H 0.27626 0.57995 0.77401 0.0
H256 H 0.34723 0.6581 0.73716 0.0
H257 H 0.46365 0.71261 0.82579 0.0
C258 C 0.31005 0.53724 0.90654 0.0
C259 C 0.25675 0.48903 0.90432 0.0
C260 C 0.22499 0.47731 0.87252 0.0
C261 C 0.24595 0.51369 0.84321 0.0
C262 C 0.29878 0.56096 0.84626 0.0
C263 C 0.33062 0.57253 0.87698 0.0
C264 C 0.38739 0.62427 0.87272 0.0
C265 C 0.39472 0.67007 0.89927 0.0
C266 C 0.4348 0.61004 0.87647 0.0
C267 C 0.38248 0.64012 0.83476 0.0
C268 C 0.33087 0.60334 0.82008 0.0
C269 C 0.31676 0.60907 0.78517 0.0
C270 C 0.35689 0.65332 0.76459 0.0
C271 C 0.41016 0.69036 0.77901 0.0
C272 C 0.42298 0.68419 0.81451 0.0
H273 H 0.77663 0.3504 0.28344 0.0
H274 H 0.70526 0.19322 0.22576 0.0
H275 H 0.6633 0.22932 0.18201 0.0
H276 H 0.6633 0.38327 0.26669 0.0
H277 H 0.71198 0.4568 0.26044 0.0
H278 H 0.72932 0.41589 0.29013 0.0
H279 H 0.82146 0.44647 0.25492 0.0
H280 H 0.80451 0.48749 0.22525 0.0
H281 H 0.81829 0.43467 0.20734 0.0
H282 H 0.63603 0.28425 0.14242 0.0
H283 H 0.63255 0.35779 0.10611 0.0
H284 H 0.72396 0.48022 0.18821 0.0
C285 C 0.7511 0.32329 0.262 0.0
C286 C 0.74344 0.26901 0.25792 0.0
C287 C 0.71133 0.23499 0.22913 0.0
C288 C 0.68703 0.25492 0.20444 0.0
C289 C 0.6958 0.30897 0.20894 0.0
C290 C 0.72748 0.34291 0.23679 0.0
C291 C 0.73604 0.40145 0.23322 0.0
C292 C 0.7085 0.41513 0.26448 0.0
C293 C 0.79878 0.44506 0.22998 0.0
C294 C 0.70529 0.39546 0.19853 0.0
C295 C 0.68144 0.34146 0.18539 0.0
C296 C 0.65381 0.32646 0.15263 0.0
C297 C 0.65184 0.36818 0.13231 0.0
C298 C 0.67794 0.42398 0.14471 0.0
C299 C 0.70365 0.43754 0.17854 0.0
H300 H 0.52415 0.76335 0.53463 0.0
H301 H 0.41971 0.75155 0.62529 0.0
H302 H 0.33916 0.72283 0.58496 0.0
H303 H 0.46841 0.8213 0.47417 0.0
H304 H 0.47188 0.78338 0.43588 0.0
H305 H 0.5203 0.79934 0.47227 0.0
H306 H 0.48885 0.69387 0.47871 0.0
H307 H 0.43991 0.67754 0.44246 0.0
H308 H 0.41566 0.64392 0.48531 0.0
H309 H 0.27242 0.70306 0.53486 0.0
H310 H 0.22421 0.69451 0.47715 0.0
H311 H 0.37026 0.71562 0.41976 0.0
C312 C 0.48425 0.75434 0.54602 0.0
C313 C 0.47812 0.75959 0.58302 0.0
C314 C 0.4253 0.74764 0.59695 0.0
C315 C 0.37923 0.73109 0.57434 0.0
C316 C 0.38663 0.72622 0.53799 0.0
C317 C 0.43771 0.73739 0.52387 0.0
C318 C 0.43504 0.73147 0.48364 0.0
C319 C 0.47634 0.78719 0.46543 0.0
C320 C 0.44547 0.68385 0.47185 0.0
C321 C 0.37485 0.71657 0.47731 0.0
C322 C 0.34753 0.7134 0.50904 0.0
C323 C 0.29293 0.70442 0.50985 0.0
C324 C 0.26593 0.69962 0.47723 0.0
C325 C 0.29371 0.70368 0.44465 0.0
C326 C 0.34816 0.71102 0.44464 0.0
H327 H 0.74257 0.48021 0.89968 0.0
H328 H 0.61738 0.41499 0.98411 0.0
H329 H 0.55387 0.33721 0.94466 0.0
H330 H 0.64933 0.45556 0.82988 0.0
H331 H 0.6865 0.4372 0.79776 0.0
H332 H 0.72397 0.48379 0.83399 0.0
H333 H 0.76227 0.41845 0.85354 0.0
H334 H 0.72494 0.3716 0.81727 0.0
H335 H 0.7139 0.34562 0.86256 0.0
H336 H 0.50149 0.27155 0.89413 0.0
H337 H 0.46486 0.22284 0.83633 0.0
H338 H 0.62451 0.33274 0.786 0.0
C339 C 0.70212 0.44921 0.9101 0.0
C340 C 0.68484 0.45341 0.94486 0.0
C341 C 0.63153 0.41216 0.95754 0.0
C342 C 0.59523 0.36791 0.93538 0.0
C343 C 0.61328 0.36561 0.90093 0.0
C344 C 0.6656 0.40505 0.88847 0.0
C345 C 0.67382 0.39552 0.84976 0.0
C346 C 0.68398 0.446 0.82649 0.0
C347 C 0.72156 0.38197 0.84555 0.0
C348 C 0.61755 0.34506 0.84212 0.0
C349 C 0.58321 0.32813 0.87195 0.0
C350 C 0.5281 0.28413 0.87067 0.0
C351 C 0.50753 0.25713 0.83785 0.0
C352 C 0.54204 0.27478 0.80708 0.0
C353 C 0.59781 0.31846 0.80944 0.0
H354 H 0.37908 0.40734 0.03697 0.0
H355 H 0.34767 0.39158 0.92291 0.0
H356 H 0.44852 0.45768 0.91171 0.0
H357 H 0.46146 0.54899 0.03557 0.0
H358 H 0.50859 0.55354 0.07063 0.0
H359 H 0.43788 0.49582 0.06979 0.0
H360 H 0.47289 0.42342 0.06883 0.0
H361 H 0.54324 0.48122 0.07248 0.0
H362 H 0.52524 0.43162 0.03652 0.0
H363 H 0.55312 0.53534 0.91452 0.0
H364 H 0.65119 0.60311 0.93072 0.0
H365 H 0.60609 0.57454 0.04311 0.0
C366 C 0.39391 0.4155 0.00955 0.0
C367 C 0.3558 0.39359 0.98082 0.0
C368 C 0.37641 0.4066 0.94531 0.0
C369 C 0.43347 0.44507 0.93877 0.0
C370 C 0.46887 0.46999 0.96805 0.0
C371 C 0.44978 0.4547 0.00273 0.0
C372 C 0.4937 0.49054 0.02983 0.0
C373 C 0.47421 0.52418 0.05279 0.0
C374 C 0.50974 0.45455 0.05327 0.0
C375 C 0.54096 0.5285 0.0052 0.0
C376 C 0.52636 0.51624 0.96964 0.0
C377 C 0.56482 0.54494 0.94234 0.0
C378 C 0.62042 0.58408 0.9518 0.0
C379 C 0.63686 0.59411 0.98825 0.0
C380 C 0.59531 0.56832 0.01497 0.0
H381 H 0.04905 0.63113 0.34922 0.0
H382 H 0.08056 0.65792 0.23553 0.0
H383 H 0.03605 0.5551 0.2265 0.0
H384 H 0.09278 0.5368 0.35677 0.0
H385 H 0.04327 0.49363 0.39057 0.0
H386 H 0.06376 0.56654 0.38726 0.0
H387 H 0.9603 0.54277 0.37971 0.0
H388 H 0.93905 0.46985 0.38515 0.0
H389 H 0.91722 0.49281 0.34622 0.0
H390 H 0.99621 0.44733 0.23249 0.0
H391 H 0.95541 0.34827 0.25184 0.0
H392 H 0.96669 0.40018 0.36239 0.0
C393 C 0.04378 0.61512 0.32217 0.0
C394 C 0.06692 0.65199 0.29298 0.0
C395 C 0.06134 0.63002 0.25807 0.0
C396 C 0.03712 0.57178 0.25287 0.0
C397 C 0.0192 0.53679 0.28292 0.0
C398 C 0.02148 0.55796 0.31681 0.0
C399 C 0.00551 0.51383 0.34537 0.0
C400 C 0.05425 0.52862 0.3715 0.0
C401 C 0.95236 0.50423 0.36527 0.0
C402 C 0.99432 0.4643 0.32254 0.0
C403 C 0.0016 0.47756 0.28654 0.0
C404 C 0.99064 0.43676 0.26066 0.0
C405 C 0.9685 0.3807 0.2719 0.0
C406 C 0.9584 0.36651 0.30867 0.0
C407 C 0.97444 0.40959 0.3341 0.0
H408 H 0.43331 0.04328 0.70766 0.0
H409 H 0.40396 0.04821 0.59411 0.0
H410 H 0.46918 0.01296 0.58108 0.0
H411 H 0.57594 0.09105 0.70303 0.0
H412 H 0.57766 0.04572 0.7373 0.0
H413 H 0.5244 0.0658 0.73834 0.0
H414 H 0.44573 0.9617 0.73854 0.0
H415 H 0.49881 0.94141 0.73927 0.0
H416 H 0.44602 0.91502 0.70483 0.0
H417 H 0.54592 0.98665 0.58059 0.0
H418 H 0.6088 0.94843 0.59298 0.0
H419 H 0.58722 0.96076 0.70688 0.0
C420 C 0.43897 0.03492 0.68012 0.0
C421 C 0.41308 0.04796 0.65192 0.0
C422 C 0.4223 0.0374 0.61618 0.0
C423 C 0.46016 0.01836 0.6085 0.0
C424 C 0.4878 0.00945 0.63689 0.0
C425 C 0.47615 0.01555 0.67204 0.0
C426 C 0.51102 0.00289 0.69775 0.0
C427 C 0.54952 0.05445 0.72043 0.0
C428 C 0.47315 0.95224 0.72148 0.0
C429 C 0.54459 0.9892 0.67162 0.0
C430 C 0.53129 0.994 0.63662 0.0
C431 C 0.55643 0.98251 0.60791 0.0
C432 C 0.59304 0.96179 0.61521 0.0
C433 C 0.60339 0.95205 0.65092 0.0
C434 C 0.58085 0.96858 0.67933 0.0
H435 H 0.55055 0.61263 0.70435 0.0
H436 H 0.56922 0.64218 0.5899 0.0
H437 H 0.51362 0.5402 0.57919 0.0
H438 H 0.56374 0.48596 0.70171 0.0
H439 H 0.51433 0.45297 0.7377 0.0
H440 H 0.55619 0.52812 0.73578 0.0
H441 H 0.46541 0.53496 0.73811 0.0
H442 H 0.42321 0.45975 0.73905 0.0
H443 H 0.41188 0.49931 0.7048 0.0
H444 H 0.4487 0.43626 0.58105 0.0
H445 H 0.39801 0.33518 0.59474 0.0
H446 H 0.42803 0.3723 0.70801 0.0
C447 C 0.54379 0.59739 0.67709 0.0
C448 C 0.56416 0.63494 0.64789 0.0
C449 C 0.55459 0.61386 0.61257 0.0
C450 C 0.52245 0.55615 0.60625 0.0
C451 C 0.50121 0.52027 0.6356 0.0
C452 C 0.513 0.53985 0.67033 0.0
C453 C 0.4873 0.49215 0.69707 0.0
C454 C 0.53312 0.48964 0.71937 0.0
C455 C 0.44441 0.49685 0.72117 0.0
C456 C 0.45879 0.44268 0.67193 0.0
C457 C 0.46627 0.46 0.63663 0.0
C458 C 0.443 0.42211 0.60855 0.0
C459 C 0.41365 0.36479 0.61664 0.0
C460 C 0.40893 0.34599 0.65243 0.0
C461 C 0.43069 0.38557 0.68043 0.0
H462 H 0.11536 0.49858 0.99081 0.0
H463 H 0.99608 0.32261 0.00716 0.0
H464 H 0.92009 0.34578 0.01499 0.0
H465 H 0.05878 0.55506 0.05295 0.0
H466 H 0.07077 0.61367 0.02521 0.0
H467 H 0.11552 0.58333 0.02104 0.0
H468 H 0.0932 0.56729 0.95333 0.0
H469 H 0.04879 0.59806 0.95719 0.0
H470 H 0.02118 0.52872 0.9389 0.0
H471 H 0.85977 0.38936 0.02572 0.0
H472 H 0.81463 0.44736 0.02965 0.0
H473 H 0.97142 0.59466 0.00043 0.0
C474 C 0.07309 0.46493 -0.00415 0.0
C475 C 0.06124 0.40883 -0.00137 0.0
C476 C 0.00564 0.36573 0.00482 0.0
C477 C 0.9625 0.37861 0.0095 0.0
C478 C 0.97577 0.43456 0.00709 0.0
C479 C 0.02947 0.47688 -0.00036 0.0
C480 C 0.03226 0.5333 -0.00285 0.0
C481 C 0.07167 0.57371 0.0258 0.0
C482 C 0.04989 0.5583 0.95939 0.0
C483 C 0.97171 0.51629 0.0048 0.0
C484 C 0.94018 0.45926 0.01106 0.0
C485 C 0.88384 0.43386 0.02042 0.0
C486 C 0.85875 0.46733 0.02283 0.0
C487 C 0.88956 0.52551 0.01525 0.0
C488 C 0.94685 0.55028 0.00611 0.0
H489 H 0.39654 0.95665 0.28053 0.0
H490 H 0.351 0.94179 0.3926 0.0
H491 H 0.45106 0.99423 0.40922 0.0
H492 H 0.50708 0.93188 0.29106 0.0
H493 H 0.55308 0.98114 0.25807 0.0
H494 H 0.47829 0.95077 0.25368 0.0
H495 H 0.48761 0.04925 0.25169 0.0
H496 H 0.56265 0.08002 0.25468 0.0
H497 H 0.52564 0.09885 0.28662 0.0
H498 H 0.55414 0.03789 0.41421 0.0
H499 H 0.65692 0.0849 0.40685 0.0
H500 H 0.63705 0.06991 0.29165 0.0
C501 C 0.4079 0.9671 0.30834 0.0
C502 C 0.36657 0.9468 0.33535 0.0
C503 C 0.38246 0.95845 0.37166 0.0
C504 C 0.43904 0.98755 0.38132 0.0
C505 C 0.47901 0.00433 0.35427 0.0
C506 C 0.46445 0.99577 0.31848 0.0
C507 C 0.51593 0.01549 0.295 0.0
C508 C 0.5134 0.96691 0.27317 0.0
C509 C 0.5234 0.06378 0.27056 0.0
C510 C 0.56138 0.03551 0.32325 0.0
C511 C 0.53896 0.02849 0.35723 0.0
C512 C 0.5723 0.04404 0.38775 0.0
C513 C 0.63046 0.07022 0.38336 0.0
C514 C 0.65448 0.08038 0.34878 0.0
C515 C 0.6195 0.06126 0.31839 0.0
H516 H 0.30497 0.14348 0.78187 0.0
H517 H 0.19038 0.11525 0.6943 0.0
H518 H 0.12128 0.11417 0.73716 0.0
H519 H 0.19599 0.06331 0.85278 0.0
H520 H 0.23735 0.11458 0.8861 0.0
H521 H 0.27144 0.09977 0.84991 0.0
H522 H 0.32494 0.20503 0.83348 0.0
H523 H 0.29058 0.22037 0.8689 0.0
H524 H 0.286 0.2404 0.82363 0.0
H525 H 0.07323 0.13495 0.78772 0.0
H526 H 0.05094 0.17373 0.84139 0.0
H527 H 0.19714 0.18873 0.89494 0.0
C528 C 0.26462 0.13516 0.77178 0.0
C529 C 0.25307 0.12939 0.73476 0.0
C530 C 0.19998 0.11926 0.7226 0.0
C531 C 0.16045 0.11859 0.74678 0.0
C532 C 0.17443 0.12738 0.78299 0.0
C533 C 0.22507 0.13469 0.79545 0.0
C534 C 0.23346 0.15045 0.8346 0.0
C535 C 0.2346 0.10425 0.85718 0.0
C536 C 0.28686 0.20743 0.84045 0.0
C537 C 0.18107 0.15378 0.84185 0.0
C538 C 0.14683 0.13931 0.81204 0.0
C539 C 0.09895 0.14493 0.81147 0.0
C540 C 0.08652 0.16688 0.84186 0.0
C541 C 0.12224 0.18333 0.87191 0.0
C542 C 0.16898 0.17524 0.87224 0.0
H543 H 0.88954 0.12178 0.16052 0.0
H544 H 0.99312 0.16319 0.25496 0.0
H545 H 0.07848 0.20413 0.21718 0.0
H546 H 0.98416 0.09188 0.10023 0.0
H547 H 0.96893 0.12259 0.06224 0.0
H548 H 0.91644 0.08703 0.09629 0.0
H549 H 0.90769 0.17596 0.10466 0.0
H550 H 0.96037 0.21194 0.07106 0.0
H551 H 0.9694 0.2415 0.11519 0.0
H552 H 0.15041 0.25888 0.17098 0.0
H553 H 0.20454 0.31468 0.11849 0.0
H554 H 0.05539 0.23081 0.05298 0.0
C555 C 0.93025 0.13718 0.17282 0.0
C556 C 0.9355 0.13864 0.21026 0.0
C557 C 0.989 0.16087 0.22612 0.0
C558 C 0.03742 0.18422 0.20491 0.0
C559 C 0.03123 0.18396 0.1679 0.0
C560 C 0.97893 0.15987 0.15188 0.0
C561 C 0.98392 0.16993 0.11191 0.0
C562 C 0.96207 0.11455 0.09146 0.0
C563 C 0.95358 0.20173 0.10004 0.0
C564 C 0.04688 0.20588 0.10824 0.0
C565 C 0.07351 0.21341 0.14082 0.0
C566 C 0.13049 0.25164 0.14505 0.0
C567 C 0.16086 0.28326 0.11527 0.0
C568 C 0.13425 0.27552 0.08177 0.0
C569 C 0.077 0.23557 0.07809 0.0
H570 H 0.76487 0.89099 0.48332 0.0
H571 H 0.84086 0.98761 0.57862 0.0
H572 H 0.89148 0.07381 0.54203 0.0
H573 H 0.88841 0.97654 0.42066 0.0
H574 H 0.84173 0.96886 0.38448 0.0
H575 H 0.82108 0.91382 0.41722 0.0
H576 H 0.73057 0.91816 0.43036 0.0
H577 H 0.7509 0.97304 0.39787 0.0
H578 H 0.73619 0.98393 0.44323 0.0
H579 H 0.91538 0.14994 0.49772 0.0
H580 H 0.9155 0.20997 0.44826 0.0
H581 H 0.83061 0.06409 0.38028 0.0
C582 C 0.7942 0.9301 0.49596 0.0
C583 C 0.80038 0.93333 0.53336 0.0
C584 C 0.83706 0.98495 0.54977 0.0
C585 C 0.86577 0.03379 0.52922 0.0
C586 C 0.85779 0.02983 0.49228 0.0
C587 C 0.82361 0.97908 0.47568 0.0
C588 C 0.81713 0.98704 0.43624 0.0
C589 C 0.84369 0.95996 0.4133 0.0
C590 C 0.75505 0.96423 0.42638 0.0
C591 C 0.85036 0.05027 0.43366 0.0
C592 C 0.87393 0.07423 0.4662 0.0
C593 C 0.89907 0.13186 0.47175 0.0
C594 C 0.89896 0.16565 0.44362 0.0
C595 C 0.87461 0.14168 0.41033 0.0
C596 C 0.85171 0.08363 0.40502 0.0
H597 H 0.67453 0.80117 0.77876 0.0
H598 H 0.7988 0.85562 0.69401 0.0
H599 H 0.86159 0.83994 0.73393 0.0
H600 H 0.77375 0.85604 0.85549 0.0
H601 H 0.72885 0.79589 0.88252 0.0
H602 H 0.69881 0.82093 0.84938 0.0
H603 H 0.64798 0.72213 0.82085 0.0
H604 H 0.67862 0.69703 0.85336 0.0
H605 H 0.68851 0.69047 0.80632 0.0
H606 H 0.9056 0.80665 0.78113 0.0
H607 H 0.92688 0.76132 0.83185 0.0
H608 H 0.77241 0.72789 0.88371 0.0
C609 C 0.71567 0.81163 0.76886 0.0
C610 C 0.73188 0.82999 0.73332 0.0
C611 C 0.78568 0.84202 0.72127 0.0
C612 C 0.82158 0.83311 0.74373 0.0
C613 C 0.80312 0.81251 0.77814 0.0
C614 C 0.7516 0.8026 0.79072 0.0
C615 C 0.73894 0.77573 0.82735 0.0
C616 C 0.73488 0.81448 0.85534 0.0
C617 C 0.68536 0.71794 0.82691 0.0
C618 C 0.79056 0.77045 0.83304 0.0
C619 C 0.82757 0.79241 0.80468 0.0
C620 C 0.8771 0.7898 0.80359 0.0
C621 C 0.8888 0.76393 0.83224 0.0
C622 C 0.85059 0.74031 0.86095 0.0
C623 C 0.80159 0.74468 0.86155 0.0
H624 H 0.02272 0.81814 0.22322 0.0
H625 H 0.14609 0.94913 0.15595 0.0
H626 H 0.07636 0.91992 0.10673 0.0
H627 H 0.97563 0.71811 0.16111 0.0
H628 H 0.90294 0.68183 0.1744 0.0
H629 H 0.95622 0.72217 0.20662 0.0
H630 H 0.90787 0.78047 0.22077 0.0
H631 H 0.85373 0.73976 0.18876 0.0
H632 H 0.89278 0.81498 0.18496 0.0
H633 H 0.00014 0.86452 0.06223 0.0
H634 H 0.92562 0.78904 0.02637 0.0
H635 H 0.85318 0.69255 0.1232 0.0
C636 C 0.03396 0.84179 0.19849 0.0
C637 C 0.08897 0.88585 0.19299 0.0
C638 C 0.10355 0.91576 0.16042 0.0
C639 C 0.06427 0.89936 0.13251 0.0
C640 C 0.01079 0.85351 0.1381 0.0
C641 C 0.9955 0.82558 0.17055 0.0
C642 C 0.93914 0.77277 0.16844 0.0
C643 C 0.94381 0.7207 0.17819 0.0
C644 C 0.89581 0.7773 0.19213 0.0
C645 C 0.92623 0.77353 0.12925 0.0
C646 C 0.96728 0.821 0.11231 0.0
C647 C 0.9671 0.8279 0.07537 0.0
C648 C 0.92466 0.78469 0.05521 0.0
C649 C 0.88348 0.73497 0.07204 0.0
C650 C 0.88358 0.73033 0.10961 0.0
H651 H 0.22703 0.09608 0.48365 0.0
H652 H 0.17908 0.98667 0.57567 0.0
H653 H 0.13449 0.90375 0.53607 0.0
H654 H 0.10124 0.0014 0.42505 0.0
H655 H 0.14478 0.02065 0.38564 0.0
H656 H 0.16133 0.07058 0.42126 0.0
H657 H 0.26138 0.08357 0.42549 0.0
H658 H 0.24518 0.03396 0.39002 0.0
H659 H 0.26955 0.02308 0.43245 0.0
H660 H 0.11454 0.83566 0.48753 0.0
H661 H 0.11892 0.78673 0.43332 0.0
H662 H 0.1752 0.93899 0.37169 0.0
C663 C 0.2049 0.05448 0.49515 0.0
C664 C 0.20505 0.04687 0.53233 0.0
C665 C 0.17804 0.99243 0.54707 0.0
C666 C 0.15265 0.94544 0.52483 0.0
C667 C 0.15437 0.95394 0.48798 0.0
C668 C 0.17928 0.00714 0.47319 0.0
C669 C 0.1821 0.0049 0.43283 0.0
C670 C 0.14514 0.0256 0.41516 0.0
C671 C 0.24316 0.03831 0.41944 0.0
C672 C 0.1579 0.94255 0.42742 0.0
C673 C 0.14133 0.91379 0.45953 0.0
C674 C 0.12545 0.85722 0.46205 0.0
C675 C 0.12812 0.82977 0.4312 0.0
C676 C 0.1461 0.85886 0.39833 0.0
C677 C 0.1592 0.9153 0.39623 0.0
loop_
_geom_bond_atom_site_label_1
_geom_bond_atom_site_label_2
_geom_bond_distance
_geom_bond_site_symmetry_2
_ccdc_geom_bond_type
Zn0 O1 2.055 . S
Zn0 O8 2.046 1_554 S
Zn0 N16 2.036 . S
Zn0 O28 2.053 . S
Zn0 O30 2.066 . S
O1 Zn0 2.055 . S
O1 C4 1.259 1_554 S
C2 O30 1.256 . S
C2 O31 1.244 . S
Zn3 O5 2.046 . S
Zn3 O7 2.055 . S
Zn3 N9 2.036 . S
Zn3 O27 2.066 . S
Zn3 O31 2.053 1_556 S
C4 O1 1.259 1_556 S
C4 O5 1.254 . S
O5 Zn3 2.046 . S
O5 C4 1.254 . S
C6 O27 1.256 1_554 S
C6 O28 1.244 . S
O7 Zn3 2.055 . S
O7 C29 1.259 . S
O8 Zn0 2.046 1_556 S
O8 C29 1.254 . S
N9 Zn3 2.036 . S
N9 C10 1.298 . S
N9 N12 1.398 . S
C10 N9 1.298 . S
C10 N13 1.367 . S
C10 C23 1.481 . S
C11 N12 1.299 . S
C11 N13 1.379 . S
N12 N9 1.398 . S
N12 C11 1.299 . S
N13 C10 1.367 . S
N13 C11 1.379 . S
C14 N16 1.298 . S
C14 N18 1.367 . S
C14 C22 1.481 . S
C15 N17 1.299 . S
C15 N18 1.379 . S
N16 Zn0 2.036 . S
N16 C14 1.298 . S
N16 N17 1.398 . S
N17 C15 1.299 . S
N17 N16 1.398 . S
N18 C14 1.367 . S
N18 C15 1.379 . S
H19 C22 0.980 . S
H20 C22 0.981 . S
H21 C22 0.981 . S
C22 C14 1.481 . S
C22 H19 0.980 . S
C22 H20 0.981 . S
C22 H21 0.981 . S
C23 C10 1.481 . S
C23 H24 0.980 . S
C23 H25 0.981 . S
C23 H26 0.981 . S
H24 C23 0.980 . S
H25 C23 0.981 . S
H26 C23 0.981 . S
O27 Zn3 2.066 . S
O27 C6 1.256 1_556 S
O28 Zn0 2.053 . S
O28 C6 1.244 . S
C29 O7 1.259 . S
C29 O8 1.254 . S
O30 Zn0 2.066 . S
O30 C2 1.256 . S
O31 C2 1.244 . S
O31 Zn3 2.053 1_554 S
Zn32 O33 2.055 . S
Zn32 O40 2.046 . S
Zn32 N48 2.036 . S
Zn32 O60 2.053 . S
Zn32 O62 2.066 . S
O33 Zn32 2.055 . S
O33 C36 1.259 . S
C34 O62 1.256 . S
C34 O63 1.244 . S
Zn35 O37 2.046 . S
Zn35 O39 2.055 . S
Zn35 N41 2.036 . S
Zn35 O59 2.066 . S
Zn35 O63 2.053 . S
C36 O33 1.259 . S
C36 O37 1.254 . S
O37 Zn35 2.046 . S
O37 C36 1.254 . S
C38 O59 1.256 . S
C38 O60 1.244 . S
O39 Zn35 2.055 . S
O39 C61 1.259 . S
O40 Zn32 2.046 . S
O40 C61 1.254 . S
N41 Zn35 2.036 . S
N41 C42 1.298 . S
N41 N44 1.398 . S
C42 N41 1.298 . S
C42 N45 1.367 . S
C42 C55 1.481 . S
C43 N44 1.299 . S
C43 N45 1.379 . S
N44 N41 1.398 . S
N44 C43 1.299 . S
N45 C42 1.367 . S
N45 C43 1.379 . S
C46 N48 1.298 . S
C46 N50 1.367 . S
C46 C54 1.481 . S
C47 N49 1.299 . S
C47 N50 1.379 . S
N48 Zn32 2.036 . S
N48 C46 1.298 . S
N48 N49 1.398 . S
N49 C47 1.299 . S
N49 N48 1.398 . S
N50 C46 1.367 . S
N50 C47 1.379 . S
H51 C54 0.980 . S
H52 C54 0.981 . S
H53 C54 0.981 . S
C54 C46 1.481 . S
C54 H51 0.980 . S
C54 H52 0.981 . S
C54 H53 0.981 . S
C55 C42 1.481 . S
C55 H56 0.980 . S
C55 H57 0.981 . S
C55 H58 0.981 . S
H56 C55 0.980 . S
H57 C55 0.981 . S
H58 C55 0.981 . S
O59 Zn35 2.066 . S
O59 C38 1.256 . S
O60 Zn32 2.053 . S
O60 C38 1.244 . S
C61 O39 1.259 . S
C61 O40 1.254 . S
O62 Zn32 2.066 . S
O62 C34 1.256 . S
O63 C34 1.244 . S
O63 Zn35 2.053 . S
Zn64 O65 2.055 . S
Zn64 O72 2.046 . S
Zn64 N80 2.036 . S
Zn64 O92 2.053 . S
Zn64 O94 2.066 . S
O65 Zn64 2.055 . S
O65 C68 1.259 . S
C66 O94 1.256 . S
C66 O95 1.244 . S
Zn67 O69 2.046 . S
Zn67 O71 2.055 . S
Zn67 N73 2.036 . S
Zn67 O91 2.066 . S
Zn67 O95 2.053 . S
C68 O65 1.259 . S
C68 O69 1.254 . S
O69 Zn67 2.046 . S
O69 C68 1.254 . S
C70 O91 1.256 . S
C70 O92 1.244 . S
O71 Zn67 2.055 . S
O71 C93 1.259 . S
O72 Zn64 2.046 . S
O72 C93 1.254 . S
N73 Zn67 2.036 . S
N73 C74 1.298 . S
N73 N76 1.398 . S
C74 N73 1.298 . S
C74 N77 1.367 . S
C74 C87 1.481 . S
C75 N76 1.299 . S
C75 N77 1.379 . S
N76 N73 1.398 . S
N76 C75 1.299 . S
N77 C74 1.367 . S
N77 C75 1.379 . S
C78 N80 1.298 . S
C78 N82 1.367 . S
C78 C86 1.481 . S
C79 N81 1.299 . S
C79 N82 1.379 . S
N80 Zn64 2.036 . S
N80 C78 1.298 . S
N80 N81 1.398 . S
N81 C79 1.299 . S
N81 N80 1.398 . S
N82 C78 1.367 . S
N82 C79 1.379 . S
H83 C86 0.980 . S
H84 C86 0.981 . S
H85 C86 0.981 . S
C86 C78 1.481 . S
C86 H83 0.980 . S
C86 H84 0.981 . S
C86 H85 0.981 . S
C87 C74 1.481 . S
C87 H88 0.980 . S
C87 H89 0.981 . S
C87 H90 0.981 . S
H88 C87 0.980 . S
H89 C87 0.981 . S
H90 C87 0.981 . S
O91 Zn67 2.066 . S
O91 C70 1.256 . S
O92 Zn64 2.053 . S
O92 C70 1.244 . S
C93 O71 1.259 . S
C93 O72 1.254 . S
O94 Zn64 2.066 . S
O94 C66 1.256 . S
O95 C66 1.244 . S
O95 Zn67 2.053 . S
Zn96 O97 2.055 . S
Zn96 O104 2.046 1_554 S
Zn96 N112 2.036 . S
Zn96 O124 2.053 . S
Zn96 O126 2.066 . S
O97 Zn96 2.055 . S
O97 C100 1.259 1_554 S
C98 O126 1.256 . S
C98 O127 1.244 . S
Zn99 O101 2.046 . S
Zn99 O103 2.055 . S
Zn99 N105 2.036 . S
Zn99 O123 2.066 . S
Zn99 O127 2.053 1_556 S
C100 O97 1.259 1_556 S
C100 O101 1.254 . S
O101 Zn99 2.046 . S
O101 C100 1.254 . S
C102 O123 1.256 1_554 S
C102 O124 1.244 . S
O103 Zn99 2.055 . S
O103 C125 1.259 . S
O104 Zn96 2.046 1_556 S
O104 C125 1.254 . S
N105 Zn99 2.036 . S
N105 C106 1.298 . S
N105 N108 1.398 . S
C106 N105 1.298 . S
C106 N109 1.367 . S
C106 C119 1.481 . S
C107 N108 1.299 . S
C107 N109 1.379 . S
N108 N105 1.398 . S
N108 C107 1.299 . S
N109 C106 1.367 . S
N109 C107 1.379 . S
C110 N112 1.298 . S
C110 N114 1.367 . S
C110 C118 1.481 . S
C111 N113 1.299 . S
C111 N114 1.379 . S
N112 Zn96 2.036 . S
N112 C110 1.298 . S
N112 N113 1.398 . S
N113 C111 1.299 . S
N113 N112 1.398 . S
N114 C110 1.367 . S
N114 C111 1.379 . S
H115 C118 0.980 . S
H116 C118 0.981 . S
H117 C118 0.981 . S
C118 C110 1.481 . S
C118 H115 0.980 . S
C118 H116 0.981 . S
C118 H117 0.981 . S
C119 C106 1.481 . S
C119 H120 0.980 . S
C119 H121 0.981 . S
C119 H122 0.981 . S
H120 C119 0.980 . S
H121 C119 0.981 . S
H122 C119 0.981 . S
O123 Zn99 2.066 . S
O123 C102 1.256 1_556 S
O124 Zn96 2.053 . S
O124 C102 1.244 . S
C125 O103 1.259 . S
C125 O104 1.254 . S
O126 Zn96 2.066 . S
O126 C98 1.256 . S
O127 C98 1.244 . S
O127 Zn99 2.053 1_554 S
Zn128 O129 2.055 . S
Zn128 O136 2.046 . S
Zn128 N144 2.036 . S
Zn128 O156 2.053 . S
Zn128 O158 2.066 . S
O129 Zn128 2.055 . S
O129 C132 1.259 . S
C130 O158 1.256 . S
C130 O159 1.244 . S
Zn131 O133 2.046 . S
Zn131 O135 2.055 . S
Zn131 N137 2.036 . S
Zn131 O155 2.066 . S
Zn131 O159 2.053 . S
C132 O129 1.259 . S
C132 O133 1.254 . S
O133 Zn131 2.046 . S
O133 C132 1.254 . S
C134 O155 1.256 . S
C134 O156 1.244 . S
O135 Zn131 2.055 . S
O135 C157 1.259 . S
O136 Zn128 2.046 . S
O136 C157 1.254 . S
N137 Zn131 2.036 . S
N137 C138 1.298 . S
N137 N140 1.398 . S
C138 N137 1.298 . S
C138 N141 1.367 . S
C138 C151 1.481 . S
C139 N140 1.299 . S
C139 N141 1.379 . S
N140 N137 1.398 . S
N140 C139 1.299 . S
N141 C138 1.367 . S
N141 C139 1.379 . S
C142 N144 1.298 . S
C142 N146 1.367 . S
C142 C150 1.481 . S
C143 N145 1.299 . S
C143 N146 1.379 . S
N144 Zn128 2.036 . S
N144 C142 1.298 . S
N144 N145 1.398 . S
N145 C143 1.299 . S
N145 N144 1.398 . S
N146 C142 1.367 . S
N146 C143 1.379 . S
H147 C150 0.980 . S
H148 C150 0.981 . S
H149 C150 0.981 . S
C150 C142 1.481 . S
C150 H147 0.980 . S
C150 H148 0.981 . S
C150 H149 0.981 . S
C151 C138 1.481 . S
C151 H152 0.980 . S
C151 H153 0.981 . S
C151 H154 0.981 . S
H152 C151 0.980 . S
H153 C151 0.981 . S
H154 C151 0.981 . S
O155 Zn131 2.066 . S
O155 C134 1.256 . S
O156 Zn128 2.053 . S
O156 C134 1.244 . S
C157 O135 1.259 . S
C157 O136 1.254 . S
O158 Zn128 2.066 . S
O158 C130 1.256 . S
O159 C130 1.244 . S
O159 Zn131 2.053 . S
Zn160 O161 2.055 . S
Zn160 O168 2.046 . S
Zn160 N176 2.036 . S
Zn160 O188 2.053 . S
Zn160 O190 2.066 . S
O161 Zn160 2.055 . S
O161 C164 1.259 . S
C162 O190 1.256 . S
C162 O191 1.244 . S
Zn163 O165 2.046 . S
Zn163 O167 2.055 . S
Zn163 N169 2.036 . S
Zn163 O187 2.066 . S
Zn163 O191 2.053 . S
C164 O161 1.259 . S
C164 O165 1.254 . S
O165 Zn163 2.046 . S
O165 C164 1.254 . S
C166 O187 1.256 . S
C166 O188 1.244 . S
O167 Zn163 2.055 . S
O167 C189 1.259 . S
O168 Zn160 2.046 . S
O168 C189 1.254 . S
N169 Zn163 2.036 . S
N169 C170 1.298 . S
N169 N172 1.398 . S
C170 N169 1.298 . S
C170 N173 1.367 . S
C170 C183 1.481 . S
C171 N172 1.299 . S
C171 N173 1.379 . S
N172 N169 1.398 . S
N172 C171 1.299 . S
N173 C170 1.367 . S
N173 C171 1.379 . S
C174 N176 1.298 . S
C174 N178 1.367 . S
C174 C182 1.481 . S
C175 N177 1.299 . S
C175 N178 1.379 . S
N176 Zn160 2.036 . S
N176 C174 1.298 . S
N176 N177 1.398 . S
N177 C175 1.299 . S
N177 N176 1.398 . S
N178 C174 1.367 . S
N178 C175 1.379 . S
H179 C182 0.980 . S
H180 C182 0.981 . S
H181 C182 0.981 . S
C182 C174 1.481 . S
C182 H179 0.980 . S
C182 H180 0.981 . S
C182 H181 0.981 . S
C183 C170 1.481 . S
C183 H184 0.980 . S
C183 H185 0.981 . S
C183 H186 0.981 . S
H184 C183 0.980 . S
H185 C183 0.981 . S
H186 C183 0.981 . S
O187 Zn163 2.066 . S
O187 C166 1.256 . S
O188 Zn160 2.053 . S
O188 C166 1.244 . S
C189 O167 1.259 . S
C189 O168 1.254 . S
O190 Zn160 2.066 . S
O190 C162 1.256 . S
O191 C162 1.244 . S
O191 Zn163 2.053 . S
H192 C204 0.930 . S
H193 C206 0.930 . S
H194 C207 0.930 . S
H195 C211 0.959 . S
H196 C211 0.959 . S
H197 C211 0.961 . S
H198 C212 0.960 . S
H199 C212 0.961 . S
H200 C212 0.959 . S
H201 C215 0.929 . S
H202 C216 0.931 . S
H203 C218 0.930 . S
C204 H192 0.930 . S
C204 C205 1.399 . S
C204 C209 1.399 . S
C205 C204 1.399 . S
C205 C206 1.376 . S
C206 H193 0.930 . S
C206 C205 1.376 . S
C206 C207 1.388 . S
C207 H194 0.930 . S
C207 C206 1.388 . S
C207 C208 1.390 . S
C208 C207 1.390 . S
C208 C209 1.394 . S
C208 C214 1.465 . S
C209 C204 1.399 . S
C209 C208 1.394 . S
C209 C210 1.516 . S
C210 C209 1.516 . S
C210 C211 1.502 . S
C210 C212 1.561 . S
C210 C213 1.526 . S
C211 H195 0.959 . S
C211 H196 0.959 . S
C211 H197 0.961 . S
C211 C210 1.502 . S
C212 H198 0.960 . S
C212 H199 0.961 . S
C212 H200 0.959 . S
C212 C210 1.561 . S
C213 C210 1.526 . S
C213 C214 1.396 . S
C213 C218 1.390 . S
C214 C208 1.465 . S
C214 C213 1.396 . S
C214 C215 1.399 . S
C215 H201 0.929 . S
C215 C214 1.399 . S
C215 C216 1.385 . S
C216 H202 0.931 . S
C216 C215 1.385 . S
C216 C217 1.389 . S
C217 C216 1.389 . S
C217 C218 1.387 . S
C218 H203 0.930 . S
C218 C213 1.390 . S
C218 C217 1.387 . S
H219 C231 0.930 . S
H220 C233 0.930 . S
H221 C234 0.930 . S
H222 C238 0.959 . S
H223 C238 0.959 . S
H224 C238 0.961 . S
H225 C239 0.960 . S
H226 C239 0.961 . S
H227 C239 0.959 . S
H228 C242 0.929 . S
H229 C243 0.931 . S
H230 C245 0.930 . S
C231 H219 0.930 . S
C231 C232 1.399 . S
C231 C236 1.399 . S
C232 C231 1.399 . S
C232 C233 1.376 . S
C233 H220 0.930 . S
C233 C232 1.376 . S
C233 C234 1.388 . S
C234 H221 0.930 . S
C234 C233 1.388 . S
C234 C235 1.390 . S
C235 C234 1.390 . S
C235 C236 1.394 . S
C235 C241 1.465 . S
C236 C231 1.399 . S
C236 C235 1.394 . S
C236 C237 1.516 . S
C237 C236 1.516 . S
C237 C238 1.502 . S
C237 C239 1.561 . S
C237 C240 1.526 . S
C238 H222 0.959 . S
C238 H223 0.959 . S
C238 H224 0.961 . S
C238 C237 1.502 . S
C239 H225 0.960 . S
C239 H226 0.961 . S
C239 H227 0.959 . S
C239 C237 1.561 . S
C240 C237 1.526 . S
C240 C241 1.396 . S
C240 C245 1.390 . S
C241 C235 1.465 . S
C241 C240 1.396 . S
C241 C242 1.399 . S
C242 H228 0.929 . S
C242 C241 1.399 . S
C242 C243 1.385 . S
C243 H229 0.931 . S
C243 C242 1.385 . S
C243 C244 1.389 . S
C244 C243 1.389 . S
C244 C245 1.387 . S
C245 H230 0.930 . S
C245 C240 1.390 . S
C245 C244 1.387 . S
H246 C258 0.930 . S
H247 C260 0.930 . S
H248 C261 0.930 . S
H249 C265 0.959 . S
H250 C265 0.959 . S
H251 C265 0.961 . S
H252 C266 0.960 . S
H253 C266 0.961 . S
H254 C266 0.959 . S
H255 C269 0.929 . S
H256 C270 0.931 . S
H257 C272 0.930 . S
C258 H246 0.930 . S
C258 C259 1.399 . S
C258 C263 1.399 . S
C259 C258 1.399 . S
C259 C260 1.376 . S
C260 H247 0.930 . S
C260 C259 1.376 . S
C260 C261 1.388 . S
C261 H248 0.930 . S
C261 C260 1.388 . S
C261 C262 1.390 . S
C262 C261 1.390 . S
C262 C263 1.394 . S
C262 C268 1.465 . S
C263 C258 1.399 . S
C263 C262 1.394 . S
C263 C264 1.516 . S
C264 C263 1.516 . S
C264 C265 1.502 . S
C264 C266 1.561 . S
C264 C267 1.526 . S
C265 H249 0.959 . S
C265 H250 0.959 . S
C265 H251 0.961 . S
C265 C264 1.502 . S
C266 H252 0.960 . S
C266 H253 0.961 . S
C266 H254 0.959 . S
C266 C264 1.561 . S
C267 C264 1.526 . S
C267 C268 1.396 . S
C267 C272 1.390 . S
C268 C262 1.465 . S
C268 C267 1.396 . S
C268 C269 1.399 . S
C269 H255 0.929 . S
C269 C268 1.399 . S
C269 C270 1.385 . S
C270 H256 0.931 . S
C270 C269 1.385 . S
C270 C271 1.389 . S
C271 C270 1.389 . S
C271 C272 1.387 . S
C272 H257 0.930 . S
C272 C267 1.390 . S
C272 C271 1.387 . S
H273 C285 0.930 . S
H274 C287 0.930 . S
H275 C288 0.930 . S
H276 C292 0.959 . S
H277 C292 0.959 . S
H278 C292 0.961 . S
H279 C293 0.960 . S
H280 C293 0.961 . S
H281 C293 0.959 . S
H282 C296 0.929 . S
H283 C297 0.931 . S
H284 C299 0.930 . S
C285 H273 0.930 . S
C285 C286 1.399 . S
C285 C290 1.399 . S
C286 C285 1.399 . S
C286 C287 1.376 . S
C287 H274 0.930 . S
C287 C286 1.376 . S
C287 C288 1.388 . S
C288 H275 0.930 . S
C288 C287 1.388 . S
C288 C289 1.390 . S
C289 C288 1.390 . S
C289 C290 1.394 . S
C289 C295 1.465 . S
C290 C285 1.399 . S
C290 C289 1.394 . S
C290 C291 1.516 . S
C291 C290 1.516 . S
C291 C292 1.502 . S
C291 C293 1.561 . S
C291 C294 1.526 . S
C292 H276 0.959 . S
C292 H277 0.959 . S
C292 H278 0.961 . S
C292 C291 1.502 . S
C293 H279 0.960 . S
C293 H280 0.961 . S
C293 H281 0.959 . S
C293 C291 1.561 . S
C294 C291 1.526 . S
C294 C295 1.396 . S
C294 C299 1.390 . S
C295 C289 1.465 . S
C295 C294 1.396 . S
C295 C296 1.399 . S
C296 H282 0.929 . S
C296 C295 1.399 . S
C296 C297 1.385 . S
C297 H283 0.931 . S
C297 C296 1.385 . S
C297 C298 1.389 . S
C298 C297 1.389 . S
C298 C299 1.387 . S
C299 H284 0.930 . S
C299 C294 1.390 . S
C299 C298 1.387 . S
H300 C312 0.930 . S
H301 C314 0.930 . S
H302 C315 0.930 . S
H303 C319 0.959 . S
H304 C319 0.959 . S
H305 C319 0.961 . S
H306 C320 0.960 . S
H307 C320 0.961 . S
H308 C320 0.959 . S
H309 C323 0.929 . S
H310 C324 0.931 . S
H311 C326 0.930 . S
C312 H300 0.930 . S
C312 C313 1.399 . S
C312 C317 1.399 . S
C313 C312 1.399 . S
C313 C314 1.376 . S
C314 H301 0.930 . S
C314 C313 1.376 . S
C314 C315 1.388 . S
C315 H302 0.930 . S
C315 C314 1.388 . S
C315 C316 1.390 . S
C316 C315 1.390 . S
C316 C317 1.394 . S
C316 C322 1.465 . S
C317 C312 1.399 . S
C317 C316 1.394 . S
C317 C318 1.516 . S
C318 C317 1.516 . S
C318 C319 1.502 . S
C318 C320 1.561 . S
C318 C321 1.526 . S
C319 H303 0.959 . S
C319 H304 0.959 . S
C319 H305 0.961 . S
C319 C318 1.502 . S
C320 H306 0.960 . S
C320 H307 0.961 . S
C320 H308 0.959 . S
C320 C318 1.561 . S
C321 C318 1.526 . S
C321 C322 1.396 . S
C321 C326 1.390 . S
C322 C316 1.465 . S
C322 C321 1.396 . S
C322 C323 1.399 . S
C323 H309 0.929 . S
C323 C322 1.399 . S
C323 C324 1.385 . S
C324 H310 0.931 . S
C324 C323 1.385 . S
C324 C325 1.389 . S
C325 C324 1.389 . S
C325 C326 1.387 . S
C326 H311 0.930 . S
C326 C321 1.390 . S
C326 C325 1.387 . S
H327 C339 0.930 . S
H328 C341 0.930 . S
H329 C342 0.930 . S
H330 C346 0.959 . S
H331 C346 0.959 . S
H332 C346 0.961 . S
H333 C347 0.960 . S
H334 C347 0.961 . S
H335 C347 0.959 . S
H336 C350 0.929 . S
H337 C351 0.931 . S
H338 C353 0.930 . S
C339 H327 0.930 . S
C339 C340 1.399 . S
C339 C344 1.399 . S
C340 C339 1.399 . S
C340 C341 1.376 . S
C341 H328 0.930 . S
C341 C340 1.376 . S
C341 C342 1.388 . S
C342 H329 0.930 . S
C342 C341 1.388 . S
C342 C343 1.390 . S
C343 C342 1.390 . S
C343 C344 1.394 . S
C343 C349 1.465 . S
C344 C339 1.399 . S
C344 C343 1.394 . S
C344 C345 1.516 . S
C345 C344 1.516 . S
C345 C346 1.502 . S
C345 C347 1.561 . S
C345 C348 1.526 . S
C346 H330 0.959 . S
C346 H331 0.959 . S
C346 H332 0.961 . S
C346 C345 1.502 . S
C347 H333 0.960 . S
C347 H334 0.961 . S
C347 H335 0.959 . S
C347 C345 1.561 . S
C348 C345 1.526 . S
C348 C349 1.396 . S
C348 C353 1.390 . S
C349 C343 1.465 . S
C349 C348 1.396 . S
C349 C350 1.399 . S
C350 H336 0.929 . S
C350 C349 1.399 . S
C350 C351 1.385 . S
C351 H337 0.931 . S
C351 C350 1.385 . S
C351 C352 1.389 . S
C352 C351 1.389 . S
C352 C353 1.387 . S
C353 H338 0.930 . S
C353 C348 1.390 . S
C353 C352 1.387 . S
H354 C366 0.930 . S
H355 C368 0.930 . S
H356 C369 0.930 . S
H357 C373 0.959 . S
H358 C373 0.959 . S
H359 C373 0.961 . S
H360 C374 0.960 . S
H361 C374 0.961 . S
H362 C374 0.959 . S
H363 C377 0.929 . S
H364 C378 0.931 . S
H365 C380 0.930 . S
C366 H354 0.930 . S
C366 C367 1.399 . S
C366 C371 1.399 . S
C367 C366 1.399 . S
C367 C368 1.376 1_554 S
C368 H355 0.930 . S
C368 C367 1.376 1_556 S
C368 C369 1.388 . S
C369 H356 0.930 . S
C369 C368 1.388 . S
C369 C370 1.390 . S
C370 C369 1.390 . S
C370 C371 1.394 1_556 S
C370 C376 1.465 . S
C371 C366 1.399 . S
C371 C370 1.394 1_554 S
C371 C372 1.516 . S
C372 C371 1.516 . S
C372 C373 1.502 . S
C372 C374 1.561 . S
C372 C375 1.526 . S
C373 H357 0.959 . S
C373 H358 0.959 . S
C373 H359 0.961 . S
C373 C372 1.502 . S
C374 H360 0.960 . S
C374 H361 0.961 . S
C374 H362 0.959 . S
C374 C372 1.561 . S
C375 C372 1.526 . S
C375 C376 1.396 1_554 S
C375 C380 1.390 . S
C376 C370 1.465 . S
C376 C375 1.396 1_556 S
C376 C377 1.399 . S
C377 H363 0.929 . S
C377 C376 1.399 . S
C377 C378 1.385 . S
C378 H364 0.931 . S
C378 C377 1.385 . S
C378 C379 1.389 1_556 S
C379 C378 1.389 1_554 S
C379 C380 1.387 . S
C380 H365 0.930 . S
C380 C375 1.390 . S
C380 C379 1.387 . S
H381 C393 0.930 . S
H382 C395 0.930 . S
H383 C396 0.923 1_655 S
H384 C400 0.959 . S
H385 C400 0.959 . S
H386 C400 0.961 . S
H387 C401 0.960 1_455 S
H388 C401 0.961 . S
H389 C401 0.959 . S
H390 C404 0.929 . S
H391 C405 0.931 . S
H392 C407 0.930 . S
C393 H381 0.930 . S
C393 C394 1.399 . S
C393 C398 1.399 . S
C394 C393 1.399 . S
C394 C395 1.376 . S
C395 H382 0.930 . S
C395 C394 1.376 . S
C395 C396 1.390 . S
C396 H383 0.923 1_455 S
C396 C395 1.390 . S
C396 C397 1.404 1_455 S
C397 C396 1.404 1_655 S
C397 C398 1.384 1_655 S
C397 C403 1.464 . S
C398 C393 1.399 . S
C398 C397 1.384 1_455 S
C398 C399 1.516 . S
C399 C398 1.516 . S
C399 C400 1.502 . S
C399 C401 1.561 1_455 S
C399 C402 1.526 1_455 S
C400 H384 0.959 . S
C400 H385 0.959 . S
C400 H386 0.961 . S
C400 C399 1.502 . S
C401 H387 0.960 1_655 S
C401 H388 0.961 . S
C401 H389 0.959 . S
C401 C399 1.561 1_655 S
C402 C399 1.526 1_655 S
C402 C403 1.396 . S
C402 C407 1.390 . S
C403 C397 1.464 . S
C403 C402 1.396 . S
C403 C404 1.399 . S
C404 H390 0.929 . S
C404 C403 1.399 . S
C404 C405 1.385 . S
C405 H391 0.931 . S
C405 C404 1.385 . S
C405 C406 1.389 . S
C406 C405 1.389 . S
C406 C407 1.387 . S
C407 H392 0.930 . S
C407 C402 1.390 . S
C407 C406 1.387 . S
H408 C420 0.930 . S
H409 C422 0.930 . S
H410 C423 0.930 1_565 S
H411 C427 0.959 . S
H412 C427 0.959 . S
H413 C427 0.961 . S
H414 C428 0.960 1_545 S
H415 C428 0.961 . S
H416 C428 0.959 . S
H417 C431 0.929 . S
H418 C432 0.931 . S
H419 C434 0.930 . S
C420 H408 0.930 . S
C420 C421 1.399 . S
C420 C425 1.399 . S
C421 C420 1.399 . S
C421 C422 1.376 . S
C422 H409 0.930 . S
C422 C421 1.376 . S
C422 C423 1.388 . S
C423 H410 0.930 1_545 S
C423 C422 1.388 . S
C423 C424 1.382 1_545 S
C424 C423 1.382 1_565 S
C424 C425 1.384 1_565 S
C424 C430 1.482 . S
C425 C420 1.399 . S
C425 C424 1.384 1_545 S
C425 C426 1.516 . S
C426 C425 1.516 . S
C426 C427 1.502 . S
C426 C428 1.561 1_545 S
C426 C429 1.526 1_545 S
C427 H411 0.959 . S
C427 H412 0.959 . S
C427 H413 0.961 . S
C427 C426 1.502 . S
C428 H414 0.960 1_565 S
C428 H415 0.961 . S
C428 H416 0.959 . S
C428 C426 1.561 1_565 S
C429 C426 1.526 1_565 S
C429 C430 1.396 . S
C429 C434 1.390 . S
C430 C424 1.482 . S
C430 C429 1.396 . S
C430 C431 1.399 . S
C431 H417 0.929 . S
C431 C430 1.399 . S
C431 C432 1.385 . S
C432 H418 0.931 . S
C432 C431 1.385 . S
C432 C433 1.389 . S
C433 C432 1.389 . S
C433 C434 1.387 . S
C434 H419 0.930 . S
C434 C429 1.390 . S
C434 C433 1.387 . S
H435 C447 0.930 . S
H436 C449 0.930 . S
H437 C450 0.930 . S
H438 C454 0.959 . S
H439 C454 0.959 . S
H440 C454 0.961 . S
H441 C455 0.960 . S
H442 C455 0.961 . S
H443 C455 0.959 . S
H444 C458 0.929 . S
H445 C459 0.931 . S
H446 C461 0.930 . S
C447 H435 0.930 . S
C447 C448 1.399 . S
C447 C452 1.399 . S
C448 C447 1.399 . S
C448 C449 1.376 . S
C449 H436 0.930 . S
C449 C448 1.376 . S
C449 C450 1.388 . S
C450 H437 0.930 . S
C450 C449 1.388 . S
C450 C451 1.390 . S
C451 C450 1.390 . S
C451 C452 1.394 . S
C451 C457 1.465 . S
C452 C447 1.399 . S
C452 C451 1.394 . S
C452 C453 1.516 . S
C453 C452 1.516 . S
C453 C454 1.502 . S
C453 C455 1.561 . S
C453 C456 1.526 . S
C454 H438 0.959 . S
C454 H439 0.959 . S
C454 H440 0.961 . S
C454 C453 1.502 . S
C455 H441 0.960 . S
C455 H442 0.961 . S
C455 H443 0.959 . S
C455 C453 1.561 . S
C456 C453 1.526 . S
C456 C457 1.396 . S
C456 C461 1.390 . S
C457 C451 1.465 . S
C457 C456 1.396 . S
C457 C458 1.399 . S
C458 H444 0.929 . S
C458 C457 1.399 . S
C458 C459 1.385 . S
C459 H445 0.931 . S
C459 C458 1.385 . S
C459 C460 1.389 . S
C460 C459 1.389 . S
C460 C461 1.387 . S
C461 H446 0.930 . S
C461 C456 1.390 . S
C461 C460 1.387 . S
H462 C474 0.930 . S
H463 C476 0.930 . S
H464 C477 0.930 . S
H465 C481 0.959 . S
H466 C481 0.959 . S
H467 C481 0.961 . S
H468 C482 0.960 . S
H469 C482 0.961 . S
H470 C482 0.959 1_655 S
H471 C485 0.929 . S
H472 C486 0.931 . S
H473 C488 0.930 . S
C474 H462 0.930 . S
C474 C475 1.399 . S
C474 C479 1.399 . S
C475 C474 1.399 . S
C475 C476 1.376 1_556 S
C476 H463 0.930 . S
C476 C475 1.376 1_554 S
C476 C477 1.388 1_455 S
C477 H464 0.930 . S
C477 C476 1.388 1_655 S
C477 C478 1.390 1_554 S
C478 C477 1.390 1_556 S
C478 C479 1.394 1_655 S
C478 C484 1.465 . S
C479 C474 1.399 . S
C479 C478 1.394 1_455 S
C479 C480 1.516 . S
C480 C479 1.516 . S
C480 C481 1.502 . S
C480 C482 1.561 . S
C480 C483 1.526 1_455 S
C481 H465 0.959 . S
C481 H466 0.959 . S
C481 H467 0.961 . S
C481 C480 1.502 . S
C482 H468 0.960 . S
C482 H469 0.961 . S
C482 H470 0.959 1_455 S
C482 C480 1.561 . S
C483 C480 1.526 1_655 S
C483 C484 1.396 . S
C483 C488 1.390 . S
C484 C478 1.465 . S
C484 C483 1.396 . S
C484 C485 1.399 1_556 S
C485 H471 0.929 . S
C485 C484 1.399 1_554 S
C485 C486 1.385 . S
C486 H472 0.931 . S
C486 C485 1.385 . S
C486 C487 1.389 1_554 S
C487 C486 1.389 1_556 S
C487 C488 1.387 . S
C488 H473 0.930 . S
C488 C483 1.390 . S
C488 C487 1.387 . S
H489 C501 0.930 . S
H490 C503 0.930 . S
H491 C504 0.928 1_545 S
H492 C508 0.959 . S
H493 C508 0.959 . S
H494 C508 0.961 . S
H495 C509 0.960 . S
H496 C509 0.961 . S
H497 C509 0.959 . S
H498 C512 0.929 . S
H499 C513 0.931 . S
H500 C515 0.930 . S
C501 H489 0.930 . S
C501 C502 1.399 . S
C501 C506 1.399 . S
C502 C501 1.399 . S
C502 C503 1.376 . S
C503 H490 0.930 . S
C503 C502 1.376 . S
C503 C504 1.388 . S
C504 H491 0.928 1_565 S
C504 C503 1.388 . S
C504 C505 1.390 . S
C505 C504 1.390 . S
C505 C506 1.394 . S
C505 C511 1.465 1_565 S
C506 C501 1.399 . S
C506 C505 1.394 . S
C506 C507 1.516 . S
C507 C506 1.516 . S
C507 C508 1.502 . S
C507 C509 1.561 1_565 S
C507 C510 1.526 1_565 S
C508 H492 0.959 . S
C508 H493 0.959 . S
C508 H494 0.961 . S
C508 C507 1.502 . S
C509 H495 0.960 . S
C509 H496 0.961 . S
C509 H497 0.959 . S
C509 C507 1.561 1_545 S
C510 C507 1.526 1_545 S
C510 C511 1.396 . S
C510 C515 1.390 . S
C511 C505 1.465 1_545 S
C511 C510 1.396 . S
C511 C512 1.399 . S
C512 H498 0.929 . S
C512 C511 1.399 . S
C512 C513 1.385 . S
C513 H499 0.931 . S
C513 C512 1.385 . S
C513 C514 1.389 . S
C514 C513 1.389 . S
C514 C515 1.387 . S
C515 H500 0.930 . S
C515 C510 1.390 . S
C515 C514 1.387 . S
H516 C528 0.930 . S
H517 C530 0.930 . S
H518 C531 0.930 . S
H519 C535 0.959 . S
H520 C535 0.959 . S
H521 C535 0.961 . S
H522 C536 0.960 . S
H523 C536 0.961 . S
H524 C536 0.959 . S
H525 C539 0.929 . S
H526 C540 0.931 . S
H527 C542 0.930 . S
C528 H516 0.930 . S
C528 C529 1.399 . S
C528 C533 1.399 . S
C529 C528 1.399 . S
C529 C530 1.376 . S
C530 H517 0.930 . S
C530 C529 1.376 . S
C530 C531 1.388 . S
C531 H518 0.930 . S
C531 C530 1.388 . S
C531 C532 1.390 . S
C532 C531 1.390 . S
C532 C533 1.394 . S
C532 C538 1.465 . S
C533 C528 1.399 . S
C533 C532 1.394 . S
C533 C534 1.516 . S
C534 C533 1.516 . S
C534 C535 1.502 . S
C534 C536 1.561 . S
C534 C537 1.526 . S
C535 H519 0.959 . S
C535 H520 0.959 . S
C535 H521 0.961 . S
C535 C534 1.502 . S
C536 H522 0.960 . S
C536 H523 0.961 . S
C536 H524 0.959 . S
C536 C534 1.561 . S
C537 C534 1.526 . S
C537 C538 1.396 . S
C537 C542 1.390 . S
C538 C532 1.465 . S
C538 C537 1.396 . S
C538 C539 1.399 . S
C539 H525 0.929 . S
C539 C538 1.399 . S
C539 C540 1.385 . S
C540 H526 0.931 . S
C540 C539 1.385 . S
C540 C541 1.389 . S
C541 C540 1.389 . S
C541 C542 1.387 . S
C542 H527 0.930 . S
C542 C537 1.390 . S
C542 C541 1.387 . S
H543 C555 0.930 . S
H544 C557 0.930 . S
H545 C558 0.930 . S
H546 C562 0.959 . S
H547 C562 0.959 . S
H548 C562 0.961 . S
H549 C563 0.960 . S
H550 C563 0.949 1_455 S
H551 C563 0.959 . S
H552 C566 0.929 . S
H553 C567 0.931 . S
H554 C569 0.930 . S
C555 H543 0.930 . S
C555 C556 1.399 . S
C555 C560 1.399 1_655 S
C556 C555 1.399 . S
C556 C557 1.376 . S
C557 H544 0.930 . S
C557 C556 1.376 . S
C557 C558 1.388 1_655 S
C558 H545 0.930 . S
C558 C557 1.388 1_455 S
C558 C559 1.390 . S
C559 C558 1.390 . S
C559 C560 1.394 . S
C559 C565 1.465 . S
C560 C555 1.399 1_455 S
C560 C559 1.394 . S
C560 C561 1.516 . S
C561 C560 1.516 . S
C561 C562 1.502 . S
C561 C563 1.561 1_455 S
C561 C564 1.526 . S
C562 H546 0.959 . S
C562 H547 0.959 . S
C562 H548 0.961 . S
C562 C561 1.502 . S
C563 H549 0.960 . S
C563 H550 0.949 1_655 S
C563 H551 0.959 . S
C563 C561 1.561 1_655 S
C564 C561 1.526 . S
C564 C565 1.396 . S
C564 C569 1.390 . S
C565 C559 1.465 . S
C565 C564 1.396 . S
C565 C566 1.399 . S
C566 H552 0.929 . S
C566 C565 1.399 . S
C566 C567 1.385 . S
C567 H553 0.931 . S
C567 C566 1.385 . S
C567 C568 1.389 . S
C568 C567 1.389 . S
C568 C569 1.387 . S
C569 H554 0.930 . S
C569 C564 1.390 . S
C569 C568 1.387 . S
H570 C582 0.930 . S
H571 C584 0.930 . S
H572 C585 0.930 . S
H573 C589 0.959 . S
H574 C589 0.959 . S
H575 C589 0.961 . S
H576 C590 0.960 . S
H577 C590 0.961 . S
H578 C590 0.959 . S
H579 C593 0.929 . S
H580 C594 0.931 . S
H581 C596 0.930 . S
C582 H570 0.930 . S
C582 C583 1.399 . S
C582 C587 1.399 . S
C583 C582 1.399 . S
C583 C584 1.376 1_565 S
C584 H571 0.930 . S
C584 C583 1.376 1_545 S
C584 C585 1.388 . S
C585 H572 0.930 . S
C585 C584 1.388 . S
C585 C586 1.390 . S
C586 C585 1.390 . S
C586 C587 1.394 1_545 S
C586 C592 1.465 . S
C587 C582 1.399 . S
C587 C586 1.394 1_565 S
C587 C588 1.516 . S
C588 C587 1.516 . S
C588 C589 1.502 . S
C588 C590 1.561 . S
C588 C591 1.526 1_565 S
C589 H573 0.959 . S
C589 H574 0.959 . S
C589 H575 0.961 . S
C589 C588 1.502 . S
C590 H576 0.960 . S
C590 H577 0.961 . S
C590 H578 0.959 . S
C590 C588 1.561 . S
C591 C588 1.526 1_545 S
C591 C592 1.396 . S
C591 C596 1.390 . S
C592 C586 1.465 . S
C592 C591 1.396 . S
C592 C593 1.399 . S
C593 H579 0.929 . S
C593 C592 1.399 . S
C593 C594 1.385 . S
C594 H580 0.931 . S
C594 C593 1.385 . S
C594 C595 1.389 . S
C595 C594 1.389 . S
C595 C596 1.387 . S
C596 H581 0.930 . S
C596 C591 1.390 . S
C596 C595 1.387 . S
H597 C609 0.930 . S
H598 C611 0.930 . S
H599 C612 0.930 . S
H600 C616 0.959 . S
H601 C616 0.959 . S
H602 C616 0.961 . S
H603 C617 0.960 . S
H604 C617 0.961 . S
H605 C617 0.959 . S
H606 C620 0.929 . S
H607 C621 0.931 . S
H608 C623 0.930 . S
C609 H597 0.930 . S
C609 C610 1.399 . S
C609 C614 1.399 . S
C610 C609 1.399 . S
C610 C611 1.376 . S
C611 H598 0.930 . S
C611 C610 1.376 . S
C611 C612 1.388 . S
C612 H599 0.930 . S
C612 C611 1.388 . S
C612 C613 1.390 . S
C613 C612 1.390 . S
C613 C614 1.394 . S
C613 C619 1.465 . S
C614 C609 1.399 . S
C614 C613 1.394 . S
C614 C615 1.516 . S
C615 C614 1.516 . S
C615 C616 1.502 . S
C615 C617 1.561 . S
C615 C618 1.526 . S
C616 H600 0.959 . S
C616 H601 0.959 . S
C616 H602 0.961 . S
C616 C615 1.502 . S
C617 H603 0.960 . S
C617 H604 0.961 . S
C617 H605 0.959 . S
C617 C615 1.561 . S
C618 C615 1.526 . S
C618 C619 1.396 . S
C618 C623 1.390 . S
C619 C613 1.465 . S
C619 C618 1.396 . S
C619 C620 1.399 . S
C620 H606 0.929 . S
C620 C619 1.399 . S
C620 C621 1.385 . S
C621 H607 0.931 . S
C621 C620 1.385 . S
C621 C622 1.389 . S
C622 C621 1.389 . S
C622 C623 1.387 . S
C623 H608 0.930 . S
C623 C618 1.390 . S
C623 C622 1.387 . S
H624 C636 0.930 . S
H625 C638 0.930 . S
H626 C639 0.930 . S
H627 C643 0.959 . S
H628 C643 0.959 . S
H629 C643 0.961 . S
H630 C644 0.960 . S
H631 C644 0.961 . S
H632 C644 0.959 . S
H633 C647 0.929 1_455 S
H634 C648 0.931 . S
H635 C650 0.930 . S
C636 H624 0.930 . S
C636 C637 1.399 1_655 S
C636 C641 1.399 . S
C637 C636 1.399 1_455 S
C637 C638 1.376 . S
C638 H625 0.930 . S
C638 C637 1.376 . S
C638 C639 1.388 . S
C639 H626 0.930 . S
C639 C638 1.388 . S
C639 C640 1.390 1_455 S
C640 C639 1.390 1_655 S
C640 C641 1.394 . S
C640 C646 1.465 . S
C641 C636 1.399 . S
C641 C640 1.394 . S
C641 C642 1.516 . S
C642 C641 1.516 . S
C642 C643 1.502 . S
C642 C644 1.561 . S
C642 C645 1.526 . S
C643 H627 0.959 . S
C643 H628 0.959 . S
C643 H629 0.961 . S
C643 C642 1.502 . S
C644 H630 0.960 . S
C644 H631 0.961 . S
C644 H632 0.959 . S
C644 C642 1.561 . S
C645 C642 1.526 . S
C645 C646 1.396 . S
C645 C650 1.390 . S
C646 C640 1.465 . S
C646 C645 1.396 . S
C646 C647 1.399 . S
C647 H633 0.929 1_655 S
C647 C646 1.399 . S
C647 C648 1.385 . S
C648 H634 0.931 . S
C648 C647 1.385 . S
C648 C649 1.389 . S
C649 C648 1.389 . S
C649 C650 1.387 . S
C650 H635 0.930 . S
C650 C645 1.390 . S
C650 C649 1.387 . S
H651 C663 0.930 . S
H652 C665 0.930 . S
H653 C666 0.930 . S
H654 C670 0.959 . S
H655 C670 0.959 . S
H656 C670 0.961 . S
H657 C671 0.960 . S
H658 C671 0.961 . S
H659 C671 0.959 . S
H660 C674 0.929 . S
H661 C675 0.931 . S
H662 C677 0.930 . S
C663 H651 0.930 . S
C663 C664 1.399 . S
C663 C668 1.399 . S
C664 C663 1.399 . S
C664 C665 1.376 1_545 S
C665 H652 0.930 . S
C665 C664 1.376 1_565 S
C665 C666 1.388 . S
C666 H653 0.930 . S
C666 C665 1.388 . S
C666 C667 1.390 . S
C667 C666 1.390 . S
C667 C668 1.394 1_565 S
C667 C673 1.465 . S
C668 C663 1.399 . S
C668 C667 1.394 1_545 S
C668 C669 1.516 . S
C669 C668 1.516 . S
C669 C670 1.502 . S
C669 C671 1.561 . S
C669 C672 1.526 1_545 S
C670 H654 0.959 . S
C670 H655 0.959 . S
C670 H656 0.961 . S
C670 C669 1.502 . S
C671 H657 0.960 . S
C671 H658 0.961 . S
C671 H659 0.959 . S
C671 C669 1.561 . S
C672 C669 1.526 1_565 S
C672 C673 1.396 . S
C672 C677 1.390 . S
C673 C667 1.465 . S
C673 C672 1.396 . S
C673 C674 1.399 . S
C674 H660 0.929 . S
C674 C673 1.399 . S
C674 C675 1.385 . S
C675 H661 0.931 . S
C675 C674 1.385 . S
C675 C676 1.389 . S
C676 C675 1.389 . S
C676 C677 1.387 . S
C677 H662 0.930 . S
C677 C672 1.390 . S
C677 C676 1.387 . S
C205 C157 0.656 . S
C217 N18 0.651 . S
C232 C164 0.719 . S
C244 N45 0.731 . S
C259 C29 0.656 . S
C271 N82 0.656 . S
C286 C36 0.657 . S
C298 N114 0.657 . S
C313 C93 0.723 . S
C325 N146 0.732 . S
C340 C125 0.713 . S
C352 N173 0.728 . S
C367 C6 1.585 . S
C379 C102 1.539 . S
C394 C134 1.583 . S
C406 C34 1.541 . S
C421 C162 1.583 . S
C433 C70 1.541 . S
C448 C68 1.467 . S
C460 C189 1.528 . S
C475 C4 1.541 . S
C487 C100 1.460 . S
C502 C132 1.523 . S
C514 C61 1.480 . S
C529 C166 0.946 . S
C541 N13 0.902 . S
C556 N50 0.893 . S
C568 C2 0.903 . S
C583 N77 0.941 . S
C595 C38 0.907 . S
C610 C66 0.964 . S
C622 N109 0.951 . S
C637 N141 0.925 . S
C649 C98 0.960 . S
C664 N178 0.946 . S
C676 C130 0.910 . S
