# Generated by pormake.
# Topology umb, (4)-cn, num edge types: 1
# Building blocks:
#     Node 0, Type 0, BuildingBlock: CEKHIL_clean_sbu_0, # of connection points: 4
#     Node 1, Type 0, BuildingBlock: CEKHIL_clean_sbu_0, # of connection points: 4
#     Node 2, Type 0, BuildingBlock: CEKHIL_clean_sbu_0, # of connection points: 4
#     Node 3, Type 0, BuildingBlock: CEKHIL_clean_sbu_0, # of connection points: 4
#     Node 4, Type 0, BuildingBlock: CEKHIL_clean_sbu_0, # of connection points: 4
#     Node 5, Type 0, BuildingBlock: CEKHIL_clean_sbu_0, # of connection points: 4
#     Node 6, Type 0, BuildingBlock: CEKHIL_clean_sbu_0, # of connection points: 4
#     Node 7, Type 0, BuildingBlock: CEKHIL_clean_sbu_0, # of connection points: 4
#     Node 8, Type 0, BuildingBlock: CEKHIL_clean_sbu_0, # of connection points: 4
#     Node 9, Type 0, BuildingBlock: CEKHIL_clean_sbu_0, # of connection points: 4
#     Node 10, Type 0, BuildingBlock: CEKHIL_clean_sbu_0, # of connection points: 4
#     Node 11, Type 0, BuildingBlock: CEKHIL_clean_sbu_0, # of connection points: 4
#     Edge 12, Type (0, 0), BuildingBlock: OJICUG_clean_linker_0, # of connection points: 2
#     Edge 13, Type (0, 0), BuildingBlock: OJICUG_clean_linker_0, # of connection points: 2
#     Edge 14, Type (0, 0), BuildingBlock: OJICUG_clean_linker_0, # of connection points: 2
#     Edge 15, Type (0, 0), BuildingBlock: OJICUG_clean_linker_0, # of connection points: 2
#     Edge 16, Type (0, 0), BuildingBlock: OJICUG_clean_linker_0, # of connection points: 2
#     Edge 17, Type (0, 0), BuildingBlock: OJICUG_clean_linker_0, # of connection points: 2
#     Edge 18, Type (0, 0), BuildingBlock: OJICUG_clean_linker_0, # of connection points: 2
#     Edge 19, Type (0, 0), BuildingBlock: OJICUG_clean_linker_0, # of connection points: 2
#     Edge 20, Type (0, 0), BuildingBlock: OJICUG_clean_linker_0, # of connection points: 2
#     Edge 21, Type (0, 0), BuildingBlock: OJICUG_clean_linker_0, # of connection points: 2
#     Edge 22, Type (0, 0), BuildingBlock: OJICUG_clean_linker_0, # of connection points: 2
#     Edge 23, Type (0, 0), BuildingBlock: OJICUG_clean_linker_0, # of connection points: 2
#     Edge 24, Type (0, 0), BuildingBlock: OJICUG_clean_linker_0, # of connection points: 2
#     Edge 25, Type (0, 0), BuildingBlock: OJICUG_clean_linker_0, # of connection points: 2
#     Edge 26, Type (0, 0), BuildingBlock: OJICUG_clean_linker_0, # of connection points: 2
#     Edge 27, Type (0, 0), BuildingBlock: OJICUG_clean_linker_0, # of connection points: 2
#     Edge 28, Type (0, 0), BuildingBlock: OJICUG_clean_linker_0, # of connection points: 2
#     Edge 29, Type (0, 0), BuildingBlock: OJICUG_clean_linker_0, # of connection points: 2
#     Edge 30, Type (0, 0), BuildingBlock: OJICUG_clean_linker_0, # of connection points: 2
#     Edge 31, Type (0, 0), BuildingBlock: OJICUG_clean_linker_0, # of connection points: 2
#     Edge 32, Type (0, 0), BuildingBlock: OJICUG_clean_linker_0, # of connection points: 2
#     Edge 33, Type (0, 0), BuildingBlock: OJICUG_clean_linker_0, # of connection points: 2
#     Edge 34, Type (0, 0), BuildingBlock: OJICUG_clean_linker_0, # of connection points: 2
#     Edge 35, Type (0, 0), BuildingBlock: OJICUG_clean_linker_0, # of connection points: 2
# Relax obj value: 0.276
# Max RMSD: 0.250
# Mean RMSD: 0.250
data_MOF--net-umb--node1-CEKHIL_clean_sbu_0--edge1-OJICUG_clean_linker_0
_symmetry_space_group_name_H-M    P1
_symmetry_Int_Tables_number       1
_symmetry_cell_setting            triclinic
loop_
_symmetry_equiv_pos_as_xyz
'x, y, z'
_cell_length_a     34.734712
_cell_length_b     34.682607
_cell_length_c     25.660639
_cell_angle_alpha  89.866131
_cell_angle_beta   90.165787
_cell_angle_gamma 120.12219
loop_
_atom_site_label
_atom_site_type_symbol
_atom_site_fract_x
_atom_site_fract_y
_atom_site_fract_z
_atom_type_partial_charge
Co0 Co 0.51825 0.15605 0.33106 0.0
O1 O 0.47684 0.09492 0.31668 0.0
O2 O 0.54984 0.1238 0.32542 0.0
C3 C 0.49174 0.18516 0.27052 0.0
O4 O 0.57074 0.21768 0.34621 0.0
Co5 Co 0.48057 0.21166 0.37806 0.0
O6 O 0.54319 0.25933 0.37821 0.0
C7 C 0.51521 0.1678 0.44769 0.0
C8 C 0.5108 0.08894 0.3175 0.0
C9 C 0.57566 0.25379 0.36647 0.0
O10 O 0.5136 0.14386 0.40874 0.0
O11 O 0.50327 0.19715 0.44395 0.0
O12 O 0.51886 0.17137 0.25785 0.0
O13 O 0.47696 0.17598 0.3181 0.0
Co14 Co 0.35862 0.51503 0.66683 0.0
O15 O 0.37762 0.47365 0.65038 0.0
O16 O 0.42222 0.54686 0.65734 0.0
C17 C 0.30151 0.48828 0.60863 0.0
O18 O 0.34906 0.56704 0.68331 0.0
Co19 Co 0.26759 0.47605 0.71904 0.0
O20 O 0.27886 0.53715 0.71309 0.0
C21 C 0.3491 0.51498 0.78374 0.0
C22 C 0.41747 0.50774 0.64822 0.0
C23 C 0.31652 0.57056 0.70178 0.0
O24 O 0.36921 0.51108 0.74398 0.0
O25 O 0.30765 0.50273 0.78233 0.0
O26 O 0.34207 0.51559 0.59476 0.0
O27 O 0.29692 0.47302 0.65607 0.0
Co28 Co 0.82899 0.35011 1.00656 0.0
O29 O 0.88943 0.36682 0.9927 0.0
O30 O 0.8634 0.41358 0.99702 0.0
C31 C 0.7976 0.29315 0.94828 0.0
O32 O 0.76843 0.34382 1.01977 0.0
Co33 Co 0.77048 0.25899 0.05766 0.0
O34 O 0.72347 0.27411 0.04929 0.0
C35 C 0.81642 0.33966 0.12361 0.0
C36 C 0.89689 0.40727 0.98936 0.0
C37 C 0.73073 0.31275 0.037 0.0
O38 O 0.84121 0.35996 0.08425 0.0
O39 O 0.78582 0.29861 0.12143 0.0
O40 O 0.81357 0.33414 0.93401 0.0
O41 O 0.80622 0.28776 0.99636 0.0
Co42 Co 0.46821 0.84085 0.3276 0.0
O43 O 0.51308 0.90264 0.32784 0.0
O44 O 0.44041 0.87629 0.31933 0.0
C45 C 0.50152 0.81722 0.26973 0.0
O46 O 0.41293 0.77962 0.32475 0.0
Co47 Co 0.48986 0.77213 0.37272 0.0
O48 O 0.43667 0.73045 0.33261 0.0
C49 C 0.45307 0.81336 0.44247 0.0
C50 C 0.48055 0.91046 0.32141 0.0
C51 C 0.40632 0.73976 0.32303 0.0
O52 O 0.45959 0.84139 0.40589 0.0
O53 O 0.46284 0.78252 0.43728 0.0
O54 O 0.47958 0.83627 0.25443 0.0
O55 O 0.50802 0.8184 0.31995 0.0
Co56 Co 0.62501 0.47314 0.65855 0.0
O57 O 0.60618 0.51476 0.64238 0.0
O58 O 0.56184 0.44129 0.64566 0.0
C59 C 0.68463 0.50205 0.60437 0.0
O60 O 0.63461 0.42128 0.67482 0.0
Co61 Co 0.71338 0.51281 0.71804 0.0
O62 O 0.70105 0.45097 0.71542 0.0
C63 C 0.63064 0.47775 0.77834 0.0
C64 C 0.56644 0.48063 0.6387 0.0
C65 C 0.66519 0.41764 0.69893 0.0
O66 O 0.61064 0.47338 0.73478 0.0
O67 O 0.67296 0.495 0.7813 0.0
O68 O 0.64479 0.47544 0.58748 0.0
O69 O 0.68685 0.51561 0.65221 0.0
Co70 Co 0.14105 0.61404 0.98507 0.0
O71 O 0.07947 0.59403 0.97691 0.0
O72 O 0.10954 0.55083 0.97097 0.0
C73 C 0.16731 0.67496 0.93263 0.0
O74 O 0.20432 0.62634 0.99181 0.0
Co75 Co 0.19053 0.7014 0.04729 0.0
O76 O 0.24189 0.69623 1.02423 0.0
C77 C 0.14559 0.61786 0.10605 0.0
C78 C 0.07406 0.55467 0.97004 0.0
C79 C 0.24049 0.66134 1.00619 0.0
O80 O 0.13279 0.59824 0.06183 0.0
O81 O 0.16739 0.66042 0.11009 0.0
O82 O 0.15252 0.63548 0.91359 0.0
O83 O 0.15924 0.67552 0.98214 0.0
Co84 Co 0.83962 0.47139 0.40837 0.0
O85 O 0.90038 0.51839 0.40962 0.0
O86 O 0.87692 0.44649 0.42215 0.0
C87 C 0.81272 0.5046 0.46176 0.0
O88 O 0.77958 0.41445 0.41066 0.0
Co89 Co 0.76995 0.48769 0.35644 0.0
O90 O 0.7293 0.43631 0.39968 0.0
C91 C 0.81523 0.45107 0.29329 0.0
C92 C 0.90976 0.48743 0.4201 0.0
C93 C 0.73942 0.40687 0.41136 0.0
O94 O 0.84307 0.46078 0.331 0.0
O95 O 0.78293 0.45889 0.29551 0.0
O96 O 0.83232 0.48411 0.48001 0.0
O97 O 0.81484 0.5096 0.41121 0.0
Co98 Co 0.35398 0.83168 0.73616 0.0
O99 O 0.36911 0.89288 0.73733 0.0
O100 O 0.41674 0.86821 0.74687 0.0
C101 C 0.29499 0.80508 0.79157 0.0
O102 O 0.35032 0.77163 0.73813 0.0
Co103 Co 0.26605 0.76175 0.68722 0.0
O104 O 0.27816 0.72062 0.72767 0.0
C105 C 0.34567 0.80765 0.62024 0.0
C106 C 0.4097 0.90165 0.74487 0.0
C107 C 0.31799 0.73129 0.73876 0.0
O108 O 0.36565 0.83457 0.65823 0.0
O109 O 0.30531 0.77571 0.6236 0.0
O110 O 0.33553 0.82471 0.80867 0.0
O111 O 0.29119 0.80723 0.7412 0.0
Co112 Co 0.5208 0.37234 0.07746 0.0
O113 O 0.47578 0.38826 0.08156 0.0
O114 O 0.54801 0.4345 0.09474 0.0
C115 C 0.48647 0.30963 0.12698 0.0
O116 O 0.57505 0.36517 0.07646 0.0
Co117 Co 0.49356 0.28744 1.01342 0.0
O118 O 0.55013 0.29651 0.04275 0.0
C119 C 0.52889 0.37197 0.95696 0.0
C120 C 0.50768 0.428 0.09275 0.0
C121 C 0.58026 0.33228 0.06379 0.0
O122 O 0.53231 0.39045 1.00134 0.0
O123 O 0.51108 0.32966 0.95191 0.0
O124 O 0.50754 0.34879 0.1479 0.0
O125 O 0.48074 0.30984 0.07673 0.0
Co126 Co 0.1522 0.52651 0.40754 0.0
O127 O 0.09228 0.48737 0.42724 0.0
O128 O 0.12352 0.56093 0.42071 0.0
C129 C 0.18259 0.4968 0.46127 0.0
O130 O 0.21391 0.57611 0.38774 0.0
Co131 Co 0.19526 0.48244 0.34702 0.0
O132 O 0.24684 0.54321 0.34615 0.0
C133 C 0.14712 0.51766 0.28794 0.0
C134 C 0.08828 0.52243 0.43018 0.0
C135 C 0.24663 0.57775 0.36239 0.0
O136 O 0.13445 0.52453 0.33209 0.0
O137 O 0.17072 0.49889 0.28426 0.0
O138 O 0.17217 0.52556 0.4778 0.0
O139 O 0.16897 0.482 0.41422 0.0
Co140 Co 0.61263 0.15039 0.74094 0.0
O141 O 0.59499 0.08882 0.74451 0.0
O142 O 0.54921 0.116 0.75005 0.0
C143 C 0.67037 0.17494 0.79796 0.0
O144 O 0.62007 0.21229 0.73956 0.0
Co145 Co 0.70219 0.21514 0.69198 0.0
O146 O 0.69336 0.25933 0.72989 0.0
C147 C 0.62275 0.1719 0.6245 0.0
C148 C 0.55477 0.08157 0.74979 0.0
C149 C 0.65427 0.25168 0.73945 0.0
O150 O 0.60198 0.14604 0.66291 0.0
O151 O 0.6636 0.20273 0.62772 0.0
O152 O 0.62971 0.15789 0.81384 0.0
O153 O 0.67483 0.17166 0.74795 0.0
Co154 Co 0.46539 0.63061 0.06747 0.0
O155 O 0.50743 0.61233 0.08293 0.0
O156 O 0.43409 0.56745 0.08139 0.0
C157 C 0.49525 0.69057 0.12143 0.0
O158 O 0.41279 0.63978 0.05342 0.0
Co159 Co 0.49995 0.71785 1.00868 0.0
O160 O 0.4424 0.71108 0.02796 0.0
C161 C 0.46098 0.63397 0.94935 0.0
C162 C 0.4736 0.5726 0.08835 0.0
C163 C 0.40909 0.67355 0.03993 0.0
O164 O 0.46512 0.61573 0.99091 0.0
O165 O 0.47266 0.67532 0.94775 0.0
O166 O 0.46873 0.65073 0.13844 0.0
O167 O 0.50801 0.69291 0.07314 0.0
C168 C 0.57159 0.20806 0.5178 0.0
C169 C 0.53989 0.16735 0.49521 0.0
H170 H 0.62362 0.24132 0.57441 0.0
C171 C 0.53675 0.12779 0.51437 0.0
H172 H 0.57563 0.23924 0.50332 0.0
C173 C 0.56381 0.12894 0.55609 0.0
C174 C 0.59618 0.16986 0.57773 0.0
H175 H 0.51321 0.09597 0.49727 0.0
H176 H 0.55982 0.09792 0.57105 0.0
C177 C 0.59974 0.20934 0.55791 0.0
C178 C 0.41283 0.53967 0.84849 0.0
C179 C 0.37675 0.5429 0.8284 0.0
H180 H 0.46731 0.56516 0.90345 0.0
C181 C 0.3702 0.5773 0.8471 0.0
H182 H 0.41925 0.51403 0.83435 0.0
C183 C 0.399 0.60786 0.88429 0.0
C184 C 0.43455 0.60427 0.90521 0.0
H185 H 0.3434 0.58145 0.83177 0.0
H186 H 0.39266 0.63374 0.89781 0.0
C187 C 0.44068 0.56928 0.88753 0.0
C188 C 0.8573 0.43144 0.22739 0.0
C189 C 0.81683 0.42401 0.24889 0.0
H190 H 0.88919 0.41131 0.17021 0.0
C191 C 0.77705 0.38741 0.23056 0.0
H192 H 0.88856 0.45901 0.24104 0.0
C193 C 0.77756 0.359 0.19208 0.0
C194 C 0.81779 0.36689 0.16952 0.0
H195 H 0.74535 0.38012 0.24686 0.0
H196 H 0.7461 0.33152 0.1787 0.0
C197 C 0.8577 0.40385 0.18725 0.0
C198 C 0.39412 0.77212 0.5099 0.0
C199 C 0.42761 0.81302 0.48956 0.0
H200 H 0.3413 0.73857 0.56527 0.0
C201 C 0.43303 0.85263 0.51157 0.0
H202 H 0.38838 0.74096 0.49332 0.0
C203 C 0.40642 0.85125 0.55378 0.0
C204 C 0.37239 0.81023 0.57336 0.0
H205 H 0.45813 0.88468 0.49646 0.0
H206 H 0.41215 0.88226 0.57077 0.0
C207 C 0.36657 0.77075 0.55063 0.0
C208 C 0.53635 0.38885 0.86031 0.0
C209 C 0.55195 0.40168 0.91144 0.0
H210 H 0.54806 0.40361 0.77883 0.0
C211 C 0.59245 0.44202 0.91875 0.0
H212 H 0.50555 0.35801 0.85318 0.0
C213 C 0.61766 0.46771 0.87599 0.0
C214 C 0.60228 0.45459 0.82478 0.0
H215 H 0.60581 0.4527 0.95761 0.0
H216 H 0.64953 0.49738 0.88298 0.0
C217 C 0.56077 0.41529 0.8177 0.0
C218 C 0.13781 0.57857 0.24692 0.0
C219 C 0.14013 0.53926 0.24103 0.0
H220 H 0.1385 0.63456 0.20964 0.0
C221 C 0.14088 0.52466 0.19024 0.0
H222 H 0.13782 0.59134 0.28541 0.0
C223 C 0.14007 0.54901 0.14673 0.0
C224 C 0.13994 0.58945 0.15271 0.0
H225 H 0.14303 0.49492 0.18409 0.0
H226 H 0.14175 0.53718 0.10824 0.0
C227 C 0.13842 0.60364 0.20346 0.0
C228 C 0.70033 0.33046 0.37564 0.0
C229 C 0.70227 0.36125 0.41259 0.0
H230 H 0.65784 0.27198 0.33072 0.0
C231 C 0.66365 0.35317 0.4386 0.0
H232 H 0.72987 0.33676 0.35443 0.0
C233 C 0.62288 0.31727 0.42432 0.0
C234 C 0.61998 0.28874 0.38368 0.0
H235 H 0.66457 0.37676 0.46696 0.0
H236 H 0.59338 0.31299 0.44387 0.0
C237 C 0.65918 0.29411 0.36129 0.0
C238 C 0.35856 0.69437 0.70677 0.0
C239 C 0.32725 0.6948 0.74101 0.0
H240 H 0.37931 0.65375 0.66622 0.0
C241 C 0.29696 0.65583 0.76688 0.0
H242 H 0.38182 0.72428 0.68588 0.0
C243 C 0.2951 0.61598 0.7552 0.0
C244 C 0.3233 0.61432 0.71708 0.0
H245 H 0.27262 0.65566 0.79339 0.0
H246 H 0.27015 0.5861 0.7747 0.0
C247 C 0.35664 0.6541 0.69484 0.0
C248 C 0.65958 0.36708 0.03937 0.0
C249 C 0.62349 0.33569 0.06906 0.0
H250 H 0.72234 0.38404 1.00469 0.0
C251 C 0.62491 0.29987 0.09195 0.0
H252 H 0.65834 0.39444 1.02054 0.0
C253 C 0.66043 0.29341 0.0822 0.0
C254 C 0.69519 0.32258 0.04906 0.0
H255 H 0.59701 0.27516 0.11453 0.0
H256 H 0.65974 0.26452 0.09943 0.0
C257 C 0.69554 0.36062 0.02949 0.0
C258 C 0.35355 0.66235 0.29884 0.0
C259 C 0.36099 0.70198 0.32191 0.0
H260 H 0.31192 0.59218 0.29391 0.0
C261 C 0.32849 0.7017 0.35463 0.0
H262 H 0.37837 0.66197 0.27365 0.0
C263 C 0.29047 0.66137 0.3674 0.0
C264 C 0.28479 0.62115 0.34746 0.0
H265 H 0.33412 0.73201 0.37355 0.0
H266 H 0.26668 0.66153 0.39447 0.0
C267 C 0.31583 0.62235 0.31138 0.0
C268 C 0.68594 0.37031 0.75065 0.0
C269 C 0.65778 0.37328 0.71328 0.0
H270 H 0.70537 0.32843 0.78986 0.0
C271 C 0.62267 0.33395 0.69208 0.0
H272 H 0.71253 0.39973 0.76914 0.0
C273 C 0.61816 0.29267 0.70511 0.0
C274 C 0.64865 0.2906 0.73946 0.0
H275 H 0.59999 0.3352 0.66399 0.0
H276 H 0.59313 0.26297 0.68539 0.0
C277 C 0.68143 0.32943 0.7635 0.0
C278 C 0.32206 0.70253 1.00313 0.0
C279 C 0.28265 0.66143 1.00723 0.0
H280 H 0.39202 0.73882 1.01233 0.0
C281 C 0.28455 0.62327 1.02141 0.0
H282 H 0.32147 0.73247 0.99224 0.0
C283 C 0.32562 0.62683 0.03325 0.0
C284 C 0.36491 0.66857 0.03105 0.0
H285 H 0.25434 0.59133 1.02558 0.0
H286 H 0.32655 0.59715 0.04435 0.0
C287 C 0.36254 0.70616 1.01526 0.0
C288 C 0.53989 0.03619 0.32118 0.0
C289 C 0.5042 0.04377 0.31383 0.0
H290 H 0.56028 0.98767 0.32945 0.0
C291 C 0.46109 0.00732 0.30656 0.0
H292 H 0.57342 0.0637 0.32694 0.0
C293 C 0.45352 0.96396 0.30829 0.0
C294 C 0.48893 0.95627 0.31718 0.0
H295 H 0.43291 0.01217 0.30067 0.0
H296 H 0.41982 0.9365 0.30344 0.0
C297 C 0.5323 0.9927 0.3228 0.0
C298 C 0.44865 0.45776 0.63531 0.0
C299 C 0.45545 0.50123 0.63884 0.0
H300 H 0.47873 0.41704 0.63217 0.0
C301 C 0.49876 0.53776 0.63641 0.0
H302 H 0.41547 0.42891 0.63666 0.0
C303 C 0.53488 0.53087 0.63329 0.0
C304 C 0.52818 0.48735 0.633 0.0
H305 H 0.50484 0.57156 0.63859 0.0
H306 H 0.56809 0.55972 0.63338 0.0
C307 C 0.48478 0.45087 0.63259 0.0
C308 C 0.94923 0.48761 0.97236 0.0
C309 C 0.94186 0.44433 0.97871 0.0
H310 H -0.00289 0.55646 0.96333 0.0
C311 C 0.97808 0.43687 0.97656 0.0
H312 H 0.92187 0.49419 0.97322 0.0
C313 C 0.02135 0.47259 0.97095 0.0
C314 C 0.02883 0.51613 0.96725 0.0
H315 H 0.97321 0.40364 0.98095 0.0
H316 H 0.04889 0.46628 0.97163 0.0
C317 C -0.00766 0.52319 0.96651 0.0
C318 C 0.03523 0.55076 0.4227 0.0
C319 C 0.0439 0.51682 0.43694 0.0
H320 H 0.98525 0.56781 0.40581 0.0
C321 C 0.00842 0.47459 0.45055 0.0
H322 H 0.06204 0.58353 0.4119 0.0
C323 C 0.96475 0.46541 0.44638 0.0
C324 C 0.95585 0.49842 0.42895 0.0
H325 H 0.01424 0.44788 0.46217 0.0
H326 H 0.93801 0.4321 0.45539 0.0
C327 C -0.00865 0.5416 0.41879 0.0
C328 C 0.47327 0.0272 0.74962 0.0
C329 C 0.51721 0.03584 0.75265 0.0
H330 H 0.40442 0.97746 0.74465 0.0
C331 C 0.52538 0.00014 0.75571 0.0
H332 H 0.46616 0.05419 0.74722 0.0
C333 C 0.49025 0.95643 0.75427 0.0
C334 C 0.44639 0.9477 0.74959 0.0
H335 H 0.559 0.00588 0.75834 0.0
H336 H 0.49759 0.92955 0.75581 0.0
C337 C 0.43805 0.98336 0.748 0.0
C338 C 0.44568 0.49107 0.09357 0.0
C339 C 0.48089 0.53504 0.09761 0.0
H340 H 0.42672 0.42234 0.0892 0.0
C341 C 0.52442 0.54323 0.10583 0.0
H342 H 0.41184 0.48391 0.08747 0.0
C343 C 0.53303 0.50816 0.10662 0.0
C344 C 0.49823 0.4644 0.09928 0.0
H345 H 0.5522 0.5769 0.10964 0.0
H346 H 0.56709 0.51551 0.11093 0.0
C347 C 0.4543 0.45595 0.09441 0.0
C348 C 0.46948 0.24219 0.2493 0.0
C349 C 0.48095 0.21088 0.23252 0.0
H350 H 0.46179 0.29776 0.22826 0.0
C351 C 0.48659 0.20735 0.17858 0.0
H352 H 0.46492 0.24578 0.29038 0.0
C353 C 0.48361 0.23637 0.1426 0.0
C354 C 0.47613 0.27032 0.16005 0.0
H355 H 0.49506 0.18317 0.16432 0.0
H356 H 0.49032 0.23419 0.10191 0.0
C357 C 0.46759 0.27186 0.21354 0.0
C358 C 0.1966 0.47815 0.55078 0.0
C359 C 0.2063 0.48192 0.49697 0.0
H360 H 0.21835 0.47566 0.62871 0.0
C361 C 0.24374 0.48014 0.48042 0.0
H362 H 0.16797 0.47969 0.56467 0.0
C363 C 0.27296 0.4787 0.51727 0.0
C364 C 0.26484 0.47804 0.57128 0.0
H365 H 0.2524 0.48363 0.43947 0.0
H366 H 0.30336 0.48065 0.50355 0.0
C367 C 0.22528 0.47568 0.58758 0.0
C368 C 0.73087 0.21874 0.92676 0.0
C369 C 0.76997 0.25696 0.91091 0.0
H370 H 0.66862 0.16287 0.90298 0.0
C371 C 0.77895 0.26441 0.85706 0.0
H372 H 0.72281 0.21233 0.96776 0.0
C373 C 0.74836 0.23575 0.81978 0.0
C374 C 0.70751 0.19965 0.83559 0.0
H375 H 0.80893 0.29373 0.84366 0.0
H376 H 0.75544 0.2436 0.77882 0.0
C377 C 0.69978 0.19066 0.88947 0.0
C378 C 0.50904 0.76766 0.14079 0.0
C379 C 0.50854 0.72888 0.15722 0.0
H380 H 0.50717 0.82606 0.16395 0.0
C381 C 0.51273 0.72303 0.21099 0.0
H382 H 0.5055 0.77296 0.09986 0.0
C383 C 0.51446 0.75373 0.2478 0.0
C384 C 0.51076 0.79039 0.23175 0.0
H385 H 0.51244 0.69336 0.22485 0.0
H386 H 0.51559 0.74705 0.28885 0.0
C387 C 0.50972 0.79787 0.17771 0.0
C388 C 0.76196 0.51618 0.5874 0.0
C389 C 0.72295 0.51414 0.56924 0.0
H390 H 0.82107 0.51485 0.56711 0.0
C391 C 0.71717 0.51596 0.51498 0.0
H392 H 0.76715 0.5144 0.62878 0.0
C393 C 0.74825 0.51684 0.47948 0.0
C394 C 0.78526 0.51475 0.49751 0.0
H395 H 0.68732 0.51451 0.49983 0.0
H396 H 0.74165 0.51604 0.43811 0.0
C397 C 0.79261 0.51612 0.55187 0.0
C398 C 0.23285 0.75208 0.9174 0.0
C399 C 0.1946 0.71429 0.89875 0.0
H400 H 0.29475 0.81034 0.89778 0.0
C401 C 0.18662 0.71023 0.8445 0.0
H402 H 0.24011 0.75619 0.95872 0.0
C403 C 0.21749 0.74153 0.80947 0.0
C404 C 0.25764 0.77717 0.82779 0.0
H405 H 0.15732 0.68143 0.82886 0.0
H406 H 0.21117 0.73614 0.76802 0.0
C407 C 0.26424 0.78293 0.88225 0.0
loop_
_geom_bond_atom_site_label_1
_geom_bond_atom_site_label_2
_geom_bond_distance
_geom_bond_site_symmetry_2
_ccdc_geom_bond_type
Co0 O1 2.216 . S
Co0 O2 2.091 . S
Co0 O4 2.004 . S
Co0 O10 2.021 . S
Co0 O12 2.137 . S
Co0 O13 2.244 . S
O1 Co0 2.216 . S
O1 C8 1.247 . S
O2 Co0 2.091 . S
O2 C8 1.261 . S
C3 O12 1.247 . S
C3 O13 1.272 . S
O4 Co0 2.004 . S
O4 C9 1.259 . S
Co5 O6 2.061 . S
Co5 O11 2.052 . S
Co5 O13 2.135 . S
O6 Co5 2.061 . S
O6 C9 1.235 . S
C7 O10 1.238 . S
C7 O11 1.241 . S
C8 O1 1.247 . S
C8 O2 1.261 . S
C9 O4 1.259 . S
C9 O6 1.235 . S
O10 Co0 2.021 . S
O10 C7 1.238 . S
O11 Co5 2.052 . S
O11 C7 1.241 . S
O12 Co0 2.137 . S
O12 C3 1.247 . S
O13 Co0 2.244 . S
O13 C3 1.272 . S
O13 Co5 2.135 . S
Co14 O15 2.216 . S
Co14 O16 2.091 . S
Co14 O18 2.004 . S
Co14 O24 2.021 . S
Co14 O26 2.137 . S
Co14 O27 2.244 . S
O15 Co14 2.216 . S
O15 C22 1.247 . S
O16 Co14 2.091 . S
O16 C22 1.261 . S
C17 O26 1.247 . S
C17 O27 1.272 . S
O18 Co14 2.004 . S
O18 C23 1.259 . S
Co19 O20 2.061 . S
Co19 O25 2.052 . S
Co19 O27 2.135 . S
O20 Co19 2.061 . S
O20 C23 1.235 . S
C21 O24 1.238 . S
C21 O25 1.241 . S
C22 O15 1.247 . S
C22 O16 1.261 . S
C23 O18 1.259 . S
C23 O20 1.235 . S
O24 Co14 2.021 . S
O24 C21 1.238 . S
O25 Co19 2.052 . S
O25 C21 1.241 . S
O26 Co14 2.137 . S
O26 C17 1.247 . S
O27 Co14 2.244 . S
O27 C17 1.272 . S
O27 Co19 2.135 . S
Co28 O29 2.216 . S
Co28 O30 2.091 . S
Co28 O32 2.004 . S
Co28 O38 2.021 1_556 S
Co28 O40 2.137 . S
Co28 O41 2.244 . S
O29 Co28 2.216 . S
O29 C36 1.247 . S
O30 Co28 2.091 . S
O30 C36 1.261 . S
C31 O40 1.247 . S
C31 O41 1.272 . S
O32 Co28 2.004 . S
O32 C37 1.259 . S
Co33 O34 2.061 . S
Co33 O39 2.052 . S
Co33 O41 2.135 1_554 S
O34 Co33 2.061 . S
O34 C37 1.235 1_554 S
C35 O38 1.238 . S
C35 O39 1.241 . S
C36 O29 1.247 . S
C36 O30 1.261 . S
C37 O32 1.259 . S
C37 O34 1.235 1_556 S
O38 Co28 2.021 1_554 S
O38 C35 1.238 . S
O39 Co33 2.052 . S
O39 C35 1.241 . S
O40 Co28 2.137 . S
O40 C31 1.247 . S
O41 Co28 2.244 . S
O41 C31 1.272 . S
O41 Co33 2.135 1_556 S
Co42 O43 2.216 . S
Co42 O44 2.091 . S
Co42 O46 2.004 . S
Co42 O52 2.021 . S
Co42 O54 2.137 . S
Co42 O55 2.244 . S
O43 Co42 2.216 . S
O43 C50 1.247 . S
O44 Co42 2.091 . S
O44 C50 1.261 . S
C45 O54 1.247 . S
C45 O55 1.272 . S
O46 Co42 2.004 . S
O46 C51 1.259 . S
Co47 O48 2.061 . S
Co47 O53 2.052 . S
Co47 O55 2.135 . S
O48 Co47 2.061 . S
O48 C51 1.235 . S
C49 O52 1.238 . S
C49 O53 1.241 . S
C50 O43 1.247 . S
C50 O44 1.261 . S
C51 O46 1.259 . S
C51 O48 1.235 . S
O52 Co42 2.021 . S
O52 C49 1.238 . S
O53 Co47 2.052 . S
O53 C49 1.241 . S
O54 Co42 2.137 . S
O54 C45 1.247 . S
O55 Co42 2.244 . S
O55 C45 1.272 . S
O55 Co47 2.135 . S
Co56 O57 2.216 . S
Co56 O58 2.091 . S
Co56 O60 2.004 . S
Co56 O66 2.021 . S
Co56 O68 2.137 . S
Co56 O69 2.244 . S
O57 Co56 2.216 . S
O57 C64 1.247 . S
O58 Co56 2.091 . S
O58 C64 1.261 . S
C59 O68 1.247 . S
C59 O69 1.272 . S
O60 Co56 2.004 . S
O60 C65 1.259 . S
Co61 O62 2.061 . S
Co61 O67 2.052 . S
Co61 O69 2.135 . S
O62 Co61 2.061 . S
O62 C65 1.235 . S
C63 O66 1.238 . S
C63 O67 1.241 . S
C64 O57 1.247 . S
C64 O58 1.261 . S
C65 O60 1.259 . S
C65 O62 1.235 . S
O66 Co56 2.021 . S
O66 C63 1.238 . S
O67 Co61 2.052 . S
O67 C63 1.241 . S
O68 Co56 2.137 . S
O68 C59 1.247 . S
O69 Co56 2.244 . S
O69 C59 1.272 . S
O69 Co61 2.135 . S
Co70 O71 2.216 . S
Co70 O72 2.091 . S
Co70 O74 2.004 . S
Co70 O80 2.021 1_556 S
Co70 O82 2.137 . S
Co70 O83 2.244 . S
O71 Co70 2.216 . S
O71 C78 1.247 . S
O72 Co70 2.091 . S
O72 C78 1.261 . S
C73 O82 1.247 . S
C73 O83 1.272 . S
O74 Co70 2.004 . S
O74 C79 1.259 . S
Co75 O76 2.061 . S
Co75 O81 2.052 . S
Co75 O83 2.135 1_554 S
O76 Co75 2.061 . S
O76 C79 1.235 1_554 S
C77 O80 1.238 . S
C77 O81 1.241 . S
C78 O71 1.247 . S
C78 O72 1.261 . S
C79 O74 1.259 . S
C79 O76 1.235 1_556 S
O80 Co70 2.021 1_554 S
O80 C77 1.238 . S
O81 Co75 2.052 . S
O81 C77 1.241 . S
O82 Co70 2.137 . S
O82 C73 1.247 . S
O83 Co70 2.244 . S
O83 C73 1.272 . S
O83 Co75 2.135 1_556 S
Co84 O85 2.216 . S
Co84 O86 2.091 . S
Co84 O88 2.004 . S
Co84 O94 2.021 . S
Co84 O96 2.137 . S
Co84 O97 2.244 . S
O85 Co84 2.216 . S
O85 C92 1.247 . S
O86 Co84 2.091 . S
O86 C92 1.261 . S
C87 O96 1.247 . S
C87 O97 1.272 . S
O88 Co84 2.004 . S
O88 C93 1.259 . S
Co89 O90 2.061 . S
Co89 O95 2.052 . S
Co89 O97 2.135 . S
O90 Co89 2.061 . S
O90 C93 1.235 . S
C91 O94 1.238 . S
C91 O95 1.241 . S
C92 O85 1.247 . S
C92 O86 1.261 . S
C93 O88 1.259 . S
C93 O90 1.235 . S
O94 Co84 2.021 . S
O94 C91 1.238 . S
O95 Co89 2.052 . S
O95 C91 1.241 . S
O96 Co84 2.137 . S
O96 C87 1.247 . S
O97 Co84 2.244 . S
O97 C87 1.272 . S
O97 Co89 2.135 . S
Co98 O99 2.216 . S
Co98 O100 2.091 . S
Co98 O102 2.004 . S
Co98 O108 2.021 . S
Co98 O110 2.137 . S
Co98 O111 2.244 . S
O99 Co98 2.216 . S
O99 C106 1.247 . S
O100 Co98 2.091 . S
O100 C106 1.261 . S
C101 O110 1.247 . S
C101 O111 1.272 . S
O102 Co98 2.004 . S
O102 C107 1.259 . S
Co103 O104 2.061 . S
Co103 O109 2.052 . S
Co103 O111 2.135 . S
O104 Co103 2.061 . S
O104 C107 1.235 . S
C105 O108 1.238 . S
C105 O109 1.241 . S
C106 O99 1.247 . S
C106 O100 1.261 . S
C107 O102 1.259 . S
C107 O104 1.235 . S
O108 Co98 2.021 . S
O108 C105 1.238 . S
O109 Co103 2.052 . S
O109 C105 1.241 . S
O110 Co98 2.137 . S
O110 C101 1.247 . S
O111 Co98 2.244 . S
O111 C101 1.272 . S
O111 Co103 2.135 . S
Co112 O113 2.216 . S
Co112 O114 2.091 . S
Co112 O116 2.004 . S
Co112 O122 2.021 1_554 S
Co112 O124 2.137 . S
Co112 O125 2.244 . S
O113 Co112 2.216 . S
O113 C120 1.247 . S
O114 Co112 2.091 . S
O114 C120 1.261 . S
C115 O124 1.247 . S
C115 O125 1.272 . S
O116 Co112 2.004 . S
O116 C121 1.259 . S
Co117 O118 2.061 1_556 S
Co117 O123 2.052 . S
Co117 O125 2.135 1_556 S
O118 Co117 2.061 1_554 S
O118 C121 1.235 . S
C119 O122 1.238 . S
C119 O123 1.241 . S
C120 O113 1.247 . S
C120 O114 1.261 . S
C121 O116 1.259 . S
C121 O118 1.235 . S
O122 Co112 2.021 1_556 S
O122 C119 1.238 . S
O123 Co117 2.052 . S
O123 C119 1.241 . S
O124 Co112 2.137 . S
O124 C115 1.247 . S
O125 Co112 2.244 . S
O125 C115 1.272 . S
O125 Co117 2.135 1_554 S
Co126 O127 2.216 . S
Co126 O128 2.091 . S
Co126 O130 2.004 . S
Co126 O136 2.021 . S
Co126 O138 2.137 . S
Co126 O139 2.244 . S
O127 Co126 2.216 . S
O127 C134 1.247 . S
O128 Co126 2.091 . S
O128 C134 1.261 . S
C129 O138 1.247 . S
C129 O139 1.272 . S
O130 Co126 2.004 . S
O130 C135 1.259 . S
Co131 O132 2.061 . S
Co131 O137 2.052 . S
Co131 O139 2.135 . S
O132 Co131 2.061 . S
O132 C135 1.235 . S
C133 O136 1.238 . S
C133 O137 1.241 . S
C134 O127 1.247 . S
C134 O128 1.261 . S
C135 O130 1.259 . S
C135 O132 1.235 . S
O136 Co126 2.021 . S
O136 C133 1.238 . S
O137 Co131 2.052 . S
O137 C133 1.241 . S
O138 Co126 2.137 . S
O138 C129 1.247 . S
O139 Co126 2.244 . S
O139 C129 1.272 . S
O139 Co131 2.135 . S
Co140 O141 2.216 . S
Co140 O142 2.091 . S
Co140 O144 2.004 . S
Co140 O150 2.021 . S
Co140 O152 2.137 . S
Co140 O153 2.244 . S
O141 Co140 2.216 . S
O141 C148 1.247 . S
O142 Co140 2.091 . S
O142 C148 1.261 . S
C143 O152 1.247 . S
C143 O153 1.272 . S
O144 Co140 2.004 . S
O144 C149 1.259 . S
Co145 O146 2.061 . S
Co145 O151 2.052 . S
Co145 O153 2.135 . S
O146 Co145 2.061 . S
O146 C149 1.235 . S
C147 O150 1.238 . S
C147 O151 1.241 . S
C148 O141 1.247 . S
C148 O142 1.261 . S
C149 O144 1.259 . S
C149 O146 1.235 . S
O150 Co140 2.021 . S
O150 C147 1.238 . S
O151 Co145 2.052 . S
O151 C147 1.241 . S
O152 Co140 2.137 . S
O152 C143 1.247 . S
O153 Co140 2.244 . S
O153 C143 1.272 . S
O153 Co145 2.135 . S
Co154 O155 2.216 . S
Co154 O156 2.091 . S
Co154 O158 2.004 . S
Co154 O164 2.021 1_554 S
Co154 O166 2.137 . S
Co154 O167 2.244 . S
O155 Co154 2.216 . S
O155 C162 1.247 . S
O156 Co154 2.091 . S
O156 C162 1.261 . S
C157 O166 1.247 . S
C157 O167 1.272 . S
O158 Co154 2.004 . S
O158 C163 1.259 . S
Co159 O160 2.061 1_556 S
Co159 O165 2.052 . S
Co159 O167 2.135 1_556 S
O160 Co159 2.061 1_554 S
O160 C163 1.235 . S
C161 O164 1.238 . S
C161 O165 1.241 . S
C162 O155 1.247 . S
C162 O156 1.261 . S
C163 O158 1.259 . S
C163 O160 1.235 . S
O164 Co154 2.021 1_556 S
O164 C161 1.238 . S
O165 Co159 2.052 . S
O165 C161 1.241 . S
O166 Co154 2.137 . S
O166 C157 1.247 . S
O167 Co154 2.244 . S
O167 C157 1.272 . S
O167 Co159 2.135 1_554 S
C168 C169 1.387 . S
C168 H172 0.950 . S
C168 C177 1.390 . S
C169 C168 1.387 . S
C169 C171 1.387 . S
H170 C177 0.950 . S
C171 C169 1.387 . S
C171 C173 1.390 . S
C171 H175 0.950 . S
H172 C168 0.950 . S
C173 C171 1.390 . S
C173 C174 1.387 . S
C173 H176 0.950 . S
C174 C173 1.387 . S
C174 C177 1.387 . S
H175 C171 0.950 . S
H176 C173 0.950 . S
C177 C168 1.390 . S
C177 H170 0.950 . S
C177 C174 1.387 . S
C178 C179 1.387 . S
C178 H182 0.950 . S
C178 C187 1.390 . S
C179 C178 1.387 . S
C179 C181 1.387 . S
H180 C187 0.950 . S
C181 C179 1.387 . S
C181 C183 1.390 . S
C181 H185 0.950 . S
H182 C178 0.950 . S
C183 C181 1.390 . S
C183 C184 1.387 . S
C183 H186 0.950 . S
C184 C183 1.387 . S
C184 C187 1.387 . S
H185 C181 0.950 . S
H186 C183 0.950 . S
C187 C178 1.390 . S
C187 H180 0.950 . S
C187 C184 1.387 . S
C188 C189 1.387 . S
C188 H192 0.950 . S
C188 C197 1.390 . S
C189 C188 1.387 . S
C189 C191 1.387 . S
H190 C197 0.950 . S
C191 C189 1.387 . S
C191 C193 1.390 . S
C191 H195 0.950 . S
H192 C188 0.950 . S
C193 C191 1.390 . S
C193 C194 1.387 . S
C193 H196 0.950 . S
C194 C193 1.387 . S
C194 C197 1.387 . S
H195 C191 0.950 . S
H196 C193 0.950 . S
C197 C188 1.390 . S
C197 H190 0.950 . S
C197 C194 1.387 . S
C198 C199 1.387 . S
C198 H202 0.950 . S
C198 C207 1.390 . S
C199 C198 1.387 . S
C199 C201 1.387 . S
H200 C207 0.950 . S
C201 C199 1.387 . S
C201 C203 1.390 . S
C201 H205 0.950 . S
H202 C198 0.950 . S
C203 C201 1.390 . S
C203 C204 1.387 . S
C203 H206 0.950 . S
C204 C203 1.387 . S
C204 C207 1.387 . S
H205 C201 0.950 . S
H206 C203 0.950 . S
C207 C198 1.390 . S
C207 H200 0.950 . S
C207 C204 1.387 . S
C208 C209 1.387 . S
C208 H212 0.950 . S
C208 C217 1.390 . S
C209 C208 1.387 . S
C209 C211 1.387 . S
H210 C217 0.950 . S
C211 C209 1.387 . S
C211 C213 1.390 . S
C211 H215 0.950 . S
H212 C208 0.950 . S
C213 C211 1.390 . S
C213 C214 1.387 . S
C213 H216 0.950 . S
C214 C213 1.387 . S
C214 C217 1.387 . S
H215 C211 0.950 . S
H216 C213 0.950 . S
C217 C208 1.390 . S
C217 H210 0.950 . S
C217 C214 1.387 . S
C218 C219 1.387 . S
C218 H222 0.950 . S
C218 C227 1.390 . S
C219 C218 1.387 . S
C219 C221 1.387 . S
H220 C227 0.950 . S
C221 C219 1.387 . S
C221 C223 1.390 . S
C221 H225 0.950 . S
H222 C218 0.950 . S
C223 C221 1.390 . S
C223 C224 1.387 . S
C223 H226 0.950 . S
C224 C223 1.387 . S
C224 C227 1.387 . S
H225 C221 0.950 . S
H226 C223 0.950 . S
C227 C218 1.390 . S
C227 H220 0.950 . S
C227 C224 1.387 . S
C228 C229 1.387 . S
C228 H232 0.950 . S
C228 C237 1.390 . S
C229 C228 1.387 . S
C229 C231 1.387 . S
H230 C237 0.950 . S
C231 C229 1.387 . S
C231 C233 1.390 . S
C231 H235 0.950 . S
H232 C228 0.950 . S
C233 C231 1.390 . S
C233 C234 1.387 . S
C233 H236 0.950 . S
C234 C233 1.387 . S
C234 C237 1.387 . S
H235 C231 0.950 . S
H236 C233 0.950 . S
C237 C228 1.390 . S
C237 H230 0.950 . S
C237 C234 1.387 . S
C238 C239 1.387 . S
C238 H242 0.950 . S
C238 C247 1.390 . S
C239 C238 1.387 . S
C239 C241 1.387 . S
H240 C247 0.950 . S
C241 C239 1.387 . S
C241 C243 1.390 . S
C241 H245 0.950 . S
H242 C238 0.950 . S
C243 C241 1.390 . S
C243 C244 1.387 . S
C243 H246 0.950 . S
C244 C243 1.387 . S
C244 C247 1.387 . S
H245 C241 0.950 . S
H246 C243 0.950 . S
C247 C238 1.390 . S
C247 H240 0.950 . S
C247 C244 1.387 . S
C248 C249 1.387 . S
C248 H252 0.950 . S
C248 C257 1.392 . S
C249 C248 1.387 . S
C249 C251 1.387 . S
H250 C257 0.949 1_556 S
C251 C249 1.387 . S
C251 C253 1.392 . S
C251 H255 0.950 . S
H252 C248 0.950 . S
C253 C251 1.392 . S
C253 C254 1.387 1_554 S
C253 H256 0.949 1_554 S
C254 C253 1.387 1_556 S
C254 C257 1.387 1_556 S
H255 C251 0.950 . S
H256 C253 0.949 1_556 S
C257 C248 1.392 . S
C257 H250 0.949 1_554 S
C257 C254 1.387 1_554 S
C258 C259 1.387 . S
C258 H262 0.950 . S
C258 C267 1.390 . S
C259 C258 1.387 . S
C259 C261 1.387 . S
H260 C267 0.950 . S
C261 C259 1.387 . S
C261 C263 1.390 . S
C261 H265 0.950 . S
H262 C258 0.950 . S
C263 C261 1.390 . S
C263 C264 1.387 . S
C263 H266 0.950 . S
C264 C263 1.387 . S
C264 C267 1.387 . S
H265 C261 0.950 . S
H266 C263 0.950 . S
C267 C258 1.390 . S
C267 H260 0.950 . S
C267 C264 1.387 . S
C268 C269 1.387 . S
C268 H272 0.950 . S
C268 C277 1.390 . S
C269 C268 1.387 . S
C269 C271 1.387 . S
H270 C277 0.950 . S
C271 C269 1.387 . S
C271 C273 1.390 . S
C271 H275 0.950 . S
H272 C268 0.950 . S
C273 C271 1.390 . S
C273 C274 1.387 . S
C273 H276 0.950 . S
C274 C273 1.387 . S
C274 C277 1.387 . S
H275 C271 0.950 . S
H276 C273 0.950 . S
C277 C268 1.390 . S
C277 H270 0.950 . S
C277 C274 1.387 . S
C278 C279 1.387 . S
C278 H282 0.949 . S
C278 C287 1.391 1_556 S
C279 C278 1.387 . S
C279 C281 1.387 . S
H280 C287 0.950 . S
C281 C279 1.387 . S
C281 C283 1.390 1_556 S
C281 H285 0.950 . S
H282 C278 0.949 . S
C283 C281 1.390 1_554 S
C283 C284 1.387 . S
C283 H286 0.950 . S
C284 C283 1.387 . S
C284 C287 1.387 . S
H285 C281 0.950 . S
H286 C283 0.950 . S
C287 C278 1.391 1_554 S
C287 H280 0.950 . S
C287 C284 1.387 . S
C288 C289 1.387 . S
C288 H292 0.950 . S
C288 C297 1.390 1_545 S
C289 C288 1.387 . S
C289 C291 1.387 . S
H290 C297 0.950 . S
C291 C289 1.387 . S
C291 C293 1.390 1_545 S
C291 H295 0.950 . S
H292 C288 0.950 . S
C293 C291 1.390 1_565 S
C293 C294 1.387 . S
C293 H296 0.950 . S
C294 C293 1.387 . S
C294 C297 1.387 . S
H295 C291 0.950 . S
H296 C293 0.950 . S
C297 C288 1.390 1_565 S
C297 H290 0.950 . S
C297 C294 1.387 . S
C298 C299 1.387 . S
C298 H302 0.950 . S
C298 C307 1.390 . S
C299 C298 1.387 . S
C299 C301 1.387 . S
H300 C307 0.950 . S
C301 C299 1.387 . S
C301 C303 1.390 . S
C301 H305 0.950 . S
H302 C298 0.950 . S
C303 C301 1.390 . S
C303 C304 1.387 . S
C303 H306 0.950 . S
C304 C303 1.387 . S
C304 C307 1.387 . S
H305 C301 0.950 . S
H306 C303 0.950 . S
C307 C298 1.390 . S
C307 H300 0.950 . S
C307 C304 1.387 . S
C308 C309 1.387 . S
C308 H312 0.950 . S
C308 C317 1.390 1_655 S
C309 C308 1.387 . S
C309 C311 1.387 1_556 S
H310 C317 0.950 . S
C311 C309 1.387 1_554 S
C311 C313 1.390 1_655 S
C311 H315 0.950 . S
H312 C308 0.950 . S
C313 C311 1.390 1_455 S
C313 C314 1.387 1_554 S
C313 H316 0.950 . S
C314 C313 1.387 1_556 S
C314 C317 1.387 . S
H315 C311 0.950 . S
H316 C313 0.950 . S
C317 C308 1.390 1_455 S
C317 H310 0.950 . S
C317 C314 1.387 . S
C318 C319 1.387 . S
C318 H322 0.950 . S
C318 C327 1.390 1_455 S
C319 C318 1.387 . S
C319 C321 1.387 . S
H320 C327 0.950 . S
C321 C319 1.387 . S
C321 C323 1.390 1_455 S
C321 H325 0.950 . S
H322 C318 0.950 . S
C323 C321 1.390 1_655 S
C323 C324 1.387 . S
C323 H326 0.950 . S
C324 C323 1.387 . S
C324 C327 1.387 . S
H325 C321 0.950 . S
H326 C323 0.950 . S
C327 C318 1.390 1_655 S
C327 H320 0.950 . S
C327 C324 1.387 . S
C328 C329 1.387 . S
C328 H332 0.950 . S
C328 C337 1.390 1_545 S
C329 C328 1.387 . S
C329 C331 1.387 . S
H330 C337 0.950 . S
C331 C329 1.387 . S
C331 C333 1.390 1_545 S
C331 H335 0.950 . S
H332 C328 0.950 . S
C333 C331 1.390 1_565 S
C333 C334 1.387 . S
C333 H336 0.950 . S
C334 C333 1.387 . S
C334 C337 1.387 . S
H335 C331 0.950 . S
H336 C333 0.950 . S
C337 C328 1.390 1_565 S
C337 H330 0.950 . S
C337 C334 1.387 . S
C338 C339 1.387 . S
C338 H342 0.950 1_554 S
C338 C347 1.390 . S
C339 C338 1.387 . S
C339 C341 1.387 . S
H340 C347 0.950 1_556 S
C341 C339 1.387 . S
C341 C343 1.390 . S
C341 H345 0.950 . S
H342 C338 0.950 1_556 S
C343 C341 1.390 . S
C343 C344 1.387 . S
C343 H346 0.950 . S
C344 C343 1.387 . S
C344 C347 1.387 . S
H345 C341 0.950 . S
H346 C343 0.950 . S
C347 C338 1.390 . S
C347 H340 0.950 1_554 S
C347 C344 1.387 . S
C348 C349 1.387 . S
C348 H352 0.950 . S
C348 C357 1.390 . S
C349 C348 1.387 . S
C349 C351 1.387 . S
H350 C357 0.950 . S
C351 C349 1.387 . S
C351 C353 1.390 . S
C351 H355 0.950 . S
H352 C348 0.950 . S
C353 C351 1.390 . S
C353 C354 1.387 . S
C353 H356 0.950 . S
C354 C353 1.387 . S
C354 C357 1.387 . S
H355 C351 0.950 . S
H356 C353 0.950 . S
C357 C348 1.390 . S
C357 H350 0.950 . S
C357 C354 1.387 . S
C358 C359 1.387 . S
C358 H362 0.950 . S
C358 C367 1.390 . S
C359 C358 1.387 . S
C359 C361 1.387 . S
H360 C367 0.950 . S
C361 C359 1.387 . S
C361 C363 1.390 . S
C361 H365 0.950 . S
H362 C358 0.950 . S
C363 C361 1.390 . S
C363 C364 1.387 . S
C363 H366 0.950 . S
C364 C363 1.387 . S
C364 C367 1.387 . S
H365 C361 0.950 . S
H366 C363 0.950 . S
C367 C358 1.390 . S
C367 H360 0.950 . S
C367 C364 1.387 . S
C368 C369 1.387 . S
C368 H372 0.950 . S
C368 C377 1.390 . S
C369 C368 1.387 . S
C369 C371 1.387 . S
H370 C377 0.950 . S
C371 C369 1.387 . S
C371 C373 1.390 . S
C371 H375 0.950 . S
H372 C368 0.950 . S
C373 C371 1.390 . S
C373 C374 1.387 . S
C373 H376 0.950 . S
C374 C373 1.387 . S
C374 C377 1.387 . S
H375 C371 0.950 . S
H376 C373 0.950 . S
C377 C368 1.390 . S
C377 H370 0.950 . S
C377 C374 1.387 . S
C378 C379 1.387 . S
C378 H382 0.950 . S
C378 C387 1.390 . S
C379 C378 1.387 . S
C379 C381 1.387 . S
H380 C387 0.950 . S
C381 C379 1.387 . S
C381 C383 1.390 . S
C381 H385 0.950 . S
H382 C378 0.950 . S
C383 C381 1.390 . S
C383 C384 1.387 . S
C383 H386 0.950 . S
C384 C383 1.387 . S
C384 C387 1.387 . S
H385 C381 0.950 . S
H386 C383 0.950 . S
C387 C378 1.390 . S
C387 H380 0.950 . S
C387 C384 1.387 . S
C388 C389 1.387 . S
C388 H392 0.950 . S
C388 C397 1.390 . S
C389 C388 1.387 . S
C389 C391 1.387 . S
H390 C397 0.950 . S
C391 C389 1.387 . S
C391 C393 1.390 . S
C391 H395 0.950 . S
H392 C388 0.950 . S
C393 C391 1.390 . S
C393 C394 1.387 . S
C393 H396 0.950 . S
C394 C393 1.387 . S
C394 C397 1.387 . S
H395 C391 0.950 . S
H396 C393 0.950 . S
C397 C388 1.390 . S
C397 H390 0.950 . S
C397 C394 1.387 . S
C398 C399 1.387 . S
C398 H402 0.950 . S
C398 C407 1.390 . S
C399 C398 1.387 . S
C399 C401 1.387 . S
H400 C407 0.950 . S
C401 C399 1.387 . S
C401 C403 1.390 . S
C401 H405 0.950 . S
H402 C398 0.950 . S
C403 C401 1.390 . S
C403 C404 1.387 . S
C403 H406 0.950 . S
C404 C403 1.387 . S
C404 C407 1.387 . S
H405 C401 0.950 . S
H406 C403 0.950 . S
C407 C398 1.390 . S
C407 H400 0.950 . S
C407 C404 1.387 . S
C169 C7 1.809 . S
C174 C147 1.809 . S
C179 C21 1.812 . S
C184 C161 1.812 . S
C189 C91 1.811 . S
C194 C35 1.812 . S
C199 C49 1.809 . S
C204 C105 1.809 . S
C209 C119 1.811 . S
C214 C63 1.812 . S
C219 C133 1.810 . S
C224 C77 1.808 . S
C229 C93 0.753 . S
C234 C9 0.755 . S
C239 C107 0.753 . S
C244 C23 0.755 . S
C249 C121 0.754 . S
C254 C37 0.754 . S
C259 C51 0.759 . S
C264 C135 0.755 . S
C269 C65 0.755 . S
C274 C149 0.759 . S
C279 C79 0.759 . S
C284 C163 0.759 . S
C289 C8 1.515 . S
C294 C50 1.515 . S
C299 C22 1.517 . S
C304 C64 1.517 . S
C309 C36 1.517 . S
C314 C78 1.517 . S
C319 C134 1.515 . S
C324 C92 1.515 . S
C329 C148 1.515 . S
C334 C106 1.515 . S
C339 C162 1.515 . S
C344 C120 1.515 . S
C349 C3 1.626 . S
C354 C115 1.623 . S
C359 C129 1.624 . S
C364 C17 1.624 . S
C369 C31 1.626 . S
C374 C143 1.625 . S
C379 C157 1.625 . S
C384 C45 1.624 . S
C389 C59 1.625 . S
C394 C87 1.625 . S
C399 C73 1.626 . S
C404 C101 1.623 . S
