# Generated by pormake.
# Topology unb, (4)-cn, num edge types: 1
# Building blocks:
#     Node 0, Type 0, BuildingBlock: AZAVOO_clean_sbu_0, # of connection points: 4
#     Node 1, Type 0, BuildingBlock: AZAVOO_clean_sbu_0, # of connection points: 4
#     Node 2, Type 0, BuildingBlock: AZAVOO_clean_sbu_0, # of connection points: 4
#     Node 3, Type 0, BuildingBlock: AZAVOO_clean_sbu_0, # of connection points: 4
#     Node 4, Type 0, BuildingBlock: AZAVOO_clean_sbu_0, # of connection points: 4
#     Node 5, Type 0, BuildingBlock: AZAVOO_clean_sbu_0, # of connection points: 4
#     Node 6, Type 0, BuildingBlock: AZAVOO_clean_sbu_0, # of connection points: 4
#     Node 7, Type 0, BuildingBlock: AZAVOO_clean_sbu_0, # of connection points: 4
#     Node 8, Type 0, BuildingBlock: AZAVOO_clean_sbu_0, # of connection points: 4
#     Node 9, Type 0, BuildingBlock: AZAVOO_clean_sbu_0, # of connection points: 4
#     Node 10, Type 0, BuildingBlock: AZAVOO_clean_sbu_0, # of connection points: 4
#     Node 11, Type 0, BuildingBlock: AZAVOO_clean_sbu_0, # of connection points: 4
#     Node 12, Type 0, BuildingBlock: AZAVOO_clean_sbu_0, # of connection points: 4
#     Node 13, Type 0, BuildingBlock: AZAVOO_clean_sbu_0, # of connection points: 4
#     Node 14, Type 0, BuildingBlock: AZAVOO_clean_sbu_0, # of connection points: 4
#     Node 15, Type 0, BuildingBlock: AZAVOO_clean_sbu_0, # of connection points: 4
#     Node 16, Type 0, BuildingBlock: AZAVOO_clean_sbu_0, # of connection points: 4
#     Node 17, Type 0, BuildingBlock: AZAVOO_clean_sbu_0, # of connection points: 4
#     Edge 18, Type (0, 0), BuildingBlock: CIFDUS_clean_linker_0, # of connection points: 2
#     Edge 19, Type (0, 0), BuildingBlock: CIFDUS_clean_linker_0, # of connection points: 2
#     Edge 20, Type (0, 0), BuildingBlock: CIFDUS_clean_linker_0, # of connection points: 2
#     Edge 21, Type (0, 0), BuildingBlock: CIFDUS_clean_linker_0, # of connection points: 2
#     Edge 22, Type (0, 0), BuildingBlock: CIFDUS_clean_linker_0, # of connection points: 2
#     Edge 23, Type (0, 0), BuildingBlock: CIFDUS_clean_linker_0, # of connection points: 2
#     Edge 24, Type (0, 0), BuildingBlock: CIFDUS_clean_linker_0, # of connection points: 2
#     Edge 25, Type (0, 0), BuildingBlock: CIFDUS_clean_linker_0, # of connection points: 2
#     Edge 26, Type (0, 0), BuildingBlock: CIFDUS_clean_linker_0, # of connection points: 2
#     Edge 27, Type (0, 0), BuildingBlock: CIFDUS_clean_linker_0, # of connection points: 2
#     Edge 28, Type (0, 0), BuildingBlock: CIFDUS_clean_linker_0, # of connection points: 2
#     Edge 29, Type (0, 0), BuildingBlock: CIFDUS_clean_linker_0, # of connection points: 2
#     Edge 30, Type (0, 0), BuildingBlock: CIFDUS_clean_linker_0, # of connection points: 2
#     Edge 31, Type (0, 0), BuildingBlock: CIFDUS_clean_linker_0, # of connection points: 2
#     Edge 32, Type (0, 0), BuildingBlock: CIFDUS_clean_linker_0, # of connection points: 2
#     Edge 33, Type (0, 0), BuildingBlock: CIFDUS_clean_linker_0, # of connection points: 2
#     Edge 34, Type (0, 0), BuildingBlock: CIFDUS_clean_linker_0, # of connection points: 2
#     Edge 35, Type (0, 0), BuildingBlock: CIFDUS_clean_linker_0, # of connection points: 2
#     Edge 36, Type (0, 0), BuildingBlock: CIFDUS_clean_linker_0, # of connection points: 2
#     Edge 37, Type (0, 0), BuildingBlock: CIFDUS_clean_linker_0, # of connection points: 2
#     Edge 38, Type (0, 0), BuildingBlock: CIFDUS_clean_linker_0, # of connection points: 2
#     Edge 39, Type (0, 0), BuildingBlock: CIFDUS_clean_linker_0, # of connection points: 2
#     Edge 40, Type (0, 0), BuildingBlock: CIFDUS_clean_linker_0, # of connection points: 2
#     Edge 41, Type (0, 0), BuildingBlock: CIFDUS_clean_linker_0, # of connection points: 2
#     Edge 42, Type (0, 0), BuildingBlock: CIFDUS_clean_linker_0, # of connection points: 2
#     Edge 43, Type (0, 0), BuildingBlock: CIFDUS_clean_linker_0, # of connection points: 2
#     Edge 44, Type (0, 0), BuildingBlock: CIFDUS_clean_linker_0, # of connection points: 2
#     Edge 45, Type (0, 0), BuildingBlock: CIFDUS_clean_linker_0, # of connection points: 2
#     Edge 46, Type (0, 0), BuildingBlock: CIFDUS_clean_linker_0, # of connection points: 2
#     Edge 47, Type (0, 0), BuildingBlock: CIFDUS_clean_linker_0, # of connection points: 2
#     Edge 48, Type (0, 0), BuildingBlock: CIFDUS_clean_linker_0, # of connection points: 2
#     Edge 49, Type (0, 0), BuildingBlock: CIFDUS_clean_linker_0, # of connection points: 2
#     Edge 50, Type (0, 0), BuildingBlock: CIFDUS_clean_linker_0, # of connection points: 2
#     Edge 51, Type (0, 0), BuildingBlock: CIFDUS_clean_linker_0, # of connection points: 2
#     Edge 52, Type (0, 0), BuildingBlock: CIFDUS_clean_linker_0, # of connection points: 2
#     Edge 53, Type (0, 0), BuildingBlock: CIFDUS_clean_linker_0, # of connection points: 2
# Relax obj value: 0.013
# Max RMSD: 0.022
# Mean RMSD: 0.022
data_MOF--net-unb--node1-AZAVOO_clean_sbu_0--edge1-CIFDUS_clean_linker_0
_symmetry_space_group_name_H-M    P1
_symmetry_Int_Tables_number       1
_symmetry_cell_setting            triclinic
loop_
_symmetry_equiv_pos_as_xyz
'x, y, z'
_cell_length_a     59.877433
_cell_length_b     60.001744
_cell_length_c     20.596464
_cell_angle_alpha  90.012448
_cell_angle_beta   89.934376
_cell_angle_gamma 119.99442
loop_
_atom_site_label
_atom_site_type_symbol
_atom_site_fract_x
_atom_site_fract_y
_atom_site_fract_z
_atom_type_partial_charge
Mg0 Mg 0.12361 0.24967 0.08102 0.0
O1 O 0.13088 0.27666 0.99376 0.0
O2 O 0.09973 0.28687 0.99355 0.0
Mg3 Mg 0.07454 0.26922 0.0834 0.0
C4 C 0.11988 0.28818 0.96858 0.0
C5 C 0.17034 0.2427 0.10886 0.0
O6 O 0.15902 0.23843 0.16585 0.0
O7 O 0.14167 0.28478 0.14967 0.0
O8 O 0.11002 0.29432 0.14598 0.0
O9 O 0.09533 0.21592 0.02159 0.0
O10 O 0.08447 0.23887 0.08407 0.0
C11 C 0.13203 0.29876 0.16639 0.0
C12 C 0.07772 0.22052 0.04293 0.0
O13 O 0.16167 0.25025 0.06263 0.0
Mg14 Mg 0.75584 0.87677 0.09223 0.0
O15 O 0.72421 0.85403 0.01695 0.0
O16 O 0.70802 0.81225 0.0389 0.0
Mg17 Mg 0.72985 0.80804 0.12506 0.0
C18 C 0.70842 0.83032 0.00515 0.0
C19 C 0.76339 0.93218 0.10105 0.0
O20 O 0.76671 0.92861 0.16243 0.0
O21 O 0.72488 0.86784 0.1698 0.0
O22 O 0.71384 0.82709 0.19274 0.0
O23 O 0.78607 0.87562 0.02967 0.0
O24 O 0.76245 0.84586 0.10172 0.0
C25 C 0.71254 0.84737 0.20364 0.0
C26 C 0.77951 0.8537 0.05646 0.0
O27 O 0.7573 0.91388 0.06115 0.0
Mg28 Mg 0.12398 0.88319 0.05835 0.0
O29 O 0.14241 0.87517 0.96827 0.0
O30 O 0.18443 0.90473 0.96961 0.0
Mg31 Mg 0.19366 0.92983 0.05948 0.0
C32 C 0.16506 0.88548 0.9435 0.0
C33 C 0.07506 0.83963 0.98765 0.0
O34 O 0.08799 0.85357 0.93728 0.0
O35 O 0.1403 0.86352 0.12335 0.0
O36 O 0.1821 0.89367 0.12016 0.0
O37 O 0.11913 0.9132 0.00399 0.0
O38 O 0.15389 0.92135 0.05943 0.0
C39 C 0.16379 0.87191 0.13948 0.0
C40 C 0.1424 0.92948 0.02189 0.0
O41 O 0.08535 0.84592 0.04362 0.0
Mg42 Mg 0.24217 0.12543 0.90146 0.0
O43 O 0.2703 0.1309 0.98565 0.0
O44 O 0.27999 0.09957 0.97597 0.0
Mg45 Mg 0.26007 0.07537 0.88654 0.0
C46 C 0.28199 0.11921 0.00546 0.0
C47 C 0.24017 0.16854 0.98145 0.0
O48 O 0.23812 0.15256 0.02775 0.0
O49 O 0.27602 0.14328 0.82848 0.0
O50 O 0.28381 0.1106 0.82193 0.0
O51 O 0.208 0.09709 0.9602 0.0
O52 O 0.23023 0.08604 0.89602 0.0
C53 C 0.2885 0.133 0.8047 0.0
C54 C 0.21178 0.07918 0.93724 0.0
O55 O 0.24417 0.16392 0.92357 0.0
Mg56 Mg 0.88078 0.12136 0.93087 0.0
O57 O 0.87156 0.14564 0.99961 0.0
O58 O 0.89953 0.18713 0.98183 0.0
Mg59 Mg 0.92653 0.18939 0.89926 0.0
C60 C 0.88026 0.16935 0.01236 0.0
C61 C 0.83991 0.08097 0.02236 0.0
O62 O 0.85604 0.0985 0.06301 0.0
O63 O 0.86151 0.13074 0.8468 0.0
O64 O 0.89259 0.17137 0.82779 0.0
O65 O 0.90972 0.12263 0.00187 0.0
O66 O 0.91946 0.15075 0.92251 0.0
C67 C 0.87102 0.15152 0.81358 0.0
C68 C 0.92674 0.14321 0.97246 0.0
O69 O 0.84364 0.08523 0.96168 0.0
Mg70 Mg 0.8753 0.75543 0.91865 0.0
O71 O 0.85448 0.72968 0.00866 0.0
O72 O 0.81341 0.72061 1.00104 0.0
Mg73 Mg 0.80704 0.7374 0.90864 0.0
C74 C 0.83134 0.71905 0.03054 0.0
C75 C 0.92759 0.76055 0.88798 0.0
O76 O 0.91897 0.76277 0.83108 0.0
O77 O 0.85798 0.7195 0.85333 0.0
O78 O 0.81725 0.71132 0.85003 0.0
O79 O 0.88257 0.79129 0.97118 0.0
O80 O 0.84753 0.76689 0.91434 0.0
C81 C 0.83471 0.70611 0.8336 0.0
C82 C 0.86004 0.78643 0.95179 0.0
O83 O 0.91265 0.7547 0.93679 0.0
Mg84 Mg 0.79389 0.57374 0.41706 0.0
O85 O 0.80288 0.6046 0.33847 0.0
O86 O 0.77492 0.61845 0.35473 0.0
Mg87 Mg 0.7469 0.59556 0.4368 0.0
C88 C 0.79395 0.61939 0.32408 0.0
C89 C 0.83612 0.56973 0.33863 0.0
O90 O 0.82051 0.56838 0.29205 0.0
O91 O 0.81237 0.60531 0.49534 0.0
O92 O 0.77993 0.61323 0.51027 0.0
O93 O 0.76477 0.54171 0.35378 0.0
O94 O 0.75517 0.56452 0.41977 0.0
C95 C 0.80188 0.61621 0.52618 0.0
C96 C 0.74759 0.54658 0.37707 0.0
O97 O 0.8315 0.57375 0.39645 0.0
Mg98 Mg 0.42206 0.20091 0.39026 0.0
O99 O 0.39001 0.17425 0.31949 0.0
O100 O 0.38361 0.13463 0.33406 0.0
Mg101 Mg 0.41052 0.13552 0.41451 0.0
C102 C 0.37843 0.15035 0.30519 0.0
C103 C 0.42672 0.25455 0.39672 0.0
O104 O 0.43811 0.25429 0.45099 0.0
O105 O 0.39343 0.18658 0.47681 0.0
O106 O 0.39088 0.14834 0.48919 0.0
O107 O 0.452 0.20545 0.3172 0.0
O108 O 0.43729 0.17605 0.39436 0.0
C109 C 0.38549 0.16543 0.50785 0.0
C110 C 0.45187 0.186 0.34455 0.0
O111 O 0.4154 0.23402 0.36331 0.0
Mg112 Mg 0.79535 0.21598 0.4231 0.0
O113 O 0.81801 0.21361 0.33361 0.0
O114 O 0.85873 0.24568 0.34619 0.0
Mg115 Mg 0.86319 0.26607 0.44215 0.0
C116 C 0.84138 0.22686 0.3137 0.0
C117 C 0.74243 0.16803 0.44377 0.0
O118 O 0.74904 0.17833 0.50189 0.0
O119 O 0.81189 0.19612 0.4871 0.0
O120 O 0.85252 0.22852 0.49467 0.0
O121 O 0.78872 0.24535 0.37267 0.0
O122 O 0.82264 0.25531 0.43348 0.0
C123 C 0.83497 0.20555 0.50794 0.0
C124 C 0.81075 0.26284 0.39508 0.0
O125 O 0.7588 0.17797 0.39798 0.0
Mg126 Mg 0.92244 0.45616 0.25067 0.0
O127 O 0.94823 0.46511 0.3421 0.0
O128 O 0.96204 0.43663 0.34281 0.0
Mg129 Mg 0.94715 0.41105 0.25335 0.0
C130 C 0.96102 0.45555 0.36804 0.0
C131 C 0.91118 0.49971 0.21764 0.0
O132 O 0.90713 0.48767 0.16185 0.0
O133 O 0.95887 0.47648 0.18671 0.0
O134 O 0.97125 0.44698 0.19139 0.0
O135 O 0.88751 0.42609 0.30436 0.0
O136 O 0.91497 0.41826 0.25182 0.0
C137 C 0.97435 0.46848 0.17119 0.0
C138 C 0.89508 0.41005 0.28874 0.0
O139 O 0.91981 0.49258 0.26481 0.0
Mg140 Mg 0.54907 0.4561 0.27759 0.0
O141 O 0.54042 0.47837 0.35474 0.0
O142 O 0.56512 0.52038 0.33471 0.0
Mg143 Mg 0.59111 0.52535 0.2474 0.0
C144 C 0.54776 0.50182 0.368 0.0
C145 C 0.49919 0.39939 0.27914 0.0
O146 O 0.5022 0.40036 0.21581 0.0
O147 O 0.52626 0.46491 0.20161 0.0
O148 O 0.55589 0.50593 0.18048 0.0
O149 O 0.58163 0.45781 0.33648 0.0
O150 O 0.58644 0.48743 0.26572 0.0
C151 C 0.5344 0.48561 0.16857 0.0
C152 C 0.5965 0.47966 0.30871 0.0
O153 O 0.51408 0.41894 0.31312 0.0
Mg154 Mg 0.55652 0.09488 0.22412 0.0
O155 O 0.52789 0.06132 0.28997 0.0
O156 O 0.48885 0.05447 0.26204 0.0
Mg157 Mg 0.4916 0.08159 0.18051 0.0
C158 C 0.50333 0.04924 0.2967 0.0
C159 C 0.59906 0.09439 0.31165 0.0
O160 O 0.58474 0.09673 0.35649 0.0
O161 O 0.54588 0.06697 0.1376 0.0
O162 O 0.50771 0.06296 0.11203 0.0
O163 O 0.55712 0.12323 0.29675 0.0
O164 O 0.5304 0.10824 0.21384 0.0
C165 C 0.52606 0.05841 0.1009 0.0
C166 C 0.53773 0.12191 0.2657 0.0
O167 O 0.59113 0.09052 0.25322 0.0
Mg168 Mg 0.45981 0.91556 0.71804 0.0
O169 O 0.46752 0.94045 0.62567 0.0
O170 O 0.43813 0.95306 0.62408 0.0
Mg171 Mg 0.41273 0.93773 0.71419 0.0
C172 C 0.45746 0.95264 0.59915 0.0
C173 C 0.50326 0.90318 0.74405 0.0
O174 O 0.48989 0.89556 0.79821 0.0
O175 O 0.47928 0.95232 0.78039 0.0
O176 O 0.44846 0.96298 0.77592 0.0
O177 O 0.4304 0.8797 0.66727 0.0
O178 O 0.42092 0.90609 0.71873 0.0
C179 C 0.47038 0.96704 0.7959 0.0
C180 C 0.41324 0.88569 0.6841 0.0
O181 O 0.49707 0.91456 0.70174 0.0
Mg182 Mg 0.1018 0.5547 0.74215 0.0
O183 O 0.06863 0.5253 0.67774 0.0
O184 O 0.06213 0.48659 0.70681 0.0
Mg185 Mg 0.0897 0.49066 0.78886 0.0
C186 C 0.05672 0.50081 0.67166 0.0
C187 C 0.10346 0.60678 0.74639 0.0
O188 O 0.1105 0.60475 0.80551 0.0
O189 O 0.0737 0.54422 0.82832 0.0
O190 O 0.07045 0.50662 0.85596 0.0
O191 O 0.13041 0.55553 0.67016 0.0
O192 O 0.11611 0.52944 0.7545 0.0
C193 C 0.06544 0.5247 0.8659 0.0
C194 C 0.1297 0.53668 0.70235 0.0
O195 O 0.09597 0.58772 0.70811 0.0
Mg196 Mg 0.45349 0.54083 0.7682 0.0
O197 O 0.4796 0.54109 0.68419 0.0
O198 O 0.51897 0.57501 0.7008 0.0
Mg199 Mg 0.51913 0.5945 0.79585 0.0
C200 C 0.50318 0.55555 0.66727 0.0
C201 C 0.40119 0.49018 0.77488 0.0
O202 O 0.40337 0.49905 0.83427 0.0
O203 O 0.47079 0.52302 0.83654 0.0
O204 O 0.51007 0.55743 0.84882 0.0
O205 O 0.44518 0.56837 0.71415 0.0
O206 O 0.47814 0.58044 0.78051 0.0
C207 C 0.49349 0.53395 0.86062 0.0
C208 C 0.46615 0.58671 0.73904 0.0
O209 O 0.42015 0.5019 0.73623 0.0
Mg210 Mg 0.57483 0.78083 0.60067 0.0
O211 O 0.60209 0.78382 0.68469 0.0
O212 O 0.61341 0.75397 0.6661 0.0
Mg213 Mg 0.5966 0.73426 0.56962 0.0
C214 C 0.61395 0.77186 0.70088 0.0
C215 C 0.5696 0.81854 0.69378 0.0
O216 O 0.56701 0.80028 0.73359 0.0
O217 O 0.61009 0.8034 0.53411 0.0
O218 O 0.62116 0.77317 0.52036 0.0
O219 O 0.54063 0.74911 0.65289 0.0
O220 O 0.56557 0.74267 0.58571 0.0
C221 C 0.62481 0.79574 0.51022 0.0
C222 C 0.54697 0.73341 0.62707 0.0
O223 O 0.57474 0.81723 0.63443 0.0
Mg224 Mg 0.21621 0.79453 0.56425 0.0
O225 O 0.21044 0.82174 0.63321 0.0
O226 O 0.23876 0.86175 0.60094 0.0
Mg227 Mg 0.26274 0.86095 0.51548 0.0
C228 C 0.22071 0.84617 0.63865 0.0
C229 C 0.17648 0.75506 0.66177 0.0
O230 O 0.19292 0.77296 0.7012 0.0
O231 O 0.19479 0.8028 0.48326 0.0
O232 O 0.2265 0.84167 0.45235 0.0
O233 O 0.24758 0.79584 0.62796 0.0
O234 O 0.25444 0.82329 0.549 0.0
C235 C 0.20398 0.82219 0.44502 0.0
C236 C 0.26347 0.81638 0.59646 0.0
O237 O 0.17956 0.75894 0.60087 0.0
Mg238 Mg 0.21796 0.42807 0.59275 0.0
O239 O 0.18794 0.39589 0.65813 0.0
O240 O 0.14929 0.39022 0.63131 0.0
Mg241 Mg 0.15418 0.41746 0.54752 0.0
C242 C 0.16351 0.38463 0.66593 0.0
C243 C 0.25346 0.42049 0.68884 0.0
O244 O 0.23625 0.42055 0.72839 0.0
O245 O 0.20645 0.39942 0.50791 0.0
O246 O 0.16896 0.39677 0.48135 0.0
O247 O 0.22012 0.45752 0.66334 0.0
O248 O 0.19354 0.44348 0.57986 0.0
C249 C 0.18666 0.39116 0.47124 0.0
C250 C 0.20147 0.45738 0.63139 0.0
O251 O 0.25013 0.42095 0.62796 0.0
H252 H 0.16451 0.39076 0.35807 0.0
H253 H 0.20176 0.35489 0.45685 0.0
H254 H 0.19058 0.32416 0.36681 0.0
H255 H 0.16583 0.30483 0.26477 0.0
H256 H 0.12877 0.34192 0.16982 0.0
H257 H 0.14452 0.37496 0.25307 0.0
C258 C 0.17039 0.37635 0.35973 0.0
C259 C 0.18353 0.37478 0.41435 0.0
C260 C 0.16382 0.35889 0.30843 0.0
C261 C 0.19152 0.35639 0.41528 0.0
C262 C 0.18502 0.33877 0.36397 0.0
C263 C 0.16169 0.32045 0.26183 0.0
C264 C 0.1458 0.32066 0.21166 0.0
C265 C 0.17057 0.33942 0.3109 0.0
C266 C 0.14059 0.34103 0.20842 0.0
C267 C 0.14957 0.35998 0.25604 0.0
H268 H 0.6258 0.82503 0.40714 0.0
H269 H 0.67273 0.80311 0.51854 0.0
H270 H 0.70624 0.82104 0.43568 0.0
H271 H 0.71875 0.83598 0.32458 0.0
H272 H 0.67233 0.85701 0.20894 0.0
H273 H 0.64211 0.84671 0.30017 0.0
C274 C 0.64375 0.82501 0.41393 0.0
C275 C 0.64682 0.81265 0.46841 0.0
C276 C 0.66273 0.83473 0.36481 0.0
C277 C 0.66998 0.81242 0.47667 0.0
C278 C 0.68906 0.82253 0.42922 0.0
C279 C 0.7023 0.83885 0.32004 0.0
C280 C 0.69747 0.84693 0.26054 0.0
C281 C 0.68511 0.83263 0.37197 0.0
C282 C 0.67631 0.85082 0.25471 0.0
C283 C 0.65901 0.84476 0.30666 0.0
H284 H 0.22196 0.83616 0.32478 0.0
H285 H 0.1531 0.80977 0.43942 0.0
H286 H 0.13239 0.81961 0.3494 0.0
H287 H 0.13683 0.84178 0.24359 0.0
H288 H 0.20709 0.86892 0.13342 0.0
H289 H 0.22416 0.85235 0.21551 0.0
C290 C 0.20222 0.83212 0.32955 0.0
C291 C 0.18912 0.82262 0.3885 0.0
C292 C 0.19081 0.83815 0.27844 0.0
C293 C 0.16349 0.8171 0.3942 0.0
C294 C 0.15178 0.82291 0.34296 0.0
C295 C 0.15556 0.84342 0.23704 0.0
C296 C 0.17086 0.85687 0.18306 0.0
C297 C 0.16562 0.83431 0.28558 0.0
C298 C 0.19514 0.85897 0.17504 0.0
C299 C 0.20495 0.84954 0.22197 0.0
H300 H 0.35492 0.18508 0.55162 0.0
H301 H 0.38386 0.13445 0.60449 0.0
H302 H 0.35859 0.12241 0.70325 0.0
H303 H 0.32617 0.1233 0.77099 0.0
H304 H 0.29475 0.17191 0.7213 0.0
H305 H 0.32338 0.18803 0.62619 0.0
C306 C 0.35579 0.1716 0.58513 0.0
C307 C 0.37098 0.16038 0.56977 0.0
C308 C 0.34076 0.16433 0.64254 0.0
C309 C 0.37199 0.14304 0.61403 0.0
C310 C 0.35761 0.13616 0.67094 0.0
C311 C 0.32561 0.13757 0.73975 0.0
C312 C 0.30809 0.14611 0.75289 0.0
C313 C 0.34157 0.14623 0.68498 0.0
C314 C 0.30805 0.16497 0.71234 0.0
C315 C 0.32429 0.17404 0.65766 0.0
H316 H 0.80622 0.17077 0.60313 0.0
H317 H 0.88074 0.20732 0.5096 0.0
H318 H 0.89749 0.19095 0.593 0.0
H319 H 0.89299 0.17176 0.69958 0.0
H320 H 0.8195 0.13533 0.79708 0.0
H321 H 0.80016 0.14581 0.7051 0.0
C322 C 0.82588 0.17451 0.60032 0.0
C323 C 0.84234 0.19053 0.55079 0.0
C324 C 0.83567 0.16542 0.64965 0.0
C325 C 0.86782 0.19533 0.54772 0.0
C326 C 0.87746 0.18604 0.59546 0.0
C327 C 0.87262 0.16576 0.70019 0.0
C328 C 0.85773 0.15318 0.75504 0.0
C329 C 0.86188 0.17199 0.64783 0.0
C330 C 0.8313 0.1451 0.75516 0.0
C331 C 0.82033 0.15124 0.70278 0.0
H332 H 0.8642 0.69956 0.74117 0.0
H333 H 0.78773 0.66378 0.82418 0.0
H334 H 0.77168 0.63145 0.73907 0.0
H335 H 0.77785 0.6163 0.63515 0.0
H336 H 0.85333 0.65088 0.54814 0.0
H337 H 0.87142 0.68056 0.64086 0.0
C338 C 0.84419 0.68434 0.7412 0.0
C339 C 0.82709 0.68431 0.7884 0.0
C340 C 0.83484 0.66584 0.69102 0.0
C341 C 0.80119 0.66448 0.7879 0.0
C342 C 0.79195 0.64597 0.7392 0.0
C343 C 0.79834 0.63019 0.63674 0.0
C344 C 0.81419 0.63179 0.58467 0.0
C345 C 0.80837 0.64701 0.68949 0.0
C346 C 0.84077 0.64944 0.58777 0.0
C347 C 0.85103 0.66644 0.64057 0.0
H348 H 0.97828 0.50094 0.07179 0.0
H349 H 0.01986 0.46951 0.17111 0.0
H350 H 0.0533 0.48698 0.08845 0.0
H351 H 0.06792 0.50608 0.98184 0.0
H352 H 0.02731 0.53737 0.87847 0.0
H353 H 0.99652 0.52546 0.96893 0.0
C354 C 0.99496 0.49846 0.07588 0.0
C355 C 0.99637 0.48358 0.12698 0.0
C356 C 0.01412 0.50825 0.0271 0.0
C357 C 0.0181 0.48051 0.13174 0.0
C358 C 0.03725 0.49048 0.08447 0.0
C359 C 0.05252 0.51062 0.97948 0.0
C360 C 0.04958 0.52218 0.92344 0.0
C361 C 0.03498 0.50353 0.0309 0.0
C362 C 0.02988 0.52841 0.92128 0.0
C363 C 0.01222 0.52144 0.97278 0.0
H364 H 0.55478 0.50456 0.05284 0.0
H365 H 0.48243 0.46847 0.15558 0.0
H366 H 0.46165 0.47712 0.06342 0.0
H367 H 0.46613 0.50035 0.95908 0.0
H368 H 0.53972 0.53694 0.86105 0.0
H369 H 0.55787 0.52229 0.94515 0.0
C370 C 0.53434 0.49827 0.05465 0.0
C371 C 0.52018 0.48632 0.1109 0.0
C372 C 0.52283 0.50347 0.00227 0.0
C373 C 0.49367 0.4778 0.11257 0.0
C374 C 0.48189 0.48288 0.06008 0.0
C375 C 0.48589 0.50445 0.95554 0.0
C376 C 0.50168 0.5199 0.90438 0.0
C377 C 0.4965 0.49644 0.00536 0.0
C378 C 0.52732 0.52529 0.90035 0.0
C379 C 0.53775 0.517 0.94849 0.0
H380 H 0.505 0.05939 0.98727 0.0
H381 H 0.54109 0.02217 0.08513 0.0
H382 H 0.52964 0.99172 0.99433 0.0
H383 H 0.50449 0.97274 0.89279 0.0
H384 H 0.46827 0.01089 0.799 0.0
H385 H 0.48491 0.04407 0.88204 0.0
C386 C 0.51065 0.04479 0.98841 0.0
C387 C 0.52348 0.04271 0.04303 0.0
C388 C 0.50383 0.02743 0.93681 0.0
C389 C 0.53113 0.02407 0.04349 0.0
C390 C 0.52444 0.0066 0.99179 0.0
C391 C 0.50076 0.98863 0.88995 0.0
C392 C 0.48481 0.98911 0.84028 0.0
C393 C 0.5101 0.00763 0.93894 0.0
C394 C 0.48012 0.00982 0.83721 0.0
C395 C 0.48962 0.02883 0.88471 0.0
H396 H 0.09741 0.30725 0.88855 0.0
H397 H 0.16811 0.30585 0.91697 0.0
H398 H 0.18773 0.33512 0.82508 0.0
H399 H 0.18531 0.36247 0.73923 0.0
H400 H 0.11408 0.36295 0.71076 0.0
H401 H 0.09428 0.33268 0.8 0.0
C402 C 0.1171 0.31325 0.87464 0.0
C403 C 0.13129 0.30447 0.91006 0.0
C404 C 0.12824 0.33002 0.82176 0.0
C405 C 0.1567 0.31227 0.89067 0.0
C406 C 0.16798 0.32909 0.83821 0.0
C407 C 0.16543 0.3559 0.75236 0.0
C408 C 0.15131 0.36517 0.71831 0.0
C409 C 0.15401 0.33831 0.80381 0.0
C410 C 0.12548 0.35622 0.73588 0.0
C411 C 0.1141 0.33891 0.7871 0.0
H412 H 0.63792 0.81829 0.76327 0.0
H413 H 0.62406 0.74055 0.77462 0.0
H414 H 0.65109 0.75154 0.87098 0.0
H415 H 0.68004 0.78338 0.94924 0.0
H416 H 0.69611 0.86184 0.93626 0.0
H417 H 0.66694 0.85043 0.84348 0.0
C418 C 0.64066 0.80375 0.7873 0.0
C419 C 0.62905 0.77867 0.76174 0.0
C420 C 0.65677 0.81035 0.84214 0.0
C421 C 0.63294 0.76006 0.79301 0.0
C422 C 0.64838 0.7663 0.84818 0.0
C423 C 0.67709 0.79801 0.92649 0.0
C424 C 0.69029 0.82343 0.94982 0.0
C425 C 0.66064 0.79143 0.87268 0.0
C426 C 0.6863 0.84213 0.91922 0.0
C427 C 0.66958 0.83561 0.86618 0.0
H428 H 0.20501 0.90947 0.86018 0.0
H429 H 0.13574 0.83674 0.89326 0.0
H430 H 0.14653 0.81794 0.80109 0.0
H431 H 0.17706 0.82186 0.71419 0.0
H432 H 0.24568 0.8955 0.68234 0.0
H433 H 0.2337 0.91409 0.77106 0.0
C434 C 0.19216 0.8895 0.84721 0.0
C435 C 0.16974 0.87447 0.88401 0.0
C436 C 0.19847 0.8789 0.79452 0.0
C437 C 0.15313 0.84876 0.86575 0.0
C438 C 0.15937 0.83797 0.81327 0.0
C439 C 0.18934 0.84198 0.72662 0.0
C440 C 0.21234 0.85716 0.69163 0.0
C441 C 0.18222 0.85278 0.77783 0.0
C442 C 0.22788 0.88328 0.70811 0.0
C443 C 0.22108 0.894 0.75904 0.0
H444 H 0.35724 0.17555 0.24161 0.0
H445 H 0.35604 0.10298 0.24833 0.0
H446 H 0.32591 0.08708 0.15792 0.0
H447 H 0.30088 0.09388 0.07495 0.0
H448 H 0.30084 0.16575 0.06775 0.0
H449 H 0.33032 0.18167 0.16051 0.0
C450 C 0.35034 0.15623 0.22345 0.0
C451 C 0.3591 0.14059 0.25186 0.0
C452 C 0.3328 0.14704 0.17123 0.0
C453 C 0.34973 0.11552 0.22775 0.0
C454 C 0.33249 0.10637 0.17581 0.0
C455 C 0.30726 0.11305 0.09353 0.0
C456 C 0.29878 0.12865 0.06387 0.0
C457 C 0.32407 0.12201 0.14688 0.0
C458 C 0.30705 0.15331 0.08944 0.0
C459 C 0.32397 0.16245 0.14244 0.0
H460 H 0.89654 0.21682 0.06401 0.0
H461 H 0.83655 0.13734 0.08125 0.0
H462 H 0.81791 0.14828 0.1728 0.0
H463 H 0.81999 0.18016 0.25229 0.0
H464 H 0.88119 0.25914 0.23629 0.0
H465 H 0.89772 0.24865 0.14 0.0
C466 C 0.87928 0.20188 0.08736 0.0
C467 C 0.86811 0.17629 0.06569 0.0
C468 C 0.86881 0.2082 0.14056 0.0
C469 C 0.84572 0.15722 0.09691 0.0
C470 C 0.83499 0.16344 0.14938 0.0
C471 C 0.83672 0.19509 0.22716 0.0
C472 C 0.84937 0.22035 0.2517 0.0
C473 C 0.84654 0.18883 0.1722 0.0
C474 C 0.87119 0.23947 0.21884 0.0
C475 C 0.88069 0.23352 0.16368 0.0
H476 H 0.85144 0.69045 0.08105 0.0
H477 H 0.79484 0.71354 0.1166 0.0
H478 H 0.77913 0.68563 0.21136 0.0
H479 H 0.77963 0.65309 0.28058 0.0
H480 H 0.83475 0.62804 0.24525 0.0
H481 H 0.85278 0.65819 0.15424 0.0
C482 C 0.83593 0.68958 0.11018 0.0
C483 C 0.82429 0.70401 0.09166 0.0
C484 C 0.8265 0.67294 0.16428 0.0
C485 C 0.80402 0.70251 0.12948 0.0
C486 C 0.79498 0.68653 0.18371 0.0
C487 C 0.79565 0.65419 0.25331 0.0
C488 C 0.80566 0.63814 0.26983 0.0
C489 C 0.80575 0.67134 0.20088 0.0
C490 C 0.82652 0.64005 0.23367 0.0
C491 C 0.83688 0.65732 0.18155 0.0
H492 H 0.97857 0.43338 0.4527 0.0
H493 H 0.97793 0.50394 0.41752 0.0
H494 H 0.00691 0.52413 0.50992 0.0
H495 H 0.03448 0.52233 0.59686 0.0
H496 H 0.03402 0.45102 0.63085 0.0
H497 H 0.00345 0.43067 0.54276 0.0
C498 C 0.98464 0.45316 0.46531 0.0
C499 C 0.97629 0.4672 0.42778 0.0
C500 C 1.00127 0.4646 0.51815 0.0
C501 C 0.98406 0.49268 0.44556 0.0
C502 C 1.00074 0.50428 0.4982 0.0
C503 C 0.02761 0.50231 0.58519 0.0
C504 C 0.0368 0.48836 0.62037 0.0
C505 C 0.00982 0.49053 0.53424 0.0
C506 C 0.02742 0.46233 0.60481 0.0
C507 C 0.00992 0.45061 0.55424 0.0
H508 H 0.48483 0.50903 0.60691 0.0
H509 H 0.54423 0.58887 0.59421 0.0
H510 H 0.56278 0.57944 0.50005 0.0
H511 H 0.56313 0.54851 0.42332 0.0
H512 H 0.50495 0.46825 0.43765 0.0
H513 H 0.48509 0.47787 0.52896 0.0
C514 C 0.50168 0.52438 0.58311 0.0
C515 C 0.5131 0.54961 0.60764 0.0
C516 C 0.51264 0.51874 0.52948 0.0
C517 C 0.53512 0.56924 0.57662 0.0
C518 C 0.54577 0.56389 0.5227 0.0
C519 C 0.54606 0.53309 0.44617 0.0
C520 C 0.53563 0.50769 0.42346 0.0
C521 C 0.53486 0.53868 0.4991 0.0
C522 C 0.51353 0.48798 0.45414 0.0
C523 C 0.50208 0.49347 0.50636 0.0
H524 H 0.43544 0.97053 0.51473 0.0
H525 H 0.50614 0.96993 0.5502 0.0
H526 H 0.52663 0.99931 0.45866 0.0
H527 H 0.52502 0.02713 0.37193 0.0
H528 H 0.45348 0.02643 0.33765 0.0
H529 H 0.43296 0.99572 0.42519 0.0
C530 C 0.45531 0.97668 0.50234 0.0
C531 C 0.46926 0.96817 0.53972 0.0
C532 C 0.46694 0.99353 0.44992 0.0
C533 C 0.4949 0.97612 0.52227 0.0
C534 C 0.50668 0.99305 0.47009 0.0
C535 C 0.50492 0.02017 0.38343 0.0
C536 C 0.49097 0.02934 0.34818 0.0
C537 C 0.493 0.00221 0.43411 0.0
C538 C 0.46483 0.01986 0.36364 0.0
C539 C 0.453 0.00225 0.41393 0.0
H540 H 0.19068 0.23962 0.99222 0.0
H541 H 0.19222 0.22571 0.19741 0.0
H542 H 0.21672 0.20405 0.17635 0.0
H543 H 0.23301 0.18445 0.0992 0.0
H544 H 0.23093 0.19739 0.89377 0.0
H545 H 0.21177 0.2243 0.91557 0.0
C546 C 0.19678 0.23229 0.03246 0.0
C547 C 0.18923 0.234 0.09627 0.0
C548 C 0.21061 0.21942 0.01996 0.0
C549 C 0.19747 0.22447 0.14775 0.0
C550 C 0.21146 0.21198 0.13577 0.0
C551 C 0.22874 0.19346 0.05916 0.0
C552 C 0.23308 0.18855 0.99489 0.0
C553 C 0.21739 0.2086 0.07196 0.0
C554 C 0.2277 0.20068 0.94373 0.0
C555 C 0.2166 0.216 0.95614 0.0
H556 H 0.80986 0.03747 0.95214 0.0
H557 H 0.82748 0.06627 0.14853 0.0
H558 H 0.80253 0.02258 0.19063 0.0
H559 H 0.78044 0.97605 0.17163 0.0
H560 H 0.76376 0.94706 0.97532 0.0
H561 H 0.78325 0.99091 0.93356 0.0
C562 C 0.80785 0.03425 0.00416 0.0
C563 C 0.82089 0.05511 0.04702 0.0
C564 C 0.79383 0.00897 0.02819 0.0
C565 C 0.81792 0.05056 0.11432 0.0
C566 C 0.80369 0.02555 0.13854 0.0
C567 C 0.78069 0.97927 0.11975 0.0
C568 C 0.77103 0.95828 0.07673 0.0
C569 C 0.79231 0.00456 0.09591 0.0
C570 C 0.77128 0.96285 0.00964 0.0
C571 C 0.7825 0.98795 0.98561 0.0
H572 H 0.95433 0.76844 0.00146 0.0
H573 H 0.96388 0.77414 0.7932 0.0
H574 H 0.01058 0.79692 0.80581 0.0
H575 H 0.0486 0.81963 0.87553 0.0
H576 H 0.03943 0.8147 0.0838 0.0
H577 H 0.99286 0.78702 0.0715 0.0
C578 C 0.9666 0.77422 0.95881 0.0
C579 C 0.95552 0.76986 0.89647 0.0
C580 C 0.9936 0.78774 0.96635 0.0
C581 C 0.9718 0.77743 0.8418 0.0
C582 C 0.99858 0.79056 0.84892 0.0
C583 C 0.03648 0.81224 0.91831 0.0
C584 C 0.04752 0.81958 0.98046 0.0
C585 C 0.00967 0.79655 0.91092 0.0
C586 C 0.0315 0.80951 0.03531 0.0
C587 C 0.00481 0.79374 0.02834 0.0
H588 H 0.80967 0.77098 0.97519 0.0
H589 H 0.88574 0.83781 0.97649 0.0
H590 H 0.86746 0.86498 0.00565 0.0
H591 H 0.82956 0.86964 0.03018 0.0
H592 H 0.75396 0.80214 0.03469 0.0
H593 H 0.77218 0.77528 0.00282 0.0
C594 C 0.82222 0.79148 0.98115 0.0
C595 C 0.84896 0.80243 0.97272 0.0
C596 C 0.8116 0.80684 0.99879 0.0
C597 C 0.86507 0.82896 0.98276 0.0
C598 C 0.85462 0.8445 0.9991 0.0
C599 C 0.81715 0.84906 0.02371 0.0
C600 C 0.79051 0.83781 0.03463 0.0
C601 C 0.82788 0.83367 0.00696 0.0
C602 C 0.77456 0.81114 0.02716 0.0
C603 C 0.78496 0.7958 0.00875 0.0
H604 H 0.13271 0.9682 0.04569 0.0
H605 H 0.18394 0.94964 0.94275 0.0
H606 H 0.2097 0.99428 0.90603 0.0
H607 H 0.21806 0.03856 0.90532 0.0
H608 H 0.16902 0.05835 0.0151 0.0
H609 H 0.14193 0.01332 0.04705 0.0
C610 C 0.14936 0.97402 0.01461 0.0
C611 C 0.15637 0.95583 0.99605 0.0
C612 C 0.16454 0.99992 0.99551 0.0
C613 C 0.17821 0.96344 0.95704 0.0
C614 C 0.19294 0.98892 0.93628 0.0
C615 C 0.20165 0.03319 0.93671 0.0
C616 C 0.1958 0.05196 0.95815 0.0
C617 C 0.18643 0.00737 0.95574 0.0
C618 C 0.17413 0.04438 0.9982 0.0
C619 C 0.15855 0.0186 0.01636 0.0
H620 H 0.97008 0.16188 0.90056 0.0
H621 H 0.94301 0.15691 0.09683 0.0
H622 H 0.98762 0.18161 0.13566 0.0
H623 H 0.03435 0.20431 0.1134 0.0
H624 H 0.0614 0.20466 0.91924 0.0
H625 H 0.01683 0.18199 0.87948 0.0
C626 C 0.97407 0.16633 0.95176 0.0
C627 C 0.9535 0.15795 0.9959 0.0
C628 C 0.9997 0.17958 0.97385 0.0
C629 C 0.95867 0.16328 0.06223 0.0
C630 C 0.98411 0.17739 0.08429 0.0
C631 C 0.03039 0.19938 0.0624 0.0
C632 C 0.05096 0.20622 0.01905 0.0
C633 C 0.00477 0.18558 0.04055 0.0
C634 C 0.04577 0.19948 0.95332 0.0
C635 C 0.02034 0.18662 0.93066 0.0
H636 H 0.85012 0.55973 0.22144 0.0
H637 H 0.8664 0.56259 0.42633 0.0
H638 H 0.89362 0.54367 0.40602 0.0
H639 H 0.90874 0.52183 0.33157 0.0
H640 H 0.89137 0.51818 0.12711 0.0
H641 H 0.86892 0.54208 0.14584 0.0
C642 C 0.8599 0.55657 0.26164 0.0
C643 C 0.8559 0.56228 0.32542 0.0
C644 C 0.87521 0.54532 0.24977 0.0
C645 C 0.86897 0.55826 0.37676 0.0
C646 C 0.88448 0.54733 0.36522 0.0
C647 C 0.90043 0.52664 0.29092 0.0
C648 C 0.90149 0.51789 0.22812 0.0
C649 C 0.88714 0.54009 0.30214 0.0
C650 C 0.89068 0.52443 0.17605 0.0
C651 C 0.87776 0.53807 0.1867 0.0
H652 H 0.46531 0.35324 0.22356 0.0
H653 H 0.49395 0.38977 0.40942 0.0
H654 H 0.47116 0.34814 0.46337 0.0
H655 H 0.44771 0.30105 0.45654 0.0
H656 H 0.41899 0.26421 0.27122 0.0
H657 H 0.43673 0.30619 0.21884 0.0
C658 C 0.46625 0.35215 0.27595 0.0
C659 C 0.48176 0.37462 0.31206 0.0
C660 C 0.45318 0.32803 0.30693 0.0
C661 C 0.48243 0.37283 0.38011 0.0
C662 C 0.46943 0.34897 0.41116 0.0
C663 C 0.44491 0.30218 0.40488 0.0
C664 C 0.4324 0.27949 0.36782 0.0
C665 C 0.45544 0.32639 0.37486 0.0
C666 C 0.42865 0.28133 0.30102 0.0
C667 C 0.43896 0.30537 0.27086 0.0
H668 H 0.62153 0.10222 0.43053 0.0
H669 H 0.63796 0.10407 0.22591 0.0
H670 H 0.68403 0.12464 0.2492 0.0
H671 H 0.71996 0.14711 0.32663 0.0
H672 H 0.70309 0.14533 0.53107 0.0
H673 H 0.65711 0.1196 0.50878 0.0
C674 C 0.63513 0.1067 0.39103 0.0
C675 C 0.62623 0.10193 0.32651 0.0
C676 C 0.66167 0.11885 0.40466 0.0
C677 C 0.64418 0.10762 0.27607 0.0
C678 C 0.67062 0.11955 0.28931 0.0
C679 C 0.70627 0.14071 0.36643 0.0
C680 C 0.71507 0.14858 0.43035 0.0
C681 C 0.67965 0.12604 0.35326 0.0
C682 C 0.69697 0.13988 0.4813 0.0
C683 C 0.67058 0.12516 0.46863 0.0
H684 H 0.51326 0.14139 0.19574 0.0
H685 H 0.52946 0.12907 0.39219 0.0
H686 H 0.50333 0.14693 0.43385 0.0
H687 H 0.47555 0.16569 0.41408 0.0
H688 H 0.46298 0.18206 0.21807 0.0
H689 H 0.48801 0.16297 0.17618 0.0
C690 C 0.51107 0.14269 0.24766 0.0
C691 C 0.52307 0.13383 0.29096 0.0
C692 C 0.49666 0.15364 0.27112 0.0
C693 C 0.52044 0.13588 0.35807 0.0
C694 C 0.50544 0.14598 0.38182 0.0
C695 C 0.4783 0.16501 0.36219 0.0
C696 C 0.46729 0.17497 0.31902 0.0
C697 C 0.4934 0.15483 0.33878 0.0
C698 C 0.4713 0.17445 0.25204 0.0
C699 C 0.48555 0.16353 0.22818 0.0
H700 H 0.86103 0.30086 0.40432 0.0
H701 H 0.78656 0.28632 0.33891 0.0
H702 H 0.80567 0.33121 0.30417 0.0
H703 H 0.8441 0.3745 0.28974 0.0
H704 H 0.91863 0.38712 0.34813 0.0
H705 H 0.899 0.34302 0.38842 0.0
C706 C 0.84887 0.30731 0.3826 0.0
C707 C 0.82238 0.29009 0.3743 0.0
C708 C 0.86009 0.33289 0.36139 0.0
C709 C 0.80706 0.2991 0.34564 0.0
C710 C 0.81796 0.32479 0.32588 0.0
C711 C 0.85589 0.36753 0.31178 0.0
C712 C 0.88272 0.38388 0.31601 0.0
C713 C 0.84451 0.34185 0.33322 0.0
C714 C 0.89798 0.37473 0.3438 0.0
C715 C 0.88675 0.34956 0.36701 0.0
H716 H 0.63215 0.46467 0.30885 0.0
H717 H 0.62221 0.52995 0.34417 0.0
H718 H 0.66832 0.55675 0.36774 0.0
H719 H 0.71138 0.56147 0.37789 0.0
H720 H 0.72206 0.49714 0.334 0.0
H721 H 0.67587 0.47017 0.31286 0.0
C722 C 0.64017 0.48473 0.32225 0.0
C723 C 0.62396 0.49536 0.32577 0.0
C724 C 0.66681 0.50019 0.33336 0.0
C725 C 0.63444 0.52145 0.34154 0.0
C726 C 0.66076 0.53673 0.35487 0.0
C727 C 0.70364 0.54159 0.3637 0.0
C728 C 0.72012 0.53129 0.35808 0.0
C729 C 0.67714 0.52633 0.35075 0.0
C730 C 0.7098 0.50557 0.33837 0.0
C731 C 0.68336 0.49009 0.32673 0.0
H732 H 0.5651 0.85423 0.62082 0.0
H733 H 0.55767 0.82576 0.81679 0.0
H734 H 0.53917 0.85193 0.85122 0.0
H735 H 0.52053 0.87888 0.82342 0.0
H736 H 0.52696 0.90685 0.62735 0.0
H737 H 0.55074 0.88528 0.59573 0.0
C738 C 0.55984 0.85407 0.67128 0.0
C739 C 0.56245 0.83771 0.71586 0.0
C740 C 0.54882 0.86896 0.69078 0.0
C741 C 0.55565 0.83791 0.78117 0.0
C742 C 0.545 0.85286 0.80099 0.0
C743 C 0.52746 0.88061 0.77397 0.0
C744 C 0.52161 0.89418 0.7277 0.0
C745 C 0.54077 0.86783 0.75583 0.0
C746 C 0.53102 0.89643 0.66399 0.0
C747 C 0.54454 0.88397 0.64573 0.0
H748 H 0.14597 0.71091 0.59369 0.0
H749 H 0.16547 0.74091 0.78872 0.0
H750 H 0.14144 0.69744 0.83257 0.0
H751 H 0.11985 0.65086 0.81528 0.0
H752 H 0.10127 0.62049 0.62053 0.0
H753 H 0.11952 0.66406 0.57718 0.0
C754 C 0.14457 0.70799 0.64583 0.0
C755 C 0.15791 0.72919 0.68773 0.0
C756 C 0.13104 0.6828 0.67089 0.0
C757 C 0.1557 0.72499 0.7552 0.0
C758 C 0.14198 0.70009 0.78042 0.0
C759 C 0.11938 0.65369 0.7634 0.0
C760 C 0.10957 0.63241 0.72124 0.0
C761 C 0.13035 0.67882 0.73867 0.0
C762 C 0.10884 0.63649 0.65419 0.0
C763 C 0.11942 0.66145 0.62927 0.0
H764 H 0.35678 0.46279 0.84348 0.0
H765 H 0.38753 0.47463 0.64891 0.0
H766 H 0.34391 0.4505 0.60503 0.0
H767 H 0.29717 0.43182 0.62104 0.0
H768 H 0.26672 0.4213 0.81577 0.0
H769 H 0.30999 0.43875 0.86018 0.0
C770 C 0.354 0.4597 0.79154 0.0
C771 C 0.37544 0.47095 0.74958 0.0
C772 C 0.32884 0.44624 0.76647 0.0
C773 C 0.37142 0.46641 0.68243 0.0
C774 C 0.34643 0.4527 0.65718 0.0
C775 C 0.2999 0.43282 0.67322 0.0
C776 C 0.27871 0.42568 0.7149 0.0
C777 C 0.32498 0.4434 0.69859 0.0
C778 C 0.28266 0.42695 0.78243 0.0
C779 C 0.30746 0.43702 0.80797 0.0
H780 H 0.1799 0.4793 0.55901 0.0
H781 H 0.19458 0.46695 0.75683 0.0
H782 H 0.17276 0.48964 0.79632 0.0
H783 H 0.1496 0.51312 0.77436 0.0
H784 H 0.13868 0.52918 0.5766 0.0
H785 H 0.15897 0.50501 0.53703 0.0
C786 C 0.17825 0.48158 0.61073 0.0
C787 C 0.18862 0.47136 0.65507 0.0
C788 C 0.16642 0.49535 0.63292 0.0
C789 C 0.18675 0.47472 0.72191 0.0
C790 C 0.17425 0.48763 0.74444 0.0
C791 C 0.15168 0.51128 0.72261 0.0
C792 C 0.14256 0.52272 0.67835 0.0
C793 C 0.16403 0.49804 0.70039 0.0
C794 C 0.14564 0.52056 0.61149 0.0
C795 C 0.15716 0.5067 0.58891 0.0
H796 H 0.51638 0.62191 0.71958 0.0
H797 H 0.43994 0.61142 0.70658 0.0
H798 H 0.45808 0.65643 0.67273 0.0
H799 H 0.49619 0.69903 0.64752 0.0
H800 H 0.57207 0.70782 0.65849 0.0
H801 H 0.55378 0.66339 0.69347 0.0
C802 C 0.50369 0.62952 0.71059 0.0
C803 C 0.47694 0.61357 0.717 0.0
C804 C 0.51422 0.65515 0.69055 0.0
C805 C 0.46066 0.62346 0.70222 0.0
C806 C 0.47103 0.64918 0.6831 0.0
C807 C 0.50861 0.69112 0.65779 0.0
C808 C 0.53543 0.70657 0.64965 0.0
C809 C 0.49784 0.66526 0.67729 0.0
C810 C 0.55138 0.69619 0.66277 0.0
C811 C 0.54093 0.67079 0.68333 0.0
H812 H 0.2987 0.8012 0.61406 0.0
H813 H 0.28878 0.86748 0.62182 0.0
H814 H 0.33428 0.89493 0.64993 0.0
H815 H 0.37689 0.90007 0.67084 0.0
H816 H 0.38797 0.83459 0.65518 0.0
H817 H 0.34216 0.80684 0.63073 0.0
C818 C 0.30658 0.82163 0.62246 0.0
C819 C 0.29056 0.83239 0.61647 0.0
C820 C 0.33296 0.83741 0.63652 0.0
C821 C 0.30088 0.85889 0.62613 0.0
C822 C 0.32686 0.87455 0.64218 0.0
C823 C 0.36935 0.87977 0.66225 0.0
C824 C 0.38583 0.86943 0.6653 0.0
C825 C 0.34311 0.86405 0.64717 0.0
C826 C 0.37571 0.84307 0.65284 0.0
C827 C 0.34948 0.82715 0.63922 0.0
loop_
_geom_bond_atom_site_label_1
_geom_bond_atom_site_label_2
_geom_bond_distance
_geom_bond_site_symmetry_2
_ccdc_geom_bond_type
Mg0 O1 2.028 1_554 S
Mg0 O7 1.986 . S
Mg0 O9 2.114 . S
Mg0 O10 2.251 . S
Mg0 O13 2.010 . S
O1 Mg0 2.028 1_556 S
O1 C4 1.251 . S
O2 Mg3 2.028 1_556 S
O2 C4 1.248 . S
Mg3 O2 2.028 1_554 S
Mg3 O8 2.032 . S
Mg3 O10 2.079 . S
C4 O1 1.251 . S
C4 O2 1.248 . S
C5 O6 1.264 . S
C5 O13 1.249 . S
O6 C5 1.264 . S
O7 Mg0 1.986 . S
O7 C11 1.246 . S
O8 Mg3 2.032 . S
O8 C11 1.259 . S
O9 Mg0 2.114 . S
O9 C12 1.252 . S
O10 Mg0 2.251 . S
O10 Mg3 2.079 . S
O10 C12 1.273 . S
C11 O7 1.246 . S
C11 O8 1.259 . S
C12 O9 1.252 . S
C12 O10 1.273 . S
O13 Mg0 2.010 . S
O13 C5 1.249 . S
Mg14 O15 2.028 1_554 S
Mg14 O21 1.986 . S
Mg14 O23 2.114 . S
Mg14 O24 2.251 . S
Mg14 O27 2.010 . S
O15 Mg14 2.028 1_556 S
O15 C18 1.250 . S
O16 Mg17 2.028 1_556 S
O16 C18 1.248 . S
Mg17 O16 2.028 1_554 S
Mg17 O22 2.032 . S
Mg17 O24 2.079 . S
C18 O15 1.250 . S
C18 O16 1.248 . S
C19 O20 1.264 . S
C19 O27 1.249 . S
O20 C19 1.264 . S
O21 Mg14 1.986 . S
O21 C25 1.246 . S
O22 Mg17 2.032 . S
O22 C25 1.259 . S
O23 Mg14 2.114 . S
O23 C26 1.252 . S
O24 Mg14 2.251 . S
O24 Mg17 2.079 . S
O24 C26 1.273 . S
C25 O21 1.246 . S
C25 O22 1.259 . S
C26 O23 1.252 . S
C26 O24 1.273 . S
O27 Mg14 2.010 . S
O27 C19 1.249 . S
Mg28 O29 2.028 1_554 S
Mg28 O35 1.986 . S
Mg28 O37 2.114 . S
Mg28 O38 2.251 . S
Mg28 O41 2.010 . S
O29 Mg28 2.028 1_556 S
O29 C32 1.250 . S
O30 Mg31 2.028 1_556 S
O30 C32 1.248 . S
Mg31 O30 2.028 1_554 S
Mg31 O36 2.032 . S
Mg31 O38 2.079 . S
C32 O29 1.250 . S
C32 O30 1.248 . S
C33 O34 1.264 . S
C33 O41 1.249 . S
O34 C33 1.264 . S
O35 Mg28 1.986 . S
O35 C39 1.246 . S
O36 Mg31 2.032 . S
O36 C39 1.259 . S
O37 Mg28 2.114 . S
O37 C40 1.252 . S
O38 Mg28 2.251 . S
O38 Mg31 2.079 . S
O38 C40 1.273 . S
C39 O35 1.246 . S
C39 O36 1.259 . S
C40 O37 1.252 . S
C40 O38 1.273 . S
O41 Mg28 2.010 . S
O41 C33 1.249 . S
Mg42 O43 2.028 1_556 S
Mg42 O49 1.986 . S
Mg42 O51 2.114 . S
Mg42 O52 2.251 . S
Mg42 O55 2.010 . S
O43 Mg42 2.028 1_554 S
O43 C46 1.251 . S
O44 Mg45 2.028 1_554 S
O44 C46 1.248 . S
Mg45 O44 2.028 1_556 S
Mg45 O50 2.032 . S
Mg45 O52 2.079 . S
C46 O43 1.251 . S
C46 O44 1.248 . S
C47 O48 1.264 . S
C47 O55 1.249 . S
O48 C47 1.264 . S
O49 Mg42 1.986 . S
O49 C53 1.246 . S
O50 Mg45 2.032 . S
O50 C53 1.259 . S
O51 Mg42 2.114 . S
O51 C54 1.252 . S
O52 Mg42 2.251 . S
O52 Mg45 2.079 . S
O52 C54 1.273 . S
C53 O49 1.246 . S
C53 O50 1.259 . S
C54 O51 1.252 . S
C54 O52 1.273 . S
O55 Mg42 2.010 . S
O55 C47 1.249 . S
Mg56 O57 2.028 1_556 S
Mg56 O63 1.986 . S
Mg56 O65 2.114 . S
Mg56 O66 2.251 . S
Mg56 O69 2.010 . S
O57 Mg56 2.028 1_554 S
O57 C60 1.250 . S
O58 Mg59 2.028 1_554 S
O58 C60 1.248 . S
Mg59 O58 2.028 1_556 S
Mg59 O64 2.032 . S
Mg59 O66 2.079 . S
C60 O57 1.250 . S
C60 O58 1.248 . S
C61 O62 1.264 . S
C61 O69 1.249 . S
O62 C61 1.264 . S
O63 Mg56 1.986 . S
O63 C67 1.246 . S
O64 Mg59 2.032 . S
O64 C67 1.259 . S
O65 Mg56 2.114 . S
O65 C68 1.252 . S
O66 Mg56 2.251 . S
O66 Mg59 2.079 . S
O66 C68 1.273 . S
C67 O63 1.246 . S
C67 O64 1.259 . S
C68 O65 1.252 . S
C68 O66 1.273 . S
O69 Mg56 2.010 . S
O69 C61 1.249 . S
Mg70 O71 2.028 1_556 S
Mg70 O77 1.986 . S
Mg70 O79 2.114 . S
Mg70 O80 2.251 . S
Mg70 O83 2.010 . S
O71 Mg70 2.028 1_554 S
O71 C74 1.250 . S
O72 Mg73 2.028 1_554 S
O72 C74 1.248 . S
Mg73 O72 2.028 1_556 S
Mg73 O78 2.032 . S
Mg73 O80 2.079 . S
C74 O71 1.250 . S
C74 O72 1.248 . S
C75 O76 1.264 . S
C75 O83 1.249 . S
O76 C75 1.264 . S
O77 Mg70 1.986 . S
O77 C81 1.246 . S
O78 Mg73 2.032 . S
O78 C81 1.259 . S
O79 Mg70 2.114 . S
O79 C82 1.252 . S
O80 Mg70 2.251 . S
O80 Mg73 2.079 . S
O80 C82 1.273 . S
C81 O77 1.246 . S
C81 O78 1.259 . S
C82 O79 1.252 . S
C82 O80 1.273 . S
O83 Mg70 2.010 . S
O83 C75 1.249 . S
Mg84 O85 2.028 . S
Mg84 O91 1.986 . S
Mg84 O93 2.114 . S
Mg84 O94 2.251 . S
Mg84 O97 2.010 . S
O85 Mg84 2.028 . S
O85 C88 1.250 . S
O86 Mg87 2.028 . S
O86 C88 1.248 . S
Mg87 O86 2.028 . S
Mg87 O92 2.032 . S
Mg87 O94 2.079 . S
C88 O85 1.250 . S
C88 O86 1.248 . S
C89 O90 1.264 . S
C89 O97 1.249 . S
O90 C89 1.264 . S
O91 Mg84 1.986 . S
O91 C95 1.246 . S
O92 Mg87 2.032 . S
O92 C95 1.259 . S
O93 Mg84 2.114 . S
O93 C96 1.252 . S
O94 Mg84 2.251 . S
O94 Mg87 2.079 . S
O94 C96 1.273 . S
C95 O91 1.246 . S
C95 O92 1.259 . S
C96 O93 1.252 . S
C96 O94 1.273 . S
O97 Mg84 2.010 . S
O97 C89 1.249 . S
Mg98 O99 2.028 . S
Mg98 O105 1.986 . S
Mg98 O107 2.114 . S
Mg98 O108 2.251 . S
Mg98 O111 2.010 . S
O99 Mg98 2.028 . S
O99 C102 1.250 . S
O100 Mg101 2.028 . S
O100 C102 1.248 . S
Mg101 O100 2.028 . S
Mg101 O106 2.032 . S
Mg101 O108 2.079 . S
C102 O99 1.250 . S
C102 O100 1.248 . S
C103 O104 1.264 . S
C103 O111 1.249 . S
O104 C103 1.264 . S
O105 Mg98 1.986 . S
O105 C109 1.246 . S
O106 Mg101 2.032 . S
O106 C109 1.259 . S
O107 Mg98 2.114 . S
O107 C110 1.252 . S
O108 Mg98 2.251 . S
O108 Mg101 2.079 . S
O108 C110 1.273 . S
C109 O105 1.246 . S
C109 O106 1.259 . S
C110 O107 1.252 . S
C110 O108 1.273 . S
O111 Mg98 2.010 . S
O111 C103 1.249 . S
Mg112 O113 2.028 . S
Mg112 O119 1.986 . S
Mg112 O121 2.114 . S
Mg112 O122 2.251 . S
Mg112 O125 2.010 . S
O113 Mg112 2.028 . S
O113 C116 1.250 . S
O114 Mg115 2.028 . S
O114 C116 1.248 . S
Mg115 O114 2.028 . S
Mg115 O120 2.032 . S
Mg115 O122 2.079 . S
C116 O113 1.250 . S
C116 O114 1.248 . S
C117 O118 1.264 . S
C117 O125 1.249 . S
O118 C117 1.264 . S
O119 Mg112 1.986 . S
O119 C123 1.246 . S
O120 Mg115 2.032 . S
O120 C123 1.259 . S
O121 Mg112 2.114 . S
O121 C124 1.252 . S
O122 Mg112 2.251 . S
O122 Mg115 2.079 . S
O122 C124 1.273 . S
C123 O119 1.246 . S
C123 O120 1.259 . S
C124 O121 1.252 . S
C124 O122 1.273 . S
O125 Mg112 2.010 . S
O125 C117 1.249 . S
Mg126 O127 2.028 . S
Mg126 O133 1.986 . S
Mg126 O135 2.114 . S
Mg126 O136 2.251 . S
Mg126 O139 2.010 . S
O127 Mg126 2.028 . S
O127 C130 1.250 . S
O128 Mg129 2.028 . S
O128 C130 1.248 . S
Mg129 O128 2.028 . S
Mg129 O134 2.032 . S
Mg129 O136 2.079 . S
C130 O127 1.250 . S
C130 O128 1.248 . S
C131 O132 1.264 . S
C131 O139 1.249 . S
O132 C131 1.264 . S
O133 Mg126 1.986 . S
O133 C137 1.246 . S
O134 Mg129 2.032 . S
O134 C137 1.259 . S
O135 Mg126 2.114 . S
O135 C138 1.252 . S
O136 Mg126 2.251 . S
O136 Mg129 2.079 . S
O136 C138 1.273 . S
C137 O133 1.246 . S
C137 O134 1.259 . S
C138 O135 1.252 . S
C138 O136 1.273 . S
O139 Mg126 2.010 . S
O139 C131 1.249 . S
Mg140 O141 2.028 . S
Mg140 O147 1.986 . S
Mg140 O149 2.114 . S
Mg140 O150 2.251 . S
Mg140 O153 2.010 . S
O141 Mg140 2.028 . S
O141 C144 1.250 . S
O142 Mg143 2.028 . S
O142 C144 1.248 . S
Mg143 O142 2.028 . S
Mg143 O148 2.032 . S
Mg143 O150 2.079 . S
C144 O141 1.250 . S
C144 O142 1.248 . S
C145 O146 1.264 . S
C145 O153 1.249 . S
O146 C145 1.264 . S
O147 Mg140 1.986 . S
O147 C151 1.246 . S
O148 Mg143 2.032 . S
O148 C151 1.259 . S
O149 Mg140 2.114 . S
O149 C152 1.252 . S
O150 Mg140 2.251 . S
O150 Mg143 2.079 . S
O150 C152 1.273 . S
C151 O147 1.246 . S
C151 O148 1.259 . S
C152 O149 1.252 . S
C152 O150 1.273 . S
O153 Mg140 2.010 . S
O153 C145 1.249 . S
Mg154 O155 2.028 . S
Mg154 O161 1.986 . S
Mg154 O163 2.114 . S
Mg154 O164 2.251 . S
Mg154 O167 2.010 . S
O155 Mg154 2.028 . S
O155 C158 1.250 . S
O156 Mg157 2.028 . S
O156 C158 1.248 . S
Mg157 O156 2.028 . S
Mg157 O162 2.032 . S
Mg157 O164 2.079 . S
C158 O155 1.250 . S
C158 O156 1.248 . S
C159 O160 1.264 . S
C159 O167 1.249 . S
O160 C159 1.264 . S
O161 Mg154 1.986 . S
O161 C165 1.246 . S
O162 Mg157 2.032 . S
O162 C165 1.259 . S
O163 Mg154 2.114 . S
O163 C166 1.252 . S
O164 Mg154 2.251 . S
O164 Mg157 2.079 . S
O164 C166 1.273 . S
C165 O161 1.246 . S
C165 O162 1.259 . S
C166 O163 1.252 . S
C166 O164 1.273 . S
O167 Mg154 2.010 . S
O167 C159 1.249 . S
Mg168 O169 2.028 . S
Mg168 O175 1.986 . S
Mg168 O177 2.114 . S
Mg168 O178 2.251 . S
Mg168 O181 2.010 . S
O169 Mg168 2.028 . S
O169 C172 1.250 . S
O170 Mg171 2.028 . S
O170 C172 1.248 . S
Mg171 O170 2.028 . S
Mg171 O176 2.032 . S
Mg171 O178 2.079 . S
C172 O169 1.250 . S
C172 O170 1.248 . S
C173 O174 1.264 . S
C173 O181 1.249 . S
O174 C173 1.264 . S
O175 Mg168 1.986 . S
O175 C179 1.246 . S
O176 Mg171 2.032 . S
O176 C179 1.259 . S
O177 Mg168 2.114 . S
O177 C180 1.252 . S
O178 Mg168 2.251 . S
O178 Mg171 2.079 . S
O178 C180 1.273 . S
C179 O175 1.246 . S
C179 O176 1.259 . S
C180 O177 1.252 . S
C180 O178 1.273 . S
O181 Mg168 2.010 . S
O181 C173 1.249 . S
Mg182 O183 2.028 . S
Mg182 O189 1.986 . S
Mg182 O191 2.114 . S
Mg182 O192 2.251 . S
Mg182 O195 2.010 . S
O183 Mg182 2.028 . S
O183 C186 1.250 . S
O184 Mg185 2.028 . S
O184 C186 1.248 . S
Mg185 O184 2.028 . S
Mg185 O190 2.032 . S
Mg185 O192 2.079 . S
C186 O183 1.250 . S
C186 O184 1.248 . S
C187 O188 1.264 . S
C187 O195 1.249 . S
O188 C187 1.264 . S
O189 Mg182 1.986 . S
O189 C193 1.246 . S
O190 Mg185 2.032 . S
O190 C193 1.259 . S
O191 Mg182 2.114 . S
O191 C194 1.252 . S
O192 Mg182 2.251 . S
O192 Mg185 2.079 . S
O192 C194 1.273 . S
C193 O189 1.246 . S
C193 O190 1.259 . S
C194 O191 1.252 . S
C194 O192 1.273 . S
O195 Mg182 2.010 . S
O195 C187 1.249 . S
Mg196 O197 2.028 . S
Mg196 O203 1.986 . S
Mg196 O205 2.114 . S
Mg196 O206 2.251 . S
Mg196 O209 2.010 . S
O197 Mg196 2.028 . S
O197 C200 1.250 . S
O198 Mg199 2.028 . S
O198 C200 1.248 . S
Mg199 O198 2.028 . S
Mg199 O204 2.032 . S
Mg199 O206 2.079 . S
C200 O197 1.250 . S
C200 O198 1.248 . S
C201 O202 1.264 . S
C201 O209 1.249 . S
O202 C201 1.264 . S
O203 Mg196 1.986 . S
O203 C207 1.246 . S
O204 Mg199 2.032 . S
O204 C207 1.259 . S
O205 Mg196 2.114 . S
O205 C208 1.252 . S
O206 Mg196 2.251 . S
O206 Mg199 2.079 . S
O206 C208 1.273 . S
C207 O203 1.246 . S
C207 O204 1.259 . S
C208 O205 1.252 . S
C208 O206 1.273 . S
O209 Mg196 2.010 . S
O209 C201 1.249 . S
Mg210 O211 2.028 . S
Mg210 O217 1.986 . S
Mg210 O219 2.114 . S
Mg210 O220 2.251 . S
Mg210 O223 2.010 . S
O211 Mg210 2.028 . S
O211 C214 1.250 . S
O212 Mg213 2.028 . S
O212 C214 1.248 . S
Mg213 O212 2.028 . S
Mg213 O218 2.032 . S
Mg213 O220 2.079 . S
C214 O211 1.250 . S
C214 O212 1.248 . S
C215 O216 1.264 . S
C215 O223 1.249 . S
O216 C215 1.264 . S
O217 Mg210 1.986 . S
O217 C221 1.246 . S
O218 Mg213 2.032 . S
O218 C221 1.259 . S
O219 Mg210 2.114 . S
O219 C222 1.252 . S
O220 Mg210 2.251 . S
O220 Mg213 2.079 . S
O220 C222 1.273 . S
C221 O217 1.246 . S
C221 O218 1.259 . S
C222 O219 1.252 . S
C222 O220 1.273 . S
O223 Mg210 2.010 . S
O223 C215 1.249 . S
Mg224 O225 2.028 . S
Mg224 O231 1.986 . S
Mg224 O233 2.114 . S
Mg224 O234 2.251 . S
Mg224 O237 2.010 . S
O225 Mg224 2.028 . S
O225 C228 1.250 . S
O226 Mg227 2.028 . S
O226 C228 1.248 . S
Mg227 O226 2.028 . S
Mg227 O232 2.032 . S
Mg227 O234 2.079 . S
C228 O225 1.250 . S
C228 O226 1.248 . S
C229 O230 1.264 . S
C229 O237 1.249 . S
O230 C229 1.264 . S
O231 Mg224 1.986 . S
O231 C235 1.246 . S
O232 Mg227 2.032 . S
O232 C235 1.259 . S
O233 Mg224 2.114 . S
O233 C236 1.252 . S
O234 Mg224 2.251 . S
O234 Mg227 2.079 . S
O234 C236 1.273 . S
C235 O231 1.246 . S
C235 O232 1.259 . S
C236 O233 1.252 . S
C236 O234 1.273 . S
O237 Mg224 2.010 . S
O237 C229 1.249 . S
Mg238 O239 2.028 . S
Mg238 O245 1.986 . S
Mg238 O247 2.114 . S
Mg238 O248 2.251 . S
Mg238 O251 2.010 . S
O239 Mg238 2.028 . S
O239 C242 1.250 . S
O240 Mg241 2.028 . S
O240 C242 1.248 . S
Mg241 O240 2.028 . S
Mg241 O246 2.032 . S
Mg241 O248 2.079 . S
C242 O239 1.250 . S
C242 O240 1.248 . S
C243 O244 1.264 . S
C243 O251 1.249 . S
O244 C243 1.264 . S
O245 Mg238 1.986 . S
O245 C249 1.246 . S
O246 Mg241 2.032 . S
O246 C249 1.259 . S
O247 Mg238 2.114 . S
O247 C250 1.252 . S
O248 Mg238 2.251 . S
O248 Mg241 2.079 . S
O248 C250 1.273 . S
C249 O245 1.246 . S
C249 O246 1.259 . S
C250 O247 1.252 . S
C250 O248 1.273 . S
O251 Mg238 2.010 . S
O251 C243 1.249 . S
H252 C258 0.930 . S
H253 C261 0.930 . S
H254 C262 0.930 . S
H255 C263 0.930 . S
H256 C266 0.930 . S
H257 C267 0.930 . S
C258 H252 0.930 . S
C258 C259 1.355 . S
C258 C260 1.415 . S
C259 C258 1.355 . S
C259 C261 1.419 . S
C260 C258 1.415 . S
C260 C265 1.425 . S
C260 C267 1.409 . S
C261 H253 0.930 . S
C261 C259 1.419 . S
C261 C262 1.362 . S
C262 H254 0.930 . S
C262 C261 1.362 . S
C262 C265 1.409 . S
C263 H255 0.930 . S
C263 C264 1.355 . S
C263 C265 1.415 . S
C264 C263 1.355 . S
C264 C266 1.419 . S
C265 C260 1.425 . S
C265 C262 1.409 . S
C265 C263 1.415 . S
C266 H256 0.930 . S
C266 C264 1.419 . S
C266 C267 1.362 . S
C267 H257 0.930 . S
C267 C260 1.409 . S
C267 C266 1.362 . S
H268 C274 0.930 . S
H269 C277 0.930 . S
H270 C278 0.930 . S
H271 C279 0.930 . S
H272 C282 0.930 . S
H273 C283 0.930 . S
C274 H268 0.930 . S
C274 C275 1.355 . S
C274 C276 1.415 . S
C275 C274 1.355 . S
C275 C277 1.419 . S
C276 C274 1.415 . S
C276 C281 1.425 . S
C276 C283 1.409 . S
C277 H269 0.930 . S
C277 C275 1.419 . S
C277 C278 1.362 . S
C278 H270 0.930 . S
C278 C277 1.362 . S
C278 C281 1.409 . S
C279 H271 0.930 . S
C279 C280 1.355 . S
C279 C281 1.415 . S
C280 C279 1.355 . S
C280 C282 1.419 . S
C281 C276 1.425 . S
C281 C278 1.409 . S
C281 C279 1.415 . S
C282 H272 0.930 . S
C282 C280 1.419 . S
C282 C283 1.362 . S
C283 H273 0.930 . S
C283 C276 1.409 . S
C283 C282 1.362 . S
H284 C290 0.930 . S
H285 C293 0.930 . S
H286 C294 0.930 . S
H287 C295 0.930 . S
H288 C298 0.930 . S
H289 C299 0.930 . S
C290 H284 0.930 . S
C290 C291 1.355 . S
C290 C292 1.415 . S
C291 C290 1.355 . S
C291 C293 1.419 . S
C292 C290 1.415 . S
C292 C297 1.425 . S
C292 C299 1.409 . S
C293 H285 0.930 . S
C293 C291 1.419 . S
C293 C294 1.362 . S
C294 H286 0.930 . S
C294 C293 1.362 . S
C294 C297 1.409 . S
C295 H287 0.930 . S
C295 C296 1.355 . S
C295 C297 1.415 . S
C296 C295 1.355 . S
C296 C298 1.419 . S
C297 C292 1.425 . S
C297 C294 1.409 . S
C297 C295 1.415 . S
C298 H288 0.930 . S
C298 C296 1.419 . S
C298 C299 1.362 . S
C299 H289 0.930 . S
C299 C292 1.409 . S
C299 C298 1.362 . S
H300 C306 0.930 . S
H301 C309 0.930 . S
H302 C310 0.930 . S
H303 C311 0.930 . S
H304 C314 0.930 . S
H305 C315 0.930 . S
C306 H300 0.930 . S
C306 C307 1.355 . S
C306 C308 1.415 . S
C307 C306 1.355 . S
C307 C309 1.419 . S
C308 C306 1.415 . S
C308 C313 1.425 . S
C308 C315 1.409 . S
C309 H301 0.930 . S
C309 C307 1.419 . S
C309 C310 1.362 . S
C310 H302 0.930 . S
C310 C309 1.362 . S
C310 C313 1.409 . S
C311 H303 0.930 . S
C311 C312 1.355 . S
C311 C313 1.415 . S
C312 C311 1.355 . S
C312 C314 1.419 . S
C313 C308 1.425 . S
C313 C310 1.409 . S
C313 C311 1.415 . S
C314 H304 0.930 . S
C314 C312 1.419 . S
C314 C315 1.362 . S
C315 H305 0.930 . S
C315 C308 1.409 . S
C315 C314 1.362 . S
H316 C322 0.930 . S
H317 C325 0.930 . S
H318 C326 0.930 . S
H319 C327 0.930 . S
H320 C330 0.930 . S
H321 C331 0.930 . S
C322 H316 0.930 . S
C322 C323 1.355 . S
C322 C324 1.415 . S
C323 C322 1.355 . S
C323 C325 1.419 . S
C324 C322 1.415 . S
C324 C329 1.425 . S
C324 C331 1.409 . S
C325 H317 0.930 . S
C325 C323 1.419 . S
C325 C326 1.362 . S
C326 H318 0.930 . S
C326 C325 1.362 . S
C326 C329 1.409 . S
C327 H319 0.930 . S
C327 C328 1.355 . S
C327 C329 1.415 . S
C328 C327 1.355 . S
C328 C330 1.419 . S
C329 C324 1.425 . S
C329 C326 1.409 . S
C329 C327 1.415 . S
C330 H320 0.930 . S
C330 C328 1.419 . S
C330 C331 1.362 . S
C331 H321 0.930 . S
C331 C324 1.409 . S
C331 C330 1.362 . S
H332 C338 0.930 . S
H333 C341 0.930 . S
H334 C342 0.930 . S
H335 C343 0.930 . S
H336 C346 0.930 . S
H337 C347 0.930 . S
C338 H332 0.930 . S
C338 C339 1.355 . S
C338 C340 1.415 . S
C339 C338 1.355 . S
C339 C341 1.419 . S
C340 C338 1.415 . S
C340 C345 1.425 . S
C340 C347 1.409 . S
C341 H333 0.930 . S
C341 C339 1.419 . S
C341 C342 1.362 . S
C342 H334 0.930 . S
C342 C341 1.362 . S
C342 C345 1.409 . S
C343 H335 0.930 . S
C343 C344 1.355 . S
C343 C345 1.415 . S
C344 C343 1.355 . S
C344 C346 1.419 . S
C345 C340 1.425 . S
C345 C342 1.409 . S
C345 C343 1.415 . S
C346 H336 0.930 . S
C346 C344 1.419 . S
C346 C347 1.362 . S
C347 H337 0.930 . S
C347 C340 1.409 . S
C347 C346 1.362 . S
H348 C354 0.930 . S
H349 C357 0.930 . S
H350 C358 0.930 . S
H351 C359 0.930 . S
H352 C362 0.930 . S
H353 C363 0.930 . S
C354 H348 0.930 . S
C354 C355 1.355 . S
C354 C356 1.415 . S
C355 C354 1.355 . S
C355 C357 1.419 . S
C356 C354 1.415 . S
C356 C361 1.425 1_654 S
C356 C363 1.409 1_654 S
C357 H349 0.930 . S
C357 C355 1.419 . S
C357 C358 1.362 . S
C358 H350 0.930 . S
C358 C357 1.362 . S
C358 C361 1.409 1_654 S
C359 H351 0.930 . S
C359 C360 1.355 . S
C359 C361 1.415 . S
C360 C359 1.355 . S
C360 C362 1.419 . S
C361 C356 1.425 1_456 S
C361 C358 1.409 1_456 S
C361 C359 1.415 . S
C362 H352 0.930 . S
C362 C360 1.419 . S
C362 C363 1.362 . S
C363 H353 0.930 . S
C363 C356 1.409 1_456 S
C363 C362 1.362 . S
H364 C370 0.930 . S
H365 C373 0.930 . S
H366 C374 0.930 . S
H367 C375 0.930 . S
H368 C378 0.930 . S
H369 C379 0.930 . S
C370 H364 0.930 . S
C370 C371 1.355 . S
C370 C372 1.415 1_554 S
C371 C370 1.355 . S
C371 C373 1.419 . S
C372 C370 1.415 1_556 S
C372 C377 1.425 1_556 S
C372 C379 1.409 . S
C373 H365 0.930 . S
C373 C371 1.419 . S
C373 C374 1.362 . S
C374 H366 0.930 . S
C374 C373 1.362 . S
C374 C377 1.409 . S
C375 H367 0.930 . S
C375 C376 1.355 . S
C375 C377 1.415 1_556 S
C376 C375 1.355 . S
C376 C378 1.419 . S
C377 C372 1.425 1_554 S
C377 C374 1.409 . S
C377 C375 1.415 1_554 S
C378 H368 0.930 . S
C378 C376 1.419 . S
C378 C379 1.362 . S
C379 H369 0.930 . S
C379 C372 1.409 . S
C379 C378 1.362 . S
H380 C386 0.930 . S
H381 C389 0.930 . S
H382 C390 0.930 . S
H383 C391 0.930 . S
H384 C394 0.930 . S
H385 C395 0.930 . S
C386 H380 0.930 . S
C386 C387 1.355 . S
C386 C388 1.441 . S
C387 C386 1.355 . S
C387 C389 1.419 . S
C388 C386 1.441 . S
C388 C393 1.378 1_544 S
C388 C395 1.408 1_544 S
C389 H381 0.930 . S
C389 C387 1.419 . S
C389 C390 1.362 . S
C390 H382 0.930 . S
C390 C389 1.362 . S
C390 C393 1.408 1_544 S
C391 H383 0.930 . S
C391 C392 1.355 . S
C391 C393 1.441 . S
C392 C391 1.355 . S
C392 C394 1.419 . S
C393 C388 1.378 1_566 S
C393 C390 1.408 1_566 S
C393 C391 1.441 . S
C394 H384 0.930 . S
C394 C392 1.419 . S
C394 C395 1.362 . S
C395 H385 0.930 . S
C395 C388 1.408 1_566 S
C395 C394 1.362 . S
H396 C402 0.930 . S
H397 C405 0.930 . S
H398 C406 0.930 . S
H399 C407 0.930 . S
H400 C410 0.930 . S
H401 C411 0.930 . S
C402 H396 0.930 . S
C402 C403 1.355 . S
C402 C404 1.415 . S
C403 C402 1.355 . S
C403 C405 1.419 . S
C404 C402 1.415 . S
C404 C409 1.425 . S
C404 C411 1.409 . S
C405 H397 0.930 . S
C405 C403 1.419 . S
C405 C406 1.362 . S
C406 H398 0.930 . S
C406 C405 1.362 . S
C406 C409 1.409 . S
C407 H399 0.930 . S
C407 C408 1.355 . S
C407 C409 1.415 . S
C408 C407 1.355 . S
C408 C410 1.419 . S
C409 C404 1.425 . S
C409 C406 1.409 . S
C409 C407 1.415 . S
C410 H400 0.930 . S
C410 C408 1.419 . S
C410 C411 1.362 . S
C411 H401 0.930 . S
C411 C404 1.409 . S
C411 C410 1.362 . S
H412 C418 0.930 . S
H413 C421 0.930 . S
H414 C422 0.930 . S
H415 C423 0.930 . S
H416 C426 0.930 . S
H417 C427 0.930 . S
C418 H412 0.930 . S
C418 C419 1.355 . S
C418 C420 1.415 . S
C419 C418 1.355 . S
C419 C421 1.419 . S
C420 C418 1.415 . S
C420 C425 1.425 . S
C420 C427 1.409 . S
C421 H413 0.930 . S
C421 C419 1.419 . S
C421 C422 1.362 . S
C422 H414 0.930 . S
C422 C421 1.362 . S
C422 C425 1.409 . S
C423 H415 0.930 . S
C423 C424 1.355 . S
C423 C425 1.415 . S
C424 C423 1.355 . S
C424 C426 1.419 . S
C425 C420 1.425 . S
C425 C422 1.409 . S
C425 C423 1.415 . S
C426 H416 0.930 . S
C426 C424 1.419 . S
C426 C427 1.362 . S
C427 H417 0.930 . S
C427 C420 1.409 . S
C427 C426 1.362 . S
H428 C434 0.930 . S
H429 C437 0.930 . S
H430 C438 0.930 . S
H431 C439 0.930 . S
H432 C442 0.930 . S
H433 C443 0.930 . S
C434 H428 0.930 . S
C434 C435 1.355 . S
C434 C436 1.415 . S
C435 C434 1.355 . S
C435 C437 1.419 . S
C436 C434 1.415 . S
C436 C441 1.425 . S
C436 C443 1.409 . S
C437 H429 0.930 . S
C437 C435 1.419 . S
C437 C438 1.362 . S
C438 H430 0.930 . S
C438 C437 1.362 . S
C438 C441 1.409 . S
C439 H431 0.930 . S
C439 C440 1.355 . S
C439 C441 1.415 . S
C440 C439 1.355 . S
C440 C442 1.419 . S
C441 C436 1.425 . S
C441 C438 1.409 . S
C441 C439 1.415 . S
C442 H432 0.930 . S
C442 C440 1.419 . S
C442 C443 1.362 . S
C443 H433 0.930 . S
C443 C436 1.409 . S
C443 C442 1.362 . S
H444 C450 0.930 . S
H445 C453 0.930 . S
H446 C454 0.930 . S
H447 C455 0.930 . S
H448 C458 0.930 . S
H449 C459 0.930 . S
C450 H444 0.930 . S
C450 C451 1.355 . S
C450 C452 1.415 . S
C451 C450 1.355 . S
C451 C453 1.419 . S
C452 C450 1.415 . S
C452 C457 1.425 . S
C452 C459 1.409 . S
C453 H445 0.930 . S
C453 C451 1.419 . S
C453 C454 1.362 . S
C454 H446 0.930 . S
C454 C453 1.362 . S
C454 C457 1.409 . S
C455 H447 0.930 . S
C455 C456 1.355 . S
C455 C457 1.415 . S
C456 C455 1.355 . S
C456 C458 1.419 . S
C457 C452 1.425 . S
C457 C454 1.409 . S
C457 C455 1.415 . S
C458 H448 0.930 . S
C458 C456 1.419 . S
C458 C459 1.362 . S
C459 H449 0.930 . S
C459 C452 1.409 . S
C459 C458 1.362 . S
H460 C466 0.930 . S
H461 C469 0.930 . S
H462 C470 0.930 . S
H463 C471 0.930 . S
H464 C474 0.930 . S
H465 C475 0.930 . S
C466 H460 0.930 . S
C466 C467 1.355 . S
C466 C468 1.415 . S
C467 C466 1.355 . S
C467 C469 1.419 . S
C468 C466 1.415 . S
C468 C473 1.425 . S
C468 C475 1.409 . S
C469 H461 0.930 . S
C469 C467 1.419 . S
C469 C470 1.362 . S
C470 H462 0.930 . S
C470 C469 1.362 . S
C470 C473 1.409 . S
C471 H463 0.930 . S
C471 C472 1.355 . S
C471 C473 1.415 . S
C472 C471 1.355 . S
C472 C474 1.419 . S
C473 C468 1.425 . S
C473 C470 1.409 . S
C473 C471 1.415 . S
C474 H464 0.930 . S
C474 C472 1.419 . S
C474 C475 1.362 . S
C475 H465 0.930 . S
C475 C468 1.409 . S
C475 C474 1.362 . S
H476 C482 0.930 . S
H477 C485 0.930 . S
H478 C486 0.930 . S
H479 C487 0.930 . S
H480 C490 0.930 . S
H481 C491 0.930 . S
C482 H476 0.930 . S
C482 C483 1.355 . S
C482 C484 1.415 . S
C483 C482 1.355 . S
C483 C485 1.419 . S
C484 C482 1.415 . S
C484 C489 1.425 . S
C484 C491 1.409 . S
C485 H477 0.930 . S
C485 C483 1.419 . S
C485 C486 1.362 . S
C486 H478 0.930 . S
C486 C485 1.362 . S
C486 C489 1.409 . S
C487 H479 0.930 . S
C487 C488 1.355 . S
C487 C489 1.415 . S
C488 C487 1.355 . S
C488 C490 1.419 . S
C489 C484 1.425 . S
C489 C486 1.409 . S
C489 C487 1.415 . S
C490 H480 0.930 . S
C490 C488 1.419 . S
C490 C491 1.362 . S
C491 H481 0.930 . S
C491 C484 1.409 . S
C491 C490 1.362 . S
H492 C498 0.930 . S
H493 C501 0.930 . S
H494 C502 0.930 . S
H495 C503 0.930 . S
H496 C506 0.930 . S
H497 C507 0.930 . S
C498 H492 0.930 . S
C498 C499 1.355 . S
C498 C500 1.415 1_655 S
C499 C498 1.355 . S
C499 C501 1.419 . S
C500 C498 1.415 1_455 S
C500 C505 1.425 1_455 S
C500 C507 1.409 . S
C501 H493 0.930 . S
C501 C499 1.419 . S
C501 C502 1.362 . S
C502 H494 0.930 . S
C502 C501 1.362 . S
C502 C505 1.409 . S
C503 H495 0.930 . S
C503 C504 1.355 . S
C503 C505 1.415 1_455 S
C504 C503 1.355 . S
C504 C506 1.419 . S
C505 C500 1.425 1_655 S
C505 C502 1.409 . S
C505 C503 1.415 1_655 S
C506 H496 0.930 . S
C506 C504 1.419 . S
C506 C507 1.362 . S
C507 H497 0.930 . S
C507 C500 1.409 . S
C507 C506 1.362 . S
H508 C514 0.930 . S
H509 C517 0.930 . S
H510 C518 0.930 . S
H511 C519 0.930 . S
H512 C522 0.930 . S
H513 C523 0.930 . S
C514 H508 0.930 . S
C514 C515 1.355 . S
C514 C516 1.415 . S
C515 C514 1.355 . S
C515 C517 1.419 . S
C516 C514 1.415 . S
C516 C521 1.425 . S
C516 C523 1.409 . S
C517 H509 0.930 . S
C517 C515 1.419 . S
C517 C518 1.362 . S
C518 H510 0.930 . S
C518 C517 1.362 . S
C518 C521 1.409 . S
C519 H511 0.930 . S
C519 C520 1.355 . S
C519 C521 1.415 . S
C520 C519 1.355 . S
C520 C522 1.419 . S
C521 C516 1.425 . S
C521 C518 1.409 . S
C521 C519 1.415 . S
C522 H512 0.930 . S
C522 C520 1.419 . S
C522 C523 1.362 . S
C523 H513 0.930 . S
C523 C516 1.409 . S
C523 C522 1.362 . S
H524 C530 0.930 . S
H525 C533 0.930 . S
H526 C534 0.930 . S
H527 C535 0.930 . S
H528 C538 0.930 . S
H529 C539 0.930 . S
C530 H524 0.930 . S
C530 C531 1.355 . S
C530 C532 1.415 1_565 S
C531 C530 1.355 . S
C531 C533 1.419 . S
C532 C530 1.415 1_545 S
C532 C537 1.425 1_545 S
C532 C539 1.409 . S
C533 H525 0.930 . S
C533 C531 1.419 . S
C533 C534 1.362 . S
C534 H526 0.930 . S
C534 C533 1.362 . S
C534 C537 1.409 . S
C535 H527 0.930 . S
C535 C536 1.355 . S
C535 C537 1.415 1_545 S
C536 C535 1.355 . S
C536 C538 1.419 . S
C537 C532 1.425 1_565 S
C537 C534 1.409 . S
C537 C535 1.415 1_565 S
C538 H528 0.930 . S
C538 C536 1.419 . S
C538 C539 1.362 . S
C539 H529 0.930 . S
C539 C532 1.409 . S
C539 C538 1.362 . S
H540 C546 0.930 . S
H541 C549 0.930 . S
H542 C550 0.930 . S
H543 C551 0.930 . S
H544 C554 0.930 . S
H545 C555 0.930 . S
C546 H540 0.930 . S
C546 C547 1.355 1_556 S
C546 C548 1.415 . S
C547 C546 1.355 1_554 S
C547 C549 1.419 . S
C548 C546 1.415 . S
C548 C553 1.425 1_556 S
C548 C555 1.409 . S
C549 H541 0.930 . S
C549 C547 1.419 . S
C549 C550 1.362 . S
C550 H542 0.930 . S
C550 C549 1.362 . S
C550 C553 1.409 . S
C551 H543 0.930 . S
C551 C552 1.355 1_554 S
C551 C553 1.415 . S
C552 C551 1.355 1_556 S
C552 C554 1.419 . S
C553 C548 1.425 1_554 S
C553 C550 1.409 . S
C553 C551 1.415 . S
C554 H544 0.930 . S
C554 C552 1.419 . S
C554 C555 1.362 . S
C555 H545 0.930 . S
C555 C548 1.409 . S
C555 C554 1.362 . S
H556 C562 0.930 . S
H557 C565 0.930 . S
H558 C566 0.930 . S
H559 C567 0.930 . S
H560 C570 0.930 . S
H561 C571 0.930 . S
C562 H556 0.930 . S
C562 C563 1.355 . S
C562 C564 1.415 . S
C563 C562 1.355 . S
C563 C565 1.419 1_556 S
C564 C562 1.415 . S
C564 C569 1.425 1_546 S
C564 C571 1.409 1_545 S
C565 H557 0.930 . S
C565 C563 1.419 1_554 S
C565 C566 1.362 . S
C566 H558 0.930 . S
C566 C565 1.362 . S
C566 C569 1.409 1_545 S
C567 H559 0.930 . S
C567 C568 1.355 . S
C567 C569 1.415 . S
C568 C567 1.355 . S
C568 C570 1.419 1_554 S
C569 C564 1.425 1_564 S
C569 C566 1.409 1_565 S
C569 C567 1.415 . S
C570 H560 0.930 . S
C570 C568 1.419 1_556 S
C570 C571 1.362 . S
C571 H561 0.930 . S
C571 C564 1.409 1_565 S
C571 C570 1.362 . S
H572 C578 0.930 . S
H573 C581 0.930 . S
H574 C582 0.930 . S
H575 C583 0.930 . S
H576 C586 0.930 . S
H577 C587 0.930 . S
C578 H572 0.930 . S
C578 C579 1.355 1_554 S
C578 C580 1.415 . S
C579 C578 1.355 1_556 S
C579 C581 1.419 . S
C580 C578 1.415 . S
C580 C585 1.425 1_654 S
C580 C587 1.409 1_655 S
C581 H573 0.930 . S
C581 C579 1.419 . S
C581 C582 1.362 . S
C582 H574 0.930 . S
C582 C581 1.362 . S
C582 C585 1.409 1_655 S
C583 H575 0.930 . S
C583 C584 1.355 1_556 S
C583 C585 1.415 . S
C584 C583 1.355 1_554 S
C584 C586 1.419 . S
C585 C580 1.425 1_456 S
C585 C582 1.409 1_455 S
C585 C583 1.415 . S
C586 H576 0.930 . S
C586 C584 1.419 . S
C586 C587 1.362 . S
C587 H577 0.930 . S
C587 C580 1.409 1_455 S
C587 C586 1.362 . S
H588 C594 0.930 . S
H589 C597 0.930 . S
H590 C598 0.930 . S
H591 C599 0.930 . S
H592 C602 0.930 . S
H593 C603 0.930 . S
C594 H588 0.930 . S
C594 C595 1.355 1_554 S
C594 C596 1.415 . S
C595 C594 1.355 1_556 S
C595 C597 1.419 . S
C596 C594 1.415 . S
C596 C601 1.425 1_554 S
C596 C603 1.409 . S
C597 H589 0.930 . S
C597 C595 1.419 . S
C597 C598 1.362 . S
C598 H590 0.930 . S
C598 C597 1.362 . S
C598 C601 1.409 . S
C599 H591 0.930 . S
C599 C600 1.355 1_556 S
C599 C601 1.415 . S
C600 C599 1.355 1_554 S
C600 C602 1.419 . S
C601 C596 1.425 1_556 S
C601 C598 1.409 . S
C601 C599 1.415 . S
C602 H592 0.930 . S
C602 C600 1.419 . S
C602 C603 1.362 . S
C603 H593 0.930 . S
C603 C596 1.409 . S
C603 C602 1.362 . S
H604 C610 0.930 . S
H605 C613 0.930 . S
H606 C614 0.930 . S
H607 C615 0.930 . S
H608 C618 0.930 . S
H609 C619 0.930 . S
C610 H604 0.930 . S
C610 C611 1.355 . S
C610 C612 1.415 . S
C611 C610 1.355 . S
C611 C613 1.419 1_554 S
C612 C610 1.415 . S
C612 C617 1.425 1_564 S
C612 C619 1.409 1_565 S
C613 H605 0.930 . S
C613 C611 1.419 1_556 S
C613 C614 1.362 . S
C614 H606 0.930 . S
C614 C613 1.362 . S
C614 C617 1.409 1_565 S
C615 H607 0.930 . S
C615 C616 1.355 . S
C615 C617 1.415 . S
C616 C615 1.355 . S
C616 C618 1.419 1_556 S
C617 C612 1.425 1_546 S
C617 C614 1.409 1_545 S
C617 C615 1.415 . S
C618 H608 0.930 . S
C618 C616 1.419 1_554 S
C618 C619 1.362 . S
C619 H609 0.930 . S
C619 C612 1.409 1_545 S
C619 C618 1.362 . S
H620 C626 0.930 . S
H621 C629 0.930 . S
H622 C630 0.930 . S
H623 C631 0.930 . S
H624 C634 0.930 . S
H625 C635 0.930 . S
C626 H620 0.930 . S
C626 C627 1.355 . S
C626 C628 1.415 . S
C627 C626 1.355 . S
C627 C629 1.419 1_556 S
C628 C626 1.415 . S
C628 C633 1.425 1_656 S
C628 C635 1.409 1_655 S
C629 H621 0.930 . S
C629 C627 1.419 1_554 S
C629 C630 1.362 . S
C630 H622 0.930 . S
C630 C629 1.362 . S
C630 C633 1.409 1_655 S
C631 H623 0.930 . S
C631 C632 1.355 . S
C631 C633 1.415 . S
C632 C631 1.355 . S
C632 C634 1.419 1_554 S
C633 C628 1.425 1_454 S
C633 C630 1.409 1_455 S
C633 C631 1.415 . S
C634 H624 0.930 . S
C634 C632 1.419 1_556 S
C634 C635 1.362 . S
C635 H625 0.930 . S
C635 C628 1.409 1_455 S
C635 C634 1.362 . S
H636 C642 0.930 . S
H637 C645 0.930 . S
H638 C646 0.930 . S
H639 C647 0.930 . S
H640 C650 0.930 . S
H641 C651 0.930 . S
C642 H636 0.930 . S
C642 C643 1.355 . S
C642 C644 1.415 . S
C643 C642 1.355 . S
C643 C645 1.419 . S
C644 C642 1.415 . S
C644 C649 1.425 . S
C644 C651 1.409 . S
C645 H637 0.930 . S
C645 C643 1.419 . S
C645 C646 1.362 . S
C646 H638 0.930 . S
C646 C645 1.362 . S
C646 C649 1.409 . S
C647 H639 0.930 . S
C647 C648 1.355 . S
C647 C649 1.415 . S
C648 C647 1.355 . S
C648 C650 1.419 . S
C649 C644 1.425 . S
C649 C646 1.409 . S
C649 C647 1.415 . S
C650 H640 0.930 . S
C650 C648 1.419 . S
C650 C651 1.362 . S
C651 H641 0.930 . S
C651 C644 1.409 . S
C651 C650 1.362 . S
H652 C658 0.930 . S
H653 C661 0.930 . S
H654 C662 0.930 . S
H655 C663 0.930 . S
H656 C666 0.930 . S
H657 C667 0.930 . S
C658 H652 0.930 . S
C658 C659 1.355 . S
C658 C660 1.415 . S
C659 C658 1.355 . S
C659 C661 1.419 . S
C660 C658 1.415 . S
C660 C665 1.425 . S
C660 C667 1.409 . S
C661 H653 0.930 . S
C661 C659 1.419 . S
C661 C662 1.362 . S
C662 H654 0.930 . S
C662 C661 1.362 . S
C662 C665 1.409 . S
C663 H655 0.930 . S
C663 C664 1.355 . S
C663 C665 1.415 . S
C664 C663 1.355 . S
C664 C666 1.419 . S
C665 C660 1.425 . S
C665 C662 1.409 . S
C665 C663 1.415 . S
C666 H656 0.930 . S
C666 C664 1.419 . S
C666 C667 1.362 . S
C667 H657 0.930 . S
C667 C660 1.409 . S
C667 C666 1.362 . S
H668 C674 0.930 . S
H669 C677 0.930 . S
H670 C678 0.930 . S
H671 C679 0.930 . S
H672 C682 0.930 . S
H673 C683 0.930 . S
C674 H668 0.930 . S
C674 C675 1.355 . S
C674 C676 1.415 . S
C675 C674 1.355 . S
C675 C677 1.419 . S
C676 C674 1.415 . S
C676 C681 1.425 . S
C676 C683 1.409 . S
C677 H669 0.930 . S
C677 C675 1.419 . S
C677 C678 1.362 . S
C678 H670 0.930 . S
C678 C677 1.362 . S
C678 C681 1.409 . S
C679 H671 0.930 . S
C679 C680 1.355 . S
C679 C681 1.415 . S
C680 C679 1.355 . S
C680 C682 1.419 . S
C681 C676 1.425 . S
C681 C678 1.409 . S
C681 C679 1.415 . S
C682 H672 0.930 . S
C682 C680 1.419 . S
C682 C683 1.362 . S
C683 H673 0.930 . S
C683 C676 1.409 . S
C683 C682 1.362 . S
H684 C690 0.930 . S
H685 C693 0.930 . S
H686 C694 0.930 . S
H687 C695 0.930 . S
H688 C698 0.930 . S
H689 C699 0.930 . S
C690 H684 0.930 . S
C690 C691 1.355 . S
C690 C692 1.415 . S
C691 C690 1.355 . S
C691 C693 1.419 . S
C692 C690 1.415 . S
C692 C697 1.425 . S
C692 C699 1.409 . S
C693 H685 0.930 . S
C693 C691 1.419 . S
C693 C694 1.362 . S
C694 H686 0.930 . S
C694 C693 1.362 . S
C694 C697 1.409 . S
C695 H687 0.930 . S
C695 C696 1.355 . S
C695 C697 1.415 . S
C696 C695 1.355 . S
C696 C698 1.419 . S
C697 C692 1.425 . S
C697 C694 1.409 . S
C697 C695 1.415 . S
C698 H688 0.930 . S
C698 C696 1.419 . S
C698 C699 1.362 . S
C699 H689 0.930 . S
C699 C692 1.409 . S
C699 C698 1.362 . S
H700 C706 0.930 . S
H701 C709 0.930 . S
H702 C710 0.930 . S
H703 C711 0.930 . S
H704 C714 0.930 . S
H705 C715 0.930 . S
C706 H700 0.930 . S
C706 C707 1.355 . S
C706 C708 1.415 . S
C707 C706 1.355 . S
C707 C709 1.419 . S
C708 C706 1.415 . S
C708 C713 1.425 . S
C708 C715 1.409 . S
C709 H701 0.930 . S
C709 C707 1.419 . S
C709 C710 1.362 . S
C710 H702 0.930 . S
C710 C709 1.362 . S
C710 C713 1.409 . S
C711 H703 0.930 . S
C711 C712 1.355 . S
C711 C713 1.415 . S
C712 C711 1.355 . S
C712 C714 1.419 . S
C713 C708 1.425 . S
C713 C710 1.409 . S
C713 C711 1.415 . S
C714 H704 0.930 . S
C714 C712 1.419 . S
C714 C715 1.362 . S
C715 H705 0.930 . S
C715 C708 1.409 . S
C715 C714 1.362 . S
H716 C722 0.930 . S
H717 C725 0.930 . S
H718 C726 0.930 . S
H719 C727 0.930 . S
H720 C730 0.930 . S
H721 C731 0.930 . S
C722 H716 0.930 . S
C722 C723 1.355 . S
C722 C724 1.415 . S
C723 C722 1.355 . S
C723 C725 1.419 . S
C724 C722 1.415 . S
C724 C729 1.425 . S
C724 C731 1.409 . S
C725 H717 0.930 . S
C725 C723 1.419 . S
C725 C726 1.362 . S
C726 H718 0.930 . S
C726 C725 1.362 . S
C726 C729 1.409 . S
C727 H719 0.930 . S
C727 C728 1.355 . S
C727 C729 1.415 . S
C728 C727 1.355 . S
C728 C730 1.419 . S
C729 C724 1.425 . S
C729 C726 1.409 . S
C729 C727 1.415 . S
C730 H720 0.930 . S
C730 C728 1.419 . S
C730 C731 1.362 . S
C731 H721 0.930 . S
C731 C724 1.409 . S
C731 C730 1.362 . S
H732 C738 0.930 . S
H733 C741 0.930 . S
H734 C742 0.930 . S
H735 C743 0.930 . S
H736 C746 0.930 . S
H737 C747 0.930 . S
C738 H732 0.930 . S
C738 C739 1.355 . S
C738 C740 1.415 . S
C739 C738 1.355 . S
C739 C741 1.419 . S
C740 C738 1.415 . S
C740 C745 1.425 . S
C740 C747 1.409 . S
C741 H733 0.930 . S
C741 C739 1.419 . S
C741 C742 1.362 . S
C742 H734 0.930 . S
C742 C741 1.362 . S
C742 C745 1.409 . S
C743 H735 0.930 . S
C743 C744 1.355 . S
C743 C745 1.415 . S
C744 C743 1.355 . S
C744 C746 1.419 . S
C745 C740 1.425 . S
C745 C742 1.409 . S
C745 C743 1.415 . S
C746 H736 0.930 . S
C746 C744 1.419 . S
C746 C747 1.362 . S
C747 H737 0.930 . S
C747 C740 1.409 . S
C747 C746 1.362 . S
H748 C754 0.930 . S
H749 C757 0.930 . S
H750 C758 0.930 . S
H751 C759 0.930 . S
H752 C762 0.930 . S
H753 C763 0.930 . S
C754 H748 0.930 . S
C754 C755 1.355 . S
C754 C756 1.415 . S
C755 C754 1.355 . S
C755 C757 1.419 . S
C756 C754 1.415 . S
C756 C761 1.425 . S
C756 C763 1.409 . S
C757 H749 0.930 . S
C757 C755 1.419 . S
C757 C758 1.362 . S
C758 H750 0.930 . S
C758 C757 1.362 . S
C758 C761 1.409 . S
C759 H751 0.930 . S
C759 C760 1.355 . S
C759 C761 1.415 . S
C760 C759 1.355 . S
C760 C762 1.419 . S
C761 C756 1.425 . S
C761 C758 1.409 . S
C761 C759 1.415 . S
C762 H752 0.930 . S
C762 C760 1.419 . S
C762 C763 1.362 . S
C763 H753 0.930 . S
C763 C756 1.409 . S
C763 C762 1.362 . S
H764 C770 0.930 . S
H765 C773 0.930 . S
H766 C774 0.930 . S
H767 C775 0.930 . S
H768 C778 0.930 . S
H769 C779 0.930 . S
C770 H764 0.930 . S
C770 C771 1.355 . S
C770 C772 1.415 . S
C771 C770 1.355 . S
C771 C773 1.419 . S
C772 C770 1.415 . S
C772 C777 1.425 . S
C772 C779 1.409 . S
C773 H765 0.930 . S
C773 C771 1.419 . S
C773 C774 1.362 . S
C774 H766 0.930 . S
C774 C773 1.362 . S
C774 C777 1.409 . S
C775 H767 0.930 . S
C775 C776 1.355 . S
C775 C777 1.415 . S
C776 C775 1.355 . S
C776 C778 1.419 . S
C777 C772 1.425 . S
C777 C774 1.409 . S
C777 C775 1.415 . S
C778 H768 0.930 . S
C778 C776 1.419 . S
C778 C779 1.362 . S
C779 H769 0.930 . S
C779 C772 1.409 . S
C779 C778 1.362 . S
H780 C786 0.930 . S
H781 C789 0.930 . S
H782 C790 0.930 . S
H783 C791 0.930 . S
H784 C794 0.930 . S
H785 C795 0.930 . S
C786 H780 0.930 . S
C786 C787 1.355 . S
C786 C788 1.415 . S
C787 C786 1.355 . S
C787 C789 1.419 . S
C788 C786 1.415 . S
C788 C793 1.425 . S
C788 C795 1.409 . S
C789 H781 0.930 . S
C789 C787 1.419 . S
C789 C790 1.362 . S
C790 H782 0.930 . S
C790 C789 1.362 . S
C790 C793 1.409 . S
C791 H783 0.930 . S
C791 C792 1.355 . S
C791 C793 1.415 . S
C792 C791 1.355 . S
C792 C794 1.419 . S
C793 C788 1.425 . S
C793 C790 1.409 . S
C793 C791 1.415 . S
C794 H784 0.930 . S
C794 C792 1.419 . S
C794 C795 1.362 . S
C795 H785 0.930 . S
C795 C788 1.409 . S
C795 C794 1.362 . S
H796 C802 0.930 . S
H797 C805 0.930 . S
H798 C806 0.930 . S
H799 C807 0.930 . S
H800 C810 0.930 . S
H801 C811 0.930 . S
C802 H796 0.930 . S
C802 C803 1.355 . S
C802 C804 1.415 . S
C803 C802 1.355 . S
C803 C805 1.419 . S
C804 C802 1.415 . S
C804 C809 1.425 . S
C804 C811 1.409 . S
C805 H797 0.930 . S
C805 C803 1.419 . S
C805 C806 1.362 . S
C806 H798 0.930 . S
C806 C805 1.362 . S
C806 C809 1.409 . S
C807 H799 0.930 . S
C807 C808 1.355 . S
C807 C809 1.415 . S
C808 C807 1.355 . S
C808 C810 1.419 . S
C809 C804 1.425 . S
C809 C806 1.409 . S
C809 C807 1.415 . S
C810 H800 0.930 . S
C810 C808 1.419 . S
C810 C811 1.362 . S
C811 H801 0.930 . S
C811 C804 1.409 . S
C811 C810 1.362 . S
H812 C818 0.930 . S
H813 C821 0.930 . S
H814 C822 0.930 . S
H815 C823 0.930 . S
H816 C826 0.930 . S
H817 C827 0.930 . S
C818 H812 0.930 . S
C818 C819 1.355 . S
C818 C820 1.415 . S
C819 C818 1.355 . S
C819 C821 1.419 . S
C820 C818 1.415 . S
C820 C825 1.425 . S
C820 C827 1.409 . S
C821 H813 0.930 . S
C821 C819 1.419 . S
C821 C822 1.362 . S
C822 H814 0.930 . S
C822 C821 1.362 . S
C822 C825 1.409 . S
C823 H815 0.930 . S
C823 C824 1.355 . S
C823 C825 1.415 . S
C824 C823 1.355 . S
C824 C826 1.419 . S
C825 C820 1.425 . S
C825 C822 1.409 . S
C825 C823 1.415 . S
C826 H816 0.930 . S
C826 C824 1.419 . S
C826 C827 1.362 . S
C827 H817 0.930 . S
C827 C820 1.409 . S
C827 C826 1.362 . S
C259 C249 1.575 . S
C264 C11 1.570 . S
C275 C221 1.566 . S
C280 C25 1.583 . S
C291 C235 1.591 . S
C296 C39 1.565 . S
C307 C109 1.604 . S
C312 C53 1.609 . S
C323 C123 1.571 . S
C328 C67 1.606 . S
C339 C81 1.567 . S
C344 C95 1.599 . S
C355 C137 1.578 . S
C360 C193 1.611 . S
C371 C151 1.582 . S
C376 C207 1.566 . S
C387 C165 1.604 . S
C392 C179 1.569 . S
C403 C4 1.256 . S
C408 C242 1.214 . S
C419 C214 1.213 . S
C424 C18 1.272 . S
C435 C32 1.280 . S
C440 C228 1.239 . S
C451 C102 1.213 . S
C456 C46 1.274 . S
C467 C60 1.266 . S
C472 C116 1.212 . S
C483 C74 1.223 . S
C488 C88 1.240 . S
C499 C130 1.272 . S
C504 C186 1.253 . S
C515 C200 1.260 . S
C520 C144 1.267 . S
C531 C172 1.276 . S
C536 C158 1.247 . S
C547 C5 1.248 . S
C552 C47 1.331 . S
C563 C61 1.332 . S
C568 C19 1.367 . S
C579 C75 1.243 . S
C584 C33 1.323 . S
C595 C82 1.457 . S
C600 C26 1.457 . S
C611 C40 1.443 . S
C616 C54 1.443 . S
C627 C68 1.441 . S
C632 C12 1.441 . S
C643 C89 1.364 . S
C648 C131 1.291 . S
C659 C145 1.353 . S
C664 C103 1.271 . S
C675 C159 1.300 . S
C680 C117 1.234 . S
C691 C166 1.444 . S
C696 C110 1.444 . S
C707 C124 1.458 . S
C712 C138 1.458 . S
C723 C152 1.455 . S
C728 C96 1.455 . S
C739 C215 1.288 . S
C744 C173 1.363 . S
C755 C229 1.299 . S
C760 C187 1.367 . S
C771 C201 1.366 . S
C776 C243 1.299 . S
C787 C250 1.447 . S
C792 C194 1.447 . S
C803 C208 1.457 . S
C808 C222 1.457 . S
C819 C236 1.453 . S
C824 C180 1.453 . S
