# Generated by pormake.
# Topology crs, (6)-cn, num edge types: 1
# Building blocks:
#     Node 0, Type 0, BuildingBlock: PAMTUU_clean_sbu_0, # of connection points: 6
#     Node 1, Type 0, BuildingBlock: PAMTUU_clean_sbu_0, # of connection points: 6
#     Node 2, Type 0, BuildingBlock: PAMTUU_clean_sbu_0, # of connection points: 6
#     Node 3, Type 0, BuildingBlock: PAMTUU_clean_sbu_0, # of connection points: 6
#     Node 4, Type 0, BuildingBlock: PAMTUU_clean_sbu_0, # of connection points: 6
#     Node 5, Type 0, BuildingBlock: PAMTUU_clean_sbu_0, # of connection points: 6
#     Node 6, Type 0, BuildingBlock: PAMTUU_clean_sbu_0, # of connection points: 6
#     Node 7, Type 0, BuildingBlock: PAMTUU_clean_sbu_0, # of connection points: 6
#     Node 8, Type 0, BuildingBlock: PAMTUU_clean_sbu_0, # of connection points: 6
#     Node 9, Type 0, BuildingBlock: PAMTUU_clean_sbu_0, # of connection points: 6
#     Node 10, Type 0, BuildingBlock: PAMTUU_clean_sbu_0, # of connection points: 6
#     Node 11, Type 0, BuildingBlock: PAMTUU_clean_sbu_0, # of connection points: 6
#     Node 12, Type 0, BuildingBlock: PAMTUU_clean_sbu_0, # of connection points: 6
#     Node 13, Type 0, BuildingBlock: PAMTUU_clean_sbu_0, # of connection points: 6
#     Node 14, Type 0, BuildingBlock: PAMTUU_clean_sbu_0, # of connection points: 6
#     Node 15, Type 0, BuildingBlock: PAMTUU_clean_sbu_0, # of connection points: 6
#     Edge 16, Type (0, 0), BuildingBlock: EZIPEK_clean_linker_0, # of connection points: 2
#     Edge 17, Type (0, 0), BuildingBlock: EZIPEK_clean_linker_0, # of connection points: 2
#     Edge 18, Type (0, 0), BuildingBlock: EZIPEK_clean_linker_0, # of connection points: 2
#     Edge 19, Type (0, 0), BuildingBlock: EZIPEK_clean_linker_0, # of connection points: 2
#     Edge 20, Type (0, 0), BuildingBlock: EZIPEK_clean_linker_0, # of connection points: 2
#     Edge 21, Type (0, 0), BuildingBlock: EZIPEK_clean_linker_0, # of connection points: 2
#     Edge 22, Type (0, 0), BuildingBlock: EZIPEK_clean_linker_0, # of connection points: 2
#     Edge 23, Type (0, 0), BuildingBlock: EZIPEK_clean_linker_0, # of connection points: 2
#     Edge 24, Type (0, 0), BuildingBlock: EZIPEK_clean_linker_0, # of connection points: 2
#     Edge 25, Type (0, 0), BuildingBlock: EZIPEK_clean_linker_0, # of connection points: 2
#     Edge 26, Type (0, 0), BuildingBlock: EZIPEK_clean_linker_0, # of connection points: 2
#     Edge 27, Type (0, 0), BuildingBlock: EZIPEK_clean_linker_0, # of connection points: 2
#     Edge 28, Type (0, 0), BuildingBlock: EZIPEK_clean_linker_0, # of connection points: 2
#     Edge 29, Type (0, 0), BuildingBlock: EZIPEK_clean_linker_0, # of connection points: 2
#     Edge 30, Type (0, 0), BuildingBlock: EZIPEK_clean_linker_0, # of connection points: 2
#     Edge 31, Type (0, 0), BuildingBlock: EZIPEK_clean_linker_0, # of connection points: 2
#     Edge 32, Type (0, 0), BuildingBlock: EZIPEK_clean_linker_0, # of connection points: 2
#     Edge 33, Type (0, 0), BuildingBlock: EZIPEK_clean_linker_0, # of connection points: 2
#     Edge 34, Type (0, 0), BuildingBlock: EZIPEK_clean_linker_0, # of connection points: 2
#     Edge 35, Type (0, 0), BuildingBlock: EZIPEK_clean_linker_0, # of connection points: 2
#     Edge 36, Type (0, 0), BuildingBlock: EZIPEK_clean_linker_0, # of connection points: 2
#     Edge 37, Type (0, 0), BuildingBlock: EZIPEK_clean_linker_0, # of connection points: 2
#     Edge 38, Type (0, 0), BuildingBlock: EZIPEK_clean_linker_0, # of connection points: 2
#     Edge 39, Type (0, 0), BuildingBlock: EZIPEK_clean_linker_0, # of connection points: 2
#     Edge 40, Type (0, 0), BuildingBlock: EZIPEK_clean_linker_0, # of connection points: 2
#     Edge 41, Type (0, 0), BuildingBlock: EZIPEK_clean_linker_0, # of connection points: 2
#     Edge 42, Type (0, 0), BuildingBlock: EZIPEK_clean_linker_0, # of connection points: 2
#     Edge 43, Type (0, 0), BuildingBlock: EZIPEK_clean_linker_0, # of connection points: 2
#     Edge 44, Type (0, 0), BuildingBlock: EZIPEK_clean_linker_0, # of connection points: 2
#     Edge 45, Type (0, 0), BuildingBlock: EZIPEK_clean_linker_0, # of connection points: 2
#     Edge 46, Type (0, 0), BuildingBlock: EZIPEK_clean_linker_0, # of connection points: 2
#     Edge 47, Type (0, 0), BuildingBlock: EZIPEK_clean_linker_0, # of connection points: 2
#     Edge 48, Type (0, 0), BuildingBlock: EZIPEK_clean_linker_0, # of connection points: 2
#     Edge 49, Type (0, 0), BuildingBlock: EZIPEK_clean_linker_0, # of connection points: 2
#     Edge 50, Type (0, 0), BuildingBlock: EZIPEK_clean_linker_0, # of connection points: 2
#     Edge 51, Type (0, 0), BuildingBlock: EZIPEK_clean_linker_0, # of connection points: 2
#     Edge 52, Type (0, 0), BuildingBlock: EZIPEK_clean_linker_0, # of connection points: 2
#     Edge 53, Type (0, 0), BuildingBlock: EZIPEK_clean_linker_0, # of connection points: 2
#     Edge 54, Type (0, 0), BuildingBlock: EZIPEK_clean_linker_0, # of connection points: 2
#     Edge 55, Type (0, 0), BuildingBlock: EZIPEK_clean_linker_0, # of connection points: 2
#     Edge 56, Type (0, 0), BuildingBlock: EZIPEK_clean_linker_0, # of connection points: 2
#     Edge 57, Type (0, 0), BuildingBlock: EZIPEK_clean_linker_0, # of connection points: 2
#     Edge 58, Type (0, 0), BuildingBlock: EZIPEK_clean_linker_0, # of connection points: 2
#     Edge 59, Type (0, 0), BuildingBlock: EZIPEK_clean_linker_0, # of connection points: 2
#     Edge 60, Type (0, 0), BuildingBlock: EZIPEK_clean_linker_0, # of connection points: 2
#     Edge 61, Type (0, 0), BuildingBlock: EZIPEK_clean_linker_0, # of connection points: 2
#     Edge 62, Type (0, 0), BuildingBlock: EZIPEK_clean_linker_0, # of connection points: 2
#     Edge 63, Type (0, 0), BuildingBlock: EZIPEK_clean_linker_0, # of connection points: 2
# Relax obj value: 0.489
# Max RMSD: 0.380
# Mean RMSD: 0.290
data_MOF--net-crs--node1-PAMTUU_clean_sbu_0--edge1-EZIPEK_clean_linker_0
_symmetry_space_group_name_H-M    P1
_symmetry_Int_Tables_number       1
_symmetry_cell_setting            triclinic
loop_
_symmetry_equiv_pos_as_xyz
'x, y, z'
_cell_length_a     43.725215
_cell_length_b     44.639981
_cell_length_c     33.879802
_cell_angle_alpha  69.226396
_cell_angle_beta   70.039862
_cell_angle_gamma 60.195816
loop_
_atom_site_label
_atom_site_type_symbol
_atom_site_fract_x
_atom_site_fract_y
_atom_site_fract_z
_atom_type_partial_charge
Tb0 Tb 0.01054 0.03142 0.97816 0.0
Tb1 Tb 0.98348 0.98898 0.07318 0.0
C2 C 0.93562 0.02929 1.00331 0.0
C3 C 0.04536 0.09356 0.90576 0.0
C4 C 0.07713 0.13305 0.91055 0.0
C5 C 0.09364 0.11218 0.87997 0.0
C6 C 0.07778 0.09252 0.87756 0.0
C7 C 0.02823 0.11568 0.93519 0.0
C8 C 0.04398 0.13539 0.93744 0.0
C9 C 0.03287 0.06737 0.90972 0.0
O10 O 0.97771 0.06979 1.01856 0.0
O11 O 0.98493 0.0332 0.08538 0.0
O12 O 0.04193 0.96746 0.06167 0.0
O13 O 0.04682 0.01781 1.01877 0.0
O14 O 0.94343 0.98753 0.12925 0.0
O15 O 0.99481 0.94237 0.12197 0.0
O16 O 0.99126 0.96032 0.02765 0.0
O17 O 0.03159 0.9772 0.97204 0.0
O18 O 0.96359 0.02959 0.97255 0.0
O19 O 0.93616 0.02298 0.04404 0.0
C20 C 0.97843 0.06456 0.05896 0.0
O21 O 0.05317 0.03488 0.92683 0.0
O22 O -0.00127 0.07562 0.92618 0.0
C23 C 0.05909 0.98757 0.04647 0.0
C24 C 0.943 0.93174 0.14959 0.0
C25 C 0.90159 0.89872 0.15254 0.0
C26 C 0.89068 0.919 0.18253 0.0
C27 C 0.91126 0.93556 0.18094 0.0
C28 C 0.95445 0.91017 0.12085 0.0
C29 C 0.9339 0.89386 0.12228 0.0
C30 C 0.96153 0.95359 0.14307 0.0
C31 C 0.01508 0.95635 0.99137 0.0
H32 H 0.11938 0.11012 0.85918 0.0
H33 H 0.09166 0.0752 0.85523 0.0
H34 H 0.00352 0.11653 0.95788 0.0
H35 H 0.03114 0.15124 0.96137 0.0
H36 H 0.86574 0.92287 0.20613 0.0
H37 H 0.90179 0.95233 0.2031 0.0
H38 H 0.97852 0.90707 0.09597 0.0
H39 H 0.94263 0.87829 0.09893 0.0
Tb40 Tb 0.97775 0.25496 0.23961 0.0
Tb41 Tb 0.01166 0.26565 0.30429 0.0
C42 C 0.94614 0.33036 0.26139 0.0
C43 C 0.95692 0.22298 0.16572 0.0
C44 C 0.96844 0.17837 0.11407 0.0
C45 C 0.93376 0.20447 0.12728 0.0
C46 C 0.92835 0.22685 0.15166 0.0
C47 C 0.99089 0.19559 0.15632 0.0
C48 C -0.00362 0.17317 0.13178 0.0
C49 C 0.94955 0.24588 0.19328 0.0
O50 O 0.02945 0.25653 0.2011 0.0
O51 O 0.03504 0.28694 0.23838 0.0
O52 O 0.04903 0.21263 0.29338 0.0
O53 O 0.01671 0.20131 0.26338 0.0
O54 O 0.05328 0.2703 0.3163 0.0
O55 O 0.00663 0.27071 0.36566 0.0
O56 O 0.9763 0.2395 0.34569 0.0
O57 O 0.93789 0.26072 0.30072 0.0
O58 O 0.94996 0.312 0.2356 0.0
O59 O 0.9659 0.31683 0.2907 0.0
C60 C 0.0455 0.2738 0.20428 0.0
O61 O 0.94884 0.23116 0.23417 0.0
O62 O 0.96586 0.26662 0.17914 0.0
C63 C 0.04497 0.19128 0.27903 0.0
C64 C 0.03411 0.30413 0.36768 0.0
C65 C 0.03008 0.35687 0.39912 0.0
C66 C 0.06234 0.32624 0.39432 0.0
C67 C 0.06429 0.30005 0.37881 0.0
C68 C 0.00207 0.33528 0.3713 0.0
C69 C 6e-05 0.36143 0.38704 0.0
C70 C 0.03611 0.27468 0.35507 0.0
C71 C 0.94437 0.24805 0.33995 0.0
H72 H 0.90993 0.20732 0.12057 0.0
H73 H 0.90139 0.24671 0.1606 0.0
H74 H 0.01294 0.19092 0.16894 0.0
H75 H 0.02248 0.15108 0.1288 0.0
H76 H 0.08575 0.32232 0.40344 0.0
H77 H 0.0892 0.27622 0.37633 0.0
H78 H 0.97842 0.33907 0.36284 0.0
H79 H 0.97496 0.38493 0.39051 0.0
Tb80 Tb 0.75563 0.26815 0.55467 0.0
Tb81 Tb 0.735 0.25493 0.4809 0.0
C82 C 0.75008 0.19582 0.57129 0.0
C83 C 0.7921 0.29603 0.61437 0.0
C84 C 0.83122 0.32641 0.62359 0.0
C85 C 0.82138 0.30211 0.65837 0.0
C86 C 0.80183 0.28705 0.65378 0.0
C87 C 0.80249 0.31988 0.57923 0.0
C88 C 0.82193 0.33512 0.5839 0.0
C89 C 0.77076 0.28045 0.61111 0.0
O90 O 0.8079 0.24172 0.5134 0.0
O91 O 0.78753 0.25696 0.45254 0.0
O92 O 0.7233 0.31148 0.45849 0.0
O93 O 0.75145 0.31552 0.50137 0.0
O94 O 0.75377 0.22239 0.43798 0.0
O95 O 0.70262 0.26873 0.43807 0.0
O96 O 0.68365 0.26847 0.52739 0.0
O97 O 0.69866 0.27746 0.57979 0.0
O98 O 0.75357 0.21716 0.58619 0.0
O99 O 0.74567 0.20443 0.53124 0.0
C100 C 0.81413 0.24653 0.47125 0.0
O101 O 0.74288 0.30211 0.59329 0.0
O102 O 0.78885 0.25096 0.598 0.0
C103 C 0.73606 0.32887 0.46777 0.0
C104 C 0.70826 0.22055 0.4185 0.0
C105 C 0.6765 0.18262 0.41 0.0
C106 C 0.69442 0.19915 0.3733 0.0
C107 C 0.71024 0.21804 0.37757 0.0
C108 C 0.69051 0.20385 0.45533 0.0
C109 C 0.67464 0.18495 0.45106 0.0
C110 C 0.72466 0.24087 0.42205 0.0
C111 C 0.67543 0.27524 0.56547 0.0
H112 H 0.82849 0.29517 0.68912 0.0
H113 H 0.79406 0.26858 0.68109 0.0
H114 H 0.79531 0.32689 0.54851 0.0
H115 H 0.82952 0.35381 0.55679 0.0
H116 H 0.69596 0.19755 0.34146 0.0
H117 H 0.7239 0.23082 0.34892 0.0
H118 H 0.68885 0.20559 0.48715 0.0
H119 H 0.66081 0.17228 0.47962 0.0
Tb120 Tb 0.75392 0.02709 0.80107 0.0
Tb121 Tb 0.73676 0.9951 0.74052 0.0
C122 C 0.67526 0.06078 0.77901 0.0
C123 C 0.78863 0.04633 0.87431 0.0
C124 C 0.8302 0.04079 0.92649 0.0
C125 C 0.79333 0.06354 0.93183 0.0
C126 C 0.77274 0.06637 0.90577 0.0
C127 C 0.82518 0.0222 0.87055 0.0
C128 C 0.84582 0.01953 0.89643 0.0
C129 C 0.76793 0.05461 0.84241 0.0
O130 O 0.7385 0.98602 0.84907 0.0
O131 O 0.73205 0.96075 0.80532 0.0
O132 O 0.79478 0.96712 0.73731 0.0
O133 O 0.80075 0.97633 0.79639 0.0
O134 O 0.71286 0.9665 0.73518 0.0
O135 O 0.74921 0.98286 0.68059 0.0
O136 O 0.73522 0.04661 0.69983 0.0
O137 O 0.76667 0.05501 0.73387 0.0
O138 O 0.69832 0.0626 0.79388 0.0
O139 O 0.68371 0.03517 0.76114 0.0
C140 C 0.73283 0.96148 0.84356 0.0
O141 O 0.78634 0.04762 0.80484 0.0
O142 O 0.74019 0.04727 0.85559 0.0
C143 C 0.81322 0.95875 0.76615 0.0
C144 C 0.70633 0.97218 0.66629 0.0
C145 C 0.66247 0.97347 0.62093 0.0
C146 C 0.69861 0.94868 0.61767 0.0
C147 C 0.72039 0.94809 0.64016 0.0
C148 C 0.67058 0.99809 0.66815 0.0
C149 C 0.64873 0.99877 0.64543 0.0
C150 C 0.72836 0.96663 0.69482 0.0
C151 C 0.75157 0.06421 0.70121 0.0
H152 H 0.78087 0.08 0.95501 0.0
H153 H 0.74468 0.0853 0.90899 0.0
H154 H 0.83813 1.00643 0.84653 0.0
H155 H 0.87423 1.00169 0.89212 0.0
H156 H 0.70956 0.92899 0.59893 0.0
H157 H 0.74786 0.92782 0.63859 0.0
H158 H 0.65927 0.01679 0.68835 0.0
H159 H 0.62082 0.01805 0.64823 0.0
Tb160 Tb 0.47612 0.75653 0.24277 0.0
Tb161 Tb 0.51449 0.76899 0.30107 0.0
C162 C 0.44453 0.83221 0.26253 0.0
C163 C 0.45754 0.71705 0.17655 0.0
C164 C 0.47068 0.66692 0.13362 0.0
C165 C 0.44298 0.7012 0.12593 0.0
C166 C 0.43649 0.72609 0.14725 0.0
C167 C 0.48588 0.68299 0.1835 0.0
C168 C 0.49244 0.65807 0.16207 0.0
C169 C 0.44781 0.74274 0.20148 0.0
O170 O 0.52 0.76843 0.19509 0.0
O171 O 0.54991 0.77104 0.23719 0.0
O172 O 0.55227 0.71673 0.28889 0.0
O173 O 0.51663 0.70387 0.26683 0.0
O174 O 0.53873 0.79753 0.30566 0.0
O175 O 0.53095 0.75595 0.35914 0.0
O176 O 0.47711 0.74706 0.34764 0.0
O177 O 0.43829 0.76306 0.30474 0.0
O178 O 0.44461 0.81286 0.24091 0.0
O179 O 0.46785 0.81987 0.28729 0.0
C180 C 0.54719 0.7714 0.19946 0.0
O181 O 0.44768 0.73023 0.24256 0.0
O182 O 0.46219 0.76514 0.18463 0.0
C183 C 0.54661 0.6946 0.27826 0.0
C184 C 0.5324 0.80309 0.37492 0.0
C185 C 0.5225 0.84931 0.42171 0.0
C186 C 0.55087 0.81518 0.42544 0.0
C187 C 0.55581 0.79228 0.40211 0.0
C188 C 0.50289 0.83659 0.37284 0.0
C189 C 0.498 0.85959 0.39609 0.0
C190 C 0.54197 0.78088 0.34535 0.0
C191 C 0.44567 0.75293 0.3432 0.0
H192 H 0.42599 0.70841 0.10405 0.0
H193 H 0.41445 0.7522 0.14161 0.0
H194 H 0.50228 0.67544 0.20621 0.0
H195 H 0.51391 0.63168 0.16835 0.0
H196 H 0.56994 0.80682 0.44514 0.0
H197 H 0.57881 0.76662 0.40395 0.0
H198 H 0.48452 0.84546 0.35197 0.0
H199 H 0.4759 0.88583 0.39297 0.0
Tb200 Tb 0.25591 0.77191 0.56006 0.0
Tb201 Tb 0.23898 0.75591 0.48507 0.0
C202 C 0.25711 0.69707 0.57267 0.0
C203 C 0.28526 0.80251 0.62491 0.0
C204 C 0.31847 0.83733 0.63743 0.0
C205 C 0.29961 0.82087 0.67293 0.0
C206 C 0.28298 0.80365 0.66664 0.0
C207 C 0.30434 0.81871 0.58932 0.0
C208 C 0.32076 0.83623 0.59556 0.0
C209 C 0.26828 0.78352 0.61951 0.0
O210 O 0.30466 0.76575 0.50928 0.0
O211 O 0.29666 0.74273 0.46474 0.0
O212 O 0.24323 0.80654 0.45573 0.0
O213 O 0.2343 0.82424 0.51586 0.0
O214 O 0.25304 0.72199 0.44586 0.0
O215 O 0.20809 0.77393 0.43875 0.0
O216 O 0.18598 0.77544 0.52855 0.0
O217 O 0.20359 0.77008 0.58819 0.0
O218 O 0.27007 0.7149 0.58059 0.0
O219 O 0.24224 0.70928 0.53894 0.0
C220 C 0.31639 0.75241 0.47507 0.0
O221 O 0.2388 0.80289 0.60445 0.0
O222 O 0.2898 0.75664 0.60164 0.0
C223 C 0.23708 0.83116 0.47389 0.0
C224 C 0.20487 0.72887 0.42213 0.0
C225 C 0.16613 0.69852 0.41194 0.0
C226 C 0.1799 0.71947 0.37618 0.0
C227 C 0.19919 0.7346 0.38129 0.0
C228 C 0.19078 0.7082 0.45805 0.0
C229 C 0.17146 0.69306 0.45296 0.0
C230 C 0.2262 0.74407 0.42632 0.0
C231 C 0.17928 0.77391 0.57011 0.0
H232 H 0.29775 0.82147 0.70538 0.0
H233 H 0.26848 0.79104 0.69438 0.0
H234 H 0.30671 0.81757 0.55696 0.0
H235 H 0.33537 0.84877 0.5679 0.0
H236 H 0.17596 0.72382 0.34437 0.0
H237 H 0.20995 0.75051 0.35331 0.0
H238 H 0.19507 0.70351 0.48977 0.0
H239 H 0.16094 0.67688 0.4808 0.0
Tb240 Tb 0.25976 0.5276 0.80097 0.0
Tb241 Tb 0.23885 0.4977 0.7404 0.0
C242 C 0.18002 0.56085 0.7843 0.0
C243 C 0.29114 0.54714 0.8785 0.0
C244 C 0.33194 0.54641 0.92792 0.0
C245 C 0.29541 0.57003 0.93075 0.0
C246 C 0.27517 0.57033 0.90628 0.0
C247 C 0.32725 0.52212 0.8774 0.0
C248 C 0.34752 0.52173 0.90209 0.0
C249 C 0.27125 0.55377 0.84658 0.0
O250 O 0.2505 0.48127 0.84547 0.0
O251 O 0.24016 0.45889 0.80172 0.0
O252 O 0.2957 0.46362 0.74229 0.0
O253 O 0.31112 0.48568 0.78123 0.0
O254 O 0.20913 0.47593 0.73258 0.0
O255 O 0.25184 0.48432 0.681 0.0
O256 O 0.2403 0.54811 0.6989 0.0
O257 O 0.26559 0.56157 0.73628 0.0
O258 O 0.20552 0.56453 0.79145 0.0
O259 O 0.18676 0.53313 0.77171 0.0
C260 C 0.2443 0.45724 0.83923 0.0
O261 O 0.2899 0.54909 0.80822 0.0
O262 O 0.24545 0.54363 0.85897 0.0
C263 C 0.319 0.46254 0.7598 0.0
C264 C 0.20719 0.47895 0.66206 0.0
C265 C 0.16669 0.47998 0.61206 0.0
C266 C 0.20303 0.45589 0.60988 0.0
C267 C 0.22314 0.4555 0.63459 0.0
C268 C 0.17127 0.5042 0.6628 0.0
C269 C 0.15115 0.50473 0.63784 0.0
C270 C 0.22716 0.4727 0.69359 0.0
C271 C 0.25382 0.56772 0.70192 0.0
H272 H 0.28302 0.58929 0.95044 0.0
H273 H 0.24749 0.59003 0.90729 0.0
H274 H 0.34019 0.5041 0.85601 0.0
H275 H 0.37574 0.50336 0.89952 0.0
H276 H 0.21534 0.43641 0.59053 0.0
H277 H 0.25072 0.4356 0.63394 0.0
H278 H 0.15836 0.52233 0.68403 0.0
H279 H 0.12302 0.52333 0.64012 0.0
Tb280 Tb 0.01409 0.53391 0.46901 0.0
Tb281 Tb 0.98813 0.48829 0.56122 0.0
C282 C 0.9368 0.53704 0.49527 0.0
C283 C 0.05254 0.59375 0.39771 0.0
C284 C 0.08861 0.63158 0.39581 0.0
C285 C 0.09379 0.62092 0.3588 0.0
C286 C 0.07579 0.60198 0.35979 0.0
C287 C 0.04694 0.60513 0.43433 0.0
C288 C 0.06475 0.62404 0.43333 0.0
C289 C 0.03701 0.57021 0.40125 0.0
O290 O 0.98473 0.56984 0.51303 0.0
O291 O 0.99098 0.52953 0.57807 0.0
O292 O 0.04671 0.46617 0.54853 0.0
O293 O 0.05156 0.51724 0.50939 0.0
O294 O 0.95095 0.48477 0.6196 0.0
O295 O -0.00125 0.43853 0.604 0.0
O296 O 0.99091 0.46568 0.51229 0.0
O297 O 0.03356 0.48083 0.45981 0.0
O298 O 0.96495 0.53574 0.46393 0.0
O299 O 0.93989 0.52722 0.53557 0.0
C300 C 0.98442 0.56185 0.55445 0.0
O301 O 0.05618 0.5368 0.41656 0.0
O302 O 0.00301 0.58023 0.41974 0.0
C303 C 0.06393 0.48607 0.53545 0.0
C304 C 0.94523 0.43243 0.63335 0.0
C305 C 0.90715 0.39587 0.63747 0.0
C306 C 0.92017 0.38987 0.67346 0.0
C307 C 0.9392 0.40819 0.6714 0.0
C308 C 0.93197 0.43836 0.59765 0.0
C309 C 0.91288 0.42039 0.59976 0.0
C310 C 0.96711 0.45023 0.62888 0.0
C311 C 0.01552 0.46135 0.47681 0.0
H312 H 0.11234 0.62652 0.3297 0.0
H313 H 0.08075 0.59294 0.3315 0.0
H314 H 0.0296 0.5985 0.46415 0.0
H315 H 0.06072 0.63194 0.46215 0.0
H316 H 0.91595 0.37082 0.70273 0.0
H317 H 0.94963 0.40308 0.69903 0.0
H318 H 0.93685 0.45656 0.56786 0.0
H319 H 0.90306 0.42515 0.57174 0.0
Tb320 Tb 0.25395 0.27408 0.0599 0.0
Tb321 Tb 0.23397 0.25701 0.98947 0.0
C322 C 0.25453 0.19753 0.07501 0.0
C323 C 0.28522 0.30368 0.12307 0.0
C324 C 0.32197 0.33632 0.13259 0.0
C325 C 0.30309 0.32063 0.16905 0.0
C326 C 0.28477 0.30437 0.16427 0.0
C327 C 0.30423 0.31922 0.08651 0.0
C328 C 0.32259 0.33551 0.09128 0.0
C329 C 0.26537 0.28695 0.11897 0.0
O330 O 0.30485 0.26178 1.01168 0.0
O331 O 0.2902 0.24992 0.96141 0.0
O332 O 0.2212 0.31408 0.96824 0.0
O333 O 0.25366 0.31852 1.00483 0.0
O334 O 0.24627 0.22739 0.94539 0.0
O335 O 0.19692 0.27539 0.95085 0.0
O336 O 0.18975 0.25822 0.04636 0.0
O337 O 0.19474 0.29445 0.07412 0.0
O338 O 0.25919 0.2194 0.08782 0.0
O339 O 0.24644 0.20623 0.0372 0.0
C340 C 0.31294 0.25429 0.97397 0.0
O341 O 0.23813 0.30799 0.09999 0.0
O342 O 0.28478 0.25751 0.10573 0.0
C343 C 0.23689 0.331 0.9729 0.0
C344 C 0.19515 0.23028 0.93274 0.0
C345 C 0.15513 0.19839 0.9292 0.0
C346 C 0.18001 0.20571 0.89275 0.0
C347 C 0.19989 0.22164 0.89451 0.0
C348 C 0.17056 0.22258 0.96946 0.0
C349 C 0.15051 0.2068 0.96763 0.0
C350 C 0.21547 0.248 0.93338 0.0
C351 C 0.17653 0.27828 0.07411 0.0
H352 H 0.3025 0.32109 0.20106 0.0
H353 H 0.27015 0.29244 0.19271 0.0
H354 H 0.30473 0.31884 0.05449 0.0
H355 H 0.33713 0.34757 0.06291 0.0
H356 H 0.18381 0.1993 0.86292 0.0
H357 H 0.21878 0.22744 0.86597 0.0
H358 H 0.16669 0.22905 0.99928 0.0
H359 H 0.13137 0.20125 0.99599 0.0
Tb360 Tb 0.25138 0.02989 0.30413 0.0
Tb361 Tb 0.24105 0.99595 0.24009 0.0
C362 C 0.17538 0.05992 0.27967 0.0
C363 C 0.27944 0.05274 0.38088 0.0
C364 C 0.32492 0.04855 0.42637 0.0
C365 C 0.29275 0.07906 0.42082 0.0
C366 C 0.27014 0.08111 0.39822 0.0
C367 C 0.31053 0.02138 0.3886 0.0
C368 C 0.3332 0.01929 0.41127 0.0
C369 C 0.25951 0.0589 0.34951 0.0
O370 O 0.23478 0.98837 0.34872 0.0
O371 O 0.24698 0.95576 0.30124 0.0
O372 O 0.29922 0.97354 0.23493 0.0
O373 O 0.30131 0.98219 0.29635 0.0
O374 O 0.21958 0.96569 0.23341 0.0
O375 O 0.25455 0.98446 0.17945 0.0
O376 O 0.23819 0.04803 0.19988 0.0
O377 O 0.26307 0.06052 0.23845 0.0
O378 O 0.19724 0.06479 0.29278 0.0
O379 O 0.18594 0.03199 0.26476 0.0
C380 C 0.23928 0.95932 0.34095 0.0
O381 O 0.27854 0.05454 0.31122 0.0
O382 O 0.2354 0.04659 0.36199 0.0
C383 C 0.31727 0.96687 0.26353 0.0
C384 C 0.2124 0.9735 0.16404 0.0
C385 C 0.16768 0.97732 0.11759 0.0
C386 C 0.20363 0.95198 0.11401 0.0
C387 C 0.22584 0.95013 0.13707 0.0
C388 C 0.17688 0.99991 0.1662 0.0
C389 C 0.15463 1.00178 0.14308 0.0
C390 C 0.23474 0.96719 0.19274 0.0
C391 C 0.25176 0.06731 0.2035 0.0
H392 H 0.28609 0.10189 0.43208 0.0
H393 H 0.24637 0.10562 0.39222 0.0
H394 H 0.31813 0.99934 0.37527 0.0
H395 H 0.35804 0.99558 0.41522 0.0
H396 H 0.21402 0.93278 0.09474 0.0
H397 H 0.25313 0.92948 0.13522 0.0
H398 H 0.16602 0.0181 0.18698 0.0
H399 H 0.12686 0.0214 0.14631 0.0
Tb400 Tb 0.47801 0.25559 0.73848 0.0
Tb401 Tb 0.51313 0.26876 0.79833 0.0
C402 C 0.44818 0.33078 0.75713 0.0
C403 C 0.46034 0.22211 0.66403 0.0
C404 C 0.47271 0.17332 0.61949 0.0
C405 C 0.44048 0.20434 0.62084 0.0
C406 C 0.43434 0.22855 0.64299 0.0
C407 C 0.49344 0.19203 0.6608 0.0
C408 C 0.4996 0.16776 0.63858 0.0
C409 C 0.45027 0.2443 0.69377 0.0
O410 O 0.5153 0.27819 0.69257 0.0
O411 O 0.55255 0.26289 0.73715 0.0
O412 O 0.53836 0.21129 0.80598 0.0
O413 O 0.52875 0.2083 0.74513 0.0
O414 O 0.54563 0.28948 0.80161 0.0
O415 O 0.52144 0.26185 0.85944 0.0
O416 O 0.46012 0.27152 0.83815 0.0
O417 O 0.45044 0.24105 0.80521 0.0
O418 O 0.44038 0.30762 0.75212 0.0
O419 O 0.4792 0.32146 0.76577 0.0
C420 C 0.5461 0.27323 0.69808 0.0
O421 O 0.45377 0.22731 0.73324 0.0
O422 O 0.46112 0.2693 0.68049 0.0
C423 C 0.54595 0.19389 0.7771 0.0
C424 C 0.53172 0.30734 0.86575 0.0
C425 C 0.52322 0.35791 0.90478 0.0
C426 C 0.53895 0.32163 0.92394 0.0
C427 C 0.54328 0.29653 0.90444 0.0
C428 C 0.51487 0.34374 0.84731 0.0
C429 C 0.51078 0.36883 0.86665 0.0
C430 C 0.54025 0.28027 0.8435 0.0
C431 C 0.44229 0.25477 0.83805 0.0
H432 H 0.41945 0.20899 0.60639 0.0
H433 H 0.40857 0.25148 0.64542 0.0
H434 H 0.51374 0.18655 0.67707 0.0
H435 H 0.52462 0.14391 0.63787 0.0
H436 H 0.54848 0.31277 0.9535 0.0
H437 H 0.55644 0.2686 0.91907 0.0
H438 H 0.50568 0.35275 0.81747 0.0
H439 H 0.49837 0.39675 0.85158 0.0
Tb440 Tb 0.98241 0.75183 0.7432 0.0
Tb441 Tb 0.01504 0.76814 0.80415 0.0
C442 C 0.94669 0.82815 0.7633 0.0
C443 C 0.95717 0.71404 0.67941 0.0
C444 C 0.96458 0.66891 0.63271 0.0
C445 C 0.93382 0.68062 0.66466 0.0
C446 C 0.93013 0.70307 0.68767 0.0
C447 C 0.98778 0.70295 0.64691 0.0
C448 C 0.99137 0.6806 0.62351 0.0
C449 C 0.95245 0.73603 0.70657 0.0
O450 O 0.02718 0.76141 0.69565 0.0
O451 O 0.05129 0.76948 0.74002 0.0
O452 O 0.03613 0.71058 0.81521 0.0
O453 O 0.03407 0.70674 0.75105 0.0
O454 O 0.0407 0.79671 0.80533 0.0
O455 O 0.03389 0.75557 0.86023 0.0
O456 O 0.9657 0.76704 0.84837 0.0
O457 O 0.95042 0.74491 0.80967 0.0
O458 O 0.95238 0.80874 0.73783 0.0
O459 O 0.96677 0.8171 0.7915 0.0
C460 C 0.0518 0.76715 0.70197 0.0
O461 O 0.96002 0.71936 0.74467 0.0
O462 O 0.96241 0.7618 0.68909 0.0
C463 C 0.04826 0.69276 0.78534 0.0
C464 C 0.03834 0.80234 0.87284 0.0
C465 C 0.02948 0.84992 0.91694 0.0
C466 C 0.06265 0.82061 0.91016 0.0
C467 C 0.067 0.797 0.88834 0.0
C468 C 0.00472 0.83093 0.88084 0.0
C469 C 0.00028 0.85454 0.90294 0.0
C470 C 0.04559 0.78009 0.84452 0.0
C471 C 0.94504 0.75497 0.84468 0.0
H472 H 0.91305 0.67171 0.67244 0.0
H473 H 0.90633 0.71136 0.71267 0.0
H474 H 0.00901 0.71103 0.64021 0.0
H475 H 0.01544 0.67158 0.59913 0.0
H476 H 0.08549 0.8167 0.92055 0.0
H477 H 0.09321 0.77524 0.88213 0.0
H478 H 0.98238 0.83561 0.86877 0.0
H479 H 0.97451 0.87709 0.9078 0.0
Tb480 Tb 0.75549 0.5263 0.30044 0.0
Tb481 Tb 0.73898 0.49651 0.23674 0.0
C482 C 0.6774 0.56248 0.27528 0.0
C483 C 0.78776 0.54316 0.37921 0.0
C484 C 0.83236 0.54091 0.42461 0.0
C485 C 0.7954 0.5632 0.43169 0.0
C486 C 0.77329 0.56424 0.40921 0.0
C487 C 0.82451 0.51965 0.37341 0.0
C488 C 0.84669 0.51846 0.39614 0.0
C489 C 0.76505 0.55036 0.35038 0.0
O490 O 0.7569 0.47374 0.33747 0.0
O491 O 0.72343 0.46869 0.30286 0.0
O492 O 0.79371 0.46014 0.24724 0.0
O493 O 0.80912 0.49186 0.27153 0.0
O494 O 0.71167 0.47235 0.22883 0.0
O495 O 0.75472 0.4808 0.17819 0.0
O496 O 0.74736 0.54358 0.19328 0.0
O497 O 0.75558 0.5655 0.23937 0.0
O498 O 0.69793 0.55785 0.29981 0.0
O499 O 0.68819 0.54211 0.24862 0.0
C500 C 0.73842 0.45823 0.33597 0.0
O501 O 0.77974 0.55289 0.30955 0.0
O502 O 0.74429 0.53414 0.36283 0.0
C503 C 0.81762 0.46428 0.25745 0.0
C504 C 0.71074 0.47493 0.15843 0.0
C505 C 0.66906 0.47648 0.10956 0.0
C506 C 0.70437 0.45013 0.11 0.0
C507 C 0.72506 0.44944 0.13417 0.0
C508 C 0.67603 0.50245 0.1563 0.0
C509 C 0.65532 0.50327 0.13183 0.0
C510 C 0.73044 0.46873 0.19025 0.0
C511 C 0.75238 0.56776 0.20103 0.0
H512 H 0.78394 0.58066 0.45353 0.0
H513 H 0.7451 0.58278 0.41381 0.0
H514 H 0.83626 0.50337 0.35012 0.0
H515 H 0.8752 0.50111 0.39034 0.0
H516 H 0.71532 0.42924 0.09311 0.0
H517 H 0.75164 0.42785 0.13571 0.0
H518 H 0.6644 0.52223 0.17507 0.0
H519 H 0.62804 0.52372 0.13192 0.0
Tb520 Tb 0.75365 0.77339 0.05764 0.0
Tb521 Tb 0.73712 0.75622 0.98383 0.0
C522 C 0.75486 0.69801 0.07101 0.0
C523 C 0.78598 0.80341 0.12007 0.0
C524 C 0.8205 0.83726 0.13214 0.0
C525 C 0.7982 0.82456 0.16719 0.0
C526 C 0.78102 0.80773 0.16114 0.0
C527 C 0.80778 0.81668 0.08476 0.0
C528 C 0.82495 0.83361 0.0908 0.0
C529 C 0.76936 0.78367 0.11541 0.0
O530 O 0.79786 0.77435 1.00127 0.0
O531 O 0.7957 0.73949 0.96752 0.0
O532 O 0.73652 0.80921 0.95664 0.0
O533 O 0.72819 0.82627 1.01717 0.0
O534 O 0.75142 0.72281 0.94373 0.0
O535 O 0.70693 0.77495 0.93656 0.0
O536 O 0.68475 0.77168 0.02926 0.0
O537 O 0.70047 0.77338 0.08651 0.0
O538 O 0.76829 0.71601 0.07785 0.0
O539 O 0.73946 0.71008 0.0378 0.0
C540 C 0.81255 0.7553 0.97199 0.0
O541 O 0.73835 0.80233 0.10379 0.0
O542 O 0.79055 0.75807 0.09527 0.0
C543 C 0.72937 0.83382 0.97558 0.0
C544 C 0.70332 0.73081 0.9186 0.0
C545 C 0.66402 0.70207 0.90618 0.0
C546 C 0.67721 0.72409 0.87143 0.0
C547 C 0.69685 0.73833 0.87763 0.0
C548 C 0.68944 0.70944 0.95366 0.0
C549 C 0.66992 0.69503 0.94741 0.0
C550 C 0.7249 0.74527 0.92383 0.0
C551 C 0.67715 0.77385 0.06968 0.0
H552 H 0.79459 0.82721 0.19924 0.0
H553 H 0.76432 0.79755 0.18868 0.0
H554 H 0.81201 0.81337 0.05288 0.0
H555 H 0.84217 0.84329 0.0635 0.0
H556 H 0.67278 0.72975 0.83948 0.0
H557 H 0.7073 0.75494 0.85036 0.0
H558 H 0.69405 0.70362 0.98557 0.0
H559 H 0.65979 0.67808 0.97451 0.0
Tb560 Tb 0.51423 0.02731 0.47532 0.0
Tb561 Tb 0.47669 0.99515 0.57105 0.0
C562 C 0.43563 0.03626 0.49506 0.0
C563 C 0.569 0.07026 0.40016 0.0
C564 C 0.60823 0.10553 0.39654 0.0
C565 C 0.59491 0.11218 0.36052 0.0
C566 C 0.57528 0.09456 0.36235 0.0
C567 C 0.58311 0.06316 0.43568 0.0
C568 C 0.60278 0.08051 0.4338 0.0
C569 C 0.54417 0.05549 0.40541 0.0
O570 O 0.51176 0.05435 0.51916 0.0
O571 O 0.46231 0.05009 0.5682 0.0
O572 O 0.52736 0.98809 0.57831 0.0
O573 O 0.55773 0.98728 0.50866 0.0
O574 O 0.43196 1.00401 0.62227 0.0
O575 O 0.47837 0.95329 0.62566 0.0
O576 O 0.5046 0.95256 0.53638 0.0
O577 O 0.50815 0.98493 0.46619 0.0
O578 O 0.4564 0.05291 0.47776 0.0
O579 O 0.44228 1.00927 0.52813 0.0
C580 C 0.4847 0.06498 0.55079 0.0
O581 O 0.55595 0.02127 0.42036 0.0
O582 O 0.51169 0.07243 0.42574 0.0
C583 C 0.5577 0.98023 0.54969 0.0
C584 C 0.42163 0.9529 0.64921 0.0
C585 C 0.38585 0.91359 0.65472 0.0
C586 C 0.40645 0.90294 0.68529 0.0
C587 C 0.42442 0.9225 0.68242 0.0
C588 C 0.39991 0.96401 0.6197 0.0
C589 C 0.38217 0.94452 0.62245 0.0
C590 C 0.44448 0.97057 0.64187 0.0
C591 C 0.50876 0.95579 0.49495 0.0
H592 H 0.59882 0.13168 0.33165 0.0
H593 H 0.56401 0.10075 0.33498 0.0
H594 H 0.5777 0.04518 0.46548 0.0
H595 H 0.61264 0.0754 0.46193 0.0
H596 H 0.40943 0.87903 0.7104 0.0
H597 H 0.44137 0.91332 0.70514 0.0
H598 H 0.39759 0.98709 0.59349 0.0
H599 H 0.36639 0.95299 0.59862 0.0
Tb600 Tb 0.51526 0.53332 0.96982 0.0
Tb601 Tb 0.4863 0.49123 0.06435 0.0
C602 C 0.43579 0.54253 0.99789 0.0
C603 C 0.55931 0.58805 0.89449 0.0
C604 C 0.59261 0.62948 0.88959 0.0
C605 C 0.57036 0.64063 0.86074 0.0
C606 C 0.5537 0.61993 0.86324 0.0
C607 C 0.58198 0.57697 0.92277 0.0
C608 C 0.59862 0.59741 0.92024 0.0
C609 C 0.53911 0.56792 0.90072 0.0
O610 O 0.48932 0.56952 1.01311 0.0
O611 O 0.49524 0.52965 0.0785 0.0
O612 O 0.54467 0.46609 0.05476 0.0
O613 O 0.55596 0.51214 1.00751 0.0
O614 O 0.44771 0.49214 0.12217 0.0
O615 O 0.49305 0.44325 0.10991 0.0
O616 O 0.48788 0.46682 1.01813 0.0
O617 O 0.5285 0.48185 0.96082 0.0
O618 O 0.4642 0.53858 0.96639 0.0
O619 O 0.43916 0.53288 0.03806 0.0
C620 C 0.49018 0.56138 0.05412 0.0
O621 O 0.55575 0.53365 0.91439 0.0
O622 O 0.506 0.58067 0.92205 0.0
C623 C 0.56612 0.48189 0.03584 0.0
C624 C 0.43729 0.44198 0.13922 0.0
C625 C 0.39684 0.40741 0.14471 0.0
C626 C 0.41031 0.40114 0.18043 0.0
C627 C 0.43055 0.41844 0.17768 0.0
C628 C 0.4233 0.44846 0.10389 0.0
C629 C 0.40302 0.43147 0.10668 0.0
C630 C 0.46142 0.45762 0.13364 0.0
C631 C 0.51031 0.46258 0.98106 0.0
H632 H 0.56554 0.66545 0.83693 0.0
H633 H 0.53592 0.62913 0.84153 0.0
H634 H 0.58615 0.55291 0.94763 0.0
H635 H 0.61563 0.58858 0.94279 0.0
H636 H 0.40576 0.38242 0.20992 0.0
H637 H 0.44159 0.41285 0.20499 0.0
H638 H 0.42888 0.46601 0.07371 0.0
H639 H 0.39293 0.43638 0.07882 0.0
C640 C 0.94503 0.12773 0.06739 0.0
C641 C 0.97558 0.09448 0.07243 0.0
C642 C 0.00691 0.12396 0.08078 0.0
C643 C 0.97397 0.1539 0.08754 0.0
N644 N 0.92347 0.19134 0.05264 0.0
N645 N 0.03563 0.06115 0.08779 0.0
C646 C 0.94578 0.15819 0.07116 0.0
C647 C 0.0065 0.09262 0.08034 0.0
N648 N 0.91487 0.1301 0.06037 0.0
N649 N 0.03849 0.12724 0.06703 0.0
H650 H 0.03559 0.0373 0.0908 0.0
H651 H 0.05774 0.05877 0.09613 0.0
H652 H 0.0388 0.15195 0.05907 0.0
H653 H 0.06315 0.10687 0.05753 0.0
H654 H 0.89068 0.15294 0.06071 0.0
H655 H 0.91314 0.1083 0.05812 0.0
H656 H 0.90455 0.19615 0.03637 0.0
H657 H 0.9277 0.21344 0.04842 0.0
C658 C 0.87174 0.25716 0.44663 0.0
C659 C 0.85143 0.24154 0.44274 0.0
C660 C 0.89773 0.22286 0.3777 0.0
C661 C 0.91474 0.2429 0.37803 0.0
N662 N 0.91744 0.27957 0.41343 0.0
N663 N 0.84779 0.20616 0.40629 0.0
C664 C 0.90203 0.25948 0.41318 0.0
C665 C 0.86535 0.22346 0.40868 0.0
N666 N 0.86214 0.27035 0.482 0.0
N667 N 0.91386 0.20149 0.34903 0.0
H668 H 0.82803 0.20088 0.43148 0.0
H669 H 0.85231 0.19742 0.37928 0.0
H670 H 0.93814 0.19921 0.32743 0.0
H671 H 0.90535 0.1835 0.34897 0.0
H672 H 0.87876 0.27661 0.4903 0.0
H673 H 0.83842 0.27352 0.50481 0.0
H674 H 0.90641 0.29686 0.43375 0.0
H675 H 0.94003 0.28123 0.39102 0.0
C676 C 0.76979 0.09613 0.62338 0.0
C677 C 0.75046 0.09759 0.66665 0.0
C678 C 0.72649 0.16307 0.6447 0.0
C679 C 0.74907 0.16165 0.60276 0.0
N680 N 0.79619 0.12517 0.55465 0.0
N681 N 0.71365 0.13337 0.7193 0.0
C682 C 0.77153 0.12769 0.59263 0.0
C683 C 0.72991 0.13131 0.6774 0.0
N684 N 0.78685 0.06444 0.6116 0.0
N685 N 0.7001 0.1949 0.65311 0.0
H686 H 0.71349 0.11151 0.74406 0.0
H687 H 0.7026 0.15647 0.73017 0.0
H688 H 0.69623 0.21875 0.63073 0.0
H689 H 0.67959 0.19739 0.68053 0.0
H690 H 0.79791 0.06197 0.57977 0.0
H691 H 0.78779 0.04078 0.63345 0.0
H692 H 0.81602 0.10117 0.54712 0.0
H693 H 0.79897 0.14713 0.53201 0.0
C694 C 0.88772 0.06636 0.95969 0.0
C695 C 0.90326 0.03524 0.99076 0.0
C696 C 0.86532 1.01127 0.98533 0.0
C697 C 0.85306 0.04038 0.95079 0.0
N698 N 0.85448 0.09454 0.90206 0.0
N699 N 0.9037 0.97859 0.03587 0.0
C700 C 0.8644 0.06791 0.93746 0.0
C701 C 0.89102 1.00821 1.00468 0.0
N702 N 0.89453 0.09484 0.95247 0.0
N703 N 0.8531 0.98564 0.99936 0.0
H704 H 0.9224 0.97346 0.05267 0.0
H705 H 0.9224 0.97346 0.05267 0.0
H706 H 0.83352 0.98701 0.98695 0.0
H707 H 0.86227 0.96327 0.02389 0.0
H708 H 0.88143 0.1196 0.93343 0.0
H709 H 0.91079 0.09473 0.96908 0.0
H710 H 0.86525 0.113 0.88755 0.0
H711 H 0.8373 0.09678 0.88504 0.0
C712 C 0.11964 0.98566 0.03622 0.0
C713 C 0.09002 0.97891 0.0645 0.0
C714 C 0.11709 0.96284 0.12594 0.0
C715 C 0.14261 0.9759 0.09845 0.0
N716 N 0.1667 1.00272 0.02748 0.0
N717 N 0.05757 0.96738 0.13835 0.0
C718 C 0.14364 0.988 0.05349 0.0
C719 C 0.08812 0.96858 0.10995 0.0
N720 N 0.12538 0.98889 0.99295 0.0
N721 N 0.12049 0.94487 0.16748 0.0
H722 H 0.03415 0.97404 0.12927 0.0
H723 H 0.05384 0.96386 0.17147 0.0
H724 H 0.14131 0.94023 0.18051 0.0
H725 H 0.10481 0.93152 0.18746 0.0
H726 H 0.14815 0.99093 0.97116 0.0
H727 H 0.10937 0.98556 0.97951 0.0
H728 H 0.16595 0.01543 0.9952 0.0
H729 H 0.18478 1.00466 0.03901 0.0
C730 C 0.01878 0.44369 0.4118 0.0
C731 C 0.02196 0.43422 0.45545 0.0
C732 C 0.02703 0.37526 0.46297 0.0
C733 C 0.02741 0.38356 0.41836 0.0
N734 N 0.0303 0.42331 0.34845 0.0
N735 N 0.03703 0.38844 0.51966 0.0
C736 C 0.02531 0.41708 0.39219 0.0
C737 C 0.02835 0.39924 0.48021 0.0
N738 N 0.00758 0.47832 0.38967 0.0
N739 N 0.02412 0.34505 0.48925 0.0
H740 H 0.03978 0.40473 0.53266 0.0
H741 H 0.04527 0.36229 0.53736 0.0
H742 H 0.02282 0.32688 0.47797 0.0
H743 H 0.0196 0.33969 0.52275 0.0
H744 H 0.00081 0.48717 0.35961 0.0
H745 H 0.00177 0.49887 0.40277 0.0
H746 H 0.03295 0.44584 0.32735 0.0
H747 H 0.035 0.40453 0.33294 0.0
C748 C 0.61933 0.30396 0.62061 0.0
C749 C 0.63936 0.27785 0.59543 0.0
C750 C 0.59178 0.25608 0.62907 0.0
C751 C 0.57553 0.27776 0.65954 0.0
N752 N 0.57498 0.32244 0.68434 0.0
N753 N 0.64699 0.22381 0.58371 0.0
C754 C 0.58981 0.30161 0.65532 0.0
C755 C 0.62595 0.25281 0.60135 0.0
N756 N 0.62729 0.33217 0.61002 0.0
N757 N 0.57524 0.23776 0.62683 0.0
H758 H 0.6731 0.21827 0.56603 0.0
H759 H 0.64026 0.20282 0.59107 0.0
H760 H 0.55152 0.23741 0.64765 0.0
H761 H 0.58379 0.22501 0.60198 0.0
H762 H 0.61175 0.35384 0.62426 0.0
H763 H 0.64712 0.33588 0.5836 0.0
H764 H 0.5869 0.33677 0.68675 0.0
H765 H 0.5515 0.32415 0.70743 0.0
C766 C 0.70036 0.92217 0.88951 0.0
C767 C 0.7289 0.93173 0.88166 0.0
C768 C 0.75065 0.88343 0.94433 0.0
C769 C 0.72591 0.87022 0.94747 0.0
N770 N 0.67704 0.87753 0.92178 0.0
N771 N 0.78534 0.91626 0.89795 0.0
C772 C 0.70078 0.8898 0.91957 0.0
C773 C 0.75481 0.91131 0.90853 0.0
N774 N 0.67189 0.94489 0.86957 0.0
N775 N 0.77135 0.86876 0.97459 0.0
H776 H 0.79073 0.93488 0.87126 0.0
H777 H 0.80724 0.89928 0.91288 0.0
H778 H 0.77174 0.84681 0.99948 0.0
H779 H 0.78632 0.88017 0.97683 0.0
H780 H 0.64856 0.94143 0.87679 0.0
H781 H 0.66993 0.96926 0.84893 0.0
H782 H 0.66144 0.88754 0.89878 0.0
H783 H 0.67402 0.85619 0.94577 0.0
C784 C 0.13825 0.27625 0.15189 0.0
C785 C 0.14106 0.28149 0.10676 0.0
C786 C 0.07809 0.28754 0.12507 0.0
C787 C 0.07814 0.27657 0.17004 0.0
N788 N 0.11399 0.25094 0.22411 0.0
N789 N 0.11175 0.29234 0.05096 0.0
C790 C 0.10968 0.26858 0.18276 0.0
C791 C 0.11047 0.28686 0.09368 0.0
N792 N 0.16269 0.27817 0.16635 0.0
N793 N 0.04654 0.30061 0.11212 0.0
H794 H 0.13212 0.29718 0.02654 0.0
H795 H 0.09306 0.29108 0.03981 0.0
H796 H 0.02232 0.30282 0.13377 0.0
H797 H 0.0435 0.31247 0.08029 0.0
H798 H 0.15874 0.27898 0.19817 0.0
H799 H 0.18546 0.28144 0.14695 0.0
H800 H 0.13794 0.2412 0.23414 0.0
H801 H 0.09559 0.2419 0.24691 0.0
C802 C 0.70412 0.426 0.3988 0.0
C803 C 0.73708 0.42573 0.37085 0.0
C804 C 0.76913 0.36458 0.41098 0.0
C805 C 0.73608 0.36331 0.43647 0.0
N806 N 0.6713 0.39257 0.45152 0.0
N807 N 0.79908 0.3902 0.34352 0.0
C808 C 0.70331 0.39399 0.42926 0.0
C809 C 0.76905 0.39383 0.37533 0.0
N810 N 0.67367 0.45717 0.39711 0.0
N811 N 0.80107 0.33778 0.42051 0.0
H812 H 0.79952 0.41007 0.31589 0.0
H813 H 0.82178 0.36616 0.34197 0.0
H814 H 0.8027 0.31567 0.44546 0.0
H815 H 0.8257 0.33916 0.40624 0.0
H816 H 0.64949 0.46047 0.4192 0.0
H817 H 0.67334 0.48065 0.37527 0.0
H818 H 0.64647 0.41213 0.44456 0.0
H819 H 0.66971 0.37073 0.4757 0.0
C820 C 0.59292 0.95153 0.6084 0.0
C821 C 0.59165 0.96785 0.5643 0.0
C822 C 0.64047 0.98299 0.55612 0.0
C823 C 0.6386 0.97082 0.60126 0.0
N824 N 0.615 0.94152 0.67083 0.0
N825 N 0.62817 0.97952 0.49399 0.0
C826 C 0.61565 0.95409 0.62752 0.0
C827 C 0.61953 0.97787 0.53719 0.0
N828 N 0.57406 0.93162 0.63084 0.0
N829 N 0.6613 1.00057 0.53148 0.0
H830 H 0.61766 0.97028 0.47998 0.0
H831 H 0.64982 0.98454 0.47325 0.0
H832 H 0.67725 1.00465 0.54411 0.0
H833 H 0.66038 0.01367 0.49931 0.0
H834 H 0.57517 0.91685 0.66235 0.0
H835 H 0.56008 0.92681 0.61596 0.0
H836 H 0.5961 0.93281 0.69274 0.0
H837 H 0.63262 0.94118 0.68555 0.0
C838 C 0.01712 0.93766 0.92778 0.0
C839 C 0.02158 0.92864 0.97083 0.0
C840 C 0.02775 0.86893 0.97975 0.0
C841 C 0.02635 0.87708 0.93577 0.0
N842 N 0.02808 0.91654 0.86539 0.0
N843 N 0.03982 0.88304 0.03399 0.0
C844 C 0.02352 0.91067 0.90902 0.0
C845 C 0.02936 0.89347 0.99577 0.0
N846 N 0.00504 0.97217 0.90523 0.0
N847 N 0.02649 0.8382 1.00657 0.0
H848 H 0.04273 0.89985 0.04594 0.0
H849 H 0.0491 0.85687 0.0516 0.0
H850 H 0.02514 0.81967 0.99601 0.0
H851 H 0.02349 0.83266 0.03988 0.0
H852 H -0.003 0.9805 0.87605 0.0
H853 H -3e-05 0.99308 0.91703 0.0
H854 H 0.03034 0.93913 0.84389 0.0
H855 H 0.03308 0.89746 0.85018 0.0
C856 C 0.12127 0.13066 0.94407 0.0
C857 C 0.09592 0.15034 0.91677 0.0
C858 C 0.10534 0.20297 0.90357 0.0
C859 C 0.13367 0.18216 0.92669 0.0
N860 N 0.17193 0.12533 0.96466 0.0
N861 N 0.06562 0.20389 0.86726 0.0
C862 C 0.14246 0.14577 0.94602 0.0
C863 C 0.08837 0.1862 0.89563 0.0
N864 N 0.12457 0.09782 0.96875 0.0
N865 N 0.09404 0.2389 0.89033 0.0
H866 H 0.05202 0.19265 0.86151 0.0
H867 H 0.06213 0.22874 0.84718 0.0
H868 H 0.10579 0.25209 0.89579 0.0
H869 H 0.07115 0.256 0.87726 0.0
H870 H 0.13941 0.08404 0.99302 0.0
H871 H 0.11008 0.08547 0.96754 0.0
H872 H 0.18207 0.09785 0.9749 0.0
H873 H 0.1881 0.13544 0.96691 0.0
C874 C 0.62914 0.61686 0.23758 0.0
C875 C 0.64087 0.59363 0.27646 0.0
C876 C 0.58816 0.63537 0.31753 0.0
C877 C 0.57599 0.65768 0.27879 0.0
N878 N 0.57947 0.66315 0.20403 0.0
N879 N 0.62529 0.57646 0.35397 0.0
C880 C 0.59454 0.64615 0.23964 0.0
C881 C 0.61852 0.60166 0.31665 0.0
N882 N 0.65181 0.61304 0.19837 0.0
N883 N 0.57064 0.64628 0.35534 0.0
H884 H 0.64591 0.55092 0.35439 0.0
H885 H 0.6082 0.57945 0.38391 0.0
H886 H 0.54668 0.66922 0.35799 0.0
H887 H 0.58078 0.63346 0.38352 0.0
H888 H 0.64599 0.6319 0.16982 0.0
H889 H 0.67807 0.59355 0.19434 0.0
H890 H 0.59004 0.65336 0.17622 0.0
H891 H 0.55451 0.68484 0.20365 0.0
C892 C 0.37393 0.8406 0.63771 0.0
C893 C 0.33588 0.85578 0.64424 0.0
C894 C 0.33109 0.90472 0.66642 0.0
C895 C 0.36905 0.89189 0.65473 0.0
N896 N 0.42675 0.85049 0.62341 0.0
N897 N 0.27804 0.90466 0.65884 0.0
C898 C 0.39061 0.86048 0.63896 0.0
C899 C 0.31432 0.88845 0.65717 0.0
N900 N 0.39405 0.8069 0.63132 0.0
N901 N 0.31119 0.93212 0.68695 0.0
H902 H 0.26474 0.89374 0.6519 0.0
H903 H 0.26157 0.93031 0.66345 0.0
H904 H 0.32275 0.94455 0.69432 0.0
H905 H 0.28378 0.94035 0.70015 0.0
H906 H 0.42156 0.79308 0.6309 0.0
H907 H 0.38273 0.79148 0.63026 0.0
H908 H 0.44305 0.83011 0.6071 0.0
H909 H 0.44008 0.86434 0.62365 0.0
C910 C 0.08465 0.63169 0.76781 0.0
C911 C 0.07962 0.65659 0.78929 0.0
C912 C 0.13288 0.61136 0.81908 0.0
C913 C 0.14289 0.59084 0.78912 0.0
N914 N 0.12928 0.58812 0.72688 0.0
N915 N 0.1082 0.67128 0.82558 0.0
C916 C 0.11904 0.6026 0.76123 0.0
C917 C 0.10613 0.64681 0.81254 0.0
N918 N 0.05671 0.63482 0.75477 0.0
N919 N 0.14865 0.59724 0.85393 0.0
H920 H 0.0933 0.69849 0.81612 0.0
H921 H 0.12883 0.66473 0.84029 0.0
H922 H 0.16629 0.57051 0.86177 0.0
H923 H 0.14042 0.61102 0.87768 0.0
H924 H 0.05909 0.61584 0.74135 0.0
H925 H 0.03029 0.65327 0.76288 0.0
H926 H 0.11323 0.59837 0.70425 0.0
H927 H 0.155 0.56914 0.71773 0.0
C928 C 0.88878 0.32926 0.6155 0.0
C929 C 0.85084 0.3432 0.62911 0.0
C930 C 0.85046 0.38933 0.65271 0.0
C931 C 0.88827 0.37596 0.63806 0.0
N932 N 0.94395 0.33198 0.60611 0.0
N933 N 0.79521 0.38701 0.66149 0.0
C934 C 0.90751 0.34573 0.61989 0.0
C935 C 0.83169 0.37302 0.64807 0.0
N936 N 0.90734 0.30009 0.59812 0.0
N937 N 0.83198 0.41825 0.67056 0.0
H938 H 0.77882 0.37723 0.659 0.0
H939 H 0.77882 0.37723 0.659 0.0
H940 H 0.84449 0.43131 0.67475 0.0
H941 H 0.80408 0.42892 0.68142 0.0
H942 H 0.93527 0.28926 0.58761 0.0
H943 H 0.89492 0.2867 0.59446 0.0
H944 H 0.96025 0.34203 0.60823 0.0
H945 H 0.96025 0.34203 0.60823 0.0
C946 C 0.36845 0.91568 0.29957 0.0
C947 C 0.35544 0.93757 0.26119 0.0
C948 C 0.40811 0.89412 0.22161 0.0
C949 C 0.41489 0.86917 0.2614 0.0
N950 N 0.3955 0.85541 0.33877 0.0
N951 N 0.36817 0.95055 0.18344 0.0
C952 C 0.3935 0.87981 0.30049 0.0
C953 C 0.37689 0.92756 0.22143 0.0
N954 N 0.35905 0.92918 0.33449 0.0
N955 N 0.43233 0.88652 0.18428 0.0
H956 H 0.35016 0.97718 0.18167 0.0
H957 H 0.37886 0.94339 0.15387 0.0
H958 H 0.45583 0.86298 0.18359 0.0
H959 H 0.43094 0.9045 0.15455 0.0
H960 H 0.36961 0.91412 0.36223 0.0
H961 H 0.34636 0.95625 0.33298 0.0
H962 H 0.37795 0.86153 0.36763 0.0
H963 H 0.41153 0.8285 0.34051 0.0
C964 C 0.36986 0.41142 0.79532 0.0
C965 C 0.35549 0.43192 0.75739 0.0
C966 C 0.40528 0.38794 0.71731 0.0
C967 C 0.41996 0.36811 0.75501 0.0
N968 N 0.42189 0.36738 0.82598 0.0
N969 N 0.36536 0.44461 0.67992 0.0
C970 C 0.40446 0.38228 0.7924 0.0
C971 C 0.37498 0.42163 0.71761 0.0
N972 N 0.3494 0.41744 0.83494 0.0
N973 N 0.42029 0.37459 0.68116 0.0
H974 H 0.3444 0.47003 0.67885 0.0
H975 H 0.38037 0.44005 0.64958 0.0
H976 H 0.44422 0.35162 0.67846 0.0
H977 H 0.40819 0.38543 0.6546 0.0
H978 H 0.35722 0.40073 0.86379 0.0
H979 H 0.32292 0.43649 0.83977 0.0
H980 H 0.41358 0.37937 0.8515 0.0
H981 H 0.44608 0.34469 0.82706 0.0
C982 C 0.1204 0.80245 0.62145 0.0
C983 C 0.14377 0.77468 0.59915 0.0
C984 C 0.107 0.74177 0.64423 0.0
C985 C 0.08251 0.77035 0.66495 0.0
N986 N 0.06245 0.83081 0.66703 0.0
N987 N 0.15482 0.72077 0.58418 0.0
C988 C 0.08834 0.80149 0.65177 0.0
C989 C 0.13547 0.74541 0.6088 0.0
N990 N 0.12898 0.82983 0.61389 0.0
N991 N 0.10465 0.71009 0.6601 0.0
H992 H 0.17617 0.72179 0.55881 0.0
H993 H 0.14765 0.70114 0.58629 0.0
H994 H 0.08469 0.70603 0.68587 0.0
H995 H 0.12434 0.68686 0.65045 0.0
H996 H 0.11604 0.84846 0.63277 0.0
H997 H 0.15043 0.83291 0.58988 0.0
H998 H 0.06298 0.85552 0.65561 0.0
H999 H 0.03856 0.83134 0.68848 0.0
C1000 C 0.25762 0.91258 0.40961 0.0
C1001 C 0.23576 0.92897 0.37824 0.0
C1002 C 0.21103 0.88416 0.41336 0.0
C1003 C 0.23291 0.86772 0.44498 0.0
N1004 N 0.26813 0.87489 0.47996 0.0
N1005 N 0.1855 0.93514 0.35673 0.0
C1006 C 0.25328 0.88465 0.44533 0.0
C1007 C 0.21081 0.91597 0.38193 0.0
N1008 N 0.28426 0.92217 0.40417 0.0
N1009 N 0.18968 0.86972 0.41382 0.0
H1010 H 0.18383 0.95884 0.33447 0.0
H1011 H 0.1641 0.92957 0.3604 0.0
H1012 H 0.18459 0.85025 0.43955 0.0
H1013 H 0.17754 0.87649 0.38839 0.0
H1014 H 0.30425 0.90804 0.42236 0.0
H1015 H 0.2885 0.94227 0.37891 0.0
H1016 H 0.27946 0.88907 0.48403 0.0
H1017 H 0.26643 0.85477 0.50668 0.0
C1018 C -0.00325 0.60706 0.62114 0.0
C1019 C 0.96984 0.64205 0.61169 0.0
C1020 C 0.94939 0.62356 0.56892 0.0
C1021 C 0.97909 0.58967 0.57422 0.0
N1022 N 0.0365 0.55356 0.59594 0.0
N1023 N 0.92419 0.68544 0.57061 0.0
C1024 C 0.00423 0.58258 0.59786 0.0
C1025 C 0.94719 0.65088 0.58377 0.0
N1026 N 0.01469 0.59673 0.65315 0.0
N1027 N 0.92246 0.62929 0.55153 0.0
H1028 H 0.92209 0.70609 0.5806 0.0
H1029 H 0.9097 0.69395 0.54686 0.0
H1030 H 0.92238 0.60965 0.54176 0.0
H1031 H 0.89851 0.65236 0.55079 0.0
H1032 H 0.03188 0.57043 0.6642 0.0
H1033 H 0.00975 0.61361 0.67164 0.0
H1034 H 0.05725 0.54893 0.60905 0.0
H1035 H 0.04409 0.53671 0.57642 0.0
C1036 C 0.37404 0.7215 0.42296 0.0
C1037 C 0.35267 0.74942 0.44549 0.0
C1038 C 0.4007 0.77034 0.4119 0.0
C1039 C 0.41709 0.74805 0.38231 0.0
N1040 N 0.41841 0.70174 0.35994 0.0
N1041 N 0.34407 0.80579 0.45166 0.0
C1042 C 0.40328 0.72358 0.38781 0.0
C1043 C 0.36577 0.77508 0.43778 0.0
N1044 N 0.36794 0.69188 0.43658 0.0
N1045 N 0.41796 0.78738 0.41547 0.0
H1046 H 0.31708 0.81286 0.46596 0.0
H1047 H 0.35153 0.82643 0.44345 0.0
H1048 H 0.44335 0.78494 0.39728 0.0
H1049 H 0.40828 0.80133 0.43943 0.0
H1050 H 0.38446 0.66954 0.42368 0.0
H1051 H 0.34933 0.68774 0.4644 0.0
H1052 H 0.40682 0.68655 0.35901 0.0
H1053 H 0.44166 0.70013 0.33642 0.0
C1054 C 0.27758 0.09769 0.1292 0.0
C1055 C 0.25167 0.1001 0.16868 0.0
C1056 C 0.22942 0.16532 0.14752 0.0
C1057 C 0.25411 0.16348 0.10698 0.0
N1058 N 0.29969 0.12742 0.05763 0.0
N1059 N 0.19772 0.13709 0.21024 0.0
C1060 C 0.27741 0.12946 0.09727 0.0
C1061 C 0.22632 0.13417 0.17632 0.0
N1062 N 0.30323 0.06496 0.12292 0.0
N1063 N 0.20863 0.19704 0.15915 0.0
H1064 H 0.1943 0.1152 0.23175 0.0
H1065 H 0.17554 0.16097 0.21458 0.0
H1066 H 0.20676 0.221 0.1381 0.0
H1067 H 0.19486 0.19939 0.19055 0.0
H1068 H 0.32535 0.06082 0.09738 0.0
H1069 H 0.30353 0.04156 0.14497 0.0
H1070 H 0.31433 0.10429 0.04623 0.0
H1071 H 0.30233 0.14947 0.035 0.0
C1072 C 0.84994 0.78636 0.91489 0.0
C1073 C 0.84752 0.75427 0.94054 0.0
C1074 C 0.90974 0.72163 0.90267 0.0
C1075 C 0.9129 0.75409 0.88048 0.0
N1076 N 0.88738 0.81722 0.8746 0.0
N1077 N 0.87792 0.69077 0.96273 0.0
C1078 C 0.88363 0.78626 0.88987 0.0
C1079 C 0.87825 0.72167 0.93537 0.0
N1080 N 0.81933 0.81697 0.91094 0.0
N1081 N 0.93693 0.69062 0.89268 0.0
H1082 H 0.85574 0.6899 0.98698 0.0
H1083 H 0.90047 0.66647 0.96382 0.0
H1084 H 0.96121 0.68917 0.87162 0.0
H1085 H 0.93473 0.6667 0.90355 0.0
H1086 H 0.81881 0.84045 0.88907 0.0
H1087 H 0.79413 0.81732 0.92498 0.0
H1088 H 0.86804 0.84053 0.88443 0.0
H1089 H 0.91085 0.81914 0.85525 0.0
C1090 C 0.23071 0.63446 0.67603 0.0
C1091 C 0.25318 0.60046 0.66673 0.0
C1092 C 0.2758 0.62985 0.59339 0.0
C1093 C 0.25669 0.66332 0.60507 0.0
N1094 N 0.221 0.69501 0.66229 0.0
N1095 N 0.29969 0.56537 0.61712 0.0
C1096 C 0.23577 0.66482 0.64776 0.0
C1097 C 0.27627 0.59807 0.62536 0.0
N1098 N 0.203 0.63827 0.71108 0.0
N1099 N 0.29387 0.6283 0.55185 0.0
H1100 H 0.30027 0.54193 0.63931 0.0
H1101 H 0.32004 0.56129 0.58968 0.0
H1102 H 0.29613 0.65026 0.52858 0.0
H1103 H 0.30491 0.60578 0.53982 0.0
H1104 H 0.18303 0.6628 0.71693 0.0
H1105 H 0.19739 0.61711 0.73124 0.0
H1106 H 0.20906 0.69613 0.69444 0.0
H1107 H 0.22385 0.71791 0.6438 0.0
C1108 C 0.3464 0.04643 0.4879 0.0
C1109 C 0.35186 0.04881 0.44341 0.0
C1110 C 0.41158 0.04624 0.43115 0.0
C1111 C 0.4055 0.04558 0.47544 0.0
N1112 N 0.36346 0.05471 0.54287 0.0
N1113 N 0.38503 0.06074 0.37096 0.0
C1114 C 0.37171 0.04866 0.50288 0.0
C1115 C 0.38299 0.05185 0.41449 0.0
N1116 N 0.31777 0.04083 0.51606 0.0
N1117 N 0.44503 0.03934 0.40533 0.0
H1118 H 0.36464 0.06512 0.35737 0.0
H1119 H 0.40532 0.06715 0.34848 0.0
H1120 H 0.46713 0.03516 0.41523 0.0
H1121 H 0.45167 0.03488 0.37468 0.0
H1122 H 0.31468 0.03488 0.54943 0.0
H1123 H 0.29859 0.03924 0.50616 0.0
H1124 H 0.33809 0.06027 0.56292 0.0
H1125 H 0.38093 0.05774 0.55419 0.0
C1126 C 0.87226 0.83095 0.15555 0.0
C1127 C 0.84024 0.85329 0.13918 0.0
C1128 C 0.84785 0.90579 0.13234 0.0
C1129 C 0.87874 0.88353 0.15104 0.0
N1130 N 0.91672 0.82604 0.18782 0.0
N1131 N 0.79386 0.9117 0.11884 0.0
C1132 C 0.88985 0.84639 0.1649 0.0
C1133 C 0.82687 0.89069 0.12968 0.0
N1134 N 0.88651 0.79504 0.16075 0.0
N1135 N 0.83945 0.94107 0.11551 0.0
H1136 H 0.77805 0.9015 0.11584 0.0
H1137 H 0.78083 0.93899 0.11613 0.0
H1138 H 0.8541 0.95321 0.11683 0.0
H1139 H 0.8196 0.95791 0.09739 0.0
H1140 H 0.91187 0.77766 0.16786 0.0
H1141 H 0.87421 0.78268 0.15464 0.0
H1142 H 0.92363 0.79936 0.20264 0.0
H1143 H 0.9301 0.8366 0.19532 0.0
C1144 C 0.62137 0.17974 0.40802 0.0
C1145 C 0.65913 0.16325 0.40523 0.0
C1146 C 0.66391 0.11119 0.3901 0.0
C1147 C 0.62587 0.12632 0.39689 0.0
N1148 N 0.56767 0.17242 0.41824 0.0
N1149 N 0.71618 0.11195 0.39915 0.0
C1150 C 0.60435 0.15997 0.40737 0.0
C1151 C 0.68043 0.1286 0.39765 0.0
N1152 N 0.60197 0.21458 0.41022 0.0
N1153 N 0.68415 0.08049 0.37577 0.0
H1154 H 0.72925 0.12402 0.40429 0.0
H1155 H 0.73232 0.08533 0.39861 0.0
H1156 H 0.67279 0.06688 0.3704 0.0
H1157 H 0.71205 0.06996 0.36594 0.0
H1158 H 0.57509 0.2292 0.40751 0.0
H1159 H 0.61345 0.22985 0.41129 0.0
H1160 H 0.55079 0.19468 0.43119 0.0
H1161 H 0.55407 0.15905 0.41736 0.0
C1162 C 0.87627 0.42321 0.21815 0.0
C1163 C 0.85464 0.43435 0.25701 0.0
C1164 C 0.89299 0.37792 0.29831 0.0
C1165 C 0.91604 0.36725 0.25957 0.0
N1166 N 0.93438 0.3847 0.18247 0.0
N1167 N 0.84976 0.42617 0.33313 0.0
C1168 C 0.90909 0.39139 0.21935 0.0
C1169 C 0.86587 0.41331 0.29658 0.0
N1170 N 0.86544 0.44296 0.18002 0.0
N1171 N 0.8943 0.35348 0.33664 0.0
H1172 H 0.82875 0.45121 0.33433 0.0
H1173 H 0.85963 0.41302 0.36151 0.0
H1174 H 0.90985 0.32648 0.33864 0.0
H1175 H 0.87626 0.35922 0.36534 0.0
H1176 H 0.87754 0.43415 0.15144 0.0
H1177 H 0.84314 0.46755 0.1775 0.0
H1178 H 0.93225 0.40273 0.15276 0.0
H1179 H 0.95934 0.36276 0.18243 0.0
C1180 C 0.09271 0.68626 0.39282 0.0
C1181 C 0.10944 0.64911 0.39659 0.0
C1182 C 0.16461 0.64513 0.40566 0.0
C1183 C 0.14666 0.68163 0.40618 0.0
N1184 N 0.09255 0.73633 0.4059 0.0
N1185 N 0.15913 0.59203 0.41251 0.0
C1186 C 0.1104 0.70212 0.40116 0.0
C1187 C 0.14487 0.62818 0.4045 0.0
N1188 N 0.06018 0.70634 0.38058 0.0
N1189 N 0.20073 0.62692 0.40519 0.0
H1190 H 0.14578 0.57858 0.4112 0.0
H1191 H 0.18301 0.57519 0.4236 0.0
H1192 H 0.21607 0.63838 0.4064 0.0
H1193 H 0.21611 0.60134 0.40005 0.0
H1194 H 0.04824 0.73393 0.37294 0.0
H1195 H 0.04637 0.69544 0.37458 0.0
H1196 H 0.065 0.75141 0.40737 0.0
H1197 H 0.10475 0.74891 0.41177 0.0
C1198 C 0.61402 0.09885 0.81761 0.0
C1199 C 0.63908 0.09152 0.77854 0.0
C1200 C 0.60461 0.15137 0.74018 0.0
C1201 C 0.57753 0.15811 0.77805 0.0
N1202 N 0.55339 0.13488 0.85129 0.0
N1203 N 0.65143 0.10775 0.7006 0.0
C1204 C 0.58134 0.13083 0.81647 0.0
C1205 C 0.63199 0.11663 0.7392 0.0
N1206 N 0.62148 0.07534 0.85577 0.0
N1207 N 0.60625 0.17864 0.70606 0.0
H1208 H 0.67081 0.08232 0.69805 0.0
H1209 H 0.64511 0.12455 0.67112 0.0
H1210 H 0.58885 0.20482 0.70703 0.0
H1211 H 0.62773 0.17565 0.67965 0.0
H1212 H 0.60645 0.0809 0.88573 0.0
H1213 H 0.64396 0.05086 0.85739 0.0
H1214 H 0.55326 0.11469 0.87875 0.0
H1215 H 0.52887 0.15736 0.85112 0.0
C1216 C 0.77471 0.59877 0.12424 0.0
C1217 C 0.75225 0.6008 0.16613 0.0
C1218 C 0.73499 0.66544 0.14688 0.0
C1219 C 0.75482 0.66412 0.10375 0.0
N1220 N 0.79027 0.62926 0.05016 0.0
N1221 N 0.70406 0.63871 0.21232 0.0
C1222 C 0.77338 0.63071 0.09204 0.0
C1223 C 0.73054 0.63488 0.17593 0.0
N1224 N 0.79902 0.5663 0.11582 0.0
N1225 N 0.72046 0.69582 0.16093 0.0
H1226 H 0.69912 0.61766 0.23431 0.0
H1227 H 0.68428 0.66326 0.21831 0.0
H1228 H 0.72183 0.71918 0.14139 0.0
H1229 H 0.70985 0.69696 0.19325 0.0
H1230 H 0.81883 0.56285 0.08782 0.0
H1231 H 0.80165 0.5426 0.1385 0.0
H1232 H 0.80049 0.60682 0.03826 0.0
H1233 H 0.79216 0.65124 0.02656 0.0
C1234 C 0.89638 0.56777 0.44199 0.0
C1235 C 0.90234 0.54639 0.48361 0.0
C1236 C 0.85775 0.52611 0.48887 0.0
C1237 C 0.85615 0.54311 0.44505 0.0
N1238 N 0.87324 0.58082 0.37921 0.0
N1239 N 0.87554 0.51713 0.55233 0.0
C1240 C 0.87504 0.56442 0.42149 0.0
C1241 C 0.87935 0.52925 0.50881 0.0
N1242 N 0.90939 0.59291 0.42344 0.0
N1243 N 0.83862 0.50656 0.51205 0.0
H1244 H 0.88625 0.52167 0.57161 0.0
H1245 H 0.88625 0.52167 0.57161 0.0
H1246 H 0.8226 0.503 0.49889 0.0
H1247 H 0.83956 0.49321 0.54422 0.0
H1248 H 0.9038 0.61154 0.39475 0.0
H1249 H 0.92239 0.59777 0.43961 0.0
H1250 H 0.88975 0.59308 0.35871 0.0
H1251 H 0.85662 0.58042 0.36364 0.0
C1252 C 0.14684 0.48683 0.54637 0.0
C1253 C 0.14374 0.47655 0.59164 0.0
C1254 C 0.09137 0.46634 0.60056 0.0
C1255 C 0.09449 0.47642 0.55483 0.0
N1256 N 0.13084 0.48946 0.48427 0.0
N1257 N 0.12087 0.44562 0.66015 0.0
C1258 C 0.12398 0.48414 0.52796 0.0
C1259 C 0.11858 0.46269 0.61812 0.0
N1260 N 0.17156 0.49946 0.52039 0.0
N1261 N 0.061 0.46371 0.62783 0.0
H1262 H 0.14044 0.44237 0.67427 0.0
H1263 H 0.1058 0.43152 0.67958 0.0
H1264 H 0.03901 0.4677 0.61793 0.0
H1265 H 0.05586 0.46112 0.66096 0.0
H1266 H 0.17421 0.50762 0.48692 0.0
H1267 H 0.1886 0.50259 0.53233 0.0
H1268 H 0.11664 0.4864 0.46781 0.0
H1269 H 0.11664 0.4864 0.46781 0.0
C1270 C 0.59579 0.75145 0.13291 0.0
C1271 C 0.57652 0.77581 0.1605 0.0
C1272 C 0.61873 0.80392 0.12055 0.0
C1273 C 0.64113 0.7759 0.0985 0.0
N1274 N 0.65264 0.71979 0.08913 0.0
N1275 N 0.5688 0.82739 0.17796 0.0
C1276 C 0.62991 0.74902 0.1059 0.0
C1277 C 0.58791 0.8026 0.1535 0.0
N1278 N 0.5815 0.73094 0.13117 0.0
N1279 N 0.62599 0.83276 0.10853 0.0
H1280 H 0.54358 0.83071 0.19764 0.0
H1281 H 0.57821 0.84417 0.17954 0.0
H1282 H 0.64749 0.83506 0.08395 0.0
H1283 H 0.60908 0.8558 0.11986 0.0
H1284 H 0.59265 0.71563 0.1084 0.0
H1285 H 0.55639 0.73222 0.14845 0.0
H1286 H 0.64836 0.69704 0.09856 0.0
H1287 H 0.67738 0.71679 0.06874 0.0
C1288 C 0.64864 0.48441 0.04404 0.0
C1289 C 0.64559 0.47361 0.08936 0.0
C1290 C 0.60173 0.45222 0.09551 0.0
C1291 C 0.59965 0.46937 0.05164 0.0
N1292 N 0.63234 0.4883 0.98145 0.0
N1293 N 0.61911 0.44717 0.15912 0.0
C1294 C 0.62637 0.4813 0.02519 0.0
C1295 C 0.62216 0.45737 0.11536 0.0
N1296 N 0.6725 0.49829 1.01855 0.0
N1297 N 0.58704 0.4286 0.11714 0.0
H1298 H 0.63495 0.44862 0.17481 0.0
H1299 H 0.59914 0.43952 0.18013 0.0
H1300 H 0.57765 0.41933 0.10167 0.0
H1301 H 0.58964 0.41366 0.14837 0.0
H1302 H 0.67499 0.50696 0.98513 0.0
H1303 H 0.68919 0.50163 0.03086 0.0
H1304 H 0.61929 0.48378 0.96495 0.0
H1305 H 0.61929 0.48378 0.96495 0.0
C1306 C 0.33946 0.40438 0.1528 0.0
C1307 C 0.37755 0.38773 0.14575 0.0
C1308 C 0.37879 0.33569 0.13502 0.0
C1309 C 0.34104 0.35383 0.13778 0.0
N1310 N 0.28548 0.40666 0.14416 0.0
N1311 N 0.43428 0.33976 0.12516 0.0
C1312 C 0.32129 0.3885 0.14546 0.0
C1313 C 0.39749 0.35388 0.13567 0.0
N1314 N 0.32075 0.43512 0.16706 0.0
N1315 N 0.39659 0.30086 0.13274 0.0
H1316 H 0.44903 0.35185 0.12635 0.0
H1317 H 0.45017 0.3173 0.11243 0.0
H1318 H 0.38381 0.28679 0.1316 0.0
H1319 H 0.42339 0.28506 0.13537 0.0
H1320 H 0.29288 0.44673 0.17705 0.0
H1321 H 0.33335 0.44763 0.17229 0.0
H1322 H 0.27047 0.43339 0.14471 0.0
H1323 H 0.27117 0.39575 0.13923 0.0
C1324 C 0.09605 0.14408 0.24009 0.0
C1325 C 0.07455 0.15443 0.27948 0.0
C1326 C 0.11593 0.09899 0.31964 0.0
C1327 C 0.13774 0.0889 0.28022 0.0
N1328 N 0.1442 0.09818 0.20364 0.0
N1329 N 0.0593 0.13847 0.35685 0.0
C1330 C 0.12618 0.11011 0.24077 0.0
C1331 C 0.08314 0.13082 0.31931 0.0
N1332 N 0.08919 0.16762 0.20171 0.0
N1333 N 0.12696 0.07825 0.35747 0.0
H1334 H 0.03499 0.16123 0.35753 0.0
H1335 H 0.0619 0.12111 0.38691 0.0
H1336 H 0.14895 0.05342 0.35935 0.0
H1337 H 0.11527 0.086 0.38669 0.0
H1338 H 0.10674 0.16405 0.17216 0.0
H1339 H 0.06697 0.1921 0.19941 0.0
H1340 H 0.13468 0.11026 0.17505 0.0
H1341 H 0.16725 0.07451 0.20188 0.0
C1342 C 0.22029 0.39772 0.94955 0.0
C1343 C 0.23809 0.36388 0.93916 0.0
C1344 C 0.26467 0.39061 0.86689 0.0
C1345 C 0.24358 0.42519 0.87526 0.0
N1346 N 0.19682 0.46183 0.92347 0.0
N1347 N 0.27321 0.32979 0.88451 0.0
C1348 C 0.22038 0.42876 0.91649 0.0
C1349 C 0.25889 0.36095 0.89676 0.0
N1350 N 0.20296 0.40037 0.99104 0.0
N1351 N 0.29177 0.38558 0.83116 0.0
H1352 H 0.27081 0.3071 0.90515 0.0
H1353 H 0.28487 0.32726 0.85275 0.0
H1354 H 0.29804 0.40601 0.80947 0.0
H1355 H 0.31061 0.36068 0.82546 0.0
H1356 H 0.19318 0.42318 1.002 0.0
H1357 H 0.20039 0.37896 1.01529 0.0
H1358 H 0.17654 0.46637 0.95092 0.0
H1359 H 0.19535 0.485 0.90017 0.0
C1360 C 0.35457 0.28393 0.9245 0.0
C1361 C 0.3482 0.25288 0.94256 0.0
C1362 C 0.40654 0.22131 0.89625 0.0
C1363 C 0.41013 0.2536 0.8745 0.0
N1364 N 0.38059 0.31724 0.86143 0.0
N1365 N 0.36788 0.19203 0.94234 0.0
C1366 C 0.38232 0.28526 0.88711 0.0
C1367 C 0.37409 0.22165 0.92719 0.0
N1368 N 0.33432 0.31258 0.94271 0.0
N1369 N 0.43479 0.18996 0.88885 0.0
H1370 H 0.34626 0.19028 0.96708 0.0
H1371 H 0.38307 0.16992 0.92887 0.0
H1372 H 0.45898 0.18856 0.86762 0.0
H1373 H 0.4356 0.16527 0.9066 0.0
H1374 H 0.34022 0.33435 0.93335 0.0
H1375 H 0.31423 0.31316 0.97014 0.0
H1376 H 0.35903 0.34133 0.86637 0.0
H1377 H 0.39828 0.31938 0.83206 0.0
C1378 C 0.37608 0.53883 1.01269 0.0
C1379 C 0.40055 0.55397 0.98663 0.0
C1380 C 0.37449 0.57025 0.92412 0.0
C1381 C 0.35449 0.55012 0.94867 0.0
N1382 N 0.33391 0.51736 1.01739 0.0
N1383 N 0.41065 0.59758 0.92421 0.0
C1384 C 0.35447 0.53529 0.99319 0.0
C1385 C 0.39587 0.57389 0.94421 0.0
N1386 N 0.37114 0.52896 0.05642 0.0
N1387 N 0.37385 0.58502 0.88131 0.0
H1388 H 0.42419 0.60226 0.93986 0.0
H1389 H 0.40624 0.6152 0.89462 0.0
H1390 H 0.35731 0.58434 0.8659 0.0
H1391 H 0.39109 0.59629 0.86037 0.0
H1392 H 0.38219 0.5341 0.0747 0.0
H1393 H 0.38219 0.5341 0.0747 0.0
H1394 H 0.33376 0.50552 0.0501 0.0
H1395 H 0.31771 0.51374 1.0046 0.0
C1396 C 0.60715 0.69795 0.9135 0.0
C1397 C 0.645 0.68535 0.89904 0.0
C1398 C 0.64644 0.64159 0.86994 0.0
C1399 C 0.60948 0.65131 0.88896 0.0
N1400 N 0.55498 0.68587 0.93283 0.0
N1401 N 0.70176 0.64246 0.86843 0.0
C1402 C 0.5898 0.67888 0.91165 0.0
C1403 C 0.66497 0.65655 0.87831 0.0
N1404 N 0.58779 0.72851 0.92814 0.0
N1405 N 0.66365 0.61828 0.84357 0.0
H1406 H 0.71643 0.65254 0.87422 0.0
H1407 H 0.71795 0.61901 0.85777 0.0
H1408 H 0.6508 0.60668 0.83702 0.0
H1409 H 0.68959 0.61284 0.82522 0.0
H1410 H 0.55978 0.74104 0.93495 0.0
H1411 H 0.5997 0.74307 0.9301 0.0
H1412 H 0.54063 0.70265 0.95415 0.0
H1413 H 0.54108 0.67298 0.93145 0.0
C1414 C 0.87911 0.86103 0.77373 0.0
C1415 C 0.91297 0.86211 0.7641 0.0
C1416 C 0.88154 0.92722 0.75556 0.0
C1417 C 0.84784 0.92567 0.76685 0.0
N1418 N 0.81453 0.89021 0.79546 0.0
N1419 N 0.94658 0.89562 0.74959 0.0
C1420 C 0.84672 0.89235 0.77807 0.0
C1421 C 0.91419 0.89505 0.75642 0.0
N1422 N 0.87753 0.82991 0.77922 0.0
N1423 N 0.88235 0.95958 0.7423 0.0
H1424 H 0.97108 0.87331 0.74655 0.0
H1425 H 0.94929 0.91771 0.74881 0.0
H1426 H 0.85905 0.98335 0.74184 0.0
H1427 H 0.90583 0.96323 0.7293 0.0
H1428 H 0.85456 0.8286 0.77868 0.0
H1429 H 0.89935 0.80521 0.78264 0.0
H1430 H 0.81195 0.86653 0.81006 0.0
H1431 H 0.79022 0.91228 0.79899 0.0
C1432 C 0.48251 0.14988 0.55654 0.0
C1433 C 0.47665 0.14526 0.60169 0.0
C1434 C 0.47898 0.08679 0.61333 0.0
C1435 C 0.48085 0.09301 0.56858 0.0
N1436 N 0.47782 0.13347 0.49863 0.0
N1437 N 0.46241 0.11244 0.67377 0.0
C1438 C 0.48093 0.12537 0.54038 0.0
C1439 C 0.47288 0.11461 0.6303 0.0
N1440 N 0.49031 0.17726 0.52907 0.0
N1441 N 0.48489 0.05383 0.63945 0.0
H1442 H 0.45771 0.13214 0.68771 0.0
H1443 H 0.45524 0.09258 0.69567 0.0
H1444 H 0.49036 0.03227 0.62855 0.0
H1445 H 0.48795 0.04693 0.6711 0.0
H1446 H 0.49867 0.17983 0.49582 0.0
H1447 H 0.49151 0.19576 0.53988 0.0
H1448 H 0.47433 0.15805 0.47773 0.0
H1449 H 0.47503 0.11698 0.48604 0.0
C1450 C 0.48571 0.40778 0.94322 0.0
C1451 C 0.5201 0.38456 0.92443 0.0
C1452 C 0.54841 0.41007 0.94651 0.0
C1453 C 0.51387 0.43605 0.96077 0.0
N1454 N 0.44972 0.46405 0.96349 0.0
N1455 N 0.58398 0.36788 0.90088 0.0
C1456 C 0.48249 0.4361 0.95669 0.0
C1457 C 0.55144 0.38694 0.92393 0.0
N1458 N 0.45616 0.40231 0.94926 0.0
N1459 N 0.57821 0.4062 0.95632 0.0
H1460 H 0.5873 0.35086 0.88361 0.0
H1461 H 0.60698 0.37144 0.89564 0.0
H1462 H 0.57712 0.42162 0.9742 0.0
H1463 H 0.60347 0.38532 0.95055 0.0
H1464 H 0.43108 0.41611 0.96706 0.0
H1465 H 0.45742 0.38168 0.94007 0.0
H1466 H 0.42665 0.46715 0.95674 0.0
H1467 H 0.44637 0.48615 0.97125 0.0
C1468 C 0.54451 0.89072 0.42462 0.0
C1469 C 0.51988 0.8751 0.44238 0.0
C1470 C 0.48774 0.91191 0.49572 0.0
C1471 C 0.51382 0.92592 0.47964 0.0
N1472 N 0.57171 0.92206 0.43596 0.0
N1473 N 0.47239 0.86549 0.49958 0.0
C1474 C 0.5436 0.91336 0.44616 0.0
C1475 C 0.49282 0.88406 0.47945 0.0
N1476 N 0.56796 0.88499 0.38628 0.0
N1477 N 0.45719 0.9263 0.52486 0.0
H1478 H 0.47521 0.84513 0.48834 0.0
H1479 H 0.45484 0.86817 0.5293 0.0
H1480 H 0.45221 0.94651 0.53792 0.0
H1481 H 0.43537 0.92012 0.5337 0.0
H1482 H 0.58369 0.89883 0.36939 0.0
H1483 H 0.56949 0.86866 0.36933 0.0
H1484 H 0.59576 0.91085 0.41486 0.0
H1485 H 0.57257 0.93764 0.452 0.0
C1486 C 0.45538 0.59933 0.10835 0.0
C1487 C 0.48492 0.58897 0.07373 0.0
C1488 C 0.50336 0.63204 0.076 0.0
C1489 C 0.47586 0.63988 0.1131 0.0
N1490 N 0.42902 0.62745 0.16884 0.0
N1491 N 0.54049 0.59118 0.02892 0.0
C1492 C 0.45281 0.62249 0.13051 0.0
C1493 C 0.50981 0.60426 0.05857 0.0
N1494 N 0.42894 0.58824 0.11887 0.0
N1495 N 0.52278 0.65167 0.05688 0.0
H1496 H 0.54636 0.57073 1.01565 0.0
H1497 H 0.56159 0.59841 1.0202 0.0
H1498 H 0.51922 0.6718 0.06919 0.0
H1499 H 0.5404 0.64992 0.02708 0.0
H1500 H 0.40485 0.59791 0.14065 0.0
H1501 H 0.42949 0.5718 0.10288 0.0
H1502 H 0.41437 0.61252 0.18562 0.0
H1503 H 0.42602 0.64452 0.18579 0.0
loop_
_geom_bond_atom_site_label_1
_geom_bond_atom_site_label_2
_geom_bond_distance
_geom_bond_site_symmetry_2
_ccdc_geom_bond_type
Tb0 C9 2.764 . S
Tb0 O10 2.325 1_456 S
Tb0 O13 2.303 1_546 S
Tb0 O17 2.322 1_545 S
Tb0 O18 2.349 1_455 S
Tb0 O21 2.415 . S
Tb0 O22 2.399 . S
Tb1 O11 2.322 1_565 S
Tb1 O12 2.349 1_655 S
Tb1 O14 2.415 . S
Tb1 O15 2.399 . S
Tb1 O16 2.325 1_654 S
Tb1 O19 2.303 1_564 S
Tb1 C30 2.764 . S
C2 O18 1.261 . S
C2 O19 1.257 . S
C3 C6 1.358 . S
C3 C7 1.332 . S
C3 C9 1.504 . S
C4 C5 1.373 . S
C4 C8 1.308 . S
C5 C4 1.373 . S
C5 C6 1.429 . S
C5 H32 0.932 . S
C6 C3 1.358 . S
C6 C5 1.429 . S
C6 H33 0.930 . S
C7 C3 1.332 . S
C7 C8 1.394 . S
C7 H34 0.932 . S
C8 C4 1.308 . S
C8 C7 1.394 . S
C8 H35 0.929 . S
C9 Tb0 2.764 . S
C9 C3 1.504 . S
C9 O21 1.239 . S
C9 O22 1.263 . S
O10 Tb0 2.325 1_654 S
O10 C20 1.236 . S
O11 Tb1 2.322 1_545 S
O11 C20 1.257 . S
O12 Tb1 2.349 1_455 S
O12 C23 1.261 . S
O13 Tb0 2.303 1_564 S
O13 C23 1.257 . S
O14 Tb1 2.415 . S
O14 C30 1.239 . S
O15 Tb1 2.399 . S
O15 C30 1.263 . S
O16 Tb1 2.325 1_456 S
O16 C31 1.236 . S
O17 Tb0 2.322 1_565 S
O17 C31 1.257 . S
O18 Tb0 2.349 1_655 S
O18 C2 1.261 . S
O19 Tb1 2.303 1_546 S
O19 C2 1.257 . S
C20 O10 1.236 . S
C20 O11 1.257 . S
O21 Tb0 2.415 . S
O21 C9 1.239 . S
O22 Tb0 2.399 . S
O22 C9 1.263 . S
C23 O12 1.261 . S
C23 O13 1.257 . S
C24 C27 1.358 . S
C24 C28 1.332 . S
C24 C30 1.504 . S
C25 C26 1.373 . S
C25 C29 1.308 . S
C26 C25 1.373 . S
C26 C27 1.429 . S
C26 H36 0.932 . S
C27 C24 1.358 . S
C27 C26 1.429 . S
C27 H37 0.930 . S
C28 C24 1.332 . S
C28 C29 1.394 . S
C28 H38 0.932 . S
C29 C25 1.308 . S
C29 C28 1.394 . S
C29 H39 0.929 . S
C30 Tb1 2.764 . S
C30 O14 1.239 . S
C30 O15 1.263 . S
C30 C24 1.504 . S
C31 O16 1.236 . S
C31 O17 1.257 . S
H32 C5 0.932 . S
H33 C6 0.930 . S
H34 C7 0.932 . S
H35 C8 0.929 . S
H36 C26 0.932 . S
H37 C27 0.930 . S
H38 C28 0.932 . S
H39 C29 0.929 . S
Tb40 C49 2.764 . S
Tb40 O50 2.325 1_655 S
Tb40 O53 2.303 1_655 S
Tb40 O57 2.322 . S
Tb40 O58 2.349 . S
Tb40 O61 2.415 1_655 S
Tb40 O62 2.399 . S
Tb41 O51 2.322 . S
Tb41 O52 2.349 . S
Tb41 O54 2.415 1_455 S
Tb41 O55 2.399 . S
Tb41 O56 2.325 1_455 S
Tb41 O59 2.303 1_455 S
Tb41 C70 2.764 . S
C42 O58 1.261 . S
C42 O59 1.257 . S
C43 C46 1.358 1_455 S
C43 C47 1.332 . S
C43 C49 1.504 1_455 S
C44 C45 1.373 1_455 S
C44 C48 1.308 . S
C45 C44 1.373 1_655 S
C45 C46 1.429 . S
C45 H72 0.932 . S
C46 C43 1.358 1_655 S
C46 C45 1.429 . S
C46 H73 0.930 . S
C47 C43 1.332 . S
C47 C48 1.394 . S
C47 H74 0.932 . S
C48 C44 1.308 . S
C48 C47 1.394 . S
C48 H75 0.929 . S
C49 Tb40 2.764 . S
C49 C43 1.504 1_655 S
C49 O61 1.239 1_655 S
C49 O62 1.263 . S
O50 Tb40 2.325 1_455 S
O50 C60 1.236 . S
O51 Tb41 2.322 . S
O51 C60 1.257 . S
O52 Tb41 2.349 . S
O52 C63 1.261 . S
O53 Tb40 2.303 1_455 S
O53 C63 1.257 . S
O54 Tb41 2.415 1_655 S
O54 C70 1.239 1_655 S
O55 Tb41 2.399 . S
O55 C70 1.263 . S
O56 Tb41 2.325 1_655 S
O56 C71 1.236 . S
O57 Tb40 2.322 . S
O57 C71 1.257 . S
O58 Tb40 2.349 . S
O58 C42 1.261 . S
O59 Tb41 2.303 1_655 S
O59 C42 1.257 . S
C60 O50 1.236 . S
C60 O51 1.257 . S
O61 Tb40 2.415 1_455 S
O61 C49 1.239 1_455 S
O62 Tb40 2.399 . S
O62 C49 1.263 . S
C63 O52 1.261 . S
C63 O53 1.257 . S
C64 C67 1.358 1_655 S
C64 C68 1.332 . S
C64 C70 1.504 1_655 S
C65 C66 1.373 1_655 S
C65 C69 1.308 . S
C66 C65 1.373 1_455 S
C66 C67 1.429 . S
C66 H76 0.932 . S
C67 C64 1.358 1_455 S
C67 C66 1.429 . S
C67 H77 0.930 . S
C68 C64 1.332 . S
C68 C69 1.394 . S
C68 H78 0.932 . S
C69 C65 1.308 . S
C69 C68 1.394 . S
C69 H79 0.929 . S
C70 Tb41 2.764 . S
C70 O54 1.239 1_455 S
C70 O55 1.263 . S
C70 C64 1.504 1_455 S
C71 O56 1.236 . S
C71 O57 1.257 . S
H72 C45 0.932 . S
H73 C46 0.930 . S
H74 C47 0.932 . S
H75 C48 0.929 . S
H76 C66 0.932 . S
H77 C67 0.930 . S
H78 C68 0.932 . S
H79 C69 0.929 . S
Tb80 C89 2.764 . S
Tb80 O90 2.325 . S
Tb80 O93 2.303 . S
Tb80 O97 2.322 . S
Tb80 O98 2.349 . S
Tb80 O101 2.415 . S
Tb80 O102 2.399 . S
Tb81 O91 2.322 . S
Tb81 O92 2.349 . S
Tb81 O94 2.415 . S
Tb81 O95 2.399 . S
Tb81 O96 2.325 . S
Tb81 O99 2.303 . S
Tb81 C110 2.764 . S
C82 O98 1.261 . S
C82 O99 1.257 . S
C83 C86 1.358 . S
C83 C87 1.332 . S
C83 C89 1.504 . S
C84 C85 1.373 . S
C84 C88 1.308 . S
C85 C84 1.373 . S
C85 C86 1.429 . S
C85 H112 0.932 . S
C86 C83 1.358 . S
C86 C85 1.429 . S
C86 H113 0.930 . S
C87 C83 1.332 . S
C87 C88 1.394 . S
C87 H114 0.932 . S
C88 C84 1.308 . S
C88 C87 1.394 . S
C88 H115 0.929 . S
C89 Tb80 2.764 . S
C89 C83 1.504 . S
C89 O101 1.239 . S
C89 O102 1.263 . S
O90 Tb80 2.325 . S
O90 C100 1.236 . S
O91 Tb81 2.322 . S
O91 C100 1.257 . S
O92 Tb81 2.349 . S
O92 C103 1.261 . S
O93 Tb80 2.303 . S
O93 C103 1.257 . S
O94 Tb81 2.415 . S
O94 C110 1.239 . S
O95 Tb81 2.399 . S
O95 C110 1.263 . S
O96 Tb81 2.325 . S
O96 C111 1.236 . S
O97 Tb80 2.322 . S
O97 C111 1.257 . S
O98 Tb80 2.349 . S
O98 C82 1.261 . S
O99 Tb81 2.303 . S
O99 C82 1.257 . S
C100 O90 1.236 . S
C100 O91 1.257 . S
O101 Tb80 2.415 . S
O101 C89 1.239 . S
O102 Tb80 2.399 . S
O102 C89 1.263 . S
C103 O92 1.261 . S
C103 O93 1.257 . S
C104 C107 1.358 . S
C104 C108 1.332 . S
C104 C110 1.504 . S
C105 C106 1.373 . S
C105 C109 1.308 . S
C106 C105 1.373 . S
C106 C107 1.429 . S
C106 H116 0.932 . S
C107 C104 1.358 . S
C107 C106 1.429 . S
C107 H117 0.930 . S
C108 C104 1.332 . S
C108 C109 1.394 . S
C108 H118 0.932 . S
C109 C105 1.308 . S
C109 C108 1.394 . S
C109 H119 0.929 . S
C110 Tb81 2.764 . S
C110 O94 1.239 . S
C110 O95 1.263 . S
C110 C104 1.504 . S
C111 O96 1.236 . S
C111 O97 1.257 . S
H112 C85 0.932 . S
H113 C86 0.930 . S
H114 C87 0.932 . S
H115 C88 0.929 . S
H116 C106 0.932 . S
H117 C107 0.930 . S
H118 C108 0.932 . S
H119 C109 0.929 . S
Tb120 C129 2.757 . S
Tb120 O130 2.325 1_545 S
Tb120 O133 2.303 1_545 S
Tb120 O137 2.322 . S
Tb120 O138 2.349 . S
Tb120 O141 2.415 1_545 S
Tb120 O142 2.399 . S
Tb121 O131 2.322 . S
Tb121 O132 2.349 . S
Tb121 O134 2.415 1_565 S
Tb121 O135 2.399 . S
Tb121 O136 2.325 1_565 S
Tb121 O139 2.303 1_565 S
Tb121 C150 2.763 . S
C122 O138 1.261 . S
C122 O139 1.257 . S
C123 C126 1.358 1_565 S
C123 C127 1.332 . S
C123 C129 1.512 1_565 S
C124 C125 1.373 1_565 S
C124 C128 1.308 . S
C125 C124 1.373 1_545 S
C125 C126 1.429 . S
C125 H152 0.932 . S
C126 C123 1.358 1_545 S
C126 C125 1.429 . S
C126 H153 0.930 . S
C127 C123 1.332 . S
C127 C128 1.394 . S
C127 H154 0.932 . S
C128 C124 1.308 . S
C128 C127 1.394 . S
C128 H155 0.929 . S
C129 Tb120 2.757 . S
C129 C123 1.512 1_545 S
C129 O141 1.213 1_545 S
C129 O142 1.281 . S
O130 Tb120 2.325 1_565 S
O130 C140 1.236 . S
O131 Tb121 2.322 . S
O131 C140 1.257 . S
O132 Tb121 2.349 . S
O132 C143 1.261 . S
O133 Tb120 2.303 1_565 S
O133 C143 1.257 . S
O134 Tb121 2.415 1_545 S
O134 C150 1.235 1_545 S
O135 Tb121 2.399 . S
O135 C150 1.266 . S
O136 Tb121 2.325 1_545 S
O136 C151 1.236 . S
O137 Tb120 2.322 . S
O137 C151 1.257 . S
O138 Tb120 2.349 . S
O138 C122 1.261 . S
O139 Tb121 2.303 1_545 S
O139 C122 1.257 . S
C140 O130 1.236 . S
C140 O131 1.257 . S
O141 Tb120 2.415 1_565 S
O141 C129 1.213 1_565 S
O142 Tb120 2.399 . S
O142 C129 1.281 . S
C143 O132 1.261 . S
C143 O133 1.257 . S
C144 C147 1.358 1_545 S
C144 C148 1.332 . S
C144 C150 1.505 1_545 S
C145 C146 1.373 1_545 S
C145 C149 1.308 . S
C146 C145 1.373 1_565 S
C146 C147 1.429 . S
C146 H156 0.932 . S
C147 C144 1.358 1_565 S
C147 C146 1.429 . S
C147 H157 0.930 . S
C148 C144 1.332 . S
C148 C149 1.394 . S
C148 H158 0.932 . S
C149 C145 1.308 . S
C149 C148 1.394 . S
C149 H159 0.929 . S
C150 Tb121 2.763 . S
C150 O134 1.235 1_565 S
C150 O135 1.266 . S
C150 C144 1.505 1_565 S
C151 O136 1.236 . S
C151 O137 1.257 . S
H152 C125 0.932 . S
H153 C126 0.930 . S
H154 C127 0.932 . S
H155 C128 0.929 . S
H156 C146 0.932 . S
H157 C147 0.930 . S
H158 C148 0.932 . S
H159 C149 0.929 . S
Tb160 C169 2.764 . S
Tb160 O170 2.325 . S
Tb160 O173 2.303 . S
Tb160 O177 2.322 . S
Tb160 O178 2.349 . S
Tb160 O181 2.415 . S
Tb160 O182 2.399 . S
Tb161 O171 2.322 . S
Tb161 O172 2.349 . S
Tb161 O174 2.415 . S
Tb161 O175 2.399 . S
Tb161 O176 2.325 . S
Tb161 O179 2.303 . S
Tb161 C190 2.764 . S
C162 O178 1.261 . S
C162 O179 1.257 . S
C163 C166 1.358 . S
C163 C167 1.332 . S
C163 C169 1.504 . S
C164 C165 1.373 . S
C164 C168 1.308 . S
C165 C164 1.373 . S
C165 C166 1.429 . S
C165 H192 0.932 . S
C166 C163 1.358 . S
C166 C165 1.429 . S
C166 H193 0.930 . S
C167 C163 1.332 . S
C167 C168 1.394 . S
C167 H194 0.932 . S
C168 C164 1.308 . S
C168 C167 1.394 . S
C168 H195 0.929 . S
C169 Tb160 2.764 . S
C169 C163 1.504 . S
C169 O181 1.239 . S
C169 O182 1.263 . S
O170 Tb160 2.325 . S
O170 C180 1.236 . S
O171 Tb161 2.322 . S
O171 C180 1.257 . S
O172 Tb161 2.349 . S
O172 C183 1.261 . S
O173 Tb160 2.303 . S
O173 C183 1.257 . S
O174 Tb161 2.415 . S
O174 C190 1.239 . S
O175 Tb161 2.399 . S
O175 C190 1.263 . S
O176 Tb161 2.325 . S
O176 C191 1.236 . S
O177 Tb160 2.322 . S
O177 C191 1.257 . S
O178 Tb160 2.349 . S
O178 C162 1.261 . S
O179 Tb161 2.303 . S
O179 C162 1.257 . S
C180 O170 1.236 . S
C180 O171 1.257 . S
O181 Tb160 2.415 . S
O181 C169 1.239 . S
O182 Tb160 2.399 . S
O182 C169 1.263 . S
C183 O172 1.261 . S
C183 O173 1.257 . S
C184 C187 1.358 . S
C184 C188 1.332 . S
C184 C190 1.504 . S
C185 C186 1.373 . S
C185 C189 1.308 . S
C186 C185 1.373 . S
C186 C187 1.429 . S
C186 H196 0.932 . S
C187 C184 1.358 . S
C187 C186 1.429 . S
C187 H197 0.930 . S
C188 C184 1.332 . S
C188 C189 1.394 . S
C188 H198 0.932 . S
C189 C185 1.308 . S
C189 C188 1.394 . S
C189 H199 0.929 . S
C190 Tb161 2.764 . S
C190 O174 1.239 . S
C190 O175 1.263 . S
C190 C184 1.504 . S
C191 O176 1.236 . S
C191 O177 1.257 . S
H192 C165 0.932 . S
H193 C166 0.930 . S
H194 C167 0.932 . S
H195 C168 0.929 . S
H196 C186 0.932 . S
H197 C187 0.930 . S
H198 C188 0.932 . S
H199 C189 0.929 . S
Tb200 C209 2.764 . S
Tb200 O210 2.325 . S
Tb200 O213 2.303 . S
Tb200 O217 2.322 . S
Tb200 O218 2.349 . S
Tb200 O221 2.415 . S
Tb200 O222 2.399 . S
Tb201 O211 2.322 . S
Tb201 O212 2.349 . S
Tb201 O214 2.415 . S
Tb201 O215 2.399 . S
Tb201 O216 2.325 . S
Tb201 O219 2.303 . S
Tb201 C230 2.764 . S
C202 O218 1.261 . S
C202 O219 1.257 . S
C203 C206 1.358 . S
C203 C207 1.332 . S
C203 C209 1.504 . S
C204 C205 1.373 . S
C204 C208 1.308 . S
C205 C204 1.373 . S
C205 C206 1.429 . S
C205 H232 0.932 . S
C206 C203 1.358 . S
C206 C205 1.429 . S
C206 H233 0.930 . S
C207 C203 1.332 . S
C207 C208 1.394 . S
C207 H234 0.932 . S
C208 C204 1.308 . S
C208 C207 1.394 . S
C208 H235 0.929 . S
C209 Tb200 2.764 . S
C209 C203 1.504 . S
C209 O221 1.239 . S
C209 O222 1.263 . S
O210 Tb200 2.325 . S
O210 C220 1.236 . S
O211 Tb201 2.322 . S
O211 C220 1.257 . S
O212 Tb201 2.349 . S
O212 C223 1.261 . S
O213 Tb200 2.303 . S
O213 C223 1.257 . S
O214 Tb201 2.415 . S
O214 C230 1.239 . S
O215 Tb201 2.399 . S
O215 C230 1.263 . S
O216 Tb201 2.325 . S
O216 C231 1.236 . S
O217 Tb200 2.322 . S
O217 C231 1.257 . S
O218 Tb200 2.349 . S
O218 C202 1.261 . S
O219 Tb201 2.303 . S
O219 C202 1.257 . S
C220 O210 1.236 . S
C220 O211 1.257 . S
O221 Tb200 2.415 . S
O221 C209 1.239 . S
O222 Tb200 2.399 . S
O222 C209 1.263 . S
C223 O212 1.261 . S
C223 O213 1.257 . S
C224 C227 1.358 . S
C224 C228 1.332 . S
C224 C230 1.504 . S
C225 C226 1.373 . S
C225 C229 1.308 . S
C226 C225 1.373 . S
C226 C227 1.429 . S
C226 H236 0.932 . S
C227 C224 1.358 . S
C227 C226 1.429 . S
C227 H237 0.930 . S
C228 C224 1.332 . S
C228 C229 1.394 . S
C228 H238 0.932 . S
C229 C225 1.308 . S
C229 C228 1.394 . S
C229 H239 0.929 . S
C230 Tb201 2.764 . S
C230 O214 1.239 . S
C230 O215 1.263 . S
C230 C224 1.504 . S
C231 O216 1.236 . S
C231 O217 1.257 . S
H232 C205 0.932 . S
H233 C206 0.930 . S
H234 C207 0.932 . S
H235 C208 0.929 . S
H236 C226 0.932 . S
H237 C227 0.930 . S
H238 C228 0.932 . S
H239 C229 0.929 . S
Tb240 C249 2.764 . S
Tb240 O250 2.325 . S
Tb240 O253 2.303 . S
Tb240 O257 2.322 . S
Tb240 O258 2.349 . S
Tb240 O261 2.415 . S
Tb240 O262 2.399 . S
Tb241 O251 2.322 . S
Tb241 O252 2.349 . S
Tb241 O254 2.415 . S
Tb241 O255 2.399 . S
Tb241 O256 2.325 . S
Tb241 O259 2.303 . S
Tb241 C270 2.764 . S
C242 O258 1.261 . S
C242 O259 1.257 . S
C243 C246 1.358 . S
C243 C247 1.332 . S
C243 C249 1.504 . S
C244 C245 1.373 . S
C244 C248 1.308 . S
C245 C244 1.373 . S
C245 C246 1.429 . S
C245 H272 0.932 . S
C246 C243 1.358 . S
C246 C245 1.429 . S
C246 H273 0.930 . S
C247 C243 1.332 . S
C247 C248 1.394 . S
C247 H274 0.932 . S
C248 C244 1.308 . S
C248 C247 1.394 . S
C248 H275 0.929 . S
C249 Tb240 2.764 . S
C249 C243 1.504 . S
C249 O261 1.239 . S
C249 O262 1.263 . S
O250 Tb240 2.325 . S
O250 C260 1.236 . S
O251 Tb241 2.322 . S
O251 C260 1.257 . S
O252 Tb241 2.349 . S
O252 C263 1.261 . S
O253 Tb240 2.303 . S
O253 C263 1.257 . S
O254 Tb241 2.415 . S
O254 C270 1.239 . S
O255 Tb241 2.399 . S
O255 C270 1.263 . S
O256 Tb241 2.325 . S
O256 C271 1.236 . S
O257 Tb240 2.322 . S
O257 C271 1.257 . S
O258 Tb240 2.349 . S
O258 C242 1.261 . S
O259 Tb241 2.303 . S
O259 C242 1.257 . S
C260 O250 1.236 . S
C260 O251 1.257 . S
O261 Tb240 2.415 . S
O261 C249 1.239 . S
O262 Tb240 2.399 . S
O262 C249 1.263 . S
C263 O252 1.261 . S
C263 O253 1.257 . S
C264 C267 1.358 . S
C264 C268 1.332 . S
C264 C270 1.504 . S
C265 C266 1.373 . S
C265 C269 1.308 . S
C266 C265 1.373 . S
C266 C267 1.429 . S
C266 H276 0.932 . S
C267 C264 1.358 . S
C267 C266 1.429 . S
C267 H277 0.930 . S
C268 C264 1.332 . S
C268 C269 1.394 . S
C268 H278 0.932 . S
C269 C265 1.308 . S
C269 C268 1.394 . S
C269 H279 0.929 . S
C270 Tb241 2.764 . S
C270 O254 1.239 . S
C270 O255 1.263 . S
C270 C264 1.504 . S
C271 O256 1.236 . S
C271 O257 1.257 . S
H272 C245 0.932 . S
H273 C246 0.930 . S
H274 C247 0.932 . S
H275 C248 0.929 . S
H276 C266 0.932 . S
H277 C267 0.930 . S
H278 C268 0.932 . S
H279 C269 0.929 . S
Tb280 C289 2.764 . S
Tb280 O290 2.325 1_455 S
Tb280 O293 2.303 . S
Tb280 O297 2.322 . S
Tb280 O298 2.349 1_455 S
Tb280 O301 2.415 . S
Tb280 O302 2.399 . S
Tb281 O291 2.322 . S
Tb281 O292 2.349 1_655 S
Tb281 O294 2.415 . S
Tb281 O295 2.399 . S
Tb281 O296 2.325 1_655 S
Tb281 O299 2.303 . S
Tb281 C310 2.764 . S
C282 O298 1.261 . S
C282 O299 1.257 . S
C283 C286 1.358 . S
C283 C287 1.332 . S
C283 C289 1.504 . S
C284 C285 1.373 . S
C284 C288 1.308 . S
C285 C284 1.373 . S
C285 C286 1.429 . S
C285 H312 0.932 . S
C286 C283 1.358 . S
C286 C285 1.429 . S
C286 H313 0.930 . S
C287 C283 1.332 . S
C287 C288 1.394 . S
C287 H314 0.932 . S
C288 C284 1.308 . S
C288 C287 1.394 . S
C288 H315 0.929 . S
C289 Tb280 2.764 . S
C289 C283 1.504 . S
C289 O301 1.239 . S
C289 O302 1.263 . S
O290 Tb280 2.325 1_655 S
O290 C300 1.236 . S
O291 Tb281 2.322 . S
O291 C300 1.257 . S
O292 Tb281 2.349 1_455 S
O292 C303 1.261 . S
O293 Tb280 2.303 . S
O293 C303 1.257 . S
O294 Tb281 2.415 . S
O294 C310 1.239 . S
O295 Tb281 2.399 . S
O295 C310 1.263 . S
O296 Tb281 2.325 1_455 S
O296 C311 1.236 . S
O297 Tb280 2.322 . S
O297 C311 1.257 . S
O298 Tb280 2.349 1_655 S
O298 C282 1.261 . S
O299 Tb281 2.303 . S
O299 C282 1.257 . S
C300 O290 1.236 . S
C300 O291 1.257 . S
O301 Tb280 2.415 . S
O301 C289 1.239 . S
O302 Tb280 2.399 . S
O302 C289 1.263 . S
C303 O292 1.261 . S
C303 O293 1.257 . S
C304 C307 1.358 . S
C304 C308 1.332 . S
C304 C310 1.504 . S
C305 C306 1.373 . S
C305 C309 1.308 . S
C306 C305 1.373 . S
C306 C307 1.429 . S
C306 H316 0.932 . S
C307 C304 1.358 . S
C307 C306 1.429 . S
C307 H317 0.930 . S
C308 C304 1.332 . S
C308 C309 1.394 . S
C308 H318 0.932 . S
C309 C305 1.308 . S
C309 C308 1.394 . S
C309 H319 0.929 . S
C310 Tb281 2.764 . S
C310 O294 1.239 . S
C310 O295 1.263 . S
C310 C304 1.504 . S
C311 O296 1.236 . S
C311 O297 1.257 . S
H312 C285 0.932 . S
H313 C286 0.930 . S
H314 C287 0.932 . S
H315 C288 0.929 . S
H316 C306 0.932 . S
H317 C307 0.930 . S
H318 C308 0.932 . S
H319 C309 0.929 . S
Tb320 C329 2.764 . S
Tb320 O330 2.325 1_554 S
Tb320 O333 2.303 1_554 S
Tb320 O337 2.322 . S
Tb320 O338 2.349 . S
Tb320 O341 2.415 . S
Tb320 O342 2.399 . S
Tb321 O331 2.322 . S
Tb321 O332 2.349 . S
Tb321 O334 2.415 . S
Tb321 O335 2.399 . S
Tb321 O336 2.325 1_556 S
Tb321 O339 2.303 1_556 S
Tb321 C350 2.764 . S
C322 O338 1.261 . S
C322 O339 1.257 . S
C323 C326 1.358 . S
C323 C327 1.332 . S
C323 C329 1.504 . S
C324 C325 1.373 . S
C324 C328 1.308 . S
C325 C324 1.373 . S
C325 C326 1.429 . S
C325 H352 0.932 . S
C326 C323 1.358 . S
C326 C325 1.429 . S
C326 H353 0.930 . S
C327 C323 1.332 . S
C327 C328 1.394 . S
C327 H354 0.932 1_554 S
C328 C324 1.308 . S
C328 C327 1.394 . S
C328 H355 0.929 1_554 S
C329 Tb320 2.764 . S
C329 C323 1.504 . S
C329 O341 1.239 . S
C329 O342 1.263 . S
O330 Tb320 2.325 1_556 S
O330 C340 1.236 . S
O331 Tb321 2.322 . S
O331 C340 1.257 . S
O332 Tb321 2.349 . S
O332 C343 1.261 . S
O333 Tb320 2.303 1_556 S
O333 C343 1.257 . S
O334 Tb321 2.415 . S
O334 C350 1.239 . S
O335 Tb321 2.399 . S
O335 C350 1.263 . S
O336 Tb321 2.325 1_554 S
O336 C351 1.236 . S
O337 Tb320 2.322 . S
O337 C351 1.257 . S
O338 Tb320 2.349 . S
O338 C322 1.261 . S
O339 Tb321 2.303 1_554 S
O339 C322 1.257 . S
C340 O330 1.236 . S
C340 O331 1.257 . S
O341 Tb320 2.415 . S
O341 C329 1.239 . S
O342 Tb320 2.399 . S
O342 C329 1.263 . S
C343 O332 1.261 . S
C343 O333 1.257 . S
C344 C347 1.358 . S
C344 C348 1.332 . S
C344 C350 1.504 . S
C345 C346 1.373 . S
C345 C349 1.308 . S
C346 C345 1.373 . S
C346 C347 1.429 . S
C346 H356 0.932 . S
C347 C344 1.358 . S
C347 C346 1.429 . S
C347 H357 0.930 . S
C348 C344 1.332 . S
C348 C349 1.394 . S
C348 H358 0.932 1_556 S
C349 C345 1.308 . S
C349 C348 1.394 . S
C349 H359 0.929 1_556 S
C350 Tb321 2.764 . S
C350 O334 1.239 . S
C350 O335 1.263 . S
C350 C344 1.504 . S
C351 O336 1.236 . S
C351 O337 1.257 . S
H352 C325 0.932 . S
H353 C326 0.930 . S
H354 C327 0.932 1_556 S
H355 C328 0.929 1_556 S
H356 C346 0.932 . S
H357 C347 0.930 . S
H358 C348 0.932 1_554 S
H359 C349 0.929 1_554 S
Tb360 C369 2.757 . S
Tb360 O370 2.325 1_545 S
Tb360 O373 2.303 1_545 S
Tb360 O377 2.322 . S
Tb360 O378 2.349 . S
Tb360 O381 2.415 1_545 S
Tb360 O382 2.399 . S
Tb361 O371 2.322 . S
Tb361 O372 2.349 . S
Tb361 O374 2.415 1_565 S
Tb361 O375 2.399 . S
Tb361 O376 2.325 1_565 S
Tb361 O379 2.303 1_565 S
Tb361 C390 2.763 . S
C362 O378 1.261 . S
C362 O379 1.257 . S
C363 C366 1.358 1_565 S
C363 C367 1.332 . S
C363 C369 1.512 1_565 S
C364 C365 1.373 1_565 S
C364 C368 1.308 . S
C365 C364 1.373 1_545 S
C365 C366 1.429 . S
C365 H392 0.932 . S
C366 C363 1.358 1_545 S
C366 C365 1.429 . S
C366 H393 0.930 . S
C367 C363 1.332 . S
C367 C368 1.394 . S
C367 H394 0.932 . S
C368 C364 1.308 . S
C368 C367 1.394 . S
C368 H395 0.929 . S
C369 Tb360 2.757 . S
C369 C363 1.512 1_545 S
C369 O381 1.213 1_545 S
C369 O382 1.281 . S
O370 Tb360 2.325 1_565 S
O370 C380 1.236 . S
O371 Tb361 2.322 . S
O371 C380 1.257 . S
O372 Tb361 2.349 . S
O372 C383 1.261 . S
O373 Tb360 2.303 1_565 S
O373 C383 1.257 . S
O374 Tb361 2.415 1_545 S
O374 C390 1.235 1_545 S
O375 Tb361 2.399 . S
O375 C390 1.266 . S
O376 Tb361 2.325 1_545 S
O376 C391 1.236 . S
O377 Tb360 2.322 . S
O377 C391 1.257 . S
O378 Tb360 2.349 . S
O378 C362 1.261 . S
O379 Tb361 2.303 1_545 S
O379 C362 1.257 . S
C380 O370 1.236 . S
C380 O371 1.257 . S
O381 Tb360 2.415 1_565 S
O381 C369 1.213 1_565 S
O382 Tb360 2.399 . S
O382 C369 1.281 . S
C383 O372 1.261 . S
C383 O373 1.257 . S
C384 C387 1.358 1_545 S
C384 C388 1.332 . S
C384 C390 1.505 1_545 S
C385 C386 1.373 1_545 S
C385 C389 1.308 . S
C386 C385 1.373 1_565 S
C386 C387 1.429 . S
C386 H396 0.932 . S
C387 C384 1.358 1_565 S
C387 C386 1.429 . S
C387 H397 0.930 . S
C388 C384 1.332 . S
C388 C389 1.394 . S
C388 H398 0.932 . S
C389 C385 1.308 . S
C389 C388 1.394 . S
C389 H399 0.929 . S
C390 Tb361 2.763 . S
C390 O374 1.235 1_565 S
C390 O375 1.266 . S
C390 C384 1.505 1_565 S
C391 O376 1.236 . S
C391 O377 1.257 . S
H392 C365 0.932 . S
H393 C366 0.930 . S
H394 C367 0.932 . S
H395 C368 0.929 . S
H396 C386 0.932 . S
H397 C387 0.930 . S
H398 C388 0.932 . S
H399 C389 0.929 . S
Tb400 C409 2.764 . S
Tb400 O410 2.325 . S
Tb400 O413 2.303 . S
Tb400 O417 2.322 . S
Tb400 O418 2.349 . S
Tb400 O421 2.415 . S
Tb400 O422 2.399 . S
Tb401 O411 2.322 . S
Tb401 O412 2.349 . S
Tb401 O414 2.415 . S
Tb401 O415 2.399 . S
Tb401 O416 2.325 . S
Tb401 O419 2.303 . S
Tb401 C430 2.764 . S
C402 O418 1.261 . S
C402 O419 1.257 . S
C403 C406 1.358 . S
C403 C407 1.332 . S
C403 C409 1.504 . S
C404 C405 1.373 . S
C404 C408 1.308 . S
C405 C404 1.373 . S
C405 C406 1.429 . S
C405 H432 0.932 . S
C406 C403 1.358 . S
C406 C405 1.429 . S
C406 H433 0.930 . S
C407 C403 1.332 . S
C407 C408 1.394 . S
C407 H434 0.932 . S
C408 C404 1.308 . S
C408 C407 1.394 . S
C408 H435 0.929 . S
C409 Tb400 2.764 . S
C409 C403 1.504 . S
C409 O421 1.239 . S
C409 O422 1.263 . S
O410 Tb400 2.325 . S
O410 C420 1.236 . S
O411 Tb401 2.322 . S
O411 C420 1.257 . S
O412 Tb401 2.349 . S
O412 C423 1.261 . S
O413 Tb400 2.303 . S
O413 C423 1.257 . S
O414 Tb401 2.415 . S
O414 C430 1.239 . S
O415 Tb401 2.399 . S
O415 C430 1.263 . S
O416 Tb401 2.325 . S
O416 C431 1.236 . S
O417 Tb400 2.322 . S
O417 C431 1.257 . S
O418 Tb400 2.349 . S
O418 C402 1.261 . S
O419 Tb401 2.303 . S
O419 C402 1.257 . S
C420 O410 1.236 . S
C420 O411 1.257 . S
O421 Tb400 2.415 . S
O421 C409 1.239 . S
O422 Tb400 2.399 . S
O422 C409 1.263 . S
C423 O412 1.261 . S
C423 O413 1.257 . S
C424 C427 1.358 . S
C424 C428 1.332 . S
C424 C430 1.504 . S
C425 C426 1.373 . S
C425 C429 1.308 . S
C426 C425 1.373 . S
C426 C427 1.429 . S
C426 H436 0.932 . S
C427 C424 1.358 . S
C427 C426 1.429 . S
C427 H437 0.930 . S
C428 C424 1.332 . S
C428 C429 1.394 . S
C428 H438 0.932 . S
C429 C425 1.308 . S
C429 C428 1.394 . S
C429 H439 0.929 . S
C430 Tb401 2.764 . S
C430 O414 1.239 . S
C430 O415 1.263 . S
C430 C424 1.504 . S
C431 O416 1.236 . S
C431 O417 1.257 . S
H432 C405 0.932 . S
H433 C406 0.930 . S
H434 C407 0.932 . S
H435 C408 0.929 . S
H436 C426 0.932 . S
H437 C427 0.930 . S
H438 C428 0.932 . S
H439 C429 0.929 . S
Tb440 C449 2.764 . S
Tb440 O450 2.325 1_655 S
Tb440 O453 2.303 1_655 S
Tb440 O457 2.322 . S
Tb440 O458 2.349 . S
Tb440 O461 2.415 1_655 S
Tb440 O462 2.399 . S
Tb441 O451 2.322 . S
Tb441 O452 2.349 . S
Tb441 O454 2.415 1_455 S
Tb441 O455 2.399 . S
Tb441 O456 2.325 1_455 S
Tb441 O459 2.303 1_455 S
Tb441 C470 2.764 . S
C442 O458 1.261 . S
C442 O459 1.257 . S
C443 C446 1.358 1_455 S
C443 C447 1.332 . S
C443 C449 1.504 1_455 S
C444 C445 1.373 1_455 S
C444 C448 1.308 . S
C445 C444 1.373 1_655 S
C445 C446 1.429 . S
C445 H472 0.932 . S
C446 C443 1.358 1_655 S
C446 C445 1.429 . S
C446 H473 0.930 . S
C447 C443 1.332 . S
C447 C448 1.394 . S
C447 H474 0.932 . S
C448 C444 1.308 . S
C448 C447 1.394 . S
C448 H475 0.929 . S
C449 Tb440 2.764 . S
C449 C443 1.504 1_655 S
C449 O461 1.239 1_655 S
C449 O462 1.263 . S
O450 Tb440 2.325 1_455 S
O450 C460 1.236 . S
O451 Tb441 2.322 . S
O451 C460 1.257 . S
O452 Tb441 2.349 . S
O452 C463 1.261 . S
O453 Tb440 2.303 1_455 S
O453 C463 1.257 . S
O454 Tb441 2.415 1_655 S
O454 C470 1.239 1_655 S
O455 Tb441 2.399 . S
O455 C470 1.263 . S
O456 Tb441 2.325 1_655 S
O456 C471 1.236 . S
O457 Tb440 2.322 . S
O457 C471 1.257 . S
O458 Tb440 2.349 . S
O458 C442 1.261 . S
O459 Tb441 2.303 1_655 S
O459 C442 1.257 . S
C460 O450 1.236 . S
C460 O451 1.257 . S
O461 Tb440 2.415 1_455 S
O461 C449 1.239 1_455 S
O462 Tb440 2.399 . S
O462 C449 1.263 . S
C463 O452 1.261 . S
C463 O453 1.257 . S
C464 C467 1.358 1_655 S
C464 C468 1.332 . S
C464 C470 1.504 1_655 S
C465 C466 1.373 1_655 S
C465 C469 1.308 . S
C466 C465 1.373 1_455 S
C466 C467 1.429 . S
C466 H476 0.932 . S
C467 C464 1.358 1_455 S
C467 C466 1.429 . S
C467 H477 0.930 . S
C468 C464 1.332 . S
C468 C469 1.394 . S
C468 H478 0.932 . S
C469 C465 1.308 . S
C469 C468 1.394 . S
C469 H479 0.929 . S
C470 Tb441 2.764 . S
C470 O454 1.239 1_455 S
C470 O455 1.263 . S
C470 C464 1.504 1_455 S
C471 O456 1.236 . S
C471 O457 1.257 . S
H472 C445 0.932 . S
H473 C446 0.930 . S
H474 C447 0.932 . S
H475 C448 0.929 . S
H476 C466 0.932 . S
H477 C467 0.930 . S
H478 C468 0.932 . S
H479 C469 0.929 . S
Tb480 C489 2.764 . S
Tb480 O490 2.325 . S
Tb480 O493 2.303 . S
Tb480 O497 2.322 . S
Tb480 O498 2.349 . S
Tb480 O501 2.415 . S
Tb480 O502 2.399 . S
Tb481 O491 2.322 . S
Tb481 O492 2.349 . S
Tb481 O494 2.415 . S
Tb481 O495 2.399 . S
Tb481 O496 2.325 . S
Tb481 O499 2.303 . S
Tb481 C510 2.764 . S
C482 O498 1.261 . S
C482 O499 1.257 . S
C483 C486 1.358 . S
C483 C487 1.332 . S
C483 C489 1.504 . S
C484 C485 1.373 . S
C484 C488 1.308 . S
C485 C484 1.373 . S
C485 C486 1.429 . S
C485 H512 0.932 . S
C486 C483 1.358 . S
C486 C485 1.429 . S
C486 H513 0.930 . S
C487 C483 1.332 . S
C487 C488 1.394 . S
C487 H514 0.932 . S
C488 C484 1.308 . S
C488 C487 1.394 . S
C488 H515 0.929 . S
C489 Tb480 2.764 . S
C489 C483 1.504 . S
C489 O501 1.239 . S
C489 O502 1.263 . S
O490 Tb480 2.325 . S
O490 C500 1.236 . S
O491 Tb481 2.322 . S
O491 C500 1.257 . S
O492 Tb481 2.349 . S
O492 C503 1.261 . S
O493 Tb480 2.303 . S
O493 C503 1.257 . S
O494 Tb481 2.415 . S
O494 C510 1.239 . S
O495 Tb481 2.399 . S
O495 C510 1.263 . S
O496 Tb481 2.325 . S
O496 C511 1.236 . S
O497 Tb480 2.322 . S
O497 C511 1.257 . S
O498 Tb480 2.349 . S
O498 C482 1.261 . S
O499 Tb481 2.303 . S
O499 C482 1.257 . S
C500 O490 1.236 . S
C500 O491 1.257 . S
O501 Tb480 2.415 . S
O501 C489 1.239 . S
O502 Tb480 2.399 . S
O502 C489 1.263 . S
C503 O492 1.261 . S
C503 O493 1.257 . S
C504 C507 1.358 . S
C504 C508 1.332 . S
C504 C510 1.504 . S
C505 C506 1.373 . S
C505 C509 1.308 . S
C506 C505 1.373 . S
C506 C507 1.429 . S
C506 H516 0.932 . S
C507 C504 1.358 . S
C507 C506 1.429 . S
C507 H517 0.930 . S
C508 C504 1.332 . S
C508 C509 1.394 . S
C508 H518 0.932 . S
C509 C505 1.308 . S
C509 C508 1.394 . S
C509 H519 0.929 . S
C510 Tb481 2.764 . S
C510 O494 1.239 . S
C510 O495 1.263 . S
C510 C504 1.504 . S
C511 O496 1.236 . S
C511 O497 1.257 . S
H512 C485 0.932 . S
H513 C486 0.930 . S
H514 C487 0.932 . S
H515 C488 0.929 . S
H516 C506 0.932 . S
H517 C507 0.930 . S
H518 C508 0.932 . S
H519 C509 0.929 . S
Tb520 C529 2.764 . S
Tb520 O530 2.325 1_554 S
Tb520 O533 2.303 1_554 S
Tb520 O537 2.322 . S
Tb520 O538 2.349 . S
Tb520 O541 2.415 . S
Tb520 O542 2.399 . S
Tb521 O531 2.322 . S
Tb521 O532 2.349 . S
Tb521 O534 2.415 . S
Tb521 O535 2.399 . S
Tb521 O536 2.325 1_556 S
Tb521 O539 2.303 1_556 S
Tb521 C550 2.764 . S
C522 O538 1.261 . S
C522 O539 1.257 . S
C523 C526 1.358 . S
C523 C527 1.332 . S
C523 C529 1.504 . S
C524 C525 1.373 . S
C524 C528 1.308 . S
C525 C524 1.373 . S
C525 C526 1.429 . S
C525 H552 0.932 . S
C526 C523 1.358 . S
C526 C525 1.429 . S
C526 H553 0.930 . S
C527 C523 1.332 . S
C527 C528 1.394 . S
C527 H554 0.932 1_554 S
C528 C524 1.308 . S
C528 C527 1.394 . S
C528 H555 0.929 1_554 S
C529 Tb520 2.764 . S
C529 C523 1.504 . S
C529 O541 1.239 . S
C529 O542 1.263 . S
O530 Tb520 2.325 1_556 S
O530 C540 1.236 . S
O531 Tb521 2.322 . S
O531 C540 1.257 . S
O532 Tb521 2.349 . S
O532 C543 1.261 . S
O533 Tb520 2.303 1_556 S
O533 C543 1.257 . S
O534 Tb521 2.415 . S
O534 C550 1.239 . S
O535 Tb521 2.399 . S
O535 C550 1.263 . S
O536 Tb521 2.325 1_554 S
O536 C551 1.236 . S
O537 Tb520 2.322 . S
O537 C551 1.257 . S
O538 Tb520 2.349 . S
O538 C522 1.261 . S
O539 Tb521 2.303 1_554 S
O539 C522 1.257 . S
C540 O530 1.236 . S
C540 O531 1.257 . S
O541 Tb520 2.415 . S
O541 C529 1.239 . S
O542 Tb520 2.399 . S
O542 C529 1.263 . S
C543 O532 1.261 . S
C543 O533 1.257 . S
C544 C547 1.358 . S
C544 C548 1.332 . S
C544 C550 1.504 . S
C545 C546 1.373 . S
C545 C549 1.308 . S
C546 C545 1.373 . S
C546 C547 1.429 . S
C546 H556 0.932 . S
C547 C544 1.358 . S
C547 C546 1.429 . S
C547 H557 0.930 . S
C548 C544 1.332 . S
C548 C549 1.394 . S
C548 H558 0.932 1_556 S
C549 C545 1.308 . S
C549 C548 1.394 . S
C549 H559 0.929 1_556 S
C550 Tb521 2.764 . S
C550 O534 1.239 . S
C550 O535 1.263 . S
C550 C544 1.504 . S
C551 O536 1.236 . S
C551 O537 1.257 . S
H552 C525 0.932 . S
H553 C526 0.930 . S
H554 C527 0.932 1_556 S
H555 C528 0.929 1_556 S
H556 C546 0.932 . S
H557 C547 0.930 . S
H558 C548 0.932 1_554 S
H559 C549 0.929 1_554 S
Tb560 C569 2.764 . S
Tb560 O570 2.325 . S
Tb560 O573 2.303 1_545 S
Tb560 O577 2.322 1_545 S
Tb560 O578 2.349 . S
Tb560 O581 2.415 . S
Tb560 O582 2.399 . S
Tb561 O571 2.322 1_565 S
Tb561 O572 2.349 . S
Tb561 O574 2.415 . S
Tb561 O575 2.399 . S
Tb561 O576 2.325 . S
Tb561 O579 2.303 1_565 S
Tb561 C590 2.764 . S
C562 O578 1.261 . S
C562 O579 1.257 . S
C563 C566 1.358 . S
C563 C567 1.332 . S
C563 C569 1.504 . S
C564 C565 1.373 . S
C564 C568 1.308 . S
C565 C564 1.373 . S
C565 C566 1.429 . S
C565 H592 0.932 . S
C566 C563 1.358 . S
C566 C565 1.429 . S
C566 H593 0.930 . S
C567 C563 1.332 . S
C567 C568 1.394 . S
C567 H594 0.932 . S
C568 C564 1.308 . S
C568 C567 1.394 . S
C568 H595 0.929 . S
C569 Tb560 2.764 . S
C569 C563 1.504 . S
C569 O581 1.239 . S
C569 O582 1.263 . S
O570 Tb560 2.325 . S
O570 C580 1.236 . S
O571 Tb561 2.322 1_545 S
O571 C580 1.257 . S
O572 Tb561 2.349 . S
O572 C583 1.261 . S
O573 Tb560 2.303 1_565 S
O573 C583 1.257 . S
O574 Tb561 2.415 . S
O574 C590 1.239 . S
O575 Tb561 2.399 . S
O575 C590 1.263 . S
O576 Tb561 2.325 . S
O576 C591 1.236 . S
O577 Tb560 2.322 1_565 S
O577 C591 1.257 . S
O578 Tb560 2.349 . S
O578 C562 1.261 . S
O579 Tb561 2.303 1_545 S
O579 C562 1.257 . S
C580 O570 1.236 . S
C580 O571 1.257 . S
O581 Tb560 2.415 . S
O581 C569 1.239 . S
O582 Tb560 2.399 . S
O582 C569 1.263 . S
C583 O572 1.261 . S
C583 O573 1.257 . S
C584 C587 1.358 . S
C584 C588 1.332 . S
C584 C590 1.504 . S
C585 C586 1.373 . S
C585 C589 1.308 . S
C586 C585 1.373 . S
C586 C587 1.429 . S
C586 H596 0.932 . S
C587 C584 1.358 . S
C587 C586 1.429 . S
C587 H597 0.930 . S
C588 C584 1.332 . S
C588 C589 1.394 . S
C588 H598 0.932 . S
C589 C585 1.308 . S
C589 C588 1.394 . S
C589 H599 0.929 . S
C590 Tb561 2.764 . S
C590 O574 1.239 . S
C590 O575 1.263 . S
C590 C584 1.504 . S
C591 O576 1.236 . S
C591 O577 1.257 . S
H592 C565 0.932 . S
H593 C566 0.930 . S
H594 C567 0.932 . S
H595 C568 0.929 . S
H596 C586 0.932 . S
H597 C587 0.930 . S
H598 C588 0.932 . S
H599 C589 0.929 . S
Tb600 C609 2.764 . S
Tb600 O610 2.325 1_556 S
Tb600 O613 2.303 1_556 S
Tb600 O617 2.322 . S
Tb600 O618 2.349 . S
Tb600 O621 2.415 . S
Tb600 O622 2.399 . S
Tb601 O611 2.322 . S
Tb601 O612 2.349 . S
Tb601 O614 2.415 . S
Tb601 O615 2.399 . S
Tb601 O616 2.325 1_554 S
Tb601 O619 2.303 1_554 S
Tb601 C630 2.764 . S
C602 O618 1.261 . S
C602 O619 1.257 . S
C603 C606 1.358 . S
C603 C607 1.332 . S
C603 C609 1.504 . S
C604 C605 1.373 . S
C604 C608 1.308 . S
C605 C604 1.373 . S
C605 C606 1.429 . S
C605 H632 0.932 . S
C606 C603 1.358 . S
C606 C605 1.429 . S
C606 H633 0.930 . S
C607 C603 1.332 . S
C607 C608 1.394 . S
C607 H634 0.932 . S
C608 C604 1.308 . S
C608 C607 1.394 . S
C608 H635 0.929 . S
C609 Tb600 2.764 . S
C609 C603 1.504 . S
C609 O621 1.239 . S
C609 O622 1.263 . S
O610 Tb600 2.325 1_554 S
O610 C620 1.236 . S
O611 Tb601 2.322 . S
O611 C620 1.257 . S
O612 Tb601 2.349 . S
O612 C623 1.261 . S
O613 Tb600 2.303 1_554 S
O613 C623 1.257 . S
O614 Tb601 2.415 . S
O614 C630 1.239 . S
O615 Tb601 2.399 . S
O615 C630 1.263 . S
O616 Tb601 2.325 1_556 S
O616 C631 1.236 . S
O617 Tb600 2.322 . S
O617 C631 1.257 . S
O618 Tb600 2.349 . S
O618 C602 1.261 . S
O619 Tb601 2.303 1_556 S
O619 C602 1.257 . S
C620 O610 1.236 . S
C620 O611 1.257 . S
O621 Tb600 2.415 . S
O621 C609 1.239 . S
O622 Tb600 2.399 . S
O622 C609 1.263 . S
C623 O612 1.261 . S
C623 O613 1.257 . S
C624 C627 1.358 . S
C624 C628 1.332 . S
C624 C630 1.504 . S
C625 C626 1.373 . S
C625 C629 1.308 . S
C626 C625 1.373 . S
C626 C627 1.429 . S
C626 H636 0.932 . S
C627 C624 1.358 . S
C627 C626 1.429 . S
C627 H637 0.930 . S
C628 C624 1.332 . S
C628 C629 1.394 . S
C628 H638 0.932 . S
C629 C625 1.308 . S
C629 C628 1.394 . S
C629 H639 0.929 . S
C630 Tb601 2.764 . S
C630 O614 1.239 . S
C630 O615 1.263 . S
C630 C624 1.504 . S
C631 O616 1.236 . S
C631 O617 1.257 . S
H632 C605 0.932 . S
H633 C606 0.930 . S
H634 C607 0.932 . S
H635 C608 0.929 . S
H636 C626 0.932 . S
H637 C627 0.930 . S
H638 C628 0.932 . S
H639 C629 0.929 . S
C640 C641 1.363 . S
C640 C646 1.379 . S
C640 N648 1.356 . S
C641 C640 1.363 . S
C641 C647 1.363 1_655 S
C642 C643 1.363 . S
C642 C647 1.379 . S
C642 N649 1.356 . S
C643 C642 1.363 . S
C643 C646 1.363 1_455 S
N644 C646 1.356 . S
N644 H656 0.984 . S
N644 H657 0.985 . S
N645 C647 1.356 . S
N645 H650 0.984 . S
N645 H651 0.985 . S
C646 C640 1.379 . S
C646 C643 1.363 1_655 S
C646 N644 1.356 . S
C647 C641 1.363 1_455 S
C647 C642 1.379 . S
C647 N645 1.356 . S
N648 C640 1.356 . S
N648 H654 0.984 . S
N648 H655 0.984 . S
N649 C642 1.356 . S
N649 H652 0.984 . S
N649 H653 0.985 . S
H650 N645 0.984 . S
H651 N645 0.985 . S
H652 N649 0.984 . S
H653 N649 0.985 . S
H654 N648 0.984 . S
H655 N648 0.984 . S
H656 N644 0.984 . S
H657 N644 0.985 . S
C658 C659 1.363 . S
C658 C664 1.379 . S
C658 N666 1.356 . S
C659 C658 1.363 . S
C659 C665 1.363 . S
C660 C661 1.363 . S
C660 C665 1.379 . S
C660 N667 1.356 . S
C661 C660 1.363 . S
C661 C664 1.363 . S
N662 C664 1.356 . S
N662 H674 0.984 . S
N662 H675 0.985 . S
N663 C665 1.356 . S
N663 H668 0.984 . S
N663 H669 0.985 . S
C664 C658 1.379 . S
C664 C661 1.363 . S
C664 N662 1.356 . S
C665 C659 1.363 . S
C665 C660 1.379 . S
C665 N663 1.356 . S
N666 C658 1.356 . S
N666 H672 0.984 . S
N666 H673 0.984 . S
N667 C660 1.356 . S
N667 H670 0.984 . S
N667 H671 0.985 . S
H668 N663 0.984 . S
H669 N663 0.985 . S
H670 N667 0.984 . S
H671 N667 0.985 . S
H672 N666 0.984 . S
H673 N666 0.984 . S
H674 N662 0.984 . S
H675 N662 0.985 . S
C676 C677 1.363 . S
C676 C682 1.379 . S
C676 N684 1.356 . S
C677 C676 1.363 . S
C677 C683 1.363 . S
C678 C679 1.363 . S
C678 C683 1.379 . S
C678 N685 1.356 . S
C679 C678 1.363 . S
C679 C682 1.363 . S
N680 C682 1.356 . S
N680 H692 0.984 . S
N680 H693 0.985 . S
N681 C683 1.356 . S
N681 H686 0.984 . S
N681 H687 0.985 . S
C682 C676 1.379 . S
C682 C679 1.363 . S
C682 N680 1.356 . S
C683 C677 1.363 . S
C683 C678 1.379 . S
C683 N681 1.356 . S
N684 C676 1.356 . S
N684 H690 0.984 . S
N684 H691 0.984 . S
N685 C678 1.356 . S
N685 H688 0.984 . S
N685 H689 0.985 . S
H686 N681 0.984 . S
H687 N681 0.985 . S
H688 N685 0.984 . S
H689 N685 0.985 . S
H690 N684 0.984 . S
H691 N684 0.984 . S
H692 N680 0.984 . S
H693 N680 0.985 . S
C694 C695 1.363 . S
C694 C700 1.379 . S
C694 N702 1.356 . S
C695 C694 1.363 . S
C695 C701 1.363 1_545 S
C696 C697 1.363 . S
C696 C701 1.379 . S
C696 N703 1.356 1_556 S
C697 C696 1.363 . S
C697 C700 1.363 1_565 S
N698 C700 1.356 . S
N698 H710 0.984 . S
N698 H711 0.985 . S
N699 C701 1.356 . S
N699 H704 0.984 1_565 S
N699 H705 0.985 1_556 S
C700 C694 1.379 . S
C700 C697 1.363 1_545 S
C700 N698 1.356 . S
C701 C695 1.363 1_565 S
C701 C696 1.379 . S
C701 N699 1.356 . S
N702 C694 1.356 . S
N702 H708 0.984 . S
N702 H709 0.984 . S
N703 C696 1.356 1_554 S
N703 H706 0.984 . S
N703 H707 0.985 . S
H704 N699 0.984 1_545 S
H705 N699 0.985 1_554 S
H706 N703 0.984 . S
H707 N703 0.985 . S
H708 N702 0.984 . S
H709 N702 0.984 . S
H710 N698 0.984 . S
H711 N698 0.985 . S
C712 C713 1.363 . S
C712 C718 1.379 . S
C712 N720 1.356 . S
C713 C712 1.363 . S
C713 C719 1.363 . S
C714 C715 1.363 . S
C714 C719 1.379 1_545 S
C714 N721 1.356 . S
C715 C714 1.363 . S
C715 C718 1.363 1_545 S
N716 C718 1.356 1_556 S
N716 H728 0.984 . S
N716 H729 0.985 1_565 S
N717 C719 1.356 . S
N717 H722 0.984 . S
N717 H723 0.985 1_565 S
C718 C712 1.379 . S
C718 C715 1.363 1_565 S
C718 N716 1.356 1_554 S
C719 C713 1.363 . S
C719 C714 1.379 1_565 S
C719 N717 1.356 . S
N720 C712 1.356 . S
N720 H726 0.984 1_554 S
N720 H727 0.984 . S
N721 C714 1.356 . S
N721 H724 0.984 . S
N721 H725 0.985 . S
H722 N717 0.984 . S
H723 N717 0.985 1_545 S
H724 N721 0.984 . S
H725 N721 0.985 . S
H726 N720 0.984 1_556 S
H727 N720 0.984 . S
H728 N716 0.984 . S
H729 N716 0.985 1_545 S
C730 C731 1.363 . S
C730 C736 1.379 1_455 S
C730 N738 1.356 . S
C731 C730 1.363 . S
C731 C737 1.363 . S
C732 C733 1.363 1_455 S
C732 C737 1.379 . S
C732 N739 1.356 1_455 S
C733 C732 1.363 1_655 S
C733 C736 1.363 . S
N734 C736 1.356 . S
N734 H746 0.984 . S
N734 H747 0.985 . S
N735 C737 1.356 . S
N735 H740 0.984 . S
N735 H741 0.985 . S
C736 C730 1.379 1_655 S
C736 C733 1.363 . S
C736 N734 1.356 . S
C737 C731 1.363 . S
C737 C732 1.379 . S
C737 N735 1.356 . S
N738 C730 1.356 . S
N738 H744 0.984 . S
N738 H745 0.984 . S
N739 C732 1.356 1_655 S
N739 H742 0.984 . S
N739 H743 0.985 1_655 S
H740 N735 0.984 . S
H741 N735 0.985 . S
H742 N739 0.984 . S
H743 N739 0.985 1_455 S
H744 N738 0.984 . S
H745 N738 0.984 . S
H746 N734 0.984 . S
H747 N734 0.985 . S
C748 C749 1.363 . S
C748 C754 1.379 . S
C748 N756 1.356 . S
C749 C748 1.363 . S
C749 C755 1.363 . S
C750 C751 1.363 . S
C750 C755 1.379 . S
C750 N757 1.356 . S
C751 C750 1.363 . S
C751 C754 1.363 . S
N752 C754 1.356 . S
N752 H764 0.984 . S
N752 H765 0.985 . S
N753 C755 1.356 . S
N753 H758 0.984 . S
N753 H759 0.985 . S
C754 C748 1.379 . S
C754 C751 1.363 . S
C754 N752 1.356 . S
C755 C749 1.363 . S
C755 C750 1.379 . S
C755 N753 1.356 . S
N756 C748 1.356 . S
N756 H762 0.984 . S
N756 H763 0.984 . S
N757 C750 1.356 . S
N757 H760 0.984 . S
N757 H761 0.985 . S
H758 N753 0.984 . S
H759 N753 0.985 . S
H760 N757 0.984 . S
H761 N757 0.985 . S
H762 N756 0.984 . S
H763 N756 0.984 . S
H764 N752 0.984 . S
H765 N752 0.985 . S
C766 C767 1.363 . S
C766 C772 1.379 . S
C766 N774 1.356 . S
C767 C766 1.363 . S
C767 C773 1.363 . S
C768 C769 1.363 . S
C768 C773 1.379 . S
C768 N775 1.356 . S
C769 C768 1.363 . S
C769 C772 1.363 . S
N770 C772 1.356 . S
N770 H782 0.984 . S
N770 H783 0.985 . S
N771 C773 1.356 . S
N771 H776 0.984 . S
N771 H777 0.985 . S
C772 C766 1.379 . S
C772 C769 1.363 . S
C772 N770 1.356 . S
C773 C767 1.363 . S
C773 C768 1.379 . S
C773 N771 1.356 . S
N774 C766 1.356 . S
N774 H780 0.984 . S
N774 H781 0.984 . S
N775 C768 1.356 . S
N775 H778 0.984 . S
N775 H779 0.985 . S
H776 N771 0.984 . S
H777 N771 0.985 . S
H778 N775 0.984 . S
H779 N775 0.985 . S
H780 N774 0.984 . S
H781 N774 0.984 . S
H782 N770 0.984 . S
H783 N770 0.985 . S
C784 C785 1.363 . S
C784 C790 1.379 . S
C784 N792 1.356 . S
C785 C784 1.363 . S
C785 C791 1.363 . S
C786 C787 1.363 . S
C786 C791 1.379 . S
C786 N793 1.356 . S
C787 C786 1.363 . S
C787 C790 1.363 . S
N788 C790 1.356 . S
N788 H800 0.984 . S
N788 H801 0.985 . S
N789 C791 1.356 . S
N789 H794 0.984 . S
N789 H795 0.985 . S
C790 C784 1.379 . S
C790 C787 1.363 . S
C790 N788 1.356 . S
C791 C785 1.363 . S
C791 C786 1.379 . S
C791 N789 1.356 . S
N792 C784 1.356 . S
N792 H798 0.984 . S
N792 H799 0.984 . S
N793 C786 1.356 . S
N793 H796 0.984 . S
N793 H797 0.985 . S
H794 N789 0.984 . S
H795 N789 0.985 . S
H796 N793 0.984 . S
H797 N793 0.985 . S
H798 N792 0.984 . S
H799 N792 0.984 . S
H800 N788 0.984 . S
H801 N788 0.985 . S
C802 C803 1.363 . S
C802 C808 1.379 . S
C802 N810 1.356 . S
C803 C802 1.363 . S
C803 C809 1.363 . S
C804 C805 1.363 . S
C804 C809 1.379 . S
C804 N811 1.356 . S
C805 C804 1.363 . S
C805 C808 1.363 . S
N806 C808 1.356 . S
N806 H818 0.984 . S
N806 H819 0.985 . S
N807 C809 1.356 . S
N807 H812 0.984 . S
N807 H813 0.985 . S
C808 C802 1.379 . S
C808 C805 1.363 . S
C808 N806 1.356 . S
C809 C803 1.363 . S
C809 C804 1.379 . S
C809 N807 1.356 . S
N810 C802 1.356 . S
N810 H816 0.984 . S
N810 H817 0.984 . S
N811 C804 1.356 . S
N811 H814 0.984 . S
N811 H815 0.985 . S
H812 N807 0.984 . S
H813 N807 0.985 . S
H814 N811 0.984 . S
H815 N811 0.985 . S
H816 N810 0.984 . S
H817 N810 0.984 . S
H818 N806 0.984 . S
H819 N806 0.985 . S
C820 C821 1.363 . S
C820 C826 1.379 1_565 S
C820 N828 1.356 . S
C821 C820 1.363 . S
C821 C827 1.363 . S
C822 C823 1.363 1_565 S
C822 C827 1.379 . S
C822 N829 1.356 . S
C823 C822 1.363 1_545 S
C823 C826 1.363 . S
N824 C826 1.356 . S
N824 H836 0.984 . S
N824 H837 0.985 . S
N825 C827 1.356 . S
N825 H830 0.984 . S
N825 H831 0.985 . S
C826 C820 1.379 1_545 S
C826 C823 1.363 . S
C826 N824 1.356 . S
C827 C821 1.363 . S
C827 C822 1.379 . S
C827 N825 1.356 . S
N828 C820 1.356 . S
N828 H834 0.984 1_565 S
N828 H835 0.984 . S
N829 C822 1.356 . S
N829 H832 0.984 1_565 S
N829 H833 0.985 . S
H830 N825 0.984 . S
H831 N825 0.985 . S
H832 N829 0.984 1_545 S
H833 N829 0.985 . S
H834 N828 0.984 1_545 S
H835 N828 0.984 . S
H836 N824 0.984 . S
H837 N824 0.985 . S
C838 C839 1.363 1_655 S
C838 C844 1.379 . S
C838 N846 1.356 . S
C839 C838 1.363 1_455 S
C839 C845 1.363 . S
C840 C841 1.363 1_455 S
C840 C845 1.379 . S
C840 N847 1.356 1_556 S
C841 C840 1.363 1_655 S
C841 C844 1.363 . S
N842 C844 1.356 . S
N842 H854 0.984 . S
N842 H855 0.985 . S
N843 C845 1.365 . S
N843 H848 0.985 . S
N843 H849 0.976 1_556 S
C844 C838 1.379 . S
C844 C841 1.363 . S
C844 N842 1.356 . S
C845 C839 1.363 . S
C845 C840 1.379 . S
C845 N843 1.365 . S
N846 C838 1.356 . S
N846 H852 0.984 . S
N846 H853 0.984 1_655 S
N847 C840 1.356 1_554 S
N847 H850 0.984 1_455 S
N847 H851 0.985 . S
H848 N843 0.985 . S
H849 N843 0.976 1_554 S
H850 N847 0.984 1_655 S
H851 N847 0.985 . S
H852 N846 0.984 . S
H853 N846 0.984 1_455 S
H854 N842 0.984 . S
H855 N842 0.985 . S
C856 C857 1.363 . S
C856 C862 1.379 . S
C856 N864 1.356 . S
C857 C856 1.363 . S
C857 C863 1.363 . S
C858 C859 1.363 . S
C858 C863 1.379 . S
C858 N865 1.356 . S
C859 C858 1.363 . S
C859 C862 1.363 . S
N860 C862 1.356 1_554 S
N860 H872 0.984 . S
N860 H873 0.985 . S
N861 C863 1.356 . S
N861 H866 0.984 . S
N861 H867 0.985 . S
C862 C856 1.379 . S
C862 C859 1.363 . S
C862 N860 1.356 1_556 S
C863 C857 1.363 . S
C863 C858 1.379 . S
C863 N861 1.356 . S
N864 C856 1.356 . S
N864 H870 0.984 . S
N864 H871 0.984 . S
N865 C858 1.356 . S
N865 H868 0.984 . S
N865 H869 0.985 . S
H866 N861 0.984 . S
H867 N861 0.985 . S
H868 N865 0.984 . S
H869 N865 0.985 . S
H870 N864 0.984 . S
H871 N864 0.984 . S
H872 N860 0.984 . S
H873 N860 0.985 . S
C874 C875 1.363 . S
C874 C880 1.379 . S
C874 N882 1.356 . S
C875 C874 1.363 . S
C875 C881 1.363 . S
C876 C877 1.363 . S
C876 C881 1.379 . S
C876 N883 1.356 . S
C877 C876 1.363 . S
C877 C880 1.363 . S
N878 C880 1.356 . S
N878 H890 0.984 . S
N878 H891 0.985 . S
N879 C881 1.356 . S
N879 H884 0.984 . S
N879 H885 0.985 . S
C880 C874 1.379 . S
C880 C877 1.363 . S
C880 N878 1.356 . S
C881 C875 1.363 . S
C881 C876 1.379 . S
C881 N879 1.356 . S
N882 C874 1.356 . S
N882 H888 0.984 . S
N882 H889 0.984 . S
N883 C876 1.356 . S
N883 H886 0.984 . S
N883 H887 0.985 . S
H884 N879 0.984 . S
H885 N879 0.985 . S
H886 N883 0.984 . S
H887 N883 0.985 . S
H888 N882 0.984 . S
H889 N882 0.984 . S
H890 N878 0.984 . S
H891 N878 0.985 . S
C892 C893 1.363 . S
C892 C898 1.379 . S
C892 N900 1.356 . S
C893 C892 1.363 . S
C893 C899 1.363 . S
C894 C895 1.363 . S
C894 C899 1.379 . S
C894 N901 1.356 . S
C895 C894 1.363 . S
C895 C898 1.363 . S
N896 C898 1.356 . S
N896 H908 0.984 . S
N896 H909 0.985 . S
N897 C899 1.356 . S
N897 H902 0.984 . S
N897 H903 0.985 . S
C898 C892 1.379 . S
C898 C895 1.363 . S
C898 N896 1.356 . S
C899 C893 1.363 . S
C899 C894 1.379 . S
C899 N897 1.356 . S
N900 C892 1.356 . S
N900 H906 0.984 . S
N900 H907 0.984 . S
N901 C894 1.356 . S
N901 H904 0.984 . S
N901 H905 0.985 . S
H902 N897 0.984 . S
H903 N897 0.985 . S
H904 N901 0.984 . S
H905 N901 0.985 . S
H906 N900 0.984 . S
H907 N900 0.984 . S
H908 N896 0.984 . S
H909 N896 0.985 . S
C910 C911 1.363 . S
C910 C916 1.379 . S
C910 N918 1.356 . S
C911 C910 1.363 . S
C911 C917 1.363 . S
C912 C913 1.363 . S
C912 C917 1.379 . S
C912 N919 1.356 . S
C913 C912 1.363 . S
C913 C916 1.363 . S
N914 C916 1.356 . S
N914 H926 0.984 . S
N914 H927 0.985 . S
N915 C917 1.356 . S
N915 H920 0.984 . S
N915 H921 0.985 . S
C916 C910 1.379 . S
C916 C913 1.363 . S
C916 N914 1.356 . S
C917 C911 1.363 . S
C917 C912 1.379 . S
C917 N915 1.356 . S
N918 C910 1.356 . S
N918 H924 0.984 . S
N918 H925 0.984 . S
N919 C912 1.356 . S
N919 H922 0.984 . S
N919 H923 0.985 . S
H920 N915 0.984 . S
H921 N915 0.985 . S
H922 N919 0.984 . S
H923 N919 0.985 . S
H924 N918 0.984 . S
H925 N918 0.984 . S
H926 N914 0.984 . S
H927 N914 0.985 . S
C928 C929 1.363 . S
C928 C934 1.379 . S
C928 N936 1.356 . S
C929 C928 1.363 . S
C929 C935 1.363 . S
C930 C931 1.363 . S
C930 C935 1.379 . S
C930 N937 1.356 . S
C931 C930 1.363 . S
C931 C934 1.363 . S
N932 C934 1.356 . S
N932 H944 0.984 . S
N932 H945 0.985 . S
N933 C935 1.356 . S
N933 H938 0.984 . S
N933 H939 0.985 . S
C934 C928 1.379 . S
C934 C931 1.363 . S
C934 N932 1.356 . S
C935 C929 1.363 . S
C935 C930 1.379 . S
C935 N933 1.356 . S
N936 C928 1.356 . S
N936 H942 0.984 . S
N936 H943 0.984 . S
N937 C930 1.356 . S
N937 H940 0.984 . S
N937 H941 0.985 . S
H938 N933 0.984 . S
H939 N933 0.985 . S
H940 N937 0.984 . S
H941 N937 0.985 . S
H942 N936 0.984 . S
H943 N936 0.984 . S
H944 N932 0.984 . S
H945 N932 0.985 . S
C946 C947 1.363 . S
C946 C952 1.379 . S
C946 N954 1.356 . S
C947 C946 1.363 . S
C947 C953 1.363 . S
C948 C949 1.363 . S
C948 C953 1.379 . S
C948 N955 1.356 . S
C949 C948 1.363 . S
C949 C952 1.363 . S
N950 C952 1.356 . S
N950 H962 0.984 . S
N950 H963 0.985 . S
N951 C953 1.356 . S
N951 H956 0.984 . S
N951 H957 0.985 . S
C952 C946 1.379 . S
C952 C949 1.363 . S
C952 N950 1.356 . S
C953 C947 1.363 . S
C953 C948 1.379 . S
C953 N951 1.356 . S
N954 C946 1.356 . S
N954 H960 0.984 . S
N954 H961 0.984 . S
N955 C948 1.356 . S
N955 H958 0.984 . S
N955 H959 0.985 . S
H956 N951 0.984 . S
H957 N951 0.985 . S
H958 N955 0.984 . S
H959 N955 0.985 . S
H960 N954 0.984 . S
H961 N954 0.984 . S
H962 N950 0.984 . S
H963 N950 0.985 . S
C964 C965 1.363 . S
C964 C970 1.379 . S
C964 N972 1.356 . S
C965 C964 1.363 . S
C965 C971 1.363 . S
C966 C967 1.363 . S
C966 C971 1.379 . S
C966 N973 1.356 . S
C967 C966 1.363 . S
C967 C970 1.363 . S
N968 C970 1.356 . S
N968 H980 0.984 . S
N968 H981 0.985 . S
N969 C971 1.356 . S
N969 H974 0.984 . S
N969 H975 0.985 . S
C970 C964 1.379 . S
C970 C967 1.363 . S
C970 N968 1.356 . S
C971 C965 1.363 . S
C971 C966 1.379 . S
C971 N969 1.356 . S
N972 C964 1.356 . S
N972 H978 0.984 . S
N972 H979 0.984 . S
N973 C966 1.356 . S
N973 H976 0.984 . S
N973 H977 0.985 . S
H974 N969 0.984 . S
H975 N969 0.985 . S
H976 N973 0.984 . S
H977 N973 0.985 . S
H978 N972 0.984 . S
H979 N972 0.984 . S
H980 N968 0.984 . S
H981 N968 0.985 . S
C982 C983 1.363 . S
C982 C988 1.379 . S
C982 N990 1.356 . S
C983 C982 1.363 . S
C983 C989 1.363 . S
C984 C985 1.363 . S
C984 C989 1.379 . S
C984 N991 1.356 . S
C985 C984 1.363 . S
C985 C988 1.363 . S
N986 C988 1.356 . S
N986 H998 0.984 . S
N986 H999 0.985 . S
N987 C989 1.356 . S
N987 H992 0.984 . S
N987 H993 0.985 . S
C988 C982 1.379 . S
C988 C985 1.363 . S
C988 N986 1.356 . S
C989 C983 1.363 . S
C989 C984 1.379 . S
C989 N987 1.356 . S
N990 C982 1.356 . S
N990 H996 0.984 . S
N990 H997 0.984 . S
N991 C984 1.356 . S
N991 H994 0.984 . S
N991 H995 0.985 . S
H992 N987 0.984 . S
H993 N987 0.985 . S
H994 N991 0.984 . S
H995 N991 0.985 . S
H996 N990 0.984 . S
H997 N990 0.984 . S
H998 N986 0.984 . S
H999 N986 0.985 . S
C1000 C1001 1.363 . S
C1000 C1006 1.379 . S
C1000 N1008 1.356 . S
C1001 C1000 1.363 . S
C1001 C1007 1.363 . S
C1002 C1003 1.363 . S
C1002 C1007 1.379 . S
C1002 N1009 1.356 . S
C1003 C1002 1.363 . S
C1003 C1006 1.363 . S
N1004 C1006 1.356 . S
N1004 H1016 0.984 . S
N1004 H1017 0.985 . S
N1005 C1007 1.356 . S
N1005 H1010 0.984 . S
N1005 H1011 0.985 . S
C1006 C1000 1.379 . S
C1006 C1003 1.363 . S
C1006 N1004 1.356 . S
C1007 C1001 1.363 . S
C1007 C1002 1.379 . S
C1007 N1005 1.356 . S
N1008 C1000 1.356 . S
N1008 H1014 0.984 . S
N1008 H1015 0.984 . S
N1009 C1002 1.356 . S
N1009 H1012 0.984 . S
N1009 H1013 0.985 . S
H1010 N1005 0.984 . S
H1011 N1005 0.985 . S
H1012 N1009 0.984 . S
H1013 N1009 0.985 . S
H1014 N1008 0.984 . S
H1015 N1008 0.984 . S
H1016 N1004 0.984 . S
H1017 N1004 0.985 . S
C1018 C1019 1.363 . S
C1018 C1024 1.379 . S
C1018 N1026 1.356 . S
C1019 C1018 1.363 . S
C1019 C1025 1.363 1_455 S
C1020 C1021 1.363 . S
C1020 C1025 1.379 . S
C1020 N1027 1.356 . S
C1021 C1020 1.363 . S
C1021 C1024 1.363 1_655 S
N1022 C1024 1.356 . S
N1022 H1034 0.984 . S
N1022 H1035 0.985 1_455 S
N1023 C1025 1.356 . S
N1023 H1028 0.984 1_655 S
N1023 H1029 0.985 . S
C1024 C1018 1.379 . S
C1024 C1021 1.363 1_455 S
C1024 N1022 1.356 . S
C1025 C1019 1.363 1_655 S
C1025 C1020 1.379 . S
C1025 N1023 1.356 . S
N1026 C1018 1.356 . S
N1026 H1032 0.984 . S
N1026 H1033 0.984 . S
N1027 C1020 1.356 . S
N1027 H1030 0.984 . S
N1027 H1031 0.985 . S
H1028 N1023 0.984 1_455 S
H1029 N1023 0.985 . S
H1030 N1027 0.984 . S
H1031 N1027 0.985 . S
H1032 N1026 0.984 . S
H1033 N1026 0.984 . S
H1034 N1022 0.984 . S
H1035 N1022 0.985 1_655 S
C1036 C1037 1.363 . S
C1036 C1042 1.379 . S
C1036 N1044 1.356 . S
C1037 C1036 1.363 . S
C1037 C1043 1.363 . S
C1038 C1039 1.363 . S
C1038 C1043 1.379 . S
C1038 N1045 1.356 . S
C1039 C1038 1.363 . S
C1039 C1042 1.363 . S
N1040 C1042 1.356 . S
N1040 H1052 0.984 . S
N1040 H1053 0.985 . S
N1041 C1043 1.356 . S
N1041 H1046 0.984 . S
N1041 H1047 0.985 . S
C1042 C1036 1.379 . S
C1042 C1039 1.363 . S
C1042 N1040 1.356 . S
C1043 C1037 1.363 . S
C1043 C1038 1.379 . S
C1043 N1041 1.356 . S
N1044 C1036 1.356 . S
N1044 H1050 0.984 . S
N1044 H1051 0.984 . S
N1045 C1038 1.356 . S
N1045 H1048 0.984 . S
N1045 H1049 0.985 . S
H1046 N1041 0.984 . S
H1047 N1041 0.985 . S
H1048 N1045 0.984 . S
H1049 N1045 0.985 . S
H1050 N1044 0.984 . S
H1051 N1044 0.984 . S
H1052 N1040 0.984 . S
H1053 N1040 0.985 . S
C1054 C1055 1.363 . S
C1054 C1060 1.379 . S
C1054 N1062 1.356 . S
C1055 C1054 1.363 . S
C1055 C1061 1.363 . S
C1056 C1057 1.363 . S
C1056 C1061 1.379 . S
C1056 N1063 1.356 . S
C1057 C1056 1.363 . S
C1057 C1060 1.363 . S
N1058 C1060 1.356 . S
N1058 H1070 0.984 . S
N1058 H1071 0.985 . S
N1059 C1061 1.356 . S
N1059 H1064 0.984 . S
N1059 H1065 0.985 . S
C1060 C1054 1.379 . S
C1060 C1057 1.363 . S
C1060 N1058 1.356 . S
C1061 C1055 1.363 . S
C1061 C1056 1.379 . S
C1061 N1059 1.356 . S
N1062 C1054 1.356 . S
N1062 H1068 0.984 . S
N1062 H1069 0.984 . S
N1063 C1056 1.356 . S
N1063 H1066 0.984 . S
N1063 H1067 0.985 . S
H1064 N1059 0.984 . S
H1065 N1059 0.985 . S
H1066 N1063 0.984 . S
H1067 N1063 0.985 . S
H1068 N1062 0.984 . S
H1069 N1062 0.984 . S
H1070 N1058 0.984 . S
H1071 N1058 0.985 . S
C1072 C1073 1.363 . S
C1072 C1078 1.379 . S
C1072 N1080 1.356 . S
C1073 C1072 1.363 . S
C1073 C1079 1.363 . S
C1074 C1075 1.363 . S
C1074 C1079 1.379 . S
C1074 N1081 1.356 . S
C1075 C1074 1.363 . S
C1075 C1078 1.363 . S
N1076 C1078 1.356 . S
N1076 H1088 0.984 . S
N1076 H1089 0.985 . S
N1077 C1079 1.356 . S
N1077 H1082 0.984 . S
N1077 H1083 0.985 . S
C1078 C1072 1.379 . S
C1078 C1075 1.363 . S
C1078 N1076 1.356 . S
C1079 C1073 1.363 . S
C1079 C1074 1.379 . S
C1079 N1077 1.356 . S
N1080 C1072 1.356 . S
N1080 H1086 0.984 . S
N1080 H1087 0.984 . S
N1081 C1074 1.356 . S
N1081 H1084 0.984 . S
N1081 H1085 0.985 . S
H1082 N1077 0.984 . S
H1083 N1077 0.985 . S
H1084 N1081 0.984 . S
H1085 N1081 0.985 . S
H1086 N1080 0.984 . S
H1087 N1080 0.984 . S
H1088 N1076 0.984 . S
H1089 N1076 0.985 . S
C1090 C1091 1.363 . S
C1090 C1096 1.379 . S
C1090 N1098 1.356 . S
C1091 C1090 1.363 . S
C1091 C1097 1.363 . S
C1092 C1093 1.363 . S
C1092 C1097 1.379 . S
C1092 N1099 1.356 . S
C1093 C1092 1.363 . S
C1093 C1096 1.363 . S
N1094 C1096 1.356 . S
N1094 H1106 0.984 . S
N1094 H1107 0.985 . S
N1095 C1097 1.356 . S
N1095 H1100 0.984 . S
N1095 H1101 0.985 . S
C1096 C1090 1.379 . S
C1096 C1093 1.363 . S
C1096 N1094 1.356 . S
C1097 C1091 1.363 . S
C1097 C1092 1.379 . S
C1097 N1095 1.356 . S
N1098 C1090 1.356 . S
N1098 H1104 0.984 . S
N1098 H1105 0.984 . S
N1099 C1092 1.356 . S
N1099 H1102 0.984 . S
N1099 H1103 0.985 . S
H1100 N1095 0.984 . S
H1101 N1095 0.985 . S
H1102 N1099 0.984 . S
H1103 N1099 0.985 . S
H1104 N1098 0.984 . S
H1105 N1098 0.984 . S
H1106 N1094 0.984 . S
H1107 N1094 0.985 . S
C1108 C1109 1.363 . S
C1108 C1114 1.379 1_565 S
C1108 N1116 1.356 . S
C1109 C1108 1.363 . S
C1109 C1115 1.363 1_565 S
C1110 C1111 1.363 . S
C1110 C1115 1.379 . S
C1110 N1117 1.356 . S
C1111 C1110 1.363 . S
C1111 C1114 1.363 . S
N1112 C1114 1.356 . S
N1112 H1124 0.984 1_545 S
N1112 H1125 0.985 . S
N1113 C1115 1.356 . S
N1113 H1118 0.984 1_545 S
N1113 H1119 0.985 . S
C1114 C1108 1.379 1_545 S
C1114 C1111 1.363 . S
C1114 N1112 1.356 . S
C1115 C1109 1.363 1_545 S
C1115 C1110 1.379 . S
C1115 N1113 1.356 . S
N1116 C1108 1.356 . S
N1116 H1122 0.984 . S
N1116 H1123 0.984 . S
N1117 C1110 1.356 . S
N1117 H1120 0.984 . S
N1117 H1121 0.985 . S
H1118 N1113 0.984 1_565 S
H1119 N1113 0.985 . S
H1120 N1117 0.984 . S
H1121 N1117 0.985 . S
H1122 N1116 0.984 . S
H1123 N1116 0.984 . S
H1124 N1112 0.984 1_565 S
H1125 N1112 0.985 . S
C1126 C1127 1.363 . S
C1126 C1132 1.379 . S
C1126 N1134 1.356 1_554 S
C1127 C1126 1.363 . S
C1127 C1133 1.363 . S
C1128 C1129 1.363 . S
C1128 C1133 1.379 . S
C1128 N1135 1.356 . S
C1129 C1128 1.363 . S
C1129 C1132 1.363 . S
N1130 C1132 1.356 . S
N1130 H1142 0.984 . S
N1130 H1143 0.985 . S
N1131 C1133 1.356 . S
N1131 H1136 0.984 . S
N1131 H1137 0.985 . S
C1132 C1126 1.379 . S
C1132 C1129 1.363 . S
C1132 N1130 1.356 . S
C1133 C1127 1.363 . S
C1133 C1128 1.379 . S
C1133 N1131 1.356 . S
N1134 C1126 1.356 1_556 S
N1134 H1140 0.984 . S
N1134 H1141 0.984 . S
N1135 C1128 1.356 . S
N1135 H1138 0.984 . S
N1135 H1139 0.985 . S
H1136 N1131 0.984 . S
H1137 N1131 0.985 . S
H1138 N1135 0.984 . S
H1139 N1135 0.985 . S
H1140 N1134 0.984 . S
H1141 N1134 0.984 . S
H1142 N1130 0.984 . S
H1143 N1130 0.985 . S
C1144 C1145 1.363 . S
C1144 C1150 1.379 . S
C1144 N1152 1.356 . S
C1145 C1144 1.363 . S
C1145 C1151 1.363 . S
C1146 C1147 1.363 . S
C1146 C1151 1.379 . S
C1146 N1153 1.356 . S
C1147 C1146 1.363 . S
C1147 C1150 1.363 . S
N1148 C1150 1.356 . S
N1148 H1160 0.984 . S
N1148 H1161 0.985 . S
N1149 C1151 1.356 . S
N1149 H1154 0.984 . S
N1149 H1155 0.985 . S
C1150 C1144 1.379 . S
C1150 C1147 1.363 . S
C1150 N1148 1.356 . S
C1151 C1145 1.363 . S
C1151 C1146 1.379 . S
C1151 N1149 1.356 . S
N1152 C1144 1.356 . S
N1152 H1158 0.984 . S
N1152 H1159 0.984 . S
N1153 C1146 1.356 . S
N1153 H1156 0.984 . S
N1153 H1157 0.985 . S
H1154 N1149 0.984 . S
H1155 N1149 0.985 . S
H1156 N1153 0.984 . S
H1157 N1153 0.985 . S
H1158 N1152 0.984 . S
H1159 N1152 0.984 . S
H1160 N1148 0.984 . S
H1161 N1148 0.985 . S
C1162 C1163 1.363 . S
C1162 C1168 1.379 . S
C1162 N1170 1.356 . S
C1163 C1162 1.363 . S
C1163 C1169 1.363 . S
C1164 C1165 1.363 . S
C1164 C1169 1.379 . S
C1164 N1171 1.356 . S
C1165 C1164 1.363 . S
C1165 C1168 1.363 . S
N1166 C1168 1.356 . S
N1166 H1178 0.984 . S
N1166 H1179 0.985 . S
N1167 C1169 1.356 . S
N1167 H1172 0.984 . S
N1167 H1173 0.985 . S
C1168 C1162 1.379 . S
C1168 C1165 1.363 . S
C1168 N1166 1.356 . S
C1169 C1163 1.363 . S
C1169 C1164 1.379 . S
C1169 N1167 1.356 . S
N1170 C1162 1.356 . S
N1170 H1176 0.984 . S
N1170 H1177 0.984 . S
N1171 C1164 1.356 . S
N1171 H1174 0.984 . S
N1171 H1175 0.985 . S
H1172 N1167 0.984 . S
H1173 N1167 0.985 . S
H1174 N1171 0.984 . S
H1175 N1171 0.985 . S
H1176 N1170 0.984 . S
H1177 N1170 0.984 . S
H1178 N1166 0.984 . S
H1179 N1166 0.985 . S
C1180 C1181 1.363 . S
C1180 C1186 1.379 . S
C1180 N1188 1.356 . S
C1181 C1180 1.363 . S
C1181 C1187 1.363 . S
C1182 C1183 1.363 . S
C1182 C1187 1.379 . S
C1182 N1189 1.356 . S
C1183 C1182 1.363 . S
C1183 C1186 1.363 . S
N1184 C1186 1.356 . S
N1184 H1196 0.984 . S
N1184 H1197 0.985 . S
N1185 C1187 1.356 . S
N1185 H1190 0.984 . S
N1185 H1191 0.985 . S
C1186 C1180 1.379 . S
C1186 C1183 1.363 . S
C1186 N1184 1.356 . S
C1187 C1181 1.363 . S
C1187 C1182 1.379 . S
C1187 N1185 1.356 . S
N1188 C1180 1.356 . S
N1188 H1194 0.984 . S
N1188 H1195 0.984 . S
N1189 C1182 1.356 . S
N1189 H1192 0.984 . S
N1189 H1193 0.985 . S
H1190 N1185 0.984 . S
H1191 N1185 0.985 . S
H1192 N1189 0.984 . S
H1193 N1189 0.985 . S
H1194 N1188 0.984 . S
H1195 N1188 0.984 . S
H1196 N1184 0.984 . S
H1197 N1184 0.985 . S
C1198 C1199 1.363 . S
C1198 C1204 1.379 . S
C1198 N1206 1.356 . S
C1199 C1198 1.363 . S
C1199 C1205 1.363 . S
C1200 C1201 1.363 . S
C1200 C1205 1.379 . S
C1200 N1207 1.356 . S
C1201 C1200 1.363 . S
C1201 C1204 1.363 . S
N1202 C1204 1.356 . S
N1202 H1214 0.984 . S
N1202 H1215 0.985 . S
N1203 C1205 1.356 . S
N1203 H1208 0.984 . S
N1203 H1209 0.985 . S
C1204 C1198 1.379 . S
C1204 C1201 1.363 . S
C1204 N1202 1.356 . S
C1205 C1199 1.363 . S
C1205 C1200 1.379 . S
C1205 N1203 1.356 . S
N1206 C1198 1.356 . S
N1206 H1212 0.984 . S
N1206 H1213 0.984 . S
N1207 C1200 1.356 . S
N1207 H1210 0.984 . S
N1207 H1211 0.985 . S
H1208 N1203 0.984 . S
H1209 N1203 0.985 . S
H1210 N1207 0.984 . S
H1211 N1207 0.985 . S
H1212 N1206 0.984 . S
H1213 N1206 0.984 . S
H1214 N1202 0.984 . S
H1215 N1202 0.985 . S
C1216 C1217 1.363 . S
C1216 C1222 1.379 . S
C1216 N1224 1.356 . S
C1217 C1216 1.363 . S
C1217 C1223 1.363 . S
C1218 C1219 1.363 . S
C1218 C1223 1.379 . S
C1218 N1225 1.356 . S
C1219 C1218 1.363 . S
C1219 C1222 1.363 . S
N1220 C1222 1.356 . S
N1220 H1232 0.984 . S
N1220 H1233 0.985 . S
N1221 C1223 1.356 . S
N1221 H1226 0.984 . S
N1221 H1227 0.985 . S
C1222 C1216 1.379 . S
C1222 C1219 1.363 . S
C1222 N1220 1.356 . S
C1223 C1217 1.363 . S
C1223 C1218 1.379 . S
C1223 N1221 1.356 . S
N1224 C1216 1.356 . S
N1224 H1230 0.984 . S
N1224 H1231 0.984 . S
N1225 C1218 1.356 . S
N1225 H1228 0.984 . S
N1225 H1229 0.985 . S
H1226 N1221 0.984 . S
H1227 N1221 0.985 . S
H1228 N1225 0.984 . S
H1229 N1225 0.985 . S
H1230 N1224 0.984 . S
H1231 N1224 0.984 . S
H1232 N1220 0.984 . S
H1233 N1220 0.985 . S
C1234 C1235 1.363 . S
C1234 C1240 1.379 . S
C1234 N1242 1.356 . S
C1235 C1234 1.363 . S
C1235 C1241 1.363 . S
C1236 C1237 1.363 . S
C1236 C1241 1.379 . S
C1236 N1243 1.356 . S
C1237 C1236 1.363 . S
C1237 C1240 1.363 . S
N1238 C1240 1.356 . S
N1238 H1250 0.984 . S
N1238 H1251 0.985 . S
N1239 C1241 1.356 . S
N1239 H1244 0.984 . S
N1239 H1245 0.985 . S
C1240 C1234 1.379 . S
C1240 C1237 1.363 . S
C1240 N1238 1.356 . S
C1241 C1235 1.363 . S
C1241 C1236 1.379 . S
C1241 N1239 1.356 . S
N1242 C1234 1.356 . S
N1242 H1248 0.984 . S
N1242 H1249 0.984 . S
N1243 C1236 1.356 . S
N1243 H1246 0.984 . S
N1243 H1247 0.985 . S
H1244 N1239 0.984 . S
H1245 N1239 0.985 . S
H1246 N1243 0.984 . S
H1247 N1243 0.985 . S
H1248 N1242 0.984 . S
H1249 N1242 0.984 . S
H1250 N1238 0.984 . S
H1251 N1238 0.985 . S
C1252 C1253 1.363 . S
C1252 C1258 1.379 . S
C1252 N1260 1.356 . S
C1253 C1252 1.363 . S
C1253 C1259 1.363 . S
C1254 C1255 1.363 . S
C1254 C1259 1.379 . S
C1254 N1261 1.356 . S
C1255 C1254 1.363 . S
C1255 C1258 1.363 . S
N1256 C1258 1.356 . S
N1256 H1268 0.984 . S
N1256 H1269 0.985 . S
N1257 C1259 1.356 . S
N1257 H1262 0.984 . S
N1257 H1263 0.985 . S
C1258 C1252 1.379 . S
C1258 C1255 1.363 . S
C1258 N1256 1.356 . S
C1259 C1253 1.363 . S
C1259 C1254 1.379 . S
C1259 N1257 1.356 . S
N1260 C1252 1.356 . S
N1260 H1266 0.984 . S
N1260 H1267 0.984 . S
N1261 C1254 1.356 . S
N1261 H1264 0.984 . S
N1261 H1265 0.985 . S
H1262 N1257 0.984 . S
H1263 N1257 0.985 . S
H1264 N1261 0.984 . S
H1265 N1261 0.985 . S
H1266 N1260 0.984 . S
H1267 N1260 0.984 . S
H1268 N1256 0.984 . S
H1269 N1256 0.985 . S
C1270 C1271 1.363 . S
C1270 C1276 1.379 . S
C1270 N1278 1.356 . S
C1271 C1270 1.363 . S
C1271 C1277 1.363 . S
C1272 C1273 1.363 . S
C1272 C1277 1.379 . S
C1272 N1279 1.356 . S
C1273 C1272 1.363 . S
C1273 C1276 1.363 . S
N1274 C1276 1.356 . S
N1274 H1286 0.984 . S
N1274 H1287 0.985 . S
N1275 C1277 1.356 . S
N1275 H1280 0.984 . S
N1275 H1281 0.985 . S
C1276 C1270 1.379 . S
C1276 C1273 1.363 . S
C1276 N1274 1.356 . S
C1277 C1271 1.363 . S
C1277 C1272 1.379 . S
C1277 N1275 1.356 . S
N1278 C1270 1.356 . S
N1278 H1284 0.984 . S
N1278 H1285 0.984 . S
N1279 C1272 1.356 . S
N1279 H1282 0.984 . S
N1279 H1283 0.985 . S
H1280 N1275 0.984 . S
H1281 N1275 0.985 . S
H1282 N1279 0.984 . S
H1283 N1279 0.985 . S
H1284 N1278 0.984 . S
H1285 N1278 0.984 . S
H1286 N1274 0.984 . S
H1287 N1274 0.985 . S
C1288 C1289 1.363 . S
C1288 C1294 1.379 . S
C1288 N1296 1.356 1_554 S
C1289 C1288 1.363 . S
C1289 C1295 1.363 . S
C1290 C1291 1.363 . S
C1290 C1295 1.379 . S
C1290 N1297 1.356 . S
C1291 C1290 1.363 . S
C1291 C1294 1.363 . S
N1292 C1294 1.356 . S
N1292 H1304 0.984 1_554 S
N1292 H1305 0.985 . S
N1293 C1295 1.356 . S
N1293 H1298 0.984 . S
N1293 H1299 0.985 . S
C1294 C1288 1.379 . S
C1294 C1291 1.363 . S
C1294 N1292 1.356 . S
C1295 C1289 1.363 . S
C1295 C1290 1.379 . S
C1295 N1293 1.356 . S
N1296 C1288 1.356 1_556 S
N1296 H1302 0.984 . S
N1296 H1303 0.984 . S
N1297 C1290 1.356 . S
N1297 H1300 0.984 . S
N1297 H1301 0.985 . S
H1298 N1293 0.984 . S
H1299 N1293 0.985 . S
H1300 N1297 0.984 . S
H1301 N1297 0.985 . S
H1302 N1296 0.984 . S
H1303 N1296 0.984 . S
H1304 N1292 0.984 1_556 S
H1305 N1292 0.985 . S
C1306 C1307 1.363 . S
C1306 C1312 1.379 . S
C1306 N1314 1.356 . S
C1307 C1306 1.363 . S
C1307 C1313 1.363 . S
C1308 C1309 1.363 . S
C1308 C1313 1.379 . S
C1308 N1315 1.356 . S
C1309 C1308 1.363 . S
C1309 C1312 1.363 . S
N1310 C1312 1.356 . S
N1310 H1322 0.984 . S
N1310 H1323 0.985 1_554 S
N1311 C1313 1.356 . S
N1311 H1316 0.984 . S
N1311 H1317 0.985 . S
C1312 C1306 1.379 . S
C1312 C1309 1.363 . S
C1312 N1310 1.356 . S
C1313 C1307 1.363 . S
C1313 C1308 1.379 . S
C1313 N1311 1.356 . S
N1314 C1306 1.356 . S
N1314 H1320 0.984 . S
N1314 H1321 0.984 . S
N1315 C1308 1.356 . S
N1315 H1318 0.984 . S
N1315 H1319 0.985 . S
H1316 N1311 0.984 . S
H1317 N1311 0.985 . S
H1318 N1315 0.984 . S
H1319 N1315 0.985 . S
H1320 N1314 0.984 . S
H1321 N1314 0.984 . S
H1322 N1310 0.984 . S
H1323 N1310 0.985 1_556 S
C1324 C1325 1.363 . S
C1324 C1330 1.379 . S
C1324 N1332 1.356 . S
C1325 C1324 1.363 . S
C1325 C1331 1.363 . S
C1326 C1327 1.363 . S
C1326 C1331 1.379 . S
C1326 N1333 1.356 . S
C1327 C1326 1.363 . S
C1327 C1330 1.363 . S
N1328 C1330 1.356 . S
N1328 H1340 0.984 . S
N1328 H1341 0.985 . S
N1329 C1331 1.356 . S
N1329 H1334 0.984 . S
N1329 H1335 0.985 . S
C1330 C1324 1.379 . S
C1330 C1327 1.363 . S
C1330 N1328 1.356 . S
C1331 C1325 1.363 . S
C1331 C1326 1.379 . S
C1331 N1329 1.356 . S
N1332 C1324 1.356 . S
N1332 H1338 0.984 . S
N1332 H1339 0.984 . S
N1333 C1326 1.356 . S
N1333 H1336 0.984 . S
N1333 H1337 0.985 . S
H1334 N1329 0.984 . S
H1335 N1329 0.985 . S
H1336 N1333 0.984 . S
H1337 N1333 0.985 . S
H1338 N1332 0.984 . S
H1339 N1332 0.984 . S
H1340 N1328 0.984 . S
H1341 N1328 0.985 . S
C1342 C1343 1.363 . S
C1342 C1348 1.379 . S
C1342 N1350 1.356 . S
C1343 C1342 1.363 . S
C1343 C1349 1.363 . S
C1344 C1345 1.363 . S
C1344 C1349 1.379 . S
C1344 N1351 1.356 . S
C1345 C1344 1.363 . S
C1345 C1348 1.363 . S
N1346 C1348 1.356 . S
N1346 H1358 0.984 . S
N1346 H1359 0.985 . S
N1347 C1349 1.356 . S
N1347 H1352 0.984 . S
N1347 H1353 0.985 . S
C1348 C1342 1.379 . S
C1348 C1345 1.363 . S
C1348 N1346 1.356 . S
C1349 C1343 1.363 . S
C1349 C1344 1.379 . S
C1349 N1347 1.356 . S
N1350 C1342 1.356 . S
N1350 H1356 0.984 . S
N1350 H1357 0.984 . S
N1351 C1344 1.356 . S
N1351 H1354 0.984 . S
N1351 H1355 0.985 . S
H1352 N1347 0.984 . S
H1353 N1347 0.985 . S
H1354 N1351 0.984 . S
H1355 N1351 0.985 . S
H1356 N1350 0.984 . S
H1357 N1350 0.984 . S
H1358 N1346 0.984 . S
H1359 N1346 0.985 . S
C1360 C1361 1.363 . S
C1360 C1366 1.379 . S
C1360 N1368 1.356 . S
C1361 C1360 1.363 . S
C1361 C1367 1.363 . S
C1362 C1363 1.363 . S
C1362 C1367 1.379 . S
C1362 N1369 1.356 . S
C1363 C1362 1.363 . S
C1363 C1366 1.363 . S
N1364 C1366 1.356 . S
N1364 H1376 0.984 . S
N1364 H1377 0.985 . S
N1365 C1367 1.356 . S
N1365 H1370 0.984 . S
N1365 H1371 0.985 . S
C1366 C1360 1.379 . S
C1366 C1363 1.363 . S
C1366 N1364 1.356 . S
C1367 C1361 1.363 . S
C1367 C1362 1.379 . S
C1367 N1365 1.356 . S
N1368 C1360 1.356 . S
N1368 H1374 0.984 . S
N1368 H1375 0.984 . S
N1369 C1362 1.356 . S
N1369 H1372 0.984 . S
N1369 H1373 0.985 . S
H1370 N1365 0.984 . S
H1371 N1365 0.985 . S
H1372 N1369 0.984 . S
H1373 N1369 0.985 . S
H1374 N1368 0.984 . S
H1375 N1368 0.984 . S
H1376 N1364 0.984 . S
H1377 N1364 0.985 . S
C1378 C1379 1.363 . S
C1378 C1384 1.379 . S
C1378 N1386 1.356 . S
C1379 C1378 1.363 . S
C1379 C1385 1.363 . S
C1380 C1381 1.363 . S
C1380 C1385 1.379 . S
C1380 N1387 1.356 . S
C1381 C1380 1.363 . S
C1381 C1384 1.363 . S
N1382 C1384 1.356 1_554 S
N1382 H1394 0.984 . S
N1382 H1395 0.985 . S
N1383 C1385 1.356 . S
N1383 H1388 0.984 . S
N1383 H1389 0.985 . S
C1384 C1378 1.379 . S
C1384 C1381 1.363 . S
C1384 N1382 1.356 1_556 S
C1385 C1379 1.363 . S
C1385 C1380 1.379 . S
C1385 N1383 1.356 . S
N1386 C1378 1.356 . S
N1386 H1392 0.984 1_556 S
N1386 H1393 0.984 . S
N1387 C1380 1.356 . S
N1387 H1390 0.984 . S
N1387 H1391 0.985 . S
H1388 N1383 0.984 . S
H1389 N1383 0.985 . S
H1390 N1387 0.984 . S
H1391 N1387 0.985 . S
H1392 N1386 0.984 1_554 S
H1393 N1386 0.984 . S
H1394 N1382 0.984 . S
H1395 N1382 0.985 . S
C1396 C1397 1.363 . S
C1396 C1402 1.379 . S
C1396 N1404 1.356 . S
C1397 C1396 1.363 . S
C1397 C1403 1.363 . S
C1398 C1399 1.363 . S
C1398 C1403 1.379 . S
C1398 N1405 1.356 . S
C1399 C1398 1.363 . S
C1399 C1402 1.363 . S
N1400 C1402 1.356 . S
N1400 H1412 0.984 . S
N1400 H1413 0.985 . S
N1401 C1403 1.356 . S
N1401 H1406 0.984 1_556 S
N1401 H1407 0.985 . S
C1402 C1396 1.379 . S
C1402 C1399 1.363 . S
C1402 N1400 1.356 . S
C1403 C1397 1.363 . S
C1403 C1398 1.379 . S
C1403 N1401 1.356 . S
N1404 C1396 1.356 . S
N1404 H1410 0.984 . S
N1404 H1411 0.984 . S
N1405 C1398 1.356 . S
N1405 H1408 0.984 . S
N1405 H1409 0.985 . S
H1406 N1401 0.984 1_554 S
H1407 N1401 0.985 . S
H1408 N1405 0.984 . S
H1409 N1405 0.985 . S
H1410 N1404 0.984 . S
H1411 N1404 0.984 . S
H1412 N1400 0.984 . S
H1413 N1400 0.985 . S
C1414 C1415 1.363 . S
C1414 C1420 1.379 . S
C1414 N1422 1.356 . S
C1415 C1414 1.363 . S
C1415 C1421 1.363 . S
C1416 C1417 1.363 . S
C1416 C1421 1.379 . S
C1416 N1423 1.356 . S
C1417 C1416 1.363 . S
C1417 C1420 1.363 . S
N1418 C1420 1.356 . S
N1418 H1430 0.984 . S
N1418 H1431 0.985 . S
N1419 C1421 1.356 . S
N1419 H1424 0.984 . S
N1419 H1425 0.985 . S
C1420 C1414 1.379 . S
C1420 C1417 1.363 . S
C1420 N1418 1.356 . S
C1421 C1415 1.363 . S
C1421 C1416 1.379 . S
C1421 N1419 1.356 . S
N1422 C1414 1.356 . S
N1422 H1428 0.984 . S
N1422 H1429 0.984 . S
N1423 C1416 1.356 . S
N1423 H1426 0.984 . S
N1423 H1427 0.985 . S
H1424 N1419 0.984 . S
H1425 N1419 0.985 . S
H1426 N1423 0.984 . S
H1427 N1423 0.985 . S
H1428 N1422 0.984 . S
H1429 N1422 0.984 . S
H1430 N1418 0.984 . S
H1431 N1418 0.985 . S
C1432 C1433 1.363 . S
C1432 C1438 1.379 . S
C1432 N1440 1.356 . S
C1433 C1432 1.363 . S
C1433 C1439 1.363 . S
C1434 C1435 1.363 . S
C1434 C1439 1.379 . S
C1434 N1441 1.356 . S
C1435 C1434 1.363 . S
C1435 C1438 1.363 . S
N1436 C1438 1.356 . S
N1436 H1448 0.984 . S
N1436 H1449 0.985 . S
N1437 C1439 1.356 . S
N1437 H1442 0.984 . S
N1437 H1443 0.985 . S
C1438 C1432 1.379 . S
C1438 C1435 1.363 . S
C1438 N1436 1.356 . S
C1439 C1433 1.363 . S
C1439 C1434 1.379 . S
C1439 N1437 1.356 . S
N1440 C1432 1.356 . S
N1440 H1446 0.984 . S
N1440 H1447 0.984 . S
N1441 C1434 1.356 . S
N1441 H1444 0.984 . S
N1441 H1445 0.985 . S
H1442 N1437 0.984 . S
H1443 N1437 0.985 . S
H1444 N1441 0.984 . S
H1445 N1441 0.985 . S
H1446 N1440 0.984 . S
H1447 N1440 0.984 . S
H1448 N1436 0.984 . S
H1449 N1436 0.985 . S
C1450 C1451 1.363 . S
C1450 C1456 1.379 . S
C1450 N1458 1.356 1_556 S
C1451 C1450 1.363 . S
C1451 C1457 1.363 . S
C1452 C1453 1.363 . S
C1452 C1457 1.379 . S
C1452 N1459 1.356 . S
C1453 C1452 1.363 . S
C1453 C1456 1.363 . S
N1454 C1456 1.356 1_554 S
N1454 H1466 0.984 . S
N1454 H1467 0.985 1_554 S
N1455 C1457 1.356 . S
N1455 H1460 0.984 . S
N1455 H1461 0.985 . S
C1456 C1450 1.379 . S
C1456 C1453 1.363 . S
C1456 N1454 1.356 1_556 S
C1457 C1451 1.363 . S
C1457 C1452 1.379 . S
C1457 N1455 1.356 . S
N1458 C1450 1.356 1_554 S
N1458 H1464 0.984 . S
N1458 H1465 0.984 . S
N1459 C1452 1.356 . S
N1459 H1462 0.984 . S
N1459 H1463 0.985 . S
H1460 N1455 0.984 . S
H1461 N1455 0.985 . S
H1462 N1459 0.984 . S
H1463 N1459 0.985 . S
H1464 N1458 0.984 . S
H1465 N1458 0.984 . S
H1466 N1454 0.984 . S
H1467 N1454 0.985 1_556 S
C1468 C1469 1.363 . S
C1468 C1474 1.379 . S
C1468 N1476 1.356 . S
C1469 C1468 1.363 . S
C1469 C1475 1.363 . S
C1470 C1471 1.363 . S
C1470 C1475 1.379 . S
C1470 N1477 1.356 . S
C1471 C1470 1.363 . S
C1471 C1474 1.363 . S
N1472 C1474 1.356 . S
N1472 H1484 0.984 . S
N1472 H1485 0.985 . S
N1473 C1475 1.356 . S
N1473 H1478 0.984 . S
N1473 H1479 0.985 . S
C1474 C1468 1.379 . S
C1474 C1471 1.363 . S
C1474 N1472 1.356 . S
C1475 C1469 1.363 . S
C1475 C1470 1.379 . S
C1475 N1473 1.356 . S
N1476 C1468 1.356 . S
N1476 H1482 0.984 . S
N1476 H1483 0.984 . S
N1477 C1470 1.356 . S
N1477 H1480 0.984 . S
N1477 H1481 0.985 . S
H1478 N1473 0.984 . S
H1479 N1473 0.985 . S
H1480 N1477 0.984 . S
H1481 N1477 0.985 . S
H1482 N1476 0.984 . S
H1483 N1476 0.984 . S
H1484 N1472 0.984 . S
H1485 N1472 0.985 . S
C1486 C1487 1.363 . S
C1486 C1492 1.379 . S
C1486 N1494 1.356 . S
C1487 C1486 1.363 . S
C1487 C1493 1.363 . S
C1488 C1489 1.363 . S
C1488 C1493 1.379 . S
C1488 N1495 1.356 1_554 S
C1489 C1488 1.363 . S
C1489 C1492 1.363 . S
N1490 C1492 1.356 . S
N1490 H1502 0.984 . S
N1490 H1503 0.985 . S
N1491 C1493 1.356 1_556 S
N1491 H1496 0.984 1_556 S
N1491 H1497 0.985 . S
C1492 C1486 1.379 . S
C1492 C1489 1.363 . S
C1492 N1490 1.356 . S
C1493 C1487 1.363 . S
C1493 C1488 1.379 . S
C1493 N1491 1.356 1_554 S
N1494 C1486 1.356 . S
N1494 H1500 0.984 . S
N1494 H1501 0.984 . S
N1495 C1488 1.356 1_556 S
N1495 H1498 0.984 . S
N1495 H1499 0.985 . S
H1496 N1491 0.984 1_554 S
H1497 N1491 0.985 . S
H1498 N1495 0.984 . S
H1499 N1495 0.985 . S
H1500 N1494 0.984 . S
H1501 N1494 0.984 . S
H1502 N1490 0.984 . S
H1503 N1490 0.985 . S
C641 C20 1.511 . S
C643 C44 1.492 . S
C659 C100 2.078 . S
C661 C71 2.043 . S
C677 C151 2.317 . S
C679 C82 2.373 . S
C695 C2 1.734 . S
C697 C124 1.662 . S
C713 C23 1.734 . S
C715 C385 1.662 . S
C731 C311 1.511 . S
C733 C65 1.492 . S
C749 C111 2.078 . S
C751 C420 2.043 . S
C767 C140 2.317 . S
C769 C543 2.373 . S
C785 C351 2.078 . S
C787 C60 2.043 . S
C803 C500 2.317 . S
C805 C103 2.373 . S
C821 C583 1.734 . S
C823 C145 1.662 . S
C839 C31 1.512 . S
C841 C465 1.492 . S
C857 C4 0.750 . S
C859 C345 0.520 . S
C875 C482 1.882 . S
C877 C183 1.891 . S
C893 C204 0.520 . S
C895 C585 0.750 . S
C911 C463 1.891 . S
C913 C242 1.882 . S
C929 C84 0.521 . S
C931 C305 0.750 . S
C947 C383 1.882 . S
C949 C162 1.890 . S
C965 C263 1.882 . S
C967 C402 1.891 . S
C983 C231 2.078 . S
C985 C460 2.043 . S
C1001 C380 2.317 . S
C1003 C223 2.373 . S
C1019 C444 1.492 . S
C1021 C300 1.512 . S
C1037 C220 2.078 . S
C1039 C191 2.043 . S
C1055 C391 2.317 . S
C1057 C322 2.373 . S
C1073 C540 2.078 . S
C1075 C471 2.043 . S
C1091 C271 2.317 . S
C1093 C202 2.373 . S
C1109 C364 1.662 . S
C1111 C562 1.734 . S
C1127 C524 0.521 . S
C1129 C25 0.750 . S
C1145 C105 0.521 . S
C1147 C564 0.750 . S
C1163 C503 1.882 . S
C1165 C42 1.890 . S
C1181 C284 0.750 . S
C1183 C225 0.520 . S
C1199 C122 1.882 . S
C1201 C423 1.891 . S
C1217 C511 2.317 . S
C1219 C522 2.373 . S
C1235 C282 1.734 . S
C1237 C484 1.662 . S
C1253 C265 1.662 . S
C1255 C303 1.734 . S
C1271 C180 2.043 . S
C1273 C551 2.078 . S
C1289 C505 1.662 . S
C1291 C623 1.734 . S
C1307 C625 0.750 . S
C1309 C324 0.521 . S
C1325 C63 1.891 . S
C1327 C362 1.882 . S
C1343 C343 2.373 . S
C1345 C260 2.317 . S
C1361 C340 2.078 . S
C1363 C431 2.043 . S
C1379 C602 1.734 . S
C1381 C244 1.662 . S
C1397 C545 0.520 . S
C1399 C604 0.750 . S
C1415 C442 1.890 . S
C1417 C143 1.882 . S
C1433 C404 1.492 . S
C1435 C580 1.511 . S
C1451 C425 1.492 . S
C1453 C631 1.511 . S
C1469 C185 1.492 . S
C1471 C591 1.512 . S
C1487 C620 1.512 . S
C1489 C164 1.492 . S
