# Generated by pormake.
# Topology ooa, (5)-cn, num edge types: 1
# Building blocks:
#     Node 0, Type 0, BuildingBlock: BEQFEK_clean_sbu_0, # of connection points: 5
#     Node 1, Type 0, BuildingBlock: BEQFEK_clean_sbu_0, # of connection points: 5
#     Node 2, Type 0, BuildingBlock: BEQFEK_clean_sbu_0, # of connection points: 5
#     Node 3, Type 0, BuildingBlock: BEQFEK_clean_sbu_0, # of connection points: 5
#     Node 4, Type 0, BuildingBlock: BEQFEK_clean_sbu_0, # of connection points: 5
#     Node 5, Type 0, BuildingBlock: BEQFEK_clean_sbu_0, # of connection points: 5
#     Node 6, Type 0, BuildingBlock: BEQFEK_clean_sbu_0, # of connection points: 5
#     Node 7, Type 0, BuildingBlock: BEQFEK_clean_sbu_0, # of connection points: 5
#     Edge 8, Type (0, 0), BuildingBlock: KIFKEQ_clean_linker_1, # of connection points: 2
#     Edge 9, Type (0, 0), BuildingBlock: KIFKEQ_clean_linker_1, # of connection points: 2
#     Edge 10, Type (0, 0), BuildingBlock: KIFKEQ_clean_linker_1, # of connection points: 2
#     Edge 11, Type (0, 0), BuildingBlock: KIFKEQ_clean_linker_1, # of connection points: 2
#     Edge 12, Type (0, 0), BuildingBlock: KIFKEQ_clean_linker_1, # of connection points: 2
#     Edge 13, Type (0, 0), BuildingBlock: KIFKEQ_clean_linker_1, # of connection points: 2
#     Edge 14, Type (0, 0), BuildingBlock: KIFKEQ_clean_linker_1, # of connection points: 2
#     Edge 15, Type (0, 0), BuildingBlock: KIFKEQ_clean_linker_1, # of connection points: 2
#     Edge 16, Type (0, 0), BuildingBlock: KIFKEQ_clean_linker_1, # of connection points: 2
#     Edge 17, Type (0, 0), BuildingBlock: KIFKEQ_clean_linker_1, # of connection points: 2
#     Edge 18, Type (0, 0), BuildingBlock: KIFKEQ_clean_linker_1, # of connection points: 2
#     Edge 19, Type (0, 0), BuildingBlock: KIFKEQ_clean_linker_1, # of connection points: 2
#     Edge 20, Type (0, 0), BuildingBlock: KIFKEQ_clean_linker_1, # of connection points: 2
#     Edge 21, Type (0, 0), BuildingBlock: KIFKEQ_clean_linker_1, # of connection points: 2
#     Edge 22, Type (0, 0), BuildingBlock: KIFKEQ_clean_linker_1, # of connection points: 2
#     Edge 23, Type (0, 0), BuildingBlock: KIFKEQ_clean_linker_1, # of connection points: 2
#     Edge 24, Type (0, 0), BuildingBlock: KIFKEQ_clean_linker_1, # of connection points: 2
#     Edge 25, Type (0, 0), BuildingBlock: KIFKEQ_clean_linker_1, # of connection points: 2
#     Edge 26, Type (0, 0), BuildingBlock: KIFKEQ_clean_linker_1, # of connection points: 2
#     Edge 27, Type (0, 0), BuildingBlock: KIFKEQ_clean_linker_1, # of connection points: 2
# Relax obj value: 0.505
# Max RMSD: 0.273
# Mean RMSD: 0.273
data_MOF--net-ooa--node1-BEQFEK_clean_sbu_0--edge1-KIFKEQ_clean_linker_1
_symmetry_space_group_name_H-M    P1
_symmetry_Int_Tables_number       1
_symmetry_cell_setting            triclinic
loop_
_symmetry_equiv_pos_as_xyz
'x, y, z'
_cell_length_a     27.916805
_cell_length_b     47.513954
_cell_length_c     48.74161
_cell_angle_alpha  89.95694
_cell_angle_beta   89.949042
_cell_angle_gamma 89.984233
loop_
_atom_site_label
_atom_site_type_symbol
_atom_site_fract_x
_atom_site_fract_y
_atom_site_fract_z
_atom_type_partial_charge
Co0 Co 0.17014 0.12384 0.04909 0.0
Co1 Co 0.198 0.16451 0.09694 0.0
C2 C 0.20477 0.10324 0.10491 0.0
O3 O 0.19091 0.10081 0.08029 0.0
O4 O 0.21034 0.12736 0.11579 0.0
C5 C 0.10373 0.084 0.04056 0.0
O6 O 0.09695 0.09233 0.06597 0.0
C7 C 0.1987 0.19392 0.15015 0.0
C8 C 0.22103 0.2368 0.13817 0.0
C9 C 0.20797 0.22059 0.16062 0.0
N10 N 0.20632 0.19438 0.12289 0.0
N11 N 0.21974 0.22007 0.11589 0.0
C12 C 0.17925 0.16895 0.1652 0.0
H13 H 0.1572 0.15584 0.15125 0.0
H14 H 0.15726 0.17564 0.18303 0.0
H15 H 0.20954 0.15594 0.17272 0.0
C16 C 0.08313 0.15797 0.04944 0.0
N17 N 0.12627 0.15152 0.05982 0.0
N18 N 0.13445 0.16686 0.08177 0.0
C19 C 0.09501 0.18271 0.08674 0.0
C20 C 0.06147 0.17751 0.06624 0.0
C21 C 0.06256 0.14583 0.02365 0.0
H22 H 0.09147 0.13862 0.00974 0.0
H23 H 0.03887 0.12788 0.02893 0.0
H24 H 0.04037 0.16172 0.01283 0.0
O25 O 0.2249 0.14218 0.03162 0.0
O26 O 0.24654 0.17017 0.06622 0.0
H27 H 0.11617 0.21955 0.10862 0.0
H28 H 0.05297 0.21152 0.11118 0.0
C29 C 0.08953 0.20234 0.11047 0.0
H30 H 0.09689 0.19089 0.12983 0.0
H31 H 0.22749 0.22627 0.09582 0.0
O32 O 0.13646 0.09572 0.02637 0.0
C33 C 0.25256 0.16078 0.04181 0.0
Co34 Co 0.32956 0.89133 0.04618 0.0
Co35 Co 0.30405 0.84939 0.0939 0.0
C36 C 0.29738 0.91102 0.10245 0.0
O37 O 0.31101 0.91403 0.07784 0.0
O38 O 0.29136 0.88664 0.11279 0.0
C39 C 0.35163 0.9446 0.02375 0.0
O40 O 0.31423 0.95253 0.03816 0.0
C41 C 0.30652 0.82056 0.14752 0.0
C42 C 0.28276 0.77769 0.1366 0.0
C43 C 0.29711 0.79413 0.1586 0.0
N44 N 0.29772 0.81974 0.12038 0.0
N45 N 0.28351 0.79404 0.11402 0.0
C46 C 0.32689 0.84568 0.16185 0.0
H47 H 0.3485 0.85845 0.14733 0.0
H48 H 0.34953 0.83919 0.17946 0.0
H49 H 0.29708 0.85896 0.16958 0.0
C50 C 0.42039 0.86142 0.04791 0.0
N51 N 0.37571 0.86535 0.0573 0.0
N52 N 0.36723 0.84805 0.07785 0.0
C53 C 0.40715 0.83243 0.08214 0.0
C54 C 0.44199 0.84059 0.06328 0.0
C55 C 0.44202 0.87744 0.02448 0.0
H56 H 0.44904 0.8994 0.03108 0.0
H57 H 0.47615 0.86787 0.01745 0.0
H58 H 0.41647 0.87799 0.00708 0.0
O59 O 0.27482 0.87152 0.02989 0.0
O60 O 0.25457 0.84278 0.06415 0.0
H61 H 0.38446 0.79402 0.10083 0.0
H62 H 0.44816 0.80071 0.10358 0.0
C63 C 0.41206 0.8105 0.10394 0.0
H64 H 0.40568 0.82021 0.1243 0.0
H65 H 0.27455 0.78761 0.09421 0.0
O66 O 0.36024 0.9185 0.02094 0.0
C67 C 0.24796 0.8524 0.0399 0.0
Co68 Co 0.16245 0.38406 0.47077 0.0
Co69 Co 0.19364 0.34562 0.42163 0.0
C70 C 0.19174 0.40783 0.41548 0.0
O71 O 0.17779 0.40936 0.44022 0.0
O72 O 0.20077 0.38411 0.40438 0.0
C73 C 0.1362 0.43428 0.49902 0.0
O74 O 0.17368 0.44489 0.4864 0.0
C75 C 0.1954 0.31806 0.36733 0.0
C76 C 0.22341 0.27593 0.37784 0.0
C77 C 0.20729 0.29209 0.35603 0.0
N78 N 0.20434 0.31721 0.39444 0.0
N79 N 0.22122 0.29199 0.40055 0.0
C80 C 0.17236 0.34254 0.35323 0.0
H81 H 0.14992 0.35456 0.36793 0.0
H82 H 0.14999 0.33539 0.33576 0.0
H83 H 0.2007 0.35677 0.34531 0.0
C84 C 0.07662 0.34935 0.46796 0.0
N85 N 0.1204 0.35608 0.45873 0.0
N86 N 0.13098 0.34049 0.43726 0.0
C87 C 0.09313 0.3235 0.43194 0.0
C88 C 0.05771 0.32864 0.45139 0.0
C89 C 0.05228 0.36347 0.49161 0.0
H90 H 0.07754 0.36536 0.50905 0.0
H91 H 0.04109 0.38485 0.48512 0.0
H92 H 0.02009 0.35172 0.49848 0.0
O93 O 0.2198 0.36661 0.48641 0.0
O94 O 0.24366 0.34016 0.45126 0.0
H95 H 0.11986 0.28763 0.41044 0.0
H96 H 0.05557 0.2921 0.40818 0.0
C97 C 0.09051 0.30324 0.40856 0.0
H98 H 0.09562 0.31477 0.38898 0.0
H99 H 0.23065 0.28562 0.42031 0.0
O100 O 0.12833 0.408 0.49742 0.0
C101 C 0.24907 0.34916 0.47579 0.0
Co102 Co 0.3295 0.61297 0.45793 0.0
Co103 Co 0.3029 0.65885 0.41381 0.0
C104 C 0.28726 0.59812 0.40264 0.0
O105 O 0.30277 0.59305 0.4265 0.0
O106 O 0.28436 0.6232 0.39361 0.0
C107 C 0.38908 0.56838 0.46222 0.0
O108 O 0.39064 0.57548 0.43619 0.0
C109 C 0.30827 0.69242 0.36255 0.0
C110 C 0.27169 0.73161 0.37491 0.0
C111 C 0.29372 0.71864 0.35276 0.0
N112 N 0.29552 0.69022 0.38915 0.0
N113 N 0.27392 0.71382 0.39639 0.0
C114 C 0.33119 0.66914 0.34653 0.0
H115 H 0.3295 0.64899 0.35784 0.0
H116 H 0.36949 0.67411 0.34303 0.0
H117 H 0.31355 0.66691 0.32624 0.0
C118 C 0.42025 0.64338 0.45737 0.0
N119 N 0.37598 0.63936 0.44734 0.0
N120 N 0.36729 0.65797 0.42794 0.0
C121 C 0.40683 0.67427 0.42486 0.0
C122 C 0.44158 0.66518 0.4433 0.0
C123 C 0.44099 0.62802 0.48147 0.0
H124 H 0.41238 0.6222 0.49618 0.0
H125 H 0.4593 0.60872 0.47417 0.0
H126 H 0.46795 0.64114 0.49224 0.0
O127 O 0.27724 0.63219 0.47752 0.0
O128 O 0.25753 0.66419 0.44591 0.0
H129 H 0.3798 0.71294 0.40858 0.0
H130 H 0.4446 0.7104 0.40882 0.0
C131 C 0.41073 0.69862 0.40559 0.0
H132 H 0.40969 0.69077 0.38421 0.0
H133 H 0.26004 0.71763 0.41592 0.0
O134 O 0.3625 0.58252 0.47842 0.0
C135 C 0.25129 0.65273 0.46946 0.0
Co136 Co 0.83191 0.88658 0.96047 0.0
Co137 Co 0.80432 0.84297 0.91476 0.0
C138 C 0.79249 0.90411 0.90512 0.0
O139 O 0.80744 0.90802 0.92931 0.0
O140 O 0.7884 0.87943 0.89529 0.0
C141 C 0.89228 0.93041 0.96707 0.0
O142 O 0.89721 0.92333 0.94118 0.0
C143 C 0.80918 0.81077 0.86265 0.0
C144 C 0.77142 0.77164 0.87404 0.0
C145 C 0.794 0.78495 0.85225 0.0
N146 N 0.79624 0.81243 0.88926 0.0
N147 N 0.77394 0.78886 0.89591 0.0
C148 C 0.83296 0.83419 0.84722 0.0
H149 H 0.83181 0.85407 0.85895 0.0
H150 H 0.87114 0.82888 0.84372 0.0
H151 H 0.81558 0.83711 0.82694 0.0
C152 C 0.92141 0.85511 0.95977 0.0
N153 N 0.8775 0.85999 0.94963 0.0
N154 N 0.86855 0.84229 0.92951 0.0
C155 C 0.90781 0.82585 0.92594 0.0
C156 C 0.94242 0.83373 0.94498 0.0
C157 C 0.94245 0.86969 0.98421 0.0
H158 H 0.91389 0.87554 0.99895 0.0
H159 H 0.96143 0.88895 0.97734 0.0
H160 H 0.96888 0.85603 0.99479 0.0
O161 O 0.77902 0.86741 0.97919 0.0
O162 O 0.75702 0.83763 0.94611 0.0
H163 H 0.8804 0.78842 0.90732 0.0
H164 H 0.94524 0.79038 0.90835 0.0
C165 C 0.91175 0.80262 0.90542 0.0
H166 H 0.91156 0.81172 0.88449 0.0
H167 H 0.7598 0.78469 0.91532 0.0
O168 O 0.86412 0.91611 0.98221 0.0
C169 C 0.75162 0.84803 0.97017 0.0
Co170 Co 0.66657 0.11888 0.97059 0.0
Co171 Co 0.69751 0.15789 0.92148 0.0
C172 C 0.69806 0.09538 0.91582 0.0
O173 O 0.68329 0.0936 0.94039 0.0
O174 O 0.70675 0.11922 0.90486 0.0
C175 C 0.63992 0.06834 0.99854 0.0
O176 O 0.67696 0.05757 0.98562 0.0
C177 C 0.69639 0.18735 0.86734 0.0
C178 C 0.73419 0.22668 0.87797 0.0
C179 C 0.7122 0.21283 0.85638 0.0
N180 N 0.70827 0.18647 0.89415 0.0
N181 N 0.73076 0.21011 0.90028 0.0
C182 C 0.67267 0.16368 0.85233 0.0
H183 H 0.67596 0.14371 0.86381 0.0
H184 H 0.634 0.16836 0.84991 0.0
H185 H 0.68859 0.16121 0.83159 0.0
C186 C 0.57958 0.15255 0.96702 0.0
N187 N 0.62371 0.14629 0.958 0.0
N188 N 0.63446 0.16241 0.93689 0.0
C189 C 0.59659 0.17951 0.93184 0.0
C190 C 0.56077 0.17362 0.95084 0.0
C191 C 0.55515 0.13799 0.9904 0.0
H192 H 0.54561 0.11636 0.98387 0.0
H193 H 0.52199 0.14906 0.99681 0.0
H194 H 0.57982 0.1367 0.00817 0.0
O195 O 0.72325 0.13714 0.9865 0.0
O196 O 0.74652 0.16396 0.95145 0.0
H197 H 0.62643 0.2148 0.91062 0.0
H198 H 0.56151 0.21385 0.91084 0.0
C199 C 0.59456 0.20093 0.90942 0.0
H200 H 0.59531 0.19006 0.88933 0.0
H201 H 0.74395 0.21491 0.91975 0.0
O202 O 0.63262 0.0947 0.99724 0.0
C203 C 0.75198 0.15499 0.976 0.0
Co204 Co 0.83084 0.61396 0.54629 0.0
Co205 Co 0.8052 0.65706 0.59282 0.0
C206 C 0.80021 0.59545 0.60301 0.0
O207 O 0.81368 0.59177 0.57846 0.0
O208 O 0.79363 0.6201 0.61257 0.0
C209 C 0.85126 0.56056 0.52406 0.0
O210 O 0.81374 0.55313 0.53863 0.0
C211 C 0.80839 0.68622 0.64601 0.0
C212 C 0.78239 0.72873 0.63531 0.0
C213 C 0.79803 0.71247 0.65717 0.0
N214 N 0.79883 0.68694 0.61897 0.0
N215 N 0.78333 0.71243 0.61271 0.0
C216 C 0.83023 0.66141 0.66017 0.0
H217 H 0.8526 0.64923 0.64556 0.0
H218 H 0.85246 0.66818 0.67784 0.0
H219 H 0.80123 0.64746 0.66778 0.0
C220 C 0.92058 0.64502 0.54604 0.0
N221 N 0.87673 0.6405 0.5564 0.0
N222 N 0.86796 0.65861 0.5762 0.0
C223 C 0.90677 0.67549 0.57895 0.0
C224 C 0.94109 0.66746 0.5597 0.0
C225 C 0.94285 0.62736 0.52397 0.0
H226 H 0.91961 0.62767 0.50552 0.0
H227 H 0.94547 0.60529 0.53126 0.0
H228 H 0.97927 0.63463 0.51834 0.0
O229 O 0.77521 0.63302 0.53004 0.0
O230 O 0.75482 0.66274 0.56342 0.0
H231 H 0.88137 0.71481 0.59436 0.0
H232 H 0.94552 0.71001 0.59743 0.0
C233 C 0.91019 0.69938 0.59877 0.0
H234 H 0.90462 0.69137 0.61991 0.0
H235 H 0.77346 0.71871 0.59298 0.0
O236 O 0.86074 0.58654 0.52113 0.0
C237 C 0.74808 0.65226 0.53955 0.0
Co238 Co 0.67187 0.3851 0.55006 0.0
Co239 Co 0.69707 0.34328 0.59775 0.0
C240 C 0.70468 0.40508 0.60589 0.0
O241 O 0.6908 0.40823 0.58133 0.0
O242 O 0.71045 0.38065 0.61622 0.0
C243 C 0.6492 0.43773 0.52514 0.0
O244 O 0.68263 0.44747 0.54152 0.0
C245 C 0.69503 0.31436 0.65134 0.0
C246 C 0.71768 0.27137 0.63999 0.0
C247 C 0.70408 0.28777 0.66218 0.0
N248 N 0.70328 0.31363 0.62414 0.0
N249 N 0.71683 0.28786 0.61752 0.0
C250 C 0.6755 0.33955 0.66595 0.0
H251 H 0.65395 0.3526 0.65165 0.0
H252 H 0.65301 0.33313 0.68367 0.0
H253 H 0.70574 0.35253 0.67355 0.0
C254 C 0.58073 0.35555 0.55209 0.0
N255 N 0.62541 0.35944 0.56143 0.0
N256 N 0.63383 0.34217 0.58199 0.0
C257 C 0.59383 0.32666 0.58641 0.0
C258 C 0.5591 0.33478 0.56753 0.0
C259 C 0.55903 0.37163 0.52876 0.0
H260 H 0.55359 0.39382 0.53512 0.0
H261 H 0.52408 0.3627 0.52235 0.0
H262 H 0.58388 0.37138 0.51099 0.0
O263 O 0.7261 0.36488 0.53381 0.0
O264 O 0.74612 0.33606 0.56798 0.0
H265 H 0.61599 0.28804 0.6049 0.0
H266 H 0.55253 0.29527 0.60815 0.0
C267 C 0.58887 0.30476 0.60824 0.0
H268 H 0.59591 0.31439 0.62856 0.0
H269 H 0.72525 0.2815 0.5976 0.0
O270 O 0.64224 0.41135 0.52371 0.0
C271 C 0.75262 0.34558 0.54371 0.0
H272 H 0.01907 0.06598 0.06135 0.0
H273 H 0.11696 0.05311 0.99378 0.0
H274 H 0.96696 0.02946 0.04351 0.0
H275 H 0.06541 0.01566 0.97631 0.0
H276 H 0.93849 0.97074 0.93801 0.0
H277 H 0.98893 0.00836 0.95537 0.0
H278 H 0.96383 0.97947 0.0383 0.0
H279 H 0.91187 0.94224 0.02084 0.0
C280 C 0.02962 0.05517 0.04274 0.0
C281 C 0.07215 0.06229 0.02896 0.0
C282 C 0.99985 0.03411 0.03262 0.0
C283 C 0.01217 0.01949 0.00863 0.0
C284 C 0.05462 0.02677 0.99469 0.0
C285 C 0.08424 0.04811 1.00471 0.0
C286 C 0.94365 0.97246 0.95997 0.0
C287 C 0.9213 0.9536 0.97812 0.0
C288 C 0.97283 0.99391 0.96989 0.0
C289 C 0.98066 0.99682 0.99818 0.0
C290 C 0.95802 0.97801 0.01638 0.0
C291 C 0.92837 0.95666 1.00644 0.0
H292 H 0.55436 0.08386 0.02117 0.0
H293 H 0.63615 0.01077 0.99699 0.0
H294 H 0.48337 0.05513 0.02573 0.0
H295 H 0.56589 0.98133 1.00394 0.0
H296 H 0.42353 0.94062 0.98597 0.0
H297 H 0.49419 0.97052 0.98233 0.0
H298 H 0.44092 0.02179 0.04911 0.0
H299 H 0.36927 0.99313 0.05125 0.0
C300 C 0.55743 0.06152 0.01731 0.0
C301 C 0.60063 0.04979 0.00792 0.0
C302 C 0.51663 0.04487 0.02022 0.0
C303 C 0.51831 0.01584 0.01465 0.0
C304 C 0.56264 0.00374 0.00745 0.0
C305 C 0.60325 0.02056 1.00392 0.0
C306 C 0.42664 0.95872 0.99937 0.0
C307 C 0.39071 0.96476 0.01861 0.0
C308 C 0.46751 0.9756 0.99767 0.0
C309 C 0.47388 0.99849 0.01568 0.0
C310 C 0.43723 0.00473 0.03456 0.0
C311 C 0.39593 0.98828 0.03578 0.0
H312 H 0.8668 0.51144 0.55112 0.0
H313 H 0.92356 0.56401 0.4865 0.0
H314 H 0.93755 0.48198 0.549 0.0
H315 H 0.99334 0.53339 0.48294 0.0
H316 H 0.13401 0.49188 0.4984 0.0
H317 H 0.06435 0.52185 0.50526 0.0
H318 H 0.97939 0.44846 0.52522 0.0
H319 H 0.0497 0.41912 0.52067 0.0
C320 C 0.89379 0.51616 0.5358 0.0
C321 C 0.88958 0.53992 0.51883 0.0
C322 C 0.93458 0.49925 0.5346 0.0
C323 C 0.97169 0.50533 0.51596 0.0
C324 C 0.96627 0.52844 0.49811 0.0
C325 C 0.9259 0.54574 0.49976 0.0
C326 C 0.1007 0.48228 0.50491 0.0
C327 C 0.09719 0.45301 0.5084 0.0
C328 C 0.06045 0.49941 0.50838 0.0
C329 C 0.01565 0.48759 0.51503 0.0
C330 C 0.01305 0.45849 0.52013 0.0
C331 C 0.05347 0.44151 0.51724 0.0
H332 H 0.4333 0.52834 0.43203 0.0
H333 H 0.4218 0.56047 0.5147 0.0
H334 H 0.49702 0.49674 0.44639 0.0
H335 H 0.48562 0.52833 0.52924 0.0
H336 H 0.63956 0.49409 0.53457 0.0
H337 H 0.57385 0.52447 0.52006 0.0
H338 H 0.51105 0.45516 0.47548 0.0
H339 H 0.57697 0.42486 0.48958 0.0
C340 C 0.44402 0.52836 0.4534 0.0
C341 C 0.42276 0.54689 0.47227 0.0
C342 C 0.4804 0.51019 0.4616 0.0
C343 C 0.49649 0.51025 0.48885 0.0
C344 C 0.47425 0.52816 0.50799 0.0
C345 C 0.43744 0.54628 0.49979 0.0
C346 C 0.61213 0.48543 0.52134 0.0
C347 C 0.61342 0.45706 0.51325 0.0
C348 C 0.5742 0.50274 0.51335 0.0
C349 C 0.53706 0.49205 0.49698 0.0
C350 C 0.53924 0.46397 0.48809 0.0
C351 C 0.57702 0.44663 0.49615 0.0
H352 H 0.35307 0.9572 0.10311 0.0
H353 H 0.22077 0.92421 0.13561 0.0
H354 H 0.32976 0.00441 0.11647 0.0
H355 H 0.19695 0.97198 0.14933 0.0
H356 H 0.14881 0.05715 0.10585 0.0
H357 H 0.17261 0.00964 0.11802 0.0
H358 H 0.30717 0.04131 0.14899 0.0
H359 H 0.28284 0.08934 0.13651 0.0
C360 C 0.31965 0.96 0.11412 0.0
C361 C 0.28853 0.93712 0.11815 0.0
C362 C 0.30634 0.98712 0.12197 0.0
C363 C 0.26121 0.99215 0.13375 0.0
C364 C 0.23182 0.96884 0.14006 0.0
C365 C 0.24551 0.94147 0.13243 0.0
C366 C 0.18277 0.05409 0.11619 0.0
C367 C 0.21419 0.07684 0.12003 0.0
C368 C 0.19636 0.0268 0.12335 0.0
C369 C 0.24209 0.0215 0.13421 0.0
C370 C 0.27185 0.04465 0.14041 0.0
C371 C 0.25788 0.07218 0.13348 0.0
H372 H 0.14261 0.45608 0.42372 0.0
H373 H 0.25516 0.42061 0.37377 0.0
H374 H 0.16203 0.50271 0.40724 0.0
H375 H 0.27468 0.46791 0.3567 0.0
H376 H 0.34224 0.55375 0.38929 0.0
H377 H 0.31344 0.5064 0.38062 0.0
H378 H 0.16926 0.53847 0.37252 0.0
H379 H 0.19865 0.58612 0.38186 0.0
C380 C 0.17088 0.45821 0.4086 0.0
C381 C 0.19796 0.43471 0.40043 0.0
C382 C 0.18169 0.48505 0.39884 0.0
C383 C 0.2202 0.48927 0.38071 0.0
C384 C 0.24506 0.46545 0.37085 0.0
C385 C 0.23382 0.43835 0.38051 0.0
C386 C 0.30473 0.55084 0.38434 0.0
C387 C 0.27261 0.5735 0.38632 0.0
C388 C 0.28811 0.52361 0.37933 0.0
C389 C 0.2388 0.51842 0.37645 0.0
C390 C 0.20739 0.54167 0.37515 0.0
C391 C 0.22418 0.56904 0.38011 0.0
H392 H 0.70694 0.91721 0.88082 0.0
H393 H 0.84894 0.94903 0.89617 0.0
H394 H 0.67936 0.96518 0.87086 0.0
H395 H 0.8219 0.99661 0.88673 0.0
H396 H 0.76609 0.08256 0.87668 0.0
H397 H 0.78712 0.03521 0.86036 0.0
H398 H 0.66771 1.00082 0.90583 0.0
H399 H 0.64698 0.04753 0.92168 0.0
C400 C 0.73268 0.93427 0.88077 0.0
C401 C 0.77993 0.92955 0.88935 0.0
C402 C 0.71689 0.96178 0.87539 0.0
C403 C 0.74819 0.98489 0.87851 0.0
C404 C 0.79676 0.9795 0.88395 0.0
C405 C 0.81233 0.95216 0.88946 0.0
C406 C 0.74364 0.06491 0.8824 0.0
C407 C 0.70542 0.06864 0.90079 0.0
C408 C 0.75572 0.03779 0.87318 0.0
C409 C 0.72934 0.01408 0.88193 0.0
C410 C 0.68862 0.01842 0.89835 0.0
C411 C 0.677 0.04528 0.90774 0.0
H412 H 0.78286 0.41783 0.63782 0.0
H413 H 0.64942 0.45142 0.60764 0.0
H414 H 0.80819 0.4655 0.65082 0.0
H415 H 0.67423 0.49857 0.62028 0.0
H416 H 0.72409 0.58333 0.63688 0.0
H417 H 0.69964 0.53591 0.65132 0.0
H418 H 0.83167 0.50228 0.61859 0.0
H419 H 0.85566 0.54916 0.60457 0.0
C420 C 0.75822 0.43522 0.63504 0.0
C421 C 0.71443 0.43107 0.62154 0.0
C422 C 0.77277 0.46253 0.64226 0.0
C423 C 0.74351 0.48599 0.63629 0.0
C424 C 0.69761 0.48117 0.62546 0.0
C425 C 0.68343 0.45409 0.61804 0.0
C426 C 0.74858 0.5659 0.63392 0.0
C427 C 0.7915 0.56979 0.61942 0.0
C428 C 0.73451 0.53872 0.64196 0.0
C429 C 0.76339 0.51515 0.63581 0.0
C430 C 0.8086 0.51976 0.62394 0.0
C431 C 0.82231 0.54671 0.61572 0.0
H432 H 0.33692 0.18414 0.0592 0.0
H433 H 0.25943 0.16095 0.98603 0.0
H434 H 0.40685 0.19555 0.03143 0.0
H435 H 0.32831 0.1737 0.95803 0.0
H436 H 0.48215 0.1496 0.92942 0.0
H437 H 0.40221 0.15302 0.94873 0.0
H438 H 0.44803 0.22311 0.99887 0.0
H439 H 0.52891 0.21852 0.98 0.0
C440 C 0.33449 0.1821 0.03711 0.0
C441 C 0.293 0.17115 0.02487 0.0
C442 C 0.3745 0.18891 0.02107 0.0
C443 C 0.37363 0.18536 0.99235 0.0
C444 C 0.33086 0.1761 0.98007 0.0
C445 C 0.29125 0.16884 0.99614 0.0
C446 C 0.47433 0.16662 0.94351 0.0
C447 C 0.51124 0.18402 0.95301 0.0
C448 C 0.42847 0.16855 0.95482 0.0
C449 C 0.41858 0.18803 0.97587 0.0
C450 C 0.45454 0.20742 0.9832 0.0
C451 C 0.50061 0.20527 0.97199 0.0
H452 H 0.02072 0.85944 0.92526 0.0
H453 H 0.97537 0.79003 0.97578 0.0
H454 H 0.09966 0.85792 0.94595 0.0
H455 H 0.05545 0.7874 0.99612 0.0
H456 H 0.16408 0.82796 0.05699 0.0
H457 H 0.09505 0.81556 0.02888 0.0
H458 H 0.17405 0.83849 0.95585 0.0
H459 H 0.24182 0.85224 0.98414 0.0
C460 C 0.02875 0.84275 0.93971 0.0
C461 C 0.99244 0.82458 0.94864 0.0
C462 C 0.07404 0.84191 0.95181 0.0
C463 C 0.08408 0.82279 0.97315 0.0
C464 C 0.04882 0.8028 0.98019 0.0
C465 C 0.00326 0.80382 0.96814 0.0
C466 C 0.16677 0.83006 0.03491 0.0
C467 C 0.20804 0.84159 0.02285 0.0
C468 C 0.12729 0.82269 0.01868 0.0
C469 C 0.12851 0.82624 0.98995 0.0
C470 C 0.17114 0.8361 0.97788 0.0
C471 C 0.21014 0.84393 0.99412 0.0
H472 H 0.48121 0.36126 0.58715 0.0
H473 H 0.52544 0.29066 0.53795 0.0
H474 H 0.40144 0.35893 0.5674 0.0
H475 H 0.44475 0.28732 0.51854 0.0
H476 H 0.33379 0.32627 0.45803 0.0
H477 H 0.4043 0.31532 0.48552 0.0
H478 H 0.32686 0.33797 0.55913 0.0
H479 H 0.25735 0.35009 0.53149 0.0
C480 C 0.47283 0.34421 0.57319 0.0
C481 C 0.50894 0.32588 0.56432 0.0
C482 C 0.42712 0.3429 0.56166 0.0
C483 C 0.4166 0.32317 0.54096 0.0
C484 C 0.45179 0.30314 0.534 0.0
C485 C 0.4977 0.30461 0.54549 0.0
C486 C 0.33175 0.32863 0.4801 0.0
C487 C 0.2903 0.33954 0.4925 0.0
C488 C 0.37207 0.3221 0.49597 0.0
C489 C 0.37159 0.32593 0.52465 0.0
C490 C 0.32903 0.33531 0.5371 0.0
C491 C 0.28908 0.34223 0.52123 0.0
H492 H 0.02226 0.66405 0.59045 0.0
H493 H 0.9669 0.69535 0.51385 0.0
H494 H 0.10403 0.66825 0.57272 0.0
H495 H 0.04759 0.6984 0.49545 0.0
H496 H 0.19642 0.70046 0.46421 0.0
H497 H 0.12669 0.71391 0.49143 0.0
H498 H 0.14544 0.63963 0.5416 0.0
H499 H 0.21585 0.62703 0.51531 0.0
C500 C 0.02786 0.67289 0.5702 0.0
C501 C 0.98865 0.6794 0.55345 0.0
C502 C 0.07456 0.67483 0.55979 0.0
C503 C 0.08263 0.68292 0.53231 0.0
C504 C 0.04327 0.6922 0.51668 0.0
C505 C 0.99682 0.69054 0.52722 0.0
C506 C 0.18597 0.68725 0.48132 0.0
C507 C 0.21147 0.66248 0.48734 0.0
C508 C 0.14586 0.69492 0.49692 0.0
C509 C 0.12989 0.67782 0.51872 0.0
C510 C 0.15679 0.6537 0.52538 0.0
C511 C 0.19712 0.64624 0.51003 0.0
H512 H 0.52023 0.86889 0.07967 0.0
H513 H 0.47548 0.79407 0.03704 0.0
H514 H 0.60003 0.86443 0.06027 0.0
H515 H 0.55626 0.78867 0.018 0.0
H516 H 0.66825 0.82217 0.9545 0.0
H517 H 0.59781 0.81317 0.98274 0.0
H518 H 0.67446 0.84241 0.05429 0.0
H519 H 0.74394 0.85254 0.02579 0.0
C520 C 0.52846 0.85061 0.06723 0.0
C521 C 0.49221 0.83161 0.06009 0.0
C522 C 0.57422 0.84803 0.05594 0.0
C523 C 0.58472 0.82634 0.03718 0.0
C524 C 0.54928 0.80592 0.03195 0.0
C525 C 0.50329 0.80863 0.04322 0.0
C526 C 0.67023 0.82628 0.97633 0.0
C527 C 0.71137 0.83855 0.98779 0.0
C528 C 0.6299 0.82091 0.99264 0.0
C529 C 0.63004 0.82734 0.02088 0.0
C530 C 0.6725 0.8378 0.03257 0.0
C531 C 0.71247 0.84355 0.01621 0.0
H532 H 0.83459 0.1805 0.95847 0.0
H533 H 0.7612 0.15293 0.03173 0.0
H534 H 0.90413 0.19324 0.98589 0.0
H535 H 0.8297 0.16686 0.05937 0.0
H536 H 0.98651 0.14927 0.08705 0.0
H537 H 0.90631 0.14912 0.06781 0.0
H538 H 0.94208 0.22206 0.01875 0.0
H539 H 0.02336 0.22112 0.03751 0.0
C540 C 0.83297 0.17765 0.9805 0.0
C541 C 0.79266 0.16526 0.99282 0.0
C542 C 0.87274 0.18524 0.99635 0.0
C543 C 0.87289 0.18101 0.02499 0.0
C544 C 0.83144 0.16993 0.03738 0.0
C545 C 0.79204 0.16197 0.0215 0.0
C546 C 0.97631 0.16609 0.07321 0.0
C547 C 0.01063 0.18544 0.06403 0.0
C548 C 0.93034 0.16596 0.06193 0.0
C549 C 0.91768 0.18529 0.04124 0.0
C550 C 0.95082 0.20646 0.03415 0.0
C551 C 0.99704 0.20639 0.04531 0.0
H552 H 0.74154 0.6507 0.48387 0.0
H553 H 0.66352 0.67632 0.55616 0.0
H554 H 0.67304 0.66265 0.45538 0.0
H555 H 0.59376 0.68698 0.52784 0.0
H556 H 0.47326 0.7098 0.47329 0.0
H557 H 0.55301 0.71366 0.49399 0.0
H558 H 0.59932 0.64159 0.44669 0.0
H559 H 0.52072 0.63876 0.42571 0.0
C560 C 0.70964 0.65893 0.49368 0.0
C561 C 0.70768 0.66216 0.52233 0.0
C562 C 0.67023 0.66573 0.47733 0.0
C563 C 0.62733 0.67541 0.48921 0.0
C564 C 0.6262 0.67991 0.5178 0.0
C565 C 0.66609 0.67356 0.53415 0.0
C566 C 0.50151 0.69585 0.4664 0.0
C567 C 0.49144 0.67435 0.44758 0.0
C568 C 0.54687 0.69762 0.47863 0.0
C569 C 0.58269 0.67768 0.47242 0.0
C570 C 0.57326 0.65762 0.45185 0.0
C571 C 0.52818 0.65601 0.43961 0.0
H572 H 0.97977 0.35334 0.42984 0.0
H573 H 0.02481 0.28372 0.48016 0.0
H574 H 0.89999 0.3508 0.44945 0.0
H575 H 0.94401 0.28 0.49929 0.0
H576 H 0.83611 0.32064 0.56048 0.0
H577 H 0.90475 0.30802 0.53215 0.0
H578 H 0.82551 0.33133 0.45938 0.0
H579 H 0.75806 0.3453 0.48793 0.0
C580 C 0.97153 0.33633 0.4439 0.0
C581 C 0.008 0.31853 0.45331 0.0
C582 C 0.92576 0.33491 0.4554 0.0
C583 C 0.91551 0.31553 0.4765 0.0
C584 C 0.95085 0.29564 0.48361 0.0
C585 C 0.99686 0.29729 0.47224 0.0
C586 C 0.83326 0.32274 0.53841 0.0
C587 C 0.79208 0.33447 0.5265 0.0
C588 C 0.87249 0.31524 0.52204 0.0
C589 C 0.8711 0.31885 0.49333 0.0
C590 C 0.8285 0.32886 0.48139 0.0
C591 C 0.78972 0.33683 0.49778 0.0
H592 H 0.22654 0.32172 0.3089 0.0
H593 H 0.182 0.24007 0.33816 0.0
H594 H 0.22463 0.30445 0.26184 0.0
H595 H 0.17919 0.2228 0.2911 0.0
H596 H 0.23391 0.19277 0.20762 0.0
H597 H 0.23146 0.21032 0.25451 0.0
H598 H 0.17388 0.28932 0.22537 0.0
H599 H 0.17719 0.27175 0.17836 0.0
C600 C 0.21522 0.30027 0.30523 0.0
C601 C 0.20371 0.28237 0.32721 0.0
C602 C 0.21424 0.29029 0.27822 0.0
C603 C 0.20171 0.26218 0.27256 0.0
C604 C 0.18975 0.24442 0.29463 0.0
C605 C 0.19107 0.25435 0.32162 0.0
C606 C 0.21985 0.21366 0.21128 0.0
C607 C 0.20488 0.23069 0.18934 0.0
C608 C 0.21854 0.2238 0.2382 0.0
C609 C 0.20222 0.25124 0.24386 0.0
C610 C 0.18722 0.26823 0.22182 0.0
C611 C 0.18885 0.25813 0.19488 0.0
H612 H 0.3247 0.74252 0.17679 0.0
H613 H 0.27473 0.82325 0.20563 0.0
H614 H 0.32583 0.72503 0.22391 0.0
H615 H 0.2771 0.80605 0.25279 0.0
H616 H 0.22962 0.75315 0.32764 0.0
H617 H 0.23268 0.77238 0.28127 0.0
H618 H 0.36847 0.73107 0.26788 0.0
H619 H 0.36587 0.71232 0.31435 0.0
C620 C 0.31453 0.75664 0.19324 0.0
C621 C 0.30045 0.78442 0.18749 0.0
C622 C 0.31547 0.74668 0.22025 0.0
C623 C 0.30173 0.76416 0.24215 0.0
C624 C 0.28772 0.79199 0.23639 0.0
C625 C 0.28708 0.802 0.20937 0.0
C626 C 0.26023 0.74821 0.31484 0.0
C627 C 0.29679 0.73046 0.32454 0.0
C628 C 0.26205 0.75934 0.28827 0.0
C629 C 0.30064 0.75308 0.27075 0.0
C630 C 0.33772 0.73579 0.28064 0.0
C631 C 0.33597 0.72477 0.30727 0.0
H632 H 0.77614 0.68275 0.70385 0.0
H633 H 0.82449 0.76411 0.67577 0.0
H634 H 0.77809 0.69943 0.75117 0.0
H635 H 0.82539 0.78106 0.7231 0.0
H636 H 0.86633 0.7918 0.81397 0.0
H637 H 0.86879 0.77405 0.76716 0.0
H638 H 0.73262 0.73295 0.77973 0.0
H639 H 0.72956 0.75129 0.82641 0.0
C640 C 0.78804 0.70403 0.7078 0.0
C641 C 0.8011 0.72195 0.6861 0.0
C642 C 0.78846 0.71373 0.7349 0.0
C643 C 0.80197 0.74157 0.74092 0.0
C644 C 0.81539 0.7594 0.71921 0.0
C645 C 0.8146 0.74976 0.69209 0.0
C646 C 0.83629 0.77966 0.80665 0.0
C647 C 0.797 0.77377 0.82379 0.0
C648 C 0.83797 0.76919 0.77982 0.0
C649 C 0.80078 0.75223 0.76963 0.0
C650 C 0.76207 0.74577 0.78699 0.0
C651 C 0.76026 0.75638 0.81373 0.0
H652 H 0.67627 0.23618 0.68029 0.0
H653 H 0.72797 0.3165 0.70912 0.0
H654 H 0.67651 0.21832 0.72728 0.0
H655 H 0.7269 0.29897 0.75616 0.0
H656 H 0.77653 0.24612 0.83002 0.0
H657 H 0.7723 0.26496 0.78356 0.0
H658 H 0.63569 0.2241 0.77195 0.0
H659 H 0.63953 0.20565 0.81854 0.0
C660 C 0.68708 0.25014 0.69672 0.0
C661 C 0.70129 0.27791 0.69102 0.0
C662 C 0.68694 0.23996 0.72366 0.0
C663 C 0.70162 0.25723 0.7455 0.0
C664 C 0.71562 0.28507 0.73979 0.0
C665 C 0.7155 0.29529 0.71285 0.0
C666 C 0.74555 0.24114 0.81757 0.0
C667 C 0.709 0.22371 0.82784 0.0
C668 C 0.74303 0.25206 0.79097 0.0
C669 C 0.70375 0.24594 0.77398 0.0
C670 C 0.66689 0.22876 0.78433 0.0
C671 C 0.66934 0.21792 0.81101 0.0
loop_
_geom_bond_atom_site_label_1
_geom_bond_atom_site_label_2
_geom_bond_distance
_geom_bond_site_symmetry_2
_ccdc_geom_bond_type
Co0 O3 1.970 . S
Co0 N17 1.989 . S
Co0 O25 1.967 . S
Co0 O32 1.920 . S
Co1 O4 1.966 . S
Co1 N10 2.022 . S
Co1 N18 1.993 . S
Co1 O26 1.941 . S
C2 O3 1.258 . S
C2 O4 1.263 . S
O3 Co0 1.970 . S
O3 C2 1.258 . S
O4 Co1 1.966 . S
O4 C2 1.263 . S
C5 O6 1.235 . S
C5 O32 1.289 . S
O6 C5 1.235 . S
C7 C9 1.400 . S
C7 N10 1.351 . S
C7 C12 1.501 . S
C8 C9 1.387 . S
C8 N11 1.341 . S
C9 C7 1.400 . S
C9 C8 1.387 . S
N10 Co1 2.022 . S
N10 C7 1.351 . S
N10 N11 1.365 . S
N11 C8 1.341 . S
N11 N10 1.365 . S
N11 H31 0.862 . S
C12 C7 1.501 . S
C12 H13 0.961 . S
C12 H14 0.961 . S
C12 H15 0.960 . S
H13 C12 0.961 . S
H14 C12 0.961 . S
H15 C12 0.960 . S
C16 N17 1.342 . S
C16 C20 1.401 1_455 S
C16 C21 1.499 1_455 S
N17 Co0 1.989 . S
N17 C16 1.342 . S
N17 N18 1.388 . S
N18 Co1 1.993 . S
N18 N17 1.388 . S
N18 C19 1.346 . S
C19 N18 1.346 . S
C19 C20 1.396 1_455 S
C19 C29 1.510 . S
C20 C16 1.401 1_655 S
C20 C19 1.396 1_655 S
C21 C16 1.499 1_655 S
C21 H22 0.959 1_655 S
C21 H23 0.960 . S
C21 H24 0.961 . S
H22 C21 0.959 1_455 S
H23 C21 0.960 . S
H24 C21 0.961 . S
O25 Co0 1.967 . S
O25 C33 1.258 . S
O26 Co1 1.941 . S
O26 C33 1.266 . S
H27 C29 0.959 . S
H28 C29 0.961 1_655 S
C29 C19 1.510 . S
C29 H27 0.959 . S
C29 H28 0.961 1_455 S
C29 H30 0.960 . S
H30 C29 0.960 . S
H31 N11 0.862 . S
O32 Co0 1.920 . S
O32 C5 1.289 . S
C33 O25 1.258 . S
C33 O26 1.266 . S
Co34 O37 1.970 . S
Co34 N51 1.989 . S
Co34 O59 1.967 . S
Co34 O66 1.920 . S
Co35 O38 1.966 . S
Co35 N44 2.022 . S
Co35 N52 1.993 . S
Co35 O60 1.941 . S
C36 O37 1.258 . S
C36 O38 1.263 . S
O37 Co34 1.970 . S
O37 C36 1.258 . S
O38 Co35 1.966 . S
O38 C36 1.263 . S
C39 O40 1.235 . S
C39 O66 1.289 . S
O40 C39 1.235 . S
C41 C43 1.400 . S
C41 N44 1.351 . S
C41 C46 1.501 . S
C42 C43 1.387 . S
C42 N45 1.341 . S
C43 C41 1.400 . S
C43 C42 1.387 . S
N44 Co35 2.022 . S
N44 C41 1.351 . S
N44 N45 1.365 . S
N45 C42 1.341 . S
N45 N44 1.365 . S
N45 H65 0.862 . S
C46 C41 1.501 . S
C46 H47 0.961 . S
C46 H48 0.961 . S
C46 H49 0.960 . S
H47 C46 0.961 . S
H48 C46 0.961 . S
H49 C46 0.960 . S
C50 N51 1.342 . S
C50 C54 1.401 . S
C50 C55 1.499 . S
N51 Co34 1.989 . S
N51 C50 1.342 . S
N51 N52 1.388 . S
N52 Co35 1.993 . S
N52 N51 1.388 . S
N52 C53 1.346 . S
C53 N52 1.346 . S
C53 C54 1.396 . S
C53 C63 1.510 . S
C54 C50 1.401 . S
C54 C53 1.396 . S
C55 C50 1.499 . S
C55 H56 0.959 . S
C55 H57 0.960 . S
C55 H58 0.961 . S
H56 C55 0.959 . S
H57 C55 0.960 . S
H58 C55 0.961 . S
O59 Co34 1.967 . S
O59 C67 1.258 . S
O60 Co35 1.941 . S
O60 C67 1.266 . S
H61 C63 0.959 . S
H62 C63 0.961 . S
C63 C53 1.510 . S
C63 H61 0.959 . S
C63 H62 0.961 . S
C63 H64 0.960 . S
H64 C63 0.960 . S
H65 N45 0.862 . S
O66 Co34 1.920 . S
O66 C39 1.289 . S
C67 O59 1.258 . S
C67 O60 1.266 . S
Co68 O71 1.970 . S
Co68 N85 1.989 . S
Co68 O93 1.967 . S
Co68 O100 1.920 . S
Co69 O72 1.966 . S
Co69 N78 2.022 . S
Co69 N86 1.993 . S
Co69 O94 1.941 . S
C70 O71 1.258 . S
C70 O72 1.263 . S
O71 Co68 1.970 . S
O71 C70 1.258 . S
O72 Co69 1.966 . S
O72 C70 1.263 . S
C73 O74 1.235 . S
C73 O100 1.289 . S
O74 C73 1.235 . S
C75 C77 1.400 . S
C75 N78 1.351 . S
C75 C80 1.501 . S
C76 C77 1.387 . S
C76 N79 1.341 . S
C77 C75 1.400 . S
C77 C76 1.387 . S
N78 Co69 2.022 . S
N78 C75 1.351 . S
N78 N79 1.365 . S
N79 C76 1.341 . S
N79 N78 1.365 . S
N79 H99 0.862 . S
C80 C75 1.501 . S
C80 H81 0.961 . S
C80 H82 0.961 . S
C80 H83 0.960 . S
H81 C80 0.961 . S
H82 C80 0.961 . S
H83 C80 0.960 . S
C84 N85 1.342 . S
C84 C88 1.401 1_455 S
C84 C89 1.499 1_455 S
N85 Co68 1.989 . S
N85 C84 1.342 . S
N85 N86 1.388 . S
N86 Co69 1.993 . S
N86 N85 1.388 . S
N86 C87 1.346 . S
C87 N86 1.346 . S
C87 C88 1.396 1_455 S
C87 C97 1.510 . S
C88 C84 1.401 1_655 S
C88 C87 1.396 1_655 S
C89 C84 1.499 1_655 S
C89 H90 0.959 1_655 S
C89 H91 0.960 . S
C89 H92 0.961 . S
H90 C89 0.959 1_455 S
H91 C89 0.960 . S
H92 C89 0.961 . S
O93 Co68 1.967 . S
O93 C101 1.258 . S
O94 Co69 1.941 . S
O94 C101 1.266 . S
H95 C97 0.959 . S
H96 C97 0.961 1_655 S
C97 C87 1.510 . S
C97 H95 0.959 . S
C97 H96 0.961 1_455 S
C97 H98 0.960 . S
H98 C97 0.960 . S
H99 N79 0.862 . S
O100 Co68 1.920 . S
O100 C73 1.289 . S
C101 O93 1.258 . S
C101 O94 1.266 . S
Co102 O105 1.970 . S
Co102 N119 1.989 . S
Co102 O127 1.967 . S
Co102 O134 1.920 . S
Co103 O106 1.966 . S
Co103 N112 2.022 . S
Co103 N120 1.993 . S
Co103 O128 1.941 . S
C104 O105 1.258 . S
C104 O106 1.263 . S
O105 Co102 1.970 . S
O105 C104 1.258 . S
O106 Co103 1.966 . S
O106 C104 1.263 . S
C107 O108 1.235 . S
C107 O134 1.289 . S
O108 C107 1.235 . S
C109 C111 1.400 . S
C109 N112 1.351 . S
C109 C114 1.501 . S
C110 C111 1.387 . S
C110 N113 1.341 . S
C111 C109 1.400 . S
C111 C110 1.387 . S
N112 Co103 2.022 . S
N112 C109 1.351 . S
N112 N113 1.365 . S
N113 C110 1.341 . S
N113 N112 1.365 . S
N113 H133 0.862 . S
C114 C109 1.501 . S
C114 H115 0.961 . S
C114 H116 0.961 . S
C114 H117 0.960 . S
H115 C114 0.961 . S
H116 C114 0.961 . S
H117 C114 0.960 . S
C118 N119 1.342 . S
C118 C122 1.401 . S
C118 C123 1.499 . S
N119 Co102 1.989 . S
N119 C118 1.342 . S
N119 N120 1.388 . S
N120 Co103 1.993 . S
N120 N119 1.388 . S
N120 C121 1.346 . S
C121 N120 1.346 . S
C121 C122 1.396 . S
C121 C131 1.510 . S
C122 C118 1.401 . S
C122 C121 1.396 . S
C123 C118 1.499 . S
C123 H124 0.959 . S
C123 H125 0.960 . S
C123 H126 0.961 . S
H124 C123 0.959 . S
H125 C123 0.960 . S
H126 C123 0.961 . S
O127 Co102 1.967 . S
O127 C135 1.258 . S
O128 Co103 1.941 . S
O128 C135 1.266 . S
H129 C131 0.959 . S
H130 C131 0.961 . S
C131 C121 1.510 . S
C131 H129 0.959 . S
C131 H130 0.961 . S
C131 H132 0.960 . S
H132 C131 0.960 . S
H133 N113 0.862 . S
O134 Co102 1.920 . S
O134 C107 1.289 . S
C135 O127 1.258 . S
C135 O128 1.266 . S
Co136 O139 1.970 . S
Co136 N153 1.989 . S
Co136 O161 1.967 . S
Co136 O168 1.920 . S
Co137 O140 1.966 . S
Co137 N146 2.022 . S
Co137 N154 1.993 . S
Co137 O162 1.941 . S
C138 O139 1.258 . S
C138 O140 1.263 . S
O139 Co136 1.970 . S
O139 C138 1.258 . S
O140 Co137 1.966 . S
O140 C138 1.263 . S
C141 O142 1.235 . S
C141 O168 1.289 . S
O142 C141 1.235 . S
C143 C145 1.400 . S
C143 N146 1.351 . S
C143 C148 1.501 . S
C144 C145 1.387 . S
C144 N147 1.341 . S
C145 C143 1.400 . S
C145 C144 1.387 . S
N146 Co137 2.022 . S
N146 C143 1.351 . S
N146 N147 1.365 . S
N147 C144 1.341 . S
N147 N146 1.365 . S
N147 H167 0.862 . S
C148 C143 1.501 . S
C148 H149 0.961 . S
C148 H150 0.961 . S
C148 H151 0.960 . S
H149 C148 0.961 . S
H150 C148 0.961 . S
H151 C148 0.960 . S
C152 N153 1.342 . S
C152 C156 1.401 1_655 S
C152 C157 1.499 1_655 S
N153 Co136 1.989 . S
N153 C152 1.342 . S
N153 N154 1.388 . S
N154 Co137 1.993 . S
N154 N153 1.388 . S
N154 C155 1.346 . S
C155 N154 1.346 . S
C155 C156 1.396 1_655 S
C155 C165 1.510 . S
C156 C152 1.401 1_455 S
C156 C155 1.396 1_455 S
C157 C152 1.499 1_455 S
C157 H158 0.959 1_455 S
C157 H159 0.960 . S
C157 H160 0.961 . S
H158 C157 0.959 1_655 S
H159 C157 0.960 . S
H160 C157 0.961 . S
O161 Co136 1.967 . S
O161 C169 1.258 . S
O162 Co137 1.941 . S
O162 C169 1.266 . S
H163 C165 0.959 . S
H164 C165 0.961 1_455 S
C165 C155 1.510 . S
C165 H163 0.959 . S
C165 H164 0.961 1_655 S
C165 H166 0.960 . S
H166 C165 0.960 . S
H167 N147 0.862 . S
O168 Co136 1.920 . S
O168 C141 1.289 . S
C169 O161 1.258 . S
C169 O162 1.266 . S
Co170 O173 1.970 . S
Co170 N187 1.989 . S
Co170 O195 1.967 . S
Co170 O202 1.920 . S
Co171 O174 1.966 . S
Co171 N180 2.022 . S
Co171 N188 1.993 . S
Co171 O196 1.941 . S
C172 O173 1.258 . S
C172 O174 1.263 . S
O173 Co170 1.970 . S
O173 C172 1.258 . S
O174 Co171 1.966 . S
O174 C172 1.263 . S
C175 O176 1.235 . S
C175 O202 1.289 . S
O176 C175 1.235 . S
C177 C179 1.400 . S
C177 N180 1.351 . S
C177 C182 1.501 . S
C178 C179 1.387 . S
C178 N181 1.341 . S
C179 C177 1.400 . S
C179 C178 1.387 . S
N180 Co171 2.022 . S
N180 C177 1.351 . S
N180 N181 1.365 . S
N181 C178 1.341 . S
N181 N180 1.365 . S
N181 H201 0.862 . S
C182 C177 1.501 . S
C182 H183 0.961 . S
C182 H184 0.961 . S
C182 H185 0.960 . S
H183 C182 0.961 . S
H184 C182 0.961 . S
H185 C182 0.960 . S
C186 N187 1.342 . S
C186 C190 1.401 . S
C186 C191 1.499 . S
N187 Co170 1.989 . S
N187 C186 1.342 . S
N187 N188 1.388 . S
N188 Co171 1.993 . S
N188 N187 1.388 . S
N188 C189 1.346 . S
C189 N188 1.346 . S
C189 C190 1.396 . S
C189 C199 1.510 . S
C190 C186 1.401 . S
C190 C189 1.396 . S
C191 C186 1.499 . S
C191 H192 0.959 . S
C191 H193 0.960 . S
C191 H194 0.961 . S
H192 C191 0.959 . S
H193 C191 0.960 . S
H194 C191 0.961 . S
O195 Co170 1.967 . S
O195 C203 1.258 . S
O196 Co171 1.941 . S
O196 C203 1.266 . S
H197 C199 0.959 . S
H198 C199 0.961 . S
C199 C189 1.510 . S
C199 H197 0.959 . S
C199 H198 0.961 . S
C199 H200 0.960 . S
H200 C199 0.960 . S
H201 N181 0.862 . S
O202 Co170 1.920 . S
O202 C175 1.289 . S
C203 O195 1.258 . S
C203 O196 1.266 . S
Co204 O207 1.970 . S
Co204 N221 1.989 . S
Co204 O229 1.967 . S
Co204 O236 1.920 . S
Co205 O208 1.966 . S
Co205 N214 2.022 . S
Co205 N222 1.993 . S
Co205 O230 1.941 . S
C206 O207 1.258 . S
C206 O208 1.263 . S
O207 Co204 1.970 . S
O207 C206 1.258 . S
O208 Co205 1.966 . S
O208 C206 1.263 . S
C209 O210 1.235 . S
C209 O236 1.289 . S
O210 C209 1.235 . S
C211 C213 1.400 . S
C211 N214 1.351 . S
C211 C216 1.501 . S
C212 C213 1.387 . S
C212 N215 1.341 . S
C213 C211 1.400 . S
C213 C212 1.387 . S
N214 Co205 2.022 . S
N214 C211 1.351 . S
N214 N215 1.365 . S
N215 C212 1.341 . S
N215 N214 1.365 . S
N215 H235 0.862 . S
C216 C211 1.501 . S
C216 H217 0.961 . S
C216 H218 0.961 . S
C216 H219 0.960 . S
H217 C216 0.961 . S
H218 C216 0.961 . S
H219 C216 0.960 . S
C220 N221 1.342 . S
C220 C224 1.401 1_655 S
C220 C225 1.499 1_655 S
N221 Co204 1.989 . S
N221 C220 1.342 . S
N221 N222 1.388 . S
N222 Co205 1.993 . S
N222 N221 1.388 . S
N222 C223 1.346 . S
C223 N222 1.346 . S
C223 C224 1.396 1_655 S
C223 C233 1.510 . S
C224 C220 1.401 1_455 S
C224 C223 1.396 1_455 S
C225 C220 1.499 1_455 S
C225 H226 0.959 1_455 S
C225 H227 0.960 . S
C225 H228 0.961 . S
H226 C225 0.959 1_655 S
H227 C225 0.960 . S
H228 C225 0.961 . S
O229 Co204 1.967 . S
O229 C237 1.258 . S
O230 Co205 1.941 . S
O230 C237 1.266 . S
H231 C233 0.959 . S
H232 C233 0.961 1_455 S
C233 C223 1.510 . S
C233 H231 0.959 . S
C233 H232 0.961 1_655 S
C233 H234 0.960 . S
H234 C233 0.960 . S
H235 N215 0.862 . S
O236 Co204 1.920 . S
O236 C209 1.289 . S
C237 O229 1.258 . S
C237 O230 1.266 . S
Co238 O241 1.970 . S
Co238 N255 1.989 . S
Co238 O263 1.967 . S
Co238 O270 1.920 . S
Co239 O242 1.966 . S
Co239 N248 2.022 . S
Co239 N256 1.993 . S
Co239 O264 1.941 . S
C240 O241 1.258 . S
C240 O242 1.263 . S
O241 Co238 1.970 . S
O241 C240 1.258 . S
O242 Co239 1.966 . S
O242 C240 1.263 . S
C243 O244 1.235 . S
C243 O270 1.289 . S
O244 C243 1.235 . S
C245 C247 1.400 . S
C245 N248 1.351 . S
C245 C250 1.501 . S
C246 C247 1.387 . S
C246 N249 1.341 . S
C247 C245 1.400 . S
C247 C246 1.387 . S
N248 Co239 2.022 . S
N248 C245 1.351 . S
N248 N249 1.365 . S
N249 C246 1.341 . S
N249 N248 1.365 . S
N249 H269 0.862 . S
C250 C245 1.501 . S
C250 H251 0.961 . S
C250 H252 0.961 . S
C250 H253 0.960 . S
H251 C250 0.961 . S
H252 C250 0.961 . S
H253 C250 0.960 . S
C254 N255 1.342 . S
C254 C258 1.401 . S
C254 C259 1.499 . S
N255 Co238 1.989 . S
N255 C254 1.342 . S
N255 N256 1.388 . S
N256 Co239 1.993 . S
N256 N255 1.388 . S
N256 C257 1.346 . S
C257 N256 1.346 . S
C257 C258 1.396 . S
C257 C267 1.510 . S
C258 C254 1.401 . S
C258 C257 1.396 . S
C259 C254 1.499 . S
C259 H260 0.959 . S
C259 H261 0.960 . S
C259 H262 0.961 . S
H260 C259 0.959 . S
H261 C259 0.960 . S
H262 C259 0.961 . S
O263 Co238 1.967 . S
O263 C271 1.258 . S
O264 Co239 1.941 . S
O264 C271 1.266 . S
H265 C267 0.959 . S
H266 C267 0.961 . S
C267 C257 1.510 . S
C267 H265 0.959 . S
C267 H266 0.961 . S
C267 H268 0.960 . S
H268 C267 0.960 . S
H269 N249 0.862 . S
O270 Co238 1.920 . S
O270 C243 1.289 . S
C271 O263 1.258 . S
C271 O264 1.266 . S
H272 C280 0.950 . S
H273 C285 0.950 . S
H274 C282 0.950 . S
H275 C284 0.968 . S
H276 C286 0.950 . S
H277 C288 0.950 . S
H278 C290 0.968 . S
H279 C291 0.950 . S
C280 H272 0.950 . S
C280 C281 1.386 . S
C280 C282 1.391 1_455 S
C281 C280 1.386 . S
C281 C285 1.393 1_554 S
C282 H274 0.950 . S
C282 C280 1.391 1_655 S
C282 C283 1.413 1_655 S
C283 C282 1.413 1_455 S
C283 C284 1.387 1_554 S
C283 C289 1.489 1_444 S
C284 H275 0.968 . S
C284 C283 1.387 1_556 S
C284 C285 1.391 . S
C285 H273 0.950 . S
C285 C281 1.393 1_556 S
C285 C284 1.391 . S
C286 H276 0.950 . S
C286 C287 1.386 . S
C286 C288 1.391 1_655 S
C287 C286 1.386 . S
C287 C291 1.393 1_556 S
C288 H277 0.950 . S
C288 C286 1.391 1_455 S
C288 C289 1.413 1_455 S
C289 C283 1.489 1_666 S
C289 C288 1.413 1_655 S
C289 C290 1.387 1_556 S
C290 H278 0.968 . S
C290 C289 1.387 1_554 S
C290 C291 1.391 . S
C291 H279 0.950 . S
C291 C287 1.393 1_554 S
C291 C290 1.391 . S
H292 C300 0.950 . S
H293 C305 0.950 . S
H294 C302 0.950 . S
H295 C304 0.950 . S
H296 C306 0.950 . S
H297 C308 0.950 . S
H298 C310 0.950 . S
H299 C311 0.950 . S
C300 H292 0.950 . S
C300 C301 1.386 1_554 S
C300 C302 1.391 . S
C301 C300 1.386 1_556 S
C301 C305 1.393 . S
C302 H294 0.950 . S
C302 C300 1.391 . S
C302 C303 1.400 1_554 S
C303 C302 1.400 1_556 S
C303 C304 1.398 . S
C303 C309 1.491 1_546 S
C304 H295 0.950 . S
C304 C303 1.398 . S
C304 C305 1.391 . S
C305 H293 0.950 . S
C305 C301 1.393 . S
C305 C304 1.391 . S
C306 H296 0.950 . S
C306 C307 1.386 1_556 S
C306 C308 1.391 . S
C307 C306 1.386 1_554 S
C307 C311 1.393 . S
C308 H297 0.950 . S
C308 C306 1.391 . S
C308 C309 1.400 1_556 S
C309 C303 1.491 1_564 S
C309 C308 1.400 1_554 S
C309 C310 1.398 . S
C310 H298 0.950 . S
C310 C309 1.398 . S
C310 C311 1.391 . S
C311 H299 0.950 . S
C311 C307 1.393 . S
C311 C310 1.391 . S
H312 C320 0.950 . S
H313 C325 0.950 . S
H314 C322 0.950 . S
H315 C324 0.950 . S
H316 C326 0.950 . S
H317 C328 0.950 . S
H318 C330 0.950 . S
H319 C331 0.950 . S
C320 H312 0.950 . S
C320 C321 1.386 . S
C320 C322 1.391 . S
C321 C320 1.386 . S
C321 C325 1.393 . S
C322 H314 0.950 . S
C322 C320 1.391 . S
C322 C323 1.400 . S
C323 C322 1.400 . S
C323 C324 1.398 1_655 S
C323 C329 1.491 1_655 S
C324 H315 0.950 . S
C324 C323 1.398 1_455 S
C324 C325 1.391 1_455 S
C325 H313 0.950 . S
C325 C321 1.393 . S
C325 C324 1.391 1_655 S
C326 H316 0.950 . S
C326 C327 1.386 . S
C326 C328 1.391 . S
C327 C326 1.386 . S
C327 C331 1.393 . S
C328 H317 0.950 . S
C328 C326 1.391 . S
C328 C329 1.400 . S
C329 C323 1.491 1_455 S
C329 C328 1.400 . S
C329 C330 1.398 1_455 S
C330 H318 0.950 . S
C330 C329 1.398 1_655 S
C330 C331 1.391 1_655 S
C331 H319 0.950 . S
C331 C327 1.393 . S
C331 C330 1.391 1_455 S
H332 C340 0.950 . S
H333 C345 0.950 . S
H334 C342 0.950 . S
H335 C344 0.950 . S
H336 C346 0.950 . S
H337 C348 0.950 . S
H338 C350 0.950 . S
H339 C351 0.950 . S
C340 H332 0.950 . S
C340 C341 1.386 . S
C340 C342 1.391 . S
C341 C340 1.386 . S
C341 C345 1.393 . S
C342 H334 0.950 . S
C342 C340 1.391 . S
C342 C343 1.400 . S
C343 C342 1.400 . S
C343 C344 1.398 . S
C343 C349 1.491 . S
C344 H335 0.950 . S
C344 C343 1.398 . S
C344 C345 1.391 . S
C345 H333 0.950 . S
C345 C341 1.393 . S
C345 C344 1.391 . S
C346 H336 0.950 . S
C346 C347 1.386 . S
C346 C348 1.391 . S
C347 C346 1.386 . S
C347 C351 1.393 . S
C348 H337 0.950 . S
C348 C346 1.391 . S
C348 C349 1.400 . S
C349 C343 1.491 . S
C349 C348 1.400 . S
C349 C350 1.398 . S
C350 H338 0.950 . S
C350 C349 1.398 . S
C350 C351 1.391 . S
C351 H339 0.950 . S
C351 C347 1.393 . S
C351 C350 1.391 . S
H352 C360 0.950 . S
H353 C365 0.950 . S
H354 C362 0.950 . S
H355 C364 0.950 . S
H356 C366 0.950 . S
H357 C368 0.950 . S
H358 C370 0.950 . S
H359 C371 0.950 . S
C360 H352 0.950 . S
C360 C361 1.386 . S
C360 C362 1.391 . S
C361 C360 1.386 . S
C361 C365 1.393 . S
C362 H354 0.950 . S
C362 C360 1.391 . S
C362 C363 1.400 . S
C363 C362 1.400 . S
C363 C364 1.398 . S
C363 C369 1.491 1_565 S
C364 H355 0.950 . S
C364 C363 1.398 . S
C364 C365 1.391 . S
C365 H353 0.950 . S
C365 C361 1.393 . S
C365 C364 1.391 . S
C366 H356 0.950 . S
C366 C367 1.386 . S
C366 C368 1.391 . S
C367 C366 1.386 . S
C367 C371 1.393 . S
C368 H357 0.950 . S
C368 C366 1.391 . S
C368 C369 1.400 . S
C369 C363 1.491 1_545 S
C369 C368 1.400 . S
C369 C370 1.398 . S
C370 H358 0.950 . S
C370 C369 1.398 . S
C370 C371 1.391 . S
C371 H359 0.950 . S
C371 C367 1.393 . S
C371 C370 1.391 . S
H372 C380 0.950 . S
H373 C385 0.950 . S
H374 C382 0.950 . S
H375 C384 0.950 . S
H376 C386 0.950 . S
H377 C388 0.950 . S
H378 C390 0.950 . S
H379 C391 0.950 . S
C380 H372 0.950 . S
C380 C381 1.386 . S
C380 C382 1.391 . S
C381 C380 1.386 . S
C381 C385 1.393 . S
C382 H374 0.950 . S
C382 C380 1.391 . S
C382 C383 1.400 . S
C383 C382 1.400 . S
C383 C384 1.398 . S
C383 C389 1.491 . S
C384 H375 0.950 . S
C384 C383 1.398 . S
C384 C385 1.391 . S
C385 H373 0.950 . S
C385 C381 1.393 . S
C385 C384 1.391 . S
C386 H376 0.950 . S
C386 C387 1.386 . S
C386 C388 1.391 . S
C387 C386 1.386 . S
C387 C391 1.393 . S
C388 H377 0.950 . S
C388 C386 1.391 . S
C388 C389 1.400 . S
C389 C383 1.491 . S
C389 C388 1.400 . S
C389 C390 1.398 . S
C390 H378 0.950 . S
C390 C389 1.398 . S
C390 C391 1.391 . S
C391 H379 0.950 . S
C391 C387 1.393 . S
C391 C390 1.391 . S
H392 C400 0.950 . S
H393 C405 0.950 . S
H394 C402 0.950 . S
H395 C404 0.950 1_545 S
H396 C406 0.950 . S
H397 C408 0.950 . S
H398 C410 0.950 1_565 S
H399 C411 0.950 . S
C400 H392 0.950 . S
C400 C401 1.386 . S
C400 C402 1.391 . S
C401 C400 1.386 . S
C401 C405 1.393 . S
C402 H394 0.950 . S
C402 C400 1.391 . S
C402 C403 1.400 . S
C403 C402 1.400 . S
C403 C404 1.398 . S
C403 C409 1.491 1_565 S
C404 H395 0.950 1_565 S
C404 C403 1.398 . S
C404 C405 1.391 . S
C405 H393 0.950 . S
C405 C401 1.393 . S
C405 C404 1.391 . S
C406 H396 0.950 . S
C406 C407 1.386 . S
C406 C408 1.391 . S
C407 C406 1.386 . S
C407 C411 1.393 . S
C408 H397 0.950 . S
C408 C406 1.391 . S
C408 C409 1.400 . S
C409 C403 1.491 1_545 S
C409 C408 1.400 . S
C409 C410 1.398 . S
C410 H398 0.950 1_545 S
C410 C409 1.398 . S
C410 C411 1.391 . S
C411 H399 0.950 . S
C411 C407 1.393 . S
C411 C410 1.391 . S
H412 C420 0.950 . S
H413 C425 0.950 . S
H414 C422 0.950 . S
H415 C424 0.950 . S
H416 C426 0.950 . S
H417 C428 0.950 . S
H418 C430 0.950 . S
H419 C431 0.950 . S
C420 H412 0.950 . S
C420 C421 1.386 . S
C420 C422 1.391 . S
C421 C420 1.386 . S
C421 C425 1.393 . S
C422 H414 0.950 . S
C422 C420 1.391 . S
C422 C423 1.400 . S
C423 C422 1.400 . S
C423 C424 1.398 . S
C423 C429 1.491 . S
C424 H415 0.950 . S
C424 C423 1.398 . S
C424 C425 1.391 . S
C425 H413 0.950 . S
C425 C421 1.393 . S
C425 C424 1.391 . S
C426 H416 0.950 . S
C426 C427 1.386 . S
C426 C428 1.391 . S
C427 C426 1.386 . S
C427 C431 1.393 . S
C428 H417 0.950 . S
C428 C426 1.391 . S
C428 C429 1.400 . S
C429 C423 1.491 . S
C429 C428 1.400 . S
C429 C430 1.398 . S
C430 H418 0.950 . S
C430 C429 1.398 . S
C430 C431 1.391 . S
C431 H419 0.950 . S
C431 C427 1.393 . S
C431 C430 1.391 . S
H432 C440 0.950 . S
H433 C445 0.945 1_556 S
H434 C442 0.950 . S
H435 C444 0.950 . S
H436 C446 0.950 . S
H437 C448 0.950 . S
H438 C450 0.974 . S
H439 C451 0.950 . S
C440 H432 0.950 . S
C440 C441 1.386 . S
C440 C442 1.391 . S
C441 C440 1.386 . S
C441 C445 1.393 . S
C442 H434 0.950 . S
C442 C440 1.391 . S
C442 C443 1.400 1_554 S
C443 C442 1.400 1_556 S
C443 C444 1.398 . S
C443 C449 1.491 . S
C444 H435 0.950 . S
C444 C443 1.398 . S
C444 C445 1.391 1_556 S
C445 H433 0.945 1_554 S
C445 C441 1.393 . S
C445 C444 1.391 1_554 S
C446 H436 0.950 . S
C446 C447 1.386 . S
C446 C448 1.391 . S
C447 C446 1.386 . S
C447 C451 1.393 . S
C448 H437 0.950 . S
C448 C446 1.391 . S
C448 C449 1.400 . S
C449 C443 1.491 . S
C449 C448 1.400 . S
C449 C450 1.398 . S
C450 H438 0.974 . S
C450 C449 1.398 . S
C450 C451 1.391 . S
C451 H439 0.950 . S
C451 C447 1.393 . S
C451 C450 1.391 . S
H452 C460 0.950 . S
H453 C465 0.950 . S
H454 C462 0.950 . S
H455 C464 0.950 1_554 S
H456 C466 0.950 . S
H457 C468 0.950 . S
H458 C470 0.950 . S
H459 C471 0.950 . S
C460 H452 0.950 . S
C460 C461 1.386 . S
C460 C462 1.391 . S
C461 C460 1.386 . S
C461 C465 1.393 . S
C462 H454 0.950 . S
C462 C460 1.391 . S
C462 C463 1.400 . S
C463 C462 1.400 . S
C463 C464 1.398 . S
C463 C469 1.491 . S
C464 H455 0.950 1_556 S
C464 C463 1.398 . S
C464 C465 1.391 . S
C465 H453 0.950 . S
C465 C461 1.393 . S
C465 C464 1.391 . S
C466 H456 0.950 . S
C466 C467 1.386 . S
C466 C468 1.391 . S
C467 C466 1.386 . S
C467 C471 1.393 1_554 S
C468 H457 0.950 . S
C468 C466 1.391 . S
C468 C469 1.400 1_554 S
C469 C463 1.491 . S
C469 C468 1.400 1_556 S
C469 C470 1.398 . S
C470 H458 0.950 . S
C470 C469 1.398 . S
C470 C471 1.391 . S
C471 H459 0.950 . S
C471 C467 1.393 1_556 S
C471 C470 1.391 . S
H472 C480 0.950 . S
H473 C485 0.950 . S
H474 C482 0.950 . S
H475 C484 0.950 . S
H476 C486 0.950 . S
H477 C488 0.950 . S
H478 C490 0.950 . S
H479 C491 0.950 . S
C480 H472 0.950 . S
C480 C481 1.386 . S
C480 C482 1.391 . S
C481 C480 1.386 . S
C481 C485 1.393 . S
C482 H474 0.950 . S
C482 C480 1.391 . S
C482 C483 1.400 . S
C483 C482 1.400 . S
C483 C484 1.398 . S
C483 C489 1.491 . S
C484 H475 0.950 . S
C484 C483 1.398 . S
C484 C485 1.391 . S
C485 H473 0.950 . S
C485 C481 1.393 . S
C485 C484 1.391 . S
C486 H476 0.950 . S
C486 C487 1.386 . S
C486 C488 1.391 . S
C487 C486 1.386 . S
C487 C491 1.393 . S
C488 H477 0.950 . S
C488 C486 1.391 . S
C488 C489 1.400 . S
C489 C483 1.491 . S
C489 C488 1.400 . S
C489 C490 1.398 . S
C490 H478 0.950 . S
C490 C489 1.398 . S
C490 C491 1.391 . S
C491 H479 0.950 . S
C491 C487 1.393 . S
C491 C490 1.391 . S
H492 C500 0.950 . S
H493 C505 0.950 . S
H494 C502 0.950 . S
H495 C504 0.950 . S
H496 C506 0.950 . S
H497 C508 0.950 . S
H498 C510 0.950 . S
H499 C511 0.950 . S
C500 H492 0.950 . S
C500 C501 1.386 . S
C500 C502 1.391 . S
C501 C500 1.386 . S
C501 C505 1.393 . S
C502 H494 0.950 . S
C502 C500 1.391 . S
C502 C503 1.400 . S
C503 C502 1.400 . S
C503 C504 1.398 . S
C503 C509 1.491 . S
C504 H495 0.950 . S
C504 C503 1.398 . S
C504 C505 1.391 . S
C505 H493 0.950 . S
C505 C501 1.393 . S
C505 C504 1.391 . S
C506 H496 0.950 . S
C506 C507 1.386 . S
C506 C508 1.391 . S
C507 C506 1.386 . S
C507 C511 1.393 . S
C508 H497 0.950 . S
C508 C506 1.391 . S
C508 C509 1.400 . S
C509 C503 1.491 . S
C509 C508 1.400 . S
C509 C510 1.398 . S
C510 H498 0.950 . S
C510 C509 1.398 . S
C510 C511 1.391 . S
C511 H499 0.950 . S
C511 C507 1.393 . S
C511 C510 1.391 . S
H512 C520 0.950 . S
H513 C525 0.950 . S
H514 C522 0.950 . S
H515 C524 0.950 1_556 S
H516 C526 0.950 . S
H517 C528 0.950 . S
H518 C530 0.950 . S
H519 C531 0.950 . S
C520 H512 0.950 . S
C520 C521 1.386 . S
C520 C522 1.391 . S
C521 C520 1.386 . S
C521 C525 1.393 . S
C522 H514 0.950 . S
C522 C520 1.391 . S
C522 C523 1.400 . S
C523 C522 1.400 . S
C523 C524 1.398 . S
C523 C529 1.491 . S
C524 H515 0.950 1_554 S
C524 C523 1.398 . S
C524 C525 1.391 . S
C525 H513 0.950 . S
C525 C521 1.393 . S
C525 C524 1.391 . S
C526 H516 0.950 . S
C526 C527 1.386 . S
C526 C528 1.391 . S
C527 C526 1.386 . S
C527 C531 1.393 1_556 S
C528 H517 0.950 . S
C528 C526 1.391 . S
C528 C529 1.400 1_556 S
C529 C523 1.491 . S
C529 C528 1.400 1_554 S
C529 C530 1.398 . S
C530 H518 0.950 . S
C530 C529 1.398 . S
C530 C531 1.391 . S
C531 H519 0.950 . S
C531 C527 1.393 1_554 S
C531 C530 1.391 . S
H532 C540 0.950 . S
H533 C545 0.964 . S
H534 C542 0.950 . S
H535 C544 0.950 . S
H536 C546 0.950 . S
H537 C548 0.950 . S
H538 C550 0.950 1_556 S
H539 C551 0.950 . S
C540 H532 0.950 . S
C540 C541 1.386 . S
C540 C542 1.391 . S
C541 C540 1.386 . S
C541 C545 1.359 1_556 S
C542 H534 0.950 . S
C542 C540 1.391 . S
C542 C543 1.400 1_556 S
C543 C542 1.400 1_554 S
C543 C544 1.398 . S
C543 C549 1.491 . S
C544 H535 0.950 . S
C544 C543 1.398 . S
C544 C545 1.411 . S
C545 H533 0.964 . S
C545 C541 1.359 1_554 S
C545 C544 1.411 . S
C546 H536 0.950 . S
C546 C547 1.386 . S
C546 C548 1.391 . S
C547 C546 1.386 . S
C547 C551 1.393 . S
C548 H537 0.950 . S
C548 C546 1.391 . S
C548 C549 1.400 . S
C549 C543 1.491 . S
C549 C548 1.400 . S
C549 C550 1.398 . S
C550 H538 0.950 1_554 S
C550 C549 1.398 . S
C550 C551 1.391 . S
C551 H539 0.950 . S
C551 C547 1.393 . S
C551 C550 1.391 . S
H552 C560 0.950 . S
H553 C565 0.950 . S
H554 C562 0.950 . S
H555 C564 0.950 . S
H556 C566 0.950 . S
H557 C568 0.950 . S
H558 C570 0.950 . S
H559 C571 0.950 . S
C560 H552 0.950 . S
C560 C561 1.386 . S
C560 C562 1.391 . S
C561 C560 1.386 . S
C561 C565 1.393 . S
C562 H554 0.950 . S
C562 C560 1.391 . S
C562 C563 1.400 . S
C563 C562 1.400 . S
C563 C564 1.398 . S
C563 C569 1.491 . S
C564 H555 0.950 . S
C564 C563 1.398 . S
C564 C565 1.391 . S
C565 H553 0.950 . S
C565 C561 1.393 . S
C565 C564 1.391 . S
C566 H556 0.950 . S
C566 C567 1.386 . S
C566 C568 1.391 . S
C567 C566 1.386 . S
C567 C571 1.393 . S
C568 H557 0.950 . S
C568 C566 1.391 . S
C568 C569 1.400 . S
C569 C563 1.491 . S
C569 C568 1.400 . S
C569 C570 1.398 . S
C570 H558 0.950 . S
C570 C569 1.398 . S
C570 C571 1.391 . S
C571 H559 0.950 . S
C571 C567 1.393 . S
C571 C570 1.391 . S
H572 C580 0.950 . S
H573 C585 0.950 . S
H574 C582 0.950 . S
H575 C584 0.950 . S
H576 C586 0.950 . S
H577 C588 0.950 . S
H578 C590 0.950 . S
H579 C591 0.950 . S
C580 H572 0.950 . S
C580 C581 1.386 . S
C580 C582 1.391 . S
C581 C580 1.386 . S
C581 C585 1.393 . S
C582 H574 0.950 . S
C582 C580 1.391 . S
C582 C583 1.400 . S
C583 C582 1.400 . S
C583 C584 1.398 . S
C583 C589 1.491 . S
C584 H575 0.950 . S
C584 C583 1.398 . S
C584 C585 1.391 . S
C585 H573 0.950 . S
C585 C581 1.393 . S
C585 C584 1.391 . S
C586 H576 0.950 . S
C586 C587 1.386 . S
C586 C588 1.391 . S
C587 C586 1.386 . S
C587 C591 1.393 . S
C588 H577 0.950 . S
C588 C586 1.391 . S
C588 C589 1.400 . S
C589 C583 1.491 . S
C589 C588 1.400 . S
C589 C590 1.398 . S
C590 H578 0.950 . S
C590 C589 1.398 . S
C590 C591 1.391 . S
C591 H579 0.950 . S
C591 C587 1.393 . S
C591 C590 1.391 . S
H592 C600 0.950 . S
H593 C605 0.950 . S
H594 C602 0.950 . S
H595 C604 0.950 . S
H596 C606 0.950 . S
H597 C608 0.950 . S
H598 C610 0.950 . S
H599 C611 0.950 . S
C600 H592 0.950 . S
C600 C601 1.386 . S
C600 C602 1.391 . S
C601 C600 1.386 . S
C601 C605 1.393 . S
C602 H594 0.950 . S
C602 C600 1.391 . S
C602 C603 1.400 . S
C603 C602 1.400 . S
C603 C604 1.398 . S
C603 C609 1.491 . S
C604 H595 0.950 . S
C604 C603 1.398 . S
C604 C605 1.391 . S
C605 H593 0.950 . S
C605 C601 1.393 . S
C605 C604 1.391 . S
C606 H596 0.950 . S
C606 C607 1.386 . S
C606 C608 1.391 . S
C607 C606 1.386 . S
C607 C611 1.393 . S
C608 H597 0.950 . S
C608 C606 1.391 . S
C608 C609 1.400 . S
C609 C603 1.491 . S
C609 C608 1.400 . S
C609 C610 1.398 . S
C610 H598 0.950 . S
C610 C609 1.398 . S
C610 C611 1.391 . S
C611 H599 0.950 . S
C611 C607 1.393 . S
C611 C610 1.391 . S
H612 C620 0.950 . S
H613 C625 0.950 . S
H614 C622 0.950 . S
H615 C624 0.950 . S
H616 C626 0.950 . S
H617 C628 0.950 . S
H618 C630 0.950 . S
H619 C631 0.950 . S
C620 H612 0.950 . S
C620 C621 1.386 . S
C620 C622 1.391 . S
C621 C620 1.386 . S
C621 C625 1.393 . S
C622 H614 0.950 . S
C622 C620 1.391 . S
C622 C623 1.400 . S
C623 C622 1.400 . S
C623 C624 1.398 . S
C623 C629 1.491 . S
C624 H615 0.950 . S
C624 C623 1.398 . S
C624 C625 1.391 . S
C625 H613 0.950 . S
C625 C621 1.393 . S
C625 C624 1.391 . S
C626 H616 0.950 . S
C626 C627 1.386 . S
C626 C628 1.391 . S
C627 C626 1.386 . S
C627 C631 1.393 . S
C628 H617 0.950 . S
C628 C626 1.391 . S
C628 C629 1.400 . S
C629 C623 1.491 . S
C629 C628 1.400 . S
C629 C630 1.398 . S
C630 H618 0.950 . S
C630 C629 1.398 . S
C630 C631 1.391 . S
C631 H619 0.950 . S
C631 C627 1.393 . S
C631 C630 1.391 . S
H632 C640 0.950 . S
H633 C645 0.950 . S
H634 C642 0.950 . S
H635 C644 0.950 . S
H636 C646 0.950 . S
H637 C648 0.950 . S
H638 C650 0.950 . S
H639 C651 0.950 . S
C640 H632 0.950 . S
C640 C641 1.386 . S
C640 C642 1.391 . S
C641 C640 1.386 . S
C641 C645 1.393 . S
C642 H634 0.950 . S
C642 C640 1.391 . S
C642 C643 1.400 . S
C643 C642 1.400 . S
C643 C644 1.398 . S
C643 C649 1.491 . S
C644 H635 0.950 . S
C644 C643 1.398 . S
C644 C645 1.391 . S
C645 H633 0.950 . S
C645 C641 1.393 . S
C645 C644 1.391 . S
C646 H636 0.950 . S
C646 C647 1.386 . S
C646 C648 1.391 . S
C647 C646 1.386 . S
C647 C651 1.393 . S
C648 H637 0.950 . S
C648 C646 1.391 . S
C648 C649 1.400 . S
C649 C643 1.491 . S
C649 C648 1.400 . S
C649 C650 1.398 . S
C650 H638 0.950 . S
C650 C649 1.398 . S
C650 C651 1.391 . S
C651 H639 0.950 . S
C651 C647 1.393 . S
C651 C650 1.391 . S
H652 C660 0.950 . S
H653 C665 0.950 . S
H654 C662 0.950 . S
H655 C664 0.950 . S
H656 C666 0.950 . S
H657 C668 0.950 . S
H658 C670 0.950 . S
H659 C671 0.950 . S
C660 H652 0.950 . S
C660 C661 1.386 . S
C660 C662 1.391 . S
C661 C660 1.386 . S
C661 C665 1.393 . S
C662 H654 0.950 . S
C662 C660 1.391 . S
C662 C663 1.400 . S
C663 C662 1.400 . S
C663 C664 1.398 . S
C663 C669 1.491 . S
C664 H655 0.950 . S
C664 C663 1.398 . S
C664 C665 1.391 . S
C665 H653 0.950 . S
C665 C661 1.393 . S
C665 C664 1.391 . S
C666 H656 0.950 . S
C666 C667 1.386 . S
C666 C668 1.391 . S
C667 C666 1.386 . S
C667 C671 1.393 . S
C668 H657 0.950 . S
C668 C666 1.391 . S
C668 C669 1.400 . S
C669 C663 1.491 . S
C669 C668 1.400 . S
C669 C670 1.398 . S
C670 H658 0.950 . S
C670 C669 1.398 . S
C670 C671 1.391 . S
C671 H659 0.950 . S
C671 C667 1.393 . S
C671 C670 1.391 . S
C281 C5 0.655 . S
C287 C141 0.655 . S
C301 C175 0.612 . S
C307 C39 0.612 . S
C321 C209 0.634 . S
C327 C73 0.634 . S
C341 C107 0.566 . S
C347 C243 0.566 . S
C361 C36 1.889 . S
C367 C2 1.890 . S
C381 C70 1.895 . S
C387 C104 1.893 . S
C401 C138 1.881 . S
C407 C172 1.900 . S
C421 C240 1.881 . S
C427 C206 1.903 . S
C441 C33 1.481 . S
C447 C190 1.413 . S
C461 C156 1.396 . S
C467 C67 1.488 . S
C481 C258 1.405 . S
C487 C101 1.484 . S
C501 C224 1.399 . S
C507 C135 1.486 . S
C521 C54 1.424 . S
C527 C169 1.476 . S
C541 C203 1.488 . S
C547 C20 1.396 . S
C561 C237 1.475 . S
C567 C122 1.427 . S
C581 C88 1.428 . S
C587 C271 1.474 . S
C601 C77 1.339 . S
C607 C9 1.348 . S
C621 C43 1.356 . S
C627 C111 1.351 . S
C641 C213 1.353 . S
C647 C145 1.344 . S
C661 C247 1.336 . S
C667 C179 1.339 . S
