# Generated by pormake.
# Topology pcu-i, (5)-cn, num edge types: 1
# Building blocks:
#     Node 0, Type 0, BuildingBlock: XOMCOT_clean_sbu_0, # of connection points: 5
#     Node 1, Type 0, BuildingBlock: XOMCOT_clean_sbu_0, # of connection points: 5
#     Node 2, Type 0, BuildingBlock: XOMCOT_clean_sbu_0, # of connection points: 5
#     Node 3, Type 0, BuildingBlock: XOMCOT_clean_sbu_0, # of connection points: 5
#     Node 4, Type 0, BuildingBlock: XOMCOT_clean_sbu_0, # of connection points: 5
#     Node 5, Type 0, BuildingBlock: XOMCOT_clean_sbu_0, # of connection points: 5
#     Node 6, Type 0, BuildingBlock: XOMCOT_clean_sbu_0, # of connection points: 5
#     Node 7, Type 0, BuildingBlock: XOMCOT_clean_sbu_0, # of connection points: 5
#     Node 8, Type 0, BuildingBlock: XOMCOT_clean_sbu_0, # of connection points: 5
#     Node 9, Type 0, BuildingBlock: XOMCOT_clean_sbu_0, # of connection points: 5
#     Node 10, Type 0, BuildingBlock: XOMCOT_clean_sbu_0, # of connection points: 5
#     Node 11, Type 0, BuildingBlock: XOMCOT_clean_sbu_0, # of connection points: 5
#     Node 12, Type 0, BuildingBlock: XOMCOT_clean_sbu_0, # of connection points: 5
#     Node 13, Type 0, BuildingBlock: XOMCOT_clean_sbu_0, # of connection points: 5
#     Node 14, Type 0, BuildingBlock: XOMCOT_clean_sbu_0, # of connection points: 5
#     Node 15, Type 0, BuildingBlock: XOMCOT_clean_sbu_0, # of connection points: 5
#     Node 16, Type 0, BuildingBlock: XOMCOT_clean_sbu_0, # of connection points: 5
#     Node 17, Type 0, BuildingBlock: XOMCOT_clean_sbu_0, # of connection points: 5
#     Node 18, Type 0, BuildingBlock: XOMCOT_clean_sbu_0, # of connection points: 5
#     Node 19, Type 0, BuildingBlock: XOMCOT_clean_sbu_0, # of connection points: 5
#     Node 20, Type 0, BuildingBlock: XOMCOT_clean_sbu_0, # of connection points: 5
#     Node 21, Type 0, BuildingBlock: XOMCOT_clean_sbu_0, # of connection points: 5
#     Node 22, Type 0, BuildingBlock: XOMCOT_clean_sbu_0, # of connection points: 5
#     Node 23, Type 0, BuildingBlock: XOMCOT_clean_sbu_0, # of connection points: 5
#     Edge 24, Type (0, 0), BuildingBlock: TEMPAE_clean_linker_10, # of connection points: 2
#     Edge 25, Type (0, 0), BuildingBlock: TEMPAE_clean_linker_10, # of connection points: 2
#     Edge 26, Type (0, 0), BuildingBlock: TEMPAE_clean_linker_10, # of connection points: 2
#     Edge 27, Type (0, 0), BuildingBlock: TEMPAE_clean_linker_10, # of connection points: 2
#     Edge 28, Type (0, 0), BuildingBlock: TEMPAE_clean_linker_10, # of connection points: 2
#     Edge 29, Type (0, 0), BuildingBlock: TEMPAE_clean_linker_10, # of connection points: 2
#     Edge 30, Type (0, 0), BuildingBlock: TEMPAE_clean_linker_10, # of connection points: 2
#     Edge 31, Type (0, 0), BuildingBlock: TEMPAE_clean_linker_10, # of connection points: 2
#     Edge 32, Type (0, 0), BuildingBlock: TEMPAE_clean_linker_10, # of connection points: 2
#     Edge 33, Type (0, 0), BuildingBlock: TEMPAE_clean_linker_10, # of connection points: 2
#     Edge 34, Type (0, 0), BuildingBlock: TEMPAE_clean_linker_10, # of connection points: 2
#     Edge 35, Type (0, 0), BuildingBlock: TEMPAE_clean_linker_10, # of connection points: 2
#     Edge 36, Type (0, 0), BuildingBlock: TEMPAE_clean_linker_10, # of connection points: 2
#     Edge 37, Type (0, 0), BuildingBlock: TEMPAE_clean_linker_10, # of connection points: 2
#     Edge 38, Type (0, 0), BuildingBlock: TEMPAE_clean_linker_10, # of connection points: 2
#     Edge 39, Type (0, 0), BuildingBlock: TEMPAE_clean_linker_10, # of connection points: 2
#     Edge 40, Type (0, 0), BuildingBlock: TEMPAE_clean_linker_10, # of connection points: 2
#     Edge 41, Type (0, 0), BuildingBlock: TEMPAE_clean_linker_10, # of connection points: 2
#     Edge 42, Type (0, 0), BuildingBlock: TEMPAE_clean_linker_10, # of connection points: 2
#     Edge 43, Type (0, 0), BuildingBlock: TEMPAE_clean_linker_10, # of connection points: 2
#     Edge 44, Type (0, 0), BuildingBlock: TEMPAE_clean_linker_10, # of connection points: 2
#     Edge 45, Type (0, 0), BuildingBlock: TEMPAE_clean_linker_10, # of connection points: 2
#     Edge 46, Type (0, 0), BuildingBlock: TEMPAE_clean_linker_10, # of connection points: 2
#     Edge 47, Type (0, 0), BuildingBlock: TEMPAE_clean_linker_10, # of connection points: 2
#     Edge 48, Type (0, 0), BuildingBlock: TEMPAE_clean_linker_10, # of connection points: 2
#     Edge 49, Type (0, 0), BuildingBlock: TEMPAE_clean_linker_10, # of connection points: 2
#     Edge 50, Type (0, 0), BuildingBlock: TEMPAE_clean_linker_10, # of connection points: 2
#     Edge 51, Type (0, 0), BuildingBlock: TEMPAE_clean_linker_10, # of connection points: 2
#     Edge 52, Type (0, 0), BuildingBlock: TEMPAE_clean_linker_10, # of connection points: 2
#     Edge 53, Type (0, 0), BuildingBlock: TEMPAE_clean_linker_10, # of connection points: 2
#     Edge 54, Type (0, 0), BuildingBlock: TEMPAE_clean_linker_10, # of connection points: 2
#     Edge 55, Type (0, 0), BuildingBlock: TEMPAE_clean_linker_10, # of connection points: 2
#     Edge 56, Type (0, 0), BuildingBlock: TEMPAE_clean_linker_10, # of connection points: 2
#     Edge 57, Type (0, 0), BuildingBlock: TEMPAE_clean_linker_10, # of connection points: 2
#     Edge 58, Type (0, 0), BuildingBlock: TEMPAE_clean_linker_10, # of connection points: 2
#     Edge 59, Type (0, 0), BuildingBlock: TEMPAE_clean_linker_10, # of connection points: 2
#     Edge 60, Type (0, 0), BuildingBlock: TEMPAE_clean_linker_10, # of connection points: 2
#     Edge 61, Type (0, 0), BuildingBlock: TEMPAE_clean_linker_10, # of connection points: 2
#     Edge 62, Type (0, 0), BuildingBlock: TEMPAE_clean_linker_10, # of connection points: 2
#     Edge 63, Type (0, 0), BuildingBlock: TEMPAE_clean_linker_10, # of connection points: 2
#     Edge 64, Type (0, 0), BuildingBlock: TEMPAE_clean_linker_10, # of connection points: 2
#     Edge 65, Type (0, 0), BuildingBlock: TEMPAE_clean_linker_10, # of connection points: 2
#     Edge 66, Type (0, 0), BuildingBlock: TEMPAE_clean_linker_10, # of connection points: 2
#     Edge 67, Type (0, 0), BuildingBlock: TEMPAE_clean_linker_10, # of connection points: 2
#     Edge 68, Type (0, 0), BuildingBlock: TEMPAE_clean_linker_10, # of connection points: 2
#     Edge 69, Type (0, 0), BuildingBlock: TEMPAE_clean_linker_10, # of connection points: 2
#     Edge 70, Type (0, 0), BuildingBlock: TEMPAE_clean_linker_10, # of connection points: 2
#     Edge 71, Type (0, 0), BuildingBlock: TEMPAE_clean_linker_10, # of connection points: 2
#     Edge 72, Type (0, 0), BuildingBlock: TEMPAE_clean_linker_10, # of connection points: 2
#     Edge 73, Type (0, 0), BuildingBlock: TEMPAE_clean_linker_10, # of connection points: 2
#     Edge 74, Type (0, 0), BuildingBlock: TEMPAE_clean_linker_10, # of connection points: 2
#     Edge 75, Type (0, 0), BuildingBlock: TEMPAE_clean_linker_10, # of connection points: 2
#     Edge 76, Type (0, 0), BuildingBlock: TEMPAE_clean_linker_10, # of connection points: 2
#     Edge 77, Type (0, 0), BuildingBlock: TEMPAE_clean_linker_10, # of connection points: 2
#     Edge 78, Type (0, 0), BuildingBlock: TEMPAE_clean_linker_10, # of connection points: 2
#     Edge 79, Type (0, 0), BuildingBlock: TEMPAE_clean_linker_10, # of connection points: 2
#     Edge 80, Type (0, 0), BuildingBlock: TEMPAE_clean_linker_10, # of connection points: 2
#     Edge 81, Type (0, 0), BuildingBlock: TEMPAE_clean_linker_10, # of connection points: 2
#     Edge 82, Type (0, 0), BuildingBlock: TEMPAE_clean_linker_10, # of connection points: 2
#     Edge 83, Type (0, 0), BuildingBlock: TEMPAE_clean_linker_10, # of connection points: 2
# Relax obj value: 0.306
# Max RMSD: 0.283
# Mean RMSD: 0.283
data_MOF--net-pcu-i--node1-XOMCOT_clean_sbu_0--edge1-TEMPAE_clean_linker_10
_symmetry_space_group_name_H-M    P1
_symmetry_Int_Tables_number       1
_symmetry_cell_setting            triclinic
loop_
_symmetry_equiv_pos_as_xyz
'x, y, z'
_cell_length_a     56.9073
_cell_length_b     57.001637
_cell_length_c     56.920105
_cell_angle_alpha  89.960519
_cell_angle_beta   90.012529
_cell_angle_gamma 89.980535
loop_
_atom_site_label
_atom_site_type_symbol
_atom_site_fract_x
_atom_site_fract_y
_atom_site_fract_z
_atom_type_partial_charge
Co0 Co 0.13338 0.15026 0.33836 0.0
C1 C 0.0806 0.14727 0.34387 0.0
C2 C 0.09151 0.17114 0.317 0.0
C3 C 0.0675 0.1702 0.31683 0.0
N4 N 0.1 0.15768 0.33466 0.0
N5 N 0.06063 0.15518 0.33362 0.0
H6 H 0.08092 0.13333 0.35674 0.0
H7 H 0.10192 0.17977 0.30372 0.0
C8 C 0.13488 0.20134 0.32705 0.0
O9 O 0.12043 0.20471 0.34474 0.0
N10 N 0.16643 0.14277 0.33984 0.0
C11 C 0.17955 0.13404 0.35754 0.0
C12 C 0.20237 0.13131 0.34955 0.0
C13 C 0.18107 0.14469 0.32139 0.0
N14 N 0.20306 0.13789 0.32678 0.0
C15 C 0.12196 0.15421 0.38696 0.0
C16 C 0.15936 0.18257 0.3994 0.0
C17 C 0.14686 0.17084 0.41705 0.0
C18 C 0.12746 0.15725 0.41064 0.0
C19 C 0.15337 0.1789 0.37573 0.0
N20 N 0.13524 0.16425 0.3697 0.0
H21 H 0.1084 0.14186 0.38265 0.0
H22 H 0.16469 0.18609 0.36231 0.0
H23 H 0.17301 0.12987 0.3749 0.0
H24 H 0.17567 0.15089 0.30423 0.0
O25 O 0.1258 0.11912 0.3483 0.0
O26 O 0.13091 0.12965 0.31115 0.0
O27 O 0.14208 0.18065 0.32225 0.0
C28 C 0.12655 0.11306 0.32637 0.0
H29 H 0.05598 0.17864 0.30425 0.0
H30 H 0.2171 0.12444 0.35942 0.0
H31 H 0.17469 0.19297 0.40372 0.0
H32 H 0.1175 0.14779 0.42382 0.0
Co33 Co 0.84909 0.13316 0.3497 0.0
C34 C 0.85477 0.08155 0.34235 0.0
C35 C 0.82212 0.09034 0.35891 0.0
C36 C 0.82255 0.0666 0.35499 0.0
N37 N 0.84247 0.09977 0.35135 0.0
N38 N 0.84302 0.06098 0.34436 0.0
H39 H 0.87157 0.08337 0.33373 0.0
H40 H 0.80759 0.10012 0.36625 0.0
C41 C 0.80771 0.15262 0.32104 0.0
O42 O 0.81185 0.17433 0.32748 0.0
N43 N 0.8558 0.16631 0.34726 0.0
C44 C 0.85932 0.18216 0.36445 0.0
C45 C 0.86457 0.2035 0.35421 0.0
C46 C 0.86002 0.17784 0.32704 0.0
N47 N 0.86485 0.20074 0.33063 0.0
C48 C 0.83977 0.1267 0.39783 0.0
C49 C 0.80493 0.15989 0.40364 0.0
C50 C 0.81492 0.1495 0.42367 0.0
C51 C 0.8321 0.13217 0.42035 0.0
C52 C 0.81325 0.15389 0.38123 0.0
N53 N 0.83112 0.13807 0.37858 0.0
H54 H 0.85364 0.11389 0.39593 0.0
H55 H 0.806 0.16296 0.3665 0.0
H56 H 0.85818 0.17853 0.38307 0.0
H57 H 0.85828 0.1697 0.30996 0.0
O58 O 0.87901 0.12905 0.36467 0.0
O59 O 0.87362 0.12758 0.32623 0.0
O60 O 0.82048 0.13563 0.32843 0.0
C61 C 0.88817 0.12676 0.34399 0.0
H62 H 0.80864 0.05455 0.35962 0.0
H63 H 0.86785 0.21974 0.36347 0.0
H64 H 0.79137 0.17311 0.40526 0.0
H65 H 0.84074 0.12377 0.43506 0.0
Co66 Co 0.87228 0.85393 0.34539 0.0
C67 C 0.92453 0.8605 0.34252 0.0
C68 C 0.91443 0.82564 0.35251 0.0
C69 C 0.93843 0.82629 0.35025 0.0
N70 N 0.90564 0.84706 0.34775 0.0
N71 N 0.94486 0.84821 0.34396 0.0
H72 H 0.92352 0.87875 0.33754 0.0
H73 H 0.90399 0.81034 0.35668 0.0
C74 C 0.85297 0.81066 0.31945 0.0
O75 O 0.83108 0.81495 0.32524 0.0
N76 N 0.83913 0.8608 0.34207 0.0
C77 C 0.8237 0.86793 0.35859 0.0
C78 C 0.80248 0.87277 0.34778 0.0
C79 C 0.82749 0.8624 0.3215 0.0
N80 N 0.80498 0.86897 0.32454 0.0
C81 C 0.88028 0.84662 0.39358 0.0
C82 C 0.84369 0.81627 0.40301 0.0
C83 C 0.85635 0.82588 0.42191 0.0
C84 C 0.87525 0.84077 0.41675 0.0
C85 C 0.84938 0.82264 0.37986 0.0
N86 N 0.86713 0.83816 0.37541 0.0
H87 H 0.89411 0.85918 0.3903 0.0
H88 H 0.83851 0.81617 0.36595 0.0
H89 H 0.82761 0.86961 0.37711 0.0
H90 H 0.83527 0.85837 0.30462 0.0
O91 O 0.87653 0.88456 0.35827 0.0
O92 O 0.87826 0.87655 0.32023 0.0
O93 O 0.86971 0.82397 0.32634 0.0
C94 C 0.87888 0.89224 0.33697 0.0
H95 H 0.9501 0.81144 0.35229 0.0
H96 H 0.78637 0.87813 0.35634 0.0
H97 H 0.82902 0.80457 0.40609 0.0
H98 H 0.88531 0.84914 0.43054 0.0
Co99 Co 0.15207 0.87277 0.33706 0.0
C100 C 0.1519 0.92426 0.32792 0.0
C101 C 0.17805 0.9152 0.35336 0.0
C102 C 0.17865 0.939 0.34991 0.0
N103 N 0.16103 0.90579 0.33981 0.0
N104 N 0.16221 0.94484 0.33384 0.0
H105 H 0.13804 0.92269 0.31508 0.0
H106 H 0.1893 0.90574 0.36533 0.0
C107 C 0.20252 0.86942 0.3205 0.0
O108 O 0.21013 0.87556 0.34135 0.0
N109 N 0.14326 0.84033 0.33353 0.0
C110 C 0.13189 0.82642 0.34892 0.0
C111 C 0.12887 0.80466 0.33875 0.0
C112 C 0.14669 0.82718 0.31424 0.0
N113 N 0.13815 0.80527 0.31692 0.0
C114 C 0.15967 0.87609 0.38595 0.0
C115 C 0.1872 0.83649 0.39125 0.0
C116 C 0.17867 0.84787 0.41143 0.0
C117 C 0.16506 0.86815 0.40839 0.0
C118 C 0.18135 0.84511 0.36887 0.0
N119 N 0.16773 0.86476 0.36645 0.0
H120 H 0.14797 0.89092 0.38419 0.0
H121 H 0.18668 0.83528 0.35353 0.0
H122 H 0.12623 0.83173 0.36626 0.0
H123 H 0.15548 0.83351 0.29863 0.0
O124 O 0.12189 0.8794 0.35062 0.0
O125 O 0.1295 0.88025 0.31243 0.0
O126 O 0.18054 0.86715 0.31652 0.0
C127 C 0.11419 0.88228 0.32938 0.0
H128 H 0.19008 0.95099 0.35916 0.0
H129 H 0.12025 0.78969 0.34666 0.0
H130 H 0.19762 0.82066 0.39267 0.0
H131 H 0.15729 0.87718 0.42322 0.0
Co132 Co 0.12987 0.84693 0.65175 0.0
C133 C 0.0781 0.85409 0.65834 0.0
C134 C 0.08677 0.82005 0.64482 0.0
C135 C 0.06299 0.82088 0.64877 0.0
N136 N 0.09631 0.84092 0.65056 0.0
N137 N 0.05752 0.84225 0.65731 0.0
H138 H 0.07979 0.87176 0.66499 0.0
H139 H 0.09659 0.80488 0.63902 0.0
C140 C 0.14898 0.8053 0.68006 0.0
O141 O 0.17084 0.80969 0.67423 0.0
N142 N 0.16337 0.85293 0.65368 0.0
C143 C 0.17931 0.85439 0.6362 0.0
C144 C 0.20113 0.85854 0.64593 0.0
C145 C 0.17543 0.85757 0.67355 0.0
N146 N 0.19857 0.86045 0.6694 0.0
C147 C 0.12203 0.83861 0.60372 0.0
C148 C 0.15474 0.80355 0.59653 0.0
C149 C 0.14406 0.81411 0.57691 0.0
C150 C 0.12694 0.83134 0.58095 0.0
C151 C 0.14922 0.8114 0.61926 0.0
N152 N 0.13377 0.82948 0.62251 0.0
H153 H 0.10949 0.85262 0.60618 0.0
H154 H 0.15856 0.80392 0.63382 0.0
H155 H 0.17551 0.85247 0.61769 0.0
H156 H 0.16761 0.85742 0.69089 0.0
O157 O 0.12614 0.87725 0.63765 0.0
O158 O 0.12514 0.87072 0.67598 0.0
O159 O 0.1321 0.81784 0.67213 0.0
C160 C 0.12446 0.88579 0.65867 0.0
H161 H 0.05084 0.80647 0.64643 0.0
H162 H 0.2176 0.85997 0.63653 0.0
H163 H 0.16785 0.78995 0.59433 0.0
H164 H 0.11832 0.84036 0.56659 0.0
Co165 Co 0.15565 0.12853 0.66729 0.0
C166 C 0.15232 0.07604 0.66304 0.0
C167 C 0.17833 0.08687 0.68786 0.0
C168 C 0.1769 0.06292 0.68855 0.0
N169 N 0.16373 0.09535 0.67111 0.0
N170 N 0.16051 0.05612 0.67304 0.0
H171 H 0.13752 0.07647 0.65113 0.0
H172 H 0.18795 0.09718 0.70048 0.0
C173 C 0.2067 0.13232 0.67938 0.0
O174 O 0.21116 0.11877 0.66125 0.0
N175 N 0.14732 0.16126 0.66564 0.0
C176 C 0.13542 0.17336 0.64912 0.0
C177 C 0.13106 0.19569 0.6577 0.0
C178 C 0.14972 0.17598 0.68388 0.0
N179 N 0.13991 0.19706 0.67967 0.0
C180 C 0.16226 0.11585 0.61933 0.0
C181 C 0.18601 0.15606 0.60613 0.0
C182 C 0.17583 0.14195 0.58868 0.0
C183 C 0.16491 0.12106 0.59555 0.0
C184 C 0.18299 0.15014 0.62993 0.0
N185 N 0.17032 0.13071 0.6363 0.0
H186 H 0.1516 0.101 0.62387 0.0
H187 H 0.18896 0.16234 0.64318 0.0
H188 H 0.1297 0.16627 0.63245 0.0
H189 H 0.15799 0.17103 0.70028 0.0
O190 O 0.12497 0.1203 0.65642 0.0
O191 O 0.13422 0.12563 0.69388 0.0
O192 O 0.18549 0.13797 0.68419 0.0
C193 C 0.11814 0.12107 0.67813 0.0
H194 H 0.18592 0.05147 0.70077 0.0
H195 H 0.1213 0.20944 0.64891 0.0
H196 H 0.19457 0.1724 0.60157 0.0
H197 H 0.15705 0.10951 0.58264 0.0
Co198 Co 0.87853 0.14932 0.65705 0.0
C199 C 0.92973 0.14871 0.66707 0.0
C200 C 0.92231 0.17266 0.63909 0.0
C201 C 0.94606 0.17286 0.64329 0.0
N202 N 0.91189 0.15721 0.65378 0.0
N203 N 0.95082 0.1578 0.66095 0.0
H204 H 0.92734 0.13635 0.68124 0.0
H205 H 0.91358 0.18357 0.6263 0.0
C206 C 0.87937 0.19815 0.67643 0.0
O207 O 0.8875 0.20573 0.65625 0.0
N208 N 0.84584 0.14145 0.66136 0.0
C209 C 0.83053 0.13308 0.64545 0.0
C210 C 0.80906 0.13017 0.6563 0.0
C211 C 0.83378 0.14311 0.68162 0.0
N212 N 0.81107 0.13649 0.67914 0.0
C213 C 0.87936 0.15967 0.60859 0.0
C214 C 0.84184 0.19046 0.60756 0.0
C215 C 0.85142 0.18252 0.58624 0.0
C216 C 0.87066 0.16721 0.58711 0.0
C217 C 0.8513 0.18252 0.62894 0.0
N218 N 0.86993 0.16732 0.62923 0.0
H219 H 0.89336 0.14686 0.60863 0.0
H220 H 0.84279 0.18747 0.64517 0.0
H221 H 0.8346 0.12963 0.62721 0.0
H222 H 0.84177 0.14891 0.69782 0.0
O223 O 0.88348 0.12012 0.64115 0.0
O224 O 0.88629 0.12484 0.67966 0.0
O225 O 0.87457 0.17647 0.67937 0.0
C226 C 0.88728 0.11081 0.66156 0.0
H227 H 0.95878 0.18318 0.63369 0.0
H228 H 0.79322 0.12417 0.64772 0.0
H229 H 0.82673 0.202 0.60774 0.0
H230 H 0.8782 0.15986 0.57126 0.0
Co231 Co 0.85342 0.86938 0.66935 0.0
C232 C 0.85823 0.92131 0.66175 0.0
C233 C 0.83327 0.91266 0.68847 0.0
C234 C 0.83546 0.93653 0.68778 0.0
N235 N 0.84666 0.90289 0.67144 0.0
N236 N 0.8512 0.94193 0.67109 0.0
H237 H 0.87253 0.91979 0.64935 0.0
H238 H 0.82403 0.90324 0.70206 0.0
C239 C 0.80228 0.86971 0.68019 0.0
O240 O 0.79975 0.88317 0.6616 0.0
N241 N 0.8604 0.83635 0.66932 0.0
C242 C 0.87164 0.8231 0.65326 0.0
C243 C 0.87475 0.80088 0.6626 0.0
C244 C 0.85711 0.82238 0.68803 0.0
N245 N 0.86575 0.80066 0.68456 0.0
C246 C 0.84798 0.87937 0.62048 0.0
C247 C 0.81832 0.84239 0.61023 0.0
C248 C 0.82816 0.85521 0.59158 0.0
C249 C 0.84278 0.87424 0.59713 0.0
C250 C 0.82418 0.84802 0.63347 0.0
N251 N 0.83902 0.86626 0.63839 0.0
H252 H 0.86077 0.8928 0.62392 0.0
H253 H 0.8178 0.83686 0.64744 0.0
H254 H 0.87766 0.8293 0.63634 0.0
H255 H 0.84887 0.82826 0.70412 0.0
O256 O 0.88459 0.87602 0.65871 0.0
O257 O 0.87442 0.87277 0.69623 0.0
O258 O 0.82272 0.86223 0.6859 0.0
C259 C 0.89083 0.87641 0.6806 0.0
H260 H 0.82758 0.94889 0.69988 0.0
H261 H 0.88366 0.78633 0.65424 0.0
H262 H 0.80687 0.82758 0.60694 0.0
H263 H 0.85153 0.88426 0.58354 0.0
Co264 Co 0.33542 0.12972 0.15188 0.0
C265 C 0.33768 0.07726 0.14719 0.0
C266 C 0.31363 0.08855 0.17375 0.0
C267 C 0.31186 0.06469 0.17175 0.0
N268 N 0.33058 0.09658 0.15915 0.0
N269 N 0.32686 0.05764 0.155 0.0
H270 H 0.34929 0.07752 0.13218 0.0
H271 H 0.30174 0.09929 0.18386 0.0
C272 C 0.32869 0.13049 0.20381 0.0
O273 O 0.3461 0.11538 0.2051 0.0
N274 N 0.3382 0.16257 0.14445 0.0
C275 C 0.35239 0.17289 0.12855 0.0
C276 C 0.34411 0.19529 0.12432 0.0
C277 C 0.32174 0.17867 0.14974 0.0
N278 N 0.32487 0.19877 0.13773 0.0
C279 C 0.38365 0.11536 0.15282 0.0
C280 C 0.39974 0.1516 0.18074 0.0
C281 C 0.41628 0.1374 0.16917 0.0
C282 C 0.40781 0.11873 0.15553 0.0
C283 C 0.37563 0.1477 0.17743 0.0
N284 N 0.36778 0.12985 0.1634 0.0
H285 H 0.37791 0.10222 0.1406 0.0
H286 H 0.3633 0.15995 0.18505 0.0
H287 H 0.36665 0.16421 0.11948 0.0
H288 H 0.3065 0.17498 0.16052 0.0
O289 O 0.34242 0.12191 0.11992 0.0
O290 O 0.30656 0.12919 0.13344 0.0
O291 O 0.32235 0.13856 0.18379 0.0
C292 C 0.32015 0.1241 0.11568 0.0
H293 H 0.29928 0.05356 0.18067 0.0
H294 H 0.351 0.20762 0.1116 0.0
H295 H 0.40529 0.16617 0.19159 0.0
H296 H 0.41965 0.10764 0.14563 0.0
Co297 Co 0.86938 0.33798 0.15366 0.0
C298 C 0.92127 0.33088 0.14693 0.0
C299 C 0.91236 0.34491 0.18074 0.0
C300 C 0.93622 0.34163 0.17988 0.0
N301 N 0.90291 0.33839 0.16006 0.0
N302 N 0.94191 0.33266 0.15868 0.0
H303 H 0.91962 0.32377 0.12942 0.0
H304 H 0.9025 0.35145 0.1956 0.0
C305 C 0.84841 0.31346 0.1967 0.0
O306 O 0.82686 0.31945 0.19115 0.0
N307 N 0.83588 0.33706 0.1472 0.0
C308 C 0.82073 0.35508 0.1445 0.0
C309 C 0.7986 0.34612 0.14035 0.0
C310 C 0.82305 0.31754 0.14326 0.0
N311 N 0.80018 0.32254 0.13965 0.0
C312 C 0.87894 0.3862 0.15876 0.0
C313 C 0.84656 0.39663 0.19337 0.0
C314 C 0.8582 0.41511 0.1819 0.0
C315 C 0.87509 0.4095 0.16491 0.0
C316 C 0.8511 0.37335 0.18675 0.0
N317 N 0.86644 0.36848 0.16892 0.0
H318 H 0.89137 0.38243 0.14493 0.0
H319 H 0.84114 0.35965 0.19498 0.0
H320 H 0.82529 0.37346 0.14552 0.0
H321 H 0.83009 0.29992 0.14439 0.0
O322 O 0.87409 0.34948 0.1224 0.0
O323 O 0.87337 0.3118 0.13196 0.0
O324 O 0.86589 0.32003 0.1842 0.0
C325 C 0.87491 0.3278 0.11559 0.0
H326 H 0.94842 0.34582 0.19384 0.0
H327 H 0.78259 0.35613 0.13806 0.0
H328 H 0.83354 0.40014 0.20679 0.0
H329 H 0.8844 0.42304 0.15534 0.0
Co330 Co 0.66259 0.87132 0.15083 0.0
C331 C 0.66964 0.92303 0.14662 0.0
C332 C 0.64671 0.91473 0.17524 0.0
C333 C 0.65009 0.93855 0.17483 0.0
N334 N 0.65886 0.90479 0.15746 0.0
N335 N 0.66449 0.94385 0.1568 0.0
H336 H 0.68099 0.92123 0.13154 0.0
H337 H 0.63591 0.90556 0.18779 0.0
C338 C 0.67779 0.87055 0.20196 0.0
O339 O 0.65625 0.87455 0.20905 0.0
N340 N 0.66734 0.83842 0.14439 0.0
C341 C 0.65283 0.82336 0.13336 0.0
C342 C 0.6641 0.802 0.13137 0.0
C343 C 0.68719 0.8263 0.14866 0.0
N344 N 0.68574 0.80396 0.14094 0.0
C345 C 0.61367 0.87537 0.15792 0.0
C346 C 0.60752 0.83699 0.18696 0.0
C347 C 0.58756 0.84878 0.1784 0.0
C348 C 0.59105 0.86833 0.16384 0.0
C349 C 0.63007 0.84461 0.18042 0.0
N350 N 0.63293 0.86383 0.16628 0.0
H351 H 0.61573 0.88969 0.14563 0.0
H352 H 0.64521 0.83461 0.18607 0.0
H353 H 0.63545 0.8277 0.12699 0.0
H354 H 0.70242 0.83379 0.15719 0.0
O355 O 0.64953 0.8755 0.12001 0.0
O356 O 0.68754 0.87798 0.12834 0.0
O357 O 0.68257 0.86836 0.18012 0.0
C358 C 0.67085 0.87856 0.1126 0.0
H359 H 0.64271 0.95091 0.18721 0.0
H360 H 0.65712 0.78645 0.123 0.0
H361 H 0.60579 0.82167 0.19808 0.0
H362 H 0.57642 0.87754 0.1559 0.0
Co363 Co 0.13741 0.65842 0.14965 0.0
C364 C 0.08505 0.66227 0.14599 0.0
C365 C 0.09673 0.65133 0.18011 0.0
C366 C 0.07273 0.65385 0.18067 0.0
N367 N 0.10451 0.65653 0.15838 0.0
N368 N 0.06536 0.66077 0.15922 0.0
H369 H 0.08517 0.66756 0.12778 0.0
H370 H 0.10786 0.64663 0.19479 0.0
C371 C 0.15989 0.68366 0.19179 0.0
O372 O 0.18142 0.67787 0.18592 0.0
N373 N 0.17014 0.66091 0.1409 0.0
C374 C 0.18481 0.64387 0.13345 0.0
C375 C 0.206 0.65401 0.12729 0.0
C376 C 0.18215 0.68111 0.13827 0.0
N377 N 0.2042 0.67734 0.13064 0.0
C378 C 0.13036 0.60981 0.15567 0.0
C379 C 0.16539 0.60116 0.18813 0.0
C380 C 0.15358 0.58205 0.17802 0.0
C381 C 0.13548 0.58677 0.16195 0.0
C382 C 0.1598 0.62407 0.18116 0.0
N383 N 0.14286 0.62814 0.16464 0.0
H384 H 0.11685 0.61292 0.1427 0.0
H385 H 0.16992 0.63813 0.18835 0.0
H386 H 0.18044 0.62544 0.13251 0.0
H387 H 0.17506 0.69824 0.14245 0.0
O388 O 0.13088 0.64673 0.11872 0.0
O389 O 0.13083 0.68443 0.12845 0.0
O390 O 0.14224 0.67672 0.17973 0.0
C391 C 0.12865 0.66843 0.1122 0.0
H392 H 0.0617 0.65148 0.19597 0.0
H393 H 0.22166 0.64496 0.12144 0.0
H394 H 0.17928 0.59847 0.20085 0.0
H395 H 0.12603 0.57278 0.15324 0.0
Co396 Co 0.33141 0.87377 0.84795 0.0
C397 C 0.33835 0.92575 0.85411 0.0
C398 C 0.31304 0.9175 0.82762 0.0
C399 C 0.31363 0.94133 0.83016 0.0
N400 N 0.3293 0.90748 0.84179 0.0
N401 N 0.32945 0.94651 0.84684 0.0
H402 H 0.35017 0.924 0.86889 0.0
H403 H 0.29994 0.90833 0.81749 0.0
C404 C 0.32016 0.8737 0.79674 0.0
O405 O 0.33893 0.88677 0.79365 0.0
N406 N 0.3313 0.84055 0.85422 0.0
C407 C 0.34762 0.82649 0.86397 0.0
C408 C 0.33858 0.80396 0.86494 0.0
C409 C 0.31266 0.82677 0.84993 0.0
N410 N 0.31654 0.80422 0.85599 0.0
C411 C 0.37993 0.88447 0.84188 0.0
C412 C 0.39102 0.84537 0.81536 0.0
C413 C 0.40917 0.85808 0.82609 0.0
C414 C 0.4034 0.8785 0.83844 0.0
C415 C 0.36758 0.85205 0.81917 0.0
N416 N 0.36225 0.87089 0.83314 0.0
H417 H 0.37616 0.89879 0.85352 0.0
H418 H 0.35374 0.84083 0.81263 0.0
H419 H 0.36479 0.83215 0.86983 0.0
H420 H 0.2963 0.83352 0.84304 0.0
O421 O 0.34269 0.87963 0.87896 0.0
O422 O 0.30497 0.87686 0.86964 0.0
O423 O 0.3144 0.86705 0.81743 0.0
C424 C 0.32099 0.87988 0.88582 0.0
H425 H 0.30205 0.95383 0.82169 0.0
H426 H 0.34764 0.78866 0.87162 0.0
H427 H 0.39476 0.82943 0.80571 0.0
H428 H 0.41692 0.88897 0.84677 0.0
Co429 Co 0.12833 0.33548 0.85258 0.0
C430 C 0.07618 0.33094 0.85748 0.0
C431 C 0.08682 0.34118 0.82282 0.0
C432 C 0.06281 0.33872 0.82305 0.0
N433 N 0.09526 0.33625 0.84438 0.0
N434 N 0.05608 0.33227 0.84486 0.0
H435 H 0.07683 0.32635 0.87587 0.0
H436 H 0.09747 0.34596 0.80783 0.0
C437 C 0.15193 0.31518 0.80836 0.0
O438 O 0.17314 0.32131 0.81496 0.0
N439 N 0.16124 0.33426 0.86091 0.0
C440 C 0.17469 0.35144 0.8701 0.0
C441 C 0.19628 0.34206 0.87607 0.0
C442 C 0.17437 0.31464 0.86227 0.0
N443 N 0.19595 0.31902 0.87083 0.0
C444 C 0.11855 0.38405 0.85079 0.0
C445 C 0.1532 0.39709 0.81943 0.0
C446 C 0.14073 0.41468 0.83135 0.0
C447 C 0.12275 0.40779 0.84674 0.0
C448 C 0.14852 0.37344 0.82415 0.0
N449 N 0.13183 0.36717 0.8402 0.0
H450 H 0.10525 0.37918 0.86342 0.0
H451 H 0.15923 0.36054 0.81572 0.0
H452 H 0.16912 0.36941 0.87262 0.0
H453 H 0.16829 0.29747 0.85685 0.0
O454 O 0.12153 0.34404 0.88448 0.0
O455 O 0.12362 0.30737 0.87148 0.0
O456 O 0.13393 0.32016 0.82089 0.0
C457 C 0.1208 0.32175 0.88908 0.0
H458 H 0.05131 0.34106 0.80809 0.0
H459 H 0.21114 0.35144 0.88331 0.0
H460 H 0.16698 0.4015 0.80708 0.0
H461 H 0.11276 0.42057 0.85665 0.0
Co462 Co 0.65786 0.12792 0.84442 0.0
C463 C 0.66149 0.07574 0.84955 0.0
C464 C 0.65248 0.08654 0.81459 0.0
C465 C 0.65503 0.06256 0.81479 0.0
N466 N 0.6564 0.09486 0.83639 0.0
N467 N 0.66074 0.05575 0.83677 0.0
H468 H 0.66582 0.07631 0.86802 0.0
H469 H 0.64865 0.09729 0.79939 0.0
C470 C 0.68611 0.14942 0.80367 0.0
O471 O 0.67895 0.17082 0.80821 0.0
N472 N 0.66008 0.16078 0.85256 0.0
C473 C 0.64276 0.17584 0.85842 0.0
C474 C 0.65277 0.19715 0.8643 0.0
C475 C 0.68025 0.17268 0.85593 0.0
N476 N 0.67628 0.19503 0.8624 0.0
C477 C 0.60989 0.12085 0.83489 0.0
C478 C 0.60278 0.15709 0.80352 0.0
C479 C 0.58309 0.14585 0.81327 0.0
C480 C 0.58707 0.12692 0.82854 0.0
C481 C 0.62547 0.15055 0.81061 0.0
N482 N 0.62878 0.13325 0.82691 0.0
H483 H 0.6123 0.10697 0.8476 0.0
H484 H 0.63989 0.16045 0.80389 0.0
H485 H 0.62421 0.1717 0.85836 0.0
H486 H 0.69754 0.16531 0.85293 0.0
O487 O 0.64317 0.12243 0.87421 0.0
O488 O 0.68162 0.1215 0.86837 0.0
O489 O 0.67901 0.13192 0.8159 0.0
C490 C 0.66401 0.12003 0.88305 0.0
H491 H 0.6535 0.05114 0.79969 0.0
H492 H 0.64354 0.21311 0.86888 0.0
H493 H 0.60074 0.17146 0.79125 0.0
H494 H 0.57272 0.11771 0.83693 0.0
Co495 Co 0.86507 0.65577 0.85462 0.0
C496 C 0.91735 0.66025 0.86009 0.0
C497 C 0.90686 0.64841 0.8259 0.0
C498 C 0.9308 0.65126 0.82597 0.0
N499 N 0.89835 0.65389 0.84729 0.0
N500 N 0.93746 0.65872 0.84746 0.0
H501 H 0.91659 0.66612 0.87812 0.0
H502 H 0.89623 0.64339 0.81097 0.0
C503 C 0.84446 0.68149 0.81191 0.0
O504 O 0.82277 0.67578 0.81721 0.0
N505 N 0.83194 0.65845 0.86191 0.0
C506 C 0.8162 0.64144 0.86663 0.0
C507 C 0.79479 0.65183 0.87135 0.0
C508 C 0.82027 0.6788 0.86498 0.0
N509 N 0.79735 0.67537 0.8701 0.0
C510 C 0.87286 0.60751 0.84783 0.0
C511 C 0.83888 0.5987 0.81436 0.0
C512 C 0.85093 0.57967 0.82445 0.0
C513 C 0.86847 0.58452 0.84104 0.0
C514 C 0.84384 0.62166 0.82176 0.0
N515 N 0.86025 0.62577 0.83881 0.0
H516 H 0.88595 0.61061 0.86123 0.0
H517 H 0.83361 0.63567 0.81454 0.0
H518 H 0.81994 0.62284 0.86658 0.0
H519 H 0.82826 0.69577 0.86206 0.0
O520 O 0.86993 0.64312 0.88539 0.0
O521 O 0.87102 0.68105 0.87706 0.0
O522 O 0.86172 0.67466 0.82461 0.0
C523 C 0.87211 0.66446 0.8929 0.0
H524 H 0.94228 0.64881 0.81102 0.0
H525 H 0.7786 0.64268 0.87526 0.0
H526 H 0.82531 0.59588 0.80133 0.0
H527 H 0.87804 0.57059 0.84977 0.0
Co528 Co 0.15088 0.34061 0.12885 0.0
C529 C 0.14564 0.33315 0.07698 0.0
C530 C 0.17372 0.3569 0.08462 0.0
C531 C 0.17268 0.35382 0.06082 0.0
N532 N 0.15676 0.34399 0.09505 0.0
N533 N 0.15492 0.339 0.05584 0.0
H534 H 0.13089 0.32142 0.07913 0.0
H535 H 0.18608 0.36825 0.09335 0.0
C536 C 0.20154 0.32464 0.12771 0.0
O537 O 0.20812 0.34568 0.1212 0.0
N538 N 0.14512 0.3366 0.16205 0.0
C539 C 0.13713 0.35278 0.17736 0.0
C540 C 0.13622 0.34278 0.1994 0.0
C541 C 0.14838 0.31688 0.17473 0.0
N542 N 0.14322 0.32026 0.19761 0.0
C543 C 0.15857 0.38931 0.12477 0.0
C544 C 0.19006 0.39456 0.16137 0.0
C545 C 0.18122 0.41466 0.15012 0.0
C546 C 0.16548 0.41167 0.13144 0.0
C547 C 0.18271 0.37224 0.15397 0.0
N548 N 0.16727 0.36985 0.13567 0.0
H549 H 0.14545 0.3876 0.11115 0.0
H550 H 0.18861 0.35696 0.16357 0.0
H551 H 0.13253 0.37063 0.17284 0.0
H552 H 0.15462 0.30049 0.16743 0.0
O553 O 0.12033 0.35434 0.12546 0.0
O554 O 0.12748 0.31627 0.12286 0.0
O555 O 0.17988 0.32011 0.13165 0.0
C556 C 0.11211 0.33331 0.12283 0.0
H557 H 0.18441 0.36186 0.04823 0.0
H558 H 0.13053 0.35125 0.21544 0.0
H559 H 0.20198 0.39606 0.17612 0.0
H560 H 0.15746 0.42656 0.12275 0.0
Co561 Co 0.14398 0.66336 0.86905 0.0
C562 C 0.14113 0.66712 0.92162 0.0
C563 C 0.17577 0.65931 0.90893 0.0
C564 C 0.17674 0.66142 0.93291 0.0
N565 N 0.15349 0.66289 0.90177 0.0
N566 N 0.15498 0.66629 0.94095 0.0
H567 H 0.12247 0.67058 0.92204 0.0
H568 H 0.19043 0.65567 0.89742 0.0
C569 C 0.18641 0.6863 0.84454 0.0
O570 O 0.1804 0.67908 0.8235 0.0
N571 N 0.13467 0.66459 0.83639 0.0
C572 C 0.12793 0.64713 0.82195 0.0
C573 C 0.12247 0.65669 0.80031 0.0
C574 C 0.13214 0.68446 0.82382 0.0
N575 N 0.12526 0.6802 0.80155 0.0
C576 C 0.15003 0.61542 0.87929 0.0
C577 C 0.17937 0.60343 0.8426 0.0
C578 C 0.1695 0.58549 0.85633 0.0
C579 C 0.1552 0.5919 0.87532 0.0
C580 C 0.17369 0.6269 0.84722 0.0
N581 N 0.15852 0.63261 0.86492 0.0
H582 H 0.13805 0.61975 0.89335 0.0
H583 H 0.18045 0.63999 0.83562 0.0
H584 H 0.12715 0.62877 0.82671 0.0
H585 H 0.13657 0.70161 0.83065 0.0
O586 O 0.11318 0.65207 0.87671 0.0
O587 O 0.12291 0.68972 0.87489 0.0
O588 O 0.17409 0.68126 0.86266 0.0
C589 C 0.10669 0.67383 0.87807 0.0
H590 H 0.19247 0.65993 0.94349 0.0
H591 H 0.11701 0.64705 0.78488 0.0
H592 H 0.19074 0.59935 0.82791 0.0
H593 H 0.14683 0.57882 0.88629 0.0
Co594 Co 0.34709 0.15407 0.87737 0.0
C595 C 0.33881 0.15045 0.92908 0.0
C596 C 0.36323 0.1779 0.92127 0.0
C597 C 0.35943 0.1776 0.94506 0.0
N598 N 0.35045 0.16075 0.91101 0.0
N599 N 0.3441 0.1603 0.95005 0.0
H600 H 0.32674 0.13597 0.92706 0.0
H601 H 0.37459 0.19015 0.91236 0.0
C602 C 0.32913 0.2038 0.87817 0.0
O603 O 0.35007 0.21148 0.8839 0.0
N604 N 0.34278 0.14752 0.84429 0.0
C605 C 0.35896 0.1398 0.82882 0.0
C606 C 0.34861 0.13826 0.80696 0.0
C607 C 0.32272 0.14995 0.83188 0.0
N608 N 0.32587 0.14457 0.80901 0.0
C609 C 0.39562 0.16327 0.88044 0.0
C610 C 0.39944 0.19296 0.84223 0.0
C611 C 0.42005 0.1842 0.85271 0.0
C612 C 0.41774 0.16958 0.87238 0.0
C613 C 0.37738 0.18618 0.85099 0.0
N614 N 0.3757 0.17135 0.86984 0.0
H615 H 0.39447 0.15073 0.89463 0.0
H616 H 0.36171 0.19169 0.84176 0.0
H617 H 0.37707 0.13587 0.83308 0.0
H618 H 0.30625 0.15582 0.83936 0.0
O619 O 0.36209 0.12423 0.8813 0.0
O620 O 0.32371 0.13002 0.88413 0.0
O621 O 0.32549 0.182 0.87445 0.0
C622 C 0.34138 0.11539 0.8846 0.0
H623 H 0.36711 0.18958 0.95763 0.0
H624 H 0.35703 0.13265 0.79086 0.0
H625 H 0.40032 0.20417 0.8269 0.0
H626 H 0.43291 0.16163 0.88069 0.0
Co627 Co 0.85002 0.33522 0.87454 0.0
C628 C 0.85041 0.32542 0.92598 0.0
C629 C 0.82458 0.35136 0.91743 0.0
C630 C 0.82392 0.34747 0.9412 0.0
N631 N 0.84135 0.33769 0.9077 0.0
N632 N 0.84015 0.33112 0.94663 0.0
H633 H 0.86415 0.31246 0.92433 0.0
H634 H 0.81365 0.36381 0.90823 0.0
C635 C 0.79888 0.32132 0.87135 0.0
O636 O 0.79226 0.34255 0.87721 0.0
N637 N 0.85865 0.33204 0.84191 0.0
C638 C 0.87275 0.34642 0.82948 0.0
C639 C 0.87733 0.33614 0.80806 0.0
C640 C 0.85474 0.31332 0.828 0.0
N641 N 0.86595 0.31542 0.80723 0.0
C642 C 0.84429 0.38427 0.87912 0.0
C643 C 0.81635 0.39143 0.84003 0.0
C644 C 0.82504 0.41101 0.85226 0.0
C645 C 0.83903 0.40704 0.87215 0.0
C646 C 0.82216 0.36873 0.84762 0.0
N647 N 0.83571 0.36538 0.86719 0.0
H648 H 0.85608 0.38174 0.8938 0.0
H649 H 0.8165 0.35386 0.83728 0.0
H650 H 0.87984 0.36282 0.83587 0.0
H651 H 0.84496 0.29796 0.8334 0.0
O652 O 0.88082 0.34713 0.88137 0.0
O653 O 0.87129 0.30939 0.88138 0.0
O654 O 0.82061 0.31626 0.86879 0.0
C655 C 0.88746 0.32547 0.88362 0.0
H656 H 0.81279 0.3566 0.9536 0.0
H657 H 0.88848 0.34312 0.79433 0.0
H658 H 0.80567 0.39358 0.82444 0.0
H659 H 0.84698 0.42142 0.88171 0.0
Co660 Co 0.6568 0.84975 0.8706 0.0
C661 C 0.66066 0.85598 0.92285 0.0
C662 C 0.65023 0.8213 0.91263 0.0
C663 C 0.65265 0.82178 0.9366 0.0
N664 N 0.65522 0.84269 0.90392 0.0
N665 N 0.65919 0.84359 0.94313 0.0
H666 H 0.66566 0.87423 0.9219 0.0
H667 H 0.64566 0.80615 0.90214 0.0
C668 C 0.68115 0.80643 0.84967 0.0
O669 O 0.67535 0.81191 0.82804 0.0
N670 N 0.659 0.85679 0.83733 0.0
C671 C 0.64164 0.86083 0.82168 0.0
C672 C 0.65158 0.86479 0.79993 0.0
C673 C 0.67916 0.8598 0.82523 0.0
N674 N 0.67514 0.86408 0.8023 0.0
C675 C 0.60823 0.84583 0.87859 0.0
C676 C 0.59744 0.81469 0.84299 0.0
C677 C 0.57933 0.82757 0.85359 0.0
C678 C 0.58486 0.84236 0.87237 0.0
C679 C 0.62084 0.81876 0.84979 0.0
N680 N 0.62599 0.83529 0.86643 0.0
H681 H 0.61217 0.85846 0.89218 0.0
H682 H 0.63457 0.81012 0.84021 0.0
H683 H 0.62306 0.86082 0.82565 0.0
H684 H 0.69646 0.85753 0.83281 0.0
O685 O 0.64572 0.88113 0.87562 0.0
O686 O 0.68331 0.87084 0.87571 0.0
O687 O 0.67446 0.81903 0.86702 0.0
C688 C 0.66755 0.88744 0.8771 0.0
H689 H 0.65042 0.8069 0.94819 0.0
H690 H 0.64227 0.86788 0.78363 0.0
H691 H 0.59374 0.80294 0.82851 0.0
H692 H 0.57127 0.85224 0.88131 0.0
Co693 Co 0.85824 0.66148 0.13668 0.0
C694 C 0.86037 0.66772 0.08445 0.0
C695 C 0.82826 0.65186 0.09612 0.0
C696 C 0.82705 0.65489 0.07223 0.0
N697 N 0.84923 0.65964 0.10383 0.0
N698 N 0.84718 0.66502 0.06482 0.0
H699 H 0.87742 0.67601 0.08469 0.0
H700 H 0.81455 0.64475 0.1072 0.0
C701 C 0.81626 0.68644 0.15969 0.0
O702 O 0.82271 0.68065 0.18105 0.0
N703 N 0.86729 0.66403 0.16937 0.0
C704 C 0.87339 0.64701 0.18464 0.0
C705 C 0.87909 0.65733 0.20584 0.0
C706 C 0.87057 0.68434 0.181 0.0
N707 N 0.87714 0.68084 0.2035 0.0
C708 C 0.85279 0.61284 0.12954 0.0
C709 C 0.82168 0.60342 0.16556 0.0
C710 C 0.83201 0.58457 0.1535 0.0
C711 C 0.84726 0.58965 0.13485 0.0
C712 C 0.82767 0.62653 0.15958 0.0
N713 N 0.84368 0.63098 0.14224 0.0
H714 H 0.86532 0.61622 0.1157 0.0
H715 H 0.82037 0.64048 0.16983 0.0
H716 H 0.87359 0.62845 0.18076 0.0
H717 H 0.86677 0.70132 0.17338 0.0
O718 O 0.88915 0.64995 0.12987 0.0
O719 O 0.87931 0.68762 0.13001 0.0
O720 O 0.82796 0.67954 0.14177 0.0
C721 C 0.8956 0.67165 0.1277 0.0
H722 H 0.81241 0.64982 0.06124 0.0
H723 H 0.88409 0.64819 0.22174 0.0
H724 H 0.8096 0.60035 0.17994 0.0
H725 H 0.85598 0.57583 0.12515 0.0
Co726 Co 0.34641 0.84977 0.125 0.0
C727 C 0.33573 0.85216 0.07388 0.0
C728 C 0.36451 0.82883 0.08017 0.0
C729 C 0.35988 0.82911 0.05651 0.0
N730 N 0.34959 0.84356 0.09126 0.0
N731 N 0.3417 0.84373 0.05247 0.0
H732 H 0.32122 0.86399 0.0768 0.0
H733 H 0.37779 0.81809 0.08838 0.0
C734 C 0.33088 0.79954 0.12266 0.0
O735 O 0.35186 0.79347 0.11531 0.0
N736 N 0.34217 0.8559 0.15811 0.0
C737 C 0.35668 0.86791 0.17242 0.0
C738 C 0.34565 0.87098 0.19378 0.0
C739 C 0.32261 0.85175 0.17085 0.0
N740 N 0.32429 0.86077 0.19271 0.0
C741 C 0.39545 0.84306 0.1221 0.0
C742 C 0.40045 0.81088 0.15806 0.0
C743 C 0.42073 0.82015 0.1474 0.0
C744 C 0.41781 0.83637 0.12913 0.0
C745 C 0.3781 0.81813 0.15037 0.0
N746 N 0.37583 0.83376 0.13224 0.0
H747 H 0.39387 0.85634 0.10863 0.0
H748 H 0.36267 0.81187 0.15952 0.0
H749 H 0.37376 0.87459 0.16743 0.0
H750 H 0.30704 0.84333 0.16392 0.0
O751 O 0.36002 0.88022 0.12105 0.0
O752 O 0.32191 0.87294 0.11869 0.0
O753 O 0.32624 0.82083 0.12788 0.0
C754 C 0.33897 0.88826 0.11803 0.0
H755 H 0.3695 0.81937 0.04336 0.0
H756 H 0.35264 0.88027 0.20881 0.0
H757 H 0.40181 0.79859 0.17251 0.0
H758 H 0.43273 0.84485 0.12093 0.0
Co759 Co 0.6693 0.14568 0.12708 0.0
C760 C 0.66367 0.14151 0.07454 0.0
C761 C 0.68799 0.16822 0.08476 0.0
C762 C 0.68808 0.16685 0.06079 0.0
N763 N 0.67191 0.15316 0.09365 0.0
N764 N 0.67289 0.15004 0.05437 0.0
H765 H 0.65234 0.12632 0.07525 0.0
H766 H 0.70047 0.17828 0.09485 0.0
C767 C 0.67661 0.1976 0.1285 0.0
O768 O 0.65832 0.19975 0.11456 0.0
N769 N 0.66902 0.13836 0.16015 0.0
C770 C 0.65311 0.12712 0.17354 0.0
C771 C 0.66209 0.12532 0.19609 0.0
C772 C 0.68734 0.14281 0.17436 0.0
N773 N 0.68371 0.13526 0.19655 0.0
C774 C 0.62045 0.14706 0.11548 0.0
C775 C 0.60628 0.17507 0.15245 0.0
C776 C 0.58901 0.16381 0.13885 0.0
C777 C 0.59652 0.1501 0.11983 0.0
C778 C 0.63018 0.1715 0.14749 0.0
N779 N 0.63707 0.15741 0.12929 0.0
H780 H 0.62547 0.13482 0.10205 0.0
H781 H 0.64314 0.17897 0.15919 0.0
H782 H 0.63636 0.12061 0.16736 0.0
H783 H 0.70336 0.1508 0.16807 0.0
O784 O 0.66156 0.11387 0.11973 0.0
O785 O 0.69794 0.12718 0.1244 0.0
O786 O 0.68319 0.17726 0.13533 0.0
C787 C 0.68392 0.10955 0.1202 0.0
H788 H 0.69967 0.17627 0.04901 0.0
H789 H 0.65329 0.11728 0.21088 0.0
H790 H 0.60145 0.1859 0.1673 0.0
H791 H 0.58409 0.14042 0.10919 0.0
C792 C 0.15196 0.1491 0.55258 0.0
C793 C 0.1739 0.14992 0.56381 0.0
C794 C 0.14945 0.15515 0.52883 0.0
C795 C 0.16942 0.16211 0.51573 0.0
C796 C 0.19153 0.16381 0.52714 0.0
C797 C 0.19349 0.15783 0.55113 0.0
C798 C 0.12548 0.15333 0.51757 0.0
C799 C 0.21325 0.17104 0.5138 0.0
C800 C 0.16266 0.14819 0.4509 0.0
C801 C 0.15553 0.16983 0.44162 0.0
C802 C 0.16867 0.14584 0.47469 0.0
C803 C 0.16716 0.16555 0.48976 0.0
C804 C 0.1609 0.18771 0.48024 0.0
C805 C 0.1553 0.18963 0.45617 0.0
C806 C 0.17551 0.12194 0.48391 0.0
C807 C 0.1589 0.20911 0.49569 0.0
H808 H 0.13664 0.14351 0.56243 0.0
H809 H 0.21046 0.15859 0.55976 0.0
H810 H 0.121 0.16995 0.50846 0.0
H811 H 0.1256 0.13922 0.50414 0.0
H812 H 0.11146 0.14937 0.53056 0.0
H813 H 0.22859 0.17369 0.52558 0.0
H814 H 0.21776 0.15729 0.50076 0.0
H815 H 0.20997 0.1875 0.50391 0.0
H816 H 0.16301 0.13292 0.43954 0.0
H817 H 0.14975 0.20634 0.44896 0.0
H818 H 0.16146 0.11522 0.49563 0.0
H819 H 0.19185 0.12314 0.49447 0.0
H820 H 0.17828 0.10905 0.46955 0.0
H821 H 0.14353 0.20714 0.50752 0.0
H822 H 0.15664 0.22545 0.48529 0.0
H823 H 0.1747 0.21091 0.50695 0.0
C824 C 0.80717 0.18211 0.45254 0.0
C825 C 0.80975 0.15803 0.44791 0.0
C826 C 0.80805 0.19074 0.47567 0.0
C827 C 0.81247 0.17504 0.49443 0.0
C828 C 0.81273 0.15058 0.49006 0.0
C829 C 0.81083 0.14239 0.46694 0.0
C830 C 0.80606 0.21682 0.47973 0.0
C831 C 0.81732 0.13308 0.50948 0.0
C832 C 0.8547 0.19013 0.54316 0.0
C833 C 0.84038 0.18758 0.56305 0.0
C834 C 0.84547 0.18777 0.52048 0.0
C835 C 0.82108 0.18381 0.51754 0.0
C836 C 0.80607 0.18451 0.53738 0.0
C837 C 0.81594 0.186 0.56001 0.0
C838 C 0.86225 0.18718 0.49991 0.0
C839 C 0.77982 0.18189 0.53496 0.0
H840 H 0.80606 0.19446 0.4381 0.0
H841 H 0.81179 0.12369 0.46365 0.0
H842 H 0.7977 0.22067 0.49692 0.0
H843 H 0.82385 0.22475 0.47974 0.0
H844 H 0.79568 0.22538 0.46557 0.0
H845 H 0.81595 0.11464 0.50331 0.0
H846 H 0.83524 0.13583 0.51669 0.0
H847 H 0.80468 0.13565 0.52406 0.0
H848 H 0.87351 0.1922 0.54537 0.0
H849 H 0.80463 0.18427 0.57522 0.0
H850 H 0.85659 0.19976 0.48617 0.0
H851 H 0.86219 0.16941 0.49194 0.0
H852 H 0.88055 0.19152 0.50512 0.0
H853 H 0.77339 0.18962 0.51824 0.0
H854 H 0.77051 0.19037 0.54986 0.0
H855 H 0.77516 0.163 0.53506 0.0
C856 C 0.86584 0.82208 0.4648 0.0
C857 C 0.84891 0.82266 0.44686 0.0
C858 C 0.85945 0.82447 0.48847 0.0
C859 C 0.83543 0.8267 0.49454 0.0
C860 C 0.81809 0.82492 0.47678 0.0
C861 C 0.82502 0.82322 0.45311 0.0
C862 C 0.87859 0.82636 0.50678 0.0
C863 C 0.79226 0.82625 0.4826 0.0
C864 C 0.82531 0.82376 0.5605 0.0
C865 C 0.82545 0.84768 0.56656 0.0
C866 C 0.8267 0.81657 0.5369 0.0
C867 C 0.82897 0.83364 0.51897 0.0
C868 C 0.82768 0.85775 0.52483 0.0
C869 C 0.82553 0.86442 0.54845 0.0
C870 C 0.82708 0.79069 0.53133 0.0
C871 C 0.83015 0.87659 0.50632 0.0
H872 H 0.88429 0.8209 0.46026 0.0
H873 H 0.81172 0.82368 0.4395 0.0
H874 H 0.87841 0.84421 0.51455 0.0
H875 H 0.87544 0.8137 0.52123 0.0
H876 H 0.89633 0.82303 0.49935 0.0
H877 H 0.78118 0.81979 0.46789 0.0
H878 H 0.78822 0.81585 0.49859 0.0
H879 H 0.78735 0.84473 0.48621 0.0
H880 H 0.82533 0.81055 0.57419 0.0
H881 H 0.82489 0.88292 0.55279 0.0
H882 H 0.84538 0.78511 0.52764 0.0
H883 H 0.81644 0.78688 0.51544 0.0
H884 H 0.82031 0.78 0.54618 0.0
H885 H 0.8479 0.87557 0.4983 0.0
H886 H 0.82769 0.8945 0.51362 0.0
H887 H 0.81715 0.87387 0.49208 0.0
C888 C 0.13595 0.81091 0.53371 0.0
C889 C 0.15205 0.80949 0.55236 0.0
C890 C 0.14359 0.813 0.51039 0.0
C891 C 0.16797 0.81267 0.50539 0.0
C892 C 0.18417 0.80832 0.52377 0.0
C893 C 0.17607 0.80714 0.54711 0.0
C894 C 0.12561 0.81767 0.49142 0.0
C895 C 0.2102 0.80658 0.51906 0.0
C896 C 0.17927 0.81366 0.4396 0.0
C897 C 0.18155 0.83787 0.43552 0.0
C898 C 0.17699 0.80477 0.46257 0.0
C899 C 0.17624 0.82052 0.48179 0.0
C900 C 0.18037 0.84471 0.47789 0.0
C901 C 0.18345 0.85297 0.4549 0.0
C902 C 0.17386 0.77872 0.46604 0.0
C903 C 0.17963 0.86224 0.49778 0.0
H904 H 0.11731 0.81185 0.53747 0.0
H905 H 0.18876 0.8059 0.56126 0.0
H906 H 0.12809 0.83568 0.4844 0.0
H907 H 0.12798 0.80529 0.47661 0.0
H908 H 0.1073 0.81607 0.49799 0.0
H909 H 0.21949 0.79736 0.53355 0.0
H910 H 0.21366 0.79721 0.50233 0.0
H911 H 0.21772 0.82446 0.51751 0.0
H912 H 0.17788 0.80173 0.42485 0.0
H913 H 0.18603 0.87159 0.45202 0.0
H914 H 0.15487 0.77462 0.4676 0.0
H915 H 0.18263 0.77271 0.4824 0.0
H916 H 0.18101 0.76863 0.45096 0.0
H917 H 0.16173 0.86257 0.50555 0.0
H918 H 0.18414 0.88028 0.49192 0.0
H919 H 0.19202 0.85705 0.51188 0.0
C920 C 0.44973 0.16652 0.16859 0.0
C921 C 0.44199 0.1431 0.16931 0.0
C922 C 0.47368 0.17205 0.16587 0.0
C923 C 0.49037 0.15378 0.16337 0.0
C924 C 0.48283 0.13015 0.16498 0.0
C925 C 0.45886 0.12513 0.16816 0.0
C926 C 0.481 0.19748 0.16471 0.0
C927 C 0.49997 0.11009 0.16233 0.0
C928 C 0.54612 0.16393 0.12788 0.0
C929 C 0.56352 0.16442 0.14538 0.0
C930 C 0.52225 0.1611 0.13355 0.0
C931 C 0.51538 0.15917 0.15739 0.0
C932 C 0.53264 0.16099 0.17523 0.0
C933 C 0.55648 0.16341 0.16904 0.0
C934 C 0.50449 0.15919 0.11392 0.0
C935 C 0.52603 0.15949 0.20087 0.0
H936 H 0.43699 0.18063 0.16917 0.0
H937 H 0.45327 0.10699 0.16922 0.0
H938 H 0.49625 0.20069 0.17643 0.0
H939 H 0.48659 0.20186 0.14657 0.0
H940 H 0.46651 0.20951 0.16979 0.0
H941 H 0.4915 0.09274 0.16501 0.0
H942 H 0.50779 0.11049 0.14448 0.0
H943 H 0.51457 0.11193 0.1751 0.0
H944 H 0.5512 0.16522 0.10958 0.0
H945 H 0.56966 0.16352 0.18278 0.0
H946 H 0.4903 0.1723 0.11635 0.0
H947 H 0.4962 0.14157 0.1143 0.0
H948 H 0.51253 0.1619 0.09634 0.0
H949 H 0.5112 0.17151 0.20477 0.0
H950 H 0.541 0.16392 0.21259 0.0
H951 H 0.52009 0.14143 0.20505 0.0
C952 C 0.82948 0.5539 0.18523 0.0
C953 C 0.82887 0.55978 0.16127 0.0
C954 C 0.83092 0.53035 0.19253 0.0
C955 C 0.8322 0.51234 0.17546 0.0
C956 C 0.82997 0.51809 0.15135 0.0
C957 C 0.82808 0.54168 0.14459 0.0
C958 C 0.83256 0.52492 0.21843 0.0
C959 C 0.83121 0.49947 0.13252 0.0
C960 C 0.86879 0.45767 0.18486 0.0
C961 C 0.85152 0.44012 0.18559 0.0
C962 C 0.86267 0.48143 0.18294 0.0
C963 C 0.83866 0.48791 0.18225 0.0
C964 C 0.82115 0.47051 0.1852 0.0
C965 C 0.82778 0.44677 0.18665 0.0
C966 C 0.88196 0.49938 0.17989 0.0
C967 C 0.79539 0.47676 0.18526 0.0
H968 H 0.83016 0.5677 0.1983 0.0
H969 H 0.827 0.54601 0.12608 0.0
H970 H 0.82172 0.50937 0.22292 0.0
H971 H 0.85103 0.52074 0.22303 0.0
H972 H 0.82678 0.53998 0.22937 0.0
H973 H 0.82766 0.50665 0.11472 0.0
H974 H 0.84898 0.49142 0.1325 0.0
H975 H 0.81837 0.4853 0.13616 0.0
H976 H 0.88718 0.45273 0.18462 0.0
H977 H 0.81427 0.43338 0.18717 0.0
H978 H 0.87957 0.51408 0.19241 0.0
H979 H 0.88111 0.50682 0.16188 0.0
H980 H 0.89972 0.49173 0.18258 0.0
H981 H 0.79217 0.49275 0.1959 0.0
H982 H 0.78442 0.46223 0.19227 0.0
H983 H 0.78959 0.48055 0.16704 0.0
C984 C 0.54442 0.85604 0.1838 0.0
C985 C 0.56313 0.84002 0.18248 0.0
C986 C 0.52103 0.8486 0.18183 0.0
C987 C 0.51602 0.82438 0.17956 0.0
C988 C 0.53459 0.8079 0.18112 0.0
C989 C 0.55799 0.81591 0.18215 0.0
C990 C 0.50188 0.86691 0.18014 0.0
C991 C 0.52997 0.78186 0.18015 0.0
C992 C 0.45004 0.81427 0.18021 0.0
C993 C 0.44497 0.81504 0.15606 0.0
C994 C 0.47343 0.81486 0.1883 0.0
C995 C 0.49204 0.81705 0.1719 0.0
C996 C 0.48706 0.81575 0.14756 0.0
C997 C 0.46368 0.81422 0.14001 0.0
C998 C 0.47803 0.81476 0.21439 0.0
C999 C 0.50623 0.8181 0.12934 0.0
H1000 H 0.5481 0.87465 0.18503 0.0
H1001 H 0.57217 0.80325 0.1813 0.0
H1002 H 0.49372 0.86624 0.16243 0.0
H1003 H 0.48787 0.8633 0.19316 0.0
H1004 H 0.50861 0.88495 0.18314 0.0
H1005 H 0.54457 0.77177 0.18827 0.0
H1006 H 0.51332 0.77732 0.18923 0.0
H1007 H 0.5284 0.77625 0.16156 0.0
H1008 H 0.4358 0.81467 0.19284 0.0
H1009 H 0.45998 0.81391 0.12133 0.0
H1010 H 0.47979 0.83306 0.22074 0.0
H1011 H 0.4946 0.80536 0.21858 0.0
H1012 H 0.46335 0.8064 0.22416 0.0
H1013 H 0.51437 0.83575 0.13067 0.0
H1014 H 0.49952 0.81577 0.11116 0.0
H1015 H 0.52025 0.80498 0.13249 0.0
C1016 C 0.18504 0.44411 0.1828 0.0
C1017 C 0.1861 0.43881 0.15874 0.0
C1018 C 0.18395 0.46753 0.19054 0.0
C1019 C 0.1833 0.48589 0.17378 0.0
C1020 C 0.18649 0.48067 0.14967 0.0
C1021 C 0.18826 0.45724 0.14253 0.0
C1022 C 0.18176 0.47242 0.21648 0.0
C1023 C 0.18589 0.49964 0.13112 0.0
C1024 C 0.14456 0.53912 0.18183 0.0
C1025 C 0.16115 0.55733 0.18228 0.0
C1026 C 0.15158 0.51559 0.18054 0.0
C1027 C 0.17583 0.50999 0.18058 0.0
C1028 C 0.19259 0.52805 0.18368 0.0
C1029 C 0.1851 0.55155 0.18413 0.0
C1030 C 0.13303 0.49692 0.17721 0.0
C1031 C 0.21854 0.52274 0.18493 0.0
H1032 H 0.18349 0.43003 0.19551 0.0
H1033 H 0.1898 0.45327 0.12397 0.0
H1034 H 0.19142 0.48862 0.22137 0.0
H1035 H 0.163 0.47507 0.22102 0.0
H1036 H 0.18854 0.45757 0.22717 0.0
H1037 H 0.19003 0.49278 0.11333 0.0
H1038 H 0.16813 0.5077 0.13063 0.0
H1039 H 0.19861 0.51372 0.13541 0.0
H1040 H 0.12599 0.5433 0.18129 0.0
H1041 H 0.19818 0.56535 0.18457 0.0
H1042 H 0.13532 0.48271 0.19031 0.0
H1043 H 0.13493 0.48896 0.15952 0.0
H1044 H 0.11493 0.50403 0.17886 0.0
H1045 H 0.22186 0.50638 0.19499 0.0
H1046 H 0.22845 0.53734 0.19323 0.0
H1047 H 0.22551 0.52019 0.16692 0.0
C1048 C 0.44571 0.84186 0.80686 0.0
C1049 C 0.43364 0.84897 0.82712 0.0
C1050 C 0.46951 0.83507 0.80804 0.0
C1051 C 0.48131 0.83524 0.83 0.0
C1052 C 0.46872 0.84118 0.8506 0.0
C1053 C 0.44513 0.84796 0.84889 0.0
C1054 C 0.4823 0.82879 0.7857 0.0
C1055 C 0.48045 0.84145 0.87442 0.0
C1056 C 0.5411 0.80806 0.84297 0.0
C1057 C 0.5552 0.82817 0.84382 0.0
C1058 C 0.51712 0.80972 0.83694 0.0
C1059 C 0.50728 0.83196 0.83152 0.0
C1060 C 0.522 0.85196 0.83077 0.0
C1061 C 0.54571 0.84982 0.83702 0.0
C1062 C 0.50205 0.78798 0.83784 0.0
C1063 C 0.51241 0.87598 0.82493 0.0
H1064 H 0.43681 0.84246 0.79003 0.0
H1065 H 0.43568 0.85287 0.86468 0.0
H1066 H 0.49482 0.843 0.78117 0.0
H1067 H 0.49268 0.81249 0.78814 0.0
H1068 H 0.47005 0.82634 0.77071 0.0
H1069 H 0.46775 0.84458 0.8889 0.0
H1070 H 0.48955 0.82455 0.8777 0.0
H1071 H 0.49394 0.8555 0.87491 0.0
H1072 H 0.54849 0.79131 0.84818 0.0
H1073 H 0.55676 0.86532 0.83737 0.0
H1074 H 0.49022 0.78715 0.82237 0.0
H1075 H 0.49081 0.78855 0.85376 0.0
H1076 H 0.51281 0.77172 0.83849 0.0
H1077 H 0.50169 0.87531 0.80867 0.0
H1078 H 0.52658 0.88916 0.82252 0.0
H1079 H 0.50076 0.88201 0.83936 0.0
C1080 C 0.13027 0.45749 0.8308 0.0
C1081 C 0.14747 0.43989 0.82943 0.0
C1082 C 0.13649 0.48121 0.8328 0.0
C1083 C 0.16052 0.48764 0.83287 0.0
C1084 C 0.17794 0.47019 0.82981 0.0
C1085 C 0.17124 0.44651 0.82837 0.0
C1086 C 0.11732 0.49926 0.83609 0.0
C1087 C 0.20372 0.47639 0.8292 0.0
C1088 C 0.17027 0.55321 0.82627 0.0
C1089 C 0.17187 0.56028 0.84985 0.0
C1090 C 0.16816 0.52939 0.82027 0.0
C1091 C 0.16721 0.5123 0.8383 0.0
C1092 C 0.17033 0.51918 0.86199 0.0
C1093 C 0.1729 0.54303 0.86743 0.0
C1094 C 0.16556 0.52269 0.79476 0.0
C1095 C 0.1694 0.50154 0.88178 0.0
H1096 H 0.11185 0.45267 0.83103 0.0
H1097 H 0.18475 0.43314 0.8275 0.0
H1098 H 0.11903 0.50742 0.85371 0.0
H1099 H 0.11909 0.51345 0.82288 0.0
H1100 H 0.09947 0.49154 0.83456 0.0
H1101 H 0.2147 0.4615 0.82303 0.0
H1102 H 0.20681 0.4917 0.81755 0.0
H1103 H 0.20964 0.48136 0.84709 0.0
H1104 H 0.16934 0.56634 0.81251 0.0
H1105 H 0.17473 0.54826 0.88564 0.0
H1106 H 0.147 0.51796 0.79115 0.0
H1107 H 0.1765 0.50712 0.79061 0.0
H1108 H 0.1706 0.53727 0.78282 0.0
H1109 H 0.15152 0.49382 0.88277 0.0
H1110 H 0.17365 0.50952 0.89906 0.0
H1111 H 0.18187 0.48697 0.87846 0.0
C1112 C 0.44719 0.18613 0.81775 0.0
C1113 C 0.44381 0.18761 0.84216 0.0
C1114 C 0.46987 0.18363 0.80821 0.0
C1115 C 0.48945 0.18176 0.82347 0.0
C1116 C 0.4863 0.1853 0.84789 0.0
C1117 C 0.46362 0.18874 0.85681 0.0
C1118 C 0.47259 0.18139 0.78194 0.0
C1119 C 0.50658 0.18337 0.86492 0.0
C1120 C 0.53938 0.13977 0.81112 0.0
C1121 C 0.55869 0.15507 0.80997 0.0
C1122 C 0.51647 0.1483 0.81411 0.0
C1123 C 0.5125 0.17282 0.81482 0.0
C1124 C 0.53145 0.18835 0.81069 0.0
C1125 C 0.55439 0.17935 0.80877 0.0
C1126 C 0.49684 0.131 0.81852 0.0
C1127 C 0.52781 0.21456 0.80989 0.0
H1128 H 0.43211 0.1854 0.80615 0.0
H1129 H 0.46127 0.19077 0.8756 0.0
H1130 H 0.4893 0.18941 0.77587 0.0
H1131 H 0.47288 0.16256 0.77705 0.0
H1132 H 0.45772 0.18982 0.77252 0.0
H1133 H 0.50128 0.18738 0.88327 0.0
H1134 H 0.51385 0.1653 0.86443 0.0
H1135 H 0.52089 0.19553 0.85983 0.0
H1136 H 0.54228 0.12099 0.81103 0.0
H1137 H 0.56897 0.19151 0.80776 0.0
H1138 H 0.48209 0.13421 0.80622 0.0
H1139 H 0.48998 0.13336 0.83662 0.0
H1140 H 0.50268 0.11251 0.81651 0.0
H1141 H 0.51083 0.21906 0.80141 0.0
H1142 H 0.54225 0.22344 0.80021 0.0
H1143 H 0.52751 0.22162 0.82804 0.0
C1144 C 0.82044 0.54828 0.81798 0.0
C1145 C 0.84418 0.55482 0.81974 0.0
C1146 C 0.81375 0.52452 0.81855 0.0
C1147 C 0.83113 0.50701 0.82162 0.0
C1148 C 0.85517 0.51341 0.82145 0.0
C1149 C 0.86137 0.53716 0.82007 0.0
C1150 C 0.78799 0.51835 0.81751 0.0
C1151 C 0.87435 0.49537 0.82474 0.0
C1152 C 0.81956 0.45396 0.85983 0.0
C1153 C 0.82156 0.4355 0.84364 0.0
C1154 C 0.82142 0.47741 0.85267 0.0
C1155 C 0.82449 0.48269 0.82855 0.0
C1156 C 0.82406 0.46431 0.81183 0.0
C1157 C 0.82294 0.44088 0.81958 0.0
C1158 C 0.82188 0.49639 0.87119 0.0
C1159 C 0.82623 0.46922 0.78587 0.0
H1160 H 0.80693 0.56167 0.8176 0.0
H1161 H 0.87979 0.54197 0.82058 0.0
H1162 H 0.78516 0.50212 0.80713 0.0
H1163 H 0.78136 0.51511 0.83554 0.0
H1164 H 0.77744 0.53277 0.80965 0.0
H1165 H 0.89219 0.50303 0.82275 0.0
H1166 H 0.87295 0.48757 0.84257 0.0
H1167 H 0.87236 0.48093 0.81187 0.0
H1168 H 0.81768 0.45005 0.87837 0.0
H1169 H 0.82445 0.42685 0.80685 0.0
H1170 H 0.8087 0.51013 0.86711 0.0
H1171 H 0.83941 0.50493 0.87133 0.0
H1172 H 0.81826 0.48945 0.88907 0.0
H1173 H 0.81625 0.48521 0.78092 0.0
H1174 H 0.81981 0.45424 0.77518 0.0
H1175 H 0.84495 0.47227 0.78139 0.0
C1176 C 0.135 0.97277 0.31397 0.0
C1177 C 0.15613 0.9683 0.32605 0.0
C1178 C 0.12798 0.99581 0.30852 0.0
C1179 C 0.14206 0.0149 0.31585 0.0
C1180 C 0.16391 0.01052 0.32689 0.0
C1181 C 0.1708 0.98737 0.33148 0.0
C1182 C 0.10493 0.99971 0.29599 0.0
C1183 C 0.17944 0.03037 0.33522 0.0
C1184 C 0.13593 0.07925 0.29974 0.0
C1185 C 0.12529 0.08794 0.32016 0.0
C1186 C 0.13971 0.05499 0.29694 0.0
C1187 C 0.13291 0.03936 0.31509 0.0
C1188 C 0.12026 0.04799 0.33466 0.0
C1189 C 0.11649 0.07214 0.33686 0.0
C1190 C 0.15254 0.04636 0.27543 0.0
C1191 C 0.11263 0.03205 0.35447 0.0
H1192 H 0.12342 0.95846 0.3094 0.0
H1193 H 0.18752 0.98442 0.33999 0.0
H1194 H 0.09134 0.00504 0.30889 0.0
H1195 H 0.10652 0.014 0.28283 0.0
H1196 H 0.09876 0.98355 0.287 0.0
H1197 H 0.19642 0.02402 0.34245 0.0
H1198 H 0.18316 0.04264 0.32057 0.0
H1199 H 0.17022 0.04046 0.34912 0.0
H1200 H 0.14268 0.09141 0.28674 0.0
H1201 H 0.1079 0.07878 0.3525 0.0
H1202 H 0.145 0.02955 0.26915 0.0
H1203 H 0.17124 0.04316 0.2799 0.0
H1204 H 0.15189 0.0594 0.26093 0.0
H1205 H 0.10313 0.01657 0.34751 0.0
H1206 H 0.10106 0.04116 0.36727 0.0
H1207 H 0.12837 0.02551 0.36396 0.0
C1208 C 0.92789 0.12328 0.3619 0.0
C1209 C 0.91404 0.12492 0.34153 0.0
C1210 C 0.95241 0.12512 0.3609 0.0
C1211 C 0.96352 0.12843 0.33894 0.0
C1212 C 0.9498 0.12848 0.31811 0.0
C1213 C 0.92514 0.12683 0.31965 0.0
C1214 C 0.96624 0.12516 0.38356 0.0
C1215 C 0.96105 0.13159 0.29432 0.0
C1216 C 0.01913 0.16507 0.33867 0.0
C1217 C 0.03674 0.14798 0.33736 0.0
C1218 C 0.99533 0.15886 0.33936 0.0
C1219 C 0.9889 0.13489 0.33822 0.0
C1220 C 0.00666 0.11745 0.33715 0.0
C1221 C 0.03047 0.12422 0.33696 0.0
C1222 C 0.97707 0.17803 0.34113 0.0
C1223 C 1.00048 0.09176 0.33558 0.0
H1224 H 0.91951 0.12156 0.37891 0.0
H1225 H 0.91456 0.12799 0.30385 0.0
H1226 H 0.98149 0.11311 0.38235 0.0
H1227 H 0.97324 0.14304 0.38683 0.0
H1228 H 0.95534 0.11992 0.39888 0.0
H1229 H 0.94856 0.12791 0.27978 0.0
H1230 H 0.96741 0.1499 0.29248 0.0
H1231 H 0.97651 0.11986 0.29251 0.0
H1232 H 0.02413 0.18341 0.3389 0.0
H1233 H 0.04416 0.11109 0.33549 0.0
H1234 H 0.96588 0.17515 0.35684 0.0
H1235 H 0.9654 0.17757 0.32552 0.0
H1236 H 0.98506 0.19576 0.34237 0.0
H1237 H 0.98931 0.08659 0.35068 0.0
H1238 H 0.01633 0.08038 0.3353 0.0
H1239 H 0.99013 0.08851 0.31939 0.0
C1240 C 0.8829 0.93266 0.3523 0.0
C1241 C 0.88027 0.91782 0.33283 0.0
C1242 C 0.87952 0.95686 0.35038 0.0
C1243 C 0.87385 0.96669 0.32827 0.0
C1244 C 0.87327 0.95211 0.30808 0.0
C1245 C 0.87628 0.92769 0.31063 0.0
C1246 C 0.88017 0.9716 0.37245 0.0
C1247 C 0.86812 0.96206 0.28407 0.0
C1248 C 0.83423 0.01934 0.33559 0.0
C1249 C 0.85049 0.03784 0.33688 0.0
C1250 C 0.84146 0.99625 0.33123 0.0
C1251 C 0.86555 0.99145 0.32737 0.0
C1252 C 0.88182 0.0102 0.32657 0.0
C1253 C 0.87418 0.03312 0.33163 0.0
C1254 C 0.82347 0.97678 0.33241 0.0
C1255 C 0.90753 0.00591 0.32167 0.0
H1256 H 0.88638 0.92521 0.36948 0.0
H1257 H 0.87439 0.91632 0.29548 0.0
H1258 H 0.89205 0.98683 0.37009 0.0
H1259 H 0.86234 0.97857 0.37616 0.0
H1260 H 0.88618 0.96146 0.38801 0.0
H1261 H 0.87386 0.94994 0.2699 0.0
H1262 H 0.84893 0.9649 0.28222 0.0
H1263 H 0.87693 0.97925 0.28161 0.0
H1264 H 0.81578 0.02264 0.33867 0.0
H1265 H 0.88704 0.04706 0.33231 0.0
H1266 H 0.82713 0.96549 0.34788 0.0
H1267 H 0.82461 0.96555 0.31657 0.0
H1268 H 0.80523 0.98357 0.33391 0.0
H1269 H 0.9161 0.9988 0.33767 0.0
H1270 H 0.91676 0.02231 0.31659 0.0
H1271 H 0.90976 0.99278 0.30745 0.0
C1272 C 0.98784 0.84413 0.34845 0.0
C1273 C 0.96849 0.85623 0.33909 0.0
C1274 C 0.01093 0.85116 0.34362 0.0
C1275 C 0.01497 0.87108 0.32933 0.0
C1276 C 0.99564 0.88353 0.31986 0.0
C1277 C 0.97262 0.8759 0.32476 0.0
C1278 C 0.03104 0.83734 0.35413 0.0
C1279 C 0.99927 0.90496 0.30471 0.0
C1280 C 0.075 0.89593 0.34246 0.0
C1281 C 0.08875 0.88489 0.32532 0.0
C1282 C 0.0505 0.89347 0.3426 0.0
C1283 C 0.03957 0.87918 0.32546 0.0
C1284 C 0.05322 0.86961 0.30694 0.0
C1285 C 0.07775 0.87275 0.307 0.0
C1286 C 0.03662 0.90439 0.36238 0.0
C1287 C 0.04231 0.85418 0.28839 0.0
H1288 H 0.985 0.82923 0.35989 0.0
H1289 H 0.95791 0.88526 0.31717 0.0
H1290 H 0.04326 0.83156 0.34008 0.0
H1291 H 0.04116 0.84862 0.36636 0.0
H1292 H 0.02493 0.82161 0.36391 0.0
H1293 H 0.98241 0.91249 0.29836 0.0
H1294 H 0.0088 0.91862 0.31482 0.0
H1295 H 0.01032 0.90048 0.28931 0.0
H1296 H 0.08354 0.90544 0.35658 0.0
H1297 H 0.08842 0.86403 0.29385 0.0
H1298 H 0.03163 0.89059 0.3752 0.0
H1299 H 0.02017 0.91241 0.35568 0.0
H1300 H 0.0469 0.91803 0.3718 0.0
H1301 H 0.03823 0.83678 0.29615 0.0
H1302 H 0.05427 0.85151 0.27321 0.0
H1303 H 0.02556 0.8618 0.28197 0.0
C1304 C 0.12825 0.0273 0.67002 0.0
C1305 C 0.15231 0.03245 0.67019 0.0
C1306 C 0.12038 0.00389 0.66954 0.0
C1307 C 0.13703 0.9854 0.6687 0.0
C1308 C 0.16134 0.99067 0.66845 0.0
C1309 C 0.16864 0.0141 0.66943 0.0
C1310 C 0.09435 0.99892 0.67026 0.0
C1311 C 0.1797 0.97157 0.66698 0.0
C1312 C 0.12536 0.92162 0.68444 0.0
C1313 C 0.12367 0.91152 0.66207 0.0
C1314 C 0.12806 0.94604 0.68704 0.0
C1315 C 0.12938 0.96049 0.66679 0.0
C1316 C 0.12631 0.95047 0.64429 0.0
C1317 C 0.12334 0.92618 0.64224 0.0
C1318 C 0.13082 0.95618 0.71136 0.0
C1319 C 0.12786 0.96512 0.62221 0.0
H1320 H 0.11567 0.04154 0.67103 0.0
H1321 H 0.18723 0.01822 0.66953 0.0
H1322 H 0.08898 0.9891 0.65432 0.0
H1323 H 0.09021 0.98767 0.68563 0.0
H1324 H 0.08372 0.01523 0.67138 0.0
H1325 H 0.19788 0.97869 0.66684 0.0
H1326 H 0.17793 0.95945 0.68213 0.0
H1327 H 0.17705 0.96109 0.65077 0.0
H1328 H 0.1255 0.91041 0.69983 0.0
H1329 H 0.12182 0.91857 0.62486 0.0
H1330 H 0.11995 0.97222 0.71332 0.0
H1331 H 0.14941 0.9613 0.71419 0.0
H1332 H 0.12578 0.94342 0.72523 0.0
H1333 H 0.11636 0.98077 0.62355 0.0
H1334 H 0.12282 0.95507 0.60627 0.0
H1335 H 0.14615 0.97149 0.61994 0.0
C1336 C 0.08319 0.13119 0.70306 0.0
C1337 C 0.09274 0.12 0.68333 0.0
C1338 C 0.05884 0.13543 0.70455 0.0
C1339 C 0.04401 0.12859 0.68573 0.0
C1340 C 0.05343 0.11544 0.66687 0.0
C1341 C 0.07761 0.11115 0.66604 0.0
C1342 C 0.04933 0.14874 0.72537 0.0
C1343 C 0.03839 0.1078 0.64637 0.0
C1344 C 0.9774 0.1311 0.68311 0.0
C1345 C 0.97377 0.15191 0.67029 0.0
C1346 C 1.00007 0.12414 0.69008 0.0
C1347 C 0.01967 0.13797 0.68359 0.0
C1348 C 0.01604 0.15958 0.67186 0.0
C1349 C 0.99319 0.16639 0.66567 0.0
C1350 C 0.00312 0.10137 0.70327 0.0
C1351 C 0.03644 0.17487 0.66447 0.0
H1352 H 0.09481 0.13802 0.71651 0.0
H1353 H 0.0849 0.10216 0.65092 0.0
H1354 H 0.04703 0.16746 0.72053 0.0
H1355 H 0.03191 0.14182 0.73073 0.0
H1356 H 0.06149 0.14784 0.74062 0.0
H1357 H 0.04801 0.09605 0.63413 0.0
H1358 H 0.02247 0.09853 0.65264 0.0
H1359 H 0.03247 0.12349 0.63643 0.0
H1360 H 0.96273 0.11968 0.68698 0.0
H1361 H 0.99073 0.18287 0.65656 0.0
H1362 H 0.01658 0.10319 0.71726 0.0
H1363 H 0.00924 0.08755 0.691 0.0
H1364 H 0.98638 0.0954 0.71134 0.0
H1365 H 0.04793 0.17868 0.67972 0.0
H1366 H 0.03059 0.19178 0.6567 0.0
H1367 H 0.04724 0.16545 0.65125 0.0
C1368 C 0.88464 0.96916 0.66749 0.0
C1369 C 0.86039 0.965 0.66711 0.0
C1370 C 0.89343 0.99222 0.66706 0.0
C1371 C 0.8775 0.0113 0.66584 0.0
C1372 C 0.85303 0.00698 0.66459 0.0
C1373 C 0.84481 0.98389 0.66546 0.0
C1374 C 0.91959 0.99619 0.66871 0.0
C1375 C 0.83543 0.02677 0.66272 0.0
C1376 C 0.88836 0.07381 0.68537 0.0
C1377 C 0.89015 0.08514 0.66362 0.0
C1378 C 0.88635 0.04925 0.68658 0.0
C1379 C 0.88596 0.03595 0.66554 0.0
C1380 C 0.88981 0.04721 0.64375 0.0
C1381 C 0.89196 0.07165 0.64308 0.0
C1382 C 0.88277 0.03777 0.7102 0.0
C1383 C 0.88946 0.03375 0.6209 0.0
H1384 H 0.89659 0.95444 0.66918 0.0
H1385 H 0.82608 0.98046 0.66519 0.0
H1386 H 0.92563 0.00779 0.65428 0.0
H1387 H 0.92374 0.00518 0.68549 0.0
H1388 H 0.92965 0.97949 0.66797 0.0
H1389 H 0.81708 0.0203 0.66118 0.0
H1390 H 0.83664 0.03818 0.67844 0.0
H1391 H 0.83942 0.03779 0.64715 0.0
H1392 H 0.88717 0.08414 0.70131 0.0
H1393 H 0.89372 0.08028 0.62619 0.0
H1394 H 0.89339 0.0215 0.71161 0.0
H1395 H 0.86403 0.03278 0.71217 0.0
H1396 H 0.88753 0.04968 0.7249 0.0
H1397 H 0.90013 0.01752 0.62227 0.0
H1398 H 0.89618 0.04441 0.60599 0.0
H1399 H 0.87114 0.02842 0.61686 0.0
C1400 C 0.03175 0.86678 0.6825 0.0
C1401 C 0.0345 0.85005 0.66459 0.0
C1402 C 0.00925 0.87396 0.68988 0.0
C1403 C 0.9891 0.86423 0.67903 0.0
C1404 C 0.99182 0.84731 0.66102 0.0
C1405 C 0.01441 0.84051 0.65404 0.0
C1406 C 0.00703 0.89199 0.70915 0.0
C1407 C 0.97082 0.8366 0.64879 0.0
C1408 C 0.92662 0.86284 0.70186 0.0
C1409 C 0.91594 0.8786 0.68632 0.0
C1410 C 0.95113 0.85951 0.70144 0.0
C1411 C 0.965 0.87238 0.68521 0.0
C1412 C 0.95441 0.89022 0.67151 0.0
C1413 C 0.92996 0.89298 0.67212 0.0
C1414 C 0.96175 0.84047 0.7165 0.0
C1415 C 0.96844 0.9046 0.65421 0.0
H1416 H 0.04717 0.87401 0.69097 0.0
H1417 H 0.01634 0.82789 0.63996 0.0
H1418 H 0.99794 0.90782 0.70235 0.0
H1419 H 0.99615 0.88492 0.72369 0.0
H1420 H 0.02439 0.89732 0.71631 0.0
H1421 H 0.97596 0.82309 0.6357 0.0
H1422 H 0.95894 0.82836 0.66186 0.0
H1423 H 0.96068 0.85049 0.63963 0.0
H1424 H 0.91573 0.85158 0.71269 0.0
H1425 H 0.92161 0.90527 0.66019 0.0
H1426 H 0.97895 0.84607 0.72374 0.0
H1427 H 0.96483 0.82466 0.70557 0.0
H1428 H 0.94996 0.83553 0.73125 0.0
H1429 H 0.98533 0.91035 0.66203 0.0
H1430 H 0.95859 0.92034 0.6482 0.0
H1431 H 0.97259 0.89369 0.63861 0.0
C1432 C 0.34912 0.15888 0.99309 0.0
C1433 C 0.33564 0.15374 0.97311 0.0
C1434 C 0.34144 0.15275 0.01566 0.0
C1435 C 0.31975 0.14092 0.01849 0.0
C1436 C 0.30589 0.13576 0.99849 0.0
C1437 C 0.31399 0.14224 0.97602 0.0
C1438 C 0.35688 0.15858 0.03648 0.0
C1439 C 0.28269 0.12318 0.00083 0.0
C1440 C 0.32175 0.10769 0.07564 0.0
C1441 C 0.31221 0.12421 0.09111 0.0
C1442 C 0.32185 0.11169 0.05134 0.0
C1443 C 0.31266 0.13301 0.04244 0.0
C1444 C 0.30085 0.14862 0.05784 0.0
C1445 C 0.30065 0.14394 0.08212 0.0
C1446 C 0.33427 0.09434 0.03562 0.0
C1447 C 0.29084 0.17155 0.04916 0.0
H1448 H 0.36603 0.16734 0.99112 0.0
H1449 H 0.30328 0.13845 0.96077 0.0
H1450 H 0.34683 0.16889 0.0496 0.0
H1451 H 0.36271 0.14216 0.04521 0.0
H1452 H 0.37271 0.16877 0.03137 0.0
H1453 H 0.2735 0.12137 0.98371 0.0
H1454 H 0.28557 0.10541 0.00827 0.0
H1455 H 0.27107 0.13275 0.0132 0.0
H1456 H 0.33078 0.09247 0.08271 0.0
H1457 H 0.29364 0.15691 0.09416 0.0
H1458 H 0.35197 0.10118 0.03116 0.0
H1459 H 0.32452 0.09187 0.01893 0.0
H1460 H 0.33644 0.077 0.04429 0.0
H1461 H 0.30538 0.18426 0.04653 0.0
H1462 H 0.27825 0.17921 0.06195 0.0
H1463 H 0.28184 0.16923 0.03204 0.0
C1464 C 0.88004 0.34061 0.07431 0.0
C1465 C 0.87557 0.32236 0.09021 0.0
C1466 C 0.87636 0.33771 0.05021 0.0
C1467 C 0.86827 0.31586 0.04163 0.0
C1468 C 0.86559 0.29673 0.05734 0.0
C1469 C 0.86914 0.30025 0.08158 0.0
C1470 C 0.87944 0.35865 0.03418 0.0
C1471 C 0.8576 0.273 0.04881 0.0
C1472 C 0.8299 0.32497 0.9883 0.0
C1473 C 0.84626 0.32313 0.96995 0.0
C1474 C 0.83646 0.32092 0.01168 0.0
C1475 C 0.8599 0.31443 0.0169 0.0
C1476 C 0.87595 0.31044 0.99833 0.0
C1477 C 0.86901 0.31503 0.97506 0.0
C1478 C 0.81871 0.32537 0.03091 0.0
C1479 C 0.90091 0.30285 0.00312 0.0
H1480 H 0.88535 0.35768 0.08084 0.0
H1481 H 0.86573 0.28605 0.0938 0.0
H1482 H 0.89079 0.35404 0.01905 0.0
H1483 H 0.86209 0.36403 0.02706 0.0
H1484 H 0.88732 0.37392 0.04339 0.0
H1485 H 0.86154 0.259 0.06181 0.0
H1486 H 0.83833 0.27332 0.04586 0.0
H1487 H 0.8661 0.26848 0.03185 0.0
H1488 H 0.81208 0.33043 0.98449 0.0
H1489 H 0.88182 0.31341 0.9611 0.0
H1490 H 0.82395 0.34116 0.04104 0.0
H1491 H 0.81822 0.3104 0.04334 0.0
H1492 H 0.80073 0.32823 0.02387 0.0
H1493 H 0.91122 0.31809 0.00948 0.0
H1494 H 0.90956 0.2959 0.98708 0.0
H1495 H 0.90143 0.2892 0.01703 0.0
C1496 C 0.65459 0.83922 0.98606 0.0
C1497 C 0.66394 0.85149 0.96683 0.0
C1498 C 0.65914 0.84622 0.00921 0.0
C1499 C 0.67313 0.8663 0.01344 0.0
C1500 C 0.68268 0.87887 0.99422 0.0
C1501 C 0.67806 0.87127 0.97114 0.0
C1502 C 0.64857 0.83226 0.02917 0.0
C1503 C 0.6975 0.90048 0.99805 0.0
C1504 C 0.65826 0.89128 0.07295 0.0
C1505 C 0.67528 0.88064 0.08718 0.0
C1506 C 0.65871 0.88866 0.04849 0.0
C1507 C 0.67634 0.87458 0.03806 0.0
C1508 C 0.69469 0.86537 0.05221 0.0
C1509 C 0.69404 0.86868 0.07671 0.0
C1510 C 0.63907 0.8992 0.03409 0.0
C1511 C 0.71375 0.85018 0.04183 0.0
H1512 H 0.64331 0.82424 0.98312 0.0
H1513 H 0.68565 0.88076 0.95653 0.0
H1514 H 0.6625 0.82681 0.04168 0.0
H1515 H 0.63591 0.84333 0.039 0.0
H1516 H 0.63924 0.81631 0.02295 0.0
H1517 H 0.70434 0.90782 0.9813 0.0
H1518 H 0.68694 0.91417 0.00701 0.0
H1519 H 0.71258 0.8963 0.00968 0.0
H1520 H 0.64383 0.90069 0.0811 0.0
H1521 H 0.7071 0.86029 0.08775 0.0
H1522 H 0.62665 0.88516 0.0288 0.0
H1523 H 0.64603 0.90732 0.0178 0.0
H1524 H 0.62913 0.91268 0.04409 0.0
H1525 H 0.70639 0.83262 0.03773 0.0
H1526 H 0.72872 0.84785 0.05415 0.0
H1527 H 0.7204 0.85778 0.02517 0.0
C1528 C 0.13633 0.69358 0.07711 0.0
C1529 C 0.12539 0.674 0.08715 0.0
C1530 C 0.13825 0.69568 0.05256 0.0
C1531 C 0.12874 0.6779 0.03796 0.0
C1532 C 0.11568 0.65937 0.04811 0.0
C1533 C 0.11435 0.65754 0.07261 0.0
C1534 C 0.15232 0.7157 0.04244 0.0
C1535 C 0.10494 0.64024 0.03324 0.0
C1536 C 0.12831 0.6829 0.97119 0.0
C1537 C 0.14831 0.66973 0.9652 0.0
C1538 C 0.12187 0.68623 0.99483 0.0
C1539 C 0.13581 0.67624 0.01285 0.0
C1540 C 0.15612 0.6632 0.00691 0.0
C1541 C 0.162 0.66 0.98325 0.0
C1542 C 0.10005 0.70015 1.00052 0.0
C1543 C 0.17148 0.65216 0.02557 0.0
H1544 H 0.14497 0.70625 0.08839 0.0
H1545 H 0.10567 0.6425 0.08042 0.0
H1546 H 0.1699 0.70916 0.0371 0.0
H1547 H 0.14367 0.72292 0.02654 0.0
H1548 H 0.15481 0.73006 0.05538 0.0
H1549 H 0.09231 0.62935 0.04338 0.0
H1550 H 0.09572 0.64779 0.01783 0.0
H1551 H 0.11906 0.62861 0.02652 0.0
H1552 H 0.11777 0.69076 0.95744 0.0
H1553 H 0.17719 0.64944 0.97893 0.0
H1554 H 0.10439 0.71467 0.01274 0.0
H1555 H 0.0871 0.68873 0.00956 0.0
H1556 H 0.09167 0.70764 0.98456 0.0
H1557 H 0.17724 0.66563 0.03839 0.0
H1558 H 0.18733 0.64361 0.01805 0.0
H1559 H 0.16131 0.63875 0.03538 0.0
C1560 C 0.31855 0.87033 0.02663 0.0
C1561 C 0.3316 0.8496 0.02984 0.0
C1562 C 0.31089 0.87728 0.00416 0.0
C1563 C 0.3169 0.86352 0.98436 0.0
C1564 C 0.32881 0.84196 0.98764 0.0
C1565 C 0.3357 0.83516 0.01029 0.0
C1566 C 0.29753 0.9 0.00153 0.0
C1567 C 0.33569 0.82671 0.96704 0.0
C1568 C 0.29636 0.87007 0.92113 0.0
C1569 C 0.31598 0.88115 0.91125 0.0
C1570 C 0.29519 0.86603 0.94555 0.0
C1571 C 0.31422 0.87297 0.96008 0.0
C1572 C 0.33292 0.88611 0.95031 0.0
C1573 C 0.33344 0.89017 0.92608 0.0
C1574 C 0.27451 0.85278 0.95544 0.0
C1575 C 0.35362 0.89391 0.96499 0.0
H1576 H 0.31507 0.88169 0.04145 0.0
H1577 H 0.34495 0.81873 0.01249 0.0
H1578 H 0.30967 0.91399 0.99553 0.0
H1579 H 0.28342 0.89829 0.98817 0.0
H1580 H 0.28957 0.90566 0.01842 0.0
H1581 H 0.34364 0.80981 0.97267 0.0
H1582 H 0.32015 0.82288 0.95595 0.0
H1583 H 0.34861 0.83618 0.95592 0.0
H1584 H 0.28277 0.86314 0.90973 0.0
H1585 H 0.34846 0.89912 0.91852 0.0
H1586 H 0.2695 0.8597 0.97296 0.0
H1587 H 0.27931 0.83405 0.95764 0.0
H1588 H 0.25904 0.85375 0.94357 0.0
H1589 H 0.34755 0.9032 0.98097 0.0
H1590 H 0.36565 0.90569 0.95513 0.0
H1591 H 0.36374 0.87829 0.9708 0.0
C1592 C 0.10315 0.3251 0.92858 0.0
C1593 C 0.11917 0.31398 0.91363 0.0
C1594 C 0.10587 0.32401 0.95303 0.0
C1595 C 0.12557 0.3122 0.96261 0.0
C1596 C 0.14046 0.29903 0.94759 0.0
C1597 C 0.13692 0.29992 0.92315 0.0
C1598 C 0.0892 0.3378 0.96835 0.0
C1599 C 0.16179 0.28639 0.95696 0.0
C1600 C 0.15381 0.34518 0.01291 0.0
C1601 C 0.14741 0.3318 0.03263 0.0
C1602 C 0.14728 0.33853 0.99018 0.0
C1603 C 0.13344 0.31819 0.98684 0.0
C1604 C 0.12663 0.30461 0.00653 0.0
C1605 C 0.13381 0.3115 0.02921 0.0
C1606 C 0.15503 0.35359 0.9697 0.0
C1607 C 0.11162 0.28299 0.00365 0.0
H1608 H 0.08942 0.336 0.9211 0.0
H1609 H 0.14948 0.2916 0.9115 0.0
H1610 H 0.08524 0.32816 0.98481 0.0
H1611 H 0.0975 0.35472 0.97325 0.0
H1612 H 0.07244 0.34167 0.95911 0.0
H1613 H 0.16856 0.27327 0.94422 0.0
H1614 H 0.17593 0.29936 0.9604 0.0
H1615 H 0.1578 0.27743 0.97378 0.0
H1616 H 0.16374 0.36119 0.01514 0.0
H1617 H 0.12887 0.30088 0.04418 0.0
H1618 H 0.13944 0.36135 0.96092 0.0
H1619 H 0.16438 0.34274 0.9565 0.0
H1620 H 0.16685 0.3681 0.97519 0.0
H1621 H 0.09463 0.28778 0.99537 0.0
H1622 H 0.10802 0.27417 0.02068 0.0
H1623 H 0.12043 0.27033 0.99176 0.0
C1624 C 0.66715 0.15842 0.01266 0.0
C1625 C 0.66978 0.14195 0.0307 0.0
C1626 C 0.66687 0.15154 0.98907 0.0
C1627 C 0.66974 0.12755 0.98332 0.0
C1628 C 0.67212 0.1107 0.00151 0.0
C1629 C 0.6719 0.11812 0.02511 0.0
C1630 C 0.6637 0.17005 0.97031 0.0
C1631 C 0.67553 0.08504 0.99603 0.0
C1632 C 0.6467 0.11399 0.92264 0.0
C1633 C 0.66681 0.11731 0.90875 0.0
C1634 C 0.64772 0.11559 0.94716 0.0
C1635 C 0.66945 0.12044 0.95815 0.0
C1636 C 0.69018 0.1219 0.94438 0.0
C1637 C 0.68861 0.12041 0.91973 0.0
C1638 C 0.62517 0.11404 0.96108 0.0
C1639 C 0.71375 0.12665 0.95553 0.0
H1640 H 0.66554 0.17682 0.01716 0.0
H1641 H 0.67435 0.10549 0.03914 0.0
H1642 H 0.67929 0.17039 0.95861 0.0
H1643 H 0.64821 0.16578 0.95926 0.0
H1644 H 0.66121 0.18786 0.97782 0.0
H1645 H 0.67638 0.0741 0.01217 0.0
H1646 H 0.66099 0.07856 0.9848 0.0
H1647 H 0.69207 0.08264 0.98599 0.0
H1648 H 0.62979 0.11126 0.9143 0.0
H1649 H 0.70421 0.12286 0.9091 0.0
H1650 H 0.62037 0.13175 0.9676 0.0
H1651 H 0.62743 0.10253 0.97663 0.0
H1652 H 0.61035 0.10724 0.95035 0.0
H1653 H 0.71451 0.14519 0.96139 0.0
H1654 H 0.72847 0.12351 0.9431 0.0
H1655 H 0.71628 0.11543 0.97127 0.0
C1656 C 0.87262 0.69157 0.9279 0.0
C1657 C 0.87403 0.66891 0.91846 0.0
C1658 C 0.87115 0.69496 0.95239 0.0
C1659 C 0.87066 0.67521 0.96756 0.0
C1660 C 0.87337 0.65244 0.95807 0.0
C1661 C 0.87523 0.64962 0.93375 0.0
C1662 C 0.869 0.71956 0.96191 0.0
C1663 C 0.87277 0.63081 0.97346 0.0
C1664 C 0.8767 0.67396 0.03392 0.0
C1665 C 0.85316 0.67116 0.04087 0.0
C1666 C 0.88266 0.67742 0.01018 0.0
C1667 C 0.86474 0.6776 0.99293 0.0
C1668 C 0.84093 0.67626 0.99998 0.0
C1669 C 0.83546 0.67334 0.02381 0.0
C1670 C 0.90822 0.67949 0.00346 0.0
C1671 C 0.82121 0.67623 0.98219 0.0
H1672 H 0.87183 0.70656 0.91619 0.0
H1673 H 0.8766 0.63203 0.92666 0.0
H1674 H 0.85045 0.72302 0.96679 0.0
H1675 H 0.87983 0.72172 0.97798 0.0
H1676 H 0.87445 0.73289 0.94874 0.0
H1677 H 0.87626 0.61447 0.96342 0.0
H1678 H 0.88599 0.63223 0.9877 0.0
H1679 H 0.85525 0.62926 0.98188 0.0
H1680 H 0.89061 0.67246 0.0468 0.0
H1681 H 0.8172 0.6721 0.02891 0.0
H1682 H 0.91068 0.6932 0.98983 0.0
H1683 H 0.91435 0.66261 0.99594 0.0
H1684 H 0.91946 0.68375 0.01884 0.0
H1685 H 0.82297 0.69132 0.97002 0.0
H1686 H 0.80362 0.67703 0.99061 0.0
H1687 H 0.82217 0.65999 0.97147 0.0
C1688 C 0.97064 0.32616 0.12645 0.0
C1689 C 0.96531 0.32686 0.15054 0.0
C1690 C 0.99392 0.32316 0.11863 0.0
C1691 C 0.01234 0.32126 0.13527 0.0
C1692 C 0.00688 0.3205 0.15952 0.0
C1693 C 0.98348 0.32303 0.1668 0.0
C1694 C 0.99893 0.32337 0.0926 0.0
C1695 C 0.02592 0.31862 0.17793 0.0
C1696 C 0.07647 0.30701 0.12212 0.0
C1697 C 0.08635 0.32954 0.12209 0.0
C1698 C 0.05202 0.30391 0.12477 0.0
C1699 C 0.03735 0.32379 0.12791 0.0
C1700 C 0.04719 0.34654 0.12663 0.0
C1701 C 0.07144 0.34911 0.12353 0.0
C1702 C 0.0421 0.27938 0.12534 0.0
C1703 C 0.03235 0.36827 0.13009 0.0
H1704 H 0.95685 0.32895 0.11365 0.0
H1705 H 0.97959 0.32266 0.18539 0.0
H1706 H 0.00632 0.34066 0.08754 0.0
H1707 H 0.01213 0.3098 0.08802 0.0
H1708 H 0.98277 0.32032 0.08208 0.0
H1709 H 0.01865 0.31643 0.19591 0.0
H1710 H 0.03765 0.30358 0.1741 0.0
H1711 H 0.03686 0.33474 0.17763 0.0
H1712 H 0.08785 0.29181 0.12086 0.0
H1713 H 0.07884 0.36663 0.12332 0.0
H1714 H 0.02542 0.27845 0.11528 0.0
H1715 H 0.03814 0.27441 0.14376 0.0
H1716 H 0.05465 0.26635 0.11805 0.0
H1717 H 0.01723 0.36822 0.11782 0.0
H1718 H 0.0425 0.38469 0.12732 0.0
H1719 H 0.02516 0.36845 0.14822 0.0
C1720 C 0.98034 0.65394 0.84345 0.0
C1721 C 0.96111 0.66441 0.85475 0.0
C1722 C 0.00348 0.6594 0.8498 0.0
C1723 C 0.00768 0.67563 0.86815 0.0
C1724 C 0.98844 0.68635 0.87969 0.0
C1725 C 0.96535 0.68063 0.87284 0.0
C1726 C 0.02347 0.64743 0.83706 0.0
C1727 C 0.99224 0.70368 0.89935 0.0
C1728 C 0.06752 0.66403 0.89405 0.0
C1729 C 0.08157 0.67933 0.88089 0.0
C1730 C 0.043 0.6643 0.89188 0.0
C1731 C 0.03233 0.68001 0.87582 0.0
C1732 C 0.04634 0.69699 0.86415 0.0
C1733 C 0.07091 0.69653 0.86694 0.0
C1734 C 0.0288 0.64613 0.90498 0.0
C1735 C 0.03569 0.71407 0.84692 0.0
H1736 H 0.97733 0.64111 0.82977 0.0
H1737 H 0.95067 0.68906 0.88149 0.0
H1738 H 0.03569 0.6607 0.82972 0.0
H1739 H 0.03362 0.63645 0.84957 0.0
H1740 H 0.01723 0.63606 0.8225 0.0
H1741 H 0.97546 0.71109 0.90602 0.0
H1742 H 0.00152 0.695 0.91413 0.0
H1743 H 0.00358 0.71829 0.89325 0.0
H1744 H 0.07582 0.65079 0.90495 0.0
H1745 H 0.08181 0.70823 0.85659 0.0
H1746 H 0.02352 0.632 0.89266 0.0
H1747 H 0.01252 0.65396 0.91226 0.0
H1748 H 0.03898 0.63809 0.91957 0.0
H1749 H 0.03155 0.70473 0.83032 0.0
H1750 H 0.04788 0.72873 0.8428 0.0
H1751 H 0.01902 0.72142 0.85382 0.0
C1752 C 0.31663 0.07897 0.8841 0.0
C1753 C 0.33861 0.0897 0.8867 0.0
C1754 C 0.31486 0.05447 0.88165 0.0
C1755 C 0.33556 0.04059 0.88168 0.0
C1756 C 0.35752 0.05124 0.88619 0.0
C1757 C 0.35876 0.07563 0.88873 0.0
C1758 C 0.29106 0.04367 0.8773 0.0
C1759 C 0.38003 0.03718 0.88629 0.0
C1760 C 0.33228 0.9738 0.88034 0.0
C1761 C 0.33334 0.96957 0.85613 0.0
C1762 C 0.33281 0.99688 0.8891 0.0
C1763 C 0.33484 0.01593 0.8732 0.0
C1764 C 0.3367 0.01153 0.84879 0.0
C1765 C 0.33572 0.98843 0.84059 0.0
C1766 C 0.33049 0.00093 0.91519 0.0
C1767 C 0.33945 0.03126 0.83124 0.0
H1768 H 0.30099 0.08974 0.88268 0.0
H1769 H 0.3758 0.08378 0.89109 0.0
H1770 H 0.28951 0.03881 0.85849 0.0
H1771 H 0.2889 0.0274 0.88778 0.0
H1772 H 0.27654 0.05595 0.88167 0.0
H1773 H 0.39509 0.04743 0.89329 0.0
H1774 H 0.37803 0.02101 0.89694 0.0
H1775 H 0.38428 0.03172 0.86807 0.0
H1776 H 0.33003 0.95913 0.89226 0.0
H1777 H 0.33654 0.98498 0.82188 0.0
H1778 H 0.31402 0.01071 0.91882 0.0
H1779 H 0.34524 0.01185 0.92168 0.0
H1780 H 0.33016 0.98423 0.92526 0.0
H1781 H 0.32399 0.04308 0.83209 0.0
H1782 H 0.34124 0.02475 0.81294 0.0
H1783 H 0.3552 0.04188 0.83558 0.0
C1784 C 0.92776 0.33644 0.89573 0.0
C1785 C 0.91268 0.32003 0.88536 0.0
C1786 C 0.95209 0.33528 0.89222 0.0
C1787 C 0.96147 0.3175 0.87762 0.0
C1788 C 0.9465 0.2997 0.86877 0.0
C1789 C 0.92217 0.3011 0.8729 0.0
C1790 C 0.96743 0.35438 0.90234 0.0
C1791 C 0.95578 0.28049 0.85309 0.0
C1792 C 0.0132 0.33763 0.84088 0.0
C1793 C 0.03238 0.32781 0.85285 0.0
C1794 C 0.99008 0.33376 0.84841 0.0
C1795 C 0.98592 0.31991 0.86865 0.0
C1796 C 0.00509 0.30971 0.88074 0.0
C1797 C 0.02809 0.31371 0.87266 0.0
C1798 C 0.97012 0.34498 0.83496 0.0
C1799 C 0.00131 0.29489 0.9024 0.0
H1800 H 0.92038 0.35102 0.90549 0.0
H1801 H 0.91048 0.28852 0.86469 0.0
H1802 H 0.98371 0.34687 0.90998 0.0
H1803 H 0.97272 0.36662 0.88813 0.0
H1804 H 0.95817 0.3646 0.91614 0.0
H1805 H 0.94299 0.26588 0.85123 0.0
H1806 H 0.95934 0.2878 0.83537 0.0
H1807 H 0.97256 0.27338 0.85999 0.0
H1808 H 0.0162 0.34882 0.82581 0.0
H1809 H 0.04268 0.30569 0.88186 0.0
H1810 H 0.96092 0.35784 0.84633 0.0
H1811 H 0.95707 0.33148 0.82975 0.0
H1812 H 0.97624 0.35419 0.81888 0.0
H1813 H 0.99319 0.30568 0.91644 0.0
H1814 H 0.01798 0.28735 0.90921 0.0
H1815 H 0.98896 0.28036 0.89849 0.0
C1816 C 0.65534 0.01298 0.83283 0.0
C1817 C 0.66541 0.03209 0.84463 0.0
C1818 C 0.65938 0.98986 0.84024 0.0
C1819 C 0.67379 0.98561 0.86008 0.0
C1820 C 0.68435 0.00473 0.87191 0.0
C1821 C 0.68003 0.02775 0.86405 0.0
C1822 C 0.64766 0.97 0.82714 0.0
C1823 C 0.69985 0.00089 0.89308 0.0
C1824 C 0.65745 0.92806 0.88854 0.0
C1825 C 0.67336 0.91261 0.87792 0.0
C1826 C 0.65871 0.95227 0.8845 0.0
C1827 C 0.67614 0.9612 0.86917 0.0
C1828 C 0.69347 0.94585 0.85997 0.0
C1829 C 0.69194 0.92163 0.86456 0.0
C1830 C 0.64006 0.96796 0.89496 0.0
C1831 C 0.71235 0.95466 0.84359 0.0
H1832 H 0.64379 0.01608 0.81804 0.0
H1833 H 0.68823 0.04232 0.87307 0.0
H1834 H 0.66094 0.95688 0.82159 0.0
H1835 H 0.63503 0.96093 0.8389 0.0
H1836 H 0.63803 0.97617 0.81132 0.0
H1837 H 0.70793 0.01745 0.89943 0.0
H1838 H 0.68938 0.99314 0.90758 0.0
H1839 H 0.71404 0.98824 0.88882 0.0
H1840 H 0.64314 0.92105 0.89898 0.0
H1841 H 0.70411 0.90964 0.85615 0.0
H1842 H 0.6276 0.97342 0.88097 0.0
H1843 H 0.64802 0.9841 0.90235 0.0
H1844 H 0.62994 0.95897 0.90902 0.0
H1845 H 0.70451 0.95835 0.82612 0.0
H1846 H 0.72665 0.94159 0.84127 0.0
H1847 H 0.72003 0.97128 0.8502 0.0
C1848 C 0.02261 0.65564 0.16434 0.0
C1849 C 0.04148 0.6659 0.15226 0.0
C1850 C 0.99929 0.6603 0.15795 0.0
C1851 C 0.99457 0.67547 0.13881 0.0
C1852 C 0.01344 0.68609 0.12661 0.0
C1853 C 0.03668 0.68122 0.1335 0.0
C1854 C 0.97968 0.64851 0.17143 0.0
C1855 C 0.00908 0.70231 0.10609 0.0
C1856 C 0.93518 0.66133 0.11312 0.0
C1857 C 0.92073 0.67715 0.12517 0.0
C1858 C 0.95965 0.66206 0.11565 0.0
C1859 C 0.96983 0.67877 0.13096 0.0
C1860 C 0.95542 0.6961 0.14155 0.0
C1861 C 0.93091 0.69517 0.1384 0.0
C1862 C 0.97432 0.64349 0.1037 0.0
C1863 C 0.96557 0.7142 0.15799 0.0
H1864 H 0.02604 0.64353 0.17858 0.0
H1865 H 0.05106 0.68955 0.12427 0.0
H1866 H 0.96708 0.66183 0.17801 0.0
H1867 H 0.96985 0.63655 0.15962 0.0
H1868 H 0.98628 0.63818 0.18662 0.0
H1869 H 0.02559 0.71004 0.09914 0.0
H1870 H 1.00026 0.69256 0.09172 0.0
H1871 H 0.99712 0.71674 0.1114 0.0
H1872 H 0.92723 0.64746 0.10279 0.0
H1873 H 0.91969 0.70726 0.1479 0.0
H1874 H 0.97998 0.63027 0.11687 0.0
H1875 H 0.9904 0.65129 0.09595 0.0
H1876 H 0.96439 0.63431 0.08964 0.0
H1877 H 0.96988 0.70574 0.17502 0.0
H1878 H 0.95301 0.72874 0.16137 0.0
H1879 H 0.98208 0.72163 0.15078 0.0
C1880 C 0.32934 0.0154 0.16205 0.0
C1881 C 0.32863 0.03413 0.14619 0.0
C1882 C 0.32963 0.99215 0.15418 0.0
C1883 C 0.32867 0.9875 0.12976 0.0
C1884 C 0.32767 0.00639 0.11358 0.0
C1885 C 0.32795 0.02959 0.12201 0.0
C1886 C 0.33132 0.97259 0.17204 0.0
C1887 C 0.32613 0.00208 0.08747 0.0
C1888 C 0.35498 0.92861 0.11507 0.0
C1889 C 0.33526 0.91387 0.11622 0.0
C1890 C 0.35287 0.95289 0.11785 0.0
C1891 C 0.3304 0.96281 0.12151 0.0
C1892 C 0.31018 0.94829 0.12064 0.0
C1893 C 0.31285 0.92386 0.11815 0.0
C1894 C 0.37493 0.96761 0.1189 0.0
C1895 C 0.28588 0.95834 0.12391 0.0
H1896 H 0.32986 0.01907 0.18073 0.0
H1897 H 0.32696 0.04417 0.10983 0.0
H1898 H 0.31605 0.96064 0.17029 0.0
H1899 H 0.3474 0.96204 0.16879 0.0
H1900 H 0.3319 0.97925 0.19037 0.0
H1901 H 0.3246 0.01865 0.0773 0.0
H1902 H 0.34193 0.99246 0.08136 0.0
H1903 H 0.31067 0.99088 0.08354 0.0
H1904 H 0.37237 0.92107 0.11325 0.0
H1905 H 0.29754 0.91257 0.11886 0.0
H1906 H 0.37781 0.97362 0.13722 0.0
H1907 H 0.37316 0.98346 0.10775 0.0
H1908 H 0.39073 0.9577 0.11314 0.0
H1909 H 0.28321 0.96283 0.14268 0.0
H1910 H 0.27199 0.94572 0.11859 0.0
H1911 H 0.28378 0.97472 0.11357 0.0
C1912 C 0.70572 0.07593 0.13731 0.0
C1913 C 0.69183 0.08505 0.11919 0.0
C1914 C 0.70622 0.05165 0.14166 0.0
C1915 C 0.69275 0.03639 0.1273 0.0
C1916 C 0.68114 0.04545 0.10725 0.0
C1917 C 0.68059 0.06975 0.1036 0.0
C1918 C 0.71886 0.04276 0.1632 0.0
C1919 C 0.66696 0.02985 0.09118 0.0
C1920 C 0.69266 0.97008 0.13619 0.0
C1921 C 0.67227 0.96699 0.14981 0.0
C1922 C 0.69994 0.99258 0.12902 0.0
C1923 C 0.68664 0.01244 0.13577 0.0
C1924 C 0.66633 0.00946 0.14983 0.0
C1925 C 0.65936 0.98686 0.1565 0.0
C1926 C 0.7216 0.99508 0.11394 0.0
C1927 C 0.65158 0.03016 0.15749 0.0
H1928 H 0.71416 0.08785 0.14953 0.0
H1929 H 0.66986 0.07692 0.08957 0.0
H1930 H 0.7059 0.03995 0.1775 0.0
H1931 H 0.72756 0.02571 0.15967 0.0
H1932 H 0.73223 0.05549 0.16948 0.0
H1933 H 0.66291 0.03865 0.07423 0.0
H1934 H 0.67644 0.01325 0.08752 0.0
H1935 H 0.65011 0.02528 0.09986 0.0
H1936 H 0.70301 0.95498 0.13116 0.0
H1937 H 0.6434 0.98482 0.16661 0.0
H1938 H 0.73405 0.00766 0.12206 0.0
H1939 H 0.71667 0.00228 0.09651 0.0
H1940 H 0.73076 0.97807 0.11128 0.0
H1941 H 0.6627 0.04328 0.16663 0.0
H1942 H 0.63706 0.02496 0.16944 0.0
H1943 H 0.64386 0.03889 0.14186 0.0
C1944 C 0.15835 0.21984 0.2948 0.0
C1945 C 0.13886 0.22038 0.30985 0.0
C1946 C 0.16104 0.23664 0.27692 0.0
C1947 C 0.14345 0.25393 0.27361 0.0
C1948 C 0.12393 0.25474 0.28901 0.0
C1949 C 0.12204 0.23815 0.30713 0.0
C1950 C 0.18244 0.23561 0.26128 0.0
C1951 C 0.10452 0.27254 0.28578 0.0
C1952 C 0.15399 0.30942 0.23806 0.0
C1953 C 0.14441 0.30329 0.21625 0.0
C1954 C 0.15467 0.29322 0.25665 0.0
C1955 C 0.14484 0.27061 0.2535 0.0
C1956 C 0.13525 0.26432 0.2314 0.0
C1957 C 0.13548 0.28066 0.21292 0.0
C1958 C 0.16566 0.30036 0.2797 0.0
C1959 C 0.12406 0.24063 0.22749 0.0
H1960 H 0.17142 0.20615 0.29691 0.0
H1961 H 0.10678 0.23847 0.31853 0.0
H1962 H 0.1771 0.23107 0.24311 0.0
H1963 H 0.1911 0.25303 0.26058 0.0
H1964 H 0.19544 0.22241 0.26742 0.0
H1965 H 0.09067 0.271 0.29945 0.0
H1966 H 0.1118 0.29057 0.28632 0.0
H1967 H 0.09626 0.27017 0.26827 0.0
H1968 H 0.16111 0.32689 0.24045 0.0
H1969 H 0.12793 0.27607 0.19606 0.0
H1970 H 0.17902 0.28724 0.28512 0.0
H1971 H 0.15205 0.30086 0.29363 0.0
H1972 H 0.17415 0.31788 0.27868 0.0
H1973 H 0.13686 0.22647 0.23133 0.0
H1974 H 0.11759 0.23842 0.20921 0.0
H1975 H 0.10905 0.23834 0.23972 0.0
C1976 C 0.71968 0.15204 0.21446 0.0
C1977 C 0.70009 0.13706 0.216 0.0
C1978 C 0.73647 0.15321 0.23243 0.0
C1979 C 0.73338 0.13966 0.25302 0.0
C1980 C 0.71339 0.12503 0.25518 0.0
C1981 C 0.69711 0.12371 0.23657 0.0
C1982 C 0.75764 0.16891 0.22926 0.0
C1983 C 0.70919 0.1108 0.27715 0.0
C1984 C 0.78859 0.12906 0.28924 0.0
C1985 C 0.78778 0.14789 0.30504 0.0
C1986 C 0.77064 0.12572 0.27259 0.0
C1987 C 0.75113 0.14119 0.27223 0.0
C1988 C 0.74969 0.15947 0.289 0.0
C1989 C 0.7682 0.16282 0.30496 0.0
C1990 C 0.77314 0.10638 0.25466 0.0
C1991 C 0.72892 0.17596 0.28964 0.0
H1992 H 0.72209 0.16305 0.19919 0.0
H1993 H 0.68222 0.11204 0.23816 0.0
H1994 H 0.75777 0.18273 0.24297 0.0
H1995 H 0.77402 0.15854 0.23135 0.0
H1996 H 0.75795 0.17756 0.21177 0.0
H1997 H 0.69235 0.10096 0.27648 0.0
H1998 H 0.72374 0.09811 0.27971 0.0
H1999 H 0.70896 0.1225 0.29272 0.0
H2000 H 0.80375 0.11753 0.28922 0.0
H2001 H 0.76736 0.17721 0.31737 0.0
H2002 H 0.77514 0.11417 0.2369 0.0
H2003 H 0.75711 0.09533 0.25435 0.0
H2004 H 0.78857 0.09497 0.25822 0.0
H2005 H 0.729 0.18724 0.27376 0.0
H2006 H 0.72916 0.18745 0.3054 0.0
H2007 H 0.71224 0.16588 0.28951 0.0
C2008 C 0.88128 0.78182 0.30203 0.0
C2009 C 0.85829 0.79053 0.30391 0.0
C2010 C 0.88656 0.76311 0.28685 0.0
C2011 C 0.86849 0.75317 0.27296 0.0
C2012 C 0.84524 0.76184 0.27487 0.0
C2013 C 0.84039 0.78028 0.29044 0.0
C2014 C 0.91148 0.75413 0.28553 0.0
C2015 C 0.82553 0.75194 0.26011 0.0
C2016 C 0.88231 0.72207 0.21572 0.0
C2017 C 0.87825 0.69851 0.22165 0.0
C2018 C 0.88 0.73998 0.23245 0.0
C2019 C 0.87384 0.73419 0.25583 0.0
C2020 C 0.87113 0.71036 0.2623 0.0
C2021 C 0.87327 0.6928 0.24512 0.0
C2022 C 0.88303 0.76518 0.22481 0.0
C2023 C 0.86489 0.70346 0.28714 0.0
H2024 H 0.89518 0.78958 0.31248 0.0
H2025 H 0.82262 0.78703 0.29166 0.0
H2026 H 0.91186 0.73499 0.2891 0.0
H2027 H 0.91853 0.75679 0.26756 0.0
H2028 H 0.92328 0.76308 0.29823 0.0
H2029 H 0.8084 0.76055 0.2638 0.0
H2030 H 0.82965 0.7542 0.24119 0.0
H2031 H 0.8237 0.73284 0.26341 0.0
H2032 H 0.88673 0.72663 0.19779 0.0
H2033 H 0.86998 0.67472 0.24991 0.0
H2034 H 0.8957 0.77429 0.23646 0.0
H2035 H 0.86599 0.77453 0.2263 0.0
H2036 H 0.8893 0.76664 0.20639 0.0
H2037 H 0.87676 0.71227 0.29984 0.0
H2038 H 0.86596 0.6842 0.28992 0.0
H2039 H 0.84672 0.70928 0.29115 0.0
C2040 C 0.29222 0.8412 0.21438 0.0
C2041 C 0.30634 0.86099 0.21057 0.0
C2042 C 0.27491 0.8411 0.23202 0.0
C2043 C 0.27126 0.86151 0.24577 0.0
C2044 C 0.28522 0.88168 0.24163 0.0
C2045 C 0.30276 0.88107 0.22429 0.0
C2046 C 0.2608 0.81907 0.23621 0.0
C2047 C 0.28154 0.90399 0.25546 0.0
C2048 C 0.21312 0.87006 0.27781 0.0
C2049 C 0.21962 0.86583 0.30121 0.0
C2050 C 0.22966 0.86846 0.25953 0.0
C2051 C 0.2531 0.86182 0.26469 0.0
C2052 C 0.25948 0.8566 0.28818 0.0
C2053 C 0.24276 0.85901 0.30619 0.0
C2054 C 0.22226 0.87469 0.23483 0.0
C2055 C 0.28409 0.84883 0.29436 0.0
H2056 H 0.29512 0.82563 0.20387 0.0
H2057 H 0.31344 0.89647 0.22112 0.0
H2058 H 0.26341 0.81297 0.25455 0.0
H2059 H 0.24179 0.82275 0.23401 0.0
H2060 H 0.26582 0.80468 0.22405 0.0
H2061 H 0.29318 0.91842 0.24942 0.0
H2062 H 0.263 0.90982 0.25387 0.0
H2063 H 0.285 0.90074 0.27436 0.0
H2064 H 0.19528 0.87547 0.27389 0.0
H2065 H 0.2478 0.85549 0.32422 0.0
H2066 H 0.2262 0.86 0.22269 0.0
H2067 H 0.23241 0.89013 0.22866 0.0
H2068 H 0.20322 0.87886 0.23362 0.0
H2069 H 0.28936 0.83378 0.28318 0.0
H2070 H 0.2857 0.84359 0.3131 0.0
H2071 H 0.29665 0.86329 0.29088 0.0
C2072 C 0.12078 0.77726 0.69901 0.0
C2073 C 0.1438 0.78568 0.69635 0.0
C2074 C 0.11564 0.75915 0.71496 0.0
C2075 C 0.13389 0.74948 0.72882 0.0
C2076 C 0.15719 0.75777 0.72607 0.0
C2077 C 0.16188 0.77564 0.70977 0.0
C2078 C 0.09064 0.75055 0.71718 0.0
C2079 C 0.17712 0.74813 0.74073 0.0
C2080 C 0.12085 0.72102 0.78766 0.0
C2081 C 0.12432 0.69715 0.78268 0.0
C2082 C 0.12313 0.73817 0.77012 0.0
C2083 C 0.12868 0.7313 0.74689 0.0
C2084 C 0.13087 0.70717 0.74142 0.0
C2085 C 0.12875 0.69038 0.75939 0.0
C2086 C 0.12067 0.76371 0.77672 0.0
C2087 C 0.13648 0.69913 0.71678 0.0
H2088 H 0.10672 0.78482 0.6886 0.0
H2089 H 0.17969 0.78211 0.70793 0.0
H2090 H 0.08997 0.73128 0.71453 0.0
H2091 H 0.08399 0.75413 0.73514 0.0
H2092 H 0.0787 0.75907 0.70431 0.0
H2093 H 0.19429 0.75621 0.73618 0.0
H2094 H 0.17356 0.75134 0.75963 0.0
H2095 H 0.17849 0.72888 0.7383 0.0
H2096 H 0.11685 0.7264 0.80545 0.0
H2097 H 0.13159 0.67205 0.75533 0.0
H2098 H 0.10781 0.77252 0.76503 0.0
H2099 H 0.13779 0.77273 0.77435 0.0
H2100 H 0.11493 0.76606 0.79522 0.0
H2101 H 0.12443 0.70755 0.70397 0.0
H2102 H 0.13513 0.67979 0.71489 0.0
H2103 H 0.15462 0.70454 0.71213 0.0
C2104 C 0.22395 0.15599 0.71224 0.0
C2105 C 0.22529 0.13666 0.69707 0.0
C2106 C 0.24057 0.15916 0.73028 0.0
C2107 C 0.25846 0.14218 0.73368 0.0
C2108 C 0.25991 0.12271 0.71829 0.0
C2109 C 0.24354 0.12039 0.69998 0.0
C2110 C 0.23882 0.18051 0.74585 0.0
C2111 C 0.2783 0.10388 0.72163 0.0
C2112 C 0.31413 0.15469 0.7686 0.0
C2113 C 0.30856 0.14511 0.79057 0.0
C2114 C 0.29764 0.15475 0.7502 0.0
C2115 C 0.27533 0.14428 0.75367 0.0
C2116 C 0.26962 0.13469 0.77594 0.0
C2117 C 0.2862 0.13556 0.79423 0.0
C2118 C 0.30419 0.16579 0.727 0.0
C2119 C 0.2463 0.1228 0.78022 0.0
H2120 H 0.20987 0.16862 0.71002 0.0
H2121 H 0.24446 0.10523 0.68852 0.0
H2122 H 0.23477 0.17508 0.76412 0.0
H2123 H 0.25591 0.18988 0.74626 0.0
H2124 H 0.22498 0.1929 0.73985 0.0
H2125 H 0.27698 0.08979 0.70822 0.0
H2126 H 0.29614 0.11164 0.72071 0.0
H2127 H 0.27638 0.09587 0.73931 0.0
H2128 H 0.33137 0.1623 0.76592 0.0
H2129 H 0.28204 0.12801 0.81121 0.0
H2130 H 0.29054 0.17862 0.7216 0.0
H2131 H 0.30504 0.15212 0.71317 0.0
H2132 H 0.32143 0.17489 0.72777 0.0
H2133 H 0.23167 0.13507 0.77638 0.0
H2134 H 0.24448 0.11648 0.7986 0.0
H2135 H 0.2444 0.10761 0.76818 0.0
C2136 C 0.88852 0.29333 0.7778 0.0
C2137 C 0.86708 0.29822 0.78882 0.0
C2138 C 0.89 0.27642 0.75996 0.0
C2139 C 0.8694 0.26458 0.75258 0.0
C2140 C 0.84765 0.26959 0.7636 0.0
C2141 C 0.84682 0.28615 0.78184 0.0
C2142 C 0.91363 0.27115 0.7491 0.0
C2143 C 0.82522 0.25775 0.75585 0.0
C2144 C 0.87196 0.23872 0.69116 0.0
C2145 C 0.87572 0.21489 0.6959 0.0
C2146 C 0.86909 0.25496 0.70946 0.0
C2147 C 0.87066 0.24726 0.73307 0.0
C2148 C 0.87431 0.22316 0.73796 0.0
C2149 C 0.87648 0.2072 0.71929 0.0
C2150 C 0.86461 0.2804 0.70353 0.0
C2151 C 0.8766 0.21434 0.76288 0.0
H2152 H 0.90421 0.30246 0.78349 0.0
H2153 H 0.83026 0.29011 0.79035 0.0
H2154 H 0.91753 0.25212 0.75056 0.0
H2155 H 0.91334 0.27557 0.73012 0.0
H2156 H 0.92809 0.28112 0.75758 0.0
H2157 H 0.80974 0.2637 0.76616 0.0
H2158 H 0.82196 0.26149 0.73699 0.0
H2159 H 0.82687 0.23846 0.75771 0.0
H2160 H 0.87111 0.24469 0.67309 0.0
H2161 H 0.87948 0.18879 0.72302 0.0
H2162 H 0.87955 0.29131 0.70963 0.0
H2163 H 0.84864 0.2867 0.71278 0.0
H2164 H 0.86227 0.28325 0.68436 0.0
H2165 H 0.89182 0.22292 0.77151 0.0
H2166 H 0.87906 0.19502 0.7637 0.0
H2167 H 0.86072 0.21903 0.77315 0.0
C2168 C 0.71379 0.87674 0.78772 0.0
C2169 C 0.69252 0.86497 0.78401 0.0
C2170 C 0.73135 0.87694 0.77042 0.0
C2171 C 0.72773 0.86458 0.74913 0.0
C2172 C 0.70631 0.8525 0.74539 0.0
C2173 C 0.68883 0.85308 0.7628 0.0
C2174 C 0.7537 0.8905 0.77485 0.0
C2175 C 0.70198 0.83875 0.72316 0.0
C2176 C 0.76366 0.88301 0.69607 0.0
C2177 C 0.78241 0.86703 0.69675 0.0
C2178 C 0.74569 0.88228 0.7129 0.0
C2179 C 0.74616 0.86481 0.73057 0.0
C2180 C 0.76461 0.8481 0.73089 0.0
C2181 C 0.78269 0.84958 0.71411 0.0
C2182 C 0.72659 0.90068 0.71221 0.0
C2183 C 0.76545 0.8289 0.74915 0.0
H2184 H 0.71651 0.88598 0.80413 0.0
H2185 H 0.67251 0.84367 0.76015 0.0
H2186 H 0.76903 0.87848 0.77431 0.0
H2187 H 0.75628 0.90378 0.76083 0.0
H2188 H 0.75355 0.89957 0.79212 0.0
H2189 H 0.68463 0.82981 0.72325 0.0
H2190 H 0.70278 0.85058 0.7077 0.0
H2191 H 0.71594 0.82534 0.72087 0.0
H2192 H 0.76343 0.8967 0.68284 0.0
H2193 H 0.79709 0.83714 0.71465 0.0
H2194 H 0.7269 0.91107 0.72869 0.0
H2195 H 0.70908 0.8922 0.71107 0.0
H2196 H 0.72857 0.91287 0.69711 0.0
H2197 H 0.76766 0.8367 0.76686 0.0
H2198 H 0.78008 0.81638 0.74603 0.0
H2199 H 0.74864 0.81904 0.74924 0.0
C2200 C 0.21947 0.12796 0.28817 0.0
C2201 C 0.22262 0.13695 0.31084 0.0
C2202 C 0.23797 0.12768 0.27191 0.0
C2203 C 0.26005 0.13723 0.27827 0.0
C2204 C 0.26331 0.14645 0.30117 0.0
C2205 C 0.2446 0.14589 0.31733 0.0
C2206 C 0.23388 0.11708 0.24794 0.0
C2207 C 0.2864 0.15726 0.30843 0.0
C2208 C 0.31208 0.11664 0.24194 0.0
C2209 C 0.31324 0.13396 0.22446 0.0
C2210 C 0.2953 0.11784 0.25997 0.0
C2211 C 0.27968 0.13715 0.26092 0.0
C2212 C 0.28163 0.15535 0.24404 0.0
C2213 C 0.29818 0.15338 0.2258 0.0
C2214 C 0.29344 0.09777 0.27721 0.0
C2215 C 0.26569 0.17651 0.24477 0.0
H2216 H 0.20247 0.12089 0.2833 0.0
H2217 H 0.24686 0.15306 0.33481 0.0
H2218 H 0.23638 0.13061 0.23415 0.0
H2219 H 0.2469 0.10296 0.24462 0.0
H2220 H 0.21594 0.10961 0.2461 0.0
H2221 H 0.28598 0.16396 0.32675 0.0
H2222 H 0.30072 0.14415 0.30694 0.0
H2223 H 0.29081 0.17198 0.29645 0.0
H2224 H 0.3235 0.10146 0.24089 0.0
H2225 H 0.29908 0.16685 0.21238 0.0
H2226 H 0.27636 0.08869 0.27477 0.0
H2227 H 0.29389 0.10441 0.29551 0.0
H2228 H 0.30779 0.08474 0.27496 0.0
H2229 H 0.24745 0.17117 0.24048 0.0
H2230 H 0.27121 0.1903 0.23212 0.0
H2231 H 0.26544 0.18414 0.2627 0.0
C2232 C 0.83405 0.28537 0.22713 0.0
C2233 C 0.85249 0.29865 0.21767 0.0
C2234 C 0.83777 0.27038 0.24632 0.0
C2235 C 0.8604 0.26893 0.25658 0.0
C2236 C 0.87897 0.28273 0.24749 0.0
C2237 C 0.87485 0.29728 0.22798 0.0
C2238 C 0.81758 0.25565 0.25525 0.0
C2239 C 0.90322 0.28196 0.25823 0.0
C2240 C 0.86111 0.24207 0.31767 0.0
C2241 C 0.86683 0.21862 0.31273 0.0
C2242 C 0.86011 0.25897 0.29972 0.0
C2243 C 0.86464 0.25221 0.27622 0.0
C2244 C 0.87149 0.22887 0.27126 0.0
C2245 C 0.87274 0.21246 0.28958 0.0
C2246 C 0.85315 0.2838 0.30575 0.0
C2247 C 0.87638 0.22091 0.24643 0.0
H2248 H 0.81677 0.28623 0.21916 0.0
H2249 H 0.88915 0.30764 0.22084 0.0
H2250 H 0.822 0.23676 0.25362 0.0
H2251 H 0.81449 0.25925 0.27414 0.0
H2252 H 0.80101 0.25903 0.24548 0.0
H2253 H 0.9154 0.29473 0.24991 0.0
H2254 H 0.9022 0.28578 0.27732 0.0
H2255 H 0.91074 0.26411 0.25634 0.0
H2256 H 0.85644 0.24708 0.3354 0.0
H2257 H 0.87781 0.1946 0.28561 0.0
H2258 H 0.83534 0.28749 0.29871 0.0
H2259 H 0.86541 0.29648 0.29748 0.0
H2260 H 0.85294 0.28689 0.32502 0.0
H2261 H 0.86005 0.22216 0.23584 0.0
H2262 H 0.88286 0.20254 0.2457 0.0
H2263 H 0.88961 0.2325 0.23806 0.0
C2264 C 0.69232 0.86113 0.24226 0.0
C2265 C 0.69688 0.86943 0.21954 0.0
C2266 C 0.71008 0.8606 0.2594 0.0
C2267 C 0.73273 0.8693 0.25388 0.0
C2268 C 0.73737 0.87784 0.23096 0.0
C2269 C 0.71948 0.87745 0.21394 0.0
C2270 C 0.70462 0.85065 0.28338 0.0
C2271 C 0.7611 0.88781 0.22455 0.0
C2272 C 0.7711 0.88799 0.30541 0.0
C2273 C 0.78695 0.86928 0.30685 0.0
C2274 C 0.75363 0.88848 0.28794 0.0
C2275 C 0.75157 0.8694 0.27208 0.0
C2276 C 0.76738 0.85028 0.27378 0.0
C2277 C 0.78509 0.85064 0.29093 0.0
C2278 C 0.73754 0.90947 0.2863 0.0
C2279 C 0.76538 0.82929 0.25773 0.0
H2280 H 0.67489 0.85478 0.24657 0.0
H2281 H 0.72297 0.8841 0.19644 0.0
H2282 H 0.71713 0.83632 0.28763 0.0
H2283 H 0.70682 0.86442 0.29696 0.0
H2284 H 0.68644 0.84366 0.28452 0.0
H2285 H 0.76168 0.89429 0.20615 0.0
H2286 H 0.76551 0.90253 0.23651 0.0
H2287 H 0.7749 0.87425 0.22679 0.0
H2288 H 0.77273 0.90243 0.31768 0.0
H2289 H 0.79724 0.83605 0.29229 0.0
H2290 H 0.71909 0.90398 0.28928 0.0
H2291 H 0.73846 0.91716 0.26841 0.0
H2292 H 0.74209 0.92327 0.2993 0.0
H2293 H 0.77872 0.81562 0.26174 0.0
H2294 H 0.76754 0.83481 0.23917 0.0
H2295 H 0.74764 0.82139 0.25936 0.0
C2296 C 0.13304 0.70433 0.2198 0.0
C2297 C 0.15595 0.69921 0.21222 0.0
C2298 C 0.12901 0.72035 0.23806 0.0
C2299 C 0.14833 0.73155 0.24895 0.0
C2300 C 0.17151 0.72595 0.24188 0.0
C2301 C 0.17505 0.70981 0.22363 0.0
C2302 C 0.10404 0.72583 0.24519 0.0
C2303 C 0.19257 0.73759 0.25305 0.0
C2304 C 0.1397 0.7917 0.27587 0.0
C2305 C 0.13926 0.78656 0.29996 0.0
C2306 C 0.14225 0.77391 0.25911 0.0
C2307 C 0.14433 0.75032 0.2666 0.0
C2308 C 0.1433 0.74489 0.29085 0.0
C2309 C 0.14076 0.7631 0.30727 0.0
C2310 C 0.14312 0.78041 0.23339 0.0
C2311 C 0.14545 0.71992 0.29946 0.0
H2312 H 0.11818 0.69612 0.21119 0.0
H2313 H 0.19281 0.70598 0.21791 0.0
H2314 H 0.10192 0.72377 0.26445 0.0
H2315 H 0.09992 0.74435 0.24084 0.0
H2316 H 0.09108 0.71435 0.2362 0.0
H2317 H 0.20945 0.73025 0.24654 0.0
H2318 H 0.19226 0.75668 0.24922 0.0
H2319 H 0.19193 0.73554 0.27242 0.0
H2320 H 0.13807 0.80973 0.27009 0.0
H2321 H 0.14062 0.75903 0.32586 0.0
H2322 H 0.12933 0.77078 0.22357 0.0
H2323 H 0.16033 0.77521 0.22585 0.0
H2324 H 0.14061 0.79952 0.23046 0.0
H2325 H 0.13219 0.70866 0.29069 0.0
H2326 H 0.14308 0.71851 0.31878 0.0
H2327 H 0.16302 0.71287 0.29482 0.0
C2328 C 0.30446 0.88502 0.75735 0.0
C2329 C 0.30362 0.87014 0.77698 0.0
C2330 C 0.28775 0.88326 0.73931 0.0
C2331 C 0.27003 0.86589 0.74067 0.0
C2332 C 0.26954 0.85031 0.76008 0.0
C2333 C 0.28621 0.85278 0.77814 0.0
C2334 C 0.28866 0.90045 0.71912 0.0
C2335 C 0.25121 0.83126 0.76194 0.0
C2336 C 0.21306 0.87577 0.70716 0.0
C2337 C 0.21681 0.8625 0.6868 0.0
C2338 C 0.2303 0.87716 0.72476 0.0
C2339 C 0.25161 0.86456 0.72211 0.0
C2340 C 0.25542 0.85104 0.7016 0.0
C2341 C 0.23805 0.85037 0.68408 0.0
C2342 C 0.22575 0.89217 0.74612 0.0
C2343 C 0.27771 0.83704 0.69832 0.0
H2344 H 0.31775 0.8986 0.75641 0.0
H2345 H 0.28556 0.84116 0.79321 0.0
H2346 H 0.28991 0.89091 0.70219 0.0
H2347 H 0.27221 0.91091 0.71864 0.0
H2348 H 0.30379 0.91268 0.72048 0.0
H2349 H 0.25427 0.81955 0.77726 0.0
H2350 H 0.23352 0.83925 0.76369 0.0
H2351 H 0.2511 0.82047 0.74572 0.0
H2352 H 0.19668 0.88524 0.70918 0.0
H2353 H 0.24078 0.8398 0.6685 0.0
H2354 H 0.23977 0.90558 0.74789 0.0
H2355 H 0.22622 0.88119 0.76221 0.0
H2356 H 0.20848 0.90123 0.74527 0.0
H2357 H 0.29316 0.84889 0.69857 0.0
H2358 H 0.27778 0.82709 0.68155 0.0
H2359 H 0.27985 0.82448 0.71307 0.0
C2360 C 0.12633 0.29692 0.77752 0.0
C2361 C 0.14886 0.30141 0.78649 0.0
C2362 C 0.12314 0.28219 0.75801 0.0
C2363 C 0.14293 0.27153 0.74738 0.0
C2364 C 0.16577 0.2768 0.75573 0.0
C2365 C 0.16846 0.29175 0.77511 0.0
C2366 C 0.09853 0.27718 0.74949 0.0
C2367 C 0.18732 0.26565 0.745 0.0
C2368 C 0.1368 0.21123 0.72033 0.0
C2369 C 0.13828 0.2161 0.69623 0.0
C2370 C 0.13761 0.22919 0.73705 0.0
C2371 C 0.13975 0.25275 0.72952 0.0
C2372 C 0.14015 0.25795 0.70517 0.0
C2373 C 0.1394 0.2395 0.68875 0.0
C2374 C 0.13698 0.22284 0.76282 0.0
C2375 C 0.14223 0.28289 0.6965 0.0
H2376 H 0.11108 0.30449 0.78605 0.0
H2377 H 0.18594 0.29513 0.78186 0.0
H2378 H 0.09752 0.27897 0.7301 0.0
H2379 H 0.09374 0.25883 0.75389 0.0
H2380 H 0.08536 0.28908 0.75759 0.0
H2381 H 0.20387 0.27315 0.75212 0.0
H2382 H 0.18721 0.24651 0.7486 0.0
H2383 H 0.18723 0.26794 0.72565 0.0
H2384 H 0.13529 0.19321 0.72619 0.0
H2385 H 0.14055 0.24331 0.67014 0.0
H2386 H 0.12266 0.23252 0.7718 0.0
H2387 H 0.15375 0.22804 0.7713 0.0
H2388 H 0.1343 0.20375 0.76571 0.0
H2389 H 0.12888 0.29417 0.70513 0.0
H2390 H 0.14001 0.28418 0.67716 0.0
H2391 H 0.15975 0.28997 0.70123 0.0
C2392 C 0.71708 0.12542 0.78358 0.0
C2393 C 0.70319 0.14574 0.7844 0.0
C2394 C 0.73444 0.12262 0.76625 0.0
C2395 C 0.73767 0.14035 0.7491 0.0
C2396 C 0.72317 0.16053 0.74941 0.0
C2397 C 0.70627 0.16308 0.76716 0.0
C2398 C 0.74982 0.10103 0.76673 0.0
C2399 C 0.72575 0.17964 0.7312 0.0
C2400 C 0.79664 0.1477 0.71879 0.0
C2401 C 0.79282 0.13676 0.69696 0.0
C2402 C 0.77907 0.14843 0.73606 0.0
C2403 C 0.75684 0.13837 0.7314 0.0
C2404 C 0.75274 0.12724 0.70958 0.0
C2405 C 0.77079 0.12638 0.69275 0.0
C2406 C 0.78423 0.16028 0.75923 0.0
C2407 C 0.72913 0.11659 0.70386 0.0
H2408 H 0.71486 0.11201 0.7969 0.0
H2409 H 0.69547 0.17874 0.76756 0.0
H2410 H 0.74917 0.09194 0.74953 0.0
H2411 H 0.76836 0.10624 0.7698 0.0
H2412 H 0.7445 0.08847 0.78068 0.0
H2413 H 0.71213 0.19348 0.73302 0.0
H2414 H 0.7433 0.18794 0.73282 0.0
H2415 H 0.72456 0.17207 0.71328 0.0
H2416 H 0.81326 0.15607 0.7225 0.0
H2417 H 0.76743 0.1176 0.67627 0.0
H2418 H 0.78034 0.14817 0.77399 0.0
H2419 H 0.77273 0.17586 0.76136 0.0
H2420 H 0.80282 0.16605 0.76065 0.0
H2421 H 0.72444 0.10318 0.71718 0.0
H2422 H 0.72883 0.10826 0.68622 0.0
H2423 H 0.71535 0.13035 0.70445 0.0
C2424 C 0.87201 0.70061 0.78332 0.0
C2425 C 0.84897 0.69646 0.79109 0.0
C2426 C 0.87649 0.71581 0.76441 0.0
C2427 C 0.85749 0.72726 0.75316 0.0
C2428 C 0.83418 0.7226 0.76046 0.0
C2429 C 0.8302 0.7072 0.77927 0.0
C2430 C 0.90157 0.72021 0.75701 0.0
C2431 C 0.81345 0.73462 0.74904 0.0
C2432 C 0.86659 0.78702 0.72558 0.0
C2433 C 0.86589 0.78186 0.7015 0.0
C2434 C 0.86456 0.76932 0.74251 0.0
C2435 C 0.86195 0.74574 0.73524 0.0
C2436 C 0.86226 0.74022 0.71097 0.0
C2437 C 0.86423 0.75839 0.69434 0.0
C2438 C 0.86442 0.77598 0.76821 0.0
C2439 C 0.85969 0.71524 0.70258 0.0
H2440 H 0.88662 0.69223 0.79222 0.0
H2441 H 0.81234 0.7041 0.7851 0.0
H2442 H 0.90344 0.71799 0.73774 0.0
H2443 H 0.90649 0.73857 0.76122 0.0
H2444 H 0.91413 0.70825 0.76598 0.0
H2445 H 0.79637 0.72793 0.75573 0.0
H2446 H 0.81431 0.75377 0.75243 0.0
H2447 H 0.81399 0.73212 0.72972 0.0
H2448 H 0.86851 0.80505 0.73125 0.0
H2449 H 0.86364 0.75433 0.67577 0.0
H2450 H 0.87803 0.76591 0.77787 0.0
H2451 H 0.84716 0.77148 0.77608 0.0
H2452 H 0.86767 0.795 0.77094 0.0
H2453 H 0.87249 0.70371 0.71169 0.0
H2454 H 0.86237 0.71364 0.68331 0.0
H2455 H 0.84186 0.7087 0.70693 0.0
C2456 C 0.30234 0.22806 0.11518 0.0
C2457 C 0.30847 0.21794 0.13676 0.0
C2458 C 0.28474 0.2453 0.11382 0.0
C2459 C 0.27334 0.25286 0.13462 0.0
C2460 C 0.27985 0.24301 0.15652 0.0
C2461 C 0.29718 0.2255 0.15728 0.0
C2462 C 0.27801 0.25507 0.09009 0.0
C2463 C 0.26845 0.25088 0.17914 0.0
C2464 C 0.24335 0.31236 0.13282 0.0
C2465 C 0.21962 0.30613 0.13039 0.0
C2466 C 0.26094 0.2952 0.13459 0.0
C2467 C 0.25472 0.27119 0.13349 0.0
C2468 C 0.23078 0.26476 0.13114 0.0
C2469 C 0.21347 0.28232 0.12985 0.0
C2470 C 0.2862 0.30277 0.13756 0.0
C2471 C 0.2235 0.23934 0.12959 0.0
H2472 H 0.31075 0.22188 0.09927 0.0
H2473 H 0.30199 0.21765 0.17394 0.0
H2474 H 0.25906 0.25191 0.08676 0.0
H2475 H 0.28078 0.27433 0.0898 0.0
H2476 H 0.28834 0.24709 0.07559 0.0
H2477 H 0.27587 0.2418 0.19475 0.0
H2478 H 0.27078 0.27007 0.1814 0.0
H2479 H 0.24928 0.24743 0.17848 0.0
H2480 H 0.24822 0.33073 0.13346 0.0
H2481 H 0.19518 0.27741 0.12786 0.0
H2482 H 0.2968 0.29661 0.12242 0.0
H2483 H 0.29375 0.29467 0.1536 0.0
H2484 H 0.28801 0.32213 0.13891 0.0
H2485 H 0.23221 0.23092 0.11433 0.0
H2486 H 0.20418 0.23726 0.12771 0.0
H2487 H 0.22927 0.22976 0.14555 0.0
C2488 C 0.20888 0.71735 0.86574 0.0
C2489 C 0.20754 0.7011 0.84733 0.0
C2490 C 0.22803 0.73274 0.86763 0.0
C2491 C 0.24658 0.73136 0.8511 0.0
C2492 C 0.24584 0.71418 0.83316 0.0
C2493 C 0.22613 0.69949 0.83126 0.0
C2494 C 0.22784 0.75121 0.88664 0.0
C2495 C 0.26559 0.71171 0.81562 0.0
C2496 C 0.28038 0.78729 0.83886 0.0
C2497 C 0.29999 0.78507 0.85373 0.0
C2498 C 0.26302 0.76993 0.83782 0.0
C2499 C 0.2656 0.74928 0.85134 0.0
C2500 C 0.28584 0.74625 0.86551 0.0
C2501 C 0.30268 0.76429 0.86674 0.0
C2502 C 0.24159 0.774 0.82265 0.0
C2503 C 0.28951 0.72414 0.87966 0.0
H2504 H 0.19449 0.71869 0.87815 0.0
H2505 H 0.22527 0.68671 0.81718 0.0
H2506 H 0.24428 0.75036 0.89708 0.0
H2507 H 0.22704 0.7689 0.8785 0.0
H2508 H 0.21266 0.74925 0.89875 0.0
H2509 H 0.26365 0.69576 0.80458 0.0
H2510 H 0.26598 0.72726 0.80391 0.0
H2511 H 0.28276 0.71092 0.82483 0.0
H2512 H 0.27833 0.80274 0.82803 0.0
H2513 H 0.31766 0.76223 0.87827 0.0
H2514 H 0.22547 0.77314 0.83358 0.0
H2515 H 0.2402 0.76006 0.80915 0.0
H2516 H 0.24203 0.79128 0.81362 0.0
H2517 H 0.27592 0.7229 0.89357 0.0
H2518 H 0.3071 0.7236 0.8881 0.0
H2519 H 0.28755 0.7085 0.86823 0.0
C2520 C 0.28652 0.21346 0.88198 0.0
C2521 C 0.30945 0.22059 0.87657 0.0
C2522 C 0.26784 0.22955 0.88167 0.0
C2523 C 0.27213 0.25313 0.8751 0.0
C2524 C 0.2952 0.26029 0.86916 0.0
C2525 C 0.31366 0.24399 0.87032 0.0
C2526 C 0.24358 0.2214 0.88866 0.0
C2527 C 0.30036 0.2851 0.8614 0.0
C2528 C 0.22004 0.28825 0.85278 0.0
C2529 C 0.21511 0.3027 0.87204 0.0
C2530 C 0.23876 0.27228 0.85341 0.0
C2531 C 0.25242 0.27026 0.87411 0.0
C2532 C 0.24728 0.28465 0.89376 0.0
C2533 C 0.22886 0.30101 0.89234 0.0
C2534 C 0.24405 0.25776 0.83187 0.0
C2535 C 0.26105 0.28256 0.91634 0.0
H2536 H 0.28328 0.19541 0.88705 0.0
H2537 H 0.33137 0.24949 0.86599 0.0
H2538 H 0.23691 0.23226 0.90339 0.0
H2539 H 0.23123 0.22366 0.87376 0.0
H2540 H 0.24336 0.20268 0.89413 0.0
H2541 H 0.31914 0.28765 0.85673 0.0
H2542 H 0.2894 0.28962 0.84591 0.0
H2543 H 0.29573 0.29759 0.87559 0.0
H2544 H 0.20945 0.28985 0.83703 0.0
H2545 H 0.2248 0.31213 0.90723 0.0
H2546 H 0.24228 0.23883 0.83602 0.0
H2547 H 0.26247 0.26074 0.82621 0.0
H2548 H 0.23216 0.26199 0.81696 0.0
H2549 H 0.26023 0.26425 0.92293 0.0
H2550 H 0.25433 0.29449 0.93022 0.0
H2551 H 0.27981 0.28669 0.91311 0.0
C2552 C 0.69434 0.22848 0.88293 0.0
C2553 C 0.69349 0.2134 0.86359 0.0
C2554 C 0.71159 0.24607 0.88441 0.0
C2555 C 0.72777 0.24904 0.86568 0.0
C2556 C 0.72653 0.23411 0.84585 0.0
C2557 C 0.70963 0.21623 0.84524 0.0
C2558 C 0.71278 0.26118 0.90614 0.0
C2559 C 0.74294 0.23711 0.82521 0.0
C2560 C 0.75847 0.30808 0.86067 0.0
C2561 C 0.781 0.30272 0.86902 0.0
C2562 C 0.74107 0.29068 0.85911 0.0
C2563 C 0.74613 0.2676 0.86687 0.0
C2564 C 0.76883 0.26219 0.87552 0.0
C2565 C 0.78613 0.27974 0.87612 0.0
C2566 C 0.71734 0.29695 0.84902 0.0
C2567 C 0.77474 0.23798 0.88454 0.0
H2568 H 0.68186 0.22608 0.89711 0.0
H2569 H 0.70869 0.20464 0.83019 0.0
H2570 H 0.73043 0.25966 0.9143 0.0
H2571 H 0.71021 0.27988 0.90138 0.0
H2572 H 0.69932 0.25622 0.91937 0.0
H2573 H 0.73896 0.22469 0.81071 0.0
H2574 H 0.7417 0.25529 0.81832 0.0
H2575 H 0.76137 0.23431 0.83088 0.0
H2576 H 0.75455 0.32584 0.85508 0.0
H2577 H 0.80348 0.27566 0.88285 0.0
H2578 H 0.70347 0.2942 0.86243 0.0
H2579 H 0.71323 0.28528 0.83397 0.0
H2580 H 0.71653 0.31546 0.84294 0.0
H2581 H 0.76233 0.23299 0.89873 0.0
H2582 H 0.79295 0.23687 0.89149 0.0
H2583 H 0.77275 0.2249 0.87026 0.0
C2584 C 0.69877 0.77637 0.87666 0.0
C2585 C 0.69644 0.7858 0.85399 0.0
C2586 C 0.714 0.75745 0.88108 0.0
C2587 C 0.72751 0.74799 0.86247 0.0
C2588 C 0.72506 0.7573 0.83951 0.0
C2589 C 0.70943 0.77594 0.83553 0.0
C2590 C 0.71585 0.74778 0.90571 0.0
C2591 C 0.73939 0.74794 0.81924 0.0
C2592 C 0.78511 0.71673 0.87508 0.0
C2593 C 0.77923 0.69317 0.87088 0.0
C2594 C 0.76832 0.73466 0.87301 0.0
C2595 C 0.74489 0.72894 0.86699 0.0
C2596 C 0.73849 0.70513 0.86394 0.0
C2597 C 0.75574 0.68756 0.86579 0.0
C2598 C 0.77592 0.75983 0.87635 0.0
C2599 C 0.7136 0.69829 0.85784 0.0
H2600 H 0.68869 0.78379 0.89101 0.0
H2601 H 0.70787 0.7832 0.81799 0.0
H2602 H 0.71254 0.72859 0.90562 0.0
H2603 H 0.73391 0.75048 0.91254 0.0
H2604 H 0.70324 0.75624 0.91795 0.0
H2605 H 0.73517 0.75687 0.8024 0.0
H2606 H 0.75839 0.7503 0.82293 0.0
H2607 H 0.73625 0.72886 0.8171 0.0
H2608 H 0.80301 0.7213 0.87959 0.0
H2609 H 0.75091 0.66953 0.86236 0.0
H2610 H 0.76465 0.76855 0.88962 0.0
H2611 H 0.77377 0.76958 0.8596 0.0
H2612 H 0.79453 0.76127 0.88203 0.0
H2613 H 0.70105 0.70662 0.8702 0.0
H2614 H 0.71096 0.67898 0.85833 0.0
H2615 H 0.70925 0.70468 0.83995 0.0
C2616 C 0.72757 0.7926 0.14312 0.0
C2617 C 0.70377 0.7862 0.14238 0.0
C2618 C 0.74532 0.77566 0.14533 0.0
C2619 C 0.73918 0.75165 0.14676 0.0
C2620 C 0.71524 0.74497 0.14564 0.0
C2621 C 0.69782 0.76233 0.14346 0.0
C2622 C 0.77065 0.78351 0.14636 0.0
C2623 C 0.70802 0.71954 0.14714 0.0
C2624 C 0.78775 0.70773 0.13366 0.0
C2625 C 0.79556 0.70192 0.15633 0.0
C2626 C 0.76903 0.72345 0.13028 0.0
C2627 C 0.75788 0.73365 0.15002 0.0
C2628 C 0.76532 0.72746 0.17294 0.0
C2629 C 0.78403 0.71166 0.17581 0.0
C2630 C 0.76156 0.72957 0.10556 0.0
C2631 C 0.75392 0.738 0.19444 0.0
H2632 H 0.73239 0.81093 0.14182 0.0
H2633 H 0.6795 0.75724 0.14312 0.0
H2634 H 0.7786 0.77804 0.1633 0.0
H2635 H 0.78088 0.77497 0.13214 0.0
H2636 H 0.7725 0.80283 0.14458 0.0
H2637 H 0.68874 0.71718 0.14515 0.0
H2638 H 0.71704 0.70921 0.13331 0.0
H2639 H 0.71345 0.71215 0.16434 0.0
H2640 H 0.79647 0.70024 0.11848 0.0
H2641 H 0.7899 0.70732 0.1934 0.0
H2642 H 0.76474 0.74848 0.10223 0.0
H2643 H 0.74245 0.72645 0.10335 0.0
H2644 H 0.7712 0.71921 0.09213 0.0
H2645 H 0.75673 0.75726 0.19457 0.0
H2646 H 0.76106 0.73058 0.21103 0.0
H2647 H 0.73467 0.73497 0.19402 0.0
C2648 C 0.22674 0.70935 0.14848 0.0
C2649 C 0.22263 0.69446 0.12937 0.0
C2650 C 0.24469 0.72617 0.14778 0.0
C2651 C 0.25833 0.72864 0.12713 0.0
C2652 C 0.25403 0.71376 0.10763 0.0
C2653 C 0.23644 0.69652 0.10916 0.0
C2654 C 0.24915 0.74116 0.1692 0.0
C2655 C 0.26773 0.71631 0.08507 0.0
C2656 C 0.28898 0.78731 0.11892 0.0
C2657 C 0.31231 0.78158 0.12431 0.0
C2658 C 0.27132 0.77012 0.11926 0.0
C2659 C 0.27702 0.74687 0.12595 0.0
C2660 C 0.3005 0.74114 0.1319 0.0
C2661 C 0.31796 0.75849 0.1306 0.0
C2662 C 0.24663 0.77678 0.11216 0.0
C2663 C 0.30713 0.71675 0.1399 0.0
H2664 H 0.2161 0.70747 0.16416 0.0
H2665 H 0.23301 0.68501 0.09441 0.0
H2666 H 0.26774 0.73936 0.17482 0.0
H2667 H 0.2462 0.75991 0.16491 0.0
H2668 H 0.2376 0.73633 0.18417 0.0
H2669 H 0.26176 0.70382 0.07134 0.0
H2670 H 0.26586 0.73445 0.07822 0.0
H2671 H 0.28669 0.71331 0.0884 0.0
H2672 H 0.28467 0.80513 0.1138 0.0
H2673 H 0.33599 0.75411 0.1349 0.0
H2674 H 0.23443 0.77407 0.12711 0.0
H2675 H 0.24058 0.76531 0.09761 0.0
H2676 H 0.24533 0.79535 0.10638 0.0
H2677 H 0.29647 0.71175 0.15544 0.0
H2678 H 0.32604 0.71536 0.14458 0.0
H2679 H 0.30325 0.70387 0.12584 0.0
C2680 C 0.70944 0.21726 0.15012 0.0
C2681 C 0.69238 0.2179 0.13235 0.0
C2682 C 0.72616 0.23526 0.15231 0.0
C2683 C 0.72607 0.25409 0.13605 0.0
C2684 C 0.7085 0.25512 0.11846 0.0
C2685 C 0.69173 0.23713 0.11697 0.0
C2686 C 0.74429 0.23377 0.17162 0.0
C2687 C 0.70802 0.27469 0.10058 0.0
C2688 C 0.76001 0.30994 0.14972 0.0
C2689 C 0.78124 0.30591 0.13793 0.0
C2690 C 0.74194 0.29316 0.14945 0.0
C2691 C 0.74504 0.27208 0.13666 0.0
C2692 C 0.76632 0.26817 0.12434 0.0
C2693 C 0.78426 0.28503 0.12535 0.0
C2694 C 0.71972 0.29778 0.16319 0.0
C2695 C 0.77015 0.24615 0.1101 0.0
H2696 H 0.70995 0.20249 0.16213 0.0
H2697 H 0.67871 0.23765 0.10308 0.0
H2698 H 0.76199 0.23127 0.16385 0.0
H2699 H 0.74471 0.2504 0.18174 0.0
H2700 H 0.7408 0.21905 0.18394 0.0
H2701 H 0.69263 0.27347 0.08863 0.0
H2702 H 0.70758 0.29197 0.10952 0.0
H2703 H 0.72428 0.27415 0.08984 0.0
H2704 H 0.75784 0.32595 0.15975 0.0
H2705 H 0.80065 0.28203 0.11614 0.0
H2706 H 0.71714 0.28376 0.17648 0.0
H2707 H 0.70428 0.29737 0.15129 0.0
H2708 H 0.7201 0.315 0.1723 0.0
H2709 H 0.76928 0.23054 0.12171 0.0
H2710 H 0.78738 0.24614 0.10094 0.0
H2711 H 0.756 0.2443 0.09681 0.0
loop_
_geom_bond_atom_site_label_1
_geom_bond_atom_site_label_2
_geom_bond_distance
_geom_bond_site_symmetry_2
_ccdc_geom_bond_type
Co0 N4 2.148 . S
Co0 N10 2.128 . S
Co0 N20 2.194 . S
Co0 O25 2.351 . S
Co0 O26 2.155 . S
Co0 O27 2.096 . S
C1 N4 1.301 . S
C1 N5 1.328 . S
C1 H6 0.930 . S
C2 C3 1.333 . S
C2 N4 1.317 . S
C2 H7 0.930 . S
C3 C2 1.333 . S
C3 N5 1.350 . S
C3 H29 0.931 . S
N4 Co0 2.148 . S
N4 C1 1.301 . S
N4 C2 1.317 . S
N5 C1 1.328 . S
N5 C3 1.350 . S
H6 C1 0.930 . S
H7 C2 0.930 . S
C8 O9 1.224 . S
C8 O27 1.247 . S
O9 C8 1.224 . S
N10 Co0 2.128 . S
N10 C11 1.355 . S
N10 C13 1.311 . S
C11 N10 1.355 . S
C11 C12 1.363 . S
C11 H23 0.929 . S
C12 C11 1.363 . S
C12 N14 1.375 . S
C12 H30 0.931 . S
C13 N10 1.311 . S
C13 N14 1.347 . S
C13 H24 0.929 . S
N14 C12 1.375 . S
N14 C13 1.347 . S
C15 C18 1.365 . S
C15 N20 1.328 . S
C15 H21 0.929 . S
C16 C17 1.362 . S
C16 C19 1.378 . S
C16 H31 0.929 . S
C17 C16 1.362 . S
C17 C18 1.366 . S
C18 C15 1.365 . S
C18 C17 1.366 . S
C18 H32 0.930 . S
C19 C16 1.378 . S
C19 N20 1.315 . S
C19 H22 0.930 . S
N20 Co0 2.194 . S
N20 C15 1.328 . S
N20 C19 1.315 . S
H21 C15 0.929 . S
H22 C19 0.930 . S
H23 C11 0.929 . S
H24 C13 0.929 . S
O25 Co0 2.351 . S
O25 C28 1.244 . S
O26 Co0 2.155 . S
O26 C28 1.240 . S
O27 Co0 2.096 . S
O27 C8 1.247 . S
C28 O25 1.244 . S
C28 O26 1.240 . S
H29 C3 0.931 . S
H30 C12 0.931 . S
H31 C16 0.929 . S
H32 C18 0.930 . S
Co33 N37 2.148 . S
Co33 N43 2.128 . S
Co33 N53 2.194 . S
Co33 O58 2.351 . S
Co33 O59 2.155 . S
Co33 O60 2.096 . S
C34 N37 1.301 . S
C34 N38 1.328 . S
C34 H39 0.930 . S
C35 C36 1.333 . S
C35 N37 1.317 . S
C35 H40 0.930 . S
C36 C35 1.333 . S
C36 N38 1.350 . S
C36 H62 0.931 . S
N37 Co33 2.148 . S
N37 C34 1.301 . S
N37 C35 1.317 . S
N38 C34 1.328 . S
N38 C36 1.350 . S
H39 C34 0.930 . S
H40 C35 0.930 . S
C41 O42 1.224 . S
C41 O60 1.247 . S
O42 C41 1.224 . S
N43 Co33 2.128 . S
N43 C44 1.355 . S
N43 C46 1.311 . S
C44 N43 1.355 . S
C44 C45 1.363 . S
C44 H56 0.929 . S
C45 C44 1.363 . S
C45 N47 1.375 . S
C45 H63 0.931 . S
C46 N43 1.311 . S
C46 N47 1.347 . S
C46 H57 0.929 . S
N47 C45 1.375 . S
N47 C46 1.347 . S
C48 C51 1.365 . S
C48 N53 1.328 . S
C48 H54 0.929 . S
C49 C50 1.362 . S
C49 C52 1.378 . S
C49 H64 0.929 . S
C50 C49 1.362 . S
C50 C51 1.366 . S
C51 C48 1.365 . S
C51 C50 1.366 . S
C51 H65 0.930 . S
C52 C49 1.378 . S
C52 N53 1.315 . S
C52 H55 0.930 . S
N53 Co33 2.194 . S
N53 C48 1.328 . S
N53 C52 1.315 . S
H54 C48 0.929 . S
H55 C52 0.930 . S
H56 C44 0.929 . S
H57 C46 0.929 . S
O58 Co33 2.351 . S
O58 C61 1.244 . S
O59 Co33 2.155 . S
O59 C61 1.240 . S
O60 Co33 2.096 . S
O60 C41 1.247 . S
C61 O58 1.244 . S
C61 O59 1.240 . S
H62 C36 0.931 . S
H63 C45 0.931 . S
H64 C49 0.929 . S
H65 C51 0.930 . S
Co66 N70 2.148 . S
Co66 N76 2.128 . S
Co66 N86 2.194 . S
Co66 O91 2.351 . S
Co66 O92 2.155 . S
Co66 O93 2.096 . S
C67 N70 1.301 . S
C67 N71 1.328 . S
C67 H72 0.930 . S
C68 C69 1.333 . S
C68 N70 1.317 . S
C68 H73 0.930 . S
C69 C68 1.333 . S
C69 N71 1.350 . S
C69 H95 0.931 . S
N70 Co66 2.148 . S
N70 C67 1.301 . S
N70 C68 1.317 . S
N71 C67 1.328 . S
N71 C69 1.350 . S
H72 C67 0.930 . S
H73 C68 0.930 . S
C74 O75 1.224 . S
C74 O93 1.247 . S
O75 C74 1.224 . S
N76 Co66 2.128 . S
N76 C77 1.355 . S
N76 C79 1.311 . S
C77 N76 1.355 . S
C77 C78 1.363 . S
C77 H89 0.929 . S
C78 C77 1.363 . S
C78 N80 1.375 . S
C78 H96 0.931 . S
C79 N76 1.311 . S
C79 N80 1.347 . S
C79 H90 0.929 . S
N80 C78 1.375 . S
N80 C79 1.347 . S
C81 C84 1.365 . S
C81 N86 1.328 . S
C81 H87 0.929 . S
C82 C83 1.362 . S
C82 C85 1.378 . S
C82 H97 0.929 . S
C83 C82 1.362 . S
C83 C84 1.366 . S
C84 C81 1.365 . S
C84 C83 1.366 . S
C84 H98 0.930 . S
C85 C82 1.378 . S
C85 N86 1.315 . S
C85 H88 0.930 . S
N86 Co66 2.194 . S
N86 C81 1.328 . S
N86 C85 1.315 . S
H87 C81 0.929 . S
H88 C85 0.930 . S
H89 C77 0.929 . S
H90 C79 0.929 . S
O91 Co66 2.351 . S
O91 C94 1.244 . S
O92 Co66 2.155 . S
O92 C94 1.240 . S
O93 Co66 2.096 . S
O93 C74 1.247 . S
C94 O91 1.244 . S
C94 O92 1.240 . S
H95 C69 0.931 . S
H96 C78 0.931 . S
H97 C82 0.929 . S
H98 C84 0.930 . S
Co99 N103 2.148 . S
Co99 N109 2.128 . S
Co99 N119 2.194 . S
Co99 O124 2.351 . S
Co99 O125 2.155 . S
Co99 O126 2.096 . S
C100 N103 1.301 . S
C100 N104 1.328 . S
C100 H105 0.930 . S
C101 C102 1.333 . S
C101 N103 1.317 . S
C101 H106 0.930 . S
C102 C101 1.333 . S
C102 N104 1.350 . S
C102 H128 0.931 . S
N103 Co99 2.148 . S
N103 C100 1.301 . S
N103 C101 1.317 . S
N104 C100 1.328 . S
N104 C102 1.350 . S
H105 C100 0.930 . S
H106 C101 0.930 . S
C107 O108 1.224 . S
C107 O126 1.247 . S
O108 C107 1.224 . S
N109 Co99 2.128 . S
N109 C110 1.355 . S
N109 C112 1.311 . S
C110 N109 1.355 . S
C110 C111 1.363 . S
C110 H122 0.929 . S
C111 C110 1.363 . S
C111 N113 1.375 . S
C111 H129 0.931 . S
C112 N109 1.311 . S
C112 N113 1.347 . S
C112 H123 0.929 . S
N113 C111 1.375 . S
N113 C112 1.347 . S
C114 C117 1.365 . S
C114 N119 1.328 . S
C114 H120 0.929 . S
C115 C116 1.362 . S
C115 C118 1.378 . S
C115 H130 0.929 . S
C116 C115 1.362 . S
C116 C117 1.366 . S
C117 C114 1.365 . S
C117 C116 1.366 . S
C117 H131 0.930 . S
C118 C115 1.378 . S
C118 N119 1.315 . S
C118 H121 0.930 . S
N119 Co99 2.194 . S
N119 C114 1.328 . S
N119 C118 1.315 . S
H120 C114 0.929 . S
H121 C118 0.930 . S
H122 C110 0.929 . S
H123 C112 0.929 . S
O124 Co99 2.351 . S
O124 C127 1.244 . S
O125 Co99 2.155 . S
O125 C127 1.240 . S
O126 Co99 2.096 . S
O126 C107 1.247 . S
C127 O124 1.244 . S
C127 O125 1.240 . S
H128 C102 0.931 . S
H129 C111 0.931 . S
H130 C115 0.929 . S
H131 C117 0.930 . S
Co132 N136 2.148 . S
Co132 N142 2.128 . S
Co132 N152 2.194 . S
Co132 O157 2.351 . S
Co132 O158 2.155 . S
Co132 O159 2.096 . S
C133 N136 1.301 . S
C133 N137 1.328 . S
C133 H138 0.930 . S
C134 C135 1.333 . S
C134 N136 1.317 . S
C134 H139 0.930 . S
C135 C134 1.333 . S
C135 N137 1.350 . S
C135 H161 0.931 . S
N136 Co132 2.148 . S
N136 C133 1.301 . S
N136 C134 1.317 . S
N137 C133 1.328 . S
N137 C135 1.350 . S
H138 C133 0.930 . S
H139 C134 0.930 . S
C140 O141 1.224 . S
C140 O159 1.247 . S
O141 C140 1.224 . S
N142 Co132 2.128 . S
N142 C143 1.355 . S
N142 C145 1.311 . S
C143 N142 1.355 . S
C143 C144 1.363 . S
C143 H155 0.929 . S
C144 C143 1.363 . S
C144 N146 1.375 . S
C144 H162 0.931 . S
C145 N142 1.311 . S
C145 N146 1.347 . S
C145 H156 0.929 . S
N146 C144 1.375 . S
N146 C145 1.347 . S
C147 C150 1.365 . S
C147 N152 1.328 . S
C147 H153 0.929 . S
C148 C149 1.362 . S
C148 C151 1.378 . S
C148 H163 0.929 . S
C149 C148 1.362 . S
C149 C150 1.366 . S
C150 C147 1.365 . S
C150 C149 1.366 . S
C150 H164 0.930 . S
C151 C148 1.378 . S
C151 N152 1.315 . S
C151 H154 0.930 . S
N152 Co132 2.194 . S
N152 C147 1.328 . S
N152 C151 1.315 . S
H153 C147 0.929 . S
H154 C151 0.930 . S
H155 C143 0.929 . S
H156 C145 0.929 . S
O157 Co132 2.351 . S
O157 C160 1.244 . S
O158 Co132 2.155 . S
O158 C160 1.240 . S
O159 Co132 2.096 . S
O159 C140 1.247 . S
C160 O157 1.244 . S
C160 O158 1.240 . S
H161 C135 0.931 . S
H162 C144 0.931 . S
H163 C148 0.929 . S
H164 C150 0.930 . S
Co165 N169 2.148 . S
Co165 N175 2.128 . S
Co165 N185 2.194 . S
Co165 O190 2.351 . S
Co165 O191 2.155 . S
Co165 O192 2.096 . S
C166 N169 1.301 . S
C166 N170 1.328 . S
C166 H171 0.930 . S
C167 C168 1.333 . S
C167 N169 1.317 . S
C167 H172 0.930 . S
C168 C167 1.333 . S
C168 N170 1.350 . S
C168 H194 0.931 . S
N169 Co165 2.148 . S
N169 C166 1.301 . S
N169 C167 1.317 . S
N170 C166 1.328 . S
N170 C168 1.350 . S
H171 C166 0.930 . S
H172 C167 0.930 . S
C173 O174 1.224 . S
C173 O192 1.247 . S
O174 C173 1.224 . S
N175 Co165 2.128 . S
N175 C176 1.355 . S
N175 C178 1.311 . S
C176 N175 1.355 . S
C176 C177 1.363 . S
C176 H188 0.929 . S
C177 C176 1.363 . S
C177 N179 1.375 . S
C177 H195 0.931 . S
C178 N175 1.311 . S
C178 N179 1.347 . S
C178 H189 0.929 . S
N179 C177 1.375 . S
N179 C178 1.347 . S
C180 C183 1.365 . S
C180 N185 1.328 . S
C180 H186 0.929 . S
C181 C182 1.362 . S
C181 C184 1.378 . S
C181 H196 0.929 . S
C182 C181 1.362 . S
C182 C183 1.366 . S
C183 C180 1.365 . S
C183 C182 1.366 . S
C183 H197 0.930 . S
C184 C181 1.378 . S
C184 N185 1.315 . S
C184 H187 0.930 . S
N185 Co165 2.194 . S
N185 C180 1.328 . S
N185 C184 1.315 . S
H186 C180 0.929 . S
H187 C184 0.930 . S
H188 C176 0.929 . S
H189 C178 0.929 . S
O190 Co165 2.351 . S
O190 C193 1.244 . S
O191 Co165 2.155 . S
O191 C193 1.240 . S
O192 Co165 2.096 . S
O192 C173 1.247 . S
C193 O190 1.244 . S
C193 O191 1.240 . S
H194 C168 0.931 . S
H195 C177 0.931 . S
H196 C181 0.929 . S
H197 C183 0.930 . S
Co198 N202 2.148 . S
Co198 N208 2.128 . S
Co198 N218 2.194 . S
Co198 O223 2.351 . S
Co198 O224 2.155 . S
Co198 O225 2.096 . S
C199 N202 1.301 . S
C199 N203 1.328 . S
C199 H204 0.930 . S
C200 C201 1.333 . S
C200 N202 1.317 . S
C200 H205 0.930 . S
C201 C200 1.333 . S
C201 N203 1.350 . S
C201 H227 0.931 . S
N202 Co198 2.148 . S
N202 C199 1.301 . S
N202 C200 1.317 . S
N203 C199 1.328 . S
N203 C201 1.350 . S
H204 C199 0.930 . S
H205 C200 0.930 . S
C206 O207 1.224 . S
C206 O225 1.247 . S
O207 C206 1.224 . S
N208 Co198 2.128 . S
N208 C209 1.355 . S
N208 C211 1.311 . S
C209 N208 1.355 . S
C209 C210 1.363 . S
C209 H221 0.929 . S
C210 C209 1.363 . S
C210 N212 1.375 . S
C210 H228 0.931 . S
C211 N208 1.311 . S
C211 N212 1.347 . S
C211 H222 0.929 . S
N212 C210 1.375 . S
N212 C211 1.347 . S
C213 C216 1.365 . S
C213 N218 1.328 . S
C213 H219 0.929 . S
C214 C215 1.362 . S
C214 C217 1.378 . S
C214 H229 0.929 . S
C215 C214 1.362 . S
C215 C216 1.366 . S
C216 C213 1.365 . S
C216 C215 1.366 . S
C216 H230 0.930 . S
C217 C214 1.378 . S
C217 N218 1.315 . S
C217 H220 0.930 . S
N218 Co198 2.194 . S
N218 C213 1.328 . S
N218 C217 1.315 . S
H219 C213 0.929 . S
H220 C217 0.930 . S
H221 C209 0.929 . S
H222 C211 0.929 . S
O223 Co198 2.351 . S
O223 C226 1.244 . S
O224 Co198 2.155 . S
O224 C226 1.240 . S
O225 Co198 2.096 . S
O225 C206 1.247 . S
C226 O223 1.244 . S
C226 O224 1.240 . S
H227 C201 0.931 . S
H228 C210 0.931 . S
H229 C214 0.929 . S
H230 C216 0.930 . S
Co231 N235 2.148 . S
Co231 N241 2.128 . S
Co231 N251 2.194 . S
Co231 O256 2.351 . S
Co231 O257 2.155 . S
Co231 O258 2.096 . S
C232 N235 1.301 . S
C232 N236 1.328 . S
C232 H237 0.930 . S
C233 C234 1.333 . S
C233 N235 1.317 . S
C233 H238 0.930 . S
C234 C233 1.333 . S
C234 N236 1.350 . S
C234 H260 0.931 . S
N235 Co231 2.148 . S
N235 C232 1.301 . S
N235 C233 1.317 . S
N236 C232 1.328 . S
N236 C234 1.350 . S
H237 C232 0.930 . S
H238 C233 0.930 . S
C239 O240 1.224 . S
C239 O258 1.247 . S
O240 C239 1.224 . S
N241 Co231 2.128 . S
N241 C242 1.355 . S
N241 C244 1.311 . S
C242 N241 1.355 . S
C242 C243 1.363 . S
C242 H254 0.929 . S
C243 C242 1.363 . S
C243 N245 1.375 . S
C243 H261 0.931 . S
C244 N241 1.311 . S
C244 N245 1.347 . S
C244 H255 0.929 . S
N245 C243 1.375 . S
N245 C244 1.347 . S
C246 C249 1.365 . S
C246 N251 1.328 . S
C246 H252 0.929 . S
C247 C248 1.362 . S
C247 C250 1.378 . S
C247 H262 0.929 . S
C248 C247 1.362 . S
C248 C249 1.366 . S
C249 C246 1.365 . S
C249 C248 1.366 . S
C249 H263 0.930 . S
C250 C247 1.378 . S
C250 N251 1.315 . S
C250 H253 0.930 . S
N251 Co231 2.194 . S
N251 C246 1.328 . S
N251 C250 1.315 . S
H252 C246 0.929 . S
H253 C250 0.930 . S
H254 C242 0.929 . S
H255 C244 0.929 . S
O256 Co231 2.351 . S
O256 C259 1.244 . S
O257 Co231 2.155 . S
O257 C259 1.240 . S
O258 Co231 2.096 . S
O258 C239 1.247 . S
C259 O256 1.244 . S
C259 O257 1.240 . S
H260 C234 0.931 . S
H261 C243 0.931 . S
H262 C247 0.929 . S
H263 C249 0.930 . S
Co264 N268 2.148 . S
Co264 N274 2.128 . S
Co264 N284 2.194 . S
Co264 O289 2.351 . S
Co264 O290 2.155 . S
Co264 O291 2.096 . S
C265 N268 1.301 . S
C265 N269 1.328 . S
C265 H270 0.930 . S
C266 C267 1.333 . S
C266 N268 1.317 . S
C266 H271 0.930 . S
C267 C266 1.333 . S
C267 N269 1.350 . S
C267 H293 0.931 . S
N268 Co264 2.148 . S
N268 C265 1.301 . S
N268 C266 1.317 . S
N269 C265 1.328 . S
N269 C267 1.350 . S
H270 C265 0.930 . S
H271 C266 0.930 . S
C272 O273 1.224 . S
C272 O291 1.247 . S
O273 C272 1.224 . S
N274 Co264 2.128 . S
N274 C275 1.355 . S
N274 C277 1.311 . S
C275 N274 1.355 . S
C275 C276 1.363 . S
C275 H287 0.929 . S
C276 C275 1.363 . S
C276 N278 1.375 . S
C276 H294 0.931 . S
C277 N274 1.311 . S
C277 N278 1.347 . S
C277 H288 0.929 . S
N278 C276 1.375 . S
N278 C277 1.347 . S
C279 C282 1.365 . S
C279 N284 1.328 . S
C279 H285 0.929 . S
C280 C281 1.362 . S
C280 C283 1.378 . S
C280 H295 0.929 . S
C281 C280 1.362 . S
C281 C282 1.366 . S
C282 C279 1.365 . S
C282 C281 1.366 . S
C282 H296 0.930 . S
C283 C280 1.378 . S
C283 N284 1.315 . S
C283 H286 0.930 . S
N284 Co264 2.194 . S
N284 C279 1.328 . S
N284 C283 1.315 . S
H285 C279 0.929 . S
H286 C283 0.930 . S
H287 C275 0.929 . S
H288 C277 0.929 . S
O289 Co264 2.351 . S
O289 C292 1.244 . S
O290 Co264 2.155 . S
O290 C292 1.240 . S
O291 Co264 2.096 . S
O291 C272 1.247 . S
C292 O289 1.244 . S
C292 O290 1.240 . S
H293 C267 0.931 . S
H294 C276 0.931 . S
H295 C280 0.929 . S
H296 C282 0.930 . S
Co297 N301 2.148 . S
Co297 N307 2.128 . S
Co297 N317 2.194 . S
Co297 O322 2.351 . S
Co297 O323 2.155 . S
Co297 O324 2.096 . S
C298 N301 1.301 . S
C298 N302 1.328 . S
C298 H303 0.930 . S
C299 C300 1.333 . S
C299 N301 1.317 . S
C299 H304 0.930 . S
C300 C299 1.333 . S
C300 N302 1.350 . S
C300 H326 0.931 . S
N301 Co297 2.148 . S
N301 C298 1.301 . S
N301 C299 1.317 . S
N302 C298 1.328 . S
N302 C300 1.350 . S
H303 C298 0.930 . S
H304 C299 0.930 . S
C305 O306 1.224 . S
C305 O324 1.247 . S
O306 C305 1.224 . S
N307 Co297 2.128 . S
N307 C308 1.355 . S
N307 C310 1.311 . S
C308 N307 1.355 . S
C308 C309 1.363 . S
C308 H320 0.929 . S
C309 C308 1.363 . S
C309 N311 1.375 . S
C309 H327 0.931 . S
C310 N307 1.311 . S
C310 N311 1.347 . S
C310 H321 0.929 . S
N311 C309 1.375 . S
N311 C310 1.347 . S
C312 C315 1.365 . S
C312 N317 1.328 . S
C312 H318 0.929 . S
C313 C314 1.362 . S
C313 C316 1.378 . S
C313 H328 0.929 . S
C314 C313 1.362 . S
C314 C315 1.366 . S
C315 C312 1.365 . S
C315 C314 1.366 . S
C315 H329 0.930 . S
C316 C313 1.378 . S
C316 N317 1.315 . S
C316 H319 0.930 . S
N317 Co297 2.194 . S
N317 C312 1.328 . S
N317 C316 1.315 . S
H318 C312 0.929 . S
H319 C316 0.930 . S
H320 C308 0.929 . S
H321 C310 0.929 . S
O322 Co297 2.351 . S
O322 C325 1.244 . S
O323 Co297 2.155 . S
O323 C325 1.240 . S
O324 Co297 2.096 . S
O324 C305 1.247 . S
C325 O322 1.244 . S
C325 O323 1.240 . S
H326 C300 0.931 . S
H327 C309 0.931 . S
H328 C313 0.929 . S
H329 C315 0.930 . S
Co330 N334 2.148 . S
Co330 N340 2.128 . S
Co330 N350 2.194 . S
Co330 O355 2.351 . S
Co330 O356 2.155 . S
Co330 O357 2.096 . S
C331 N334 1.301 . S
C331 N335 1.328 . S
C331 H336 0.930 . S
C332 C333 1.333 . S
C332 N334 1.317 . S
C332 H337 0.930 . S
C333 C332 1.333 . S
C333 N335 1.350 . S
C333 H359 0.931 . S
N334 Co330 2.148 . S
N334 C331 1.301 . S
N334 C332 1.317 . S
N335 C331 1.328 . S
N335 C333 1.350 . S
H336 C331 0.930 . S
H337 C332 0.930 . S
C338 O339 1.224 . S
C338 O357 1.247 . S
O339 C338 1.224 . S
N340 Co330 2.128 . S
N340 C341 1.355 . S
N340 C343 1.311 . S
C341 N340 1.355 . S
C341 C342 1.363 . S
C341 H353 0.929 . S
C342 C341 1.363 . S
C342 N344 1.375 . S
C342 H360 0.931 . S
C343 N340 1.311 . S
C343 N344 1.347 . S
C343 H354 0.929 . S
N344 C342 1.375 . S
N344 C343 1.347 . S
C345 C348 1.365 . S
C345 N350 1.328 . S
C345 H351 0.929 . S
C346 C347 1.362 . S
C346 C349 1.378 . S
C346 H361 0.929 . S
C347 C346 1.362 . S
C347 C348 1.366 . S
C348 C345 1.365 . S
C348 C347 1.366 . S
C348 H362 0.930 . S
C349 C346 1.378 . S
C349 N350 1.315 . S
C349 H352 0.930 . S
N350 Co330 2.194 . S
N350 C345 1.328 . S
N350 C349 1.315 . S
H351 C345 0.929 . S
H352 C349 0.930 . S
H353 C341 0.929 . S
H354 C343 0.929 . S
O355 Co330 2.351 . S
O355 C358 1.244 . S
O356 Co330 2.155 . S
O356 C358 1.240 . S
O357 Co330 2.096 . S
O357 C338 1.247 . S
C358 O355 1.244 . S
C358 O356 1.240 . S
H359 C333 0.931 . S
H360 C342 0.931 . S
H361 C346 0.929 . S
H362 C348 0.930 . S
Co363 N367 2.148 . S
Co363 N373 2.128 . S
Co363 N383 2.194 . S
Co363 O388 2.351 . S
Co363 O389 2.155 . S
Co363 O390 2.096 . S
C364 N367 1.301 . S
C364 N368 1.328 . S
C364 H369 0.930 . S
C365 C366 1.333 . S
C365 N367 1.317 . S
C365 H370 0.930 . S
C366 C365 1.333 . S
C366 N368 1.350 . S
C366 H392 0.931 . S
N367 Co363 2.148 . S
N367 C364 1.301 . S
N367 C365 1.317 . S
N368 C364 1.328 . S
N368 C366 1.350 . S
H369 C364 0.930 . S
H370 C365 0.930 . S
C371 O372 1.224 . S
C371 O390 1.247 . S
O372 C371 1.224 . S
N373 Co363 2.128 . S
N373 C374 1.355 . S
N373 C376 1.311 . S
C374 N373 1.355 . S
C374 C375 1.363 . S
C374 H386 0.929 . S
C375 C374 1.363 . S
C375 N377 1.375 . S
C375 H393 0.931 . S
C376 N373 1.311 . S
C376 N377 1.347 . S
C376 H387 0.929 . S
N377 C375 1.375 . S
N377 C376 1.347 . S
C378 C381 1.365 . S
C378 N383 1.328 . S
C378 H384 0.929 . S
C379 C380 1.362 . S
C379 C382 1.378 . S
C379 H394 0.929 . S
C380 C379 1.362 . S
C380 C381 1.366 . S
C381 C378 1.365 . S
C381 C380 1.366 . S
C381 H395 0.930 . S
C382 C379 1.378 . S
C382 N383 1.315 . S
C382 H385 0.930 . S
N383 Co363 2.194 . S
N383 C378 1.328 . S
N383 C382 1.315 . S
H384 C378 0.929 . S
H385 C382 0.930 . S
H386 C374 0.929 . S
H387 C376 0.929 . S
O388 Co363 2.351 . S
O388 C391 1.244 . S
O389 Co363 2.155 . S
O389 C391 1.240 . S
O390 Co363 2.096 . S
O390 C371 1.247 . S
C391 O388 1.244 . S
C391 O389 1.240 . S
H392 C366 0.931 . S
H393 C375 0.931 . S
H394 C379 0.929 . S
H395 C381 0.930 . S
Co396 N400 2.148 . S
Co396 N406 2.128 . S
Co396 N416 2.194 . S
Co396 O421 2.351 . S
Co396 O422 2.155 . S
Co396 O423 2.096 . S
C397 N400 1.301 . S
C397 N401 1.328 . S
C397 H402 0.930 . S
C398 C399 1.333 . S
C398 N400 1.317 . S
C398 H403 0.930 . S
C399 C398 1.333 . S
C399 N401 1.350 . S
C399 H425 0.931 . S
N400 Co396 2.148 . S
N400 C397 1.301 . S
N400 C398 1.317 . S
N401 C397 1.328 . S
N401 C399 1.350 . S
H402 C397 0.930 . S
H403 C398 0.930 . S
C404 O405 1.224 . S
C404 O423 1.247 . S
O405 C404 1.224 . S
N406 Co396 2.128 . S
N406 C407 1.355 . S
N406 C409 1.311 . S
C407 N406 1.355 . S
C407 C408 1.363 . S
C407 H419 0.929 . S
C408 C407 1.363 . S
C408 N410 1.375 . S
C408 H426 0.931 . S
C409 N406 1.311 . S
C409 N410 1.347 . S
C409 H420 0.929 . S
N410 C408 1.375 . S
N410 C409 1.347 . S
C411 C414 1.365 . S
C411 N416 1.328 . S
C411 H417 0.929 . S
C412 C413 1.362 . S
C412 C415 1.378 . S
C412 H427 0.929 . S
C413 C412 1.362 . S
C413 C414 1.366 . S
C414 C411 1.365 . S
C414 C413 1.366 . S
C414 H428 0.930 . S
C415 C412 1.378 . S
C415 N416 1.315 . S
C415 H418 0.930 . S
N416 Co396 2.194 . S
N416 C411 1.328 . S
N416 C415 1.315 . S
H417 C411 0.929 . S
H418 C415 0.930 . S
H419 C407 0.929 . S
H420 C409 0.929 . S
O421 Co396 2.351 . S
O421 C424 1.244 . S
O422 Co396 2.155 . S
O422 C424 1.240 . S
O423 Co396 2.096 . S
O423 C404 1.247 . S
C424 O421 1.244 . S
C424 O422 1.240 . S
H425 C399 0.931 . S
H426 C408 0.931 . S
H427 C412 0.929 . S
H428 C414 0.930 . S
Co429 N433 2.148 . S
Co429 N439 2.128 . S
Co429 N449 2.194 . S
Co429 O454 2.351 . S
Co429 O455 2.155 . S
Co429 O456 2.096 . S
C430 N433 1.301 . S
C430 N434 1.328 . S
C430 H435 0.930 . S
C431 C432 1.333 . S
C431 N433 1.317 . S
C431 H436 0.930 . S
C432 C431 1.333 . S
C432 N434 1.350 . S
C432 H458 0.931 . S
N433 Co429 2.148 . S
N433 C430 1.301 . S
N433 C431 1.317 . S
N434 C430 1.328 . S
N434 C432 1.350 . S
H435 C430 0.930 . S
H436 C431 0.930 . S
C437 O438 1.224 . S
C437 O456 1.247 . S
O438 C437 1.224 . S
N439 Co429 2.128 . S
N439 C440 1.355 . S
N439 C442 1.311 . S
C440 N439 1.355 . S
C440 C441 1.363 . S
C440 H452 0.929 . S
C441 C440 1.363 . S
C441 N443 1.375 . S
C441 H459 0.931 . S
C442 N439 1.311 . S
C442 N443 1.347 . S
C442 H453 0.929 . S
N443 C441 1.375 . S
N443 C442 1.347 . S
C444 C447 1.365 . S
C444 N449 1.328 . S
C444 H450 0.929 . S
C445 C446 1.362 . S
C445 C448 1.378 . S
C445 H460 0.929 . S
C446 C445 1.362 . S
C446 C447 1.366 . S
C447 C444 1.365 . S
C447 C446 1.366 . S
C447 H461 0.930 . S
C448 C445 1.378 . S
C448 N449 1.315 . S
C448 H451 0.930 . S
N449 Co429 2.194 . S
N449 C444 1.328 . S
N449 C448 1.315 . S
H450 C444 0.929 . S
H451 C448 0.930 . S
H452 C440 0.929 . S
H453 C442 0.929 . S
O454 Co429 2.351 . S
O454 C457 1.244 . S
O455 Co429 2.155 . S
O455 C457 1.240 . S
O456 Co429 2.096 . S
O456 C437 1.247 . S
C457 O454 1.244 . S
C457 O455 1.240 . S
H458 C432 0.931 . S
H459 C441 0.931 . S
H460 C445 0.929 . S
H461 C447 0.930 . S
Co462 N466 2.148 . S
Co462 N472 2.128 . S
Co462 N482 2.194 . S
Co462 O487 2.351 . S
Co462 O488 2.155 . S
Co462 O489 2.096 . S
C463 N466 1.301 . S
C463 N467 1.328 . S
C463 H468 0.930 . S
C464 C465 1.333 . S
C464 N466 1.317 . S
C464 H469 0.930 . S
C465 C464 1.333 . S
C465 N467 1.350 . S
C465 H491 0.931 . S
N466 Co462 2.148 . S
N466 C463 1.301 . S
N466 C464 1.317 . S
N467 C463 1.328 . S
N467 C465 1.350 . S
H468 C463 0.930 . S
H469 C464 0.930 . S
C470 O471 1.224 . S
C470 O489 1.247 . S
O471 C470 1.224 . S
N472 Co462 2.128 . S
N472 C473 1.355 . S
N472 C475 1.311 . S
C473 N472 1.355 . S
C473 C474 1.363 . S
C473 H485 0.929 . S
C474 C473 1.363 . S
C474 N476 1.375 . S
C474 H492 0.931 . S
C475 N472 1.311 . S
C475 N476 1.347 . S
C475 H486 0.929 . S
N476 C474 1.375 . S
N476 C475 1.347 . S
C477 C480 1.365 . S
C477 N482 1.328 . S
C477 H483 0.929 . S
C478 C479 1.362 . S
C478 C481 1.378 . S
C478 H493 0.929 . S
C479 C478 1.362 . S
C479 C480 1.366 . S
C480 C477 1.365 . S
C480 C479 1.366 . S
C480 H494 0.930 . S
C481 C478 1.378 . S
C481 N482 1.315 . S
C481 H484 0.930 . S
N482 Co462 2.194 . S
N482 C477 1.328 . S
N482 C481 1.315 . S
H483 C477 0.929 . S
H484 C481 0.930 . S
H485 C473 0.929 . S
H486 C475 0.929 . S
O487 Co462 2.351 . S
O487 C490 1.244 . S
O488 Co462 2.155 . S
O488 C490 1.240 . S
O489 Co462 2.096 . S
O489 C470 1.247 . S
C490 O487 1.244 . S
C490 O488 1.240 . S
H491 C465 0.931 . S
H492 C474 0.931 . S
H493 C478 0.929 . S
H494 C480 0.930 . S
Co495 N499 2.148 . S
Co495 N505 2.128 . S
Co495 N515 2.194 . S
Co495 O520 2.351 . S
Co495 O521 2.155 . S
Co495 O522 2.096 . S
C496 N499 1.301 . S
C496 N500 1.328 . S
C496 H501 0.930 . S
C497 C498 1.333 . S
C497 N499 1.317 . S
C497 H502 0.930 . S
C498 C497 1.333 . S
C498 N500 1.350 . S
C498 H524 0.931 . S
N499 Co495 2.148 . S
N499 C496 1.301 . S
N499 C497 1.317 . S
N500 C496 1.328 . S
N500 C498 1.350 . S
H501 C496 0.930 . S
H502 C497 0.930 . S
C503 O504 1.224 . S
C503 O522 1.247 . S
O504 C503 1.224 . S
N505 Co495 2.128 . S
N505 C506 1.355 . S
N505 C508 1.311 . S
C506 N505 1.355 . S
C506 C507 1.363 . S
C506 H518 0.929 . S
C507 C506 1.363 . S
C507 N509 1.375 . S
C507 H525 0.931 . S
C508 N505 1.311 . S
C508 N509 1.347 . S
C508 H519 0.929 . S
N509 C507 1.375 . S
N509 C508 1.347 . S
C510 C513 1.365 . S
C510 N515 1.328 . S
C510 H516 0.929 . S
C511 C512 1.362 . S
C511 C514 1.378 . S
C511 H526 0.929 . S
C512 C511 1.362 . S
C512 C513 1.366 . S
C513 C510 1.365 . S
C513 C512 1.366 . S
C513 H527 0.930 . S
C514 C511 1.378 . S
C514 N515 1.315 . S
C514 H517 0.930 . S
N515 Co495 2.194 . S
N515 C510 1.328 . S
N515 C514 1.315 . S
H516 C510 0.929 . S
H517 C514 0.930 . S
H518 C506 0.929 . S
H519 C508 0.929 . S
O520 Co495 2.351 . S
O520 C523 1.244 . S
O521 Co495 2.155 . S
O521 C523 1.240 . S
O522 Co495 2.096 . S
O522 C503 1.247 . S
C523 O520 1.244 . S
C523 O521 1.240 . S
H524 C498 0.931 . S
H525 C507 0.931 . S
H526 C511 0.929 . S
H527 C513 0.930 . S
Co528 N532 2.148 . S
Co528 N538 2.128 . S
Co528 N548 2.194 . S
Co528 O553 2.351 . S
Co528 O554 2.155 . S
Co528 O555 2.096 . S
C529 N532 1.301 . S
C529 N533 1.328 . S
C529 H534 0.930 . S
C530 C531 1.333 . S
C530 N532 1.317 . S
C530 H535 0.930 . S
C531 C530 1.333 . S
C531 N533 1.350 . S
C531 H557 0.931 . S
N532 Co528 2.148 . S
N532 C529 1.301 . S
N532 C530 1.317 . S
N533 C529 1.328 . S
N533 C531 1.350 . S
H534 C529 0.930 . S
H535 C530 0.930 . S
C536 O537 1.224 . S
C536 O555 1.247 . S
O537 C536 1.224 . S
N538 Co528 2.128 . S
N538 C539 1.355 . S
N538 C541 1.311 . S
C539 N538 1.355 . S
C539 C540 1.363 . S
C539 H551 0.929 . S
C540 C539 1.363 . S
C540 N542 1.375 . S
C540 H558 0.931 . S
C541 N538 1.311 . S
C541 N542 1.347 . S
C541 H552 0.929 . S
N542 C540 1.375 . S
N542 C541 1.347 . S
C543 C546 1.365 . S
C543 N548 1.328 . S
C543 H549 0.929 . S
C544 C545 1.362 . S
C544 C547 1.378 . S
C544 H559 0.929 . S
C545 C544 1.362 . S
C545 C546 1.366 . S
C546 C543 1.365 . S
C546 C545 1.366 . S
C546 H560 0.930 . S
C547 C544 1.378 . S
C547 N548 1.315 . S
C547 H550 0.930 . S
N548 Co528 2.194 . S
N548 C543 1.328 . S
N548 C547 1.315 . S
H549 C543 0.929 . S
H550 C547 0.930 . S
H551 C539 0.929 . S
H552 C541 0.929 . S
O553 Co528 2.351 . S
O553 C556 1.244 . S
O554 Co528 2.155 . S
O554 C556 1.240 . S
O555 Co528 2.096 . S
O555 C536 1.247 . S
C556 O553 1.244 . S
C556 O554 1.240 . S
H557 C531 0.931 . S
H558 C540 0.931 . S
H559 C544 0.929 . S
H560 C546 0.930 . S
Co561 N565 2.148 . S
Co561 N571 2.128 . S
Co561 N581 2.194 . S
Co561 O586 2.351 . S
Co561 O587 2.155 . S
Co561 O588 2.096 . S
C562 N565 1.301 . S
C562 N566 1.328 . S
C562 H567 0.930 . S
C563 C564 1.333 . S
C563 N565 1.317 . S
C563 H568 0.930 . S
C564 C563 1.333 . S
C564 N566 1.350 . S
C564 H590 0.931 . S
N565 Co561 2.148 . S
N565 C562 1.301 . S
N565 C563 1.317 . S
N566 C562 1.328 . S
N566 C564 1.350 . S
H567 C562 0.930 . S
H568 C563 0.930 . S
C569 O570 1.224 . S
C569 O588 1.247 . S
O570 C569 1.224 . S
N571 Co561 2.128 . S
N571 C572 1.355 . S
N571 C574 1.311 . S
C572 N571 1.355 . S
C572 C573 1.363 . S
C572 H584 0.929 . S
C573 C572 1.363 . S
C573 N575 1.375 . S
C573 H591 0.931 . S
C574 N571 1.311 . S
C574 N575 1.347 . S
C574 H585 0.929 . S
N575 C573 1.375 . S
N575 C574 1.347 . S
C576 C579 1.365 . S
C576 N581 1.328 . S
C576 H582 0.929 . S
C577 C578 1.362 . S
C577 C580 1.378 . S
C577 H592 0.929 . S
C578 C577 1.362 . S
C578 C579 1.366 . S
C579 C576 1.365 . S
C579 C578 1.366 . S
C579 H593 0.930 . S
C580 C577 1.378 . S
C580 N581 1.315 . S
C580 H583 0.930 . S
N581 Co561 2.194 . S
N581 C576 1.328 . S
N581 C580 1.315 . S
H582 C576 0.929 . S
H583 C580 0.930 . S
H584 C572 0.929 . S
H585 C574 0.929 . S
O586 Co561 2.351 . S
O586 C589 1.244 . S
O587 Co561 2.155 . S
O587 C589 1.240 . S
O588 Co561 2.096 . S
O588 C569 1.247 . S
C589 O586 1.244 . S
C589 O587 1.240 . S
H590 C564 0.931 . S
H591 C573 0.931 . S
H592 C577 0.929 . S
H593 C579 0.930 . S
Co594 N598 2.148 . S
Co594 N604 2.128 . S
Co594 N614 2.194 . S
Co594 O619 2.351 . S
Co594 O620 2.155 . S
Co594 O621 2.096 . S
C595 N598 1.301 . S
C595 N599 1.328 . S
C595 H600 0.930 . S
C596 C597 1.333 . S
C596 N598 1.317 . S
C596 H601 0.930 . S
C597 C596 1.333 . S
C597 N599 1.350 . S
C597 H623 0.931 . S
N598 Co594 2.148 . S
N598 C595 1.301 . S
N598 C596 1.317 . S
N599 C595 1.328 . S
N599 C597 1.350 . S
H600 C595 0.930 . S
H601 C596 0.930 . S
C602 O603 1.224 . S
C602 O621 1.247 . S
O603 C602 1.224 . S
N604 Co594 2.128 . S
N604 C605 1.355 . S
N604 C607 1.311 . S
C605 N604 1.355 . S
C605 C606 1.363 . S
C605 H617 0.929 . S
C606 C605 1.363 . S
C606 N608 1.375 . S
C606 H624 0.931 . S
C607 N604 1.311 . S
C607 N608 1.347 . S
C607 H618 0.929 . S
N608 C606 1.375 . S
N608 C607 1.347 . S
C609 C612 1.365 . S
C609 N614 1.328 . S
C609 H615 0.929 . S
C610 C611 1.362 . S
C610 C613 1.378 . S
C610 H625 0.929 . S
C611 C610 1.362 . S
C611 C612 1.366 . S
C612 C609 1.365 . S
C612 C611 1.366 . S
C612 H626 0.930 . S
C613 C610 1.378 . S
C613 N614 1.315 . S
C613 H616 0.930 . S
N614 Co594 2.194 . S
N614 C609 1.328 . S
N614 C613 1.315 . S
H615 C609 0.929 . S
H616 C613 0.930 . S
H617 C605 0.929 . S
H618 C607 0.929 . S
O619 Co594 2.351 . S
O619 C622 1.244 . S
O620 Co594 2.155 . S
O620 C622 1.240 . S
O621 Co594 2.096 . S
O621 C602 1.247 . S
C622 O619 1.244 . S
C622 O620 1.240 . S
H623 C597 0.931 . S
H624 C606 0.931 . S
H625 C610 0.929 . S
H626 C612 0.930 . S
Co627 N631 2.148 . S
Co627 N637 2.128 . S
Co627 N647 2.194 . S
Co627 O652 2.351 . S
Co627 O653 2.155 . S
Co627 O654 2.096 . S
C628 N631 1.301 . S
C628 N632 1.328 . S
C628 H633 0.930 . S
C629 C630 1.333 . S
C629 N631 1.317 . S
C629 H634 0.930 . S
C630 C629 1.333 . S
C630 N632 1.350 . S
C630 H656 0.931 . S
N631 Co627 2.148 . S
N631 C628 1.301 . S
N631 C629 1.317 . S
N632 C628 1.328 . S
N632 C630 1.350 . S
H633 C628 0.930 . S
H634 C629 0.930 . S
C635 O636 1.224 . S
C635 O654 1.247 . S
O636 C635 1.224 . S
N637 Co627 2.128 . S
N637 C638 1.355 . S
N637 C640 1.311 . S
C638 N637 1.355 . S
C638 C639 1.363 . S
C638 H650 0.929 . S
C639 C638 1.363 . S
C639 N641 1.375 . S
C639 H657 0.931 . S
C640 N637 1.311 . S
C640 N641 1.347 . S
C640 H651 0.929 . S
N641 C639 1.375 . S
N641 C640 1.347 . S
C642 C645 1.365 . S
C642 N647 1.328 . S
C642 H648 0.929 . S
C643 C644 1.362 . S
C643 C646 1.378 . S
C643 H658 0.929 . S
C644 C643 1.362 . S
C644 C645 1.366 . S
C645 C642 1.365 . S
C645 C644 1.366 . S
C645 H659 0.930 . S
C646 C643 1.378 . S
C646 N647 1.315 . S
C646 H649 0.930 . S
N647 Co627 2.194 . S
N647 C642 1.328 . S
N647 C646 1.315 . S
H648 C642 0.929 . S
H649 C646 0.930 . S
H650 C638 0.929 . S
H651 C640 0.929 . S
O652 Co627 2.351 . S
O652 C655 1.244 . S
O653 Co627 2.155 . S
O653 C655 1.240 . S
O654 Co627 2.096 . S
O654 C635 1.247 . S
C655 O652 1.244 . S
C655 O653 1.240 . S
H656 C630 0.931 . S
H657 C639 0.931 . S
H658 C643 0.929 . S
H659 C645 0.930 . S
Co660 N664 2.148 . S
Co660 N670 2.128 . S
Co660 N680 2.194 . S
Co660 O685 2.351 . S
Co660 O686 2.155 . S
Co660 O687 2.096 . S
C661 N664 1.301 . S
C661 N665 1.328 . S
C661 H666 0.930 . S
C662 C663 1.333 . S
C662 N664 1.317 . S
C662 H667 0.930 . S
C663 C662 1.333 . S
C663 N665 1.350 . S
C663 H689 0.931 . S
N664 Co660 2.148 . S
N664 C661 1.301 . S
N664 C662 1.317 . S
N665 C661 1.328 . S
N665 C663 1.350 . S
H666 C661 0.930 . S
H667 C662 0.930 . S
C668 O669 1.224 . S
C668 O687 1.247 . S
O669 C668 1.224 . S
N670 Co660 2.128 . S
N670 C671 1.355 . S
N670 C673 1.311 . S
C671 N670 1.355 . S
C671 C672 1.363 . S
C671 H683 0.929 . S
C672 C671 1.363 . S
C672 N674 1.375 . S
C672 H690 0.931 . S
C673 N670 1.311 . S
C673 N674 1.347 . S
C673 H684 0.929 . S
N674 C672 1.375 . S
N674 C673 1.347 . S
C675 C678 1.365 . S
C675 N680 1.328 . S
C675 H681 0.929 . S
C676 C677 1.362 . S
C676 C679 1.378 . S
C676 H691 0.929 . S
C677 C676 1.362 . S
C677 C678 1.366 . S
C678 C675 1.365 . S
C678 C677 1.366 . S
C678 H692 0.930 . S
C679 C676 1.378 . S
C679 N680 1.315 . S
C679 H682 0.930 . S
N680 Co660 2.194 . S
N680 C675 1.328 . S
N680 C679 1.315 . S
H681 C675 0.929 . S
H682 C679 0.930 . S
H683 C671 0.929 . S
H684 C673 0.929 . S
O685 Co660 2.351 . S
O685 C688 1.244 . S
O686 Co660 2.155 . S
O686 C688 1.240 . S
O687 Co660 2.096 . S
O687 C668 1.247 . S
C688 O685 1.244 . S
C688 O686 1.240 . S
H689 C663 0.931 . S
H690 C672 0.931 . S
H691 C676 0.929 . S
H692 C678 0.930 . S
Co693 N697 2.148 . S
Co693 N703 2.128 . S
Co693 N713 2.194 . S
Co693 O718 2.351 . S
Co693 O719 2.155 . S
Co693 O720 2.096 . S
C694 N697 1.301 . S
C694 N698 1.328 . S
C694 H699 0.930 . S
C695 C696 1.333 . S
C695 N697 1.317 . S
C695 H700 0.930 . S
C696 C695 1.333 . S
C696 N698 1.350 . S
C696 H722 0.931 . S
N697 Co693 2.148 . S
N697 C694 1.301 . S
N697 C695 1.317 . S
N698 C694 1.328 . S
N698 C696 1.350 . S
H699 C694 0.930 . S
H700 C695 0.930 . S
C701 O702 1.224 . S
C701 O720 1.247 . S
O702 C701 1.224 . S
N703 Co693 2.128 . S
N703 C704 1.355 . S
N703 C706 1.311 . S
C704 N703 1.355 . S
C704 C705 1.363 . S
C704 H716 0.929 . S
C705 C704 1.363 . S
C705 N707 1.375 . S
C705 H723 0.931 . S
C706 N703 1.311 . S
C706 N707 1.347 . S
C706 H717 0.929 . S
N707 C705 1.375 . S
N707 C706 1.347 . S
C708 C711 1.365 . S
C708 N713 1.328 . S
C708 H714 0.929 . S
C709 C710 1.362 . S
C709 C712 1.378 . S
C709 H724 0.929 . S
C710 C709 1.362 . S
C710 C711 1.366 . S
C711 C708 1.365 . S
C711 C710 1.366 . S
C711 H725 0.930 . S
C712 C709 1.378 . S
C712 N713 1.315 . S
C712 H715 0.930 . S
N713 Co693 2.194 . S
N713 C708 1.328 . S
N713 C712 1.315 . S
H714 C708 0.929 . S
H715 C712 0.930 . S
H716 C704 0.929 . S
H717 C706 0.929 . S
O718 Co693 2.351 . S
O718 C721 1.244 . S
O719 Co693 2.155 . S
O719 C721 1.240 . S
O720 Co693 2.096 . S
O720 C701 1.247 . S
C721 O718 1.244 . S
C721 O719 1.240 . S
H722 C696 0.931 . S
H723 C705 0.931 . S
H724 C709 0.929 . S
H725 C711 0.930 . S
Co726 N730 2.148 . S
Co726 N736 2.128 . S
Co726 N746 2.194 . S
Co726 O751 2.351 . S
Co726 O752 2.155 . S
Co726 O753 2.096 . S
C727 N730 1.301 . S
C727 N731 1.328 . S
C727 H732 0.930 . S
C728 C729 1.333 . S
C728 N730 1.317 . S
C728 H733 0.930 . S
C729 C728 1.333 . S
C729 N731 1.350 . S
C729 H755 0.931 . S
N730 Co726 2.148 . S
N730 C727 1.301 . S
N730 C728 1.317 . S
N731 C727 1.328 . S
N731 C729 1.350 . S
H732 C727 0.930 . S
H733 C728 0.930 . S
C734 O735 1.224 . S
C734 O753 1.247 . S
O735 C734 1.224 . S
N736 Co726 2.128 . S
N736 C737 1.355 . S
N736 C739 1.311 . S
C737 N736 1.355 . S
C737 C738 1.363 . S
C737 H749 0.929 . S
C738 C737 1.363 . S
C738 N740 1.375 . S
C738 H756 0.931 . S
C739 N736 1.311 . S
C739 N740 1.347 . S
C739 H750 0.929 . S
N740 C738 1.375 . S
N740 C739 1.347 . S
C741 C744 1.365 . S
C741 N746 1.328 . S
C741 H747 0.929 . S
C742 C743 1.362 . S
C742 C745 1.378 . S
C742 H757 0.929 . S
C743 C742 1.362 . S
C743 C744 1.366 . S
C744 C741 1.365 . S
C744 C743 1.366 . S
C744 H758 0.930 . S
C745 C742 1.378 . S
C745 N746 1.315 . S
C745 H748 0.930 . S
N746 Co726 2.194 . S
N746 C741 1.328 . S
N746 C745 1.315 . S
H747 C741 0.929 . S
H748 C745 0.930 . S
H749 C737 0.929 . S
H750 C739 0.929 . S
O751 Co726 2.351 . S
O751 C754 1.244 . S
O752 Co726 2.155 . S
O752 C754 1.240 . S
O753 Co726 2.096 . S
O753 C734 1.247 . S
C754 O751 1.244 . S
C754 O752 1.240 . S
H755 C729 0.931 . S
H756 C738 0.931 . S
H757 C742 0.929 . S
H758 C744 0.930 . S
Co759 N763 2.148 . S
Co759 N769 2.128 . S
Co759 N779 2.194 . S
Co759 O784 2.351 . S
Co759 O785 2.155 . S
Co759 O786 2.096 . S
C760 N763 1.301 . S
C760 N764 1.328 . S
C760 H765 0.930 . S
C761 C762 1.333 . S
C761 N763 1.317 . S
C761 H766 0.930 . S
C762 C761 1.333 . S
C762 N764 1.350 . S
C762 H788 0.931 . S
N763 Co759 2.148 . S
N763 C760 1.301 . S
N763 C761 1.317 . S
N764 C760 1.328 . S
N764 C762 1.350 . S
H765 C760 0.930 . S
H766 C761 0.930 . S
C767 O768 1.224 . S
C767 O786 1.247 . S
O768 C767 1.224 . S
N769 Co759 2.128 . S
N769 C770 1.355 . S
N769 C772 1.311 . S
C770 N769 1.355 . S
C770 C771 1.363 . S
C770 H782 0.929 . S
C771 C770 1.363 . S
C771 N773 1.375 . S
C771 H789 0.931 . S
C772 N769 1.311 . S
C772 N773 1.347 . S
C772 H783 0.929 . S
N773 C771 1.375 . S
N773 C772 1.347 . S
C774 C777 1.365 . S
C774 N779 1.328 . S
C774 H780 0.929 . S
C775 C776 1.362 . S
C775 C778 1.378 . S
C775 H790 0.929 . S
C776 C775 1.362 . S
C776 C777 1.366 . S
C777 C774 1.365 . S
C777 C776 1.366 . S
C777 H791 0.930 . S
C778 C775 1.378 . S
C778 N779 1.315 . S
C778 H781 0.930 . S
N779 Co759 2.194 . S
N779 C774 1.328 . S
N779 C778 1.315 . S
H780 C774 0.929 . S
H781 C778 0.930 . S
H782 C770 0.929 . S
H783 C772 0.929 . S
O784 Co759 2.351 . S
O784 C787 1.244 . S
O785 Co759 2.155 . S
O785 C787 1.240 . S
O786 Co759 2.096 . S
O786 C767 1.247 . S
C787 O784 1.244 . S
C787 O785 1.240 . S
H788 C762 0.931 . S
H789 C771 0.931 . S
H790 C775 0.929 . S
H791 C777 0.930 . S
C792 C793 1.391 . S
C792 C794 1.394 . S
C792 H808 0.931 . S
C793 C792 1.391 . S
C793 C797 1.376 . S
C794 C792 1.394 . S
C794 C795 1.369 . S
C794 C798 1.531 . S
C795 C794 1.369 . S
C795 C796 1.410 . S
C795 C803 1.503 . S
C796 C795 1.410 . S
C796 C797 1.392 . S
C796 C799 1.511 . S
C797 C793 1.376 . S
C797 C796 1.392 . S
C797 H809 0.929 . S
C798 C794 1.531 . S
C798 H810 0.960 . S
C798 H811 0.962 . S
C798 H812 0.960 . S
C799 C796 1.511 . S
C799 H813 0.961 . S
C799 H814 0.961 . S
C799 H815 0.961 . S
C800 C801 1.370 . S
C800 C802 1.363 . S
C800 H816 0.931 . S
C801 C800 1.370 . S
C801 C805 1.408 . S
C802 C800 1.363 . S
C802 C803 1.370 . S
C802 C806 1.524 . S
C803 C795 1.503 . S
C803 C802 1.370 . S
C803 C804 1.403 . S
C804 C803 1.403 . S
C804 C805 1.404 . S
C804 C807 1.539 . S
C805 C801 1.408 . S
C805 C804 1.404 . S
C805 H817 0.930 . S
C806 C802 1.524 . S
C806 H818 0.956 . S
C806 H819 0.961 . S
C806 H820 0.961 . S
C807 C804 1.539 . S
C807 H821 0.958 . S
C807 H822 0.961 . S
C807 H823 0.960 . S
H808 C792 0.931 . S
H809 C797 0.929 . S
H810 C798 0.960 . S
H811 C798 0.962 . S
H812 C798 0.960 . S
H813 C799 0.961 . S
H814 C799 0.961 . S
H815 C799 0.961 . S
H816 C800 0.931 . S
H817 C805 0.930 . S
H818 C806 0.956 . S
H819 C806 0.961 . S
H820 C806 0.961 . S
H821 C807 0.958 . S
H822 C807 0.961 . S
H823 C807 0.960 . S
C824 C825 1.391 . S
C824 C826 1.394 . S
C824 H840 0.931 . S
C825 C824 1.391 . S
C825 C829 1.376 . S
C826 C824 1.394 . S
C826 C827 1.369 . S
C826 C830 1.531 . S
C827 C826 1.369 . S
C827 C828 1.410 . S
C827 C835 1.503 . S
C828 C827 1.410 . S
C828 C829 1.392 . S
C828 C831 1.511 . S
C829 C825 1.376 . S
C829 C828 1.392 . S
C829 H841 0.929 . S
C830 C826 1.531 . S
C830 H842 0.960 . S
C830 H843 0.962 . S
C830 H844 0.960 . S
C831 C828 1.511 . S
C831 H845 0.961 . S
C831 H846 0.961 . S
C831 H847 0.961 . S
C832 C833 1.370 . S
C832 C834 1.363 . S
C832 H848 0.931 . S
C833 C832 1.370 . S
C833 C837 1.408 . S
C834 C832 1.363 . S
C834 C835 1.370 . S
C834 C838 1.524 . S
C835 C827 1.503 . S
C835 C834 1.370 . S
C835 C836 1.403 . S
C836 C835 1.403 . S
C836 C837 1.404 . S
C836 C839 1.539 . S
C837 C833 1.408 . S
C837 C836 1.404 . S
C837 H849 0.930 . S
C838 C834 1.524 . S
C838 H850 0.956 . S
C838 H851 0.961 . S
C838 H852 0.961 . S
C839 C836 1.539 . S
C839 H853 0.958 . S
C839 H854 0.961 . S
C839 H855 0.960 . S
H840 C824 0.931 . S
H841 C829 0.929 . S
H842 C830 0.960 . S
H843 C830 0.962 . S
H844 C830 0.960 . S
H845 C831 0.961 . S
H846 C831 0.961 . S
H847 C831 0.961 . S
H848 C832 0.931 . S
H849 C837 0.930 . S
H850 C838 0.956 . S
H851 C838 0.961 . S
H852 C838 0.961 . S
H853 C839 0.958 . S
H854 C839 0.961 . S
H855 C839 0.960 . S
C856 C857 1.391 . S
C856 C858 1.394 . S
C856 H872 0.931 . S
C857 C856 1.391 . S
C857 C861 1.376 . S
C858 C856 1.394 . S
C858 C859 1.369 . S
C858 C862 1.531 . S
C859 C858 1.369 . S
C859 C860 1.410 . S
C859 C867 1.503 . S
C860 C859 1.410 . S
C860 C861 1.392 . S
C860 C863 1.511 . S
C861 C857 1.376 . S
C861 C860 1.392 . S
C861 H873 0.929 . S
C862 C858 1.531 . S
C862 H874 0.960 . S
C862 H875 0.962 . S
C862 H876 0.960 . S
C863 C860 1.511 . S
C863 H877 0.961 . S
C863 H878 0.961 . S
C863 H879 0.961 . S
C864 C865 1.370 . S
C864 C866 1.363 . S
C864 H880 0.931 . S
C865 C864 1.370 . S
C865 C869 1.408 . S
C866 C864 1.363 . S
C866 C867 1.370 . S
C866 C870 1.524 . S
C867 C859 1.503 . S
C867 C866 1.370 . S
C867 C868 1.403 . S
C868 C867 1.403 . S
C868 C869 1.404 . S
C868 C871 1.539 . S
C869 C865 1.408 . S
C869 C868 1.404 . S
C869 H881 0.930 . S
C870 C866 1.524 . S
C870 H882 0.956 . S
C870 H883 0.961 . S
C870 H884 0.961 . S
C871 C868 1.539 . S
C871 H885 0.958 . S
C871 H886 0.961 . S
C871 H887 0.960 . S
H872 C856 0.931 . S
H873 C861 0.929 . S
H874 C862 0.960 . S
H875 C862 0.962 . S
H876 C862 0.960 . S
H877 C863 0.961 . S
H878 C863 0.961 . S
H879 C863 0.961 . S
H880 C864 0.931 . S
H881 C869 0.930 . S
H882 C870 0.956 . S
H883 C870 0.961 . S
H884 C870 0.961 . S
H885 C871 0.958 . S
H886 C871 0.961 . S
H887 C871 0.960 . S
C888 C889 1.391 . S
C888 C890 1.394 . S
C888 H904 0.931 . S
C889 C888 1.391 . S
C889 C893 1.376 . S
C890 C888 1.394 . S
C890 C891 1.369 . S
C890 C894 1.531 . S
C891 C890 1.369 . S
C891 C892 1.410 . S
C891 C899 1.503 . S
C892 C891 1.410 . S
C892 C893 1.392 . S
C892 C895 1.511 . S
C893 C889 1.376 . S
C893 C892 1.392 . S
C893 H905 0.929 . S
C894 C890 1.531 . S
C894 H906 0.960 . S
C894 H907 0.962 . S
C894 H908 0.960 . S
C895 C892 1.511 . S
C895 H909 0.961 . S
C895 H910 0.961 . S
C895 H911 0.961 . S
C896 C897 1.370 . S
C896 C898 1.363 . S
C896 H912 0.931 . S
C897 C896 1.370 . S
C897 C901 1.408 . S
C898 C896 1.363 . S
C898 C899 1.370 . S
C898 C902 1.524 . S
C899 C891 1.503 . S
C899 C898 1.370 . S
C899 C900 1.403 . S
C900 C899 1.403 . S
C900 C901 1.404 . S
C900 C903 1.539 . S
C901 C897 1.408 . S
C901 C900 1.404 . S
C901 H913 0.930 . S
C902 C898 1.524 . S
C902 H914 0.956 . S
C902 H915 0.961 . S
C902 H916 0.961 . S
C903 C900 1.539 . S
C903 H917 0.958 . S
C903 H918 0.961 . S
C903 H919 0.960 . S
H904 C888 0.931 . S
H905 C893 0.929 . S
H906 C894 0.960 . S
H907 C894 0.962 . S
H908 C894 0.960 . S
H909 C895 0.961 . S
H910 C895 0.961 . S
H911 C895 0.961 . S
H912 C896 0.931 . S
H913 C901 0.930 . S
H914 C902 0.956 . S
H915 C902 0.961 . S
H916 C902 0.961 . S
H917 C903 0.958 . S
H918 C903 0.961 . S
H919 C903 0.960 . S
C920 C921 1.391 . S
C920 C922 1.394 . S
C920 H936 0.931 . S
C921 C920 1.391 . S
C921 C925 1.376 . S
C922 C920 1.394 . S
C922 C923 1.369 . S
C922 C926 1.531 . S
C923 C922 1.369 . S
C923 C924 1.410 . S
C923 C931 1.503 . S
C924 C923 1.410 . S
C924 C925 1.392 . S
C924 C927 1.511 . S
C925 C921 1.376 . S
C925 C924 1.392 . S
C925 H937 0.929 . S
C926 C922 1.531 . S
C926 H938 0.960 . S
C926 H939 0.962 . S
C926 H940 0.960 . S
C927 C924 1.511 . S
C927 H941 0.961 . S
C927 H942 0.961 . S
C927 H943 0.961 . S
C928 C929 1.370 . S
C928 C930 1.363 . S
C928 H944 0.931 . S
C929 C928 1.370 . S
C929 C933 1.408 . S
C930 C928 1.363 . S
C930 C931 1.370 . S
C930 C934 1.524 . S
C931 C923 1.503 . S
C931 C930 1.370 . S
C931 C932 1.403 . S
C932 C931 1.403 . S
C932 C933 1.404 . S
C932 C935 1.539 . S
C933 C929 1.408 . S
C933 C932 1.404 . S
C933 H945 0.930 . S
C934 C930 1.524 . S
C934 H946 0.956 . S
C934 H947 0.961 . S
C934 H948 0.961 . S
C935 C932 1.539 . S
C935 H949 0.958 . S
C935 H950 0.961 . S
C935 H951 0.960 . S
H936 C920 0.931 . S
H937 C925 0.929 . S
H938 C926 0.960 . S
H939 C926 0.962 . S
H940 C926 0.960 . S
H941 C927 0.961 . S
H942 C927 0.961 . S
H943 C927 0.961 . S
H944 C928 0.931 . S
H945 C933 0.930 . S
H946 C934 0.956 . S
H947 C934 0.961 . S
H948 C934 0.961 . S
H949 C935 0.958 . S
H950 C935 0.961 . S
H951 C935 0.960 . S
C952 C953 1.391 . S
C952 C954 1.394 . S
C952 H968 0.931 . S
C953 C952 1.391 . S
C953 C957 1.376 . S
C954 C952 1.394 . S
C954 C955 1.369 . S
C954 C958 1.531 . S
C955 C954 1.369 . S
C955 C956 1.410 . S
C955 C963 1.503 . S
C956 C955 1.410 . S
C956 C957 1.392 . S
C956 C959 1.511 . S
C957 C953 1.376 . S
C957 C956 1.392 . S
C957 H969 0.929 . S
C958 C954 1.531 . S
C958 H970 0.960 . S
C958 H971 0.962 . S
C958 H972 0.960 . S
C959 C956 1.511 . S
C959 H973 0.961 . S
C959 H974 0.961 . S
C959 H975 0.961 . S
C960 C961 1.370 . S
C960 C962 1.363 . S
C960 H976 0.931 . S
C961 C960 1.370 . S
C961 C965 1.408 . S
C962 C960 1.363 . S
C962 C963 1.370 . S
C962 C966 1.524 . S
C963 C955 1.503 . S
C963 C962 1.370 . S
C963 C964 1.403 . S
C964 C963 1.403 . S
C964 C965 1.404 . S
C964 C967 1.539 . S
C965 C961 1.408 . S
C965 C964 1.404 . S
C965 H977 0.930 . S
C966 C962 1.524 . S
C966 H978 0.956 . S
C966 H979 0.961 . S
C966 H980 0.961 . S
C967 C964 1.539 . S
C967 H981 0.958 . S
C967 H982 0.961 . S
C967 H983 0.960 . S
H968 C952 0.931 . S
H969 C957 0.929 . S
H970 C958 0.960 . S
H971 C958 0.962 . S
H972 C958 0.960 . S
H973 C959 0.961 . S
H974 C959 0.961 . S
H975 C959 0.961 . S
H976 C960 0.931 . S
H977 C965 0.930 . S
H978 C966 0.956 . S
H979 C966 0.961 . S
H980 C966 0.961 . S
H981 C967 0.958 . S
H982 C967 0.961 . S
H983 C967 0.960 . S
C984 C985 1.391 . S
C984 C986 1.394 . S
C984 H1000 0.931 . S
C985 C984 1.391 . S
C985 C989 1.376 . S
C986 C984 1.394 . S
C986 C987 1.369 . S
C986 C990 1.531 . S
C987 C986 1.369 . S
C987 C988 1.410 . S
C987 C995 1.503 . S
C988 C987 1.410 . S
C988 C989 1.392 . S
C988 C991 1.511 . S
C989 C985 1.376 . S
C989 C988 1.392 . S
C989 H1001 0.929 . S
C990 C986 1.531 . S
C990 H1002 0.960 . S
C990 H1003 0.962 . S
C990 H1004 0.960 . S
C991 C988 1.511 . S
C991 H1005 0.961 . S
C991 H1006 0.961 . S
C991 H1007 0.961 . S
C992 C993 1.370 . S
C992 C994 1.363 . S
C992 H1008 0.931 . S
C993 C992 1.370 . S
C993 C997 1.408 . S
C994 C992 1.363 . S
C994 C995 1.370 . S
C994 C998 1.524 . S
C995 C987 1.503 . S
C995 C994 1.370 . S
C995 C996 1.403 . S
C996 C995 1.403 . S
C996 C997 1.404 . S
C996 C999 1.539 . S
C997 C993 1.408 . S
C997 C996 1.404 . S
C997 H1009 0.930 . S
C998 C994 1.524 . S
C998 H1010 0.956 . S
C998 H1011 0.961 . S
C998 H1012 0.961 . S
C999 C996 1.539 . S
C999 H1013 0.958 . S
C999 H1014 0.961 . S
C999 H1015 0.960 . S
H1000 C984 0.931 . S
H1001 C989 0.929 . S
H1002 C990 0.960 . S
H1003 C990 0.962 . S
H1004 C990 0.960 . S
H1005 C991 0.961 . S
H1006 C991 0.961 . S
H1007 C991 0.961 . S
H1008 C992 0.931 . S
H1009 C997 0.930 . S
H1010 C998 0.956 . S
H1011 C998 0.961 . S
H1012 C998 0.961 . S
H1013 C999 0.958 . S
H1014 C999 0.961 . S
H1015 C999 0.960 . S
C1016 C1017 1.391 . S
C1016 C1018 1.394 . S
C1016 H1032 0.931 . S
C1017 C1016 1.391 . S
C1017 C1021 1.376 . S
C1018 C1016 1.394 . S
C1018 C1019 1.369 . S
C1018 C1022 1.531 . S
C1019 C1018 1.369 . S
C1019 C1020 1.410 . S
C1019 C1027 1.503 . S
C1020 C1019 1.410 . S
C1020 C1021 1.392 . S
C1020 C1023 1.511 . S
C1021 C1017 1.376 . S
C1021 C1020 1.392 . S
C1021 H1033 0.929 . S
C1022 C1018 1.531 . S
C1022 H1034 0.960 . S
C1022 H1035 0.962 . S
C1022 H1036 0.960 . S
C1023 C1020 1.511 . S
C1023 H1037 0.961 . S
C1023 H1038 0.961 . S
C1023 H1039 0.961 . S
C1024 C1025 1.370 . S
C1024 C1026 1.363 . S
C1024 H1040 0.931 . S
C1025 C1024 1.370 . S
C1025 C1029 1.408 . S
C1026 C1024 1.363 . S
C1026 C1027 1.370 . S
C1026 C1030 1.524 . S
C1027 C1019 1.503 . S
C1027 C1026 1.370 . S
C1027 C1028 1.403 . S
C1028 C1027 1.403 . S
C1028 C1029 1.404 . S
C1028 C1031 1.539 . S
C1029 C1025 1.408 . S
C1029 C1028 1.404 . S
C1029 H1041 0.930 . S
C1030 C1026 1.524 . S
C1030 H1042 0.956 . S
C1030 H1043 0.961 . S
C1030 H1044 0.961 . S
C1031 C1028 1.539 . S
C1031 H1045 0.958 . S
C1031 H1046 0.961 . S
C1031 H1047 0.960 . S
H1032 C1016 0.931 . S
H1033 C1021 0.929 . S
H1034 C1022 0.960 . S
H1035 C1022 0.962 . S
H1036 C1022 0.960 . S
H1037 C1023 0.961 . S
H1038 C1023 0.961 . S
H1039 C1023 0.961 . S
H1040 C1024 0.931 . S
H1041 C1029 0.930 . S
H1042 C1030 0.956 . S
H1043 C1030 0.961 . S
H1044 C1030 0.961 . S
H1045 C1031 0.958 . S
H1046 C1031 0.961 . S
H1047 C1031 0.960 . S
C1048 C1049 1.391 . S
C1048 C1050 1.394 . S
C1048 H1064 0.931 . S
C1049 C1048 1.391 . S
C1049 C1053 1.376 . S
C1050 C1048 1.394 . S
C1050 C1051 1.369 . S
C1050 C1054 1.531 . S
C1051 C1050 1.369 . S
C1051 C1052 1.410 . S
C1051 C1059 1.503 . S
C1052 C1051 1.410 . S
C1052 C1053 1.392 . S
C1052 C1055 1.511 . S
C1053 C1049 1.376 . S
C1053 C1052 1.392 . S
C1053 H1065 0.929 . S
C1054 C1050 1.531 . S
C1054 H1066 0.960 . S
C1054 H1067 0.962 . S
C1054 H1068 0.960 . S
C1055 C1052 1.511 . S
C1055 H1069 0.961 . S
C1055 H1070 0.961 . S
C1055 H1071 0.961 . S
C1056 C1057 1.370 . S
C1056 C1058 1.363 . S
C1056 H1072 0.931 . S
C1057 C1056 1.370 . S
C1057 C1061 1.408 . S
C1058 C1056 1.363 . S
C1058 C1059 1.370 . S
C1058 C1062 1.524 . S
C1059 C1051 1.503 . S
C1059 C1058 1.370 . S
C1059 C1060 1.403 . S
C1060 C1059 1.403 . S
C1060 C1061 1.404 . S
C1060 C1063 1.539 . S
C1061 C1057 1.408 . S
C1061 C1060 1.404 . S
C1061 H1073 0.930 . S
C1062 C1058 1.524 . S
C1062 H1074 0.956 . S
C1062 H1075 0.961 . S
C1062 H1076 0.961 . S
C1063 C1060 1.539 . S
C1063 H1077 0.958 . S
C1063 H1078 0.961 . S
C1063 H1079 0.960 . S
H1064 C1048 0.931 . S
H1065 C1053 0.929 . S
H1066 C1054 0.960 . S
H1067 C1054 0.962 . S
H1068 C1054 0.960 . S
H1069 C1055 0.961 . S
H1070 C1055 0.961 . S
H1071 C1055 0.961 . S
H1072 C1056 0.931 . S
H1073 C1061 0.930 . S
H1074 C1062 0.956 . S
H1075 C1062 0.961 . S
H1076 C1062 0.961 . S
H1077 C1063 0.958 . S
H1078 C1063 0.961 . S
H1079 C1063 0.960 . S
C1080 C1081 1.391 . S
C1080 C1082 1.394 . S
C1080 H1096 0.931 . S
C1081 C1080 1.391 . S
C1081 C1085 1.376 . S
C1082 C1080 1.394 . S
C1082 C1083 1.369 . S
C1082 C1086 1.531 . S
C1083 C1082 1.369 . S
C1083 C1084 1.410 . S
C1083 C1091 1.503 . S
C1084 C1083 1.410 . S
C1084 C1085 1.392 . S
C1084 C1087 1.511 . S
C1085 C1081 1.376 . S
C1085 C1084 1.392 . S
C1085 H1097 0.929 . S
C1086 C1082 1.531 . S
C1086 H1098 0.960 . S
C1086 H1099 0.962 . S
C1086 H1100 0.960 . S
C1087 C1084 1.511 . S
C1087 H1101 0.961 . S
C1087 H1102 0.961 . S
C1087 H1103 0.961 . S
C1088 C1089 1.370 . S
C1088 C1090 1.363 . S
C1088 H1104 0.931 . S
C1089 C1088 1.370 . S
C1089 C1093 1.408 . S
C1090 C1088 1.363 . S
C1090 C1091 1.370 . S
C1090 C1094 1.524 . S
C1091 C1083 1.503 . S
C1091 C1090 1.370 . S
C1091 C1092 1.403 . S
C1092 C1091 1.403 . S
C1092 C1093 1.404 . S
C1092 C1095 1.539 . S
C1093 C1089 1.408 . S
C1093 C1092 1.404 . S
C1093 H1105 0.930 . S
C1094 C1090 1.524 . S
C1094 H1106 0.956 . S
C1094 H1107 0.961 . S
C1094 H1108 0.961 . S
C1095 C1092 1.539 . S
C1095 H1109 0.958 . S
C1095 H1110 0.961 . S
C1095 H1111 0.960 . S
H1096 C1080 0.931 . S
H1097 C1085 0.929 . S
H1098 C1086 0.960 . S
H1099 C1086 0.962 . S
H1100 C1086 0.960 . S
H1101 C1087 0.961 . S
H1102 C1087 0.961 . S
H1103 C1087 0.961 . S
H1104 C1088 0.931 . S
H1105 C1093 0.930 . S
H1106 C1094 0.956 . S
H1107 C1094 0.961 . S
H1108 C1094 0.961 . S
H1109 C1095 0.958 . S
H1110 C1095 0.961 . S
H1111 C1095 0.960 . S
C1112 C1113 1.391 . S
C1112 C1114 1.394 . S
C1112 H1128 0.931 . S
C1113 C1112 1.391 . S
C1113 C1117 1.376 . S
C1114 C1112 1.394 . S
C1114 C1115 1.369 . S
C1114 C1118 1.531 . S
C1115 C1114 1.369 . S
C1115 C1116 1.410 . S
C1115 C1123 1.503 . S
C1116 C1115 1.410 . S
C1116 C1117 1.392 . S
C1116 C1119 1.511 . S
C1117 C1113 1.376 . S
C1117 C1116 1.392 . S
C1117 H1129 0.929 . S
C1118 C1114 1.531 . S
C1118 H1130 0.960 . S
C1118 H1131 0.962 . S
C1118 H1132 0.960 . S
C1119 C1116 1.511 . S
C1119 H1133 0.961 . S
C1119 H1134 0.961 . S
C1119 H1135 0.961 . S
C1120 C1121 1.370 . S
C1120 C1122 1.363 . S
C1120 H1136 0.931 . S
C1121 C1120 1.370 . S
C1121 C1125 1.408 . S
C1122 C1120 1.363 . S
C1122 C1123 1.370 . S
C1122 C1126 1.524 . S
C1123 C1115 1.503 . S
C1123 C1122 1.370 . S
C1123 C1124 1.403 . S
C1124 C1123 1.403 . S
C1124 C1125 1.404 . S
C1124 C1127 1.539 . S
C1125 C1121 1.408 . S
C1125 C1124 1.404 . S
C1125 H1137 0.930 . S
C1126 C1122 1.524 . S
C1126 H1138 0.956 . S
C1126 H1139 0.961 . S
C1126 H1140 0.961 . S
C1127 C1124 1.539 . S
C1127 H1141 0.958 . S
C1127 H1142 0.961 . S
C1127 H1143 0.960 . S
H1128 C1112 0.931 . S
H1129 C1117 0.929 . S
H1130 C1118 0.960 . S
H1131 C1118 0.962 . S
H1132 C1118 0.960 . S
H1133 C1119 0.961 . S
H1134 C1119 0.961 . S
H1135 C1119 0.961 . S
H1136 C1120 0.931 . S
H1137 C1125 0.930 . S
H1138 C1126 0.956 . S
H1139 C1126 0.961 . S
H1140 C1126 0.961 . S
H1141 C1127 0.958 . S
H1142 C1127 0.961 . S
H1143 C1127 0.960 . S
C1144 C1145 1.391 . S
C1144 C1146 1.394 . S
C1144 H1160 0.931 . S
C1145 C1144 1.391 . S
C1145 C1149 1.376 . S
C1146 C1144 1.394 . S
C1146 C1147 1.369 . S
C1146 C1150 1.531 . S
C1147 C1146 1.369 . S
C1147 C1148 1.410 . S
C1147 C1155 1.503 . S
C1148 C1147 1.410 . S
C1148 C1149 1.392 . S
C1148 C1151 1.511 . S
C1149 C1145 1.376 . S
C1149 C1148 1.392 . S
C1149 H1161 0.929 . S
C1150 C1146 1.531 . S
C1150 H1162 0.960 . S
C1150 H1163 0.962 . S
C1150 H1164 0.960 . S
C1151 C1148 1.511 . S
C1151 H1165 0.961 . S
C1151 H1166 0.961 . S
C1151 H1167 0.961 . S
C1152 C1153 1.370 . S
C1152 C1154 1.363 . S
C1152 H1168 0.931 . S
C1153 C1152 1.370 . S
C1153 C1157 1.408 . S
C1154 C1152 1.363 . S
C1154 C1155 1.370 . S
C1154 C1158 1.524 . S
C1155 C1147 1.503 . S
C1155 C1154 1.370 . S
C1155 C1156 1.403 . S
C1156 C1155 1.403 . S
C1156 C1157 1.404 . S
C1156 C1159 1.539 . S
C1157 C1153 1.408 . S
C1157 C1156 1.404 . S
C1157 H1169 0.930 . S
C1158 C1154 1.524 . S
C1158 H1170 0.956 . S
C1158 H1171 0.961 . S
C1158 H1172 0.961 . S
C1159 C1156 1.539 . S
C1159 H1173 0.958 . S
C1159 H1174 0.961 . S
C1159 H1175 0.960 . S
H1160 C1144 0.931 . S
H1161 C1149 0.929 . S
H1162 C1150 0.960 . S
H1163 C1150 0.962 . S
H1164 C1150 0.960 . S
H1165 C1151 0.961 . S
H1166 C1151 0.961 . S
H1167 C1151 0.961 . S
H1168 C1152 0.931 . S
H1169 C1157 0.930 . S
H1170 C1158 0.956 . S
H1171 C1158 0.961 . S
H1172 C1158 0.961 . S
H1173 C1159 0.958 . S
H1174 C1159 0.961 . S
H1175 C1159 0.960 . S
C1176 C1177 1.391 . S
C1176 C1178 1.394 . S
C1176 H1192 0.931 . S
C1177 C1176 1.391 . S
C1177 C1181 1.376 . S
C1178 C1176 1.394 . S
C1178 C1179 1.369 1_565 S
C1178 C1182 1.531 1_565 S
C1179 C1178 1.369 1_545 S
C1179 C1180 1.410 1_545 S
C1179 C1187 1.503 . S
C1180 C1179 1.410 1_565 S
C1180 C1181 1.392 . S
C1180 C1183 1.511 1_565 S
C1181 C1177 1.376 . S
C1181 C1180 1.392 . S
C1181 H1193 0.929 . S
C1182 C1178 1.531 1_545 S
C1182 H1194 0.960 . S
C1182 H1195 0.962 . S
C1182 H1196 0.977 . S
C1183 C1180 1.511 1_545 S
C1183 H1197 0.961 1_545 S
C1183 H1198 0.961 . S
C1183 H1199 0.961 . S
C1184 C1185 1.370 . S
C1184 C1186 1.363 . S
C1184 H1200 0.931 . S
C1185 C1184 1.370 . S
C1185 C1189 1.408 . S
C1186 C1184 1.363 . S
C1186 C1187 1.370 . S
C1186 C1190 1.524 . S
C1187 C1179 1.503 . S
C1187 C1186 1.370 . S
C1187 C1188 1.403 . S
C1188 C1187 1.403 . S
C1188 C1189 1.404 . S
C1188 C1191 1.539 . S
C1189 C1185 1.408 . S
C1189 C1188 1.404 . S
C1189 H1201 0.930 . S
C1190 C1186 1.524 . S
C1190 H1202 0.956 . S
C1190 H1203 0.961 . S
C1190 H1204 0.961 . S
C1191 C1188 1.539 . S
C1191 H1205 0.958 . S
C1191 H1206 0.961 . S
C1191 H1207 0.960 . S
H1192 C1176 0.931 . S
H1193 C1181 0.929 . S
H1194 C1182 0.960 . S
H1195 C1182 0.962 . S
H1196 C1182 0.977 . S
H1197 C1183 0.961 1_565 S
H1198 C1183 0.961 . S
H1199 C1183 0.961 . S
H1200 C1184 0.931 . S
H1201 C1189 0.930 . S
H1202 C1190 0.956 . S
H1203 C1190 0.961 . S
H1204 C1190 0.961 . S
H1205 C1191 0.958 . S
H1206 C1191 0.961 . S
H1207 C1191 0.960 . S
C1208 C1209 1.391 . S
C1208 C1210 1.394 . S
C1208 H1224 0.931 . S
C1209 C1208 1.391 . S
C1209 C1213 1.376 . S
C1210 C1208 1.394 . S
C1210 C1211 1.369 . S
C1210 C1214 1.531 . S
C1211 C1210 1.369 . S
C1211 C1212 1.410 . S
C1211 C1219 1.503 . S
C1212 C1211 1.410 . S
C1212 C1213 1.392 . S
C1212 C1215 1.511 . S
C1213 C1209 1.376 . S
C1213 C1212 1.392 . S
C1213 H1225 0.929 . S
C1214 C1210 1.531 . S
C1214 H1226 0.960 . S
C1214 H1227 0.962 . S
C1214 H1228 0.960 . S
C1215 C1212 1.511 . S
C1215 H1229 0.961 . S
C1215 H1230 0.961 . S
C1215 H1231 0.961 . S
C1216 C1217 1.370 . S
C1216 C1218 1.363 . S
C1216 H1232 0.931 . S
C1217 C1216 1.370 . S
C1217 C1221 1.408 . S
C1218 C1216 1.363 . S
C1218 C1219 1.370 1_455 S
C1218 C1222 1.524 1_455 S
C1219 C1211 1.503 . S
C1219 C1218 1.370 1_655 S
C1219 C1220 1.403 1_655 S
C1220 C1219 1.403 1_455 S
C1220 C1221 1.404 . S
C1220 C1223 1.539 1_455 S
C1221 C1217 1.408 . S
C1221 C1220 1.404 . S
C1221 H1233 0.930 . S
C1222 C1218 1.524 1_655 S
C1222 H1234 0.956 . S
C1222 H1235 0.961 . S
C1222 H1236 0.961 1_655 S
C1223 C1220 1.539 1_655 S
C1223 H1237 0.958 . S
C1223 H1238 0.961 1_655 S
C1223 H1239 0.960 . S
H1224 C1208 0.931 . S
H1225 C1213 0.929 . S
H1226 C1214 0.960 . S
H1227 C1214 0.962 . S
H1228 C1214 0.960 . S
H1229 C1215 0.961 . S
H1230 C1215 0.961 . S
H1231 C1215 0.961 . S
H1232 C1216 0.931 . S
H1233 C1221 0.930 . S
H1234 C1222 0.956 . S
H1235 C1222 0.961 . S
H1236 C1222 0.961 1_455 S
H1237 C1223 0.958 . S
H1238 C1223 0.961 1_455 S
H1239 C1223 0.960 . S
C1240 C1241 1.391 . S
C1240 C1242 1.394 . S
C1240 H1256 0.931 . S
C1241 C1240 1.391 . S
C1241 C1245 1.376 . S
C1242 C1240 1.394 . S
C1242 C1243 1.369 . S
C1242 C1246 1.531 . S
C1243 C1242 1.369 . S
C1243 C1244 1.410 . S
C1243 C1251 1.503 . S
C1244 C1243 1.410 . S
C1244 C1245 1.392 . S
C1244 C1247 1.511 . S
C1245 C1241 1.376 . S
C1245 C1244 1.392 . S
C1245 H1257 0.929 . S
C1246 C1242 1.531 . S
C1246 H1258 0.960 . S
C1246 H1259 0.962 . S
C1246 H1260 0.960 . S
C1247 C1244 1.511 . S
C1247 H1261 0.961 . S
C1247 H1262 0.961 . S
C1247 H1263 0.961 . S
C1248 C1249 1.370 . S
C1248 C1250 1.363 . S
C1248 H1264 0.931 . S
C1249 C1248 1.370 . S
C1249 C1253 1.408 . S
C1250 C1248 1.363 . S
C1250 C1251 1.370 1_545 S
C1250 C1254 1.524 1_545 S
C1251 C1243 1.503 . S
C1251 C1250 1.370 1_565 S
C1251 C1252 1.403 1_565 S
C1252 C1251 1.403 1_545 S
C1252 C1253 1.404 . S
C1252 C1255 1.539 1_545 S
C1253 C1249 1.408 . S
C1253 C1252 1.404 . S
C1253 H1265 0.930 . S
C1254 C1250 1.524 1_565 S
C1254 H1266 0.956 . S
C1254 H1267 0.961 . S
C1254 H1268 0.961 1_565 S
C1255 C1252 1.539 1_565 S
C1255 H1269 0.958 . S
C1255 H1270 0.961 1_565 S
C1255 H1271 0.960 . S
H1256 C1240 0.931 . S
H1257 C1245 0.929 . S
H1258 C1246 0.960 . S
H1259 C1246 0.962 . S
H1260 C1246 0.960 . S
H1261 C1247 0.961 . S
H1262 C1247 0.961 . S
H1263 C1247 0.961 . S
H1264 C1248 0.931 . S
H1265 C1253 0.930 . S
H1266 C1254 0.956 . S
H1267 C1254 0.961 . S
H1268 C1254 0.961 1_545 S
H1269 C1255 0.958 . S
H1270 C1255 0.961 1_545 S
H1271 C1255 0.960 . S
C1272 C1273 1.391 . S
C1272 C1274 1.394 . S
C1272 H1288 0.931 . S
C1273 C1272 1.391 . S
C1273 C1277 1.376 . S
C1274 C1272 1.394 . S
C1274 C1275 1.369 1_655 S
C1274 C1278 1.531 1_655 S
C1275 C1274 1.369 1_455 S
C1275 C1276 1.410 1_455 S
C1275 C1283 1.503 . S
C1276 C1275 1.410 1_655 S
C1276 C1277 1.392 . S
C1276 C1279 1.511 . S
C1277 C1273 1.376 . S
C1277 C1276 1.392 . S
C1277 H1289 0.929 . S
C1278 C1274 1.531 1_455 S
C1278 H1290 0.960 . S
C1278 H1291 0.962 . S
C1278 H1292 0.960 . S
C1279 C1276 1.511 . S
C1279 H1293 0.961 . S
C1279 H1294 0.961 1_655 S
C1279 H1295 0.961 . S
C1280 C1281 1.370 . S
C1280 C1282 1.363 . S
C1280 H1296 0.931 . S
C1281 C1280 1.370 . S
C1281 C1285 1.408 . S
C1282 C1280 1.363 . S
C1282 C1283 1.370 . S
C1282 C1286 1.524 . S
C1283 C1275 1.503 . S
C1283 C1282 1.370 . S
C1283 C1284 1.403 . S
C1284 C1283 1.403 . S
C1284 C1285 1.404 . S
C1284 C1287 1.539 . S
C1285 C1281 1.408 . S
C1285 C1284 1.404 . S
C1285 H1297 0.930 . S
C1286 C1282 1.524 . S
C1286 H1298 0.956 . S
C1286 H1299 0.961 . S
C1286 H1300 0.961 . S
C1287 C1284 1.539 . S
C1287 H1301 0.958 . S
C1287 H1302 0.961 . S
C1287 H1303 0.960 . S
H1288 C1272 0.931 . S
H1289 C1277 0.929 . S
H1290 C1278 0.960 . S
H1291 C1278 0.962 . S
H1292 C1278 0.960 . S
H1293 C1279 0.961 . S
H1294 C1279 0.961 1_455 S
H1295 C1279 0.961 . S
H1296 C1280 0.931 . S
H1297 C1285 0.930 . S
H1298 C1286 0.956 . S
H1299 C1286 0.961 . S
H1300 C1286 0.961 . S
H1301 C1287 0.958 . S
H1302 C1287 0.961 . S
H1303 C1287 0.960 . S
C1304 C1305 1.391 . S
C1304 C1306 1.394 . S
C1304 H1320 0.931 . S
C1305 C1304 1.391 . S
C1305 C1309 1.376 . S
C1306 C1304 1.394 . S
C1306 C1307 1.369 1_545 S
C1306 C1310 1.531 1_545 S
C1307 C1306 1.369 1_565 S
C1307 C1308 1.410 1_565 S
C1307 C1315 1.503 . S
C1308 C1307 1.410 1_545 S
C1308 C1309 1.392 . S
C1308 C1311 1.511 1_545 S
C1309 C1305 1.376 . S
C1309 C1308 1.392 . S
C1309 H1321 0.929 . S
C1310 C1306 1.531 1_565 S
C1310 H1322 0.960 . S
C1310 H1323 0.962 . S
C1310 H1324 0.962 1_565 S
C1311 C1308 1.511 1_565 S
C1311 H1325 0.961 1_565 S
C1311 H1326 0.961 . S
C1311 H1327 0.961 . S
C1312 C1313 1.370 . S
C1312 C1314 1.363 . S
C1312 H1328 0.931 . S
C1313 C1312 1.370 . S
C1313 C1317 1.408 . S
C1314 C1312 1.363 . S
C1314 C1315 1.370 . S
C1314 C1318 1.524 . S
C1315 C1307 1.503 . S
C1315 C1314 1.370 . S
C1315 C1316 1.403 . S
C1316 C1315 1.403 . S
C1316 C1317 1.404 . S
C1316 C1319 1.539 . S
C1317 C1313 1.408 . S
C1317 C1316 1.404 . S
C1317 H1329 0.930 . S
C1318 C1314 1.524 . S
C1318 H1330 0.956 . S
C1318 H1331 0.961 . S
C1318 H1332 0.961 . S
C1319 C1316 1.539 . S
C1319 H1333 0.958 . S
C1319 H1334 0.961 . S
C1319 H1335 0.960 . S
H1320 C1304 0.931 . S
H1321 C1309 0.929 . S
H1322 C1310 0.960 . S
H1323 C1310 0.962 . S
H1324 C1310 0.962 1_545 S
H1325 C1311 0.961 1_545 S
H1326 C1311 0.961 . S
H1327 C1311 0.961 . S
H1328 C1312 0.931 . S
H1329 C1317 0.930 . S
H1330 C1318 0.956 . S
H1331 C1318 0.961 . S
H1332 C1318 0.961 . S
H1333 C1319 0.958 . S
H1334 C1319 0.961 . S
H1335 C1319 0.960 . S
C1336 C1337 1.391 . S
C1336 C1338 1.394 . S
C1336 H1352 0.931 . S
C1337 C1336 1.391 . S
C1337 C1341 1.376 . S
C1338 C1336 1.394 . S
C1338 C1339 1.369 . S
C1338 C1342 1.531 . S
C1339 C1338 1.369 . S
C1339 C1340 1.410 . S
C1339 C1347 1.503 . S
C1340 C1339 1.410 . S
C1340 C1341 1.392 . S
C1340 C1343 1.511 . S
C1341 C1337 1.376 . S
C1341 C1340 1.392 . S
C1341 H1353 0.929 . S
C1342 C1338 1.531 . S
C1342 H1354 0.960 . S
C1342 H1355 0.962 . S
C1342 H1356 0.960 . S
C1343 C1340 1.511 . S
C1343 H1357 0.961 . S
C1343 H1358 0.961 . S
C1343 H1359 0.961 . S
C1344 C1345 1.370 . S
C1344 C1346 1.363 . S
C1344 H1360 0.931 . S
C1345 C1344 1.370 . S
C1345 C1349 1.408 . S
C1346 C1344 1.363 . S
C1346 C1347 1.370 1_655 S
C1346 C1350 1.524 1_655 S
C1347 C1339 1.503 . S
C1347 C1346 1.370 1_455 S
C1347 C1348 1.403 1_455 S
C1348 C1347 1.403 1_655 S
C1348 C1349 1.404 . S
C1348 C1351 1.539 1_655 S
C1349 C1345 1.408 . S
C1349 C1348 1.404 . S
C1349 H1361 0.930 . S
C1350 C1346 1.524 1_455 S
C1350 H1362 0.956 . S
C1350 H1363 0.961 . S
C1350 H1364 0.961 1_455 S
C1351 C1348 1.539 1_455 S
C1351 H1365 0.958 . S
C1351 H1366 0.961 . S
C1351 H1367 0.960 . S
H1352 C1336 0.931 . S
H1353 C1341 0.929 . S
H1354 C1342 0.960 . S
H1355 C1342 0.962 . S
H1356 C1342 0.960 . S
H1357 C1343 0.961 . S
H1358 C1343 0.961 . S
H1359 C1343 0.961 . S
H1360 C1344 0.931 . S
H1361 C1349 0.930 . S
H1362 C1350 0.956 . S
H1363 C1350 0.961 . S
H1364 C1350 0.961 1_655 S
H1365 C1351 0.958 . S
H1366 C1351 0.961 . S
H1367 C1351 0.960 . S
C1368 C1369 1.391 . S
C1368 C1370 1.394 . S
C1368 H1384 0.931 . S
C1369 C1368 1.391 . S
C1369 C1373 1.376 . S
C1370 C1368 1.394 . S
C1370 C1371 1.369 1_565 S
C1370 C1374 1.531 . S
C1371 C1370 1.369 1_545 S
C1371 C1372 1.410 1_545 S
C1371 C1379 1.503 . S
C1372 C1371 1.410 1_565 S
C1372 C1373 1.392 . S
C1372 C1375 1.511 1_565 S
C1373 C1369 1.376 . S
C1373 C1372 1.392 . S
C1373 H1385 0.929 . S
C1374 C1370 1.531 . S
C1374 H1386 0.960 1_565 S
C1374 H1387 0.963 . S
C1374 H1388 0.960 . S
C1375 C1372 1.511 1_545 S
C1375 H1389 0.961 . S
C1375 H1390 0.961 . S
C1375 H1391 0.961 . S
C1376 C1377 1.370 . S
C1376 C1378 1.363 . S
C1376 H1392 0.931 . S
C1377 C1376 1.370 . S
C1377 C1381 1.408 . S
C1378 C1376 1.363 . S
C1378 C1379 1.370 . S
C1378 C1382 1.524 . S
C1379 C1371 1.503 . S
C1379 C1378 1.370 . S
C1379 C1380 1.403 . S
C1380 C1379 1.403 . S
C1380 C1381 1.404 . S
C1380 C1383 1.539 . S
C1381 C1377 1.408 . S
C1381 C1380 1.404 . S
C1381 H1393 0.930 . S
C1382 C1378 1.524 . S
C1382 H1394 0.956 . S
C1382 H1395 0.961 . S
C1382 H1396 0.961 . S
C1383 C1380 1.539 . S
C1383 H1397 0.958 . S
C1383 H1398 0.961 . S
C1383 H1399 0.960 . S
H1384 C1368 0.931 . S
H1385 C1373 0.929 . S
H1386 C1374 0.960 1_545 S
H1387 C1374 0.963 . S
H1388 C1374 0.960 . S
H1389 C1375 0.961 . S
H1390 C1375 0.961 . S
H1391 C1375 0.961 . S
H1392 C1376 0.931 . S
H1393 C1381 0.930 . S
H1394 C1382 0.956 . S
H1395 C1382 0.961 . S
H1396 C1382 0.961 . S
H1397 C1383 0.958 . S
H1398 C1383 0.961 . S
H1399 C1383 0.960 . S
C1400 C1401 1.391 . S
C1400 C1402 1.394 . S
C1400 H1416 0.931 . S
C1401 C1400 1.391 . S
C1401 C1405 1.376 . S
C1402 C1400 1.394 . S
C1402 C1403 1.369 1_455 S
C1402 C1406 1.531 1_455 S
C1403 C1402 1.369 1_655 S
C1403 C1404 1.410 1_655 S
C1403 C1411 1.503 . S
C1404 C1403 1.410 1_455 S
C1404 C1405 1.392 . S
C1404 C1407 1.511 1_455 S
C1405 C1401 1.376 . S
C1405 C1404 1.392 . S
C1405 H1417 0.929 . S
C1406 C1402 1.531 1_655 S
C1406 H1418 0.960 . S
C1406 H1419 0.962 . S
C1406 H1420 0.960 . S
C1407 C1404 1.511 1_655 S
C1407 H1421 0.961 1_655 S
C1407 H1422 0.961 . S
C1407 H1423 0.961 . S
C1408 C1409 1.370 . S
C1408 C1410 1.363 . S
C1408 H1424 0.931 . S
C1409 C1408 1.370 . S
C1409 C1413 1.408 . S
C1410 C1408 1.363 . S
C1410 C1411 1.370 . S
C1410 C1414 1.524 . S
C1411 C1403 1.503 . S
C1411 C1410 1.370 . S
C1411 C1412 1.403 . S
C1412 C1411 1.403 . S
C1412 C1413 1.404 . S
C1412 C1415 1.539 . S
C1413 C1409 1.408 . S
C1413 C1412 1.404 . S
C1413 H1425 0.930 . S
C1414 C1410 1.524 . S
C1414 H1426 0.956 . S
C1414 H1427 0.961 . S
C1414 H1428 0.961 . S
C1415 C1412 1.539 . S
C1415 H1429 0.958 . S
C1415 H1430 0.961 . S
C1415 H1431 0.960 . S
H1416 C1400 0.931 . S
H1417 C1405 0.929 . S
H1418 C1406 0.960 . S
H1419 C1406 0.962 . S
H1420 C1406 0.960 . S
H1421 C1407 0.961 1_455 S
H1422 C1407 0.961 . S
H1423 C1407 0.961 . S
H1424 C1408 0.931 . S
H1425 C1413 0.930 . S
H1426 C1414 0.956 . S
H1427 C1414 0.961 . S
H1428 C1414 0.961 . S
H1429 C1415 0.958 . S
H1430 C1415 0.961 . S
H1431 C1415 0.960 . S
C1432 C1433 1.391 . S
C1432 C1434 1.394 . S
C1432 H1448 0.931 . S
C1433 C1432 1.391 . S
C1433 C1437 1.376 . S
C1434 C1432 1.394 . S
C1434 C1435 1.369 1_556 S
C1434 C1438 1.531 1_556 S
C1435 C1434 1.369 1_554 S
C1435 C1436 1.410 1_554 S
C1435 C1443 1.503 . S
C1436 C1435 1.410 1_556 S
C1436 C1437 1.392 . S
C1436 C1439 1.529 . S
C1437 C1433 1.376 . S
C1437 C1436 1.392 . S
C1437 H1449 0.929 . S
C1438 C1434 1.531 1_554 S
C1438 H1450 0.960 . S
C1438 H1451 0.962 . S
C1438 H1452 0.960 . S
C1439 C1436 1.529 . S
C1439 H1453 0.996 . S
C1439 H1454 0.921 1_556 S
C1439 H1455 0.951 1_556 S
C1440 C1441 1.370 . S
C1440 C1442 1.363 . S
C1440 H1456 0.931 . S
C1441 C1440 1.370 . S
C1441 C1445 1.408 . S
C1442 C1440 1.363 . S
C1442 C1443 1.370 . S
C1442 C1446 1.524 . S
C1443 C1435 1.503 . S
C1443 C1442 1.370 . S
C1443 C1444 1.403 . S
C1444 C1443 1.403 . S
C1444 C1445 1.404 . S
C1444 C1447 1.539 . S
C1445 C1441 1.408 . S
C1445 C1444 1.404 . S
C1445 H1457 0.930 . S
C1446 C1442 1.524 . S
C1446 H1458 0.956 . S
C1446 H1459 0.961 . S
C1446 H1460 0.961 . S
C1447 C1444 1.539 . S
C1447 H1461 0.958 . S
C1447 H1462 0.961 . S
C1447 H1463 0.960 . S
H1448 C1432 0.931 . S
H1449 C1437 0.929 . S
H1450 C1438 0.960 . S
H1451 C1438 0.962 . S
H1452 C1438 0.960 . S
H1453 C1439 0.996 . S
H1454 C1439 0.921 1_554 S
H1455 C1439 0.951 1_554 S
H1456 C1440 0.931 . S
H1457 C1445 0.930 . S
H1458 C1446 0.956 . S
H1459 C1446 0.961 . S
H1460 C1446 0.961 . S
H1461 C1447 0.958 . S
H1462 C1447 0.961 . S
H1463 C1447 0.960 . S
C1464 C1465 1.391 . S
C1464 C1466 1.394 . S
C1464 H1480 0.931 . S
C1465 C1464 1.391 . S
C1465 C1469 1.376 . S
C1466 C1464 1.394 . S
C1466 C1467 1.369 . S
C1466 C1470 1.531 . S
C1467 C1466 1.369 . S
C1467 C1468 1.410 . S
C1467 C1475 1.503 . S
C1468 C1467 1.410 . S
C1468 C1469 1.392 . S
C1468 C1471 1.511 . S
C1469 C1465 1.376 . S
C1469 C1468 1.392 . S
C1469 H1481 0.929 . S
C1470 C1466 1.531 . S
C1470 H1482 0.960 . S
C1470 H1483 0.962 . S
C1470 H1484 0.960 . S
C1471 C1468 1.511 . S
C1471 H1485 0.961 . S
C1471 H1486 0.961 . S
C1471 H1487 0.961 . S
C1472 C1473 1.370 . S
C1472 C1474 1.363 . S
C1472 H1488 0.931 . S
C1473 C1472 1.370 . S
C1473 C1477 1.408 . S
C1474 C1472 1.363 . S
C1474 C1475 1.370 1_556 S
C1474 C1478 1.524 1_556 S
C1475 C1467 1.503 . S
C1475 C1474 1.370 1_554 S
C1475 C1476 1.403 1_554 S
C1476 C1475 1.403 1_556 S
C1476 C1477 1.404 . S
C1476 C1479 1.539 1_556 S
C1477 C1473 1.408 . S
C1477 C1476 1.404 . S
C1477 H1489 0.930 . S
C1478 C1474 1.524 1_554 S
C1478 H1490 0.956 . S
C1478 H1491 0.961 . S
C1478 H1492 0.961 1_554 S
C1479 C1476 1.539 1_554 S
C1479 H1493 0.958 . S
C1479 H1494 0.961 1_554 S
C1479 H1495 0.960 . S
H1480 C1464 0.931 . S
H1481 C1469 0.929 . S
H1482 C1470 0.960 . S
H1483 C1470 0.962 . S
H1484 C1470 0.960 . S
H1485 C1471 0.961 . S
H1486 C1471 0.961 . S
H1487 C1471 0.961 . S
H1488 C1472 0.931 . S
H1489 C1477 0.930 . S
H1490 C1478 0.956 . S
H1491 C1478 0.961 . S
H1492 C1478 0.961 1_556 S
H1493 C1479 0.958 . S
H1494 C1479 0.961 1_556 S
H1495 C1479 0.960 . S
C1496 C1497 1.391 . S
C1496 C1498 1.394 . S
C1496 H1512 0.931 . S
C1497 C1496 1.391 . S
C1497 C1501 1.376 . S
C1498 C1496 1.394 . S
C1498 C1499 1.369 1_556 S
C1498 C1502 1.531 1_556 S
C1499 C1498 1.369 1_554 S
C1499 C1500 1.410 1_554 S
C1499 C1507 1.503 . S
C1500 C1499 1.410 1_556 S
C1500 C1501 1.392 . S
C1500 C1503 1.511 . S
C1501 C1497 1.376 . S
C1501 C1500 1.392 . S
C1501 H1513 0.929 . S
C1502 C1498 1.531 1_554 S
C1502 H1514 0.960 . S
C1502 H1515 0.962 . S
C1502 H1516 0.960 . S
C1503 C1500 1.511 . S
C1503 H1517 0.961 . S
C1503 H1518 0.961 1_556 S
C1503 H1519 0.961 . S
C1504 C1505 1.370 . S
C1504 C1506 1.363 . S
C1504 H1520 0.931 . S
C1505 C1504 1.370 . S
C1505 C1509 1.408 . S
C1506 C1504 1.363 . S
C1506 C1507 1.370 . S
C1506 C1510 1.524 . S
C1507 C1499 1.503 . S
C1507 C1506 1.370 . S
C1507 C1508 1.403 . S
C1508 C1507 1.403 . S
C1508 C1509 1.404 . S
C1508 C1511 1.539 . S
C1509 C1505 1.408 . S
C1509 C1508 1.404 . S
C1509 H1521 0.930 . S
C1510 C1506 1.524 . S
C1510 H1522 0.956 . S
C1510 H1523 0.961 . S
C1510 H1524 0.961 . S
C1511 C1508 1.539 . S
C1511 H1525 0.958 . S
C1511 H1526 0.961 . S
C1511 H1527 0.960 . S
H1512 C1496 0.931 . S
H1513 C1501 0.929 . S
H1514 C1502 0.960 . S
H1515 C1502 0.962 . S
H1516 C1502 0.960 . S
H1517 C1503 0.961 . S
H1518 C1503 0.961 1_554 S
H1519 C1503 0.961 . S
H1520 C1504 0.931 . S
H1521 C1509 0.930 . S
H1522 C1510 0.956 . S
H1523 C1510 0.961 . S
H1524 C1510 0.961 . S
H1525 C1511 0.958 . S
H1526 C1511 0.961 . S
H1527 C1511 0.960 . S
C1528 C1529 1.391 . S
C1528 C1530 1.394 . S
C1528 H1544 0.931 . S
C1529 C1528 1.391 . S
C1529 C1533 1.376 . S
C1530 C1528 1.394 . S
C1530 C1531 1.369 . S
C1530 C1534 1.531 . S
C1531 C1530 1.369 . S
C1531 C1532 1.410 . S
C1531 C1539 1.503 . S
C1532 C1531 1.410 . S
C1532 C1533 1.392 . S
C1532 C1535 1.511 . S
C1533 C1529 1.376 . S
C1533 C1532 1.392 . S
C1533 H1545 0.929 . S
C1534 C1530 1.531 . S
C1534 H1546 0.960 . S
C1534 H1547 0.962 . S
C1534 H1548 0.960 . S
C1535 C1532 1.511 . S
C1535 H1549 0.961 . S
C1535 H1550 0.961 . S
C1535 H1551 0.961 . S
C1536 C1537 1.370 . S
C1536 C1538 1.363 . S
C1536 H1552 0.931 . S
C1537 C1536 1.370 . S
C1537 C1541 1.408 . S
C1538 C1536 1.363 . S
C1538 C1539 1.370 1_556 S
C1538 C1542 1.526 . S
C1539 C1531 1.503 . S
C1539 C1538 1.370 1_554 S
C1539 C1540 1.403 1_554 S
C1540 C1539 1.403 1_556 S
C1540 C1541 1.404 . S
C1540 C1543 1.539 1_556 S
C1541 C1537 1.408 . S
C1541 C1540 1.404 . S
C1541 H1553 0.930 . S
C1542 C1538 1.526 . S
C1542 H1554 0.953 1_556 S
C1542 H1555 0.958 1_556 S
C1542 H1556 0.964 . S
C1543 C1540 1.539 1_554 S
C1543 H1557 0.958 . S
C1543 H1558 0.961 . S
C1543 H1559 0.960 . S
H1544 C1528 0.931 . S
H1545 C1533 0.929 . S
H1546 C1534 0.960 . S
H1547 C1534 0.962 . S
H1548 C1534 0.960 . S
H1549 C1535 0.961 . S
H1550 C1535 0.961 . S
H1551 C1535 0.961 . S
H1552 C1536 0.931 . S
H1553 C1541 0.930 . S
H1554 C1542 0.953 1_554 S
H1555 C1542 0.958 1_554 S
H1556 C1542 0.964 . S
H1557 C1543 0.958 . S
H1558 C1543 0.961 . S
H1559 C1543 0.960 . S
C1560 C1561 1.391 . S
C1560 C1562 1.394 . S
C1560 H1576 0.931 . S
C1561 C1560 1.391 . S
C1561 C1565 1.376 . S
C1562 C1560 1.394 . S
C1562 C1563 1.369 1_554 S
C1562 C1566 1.531 1_554 S
C1563 C1562 1.369 1_556 S
C1563 C1564 1.410 1_556 S
C1563 C1571 1.503 . S
C1564 C1563 1.410 1_554 S
C1564 C1565 1.392 . S
C1564 C1567 1.511 1_554 S
C1565 C1561 1.376 . S
C1565 C1564 1.392 . S
C1565 H1577 0.929 . S
C1566 C1562 1.531 1_556 S
C1566 H1578 0.960 . S
C1566 H1579 0.962 . S
C1566 H1580 0.960 1_556 S
C1567 C1564 1.511 1_556 S
C1567 H1581 0.976 . S
C1567 H1582 0.961 . S
C1567 H1583 0.961 . S
C1568 C1569 1.370 . S
C1568 C1570 1.363 . S
C1568 H1584 0.931 . S
C1569 C1568 1.370 . S
C1569 C1573 1.408 . S
C1570 C1568 1.363 . S
C1570 C1571 1.370 . S
C1570 C1574 1.524 . S
C1571 C1563 1.503 . S
C1571 C1570 1.370 . S
C1571 C1572 1.403 . S
C1572 C1571 1.403 . S
C1572 C1573 1.404 . S
C1572 C1575 1.539 . S
C1573 C1569 1.408 . S
C1573 C1572 1.404 . S
C1573 H1585 0.930 . S
C1574 C1570 1.524 . S
C1574 H1586 0.956 . S
C1574 H1587 0.961 . S
C1574 H1588 0.961 . S
C1575 C1572 1.539 . S
C1575 H1589 0.958 . S
C1575 H1590 0.961 . S
C1575 H1591 0.960 . S
H1576 C1560 0.931 . S
H1577 C1565 0.929 . S
H1578 C1566 0.960 . S
H1579 C1566 0.962 . S
H1580 C1566 0.960 1_554 S
H1581 C1567 0.976 . S
H1582 C1567 0.961 . S
H1583 C1567 0.961 . S
H1584 C1568 0.931 . S
H1585 C1573 0.930 . S
H1586 C1574 0.956 . S
H1587 C1574 0.961 . S
H1588 C1574 0.961 . S
H1589 C1575 0.958 . S
H1590 C1575 0.961 . S
H1591 C1575 0.960 . S
C1592 C1593 1.391 . S
C1592 C1594 1.394 . S
C1592 H1608 0.931 . S
C1593 C1592 1.391 . S
C1593 C1597 1.376 . S
C1594 C1592 1.394 . S
C1594 C1595 1.369 . S
C1594 C1598 1.531 . S
C1595 C1594 1.369 . S
C1595 C1596 1.410 . S
C1595 C1603 1.503 . S
C1596 C1595 1.410 . S
C1596 C1597 1.392 . S
C1596 C1599 1.511 . S
C1597 C1593 1.376 . S
C1597 C1596 1.392 . S
C1597 H1609 0.929 . S
C1598 C1594 1.531 . S
C1598 H1610 0.960 . S
C1598 H1611 0.962 . S
C1598 H1612 0.960 . S
C1599 C1596 1.511 . S
C1599 H1613 0.961 . S
C1599 H1614 0.961 . S
C1599 H1615 0.961 . S
C1600 C1601 1.370 . S
C1600 C1602 1.363 . S
C1600 H1616 0.931 . S
C1601 C1600 1.370 . S
C1601 C1605 1.408 . S
C1602 C1600 1.363 . S
C1602 C1603 1.370 1_554 S
C1602 C1606 1.524 1_554 S
C1603 C1595 1.503 . S
C1603 C1602 1.370 1_556 S
C1603 C1604 1.403 1_556 S
C1604 C1603 1.403 1_554 S
C1604 C1605 1.404 . S
C1604 C1607 1.539 . S
C1605 C1601 1.408 . S
C1605 C1604 1.404 . S
C1605 H1617 0.930 . S
C1606 C1602 1.524 1_556 S
C1606 H1618 0.956 . S
C1606 H1619 0.961 . S
C1606 H1620 0.961 . S
C1607 C1604 1.539 . S
C1607 H1621 0.958 . S
C1607 H1622 0.961 . S
C1607 H1623 0.960 1_554 S
H1608 C1592 0.931 . S
H1609 C1597 0.929 . S
H1610 C1598 0.960 . S
H1611 C1598 0.962 . S
H1612 C1598 0.960 . S
H1613 C1599 0.961 . S
H1614 C1599 0.961 . S
H1615 C1599 0.961 . S
H1616 C1600 0.931 . S
H1617 C1605 0.930 . S
H1618 C1606 0.956 . S
H1619 C1606 0.961 . S
H1620 C1606 0.961 . S
H1621 C1607 0.958 . S
H1622 C1607 0.961 . S
H1623 C1607 0.960 1_556 S
C1624 C1625 1.391 . S
C1624 C1626 1.394 . S
C1624 H1640 0.931 . S
C1625 C1624 1.391 . S
C1625 C1629 1.376 . S
C1626 C1624 1.394 . S
C1626 C1627 1.369 1_554 S
C1626 C1630 1.531 1_554 S
C1627 C1626 1.369 1_556 S
C1627 C1628 1.410 1_556 S
C1627 C1635 1.503 . S
C1628 C1627 1.410 1_554 S
C1628 C1629 1.392 . S
C1628 C1631 1.500 1_554 S
C1629 C1625 1.376 . S
C1629 C1628 1.392 . S
C1629 H1641 0.929 . S
C1630 C1626 1.531 1_556 S
C1630 H1642 0.960 . S
C1630 H1643 0.962 . S
C1630 H1644 0.960 1_556 S
C1631 C1628 1.500 1_556 S
C1631 H1645 0.947 1_556 S
C1631 H1646 0.988 . S
C1631 H1647 0.958 1_556 S
C1632 C1633 1.370 . S
C1632 C1634 1.363 . S
C1632 H1648 0.931 . S
C1633 C1632 1.370 . S
C1633 C1637 1.408 . S
C1634 C1632 1.363 . S
C1634 C1635 1.370 . S
C1634 C1638 1.524 . S
C1635 C1627 1.503 . S
C1635 C1634 1.370 . S
C1635 C1636 1.403 . S
C1636 C1635 1.403 . S
C1636 C1637 1.404 . S
C1636 C1639 1.539 . S
C1637 C1633 1.408 . S
C1637 C1636 1.404 . S
C1637 H1649 0.930 . S
C1638 C1634 1.524 . S
C1638 H1650 0.956 . S
C1638 H1651 0.961 . S
C1638 H1652 0.961 . S
C1639 C1636 1.539 . S
C1639 H1653 0.958 . S
C1639 H1654 0.961 . S
C1639 H1655 0.960 . S
H1640 C1624 0.931 . S
H1641 C1629 0.929 . S
H1642 C1630 0.960 . S
H1643 C1630 0.962 . S
H1644 C1630 0.960 1_554 S
H1645 C1631 0.947 1_554 S
H1646 C1631 0.988 . S
H1647 C1631 0.958 1_554 S
H1648 C1632 0.931 . S
H1649 C1637 0.930 . S
H1650 C1638 0.956 . S
H1651 C1638 0.961 . S
H1652 C1638 0.961 . S
H1653 C1639 0.958 . S
H1654 C1639 0.961 . S
H1655 C1639 0.960 . S
C1656 C1657 1.391 . S
C1656 C1658 1.394 . S
C1656 H1672 0.931 . S
C1657 C1656 1.391 . S
C1657 C1661 1.376 . S
C1658 C1656 1.394 . S
C1658 C1659 1.369 . S
C1658 C1662 1.531 . S
C1659 C1658 1.369 . S
C1659 C1660 1.410 . S
C1659 C1667 1.503 . S
C1660 C1659 1.410 . S
C1660 C1661 1.392 . S
C1660 C1663 1.511 . S
C1661 C1657 1.376 . S
C1661 C1660 1.392 . S
C1661 H1673 0.929 . S
C1662 C1658 1.531 . S
C1662 H1674 0.960 . S
C1662 H1675 0.962 . S
C1662 H1676 0.960 . S
C1663 C1660 1.511 . S
C1663 H1677 0.961 . S
C1663 H1678 0.961 . S
C1663 H1679 0.961 . S
C1664 C1665 1.370 . S
C1664 C1666 1.363 . S
C1664 H1680 0.931 . S
C1665 C1664 1.370 . S
C1665 C1669 1.408 . S
C1666 C1664 1.363 . S
C1666 C1667 1.370 1_554 S
C1666 C1670 1.524 1_554 S
C1667 C1659 1.503 . S
C1667 C1666 1.370 1_556 S
C1667 C1668 1.403 1_556 S
C1668 C1667 1.403 1_554 S
C1668 C1669 1.404 . S
C1668 C1671 1.539 . S
C1669 C1665 1.408 . S
C1669 C1668 1.404 . S
C1669 H1681 0.930 . S
C1670 C1666 1.524 1_556 S
C1670 H1682 0.956 . S
C1670 H1683 0.961 . S
C1670 H1684 0.961 . S
C1671 C1668 1.539 . S
C1671 H1685 0.958 . S
C1671 H1686 0.961 . S
C1671 H1687 0.960 1_554 S
H1672 C1656 0.931 . S
H1673 C1661 0.929 . S
H1674 C1662 0.960 . S
H1675 C1662 0.962 . S
H1676 C1662 0.960 . S
H1677 C1663 0.961 . S
H1678 C1663 0.961 . S
H1679 C1663 0.961 . S
H1680 C1664 0.931 . S
H1681 C1669 0.930 . S
H1682 C1670 0.956 . S
H1683 C1670 0.961 . S
H1684 C1670 0.961 . S
H1685 C1671 0.958 . S
H1686 C1671 0.961 . S
H1687 C1671 0.960 1_556 S
C1688 C1689 1.391 . S
C1688 C1690 1.394 . S
C1688 H1704 0.931 . S
C1689 C1688 1.391 . S
C1689 C1693 1.376 . S
C1690 C1688 1.394 . S
C1690 C1691 1.369 1_655 S
C1690 C1694 1.531 1_655 S
C1691 C1690 1.369 1_455 S
C1691 C1692 1.410 1_455 S
C1691 C1699 1.503 . S
C1692 C1691 1.410 1_655 S
C1692 C1693 1.392 . S
C1692 C1695 1.512 . S
C1693 C1689 1.376 . S
C1693 C1692 1.392 . S
C1693 H1705 0.929 . S
C1694 C1690 1.531 1_455 S
C1694 H1706 0.960 . S
C1694 H1707 0.962 . S
C1694 H1708 0.960 . S
C1695 C1692 1.512 . S
C1695 H1709 0.961 . S
C1695 H1710 0.960 1_655 S
C1695 H1711 0.960 1_655 S
C1696 C1697 1.370 . S
C1696 C1698 1.363 . S
C1696 H1712 0.931 . S
C1697 C1696 1.370 . S
C1697 C1701 1.408 . S
C1698 C1696 1.363 . S
C1698 C1699 1.370 . S
C1698 C1702 1.524 . S
C1699 C1691 1.503 . S
C1699 C1698 1.370 . S
C1699 C1700 1.403 . S
C1700 C1699 1.403 . S
C1700 C1701 1.404 . S
C1700 C1703 1.539 . S
C1701 C1697 1.408 . S
C1701 C1700 1.404 . S
C1701 H1713 0.930 . S
C1702 C1698 1.524 . S
C1702 H1714 0.956 . S
C1702 H1715 0.961 . S
C1702 H1716 0.961 . S
C1703 C1700 1.539 . S
C1703 H1717 0.958 . S
C1703 H1718 0.961 . S
C1703 H1719 0.960 . S
H1704 C1688 0.931 . S
H1705 C1693 0.929 . S
H1706 C1694 0.960 . S
H1707 C1694 0.962 . S
H1708 C1694 0.960 . S
H1709 C1695 0.961 . S
H1710 C1695 0.960 1_455 S
H1711 C1695 0.960 1_455 S
H1712 C1696 0.931 . S
H1713 C1701 0.930 . S
H1714 C1702 0.956 . S
H1715 C1702 0.961 . S
H1716 C1702 0.961 . S
H1717 C1703 0.958 . S
H1718 C1703 0.961 . S
H1719 C1703 0.960 . S
C1720 C1721 1.391 . S
C1720 C1722 1.394 . S
C1720 H1736 0.931 . S
C1721 C1720 1.391 . S
C1721 C1725 1.376 . S
C1722 C1720 1.394 . S
C1722 C1723 1.369 1_655 S
C1722 C1726 1.531 1_655 S
C1723 C1722 1.369 1_455 S
C1723 C1724 1.410 1_455 S
C1723 C1731 1.503 . S
C1724 C1723 1.410 1_655 S
C1724 C1725 1.392 . S
C1724 C1727 1.511 . S
C1725 C1721 1.376 . S
C1725 C1724 1.392 . S
C1725 H1737 0.929 . S
C1726 C1722 1.531 1_455 S
C1726 H1738 0.960 . S
C1726 H1739 0.962 . S
C1726 H1740 0.960 . S
C1727 C1724 1.511 . S
C1727 H1741 0.961 . S
C1727 H1742 0.961 1_655 S
C1727 H1743 0.961 . S
C1728 C1729 1.370 . S
C1728 C1730 1.363 . S
C1728 H1744 0.931 . S
C1729 C1728 1.370 . S
C1729 C1733 1.408 . S
C1730 C1728 1.363 . S
C1730 C1731 1.370 . S
C1730 C1734 1.524 . S
C1731 C1723 1.503 . S
C1731 C1730 1.370 . S
C1731 C1732 1.403 . S
C1732 C1731 1.403 . S
C1732 C1733 1.404 . S
C1732 C1735 1.539 . S
C1733 C1729 1.408 . S
C1733 C1732 1.404 . S
C1733 H1745 0.930 . S
C1734 C1730 1.524 . S
C1734 H1746 0.956 . S
C1734 H1747 0.961 . S
C1734 H1748 0.961 . S
C1735 C1732 1.539 . S
C1735 H1749 0.958 . S
C1735 H1750 0.961 . S
C1735 H1751 0.960 . S
H1736 C1720 0.931 . S
H1737 C1725 0.929 . S
H1738 C1726 0.960 . S
H1739 C1726 0.962 . S
H1740 C1726 0.960 . S
H1741 C1727 0.961 . S
H1742 C1727 0.961 1_455 S
H1743 C1727 0.961 . S
H1744 C1728 0.931 . S
H1745 C1733 0.930 . S
H1746 C1734 0.956 . S
H1747 C1734 0.961 . S
H1748 C1734 0.961 . S
H1749 C1735 0.958 . S
H1750 C1735 0.961 . S
H1751 C1735 0.960 . S
C1752 C1753 1.391 . S
C1752 C1754 1.394 . S
C1752 H1768 0.931 . S
C1753 C1752 1.391 . S
C1753 C1757 1.376 . S
C1754 C1752 1.394 . S
C1754 C1755 1.369 . S
C1754 C1758 1.531 . S
C1755 C1754 1.369 . S
C1755 C1756 1.410 . S
C1755 C1763 1.503 . S
C1756 C1755 1.410 . S
C1756 C1757 1.392 . S
C1756 C1759 1.511 . S
C1757 C1753 1.376 . S
C1757 C1756 1.392 . S
C1757 H1769 0.929 . S
C1758 C1754 1.531 . S
C1758 H1770 0.960 . S
C1758 H1771 0.962 . S
C1758 H1772 0.960 . S
C1759 C1756 1.511 . S
C1759 H1773 0.961 . S
C1759 H1774 0.961 . S
C1759 H1775 0.961 . S
C1760 C1761 1.370 . S
C1760 C1762 1.363 . S
C1760 H1776 0.931 . S
C1761 C1760 1.370 . S
C1761 C1765 1.408 . S
C1762 C1760 1.363 . S
C1762 C1763 1.370 1_565 S
C1762 C1766 1.530 . S
C1763 C1755 1.503 . S
C1763 C1762 1.370 1_545 S
C1763 C1764 1.403 1_545 S
C1764 C1763 1.403 1_565 S
C1764 C1765 1.404 . S
C1764 C1767 1.539 1_565 S
C1765 C1761 1.408 . S
C1765 C1764 1.404 . S
C1765 H1777 0.930 . S
C1766 C1762 1.530 . S
C1766 H1778 0.948 1_565 S
C1766 H1779 0.951 1_565 S
C1766 H1780 0.972 . S
C1767 C1764 1.539 1_545 S
C1767 H1781 0.958 . S
C1767 H1782 0.961 . S
C1767 H1783 0.960 . S
H1768 C1752 0.931 . S
H1769 C1757 0.929 . S
H1770 C1758 0.960 . S
H1771 C1758 0.962 . S
H1772 C1758 0.960 . S
H1773 C1759 0.961 . S
H1774 C1759 0.961 . S
H1775 C1759 0.961 . S
H1776 C1760 0.931 . S
H1777 C1765 0.930 . S
H1778 C1766 0.948 1_545 S
H1779 C1766 0.951 1_545 S
H1780 C1766 0.972 . S
H1781 C1767 0.958 . S
H1782 C1767 0.961 . S
H1783 C1767 0.960 . S
C1784 C1785 1.391 . S
C1784 C1786 1.394 . S
C1784 H1800 0.931 . S
C1785 C1784 1.391 . S
C1785 C1789 1.376 . S
C1786 C1784 1.394 . S
C1786 C1787 1.369 . S
C1786 C1790 1.531 . S
C1787 C1786 1.369 . S
C1787 C1788 1.410 . S
C1787 C1795 1.503 . S
C1788 C1787 1.410 . S
C1788 C1789 1.392 . S
C1788 C1791 1.511 . S
C1789 C1785 1.376 . S
C1789 C1788 1.392 . S
C1789 H1801 0.929 . S
C1790 C1786 1.531 . S
C1790 H1802 0.960 . S
C1790 H1803 0.962 . S
C1790 H1804 0.960 . S
C1791 C1788 1.511 . S
C1791 H1805 0.961 . S
C1791 H1806 0.961 . S
C1791 H1807 0.961 . S
C1792 C1793 1.370 . S
C1792 C1794 1.363 . S
C1792 H1808 0.931 . S
C1793 C1792 1.370 . S
C1793 C1797 1.408 . S
C1794 C1792 1.363 . S
C1794 C1795 1.370 1_455 S
C1794 C1798 1.524 1_455 S
C1795 C1787 1.503 . S
C1795 C1794 1.370 1_655 S
C1795 C1796 1.403 1_655 S
C1796 C1795 1.403 1_455 S
C1796 C1797 1.404 . S
C1796 C1799 1.539 . S
C1797 C1793 1.408 . S
C1797 C1796 1.404 . S
C1797 H1809 0.930 . S
C1798 C1794 1.524 1_655 S
C1798 H1810 0.956 . S
C1798 H1811 0.961 . S
C1798 H1812 0.961 . S
C1799 C1796 1.539 . S
C1799 H1813 0.958 . S
C1799 H1814 0.961 . S
C1799 H1815 0.960 1_455 S
H1800 C1784 0.931 . S
H1801 C1789 0.929 . S
H1802 C1790 0.960 . S
H1803 C1790 0.962 . S
H1804 C1790 0.960 . S
H1805 C1791 0.961 . S
H1806 C1791 0.961 . S
H1807 C1791 0.961 . S
H1808 C1792 0.931 . S
H1809 C1797 0.930 . S
H1810 C1798 0.956 . S
H1811 C1798 0.961 . S
H1812 C1798 0.961 . S
H1813 C1799 0.958 . S
H1814 C1799 0.961 . S
H1815 C1799 0.960 1_655 S
C1816 C1817 1.391 . S
C1816 C1818 1.394 . S
C1816 H1832 0.931 . S
C1817 C1816 1.391 . S
C1817 C1821 1.376 . S
C1818 C1816 1.394 . S
C1818 C1819 1.369 1_545 S
C1818 C1822 1.531 1_545 S
C1819 C1818 1.369 1_565 S
C1819 C1820 1.410 1_565 S
C1819 C1827 1.503 . S
C1820 C1819 1.410 1_545 S
C1820 C1821 1.392 . S
C1820 C1823 1.511 . S
C1821 C1817 1.376 . S
C1821 C1820 1.392 . S
C1821 H1833 0.929 . S
C1822 C1818 1.531 1_565 S
C1822 H1834 0.960 . S
C1822 H1835 0.962 . S
C1822 H1836 0.960 . S
C1823 C1820 1.511 . S
C1823 H1837 0.961 . S
C1823 H1838 0.961 1_545 S
C1823 H1839 0.961 . S
C1824 C1825 1.370 . S
C1824 C1826 1.363 . S
C1824 H1840 0.931 . S
C1825 C1824 1.370 . S
C1825 C1829 1.408 . S
C1826 C1824 1.363 . S
C1826 C1827 1.370 . S
C1826 C1830 1.524 . S
C1827 C1819 1.503 . S
C1827 C1826 1.370 . S
C1827 C1828 1.403 . S
C1828 C1827 1.403 . S
C1828 C1829 1.404 . S
C1828 C1831 1.539 . S
C1829 C1825 1.408 . S
C1829 C1828 1.404 . S
C1829 H1841 0.930 . S
C1830 C1826 1.524 . S
C1830 H1842 0.956 . S
C1830 H1843 0.961 . S
C1830 H1844 0.961 . S
C1831 C1828 1.539 . S
C1831 H1845 0.958 . S
C1831 H1846 0.961 . S
C1831 H1847 0.960 . S
H1832 C1816 0.931 . S
H1833 C1821 0.929 . S
H1834 C1822 0.960 . S
H1835 C1822 0.962 . S
H1836 C1822 0.960 . S
H1837 C1823 0.961 . S
H1838 C1823 0.961 1_565 S
H1839 C1823 0.961 . S
H1840 C1824 0.931 . S
H1841 C1829 0.930 . S
H1842 C1830 0.956 . S
H1843 C1830 0.961 . S
H1844 C1830 0.961 . S
H1845 C1831 0.958 . S
H1846 C1831 0.961 . S
H1847 C1831 0.960 . S
C1848 C1849 1.391 . S
C1848 C1850 1.394 . S
C1848 H1864 0.931 . S
C1849 C1848 1.391 . S
C1849 C1853 1.376 . S
C1850 C1848 1.394 . S
C1850 C1851 1.369 1_455 S
C1850 C1854 1.531 1_455 S
C1851 C1850 1.369 1_655 S
C1851 C1852 1.410 1_655 S
C1851 C1859 1.503 . S
C1852 C1851 1.410 1_455 S
C1852 C1853 1.392 . S
C1852 C1855 1.511 . S
C1853 C1849 1.376 . S
C1853 C1852 1.392 . S
C1853 H1865 0.929 . S
C1854 C1850 1.531 1_655 S
C1854 H1866 0.960 . S
C1854 H1867 0.962 . S
C1854 H1868 0.960 . S
C1855 C1852 1.511 . S
C1855 H1869 0.961 . S
C1855 H1870 0.961 1_455 S
C1855 H1871 0.961 . S
C1856 C1857 1.370 . S
C1856 C1858 1.363 . S
C1856 H1872 0.931 . S
C1857 C1856 1.370 . S
C1857 C1861 1.408 . S
C1858 C1856 1.363 . S
C1858 C1859 1.370 . S
C1858 C1862 1.524 . S
C1859 C1851 1.503 . S
C1859 C1858 1.370 . S
C1859 C1860 1.403 . S
C1860 C1859 1.403 . S
C1860 C1861 1.404 . S
C1860 C1863 1.539 . S
C1861 C1857 1.408 . S
C1861 C1860 1.404 . S
C1861 H1873 0.930 . S
C1862 C1858 1.524 . S
C1862 H1874 0.956 . S
C1862 H1875 0.961 . S
C1862 H1876 0.961 . S
C1863 C1860 1.539 . S
C1863 H1877 0.958 . S
C1863 H1878 0.961 . S
C1863 H1879 0.960 . S
H1864 C1848 0.931 . S
H1865 C1853 0.929 . S
H1866 C1854 0.960 . S
H1867 C1854 0.962 . S
H1868 C1854 0.960 . S
H1869 C1855 0.961 . S
H1870 C1855 0.961 1_655 S
H1871 C1855 0.961 . S
H1872 C1856 0.931 . S
H1873 C1861 0.930 . S
H1874 C1862 0.956 . S
H1875 C1862 0.961 . S
H1876 C1862 0.961 . S
H1877 C1863 0.958 . S
H1878 C1863 0.961 . S
H1879 C1863 0.960 . S
C1880 C1881 1.391 . S
C1880 C1882 1.394 . S
C1880 H1896 0.931 . S
C1881 C1880 1.391 . S
C1881 C1885 1.376 . S
C1882 C1880 1.394 . S
C1882 C1883 1.369 1_545 S
C1882 C1886 1.531 1_545 S
C1883 C1882 1.369 1_565 S
C1883 C1884 1.410 1_565 S
C1883 C1891 1.503 . S
C1884 C1883 1.410 1_545 S
C1884 C1885 1.392 . S
C1884 C1887 1.511 . S
C1885 C1881 1.376 . S
C1885 C1884 1.392 . S
C1885 H1897 0.929 . S
C1886 C1882 1.531 1_565 S
C1886 H1898 0.960 . S
C1886 H1899 0.962 . S
C1886 H1900 0.960 . S
C1887 C1884 1.511 . S
C1887 H1901 0.961 . S
C1887 H1902 0.961 1_545 S
C1887 H1903 0.961 . S
C1888 C1889 1.370 . S
C1888 C1890 1.363 . S
C1888 H1904 0.931 . S
C1889 C1888 1.370 . S
C1889 C1893 1.408 . S
C1890 C1888 1.363 . S
C1890 C1891 1.370 . S
C1890 C1894 1.524 . S
C1891 C1883 1.503 . S
C1891 C1890 1.370 . S
C1891 C1892 1.403 . S
C1892 C1891 1.403 . S
C1892 C1893 1.404 . S
C1892 C1895 1.539 . S
C1893 C1889 1.408 . S
C1893 C1892 1.404 . S
C1893 H1905 0.930 . S
C1894 C1890 1.524 . S
C1894 H1906 0.956 . S
C1894 H1907 0.961 . S
C1894 H1908 0.961 . S
C1895 C1892 1.539 . S
C1895 H1909 0.958 . S
C1895 H1910 0.961 . S
C1895 H1911 0.960 . S
H1896 C1880 0.931 . S
H1897 C1885 0.929 . S
H1898 C1886 0.960 . S
H1899 C1886 0.962 . S
H1900 C1886 0.960 . S
H1901 C1887 0.961 . S
H1902 C1887 0.961 1_565 S
H1903 C1887 0.961 . S
H1904 C1888 0.931 . S
H1905 C1893 0.930 . S
H1906 C1894 0.956 . S
H1907 C1894 0.961 . S
H1908 C1894 0.961 . S
H1909 C1895 0.958 . S
H1910 C1895 0.961 . S
H1911 C1895 0.960 . S
C1912 C1913 1.391 . S
C1912 C1914 1.394 . S
C1912 H1928 0.931 . S
C1913 C1912 1.391 . S
C1913 C1917 1.376 . S
C1914 C1912 1.394 . S
C1914 C1915 1.369 . S
C1914 C1918 1.531 . S
C1915 C1914 1.369 . S
C1915 C1916 1.410 . S
C1915 C1923 1.503 . S
C1916 C1915 1.410 . S
C1916 C1917 1.392 . S
C1916 C1919 1.511 . S
C1917 C1913 1.376 . S
C1917 C1916 1.392 . S
C1917 H1929 0.929 . S
C1918 C1914 1.531 . S
C1918 H1930 0.960 . S
C1918 H1931 0.962 . S
C1918 H1932 0.960 . S
C1919 C1916 1.511 . S
C1919 H1933 0.961 . S
C1919 H1934 0.961 . S
C1919 H1935 0.961 . S
C1920 C1921 1.370 . S
C1920 C1922 1.363 . S
C1920 H1936 0.931 . S
C1921 C1920 1.370 . S
C1921 C1925 1.408 . S
C1922 C1920 1.363 . S
C1922 C1923 1.370 1_565 S
C1922 C1926 1.524 1_565 S
C1923 C1915 1.503 . S
C1923 C1922 1.370 1_545 S
C1923 C1924 1.403 1_545 S
C1924 C1923 1.403 1_565 S
C1924 C1925 1.404 . S
C1924 C1927 1.539 1_565 S
C1925 C1921 1.408 . S
C1925 C1924 1.404 . S
C1925 H1937 0.930 . S
C1926 C1922 1.524 1_545 S
C1926 H1938 0.956 . S
C1926 H1939 0.960 . S
C1926 H1940 0.961 1_545 S
C1927 C1924 1.539 1_545 S
C1927 H1941 0.958 . S
C1927 H1942 0.961 . S
C1927 H1943 0.960 . S
H1928 C1912 0.931 . S
H1929 C1917 0.929 . S
H1930 C1918 0.960 . S
H1931 C1918 0.962 . S
H1932 C1918 0.960 . S
H1933 C1919 0.961 . S
H1934 C1919 0.961 . S
H1935 C1919 0.961 . S
H1936 C1920 0.931 . S
H1937 C1925 0.930 . S
H1938 C1926 0.956 . S
H1939 C1926 0.960 . S
H1940 C1926 0.961 1_565 S
H1941 C1927 0.958 . S
H1942 C1927 0.961 . S
H1943 C1927 0.960 . S
C1944 C1945 1.391 . S
C1944 C1946 1.394 . S
C1944 H1960 0.931 . S
C1945 C1944 1.391 . S
C1945 C1949 1.376 . S
C1946 C1944 1.394 . S
C1946 C1947 1.369 . S
C1946 C1950 1.531 . S
C1947 C1946 1.369 . S
C1947 C1948 1.410 . S
C1947 C1955 1.503 . S
C1948 C1947 1.410 . S
C1948 C1949 1.392 . S
C1948 C1951 1.511 . S
C1949 C1945 1.376 . S
C1949 C1948 1.392 . S
C1949 H1961 0.929 . S
C1950 C1946 1.531 . S
C1950 H1962 0.960 . S
C1950 H1963 0.962 . S
C1950 H1964 0.960 . S
C1951 C1948 1.511 . S
C1951 H1965 0.961 . S
C1951 H1966 0.961 . S
C1951 H1967 0.961 . S
C1952 C1953 1.370 . S
C1952 C1954 1.363 . S
C1952 H1968 0.931 . S
C1953 C1952 1.370 . S
C1953 C1957 1.408 . S
C1954 C1952 1.363 . S
C1954 C1955 1.370 . S
C1954 C1958 1.524 . S
C1955 C1947 1.503 . S
C1955 C1954 1.370 . S
C1955 C1956 1.403 . S
C1956 C1955 1.403 . S
C1956 C1957 1.404 . S
C1956 C1959 1.539 . S
C1957 C1953 1.408 . S
C1957 C1956 1.404 . S
C1957 H1969 0.930 . S
C1958 C1954 1.524 . S
C1958 H1970 0.956 . S
C1958 H1971 0.961 . S
C1958 H1972 0.961 . S
C1959 C1956 1.539 . S
C1959 H1973 0.958 . S
C1959 H1974 0.961 . S
C1959 H1975 0.960 . S
H1960 C1944 0.931 . S
H1961 C1949 0.929 . S
H1962 C1950 0.960 . S
H1963 C1950 0.962 . S
H1964 C1950 0.960 . S
H1965 C1951 0.961 . S
H1966 C1951 0.961 . S
H1967 C1951 0.961 . S
H1968 C1952 0.931 . S
H1969 C1957 0.930 . S
H1970 C1958 0.956 . S
H1971 C1958 0.961 . S
H1972 C1958 0.961 . S
H1973 C1959 0.958 . S
H1974 C1959 0.961 . S
H1975 C1959 0.960 . S
C1976 C1977 1.391 . S
C1976 C1978 1.394 . S
C1976 H1992 0.931 . S
C1977 C1976 1.391 . S
C1977 C1981 1.376 . S
C1978 C1976 1.394 . S
C1978 C1979 1.369 . S
C1978 C1982 1.531 . S
C1979 C1978 1.369 . S
C1979 C1980 1.410 . S
C1979 C1987 1.503 . S
C1980 C1979 1.410 . S
C1980 C1981 1.392 . S
C1980 C1983 1.511 . S
C1981 C1977 1.376 . S
C1981 C1980 1.392 . S
C1981 H1993 0.929 . S
C1982 C1978 1.531 . S
C1982 H1994 0.960 . S
C1982 H1995 0.962 . S
C1982 H1996 0.960 . S
C1983 C1980 1.511 . S
C1983 H1997 0.961 . S
C1983 H1998 0.961 . S
C1983 H1999 0.961 . S
C1984 C1985 1.370 . S
C1984 C1986 1.363 . S
C1984 H2000 0.931 . S
C1985 C1984 1.370 . S
C1985 C1989 1.408 . S
C1986 C1984 1.363 . S
C1986 C1987 1.370 . S
C1986 C1990 1.524 . S
C1987 C1979 1.503 . S
C1987 C1986 1.370 . S
C1987 C1988 1.403 . S
C1988 C1987 1.403 . S
C1988 C1989 1.404 . S
C1988 C1991 1.539 . S
C1989 C1985 1.408 . S
C1989 C1988 1.404 . S
C1989 H2001 0.930 . S
C1990 C1986 1.524 . S
C1990 H2002 0.956 . S
C1990 H2003 0.961 . S
C1990 H2004 0.961 . S
C1991 C1988 1.539 . S
C1991 H2005 0.958 . S
C1991 H2006 0.961 . S
C1991 H2007 0.960 . S
H1992 C1976 0.931 . S
H1993 C1981 0.929 . S
H1994 C1982 0.960 . S
H1995 C1982 0.962 . S
H1996 C1982 0.960 . S
H1997 C1983 0.961 . S
H1998 C1983 0.961 . S
H1999 C1983 0.961 . S
H2000 C1984 0.931 . S
H2001 C1989 0.930 . S
H2002 C1990 0.956 . S
H2003 C1990 0.961 . S
H2004 C1990 0.961 . S
H2005 C1991 0.958 . S
H2006 C1991 0.961 . S
H2007 C1991 0.960 . S
C2008 C2009 1.391 . S
C2008 C2010 1.394 . S
C2008 H2024 0.931 . S
C2009 C2008 1.391 . S
C2009 C2013 1.376 . S
C2010 C2008 1.394 . S
C2010 C2011 1.369 . S
C2010 C2014 1.531 . S
C2011 C2010 1.369 . S
C2011 C2012 1.410 . S
C2011 C2019 1.503 . S
C2012 C2011 1.410 . S
C2012 C2013 1.392 . S
C2012 C2015 1.511 . S
C2013 C2009 1.376 . S
C2013 C2012 1.392 . S
C2013 H2025 0.929 . S
C2014 C2010 1.531 . S
C2014 H2026 0.960 . S
C2014 H2027 0.962 . S
C2014 H2028 0.960 . S
C2015 C2012 1.511 . S
C2015 H2029 0.961 . S
C2015 H2030 0.961 . S
C2015 H2031 0.961 . S
C2016 C2017 1.370 . S
C2016 C2018 1.363 . S
C2016 H2032 0.931 . S
C2017 C2016 1.370 . S
C2017 C2021 1.408 . S
C2018 C2016 1.363 . S
C2018 C2019 1.370 . S
C2018 C2022 1.524 . S
C2019 C2011 1.503 . S
C2019 C2018 1.370 . S
C2019 C2020 1.403 . S
C2020 C2019 1.403 . S
C2020 C2021 1.404 . S
C2020 C2023 1.539 . S
C2021 C2017 1.408 . S
C2021 C2020 1.404 . S
C2021 H2033 0.930 . S
C2022 C2018 1.524 . S
C2022 H2034 0.956 . S
C2022 H2035 0.961 . S
C2022 H2036 0.961 . S
C2023 C2020 1.539 . S
C2023 H2037 0.958 . S
C2023 H2038 0.961 . S
C2023 H2039 0.960 . S
H2024 C2008 0.931 . S
H2025 C2013 0.929 . S
H2026 C2014 0.960 . S
H2027 C2014 0.962 . S
H2028 C2014 0.960 . S
H2029 C2015 0.961 . S
H2030 C2015 0.961 . S
H2031 C2015 0.961 . S
H2032 C2016 0.931 . S
H2033 C2021 0.930 . S
H2034 C2022 0.956 . S
H2035 C2022 0.961 . S
H2036 C2022 0.961 . S
H2037 C2023 0.958 . S
H2038 C2023 0.961 . S
H2039 C2023 0.960 . S
C2040 C2041 1.391 . S
C2040 C2042 1.394 . S
C2040 H2056 0.931 . S
C2041 C2040 1.391 . S
C2041 C2045 1.376 . S
C2042 C2040 1.394 . S
C2042 C2043 1.369 . S
C2042 C2046 1.531 . S
C2043 C2042 1.369 . S
C2043 C2044 1.410 . S
C2043 C2051 1.503 . S
C2044 C2043 1.410 . S
C2044 C2045 1.392 . S
C2044 C2047 1.511 . S
C2045 C2041 1.376 . S
C2045 C2044 1.392 . S
C2045 H2057 0.929 . S
C2046 C2042 1.531 . S
C2046 H2058 0.960 . S
C2046 H2059 0.962 . S
C2046 H2060 0.960 . S
C2047 C2044 1.511 . S
C2047 H2061 0.961 . S
C2047 H2062 0.961 . S
C2047 H2063 0.961 . S
C2048 C2049 1.370 . S
C2048 C2050 1.363 . S
C2048 H2064 0.931 . S
C2049 C2048 1.370 . S
C2049 C2053 1.408 . S
C2050 C2048 1.363 . S
C2050 C2051 1.370 . S
C2050 C2054 1.524 . S
C2051 C2043 1.503 . S
C2051 C2050 1.370 . S
C2051 C2052 1.403 . S
C2052 C2051 1.403 . S
C2052 C2053 1.404 . S
C2052 C2055 1.539 . S
C2053 C2049 1.408 . S
C2053 C2052 1.404 . S
C2053 H2065 0.930 . S
C2054 C2050 1.524 . S
C2054 H2066 0.956 . S
C2054 H2067 0.961 . S
C2054 H2068 0.961 . S
C2055 C2052 1.539 . S
C2055 H2069 0.958 . S
C2055 H2070 0.961 . S
C2055 H2071 0.960 . S
H2056 C2040 0.931 . S
H2057 C2045 0.929 . S
H2058 C2046 0.960 . S
H2059 C2046 0.962 . S
H2060 C2046 0.960 . S
H2061 C2047 0.961 . S
H2062 C2047 0.961 . S
H2063 C2047 0.961 . S
H2064 C2048 0.931 . S
H2065 C2053 0.930 . S
H2066 C2054 0.956 . S
H2067 C2054 0.961 . S
H2068 C2054 0.961 . S
H2069 C2055 0.958 . S
H2070 C2055 0.961 . S
H2071 C2055 0.960 . S
C2072 C2073 1.391 . S
C2072 C2074 1.394 . S
C2072 H2088 0.931 . S
C2073 C2072 1.391 . S
C2073 C2077 1.376 . S
C2074 C2072 1.394 . S
C2074 C2075 1.369 . S
C2074 C2078 1.531 . S
C2075 C2074 1.369 . S
C2075 C2076 1.410 . S
C2075 C2083 1.503 . S
C2076 C2075 1.410 . S
C2076 C2077 1.392 . S
C2076 C2079 1.511 . S
C2077 C2073 1.376 . S
C2077 C2076 1.392 . S
C2077 H2089 0.929 . S
C2078 C2074 1.531 . S
C2078 H2090 0.960 . S
C2078 H2091 0.962 . S
C2078 H2092 0.960 . S
C2079 C2076 1.511 . S
C2079 H2093 0.961 . S
C2079 H2094 0.961 . S
C2079 H2095 0.961 . S
C2080 C2081 1.370 . S
C2080 C2082 1.363 . S
C2080 H2096 0.931 . S
C2081 C2080 1.370 . S
C2081 C2085 1.408 . S
C2082 C2080 1.363 . S
C2082 C2083 1.370 . S
C2082 C2086 1.524 . S
C2083 C2075 1.503 . S
C2083 C2082 1.370 . S
C2083 C2084 1.403 . S
C2084 C2083 1.403 . S
C2084 C2085 1.404 . S
C2084 C2087 1.539 . S
C2085 C2081 1.408 . S
C2085 C2084 1.404 . S
C2085 H2097 0.930 . S
C2086 C2082 1.524 . S
C2086 H2098 0.956 . S
C2086 H2099 0.961 . S
C2086 H2100 0.961 . S
C2087 C2084 1.539 . S
C2087 H2101 0.958 . S
C2087 H2102 0.961 . S
C2087 H2103 0.960 . S
H2088 C2072 0.931 . S
H2089 C2077 0.929 . S
H2090 C2078 0.960 . S
H2091 C2078 0.962 . S
H2092 C2078 0.960 . S
H2093 C2079 0.961 . S
H2094 C2079 0.961 . S
H2095 C2079 0.961 . S
H2096 C2080 0.931 . S
H2097 C2085 0.930 . S
H2098 C2086 0.956 . S
H2099 C2086 0.961 . S
H2100 C2086 0.961 . S
H2101 C2087 0.958 . S
H2102 C2087 0.961 . S
H2103 C2087 0.960 . S
C2104 C2105 1.391 . S
C2104 C2106 1.394 . S
C2104 H2120 0.931 . S
C2105 C2104 1.391 . S
C2105 C2109 1.376 . S
C2106 C2104 1.394 . S
C2106 C2107 1.369 . S
C2106 C2110 1.531 . S
C2107 C2106 1.369 . S
C2107 C2108 1.410 . S
C2107 C2115 1.503 . S
C2108 C2107 1.410 . S
C2108 C2109 1.392 . S
C2108 C2111 1.511 . S
C2109 C2105 1.376 . S
C2109 C2108 1.392 . S
C2109 H2121 0.929 . S
C2110 C2106 1.531 . S
C2110 H2122 0.960 . S
C2110 H2123 0.962 . S
C2110 H2124 0.960 . S
C2111 C2108 1.511 . S
C2111 H2125 0.961 . S
C2111 H2126 0.961 . S
C2111 H2127 0.961 . S
C2112 C2113 1.370 . S
C2112 C2114 1.363 . S
C2112 H2128 0.931 . S
C2113 C2112 1.370 . S
C2113 C2117 1.408 . S
C2114 C2112 1.363 . S
C2114 C2115 1.370 . S
C2114 C2118 1.524 . S
C2115 C2107 1.503 . S
C2115 C2114 1.370 . S
C2115 C2116 1.403 . S
C2116 C2115 1.403 . S
C2116 C2117 1.404 . S
C2116 C2119 1.539 . S
C2117 C2113 1.408 . S
C2117 C2116 1.404 . S
C2117 H2129 0.930 . S
C2118 C2114 1.524 . S
C2118 H2130 0.956 . S
C2118 H2131 0.961 . S
C2118 H2132 0.961 . S
C2119 C2116 1.539 . S
C2119 H2133 0.958 . S
C2119 H2134 0.961 . S
C2119 H2135 0.960 . S
H2120 C2104 0.931 . S
H2121 C2109 0.929 . S
H2122 C2110 0.960 . S
H2123 C2110 0.962 . S
H2124 C2110 0.960 . S
H2125 C2111 0.961 . S
H2126 C2111 0.961 . S
H2127 C2111 0.961 . S
H2128 C2112 0.931 . S
H2129 C2117 0.930 . S
H2130 C2118 0.956 . S
H2131 C2118 0.961 . S
H2132 C2118 0.961 . S
H2133 C2119 0.958 . S
H2134 C2119 0.961 . S
H2135 C2119 0.960 . S
C2136 C2137 1.391 . S
C2136 C2138 1.394 . S
C2136 H2152 0.931 . S
C2137 C2136 1.391 . S
C2137 C2141 1.376 . S
C2138 C2136 1.394 . S
C2138 C2139 1.369 . S
C2138 C2142 1.531 . S
C2139 C2138 1.369 . S
C2139 C2140 1.410 . S
C2139 C2147 1.503 . S
C2140 C2139 1.410 . S
C2140 C2141 1.392 . S
C2140 C2143 1.511 . S
C2141 C2137 1.376 . S
C2141 C2140 1.392 . S
C2141 H2153 0.929 . S
C2142 C2138 1.531 . S
C2142 H2154 0.960 . S
C2142 H2155 0.962 . S
C2142 H2156 0.960 . S
C2143 C2140 1.511 . S
C2143 H2157 0.961 . S
C2143 H2158 0.961 . S
C2143 H2159 0.961 . S
C2144 C2145 1.370 . S
C2144 C2146 1.363 . S
C2144 H2160 0.931 . S
C2145 C2144 1.370 . S
C2145 C2149 1.408 . S
C2146 C2144 1.363 . S
C2146 C2147 1.370 . S
C2146 C2150 1.524 . S
C2147 C2139 1.503 . S
C2147 C2146 1.370 . S
C2147 C2148 1.403 . S
C2148 C2147 1.403 . S
C2148 C2149 1.404 . S
C2148 C2151 1.539 . S
C2149 C2145 1.408 . S
C2149 C2148 1.404 . S
C2149 H2161 0.930 . S
C2150 C2146 1.524 . S
C2150 H2162 0.956 . S
C2150 H2163 0.961 . S
C2150 H2164 0.961 . S
C2151 C2148 1.539 . S
C2151 H2165 0.958 . S
C2151 H2166 0.961 . S
C2151 H2167 0.960 . S
H2152 C2136 0.931 . S
H2153 C2141 0.929 . S
H2154 C2142 0.960 . S
H2155 C2142 0.962 . S
H2156 C2142 0.960 . S
H2157 C2143 0.961 . S
H2158 C2143 0.961 . S
H2159 C2143 0.961 . S
H2160 C2144 0.931 . S
H2161 C2149 0.930 . S
H2162 C2150 0.956 . S
H2163 C2150 0.961 . S
H2164 C2150 0.961 . S
H2165 C2151 0.958 . S
H2166 C2151 0.961 . S
H2167 C2151 0.960 . S
C2168 C2169 1.391 . S
C2168 C2170 1.394 . S
C2168 H2184 0.931 . S
C2169 C2168 1.391 . S
C2169 C2173 1.376 . S
C2170 C2168 1.394 . S
C2170 C2171 1.369 . S
C2170 C2174 1.531 . S
C2171 C2170 1.369 . S
C2171 C2172 1.410 . S
C2171 C2179 1.503 . S
C2172 C2171 1.410 . S
C2172 C2173 1.392 . S
C2172 C2175 1.511 . S
C2173 C2169 1.376 . S
C2173 C2172 1.392 . S
C2173 H2185 0.929 . S
C2174 C2170 1.531 . S
C2174 H2186 0.960 . S
C2174 H2187 0.962 . S
C2174 H2188 0.960 . S
C2175 C2172 1.511 . S
C2175 H2189 0.961 . S
C2175 H2190 0.961 . S
C2175 H2191 0.961 . S
C2176 C2177 1.370 . S
C2176 C2178 1.363 . S
C2176 H2192 0.931 . S
C2177 C2176 1.370 . S
C2177 C2181 1.408 . S
C2178 C2176 1.363 . S
C2178 C2179 1.370 . S
C2178 C2182 1.524 . S
C2179 C2171 1.503 . S
C2179 C2178 1.370 . S
C2179 C2180 1.403 . S
C2180 C2179 1.403 . S
C2180 C2181 1.404 . S
C2180 C2183 1.539 . S
C2181 C2177 1.408 . S
C2181 C2180 1.404 . S
C2181 H2193 0.930 . S
C2182 C2178 1.524 . S
C2182 H2194 0.956 . S
C2182 H2195 0.961 . S
C2182 H2196 0.961 . S
C2183 C2180 1.539 . S
C2183 H2197 0.958 . S
C2183 H2198 0.961 . S
C2183 H2199 0.960 . S
H2184 C2168 0.931 . S
H2185 C2173 0.929 . S
H2186 C2174 0.960 . S
H2187 C2174 0.962 . S
H2188 C2174 0.960 . S
H2189 C2175 0.961 . S
H2190 C2175 0.961 . S
H2191 C2175 0.961 . S
H2192 C2176 0.931 . S
H2193 C2181 0.930 . S
H2194 C2182 0.956 . S
H2195 C2182 0.961 . S
H2196 C2182 0.961 . S
H2197 C2183 0.958 . S
H2198 C2183 0.961 . S
H2199 C2183 0.960 . S
C2200 C2201 1.391 . S
C2200 C2202 1.394 . S
C2200 H2216 0.931 . S
C2201 C2200 1.391 . S
C2201 C2205 1.376 . S
C2202 C2200 1.394 . S
C2202 C2203 1.369 . S
C2202 C2206 1.531 . S
C2203 C2202 1.369 . S
C2203 C2204 1.410 . S
C2203 C2211 1.503 . S
C2204 C2203 1.410 . S
C2204 C2205 1.392 . S
C2204 C2207 1.511 . S
C2205 C2201 1.376 . S
C2205 C2204 1.392 . S
C2205 H2217 0.929 . S
C2206 C2202 1.531 . S
C2206 H2218 0.960 . S
C2206 H2219 0.962 . S
C2206 H2220 0.960 . S
C2207 C2204 1.511 . S
C2207 H2221 0.961 . S
C2207 H2222 0.961 . S
C2207 H2223 0.961 . S
C2208 C2209 1.370 . S
C2208 C2210 1.363 . S
C2208 H2224 0.931 . S
C2209 C2208 1.370 . S
C2209 C2213 1.408 . S
C2210 C2208 1.363 . S
C2210 C2211 1.370 . S
C2210 C2214 1.524 . S
C2211 C2203 1.503 . S
C2211 C2210 1.370 . S
C2211 C2212 1.403 . S
C2212 C2211 1.403 . S
C2212 C2213 1.404 . S
C2212 C2215 1.539 . S
C2213 C2209 1.408 . S
C2213 C2212 1.404 . S
C2213 H2225 0.930 . S
C2214 C2210 1.524 . S
C2214 H2226 0.956 . S
C2214 H2227 0.961 . S
C2214 H2228 0.961 . S
C2215 C2212 1.539 . S
C2215 H2229 0.958 . S
C2215 H2230 0.961 . S
C2215 H2231 0.960 . S
H2216 C2200 0.931 . S
H2217 C2205 0.929 . S
H2218 C2206 0.960 . S
H2219 C2206 0.962 . S
H2220 C2206 0.960 . S
H2221 C2207 0.961 . S
H2222 C2207 0.961 . S
H2223 C2207 0.961 . S
H2224 C2208 0.931 . S
H2225 C2213 0.930 . S
H2226 C2214 0.956 . S
H2227 C2214 0.961 . S
H2228 C2214 0.961 . S
H2229 C2215 0.958 . S
H2230 C2215 0.961 . S
H2231 C2215 0.960 . S
C2232 C2233 1.391 . S
C2232 C2234 1.394 . S
C2232 H2248 0.931 . S
C2233 C2232 1.391 . S
C2233 C2237 1.376 . S
C2234 C2232 1.394 . S
C2234 C2235 1.369 . S
C2234 C2238 1.531 . S
C2235 C2234 1.369 . S
C2235 C2236 1.410 . S
C2235 C2243 1.503 . S
C2236 C2235 1.410 . S
C2236 C2237 1.392 . S
C2236 C2239 1.511 . S
C2237 C2233 1.376 . S
C2237 C2236 1.392 . S
C2237 H2249 0.929 . S
C2238 C2234 1.531 . S
C2238 H2250 0.960 . S
C2238 H2251 0.962 . S
C2238 H2252 0.960 . S
C2239 C2236 1.511 . S
C2239 H2253 0.961 . S
C2239 H2254 0.961 . S
C2239 H2255 0.961 . S
C2240 C2241 1.370 . S
C2240 C2242 1.363 . S
C2240 H2256 0.931 . S
C2241 C2240 1.370 . S
C2241 C2245 1.408 . S
C2242 C2240 1.363 . S
C2242 C2243 1.370 . S
C2242 C2246 1.524 . S
C2243 C2235 1.503 . S
C2243 C2242 1.370 . S
C2243 C2244 1.403 . S
C2244 C2243 1.403 . S
C2244 C2245 1.404 . S
C2244 C2247 1.539 . S
C2245 C2241 1.408 . S
C2245 C2244 1.404 . S
C2245 H2257 0.930 . S
C2246 C2242 1.524 . S
C2246 H2258 0.956 . S
C2246 H2259 0.961 . S
C2246 H2260 0.961 . S
C2247 C2244 1.539 . S
C2247 H2261 0.958 . S
C2247 H2262 0.961 . S
C2247 H2263 0.960 . S
H2248 C2232 0.931 . S
H2249 C2237 0.929 . S
H2250 C2238 0.960 . S
H2251 C2238 0.962 . S
H2252 C2238 0.960 . S
H2253 C2239 0.961 . S
H2254 C2239 0.961 . S
H2255 C2239 0.961 . S
H2256 C2240 0.931 . S
H2257 C2245 0.930 . S
H2258 C2246 0.956 . S
H2259 C2246 0.961 . S
H2260 C2246 0.961 . S
H2261 C2247 0.958 . S
H2262 C2247 0.961 . S
H2263 C2247 0.960 . S
C2264 C2265 1.391 . S
C2264 C2266 1.394 . S
C2264 H2280 0.931 . S
C2265 C2264 1.391 . S
C2265 C2269 1.376 . S
C2266 C2264 1.394 . S
C2266 C2267 1.369 . S
C2266 C2270 1.531 . S
C2267 C2266 1.369 . S
C2267 C2268 1.410 . S
C2267 C2275 1.503 . S
C2268 C2267 1.410 . S
C2268 C2269 1.392 . S
C2268 C2271 1.511 . S
C2269 C2265 1.376 . S
C2269 C2268 1.392 . S
C2269 H2281 0.929 . S
C2270 C2266 1.531 . S
C2270 H2282 0.960 . S
C2270 H2283 0.962 . S
C2270 H2284 0.960 . S
C2271 C2268 1.511 . S
C2271 H2285 0.961 . S
C2271 H2286 0.961 . S
C2271 H2287 0.961 . S
C2272 C2273 1.370 . S
C2272 C2274 1.363 . S
C2272 H2288 0.931 . S
C2273 C2272 1.370 . S
C2273 C2277 1.408 . S
C2274 C2272 1.363 . S
C2274 C2275 1.370 . S
C2274 C2278 1.524 . S
C2275 C2267 1.503 . S
C2275 C2274 1.370 . S
C2275 C2276 1.403 . S
C2276 C2275 1.403 . S
C2276 C2277 1.404 . S
C2276 C2279 1.539 . S
C2277 C2273 1.408 . S
C2277 C2276 1.404 . S
C2277 H2289 0.930 . S
C2278 C2274 1.524 . S
C2278 H2290 0.956 . S
C2278 H2291 0.961 . S
C2278 H2292 0.961 . S
C2279 C2276 1.539 . S
C2279 H2293 0.958 . S
C2279 H2294 0.961 . S
C2279 H2295 0.960 . S
H2280 C2264 0.931 . S
H2281 C2269 0.929 . S
H2282 C2270 0.960 . S
H2283 C2270 0.962 . S
H2284 C2270 0.960 . S
H2285 C2271 0.961 . S
H2286 C2271 0.961 . S
H2287 C2271 0.961 . S
H2288 C2272 0.931 . S
H2289 C2277 0.930 . S
H2290 C2278 0.956 . S
H2291 C2278 0.961 . S
H2292 C2278 0.961 . S
H2293 C2279 0.958 . S
H2294 C2279 0.961 . S
H2295 C2279 0.960 . S
C2296 C2297 1.391 . S
C2296 C2298 1.394 . S
C2296 H2312 0.931 . S
C2297 C2296 1.391 . S
C2297 C2301 1.376 . S
C2298 C2296 1.394 . S
C2298 C2299 1.369 . S
C2298 C2302 1.531 . S
C2299 C2298 1.369 . S
C2299 C2300 1.410 . S
C2299 C2307 1.503 . S
C2300 C2299 1.410 . S
C2300 C2301 1.392 . S
C2300 C2303 1.511 . S
C2301 C2297 1.376 . S
C2301 C2300 1.392 . S
C2301 H2313 0.929 . S
C2302 C2298 1.531 . S
C2302 H2314 0.960 . S
C2302 H2315 0.962 . S
C2302 H2316 0.960 . S
C2303 C2300 1.511 . S
C2303 H2317 0.961 . S
C2303 H2318 0.961 . S
C2303 H2319 0.961 . S
C2304 C2305 1.370 . S
C2304 C2306 1.363 . S
C2304 H2320 0.931 . S
C2305 C2304 1.370 . S
C2305 C2309 1.408 . S
C2306 C2304 1.363 . S
C2306 C2307 1.370 . S
C2306 C2310 1.524 . S
C2307 C2299 1.503 . S
C2307 C2306 1.370 . S
C2307 C2308 1.403 . S
C2308 C2307 1.403 . S
C2308 C2309 1.404 . S
C2308 C2311 1.539 . S
C2309 C2305 1.408 . S
C2309 C2308 1.404 . S
C2309 H2321 0.930 . S
C2310 C2306 1.524 . S
C2310 H2322 0.956 . S
C2310 H2323 0.961 . S
C2310 H2324 0.961 . S
C2311 C2308 1.539 . S
C2311 H2325 0.958 . S
C2311 H2326 0.961 . S
C2311 H2327 0.960 . S
H2312 C2296 0.931 . S
H2313 C2301 0.929 . S
H2314 C2302 0.960 . S
H2315 C2302 0.962 . S
H2316 C2302 0.960 . S
H2317 C2303 0.961 . S
H2318 C2303 0.961 . S
H2319 C2303 0.961 . S
H2320 C2304 0.931 . S
H2321 C2309 0.930 . S
H2322 C2310 0.956 . S
H2323 C2310 0.961 . S
H2324 C2310 0.961 . S
H2325 C2311 0.958 . S
H2326 C2311 0.961 . S
H2327 C2311 0.960 . S
C2328 C2329 1.391 . S
C2328 C2330 1.394 . S
C2328 H2344 0.931 . S
C2329 C2328 1.391 . S
C2329 C2333 1.376 . S
C2330 C2328 1.394 . S
C2330 C2331 1.369 . S
C2330 C2334 1.531 . S
C2331 C2330 1.369 . S
C2331 C2332 1.410 . S
C2331 C2339 1.503 . S
C2332 C2331 1.410 . S
C2332 C2333 1.392 . S
C2332 C2335 1.511 . S
C2333 C2329 1.376 . S
C2333 C2332 1.392 . S
C2333 H2345 0.929 . S
C2334 C2330 1.531 . S
C2334 H2346 0.960 . S
C2334 H2347 0.962 . S
C2334 H2348 0.960 . S
C2335 C2332 1.511 . S
C2335 H2349 0.961 . S
C2335 H2350 0.961 . S
C2335 H2351 0.961 . S
C2336 C2337 1.370 . S
C2336 C2338 1.363 . S
C2336 H2352 0.931 . S
C2337 C2336 1.370 . S
C2337 C2341 1.408 . S
C2338 C2336 1.363 . S
C2338 C2339 1.370 . S
C2338 C2342 1.524 . S
C2339 C2331 1.503 . S
C2339 C2338 1.370 . S
C2339 C2340 1.403 . S
C2340 C2339 1.403 . S
C2340 C2341 1.404 . S
C2340 C2343 1.539 . S
C2341 C2337 1.408 . S
C2341 C2340 1.404 . S
C2341 H2353 0.930 . S
C2342 C2338 1.524 . S
C2342 H2354 0.956 . S
C2342 H2355 0.961 . S
C2342 H2356 0.961 . S
C2343 C2340 1.539 . S
C2343 H2357 0.958 . S
C2343 H2358 0.961 . S
C2343 H2359 0.960 . S
H2344 C2328 0.931 . S
H2345 C2333 0.929 . S
H2346 C2334 0.960 . S
H2347 C2334 0.962 . S
H2348 C2334 0.960 . S
H2349 C2335 0.961 . S
H2350 C2335 0.961 . S
H2351 C2335 0.961 . S
H2352 C2336 0.931 . S
H2353 C2341 0.930 . S
H2354 C2342 0.956 . S
H2355 C2342 0.961 . S
H2356 C2342 0.961 . S
H2357 C2343 0.958 . S
H2358 C2343 0.961 . S
H2359 C2343 0.960 . S
C2360 C2361 1.391 . S
C2360 C2362 1.394 . S
C2360 H2376 0.931 . S
C2361 C2360 1.391 . S
C2361 C2365 1.376 . S
C2362 C2360 1.394 . S
C2362 C2363 1.369 . S
C2362 C2366 1.531 . S
C2363 C2362 1.369 . S
C2363 C2364 1.410 . S
C2363 C2371 1.503 . S
C2364 C2363 1.410 . S
C2364 C2365 1.392 . S
C2364 C2367 1.511 . S
C2365 C2361 1.376 . S
C2365 C2364 1.392 . S
C2365 H2377 0.929 . S
C2366 C2362 1.531 . S
C2366 H2378 0.960 . S
C2366 H2379 0.962 . S
C2366 H2380 0.960 . S
C2367 C2364 1.511 . S
C2367 H2381 0.961 . S
C2367 H2382 0.961 . S
C2367 H2383 0.961 . S
C2368 C2369 1.370 . S
C2368 C2370 1.363 . S
C2368 H2384 0.931 . S
C2369 C2368 1.370 . S
C2369 C2373 1.408 . S
C2370 C2368 1.363 . S
C2370 C2371 1.370 . S
C2370 C2374 1.524 . S
C2371 C2363 1.503 . S
C2371 C2370 1.370 . S
C2371 C2372 1.403 . S
C2372 C2371 1.403 . S
C2372 C2373 1.404 . S
C2372 C2375 1.539 . S
C2373 C2369 1.408 . S
C2373 C2372 1.404 . S
C2373 H2385 0.930 . S
C2374 C2370 1.524 . S
C2374 H2386 0.956 . S
C2374 H2387 0.961 . S
C2374 H2388 0.961 . S
C2375 C2372 1.539 . S
C2375 H2389 0.958 . S
C2375 H2390 0.961 . S
C2375 H2391 0.960 . S
H2376 C2360 0.931 . S
H2377 C2365 0.929 . S
H2378 C2366 0.960 . S
H2379 C2366 0.962 . S
H2380 C2366 0.960 . S
H2381 C2367 0.961 . S
H2382 C2367 0.961 . S
H2383 C2367 0.961 . S
H2384 C2368 0.931 . S
H2385 C2373 0.930 . S
H2386 C2374 0.956 . S
H2387 C2374 0.961 . S
H2388 C2374 0.961 . S
H2389 C2375 0.958 . S
H2390 C2375 0.961 . S
H2391 C2375 0.960 . S
C2392 C2393 1.391 . S
C2392 C2394 1.394 . S
C2392 H2408 0.931 . S
C2393 C2392 1.391 . S
C2393 C2397 1.376 . S
C2394 C2392 1.394 . S
C2394 C2395 1.369 . S
C2394 C2398 1.531 . S
C2395 C2394 1.369 . S
C2395 C2396 1.410 . S
C2395 C2403 1.503 . S
C2396 C2395 1.410 . S
C2396 C2397 1.392 . S
C2396 C2399 1.511 . S
C2397 C2393 1.376 . S
C2397 C2396 1.392 . S
C2397 H2409 0.929 . S
C2398 C2394 1.531 . S
C2398 H2410 0.960 . S
C2398 H2411 0.962 . S
C2398 H2412 0.960 . S
C2399 C2396 1.511 . S
C2399 H2413 0.961 . S
C2399 H2414 0.961 . S
C2399 H2415 0.961 . S
C2400 C2401 1.370 . S
C2400 C2402 1.363 . S
C2400 H2416 0.931 . S
C2401 C2400 1.370 . S
C2401 C2405 1.408 . S
C2402 C2400 1.363 . S
C2402 C2403 1.370 . S
C2402 C2406 1.524 . S
C2403 C2395 1.503 . S
C2403 C2402 1.370 . S
C2403 C2404 1.403 . S
C2404 C2403 1.403 . S
C2404 C2405 1.404 . S
C2404 C2407 1.539 . S
C2405 C2401 1.408 . S
C2405 C2404 1.404 . S
C2405 H2417 0.930 . S
C2406 C2402 1.524 . S
C2406 H2418 0.956 . S
C2406 H2419 0.961 . S
C2406 H2420 0.961 . S
C2407 C2404 1.539 . S
C2407 H2421 0.958 . S
C2407 H2422 0.961 . S
C2407 H2423 0.960 . S
H2408 C2392 0.931 . S
H2409 C2397 0.929 . S
H2410 C2398 0.960 . S
H2411 C2398 0.962 . S
H2412 C2398 0.960 . S
H2413 C2399 0.961 . S
H2414 C2399 0.961 . S
H2415 C2399 0.961 . S
H2416 C2400 0.931 . S
H2417 C2405 0.930 . S
H2418 C2406 0.956 . S
H2419 C2406 0.961 . S
H2420 C2406 0.961 . S
H2421 C2407 0.958 . S
H2422 C2407 0.961 . S
H2423 C2407 0.960 . S
C2424 C2425 1.391 . S
C2424 C2426 1.394 . S
C2424 H2440 0.931 . S
C2425 C2424 1.391 . S
C2425 C2429 1.376 . S
C2426 C2424 1.394 . S
C2426 C2427 1.369 . S
C2426 C2430 1.531 . S
C2427 C2426 1.369 . S
C2427 C2428 1.410 . S
C2427 C2435 1.503 . S
C2428 C2427 1.410 . S
C2428 C2429 1.392 . S
C2428 C2431 1.511 . S
C2429 C2425 1.376 . S
C2429 C2428 1.392 . S
C2429 H2441 0.929 . S
C2430 C2426 1.531 . S
C2430 H2442 0.960 . S
C2430 H2443 0.962 . S
C2430 H2444 0.960 . S
C2431 C2428 1.511 . S
C2431 H2445 0.961 . S
C2431 H2446 0.961 . S
C2431 H2447 0.961 . S
C2432 C2433 1.370 . S
C2432 C2434 1.363 . S
C2432 H2448 0.931 . S
C2433 C2432 1.370 . S
C2433 C2437 1.408 . S
C2434 C2432 1.363 . S
C2434 C2435 1.370 . S
C2434 C2438 1.524 . S
C2435 C2427 1.503 . S
C2435 C2434 1.370 . S
C2435 C2436 1.403 . S
C2436 C2435 1.403 . S
C2436 C2437 1.404 . S
C2436 C2439 1.539 . S
C2437 C2433 1.408 . S
C2437 C2436 1.404 . S
C2437 H2449 0.930 . S
C2438 C2434 1.524 . S
C2438 H2450 0.956 . S
C2438 H2451 0.961 . S
C2438 H2452 0.961 . S
C2439 C2436 1.539 . S
C2439 H2453 0.958 . S
C2439 H2454 0.961 . S
C2439 H2455 0.960 . S
H2440 C2424 0.931 . S
H2441 C2429 0.929 . S
H2442 C2430 0.960 . S
H2443 C2430 0.962 . S
H2444 C2430 0.960 . S
H2445 C2431 0.961 . S
H2446 C2431 0.961 . S
H2447 C2431 0.961 . S
H2448 C2432 0.931 . S
H2449 C2437 0.930 . S
H2450 C2438 0.956 . S
H2451 C2438 0.961 . S
H2452 C2438 0.961 . S
H2453 C2439 0.958 . S
H2454 C2439 0.961 . S
H2455 C2439 0.960 . S
C2456 C2457 1.391 . S
C2456 C2458 1.394 . S
C2456 H2472 0.931 . S
C2457 C2456 1.391 . S
C2457 C2461 1.376 . S
C2458 C2456 1.394 . S
C2458 C2459 1.369 . S
C2458 C2462 1.531 . S
C2459 C2458 1.369 . S
C2459 C2460 1.410 . S
C2459 C2467 1.503 . S
C2460 C2459 1.410 . S
C2460 C2461 1.392 . S
C2460 C2463 1.511 . S
C2461 C2457 1.376 . S
C2461 C2460 1.392 . S
C2461 H2473 0.929 . S
C2462 C2458 1.531 . S
C2462 H2474 0.960 . S
C2462 H2475 0.962 . S
C2462 H2476 0.960 . S
C2463 C2460 1.511 . S
C2463 H2477 0.961 . S
C2463 H2478 0.961 . S
C2463 H2479 0.961 . S
C2464 C2465 1.370 . S
C2464 C2466 1.363 . S
C2464 H2480 0.931 . S
C2465 C2464 1.370 . S
C2465 C2469 1.408 . S
C2466 C2464 1.363 . S
C2466 C2467 1.370 . S
C2466 C2470 1.524 . S
C2467 C2459 1.503 . S
C2467 C2466 1.370 . S
C2467 C2468 1.403 . S
C2468 C2467 1.403 . S
C2468 C2469 1.404 . S
C2468 C2471 1.539 . S
C2469 C2465 1.408 . S
C2469 C2468 1.404 . S
C2469 H2481 0.930 . S
C2470 C2466 1.524 . S
C2470 H2482 0.956 . S
C2470 H2483 0.961 . S
C2470 H2484 0.961 . S
C2471 C2468 1.539 . S
C2471 H2485 0.958 . S
C2471 H2486 0.961 . S
C2471 H2487 0.960 . S
H2472 C2456 0.931 . S
H2473 C2461 0.929 . S
H2474 C2462 0.960 . S
H2475 C2462 0.962 . S
H2476 C2462 0.960 . S
H2477 C2463 0.961 . S
H2478 C2463 0.961 . S
H2479 C2463 0.961 . S
H2480 C2464 0.931 . S
H2481 C2469 0.930 . S
H2482 C2470 0.956 . S
H2483 C2470 0.961 . S
H2484 C2470 0.961 . S
H2485 C2471 0.958 . S
H2486 C2471 0.961 . S
H2487 C2471 0.960 . S
C2488 C2489 1.391 . S
C2488 C2490 1.394 . S
C2488 H2504 0.931 . S
C2489 C2488 1.391 . S
C2489 C2493 1.376 . S
C2490 C2488 1.394 . S
C2490 C2491 1.369 . S
C2490 C2494 1.531 . S
C2491 C2490 1.369 . S
C2491 C2492 1.410 . S
C2491 C2499 1.503 . S
C2492 C2491 1.410 . S
C2492 C2493 1.392 . S
C2492 C2495 1.511 . S
C2493 C2489 1.376 . S
C2493 C2492 1.392 . S
C2493 H2505 0.929 . S
C2494 C2490 1.531 . S
C2494 H2506 0.960 . S
C2494 H2507 0.962 . S
C2494 H2508 0.960 . S
C2495 C2492 1.511 . S
C2495 H2509 0.961 . S
C2495 H2510 0.961 . S
C2495 H2511 0.961 . S
C2496 C2497 1.370 . S
C2496 C2498 1.363 . S
C2496 H2512 0.931 . S
C2497 C2496 1.370 . S
C2497 C2501 1.408 . S
C2498 C2496 1.363 . S
C2498 C2499 1.370 . S
C2498 C2502 1.524 . S
C2499 C2491 1.503 . S
C2499 C2498 1.370 . S
C2499 C2500 1.403 . S
C2500 C2499 1.403 . S
C2500 C2501 1.404 . S
C2500 C2503 1.539 . S
C2501 C2497 1.408 . S
C2501 C2500 1.404 . S
C2501 H2513 0.930 . S
C2502 C2498 1.524 . S
C2502 H2514 0.956 . S
C2502 H2515 0.961 . S
C2502 H2516 0.961 . S
C2503 C2500 1.539 . S
C2503 H2517 0.958 . S
C2503 H2518 0.961 . S
C2503 H2519 0.960 . S
H2504 C2488 0.931 . S
H2505 C2493 0.929 . S
H2506 C2494 0.960 . S
H2507 C2494 0.962 . S
H2508 C2494 0.960 . S
H2509 C2495 0.961 . S
H2510 C2495 0.961 . S
H2511 C2495 0.961 . S
H2512 C2496 0.931 . S
H2513 C2501 0.930 . S
H2514 C2502 0.956 . S
H2515 C2502 0.961 . S
H2516 C2502 0.961 . S
H2517 C2503 0.958 . S
H2518 C2503 0.961 . S
H2519 C2503 0.960 . S
C2520 C2521 1.391 . S
C2520 C2522 1.394 . S
C2520 H2536 0.931 . S
C2521 C2520 1.391 . S
C2521 C2525 1.376 . S
C2522 C2520 1.394 . S
C2522 C2523 1.369 . S
C2522 C2526 1.531 . S
C2523 C2522 1.369 . S
C2523 C2524 1.410 . S
C2523 C2531 1.503 . S
C2524 C2523 1.410 . S
C2524 C2525 1.392 . S
C2524 C2527 1.511 . S
C2525 C2521 1.376 . S
C2525 C2524 1.392 . S
C2525 H2537 0.929 . S
C2526 C2522 1.531 . S
C2526 H2538 0.960 . S
C2526 H2539 0.962 . S
C2526 H2540 0.960 . S
C2527 C2524 1.511 . S
C2527 H2541 0.961 . S
C2527 H2542 0.961 . S
C2527 H2543 0.961 . S
C2528 C2529 1.370 . S
C2528 C2530 1.363 . S
C2528 H2544 0.931 . S
C2529 C2528 1.370 . S
C2529 C2533 1.408 . S
C2530 C2528 1.363 . S
C2530 C2531 1.370 . S
C2530 C2534 1.524 . S
C2531 C2523 1.503 . S
C2531 C2530 1.370 . S
C2531 C2532 1.403 . S
C2532 C2531 1.403 . S
C2532 C2533 1.404 . S
C2532 C2535 1.539 . S
C2533 C2529 1.408 . S
C2533 C2532 1.404 . S
C2533 H2545 0.930 . S
C2534 C2530 1.524 . S
C2534 H2546 0.956 . S
C2534 H2547 0.961 . S
C2534 H2548 0.961 . S
C2535 C2532 1.539 . S
C2535 H2549 0.958 . S
C2535 H2550 0.961 . S
C2535 H2551 0.960 . S
H2536 C2520 0.931 . S
H2537 C2525 0.929 . S
H2538 C2526 0.960 . S
H2539 C2526 0.962 . S
H2540 C2526 0.960 . S
H2541 C2527 0.961 . S
H2542 C2527 0.961 . S
H2543 C2527 0.961 . S
H2544 C2528 0.931 . S
H2545 C2533 0.930 . S
H2546 C2534 0.956 . S
H2547 C2534 0.961 . S
H2548 C2534 0.961 . S
H2549 C2535 0.958 . S
H2550 C2535 0.961 . S
H2551 C2535 0.960 . S
C2552 C2553 1.391 . S
C2552 C2554 1.394 . S
C2552 H2568 0.931 . S
C2553 C2552 1.391 . S
C2553 C2557 1.376 . S
C2554 C2552 1.394 . S
C2554 C2555 1.369 . S
C2554 C2558 1.531 . S
C2555 C2554 1.369 . S
C2555 C2556 1.410 . S
C2555 C2563 1.503 . S
C2556 C2555 1.410 . S
C2556 C2557 1.392 . S
C2556 C2559 1.511 . S
C2557 C2553 1.376 . S
C2557 C2556 1.392 . S
C2557 H2569 0.929 . S
C2558 C2554 1.531 . S
C2558 H2570 0.960 . S
C2558 H2571 0.962 . S
C2558 H2572 0.960 . S
C2559 C2556 1.511 . S
C2559 H2573 0.961 . S
C2559 H2574 0.961 . S
C2559 H2575 0.961 . S
C2560 C2561 1.370 . S
C2560 C2562 1.363 . S
C2560 H2576 0.931 . S
C2561 C2560 1.370 . S
C2561 C2565 1.408 . S
C2562 C2560 1.363 . S
C2562 C2563 1.370 . S
C2562 C2566 1.524 . S
C2563 C2555 1.503 . S
C2563 C2562 1.370 . S
C2563 C2564 1.403 . S
C2564 C2563 1.403 . S
C2564 C2565 1.404 . S
C2564 C2567 1.539 . S
C2565 C2561 1.408 . S
C2565 C2564 1.404 . S
C2565 H2577 0.930 . S
C2566 C2562 1.524 . S
C2566 H2578 0.956 . S
C2566 H2579 0.961 . S
C2566 H2580 0.961 . S
C2567 C2564 1.539 . S
C2567 H2581 0.958 . S
C2567 H2582 0.961 . S
C2567 H2583 0.960 . S
H2568 C2552 0.931 . S
H2569 C2557 0.929 . S
H2570 C2558 0.960 . S
H2571 C2558 0.962 . S
H2572 C2558 0.960 . S
H2573 C2559 0.961 . S
H2574 C2559 0.961 . S
H2575 C2559 0.961 . S
H2576 C2560 0.931 . S
H2577 C2565 0.930 . S
H2578 C2566 0.956 . S
H2579 C2566 0.961 . S
H2580 C2566 0.961 . S
H2581 C2567 0.958 . S
H2582 C2567 0.961 . S
H2583 C2567 0.960 . S
C2584 C2585 1.391 . S
C2584 C2586 1.394 . S
C2584 H2600 0.931 . S
C2585 C2584 1.391 . S
C2585 C2589 1.376 . S
C2586 C2584 1.394 . S
C2586 C2587 1.369 . S
C2586 C2590 1.531 . S
C2587 C2586 1.369 . S
C2587 C2588 1.410 . S
C2587 C2595 1.503 . S
C2588 C2587 1.410 . S
C2588 C2589 1.392 . S
C2588 C2591 1.511 . S
C2589 C2585 1.376 . S
C2589 C2588 1.392 . S
C2589 H2601 0.929 . S
C2590 C2586 1.531 . S
C2590 H2602 0.960 . S
C2590 H2603 0.962 . S
C2590 H2604 0.960 . S
C2591 C2588 1.511 . S
C2591 H2605 0.961 . S
C2591 H2606 0.961 . S
C2591 H2607 0.961 . S
C2592 C2593 1.370 . S
C2592 C2594 1.363 . S
C2592 H2608 0.931 . S
C2593 C2592 1.370 . S
C2593 C2597 1.408 . S
C2594 C2592 1.363 . S
C2594 C2595 1.370 . S
C2594 C2598 1.524 . S
C2595 C2587 1.503 . S
C2595 C2594 1.370 . S
C2595 C2596 1.403 . S
C2596 C2595 1.403 . S
C2596 C2597 1.404 . S
C2596 C2599 1.539 . S
C2597 C2593 1.408 . S
C2597 C2596 1.404 . S
C2597 H2609 0.930 . S
C2598 C2594 1.524 . S
C2598 H2610 0.956 . S
C2598 H2611 0.961 . S
C2598 H2612 0.961 . S
C2599 C2596 1.539 . S
C2599 H2613 0.958 . S
C2599 H2614 0.961 . S
C2599 H2615 0.960 . S
H2600 C2584 0.931 . S
H2601 C2589 0.929 . S
H2602 C2590 0.960 . S
H2603 C2590 0.962 . S
H2604 C2590 0.960 . S
H2605 C2591 0.961 . S
H2606 C2591 0.961 . S
H2607 C2591 0.961 . S
H2608 C2592 0.931 . S
H2609 C2597 0.930 . S
H2610 C2598 0.956 . S
H2611 C2598 0.961 . S
H2612 C2598 0.961 . S
H2613 C2599 0.958 . S
H2614 C2599 0.961 . S
H2615 C2599 0.960 . S
C2616 C2617 1.391 . S
C2616 C2618 1.394 . S
C2616 H2632 0.931 . S
C2617 C2616 1.391 . S
C2617 C2621 1.376 . S
C2618 C2616 1.394 . S
C2618 C2619 1.369 . S
C2618 C2622 1.531 . S
C2619 C2618 1.369 . S
C2619 C2620 1.410 . S
C2619 C2627 1.503 . S
C2620 C2619 1.410 . S
C2620 C2621 1.392 . S
C2620 C2623 1.511 . S
C2621 C2617 1.376 . S
C2621 C2620 1.392 . S
C2621 H2633 0.929 . S
C2622 C2618 1.531 . S
C2622 H2634 0.960 . S
C2622 H2635 0.962 . S
C2622 H2636 0.960 . S
C2623 C2620 1.511 . S
C2623 H2637 0.961 . S
C2623 H2638 0.961 . S
C2623 H2639 0.961 . S
C2624 C2625 1.370 . S
C2624 C2626 1.363 . S
C2624 H2640 0.931 . S
C2625 C2624 1.370 . S
C2625 C2629 1.408 . S
C2626 C2624 1.363 . S
C2626 C2627 1.370 . S
C2626 C2630 1.524 . S
C2627 C2619 1.503 . S
C2627 C2626 1.370 . S
C2627 C2628 1.403 . S
C2628 C2627 1.403 . S
C2628 C2629 1.404 . S
C2628 C2631 1.539 . S
C2629 C2625 1.408 . S
C2629 C2628 1.404 . S
C2629 H2641 0.930 . S
C2630 C2626 1.524 . S
C2630 H2642 0.956 . S
C2630 H2643 0.961 . S
C2630 H2644 0.961 . S
C2631 C2628 1.539 . S
C2631 H2645 0.958 . S
C2631 H2646 0.961 . S
C2631 H2647 0.960 . S
H2632 C2616 0.931 . S
H2633 C2621 0.929 . S
H2634 C2622 0.960 . S
H2635 C2622 0.962 . S
H2636 C2622 0.960 . S
H2637 C2623 0.961 . S
H2638 C2623 0.961 . S
H2639 C2623 0.961 . S
H2640 C2624 0.931 . S
H2641 C2629 0.930 . S
H2642 C2630 0.956 . S
H2643 C2630 0.961 . S
H2644 C2630 0.961 . S
H2645 C2631 0.958 . S
H2646 C2631 0.961 . S
H2647 C2631 0.960 . S
C2648 C2649 1.391 . S
C2648 C2650 1.394 . S
C2648 H2664 0.931 . S
C2649 C2648 1.391 . S
C2649 C2653 1.376 . S
C2650 C2648 1.394 . S
C2650 C2651 1.369 . S
C2650 C2654 1.531 . S
C2651 C2650 1.369 . S
C2651 C2652 1.410 . S
C2651 C2659 1.503 . S
C2652 C2651 1.410 . S
C2652 C2653 1.392 . S
C2652 C2655 1.511 . S
C2653 C2649 1.376 . S
C2653 C2652 1.392 . S
C2653 H2665 0.929 . S
C2654 C2650 1.531 . S
C2654 H2666 0.960 . S
C2654 H2667 0.962 . S
C2654 H2668 0.960 . S
C2655 C2652 1.511 . S
C2655 H2669 0.961 . S
C2655 H2670 0.961 . S
C2655 H2671 0.961 . S
C2656 C2657 1.370 . S
C2656 C2658 1.363 . S
C2656 H2672 0.931 . S
C2657 C2656 1.370 . S
C2657 C2661 1.408 . S
C2658 C2656 1.363 . S
C2658 C2659 1.370 . S
C2658 C2662 1.524 . S
C2659 C2651 1.503 . S
C2659 C2658 1.370 . S
C2659 C2660 1.403 . S
C2660 C2659 1.403 . S
C2660 C2661 1.404 . S
C2660 C2663 1.539 . S
C2661 C2657 1.408 . S
C2661 C2660 1.404 . S
C2661 H2673 0.930 . S
C2662 C2658 1.524 . S
C2662 H2674 0.956 . S
C2662 H2675 0.961 . S
C2662 H2676 0.961 . S
C2663 C2660 1.539 . S
C2663 H2677 0.958 . S
C2663 H2678 0.961 . S
C2663 H2679 0.960 . S
H2664 C2648 0.931 . S
H2665 C2653 0.929 . S
H2666 C2654 0.960 . S
H2667 C2654 0.962 . S
H2668 C2654 0.960 . S
H2669 C2655 0.961 . S
H2670 C2655 0.961 . S
H2671 C2655 0.961 . S
H2672 C2656 0.931 . S
H2673 C2661 0.930 . S
H2674 C2662 0.956 . S
H2675 C2662 0.961 . S
H2676 C2662 0.961 . S
H2677 C2663 0.958 . S
H2678 C2663 0.961 . S
H2679 C2663 0.960 . S
C2680 C2681 1.391 . S
C2680 C2682 1.394 . S
C2680 H2696 0.931 . S
C2681 C2680 1.391 . S
C2681 C2685 1.376 . S
C2682 C2680 1.394 . S
C2682 C2683 1.369 . S
C2682 C2686 1.531 . S
C2683 C2682 1.369 . S
C2683 C2684 1.410 . S
C2683 C2691 1.503 . S
C2684 C2683 1.410 . S
C2684 C2685 1.392 . S
C2684 C2687 1.511 . S
C2685 C2681 1.376 . S
C2685 C2684 1.392 . S
C2685 H2697 0.929 . S
C2686 C2682 1.531 . S
C2686 H2698 0.960 . S
C2686 H2699 0.962 . S
C2686 H2700 0.960 . S
C2687 C2684 1.511 . S
C2687 H2701 0.961 . S
C2687 H2702 0.961 . S
C2687 H2703 0.961 . S
C2688 C2689 1.370 . S
C2688 C2690 1.363 . S
C2688 H2704 0.931 . S
C2689 C2688 1.370 . S
C2689 C2693 1.408 . S
C2690 C2688 1.363 . S
C2690 C2691 1.370 . S
C2690 C2694 1.524 . S
C2691 C2683 1.503 . S
C2691 C2690 1.370 . S
C2691 C2692 1.403 . S
C2692 C2691 1.403 . S
C2692 C2693 1.404 . S
C2692 C2695 1.539 . S
C2693 C2689 1.408 . S
C2693 C2692 1.404 . S
C2693 H2705 0.930 . S
C2694 C2690 1.524 . S
C2694 H2706 0.956 . S
C2694 H2707 0.961 . S
C2694 H2708 0.961 . S
C2695 C2692 1.539 . S
C2695 H2709 0.958 . S
C2695 H2710 0.961 . S
C2695 H2711 0.960 . S
H2696 C2680 0.931 . S
H2697 C2685 0.929 . S
H2698 C2686 0.960 . S
H2699 C2686 0.962 . S
H2700 C2686 0.960 . S
H2701 C2687 0.961 . S
H2702 C2687 0.961 . S
H2703 C2687 0.961 . S
H2704 C2688 0.931 . S
H2705 C2693 0.930 . S
H2706 C2694 0.956 . S
H2707 C2694 0.961 . S
H2708 C2694 0.961 . S
H2709 C2695 0.958 . S
H2710 C2695 0.961 . S
H2711 C2695 0.960 . S
C793 C182 1.035 . S
C801 C17 1.036 . S
C825 C50 1.028 . S
C833 C215 1.011 . S
C857 C83 1.010 . S
C865 C248 1.030 . S
C889 C149 1.010 . S
C897 C116 1.030 . S
C921 C281 1.057 . S
C929 C776 1.031 . S
C953 C710 1.047 . S
C961 C314 1.036 . S
C985 C347 0.981 . S
C993 C743 1.015 . S
C1017 C545 1.043 . S
C1025 C380 1.018 . S
C1049 C413 1.003 . S
C1057 C677 1.005 . S
C1081 C446 0.981 . S
C1089 C578 1.013 . S
C1113 C611 1.044 . S
C1121 C479 1.018 . S
C1145 C512 1.056 . S
C1153 C644 1.029 . S
C1177 N104 1.669 . S
C1185 C28 1.727 . S
C1209 C61 1.736 . S
C1217 N5 1.665 . S
C1241 C94 1.734 . S
C1249 N38 1.666 . S
C1273 N71 1.627 . S
C1281 C127 1.734 . S
C1305 N170 1.671 . S
C1313 C160 1.727 . S
C1337 C193 1.713 . S
C1345 N203 1.656 . S
C1369 N236 1.687 . S
C1377 C226 1.732 . S
C1401 N137 1.664 . S
C1409 C259 1.727 . S
C1433 N599 1.649 . S
C1441 C292 1.729 . S
C1465 C325 1.725 . S
C1473 N632 1.669 . S
C1497 N665 1.617 . S
C1505 C358 1.738 . S
C1529 C391 1.714 . S
C1537 N566 1.669 . S
C1561 N731 1.685 . S
C1569 C424 1.729 . S
C1593 C457 1.741 . S
C1601 N533 1.639 . S
C1625 N764 1.618 . S
C1633 C490 1.744 . S
C1657 C523 1.733 . S
C1665 N698 1.641 . S
C1689 N302 1.653 . S
C1697 C556 1.728 . S
C1721 N500 1.618 . S
C1729 C589 1.737 . S
C1753 C622 1.713 . S
C1761 N401 1.669 . S
C1785 C655 1.752 . S
C1793 N434 1.650 . S
C1817 N467 1.615 . S
C1825 C688 1.739 . S
C1849 N368 1.618 . S
C1857 C721 1.737 . S
C1881 N269 1.622 . S
C1889 C754 1.735 . S
C1913 C787 1.710 . S
C1921 N335 1.662 . S
C1945 C8 1.260 . S
C1953 N542 1.183 . S
C1977 N773 1.217 . S
C1985 C41 1.237 . S
C2009 C74 1.217 . S
C2017 N707 1.215 . S
C2041 N740 1.239 . S
C2049 C107 1.233 . S
C2073 C140 1.217 . S
C2081 N575 1.217 . S
C2105 C173 1.259 . S
C2113 N608 1.185 . S
C2137 N641 1.155 . S
C2145 C206 1.252 . S
C2169 N674 1.234 . S
C2177 C239 1.235 . S
C2201 N14 1.237 . S
C2209 C272 1.234 . S
C2233 C305 1.260 . S
C2241 N47 1.181 . S
C2265 C338 1.235 . S
C2273 N80 1.204 . S
C2297 C371 1.217 . S
C2305 N113 1.216 . S
C2329 C404 1.218 . S
C2337 N146 1.215 . S
C2361 C437 1.217 . S
C2369 N179 1.217 . S
C2393 C470 1.243 . S
C2401 N212 1.194 . S
C2425 C503 1.217 . S
C2433 N245 1.217 . S
C2457 N278 1.156 . S
C2465 C536 1.251 . S
C2489 C569 1.251 . S
C2497 N410 1.188 . S
C2521 C602 1.240 . S
C2529 N443 1.196 . S
C2553 N476 1.158 . S
C2561 C635 1.251 . S
C2585 C668 1.217 . S
C2593 N509 1.216 . S
C2617 N344 1.185 . S
C2625 C701 1.246 . S
C2649 N377 1.237 . S
C2657 C734 1.233 . S
C2681 C767 1.259 . S
C2689 N311 1.185 . S
