# Generated by pormake.
# Topology whm, (6)-cn, num edge types: 1
# Building blocks:
#     Node 0, Type 0, BuildingBlock: OJICUG_clean_sbu_0, # of connection points: 6
#     Node 1, Type 0, BuildingBlock: OJICUG_clean_sbu_0, # of connection points: 6
#     Node 2, Type 0, BuildingBlock: OJICUG_clean_sbu_0, # of connection points: 6
#     Node 3, Type 0, BuildingBlock: OJICUG_clean_sbu_0, # of connection points: 6
#     Node 4, Type 0, BuildingBlock: OJICUG_clean_sbu_0, # of connection points: 6
#     Node 5, Type 0, BuildingBlock: OJICUG_clean_sbu_0, # of connection points: 6
#     Node 6, Type 0, BuildingBlock: OJICUG_clean_sbu_0, # of connection points: 6
#     Node 7, Type 0, BuildingBlock: OJICUG_clean_sbu_0, # of connection points: 6
#     Node 8, Type 0, BuildingBlock: OJICUG_clean_sbu_0, # of connection points: 6
#     Node 9, Type 0, BuildingBlock: OJICUG_clean_sbu_0, # of connection points: 6
#     Node 10, Type 0, BuildingBlock: OJICUG_clean_sbu_0, # of connection points: 6
#     Node 11, Type 0, BuildingBlock: OJICUG_clean_sbu_0, # of connection points: 6
#     Node 12, Type 0, BuildingBlock: OJICUG_clean_sbu_0, # of connection points: 6
#     Node 13, Type 0, BuildingBlock: OJICUG_clean_sbu_0, # of connection points: 6
#     Node 14, Type 0, BuildingBlock: OJICUG_clean_sbu_0, # of connection points: 6
#     Node 15, Type 0, BuildingBlock: OJICUG_clean_sbu_0, # of connection points: 6
#     Edge 16, Type (0, 0), BuildingBlock: OJICUG_clean_linker_0, # of connection points: 2
#     Edge 17, Type (0, 0), BuildingBlock: OJICUG_clean_linker_0, # of connection points: 2
#     Edge 18, Type (0, 0), BuildingBlock: OJICUG_clean_linker_0, # of connection points: 2
#     Edge 19, Type (0, 0), BuildingBlock: OJICUG_clean_linker_0, # of connection points: 2
#     Edge 20, Type (0, 0), BuildingBlock: OJICUG_clean_linker_0, # of connection points: 2
#     Edge 21, Type (0, 0), BuildingBlock: OJICUG_clean_linker_0, # of connection points: 2
#     Edge 22, Type (0, 0), BuildingBlock: OJICUG_clean_linker_0, # of connection points: 2
#     Edge 23, Type (0, 0), BuildingBlock: OJICUG_clean_linker_0, # of connection points: 2
#     Edge 24, Type (0, 0), BuildingBlock: OJICUG_clean_linker_0, # of connection points: 2
#     Edge 25, Type (0, 0), BuildingBlock: OJICUG_clean_linker_0, # of connection points: 2
#     Edge 26, Type (0, 0), BuildingBlock: OJICUG_clean_linker_0, # of connection points: 2
#     Edge 27, Type (0, 0), BuildingBlock: OJICUG_clean_linker_0, # of connection points: 2
#     Edge 28, Type (0, 0), BuildingBlock: OJICUG_clean_linker_0, # of connection points: 2
#     Edge 29, Type (0, 0), BuildingBlock: OJICUG_clean_linker_0, # of connection points: 2
#     Edge 30, Type (0, 0), BuildingBlock: OJICUG_clean_linker_0, # of connection points: 2
#     Edge 31, Type (0, 0), BuildingBlock: OJICUG_clean_linker_0, # of connection points: 2
#     Edge 32, Type (0, 0), BuildingBlock: OJICUG_clean_linker_0, # of connection points: 2
#     Edge 33, Type (0, 0), BuildingBlock: OJICUG_clean_linker_0, # of connection points: 2
#     Edge 34, Type (0, 0), BuildingBlock: OJICUG_clean_linker_0, # of connection points: 2
#     Edge 35, Type (0, 0), BuildingBlock: OJICUG_clean_linker_0, # of connection points: 2
#     Edge 36, Type (0, 0), BuildingBlock: OJICUG_clean_linker_0, # of connection points: 2
#     Edge 37, Type (0, 0), BuildingBlock: OJICUG_clean_linker_0, # of connection points: 2
#     Edge 38, Type (0, 0), BuildingBlock: OJICUG_clean_linker_0, # of connection points: 2
#     Edge 39, Type (0, 0), BuildingBlock: OJICUG_clean_linker_0, # of connection points: 2
#     Edge 40, Type (0, 0), BuildingBlock: OJICUG_clean_linker_0, # of connection points: 2
#     Edge 41, Type (0, 0), BuildingBlock: OJICUG_clean_linker_0, # of connection points: 2
#     Edge 42, Type (0, 0), BuildingBlock: OJICUG_clean_linker_0, # of connection points: 2
#     Edge 43, Type (0, 0), BuildingBlock: OJICUG_clean_linker_0, # of connection points: 2
#     Edge 44, Type (0, 0), BuildingBlock: OJICUG_clean_linker_0, # of connection points: 2
#     Edge 45, Type (0, 0), BuildingBlock: OJICUG_clean_linker_0, # of connection points: 2
#     Edge 46, Type (0, 0), BuildingBlock: OJICUG_clean_linker_0, # of connection points: 2
#     Edge 47, Type (0, 0), BuildingBlock: OJICUG_clean_linker_0, # of connection points: 2
#     Edge 48, Type (0, 0), BuildingBlock: OJICUG_clean_linker_0, # of connection points: 2
#     Edge 49, Type (0, 0), BuildingBlock: OJICUG_clean_linker_0, # of connection points: 2
#     Edge 50, Type (0, 0), BuildingBlock: OJICUG_clean_linker_0, # of connection points: 2
#     Edge 51, Type (0, 0), BuildingBlock: OJICUG_clean_linker_0, # of connection points: 2
#     Edge 52, Type (0, 0), BuildingBlock: OJICUG_clean_linker_0, # of connection points: 2
#     Edge 53, Type (0, 0), BuildingBlock: OJICUG_clean_linker_0, # of connection points: 2
#     Edge 54, Type (0, 0), BuildingBlock: OJICUG_clean_linker_0, # of connection points: 2
#     Edge 55, Type (0, 0), BuildingBlock: OJICUG_clean_linker_0, # of connection points: 2
#     Edge 56, Type (0, 0), BuildingBlock: OJICUG_clean_linker_0, # of connection points: 2
#     Edge 57, Type (0, 0), BuildingBlock: OJICUG_clean_linker_0, # of connection points: 2
#     Edge 58, Type (0, 0), BuildingBlock: OJICUG_clean_linker_0, # of connection points: 2
#     Edge 59, Type (0, 0), BuildingBlock: OJICUG_clean_linker_0, # of connection points: 2
#     Edge 60, Type (0, 0), BuildingBlock: OJICUG_clean_linker_0, # of connection points: 2
#     Edge 61, Type (0, 0), BuildingBlock: OJICUG_clean_linker_0, # of connection points: 2
#     Edge 62, Type (0, 0), BuildingBlock: OJICUG_clean_linker_0, # of connection points: 2
#     Edge 63, Type (0, 0), BuildingBlock: OJICUG_clean_linker_0, # of connection points: 2
# Relax obj value: 0.342
# Max RMSD: 0.245
# Mean RMSD: 0.245
data_MOF--net-whm--node1-OJICUG_clean_sbu_0--edge1-OJICUG_clean_linker_0
_symmetry_space_group_name_H-M    P1
_symmetry_Int_Tables_number       1
_symmetry_cell_setting            triclinic
loop_
_symmetry_equiv_pos_as_xyz
'x, y, z'
_cell_length_a     39.323283
_cell_length_b     39.2272
_cell_length_c     22.310661
_cell_angle_alpha  90.337533
_cell_angle_beta   90.252494
_cell_angle_gamma 90.757631
loop_
_atom_site_label
_atom_site_type_symbol
_atom_site_fract_x
_atom_site_fract_y
_atom_site_fract_z
_atom_type_partial_charge
Sc0 Sc 0.57841 0.16165 0.08548 0.0
Sc1 Sc 0.51242 0.14986 0.18743 0.0
Sc2 Sc 0.56001 0.08155 0.13451 0.0
O3 O 0.54955 0.13142 0.13562 0.0
C4 C 0.56275 0.09605 0.00305 0.0
C5 C 0.50451 0.18929 0.06289 0.0
C6 C 0.48168 0.07977 0.17032 0.0
C7 C 0.5673 0.20875 0.20004 0.0
C8 C 0.63299 0.11224 0.12649 0.0
C9 C 0.55526 0.09778 0.26867 0.0
O10 O 0.57899 0.12363 0.01522 0.0
O11 O 0.49347 0.1824 0.11539 0.0
O12 O 0.51033 0.06597 0.16332 0.0
O13 O 0.58064 0.20243 0.14961 0.0
O14 O 0.61279 0.08838 0.11058 0.0
O15 O 0.53015 0.11802 0.26163 0.0
O16 O 0.62363 0.14297 0.12717 0.0
O17 O 0.54344 0.19083 0.22214 0.0
O18 O 0.5728 0.08591 0.22581 0.0
O19 O 0.53409 0.18181 0.04462 0.0
O20 O 0.54749 0.07815 0.04216 0.0
O21 O 0.47725 0.11095 0.15898 0.0
Sc22 Sc 0.31512 0.58364 0.61902 0.0
Sc23 Sc 0.31383 0.51736 0.72112 0.0
Sc24 Sc 0.38968 0.56014 0.68623 0.0
O25 O 0.33954 0.55327 0.67579 0.0
C26 C 0.38602 0.57402 0.55337 0.0
C27 C 0.28492 0.51225 0.5862 0.0
C28 C 0.38126 0.47956 0.70463 0.0
C29 C 0.25891 0.57294 0.71875 0.0
C30 C 0.36198 0.63596 0.68076 0.0
C31 C 0.36589 0.54959 0.81791 0.0
O32 O 0.35866 0.59016 0.56171 0.0
O33 O 0.28404 0.50326 0.64129 0.0
O34 O 0.39839 0.50719 0.70216 0.0
O35 O 0.26754 0.58233 0.66665 0.0
O36 O 0.38639 0.61503 0.67615 0.0
O37 O 0.34144 0.52937 0.80342 0.0
O38 O 0.33114 0.6275 0.67043 0.0
O39 O 0.27655 0.55296 0.75001 0.0
O40 O 0.38378 0.56608 0.78034 0.0
O41 O 0.2995 0.53958 0.56844 0.0
O42 O 0.39829 0.55395 0.59195 0.0
O43 O 0.34918 0.47816 0.69931 0.0
Sc44 Sc 0.89242 0.3138 0.09267 0.0
Sc45 Sc 0.95761 0.31688 0.19826 0.0
Sc46 Sc 0.91595 0.39085 0.15238 0.0
O47 O 0.92266 0.34061 0.14812 0.0
C48 C 0.89885 0.38356 0.02145 0.0
C49 C 0.96378 0.28598 0.06389 0.0
C50 C -0.00351 0.38563 0.17324 0.0
C51 C 0.90323 0.25917 0.19437 0.0
C52 C 0.84046 0.35979 0.15234 0.0
C53 C 0.92485 0.37109 0.2883 0.0
O54 O 0.88374 0.3556 0.03268 0.0
O55 O 0.97255 0.28631 0.11949 0.0
O56 O 0.9692 0.40171 0.16312 0.0
O57 O 0.89483 0.26679 0.14136 0.0
O58 O 0.86105 0.38493 0.14567 0.0
O59 O 0.94415 0.34568 0.27858 0.0
O60 O 0.84892 0.32896 0.14339 0.0
O61 O 0.92188 0.2784 0.22665 0.0
O62 O 0.91121 0.38823 0.24674 0.0
O63 O 0.93671 0.29967 0.04428 0.0
O64 O 0.92026 0.3969 0.05737 0.0
O65 O -0.00272 0.3535 0.1798 0.0
Sc66 Sc 0.16554 0.89418 0.62874 0.0
Sc67 Sc 0.15871 0.96334 0.72923 0.0
Sc68 Sc 0.08635 0.91852 0.67592 0.0
O69 O 0.13703 0.92584 0.67812 0.0
C70 C 0.10002 0.9026 0.54466 0.0
C71 C 0.19572 0.96779 0.60149 0.0
C72 C 0.09047 -0.0007 0.69348 0.0
C73 C 0.21509 0.90709 0.73989 0.0
C74 C 0.11363 0.84226 0.67817 0.0
C75 C 0.10335 0.92755 0.81396 0.0
O76 O 0.12804 0.88893 0.55851 0.0
O77 O 0.18962 0.98036 0.65341 0.0
O78 O 0.07531 0.97141 0.68129 0.0
O79 O 0.20695 0.89256 0.69105 0.0
O80 O 0.08995 0.86373 0.67183 0.0
O81 O 0.12923 0.94722 0.80693 0.0
O82 O 0.14482 0.85014 0.67206 0.0
O83 O 0.19896 0.93204 0.76121 0.0
O84 O 0.08612 0.91483 0.77081 0.0
O85 O 0.18718 0.93767 0.58512 0.0
O86 O 0.08383 0.92149 0.58051 0.0
O87 O 0.12161 0.00109 0.70807 0.0
Sc88 Sc 0.57878 0.30721 0.8445 0.0
Sc89 Sc 0.50685 0.30968 0.74962 0.0
Sc90 Sc 0.54964 0.38538 0.79367 0.0
O91 O 0.54491 0.33403 0.79586 0.0
C92 C 0.571 0.37371 0.92668 0.0
C93 C 0.50583 0.27624 0.87963 0.0
C94 C 0.4696 0.37808 0.78621 0.0
C95 C 0.56505 0.25471 0.73756 0.0
C96 C 0.62696 0.36073 0.78431 0.0
C97 C 0.53517 0.36449 0.65715 0.0
O98 O 0.58272 0.34445 0.91523 0.0
O99 O 0.49088 0.28272 0.83005 0.0
O100 O 0.49653 0.39372 0.80238 0.0
O101 O 0.58234 0.26606 0.78144 0.0
O102 O 0.60399 0.38328 0.78388 0.0
O103 O 0.52172 0.33539 0.66807 0.0
O104 O 0.62155 0.33017 0.80058 0.0
O105 O 0.53728 0.26778 0.72145 0.0
O106 O 0.5453 0.38519 0.69776 0.0
O107 O 0.53701 0.28338 0.89056 0.0
O108 O 0.55421 0.39084 0.8891 0.0
O109 O 0.46945 0.34786 0.76597 0.0
Sc110 Sc 0.08381 0.55761 0.32701 0.0
Sc111 Sc 0.1556 0.51319 0.28039 0.0
Sc112 Sc 0.16099 0.57788 0.38796 0.0
O113 O 0.13361 0.5488 0.33184 0.0
C114 C 0.11459 0.63194 0.33726 0.0
C115 C 0.10399 0.55208 0.19265 0.0
C116 C 0.21317 0.56906 0.28103 0.0
C117 C 0.08613 0.47799 0.294 0.0
C118 C 0.09121 0.56724 0.45965 0.0
C119 C 0.18939 0.50538 0.41138 0.0
O120 O 0.08971 0.61154 0.346 0.0
O121 O 0.12598 0.52881 0.20182 0.0
O122 O 0.20593 0.57892 0.33361 0.0
O123 O 0.07122 0.50616 0.30189 0.0
O124 O 0.11947 0.58246 0.45038 0.0
O125 O 0.18705 0.49641 0.35612 0.0
O126 O 0.07712 0.54792 0.42069 0.0
O127 O 0.11796 0.47479 0.30088 0.0
O128 O 0.17719 0.53292 0.43216 0.0
O129 O 0.08928 0.56816 0.23462 0.0
O130 O 0.14523 0.62275 0.34247 0.0
O131 O 0.19511 0.54754 0.2521 0.0
Sc132 Sc 0.90949 0.08303 0.79985 0.0
Sc133 Sc 0.95246 0.15717 0.7564 0.0
Sc134 Sc 0.88883 0.1591 0.86331 0.0
O135 O 0.91753 0.13312 0.80638 0.0
C136 C 0.83473 0.11186 0.80882 0.0
C137 C 0.91614 0.10381 0.66604 0.0
C138 C 0.89817 0.21323 0.75956 0.0
C139 C -0.01049 0.08957 0.77448 0.0
C140 C 0.89836 0.0888 0.93189 0.0
C141 C 0.96057 0.18914 0.88933 0.0
O142 O 0.85526 0.08726 0.81537 0.0
O143 O 0.9386 0.12704 0.67663 0.0
O144 O 0.89027 0.20582 0.81301 0.0
O145 O 0.96164 0.07304 0.77909 0.0
O146 O 0.88275 0.11646 0.92279 0.0
O147 O 0.96819 0.18913 0.83344 0.0
O148 O 0.9183 0.07599 0.89362 0.0
O149 O -0.00842 0.12177 0.77863 0.0
O150 O 0.93398 0.17456 0.90991 0.0
O151 O 0.90008 0.08822 0.70708 0.0
O152 O 0.84393 0.14289 0.8154 0.0
O153 O 0.91654 0.19429 0.72736 0.0
Sc154 Sc 0.39274 0.9291 0.32774 0.0
Sc155 Sc 0.31672 0.96877 0.29242 0.0
Sc156 Sc 0.31593 0.89801 0.38463 0.0
O157 O 0.34195 0.93186 0.33559 0.0
C158 C 0.37071 0.85146 0.31952 0.0
C159 C 0.36614 0.94238 0.19524 0.0
C160 C 0.2619 0.90888 0.28588 0.0
C161 C 0.38795 0.00578 0.3176 0.0
C162 C 0.3814 0.90925 0.4644 0.0
C163 C 0.28437 0.97122 0.4183 0.0
O164 O 0.38956 0.87623 0.30305 0.0
O165 O 0.33526 0.94798 0.20933 0.0
O166 O 0.27966 0.88763 0.31439 0.0
O167 O 0.39895 0.982 0.35047 0.0
O168 O 0.34954 0.90483 0.45882 0.0
O169 O 0.29787 -0.01141 0.37624 0.0
O170 O 0.40097 0.91602 0.42072 0.0
O171 O 0.35915 0.00358 0.29212 0.0
O172 O 0.28574 0.93875 0.42165 0.0
O173 O 0.39023 0.94126 0.23354 0.0
O174 O 0.34465 0.85493 0.35255 0.0
O175 O 0.27029 0.94007 0.28199 0.0
Sc176 Sc 0.41894 0.89498 0.83866 0.0
Sc177 Sc 0.46092 0.82176 0.78794 0.0
Sc178 Sc 0.39391 0.81652 0.89043 0.0
O179 O 0.4252 0.8443 0.83893 0.0
C180 C 0.40478 0.88417 0.9702 0.0
C181 C 0.49916 0.89041 0.81413 0.0
C182 C 0.46598 0.78622 0.91712 0.0
C183 C 0.4262 0.87674 0.70183 0.0
C184 C 0.34268 0.86699 0.84011 0.0
C185 C 0.40343 0.76527 0.7807 0.0
O186 O 0.42479 0.899 0.93396 0.0
O187 O 0.50025 0.85823 0.80943 0.0
O188 O 0.43731 0.79676 0.93546 0.0
O189 O 0.41238 0.89323 0.74427 0.0
O190 O 0.35046 0.83584 0.84505 0.0
O191 O 0.42697 0.78248 0.75626 0.0
O192 O 0.36416 0.89117 0.8481 0.0
O193 O 0.44633 0.85181 0.71008 0.0
O194 O 0.39132 0.77293 0.8315 0.0
O195 O 0.47183 0.90617 0.82498 0.0
O196 O 0.38974 0.85615 0.95745 0.0
O197 O 0.47684 0.7902 0.86351 0.0
Sc198 Sc 0.65832 0.389 0.35568 0.0
Sc199 Sc 0.65736 0.45664 0.25468 0.0
Sc200 Sc 0.5819 0.41399 0.29531 0.0
O201 O 0.63264 0.42033 0.30177 0.0
C202 C 0.60775 0.33754 0.30058 0.0
C203 C 0.71181 0.39888 0.25005 0.0
C204 C 0.60388 0.4228 0.16153 0.0
C205 C 0.69046 0.46095 0.38611 0.0
C206 C 0.58925 0.4006 0.42869 0.0
C207 C 0.58976 0.4945 0.27496 0.0
O208 O 0.63884 0.34542 0.30867 0.0
O209 O 0.69571 0.42265 0.22503 0.0
O210 O 0.58572 0.40787 0.20068 0.0
O211 O 0.6785 0.43229 0.40321 0.0
O212 O 0.5755 0.41992 0.39035 0.0
O213 O 0.62192 0.49582 0.2764 0.0
O214 O 0.61702 0.38529 0.41901 0.0
O215 O 0.68792 0.47195 0.33246 0.0
O216 O 0.57279 0.46694 0.28002 0.0
O217 O 0.70301 0.38639 0.30006 0.0
O218 O 0.58398 0.3591 0.3052 0.0
O219 O 0.629 0.44269 0.17392 0.0
Sc220 Sc 0.08094 0.66049 0.87409 0.0
Sc221 Sc 0.01032 0.65857 0.78038 0.0
Sc222 Sc 0.05044 0.5827 0.81738 0.0
O223 O 0.04719 0.63378 0.82462 0.0
C224 C 0.12733 0.60579 0.80933 0.0
C225 C 0.07098 0.71257 0.7717 0.0
C226 C 0.03509 0.60708 0.68419 0.0
C227 C 0.00848 0.69336 0.90529 0.0
C228 C 0.07048 0.59568 0.95444 0.0
C229 C 0.97358 0.58747 0.80831 0.0
O230 O 0.12381 0.63166 0.84322 0.0
O231 O 0.03984 0.70426 0.7664 0.0
O232 O 0.0378 0.58371 0.72321 0.0
O233 O 0.04075 0.69144 0.90987 0.0
O234 O 0.06408 0.57556 0.91076 0.0
O235 O 0.97538 0.61639 0.7835 0.0
O236 O 0.07412 0.62764 0.94855 0.0
O237 O -0.00885 0.6795 0.8631 0.0
O238 O -0.00212 0.57563 0.83916 0.0
O239 O 0.09146 0.69586 0.80371 0.0
O240 O 0.10282 0.58658 0.79248 0.0
O241 O 0.02944 0.63816 0.69758 0.0
Sc242 Sc 0.80863 0.08039 0.34586 0.0
Sc243 Sc 0.80857 0.00936 0.25233 0.0
Sc244 Sc 0.88524 0.04965 0.28998 0.0
O245 O 0.83426 0.04659 0.29655 0.0
C246 C 0.8644 0.12689 0.28106 0.0
C247 C 0.75612 0.06972 0.24218 0.0
C248 C 0.85987 0.03359 0.15666 0.0
C249 C 0.77593 0.00711 0.37864 0.0
C250 C 0.87366 0.07061 0.4263 0.0
C251 C 0.87805 0.97256 0.28256 0.0
O252 O 0.83818 0.12344 0.3139 0.0
O253 O 0.76356 0.03849 0.23762 0.0
O254 O 0.88341 0.03651 0.19585 0.0
O255 O 0.77794 0.03956 0.3832 0.0
O256 O 0.89332 0.06378 0.38294 0.0
O257 O 0.84985 0.97464 0.25542 0.0
O258 O 0.84187 0.07441 0.42031 0.0
O259 O 0.78826 -0.00986 0.3352 0.0
O260 O 0.89064 -0.00298 0.31321 0.0
O261 O 0.77286 0.09027 0.27533 0.0
O262 O 0.88293 0.10219 0.26492 0.0
O263 O 0.82876 0.02825 0.16985 0.0
Sc264 Sc 0.41876 0.58672 0.18532 0.0
Sc265 Sc 0.46136 0.6626 0.22775 0.0
Sc266 Sc 0.39212 0.66328 0.12892 0.0
O267 O 0.42443 0.63756 0.18132 0.0
C268 C 0.39827 0.59444 0.05428 0.0
C269 C 0.49939 0.59467 0.19476 0.0
C270 C 0.46366 0.69307 0.09415 0.0
C271 C 0.43289 0.60752 0.32066 0.0
C272 C 0.34234 0.61405 0.19072 0.0
C273 C 0.40602 0.71897 0.23052 0.0
O274 O 0.4191 0.58075 0.08982 0.0
O275 O 0.50026 0.62632 0.20693 0.0
O276 O 0.43485 0.68069 0.07796 0.0
O277 O 0.41905 0.58838 0.28106 0.0
O278 O 0.34963 0.6452 0.1804 0.0
O279 O 0.42775 0.70171 0.25876 0.0
O280 O 0.36387 0.59014 0.18622 0.0
O281 O 0.4494 0.63486 0.30871 0.0
O282 O 0.39388 0.7097 0.18032 0.0
O283 O 0.47199 0.57794 0.18602 0.0
O284 O 0.38346 0.62207 0.06649 0.0
O285 O 0.47503 0.692 0.14803 0.0
Sc286 Sc 0.88946 0.42252 0.66384 0.0
Sc287 Sc 0.81307 0.46305 0.69469 0.0
Sc288 Sc 0.81353 0.39252 0.60014 0.0
O289 O 0.83882 0.42604 0.65226 0.0
C290 C 0.8805 0.4031 0.5259 0.0
C291 C 0.88505 0.49937 0.67381 0.0
C292 C 0.78197 0.46555 0.56719 0.0
C293 C 0.86132 0.4379 0.79475 0.0
C294 C 0.86606 0.34547 0.66897 0.0
C295 C 0.75827 0.40283 0.69675 0.0
O296 O 0.89937 0.40898 0.57131 0.0
O297 O 0.85556 0.49777 0.69634 0.0
O298 O 0.78399 0.4332 0.56241 0.0
O299 O 0.88567 0.43516 0.75768 0.0
O300 O 0.84123 0.3492 0.63295 0.0
O301 O 0.76685 0.43389 0.70334 0.0
O302 O 0.88471 0.36997 0.68783 0.0
O303 O 0.83067 0.44335 0.77893 0.0
O304 O 0.77597 0.38198 0.66708 0.0
O305 O 0.89718 0.47516 0.64292 0.0
O306 O 0.84847 0.39963 0.52882 0.0
O307 O 0.79463 0.48277 0.61071 0.0
Sc308 Sc 0.05333 0.88794 0.18461 0.0
Sc309 Sc 0.01539 0.81061 0.22427 0.0
Sc310 Sc 0.08473 0.811 0.12838 0.0
O311 O 0.05119 0.83664 0.17826 0.0
C312 C 0.07253 0.87637 0.04812 0.0
C313 C 0.97655 0.87924 0.19745 0.0
C314 C 0.01135 0.77732 0.09757 0.0
C315 C 0.04292 0.86246 0.31857 0.0
C316 C 0.13127 0.86778 0.19137 0.0
C317 C 0.07532 0.75795 0.23081 0.0
O318 O 0.06371 0.89558 0.09112 0.0
O319 O 0.98 0.85123 0.22425 0.0
O320 O 0.0435 0.78062 0.091 0.0
O321 O 0.04403 0.88616 0.2798 0.0
O322 O 0.12762 0.83982 0.16273 0.0
O323 O 0.04451 0.76586 0.23706 0.0
O324 O 0.10674 0.88739 0.20374 0.0
O325 O 0.03662 0.83132 0.30556 0.0
O326 O 0.09532 0.77443 0.19706 0.0
O327 O -1e-05 0.89267 0.16637 0.0
O328 O 0.07905 0.84496 0.05431 0.0
O329 O -0.00509 0.78933 0.14199 0.0
Sc330 Sc 0.58173 0.05568 0.63414 0.0
Sc331 Sc 0.65165 0.01086 0.68935 0.0
Sc332 Sc 0.66153 0.07756 0.58766 0.0
O333 O 0.63198 0.04722 0.6367 0.0
C334 C 0.59732 0.05991 0.5028 0.0
C335 C 0.58268 0.977 0.67117 0.0
C336 C 0.69197 0.00439 0.56579 0.0
C337 C 0.5977 0.05185 0.7691 0.0
C338 C 0.60938 0.13035 0.62697 0.0
C339 C 0.70817 0.06878 0.70318 0.0
O340 O 0.57945 0.04392 0.54109 0.0
O341 O 0.61422 0.97345 0.66267 0.0
O342 O 0.68418 0.03404 0.54803 0.0
O343 O 0.58459 0.06811 0.72583 0.0
O344 O 0.64036 0.12205 0.628 0.0
O345 O 0.6914 0.04368 0.72397 0.0
O346 O 0.58619 0.10916 0.61204 0.0
O347 O 0.61935 0.02792 0.76289 0.0
O348 O 0.70146 0.08218 0.65301 0.0
O349 O 0.56807 0.00507 0.66168 0.0
O350 O 0.62451 0.07645 0.51606 0.0
O351 O 0.68464 -0.00735 0.61758 0.0
C352 C 0.55626 0.25783 0.26819 0.0
C353 C 0.57894 0.23946 0.23239 0.0
H354 H 0.54767 0.30376 0.31774 0.0
C355 C 0.61214 0.25207 0.22398 0.0
H356 H 0.5305 0.24862 0.27525 0.0
C357 C 0.62211 0.28327 0.24898 0.0
C358 C 0.59879 0.30263 0.28173 0.0
H359 H 0.63017 0.23817 0.19692 0.0
H360 H 0.64753 0.29295 0.24023 0.0
C361 C 0.56601 0.28938 0.29219 0.0
C362 C 0.22178 0.59175 0.80239 0.0
C363 C 0.22574 0.58315 0.7417 0.0
H364 H 0.18702 0.60661 0.87135 0.0
C365 C 0.19738 0.58261 0.70337 0.0
H366 H 0.24345 0.59223 0.83257 0.0
C367 C 0.16524 0.58969 0.7258 0.0
C368 C 0.16124 0.5984 0.78639 0.0
H369 H 0.19993 0.57571 0.65651 0.0
H370 H 0.14352 0.58864 0.69572 0.0
C371 C 0.18972 0.59994 0.82443 0.0
C372 C 0.87221 0.18951 0.29753 0.0
C373 C 0.87356 0.16099 0.25933 0.0
H374 H 0.88159 0.24334 0.307 0.0
C375 C 0.88439 0.16504 0.19997 0.0
H376 H 0.86406 0.1868 0.3436 0.0
C377 C 0.89346 0.1972 0.1788 0.0
C378 C 0.8928 0.22565 0.21718 0.0
H379 H 0.8855 0.14335 0.16975 0.0
H380 H 0.90165 0.19975 0.1327 0.0
C381 C 0.88234 0.22163 0.27682 0.0
C382 C 0.28864 0.8525 0.78667 0.0
C383 C 0.30808 0.87571 0.82104 0.0
H384 H 0.24384 0.84443 0.73353 0.0
C385 C 0.29531 0.90833 0.83282 0.0
H386 H 0.29794 0.82721 0.77684 0.0
C387 C 0.2642 0.91804 0.80864 0.0
C388 C 0.2457 0.8955 0.77141 0.0
H389 H 0.30973 0.92661 0.8596 0.0
H390 H 0.2554 0.94369 0.81697 0.0
C391 C 0.25783 0.86242 0.7616 0.0
C392 C 0.611 0.21362 0.71235 0.0
C393 C 0.57739 0.22458 0.70471 0.0
H394 H 0.64772 0.1755 0.69265 0.0
C395 C 0.55539 0.20594 0.66662 0.0
H396 H 0.62869 0.22767 0.74086 0.0
C397 C 0.56628 0.17601 0.63914 0.0
C398 C 0.59948 0.16436 0.64864 0.0
H399 H 0.52939 0.2138 0.65955 0.0
H400 H 0.54837 0.16154 0.61171 0.0
C401 C 0.62201 0.18389 0.6843 0.0
C402 C 0.29387 0.5729 0.19098 0.0
C403 C 0.30772 0.60452 0.20904 0.0
H404 H 0.25265 0.53714 0.19891 0.0
C405 C 0.28927 0.6255 0.24782 0.0
H406 H 0.30762 0.55639 0.16073 0.0
C407 C 0.25811 0.61419 0.27063 0.0
C408 C 0.24468 0.58212 0.25375 0.0
H409 H 0.29957 0.64994 0.26245 0.0
H410 H 0.24472 0.63033 0.30197 0.0
C411 C 0.26242 0.56195 0.21261 0.0
C412 C 0.87149 0.28274 0.65368 0.0
C413 C 0.87303 0.31131 0.69179 0.0
H414 H 0.8791 0.22884 0.64538 0.0
C415 C 0.88175 0.30725 0.75232 0.0
H416 H 0.86486 0.28545 0.60678 0.0
C417 C 0.88887 0.27504 0.77458 0.0
C418 C 0.88831 0.24656 0.73625 0.0
H419 H 0.88285 0.32899 0.78252 0.0
H420 H 0.89577 0.27255 0.82142 0.0
C421 C 0.87966 0.25056 0.6756 0.0
C422 C 0.19044 0.85347 0.2235 0.0
C423 C 0.16544 0.87796 0.21241 0.0
H424 H 0.24074 0.84401 0.25635 0.0
C425 C 0.17284 0.91247 0.22385 0.0
H426 H 0.18527 0.82665 0.2153 0.0
C427 C 0.20445 0.92235 0.24656 0.0
C428 C 0.22922 0.8979 0.25917 0.0
H429 H 0.15412 0.93191 0.21542 0.0
H430 H 0.20915 0.94919 0.25547 0.0
C431 C 0.22204 0.86335 0.24725 0.0
C432 C 0.34851 0.68874 0.73862 0.0
C433 C 0.37038 0.67094 0.70041 0.0
H434 H 0.34209 0.73263 0.79493 0.0
C435 C 0.40197 0.68552 0.68539 0.0
H436 H 0.32409 0.67787 0.7511 0.0
C437 C 0.41205 0.71691 0.70961 0.0
C438 C 0.39102 0.73395 0.75038 0.0
H439 H 0.41921 0.67231 0.65575 0.0
H440 H 0.43691 0.72711 0.69825 0.0
C441 C 0.35891 0.71987 0.76397 0.0
C442 C 0.75992 0.40788 0.17951 0.0
C443 C 0.74317 0.38692 0.22118 0.0
H444 H 0.80391 0.41556 0.12515 0.0
C445 C 0.75742 0.35541 0.23633 0.0
H446 H 0.74962 0.43229 0.16683 0.0
C447 C 0.78839 0.34556 0.21144 0.0
C448 C 0.80578 0.36741 0.1721 0.0
H449 H 0.74491 0.33865 0.268 0.0
H450 H 0.79942 0.32162 0.22497 0.0
C451 C 0.79104 0.39836 0.15568 0.0
C452 C 0.12778 0.78587 0.72308 0.0
C453 C 0.10403 0.8074 0.69602 0.0
H454 H 0.13597 0.73882 0.76862 0.0
C455 C 0.0701 0.7963 0.68988 0.0
H456 H 0.15412 0.7938 0.72839 0.0
C457 C 0.05975 0.76495 0.71264 0.0
C458 C 0.08304 0.74407 0.74244 0.0
H459 H 0.05127 0.81216 0.6686 0.0
H460 H 0.03319 0.75762 0.70836 0.0
C461 C 0.11734 0.75448 0.74632 0.0
C462 C 0.67871 0.06988 0.14165 0.0
C463 C 0.66689 0.10321 0.14938 0.0
H464 H 0.716 0.03327 0.16463 0.0
C465 C 0.68597 0.12639 0.18462 0.0
H466 H 0.66471 0.05147 0.11448 0.0
C467 C 0.71545 0.11585 0.21397 0.0
C468 C 0.72636 0.082 0.20838 0.0
H469 H 0.67739 0.15224 0.19159 0.0
H470 H 0.72914 0.13396 0.24222 0.0
C471 C 0.7081 0.05941 0.17071 0.0
C472 C 0.37938 0.78926 0.33631 0.0
C473 C 0.37903 0.81728 0.29743 0.0
H474 H 0.3893 0.73578 0.34561 0.0
C475 C 0.38724 0.81267 0.23686 0.0
H476 H 0.37325 0.79243 0.38329 0.0
C477 C 0.39532 0.78041 0.21517 0.0
C478 C 0.39639 0.75247 0.25412 0.0
H479 H 0.38702 0.83398 0.20615 0.0
H480 H 0.40146 0.77741 0.16814 0.0
C481 C 0.38863 0.75709 0.31495 0.0
C482 C 0.68484 0.3464 0.74595 0.0
C483 C 0.66127 0.37087 0.76457 0.0
H484 H 0.7342 0.33731 0.70939 0.0
C485 C 0.67039 0.40556 0.76287 0.0
H486 H 0.67844 0.31947 0.74674 0.0
C487 C 0.70218 0.4157 0.74208 0.0
C488 C 0.72551 0.39141 0.72193 0.0
H489 H 0.65289 0.42501 0.77741 0.0
H490 H 0.70814 0.44272 0.74072 0.0
C491 C 0.71667 0.35661 0.72442 0.0
C492 C 0.06502 0.71015 0.30133 0.0
C493 C 0.08741 0.72774 0.26308 0.0
H494 H 0.05638 0.66634 0.3555 0.0
C495 C 0.1205 0.71545 0.255 0.0
H496 H 0.03952 0.71915 0.30949 0.0
C497 C 0.13028 0.68508 0.28216 0.0
C498 C 0.107 0.6666 0.31733 0.0
H499 H 0.13842 0.72865 0.2263 0.0
H500 H 0.15538 0.67525 0.27321 0.0
C501 C 0.07467 0.67988 0.32796 0.0
C502 C 0.78557 0.07133 0.80354 0.0
C503 C 0.79976 0.10338 0.78974 0.0
H504 H 0.74512 0.03544 0.78763 0.0
C505 C 0.78185 0.1254 0.75207 0.0
H506 H 0.79882 0.05396 0.83284 0.0
C507 C 0.75134 0.11458 0.72541 0.0
C508 C 0.738 0.08182 0.73688 0.0
H509 H 0.79232 0.15018 0.74058 0.0
H510 H 0.73869 0.13151 0.69454 0.0
C511 C 0.75481 0.06076 0.77778 0.0
C512 C 0.56604 0.10587 0.89499 0.0
C513 C 0.56619 0.08282 0.94253 0.0
H514 H 0.57641 0.11399 0.80273 0.0
C515 C 0.57526 0.04877 0.9328 0.0
H516 H 0.55928 0.1323 0.90204 0.0
C517 C 0.58582 0.03833 0.87607 0.0
C518 C 0.58674 0.06182 0.82895 0.0
H519 H 0.57594 0.03085 0.96954 0.0
H520 H 0.59344 0.01216 0.86916 0.0
C521 C 0.57604 0.09541 0.83852 0.0
C522 C 0.41123 0.61566 0.48364 0.0
C523 C 0.40474 0.5815 0.49858 0.0
H524 H 0.42621 0.65071 0.41528 0.0
C525 C 0.41175 0.55558 0.45732 0.0
H526 H 0.40586 0.63595 0.51527 0.0
C527 C 0.42266 0.56402 0.39976 0.0
C528 C 0.4273 0.5984 0.3836 0.0
H529 H 0.40662 0.52913 0.46819 0.0
H530 H 0.4262 0.54379 0.36721 0.0
C531 C 0.42289 0.62406 0.42671 0.0
C532 C 0.8548 0.39835 0.94658 0.0
C533 C 0.88847 0.4019 0.96743 0.0
H534 H 0.81946 0.40808 0.87586 0.0
C535 C 0.91181 0.4217 0.93507 0.0
H536 H 0.83615 0.38371 0.97156 0.0
C537 C 0.90227 0.43545 0.88004 0.0
C538 C 0.86911 0.43014 0.85753 0.0
H539 H 0.93778 0.425 0.95068 0.0
H540 H 0.92119 0.44907 0.85395 0.0
C541 C 0.8451 0.41264 0.8923 0.0
C542 C 0.0479 0.90436 0.40251 0.0
C543 C 0.05361 0.87146 0.37965 0.0
H544 H 0.05811 0.94011 0.47366 0.0
C545 C 0.07355 0.84873 0.4123 0.0
H546 H 0.03261 0.92231 0.37779 0.0
C547 C 0.08886 0.85923 0.46571 0.0
C548 C 0.08386 0.89235 0.48795 0.0
H549 H 0.07862 0.82339 0.39521 0.0
H550 H 0.10464 0.84137 0.48966 0.0
C551 C 0.06258 0.9146 0.45686 0.0
C552 C 0.61326 0.38815 0.00575 0.0
C553 C 0.57956 0.38914 0.98481 0.0
H554 H 0.64763 0.39951 0.07824 0.0
C555 C 0.55446 0.40418 0.02019 0.0
H556 H 0.63302 0.37689 0.97863 0.0
C557 C 0.56268 0.41636 0.07747 0.0
C558 C 0.59627 0.41471 0.0988 0.0
H559 H 0.52836 0.4052 0.00459 0.0
H560 H 0.54275 0.42648 0.10558 0.0
C561 C 0.62168 0.40133 0.06212 0.0
C562 C 0.05433 0.5537 0.54763 0.0
C563 C 0.07231 0.57748 0.51313 0.0
H564 H 0.02802 0.54468 0.63004 0.0
C565 C 0.07366 0.61184 0.53125 0.0
H566 H 0.05277 0.52716 0.53402 0.0
C567 C 0.05901 0.62203 0.58495 0.0
C568 C 0.04334 0.59786 0.62202 0.0
H569 H 0.08688 0.63077 0.50451 0.0
H570 H 0.06188 0.64839 0.59909 0.0
C571 C 0.04022 0.56377 0.60223 0.0
C572 C 0.91275 0.0533 0.02054 0.0
C573 C 0.88849 0.06923 0.98464 0.0
H574 H 0.92244 0.02905 0.10447 0.0
C575 C 0.85413 0.0686 0.00146 0.0
H576 H 0.93931 0.05333 0.00783 0.0
C577 C 0.84436 0.05435 0.05564 0.0
C578 C 0.86895 0.04107 0.09433 0.0
H579 H 0.83492 0.08024 0.97354 0.0
H580 H 0.81793 0.05583 0.06883 0.0
C581 C 0.90305 0.03952 0.07554 0.0
C582 C 0.38693 0.9054 0.6316 0.0
C583 C 0.41684 0.8868 0.64048 0.0
H584 H 0.35268 0.92733 0.56877 0.0
C585 C 0.43681 0.8781 0.59073 0.0
H586 H 0.3709 0.91253 0.66888 0.0
C587 C 0.42645 0.88722 0.53293 0.0
C588 C 0.39576 0.90452 0.52446 0.0
H589 H 0.46012 0.86404 0.59642 0.0
H590 H 0.44155 0.87942 0.49485 0.0
C591 C 0.37644 0.91395 0.57427 0.0
C592 C 0.41747 0.92297 0.05717 0.0
C593 C 0.39466 0.90176 0.02551 0.0
H594 H 0.42607 0.95283 0.13665 0.0
C595 C 0.36124 0.89746 0.04666 0.0
H596 H 0.44321 0.92694 0.04132 0.0
C597 C 0.35115 0.91294 0.09988 0.0
C598 C 0.37451 0.93243 0.13352 0.0
H599 H 0.3429 0.88179 0.02229 0.0
H600 H 0.32565 0.9081 0.11626 0.0
C601 C 0.40759 0.93786 0.1113 0.0
C602 C 0.55812 0.41705 0.52164 0.0
C603 C 0.57086 0.3918 0.48359 0.0
H604 H 0.53672 0.42799 0.60775 0.0
C605 C 0.56784 0.35735 0.49983 0.0
H606 H 0.56017 0.44373 0.50968 0.0
C607 C 0.55369 0.34827 0.55469 0.0
C608 C 0.54315 0.37358 0.59484 0.0
H609 H 0.57723 0.33746 0.47056 0.0
H610 H 0.55297 0.32161 0.56716 0.0
C611 C 0.54477 0.40802 0.57742 0.0
C612 C 0.09132 0.55026 0.02376 0.0
C613 C 0.0759 0.58197 0.01484 0.0
H614 H 0.11311 0.51591 0.0876 0.0
C615 C 0.06895 0.60279 0.06441 0.0
H616 H 0.09721 0.53393 0.98599 0.0
C617 C 0.07805 0.59273 0.12167 0.0
C618 C 0.09453 0.5616 0.13099 0.0
H619 H 0.05701 0.62732 0.05882 0.0
H620 H 0.07271 0.60987 0.1586 0.0
C621 C 0.10082 0.5402 0.0816 0.0
C622 C 0.86844 0.06477 0.53561 0.0
C623 C 0.8877 0.07572 0.48664 0.0
H624 H 0.86221 0.06508 0.62993 0.0
C625 C 0.91768 0.09488 0.49641 0.0
H626 H 0.84524 0.04994 0.52906 0.0
C627 C 0.92739 0.1042 0.55483 0.0
C628 C 0.90741 0.09399 0.60384 0.0
H629 H 0.93265 0.1039 0.45892 0.0
H630 H 0.95015 0.11963 0.56154 0.0
C631 C 0.87822 0.07362 0.59344 0.0
C632 C 0.34761 0.56419 0.9209 0.0
C633 C 0.3736 0.55539 0.88128 0.0
H634 H 0.33553 0.5842 0.0076 0.0
C635 C 0.4076 0.55602 0.90093 0.0
H636 H 0.3213 0.56404 0.90627 0.0
C637 C 0.41567 0.56672 0.95906 0.0
C638 C 0.38987 0.57784 -0.00279 0.0
H639 H 0.42794 0.54921 0.87069 0.0
H640 H 0.4421 0.56818 0.97294 0.0
C641 C 0.35577 0.57585 0.97837 0.0
C642 C 0.93447 0.36928 0.40008 0.0
C643 C 0.91628 0.38119 0.35018 0.0
H644 H 0.93777 0.36786 0.49629 0.0
C645 C 0.88868 0.40306 0.35938 0.0
H646 H 0.95599 0.35266 0.3943 0.0
C647 C 0.87844 0.41153 0.41686 0.0
C648 C 0.89572 0.39875 0.46663 0.0
H649 H 0.87405 0.41286 0.32217 0.0
H650 H 0.85626 0.42736 0.42244 0.0
C651 C 0.92436 0.37827 0.45818 0.0
C652 C 0.10047 0.93629 0.92544 0.0
C653 C 0.09389 0.91615 0.87441 0.0
H654 H 0.09776 0.93963 0.02136 0.0
C655 C 0.07841 0.88386 0.88103 0.0
H656 H 0.11226 0.96128 0.9214 0.0
C657 C 0.07061 0.87144 0.93756 0.0
C658 C 0.0775 0.89127 -0.01138 0.0
H659 H 0.07321 0.86762 0.84252 0.0
H660 H 0.05956 0.84608 0.9414 0.0
C661 C 0.09191 0.92406 0.98229 0.0
C662 C 0.55068 0.07301 0.4316 0.0
C663 C 0.5846 0.06391 0.44197 0.0
H664 H 0.51469 0.09199 0.36777 0.0
C665 C 0.60808 0.06481 0.39512 0.0
H666 H 0.5324 0.07298 0.4678 0.0
C667 C 0.59823 0.07583 0.33893 0.0
C668 C 0.56473 0.08645 0.32873 0.0
H669 H 0.63443 0.05812 0.40259 0.0
H670 H 0.61719 0.0769 0.30385 0.0
C671 C 0.5408 0.08451 0.37509 0.0
C672 C 0.44707 0.02088 0.28875 0.0
C673 C 0.41261 0.02957 0.29023 0.0
H674 H 0.49529 0.02886 0.24811 0.0
C675 C 0.40113 0.05623 0.25354 0.0
H676 H 0.45679 0.00037 0.31597 0.0
C677 C 0.4233 0.0725 0.21374 0.0
C678 C 0.45717 0.06205 0.20947 0.0
H679 H 0.37463 0.06343 0.25358 0.0
H680 H 0.4138 0.09264 0.18547 0.0
C681 C 0.46897 0.03667 0.24849 0.0
C682 C 0.43784 0.4307 0.80646 0.0
C683 C 0.43933 0.39904 0.77726 0.0
H684 H 0.41854 0.48119 0.80463 0.0
C685 C 0.417 0.392 0.72898 0.0
H686 H 0.45435 0.43666 0.84423 0.0
C687 C 0.39642 0.41773 0.70608 0.0
C688 C 0.39843 0.45049 0.73112 0.0
H689 H 0.41763 0.36775 0.70559 0.0
H690 H 0.38086 0.41273 0.66673 0.0
C691 C 0.41779 0.45629 0.78323 0.0
C692 C 0.04878 0.39431 0.23646 0.0
C693 C 0.02625 0.40637 0.19219 0.0
H694 H 0.08554 0.40782 0.30484 0.0
C695 C 0.0272 0.44103 0.17743 0.0
H696 H 0.04851 0.36768 0.24904 0.0
C697 C 0.04734 0.46371 0.21034 0.0
C698 C 0.06741 0.45227 0.25825 0.0
H699 H 0.01052 0.45107 0.14318 0.0
H700 H 0.04645 0.49056 0.19922 0.0
C701 C 0.06949 0.41721 0.26914 0.0
C702 C 0.03643 0.02901 0.67631 0.0
C703 C 0.06884 0.02912 0.70272 0.0
H704 H -0.01408 0.04785 0.67983 0.0
C705 C 0.07667 0.05319 0.74805 0.0
H706 H 0.02982 0.01111 0.64081 0.0
C707 C 0.05128 0.07439 0.77059 0.0
C708 C 0.01802 0.07121 0.74832 0.0
H709 H 0.10149 0.05373 0.76931 0.0
H710 H 0.05706 0.09155 0.80758 0.0
C711 C 0.01121 0.04964 0.69924 0.0
C712 C 0.54533 0.96737 0.75839 0.0
C713 C 0.56511 0.9534 0.71221 0.0
H714 H 0.51069 0.95821 0.82982 0.0
C715 C 0.56875 0.91795 0.70878 0.0
H716 H 0.54326 -0.00528 0.76399 0.0
C717 C 0.54988 0.89676 0.7471 0.0
C718 C 0.52765 0.91093 0.78979 0.0
H719 H 0.58468 0.90668 0.67471 0.0
H720 H 0.55082 0.86944 0.74022 0.0
C721 C 0.52713 0.94644 0.79704 0.0
C722 C 0.5736 0.55622 0.2738 0.0
C723 C 0.57181 0.52333 0.24909 0.0
H724 H 0.55167 0.60602 0.27423 0.0
C725 C 0.55199 0.51714 0.19766 0.0
H726 H 0.58943 0.56152 0.31269 0.0
C727 C 0.53151 0.54245 0.17464 0.0
C728 C 0.53004 0.57427 0.20329 0.0
H729 H 0.5513 0.49215 0.1766 0.0
H730 H 0.51467 0.53619 0.13746 0.0
C731 C 0.55254 0.58169 0.25109 0.0
C732 C 0.89707 0.55524 0.72323 0.0
C733 C 0.90866 0.52349 0.70309 0.0
H734 H 0.90848 0.60038 0.77445 0.0
C735 C 0.94037 0.51182 0.72286 0.0
H736 H 0.87229 0.56432 0.70982 0.0
C737 C 0.96013 0.53151 0.7621 0.0
C738 C 0.9489 0.56357 0.78132 0.0
H739 H 0.94942 0.48692 0.70969 0.0
H740 H 0.98491 0.52227 0.77518 0.0
C741 C 0.91725 0.57535 0.7614 0.0
C742 C 0.90167 0.93726 0.20117 0.0
C743 C 0.90067 0.94558 0.26269 0.0
H744 H 0.92752 0.91002 0.13154 0.0
C745 C 0.92382 0.93096 0.30228 0.0
H746 H 0.88442 0.94896 0.16959 0.0
C747 C 0.94777 0.90826 0.28051 0.0
C748 C 0.94941 0.90089 0.21882 0.0
H749 H 0.92368 0.93746 0.34954 0.0
H750 H 0.96587 0.89738 0.31155 0.0
C751 C 0.92632 0.91539 0.17917 0.0
C752 C 0.48705 0.24648 0.0334 0.0
C753 C 0.48538 0.21128 0.0224 0.0
H754 H 0.49494 0.29568 -0.00567 0.0
C755 C 0.47934 0.19948 0.96363 0.0
H756 H 0.49232 0.25608 0.07819 0.0
C757 C 0.48042 0.2222 0.91558 0.0
C758 C 0.48802 0.25672 0.92614 0.0
H759 H 0.47857 0.17235 0.95414 0.0
H760 H 0.48013 0.21208 0.87027 0.0
C761 C 0.48883 0.26911 0.98534 0.0
C762 C 0.20454 0.48402 0.51174 0.0
C763 C 0.21364 0.48864 0.45143 0.0
H764 H 0.22105 0.48705 0.60319 0.0
C765 C 0.24818 0.49035 0.43627 0.0
H766 H 0.17797 0.48293 0.52439 0.0
C767 C 0.27277 0.49372 0.48141 0.0
C768 C 0.26303 0.49446 0.54196 0.0
H769 H 0.25579 0.49429 0.39016 0.0
H770 H 0.2988 0.4995 0.4689 0.0
C771 C 0.22922 0.48659 0.55688 0.0
C772 C 0.98257 0.272 0.96079 0.0
C773 C 0.98036 0.26267 0.02146 0.0
H774 H 0.97928 0.25492 0.86958 0.0
C775 C 0.98283 0.22816 0.03672 0.0
H776 H 0.98063 0.29851 0.94802 0.0
C777 C 0.98143 0.20318 -0.00822 0.0
C778 C 0.97827 0.21255 0.93126 0.0
H779 H 0.98089 0.22028 0.08307 0.0
H780 H 0.97873 0.1767 0.0047 0.0
C781 C 0.98186 0.24701 0.91582 0.0
C782 C 0.22882 -0.00869 0.45268 0.0
C783 C 0.26369 -0.01207 0.46399 0.0
H784 H 0.17882 -0.01168 0.49005 0.0
C785 C 0.27558 -0.01142 0.52342 0.0
H786 H 0.21914 -0.00991 0.40714 0.0
C787 C 0.25252 -0.01183 0.57098 0.0
C788 C 0.21748 0.98632 0.55919 0.0
H789 H 0.30238 0.98523 0.53294 0.0
H790 H 0.26207 0.98441 0.61607 0.0
C791 C 0.20577 -0.00971 0.50011 0.0
C792 C 0.48146 0.70413 -0.01045 0.0
C793 C 0.4809 0.71471 0.04982 0.0
H794 H 0.47918 0.71982 0.89791 0.0
C795 C 0.48709 0.74913 0.06389 0.0
H796 H 0.47666 0.67764 0.97782 0.0
C797 C 0.4879 0.77331 0.01814 0.0
C798 C 0.48336 0.76308 0.95815 0.0
H799 H 0.48648 0.75789 0.11002 0.0
H800 H 0.48775 0.80012 0.03011 0.0
C801 C 0.48314 0.72824 0.9438 0.0
C802 C 0.72562 0.48434 0.53531 0.0
C803 C 0.7604 0.48202 0.52272 0.0
H804 H 0.67513 0.47973 0.49963 0.0
C805 C 0.77134 0.48298 0.46296 0.0
H806 H 0.71671 0.48291 0.58114 0.0
C807 C 0.74755 0.4818 0.41621 0.0
C808 C 0.71278 0.47873 0.42923 0.0
H809 H 0.79809 0.48046 0.4525 0.0
H810 H 0.75651 0.47852 0.3707 0.0
C811 C 0.70186 0.48237 0.48871 0.0
C812 C -0.01092 0.70043 0.00919 0.0
C813 C -0.00814 0.71389 0.95125 0.0
H814 H -0.00813 0.71123 0.10338 0.0
C815 C -0.00901 0.74928 0.94329 0.0
H816 H -0.0094 0.67317 0.01616 0.0
C817 C -0.00793 0.771 -0.00691 0.0
C818 C -0.00632 0.75743 0.05106 0.0
H819 H -0.00601 0.76009 0.899 0.0
H820 H -0.00422 0.79812 0.98613 0.0
C821 C -0.01017 0.72218 0.05903 0.0
C822 C 0.72328 0.9807 0.41766 0.0
C823 C 0.75758 -0.01055 0.42645 0.0
H824 H 0.67432 0.97698 0.45875 0.0
C825 C 0.77087 -0.00884 0.4849 0.0
H826 H 0.71255 0.97978 0.37285 0.0
C827 C 0.74914 -0.01119 0.5341 0.0
C828 C 0.71396 0.98563 0.52489 0.0
H829 H 0.79728 -0.00169 0.49236 0.0
H830 H 0.7592 -0.00522 0.5783 0.0
C831 C 0.70148 0.97884 0.46685 0.0
loop_
_geom_bond_atom_site_label_1
_geom_bond_atom_site_label_2
_geom_bond_distance
_geom_bond_site_symmetry_2
_ccdc_geom_bond_type
Sc0 O3 2.025 . S
Sc0 O10 2.105 . S
Sc0 O13 2.105 . S
Sc0 O16 2.105 . S
Sc0 O19 2.105 . S
Sc1 O3 2.025 . S
Sc1 O11 2.105 . S
Sc1 O15 2.105 . S
Sc1 O17 2.105 . S
Sc1 O21 2.105 . S
Sc2 O3 2.025 . S
Sc2 O12 2.105 . S
Sc2 O14 2.105 . S
Sc2 O18 2.105 . S
Sc2 O20 2.105 . S
O3 Sc0 2.025 . S
O3 Sc1 2.025 . S
O3 Sc2 2.025 . S
C4 O10 1.268 . S
C4 O20 1.268 . S
C5 O11 1.268 . S
C5 O19 1.268 . S
C6 O12 1.268 . S
C6 O21 1.268 . S
C7 O13 1.268 . S
C7 O17 1.268 . S
C8 O14 1.268 . S
C8 O16 1.268 . S
C9 O15 1.268 . S
C9 O18 1.268 . S
O10 Sc0 2.105 . S
O10 C4 1.268 . S
O11 Sc1 2.105 . S
O11 C5 1.268 . S
O12 Sc2 2.105 . S
O12 C6 1.268 . S
O13 Sc0 2.105 . S
O13 C7 1.268 . S
O14 Sc2 2.105 . S
O14 C8 1.268 . S
O15 Sc1 2.105 . S
O15 C9 1.268 . S
O16 Sc0 2.105 . S
O16 C8 1.268 . S
O17 Sc1 2.105 . S
O17 C7 1.268 . S
O18 Sc2 2.105 . S
O18 C9 1.268 . S
O19 Sc0 2.105 . S
O19 C5 1.268 . S
O20 Sc2 2.105 . S
O20 C4 1.268 . S
O21 Sc1 2.105 . S
O21 C6 1.268 . S
Sc22 O25 2.025 . S
Sc22 O32 2.105 . S
Sc22 O35 2.105 . S
Sc22 O38 2.105 . S
Sc22 O41 2.105 . S
Sc23 O25 2.025 . S
Sc23 O33 2.105 . S
Sc23 O37 2.105 . S
Sc23 O39 2.105 . S
Sc23 O43 2.105 . S
Sc24 O25 2.025 . S
Sc24 O34 2.105 . S
Sc24 O36 2.105 . S
Sc24 O40 2.105 . S
Sc24 O42 2.105 . S
O25 Sc22 2.025 . S
O25 Sc23 2.025 . S
O25 Sc24 2.025 . S
C26 O32 1.268 . S
C26 O42 1.268 . S
C27 O33 1.268 . S
C27 O41 1.268 . S
C28 O34 1.268 . S
C28 O43 1.268 . S
C29 O35 1.268 . S
C29 O39 1.268 . S
C30 O36 1.268 . S
C30 O38 1.268 . S
C31 O37 1.268 . S
C31 O40 1.268 . S
O32 Sc22 2.105 . S
O32 C26 1.268 . S
O33 Sc23 2.105 . S
O33 C27 1.268 . S
O34 Sc24 2.105 . S
O34 C28 1.268 . S
O35 Sc22 2.105 . S
O35 C29 1.268 . S
O36 Sc24 2.105 . S
O36 C30 1.268 . S
O37 Sc23 2.105 . S
O37 C31 1.268 . S
O38 Sc22 2.105 . S
O38 C30 1.268 . S
O39 Sc23 2.105 . S
O39 C29 1.268 . S
O40 Sc24 2.105 . S
O40 C31 1.268 . S
O41 Sc22 2.105 . S
O41 C27 1.268 . S
O42 Sc24 2.105 . S
O42 C26 1.268 . S
O43 Sc23 2.105 . S
O43 C28 1.268 . S
Sc44 O47 2.025 . S
Sc44 O54 2.105 . S
Sc44 O57 2.105 . S
Sc44 O60 2.105 . S
Sc44 O63 2.105 . S
Sc45 O47 2.025 . S
Sc45 O55 2.105 . S
Sc45 O59 2.105 . S
Sc45 O61 2.105 . S
Sc45 O65 2.105 1_655 S
Sc46 O47 2.025 . S
Sc46 O56 2.105 . S
Sc46 O58 2.105 . S
Sc46 O62 2.105 . S
Sc46 O64 2.105 . S
O47 Sc44 2.025 . S
O47 Sc45 2.025 . S
O47 Sc46 2.025 . S
C48 O54 1.268 . S
C48 O64 1.268 . S
C49 O55 1.268 . S
C49 O63 1.268 . S
C50 O56 1.268 1_455 S
C50 O65 1.268 . S
C51 O57 1.268 . S
C51 O61 1.268 . S
C52 O58 1.268 . S
C52 O60 1.268 . S
C53 O59 1.268 . S
C53 O62 1.268 . S
O54 Sc44 2.105 . S
O54 C48 1.268 . S
O55 Sc45 2.105 . S
O55 C49 1.268 . S
O56 Sc46 2.105 . S
O56 C50 1.268 1_655 S
O57 Sc44 2.105 . S
O57 C51 1.268 . S
O58 Sc46 2.105 . S
O58 C52 1.268 . S
O59 Sc45 2.105 . S
O59 C53 1.268 . S
O60 Sc44 2.105 . S
O60 C52 1.268 . S
O61 Sc45 2.105 . S
O61 C51 1.268 . S
O62 Sc46 2.105 . S
O62 C53 1.268 . S
O63 Sc44 2.105 . S
O63 C49 1.268 . S
O64 Sc46 2.105 . S
O64 C48 1.268 . S
O65 Sc45 2.105 1_455 S
O65 C50 1.268 . S
Sc66 O69 2.025 . S
Sc66 O76 2.105 . S
Sc66 O79 2.105 . S
Sc66 O82 2.105 . S
Sc66 O85 2.105 . S
Sc67 O69 2.025 . S
Sc67 O77 2.105 . S
Sc67 O81 2.105 . S
Sc67 O83 2.105 . S
Sc67 O87 2.105 1_565 S
Sc68 O69 2.025 . S
Sc68 O78 2.105 . S
Sc68 O80 2.105 . S
Sc68 O84 2.105 . S
Sc68 O86 2.105 . S
O69 Sc66 2.025 . S
O69 Sc67 2.025 . S
O69 Sc68 2.025 . S
C70 O76 1.268 . S
C70 O86 1.268 . S
C71 O77 1.268 . S
C71 O85 1.268 . S
C72 O78 1.268 1_545 S
C72 O87 1.268 . S
C73 O79 1.268 . S
C73 O83 1.268 . S
C74 O80 1.268 . S
C74 O82 1.268 . S
C75 O81 1.268 . S
C75 O84 1.268 . S
O76 Sc66 2.105 . S
O76 C70 1.268 . S
O77 Sc67 2.105 . S
O77 C71 1.268 . S
O78 Sc68 2.105 . S
O78 C72 1.268 1_565 S
O79 Sc66 2.105 . S
O79 C73 1.268 . S
O80 Sc68 2.105 . S
O80 C74 1.268 . S
O81 Sc67 2.105 . S
O81 C75 1.268 . S
O82 Sc66 2.105 . S
O82 C74 1.268 . S
O83 Sc67 2.105 . S
O83 C73 1.268 . S
O84 Sc68 2.105 . S
O84 C75 1.268 . S
O85 Sc66 2.105 . S
O85 C71 1.268 . S
O86 Sc68 2.105 . S
O86 C70 1.268 . S
O87 Sc67 2.105 1_545 S
O87 C72 1.268 . S
Sc88 O91 2.025 . S
Sc88 O98 2.105 . S
Sc88 O101 2.105 . S
Sc88 O104 2.105 . S
Sc88 O107 2.105 . S
Sc89 O91 2.025 . S
Sc89 O99 2.105 . S
Sc89 O103 2.105 . S
Sc89 O105 2.105 . S
Sc89 O109 2.105 . S
Sc90 O91 2.025 . S
Sc90 O100 2.105 . S
Sc90 O102 2.105 . S
Sc90 O106 2.105 . S
Sc90 O108 2.105 . S
O91 Sc88 2.025 . S
O91 Sc89 2.025 . S
O91 Sc90 2.025 . S
C92 O98 1.268 . S
C92 O108 1.268 . S
C93 O99 1.268 . S
C93 O107 1.268 . S
C94 O100 1.268 . S
C94 O109 1.268 . S
C95 O101 1.268 . S
C95 O105 1.268 . S
C96 O102 1.268 . S
C96 O104 1.268 . S
C97 O103 1.268 . S
C97 O106 1.268 . S
O98 Sc88 2.105 . S
O98 C92 1.268 . S
O99 Sc89 2.105 . S
O99 C93 1.268 . S
O100 Sc90 2.105 . S
O100 C94 1.268 . S
O101 Sc88 2.105 . S
O101 C95 1.268 . S
O102 Sc90 2.105 . S
O102 C96 1.268 . S
O103 Sc89 2.105 . S
O103 C97 1.268 . S
O104 Sc88 2.105 . S
O104 C96 1.268 . S
O105 Sc89 2.105 . S
O105 C95 1.268 . S
O106 Sc90 2.105 . S
O106 C97 1.268 . S
O107 Sc88 2.105 . S
O107 C93 1.268 . S
O108 Sc90 2.105 . S
O108 C92 1.268 . S
O109 Sc89 2.105 . S
O109 C94 1.268 . S
Sc110 O113 2.025 . S
Sc110 O120 2.105 . S
Sc110 O123 2.105 . S
Sc110 O126 2.105 . S
Sc110 O129 2.105 . S
Sc111 O113 2.025 . S
Sc111 O121 2.105 . S
Sc111 O125 2.105 . S
Sc111 O127 2.105 . S
Sc111 O131 2.105 . S
Sc112 O113 2.025 . S
Sc112 O122 2.105 . S
Sc112 O124 2.105 . S
Sc112 O128 2.105 . S
Sc112 O130 2.105 . S
O113 Sc110 2.025 . S
O113 Sc111 2.025 . S
O113 Sc112 2.025 . S
C114 O120 1.268 . S
C114 O130 1.268 . S
C115 O121 1.268 . S
C115 O129 1.268 . S
C116 O122 1.268 . S
C116 O131 1.268 . S
C117 O123 1.268 . S
C117 O127 1.268 . S
C118 O124 1.268 . S
C118 O126 1.268 . S
C119 O125 1.268 . S
C119 O128 1.268 . S
O120 Sc110 2.105 . S
O120 C114 1.268 . S
O121 Sc111 2.105 . S
O121 C115 1.268 . S
O122 Sc112 2.105 . S
O122 C116 1.268 . S
O123 Sc110 2.105 . S
O123 C117 1.268 . S
O124 Sc112 2.105 . S
O124 C118 1.268 . S
O125 Sc111 2.105 . S
O125 C119 1.268 . S
O126 Sc110 2.105 . S
O126 C118 1.268 . S
O127 Sc111 2.105 . S
O127 C117 1.268 . S
O128 Sc112 2.105 . S
O128 C119 1.268 . S
O129 Sc110 2.105 . S
O129 C115 1.268 . S
O130 Sc112 2.105 . S
O130 C114 1.268 . S
O131 Sc111 2.105 . S
O131 C116 1.268 . S
Sc132 O135 2.025 . S
Sc132 O142 2.105 . S
Sc132 O145 2.105 . S
Sc132 O148 2.105 . S
Sc132 O151 2.105 . S
Sc133 O135 2.025 . S
Sc133 O143 2.105 . S
Sc133 O147 2.105 . S
Sc133 O149 2.105 1_655 S
Sc133 O153 2.105 . S
Sc134 O135 2.025 . S
Sc134 O144 2.105 . S
Sc134 O146 2.105 . S
Sc134 O150 2.105 . S
Sc134 O152 2.105 . S
O135 Sc132 2.025 . S
O135 Sc133 2.025 . S
O135 Sc134 2.025 . S
C136 O142 1.268 . S
C136 O152 1.268 . S
C137 O143 1.268 . S
C137 O151 1.268 . S
C138 O144 1.268 . S
C138 O153 1.268 . S
C139 O145 1.268 1_455 S
C139 O149 1.268 . S
C140 O146 1.268 . S
C140 O148 1.268 . S
C141 O147 1.268 . S
C141 O150 1.268 . S
O142 Sc132 2.105 . S
O142 C136 1.268 . S
O143 Sc133 2.105 . S
O143 C137 1.268 . S
O144 Sc134 2.105 . S
O144 C138 1.268 . S
O145 Sc132 2.105 . S
O145 C139 1.268 1_655 S
O146 Sc134 2.105 . S
O146 C140 1.268 . S
O147 Sc133 2.105 . S
O147 C141 1.268 . S
O148 Sc132 2.105 . S
O148 C140 1.268 . S
O149 Sc133 2.105 1_455 S
O149 C139 1.268 . S
O150 Sc134 2.105 . S
O150 C141 1.268 . S
O151 Sc132 2.105 . S
O151 C137 1.268 . S
O152 Sc134 2.105 . S
O152 C136 1.268 . S
O153 Sc133 2.105 . S
O153 C138 1.268 . S
Sc154 O157 2.025 . S
Sc154 O164 2.105 . S
Sc154 O167 2.105 . S
Sc154 O170 2.105 . S
Sc154 O173 2.105 . S
Sc155 O157 2.025 . S
Sc155 O165 2.105 . S
Sc155 O169 2.105 . S
Sc155 O171 2.105 1_565 S
Sc155 O175 2.105 . S
Sc156 O157 2.025 . S
Sc156 O166 2.105 . S
Sc156 O168 2.105 . S
Sc156 O172 2.105 . S
Sc156 O174 2.105 . S
O157 Sc154 2.025 . S
O157 Sc155 2.025 . S
O157 Sc156 2.025 . S
C158 O164 1.268 . S
C158 O174 1.268 . S
C159 O165 1.268 . S
C159 O173 1.268 . S
C160 O166 1.268 . S
C160 O175 1.268 . S
C161 O167 1.268 1_545 S
C161 O171 1.268 . S
C162 O168 1.268 . S
C162 O170 1.268 . S
C163 O169 1.268 . S
C163 O172 1.268 . S
O164 Sc154 2.105 . S
O164 C158 1.268 . S
O165 Sc155 2.105 . S
O165 C159 1.268 . S
O166 Sc156 2.105 . S
O166 C160 1.268 . S
O167 Sc154 2.105 . S
O167 C161 1.268 1_565 S
O168 Sc156 2.105 . S
O168 C162 1.268 . S
O169 Sc155 2.105 . S
O169 C163 1.268 . S
O170 Sc154 2.105 . S
O170 C162 1.268 . S
O171 Sc155 2.105 1_545 S
O171 C161 1.268 . S
O172 Sc156 2.105 . S
O172 C163 1.268 . S
O173 Sc154 2.105 . S
O173 C159 1.268 . S
O174 Sc156 2.105 . S
O174 C158 1.268 . S
O175 Sc155 2.105 . S
O175 C160 1.268 . S
Sc176 O179 2.025 . S
Sc176 O186 2.105 . S
Sc176 O189 2.105 . S
Sc176 O192 2.105 . S
Sc176 O195 2.105 . S
Sc177 O179 2.025 . S
Sc177 O187 2.105 . S
Sc177 O191 2.105 . S
Sc177 O193 2.105 . S
Sc177 O197 2.105 . S
Sc178 O179 2.025 . S
Sc178 O188 2.105 . S
Sc178 O190 2.105 . S
Sc178 O194 2.105 . S
Sc178 O196 2.105 . S
O179 Sc176 2.025 . S
O179 Sc177 2.025 . S
O179 Sc178 2.025 . S
C180 O186 1.268 . S
C180 O196 1.268 . S
C181 O187 1.268 . S
C181 O195 1.268 . S
C182 O188 1.268 . S
C182 O197 1.268 . S
C183 O189 1.268 . S
C183 O193 1.268 . S
C184 O190 1.268 . S
C184 O192 1.268 . S
C185 O191 1.268 . S
C185 O194 1.268 . S
O186 Sc176 2.105 . S
O186 C180 1.268 . S
O187 Sc177 2.105 . S
O187 C181 1.268 . S
O188 Sc178 2.105 . S
O188 C182 1.268 . S
O189 Sc176 2.105 . S
O189 C183 1.268 . S
O190 Sc178 2.105 . S
O190 C184 1.268 . S
O191 Sc177 2.105 . S
O191 C185 1.268 . S
O192 Sc176 2.105 . S
O192 C184 1.268 . S
O193 Sc177 2.105 . S
O193 C183 1.268 . S
O194 Sc178 2.105 . S
O194 C185 1.268 . S
O195 Sc176 2.105 . S
O195 C181 1.268 . S
O196 Sc178 2.105 . S
O196 C180 1.268 . S
O197 Sc177 2.105 . S
O197 C182 1.268 . S
Sc198 O201 2.025 . S
Sc198 O208 2.105 . S
Sc198 O211 2.105 . S
Sc198 O214 2.105 . S
Sc198 O217 2.105 . S
Sc199 O201 2.025 . S
Sc199 O209 2.105 . S
Sc199 O213 2.105 . S
Sc199 O215 2.105 . S
Sc199 O219 2.105 . S
Sc200 O201 2.025 . S
Sc200 O210 2.105 . S
Sc200 O212 2.105 . S
Sc200 O216 2.105 . S
Sc200 O218 2.105 . S
O201 Sc198 2.025 . S
O201 Sc199 2.025 . S
O201 Sc200 2.025 . S
C202 O208 1.268 . S
C202 O218 1.268 . S
C203 O209 1.268 . S
C203 O217 1.268 . S
C204 O210 1.268 . S
C204 O219 1.268 . S
C205 O211 1.268 . S
C205 O215 1.268 . S
C206 O212 1.268 . S
C206 O214 1.268 . S
C207 O213 1.268 . S
C207 O216 1.268 . S
O208 Sc198 2.105 . S
O208 C202 1.268 . S
O209 Sc199 2.105 . S
O209 C203 1.268 . S
O210 Sc200 2.105 . S
O210 C204 1.268 . S
O211 Sc198 2.105 . S
O211 C205 1.268 . S
O212 Sc200 2.105 . S
O212 C206 1.268 . S
O213 Sc199 2.105 . S
O213 C207 1.268 . S
O214 Sc198 2.105 . S
O214 C206 1.268 . S
O215 Sc199 2.105 . S
O215 C205 1.268 . S
O216 Sc200 2.105 . S
O216 C207 1.268 . S
O217 Sc198 2.105 . S
O217 C203 1.268 . S
O218 Sc200 2.105 . S
O218 C202 1.268 . S
O219 Sc199 2.105 . S
O219 C204 1.268 . S
Sc220 O223 2.025 . S
Sc220 O230 2.105 . S
Sc220 O233 2.105 . S
Sc220 O236 2.105 . S
Sc220 O239 2.105 . S
Sc221 O223 2.025 . S
Sc221 O231 2.105 . S
Sc221 O235 2.105 1_455 S
Sc221 O237 2.105 . S
Sc221 O241 2.105 . S
Sc222 O223 2.025 . S
Sc222 O232 2.105 . S
Sc222 O234 2.105 . S
Sc222 O238 2.105 . S
Sc222 O240 2.105 . S
O223 Sc220 2.025 . S
O223 Sc221 2.025 . S
O223 Sc222 2.025 . S
C224 O230 1.268 . S
C224 O240 1.268 . S
C225 O231 1.268 . S
C225 O239 1.268 . S
C226 O232 1.268 . S
C226 O241 1.268 . S
C227 O233 1.268 . S
C227 O237 1.268 . S
C228 O234 1.268 . S
C228 O236 1.268 . S
C229 O235 1.268 . S
C229 O238 1.268 1_655 S
O230 Sc220 2.105 . S
O230 C224 1.268 . S
O231 Sc221 2.105 . S
O231 C225 1.268 . S
O232 Sc222 2.105 . S
O232 C226 1.268 . S
O233 Sc220 2.105 . S
O233 C227 1.268 . S
O234 Sc222 2.105 . S
O234 C228 1.268 . S
O235 Sc221 2.105 1_655 S
O235 C229 1.268 . S
O236 Sc220 2.105 . S
O236 C228 1.268 . S
O237 Sc221 2.105 . S
O237 C227 1.268 . S
O238 Sc222 2.105 . S
O238 C229 1.268 1_455 S
O239 Sc220 2.105 . S
O239 C225 1.268 . S
O240 Sc222 2.105 . S
O240 C224 1.268 . S
O241 Sc221 2.105 . S
O241 C226 1.268 . S
Sc242 O245 2.025 . S
Sc242 O252 2.105 . S
Sc242 O255 2.105 . S
Sc242 O258 2.105 . S
Sc242 O261 2.105 . S
Sc243 O245 2.025 . S
Sc243 O253 2.105 . S
Sc243 O257 2.105 1_545 S
Sc243 O259 2.105 . S
Sc243 O263 2.105 . S
Sc244 O245 2.025 . S
Sc244 O254 2.105 . S
Sc244 O256 2.105 . S
Sc244 O260 2.105 . S
Sc244 O262 2.105 . S
O245 Sc242 2.025 . S
O245 Sc243 2.025 . S
O245 Sc244 2.025 . S
C246 O252 1.268 . S
C246 O262 1.268 . S
C247 O253 1.268 . S
C247 O261 1.268 . S
C248 O254 1.268 . S
C248 O263 1.268 . S
C249 O255 1.268 . S
C249 O259 1.268 . S
C250 O256 1.268 . S
C250 O258 1.268 . S
C251 O257 1.268 . S
C251 O260 1.268 1_565 S
O252 Sc242 2.105 . S
O252 C246 1.268 . S
O253 Sc243 2.105 . S
O253 C247 1.268 . S
O254 Sc244 2.105 . S
O254 C248 1.268 . S
O255 Sc242 2.105 . S
O255 C249 1.268 . S
O256 Sc244 2.105 . S
O256 C250 1.268 . S
O257 Sc243 2.105 1_565 S
O257 C251 1.268 . S
O258 Sc242 2.105 . S
O258 C250 1.268 . S
O259 Sc243 2.105 . S
O259 C249 1.268 . S
O260 Sc244 2.105 . S
O260 C251 1.268 1_545 S
O261 Sc242 2.105 . S
O261 C247 1.268 . S
O262 Sc244 2.105 . S
O262 C246 1.268 . S
O263 Sc243 2.105 . S
O263 C248 1.268 . S
Sc264 O267 2.025 . S
Sc264 O274 2.105 . S
Sc264 O277 2.105 . S
Sc264 O280 2.105 . S
Sc264 O283 2.105 . S
Sc265 O267 2.025 . S
Sc265 O275 2.105 . S
Sc265 O279 2.105 . S
Sc265 O281 2.105 . S
Sc265 O285 2.105 . S
Sc266 O267 2.025 . S
Sc266 O276 2.105 . S
Sc266 O278 2.105 . S
Sc266 O282 2.105 . S
Sc266 O284 2.105 . S
O267 Sc264 2.025 . S
O267 Sc265 2.025 . S
O267 Sc266 2.025 . S
C268 O274 1.268 . S
C268 O284 1.268 . S
C269 O275 1.268 . S
C269 O283 1.268 . S
C270 O276 1.268 . S
C270 O285 1.268 . S
C271 O277 1.268 . S
C271 O281 1.268 . S
C272 O278 1.268 . S
C272 O280 1.268 . S
C273 O279 1.268 . S
C273 O282 1.268 . S
O274 Sc264 2.105 . S
O274 C268 1.268 . S
O275 Sc265 2.105 . S
O275 C269 1.268 . S
O276 Sc266 2.105 . S
O276 C270 1.268 . S
O277 Sc264 2.105 . S
O277 C271 1.268 . S
O278 Sc266 2.105 . S
O278 C272 1.268 . S
O279 Sc265 2.105 . S
O279 C273 1.268 . S
O280 Sc264 2.105 . S
O280 C272 1.268 . S
O281 Sc265 2.105 . S
O281 C271 1.268 . S
O282 Sc266 2.105 . S
O282 C273 1.268 . S
O283 Sc264 2.105 . S
O283 C269 1.268 . S
O284 Sc266 2.105 . S
O284 C268 1.268 . S
O285 Sc265 2.105 . S
O285 C270 1.268 . S
Sc286 O289 2.025 . S
Sc286 O296 2.105 . S
Sc286 O299 2.105 . S
Sc286 O302 2.105 . S
Sc286 O305 2.105 . S
Sc287 O289 2.025 . S
Sc287 O297 2.105 . S
Sc287 O301 2.105 . S
Sc287 O303 2.105 . S
Sc287 O307 2.105 . S
Sc288 O289 2.025 . S
Sc288 O298 2.105 . S
Sc288 O300 2.105 . S
Sc288 O304 2.105 . S
Sc288 O306 2.105 . S
O289 Sc286 2.025 . S
O289 Sc287 2.025 . S
O289 Sc288 2.025 . S
C290 O296 1.268 . S
C290 O306 1.268 . S
C291 O297 1.268 . S
C291 O305 1.268 . S
C292 O298 1.268 . S
C292 O307 1.268 . S
C293 O299 1.268 . S
C293 O303 1.268 . S
C294 O300 1.268 . S
C294 O302 1.268 . S
C295 O301 1.268 . S
C295 O304 1.268 . S
O296 Sc286 2.105 . S
O296 C290 1.268 . S
O297 Sc287 2.105 . S
O297 C291 1.268 . S
O298 Sc288 2.105 . S
O298 C292 1.268 . S
O299 Sc286 2.105 . S
O299 C293 1.268 . S
O300 Sc288 2.105 . S
O300 C294 1.268 . S
O301 Sc287 2.105 . S
O301 C295 1.268 . S
O302 Sc286 2.105 . S
O302 C294 1.268 . S
O303 Sc287 2.105 . S
O303 C293 1.268 . S
O304 Sc288 2.105 . S
O304 C295 1.268 . S
O305 Sc286 2.105 . S
O305 C291 1.268 . S
O306 Sc288 2.105 . S
O306 C290 1.268 . S
O307 Sc287 2.105 . S
O307 C292 1.268 . S
Sc308 O311 2.025 . S
Sc308 O318 2.105 . S
Sc308 O321 2.105 . S
Sc308 O324 2.105 . S
Sc308 O327 2.105 . S
Sc309 O311 2.025 . S
Sc309 O319 2.105 1_455 S
Sc309 O323 2.105 . S
Sc309 O325 2.105 . S
Sc309 O329 2.105 . S
Sc310 O311 2.025 . S
Sc310 O320 2.105 . S
Sc310 O322 2.105 . S
Sc310 O326 2.105 . S
Sc310 O328 2.105 . S
O311 Sc308 2.025 . S
O311 Sc309 2.025 . S
O311 Sc310 2.025 . S
C312 O318 1.268 . S
C312 O328 1.268 . S
C313 O319 1.268 . S
C313 O327 1.268 1_655 S
C314 O320 1.268 . S
C314 O329 1.268 . S
C315 O321 1.268 . S
C315 O325 1.268 . S
C316 O322 1.268 . S
C316 O324 1.268 . S
C317 O323 1.268 . S
C317 O326 1.268 . S
O318 Sc308 2.105 . S
O318 C312 1.268 . S
O319 Sc309 2.105 1_655 S
O319 C313 1.268 . S
O320 Sc310 2.105 . S
O320 C314 1.268 . S
O321 Sc308 2.105 . S
O321 C315 1.268 . S
O322 Sc310 2.105 . S
O322 C316 1.268 . S
O323 Sc309 2.105 . S
O323 C317 1.268 . S
O324 Sc308 2.105 . S
O324 C316 1.268 . S
O325 Sc309 2.105 . S
O325 C315 1.268 . S
O326 Sc310 2.105 . S
O326 C317 1.268 . S
O327 Sc308 2.105 . S
O327 C313 1.268 1_455 S
O328 Sc310 2.105 . S
O328 C312 1.268 . S
O329 Sc309 2.105 . S
O329 C314 1.268 . S
Sc330 O333 2.025 . S
Sc330 O340 2.105 . S
Sc330 O343 2.105 . S
Sc330 O346 2.105 . S
Sc330 O349 2.105 . S
Sc331 O333 2.025 . S
Sc331 O341 2.105 1_545 S
Sc331 O345 2.105 . S
Sc331 O347 2.105 . S
Sc331 O351 2.105 . S
Sc332 O333 2.025 . S
Sc332 O342 2.105 . S
Sc332 O344 2.105 . S
Sc332 O348 2.105 . S
Sc332 O350 2.105 . S
O333 Sc330 2.025 . S
O333 Sc331 2.025 . S
O333 Sc332 2.025 . S
C334 O340 1.268 . S
C334 O350 1.268 . S
C335 O341 1.268 . S
C335 O349 1.268 1_565 S
C336 O342 1.268 . S
C336 O351 1.268 . S
C337 O343 1.268 . S
C337 O347 1.268 . S
C338 O344 1.268 . S
C338 O346 1.268 . S
C339 O345 1.268 . S
C339 O348 1.268 . S
O340 Sc330 2.105 . S
O340 C334 1.268 . S
O341 Sc331 2.105 1_565 S
O341 C335 1.268 . S
O342 Sc332 2.105 . S
O342 C336 1.268 . S
O343 Sc330 2.105 . S
O343 C337 1.268 . S
O344 Sc332 2.105 . S
O344 C338 1.268 . S
O345 Sc331 2.105 . S
O345 C339 1.268 . S
O346 Sc330 2.105 . S
O346 C338 1.268 . S
O347 Sc331 2.105 . S
O347 C337 1.268 . S
O348 Sc332 2.105 . S
O348 C339 1.268 . S
O349 Sc330 2.105 . S
O349 C335 1.268 1_545 S
O350 Sc332 2.105 . S
O350 C334 1.268 . S
O351 Sc331 2.105 . S
O351 C336 1.268 . S
C352 C353 1.387 . S
C352 H356 0.950 . S
C352 C361 1.390 . S
C353 C352 1.387 . S
C353 C355 1.387 . S
H354 C361 0.950 . S
C355 C353 1.387 . S
C355 C357 1.390 . S
C355 H359 0.950 . S
H356 C352 0.950 . S
C357 C355 1.390 . S
C357 C358 1.387 . S
C357 H360 0.950 . S
C358 C357 1.387 . S
C358 C361 1.387 . S
H359 C355 0.950 . S
H360 C357 0.950 . S
C361 C352 1.390 . S
C361 H354 0.950 . S
C361 C358 1.387 . S
C362 C363 1.387 . S
C362 H366 0.950 . S
C362 C371 1.390 . S
C363 C362 1.387 . S
C363 C365 1.387 . S
H364 C371 0.950 . S
C365 C363 1.387 . S
C365 C367 1.390 . S
C365 H369 0.950 . S
H366 C362 0.950 . S
C367 C365 1.390 . S
C367 C368 1.387 . S
C367 H370 0.950 . S
C368 C367 1.387 . S
C368 C371 1.387 . S
H369 C365 0.950 . S
H370 C367 0.950 . S
C371 C362 1.390 . S
C371 H364 0.950 . S
C371 C368 1.387 . S
C372 C373 1.387 . S
C372 H376 0.950 . S
C372 C381 1.390 . S
C373 C372 1.387 . S
C373 C375 1.387 . S
H374 C381 0.950 . S
C375 C373 1.387 . S
C375 C377 1.390 . S
C375 H379 0.950 . S
H376 C372 0.950 . S
C377 C375 1.390 . S
C377 C378 1.387 . S
C377 H380 0.950 . S
C378 C377 1.387 . S
C378 C381 1.387 . S
H379 C375 0.950 . S
H380 C377 0.950 . S
C381 C372 1.390 . S
C381 H374 0.950 . S
C381 C378 1.387 . S
C382 C383 1.387 . S
C382 H386 0.950 . S
C382 C391 1.390 . S
C383 C382 1.387 . S
C383 C385 1.387 . S
H384 C391 0.950 . S
C385 C383 1.387 . S
C385 C387 1.390 . S
C385 H389 0.950 . S
H386 C382 0.950 . S
C387 C385 1.390 . S
C387 C388 1.387 . S
C387 H390 0.950 . S
C388 C387 1.387 . S
C388 C391 1.387 . S
H389 C385 0.950 . S
H390 C387 0.950 . S
C391 C382 1.390 . S
C391 H384 0.950 . S
C391 C388 1.387 . S
C392 C393 1.387 . S
C392 H396 0.950 . S
C392 C401 1.390 . S
C393 C392 1.387 . S
C393 C395 1.387 . S
H394 C401 0.950 . S
C395 C393 1.387 . S
C395 C397 1.390 . S
C395 H399 0.950 . S
H396 C392 0.950 . S
C397 C395 1.390 . S
C397 C398 1.387 . S
C397 H400 0.950 . S
C398 C397 1.387 . S
C398 C401 1.387 . S
H399 C395 0.950 . S
H400 C397 0.950 . S
C401 C392 1.390 . S
C401 H394 0.950 . S
C401 C398 1.387 . S
C402 C403 1.387 . S
C402 H406 0.950 . S
C402 C411 1.390 . S
C403 C402 1.387 . S
C403 C405 1.387 . S
H404 C411 0.950 . S
C405 C403 1.387 . S
C405 C407 1.390 . S
C405 H409 0.950 . S
H406 C402 0.950 . S
C407 C405 1.390 . S
C407 C408 1.387 . S
C407 H410 0.950 . S
C408 C407 1.387 . S
C408 C411 1.387 . S
H409 C405 0.950 . S
H410 C407 0.950 . S
C411 C402 1.390 . S
C411 H404 0.950 . S
C411 C408 1.387 . S
C412 C413 1.387 . S
C412 H416 0.950 . S
C412 C421 1.390 . S
C413 C412 1.387 . S
C413 C415 1.387 . S
H414 C421 0.950 . S
C415 C413 1.387 . S
C415 C417 1.390 . S
C415 H419 0.950 . S
H416 C412 0.950 . S
C417 C415 1.390 . S
C417 C418 1.387 . S
C417 H420 0.950 . S
C418 C417 1.387 . S
C418 C421 1.387 . S
H419 C415 0.950 . S
H420 C417 0.950 . S
C421 C412 1.390 . S
C421 H414 0.950 . S
C421 C418 1.387 . S
C422 C423 1.387 . S
C422 H426 0.950 . S
C422 C431 1.390 . S
C423 C422 1.387 . S
C423 C425 1.387 . S
H424 C431 0.950 . S
C425 C423 1.387 . S
C425 C427 1.390 . S
C425 H429 0.950 . S
H426 C422 0.950 . S
C427 C425 1.390 . S
C427 C428 1.387 . S
C427 H430 0.950 . S
C428 C427 1.387 . S
C428 C431 1.387 . S
H429 C425 0.950 . S
H430 C427 0.950 . S
C431 C422 1.390 . S
C431 H424 0.950 . S
C431 C428 1.387 . S
C432 C433 1.387 . S
C432 H436 0.950 . S
C432 C441 1.390 . S
C433 C432 1.387 . S
C433 C435 1.387 . S
H434 C441 0.950 . S
C435 C433 1.387 . S
C435 C437 1.390 . S
C435 H439 0.950 . S
H436 C432 0.950 . S
C437 C435 1.390 . S
C437 C438 1.387 . S
C437 H440 0.950 . S
C438 C437 1.387 . S
C438 C441 1.387 . S
H439 C435 0.950 . S
H440 C437 0.950 . S
C441 C432 1.390 . S
C441 H434 0.950 . S
C441 C438 1.387 . S
C442 C443 1.387 . S
C442 H446 0.950 . S
C442 C451 1.390 . S
C443 C442 1.387 . S
C443 C445 1.387 . S
H444 C451 0.950 . S
C445 C443 1.387 . S
C445 C447 1.390 . S
C445 H449 0.950 . S
H446 C442 0.950 . S
C447 C445 1.390 . S
C447 C448 1.387 . S
C447 H450 0.950 . S
C448 C447 1.387 . S
C448 C451 1.387 . S
H449 C445 0.950 . S
H450 C447 0.950 . S
C451 C442 1.390 . S
C451 H444 0.950 . S
C451 C448 1.387 . S
C452 C453 1.387 . S
C452 H456 0.950 . S
C452 C461 1.390 . S
C453 C452 1.387 . S
C453 C455 1.387 . S
H454 C461 0.950 . S
C455 C453 1.387 . S
C455 C457 1.390 . S
C455 H459 0.950 . S
H456 C452 0.950 . S
C457 C455 1.390 . S
C457 C458 1.387 . S
C457 H460 0.950 . S
C458 C457 1.387 . S
C458 C461 1.387 . S
H459 C455 0.950 . S
H460 C457 0.950 . S
C461 C452 1.390 . S
C461 H454 0.950 . S
C461 C458 1.387 . S
C462 C463 1.387 . S
C462 H466 0.950 . S
C462 C471 1.390 . S
C463 C462 1.387 . S
C463 C465 1.387 . S
H464 C471 0.950 . S
C465 C463 1.387 . S
C465 C467 1.390 . S
C465 H469 0.950 . S
H466 C462 0.950 . S
C467 C465 1.390 . S
C467 C468 1.387 . S
C467 H470 0.950 . S
C468 C467 1.387 . S
C468 C471 1.387 . S
H469 C465 0.950 . S
H470 C467 0.950 . S
C471 C462 1.390 . S
C471 H464 0.950 . S
C471 C468 1.387 . S
C472 C473 1.387 . S
C472 H476 0.950 . S
C472 C481 1.390 . S
C473 C472 1.387 . S
C473 C475 1.387 . S
H474 C481 0.950 . S
C475 C473 1.387 . S
C475 C477 1.390 . S
C475 H479 0.950 . S
H476 C472 0.950 . S
C477 C475 1.390 . S
C477 C478 1.387 . S
C477 H480 0.950 . S
C478 C477 1.387 . S
C478 C481 1.387 . S
H479 C475 0.950 . S
H480 C477 0.950 . S
C481 C472 1.390 . S
C481 H474 0.950 . S
C481 C478 1.387 . S
C482 C483 1.387 . S
C482 H486 0.950 . S
C482 C491 1.390 . S
C483 C482 1.387 . S
C483 C485 1.387 . S
H484 C491 0.950 . S
C485 C483 1.387 . S
C485 C487 1.390 . S
C485 H489 0.950 . S
H486 C482 0.950 . S
C487 C485 1.390 . S
C487 C488 1.387 . S
C487 H490 0.950 . S
C488 C487 1.387 . S
C488 C491 1.387 . S
H489 C485 0.950 . S
H490 C487 0.950 . S
C491 C482 1.390 . S
C491 H484 0.950 . S
C491 C488 1.387 . S
C492 C493 1.387 . S
C492 H496 0.950 . S
C492 C501 1.390 . S
C493 C492 1.387 . S
C493 C495 1.387 . S
H494 C501 0.950 . S
C495 C493 1.387 . S
C495 C497 1.390 . S
C495 H499 0.950 . S
H496 C492 0.950 . S
C497 C495 1.390 . S
C497 C498 1.387 . S
C497 H500 0.950 . S
C498 C497 1.387 . S
C498 C501 1.387 . S
H499 C495 0.950 . S
H500 C497 0.950 . S
C501 C492 1.390 . S
C501 H494 0.950 . S
C501 C498 1.387 . S
C502 C503 1.387 . S
C502 H506 0.950 . S
C502 C511 1.390 . S
C503 C502 1.387 . S
C503 C505 1.387 . S
H504 C511 0.950 . S
C505 C503 1.387 . S
C505 C507 1.390 . S
C505 H509 0.950 . S
H506 C502 0.950 . S
C507 C505 1.390 . S
C507 C508 1.387 . S
C507 H510 0.950 . S
C508 C507 1.387 . S
C508 C511 1.387 . S
H509 C505 0.950 . S
H510 C507 0.950 . S
C511 C502 1.390 . S
C511 H504 0.950 . S
C511 C508 1.387 . S
C512 C513 1.387 1_556 S
C512 H516 0.950 . S
C512 C521 1.390 . S
C513 C512 1.387 1_554 S
C513 C515 1.387 . S
H514 C521 0.950 . S
C515 C513 1.387 . S
C515 C517 1.390 1_554 S
C515 H519 0.950 . S
H516 C512 0.950 . S
C517 C515 1.390 1_556 S
C517 C518 1.387 . S
C517 H520 0.950 . S
C518 C517 1.387 . S
C518 C521 1.387 . S
H519 C515 0.950 . S
H520 C517 0.950 . S
C521 C512 1.390 . S
C521 H514 0.950 . S
C521 C518 1.387 . S
C522 C523 1.387 . S
C522 H526 0.950 . S
C522 C531 1.390 . S
C523 C522 1.387 . S
C523 C525 1.387 . S
H524 C531 0.950 . S
C525 C523 1.387 . S
C525 C527 1.390 . S
C525 H529 0.950 . S
H526 C522 0.950 . S
C527 C525 1.390 . S
C527 C528 1.387 . S
C527 H530 0.950 . S
C528 C527 1.387 . S
C528 C531 1.387 . S
H529 C525 0.950 . S
H530 C527 0.950 . S
C531 C522 1.390 . S
C531 H524 0.950 . S
C531 C528 1.387 . S
C532 C533 1.387 . S
C532 H536 0.950 . S
C532 C541 1.390 1_554 S
C533 C532 1.387 . S
C533 C535 1.387 1_554 S
H534 C541 0.950 . S
C535 C533 1.387 1_556 S
C535 C537 1.390 . S
C535 H539 0.950 . S
H536 C532 0.950 . S
C537 C535 1.390 . S
C537 C538 1.387 . S
C537 H540 0.950 . S
C538 C537 1.387 . S
C538 C541 1.387 . S
H539 C535 0.950 . S
H540 C537 0.950 . S
C541 C532 1.390 1_556 S
C541 H534 0.950 . S
C541 C538 1.387 . S
C542 C543 1.387 . S
C542 H546 0.950 . S
C542 C551 1.390 . S
C543 C542 1.387 . S
C543 C545 1.387 . S
H544 C551 0.950 . S
C545 C543 1.387 . S
C545 C547 1.390 . S
C545 H549 0.950 . S
H546 C542 0.950 . S
C547 C545 1.390 . S
C547 C548 1.387 . S
C547 H550 0.950 . S
C548 C547 1.387 . S
C548 C551 1.387 . S
H549 C545 0.950 . S
H550 C547 0.950 . S
C551 C542 1.390 . S
C551 H544 0.950 . S
C551 C548 1.387 . S
C552 C553 1.387 1_554 S
C552 H556 0.950 . S
C552 C561 1.390 . S
C553 C552 1.387 1_556 S
C553 C555 1.387 . S
H554 C561 0.950 . S
C555 C553 1.387 . S
C555 C557 1.390 1_556 S
C555 H559 0.950 . S
H556 C552 0.950 . S
C557 C555 1.390 1_554 S
C557 C558 1.387 . S
C557 H560 0.950 . S
C558 C557 1.387 . S
C558 C561 1.387 . S
H559 C555 0.950 . S
H560 C557 0.950 . S
C561 C552 1.390 . S
C561 H554 0.950 . S
C561 C558 1.387 . S
C562 C563 1.387 . S
C562 H566 0.950 . S
C562 C571 1.390 . S
C563 C562 1.387 . S
C563 C565 1.387 . S
H564 C571 0.950 . S
C565 C563 1.387 . S
C565 C567 1.390 . S
C565 H569 0.950 . S
H566 C562 0.950 . S
C567 C565 1.390 . S
C567 C568 1.387 . S
C567 H570 0.950 . S
C568 C567 1.387 . S
C568 C571 1.387 . S
H569 C565 0.950 . S
H570 C567 0.950 . S
C571 C562 1.390 . S
C571 H564 0.950 . S
C571 C568 1.387 . S
C572 C573 1.387 1_554 S
C572 H576 0.950 . S
C572 C581 1.390 . S
C573 C572 1.387 1_556 S
C573 C575 1.387 . S
H574 C581 0.950 . S
C575 C573 1.387 . S
C575 C577 1.390 1_556 S
C575 H579 0.950 . S
H576 C572 0.950 . S
C577 C575 1.390 1_554 S
C577 C578 1.387 . S
C577 H580 0.950 . S
C578 C577 1.387 . S
C578 C581 1.387 . S
H579 C575 0.950 . S
H580 C577 0.950 . S
C581 C572 1.390 . S
C581 H574 0.950 . S
C581 C578 1.387 . S
C582 C583 1.387 . S
C582 H586 0.950 . S
C582 C591 1.390 . S
C583 C582 1.387 . S
C583 C585 1.387 . S
H584 C591 0.950 . S
C585 C583 1.387 . S
C585 C587 1.390 . S
C585 H589 0.950 . S
H586 C582 0.950 . S
C587 C585 1.390 . S
C587 C588 1.387 . S
C587 H590 0.950 . S
C588 C587 1.387 . S
C588 C591 1.387 . S
H589 C585 0.950 . S
H590 C587 0.950 . S
C591 C582 1.390 . S
C591 H584 0.950 . S
C591 C588 1.387 . S
C592 C593 1.387 . S
C592 H596 0.950 . S
C592 C601 1.390 1_556 S
C593 C592 1.387 . S
C593 C595 1.387 1_556 S
H594 C601 0.950 . S
C595 C593 1.387 1_554 S
C595 C597 1.390 . S
C595 H599 0.950 . S
H596 C592 0.950 . S
C597 C595 1.390 . S
C597 C598 1.387 . S
C597 H600 0.950 . S
C598 C597 1.387 . S
C598 C601 1.387 . S
H599 C595 0.950 . S
H600 C597 0.950 . S
C601 C592 1.390 1_554 S
C601 H594 0.950 . S
C601 C598 1.387 . S
C602 C603 1.387 . S
C602 H606 0.950 . S
C602 C611 1.390 . S
C603 C602 1.387 . S
C603 C605 1.387 . S
H604 C611 0.950 . S
C605 C603 1.387 . S
C605 C607 1.390 . S
C605 H609 0.950 . S
H606 C602 0.950 . S
C607 C605 1.390 . S
C607 C608 1.387 . S
C607 H610 0.950 . S
C608 C607 1.387 . S
C608 C611 1.387 . S
H609 C605 0.950 . S
H610 C607 0.950 . S
C611 C602 1.390 . S
C611 H604 0.950 . S
C611 C608 1.387 . S
C612 C613 1.387 1_554 S
C612 H616 0.944 1_554 S
C612 C621 1.390 . S
C613 C612 1.387 1_556 S
C613 C615 1.387 1_556 S
H614 C621 0.950 . S
C615 C613 1.387 1_554 S
C615 C617 1.390 . S
C615 H619 0.946 1_554 S
H616 C612 0.944 1_556 S
C617 C615 1.390 . S
C617 C618 1.387 . S
C617 H620 0.950 . S
C618 C617 1.387 . S
C618 C621 1.387 . S
H619 C615 0.946 1_556 S
H620 C617 0.950 . S
C621 C612 1.390 . S
C621 H614 0.950 . S
C621 C618 1.387 . S
C622 C623 1.387 . S
C622 H626 0.950 . S
C622 C631 1.390 . S
C623 C622 1.387 . S
C623 C625 1.387 . S
H624 C631 0.950 . S
C625 C623 1.387 . S
C625 C627 1.390 . S
C625 H629 0.950 . S
H626 C622 0.950 . S
C627 C625 1.390 . S
C627 C628 1.387 . S
C627 H630 0.950 . S
C628 C627 1.387 . S
C628 C631 1.387 . S
H629 C625 0.950 . S
H630 C627 0.950 . S
C631 C622 1.390 . S
C631 H624 0.950 . S
C631 C628 1.387 . S
C632 C633 1.387 . S
C632 H636 0.950 . S
C632 C641 1.390 1_556 S
C633 C632 1.387 . S
C633 C635 1.387 . S
H634 C641 0.950 . S
C635 C633 1.387 . S
C635 C637 1.390 . S
C635 H639 0.950 . S
H636 C632 0.950 . S
C637 C635 1.390 . S
C637 C638 1.387 1_556 S
C637 H640 0.950 . S
C638 C637 1.387 1_554 S
C638 C641 1.387 . S
H639 C635 0.950 . S
H640 C637 0.950 . S
C641 C632 1.390 1_554 S
C641 H634 0.950 . S
C641 C638 1.387 . S
C642 C643 1.387 . S
C642 H646 0.950 . S
C642 C651 1.390 . S
C643 C642 1.387 . S
C643 C645 1.387 . S
H644 C651 0.950 . S
C645 C643 1.387 . S
C645 C647 1.390 . S
C645 H649 0.950 . S
H646 C642 0.950 . S
C647 C645 1.390 . S
C647 C648 1.387 . S
C647 H650 0.950 . S
C648 C647 1.387 . S
C648 C651 1.387 . S
H649 C645 0.950 . S
H650 C647 0.950 . S
C651 C642 1.390 . S
C651 H644 0.950 . S
C651 C648 1.387 . S
C652 C653 1.387 . S
C652 H656 0.950 . S
C652 C661 1.390 1_556 S
C653 C652 1.387 . S
C653 C655 1.387 . S
H654 C661 0.950 . S
C655 C653 1.387 . S
C655 C657 1.390 . S
C655 H659 0.950 . S
H656 C652 0.950 . S
C657 C655 1.390 . S
C657 C658 1.387 1_556 S
C657 H660 0.950 . S
C658 C657 1.387 1_554 S
C658 C661 1.387 . S
H659 C655 0.950 . S
H660 C657 0.950 . S
C661 C652 1.390 1_554 S
C661 H654 0.950 . S
C661 C658 1.387 . S
C662 C663 1.387 . S
C662 H666 0.950 . S
C662 C671 1.390 . S
C663 C662 1.387 . S
C663 C665 1.387 . S
H664 C671 0.950 . S
C665 C663 1.387 . S
C665 C667 1.390 . S
C665 H669 0.950 . S
H666 C662 0.950 . S
C667 C665 1.390 . S
C667 C668 1.387 . S
C667 H670 0.950 . S
C668 C667 1.387 . S
C668 C671 1.387 . S
H669 C665 0.950 . S
H670 C667 0.950 . S
C671 C662 1.390 . S
C671 H664 0.950 . S
C671 C668 1.387 . S
C672 C673 1.387 . S
C672 H676 0.950 . S
C672 C681 1.390 . S
C673 C672 1.387 . S
C673 C675 1.387 . S
H674 C681 0.950 . S
C675 C673 1.387 . S
C675 C677 1.390 . S
C675 H679 0.950 . S
H676 C672 0.950 . S
C677 C675 1.390 . S
C677 C678 1.387 . S
C677 H680 0.950 . S
C678 C677 1.387 . S
C678 C681 1.387 . S
H679 C675 0.950 . S
H680 C677 0.950 . S
C681 C672 1.390 . S
C681 H674 0.950 . S
C681 C678 1.387 . S
C682 C683 1.387 . S
C682 H686 0.950 . S
C682 C691 1.390 . S
C683 C682 1.387 . S
C683 C685 1.387 . S
H684 C691 0.950 . S
C685 C683 1.387 . S
C685 C687 1.390 . S
C685 H689 0.950 . S
H686 C682 0.950 . S
C687 C685 1.390 . S
C687 C688 1.387 . S
C687 H690 0.950 . S
C688 C687 1.387 . S
C688 C691 1.387 . S
H689 C685 0.950 . S
H690 C687 0.950 . S
C691 C682 1.390 . S
C691 H684 0.950 . S
C691 C688 1.387 . S
C692 C693 1.387 . S
C692 H696 0.950 . S
C692 C701 1.390 . S
C693 C692 1.387 . S
C693 C695 1.387 . S
H694 C701 0.950 . S
C695 C693 1.387 . S
C695 C697 1.390 . S
C695 H699 0.950 . S
H696 C692 0.950 . S
C697 C695 1.390 . S
C697 C698 1.387 . S
C697 H700 0.950 . S
C698 C697 1.387 . S
C698 C701 1.387 . S
H699 C695 0.950 . S
H700 C697 0.950 . S
C701 C692 1.390 . S
C701 H694 0.950 . S
C701 C698 1.387 . S
C702 C703 1.387 . S
C702 H706 0.950 . S
C702 C711 1.390 . S
C703 C702 1.387 . S
C703 C705 1.387 . S
H704 C711 0.950 . S
C705 C703 1.387 . S
C705 C707 1.390 . S
C705 H709 0.950 . S
H706 C702 0.950 . S
C707 C705 1.390 . S
C707 C708 1.387 . S
C707 H710 0.950 . S
C708 C707 1.387 . S
C708 C711 1.387 . S
H709 C705 0.950 . S
H710 C707 0.950 . S
C711 C702 1.390 . S
C711 H704 0.950 . S
C711 C708 1.387 . S
C712 C713 1.387 . S
C712 H716 0.950 . S
C712 C721 1.390 . S
C713 C712 1.387 . S
C713 C715 1.387 . S
H714 C721 0.950 . S
C715 C713 1.387 . S
C715 C717 1.390 . S
C715 H719 0.950 . S
H716 C712 0.950 . S
C717 C715 1.390 . S
C717 C718 1.387 . S
C717 H720 0.950 . S
C718 C717 1.387 . S
C718 C721 1.387 . S
H719 C715 0.950 . S
H720 C717 0.950 . S
C721 C712 1.390 . S
C721 H714 0.950 . S
C721 C718 1.387 . S
C722 C723 1.387 . S
C722 H726 0.950 . S
C722 C731 1.390 . S
C723 C722 1.387 . S
C723 C725 1.387 . S
H724 C731 0.950 . S
C725 C723 1.387 . S
C725 C727 1.390 . S
C725 H729 0.950 . S
H726 C722 0.950 . S
C727 C725 1.390 . S
C727 C728 1.387 . S
C727 H730 0.950 . S
C728 C727 1.387 . S
C728 C731 1.387 . S
H729 C725 0.950 . S
H730 C727 0.950 . S
C731 C722 1.390 . S
C731 H724 0.950 . S
C731 C728 1.387 . S
C732 C733 1.387 . S
C732 H736 0.950 . S
C732 C741 1.390 . S
C733 C732 1.387 . S
C733 C735 1.387 . S
H734 C741 0.950 . S
C735 C733 1.387 . S
C735 C737 1.390 . S
C735 H739 0.950 . S
H736 C732 0.950 . S
C737 C735 1.390 . S
C737 C738 1.387 . S
C737 H740 0.950 . S
C738 C737 1.387 . S
C738 C741 1.387 . S
H739 C735 0.950 . S
H740 C737 0.950 . S
C741 C732 1.390 . S
C741 H734 0.950 . S
C741 C738 1.387 . S
C742 C743 1.387 . S
C742 H746 0.950 . S
C742 C751 1.390 . S
C743 C742 1.387 . S
C743 C745 1.387 . S
H744 C751 0.950 . S
C745 C743 1.387 . S
C745 C747 1.390 . S
C745 H749 0.950 . S
H746 C742 0.950 . S
C747 C745 1.390 . S
C747 C748 1.387 . S
C747 H750 0.950 . S
C748 C747 1.387 . S
C748 C751 1.387 . S
H749 C745 0.950 . S
H750 C747 0.950 . S
C751 C742 1.390 . S
C751 H744 0.950 . S
C751 C748 1.387 . S
C752 C753 1.387 . S
C752 H756 0.950 . S
C752 C761 1.390 1_554 S
C753 C752 1.387 . S
C753 C755 1.387 . S
H754 C761 0.950 . S
C755 C753 1.387 . S
C755 C757 1.390 1_554 S
C755 H759 0.950 . S
H756 C752 0.950 . S
C757 C755 1.390 1_556 S
C757 C758 1.387 . S
C757 H760 0.950 . S
C758 C757 1.387 . S
C758 C761 1.387 . S
H759 C755 0.950 . S
H760 C757 0.950 . S
C761 C752 1.390 1_556 S
C761 H754 0.950 . S
C761 C758 1.387 . S
C762 C763 1.387 . S
C762 H766 0.950 . S
C762 C771 1.390 . S
C763 C762 1.387 . S
C763 C765 1.387 . S
H764 C771 0.950 . S
C765 C763 1.387 . S
C765 C767 1.390 . S
C765 H769 0.950 . S
H766 C762 0.950 . S
C767 C765 1.390 . S
C767 C768 1.387 . S
C767 H770 0.950 . S
C768 C767 1.387 . S
C768 C771 1.387 . S
H769 C765 0.950 . S
H770 C767 0.950 . S
C771 C762 1.390 . S
C771 H764 0.950 . S
C771 C768 1.387 . S
C772 C773 1.387 1_455 S
C772 H776 0.950 . S
C772 C781 1.390 1_554 S
C773 C772 1.387 1_655 S
C773 C775 1.387 . S
H774 C781 0.950 . S
C775 C773 1.387 . S
C775 C777 1.390 1_554 S
C775 H779 0.950 . S
H776 C772 0.950 . S
C777 C775 1.390 1_556 S
C777 C778 1.387 . S
C777 H780 0.950 . S
C778 C777 1.387 . S
C778 C781 1.387 1_655 S
H779 C775 0.950 . S
H780 C777 0.950 . S
C781 C772 1.390 1_556 S
C781 H774 0.950 . S
C781 C778 1.387 1_455 S
C782 C783 1.387 1_545 S
C782 H786 0.950 . S
C782 C791 1.390 . S
C783 C782 1.387 1_565 S
C783 C785 1.387 . S
H784 C791 0.950 . S
C785 C783 1.387 . S
C785 C787 1.390 . S
C785 H789 0.950 . S
H786 C782 0.950 . S
C787 C785 1.390 . S
C787 C788 1.387 . S
C787 H790 0.950 . S
C788 C787 1.387 . S
C788 C791 1.387 1_565 S
H789 C785 0.950 . S
H790 C787 0.950 . S
C791 C782 1.390 . S
C791 H784 0.950 . S
C791 C788 1.387 1_545 S
C792 C793 1.387 . S
C792 H796 0.950 . S
C792 C801 1.390 1_554 S
C793 C792 1.387 . S
C793 C795 1.387 . S
H794 C801 0.950 . S
C795 C793 1.387 . S
C795 C797 1.390 1_554 S
C795 H799 0.950 . S
H796 C792 0.950 . S
C797 C795 1.390 1_556 S
C797 C798 1.387 . S
C797 H800 0.950 . S
C798 C797 1.387 . S
C798 C801 1.387 . S
H799 C795 0.950 . S
H800 C797 0.950 . S
C801 C792 1.390 1_556 S
C801 H794 0.950 . S
C801 C798 1.387 . S
C802 C803 1.387 . S
C802 H806 0.950 . S
C802 C811 1.390 . S
C803 C802 1.387 . S
C803 C805 1.387 . S
H804 C811 0.950 . S
C805 C803 1.387 . S
C805 C807 1.390 . S
C805 H809 0.950 . S
H806 C802 0.950 . S
C807 C805 1.390 . S
C807 C808 1.387 . S
C807 H810 0.950 . S
C808 C807 1.387 . S
C808 C811 1.387 . S
H809 C805 0.950 . S
H810 C807 0.950 . S
C811 C802 1.390 . S
C811 H804 0.950 . S
C811 C808 1.387 . S
C812 C813 1.387 . S
C812 H816 0.950 . S
C812 C821 1.390 1_556 S
C813 C812 1.387 . S
C813 C815 1.387 1_455 S
H814 C821 0.950 . S
C815 C813 1.387 1_655 S
C815 C817 1.390 1_556 S
C815 H819 0.950 . S
H816 C812 0.950 . S
C817 C815 1.390 1_554 S
C817 C818 1.387 1_655 S
C817 H820 0.950 . S
C818 C817 1.387 1_455 S
C818 C821 1.387 . S
H819 C815 0.950 . S
H820 C817 0.950 . S
C821 C812 1.390 1_554 S
C821 H814 0.950 . S
C821 C818 1.387 . S
C822 C823 1.387 . S
C822 H826 0.950 . S
C822 C831 1.390 . S
C823 C822 1.387 . S
C823 C825 1.387 1_545 S
H824 C831 0.950 . S
C825 C823 1.387 1_565 S
C825 C827 1.390 . S
C825 H829 0.950 . S
H826 C822 0.950 . S
C827 C825 1.390 . S
C827 C828 1.387 1_565 S
C827 H830 0.950 . S
C828 C827 1.387 1_545 S
C828 C831 1.387 . S
H829 C825 0.950 . S
H830 C827 0.950 . S
C831 C822 1.390 . S
C831 H824 0.950 . S
C831 C828 1.387 . S
C353 C7 1.230 . S
C358 C202 1.246 . S
C363 C29 1.229 . S
C368 C224 1.245 . S
C373 C246 1.246 . S
C378 C51 1.230 . S
C383 C184 1.244 . S
C388 C73 1.231 . S
C393 C95 1.231 . S
C398 C338 1.243 . S
C403 C272 1.245 . S
C408 C116 1.229 . S
C413 C294 1.246 . S
C418 C138 1.230 . S
C423 C316 1.243 . S
C428 C160 1.231 . S
C433 C30 1.246 . S
C438 C185 1.231 . S
C443 C203 1.231 . S
C448 C52 1.244 . S
C453 C74 1.245 . S
C458 C225 1.230 . S
C463 C8 1.244 . S
C468 C247 1.231 . S
C473 C158 1.243 . S
C478 C273 1.230 . S
C483 C96 1.245 . S
C488 C295 1.230 . S
C493 C317 1.231 . S
C498 C114 1.243 . S
C503 C136 1.244 . S
C508 C339 1.232 . S
C513 C4 1.525 . S
C518 C337 1.563 . S
C523 C26 1.523 . S
C528 C271 1.562 . S
C533 C48 1.522 . S
C538 C293 1.561 . S
C543 C315 1.561 . S
C548 C70 1.522 . S
C553 C92 1.525 . S
C558 C204 1.563 . S
C563 C118 1.525 . S
C568 C226 1.562 . S
C573 C140 1.524 . S
C578 C248 1.562 . S
C583 C183 1.563 . S
C588 C162 1.525 . S
C593 C180 1.525 . S
C598 C159 1.563 . S
C603 C206 1.523 . S
C608 C97 1.562 . S
C613 C228 1.525 . S
C618 C115 1.563 . S
C623 C250 1.523 . S
C628 C137 1.562 . S
C633 C31 1.563 . S
C638 C268 1.525 . S
C643 C53 1.562 . S
C648 C290 1.525 . S
C653 C75 1.563 . S
C658 C312 1.525 . S
C663 C334 1.524 . S
C668 C9 1.562 . S
C673 C161 1.446 . S
C678 C6 1.447 . S
C683 C94 1.446 . S
C688 C28 1.444 . S
C693 C50 1.443 . S
C698 C117 1.444 . S
C703 C72 1.445 . S
C708 C139 1.443 . S
C713 C335 1.443 . S
C718 C181 1.442 . S
C723 C207 1.443 . S
C728 C269 1.444 . S
C733 C291 1.446 . S
C738 C229 1.447 . S
C743 C251 1.442 . S
C748 C313 1.441 . S
C753 C5 1.459 . S
C758 C93 1.459 . S
C763 C119 1.458 . S
C768 C27 1.458 . S
C773 C49 1.459 . S
C778 C141 1.459 . S
C783 C163 1.459 . S
C788 C71 1.459 . S
C793 C270 1.459 . S
C798 C182 1.459 . S
C803 C292 1.458 . S
C808 C205 1.458 . S
C813 C227 1.459 . S
C818 C314 1.459 . S
C823 C249 1.459 . S
C828 C336 1.459 . S
