# Generated by pormake.
# Topology noz, (5)-cn, num edge types: 1
# Building blocks:
#     Node 0, Type 0, BuildingBlock: BEQFEK_clean_sbu_0, # of connection points: 5
#     Node 1, Type 0, BuildingBlock: BEQFEK_clean_sbu_0, # of connection points: 5
#     Node 2, Type 0, BuildingBlock: BEQFEK_clean_sbu_0, # of connection points: 5
#     Node 3, Type 0, BuildingBlock: BEQFEK_clean_sbu_0, # of connection points: 5
#     Node 4, Type 0, BuildingBlock: BEQFEK_clean_sbu_0, # of connection points: 5
#     Node 5, Type 0, BuildingBlock: BEQFEK_clean_sbu_0, # of connection points: 5
#     Node 6, Type 0, BuildingBlock: BEQFEK_clean_sbu_0, # of connection points: 5
#     Node 7, Type 0, BuildingBlock: BEQFEK_clean_sbu_0, # of connection points: 5
#     Edge 8, Type (0, 0), BuildingBlock: UVAHIK_clean_linker_0, # of connection points: 2
#     Edge 9, Type (0, 0), BuildingBlock: UVAHIK_clean_linker_0, # of connection points: 2
#     Edge 10, Type (0, 0), BuildingBlock: UVAHIK_clean_linker_0, # of connection points: 2
#     Edge 11, Type (0, 0), BuildingBlock: UVAHIK_clean_linker_0, # of connection points: 2
#     Edge 12, Type (0, 0), BuildingBlock: UVAHIK_clean_linker_0, # of connection points: 2
#     Edge 13, Type (0, 0), BuildingBlock: UVAHIK_clean_linker_0, # of connection points: 2
#     Edge 14, Type (0, 0), BuildingBlock: UVAHIK_clean_linker_0, # of connection points: 2
#     Edge 15, Type (0, 0), BuildingBlock: UVAHIK_clean_linker_0, # of connection points: 2
#     Edge 16, Type (0, 0), BuildingBlock: UVAHIK_clean_linker_0, # of connection points: 2
#     Edge 17, Type (0, 0), BuildingBlock: UVAHIK_clean_linker_0, # of connection points: 2
#     Edge 18, Type (0, 0), BuildingBlock: UVAHIK_clean_linker_0, # of connection points: 2
#     Edge 19, Type (0, 0), BuildingBlock: UVAHIK_clean_linker_0, # of connection points: 2
#     Edge 20, Type (0, 0), BuildingBlock: UVAHIK_clean_linker_0, # of connection points: 2
#     Edge 21, Type (0, 0), BuildingBlock: UVAHIK_clean_linker_0, # of connection points: 2
#     Edge 22, Type (0, 0), BuildingBlock: UVAHIK_clean_linker_0, # of connection points: 2
#     Edge 23, Type (0, 0), BuildingBlock: UVAHIK_clean_linker_0, # of connection points: 2
#     Edge 24, Type (0, 0), BuildingBlock: UVAHIK_clean_linker_0, # of connection points: 2
#     Edge 25, Type (0, 0), BuildingBlock: UVAHIK_clean_linker_0, # of connection points: 2
#     Edge 26, Type (0, 0), BuildingBlock: UVAHIK_clean_linker_0, # of connection points: 2
#     Edge 27, Type (0, 0), BuildingBlock: UVAHIK_clean_linker_0, # of connection points: 2
# Relax obj value: 0.085
# Max RMSD: 0.167
# Mean RMSD: 0.118
data_MOF--net-noz--node1-BEQFEK_clean_sbu_0--edge1-UVAHIK_clean_linker_0
_symmetry_space_group_name_H-M    P1
_symmetry_Int_Tables_number       1
_symmetry_cell_setting            triclinic
loop_
_symmetry_equiv_pos_as_xyz
'x, y, z'
_cell_length_a     30.825658
_cell_length_b     55.103847
_cell_length_c     54.631143
_cell_angle_alpha  88.852269
_cell_angle_beta   94.839495
_cell_angle_gamma 83.369477
loop_
_atom_site_label
_atom_site_type_symbol
_atom_site_fract_x
_atom_site_fract_y
_atom_site_fract_z
_atom_type_partial_charge
Co0 Co 0.08876 0.35928 0.36993 0.0
Co1 Co 0.01966 0.34418 0.40474 0.0
C2 C 0.11068 0.31989 0.41045 0.0
O3 O 0.12081 0.33335 0.39305 0.0
O4 O 0.07171 0.32158 0.41683 0.0
C5 C 0.14786 0.34562 0.33464 0.0
O6 O 0.14097 0.32385 0.34262 0.0
C7 C 0.95649 0.31852 0.43108 0.0
C8 C 0.90971 0.35024 0.43918 0.0
C9 C 0.91792 0.32507 0.44212 0.0
N10 N 0.96996 0.33897 0.42189 0.0
N11 N 0.94184 0.3578 0.42688 0.0
C12 C 0.98111 0.29356 0.4301 0.0
H13 H 0.01613 0.29468 0.42785 0.0
H14 H 0.96727 0.28403 0.41408 0.0
H15 H 0.97807 0.28265 0.44705 0.0
C16 C 0.01666 0.35041 0.33235 0.0
N17 N 0.03472 0.34985 0.35576 0.0
N18 N 0.00668 0.34249 0.37038 0.0
C19 C 0.97031 0.33773 0.35674 0.0
C20 C 0.97542 0.34255 0.3322 0.0
C21 C 0.03807 0.35898 0.31071 0.0
H22 H 0.05262 0.37604 0.31513 0.0
H23 H 0.06492 0.34486 0.30663 0.0
H24 H 0.01458 0.36215 0.29411 0.0
O25 O 0.07822 0.38998 0.3882 0.0
O26 O 0.03119 0.3776 0.41294 0.0
H27 H 0.91664 0.34627 0.37862 0.0
H28 H 0.90389 0.32787 0.35271 0.0
C29 C 0.92973 0.33117 0.36723 0.0
H30 H 0.93803 0.31452 0.37918 0.0
H31 H 0.94457 0.37588 0.42183 0.0
O32 O 0.128 0.36439 0.34372 0.0
C33 C 0.05364 0.39388 0.40567 0.0
Co34 Co 0.50043 0.64301 0.87156 0.0
Co35 Co 0.57716 0.6575 0.9082 0.0
C36 C 0.48974 0.68589 0.90573 0.0
O37 O 0.4757 0.67133 0.88992 0.0
O38 O 0.52983 0.68361 0.91419 0.0
C39 C 0.43843 0.65735 0.8318 0.0
O40 O 0.45244 0.67847 0.83687 0.0
C41 C 0.64251 0.68048 0.94065 0.0
C42 C 0.70101 0.65355 0.93893 0.0
C43 C 0.68698 0.67588 0.94858 0.0
N44 N 0.63151 0.66207 0.92642 0.0
N45 N 0.6665 0.64587 0.92589 0.0
C46 C 0.60989 0.70057 0.94826 0.0
H47 H 0.57849 0.69334 0.95089 0.0
H48 H 0.60383 0.71507 0.93357 0.0
H49 H 0.62153 0.7085 0.96576 0.0
C50 C 0.56763 0.64626 0.83632 0.0
N51 N 0.55379 0.64873 0.85899 0.0
N52 N 0.5853 0.65589 0.87393 0.0
C53 C 0.61974 0.65895 0.86095 0.0
C54 C 0.60989 0.65269 0.83679 0.0
C55 C 0.54237 0.63579 0.81527 0.0
H56 H 0.52272 0.62187 0.82213 0.0
H57 H 0.51971 0.65066 0.80551 0.0
H58 H 0.56453 0.62731 0.80204 0.0
O59 O 0.5095 0.61415 0.89409 0.0
O60 O 0.56036 0.62608 0.92104 0.0
H61 H 0.68461 0.65327 0.87882 0.0
H62 H 0.67605 0.67786 0.85625 0.0
C63 C 0.66078 0.66865 0.87102 0.0
H64 H 0.65352 0.68183 0.8856 0.0
H65 H 0.66693 0.62967 0.91628 0.0
O66 O 0.45531 0.63844 0.84442 0.0
C67 C 0.53433 0.61073 0.91399 0.0
Co68 Co 0.05198 0.65619 0.5651 0.0
Co69 Co 0.98629 0.632 0.59597 0.0
C70 C 0.95633 0.67471 0.56128 0.0
O71 O 0.99518 0.67583 0.55547 0.0
O72 O 0.94812 0.65873 0.57687 0.0
C73 C 0.0915 0.68454 0.53067 0.0
O74 O 0.05241 0.68643 0.51869 0.0
C75 C 0.92142 0.63022 0.63183 0.0
C76 C 0.92959 0.59116 0.64325 0.0
C77 C 0.90631 0.61353 0.64748 0.0
N78 N 0.95205 0.61826 0.61898 0.0
N79 N 0.95653 0.59487 0.62572 0.0
C80 C 0.91047 0.65742 0.63075 0.0
H81 H 0.93839 0.6663 0.6246 0.0
H82 H 0.90237 0.6643 0.64897 0.0
H83 H 0.88163 0.6624 0.61729 0.0
C84 C 0.0985 0.65866 0.61415 0.0
N85 N 0.06362 0.6535 0.59953 0.0
N86 N 0.03648 0.64339 0.6128 0.0
C87 C 0.05344 0.64175 0.63646 0.0
C88 C 0.09326 0.65144 0.63809 0.0
C89 C 0.13798 0.66791 0.60474 0.0
H90 H 0.14948 0.65617 0.58976 0.0
H91 H 0.12874 0.68671 0.59691 0.0
H92 H 0.16526 0.668 0.6193 0.0
O93 O 0.05161 0.62352 0.5511 0.0
O94 O 0.00498 0.60617 0.57276 0.0
H95 H 0.02896 0.61143 0.65345 0.0
H96 H 0.05102 0.63232 0.67504 0.0
C97 C 0.03214 0.63091 0.65703 0.0
H98 H 0.99882 0.64064 0.65788 0.0
H99 H 0.97866 0.58155 0.61874 0.0
O100 O 0.09845 0.67227 0.55082 0.0
C101 C 0.03114 0.60543 0.55582 0.0
Co102 Co 0.49411 0.3677 0.10854 0.0
Co103 Co 0.56726 0.34976 0.07438 0.0
C104 C 0.48644 0.32686 0.07128 0.0
O105 O 0.4719 0.34192 0.08694 0.0
O106 O 0.52529 0.32651 0.06488 0.0
C107 C 0.44394 0.35311 0.14512 0.0
O108 O 0.46212 0.33188 0.13821 0.0
C109 C 0.63883 0.32427 0.04818 0.0
C110 C 0.67883 0.35454 0.04313 0.0
C111 C 0.67702 0.33001 0.03874 0.0
N112 N 0.6192 0.34454 0.05774 0.0
N113 N 0.64311 0.36257 0.05447 0.0
C114 C 0.62281 0.29973 0.04987 0.0
H115 H 0.60368 0.29855 0.06609 0.0
H116 H 0.65064 0.28494 0.05117 0.0
H117 H 0.60096 0.29721 0.03315 0.0
C118 C 0.57023 0.35816 0.14629 0.0
N119 N 0.55177 0.35761 0.12305 0.0
N120 N 0.58187 0.34887 0.10882 0.0
C121 C 0.62008 0.34289 0.12266 0.0
C122 C 0.61401 0.34863 0.14682 0.0
C123 C 0.54653 0.36803 0.16742 0.0
H124 H 0.52685 0.35403 0.17409 0.0
H125 H 0.56966 0.37249 0.18289 0.0
H126 H 0.52385 0.38456 0.16134 0.0
O127 O 0.49317 0.39828 0.08854 0.0
O128 O 0.5405 0.38276 0.06284 0.0
H129 H 0.67386 0.34853 0.10187 0.0
H130 H 0.68825 0.32723 0.12743 0.0
C131 C 0.66238 0.33362 0.11263 0.0
H132 H 0.65713 0.31836 0.10022 0.0
H133 H 0.63535 0.38031 0.06036 0.0
O134 O 0.45319 0.37249 0.13473 0.0
C135 C 0.51365 0.40019 0.06943 0.0
Co136 Co 0.58792 0.85775 0.3708 0.0
Co137 Co 0.5191 0.84286 0.40605 0.0
C138 C 0.60975 0.81776 0.41054 0.0
O139 O 0.62 0.83127 0.39323 0.0
O140 O 0.57095 0.81975 0.41717 0.0
C141 C 0.64538 0.84437 0.33454 0.0
O142 O 0.6374 0.82258 0.34184 0.0
C143 C 0.45667 0.81623 0.43177 0.0
C144 C 0.40967 0.84732 0.44119 0.0
C145 C 0.418 0.82208 0.44288 0.0
N146 N 0.47 0.83711 0.42356 0.0
N147 N 0.44187 0.85557 0.42943 0.0
C148 C 0.48128 0.7914 0.42963 0.0
H149 H 0.51668 0.79264 0.4289 0.0
H150 H 0.46912 0.78318 0.41238 0.0
H151 H 0.47644 0.77926 0.44537 0.0
C152 C 0.51432 0.85022 0.3336 0.0
N153 N 0.53313 0.84903 0.35688 0.0
N154 N 0.50488 0.84228 0.37171 0.0
C155 C 0.4674 0.83889 0.35836 0.0
C156 C 0.47202 0.84387 0.3338 0.0
C157 C 0.53485 0.85962 0.312 0.0
H158 H 0.55232 0.87547 0.31735 0.0
H159 H 0.55918 0.84502 0.30598 0.0
H160 H 0.51002 0.86511 0.29638 0.0
O161 O 0.57868 0.88806 0.38997 0.0
O162 O 0.53184 0.87585 0.41498 0.0
H163 H 0.41297 0.84675 0.37988 0.0
H164 H 0.40251 0.82707 0.35449 0.0
C165 C 0.42747 0.83159 0.36898 0.0
H166 H 0.43686 0.81536 0.38136 0.0
H167 H 0.44446 0.87387 0.42519 0.0
O168 O 0.62678 0.86306 0.34438 0.0
C169 C 0.55479 0.89192 0.40777 0.0
Co170 Co 0.00164 0.14349 0.87251 0.0
Co171 Co 0.08095 0.15517 0.90926 0.0
C172 C 0.99462 0.18473 0.90867 0.0
O173 O 0.97927 0.17116 0.89231 0.0
O174 O 0.03492 0.18154 0.9167 0.0
C175 C 0.92315 0.15542 0.84039 0.0
O176 O 0.91982 0.17503 0.85366 0.0
C177 C 0.15021 0.18086 0.93399 0.0
C178 C 0.19807 0.15005 0.94882 0.0
C179 C 0.19057 0.17535 0.9475 0.0
N180 N 0.1347 0.1598 0.92774 0.0
N181 N 0.16338 0.14147 0.93677 0.0
C182 C 0.12782 0.20555 0.92571 0.0
H183 H 0.10731 0.20424 0.90819 0.0
H184 H 0.15214 0.21857 0.92327 0.0
H185 H 0.10606 0.21258 0.9398 0.0
C186 C 0.06739 0.14813 0.83682 0.0
N187 N 0.05494 0.14929 0.85984 0.0
N188 N 0.08832 0.15385 0.875 0.0
C189 C 0.12336 0.15544 0.86208 0.0
C190 C 0.11127 0.15187 0.83741 0.0
C191 C 0.03731 0.14384 0.81476 0.0
H192 H 0.00673 0.1566 0.81467 0.0
H193 H 0.05245 0.14663 0.79737 0.0
H194 H 0.02838 0.12493 0.81589 0.0
O195 O 0.01046 0.1139 0.89456 0.0
O196 O 0.0631 0.12404 0.9215 0.0
H197 H 0.17738 0.14368 0.88838 0.0
H198 H 0.1935 0.15572 0.86017 0.0
C199 C 0.16843 0.15786 0.87359 0.0
H200 H 0.16858 0.17603 0.88197 0.0
H201 H 0.15939 0.12306 0.93455 0.0
O202 O 0.95589 0.1392 0.84507 0.0
C203 C 0.03572 0.1095 0.91424 0.0
Co204 Co 0.55412 0.15632 0.56382 0.0
Co205 Co 0.48774 0.13276 0.59474 0.0
C206 C 0.45875 0.17487 0.5589 0.0
O207 O 0.49773 0.17602 0.5534 0.0
O208 O 0.45039 0.15905 0.57458 0.0
C209 C 0.59891 0.19529 0.5494 0.0
O210 O 0.5678 0.20787 0.56047 0.0
C211 C 0.42664 0.13308 0.63321 0.0
C212 C 0.42058 0.09381 0.63847 0.0
C213 C 0.40634 0.11674 0.64681 0.0
N214 N 0.45196 0.12033 0.61788 0.0
N215 N 0.44813 0.09688 0.6211 0.0
C216 C 0.42071 0.16043 0.6338 0.0
H217 H 0.43084 0.16862 0.61685 0.0
H218 H 0.44156 0.16646 0.64951 0.0
H219 H 0.38602 0.16725 0.63609 0.0
C220 C 0.60157 0.15771 0.61314 0.0
N221 N 0.56581 0.15384 0.59845 0.0
N222 N 0.53821 0.14391 0.61159 0.0
C223 C 0.55573 0.14111 0.63513 0.0
C224 C 0.5963 0.14986 0.63686 0.0
C225 C 0.64069 0.16791 0.60439 0.0
H226 H 0.65218 0.15747 0.58854 0.0
H227 H 0.63108 0.18719 0.59818 0.0
H228 H 0.66791 0.16746 0.61906 0.0
O229 O 0.55346 0.12333 0.55048 0.0
O230 O 0.50681 0.1062 0.5724 0.0
H231 H 0.5256 0.11045 0.64749 0.0
H232 H 0.56128 0.12267 0.67086 0.0
C233 C 0.53691 0.12745 0.65487 0.0
H234 H 0.50838 0.13894 0.66122 0.0
H235 H 0.46428 0.08295 0.6114 0.0
O236 O 0.59999 0.17221 0.54874 0.0
C237 C 0.53318 0.10523 0.55554 0.0
Co238 Co 0.99289 0.86744 0.10907 0.0
Co239 Co 0.063 0.85025 0.0727 0.0
C240 C 0.9833 0.82647 0.07235 0.0
O241 O 0.96957 0.84159 0.08815 0.0
O242 O 0.02141 0.8263 0.06494 0.0
C243 C 0.94636 0.85262 0.14742 0.0
O244 O 0.96516 0.83145 0.14071 0.0
C245 C 0.13224 0.8253 0.04427 0.0
C246 C 0.17126 0.85584 0.03845 0.0
C247 C 0.16942 0.83134 0.03391 0.0
N248 N 0.11322 0.84538 0.05449 0.0
N249 N 0.13655 0.86356 0.05075 0.0
C250 C 0.11692 0.80061 0.04632 0.0
H251 H 0.09923 0.79916 0.06306 0.0
H252 H 0.14496 0.78598 0.0469 0.0
H253 H 0.09393 0.79805 0.03008 0.0
C254 C 0.0721 0.85837 0.14482 0.0
N255 N 0.0517 0.85776 0.12203 0.0
N256 N 0.08072 0.84988 0.1068 0.0
C257 C 0.1203 0.84487 0.11945 0.0
C258 C 0.1163 0.85025 0.14391 0.0
C259 C 0.05044 0.8686 0.16649 0.0
H260 H 0.02507 0.88397 0.16048 0.0
H261 H 0.03423 0.85411 0.1752 0.0
H262 H 0.07467 0.87502 0.18033 0.0
O263 O 0.98973 0.89804 0.08883 0.0
O264 O 0.03441 0.88305 0.06151 0.0
H265 H 0.17391 0.84964 0.09816 0.0
H266 H 0.18687 0.82689 0.12271 0.0
C267 C 0.16116 0.83479 0.10839 0.0
H268 H 0.15367 0.82036 0.0954 0.0
H269 H 0.12912 0.8812 0.057 0.0
O270 O 0.95397 0.87198 0.1363 0.0
C271 C 0.00803 0.90025 0.06898 0.0
C272 C 0.20034 0.32709 0.30582 0.0
C273 C 0.17816 0.34805 0.31534 0.0
C274 C 0.22955 0.32916 0.28792 0.0
C275 C 0.25942 0.37101 0.24027 0.0
H276 H 0.36807 0.32734 0.24545 0.0
C277 C 0.39481 0.37663 0.17313 0.0
C278 C 0.41401 0.35416 0.165 0.0
C279 C 0.36666 0.37727 0.192 0.0
C280 C 0.33772 0.33954 0.24362 0.0
H281 H 0.16894 0.3877 0.31328 0.0
H282 H 0.22031 0.3913 0.28202 0.0
H283 H 0.31762 0.32593 0.27727 0.0
H284 H 0.41846 0.31477 0.17024 0.0
H285 H 0.36935 0.31591 0.20281 0.0
H286 H 0.27952 0.38444 0.20643 0.0
C287 C 0.21479 0.37325 0.28835 0.0
C288 C 0.30879 0.33872 0.26186 0.0
C289 C 0.18555 0.37118 0.30634 0.0
C290 C 0.40443 0.33241 0.1761 0.0
C291 C 0.37644 0.33305 0.19491 0.0
C292 C 0.28843 0.37182 0.22197 0.0
C293 C 0.23734 0.35225 0.27906 0.0
C294 C 0.26902 0.3542 0.26025 0.0
C295 C 0.35731 0.35547 0.20316 0.0
C296 C 0.32763 0.35584 0.22327 0.0
H297 H 0.19527 0.30899 0.31223 0.0
H298 H 0.24578 0.3126 0.28085 0.0
H299 H 0.22888 0.38304 0.2384 0.0
H300 H 0.4016 0.39371 0.16498 0.0
H301 H 0.3527 0.39484 0.19807 0.0
C302 C 0.38742 0.63346 0.8064 0.0
C303 C 0.40327 0.65583 0.81188 0.0
C304 C 0.35357 0.63234 0.78785 0.0
C305 C 0.29806 0.66615 0.73257 0.0
H306 H 0.20338 0.62754 0.74308 0.0
C307 C 0.1416 0.67371 0.66635 0.0
C308 C 0.12534 0.65181 0.65972 0.0
C309 C 0.1746 0.67385 0.68549 0.0
C310 C 0.2298 0.63822 0.73978 0.0
H311 H 0.39603 0.69455 0.8021 0.0
H312 H 0.33699 0.69261 0.77 0.0
H313 H 0.26372 0.62805 0.77499 0.0
H314 H 0.13002 0.61296 0.66785 0.0
H315 H 0.18779 0.6131 0.70146 0.0
H316 H 0.26427 0.67634 0.69743 0.0
C317 C 0.351 0.67587 0.7798 0.0
C318 C 0.26441 0.63848 0.75804 0.0
C319 C 0.38473 0.67699 0.79832 0.0
C320 C 0.14178 0.63012 0.67289 0.0
C321 C 0.1748 0.63023 0.69208 0.0
C322 C 0.26352 0.66589 0.71436 0.0
C323 C 0.33496 0.65355 0.77434 0.0
C324 C 0.29881 0.65257 0.7547 0.0
C325 C 0.19201 0.65205 0.69837 0.0
C326 C 0.22884 0.65205 0.71779 0.0
H327 H 0.40108 0.61681 0.81647 0.0
H328 H 0.34229 0.61482 0.78391 0.0
H329 H 0.32444 0.67683 0.72921 0.0
H330 H 0.12915 0.69067 0.65647 0.0
H331 H 0.18659 0.69104 0.69015 0.0
C332 C 0.8364 0.63459 0.66143 0.0
C333 C 0.87464 0.61813 0.66622 0.0
C334 C 0.80666 0.63868 0.6793 0.0
C335 C 0.77484 0.61139 0.73701 0.0
H336 H 0.71723 0.67669 0.7455 0.0
C337 C 0.68137 0.63673 0.82147 0.0
C338 C 0.63983 0.65016 0.81699 0.0
C339 C 0.70915 0.63328 0.80262 0.0
C340 C 0.73281 0.65833 0.74318 0.0
H341 H 0.91165 0.5929 0.69329 0.0
H342 H 0.86052 0.6004 0.7247 0.0
H343 H 0.76756 0.66968 0.71347 0.0
H344 H 0.59477 0.67084 0.7896 0.0
H345 H 0.64366 0.66497 0.75646 0.0
H346 H 0.74075 0.6002 0.76707 0.0
C347 C 0.85289 0.60988 0.70704 0.0
C348 C 0.76156 0.65426 0.72479 0.0
C349 C 0.88236 0.60565 0.68909 0.0
C350 C 0.6267 0.66039 0.79342 0.0
C351 C 0.6547 0.65714 0.77457 0.0
C352 C 0.74647 0.61551 0.7555 0.0
C353 C 0.81458 0.62642 0.70238 0.0
C354 C 0.78313 0.63075 0.72154 0.0
C355 C 0.69605 0.64333 0.77894 0.0
C356 C 0.72533 0.63903 0.75887 0.0
H357 H 0.829 0.64396 0.64371 0.0
H358 H 0.77711 0.65115 0.67487 0.0
H359 H 0.79002 0.59295 0.73473 0.0
H360 H 0.69202 0.62845 0.83944 0.0
H361 H 0.74097 0.62275 0.80659 0.0
C362 C 0.66996 0.32531 0.17668 0.0
C363 C 0.64824 0.34779 0.16748 0.0
C364 C 0.70494 0.32454 0.19483 0.0
C365 C 0.75898 0.36261 0.24111 0.0
H366 H 0.85884 0.31371 0.23647 0.0
C367 C 0.92318 0.36498 0.29982 0.0
C368 C 0.94151 0.34279 0.31143 0.0
C369 C 0.88801 0.36553 0.28181 0.0
C370 C 0.83107 0.32736 0.23809 0.0
H371 H 0.64533 0.38705 0.16971 0.0
H372 H 0.70693 0.38592 0.20114 0.0
H373 H 0.79527 0.31478 0.20655 0.0
H374 H 0.93852 0.3038 0.31338 0.0
H375 H 0.87725 0.30459 0.28158 0.0
H376 H 0.79531 0.37539 0.27246 0.0
C377 C 0.69661 0.3688 0.19487 0.0
C378 C 0.79449 0.32793 0.22102 0.0
C379 C 0.66143 0.36952 0.17686 0.0
C380 C 0.92495 0.32107 0.30444 0.0
C381 C 0.89005 0.32156 0.28628 0.0
C382 C 0.79572 0.36217 0.25805 0.0
C383 C 0.71914 0.34629 0.20394 0.0
C384 C 0.7579 0.34554 0.22233 0.0
C385 C 0.8708 0.34384 0.27501 0.0
C386 C 0.83213 0.34452 0.25674 0.0
H387 H 0.66018 0.30835 0.16959 0.0
H388 H 0.72092 0.30688 0.20166 0.0
H389 H 0.73119 0.37617 0.24297 0.0
H390 H 0.9353 0.38197 0.30516 0.0
H391 H 0.87412 0.38293 0.27329 0.0
C392 C 0.69814 0.82596 0.30578 0.0
C393 C 0.67601 0.84689 0.31539 0.0
C394 C 0.72793 0.82809 0.28819 0.0
C395 C 0.75975 0.87007 0.24132 0.0
H396 H 0.86854 0.82652 0.24758 0.0
C397 C 0.89665 0.876 0.17526 0.0
C398 C 0.91668 0.85359 0.16744 0.0
C399 C 0.86818 0.87656 0.19397 0.0
C400 C 0.83816 0.83868 0.24542 0.0
H401 H 0.66738 0.88654 0.31376 0.0
H402 H 0.71963 0.89025 0.28298 0.0
H403 H 0.81679 0.82494 0.27869 0.0
H404 H 0.92241 0.81422 0.17317 0.0
H405 H 0.87267 0.8152 0.20541 0.0
H406 H 0.78099 0.88358 0.20782 0.0
C407 C 0.71371 0.87218 0.28904 0.0
C408 C 0.80849 0.83777 0.26327 0.0
C409 C 0.68395 0.87005 0.30675 0.0
C410 C 0.90774 0.83182 0.17879 0.0
C411 C 0.87937 0.83238 0.19742 0.0
C412 C 0.78945 0.87094 0.22338 0.0
C413 C 0.7363 0.85121 0.27971 0.0
C414 C 0.76868 0.85322 0.26129 0.0
C415 C 0.85924 0.85473 0.20529 0.0
C416 C 0.82877 0.85502 0.22506 0.0
H417 H 0.6927 0.80784 0.31192 0.0
H418 H 0.74421 0.81157 0.28108 0.0
H419 H 0.72921 0.88209 0.23917 0.0
H420 H 0.90293 0.8931 0.16692 0.0
H421 H 0.85354 0.89409 0.19975 0.0
C422 C 0.66979 0.13459 0.65786 0.0
C423 C 0.62876 0.14845 0.65846 0.0
C424 C 0.7011 0.13391 0.678 0.0
C425 C 0.73392 0.16989 0.73045 0.0
H426 H 0.80138 0.1095 0.75575 0.0
C427 C 0.84902 0.16778 0.81889 0.0
C428 C 0.88922 0.15275 0.82011 0.0
C429 C 0.81712 0.16615 0.79949 0.0
C430 C 0.78328 0.12657 0.74871 0.0
H431 H 0.58738 0.17184 0.68045 0.0
H432 H 0.64236 0.17094 0.71576 0.0
H433 H 0.74561 0.10856 0.72133 0.0
H434 H 0.92744 0.12405 0.80201 0.0
H435 H 0.87204 0.12158 0.76764 0.0
H436 H 0.77193 0.18807 0.75723 0.0
C437 C 0.65047 0.16074 0.69969 0.0
C438 C 0.75121 0.126 0.72906 0.0
C439 C 0.61902 0.16119 0.67963 0.0
C440 C 0.89666 0.1358 0.80161 0.0
C441 C 0.86481 0.13433 0.78198 0.0
C442 C 0.7662 0.1705 0.74988 0.0
C443 C 0.69197 0.14724 0.69901 0.0
C444 C 0.72602 0.14765 0.71985 0.0
C445 C 0.82474 0.14965 0.78059 0.0
C446 C 0.79111 0.14884 0.75943 0.0
H447 H 0.67769 0.12444 0.64173 0.0
H448 H 0.73283 0.12346 0.6769 0.0
H449 H 0.71559 0.18692 0.72343 0.0
H450 H 0.84203 0.18085 0.83299 0.0
H451 H 0.78634 0.17782 0.79942 0.0
C452 C 0.14088 0.12924 0.80207 0.0
C453 C 0.13983 0.14976 0.81691 0.0
C454 C 0.16851 0.12686 0.78305 0.0
C455 C 0.2703 0.14606 0.76353 0.0
H456 H 0.22817 0.12508 0.69941 0.0
C457 C 0.3785 0.14107 0.68203 0.0
C458 C 0.37522 0.1217 0.6659 0.0
C459 C 0.34903 0.14538 0.69999 0.0
C460 C 0.24067 0.13065 0.71729 0.0
H461 H 0.16621 0.18401 0.82347 0.0
H462 H 0.21533 0.17967 0.7904 0.0
H463 H 0.17791 0.13104 0.7315 0.0
H464 H 0.3394 0.09105 0.65666 0.0
H465 H 0.28883 0.09806 0.68841 0.0
H466 H 0.33326 0.14512 0.74966 0.0
C467 C 0.19482 0.16542 0.79351 0.0
C468 C 0.21178 0.13415 0.73564 0.0
C469 C 0.1668 0.16791 0.81238 0.0
C470 C 0.34251 0.10632 0.66861 0.0
C471 C 0.31323 0.1105 0.68668 0.0
C472 C 0.29931 0.14235 0.74526 0.0
C473 C 0.19599 0.14484 0.77867 0.0
C474 C 0.22633 0.14183 0.75896 0.0
C475 C 0.31597 0.13016 0.70255 0.0
C476 C 0.28491 0.13452 0.72191 0.0
H477 H 0.12082 0.11483 0.80543 0.0
H478 H 0.16911 0.11065 0.77212 0.0
H479 H 0.28257 0.15168 0.78145 0.0
H480 H 0.40432 0.15268 0.68127 0.0
H481 H 0.35213 0.16074 0.7118 0.0
C482 C 0.18895 0.86193 0.15994 0.0
C483 C 0.15212 0.85004 0.16372 0.0
C484 C 0.22358 0.86128 0.17823 0.0
C485 C 0.25231 0.8488 0.245 0.0
H486 H 0.3712 0.84429 0.2258 0.0
C487 C 0.39788 0.86065 0.31505 0.0
C488 C 0.43727 0.84555 0.3133 0.0
C489 C 0.36373 0.86129 0.29649 0.0
C490 C 0.33828 0.8453 0.23154 0.0
H491 H 0.12204 0.82835 0.18946 0.0
H492 H 0.18298 0.82669 0.22146 0.0
H493 H 0.31024 0.84427 0.19448 0.0
H494 H 0.47269 0.81969 0.29079 0.0
H495 H 0.41262 0.8203 0.25834 0.0
H496 H 0.28041 0.84899 0.28211 0.0
C497 C 0.18497 0.83689 0.20452 0.0
C498 C 0.30318 0.84564 0.21351 0.0
C499 C 0.15013 0.83773 0.18623 0.0
C500 C 0.4425 0.8315 0.29242 0.0
C501 C 0.40815 0.83196 0.27387 0.0
C502 C 0.28741 0.84828 0.26303 0.0
C503 C 0.22228 0.84857 0.2007 0.0
C504 C 0.2597 0.84757 0.21999 0.0
C505 C 0.36811 0.84669 0.2758 0.0
C506 C 0.33086 0.84671 0.25654 0.0
H507 H 0.19084 0.87188 0.14283 0.0
H508 H 0.25119 0.87097 0.17481 0.0
H509 H 0.21932 0.85054 0.2507 0.0
H510 H 0.39345 0.87188 0.3309 0.0
H511 H 0.33389 0.8733 0.29836 0.0
C512 C 0.01078 0.56441 0.54323 0.0
C513 C 0.03642 0.58361 0.54045 0.0
C514 C 0.01377 0.54464 0.5276 0.0
C515 C 0.08453 0.51176 0.48493 0.0
H516 H 0.9759 0.489 0.45899 0.0
C517 C 0.07881 0.43518 0.41357 0.0
C518 C 0.05129 0.41736 0.41852 0.0
C519 C 0.07729 0.45672 0.42685 0.0
C520 C 0.00656 0.49503 0.46619 0.0
H521 H 0.08624 0.59672 0.51943 0.0
H522 H 0.09131 0.56223 0.49221 0.0
H523 H 0.97367 0.52345 0.48627 0.0
H524 H 1.00016 0.40844 0.44108 0.0
H525 H 0.99795 0.44554 0.4641 0.0
H526 H 0.11742 0.48305 0.46507 0.0
C527 C 0.06902 0.56245 0.50653 0.0
C528 C 0.00526 0.51473 0.48186 0.0
C529 C 0.06593 0.58227 0.52209 0.0
C530 C 0.02186 0.42172 0.4367 0.0
C531 C 0.02031 0.44314 0.44984 0.0
C532 C 0.08584 0.49196 0.46927 0.0
C533 C 0.04256 0.54359 0.50891 0.0
C534 C 0.04422 0.52312 0.49166 0.0
C535 C 0.04807 0.46086 0.44518 0.0
C536 C 0.04686 0.48317 0.46001 0.0
H537 H 0.98784 0.56479 0.55722 0.0
H538 H 0.99345 0.53016 0.53013 0.0
H539 H 0.11512 0.51775 0.4923 0.0
H540 H 0.10184 0.43238 0.3997 0.0
H541 H 0.09887 0.47015 0.42273 0.0
C542 C 0.54346 0.58957 0.95535 0.0
C543 C 0.53131 0.58914 0.92997 0.0
C544 C 0.5386 0.5697 0.97075 0.0
C545 C 0.53796 0.50438 0.97188 0.0
H546 H 0.47067 0.51286 0.02862 0.0
C547 C 0.50605 0.42104 0.02845 0.0
C548 C 0.50686 0.42277 0.05405 0.0
C549 C 0.505 0.4419 0.01351 0.0
C550 C 0.49011 0.51018 0.01309 0.0
H551 H 0.50524 0.56743 0.90078 0.0
H552 H 0.49822 0.53228 0.9277 0.0
H553 H 0.47865 0.54823 0.00234 0.0
H554 H 0.50603 0.44759 0.08424 0.0
H555 H 0.50628 0.48425 0.05822 0.0
H556 H 0.5514 0.46677 0.98286 0.0
C557 C 0.51088 0.5482 0.9356 0.0
C558 C 0.49443 0.53043 0.998 0.0
C559 C 0.51485 0.56828 0.92025 0.0
C560 C 0.50512 0.44587 0.06448 0.0
C561 C 0.50516 0.46683 0.04952 0.0
C562 C 0.53442 0.48426 0.98717 0.0
C563 C 0.52239 0.54885 0.96098 0.0
C564 C 0.51811 0.52762 0.97718 0.0
C565 C 0.50606 0.46503 0.02384 0.0
C566 C 0.51004 0.48679 0.00786 0.0
H567 H 0.55596 0.60547 0.9634 0.0
H568 H 0.54797 0.5705 0.99025 0.0
H569 H 0.55692 0.50186 0.95611 0.0
H570 H 0.50682 0.4034 0.01996 0.0
H571 H 0.5041 0.43977 0.99382 0.0
C572 C 0.51605 0.06306 0.54495 0.0
C573 C 0.53959 0.08294 0.54093 0.0
C574 C 0.52098 0.04248 0.53046 0.0
C575 C 0.55572 0.02247 0.47034 0.0
H576 H 0.55757 0.95774 0.49981 0.0
C577 C 0.58213 0.93261 0.41624 0.0
C578 C 0.55431 0.91497 0.42131 0.0
C579 C 0.58288 0.95353 0.43038 0.0
C580 C 0.55684 0.97572 0.49129 0.0
H581 H 0.58738 0.09653 0.51874 0.0
H582 H 0.59621 0.06052 0.49373 0.0
H583 H 0.55462 0.99315 0.52585 0.0
H584 H 0.50445 0.90597 0.44474 0.0
H585 H 0.5057 0.94222 0.469 0.0
H586 H 0.55765 0.00491 0.43572 0.0
C587 C 0.57349 0.06102 0.50783 0.0
C588 C 0.55507 0.996 0.5062 0.0
C589 C 0.56858 0.0816 0.5223 0.0
C590 C 0.52663 0.919 0.44039 0.0
C591 C 0.5275 0.93975 0.45447 0.0
C592 C 0.55757 0.00213 0.4554 0.0
C593 C 0.54958 0.04128 0.51166 0.0
C594 C 0.55387 0.01965 0.49588 0.0
C595 C 0.55599 0.95708 0.44988 0.0
C596 C 0.55744 0.97858 0.46569 0.0
H597 H 0.49336 0.0635 0.55907 0.0
H598 H 0.50165 0.0277 0.53368 0.0
H599 H 0.55443 0.04048 0.46179 0.0
H600 H 0.60383 0.93006 0.40167 0.0
H601 H 0.60523 0.9666 0.42646 0.0
C602 C 0.99925 0.92225 0.02841 0.0
C603 C 0.99996 0.92319 0.05412 0.0
C604 C 0.99687 0.94367 0.01408 0.0
C605 C 0.03479 0.00214 0.01515 0.0
H606 H 0.95148 0.0194 0.95857 0.0
C607 C 0.04363 0.08846 0.9555 0.0
C608 C 0.031 0.08814 0.93021 0.0
C609 C 0.03689 0.06917 0.97113 0.0
C610 C 0.97548 0.01467 0.97405 0.0
H611 H 0.99782 0.94713 0.08506 0.0
H612 H 0.99527 0.98485 0.05985 0.0
H613 H 0.94257 0.98457 0.98526 0.0
H614 H 0.00223 0.06712 0.90134 0.0
H615 H 0.99262 0.03272 0.92836 0.0
H616 H 0.06947 0.031 0.00345 0.0
C617 C 0.99575 0.96746 0.05091 0.0
C618 C 0.96996 0.99491 0.98947 0.0
C619 C 0.99699 0.94599 0.06525 0.0
C620 C 0.01215 0.06789 0.92078 0.0
C621 C 0.00626 0.04829 0.93637 0.0
C622 C 0.04089 0.02156 0.99948 0.0
C623 C 0.99621 0.96638 0.02524 0.0
C624 C 0.99961 0.98849 0.01011 0.0
C625 C 0.01821 0.04875 0.96183 0.0
C626 C 0.01138 0.02811 0.97865 0.0
H627 H 1.00144 0.90487 0.0194 0.0
H628 H 0.99757 0.9424 0.99435 0.0
H629 H 0.05853 0.99721 0.03074 0.0
H630 H 0.05766 0.10398 0.96341 0.0
H631 H 0.04565 0.0706 0.99061 0.0
C632 C 0.18959 0.30289 0.41968 0.0
C633 C 0.14548 0.30315 0.42458 0.0
C634 C 0.22281 0.28872 0.43437 0.0
C635 C 0.24448 0.23647 0.47884 0.0
H636 H 0.34824 0.26692 0.49966 0.0
C637 C 0.37862 0.18997 0.55058 0.0
C638 C 0.42235 0.19121 0.5456 0.0
C639 C 0.34421 0.2041 0.53667 0.0
C640 C 0.31971 0.25804 0.49383 0.0
H641 H 0.10169 0.28802 0.44835 0.0
H642 H 0.15971 0.26331 0.47391 0.0
H643 H 0.28974 0.28965 0.47278 0.0
H644 H 0.46411 0.20874 0.52237 0.0
H645 H 0.4043 0.23304 0.49805 0.0
H646 H 0.27462 0.20477 0.49971 0.0
C647 C 0.16854 0.27404 0.45866 0.0
C648 C 0.28618 0.27107 0.47839 0.0
C649 C 0.1353 0.28829 0.44404 0.0
C650 C 0.43087 0.20733 0.52678 0.0
C651 C 0.39652 0.22139 0.51288 0.0
C652 C 0.27811 0.22338 0.49422 0.0
C653 C 0.21272 0.27439 0.45422 0.0
C654 C 0.24826 0.26041 0.47063 0.0
C655 C 0.35273 0.21978 0.51746 0.0
C656 C 0.31622 0.23398 0.50183 0.0
H657 H 0.19866 0.31402 0.4048 0.0
H658 H 0.25649 0.28907 0.43023 0.0
H659 H 0.21586 0.22767 0.47299 0.0
H660 H 0.37086 0.17783 0.56501 0.0
H661 H 0.3109 0.2027 0.54095 0.0
C662 C 0.41258 0.70416 0.90967 0.0
C663 C 0.45775 0.7042 0.91605 0.0
C664 C 0.38185 0.71922 0.92149 0.0
C665 C 0.37061 0.75192 0.97934 0.0
H666 H 0.25996 0.78044 0.94586 0.0
C667 C 0.24664 0.81936 0.02489 0.0
C668 C 0.20224 0.81572 0.02126 0.0
C669 C 0.27795 0.80582 0.01209 0.0
C670 C 0.29056 0.77237 0.95548 0.0
H671 H 0.50598 0.72117 0.93897 0.0
H672 H 0.45228 0.74792 0.95921 0.0
H673 H 0.31516 0.7585 0.92242 0.0
H674 H 0.15554 0.79552 1.00092 0.0
H675 H 0.21046 0.77163 0.97857 0.0
H676 H 0.34605 0.76608 0.01236 0.0
C677 C 0.44065 0.73572 0.9455 0.0
C678 C 0.32222 0.75982 0.94207 0.0
C679 C 0.47147 0.72051 0.93376 0.0
C680 C 0.18965 0.7983 0.00451 0.0
C681 C 0.22098 0.78488 0.99149 0.0
C682 C 0.33909 0.76463 0.9927 0.0
C683 C 0.39545 0.73487 0.93988 0.0
C684 C 0.36258 0.74933 0.95385 0.0
C685 C 0.26543 0.78858 0.99511 0.0
C686 C 0.29868 0.77489 0.98093 0.0
H687 H 0.40075 0.69183 0.89614 0.0
H688 H 0.34738 0.71786 0.91685 0.0
H689 H 0.40091 0.74367 0.98913 0.0
H690 H 0.25719 0.83278 0.03762 0.0
H691 H 0.31187 0.80925 0.01506 0.0
C692 C 0.11754 0.71396 0.5013 0.0
C693 C 0.12674 0.69718 0.52128 0.0
C694 C 0.15054 0.72656 0.49301 0.0
C695 C 0.26984 0.7245 0.49254 0.0
H696 H 0.24453 0.79456 0.48072 0.0
C697 C 0.38249 0.78324 0.44328 0.0
C698 C 0.38914 0.80582 0.45359 0.0
C699 C 0.35242 0.76903 0.45246 0.0
C700 C 0.25215 0.77503 0.48409 0.0
H701 H 0.17792 0.68011 0.54796 0.0
H702 H 0.23558 0.70203 0.5333 0.0
H703 H 0.18779 0.77142 0.49454 0.0
H704 H 0.36951 0.83123 0.48151 0.0
H705 H 0.31682 0.80648 0.49742 0.0
H706 H 0.33429 0.72818 0.48206 0.0
C707 C 0.20285 0.70538 0.52408 0.0
C708 C 0.21956 0.76177 0.49174 0.0
C709 C 0.16977 0.69294 0.53253 0.0
C710 C 0.36518 0.81386 0.47325 0.0
C711 C 0.33495 0.79976 0.4823 0.0
C712 C 0.30236 0.73775 0.48464 0.0
C713 C 0.19346 0.72246 0.50438 0.0
C714 C 0.22808 0.73639 0.49606 0.0
C715 C 0.32796 0.77732 0.47184 0.0
C716 C 0.29384 0.76316 0.48042 0.0
H717 H 0.08473 0.71761 0.49223 0.0
H718 H 0.14252 0.73946 0.47763 0.0
H719 H 0.27717 0.70492 0.49561 0.0
H720 H 0.39901 0.77692 0.42751 0.0
H721 H 0.34711 0.75199 0.44377 0.0
C722 C 0.20404 0.2132 0.97046 0.0
C723 C 0.2204 0.19205 0.95873 0.0
C724 C 0.23275 0.22796 0.98237 0.0
C725 C 0.34597 0.24351 0.9851 0.0
H726 H 0.32492 0.26402 0.05096 0.0
C727 C 0.47277 0.29136 0.04466 0.0
C728 C 0.45672 0.31032 0.05951 0.0
C729 C 0.44419 0.27657 0.03267 0.0
C730 C 0.33104 0.25878 0.03246 0.0
H731 H 0.27949 0.16972 0.95025 0.0
H732 H 0.32966 0.19563 0.97081 0.0
H733 H 0.27389 0.23996 0.02868 0.0
H734 H 0.39793 0.32851 0.07343 0.0
H735 H 0.34819 0.30327 0.0521 0.0
H736 H 0.40261 0.26264 0.98859 0.0
C737 C 0.29468 0.2009 0.97067 0.0
C738 C 0.30176 0.24494 0.01971 0.0
C739 C 0.26599 0.18602 0.95901 0.0
C740 C 0.41151 0.31397 0.06227 0.0
C741 C 0.38293 0.29937 0.0501 0.0
C742 C 0.37503 0.25757 0.99774 0.0
C743 C 0.27838 0.22192 0.98265 0.0
C744 C 0.30897 0.23711 0.99593 0.0
C745 C 0.3988 0.28053 0.03504 0.0
C746 C 0.36803 0.26535 0.02163 0.0
H747 H 0.16911 0.21799 0.97111 0.0
H748 H 0.21926 0.24409 0.9914 0.0
H749 H 0.35211 0.23795 0.96669 0.0
H750 H 0.50744 0.28795 0.04224 0.0
H751 H 0.45778 0.26197 0.02161 0.0
C752 C 0.87607 0.68947 0.55283 0.0
C753 C 0.91983 0.69112 0.54817 0.0
C754 C 0.84163 0.70343 0.53877 0.0
C755 C 0.81671 0.75729 0.4958 0.0
H756 H 0.7151 0.72561 0.47356 0.0
C757 C 0.68858 0.80072 0.42003 0.0
C758 C 0.64433 0.80081 0.42457 0.0
C759 C 0.7216 0.7867 0.43497 0.0
C760 C 0.7431 0.73476 0.47979 0.0
H761 H 0.9616 0.7093 0.52547 0.0
H762 H 0.90182 0.73326 0.50092 0.0
H763 H 0.77342 0.70339 0.50112 0.0
H764 H 0.60011 0.78539 0.44786 0.0
H765 H 0.65777 0.76091 0.47383 0.0
H766 H 0.78661 0.78856 0.47427 0.0
C767 C 0.89399 0.72143 0.51559 0.0
C768 C 0.77644 0.72208 0.49566 0.0
C769 C 0.92835 0.70755 0.52963 0.0
C770 C 0.63382 0.78581 0.44383 0.0
C771 C 0.66686 0.77169 0.45869 0.0
C772 C 0.7835 0.76991 0.47987 0.0
C773 C 0.85018 0.71934 0.51976 0.0
C774 C 0.81376 0.73316 0.50377 0.0
C775 C 0.71116 0.77234 0.45471 0.0
C776 C 0.74642 0.75876 0.47159 0.0
H777 H 0.86831 0.67707 0.56703 0.0
H778 H 0.80827 0.70167 0.54272 0.0
H779 H 0.84462 0.76653 0.50201 0.0
H780 H 0.69789 0.81198 0.40531 0.0
H781 H 0.75542 0.78726 0.4312 0.0
C782 C 0.69818 0.2969 0.00971 0.0
C783 C 0.71034 0.31417 0.0267 0.0
C784 C 0.72994 0.28329 0.99718 0.0
C785 C 0.84342 0.28388 0.9795 0.0
H786 H 0.83295 0.21613 0.96499 0.0
C787 C 0.97856 0.21787 0.93876 0.0
C788 C 0.96376 0.20279 0.92013 0.0
C789 C 0.94851 0.2327 0.95143 0.0
C790 C 0.8361 0.23511 0.96876 0.0
H791 H 0.765 0.33069 0.04414 0.0
H792 H 0.82059 0.30652 0.02282 0.0
H793 H 0.77899 0.23871 0.98862 0.0
H794 H 0.90568 0.19229 0.89958 0.0
H795 H 0.85378 0.21807 0.92156 0.0
H796 H 0.90107 0.27999 0.95985 0.0
C797 C 0.78656 0.30374 0.01875 0.0
C798 C 0.80513 0.24807 0.98224 0.0
C799 C 0.75478 0.31747 0.03109 0.0
C800 C 0.91839 0.2036 0.91383 0.0
C801 C 0.88852 0.21823 0.92655 0.0
C802 C 0.87465 0.27082 0.96618 0.0
C803 C 0.77452 0.28664 1.00146 0.0
C804 C 0.80819 0.27267 0.98764 0.0
C805 C 0.9032 0.23254 0.9458 0.0
C806 C 0.87103 0.24638 0.96049 0.0
H807 H 0.66405 0.29448 0.00544 0.0
H808 H 0.71937 0.27062 0.98365 0.0
H809 H 0.84644 0.30291 0.983 0.0
H810 H 0.01326 0.21771 0.94405 0.0
H811 H 0.96067 0.24358 0.96623 0.0
C812 C 0.88359 0.28607 0.44673 0.0
C813 C 0.88972 0.30966 0.45461 0.0
C814 C 0.85417 0.27265 0.45769 0.0
C815 C 0.75442 0.28151 0.48945 0.0
H816 H 0.78295 0.21358 0.51074 0.0
C817 C 0.6374 0.23225 0.54391 0.0
C818 C 0.63321 0.20773 0.53878 0.0
C819 C 0.66982 0.24407 0.53394 0.0
C820 C 0.77425 0.23244 0.50458 0.0
H821 H 0.86994 0.33761 0.48016 0.0
H822 H 0.81835 0.3143 0.49903 0.0
H823 H 0.83815 0.23506 0.49267 0.0
H824 H 0.65961 0.17633 0.51914 0.0
H825 H 0.71542 0.19715 0.50113 0.0
H826 H 0.69043 0.27897 0.50073 0.0
C827 C 0.83637 0.30618 0.48445 0.0
C828 C 0.80593 0.24473 0.49433 0.0
C829 C 0.86597 0.31948 0.47368 0.0
C830 C 0.66214 0.19523 0.52349 0.0
C831 C 0.69432 0.20713 0.5133 0.0
C832 C 0.72268 0.2692 0.49944 0.0
C833 C 0.82985 0.28275 0.4764 0.0
C834 C 0.79637 0.26943 0.48686 0.0
C835 C 0.69849 0.23172 0.51837 0.0
C836 C 0.73226 0.24457 0.50731 0.0
H837 H 0.9 0.27828 0.4315 0.0
H838 H 0.84923 0.25474 0.45091 0.0
H839 H 0.74596 0.30045 0.48344 0.0
H840 H 0.61587 0.24231 0.55583 0.0
H841 H 0.67262 0.26285 0.53865 0.0
C842 C 0.70768 0.71672 0.96266 0.0
C843 C 0.71575 0.69104 0.9633 0.0
C844 C 0.73625 0.73064 0.97589 0.0
C845 C 0.84738 0.73438 0.99469 0.0
H846 H 0.81187 0.77174 0.05049 0.0
C847 C 0.96971 0.7876 0.05143 0.0
C848 C 0.95334 0.80964 0.06158 0.0
C849 C 0.94101 0.77216 0.04066 0.0
C850 C 0.82226 0.76181 0.0347 0.0
H851 H 0.76134 0.66 0.97757 0.0
H852 H 0.81207 0.68454 0.99983 0.0
H853 H 0.76045 0.74748 0.02868 0.0
H854 H 0.89417 0.833 0.06813 0.0
H855 H 0.84435 0.80695 0.04831 0.0
H856 H 0.90819 0.74942 0.99956 0.0
C857 C 0.78284 0.69367 0.98964 0.0
C858 C 0.7928 0.74777 0.02239 0.0
C859 C 0.7538 0.67971 0.97689 0.0
C860 C 0.90777 0.81597 0.06071 0.0
C861 C 0.87914 0.80086 0.04945 0.0
C862 C 0.87654 0.74885 0.0066 0.0
C863 C 0.77414 0.7192 0.9893 0.0
C864 C 0.80523 0.73394 0.00236 0.0
C865 C 0.89525 0.77869 0.03925 0.0
C866 C 0.86445 0.7628 0.02682 0.0
H867 H 0.68022 0.72622 0.95137 0.0
H868 H 0.72946 0.75039 0.97507 0.0
H869 H 0.85741 0.72391 0.97913 0.0
H870 H 0.00471 0.78219 0.05199 0.0
H871 H 0.95486 0.75505 0.03356 0.0
loop_
_geom_bond_atom_site_label_1
_geom_bond_atom_site_label_2
_geom_bond_distance
_geom_bond_site_symmetry_2
_ccdc_geom_bond_type
Co0 O3 1.970 . S
Co0 N17 1.989 . S
Co0 O25 1.967 . S
Co0 O32 1.920 . S
Co1 O4 1.966 . S
Co1 N10 2.022 1_455 S
Co1 N18 1.993 1_455 S
Co1 O26 1.941 . S
C2 O3 1.258 . S
C2 O4 1.263 . S
O3 Co0 1.970 . S
O3 C2 1.258 . S
O4 Co1 1.966 . S
O4 C2 1.263 . S
C5 O6 1.235 . S
C5 O32 1.289 . S
O6 C5 1.235 . S
C7 C9 1.400 . S
C7 N10 1.351 . S
C7 C12 1.501 . S
C8 C9 1.387 . S
C8 N11 1.341 . S
C9 C7 1.400 . S
C9 C8 1.387 . S
N10 Co1 2.022 1_655 S
N10 C7 1.351 . S
N10 N11 1.365 . S
N11 C8 1.341 . S
N11 N10 1.365 . S
N11 H31 0.862 . S
C12 C7 1.501 . S
C12 H13 0.961 1_655 S
C12 H14 0.961 . S
C12 H15 0.960 . S
H13 C12 0.961 1_455 S
H14 C12 0.961 . S
H15 C12 0.960 . S
C16 N17 1.342 1_655 S
C16 C20 1.401 . S
C16 C21 1.499 1_655 S
N17 Co0 1.989 . S
N17 C16 1.342 1_455 S
N17 N18 1.388 1_455 S
N18 Co1 1.993 1_655 S
N18 N17 1.388 1_655 S
N18 C19 1.346 . S
C19 N18 1.346 . S
C19 C20 1.396 . S
C19 C29 1.510 . S
C20 C16 1.401 . S
C20 C19 1.396 . S
C21 C16 1.499 1_455 S
C21 H22 0.959 . S
C21 H23 0.960 . S
C21 H24 0.961 . S
H22 C21 0.959 . S
H23 C21 0.960 . S
H24 C21 0.961 . S
O25 Co0 1.967 . S
O25 C33 1.258 . S
O26 Co1 1.941 . S
O26 C33 1.266 . S
H27 C29 0.959 . S
H28 C29 0.961 . S
C29 C19 1.510 . S
C29 H27 0.959 . S
C29 H28 0.961 . S
C29 H30 0.960 . S
H30 C29 0.960 . S
H31 N11 0.862 . S
O32 Co0 1.920 . S
O32 C5 1.289 . S
C33 O25 1.258 . S
C33 O26 1.266 . S
Co34 O37 1.970 . S
Co34 N51 1.989 . S
Co34 O59 1.967 . S
Co34 O66 1.920 . S
Co35 O38 1.966 . S
Co35 N44 2.022 . S
Co35 N52 1.993 . S
Co35 O60 1.941 . S
C36 O37 1.258 . S
C36 O38 1.263 . S
O37 Co34 1.970 . S
O37 C36 1.258 . S
O38 Co35 1.966 . S
O38 C36 1.263 . S
C39 O40 1.235 . S
C39 O66 1.289 . S
O40 C39 1.235 . S
C41 C43 1.400 . S
C41 N44 1.351 . S
C41 C46 1.501 . S
C42 C43 1.387 . S
C42 N45 1.341 . S
C43 C41 1.400 . S
C43 C42 1.387 . S
N44 Co35 2.022 . S
N44 C41 1.351 . S
N44 N45 1.365 . S
N45 C42 1.341 . S
N45 N44 1.365 . S
N45 H65 0.862 . S
C46 C41 1.501 . S
C46 H47 0.961 . S
C46 H48 0.961 . S
C46 H49 0.960 . S
H47 C46 0.961 . S
H48 C46 0.961 . S
H49 C46 0.960 . S
C50 N51 1.342 . S
C50 C54 1.401 . S
C50 C55 1.499 . S
N51 Co34 1.989 . S
N51 C50 1.342 . S
N51 N52 1.388 . S
N52 Co35 1.993 . S
N52 N51 1.388 . S
N52 C53 1.346 . S
C53 N52 1.346 . S
C53 C54 1.396 . S
C53 C63 1.510 . S
C54 C50 1.401 . S
C54 C53 1.396 . S
C55 C50 1.499 . S
C55 H56 0.959 . S
C55 H57 0.960 . S
C55 H58 0.961 . S
H56 C55 0.959 . S
H57 C55 0.960 . S
H58 C55 0.961 . S
O59 Co34 1.967 . S
O59 C67 1.258 . S
O60 Co35 1.941 . S
O60 C67 1.266 . S
H61 C63 0.959 . S
H62 C63 0.961 . S
C63 C53 1.510 . S
C63 H61 0.959 . S
C63 H62 0.961 . S
C63 H64 0.960 . S
H64 C63 0.960 . S
H65 N45 0.862 . S
O66 Co34 1.920 . S
O66 C39 1.289 . S
C67 O59 1.258 . S
C67 O60 1.266 . S
Co68 O71 1.970 . S
Co68 N85 1.989 . S
Co68 O93 1.967 . S
Co68 O100 1.920 . S
Co69 O72 1.966 . S
Co69 N78 2.022 . S
Co69 N86 1.993 1_655 S
Co69 O94 1.944 . S
C70 O71 1.258 1_655 S
C70 O72 1.263 . S
O71 Co68 1.970 . S
O71 C70 1.258 1_455 S
O72 Co69 1.966 . S
O72 C70 1.263 . S
C73 O74 1.235 . S
C73 O100 1.289 . S
O74 C73 1.235 . S
C75 C77 1.400 . S
C75 N78 1.351 . S
C75 C80 1.501 . S
C76 C77 1.387 . S
C76 N79 1.341 . S
C77 C75 1.400 . S
C77 C76 1.387 . S
N78 Co69 2.022 . S
N78 C75 1.351 . S
N78 N79 1.365 . S
N79 C76 1.341 . S
N79 N78 1.365 . S
N79 H99 0.862 . S
C80 C75 1.501 . S
C80 H81 0.961 . S
C80 H82 0.961 . S
C80 H83 0.960 . S
H81 C80 0.961 . S
H82 C80 0.961 . S
H83 C80 0.960 . S
C84 N85 1.342 . S
C84 C88 1.401 . S
C84 C89 1.499 . S
N85 Co68 1.989 . S
N85 C84 1.342 . S
N85 N86 1.388 . S
N86 Co69 1.993 1_455 S
N86 N85 1.388 . S
N86 C87 1.346 . S
C87 N86 1.346 . S
C87 C88 1.396 . S
C87 C97 1.510 . S
C88 C84 1.401 . S
C88 C87 1.396 . S
C89 C84 1.499 . S
C89 H90 0.959 . S
C89 H91 0.960 . S
C89 H92 0.961 . S
H90 C89 0.959 . S
H91 C89 0.960 . S
H92 C89 0.961 . S
O93 Co68 1.967 . S
O93 C101 1.258 . S
O94 Co69 1.944 . S
O94 C101 1.253 1_655 S
H95 C97 0.959 . S
H96 C97 0.961 . S
C97 C87 1.510 . S
C97 H95 0.959 . S
C97 H96 0.961 . S
C97 H98 0.960 . S
H98 C97 0.960 . S
H99 N79 0.862 . S
O100 Co68 1.920 . S
O100 C73 1.289 . S
C101 O93 1.258 . S
C101 O94 1.253 1_455 S
Co102 O105 1.970 . S
Co102 N119 1.989 . S
Co102 O127 1.967 . S
Co102 O134 1.920 . S
Co103 O106 1.966 . S
Co103 N112 2.022 . S
Co103 N120 1.993 . S
Co103 O128 1.941 . S
C104 O105 1.258 . S
C104 O106 1.263 . S
O105 Co102 1.970 . S
O105 C104 1.258 . S
O106 Co103 1.966 . S
O106 C104 1.263 . S
C107 O108 1.235 . S
C107 O134 1.289 . S
O108 C107 1.235 . S
C109 C111 1.400 . S
C109 N112 1.351 . S
C109 C114 1.501 . S
C110 C111 1.387 . S
C110 N113 1.341 . S
C111 C109 1.400 . S
C111 C110 1.387 . S
N112 Co103 2.022 . S
N112 C109 1.351 . S
N112 N113 1.365 . S
N113 C110 1.341 . S
N113 N112 1.365 . S
N113 H133 0.862 . S
C114 C109 1.501 . S
C114 H115 0.961 . S
C114 H116 0.961 . S
C114 H117 0.960 . S
H115 C114 0.961 . S
H116 C114 0.961 . S
H117 C114 0.960 . S
C118 N119 1.342 . S
C118 C122 1.401 . S
C118 C123 1.499 . S
N119 Co102 1.989 . S
N119 C118 1.342 . S
N119 N120 1.388 . S
N120 Co103 1.993 . S
N120 N119 1.388 . S
N120 C121 1.346 . S
C121 N120 1.346 . S
C121 C122 1.396 . S
C121 C131 1.510 . S
C122 C118 1.401 . S
C122 C121 1.396 . S
C123 C118 1.499 . S
C123 H124 0.959 . S
C123 H125 0.960 . S
C123 H126 0.961 . S
H124 C123 0.959 . S
H125 C123 0.960 . S
H126 C123 0.961 . S
O127 Co102 1.967 . S
O127 C135 1.258 . S
O128 Co103 1.941 . S
O128 C135 1.266 . S
H129 C131 0.959 . S
H130 C131 0.961 . S
C131 C121 1.510 . S
C131 H129 0.959 . S
C131 H130 0.961 . S
C131 H132 0.960 . S
H132 C131 0.960 . S
H133 N113 0.862 . S
O134 Co102 1.920 . S
O134 C107 1.289 . S
C135 O127 1.258 . S
C135 O128 1.266 . S
Co136 O139 1.970 . S
Co136 N153 1.989 . S
Co136 O161 1.967 . S
Co136 O168 1.920 . S
Co137 O140 1.966 . S
Co137 N146 2.022 . S
Co137 N154 1.993 . S
Co137 O162 1.941 . S
C138 O139 1.258 . S
C138 O140 1.263 . S
O139 Co136 1.970 . S
O139 C138 1.258 . S
O140 Co137 1.966 . S
O140 C138 1.263 . S
C141 O142 1.235 . S
C141 O168 1.289 . S
O142 C141 1.235 . S
C143 C145 1.400 . S
C143 N146 1.351 . S
C143 C148 1.501 . S
C144 C145 1.387 . S
C144 N147 1.341 . S
C145 C143 1.400 . S
C145 C144 1.387 . S
N146 Co137 2.022 . S
N146 C143 1.351 . S
N146 N147 1.365 . S
N147 C144 1.341 . S
N147 N146 1.365 . S
N147 H167 0.862 . S
C148 C143 1.501 . S
C148 H149 0.961 . S
C148 H150 0.961 . S
C148 H151 0.960 . S
H149 C148 0.961 . S
H150 C148 0.961 . S
H151 C148 0.960 . S
C152 N153 1.342 . S
C152 C156 1.401 . S
C152 C157 1.499 . S
N153 Co136 1.989 . S
N153 C152 1.342 . S
N153 N154 1.388 . S
N154 Co137 1.993 . S
N154 N153 1.388 . S
N154 C155 1.346 . S
C155 N154 1.346 . S
C155 C156 1.396 . S
C155 C165 1.510 . S
C156 C152 1.401 . S
C156 C155 1.396 . S
C157 C152 1.499 . S
C157 H158 0.959 . S
C157 H159 0.960 . S
C157 H160 0.961 . S
H158 C157 0.959 . S
H159 C157 0.960 . S
H160 C157 0.961 . S
O161 Co136 1.967 . S
O161 C169 1.258 . S
O162 Co137 1.941 . S
O162 C169 1.266 . S
H163 C165 0.959 . S
H164 C165 0.961 . S
C165 C155 1.510 . S
C165 H163 0.959 . S
C165 H164 0.961 . S
C165 H166 0.960 . S
H166 C165 0.960 . S
H167 N147 0.862 . S
O168 Co136 1.920 . S
O168 C141 1.289 . S
C169 O161 1.258 . S
C169 O162 1.266 . S
Co170 O173 1.970 . S
Co170 N187 1.989 1_655 S
Co170 O195 1.967 1_655 S
Co170 O202 1.920 . S
Co171 O174 1.966 . S
Co171 N180 2.022 . S
Co171 N188 1.993 . S
Co171 O196 1.941 . S
C172 O173 1.258 . S
C172 O174 1.263 1_655 S
O173 Co170 1.970 . S
O173 C172 1.258 . S
O174 Co171 1.966 . S
O174 C172 1.263 1_455 S
C175 O176 1.235 . S
C175 O202 1.289 . S
O176 C175 1.235 . S
C177 C179 1.400 . S
C177 N180 1.351 . S
C177 C182 1.501 . S
C178 C179 1.387 . S
C178 N181 1.341 . S
C179 C177 1.400 . S
C179 C178 1.387 . S
N180 Co171 2.022 . S
N180 C177 1.351 . S
N180 N181 1.365 . S
N181 C178 1.341 . S
N181 N180 1.365 . S
N181 H201 0.862 . S
C182 C177 1.501 . S
C182 H183 0.961 . S
C182 H184 0.961 . S
C182 H185 0.960 . S
H183 C182 0.961 . S
H184 C182 0.961 . S
H185 C182 0.960 . S
C186 N187 1.342 . S
C186 C190 1.401 . S
C186 C191 1.499 . S
N187 Co170 1.989 1_455 S
N187 C186 1.342 . S
N187 N188 1.388 . S
N188 Co171 1.993 . S
N188 N187 1.388 . S
N188 C189 1.346 . S
C189 N188 1.346 . S
C189 C190 1.396 . S
C189 C199 1.510 . S
C190 C186 1.401 . S
C190 C189 1.396 . S
C191 C186 1.499 . S
C191 H192 0.959 . S
C191 H193 0.960 . S
C191 H194 0.961 . S
H192 C191 0.959 . S
H193 C191 0.960 . S
H194 C191 0.961 . S
O195 Co170 1.967 1_455 S
O195 C203 1.258 . S
O196 Co171 1.941 . S
O196 C203 1.266 . S
H197 C199 0.959 . S
H198 C199 0.961 . S
C199 C189 1.510 . S
C199 H197 0.959 . S
C199 H198 0.961 . S
C199 H200 0.960 . S
H200 C199 0.960 . S
H201 N181 0.862 . S
O202 Co170 1.920 . S
O202 C175 1.289 . S
C203 O195 1.258 . S
C203 O196 1.266 . S
Co204 O207 1.970 . S
Co204 N221 1.989 . S
Co204 O229 1.967 . S
Co204 O236 1.920 . S
Co205 O208 1.966 . S
Co205 N214 2.022 . S
Co205 N222 1.993 . S
Co205 O230 1.941 . S
C206 O207 1.258 . S
C206 O208 1.263 . S
O207 Co204 1.970 . S
O207 C206 1.258 . S
O208 Co205 1.966 . S
O208 C206 1.263 . S
C209 O210 1.235 . S
C209 O236 1.289 . S
O210 C209 1.235 . S
C211 C213 1.400 . S
C211 N214 1.351 . S
C211 C216 1.501 . S
C212 C213 1.387 . S
C212 N215 1.341 . S
C213 C211 1.400 . S
C213 C212 1.387 . S
N214 Co205 2.022 . S
N214 C211 1.351 . S
N214 N215 1.365 . S
N215 C212 1.341 . S
N215 N214 1.365 . S
N215 H235 0.862 . S
C216 C211 1.501 . S
C216 H217 0.961 . S
C216 H218 0.961 . S
C216 H219 0.960 . S
H217 C216 0.961 . S
H218 C216 0.961 . S
H219 C216 0.960 . S
C220 N221 1.342 . S
C220 C224 1.401 . S
C220 C225 1.499 . S
N221 Co204 1.989 . S
N221 C220 1.342 . S
N221 N222 1.388 . S
N222 Co205 1.993 . S
N222 N221 1.388 . S
N222 C223 1.346 . S
C223 N222 1.346 . S
C223 C224 1.396 . S
C223 C233 1.510 . S
C224 C220 1.401 . S
C224 C223 1.396 . S
C225 C220 1.499 . S
C225 H226 0.959 . S
C225 H227 0.960 . S
C225 H228 0.961 . S
H226 C225 0.959 . S
H227 C225 0.960 . S
H228 C225 0.961 . S
O229 Co204 1.967 . S
O229 C237 1.258 . S
O230 Co205 1.941 . S
O230 C237 1.266 . S
H231 C233 0.959 . S
H232 C233 0.961 . S
C233 C223 1.510 . S
C233 H231 0.959 . S
C233 H232 0.961 . S
C233 H234 0.960 . S
H234 C233 0.960 . S
H235 N215 0.862 . S
O236 Co204 1.920 . S
O236 C209 1.289 . S
C237 O229 1.258 . S
C237 O230 1.266 . S
Co238 O241 1.970 1_455 S
Co238 N255 1.989 . S
Co238 O263 1.967 . S
Co238 O270 1.920 1_455 S
Co239 O242 1.966 . S
Co239 N248 2.022 . S
Co239 N256 1.993 . S
Co239 O264 1.941 . S
C240 O241 1.258 . S
C240 O242 1.263 1_655 S
O241 Co238 1.970 1_655 S
O241 C240 1.258 . S
O242 Co239 1.966 . S
O242 C240 1.263 1_455 S
C243 O244 1.235 . S
C243 O270 1.289 . S
O244 C243 1.235 . S
C245 C247 1.400 . S
C245 N248 1.351 . S
C245 C250 1.501 . S
C246 C247 1.387 . S
C246 N249 1.341 . S
C247 C245 1.400 . S
C247 C246 1.387 . S
N248 Co239 2.022 . S
N248 C245 1.351 . S
N248 N249 1.365 . S
N249 C246 1.341 . S
N249 N248 1.365 . S
N249 H269 0.862 . S
C250 C245 1.501 . S
C250 H251 0.961 . S
C250 H252 0.961 . S
C250 H253 0.960 . S
H251 C250 0.961 . S
H252 C250 0.961 . S
H253 C250 0.960 . S
C254 N255 1.342 . S
C254 C258 1.401 . S
C254 C259 1.499 . S
N255 Co238 1.989 . S
N255 C254 1.342 . S
N255 N256 1.388 . S
N256 Co239 1.993 . S
N256 N255 1.388 . S
N256 C257 1.346 . S
C257 N256 1.346 . S
C257 C258 1.396 . S
C257 C267 1.510 . S
C258 C254 1.401 . S
C258 C257 1.396 . S
C259 C254 1.499 . S
C259 H260 0.959 . S
C259 H261 0.960 . S
C259 H262 0.961 . S
H260 C259 0.959 . S
H261 C259 0.960 . S
H262 C259 0.961 . S
O263 Co238 1.967 . S
O263 C271 1.258 . S
O264 Co239 1.941 . S
O264 C271 1.266 . S
H265 C267 0.959 . S
H266 C267 0.961 . S
C267 C257 1.510 . S
C267 H265 0.959 . S
C267 H266 0.961 . S
C267 H268 0.960 . S
H268 C267 0.960 . S
H269 N249 0.862 . S
O270 Co238 1.920 1_655 S
O270 C243 1.289 . S
C271 O263 1.258 . S
C271 O264 1.266 . S
C272 C273 1.349 . S
C272 C274 1.327 . S
C272 H297 0.950 . S
C273 C272 1.349 . S
C273 C289 1.349 . S
C274 C272 1.327 . S
C274 C293 1.429 . S
C274 H298 0.950 . S
C275 C292 1.574 . S
C275 C294 1.368 . S
C275 H299 0.949 . S
H276 C280 0.949 . S
C277 C278 1.349 . S
C277 C279 1.327 . S
C277 H300 0.950 . S
C278 C277 1.349 . S
C278 C290 1.349 . S
C279 C277 1.327 . S
C279 C295 1.429 . S
C279 H301 0.950 . S
C280 H276 0.949 . S
C280 C288 1.574 . S
C280 C296 1.368 . S
H281 C289 0.950 . S
H282 C287 0.950 . S
H283 C288 0.949 . S
H284 C290 0.950 . S
H285 C291 0.950 . S
H286 C292 0.949 . S
C287 H282 0.950 . S
C287 C289 1.327 . S
C287 C293 1.429 . S
C288 C280 1.574 . S
C288 H283 0.949 . S
C288 C294 1.368 . S
C289 C273 1.349 . S
C289 H281 0.950 . S
C289 C287 1.327 . S
C290 C278 1.349 . S
C290 H284 0.950 . S
C290 C291 1.327 . S
C291 H285 0.950 . S
C291 C290 1.327 . S
C291 C295 1.429 . S
C292 C275 1.574 . S
C292 H286 0.949 . S
C292 C296 1.368 . S
C293 C274 1.429 . S
C293 C287 1.429 . S
C293 C294 1.523 . S
C294 C275 1.368 . S
C294 C288 1.368 . S
C294 C293 1.523 . S
C295 C279 1.429 . S
C295 C291 1.429 . S
C295 C296 1.523 . S
C296 C280 1.368 . S
C296 C292 1.368 . S
C296 C295 1.523 . S
H297 C272 0.950 . S
H298 C274 0.950 . S
H299 C275 0.949 . S
H300 C277 0.950 . S
H301 C279 0.950 . S
C302 C303 1.349 . S
C302 C304 1.327 . S
C302 H327 0.950 . S
C303 C302 1.349 . S
C303 C319 1.349 . S
C304 C302 1.327 . S
C304 C323 1.429 . S
C304 H328 0.950 . S
C305 C322 1.574 . S
C305 C324 1.368 . S
C305 H329 0.949 . S
H306 C310 0.949 . S
C307 C308 1.349 . S
C307 C309 1.327 . S
C307 H330 0.950 . S
C308 C307 1.349 . S
C308 C320 1.349 . S
C309 C307 1.327 . S
C309 C325 1.429 . S
C309 H331 0.950 . S
C310 H306 0.949 . S
C310 C318 1.574 . S
C310 C326 1.368 . S
H311 C319 0.950 . S
H312 C317 0.950 . S
H313 C318 0.949 . S
H314 C320 0.950 . S
H315 C321 0.950 . S
H316 C322 0.949 . S
C317 H312 0.950 . S
C317 C319 1.327 . S
C317 C323 1.429 . S
C318 C310 1.574 . S
C318 H313 0.949 . S
C318 C324 1.368 . S
C319 C303 1.349 . S
C319 H311 0.950 . S
C319 C317 1.327 . S
C320 C308 1.349 . S
C320 H314 0.950 . S
C320 C321 1.327 . S
C321 H315 0.950 . S
C321 C320 1.327 . S
C321 C325 1.429 . S
C322 C305 1.574 . S
C322 H316 0.949 . S
C322 C326 1.368 . S
C323 C304 1.429 . S
C323 C317 1.429 . S
C323 C324 1.523 . S
C324 C305 1.368 . S
C324 C318 1.368 . S
C324 C323 1.523 . S
C325 C309 1.429 . S
C325 C321 1.429 . S
C325 C326 1.523 . S
C326 C310 1.368 . S
C326 C322 1.368 . S
C326 C325 1.523 . S
H327 C302 0.950 . S
H328 C304 0.950 . S
H329 C305 0.949 . S
H330 C307 0.950 . S
H331 C309 0.950 . S
C332 C333 1.349 . S
C332 C334 1.327 . S
C332 H357 0.950 . S
C333 C332 1.349 . S
C333 C349 1.349 . S
C334 C332 1.327 . S
C334 C353 1.429 . S
C334 H358 0.950 . S
C335 C352 1.574 . S
C335 C354 1.368 . S
C335 H359 0.949 . S
H336 C340 0.949 . S
C337 C338 1.349 . S
C337 C339 1.327 . S
C337 H360 0.950 . S
C338 C337 1.349 . S
C338 C350 1.349 . S
C339 C337 1.327 . S
C339 C355 1.429 . S
C339 H361 0.950 . S
C340 H336 0.949 . S
C340 C348 1.574 . S
C340 C356 1.368 . S
H341 C349 0.950 . S
H342 C347 0.950 . S
H343 C348 0.949 . S
H344 C350 0.950 . S
H345 C351 0.950 . S
H346 C352 0.949 . S
C347 H342 0.950 . S
C347 C349 1.327 . S
C347 C353 1.429 . S
C348 C340 1.574 . S
C348 H343 0.949 . S
C348 C354 1.368 . S
C349 C333 1.349 . S
C349 H341 0.950 . S
C349 C347 1.327 . S
C350 C338 1.349 . S
C350 H344 0.950 . S
C350 C351 1.327 . S
C351 H345 0.950 . S
C351 C350 1.327 . S
C351 C355 1.429 . S
C352 C335 1.574 . S
C352 H346 0.949 . S
C352 C356 1.368 . S
C353 C334 1.429 . S
C353 C347 1.429 . S
C353 C354 1.523 . S
C354 C335 1.368 . S
C354 C348 1.368 . S
C354 C353 1.523 . S
C355 C339 1.429 . S
C355 C351 1.429 . S
C355 C356 1.523 . S
C356 C340 1.368 . S
C356 C352 1.368 . S
C356 C355 1.523 . S
H357 C332 0.950 . S
H358 C334 0.950 . S
H359 C335 0.949 . S
H360 C337 0.950 . S
H361 C339 0.950 . S
C362 C363 1.349 . S
C362 C364 1.327 . S
C362 H387 0.950 . S
C363 C362 1.349 . S
C363 C379 1.349 . S
C364 C362 1.327 . S
C364 C383 1.429 . S
C364 H388 0.950 . S
C365 C382 1.574 . S
C365 C384 1.368 . S
C365 H389 0.949 . S
H366 C370 0.949 . S
C367 C368 1.349 . S
C367 C369 1.327 . S
C367 H390 0.950 . S
C368 C367 1.349 . S
C368 C380 1.349 . S
C369 C367 1.327 . S
C369 C385 1.429 . S
C369 H391 0.950 . S
C370 H366 0.949 . S
C370 C378 1.574 . S
C370 C386 1.368 . S
H371 C379 0.950 . S
H372 C377 0.950 . S
H373 C378 0.949 . S
H374 C380 0.950 . S
H375 C381 0.950 . S
H376 C382 0.949 . S
C377 H372 0.950 . S
C377 C379 1.327 . S
C377 C383 1.429 . S
C378 C370 1.574 . S
C378 H373 0.949 . S
C378 C384 1.368 . S
C379 C363 1.349 . S
C379 H371 0.950 . S
C379 C377 1.327 . S
C380 C368 1.349 . S
C380 H374 0.950 . S
C380 C381 1.327 . S
C381 H375 0.950 . S
C381 C380 1.327 . S
C381 C385 1.429 . S
C382 C365 1.574 . S
C382 H376 0.949 . S
C382 C386 1.368 . S
C383 C364 1.429 . S
C383 C377 1.429 . S
C383 C384 1.523 . S
C384 C365 1.368 . S
C384 C378 1.368 . S
C384 C383 1.523 . S
C385 C369 1.429 . S
C385 C381 1.429 . S
C385 C386 1.523 . S
C386 C370 1.368 . S
C386 C382 1.368 . S
C386 C385 1.523 . S
H387 C362 0.950 . S
H388 C364 0.950 . S
H389 C365 0.949 . S
H390 C367 0.950 . S
H391 C369 0.950 . S
C392 C393 1.349 . S
C392 C394 1.327 . S
C392 H417 0.950 . S
C393 C392 1.349 . S
C393 C409 1.349 . S
C394 C392 1.327 . S
C394 C413 1.429 . S
C394 H418 0.950 . S
C395 C412 1.574 . S
C395 C414 1.368 . S
C395 H419 0.949 . S
H396 C400 0.949 . S
C397 C398 1.349 . S
C397 C399 1.327 . S
C397 H420 0.950 . S
C398 C397 1.349 . S
C398 C410 1.349 . S
C399 C397 1.327 . S
C399 C415 1.429 . S
C399 H421 0.950 . S
C400 H396 0.949 . S
C400 C408 1.574 . S
C400 C416 1.368 . S
H401 C409 0.950 . S
H402 C407 0.950 . S
H403 C408 0.949 . S
H404 C410 0.950 . S
H405 C411 0.950 . S
H406 C412 0.949 . S
C407 H402 0.950 . S
C407 C409 1.327 . S
C407 C413 1.429 . S
C408 C400 1.574 . S
C408 H403 0.949 . S
C408 C414 1.368 . S
C409 C393 1.349 . S
C409 H401 0.950 . S
C409 C407 1.327 . S
C410 C398 1.349 . S
C410 H404 0.950 . S
C410 C411 1.327 . S
C411 H405 0.950 . S
C411 C410 1.327 . S
C411 C415 1.429 . S
C412 C395 1.574 . S
C412 H406 0.949 . S
C412 C416 1.368 . S
C413 C394 1.429 . S
C413 C407 1.429 . S
C413 C414 1.523 . S
C414 C395 1.368 . S
C414 C408 1.368 . S
C414 C413 1.523 . S
C415 C399 1.429 . S
C415 C411 1.429 . S
C415 C416 1.523 . S
C416 C400 1.368 . S
C416 C412 1.368 . S
C416 C415 1.523 . S
H417 C392 0.950 . S
H418 C394 0.950 . S
H419 C395 0.949 . S
H420 C397 0.950 . S
H421 C399 0.950 . S
C422 C423 1.349 . S
C422 C424 1.327 . S
C422 H447 0.950 . S
C423 C422 1.349 . S
C423 C439 1.349 . S
C424 C422 1.327 . S
C424 C443 1.429 . S
C424 H448 0.950 . S
C425 C442 1.574 . S
C425 C444 1.368 . S
C425 H449 0.949 . S
H426 C430 0.949 . S
C427 C428 1.349 . S
C427 C429 1.327 . S
C427 H450 0.950 . S
C428 C427 1.349 . S
C428 C440 1.349 . S
C429 C427 1.327 . S
C429 C445 1.429 . S
C429 H451 0.950 . S
C430 H426 0.949 . S
C430 C438 1.574 . S
C430 C446 1.368 . S
H431 C439 0.950 . S
H432 C437 0.950 . S
H433 C438 0.949 . S
H434 C440 0.950 . S
H435 C441 0.950 . S
H436 C442 0.949 . S
C437 H432 0.950 . S
C437 C439 1.327 . S
C437 C443 1.429 . S
C438 C430 1.574 . S
C438 H433 0.949 . S
C438 C444 1.368 . S
C439 C423 1.349 . S
C439 H431 0.950 . S
C439 C437 1.327 . S
C440 C428 1.349 . S
C440 H434 0.950 . S
C440 C441 1.327 . S
C441 H435 0.950 . S
C441 C440 1.327 . S
C441 C445 1.429 . S
C442 C425 1.574 . S
C442 H436 0.949 . S
C442 C446 1.368 . S
C443 C424 1.429 . S
C443 C437 1.429 . S
C443 C444 1.523 . S
C444 C425 1.368 . S
C444 C438 1.368 . S
C444 C443 1.523 . S
C445 C429 1.429 . S
C445 C441 1.429 . S
C445 C446 1.523 . S
C446 C430 1.368 . S
C446 C442 1.368 . S
C446 C445 1.523 . S
H447 C422 0.950 . S
H448 C424 0.950 . S
H449 C425 0.949 . S
H450 C427 0.950 . S
H451 C429 0.950 . S
C452 C453 1.349 . S
C452 C454 1.327 . S
C452 H477 0.950 . S
C453 C452 1.349 . S
C453 C469 1.349 . S
C454 C452 1.327 . S
C454 C473 1.429 . S
C454 H478 0.950 . S
C455 C472 1.574 . S
C455 C474 1.368 . S
C455 H479 0.949 . S
H456 C460 0.949 . S
C457 C458 1.349 . S
C457 C459 1.327 . S
C457 H480 0.950 . S
C458 C457 1.349 . S
C458 C470 1.349 . S
C459 C457 1.327 . S
C459 C475 1.429 . S
C459 H481 0.950 . S
C460 H456 0.949 . S
C460 C468 1.574 . S
C460 C476 1.368 . S
H461 C469 0.950 . S
H462 C467 0.950 . S
H463 C468 0.949 . S
H464 C470 0.950 . S
H465 C471 0.950 . S
H466 C472 0.949 . S
C467 H462 0.950 . S
C467 C469 1.327 . S
C467 C473 1.429 . S
C468 C460 1.574 . S
C468 H463 0.949 . S
C468 C474 1.368 . S
C469 C453 1.349 . S
C469 H461 0.950 . S
C469 C467 1.327 . S
C470 C458 1.349 . S
C470 H464 0.950 . S
C470 C471 1.327 . S
C471 H465 0.950 . S
C471 C470 1.327 . S
C471 C475 1.429 . S
C472 C455 1.574 . S
C472 H466 0.949 . S
C472 C476 1.368 . S
C473 C454 1.429 . S
C473 C467 1.429 . S
C473 C474 1.523 . S
C474 C455 1.368 . S
C474 C468 1.368 . S
C474 C473 1.523 . S
C475 C459 1.429 . S
C475 C471 1.429 . S
C475 C476 1.523 . S
C476 C460 1.368 . S
C476 C472 1.368 . S
C476 C475 1.523 . S
H477 C452 0.950 . S
H478 C454 0.950 . S
H479 C455 0.949 . S
H480 C457 0.950 . S
H481 C459 0.950 . S
C482 C483 1.349 . S
C482 C484 1.327 . S
C482 H507 0.950 . S
C483 C482 1.349 . S
C483 C499 1.349 . S
C484 C482 1.327 . S
C484 C503 1.429 . S
C484 H508 0.950 . S
C485 C502 1.574 . S
C485 C504 1.368 . S
C485 H509 0.949 . S
H486 C490 0.949 . S
C487 C488 1.349 . S
C487 C489 1.327 . S
C487 H510 0.950 . S
C488 C487 1.349 . S
C488 C500 1.349 . S
C489 C487 1.327 . S
C489 C505 1.429 . S
C489 H511 0.950 . S
C490 H486 0.949 . S
C490 C498 1.574 . S
C490 C506 1.368 . S
H491 C499 0.950 . S
H492 C497 0.950 . S
H493 C498 0.949 . S
H494 C500 0.950 . S
H495 C501 0.950 . S
H496 C502 0.949 . S
C497 H492 0.950 . S
C497 C499 1.327 . S
C497 C503 1.429 . S
C498 C490 1.574 . S
C498 H493 0.949 . S
C498 C504 1.368 . S
C499 C483 1.349 . S
C499 H491 0.950 . S
C499 C497 1.327 . S
C500 C488 1.349 . S
C500 H494 0.950 . S
C500 C501 1.327 . S
C501 H495 0.950 . S
C501 C500 1.327 . S
C501 C505 1.429 . S
C502 C485 1.574 . S
C502 H496 0.949 . S
C502 C506 1.368 . S
C503 C484 1.429 . S
C503 C497 1.429 . S
C503 C504 1.523 . S
C504 C485 1.368 . S
C504 C498 1.368 . S
C504 C503 1.523 . S
C505 C489 1.429 . S
C505 C501 1.429 . S
C505 C506 1.523 . S
C506 C490 1.368 . S
C506 C502 1.368 . S
C506 C505 1.523 . S
H507 C482 0.950 . S
H508 C484 0.950 . S
H509 C485 0.949 . S
H510 C487 0.950 . S
H511 C489 0.950 . S
C512 C513 1.349 1_655 S
C512 C514 1.327 . S
C512 H537 0.950 . S
C513 C512 1.349 1_455 S
C513 C529 1.349 . S
C514 C512 1.327 . S
C514 C533 1.429 1_655 S
C514 H538 0.950 . S
C515 C532 1.574 . S
C515 C534 1.368 . S
C515 H539 0.949 . S
H516 C520 0.949 . S
C517 C518 1.349 . S
C517 C519 1.327 . S
C517 H540 0.950 . S
C518 C517 1.349 . S
C518 C530 1.349 . S
C519 C517 1.327 . S
C519 C535 1.429 . S
C519 H541 0.950 . S
C520 H516 0.949 . S
C520 C528 1.574 . S
C520 C536 1.368 1_655 S
H521 C529 0.950 . S
H522 C527 0.950 . S
H523 C528 0.949 . S
H524 C530 0.950 1_655 S
H525 C531 0.950 1_655 S
H526 C532 0.949 . S
C527 H522 0.950 . S
C527 C529 1.327 . S
C527 C533 1.429 . S
C528 C520 1.574 . S
C528 H523 0.949 . S
C528 C534 1.368 1_655 S
C529 C513 1.349 . S
C529 H521 0.950 . S
C529 C527 1.327 . S
C530 C518 1.349 . S
C530 H524 0.950 1_455 S
C530 C531 1.327 . S
C531 H525 0.950 1_455 S
C531 C530 1.327 . S
C531 C535 1.429 . S
C532 C515 1.574 . S
C532 H526 0.949 . S
C532 C536 1.368 . S
C533 C514 1.429 1_455 S
C533 C527 1.429 . S
C533 C534 1.523 . S
C534 C515 1.368 . S
C534 C528 1.368 1_455 S
C534 C533 1.523 . S
C535 C519 1.429 . S
C535 C531 1.429 . S
C535 C536 1.523 . S
C536 C520 1.368 1_455 S
C536 C532 1.368 . S
C536 C535 1.523 . S
H537 C512 0.950 . S
H538 C514 0.950 . S
H539 C515 0.949 . S
H540 C517 0.950 . S
H541 C519 0.950 . S
C542 C543 1.349 . S
C542 C544 1.327 . S
C542 H567 0.950 . S
C543 C542 1.349 . S
C543 C559 1.349 . S
C544 C542 1.327 . S
C544 C563 1.429 . S
C544 H568 0.950 . S
C545 C562 1.574 . S
C545 C564 1.368 . S
C545 H569 0.949 . S
H546 C550 0.949 . S
C547 C548 1.349 . S
C547 C549 1.327 . S
C547 H570 0.950 . S
C548 C547 1.349 . S
C548 C560 1.349 . S
C549 C547 1.327 . S
C549 C565 1.429 . S
C549 H571 0.950 1_554 S
C550 H546 0.949 . S
C550 C558 1.584 . S
C550 C566 1.368 . S
H551 C559 0.950 . S
H552 C557 0.950 . S
H553 C558 0.956 . S
H554 C560 0.950 . S
H555 C561 0.950 . S
H556 C562 0.949 . S
C557 H552 0.950 . S
C557 C559 1.327 . S
C557 C563 1.429 . S
C558 C550 1.584 . S
C558 H553 0.956 . S
C558 C564 1.350 1_554 S
C559 C543 1.349 . S
C559 H551 0.950 . S
C559 C557 1.327 . S
C560 C548 1.349 . S
C560 H554 0.950 . S
C560 C561 1.327 . S
C561 H555 0.950 . S
C561 C560 1.327 . S
C561 C565 1.429 . S
C562 C545 1.574 . S
C562 H556 0.949 . S
C562 C566 1.368 1_556 S
C563 C544 1.429 . S
C563 C557 1.429 . S
C563 C564 1.523 . S
C564 C545 1.368 . S
C564 C558 1.350 1_556 S
C564 C563 1.523 . S
C565 C549 1.429 . S
C565 C561 1.429 . S
C565 C566 1.523 . S
C566 C550 1.368 . S
C566 C562 1.368 1_554 S
C566 C565 1.523 . S
H567 C542 0.950 . S
H568 C544 0.950 . S
H569 C545 0.949 . S
H570 C547 0.950 . S
H571 C549 0.950 1_556 S
C572 C573 1.349 . S
C572 C574 1.327 . S
C572 H597 0.950 . S
C573 C572 1.349 . S
C573 C589 1.349 . S
C574 C572 1.327 . S
C574 C593 1.429 . S
C574 H598 0.950 . S
C575 C592 1.544 1_545 S
C575 C594 1.368 . S
C575 H599 0.949 . S
H576 C580 0.949 . S
C577 C578 1.349 . S
C577 C579 1.327 . S
C577 H600 0.950 . S
C578 C577 1.349 . S
C578 C590 1.349 . S
C579 C577 1.327 . S
C579 C595 1.429 . S
C579 H601 0.950 . S
C580 H576 0.949 . S
C580 C588 1.574 1_565 S
C580 C596 1.368 . S
H581 C589 0.950 . S
H582 C587 0.950 . S
H583 C588 0.949 . S
H584 C590 0.950 . S
H585 C591 0.950 . S
H586 C592 0.951 . S
C587 H582 0.950 . S
C587 C589 1.327 . S
C587 C593 1.429 . S
C588 C580 1.574 1_545 S
C588 H583 0.949 . S
C588 C594 1.368 . S
C589 C573 1.349 . S
C589 H581 0.950 . S
C589 C587 1.327 . S
C590 C578 1.349 . S
C590 H584 0.950 . S
C590 C591 1.327 . S
C591 H585 0.950 . S
C591 C590 1.327 . S
C591 C595 1.429 . S
C592 C575 1.544 1_565 S
C592 H586 0.951 . S
C592 C596 1.397 . S
C593 C574 1.429 . S
C593 C587 1.429 . S
C593 C594 1.523 . S
C594 C575 1.368 . S
C594 C588 1.368 . S
C594 C593 1.523 . S
C595 C579 1.429 . S
C595 C591 1.429 . S
C595 C596 1.523 . S
C596 C580 1.368 . S
C596 C592 1.397 . S
C596 C595 1.523 . S
H597 C572 0.950 . S
H598 C574 0.950 . S
H599 C575 0.949 . S
H600 C577 0.950 . S
H601 C579 0.950 . S
C602 C603 1.349 1_655 S
C602 C604 1.327 . S
C602 H627 0.950 . S
C603 C602 1.349 1_455 S
C603 C619 1.349 . S
C604 C602 1.327 . S
C604 C623 1.429 1_655 S
C604 H628 0.984 . S
C605 C622 1.596 1_554 S
C605 C624 1.350 1_545 S
C605 H629 0.946 1_545 S
H606 C610 0.949 . S
C607 C608 1.349 . S
C607 C609 1.327 . S
C607 H630 0.950 . S
C608 C607 1.349 . S
C608 C620 1.349 . S
C609 C607 1.327 . S
C609 C625 1.429 . S
C609 H631 0.950 . S
C610 H606 0.949 . S
C610 C618 1.574 1_545 S
C610 C626 1.368 1_655 S
H611 C619 0.950 . S
H612 C617 0.950 . S
H613 C618 0.949 . S
H614 C620 0.950 1_655 S
H615 C621 0.950 1_655 S
H616 C622 0.948 1_554 S
C617 H612 0.950 . S
C617 C619 1.327 . S
C617 C623 1.429 . S
C618 C610 1.574 1_565 S
C618 H613 0.949 . S
C618 C624 1.368 1_656 S
C619 C603 1.349 . S
C619 H611 0.950 . S
C619 C617 1.327 . S
C620 C608 1.349 . S
C620 H614 0.950 1_455 S
C620 C621 1.327 . S
C621 H615 0.950 1_455 S
C621 C620 1.327 . S
C621 C625 1.429 . S
C622 C605 1.596 1_556 S
C622 H616 0.948 1_556 S
C622 C626 1.368 . S
C623 C604 1.429 1_455 S
C623 C617 1.429 . S
C623 C624 1.523 . S
C624 C605 1.350 1_565 S
C624 C618 1.368 1_454 S
C624 C623 1.523 . S
C625 C609 1.429 . S
C625 C621 1.429 . S
C625 C626 1.523 . S
C626 C610 1.368 1_455 S
C626 C622 1.368 . S
C626 C625 1.523 . S
H627 C602 0.950 . S
H628 C604 0.984 . S
H629 C605 0.946 1_565 S
H630 C607 0.950 . S
H631 C609 0.950 . S
C632 C633 1.349 . S
C632 C634 1.327 . S
C632 H657 0.950 . S
C633 C632 1.349 . S
C633 C649 1.349 . S
C634 C632 1.327 . S
C634 C653 1.429 . S
C634 H658 0.950 . S
C635 C652 1.574 . S
C635 C654 1.368 . S
C635 H659 0.949 . S
H636 C640 0.949 . S
C637 C638 1.349 . S
C637 C639 1.327 . S
C637 H660 0.950 . S
C638 C637 1.349 . S
C638 C650 1.349 . S
C639 C637 1.327 . S
C639 C655 1.429 . S
C639 H661 0.950 . S
C640 H636 0.949 . S
C640 C648 1.574 . S
C640 C656 1.368 . S
H641 C649 0.950 . S
H642 C647 0.950 . S
H643 C648 0.949 . S
H644 C650 0.950 . S
H645 C651 0.950 . S
H646 C652 0.949 . S
C647 H642 0.950 . S
C647 C649 1.327 . S
C647 C653 1.429 . S
C648 C640 1.574 . S
C648 H643 0.949 . S
C648 C654 1.368 . S
C649 C633 1.349 . S
C649 H641 0.950 . S
C649 C647 1.327 . S
C650 C638 1.349 . S
C650 H644 0.950 . S
C650 C651 1.327 . S
C651 H645 0.950 . S
C651 C650 1.327 . S
C651 C655 1.429 . S
C652 C635 1.574 . S
C652 H646 0.949 . S
C652 C656 1.368 . S
C653 C634 1.429 . S
C653 C647 1.429 . S
C653 C654 1.523 . S
C654 C635 1.368 . S
C654 C648 1.368 . S
C654 C653 1.523 . S
C655 C639 1.429 . S
C655 C651 1.429 . S
C655 C656 1.523 . S
C656 C640 1.368 . S
C656 C652 1.368 . S
C656 C655 1.523 . S
H657 C632 0.950 . S
H658 C634 0.950 . S
H659 C635 0.949 . S
H660 C637 0.950 . S
H661 C639 0.950 . S
C662 C663 1.349 . S
C662 C664 1.327 . S
C662 H687 0.950 . S
C663 C662 1.349 . S
C663 C679 1.349 . S
C664 C662 1.327 . S
C664 C683 1.429 . S
C664 H688 0.950 . S
C665 C682 1.574 1_556 S
C665 C684 1.368 . S
C665 H689 0.949 . S
H666 C670 0.949 . S
C667 C668 1.349 . S
C667 C669 1.327 . S
C667 H690 0.950 . S
C668 C667 1.349 . S
C668 C680 1.349 . S
C669 C667 1.327 . S
C669 C685 1.429 . S
C669 H691 0.950 . S
C670 H666 0.949 . S
C670 C678 1.574 . S
C670 C686 1.368 . S
H671 C679 0.950 . S
H672 C677 0.950 . S
H673 C678 0.949 . S
H674 C680 0.950 1_556 S
H675 C681 0.950 . S
H676 C682 0.949 . S
C677 H672 0.950 . S
C677 C679 1.327 . S
C677 C683 1.429 . S
C678 C670 1.574 . S
C678 H673 0.949 . S
C678 C684 1.368 . S
C679 C663 1.349 . S
C679 H671 0.950 . S
C679 C677 1.327 . S
C680 C668 1.349 . S
C680 H674 0.950 1_554 S
C680 C681 1.327 1_554 S
C681 H675 0.950 . S
C681 C680 1.327 1_556 S
C681 C685 1.429 1_556 S
C682 C665 1.574 1_554 S
C682 H676 0.949 . S
C682 C686 1.368 1_554 S
C683 C664 1.429 . S
C683 C677 1.429 . S
C683 C684 1.523 . S
C684 C665 1.368 . S
C684 C678 1.368 . S
C684 C683 1.523 . S
C685 C669 1.429 . S
C685 C681 1.429 1_554 S
C685 C686 1.523 1_554 S
C686 C670 1.368 . S
C686 C682 1.368 1_556 S
C686 C685 1.523 1_556 S
H687 C662 0.950 . S
H688 C664 0.950 . S
H689 C665 0.949 . S
H690 C667 0.950 . S
H691 C669 0.950 . S
C692 C693 1.349 . S
C692 C694 1.327 . S
C692 H717 0.950 . S
C693 C692 1.349 . S
C693 C709 1.349 . S
C694 C692 1.327 . S
C694 C713 1.429 . S
C694 H718 0.950 . S
C695 C712 1.574 . S
C695 C714 1.368 . S
C695 H719 0.949 . S
H696 C700 0.949 . S
C697 C698 1.349 . S
C697 C699 1.327 . S
C697 H720 0.950 . S
C698 C697 1.349 . S
C698 C710 1.349 . S
C699 C697 1.327 . S
C699 C715 1.429 . S
C699 H721 0.950 . S
C700 H696 0.949 . S
C700 C708 1.574 . S
C700 C716 1.368 . S
H701 C709 0.950 . S
H702 C707 0.950 . S
H703 C708 0.949 . S
H704 C710 0.950 . S
H705 C711 0.950 . S
H706 C712 0.949 . S
C707 H702 0.950 . S
C707 C709 1.327 . S
C707 C713 1.429 . S
C708 C700 1.574 . S
C708 H703 0.949 . S
C708 C714 1.368 . S
C709 C693 1.349 . S
C709 H701 0.950 . S
C709 C707 1.327 . S
C710 C698 1.349 . S
C710 H704 0.950 . S
C710 C711 1.327 . S
C711 H705 0.950 . S
C711 C710 1.327 . S
C711 C715 1.429 . S
C712 C695 1.574 . S
C712 H706 0.949 . S
C712 C716 1.368 . S
C713 C694 1.429 . S
C713 C707 1.429 . S
C713 C714 1.523 . S
C714 C695 1.368 . S
C714 C708 1.368 . S
C714 C713 1.523 . S
C715 C699 1.429 . S
C715 C711 1.429 . S
C715 C716 1.523 . S
C716 C700 1.368 . S
C716 C712 1.368 . S
C716 C715 1.523 . S
H717 C692 0.950 . S
H718 C694 0.950 . S
H719 C695 0.949 . S
H720 C697 0.950 . S
H721 C699 0.950 . S
C722 C723 1.349 . S
C722 C724 1.327 . S
C722 H747 0.950 . S
C723 C722 1.349 . S
C723 C739 1.349 . S
C724 C722 1.327 . S
C724 C743 1.429 . S
C724 H748 0.950 . S
C725 C742 1.574 . S
C725 C744 1.368 1_554 S
C725 H749 0.949 . S
H726 C730 0.949 . S
C727 C728 1.349 . S
C727 C729 1.327 . S
C727 H750 0.950 . S
C728 C727 1.349 . S
C728 C740 1.349 . S
C729 C727 1.327 . S
C729 C745 1.429 . S
C729 H751 0.950 . S
C730 H726 0.949 . S
C730 C738 1.574 . S
C730 C746 1.368 1_556 S
H731 C739 0.950 . S
H732 C737 0.950 1_554 S
H733 C738 0.949 . S
H734 C740 0.950 . S
H735 C741 0.950 . S
H736 C742 0.949 . S
C737 H732 0.950 1_556 S
C737 C739 1.327 . S
C737 C743 1.429 . S
C738 C730 1.574 . S
C738 H733 0.949 . S
C738 C744 1.368 . S
C739 C723 1.349 . S
C739 H731 0.950 . S
C739 C737 1.327 . S
C740 C728 1.349 . S
C740 H734 0.950 . S
C740 C741 1.327 . S
C741 H735 0.950 . S
C741 C740 1.327 . S
C741 C745 1.429 . S
C742 C725 1.574 . S
C742 H736 0.949 . S
C742 C746 1.368 . S
C743 C724 1.429 . S
C743 C737 1.429 . S
C743 C744 1.523 . S
C744 C725 1.368 1_556 S
C744 C738 1.368 . S
C744 C743 1.523 . S
C745 C729 1.429 . S
C745 C741 1.429 . S
C745 C746 1.523 . S
C746 C730 1.368 1_554 S
C746 C742 1.368 . S
C746 C745 1.523 . S
H747 C722 0.950 . S
H748 C724 0.950 . S
H749 C725 0.949 . S
H750 C727 0.950 . S
H751 C729 0.950 . S
C752 C753 1.349 . S
C752 C754 1.327 . S
C752 H777 0.950 . S
C753 C752 1.349 . S
C753 C769 1.349 . S
C754 C752 1.327 . S
C754 C773 1.429 . S
C754 H778 0.950 . S
C755 C772 1.574 . S
C755 C774 1.368 . S
C755 H779 0.949 . S
H756 C760 0.949 . S
C757 C758 1.349 . S
C757 C759 1.327 . S
C757 H780 0.950 . S
C758 C757 1.349 . S
C758 C770 1.349 . S
C759 C757 1.327 . S
C759 C775 1.429 . S
C759 H781 0.950 . S
C760 H756 0.949 . S
C760 C768 1.574 . S
C760 C776 1.368 . S
H761 C769 0.950 . S
H762 C767 0.950 . S
H763 C768 0.949 . S
H764 C770 0.950 . S
H765 C771 0.950 . S
H766 C772 0.949 . S
C767 H762 0.950 . S
C767 C769 1.327 . S
C767 C773 1.429 . S
C768 C760 1.574 . S
C768 H763 0.949 . S
C768 C774 1.368 . S
C769 C753 1.349 . S
C769 H761 0.950 . S
C769 C767 1.327 . S
C770 C758 1.349 . S
C770 H764 0.950 . S
C770 C771 1.327 . S
C771 H765 0.950 . S
C771 C770 1.327 . S
C771 C775 1.429 . S
C772 C755 1.574 . S
C772 H766 0.949 . S
C772 C776 1.368 . S
C773 C754 1.429 . S
C773 C767 1.429 . S
C773 C774 1.523 . S
C774 C755 1.368 . S
C774 C768 1.368 . S
C774 C773 1.523 . S
C775 C759 1.429 . S
C775 C771 1.429 . S
C775 C776 1.523 . S
C776 C760 1.368 . S
C776 C772 1.368 . S
C776 C775 1.523 . S
H777 C752 0.950 . S
H778 C754 0.950 . S
H779 C755 0.949 . S
H780 C757 0.950 . S
H781 C759 0.950 . S
C782 C783 1.349 . S
C782 C784 1.327 . S
C782 H807 0.950 . S
C783 C782 1.349 . S
C783 C799 1.349 . S
C784 C782 1.327 . S
C784 C803 1.429 . S
C784 H808 0.950 . S
C785 C802 1.574 . S
C785 C804 1.368 . S
C785 H809 0.949 . S
H786 C790 0.949 . S
C787 C788 1.349 . S
C787 C789 1.327 . S
C787 H810 0.950 . S
C788 C787 1.349 . S
C788 C800 1.349 . S
C789 C787 1.327 . S
C789 C805 1.429 . S
C789 H811 0.950 . S
C790 H786 0.949 . S
C790 C798 1.574 . S
C790 C806 1.368 . S
H791 C799 0.950 . S
H792 C797 0.950 . S
H793 C798 0.949 . S
H794 C800 0.950 . S
H795 C801 0.950 . S
H796 C802 0.949 . S
C797 H792 0.950 . S
C797 C799 1.327 . S
C797 C803 1.429 . S
C798 C790 1.574 . S
C798 H793 0.949 . S
C798 C804 1.368 . S
C799 C783 1.349 . S
C799 H791 0.950 . S
C799 C797 1.327 . S
C800 C788 1.349 . S
C800 H794 0.950 . S
C800 C801 1.327 . S
C801 H795 0.950 . S
C801 C800 1.327 . S
C801 C805 1.429 . S
C802 C785 1.574 . S
C802 H796 0.949 . S
C802 C806 1.368 . S
C803 C784 1.429 . S
C803 C797 1.429 . S
C803 C804 1.523 1_554 S
C804 C785 1.368 . S
C804 C798 1.368 . S
C804 C803 1.523 1_556 S
C805 C789 1.429 . S
C805 C801 1.429 . S
C805 C806 1.523 . S
C806 C790 1.368 . S
C806 C802 1.368 . S
C806 C805 1.523 . S
H807 C782 0.950 . S
H808 C784 0.950 . S
H809 C785 0.949 . S
H810 C787 0.950 . S
H811 C789 0.950 . S
C812 C813 1.349 . S
C812 C814 1.327 . S
C812 H837 0.950 . S
C813 C812 1.349 . S
C813 C829 1.349 . S
C814 C812 1.327 . S
C814 C833 1.429 . S
C814 H838 0.950 . S
C815 C832 1.574 . S
C815 C834 1.368 . S
C815 H839 0.949 . S
H816 C820 0.949 . S
C817 C818 1.349 . S
C817 C819 1.327 . S
C817 H840 0.950 . S
C818 C817 1.349 . S
C818 C830 1.349 . S
C819 C817 1.327 . S
C819 C835 1.429 . S
C819 H841 0.950 . S
C820 H816 0.949 . S
C820 C828 1.574 . S
C820 C836 1.368 . S
H821 C829 0.950 . S
H822 C827 0.950 . S
H823 C828 0.949 . S
H824 C830 0.950 . S
H825 C831 0.950 . S
H826 C832 0.949 . S
C827 H822 0.950 . S
C827 C829 1.327 . S
C827 C833 1.429 . S
C828 C820 1.574 . S
C828 H823 0.949 . S
C828 C834 1.368 . S
C829 C813 1.349 . S
C829 H821 0.950 . S
C829 C827 1.327 . S
C830 C818 1.349 . S
C830 H824 0.950 . S
C830 C831 1.327 . S
C831 H825 0.950 . S
C831 C830 1.327 . S
C831 C835 1.429 . S
C832 C815 1.574 . S
C832 H826 0.949 . S
C832 C836 1.368 . S
C833 C814 1.429 . S
C833 C827 1.429 . S
C833 C834 1.523 . S
C834 C815 1.368 . S
C834 C828 1.368 . S
C834 C833 1.523 . S
C835 C819 1.429 . S
C835 C831 1.429 . S
C835 C836 1.523 . S
C836 C820 1.368 . S
C836 C832 1.368 . S
C836 C835 1.523 . S
H837 C812 0.950 . S
H838 C814 0.950 . S
H839 C815 0.949 . S
H840 C817 0.950 . S
H841 C819 0.950 . S
C842 C843 1.349 . S
C842 C844 1.327 . S
C842 H867 0.950 . S
C843 C842 1.349 . S
C843 C859 1.349 . S
C844 C842 1.327 . S
C844 C863 1.429 . S
C844 H868 0.950 . S
C845 C862 1.574 . S
C845 C864 1.368 1_554 S
C845 H869 0.949 . S
H846 C850 0.945 1_556 S
C847 C848 1.349 . S
C847 C849 1.327 . S
C847 H870 0.950 . S
C848 C847 1.349 . S
C848 C860 1.349 . S
C849 C847 1.327 . S
C849 C865 1.429 . S
C849 H871 0.950 . S
C850 H846 0.945 1_554 S
C850 C858 1.555 1_554 S
C850 C866 1.394 . S
H851 C859 0.950 . S
H852 C857 0.950 . S
H853 C858 0.949 . S
H854 C860 0.950 . S
H855 C861 0.950 . S
H856 C862 0.949 . S
C857 H852 0.950 . S
C857 C859 1.327 . S
C857 C863 1.429 . S
C858 C850 1.555 1_556 S
C858 H853 0.949 . S
C858 C864 1.368 . S
C859 C843 1.349 . S
C859 H851 0.950 . S
C859 C857 1.327 . S
C860 C848 1.349 . S
C860 H854 0.950 . S
C860 C861 1.327 . S
C861 H855 0.950 . S
C861 C860 1.327 . S
C861 C865 1.429 . S
C862 C845 1.574 . S
C862 H856 0.949 . S
C862 C866 1.368 . S
C863 C844 1.429 . S
C863 C857 1.429 . S
C863 C864 1.523 . S
C864 C845 1.368 1_556 S
C864 C858 1.368 . S
C864 C863 1.523 . S
C865 C849 1.429 . S
C865 C861 1.429 . S
C865 C866 1.523 . S
C866 C850 1.394 . S
C866 C862 1.368 . S
C866 C865 1.523 . S
H867 C842 0.950 . S
H868 C844 0.950 . S
H869 C845 0.949 . S
H870 C847 0.950 . S
H871 C849 0.950 . S
C273 C5 1.718 . S
C278 C107 1.698 . S
C303 C39 1.499 . S
C308 C88 1.549 . S
C333 C77 1.500 . S
C338 C54 1.522 . S
C363 C122 1.289 . S
C368 C20 1.288 . S
C393 C141 1.718 . S
C398 C243 1.698 . S
C423 C224 1.549 . S
C428 C175 1.499 . S
C453 C190 1.522 . S
C458 C213 1.500 . S
C483 C258 1.289 . S
C488 C156 1.288 . S
C513 C101 1.680 . S
C518 C33 1.664 . S
C543 C67 1.445 . S
C548 C135 1.432 . S
C573 C237 1.680 . S
C578 C169 1.664 . S
C603 C271 1.432 . S
C608 C203 1.445 . S
C633 C2 1.983 . S
C638 C206 1.983 . S
C663 C36 1.135 . S
C668 C247 1.103 . S
C693 C73 1.329 . S
C698 C145 1.333 . S
C723 C179 1.580 . S
C728 C104 1.616 . S
C753 C70 1.983 . S
C758 C138 1.983 . S
C783 C111 1.103 . S
C788 C172 1.135 . S
C813 C9 1.333 . S
C818 C209 1.329 . S
C843 C43 1.581 . S
C848 C240 1.616 . S
