# Generated by pormake.
# Topology ofo, (3)-cn, num edge types: 1
# Building blocks:
#     Node 0, Type 0, BuildingBlock: OLANEW_clean_sbu_2, # of connection points: 3
#     Node 1, Type 0, BuildingBlock: OLANEW_clean_sbu_2, # of connection points: 3
#     Node 2, Type 0, BuildingBlock: OLANEW_clean_sbu_2, # of connection points: 3
#     Node 3, Type 0, BuildingBlock: OLANEW_clean_sbu_2, # of connection points: 3
#     Node 4, Type 0, BuildingBlock: OLANEW_clean_sbu_2, # of connection points: 3
#     Node 5, Type 0, BuildingBlock: OLANEW_clean_sbu_2, # of connection points: 3
#     Node 6, Type 0, BuildingBlock: OLANEW_clean_sbu_2, # of connection points: 3
#     Node 7, Type 0, BuildingBlock: OLANEW_clean_sbu_2, # of connection points: 3
#     Node 8, Type 0, BuildingBlock: OLANEW_clean_sbu_2, # of connection points: 3
#     Node 9, Type 0, BuildingBlock: OLANEW_clean_sbu_2, # of connection points: 3
#     Node 10, Type 0, BuildingBlock: OLANEW_clean_sbu_2, # of connection points: 3
#     Node 11, Type 0, BuildingBlock: OLANEW_clean_sbu_2, # of connection points: 3
#     Edge 12, Type (0, 0), BuildingBlock: CIFDUS_clean_linker_0, # of connection points: 2
#     Edge 13, Type (0, 0), BuildingBlock: CIFDUS_clean_linker_0, # of connection points: 2
#     Edge 14, Type (0, 0), BuildingBlock: CIFDUS_clean_linker_0, # of connection points: 2
#     Edge 15, Type (0, 0), BuildingBlock: CIFDUS_clean_linker_0, # of connection points: 2
#     Edge 16, Type (0, 0), BuildingBlock: CIFDUS_clean_linker_0, # of connection points: 2
#     Edge 17, Type (0, 0), BuildingBlock: CIFDUS_clean_linker_0, # of connection points: 2
#     Edge 18, Type (0, 0), BuildingBlock: CIFDUS_clean_linker_0, # of connection points: 2
#     Edge 19, Type (0, 0), BuildingBlock: CIFDUS_clean_linker_0, # of connection points: 2
#     Edge 20, Type (0, 0), BuildingBlock: CIFDUS_clean_linker_0, # of connection points: 2
#     Edge 21, Type (0, 0), BuildingBlock: CIFDUS_clean_linker_0, # of connection points: 2
#     Edge 22, Type (0, 0), BuildingBlock: CIFDUS_clean_linker_0, # of connection points: 2
#     Edge 23, Type (0, 0), BuildingBlock: CIFDUS_clean_linker_0, # of connection points: 2
#     Edge 24, Type (0, 0), BuildingBlock: CIFDUS_clean_linker_0, # of connection points: 2
#     Edge 25, Type (0, 0), BuildingBlock: CIFDUS_clean_linker_0, # of connection points: 2
#     Edge 26, Type (0, 0), BuildingBlock: CIFDUS_clean_linker_0, # of connection points: 2
#     Edge 27, Type (0, 0), BuildingBlock: CIFDUS_clean_linker_0, # of connection points: 2
#     Edge 28, Type (0, 0), BuildingBlock: CIFDUS_clean_linker_0, # of connection points: 2
#     Edge 29, Type (0, 0), BuildingBlock: CIFDUS_clean_linker_0, # of connection points: 2
# Relax obj value: 0.000
# Max RMSD: 0.039
# Mean RMSD: 0.039
data_MOF--net-ofo--node1-OLANEW_clean_sbu_2--edge1-CIFDUS_clean_linker_0
_symmetry_space_group_name_H-M    P1
_symmetry_Int_Tables_number       1
_symmetry_cell_setting            triclinic
loop_
_symmetry_equiv_pos_as_xyz
'x, y, z'
_cell_length_a     20.119849
_cell_length_b     20.125854
_cell_length_c     70.402794
_cell_angle_alpha  89.999153
_cell_angle_beta   90.002615
_cell_angle_gamma 120.07036
loop_
_atom_site_label
_atom_site_type_symbol
_atom_site_fract_x
_atom_site_fract_y
_atom_site_fract_z
_atom_type_partial_charge
O0 O 0.43582 0.18891 0.01489 0.0
Cd1 Cd 0.45669 0.31939 0.01311 0.0
O2 O 0.47469 0.21115 0.04438 0.0
Cd3 Cd 0.50257 0.19289 0.07328 0.0
O4 O 0.53586 0.20252 0.10313 0.0
C5 C 0.59154 0.26582 0.10896 0.0
O6 O 0.628 0.32204 0.09674 0.0
C7 C 0.45105 0.16577 0.0302 0.0
C8 C 0.32825 0.32582 0.00073 0.0
O9 O 0.37654 0.32579 0.98886 0.0
O10 O 0.34031 0.322 0.01847 0.0
O11 O 0.35454 0.53763 0.70949 0.0
Cd12 Cd 0.24073 0.53893 0.72143 0.0
O13 O 0.34014 0.44385 0.72822 0.0
Cd14 Cd 0.25858 0.45591 0.7462 0.0
O15 O 0.23413 0.50344 0.77135 0.0
C16 C 0.18404 0.46175 0.78359 0.0
O17 O 0.14198 0.38752 0.78056 0.0
C18 C 0.37514 0.49006 0.71466 0.0
C19 C 0.10577 0.4202 0.70563 0.0
O20 O 0.14454 0.48471 0.69707 0.0
O21 O 0.13055 0.41188 0.72171 0.0
O22 O 0.80725 0.25346 0.35611 0.0
Cd23 Cd 0.67563 0.14534 0.35445 0.0
O24 O 0.78196 0.28028 0.38436 0.0
Cd25 Cd 0.80143 0.33621 0.41211 0.0
O26 O 0.79276 0.36457 0.44164 0.0
C27 C 0.72859 0.35418 0.44761 0.0
O28 O 0.67073 0.32905 0.43567 0.0
C29 C 0.82928 0.29606 0.37077 0.0
C30 C 0.66828 0.00889 0.34312 0.0
O31 O 0.66707 0.05542 0.33087 0.0
O32 O 0.67336 0.02714 0.36072 0.0
O33 O 0.47971 0.7604 0.02225 0.0
Cd34 Cd 0.48252 0.64089 0.01898 0.0
O35 O 0.47401 0.74465 0.05311 0.0
Cd36 Cd 0.45706 0.76957 0.08237 0.0
O37 O 0.41851 0.75456 0.1119 0.0
C38 C 0.3534 0.69667 0.11572 0.0
O39 O 0.31251 0.65079 0.10181 0.0
C40 C 0.4761 0.78392 0.03875 0.0
C41 C 0.63111 0.66552 0.01458 0.0
O42 O 0.59013 0.66049 0.00012 0.0
O43 O 0.60191 0.65931 0.03112 0.0
O44 O 0.77535 0.4995 0.66954 0.0
Cd45 Cd 0.89973 0.51387 0.66084 0.0
O46 O 0.77609 0.43525 0.69459 0.0
Cd47 Cd 0.73479 0.38148 0.72243 0.0
O48 O 0.70615 0.34523 0.75201 0.0
C49 C 0.72889 0.30309 0.75977 0.0
O50 O 0.76842 0.2801 0.74961 0.0
C51 C 0.74267 0.46247 0.68457 0.0
C52 C 0.02284 0.66419 0.6637 0.0
O53 O 0.98676 0.63847 0.64798 0.0
O54 O 1.00003 0.61919 0.67811 0.0
O55 O 0.24934 0.71353 0.35838 0.0
Cd56 Cd 0.37283 0.83068 0.35344 0.0
O57 O 0.25597 0.74174 0.38863 0.0
Cd58 Cd 0.22073 0.71774 0.41838 0.0
O59 O 0.22416 0.71019 0.44929 0.0
C60 C 0.26367 0.68303 0.4564 0.0
O61 O 0.29805 0.65827 0.4449 0.0
C62 C 0.22015 0.69689 0.37491 0.0
C63 C 0.35612 0.9552 0.34284 0.0
O64 O 0.35895 0.91038 0.33034 0.0
O65 O 0.36097 0.94093 0.36037 0.0
O66 O 0.74659 0.467 0.31227 0.0
Cd67 Cd 0.62295 0.46099 0.31642 0.0
O68 O 0.74043 0.48443 0.28174 0.0
Cd69 Cd 0.77617 0.49053 0.25218 0.0
O70 O 0.77293 0.47185 0.22156 0.0
C71 C 0.72629 0.40493 0.2154 0.0
O72 O 0.68475 0.35056 0.22768 0.0
C73 C 0.77591 0.47713 0.29579 0.0
C74 C 0.63829 0.60114 0.32755 0.0
O75 O 0.63435 0.55239 0.33988 0.0
O76 O 0.63539 0.58372 0.30994 0.0
O77 O 0.28212 0.83329 0.97393 0.0
Cd78 Cd 0.17245 0.70724 0.98158 0.0
O79 O 0.27204 0.79296 0.9447 0.0
Cd80 Cd 0.29501 0.79355 0.91431 0.0
O81 O 0.29174 0.75805 0.88484 0.0
C82 C 0.2382 0.69157 0.88011 0.0
O83 O 0.18763 0.64839 0.89299 0.0
C84 C 0.30731 0.84553 0.95698 0.0
C85 C 0.03336 0.70491 0.98553 0.0
O86 O 0.07709 0.71666 -0.00011 0.0
O87 O 0.05606 0.69547 0.96926 0.0
O88 O 0.5425 0.3293 0.65103 0.0
Cd89 Cd 0.54431 0.20958 0.65557 0.0
O90 O 0.52022 0.3016 0.62075 0.0
Cd91 Cd 0.51176 0.32931 0.59116 0.0
O92 O 0.52842 0.34065 0.5604 0.0
C93 C 0.59515 0.36128 0.55404 0.0
O94 O 0.65075 0.37708 0.56619 0.0
C95 C 0.5316 0.34707 0.63447 0.0
C96 C 0.40066 0.07599 0.65337 0.0
O97 O 0.42823 0.10855 0.66938 0.0
O98 O 0.44035 0.10739 0.63839 0.0
O99 O 0.18286 0.43802 0.3164 0.0
Cd100 Cd 0.31409 0.46074 0.31828 0.0
O101 O 0.21081 0.49146 0.28832 0.0
Cd102 Cd 0.19644 0.53099 0.26046 0.0
O103 O 0.21728 0.57243 0.23115 0.0
C104 C 0.27769 0.63568 0.22741 0.0
O105 O 0.32378 0.67537 0.24141 0.0
C106 C 0.16234 0.45978 0.30169 0.0
C107 C 0.32115 0.33089 0.32901 0.0
O108 O 0.32182 0.37767 0.34147 0.0
O109 O 0.31653 0.34526 0.31147 0.0
O110 O 0.72247 0.29034 0.96985 0.0
Cd111 Cd 0.84979 0.40542 0.9688 0.0
O112 O 0.72698 0.27641 0.93913 0.0
Cd113 Cd 0.68516 0.23096 0.91066 0.0
O114 O 0.67675 0.22716 0.87967 0.0
C115 C 0.64814 0.26337 0.87146 0.0
O116 O 0.62125 0.29868 0.88194 0.0
C117 C 0.69081 0.25322 0.95476 0.0
C118 C 0.96653 0.37978 0.98148 0.0
O119 O 0.92928 0.39803 0.99311 0.0
O120 O 0.94813 0.37307 0.96386 0.0
O121 O 0.60625 0.80626 0.65246 0.0
Cd122 Cd 0.59152 0.9188 0.65719 0.0
O123 O 0.54097 0.77895 0.62591 0.0
Cd124 Cd 0.49197 0.71866 0.59914 0.0
O125 O 0.45036 0.68462 0.57009 0.0
C126 C 0.40071 0.70007 0.56358 0.0
O127 O 0.37426 0.73391 0.57473 0.0
C128 C 0.57694 0.76246 0.63816 0.0
C129 C 0.72058 0.04198 0.6738 0.0
O130 O 0.66825 0.98873 0.68401 0.0
O131 O 0.71207 0.03689 0.65572 0.0
H132 H 0.7021 0.39598 0.12595 0.0
H133 H 0.52697 0.16222 0.13792 0.0
H134 H 0.55582 0.18387 0.17178 0.0
H135 H 0.62669 0.2705 0.19809 0.0
H136 H 0.80051 0.50483 0.1862 0.0
H137 H 0.77637 0.48131 0.15219 0.0
C138 C 0.67047 0.34957 0.13594 0.0
C139 C 0.61215 0.2777 0.12938 0.0
C140 C 0.68694 0.36253 0.15542 0.0
C141 C 0.57195 0.21821 0.14255 0.0
C142 C 0.58836 0.23053 0.16194 0.0
C143 C 0.65967 0.3164 0.18808 0.0
C144 C 0.71506 0.38944 0.19473 0.0
C145 C 0.64511 0.30269 0.16855 0.0
C146 C 0.75735 0.44811 0.18151 0.0
C147 C 0.74353 0.43475 0.16204 0.0
H148 H 0.2747 0.60865 0.79577 0.0
H149 H 0.08212 0.39045 0.81257 0.0
H150 H 0.08007 0.44339 0.84363 0.0
H151 H 0.13677 0.54963 0.86652 0.0
H152 H 0.33128 0.76683 0.84992 0.0
H153 H 0.32854 0.71608 0.81825 0.0
C154 C 0.23181 0.57272 0.80615 0.0
C155 C 0.17882 0.49553 0.80184 0.0
C156 C 0.23157 0.6032 0.82407 0.0
C157 C 0.12374 0.44995 0.8155 0.0
C158 C 0.1226 0.48015 0.8333 0.0
C159 C 0.17838 0.58609 0.85596 0.0
C160 C 0.23439 0.66186 0.86065 0.0
C161 C 0.17689 0.55637 0.83782 0.0
C162 C 0.28773 0.70821 0.84675 0.0
C163 C 0.28622 0.67925 0.82862 0.0
H164 H 0.59793 0.3321 0.4648 0.0
H165 H 0.83492 0.4016 0.47614 0.0
H166 H 0.81516 0.41308 0.50992 0.0
H167 H 0.72947 0.39814 0.53638 0.0
H168 H 0.49207 0.32714 0.52513 0.0
H169 H 0.51341 0.32192 0.49115 0.0
C170 C 0.64544 0.35018 0.47463 0.0
C171 C 0.71771 0.36556 0.46792 0.0
C172 C 0.6336 0.35621 0.49406 0.0
C173 C 0.77862 0.38914 0.48089 0.0
C174 C 0.76737 0.39567 0.50023 0.0
C175 C 0.68241 0.38192 0.52651 0.0
C176 C 0.60917 0.36269 0.53334 0.0
C177 C 0.69491 0.37852 0.507 0.0
C178 C 0.54899 0.34204 0.5203 0.0
C179 C 0.5611 0.33893 0.50085 0.0
H180 H 0.19956 0.56336 0.19527 0.0
H181 H 0.40425 0.76598 0.21476 0.0
H182 H 0.44427 0.80439 0.18196 0.0
H183 H 0.4242 0.77755 0.14774 0.0
H184 H 0.21997 0.57419 0.12836 0.0
H185 H 0.17687 0.53935 0.16109 0.0
C186 C 0.25269 0.6162 0.19237 0.0
C187 C 0.29896 0.66142 0.20749 0.0
C188 C 0.27573 0.63776 0.17346 0.0
C189 C 0.36755 0.72983 0.20342 0.0
C190 C 0.39062 0.75187 0.18465 0.0
C191 C 0.37006 0.72582 0.15066 0.0
C192 C 0.32569 0.67842 0.13558 0.0
C193 C 0.34564 0.70579 0.16956 0.0
C194 C 0.25551 0.61171 0.13965 0.0
C195 C 0.23074 0.59162 0.15839 0.0
H196 H 0.65206 0.34388 0.7847 0.0
H197 H 0.77391 0.21855 0.78089 0.0
H198 H 0.75642 0.19199 0.81491 0.0
H199 H 0.71136 0.20891 0.84599 0.0
H200 H 0.59111 0.33584 0.84979 0.0
H201 H 0.60284 0.35667 0.81553 0.0
C202 C 0.67449 0.31041 0.79127 0.0
C203 C 0.71458 0.28361 0.78023 0.0
C204 C 0.66465 0.29568 0.81087 0.0
C205 C 0.74301 0.24012 0.78902 0.0
C206 C 0.73309 0.22491 0.8085 0.0
C207 C 0.6872 0.24066 0.83932 0.0
C208 C 0.65069 0.27101 0.8505 0.0
C209 C 0.6947 0.25307 0.8196 0.0
C210 C 0.61972 0.31199 0.84158 0.0
C211 C 0.62648 0.32407 0.82196 0.0
H212 H 0.30123 0.73215 0.54514 0.0
H213 H 0.44693 0.63412 0.53658 0.0
H214 H 0.41422 0.61676 0.50287 0.0
H215 H 0.34933 0.63505 0.47557 0.0
H216 H 0.20506 0.73476 0.48401 0.0
H217 H 0.23191 0.74534 0.51804 0.0
C218 C 0.32552 0.70655 0.53594 0.0
C219 C 0.37685 0.68493 0.54339 0.0
C220 C 0.30693 0.69722 0.51652 0.0
C221 C 0.40751 0.65159 0.53124 0.0
C222 C 0.3889 0.64168 0.51194 0.0
C223 C 0.32331 0.65867 0.48485 0.0
C224 C 0.2756 0.68448 0.4772 0.0
C225 C 0.33945 0.66517 0.50439 0.0
C226 C 0.24222 0.71467 0.48948 0.0
C227 C 0.25762 0.72086 0.50896 0.0
H228 H 0.52379 0.11328 0.0536 0.0
H229 H 0.35923 0.04348 0.00793 0.0
H230 H 0.3522 0.91904 0.00654 0.0
H231 H 0.39661 0.83182 0.01741 0.0
H232 H 0.55182 0.89665 0.06494 0.0
H233 H 0.55681 0.02059 0.06696 0.0
C234 C 0.48433 0.07023 0.0438 0.0
C235 C 0.44187 0.08797 0.03096 0.0
C236 C 0.47911 0.99792 0.04336 0.0
C237 C 0.39337 0.03187 0.01783 0.0
C238 C 0.38907 0.96053 0.01704 0.0
C239 C 0.43095 0.87299 0.0283 0.0
C240 C 0.47388 0.85559 0.04099 0.0
C241 C 0.43244 0.94332 0.02956 0.0
C242 C 0.51776 0.90878 0.05514 0.0
C243 C 0.52096 0.97972 0.05621 0.0
H244 H 0.41786 0.38154 0.71672 0.0
H245 H 0.48692 0.60543 0.69348 0.0
H246 H 0.60688 0.61684 0.68238 0.0
H247 H 0.69446 0.56497 0.68004 0.0
H248 H 0.62339 0.33923 0.70197 0.0
H249 H 0.50208 0.32659 0.71275 0.0
C250 C 0.45876 0.43242 0.70901 0.0
C251 C 0.44351 0.49265 0.70603 0.0
C252 C 0.52742 0.4383 0.70242 0.0
C253 C 0.49692 0.55799 0.6959 0.0
C254 C 0.56568 0.56462 0.68952 0.0
C255 C 0.65195 0.51279 0.687 0.0
C256 C 0.66837 0.45383 0.69056 0.0
C257 C 0.58182 0.50544 0.69282 0.0
C258 C 0.61313 0.38651 0.69965 0.0
C259 C 0.54337 0.37887 0.7056 0.0
H260 H 0.17238 0.55843 0.35885 0.0
H261 H 0.10173 0.67751 0.39747 0.0
H262 H 0.9746 0.56268 0.40035 0.0
H263 H 0.88114 0.43148 0.38992 0.0
H264 H 0.95511 0.31021 0.3529 0.0
H265 H 0.08356 0.42301 0.35135 0.0
C266 C 0.12923 0.55882 0.36802 0.0
C267 C 0.14603 0.62597 0.37794 0.0
C268 C 0.05687 0.49248 0.36977 0.0
C269 C 0.09014 0.62599 0.38988 0.0
C270 C 0.01738 0.56058 0.39142 0.0
C271 C 0.92577 0.4288 0.38197 0.0
C272 C 0.90849 0.36233 0.37159 0.0
C273 C 0.9998 0.49373 0.38125 0.0
C274 C 0.96669 0.36099 0.36085 0.0
C275 C 0.04012 0.42538 0.35994 0.0
H276 H 0.82116 0.38609 0.31275 0.0
H277 H 0.8956 0.5735 0.27318 0.0
H278 H 0.02178 0.58344 0.2708 0.0
H279 H 0.11319 0.54414 0.28184 0.0
H280 H 0.03501 0.3504 0.31962 0.0
H281 H 0.90784 0.33764 0.32087 0.0
C282 C 0.86496 0.42863 0.30349 0.0
C283 C 0.84956 0.47908 0.29317 0.0
C284 C 0.93666 0.43313 0.30199 0.0
C285 C 0.9062 0.53362 0.28111 0.0
C286 C 0.97837 0.53957 0.27985 0.0
C287 C 0.06793 0.49775 0.2899 0.0
C288 C 0.08374 0.44828 0.30061 0.0
C289 C 0.99453 0.49013 0.29039 0.0
C290 C 0.02465 0.38989 0.31144 0.0
C291 C 0.95191 0.38247 0.31216 0.0
H292 H 0.63104 0.12274 0.93334 0.0
H293 H 0.57644 0.23103 0.97881 0.0
H294 H 0.45026 0.11679 0.98229 0.0
H295 H 0.3588 0.98294 0.97406 0.0
H296 H 0.41529 0.87165 0.92977 0.0
H297 H 0.53626 0.99015 0.92396 0.0
C298 C 0.59089 0.12174 0.94375 0.0
C299 C 0.61279 0.18542 0.95569 0.0
C300 C 0.51882 0.05496 0.946 0.0
C301 C 0.561 0.18256 0.9695 0.0
C302 C 0.48889 0.11715 0.97155 0.0
C303 C 0.39742 0.98478 0.96306 0.0
C304 C 0.37745 0.91877 0.9522 0.0
C305 C 0.46776 0.05252 0.96015 0.0
C306 C 0.42796 0.9221 0.93795 0.0
C307 C 0.4978 0.98968 0.9348 0.0
H308 H 0.47484 0.62433 0.62247 0.0
H309 H 0.6952 0.74491 0.65029 0.0
H310 H 0.70352 0.62801 0.65036 0.0
H311 H 0.64185 0.4881 0.6455 0.0
H312 H 0.42506 0.36869 0.61625 0.0
H313 H 0.42109 0.48823 0.61381 0.0
C314 C 0.52551 0.62554 0.62811 0.0
C315 C 0.58449 0.69333 0.63628 0.0
C316 C 0.52946 0.55773 0.62832 0.0
C317 C 0.64881 0.69328 0.64402 0.0
C318 C 0.65349 0.62638 0.64414 0.0
C319 C 0.59413 0.48875 0.63852 0.0
C320 C 0.53329 0.42017 0.63131 0.0
C321 C 0.59307 0.55775 0.63689 0.0
C322 C 0.47232 0.42121 0.62193 0.0
C323 C 0.46999 0.48934 0.6206 0.0
H324 H 0.0641 0.35453 0.95997 0.0
H325 H 0.01117 0.37897 0.01808 0.0
H326 H 0.11695 0.36241 0.02916 0.0
H327 H 0.22599 0.34339 0.02236 0.0
H328 H 0.28061 0.32177 0.96421 0.0
H329 H 0.17258 0.33466 0.95318 0.0
C330 C 0.07548 0.35596 0.97507 0.0
C331 C 0.0297 0.36797 0.98816 0.0
C332 C 0.13681 0.347 0.98135 0.0
C333 C 0.04551 0.36993 0.00767 0.0
C334 C 0.10603 0.36044 0.01404 0.0
C335 C 0.21411 0.34117 0.00728 0.0
C336 C 0.26139 0.3316 0.99415 0.0
C337 C 0.15226 0.34928 0.00101 0.0
C338 C 0.24528 0.32918 0.97464 0.0
C339 C 0.18347 0.33655 0.96831 0.0
H340 H 0.82506 0.17605 0.65709 0.0
H341 H 0.76912 0.05459 0.71051 0.0
H342 H 0.88295 0.16089 0.72508 0.0
H343 H 0.99955 0.28747 0.72255 0.0
H344 H 0.05316 0.41083 0.66943 0.0
H345 H 0.939 0.30481 0.65489 0.0
C346 C 0.83782 0.1728 0.67192 0.0
C347 C 0.78892 0.10723 0.68265 0.0
C348 C 0.90297 0.23449 0.68027 0.0
C349 C 0.80582 0.10433 0.7019 0.0
C350 C 0.87098 0.16507 0.71026 0.0
C351 C 0.98626 0.29119 0.70779 0.0
C352 C 0.03513 0.3568 0.69707 0.0
C353 C 0.92014 0.23028 0.69956 0.0
C354 C 0.01661 0.36099 0.67801 0.0
C355 C 0.95138 0.3003 0.66967 0.0
H356 H 0.66569 0.89792 0.36571 0.0
H357 H 0.65973 0.95598 0.30695 0.0
H358 H 0.6506 0.83551 0.29697 0.0
H359 H 0.64352 0.71329 0.30489 0.0
H360 H 0.64871 0.65497 0.36368 0.0
H361 H 0.65899 0.77594 0.37363 0.0
C362 C 0.66251 0.88433 0.35072 0.0
C363 C 0.66343 0.93602 0.33711 0.0
C364 C 0.6571 0.81485 0.34506 0.0
C365 C 0.65914 0.91733 0.31774 0.0
C366 C 0.65391 0.84839 0.312 0.0
C367 C 0.64701 0.72703 0.31989 0.0
C368 C 0.64535 0.67503 0.3335 0.0
C369 C 0.65273 0.79668 0.32554 0.0
C370 C 0.64984 0.69385 0.35288 0.0
C371 C 0.65572 0.76307 0.3586 0.0
H372 H 0.70366 0.66979 0.98159 0.0
H373 H 0.73448 0.68681 0.04244 0.0
H374 H 0.86234 0.70279 0.03877 0.0
H375 H 0.96436 0.70921 0.01838 0.0
H376 H 0.93255 0.68972 0.95757 0.0
H377 H 0.80629 0.67768 0.96117 0.0
C378 C 0.7384 0.67726 0.99406 0.0
C379 C 0.70939 0.67702 0.01226 0.0
C380 C 0.81174 0.68592 0.99187 0.0
C381 C 0.75523 0.68661 0.02825 0.0
C382 C 0.82844 0.69579 0.02618 0.0
C383 C 0.93 0.70269 0.0059 0.0
C384 C 0.95797 0.70038 0.98773 0.0
C385 C 0.85712 0.69515 0.00807 0.0
C386 C 0.91248 0.69163 0.97173 0.0
C387 C 0.84019 0.68469 0.97377 0.0
H388 H 0.31673 0.98322 0.68258 0.0
H389 H 0.3185 0.00384 0.62154 0.0
H390 H 0.19993 0.88006 0.61943 0.0
H391 H 0.09838 0.76363 0.63478 0.0
H392 H 0.09934 0.74089 0.69573 0.0
H393 H 0.21392 0.86779 0.69799 0.0
C394 C 0.2909 0.96093 0.66882 0.0
C395 C 0.32656 0.00281 0.65225 0.0
C396 C 0.22327 0.88912 0.66768 0.0
C397 C 0.29245 0.97278 0.63453 0.0
C398 C 0.2246 0.90194 0.6333 0.0
C399 C 0.12333 0.78661 0.64858 0.0
C400 C 0.09028 0.74268 0.66506 0.0
C401 C 0.18991 0.85925 0.64976 0.0
C402 C 0.12366 0.77329 0.68281 0.0
C403 C 0.18924 0.84592 0.68412 0.0
H404 H 0.34979 0.06029 0.36597 0.0
H405 H 0.34432 0.99967 0.30693 0.0
H406 H 0.33224 0.10984 0.29749 0.0
H407 H 0.32426 0.22399 0.30593 0.0
H408 H 0.33025 0.28493 0.36495 0.0
H409 H 0.34098 0.17399 0.37442 0.0
C410 C 0.34587 0.07106 0.35103 0.0
C411 C 0.34801 0.02171 0.33719 0.0
C412 C 0.33903 0.13463 0.34568 0.0
C413 C 0.34285 0.03665 0.3179 0.0
C414 C 0.33594 0.0997 0.31247 0.0
C415 C 0.32777 0.21298 0.32087 0.0
C416 C 0.32645 0.2628 0.3347 0.0
C417 C 0.33411 0.14914 0.32623 0.0
C418 C 0.33113 0.2476 0.354 0.0
C419 C 0.3373 0.18414 0.35944 0.0
loop_
_geom_bond_atom_site_label_1
_geom_bond_atom_site_label_2
_geom_bond_distance
_geom_bond_site_symmetry_2
_ccdc_geom_bond_type
O0 Cd1 2.300 . S
O0 C7 1.275 . S
Cd1 O0 2.300 . S
Cd1 O9 2.381 . S
Cd1 O10 2.378 . S
O2 Cd3 2.385 . S
O2 C7 1.255 . S
Cd3 O2 2.385 . S
Cd3 O4 2.317 . S
O4 Cd3 2.317 . S
O4 C5 1.232 . S
C5 O4 1.232 . S
C5 O6 1.218 . S
O6 C5 1.218 . S
C7 O0 1.275 . S
C7 O2 1.255 . S
C8 O9 1.258 . S
C8 O10 1.256 . S
O9 Cd1 2.381 . S
O9 C8 1.258 . S
O10 Cd1 2.378 . S
O10 C8 1.256 . S
O11 Cd12 2.300 . S
O11 C18 1.275 . S
Cd12 O11 2.300 . S
Cd12 O20 2.381 . S
Cd12 O21 2.380 . S
O13 Cd14 2.385 . S
O13 C18 1.255 . S
Cd14 O13 2.385 . S
Cd14 O15 2.317 . S
O15 Cd14 2.317 . S
O15 C16 1.232 . S
C16 O15 1.232 . S
C16 O17 1.218 . S
O17 C16 1.218 . S
C18 O11 1.275 . S
C18 O13 1.255 . S
C19 O20 1.258 . S
C19 O21 1.256 . S
O20 Cd12 2.381 . S
O20 C19 1.258 . S
O21 Cd12 2.380 . S
O21 C19 1.256 . S
O22 Cd23 2.300 . S
O22 C29 1.275 . S
Cd23 O22 2.300 . S
Cd23 O31 2.381 . S
Cd23 O32 2.380 . S
O24 Cd25 2.385 . S
O24 C29 1.255 . S
Cd25 O24 2.385 . S
Cd25 O26 2.317 . S
O26 Cd25 2.317 . S
O26 C27 1.232 . S
C27 O26 1.232 . S
C27 O28 1.218 . S
O28 C27 1.218 . S
C29 O22 1.275 . S
C29 O24 1.255 . S
C30 O31 1.258 . S
C30 O32 1.257 . S
O31 Cd23 2.381 . S
O31 C30 1.258 . S
O32 Cd23 2.380 . S
O32 C30 1.257 . S
O33 Cd34 2.300 . S
O33 C40 1.275 . S
Cd34 O33 2.300 . S
Cd34 O42 2.381 . S
Cd34 O43 2.378 . S
O35 Cd36 2.385 . S
O35 C40 1.255 . S
Cd36 O35 2.385 . S
Cd36 O37 2.317 . S
O37 Cd36 2.317 . S
O37 C38 1.232 . S
C38 O37 1.232 . S
C38 O39 1.218 . S
O39 C38 1.218 . S
C40 O33 1.275 . S
C40 O35 1.255 . S
C41 O42 1.258 . S
C41 O43 1.256 . S
O42 Cd34 2.381 . S
O42 C41 1.258 . S
O43 Cd34 2.378 . S
O43 C41 1.256 . S
O44 Cd45 2.300 . S
O44 C51 1.275 . S
Cd45 O44 2.300 . S
Cd45 O53 2.381 . S
Cd45 O54 2.380 . S
O46 Cd47 2.385 . S
O46 C51 1.255 . S
Cd47 O46 2.385 . S
Cd47 O48 2.317 . S
O48 Cd47 2.317 . S
O48 C49 1.232 . S
C49 O48 1.232 . S
C49 O50 1.218 . S
O50 C49 1.218 . S
C51 O44 1.275 . S
C51 O46 1.255 . S
C52 O53 1.258 . S
C52 O54 1.256 . S
O53 Cd45 2.381 . S
O53 C52 1.258 . S
O54 Cd45 2.380 . S
O54 C52 1.256 . S
O55 Cd56 2.300 . S
O55 C62 1.275 . S
Cd56 O55 2.300 . S
Cd56 O64 2.381 . S
Cd56 O65 2.381 . S
O57 Cd58 2.385 . S
O57 C62 1.255 . S
Cd58 O57 2.385 . S
Cd58 O59 2.317 . S
O59 Cd58 2.317 . S
O59 C60 1.232 . S
C60 O59 1.232 . S
C60 O61 1.218 . S
O61 C60 1.218 . S
C62 O55 1.275 . S
C62 O57 1.255 . S
C63 O64 1.258 . S
C63 O65 1.257 . S
O64 Cd56 2.381 . S
O64 C63 1.258 . S
O65 Cd56 2.381 . S
O65 C63 1.257 . S
O66 Cd67 2.300 . S
O66 C73 1.275 . S
Cd67 O66 2.300 . S
Cd67 O75 2.381 . S
Cd67 O76 2.378 . S
O68 Cd69 2.385 . S
O68 C73 1.255 . S
Cd69 O68 2.385 . S
Cd69 O70 2.317 . S
O70 Cd69 2.317 . S
O70 C71 1.232 . S
C71 O70 1.232 . S
C71 O72 1.218 . S
O72 C71 1.218 . S
C73 O66 1.275 . S
C73 O68 1.255 . S
C74 O75 1.258 . S
C74 O76 1.256 . S
O75 Cd67 2.381 . S
O75 C74 1.258 . S
O76 Cd67 2.378 . S
O76 C74 1.256 . S
O77 Cd78 2.300 . S
O77 C84 1.275 . S
Cd78 O77 2.300 . S
Cd78 O86 2.381 . S
Cd78 O87 2.381 . S
O79 Cd80 2.385 . S
O79 C84 1.255 . S
Cd80 O79 2.385 . S
Cd80 O81 2.317 . S
O81 Cd80 2.317 . S
O81 C82 1.232 . S
C82 O81 1.232 . S
C82 O83 1.218 . S
O83 C82 1.218 . S
C84 O77 1.275 . S
C84 O79 1.255 . S
C85 O86 1.258 . S
C85 O87 1.257 . S
O86 Cd78 2.381 . S
O86 C85 1.258 . S
O87 Cd78 2.381 . S
O87 C85 1.257 . S
O88 Cd89 2.300 . S
O88 C95 1.275 . S
Cd89 O88 2.300 . S
Cd89 O97 2.381 . S
Cd89 O98 2.380 . S
O90 Cd91 2.385 . S
O90 C95 1.255 . S
Cd91 O90 2.385 . S
Cd91 O92 2.317 . S
O92 Cd91 2.317 . S
O92 C93 1.232 . S
C93 O92 1.232 . S
C93 O94 1.218 . S
O94 C93 1.218 . S
C95 O88 1.275 . S
C95 O90 1.255 . S
C96 O97 1.258 . S
C96 O98 1.256 . S
O97 Cd89 2.381 . S
O97 C96 1.258 . S
O98 Cd89 2.380 . S
O98 C96 1.256 . S
O99 Cd100 2.300 . S
O99 C106 1.275 . S
Cd100 O99 2.300 . S
Cd100 O108 2.381 . S
Cd100 O109 2.378 . S
O101 Cd102 2.385 . S
O101 C106 1.255 . S
Cd102 O101 2.385 . S
Cd102 O103 2.317 . S
O103 Cd102 2.317 . S
O103 C104 1.232 . S
C104 O103 1.232 . S
C104 O105 1.218 . S
O105 C104 1.218 . S
C106 O99 1.275 . S
C106 O101 1.255 . S
C107 O108 1.258 . S
C107 O109 1.256 . S
O108 Cd100 2.381 . S
O108 C107 1.258 . S
O109 Cd100 2.378 . S
O109 C107 1.256 . S
O110 Cd111 2.300 . S
O110 C117 1.275 . S
Cd111 O110 2.300 . S
Cd111 O119 2.381 . S
Cd111 O120 2.380 . S
O112 Cd113 2.385 . S
O112 C117 1.255 . S
Cd113 O112 2.385 . S
Cd113 O114 2.317 . S
O114 Cd113 2.317 . S
O114 C115 1.232 . S
C115 O114 1.232 . S
C115 O116 1.218 . S
O116 C115 1.218 . S
C117 O110 1.275 . S
C117 O112 1.255 . S
C118 O119 1.258 . S
C118 O120 1.257 . S
O119 Cd111 2.381 . S
O119 C118 1.258 . S
O120 Cd111 2.380 . S
O120 C118 1.257 . S
O121 Cd122 2.300 . S
O121 C128 1.275 . S
Cd122 O121 2.300 . S
Cd122 O130 2.381 . S
Cd122 O131 2.380 . S
O123 Cd124 2.385 . S
O123 C128 1.255 . S
Cd124 O123 2.385 . S
Cd124 O125 2.317 . S
O125 Cd124 2.317 . S
O125 C126 1.232 . S
C126 O125 1.232 . S
C126 O127 1.218 . S
O127 C126 1.218 . S
C128 O121 1.275 . S
C128 O123 1.255 . S
C129 O130 1.258 . S
C129 O131 1.256 . S
O130 Cd122 2.381 . S
O130 C129 1.258 . S
O131 Cd122 2.380 . S
O131 C129 1.256 . S
H132 C138 0.930 . S
H133 C141 0.930 . S
H134 C142 0.930 . S
H135 C143 0.930 . S
H136 C146 0.930 . S
H137 C147 0.930 . S
C138 H132 0.930 . S
C138 C139 1.355 . S
C138 C140 1.415 . S
C139 C138 1.355 . S
C139 C141 1.419 . S
C140 C138 1.415 . S
C140 C145 1.425 . S
C140 C147 1.409 . S
C141 H133 0.930 . S
C141 C139 1.419 . S
C141 C142 1.362 . S
C142 H134 0.930 . S
C142 C141 1.362 . S
C142 C145 1.409 . S
C143 H135 0.930 . S
C143 C144 1.355 . S
C143 C145 1.415 . S
C144 C143 1.355 . S
C144 C146 1.419 . S
C145 C140 1.425 . S
C145 C142 1.409 . S
C145 C143 1.415 . S
C146 H136 0.930 . S
C146 C144 1.419 . S
C146 C147 1.362 . S
C147 H137 0.930 . S
C147 C140 1.409 . S
C147 C146 1.362 . S
H148 C154 0.930 . S
H149 C157 0.930 . S
H150 C158 0.930 . S
H151 C159 0.930 . S
H152 C162 0.930 . S
H153 C163 0.930 . S
C154 H148 0.930 . S
C154 C155 1.355 . S
C154 C156 1.415 . S
C155 C154 1.355 . S
C155 C157 1.419 . S
C156 C154 1.415 . S
C156 C161 1.425 . S
C156 C163 1.409 . S
C157 H149 0.930 . S
C157 C155 1.419 . S
C157 C158 1.362 . S
C158 H150 0.930 . S
C158 C157 1.362 . S
C158 C161 1.409 . S
C159 H151 0.930 . S
C159 C160 1.355 . S
C159 C161 1.415 . S
C160 C159 1.355 . S
C160 C162 1.419 . S
C161 C156 1.425 . S
C161 C158 1.409 . S
C161 C159 1.415 . S
C162 H152 0.930 . S
C162 C160 1.419 . S
C162 C163 1.362 . S
C163 H153 0.930 . S
C163 C156 1.409 . S
C163 C162 1.362 . S
H164 C170 0.930 . S
H165 C173 0.930 . S
H166 C174 0.930 . S
H167 C175 0.930 . S
H168 C178 0.930 . S
H169 C179 0.930 . S
C170 H164 0.930 . S
C170 C171 1.355 . S
C170 C172 1.415 . S
C171 C170 1.355 . S
C171 C173 1.419 . S
C172 C170 1.415 . S
C172 C177 1.425 . S
C172 C179 1.409 . S
C173 H165 0.930 . S
C173 C171 1.419 . S
C173 C174 1.362 . S
C174 H166 0.930 . S
C174 C173 1.362 . S
C174 C177 1.409 . S
C175 H167 0.930 . S
C175 C176 1.355 . S
C175 C177 1.415 . S
C176 C175 1.355 . S
C176 C178 1.419 . S
C177 C172 1.425 . S
C177 C174 1.409 . S
C177 C175 1.415 . S
C178 H168 0.930 . S
C178 C176 1.419 . S
C178 C179 1.362 . S
C179 H169 0.930 . S
C179 C172 1.409 . S
C179 C178 1.362 . S
H180 C186 0.930 . S
H181 C189 0.930 . S
H182 C190 0.930 . S
H183 C191 0.930 . S
H184 C194 0.930 . S
H185 C195 0.930 . S
C186 H180 0.930 . S
C186 C187 1.355 . S
C186 C188 1.415 . S
C187 C186 1.355 . S
C187 C189 1.419 . S
C188 C186 1.415 . S
C188 C193 1.425 . S
C188 C195 1.409 . S
C189 H181 0.930 . S
C189 C187 1.419 . S
C189 C190 1.362 . S
C190 H182 0.930 . S
C190 C189 1.362 . S
C190 C193 1.409 . S
C191 H183 0.930 . S
C191 C192 1.355 . S
C191 C193 1.415 . S
C192 C191 1.355 . S
C192 C194 1.419 . S
C193 C188 1.425 . S
C193 C190 1.409 . S
C193 C191 1.415 . S
C194 H184 0.930 . S
C194 C192 1.419 . S
C194 C195 1.362 . S
C195 H185 0.930 . S
C195 C188 1.409 . S
C195 C194 1.362 . S
H196 C202 0.930 . S
H197 C205 0.930 . S
H198 C206 0.930 . S
H199 C207 0.930 . S
H200 C210 0.930 . S
H201 C211 0.930 . S
C202 H196 0.930 . S
C202 C203 1.355 . S
C202 C204 1.415 . S
C203 C202 1.355 . S
C203 C205 1.419 . S
C204 C202 1.415 . S
C204 C209 1.425 . S
C204 C211 1.409 . S
C205 H197 0.930 . S
C205 C203 1.419 . S
C205 C206 1.362 . S
C206 H198 0.930 . S
C206 C205 1.362 . S
C206 C209 1.409 . S
C207 H199 0.930 . S
C207 C208 1.355 . S
C207 C209 1.415 . S
C208 C207 1.355 . S
C208 C210 1.419 . S
C209 C204 1.425 . S
C209 C206 1.409 . S
C209 C207 1.415 . S
C210 H200 0.930 . S
C210 C208 1.419 . S
C210 C211 1.362 . S
C211 H201 0.930 . S
C211 C204 1.409 . S
C211 C210 1.362 . S
H212 C218 0.930 . S
H213 C221 0.930 . S
H214 C222 0.930 . S
H215 C223 0.930 . S
H216 C226 0.930 . S
H217 C227 0.930 . S
C218 H212 0.930 . S
C218 C219 1.355 . S
C218 C220 1.415 . S
C219 C218 1.355 . S
C219 C221 1.419 . S
C220 C218 1.415 . S
C220 C225 1.425 . S
C220 C227 1.409 . S
C221 H213 0.930 . S
C221 C219 1.419 . S
C221 C222 1.362 . S
C222 H214 0.930 . S
C222 C221 1.362 . S
C222 C225 1.409 . S
C223 H215 0.930 . S
C223 C224 1.355 . S
C223 C225 1.415 . S
C224 C223 1.355 . S
C224 C226 1.419 . S
C225 C220 1.425 . S
C225 C222 1.409 . S
C225 C223 1.415 . S
C226 H216 0.930 . S
C226 C224 1.419 . S
C226 C227 1.362 . S
C227 H217 0.930 . S
C227 C220 1.409 . S
C227 C226 1.362 . S
H228 C234 0.930 . S
H229 C237 0.930 . S
H230 C238 0.930 . S
H231 C239 0.930 . S
H232 C242 0.930 . S
H233 C243 0.930 . S
C234 H228 0.930 . S
C234 C235 1.355 . S
C234 C236 1.415 . S
C235 C234 1.355 . S
C235 C237 1.419 . S
C236 C234 1.415 . S
C236 C241 1.425 1_545 S
C236 C243 1.409 . S
C237 H229 0.930 . S
C237 C235 1.419 . S
C237 C238 1.362 1_545 S
C238 H230 0.930 . S
C238 C237 1.362 1_565 S
C238 C241 1.409 . S
C239 H231 0.930 . S
C239 C240 1.355 . S
C239 C241 1.415 . S
C240 C239 1.355 . S
C240 C242 1.419 . S
C241 C236 1.425 1_565 S
C241 C238 1.409 . S
C241 C239 1.415 . S
C242 H232 0.930 . S
C242 C240 1.419 . S
C242 C243 1.362 1_565 S
C243 H233 0.930 . S
C243 C236 1.409 . S
C243 C242 1.362 1_545 S
H244 C250 0.930 . S
H245 C253 0.930 . S
H246 C254 0.930 . S
H247 C255 0.930 . S
H248 C258 0.930 . S
H249 C259 0.930 . S
C250 H244 0.930 . S
C250 C251 1.355 . S
C250 C252 1.415 . S
C251 C250 1.355 . S
C251 C253 1.419 . S
C252 C250 1.415 . S
C252 C257 1.425 . S
C252 C259 1.409 . S
C253 H245 0.930 . S
C253 C251 1.419 . S
C253 C254 1.362 . S
C254 H246 0.930 . S
C254 C253 1.362 . S
C254 C257 1.409 . S
C255 H247 0.930 . S
C255 C256 1.355 . S
C255 C257 1.415 . S
C256 C255 1.355 . S
C256 C258 1.419 . S
C257 C252 1.425 . S
C257 C254 1.409 . S
C257 C255 1.415 . S
C258 H248 0.930 . S
C258 C256 1.419 . S
C258 C259 1.362 . S
C259 H249 0.930 . S
C259 C252 1.409 . S
C259 C258 1.362 . S
H260 C266 0.930 . S
H261 C269 0.930 . S
H262 C270 0.930 . S
H263 C271 0.930 . S
H264 C274 0.930 . S
H265 C275 0.930 . S
C266 H260 0.930 . S
C266 C267 1.355 . S
C266 C268 1.415 . S
C267 C266 1.355 . S
C267 C269 1.419 . S
C268 C266 1.415 . S
C268 C273 1.425 1_455 S
C268 C275 1.409 . S
C269 H261 0.930 . S
C269 C267 1.419 . S
C269 C270 1.362 1_455 S
C270 H262 0.930 . S
C270 C269 1.362 1_655 S
C270 C273 1.409 . S
C271 H263 0.930 . S
C271 C272 1.355 . S
C271 C273 1.415 . S
C272 C271 1.355 . S
C272 C274 1.419 . S
C273 C268 1.425 1_655 S
C273 C270 1.409 . S
C273 C271 1.415 . S
C274 H264 0.930 . S
C274 C272 1.419 . S
C274 C275 1.362 1_655 S
C275 H265 0.930 . S
C275 C268 1.409 . S
C275 C274 1.362 1_455 S
H276 C282 0.930 . S
H277 C285 0.930 . S
H278 C286 0.930 . S
H279 C287 0.930 . S
H280 C290 0.930 . S
H281 C291 0.930 . S
C282 H276 0.930 . S
C282 C283 1.355 . S
C282 C284 1.415 . S
C283 C282 1.355 . S
C283 C285 1.419 . S
C284 C282 1.415 . S
C284 C289 1.425 1_655 S
C284 C291 1.409 . S
C285 H277 0.930 . S
C285 C283 1.419 . S
C285 C286 1.362 1_655 S
C286 H278 0.930 . S
C286 C285 1.362 1_455 S
C286 C289 1.409 . S
C287 H279 0.930 . S
C287 C288 1.355 . S
C287 C289 1.415 . S
C288 C287 1.355 . S
C288 C290 1.419 . S
C289 C284 1.425 1_455 S
C289 C286 1.409 . S
C289 C287 1.415 . S
C290 H280 0.930 . S
C290 C288 1.419 . S
C290 C291 1.362 1_455 S
C291 H281 0.930 . S
C291 C284 1.409 . S
C291 C290 1.362 1_655 S
H292 C298 0.930 . S
H293 C301 0.930 . S
H294 C302 0.930 . S
H295 C303 0.930 . S
H296 C306 0.930 . S
H297 C307 0.930 . S
C298 H292 0.930 . S
C298 C299 1.355 . S
C298 C300 1.415 1_545 S
C299 C298 1.355 . S
C299 C301 1.419 . S
C300 C298 1.415 1_565 S
C300 C305 1.425 1_565 S
C300 C307 1.409 . S
C301 H293 0.930 . S
C301 C299 1.419 . S
C301 C302 1.362 . S
C302 H294 0.930 . S
C302 C301 1.362 . S
C302 C305 1.409 . S
C303 H295 0.930 . S
C303 C304 1.355 . S
C303 C305 1.415 1_565 S
C304 C303 1.355 . S
C304 C306 1.419 . S
C305 C300 1.425 1_545 S
C305 C302 1.409 . S
C305 C303 1.415 1_545 S
C306 H296 0.930 . S
C306 C304 1.419 . S
C306 C307 1.362 . S
C307 H297 0.930 . S
C307 C300 1.409 . S
C307 C306 1.362 . S
H308 C314 0.930 . S
H309 C317 0.930 . S
H310 C318 0.930 . S
H311 C319 0.930 . S
H312 C322 0.930 . S
H313 C323 0.930 . S
C314 H308 0.930 . S
C314 C315 1.355 . S
C314 C316 1.415 . S
C315 C314 1.355 . S
C315 C317 1.419 . S
C316 C314 1.415 . S
C316 C321 1.425 . S
C316 C323 1.409 . S
C317 H309 0.930 . S
C317 C315 1.419 . S
C317 C318 1.362 . S
C318 H310 0.930 . S
C318 C317 1.362 . S
C318 C321 1.409 . S
C319 H311 0.930 . S
C319 C320 1.355 . S
C319 C321 1.415 . S
C320 C319 1.355 . S
C320 C322 1.419 . S
C321 C316 1.425 . S
C321 C318 1.409 . S
C321 C319 1.415 . S
C322 H312 0.930 . S
C322 C320 1.419 . S
C322 C323 1.362 . S
C323 H313 0.930 . S
C323 C316 1.409 . S
C323 C322 1.362 . S
H324 C330 0.930 . S
H325 C333 0.930 1_655 S
H326 C334 0.930 . S
H327 C335 0.930 . S
H328 C338 0.930 . S
H329 C339 0.930 . S
C330 H324 0.930 . S
C330 C331 1.355 . S
C330 C332 1.415 . S
C331 C330 1.355 . S
C331 C333 1.419 . S
C332 C330 1.415 . S
C332 C337 1.425 1_556 S
C332 C339 1.409 . S
C333 H325 0.930 1_455 S
C333 C331 1.419 . S
C333 C334 1.362 1_556 S
C334 H326 0.930 . S
C334 C333 1.362 1_554 S
C334 C337 1.409 . S
C335 H327 0.930 . S
C335 C336 1.355 . S
C335 C337 1.415 . S
C336 C335 1.355 . S
C336 C338 1.419 . S
C337 C332 1.425 1_554 S
C337 C334 1.409 . S
C337 C335 1.415 . S
C338 H328 0.930 . S
C338 C336 1.419 . S
C338 C339 1.362 1_554 S
C339 H329 0.930 . S
C339 C332 1.409 . S
C339 C338 1.362 1_556 S
H340 C346 0.930 . S
H341 C349 0.930 . S
H342 C350 0.930 . S
H343 C351 0.930 . S
H344 C354 0.930 . S
H345 C355 0.930 . S
C346 H340 0.930 . S
C346 C347 1.355 . S
C346 C348 1.415 . S
C347 C346 1.355 . S
C347 C349 1.419 . S
C348 C346 1.415 . S
C348 C353 1.425 . S
C348 C355 1.409 . S
C349 H341 0.930 . S
C349 C347 1.419 . S
C349 C350 1.362 . S
C350 H342 0.930 . S
C350 C349 1.362 . S
C350 C353 1.409 . S
C351 H343 0.930 . S
C351 C352 1.355 . S
C351 C353 1.415 . S
C352 C351 1.355 . S
C352 C354 1.419 1_655 S
C353 C348 1.425 . S
C353 C350 1.409 . S
C353 C351 1.415 . S
C354 H344 0.930 . S
C354 C352 1.419 1_455 S
C354 C355 1.362 1_455 S
C355 H345 0.930 . S
C355 C348 1.409 . S
C355 C354 1.362 1_655 S
H356 C362 0.930 . S
H357 C365 0.930 . S
H358 C366 0.930 . S
H359 C367 0.930 . S
H360 C370 0.930 . S
H361 C371 0.930 . S
C362 H356 0.930 . S
C362 C363 1.355 . S
C362 C364 1.415 . S
C363 C362 1.355 . S
C363 C365 1.419 1_565 S
C364 C362 1.415 . S
C364 C369 1.425 . S
C364 C371 1.409 . S
C365 H357 0.930 . S
C365 C363 1.419 1_545 S
C365 C366 1.362 1_545 S
C366 H358 0.930 . S
C366 C365 1.362 1_565 S
C366 C369 1.409 . S
C367 H359 0.930 . S
C367 C368 1.355 . S
C367 C369 1.415 . S
C368 C367 1.355 . S
C368 C370 1.419 . S
C369 C364 1.425 . S
C369 C366 1.409 . S
C369 C367 1.415 . S
C370 H360 0.930 . S
C370 C368 1.419 . S
C370 C371 1.362 . S
C371 H361 0.930 . S
C371 C364 1.409 . S
C371 C370 1.362 . S
H372 C378 0.930 1_556 S
H373 C381 0.930 . S
H374 C382 0.930 . S
H375 C383 0.930 1_454 S
H376 C386 0.930 . S
H377 C387 0.930 . S
C378 H372 0.930 1_554 S
C378 C379 1.355 . S
C378 C380 1.415 1_554 S
C379 C378 1.355 . S
C379 C381 1.419 . S
C380 C378 1.415 1_556 S
C380 C385 1.425 1_556 S
C380 C387 1.409 . S
C381 H373 0.930 . S
C381 C379 1.419 . S
C381 C382 1.362 . S
C382 H374 0.930 . S
C382 C381 1.362 . S
C382 C385 1.409 . S
C383 H375 0.930 1_656 S
C383 C384 1.355 . S
C383 C385 1.415 1_556 S
C384 C383 1.355 . S
C384 C386 1.419 . S
C385 C380 1.425 1_554 S
C385 C382 1.409 . S
C385 C383 1.415 1_554 S
C386 H376 0.930 . S
C386 C384 1.419 . S
C386 C387 1.362 . S
C387 H377 0.930 . S
C387 C380 1.409 . S
C387 C386 1.362 . S
H388 C394 0.930 1_545 S
H389 C397 0.930 . S
H390 C398 0.930 . S
H391 C399 0.930 . S
H392 C402 0.930 . S
H393 C403 0.930 . S
C394 H388 0.930 1_565 S
C394 C395 1.355 . S
C394 C396 1.415 . S
C395 C394 1.355 . S
C395 C397 1.419 . S
C396 C394 1.415 . S
C396 C401 1.425 . S
C396 C403 1.409 . S
C397 H389 0.930 . S
C397 C395 1.419 . S
C397 C398 1.362 . S
C398 H390 0.930 . S
C398 C397 1.362 . S
C398 C401 1.409 . S
C399 H391 0.930 . S
C399 C400 1.355 . S
C399 C401 1.415 . S
C400 C399 1.355 . S
C400 C402 1.419 . S
C401 C396 1.425 . S
C401 C398 1.409 . S
C401 C399 1.415 . S
C402 H392 0.930 . S
C402 C400 1.419 . S
C402 C403 1.362 . S
C403 H393 0.930 . S
C403 C396 1.409 . S
C403 C402 1.362 . S
H404 C410 0.930 . S
H405 C413 0.930 . S
H406 C414 0.931 . S
H407 C415 0.930 . S
H408 C418 0.930 . S
H409 C419 0.930 . S
C410 H404 0.930 . S
C410 C411 1.355 . S
C410 C412 1.415 . S
C411 C410 1.355 . S
C411 C413 1.419 1_545 S
C412 C410 1.415 . S
C412 C417 1.425 . S
C412 C419 1.409 . S
C413 H405 0.930 . S
C413 C411 1.419 1_565 S
C413 C414 1.362 1_565 S
C414 H406 0.931 . S
C414 C413 1.362 1_545 S
C414 C417 1.409 . S
C415 H407 0.930 . S
C415 C416 1.355 . S
C415 C417 1.415 . S
C416 C415 1.355 . S
C416 C418 1.419 . S
C417 C412 1.425 . S
C417 C414 1.409 . S
C417 C415 1.415 . S
C418 H408 0.930 . S
C418 C416 1.419 . S
C418 C419 1.362 . S
C419 H409 0.930 . S
C419 C412 1.409 . S
C419 C418 1.362 . S
C139 C5 1.191 . S
C144 C71 1.190 . S
C155 C16 1.232 . S
C160 C82 1.259 . S
C171 C27 1.192 . S
C176 C93 1.190 . S
C187 C104 1.327 . S
C192 C38 1.336 . S
C203 C49 1.305 . S
C208 C115 1.281 . S
C219 C126 1.207 . S
C224 C60 1.228 . S
C235 C7 1.432 . S
C240 C40 1.441 . S
C251 C18 1.484 . S
C256 C51 1.480 . S
C267 C62 1.412 . S
C272 C29 1.413 . S
C283 C73 1.415 . S
C288 C106 1.412 . S
C299 C117 1.486 . S
C304 C84 1.485 . S
C315 C128 1.413 . S
C320 C95 1.417 . S
C331 C118 1.505 1_455 S
C336 C8 1.502 . S
C347 C129 1.510 1_545 S
C352 C19 1.491 1_655 S
C363 C30 1.493 1_565 S
C368 C74 1.510 . S
C379 C41 1.484 . S
C384 C85 1.473 1_655 S
C395 C96 1.504 1_565 S
C400 C52 1.473 1_455 S
C411 C63 1.485 1_545 S
C416 C107 1.511 . S
