# Generated by pormake.
# Topology whk, (6)-cn, num edge types: 1
# Building blocks:
#     Node 0, Type 0, BuildingBlock: MIFKUJ_clean_sbu_0, # of connection points: 6
#     Node 1, Type 0, BuildingBlock: MIFKUJ_clean_sbu_0, # of connection points: 6
#     Node 2, Type 0, BuildingBlock: MIFKUJ_clean_sbu_0, # of connection points: 6
#     Node 3, Type 0, BuildingBlock: MIFKUJ_clean_sbu_0, # of connection points: 6
#     Node 4, Type 0, BuildingBlock: MIFKUJ_clean_sbu_0, # of connection points: 6
#     Node 5, Type 0, BuildingBlock: MIFKUJ_clean_sbu_0, # of connection points: 6
#     Node 6, Type 0, BuildingBlock: MIFKUJ_clean_sbu_0, # of connection points: 6
#     Node 7, Type 0, BuildingBlock: MIFKUJ_clean_sbu_0, # of connection points: 6
#     Node 8, Type 0, BuildingBlock: MIFKUJ_clean_sbu_0, # of connection points: 6
#     Node 9, Type 0, BuildingBlock: MIFKUJ_clean_sbu_0, # of connection points: 6
#     Node 10, Type 0, BuildingBlock: MIFKUJ_clean_sbu_0, # of connection points: 6
#     Node 11, Type 0, BuildingBlock: MIFKUJ_clean_sbu_0, # of connection points: 6
#     Node 12, Type 0, BuildingBlock: MIFKUJ_clean_sbu_0, # of connection points: 6
#     Node 13, Type 0, BuildingBlock: MIFKUJ_clean_sbu_0, # of connection points: 6
#     Node 14, Type 0, BuildingBlock: MIFKUJ_clean_sbu_0, # of connection points: 6
#     Node 15, Type 0, BuildingBlock: MIFKUJ_clean_sbu_0, # of connection points: 6
#     Edge 16, Type (0, 0), BuildingBlock: XIVTED_clean_linker_0, # of connection points: 2
#     Edge 17, Type (0, 0), BuildingBlock: XIVTED_clean_linker_0, # of connection points: 2
#     Edge 18, Type (0, 0), BuildingBlock: XIVTED_clean_linker_0, # of connection points: 2
#     Edge 19, Type (0, 0), BuildingBlock: XIVTED_clean_linker_0, # of connection points: 2
#     Edge 20, Type (0, 0), BuildingBlock: XIVTED_clean_linker_0, # of connection points: 2
#     Edge 21, Type (0, 0), BuildingBlock: XIVTED_clean_linker_0, # of connection points: 2
#     Edge 22, Type (0, 0), BuildingBlock: XIVTED_clean_linker_0, # of connection points: 2
#     Edge 23, Type (0, 0), BuildingBlock: XIVTED_clean_linker_0, # of connection points: 2
#     Edge 24, Type (0, 0), BuildingBlock: XIVTED_clean_linker_0, # of connection points: 2
#     Edge 25, Type (0, 0), BuildingBlock: XIVTED_clean_linker_0, # of connection points: 2
#     Edge 26, Type (0, 0), BuildingBlock: XIVTED_clean_linker_0, # of connection points: 2
#     Edge 27, Type (0, 0), BuildingBlock: XIVTED_clean_linker_0, # of connection points: 2
#     Edge 28, Type (0, 0), BuildingBlock: XIVTED_clean_linker_0, # of connection points: 2
#     Edge 29, Type (0, 0), BuildingBlock: XIVTED_clean_linker_0, # of connection points: 2
#     Edge 30, Type (0, 0), BuildingBlock: XIVTED_clean_linker_0, # of connection points: 2
#     Edge 31, Type (0, 0), BuildingBlock: XIVTED_clean_linker_0, # of connection points: 2
#     Edge 32, Type (0, 0), BuildingBlock: XIVTED_clean_linker_0, # of connection points: 2
#     Edge 33, Type (0, 0), BuildingBlock: XIVTED_clean_linker_0, # of connection points: 2
#     Edge 34, Type (0, 0), BuildingBlock: XIVTED_clean_linker_0, # of connection points: 2
#     Edge 35, Type (0, 0), BuildingBlock: XIVTED_clean_linker_0, # of connection points: 2
#     Edge 36, Type (0, 0), BuildingBlock: XIVTED_clean_linker_0, # of connection points: 2
#     Edge 37, Type (0, 0), BuildingBlock: XIVTED_clean_linker_0, # of connection points: 2
#     Edge 38, Type (0, 0), BuildingBlock: XIVTED_clean_linker_0, # of connection points: 2
#     Edge 39, Type (0, 0), BuildingBlock: XIVTED_clean_linker_0, # of connection points: 2
#     Edge 40, Type (0, 0), BuildingBlock: XIVTED_clean_linker_0, # of connection points: 2
#     Edge 41, Type (0, 0), BuildingBlock: XIVTED_clean_linker_0, # of connection points: 2
#     Edge 42, Type (0, 0), BuildingBlock: XIVTED_clean_linker_0, # of connection points: 2
#     Edge 43, Type (0, 0), BuildingBlock: XIVTED_clean_linker_0, # of connection points: 2
#     Edge 44, Type (0, 0), BuildingBlock: XIVTED_clean_linker_0, # of connection points: 2
#     Edge 45, Type (0, 0), BuildingBlock: XIVTED_clean_linker_0, # of connection points: 2
#     Edge 46, Type (0, 0), BuildingBlock: XIVTED_clean_linker_0, # of connection points: 2
#     Edge 47, Type (0, 0), BuildingBlock: XIVTED_clean_linker_0, # of connection points: 2
#     Edge 48, Type (0, 0), BuildingBlock: XIVTED_clean_linker_0, # of connection points: 2
#     Edge 49, Type (0, 0), BuildingBlock: XIVTED_clean_linker_0, # of connection points: 2
#     Edge 50, Type (0, 0), BuildingBlock: XIVTED_clean_linker_0, # of connection points: 2
#     Edge 51, Type (0, 0), BuildingBlock: XIVTED_clean_linker_0, # of connection points: 2
#     Edge 52, Type (0, 0), BuildingBlock: XIVTED_clean_linker_0, # of connection points: 2
#     Edge 53, Type (0, 0), BuildingBlock: XIVTED_clean_linker_0, # of connection points: 2
#     Edge 54, Type (0, 0), BuildingBlock: XIVTED_clean_linker_0, # of connection points: 2
#     Edge 55, Type (0, 0), BuildingBlock: XIVTED_clean_linker_0, # of connection points: 2
#     Edge 56, Type (0, 0), BuildingBlock: XIVTED_clean_linker_0, # of connection points: 2
#     Edge 57, Type (0, 0), BuildingBlock: XIVTED_clean_linker_0, # of connection points: 2
#     Edge 58, Type (0, 0), BuildingBlock: XIVTED_clean_linker_0, # of connection points: 2
#     Edge 59, Type (0, 0), BuildingBlock: XIVTED_clean_linker_0, # of connection points: 2
#     Edge 60, Type (0, 0), BuildingBlock: XIVTED_clean_linker_0, # of connection points: 2
#     Edge 61, Type (0, 0), BuildingBlock: XIVTED_clean_linker_0, # of connection points: 2
#     Edge 62, Type (0, 0), BuildingBlock: XIVTED_clean_linker_0, # of connection points: 2
#     Edge 63, Type (0, 0), BuildingBlock: XIVTED_clean_linker_0, # of connection points: 2
# Relax obj value: 0.392
# Max RMSD: 0.269
# Mean RMSD: 0.269
data_MOF--net-whk--node1-MIFKUJ_clean_sbu_0--edge1-XIVTED_clean_linker_0
_symmetry_space_group_name_H-M    P1
_symmetry_Int_Tables_number       1
_symmetry_cell_setting            triclinic
loop_
_symmetry_equiv_pos_as_xyz
'x, y, z'
_cell_length_a     40.317353
_cell_length_b     40.364309
_cell_length_c     43.346793
_cell_angle_alpha  90.161398
_cell_angle_beta   90.07165
_cell_angle_gamma 90.507617
loop_
_atom_site_label
_atom_site_type_symbol
_atom_site_fract_x
_atom_site_fract_y
_atom_site_fract_z
_atom_type_partial_charge
Zn0 Zn 0.50465 0.16009 0.40189 0.0
Zn1 Zn 0.59796 0.13941 0.40623 0.0
C2 C 0.49103 0.22561 0.37442 0.0
O3 O 0.50128 0.21307 0.34814 0.0
C4 C 0.65136 0.09693 0.4247 0.0
O5 O 0.65241 0.09041 0.39501 0.0
O6 O 0.46191 0.13351 0.40295 0.0
O7 O 0.52943 0.14424 0.36395 0.0
O8 O 0.564 0.10947 0.38612 0.0
C9 C 0.44533 0.13503 0.37799 0.0
O10 O 0.45734 0.15261 0.35504 0.0
O11 O 0.49116 0.20781 0.39851 0.0
C12 C 0.62672 0.18851 0.36527 0.0
O13 O 0.60055 0.20584 0.37298 0.0
O14 O 0.62902 0.15881 0.37461 0.0
O15 O 0.57927 0.1776 0.42953 0.0
O16 O 0.53023 0.15744 0.44154 0.0
O17 O 0.62832 0.11516 0.43511 0.0
C18 C 0.54969 0.12028 0.3621 0.0
C19 C 0.55214 0.18008 0.44406 0.0
Zn20 Zn 0.33883 0.49922 0.39798 0.0
Zn21 Zn 0.35985 0.59196 0.40463 0.0
C22 C 0.2752 0.47076 0.40417 0.0
O23 O 0.28829 0.46623 0.43159 0.0
C24 C 0.41306 0.6221 0.43582 0.0
O25 O 0.42004 0.62844 0.40681 0.0
O26 O 0.36395 0.45676 0.40438 0.0
O27 O 0.36513 0.52264 0.363 0.0
O28 O 0.38461 0.5741 0.36949 0.0
C29 C 0.36879 0.44075 0.37948 0.0
O30 O 0.35654 0.45245 0.35364 0.0
O31 O 0.29266 0.48505 0.38354 0.0
C32 C 0.33475 0.65476 0.41451 0.0
O33 O 0.33585 0.64302 0.44273 0.0
O34 O 0.34362 0.63648 0.39218 0.0
O35 O 0.31874 0.56593 0.41241 0.0
O36 O 0.33053 0.52243 0.4394 0.0
O37 O 0.38927 0.60206 0.44165 0.0
C38 C 0.38231 0.54753 0.35391 0.0
C39 C 0.31738 0.5508 0.43779 0.0
Zn40 Zn 0.98512 0.34293 0.38 0.0
Zn41 Zn 0.88621 0.35164 0.38456 0.0
C42 C 0.01566 0.2826 0.39124 0.0
O43 O 0.0195 0.29882 0.41735 0.0
C44 C 0.84965 0.40615 0.40873 0.0
O45 O 0.84025 0.4075 0.37973 0.0
O46 O 0.0272 0.36873 0.39069 0.0
O47 O 0.96466 0.3665 0.34263 0.0
O48 O 0.91027 0.3722 0.34947 0.0
C49 C 0.04677 0.37597 0.36861 0.0
O50 O 0.03838 0.36731 0.3404 0.0
O51 O 1.00074 0.29681 0.36908 0.0
C52 C 0.84244 0.30395 0.35496 0.0
O53 O 0.86991 0.28702 0.35175 0.0
O54 O 0.84371 0.33243 0.36751 0.0
O55 O 0.90911 0.31371 0.40425 0.0
O56 O 0.95648 0.33667 0.41851 0.0
O57 O 0.87154 0.38517 0.41643 0.0
C58 C 0.93655 0.3775 0.33409 0.0
C59 C 0.93648 0.31207 0.41853 0.0
Zn60 Zn 0.16022 0.00307 0.3876 0.0
Zn61 Zn 0.17114 0.91179 0.39292 0.0
C62 C 0.21635 0.03872 0.35715 0.0
O63 O 0.19433 0.0541 0.34019 0.0
C64 C 0.12715 0.86479 0.41833 0.0
O65 O 0.12367 0.85938 0.3886 0.0
O66 O 0.13395 0.04542 0.39238 0.0
O67 O 0.13839 0.97595 0.35253 0.0
O68 O 0.14276 0.92123 0.35709 0.0
C69 C 0.11901 0.05817 0.36946 0.0
O70 O 0.12019 0.04315 0.34256 0.0
O71 O 0.20684 0.01659 0.376 0.0
C72 C 0.22421 0.87132 0.40187 0.0
O73 O 0.2227 0.8885 0.42762 0.0
O74 O 0.20331 0.87705 0.38066 0.0
O75 O 0.20039 0.94941 0.40569 0.0
O76 O 0.16821 0.98332 0.43046 0.0
O77 O 0.14522 0.8891 0.42718 0.0
C78 C 0.1323 0.94658 0.34303 0.0
C79 C 0.19398 0.96544 0.43 0.0
Zn80 Zn 1.00084 0.83116 0.1003 0.0
Zn81 Zn 0.09796 0.86565 0.07561 0.0
C82 C 0.97812 0.76705 0.12421 0.0
O83 O 0.97321 0.78296 0.15027 0.0
C84 C 0.1433 0.92049 0.07606 0.0
O85 O 0.15133 0.90749 0.10278 0.0
O86 O 0.95835 0.85604 0.09309 0.0
O87 O 0.02273 0.85001 0.13816 0.0
O88 O 0.06982 0.86684 0.116 0.0
C89 C 0.94196 0.8646 0.11685 0.0
O90 O 0.95381 0.85771 0.14431 0.0
O91 O 0.9903 0.78251 0.10139 0.0
C92 C 0.15587 0.83027 0.06145 0.0
O93 O 0.14965 0.84492 0.03505 0.0
O94 O 0.13671 0.83561 0.08416 0.0
O95 O 0.07568 0.84435 0.0381 0.0
O96 O 0.03486 0.84004 0.06945 0.0
O97 O 0.11809 0.90903 0.06187 0.0
C98 C 0.05037 0.8658 0.13937 0.0
C99 C 0.04751 0.83209 0.04395 0.0
Zn100 Zn 0.65611 0.99556 0.10822 0.0
Zn101 Zn 0.68083 0.08121 0.11524 0.0
C102 C 0.71272 0.95768 0.10117 0.0
O103 O 0.69662 0.9531 0.0751 0.0
C104 C 0.64231 0.13303 0.09346 0.0
O105 O 0.64895 0.14131 0.12217 0.0
O106 O 0.6269 0.95596 0.09813 0.0
O107 O 0.63398 0.01993 0.14467 0.0
O108 O 0.65202 0.07189 0.15039 0.0
C109 C 0.61743 0.93858 0.12099 0.0
O110 O 0.62554 0.94832 0.14897 0.0
O111 O 0.6994 0.97531 0.12208 0.0
C112 C 0.7314 0.12468 0.10425 0.0
O113 O 0.7279 0.10879 0.07797 0.0
O114 O 0.71444 0.11518 0.12725 0.0
O115 O 0.70566 0.04192 0.10029 0.0
O116 O 0.6697 0.02032 0.06849 0.0
O117 O 0.65278 0.10529 0.08335 0.0
C118 C 0.6342 0.04762 0.15895 0.0
C119 C 0.69784 0.03392 0.07306 0.0
Zn120 Zn 0.50085 0.64504 0.10054 0.0
Zn121 Zn 0.40472 0.64086 0.08965 0.0
C122 C 0.53204 0.70671 0.0928 0.0
O123 O 0.54138 0.69038 0.06807 0.0
C124 C 0.37472 0.58248 0.06541 0.0
O125 O 0.3677 0.57892 0.09481 0.0
O126 O 0.54373 0.62067 0.09343 0.0
O127 O 0.47582 0.62182 0.13547 0.0
O128 O 0.42102 0.61957 0.12834 0.0
C129 C 0.56114 0.61007 0.11576 0.0
O130 O 0.55035 0.61395 0.14412 0.0
O131 O 0.51395 0.69191 0.11259 0.0
C132 C 0.34886 0.67534 0.07276 0.0
O133 O 0.36441 0.66977 0.04665 0.0
O134 O 0.36124 0.66399 0.09756 0.0
O135 O 0.4327 0.67729 0.07258 0.0
O136 O 0.47713 0.64948 0.05956 0.0
O137 O 0.39361 0.60634 0.05737 0.0
C138 C 0.44679 0.61303 0.14407 0.0
C139 C 0.45983 0.67554 0.05809 0.0
Zn140 Zn 0.84689 0.4848 0.07376 0.0
Zn141 Zn 0.81728 0.42108 0.0891 0.0
C142 C 0.79004 0.52332 0.07699 0.0
O143 O 0.80447 0.5328 0.05127 0.0
C144 C 0.87061 0.3758 0.08089 0.0
O145 O 0.8615 0.36889 0.10927 0.0
O146 O 0.87412 0.52684 0.06813 0.0
O147 O 0.87476 0.45795 0.10478 0.0
O148 O 0.82916 0.44348 0.12836 0.0
C149 C 0.87849 0.54099 0.09416 0.0
O150 O 0.86584 0.52696 0.11885 0.0
O151 O 0.80447 0.50186 0.09366 0.0
C152 C 0.78552 0.36249 0.07716 0.0
O153 O 0.79281 0.37333 0.0494 0.0
O154 O 0.79134 0.38106 0.10023 0.0
O155 O 0.78838 0.44569 0.06043 0.0
O156 O 0.82965 0.46492 0.03247 0.0
O157 O 0.85719 0.40031 0.06733 0.0
C158 C 0.85973 0.45046 0.12957 0.0
C159 C 0.79933 0.45581 0.03473 0.0
Zn160 Zn 0.40493 0.86917 0.59783 0.0
Zn161 Zn 0.50085 0.8416 0.60846 0.0
C162 C 0.37524 0.9284 0.57856 0.0
O163 O 0.36855 0.9288 0.60823 0.0
C164 C 0.53626 0.78651 0.63578 0.0
O165 O 0.55059 0.80982 0.65244 0.0
O166 O 0.35995 0.85615 0.61329 0.0
O167 O 0.42094 0.8277 0.5782 0.0
O168 O 0.47336 0.83938 0.5692 0.0
C169 C 0.33566 0.85529 0.59462 0.0
O170 O 0.3407 0.86176 0.56531 0.0
O171 O 0.39533 0.90673 0.56842 0.0
C172 C 0.55777 0.88364 0.62236 0.0
O173 O 0.54268 0.88582 0.6491 0.0
O174 O 0.54429 0.86667 0.6008 0.0
O175 O 0.47931 0.86293 0.6464 0.0
O176 O 0.4289 0.88238 0.63597 0.0
O177 O 0.51351 0.79432 0.61693 0.0
C178 C 0.44895 0.81924 0.56776 0.0
C179 C 0.45373 0.87955 0.65376 0.0
Zn180 Zn 0.6417 0.40269 0.59691 0.0
Zn181 Zn 0.66012 0.49867 0.61097 0.0
C182 C 0.58206 0.37282 0.57582 0.0
O183 O 0.58031 0.36593 0.60539 0.0
C184 C 0.72253 0.52582 0.59941 0.0
O185 O 0.70527 0.53424 0.57496 0.0
O186 O 0.6591 0.35855 0.61048 0.0
O187 O 0.68031 0.42469 0.57705 0.0
O188 O 0.66065 0.47471 0.56948 0.0
C189 C 0.65992 0.33464 0.59136 0.0
O190 O 0.64968 0.33929 0.56294 0.0
O191 O 0.60511 0.39211 0.56657 0.0
C192 C 0.64089 0.5619 0.63009 0.0
O193 O 0.65862 0.55168 0.65362 0.0
O194 O 0.63753 0.5429 0.6068 0.0
O195 O 0.63634 0.47658 0.64744 0.0
O196 O 0.62483 0.42437 0.63472 0.0
O197 O 0.70821 0.50918 0.62053 0.0
C198 C 0.68344 0.45347 0.56584 0.0
C199 C 0.62259 0.44872 0.65313 0.0
Zn200 Zn 0.10163 0.68159 0.61294 0.0
Zn201 Zn 0.00737 0.6619 0.60831 0.0
C202 C 0.15062 0.6386 0.58846 0.0
O203 O 0.15399 0.63234 0.61802 0.0
C204 C 0.97123 0.71303 0.64356 0.0
O205 O 0.95583 0.68856 0.6576 0.0
O206 O 0.13032 0.7168 0.63157 0.0
O207 O 0.0602 0.70046 0.59743 0.0
O208 O 0.02829 0.67289 0.56645 0.0
C209 C 0.12305 0.74733 0.63238 0.0
O210 O 0.094 0.75704 0.62228 0.0
O211 O 0.12855 0.65897 0.57986 0.0
C212 C 0.95332 0.61698 0.62287 0.0
O213 O 0.96924 0.61483 0.64924 0.0
O214 O 0.9653 0.63512 0.60158 0.0
O215 O 0.0356 0.63842 0.64166 0.0
O216 O 0.09015 0.64869 0.64468 0.0
O217 O 0.9936 0.70668 0.62387 0.0
C218 C 0.0523 0.69301 0.57008 0.0
C219 C 0.06409 0.63381 0.65386 0.0
Zn220 Zn 0.84769 0.09841 0.60629 0.0
Zn221 Zn 0.85281 1.00092 0.61494 0.0
C222 C 0.89313 0.14376 0.57843 0.0
O223 O 0.89648 0.15236 0.60753 0.0
C224 C 0.79165 0.96999 0.6072 0.0
O225 O 0.80959 0.95908 0.58408 0.0
O226 O 0.81321 0.13117 0.61923 0.0
O227 O 0.82686 0.05609 0.59458 0.0
O228 O 0.84929 0.01559 0.57018 0.0
C229 C 0.78219 0.12556 0.6178 0.0
O230 O 0.77132 0.0962 0.60915 0.0
O231 O 0.87398 0.11957 0.57165 0.0
C232 C 0.87413 0.94012 0.64063 0.0
O233 O 0.85426 0.95009 0.66272 0.0
O234 O 0.87797 0.95821 0.61691 0.0
O235 O 0.87617 0.03326 0.64559 0.0
O236 O 0.87721 0.08857 0.64172 0.0
O237 O 0.80515 0.98975 0.62657 0.0
C238 C 0.83436 0.04299 0.56908 0.0
C239 C 0.88549 0.0619 0.65525 0.0
Zn240 Zn 0.91364 0.17066 0.90423 0.0
Zn241 Zn 0.00434 0.16418 0.91066 0.0
C242 C 0.86269 0.13002 0.92581 0.0
O243 O 0.85572 0.13375 0.89641 0.0
C244 C 0.02211 0.22621 0.87466 0.0
O245 O 0.01372 0.2118 0.84855 0.0
O246 O 0.87931 0.20013 0.88697 0.0
O247 O 0.94894 0.20153 0.91966 0.0
O248 O 0.97939 0.17315 0.9512 0.0
C249 C 0.8702 0.22308 0.905 0.0
O250 O 0.88509 0.22648 0.9318 0.0
O251 O 0.88909 0.14348 0.93646 0.0
C252 C 0.06347 0.13745 0.89243 0.0
O253 O 0.05153 0.15172 0.86764 0.0
O254 O 0.04684 0.13899 0.91734 0.0
O255 O 0.98261 0.14024 0.87351 0.0
O256 O 0.92764 0.14129 0.87075 0.0
O257 O 0.01964 0.21039 0.89983 0.0
C258 C 0.95945 0.19689 0.94675 0.0
C259 C 0.9554 0.13189 0.86054 0.0
Zn260 Zn 0.37262 0.90104 0.91849 0.0
Zn261 Zn 0.34703 0.00287 0.9029 0.0
C262 C 0.42977 0.85915 0.92153 0.0
O263 O 0.41878 0.84931 0.89444 0.0
C264 C 0.28708 0.03191 0.87855 0.0
O265 O 0.30594 0.03913 0.85477 0.0
O266 O 0.34671 0.86126 0.90329 0.0
O267 O 0.34674 0.91899 0.95532 0.0
O268 O 0.35134 0.96449 0.93008 0.0
C269 C 0.31582 0.86271 0.89766 0.0
O270 O 0.30055 0.89113 0.90092 0.0
O271 O 0.41597 0.88371 0.93454 0.0
C272 C 0.38555 0.06062 0.89197 0.0
O273 O 0.38031 0.05012 0.86367 0.0
O274 O 0.37432 0.04355 0.91439 0.0
O275 O 0.36514 0.98402 0.86329 0.0
O276 O 0.37599 0.93423 0.88223 0.0
O277 O 0.29924 0.01582 0.90089 0.0
C278 C 0.33865 0.94901 0.95244 0.0
C279 C 0.37772 0.95522 0.86023 0.0
Zn280 Zn 0.57763 0.31928 0.89136 0.0
Zn281 Zn 0.51664 0.34797 0.91377 0.0
C282 C 0.62189 0.37399 0.89751 0.0
O283 O 0.62841 0.36398 0.86931 0.0
C284 C 0.47686 0.29108 0.91741 0.0
O285 O 0.47186 0.306 0.94396 0.0
O286 O 0.61874 0.29507 0.88021 0.0
O287 O 0.55489 0.28955 0.92092 0.0
O288 O 0.54334 0.33104 0.9516 0.0
C289 C 0.63647 0.29172 0.90423 0.0
O290 O 0.62406 0.30001 0.93114 0.0
O291 O 0.5976 0.36065 0.91182 0.0
C292 C 0.45525 0.37613 0.90535 0.0
O293 O 0.46136 0.36115 0.87904 0.0
O294 O 0.47707 0.37547 0.92659 0.0
O295 O 0.53817 0.37489 0.87839 0.0
O296 O 0.55288 0.33023 0.85336 0.0
O297 O 0.49538 0.30527 0.89753 0.0
C298 C 0.55049 0.3005 0.94798 0.0
C299 C 0.5449 0.36046 0.85305 0.0
Zn300 Zn 0.14194 0.60533 0.91404 0.0
Zn301 Zn 0.17024 0.50462 0.90003 0.0
C302 C 0.08161 0.64042 0.91807 0.0
O303 O 0.09034 0.64795 0.88972 0.0
C304 C 0.227 0.46858 0.91816 0.0
O305 O 0.20372 0.45232 0.93311 0.0
O306 O 0.16334 0.64789 0.89982 0.0
O307 O 0.17254 0.58878 0.9473 0.0
O308 O 0.15972 0.54064 0.9289 0.0
C309 C 0.19187 0.64827 0.88743 0.0
O310 O 0.20692 0.62007 0.88221 0.0
O311 O 0.09814 0.61859 0.93237 0.0
C312 C 0.14229 0.44456 0.88147 0.0
O313 O 0.16038 0.45342 0.85763 0.0
O314 O 0.14219 0.46319 0.90523 0.0
O315 O 0.15526 0.52384 0.85944 0.0
O316 O 0.14038 0.5734 0.87691 0.0
O317 O 0.21902 0.49321 0.90157 0.0
C318 C 0.17881 0.5582 0.94553 0.0
C319 C 0.14098 0.55164 0.85544 0.0
H320 H 0.58678 0.06514 0.34972 0.0
H321 H 0.59667 0.10096 0.17117 0.0
H322 H 0.52938 0.14119 0.30519 0.0
H323 H 0.62571 0.00694 0.20907 0.0
H324 H 0.57054 0.11515 0.22007 0.0
H325 H 0.60088 0.04264 0.29897 0.0
C326 C 0.57698 0.07701 0.32931 0.0
C327 C 0.5571 0.10532 0.33172 0.0
C328 C 0.58209 0.09116 0.21767 0.0
C329 C 0.57321 0.07968 0.27367 0.0
C330 C 0.59695 0.08306 0.18976 0.0
C331 C 0.61332 0.05281 0.18628 0.0
C332 C 0.58432 0.0692 0.2426 0.0
C333 C 0.61312 0.03045 0.21094 0.0
C334 C 0.58489 0.06401 0.30037 0.0
C335 C 0.54495 0.11949 0.30448 0.0
N336 N 0.59935 0.03936 0.23839 0.0
N337 N 0.55349 0.10673 0.27662 0.0
H338 H 0.39467 0.57357 0.16097 0.0
H339 H 0.43895 0.57989 0.33746 0.0
H340 H 0.48842 0.61178 0.19433 0.0
H341 H 0.36268 0.51508 0.30112 0.0
H342 H 0.45986 0.58849 0.28528 0.0
H343 H 0.38429 0.54908 0.21146 0.0
C344 C 0.41322 0.57661 0.17888 0.0
C345 C 0.44225 0.59521 0.17357 0.0
C346 C 0.43894 0.57189 0.28868 0.0
C347 C 0.43036 0.56732 0.23157 0.0
C348 C 0.42696 0.56699 0.31847 0.0
C349 C 0.3988 0.54706 0.32352 0.0
C350 C 0.4222 0.55734 0.26362 0.0
C351 C 0.3844 0.53072 0.29819 0.0
C352 C 0.40735 0.56242 0.20766 0.0
C353 C 0.46561 0.59786 0.19749 0.0
N354 N 0.39585 0.53677 0.26919 0.0
N355 N 0.4589 0.58455 0.22564 0.0
H356 H 0.97466 0.37379 0.28113 0.0
H357 H 0.83517 0.46686 0.18527 0.0
H358 H 0.88991 0.42294 0.32035 0.0
H359 H 0.92295 0.42846 0.14177 0.0
H360 H 0.85946 0.45624 0.23554 0.0
H361 H 0.96116 0.39841 0.23073 0.0
C362 C 0.95366 0.39022 0.27928 0.0
C363 C 0.93302 0.39588 0.3048 0.0
C364 C 0.87378 0.45036 0.21515 0.0
C365 C 0.91748 0.42389 0.24759 0.0
C366 C 0.85983 0.45645 0.18642 0.0
C367 C 0.877 0.44827 0.15946 0.0
C368 C 0.90495 0.4352 0.21714 0.0
C369 C 0.90899 0.43512 0.16216 0.0
C370 C 0.94591 0.40416 0.25054 0.0
C371 C 0.90614 0.41736 0.30118 0.0
N372 N 0.92179 0.42841 0.1906 0.0
N373 N 0.89904 0.43025 0.27316 0.0
H374 H 0.08629 0.89895 0.33171 0.0
H375 H 0.10155 0.90997 0.15019 0.0
H376 H 0.1383 0.98005 0.28825 0.0
H377 H 0.02169 0.85782 0.19592 0.0
H378 H 0.11756 0.93473 0.1999 0.0
H379 H 0.0635 0.88269 0.2817 0.0
C380 C 0.09243 0.91365 0.3116 0.0
C381 C 0.1141 0.94086 0.31399 0.0
C382 C 0.09639 0.91806 0.19889 0.0
C383 C 0.08894 0.92186 0.25651 0.0
C384 C 0.08741 0.90372 0.17062 0.0
C385 C 0.06043 0.88152 0.1689 0.0
C386 C 0.07854 0.90975 0.22562 0.0
C387 C 0.04276 0.87463 0.19607 0.0
C388 C 0.07948 0.90435 0.28306 0.0
C389 C 0.12142 0.95905 0.28729 0.0
N390 N 0.05232 0.88842 0.22328 0.0
N391 N 0.1093 0.94887 0.25943 0.0
H392 H 0.38031 0.99173 0.80734 0.0
H393 H 0.4789 0.85662 0.70869 0.0
H394 H 0.41106 0.89813 0.84546 0.0
H395 H 0.42068 0.9352 0.66946 0.0
H396 H 0.46457 0.87688 0.76059 0.0
H397 H 0.40494 0.97621 0.75819 0.0
C398 C 0.39229 0.9679 0.80543 0.0
C399 C 0.39326 0.94603 0.83052 0.0
C400 C 0.45533 0.88984 0.74055 0.0
C401 C 0.4218 0.92821 0.77415 0.0
C402 C 0.46372 0.87849 0.71102 0.0
C403 C 0.45069 0.89413 0.68486 0.0
C404 C 0.43425 0.91721 0.74369 0.0
C405 C 0.43095 0.92222 0.68906 0.0
C406 C 0.4064 0.95908 0.77732 0.0
C407 C 0.40943 0.9156 0.82663 0.0
N408 N 0.42324 0.93276 0.71787 0.0
N409 N 0.42301 0.90751 0.7989 0.0
H410 H 0.53154 0.33747 0.79577 0.0
H411 H 0.62838 0.48203 0.7089 0.0
H412 H 0.56632 0.42466 0.844 0.0
H413 H 0.57538 0.40204 0.6639 0.0
H414 H 0.60305 0.46532 0.75824 0.0
H415 H 0.54427 0.36409 0.74691 0.0
C416 C 0.5415 0.3625 0.79597 0.0
C417 C 0.54799 0.37888 0.82385 0.0
C418 C 0.59668 0.45181 0.73742 0.0
C419 C 0.56349 0.40948 0.76786 0.0
C420 C 0.61107 0.46136 0.70929 0.0
C421 C 0.60448 0.443 0.68237 0.0
C422 C 0.57564 0.42382 0.73838 0.0
C423 C 0.58179 0.41651 0.68414 0.0
C424 C 0.54881 0.37776 0.76805 0.0
C425 C 0.56083 0.41132 0.82287 0.0
N426 N 0.56852 0.4076 0.7116 0.0
N427 N 0.56872 0.42544 0.79526 0.0
H428 H 0.02483 0.63238 0.70522 0.0
H429 H 0.15175 0.52052 0.80022 0.0
H430 H 0.11234 0.58924 0.66528 0.0
H431 H 0.09525 0.59919 0.84186 0.0
H432 H 0.1271 0.53394 0.7502 0.0
H433 H 0.03962 0.6076 0.75517 0.0
C434 C 0.04652 0.61683 0.70679 0.0
C435 C 0.06751 0.61282 0.68133 0.0
C436 C 0.12 0.54808 0.77037 0.0
C437 C 0.08453 0.58482 0.73787 0.0
C438 C 0.13407 0.54052 0.79888 0.0
C439 C 0.12591 0.55912 0.82516 0.0
C440 C 0.0972 0.57404 0.76821 0.0
C441 C 0.10264 0.5846 0.8221 0.0
C442 C 0.05513 0.60306 0.73525 0.0
C443 C 0.09563 0.59292 0.68451 0.0
N444 N 0.08909 0.59135 0.7941 0.0
N445 N 0.10343 0.57977 0.71233 0.0
H446 H 0.93014 0.11041 0.67021 0.0
H447 H 0.91436 0.08062 0.8463 0.0
H448 H 0.88561 0.02063 0.70544 0.0
H449 H 0.99473 0.13943 0.80952 0.0
H450 H 0.90543 0.05615 0.79529 0.0
H451 H 0.95613 0.12012 0.72042 0.0
C452 C 0.92623 0.09248 0.68843 0.0
C453 C 0.90536 0.06488 0.68381 0.0
C454 C 0.92554 0.0738 0.79845 0.0
C455 C 0.93464 0.07613 0.74144 0.0
C456 C 0.93062 0.08777 0.82752 0.0
C457 C 0.95521 0.1121 0.83194 0.0
C458 C 0.94451 0.08503 0.77339 0.0
C459 C 0.97559 0.12063 0.80697 0.0
C460 C 0.94123 0.09795 0.71703 0.0
C461 C 0.90141 0.04228 0.70809 0.0
N462 N 0.96927 0.10767 0.7785 0.0
N463 N 0.91533 0.04878 0.73611 0.0
H464 H 0.41351 0.09338 0.41879 0.0
H465 H 0.24757 0.08196 0.31777 0.0
H466 H 0.40269 0.13869 0.32927 0.0
H467 H 0.26492 0.02143 0.39804 0.0
H468 H 0.30428 0.10353 0.32197 0.0
H469 H 0.35872 0.06743 0.41234 0.0
C470 C 0.39969 0.09781 0.39778 0.0
C471 C 0.41269 0.11832 0.37459 0.0
C472 C 0.29575 0.08533 0.33854 0.0
C473 C 0.35006 0.08884 0.36709 0.0
C474 C 0.26337 0.073 0.33612 0.0
C475 C 0.25143 0.04988 0.35758 0.0
C476 C 0.31625 0.07474 0.36279 0.0
C477 C 0.27306 0.03915 0.38091 0.0
C478 C 0.36846 0.08294 0.39407 0.0
C479 C 0.39369 0.12313 0.3478 0.0
N480 N 0.3043 0.05185 0.38303 0.0
N481 N 0.36333 0.10866 0.34487 0.0
H482 H 0.38787 0.40519 0.32907 0.0
H483 H 0.47398 0.26119 0.42577 0.0
H484 H 0.39471 0.40623 0.42848 0.0
H485 H 0.47501 0.26639 0.3263 0.0
H486 H 0.44594 0.31457 0.42752 0.0
H487 H 0.4201 0.3545 0.32793 0.0
C488 C 0.39613 0.39475 0.35072 0.0
C489 C 0.38845 0.40997 0.37895 0.0
C490 C 0.45245 0.30413 0.40532 0.0
C491 C 0.42556 0.3517 0.37776 0.0
C492 C 0.46845 0.27362 0.40428 0.0
C493 C 0.47663 0.25915 0.3758 0.0
C494 C 0.44438 0.32024 0.37769 0.0
C495 C 0.46912 0.27655 0.34875 0.0
C496 C 0.41467 0.36579 0.35002 0.0
C497 C 0.40001 0.39531 0.4062 0.0
N498 N 0.45321 0.30605 0.35037 0.0
N499 N 0.4179 0.3669 0.40494 0.0
H500 H 0.07621 0.39083 0.42425 0.0
H501 H 0.24138 0.46821 0.3488 0.0
H502 H 0.09149 0.39874 0.326 0.0
H503 H 0.23041 0.44677 0.44577 0.0
H504 H 0.18482 0.44717 0.34004 0.0
H505 H 0.131 0.41583 0.43273 0.0
C506 C 0.09098 0.39797 0.40446 0.0
C507 C 0.07922 0.39253 0.37437 0.0
C508 C 0.19483 0.44715 0.36323 0.0
C509 C 0.14208 0.42118 0.38389 0.0
C510 C 0.22709 0.45921 0.36824 0.0
C511 C 0.24078 0.45913 0.39803 0.0
C512 C 0.17607 0.43513 0.38823 0.0
C513 C 0.22105 0.44716 0.42236 0.0
C514 C 0.12232 0.41218 0.4093 0.0
C515 C 0.09955 0.4023 0.34961 0.0
N516 N 0.18981 0.43568 0.41693 0.0
N517 N 0.12994 0.41608 0.35491 0.0
H518 H 0.08625 0.09282 0.32467 0.0
H519 H 0.0434 0.24483 0.4363 0.0
H520 H 0.11228 0.09678 0.42125 0.0
H521 H 0.01793 0.24277 0.33955 0.0
H522 H 0.06678 0.18967 0.43133 0.0
H523 H 0.05936 0.14657 0.32982 0.0
C524 C 0.08623 0.10491 0.34701 0.0
C525 C 0.10166 0.09023 0.37257 0.0
C526 C 0.05607 0.20119 0.41115 0.0
C527 C 0.07088 0.15191 0.37857 0.0
C528 C 0.0427 0.23278 0.41394 0.0
C529 C 0.02885 0.24861 0.38823 0.0
C530 C 0.05571 0.18512 0.38239 0.0
C531 C 0.02844 0.23155 0.35996 0.0
C532 C 0.07086 0.13565 0.3499 0.0
C533 C 0.10078 0.10712 0.4009 0.0
N534 N 0.0418 0.20076 0.35777 0.0
N535 N 0.08574 0.13705 0.40311 0.0
H536 H 0.90562 0.87493 0.06427 0.0
H537 H 0.75324 0.95935 0.15234 0.0
H538 H 0.90356 0.89034 0.16286 0.0
H539 H 0.74981 0.92673 0.05743 0.0
H540 H 0.81001 0.93837 0.15616 0.0
H541 H 0.85019 0.89867 0.06065 0.0
C542 C 0.8936 0.88346 0.08513 0.0
C543 C 0.9092 0.8805 0.11392 0.0
C544 C 0.79674 0.93579 0.13454 0.0
C545 C 0.84572 0.90764 0.10997 0.0
C546 C 0.76436 0.94772 0.13237 0.0
C547 C 0.74668 0.94463 0.10459 0.0
C548 C 0.81156 0.92092 0.10868 0.0
C549 C 0.76237 0.9295 0.07938 0.0
C550 C 0.8619 0.89691 0.08308 0.0
C551 C 0.8924 0.89198 0.14019 0.0
N552 N 0.79387 0.91829 0.08202 0.0
N553 N 0.86157 0.90501 0.1376 0.0
H554 H 0.55694 0.74808 0.0488 0.0
H555 H 0.58947 0.89878 0.16493 0.0
H556 H 0.52783 0.74604 0.14456 0.0
H557 H 0.60649 0.90472 0.0668 0.0
H558 H 0.56544 0.84355 0.15783 0.0
H559 H 0.57397 0.80584 0.05483 0.0
C560 C 0.55421 0.75977 0.07117 0.0
C561 C 0.54134 0.74206 0.09635 0.0
C562 C 0.57419 0.85701 0.13781 0.0
C563 C 0.56079 0.80841 0.10339 0.0
C564 C 0.58794 0.88858 0.14183 0.0
C565 C 0.60019 0.90638 0.11643 0.0
C566 C 0.57287 0.84293 0.10818 0.0
C567 C 0.5974 0.89192 0.08705 0.0
C568 C 0.56379 0.79285 0.07454 0.0
C569 C 0.53782 0.7587 0.1246 0.0
N570 N 0.58428 0.86094 0.08377 0.0
N571 N 0.54776 0.79088 0.12743 0.0
H572 H 0.5945 0.6062 0.06099 0.0
H573 H 0.75307 0.51347 0.12977 0.0
H574 H 0.60298 0.58051 0.15728 0.0
H575 H 0.75003 0.5603 0.04041 0.0
H576 H 0.69653 0.53321 0.13968 0.0
H577 H 0.64981 0.58419 0.05216 0.0
C578 C 0.60792 0.59577 0.08028 0.0
C579 C 0.59407 0.59532 0.10995 0.0
C580 C 0.70838 0.53917 0.11796 0.0
C581 C 0.65765 0.57005 0.09998 0.0
C582 C 0.74059 0.52793 0.11231 0.0
C583 C 0.75638 0.53539 0.0843 0.0
C584 C 0.69183 0.55763 0.09528 0.0
C585 C 0.73901 0.55411 0.06243 0.0
C586 C 0.6396 0.5833 0.07524 0.0
C587 C 0.61273 0.58149 0.13404 0.0
N588 N 0.70774 0.56445 0.06835 0.0
N589 N 0.64358 0.56939 0.12854 0.0
H590 H 0.95278 0.72539 0.16814 0.0
H591 H 0.90588 0.58048 0.0487 0.0
H592 H 0.97762 0.72957 0.07135 0.0
H593 H 0.8915 0.5746 0.14724 0.0
H594 H 0.93307 0.63469 0.05591 0.0
H595 H 0.93103 0.66938 0.16049 0.0
C596 C 0.95385 0.71447 0.14531 0.0
C597 C 0.96695 0.73227 0.12037 0.0
C598 C 0.92406 0.62136 0.07591 0.0
C599 C 0.94184 0.66812 0.11132 0.0
C600 C 0.90856 0.59047 0.07179 0.0
C601 C 0.89625 0.57304 0.09736 0.0
C602 C 0.92711 0.63482 0.10578 0.0
C603 C 0.90041 0.58714 0.12679 0.0
C604 C 0.94141 0.68245 0.14092 0.0
C605 C 0.96773 0.71677 0.09127 0.0
N606 N 0.91532 0.61716 0.13013 0.0
N607 N 0.95515 0.68566 0.0875 0.0
H608 H 0.74675 0.98358 0.65346 0.0
H609 H 0.59991 0.87902 0.57275 0.0
H610 H 0.75619 0.93236 0.56639 0.0
H611 H 0.59184 0.92278 0.6634 0.0
H612 H 0.65614 0.90178 0.56864 0.0
H613 H 0.68882 0.96461 0.65641 0.0
C614 C 0.73668 0.96842 0.63498 0.0
C615 C 0.75645 0.95942 0.60974 0.0
C616 C 0.64202 0.90651 0.5894 0.0
C617 C 0.69027 0.93777 0.61286 0.0
C618 C 0.60985 0.89357 0.59171 0.0
C619 C 0.59112 0.89886 0.61849 0.0
C620 C 0.65561 0.92493 0.61403 0.0
C621 C 0.60538 0.91793 0.64234 0.0
C622 C 0.70363 0.95759 0.63666 0.0
C623 C 0.74203 0.93979 0.5864 0.0
N624 N 0.63676 0.93018 0.63958 0.0
N625 N 0.70993 0.92964 0.58855 0.0
H626 H 0.64822 0.60964 0.67433 0.0
H627 H 0.51866 0.73442 0.59824 0.0
H628 H 0.59676 0.5889 0.58894 0.0
H629 H 0.5831 0.76049 0.67434 0.0
H630 H 0.54316 0.67923 0.59707 0.0
H631 H 0.62119 0.66334 0.67687 0.0
C632 C 0.63122 0.61636 0.65607 0.0
C633 C 0.6248 0.5947 0.63134 0.0
C634 C 0.55184 0.697 0.61408 0.0
C635 C 0.59356 0.65631 0.63422 0.0
C636 C 0.53776 0.72848 0.61488 0.0
C637 C 0.54891 0.7522 0.6364 0.0
C638 C 0.57713 0.68907 0.63503 0.0
C639 C 0.57378 0.74307 0.65731 0.0
C640 C 0.61579 0.64709 0.65755 0.0
C641 C 0.60252 0.60484 0.60838 0.0
N642 N 0.58707 0.71227 0.65606 0.0
N643 N 0.58765 0.63491 0.6104 0.0
H644 H 0.91946 0.5787 0.66461 0.0
H645 H 0.76049 0.55611 0.55563 0.0
H646 H 0.91273 0.6174 0.57208 0.0
H647 H 0.76477 0.51929 0.64894 0.0
H648 H 0.81754 0.57572 0.56048 0.0
H649 H 0.86431 0.5539 0.65851 0.0
C650 C 0.90649 0.58185 0.64294 0.0
C651 C 0.92074 0.60029 0.61885 0.0
C652 C 0.8061 0.56329 0.57992 0.0
C653 C 0.8575 0.57199 0.61178 0.0
C654 C 0.77344 0.55209 0.57718 0.0
C655 C 0.75769 0.53627 0.60203 0.0
C656 C 0.82329 0.55875 0.60774 0.0
C657 C 0.7759 0.53149 0.62925 0.0
C658 C 0.87496 0.56769 0.6395 0.0
C659 C 0.90273 0.60348 0.59131 0.0
N660 N 0.80771 0.54284 0.63144 0.0
N661 N 0.87204 0.58959 0.58858 0.0
H662 H 0.92218 0.91507 0.60282 0.0
H663 H 0.92251 0.73672 0.68181 0.0
H664 H 0.86442 0.89164 0.68381 0.0
H665 H 0.99404 0.76812 0.61355 0.0
H666 H 0.90079 0.79315 0.68331 0.0
H667 H 0.94839 0.8609 0.60628 0.0
C668 C 0.91506 0.89857 0.62138 0.0
C669 C 0.89098 0.90785 0.64299 0.0
C670 C 0.92143 0.7877 0.66822 0.0
C671 C 0.92082 0.84573 0.64704 0.0
C672 C 0.93386 0.7555 0.66737 0.0
C673 C 0.95997 0.74758 0.64737 0.0
C674 C 0.93504 0.81203 0.64874 0.0
C675 C 0.97375 0.77298 0.62922 0.0
C676 C 0.93012 0.86767 0.62341 0.0
C677 C 0.88285 0.8855 0.66663 0.0
N678 N 0.96093 0.80394 0.63015 0.0
N679 N 0.89758 0.85537 0.66791 0.0
H680 H 0.10374 0.13248 0.84243 0.0
H681 H 0.24364 0.02685 0.92702 0.0
H682 H 0.09656 0.10319 0.93795 0.0
H683 H 0.25261 0.06612 0.83482 0.0
H684 H 0.18832 0.05091 0.9308 0.0
H685 H 0.15681 0.10488 0.8388 0.0
C686 C 0.1133 0.1202 0.86273 0.0
C687 C 0.09565 0.12027 0.89061 0.0
C688 C 0.20237 0.05415 0.90973 0.0
C689 C 0.15681 0.0884 0.88651 0.0
C690 C 0.23391 0.04032 0.90748 0.0
C691 C 0.25284 0.04454 0.88054 0.0
C692 C 0.18965 0.07224 0.88484 0.0
C693 C 0.23899 0.0623 0.85604 0.0
C694 C 0.14372 0.1044 0.8606 0.0
C695 C 0.10939 0.10383 0.91604 0.0
N696 N 0.2083 0.07553 0.85882 0.0
N697 N 0.13924 0.08854 0.9134 0.0
H698 H 0.39081 0.09643 0.94582 0.0
H699 H 0.48249 0.25123 0.86605 0.0
H700 H 0.41715 0.09922 0.84935 0.0
H701 H 0.44238 0.25302 0.95834 0.0
H702 H 0.46239 0.19402 0.86032 0.0
H703 H 0.41414 0.15226 0.95203 0.0
C704 C 0.40174 0.10864 0.92602 0.0
C705 C 0.40187 0.09318 0.89701 0.0
C706 C 0.45796 0.20702 0.88179 0.0
C707 C 0.42845 0.15709 0.90386 0.0
C708 C 0.46936 0.23968 0.88503 0.0
C709 C 0.46396 0.25702 0.91263 0.0
C710 C 0.44126 0.19158 0.90641 0.0
C711 C 0.44698 0.24073 0.93656 0.0
C712 C 0.41491 0.14058 0.92952 0.0
C713 C 0.41631 0.11025 0.87212 0.0
N714 N 0.43631 0.20898 0.93291 0.0
N715 N 0.42894 0.14128 0.8761 0.0
H716 H 0.39694 0.35025 0.88612 0.0
H717 H 0.28472 0.50475 0.9121 0.0
H718 H 0.43842 0.43361 0.93575 0.0
H719 H 0.24749 0.40555 0.92701 0.0
H720 H 0.34174 0.48302 0.91265 0.0
H721 H 0.34168 0.3738 0.89208 0.0
C722 C 0.39433 0.37356 0.89831 0.0
C723 C 0.4221 0.39005 0.91055 0.0
C724 C 0.32097 0.46623 0.91603 0.0
C725 C 0.35919 0.41737 0.91684 0.0
C726 C 0.28858 0.47849 0.91549 0.0
C727 C 0.26149 0.45681 0.91933 0.0
C728 C 0.32593 0.43206 0.91949 0.0
C729 C 0.2677 0.42308 0.92396 0.0
C730 C 0.36286 0.38687 0.90179 0.0
C731 C 0.41745 0.42012 0.92622 0.0
N732 N 0.29924 0.41165 0.92342 0.0
N733 N 0.38647 0.43319 0.92859 0.0
H734 H 0.13217 0.40444 0.83158 0.0
H735 H 0.03162 0.26617 0.92487 0.0
H736 H 0.10723 0.41402 0.928 0.0
H737 H 0.04514 0.2635 0.82611 0.0
H738 H 0.05877 0.32037 0.92649 0.0
H739 H 0.10042 0.35286 0.82927 0.0
C740 C 0.11999 0.39571 0.85232 0.0
C741 C 0.12249 0.41356 0.88009 0.0
C742 C 0.05566 0.30806 0.90443 0.0
C743 C 0.08599 0.3543 0.87754 0.0
C744 C 0.0402 0.27704 0.90346 0.0
C745 C 0.03632 0.26013 0.87529 0.0
C746 C 0.06759 0.32228 0.87707 0.0
C747 C 0.04764 0.27561 0.84831 0.0
C748 C 0.10174 0.36626 0.85092 0.0
C749 C 0.106 0.40106 0.90612 0.0
N750 N 0.063 0.30571 0.84991 0.0
N751 N 0.08857 0.3721 0.90425 0.0
H752 H 0.68528 0.16059 0.34718 0.0
H753 H 0.78133 0.33301 0.3558 0.0
H754 H 0.63633 0.25491 0.35536 0.0
H755 H 0.82941 0.23988 0.33741 0.0
H756 H 0.72752 0.30562 0.34957 0.0
H757 H 0.73741 0.18964 0.33681 0.0
C758 C 0.68534 0.18741 0.34623 0.0
C759 C 0.65645 0.20534 0.35261 0.0
C760 C 0.74982 0.29123 0.34651 0.0
C761 C 0.71622 0.23878 0.3412 0.0
C762 C 0.78059 0.30686 0.35011 0.0
C763 C 0.80994 0.28862 0.3475 0.0
C764 C 0.74833 0.25702 0.34054 0.0
C765 C 0.80744 0.25487 0.33986 0.0
C766 C 0.71517 0.204 0.34037 0.0
C767 C 0.65801 0.24005 0.35085 0.0
N768 N 0.77717 0.24008 0.33704 0.0
N769 N 0.68751 0.25564 0.3458 0.0
H770 H 0.3133 0.68249 0.36048 0.0
H771 H 0.27275 0.85476 0.44246 0.0
H772 H 0.33139 0.70443 0.45663 0.0
H773 H 0.22815 0.8244 0.35611 0.0
H774 H 0.30543 0.80437 0.44242 0.0
H775 H 0.29205 0.73881 0.35369 0.0
C776 C 0.31304 0.69925 0.38005 0.0
C777 C 0.32366 0.68881 0.40924 0.0
C778 C 0.2887 0.80886 0.42334 0.0
C779 C 0.29994 0.75283 0.40158 0.0
C780 C 0.27006 0.83763 0.42331 0.0
C781 C 0.24726 0.84341 0.39953 0.0
C782 C 0.28447 0.78567 0.39947 0.0
C783 C 0.2452 0.82064 0.37507 0.0
C784 C 0.30093 0.73125 0.37616 0.0
C785 C 0.32296 0.71137 0.43383 0.0
N786 N 0.26333 0.79245 0.37583 0.0
N787 N 0.3112 0.74231 0.42945 0.0
H788 H 0.31144 0.69647 0.12231 0.0
H789 H 0.19773 0.81084 0.01574 0.0
H790 H 0.31801 0.70207 0.02305 0.0
H791 H 0.17834 0.79709 0.11282 0.0
H792 H 0.24347 0.77228 0.01932 0.0
H793 H 0.26367 0.7339 0.12062 0.0
C794 C 0.30277 0.70539 0.10021 0.0
C795 C 0.31886 0.69623 0.0728 0.0
C796 C 0.22926 0.77757 0.03991 0.0
C797 C 0.26461 0.73905 0.07073 0.0
C798 C 0.20311 0.79974 0.03789 0.0
C799 C 0.18409 0.80723 0.06401 0.0
C800 C 0.23674 0.76272 0.06832 0.0
C801 C 0.19234 0.79198 0.09208 0.0
C802 C 0.27557 0.72675 0.09927 0.0
C803 C 0.30658 0.70851 0.04481 0.0
N804 N 0.21812 0.77044 0.09352 0.0
N805 N 0.28038 0.72931 0.04455 0.0
H806 H 0.78366 0.31363 0.03375 0.0
H807 H 0.73122 0.17122 0.15039 0.0
H808 H 0.77014 0.33122 0.13128 0.0
H809 H 0.76682 0.15328 0.05792 0.0
H810 H 0.74658 0.22959 0.145 0.0
H811 H 0.77613 0.25457 0.04252 0.0
C812 C 0.77878 0.3051 0.05699 0.0
C813 C 0.7774 0.32733 0.08183 0.0
C814 C 0.75146 0.21274 0.12609 0.0
C815 C 0.76923 0.25973 0.09209 0.0
C816 C 0.74292 0.1794 0.12922 0.0
C817 C 0.7473 0.15755 0.10437 0.0
C818 C 0.7642 0.22411 0.09789 0.0
C819 C 0.76258 0.1694 0.0775 0.0
C820 C 0.77484 0.27132 0.06203 0.0
C821 C 0.77128 0.31487 0.11148 0.0
N822 N 0.77005 0.20203 0.07481 0.0
N823 N 0.76734 0.28179 0.1158 0.0
H824 H 0.17874 0.73961 0.667 0.0
H825 H 0.27673 0.86662 0.56581 0.0
H826 H 0.1294 0.80894 0.60727 0.0
H827 H 0.3186 0.82478 0.64857 0.0
H828 H 0.22178 0.84817 0.58248 0.0
H829 H 0.22923 0.77326 0.66387 0.0
C830 C 0.17836 0.76241 0.65386 0.0
C831 C 0.15011 0.77141 0.63709 0.0
C832 C 0.24292 0.84346 0.59722 0.0
C833 C 0.20778 0.80944 0.63276 0.0
C834 C 0.27429 0.8537 0.58758 0.0
C835 C 0.30221 0.84668 0.60562 0.0
C836 C 0.23961 0.82557 0.62479 0.0
C837 C 0.29768 0.8304 0.63386 0.0
C838 C 0.20714 0.78158 0.65205 0.0
C839 C 0.15073 0.80115 0.6205 0.0
N840 N 0.26698 0.81988 0.64237 0.0
N841 N 0.17945 0.81878 0.61816 0.0
H842 H 0.719 0.12982 0.59535 0.0
H843 H 0.6996 0.32069 0.64084 0.0
H844 H 0.79315 0.185 0.64642 0.0
H845 H 0.65083 0.27509 0.56262 0.0
H846 H 0.72523 0.26743 0.65289 0.0
H847 H 0.68466 0.17949 0.59354 0.0
C848 C 0.72776 0.15218 0.60671 0.0
C849 C 0.75908 0.15346 0.6208 0.0
C850 C 0.70867 0.26911 0.63327 0.0
C851 C 0.72006 0.21013 0.61876 0.0
C852 C 0.69401 0.2994 0.62642 0.0
C853 C 0.67343 0.30232 0.60047 0.0
C854 C 0.70226 0.24155 0.61428 0.0
C855 C 0.66693 0.27398 0.58259 0.0
C856 C 0.70826 0.18052 0.60549 0.0
C857 C 0.76928 0.18311 0.63504 0.0
N858 N 0.68138 0.24475 0.58978 0.0
N859 N 0.74988 0.21038 0.63352 0.0
H860 H 0.82772 0.21526 0.85612 0.0
H861 H 0.68304 0.30035 0.94868 0.0
H862 H 0.84221 0.27114 0.94029 0.0
H863 H 0.67069 0.26779 0.8543 0.0
H864 H 0.74209 0.29062 0.94471 0.0
H865 H 0.77136 0.23669 0.85263 0.0
C866 C 0.81928 0.23253 0.87353 0.0
C867 C 0.83933 0.24091 0.89892 0.0
C868 C 0.72659 0.28572 0.92476 0.0
C869 C 0.7751 0.26504 0.89522 0.0
C870 C 0.69276 0.29092 0.92711 0.0
C871 C 0.67194 0.28443 0.90186 0.0
C872 C 0.73973 0.27351 0.89709 0.0
C873 C 0.68596 0.2728 0.87436 0.0
C874 C 0.78712 0.24468 0.87154 0.0
C875 C 0.82735 0.26357 0.92064 0.0
N876 N 0.71912 0.26737 0.87276 0.0
N877 N 0.79578 0.27445 0.91854 0.0
H878 H 0.2485 0.85523 0.89136 0.0
H879 H 0.25673 0.65827 0.87083 0.0
H880 H 0.33989 0.80046 0.88694 0.0
H881 H 0.16705 0.71099 0.89281 0.0
H882 H 0.28659 0.71115 0.86812 0.0
H883 H 0.21752 0.80355 0.88348 0.0
C884 C 0.26209 0.83241 0.88847 0.0
C885 C 0.29686 0.83215 0.89014 0.0
C886 C 0.26032 0.71115 0.8733 0.0
C887 C 0.26151 0.77291 0.88113 0.0
C888 C 0.24321 0.68097 0.87475 0.0
C889 C 0.20939 0.68016 0.88236 0.0
C890 C 0.24347 0.74077 0.87938 0.0
C891 C 0.19318 0.7104 0.88714 0.0
C892 C 0.24436 0.8029 0.88404 0.0
C893 C 0.3131 0.80181 0.88609 0.0
N894 N 0.21041 0.73944 0.88574 0.0
N895 N 0.29528 0.7734 0.88194 0.0
H896 H 0.66727 0.12289 0.48106 0.0
H897 H 0.81752 0.00538 0.51827 0.0
H898 H 0.70017 0.05128 0.41383 0.0
H899 H 0.80807 0.10343 0.55692 0.0
H900 H 0.77432 0.01877 0.48044 0.0
H901 H 0.71649 0.11174 0.51194 0.0
C902 C 0.68468 0.10456 0.47291 0.0
C903 C 0.67954 0.08794 0.44482 0.0
C904 C 0.78218 0.03748 0.49691 0.0
C905 C 0.73618 0.07523 0.48005 0.0
C906 C 0.80704 0.02999 0.51831 0.0
C907 C 0.81596 0.05316 0.54117 0.0
C908 C 0.76605 0.06812 0.49876 0.0
C909 C 0.8014 0.08458 0.54021 0.0
C910 C 0.71298 0.09848 0.4904 0.0
C911 C 0.70318 0.06464 0.43535 0.0
N912 N 0.77675 0.09092 0.5198 0.0
N913 N 0.73044 0.05878 0.45305 0.0
H914 H 0.49359 0.79806 0.5235 0.0
H915 H 0.39246 0.6284 0.49594 0.0
H916 H 0.40959 0.76548 0.57739 0.0
H917 H 0.46357 0.66759 0.43092 0.0
H918 H 0.40735 0.67289 0.53183 0.0
H919 H 0.49124 0.74527 0.49488 0.0
C920 C 0.47501 0.77968 0.52959 0.0
C921 C 0.45142 0.78641 0.55249 0.0
C922 C 0.42006 0.6715 0.50988 0.0
C923 C 0.44868 0.72614 0.52016 0.0
C924 C 0.41171 0.6459 0.48944 0.0
C925 C 0.42652 0.64438 0.4602 0.0
C926 C 0.44338 0.69583 0.50109 0.0
C927 C 0.45127 0.66794 0.4531 0.0
C928 C 0.47359 0.74964 0.51323 0.0
C929 C 0.42793 0.76164 0.55954 0.0
N930 N 0.45865 0.69289 0.47322 0.0
N931 N 0.42704 0.73283 0.54336 0.0
H932 H 0.79725 0.4482 0.40066 0.0
H933 H 0.74674 0.43621 0.57718 0.0
H934 H 0.85858 0.40529 0.4715 0.0
H935 H 0.6857 0.48355 0.50891 0.0
H936 H 0.79227 0.43436 0.54029 0.0
H937 H 0.76068 0.4701 0.44064 0.0
C938 C 0.80338 0.44383 0.42463 0.0
C939 C 0.8308 0.42437 0.43267 0.0
C940 C 0.76919 0.44567 0.53336 0.0
C941 C 0.78883 0.44929 0.47859 0.0
C942 C 0.74322 0.44681 0.55447 0.0
C943 C 0.71241 0.45969 0.54587 0.0
C944 C 0.76414 0.45682 0.50308 0.0
C945 C 0.70913 0.47335 0.51634 0.0
C946 C 0.78243 0.45636 0.44746 0.0
C947 C 0.83756 0.41979 0.46413 0.0
N948 N 0.73451 0.47094 0.49571 0.0
N949 N 0.8165 0.43175 0.48586 0.0
H950 H 0.11114 0.7266 0.56911 0.0
H951 H 0.07978 0.81709 0.40818 0.0
H952 H 0.02524 0.70546 0.51283 0.0
H953 H 0.14572 0.85505 0.47862 0.0
H954 H 0.06288 0.77241 0.44304 0.0
H955 H 0.12875 0.76861 0.53221 0.0
C956 C 0.09608 0.7306 0.54882 0.0
C957 C 0.06635 0.71285 0.54439 0.0
C958 C 0.08089 0.79062 0.45091 0.0
C959 C 0.0865 0.76105 0.50176 0.0
C960 C 0.09051 0.81621 0.43108 0.0
C961 C 0.11415 0.83997 0.44052 0.0
C962 C 0.09537 0.78841 0.48028 0.0
C963 C 0.12725 0.83749 0.47043 0.0
C964 C 0.10614 0.7547 0.52777 0.0
C965 C 0.04833 0.71856 0.5172 0.0
N966 N 0.11787 0.81204 0.48913 0.0
N967 N 0.05856 0.74237 0.49699 0.0
H968 H 0.27711 0.9613 0.92992 0.0
H969 H 0.2005 0.94864 0.09838 0.0
H970 H 0.33438 0.96114 0.01381 0.0
H971 H 0.14335 0.93733 0.01468 0.0
H972 H 0.24728 0.96886 0.0679 0.0
H973 H 0.22636 0.96765 0.96042 0.0
C974 C 0.27903 0.964 0.95473 0.0
C975 C 0.3098 0.96125 0.9695 0.0
C976 C 0.22432 0.96252 0.05622 0.0
C977 C 0.25207 0.96729 0.00456 0.0
C978 C 0.19751 0.95107 0.07366 0.0
C979 C 0.16817 0.94057 0.05905 0.0
C980 C 0.22191 0.96319 0.02389 0.0
C981 C 0.16564 0.94472 0.02694 0.0
C982 C 0.25008 0.9672 0.97216 0.0
C983 C 0.31102 0.96349 0.00169 0.0
N984 N 0.1924 0.95508 0.01037 0.0
N985 N 0.28253 0.96609 0.01819 0.0
H986 H 0.61819 0.12348 0.03463 0.0
H987 H 0.572 0.31362 0.00759 0.0
H988 H 0.62666 0.1973 0.10651 0.0
H989 H 0.54308 0.23397 0.9464 0.0
H990 H 0.59129 0.27217 0.04507 0.0
H991 H 0.59091 0.1644 0.00187 0.0
C992 C 0.61421 0.14822 0.04356 0.0
C993 C 0.62474 0.15689 0.07336 0.0
C994 C 0.5803 0.26386 0.02357 0.0
C995 C 0.59368 0.20405 0.03594 0.0
C996 C 0.56906 0.28751 0.00235 0.0
C997 C 0.55625 0.27724 0.97376 0.0
C998 C 0.57877 0.22989 0.01593 0.0
C999 C 0.55327 0.24304 0.968 0.0
C1000 C 0.59854 0.1716 0.02491 0.0
C1001 C 0.6189 0.18942 0.08371 0.0
N1002 N 0.56476 0.22072 0.98864 0.0
N1003 N 0.60401 0.21185 0.06499 0.0
H1004 H 0.19536 0.51019 0.98708 0.0
H1005 H 0.37555 0.59038 0.00255 0.0
H1006 H 0.23746 0.58275 0.92553 0.0
H1007 H 0.32701 0.53476 0.07473 0.0
H1008 H 0.33269 0.57183 0.96645 0.0
H1009 H 0.25023 0.50362 0.01121 0.0
C1010 C 0.21641 0.52393 0.97809 0.0
C1011 C 0.21208 0.5473 0.95465 0.0
C1012 C 0.33177 0.56315 0.99006 0.0
C1013 C 0.2743 0.54037 0.98206 0.0
C1014 C 0.35633 0.57366 0.01069 0.0
C1015 C 0.35439 0.56485 0.04194 0.0
C1016 C 0.30496 0.54391 0.00078 0.0
C1017 C 0.32911 0.54276 0.05099 0.0
C1018 C 0.2476 0.52035 0.99189 0.0
C1019 C 0.23989 0.56472 0.9438 0.0
N1020 N 0.30499 0.53359 0.03067 0.0
N1021 N 0.26972 0.56123 0.95784 0.0
H1022 H 0.8959 0.31701 0.10144 0.0
H1023 H 0.9583 0.26243 0.93398 0.0
H1024 H 0.8921 0.37921 0.02071 0.0
H1025 H 0.95138 0.19428 0.01017 0.0
H1026 H 0.94258 0.30755 0.96808 0.0
H1027 H 0.92383 0.27444 0.07105 0.0
C1028 C 0.90133 0.32198 0.07742 0.0
C1029 C 0.89142 0.35183 0.06361 0.0
C1030 C 0.94476 0.28287 0.97757 0.0
C1031 C 0.92341 0.30287 0.02864 0.0
C1032 C 0.95384 0.25702 0.9581 0.0
C1033 C 0.95582 0.22442 0.9692 0.0
C1034 C 0.93731 0.27632 0.00856 0.0
C1035 C 0.95016 0.21903 0.00071 0.0
C1036 C 0.91721 0.29752 0.06008 0.0
C1037 C 0.89915 0.35666 0.03238 0.0
N1038 N 0.94073 0.24469 0.01927 0.0
N1039 N 0.91447 0.33241 0.01597 0.0
H1040 H 0.38135 0.93454 0.5159 0.0
H1041 H 0.19091 0.98196 0.49203 0.0
H1042 H 0.31663 0.9594 0.59159 0.0
H1043 H 0.25974 0.95959 0.41886 0.0
H1044 H 0.23757 0.98159 0.5289 0.0
H1045 H 0.3385 0.95201 0.47986 0.0
C1046 C 0.35836 0.94424 0.52496 0.0
C1047 C 0.35255 0.9452 0.55681 0.0
C1048 C 0.24238 0.97725 0.50466 0.0
C1049 C 0.30281 0.96459 0.51561 0.0
C1050 C 0.2158 0.97758 0.48368 0.0
C1051 C 0.22134 0.97036 0.45245 0.0
C1052 C 0.27455 0.96983 0.49413 0.0
C1053 C 0.2541 0.96476 0.4428 0.0
C1054 C 0.33374 0.9541 0.50437 0.0
C1055 C 0.32221 0.95811 0.5672 0.0
N1056 N 0.27925 0.96437 0.46351 0.0
N1057 N 0.29826 0.96679 0.54667 0.0
H1058 H 0.58474 0.37528 0.51268 0.0
H1059 H 0.5129 0.19115 0.49491 0.0
H1060 H 0.54001 0.32059 0.58755 0.0
H1061 H 0.57512 0.24113 0.42854 0.0
H1062 H 0.50931 0.24318 0.52446 0.0
H1063 H 0.56704 0.3317 0.47703 0.0
C1064 C 0.57057 0.35447 0.52156 0.0
C1065 C 0.56449 0.35129 0.55328 0.0
C1066 C 0.52328 0.24279 0.50315 0.0
C1067 C 0.54461 0.30097 0.51261 0.0
C1068 C 0.52526 0.21319 0.48631 0.0
C1069 C 0.54494 0.21174 0.45971 0.0
C1070 C 0.54079 0.27102 0.49296 0.0
C1071 C 0.56032 0.24099 0.44936 0.0
C1072 C 0.5606 0.32948 0.50119 0.0
C1073 C 0.5457 0.32387 0.56334 0.0
N1074 N 0.55816 0.26928 0.46612 0.0
N1075 N 0.53695 0.29945 0.54316 0.0
H1076 H 0.3038 0.52451 0.4954 0.0
H1077 H 0.15707 0.65297 0.52705 0.0
H1078 H 0.27694 0.60417 0.4342 0.0
H1079 H 0.1971 0.59063 0.59854 0.0
H1080 H 0.19768 0.63062 0.49105 0.0
H1081 H 0.26223 0.54444 0.53248 0.0
C1082 C 0.28937 0.5462 0.48983 0.0
C1083 C 0.29399 0.5627 0.46166 0.0
C1084 C 0.19758 0.62177 0.51461 0.0
C1085 C 0.24631 0.58526 0.50359 0.0
C1086 C 0.17427 0.63444 0.53515 0.0
C1087 C 0.17376 0.62379 0.5659 0.0
C1088 C 0.22051 0.5981 0.52477 0.0
C1089 C 0.19671 0.59968 0.57506 0.0
C1090 C 0.26566 0.55752 0.51093 0.0
C1091 C 0.27448 0.59064 0.4556 0.0
N1092 N 0.21919 0.58764 0.55459 0.0
N1093 N 0.25152 0.60088 0.47626 0.0
H1094 H 0.93356 0.19827 0.58526 0.0
H1095 H 0.91602 0.24899 0.40869 0.0
H1096 H 0.88694 0.13689 0.51566 0.0
H1097 H 0.96602 0.31042 0.47601 0.0
H1098 H 0.91296 0.20426 0.4462 0.0
H1099 H 0.95256 0.23609 0.54488 0.0
C1100 C 0.92763 0.1925 0.56145 0.0
C1101 C 0.90824 0.16451 0.5539 0.0
C1102 C 0.925 0.22729 0.4528 0.0
C1103 C 0.9299 0.20787 0.50753 0.0
C1104 C 0.92681 0.25285 0.43134 0.0
C1105 C 0.94086 0.28358 0.43944 0.0
C1106 C 0.93688 0.23256 0.48288 0.0
C1107 C 0.95484 0.28713 0.46892 0.0
C1108 C 0.93853 0.21414 0.5384 0.0
C1109 C 0.90157 0.15825 0.52263 0.0
N1110 N 0.95197 0.26209 0.48983 0.0
N1111 N 0.91208 0.17993 0.50069 0.0
H1112 H 0.80083 0.10685 0.91078 0.0
H1113 H 0.76445 0.03412 0.0787 0.0
H1114 H 0.87012 0.11217 0.98666 0.0
H1115 H 0.68702 0.04948 0.01164 0.0
H1116 H 0.80525 0.05435 0.04182 0.0
H1117 H 0.76087 0.07886 0.94433 0.0
C1118 C 0.80778 0.10198 0.93446 0.0
C1119 C 0.83896 0.11197 0.94593 0.0
C1120 C 0.77943 0.05311 0.03497 0.0
C1121 C 0.79318 0.0797 0.9844 0.0
C1122 C 0.75608 0.04141 0.05596 0.0
C1123 C 0.72222 0.04052 0.04831 0.0
C1124 C 0.76904 0.06399 0.00588 0.0
C1125 C 0.71287 0.04981 0.01843 0.0
C1126 C 0.78485 0.08603 0.95359 0.0
C1127 C 0.84642 0.10501 0.97683 0.0
N1128 N 0.73618 0.06152 0.99831 0.0
N1129 N 0.8237 0.08931 0.99496 0.0
H1130 H 0.45809 0.80046 0.90395 0.0
H1131 H 0.45529 0.73982 0.07507 0.0
H1132 H 0.44834 0.8662 0.98207 0.0
H1133 H 0.48816 0.67742 0.00053 0.0
H1134 H 0.46227 0.78822 0.0422 0.0
H1135 H 0.4789 0.75758 0.93843 0.0
C1136 C 0.46107 0.8062 0.92822 0.0
C1137 C 0.45061 0.83673 0.94022 0.0
C1138 C 0.46856 0.76411 0.03302 0.0
C1139 C 0.47398 0.78756 0.97987 0.0
C1140 C 0.46447 0.73647 0.0518 0.0
C1141 C 0.47065 0.70467 0.04022 0.0
C1142 C 0.47782 0.75985 0.00205 0.0
C1143 C 0.48297 0.7016 0.01015 0.0
C1144 C 0.47295 0.78164 0.94793 0.0
C1145 C 0.45547 0.84285 0.97182 0.0
N1146 N 0.48538 0.72883 0.99176 0.0
N1147 N 0.4661 0.81825 0.99061 0.0
H1148 H 0.80906 0.43699 0.97408 0.0
H1149 H 0.61574 0.40388 0.95418 0.0
H1150 H 0.73509 0.47326 0.03712 0.0
H1151 H 0.68468 0.39095 0.87911 0.0
H1152 H 0.65939 0.43213 0.98364 0.0
H1153 H 0.76464 0.42361 0.93683 0.0
C1154 C 0.78365 0.44311 0.97963 0.0
C1155 C 0.77563 0.45599 0.00871 0.0
C1156 C 0.66488 0.42354 0.96054 0.0
C1157 C 0.72487 0.44007 0.96692 0.0
C1158 C 0.63991 0.40739 0.94373 0.0
C1159 C 0.6465 0.39497 0.91416 0.0
C1160 C 0.69692 0.42683 0.94795 0.0
C1161 C 0.6784 0.40017 0.90181 0.0
C1162 C 0.75827 0.43519 0.95856 0.0
C1163 C 0.74226 0.46299 0.01502 0.0
N1164 N 0.70253 0.41527 0.9189 0.0
N1165 N 0.71814 0.45451 0.99457 0.0
H1166 H 0.03567 0.83018 0.98225 0.0
H1167 H 0.06413 0.63746 0.97927 0.0
H1168 H 0.03628 0.7694 0.06364 0.0
H1169 H 0.0512 0.6965 0.89731 0.0
H1170 H 0.04218 0.68293 0.01013 0.0
H1171 H 0.03014 0.78017 0.95048 0.0
C1172 C 0.03334 0.8063 0.99342 0.0
C1173 C 0.03549 0.80381 0.02555 0.0
C1174 C 0.04349 0.68572 0.98532 0.0
C1175 C 0.03064 0.74643 0.98955 0.0
C1176 C 0.05595 0.65967 0.96764 0.0
C1177 C 0.06032 0.66345 0.9357 0.0
C1178 C 0.03571 0.71588 0.971 0.0
C1179 C 0.0489 0.69267 0.92192 0.0
C1180 C 0.03036 0.77773 0.97535 0.0
C1181 C 0.03331 0.77236 0.03902 0.0
N1182 N 0.03781 0.71801 0.93971 0.0
N1183 N 0.03156 0.74483 0.02094 0.0
loop_
_geom_bond_atom_site_label_1
_geom_bond_atom_site_label_2
_geom_bond_distance
_geom_bond_site_symmetry_2
_ccdc_geom_bond_type
Zn0 O6 1.969 . S
Zn0 O7 1.965 . S
Zn0 O11 2.024 . S
Zn0 O16 1.969 . S
Zn1 O8 1.969 . S
Zn1 O14 1.969 . S
Zn1 O15 1.965 . S
Zn1 O17 2.024 . S
C2 O3 1.229 . S
C2 O11 1.058 . S
O3 C2 1.229 . S
C4 O5 1.229 . S
C4 O17 1.058 . S
O5 C4 1.229 . S
O6 Zn0 1.969 . S
O6 C9 1.267 . S
O7 Zn0 1.965 . S
O7 C18 1.260 . S
O8 Zn1 1.969 . S
O8 C18 1.258 . S
C9 O6 1.267 . S
C9 O10 1.228 . S
O10 C9 1.228 . S
O11 Zn0 2.024 . S
O11 C2 1.058 . S
C12 O13 1.228 . S
C12 O14 1.267 . S
O13 C12 1.228 . S
O14 Zn1 1.969 . S
O14 C12 1.267 . S
O15 Zn1 1.965 . S
O15 C19 1.260 . S
O16 Zn0 1.969 . S
O16 C19 1.258 . S
O17 Zn1 2.024 . S
O17 C4 1.058 . S
C18 O7 1.260 . S
C18 O8 1.258 . S
C19 O15 1.260 . S
C19 O16 1.258 . S
Zn20 O26 1.969 . S
Zn20 O27 1.965 . S
Zn20 O31 2.024 . S
Zn20 O36 1.969 . S
Zn21 O28 1.969 . S
Zn21 O34 1.969 . S
Zn21 O35 1.965 . S
Zn21 O37 2.024 . S
C22 O23 1.229 . S
C22 O31 1.058 . S
O23 C22 1.229 . S
C24 O25 1.229 . S
C24 O37 1.058 . S
O25 C24 1.229 . S
O26 Zn20 1.969 . S
O26 C29 1.267 . S
O27 Zn20 1.965 . S
O27 C38 1.260 . S
O28 Zn21 1.969 . S
O28 C38 1.258 . S
C29 O26 1.267 . S
C29 O30 1.228 . S
O30 C29 1.228 . S
O31 Zn20 2.024 . S
O31 C22 1.058 . S
C32 O33 1.228 . S
C32 O34 1.267 . S
O33 C32 1.228 . S
O34 Zn21 1.969 . S
O34 C32 1.267 . S
O35 Zn21 1.965 . S
O35 C39 1.260 . S
O36 Zn20 1.969 . S
O36 C39 1.258 . S
O37 Zn21 2.024 . S
O37 C24 1.058 . S
C38 O27 1.260 . S
C38 O28 1.258 . S
C39 O35 1.260 . S
C39 O36 1.258 . S
Zn40 O46 1.969 1_655 S
Zn40 O47 1.965 . S
Zn40 O51 2.021 1_655 S
Zn40 O56 1.969 . S
Zn41 O48 1.969 . S
Zn41 O54 1.969 . S
Zn41 O55 1.965 . S
Zn41 O57 2.024 . S
C42 O43 1.229 . S
C42 O51 1.086 . S
O43 C42 1.229 . S
C44 O45 1.229 . S
C44 O57 1.058 . S
O45 C44 1.229 . S
O46 Zn40 1.969 1_455 S
O46 C49 1.267 . S
O47 Zn40 1.965 . S
O47 C58 1.260 . S
O48 Zn41 1.969 . S
O48 C58 1.258 . S
C49 O46 1.267 . S
C49 O50 1.228 . S
O50 C49 1.228 . S
O51 Zn40 2.021 1_455 S
O51 C42 1.086 . S
C52 O53 1.228 . S
C52 O54 1.267 . S
O53 C52 1.228 . S
O54 Zn41 1.969 . S
O54 C52 1.267 . S
O55 Zn41 1.965 . S
O55 C59 1.260 . S
O56 Zn40 1.969 . S
O56 C59 1.258 . S
O57 Zn41 2.024 . S
O57 C44 1.058 . S
C58 O47 1.260 . S
C58 O48 1.258 . S
C59 O55 1.260 . S
C59 O56 1.258 . S
Zn60 O66 1.969 1_565 S
Zn60 O67 1.965 . S
Zn60 O71 2.021 1_565 S
Zn60 O76 1.969 . S
Zn61 O68 1.969 . S
Zn61 O74 1.969 . S
Zn61 O75 1.965 . S
Zn61 O77 2.024 . S
C62 O63 1.229 . S
C62 O71 1.086 . S
O63 C62 1.229 . S
C64 O65 1.229 . S
C64 O77 1.058 . S
O65 C64 1.229 . S
O66 Zn60 1.969 1_545 S
O66 C69 1.267 . S
O67 Zn60 1.965 . S
O67 C78 1.260 . S
O68 Zn61 1.969 . S
O68 C78 1.258 . S
C69 O66 1.267 . S
C69 O70 1.228 . S
O70 C69 1.228 . S
O71 Zn60 2.021 1_545 S
O71 C62 1.086 . S
C72 O73 1.228 . S
C72 O74 1.267 . S
O73 C72 1.228 . S
O74 Zn61 1.969 . S
O74 C72 1.267 . S
O75 Zn61 1.965 . S
O75 C79 1.260 . S
O76 Zn60 1.969 . S
O76 C79 1.258 . S
O77 Zn61 2.024 . S
O77 C64 1.058 . S
C78 O67 1.260 . S
C78 O68 1.258 . S
C79 O75 1.260 . S
C79 O76 1.258 . S
Zn80 O86 1.969 1_455 S
Zn80 O87 1.965 . S
Zn80 O91 2.021 1_455 S
Zn80 O96 1.969 . S
Zn81 O88 1.969 . S
Zn81 O94 1.969 . S
Zn81 O95 1.965 . S
Zn81 O97 2.024 . S
C82 O83 1.229 . S
C82 O91 1.086 . S
O83 C82 1.229 . S
C84 O85 1.229 . S
C84 O97 1.058 . S
O85 C84 1.229 . S
O86 Zn80 1.969 1_655 S
O86 C89 1.267 . S
O87 Zn80 1.965 . S
O87 C98 1.260 . S
O88 Zn81 1.969 . S
O88 C98 1.258 . S
C89 O86 1.267 . S
C89 O90 1.228 . S
O90 C89 1.228 . S
O91 Zn80 2.021 1_655 S
O91 C82 1.086 . S
C92 O93 1.228 . S
C92 O94 1.267 . S
O93 C92 1.228 . S
O94 Zn81 1.969 . S
O94 C92 1.267 . S
O95 Zn81 1.965 . S
O95 C99 1.260 . S
O96 Zn80 1.969 . S
O96 C99 1.258 . S
O97 Zn81 2.024 . S
O97 C84 1.058 . S
C98 O87 1.260 . S
C98 O88 1.258 . S
C99 O95 1.260 . S
C99 O96 1.258 . S
Zn100 O106 1.969 1_545 S
Zn100 O107 1.965 . S
Zn100 O111 2.021 1_545 S
Zn100 O116 1.969 . S
Zn101 O108 1.969 . S
Zn101 O114 1.969 . S
Zn101 O115 1.965 . S
Zn101 O117 2.024 . S
C102 O103 1.229 . S
C102 O111 1.086 . S
O103 C102 1.229 . S
C104 O105 1.229 . S
C104 O117 1.058 . S
O105 C104 1.229 . S
O106 Zn100 1.969 1_565 S
O106 C109 1.267 . S
O107 Zn100 1.965 . S
O107 C118 1.260 . S
O108 Zn101 1.969 . S
O108 C118 1.258 . S
C109 O106 1.267 . S
C109 O110 1.228 . S
O110 C109 1.228 . S
O111 Zn100 2.021 1_565 S
O111 C102 1.086 . S
C112 O113 1.228 . S
C112 O114 1.267 . S
O113 C112 1.228 . S
O114 Zn101 1.969 . S
O114 C112 1.267 . S
O115 Zn101 1.965 . S
O115 C119 1.260 . S
O116 Zn100 1.969 . S
O116 C119 1.258 . S
O117 Zn101 2.024 . S
O117 C104 1.058 . S
C118 O107 1.260 . S
C118 O108 1.258 . S
C119 O115 1.260 . S
C119 O116 1.258 . S
Zn120 O126 1.969 . S
Zn120 O127 1.965 . S
Zn120 O131 2.024 . S
Zn120 O136 1.969 . S
Zn121 O128 1.969 . S
Zn121 O134 1.969 . S
Zn121 O135 1.965 . S
Zn121 O137 2.024 . S
C122 O123 1.229 . S
C122 O131 1.058 . S
O123 C122 1.229 . S
C124 O125 1.229 . S
C124 O137 1.058 . S
O125 C124 1.229 . S
O126 Zn120 1.969 . S
O126 C129 1.267 . S
O127 Zn120 1.965 . S
O127 C138 1.260 . S
O128 Zn121 1.969 . S
O128 C138 1.258 . S
C129 O126 1.267 . S
C129 O130 1.228 . S
O130 C129 1.228 . S
O131 Zn120 2.024 . S
O131 C122 1.058 . S
C132 O133 1.228 . S
C132 O134 1.267 . S
O133 C132 1.228 . S
O134 Zn121 1.969 . S
O134 C132 1.267 . S
O135 Zn121 1.965 . S
O135 C139 1.260 . S
O136 Zn120 1.969 . S
O136 C139 1.258 . S
O137 Zn121 2.024 . S
O137 C124 1.058 . S
C138 O127 1.260 . S
C138 O128 1.258 . S
C139 O135 1.260 . S
C139 O136 1.258 . S
Zn140 O146 1.969 . S
Zn140 O147 1.965 . S
Zn140 O151 2.024 . S
Zn140 O156 1.969 . S
Zn141 O148 1.969 . S
Zn141 O154 1.969 . S
Zn141 O155 1.965 . S
Zn141 O157 2.024 . S
C142 O143 1.229 . S
C142 O151 1.058 . S
O143 C142 1.229 . S
C144 O145 1.229 . S
C144 O157 1.058 . S
O145 C144 1.229 . S
O146 Zn140 1.969 . S
O146 C149 1.267 . S
O147 Zn140 1.965 . S
O147 C158 1.260 . S
O148 Zn141 1.969 . S
O148 C158 1.258 . S
C149 O146 1.267 . S
C149 O150 1.228 . S
O150 C149 1.228 . S
O151 Zn140 2.024 . S
O151 C142 1.058 . S
C152 O153 1.228 . S
C152 O154 1.267 . S
O153 C152 1.228 . S
O154 Zn141 1.969 . S
O154 C152 1.267 . S
O155 Zn141 1.965 . S
O155 C159 1.260 . S
O156 Zn140 1.969 . S
O156 C159 1.258 . S
O157 Zn141 2.024 . S
O157 C144 1.058 . S
C158 O147 1.260 . S
C158 O148 1.258 . S
C159 O155 1.260 . S
C159 O156 1.258 . S
Zn160 O166 1.969 . S
Zn160 O167 1.965 . S
Zn160 O171 2.024 . S
Zn160 O176 1.969 . S
Zn161 O168 1.969 . S
Zn161 O174 1.969 . S
Zn161 O175 1.965 . S
Zn161 O177 2.024 . S
C162 O163 1.229 . S
C162 O171 1.058 . S
O163 C162 1.229 . S
C164 O165 1.229 . S
C164 O177 1.058 . S
O165 C164 1.229 . S
O166 Zn160 1.969 . S
O166 C169 1.267 . S
O167 Zn160 1.965 . S
O167 C178 1.260 . S
O168 Zn161 1.969 . S
O168 C178 1.258 . S
C169 O166 1.267 . S
C169 O170 1.228 . S
O170 C169 1.228 . S
O171 Zn160 2.024 . S
O171 C162 1.058 . S
C172 O173 1.228 . S
C172 O174 1.267 . S
O173 C172 1.228 . S
O174 Zn161 1.969 . S
O174 C172 1.267 . S
O175 Zn161 1.965 . S
O175 C179 1.260 . S
O176 Zn160 1.969 . S
O176 C179 1.258 . S
O177 Zn161 2.024 . S
O177 C164 1.058 . S
C178 O167 1.260 . S
C178 O168 1.258 . S
C179 O175 1.260 . S
C179 O176 1.258 . S
Zn180 O186 1.969 . S
Zn180 O187 1.965 . S
Zn180 O191 2.024 . S
Zn180 O196 1.969 . S
Zn181 O188 1.969 . S
Zn181 O194 1.969 . S
Zn181 O195 1.965 . S
Zn181 O197 2.024 . S
C182 O183 1.229 . S
C182 O191 1.058 . S
O183 C182 1.229 . S
C184 O185 1.229 . S
C184 O197 1.058 . S
O185 C184 1.229 . S
O186 Zn180 1.969 . S
O186 C189 1.267 . S
O187 Zn180 1.965 . S
O187 C198 1.260 . S
O188 Zn181 1.969 . S
O188 C198 1.258 . S
C189 O186 1.267 . S
C189 O190 1.228 . S
O190 C189 1.228 . S
O191 Zn180 2.024 . S
O191 C182 1.058 . S
C192 O193 1.228 . S
C192 O194 1.267 . S
O193 C192 1.228 . S
O194 Zn181 1.969 . S
O194 C192 1.267 . S
O195 Zn181 1.965 . S
O195 C199 1.260 . S
O196 Zn180 1.969 . S
O196 C199 1.258 . S
O197 Zn181 2.024 . S
O197 C184 1.058 . S
C198 O187 1.260 . S
C198 O188 1.258 . S
C199 O195 1.260 . S
C199 O196 1.258 . S
Zn200 O206 1.969 . S
Zn200 O207 1.965 . S
Zn200 O211 2.024 . S
Zn200 O216 1.969 . S
Zn201 O208 1.969 . S
Zn201 O214 1.969 1_455 S
Zn201 O215 1.965 . S
Zn201 O217 2.021 1_455 S
C202 O203 1.229 . S
C202 O211 1.058 . S
O203 C202 1.229 . S
C204 O205 1.229 . S
C204 O217 1.086 . S
O205 C204 1.229 . S
O206 Zn200 1.969 . S
O206 C209 1.267 . S
O207 Zn200 1.965 . S
O207 C218 1.260 . S
O208 Zn201 1.969 . S
O208 C218 1.258 . S
C209 O206 1.267 . S
C209 O210 1.228 . S
O210 C209 1.228 . S
O211 Zn200 2.024 . S
O211 C202 1.058 . S
C212 O213 1.228 . S
C212 O214 1.267 . S
O213 C212 1.228 . S
O214 Zn201 1.969 1_655 S
O214 C212 1.267 . S
O215 Zn201 1.965 . S
O215 C219 1.260 . S
O216 Zn200 1.969 . S
O216 C219 1.258 . S
O217 Zn201 2.021 1_655 S
O217 C204 1.086 . S
C218 O207 1.260 . S
C218 O208 1.258 . S
C219 O215 1.260 . S
C219 O216 1.258 . S
Zn220 O226 1.969 . S
Zn220 O227 1.965 . S
Zn220 O231 2.024 . S
Zn220 O236 1.969 . S
Zn221 O228 1.969 . S
Zn221 O234 1.969 1_545 S
Zn221 O235 1.965 . S
Zn221 O237 2.021 1_545 S
C222 O223 1.229 . S
C222 O231 1.058 . S
O223 C222 1.229 . S
C224 O225 1.229 . S
C224 O237 1.086 . S
O225 C224 1.229 . S
O226 Zn220 1.969 . S
O226 C229 1.267 . S
O227 Zn220 1.965 . S
O227 C238 1.260 . S
O228 Zn221 1.969 . S
O228 C238 1.258 . S
C229 O226 1.267 . S
C229 O230 1.228 . S
O230 C229 1.228 . S
O231 Zn220 2.024 . S
O231 C222 1.058 . S
C232 O233 1.228 . S
C232 O234 1.267 . S
O233 C232 1.228 . S
O234 Zn221 1.969 1_565 S
O234 C232 1.267 . S
O235 Zn221 1.965 . S
O235 C239 1.260 . S
O236 Zn220 1.969 . S
O236 C239 1.258 . S
O237 Zn221 2.021 1_565 S
O237 C224 1.086 . S
C238 O227 1.260 . S
C238 O228 1.258 . S
C239 O235 1.260 . S
C239 O236 1.258 . S
Zn240 O246 1.969 . S
Zn240 O247 1.965 . S
Zn240 O251 2.024 . S
Zn240 O256 1.969 . S
Zn241 O248 1.969 . S
Zn241 O254 1.969 1_655 S
Zn241 O255 1.965 . S
Zn241 O257 2.021 1_655 S
C242 O243 1.229 . S
C242 O251 1.058 . S
O243 C242 1.229 . S
C244 O245 1.229 . S
C244 O257 1.086 . S
O245 C244 1.229 . S
O246 Zn240 1.969 . S
O246 C249 1.267 . S
O247 Zn240 1.965 . S
O247 C258 1.260 . S
O248 Zn241 1.969 . S
O248 C258 1.258 . S
C249 O246 1.267 . S
C249 O250 1.228 . S
O250 C249 1.228 . S
O251 Zn240 2.024 . S
O251 C242 1.058 . S
C252 O253 1.228 . S
C252 O254 1.267 . S
O253 C252 1.228 . S
O254 Zn241 1.969 1_455 S
O254 C252 1.267 . S
O255 Zn241 1.965 . S
O255 C259 1.260 . S
O256 Zn240 1.969 . S
O256 C259 1.258 . S
O257 Zn241 2.021 1_455 S
O257 C244 1.086 . S
C258 O247 1.260 . S
C258 O248 1.258 . S
C259 O255 1.260 . S
C259 O256 1.258 . S
Zn260 O266 1.969 . S
Zn260 O267 1.965 . S
Zn260 O271 2.024 . S
Zn260 O276 1.969 . S
Zn261 O268 1.969 . S
Zn261 O274 1.969 1_565 S
Zn261 O275 1.965 . S
Zn261 O277 2.021 1_565 S
C262 O263 1.229 . S
C262 O271 1.058 . S
O263 C262 1.229 . S
C264 O265 1.229 . S
C264 O277 1.086 . S
O265 C264 1.229 . S
O266 Zn260 1.969 . S
O266 C269 1.267 . S
O267 Zn260 1.965 . S
O267 C278 1.260 . S
O268 Zn261 1.969 . S
O268 C278 1.258 . S
C269 O266 1.267 . S
C269 O270 1.228 . S
O270 C269 1.228 . S
O271 Zn260 2.024 . S
O271 C262 1.058 . S
C272 O273 1.228 . S
C272 O274 1.267 . S
O273 C272 1.228 . S
O274 Zn261 1.969 1_545 S
O274 C272 1.267 . S
O275 Zn261 1.965 . S
O275 C279 1.260 . S
O276 Zn260 1.969 . S
O276 C279 1.258 . S
O277 Zn261 2.021 1_545 S
O277 C264 1.086 . S
C278 O267 1.260 . S
C278 O268 1.258 . S
C279 O275 1.260 . S
C279 O276 1.258 . S
Zn280 O286 1.969 . S
Zn280 O287 1.965 . S
Zn280 O291 2.024 . S
Zn280 O296 1.969 . S
Zn281 O288 1.969 . S
Zn281 O294 1.969 . S
Zn281 O295 1.965 . S
Zn281 O297 2.024 . S
C282 O283 1.229 . S
C282 O291 1.058 . S
O283 C282 1.229 . S
C284 O285 1.229 . S
C284 O297 1.058 . S
O285 C284 1.229 . S
O286 Zn280 1.969 . S
O286 C289 1.267 . S
O287 Zn280 1.965 . S
O287 C298 1.260 . S
O288 Zn281 1.969 . S
O288 C298 1.258 . S
C289 O286 1.267 . S
C289 O290 1.228 . S
O290 C289 1.228 . S
O291 Zn280 2.024 . S
O291 C282 1.058 . S
C292 O293 1.228 . S
C292 O294 1.267 . S
O293 C292 1.228 . S
O294 Zn281 1.969 . S
O294 C292 1.267 . S
O295 Zn281 1.965 . S
O295 C299 1.260 . S
O296 Zn280 1.969 . S
O296 C299 1.258 . S
O297 Zn281 2.024 . S
O297 C284 1.058 . S
C298 O287 1.260 . S
C298 O288 1.258 . S
C299 O295 1.260 . S
C299 O296 1.258 . S
Zn300 O306 1.969 . S
Zn300 O307 1.965 . S
Zn300 O311 2.024 . S
Zn300 O316 1.969 . S
Zn301 O308 1.969 . S
Zn301 O314 1.969 . S
Zn301 O315 1.965 . S
Zn301 O317 2.024 . S
C302 O303 1.229 . S
C302 O311 1.058 . S
O303 C302 1.229 . S
C304 O305 1.229 . S
C304 O317 1.058 . S
O305 C304 1.229 . S
O306 Zn300 1.969 . S
O306 C309 1.267 . S
O307 Zn300 1.965 . S
O307 C318 1.260 . S
O308 Zn301 1.969 . S
O308 C318 1.258 . S
C309 O306 1.267 . S
C309 O310 1.228 . S
O310 C309 1.228 . S
O311 Zn300 2.024 . S
O311 C302 1.058 . S
C312 O313 1.228 . S
C312 O314 1.267 . S
O313 C312 1.228 . S
O314 Zn301 1.969 . S
O314 C312 1.267 . S
O315 Zn301 1.965 . S
O315 C319 1.260 . S
O316 Zn300 1.969 . S
O316 C319 1.258 . S
O317 Zn301 2.024 . S
O317 C304 1.058 . S
C318 O307 1.260 . S
C318 O308 1.258 . S
C319 O315 1.260 . S
C319 O316 1.258 . S
H320 C326 0.930 . S
H321 C330 0.930 . S
H322 C335 0.929 . S
H323 C333 0.929 . S
H324 C328 0.929 . S
H325 C334 0.929 . S
C326 H320 0.930 . S
C326 C327 1.367 . S
C326 C334 1.378 . S
C327 C326 1.367 . S
C327 C335 1.433 . S
C328 H324 0.929 . S
C328 C330 1.378 . S
C328 C332 1.350 . S
C329 C332 1.463 . S
C329 C334 1.350 . S
C329 N337 1.427 . S
C330 H321 0.930 . S
C330 C328 1.378 . S
C330 C331 1.367 . S
C331 C330 1.367 . S
C331 C333 1.433 . S
C332 C328 1.350 . S
C332 C329 1.463 . S
C332 N336 1.427 . S
C333 H323 0.929 . S
C333 C331 1.433 . S
C333 N336 1.384 . S
C334 H325 0.929 . S
C334 C326 1.378 . S
C334 C329 1.350 . S
C335 H322 0.929 . S
C335 C327 1.433 . S
C335 N337 1.384 . S
N336 C332 1.427 . S
N336 C333 1.384 . S
N337 C329 1.427 . S
N337 C335 1.384 . S
H338 C344 0.930 . S
H339 C348 0.930 . S
H340 C353 0.929 . S
H341 C351 0.929 . S
H342 C346 0.929 . S
H343 C352 0.929 . S
C344 H338 0.930 . S
C344 C345 1.367 . S
C344 C352 1.378 . S
C345 C344 1.367 . S
C345 C353 1.433 . S
C346 H342 0.929 . S
C346 C348 1.378 . S
C346 C350 1.350 . S
C347 C350 1.463 . S
C347 C352 1.350 . S
C347 N355 1.427 . S
C348 H339 0.930 . S
C348 C346 1.378 . S
C348 C349 1.367 . S
C349 C348 1.367 . S
C349 C351 1.433 . S
C350 C346 1.350 . S
C350 C347 1.463 . S
C350 N354 1.427 . S
C351 H341 0.929 . S
C351 C349 1.433 . S
C351 N354 1.384 . S
C352 H343 0.929 . S
C352 C344 1.378 . S
C352 C347 1.350 . S
C353 H340 0.929 . S
C353 C345 1.433 . S
C353 N355 1.384 . S
N354 C350 1.427 . S
N354 C351 1.384 . S
N355 C347 1.427 . S
N355 C353 1.384 . S
H356 C362 0.930 . S
H357 C366 0.930 . S
H358 C371 0.929 . S
H359 C369 0.929 . S
H360 C364 0.929 . S
H361 C370 0.929 . S
C362 H356 0.930 . S
C362 C363 1.367 . S
C362 C370 1.378 . S
C363 C362 1.367 . S
C363 C371 1.433 . S
C364 H360 0.929 . S
C364 C366 1.378 . S
C364 C368 1.350 . S
C365 C368 1.463 . S
C365 C370 1.350 . S
C365 N373 1.427 . S
C366 H357 0.930 . S
C366 C364 1.378 . S
C366 C367 1.367 . S
C367 C366 1.367 . S
C367 C369 1.433 . S
C368 C364 1.350 . S
C368 C365 1.463 . S
C368 N372 1.427 . S
C369 H359 0.929 . S
C369 C367 1.433 . S
C369 N372 1.384 . S
C370 H361 0.929 . S
C370 C362 1.378 . S
C370 C365 1.350 . S
C371 H358 0.929 . S
C371 C363 1.433 . S
C371 N373 1.384 . S
N372 C368 1.427 . S
N372 C369 1.384 . S
N373 C365 1.427 . S
N373 C371 1.384 . S
H374 C380 0.930 . S
H375 C384 0.930 . S
H376 C389 0.929 . S
H377 C387 0.929 . S
H378 C382 0.929 . S
H379 C388 0.929 . S
C380 H374 0.930 . S
C380 C381 1.367 . S
C380 C388 1.378 . S
C381 C380 1.367 . S
C381 C389 1.433 . S
C382 H378 0.929 . S
C382 C384 1.378 . S
C382 C386 1.350 . S
C383 C386 1.463 . S
C383 C388 1.350 . S
C383 N391 1.427 . S
C384 H375 0.930 . S
C384 C382 1.378 . S
C384 C385 1.367 . S
C385 C384 1.367 . S
C385 C387 1.433 . S
C386 C382 1.350 . S
C386 C383 1.463 . S
C386 N390 1.427 . S
C387 H377 0.929 . S
C387 C385 1.433 . S
C387 N390 1.384 . S
C388 H379 0.929 . S
C388 C380 1.378 . S
C388 C383 1.350 . S
C389 H376 0.929 . S
C389 C381 1.433 . S
C389 N391 1.384 . S
N390 C386 1.427 . S
N390 C387 1.384 . S
N391 C383 1.427 . S
N391 C389 1.384 . S
H392 C398 0.930 . S
H393 C402 0.930 . S
H394 C407 0.929 . S
H395 C405 0.929 . S
H396 C400 0.929 . S
H397 C406 0.929 . S
C398 H392 0.930 . S
C398 C399 1.367 . S
C398 C406 1.378 . S
C399 C398 1.367 . S
C399 C407 1.433 . S
C400 H396 0.929 . S
C400 C402 1.378 . S
C400 C404 1.350 . S
C401 C404 1.463 . S
C401 C406 1.350 . S
C401 N409 1.427 . S
C402 H393 0.930 . S
C402 C400 1.378 . S
C402 C403 1.367 . S
C403 C402 1.367 . S
C403 C405 1.433 . S
C404 C400 1.350 . S
C404 C401 1.463 . S
C404 N408 1.427 . S
C405 H395 0.929 . S
C405 C403 1.433 . S
C405 N408 1.384 . S
C406 H397 0.929 . S
C406 C398 1.378 . S
C406 C401 1.350 . S
C407 H394 0.929 . S
C407 C399 1.433 . S
C407 N409 1.384 . S
N408 C404 1.427 . S
N408 C405 1.384 . S
N409 C401 1.427 . S
N409 C407 1.384 . S
H410 C416 0.930 . S
H411 C420 0.930 . S
H412 C425 0.929 . S
H413 C423 0.929 . S
H414 C418 0.929 . S
H415 C424 0.929 . S
C416 H410 0.930 . S
C416 C417 1.367 . S
C416 C424 1.378 . S
C417 C416 1.367 . S
C417 C425 1.433 . S
C418 H414 0.929 . S
C418 C420 1.378 . S
C418 C422 1.350 . S
C419 C422 1.463 . S
C419 C424 1.350 . S
C419 N427 1.427 . S
C420 H411 0.930 . S
C420 C418 1.378 . S
C420 C421 1.367 . S
C421 C420 1.367 . S
C421 C423 1.433 . S
C422 C418 1.350 . S
C422 C419 1.463 . S
C422 N426 1.427 . S
C423 H413 0.929 . S
C423 C421 1.433 . S
C423 N426 1.384 . S
C424 H415 0.929 . S
C424 C416 1.378 . S
C424 C419 1.350 . S
C425 H412 0.929 . S
C425 C417 1.433 . S
C425 N427 1.384 . S
N426 C422 1.427 . S
N426 C423 1.384 . S
N427 C419 1.427 . S
N427 C425 1.384 . S
H428 C434 0.930 . S
H429 C438 0.930 . S
H430 C443 0.929 . S
H431 C441 0.929 . S
H432 C436 0.929 . S
H433 C442 0.929 . S
C434 H428 0.930 . S
C434 C435 1.367 . S
C434 C442 1.378 . S
C435 C434 1.367 . S
C435 C443 1.433 . S
C436 H432 0.929 . S
C436 C438 1.378 . S
C436 C440 1.350 . S
C437 C440 1.463 . S
C437 C442 1.350 . S
C437 N445 1.427 . S
C438 H429 0.930 . S
C438 C436 1.378 . S
C438 C439 1.367 . S
C439 C438 1.367 . S
C439 C441 1.433 . S
C440 C436 1.350 . S
C440 C437 1.463 . S
C440 N444 1.427 . S
C441 H431 0.929 . S
C441 C439 1.433 . S
C441 N444 1.384 . S
C442 H433 0.929 . S
C442 C434 1.378 . S
C442 C437 1.350 . S
C443 H430 0.929 . S
C443 C435 1.433 . S
C443 N445 1.384 . S
N444 C440 1.427 . S
N444 C441 1.384 . S
N445 C437 1.427 . S
N445 C443 1.384 . S
H446 C452 0.930 . S
H447 C456 0.930 . S
H448 C461 0.929 . S
H449 C459 0.929 . S
H450 C454 0.929 . S
H451 C460 0.929 . S
C452 H446 0.930 . S
C452 C453 1.367 . S
C452 C460 1.378 . S
C453 C452 1.367 . S
C453 C461 1.433 . S
C454 H450 0.929 . S
C454 C456 1.378 . S
C454 C458 1.350 . S
C455 C458 1.463 . S
C455 C460 1.350 . S
C455 N463 1.427 . S
C456 H447 0.930 . S
C456 C454 1.378 . S
C456 C457 1.367 . S
C457 C456 1.367 . S
C457 C459 1.433 . S
C458 C454 1.350 . S
C458 C455 1.463 . S
C458 N462 1.427 . S
C459 H449 0.929 . S
C459 C457 1.433 . S
C459 N462 1.384 . S
C460 H451 0.929 . S
C460 C452 1.378 . S
C460 C455 1.350 . S
C461 H448 0.929 . S
C461 C453 1.433 . S
C461 N463 1.384 . S
N462 C458 1.427 . S
N462 C459 1.384 . S
N463 C455 1.427 . S
N463 C461 1.384 . S
H464 C470 0.930 . S
H465 C474 0.930 . S
H466 C479 0.929 . S
H467 C477 0.929 . S
H468 C472 0.929 . S
H469 C478 0.929 . S
C470 H464 0.930 . S
C470 C471 1.367 . S
C470 C478 1.378 . S
C471 C470 1.367 . S
C471 C479 1.433 . S
C472 H468 0.929 . S
C472 C474 1.378 . S
C472 C476 1.350 . S
C473 C476 1.463 . S
C473 C478 1.350 . S
C473 N481 1.427 . S
C474 H465 0.930 . S
C474 C472 1.378 . S
C474 C475 1.367 . S
C475 C474 1.367 . S
C475 C477 1.433 . S
C476 C472 1.350 . S
C476 C473 1.463 . S
C476 N480 1.427 . S
C477 H467 0.929 . S
C477 C475 1.433 . S
C477 N480 1.384 . S
C478 H469 0.929 . S
C478 C470 1.378 . S
C478 C473 1.350 . S
C479 H466 0.929 . S
C479 C471 1.433 . S
C479 N481 1.384 . S
N480 C476 1.427 . S
N480 C477 1.384 . S
N481 C473 1.427 . S
N481 C479 1.384 . S
H482 C488 0.930 . S
H483 C492 0.930 . S
H484 C497 0.929 . S
H485 C495 0.929 . S
H486 C490 0.929 . S
H487 C496 0.929 . S
C488 H482 0.930 . S
C488 C489 1.367 . S
C488 C496 1.378 . S
C489 C488 1.367 . S
C489 C497 1.433 . S
C490 H486 0.929 . S
C490 C492 1.378 . S
C490 C494 1.350 . S
C491 C494 1.463 . S
C491 C496 1.350 . S
C491 N499 1.427 . S
C492 H483 0.930 . S
C492 C490 1.378 . S
C492 C493 1.367 . S
C493 C492 1.367 . S
C493 C495 1.433 . S
C494 C490 1.350 . S
C494 C491 1.463 . S
C494 N498 1.427 . S
C495 H485 0.929 . S
C495 C493 1.433 . S
C495 N498 1.384 . S
C496 H487 0.929 . S
C496 C488 1.378 . S
C496 C491 1.350 . S
C497 H484 0.929 . S
C497 C489 1.433 . S
C497 N499 1.384 . S
N498 C494 1.427 . S
N498 C495 1.384 . S
N499 C491 1.427 . S
N499 C497 1.384 . S
H500 C506 0.930 . S
H501 C510 0.930 . S
H502 C515 0.929 . S
H503 C513 0.929 . S
H504 C508 0.929 . S
H505 C514 0.929 . S
C506 H500 0.930 . S
C506 C507 1.367 . S
C506 C514 1.378 . S
C507 C506 1.367 . S
C507 C515 1.433 . S
C508 H504 0.929 . S
C508 C510 1.378 . S
C508 C512 1.350 . S
C509 C512 1.463 . S
C509 C514 1.350 . S
C509 N517 1.427 . S
C510 H501 0.930 . S
C510 C508 1.378 . S
C510 C511 1.367 . S
C511 C510 1.367 . S
C511 C513 1.433 . S
C512 C508 1.350 . S
C512 C509 1.463 . S
C512 N516 1.427 . S
C513 H503 0.929 . S
C513 C511 1.433 . S
C513 N516 1.384 . S
C514 H505 0.929 . S
C514 C506 1.378 . S
C514 C509 1.350 . S
C515 H502 0.929 . S
C515 C507 1.433 . S
C515 N517 1.384 . S
N516 C512 1.427 . S
N516 C513 1.384 . S
N517 C509 1.427 . S
N517 C515 1.384 . S
H518 C524 0.930 . S
H519 C528 0.930 . S
H520 C533 0.929 . S
H521 C531 0.929 . S
H522 C526 0.929 . S
H523 C532 0.929 . S
C524 H518 0.930 . S
C524 C525 1.367 . S
C524 C532 1.378 . S
C525 C524 1.367 . S
C525 C533 1.433 . S
C526 H522 0.929 . S
C526 C528 1.378 . S
C526 C530 1.350 . S
C527 C530 1.463 . S
C527 C532 1.350 . S
C527 N535 1.427 . S
C528 H519 0.930 . S
C528 C526 1.378 . S
C528 C529 1.367 . S
C529 C528 1.367 . S
C529 C531 1.433 . S
C530 C526 1.350 . S
C530 C527 1.463 . S
C530 N534 1.427 . S
C531 H521 0.929 . S
C531 C529 1.433 . S
C531 N534 1.384 . S
C532 H523 0.929 . S
C532 C524 1.378 . S
C532 C527 1.350 . S
C533 H520 0.929 . S
C533 C525 1.433 . S
C533 N535 1.384 . S
N534 C530 1.427 . S
N534 C531 1.384 . S
N535 C527 1.427 . S
N535 C533 1.384 . S
H536 C542 0.930 . S
H537 C546 0.930 . S
H538 C551 0.929 . S
H539 C549 0.929 . S
H540 C544 0.929 . S
H541 C550 0.929 . S
C542 H536 0.930 . S
C542 C543 1.367 . S
C542 C550 1.378 . S
C543 C542 1.367 . S
C543 C551 1.433 . S
C544 H540 0.929 . S
C544 C546 1.378 . S
C544 C548 1.350 . S
C545 C548 1.463 . S
C545 C550 1.350 . S
C545 N553 1.427 . S
C546 H537 0.930 . S
C546 C544 1.378 . S
C546 C547 1.367 . S
C547 C546 1.367 . S
C547 C549 1.433 . S
C548 C544 1.350 . S
C548 C545 1.463 . S
C548 N552 1.427 . S
C549 H539 0.929 . S
C549 C547 1.433 . S
C549 N552 1.384 . S
C550 H541 0.929 . S
C550 C542 1.378 . S
C550 C545 1.350 . S
C551 H538 0.929 . S
C551 C543 1.433 . S
C551 N553 1.384 . S
N552 C548 1.427 . S
N552 C549 1.384 . S
N553 C545 1.427 . S
N553 C551 1.384 . S
H554 C560 0.930 . S
H555 C564 0.930 . S
H556 C569 0.929 . S
H557 C567 0.929 . S
H558 C562 0.929 . S
H559 C568 0.929 . S
C560 H554 0.930 . S
C560 C561 1.367 . S
C560 C568 1.378 . S
C561 C560 1.367 . S
C561 C569 1.433 . S
C562 H558 0.929 . S
C562 C564 1.378 . S
C562 C566 1.350 . S
C563 C566 1.463 . S
C563 C568 1.350 . S
C563 N571 1.427 . S
C564 H555 0.930 . S
C564 C562 1.378 . S
C564 C565 1.367 . S
C565 C564 1.367 . S
C565 C567 1.433 . S
C566 C562 1.350 . S
C566 C563 1.463 . S
C566 N570 1.427 . S
C567 H557 0.929 . S
C567 C565 1.433 . S
C567 N570 1.384 . S
C568 H559 0.929 . S
C568 C560 1.378 . S
C568 C563 1.350 . S
C569 H556 0.929 . S
C569 C561 1.433 . S
C569 N571 1.384 . S
N570 C566 1.427 . S
N570 C567 1.384 . S
N571 C563 1.427 . S
N571 C569 1.384 . S
H572 C578 0.930 . S
H573 C582 0.930 . S
H574 C587 0.929 . S
H575 C585 0.929 . S
H576 C580 0.929 . S
H577 C586 0.929 . S
C578 H572 0.930 . S
C578 C579 1.367 . S
C578 C586 1.378 . S
C579 C578 1.367 . S
C579 C587 1.433 . S
C580 H576 0.929 . S
C580 C582 1.378 . S
C580 C584 1.350 . S
C581 C584 1.463 . S
C581 C586 1.350 . S
C581 N589 1.427 . S
C582 H573 0.930 . S
C582 C580 1.378 . S
C582 C583 1.367 . S
C583 C582 1.367 . S
C583 C585 1.433 . S
C584 C580 1.350 . S
C584 C581 1.463 . S
C584 N588 1.427 . S
C585 H575 0.929 . S
C585 C583 1.433 . S
C585 N588 1.384 . S
C586 H577 0.929 . S
C586 C578 1.378 . S
C586 C581 1.350 . S
C587 H574 0.929 . S
C587 C579 1.433 . S
C587 N589 1.384 . S
N588 C584 1.427 . S
N588 C585 1.384 . S
N589 C581 1.427 . S
N589 C587 1.384 . S
H590 C596 0.930 . S
H591 C600 0.930 . S
H592 C605 0.929 . S
H593 C603 0.929 . S
H594 C598 0.929 . S
H595 C604 0.929 . S
C596 H590 0.930 . S
C596 C597 1.367 . S
C596 C604 1.378 . S
C597 C596 1.367 . S
C597 C605 1.433 . S
C598 H594 0.929 . S
C598 C600 1.378 . S
C598 C602 1.350 . S
C599 C602 1.463 . S
C599 C604 1.350 . S
C599 N607 1.427 . S
C600 H591 0.930 . S
C600 C598 1.378 . S
C600 C601 1.367 . S
C601 C600 1.367 . S
C601 C603 1.433 . S
C602 C598 1.350 . S
C602 C599 1.463 . S
C602 N606 1.427 . S
C603 H593 0.929 . S
C603 C601 1.433 . S
C603 N606 1.384 . S
C604 H595 0.929 . S
C604 C596 1.378 . S
C604 C599 1.350 . S
C605 H592 0.929 . S
C605 C597 1.433 . S
C605 N607 1.384 . S
N606 C602 1.427 . S
N606 C603 1.384 . S
N607 C599 1.427 . S
N607 C605 1.384 . S
H608 C614 0.930 . S
H609 C618 0.930 . S
H610 C623 0.929 . S
H611 C621 0.929 . S
H612 C616 0.929 . S
H613 C622 0.929 . S
C614 H608 0.930 . S
C614 C615 1.367 . S
C614 C622 1.378 . S
C615 C614 1.367 . S
C615 C623 1.433 . S
C616 H612 0.929 . S
C616 C618 1.378 . S
C616 C620 1.350 . S
C617 C620 1.463 . S
C617 C622 1.350 . S
C617 N625 1.427 . S
C618 H609 0.930 . S
C618 C616 1.378 . S
C618 C619 1.367 . S
C619 C618 1.367 . S
C619 C621 1.433 . S
C620 C616 1.350 . S
C620 C617 1.463 . S
C620 N624 1.427 . S
C621 H611 0.929 . S
C621 C619 1.433 . S
C621 N624 1.384 . S
C622 H613 0.929 . S
C622 C614 1.378 . S
C622 C617 1.350 . S
C623 H610 0.929 . S
C623 C615 1.433 . S
C623 N625 1.384 . S
N624 C620 1.427 . S
N624 C621 1.384 . S
N625 C617 1.427 . S
N625 C623 1.384 . S
H626 C632 0.930 . S
H627 C636 0.930 . S
H628 C641 0.929 . S
H629 C639 0.929 . S
H630 C634 0.929 . S
H631 C640 0.929 . S
C632 H626 0.930 . S
C632 C633 1.367 . S
C632 C640 1.378 . S
C633 C632 1.367 . S
C633 C641 1.433 . S
C634 H630 0.929 . S
C634 C636 1.378 . S
C634 C638 1.350 . S
C635 C638 1.463 . S
C635 C640 1.350 . S
C635 N643 1.427 . S
C636 H627 0.930 . S
C636 C634 1.378 . S
C636 C637 1.367 . S
C637 C636 1.367 . S
C637 C639 1.433 . S
C638 C634 1.350 . S
C638 C635 1.463 . S
C638 N642 1.427 . S
C639 H629 0.929 . S
C639 C637 1.433 . S
C639 N642 1.384 . S
C640 H631 0.929 . S
C640 C632 1.378 . S
C640 C635 1.350 . S
C641 H628 0.929 . S
C641 C633 1.433 . S
C641 N643 1.384 . S
N642 C638 1.427 . S
N642 C639 1.384 . S
N643 C635 1.427 . S
N643 C641 1.384 . S
H644 C650 0.930 . S
H645 C654 0.930 . S
H646 C659 0.929 . S
H647 C657 0.929 . S
H648 C652 0.929 . S
H649 C658 0.929 . S
C650 H644 0.930 . S
C650 C651 1.367 . S
C650 C658 1.378 . S
C651 C650 1.367 . S
C651 C659 1.433 . S
C652 H648 0.929 . S
C652 C654 1.378 . S
C652 C656 1.350 . S
C653 C656 1.463 . S
C653 C658 1.350 . S
C653 N661 1.427 . S
C654 H645 0.930 . S
C654 C652 1.378 . S
C654 C655 1.367 . S
C655 C654 1.367 . S
C655 C657 1.433 . S
C656 C652 1.350 . S
C656 C653 1.463 . S
C656 N660 1.427 . S
C657 H647 0.929 . S
C657 C655 1.433 . S
C657 N660 1.384 . S
C658 H649 0.929 . S
C658 C650 1.378 . S
C658 C653 1.350 . S
C659 H646 0.929 . S
C659 C651 1.433 . S
C659 N661 1.384 . S
N660 C656 1.427 . S
N660 C657 1.384 . S
N661 C653 1.427 . S
N661 C659 1.384 . S
H662 C668 0.930 . S
H663 C672 0.930 . S
H664 C677 0.929 . S
H665 C675 0.929 1_455 S
H666 C670 0.929 . S
H667 C676 0.929 . S
C668 H662 0.930 . S
C668 C669 1.367 . S
C668 C676 1.378 . S
C669 C668 1.367 . S
C669 C677 1.433 . S
C670 H666 0.929 . S
C670 C672 1.378 . S
C670 C674 1.350 . S
C671 C674 1.463 . S
C671 C676 1.350 . S
C671 N679 1.427 . S
C672 H663 0.930 . S
C672 C670 1.378 . S
C672 C673 1.367 . S
C673 C672 1.367 . S
C673 C675 1.433 . S
C674 C670 1.350 . S
C674 C671 1.463 . S
C674 N678 1.427 . S
C675 H665 0.929 1_655 S
C675 C673 1.433 . S
C675 N678 1.384 . S
C676 H667 0.929 . S
C676 C668 1.378 . S
C676 C671 1.350 . S
C677 H664 0.929 . S
C677 C669 1.433 . S
C677 N679 1.384 . S
N678 C674 1.427 . S
N678 C675 1.384 . S
N679 C671 1.427 . S
N679 C677 1.384 . S
H680 C686 0.930 . S
H681 C690 0.930 1_565 S
H682 C695 0.929 . S
H683 C693 0.929 . S
H684 C688 0.929 . S
H685 C694 0.929 . S
C686 H680 0.930 . S
C686 C687 1.367 . S
C686 C694 1.378 . S
C687 C686 1.367 . S
C687 C695 1.433 . S
C688 H684 0.929 . S
C688 C690 1.378 . S
C688 C692 1.350 . S
C689 C692 1.463 . S
C689 C694 1.350 . S
C689 N697 1.427 . S
C690 H681 0.930 1_545 S
C690 C688 1.378 . S
C690 C691 1.367 . S
C691 C690 1.367 . S
C691 C693 1.433 . S
C692 C688 1.350 . S
C692 C689 1.463 . S
C692 N696 1.427 . S
C693 H683 0.929 . S
C693 C691 1.433 . S
C693 N696 1.384 . S
C694 H685 0.929 . S
C694 C686 1.378 . S
C694 C689 1.350 . S
C695 H682 0.929 . S
C695 C687 1.433 . S
C695 N697 1.384 . S
N696 C692 1.427 . S
N696 C693 1.384 . S
N697 C689 1.427 . S
N697 C695 1.384 . S
H698 C704 0.930 . S
H699 C708 0.930 . S
H700 C713 0.929 . S
H701 C711 0.929 . S
H702 C706 0.929 . S
H703 C712 0.929 . S
C704 H698 0.930 . S
C704 C705 1.367 . S
C704 C712 1.378 . S
C705 C704 1.367 . S
C705 C713 1.433 . S
C706 H702 0.929 . S
C706 C708 1.378 . S
C706 C710 1.350 . S
C707 C710 1.463 . S
C707 C712 1.350 . S
C707 N715 1.427 . S
C708 H699 0.930 . S
C708 C706 1.378 . S
C708 C709 1.367 . S
C709 C708 1.367 . S
C709 C711 1.433 . S
C710 C706 1.350 . S
C710 C707 1.463 . S
C710 N714 1.427 . S
C711 H701 0.929 . S
C711 C709 1.433 . S
C711 N714 1.384 . S
C712 H703 0.929 . S
C712 C704 1.378 . S
C712 C707 1.350 . S
C713 H700 0.929 . S
C713 C705 1.433 . S
C713 N715 1.384 . S
N714 C710 1.427 . S
N714 C711 1.384 . S
N715 C707 1.427 . S
N715 C713 1.384 . S
H716 C722 0.930 . S
H717 C726 0.930 . S
H718 C731 0.929 . S
H719 C729 0.929 . S
H720 C724 0.929 . S
H721 C730 0.929 . S
C722 H716 0.930 . S
C722 C723 1.367 . S
C722 C730 1.378 . S
C723 C722 1.367 . S
C723 C731 1.433 . S
C724 H720 0.929 . S
C724 C726 1.378 . S
C724 C728 1.350 . S
C725 C728 1.463 . S
C725 C730 1.350 . S
C725 N733 1.427 . S
C726 H717 0.930 . S
C726 C724 1.378 . S
C726 C727 1.367 . S
C727 C726 1.367 . S
C727 C729 1.433 . S
C728 C724 1.350 . S
C728 C725 1.463 . S
C728 N732 1.427 . S
C729 H719 0.929 . S
C729 C727 1.433 . S
C729 N732 1.384 . S
C730 H721 0.929 . S
C730 C722 1.378 . S
C730 C725 1.350 . S
C731 H718 0.929 . S
C731 C723 1.433 . S
C731 N733 1.384 . S
N732 C728 1.427 . S
N732 C729 1.384 . S
N733 C725 1.427 . S
N733 C731 1.384 . S
H734 C740 0.930 . S
H735 C744 0.930 . S
H736 C749 0.929 . S
H737 C747 0.929 . S
H738 C742 0.929 . S
H739 C748 0.929 . S
C740 H734 0.930 . S
C740 C741 1.367 . S
C740 C748 1.378 . S
C741 C740 1.367 . S
C741 C749 1.433 . S
C742 H738 0.929 . S
C742 C744 1.378 . S
C742 C746 1.350 . S
C743 C746 1.463 . S
C743 C748 1.350 . S
C743 N751 1.427 . S
C744 H735 0.930 . S
C744 C742 1.378 . S
C744 C745 1.367 . S
C745 C744 1.367 . S
C745 C747 1.433 . S
C746 C742 1.350 . S
C746 C743 1.463 . S
C746 N750 1.427 . S
C747 H737 0.929 . S
C747 C745 1.433 . S
C747 N750 1.384 . S
C748 H739 0.929 . S
C748 C740 1.378 . S
C748 C743 1.350 . S
C749 H736 0.929 . S
C749 C741 1.433 . S
C749 N751 1.384 . S
N750 C746 1.427 . S
N750 C747 1.384 . S
N751 C743 1.427 . S
N751 C749 1.384 . S
H752 C758 0.930 . S
H753 C762 0.930 . S
H754 C767 0.929 . S
H755 C765 0.929 . S
H756 C760 0.929 . S
H757 C766 0.929 . S
C758 H752 0.930 . S
C758 C759 1.367 . S
C758 C766 1.378 . S
C759 C758 1.367 . S
C759 C767 1.433 . S
C760 H756 0.929 . S
C760 C762 1.378 . S
C760 C764 1.350 . S
C761 C764 1.463 . S
C761 C766 1.350 . S
C761 N769 1.427 . S
C762 H753 0.930 . S
C762 C760 1.378 . S
C762 C763 1.367 . S
C763 C762 1.367 . S
C763 C765 1.433 . S
C764 C760 1.350 . S
C764 C761 1.463 . S
C764 N768 1.427 . S
C765 H755 0.929 . S
C765 C763 1.433 . S
C765 N768 1.384 . S
C766 H757 0.929 . S
C766 C758 1.378 . S
C766 C761 1.350 . S
C767 H754 0.929 . S
C767 C759 1.433 . S
C767 N769 1.384 . S
N768 C764 1.427 . S
N768 C765 1.384 . S
N769 C761 1.427 . S
N769 C767 1.384 . S
H770 C776 0.930 . S
H771 C780 0.930 . S
H772 C785 0.929 . S
H773 C783 0.929 . S
H774 C778 0.929 . S
H775 C784 0.929 . S
C776 H770 0.930 . S
C776 C777 1.367 . S
C776 C784 1.378 . S
C777 C776 1.367 . S
C777 C785 1.433 . S
C778 H774 0.929 . S
C778 C780 1.378 . S
C778 C782 1.350 . S
C779 C782 1.463 . S
C779 C784 1.350 . S
C779 N787 1.427 . S
C780 H771 0.930 . S
C780 C778 1.378 . S
C780 C781 1.367 . S
C781 C780 1.367 . S
C781 C783 1.433 . S
C782 C778 1.350 . S
C782 C779 1.463 . S
C782 N786 1.427 . S
C783 H773 0.929 . S
C783 C781 1.433 . S
C783 N786 1.384 . S
C784 H775 0.929 . S
C784 C776 1.378 . S
C784 C779 1.350 . S
C785 H772 0.929 . S
C785 C777 1.433 . S
C785 N787 1.384 . S
N786 C782 1.427 . S
N786 C783 1.384 . S
N787 C779 1.427 . S
N787 C785 1.384 . S
H788 C794 0.930 . S
H789 C798 0.930 . S
H790 C803 0.929 . S
H791 C801 0.929 . S
H792 C796 0.929 . S
H793 C802 0.929 . S
C794 H788 0.930 . S
C794 C795 1.367 . S
C794 C802 1.378 . S
C795 C794 1.367 . S
C795 C803 1.433 . S
C796 H792 0.929 . S
C796 C798 1.378 . S
C796 C800 1.350 . S
C797 C800 1.463 . S
C797 C802 1.350 . S
C797 N805 1.427 . S
C798 H789 0.930 . S
C798 C796 1.378 . S
C798 C799 1.367 . S
C799 C798 1.367 . S
C799 C801 1.433 . S
C800 C796 1.350 . S
C800 C797 1.463 . S
C800 N804 1.427 . S
C801 H791 0.929 . S
C801 C799 1.433 . S
C801 N804 1.384 . S
C802 H793 0.929 . S
C802 C794 1.378 . S
C802 C797 1.350 . S
C803 H790 0.929 . S
C803 C795 1.433 . S
C803 N805 1.384 . S
N804 C800 1.427 . S
N804 C801 1.384 . S
N805 C797 1.427 . S
N805 C803 1.384 . S
H806 C812 0.930 . S
H807 C816 0.930 . S
H808 C821 0.929 . S
H809 C819 0.929 . S
H810 C814 0.929 . S
H811 C820 0.929 . S
C812 H806 0.930 . S
C812 C813 1.367 . S
C812 C820 1.378 . S
C813 C812 1.367 . S
C813 C821 1.433 . S
C814 H810 0.929 . S
C814 C816 1.378 . S
C814 C818 1.350 . S
C815 C818 1.463 . S
C815 C820 1.350 . S
C815 N823 1.427 . S
C816 H807 0.930 . S
C816 C814 1.378 . S
C816 C817 1.367 . S
C817 C816 1.367 . S
C817 C819 1.433 . S
C818 C814 1.350 . S
C818 C815 1.463 . S
C818 N822 1.427 . S
C819 H809 0.929 . S
C819 C817 1.433 . S
C819 N822 1.384 . S
C820 H811 0.929 . S
C820 C812 1.378 . S
C820 C815 1.350 . S
C821 H808 0.929 . S
C821 C813 1.433 . S
C821 N823 1.384 . S
N822 C818 1.427 . S
N822 C819 1.384 . S
N823 C815 1.427 . S
N823 C821 1.384 . S
H824 C830 0.930 . S
H825 C834 0.930 . S
H826 C839 0.929 . S
H827 C837 0.929 . S
H828 C832 0.929 . S
H829 C838 0.929 . S
C830 H824 0.930 . S
C830 C831 1.367 . S
C830 C838 1.378 . S
C831 C830 1.367 . S
C831 C839 1.433 . S
C832 H828 0.929 . S
C832 C834 1.378 . S
C832 C836 1.350 . S
C833 C836 1.463 . S
C833 C838 1.350 . S
C833 N841 1.427 . S
C834 H825 0.930 . S
C834 C832 1.378 . S
C834 C835 1.367 . S
C835 C834 1.367 . S
C835 C837 1.433 . S
C836 C832 1.350 . S
C836 C833 1.463 . S
C836 N840 1.427 . S
C837 H827 0.929 . S
C837 C835 1.433 . S
C837 N840 1.384 . S
C838 H829 0.929 . S
C838 C830 1.378 . S
C838 C833 1.350 . S
C839 H826 0.929 . S
C839 C831 1.433 . S
C839 N841 1.384 . S
N840 C836 1.427 . S
N840 C837 1.384 . S
N841 C833 1.427 . S
N841 C839 1.384 . S
H842 C848 0.930 . S
H843 C852 0.930 . S
H844 C857 0.929 . S
H845 C855 0.929 . S
H846 C850 0.929 . S
H847 C856 0.929 . S
C848 H842 0.930 . S
C848 C849 1.367 . S
C848 C856 1.378 . S
C849 C848 1.367 . S
C849 C857 1.433 . S
C850 H846 0.929 . S
C850 C852 1.378 . S
C850 C854 1.350 . S
C851 C854 1.463 . S
C851 C856 1.350 . S
C851 N859 1.427 . S
C852 H843 0.930 . S
C852 C850 1.378 . S
C852 C853 1.367 . S
C853 C852 1.367 . S
C853 C855 1.433 . S
C854 C850 1.350 . S
C854 C851 1.463 . S
C854 N858 1.427 . S
C855 H845 0.929 . S
C855 C853 1.433 . S
C855 N858 1.384 . S
C856 H847 0.929 . S
C856 C848 1.378 . S
C856 C851 1.350 . S
C857 H844 0.929 . S
C857 C849 1.433 . S
C857 N859 1.384 . S
N858 C854 1.427 . S
N858 C855 1.384 . S
N859 C851 1.427 . S
N859 C857 1.384 . S
H860 C866 0.930 . S
H861 C870 0.930 . S
H862 C875 0.929 . S
H863 C873 0.929 . S
H864 C868 0.929 . S
H865 C874 0.929 . S
C866 H860 0.930 . S
C866 C867 1.367 . S
C866 C874 1.378 . S
C867 C866 1.367 . S
C867 C875 1.433 . S
C868 H864 0.929 . S
C868 C870 1.378 . S
C868 C872 1.350 . S
C869 C872 1.463 . S
C869 C874 1.350 . S
C869 N877 1.427 . S
C870 H861 0.930 . S
C870 C868 1.378 . S
C870 C871 1.367 . S
C871 C870 1.367 . S
C871 C873 1.433 . S
C872 C868 1.350 . S
C872 C869 1.463 . S
C872 N876 1.427 . S
C873 H863 0.929 . S
C873 C871 1.433 . S
C873 N876 1.384 . S
C874 H865 0.929 . S
C874 C866 1.378 . S
C874 C869 1.350 . S
C875 H862 0.929 . S
C875 C867 1.433 . S
C875 N877 1.384 . S
N876 C872 1.427 . S
N876 C873 1.384 . S
N877 C869 1.427 . S
N877 C875 1.384 . S
H878 C884 0.930 . S
H879 C888 0.930 . S
H880 C893 0.929 . S
H881 C891 0.929 . S
H882 C886 0.929 . S
H883 C892 0.929 . S
C884 H878 0.930 . S
C884 C885 1.367 . S
C884 C892 1.378 . S
C885 C884 1.367 . S
C885 C893 1.433 . S
C886 H882 0.929 . S
C886 C888 1.378 . S
C886 C890 1.350 . S
C887 C890 1.463 . S
C887 C892 1.350 . S
C887 N895 1.427 . S
C888 H879 0.930 . S
C888 C886 1.378 . S
C888 C889 1.367 . S
C889 C888 1.367 . S
C889 C891 1.433 . S
C890 C886 1.350 . S
C890 C887 1.463 . S
C890 N894 1.427 . S
C891 H881 0.929 . S
C891 C889 1.433 . S
C891 N894 1.384 . S
C892 H883 0.929 . S
C892 C884 1.378 . S
C892 C887 1.350 . S
C893 H880 0.929 . S
C893 C885 1.433 . S
C893 N895 1.384 . S
N894 C890 1.427 . S
N894 C891 1.384 . S
N895 C887 1.427 . S
N895 C893 1.384 . S
H896 C902 0.930 . S
H897 C906 0.930 . S
H898 C911 0.929 . S
H899 C909 0.929 . S
H900 C904 0.929 . S
H901 C910 0.929 . S
C902 H896 0.930 . S
C902 C903 1.367 . S
C902 C910 1.378 . S
C903 C902 1.367 . S
C903 C911 1.433 . S
C904 H900 0.929 . S
C904 C906 1.378 . S
C904 C908 1.350 . S
C905 C908 1.463 . S
C905 C910 1.350 . S
C905 N913 1.427 . S
C906 H897 0.930 . S
C906 C904 1.378 . S
C906 C907 1.367 . S
C907 C906 1.367 . S
C907 C909 1.433 . S
C908 C904 1.350 . S
C908 C905 1.463 . S
C908 N912 1.427 . S
C909 H899 0.929 . S
C909 C907 1.433 . S
C909 N912 1.384 . S
C910 H901 0.929 . S
C910 C902 1.378 . S
C910 C905 1.350 . S
C911 H898 0.929 . S
C911 C903 1.433 . S
C911 N913 1.384 . S
N912 C908 1.427 . S
N912 C909 1.384 . S
N913 C905 1.427 . S
N913 C911 1.384 . S
H914 C920 0.930 . S
H915 C924 0.930 . S
H916 C929 0.929 . S
H917 C927 0.929 . S
H918 C922 0.929 . S
H919 C928 0.929 . S
C920 H914 0.930 . S
C920 C921 1.367 . S
C920 C928 1.378 . S
C921 C920 1.367 . S
C921 C929 1.433 . S
C922 H918 0.929 . S
C922 C924 1.378 . S
C922 C926 1.350 . S
C923 C926 1.463 . S
C923 C928 1.350 . S
C923 N931 1.427 . S
C924 H915 0.930 . S
C924 C922 1.378 . S
C924 C925 1.367 . S
C925 C924 1.367 . S
C925 C927 1.433 . S
C926 C922 1.350 . S
C926 C923 1.463 . S
C926 N930 1.427 . S
C927 H917 0.929 . S
C927 C925 1.433 . S
C927 N930 1.384 . S
C928 H919 0.929 . S
C928 C920 1.378 . S
C928 C923 1.350 . S
C929 H916 0.929 . S
C929 C921 1.433 . S
C929 N931 1.384 . S
N930 C926 1.427 . S
N930 C927 1.384 . S
N931 C923 1.427 . S
N931 C929 1.384 . S
H932 C938 0.930 . S
H933 C942 0.930 . S
H934 C947 0.929 . S
H935 C945 0.929 . S
H936 C940 0.929 . S
H937 C946 0.929 . S
C938 H932 0.930 . S
C938 C939 1.367 . S
C938 C946 1.378 . S
C939 C938 1.367 . S
C939 C947 1.433 . S
C940 H936 0.929 . S
C940 C942 1.378 . S
C940 C944 1.350 . S
C941 C944 1.463 . S
C941 C946 1.350 . S
C941 N949 1.427 . S
C942 H933 0.930 . S
C942 C940 1.378 . S
C942 C943 1.367 . S
C943 C942 1.367 . S
C943 C945 1.433 . S
C944 C940 1.350 . S
C944 C941 1.463 . S
C944 N948 1.427 . S
C945 H935 0.929 . S
C945 C943 1.433 . S
C945 N948 1.384 . S
C946 H937 0.929 . S
C946 C938 1.378 . S
C946 C941 1.350 . S
C947 H934 0.929 . S
C947 C939 1.433 . S
C947 N949 1.384 . S
N948 C944 1.427 . S
N948 C945 1.384 . S
N949 C941 1.427 . S
N949 C947 1.384 . S
H950 C956 0.930 . S
H951 C960 0.930 . S
H952 C965 0.929 . S
H953 C963 0.929 . S
H954 C958 0.929 . S
H955 C964 0.929 . S
C956 H950 0.930 . S
C956 C957 1.367 . S
C956 C964 1.378 . S
C957 C956 1.367 . S
C957 C965 1.433 . S
C958 H954 0.929 . S
C958 C960 1.378 . S
C958 C962 1.350 . S
C959 C962 1.463 . S
C959 C964 1.350 . S
C959 N967 1.427 . S
C960 H951 0.930 . S
C960 C958 1.378 . S
C960 C961 1.367 . S
C961 C960 1.367 . S
C961 C963 1.433 . S
C962 C958 1.350 . S
C962 C959 1.463 . S
C962 N966 1.427 . S
C963 H953 0.929 . S
C963 C961 1.433 . S
C963 N966 1.384 . S
C964 H955 0.929 . S
C964 C956 1.378 . S
C964 C959 1.350 . S
C965 H952 0.929 . S
C965 C957 1.433 . S
C965 N967 1.384 . S
N966 C962 1.427 . S
N966 C963 1.384 . S
N967 C959 1.427 . S
N967 C965 1.384 . S
H968 C974 0.930 . S
H969 C978 0.930 . S
H970 C983 0.929 . S
H971 C981 0.929 . S
H972 C976 0.929 . S
H973 C982 0.929 . S
C974 H968 0.930 . S
C974 C975 1.367 . S
C974 C982 1.378 . S
C975 C974 1.367 . S
C975 C983 1.433 . S
C976 H972 0.929 . S
C976 C978 1.378 . S
C976 C980 1.350 . S
C977 C980 1.463 1_556 S
C977 C982 1.350 . S
C977 N985 1.427 . S
C978 H969 0.930 . S
C978 C976 1.378 . S
C978 C979 1.367 . S
C979 C978 1.367 . S
C979 C981 1.433 . S
C980 C976 1.350 . S
C980 C977 1.463 1_554 S
C980 N984 1.427 . S
C981 H971 0.929 . S
C981 C979 1.433 . S
C981 N984 1.384 . S
C982 H973 0.929 . S
C982 C974 1.378 . S
C982 C977 1.350 . S
C983 H970 0.929 . S
C983 C975 1.433 . S
C983 N985 1.384 . S
N984 C980 1.427 . S
N984 C981 1.384 . S
N985 C977 1.427 . S
N985 C983 1.384 . S
H986 C992 0.930 . S
H987 C996 0.930 . S
H988 C1001 0.929 . S
H989 C999 0.929 . S
H990 C994 0.929 . S
H991 C1000 0.929 1_556 S
C992 H986 0.930 . S
C992 C993 1.367 . S
C992 C1000 1.378 . S
C993 C992 1.367 . S
C993 C1001 1.433 . S
C994 H990 0.929 . S
C994 C996 1.378 1_554 S
C994 C998 1.350 1_554 S
C995 C998 1.463 1_554 S
C995 C1000 1.350 . S
C995 N1003 1.427 . S
C996 H987 0.930 . S
C996 C994 1.378 1_556 S
C996 C997 1.367 . S
C997 C996 1.367 . S
C997 C999 1.433 . S
C998 C994 1.350 1_556 S
C998 C995 1.463 1_556 S
C998 N1002 1.427 . S
C999 H989 0.929 . S
C999 C997 1.433 . S
C999 N1002 1.384 . S
C1000 H991 0.929 1_554 S
C1000 C992 1.378 . S
C1000 C995 1.350 . S
C1001 H988 0.929 . S
C1001 C993 1.433 . S
C1001 N1003 1.384 . S
N1002 C998 1.427 . S
N1002 C999 1.384 . S
N1003 C995 1.427 . S
N1003 C1001 1.384 . S
H1004 C1010 0.930 . S
H1005 C1014 0.930 . S
H1006 C1019 0.929 . S
H1007 C1017 0.929 . S
H1008 C1012 0.929 . S
H1009 C1018 0.929 1_554 S
C1010 H1004 0.930 . S
C1010 C1011 1.367 . S
C1010 C1018 1.378 . S
C1011 C1010 1.367 . S
C1011 C1019 1.433 . S
C1012 H1008 0.929 . S
C1012 C1014 1.378 . S
C1012 C1016 1.350 . S
C1013 C1016 1.463 1_556 S
C1013 C1018 1.350 . S
C1013 N1021 1.427 . S
C1014 H1005 0.930 . S
C1014 C1012 1.378 . S
C1014 C1015 1.367 . S
C1015 C1014 1.367 . S
C1015 C1017 1.433 . S
C1016 C1012 1.350 . S
C1016 C1013 1.463 1_554 S
C1016 N1020 1.427 . S
C1017 H1007 0.929 . S
C1017 C1015 1.433 . S
C1017 N1020 1.384 . S
C1018 H1009 0.929 1_556 S
C1018 C1010 1.378 . S
C1018 C1013 1.350 . S
C1019 H1006 0.929 . S
C1019 C1011 1.433 . S
C1019 N1021 1.384 . S
N1020 C1016 1.427 . S
N1020 C1017 1.384 . S
N1021 C1013 1.427 . S
N1021 C1019 1.384 . S
H1022 C1028 0.930 . S
H1023 C1032 0.930 . S
H1024 C1037 0.929 . S
H1025 C1035 0.929 . S
H1026 C1030 0.929 . S
H1027 C1036 0.929 . S
C1028 H1022 0.930 . S
C1028 C1029 1.367 . S
C1028 C1036 1.378 . S
C1029 C1028 1.367 . S
C1029 C1037 1.433 . S
C1030 H1026 0.929 . S
C1030 C1032 1.378 . S
C1030 C1034 1.350 . S
C1031 C1034 1.463 1_554 S
C1031 C1036 1.350 . S
C1031 N1039 1.427 . S
C1032 H1023 0.930 . S
C1032 C1030 1.378 . S
C1032 C1033 1.367 . S
C1033 C1032 1.367 . S
C1033 C1035 1.433 . S
C1034 C1030 1.350 . S
C1034 C1031 1.463 1_556 S
C1034 N1038 1.427 1_556 S
C1035 H1025 0.929 . S
C1035 C1033 1.433 . S
C1035 N1038 1.384 1_556 S
C1036 H1027 0.929 . S
C1036 C1028 1.378 . S
C1036 C1031 1.350 . S
C1037 H1024 0.929 . S
C1037 C1029 1.433 . S
C1037 N1039 1.384 . S
N1038 C1034 1.427 1_554 S
N1038 C1035 1.384 1_554 S
N1039 C1031 1.427 . S
N1039 C1037 1.384 . S
H1040 C1046 0.930 . S
H1041 C1050 0.930 . S
H1042 C1055 0.929 . S
H1043 C1053 0.929 . S
H1044 C1048 0.929 . S
H1045 C1054 0.929 . S
C1046 H1040 0.930 . S
C1046 C1047 1.367 . S
C1046 C1054 1.378 . S
C1047 C1046 1.367 . S
C1047 C1055 1.433 . S
C1048 H1044 0.929 . S
C1048 C1050 1.378 . S
C1048 C1052 1.350 . S
C1049 C1052 1.463 . S
C1049 C1054 1.350 . S
C1049 N1057 1.427 . S
C1050 H1041 0.930 . S
C1050 C1048 1.378 . S
C1050 C1051 1.367 . S
C1051 C1050 1.367 . S
C1051 C1053 1.433 . S
C1052 C1048 1.350 . S
C1052 C1049 1.463 . S
C1052 N1056 1.427 . S
C1053 H1043 0.929 . S
C1053 C1051 1.433 . S
C1053 N1056 1.384 . S
C1054 H1045 0.929 . S
C1054 C1046 1.378 . S
C1054 C1049 1.350 . S
C1055 H1042 0.929 . S
C1055 C1047 1.433 . S
C1055 N1057 1.384 . S
N1056 C1052 1.427 . S
N1056 C1053 1.384 . S
N1057 C1049 1.427 . S
N1057 C1055 1.384 . S
H1058 C1064 0.930 . S
H1059 C1068 0.930 . S
H1060 C1073 0.929 . S
H1061 C1071 0.929 . S
H1062 C1066 0.929 . S
H1063 C1072 0.929 . S
C1064 H1058 0.930 . S
C1064 C1065 1.367 . S
C1064 C1072 1.378 . S
C1065 C1064 1.367 . S
C1065 C1073 1.433 . S
C1066 H1062 0.929 . S
C1066 C1068 1.378 . S
C1066 C1070 1.350 . S
C1067 C1070 1.463 . S
C1067 C1072 1.350 . S
C1067 N1075 1.427 . S
C1068 H1059 0.930 . S
C1068 C1066 1.378 . S
C1068 C1069 1.367 . S
C1069 C1068 1.367 . S
C1069 C1071 1.433 . S
C1070 C1066 1.350 . S
C1070 C1067 1.463 . S
C1070 N1074 1.427 . S
C1071 H1061 0.929 . S
C1071 C1069 1.433 . S
C1071 N1074 1.384 . S
C1072 H1063 0.929 . S
C1072 C1064 1.378 . S
C1072 C1067 1.350 . S
C1073 H1060 0.929 . S
C1073 C1065 1.433 . S
C1073 N1075 1.384 . S
N1074 C1070 1.427 . S
N1074 C1071 1.384 . S
N1075 C1067 1.427 . S
N1075 C1073 1.384 . S
H1076 C1082 0.930 . S
H1077 C1086 0.930 . S
H1078 C1091 0.929 . S
H1079 C1089 0.929 . S
H1080 C1084 0.929 . S
H1081 C1090 0.929 . S
C1082 H1076 0.930 . S
C1082 C1083 1.367 . S
C1082 C1090 1.378 . S
C1083 C1082 1.367 . S
C1083 C1091 1.433 . S
C1084 H1080 0.929 . S
C1084 C1086 1.378 . S
C1084 C1088 1.350 . S
C1085 C1088 1.463 . S
C1085 C1090 1.350 . S
C1085 N1093 1.427 . S
C1086 H1077 0.930 . S
C1086 C1084 1.378 . S
C1086 C1087 1.367 . S
C1087 C1086 1.367 . S
C1087 C1089 1.433 . S
C1088 C1084 1.350 . S
C1088 C1085 1.463 . S
C1088 N1092 1.427 . S
C1089 H1079 0.929 . S
C1089 C1087 1.433 . S
C1089 N1092 1.384 . S
C1090 H1081 0.929 . S
C1090 C1082 1.378 . S
C1090 C1085 1.350 . S
C1091 H1078 0.929 . S
C1091 C1083 1.433 . S
C1091 N1093 1.384 . S
N1092 C1088 1.427 . S
N1092 C1089 1.384 . S
N1093 C1085 1.427 . S
N1093 C1091 1.384 . S
H1094 C1100 0.930 . S
H1095 C1104 0.930 . S
H1096 C1109 0.929 . S
H1097 C1107 0.929 . S
H1098 C1102 0.929 . S
H1099 C1108 0.929 . S
C1100 H1094 0.930 . S
C1100 C1101 1.367 . S
C1100 C1108 1.378 . S
C1101 C1100 1.367 . S
C1101 C1109 1.433 . S
C1102 H1098 0.929 . S
C1102 C1104 1.378 . S
C1102 C1106 1.350 . S
C1103 C1106 1.463 . S
C1103 C1108 1.350 . S
C1103 N1111 1.427 . S
C1104 H1095 0.930 . S
C1104 C1102 1.378 . S
C1104 C1105 1.367 . S
C1105 C1104 1.367 . S
C1105 C1107 1.433 . S
C1106 C1102 1.350 . S
C1106 C1103 1.463 . S
C1106 N1110 1.427 . S
C1107 H1097 0.929 . S
C1107 C1105 1.433 . S
C1107 N1110 1.384 . S
C1108 H1099 0.929 . S
C1108 C1100 1.378 . S
C1108 C1103 1.350 . S
C1109 H1096 0.929 . S
C1109 C1101 1.433 . S
C1109 N1111 1.384 . S
N1110 C1106 1.427 . S
N1110 C1107 1.384 . S
N1111 C1103 1.427 . S
N1111 C1109 1.384 . S
H1112 C1118 0.930 . S
H1113 C1122 0.930 . S
H1114 C1127 0.929 . S
H1115 C1125 0.929 . S
H1116 C1120 0.929 . S
H1117 C1126 0.929 . S
C1118 H1112 0.930 . S
C1118 C1119 1.367 . S
C1118 C1126 1.378 . S
C1119 C1118 1.367 . S
C1119 C1127 1.433 . S
C1120 H1116 0.929 . S
C1120 C1122 1.378 . S
C1120 C1124 1.350 . S
C1121 C1124 1.463 1_556 S
C1121 C1126 1.350 . S
C1121 N1129 1.427 . S
C1122 H1113 0.930 . S
C1122 C1120 1.378 . S
C1122 C1123 1.367 . S
C1123 C1122 1.367 . S
C1123 C1125 1.433 . S
C1124 C1120 1.350 . S
C1124 C1121 1.463 1_554 S
C1124 N1128 1.427 . S
C1125 H1115 0.929 . S
C1125 C1123 1.433 . S
C1125 N1128 1.384 . S
C1126 H1117 0.929 . S
C1126 C1118 1.378 . S
C1126 C1121 1.350 . S
C1127 H1114 0.929 . S
C1127 C1119 1.433 . S
C1127 N1129 1.384 . S
N1128 C1124 1.427 . S
N1128 C1125 1.384 . S
N1129 C1121 1.427 . S
N1129 C1127 1.384 . S
H1130 C1136 0.930 . S
H1131 C1140 0.930 . S
H1132 C1145 0.929 . S
H1133 C1143 0.929 . S
H1134 C1138 0.929 . S
H1135 C1144 0.929 . S
C1136 H1130 0.930 . S
C1136 C1137 1.367 . S
C1136 C1144 1.378 . S
C1137 C1136 1.367 . S
C1137 C1145 1.433 . S
C1138 H1134 0.929 . S
C1138 C1140 1.378 . S
C1138 C1142 1.350 . S
C1139 C1142 1.463 1_556 S
C1139 C1144 1.350 . S
C1139 N1147 1.427 . S
C1140 H1131 0.930 . S
C1140 C1138 1.378 . S
C1140 C1141 1.367 . S
C1141 C1140 1.367 . S
C1141 C1143 1.433 . S
C1142 C1138 1.350 . S
C1142 C1139 1.463 1_554 S
C1142 N1146 1.427 1_554 S
C1143 H1133 0.929 . S
C1143 C1141 1.433 . S
C1143 N1146 1.384 1_554 S
C1144 H1135 0.929 . S
C1144 C1136 1.378 . S
C1144 C1139 1.350 . S
C1145 H1132 0.929 . S
C1145 C1137 1.433 . S
C1145 N1147 1.384 . S
N1146 C1142 1.427 1_556 S
N1146 C1143 1.384 1_556 S
N1147 C1139 1.427 . S
N1147 C1145 1.384 . S
H1148 C1154 0.930 . S
H1149 C1158 0.930 . S
H1150 C1163 0.929 . S
H1151 C1161 0.929 . S
H1152 C1156 0.929 1_554 S
H1153 C1162 0.929 . S
C1154 H1148 0.930 . S
C1154 C1155 1.367 . S
C1154 C1162 1.378 1_554 S
C1155 C1154 1.367 . S
C1155 C1163 1.433 . S
C1156 H1152 0.929 1_556 S
C1156 C1158 1.378 . S
C1156 C1160 1.350 . S
C1157 C1160 1.463 1_554 S
C1157 C1162 1.350 1_554 S
C1157 N1165 1.427 . S
C1158 H1149 0.930 . S
C1158 C1156 1.378 . S
C1158 C1159 1.367 . S
C1159 C1158 1.367 . S
C1159 C1161 1.433 . S
C1160 C1156 1.350 . S
C1160 C1157 1.463 1_556 S
C1160 N1164 1.427 . S
C1161 H1151 0.929 . S
C1161 C1159 1.433 . S
C1161 N1164 1.384 . S
C1162 H1153 0.929 . S
C1162 C1154 1.378 1_556 S
C1162 C1157 1.350 1_556 S
C1163 H1150 0.929 . S
C1163 C1155 1.433 . S
C1163 N1165 1.384 . S
N1164 C1160 1.427 . S
N1164 C1161 1.384 . S
N1165 C1157 1.427 . S
N1165 C1163 1.384 . S
H1166 C1172 0.930 . S
H1167 C1176 0.930 . S
H1168 C1181 0.929 . S
H1169 C1179 0.929 . S
H1170 C1174 0.929 1_554 S
H1171 C1180 0.928 . S
C1172 H1166 0.930 . S
C1172 C1173 1.367 . S
C1172 C1180 1.378 1_554 S
C1173 C1172 1.367 . S
C1173 C1181 1.433 . S
C1174 H1170 0.929 1_556 S
C1174 C1176 1.378 . S
C1174 C1178 1.350 . S
C1175 C1178 1.463 1_554 S
C1175 C1180 1.350 1_554 S
C1175 N1183 1.427 . S
C1176 H1167 0.930 . S
C1176 C1174 1.378 . S
C1176 C1177 1.367 . S
C1177 C1176 1.367 . S
C1177 C1179 1.433 . S
C1178 C1174 1.350 . S
C1178 C1175 1.463 1_556 S
C1178 N1182 1.427 . S
C1179 H1169 0.929 . S
C1179 C1177 1.433 . S
C1179 N1182 1.384 . S
C1180 H1171 0.928 . S
C1180 C1172 1.378 1_556 S
C1180 C1175 1.350 1_556 S
C1181 H1168 0.929 . S
C1181 C1173 1.433 . S
C1181 N1183 1.384 . S
N1182 C1178 1.427 . S
N1182 C1179 1.384 . S
N1183 C1175 1.427 . S
N1183 C1181 1.384 . S
C327 C18 1.936 . S
C331 C118 1.929 . S
C345 C138 1.939 . S
C349 C38 1.931 . S
C363 C58 1.940 . S
C367 C158 1.931 . S
C381 C78 1.930 . S
C385 C98 1.936 . S
C399 C279 1.942 . S
C403 C179 1.939 . S
C417 C299 1.940 . S
C421 C199 1.942 . S
C435 C219 1.940 . S
C439 C319 1.942 . S
C453 C239 1.930 . S
C457 C259 1.934 . S
C471 C9 1.777 . S
C475 C62 1.673 . S
C489 C29 1.764 . S
C493 C2 1.654 . S
C507 C49 1.769 . S
C511 C22 1.666 . S
C525 C69 1.766 . S
C529 C42 1.653 . S
C543 C89 1.776 . S
C547 C102 1.673 . S
C561 C122 1.657 . S
C565 C109 1.764 . S
C579 C129 1.778 . S
C583 C142 1.672 . S
C597 C82 1.672 . S
C601 C149 1.778 . S
C615 C224 1.673 . S
C619 C172 1.776 . S
C633 C192 1.764 . S
C637 C164 1.655 . S
C651 C212 1.767 . S
C655 C184 1.653 . S
C669 C232 1.774 . S
C673 C204 1.661 . S
C687 C252 1.767 . S
C691 C264 1.664 . S
C705 C272 1.771 . S
C709 C284 1.670 . S
C723 C292 1.766 . S
C727 C304 1.661 . S
C741 C312 1.764 . S
C745 C244 1.655 . S
C759 C12 0.544 . S
C763 C52 0.550 . S
C777 C32 0.580 . S
C781 C72 0.562 . S
C795 C132 0.577 . S
C799 C92 0.548 . S
C813 C152 0.540 . S
C817 C112 0.565 . S
C831 C209 0.562 . S
C835 C169 0.540 . S
C849 C229 0.564 . S
C853 C189 0.579 . S
C867 C249 0.558 . S
C871 C289 0.540 . S
C885 C269 0.566 . S
C889 C309 0.579 . S
C903 C4 1.211 . S
C907 C238 1.289 . S
C921 C178 1.298 . S
C925 C24 1.222 . S
C939 C44 1.221 . S
C943 C198 1.284 . S
C957 C218 1.294 . S
C961 C64 1.235 . S
C975 C278 1.289 . S
C979 C84 1.232 . S
C993 C104 1.233 . S
C997 C298 1.299 . S
C1011 C318 1.293 . S
C1015 C124 1.213 . S
C1029 C144 1.214 . S
C1033 C258 1.284 . S
C1047 C162 1.235 . S
C1051 C79 1.298 . S
C1065 C182 1.220 . S
C1069 C19 1.298 . S
C1083 C39 1.299 . S
C1087 C202 1.223 . S
C1101 C222 1.226 . S
C1105 C59 1.286 . S
C1119 C242 1.232 . S
C1123 C119 1.289 . S
C1137 C262 1.221 . S
C1141 C139 1.284 . S
C1155 C159 1.298 . S
C1159 C282 1.222 . S
C1173 C99 1.298 . S
C1177 C302 1.235 . S
