# Generated by pormake.
# Topology umy, (4)-cn, num edge types: 1
# Building blocks:
#     Node 0, Type 0, BuildingBlock: QUQFOY_clean_sbu_1, # of connection points: 4
#     Node 1, Type 0, BuildingBlock: QUQFOY_clean_sbu_1, # of connection points: 4
#     Node 2, Type 0, BuildingBlock: QUQFOY_clean_sbu_1, # of connection points: 4
#     Node 3, Type 0, BuildingBlock: QUQFOY_clean_sbu_1, # of connection points: 4
#     Node 4, Type 0, BuildingBlock: QUQFOY_clean_sbu_1, # of connection points: 4
#     Node 5, Type 0, BuildingBlock: QUQFOY_clean_sbu_1, # of connection points: 4
#     Node 6, Type 0, BuildingBlock: QUQFOY_clean_sbu_1, # of connection points: 4
#     Node 7, Type 0, BuildingBlock: QUQFOY_clean_sbu_1, # of connection points: 4
#     Node 8, Type 0, BuildingBlock: QUQFOY_clean_sbu_1, # of connection points: 4
#     Node 9, Type 0, BuildingBlock: QUQFOY_clean_sbu_1, # of connection points: 4
#     Node 10, Type 0, BuildingBlock: QUQFOY_clean_sbu_1, # of connection points: 4
#     Node 11, Type 0, BuildingBlock: QUQFOY_clean_sbu_1, # of connection points: 4
#     Edge 12, Type (0, 0), BuildingBlock: XUDNAN_clean_linker_2, # of connection points: 2
#     Edge 13, Type (0, 0), BuildingBlock: XUDNAN_clean_linker_2, # of connection points: 2
#     Edge 14, Type (0, 0), BuildingBlock: XUDNAN_clean_linker_2, # of connection points: 2
#     Edge 15, Type (0, 0), BuildingBlock: XUDNAN_clean_linker_2, # of connection points: 2
#     Edge 16, Type (0, 0), BuildingBlock: XUDNAN_clean_linker_2, # of connection points: 2
#     Edge 17, Type (0, 0), BuildingBlock: XUDNAN_clean_linker_2, # of connection points: 2
#     Edge 18, Type (0, 0), BuildingBlock: XUDNAN_clean_linker_2, # of connection points: 2
#     Edge 19, Type (0, 0), BuildingBlock: XUDNAN_clean_linker_2, # of connection points: 2
#     Edge 20, Type (0, 0), BuildingBlock: XUDNAN_clean_linker_2, # of connection points: 2
#     Edge 21, Type (0, 0), BuildingBlock: XUDNAN_clean_linker_2, # of connection points: 2
#     Edge 22, Type (0, 0), BuildingBlock: XUDNAN_clean_linker_2, # of connection points: 2
#     Edge 23, Type (0, 0), BuildingBlock: XUDNAN_clean_linker_2, # of connection points: 2
#     Edge 24, Type (0, 0), BuildingBlock: XUDNAN_clean_linker_2, # of connection points: 2
#     Edge 25, Type (0, 0), BuildingBlock: XUDNAN_clean_linker_2, # of connection points: 2
#     Edge 26, Type (0, 0), BuildingBlock: XUDNAN_clean_linker_2, # of connection points: 2
#     Edge 27, Type (0, 0), BuildingBlock: XUDNAN_clean_linker_2, # of connection points: 2
#     Edge 28, Type (0, 0), BuildingBlock: XUDNAN_clean_linker_2, # of connection points: 2
#     Edge 29, Type (0, 0), BuildingBlock: XUDNAN_clean_linker_2, # of connection points: 2
#     Edge 30, Type (0, 0), BuildingBlock: XUDNAN_clean_linker_2, # of connection points: 2
#     Edge 31, Type (0, 0), BuildingBlock: XUDNAN_clean_linker_2, # of connection points: 2
#     Edge 32, Type (0, 0), BuildingBlock: XUDNAN_clean_linker_2, # of connection points: 2
#     Edge 33, Type (0, 0), BuildingBlock: XUDNAN_clean_linker_2, # of connection points: 2
#     Edge 34, Type (0, 0), BuildingBlock: XUDNAN_clean_linker_2, # of connection points: 2
#     Edge 35, Type (0, 0), BuildingBlock: XUDNAN_clean_linker_2, # of connection points: 2
# Relax obj value: 0.088
# Max RMSD: 0.117
# Mean RMSD: 0.117
data_MOF--net-umy--node1-QUQFOY_clean_sbu_1--edge1-XUDNAN_clean_linker_2
_symmetry_space_group_name_H-M    P1
_symmetry_Int_Tables_number       1
_symmetry_cell_setting            triclinic
loop_
_symmetry_equiv_pos_as_xyz
'x, y, z'
_cell_length_a     40.857914
_cell_length_b     40.921653
_cell_length_c     51.313929
_cell_angle_alpha  90.010628
_cell_angle_beta   89.794794
_cell_angle_gamma 119.96748
loop_
_atom_site_label
_atom_site_type_symbol
_atom_site_fract_x
_atom_site_fract_y
_atom_site_fract_z
_atom_type_partial_charge
O0 O 1.01781 0.32958 0.15127 0.0
Cd1 Cd 0.07023 0.37748 0.14794 0.0
Cd2 Cd 0.08872 0.32152 0.12751 0.0
O3 O 0.03256 0.28665 0.13883 0.0
O4 O 0.06138 0.41945 0.15855 0.0
O5 O 0.08143 0.41588 0.11925 0.0
C6 C 0.07214 0.43382 0.13566 0.0
C7 C 0.11259 0.30892 0.08941 0.0
C8 C 1.0087 0.29532 0.14765 0.0
C9 C 0.13215 0.36866 0.17387 0.0
O10 O 0.12824 0.34464 0.15669 0.0
O11 O 0.11142 0.38365 0.17408 0.0
O12 O 0.10197 0.28647 0.10914 0.0
O13 O 0.10833 0.33809 0.09068 0.0
O14 O 0.70406 0.0217 0.3271 0.0
Cd15 Cd 0.70715 0.071 0.31336 0.0
Cd16 Cd 0.77389 0.08208 0.2962 0.0
O17 O 0.75017 0.02464 0.30276 0.0
O18 O 0.65487 0.06362 0.31175 0.0
O19 O 0.69052 0.07282 0.27687 0.0
C20 C 0.65892 0.06704 0.28677 0.0
C21 C 0.80465 0.11198 0.25734 0.0
C22 C 0.72306 1.00688 0.31876 0.0
C23 C 0.774 0.13023 0.34043 0.0
O24 O 0.7917 0.1161 0.32898 0.0
O25 O 0.73986 0.11932 0.33468 0.0
O26 O 0.81991 0.09966 0.2737 0.0
O27 O 0.77097 0.10564 0.26246 0.0
O28 O 0.71949 0.69916 0.48205 0.0
Cd29 Cd 0.66717 0.69508 0.48039 0.0
Cd30 Cd 0.70679 0.76938 0.46689 0.0
O31 O 0.75197 0.76009 0.47295 0.0
O32 O 0.6267 0.64151 0.47556 0.0
O33 O 0.63959 0.68662 0.4466 0.0
C34 C 0.6192 0.65172 0.45362 0.0
C35 C 0.70752 0.80565 0.43111 0.0
C36 C 0.75101 0.72944 0.4792 0.0
C37 C 0.66066 0.74835 0.51665 0.0
O38 O 0.68028 0.77384 0.50006 0.0
O39 O 0.65248 0.71447 0.51281 0.0
O40 O 0.72801 0.82101 0.45138 0.0
O41 O 0.68718 0.76932 0.43062 0.0
O42 O 1.00903 0.68374 0.66214 0.0
Cd43 Cd 0.95644 0.63955 0.65189 0.0
Cd44 Cd 0.95827 0.69692 0.62285 0.0
O45 O 1.01582 0.72276 0.63017 0.0
O46 O 0.95589 0.59222 0.66241 0.0
O47 O 0.95112 0.60581 0.62142 0.0
C48 C 0.95279 0.58305 0.63813 0.0
C49 C 0.93599 0.70743 0.58327 0.0
C50 C 0.02916 0.71438 0.64977 0.0
C51 C 0.90727 0.66776 0.67085 0.0
O52 O 0.92519 0.69405 0.65435 0.0
O53 O 0.91185 0.63924 0.6713 0.0
O54 O 0.9547 0.73425 0.59956 0.0
O55 O 0.93113 0.6745 0.58874 0.0
O56 O 0.33424 1.00379 0.82226 0.0
Cd57 Cd 0.33137 0.95332 0.81205 0.0
Cd58 Cd 0.2633 0.93866 0.79598 0.0
O59 O 0.28402 0.99599 0.80079 0.0
O60 O 0.3838 0.96172 0.80911 0.0
O61 O 0.34437 0.94515 0.77581 0.0
C62 C 0.37712 0.95329 0.78474 0.0
C63 C 0.22952 0.90523 0.75916 0.0
C64 C 0.31299 0.01639 0.81462 0.0
C65 C 0.26785 0.89652 0.84301 0.0
O66 O 0.24843 0.90711 0.82994 0.0
O67 O 0.30235 0.90887 0.8374 0.0
O68 O 0.21433 0.91587 0.77682 0.0
O69 O 0.26475 0.91523 0.7616 0.0
O70 O 0.3348 0.3294 0.98681 0.0
Cd71 Cd 0.38829 0.33608 0.98422 0.0
Cd72 Cd 0.34896 0.26327 0.96012 0.0
O73 O 0.30424 0.2707 0.97222 0.0
O74 O 0.42591 0.39001 0.99138 0.0
O75 O 0.42397 0.36228 0.95399 0.0
C76 C 0.44017 0.3919 0.96859 0.0
C77 C 0.34026 0.2254 0.9233 0.0
C78 C 0.30396 0.29918 0.98212 0.0
C79 C 0.39645 0.27425 0.00841 0.0
O80 O 0.37975 0.25476 0.98846 0.0
O81 O 0.40063 0.30686 0.01158 0.0
O82 O 0.32348 0.21129 0.94508 0.0
O83 O 0.36095 0.26161 0.92171 0.0
O84 O 0.69717 1.00238 0.67971 0.0
Cd85 Cd 0.64909 0.95232 0.6883 0.0
Cd86 Cd 0.70074 0.93922 0.71562 0.0
O87 O 0.73683 0.99575 0.70542 0.0
O88 O 0.60593 0.95919 0.67789 0.0
O89 O 0.61475 0.94704 0.71841 0.0
C90 C 0.59471 0.9532 0.70181 0.0
C91 C 0.70362 0.91626 0.75687 0.0
C92 C 0.72999 0.01515 0.68921 0.0
C93 C 0.66035 0.88978 0.66901 0.0
O94 O 0.6852 0.8988 0.68664 0.0
O95 O 0.64189 0.90699 0.66678 0.0
O96 O 0.73091 0.92708 0.74037 0.0
O97 O 0.67503 0.9199 0.75058 0.0
O98 O 0.70075 0.70282 0.85536 0.0
Cd99 Cd 0.70598 0.65511 0.85957 0.0
Cd100 Cd 0.77134 0.70505 0.88174 0.0
O101 O 0.74823 0.73996 0.88096 0.0
O102 O 0.65464 0.60866 0.86106 0.0
O103 O 0.69416 0.6296 0.8944 0.0
C104 C 0.66159 0.60519 0.88513 0.0
C105 C 0.80263 0.69919 0.91832 0.0
C106 C 0.72064 0.73453 0.86655 0.0
C107 C 0.77431 0.67395 0.8289 0.0
O108 O 0.79107 0.69953 0.84593 0.0
O109 O 0.73968 0.64913 0.83176 0.0
O110 O 0.81705 0.72983 0.90476 0.0
O111 O 0.76963 0.67221 0.91171 0.0
O112 O 1.01761 0.69249 0.02484 0.0
Cd113 Cd 0.07099 0.7012 0.0338 0.0
Cd114 Cd 0.08367 0.77246 0.04509 0.0
O115 O 0.02673 0.7483 0.03682 0.0
O116 O 0.06609 0.65009 0.03538 0.0
O117 O 0.0815 0.68798 0.06944 0.0
C118 C 0.07487 0.65612 0.0597 0.0
C119 C 0.11058 0.80985 0.08216 0.0
C120 C 1.00543 0.71549 0.02762 0.0
C121 C 0.12771 0.76565 1.00072 0.0
O122 O 0.11808 0.78664 0.01281 0.0
O123 O 0.11404 0.73122 0.00712 0.0
O124 O 0.09753 0.82084 0.06336 0.0
O125 O 0.10748 0.77692 0.08043 0.0
O126 O 0.33139 0.0133 0.18467 0.0
Cd127 Cd 0.38462 0.06048 0.18863 0.0
Cd128 Cd 0.34248 0.09366 0.20679 0.0
O129 O 0.29874 0.03968 0.19856 0.0
O130 O 0.42121 0.04262 0.1815 0.0
O131 O 0.4197 0.06845 0.2189 0.0
C132 C 0.43532 0.05432 0.20429 0.0
C133 C 0.34114 0.12382 0.24545 0.0
C134 C 0.29982 1.01135 0.18928 0.0
C135 C 0.38982 0.12694 0.15857 0.0
O136 O 0.36762 0.12883 0.17513 0.0
O137 O 0.39957 0.10204 0.16079 0.0
O138 O 0.31796 0.11785 0.22669 0.0
O139 O 0.36474 0.11175 0.24264 0.0
O140 O 0.34491 0.33544 0.35756 0.0
Cd141 Cd 0.34112 0.3838 0.36039 0.0
Cd142 Cd 0.26501 0.33016 0.37452 0.0
O143 O 0.28502 0.29357 0.36562 0.0
O144 O 0.3933 0.4248 0.35145 0.0
O145 O 0.367 0.42139 0.3897 0.0
C146 C 0.39558 0.43888 0.37422 0.0
C147 C 0.2296 0.32214 0.41249 0.0
C148 C 0.31833 0.30138 0.35929 0.0
C149 C 0.27575 0.37717 0.32733 0.0
O150 O 0.25203 0.35232 0.34281 0.0
O151 O 0.31105 0.39211 0.33131 0.0
O152 O 0.21634 0.29836 0.39358 0.0
O153 O 0.26353 0.35038 0.41031 0.0
O154 O 0.02349 0.33065 0.52035 0.0
Cd155 Cd 0.97351 0.33159 0.52686 0.0
Cd156 Cd 0.94819 0.25908 0.5434 0.0
O157 O 1.00357 0.27345 0.53611 0.0
O158 O 0.98378 0.38449 0.53147 0.0
O159 O 0.95925 0.34101 0.56243 0.0
C160 C 0.97008 0.37503 0.55474 0.0
C161 C 0.91587 0.22172 0.57978 0.0
C162 C 0.02941 0.30356 0.52554 0.0
C163 C 0.91278 0.27116 0.49505 0.0
O164 O 0.91554 0.24844 0.51053 0.0
O165 O 0.93243 0.30655 0.49854 0.0
O166 O 0.92324 0.20773 0.55965 0.0
O167 O 0.92796 0.2575 0.5799 0.0
H168 H 0.07576 0.5929 0.04289 0.0
H169 H 0.07809 0.65349 0.11293 0.0
H170 H 0.07872 0.60368 0.13982 0.0
H171 H 1.01541 0.49999 0.06703 0.0
H172 H 0.04012 0.47957 0.05079 0.0
H173 H 0.04055 0.52026 0.03703 0.0
H174 H 0.11375 0.55647 0.03692 0.0
H175 H 0.11355 0.51584 0.05063 0.0
H176 H 0.13867 0.56081 0.06681 0.0
H177 H 0.07564 0.54574 0.15902 0.0
H178 H 0.07291 0.48559 0.16941 0.0
H179 H 0.07553 0.46375 0.08687 0.0
C180 C 0.07652 0.59577 0.06389 0.0
C181 C 0.07672 0.62705 0.07584 0.0
C182 C 0.07796 0.62985 0.10336 0.0
C183 C 0.07827 0.60166 0.11878 0.0
C184 C 0.07776 0.57108 0.10638 0.0
C185 C 0.0773 0.56814 0.07956 0.0
C186 C 0.07705 0.53247 0.07111 0.0
C187 C 0.04114 0.50655 0.05558 0.0
C188 C 0.11289 0.54198 0.05544 0.0
C189 C 0.07691 0.51551 0.09739 0.0
C190 C 0.07718 0.53821 0.11746 0.0
C191 C 0.07576 0.52793 0.14348 0.0
C192 C 0.07409 0.49361 0.14916 0.0
C193 C 0.07417 0.47002 0.12896 0.0
C194 C 0.0758 0.48133 0.10273 0.0
H195 H 0.59722 0.07287 0.30139 0.0
H196 H 0.65085 0.05439 0.23426 0.0
H197 H 0.59868 0.04764 0.20635 0.0
H198 H 0.50084 1.00816 0.28375 0.0
H199 H 0.48313 0.03811 0.29514 0.0
H200 H 0.52425 0.04078 0.31005 0.0
H201 H 0.5625 0.11245 0.30029 0.0
H202 H 0.52147 0.11003 0.28544 0.0
H203 H 0.56508 0.12887 0.26733 0.0
H204 H 0.54007 0.04113 0.18601 0.0
H205 H 0.48144 0.04023 0.17364 0.0
H206 H 0.46687 0.06614 0.25343 0.0
C207 C 0.59793 0.06731 0.28082 0.0
C208 C 0.62801 0.06392 0.27 0.0
C209 C 0.62813 0.0571 0.24296 0.0
C210 C 0.59856 0.05311 0.22697 0.0
C211 C 0.56927 0.05643 0.23826 0.0
C212 C 0.56889 0.0638 0.26449 0.0
C213 C 0.53463 0.06728 0.27151 0.0
C214 C 0.50921 0.03676 0.29128 0.0
C215 C 0.54665 0.10702 0.28174 0.0
C216 C 0.51568 0.06049 0.24514 0.0
C217 C 0.53602 0.05397 0.22631 0.0
C218 C 0.52401 0.04638 0.20055 0.0
C219 C 0.49054 0.04581 0.19375 0.0
C220 C 0.46951 0.05317 0.21253 0.0
C221 C 0.48233 0.06051 0.23861 0.0
H222 H 0.55727 0.58562 0.46913 0.0
H223 H 0.61002 0.65589 0.4012 0.0
H224 H 0.55797 0.60933 0.37368 0.0
H225 H 0.52221 0.49596 0.43837 0.0
H226 H 0.47833 0.47359 0.45632 0.0
H227 H 0.51982 0.51225 0.47059 0.0
H228 H 0.48349 0.54838 0.47774 0.0
H229 H 0.44186 0.50982 0.46348 0.0
H230 H 0.46102 0.55679 0.45043 0.0
H231 H 0.5023 0.55358 0.35334 0.0
H232 H 0.44412 0.49472 0.34179 0.0
H233 H 0.4247 0.46266 0.42339 0.0
C234 C 0.55789 0.59114 0.44845 0.0
C235 C 0.58782 0.62418 0.4372 0.0
C236 C 0.58738 0.63073 0.41016 0.0
C237 C 0.55798 0.60444 0.3944 0.0
C238 C 0.52895 0.5721 0.40608 0.0
C239 C 0.52839 0.56557 0.43253 0.0
C240 C 0.49339 0.52899 0.4403 0.0
C241 C 0.50409 0.50105 0.45209 0.0
C242 C 0.46847 0.53646 0.4591 0.0
C243 C 0.47461 0.51563 0.414 0.0
C244 C 0.49579 0.54082 0.39452 0.0
C245 C 0.48527 0.53388 0.36845 0.0
C246 C 0.45226 0.50032 0.36208 0.0
C247 C 0.42981 0.47434 0.38172 0.0
C248 C 0.44104 0.4823 0.40804 0.0
H249 H 0.96396 0.56306 0.58894 0.0
H250 H 0.94067 0.52373 0.66904 0.0
H251 H 0.94186 0.46615 0.65641 0.0
H252 H 0.90879 0.47147 0.55813 0.0
H253 H 0.94236 0.48204 0.53208 0.0
H254 H 0.93806 0.51946 0.5472 0.0
H255 H 1.00964 0.55466 0.55756 0.0
H256 H 1.01412 0.51728 0.54258 0.0
H257 H 0.02927 0.53084 0.57574 0.0
H258 H 0.94576 0.41273 0.63518 0.0
H259 H 0.9536 0.36813 0.60696 0.0
H260 H 0.97686 0.44309 0.54098 0.0
C261 C 0.95875 0.54216 0.60376 0.0
C262 C 0.95202 0.54786 0.62998 0.0
C263 C 0.94585 0.52002 0.64884 0.0
C264 C 0.94644 0.48717 0.64185 0.0
C265 C 0.9535 0.48256 0.61593 0.0
C266 C 0.95966 0.50931 0.59716 0.0
C267 C 0.96779 0.49794 0.57084 0.0
C268 C 0.93744 0.49239 0.55089 0.0
C269 C 1.00757 0.5269 0.56112 0.0
C270 C 0.9653 0.46072 0.57777 0.0
C271 C 0.95678 0.45225 0.60384 0.0
C272 C 0.95254 0.41912 0.61474 0.0
C273 C 0.95705 0.39395 0.59855 0.0
C274 C 0.96606 0.40215 0.5718 0.0
C275 C 0.9703 0.43611 0.5614 0.0
H276 H 0.56892 0.95388 0.75143 0.0
H277 H 0.54115 0.95209 0.66966 0.0
H278 H 0.48239 0.95133 0.68194 0.0
H279 H 0.47391 0.89278 0.77462 0.0
H280 H 0.48038 0.91883 0.80431 0.0
H281 H 0.52009 0.91858 0.78916 0.0
H282 H 0.55629 0.99165 0.78765 0.0
H283 H 0.5167 0.99212 0.80279 0.0
H284 H 0.53487 0.0158 0.77207 0.0
H285 H 0.42598 0.94959 0.70297 0.0
H286 H 0.37724 0.94994 0.73145 0.0
H287 H 0.4426 0.95529 0.79949 0.0
C288 C 0.55042 0.95323 0.73613 0.0
C289 C 0.55962 0.95294 0.70957 0.0
C290 C 0.53478 0.95238 0.69013 0.0
C291 C 0.50126 0.95187 0.6969 0.0
C292 C 0.49302 0.9522 0.72321 0.0
C293 C 0.51696 0.9531 0.74254 0.0
C294 C 0.50176 0.95411 0.76934 0.0
C295 C 0.49354 0.91898 0.78529 0.0
C296 C 0.52903 0.99059 0.78381 0.0
C297 C 0.46557 0.95357 0.76203 0.0
C298 C 0.46094 0.9522 0.73533 0.0
C299 C 0.42936 0.95083 0.72392 0.0
C300 C 0.40181 0.95098 0.74025 0.0
C301 C 0.40618 0.95284 0.76766 0.0
C302 C 0.43856 0.95416 0.77859 0.0
H303 H 0.46845 0.41463 0.91872 0.0
H304 H 0.49135 0.44722 1.00003 0.0
H305 H 0.55114 0.50371 0.98752 0.0
H306 H 0.56463 0.44664 0.89877 0.0
H307 H 0.56012 0.46438 0.86764 0.0
H308 H 0.51937 0.42565 0.88282 0.0
H309 H 0.48354 0.46286 0.88012 0.0
H310 H 0.5241 0.50161 0.86481 0.0
H311 H 0.50443 0.50944 0.89406 0.0
H312 H 0.60941 0.55551 0.96666 0.0
H313 H 0.6595 0.60298 0.93827 0.0
H314 H 0.59771 0.53984 0.87006 0.0
C315 C 0.4861 0.43368 0.93385 0.0
C316 C 0.47526 0.42641 0.96039 0.0
C317 C 0.49895 0.45222 0.97959 0.0
C318 C 0.5331 0.48433 0.9727 0.0
C319 C 0.54308 0.49063 0.94645 0.0
C320 C 0.52011 0.46638 0.92726 0.0
C321 C 0.53695 0.48075 0.90041 0.0
C322 C 0.54579 0.45268 0.8866 0.0
C323 C 0.51069 0.48917 0.88388 0.0
C324 C 0.57292 0.51674 0.90758 0.0
C325 C 0.57608 0.52156 0.93428 0.0
C326 C 0.60715 0.55219 0.9457 0.0
C327 C 0.63555 0.57894 0.92942 0.0
C328 C 0.63248 0.57525 0.90196 0.0
C329 C 0.60075 0.54356 0.89098 0.0
H330 H 0.17766 0.36023 0.06477 0.0
H331 H 0.09157 0.2421 0.06549 0.0
H332 H 0.12775 0.2287 0.03263 0.0
H333 H 0.20744 0.36706 0.99476 0.0
H334 H 0.25661 0.39705 1.00265 0.0
H335 H 0.22067 0.39878 0.02211 0.0
H336 H 0.24784 0.38514 0.06359 0.0
H337 H 0.28368 0.38323 0.04431 0.0
H338 H 0.2528 0.34378 0.0647 0.0
H339 H 0.17583 0.22692 1.00323 0.0
H340 H 0.23404 0.23551 0.9824 0.0
H341 H 0.29155 0.35425 1.003 0.0
C342 C 0.16587 0.33187 0.0572 0.0
C343 C 0.13139 0.30229 0.06705 0.0
C344 C 0.11761 0.26516 0.05776 0.0
C345 C 0.13793 0.25735 0.03908 0.0
C346 C 0.17233 0.28692 0.03016 0.0
C347 C 0.18635 0.32344 0.03901 0.0
C348 C 0.22626 0.349 0.02904 0.0
C349 C 0.22782 0.37979 0.01107 0.0
C350 C 0.25428 0.36628 0.05176 0.0
C351 C 0.23284 0.32098 0.01383 0.0
C352 C 0.20104 0.28554 0.01422 0.0
C353 C 0.20077 0.25464 1.00257 0.0
C354 C 0.23407 0.25984 0.99074 0.0
C355 C 0.26754 0.29558 0.99097 0.0
C356 C 0.26647 0.32663 1.00226 0.0
H357 H 0.87283 0.12381 0.23867 0.0
H358 H 0.78666 0.15434 0.22542 0.0
H359 H 0.8271 0.20014 0.19183 0.0
H360 H 0.95018 0.21356 0.23431 0.0
H361 H 0.9807 0.20029 0.21765 0.0
H362 H 0.94323 0.16672 0.23822 0.0
H363 H 0.91647 0.11963 0.19975 0.0
H364 H 0.95403 0.1531 0.17903 0.0
H365 H 0.90548 0.13433 0.16948 0.0
H366 H 0.88081 0.24941 0.16492 0.0
H367 H 0.94182 0.29497 0.14449 0.0
H368 H 0.99151 0.22978 0.17276 0.0
C369 C 0.86206 0.13947 0.22827 0.0
C370 C 0.82648 0.13539 0.23467 0.0
C371 C 0.81365 0.15672 0.22076 0.0
C372 C 0.83646 0.18287 0.20164 0.0
C373 C 0.8718 0.18691 0.19629 0.0
C374 C 0.88428 0.16533 0.2089 0.0
C375 C 0.92422 0.17657 0.2006 0.0
C376 C 0.95115 0.19009 0.22409 0.0
C377 C 0.92508 0.14396 0.18637 0.0
C378 C 0.9328 0.20877 0.18209 0.0
C379 C 0.90216 0.21425 0.17982 0.0
C380 C 0.90463 0.24476 0.16599 0.0
C381 C 0.93936 0.27052 0.15448 0.0
C382 C 0.97103 0.26537 0.15655 0.0
C383 C 0.96737 0.23366 0.17012 0.0
H384 H 0.71011 0.87312 0.43553 0.0
H385 H 0.70264 0.7915 0.37858 0.0
H386 H 0.7042 0.83331 0.34292 0.0
H387 H 0.64821 0.89824 0.40072 0.0
H388 H 0.67428 0.94692 0.41069 0.0
H389 H 0.67306 0.91071 0.43132 0.0
H390 H 0.74626 0.94544 0.43137 0.0
H391 H 0.74769 0.98172 0.41076 0.0
H392 H 0.77145 0.95665 0.40078 0.0
H393 H 0.71295 0.88792 0.31362 0.0
H394 H 0.7201 0.94637 0.2935 0.0
H395 H 0.71389 0.98778 0.36999 0.0
C396 C 0.70878 0.86407 0.41553 0.0
C397 C 0.70672 0.82938 0.40968 0.0
C398 C 0.70431 0.81807 0.38337 0.0
C399 C 0.70527 0.84166 0.36305 0.0
C400 C 0.70758 0.87593 0.36949 0.0
C401 C 0.70852 0.88667 0.39515 0.0
C402 C 0.70974 0.92419 0.39703 0.0
C403 C 0.6742 0.91973 0.41075 0.0
C404 C 0.74594 0.95374 0.41079 0.0
C405 C 0.71019 0.93341 0.36843 0.0
C406 C 0.70944 0.90554 0.35277 0.0
C407 C 0.7127 0.90947 0.32569 0.0
C408 C 0.71679 0.94269 0.31443 0.0
C409 C 0.71662 0.97098 0.33018 0.0
C410 C 0.71296 0.96602 0.35746 0.0
H411 H 0.75876 0.67169 0.49995 0.0
H412 H 0.82356 0.78901 0.47601 0.0
H413 H 0.88091 0.79307 0.49484 0.0
H414 H 0.79894 0.68302 0.55994 0.0
H415 H 0.79942 0.63922 0.56047 0.0
H416 H 0.76503 0.64329 0.54115 0.0
H417 H 0.78739 0.62319 0.49998 0.0
H418 H 0.82184 0.61882 0.51926 0.0
H419 H 0.8366 0.64872 0.4908 0.0
H420 H 0.92813 0.78779 0.52263 0.0
H421 H 0.96229 0.77271 0.55579 0.0
H422 H 0.86822 0.65826 0.56069 0.0
C423 C 0.78523 0.69792 0.49789 0.0
C424 C 0.78655 0.72999 0.48633 0.0
C425 C 0.82172 0.76396 0.48459 0.0
C426 C 0.85454 0.76654 0.49522 0.0
C427 C 0.85195 0.73479 0.50729 0.0
C428 C 0.81828 0.70095 0.50838 0.0
C429 C 0.82229 0.67211 0.52457 0.0
C430 C 0.7948 0.65865 0.54791 0.0
C431 C 0.8167 0.63873 0.50764 0.0
C432 C 0.86299 0.6955 0.53336 0.0
C433 C 0.87969 0.73148 0.52293 0.0
C434 C 0.91573 0.75945 0.53036 0.0
C435 C 0.93489 0.75066 0.54924 0.0
C436 C 0.91819 0.71415 0.56038 0.0
C437 C 0.88215 0.68602 0.55185 0.0
H438 H 0.04445 0.73151 0.70079 0.0
H439 H 0.09486 0.76344 0.62392 0.0
H440 H 0.15379 0.81469 0.64354 0.0
H441 H 0.07977 0.82488 0.72267 0.0
H442 H 0.08624 0.81495 0.75588 0.0
H443 H 0.05042 0.77835 0.73607 0.0
H444 H 0.0794 0.7357 0.74486 0.0
H445 H 0.11519 0.77209 0.76487 0.0
H446 H 0.12867 0.75324 0.73778 0.0
H447 H 0.20785 0.86244 0.67276 0.0
H448 H 0.2485 0.90587 0.70761 0.0
H449 H 0.15822 0.84634 0.76367 0.0
C450 C 0.06824 0.74873 0.68814 0.0
C451 C 0.06563 0.74304 0.66094 0.0
C452 C 0.09668 0.76708 0.64487 0.0
C453 C 0.13016 0.79618 0.65586 0.0
C454 C 0.13164 0.80131 0.68285 0.0
C455 C 0.10118 0.77846 0.69867 0.0
C456 C 0.10821 0.79168 0.72667 0.0
C457 C 0.07946 0.80315 0.73585 0.0
C458 C 0.10785 0.76137 0.74459 0.0
C459 C 0.14743 0.82556 0.72429 0.0
C460 C 0.16095 0.83035 0.69902 0.0
C461 C 0.19731 0.85912 0.69253 0.0
C462 C 0.22019 0.8836 0.71237 0.0
C463 C 0.20614 0.87973 0.7381 0.0
C464 C 0.16934 0.85035 0.74401 0.0
H465 H 0.33067 0.04136 0.8642 0.0
H466 H 0.30733 0.07221 0.78866 0.0
H467 H 0.31521 0.13173 0.80747 0.0
H468 H 0.27639 0.07208 0.89968 0.0
H469 H 0.30721 0.0875 0.92756 0.0
H470 H 0.30385 0.04997 0.90738 0.0
H471 H 0.37636 0.08704 0.90009 0.0
H472 H 0.37997 0.12468 0.92031 0.0
H473 H 0.39849 0.13454 0.88754 0.0
H474 H 0.32726 0.18911 0.83551 0.0
H475 H 0.33407 0.23403 0.87062 0.0
H476 H 0.34152 0.16023 0.92785 0.0
C477 C 0.32795 0.06102 0.85151 0.0
C478 C 0.3193 0.05281 0.82489 0.0
C479 C 0.31448 0.0784 0.80906 0.0
C480 C 0.31897 0.11221 0.81958 0.0
C481 C 0.32732 0.11939 0.84606 0.0
C482 C 0.33112 0.09408 0.86184 0.0
C483 C 0.33667 0.10632 0.89005 0.0
C484 C 0.30409 0.07724 0.90716 0.0
C485 C 0.37516 0.11358 0.90007 0.0
C486 C 0.33561 0.14262 0.88781 0.0
C487 C 0.33098 0.15025 0.86227 0.0
C488 C 0.33052 0.18313 0.85558 0.0
C489 C 0.33447 0.2085 0.87555 0.0
C490 C 0.33777 0.2002 0.90185 0.0
C491 C 0.33842 0.16691 0.9079 0.0
H492 H 0.66739 0.73479 0.83394 0.0
H493 H 0.76367 0.8082 0.88201 0.0
H494 H 0.7637 0.86367 0.86333 0.0
H495 H 0.69728 0.78733 0.77863 0.0
H496 H 0.65186 0.77936 0.76802 0.0
H497 H 0.65467 0.74521 0.78846 0.0
H498 H 0.61011 0.75019 0.82222 0.0
H499 H 0.60686 0.78425 0.80174 0.0
H500 H 0.62174 0.7957 0.83514 0.0
H501 H 0.76184 0.91082 0.83318 0.0
H502 H 0.75416 0.94577 0.79649 0.0
H503 H 0.65677 0.84292 0.76985 0.0
C504 C 0.68766 0.76244 0.84125 0.0
C505 C 0.71547 0.76696 0.85955 0.0
C506 C 0.74189 0.8038 0.86817 0.0
C507 C 0.74216 0.83559 0.85764 0.0
C508 C 0.7154 0.8302 0.83882 0.0
C509 C 0.68812 0.79449 0.83107 0.0
C510 C 0.66465 0.79648 0.80893 0.0
C511 C 0.66731 0.77589 0.78458 0.0
C512 C 0.62339 0.78073 0.81753 0.0
C513 C 0.68415 0.83876 0.80459 0.0
C514 C 0.71324 0.85776 0.82216 0.0
C515 C 0.73833 0.89646 0.81993 0.0
C516 C 0.73383 0.9161 0.79908 0.0
C517 C 0.70415 0.89717 0.78106 0.0
C518 C 0.67865 0.85822 0.78413 0.0
H519 H 0.86687 0.75406 0.94187 0.0
H520 H 0.78856 0.63345 0.94217 0.0
H521 H 0.8292 0.62472 0.9737 0.0
H522 H 0.94983 0.75009 0.94353 0.0
H523 H 0.97507 0.79001 0.96481 0.0
H524 H 0.93803 0.78706 0.94437 0.0
H525 H 0.90374 0.79362 0.9849 0.0
H526 H 0.94081 0.79669 0.00551 0.0
H527 H 0.89236 0.76139 0.01185 0.0
H528 H 0.88296 0.62849 1.00054 0.0
H529 H 0.94298 0.6451 0.0228 0.0
H530 H 0.9839 0.76348 0.00728 0.0
C531 C 0.85788 0.72587 0.94894 0.0
C532 C 0.82449 0.69442 0.93955 0.0
C533 C 0.81386 0.658 0.9492 0.0
C534 C 0.83681 0.65276 0.9671 0.0
C535 C 0.86998 0.68429 0.97553 0.0
C536 C 0.88016 0.72022 0.96707 0.0
C537 C 0.91792 0.74926 0.97826 0.0
C538 C 0.94691 0.77032 0.95644 0.0
C539 C 0.91342 0.77687 0.9962 0.0
C540 C 0.92802 0.72398 0.99368 0.0
C541 C 0.90004 0.68658 0.99189 0.0
C542 C 0.90464 0.65776 1.00257 0.0
C543 C 0.93882 0.66742 0.01514 0.0
C544 C 0.96778 0.70559 0.01722 0.0
C545 C 0.96186 0.73414 0.00669 0.0
H546 H 0.29042 0.9461 0.16637 0.0
H547 H 0.22827 1.00094 0.19183 0.0
H548 H 0.17078 0.95066 0.17122 0.0
H549 H 0.25094 0.92027 0.10543 0.0
H550 H 0.24831 0.875 0.10436 0.0
H551 H 0.28339 0.9121 0.12422 0.0
H552 H 0.25887 0.86873 0.16483 0.0
H553 H 0.22379 0.83127 0.14503 0.0
H554 H 0.20959 0.84674 0.17362 0.0
H555 H 0.12349 0.9014 0.14165 0.0
H556 H 0.08791 0.85278 0.10836 0.0
H557 H 0.1781 0.82636 0.10418 0.0
C558 C 0.26448 0.94698 0.16828 0.0
C559 C 0.26405 0.97763 0.18082 0.0
C560 C 0.2295 0.97784 0.18249 0.0
C561 C 0.19658 0.94933 0.17081 0.0
C562 C 0.1983 0.92031 0.15786 0.0
C563 C 0.23116 0.91847 0.15693 0.0
C564 C 0.22592 0.88546 0.14034 0.0
C565 C 0.25379 0.89904 0.11722 0.0
C566 C 0.22977 0.85632 0.15695 0.0
C567 C 0.18553 0.87003 0.13124 0.0
C568 C 0.17013 0.89054 0.14166 0.0
C569 C 0.13479 0.88442 0.13397 0.0
C570 C 0.11483 0.85686 0.11502 0.0
C571 C 0.12991 0.83533 0.10427 0.0
C572 C 0.16542 0.84158 0.11282 0.0
H573 H 0.28578 0.13815 0.26196 0.0
H574 H 0.39842 0.16021 0.28077 0.0
H575 H 0.40236 0.20339 0.31597 0.0
H576 H 0.30236 0.22905 0.26996 0.0
H577 H 0.25713 0.21595 0.28436 0.0
H578 H 0.26171 0.18384 0.26278 0.0
H579 H 0.2346 0.13215 0.29854 0.0
H580 H 0.22988 0.16417 0.32028 0.0
H581 H 0.25648 0.14203 0.3302 0.0
H582 H 0.39755 0.25153 0.34429 0.0
H583 H 0.38247 0.29685 0.36548 0.0
H584 H 0.27117 0.2396 0.33067 0.0
C585 C 0.31099 0.15146 0.27383 0.0
C586 C 0.34182 0.14582 0.26863 0.0
C587 C 0.37436 0.1639 0.28452 0.0
C588 C 0.37685 0.1885 0.30454 0.0
C589 C 0.34624 0.1941 0.30878 0.0
C590 C 0.31365 0.17555 0.29414 0.0
C591 C 0.28544 0.1877 0.30171 0.0
C592 C 0.27614 0.20518 0.27832 0.0
C593 C 0.24947 0.15453 0.31338 0.0
C594 C 0.30774 0.21705 0.32223 0.0
C595 C 0.34276 0.22036 0.32607 0.0
C596 C 0.36983 0.24846 0.34198 0.0
C597 C 0.36107 0.27408 0.35393 0.0
C598 C 0.32536 0.27108 0.35024 0.0
C599 C 0.29818 0.24168 0.33461 0.0
H600 H 0.20755 0.3708 0.4312 0.0
H601 H 0.19586 0.26088 0.44404 0.0
H602 H 0.14969 0.24844 0.47939 0.0
H603 H 0.19202 0.3908 0.49998 0.0
H604 H 0.16424 0.41161 0.48993 0.0
H605 H 0.20141 0.4149 0.46909 0.0
H606 H 0.15356 0.38453 0.43137 0.0
H607 H 0.11637 0.38117 0.45205 0.0
H608 H 0.11149 0.3395 0.43645 0.0
H609 H 0.10114 0.24555 0.51037 0.0
H610 H 0.0492 0.24929 0.53188 0.0
H611 H 0.08851 0.35956 0.49712 0.0
C612 C 0.19613 0.34472 0.44214 0.0
C613 C 0.20585 0.31711 0.43554 0.0
C614 C 0.18917 0.28254 0.44927 0.0
C615 C 0.16305 0.27534 0.46938 0.0
C616 C 0.15346 0.3028 0.47523 0.0
C617 C 0.16923 0.33671 0.46189 0.0
C618 C 0.15037 0.35922 0.46966 0.0
C619 C 0.1787 0.39633 0.48296 0.0
C620 C 0.13185 0.36651 0.44598 0.0
C621 C 0.12093 0.33227 0.48891 0.0
C622 C 0.12386 0.30032 0.49226 0.0
C623 C 0.09878 0.27058 0.50808 0.0
C624 C 0.06929 0.27302 0.52026 0.0
C625 C 0.0646 0.30474 0.5163 0.0
C626 C 0.09144 0.33511 0.50084 0.0
H627 H 0.85335 0.15299 0.57475 0.0
H628 H 0.92471 0.23433 0.63262 0.0
H629 H 0.88539 0.19024 0.66784 0.0
H630 H 0.76587 0.124 0.60941 0.0
H631 H 0.74472 0.07576 0.59862 0.0
H632 H 0.77949 0.11321 0.57855 0.0
H633 H 0.81975 0.08036 0.57777 0.0
H634 H 0.78515 0.04287 0.59788 0.0
H635 H 0.83377 0.06884 0.60811 0.0
H636 H 0.83972 0.13356 0.69658 0.0
H637 H 0.7877 0.07437 0.71576 0.0
H638 H 0.7432 0.0351 0.63844 0.0
C639 C 0.86074 0.16144 0.59486 0.0
C640 C 0.89226 0.1967 0.6011 0.0
C641 C 0.90068 0.20727 0.62755 0.0
C642 C 0.87859 0.18238 0.64761 0.0
C643 C 0.84769 0.14756 0.64077 0.0
C644 C 0.83841 0.13756 0.61496 0.0
C645 C 0.80286 0.09959 0.61252 0.0
C646 C 0.77138 0.10338 0.59898 0.0
C647 C 0.81088 0.07125 0.59823 0.0
C648 C 0.79373 0.08932 0.64096 0.0
C649 C 0.82014 0.11691 0.65707 0.0
C650 C 0.81855 0.11216 0.68412 0.0
C651 C 0.78907 0.07853 0.69485 0.0
C652 C 0.7612 0.05071 0.67857 0.0
C653 C 0.76368 0.05638 0.65136 0.0
H654 H 0.2048 0.36553 0.31659 0.0
H655 H 0.31646 0.40797 0.28288 0.0
H656 H 0.29277 0.4152 0.24043 0.0
H657 H 0.15283 0.31189 0.26396 0.0
H658 H 0.11533 0.32282 0.26662 0.0
H659 H 0.14165 0.32441 0.29509 0.0
H660 H 0.15876 0.39358 0.30352 0.0
H661 H 0.13219 0.39213 0.27514 0.0
H662 H 0.18108 0.42824 0.27806 0.0
H663 H 0.25508 0.40825 0.20048 0.0
H664 H 0.20701 0.39494 0.16657 0.0
H665 H 0.12121 0.36279 0.2264 0.0
C666 C 0.22442 0.37706 0.30039 0.0
C667 C 0.26246 0.38614 0.30304 0.0
C668 C 0.28726 0.40106 0.28138 0.0
C669 C 0.27406 0.40519 0.25715 0.0
C670 C 0.2362 0.39509 0.25502 0.0
C671 C 0.21188 0.38211 0.27616 0.0
C672 C 0.17223 0.3722 0.26837 0.0
C673 C 0.14386 0.33035 0.27383 0.0
C674 C 0.16038 0.39809 0.28209 0.0
C675 C 0.17778 0.38025 0.23939 0.0
C676 C 0.2149 0.39331 0.23208 0.0
C677 C 0.22618 0.39907 0.20601 0.0
C678 C 0.19879 0.39132 0.18692 0.0
C679 C 0.1609 0.37868 0.1941 0.0
C680 C 0.15034 0.37349 0.22062 0.0
H681 H 0.89971 0.20923 0.46759 0.0
H682 H 0.87324 0.29944 0.4694 0.0
H683 H 0.83405 0.27325 0.4297 0.0
H684 H 0.91025 0.20956 0.39825 0.0
H685 H 0.89083 0.15924 0.39621 0.0
H686 H 0.9148 0.18407 0.42534 0.0
H687 H 0.85563 0.14001 0.45294 0.0
H688 H 0.83152 0.11494 0.42392 0.0
H689 H 0.81061 0.13522 0.44461 0.0
H690 H 0.7951 0.23434 0.39073 0.0
H691 H 0.76506 0.1902 0.35379 0.0
H692 H 0.82321 0.13025 0.37587 0.0
C693 C 0.88536 0.22328 0.45979 0.0
C694 C 0.88891 0.25597 0.47169 0.0
C695 C 0.87058 0.27418 0.46057 0.0
C696 C 0.84829 0.25948 0.43811 0.0
C697 C 0.84544 0.22711 0.4268 0.0
C698 C 0.86396 0.20962 0.43713 0.0
C699 C 0.85806 0.17639 0.42076 0.0
C700 C 0.89573 0.18272 0.40947 0.0
C701 C 0.83774 0.13946 0.4365 0.0
C702 C 0.83295 0.17755 0.39967 0.0
C703 C 0.82548 0.20663 0.40361 0.0
C704 C 0.80121 0.21184 0.38728 0.0
C705 C 0.78427 0.18668 0.36642 0.0
C706 C 0.79239 0.15734 0.36184 0.0
C707 C 0.81719 0.15298 0.37862 0.0
H708 H 0.65177 0.89191 0.61671 0.0
H709 H 0.65688 0.82246 0.6785 0.0
H710 H 0.649 0.77425 0.64598 0.0
H711 H 0.58561 0.81616 0.57325 0.0
H712 H 0.61101 0.84085 0.54428 0.0
H713 H 0.61132 0.86701 0.57263 0.0
H714 H 0.68455 0.90266 0.57275 0.0
H715 H 0.68445 0.87677 0.54439 0.0
H716 H 0.70889 0.8761 0.57339 0.0
H717 H 0.64286 0.735 0.60655 0.0
H718 H 0.64827 0.71177 0.56323 0.0
H719 H 0.65325 0.81002 0.52708 0.0
C720 C 0.65037 0.86613 0.62337 0.0
C721 C 0.65419 0.86033 0.65002 0.0
C722 C 0.65365 0.82704 0.6581 0.0
C723 C 0.64895 0.79951 0.63983 0.0
C724 C 0.64552 0.80616 0.61358 0.0
C725 C 0.64678 0.83894 0.60534 0.0
C726 C 0.64713 0.84142 0.57589 0.0
C727 C 0.61165 0.84134 0.56593 0.0
C728 C 0.68341 0.87629 0.56604 0.0
C729 C 0.64649 0.80522 0.56881 0.0
C730 C 0.64453 0.78479 0.59081 0.0
C731 C 0.64429 0.75069 0.58919 0.0
C732 C 0.6472 0.73765 0.5645 0.0
C733 C 0.6512 0.75914 0.54184 0.0
C734 C 0.65015 0.79299 0.54408 0.0
H735 H 0.85947 0.61622 0.7077 0.0
H736 H 0.9039 0.73141 0.68052 0.0
H737 H 0.87264 0.74371 0.71704 0.0
H738 H 0.76724 0.6036 0.73016 0.0
H739 H 0.76497 0.5756 0.75795 0.0
H740 H 0.78895 0.57462 0.72865 0.0
H741 H 0.84944 0.59348 0.75539 0.0
H742 H 0.82582 0.59489 0.7847 0.0
H743 H 0.8695 0.63576 0.77486 0.0
H744 H 0.84406 0.74663 0.75857 0.0
H745 H 0.81185 0.73755 0.80085 0.0
H746 H 0.78035 0.6194 0.80066 0.0
C747 C 0.86206 0.64381 0.70921 0.0
C748 C 0.8843 0.67285 0.69119 0.0
C749 C 0.88703 0.70861 0.69392 0.0
C750 C 0.86943 0.71597 0.71468 0.0
C751 C 0.84857 0.68716 0.73239 0.0
C752 C 0.84405 0.65155 0.7297 0.0
C753 C 0.82025 0.62596 0.75187 0.0
C754 C 0.78314 0.59299 0.74153 0.0
C755 C 0.8426 0.61169 0.76763 0.0
C756 C 0.8131 0.65315 0.76772 0.0
C757 C 0.83005 0.68835 0.75607 0.0
C758 C 0.83003 0.71906 0.76766 0.0
C759 C 0.81192 0.7137 0.79173 0.0
C760 C 0.79352 0.6778 0.8038 0.0
C761 C 0.79381 0.64698 0.79157 0.0
H762 H 0.21231 0.89301 0.87419 0.0
H763 H 0.28568 0.84567 0.86397 0.0
H764 H 0.25742 0.80591 0.90327 0.0
H765 H 0.22004 0.89973 0.94352 0.0
H766 H 0.17192 0.8888 0.9485 0.0
H767 H 0.19635 0.91151 0.91882 0.0
H768 H 0.14306 0.85805 0.89171 0.0
H769 H 0.11837 0.83526 0.9213 0.0
H770 H 0.13015 0.80972 0.89802 0.0
H771 H 0.21891 0.76983 0.94322 0.0
H772 H 0.17747 0.74451 0.98214 0.0
H773 H 0.13429 0.82041 0.96754 0.0
C774 C 0.22214 0.87395 0.88004 0.0
C775 C 0.25075 0.87192 0.86592 0.0
C776 C 0.26359 0.8474 0.87452 0.0
C777 C 0.24768 0.82474 0.89675 0.0
C778 C 0.21956 0.82758 0.91033 0.0
C779 C 0.20728 0.85193 0.90242 0.0
C780 C 0.17818 0.8513 0.921 0.0
C781 C 0.19249 0.89014 0.93371 0.0
C782 C 0.14019 0.83777 0.90718 0.0
C783 C 0.1757 0.82256 0.94057 0.0
C784 C 0.19938 0.80878 0.93398 0.0
C785 C 0.20059 0.78073 0.9487 0.0
C786 C 0.17698 0.76651 0.97071 0.0
C787 C 0.15317 0.78092 0.97797 0.0
C788 C 0.15277 0.80939 0.96272 0.0
H789 H 0.38023 0.18782 0.14888 0.0
H790 H 0.42674 0.12212 0.11545 0.0
H791 H 0.44081 0.15864 0.07474 0.0
H792 H 0.33429 0.19206 0.09388 0.0
H793 H 0.34424 0.23984 0.09841 0.0
H794 H 0.34228 0.21206 0.12613 0.0
H795 H 0.40984 0.26342 0.13935 0.0
H796 H 0.41198 0.29149 0.11162 0.0
H797 H 0.44796 0.27881 0.11613 0.0
H798 H 0.4402 0.19451 0.03568 0.0
H799 H 0.42894 0.23077 1.00184 0.0
H800 H 0.38722 0.27667 0.0609 0.0
C801 C 0.39413 0.18166 0.13321 0.0
C802 C 0.40233 0.15203 0.13542 0.0
C803 C 0.42029 0.14473 0.11434 0.0
C804 C 0.42846 0.16537 0.0911 0.0
C805 C 0.41916 0.19372 0.08934 0.0
C806 C 0.40294 0.20234 0.10995 0.0
C807 C 0.39367 0.23262 0.10241 0.0
C808 C 0.3511 0.21827 0.10538 0.0
C809 C 0.41728 0.26873 0.11833 0.0
C810 C 0.40571 0.23847 0.07404 0.0
C811 C 0.42051 0.21586 0.06693 0.0
C812 C 0.42969 0.21315 0.04113 0.0
C813 C 0.42314 0.23372 0.02206 0.0
C814 C 0.40807 0.25704 0.02895 0.0
C815 C 0.39999 0.26001 0.05532 0.0
loop_
_geom_bond_atom_site_label_1
_geom_bond_atom_site_label_2
_geom_bond_distance
_geom_bond_site_symmetry_2
_ccdc_geom_bond_type
O0 Cd1 2.223 . S
O0 C8 1.315 . S
Cd1 O0 2.223 . S
Cd1 O4 2.297 . S
Cd1 O5 2.439 . S
Cd1 O11 2.240 . S
Cd2 O3 2.240 . S
Cd2 O10 2.223 . S
Cd2 O12 2.297 . S
Cd2 O13 2.439 . S
O3 Cd2 2.240 . S
O3 C8 1.279 . S
O4 Cd1 2.297 . S
O4 C6 1.247 . S
O5 Cd1 2.439 . S
O5 C6 1.208 . S
C6 O4 1.247 . S
C6 O5 1.208 . S
C7 O12 1.247 . S
C7 O13 1.208 . S
C8 O0 1.315 . S
C8 O3 1.279 . S
C9 O10 1.315 . S
C9 O11 1.279 . S
O10 Cd2 2.223 . S
O10 C9 1.315 . S
O11 Cd1 2.240 . S
O11 C9 1.279 . S
O12 Cd2 2.297 . S
O12 C7 1.247 . S
O13 Cd2 2.439 . S
O13 C7 1.208 . S
O14 Cd15 2.223 . S
O14 C22 1.315 . S
Cd15 O14 2.223 . S
Cd15 O18 2.297 . S
Cd15 O19 2.439 . S
Cd15 O25 2.240 . S
Cd16 O17 2.240 . S
Cd16 O24 2.223 . S
Cd16 O26 2.297 . S
Cd16 O27 2.439 . S
O17 Cd16 2.240 . S
O17 C22 1.279 . S
O18 Cd15 2.297 . S
O18 C20 1.247 . S
O19 Cd15 2.439 . S
O19 C20 1.208 . S
C20 O18 1.247 . S
C20 O19 1.208 . S
C21 O26 1.247 . S
C21 O27 1.208 . S
C22 O14 1.315 . S
C22 O17 1.279 . S
C23 O24 1.315 . S
C23 O25 1.279 . S
O24 Cd16 2.223 . S
O24 C23 1.315 . S
O25 Cd15 2.240 . S
O25 C23 1.279 . S
O26 Cd16 2.297 . S
O26 C21 1.247 . S
O27 Cd16 2.439 . S
O27 C21 1.208 . S
O28 Cd29 2.223 . S
O28 C36 1.315 . S
Cd29 O28 2.223 . S
Cd29 O32 2.297 . S
Cd29 O33 2.439 . S
Cd29 O39 2.240 . S
Cd30 O31 2.240 . S
Cd30 O38 2.223 . S
Cd30 O40 2.297 . S
Cd30 O41 2.439 . S
O31 Cd30 2.240 . S
O31 C36 1.279 . S
O32 Cd29 2.297 . S
O32 C34 1.247 . S
O33 Cd29 2.439 . S
O33 C34 1.208 . S
C34 O32 1.247 . S
C34 O33 1.208 . S
C35 O40 1.247 . S
C35 O41 1.208 . S
C36 O28 1.315 . S
C36 O31 1.279 . S
C37 O38 1.315 . S
C37 O39 1.279 . S
O38 Cd30 2.223 . S
O38 C37 1.315 . S
O39 Cd29 2.240 . S
O39 C37 1.279 . S
O40 Cd30 2.297 . S
O40 C35 1.247 . S
O41 Cd30 2.439 . S
O41 C35 1.208 . S
O42 Cd43 2.223 . S
O42 C50 1.315 . S
Cd43 O42 2.223 . S
Cd43 O46 2.297 . S
Cd43 O47 2.439 . S
Cd43 O53 2.240 . S
Cd44 O45 2.240 . S
Cd44 O52 2.223 . S
Cd44 O54 2.297 . S
Cd44 O55 2.439 . S
O45 Cd44 2.240 . S
O45 C50 1.279 . S
O46 Cd43 2.297 . S
O46 C48 1.247 . S
O47 Cd43 2.439 . S
O47 C48 1.208 . S
C48 O46 1.247 . S
C48 O47 1.208 . S
C49 O54 1.247 . S
C49 O55 1.208 . S
C50 O42 1.315 . S
C50 O45 1.279 . S
C51 O52 1.315 . S
C51 O53 1.279 . S
O52 Cd44 2.223 . S
O52 C51 1.315 . S
O53 Cd43 2.240 . S
O53 C51 1.279 . S
O54 Cd44 2.297 . S
O54 C49 1.247 . S
O55 Cd44 2.439 . S
O55 C49 1.208 . S
O56 Cd57 2.223 . S
O56 C64 1.315 . S
Cd57 O56 2.223 . S
Cd57 O60 2.297 . S
Cd57 O61 2.439 . S
Cd57 O67 2.240 . S
Cd58 O59 2.240 . S
Cd58 O66 2.223 . S
Cd58 O68 2.297 . S
Cd58 O69 2.439 . S
O59 Cd58 2.240 . S
O59 C64 1.279 . S
O60 Cd57 2.297 . S
O60 C62 1.247 . S
O61 Cd57 2.439 . S
O61 C62 1.208 . S
C62 O60 1.247 . S
C62 O61 1.208 . S
C63 O68 1.247 . S
C63 O69 1.208 . S
C64 O56 1.315 . S
C64 O59 1.279 . S
C65 O66 1.315 . S
C65 O67 1.279 . S
O66 Cd58 2.223 . S
O66 C65 1.315 . S
O67 Cd57 2.240 . S
O67 C65 1.279 . S
O68 Cd58 2.297 . S
O68 C63 1.247 . S
O69 Cd58 2.439 . S
O69 C63 1.208 . S
O70 Cd71 2.215 1_554 S
O70 C78 1.304 1_554 S
Cd71 O70 2.215 1_556 S
Cd71 O74 2.297 . S
Cd71 O75 2.439 . S
Cd71 O81 2.240 . S
Cd72 O73 2.240 . S
Cd72 O80 2.223 . S
Cd72 O82 2.297 . S
Cd72 O83 2.439 . S
O73 Cd72 2.240 . S
O73 C78 1.279 . S
O74 Cd71 2.297 . S
O74 C76 1.247 . S
O75 Cd71 2.439 . S
O75 C76 1.208 . S
C76 O74 1.247 . S
C76 O75 1.208 . S
C77 O82 1.247 . S
C77 O83 1.208 . S
C78 O70 1.304 1_556 S
C78 O73 1.279 . S
C79 O80 1.316 . S
C79 O81 1.282 . S
O80 Cd72 2.223 . S
O80 C79 1.316 . S
O81 Cd71 2.240 . S
O81 C79 1.282 . S
O82 Cd72 2.297 . S
O82 C77 1.247 . S
O83 Cd72 2.439 . S
O83 C77 1.208 . S
O84 Cd85 2.223 . S
O84 C92 1.315 . S
Cd85 O84 2.223 . S
Cd85 O88 2.297 . S
Cd85 O89 2.439 . S
Cd85 O95 2.240 . S
Cd86 O87 2.240 . S
Cd86 O94 2.223 . S
Cd86 O96 2.297 . S
Cd86 O97 2.439 . S
O87 Cd86 2.240 . S
O87 C92 1.279 . S
O88 Cd85 2.297 . S
O88 C90 1.247 . S
O89 Cd85 2.439 . S
O89 C90 1.208 . S
C90 O88 1.247 . S
C90 O89 1.208 . S
C91 O96 1.247 . S
C91 O97 1.208 . S
C92 O84 1.315 . S
C92 O87 1.279 . S
C93 O94 1.315 . S
C93 O95 1.279 . S
O94 Cd86 2.223 . S
O94 C93 1.315 . S
O95 Cd85 2.240 . S
O95 C93 1.279 . S
O96 Cd86 2.297 . S
O96 C91 1.247 . S
O97 Cd86 2.439 . S
O97 C91 1.208 . S
O98 Cd99 2.223 . S
O98 C106 1.315 . S
Cd99 O98 2.223 . S
Cd99 O102 2.297 . S
Cd99 O103 2.439 . S
Cd99 O109 2.240 . S
Cd100 O101 2.240 . S
Cd100 O108 2.223 . S
Cd100 O110 2.297 . S
Cd100 O111 2.439 . S
O101 Cd100 2.240 . S
O101 C106 1.279 . S
O102 Cd99 2.297 . S
O102 C104 1.247 . S
O103 Cd99 2.439 . S
O103 C104 1.208 . S
C104 O102 1.247 . S
C104 O103 1.208 . S
C105 O110 1.247 . S
C105 O111 1.208 . S
C106 O98 1.315 . S
C106 O101 1.279 . S
C107 O108 1.315 . S
C107 O109 1.279 . S
O108 Cd100 2.223 . S
O108 C107 1.315 . S
O109 Cd99 2.240 . S
O109 C107 1.279 . S
O110 Cd100 2.297 . S
O110 C105 1.247 . S
O111 Cd100 2.439 . S
O111 C105 1.208 . S
O112 Cd113 2.215 1_556 S
O112 C120 1.304 1_556 S
Cd113 O112 2.215 1_554 S
Cd113 O116 2.297 . S
Cd113 O117 2.439 . S
Cd113 O123 2.240 . S
Cd114 O115 2.240 . S
Cd114 O122 2.223 . S
Cd114 O124 2.297 . S
Cd114 O125 2.439 . S
O115 Cd114 2.240 . S
O115 C120 1.279 . S
O116 Cd113 2.297 . S
O116 C118 1.247 . S
O117 Cd113 2.439 . S
O117 C118 1.208 . S
C118 O116 1.247 . S
C118 O117 1.208 . S
C119 O124 1.247 . S
C119 O125 1.208 . S
C120 O112 1.304 1_554 S
C120 O115 1.279 . S
C121 O122 1.316 . S
C121 O123 1.282 . S
O122 Cd114 2.223 . S
O122 C121 1.316 . S
O123 Cd113 2.240 . S
O123 C121 1.282 . S
O124 Cd114 2.297 . S
O124 C119 1.247 . S
O125 Cd114 2.439 . S
O125 C119 1.208 . S
O126 Cd127 2.223 . S
O126 C134 1.315 . S
Cd127 O126 2.223 . S
Cd127 O130 2.297 . S
Cd127 O131 2.439 . S
Cd127 O137 2.240 . S
Cd128 O129 2.240 . S
Cd128 O136 2.223 . S
Cd128 O138 2.297 . S
Cd128 O139 2.439 . S
O129 Cd128 2.240 . S
O129 C134 1.279 . S
O130 Cd127 2.297 . S
O130 C132 1.247 . S
O131 Cd127 2.439 . S
O131 C132 1.208 . S
C132 O130 1.247 . S
C132 O131 1.208 . S
C133 O138 1.247 . S
C133 O139 1.208 . S
C134 O126 1.315 . S
C134 O129 1.279 . S
C135 O136 1.315 . S
C135 O137 1.279 . S
O136 Cd128 2.223 . S
O136 C135 1.315 . S
O137 Cd127 2.240 . S
O137 C135 1.279 . S
O138 Cd128 2.297 . S
O138 C133 1.247 . S
O139 Cd128 2.439 . S
O139 C133 1.208 . S
O140 Cd141 2.223 . S
O140 C148 1.315 . S
Cd141 O140 2.223 . S
Cd141 O144 2.297 . S
Cd141 O145 2.439 . S
Cd141 O151 2.240 . S
Cd142 O143 2.240 . S
Cd142 O150 2.223 . S
Cd142 O152 2.297 . S
Cd142 O153 2.439 . S
O143 Cd142 2.240 . S
O143 C148 1.279 . S
O144 Cd141 2.297 . S
O144 C146 1.247 . S
O145 Cd141 2.439 . S
O145 C146 1.208 . S
C146 O144 1.247 . S
C146 O145 1.208 . S
C147 O152 1.247 . S
C147 O153 1.208 . S
C148 O140 1.315 . S
C148 O143 1.279 . S
C149 O150 1.315 . S
C149 O151 1.279 . S
O150 Cd142 2.223 . S
O150 C149 1.315 . S
O151 Cd141 2.240 . S
O151 C149 1.279 . S
O152 Cd142 2.297 . S
O152 C147 1.247 . S
O153 Cd142 2.439 . S
O153 C147 1.208 . S
O154 Cd155 2.223 . S
O154 C162 1.315 . S
Cd155 O154 2.223 . S
Cd155 O158 2.297 . S
Cd155 O159 2.439 . S
Cd155 O165 2.240 . S
Cd156 O157 2.240 . S
Cd156 O164 2.223 . S
Cd156 O166 2.297 . S
Cd156 O167 2.439 . S
O157 Cd156 2.240 . S
O157 C162 1.279 . S
O158 Cd155 2.297 . S
O158 C160 1.247 . S
O159 Cd155 2.439 . S
O159 C160 1.208 . S
C160 O158 1.247 . S
C160 O159 1.208 . S
C161 O166 1.247 . S
C161 O167 1.208 . S
C162 O154 1.315 . S
C162 O157 1.279 . S
C163 O164 1.315 . S
C163 O165 1.279 . S
O164 Cd156 2.223 . S
O164 C163 1.315 . S
O165 Cd155 2.240 . S
O165 C163 1.279 . S
O166 Cd156 2.297 . S
O166 C161 1.247 . S
O167 Cd156 2.439 . S
O167 C161 1.208 . S
H168 C180 0.930 . S
H169 C182 0.930 . S
H170 C183 0.930 . S
H171 C187 0.959 1_655 S
H172 C187 0.959 . S
H173 C187 0.961 . S
H174 C188 0.960 . S
H175 C188 0.961 . S
H176 C188 0.959 . S
H177 C191 0.929 . S
H178 C192 0.931 . S
H179 C194 0.930 . S
C180 H168 0.930 . S
C180 C181 1.399 . S
C180 C185 1.399 . S
C181 C180 1.399 . S
C181 C182 1.376 . S
C182 H169 0.930 . S
C182 C181 1.376 . S
C182 C183 1.388 . S
C183 H170 0.930 . S
C183 C182 1.388 . S
C183 C184 1.390 . S
C184 C183 1.390 . S
C184 C185 1.394 . S
C184 C190 1.465 . S
C185 C180 1.399 . S
C185 C184 1.394 . S
C185 C186 1.516 . S
C186 C185 1.516 . S
C186 C187 1.502 . S
C186 C188 1.561 . S
C186 C189 1.526 . S
C187 H171 0.959 1_455 S
C187 H172 0.959 . S
C187 H173 0.961 . S
C187 C186 1.502 . S
C188 H174 0.960 . S
C188 H175 0.961 . S
C188 H176 0.959 . S
C188 C186 1.561 . S
C189 C186 1.526 . S
C189 C190 1.396 . S
C189 C194 1.390 . S
C190 C184 1.465 . S
C190 C189 1.396 . S
C190 C191 1.399 . S
C191 H177 0.929 . S
C191 C190 1.399 . S
C191 C192 1.385 . S
C192 H178 0.931 . S
C192 C191 1.385 . S
C192 C193 1.389 . S
C193 C192 1.389 . S
C193 C194 1.387 . S
C194 H179 0.930 . S
C194 C189 1.390 . S
C194 C193 1.387 . S
H195 C207 0.930 . S
H196 C209 0.930 . S
H197 C210 0.930 1_565 S
H198 C214 0.959 . S
H199 C214 0.959 . S
H200 C214 0.961 . S
H201 C215 0.960 . S
H202 C215 0.961 . S
H203 C215 0.959 . S
H204 C218 0.929 1_565 S
H205 C219 0.931 . S
H206 C221 0.930 . S
C207 H195 0.930 . S
C207 C208 1.399 . S
C207 C212 1.399 . S
C208 C207 1.399 . S
C208 C209 1.376 . S
C209 H196 0.930 . S
C209 C208 1.376 . S
C209 C210 1.388 . S
C210 H197 0.930 1_545 S
C210 C209 1.388 . S
C210 C211 1.390 . S
C211 C210 1.390 . S
C211 C212 1.394 . S
C211 C217 1.465 . S
C212 C207 1.399 . S
C212 C211 1.394 . S
C212 C213 1.516 . S
C213 C212 1.516 . S
C213 C214 1.502 . S
C213 C215 1.561 . S
C213 C216 1.526 . S
C214 H198 0.959 . S
C214 H199 0.959 . S
C214 H200 0.961 . S
C214 C213 1.502 . S
C215 H201 0.960 . S
C215 H202 0.961 . S
C215 H203 0.959 . S
C215 C213 1.561 . S
C216 C213 1.526 . S
C216 C217 1.396 . S
C216 C221 1.390 . S
C217 C211 1.465 . S
C217 C216 1.396 . S
C217 C218 1.399 . S
C218 H204 0.929 1_545 S
C218 C217 1.399 . S
C218 C219 1.385 . S
C219 H205 0.931 . S
C219 C218 1.385 . S
C219 C220 1.389 . S
C220 C219 1.389 . S
C220 C221 1.387 . S
C221 H206 0.930 . S
C221 C216 1.390 . S
C221 C220 1.387 . S
H222 C234 0.930 . S
H223 C236 0.930 . S
H224 C237 0.930 . S
H225 C241 0.959 . S
H226 C241 0.959 . S
H227 C241 0.961 . S
H228 C242 0.960 . S
H229 C242 0.961 . S
H230 C242 0.959 . S
H231 C245 0.929 . S
H232 C246 0.931 . S
H233 C248 0.930 . S
C234 H222 0.930 . S
C234 C235 1.399 . S
C234 C239 1.399 . S
C235 C234 1.399 . S
C235 C236 1.376 . S
C236 H223 0.930 . S
C236 C235 1.376 . S
C236 C237 1.388 . S
C237 H224 0.930 . S
C237 C236 1.388 . S
C237 C238 1.390 . S
C238 C237 1.390 . S
C238 C239 1.394 . S
C238 C244 1.465 . S
C239 C234 1.399 . S
C239 C238 1.394 . S
C239 C240 1.516 . S
C240 C239 1.516 . S
C240 C241 1.502 . S
C240 C242 1.561 . S
C240 C243 1.526 . S
C241 H225 0.959 . S
C241 H226 0.959 . S
C241 H227 0.961 . S
C241 C240 1.502 . S
C242 H228 0.960 . S
C242 H229 0.961 . S
C242 H230 0.959 . S
C242 C240 1.561 . S
C243 C240 1.526 . S
C243 C244 1.396 . S
C243 C248 1.390 . S
C244 C238 1.465 . S
C244 C243 1.396 . S
C244 C245 1.399 . S
C245 H231 0.929 . S
C245 C244 1.399 . S
C245 C246 1.385 . S
C246 H232 0.931 . S
C246 C245 1.385 . S
C246 C247 1.389 . S
C247 C246 1.389 . S
C247 C248 1.387 . S
C248 H233 0.930 . S
C248 C243 1.390 . S
C248 C247 1.387 . S
H249 C261 0.930 . S
H250 C263 0.930 . S
H251 C264 0.930 . S
H252 C268 0.959 . S
H253 C268 0.959 . S
H254 C268 0.961 . S
H255 C269 0.960 . S
H256 C269 0.961 . S
H257 C269 0.959 . S
H258 C272 0.929 . S
H259 C273 0.931 . S
H260 C275 0.930 . S
C261 H249 0.930 . S
C261 C262 1.399 . S
C261 C266 1.399 . S
C262 C261 1.399 . S
C262 C263 1.376 . S
C263 H250 0.930 . S
C263 C262 1.376 . S
C263 C264 1.388 . S
C264 H251 0.930 . S
C264 C263 1.388 . S
C264 C265 1.390 . S
C265 C264 1.390 . S
C265 C266 1.394 . S
C265 C271 1.465 . S
C266 C261 1.399 . S
C266 C265 1.394 . S
C266 C267 1.516 . S
C267 C266 1.516 . S
C267 C268 1.502 . S
C267 C269 1.561 . S
C267 C270 1.526 . S
C268 H252 0.959 . S
C268 H253 0.959 . S
C268 H254 0.961 . S
C268 C267 1.502 . S
C269 H255 0.960 . S
C269 H256 0.961 . S
C269 H257 0.959 . S
C269 C267 1.561 . S
C270 C267 1.526 . S
C270 C271 1.396 . S
C270 C275 1.390 . S
C271 C265 1.465 . S
C271 C270 1.396 . S
C271 C272 1.399 . S
C272 H258 0.929 . S
C272 C271 1.399 . S
C272 C273 1.385 . S
C273 H259 0.931 . S
C273 C272 1.385 . S
C273 C274 1.389 . S
C274 C273 1.389 . S
C274 C275 1.387 . S
C275 H260 0.930 . S
C275 C270 1.390 . S
C275 C274 1.387 . S
H276 C288 0.930 . S
H277 C290 0.930 . S
H278 C291 0.930 1_545 S
H279 C295 0.959 . S
H280 C295 0.959 . S
H281 C295 0.961 . S
H282 C296 0.960 . S
H283 C296 0.961 . S
H284 C296 0.959 . S
H285 C299 0.929 1_545 S
H286 C300 0.931 . S
H287 C302 0.930 . S
C288 H276 0.930 . S
C288 C289 1.399 . S
C288 C293 1.399 . S
C289 C288 1.399 . S
C289 C290 1.376 . S
C290 H277 0.930 . S
C290 C289 1.376 . S
C290 C291 1.388 . S
C291 H278 0.930 1_565 S
C291 C290 1.388 . S
C291 C292 1.390 . S
C292 C291 1.390 . S
C292 C293 1.394 . S
C292 C298 1.465 . S
C293 C288 1.399 . S
C293 C292 1.394 . S
C293 C294 1.516 . S
C294 C293 1.516 . S
C294 C295 1.502 . S
C294 C296 1.561 . S
C294 C297 1.526 . S
C295 H279 0.959 . S
C295 H280 0.959 . S
C295 H281 0.961 . S
C295 C294 1.502 . S
C296 H282 0.960 . S
C296 H283 0.961 . S
C296 H284 0.959 . S
C296 C294 1.561 . S
C297 C294 1.526 . S
C297 C298 1.396 . S
C297 C302 1.390 . S
C298 C292 1.465 . S
C298 C297 1.396 . S
C298 C299 1.399 . S
C299 H285 0.929 1_565 S
C299 C298 1.399 . S
C299 C300 1.385 . S
C300 H286 0.931 . S
C300 C299 1.385 . S
C300 C301 1.389 . S
C301 C300 1.389 . S
C301 C302 1.387 . S
C302 H287 0.930 . S
C302 C297 1.390 . S
C302 C301 1.387 . S
H303 C315 0.930 . S
H304 C317 0.930 . S
H305 C318 0.930 . S
H306 C322 0.959 . S
H307 C322 0.959 . S
H308 C322 0.961 . S
H309 C323 0.960 . S
H310 C323 0.961 . S
H311 C323 0.959 . S
H312 C326 0.929 . S
H313 C327 0.931 . S
H314 C329 0.930 . S
C315 H303 0.930 . S
C315 C316 1.399 . S
C315 C320 1.399 . S
C316 C315 1.399 . S
C316 C317 1.376 . S
C317 H304 0.930 . S
C317 C316 1.376 . S
C317 C318 1.388 . S
C318 H305 0.930 . S
C318 C317 1.388 . S
C318 C319 1.390 . S
C319 C318 1.390 . S
C319 C320 1.394 . S
C319 C325 1.465 . S
C320 C315 1.399 . S
C320 C319 1.394 . S
C320 C321 1.516 . S
C321 C320 1.516 . S
C321 C322 1.502 . S
C321 C323 1.561 . S
C321 C324 1.526 . S
C322 H306 0.959 . S
C322 H307 0.959 . S
C322 H308 0.961 . S
C322 C321 1.502 . S
C323 H309 0.960 . S
C323 H310 0.961 . S
C323 H311 0.959 . S
C323 C321 1.561 . S
C324 C321 1.526 . S
C324 C325 1.396 . S
C324 C329 1.390 . S
C325 C319 1.465 . S
C325 C324 1.396 . S
C325 C326 1.399 . S
C326 H312 0.929 . S
C326 C325 1.399 . S
C326 C327 1.385 . S
C327 H313 0.931 . S
C327 C326 1.385 . S
C327 C328 1.389 . S
C328 C327 1.389 . S
C328 C329 1.387 . S
C329 H314 0.930 . S
C329 C324 1.390 . S
C329 C328 1.387 . S
H330 C342 0.930 . S
H331 C344 0.930 . S
H332 C345 0.930 . S
H333 C349 0.959 . S
H334 C349 0.959 . S
H335 C349 0.961 . S
H336 C350 0.960 . S
H337 C350 0.961 . S
H338 C350 0.959 . S
H339 C353 0.929 . S
H340 C354 0.931 . S
H341 C356 0.930 . S
C342 H330 0.930 . S
C342 C343 1.399 . S
C342 C347 1.399 . S
C343 C342 1.399 . S
C343 C344 1.376 . S
C344 H331 0.930 . S
C344 C343 1.376 . S
C344 C345 1.388 . S
C345 H332 0.930 . S
C345 C344 1.388 . S
C345 C346 1.390 . S
C346 C345 1.390 . S
C346 C347 1.394 . S
C346 C352 1.465 . S
C347 C342 1.399 . S
C347 C346 1.394 . S
C347 C348 1.516 . S
C348 C347 1.516 . S
C348 C349 1.502 1_554 S
C348 C350 1.561 . S
C348 C351 1.526 . S
C349 H333 0.959 . S
C349 H334 0.959 . S
C349 H335 0.961 . S
C349 C348 1.502 1_556 S
C350 H336 0.960 . S
C350 H337 0.961 . S
C350 H338 0.959 . S
C350 C348 1.561 . S
C351 C348 1.526 . S
C351 C352 1.396 . S
C351 C356 1.390 1_554 S
C352 C346 1.465 . S
C352 C351 1.396 . S
C352 C353 1.399 . S
C353 H339 0.929 . S
C353 C352 1.399 . S
C353 C354 1.385 . S
C354 H340 0.931 . S
C354 C353 1.385 . S
C354 C355 1.392 1_554 S
C355 C354 1.392 1_556 S
C355 C356 1.386 . S
C356 H341 0.930 . S
C356 C351 1.390 1_556 S
C356 C355 1.386 . S
H357 C369 0.930 . S
H358 C371 0.930 . S
H359 C372 0.930 . S
H360 C376 0.959 . S
H361 C376 0.959 . S
H362 C376 0.961 . S
H363 C377 0.960 . S
H364 C377 0.961 . S
H365 C377 0.959 . S
H366 C380 0.929 . S
H367 C381 0.931 . S
H368 C383 0.930 . S
C369 H357 0.930 . S
C369 C370 1.399 . S
C369 C374 1.399 . S
C370 C369 1.399 . S
C370 C371 1.376 . S
C371 H358 0.930 . S
C371 C370 1.376 . S
C371 C372 1.388 . S
C372 H359 0.930 . S
C372 C371 1.388 . S
C372 C373 1.390 . S
C373 C372 1.390 . S
C373 C374 1.394 . S
C373 C379 1.465 . S
C374 C369 1.399 . S
C374 C373 1.394 . S
C374 C375 1.516 . S
C375 C374 1.516 . S
C375 C376 1.502 . S
C375 C377 1.561 . S
C375 C378 1.526 . S
C376 H360 0.959 . S
C376 H361 0.959 . S
C376 H362 0.961 . S
C376 C375 1.502 . S
C377 H363 0.960 . S
C377 H364 0.961 . S
C377 H365 0.959 . S
C377 C375 1.561 . S
C378 C375 1.526 . S
C378 C379 1.396 . S
C378 C383 1.390 . S
C379 C373 1.465 . S
C379 C378 1.396 . S
C379 C380 1.399 . S
C380 H366 0.929 . S
C380 C379 1.399 . S
C380 C381 1.385 . S
C381 H367 0.931 . S
C381 C380 1.385 . S
C381 C382 1.389 . S
C382 C381 1.389 . S
C382 C383 1.387 . S
C383 H368 0.930 . S
C383 C378 1.390 . S
C383 C382 1.387 . S
H384 C396 0.930 . S
H385 C398 0.930 . S
H386 C399 0.930 . S
H387 C403 0.959 . S
H388 C403 0.959 . S
H389 C403 0.961 . S
H390 C404 0.960 . S
H391 C404 0.961 . S
H392 C404 0.959 . S
H393 C407 0.929 . S
H394 C408 0.931 . S
H395 C410 0.930 1_545 S
C396 H384 0.930 . S
C396 C397 1.399 . S
C396 C401 1.399 . S
C397 C396 1.399 . S
C397 C398 1.376 . S
C398 H385 0.930 . S
C398 C397 1.376 . S
C398 C399 1.388 . S
C399 H386 0.930 . S
C399 C398 1.388 . S
C399 C400 1.390 . S
C400 C399 1.390 . S
C400 C401 1.394 . S
C400 C406 1.465 . S
C401 C396 1.399 . S
C401 C400 1.394 . S
C401 C402 1.516 . S
C402 C401 1.516 . S
C402 C403 1.502 . S
C402 C404 1.561 . S
C402 C405 1.526 . S
C403 H387 0.959 . S
C403 H388 0.959 . S
C403 H389 0.961 . S
C403 C402 1.502 . S
C404 H390 0.960 . S
C404 H391 0.961 . S
C404 H392 0.959 . S
C404 C402 1.561 . S
C405 C402 1.526 . S
C405 C406 1.396 . S
C405 C410 1.390 . S
C406 C400 1.465 . S
C406 C405 1.396 . S
C406 C407 1.399 . S
C407 H393 0.929 . S
C407 C406 1.399 . S
C407 C408 1.385 . S
C408 H394 0.931 . S
C408 C407 1.385 . S
C408 C409 1.389 . S
C409 C408 1.389 . S
C409 C410 1.387 . S
C410 H395 0.930 1_565 S
C410 C405 1.390 . S
C410 C409 1.387 . S
H411 C423 0.930 . S
H412 C425 0.930 . S
H413 C426 0.930 . S
H414 C430 0.959 . S
H415 C430 0.959 . S
H416 C430 0.961 . S
H417 C431 0.960 . S
H418 C431 0.961 . S
H419 C431 0.959 . S
H420 C434 0.929 . S
H421 C435 0.931 . S
H422 C437 0.930 . S
C423 H411 0.930 . S
C423 C424 1.399 . S
C423 C428 1.399 . S
C424 C423 1.399 . S
C424 C425 1.376 . S
C425 H412 0.930 . S
C425 C424 1.376 . S
C425 C426 1.388 . S
C426 H413 0.930 . S
C426 C425 1.388 . S
C426 C427 1.390 . S
C427 C426 1.390 . S
C427 C428 1.394 . S
C427 C433 1.465 . S
C428 C423 1.399 . S
C428 C427 1.394 . S
C428 C429 1.516 . S
C429 C428 1.516 . S
C429 C430 1.502 . S
C429 C431 1.561 . S
C429 C432 1.526 . S
C430 H414 0.959 . S
C430 H415 0.959 . S
C430 H416 0.961 . S
C430 C429 1.502 . S
C431 H417 0.960 . S
C431 H418 0.961 . S
C431 H419 0.959 . S
C431 C429 1.561 . S
C432 C429 1.526 . S
C432 C433 1.396 . S
C432 C437 1.390 . S
C433 C427 1.465 . S
C433 C432 1.396 . S
C433 C434 1.399 . S
C434 H420 0.929 . S
C434 C433 1.399 . S
C434 C435 1.385 . S
C435 H421 0.931 . S
C435 C434 1.385 . S
C435 C436 1.389 . S
C436 C435 1.389 . S
C436 C437 1.387 . S
C437 H422 0.930 . S
C437 C432 1.390 . S
C437 C436 1.387 . S
H438 C450 0.930 . S
H439 C452 0.930 . S
H440 C453 0.930 . S
H441 C457 0.959 . S
H442 C457 0.959 . S
H443 C457 0.961 . S
H444 C458 0.960 . S
H445 C458 0.961 . S
H446 C458 0.959 . S
H447 C461 0.929 . S
H448 C462 0.931 . S
H449 C464 0.930 . S
C450 H438 0.930 . S
C450 C451 1.399 . S
C450 C455 1.399 . S
C451 C450 1.399 . S
C451 C452 1.376 . S
C452 H439 0.930 . S
C452 C451 1.376 . S
C452 C453 1.388 . S
C453 H440 0.930 . S
C453 C452 1.388 . S
C453 C454 1.390 . S
C454 C453 1.390 . S
C454 C455 1.394 . S
C454 C460 1.465 . S
C455 C450 1.399 . S
C455 C454 1.394 . S
C455 C456 1.516 . S
C456 C455 1.516 . S
C456 C457 1.502 . S
C456 C458 1.561 . S
C456 C459 1.526 . S
C457 H441 0.959 . S
C457 H442 0.959 . S
C457 H443 0.961 . S
C457 C456 1.502 . S
C458 H444 0.960 . S
C458 H445 0.961 . S
C458 H446 0.959 . S
C458 C456 1.561 . S
C459 C456 1.526 . S
C459 C460 1.396 . S
C459 C464 1.390 . S
C460 C454 1.465 . S
C460 C459 1.396 . S
C460 C461 1.399 . S
C461 H447 0.929 . S
C461 C460 1.399 . S
C461 C462 1.385 . S
C462 H448 0.931 . S
C462 C461 1.385 . S
C462 C463 1.389 . S
C463 C462 1.389 . S
C463 C464 1.387 . S
C464 H449 0.930 . S
C464 C459 1.390 . S
C464 C463 1.387 . S
H465 C477 0.930 1_565 S
H466 C479 0.930 . S
H467 C480 0.930 . S
H468 C484 0.959 . S
H469 C484 0.959 . S
H470 C484 0.961 . S
H471 C485 0.960 . S
H472 C485 0.961 . S
H473 C485 0.959 . S
H474 C488 0.929 . S
H475 C489 0.931 . S
H476 C491 0.930 . S
C477 H465 0.930 1_545 S
C477 C478 1.399 . S
C477 C482 1.399 . S
C478 C477 1.399 . S
C478 C479 1.376 . S
C479 H466 0.930 . S
C479 C478 1.376 . S
C479 C480 1.388 . S
C480 H467 0.930 . S
C480 C479 1.388 . S
C480 C481 1.390 . S
C481 C480 1.390 . S
C481 C482 1.394 . S
C481 C487 1.465 . S
C482 C477 1.399 . S
C482 C481 1.394 . S
C482 C483 1.516 . S
C483 C482 1.516 . S
C483 C484 1.502 . S
C483 C485 1.561 . S
C483 C486 1.526 . S
C484 H468 0.959 . S
C484 H469 0.959 . S
C484 H470 0.961 . S
C484 C483 1.502 . S
C485 H471 0.960 . S
C485 H472 0.961 . S
C485 H473 0.959 . S
C485 C483 1.561 . S
C486 C483 1.526 . S
C486 C487 1.396 . S
C486 C491 1.390 . S
C487 C481 1.465 . S
C487 C486 1.396 . S
C487 C488 1.399 . S
C488 H474 0.929 . S
C488 C487 1.399 . S
C488 C489 1.385 . S
C489 H475 0.931 . S
C489 C488 1.385 . S
C489 C490 1.389 . S
C490 C489 1.389 . S
C490 C491 1.387 . S
C491 H476 0.930 . S
C491 C486 1.390 . S
C491 C490 1.387 . S
H492 C504 0.930 . S
H493 C506 0.930 . S
H494 C507 0.930 . S
H495 C511 0.959 . S
H496 C511 0.959 . S
H497 C511 0.961 . S
H498 C512 0.960 . S
H499 C512 0.961 . S
H500 C512 0.959 . S
H501 C515 0.929 . S
H502 C516 0.931 . S
H503 C518 0.930 . S
C504 H492 0.930 . S
C504 C505 1.399 . S
C504 C509 1.399 . S
C505 C504 1.399 . S
C505 C506 1.376 . S
C506 H493 0.930 . S
C506 C505 1.376 . S
C506 C507 1.388 . S
C507 H494 0.930 . S
C507 C506 1.388 . S
C507 C508 1.390 . S
C508 C507 1.390 . S
C508 C509 1.394 . S
C508 C514 1.465 . S
C509 C504 1.399 . S
C509 C508 1.394 . S
C509 C510 1.516 . S
C510 C509 1.516 . S
C510 C511 1.502 . S
C510 C512 1.561 . S
C510 C513 1.526 . S
C511 H495 0.959 . S
C511 H496 0.959 . S
C511 H497 0.961 . S
C511 C510 1.502 . S
C512 H498 0.960 . S
C512 H499 0.961 . S
C512 H500 0.959 . S
C512 C510 1.561 . S
C513 C510 1.526 . S
C513 C514 1.396 . S
C513 C518 1.390 . S
C514 C508 1.465 . S
C514 C513 1.396 . S
C514 C515 1.399 . S
C515 H501 0.929 . S
C515 C514 1.399 . S
C515 C516 1.385 . S
C516 H502 0.931 . S
C516 C515 1.385 . S
C516 C517 1.389 . S
C517 C516 1.389 . S
C517 C518 1.387 . S
C518 H503 0.930 . S
C518 C513 1.390 . S
C518 C517 1.387 . S
H519 C531 0.930 . S
H520 C533 0.930 . S
H521 C534 0.930 . S
H522 C538 0.959 . S
H523 C538 0.959 . S
H524 C538 0.961 . S
H525 C539 0.960 . S
H526 C539 0.961 . S
H527 C539 0.959 1_554 S
H528 C542 0.929 . S
H529 C543 0.924 1_554 S
H530 C545 0.930 . S
C531 H519 0.930 . S
C531 C532 1.399 . S
C531 C536 1.399 . S
C532 C531 1.399 . S
C532 C533 1.376 . S
C533 H520 0.930 . S
C533 C532 1.376 . S
C533 C534 1.388 . S
C534 H521 0.930 . S
C534 C533 1.388 . S
C534 C535 1.390 . S
C535 C534 1.390 . S
C535 C536 1.394 . S
C535 C541 1.465 . S
C536 C531 1.399 . S
C536 C535 1.394 . S
C536 C537 1.516 . S
C537 C536 1.516 . S
C537 C538 1.502 . S
C537 C539 1.561 . S
C537 C540 1.526 . S
C538 H522 0.959 . S
C538 H523 0.959 . S
C538 H524 0.961 . S
C538 C537 1.502 . S
C539 H525 0.960 . S
C539 H526 0.961 . S
C539 H527 0.959 1_556 S
C539 C537 1.561 . S
C540 C537 1.526 . S
C540 C541 1.396 . S
C540 C545 1.390 . S
C541 C535 1.465 . S
C541 C540 1.396 . S
C541 C542 1.399 . S
C542 H528 0.929 . S
C542 C541 1.399 . S
C542 C543 1.394 . S
C543 H529 0.924 1_556 S
C543 C542 1.394 . S
C543 C544 1.388 1_556 S
C544 C543 1.388 1_554 S
C544 C545 1.387 1_554 S
C545 H530 0.930 . S
C545 C540 1.390 . S
C545 C544 1.387 1_556 S
H546 C558 0.930 . S
H547 C560 0.930 . S
H548 C561 0.930 . S
H549 C565 0.959 . S
H550 C565 0.959 . S
H551 C565 0.961 . S
H552 C566 0.960 . S
H553 C566 0.961 . S
H554 C566 0.959 . S
H555 C569 0.929 . S
H556 C570 0.931 . S
H557 C572 0.930 . S
C558 H546 0.930 . S
C558 C559 1.399 . S
C558 C563 1.399 . S
C559 C558 1.399 . S
C559 C560 1.376 1_565 S
C560 H547 0.930 . S
C560 C559 1.376 1_545 S
C560 C561 1.388 1_545 S
C561 H548 0.930 . S
C561 C560 1.388 1_565 S
C561 C562 1.390 . S
C562 C561 1.390 . S
C562 C563 1.394 . S
C562 C568 1.465 . S
C563 C558 1.399 . S
C563 C562 1.394 . S
C563 C564 1.516 . S
C564 C563 1.516 . S
C564 C565 1.502 . S
C564 C566 1.561 . S
C564 C567 1.526 . S
C565 H549 0.959 . S
C565 H550 0.959 . S
C565 H551 0.961 . S
C565 C564 1.502 . S
C566 H552 0.960 . S
C566 H553 0.961 . S
C566 H554 0.959 . S
C566 C564 1.561 . S
C567 C564 1.526 . S
C567 C568 1.396 . S
C567 C572 1.390 . S
C568 C562 1.465 . S
C568 C567 1.396 . S
C568 C569 1.399 . S
C569 H555 0.929 . S
C569 C568 1.399 . S
C569 C570 1.385 . S
C570 H556 0.931 . S
C570 C569 1.385 . S
C570 C571 1.389 . S
C571 C570 1.389 . S
C571 C572 1.387 . S
C572 H557 0.930 . S
C572 C567 1.390 . S
C572 C571 1.387 . S
H573 C585 0.930 . S
H574 C587 0.930 . S
H575 C588 0.930 . S
H576 C592 0.959 . S
H577 C592 0.959 . S
H578 C592 0.961 . S
H579 C593 0.960 . S
H580 C593 0.961 . S
H581 C593 0.959 . S
H582 C596 0.929 . S
H583 C597 0.931 . S
H584 C599 0.930 . S
C585 H573 0.930 . S
C585 C586 1.399 . S
C585 C590 1.399 . S
C586 C585 1.399 . S
C586 C587 1.376 . S
C587 H574 0.930 . S
C587 C586 1.376 . S
C587 C588 1.388 . S
C588 H575 0.930 . S
C588 C587 1.388 . S
C588 C589 1.390 . S
C589 C588 1.390 . S
C589 C590 1.394 . S
C589 C595 1.465 . S
C590 C585 1.399 . S
C590 C589 1.394 . S
C590 C591 1.516 . S
C591 C590 1.516 . S
C591 C592 1.502 . S
C591 C593 1.561 . S
C591 C594 1.526 . S
C592 H576 0.959 . S
C592 H577 0.959 . S
C592 H578 0.961 . S
C592 C591 1.502 . S
C593 H579 0.960 . S
C593 H580 0.961 . S
C593 H581 0.959 . S
C593 C591 1.561 . S
C594 C591 1.526 . S
C594 C595 1.396 . S
C594 C599 1.390 . S
C595 C589 1.465 . S
C595 C594 1.396 . S
C595 C596 1.399 . S
C596 H582 0.929 . S
C596 C595 1.399 . S
C596 C597 1.385 . S
C597 H583 0.931 . S
C597 C596 1.385 . S
C597 C598 1.389 . S
C598 C597 1.389 . S
C598 C599 1.387 . S
C599 H584 0.930 . S
C599 C594 1.390 . S
C599 C598 1.387 . S
H600 C612 0.930 . S
H601 C614 0.930 . S
H602 C615 0.930 . S
H603 C619 0.959 . S
H604 C619 0.959 . S
H605 C619 0.961 . S
H606 C620 0.960 . S
H607 C620 0.961 . S
H608 C620 0.959 . S
H609 C623 0.929 . S
H610 C624 0.931 1_655 S
H611 C626 0.930 . S
C612 H600 0.930 . S
C612 C613 1.399 . S
C612 C617 1.399 . S
C613 C612 1.399 . S
C613 C614 1.376 . S
C614 H601 0.930 . S
C614 C613 1.376 . S
C614 C615 1.388 . S
C615 H602 0.930 . S
C615 C614 1.388 . S
C615 C616 1.390 . S
C616 C615 1.390 . S
C616 C617 1.394 . S
C616 C622 1.465 . S
C617 C612 1.399 . S
C617 C616 1.394 . S
C617 C618 1.516 . S
C618 C617 1.516 . S
C618 C619 1.502 . S
C618 C620 1.561 . S
C618 C621 1.526 . S
C619 H603 0.959 . S
C619 H604 0.959 . S
C619 H605 0.961 . S
C619 C618 1.502 . S
C620 H606 0.960 . S
C620 H607 0.961 . S
C620 H608 0.959 . S
C620 C618 1.561 . S
C621 C618 1.526 . S
C621 C622 1.396 . S
C621 C626 1.390 . S
C622 C616 1.465 . S
C622 C621 1.396 . S
C622 C623 1.399 . S
C623 H609 0.929 . S
C623 C622 1.399 . S
C623 C624 1.385 . S
C624 H610 0.931 1_455 S
C624 C623 1.385 . S
C624 C625 1.389 . S
C625 C624 1.389 . S
C625 C626 1.387 . S
C626 H611 0.930 . S
C626 C621 1.390 . S
C626 C625 1.387 . S
H627 C639 0.930 . S
H628 C641 0.930 . S
H629 C642 0.930 . S
H630 C646 0.959 . S
H631 C646 0.959 . S
H632 C646 0.961 . S
H633 C647 0.960 . S
H634 C647 0.961 . S
H635 C647 0.959 . S
H636 C650 0.929 . S
H637 C651 0.931 . S
H638 C653 0.930 . S
C639 H627 0.930 . S
C639 C640 1.399 . S
C639 C644 1.399 . S
C640 C639 1.399 . S
C640 C641 1.376 . S
C641 H628 0.930 . S
C641 C640 1.376 . S
C641 C642 1.388 . S
C642 H629 0.930 . S
C642 C641 1.388 . S
C642 C643 1.390 . S
C643 C642 1.390 . S
C643 C644 1.394 . S
C643 C649 1.465 . S
C644 C639 1.399 . S
C644 C643 1.394 . S
C644 C645 1.516 . S
C645 C644 1.516 . S
C645 C646 1.502 . S
C645 C647 1.561 . S
C645 C648 1.526 . S
C646 H630 0.959 . S
C646 H631 0.959 . S
C646 H632 0.961 . S
C646 C645 1.502 . S
C647 H633 0.960 . S
C647 H634 0.961 . S
C647 H635 0.959 . S
C647 C645 1.561 . S
C648 C645 1.526 . S
C648 C649 1.396 . S
C648 C653 1.390 . S
C649 C643 1.465 . S
C649 C648 1.396 . S
C649 C650 1.399 . S
C650 H636 0.929 . S
C650 C649 1.399 . S
C650 C651 1.385 . S
C651 H637 0.931 . S
C651 C650 1.385 . S
C651 C652 1.389 . S
C652 C651 1.389 . S
C652 C653 1.387 . S
C653 H638 0.930 . S
C653 C648 1.390 . S
C653 C652 1.387 . S
H654 C666 0.930 . S
H655 C668 0.930 . S
H656 C669 0.930 . S
H657 C673 0.959 . S
H658 C673 0.959 . S
H659 C673 0.961 . S
H660 C674 0.960 . S
H661 C674 0.961 . S
H662 C674 0.959 . S
H663 C677 0.929 . S
H664 C678 0.931 . S
H665 C680 0.930 . S
C666 H654 0.930 . S
C666 C667 1.399 . S
C666 C671 1.399 . S
C667 C666 1.399 . S
C667 C668 1.376 . S
C668 H655 0.930 . S
C668 C667 1.376 . S
C668 C669 1.388 . S
C669 H656 0.930 . S
C669 C668 1.388 . S
C669 C670 1.390 . S
C670 C669 1.390 . S
C670 C671 1.394 . S
C670 C676 1.465 . S
C671 C666 1.399 . S
C671 C670 1.394 . S
C671 C672 1.516 . S
C672 C671 1.516 . S
C672 C673 1.502 . S
C672 C674 1.561 . S
C672 C675 1.526 . S
C673 H657 0.959 . S
C673 H658 0.959 . S
C673 H659 0.961 . S
C673 C672 1.502 . S
C674 H660 0.960 . S
C674 H661 0.961 . S
C674 H662 0.959 . S
C674 C672 1.561 . S
C675 C672 1.526 . S
C675 C676 1.396 . S
C675 C680 1.390 . S
C676 C670 1.465 . S
C676 C675 1.396 . S
C676 C677 1.399 . S
C677 H663 0.929 . S
C677 C676 1.399 . S
C677 C678 1.385 . S
C678 H664 0.931 . S
C678 C677 1.385 . S
C678 C679 1.389 . S
C679 C678 1.389 . S
C679 C680 1.387 . S
C680 H665 0.930 . S
C680 C675 1.390 . S
C680 C679 1.387 . S
H681 C693 0.930 . S
H682 C695 0.930 . S
H683 C696 0.930 . S
H684 C700 0.959 . S
H685 C700 0.959 . S
H686 C700 0.961 . S
H687 C701 0.960 . S
H688 C701 0.961 . S
H689 C701 0.959 . S
H690 C704 0.929 . S
H691 C705 0.931 . S
H692 C707 0.930 . S
C693 H681 0.930 . S
C693 C694 1.399 . S
C693 C698 1.399 . S
C694 C693 1.399 . S
C694 C695 1.376 . S
C695 H682 0.930 . S
C695 C694 1.376 . S
C695 C696 1.388 . S
C696 H683 0.930 . S
C696 C695 1.388 . S
C696 C697 1.390 . S
C697 C696 1.390 . S
C697 C698 1.394 . S
C697 C703 1.465 . S
C698 C693 1.399 . S
C698 C697 1.394 . S
C698 C699 1.516 . S
C699 C698 1.516 . S
C699 C700 1.502 . S
C699 C701 1.561 . S
C699 C702 1.526 . S
C700 H684 0.959 . S
C700 H685 0.959 . S
C700 H686 0.961 . S
C700 C699 1.502 . S
C701 H687 0.960 . S
C701 H688 0.961 . S
C701 H689 0.959 . S
C701 C699 1.561 . S
C702 C699 1.526 . S
C702 C703 1.396 . S
C702 C707 1.390 . S
C703 C697 1.465 . S
C703 C702 1.396 . S
C703 C704 1.399 . S
C704 H690 0.929 . S
C704 C703 1.399 . S
C704 C705 1.385 . S
C705 H691 0.931 . S
C705 C704 1.385 . S
C705 C706 1.389 . S
C706 C705 1.389 . S
C706 C707 1.387 . S
C707 H692 0.930 . S
C707 C702 1.390 . S
C707 C706 1.387 . S
H708 C720 0.930 . S
H709 C722 0.930 . S
H710 C723 0.930 . S
H711 C727 0.959 . S
H712 C727 0.959 . S
H713 C727 0.961 . S
H714 C728 0.960 . S
H715 C728 0.961 . S
H716 C728 0.959 . S
H717 C731 0.929 . S
H718 C732 0.931 . S
H719 C734 0.930 . S
C720 H708 0.930 . S
C720 C721 1.399 . S
C720 C725 1.399 . S
C721 C720 1.399 . S
C721 C722 1.376 . S
C722 H709 0.930 . S
C722 C721 1.376 . S
C722 C723 1.388 . S
C723 H710 0.930 . S
C723 C722 1.388 . S
C723 C724 1.390 . S
C724 C723 1.390 . S
C724 C725 1.394 . S
C724 C730 1.465 . S
C725 C720 1.399 . S
C725 C724 1.394 . S
C725 C726 1.516 . S
C726 C725 1.516 . S
C726 C727 1.502 . S
C726 C728 1.561 . S
C726 C729 1.526 . S
C727 H711 0.959 . S
C727 H712 0.959 . S
C727 H713 0.961 . S
C727 C726 1.502 . S
C728 H714 0.960 . S
C728 H715 0.961 . S
C728 H716 0.959 . S
C728 C726 1.561 . S
C729 C726 1.526 . S
C729 C730 1.396 . S
C729 C734 1.390 . S
C730 C724 1.465 . S
C730 C729 1.396 . S
C730 C731 1.399 . S
C731 H717 0.929 . S
C731 C730 1.399 . S
C731 C732 1.385 . S
C732 H718 0.931 . S
C732 C731 1.385 . S
C732 C733 1.389 . S
C733 C732 1.389 . S
C733 C734 1.387 . S
C734 H719 0.930 . S
C734 C729 1.390 . S
C734 C733 1.387 . S
H735 C747 0.930 . S
H736 C749 0.930 . S
H737 C750 0.930 . S
H738 C754 0.959 . S
H739 C754 0.959 . S
H740 C754 0.961 . S
H741 C755 0.960 . S
H742 C755 0.961 . S
H743 C755 0.959 . S
H744 C758 0.929 . S
H745 C759 0.931 . S
H746 C761 0.930 . S
C747 H735 0.930 . S
C747 C748 1.399 . S
C747 C752 1.399 . S
C748 C747 1.399 . S
C748 C749 1.376 . S
C749 H736 0.930 . S
C749 C748 1.376 . S
C749 C750 1.388 . S
C750 H737 0.930 . S
C750 C749 1.388 . S
C750 C751 1.390 . S
C751 C750 1.390 . S
C751 C752 1.394 . S
C751 C757 1.465 . S
C752 C747 1.399 . S
C752 C751 1.394 . S
C752 C753 1.516 . S
C753 C752 1.516 . S
C753 C754 1.502 . S
C753 C755 1.561 . S
C753 C756 1.526 . S
C754 H738 0.959 . S
C754 H739 0.959 . S
C754 H740 0.961 . S
C754 C753 1.502 . S
C755 H741 0.960 . S
C755 H742 0.961 . S
C755 H743 0.959 . S
C755 C753 1.561 . S
C756 C753 1.526 . S
C756 C757 1.396 . S
C756 C761 1.390 . S
C757 C751 1.465 . S
C757 C756 1.396 . S
C757 C758 1.399 . S
C758 H744 0.929 . S
C758 C757 1.399 . S
C758 C759 1.385 . S
C759 H745 0.931 . S
C759 C758 1.385 . S
C759 C760 1.389 . S
C760 C759 1.389 . S
C760 C761 1.387 . S
C761 H746 0.930 . S
C761 C756 1.390 . S
C761 C760 1.387 . S
H762 C774 0.930 . S
H763 C776 0.930 . S
H764 C777 0.930 . S
H765 C781 0.959 . S
H766 C781 0.959 . S
H767 C781 0.961 . S
H768 C782 0.960 . S
H769 C782 0.961 . S
H770 C782 0.959 . S
H771 C785 0.929 . S
H772 C786 0.931 . S
H773 C788 0.930 . S
C774 H762 0.930 . S
C774 C775 1.399 . S
C774 C779 1.399 . S
C775 C774 1.399 . S
C775 C776 1.376 . S
C776 H763 0.930 . S
C776 C775 1.376 . S
C776 C777 1.388 . S
C777 H764 0.930 . S
C777 C776 1.388 . S
C777 C778 1.390 . S
C778 C777 1.390 . S
C778 C779 1.394 . S
C778 C784 1.465 . S
C779 C774 1.399 . S
C779 C778 1.394 . S
C779 C780 1.516 . S
C780 C779 1.516 . S
C780 C781 1.502 . S
C780 C782 1.561 . S
C780 C783 1.526 . S
C781 H765 0.959 . S
C781 H766 0.959 . S
C781 H767 0.961 . S
C781 C780 1.502 . S
C782 H768 0.960 . S
C782 H769 0.961 . S
C782 H770 0.959 . S
C782 C780 1.561 . S
C783 C780 1.526 . S
C783 C784 1.396 . S
C783 C788 1.390 . S
C784 C778 1.465 . S
C784 C783 1.396 . S
C784 C785 1.399 . S
C785 H771 0.929 . S
C785 C784 1.399 . S
C785 C786 1.385 . S
C786 H772 0.931 . S
C786 C785 1.385 . S
C786 C787 1.389 . S
C787 C786 1.389 . S
C787 C788 1.387 . S
C788 H773 0.930 . S
C788 C783 1.390 . S
C788 C787 1.387 . S
H789 C801 0.930 . S
H790 C803 0.930 . S
H791 C804 0.930 . S
H792 C808 0.959 . S
H793 C808 0.959 . S
H794 C808 0.961 . S
H795 C809 0.960 . S
H796 C809 0.961 . S
H797 C809 0.959 . S
H798 C812 0.929 . S
H799 C813 0.931 . S
H800 C815 0.930 . S
C801 H789 0.930 . S
C801 C802 1.399 . S
C801 C806 1.399 . S
C802 C801 1.399 . S
C802 C803 1.376 . S
C803 H790 0.930 . S
C803 C802 1.376 . S
C803 C804 1.388 . S
C804 H791 0.930 . S
C804 C803 1.388 . S
C804 C805 1.390 . S
C805 C804 1.390 . S
C805 C806 1.394 . S
C805 C811 1.465 . S
C806 C801 1.399 . S
C806 C805 1.394 . S
C806 C807 1.516 . S
C807 C806 1.516 . S
C807 C808 1.502 . S
C807 C809 1.561 . S
C807 C810 1.526 . S
C808 H792 0.959 . S
C808 H793 0.959 . S
C808 H794 0.961 . S
C808 C807 1.502 . S
C809 H795 0.960 . S
C809 H796 0.961 . S
C809 H797 0.959 . S
C809 C807 1.561 . S
C810 C807 1.526 . S
C810 C811 1.396 . S
C810 C815 1.390 . S
C811 C805 1.465 . S
C811 C810 1.396 . S
C811 C812 1.399 . S
C812 H798 0.929 . S
C812 C811 1.399 . S
C812 C813 1.385 . S
C813 H799 0.931 . S
C813 C812 1.385 . S
C813 C814 1.389 . S
C814 C813 1.389 . S
C814 C815 1.387 . S
C815 H800 0.930 . S
C815 C810 1.390 . S
C815 C814 1.387 . S
C181 C118 1.507 . S
C193 C6 1.447 . S
C208 C20 1.527 . S
C220 C132 1.492 . S
C235 C34 1.525 . S
C247 C146 1.450 . S
C262 C48 1.473 . S
C274 C160 1.533 . S
C289 C90 1.513 . S
C301 C62 1.511 . S
C316 C76 1.450 . S
C328 C104 1.526 . S
C343 C7 1.558 . S
C355 C78 1.584 . S
C370 C21 1.603 . S
C382 C8 1.582 1_655 S
C397 C35 1.585 . S
C409 C22 1.610 1_565 S
C424 C36 1.606 . S
C436 C49 1.560 . S
C451 C50 1.610 1_455 S
C463 C63 1.586 . S
C478 C64 1.603 1_545 S
C490 C77 1.598 . S
C505 C106 1.590 . S
C517 C91 1.556 . S
C532 C105 1.605 . S
C544 C120 1.589 1_655 S
C559 C134 1.587 1_565 S
C571 C119 1.557 . S
C586 C133 1.603 . S
C598 C148 1.582 . S
C613 C147 1.554 . S
C625 C162 1.596 1_455 S
C640 C161 1.577 . S
C652 C92 1.611 1_545 S
C667 C149 1.465 . S
C679 C9 1.450 . S
C694 C163 1.481 . S
C706 C23 1.474 . S
C721 C93 1.451 . S
C733 C37 1.459 . S
C748 C51 1.462 . S
C760 C107 1.450 . S
C775 C65 1.457 . S
C787 C121 1.479 1_556 S
C802 C135 1.483 . S
C814 C79 1.457 1_554 S
