# Generated by pormake.
# Topology wgb, (5)-cn, num edge types: 1
# Building blocks:
#     Node 0, Type 0, BuildingBlock: BEQFEK_clean_sbu_0, # of connection points: 5
#     Node 1, Type 0, BuildingBlock: BEQFEK_clean_sbu_0, # of connection points: 5
#     Node 2, Type 0, BuildingBlock: BEQFEK_clean_sbu_0, # of connection points: 5
#     Node 3, Type 0, BuildingBlock: BEQFEK_clean_sbu_0, # of connection points: 5
#     Node 4, Type 0, BuildingBlock: BEQFEK_clean_sbu_0, # of connection points: 5
#     Node 5, Type 0, BuildingBlock: BEQFEK_clean_sbu_0, # of connection points: 5
#     Node 6, Type 0, BuildingBlock: BEQFEK_clean_sbu_0, # of connection points: 5
#     Node 7, Type 0, BuildingBlock: BEQFEK_clean_sbu_0, # of connection points: 5
#     Node 8, Type 0, BuildingBlock: BEQFEK_clean_sbu_0, # of connection points: 5
#     Node 9, Type 0, BuildingBlock: BEQFEK_clean_sbu_0, # of connection points: 5
#     Node 10, Type 0, BuildingBlock: BEQFEK_clean_sbu_0, # of connection points: 5
#     Node 11, Type 0, BuildingBlock: BEQFEK_clean_sbu_0, # of connection points: 5
#     Node 12, Type 0, BuildingBlock: BEQFEK_clean_sbu_0, # of connection points: 5
#     Node 13, Type 0, BuildingBlock: BEQFEK_clean_sbu_0, # of connection points: 5
#     Node 14, Type 0, BuildingBlock: BEQFEK_clean_sbu_0, # of connection points: 5
#     Node 15, Type 0, BuildingBlock: BEQFEK_clean_sbu_0, # of connection points: 5
#     Edge 16, Type (0, 0), BuildingBlock: CIFDUS_clean_linker_0, # of connection points: 2
#     Edge 17, Type (0, 0), BuildingBlock: CIFDUS_clean_linker_0, # of connection points: 2
#     Edge 18, Type (0, 0), BuildingBlock: CIFDUS_clean_linker_0, # of connection points: 2
#     Edge 19, Type (0, 0), BuildingBlock: CIFDUS_clean_linker_0, # of connection points: 2
#     Edge 20, Type (0, 0), BuildingBlock: CIFDUS_clean_linker_0, # of connection points: 2
#     Edge 21, Type (0, 0), BuildingBlock: CIFDUS_clean_linker_0, # of connection points: 2
#     Edge 22, Type (0, 0), BuildingBlock: CIFDUS_clean_linker_0, # of connection points: 2
#     Edge 23, Type (0, 0), BuildingBlock: CIFDUS_clean_linker_0, # of connection points: 2
#     Edge 24, Type (0, 0), BuildingBlock: CIFDUS_clean_linker_0, # of connection points: 2
#     Edge 25, Type (0, 0), BuildingBlock: CIFDUS_clean_linker_0, # of connection points: 2
#     Edge 26, Type (0, 0), BuildingBlock: CIFDUS_clean_linker_0, # of connection points: 2
#     Edge 27, Type (0, 0), BuildingBlock: CIFDUS_clean_linker_0, # of connection points: 2
#     Edge 28, Type (0, 0), BuildingBlock: CIFDUS_clean_linker_0, # of connection points: 2
#     Edge 29, Type (0, 0), BuildingBlock: CIFDUS_clean_linker_0, # of connection points: 2
#     Edge 30, Type (0, 0), BuildingBlock: CIFDUS_clean_linker_0, # of connection points: 2
#     Edge 31, Type (0, 0), BuildingBlock: CIFDUS_clean_linker_0, # of connection points: 2
#     Edge 32, Type (0, 0), BuildingBlock: CIFDUS_clean_linker_0, # of connection points: 2
#     Edge 33, Type (0, 0), BuildingBlock: CIFDUS_clean_linker_0, # of connection points: 2
#     Edge 34, Type (0, 0), BuildingBlock: CIFDUS_clean_linker_0, # of connection points: 2
#     Edge 35, Type (0, 0), BuildingBlock: CIFDUS_clean_linker_0, # of connection points: 2
#     Edge 36, Type (0, 0), BuildingBlock: CIFDUS_clean_linker_0, # of connection points: 2
#     Edge 37, Type (0, 0), BuildingBlock: CIFDUS_clean_linker_0, # of connection points: 2
#     Edge 38, Type (0, 0), BuildingBlock: CIFDUS_clean_linker_0, # of connection points: 2
#     Edge 39, Type (0, 0), BuildingBlock: CIFDUS_clean_linker_0, # of connection points: 2
#     Edge 40, Type (0, 0), BuildingBlock: CIFDUS_clean_linker_0, # of connection points: 2
#     Edge 41, Type (0, 0), BuildingBlock: CIFDUS_clean_linker_0, # of connection points: 2
#     Edge 42, Type (0, 0), BuildingBlock: CIFDUS_clean_linker_0, # of connection points: 2
#     Edge 43, Type (0, 0), BuildingBlock: CIFDUS_clean_linker_0, # of connection points: 2
#     Edge 44, Type (0, 0), BuildingBlock: CIFDUS_clean_linker_0, # of connection points: 2
#     Edge 45, Type (0, 0), BuildingBlock: CIFDUS_clean_linker_0, # of connection points: 2
#     Edge 46, Type (0, 0), BuildingBlock: CIFDUS_clean_linker_0, # of connection points: 2
#     Edge 47, Type (0, 0), BuildingBlock: CIFDUS_clean_linker_0, # of connection points: 2
#     Edge 48, Type (0, 0), BuildingBlock: CIFDUS_clean_linker_0, # of connection points: 2
#     Edge 49, Type (0, 0), BuildingBlock: CIFDUS_clean_linker_0, # of connection points: 2
#     Edge 50, Type (0, 0), BuildingBlock: CIFDUS_clean_linker_0, # of connection points: 2
#     Edge 51, Type (0, 0), BuildingBlock: CIFDUS_clean_linker_0, # of connection points: 2
#     Edge 52, Type (0, 0), BuildingBlock: CIFDUS_clean_linker_0, # of connection points: 2
#     Edge 53, Type (0, 0), BuildingBlock: CIFDUS_clean_linker_0, # of connection points: 2
#     Edge 54, Type (0, 0), BuildingBlock: CIFDUS_clean_linker_0, # of connection points: 2
#     Edge 55, Type (0, 0), BuildingBlock: CIFDUS_clean_linker_0, # of connection points: 2
# Relax obj value: 0.146
# Max RMSD: 0.140
# Mean RMSD: 0.140
data_MOF--net-wgb--node1-BEQFEK_clean_sbu_0--edge1-CIFDUS_clean_linker_0
_symmetry_space_group_name_H-M    P1
_symmetry_Int_Tables_number       1
_symmetry_cell_setting            triclinic
loop_
_symmetry_equiv_pos_as_xyz
'x, y, z'
_cell_length_a     57.161776
_cell_length_b     57.108232
_cell_length_c     17.830487
_cell_angle_alpha  90.135332
_cell_angle_beta   90.23044
_cell_angle_gamma 90.102986
loop_
_atom_site_label
_atom_site_type_symbol
_atom_site_fract_x
_atom_site_fract_y
_atom_site_fract_z
_atom_type_partial_charge
Co0 Co 0.34439 0.05905 0.13992 0.0
Co1 Co 0.32973 0.11218 0.1551 0.0
C2 C 0.30899 0.08045 0.0341 0.0
O3 O 0.32162 0.06289 0.05307 0.0
O4 O 0.31115 0.10017 0.06751 0.0
C5 C 0.35389 0.00874 0.11256 0.0
O6 O 0.3357 0.00876 0.06728 0.0
C7 C 0.32848 0.16343 0.12662 0.0
C8 C 0.31604 0.17616 0.23658 0.0
C9 C 0.32363 0.18383 0.16713 0.0
N10 N 0.32437 0.14489 0.17109 0.0
N11 N 0.31668 0.15267 0.23633 0.0
C12 C 0.3361 0.16112 0.04679 0.0
H13 H 0.33131 0.14359 0.02451 0.0
H14 H 0.3554 0.16289 0.04375 0.0
H15 H 0.32797 0.17496 0.01174 0.0
C16 C 0.39126 0.08089 0.16204 0.0
N17 N 0.36823 0.08294 0.14599 0.0
N18 N 0.36213 0.10501 0.15405 0.0
C19 C 0.38084 0.11751 0.17798 0.0
C20 C 0.40009 0.10267 0.1837 0.0
C21 C 0.40414 0.05811 0.16176 0.0
H22 H 0.39921 0.0479 0.21217 0.0
H23 H 0.39917 0.04781 0.11132 0.0
H24 H 0.42336 0.0609 0.16183 0.0
O25 O 0.32502 0.05949 0.23282 0.0
O26 O 0.31687 0.09737 0.24328 0.0
H27 H 0.36365 0.14285 0.24712 0.0
H28 H 0.3947 0.14682 0.24284 0.0
C29 C 0.37905 0.14176 0.20978 0.0
H30 H 0.37672 0.15442 0.16339 0.0
H31 H 0.31238 0.14195 0.28151 0.0
O32 O 0.36009 0.02775 0.14405 0.0
C33 C 0.31576 0.07657 0.26763 0.0
Co34 Co 0.06594 0.67675 0.86326 0.0
Co35 Co 0.11992 0.68995 0.84822 0.0
C36 C 0.09185 0.70483 0.98321 0.0
O37 O 0.07283 0.69567 0.95807 0.0
O38 O 0.11132 0.70221 0.94904 0.0
C39 C 0.01746 0.65289 0.88447 0.0
O40 O 0.02041 0.64715 0.95517 0.0
C41 C 0.17252 0.68898 0.85865 0.0
C42 C 0.18105 0.70351 0.74726 0.0
C43 C 0.19115 0.69409 0.81101 0.0
N44 N 0.15241 0.69488 0.8237 0.0
N45 N 0.1578 0.70388 0.75772 0.0
C46 C 0.17355 0.67686 0.93278 0.0
H47 H 0.15622 0.66928 0.94691 0.0
H48 H 0.18707 0.66293 0.93197 0.0
H49 H 0.17842 0.68976 0.97678 0.0
C50 C 0.0852 0.63051 0.81631 0.0
N51 N 0.08843 0.65279 0.83987 0.0
N52 N 0.11063 0.65837 0.83138 0.0
C53 C 0.12208 0.63994 0.80127 0.0
C54 C 0.10637 0.6216 0.79073 0.0
C55 C 0.06207 0.61824 0.8159 0.0
H56 H 0.05059 0.62621 0.77265 0.0
H57 H 0.05367 0.62045 0.87135 0.0
H58 H 0.06397 0.59926 0.80414 0.0
O59 O 0.06584 0.70045 0.78362 0.0
O60 O 0.10324 0.71045 0.77872 0.0
H61 H 0.14894 0.65706 0.73846 0.0
H62 H 0.15117 0.62573 0.73756 0.0
C63 C 0.14666 0.64108 0.77271 0.0
H64 H 0.15892 0.64191 0.82092 0.0
H65 H 0.14551 0.70952 0.71834 0.0
O66 O 0.03353 0.66386 0.84996 0.0
C67 C 0.08217 0.71308 0.75777 0.0
Co68 Co 0.66221 0.95353 0.10309 0.0
Co69 Co 0.67972 0.90089 0.11498 0.0
C70 C 0.69314 0.93062 0.98374 0.0
O71 O 0.68206 0.94854 0.0088 0.0
O72 O 0.69181 0.91082 0.01656 0.0
C73 C 0.65338 1.00434 0.11189 0.0
O74 O 0.67611 1.00678 0.10433 0.0
C75 C 0.68415 0.84939 0.09516 0.0
C76 C 0.69856 0.83947 0.20583 0.0
C77 C 0.69088 0.83023 0.13822 0.0
N78 N 0.68752 0.86896 0.13602 0.0
N79 N 0.69645 0.86287 0.20163 0.0
C80 C 0.67285 0.84916 0.0194 0.0
H81 H 0.66303 0.86566 0.00997 0.0
H82 H 0.66095 0.83387 0.01369 0.0
H83 H 0.68662 0.84773 0.97595 0.0
C84 C 0.61804 0.92974 0.14951 0.0
N85 N 0.64028 0.92866 0.1243 0.0
N86 N 0.64765 0.90693 0.13063 0.0
C87 C 0.63059 0.89369 0.16136 0.0
C88 C 0.61119 0.90772 0.17464 0.0
C89 C 0.60408 0.95178 0.15406 0.0
H90 H 0.61066 0.96239 0.20188 0.0
H91 H 0.60617 0.96198 0.1017 0.0
H92 H 0.58521 0.94804 0.1625 0.0
O93 O 0.68566 0.956 0.18558 0.0
O94 O 0.698 0.91916 0.18575 0.0
H95 H 0.6501 0.86883 0.22551 0.0
H96 H 0.61936 0.86267 0.22237 0.0
C97 C 0.63433 0.86926 0.18928 0.0
H98 H 0.63718 0.85741 0.14087 0.0
H99 H 0.70046 0.87467 0.24459 0.0
O100 O 0.64445 0.98395 0.10725 0.0
C101 C 0.69939 0.94011 0.20928 0.0
Co102 Co 0.94793 0.3377 0.86001 0.0
Co103 Co 0.89379 0.32527 0.85908 0.0
C104 C 0.92684 0.30385 0.97298 0.0
O105 O 0.94431 0.31567 0.94849 0.0
O106 O 0.90631 0.30647 0.94525 0.0
C107 C 0.99587 0.36223 0.87758 0.0
O108 O 0.99251 0.36937 0.94678 0.0
C109 C 0.84169 0.31922 0.88138 0.0
C110 C 0.83142 0.31564 0.76217 0.0
C111 C 0.82248 0.31574 0.83399 0.0
N112 N 0.86102 0.3211 0.83871 0.0
N113 N 0.85458 0.31892 0.76771 0.0
C114 C 0.84193 0.32001 0.96516 0.0
H115 H 0.8594 0.3149 0.98695 0.0
H116 H 0.83831 0.33819 0.98388 0.0
H117 H 0.82823 0.30832 0.98832 0.0
C118 C 0.92741 0.38511 0.83434 0.0
N119 N 0.92512 0.3625 0.85539 0.0
N120 N 0.90266 0.35738 0.85875 0.0
C121 C 0.89006 0.3766 0.84099 0.0
C122 C 0.9053 0.39482 0.824 0.0
C123 C 0.95035 0.39663 0.81807 0.0
H124 H 0.9613 0.39631 0.86942 0.0
H125 H 0.94815 0.41512 0.80051 0.0
H126 H 0.95955 0.38674 0.77345 0.0
O127 O 0.94502 0.31778 0.76997 0.0
O128 O 0.90698 0.31091 0.77029 0.0
H129 H 0.8604 0.36675 0.77489 0.0
H130 H 0.85687 0.39418 0.82308 0.0
C131 C 0.86419 0.3763 0.82779 0.0
H132 H 0.85543 0.36707 0.87455 0.0
H133 H 0.866 0.31989 0.72241 0.0
O134 O 0.98015 0.35031 0.84415 0.0
C135 C 0.9269 0.30875 0.74059 0.0
Co136 Co 0.34076 0.44885 0.11662 0.0
Co137 Co 0.33201 0.39477 0.13627 0.0
C138 C 0.30891 0.42734 0.23928 0.0
O139 O 0.31899 0.44464 0.20686 0.0
O140 O 0.31318 0.40625 0.22009 0.0
C141 C 0.37132 0.49105 0.121 0.0
O142 O 0.38794 0.47776 0.14871 0.0
C143 C 0.32724 0.34322 0.16595 0.0
C144 C 0.33321 0.33029 0.05055 0.0
C145 C 0.32853 0.32286 0.12274 0.0
N146 N 0.33107 0.36168 0.12077 0.0
N147 N 0.33447 0.35374 0.05201 0.0
C148 C 0.32369 0.34525 0.24871 0.0
H149 H 0.33137 0.36187 0.26994 0.0
H150 H 0.33167 0.33013 0.27821 0.0
H151 H 0.30466 0.34543 0.2606 0.0
C152 C 0.38652 0.42711 0.06929 0.0
N153 N 0.36644 0.42702 0.10952 0.0
N154 N 0.36318 0.40576 0.13581 0.0
C155 C 0.38186 0.39245 0.11951 0.0
C156 C 0.39702 0.40514 0.07454 0.0
C157 C 0.39261 0.44557 0.01312 0.0
H158 H 0.37772 0.45768 0.00422 0.0
H159 H 0.40807 0.45557 0.03331 0.0
H160 H 0.39738 0.43737 0.95879 0.0
O161 O 0.32079 0.44381 0.02909 0.0
O162 O 0.31594 0.40569 0.04557 0.0
H163 H 0.37844 0.35529 0.1029 0.0
H164 H 0.40372 0.36398 0.15575 0.0
C165 C 0.38491 0.36774 0.14587 0.0
H166 H 0.37493 0.36487 0.19833 0.0
H167 H 0.33792 0.36442 0.00588 0.0
O168 O 0.35119 0.48237 0.10785 0.0
C169 C 0.31228 0.42428 0.00857 0.0
Co170 Co 0.45364 0.66702 0.86668 0.0
Co171 Co 0.39857 0.67518 0.86518 0.0
C172 C 0.4276 0.69627 0.74603 0.0
O173 O 0.44605 0.68715 0.77502 0.0
O174 O 0.40727 0.69196 0.77234 0.0
C175 C 0.49773 0.63914 0.84844 0.0
O176 O 0.48576 0.62306 0.8121 0.0
C177 C 0.34575 0.68094 0.85666 0.0
C178 C 0.33793 0.67343 0.97551 0.0
C179 C 0.32742 0.67954 0.90832 0.0
N180 N 0.36595 0.67573 0.89239 0.0
N181 N 0.36097 0.67132 0.96327 0.0
C182 C 0.34446 0.68865 0.77669 0.0
H183 H 0.3616 0.69557 0.75807 0.0
H184 H 0.33987 0.67338 0.74093 0.0
H185 H 0.3308 0.70226 0.76942 0.0
C186 C 0.43594 0.6197 0.91403 0.0
N187 N 0.43277 0.64108 0.88321 0.0
N188 N 0.41025 0.64406 0.87096 0.0
C189 C 0.39873 0.62413 0.88779 0.0
C190 C 0.41456 0.60798 0.91664 0.0
C191 C 0.45758 0.6127 0.95576 0.0
H192 H 0.46864 0.62818 0.96824 0.0
H193 H 0.4675 0.5999 0.92176 0.0
H194 H 0.45293 0.60403 0.00936 0.0
O195 O 0.45092 0.68838 0.95131 0.0
O196 O 0.41272 0.69447 0.94511 0.0
H197 H 0.36354 0.62542 0.9282 0.0
H198 H 0.36907 0.60212 0.86275 0.0
C199 C 0.373 0.62071 0.87619 0.0
H200 H 0.36663 0.63204 0.82998 0.0
H201 H 0.37347 0.66703 0.00375 0.0
O202 O 0.48757 0.65768 0.87078 0.0
C203 C 0.43263 0.69859 0.97437 0.0
Co204 Co 0.66791 0.56415 0.15557 0.0
Co205 Co 0.67609 0.61913 0.14885 0.0
C206 C 0.69467 0.59164 0.2777 0.0
O207 O 0.68715 0.57223 0.25 0.0
O208 O 0.69002 0.61122 0.2467 0.0
C209 C 0.66815 0.51297 0.148 0.0
O210 O 0.6908 0.51482 0.15927 0.0
C211 C 0.67981 0.67143 0.16593 0.0
C212 C 0.67609 0.6816 0.04699 0.0
C213 C 0.67882 0.69085 0.11839 0.0
N214 N 0.6773 0.65187 0.12413 0.0
N215 N 0.67533 0.65818 0.05317 0.0
C216 C 0.68449 0.67117 0.24854 0.0
H217 H 0.69301 0.65459 0.26511 0.0
H218 H 0.66766 0.67258 0.27896 0.0
H219 H 0.69597 0.68602 0.26511 0.0
C220 C 0.62115 0.5803 0.10308 0.0
N221 N 0.64237 0.58484 0.13351 0.0
N222 N 0.64527 0.60764 0.13725 0.0
C223 C 0.62559 0.61832 0.11327 0.0
C224 C 0.60968 0.60141 0.08922 0.0
C225 C 0.61413 0.55654 0.07541 0.0
H226 H 0.62917 0.54846 0.04613 0.0
H227 H 0.60951 0.54534 0.12394 0.0
H228 H 0.59917 0.55719 0.03579 0.0
O229 O 0.69036 0.56587 0.07379 0.0
O230 O 0.69673 0.60421 0.07451 0.0
H231 H 0.62862 0.65178 0.06047 0.0
H232 H 0.60322 0.64863 0.11885 0.0
C233 C 0.62207 0.64429 0.1137 0.0
H234 H 0.63181 0.65234 0.16111 0.0
H235 H 0.67323 0.6464 0.00875 0.0
O236 O 0.65553 0.53128 0.15091 0.0
C237 C 0.70105 0.58378 0.04948 0.0
Co238 Co 0.56407 0.35172 0.87423 0.0
Co239 Co 0.61733 0.3367 0.88135 0.0
C240 C 0.58693 0.3176 0.76068 0.0
O241 O 0.56941 0.32936 0.7854 0.0
O242 O 0.60733 0.31981 0.78965 0.0
C243 C 0.51407 0.35851 0.88414 0.0
O244 O 0.51356 0.33555 0.88834 0.0
C245 C 0.66945 0.32931 0.87891 0.0
C246 C 0.67597 0.33029 0.00129 0.0
C247 C 0.68715 0.32858 0.93293 0.0
N248 N 0.64882 0.3316 0.91437 0.0
N249 N 0.65294 0.33184 0.9874 0.0
C250 C 0.67213 0.33007 0.79559 0.0
H251 H 0.65618 0.33744 0.76897 0.0
H252 H 0.6877 0.34064 0.78018 0.0
H253 H 0.67469 0.312 0.77422 0.0
C254 C 0.58695 0.39699 0.91573 0.0
N255 N 0.58815 0.37486 0.88893 0.0
N256 N 0.61027 0.36892 0.8832 0.0
C257 C 0.62381 0.38729 0.90313 0.0
C258 C 0.60958 0.40567 0.92596 0.0
C259 C 0.56473 0.4079 0.94265 0.0
H260 H 0.55401 0.39452 0.97168 0.0
H261 H 0.55468 0.41439 0.8936 0.0
H262 H 0.56804 0.42264 0.98187 0.0
O263 O 0.56239 0.33134 0.9635 0.0
O264 O 0.59973 0.32148 0.96041 0.0
H265 H 0.65672 0.37934 0.95458 0.0
H266 H 0.65708 0.40508 0.8964 0.0
C267 C 0.64999 0.38706 0.90177 0.0
H268 H 0.65616 0.37634 0.85395 0.0
H269 H 0.64002 0.33395 0.02799 0.0
O270 O 0.53345 0.36867 0.87129 0.0
C271 C 0.57959 0.31986 0.98951 0.0
Co272 Co 0.83818 0.5652 0.66779 0.0
Co273 Co 0.83111 0.62037 0.65661 0.0
C274 C 0.80763 0.5878 0.54652 0.0
O275 O 0.81731 0.56977 0.57617 0.0
O276 O 0.81217 0.60852 0.57005 0.0
C277 C 0.85856 0.516 0.65315 0.0
O278 O 0.86629 0.52011 0.58515 0.0
C279 C 0.83077 0.67259 0.62661 0.0
C280 C 0.83185 0.68465 0.74455 0.0
C281 C 0.8318 0.69263 0.67147 0.0
N282 N 0.83052 0.65369 0.67188 0.0
N283 N 0.83086 0.66121 0.74208 0.0
C284 C 0.83189 0.67124 0.54301 0.0
H285 H 0.83795 0.65366 0.52497 0.0
H286 H 0.84372 0.68501 0.52089 0.0
H287 H 0.81414 0.67422 0.51954 0.0
C288 C 0.88695 0.58189 0.69777 0.0
N289 N 0.86496 0.58569 0.67244 0.0
N290 N 0.86212 0.60836 0.6625 0.0
C291 C 0.88237 0.61952 0.67895 0.0
C292 C 0.89874 0.6032 0.70309 0.0
C293 C 0.89584 0.55853 0.72262 0.0
H294 H 0.89628 0.54657 0.67364 0.0
H295 H 0.91376 0.55969 0.74647 0.0
H296 H 0.88378 0.551 0.76482 0.0
O297 O 0.81783 0.57159 0.75413 0.0
O298 O 0.81415 0.61001 0.74471 0.0
H299 H 0.90333 0.65123 0.68234 0.0
H300 H 0.87563 0.65374 0.63508 0.0
C301 C 0.8848 0.64559 0.68316 0.0
H302 H 0.87694 0.65194 0.73615 0.0
H303 H 0.83116 0.65025 0.78878 0.0
O304 O 0.84741 0.53188 0.68808 0.0
C305 C 0.80981 0.59093 0.77783 0.0
Co306 Co 0.56514 0.17913 0.36046 0.0
Co307 Co 0.61967 0.18558 0.38261 0.0
C308 C 0.58835 0.2036 0.49869 0.0
O309 O 0.57025 0.19737 0.46033 0.0
O310 O 0.60896 0.19827 0.47783 0.0
C311 C 0.52022 0.15159 0.36034 0.0
O312 O 0.5298 0.13675 0.40746 0.0
C313 C 0.67138 0.18555 0.41435 0.0
C314 C 0.68397 0.18895 0.29776 0.0
C315 C 0.69166 0.18666 0.37107 0.0
N316 N 0.65276 0.18678 0.36797 0.0
N317 N 0.66052 0.189 0.29865 0.0
C318 C 0.66952 0.18421 0.49788 0.0
H319 H 0.65264 0.19163 0.51688 0.0
H320 H 0.67018 0.16559 0.51537 0.0
H321 H 0.68421 0.19375 0.52509 0.0
C322 C 0.58414 0.13291 0.3014 0.0
N323 N 0.58612 0.15297 0.34202 0.0
N324 N 0.60814 0.15534 0.36239 0.0
C325 C 0.62037 0.13649 0.34015 0.0
C326 C 0.60591 0.12186 0.29866 0.0
C327 C 0.56311 0.1265 0.25549 0.0
H328 H 0.55317 0.14243 0.23988 0.0
H329 H 0.55165 0.11486 0.28891 0.0
H330 H 0.56825 0.11691 0.20392 0.0
O331 O 0.57074 0.2029 0.28368 0.0
O332 O 0.60854 0.20752 0.30617 0.0
H333 H 0.65645 0.14156 0.31225 0.0
H334 H 0.65018 0.11392 0.35575 0.0
C335 C 0.64585 0.13286 0.35601 0.0
H336 H 0.65045 0.14042 0.41145 0.0
H337 H 0.64971 0.1902 0.25148 0.0
O338 O 0.53172 0.16964 0.34024 0.0
C339 C 0.59004 0.21313 0.27108 0.0
Co340 Co 0.17015 0.45139 0.62565 0.0
Co341 Co 0.17918 0.3964 0.63015 0.0
C342 C 0.19588 0.42564 0.50125 0.0
O343 O 0.18812 0.44484 0.52908 0.0
O344 O 0.19229 0.40599 0.53308 0.0
C345 C 0.14776 0.49996 0.60938 0.0
O346 O 0.13686 0.49455 0.54668 0.0
C347 C 0.18034 0.34453 0.60138 0.0
C348 C 0.18665 0.33218 0.717 0.0
C349 C 0.18335 0.32422 0.64423 0.0
N350 N 0.18155 0.36326 0.64745 0.0
N351 N 0.18548 0.35565 0.71623 0.0
C352 C 0.17732 0.34647 0.51827 0.0
H353 H 0.18138 0.36442 0.49901 0.0
H354 H 0.15885 0.34262 0.50332 0.0
H355 H 0.18884 0.3338 0.48899 0.0
C356 C 0.12281 0.43404 0.6735 0.0
N357 N 0.14454 0.43026 0.64623 0.0
N358 N 0.14839 0.40751 0.64549 0.0
C359 C 0.12922 0.39619 0.67033 0.0
C360 C 0.11236 0.41258 0.68951 0.0
C361 C 0.11279 0.45778 0.68814 0.0
H362 H 0.12486 0.4679 0.7248 0.0
H363 H 0.11103 0.46719 0.63419 0.0
H364 H 0.09529 0.45676 0.71458 0.0
O365 O 0.19378 0.44813 0.70476 0.0
O366 O 0.20021 0.40992 0.70526 0.0
H367 H 0.14035 0.36644 0.73317 0.0
H368 H 0.11075 0.3642 0.70064 0.0
C369 C 0.12846 0.37042 0.68567 0.0
H370 H 0.13451 0.3607 0.63552 0.0
H371 H 0.18727 0.36654 0.76298 0.0
O372 O 0.16075 0.48487 0.64131 0.0
C373 C 0.20462 0.43038 0.72949 0.0
Co374 Co 0.44738 0.83662 0.3576 0.0
Co375 Co 0.39249 0.83215 0.36111 0.0
C376 C 0.42099 0.80941 0.47999 0.0
O377 O 0.44021 0.81651 0.45048 0.0
O378 O 0.40118 0.81542 0.45312 0.0
C379 C 0.49546 0.85865 0.37264 0.0
O380 O 0.48867 0.87147 0.42978 0.0
C381 C 0.34105 0.83166 0.38658 0.0
C382 C 0.3291 0.83296 0.26846 0.0
C383 C 0.32106 0.83183 0.34148 0.0
N384 N 0.35984 0.83264 0.34163 0.0
N385 N 0.35253 0.83333 0.2713 0.0
C386 C 0.34259 0.83199 0.47032 0.0
H387 H 0.35952 0.8397 0.48866 0.0
H388 H 0.3279 0.84215 0.49456 0.0
H389 H 0.34169 0.81376 0.49152 0.0
C390 C 0.43271 0.8864 0.31998 0.0
N391 N 0.4283 0.86451 0.34588 0.0
N392 N 0.40553 0.86233 0.35453 0.0
C393 C 0.39498 0.88271 0.33774 0.0
C394 C 0.41168 0.89858 0.31397 0.0
C395 C 0.45584 0.89434 0.2904 0.0
H396 H 0.46668 0.90096 0.33763 0.0
H397 H 0.4537 0.90874 0.24927 0.0
H398 H 0.46506 0.87952 0.26332 0.0
O399 O 0.4417 0.81558 0.27212 0.0
O400 O 0.40319 0.81305 0.27785 0.0
H401 H 0.36512 0.90564 0.34617 0.0
H402 H 0.36154 0.87725 0.38912 0.0
C403 C 0.36913 0.8867 0.34074 0.0
H404 H 0.36093 0.88012 0.28831 0.0
H405 H 0.36361 0.83416 0.225 0.0
O406 O 0.48128 0.84407 0.34314 0.0
C407 C 0.42241 0.80763 0.24755 0.0
Co408 Co 0.83614 0.95221 0.60212 0.0
Co409 Co 0.82653 0.89759 0.5848 0.0
C410 C 0.80433 0.9244 0.70931 0.0
O411 O 0.81387 0.94368 0.6886 0.0
O412 O 0.80867 0.90517 0.67566 0.0
C413 C 0.86519 0.99464 0.63984 0.0
O414 O 0.879 0.98131 0.68028 0.0
C415 C 0.82335 0.84514 0.59592 0.0
C416 C 0.82102 0.83636 0.47528 0.0
C417 C 0.8215 0.82641 0.54588 0.0
N418 N 0.8242 0.86516 0.55616 0.0
N419 N 0.82272 0.85967 0.4842 0.0
C420 C 0.82329 0.84419 0.67977 0.0
H421 H 0.81708 0.861 0.70355 0.0
H422 H 0.84137 0.84115 0.70029 0.0
H423 H 0.81206 0.8296 0.69959 0.0
C424 C 0.88447 0.93338 0.56265 0.0
N425 N 0.86207 0.93051 0.58584 0.0
N426 N 0.85788 0.90782 0.58972 0.0
C427 C 0.87763 0.89585 0.57478 0.0
C428 C 0.89511 0.91159 0.55687 0.0
C429 C 0.89471 0.95594 0.53593 0.0
H430 H 0.88072 0.96856 0.52158 0.0
H431 H 0.90627 0.96319 0.58033 0.0
H432 H 0.9057 0.95307 0.48567 0.0
O433 O 0.81634 0.95207 0.51186 0.0
O434 O 0.81119 0.91368 0.50111 0.0
H435 H 0.87077 0.86427 0.51413 0.0
H436 H 0.89733 0.86355 0.5683 0.0
C437 C 0.87897 0.86977 0.56781 0.0
H438 H 0.86939 0.86152 0.61471 0.0
H439 H 0.82296 0.87189 0.44085 0.0
O440 O 0.84724 0.98579 0.60803 0.0
C441 C 0.80799 0.93441 0.4777 0.0
Co442 Co 0.95567 0.1656 0.3669 0.0
Co443 Co 0.90138 0.17486 0.3731 0.0
C444 C 0.92774 0.19144 0.24221 0.0
O445 O 0.94713 0.18428 0.27095 0.0
O446 O 0.90817 0.18711 0.27333 0.0
C447 C 0.99953 0.1377 0.34061 0.0
O448 O 0.98883 0.12575 0.28756 0.0
C449 C 0.84979 0.17977 0.35836 0.0
C450 C 0.83993 0.18014 0.47818 0.0
C451 C 0.83071 0.18158 0.40642 0.0
N452 N 0.86926 0.17747 0.40024 0.0
N453 N 0.86321 0.17778 0.47168 0.0
C454 C 0.84965 0.17878 0.27452 0.0
H455 H 0.86478 0.16845 0.25411 0.0
H456 H 0.83313 0.1709 0.25333 0.0
H457 H 0.85124 0.19682 0.2521 0.0
C458 C 0.93793 0.11906 0.4248 0.0
N459 N 0.93462 0.14034 0.39307 0.0
N460 N 0.912 0.14398 0.38714 0.0
C461 C 0.90027 0.12484 0.41005 0.0
C462 C 0.9162 0.10839 0.4365 0.0
C463 C 0.96104 0.11079 0.45425 0.0
H464 H 0.97209 0.12593 0.47073 0.0
H465 H 0.97012 0.10071 0.40984 0.0
H466 H 0.95875 0.09929 0.50375 0.0
O467 O 0.95495 0.18902 0.44673 0.0
O468 O 0.91698 0.19646 0.44328 0.0
H469 H 0.86601 0.1295 0.4556 0.0
H470 H 0.86917 0.10358 0.39862 0.0
C471 C 0.87425 0.12226 0.40438 0.0
H472 H 0.86759 0.13205 0.35512 0.0
H473 H 0.87504 0.17632 0.51613 0.0
O474 O 0.98888 0.15447 0.37278 0.0
C475 C 0.93738 0.20065 0.46847 0.0
Co476 Co 0.1695 0.06169 0.63363 0.0
Co477 Co 0.18568 0.11454 0.61999 0.0
C478 C 0.19851 0.08681 0.75542 0.0
O479 O 0.18898 0.06806 0.72933 0.0
O480 O 0.19678 0.10631 0.72114 0.0
C481 C 0.16325 0.01111 0.62897 0.0
O482 O 0.18593 0.01059 0.64103 0.0
C483 C 0.19052 0.16582 0.64103 0.0
C484 C 0.19938 0.17688 0.52584 0.0
C485 C 0.19498 0.18542 0.59713 0.0
N486 N 0.19204 0.14666 0.5973 0.0
N487 N 0.19766 0.15341 0.52882 0.0
C488 C 0.18297 0.16527 0.72122 0.0
H489 H 0.17285 0.14907 0.73269 0.0
H490 H 0.17227 0.18091 0.73485 0.0
H491 H 0.19871 0.16535 0.75782 0.0
C492 C 0.12422 0.08411 0.58823 0.0
N493 N 0.1469 0.08554 0.60975 0.0
N494 N 0.15368 0.10751 0.60476 0.0
C495 C 0.13558 0.12071 0.58084 0.0
C496 C 0.11628 0.10634 0.56925 0.0
C497 C 0.11062 0.06175 0.58374 0.0
H498 H 0.11781 0.05081 0.53785 0.0
H499 H 0.11257 0.05197 0.63705 0.0
H500 H 0.09178 0.06501 0.57287 0.0
O501 O 0.19291 0.05939 0.55278 0.0
O502 O 0.20531 0.09626 0.55162 0.0
H503 H 0.15101 0.14862 0.51855 0.0
H504 H 0.12076 0.15338 0.54012 0.0
C505 C 0.13742 0.14618 0.56194 0.0
H506 H 0.14269 0.15613 0.6127 0.0
H507 H 0.19966 0.142 0.48352 0.0
O508 O 0.15277 0.03073 0.62978 0.0
C509 C 0.20674 0.07516 0.52925 0.0
Co510 Co 0.05664 0.84904 0.37171 0.0
Co511 Co 0.111 0.84026 0.36707 0.0
C512 C 0.07976 0.81616 0.25675 0.0
O513 O 0.06154 0.82647 0.28282 0.0
O514 O 0.1001 0.82075 0.28259 0.0
C515 C 0.01114 0.8733 0.33962 0.0
O516 O 0.01904 0.87961 0.27359 0.0
C517 C 0.16241 0.83736 0.33847 0.0
C518 C 0.17499 0.83816 0.45598 0.0
C519 C 0.18259 0.83712 0.38253 0.0
N520 N 0.14384 0.83877 0.38437 0.0
N521 N 0.15156 0.8391 0.45435 0.0
C522 C 0.16056 0.83549 0.25497 0.0
H523 H 0.14344 0.82787 0.23849 0.0
H524 H 0.1618 0.85326 0.23026 0.0
H525 H 0.17496 0.8246 0.23224 0.0
C526 C 0.07558 0.89719 0.40547 0.0
N527 N 0.07809 0.87527 0.37737 0.0
N528 N 0.10047 0.8715 0.36557 0.0
C529 C 0.11268 0.89102 0.38231 0.0
C530 C 0.09755 0.90785 0.41029 0.0
C531 C 0.0533 0.90611 0.43875 0.0
H532 H 0.04428 0.89181 0.46919 0.0
H533 H 0.04162 0.91214 0.3929 0.0
H534 H 0.05651 0.92094 0.47777 0.0
O535 O 0.06063 0.82976 0.46238 0.0
O536 O 0.09908 0.82551 0.45733 0.0
H537 H 0.14724 0.88586 0.42589 0.0
H538 H 0.14398 0.91181 0.36981 0.0
C539 C 0.13868 0.89318 0.37527 0.0
H540 H 0.14474 0.88336 0.32535 0.0
H541 H 0.1408 0.84029 0.50129 0.0
O542 O 0.02381 0.86068 0.38207 0.0
C543 C 0.07967 0.82211 0.48958 0.0
H544 H 0.2801 0.04578 0.28435 0.0
H545 H 0.319 0.10027 0.39727 0.0
H546 H 0.28882 0.10314 0.49312 0.0
H547 H 0.24926 0.09445 0.53312 0.0
H548 H 0.2088 0.04109 0.42037 0.0
H549 H 0.2417 0.03338 0.33546 0.0
C550 C 0.28224 0.0576 0.33161 0.0
C551 C 0.30159 0.07277 0.33453 0.0
C552 C 0.26432 0.05982 0.38481 0.0
C553 C 0.30419 0.0884 0.39474 0.0
C554 C 0.28687 0.09022 0.44888 0.0
C555 C 0.24765 0.08107 0.49003 0.0
C556 C 0.22656 0.0688 0.48119 0.0
C557 C 0.26645 0.07679 0.44238 0.0
C558 C 0.22487 0.05099 0.42706 0.0
C559 C 0.24364 0.04658 0.37883 0.0
H560 H 0.04804 0.78854 0.52474 0.0
H561 H 0.11223 0.82118 0.59901 0.0
H562 H 0.11813 0.79028 0.69112 0.0
H563 H 0.1074 0.75225 0.74036 0.0
H564 H 0.04379 0.71837 0.66658 0.0
H565 H 0.03529 0.75149 0.58357 0.0
C566 C 0.06291 0.78913 0.56269 0.0
C567 C 0.07974 0.8069 0.55544 0.0
C568 C 0.06659 0.77088 0.61387 0.0
C569 C 0.09915 0.80751 0.60385 0.0
C570 C 0.10261 0.78981 0.65598 0.0
C571 C 0.09169 0.75204 0.70595 0.0
C572 C 0.0765 0.73276 0.70805 0.0
C573 C 0.0869 0.77103 0.65945 0.0
C574 C 0.05589 0.73298 0.66491 0.0
C575 C 0.051 0.75191 0.61781 0.0
H576 H 0.77304 0.96602 0.45971 0.0
H577 H 0.80884 0.90884 0.35126 0.0
H578 H 0.77895 0.9075 0.25353 0.0
H579 H 0.74078 0.91897 0.2089 0.0
H580 H 0.70272 0.97451 0.31787 0.0
H581 H 0.73553 0.98037 0.40585 0.0
C582 C 0.77449 0.95376 0.41339 0.0
C583 C 0.7929 0.93748 0.41212 0.0
C584 C 0.75673 0.95252 0.3589 0.0
C585 C 0.79468 0.92142 0.35291 0.0
C586 C 0.77759 0.92058 0.29746 0.0
C587 C 0.73961 0.93242 0.25188 0.0
C588 C 0.71923 0.94588 0.25861 0.0
C589 C 0.75817 0.9354 0.30171 0.0
C590 C 0.71821 0.96375 0.31264 0.0
C591 C 0.73691 0.96705 0.36272 0.0
H592 H 0.96171 0.27829 0.70806 0.0
H593 H 0.89546 0.30465 0.62834 0.0
H594 H 0.89345 0.27362 0.53453 0.0
H595 H 0.90838 0.23715 0.48449 0.0
H596 H 0.97413 0.20944 0.56394 0.0
H597 H 0.97852 0.2429 0.64927 0.0
C598 C 0.9472 0.27751 0.66873 0.0
C599 C 0.92869 0.29349 0.67488 0.0
C600 C 0.94583 0.25918 0.61641 0.0
C601 C 0.90979 0.29232 0.62454 0.0
C602 C 0.90857 0.27456 0.57133 0.0
C603 C 0.92367 0.23835 0.52059 0.0
C604 C 0.94066 0.22069 0.51928 0.0
C605 C 0.92608 0.2575 0.56862 0.0
C606 C 0.96068 0.22277 0.56482 0.0
C607 C 0.96321 0.24189 0.6133 0.0
H608 H 0.28404 0.45887 0.95806 0.0
H609 H 0.30302 0.38665 0.92073 0.0
H610 H 0.27111 0.38231 0.83065 0.0
H611 H 0.23667 0.39814 0.76926 0.0
H612 H 0.21667 0.4701 0.80712 0.0
H613 H 0.25012 0.47537 0.89142 0.0
C614 C 0.28143 0.44236 0.92899 0.0
C615 C 0.29572 0.4231 0.94574 0.0
C616 C 0.26268 0.4398 0.87883 0.0
C617 C 0.29209 0.40168 0.90865 0.0
C618 C 0.27382 0.39914 0.85757 0.0
C619 C 0.23951 0.41498 0.79613 0.0
C620 C 0.2241 0.43362 0.78268 0.0
C621 C 0.25872 0.41792 0.84369 0.0
C622 C 0.22823 0.45541 0.8171 0.0
C623 C 0.24738 0.45847 0.86496 0.0
H624 H 0.45718 0.77779 0.20843 0.0
H625 H 0.38628 0.79775 0.15405 0.0
H626 H 0.3831 0.76512 0.06644 0.0
H627 H 0.39969 0.73037 0.0095 0.0
H628 H 0.47049 0.7097 0.06242 0.0
H629 H 0.47434 0.7431 0.14777 0.0
C630 C 0.44121 0.77518 0.17639 0.0
C631 C 0.422 0.79006 0.18747 0.0
C632 C 0.43931 0.75609 0.12723 0.0
C633 C 0.40128 0.78641 0.14646 0.0
C634 C 0.39939 0.76773 0.09671 0.0
C635 C 0.41594 0.73299 0.04007 0.0
C636 C 0.4347 0.71749 0.03019 0.0
C637 C 0.41813 0.75227 0.08776 0.0
C638 C 0.45573 0.72135 0.06949 0.0
C639 C 0.45799 0.74048 0.1179 0.0
H640 H 0.73446 0.6154 0.01738 0.0
H641 H 0.71162 0.54509 0.96502 0.0
H642 H 0.74511 0.54008 0.88147 0.0
H643 H 0.77996 0.55649 0.81979 0.0
H644 H 0.80188 0.62702 0.8728 0.0
H645 H 0.7698 0.63093 0.96143 0.0
C646 C 0.73667 0.599 0.9874 0.0
C647 C 0.72046 0.58076 0.99649 0.0
C648 C 0.75594 0.59618 0.94055 0.0
C649 C 0.72381 0.55948 0.95834 0.0
C650 C 0.74298 0.55656 0.91093 0.0
C651 C 0.77794 0.5725 0.85196 0.0
C652 C 0.79312 0.59146 0.83995 0.0
C653 C 0.75911 0.57484 0.90147 0.0
C654 C 0.79026 0.61224 0.88111 0.0
C655 C 0.7719 0.61454 0.9314 0.0
H656 H 0.5537 0.23768 0.20967 0.0
H657 H 0.62921 0.2332 0.21554 0.0
H658 H 0.63215 0.26735 0.13563 0.0
H659 H 0.61388 0.29771 0.06333 0.0
H660 H 0.53861 0.30251 0.04927 0.0
H661 H 0.535 0.26929 0.13568 0.0
C662 C 0.57076 0.2441 0.1929 0.0
C663 C 0.59119 0.23287 0.21835 0.0
C664 C 0.5724 0.26393 0.14677 0.0
C665 C 0.6132 0.2415 0.19683 0.0
C666 C 0.61494 0.26108 0.15135 0.0
C667 C 0.59658 0.29167 0.07916 0.0
C668 C 0.57654 0.30244 0.04951 0.0
C669 C 0.59471 0.27237 0.12622 0.0
C670 C 0.55433 0.29452 0.07157 0.0
C671 C 0.55227 0.27542 0.1203 0.0
H672 H 0.35144 0.28597 0.06436 0.0
H673 H 0.29837 0.30379 0.22598 0.0
H674 H 0.29201 0.26227 0.25207 0.0
H675 H 0.30083 0.22095 0.22629 0.0
H676 H 0.35506 0.20353 0.06782 0.0
H677 H 0.361 0.24478 0.04125 0.0
C678 C 0.33854 0.28077 0.1056 0.0
C679 C 0.32567 0.29798 0.14404 0.0
C680 C 0.33479 0.25691 0.11953 0.0
C681 C 0.30901 0.29099 0.19719 0.0
C682 C 0.30514 0.26722 0.21135 0.0
C683 C 0.31391 0.22613 0.18565 0.0
C684 C 0.32688 0.20889 0.14732 0.0
C685 C 0.31784 0.25004 0.17247 0.0
C686 C 0.34396 0.21605 0.09567 0.0
C687 C 0.34771 0.2398 0.08138 0.0
H688 H 0.21897 0.70032 0.93469 0.0
H689 H 0.2203 0.67743 0.70423 0.0
H690 H 0.26248 0.67118 0.71232 0.0
H691 H 0.29909 0.672 0.78512 0.0
H692 H 0.29797 0.69634 0.01436 0.0
H693 H 0.25578 0.70184 0.00682 0.0
C694 C 0.22845 0.69362 0.88673 0.0
C695 C 0.21647 0.68907 0.81933 0.0
C696 C 0.25285 0.69046 0.89132 0.0
C697 C 0.22913 0.68102 0.75691 0.0
C698 C 0.25327 0.67746 0.7614 0.0
C699 C 0.28979 0.67903 0.83285 0.0
C700 C 0.30191 0.68411 0.89974 0.0
C701 C 0.26539 0.68227 0.82818 0.0
C702 C 0.28918 0.69233 0.96193 0.0
C703 C 0.26499 0.69549 0.95781 0.0
H704 H 0.67698 0.79597 0.23201 0.0
H705 H 0.70143 0.80774 0.00677 0.0
H706 H 0.70022 0.76559 0.98187 0.0
H707 H 0.69293 0.72544 0.02519 0.0
H708 H 0.66564 0.71417 0.24771 0.0
H709 H 0.66784 0.75595 0.27318 0.0
C710 C 0.682 0.78928 0.17741 0.0
C711 C 0.68911 0.80492 0.12107 0.0
C712 C 0.68115 0.76508 0.16352 0.0
C713 C 0.69546 0.79609 0.05052 0.0
C714 C 0.69497 0.77198 0.03654 0.0
C715 C 0.68749 0.73206 0.07942 0.0
C716 C 0.68006 0.71635 0.13544 0.0
C717 C 0.68792 0.75632 0.09276 0.0
C718 C 0.67267 0.72544 0.20477 0.0
C719 C 0.67351 0.74951 0.21901 0.0
H720 H 0.79703 0.33894 0.94031 0.0
H721 H 0.79109 0.28839 0.76112 0.0
H722 H 0.74863 0.28804 0.77417 0.0
H723 H 0.71298 0.30295 0.83411 0.0
H724 H 0.71891 0.35322 0.01399 0.0
H725 H 0.76148 0.3526 0.00383 0.0
C726 C 0.78652 0.32738 0.9056 0.0
C727 C 0.79724 0.31349 0.85055 0.0
C728 C 0.76203 0.32744 0.91281 0.0
C729 C 0.78324 0.2992 0.80418 0.0
C730 C 0.75894 0.29904 0.81135 0.0
C731 C 0.72359 0.31399 0.87026 0.0
C732 C 0.71284 0.3284 0.92372 0.0
C733 C 0.74811 0.31336 0.86468 0.0
C734 C 0.72684 0.34205 0.97202 0.0
C735 C 0.75118 0.34169 0.96636 0.0
H736 H 0.84599 0.80178 0.65076 0.0
H737 H 0.79626 0.79361 0.4702 0.0
H738 H 0.79602 0.75119 0.48877 0.0
H739 H 0.80914 0.71639 0.55937 0.0
H740 H 0.85855 0.72517 0.74076 0.0
H741 H 0.85955 0.76729 0.71938 0.0
C742 C 0.83471 0.79081 0.61661 0.0
C743 C 0.82072 0.8009 0.56052 0.0
C744 C 0.83476 0.76645 0.62732 0.0
C745 C 0.80702 0.78625 0.51439 0.0
C746 C 0.8069 0.762 0.52484 0.0
C747 C 0.82045 0.72748 0.59308 0.0
C748 C 0.83389 0.71765 0.65109 0.0
C749 C 0.82069 0.75186 0.58122 0.0
C750 C 0.84803 0.73234 0.69568 0.0
C751 C 0.84858 0.75644 0.68367 0.0
H752 H 0.7941 0.16397 0.4833 0.0
H753 H 0.8109 0.20731 0.29301 0.0
H754 H 0.76935 0.21318 0.26777 0.0
H755 H 0.72835 0.20605 0.29973 0.0
H756 H 0.71142 0.16183 0.48795 0.0
H757 H 0.7529 0.15697 0.51562 0.0
C758 C 0.78865 0.17467 0.4362 0.0
C759 C 0.80558 0.1847 0.38897 0.0
C760 C 0.76472 0.1782 0.42259 0.0
C761 C 0.79829 0.19866 0.32857 0.0
C762 C 0.7745 0.2023 0.31474 0.0
C763 C 0.73369 0.19543 0.34713 0.0
C764 C 0.71666 0.18483 0.39275 0.0
C765 C 0.7576 0.19212 0.3613 0.0
C766 C 0.72396 0.171 0.45356 0.0
C767 C 0.74776 0.16787 0.46871 0.0
H768 H 0.20286 0.2885 0.72173 0.0
H769 H 0.16298 0.30233 0.52033 0.0
H770 H 0.16411 0.26108 0.48772 0.0
H771 H 0.17584 0.22063 0.51698 0.0
H772 H 0.21281 0.20633 0.723 0.0
H773 H 0.21281 0.24808 0.75415 0.0
C774 C 0.19438 0.28261 0.67053 0.0
C775 C 0.18362 0.29899 0.62237 0.0
C776 C 0.19426 0.2586 0.65347 0.0
C777 C 0.17248 0.29071 0.55696 0.0
C778 C 0.17274 0.26688 0.53873 0.0
C779 C 0.18385 0.22671 0.56874 0.0
C780 C 0.19416 0.21047 0.61796 0.0
C781 C 0.1836 0.25069 0.58648 0.0
C782 C 0.2044 0.21846 0.68496 0.0
C783 C 0.20456 0.24234 0.70243 0.0
H784 H 0.28534 0.85115 0.26498 0.0
H785 H 0.30036 0.8095 0.46103 0.0
H786 H 0.25873 0.80728 0.48934 0.0
H787 H 0.21807 0.8168 0.45753 0.0
H788 H 0.20312 0.85827 0.26111 0.0
H789 H 0.24473 0.86015 0.23216 0.0
C790 C 0.27953 0.84159 0.31404 0.0
C791 C 0.29603 0.83102 0.36187 0.0
C792 C 0.25556 0.83993 0.32892 0.0
C793 C 0.28821 0.8186 0.42486 0.0
C794 C 0.26433 0.817 0.44044 0.0
C795 C 0.22392 0.82614 0.4081 0.0
C796 C 0.20747 0.83691 0.3606 0.0
C797 C 0.24789 0.82758 0.39279 0.0
C798 C 0.21527 0.84908 0.29709 0.0
C799 C 0.23913 0.85048 0.28117 0.0
H800 H 0.27273 0.11023 0.00662 0.0
H801 H 0.30067 0.0435 0.93735 0.0
H802 H 0.2675 0.03808 0.85137 0.0
H803 H 0.23097 0.05316 0.79186 0.0
H804 H 0.20403 0.12014 0.86226 0.0
H805 H 0.23592 0.12423 0.9527 0.0
C806 C 0.27176 0.09451 0.9725 0.0
C807 C 0.28954 0.07746 0.97814 0.0
C808 C 0.25245 0.09134 0.92402 0.0
C809 C 0.2875 0.05707 0.93398 0.0
C810 C 0.2684 0.05389 0.88499 0.0
C811 C 0.23174 0.06831 0.82854 0.0
C812 C 0.21483 0.08618 0.82088 0.0
C813 C 0.25072 0.07092 0.87938 0.0
C814 C 0.21656 0.10602 0.86747 0.0
C815 C 0.23498 0.10849 0.91876 0.0
H816 H 0.11285 0.78393 0.22112 0.0
H817 H 0.04136 0.8027 0.17166 0.0
H818 H 0.03786 0.76855 0.0884 0.0
H819 H 0.05578 0.73375 0.0264 0.0
H820 H 0.12729 0.71583 0.07896 0.0
H821 H 0.12983 0.74887 0.16539 0.0
C822 C 0.09646 0.78078 0.19191 0.0
C823 C 0.07748 0.79626 0.20221 0.0
C824 C 0.09446 0.76092 0.14537 0.0
C825 C 0.05635 0.79136 0.1645 0.0
C826 C 0.05431 0.7717 0.11712 0.0
C827 C 0.07172 0.73675 0.05815 0.0
C828 C 0.09129 0.72207 0.04633 0.0
C829 C 0.07327 0.7563 0.10705 0.0
C830 C 0.11194 0.72664 0.08698 0.0
C831 C 0.11348 0.7457 0.13609 0.0
H832 H 0.72571 0.89866 0.94177 0.0
H833 H 0.70287 0.96907 0.89427 0.0
H834 H 0.73618 0.97428 0.80931 0.0
H835 H 0.77235 0.95857 0.74865 0.0
H836 H 0.79443 0.88827 0.80175 0.0
H837 H 0.76128 0.88363 0.88555 0.0
C838 C 0.7277 0.91515 0.91242 0.0
C839 C 0.71141 0.93334 0.92423 0.0
C840 C 0.74718 0.91823 0.86551 0.0
C841 C 0.71482 0.95462 0.88595 0.0
C842 C 0.73405 0.95767 0.83777 0.0
C843 C 0.77012 0.94243 0.77973 0.0
C844 C 0.78609 0.92384 0.769 0.0
C845 C 0.75054 0.93966 0.82758 0.0
C846 C 0.78258 0.90289 0.8088 0.0
C847 C 0.76348 0.90014 0.85651 0.0
H848 H 0.9592 0.22637 0.20842 0.0
H849 H 0.89406 0.19539 0.13567 0.0
H850 H 0.88768 0.22769 0.04884 0.0
H851 H 0.89916 0.26586 -0.0015 0.0
H852 H 0.9643 0.29741 0.06853 0.0
H853 H 0.97189 0.26415 0.15181 0.0
C854 C 0.94396 0.22638 0.172 0.0
C855 C 0.92726 0.20822 0.17818 0.0
C856 C 0.94005 0.2455 0.123 0.0
C857 C 0.90731 0.20892 0.13176 0.0
C858 C 0.90351 0.22756 0.08252 0.0
C859 C 0.91496 0.26565 0.03239 0.0
C860 C 0.93093 0.28446 0.02785 0.0
C861 C 0.91945 0.24621 0.0789 0.0
C862 C 0.95154 0.28341 0.07124 0.0
C863 C 0.95596 0.26426 0.11864 0.0
H864 H 0.22905 0.4587 0.46603 0.0
H865 H 0.20134 0.39169 0.39673 0.0
H866 H 0.23423 0.38619 0.31212 0.0
H867 H 0.27207 0.39879 0.26435 0.0
H868 H 0.30035 0.46599 0.3285 0.0
H869 H 0.26628 0.47291 0.40921 0.0
C870 C 0.2299 0.44324 0.43077 0.0
C871 C 0.21262 0.42566 0.43761 0.0
C872 C 0.2493 0.43991 0.38288 0.0
C873 C 0.21428 0.40551 0.3925 0.0
C874 C 0.23323 0.40224 0.34454 0.0
C875 C 0.27098 0.41491 0.29643 0.0
C876 C 0.28908 0.43161 0.29159 0.0
C877 C 0.25114 0.41899 0.34085 0.0
C878 C 0.28688 0.45267 0.33197 0.0
C879 C 0.26731 0.45668 0.37777 0.0
H880 H 0.45457 0.7763 0.51331 0.0
H881 H 0.3864 0.80098 0.58011 0.0
H882 H 0.38195 0.76758 0.66339 0.0
H883 H 0.39642 0.73071 0.71453 0.0
H884 H 0.46488 0.70573 0.653 0.0
H885 H 0.46997 0.73952 0.56987 0.0
C886 C 0.43897 0.77462 0.54732 0.0
C887 C 0.4209 0.79134 0.54038 0.0
C888 C 0.4363 0.75497 0.59489 0.0
C889 C 0.40064 0.78854 0.58415 0.0
C890 C 0.39797 0.76929 0.63155 0.0
C891 C 0.41239 0.7324 0.68228 0.0
C892 C 0.43007 0.71534 0.68929 0.0
C893 C 0.41546 0.75219 0.63637 0.0
C894 C 0.45083 0.71834 0.6482 0.0
C895 C 0.45382 0.7378 0.601 0.0
H896 H 0.72759 0.55838 0.31462 0.0
H897 H 0.70197 0.62655 0.37865 0.0
H898 H 0.73507 0.63173 0.4636 0.0
H899 H 0.77226 0.61806 0.5156 0.0
H900 H 0.79822 0.54968 0.45597 0.0
H901 H 0.76439 0.54362 0.37303 0.0
C902 C 0.72896 0.5741 0.34857 0.0
C903 C 0.71211 0.592 0.34026 0.0
C904 C 0.74847 0.57721 0.39688 0.0
C905 C 0.71453 0.61245 0.38381 0.0
C906 C 0.7336 0.61553 0.43212 0.0
C907 C 0.77073 0.60188 0.48394 0.0
C908 C 0.78812 0.58453 0.49126 0.0
C909 C 0.75094 0.59828 0.43792 0.0
C910 C 0.78534 0.56348 0.45094 0.0
C911 C 0.76587 0.55994 0.40379 0.0
H912 H 0.61116 0.27711 0.75093 0.0
H913 H 0.55302 0.31348 0.65029 0.0
H914 H 0.54623 0.28012 0.56542 0.0
H915 H 0.55833 0.24098 0.51576 0.0
H916 H 0.61596 0.20516 0.62199 0.0
H917 H 0.62095 0.23755 0.70975 0.0
C918 C 0.59709 0.27792 0.71001 0.0
C919 C 0.58299 0.29811 0.70591 0.0
C920 C 0.59291 0.25846 0.66316 0.0
C921 C 0.56439 0.29837 0.65399 0.0
C922 C 0.56043 0.2792 0.60574 0.0
C923 C 0.57148 0.23998 0.55963 0.0
C924 C 0.58664 0.22046 0.56243 0.0
C925 C 0.57463 0.25911 0.60958 0.0
C926 C 0.60395 0.21979 0.61871 0.0
C927 C 0.60699 0.23846 0.66853 0.0
H928 H 0.38925 1.00209 0.21445 0.0
H929 H 0.34451 0.96486 0.05884 0.0
H930 H 0.36018 0.92764 0.10302 0.0
H931 H 0.3841 0.90547 0.19277 0.0
H932 H 0.42833 0.94206 0.35022 0.0
H933 H 0.41567 0.97976 0.29776 0.0
C934 C 0.38308 0.98587 0.18956 0.0
C935 C 0.36546 0.98636 0.13381 0.0
C936 C 0.39203 0.9644 0.21583 0.0
C937 C 0.35786 0.9651 0.10209 0.0
C938 C 0.36681 0.94375 0.12741 0.0
C939 C 0.39108 0.92174 0.2151 0.0
C940 C 0.40687 0.92113 0.27577 0.0
C941 C 0.38348 0.94318 0.18532 0.0
C942 C 0.41614 0.9422 0.30356 0.0
C943 C 0.40878 0.9637 0.27384 0.0
H944 H 0.93709 0.62643 0.65348 0.0
H945 H 0.90884 0.59239 0.84841 0.0
H946 H 0.94307 0.60436 0.9224 0.0
H947 H 0.98047 0.62607 0.9328 0.0
H948 H 0.00755 0.66135 0.73739 0.0
H949 H 0.97435 0.64779 0.66345 0.0
C950 C 0.93855 0.62159 0.7121 0.0
C951 C 0.92059 0.60848 0.7454 0.0
C952 C 0.95797 0.62906 0.75464 0.0
C953 C 0.92264 0.60222 0.82132 0.0
C954 C 0.9421 0.60925 0.86379 0.0
C955 C 0.97908 0.63084 0.87413 0.0
C956 C 0.99657 0.64484 0.8412 0.0
C957 C 0.95978 0.62295 0.83131 0.0
C958 C 0.99443 0.6507 0.76476 0.0
C959 C 0.97542 0.64289 0.72205 0.0
H960 H 0.66359 0.05085 0.10245 0.0
H961 H 0.61065 1.00314 0.18127 0.0
H962 H 0.59002 0.03537 0.24178 0.0
H963 H 0.58912 0.07699 0.28324 0.0
H964 H 0.64097 0.12466 0.19722 0.0
H965 H 0.65966 0.09287 0.12872 0.0
C966 C 0.64738 0.04752 0.13203 0.0
C967 C 0.63897 0.02445 0.13815 0.0
C968 C 0.63545 0.06624 0.16631 0.0
C969 C 0.61771 0.02061 0.17588 0.0
C970 C 0.60588 0.03909 0.21087 0.0
C971 C 0.60426 0.0804 0.24843 0.0
C972 C 0.61411 0.10298 0.24736 0.0
C973 C 0.61488 0.06195 0.20809 0.0
C974 C 0.63354 0.10725 0.20115 0.0
C975 C 0.6442 0.08909 0.16156 0.0
H976 H 0.07616 0.38528 0.64601 0.0
H977 H 0.10022 0.42878 0.82816 0.0
H978 H 0.06625 0.4173 0.90336 0.0
H979 H 0.03046 0.39327 0.91899 0.0
H980 H 0.00784 0.34865 0.73652 0.0
H981 H 0.04057 0.36176 0.66083 0.0
C982 C 0.07379 0.39234 0.70201 0.0
C983 C 0.09051 0.40789 0.73152 0.0
C984 C 0.05464 0.38514 0.74541 0.0
C985 C 0.08736 0.41699 0.80402 0.0
C986 C 0.06808 0.41024 0.84724 0.0
C987 C 0.03275 0.38635 0.86283 0.0
C988 C 0.01665 0.36989 0.83396 0.0
C989 C 0.05175 0.39402 0.81893 0.0
C990 C 0.01988 0.36127 0.76065 0.0
C991 C 0.0386 0.36881 0.71694 0.0
H992 H 0.37795 0.59544 0.0073 0.0
H993 H 0.44044 0.56809 0.90474 0.0
H994 H 0.43392 0.53034 0.96521 0.0
H995 H 0.40972 0.50455 0.04405 0.0
H996 H 0.34466 0.53032 0.13286 0.0
H997 H 0.35258 0.5691 0.07987 0.0
C998 C 0.38989 0.58114 0.99664 0.0
C999 C 0.4097 0.58472 0.95131 0.0
C1000 C 0.38555 0.55917 0.02947 0.0
C1001 C 0.4253 0.56603 0.94037 0.0
C1002 C 0.42149 0.54435 0.97456 0.0
C1003 C 0.39745 0.51878 0.05246 0.0
C1004 C 0.37683 0.51479 0.09326 0.0
C1005 C 0.40168 0.5407 0.0192 0.0
C1006 C 0.36073 0.53311 0.10215 0.0
C1007 C 0.36524 0.55523 0.07169 0.0
H1008 H 0.60033 0.63316 0.97853 0.0
H1009 H 0.5685 0.57783 0.10713 0.0
H1010 H 0.53193 0.58279 0.03727 0.0
H1011 H 0.50859 0.60382 0.94276 0.0
H1012 H 0.53849 0.66288 0.82773 0.0
H1013 H 0.57628 0.65576 0.8895 0.0
C1014 C 0.5853 0.62248 0.99244 0.0
C1015 C 0.58721 0.6051 0.04812 0.0
C1016 C 0.56405 0.62606 0.95401 0.0
C1017 C 0.56763 0.59108 0.06384 0.0
C1018 C 0.54668 0.59398 0.02413 0.0
C1019 C 0.52346 0.61495 0.93067 0.0
C1020 C 0.52099 0.63357 0.87983 0.0
C1021 C 0.54468 0.61145 0.96921 0.0
C1022 C 0.54018 0.64824 0.86592 0.0
C1023 C 0.56169 0.64424 0.90153 0.0
H1024 H 0.63098 0.50703 0.05383 0.0
H1025 H 0.68334 0.46862 0.17698 0.0
H1026 H 0.66907 0.43191 0.12205 0.0
H1027 H 0.64247 0.41097 0.0361 0.0
H1028 H 0.59295 0.4499 0.90298 0.0
H1029 H 0.605 0.4862 0.9657 0.0
C1030 C 0.63908 0.49063 0.06946 0.0
C1031 C 0.65808 0.49058 0.12008 0.0
C1032 C 0.63133 0.46972 0.03551 0.0
C1033 C 0.66865 0.46915 0.13846 0.0
C1034 C 0.66053 0.44817 0.10688 0.0
C1035 C 0.63457 0.42743 0.01983 0.0
C1036 C 0.61694 0.42772 0.96435 0.0
C1037 C 0.6421 0.44829 0.05453 0.0
C1038 C 0.60643 0.44916 0.94576 0.0
C1039 C 0.61339 0.46992 0.98142 0.0
H1040 H 0.44036 0.42351 0.04578 0.0
H1041 H 0.3955 0.36509 0.99142 0.0
H1042 H 0.42733 0.34585 0.92563 0.0
H1043 H 0.46875 0.34424 0.89056 0.0
H1044 H 0.51307 0.40395 0.93401 0.0
H1045 H 0.48067 0.42424 0.99459 0.0
C1046 C 0.43755 0.4067 0.01882 0.0
C1047 C 0.41592 0.39522 0.02689 0.0
C1048 C 0.45586 0.39596 0.97864 0.0
C1049 C 0.41236 0.37368 0.99011 0.0
C1050 C 0.43048 0.36279 0.95131 0.0
C1051 C 0.47126 0.36181 0.9124 0.0
C1052 C 0.49346 0.37234 0.90875 0.0
C1053 C 0.45247 0.37349 0.9467 0.0
C1054 C 0.49626 0.39529 0.93639 0.0
C1055 C 0.47772 0.40692 0.97146 0.0
H1056 H 0.87728 0.43034 0.87086 0.0
H1057 H 0.91968 0.40797 0.68501 0.0
H1058 H 0.90888 0.44316 0.61479 0.0
H1059 H 0.88701 0.48029 0.60583 0.0
H1060 H 0.84408 0.50218 0.79188 0.0
H1061 H 0.85513 0.46724 0.86148 0.0
C1062 C 0.88412 0.43326 0.81499 0.0
C1063 C 0.89937 0.41674 0.78333 0.0
C1064 C 0.87758 0.4534 0.77461 0.0
C1065 C 0.90816 0.42064 0.71092 0.0
C1066 C 0.90186 0.44068 0.67058 0.0
C1067 C 0.87997 0.47737 0.66141 0.0
C1068 C 0.86467 0.49395 0.69318 0.0
C1069 C 0.8865 0.45717 0.70172 0.0
C1070 C 0.85586 0.48982 0.76564 0.0
C1071 C 0.86221 0.46981 0.80579 0.0
H1072 H 0.49131 0.11402 0.38447 0.0
H1073 H 0.49831 0.17622 0.24918 0.0
H1074 H 0.46273 0.16602 0.18064 0.0
H1075 H 0.42954 0.13927 0.15768 0.0
H1076 H 0.42129 0.07827 0.29696 0.0
H1077 H 0.45752 0.0878 0.36362 0.0
C1078 C 0.48501 0.12543 0.34031 0.0
C1079 C 0.49759 0.14592 0.32244 0.0
C1080 C 0.46439 0.11947 0.3008 0.0
C1081 C 0.48905 0.1604 0.2647 0.0
C1082 C 0.4687 0.15453 0.22505 0.0
C1083 C 0.43573 0.12807 0.2026 0.0
C1084 C 0.42287 0.10791 0.2215 0.0
C1085 C 0.45626 0.13407 0.24234 0.0
C1086 C 0.4311 0.09358 0.27992 0.0
C1087 C 0.45171 0.09918 0.31875 0.0
H1088 H 0.11378 0.53254 0.57936 0.0
H1089 H 0.17173 0.51821 0.72827 0.0
H1090 H 0.16376 0.55403 0.79797 0.0
H1091 H 0.14008 0.58938 0.81847 0.0
H1092 H 0.08235 0.6042 0.67018 0.0
H1093 H 0.09019 0.56825 0.59946 0.0
C1094 C 0.12477 0.53734 0.62668 0.0
C1095 C 0.14337 0.52263 0.64818 0.0
C1096 C 0.11995 0.55798 0.66738 0.0
C1097 C 0.15728 0.52911 0.71023 0.0
C1098 C 0.15272 0.54961 0.7504 0.0
C1099 C 0.12925 0.58467 0.77065 0.0
C1100 C 0.11058 0.59928 0.74986 0.0
C1101 C 0.13404 0.56412 0.72982 0.0
C1102 C 0.09661 0.59302 0.68792 0.0
C1103 C 0.10121 0.57257 0.64713 0.0
H1104 H 0.58154 0.87102 0.15422 0.0
H1105 H 0.59415 0.93062 0.29738 0.0
H1106 H 0.56007 0.92042 0.37325 0.0
H1107 H 0.52634 0.8946 0.39835 0.0
H1108 H 0.51471 0.83422 0.25672 0.0
H1109 H 0.54893 0.8443 0.18249 0.0
C1110 C 0.57682 0.88169 0.20223 0.0
C1111 C 0.59017 0.90167 0.21964 0.0
C1112 C 0.55748 0.87542 0.24653 0.0
C1113 C 0.58388 0.9154 0.28189 0.0
C1114 C 0.56452 0.90944 0.32575 0.0
C1115 C 0.53143 0.88349 0.35182 0.0
C1116 C 0.51784 0.86368 0.33338 0.0
C1117 C 0.55115 0.88948 0.30863 0.0
C1118 C 0.52473 0.8496 0.27243 0.0
C1119 C 0.5443 0.85538 0.22957 0.0
H1120 H 0.88096 0.09895 0.53575 0.0
H1121 H 0.93973 0.06678 0.42508 0.0
H1122 H 0.93086 0.0296 0.48647 0.0
H1123 H 0.90492 1.00556 0.56542 0.0
H1124 H 0.84256 0.0361 0.65825 0.0
H1125 H 0.85393 0.07456 0.60894 0.0
C1126 C 0.89159 0.08375 0.52355 0.0
C1127 C 0.91094 0.08577 0.47511 0.0
C1128 C 0.88566 0.06211 0.55604 0.0
C1129 C 0.92494 0.06593 0.46272 0.0
C1130 C 0.91976 0.04457 0.49739 0.0
C1131 C 0.89396 0.02069 0.57541 0.0
C1132 C 0.8731 0.01816 0.61628 0.0
C1133 C 0.90002 0.04239 0.54353 0.0
C1134 C 0.85881 0.03777 0.62763 0.0
C1135 C 0.86527 0.05968 0.59918 0.0
H1136 H 0.09519 0.09051 0.44127 0.0
H1137 H 0.08619 0.13819 0.62646 0.0
H1138 H 0.04974 0.15262 0.57102 0.0
H1139 H 0.02088 0.15219 0.46929 0.0
H1140 H 0.02915 0.10434 0.28362 0.0
H1141 H 0.06546 0.08959 0.33935 0.0
C1142 C 0.08503 0.10386 0.46963 0.0
C1143 C 0.09325 0.11331 0.53782 0.0
C1144 C 0.06415 0.11222 0.43692 0.0
C1145 C 0.08014 0.13073 0.57391 0.0
C1146 C 0.05938 0.13902 0.5421 0.0
C1147 C 0.03066 0.13865 0.44049 0.0
C1148 C 0.02231 0.12956 0.37184 0.0
C1149 C 0.05133 0.13006 0.47331 0.0
C1150 C 0.03517 0.11178 0.3362 0.0
C1151 C 0.05592 0.10327 0.36823 0.0
H1152 H 0.13007 0.91115 0.52082 0.0
H1153 H 0.08038 0.95249 0.39653 0.0
H1154 H 0.09467 0.98811 0.45956 0.0
H1155 H 0.12373 0.00769 0.54223 0.0
H1156 H 0.17536 0.96596 0.65753 0.0
H1157 H 0.15811 0.93031 0.60521 0.0
C1158 C 0.12249 0.92798 0.50696 0.0
C1159 C 0.10451 0.92926 0.45291 0.0
C1160 C 0.13125 0.9483 0.54172 0.0
C1161 C 0.0943 0.95109 0.43767 0.0
C1162 C 0.10256 0.97143 0.47347 0.0
C1163 C 0.13097 0.99078 0.55683 0.0
C1164 C 0.15084 0.98953 0.60397 0.0
C1165 C 0.12135 0.97031 0.52457 0.0
C1166 C 0.16015 0.96745 0.62143 0.0
C1167 C 0.15031 0.94705 0.59139 0.0
H1168 H 0.99542 0.87257 0.48322 0.0
H1169 H 0.97597 0.89474 0.26038 0.0
H1170 H 0.93875 0.90967 0.30824 0.0
H1171 H 0.9111 0.91537 0.41364 0.0
H1172 H 0.93113 0.89344 0.63567 0.0
H1173 H 0.96879 0.87954 0.5882 0.0
C1174 C 0.98304 0.8806 0.44489 0.0
C1175 C 0.98844 0.88231 0.36806 0.0
C1176 C 0.96181 0.88932 0.47291 0.0
C1177 C 0.97226 0.89309 0.31965 0.0
C1178 C 0.95097 0.90166 0.34703 0.0
C1179 C 0.92397 0.90793 0.45154 0.0
C1180 C 0.91864 0.90567 0.52813 0.0
C1181 C 0.94552 0.89982 0.42355 0.0
C1182 C 0.93509 0.89554 0.57669 0.0
C1183 C 0.95652 0.8875 0.54947 0.0
loop_
_geom_bond_atom_site_label_1
_geom_bond_atom_site_label_2
_geom_bond_distance
_geom_bond_site_symmetry_2
_ccdc_geom_bond_type
Co0 O3 1.970 . S
Co0 N17 1.989 . S
Co0 O25 1.967 . S
Co0 O32 1.920 . S
Co1 O4 1.966 . S
Co1 N10 2.022 . S
Co1 N18 1.993 . S
Co1 O26 1.941 . S
C2 O3 1.258 . S
C2 O4 1.263 . S
O3 Co0 1.970 . S
O3 C2 1.258 . S
O4 Co1 1.966 . S
O4 C2 1.263 . S
C5 O6 1.235 . S
C5 O32 1.289 . S
O6 C5 1.235 . S
C7 C9 1.400 . S
C7 N10 1.351 . S
C7 C12 1.501 . S
C8 C9 1.387 . S
C8 N11 1.341 . S
C9 C7 1.400 . S
C9 C8 1.387 . S
N10 Co1 2.022 . S
N10 C7 1.351 . S
N10 N11 1.365 . S
N11 C8 1.341 . S
N11 N10 1.365 . S
N11 H31 0.862 . S
C12 C7 1.501 . S
C12 H13 0.961 . S
C12 H14 0.961 1_554 S
C12 H15 0.960 1_554 S
H13 C12 0.961 . S
H14 C12 0.961 1_556 S
H15 C12 0.960 1_556 S
C16 N17 1.342 . S
C16 C20 1.401 . S
C16 C21 1.499 . S
N17 Co0 1.989 . S
N17 C16 1.342 . S
N17 N18 1.388 . S
N18 Co1 1.993 . S
N18 N17 1.388 . S
N18 C19 1.346 . S
C19 N18 1.346 . S
C19 C20 1.396 . S
C19 C29 1.510 . S
C20 C16 1.401 . S
C20 C19 1.396 . S
C21 C16 1.499 . S
C21 H22 0.959 . S
C21 H23 0.960 . S
C21 H24 0.961 . S
H22 C21 0.959 . S
H23 C21 0.960 . S
H24 C21 0.961 . S
O25 Co0 1.967 . S
O25 C33 1.258 . S
O26 Co1 1.941 . S
O26 C33 1.266 . S
H27 C29 0.959 . S
H28 C29 0.961 . S
C29 C19 1.510 . S
C29 H27 0.959 . S
C29 H28 0.961 . S
C29 H30 0.960 . S
H30 C29 0.960 . S
H31 N11 0.862 . S
O32 Co0 1.920 . S
O32 C5 1.289 . S
C33 O25 1.258 . S
C33 O26 1.266 . S
Co34 O37 1.970 . S
Co34 N51 1.989 . S
Co34 O59 1.967 . S
Co34 O66 1.920 . S
Co35 O38 1.966 . S
Co35 N44 2.022 . S
Co35 N52 1.993 . S
Co35 O60 1.941 . S
C36 O37 1.258 . S
C36 O38 1.263 . S
O37 Co34 1.970 . S
O37 C36 1.258 . S
O38 Co35 1.966 . S
O38 C36 1.263 . S
C39 O40 1.235 . S
C39 O66 1.289 . S
O40 C39 1.235 . S
C41 C43 1.400 . S
C41 N44 1.351 . S
C41 C46 1.501 . S
C42 C43 1.387 . S
C42 N45 1.341 . S
C43 C41 1.400 . S
C43 C42 1.387 . S
N44 Co35 2.022 . S
N44 C41 1.351 . S
N44 N45 1.365 . S
N45 C42 1.341 . S
N45 N44 1.365 . S
N45 H65 0.862 . S
C46 C41 1.501 . S
C46 H47 0.961 . S
C46 H48 0.961 1_556 S
C46 H49 0.960 1_556 S
H47 C46 0.961 . S
H48 C46 0.961 1_554 S
H49 C46 0.960 1_554 S
C50 N51 1.342 . S
C50 C54 1.401 . S
C50 C55 1.499 . S
N51 Co34 1.989 . S
N51 C50 1.342 . S
N51 N52 1.388 . S
N52 Co35 1.993 . S
N52 N51 1.388 . S
N52 C53 1.346 . S
C53 N52 1.346 . S
C53 C54 1.396 . S
C53 C63 1.510 . S
C54 C50 1.401 . S
C54 C53 1.396 . S
C55 C50 1.499 . S
C55 H56 0.959 . S
C55 H57 0.960 . S
C55 H58 0.961 . S
H56 C55 0.959 . S
H57 C55 0.960 . S
H58 C55 0.961 . S
O59 Co34 1.967 . S
O59 C67 1.258 . S
O60 Co35 1.941 . S
O60 C67 1.266 . S
H61 C63 0.959 . S
H62 C63 0.961 . S
C63 C53 1.510 . S
C63 H61 0.959 . S
C63 H62 0.961 . S
C63 H64 0.960 . S
H64 C63 0.960 . S
H65 N45 0.862 . S
O66 Co34 1.920 . S
O66 C39 1.289 . S
C67 O59 1.258 . S
C67 O60 1.266 . S
Co68 O71 1.970 . S
Co68 N85 1.989 . S
Co68 O93 1.967 . S
Co68 O100 1.920 . S
Co69 O72 1.966 . S
Co69 N78 2.022 . S
Co69 N86 1.993 . S
Co69 O94 1.941 . S
C70 O71 1.258 . S
C70 O72 1.263 . S
O71 Co68 1.970 . S
O71 C70 1.258 . S
O72 Co69 1.966 . S
O72 C70 1.263 . S
C73 O74 1.235 . S
C73 O100 1.289 . S
O74 C73 1.235 . S
C75 C77 1.400 . S
C75 N78 1.351 . S
C75 C80 1.501 . S
C76 C77 1.387 . S
C76 N79 1.341 . S
C77 C75 1.400 . S
C77 C76 1.387 . S
N78 Co69 2.022 . S
N78 C75 1.351 . S
N78 N79 1.365 . S
N79 C76 1.341 . S
N79 N78 1.365 . S
N79 H99 0.862 . S
C80 C75 1.501 . S
C80 H81 0.961 . S
C80 H82 0.961 1_554 S
C80 H83 0.960 1_554 S
H81 C80 0.961 . S
H82 C80 0.961 1_556 S
H83 C80 0.960 1_556 S
C84 N85 1.342 . S
C84 C88 1.401 . S
C84 C89 1.499 . S
N85 Co68 1.989 . S
N85 C84 1.342 . S
N85 N86 1.388 . S
N86 Co69 1.993 . S
N86 N85 1.388 . S
N86 C87 1.346 . S
C87 N86 1.346 . S
C87 C88 1.396 . S
C87 C97 1.510 . S
C88 C84 1.401 . S
C88 C87 1.396 . S
C89 C84 1.499 . S
C89 H90 0.959 . S
C89 H91 0.960 . S
C89 H92 0.961 . S
H90 C89 0.959 . S
H91 C89 0.960 . S
H92 C89 0.961 . S
O93 Co68 1.967 . S
O93 C101 1.258 . S
O94 Co69 1.941 . S
O94 C101 1.266 . S
H95 C97 0.959 . S
H96 C97 0.961 . S
C97 C87 1.510 . S
C97 H95 0.959 . S
C97 H96 0.961 . S
C97 H98 0.960 . S
H98 C97 0.960 . S
H99 N79 0.862 . S
O100 Co68 1.920 . S
O100 C73 1.289 . S
C101 O93 1.258 . S
C101 O94 1.266 . S
Co102 O105 1.970 . S
Co102 N119 1.989 . S
Co102 O127 1.967 . S
Co102 O134 1.920 . S
Co103 O106 1.966 . S
Co103 N112 2.022 . S
Co103 N120 1.993 . S
Co103 O128 1.941 . S
C104 O105 1.258 . S
C104 O106 1.263 . S
O105 Co102 1.970 . S
O105 C104 1.258 . S
O106 Co103 1.966 . S
O106 C104 1.263 . S
C107 O108 1.235 . S
C107 O134 1.289 . S
O108 C107 1.235 . S
C109 C111 1.400 . S
C109 N112 1.351 . S
C109 C114 1.501 . S
C110 C111 1.387 . S
C110 N113 1.341 . S
C111 C109 1.400 . S
C111 C110 1.387 . S
N112 Co103 2.022 . S
N112 C109 1.351 . S
N112 N113 1.365 . S
N113 C110 1.341 . S
N113 N112 1.365 . S
N113 H133 0.862 . S
C114 C109 1.501 . S
C114 H115 0.961 . S
C114 H116 0.961 1_556 S
C114 H117 0.960 1_556 S
H115 C114 0.961 . S
H116 C114 0.961 1_554 S
H117 C114 0.960 1_554 S
C118 N119 1.342 . S
C118 C122 1.401 . S
C118 C123 1.499 . S
N119 Co102 1.989 . S
N119 C118 1.342 . S
N119 N120 1.388 . S
N120 Co103 1.993 . S
N120 N119 1.388 . S
N120 C121 1.346 . S
C121 N120 1.346 . S
C121 C122 1.396 . S
C121 C131 1.510 . S
C122 C118 1.401 . S
C122 C121 1.396 . S
C123 C118 1.499 . S
C123 H124 0.959 . S
C123 H125 0.960 . S
C123 H126 0.961 . S
H124 C123 0.959 . S
H125 C123 0.960 . S
H126 C123 0.961 . S
O127 Co102 1.967 . S
O127 C135 1.258 . S
O128 Co103 1.941 . S
O128 C135 1.266 . S
H129 C131 0.959 . S
H130 C131 0.961 . S
C131 C121 1.510 . S
C131 H129 0.959 . S
C131 H130 0.961 . S
C131 H132 0.960 . S
H132 C131 0.960 . S
H133 N113 0.862 . S
O134 Co102 1.920 . S
O134 C107 1.289 . S
C135 O127 1.258 . S
C135 O128 1.266 . S
Co136 O139 1.970 . S
Co136 N153 1.989 . S
Co136 O161 1.967 . S
Co136 O168 1.920 . S
Co137 O140 1.966 . S
Co137 N146 2.022 . S
Co137 N154 1.993 . S
Co137 O162 1.941 . S
C138 O139 1.258 . S
C138 O140 1.263 . S
O139 Co136 1.970 . S
O139 C138 1.258 . S
O140 Co137 1.966 . S
O140 C138 1.263 . S
C141 O142 1.235 . S
C141 O168 1.289 . S
O142 C141 1.235 . S
C143 C145 1.400 . S
C143 N146 1.351 . S
C143 C148 1.501 . S
C144 C145 1.387 . S
C144 N147 1.341 . S
C145 C143 1.400 . S
C145 C144 1.387 . S
N146 Co137 2.022 . S
N146 C143 1.351 . S
N146 N147 1.365 . S
N147 C144 1.341 . S
N147 N146 1.365 . S
N147 H167 0.862 1_554 S
C148 C143 1.501 . S
C148 H149 0.961 . S
C148 H150 0.961 . S
C148 H151 0.960 . S
H149 C148 0.961 . S
H150 C148 0.961 . S
H151 C148 0.960 . S
C152 N153 1.342 . S
C152 C156 1.401 . S
C152 C157 1.499 . S
N153 Co136 1.989 . S
N153 C152 1.342 . S
N153 N154 1.388 . S
N154 Co137 1.993 . S
N154 N153 1.388 . S
N154 C155 1.346 . S
C155 N154 1.346 . S
C155 C156 1.396 . S
C155 C165 1.510 . S
C156 C152 1.401 . S
C156 C155 1.396 . S
C157 C152 1.499 . S
C157 H158 0.959 . S
C157 H159 0.960 . S
C157 H160 0.961 1_554 S
H158 C157 0.959 . S
H159 C157 0.960 . S
H160 C157 0.961 1_556 S
O161 Co136 1.967 . S
O161 C169 1.258 1_554 S
O162 Co137 1.941 . S
O162 C169 1.266 1_554 S
H163 C165 0.959 . S
H164 C165 0.961 . S
C165 C155 1.510 . S
C165 H163 0.959 . S
C165 H164 0.961 . S
C165 H166 0.960 . S
H166 C165 0.960 . S
H167 N147 0.862 1_556 S
O168 Co136 1.920 . S
O168 C141 1.289 . S
C169 O161 1.258 1_556 S
C169 O162 1.266 1_556 S
Co170 O173 1.970 . S
Co170 N187 1.989 . S
Co170 O195 1.967 . S
Co170 O202 1.920 . S
Co171 O174 1.966 . S
Co171 N180 2.022 . S
Co171 N188 1.993 . S
Co171 O196 1.941 . S
C172 O173 1.258 . S
C172 O174 1.263 . S
O173 Co170 1.970 . S
O173 C172 1.258 . S
O174 Co171 1.966 . S
O174 C172 1.263 . S
C175 O176 1.235 . S
C175 O202 1.289 . S
O176 C175 1.235 . S
C177 C179 1.400 . S
C177 N180 1.351 . S
C177 C182 1.501 . S
C178 C179 1.387 . S
C178 N181 1.341 . S
C179 C177 1.400 . S
C179 C178 1.387 . S
N180 Co171 2.022 . S
N180 C177 1.351 . S
N180 N181 1.365 . S
N181 C178 1.341 . S
N181 N180 1.365 . S
N181 H201 0.862 1_556 S
C182 C177 1.501 . S
C182 H183 0.961 . S
C182 H184 0.961 . S
C182 H185 0.960 . S
H183 C182 0.961 . S
H184 C182 0.961 . S
H185 C182 0.960 . S
C186 N187 1.342 . S
C186 C190 1.401 . S
C186 C191 1.499 . S
N187 Co170 1.989 . S
N187 C186 1.342 . S
N187 N188 1.388 . S
N188 Co171 1.993 . S
N188 N187 1.388 . S
N188 C189 1.346 . S
C189 N188 1.346 . S
C189 C190 1.396 . S
C189 C199 1.510 . S
C190 C186 1.401 . S
C190 C189 1.396 . S
C191 C186 1.499 . S
C191 H192 0.959 . S
C191 H193 0.960 . S
C191 H194 0.961 1_556 S
H192 C191 0.959 . S
H193 C191 0.960 . S
H194 C191 0.961 1_554 S
O195 Co170 1.967 . S
O195 C203 1.258 1_556 S
O196 Co171 1.941 . S
O196 C203 1.266 1_556 S
H197 C199 0.959 . S
H198 C199 0.961 . S
C199 C189 1.510 . S
C199 H197 0.959 . S
C199 H198 0.961 . S
C199 H200 0.960 . S
H200 C199 0.960 . S
H201 N181 0.862 1_554 S
O202 Co170 1.920 . S
O202 C175 1.289 . S
C203 O195 1.258 1_554 S
C203 O196 1.266 1_554 S
Co204 O207 1.970 . S
Co204 N221 1.989 . S
Co204 O229 1.967 . S
Co204 O236 1.920 . S
Co205 O208 1.966 . S
Co205 N214 2.022 . S
Co205 N222 1.993 . S
Co205 O230 1.941 . S
C206 O207 1.258 . S
C206 O208 1.263 . S
O207 Co204 1.970 . S
O207 C206 1.258 . S
O208 Co205 1.966 . S
O208 C206 1.263 . S
C209 O210 1.235 . S
C209 O236 1.289 . S
O210 C209 1.235 . S
C211 C213 1.400 . S
C211 N214 1.351 . S
C211 C216 1.501 . S
C212 C213 1.387 . S
C212 N215 1.341 . S
C213 C211 1.400 . S
C213 C212 1.387 . S
N214 Co205 2.022 . S
N214 C211 1.351 . S
N214 N215 1.365 . S
N215 C212 1.341 . S
N215 N214 1.365 . S
N215 H235 0.862 1_554 S
C216 C211 1.501 . S
C216 H217 0.961 . S
C216 H218 0.961 . S
C216 H219 0.960 . S
H217 C216 0.961 . S
H218 C216 0.961 . S
H219 C216 0.960 . S
C220 N221 1.342 . S
C220 C224 1.401 . S
C220 C225 1.499 . S
N221 Co204 1.989 . S
N221 C220 1.342 . S
N221 N222 1.388 . S
N222 Co205 1.993 . S
N222 N221 1.388 . S
N222 C223 1.346 . S
C223 N222 1.346 . S
C223 C224 1.396 . S
C223 C233 1.510 . S
C224 C220 1.401 . S
C224 C223 1.396 . S
C225 C220 1.499 . S
C225 H226 0.959 . S
C225 H227 0.960 . S
C225 H228 0.961 1_554 S
H226 C225 0.959 . S
H227 C225 0.960 . S
H228 C225 0.961 1_556 S
O229 Co204 1.967 . S
O229 C237 1.258 1_554 S
O230 Co205 1.941 . S
O230 C237 1.266 1_554 S
H231 C233 0.959 . S
H232 C233 0.961 . S
C233 C223 1.510 . S
C233 H231 0.959 . S
C233 H232 0.961 . S
C233 H234 0.960 . S
H234 C233 0.960 . S
H235 N215 0.862 1_556 S
O236 Co204 1.920 . S
O236 C209 1.289 . S
C237 O229 1.258 1_556 S
C237 O230 1.266 1_556 S
Co238 O241 1.970 . S
Co238 N255 1.989 . S
Co238 O263 1.967 . S
Co238 O270 1.920 . S
Co239 O242 1.966 . S
Co239 N248 2.022 . S
Co239 N256 1.993 . S
Co239 O264 1.941 . S
C240 O241 1.258 . S
C240 O242 1.263 . S
O241 Co238 1.970 . S
O241 C240 1.258 . S
O242 Co239 1.966 . S
O242 C240 1.263 . S
C243 O244 1.235 . S
C243 O270 1.289 . S
O244 C243 1.235 . S
C245 C247 1.400 . S
C245 N248 1.351 . S
C245 C250 1.501 . S
C246 C247 1.387 . S
C246 N249 1.341 . S
C247 C245 1.400 . S
C247 C246 1.387 . S
N248 Co239 2.022 . S
N248 C245 1.351 . S
N248 N249 1.365 . S
N249 C246 1.341 . S
N249 N248 1.365 . S
N249 H269 0.862 1_556 S
C250 C245 1.501 . S
C250 H251 0.961 . S
C250 H252 0.961 . S
C250 H253 0.960 . S
H251 C250 0.961 . S
H252 C250 0.961 . S
H253 C250 0.960 . S
C254 N255 1.342 . S
C254 C258 1.401 . S
C254 C259 1.499 . S
N255 Co238 1.989 . S
N255 C254 1.342 . S
N255 N256 1.388 . S
N256 Co239 1.993 . S
N256 N255 1.388 . S
N256 C257 1.346 . S
C257 N256 1.346 . S
C257 C258 1.396 . S
C257 C267 1.510 . S
C258 C254 1.401 . S
C258 C257 1.396 . S
C259 C254 1.499 . S
C259 H260 0.959 . S
C259 H261 0.960 . S
C259 H262 0.961 1_556 S
H260 C259 0.959 . S
H261 C259 0.960 . S
H262 C259 0.961 1_554 S
O263 Co238 1.967 . S
O263 C271 1.258 1_556 S
O264 Co239 1.941 . S
O264 C271 1.266 1_556 S
H265 C267 0.959 . S
H266 C267 0.961 . S
C267 C257 1.510 . S
C267 H265 0.959 . S
C267 H266 0.961 . S
C267 H268 0.960 . S
H268 C267 0.960 . S
H269 N249 0.862 1_554 S
O270 Co238 1.920 . S
O270 C243 1.289 . S
C271 O263 1.258 1_554 S
C271 O264 1.266 1_554 S
Co272 O275 1.970 . S
Co272 N289 1.989 . S
Co272 O297 1.967 . S
Co272 O304 1.920 . S
Co273 O276 1.966 . S
Co273 N282 2.022 . S
Co273 N290 1.993 . S
Co273 O298 1.941 . S
C274 O275 1.258 . S
C274 O276 1.263 . S
O275 Co272 1.970 . S
O275 C274 1.258 . S
O276 Co273 1.966 . S
O276 C274 1.263 . S
C277 O278 1.235 . S
C277 O304 1.289 . S
O278 C277 1.235 . S
C279 C281 1.400 . S
C279 N282 1.351 . S
C279 C284 1.501 . S
C280 C281 1.387 . S
C280 N283 1.341 . S
C281 C279 1.400 . S
C281 C280 1.387 . S
N282 Co273 2.022 . S
N282 C279 1.351 . S
N282 N283 1.365 . S
N283 C280 1.341 . S
N283 N282 1.365 . S
N283 H303 0.862 . S
C284 C279 1.501 . S
C284 H285 0.961 . S
C284 H286 0.961 . S
C284 H287 0.960 . S
H285 C284 0.961 . S
H286 C284 0.961 . S
H287 C284 0.960 . S
C288 N289 1.342 . S
C288 C292 1.401 . S
C288 C293 1.499 . S
N289 Co272 1.989 . S
N289 C288 1.342 . S
N289 N290 1.388 . S
N290 Co273 1.993 . S
N290 N289 1.388 . S
N290 C291 1.346 . S
C291 N290 1.346 . S
C291 C292 1.396 . S
C291 C301 1.510 . S
C292 C288 1.401 . S
C292 C291 1.396 . S
C293 C288 1.499 . S
C293 H294 0.959 . S
C293 H295 0.960 . S
C293 H296 0.961 . S
H294 C293 0.959 . S
H295 C293 0.960 . S
H296 C293 0.961 . S
O297 Co272 1.967 . S
O297 C305 1.258 . S
O298 Co273 1.941 . S
O298 C305 1.266 . S
H299 C301 0.959 . S
H300 C301 0.961 . S
C301 C291 1.510 . S
C301 H299 0.959 . S
C301 H300 0.961 . S
C301 H302 0.960 . S
H302 C301 0.960 . S
H303 N283 0.862 . S
O304 Co272 1.920 . S
O304 C277 1.289 . S
C305 O297 1.258 . S
C305 O298 1.266 . S
Co306 O309 1.970 . S
Co306 N323 1.989 . S
Co306 O331 1.967 . S
Co306 O338 1.920 . S
Co307 O310 1.966 . S
Co307 N316 2.022 . S
Co307 N324 1.993 . S
Co307 O332 1.941 . S
C308 O309 1.258 . S
C308 O310 1.263 . S
O309 Co306 1.970 . S
O309 C308 1.258 . S
O310 Co307 1.966 . S
O310 C308 1.263 . S
C311 O312 1.235 . S
C311 O338 1.289 . S
O312 C311 1.235 . S
C313 C315 1.400 . S
C313 N316 1.351 . S
C313 C318 1.501 . S
C314 C315 1.387 . S
C314 N317 1.341 . S
C315 C313 1.400 . S
C315 C314 1.387 . S
N316 Co307 2.022 . S
N316 C313 1.351 . S
N316 N317 1.365 . S
N317 C314 1.341 . S
N317 N316 1.365 . S
N317 H337 0.862 . S
C318 C313 1.501 . S
C318 H319 0.961 . S
C318 H320 0.961 . S
C318 H321 0.960 . S
H319 C318 0.961 . S
H320 C318 0.961 . S
H321 C318 0.960 . S
C322 N323 1.342 . S
C322 C326 1.401 . S
C322 C327 1.499 . S
N323 Co306 1.989 . S
N323 C322 1.342 . S
N323 N324 1.388 . S
N324 Co307 1.993 . S
N324 N323 1.388 . S
N324 C325 1.346 . S
C325 N324 1.346 . S
C325 C326 1.396 . S
C325 C335 1.510 . S
C326 C322 1.401 . S
C326 C325 1.396 . S
C327 C322 1.499 . S
C327 H328 0.959 . S
C327 H329 0.960 . S
C327 H330 0.961 . S
H328 C327 0.959 . S
H329 C327 0.960 . S
H330 C327 0.961 . S
O331 Co306 1.967 . S
O331 C339 1.258 . S
O332 Co307 1.941 . S
O332 C339 1.266 . S
H333 C335 0.959 . S
H334 C335 0.961 . S
C335 C325 1.510 . S
C335 H333 0.959 . S
C335 H334 0.961 . S
C335 H336 0.960 . S
H336 C335 0.960 . S
H337 N317 0.862 . S
O338 Co306 1.920 . S
O338 C311 1.289 . S
C339 O331 1.258 . S
C339 O332 1.266 . S
Co340 O343 1.970 . S
Co340 N357 1.989 . S
Co340 O365 1.967 . S
Co340 O372 1.920 . S
Co341 O344 1.966 . S
Co341 N350 2.022 . S
Co341 N358 1.993 . S
Co341 O366 1.941 . S
C342 O343 1.258 . S
C342 O344 1.263 . S
O343 Co340 1.970 . S
O343 C342 1.258 . S
O344 Co341 1.966 . S
O344 C342 1.263 . S
C345 O346 1.235 . S
C345 O372 1.289 . S
O346 C345 1.235 . S
C347 C349 1.400 . S
C347 N350 1.351 . S
C347 C352 1.501 . S
C348 C349 1.387 . S
C348 N351 1.341 . S
C349 C347 1.400 . S
C349 C348 1.387 . S
N350 Co341 2.022 . S
N350 C347 1.351 . S
N350 N351 1.365 . S
N351 C348 1.341 . S
N351 N350 1.365 . S
N351 H371 0.862 . S
C352 C347 1.501 . S
C352 H353 0.961 . S
C352 H354 0.961 . S
C352 H355 0.960 . S
H353 C352 0.961 . S
H354 C352 0.961 . S
H355 C352 0.960 . S
C356 N357 1.342 . S
C356 C360 1.401 . S
C356 C361 1.499 . S
N357 Co340 1.989 . S
N357 C356 1.342 . S
N357 N358 1.388 . S
N358 Co341 1.993 . S
N358 N357 1.388 . S
N358 C359 1.346 . S
C359 N358 1.346 . S
C359 C360 1.396 . S
C359 C369 1.510 . S
C360 C356 1.401 . S
C360 C359 1.396 . S
C361 C356 1.499 . S
C361 H362 0.959 . S
C361 H363 0.960 . S
C361 H364 0.961 . S
H362 C361 0.959 . S
H363 C361 0.960 . S
H364 C361 0.961 . S
O365 Co340 1.967 . S
O365 C373 1.258 . S
O366 Co341 1.941 . S
O366 C373 1.266 . S
H367 C369 0.959 . S
H368 C369 0.961 . S
C369 C359 1.510 . S
C369 H367 0.959 . S
C369 H368 0.961 . S
C369 H370 0.960 . S
H370 C369 0.960 . S
H371 N351 0.862 . S
O372 Co340 1.920 . S
O372 C345 1.289 . S
C373 O365 1.258 . S
C373 O366 1.266 . S
Co374 O377 1.970 . S
Co374 N391 1.989 . S
Co374 O399 1.967 . S
Co374 O406 1.920 . S
Co375 O378 1.966 . S
Co375 N384 2.022 . S
Co375 N392 1.993 . S
Co375 O400 1.941 . S
C376 O377 1.258 . S
C376 O378 1.263 . S
O377 Co374 1.970 . S
O377 C376 1.258 . S
O378 Co375 1.966 . S
O378 C376 1.263 . S
C379 O380 1.235 . S
C379 O406 1.289 . S
O380 C379 1.235 . S
C381 C383 1.400 . S
C381 N384 1.351 . S
C381 C386 1.501 . S
C382 C383 1.387 . S
C382 N385 1.341 . S
C383 C381 1.400 . S
C383 C382 1.387 . S
N384 Co375 2.022 . S
N384 C381 1.351 . S
N384 N385 1.365 . S
N385 C382 1.341 . S
N385 N384 1.365 . S
N385 H405 0.862 . S
C386 C381 1.501 . S
C386 H387 0.961 . S
C386 H388 0.961 . S
C386 H389 0.960 . S
H387 C386 0.961 . S
H388 C386 0.961 . S
H389 C386 0.960 . S
C390 N391 1.342 . S
C390 C394 1.401 . S
C390 C395 1.499 . S
N391 Co374 1.989 . S
N391 C390 1.342 . S
N391 N392 1.388 . S
N392 Co375 1.993 . S
N392 N391 1.388 . S
N392 C393 1.346 . S
C393 N392 1.346 . S
C393 C394 1.396 . S
C393 C403 1.510 . S
C394 C390 1.401 . S
C394 C393 1.396 . S
C395 C390 1.499 . S
C395 H396 0.959 . S
C395 H397 0.960 . S
C395 H398 0.961 . S
H396 C395 0.959 . S
H397 C395 0.960 . S
H398 C395 0.961 . S
O399 Co374 1.967 . S
O399 C407 1.258 . S
O400 Co375 1.941 . S
O400 C407 1.266 . S
H401 C403 0.959 . S
H402 C403 0.961 . S
C403 C393 1.510 . S
C403 H401 0.959 . S
C403 H402 0.961 . S
C403 H404 0.960 . S
H404 C403 0.960 . S
H405 N385 0.862 . S
O406 Co374 1.920 . S
O406 C379 1.289 . S
C407 O399 1.258 . S
C407 O400 1.266 . S
Co408 O411 1.970 . S
Co408 N425 1.989 . S
Co408 O433 1.967 . S
Co408 O440 1.920 . S
Co409 O412 1.966 . S
Co409 N418 2.022 . S
Co409 N426 1.993 . S
Co409 O434 1.941 . S
C410 O411 1.258 . S
C410 O412 1.263 . S
O411 Co408 1.970 . S
O411 C410 1.258 . S
O412 Co409 1.966 . S
O412 C410 1.263 . S
C413 O414 1.235 . S
C413 O440 1.289 . S
O414 C413 1.235 . S
C415 C417 1.400 . S
C415 N418 1.351 . S
C415 C420 1.501 . S
C416 C417 1.387 . S
C416 N419 1.341 . S
C417 C415 1.400 . S
C417 C416 1.387 . S
N418 Co409 2.022 . S
N418 C415 1.351 . S
N418 N419 1.365 . S
N419 C416 1.341 . S
N419 N418 1.365 . S
N419 H439 0.862 . S
C420 C415 1.501 . S
C420 H421 0.961 . S
C420 H422 0.961 . S
C420 H423 0.960 . S
H421 C420 0.961 . S
H422 C420 0.961 . S
H423 C420 0.960 . S
C424 N425 1.342 . S
C424 C428 1.401 . S
C424 C429 1.499 . S
N425 Co408 1.989 . S
N425 C424 1.342 . S
N425 N426 1.388 . S
N426 Co409 1.993 . S
N426 N425 1.388 . S
N426 C427 1.346 . S
C427 N426 1.346 . S
C427 C428 1.396 . S
C427 C437 1.510 . S
C428 C424 1.401 . S
C428 C427 1.396 . S
C429 C424 1.499 . S
C429 H430 0.959 . S
C429 H431 0.960 . S
C429 H432 0.961 . S
H430 C429 0.959 . S
H431 C429 0.960 . S
H432 C429 0.961 . S
O433 Co408 1.967 . S
O433 C441 1.258 . S
O434 Co409 1.941 . S
O434 C441 1.266 . S
H435 C437 0.959 . S
H436 C437 0.961 . S
C437 C427 1.510 . S
C437 H435 0.959 . S
C437 H436 0.961 . S
C437 H438 0.960 . S
H438 C437 0.960 . S
H439 N419 0.862 . S
O440 Co408 1.920 . S
O440 C413 1.289 . S
C441 O433 1.258 . S
C441 O434 1.266 . S
Co442 O445 1.970 . S
Co442 N459 1.989 . S
Co442 O467 1.967 . S
Co442 O474 1.920 . S
Co443 O446 1.966 . S
Co443 N452 2.022 . S
Co443 N460 1.993 . S
Co443 O468 1.941 . S
C444 O445 1.258 . S
C444 O446 1.263 . S
O445 Co442 1.970 . S
O445 C444 1.258 . S
O446 Co443 1.966 . S
O446 C444 1.263 . S
C447 O448 1.235 . S
C447 O474 1.289 . S
O448 C447 1.235 . S
C449 C451 1.400 . S
C449 N452 1.351 . S
C449 C454 1.501 . S
C450 C451 1.387 . S
C450 N453 1.341 . S
C451 C449 1.400 . S
C451 C450 1.387 . S
N452 Co443 2.022 . S
N452 C449 1.351 . S
N452 N453 1.365 . S
N453 C450 1.341 . S
N453 N452 1.365 . S
N453 H473 0.862 . S
C454 C449 1.501 . S
C454 H455 0.961 . S
C454 H456 0.961 . S
C454 H457 0.960 . S
H455 C454 0.961 . S
H456 C454 0.961 . S
H457 C454 0.960 . S
C458 N459 1.342 . S
C458 C462 1.401 . S
C458 C463 1.499 . S
N459 Co442 1.989 . S
N459 C458 1.342 . S
N459 N460 1.388 . S
N460 Co443 1.993 . S
N460 N459 1.388 . S
N460 C461 1.346 . S
C461 N460 1.346 . S
C461 C462 1.396 . S
C461 C471 1.510 . S
C462 C458 1.401 . S
C462 C461 1.396 . S
C463 C458 1.499 . S
C463 H464 0.959 . S
C463 H465 0.960 . S
C463 H466 0.961 . S
H464 C463 0.959 . S
H465 C463 0.960 . S
H466 C463 0.961 . S
O467 Co442 1.967 . S
O467 C475 1.258 . S
O468 Co443 1.941 . S
O468 C475 1.266 . S
H469 C471 0.959 . S
H470 C471 0.961 . S
C471 C461 1.510 . S
C471 H469 0.959 . S
C471 H470 0.961 . S
C471 H472 0.960 . S
H472 C471 0.960 . S
H473 N453 0.862 . S
O474 Co442 1.920 . S
O474 C447 1.289 . S
C475 O467 1.258 . S
C475 O468 1.266 . S
Co476 O479 1.970 . S
Co476 N493 1.989 . S
Co476 O501 1.967 . S
Co476 O508 1.920 . S
Co477 O480 1.966 . S
Co477 N486 2.022 . S
Co477 N494 1.993 . S
Co477 O502 1.941 . S
C478 O479 1.258 . S
C478 O480 1.263 . S
O479 Co476 1.970 . S
O479 C478 1.258 . S
O480 Co477 1.966 . S
O480 C478 1.263 . S
C481 O482 1.235 . S
C481 O508 1.289 . S
O482 C481 1.235 . S
C483 C485 1.400 . S
C483 N486 1.351 . S
C483 C488 1.501 . S
C484 C485 1.387 . S
C484 N487 1.341 . S
C485 C483 1.400 . S
C485 C484 1.387 . S
N486 Co477 2.022 . S
N486 C483 1.351 . S
N486 N487 1.365 . S
N487 C484 1.341 . S
N487 N486 1.365 . S
N487 H507 0.862 . S
C488 C483 1.501 . S
C488 H489 0.961 . S
C488 H490 0.961 . S
C488 H491 0.960 . S
H489 C488 0.961 . S
H490 C488 0.961 . S
H491 C488 0.960 . S
C492 N493 1.342 . S
C492 C496 1.401 . S
C492 C497 1.499 . S
N493 Co476 1.989 . S
N493 C492 1.342 . S
N493 N494 1.388 . S
N494 Co477 1.993 . S
N494 N493 1.388 . S
N494 C495 1.346 . S
C495 N494 1.346 . S
C495 C496 1.396 . S
C495 C505 1.510 . S
C496 C492 1.401 . S
C496 C495 1.396 . S
C497 C492 1.499 . S
C497 H498 0.959 . S
C497 H499 0.960 . S
C497 H500 0.961 . S
H498 C497 0.959 . S
H499 C497 0.960 . S
H500 C497 0.961 . S
O501 Co476 1.967 . S
O501 C509 1.258 . S
O502 Co477 1.941 . S
O502 C509 1.266 . S
H503 C505 0.959 . S
H504 C505 0.961 . S
C505 C495 1.510 . S
C505 H503 0.959 . S
C505 H504 0.961 . S
C505 H506 0.960 . S
H506 C505 0.960 . S
H507 N487 0.862 . S
O508 Co476 1.920 . S
O508 C481 1.289 . S
C509 O501 1.258 . S
C509 O502 1.266 . S
Co510 O513 1.970 . S
Co510 N527 1.989 . S
Co510 O535 1.967 . S
Co510 O542 1.920 . S
Co511 O514 1.966 . S
Co511 N520 2.022 . S
Co511 N528 1.993 . S
Co511 O536 1.941 . S
C512 O513 1.258 . S
C512 O514 1.263 . S
O513 Co510 1.970 . S
O513 C512 1.258 . S
O514 Co511 1.966 . S
O514 C512 1.263 . S
C515 O516 1.235 . S
C515 O542 1.289 . S
O516 C515 1.235 . S
C517 C519 1.400 . S
C517 N520 1.351 . S
C517 C522 1.501 . S
C518 C519 1.387 . S
C518 N521 1.341 . S
C519 C517 1.400 . S
C519 C518 1.387 . S
N520 Co511 2.022 . S
N520 C517 1.351 . S
N520 N521 1.365 . S
N521 C518 1.341 . S
N521 N520 1.365 . S
N521 H541 0.862 . S
C522 C517 1.501 . S
C522 H523 0.961 . S
C522 H524 0.961 . S
C522 H525 0.960 . S
H523 C522 0.961 . S
H524 C522 0.961 . S
H525 C522 0.960 . S
C526 N527 1.342 . S
C526 C530 1.401 . S
C526 C531 1.499 . S
N527 Co510 1.989 . S
N527 C526 1.342 . S
N527 N528 1.388 . S
N528 Co511 1.993 . S
N528 N527 1.388 . S
N528 C529 1.346 . S
C529 N528 1.346 . S
C529 C530 1.396 . S
C529 C539 1.510 . S
C530 C526 1.401 . S
C530 C529 1.396 . S
C531 C526 1.499 . S
C531 H532 0.959 . S
C531 H533 0.960 . S
C531 H534 0.961 . S
H532 C531 0.959 . S
H533 C531 0.960 . S
H534 C531 0.961 . S
O535 Co510 1.967 . S
O535 C543 1.258 . S
O536 Co511 1.941 . S
O536 C543 1.266 . S
H537 C539 0.959 . S
H538 C539 0.961 . S
C539 C529 1.510 . S
C539 H537 0.959 . S
C539 H538 0.961 . S
C539 H540 0.960 . S
H540 C539 0.960 . S
H541 N521 0.862 . S
O542 Co510 1.920 . S
O542 C515 1.289 . S
C543 O535 1.258 . S
C543 O536 1.266 . S
H544 C550 0.930 . S
H545 C553 0.930 . S
H546 C554 0.930 . S
H547 C555 0.930 . S
H548 C558 0.930 . S
H549 C559 0.930 . S
C550 H544 0.930 . S
C550 C551 1.355 . S
C550 C552 1.415 . S
C551 C550 1.355 . S
C551 C553 1.419 . S
C552 C550 1.415 . S
C552 C557 1.425 . S
C552 C559 1.409 . S
C553 H545 0.930 . S
C553 C551 1.419 . S
C553 C554 1.362 . S
C554 H546 0.930 . S
C554 C553 1.362 . S
C554 C557 1.409 . S
C555 H547 0.930 . S
C555 C556 1.355 . S
C555 C557 1.415 . S
C556 C555 1.355 . S
C556 C558 1.419 . S
C557 C552 1.425 . S
C557 C554 1.409 . S
C557 C555 1.415 . S
C558 H548 0.930 . S
C558 C556 1.419 . S
C558 C559 1.362 . S
C559 H549 0.930 . S
C559 C552 1.409 . S
C559 C558 1.362 . S
H560 C566 0.930 . S
H561 C569 0.930 . S
H562 C570 0.930 . S
H563 C571 0.930 . S
H564 C574 0.930 . S
H565 C575 0.930 . S
C566 H560 0.930 . S
C566 C567 1.355 . S
C566 C568 1.415 . S
C567 C566 1.355 . S
C567 C569 1.419 . S
C568 C566 1.415 . S
C568 C573 1.425 . S
C568 C575 1.409 . S
C569 H561 0.930 . S
C569 C567 1.419 . S
C569 C570 1.362 . S
C570 H562 0.930 . S
C570 C569 1.362 . S
C570 C573 1.409 . S
C571 H563 0.930 . S
C571 C572 1.355 . S
C571 C573 1.415 . S
C572 C571 1.355 . S
C572 C574 1.419 . S
C573 C568 1.425 . S
C573 C570 1.409 . S
C573 C571 1.415 . S
C574 H564 0.930 . S
C574 C572 1.419 . S
C574 C575 1.362 . S
C575 H565 0.930 . S
C575 C568 1.409 . S
C575 C574 1.362 . S
H576 C582 0.930 . S
H577 C585 0.930 . S
H578 C586 0.930 . S
H579 C587 0.930 . S
H580 C590 0.930 . S
H581 C591 0.930 . S
C582 H576 0.930 . S
C582 C583 1.355 . S
C582 C584 1.415 . S
C583 C582 1.355 . S
C583 C585 1.419 . S
C584 C582 1.415 . S
C584 C589 1.425 . S
C584 C591 1.409 . S
C585 H577 0.930 . S
C585 C583 1.419 . S
C585 C586 1.362 . S
C586 H578 0.930 . S
C586 C585 1.362 . S
C586 C589 1.409 . S
C587 H579 0.930 . S
C587 C588 1.355 . S
C587 C589 1.415 . S
C588 C587 1.355 . S
C588 C590 1.419 . S
C589 C584 1.425 . S
C589 C586 1.409 . S
C589 C587 1.415 . S
C590 H580 0.930 . S
C590 C588 1.419 . S
C590 C591 1.362 . S
C591 H581 0.930 . S
C591 C584 1.409 . S
C591 C590 1.362 . S
H592 C598 0.930 . S
H593 C601 0.930 . S
H594 C602 0.930 . S
H595 C603 0.930 . S
H596 C606 0.930 . S
H597 C607 0.930 . S
C598 H592 0.930 . S
C598 C599 1.355 . S
C598 C600 1.415 . S
C599 C598 1.355 . S
C599 C601 1.419 . S
C600 C598 1.415 . S
C600 C605 1.425 . S
C600 C607 1.409 . S
C601 H593 0.930 . S
C601 C599 1.419 . S
C601 C602 1.362 . S
C602 H594 0.930 . S
C602 C601 1.362 . S
C602 C605 1.409 . S
C603 H595 0.930 . S
C603 C604 1.355 . S
C603 C605 1.415 . S
C604 C603 1.355 . S
C604 C606 1.419 . S
C605 C600 1.425 . S
C605 C602 1.409 . S
C605 C603 1.415 . S
C606 H596 0.930 . S
C606 C604 1.419 . S
C606 C607 1.362 . S
C607 H597 0.930 . S
C607 C600 1.409 . S
C607 C606 1.362 . S
H608 C614 0.930 . S
H609 C617 0.930 1_554 S
H610 C618 0.930 . S
H611 C619 0.930 . S
H612 C622 0.930 . S
H613 C623 0.930 . S
C614 H608 0.930 . S
C614 C615 1.355 . S
C614 C616 1.415 . S
C615 C614 1.355 . S
C615 C617 1.419 . S
C616 C614 1.415 . S
C616 C621 1.425 . S
C616 C623 1.409 . S
C617 H609 0.930 1_556 S
C617 C615 1.419 . S
C617 C618 1.362 . S
C618 H610 0.930 . S
C618 C617 1.362 . S
C618 C621 1.409 . S
C619 H611 0.930 . S
C619 C620 1.355 . S
C619 C621 1.415 . S
C620 C619 1.355 . S
C620 C622 1.419 . S
C621 C616 1.425 . S
C621 C618 1.409 . S
C621 C619 1.415 . S
C622 H612 0.930 . S
C622 C620 1.419 . S
C622 C623 1.362 . S
C623 H613 0.930 . S
C623 C616 1.409 . S
C623 C622 1.362 . S
H624 C630 0.930 . S
H625 C633 0.930 . S
H626 C634 0.930 . S
H627 C635 0.930 . S
H628 C638 0.930 . S
H629 C639 0.930 . S
C630 H624 0.930 . S
C630 C631 1.355 . S
C630 C632 1.415 . S
C631 C630 1.355 . S
C631 C633 1.419 . S
C632 C630 1.415 . S
C632 C637 1.425 . S
C632 C639 1.409 . S
C633 H625 0.930 . S
C633 C631 1.419 . S
C633 C634 1.362 . S
C634 H626 0.930 . S
C634 C633 1.362 . S
C634 C637 1.409 . S
C635 H627 0.930 . S
C635 C636 1.355 . S
C635 C637 1.415 . S
C636 C635 1.355 . S
C636 C638 1.419 . S
C637 C632 1.425 . S
C637 C634 1.409 . S
C637 C635 1.415 . S
C638 H628 0.930 . S
C638 C636 1.419 . S
C638 C639 1.362 . S
C639 H629 0.930 . S
C639 C632 1.409 . S
C639 C638 1.362 . S
H640 C646 0.930 1_554 S
H641 C649 0.930 . S
H642 C650 0.930 . S
H643 C651 0.930 . S
H644 C654 0.930 . S
H645 C655 0.930 . S
C646 H640 0.930 1_556 S
C646 C647 1.355 . S
C646 C648 1.415 . S
C647 C646 1.355 . S
C647 C649 1.419 . S
C648 C646 1.415 . S
C648 C653 1.425 . S
C648 C655 1.409 . S
C649 H641 0.930 . S
C649 C647 1.419 . S
C649 C650 1.362 . S
C650 H642 0.930 . S
C650 C649 1.362 . S
C650 C653 1.409 . S
C651 H643 0.930 . S
C651 C652 1.355 . S
C651 C653 1.415 . S
C652 C651 1.355 . S
C652 C654 1.419 . S
C653 C648 1.425 . S
C653 C650 1.409 . S
C653 C651 1.415 . S
C654 H644 0.930 . S
C654 C652 1.419 . S
C654 C655 1.362 . S
C655 H645 0.930 . S
C655 C648 1.409 . S
C655 C654 1.362 . S
H656 C662 0.930 . S
H657 C665 0.930 . S
H658 C666 0.930 . S
H659 C667 0.930 . S
H660 C670 0.930 1_556 S
H661 C671 0.930 . S
C662 H656 0.930 . S
C662 C663 1.355 . S
C662 C664 1.415 . S
C663 C662 1.355 . S
C663 C665 1.419 . S
C664 C662 1.415 . S
C664 C669 1.425 . S
C664 C671 1.409 . S
C665 H657 0.930 . S
C665 C663 1.419 . S
C665 C666 1.362 . S
C666 H658 0.930 . S
C666 C665 1.362 . S
C666 C669 1.409 . S
C667 H659 0.930 . S
C667 C668 1.355 . S
C667 C669 1.415 . S
C668 C667 1.355 . S
C668 C670 1.419 . S
C669 C664 1.425 . S
C669 C666 1.409 . S
C669 C667 1.415 . S
C670 H660 0.930 1_554 S
C670 C668 1.419 . S
C670 C671 1.362 . S
C671 H661 0.930 . S
C671 C664 1.409 . S
C671 C670 1.362 . S
H672 C678 0.930 . S
H673 C681 0.930 . S
H674 C682 0.930 . S
H675 C683 0.930 . S
H676 C686 0.930 1_556 S
H677 C687 0.930 1_556 S
C678 H672 0.930 . S
C678 C679 1.355 . S
C678 C680 1.415 . S
C679 C678 1.355 . S
C679 C681 1.419 . S
C680 C678 1.415 . S
C680 C685 1.425 . S
C680 C687 1.409 . S
C681 H673 0.930 . S
C681 C679 1.419 . S
C681 C682 1.362 . S
C682 H674 0.930 . S
C682 C681 1.362 . S
C682 C685 1.409 . S
C683 H675 0.930 . S
C683 C684 1.355 . S
C683 C685 1.415 . S
C684 C683 1.355 . S
C684 C686 1.419 . S
C685 C680 1.425 . S
C685 C682 1.409 . S
C685 C683 1.415 . S
C686 H676 0.930 1_554 S
C686 C684 1.419 . S
C686 C687 1.362 . S
C687 H677 0.930 1_554 S
C687 C680 1.409 . S
C687 C686 1.362 . S
H688 C694 0.930 . S
H689 C697 0.930 . S
H690 C698 0.930 . S
H691 C699 0.930 . S
H692 C702 0.930 . S
H693 C703 0.923 1_554 S
C694 H688 0.930 . S
C694 C695 1.355 . S
C694 C696 1.415 . S
C695 C694 1.355 . S
C695 C697 1.419 . S
C696 C694 1.415 . S
C696 C701 1.425 . S
C696 C703 1.409 . S
C697 H689 0.930 . S
C697 C695 1.419 . S
C697 C698 1.362 . S
C698 H690 0.930 . S
C698 C697 1.362 . S
C698 C701 1.409 . S
C699 H691 0.930 . S
C699 C700 1.355 . S
C699 C701 1.415 . S
C700 C699 1.355 . S
C700 C702 1.419 . S
C701 C696 1.425 . S
C701 C698 1.409 . S
C701 C699 1.415 . S
C702 H692 0.930 . S
C702 C700 1.419 . S
C702 C703 1.362 . S
C703 H693 0.923 1_556 S
C703 C696 1.409 . S
C703 C702 1.362 . S
H704 C710 0.930 . S
H705 C713 0.930 1_556 S
H706 C714 0.930 1_556 S
H707 C715 0.930 . S
H708 C718 0.930 . S
H709 C719 0.930 . S
C710 H704 0.930 . S
C710 C711 1.355 . S
C710 C712 1.415 . S
C711 C710 1.355 . S
C711 C713 1.419 . S
C712 C710 1.415 . S
C712 C717 1.425 . S
C712 C719 1.409 . S
C713 H705 0.930 1_554 S
C713 C711 1.419 . S
C713 C714 1.362 . S
C714 H706 0.930 1_554 S
C714 C713 1.362 . S
C714 C717 1.409 . S
C715 H707 0.930 . S
C715 C716 1.355 . S
C715 C717 1.415 . S
C716 C715 1.355 . S
C716 C718 1.419 . S
C717 C712 1.425 . S
C717 C714 1.409 . S
C717 C715 1.415 . S
C718 H708 0.930 . S
C718 C716 1.419 . S
C718 C719 1.362 . S
C719 H709 0.930 . S
C719 C712 1.409 . S
C719 C718 1.362 . S
H720 C726 0.930 . S
H721 C729 0.930 . S
H722 C730 0.930 . S
H723 C731 0.930 . S
H724 C734 0.930 . S
H725 C735 0.930 . S
C726 H720 0.930 . S
C726 C727 1.355 . S
C726 C728 1.415 . S
C727 C726 1.355 . S
C727 C729 1.419 . S
C728 C726 1.415 . S
C728 C733 1.425 . S
C728 C735 1.409 . S
C729 H721 0.930 . S
C729 C727 1.419 . S
C729 C730 1.362 . S
C730 H722 0.930 . S
C730 C729 1.362 . S
C730 C733 1.409 . S
C731 H723 0.930 . S
C731 C732 1.355 . S
C731 C733 1.415 . S
C732 C731 1.355 . S
C732 C734 1.419 . S
C733 C728 1.425 . S
C733 C730 1.409 . S
C733 C731 1.415 . S
C734 H724 0.930 . S
C734 C732 1.419 . S
C734 C735 1.362 . S
C735 H725 0.930 . S
C735 C728 1.409 . S
C735 C734 1.362 . S
H736 C742 0.930 . S
H737 C745 0.930 . S
H738 C746 0.930 . S
H739 C747 0.930 . S
H740 C750 0.930 . S
H741 C751 0.930 . S
C742 H736 0.930 . S
C742 C743 1.355 . S
C742 C744 1.415 . S
C743 C742 1.355 . S
C743 C745 1.419 . S
C744 C742 1.415 . S
C744 C749 1.425 . S
C744 C751 1.409 . S
C745 H737 0.930 . S
C745 C743 1.419 . S
C745 C746 1.362 . S
C746 H738 0.930 . S
C746 C745 1.362 . S
C746 C749 1.409 . S
C747 H739 0.930 . S
C747 C748 1.355 . S
C747 C749 1.415 . S
C748 C747 1.355 . S
C748 C750 1.419 . S
C749 C744 1.425 . S
C749 C746 1.409 . S
C749 C747 1.415 . S
C750 H740 0.930 . S
C750 C748 1.419 . S
C750 C751 1.362 . S
C751 H741 0.930 . S
C751 C744 1.409 . S
C751 C750 1.362 . S
H752 C758 0.930 . S
H753 C761 0.930 . S
H754 C762 0.930 . S
H755 C763 0.930 . S
H756 C766 0.930 . S
H757 C767 0.930 . S
C758 H752 0.930 . S
C758 C759 1.355 . S
C758 C760 1.415 . S
C759 C758 1.355 . S
C759 C761 1.419 . S
C760 C758 1.415 . S
C760 C765 1.425 . S
C760 C767 1.409 . S
C761 H753 0.930 . S
C761 C759 1.419 . S
C761 C762 1.362 . S
C762 H754 0.930 . S
C762 C761 1.362 . S
C762 C765 1.409 . S
C763 H755 0.930 . S
C763 C764 1.355 . S
C763 C765 1.415 . S
C764 C763 1.355 . S
C764 C766 1.419 . S
C765 C760 1.425 . S
C765 C762 1.409 . S
C765 C763 1.415 . S
C766 H756 0.930 . S
C766 C764 1.419 . S
C766 C767 1.362 . S
C767 H757 0.930 . S
C767 C760 1.409 . S
C767 C766 1.362 . S
H768 C774 0.930 . S
H769 C777 0.930 . S
H770 C778 0.930 . S
H771 C779 0.930 . S
H772 C782 0.930 . S
H773 C783 0.930 . S
C774 H768 0.930 . S
C774 C775 1.355 . S
C774 C776 1.415 . S
C775 C774 1.355 . S
C775 C777 1.419 . S
C776 C774 1.415 . S
C776 C781 1.425 . S
C776 C783 1.409 . S
C777 H769 0.930 . S
C777 C775 1.419 . S
C777 C778 1.362 . S
C778 H770 0.930 . S
C778 C777 1.362 . S
C778 C781 1.409 . S
C779 H771 0.930 . S
C779 C780 1.355 . S
C779 C781 1.415 . S
C780 C779 1.355 . S
C780 C782 1.419 . S
C781 C776 1.425 . S
C781 C778 1.409 . S
C781 C779 1.415 . S
C782 H772 0.930 . S
C782 C780 1.419 . S
C782 C783 1.362 . S
C783 H773 0.930 . S
C783 C776 1.409 . S
C783 C782 1.362 . S
H784 C790 0.930 . S
H785 C793 0.930 . S
H786 C794 0.930 . S
H787 C795 0.930 . S
H788 C798 0.930 . S
H789 C799 0.930 . S
C790 H784 0.930 . S
C790 C791 1.355 . S
C790 C792 1.415 . S
C791 C790 1.355 . S
C791 C793 1.419 . S
C792 C790 1.415 . S
C792 C797 1.425 . S
C792 C799 1.409 . S
C793 H785 0.930 . S
C793 C791 1.419 . S
C793 C794 1.362 . S
C794 H786 0.930 . S
C794 C793 1.362 . S
C794 C797 1.409 . S
C795 H787 0.930 . S
C795 C796 1.355 . S
C795 C797 1.415 . S
C796 C795 1.355 . S
C796 C798 1.419 . S
C797 C792 1.425 . S
C797 C794 1.409 . S
C797 C795 1.415 . S
C798 H788 0.930 . S
C798 C796 1.419 . S
C798 C799 1.362 . S
C799 H789 0.930 . S
C799 C792 1.409 . S
C799 C798 1.362 . S
H800 C806 0.930 . S
H801 C809 0.930 . S
H802 C810 0.930 . S
H803 C811 0.930 . S
H804 C814 0.930 . S
H805 C815 0.930 . S
C806 H800 0.930 . S
C806 C807 1.355 . S
C806 C808 1.415 . S
C807 C806 1.355 . S
C807 C809 1.419 . S
C808 C806 1.415 . S
C808 C813 1.425 . S
C808 C815 1.409 . S
C809 H801 0.930 . S
C809 C807 1.419 . S
C809 C810 1.362 . S
C810 H802 0.930 . S
C810 C809 1.362 . S
C810 C813 1.409 . S
C811 H803 0.930 . S
C811 C812 1.355 . S
C811 C813 1.415 . S
C812 C811 1.355 . S
C812 C814 1.419 . S
C813 C808 1.425 . S
C813 C810 1.409 . S
C813 C811 1.415 . S
C814 H804 0.930 . S
C814 C812 1.419 . S
C814 C815 1.362 . S
C815 H805 0.930 . S
C815 C808 1.409 . S
C815 C814 1.362 . S
H816 C822 0.930 . S
H817 C825 0.930 . S
H818 C826 0.930 . S
H819 C827 0.930 . S
H820 C830 0.930 . S
H821 C831 0.930 . S
C822 H816 0.930 . S
C822 C823 1.355 . S
C822 C824 1.415 . S
C823 C822 1.355 . S
C823 C825 1.419 . S
C824 C822 1.415 . S
C824 C829 1.425 . S
C824 C831 1.409 . S
C825 H817 0.930 . S
C825 C823 1.419 . S
C825 C826 1.362 . S
C826 H818 0.930 . S
C826 C825 1.362 . S
C826 C829 1.409 . S
C827 H819 0.930 . S
C827 C828 1.355 . S
C827 C829 1.415 . S
C828 C827 1.355 . S
C828 C830 1.419 1_554 S
C829 C824 1.425 . S
C829 C826 1.409 . S
C829 C827 1.415 . S
C830 H820 0.930 . S
C830 C828 1.419 1_556 S
C830 C831 1.362 1_556 S
C831 H821 0.930 . S
C831 C824 1.409 . S
C831 C830 1.362 1_554 S
H832 C838 0.930 1_554 S
H833 C841 0.930 . S
H834 C842 0.930 . S
H835 C843 0.930 . S
H836 C846 0.930 . S
H837 C847 0.930 . S
C838 H832 0.930 1_556 S
C838 C839 1.355 . S
C838 C840 1.415 . S
C839 C838 1.355 . S
C839 C841 1.419 . S
C840 C838 1.415 . S
C840 C845 1.425 . S
C840 C847 1.409 . S
C841 H833 0.930 . S
C841 C839 1.419 . S
C841 C842 1.362 . S
C842 H834 0.930 . S
C842 C841 1.362 . S
C842 C845 1.409 . S
C843 H835 0.930 . S
C843 C844 1.355 . S
C843 C845 1.415 . S
C844 C843 1.355 . S
C844 C846 1.419 . S
C845 C840 1.425 . S
C845 C842 1.409 . S
C845 C843 1.415 . S
C846 H836 0.930 . S
C846 C844 1.419 . S
C846 C847 1.362 . S
C847 H837 0.930 . S
C847 C840 1.409 . S
C847 C846 1.362 . S
H848 C854 0.930 . S
H849 C857 0.930 . S
H850 C858 0.930 . S
H851 C859 0.930 1_556 S
H852 C862 0.930 . S
H853 C863 0.930 . S
C854 H848 0.930 . S
C854 C855 1.355 . S
C854 C856 1.415 . S
C855 C854 1.355 . S
C855 C857 1.419 . S
C856 C854 1.415 . S
C856 C861 1.425 . S
C856 C863 1.409 . S
C857 H849 0.930 . S
C857 C855 1.419 . S
C857 C858 1.362 . S
C858 H850 0.930 . S
C858 C857 1.362 . S
C858 C861 1.409 . S
C859 H851 0.930 1_554 S
C859 C860 1.355 . S
C859 C861 1.415 . S
C860 C859 1.355 . S
C860 C862 1.419 . S
C861 C856 1.425 . S
C861 C858 1.409 . S
C861 C859 1.415 . S
C862 H852 0.930 . S
C862 C860 1.419 . S
C862 C863 1.362 . S
C863 H853 0.930 . S
C863 C856 1.409 . S
C863 C862 1.362 . S
H864 C870 0.930 . S
H865 C873 0.930 . S
H866 C874 0.930 . S
H867 C875 0.930 . S
H868 C878 0.930 . S
H869 C879 0.930 . S
C870 H864 0.930 . S
C870 C871 1.355 . S
C870 C872 1.415 . S
C871 C870 1.355 . S
C871 C873 1.419 . S
C872 C870 1.415 . S
C872 C877 1.425 . S
C872 C879 1.409 . S
C873 H865 0.930 . S
C873 C871 1.419 . S
C873 C874 1.362 . S
C874 H866 0.930 . S
C874 C873 1.362 . S
C874 C877 1.409 . S
C875 H867 0.930 . S
C875 C876 1.355 . S
C875 C877 1.415 . S
C876 C875 1.355 . S
C876 C878 1.419 . S
C877 C872 1.425 . S
C877 C874 1.409 . S
C877 C875 1.415 . S
C878 H868 0.930 . S
C878 C876 1.419 . S
C878 C879 1.362 . S
C879 H869 0.930 . S
C879 C872 1.409 . S
C879 C878 1.362 . S
H880 C886 0.930 . S
H881 C889 0.930 . S
H882 C890 0.930 . S
H883 C891 0.930 . S
H884 C894 0.930 . S
H885 C895 0.930 . S
C886 H880 0.930 . S
C886 C887 1.355 . S
C886 C888 1.415 . S
C887 C886 1.355 . S
C887 C889 1.419 . S
C888 C886 1.415 . S
C888 C893 1.425 . S
C888 C895 1.409 . S
C889 H881 0.930 . S
C889 C887 1.419 . S
C889 C890 1.362 . S
C890 H882 0.930 . S
C890 C889 1.362 . S
C890 C893 1.409 . S
C891 H883 0.930 . S
C891 C892 1.355 . S
C891 C893 1.415 . S
C892 C891 1.355 . S
C892 C894 1.419 . S
C893 C888 1.425 . S
C893 C890 1.409 . S
C893 C891 1.415 . S
C894 H884 0.930 . S
C894 C892 1.419 . S
C894 C895 1.362 . S
C895 H885 0.930 . S
C895 C888 1.409 . S
C895 C894 1.362 . S
H896 C902 0.930 . S
H897 C905 0.930 . S
H898 C906 0.930 . S
H899 C907 0.930 . S
H900 C910 0.930 . S
H901 C911 0.930 . S
C902 H896 0.930 . S
C902 C903 1.355 . S
C902 C904 1.415 . S
C903 C902 1.355 . S
C903 C905 1.419 . S
C904 C902 1.415 . S
C904 C909 1.425 . S
C904 C911 1.409 . S
C905 H897 0.930 . S
C905 C903 1.419 . S
C905 C906 1.362 . S
C906 H898 0.930 . S
C906 C905 1.362 . S
C906 C909 1.409 . S
C907 H899 0.930 . S
C907 C908 1.355 . S
C907 C909 1.415 . S
C908 C907 1.355 . S
C908 C910 1.419 . S
C909 C904 1.425 . S
C909 C906 1.409 . S
C909 C907 1.415 . S
C910 H900 0.930 . S
C910 C908 1.419 . S
C910 C911 1.362 . S
C911 H901 0.930 . S
C911 C904 1.409 . S
C911 C910 1.362 . S
H912 C918 0.930 . S
H913 C921 0.930 . S
H914 C922 0.930 . S
H915 C923 0.930 . S
H916 C926 0.930 . S
H917 C927 0.930 . S
C918 H912 0.930 . S
C918 C919 1.355 . S
C918 C920 1.415 . S
C919 C918 1.355 . S
C919 C921 1.419 . S
C920 C918 1.415 . S
C920 C925 1.425 . S
C920 C927 1.409 . S
C921 H913 0.930 . S
C921 C919 1.419 . S
C921 C922 1.362 . S
C922 H914 0.930 . S
C922 C921 1.362 . S
C922 C925 1.409 . S
C923 H915 0.930 . S
C923 C924 1.355 . S
C923 C925 1.415 . S
C924 C923 1.355 . S
C924 C926 1.419 . S
C925 C920 1.425 . S
C925 C922 1.409 . S
C925 C923 1.415 . S
C926 H916 0.930 . S
C926 C924 1.419 . S
C926 C927 1.362 . S
C927 H917 0.930 . S
C927 C920 1.409 . S
C927 C926 1.362 . S
H928 C934 0.930 . S
H929 C937 0.930 1_545 S
H930 C938 0.930 . S
H931 C939 0.930 . S
H932 C942 0.930 . S
H933 C943 0.930 . S
C934 H928 0.930 . S
C934 C935 1.355 . S
C934 C936 1.415 . S
C935 C934 1.355 . S
C935 C937 1.419 . S
C936 C934 1.415 . S
C936 C941 1.425 . S
C936 C943 1.409 . S
C937 H929 0.930 1_565 S
C937 C935 1.419 . S
C937 C938 1.362 . S
C938 H930 0.930 . S
C938 C937 1.362 . S
C938 C941 1.409 . S
C939 H931 0.930 . S
C939 C940 1.355 . S
C939 C941 1.415 . S
C940 C939 1.355 . S
C940 C942 1.419 . S
C941 C936 1.425 . S
C941 C938 1.409 . S
C941 C939 1.415 . S
C942 H932 0.930 . S
C942 C940 1.419 . S
C942 C943 1.362 . S
C943 H933 0.930 . S
C943 C936 1.409 . S
C943 C942 1.362 . S
H944 C950 0.930 . S
H945 C953 0.930 . S
H946 C954 0.930 . S
H947 C955 0.930 . S
H948 C958 0.930 . S
H949 C959 0.930 . S
C950 H944 0.930 . S
C950 C951 1.355 . S
C950 C952 1.415 . S
C951 C950 1.355 . S
C951 C953 1.419 . S
C952 C950 1.415 . S
C952 C957 1.425 . S
C952 C959 1.409 . S
C953 H945 0.930 . S
C953 C951 1.419 . S
C953 C954 1.362 . S
C954 H946 0.930 . S
C954 C953 1.362 . S
C954 C957 1.409 . S
C955 H947 0.930 . S
C955 C956 1.355 . S
C955 C957 1.415 . S
C956 C955 1.355 . S
C956 C958 1.419 . S
C957 C952 1.425 . S
C957 C954 1.409 . S
C957 C955 1.415 . S
C958 H948 0.930 . S
C958 C956 1.419 . S
C958 C959 1.362 . S
C959 H949 0.930 . S
C959 C952 1.409 . S
C959 C958 1.362 . S
H960 C966 0.930 . S
H961 C969 0.896 1_565 S
H962 C970 0.930 . S
H963 C971 0.930 . S
H964 C974 0.930 . S
H965 C975 0.930 . S
C966 H960 0.930 . S
C966 C967 1.355 . S
C966 C968 1.415 . S
C967 C966 1.355 . S
C967 C969 1.426 . S
C968 C966 1.415 . S
C968 C973 1.425 . S
C968 C975 1.409 . S
C969 H961 0.896 1_545 S
C969 C967 1.426 . S
C969 C970 1.389 . S
C970 H962 0.930 . S
C970 C969 1.389 . S
C970 C973 1.409 . S
C971 H963 0.930 . S
C971 C972 1.355 . S
C971 C973 1.415 . S
C972 C971 1.355 . S
C972 C974 1.419 . S
C973 C968 1.425 . S
C973 C970 1.409 . S
C973 C971 1.415 . S
C974 H964 0.930 . S
C974 C972 1.419 . S
C974 C975 1.362 . S
C975 H965 0.930 . S
C975 C968 1.409 . S
C975 C974 1.362 . S
H976 C982 0.930 . S
H977 C985 0.930 . S
H978 C986 0.930 . S
H979 C987 0.930 . S
H980 C990 0.903 1_655 S
H981 C991 0.930 . S
C982 H976 0.930 . S
C982 C983 1.355 . S
C982 C984 1.415 . S
C983 C982 1.355 . S
C983 C985 1.419 . S
C984 C982 1.415 . S
C984 C989 1.425 . S
C984 C991 1.409 . S
C985 H977 0.930 . S
C985 C983 1.419 . S
C985 C986 1.362 . S
C986 H978 0.930 . S
C986 C985 1.362 . S
C986 C989 1.409 . S
C987 H979 0.930 . S
C987 C988 1.355 . S
C987 C989 1.415 . S
C988 C987 1.355 . S
C988 C990 1.425 . S
C989 C984 1.425 . S
C989 C986 1.409 . S
C989 C987 1.415 . S
C990 H980 0.903 1_455 S
C990 C988 1.425 . S
C990 C991 1.383 . S
C991 H981 0.930 . S
C991 C984 1.409 . S
C991 C990 1.383 . S
H992 C998 0.930 . S
H993 C1001 0.930 . S
H994 C1002 0.930 . S
H995 C1003 0.930 . S
H996 C1006 0.930 . S
H997 C1007 0.930 . S
C998 H992 0.930 . S
C998 C999 1.355 1_554 S
C998 C1000 1.415 . S
C999 C998 1.355 1_556 S
C999 C1001 1.419 . S
C1000 C998 1.415 . S
C1000 C1005 1.425 . S
C1000 C1007 1.409 . S
C1001 H993 0.930 . S
C1001 C999 1.419 . S
C1001 C1002 1.362 1_556 S
C1002 H994 0.930 . S
C1002 C1001 1.362 1_554 S
C1002 C1005 1.409 . S
C1003 H995 0.930 . S
C1003 C1004 1.355 . S
C1003 C1005 1.415 . S
C1004 C1003 1.355 . S
C1004 C1006 1.419 . S
C1005 C1000 1.425 . S
C1005 C1002 1.409 . S
C1005 C1003 1.415 . S
C1006 H996 0.930 . S
C1006 C1004 1.419 . S
C1006 C1007 1.362 . S
C1007 H997 0.930 . S
C1007 C1000 1.409 . S
C1007 C1006 1.362 . S
H1008 C1014 0.930 1_554 S
H1009 C1017 0.930 . S
H1010 C1018 0.930 . S
H1011 C1019 0.930 . S
H1012 C1022 0.930 . S
H1013 C1023 0.930 . S
C1014 H1008 0.930 1_556 S
C1014 C1015 1.355 1_556 S
C1014 C1016 1.415 . S
C1015 C1014 1.355 1_554 S
C1015 C1017 1.419 . S
C1016 C1014 1.415 . S
C1016 C1021 1.425 . S
C1016 C1023 1.409 . S
C1017 H1009 0.930 . S
C1017 C1015 1.419 . S
C1017 C1018 1.362 1_554 S
C1018 H1010 0.930 . S
C1018 C1017 1.362 1_556 S
C1018 C1021 1.409 . S
C1019 H1011 0.930 . S
C1019 C1020 1.355 . S
C1019 C1021 1.415 . S
C1020 C1019 1.355 . S
C1020 C1022 1.419 . S
C1021 C1016 1.425 . S
C1021 C1018 1.409 . S
C1021 C1019 1.415 . S
C1022 H1012 0.930 . S
C1022 C1020 1.419 . S
C1022 C1023 1.362 . S
C1023 H1013 0.930 . S
C1023 C1016 1.409 . S
C1023 C1022 1.362 . S
H1024 C1030 0.930 1_556 S
H1025 C1033 0.930 . S
H1026 C1034 0.930 . S
H1027 C1035 0.930 . S
H1028 C1038 0.930 . S
H1029 C1039 0.930 . S
C1030 H1024 0.930 1_554 S
C1030 C1031 1.355 . S
C1030 C1032 1.415 . S
C1031 C1030 1.355 . S
C1031 C1033 1.419 . S
C1032 C1030 1.415 . S
C1032 C1037 1.425 . S
C1032 C1039 1.409 1_554 S
C1033 H1025 0.930 . S
C1033 C1031 1.419 . S
C1033 C1034 1.362 . S
C1034 H1026 0.930 . S
C1034 C1033 1.362 . S
C1034 C1037 1.409 . S
C1035 H1027 0.930 . S
C1035 C1036 1.355 1_554 S
C1035 C1037 1.415 . S
C1036 C1035 1.355 1_556 S
C1036 C1038 1.419 . S
C1037 C1032 1.425 . S
C1037 C1034 1.409 . S
C1037 C1035 1.415 . S
C1038 H1028 0.930 . S
C1038 C1036 1.419 . S
C1038 C1039 1.362 . S
C1039 H1029 0.930 . S
C1039 C1032 1.409 1_556 S
C1039 C1038 1.362 . S
H1040 C1046 0.930 . S
H1041 C1049 0.930 . S
H1042 C1050 0.930 . S
H1043 C1051 0.930 . S
H1044 C1054 0.930 . S
H1045 C1055 0.922 1_554 S
C1046 H1040 0.930 . S
C1046 C1047 1.355 . S
C1046 C1048 1.415 1_554 S
C1047 C1046 1.355 . S
C1047 C1049 1.419 1_554 S
C1048 C1046 1.415 1_556 S
C1048 C1053 1.425 . S
C1048 C1055 1.411 . S
C1049 H1041 0.930 . S
C1049 C1047 1.419 1_556 S
C1049 C1050 1.362 . S
C1050 H1042 0.930 . S
C1050 C1049 1.362 . S
C1050 C1053 1.409 . S
C1051 H1043 0.930 . S
C1051 C1052 1.355 . S
C1051 C1053 1.415 . S
C1052 C1051 1.355 . S
C1052 C1054 1.419 . S
C1053 C1048 1.425 . S
C1053 C1050 1.409 . S
C1053 C1051 1.415 . S
C1054 H1044 0.930 . S
C1054 C1052 1.419 . S
C1054 C1055 1.368 . S
C1055 H1045 0.922 1_556 S
C1055 C1048 1.411 . S
C1055 C1054 1.368 . S
H1056 C1062 0.930 . S
H1057 C1065 0.930 . S
H1058 C1066 0.930 . S
H1059 C1067 0.930 . S
H1060 C1070 0.930 . S
H1061 C1071 0.930 . S
C1062 H1056 0.930 . S
C1062 C1063 1.355 . S
C1062 C1064 1.415 . S
C1063 C1062 1.355 . S
C1063 C1065 1.419 . S
C1064 C1062 1.415 . S
C1064 C1069 1.425 . S
C1064 C1071 1.409 . S
C1065 H1057 0.930 . S
C1065 C1063 1.419 . S
C1065 C1066 1.362 . S
C1066 H1058 0.930 . S
C1066 C1065 1.362 . S
C1066 C1069 1.409 . S
C1067 H1059 0.930 . S
C1067 C1068 1.355 . S
C1067 C1069 1.415 . S
C1068 C1067 1.355 . S
C1068 C1070 1.419 . S
C1069 C1064 1.425 . S
C1069 C1066 1.409 . S
C1069 C1067 1.415 . S
C1070 H1060 0.930 . S
C1070 C1068 1.419 . S
C1070 C1071 1.362 . S
C1071 H1061 0.930 . S
C1071 C1064 1.409 . S
C1071 C1070 1.362 . S
H1072 C1078 0.930 . S
H1073 C1081 0.930 . S
H1074 C1082 0.930 . S
H1075 C1083 0.930 . S
H1076 C1086 0.930 . S
H1077 C1087 0.930 . S
C1078 H1072 0.930 . S
C1078 C1079 1.355 . S
C1078 C1080 1.415 . S
C1079 C1078 1.355 . S
C1079 C1081 1.419 . S
C1080 C1078 1.415 . S
C1080 C1085 1.425 . S
C1080 C1087 1.409 . S
C1081 H1073 0.930 . S
C1081 C1079 1.419 . S
C1081 C1082 1.362 . S
C1082 H1074 0.930 . S
C1082 C1081 1.362 . S
C1082 C1085 1.409 . S
C1083 H1075 0.930 . S
C1083 C1084 1.355 . S
C1083 C1085 1.415 . S
C1084 C1083 1.355 . S
C1084 C1086 1.419 . S
C1085 C1080 1.425 . S
C1085 C1082 1.409 . S
C1085 C1083 1.415 . S
C1086 H1076 0.930 . S
C1086 C1084 1.419 . S
C1086 C1087 1.362 . S
C1087 H1077 0.930 . S
C1087 C1080 1.409 . S
C1087 C1086 1.362 . S
H1088 C1094 0.930 . S
H1089 C1097 0.930 . S
H1090 C1098 0.930 . S
H1091 C1099 0.930 . S
H1092 C1102 0.930 . S
H1093 C1103 0.930 . S
C1094 H1088 0.930 . S
C1094 C1095 1.355 . S
C1094 C1096 1.415 . S
C1095 C1094 1.355 . S
C1095 C1097 1.419 . S
C1096 C1094 1.415 . S
C1096 C1101 1.425 . S
C1096 C1103 1.409 . S
C1097 H1089 0.930 . S
C1097 C1095 1.419 . S
C1097 C1098 1.362 . S
C1098 H1090 0.930 . S
C1098 C1097 1.362 . S
C1098 C1101 1.409 . S
C1099 H1091 0.930 . S
C1099 C1100 1.355 . S
C1099 C1101 1.415 . S
C1100 C1099 1.355 . S
C1100 C1102 1.419 . S
C1101 C1096 1.425 . S
C1101 C1098 1.409 . S
C1101 C1099 1.415 . S
C1102 H1092 0.930 . S
C1102 C1100 1.419 . S
C1102 C1103 1.362 . S
C1103 H1093 0.930 . S
C1103 C1096 1.409 . S
C1103 C1102 1.362 . S
H1104 C1110 0.930 . S
H1105 C1113 0.930 . S
H1106 C1114 0.930 . S
H1107 C1115 0.930 . S
H1108 C1118 0.930 . S
H1109 C1119 0.930 . S
C1110 H1104 0.930 . S
C1110 C1111 1.355 . S
C1110 C1112 1.415 . S
C1111 C1110 1.355 . S
C1111 C1113 1.419 . S
C1112 C1110 1.415 . S
C1112 C1117 1.425 . S
C1112 C1119 1.409 . S
C1113 H1105 0.930 . S
C1113 C1111 1.419 . S
C1113 C1114 1.362 . S
C1114 H1106 0.930 . S
C1114 C1113 1.362 . S
C1114 C1117 1.409 . S
C1115 H1107 0.930 . S
C1115 C1116 1.355 . S
C1115 C1117 1.415 . S
C1116 C1115 1.355 . S
C1116 C1118 1.419 . S
C1117 C1112 1.425 . S
C1117 C1114 1.409 . S
C1117 C1115 1.415 . S
C1118 H1108 0.930 . S
C1118 C1116 1.419 . S
C1118 C1119 1.362 . S
C1119 H1109 0.930 . S
C1119 C1112 1.409 . S
C1119 C1118 1.362 . S
H1120 C1126 0.930 . S
H1121 C1129 0.930 . S
H1122 C1130 0.930 . S
H1123 C1131 0.944 . S
H1124 C1134 0.930 . S
H1125 C1135 0.930 . S
C1126 H1120 0.930 . S
C1126 C1127 1.355 . S
C1126 C1128 1.415 . S
C1127 C1126 1.355 . S
C1127 C1129 1.419 . S
C1128 C1126 1.415 . S
C1128 C1133 1.425 . S
C1128 C1135 1.409 . S
C1129 H1121 0.930 . S
C1129 C1127 1.419 . S
C1129 C1130 1.362 . S
C1130 H1122 0.930 . S
C1130 C1129 1.362 . S
C1130 C1133 1.409 . S
C1131 H1123 0.944 . S
C1131 C1132 1.355 . S
C1131 C1133 1.415 . S
C1132 C1131 1.355 . S
C1132 C1134 1.419 . S
C1133 C1128 1.425 . S
C1133 C1130 1.409 . S
C1133 C1131 1.415 . S
C1134 H1124 0.930 . S
C1134 C1132 1.419 . S
C1134 C1135 1.362 . S
C1135 H1125 0.930 . S
C1135 C1128 1.409 . S
C1135 C1134 1.362 . S
H1136 C1142 0.930 . S
H1137 C1145 0.930 . S
H1138 C1146 0.930 . S
H1139 C1147 0.930 . S
H1140 C1150 0.930 . S
H1141 C1151 0.930 . S
C1142 H1136 0.930 . S
C1142 C1143 1.355 . S
C1142 C1144 1.415 . S
C1143 C1142 1.355 . S
C1143 C1145 1.419 . S
C1144 C1142 1.415 . S
C1144 C1149 1.425 . S
C1144 C1151 1.409 . S
C1145 H1137 0.930 . S
C1145 C1143 1.419 . S
C1145 C1146 1.362 . S
C1146 H1138 0.930 . S
C1146 C1145 1.362 . S
C1146 C1149 1.409 . S
C1147 H1139 0.930 . S
C1147 C1148 1.355 . S
C1147 C1149 1.415 . S
C1148 C1147 1.355 . S
C1148 C1150 1.419 . S
C1149 C1144 1.425 . S
C1149 C1146 1.409 . S
C1149 C1147 1.415 . S
C1150 H1140 0.930 . S
C1150 C1148 1.419 . S
C1150 C1151 1.362 . S
C1151 H1141 0.930 . S
C1151 C1144 1.409 . S
C1151 C1150 1.362 . S
H1152 C1158 0.930 . S
H1153 C1161 0.930 . S
H1154 C1162 0.930 . S
H1155 C1163 0.900 1_545 S
H1156 C1166 0.930 . S
H1157 C1167 0.930 . S
C1158 H1152 0.930 . S
C1158 C1159 1.355 . S
C1158 C1160 1.415 . S
C1159 C1158 1.355 . S
C1159 C1161 1.419 . S
C1160 C1158 1.415 . S
C1160 C1165 1.425 . S
C1160 C1167 1.409 . S
C1161 H1153 0.930 . S
C1161 C1159 1.419 . S
C1161 C1162 1.362 . S
C1162 H1154 0.930 . S
C1162 C1161 1.362 . S
C1162 C1165 1.409 . S
C1163 H1155 0.900 1_565 S
C1163 C1164 1.355 . S
C1163 C1165 1.415 . S
C1164 C1163 1.355 . S
C1164 C1166 1.419 . S
C1165 C1160 1.425 . S
C1165 C1162 1.409 . S
C1165 C1163 1.415 . S
C1166 H1156 0.930 . S
C1166 C1164 1.419 . S
C1166 C1167 1.362 . S
C1167 H1157 0.930 . S
C1167 C1160 1.409 . S
C1167 C1166 1.362 . S
H1168 C1174 0.930 . S
H1169 C1177 0.930 1_455 S
H1170 C1178 0.930 . S
H1171 C1179 0.930 . S
H1172 C1182 0.930 . S
H1173 C1183 0.930 . S
C1174 H1168 0.930 . S
C1174 C1175 1.355 . S
C1174 C1176 1.415 . S
C1175 C1174 1.355 . S
C1175 C1177 1.419 . S
C1176 C1174 1.415 . S
C1176 C1181 1.425 . S
C1176 C1183 1.409 . S
C1177 H1169 0.930 1_655 S
C1177 C1175 1.419 . S
C1177 C1178 1.362 . S
C1178 H1170 0.930 . S
C1178 C1177 1.362 . S
C1178 C1181 1.409 . S
C1179 H1171 0.930 . S
C1179 C1180 1.355 . S
C1179 C1181 1.415 . S
C1180 C1179 1.355 . S
C1180 C1182 1.419 . S
C1181 C1176 1.425 . S
C1181 C1178 1.409 . S
C1181 C1179 1.415 . S
C1182 H1172 0.930 . S
C1182 C1180 1.419 . S
C1182 C1183 1.362 . S
C1183 H1173 0.930 . S
C1183 C1176 1.409 . S
C1183 C1182 1.362 . S
C551 C33 1.007 . S
C556 C509 1.026 . S
C567 C543 0.969 . S
C572 C67 0.998 . S
C583 C441 1.009 . S
C588 C101 1.026 . S
C599 C135 0.964 . S
C604 C475 0.988 . S
C615 C169 0.963 . S
C620 C373 0.985 . S
C631 C407 1.013 . S
C636 C203 1.026 . S
C647 C237 1.024 . S
C652 C305 1.019 . S
C663 C339 0.967 . S
C668 C271 0.994 . S
C679 C145 1.224 . S
C684 C9 1.237 . S
C695 C43 1.096 . S
C700 C179 1.095 . S
C711 C77 1.226 . S
C716 C213 1.239 . S
C727 C111 1.115 . S
C732 C247 1.135 . S
C743 C417 1.094 . S
C748 C281 1.096 . S
C759 C451 1.244 . S
C764 C315 1.238 . S
C775 C349 1.178 . S
C780 C485 1.153 . S
C791 C383 1.242 . S
C796 C519 1.243 . S
C807 C2 1.932 1_556 S
C812 C478 1.923 . S
C823 C512 1.921 . S
C828 C36 1.916 1_554 S
C839 C70 1.939 1_556 S
C844 C410 1.934 . S
C855 C444 1.928 . S
C860 C104 1.936 1_554 S
C871 C342 1.917 . S
C876 C138 1.925 . S
C887 C376 1.927 . S
C892 C172 1.935 . S
C903 C206 1.940 . S
C908 C274 1.938 . S
C919 C240 1.923 . S
C924 C308 1.916 . S
C935 C5 1.638 1_565 S
C940 C394 1.664 . S
C951 C292 1.688 . S
C956 C39 1.678 1_655 S
C967 C73 1.641 1_545 S
C972 C326 1.668 . S
C983 C360 1.670 . S
C988 C107 1.643 1_455 S
C999 C190 1.688 . S
C1004 C141 1.678 . S
C1015 C224 1.688 . S
C1020 C175 1.680 . S
C1031 C209 1.666 . S
C1036 C258 1.677 . S
C1047 C156 1.669 . S
C1052 C243 1.642 . S
C1063 C122 1.680 . S
C1068 C277 1.661 . S
C1079 C311 1.642 . S
C1084 C20 1.669 . S
C1095 C345 1.667 . S
C1100 C54 1.684 . S
C1111 C88 1.681 . S
C1116 C379 1.661 . S
C1127 C462 1.688 . S
C1132 C413 1.679 1_545 S
C1143 C496 1.669 . S
C1148 C447 1.651 1_455 S
C1159 C530 1.688 . S
C1164 C481 1.680 1_565 S
C1175 C515 1.649 1_655 S
C1180 C428 1.668 . S
