# Generated by pormake.
# Topology uku, (4)-cn, num edge types: 1
# Building blocks:
#     Node 0, Type 0, BuildingBlock: ESEHIV_clean_sbu_0, # of connection points: 4
#     Node 1, Type 0, BuildingBlock: ESEHIV_clean_sbu_0, # of connection points: 4
#     Node 2, Type 0, BuildingBlock: ESEHIV_clean_sbu_0, # of connection points: 4
#     Node 3, Type 0, BuildingBlock: ESEHIV_clean_sbu_0, # of connection points: 4
#     Node 4, Type 0, BuildingBlock: ESEHIV_clean_sbu_0, # of connection points: 4
#     Node 5, Type 0, BuildingBlock: ESEHIV_clean_sbu_0, # of connection points: 4
#     Node 6, Type 0, BuildingBlock: ESEHIV_clean_sbu_0, # of connection points: 4
#     Node 7, Type 0, BuildingBlock: ESEHIV_clean_sbu_0, # of connection points: 4
#     Node 8, Type 0, BuildingBlock: ESEHIV_clean_sbu_0, # of connection points: 4
#     Node 9, Type 0, BuildingBlock: ESEHIV_clean_sbu_0, # of connection points: 4
#     Node 10, Type 0, BuildingBlock: ESEHIV_clean_sbu_0, # of connection points: 4
#     Node 11, Type 0, BuildingBlock: ESEHIV_clean_sbu_0, # of connection points: 4
#     Edge 12, Type (0, 0), BuildingBlock: AJUNOK_clean_linker_0, # of connection points: 2
#     Edge 13, Type (0, 0), BuildingBlock: AJUNOK_clean_linker_0, # of connection points: 2
#     Edge 14, Type (0, 0), BuildingBlock: AJUNOK_clean_linker_0, # of connection points: 2
#     Edge 15, Type (0, 0), BuildingBlock: AJUNOK_clean_linker_0, # of connection points: 2
#     Edge 16, Type (0, 0), BuildingBlock: AJUNOK_clean_linker_0, # of connection points: 2
#     Edge 17, Type (0, 0), BuildingBlock: AJUNOK_clean_linker_0, # of connection points: 2
#     Edge 18, Type (0, 0), BuildingBlock: AJUNOK_clean_linker_0, # of connection points: 2
#     Edge 19, Type (0, 0), BuildingBlock: AJUNOK_clean_linker_0, # of connection points: 2
#     Edge 20, Type (0, 0), BuildingBlock: AJUNOK_clean_linker_0, # of connection points: 2
#     Edge 21, Type (0, 0), BuildingBlock: AJUNOK_clean_linker_0, # of connection points: 2
#     Edge 22, Type (0, 0), BuildingBlock: AJUNOK_clean_linker_0, # of connection points: 2
#     Edge 23, Type (0, 0), BuildingBlock: AJUNOK_clean_linker_0, # of connection points: 2
#     Edge 24, Type (0, 0), BuildingBlock: AJUNOK_clean_linker_0, # of connection points: 2
#     Edge 25, Type (0, 0), BuildingBlock: AJUNOK_clean_linker_0, # of connection points: 2
#     Edge 26, Type (0, 0), BuildingBlock: AJUNOK_clean_linker_0, # of connection points: 2
#     Edge 27, Type (0, 0), BuildingBlock: AJUNOK_clean_linker_0, # of connection points: 2
#     Edge 28, Type (0, 0), BuildingBlock: AJUNOK_clean_linker_0, # of connection points: 2
#     Edge 29, Type (0, 0), BuildingBlock: AJUNOK_clean_linker_0, # of connection points: 2
#     Edge 30, Type (0, 0), BuildingBlock: AJUNOK_clean_linker_0, # of connection points: 2
#     Edge 31, Type (0, 0), BuildingBlock: AJUNOK_clean_linker_0, # of connection points: 2
#     Edge 32, Type (0, 0), BuildingBlock: AJUNOK_clean_linker_0, # of connection points: 2
#     Edge 33, Type (0, 0), BuildingBlock: AJUNOK_clean_linker_0, # of connection points: 2
#     Edge 34, Type (0, 0), BuildingBlock: AJUNOK_clean_linker_0, # of connection points: 2
#     Edge 35, Type (0, 0), BuildingBlock: AJUNOK_clean_linker_0, # of connection points: 2
# Relax obj value: 0.125
# Max RMSD: 0.262
# Mean RMSD: 0.262
data_MOF--net-uku--node1-ESEHIV_clean_sbu_0--edge1-AJUNOK_clean_linker_0
_symmetry_space_group_name_H-M    P1
_symmetry_Int_Tables_number       1
_symmetry_cell_setting            triclinic
loop_
_symmetry_equiv_pos_as_xyz
'x, y, z'
_cell_length_a     36.027364
_cell_length_b     36.140551
_cell_length_c     36.03266
_cell_angle_alpha  89.92633
_cell_angle_beta   89.98587
_cell_angle_gamma 89.925532
loop_
_atom_site_label
_atom_site_type_symbol
_atom_site_fract_x
_atom_site_fract_y
_atom_site_fract_z
_atom_type_partial_charge
Cu0 Cu 0.10659 0.1224 0.66948 0.0
N1 N 0.15592 0.11039 0.67853 0.0
N2 N 0.2055 0.09617 0.71294 0.0
C3 C 0.1693 0.10559 0.713 0.0
C4 C 0.2155 0.09555 0.67681 0.0
C5 C 0.18466 0.1041 0.65553 0.0
O6 O 0.09497 0.15942 0.70673 0.0
C7 C 0.04432 0.07528 0.68238 0.0
O8 O 0.02457 0.10585 0.68326 0.0
H9 H 0.15275 0.10981 0.7377 0.0
H10 H 0.18328 0.10565 0.62558 0.0
N11 N 0.09897 0.14001 0.62123 0.0
N12 N 0.07081 0.15239 0.56739 0.0
C13 C 0.07003 0.13214 0.59886 0.0
C14 C 0.11892 0.16575 0.60305 0.0
C15 C 0.10152 0.17356 0.56982 0.0
C16 C 0.0832 0.19209 0.70079 0.0
O17 O 0.07231 0.20154 0.66731 0.0
H18 H 0.04799 0.11315 0.60617 0.0
H19 H 0.14369 0.17878 0.61381 0.0
O20 O 0.07905 0.07726 0.6769 0.0
H21 H 0.24301 0.08921 0.66654 0.0
H22 H 0.11038 0.19361 0.54931 0.0
Cu23 Cu 0.9102 0.88589 0.66157 0.0
N24 N 0.86002 0.89574 0.66915 0.0
N25 N 0.808 0.90686 0.7011 0.0
C26 C 0.84496 0.90102 0.70288 0.0
C27 C 0.79962 0.90577 0.66458 0.0
C28 C 0.83181 0.89881 0.64489 0.0
O29 O 0.92341 0.8466 0.69596 0.0
C30 C 0.97093 0.93171 0.68072 0.0
O31 O 0.98913 0.9003 0.68353 0.0
H32 H 0.86117 0.9011 0.72815 0.0
H33 H 0.83439 0.8961 0.61512 0.0
N34 N 0.92105 0.87182 0.61272 0.0
N35 N 0.95315 0.86405 0.56005 0.0
C36 C 0.95268 0.87943 0.59423 0.0
C37 C 0.90063 0.85117 0.58936 0.0
C38 C 0.92028 0.84647 0.55682 0.0
C39 C 0.9062 0.81594 0.69376 0.0
O40 O 0.88194 0.81139 0.66695 0.0
H41 H 0.97472 0.89623 0.6056 0.0
H42 H 0.87358 0.83989 0.5957 0.0
O43 O 0.93671 0.93102 0.67234 0.0
H44 H 0.77211 0.90917 0.65297 0.0
H45 H 0.91141 0.83064 0.53293 0.0
Cu46 Cu 0.10818 0.89169 0.34688 0.0
N47 N 0.15836 0.90282 0.34199 0.0
N48 N 0.21233 0.9142 0.31374 0.0
C49 C 0.17616 0.90572 0.3093 0.0
C50 C 0.21757 0.91635 0.35077 0.0
C51 C 0.18407 0.9096 0.36818 0.0
O52 O 0.09843 0.85421 0.30941 0.0
C53 C 0.0472 0.93993 0.33144 0.0
O54 O 0.02696 0.90972 0.33074 0.0
H55 H 0.16294 0.90068 0.28282 0.0
H56 H 0.17889 0.90941 0.39774 0.0
N57 N 0.09738 0.87494 0.3949 0.0
N58 N 0.06794 0.86554 0.44881 0.0
C59 C 0.06714 0.88283 0.41552 0.0
C60 C 0.1179 0.85176 0.41573 0.0
C61 C 0.09979 0.84579 0.44891 0.0
C62 C 0.08744 0.82136 0.31579 0.0
O63 O 0.07688 0.81221 0.34946 0.0
H64 H 0.045 0.90089 0.40635 0.0
H65 H 0.1439 0.83952 0.40704 0.0
O66 O 0.08182 0.93734 0.3374 0.0
H67 H 0.24374 0.92232 0.36424 0.0
H68 H 0.10884 0.82739 0.47083 0.0
Cu69 Cu 0.91411 0.13018 0.35505 0.0
N70 N 0.86398 0.11882 0.34938 0.0
N71 N 0.81033 0.10668 0.32086 0.0
C72 C 0.84644 0.11559 0.31657 0.0
C73 C 0.80488 0.10457 0.35786 0.0
C74 C 0.83816 0.11177 0.37542 0.0
O75 O 0.92524 0.17072 0.32116 0.0
C76 C 0.97562 0.08464 0.33514 0.0
O77 O 0.99419 0.11583 0.33324 0.0
H78 H 0.85979 0.1206 0.29013 0.0
H79 H 0.84315 0.11194 0.40501 0.0
N80 N 0.92519 0.14427 0.40389 0.0
N81 N 0.95686 0.15411 0.45629 0.0
C82 C 0.9568 0.1374 0.4228 0.0
C83 C 0.90449 0.16559 0.42651 0.0
C84 C 0.92401 0.17181 0.45879 0.0
C85 C 0.90681 0.2006 0.32488 0.0
O86 O 0.8818 0.20254 0.3513 0.0
H87 H 0.97975 0.12144 0.41186 0.0
H88 H 0.87727 0.17631 0.41982 0.0
O89 O 0.94133 0.08557 0.34328 0.0
H90 H 0.77872 0.09822 0.37121 0.0
H91 H 0.91484 0.18808 0.48229 0.0
Cu92 Cu 0.67267 0.10017 0.13169 0.0
N93 N 0.68257 0.1494 0.12023 0.0
N94 N 0.71679 0.19941 0.10771 0.0
C95 C 0.71671 0.16438 0.12067 0.0
C96 C 0.68113 0.20672 0.09865 0.0
C97 C 0.66005 0.17572 0.10638 0.0
O98 O 0.70482 0.08714 0.17304 0.0
C99 C 0.69045 0.03786 0.08643 0.0
O100 O 0.69076 0.01905 0.11765 0.0
H101 H 0.74117 0.14951 0.1298 0.0
H102 H 0.63072 0.17216 0.10108 0.0
N103 N 0.62271 0.09263 0.14392 0.0
N104 N 0.56723 0.06523 0.14979 0.0
C105 C 0.60209 0.06253 0.13605 0.0
C106 C 0.60024 0.11518 0.16332 0.0
C107 C 0.56617 0.0983 0.16723 0.0
C108 C 0.70169 0.10564 0.20294 0.0
O109 O 0.67541 0.13075 0.20522 0.0
H110 H 0.61248 0.03907 0.12056 0.0
H111 H 0.60824 0.1418 0.17437 0.0
O112 O 0.684 0.07239 0.08735 0.0
H113 H 0.67119 0.23197 0.08589 0.0
H114 H 0.54296 0.10914 0.18286 0.0
Cu115 Cu 0.35024 0.91488 0.12468 0.0
N116 N 0.33947 0.86568 0.11399 0.0
N117 N 0.30374 0.81702 0.10051 0.0
C118 C 0.30464 0.85261 0.11169 0.0
C119 C 0.33964 0.80708 0.09625 0.0
C120 C 0.36169 0.83734 0.10431 0.0
O121 O 0.31779 0.92903 0.16535 0.0
C122 C 0.33311 0.97678 0.07857 0.0
O123 O 0.33094 0.99542 0.10977 0.0
H124 H 0.28042 0.8691 0.11826 0.0
H125 H 0.39162 0.83879 0.10254 0.0
N126 N 0.39993 0.92277 0.13766 0.0
N127 N 0.4535 0.95303 0.14633 0.0
C128 C 0.41915 0.95409 0.13121 0.0
C129 C 0.42302 0.90076 0.15703 0.0
C130 C 0.45607 0.9193 0.16235 0.0
C131 C 0.32105 0.91157 0.19589 0.0
O132 O 0.34752 0.88673 0.19904 0.0
H133 H 0.40802 0.97702 0.11547 0.0
H134 H 0.41607 0.87346 0.16719 0.0
O135 O 0.34012 0.94236 0.07976 0.0
H136 H 0.34919 0.78018 0.08713 0.0
H137 H 0.47979 0.90908 0.1777 0.0
Cu138 Cu 0.67279 0.90915 0.89194 0.0
N139 N 0.67702 0.85866 0.90125 0.0
N140 N 0.70536 0.80442 0.91048 0.0
C141 C 0.70974 0.84085 0.90371 0.0
C142 C 0.66831 0.79902 0.91197 0.0
C143 C 0.65084 0.83268 0.90655 0.0
O144 O 0.70962 0.91926 0.85379 0.0
C145 C 0.69232 0.96771 0.94099 0.0
O146 O 0.69419 0.98812 0.91084 0.0
H147 H 0.73622 0.85432 0.89952 0.0
H148 H 0.62125 0.83778 0.90621 0.0
N149 N 0.62472 0.92244 0.87709 0.0
N150 N 0.57287 0.95587 0.86939 0.0
C151 C 0.60665 0.95399 0.88567 0.0
C152 C 0.60149 0.90348 0.85495 0.0
C153 C 0.56948 0.92396 0.85024 0.0
C154 C 0.70247 0.9285 0.82045 0.0
O155 O 0.66833 0.93723 0.81117 0.0
H156 H 0.61797 0.97489 0.90385 0.0
H157 H 0.60767 0.87689 0.84265 0.0
O158 O 0.68421 0.93367 0.93813 0.0
H159 H 0.65486 0.77264 0.91657 0.0
H160 H 0.54586 0.91632 0.83336 0.0
Cu161 Cu 0.3587 0.11017 0.88735 0.0
N162 N 0.34965 0.16009 0.89705 0.0
N163 N 0.31788 0.21236 0.90679 0.0
C164 C 0.31589 0.17612 0.89804 0.0
C165 C 0.35438 0.21947 0.91117 0.0
C166 C 0.37392 0.18707 0.90545 0.0
O167 O 0.32957 0.09707 0.84405 0.0
C168 C 0.34015 0.04869 0.9339 0.0
O169 O 0.34364 0.02848 0.90381 0.0
H170 H 0.29044 0.1616 0.89172 0.0
H171 H 0.40365 0.18343 0.90736 0.0
N172 N 0.40885 0.10138 0.87693 0.0
N173 N 0.46351 0.07228 0.8713 0.0
C174 C 0.42889 0.07107 0.88578 0.0
C175 C 0.43141 0.12236 0.85593 0.0
C176 C 0.46509 0.10453 0.85239 0.0
C177 C 0.29524 0.08918 0.84563 0.0
O178 O 0.27898 0.0872 0.8782 0.0
H179 H 0.4181 0.04823 0.90193 0.0
H180 H 0.42345 0.14822 0.84302 0.0
O181 O 0.34482 0.08344 0.93176 0.0
H182 H 0.36606 0.24614 0.91823 0.0
H183 H 0.48823 0.11382 0.83566 0.0
Cu184 Cu 0.12971 0.66321 0.10743 0.0
N185 N 0.11935 0.67116 0.1575 0.0
N186 N 0.10787 0.70287 0.2095 0.0
C187 C 0.11258 0.70461 0.17239 0.0
C188 C 0.11114 0.66665 0.2182 0.0
C189 C 0.11835 0.64713 0.18603 0.0
O190 O 0.17297 0.69299 0.09575 0.0
C191 C 0.0845 0.68183 0.04499 0.0
O192 O 0.11501 0.67777 0.02541 0.0
H193 H 0.1109 0.72971 0.15613 0.0
H194 H 0.12302 0.61766 0.18372 0.0
N195 N 0.1407 0.61361 0.09735 0.0
N196 N 0.14634 0.56058 0.06573 0.0
C197 C 0.12969 0.59409 0.06747 0.0
C198 C 0.16484 0.59161 0.1154 0.0
C199 C 0.16819 0.5588 0.09612 0.0
C200 C 0.17108 0.7276 0.0897 0.0
O201 O 0.13831 0.74351 0.08821 0.0
H202 H 0.11022 0.60454 0.04718 0.0
H203 H 0.18002 0.59945 0.14006 0.0
O204 O 0.08582 0.67757 0.07996 0.0
H205 H 0.10938 0.65523 0.24593 0.0
H206 H 0.18655 0.53608 0.10302 0.0
Cu207 Cu 0.12542 0.34705 0.91134 0.0
N208 N 0.11398 0.33979 0.86145 0.0
N209 N 0.10228 0.30884 0.80908 0.0
C210 C 0.10984 0.30634 0.84569 0.0
C211 C 0.10104 0.34548 0.80172 0.0
C212 C 0.10831 0.36453 0.83411 0.0
O213 O 0.16641 0.31379 0.92291 0.0
C214 C 0.08057 0.32752 0.97344 0.0
O215 O 0.11219 0.32522 0.99144 0.0
H216 H 0.11181 0.28074 0.86116 0.0
H217 H 0.10945 0.39423 0.83743 0.0
N218 N 0.13869 0.39621 0.9211 0.0
N219 N 0.14495 0.4504 0.95052 0.0
C220 C 0.13101 0.41571 0.95208 0.0
C221 C 0.15837 0.41925 0.89934 0.0
C222 C 0.1624 0.45258 0.91743 0.0
C223 C 0.19619 0.317 0.90412 0.0
O224 O 0.19845 0.34362 0.87938 0.0
H225 H 0.11546 0.40471 0.97529 0.0
H226 H 0.16946 0.41219 0.87238 0.0
O227 O 0.08096 0.3356 0.93913 0.0
H228 H 0.09582 0.35763 0.77474 0.0
H229 H 0.17797 0.47614 0.9074 0.0
Cu230 Cu 0.89468 0.66595 0.91003 0.0
N231 N 0.90464 0.67233 0.85967 0.0
N232 N 0.91311 0.70105 0.80542 0.0
C233 C 0.90446 0.70497 0.84164 0.0
C234 C 0.91863 0.66445 0.80042 0.0
C235 C 0.91367 0.6468 0.83406 0.0
O236 O 0.85425 0.69937 0.92267 0.0
C237 C 0.94088 0.68568 0.9708 0.0
O238 O 0.90954 0.6883 0.98925 0.0
H239 H 0.89723 0.73093 0.85475 0.0
H240 H 0.91637 0.61747 0.83945 0.0
N241 N 0.88147 0.61696 0.92069 0.0
N242 N 0.87565 0.56303 0.95081 0.0
C243 C 0.88972 0.59769 0.9517 0.0
C244 C 0.86136 0.59381 0.89955 0.0
C245 C 0.85756 0.56065 0.91808 0.0
C246 C 0.82368 0.69624 0.90522 0.0
O247 O 0.82026 0.66955 0.88075 0.0
H248 H 0.90578 0.60883 0.97446 0.0
H249 H 0.84988 0.6007 0.87268 0.0
O250 O 0.9399 0.67736 0.93657 0.0
H251 H 0.92587 0.65145 0.77435 0.0
H252 H 0.8417 0.53709 0.90859 0.0
Cu253 Cu 0.8935 0.35227 0.11154 0.0
N254 N 0.90438 0.34637 0.16178 0.0
N255 N 0.91296 0.31861 0.21655 0.0
C256 C 0.90304 0.31427 0.18073 0.0
C257 C 0.92117 0.35486 0.22023 0.0
C258 C 0.9159 0.37192 0.18632 0.0
O259 O 0.84956 0.32312 0.10127 0.0
C260 C 0.93782 0.33145 0.04926 0.0
O261 O 0.90709 0.33504 0.02994 0.0
H262 H 0.89452 0.28825 0.16862 0.0
H263 H 0.92037 0.40083 0.17992 0.0
N264 N 0.88295 0.4017 0.10022 0.0
N265 N 0.87679 0.45419 0.06768 0.0
C266 C 0.8926 0.42025 0.06921 0.0
C267 C 0.86065 0.42476 0.11922 0.0
C268 C 0.85696 0.4572 0.09934 0.0
C269 C 0.85 0.28827 0.09668 0.0
O270 O 0.8821 0.271 0.0955 0.0
H271 H 0.91062 0.40888 0.04813 0.0
H272 H 0.84707 0.41794 0.14511 0.0
O273 O 0.93693 0.33668 0.08409 0.0
H274 H 0.93082 0.36799 0.24541 0.0
H275 H 0.8398 0.48062 0.1069 0.0
C276 C 1.00234 0.12065 0.49523 0.0
C277 C 0.98626 0.15411 0.48336 0.0
C278 C 0.02988 0.12021 0.52289 0.0
C279 C 0.04293 0.15328 0.53875 0.0
H280 H 0.99292 0.09469 0.48361 0.0
H281 H 0.04129 0.09393 0.5318 0.0
S282 S 0.01048 0.24807 0.51642 0.0
N283 N 0.98558 0.221 0.4892 0.0
N284 N 0.03785 0.22024 0.54046 0.0
C285 C 0.0275 0.18688 0.5266 0.0
C286 C 0.99901 0.18727 0.49909 0.0
C287 C 1.00184 0.86744 0.46745 0.0
C288 C 0.03964 0.86632 0.47726 0.0
C289 C 0.97386 0.8668 0.4946 0.0
C290 C 0.98251 0.86542 0.53269 0.0
H291 H 0.99379 0.86808 0.43851 0.0
H292 H 0.94517 0.86757 0.4857 0.0
S293 S 0.0773 0.86309 0.57307 0.0
N294 N 0.08425 0.86494 0.52782 0.0
N295 N 0.03182 0.86291 0.57871 0.0
C296 C 0.02023 0.86472 0.54289 0.0
C297 C 0.04872 0.86529 0.51523 0.0
C298 C 0.51945 0.97242 0.14679 0.0
C299 C 0.48149 0.9818 0.14634 0.0
C300 C 0.54716 0.9997 0.14751 0.0
C301 C 0.53817 0.03764 0.1479 0.0
H302 H 0.52789 0.94367 0.14642 0.0
H303 H 0.57587 0.99093 0.14841 0.0
S304 S 0.443 0.07726 0.1463 0.0
N305 N 0.43648 0.03208 0.14671 0.0
N306 N 0.48841 0.08315 0.14633 0.0
C307 C 0.50034 0.04748 0.14696 0.0
C308 C 0.47208 0.01967 0.14651 0.0
C309 C 0.50771 0.97765 0.87083 0.0
C310 C 0.54597 0.98558 0.87134 0.0
C311 C 0.48101 1.00599 0.8716 0.0
C312 C 0.49144 0.04351 0.87255 0.0
H313 H 0.4983 0.94923 0.8699 0.0
H314 H 0.45196 0.99846 0.87055 0.0
S315 S 0.58792 0.0793 0.87502 0.0
N316 N 0.59284 0.03393 0.873 0.0
N317 N 0.54274 0.08701 0.87534 0.0
C318 C 0.52958 0.05185 0.87358 0.0
C319 C 0.55679 0.02298 0.87284 0.0
C320 C 0.14586 0.46844 0.01678 0.0
C321 C 0.14338 0.47842 0.97908 0.0
C322 C 0.14637 0.49537 0.04485 0.0
C323 C 0.144 0.53336 0.03643 0.0
H324 H 0.14835 0.43961 0.02459 0.0
H325 H 0.14869 0.48639 0.07343 0.0
S326 S 0.13557 0.57399 0.94207 0.0
N327 N 0.13693 0.5289 0.93493 0.0
N328 N 0.13882 0.57945 0.98742 0.0
C329 C 0.14084 0.54368 0.99885 0.0
C330 C 0.14037 0.51625 0.97028 0.0
C331 C 0.87684 0.5457 0.01729 0.0
C332 C 0.87773 0.53526 0.97968 0.0
C333 C 0.877 0.51912 0.04576 0.0
C334 C 0.87838 0.48099 0.03785 0.0
H335 H 0.87512 0.57464 0.0248 0.0
H336 H 0.876 0.52851 0.07425 0.0
S337 S 0.88255 0.43912 0.94384 0.0
N338 N 0.88171 0.48414 0.93609 0.0
N339 N 0.88088 0.43425 0.98936 0.0
C340 C 0.8799 0.47018 1.00033 0.0
C341 C 0.87977 0.49727 0.97135 0.0
C342 C 0.26553 0.10345 0.74531 0.0
C343 C 0.22874 0.09058 0.7451 0.0
C344 C 0.28728 0.10166 0.77758 0.0
C345 C 0.27304 0.08698 0.81094 0.0
H346 H 0.27713 0.1163 0.72077 0.0
H347 H 0.31504 0.1131 0.77663 0.0
S348 S 0.18008 0.04457 0.82335 0.0
N349 N 0.18044 0.0588 0.7798 0.0
N350 N 0.22091 0.05608 0.84058 0.0
C351 C 0.23686 0.07241 0.81056 0.0
C352 C 0.21482 0.07406 0.77764 0.0
C353 C 0.72664 0.9421 0.7566 0.0
C354 C 0.73134 0.92462 0.79123 0.0
C355 C 0.7519 0.93642 0.72747 0.0
C356 C 0.78277 0.91288 0.73169 0.0
H357 H 0.70311 0.96017 0.75182 0.0
H358 H 0.74727 0.95065 0.70142 0.0
S359 S 0.80638 0.85839 0.81596 0.0
N360 N 0.76883 0.88184 0.82766 0.0
N361 N 0.81554 0.87051 0.77275 0.0
C362 C 0.78773 0.89509 0.76613 0.0
C363 C 0.76224 0.90113 0.79591 0.0
C364 C 0.30164 0.90074 0.26165 0.0
C365 C 0.29383 0.91614 0.22654 0.0
C366 C 0.27537 0.90133 0.29034 0.0
C367 C 0.24005 0.91695 0.285 0.0
H368 H 0.32809 0.88746 0.26692 0.0
H369 H 0.28226 0.88824 0.31649 0.0
S370 S 0.20642 0.96363 0.19962 0.0
N371 N 0.2487 0.94951 0.18893 0.0
N372 N 0.19941 0.95054 0.24298 0.0
C373 C 0.23221 0.93357 0.25055 0.0
C374 C 0.25908 0.93326 0.22134 0.0
C375 C 0.72098 0.11815 0.26837 0.0
C376 C 0.72896 0.10202 0.23368 0.0
C377 C 0.74727 0.11853 0.29705 0.0
C378 C 0.78277 0.10323 0.29207 0.0
H379 H 0.69437 0.13122 0.27334 0.0
H380 H 0.7402 0.13207 0.32289 0.0
S381 S 0.81696 0.05506 0.20787 0.0
N382 N 0.77449 0.06837 0.19688 0.0
N383 N 0.82384 0.06925 0.25087 0.0
C384 C 0.79082 0.08596 0.25804 0.0
C385 C 0.76392 0.08524 0.22887 0.0
C386 C 0.7834 0.20685 0.09323 0.0
C387 C 0.74897 0.22268 0.10275 0.0
C388 C 0.81557 0.22844 0.09027 0.0
C389 C 0.81474 0.26683 0.0967 0.0
H390 H 0.78556 0.17742 0.08812 0.0
H391 H 0.84139 0.21469 0.08338 0.0
S392 S 0.73135 0.32188 0.12239 0.0
N393 N 0.7159 0.27907 0.11859 0.0
N394 N 0.77606 0.3199 0.11256 0.0
C395 C 0.78024 0.2832 0.10547 0.0
C396 C 0.74747 0.2611 0.10857 0.0
C397 C 0.23929 0.73513 0.10175 0.0
C398 C 0.20552 0.75025 0.08896 0.0
C399 C 0.27146 0.75682 0.1046 0.0
C400 C 0.27117 0.79449 0.09481 0.0
H401 H 0.24073 0.70654 0.11071 0.0
H402 H 0.29643 0.74433 0.11569 0.0
S403 S 0.19148 0.8463 0.05505 0.0
N404 N 0.17482 0.80459 0.06341 0.0
N405 N 0.23535 0.84501 0.06818 0.0
C406 C 0.23811 0.80954 0.08042 0.0
C407 C 0.20531 0.78753 0.07763 0.0
C408 C 0.75813 0.71625 0.89377 0.0
C409 C 0.79302 0.72343 0.90994 0.0
C410 C 0.7293 0.74231 0.89509 0.0
C411 C 0.73425 0.7768 0.91229 0.0
H412 H 0.75309 0.69044 0.87939 0.0
H413 H 0.70333 0.73592 0.88143 0.0
S414 S 0.81891 0.80854 0.96139 0.0
N415 N 0.82998 0.76709 0.94561 0.0
N416 N 0.77569 0.81595 0.94805 0.0
C417 C 0.7685 0.78401 0.92958 0.0
C418 C 0.79785 0.75736 0.92848 0.0
C419 C 0.29208 0.27433 0.89401 0.0
C420 C 0.28765 0.23854 0.90859 0.0
C421 C 0.26252 0.29959 0.89343 0.0
C422 C 0.22739 0.2903 0.90789 0.0
H423 H 0.31835 0.28252 0.88195 0.0
H424 H 0.26724 0.32656 0.88117 0.0
S425 S 0.20213 0.20076 0.95164 0.0
N426 N 0.24605 0.19557 0.93957 0.0
N427 N 0.19041 0.24302 0.93861 0.0
C428 C 0.22289 0.25491 0.92362 0.0
C429 C 0.25299 0.22903 0.92386 0.0
C430 C 0.07384 0.75768 0.29166 0.0
C431 C 0.09088 0.79239 0.28666 0.0
C432 C 0.07921 0.72877 0.26622 0.0
C433 C 0.10187 0.73333 0.23475 0.0
H434 H 0.05644 0.7526 0.31565 0.0
H435 H 0.06549 0.70259 0.2712 0.0
S436 S 0.15455 0.81802 0.20962 0.0
N437 N 0.13212 0.82929 0.24791 0.0
N438 N 0.14269 0.77484 0.20075 0.0
C439 C 0.11906 0.76788 0.22931 0.0
C440 C 0.11344 0.7974 0.25507 0.0
C441 C 0.06709 0.25426 0.72727 0.0
C442 C 0.08657 0.22061 0.73028 0.0
C443 C 0.07208 0.28275 0.75326 0.0
C444 C 0.09692 0.27883 0.78317 0.0
H445 H 0.04795 0.25877 0.70452 0.0
H446 H 0.0563 0.30804 0.74993 0.0
S447 S 0.15668 0.19717 0.80229 0.0
N448 N 0.13257 0.18547 0.7652 0.0
N449 N 0.14259 0.23924 0.81319 0.0
C450 C 0.11672 0.24538 0.78643 0.0
C451 C 0.11138 0.21625 0.76023 0.0
C452 C 0.89903 0.72271 0.74202 0.0
C453 C 0.91382 0.72959 0.77742 0.0
C454 C 0.89742 0.75064 0.71503 0.0
C455 C 0.91099 0.78648 0.72216 0.0
H456 H 0.88762 0.69579 0.73551 0.0
H457 H 0.88504 0.74409 0.68846 0.0
S458 S 0.95495 0.81786 0.80982 0.0
N459 N 0.9441 0.77417 0.81768 0.0
N460 N 0.94119 0.82676 0.76702 0.0
C461 C 0.92693 0.7934 0.75715 0.0
C462 C 0.92824 0.76498 0.78476 0.0
C463 C 0.92536 0.22578 0.26259 0.0
C464 C 0.91109 0.23187 0.29844 0.0
C465 C 0.92631 0.25436 0.23613 0.0
C466 C 0.91367 0.29022 0.24471 0.0
H467 H 0.93482 0.1985 0.2545 0.0
H468 H 0.93688 0.24836 0.20865 0.0
S469 S 0.87515 0.32111 0.33493 0.0
N470 N 0.88514 0.27698 0.34139 0.0
N471 N 0.88709 0.33039 0.29168 0.0
C472 C 0.90033 0.29694 0.2807 0.0
C473 C 0.89898 0.26784 0.30751 0.0
C474 C 0.98742 0.03558 0.6815 0.0
C475 C 0.02617 0.0385 0.68501 0.0
C476 C 0.96986 1.00101 0.68103 0.0
C477 C 0.99026 0.96785 0.68422 0.0
H478 H 0.97048 0.06014 0.67814 0.0
H479 H 0.94001 1.00038 0.67748 0.0
S480 S 0.09227 0.96035 0.69716 0.0
N481 N 0.08432 1.00522 0.69404 0.0
N482 N 0.05132 0.94036 0.69313 0.0
C483 C 0.02893 0.97039 0.68907 0.0
C484 C 0.04686 1.00564 0.68944 0.0
C485 C 0.97371 0.01535 0.33355 0.0
C486 C 0.99452 0.04826 0.33084 0.0
C487 C 0.99082 0.98052 0.3325 0.0
C488 C 0.02952 0.97703 0.32887 0.0
H489 H 0.94388 0.01636 0.33724 0.0
H490 H 0.97355 0.95619 0.33563 0.0
S491 S 0.09656 0.0543 0.31747 0.0
N492 N 0.05589 0.07489 0.32197 0.0
N493 N 0.08804 0.00952 0.32003 0.0
C494 C 0.0506 0.00962 0.32478 0.0
C495 C 0.03313 0.04516 0.32574 0.0
C496 C 0.69376 0.0235 0.98201 0.0
C497 C 0.6956 0.98483 0.9783 0.0
C498 C 0.69313 0.04027 0.01703 0.0
C499 C 0.69446 0.01913 0.04992 0.0
H500 H 0.69165 0.04105 0.9577 0.0
H501 H 0.69078 0.07013 0.01819 0.0
S502 S 0.70316 0.91686 0.05543 0.0
N503 N 0.70146 0.92585 0.01055 0.0
N504 N 0.70028 0.95738 0.07632 0.0
C505 C 0.69787 0.98047 0.04662 0.0
C506 C 0.69841 0.96335 0.01087 0.0
C507 C 0.33593 0.97513 1.00913 0.0
C508 C 0.33111 0.99576 0.04196 0.0
C509 C 0.33755 0.99233 0.9743 0.0
C510 C 0.33448 0.03096 0.97072 0.0
H511 H 0.33939 0.94537 0.01026 0.0
H512 H 0.34231 0.97518 0.95013 0.0
S513 S 0.3179 0.09753 0.04755 0.0
N514 N 0.32067 0.05687 0.06827 0.0
N515 N 0.32361 0.08923 1.00288 0.0
C516 C 0.3281 0.05187 1.00313 0.0
C517 C 0.32643 0.0343 0.03868 0.0
C518 C 0.01035 0.68193 0.9701 0.0
C519 C 0.97733 0.68864 0.98999 0.0
C520 C 0.04496 0.68114 0.98786 0.0
C521 C 0.04808 0.68696 0.02631 0.0
H522 H 0.00953 0.67625 0.9406 0.0
H523 H 0.06928 0.67474 0.97138 0.0
S524 S 0.97071 0.70954 0.09068 0.0
N525 N 0.95044 0.70401 0.05 0.0
N526 N 0.01539 0.70257 0.08335 0.0
C527 C 0.01551 0.69529 0.04634 0.0
C528 C 0.98021 0.69613 0.02821 0.0
C529 C 0.01106 0.33018 0.97349 0.0
C530 C 0.04441 0.32444 0.99316 0.0
C531 C 0.97666 0.33094 0.99163 0.0
C532 C 0.97405 0.32608 0.03027 0.0
H533 H 0.01146 0.33512 0.94384 0.0
H534 H 0.95207 0.33663 0.97528 0.0
S535 S 0.05245 0.30616 0.0943 0.0
N536 N 0.07219 0.31093 0.05323 0.0
N537 N 1.0076 0.31232 0.08731 0.0
C538 C 1.00696 0.31865 0.05012 0.0
C539 C 0.04206 0.31783 0.0316 0.0
loop_
_geom_bond_atom_site_label_1
_geom_bond_atom_site_label_2
_geom_bond_distance
_geom_bond_site_symmetry_2
_ccdc_geom_bond_type
Cu0 N1 1.999 . S
Cu0 O6 1.974 . S
Cu0 N11 1.985 . S
Cu0 O20 1.959 . S
N1 Cu0 1.999 . S
N1 C3 1.263 . S
N1 C5 1.389 . S
N2 C3 1.358 . S
N2 C4 1.400 . S
C3 N1 1.263 . S
C3 N2 1.358 . S
C3 H9 0.930 . S
C4 N2 1.400 . S
C4 C5 1.351 . S
C4 H21 0.930 . S
C5 N1 1.389 . S
C5 C4 1.351 . S
C5 H10 0.930 . S
O6 Cu0 1.974 . S
O6 C16 1.282 . S
C7 O8 1.261 . S
C7 O20 1.251 . S
O8 C7 1.261 . S
H9 C3 0.930 . S
H10 C5 0.930 . S
N11 Cu0 1.985 . S
N11 C13 1.335 . S
N11 C14 1.390 . S
N12 C13 1.345 . S
N12 C15 1.336 . S
C13 N11 1.335 . S
C13 N12 1.345 . S
C13 H18 0.930 . S
C14 N11 1.390 . S
C14 C15 1.346 . S
C14 H19 0.930 . S
C15 N12 1.336 . S
C15 C14 1.346 . S
C15 H22 0.929 . S
C16 O6 1.282 . S
C16 O17 1.216 . S
O17 C16 1.216 . S
H18 C13 0.930 . S
H19 C14 0.930 . S
O20 Cu0 1.959 . S
O20 C7 1.251 . S
H21 C4 0.930 . S
H22 C15 0.929 . S
Cu23 N24 1.999 . S
Cu23 O29 1.974 . S
Cu23 N34 1.985 . S
Cu23 O43 1.959 . S
N24 Cu23 1.999 . S
N24 C26 1.263 . S
N24 C28 1.389 . S
N25 C26 1.358 . S
N25 C27 1.400 . S
C26 N24 1.263 . S
C26 N25 1.358 . S
C26 H32 0.930 . S
C27 N25 1.400 . S
C27 C28 1.351 . S
C27 H44 0.930 . S
C28 N24 1.389 . S
C28 C27 1.351 . S
C28 H33 0.930 . S
O29 Cu23 1.974 . S
O29 C39 1.282 . S
C30 O31 1.261 . S
C30 O43 1.251 . S
O31 C30 1.261 . S
H32 C26 0.930 . S
H33 C28 0.930 . S
N34 Cu23 1.985 . S
N34 C36 1.335 . S
N34 C37 1.390 . S
N35 C36 1.345 . S
N35 C38 1.336 . S
C36 N34 1.335 . S
C36 N35 1.345 . S
C36 H41 0.930 . S
C37 N34 1.390 . S
C37 C38 1.346 . S
C37 H42 0.930 . S
C38 N35 1.336 . S
C38 C37 1.346 . S
C38 H45 0.929 . S
C39 O29 1.282 . S
C39 O40 1.216 . S
O40 C39 1.216 . S
H41 C36 0.930 . S
H42 C37 0.930 . S
O43 Cu23 1.959 . S
O43 C30 1.251 . S
H44 C27 0.930 . S
H45 C38 0.929 . S
Cu46 N47 1.999 . S
Cu46 O52 1.974 . S
Cu46 N57 1.985 . S
Cu46 O66 1.959 . S
N47 Cu46 1.999 . S
N47 C49 1.263 . S
N47 C51 1.389 . S
N48 C49 1.358 . S
N48 C50 1.400 . S
C49 N47 1.263 . S
C49 N48 1.358 . S
C49 H55 0.930 . S
C50 N48 1.400 . S
C50 C51 1.351 . S
C50 H67 0.930 . S
C51 N47 1.389 . S
C51 C50 1.351 . S
C51 H56 0.930 . S
O52 Cu46 1.974 . S
O52 C62 1.282 . S
C53 O54 1.261 . S
C53 O66 1.251 . S
O54 C53 1.261 . S
H55 C49 0.930 . S
H56 C51 0.930 . S
N57 Cu46 1.985 . S
N57 C59 1.335 . S
N57 C60 1.390 . S
N58 C59 1.345 . S
N58 C61 1.336 . S
C59 N57 1.335 . S
C59 N58 1.345 . S
C59 H64 0.930 . S
C60 N57 1.390 . S
C60 C61 1.346 . S
C60 H65 0.930 . S
C61 N58 1.336 . S
C61 C60 1.346 . S
C61 H68 0.929 . S
C62 O52 1.282 . S
C62 O63 1.216 . S
O63 C62 1.216 . S
H64 C59 0.930 . S
H65 C60 0.930 . S
O66 Cu46 1.959 . S
O66 C53 1.251 . S
H67 C50 0.930 . S
H68 C61 0.929 . S
Cu69 N70 1.999 . S
Cu69 O75 1.974 . S
Cu69 N80 1.985 . S
Cu69 O89 1.959 . S
N70 Cu69 1.999 . S
N70 C72 1.263 . S
N70 C74 1.389 . S
N71 C72 1.358 . S
N71 C73 1.400 . S
C72 N70 1.263 . S
C72 N71 1.358 . S
C72 H78 0.930 . S
C73 N71 1.400 . S
C73 C74 1.351 . S
C73 H90 0.930 . S
C74 N70 1.389 . S
C74 C73 1.351 . S
C74 H79 0.930 . S
O75 Cu69 1.974 . S
O75 C85 1.282 . S
C76 O77 1.261 . S
C76 O89 1.251 . S
O77 C76 1.261 . S
H78 C72 0.930 . S
H79 C74 0.930 . S
N80 Cu69 1.985 . S
N80 C82 1.335 . S
N80 C83 1.390 . S
N81 C82 1.345 . S
N81 C84 1.336 . S
C82 N80 1.335 . S
C82 N81 1.345 . S
C82 H87 0.930 . S
C83 N80 1.390 . S
C83 C84 1.346 . S
C83 H88 0.930 . S
C84 N81 1.336 . S
C84 C83 1.346 . S
C84 H91 0.929 . S
C85 O75 1.282 . S
C85 O86 1.216 . S
O86 C85 1.216 . S
H87 C82 0.930 . S
H88 C83 0.930 . S
O89 Cu69 1.959 . S
O89 C76 1.251 . S
H90 C73 0.930 . S
H91 C84 0.929 . S
Cu92 N93 1.999 . S
Cu92 O98 1.974 . S
Cu92 N103 1.985 . S
Cu92 O112 1.959 . S
N93 Cu92 1.999 . S
N93 C95 1.263 . S
N93 C97 1.389 . S
N94 C95 1.358 . S
N94 C96 1.400 . S
C95 N93 1.263 . S
C95 N94 1.358 . S
C95 H101 0.930 . S
C96 N94 1.400 . S
C96 C97 1.351 . S
C96 H113 0.930 . S
C97 N93 1.389 . S
C97 C96 1.351 . S
C97 H102 0.930 . S
O98 Cu92 1.974 . S
O98 C108 1.282 . S
C99 O100 1.261 . S
C99 O112 1.251 . S
O100 C99 1.261 . S
H101 C95 0.930 . S
H102 C97 0.930 . S
N103 Cu92 1.985 . S
N103 C105 1.335 . S
N103 C106 1.390 . S
N104 C105 1.345 . S
N104 C107 1.336 . S
C105 N103 1.335 . S
C105 N104 1.345 . S
C105 H110 0.930 . S
C106 N103 1.390 . S
C106 C107 1.346 . S
C106 H111 0.930 . S
C107 N104 1.336 . S
C107 C106 1.346 . S
C107 H114 0.929 . S
C108 O98 1.282 . S
C108 O109 1.216 . S
O109 C108 1.216 . S
H110 C105 0.930 . S
H111 C106 0.930 . S
O112 Cu92 1.959 . S
O112 C99 1.251 . S
H113 C96 0.930 . S
H114 C107 0.929 . S
Cu115 N116 1.999 . S
Cu115 O121 1.974 . S
Cu115 N126 1.985 . S
Cu115 O135 1.959 . S
N116 Cu115 1.999 . S
N116 C118 1.263 . S
N116 C120 1.389 . S
N117 C118 1.358 . S
N117 C119 1.400 . S
C118 N116 1.263 . S
C118 N117 1.358 . S
C118 H124 0.930 . S
C119 N117 1.400 . S
C119 C120 1.351 . S
C119 H136 0.930 . S
C120 N116 1.389 . S
C120 C119 1.351 . S
C120 H125 0.930 . S
O121 Cu115 1.974 . S
O121 C131 1.282 . S
C122 O123 1.261 . S
C122 O135 1.251 . S
O123 C122 1.261 . S
H124 C118 0.930 . S
H125 C120 0.930 . S
N126 Cu115 1.985 . S
N126 C128 1.335 . S
N126 C129 1.390 . S
N127 C128 1.345 . S
N127 C130 1.336 . S
C128 N126 1.335 . S
C128 N127 1.345 . S
C128 H133 0.930 . S
C129 N126 1.390 . S
C129 C130 1.346 . S
C129 H134 0.930 . S
C130 N127 1.336 . S
C130 C129 1.346 . S
C130 H137 0.929 . S
C131 O121 1.282 . S
C131 O132 1.216 . S
O132 C131 1.216 . S
H133 C128 0.930 . S
H134 C129 0.930 . S
O135 Cu115 1.959 . S
O135 C122 1.251 . S
H136 C119 0.930 . S
H137 C130 0.929 . S
Cu138 N139 1.999 . S
Cu138 O144 1.974 . S
Cu138 N149 1.985 . S
Cu138 O158 1.959 . S
N139 Cu138 1.999 . S
N139 C141 1.263 . S
N139 C143 1.389 . S
N140 C141 1.358 . S
N140 C142 1.400 . S
C141 N139 1.263 . S
C141 N140 1.358 . S
C141 H147 0.930 . S
C142 N140 1.400 . S
C142 C143 1.351 . S
C142 H159 0.930 . S
C143 N139 1.389 . S
C143 C142 1.351 . S
C143 H148 0.930 . S
O144 Cu138 1.974 . S
O144 C154 1.282 . S
C145 O146 1.261 . S
C145 O158 1.251 . S
O146 C145 1.261 . S
H147 C141 0.930 . S
H148 C143 0.930 . S
N149 Cu138 1.985 . S
N149 C151 1.335 . S
N149 C152 1.390 . S
N150 C151 1.345 . S
N150 C153 1.336 . S
C151 N149 1.335 . S
C151 N150 1.345 . S
C151 H156 0.930 . S
C152 N149 1.390 . S
C152 C153 1.346 . S
C152 H157 0.930 . S
C153 N150 1.336 . S
C153 C152 1.346 . S
C153 H160 0.929 . S
C154 O144 1.282 . S
C154 O155 1.216 . S
O155 C154 1.216 . S
H156 C151 0.930 . S
H157 C152 0.930 . S
O158 Cu138 1.959 . S
O158 C145 1.251 . S
H159 C142 0.930 . S
H160 C153 0.929 . S
Cu161 N162 1.999 . S
Cu161 O167 1.974 . S
Cu161 N172 1.985 . S
Cu161 O181 1.959 . S
N162 Cu161 1.999 . S
N162 C164 1.263 . S
N162 C166 1.389 . S
N163 C164 1.358 . S
N163 C165 1.400 . S
C164 N162 1.263 . S
C164 N163 1.358 . S
C164 H170 0.930 . S
C165 N163 1.400 . S
C165 C166 1.351 . S
C165 H182 0.930 . S
C166 N162 1.389 . S
C166 C165 1.351 . S
C166 H171 0.930 . S
O167 Cu161 1.974 . S
O167 C177 1.282 . S
C168 O169 1.261 . S
C168 O181 1.251 . S
O169 C168 1.261 . S
H170 C164 0.930 . S
H171 C166 0.930 . S
N172 Cu161 1.985 . S
N172 C174 1.335 . S
N172 C175 1.390 . S
N173 C174 1.345 . S
N173 C176 1.336 . S
C174 N172 1.335 . S
C174 N173 1.345 . S
C174 H179 0.930 . S
C175 N172 1.390 . S
C175 C176 1.346 . S
C175 H180 0.930 . S
C176 N173 1.336 . S
C176 C175 1.346 . S
C176 H183 0.929 . S
C177 O167 1.282 . S
C177 O178 1.216 . S
O178 C177 1.216 . S
H179 C174 0.930 . S
H180 C175 0.930 . S
O181 Cu161 1.959 . S
O181 C168 1.251 . S
H182 C165 0.930 . S
H183 C176 0.929 . S
Cu184 N185 1.999 . S
Cu184 O190 1.974 . S
Cu184 N195 1.985 . S
Cu184 O204 1.959 . S
N185 Cu184 1.999 . S
N185 C187 1.263 . S
N185 C189 1.389 . S
N186 C187 1.358 . S
N186 C188 1.400 . S
C187 N185 1.263 . S
C187 N186 1.358 . S
C187 H193 0.930 . S
C188 N186 1.400 . S
C188 C189 1.351 . S
C188 H205 0.930 . S
C189 N185 1.389 . S
C189 C188 1.351 . S
C189 H194 0.930 . S
O190 Cu184 1.974 . S
O190 C200 1.282 . S
C191 O192 1.261 . S
C191 O204 1.251 . S
O192 C191 1.261 . S
H193 C187 0.930 . S
H194 C189 0.930 . S
N195 Cu184 1.985 . S
N195 C197 1.335 . S
N195 C198 1.390 . S
N196 C197 1.345 . S
N196 C199 1.336 . S
C197 N195 1.335 . S
C197 N196 1.345 . S
C197 H202 0.930 . S
C198 N195 1.390 . S
C198 C199 1.346 . S
C198 H203 0.930 . S
C199 N196 1.336 . S
C199 C198 1.346 . S
C199 H206 0.929 . S
C200 O190 1.282 . S
C200 O201 1.216 . S
O201 C200 1.216 . S
H202 C197 0.930 . S
H203 C198 0.930 . S
O204 Cu184 1.959 . S
O204 C191 1.251 . S
H205 C188 0.930 . S
H206 C199 0.929 . S
Cu207 N208 1.999 . S
Cu207 O213 1.974 . S
Cu207 N218 1.985 . S
Cu207 O227 1.959 . S
N208 Cu207 1.999 . S
N208 C210 1.263 . S
N208 C212 1.389 . S
N209 C210 1.358 . S
N209 C211 1.400 . S
C210 N208 1.263 . S
C210 N209 1.358 . S
C210 H216 0.930 . S
C211 N209 1.400 . S
C211 C212 1.351 . S
C211 H228 0.930 . S
C212 N208 1.389 . S
C212 C211 1.351 . S
C212 H217 0.930 . S
O213 Cu207 1.974 . S
O213 C223 1.282 . S
C214 O215 1.261 . S
C214 O227 1.251 . S
O215 C214 1.261 . S
H216 C210 0.930 . S
H217 C212 0.930 . S
N218 Cu207 1.985 . S
N218 C220 1.335 . S
N218 C221 1.390 . S
N219 C220 1.345 . S
N219 C222 1.336 . S
C220 N218 1.335 . S
C220 N219 1.345 . S
C220 H225 0.930 . S
C221 N218 1.390 . S
C221 C222 1.346 . S
C221 H226 0.930 . S
C222 N219 1.336 . S
C222 C221 1.346 . S
C222 H229 0.929 . S
C223 O213 1.282 . S
C223 O224 1.216 . S
O224 C223 1.216 . S
H225 C220 0.930 . S
H226 C221 0.930 . S
O227 Cu207 1.959 . S
O227 C214 1.251 . S
H228 C211 0.930 . S
H229 C222 0.929 . S
Cu230 N231 1.999 . S
Cu230 O236 1.974 . S
Cu230 N241 1.985 . S
Cu230 O250 1.959 . S
N231 Cu230 1.999 . S
N231 C233 1.263 . S
N231 C235 1.389 . S
N232 C233 1.358 . S
N232 C234 1.400 . S
C233 N231 1.263 . S
C233 N232 1.358 . S
C233 H239 0.930 . S
C234 N232 1.400 . S
C234 C235 1.351 . S
C234 H251 0.930 . S
C235 N231 1.389 . S
C235 C234 1.351 . S
C235 H240 0.930 . S
O236 Cu230 1.974 . S
O236 C246 1.282 . S
C237 O238 1.261 . S
C237 O250 1.251 . S
O238 C237 1.261 . S
H239 C233 0.930 . S
H240 C235 0.930 . S
N241 Cu230 1.985 . S
N241 C243 1.335 . S
N241 C244 1.390 . S
N242 C243 1.345 . S
N242 C245 1.336 . S
C243 N241 1.335 . S
C243 N242 1.345 . S
C243 H248 0.930 . S
C244 N241 1.390 . S
C244 C245 1.346 . S
C244 H249 0.930 . S
C245 N242 1.336 . S
C245 C244 1.346 . S
C245 H252 0.929 . S
C246 O236 1.282 . S
C246 O247 1.216 . S
O247 C246 1.216 . S
H248 C243 0.930 . S
H249 C244 0.930 . S
O250 Cu230 1.959 . S
O250 C237 1.251 . S
H251 C234 0.930 . S
H252 C245 0.929 . S
Cu253 N254 1.999 . S
Cu253 O259 1.974 . S
Cu253 N264 1.985 . S
Cu253 O273 1.959 . S
N254 Cu253 1.999 . S
N254 C256 1.263 . S
N254 C258 1.389 . S
N255 C256 1.358 . S
N255 C257 1.400 . S
C256 N254 1.263 . S
C256 N255 1.358 . S
C256 H262 0.930 . S
C257 N255 1.400 . S
C257 C258 1.351 . S
C257 H274 0.930 . S
C258 N254 1.389 . S
C258 C257 1.351 . S
C258 H263 0.930 . S
O259 Cu253 1.974 . S
O259 C269 1.282 . S
C260 O261 1.261 . S
C260 O273 1.251 . S
O261 C260 1.261 . S
H262 C256 0.930 . S
H263 C258 0.930 . S
N264 Cu253 1.985 . S
N264 C266 1.335 . S
N264 C267 1.390 . S
N265 C266 1.345 . S
N265 C268 1.336 . S
C266 N264 1.335 . S
C266 N265 1.345 . S
C266 H271 0.930 . S
C267 N264 1.390 . S
C267 C268 1.346 . S
C267 H272 0.930 . S
C268 N265 1.336 . S
C268 C267 1.346 . S
C268 H275 0.929 . S
C269 O259 1.282 . S
C269 O270 1.216 . S
O270 C269 1.216 . S
H271 C266 0.930 . S
H272 C267 0.930 . S
O273 Cu253 1.959 . S
O273 C260 1.251 . S
H274 C257 0.930 . S
H275 C268 0.929 . S
C276 C277 1.369 . S
C276 C278 1.419 1_655 S
C276 H280 0.930 . S
C277 C276 1.369 . S
C277 C286 1.429 . S
C278 C276 1.419 1_455 S
C278 C279 1.363 . S
C278 H281 0.929 . S
C279 C278 1.363 . S
C279 C285 1.428 . S
H280 C276 0.930 . S
H281 C278 0.929 . S
S282 N283 1.613 . S
S282 N284 1.610 1_655 S
N283 S282 1.613 . S
N283 C286 1.350 . S
N284 S282 1.610 1_455 S
N284 C285 1.351 . S
C285 C279 1.428 . S
C285 N284 1.351 . S
C285 C286 1.434 1_455 S
C286 C277 1.429 . S
C286 N283 1.350 . S
C286 C285 1.434 1_655 S
C287 C288 1.369 1_655 S
C287 C289 1.419 . S
C287 H291 0.930 . S
C288 C287 1.369 1_455 S
C288 C297 1.429 . S
C289 C287 1.419 . S
C289 C290 1.363 . S
C289 H292 0.929 . S
C290 C289 1.363 . S
C290 C296 1.428 1_655 S
H291 C287 0.930 . S
H292 C289 0.929 . S
S293 N294 1.613 . S
S293 N295 1.610 . S
N294 S293 1.613 . S
N294 C297 1.350 . S
N295 S293 1.610 . S
N295 C296 1.351 . S
C296 C290 1.428 1_455 S
C296 N295 1.351 . S
C296 C297 1.434 . S
C297 C288 1.429 . S
C297 N294 1.350 . S
C297 C296 1.434 . S
C298 C299 1.369 . S
C298 C300 1.419 . S
C298 H302 0.930 . S
C299 C298 1.369 . S
C299 C308 1.429 1_565 S
C300 C298 1.419 . S
C300 C301 1.363 1_565 S
C300 H303 0.929 . S
C301 C300 1.363 1_545 S
C301 C307 1.428 . S
H302 C298 0.930 . S
H303 C300 0.929 . S
S304 N305 1.613 . S
S304 N306 1.610 . S
N305 S304 1.613 . S
N305 C308 1.350 . S
N306 S304 1.610 . S
N306 C307 1.351 . S
C307 C301 1.428 . S
C307 N306 1.351 . S
C307 C308 1.434 . S
C308 C299 1.429 1_545 S
C308 N305 1.350 . S
C308 C307 1.434 . S
C309 C310 1.369 . S
C309 C311 1.419 . S
C309 H313 0.930 . S
C310 C309 1.369 . S
C310 C319 1.429 1_565 S
C311 C309 1.419 . S
C311 C312 1.363 1_565 S
C311 H314 0.929 . S
C312 C311 1.363 1_545 S
C312 C318 1.428 . S
H313 C309 0.930 . S
H314 C311 0.929 . S
S315 N316 1.613 . S
S315 N317 1.610 . S
N316 S315 1.613 . S
N316 C319 1.350 . S
N317 S315 1.610 . S
N317 C318 1.351 . S
C318 C312 1.428 . S
C318 N317 1.351 . S
C318 C319 1.434 . S
C319 C310 1.429 1_545 S
C319 N316 1.350 . S
C319 C318 1.434 . S
C320 C321 1.369 1_554 S
C320 C322 1.419 . S
C320 H324 0.930 . S
C321 C320 1.369 1_556 S
C321 C330 1.429 . S
C322 C320 1.419 . S
C322 C323 1.363 . S
C322 H325 0.929 . S
C323 C322 1.363 . S
C323 C329 1.428 1_554 S
H324 C320 0.930 . S
H325 C322 0.929 . S
S326 N327 1.613 . S
S326 N328 1.610 . S
N327 S326 1.613 . S
N327 C330 1.350 . S
N328 S326 1.610 . S
N328 C329 1.351 . S
C329 C323 1.428 1_556 S
C329 N328 1.351 . S
C329 C330 1.434 . S
C330 C321 1.429 . S
C330 N327 1.350 . S
C330 C329 1.434 . S
C331 C332 1.369 1_554 S
C331 C333 1.419 . S
C331 H335 0.930 . S
C332 C331 1.369 1_556 S
C332 C341 1.429 . S
C333 C331 1.419 . S
C333 C334 1.363 . S
C333 H336 0.929 . S
C334 C333 1.363 . S
C334 C340 1.428 1_554 S
H335 C331 0.930 . S
H336 C333 0.929 . S
S337 N338 1.613 . S
S337 N339 1.610 . S
N338 S337 1.613 . S
N338 C341 1.350 . S
N339 S337 1.610 . S
N339 C340 1.351 . S
C340 C334 1.428 1_556 S
C340 N339 1.351 . S
C340 C341 1.434 . S
C341 C332 1.429 . S
C341 N338 1.350 . S
C341 C340 1.434 . S
C342 C343 1.369 . S
C342 C344 1.419 . S
C342 H346 0.930 . S
C343 C342 1.369 . S
C343 C352 1.429 . S
C344 C342 1.419 . S
C344 C345 1.363 . S
C344 H347 0.929 . S
C345 C344 1.363 . S
C345 C351 1.428 . S
H346 C342 0.930 . S
H347 C344 0.929 . S
S348 N349 1.613 . S
S348 N350 1.610 . S
N349 S348 1.613 . S
N349 C352 1.350 . S
N350 S348 1.610 . S
N350 C351 1.351 . S
C351 C345 1.428 . S
C351 N350 1.351 . S
C351 C352 1.434 . S
C352 C343 1.429 . S
C352 N349 1.350 . S
C352 C351 1.434 . S
C353 C354 1.369 . S
C353 C355 1.419 . S
C353 H357 0.930 . S
C354 C353 1.369 . S
C354 C363 1.429 . S
C355 C353 1.419 . S
C355 C356 1.363 . S
C355 H358 0.929 . S
C356 C355 1.363 . S
C356 C362 1.428 . S
H357 C353 0.930 . S
H358 C355 0.929 . S
S359 N360 1.613 . S
S359 N361 1.610 . S
N360 S359 1.613 . S
N360 C363 1.350 . S
N361 S359 1.610 . S
N361 C362 1.351 . S
C362 C356 1.428 . S
C362 N361 1.351 . S
C362 C363 1.434 . S
C363 C354 1.429 . S
C363 N360 1.350 . S
C363 C362 1.434 . S
C364 C365 1.369 . S
C364 C366 1.419 . S
C364 H368 0.930 . S
C365 C364 1.369 . S
C365 C374 1.429 . S
C366 C364 1.419 . S
C366 C367 1.363 . S
C366 H369 0.929 . S
C367 C366 1.363 . S
C367 C373 1.428 . S
H368 C364 0.930 . S
H369 C366 0.929 . S
S370 N371 1.613 . S
S370 N372 1.610 . S
N371 S370 1.613 . S
N371 C374 1.350 . S
N372 S370 1.610 . S
N372 C373 1.351 . S
C373 C367 1.428 . S
C373 N372 1.351 . S
C373 C374 1.434 . S
C374 C365 1.429 . S
C374 N371 1.350 . S
C374 C373 1.434 . S
C375 C376 1.369 . S
C375 C377 1.419 . S
C375 H379 0.930 . S
C376 C375 1.369 . S
C376 C385 1.429 . S
C377 C375 1.419 . S
C377 C378 1.363 . S
C377 H380 0.929 . S
C378 C377 1.363 . S
C378 C384 1.428 . S
H379 C375 0.930 . S
H380 C377 0.929 . S
S381 N382 1.613 . S
S381 N383 1.610 . S
N382 S381 1.613 . S
N382 C385 1.350 . S
N383 S381 1.610 . S
N383 C384 1.351 . S
C384 C378 1.428 . S
C384 N383 1.351 . S
C384 C385 1.434 . S
C385 C376 1.429 . S
C385 N382 1.350 . S
C385 C384 1.434 . S
C386 C387 1.369 . S
C386 C388 1.419 . S
C386 H390 0.930 . S
C387 C386 1.369 . S
C387 C396 1.429 . S
C388 C386 1.419 . S
C388 C389 1.363 . S
C388 H391 0.929 . S
C389 C388 1.363 . S
C389 C395 1.428 . S
H390 C386 0.930 . S
H391 C388 0.929 . S
S392 N393 1.613 . S
S392 N394 1.610 . S
N393 S392 1.613 . S
N393 C396 1.350 . S
N394 S392 1.610 . S
N394 C395 1.351 . S
C395 C389 1.428 . S
C395 N394 1.351 . S
C395 C396 1.434 . S
C396 C387 1.429 . S
C396 N393 1.350 . S
C396 C395 1.434 . S
C397 C398 1.369 . S
C397 C399 1.419 . S
C397 H401 0.930 . S
C398 C397 1.369 . S
C398 C407 1.429 . S
C399 C397 1.419 . S
C399 C400 1.363 . S
C399 H402 0.929 . S
C400 C399 1.363 . S
C400 C406 1.428 . S
H401 C397 0.930 . S
H402 C399 0.929 . S
S403 N404 1.613 . S
S403 N405 1.610 . S
N404 S403 1.613 . S
N404 C407 1.350 . S
N405 S403 1.610 . S
N405 C406 1.351 . S
C406 C400 1.428 . S
C406 N405 1.351 . S
C406 C407 1.434 . S
C407 C398 1.429 . S
C407 N404 1.350 . S
C407 C406 1.434 . S
C408 C409 1.369 . S
C408 C410 1.419 . S
C408 H412 0.930 . S
C409 C408 1.369 . S
C409 C418 1.429 . S
C410 C408 1.419 . S
C410 C411 1.363 . S
C410 H413 0.929 . S
C411 C410 1.363 . S
C411 C417 1.428 . S
H412 C408 0.930 . S
H413 C410 0.929 . S
S414 N415 1.613 . S
S414 N416 1.610 . S
N415 S414 1.613 . S
N415 C418 1.350 . S
N416 S414 1.610 . S
N416 C417 1.351 . S
C417 C411 1.428 . S
C417 N416 1.351 . S
C417 C418 1.434 . S
C418 C409 1.429 . S
C418 N415 1.350 . S
C418 C417 1.434 . S
C419 C420 1.369 . S
C419 C421 1.419 . S
C419 H423 0.930 . S
C420 C419 1.369 . S
C420 C429 1.429 . S
C421 C419 1.419 . S
C421 C422 1.363 . S
C421 H424 0.929 . S
C422 C421 1.363 . S
C422 C428 1.428 . S
H423 C419 0.930 . S
H424 C421 0.929 . S
S425 N426 1.613 . S
S425 N427 1.610 . S
N426 S425 1.613 . S
N426 C429 1.350 . S
N427 S425 1.610 . S
N427 C428 1.351 . S
C428 C422 1.428 . S
C428 N427 1.351 . S
C428 C429 1.434 . S
C429 C420 1.429 . S
C429 N426 1.350 . S
C429 C428 1.434 . S
C430 C431 1.369 . S
C430 C432 1.419 . S
C430 H434 0.930 . S
C431 C430 1.369 . S
C431 C440 1.429 . S
C432 C430 1.419 . S
C432 C433 1.363 . S
C432 H435 0.929 . S
C433 C432 1.363 . S
C433 C439 1.428 . S
H434 C430 0.930 . S
H435 C432 0.929 . S
S436 N437 1.613 . S
S436 N438 1.610 . S
N437 S436 1.613 . S
N437 C440 1.350 . S
N438 S436 1.610 . S
N438 C439 1.351 . S
C439 C433 1.428 . S
C439 N438 1.351 . S
C439 C440 1.434 . S
C440 C431 1.429 . S
C440 N437 1.350 . S
C440 C439 1.434 . S
C441 C442 1.369 . S
C441 C443 1.419 . S
C441 H445 0.930 . S
C442 C441 1.369 . S
C442 C451 1.429 . S
C443 C441 1.419 . S
C443 C444 1.363 . S
C443 H446 0.929 . S
C444 C443 1.363 . S
C444 C450 1.428 . S
H445 C441 0.930 . S
H446 C443 0.929 . S
S447 N448 1.613 . S
S447 N449 1.610 . S
N448 S447 1.613 . S
N448 C451 1.350 . S
N449 S447 1.610 . S
N449 C450 1.351 . S
C450 C444 1.428 . S
C450 N449 1.351 . S
C450 C451 1.434 . S
C451 C442 1.429 . S
C451 N448 1.350 . S
C451 C450 1.434 . S
C452 C453 1.369 . S
C452 C454 1.419 . S
C452 H456 0.930 . S
C453 C452 1.369 . S
C453 C462 1.429 . S
C454 C452 1.419 . S
C454 C455 1.363 . S
C454 H457 0.929 . S
C455 C454 1.363 . S
C455 C461 1.428 . S
H456 C452 0.930 . S
H457 C454 0.929 . S
S458 N459 1.613 . S
S458 N460 1.610 . S
N459 S458 1.613 . S
N459 C462 1.350 . S
N460 S458 1.610 . S
N460 C461 1.351 . S
C461 C455 1.428 . S
C461 N460 1.351 . S
C461 C462 1.434 . S
C462 C453 1.429 . S
C462 N459 1.350 . S
C462 C461 1.434 . S
C463 C464 1.369 . S
C463 C465 1.419 . S
C463 H467 0.930 . S
C464 C463 1.369 . S
C464 C473 1.429 . S
C465 C463 1.419 . S
C465 C466 1.363 . S
C465 H468 0.929 . S
C466 C465 1.363 . S
C466 C472 1.428 . S
H467 C463 0.930 . S
H468 C465 0.929 . S
S469 N470 1.613 . S
S469 N471 1.610 . S
N470 S469 1.613 . S
N470 C473 1.350 . S
N471 S469 1.610 . S
N471 C472 1.351 . S
C472 C466 1.428 . S
C472 N471 1.351 . S
C472 C473 1.434 . S
C473 C464 1.429 . S
C473 N470 1.350 . S
C473 C472 1.434 . S
C474 C475 1.369 . S
C474 C476 1.419 1_455 S
C474 H478 0.930 . S
C475 C474 1.369 . S
C475 C484 1.429 1_545 S
C476 C474 1.419 1_655 S
C476 C477 1.363 1_545 S
C476 H479 0.929 . S
C477 C476 1.363 1_565 S
C477 C483 1.428 . S
H478 C474 0.930 . S
H479 C476 0.929 . S
S480 N481 1.613 . S
S480 N482 1.632 . S
N481 S480 1.613 . S
N481 C484 1.350 . S
N482 S480 1.632 . S
N482 C483 1.350 1_455 S
C483 C477 1.428 . S
C483 N482 1.350 1_655 S
C483 C484 1.434 1_655 S
C484 C475 1.429 1_565 S
C484 N481 1.350 . S
C484 C483 1.434 1_455 S
C485 C486 1.369 1_565 S
C485 C487 1.419 1_655 S
C485 H489 0.930 . S
C486 C485 1.369 1_545 S
C486 C495 1.429 . S
C487 C485 1.419 1_455 S
C487 C488 1.363 . S
C487 H490 0.929 . S
C488 C487 1.363 . S
C488 C494 1.428 1_565 S
H489 C485 0.930 . S
H490 C487 0.929 . S
S491 N492 1.613 1_455 S
S491 N493 1.610 . S
N492 S491 1.613 1_655 S
N492 C495 1.350 . S
N493 S491 1.610 . S
N493 C494 1.351 . S
C494 C488 1.428 1_545 S
C494 N493 1.351 . S
C494 C495 1.434 1_455 S
C495 C486 1.429 . S
C495 N492 1.350 . S
C495 C494 1.434 1_655 S
C496 C497 1.369 . S
C496 C498 1.419 1_565 S
C496 H500 0.930 . S
C497 C496 1.369 . S
C497 C506 1.429 1_556 S
C498 C496 1.419 1_545 S
C498 C499 1.363 1_556 S
C498 H501 0.929 . S
C499 C498 1.363 1_554 S
C499 C505 1.428 . S
H500 C496 0.930 . S
H501 C498 0.929 . S
S502 N503 1.613 . S
S502 N504 1.610 1_565 S
N503 S502 1.613 . S
N503 C506 1.350 . S
N504 S502 1.610 1_545 S
N504 C505 1.351 . S
C505 C499 1.428 . S
C505 N504 1.351 . S
C505 C506 1.434 1_545 S
C506 C497 1.429 1_554 S
C506 N503 1.350 . S
C506 C505 1.434 1_565 S
C507 C508 1.369 1_556 S
C507 C509 1.419 1_565 S
C507 H511 0.930 . S
C508 C507 1.369 1_554 S
C508 C517 1.429 . S
C509 C507 1.419 1_545 S
C509 C510 1.363 . S
C509 H512 0.929 . S
C510 C509 1.363 . S
C510 C516 1.428 1_556 S
H511 C507 0.930 . S
H512 C509 0.929 . S
S513 N514 1.598 1_545 S
S513 N515 1.610 . S
N514 S513 1.598 1_565 S
N514 C517 1.351 . S
N515 S513 1.610 . S
N515 C516 1.351 . S
C516 C510 1.428 1_554 S
C516 N515 1.351 . S
C516 C517 1.434 1_545 S
C517 C508 1.429 . S
C517 N514 1.351 . S
C517 C516 1.434 1_565 S
C518 C519 1.369 1_455 S
C518 C520 1.411 1_556 S
C518 H522 0.930 . S
C519 C518 1.369 1_655 S
C519 C528 1.429 1_556 S
C520 C518 1.411 1_554 S
C520 C521 1.372 . S
C520 H523 0.928 1_554 S
C521 C520 1.372 . S
C521 C527 1.428 1_455 S
H522 C518 0.930 . S
H523 C520 0.928 1_556 S
S524 N525 1.613 . S
S524 N526 1.610 . S
N525 S524 1.613 . S
N525 C528 1.350 . S
N526 S524 1.610 . S
N526 C527 1.351 . S
C527 C521 1.428 1_655 S
C527 N526 1.351 . S
C527 C528 1.434 . S
C528 C519 1.429 1_554 S
C528 N525 1.350 . S
C528 C527 1.434 . S
C529 C530 1.369 . S
C529 C531 1.419 1_456 S
C529 H533 0.931 . S
C530 C529 1.369 . S
C530 C539 1.429 . S
C531 C529 1.419 1_654 S
C531 C532 1.363 . S
C531 H534 0.929 . S
C532 C531 1.363 . S
C532 C538 1.426 1_655 S
H533 C529 0.931 . S
H534 C531 0.929 . S
S535 N536 1.613 1_554 S
S535 N537 1.610 . S
N536 S535 1.613 1_556 S
N536 C539 1.350 . S
N537 S535 1.610 . S
N537 C538 1.351 . S
C538 C532 1.426 1_455 S
C538 N537 1.351 . S
C538 C539 1.436 1_554 S
C539 C530 1.429 . S
C539 N536 1.350 . S
C539 C538 1.436 1_556 S
C277 N81 1.284 . S
C279 N12 1.284 . S
C288 N58 1.284 . S
C290 N35 1.287 . S
C299 N127 1.286 . S
C301 N104 1.284 . S
C310 N150 1.288 . S
C312 N173 1.287 . S
C321 N219 1.283 . S
C323 N196 1.286 . S
C332 N242 1.285 . S
C334 N265 1.287 . S
C343 N2 1.594 . S
C345 C177 1.459 . S
C354 C154 1.471 . S
C356 N25 1.588 . S
C365 C131 1.457 . S
C367 N48 1.593 . S
C376 C108 1.460 . S
C378 N71 1.594 . S
C387 N94 1.584 . S
C389 C269 1.470 . S
C398 C200 1.458 . S
C400 N117 1.591 . S
C409 C246 1.457 . S
C411 N140 1.592 . S
C420 N163 1.594 . S
C422 C223 1.462 . S
C431 C62 1.470 . S
C433 N186 1.589 . S
C442 C16 1.470 . S
C444 N209 1.589 . S
C453 N232 1.595 . S
C455 C39 1.459 . S
C464 C85 1.468 . S
C466 N255 1.586 . S
C475 C7 2.044 . S
C477 C30 2.040 . S
C486 C76 2.039 . S
C488 C53 2.044 . S
C497 C145 2.042 . S
C499 C99 2.037 . S
C508 C122 2.038 . S
C510 C168 2.044 . S
C519 C237 2.037 . S
C521 C191 2.043 . S
C530 C214 2.040 . S
C532 C260 2.044 . S
