# Generated by pormake.
# Topology ukb, (4)-cn, num edge types: 1
# Building blocks:
#     Node 0, Type 0, BuildingBlock: NAHDIM_clean_sbu_0, # of connection points: 4
#     Node 1, Type 0, BuildingBlock: NAHDIM_clean_sbu_0, # of connection points: 4
#     Node 2, Type 0, BuildingBlock: NAHDIM_clean_sbu_0, # of connection points: 4
#     Node 3, Type 0, BuildingBlock: NAHDIM_clean_sbu_0, # of connection points: 4
#     Node 4, Type 0, BuildingBlock: NAHDIM_clean_sbu_0, # of connection points: 4
#     Node 5, Type 0, BuildingBlock: NAHDIM_clean_sbu_0, # of connection points: 4
#     Node 6, Type 0, BuildingBlock: NAHDIM_clean_sbu_0, # of connection points: 4
#     Node 7, Type 0, BuildingBlock: NAHDIM_clean_sbu_0, # of connection points: 4
#     Node 8, Type 0, BuildingBlock: NAHDIM_clean_sbu_0, # of connection points: 4
#     Node 9, Type 0, BuildingBlock: NAHDIM_clean_sbu_0, # of connection points: 4
#     Node 10, Type 0, BuildingBlock: NAHDIM_clean_sbu_0, # of connection points: 4
#     Node 11, Type 0, BuildingBlock: NAHDIM_clean_sbu_0, # of connection points: 4
#     Node 12, Type 0, BuildingBlock: NAHDIM_clean_sbu_0, # of connection points: 4
#     Node 13, Type 0, BuildingBlock: NAHDIM_clean_sbu_0, # of connection points: 4
#     Node 14, Type 0, BuildingBlock: NAHDIM_clean_sbu_0, # of connection points: 4
#     Node 15, Type 0, BuildingBlock: NAHDIM_clean_sbu_0, # of connection points: 4
#     Edge 16, Type (0, 0), BuildingBlock: ZUJKAS_clean_linker_0, # of connection points: 2
#     Edge 17, Type (0, 0), BuildingBlock: ZUJKAS_clean_linker_0, # of connection points: 2
#     Edge 18, Type (0, 0), BuildingBlock: ZUJKAS_clean_linker_0, # of connection points: 2
#     Edge 19, Type (0, 0), BuildingBlock: ZUJKAS_clean_linker_0, # of connection points: 2
#     Edge 20, Type (0, 0), BuildingBlock: ZUJKAS_clean_linker_0, # of connection points: 2
#     Edge 21, Type (0, 0), BuildingBlock: ZUJKAS_clean_linker_0, # of connection points: 2
#     Edge 22, Type (0, 0), BuildingBlock: ZUJKAS_clean_linker_0, # of connection points: 2
#     Edge 23, Type (0, 0), BuildingBlock: ZUJKAS_clean_linker_0, # of connection points: 2
#     Edge 24, Type (0, 0), BuildingBlock: ZUJKAS_clean_linker_0, # of connection points: 2
#     Edge 25, Type (0, 0), BuildingBlock: ZUJKAS_clean_linker_0, # of connection points: 2
#     Edge 26, Type (0, 0), BuildingBlock: ZUJKAS_clean_linker_0, # of connection points: 2
#     Edge 27, Type (0, 0), BuildingBlock: ZUJKAS_clean_linker_0, # of connection points: 2
#     Edge 28, Type (0, 0), BuildingBlock: ZUJKAS_clean_linker_0, # of connection points: 2
#     Edge 29, Type (0, 0), BuildingBlock: ZUJKAS_clean_linker_0, # of connection points: 2
#     Edge 30, Type (0, 0), BuildingBlock: ZUJKAS_clean_linker_0, # of connection points: 2
#     Edge 31, Type (0, 0), BuildingBlock: ZUJKAS_clean_linker_0, # of connection points: 2
#     Edge 32, Type (0, 0), BuildingBlock: ZUJKAS_clean_linker_0, # of connection points: 2
#     Edge 33, Type (0, 0), BuildingBlock: ZUJKAS_clean_linker_0, # of connection points: 2
#     Edge 34, Type (0, 0), BuildingBlock: ZUJKAS_clean_linker_0, # of connection points: 2
#     Edge 35, Type (0, 0), BuildingBlock: ZUJKAS_clean_linker_0, # of connection points: 2
#     Edge 36, Type (0, 0), BuildingBlock: ZUJKAS_clean_linker_0, # of connection points: 2
#     Edge 37, Type (0, 0), BuildingBlock: ZUJKAS_clean_linker_0, # of connection points: 2
#     Edge 38, Type (0, 0), BuildingBlock: ZUJKAS_clean_linker_0, # of connection points: 2
#     Edge 39, Type (0, 0), BuildingBlock: ZUJKAS_clean_linker_0, # of connection points: 2
#     Edge 40, Type (0, 0), BuildingBlock: ZUJKAS_clean_linker_0, # of connection points: 2
#     Edge 41, Type (0, 0), BuildingBlock: ZUJKAS_clean_linker_0, # of connection points: 2
#     Edge 42, Type (0, 0), BuildingBlock: ZUJKAS_clean_linker_0, # of connection points: 2
#     Edge 43, Type (0, 0), BuildingBlock: ZUJKAS_clean_linker_0, # of connection points: 2
#     Edge 44, Type (0, 0), BuildingBlock: ZUJKAS_clean_linker_0, # of connection points: 2
#     Edge 45, Type (0, 0), BuildingBlock: ZUJKAS_clean_linker_0, # of connection points: 2
#     Edge 46, Type (0, 0), BuildingBlock: ZUJKAS_clean_linker_0, # of connection points: 2
#     Edge 47, Type (0, 0), BuildingBlock: ZUJKAS_clean_linker_0, # of connection points: 2
# Relax obj value: 0.148
# Max RMSD: 0.158
# Mean RMSD: 0.158
data_MOF--net-ukb--node1-NAHDIM_clean_sbu_0--edge1-ZUJKAS_clean_linker_0
_symmetry_space_group_name_H-M    P1
_symmetry_Int_Tables_number       1
_symmetry_cell_setting            triclinic
loop_
_symmetry_equiv_pos_as_xyz
'x, y, z'
_cell_length_a     55.654706
_cell_length_b     55.653017
_cell_length_c     49.146959
_cell_angle_alpha  89.967608
_cell_angle_beta   89.996981
_cell_angle_gamma 89.999834
loop_
_atom_site_label
_atom_site_type_symbol
_atom_site_fract_x
_atom_site_fract_y
_atom_site_fract_z
_atom_type_partial_charge
C0 C 0.46494 0.1993 0.19479 0.0
O1 O 0.47235 0.19182 0.17088 0.0
O2 O 0.5037 0.23045 0.14998 0.0
Zn3 Zn 0.50882 0.22479 0.19021 0.0
O4 O 0.53291 0.1983 0.19656 0.0
C5 C 0.53344 0.26988 0.1921 0.0
O6 O 0.53518 0.26535 0.16595 0.0
O7 O 0.47759 0.21457 0.20764 0.0
C8 C 0.55447 0.1997 0.18817 0.0
O9 O 0.56122 0.21869 0.17425 0.0
C10 C 0.50963 0.21567 0.13145 0.0
O11 O 0.51899 0.19486 0.13828 0.0
O12 O 0.52208 0.25518 0.20722 0.0
C13 C 0.3132 0.47449 0.71653 0.0
O14 O 0.32886 0.49068 0.70856 0.0
O15 O 0.27182 0.50901 0.66131 0.0
Zn16 Zn 0.28118 0.51197 0.70064 0.0
O17 O 0.30872 0.53523 0.70409 0.0
C18 C 0.23176 0.52278 0.71526 0.0
O19 O 0.22655 0.50787 0.6954 0.0
O20 O 0.29092 0.47941 0.71529 0.0
C21 C 0.30878 0.55522 0.6916 0.0
O22 O 0.29057 0.56071 0.67575 0.0
C23 C 0.28748 0.50546 0.64294 0.0
O24 O 0.31017 0.50339 0.64993 0.0
O25 O 0.25363 0.52625 0.72154 0.0
C26 C 0.03142 0.30594 0.19926 0.0
O27 O 0.02162 0.31368 0.17656 0.0
O28 O 0.99082 0.27019 0.15976 0.0
Zn29 Zn 0.98835 0.27894 0.19933 0.0
O30 O 0.96465 0.30624 0.20359 0.0
C31 C 0.98154 0.22875 0.21454 0.0
O32 O 0.99637 0.22444 0.19432 0.0
O33 O 0.02047 0.29005 0.21308 0.0
C34 C 0.94382 0.3026 0.2134 0.0
O35 O 0.93757 0.28068 0.22034 0.0
C36 C 0.97247 0.26215 0.14738 0.0
O37 O 0.95221 0.25967 0.16083 0.0
O38 O 0.97657 0.25037 0.22063 0.0
C39 C 0.21184 0.04458 0.70213 0.0
O40 O 0.22207 0.04484 0.67805 0.0
O41 O 0.22364 0.99615 0.65852 0.0
Zn42 Zn 0.22097 0.9932 0.69931 0.0
O43 O 0.19526 0.96864 0.70788 0.0
C44 C 0.26943 0.97395 0.70125 0.0
O45 O 0.26671 0.97327 0.67473 0.0
O46 O 0.21021 0.02483 0.71503 0.0
C47 C 0.20003 0.94841 0.71864 0.0
O48 O 0.22241 0.94315 0.72466 0.0
C49 C 0.22017 0.97811 0.64315 0.0
O50 O 0.21483 0.95726 0.65413 0.0
O51 O 0.25267 0.98261 0.71586 0.0
C52 C 0.4553 0.27949 0.78844 0.0
O53 O 0.45533 0.26598 0.81036 0.0
O54 O 0.50528 0.26855 0.83209 0.0
Zn55 Zn 0.50765 0.2761 0.79216 0.0
O56 O 0.52939 0.30466 0.78604 0.0
C57 C 0.54175 0.24 0.78355 0.0
O58 O 0.5503 0.25106 0.80508 0.0
O59 O 0.47515 0.2848 0.77712 0.0
C60 C 0.54559 0.31162 0.8025 0.0
O61 O 0.54877 0.29998 0.82547 0.0
C62 C 0.4977 0.28341 0.84972 0.0
O63 O 0.49077 0.30489 0.84186 0.0
O64 O 0.52217 0.24743 0.77321 0.0
C65 C 0.20864 0.46361 0.30244 0.0
O66 O 0.21755 0.46318 0.32718 0.0
O67 O 0.23049 0.51143 0.34342 0.0
Zn68 Zn 0.22057 0.51468 0.30422 0.0
O69 O 0.19349 0.53857 0.3015 0.0
C70 C 0.27009 0.52341 0.28903 0.0
O71 O 0.27462 0.50956 0.31007 0.0
O72 O 0.2088 0.48318 0.28908 0.0
C73 C 0.19792 0.56095 0.30057 0.0
O74 O 0.22032 0.56829 0.30193 0.0
C75 C 0.21511 0.51241 0.36249 0.0
O76 O 0.19231 0.5153 0.35639 0.0
O77 O 0.2484 0.52732 0.2823 0.0
C78 C 0.03043 0.19618 0.80049 0.0
O79 O 0.01943 0.18499 0.82045 0.0
O80 O 0.98873 0.22618 0.84476 0.0
Zn81 Zn 0.98724 0.22254 0.8038 0.0
O82 O 0.96449 0.1958 0.79373 0.0
C83 C 0.96239 0.26771 0.80143 0.0
O84 O 0.95934 0.26295 0.82737 0.0
O85 O 0.02013 0.21408 0.7894 0.0
C86 C 0.94256 0.19655 0.8009 0.0
O87 O 0.9349 0.21491 0.81529 0.0
C88 C 0.98232 0.20983 0.86133 0.0
O89 O 0.97494 0.18904 0.85186 0.0
O90 O 0.97458 0.25322 0.78693 0.0
C91 C 0.29305 0.03858 0.3042 0.0
O92 O 0.28933 0.03571 0.33039 0.0
O93 O 0.26709 0.99097 0.34122 0.0
Zn94 Zn 0.27627 0.98935 0.30157 0.0
O95 O 0.30315 0.96555 0.2965 0.0
C96 C 0.22636 0.98305 0.28579 0.0
O97 O 0.2223 0.99912 0.30481 0.0
O98 O 0.28789 0.02154 0.28799 0.0
C99 C 0.2987 0.94316 0.29612 0.0
O100 O 0.27645 0.93582 0.29939 0.0
C101 C 0.28105 0.98339 0.35981 0.0
O102 O 0.3021 0.97451 0.3531 0.0
O103 O 0.24789 0.97721 0.28029 0.0
C104 C 0.53142 0.80627 0.79858 0.0
O105 O 0.52149 0.81514 0.82065 0.0
O106 O 0.48932 0.76969 0.83761 0.0
Zn107 Zn 0.48742 0.78044 0.79845 0.0
O108 O 0.46494 0.80874 0.79498 0.0
C109 C 0.47664 0.73153 0.78234 0.0
O110 O 0.48938 0.7261 0.80399 0.0
O111 O 0.52016 0.79032 0.78518 0.0
C112 C 0.44253 0.80517 0.79202 0.0
O113 O 0.43439 0.78301 0.79174 0.0
C114 C 0.48327 0.78326 0.85724 0.0
O115 O 0.47565 0.80513 0.85205 0.0
O116 O 0.47423 0.75345 0.77563 0.0
C117 C 0.69476 0.53535 0.2994 0.0
O118 O 0.6849 0.52419 0.32016 0.0
O119 O 0.72482 0.49328 0.3413 0.0
Zn120 Zn 0.72192 0.49261 0.3004 0.0
O121 O 0.69561 0.46917 0.29033 0.0
C122 C 0.77173 0.47714 0.29741 0.0
O123 O 0.77121 0.48104 0.32375 0.0
O124 O 0.71213 0.52535 0.28703 0.0
C125 C 0.70032 0.44872 0.28011 0.0
O126 O 0.72282 0.44271 0.27579 0.0
C127 C 0.72239 0.47406 0.35501 0.0
O128 O 0.71813 0.4538 0.34218 0.0
O129 O 0.75321 0.48188 0.28323 0.0
C130 C 0.97085 0.69225 0.80037 0.0
O131 O 0.98191 0.68356 0.82185 0.0
O132 O 0.00768 0.72529 0.84422 0.0
Zn133 Zn 0.01175 0.72099 0.80358 0.0
O134 O 0.03617 0.69521 0.79529 0.0
C135 C 0.034 0.76734 0.8021 0.0
O136 O 0.03576 0.76281 0.82825 0.0
O137 O 0.98019 0.70999 0.78795 0.0
C138 C 0.05857 0.69849 0.79869 0.0
O139 O 0.06615 0.71914 0.80837 0.0
C140 C 0.01927 0.71338 0.86198 0.0
O141 O 0.03433 0.6966 0.85413 0.0
O142 O 0.02345 0.75218 0.78684 0.0
C143 C 0.7862 0.96432 0.29692 0.0
O144 O 0.78093 0.96556 0.32292 0.0
O145 O 0.76818 0.01422 0.33711 0.0
Zn146 Zn 0.77708 0.01595 0.29745 0.0
O147 O 0.80658 0.0364 0.29285 0.0
C148 C 0.72836 0.02895 0.2826 0.0
O149 O 0.72257 0.01416 0.30239 0.0
O150 O 0.78474 0.98315 0.28234 0.0
C151 C 0.80711 0.05793 0.3014 0.0
O152 O 0.78818 0.06668 0.31395 0.0
C153 C 0.78417 0.01342 0.35554 0.0
O154 O 0.80695 0.01356 0.34849 0.0
O155 O 0.75037 0.03183 0.27657 0.0
C156 C 0.53904 0.71332 0.19848 0.0
O157 O 0.53942 0.72295 0.17407 0.0
O158 O 0.4896 0.72676 0.15502 0.0
Zn159 Zn 0.48706 0.72069 0.19528 0.0
O160 O 0.46448 0.69311 0.20243 0.0
C161 C 0.45825 0.76261 0.20015 0.0
O162 O 0.45254 0.75588 0.17537 0.0
O163 O 0.51917 0.71154 0.21108 0.0
C164 C 0.44487 0.69006 0.18963 0.0
O165 O 0.43884 0.70527 0.17036 0.0
C166 C 0.49254 0.71035 0.13737 0.0
O167 O 0.49478 0.68794 0.14539 0.0
O168 O 0.47357 0.75033 0.2134 0.0
C169 C 0.79723 0.53085 0.69331 0.0
O170 O 0.80156 0.52169 0.66916 0.0
O171 O 0.76305 0.4887 0.65728 0.0
Zn172 Zn 0.77115 0.48729 0.69714 0.0
O173 O 0.79776 0.4631 0.70258 0.0
C174 C 0.72075 0.48052 0.7101 0.0
O175 O 0.71746 0.49309 0.68777 0.0
O176 O 0.78354 0.51945 0.70952 0.0
C177 C 0.79356 0.44184 0.71081 0.0
O178 O 0.77128 0.43533 0.71567 0.0
C179 C 0.75613 0.47001 0.64469 0.0
O180 O 0.75397 0.44971 0.65812 0.0
O181 O 0.74203 0.47684 0.71851 0.0
C182 C 0.9599 0.80098 0.198 0.0
O183 O 0.96604 0.80342 0.17235 0.0
O184 O 0.00549 0.77595 0.15987 0.0
Zn185 Zn 0.00764 0.78233 0.20039 0.0
O186 O 0.02999 0.81018 0.20818 0.0
C187 C 0.0338 0.73838 0.20543 0.0
O188 O 0.03761 0.74307 0.1796 0.0
O189 O 0.97477 0.7915 0.21447 0.0
C190 C 0.05271 0.80802 0.20699 0.0
O191 O 0.06203 0.7872 0.2002 0.0
C192 C 0.01797 0.78686 0.14206 0.0
O193 O 0.03302 0.80371 0.1497 0.0
O194 O 0.02063 0.75257 0.2192 0.0
C195 C 0.71386 0.95726 0.69784 0.0
O196 O 0.723 0.95687 0.67321 0.0
O197 O 0.73255 0.00608 0.65577 0.0
Zn198 Zn 0.72363 0.00878 0.6953 0.0
O199 O 0.69598 0.03179 0.69881 0.0
C200 C 0.77302 0.02066 0.70883 0.0
O201 O 0.77809 0.00713 0.6877 0.0
O202 O 0.71322 0.97697 0.71088 0.0
C203 C 0.69931 0.05388 0.69347 0.0
O204 O 0.72064 0.06095 0.68525 0.0
C205 C 0.71641 0.00558 0.63751 0.0
O206 O 0.6937 0.00618 0.64481 0.0
O207 O 0.75125 0.02296 0.71621 0.0
H208 H 0.43321 0.16854 0.17102 0.0
H209 H 0.39959 0.14773 0.19233 0.0
H210 H 0.41373 0.1845 0.26786 0.0
H211 H 0.44774 0.20539 0.24669 0.0
H212 H 0.41042 0.13474 0.27292 0.0
H213 H 0.33265 0.17008 0.21519 0.0
H214 H 0.35644 0.15962 0.19357 0.0
H215 H 0.36152 0.18493 0.21561 0.0
C216 C 0.42901 0.17251 0.19207 0.0
C217 C 0.4432 0.18859 0.20718 0.0
C218 C 0.40964 0.16072 0.20415 0.0
C219 C 0.40394 0.16485 0.23154 0.0
C220 C 0.41773 0.18125 0.2466 0.0
H221 H 0.30826 0.07742 0.33364 0.0
H222 H 0.33313 0.11086 0.31777 0.0
C223 C 0.43712 0.19316 0.23448 0.0
C224 C 0.38507 0.15024 0.24489 0.0
H225 H 0.32648 0.13281 0.23897 0.0
C226 C 0.39194 0.13461 0.26589 0.0
C227 C 0.36103 0.15008 0.23556 0.0
C228 C 0.35238 0.16725 0.21391 0.0
C229 C 0.37573 0.11792 0.27687 0.0
C230 C 0.35189 0.11719 0.26688 0.0
C231 C 0.34478 0.1334 0.24654 0.0
C232 C 0.33465 0.09861 0.27604 0.0
C233 C 0.38459 0.10038 0.29807 0.0
C234 C 0.32643 0.08125 0.25758 0.0
C235 C 0.31211 0.0622 0.26651 0.0
C236 C 0.30573 0.06021 0.29411 0.0
C237 C 0.31303 0.0783 0.3123 0.0
C238 C 0.32732 0.09738 0.30331 0.0
H239 H 0.40451 0.10014 0.29945 0.0
H240 H 0.37738 0.1056 0.31827 0.0
H241 H 0.37824 0.0819 0.29349 0.0
H242 H 0.33182 0.08197 0.2364 0.0
H243 H 0.30671 0.04865 0.25194 0.0
H244 H 0.28669 0.43363 0.72588 0.0
H245 H 0.30177 0.39425 0.74085 0.0
H246 H 0.37372 0.42279 0.7442 0.0
H247 H 0.35902 0.46187 0.72923 0.0
H248 H 0.34033 0.36608 0.71332 0.0
H249 H 0.36162 0.39005 0.82008 0.0
H250 H 0.3404 0.40679 0.79965 0.0
H251 H 0.37214 0.41163 0.79562 0.0
C252 C 0.30569 0.43152 0.73 0.0
C253 C 0.32168 0.45086 0.72641 0.0
C254 C 0.31424 0.40904 0.73848 0.0
C255 C 0.33877 0.40579 0.74389 0.0
C256 C 0.35466 0.42508 0.74047 0.0
H257 H 0.44856 0.30591 0.7423 0.0
H258 H 0.41453 0.33176 0.73154 0.0
C259 C 0.34623 0.44738 0.73179 0.0
C260 C 0.3484 0.38213 0.75212 0.0
H261 H 0.38249 0.35601 0.80154 0.0
C262 C 0.34909 0.36358 0.73284 0.0
C263 C 0.35946 0.37884 0.77772 0.0
C264 C 0.35821 0.39779 0.79959 0.0
C265 C 0.36223 0.34247 0.73776 0.0
C266 C 0.37511 0.34012 0.76243 0.0
C267 C 0.37277 0.35788 0.78253 0.0
C268 C 0.39345 0.32118 0.76657 0.0
C269 C 0.36286 0.32325 0.71616 0.0
C270 C 0.39287 0.30646 0.78977 0.0
C271 C 0.41243 0.29168 0.79608 0.0
C272 C 0.43302 0.29167 0.77947 0.0
C273 C 0.43301 0.30553 0.75555 0.0
C274 C 0.41344 0.32018 0.74922 0.0
H275 H 0.34624 0.32356 0.70362 0.0
H276 H 0.37831 0.3266 0.70239 0.0
H277 H 0.36495 0.3051 0.72525 0.0
H278 H 0.37768 0.30713 0.80354 0.0
H279 H 0.41189 0.28124 0.81467 0.0
H280 H 0.0561 0.29485 0.24587 0.0
H281 H 0.09138 0.31545 0.26435 0.0
H282 H 0.09247 0.36262 0.19472 0.0
H283 H 0.05753 0.34195 0.17587 0.0
H284 H 0.13843 0.34644 0.21074 0.0
H285 H 0.08585 0.38272 0.29789 0.0
H286 H 0.08559 0.35061 0.29423 0.0
H287 H 0.07171 0.36909 0.26871 0.0
C288 C 0.06397 0.30948 0.23437 0.0
C289 C 0.05385 0.31694 0.20953 0.0
C290 C 0.08406 0.32127 0.24502 0.0
C291 C 0.09425 0.3408 0.23111 0.0
C292 C 0.0848 0.34763 0.20581 0.0
H293 H 0.18998 0.45803 0.25143 0.0
H294 H 0.1654 0.42487 0.23472 0.0
C295 C 0.06478 0.33584 0.19512 0.0
C296 C 0.11399 0.35498 0.24332 0.0
H297 H 0.1265 0.39372 0.29522 0.0
C298 C 0.13593 0.35663 0.22934 0.0
C299 C 0.11065 0.36821 0.2676 0.0
C300 C 0.08715 0.36781 0.28295 0.0
C301 C 0.1545 0.37153 0.23877 0.0
C302 C 0.15085 0.38533 0.26255 0.0
C303 C 0.12925 0.38303 0.27703 0.0
C304 C 0.16823 0.4038 0.27161 0.0
C305 C 0.17779 0.37252 0.22311 0.0
C306 C 0.17795 0.40298 0.29793 0.0
C307 C 0.19197 0.42199 0.30762 0.0
C308 C 0.19623 0.44228 0.29123 0.0
C309 C 0.18705 0.44268 0.26458 0.0
C310 C 0.17314 0.42364 0.2549 0.0
H311 H 0.18053 0.356 0.2108 0.0
H312 H 0.17732 0.38806 0.20896 0.0
H313 H 0.19336 0.37482 0.23699 0.0
H314 H 0.17419 0.38789 0.3112 0.0
H315 H 0.19875 0.42113 0.32825 0.0
H316 H 0.20576 0.08794 0.67662 0.0
H317 H 0.18162 0.12201 0.69232 0.0
H318 H 0.16612 0.08426 0.76694 0.0
H319 H 0.19028 0.05032 0.75162 0.0
H320 H 0.13315 0.11851 0.7035 0.0
H321 H 0.18157 0.15166 0.79422 0.0
H322 H 0.19564 0.13274 0.76895 0.0
H323 H 0.17718 0.11973 0.79518 0.0
C324 C 0.19761 0.08709 0.69661 0.0
C325 C 0.19985 0.06636 0.71283 0.0
C326 C 0.18383 0.10658 0.70553 0.0
C327 C 0.17233 0.10579 0.73092 0.0
C328 C 0.17526 0.08549 0.74753 0.0
H329 H 0.05647 0.15882 0.82068 0.0
H330 H 0.09307 0.14133 0.80204 0.0
C331 C 0.18894 0.066 0.73863 0.0
C332 C 0.15504 0.12475 0.73891 0.0
H333 H 0.13917 0.16095 0.79196 0.0
C334 C 0.13468 0.12826 0.72253 0.0
C335 C 0.15714 0.13743 0.76371 0.0
C336 C 0.1792 0.1354 0.78139 0.0
C337 C 0.11555 0.14278 0.73121 0.0
C338 C 0.11708 0.15439 0.75675 0.0
C339 C 0.13803 0.15196 0.77242 0.0
C340 C 0.0961 0.16674 0.76889 0.0
C341 C 0.09325 0.14433 0.71381 0.0
C342 C 0.08593 0.18718 0.75673 0.0
C343 C 0.06483 0.19722 0.7673 0.0
C344 C 0.05367 0.18699 0.79024 0.0
C345 C 0.06448 0.16707 0.80289 0.0
C346 C 0.08548 0.15708 0.79233 0.0
H347 H 0.09347 0.1311 0.69689 0.0
H348 H 0.07691 0.14121 0.72629 0.0
H349 H 0.09194 0.16259 0.70486 0.0
H350 H 0.09408 0.19511 0.73884 0.0
H351 H 0.05703 0.21267 0.7572 0.0
H352 H 0.55835 0.84203 0.82116 0.0
H353 H 0.59463 0.86051 0.80271 0.0
H354 H 0.5935 0.81094 0.73531 0.0
H355 H 0.55684 0.79252 0.75338 0.0
H356 H 0.64027 0.84194 0.78928 0.0
H357 H 0.59182 0.87701 0.69842 0.0
H358 H 0.57624 0.865 0.72759 0.0
H359 H 0.59031 0.8451 0.70364 0.0
C360 C 0.56585 0.83492 0.80249 0.0
C361 C 0.55453 0.81599 0.78855 0.0
C362 C 0.58665 0.84546 0.79203 0.0
C363 C 0.59652 0.83732 0.76746 0.0
C364 C 0.58589 0.81776 0.75406 0.0
H365 H 0.70513 0.91439 0.67236 0.0
H366 H 0.68027 0.88119 0.68902 0.0
C367 C 0.565 0.80722 0.76447 0.0
C368 C 0.61718 0.85026 0.75539 0.0
H369 H 0.63247 0.88729 0.70281 0.0
C370 C 0.63869 0.85166 0.77023 0.0
C371 C 0.61506 0.86286 0.73049 0.0
C372 C 0.5921 0.86266 0.71413 0.0
C373 C 0.65796 0.86583 0.76114 0.0
C374 C 0.65545 0.87918 0.73683 0.0
C375 C 0.63434 0.87697 0.72142 0.0
C376 C 0.67334 0.89737 0.72826 0.0
C377 C 0.68069 0.86664 0.77781 0.0
C378 C 0.67789 0.91731 0.74493 0.0
C379 C 0.69198 0.9363 0.73547 0.0
C380 C 0.70169 0.93579 0.70907 0.0
C381 C 0.69792 0.91534 0.6928 0.0
C382 C 0.68373 0.89636 0.70227 0.0
H383 H 0.68279 0.85014 0.79033 0.0
H384 H 0.69678 0.8687 0.76464 0.0
H385 H 0.6799 0.88222 0.79186 0.0
H386 H 0.66963 0.9187 0.76483 0.0
H387 H 0.69452 0.95177 0.74853 0.0
H388 H 0.5445 0.69317 0.24876 0.0
H389 H 0.57834 0.66947 0.26522 0.0
H390 H 0.61673 0.68339 0.19064 0.0
H391 H 0.58273 0.70704 0.17378 0.0
H392 H 0.61295 0.63522 0.20299 0.0
H393 H 0.64549 0.68521 0.29296 0.0
H394 H 0.61357 0.68069 0.29364 0.0
H395 H 0.62672 0.69883 0.26722 0.0
C396 C 0.5603 0.69161 0.23602 0.0
C397 C 0.56085 0.70189 0.20988 0.0
C398 C 0.57974 0.6782 0.24558 0.0
C399 C 0.60018 0.67492 0.2293 0.0
C400 C 0.60118 0.68587 0.20359 0.0
H401 H 0.70935 0.56244 0.25575 0.0
H402 H 0.69017 0.59877 0.23777 0.0
C403 C 0.58174 0.69938 0.19402 0.0
C404 C 0.61904 0.65774 0.23791 0.0
H405 H 0.65542 0.64301 0.29128 0.0
C406 C 0.62266 0.63713 0.222 0.0
C407 C 0.63161 0.66029 0.26274 0.0
C408 C 0.62934 0.68258 0.27999 0.0
C409 C 0.63738 0.61829 0.23105 0.0
C410 C 0.64911 0.62036 0.25648 0.0
C411 C 0.64636 0.64146 0.27182 0.0
C412 C 0.66241 0.59994 0.26857 0.0
C413 C 0.63913 0.59575 0.21407 0.0
C414 C 0.65366 0.58913 0.29236 0.0
C415 C 0.66461 0.56851 0.30275 0.0
C416 C 0.68456 0.55832 0.28954 0.0
C417 C 0.69389 0.56974 0.26628 0.0
C418 C 0.68292 0.59044 0.25592 0.0
H419 H 0.62546 0.59532 0.1976 0.0
H420 H 0.65716 0.59484 0.20451 0.0
H421 H 0.63682 0.57952 0.22696 0.0
H422 H 0.63788 0.59623 0.30246 0.0
H423 H 0.65704 0.56027 0.32078 0.0
H424 H 0.94514 0.70279 0.75413 0.0
H425 H 0.91143 0.67989 0.73508 0.0
H426 H 0.91383 0.63164 0.80369 0.0
H427 H 0.94737 0.6542 0.8228 0.0
H428 H 0.91723 0.60976 0.75067 0.0
H429 H 0.8395 0.67216 0.7603 0.0
H430 H 0.86681 0.6842 0.74614 0.0
H431 H 0.86616 0.67491 0.78107 0.0
C432 C 0.93824 0.68752 0.76535 0.0
C433 C 0.94904 0.68021 0.78989 0.0
C434 C 0.91893 0.67455 0.75451 0.0
C435 C 0.91012 0.6542 0.7681 0.0
C436 C 0.92036 0.64736 0.79297 0.0
H437 H 0.79541 0.55268 0.74327 0.0
H438 H 0.82137 0.58506 0.75988 0.0
C439 C 0.93957 0.66027 0.80382 0.0
C440 C 0.8918 0.63858 0.75541 0.0
H441 H 0.83253 0.63521 0.73772 0.0
C442 C 0.89873 0.61533 0.74774 0.0
C443 C 0.86771 0.64596 0.75181 0.0
C444 C 0.8594 0.67061 0.76038 0.0
C445 C 0.88217 0.59915 0.73661 0.0
C446 C 0.8581 0.60652 0.73284 0.0
C447 C 0.85108 0.62977 0.7405 0.0
C448 C 0.84004 0.58978 0.72166 0.0
C449 C 0.89041 0.5741 0.72944 0.0
C450 C 0.84154 0.58233 0.69448 0.0
C451 C 0.82682 0.56385 0.68494 0.0
C452 C 0.81036 0.5525 0.70247 0.0
C453 C 0.80799 0.56096 0.7293 0.0
C454 C 0.82273 0.5795 0.73881 0.0
H455 H 0.90843 0.56997 0.73799 0.0
H456 H 0.8774 0.56053 0.73703 0.0
H457 H 0.89142 0.57233 0.70697 0.0
H458 H 0.85473 0.59021 0.68094 0.0
H459 H 0.82898 0.55791 0.6641 0.0
H460 H 0.7963 0.9546 0.24365 0.0
H461 H 0.82005 0.92121 0.22588 0.0
H462 H 0.82576 0.89148 0.30669 0.0
H463 H 0.80156 0.92451 0.32456 0.0
H464 H 0.86611 0.91437 0.2415 0.0
H465 H 0.81376 0.8315 0.26185 0.0
H466 H 0.80043 0.86108 0.26273 0.0
H467 H 0.81755 0.85024 0.29125 0.0
C468 C 0.80214 0.94067 0.25756 0.0
C469 C 0.7972 0.9423 0.28555 0.0
C470 C 0.81569 0.92159 0.24736 0.0
C471 C 0.82455 0.90377 0.26492 0.0
C472 C 0.8187 0.90473 0.29267 0.0
H473 H 0.94372 0.80437 0.25063 0.0
H474 H 0.90886 0.82722 0.26685 0.0
C475 C 0.80498 0.92374 0.30288 0.0
C476 C 0.84237 0.88613 0.25479 0.0
H477 H 0.85515 0.8262 0.24995 0.0
C478 C 0.86356 0.8951 0.24311 0.0
C479 C 0.83914 0.86099 0.25719 0.0
C480 C 0.81639 0.85034 0.26871 0.0
C481 C 0.88173 0.87967 0.23402 0.0
C482 C 0.87854 0.85459 0.23644 0.0
C483 C 0.85744 0.84549 0.24817 0.0
C484 C 0.89716 0.8378 0.22663 0.0
C485 C 0.90443 0.89031 0.22225 0.0
C486 C 0.90156 0.83567 0.19867 0.0
C487 C 0.9214 0.82275 0.18936 0.0
C488 C 0.93721 0.81173 0.20788 0.0
C489 C 0.93195 0.81275 0.23586 0.0
C490 C 0.91203 0.82572 0.24516 0.0
H491 H 0.90592 0.90988 0.22642 0.0
H492 H 0.92052 0.88114 0.23068 0.0
H493 H 0.90448 0.88768 0.19987 0.0
H494 H 0.89014 0.8448 0.1841 0.0
H495 H 0.92478 0.82215 0.16767 0.0
H496 H 0.56127 0.30235 0.16516 0.0
H497 H 0.58563 0.33444 0.1845 0.0
H498 H 0.55927 0.31714 0.26468 0.0
H499 H 0.53509 0.28444 0.2455 0.0
H500 H 0.57437 0.37469 0.21418 0.0
H501 H 0.63192 0.31226 0.27393 0.0
H502 H 0.61133 0.30185 0.24817 0.0
H503 H 0.60031 0.3106 0.28107 0.0
C504 C 0.5605 0.30538 0.18691 0.0
C505 C 0.54641 0.29065 0.20383 0.0
C506 C 0.57442 0.3238 0.19792 0.0
C507 C 0.57457 0.32793 0.22606 0.0
C508 C 0.55979 0.31393 0.24296 0.0
H509 H 0.65226 0.45318 0.29125 0.0
H510 H 0.62021 0.42459 0.28043 0.0
C511 C 0.54589 0.29535 0.23195 0.0
C512 C 0.59093 0.34639 0.23742 0.0
H513 H 0.64093 0.35347 0.27685 0.0
C514 C 0.58881 0.37014 0.22808 0.0
C515 C 0.60989 0.34028 0.2553 0.0
C516 C 0.61373 0.31485 0.26509 0.0
C517 C 0.60547 0.38787 0.23563 0.0
C518 C 0.62448 0.38173 0.25344 0.0
C519 C 0.62626 0.35812 0.2633 0.0
C520 C 0.64371 0.39904 0.2606 0.0
C521 C 0.60319 0.41269 0.22353 0.0
C522 C 0.66761 0.39388 0.25364 0.0
C523 C 0.68596 0.41002 0.26001 0.0
C524 C 0.68077 0.43168 0.27348 0.0
C525 C 0.65682 0.43674 0.28065 0.0
C526 C 0.63846 0.42048 0.27439 0.0
H527 H 0.59101 0.41292 0.20561 0.0
H528 H 0.59569 0.42507 0.23905 0.0
H529 H 0.62101 0.4197 0.2172 0.0
H530 H 0.67205 0.3774 0.24303 0.0
H531 H 0.70419 0.40554 0.25423 0.0
H532 H 0.23733 0.55852 0.75282 0.0
H533 H 0.20668 0.58615 0.76971 0.0
H534 H 0.15269 0.54896 0.72302 0.0
H535 H 0.18325 0.52113 0.70593 0.0
H536 H 0.17793 0.61536 0.73297 0.0
H537 H 0.12258 0.55735 0.80062 0.0
H538 H 0.15316 0.54996 0.79151 0.0
H539 H 0.12936 0.54559 0.7674 0.0
C540 C 0.21889 0.55593 0.74644 0.0
C541 C 0.21275 0.53765 0.72792 0.0
C542 C 0.20141 0.57177 0.75611 0.0
C543 C 0.17745 0.56948 0.74772 0.0
C544 C 0.17106 0.5508 0.73 0.0
H545 H 0.04947 0.65574 0.77322 0.0
H546 H 0.07839 0.62447 0.76095 0.0
C547 C 0.18856 0.53498 0.72018 0.0
C548 C 0.15964 0.58787 0.75576 0.0
H549 H 0.10829 0.59674 0.79236 0.0
C550 C 0.16275 0.61136 0.74605 0.0
C551 C 0.13978 0.58244 0.77257 0.0
C552 C 0.13597 0.55752 0.78386 0.0
C553 C 0.14634 0.62962 0.75247 0.0
C554 C 0.12664 0.62433 0.76968 0.0
C555 C 0.12346 0.60076 0.77927 0.0
C556 C 0.10911 0.64304 0.77783 0.0
C557 C 0.14996 0.65422 0.7402 0.0
C558 C 0.11674 0.66367 0.79181 0.0
C559 C 0.10031 0.68166 0.79864 0.0
C560 C 0.07588 0.67921 0.79195 0.0
C561 C 0.06818 0.65822 0.77859 0.0
C562 C 0.08467 0.64031 0.7716 0.0
H563 H 0.16149 0.65349 0.72176 0.0
H564 H 0.13253 0.66258 0.73462 0.0
H565 H 0.159 0.66599 0.75528 0.0
H566 H 0.13543 0.66587 0.79741 0.0
H567 H 0.10678 0.69748 0.80918 0.0
H568 H 0.81353 0.1051 0.31528 0.0
H569 H 0.84742 0.1311 0.30344 0.0
H570 H 0.8825 0.07165 0.26367 0.0
H571 H 0.84865 0.04553 0.27516 0.0
H572 H 0.89811 0.12642 0.31482 0.0
H573 H 0.87733 0.124 0.2041 0.0
H574 H 0.85607 0.11444 0.22963 0.0
H575 H 0.8807 0.09528 0.22037 0.0
C576 C 0.8285 0.0975 0.30413 0.0
C577 C 0.82827 0.0733 0.29593 0.0
C578 C 0.84786 0.11237 0.29745 0.0
C579 C 0.86726 0.10335 0.28237 0.0
C580 C 0.86749 0.07903 0.27494 0.0
H581 H 0.98527 0.1805 0.20439 0.0
H582 H 0.96032 0.14829 0.22321 0.0
C583 C 0.84816 0.06413 0.28161 0.0
C584 C 0.88681 0.11964 0.27364 0.0
H585 H 0.91153 0.14585 0.21746 0.0
C586 C 0.90115 0.13062 0.29354 0.0
C587 C 0.89073 0.12497 0.24586 0.0
C588 C 0.87532 0.11425 0.22369 0.0
C589 C 0.91933 0.14694 0.28637 0.0
C590 C 0.92288 0.15271 0.25861 0.0
C591 C 0.90885 0.14132 0.23871 0.0
C592 C 0.93989 0.17164 0.24972 0.0
C593 C 0.93463 0.15775 0.30854 0.0
C594 C 0.9368 0.19541 0.25856 0.0
C595 C 0.95103 0.21381 0.24792 0.0
C596 C 0.96848 0.20885 0.22799 0.0
C597 C 0.97201 0.18493 0.21972 0.0
C598 C 0.95776 0.1665 0.23043 0.0
H599 H 0.93496 0.14614 0.32694 0.0
H600 H 0.95337 0.16065 0.30151 0.0
H601 H 0.92698 0.17539 0.31452 0.0
H602 H 0.92275 0.19989 0.27294 0.0
H603 H 0.94776 0.23204 0.25467 0.0
H604 H 0.28235 0.97372 0.75513 0.0
H605 H 0.31524 0.95113 0.77621 0.0
H606 H 0.33589 0.92398 0.69739 0.0
H607 H 0.3038 0.94702 0.6762 0.0
H608 H 0.32052 0.90437 0.77817 0.0
H609 H 0.40028 0.94153 0.7267 0.0
H610 H 0.37129 0.95598 0.72498 0.0
H611 H 0.37871 0.93184 0.702 0.0
C612 C 0.29421 0.9633 0.74226 0.0
C613 C 0.29049 0.96222 0.71398 0.0
C614 C 0.31297 0.95038 0.75433 0.0
C615 C 0.32833 0.93615 0.73836 0.0
C616 C 0.32481 0.93537 0.71009 0.0
H617 H 0.396 0.80335 0.77488 0.0
H618 H 0.36913 0.83694 0.76556 0.0
C619 C 0.30626 0.94844 0.698 0.0
C620 C 0.34659 0.92035 0.75123 0.0
H621 H 0.40453 0.90111 0.74471 0.0
C622 C 0.33901 0.90397 0.7712 0.0
C623 C 0.37087 0.92009 0.74266 0.0
C624 C 0.3808 0.93852 0.72314 0.0
C625 C 0.35463 0.88643 0.78159 0.0
C626 C 0.37826 0.88474 0.7711 0.0
C627 C 0.38628 0.90206 0.75239 0.0
C628 C 0.39443 0.8644 0.77796 0.0
C629 C 0.34553 0.8698 0.80356 0.0
C630 C 0.41793 0.86861 0.78724 0.0
C631 C 0.43355 0.84938 0.79209 0.0
C632 C 0.42592 0.82559 0.7878 0.0
C633 C 0.40236 0.82144 0.77868 0.0
C634 C 0.38688 0.84065 0.77355 0.0
H635 H 0.33133 0.8786 0.81594 0.0
H636 H 0.33746 0.85365 0.794 0.0
H637 H 0.36024 0.86396 0.81732 0.0
H638 H 0.42422 0.88679 0.79059 0.0
H639 H 0.45161 0.85316 0.79911 0.0
H640 H 0.58539 0.22294 0.79925 0.0
H641 H 0.60792 0.18956 0.77993 0.0
H642 H 0.55101 0.17682 0.72214 0.0
H643 H 0.52835 0.21073 0.74112 0.0
H644 H 0.59508 0.14203 0.77674 0.0
H645 H 0.61078 0.18047 0.67376 0.0
H646 H 0.60022 0.19839 0.70193 0.0
H647 H 0.57992 0.17871 0.68434 0.0
C648 C 0.57761 0.21314 0.78237 0.0
C649 C 0.55509 0.21955 0.77166 0.0
C650 C 0.59053 0.19402 0.77138 0.0
C651 C 0.58127 0.18087 0.74943 0.0
C652 C 0.55868 0.18702 0.73877 0.0
H653 H 0.65227 0.04508 0.7064 0.0
H654 H 0.62117 0.07459 0.71745 0.0
C655 C 0.54571 0.2063 0.74972 0.0
C656 C 0.59539 0.16056 0.7383 0.0
H657 H 0.62646 0.14184 0.68228 0.0
C658 C 0.60179 0.14185 0.75602 0.0
C659 C 0.60424 0.16055 0.71133 0.0
C660 C 0.59866 0.18067 0.69172 0.0
C661 C 0.61734 0.12342 0.74776 0.0
C662 C 0.62628 0.12341 0.7208 0.0
C663 C 0.61942 0.14183 0.70286 0.0
C664 C 0.64419 0.10549 0.71156 0.0
C665 C 0.62492 0.10476 0.76837 0.0
C666 C 0.66713 0.11313 0.70346 0.0
C667 C 0.68485 0.09635 0.69684 0.0
C668 C 0.67997 0.0716 0.69828 0.0
C669 C 0.65669 0.06402 0.7054 0.0
C670 C 0.63891 0.08084 0.71183 0.0
H671 H 0.62086 0.11049 0.78953 0.0
H672 H 0.61506 0.08779 0.76443 0.0
H673 H 0.64446 0.10099 0.76681 0.0
H674 H 0.67155 0.13209 0.70303 0.0
H675 H 0.70256 0.1028 0.69133 0.0
H676 H 0.39943 0.68135 0.17076 0.0
H677 H 0.37165 0.64991 0.18569 0.0
H678 H 0.42565 0.62213 0.2402 0.0
H679 H 0.45339 0.65371 0.22581 0.0
H680 H 0.37513 0.59971 0.18491 0.0
H681 H 0.3687 0.63439 0.29063 0.0
H682 H 0.38183 0.65163 0.26332 0.0
H683 H 0.39879 0.62815 0.27953 0.0
C684 C 0.40544 0.66851 0.18587 0.0
C685 C 0.42853 0.6702 0.19731 0.0
C686 C 0.38955 0.65054 0.19434 0.0
C687 C 0.39647 0.63397 0.21439 0.0
C688 C 0.41979 0.63507 0.22514 0.0
H689 H 0.31807 0.52245 0.30115 0.0
H690 H 0.34988 0.54712 0.28113 0.0
C691 C 0.43564 0.65309 0.2168 0.0
C692 C 0.3791 0.61586 0.22446 0.0
H693 H 0.34924 0.59754 0.28148 0.0
C694 C 0.36944 0.59921 0.20601 0.0
C695 C 0.37172 0.6153 0.25201 0.0
C696 C 0.3806 0.63344 0.27251 0.0
C697 C 0.35272 0.58183 0.21446 0.0
C698 C 0.3453 0.58136 0.24197 0.0
C699 C 0.35511 0.59787 0.26043 0.0
C700 C 0.3266 0.56461 0.25196 0.0
C701 C 0.34331 0.56399 0.19397 0.0
C702 C 0.30302 0.56616 0.24203 0.0
C703 C 0.2848 0.55213 0.25344 0.0
C704 C 0.28981 0.53637 0.27511 0.0
C705 C 0.3136 0.53438 0.28449 0.0
C706 C 0.3318 0.54846 0.27309 0.0
H707 H 0.35535 0.56254 0.176 0.0
H708 H 0.34124 0.54591 0.20325 0.0
H709 H 0.3254 0.56998 0.18672 0.0
H710 H 0.29853 0.57884 0.2261 0.0
H711 H 0.26666 0.55417 0.24578 0.0
H712 H 0.84155 0.44875 0.701 0.0
H713 H 0.87454 0.42081 0.71026 0.0
H714 H 0.82391 0.36899 0.74146 0.0
H715 H 0.79087 0.39651 0.73182 0.0
H716 H 0.88871 0.40252 0.75877 0.0
H717 H 0.86328 0.3282 0.68997 0.0
H718 H 0.8501 0.35777 0.68746 0.0
H719 H 0.83899 0.33647 0.71204 0.0
C720 C 0.83741 0.43131 0.70959 0.0
C721 C 0.81356 0.42482 0.71559 0.0
C722 C 0.85629 0.41537 0.71486 0.0
C723 C 0.85165 0.39265 0.72609 0.0
C724 C 0.82786 0.38617 0.73212 0.0
H725 H 0.9337 0.30044 0.82682 0.0
H726 H 0.91012 0.33243 0.80608 0.0
C727 C 0.80899 0.40202 0.72677 0.0
C728 C 0.87167 0.37619 0.73308 0.0
H729 H 0.89046 0.31813 0.72639 0.0
C730 C 0.88932 0.38417 0.75137 0.0
C731 C 0.87276 0.3524 0.723 0.0
C732 C 0.85541 0.34328 0.7018 0.0
C733 C 0.90722 0.36859 0.76103 0.0
C734 C 0.90714 0.34428 0.75261 0.0
C735 C 0.89034 0.33668 0.73313 0.0
C736 C 0.92308 0.32604 0.76519 0.0
C737 C 0.92588 0.37828 0.7804 0.0
C738 C 0.93797 0.31151 0.74904 0.0
C739 C 0.95137 0.29294 0.76085 0.0
C740 C 0.94994 0.28851 0.78899 0.0
C741 C 0.93533 0.3034 0.80511 0.0
C742 C 0.92195 0.32187 0.79331 0.0
H743 H 0.92859 0.39789 0.77744 0.0
H744 H 0.91968 0.37547 0.80162 0.0
H745 H 0.9434 0.36902 0.77778 0.0
H746 H 0.93896 0.31432 0.72726 0.0
H747 H 0.96241 0.28176 0.74785 0.0
H748 H 0.03991 0.85212 0.22707 0.0
H749 H 0.06643 0.88611 0.23724 0.0
H750 H 0.12751 0.84497 0.21006 0.0
H751 H 0.10127 0.81094 0.1999 0.0
H752 H 0.10743 0.88439 0.27396 0.0
H753 H 0.13272 0.91037 0.16871 0.0
H754 H 0.10633 0.89266 0.17632 0.0
H755 H 0.13551 0.87887 0.17618 0.0
C756 C 0.05897 0.85035 0.2231 0.0
C757 C 0.06849 0.82882 0.21266 0.0
C758 C 0.07406 0.86978 0.22891 0.0
C759 C 0.09883 0.86812 0.22404 0.0
C760 C 0.10837 0.84673 0.21352 0.0
H761 H 0.22909 0.94443 0.25166 0.0
H762 H 0.19619 0.91906 0.23588 0.0
C763 C 0.09335 0.82725 0.2079 0.0
C764 C 0.11502 0.8882 0.23127 0.0
H765 H 0.15614 0.92711 0.20457 0.0
C766 C 0.11788 0.89401 0.25883 0.0
C767 C 0.12859 0.90057 0.21141 0.0
C768 C 0.12556 0.8955 0.18145 0.0
C769 C 0.13481 0.91116 0.26722 0.0
C770 C 0.1488 0.92323 0.24738 0.0
C771 C 0.14539 0.91788 0.21973 0.0
C772 C 0.16825 0.94012 0.25506 0.0
C773 C 0.13838 0.91532 0.29731 0.0
C774 C 0.16341 0.96085 0.27039 0.0
C775 C 0.18224 0.97535 0.27966 0.0
C776 C 0.20622 0.9695 0.27347 0.0
C777 C 0.21086 0.94943 0.25689 0.0
C778 C 0.19206 0.93489 0.24782 0.0
H779 H 0.13031 0.90073 0.30975 0.0
H780 H 0.15778 0.91662 0.30236 0.0
H781 H 0.12964 0.93246 0.30319 0.0
H782 H 0.14511 0.96554 0.27564 0.0
H783 H 0.17804 0.9908 0.29216 0.0
H784 H 0.31397 0.59999 0.6693 0.0
H785 H 0.34545 0.62949 0.67893 0.0
H786 H 0.37929 0.57952 0.73401 0.0
H787 H 0.34818 0.54983 0.72424 0.0
H788 H 0.35503 0.64885 0.72935 0.0
H789 H 0.43605 0.60321 0.68901 0.0
H790 H 0.40594 0.59397 0.68017 0.0
H791 H 0.41897 0.58493 0.71207 0.0
C792 C 0.32828 0.59516 0.6832 0.0
C793 C 0.32855 0.57257 0.69603 0.0
C794 C 0.34625 0.61203 0.68866 0.0
C795 C 0.36488 0.60657 0.70688 0.0
C796 C 0.36539 0.58391 0.7194 0.0
H797 H 0.4743 0.68352 0.79412 0.0
H798 H 0.44801 0.6535 0.77325 0.0
C799 C 0.34746 0.56703 0.71395 0.0
C800 C 0.38267 0.62518 0.71452 0.0
H801 H 0.44284 0.63678 0.71843 0.0
C802 C 0.37422 0.64637 0.72665 0.0
C803 C 0.40768 0.6218 0.71109 0.0
C804 C 0.41773 0.59985 0.69714 0.0
C805 C 0.39012 0.66396 0.73626 0.0
C806 C 0.41515 0.66042 0.73321 0.0
C807 C 0.42363 0.6394 0.72072 0.0
C808 C 0.43272 0.67804 0.74382 0.0
C809 C 0.38003 0.68578 0.75048 0.0
C810 C 0.43334 0.70156 0.73358 0.0
C811 C 0.44826 0.71878 0.7455 0.0
C812 C 0.46294 0.71272 0.76777 0.0
C813 C 0.46314 0.68882 0.77708 0.0
C814 C 0.44816 0.67162 0.76517 0.0
H815 H 0.36097 0.68319 0.75651 0.0
H816 H 0.39067 0.69014 0.76894 0.0
H817 H 0.38091 0.70144 0.73653 0.0
H818 H 0.42185 0.70674 0.71678 0.0
H819 H 0.44781 0.73697 0.73768 0.0
H820 H 0.94799 0.34915 0.19562 0.0
H821 H 0.92041 0.38257 0.20445 0.0
H822 H 0.87477 0.33531 0.25107 0.0
H823 H 0.90173 0.3018 0.24168 0.0
H824 H 0.84899 0.36333 0.21772 0.0
H825 H 0.91447 0.41913 0.27503 0.0
H826 H 0.92361 0.41163 0.24105 0.0
H827 H 0.9204 0.38827 0.26608 0.0
C828 C 0.93206 0.3459 0.20773 0.0
C829 C 0.9271 0.32285 0.21807 0.0
C830 C 0.9164 0.36505 0.2129 0.0
C831 C 0.89575 0.36154 0.22883 0.0
C832 C 0.89063 0.33846 0.23878 0.0
H833 H 0.80888 0.45522 0.32373 0.0
H834 H 0.83976 0.42947 0.30402 0.0
C835 C 0.90609 0.31931 0.23341 0.0
C836 C 0.87926 0.38169 0.2353 0.0
H837 H 0.87584 0.43552 0.26841 0.0
C838 C 0.85486 0.3792 0.22866 0.0
C839 C 0.88697 0.40229 0.24976 0.0
C840 C 0.91274 0.40549 0.25864 0.0
C841 C 0.83781 0.39634 0.23675 0.0
C842 C 0.84551 0.41697 0.25116 0.0
C843 C 0.87002 0.4198 0.25716 0.0
C844 C 0.82817 0.43464 0.26238 0.0
C845 C 0.81161 0.39151 0.23094 0.0
C846 C 0.81184 0.44675 0.24546 0.0
C847 C 0.79389 0.46127 0.25673 0.0
C848 C 0.79228 0.46426 0.28509 0.0
C849 C 0.80957 0.45326 0.30182 0.0
C850 C 0.82727 0.43854 0.29057 0.0
H851 H 0.80832 0.37237 0.22571 0.0
H852 H 0.80025 0.39625 0.24872 0.0
H853 H 0.80579 0.40261 0.21338 0.0
H854 H 0.8126 0.44454 0.22359 0.0
H855 H 0.78099 0.46972 0.24328 0.0
H856 H 0.03676 0.78128 0.74852 0.0
H857 H 0.06072 0.81431 0.72964 0.0
H858 H 0.08383 0.83362 0.81048 0.0
H859 H 0.05968 0.80122 0.8295 0.0
H860 H 0.07291 0.87309 0.7792 0.0
H861 H 0.13377 0.81058 0.72398 0.0
H862 H 0.10248 0.8082 0.71544 0.0
H863 H 0.11245 0.8003 0.74905 0.0
C864 C 0.04676 0.79273 0.76227 0.0
C865 C 0.04649 0.78847 0.79049 0.0
C866 C 0.06055 0.81149 0.75144 0.0
C867 C 0.0744 0.82612 0.76863 0.0
C868 C 0.07335 0.82249 0.79684 0.0
H869 H 0.20367 0.9056 0.74542 0.0
H870 H 0.17161 0.87696 0.75539 0.0
C871 C 0.05955 0.80388 0.80766 0.0
C872 C 0.09084 0.84466 0.75756 0.0
H873 H 0.14227 0.85185 0.72057 0.0
C874 C 0.08796 0.86854 0.76616 0.0
C875 C 0.1106 0.83855 0.74082 0.0
C876 C 0.11523 0.81301 0.73191 0.0
C877 C 0.10464 0.88639 0.75902 0.0
C878 C 0.12445 0.88025 0.74238 0.0
C879 C 0.12699 0.8565 0.73322 0.0
C880 C 0.14367 0.89775 0.73579 0.0
C881 C 0.10148 0.91139 0.77037 0.0
C882 C 0.13863 0.91885 0.72122 0.0
C883 C 0.15692 0.93538 0.71565 0.0
C884 C 0.18061 0.93095 0.72432 0.0
C885 C 0.18563 0.90959 0.7385 0.0
C886 C 0.16733 0.89317 0.74417 0.0
H887 H 0.08858 0.91174 0.78762 0.0
H888 H 0.11891 0.9188 0.77744 0.0
H889 H 0.09443 0.92336 0.75417 0.0
H890 H 0.12059 0.92249 0.71408 0.0
H891 H 0.1525 0.95156 0.70447 0.0
H892 H 0.54709 0.15965 0.21938 0.0
H893 H 0.57663 0.12923 0.23245 0.0
H894 H 0.63068 0.16558 0.1849 0.0
H895 H 0.60139 0.19633 0.17208 0.0
H896 H 0.6046 0.09804 0.20109 0.0
H897 H 0.66151 0.16124 0.26019 0.0
H898 H 0.63156 0.16883 0.24904 0.0
H899 H 0.65632 0.17021 0.22559 0.0
C900 C 0.56525 0.16117 0.21165 0.0
C901 C 0.57195 0.18056 0.19489 0.0
C902 C 0.58209 0.14374 0.21911 0.0
C903 C 0.60592 0.14539 0.21001 0.0
C904 C 0.61249 0.16428 0.19261 0.0
H905 H 0.73482 0.0629 0.24305 0.0
H906 H 0.70462 0.0897 0.22353 0.0
C907 C 0.5957 0.18177 0.1852 0.0
C908 C 0.62395 0.12752 0.2191 0.0
H909 H 0.67653 0.12183 0.25426 0.0
C910 C 0.62032 0.1032 0.21275 0.0
C911 C 0.64439 0.13434 0.23438 0.0
C912 C 0.64864 0.16003 0.24295 0.0
C913 C 0.63681 0.08551 0.22096 0.0
C914 C 0.65724 0.09236 0.23618 0.0
C915 C 0.66089 0.11668 0.24246 0.0
C916 C 0.67496 0.07463 0.24629 0.0
C917 C 0.63245 0.05972 0.21295 0.0
C918 C 0.66823 0.05719 0.26546 0.0
C919 C 0.68547 0.04182 0.27671 0.0
C920 C 0.70975 0.04374 0.26907 0.0
C921 C 0.71629 0.06091 0.24939 0.0
C922 C 0.69907 0.07627 0.23821 0.0
H923 H 0.61948 0.05828 0.19584 0.0
H924 H 0.64951 0.05081 0.20697 0.0
H925 H 0.62489 0.04983 0.2306 0.0
H926 H 0.64979 0.05593 0.27233 0.0
H927 H 0.67984 0.02886 0.29187 0.0
H928 H 0.42321 0.79039 0.17766 0.0
H929 H 0.4014 0.82345 0.19865 0.0
H930 H 0.44355 0.81551 0.27174 0.0
H931 H 0.46531 0.78186 0.25099 0.0
H932 H 0.39579 0.81894 0.28257 0.0
H933 H 0.4222 0.8919 0.21244 0.0
H934 H 0.41031 0.86665 0.19422 0.0
H935 H 0.43768 0.86341 0.21345 0.0
C936 C 0.42807 0.79576 0.19812 0.0
C937 C 0.44606 0.7835 0.21263 0.0
C938 C 0.41567 0.81482 0.21002 0.0
C939 C 0.42116 0.82227 0.23656 0.0
C940 C 0.43918 0.81017 0.25113 0.0
H941 H 0.34712 0.95163 0.29426 0.0
H942 H 0.37906 0.92281 0.28395 0.0
C943 C 0.45159 0.79097 0.23925 0.0
C944 C 0.40694 0.8417 0.24941 0.0
H945 H 0.38583 0.89838 0.23815 0.0
C946 C 0.3939 0.83646 0.27313 0.0
C947 C 0.40483 0.86472 0.23741 0.0
C948 C 0.41972 0.8721 0.21315 0.0
C949 C 0.37776 0.85316 0.28427 0.0
C950 C 0.37418 0.87542 0.27094 0.0
C951 C 0.38827 0.88117 0.24814 0.0
C952 C 0.35508 0.89247 0.27929 0.0
C953 C 0.3646 0.84667 0.31008 0.0
C954 C 0.33099 0.88502 0.28002 0.0
C955 C 0.31274 0.90138 0.28608 0.0
C956 C 0.31818 0.92563 0.29109 0.0
C957 C 0.34233 0.93307 0.29046 0.0
C958 C 0.36061 0.91663 0.2846 0.0
H959 H 0.37503 0.83359 0.32243 0.0
H960 H 0.36093 0.8628 0.32271 0.0
H961 H 0.34721 0.83812 0.30478 0.0
H962 H 0.3262 0.86664 0.27522 0.0
H963 H 0.29431 0.89511 0.28619 0.0
H964 H 0.67417 0.47836 0.69257 0.0
H965 H 0.64177 0.45353 0.71107 0.0
H966 H 0.68867 0.42919 0.77522 0.0
H967 H 0.7212 0.45394 0.75694 0.0
H968 H 0.64699 0.40227 0.71642 0.0
H969 H 0.62468 0.44606 0.81482 0.0
H970 H 0.63985 0.46168 0.78752 0.0
H971 H 0.65614 0.44102 0.80868 0.0
C972 C 0.67749 0.46809 0.71091 0.0
C973 C 0.7003 0.46806 0.72322 0.0
C974 C 0.65896 0.45391 0.72142 0.0
C975 C 0.6628 0.43971 0.7446 0.0
C976 C 0.68525 0.44033 0.75756 0.0
H977 H 0.58638 0.32659 0.82855 0.0
H978 H 0.61391 0.35856 0.81448 0.0
C979 C 0.70384 0.45439 0.74698 0.0
C980 C 0.64421 0.42246 0.75362 0.0
H981 H 0.60797 0.40738 0.807 0.0
C982 C 0.63826 0.40348 0.73611 0.0
C983 C 0.63313 0.42401 0.77942 0.0
C984 C 0.63857 0.44438 0.79869 0.0
C985 C 0.62188 0.38563 0.74395 0.0
C986 C 0.61067 0.38718 0.76975 0.0
C987 C 0.61653 0.40627 0.78722 0.0
C988 C 0.59319 0.36885 0.77908 0.0
C989 C 0.6174 0.36484 0.72488 0.0
C990 C 0.57213 0.36442 0.76422 0.0
C991 C 0.55649 0.34604 0.77203 0.0
C992 C 0.56146 0.33195 0.79512 0.0
C993 C 0.58208 0.33706 0.81061 0.0
C994 C 0.59782 0.35534 0.80263 0.0
H995 H 0.63203 0.36293 0.70965 0.0
H996 H 0.61571 0.34768 0.73626 0.0
H997 H 0.60038 0.36799 0.71366 0.0
H998 H 0.56791 0.37503 0.74636 0.0
H999 H 0.54061 0.34277 0.75985 0.0
H1000 H 0.14947 0.55315 0.30453 0.0
H1001 H 0.1171 0.58158 0.29446 0.0
H1002 H 0.16954 0.63624 0.27579 0.0
H1003 H 0.20191 0.60824 0.28667 0.0
H1004 H 0.13237 0.65438 0.30446 0.0
H1005 H 0.09818 0.59983 0.21803 0.0
H1006 H 0.09824 0.58457 0.25021 0.0
H1007 H 0.12623 0.59327 0.23479 0.0
C1008 C 0.15409 0.57127 0.29842 0.0
C1009 C 0.17825 0.57839 0.29613 0.0
C1010 C 0.13557 0.58745 0.29254 0.0
C1011 C 0.1409 0.61088 0.28381 0.0
C1012 C 0.165 0.61822 0.28239 0.0
H1013 H 0.06736 0.70919 0.18254 0.0
H1014 H 0.09061 0.67758 0.20433 0.0
C1015 C 0.1835 0.60217 0.28857 0.0
C1016 C 0.12162 0.62766 0.27525 0.0
H1017 H 0.07768 0.63577 0.22765 0.0
C1018 C 0.12027 0.65028 0.2878 0.0
C1019 C 0.10597 0.62229 0.25337 0.0
C1020 C 0.10729 0.59878 0.23812 0.0
C1021 C 0.10424 0.66797 0.27853 0.0
C1022 C 0.08871 0.66264 0.25654 0.0
C1023 C 0.0895 0.63974 0.24462 0.0
C1024 C 0.07343 0.68127 0.24362 0.0
C1025 C 0.10499 0.69256 0.29144 0.0
C1026 C 0.05568 0.69365 0.25834 0.0
C1027 C 0.04243 0.71204 0.24593 0.0
C1028 C 0.04652 0.71808 0.21852 0.0
C1029 C 0.06374 0.70506 0.20368 0.0
C1030 C 0.07706 0.68691 0.21611 0.0
H1031 H 0.12142 0.69519 0.30394 0.0
H1032 H 0.10433 0.70687 0.2757 0.0
H1033 H 0.08917 0.69476 0.30494 0.0
H1034 H 0.0522 0.68922 0.27942 0.0
H1035 H 0.02916 0.72163 0.25784 0.0
H1036 H 0.9517 0.15779 0.76823 0.0
H1037 H 0.92358 0.12627 0.75439 0.0
H1038 H 0.86791 0.1592 0.80269 0.0
H1039 H 0.8957 0.19101 0.81622 0.0
H1040 H 0.89763 0.09329 0.78514 0.0
H1041 H 0.83663 0.15396 0.72802 0.0
H1042 H 0.86617 0.16312 0.73903 0.0
H1043 H 0.84149 0.16297 0.76264 0.0
C1044 C 0.93346 0.15835 0.77589 0.0
C1045 C 0.92586 0.17704 0.79313 0.0
C1046 C 0.91745 0.1403 0.768 0.0
C1047 C 0.89357 0.14064 0.77715 0.0
C1048 C 0.88611 0.15891 0.79491 0.0
H1049 H 0.76766 0.05306 0.75014 0.0
H1050 H 0.79792 0.08051 0.76827 0.0
C1051 C 0.90206 0.17702 0.80271 0.0
C1052 C 0.87642 0.12194 0.76805 0.0
H1053 H 0.82312 0.11399 0.73493 0.0
C1054 C 0.88138 0.09777 0.77406 0.0
C1055 C 0.8553 0.12786 0.7535 0.0
C1056 C 0.84964 0.15335 0.74516 0.0
C1057 C 0.86547 0.07938 0.76639 0.0
C1058 C 0.84424 0.08538 0.75216 0.0
C1059 C 0.83936 0.10951 0.74604 0.0
C1060 C 0.82679 0.06698 0.74313 0.0
C1061 C 0.87122 0.05376 0.774 0.0
C1062 C 0.83311 0.0501 0.72317 0.0
C1063 C 0.81583 0.03437 0.71269 0.0
C1064 C 0.79193 0.03535 0.72194 0.0
C1065 C 0.78589 0.05181 0.74256 0.0
C1066 C 0.80314 0.06754 0.75294 0.0
H1067 H 0.88527 0.05274 0.79002 0.0
H1068 H 0.85488 0.0443 0.78132 0.0
H1069 H 0.87792 0.04411 0.75576 0.0
H1070 H 0.85119 0.04965 0.71503 0.0
H1071 H 0.82106 0.02196 0.69679 0.0
H1072 H 0.52063 0.1886 0.08672 0.0
H1073 H 0.51729 0.20028 0.03889 0.0
H1074 H 0.48916 0.26933 0.06271 0.0
H1075 H 0.49217 0.25776 0.1106 0.0
H1076 H 0.46373 0.24733 0.01967 0.0
H1077 H 0.5621 0.2484 0.00072 0.0
H1078 H 0.55097 0.22078 0.01483 0.0
H1079 H 0.54948 0.24793 0.03456 0.0
C1080 C 0.51369 0.20625 0.08181 0.0
C1081 C 0.5068 0.2223 0.10248 0.0
C1082 C 0.51191 0.21293 0.05448 0.0
C1083 C 0.50335 0.2358 0.04734 0.0
C1084 C 0.49593 0.25165 0.06785 0.0
H1085 H 0.4831 0.31066 0.8931 0.0
H1086 H 0.48356 0.29941 0.94127 0.0
C1087 C 0.49769 0.24499 0.09519 0.0
C1088 C 0.50218 0.24323 0.01846 0.0
H1089 H 0.53683 0.25289 0.96222 0.0
C1090 C 0.47969 0.24867 0.0071 0.0
C1091 C 0.52308 0.24501 0.00222 0.0
C1092 C 0.54782 0.24045 0.0137 0.0
C1093 C 0.47748 0.2553 0.97964 0.0
C1094 C 0.49837 0.25686 0.96336 0.0
C1095 C 0.52086 0.25159 0.97479 0.0
C1096 C 0.49735 0.26359 0.93425 0.0
C1097 C 0.4528 0.26001 0.96812 0.0
C1098 C 0.50531 0.24731 0.91444 0.0
C1099 C 0.5052 0.2537 0.88699 0.0
C1100 C 0.49724 0.27659 0.87881 0.0
C1101 C 0.48924 0.29287 0.89871 0.0
C1102 C 0.48936 0.28644 0.92623 0.0
H1103 H 0.4384 0.25265 0.98138 0.0
H1104 H 0.45001 0.27969 0.96631 0.0
H1105 H 0.45098 0.25203 0.94752 0.0
H1106 H 0.51164 0.22963 0.92027 0.0
H1107 H 0.51152 0.24073 0.8722 0.0
H1108 H 0.18716 0.51515 0.40815 0.0
H1109 H 0.20026 0.51293 0.4556 0.0
H1110 H 0.27349 0.50283 0.42929 0.0
H1111 H 0.26065 0.50533 0.3818 0.0
H1112 H 0.22443 0.47548 0.48266 0.0
H1113 H 0.27826 0.55956 0.48225 0.0
H1114 H 0.25693 0.55242 0.4558 0.0
H1115 H 0.28607 0.53849 0.45603 0.0
C1116 C 0.20606 0.5125 0.41243 0.0
C1117 C 0.22288 0.51057 0.3912 0.0
C1118 C 0.2135 0.51121 0.43955 0.0
C1119 C 0.23787 0.50809 0.44591 0.0
C1120 C 0.25466 0.50574 0.42479 0.0
H1121 H 0.31643 0.49938 0.59848 0.0
H1122 H 0.30442 0.49866 0.55058 0.0
C1123 C 0.24726 0.50705 0.39767 0.0
C1124 C 0.24567 0.50704 0.47468 0.0
H1125 H 0.28071 0.53536 0.5218 0.0
C1126 C 0.23669 0.48859 0.49127 0.0
C1127 C 0.2617 0.52416 0.48577 0.0
C1128 C 0.27117 0.54492 0.46915 0.0
C1129 C 0.24352 0.48663 0.51867 0.0
C1130 C 0.25945 0.50382 0.52979 0.0
C1131 C 0.26855 0.52218 0.51315 0.0
C1132 C 0.26653 0.50341 0.55881 0.0
C1133 C 0.23394 0.46598 0.53536 0.0
C1134 C 0.2492 0.50649 0.57923 0.0
C1135 C 0.25598 0.50691 0.60658 0.0
C1136 C 0.28026 0.50439 0.614 0.0
C1137 C 0.29758 0.50131 0.59347 0.0
C1138 C 0.29077 0.50091 0.5661 0.0
H1139 H 0.22728 0.45112 0.52229 0.0
H1140 H 0.24798 0.4588 0.54921 0.0
H1141 H 0.21871 0.4724 0.54798 0.0
H1142 H 0.23045 0.50894 0.57399 0.0
H1143 H 0.2422 0.50944 0.62188 0.0
H1144 H 0.93659 0.24465 0.11499 0.0
H1145 H 0.9389 0.23441 0.06667 0.0
H1146 H 0.01352 0.25524 0.06534 0.0
H1147 H 0.0115 0.2653 0.11371 0.0
H1148 H 0.95092 0.26478 0.02338 0.0
H1149 H 0.01414 0.1879 0.03104 0.0
H1150 H 0.99845 0.19994 0.06016 0.0
H1151 H 0.02455 0.215 0.047 0.0
C1152 C 0.95354 0.24695 0.10448 0.0
C1153 C 0.97388 0.25572 0.11822 0.0
C1154 C 0.95481 0.2411 0.07687 0.0
C1155 C 0.97645 0.24377 0.06256 0.0
C1156 C 0.99677 0.25261 0.07616 0.0
H1157 H 0.99493 0.25132 0.88753 0.0
H1158 H 0.99363 0.25934 0.93642 0.0
C1159 C 0.99553 0.25847 0.10377 0.0
C1160 C 0.97753 0.23807 0.03318 0.0
H1161 H 0.00539 0.20216 0.98653 0.0
C1162 C 0.96277 0.25105 0.01531 0.0
C1163 C 0.99282 0.21996 0.0228 0.0
C1164 C 0.00825 0.20471 0.04123 0.0
C1165 C 0.96316 0.24667 0.98721 0.0
C1166 C 0.97899 0.22908 0.97673 0.0
C1167 C 0.99346 0.21581 0.99464 0.0
C1168 C 0.98053 0.224 0.94724 0.0
C1169 C 0.94638 0.26066 0.969 0.0
C1170 C 0.97423 0.20125 0.93725 0.0
C1171 C 0.97506 0.19655 0.90935 0.0
C1172 C 0.98234 0.21451 0.89096 0.0
C1173 C 0.98913 0.23713 0.90113 0.0
C1174 C 0.98828 0.2418 0.92904 0.0
H1175 H 0.93148 0.26903 0.98069 0.0
H1176 H 0.95657 0.27524 0.95878 0.0
H1177 H 0.93858 0.24891 0.95303 0.0
H1178 H 0.96832 0.18725 0.95104 0.0
H1179 H 0.96978 0.17892 0.9022 0.0
H1180 H 0.2409 0.00461 0.38114 0.0
H1181 H 0.22893 0.00646 0.42901 0.0
H1182 H 0.29201 0.96598 0.45138 0.0
H1183 H 0.30439 0.96449 0.40374 0.0
H1184 H 0.21859 0.9702 0.46432 0.0
H1185 H 0.29593 0.02298 0.50242 0.0
H1186 H 0.28939 0.01991 0.46662 0.0
H1187 H 0.30502 0.99641 0.48452 0.0
C1188 C 0.2523 0.99621 0.39627 0.0
C1189 C 0.27369 0.98454 0.38868 0.0
C1190 C 0.24542 0.99728 0.42359 0.0
C1191 C 0.2598 0.98673 0.44378 0.0
C1192 C 0.28097 0.97477 0.4362 0.0
H1193 H 0.221 0.94195 0.60563 0.0
H1194 H 0.22894 0.94526 0.55691 0.0
C1195 C 0.28794 0.97382 0.40894 0.0
C1196 C 0.25236 0.9876 0.47269 0.0
H1197 H 0.27166 0.00361 0.53601 0.0
C1198 C 0.23008 0.97769 0.47999 0.0
C1199 C 0.2672 0.99775 0.49302 0.0
C1200 C 0.2906 0.01009 0.48625 0.0
C1201 C 0.22257 0.97697 0.50723 0.0
C1202 C 0.23802 0.98591 0.52772 0.0
C1203 C 0.25995 0.99651 0.52031 0.0
C1204 C 0.2321 0.98404 0.55703 0.0
C1205 C 0.19811 0.96679 0.51374 0.0
C1206 C 0.23176 0.00468 0.57341 0.0
C1207 C 0.22755 0.00282 0.60136 0.0
C1208 C 0.22363 0.98024 0.61343 0.0
C1209 C 0.22377 0.95962 0.59693 0.0
C1210 C 0.22814 0.96149 0.56903 0.0
H1211 H 0.18588 0.96782 0.4959 0.0
H1212 H 0.2 0.94757 0.51938 0.0
H1213 H 0.18965 0.97643 0.53105 0.0
H1214 H 0.2349 0.02225 0.56458 0.0
H1215 H 0.22756 0.01905 0.61351 0.0
H1216 H 0.47465 0.80857 0.90384 0.0
H1217 H 0.47718 0.79414 0.95072 0.0
H1218 H 0.4973 0.72379 0.92186 0.0
H1219 H 0.49523 0.73815 0.87488 0.0
H1220 H 0.45143 0.75743 0.97499 0.0
H1221 H 0.54935 0.73811 0.97799 0.0
H1222 H 0.53571 0.7558 0.95136 0.0
H1223 H 0.53341 0.72359 0.95081 0.0
C1224 C 0.47973 0.79005 0.90743 0.0
C1225 C 0.48485 0.77454 0.88562 0.0
C1226 C 0.48115 0.78184 0.93424 0.0
C1227 C 0.48777 0.75801 0.93977 0.0
C1228 C 0.49268 0.7424 0.91806 0.0
H1229 H 0.49959 0.68031 0.09389 0.0
H1230 H 0.49813 0.69081 0.04544 0.0
C1231 C 0.49135 0.75061 0.89122 0.0
C1232 C 0.48882 0.74942 0.96827 0.0
H1233 H 0.52659 0.72653 0.01656 0.0
C1234 C 0.46786 0.75069 0.98409 0.0
C1235 C 0.51027 0.74053 0.98002 0.0
C1236 C 0.53354 0.73958 0.96429 0.0
C1237 C 0.46777 0.74334 0.01138 0.0
C1238 C 0.48928 0.73478 0.02322 0.0
C1239 C 0.51014 0.73309 0.00733 0.0
C1240 C 0.49064 0.72844 0.0524 0.0
C1241 C 0.44463 0.74466 0.02732 0.0
C1242 C 0.48734 0.74624 0.07221 0.0
C1243 C 0.48822 0.74036 0.0998 0.0
C1244 C 0.49248 0.71654 0.1081 0.0
C1245 C 0.49619 0.6988 0.08816 0.0
C1246 C 0.49539 0.70474 0.06051 0.0
H1247 H 0.42872 0.74582 0.01374 0.0
H1248 H 0.44259 0.72875 0.04077 0.0
H1249 H 0.44488 0.76095 0.04034 0.0
H1250 H 0.48405 0.76471 0.06632 0.0
H1251 H 0.48537 0.75449 0.11459 0.0
H1252 H 0.75897 0.50908 0.61108 0.0
H1253 H 0.75145 0.51049 0.56209 0.0
H1254 H 0.73481 0.43481 0.56242 0.0
H1255 H 0.74198 0.43325 0.61147 0.0
H1256 H 0.77528 0.48445 0.5218 0.0
H1257 H 0.67762 0.46414 0.52183 0.0
H1258 H 0.69358 0.4732 0.55212 0.0
H1259 H 0.6956 0.44276 0.54013 0.0
C1260 C 0.75353 0.49275 0.60079 0.0
C1261 C 0.75101 0.47105 0.61519 0.0
C1262 C 0.74926 0.49361 0.5728 0.0
C1263 C 0.74227 0.47284 0.55873 0.0
C1264 C 0.73972 0.45115 0.57301 0.0
H1265 H 0.7181 0.4362 0.39009 0.0
H1266 H 0.72303 0.43655 0.43953 0.0
C1267 C 0.74397 0.45027 0.60101 0.0
C1268 C 0.73866 0.47365 0.52891 0.0
H1269 H 0.6973 0.46374 0.47888 0.0
C1270 C 0.7582 0.48009 0.51239 0.0
C1271 C 0.71636 0.46789 0.51677 0.0
C1272 C 0.69451 0.46181 0.5336 0.0
C1273 C 0.75617 0.48044 0.48394 0.0
C1274 C 0.73391 0.47455 0.4718 0.0
C1275 C 0.71434 0.46821 0.48831 0.0
C1276 C 0.73066 0.4746 0.44193 0.0
C1277 C 0.77802 0.48651 0.4671 0.0
C1278 C 0.733 0.49597 0.42701 0.0
C1279 C 0.73022 0.49584 0.39875 0.0
C1280 C 0.72493 0.47434 0.38496 0.0
C1281 C 0.72225 0.45304 0.40007 0.0
C1282 C 0.72502 0.4532 0.42831 0.0
H1283 H 0.79488 0.48501 0.47909 0.0
H1284 H 0.77936 0.47452 0.44911 0.0
H1285 H 0.77649 0.50528 0.45968 0.0
H1286 H 0.73693 0.51275 0.43723 0.0
H1287 H 0.73227 0.51258 0.38774 0.0
H1288 H 0.98359 0.75909 0.11782 0.0
H1289 H 0.98178 0.74645 0.07022 0.0
H1290 H 0.0473 0.78525 0.05367 0.0
H1291 H 0.04878 0.79862 0.10098 0.0
H1292 H 0.01497 0.7924 0.01449 0.0
H1293 H 0.02203 0.69479 0.03567 0.0
H1294 H 0.99695 0.70869 0.05232 0.0
H1295 H 0.02706 0.71725 0.06148 0.0
C1296 C 0.9976 0.76494 0.10403 0.0
C1297 C 0.01641 0.77974 0.11317 0.0
C1298 C 0.99663 0.75756 0.07688 0.0
C1299 C 0.01469 0.76446 0.05854 0.0
C1300 C 0.03324 0.7796 0.06752 0.0
H1301 H 0.04857 0.69948 0.90364 0.0
H1302 H 0.04655 0.71207 0.95121 0.0
C1303 C 0.03406 0.78723 0.09456 0.0
C1304 C 0.01423 0.75618 0.02989 0.0
H1305 H 0.01347 0.70595 0.99006 0.0
C1306 C 0.01468 0.7735 0.00913 0.0
C1307 C 0.0142 0.73149 0.02296 0.0
C1308 C 0.01528 0.71197 0.04427 0.0
C1309 C 0.01506 0.76684 0.98161 0.0
C1310 C 0.01422 0.74218 0.97467 0.0
C1311 C 0.01383 0.72485 0.99543 0.0
C1312 C 0.0147 0.73393 0.94601 0.0
C1313 C 0.01712 0.78631 0.96033 0.0
C1314 C 0.99716 0.74161 0.92742 0.0
C1315 C 0.99844 0.73469 0.90014 0.0
C1316 C 0.01704 0.71957 0.89109 0.0
C1317 C 0.03403 0.71115 0.90997 0.0
C1318 C 0.0329 0.71832 0.93716 0.0
H1319 H 0.02438 0.80325 0.96903 0.0
H1320 H 0.02892 0.78062 0.9433 0.0
H1321 H 0.99902 0.79026 0.95198 0.0
H1322 H 0.98256 0.7531 0.93395 0.0
H1323 H 0.98493 0.74125 0.88613 0.0
H1324 H 0.76162 0.0047 0.61574 0.0
H1325 H 0.77267 0.00545 0.56759 0.0
H1326 H 0.69773 0.00584 0.54532 0.0
H1327 H 0.68645 0.00534 0.59341 0.0
H1328 H 0.76058 0.9727 0.52575 0.0
H1329 H 0.72551 0.06435 0.50483 0.0
H1330 H 0.73032 0.05322 0.53891 0.0
H1331 H 0.70421 0.04414 0.52002 0.0
C1332 C 0.74746 0.00494 0.60062 0.0
C1333 C 0.72314 0.00512 0.60841 0.0
C1334 C 0.75383 0.00535 0.57313 0.0
C1335 C 0.73602 0.00608 0.55297 0.0
C1336 C 0.71174 0.00575 0.56062 0.0
H1337 H 0.73878 0.01251 0.37679 0.0
H1338 H 0.72731 0.00988 0.42473 0.0
C1339 C 0.70534 0.00534 0.58811 0.0
C1340 C 0.74289 0.00707 0.52391 0.0
H1341 H 0.73905 0.0419 0.46689 0.0
C1342 C 0.75596 0.98784 0.51286 0.0
C1343 C 0.7368 0.02687 0.50723 0.0
C1344 C 0.72362 0.04844 0.51833 0.0
C1345 C 0.76279 0.98771 0.48538 0.0
C1346 C 0.75671 0.00752 0.46871 0.0
C1347 C 0.74362 0.02673 0.47975 0.0
C1348 C 0.76383 0.00875 0.43973 0.0
C1349 C 0.77602 0.96617 0.47428 0.0
C1350 C 0.78818 0.00925 0.43236 0.0
C1351 C 0.79481 0.01075 0.40499 0.0
C1352 C 0.77719 0.0119 0.38453 0.0
C1353 C 0.7528 0.01159 0.39204 0.0
C1354 C 0.7462 0.0101 0.4194 0.0
H1355 H 0.77392 0.95019 0.48763 0.0
H1356 H 0.76954 0.96154 0.45356 0.0
H1357 H 0.79546 0.97042 0.47291 0.0
H1358 H 0.80205 0.00871 0.4478 0.0
H1359 H 0.81374 0.01107 0.3999 0.0
loop_
_geom_bond_atom_site_label_1
_geom_bond_atom_site_label_2
_geom_bond_distance
_geom_bond_site_symmetry_2
_ccdc_geom_bond_type
C0 O1 1.160 . S
C0 O7 1.185 . S
O1 C0 1.160 . S
O2 Zn3 1.899 . S
O2 C10 1.284 . S
Zn3 O2 1.899 . S
Zn3 O4 2.032 . S
Zn3 O7 2.086 . S
Zn3 O12 1.977 . S
O4 Zn3 2.032 . S
O4 C8 1.278 . S
C5 O6 1.203 . S
C5 O12 1.267 . S
O6 C5 1.203 . S
O7 C0 1.185 . S
O7 Zn3 2.086 . S
C8 O4 1.278 . S
C8 O9 1.211 . S
O9 C8 1.211 . S
C10 O2 1.284 . S
C10 O11 1.273 . S
O11 C10 1.273 . S
O12 Zn3 1.977 . S
O12 C5 1.267 . S
C13 O14 1.160 . S
C13 O20 1.185 . S
O14 C13 1.160 . S
O15 Zn16 1.899 . S
O15 C23 1.284 . S
Zn16 O15 1.899 . S
Zn16 O17 2.032 . S
Zn16 O20 2.086 . S
Zn16 O25 1.977 . S
O17 Zn16 2.032 . S
O17 C21 1.278 . S
C18 O19 1.203 . S
C18 O25 1.267 . S
O19 C18 1.203 . S
O20 C13 1.185 . S
O20 Zn16 2.086 . S
C21 O17 1.278 . S
C21 O22 1.211 . S
O22 C21 1.211 . S
C23 O15 1.284 . S
C23 O24 1.273 . S
O24 C23 1.273 . S
O25 Zn16 1.977 . S
O25 C18 1.267 . S
C26 O27 1.160 . S
C26 O33 1.185 . S
O27 C26 1.160 . S
O28 Zn29 1.899 . S
O28 C36 1.284 . S
Zn29 O28 1.899 . S
Zn29 O30 2.032 . S
Zn29 O33 2.086 1_655 S
Zn29 O38 1.977 . S
O30 Zn29 2.032 . S
O30 C34 1.278 . S
C31 O32 1.203 . S
C31 O38 1.267 . S
O32 C31 1.203 . S
O33 C26 1.185 . S
O33 Zn29 2.086 1_455 S
C34 O30 1.278 . S
C34 O35 1.211 . S
O35 C34 1.211 . S
C36 O28 1.284 . S
C36 O37 1.273 . S
O37 C36 1.273 . S
O38 Zn29 1.977 . S
O38 C31 1.267 . S
C39 O40 1.160 . S
C39 O46 1.185 . S
O40 C39 1.160 . S
O41 Zn42 1.899 . S
O41 C49 1.284 . S
Zn42 O41 1.899 . S
Zn42 O43 2.032 . S
Zn42 O46 2.086 1_565 S
Zn42 O51 1.977 . S
O43 Zn42 2.032 . S
O43 C47 1.278 . S
C44 O45 1.203 . S
C44 O51 1.267 . S
O45 C44 1.203 . S
O46 C39 1.185 . S
O46 Zn42 2.086 1_545 S
C47 O43 1.278 . S
C47 O48 1.211 . S
O48 C47 1.211 . S
C49 O41 1.284 . S
C49 O50 1.273 . S
O50 C49 1.273 . S
O51 Zn42 1.977 . S
O51 C44 1.267 . S
C52 O53 1.160 . S
C52 O59 1.185 . S
O53 C52 1.160 . S
O54 Zn55 1.899 . S
O54 C62 1.284 . S
Zn55 O54 1.899 . S
Zn55 O56 2.032 . S
Zn55 O59 2.086 . S
Zn55 O64 1.977 . S
O56 Zn55 2.032 . S
O56 C60 1.278 . S
C57 O58 1.203 . S
C57 O64 1.267 . S
O58 C57 1.203 . S
O59 C52 1.185 . S
O59 Zn55 2.086 . S
C60 O56 1.278 . S
C60 O61 1.211 . S
O61 C60 1.211 . S
C62 O54 1.284 . S
C62 O63 1.273 . S
O63 C62 1.273 . S
O64 Zn55 1.977 . S
O64 C57 1.267 . S
C65 O66 1.160 . S
C65 O72 1.185 . S
O66 C65 1.160 . S
O67 Zn68 1.899 . S
O67 C75 1.284 . S
Zn68 O67 1.899 . S
Zn68 O69 2.032 . S
Zn68 O72 2.086 . S
Zn68 O77 1.977 . S
O69 Zn68 2.032 . S
O69 C73 1.278 . S
C70 O71 1.203 . S
C70 O77 1.267 . S
O71 C70 1.203 . S
O72 C65 1.185 . S
O72 Zn68 2.086 . S
C73 O69 1.278 . S
C73 O74 1.211 . S
O74 C73 1.211 . S
C75 O67 1.284 . S
C75 O76 1.273 . S
O76 C75 1.273 . S
O77 Zn68 1.977 . S
O77 C70 1.267 . S
C78 O79 1.160 . S
C78 O85 1.185 . S
O79 C78 1.160 . S
O80 Zn81 1.899 . S
O80 C88 1.284 . S
Zn81 O80 1.899 . S
Zn81 O82 2.032 . S
Zn81 O85 2.086 1_655 S
Zn81 O90 1.977 . S
O82 Zn81 2.032 . S
O82 C86 1.278 . S
C83 O84 1.203 . S
C83 O90 1.267 . S
O84 C83 1.203 . S
O85 C78 1.185 . S
O85 Zn81 2.086 1_455 S
C86 O82 1.278 . S
C86 O87 1.211 . S
O87 C86 1.211 . S
C88 O80 1.284 . S
C88 O89 1.273 . S
O89 C88 1.273 . S
O90 Zn81 1.977 . S
O90 C83 1.267 . S
C91 O92 1.160 . S
C91 O98 1.185 . S
O92 C91 1.160 . S
O93 Zn94 1.899 . S
O93 C101 1.284 . S
Zn94 O93 1.899 . S
Zn94 O95 2.032 . S
Zn94 O98 2.086 1_565 S
Zn94 O103 1.977 . S
O95 Zn94 2.032 . S
O95 C99 1.278 . S
C96 O97 1.203 . S
C96 O103 1.267 . S
O97 C96 1.203 . S
O98 C91 1.185 . S
O98 Zn94 2.086 1_545 S
C99 O95 1.278 . S
C99 O100 1.211 . S
O100 C99 1.211 . S
C101 O93 1.284 . S
C101 O102 1.273 . S
O102 C101 1.273 . S
O103 Zn94 1.977 . S
O103 C96 1.267 . S
C104 O105 1.160 . S
C104 O111 1.185 . S
O105 C104 1.160 . S
O106 Zn107 1.899 . S
O106 C114 1.284 . S
Zn107 O106 1.899 . S
Zn107 O108 2.032 . S
Zn107 O111 2.086 . S
Zn107 O116 1.977 . S
O108 Zn107 2.032 . S
O108 C112 1.278 . S
C109 O110 1.203 . S
C109 O116 1.267 . S
O110 C109 1.203 . S
O111 C104 1.185 . S
O111 Zn107 2.086 . S
C112 O108 1.278 . S
C112 O113 1.211 . S
O113 C112 1.211 . S
C114 O106 1.284 . S
C114 O115 1.273 . S
O115 C114 1.273 . S
O116 Zn107 1.977 . S
O116 C109 1.267 . S
C117 O118 1.160 . S
C117 O124 1.185 . S
O118 C117 1.160 . S
O119 Zn120 1.899 . S
O119 C127 1.284 . S
Zn120 O119 1.899 . S
Zn120 O121 2.032 . S
Zn120 O124 2.086 . S
Zn120 O129 1.977 . S
O121 Zn120 2.032 . S
O121 C125 1.278 . S
C122 O123 1.203 . S
C122 O129 1.267 . S
O123 C122 1.203 . S
O124 C117 1.185 . S
O124 Zn120 2.086 . S
C125 O121 1.278 . S
C125 O126 1.211 . S
O126 C125 1.211 . S
C127 O119 1.284 . S
C127 O128 1.273 . S
O128 C127 1.273 . S
O129 Zn120 1.977 . S
O129 C122 1.267 . S
C130 O131 1.160 . S
C130 O137 1.185 . S
O131 C130 1.160 . S
O132 Zn133 1.899 . S
O132 C140 1.284 . S
Zn133 O132 1.899 . S
Zn133 O134 2.032 . S
Zn133 O137 2.086 1_455 S
Zn133 O142 1.977 . S
O134 Zn133 2.032 . S
O134 C138 1.278 . S
C135 O136 1.203 . S
C135 O142 1.267 . S
O136 C135 1.203 . S
O137 C130 1.185 . S
O137 Zn133 2.086 1_655 S
C138 O134 1.278 . S
C138 O139 1.211 . S
O139 C138 1.211 . S
C140 O132 1.284 . S
C140 O141 1.273 . S
O141 C140 1.273 . S
O142 Zn133 1.977 . S
O142 C135 1.267 . S
C143 O144 1.160 . S
C143 O150 1.185 . S
O144 C143 1.160 . S
O145 Zn146 1.899 . S
O145 C153 1.284 . S
Zn146 O145 1.899 . S
Zn146 O147 2.032 . S
Zn146 O150 2.086 1_545 S
Zn146 O155 1.977 . S
O147 Zn146 2.032 . S
O147 C151 1.278 . S
C148 O149 1.203 . S
C148 O155 1.267 . S
O149 C148 1.203 . S
O150 C143 1.185 . S
O150 Zn146 2.086 1_565 S
C151 O147 1.278 . S
C151 O152 1.211 . S
O152 C151 1.211 . S
C153 O145 1.284 . S
C153 O154 1.273 . S
O154 C153 1.273 . S
O155 Zn146 1.977 . S
O155 C148 1.267 . S
C156 O157 1.160 . S
C156 O163 1.185 . S
O157 C156 1.160 . S
O158 Zn159 1.899 . S
O158 C166 1.284 . S
Zn159 O158 1.899 . S
Zn159 O160 2.032 . S
Zn159 O163 2.086 . S
Zn159 O168 1.977 . S
O160 Zn159 2.032 . S
O160 C164 1.278 . S
C161 O162 1.203 . S
C161 O168 1.267 . S
O162 C161 1.203 . S
O163 C156 1.185 . S
O163 Zn159 2.086 . S
C164 O160 1.278 . S
C164 O165 1.211 . S
O165 C164 1.211 . S
C166 O158 1.284 . S
C166 O167 1.273 . S
O167 C166 1.273 . S
O168 Zn159 1.977 . S
O168 C161 1.267 . S
C169 O170 1.160 . S
C169 O176 1.185 . S
O170 C169 1.160 . S
O171 Zn172 1.899 . S
O171 C179 1.284 . S
Zn172 O171 1.899 . S
Zn172 O173 2.032 . S
Zn172 O176 2.086 . S
Zn172 O181 1.977 . S
O173 Zn172 2.032 . S
O173 C177 1.278 . S
C174 O175 1.203 . S
C174 O181 1.267 . S
O175 C174 1.203 . S
O176 C169 1.185 . S
O176 Zn172 2.086 . S
C177 O173 1.278 . S
C177 O178 1.211 . S
O178 C177 1.211 . S
C179 O171 1.284 . S
C179 O180 1.273 . S
O180 C179 1.273 . S
O181 Zn172 1.977 . S
O181 C174 1.267 . S
C182 O183 1.160 . S
C182 O189 1.185 . S
O183 C182 1.160 . S
O184 Zn185 1.899 . S
O184 C192 1.284 . S
Zn185 O184 1.899 . S
Zn185 O186 2.032 . S
Zn185 O189 2.086 1_455 S
Zn185 O194 1.977 . S
O186 Zn185 2.032 . S
O186 C190 1.278 . S
C187 O188 1.203 . S
C187 O194 1.267 . S
O188 C187 1.203 . S
O189 C182 1.185 . S
O189 Zn185 2.086 1_655 S
C190 O186 1.278 . S
C190 O191 1.211 . S
O191 C190 1.211 . S
C192 O184 1.284 . S
C192 O193 1.273 . S
O193 C192 1.273 . S
O194 Zn185 1.977 . S
O194 C187 1.267 . S
C195 O196 1.160 . S
C195 O202 1.185 . S
O196 C195 1.160 . S
O197 Zn198 1.899 . S
O197 C205 1.284 . S
Zn198 O197 1.899 . S
Zn198 O199 2.032 . S
Zn198 O202 2.086 1_545 S
Zn198 O207 1.977 . S
O199 Zn198 2.032 . S
O199 C203 1.278 . S
C200 O201 1.203 . S
C200 O207 1.267 . S
O201 C200 1.203 . S
O202 C195 1.185 . S
O202 Zn198 2.086 1_565 S
C203 O199 1.278 . S
C203 O204 1.211 . S
O204 C203 1.211 . S
C205 O197 1.284 . S
C205 O206 1.273 . S
O206 C205 1.273 . S
O207 Zn198 1.977 . S
O207 C200 1.267 . S
H208 C216 0.929 . S
H209 C218 0.930 . S
H210 C220 0.930 . S
H211 C223 0.929 . S
H212 C226 0.930 . S
H213 C228 0.960 . S
H214 C228 0.960 . S
H215 C228 0.960 . S
C216 H208 0.929 . S
C216 C217 1.377 . S
C216 C218 1.384 . S
C217 C216 1.377 . S
C217 C223 1.390 . S
C218 H209 0.930 . S
C218 C216 1.384 . S
C218 C219 1.372 . S
C219 C218 1.372 . S
C219 C220 1.400 . S
C219 C224 1.490 . S
C220 H210 0.930 . S
C220 C219 1.400 . S
C220 C223 1.386 . S
H221 C237 0.930 . S
H222 C238 0.931 . S
C223 H211 0.929 . S
C223 C217 1.390 . S
C223 C220 1.386 . S
C224 C219 1.490 . S
C224 C226 1.395 . S
C224 C227 1.403 . S
H225 C231 0.930 . S
C226 H212 0.930 . S
C226 C224 1.395 . S
C226 C229 1.403 . S
C227 C224 1.403 . S
C227 C228 1.524 . S
C227 C231 1.400 . S
C228 H213 0.960 . S
C228 H214 0.960 . S
C228 H215 0.960 . S
C228 C227 1.524 . S
C229 C226 1.403 . S
C229 C230 1.392 . S
C229 C233 1.495 . S
C230 C229 1.392 . S
C230 C231 1.385 . S
C230 C232 1.478 . S
C231 H225 0.930 . S
C231 C227 1.400 . S
C231 C230 1.385 . S
C232 C230 1.478 . S
C232 C234 1.381 . S
C232 C238 1.383 . S
C233 C229 1.495 . S
C233 H239 0.959 . S
C233 H240 0.961 . S
C233 H241 0.960 . S
C234 C232 1.381 . S
C234 C235 1.394 . S
C234 H242 0.930 . S
C235 C234 1.394 . S
C235 C236 1.383 . S
C235 H243 0.929 . S
C236 C235 1.383 . S
C236 C237 1.377 . S
C237 H221 0.930 . S
C237 C236 1.377 . S
C237 C238 1.379 . S
C238 H222 0.931 . S
C238 C232 1.383 . S
C238 C237 1.379 . S
H239 C233 0.959 . S
H240 C233 0.961 . S
H241 C233 0.960 . S
H242 C234 0.930 . S
H243 C235 0.929 . S
H244 C252 0.929 . S
H245 C254 0.930 . S
H246 C256 0.930 . S
H247 C259 0.929 . S
H248 C262 0.930 . S
H249 C264 0.960 . S
H250 C264 0.960 . S
H251 C264 0.960 . S
C252 H244 0.929 . S
C252 C253 1.377 . S
C252 C254 1.384 . S
C253 C252 1.377 . S
C253 C259 1.390 . S
C254 H245 0.930 . S
C254 C252 1.384 . S
C254 C255 1.372 . S
C255 C254 1.372 . S
C255 C256 1.400 . S
C255 C260 1.490 . S
C256 H246 0.930 . S
C256 C255 1.400 . S
C256 C259 1.386 . S
H257 C273 0.930 . S
H258 C274 0.931 . S
C259 H247 0.929 . S
C259 C253 1.390 . S
C259 C256 1.386 . S
C260 C255 1.490 . S
C260 C262 1.395 . S
C260 C263 1.403 . S
H261 C267 0.930 . S
C262 H248 0.930 . S
C262 C260 1.395 . S
C262 C265 1.403 . S
C263 C260 1.403 . S
C263 C264 1.524 . S
C263 C267 1.400 . S
C264 H249 0.960 . S
C264 H250 0.960 . S
C264 H251 0.960 . S
C264 C263 1.524 . S
C265 C262 1.403 . S
C265 C266 1.392 . S
C265 C269 1.495 . S
C266 C265 1.392 . S
C266 C267 1.385 . S
C266 C268 1.478 . S
C267 H261 0.930 . S
C267 C263 1.400 . S
C267 C266 1.385 . S
C268 C266 1.478 . S
C268 C270 1.381 . S
C268 C274 1.383 . S
C269 C265 1.495 . S
C269 H275 0.959 . S
C269 H276 0.961 . S
C269 H277 0.960 . S
C270 C268 1.381 . S
C270 C271 1.394 . S
C270 H278 0.930 . S
C271 C270 1.394 . S
C271 C272 1.383 . S
C271 H279 0.929 . S
C272 C271 1.383 . S
C272 C273 1.377 . S
C273 H257 0.930 . S
C273 C272 1.377 . S
C273 C274 1.379 . S
C274 H258 0.931 . S
C274 C268 1.383 . S
C274 C273 1.379 . S
H275 C269 0.959 . S
H276 C269 0.961 . S
H277 C269 0.960 . S
H278 C270 0.930 . S
H279 C271 0.929 . S
H280 C288 0.929 . S
H281 C290 0.930 . S
H282 C292 0.930 . S
H283 C295 0.929 . S
H284 C298 0.930 . S
H285 C300 0.960 . S
H286 C300 0.960 . S
H287 C300 0.960 . S
C288 H280 0.929 . S
C288 C289 1.377 . S
C288 C290 1.384 . S
C289 C288 1.377 . S
C289 C295 1.390 . S
C290 H281 0.930 . S
C290 C288 1.384 . S
C290 C291 1.372 . S
C291 C290 1.372 . S
C291 C292 1.400 . S
C291 C296 1.490 . S
C292 H282 0.930 . S
C292 C291 1.400 . S
C292 C295 1.386 . S
H293 C309 0.930 . S
H294 C310 0.931 . S
C295 H283 0.929 . S
C295 C289 1.390 . S
C295 C292 1.386 . S
C296 C291 1.490 . S
C296 C298 1.395 . S
C296 C299 1.403 . S
H297 C303 0.930 . S
C298 H284 0.930 . S
C298 C296 1.395 . S
C298 C301 1.403 . S
C299 C296 1.403 . S
C299 C300 1.524 . S
C299 C303 1.400 . S
C300 H285 0.960 . S
C300 H286 0.960 . S
C300 H287 0.960 . S
C300 C299 1.524 . S
C301 C298 1.403 . S
C301 C302 1.392 . S
C301 C305 1.495 . S
C302 C301 1.392 . S
C302 C303 1.385 . S
C302 C304 1.478 . S
C303 H297 0.930 . S
C303 C299 1.400 . S
C303 C302 1.385 . S
C304 C302 1.478 . S
C304 C306 1.381 . S
C304 C310 1.383 . S
C305 C301 1.495 . S
C305 H311 0.959 . S
C305 H312 0.961 . S
C305 H313 0.960 . S
C306 C304 1.381 . S
C306 C307 1.394 . S
C306 H314 0.930 . S
C307 C306 1.394 . S
C307 C308 1.383 . S
C307 H315 0.929 . S
C308 C307 1.383 . S
C308 C309 1.377 . S
C309 H293 0.930 . S
C309 C308 1.377 . S
C309 C310 1.379 . S
C310 H294 0.931 . S
C310 C304 1.383 . S
C310 C309 1.379 . S
H311 C305 0.959 . S
H312 C305 0.961 . S
H313 C305 0.960 . S
H314 C306 0.930 . S
H315 C307 0.929 . S
H316 C324 0.929 . S
H317 C326 0.930 . S
H318 C328 0.930 . S
H319 C331 0.929 . S
H320 C334 0.930 . S
H321 C336 0.960 . S
H322 C336 0.960 . S
H323 C336 0.960 . S
C324 H316 0.929 . S
C324 C325 1.377 . S
C324 C326 1.384 . S
C325 C324 1.377 . S
C325 C331 1.390 . S
C326 H317 0.930 . S
C326 C324 1.384 . S
C326 C327 1.372 . S
C327 C326 1.372 . S
C327 C328 1.400 . S
C327 C332 1.490 . S
C328 H318 0.930 . S
C328 C327 1.400 . S
C328 C331 1.386 . S
H329 C345 0.930 . S
H330 C346 0.931 . S
C331 H319 0.929 . S
C331 C325 1.390 . S
C331 C328 1.386 . S
C332 C327 1.490 . S
C332 C334 1.395 . S
C332 C335 1.403 . S
H333 C339 0.930 . S
C334 H320 0.930 . S
C334 C332 1.395 . S
C334 C337 1.403 . S
C335 C332 1.403 . S
C335 C336 1.524 . S
C335 C339 1.400 . S
C336 H321 0.960 . S
C336 H322 0.960 . S
C336 H323 0.960 . S
C336 C335 1.524 . S
C337 C334 1.403 . S
C337 C338 1.392 . S
C337 C341 1.495 . S
C338 C337 1.392 . S
C338 C339 1.385 . S
C338 C340 1.478 . S
C339 H333 0.930 . S
C339 C335 1.400 . S
C339 C338 1.385 . S
C340 C338 1.478 . S
C340 C342 1.381 . S
C340 C346 1.383 . S
C341 C337 1.495 . S
C341 H347 0.959 . S
C341 H348 0.961 . S
C341 H349 0.960 . S
C342 C340 1.381 . S
C342 C343 1.394 . S
C342 H350 0.930 . S
C343 C342 1.394 . S
C343 C344 1.383 . S
C343 H351 0.929 . S
C344 C343 1.383 . S
C344 C345 1.377 . S
C345 H329 0.930 . S
C345 C344 1.377 . S
C345 C346 1.379 . S
C346 H330 0.931 . S
C346 C340 1.383 . S
C346 C345 1.379 . S
H347 C341 0.959 . S
H348 C341 0.961 . S
H349 C341 0.960 . S
H350 C342 0.930 . S
H351 C343 0.929 . S
H352 C360 0.929 . S
H353 C362 0.930 . S
H354 C364 0.930 . S
H355 C367 0.929 . S
H356 C370 0.930 . S
H357 C372 0.960 . S
H358 C372 0.960 . S
H359 C372 0.960 . S
C360 H352 0.929 . S
C360 C361 1.377 . S
C360 C362 1.384 . S
C361 C360 1.377 . S
C361 C367 1.390 . S
C362 H353 0.930 . S
C362 C360 1.384 . S
C362 C363 1.372 . S
C363 C362 1.372 . S
C363 C364 1.400 . S
C363 C368 1.490 . S
C364 H354 0.930 . S
C364 C363 1.400 . S
C364 C367 1.386 . S
H365 C381 0.930 . S
H366 C382 0.931 . S
C367 H355 0.929 . S
C367 C361 1.390 . S
C367 C364 1.386 . S
C368 C363 1.490 . S
C368 C370 1.395 . S
C368 C371 1.403 . S
H369 C375 0.930 . S
C370 H356 0.930 . S
C370 C368 1.395 . S
C370 C373 1.403 . S
C371 C368 1.403 . S
C371 C372 1.524 . S
C371 C375 1.400 . S
C372 H357 0.960 . S
C372 H358 0.960 . S
C372 H359 0.960 . S
C372 C371 1.524 . S
C373 C370 1.403 . S
C373 C374 1.392 . S
C373 C377 1.495 . S
C374 C373 1.392 . S
C374 C375 1.385 . S
C374 C376 1.478 . S
C375 H369 0.930 . S
C375 C371 1.400 . S
C375 C374 1.385 . S
C376 C374 1.478 . S
C376 C378 1.381 . S
C376 C382 1.383 . S
C377 C373 1.495 . S
C377 H383 0.959 . S
C377 H384 0.961 . S
C377 H385 0.960 . S
C378 C376 1.381 . S
C378 C379 1.394 . S
C378 H386 0.930 . S
C379 C378 1.394 . S
C379 C380 1.383 . S
C379 H387 0.929 . S
C380 C379 1.383 . S
C380 C381 1.377 . S
C381 H365 0.930 . S
C381 C380 1.377 . S
C381 C382 1.379 . S
C382 H366 0.931 . S
C382 C376 1.383 . S
C382 C381 1.379 . S
H383 C377 0.959 . S
H384 C377 0.961 . S
H385 C377 0.960 . S
H386 C378 0.930 . S
H387 C379 0.929 . S
H388 C396 0.929 . S
H389 C398 0.930 . S
H390 C400 0.930 . S
H391 C403 0.929 . S
H392 C406 0.930 . S
H393 C408 0.960 . S
H394 C408 0.960 . S
H395 C408 0.960 . S
C396 H388 0.929 . S
C396 C397 1.377 . S
C396 C398 1.384 . S
C397 C396 1.377 . S
C397 C403 1.390 . S
C398 H389 0.930 . S
C398 C396 1.384 . S
C398 C399 1.372 . S
C399 C398 1.372 . S
C399 C400 1.400 . S
C399 C404 1.490 . S
C400 H390 0.930 . S
C400 C399 1.400 . S
C400 C403 1.386 . S
H401 C417 0.930 . S
H402 C418 0.931 . S
C403 H391 0.929 . S
C403 C397 1.390 . S
C403 C400 1.386 . S
C404 C399 1.490 . S
C404 C406 1.395 . S
C404 C407 1.403 . S
H405 C411 0.930 . S
C406 H392 0.930 . S
C406 C404 1.395 . S
C406 C409 1.403 . S
C407 C404 1.403 . S
C407 C408 1.524 . S
C407 C411 1.400 . S
C408 H393 0.960 . S
C408 H394 0.960 . S
C408 H395 0.960 . S
C408 C407 1.524 . S
C409 C406 1.403 . S
C409 C410 1.392 . S
C409 C413 1.495 . S
C410 C409 1.392 . S
C410 C411 1.385 . S
C410 C412 1.478 . S
C411 H405 0.930 . S
C411 C407 1.400 . S
C411 C410 1.385 . S
C412 C410 1.478 . S
C412 C414 1.381 . S
C412 C418 1.383 . S
C413 C409 1.495 . S
C413 H419 0.959 . S
C413 H420 0.961 . S
C413 H421 0.960 . S
C414 C412 1.381 . S
C414 C415 1.394 . S
C414 H422 0.930 . S
C415 C414 1.394 . S
C415 C416 1.383 . S
C415 H423 0.929 . S
C416 C415 1.383 . S
C416 C417 1.377 . S
C417 H401 0.930 . S
C417 C416 1.377 . S
C417 C418 1.379 . S
C418 H402 0.931 . S
C418 C412 1.383 . S
C418 C417 1.379 . S
H419 C413 0.959 . S
H420 C413 0.961 . S
H421 C413 0.960 . S
H422 C414 0.930 . S
H423 C415 0.929 . S
H424 C432 0.929 . S
H425 C434 0.930 . S
H426 C436 0.930 . S
H427 C439 0.929 . S
H428 C442 0.930 . S
H429 C444 0.960 . S
H430 C444 0.960 . S
H431 C444 0.960 . S
C432 H424 0.929 . S
C432 C433 1.377 . S
C432 C434 1.384 . S
C433 C432 1.377 . S
C433 C439 1.390 . S
C434 H425 0.930 . S
C434 C432 1.384 . S
C434 C435 1.372 . S
C435 C434 1.372 . S
C435 C436 1.400 . S
C435 C440 1.490 . S
C436 H426 0.930 . S
C436 C435 1.400 . S
C436 C439 1.386 . S
H437 C453 0.930 . S
H438 C454 0.931 . S
C439 H427 0.929 . S
C439 C433 1.390 . S
C439 C436 1.386 . S
C440 C435 1.490 . S
C440 C442 1.395 . S
C440 C443 1.403 . S
H441 C447 0.930 . S
C442 H428 0.930 . S
C442 C440 1.395 . S
C442 C445 1.403 . S
C443 C440 1.403 . S
C443 C444 1.524 . S
C443 C447 1.400 . S
C444 H429 0.960 . S
C444 H430 0.960 . S
C444 H431 0.960 . S
C444 C443 1.524 . S
C445 C442 1.403 . S
C445 C446 1.392 . S
C445 C449 1.495 . S
C446 C445 1.392 . S
C446 C447 1.385 . S
C446 C448 1.478 . S
C447 H441 0.930 . S
C447 C443 1.400 . S
C447 C446 1.385 . S
C448 C446 1.478 . S
C448 C450 1.381 . S
C448 C454 1.383 . S
C449 C445 1.495 . S
C449 H455 0.959 . S
C449 H456 0.961 . S
C449 H457 0.960 . S
C450 C448 1.381 . S
C450 C451 1.394 . S
C450 H458 0.930 . S
C451 C450 1.394 . S
C451 C452 1.383 . S
C451 H459 0.929 . S
C452 C451 1.383 . S
C452 C453 1.377 . S
C453 H437 0.930 . S
C453 C452 1.377 . S
C453 C454 1.379 . S
C454 H438 0.931 . S
C454 C448 1.383 . S
C454 C453 1.379 . S
H455 C449 0.959 . S
H456 C449 0.961 . S
H457 C449 0.960 . S
H458 C450 0.930 . S
H459 C451 0.929 . S
H460 C468 0.929 . S
H461 C470 0.930 . S
H462 C472 0.930 . S
H463 C475 0.929 . S
H464 C478 0.930 . S
H465 C480 0.960 . S
H466 C480 0.960 . S
H467 C480 0.960 . S
C468 H460 0.929 . S
C468 C469 1.377 . S
C468 C470 1.384 . S
C469 C468 1.377 . S
C469 C475 1.390 . S
C470 H461 0.930 . S
C470 C468 1.384 . S
C470 C471 1.372 . S
C471 C470 1.372 . S
C471 C472 1.400 . S
C471 C476 1.490 . S
C472 H462 0.930 . S
C472 C471 1.400 . S
C472 C475 1.386 . S
H473 C489 0.930 . S
H474 C490 0.931 . S
C475 H463 0.929 . S
C475 C469 1.390 . S
C475 C472 1.386 . S
C476 C471 1.490 . S
C476 C478 1.395 . S
C476 C479 1.403 . S
H477 C483 0.930 . S
C478 H464 0.930 . S
C478 C476 1.395 . S
C478 C481 1.403 . S
C479 C476 1.403 . S
C479 C480 1.524 . S
C479 C483 1.400 . S
C480 H465 0.960 . S
C480 H466 0.960 . S
C480 H467 0.960 . S
C480 C479 1.524 . S
C481 C478 1.403 . S
C481 C482 1.392 . S
C481 C485 1.495 . S
C482 C481 1.392 . S
C482 C483 1.385 . S
C482 C484 1.478 . S
C483 H477 0.930 . S
C483 C479 1.400 . S
C483 C482 1.385 . S
C484 C482 1.478 . S
C484 C486 1.381 . S
C484 C490 1.383 . S
C485 C481 1.495 . S
C485 H491 0.959 . S
C485 H492 0.961 . S
C485 H493 0.960 . S
C486 C484 1.381 . S
C486 C487 1.394 . S
C486 H494 0.930 . S
C487 C486 1.394 . S
C487 C488 1.383 . S
C487 H495 0.929 . S
C488 C487 1.383 . S
C488 C489 1.377 . S
C489 H473 0.930 . S
C489 C488 1.377 . S
C489 C490 1.379 . S
C490 H474 0.931 . S
C490 C484 1.383 . S
C490 C489 1.379 . S
H491 C485 0.959 . S
H492 C485 0.961 . S
H493 C485 0.960 . S
H494 C486 0.930 . S
H495 C487 0.929 . S
H496 C504 0.929 . S
H497 C506 0.930 . S
H498 C508 0.930 . S
H499 C511 0.929 . S
H500 C514 0.930 . S
H501 C516 0.960 . S
H502 C516 0.960 . S
H503 C516 0.960 . S
C504 H496 0.929 . S
C504 C505 1.377 . S
C504 C506 1.384 . S
C505 C504 1.377 . S
C505 C511 1.390 . S
C506 H497 0.930 . S
C506 C504 1.384 . S
C506 C507 1.372 . S
C507 C506 1.372 . S
C507 C508 1.400 . S
C507 C512 1.490 . S
C508 H498 0.930 . S
C508 C507 1.400 . S
C508 C511 1.386 . S
H509 C525 0.930 . S
H510 C526 0.931 . S
C511 H499 0.929 . S
C511 C505 1.390 . S
C511 C508 1.386 . S
C512 C507 1.490 . S
C512 C514 1.395 . S
C512 C515 1.403 . S
H513 C519 0.930 . S
C514 H500 0.930 . S
C514 C512 1.395 . S
C514 C517 1.403 . S
C515 C512 1.403 . S
C515 C516 1.524 . S
C515 C519 1.400 . S
C516 H501 0.960 . S
C516 H502 0.960 . S
C516 H503 0.960 . S
C516 C515 1.524 . S
C517 C514 1.403 . S
C517 C518 1.392 . S
C517 C521 1.495 . S
C518 C517 1.392 . S
C518 C519 1.385 . S
C518 C520 1.478 . S
C519 H513 0.930 . S
C519 C515 1.400 . S
C519 C518 1.385 . S
C520 C518 1.478 . S
C520 C522 1.381 . S
C520 C526 1.383 . S
C521 C517 1.495 . S
C521 H527 0.959 . S
C521 H528 0.961 . S
C521 H529 0.960 . S
C522 C520 1.381 . S
C522 C523 1.394 . S
C522 H530 0.930 . S
C523 C522 1.394 . S
C523 C524 1.383 . S
C523 H531 0.929 . S
C524 C523 1.383 . S
C524 C525 1.377 . S
C525 H509 0.930 . S
C525 C524 1.377 . S
C525 C526 1.379 . S
C526 H510 0.931 . S
C526 C520 1.383 . S
C526 C525 1.379 . S
H527 C521 0.959 . S
H528 C521 0.961 . S
H529 C521 0.960 . S
H530 C522 0.930 . S
H531 C523 0.929 . S
H532 C540 0.929 . S
H533 C542 0.930 . S
H534 C544 0.930 . S
H535 C547 0.929 . S
H536 C550 0.930 . S
H537 C552 0.960 . S
H538 C552 0.960 . S
H539 C552 0.960 . S
C540 H532 0.929 . S
C540 C541 1.377 . S
C540 C542 1.384 . S
C541 C540 1.377 . S
C541 C547 1.390 . S
C542 H533 0.930 . S
C542 C540 1.384 . S
C542 C543 1.372 . S
C543 C542 1.372 . S
C543 C544 1.400 . S
C543 C548 1.490 . S
C544 H534 0.930 . S
C544 C543 1.400 . S
C544 C547 1.386 . S
H545 C561 0.930 . S
H546 C562 0.931 . S
C547 H535 0.929 . S
C547 C541 1.390 . S
C547 C544 1.386 . S
C548 C543 1.490 . S
C548 C550 1.395 . S
C548 C551 1.403 . S
H549 C555 0.930 . S
C550 H536 0.930 . S
C550 C548 1.395 . S
C550 C553 1.403 . S
C551 C548 1.403 . S
C551 C552 1.524 . S
C551 C555 1.400 . S
C552 H537 0.960 . S
C552 H538 0.960 . S
C552 H539 0.960 . S
C552 C551 1.524 . S
C553 C550 1.403 . S
C553 C554 1.392 . S
C553 C557 1.495 . S
C554 C553 1.392 . S
C554 C555 1.385 . S
C554 C556 1.478 . S
C555 H549 0.930 . S
C555 C551 1.400 . S
C555 C554 1.385 . S
C556 C554 1.478 . S
C556 C558 1.381 . S
C556 C562 1.383 . S
C557 C553 1.495 . S
C557 H563 0.959 . S
C557 H564 0.961 . S
C557 H565 0.960 . S
C558 C556 1.381 . S
C558 C559 1.394 . S
C558 H566 0.930 . S
C559 C558 1.394 . S
C559 C560 1.383 . S
C559 H567 0.929 . S
C560 C559 1.383 . S
C560 C561 1.377 . S
C561 H545 0.930 . S
C561 C560 1.377 . S
C561 C562 1.379 . S
C562 H546 0.931 . S
C562 C556 1.383 . S
C562 C561 1.379 . S
H563 C557 0.959 . S
H564 C557 0.961 . S
H565 C557 0.960 . S
H566 C558 0.930 . S
H567 C559 0.929 . S
H568 C576 0.929 . S
H569 C578 0.930 . S
H570 C580 0.930 . S
H571 C583 0.929 . S
H572 C586 0.930 . S
H573 C588 0.960 . S
H574 C588 0.960 . S
H575 C588 0.960 . S
C576 H568 0.929 . S
C576 C577 1.377 . S
C576 C578 1.384 . S
C577 C576 1.377 . S
C577 C583 1.390 . S
C578 H569 0.930 . S
C578 C576 1.384 . S
C578 C579 1.372 . S
C579 C578 1.372 . S
C579 C580 1.400 . S
C579 C584 1.490 . S
C580 H570 0.930 . S
C580 C579 1.400 . S
C580 C583 1.386 . S
H581 C597 0.930 . S
H582 C598 0.931 . S
C583 H571 0.929 . S
C583 C577 1.390 . S
C583 C580 1.386 . S
C584 C579 1.490 . S
C584 C586 1.395 . S
C584 C587 1.403 . S
H585 C591 0.930 . S
C586 H572 0.930 . S
C586 C584 1.395 . S
C586 C589 1.403 . S
C587 C584 1.403 . S
C587 C588 1.524 . S
C587 C591 1.400 . S
C588 H573 0.960 . S
C588 H574 0.960 . S
C588 H575 0.960 . S
C588 C587 1.524 . S
C589 C586 1.403 . S
C589 C590 1.392 . S
C589 C593 1.495 . S
C590 C589 1.392 . S
C590 C591 1.385 . S
C590 C592 1.478 . S
C591 H585 0.930 . S
C591 C587 1.400 . S
C591 C590 1.385 . S
C592 C590 1.478 . S
C592 C594 1.381 . S
C592 C598 1.383 . S
C593 C589 1.495 . S
C593 H599 0.959 . S
C593 H600 0.961 . S
C593 H601 0.960 . S
C594 C592 1.381 . S
C594 C595 1.394 . S
C594 H602 0.930 . S
C595 C594 1.394 . S
C595 C596 1.383 . S
C595 H603 0.929 . S
C596 C595 1.383 . S
C596 C597 1.377 . S
C597 H581 0.930 . S
C597 C596 1.377 . S
C597 C598 1.379 . S
C598 H582 0.931 . S
C598 C592 1.383 . S
C598 C597 1.379 . S
H599 C593 0.959 . S
H600 C593 0.961 . S
H601 C593 0.960 . S
H602 C594 0.930 . S
H603 C595 0.929 . S
H604 C612 0.929 . S
H605 C614 0.930 . S
H606 C616 0.930 . S
H607 C619 0.929 . S
H608 C622 0.930 . S
H609 C624 0.960 . S
H610 C624 0.960 . S
H611 C624 0.960 . S
C612 H604 0.929 . S
C612 C613 1.377 . S
C612 C614 1.384 . S
C613 C612 1.377 . S
C613 C619 1.390 . S
C614 H605 0.930 . S
C614 C612 1.384 . S
C614 C615 1.372 . S
C615 C614 1.372 . S
C615 C616 1.400 . S
C615 C620 1.490 . S
C616 H606 0.930 . S
C616 C615 1.400 . S
C616 C619 1.386 . S
H617 C633 0.930 . S
H618 C634 0.931 . S
C619 H607 0.929 . S
C619 C613 1.390 . S
C619 C616 1.386 . S
C620 C615 1.490 . S
C620 C622 1.395 . S
C620 C623 1.403 . S
H621 C627 0.930 . S
C622 H608 0.930 . S
C622 C620 1.395 . S
C622 C625 1.403 . S
C623 C620 1.403 . S
C623 C624 1.524 . S
C623 C627 1.400 . S
C624 H609 0.960 . S
C624 H610 0.960 . S
C624 H611 0.960 . S
C624 C623 1.524 . S
C625 C622 1.403 . S
C625 C626 1.392 . S
C625 C629 1.495 . S
C626 C625 1.392 . S
C626 C627 1.385 . S
C626 C628 1.478 . S
C627 H621 0.930 . S
C627 C623 1.400 . S
C627 C626 1.385 . S
C628 C626 1.478 . S
C628 C630 1.381 . S
C628 C634 1.383 . S
C629 C625 1.495 . S
C629 H635 0.959 . S
C629 H636 0.961 . S
C629 H637 0.960 . S
C630 C628 1.381 . S
C630 C631 1.394 . S
C630 H638 0.930 . S
C631 C630 1.394 . S
C631 C632 1.383 . S
C631 H639 0.929 . S
C632 C631 1.383 . S
C632 C633 1.377 . S
C633 H617 0.930 . S
C633 C632 1.377 . S
C633 C634 1.379 . S
C634 H618 0.931 . S
C634 C628 1.383 . S
C634 C633 1.379 . S
H635 C629 0.959 . S
H636 C629 0.961 . S
H637 C629 0.960 . S
H638 C630 0.930 . S
H639 C631 0.929 . S
H640 C648 0.929 . S
H641 C650 0.930 . S
H642 C652 0.930 . S
H643 C655 0.929 . S
H644 C658 0.930 . S
H645 C660 0.960 . S
H646 C660 0.960 . S
H647 C660 0.960 . S
C648 H640 0.929 . S
C648 C649 1.377 . S
C648 C650 1.384 . S
C649 C648 1.377 . S
C649 C655 1.390 . S
C650 H641 0.930 . S
C650 C648 1.384 . S
C650 C651 1.372 . S
C651 C650 1.372 . S
C651 C652 1.400 . S
C651 C656 1.490 . S
C652 H642 0.930 . S
C652 C651 1.400 . S
C652 C655 1.386 . S
H653 C669 0.930 . S
H654 C670 0.931 . S
C655 H643 0.929 . S
C655 C649 1.390 . S
C655 C652 1.386 . S
C656 C651 1.490 . S
C656 C658 1.395 . S
C656 C659 1.403 . S
H657 C663 0.930 . S
C658 H644 0.930 . S
C658 C656 1.395 . S
C658 C661 1.403 . S
C659 C656 1.403 . S
C659 C660 1.524 . S
C659 C663 1.400 . S
C660 H645 0.960 . S
C660 H646 0.960 . S
C660 H647 0.960 . S
C660 C659 1.524 . S
C661 C658 1.403 . S
C661 C662 1.392 . S
C661 C665 1.495 . S
C662 C661 1.392 . S
C662 C663 1.385 . S
C662 C664 1.478 . S
C663 H657 0.930 . S
C663 C659 1.400 . S
C663 C662 1.385 . S
C664 C662 1.478 . S
C664 C666 1.381 . S
C664 C670 1.383 . S
C665 C661 1.495 . S
C665 H671 0.959 . S
C665 H672 0.961 . S
C665 H673 0.960 . S
C666 C664 1.381 . S
C666 C667 1.394 . S
C666 H674 0.930 . S
C667 C666 1.394 . S
C667 C668 1.383 . S
C667 H675 0.929 . S
C668 C667 1.383 . S
C668 C669 1.377 . S
C669 H653 0.930 . S
C669 C668 1.377 . S
C669 C670 1.379 . S
C670 H654 0.931 . S
C670 C664 1.383 . S
C670 C669 1.379 . S
H671 C665 0.959 . S
H672 C665 0.961 . S
H673 C665 0.960 . S
H674 C666 0.930 . S
H675 C667 0.929 . S
H676 C684 0.929 . S
H677 C686 0.930 . S
H678 C688 0.930 . S
H679 C691 0.929 . S
H680 C694 0.930 . S
H681 C696 0.960 . S
H682 C696 0.960 . S
H683 C696 0.960 . S
C684 H676 0.929 . S
C684 C685 1.377 . S
C684 C686 1.384 . S
C685 C684 1.377 . S
C685 C691 1.390 . S
C686 H677 0.930 . S
C686 C684 1.384 . S
C686 C687 1.372 . S
C687 C686 1.372 . S
C687 C688 1.400 . S
C687 C692 1.490 . S
C688 H678 0.930 . S
C688 C687 1.400 . S
C688 C691 1.386 . S
H689 C705 0.930 . S
H690 C706 0.931 . S
C691 H679 0.929 . S
C691 C685 1.390 . S
C691 C688 1.386 . S
C692 C687 1.490 . S
C692 C694 1.395 . S
C692 C695 1.403 . S
H693 C699 0.930 . S
C694 H680 0.930 . S
C694 C692 1.395 . S
C694 C697 1.403 . S
C695 C692 1.403 . S
C695 C696 1.524 . S
C695 C699 1.400 . S
C696 H681 0.960 . S
C696 H682 0.960 . S
C696 H683 0.960 . S
C696 C695 1.524 . S
C697 C694 1.403 . S
C697 C698 1.392 . S
C697 C701 1.495 . S
C698 C697 1.392 . S
C698 C699 1.385 . S
C698 C700 1.478 . S
C699 H693 0.930 . S
C699 C695 1.400 . S
C699 C698 1.385 . S
C700 C698 1.478 . S
C700 C702 1.381 . S
C700 C706 1.383 . S
C701 C697 1.495 . S
C701 H707 0.959 . S
C701 H708 0.961 . S
C701 H709 0.960 . S
C702 C700 1.381 . S
C702 C703 1.394 . S
C702 H710 0.930 . S
C703 C702 1.394 . S
C703 C704 1.383 . S
C703 H711 0.929 . S
C704 C703 1.383 . S
C704 C705 1.377 . S
C705 H689 0.930 . S
C705 C704 1.377 . S
C705 C706 1.379 . S
C706 H690 0.931 . S
C706 C700 1.383 . S
C706 C705 1.379 . S
H707 C701 0.959 . S
H708 C701 0.961 . S
H709 C701 0.960 . S
H710 C702 0.930 . S
H711 C703 0.929 . S
H712 C720 0.929 . S
H713 C722 0.930 . S
H714 C724 0.930 . S
H715 C727 0.929 . S
H716 C730 0.930 . S
H717 C732 0.960 . S
H718 C732 0.960 . S
H719 C732 0.960 . S
C720 H712 0.929 . S
C720 C721 1.377 . S
C720 C722 1.384 . S
C721 C720 1.377 . S
C721 C727 1.390 . S
C722 H713 0.930 . S
C722 C720 1.384 . S
C722 C723 1.372 . S
C723 C722 1.372 . S
C723 C724 1.400 . S
C723 C728 1.490 . S
C724 H714 0.930 . S
C724 C723 1.400 . S
C724 C727 1.386 . S
H725 C741 0.930 . S
H726 C742 0.931 . S
C727 H715 0.929 . S
C727 C721 1.390 . S
C727 C724 1.386 . S
C728 C723 1.490 . S
C728 C730 1.395 . S
C728 C731 1.403 . S
H729 C735 0.930 . S
C730 H716 0.930 . S
C730 C728 1.395 . S
C730 C733 1.403 . S
C731 C728 1.403 . S
C731 C732 1.524 . S
C731 C735 1.400 . S
C732 H717 0.960 . S
C732 H718 0.960 . S
C732 H719 0.960 . S
C732 C731 1.524 . S
C733 C730 1.403 . S
C733 C734 1.392 . S
C733 C737 1.495 . S
C734 C733 1.392 . S
C734 C735 1.385 . S
C734 C736 1.478 . S
C735 H729 0.930 . S
C735 C731 1.400 . S
C735 C734 1.385 . S
C736 C734 1.478 . S
C736 C738 1.381 . S
C736 C742 1.383 . S
C737 C733 1.495 . S
C737 H743 0.959 . S
C737 H744 0.961 . S
C737 H745 0.960 . S
C738 C736 1.381 . S
C738 C739 1.394 . S
C738 H746 0.930 . S
C739 C738 1.394 . S
C739 C740 1.383 . S
C739 H747 0.929 . S
C740 C739 1.383 . S
C740 C741 1.377 . S
C741 H725 0.930 . S
C741 C740 1.377 . S
C741 C742 1.379 . S
C742 H726 0.931 . S
C742 C736 1.383 . S
C742 C741 1.379 . S
H743 C737 0.959 . S
H744 C737 0.961 . S
H745 C737 0.960 . S
H746 C738 0.930 . S
H747 C739 0.929 . S
H748 C756 0.929 . S
H749 C758 0.930 . S
H750 C760 0.930 . S
H751 C763 0.929 . S
H752 C766 0.930 . S
H753 C768 0.960 . S
H754 C768 0.960 . S
H755 C768 0.960 . S
C756 H748 0.929 . S
C756 C757 1.377 . S
C756 C758 1.384 . S
C757 C756 1.377 . S
C757 C763 1.390 . S
C758 H749 0.930 . S
C758 C756 1.384 . S
C758 C759 1.372 . S
C759 C758 1.372 . S
C759 C760 1.400 . S
C759 C764 1.490 . S
C760 H750 0.930 . S
C760 C759 1.400 . S
C760 C763 1.386 . S
H761 C777 0.930 . S
H762 C778 0.931 . S
C763 H751 0.929 . S
C763 C757 1.390 . S
C763 C760 1.386 . S
C764 C759 1.490 . S
C764 C766 1.395 . S
C764 C767 1.403 . S
H765 C771 0.930 . S
C766 H752 0.930 . S
C766 C764 1.395 . S
C766 C769 1.403 . S
C767 C764 1.403 . S
C767 C768 1.524 . S
C767 C771 1.400 . S
C768 H753 0.960 . S
C768 H754 0.960 . S
C768 H755 0.960 . S
C768 C767 1.524 . S
C769 C766 1.403 . S
C769 C770 1.392 . S
C769 C773 1.495 . S
C770 C769 1.392 . S
C770 C771 1.385 . S
C770 C772 1.478 . S
C771 H765 0.930 . S
C771 C767 1.400 . S
C771 C770 1.385 . S
C772 C770 1.478 . S
C772 C774 1.381 . S
C772 C778 1.383 . S
C773 C769 1.495 . S
C773 H779 0.959 . S
C773 H780 0.961 . S
C773 H781 0.960 . S
C774 C772 1.381 . S
C774 C775 1.394 . S
C774 H782 0.930 . S
C775 C774 1.394 . S
C775 C776 1.383 . S
C775 H783 0.929 . S
C776 C775 1.383 . S
C776 C777 1.377 . S
C777 H761 0.930 . S
C777 C776 1.377 . S
C777 C778 1.379 . S
C778 H762 0.931 . S
C778 C772 1.383 . S
C778 C777 1.379 . S
H779 C773 0.959 . S
H780 C773 0.961 . S
H781 C773 0.960 . S
H782 C774 0.930 . S
H783 C775 0.929 . S
H784 C792 0.929 . S
H785 C794 0.930 . S
H786 C796 0.930 . S
H787 C799 0.929 . S
H788 C802 0.930 . S
H789 C804 0.960 . S
H790 C804 0.960 . S
H791 C804 0.960 . S
C792 H784 0.929 . S
C792 C793 1.377 . S
C792 C794 1.384 . S
C793 C792 1.377 . S
C793 C799 1.390 . S
C794 H785 0.930 . S
C794 C792 1.384 . S
C794 C795 1.372 . S
C795 C794 1.372 . S
C795 C796 1.400 . S
C795 C800 1.490 . S
C796 H786 0.930 . S
C796 C795 1.400 . S
C796 C799 1.386 . S
H797 C813 0.930 . S
H798 C814 0.931 . S
C799 H787 0.929 . S
C799 C793 1.390 . S
C799 C796 1.386 . S
C800 C795 1.490 . S
C800 C802 1.395 . S
C800 C803 1.403 . S
H801 C807 0.930 . S
C802 H788 0.930 . S
C802 C800 1.395 . S
C802 C805 1.403 . S
C803 C800 1.403 . S
C803 C804 1.524 . S
C803 C807 1.400 . S
C804 H789 0.960 . S
C804 H790 0.960 . S
C804 H791 0.960 . S
C804 C803 1.524 . S
C805 C802 1.403 . S
C805 C806 1.392 . S
C805 C809 1.495 . S
C806 C805 1.392 . S
C806 C807 1.385 . S
C806 C808 1.478 . S
C807 H801 0.930 . S
C807 C803 1.400 . S
C807 C806 1.385 . S
C808 C806 1.478 . S
C808 C810 1.381 . S
C808 C814 1.383 . S
C809 C805 1.495 . S
C809 H815 0.959 . S
C809 H816 0.961 . S
C809 H817 0.960 . S
C810 C808 1.381 . S
C810 C811 1.394 . S
C810 H818 0.930 . S
C811 C810 1.394 . S
C811 C812 1.383 . S
C811 H819 0.929 . S
C812 C811 1.383 . S
C812 C813 1.377 . S
C813 H797 0.930 . S
C813 C812 1.377 . S
C813 C814 1.379 . S
C814 H798 0.931 . S
C814 C808 1.383 . S
C814 C813 1.379 . S
H815 C809 0.959 . S
H816 C809 0.961 . S
H817 C809 0.960 . S
H818 C810 0.930 . S
H819 C811 0.929 . S
H820 C828 0.929 . S
H821 C830 0.930 . S
H822 C832 0.930 . S
H823 C835 0.929 . S
H824 C838 0.930 . S
H825 C840 0.960 . S
H826 C840 0.960 . S
H827 C840 0.960 . S
C828 H820 0.929 . S
C828 C829 1.377 . S
C828 C830 1.384 . S
C829 C828 1.377 . S
C829 C835 1.390 . S
C830 H821 0.930 . S
C830 C828 1.384 . S
C830 C831 1.372 . S
C831 C830 1.372 . S
C831 C832 1.400 . S
C831 C836 1.490 . S
C832 H822 0.930 . S
C832 C831 1.400 . S
C832 C835 1.386 . S
H833 C849 0.930 . S
H834 C850 0.931 . S
C835 H823 0.929 . S
C835 C829 1.390 . S
C835 C832 1.386 . S
C836 C831 1.490 . S
C836 C838 1.395 . S
C836 C839 1.403 . S
H837 C843 0.930 . S
C838 H824 0.930 . S
C838 C836 1.395 . S
C838 C841 1.403 . S
C839 C836 1.403 . S
C839 C840 1.524 . S
C839 C843 1.400 . S
C840 H825 0.960 . S
C840 H826 0.960 . S
C840 H827 0.960 . S
C840 C839 1.524 . S
C841 C838 1.403 . S
C841 C842 1.392 . S
C841 C845 1.495 . S
C842 C841 1.392 . S
C842 C843 1.385 . S
C842 C844 1.478 . S
C843 H837 0.930 . S
C843 C839 1.400 . S
C843 C842 1.385 . S
C844 C842 1.478 . S
C844 C846 1.381 . S
C844 C850 1.383 . S
C845 C841 1.495 . S
C845 H851 0.959 . S
C845 H852 0.961 . S
C845 H853 0.960 . S
C846 C844 1.381 . S
C846 C847 1.394 . S
C846 H854 0.930 . S
C847 C846 1.394 . S
C847 C848 1.383 . S
C847 H855 0.929 . S
C848 C847 1.383 . S
C848 C849 1.377 . S
C849 H833 0.930 . S
C849 C848 1.377 . S
C849 C850 1.379 . S
C850 H834 0.931 . S
C850 C844 1.383 . S
C850 C849 1.379 . S
H851 C845 0.959 . S
H852 C845 0.961 . S
H853 C845 0.960 . S
H854 C846 0.930 . S
H855 C847 0.929 . S
H856 C864 0.929 . S
H857 C866 0.930 . S
H858 C868 0.930 . S
H859 C871 0.929 . S
H860 C874 0.930 . S
H861 C876 0.960 . S
H862 C876 0.960 . S
H863 C876 0.960 . S
C864 H856 0.929 . S
C864 C865 1.377 . S
C864 C866 1.384 . S
C865 C864 1.377 . S
C865 C871 1.390 . S
C866 H857 0.930 . S
C866 C864 1.384 . S
C866 C867 1.372 . S
C867 C866 1.372 . S
C867 C868 1.400 . S
C867 C872 1.490 . S
C868 H858 0.930 . S
C868 C867 1.400 . S
C868 C871 1.386 . S
H869 C885 0.930 . S
H870 C886 0.931 . S
C871 H859 0.929 . S
C871 C865 1.390 . S
C871 C868 1.386 . S
C872 C867 1.490 . S
C872 C874 1.395 . S
C872 C875 1.403 . S
H873 C879 0.930 . S
C874 H860 0.930 . S
C874 C872 1.395 . S
C874 C877 1.403 . S
C875 C872 1.403 . S
C875 C876 1.524 . S
C875 C879 1.400 . S
C876 H861 0.960 . S
C876 H862 0.960 . S
C876 H863 0.960 . S
C876 C875 1.524 . S
C877 C874 1.403 . S
C877 C878 1.392 . S
C877 C881 1.495 . S
C878 C877 1.392 . S
C878 C879 1.385 . S
C878 C880 1.478 . S
C879 H873 0.930 . S
C879 C875 1.400 . S
C879 C878 1.385 . S
C880 C878 1.478 . S
C880 C882 1.381 . S
C880 C886 1.383 . S
C881 C877 1.495 . S
C881 H887 0.959 . S
C881 H888 0.961 . S
C881 H889 0.960 . S
C882 C880 1.381 . S
C882 C883 1.394 . S
C882 H890 0.930 . S
C883 C882 1.394 . S
C883 C884 1.383 . S
C883 H891 0.929 . S
C884 C883 1.383 . S
C884 C885 1.377 . S
C885 H869 0.930 . S
C885 C884 1.377 . S
C885 C886 1.379 . S
C886 H870 0.931 . S
C886 C880 1.383 . S
C886 C885 1.379 . S
H887 C881 0.959 . S
H888 C881 0.961 . S
H889 C881 0.960 . S
H890 C882 0.930 . S
H891 C883 0.929 . S
H892 C900 0.929 . S
H893 C902 0.930 . S
H894 C904 0.930 . S
H895 C907 0.929 . S
H896 C910 0.930 . S
H897 C912 0.960 . S
H898 C912 0.960 . S
H899 C912 0.960 . S
C900 H892 0.929 . S
C900 C901 1.377 . S
C900 C902 1.384 . S
C901 C900 1.377 . S
C901 C907 1.390 . S
C902 H893 0.930 . S
C902 C900 1.384 . S
C902 C903 1.372 . S
C903 C902 1.372 . S
C903 C904 1.400 . S
C903 C908 1.490 . S
C904 H894 0.930 . S
C904 C903 1.400 . S
C904 C907 1.386 . S
H905 C921 0.930 . S
H906 C922 0.931 . S
C907 H895 0.929 . S
C907 C901 1.390 . S
C907 C904 1.386 . S
C908 C903 1.490 . S
C908 C910 1.395 . S
C908 C911 1.403 . S
H909 C915 0.930 . S
C910 H896 0.930 . S
C910 C908 1.395 . S
C910 C913 1.403 . S
C911 C908 1.403 . S
C911 C912 1.524 . S
C911 C915 1.400 . S
C912 H897 0.960 . S
C912 H898 0.960 . S
C912 H899 0.960 . S
C912 C911 1.524 . S
C913 C910 1.403 . S
C913 C914 1.392 . S
C913 C917 1.495 . S
C914 C913 1.392 . S
C914 C915 1.385 . S
C914 C916 1.478 . S
C915 H909 0.930 . S
C915 C911 1.400 . S
C915 C914 1.385 . S
C916 C914 1.478 . S
C916 C918 1.381 . S
C916 C922 1.383 . S
C917 C913 1.495 . S
C917 H923 0.959 . S
C917 H924 0.961 . S
C917 H925 0.960 . S
C918 C916 1.381 . S
C918 C919 1.394 . S
C918 H926 0.930 . S
C919 C918 1.394 . S
C919 C920 1.383 . S
C919 H927 0.929 . S
C920 C919 1.383 . S
C920 C921 1.377 . S
C921 H905 0.930 . S
C921 C920 1.377 . S
C921 C922 1.379 . S
C922 H906 0.931 . S
C922 C916 1.383 . S
C922 C921 1.379 . S
H923 C917 0.959 . S
H924 C917 0.961 . S
H925 C917 0.960 . S
H926 C918 0.930 . S
H927 C919 0.929 . S
H928 C936 0.929 . S
H929 C938 0.930 . S
H930 C940 0.930 . S
H931 C943 0.929 . S
H932 C946 0.930 . S
H933 C948 0.960 . S
H934 C948 0.960 . S
H935 C948 0.960 . S
C936 H928 0.929 . S
C936 C937 1.377 . S
C936 C938 1.384 . S
C937 C936 1.377 . S
C937 C943 1.390 . S
C938 H929 0.930 . S
C938 C936 1.384 . S
C938 C939 1.372 . S
C939 C938 1.372 . S
C939 C940 1.400 . S
C939 C944 1.490 . S
C940 H930 0.930 . S
C940 C939 1.400 . S
C940 C943 1.386 . S
H941 C957 0.930 . S
H942 C958 0.931 . S
C943 H931 0.929 . S
C943 C937 1.390 . S
C943 C940 1.386 . S
C944 C939 1.490 . S
C944 C946 1.395 . S
C944 C947 1.403 . S
H945 C951 0.930 . S
C946 H932 0.930 . S
C946 C944 1.395 . S
C946 C949 1.403 . S
C947 C944 1.403 . S
C947 C948 1.524 . S
C947 C951 1.400 . S
C948 H933 0.960 . S
C948 H934 0.960 . S
C948 H935 0.960 . S
C948 C947 1.524 . S
C949 C946 1.403 . S
C949 C950 1.392 . S
C949 C953 1.495 . S
C950 C949 1.392 . S
C950 C951 1.385 . S
C950 C952 1.478 . S
C951 H945 0.930 . S
C951 C947 1.400 . S
C951 C950 1.385 . S
C952 C950 1.478 . S
C952 C954 1.381 . S
C952 C958 1.383 . S
C953 C949 1.495 . S
C953 H959 0.959 . S
C953 H960 0.961 . S
C953 H961 0.960 . S
C954 C952 1.381 . S
C954 C955 1.394 . S
C954 H962 0.930 . S
C955 C954 1.394 . S
C955 C956 1.383 . S
C955 H963 0.929 . S
C956 C955 1.383 . S
C956 C957 1.377 . S
C957 H941 0.930 . S
C957 C956 1.377 . S
C957 C958 1.379 . S
C958 H942 0.931 . S
C958 C952 1.383 . S
C958 C957 1.379 . S
H959 C953 0.959 . S
H960 C953 0.961 . S
H961 C953 0.960 . S
H962 C954 0.930 . S
H963 C955 0.929 . S
H964 C972 0.929 . S
H965 C974 0.930 . S
H966 C976 0.930 . S
H967 C979 0.929 . S
H968 C982 0.930 . S
H969 C984 0.960 . S
H970 C984 0.960 . S
H971 C984 0.960 . S
C972 H964 0.929 . S
C972 C973 1.377 . S
C972 C974 1.384 . S
C973 C972 1.377 . S
C973 C979 1.390 . S
C974 H965 0.930 . S
C974 C972 1.384 . S
C974 C975 1.372 . S
C975 C974 1.372 . S
C975 C976 1.400 . S
C975 C980 1.490 . S
C976 H966 0.930 . S
C976 C975 1.400 . S
C976 C979 1.386 . S
H977 C993 0.930 . S
H978 C994 0.931 . S
C979 H967 0.929 . S
C979 C973 1.390 . S
C979 C976 1.386 . S
C980 C975 1.490 . S
C980 C982 1.395 . S
C980 C983 1.403 . S
H981 C987 0.930 . S
C982 H968 0.930 . S
C982 C980 1.395 . S
C982 C985 1.403 . S
C983 C980 1.403 . S
C983 C984 1.524 . S
C983 C987 1.400 . S
C984 H969 0.960 . S
C984 H970 0.960 . S
C984 H971 0.960 . S
C984 C983 1.524 . S
C985 C982 1.403 . S
C985 C986 1.392 . S
C985 C989 1.495 . S
C986 C985 1.392 . S
C986 C987 1.385 . S
C986 C988 1.478 . S
C987 H981 0.930 . S
C987 C983 1.400 . S
C987 C986 1.385 . S
C988 C986 1.478 . S
C988 C990 1.381 . S
C988 C994 1.383 . S
C989 C985 1.495 . S
C989 H995 0.959 . S
C989 H996 0.961 . S
C989 H997 0.960 . S
C990 C988 1.381 . S
C990 C991 1.394 . S
C990 H998 0.930 . S
C991 C990 1.394 . S
C991 C992 1.383 . S
C991 H999 0.929 . S
C992 C991 1.383 . S
C992 C993 1.377 . S
C993 H977 0.930 . S
C993 C992 1.377 . S
C993 C994 1.379 . S
C994 H978 0.931 . S
C994 C988 1.383 . S
C994 C993 1.379 . S
H995 C989 0.959 . S
H996 C989 0.961 . S
H997 C989 0.960 . S
H998 C990 0.930 . S
H999 C991 0.929 . S
H1000 C1008 0.929 . S
H1001 C1010 0.930 . S
H1002 C1012 0.930 . S
H1003 C1015 0.929 . S
H1004 C1018 0.930 . S
H1005 C1020 0.960 . S
H1006 C1020 0.960 . S
H1007 C1020 0.960 . S
C1008 H1000 0.929 . S
C1008 C1009 1.377 . S
C1008 C1010 1.384 . S
C1009 C1008 1.377 . S
C1009 C1015 1.390 . S
C1010 H1001 0.930 . S
C1010 C1008 1.384 . S
C1010 C1011 1.372 . S
C1011 C1010 1.372 . S
C1011 C1012 1.400 . S
C1011 C1016 1.490 . S
C1012 H1002 0.930 . S
C1012 C1011 1.400 . S
C1012 C1015 1.386 . S
H1013 C1029 0.930 . S
H1014 C1030 0.931 . S
C1015 H1003 0.929 . S
C1015 C1009 1.390 . S
C1015 C1012 1.386 . S
C1016 C1011 1.490 . S
C1016 C1018 1.395 . S
C1016 C1019 1.403 . S
H1017 C1023 0.930 . S
C1018 H1004 0.930 . S
C1018 C1016 1.395 . S
C1018 C1021 1.403 . S
C1019 C1016 1.403 . S
C1019 C1020 1.524 . S
C1019 C1023 1.400 . S
C1020 H1005 0.960 . S
C1020 H1006 0.960 . S
C1020 H1007 0.960 . S
C1020 C1019 1.524 . S
C1021 C1018 1.403 . S
C1021 C1022 1.392 . S
C1021 C1025 1.495 . S
C1022 C1021 1.392 . S
C1022 C1023 1.385 . S
C1022 C1024 1.478 . S
C1023 H1017 0.930 . S
C1023 C1019 1.400 . S
C1023 C1022 1.385 . S
C1024 C1022 1.478 . S
C1024 C1026 1.381 . S
C1024 C1030 1.383 . S
C1025 C1021 1.495 . S
C1025 H1031 0.959 . S
C1025 H1032 0.961 . S
C1025 H1033 0.960 . S
C1026 C1024 1.381 . S
C1026 C1027 1.394 . S
C1026 H1034 0.930 . S
C1027 C1026 1.394 . S
C1027 C1028 1.383 . S
C1027 H1035 0.929 . S
C1028 C1027 1.383 . S
C1028 C1029 1.377 . S
C1029 H1013 0.930 . S
C1029 C1028 1.377 . S
C1029 C1030 1.379 . S
C1030 H1014 0.931 . S
C1030 C1024 1.383 . S
C1030 C1029 1.379 . S
H1031 C1025 0.959 . S
H1032 C1025 0.961 . S
H1033 C1025 0.960 . S
H1034 C1026 0.930 . S
H1035 C1027 0.929 . S
H1036 C1044 0.929 . S
H1037 C1046 0.930 . S
H1038 C1048 0.930 . S
H1039 C1051 0.929 . S
H1040 C1054 0.930 . S
H1041 C1056 0.960 . S
H1042 C1056 0.960 . S
H1043 C1056 0.960 . S
C1044 H1036 0.929 . S
C1044 C1045 1.377 . S
C1044 C1046 1.384 . S
C1045 C1044 1.377 . S
C1045 C1051 1.390 . S
C1046 H1037 0.930 . S
C1046 C1044 1.384 . S
C1046 C1047 1.372 . S
C1047 C1046 1.372 . S
C1047 C1048 1.400 . S
C1047 C1052 1.490 . S
C1048 H1038 0.930 . S
C1048 C1047 1.400 . S
C1048 C1051 1.386 . S
H1049 C1065 0.930 . S
H1050 C1066 0.931 . S
C1051 H1039 0.929 . S
C1051 C1045 1.390 . S
C1051 C1048 1.386 . S
C1052 C1047 1.490 . S
C1052 C1054 1.395 . S
C1052 C1055 1.403 . S
H1053 C1059 0.930 . S
C1054 H1040 0.930 . S
C1054 C1052 1.395 . S
C1054 C1057 1.403 . S
C1055 C1052 1.403 . S
C1055 C1056 1.524 . S
C1055 C1059 1.400 . S
C1056 H1041 0.960 . S
C1056 H1042 0.960 . S
C1056 H1043 0.960 . S
C1056 C1055 1.524 . S
C1057 C1054 1.403 . S
C1057 C1058 1.392 . S
C1057 C1061 1.495 . S
C1058 C1057 1.392 . S
C1058 C1059 1.385 . S
C1058 C1060 1.478 . S
C1059 H1053 0.930 . S
C1059 C1055 1.400 . S
C1059 C1058 1.385 . S
C1060 C1058 1.478 . S
C1060 C1062 1.381 . S
C1060 C1066 1.383 . S
C1061 C1057 1.495 . S
C1061 H1067 0.959 . S
C1061 H1068 0.961 . S
C1061 H1069 0.960 . S
C1062 C1060 1.381 . S
C1062 C1063 1.394 . S
C1062 H1070 0.930 . S
C1063 C1062 1.394 . S
C1063 C1064 1.383 . S
C1063 H1071 0.929 . S
C1064 C1063 1.383 . S
C1064 C1065 1.377 . S
C1065 H1049 0.930 . S
C1065 C1064 1.377 . S
C1065 C1066 1.379 . S
C1066 H1050 0.931 . S
C1066 C1060 1.383 . S
C1066 C1065 1.379 . S
H1067 C1061 0.959 . S
H1068 C1061 0.961 . S
H1069 C1061 0.960 . S
H1070 C1062 0.930 . S
H1071 C1063 0.929 . S
H1072 C1080 0.929 . S
H1073 C1082 0.930 . S
H1074 C1084 0.930 . S
H1075 C1087 0.929 . S
H1076 C1090 0.930 . S
H1077 C1092 0.960 . S
H1078 C1092 0.960 . S
H1079 C1092 0.960 . S
C1080 H1072 0.929 . S
C1080 C1081 1.377 . S
C1080 C1082 1.384 . S
C1081 C1080 1.377 . S
C1081 C1087 1.390 . S
C1082 H1073 0.930 . S
C1082 C1080 1.384 . S
C1082 C1083 1.372 . S
C1083 C1082 1.372 . S
C1083 C1084 1.400 . S
C1083 C1088 1.490 . S
C1084 H1074 0.930 . S
C1084 C1083 1.400 . S
C1084 C1087 1.386 . S
H1085 C1101 0.930 . S
H1086 C1102 0.931 . S
C1087 H1075 0.929 . S
C1087 C1081 1.390 . S
C1087 C1084 1.386 . S
C1088 C1083 1.490 . S
C1088 C1090 1.395 . S
C1088 C1091 1.403 . S
H1089 C1095 0.930 . S
C1090 H1076 0.930 . S
C1090 C1088 1.395 . S
C1090 C1093 1.403 1_554 S
C1091 C1088 1.403 . S
C1091 C1092 1.524 . S
C1091 C1095 1.400 1_554 S
C1092 H1077 0.960 . S
C1092 H1078 0.960 . S
C1092 H1079 0.960 . S
C1092 C1091 1.524 . S
C1093 C1090 1.403 1_556 S
C1093 C1094 1.392 . S
C1093 C1097 1.495 . S
C1094 C1093 1.392 . S
C1094 C1095 1.385 . S
C1094 C1096 1.478 . S
C1095 H1089 0.930 . S
C1095 C1091 1.400 1_556 S
C1095 C1094 1.385 . S
C1096 C1094 1.478 . S
C1096 C1098 1.381 . S
C1096 C1102 1.383 . S
C1097 C1093 1.495 . S
C1097 H1103 0.959 . S
C1097 H1104 0.961 . S
C1097 H1105 0.960 . S
C1098 C1096 1.381 . S
C1098 C1099 1.394 . S
C1098 H1106 0.930 . S
C1099 C1098 1.394 . S
C1099 C1100 1.383 . S
C1099 H1107 0.929 . S
C1100 C1099 1.383 . S
C1100 C1101 1.377 . S
C1101 H1085 0.930 . S
C1101 C1100 1.377 . S
C1101 C1102 1.379 . S
C1102 H1086 0.931 . S
C1102 C1096 1.383 . S
C1102 C1101 1.379 . S
H1103 C1097 0.959 . S
H1104 C1097 0.961 . S
H1105 C1097 0.960 . S
H1106 C1098 0.930 . S
H1107 C1099 0.929 . S
H1108 C1116 0.929 . S
H1109 C1118 0.930 . S
H1110 C1120 0.930 . S
H1111 C1123 0.929 . S
H1112 C1126 0.930 . S
H1113 C1128 0.960 . S
H1114 C1128 0.960 . S
H1115 C1128 0.960 . S
C1116 H1108 0.929 . S
C1116 C1117 1.377 . S
C1116 C1118 1.384 . S
C1117 C1116 1.377 . S
C1117 C1123 1.390 . S
C1118 H1109 0.930 . S
C1118 C1116 1.384 . S
C1118 C1119 1.372 . S
C1119 C1118 1.372 . S
C1119 C1120 1.400 . S
C1119 C1124 1.490 . S
C1120 H1110 0.930 . S
C1120 C1119 1.400 . S
C1120 C1123 1.386 . S
H1121 C1137 0.930 . S
H1122 C1138 0.931 . S
C1123 H1111 0.929 . S
C1123 C1117 1.390 . S
C1123 C1120 1.386 . S
C1124 C1119 1.490 . S
C1124 C1126 1.395 . S
C1124 C1127 1.403 . S
H1125 C1131 0.930 . S
C1126 H1112 0.930 . S
C1126 C1124 1.395 . S
C1126 C1129 1.403 . S
C1127 C1124 1.403 . S
C1127 C1128 1.524 . S
C1127 C1131 1.400 . S
C1128 H1113 0.960 . S
C1128 H1114 0.960 . S
C1128 H1115 0.960 . S
C1128 C1127 1.524 . S
C1129 C1126 1.403 . S
C1129 C1130 1.392 . S
C1129 C1133 1.495 . S
C1130 C1129 1.392 . S
C1130 C1131 1.385 . S
C1130 C1132 1.478 . S
C1131 H1125 0.930 . S
C1131 C1127 1.400 . S
C1131 C1130 1.385 . S
C1132 C1130 1.478 . S
C1132 C1134 1.381 . S
C1132 C1138 1.383 . S
C1133 C1129 1.495 . S
C1133 H1139 0.959 . S
C1133 H1140 0.961 . S
C1133 H1141 0.960 . S
C1134 C1132 1.381 . S
C1134 C1135 1.394 . S
C1134 H1142 0.930 . S
C1135 C1134 1.394 . S
C1135 C1136 1.383 . S
C1135 H1143 0.929 . S
C1136 C1135 1.383 . S
C1136 C1137 1.377 . S
C1137 H1121 0.930 . S
C1137 C1136 1.377 . S
C1137 C1138 1.379 . S
C1138 H1122 0.931 . S
C1138 C1132 1.383 . S
C1138 C1137 1.379 . S
H1139 C1133 0.959 . S
H1140 C1133 0.961 . S
H1141 C1133 0.960 . S
H1142 C1134 0.930 . S
H1143 C1135 0.929 . S
H1144 C1152 0.929 . S
H1145 C1154 0.930 . S
H1146 C1156 0.929 . S
H1147 C1159 0.957 . S
H1148 C1162 0.930 . S
H1149 C1164 0.960 1_455 S
H1150 C1164 0.960 . S
H1151 C1164 0.960 1_455 S
C1152 H1144 0.929 . S
C1152 C1153 1.377 . S
C1152 C1154 1.384 . S
C1153 C1152 1.377 . S
C1153 C1159 1.363 1_655 S
C1154 H1145 0.930 . S
C1154 C1152 1.384 . S
C1154 C1155 1.372 . S
C1155 C1154 1.372 . S
C1155 C1156 1.401 1_655 S
C1155 C1160 1.490 . S
C1156 H1146 0.929 . S
C1156 C1155 1.401 1_455 S
C1156 C1159 1.385 . S
H1157 C1173 0.921 1_455 S
H1158 C1174 0.931 1_455 S
C1159 H1147 0.957 . S
C1159 C1153 1.363 1_455 S
C1159 C1156 1.385 . S
C1160 C1155 1.490 . S
C1160 C1162 1.395 . S
C1160 C1163 1.403 . S
H1161 C1167 0.930 . S
C1162 H1148 0.930 . S
C1162 C1160 1.395 . S
C1162 C1165 1.403 1_554 S
C1163 C1160 1.403 . S
C1163 C1164 1.524 . S
C1163 C1167 1.400 1_554 S
C1164 H1149 0.960 1_655 S
C1164 H1150 0.960 . S
C1164 H1151 0.960 1_655 S
C1164 C1163 1.524 . S
C1165 C1162 1.403 1_556 S
C1165 C1166 1.392 . S
C1165 C1169 1.495 . S
C1166 C1165 1.392 . S
C1166 C1167 1.385 . S
C1166 C1168 1.478 . S
C1167 H1161 0.930 . S
C1167 C1163 1.400 1_556 S
C1167 C1166 1.385 . S
C1168 C1166 1.478 . S
C1168 C1170 1.381 . S
C1168 C1174 1.383 . S
C1169 C1165 1.495 . S
C1169 H1175 0.959 . S
C1169 H1176 0.961 . S
C1169 H1177 0.960 . S
C1170 C1168 1.381 . S
C1170 C1171 1.394 . S
C1170 H1178 0.930 . S
C1171 C1170 1.394 . S
C1171 C1172 1.383 . S
C1171 H1179 0.929 . S
C1172 C1171 1.383 . S
C1172 C1173 1.385 . S
C1173 H1157 0.921 1_655 S
C1173 C1172 1.385 . S
C1173 C1174 1.380 . S
C1174 H1158 0.931 1_655 S
C1174 C1168 1.383 . S
C1174 C1173 1.380 . S
H1175 C1169 0.959 . S
H1176 C1169 0.961 . S
H1177 C1169 0.960 . S
H1178 C1170 0.930 . S
H1179 C1171 0.929 . S
H1180 C1188 0.929 1_545 S
H1181 C1190 0.930 1_545 S
H1182 C1192 0.930 . S
H1183 C1195 0.929 . S
H1184 C1198 0.930 . S
H1185 C1200 0.957 1_545 S
H1186 C1200 0.960 1_545 S
H1187 C1200 0.960 . S
C1188 H1180 0.929 1_565 S
C1188 C1189 1.377 . S
C1188 C1190 1.384 . S
C1189 C1188 1.377 . S
C1189 C1195 1.390 . S
C1190 H1181 0.930 1_565 S
C1190 C1188 1.384 . S
C1190 C1191 1.372 . S
C1191 C1190 1.372 . S
C1191 C1192 1.400 . S
C1191 C1196 1.490 . S
C1192 H1182 0.930 . S
C1192 C1191 1.400 . S
C1192 C1195 1.386 . S
H1193 C1209 0.930 . S
H1194 C1210 0.931 . S
C1195 H1183 0.929 . S
C1195 C1189 1.390 . S
C1195 C1192 1.386 . S
C1196 C1191 1.490 . S
C1196 C1198 1.395 . S
C1196 C1199 1.403 . S
H1197 C1203 0.930 . S
C1198 H1184 0.930 . S
C1198 C1196 1.395 . S
C1198 C1201 1.403 . S
C1199 C1196 1.403 . S
C1199 C1200 1.524 . S
C1199 C1203 1.400 . S
C1200 H1185 0.957 1_565 S
C1200 H1186 0.960 1_565 S
C1200 H1187 0.960 . S
C1200 C1199 1.524 . S
C1201 C1198 1.403 . S
C1201 C1202 1.392 . S
C1201 C1205 1.495 . S
C1202 C1201 1.392 . S
C1202 C1203 1.385 . S
C1202 C1204 1.478 . S
C1203 H1197 0.930 . S
C1203 C1199 1.400 . S
C1203 C1202 1.385 . S
C1204 C1202 1.478 . S
C1204 C1206 1.381 . S
C1204 C1210 1.383 . S
C1205 C1201 1.495 . S
C1205 H1211 0.959 . S
C1205 H1212 0.961 . S
C1205 H1213 0.960 . S
C1206 C1204 1.381 . S
C1206 C1207 1.394 . S
C1206 H1214 0.930 1_565 S
C1207 C1206 1.394 . S
C1207 C1208 1.383 . S
C1207 H1215 0.929 1_565 S
C1208 C1207 1.383 . S
C1208 C1209 1.377 . S
C1209 H1193 0.930 . S
C1209 C1208 1.377 . S
C1209 C1210 1.379 . S
C1210 H1194 0.931 . S
C1210 C1204 1.383 . S
C1210 C1209 1.379 . S
H1211 C1205 0.959 . S
H1212 C1205 0.961 . S
H1213 C1205 0.960 . S
H1214 C1206 0.930 1_545 S
H1215 C1207 0.929 1_545 S
H1216 C1224 0.929 . S
H1217 C1226 0.930 . S
H1218 C1228 0.930 . S
H1219 C1231 0.929 . S
H1220 C1234 0.930 . S
H1221 C1236 0.960 . S
H1222 C1236 0.960 . S
H1223 C1236 0.960 . S
C1224 H1216 0.929 . S
C1224 C1225 1.377 . S
C1224 C1226 1.384 . S
C1225 C1224 1.377 . S
C1225 C1231 1.390 . S
C1226 H1217 0.930 . S
C1226 C1224 1.384 . S
C1226 C1227 1.372 . S
C1227 C1226 1.372 . S
C1227 C1228 1.400 . S
C1227 C1232 1.490 . S
C1228 H1218 0.930 . S
C1228 C1227 1.400 . S
C1228 C1231 1.386 . S
H1229 C1245 0.930 . S
H1230 C1246 0.931 . S
C1231 H1219 0.929 . S
C1231 C1225 1.390 . S
C1231 C1228 1.386 . S
C1232 C1227 1.490 . S
C1232 C1234 1.395 . S
C1232 C1235 1.403 . S
H1233 C1239 0.930 . S
C1234 H1220 0.930 . S
C1234 C1232 1.395 . S
C1234 C1237 1.403 1_556 S
C1235 C1232 1.403 . S
C1235 C1236 1.524 . S
C1235 C1239 1.400 1_556 S
C1236 H1221 0.960 . S
C1236 H1222 0.960 . S
C1236 H1223 0.960 . S
C1236 C1235 1.524 . S
C1237 C1234 1.403 1_554 S
C1237 C1238 1.392 . S
C1237 C1241 1.495 . S
C1238 C1237 1.392 . S
C1238 C1239 1.385 . S
C1238 C1240 1.478 . S
C1239 H1233 0.930 . S
C1239 C1235 1.400 1_554 S
C1239 C1238 1.385 . S
C1240 C1238 1.478 . S
C1240 C1242 1.381 . S
C1240 C1246 1.383 . S
C1241 C1237 1.495 . S
C1241 H1247 0.959 . S
C1241 H1248 0.961 . S
C1241 H1249 0.960 . S
C1242 C1240 1.381 . S
C1242 C1243 1.394 . S
C1242 H1250 0.930 . S
C1243 C1242 1.394 . S
C1243 C1244 1.383 . S
C1243 H1251 0.929 . S
C1244 C1243 1.383 . S
C1244 C1245 1.377 . S
C1245 H1229 0.930 . S
C1245 C1244 1.377 . S
C1245 C1246 1.379 . S
C1246 H1230 0.931 . S
C1246 C1240 1.383 . S
C1246 C1245 1.379 . S
H1247 C1241 0.959 . S
H1248 C1241 0.961 . S
H1249 C1241 0.960 . S
H1250 C1242 0.930 . S
H1251 C1243 0.929 . S
H1252 C1260 0.929 . S
H1253 C1262 0.930 . S
H1254 C1264 0.930 . S
H1255 C1267 0.929 . S
H1256 C1270 0.930 . S
H1257 C1272 0.960 . S
H1258 C1272 0.960 . S
H1259 C1272 0.960 . S
C1260 H1252 0.929 . S
C1260 C1261 1.377 . S
C1260 C1262 1.384 . S
C1261 C1260 1.377 . S
C1261 C1267 1.390 . S
C1262 H1253 0.930 . S
C1262 C1260 1.384 . S
C1262 C1263 1.372 . S
C1263 C1262 1.372 . S
C1263 C1264 1.400 . S
C1263 C1268 1.490 . S
C1264 H1254 0.930 . S
C1264 C1263 1.400 . S
C1264 C1267 1.386 . S
H1265 C1281 0.930 . S
H1266 C1282 0.931 . S
C1267 H1255 0.929 . S
C1267 C1261 1.390 . S
C1267 C1264 1.386 . S
C1268 C1263 1.490 . S
C1268 C1270 1.395 . S
C1268 C1271 1.403 . S
H1269 C1275 0.930 . S
C1270 H1256 0.930 . S
C1270 C1268 1.395 . S
C1270 C1273 1.403 . S
C1271 C1268 1.403 . S
C1271 C1272 1.524 . S
C1271 C1275 1.400 . S
C1272 H1257 0.960 . S
C1272 H1258 0.960 . S
C1272 H1259 0.960 . S
C1272 C1271 1.524 . S
C1273 C1270 1.403 . S
C1273 C1274 1.392 . S
C1273 C1277 1.495 . S
C1274 C1273 1.392 . S
C1274 C1275 1.385 . S
C1274 C1276 1.478 . S
C1275 H1269 0.930 . S
C1275 C1271 1.400 . S
C1275 C1274 1.385 . S
C1276 C1274 1.478 . S
C1276 C1278 1.381 . S
C1276 C1282 1.383 . S
C1277 C1273 1.495 . S
C1277 H1283 0.959 . S
C1277 H1284 0.961 . S
C1277 H1285 0.960 . S
C1278 C1276 1.381 . S
C1278 C1279 1.394 . S
C1278 H1286 0.930 . S
C1279 C1278 1.394 . S
C1279 C1280 1.383 . S
C1279 H1287 0.929 . S
C1280 C1279 1.383 . S
C1280 C1281 1.377 . S
C1281 H1265 0.930 . S
C1281 C1280 1.377 . S
C1281 C1282 1.379 . S
C1282 H1266 0.931 . S
C1282 C1276 1.383 . S
C1282 C1281 1.379 . S
H1283 C1277 0.959 . S
H1284 C1277 0.961 . S
H1285 C1277 0.960 . S
H1286 C1278 0.930 . S
H1287 C1279 0.929 . S
H1288 C1296 0.963 . S
H1289 C1298 0.930 . S
H1290 C1300 0.930 . S
H1291 C1303 0.929 . S
H1292 C1306 0.930 1_655 S
H1293 C1308 0.960 . S
H1294 C1308 0.960 . S
H1295 C1308 0.960 . S
C1296 H1288 0.963 . S
C1296 C1297 1.343 1_655 S
C1296 C1298 1.385 . S
C1297 C1296 1.343 1_455 S
C1297 C1303 1.390 . S
C1298 H1289 0.930 . S
C1298 C1296 1.385 . S
C1298 C1299 1.372 1_655 S
C1299 C1298 1.372 1_455 S
C1299 C1300 1.400 . S
C1299 C1304 1.490 . S
C1300 H1290 0.930 . S
C1300 C1299 1.400 . S
C1300 C1303 1.386 . S
H1301 C1317 0.930 . S
H1302 C1318 0.931 . S
C1303 H1291 0.929 . S
C1303 C1297 1.390 . S
C1303 C1300 1.386 . S
C1304 C1299 1.490 . S
C1304 C1306 1.395 . S
C1304 C1307 1.403 . S
H1305 C1311 0.930 . S
C1306 H1292 0.930 1_455 S
C1306 C1304 1.395 . S
C1306 C1309 1.403 1_554 S
C1307 C1304 1.403 . S
C1307 C1308 1.524 . S
C1307 C1311 1.400 1_554 S
C1308 H1293 0.960 . S
C1308 H1294 0.960 . S
C1308 H1295 0.960 . S
C1308 C1307 1.524 . S
C1309 C1306 1.403 1_556 S
C1309 C1310 1.392 . S
C1309 C1313 1.495 1_455 S
C1310 C1309 1.392 . S
C1310 C1311 1.385 . S
C1310 C1312 1.478 . S
C1311 H1305 0.930 . S
C1311 C1307 1.400 1_556 S
C1311 C1310 1.385 . S
C1312 C1310 1.478 . S
C1312 C1314 1.381 1_455 S
C1312 C1318 1.383 . S
C1313 C1309 1.495 1_655 S
C1313 H1319 0.959 . S
C1313 H1320 0.961 . S
C1313 H1321 0.960 . S
C1314 C1312 1.381 1_655 S
C1314 C1315 1.394 . S
C1314 H1322 0.930 . S
C1315 C1314 1.394 . S
C1315 C1316 1.383 1_655 S
C1315 H1323 0.929 . S
C1316 C1315 1.383 1_455 S
C1316 C1317 1.377 . S
C1317 H1301 0.930 . S
C1317 C1316 1.377 . S
C1317 C1318 1.379 . S
C1318 H1302 0.931 . S
C1318 C1312 1.383 . S
C1318 C1317 1.379 . S
H1319 C1313 0.959 . S
H1320 C1313 0.961 . S
H1321 C1313 0.960 . S
H1322 C1314 0.930 . S
H1323 C1315 0.929 . S
H1324 C1332 0.929 . S
H1325 C1334 0.930 . S
H1326 C1336 0.930 . S
H1327 C1339 0.929 . S
H1328 C1342 0.930 . S
H1329 C1344 0.960 . S
H1330 C1344 0.960 . S
H1331 C1344 0.960 . S
C1332 H1324 0.929 . S
C1332 C1333 1.377 . S
C1332 C1334 1.384 . S
C1333 C1332 1.377 . S
C1333 C1339 1.390 . S
C1334 H1325 0.930 . S
C1334 C1332 1.384 . S
C1334 C1335 1.372 . S
C1335 C1334 1.372 . S
C1335 C1336 1.400 . S
C1335 C1340 1.490 . S
C1336 H1326 0.930 . S
C1336 C1335 1.400 . S
C1336 C1339 1.386 . S
H1337 C1353 0.930 . S
H1338 C1354 0.931 . S
C1339 H1327 0.929 . S
C1339 C1333 1.390 . S
C1339 C1336 1.386 . S
C1340 C1335 1.490 . S
C1340 C1342 1.395 1_545 S
C1340 C1343 1.403 . S
H1341 C1347 0.930 . S
C1342 H1328 0.930 . S
C1342 C1340 1.395 1_565 S
C1342 C1345 1.403 . S
C1343 C1340 1.403 . S
C1343 C1344 1.524 . S
C1343 C1347 1.400 . S
C1344 H1329 0.960 . S
C1344 H1330 0.960 . S
C1344 H1331 0.960 . S
C1344 C1343 1.524 . S
C1345 C1342 1.403 . S
C1345 C1346 1.392 1_565 S
C1345 C1349 1.495 . S
C1346 C1345 1.392 1_545 S
C1346 C1347 1.385 . S
C1346 C1348 1.478 . S
C1347 H1341 0.930 . S
C1347 C1343 1.400 . S
C1347 C1346 1.385 . S
C1348 C1346 1.478 . S
C1348 C1350 1.381 . S
C1348 C1354 1.383 . S
C1349 C1345 1.495 . S
C1349 H1355 0.959 . S
C1349 H1356 0.961 . S
C1349 H1357 0.960 . S
C1350 C1348 1.381 . S
C1350 C1351 1.394 . S
C1350 H1358 0.930 . S
C1351 C1350 1.394 . S
C1351 C1352 1.383 . S
C1351 H1359 0.929 . S
C1352 C1351 1.383 . S
C1352 C1353 1.377 . S
C1353 H1337 0.930 . S
C1353 C1352 1.377 . S
C1353 C1354 1.379 . S
C1354 H1338 0.931 . S
C1354 C1348 1.383 . S
C1354 C1353 1.379 . S
H1355 C1349 0.959 . S
H1356 C1349 0.961 . S
H1357 C1349 0.960 . S
H1358 C1350 0.930 . S
H1359 C1351 0.929 . S
C217 C0 1.030 . S
C236 C91 1.013 . S
C253 C13 1.042 . S
C272 C52 1.052 . S
C289 C26 1.042 . S
C308 C65 1.048 . S
C325 C39 1.036 . S
C344 C78 1.052 . S
C361 C104 1.031 . S
C380 C195 1.059 . S
C397 C156 1.043 . S
C416 C117 1.032 . S
C433 C130 1.042 . S
C452 C169 1.018 . S
C469 C143 1.042 . S
C488 C182 1.017 . S
C505 C5 1.177 . S
C524 C125 1.204 . S
C541 C18 1.187 . S
C560 C138 1.195 . S
C577 C151 1.213 . S
C596 C31 1.208 . S
C613 C44 1.186 . S
C632 C112 1.209 . S
C649 C57 1.179 . S
C668 C203 1.198 . S
C685 C164 1.213 . S
C704 C70 1.203 . S
C721 C177 1.221 . S
C740 C83 1.189 . S
C757 C190 1.224 . S
C776 C96 1.152 . S
C793 C21 1.224 . S
C812 C109 1.162 . S
C829 C34 1.222 . S
C848 C122 1.195 . S
C865 C135 1.186 . S
C884 C47 1.227 . S
C901 C8 1.216 . S
C920 C148 1.216 . S
C937 C161 1.173 . S
C956 C99 1.201 . S
C973 C174 1.180 . S
C992 C60 1.189 . S
C1009 C73 1.223 . S
C1028 C187 1.189 . S
C1045 C86 1.213 . S
C1064 C200 1.196 . S
C1081 C10 1.515 . S
C1100 C62 1.527 . S
C1117 C75 1.514 . S
C1136 C23 1.526 . S
C1153 C36 1.515 . S
C1172 C88 1.512 . S
C1189 C101 1.520 . S
C1208 C49 1.504 . S
C1225 C114 1.519 . S
C1244 C166 1.506 . S
C1261 C179 1.519 . S
C1280 C127 1.521 . S
C1297 C192 1.519 . S
C1316 C140 1.525 . S
C1333 C205 1.516 . S
C1352 C153 1.527 . S
