# Generated by pormake.
# Topology bcu-g, (3)-cn, num edge types: 1
# Building blocks:
#     Node 0, Type 0, BuildingBlock: OLANEW_clean_sbu_2, # of connection points: 3
#     Node 1, Type 0, BuildingBlock: OLANEW_clean_sbu_2, # of connection points: 3
#     Node 2, Type 0, BuildingBlock: OLANEW_clean_sbu_2, # of connection points: 3
#     Node 3, Type 0, BuildingBlock: OLANEW_clean_sbu_2, # of connection points: 3
#     Node 4, Type 0, BuildingBlock: OLANEW_clean_sbu_2, # of connection points: 3
#     Node 5, Type 0, BuildingBlock: OLANEW_clean_sbu_2, # of connection points: 3
#     Node 6, Type 0, BuildingBlock: OLANEW_clean_sbu_2, # of connection points: 3
#     Node 7, Type 0, BuildingBlock: OLANEW_clean_sbu_2, # of connection points: 3
#     Node 8, Type 0, BuildingBlock: OLANEW_clean_sbu_2, # of connection points: 3
#     Node 9, Type 0, BuildingBlock: OLANEW_clean_sbu_2, # of connection points: 3
#     Node 10, Type 0, BuildingBlock: OLANEW_clean_sbu_2, # of connection points: 3
#     Node 11, Type 0, BuildingBlock: OLANEW_clean_sbu_2, # of connection points: 3
#     Node 12, Type 0, BuildingBlock: OLANEW_clean_sbu_2, # of connection points: 3
#     Node 13, Type 0, BuildingBlock: OLANEW_clean_sbu_2, # of connection points: 3
#     Node 14, Type 0, BuildingBlock: OLANEW_clean_sbu_2, # of connection points: 3
#     Node 15, Type 0, BuildingBlock: OLANEW_clean_sbu_2, # of connection points: 3
#     Edge 16, Type (0, 0), BuildingBlock: UVAHIK_clean_linker_0, # of connection points: 2
#     Edge 17, Type (0, 0), BuildingBlock: UVAHIK_clean_linker_0, # of connection points: 2
#     Edge 18, Type (0, 0), BuildingBlock: UVAHIK_clean_linker_0, # of connection points: 2
#     Edge 19, Type (0, 0), BuildingBlock: UVAHIK_clean_linker_0, # of connection points: 2
#     Edge 20, Type (0, 0), BuildingBlock: UVAHIK_clean_linker_0, # of connection points: 2
#     Edge 21, Type (0, 0), BuildingBlock: UVAHIK_clean_linker_0, # of connection points: 2
#     Edge 22, Type (0, 0), BuildingBlock: UVAHIK_clean_linker_0, # of connection points: 2
#     Edge 23, Type (0, 0), BuildingBlock: UVAHIK_clean_linker_0, # of connection points: 2
#     Edge 24, Type (0, 0), BuildingBlock: UVAHIK_clean_linker_0, # of connection points: 2
#     Edge 25, Type (0, 0), BuildingBlock: UVAHIK_clean_linker_0, # of connection points: 2
#     Edge 26, Type (0, 0), BuildingBlock: UVAHIK_clean_linker_0, # of connection points: 2
#     Edge 27, Type (0, 0), BuildingBlock: UVAHIK_clean_linker_0, # of connection points: 2
#     Edge 28, Type (0, 0), BuildingBlock: UVAHIK_clean_linker_0, # of connection points: 2
#     Edge 29, Type (0, 0), BuildingBlock: UVAHIK_clean_linker_0, # of connection points: 2
#     Edge 30, Type (0, 0), BuildingBlock: UVAHIK_clean_linker_0, # of connection points: 2
#     Edge 31, Type (0, 0), BuildingBlock: UVAHIK_clean_linker_0, # of connection points: 2
#     Edge 32, Type (0, 0), BuildingBlock: UVAHIK_clean_linker_0, # of connection points: 2
#     Edge 33, Type (0, 0), BuildingBlock: UVAHIK_clean_linker_0, # of connection points: 2
#     Edge 34, Type (0, 0), BuildingBlock: UVAHIK_clean_linker_0, # of connection points: 2
#     Edge 35, Type (0, 0), BuildingBlock: UVAHIK_clean_linker_0, # of connection points: 2
#     Edge 36, Type (0, 0), BuildingBlock: UVAHIK_clean_linker_0, # of connection points: 2
#     Edge 37, Type (0, 0), BuildingBlock: UVAHIK_clean_linker_0, # of connection points: 2
#     Edge 38, Type (0, 0), BuildingBlock: UVAHIK_clean_linker_0, # of connection points: 2
#     Edge 39, Type (0, 0), BuildingBlock: UVAHIK_clean_linker_0, # of connection points: 2
# Relax obj value: 0.067
# Max RMSD: 0.020
# Mean RMSD: 0.020
data_MOF--net-bcu-g--node1-OLANEW_clean_sbu_2--edge1-UVAHIK_clean_linker_0
_symmetry_space_group_name_H-M    P1
_symmetry_Int_Tables_number       1
_symmetry_cell_setting            triclinic
loop_
_symmetry_equiv_pos_as_xyz
'x, y, z'
_cell_length_a     60.796759
_cell_length_b     60.64263
_cell_length_c     52.428023
_cell_angle_alpha  90.169898
_cell_angle_beta   90.168041
_cell_angle_gamma 90.07001
loop_
_atom_site_label
_atom_site_type_symbol
_atom_site_fract_x
_atom_site_fract_y
_atom_site_fract_z
_atom_type_partial_charge
O0 O 0.56342 0.10482 0.21023 0.0
Cd1 Cd 0.58549 0.13402 0.19093 0.0
O2 O 0.56128 0.08975 0.17229 0.0
Cd3 Cd 0.54824 0.06594 0.14469 0.0
O4 O 0.53476 0.03934 0.12133 0.0
C5 C 0.51525 0.03244 0.12486 0.0
O6 O 0.50321 0.04163 0.14274 0.0
C7 C 0.55647 0.08938 0.19589 0.0
C8 C 0.62957 0.13255 0.2056 0.0
O9 O 0.61559 0.14406 0.21813 0.0
O10 O 0.62265 0.12161 0.18621 0.0
O11 O 0.39545 0.55561 0.20678 0.0
Cd12 Cd 0.3671 0.57948 0.18858 0.0
O13 O 0.40623 0.54876 0.16771 0.0
Cd14 Cd 0.42881 0.53454 0.13974 0.0
O15 O 0.45244 0.52097 0.11268 0.0
C16 C 0.45333 0.50035 0.10838 0.0
O17 O 0.43982 0.48715 0.12056 0.0
C18 C 0.40823 0.54556 0.19156 0.0
C19 C 0.37001 0.62324 0.20479 0.0
O20 O 0.35832 0.6092 0.21698 0.0
O21 O 0.38051 0.61652 0.18509 0.0
O22 O 0.94263 0.38953 0.20046 0.0
Cd23 Cd 0.91597 0.367 0.17698 0.0
O24 O 0.94241 0.40946 0.16577 0.0
Cd25 Cd 0.9515 0.43742 0.1417 0.0
O26 O 0.96654 0.4616 0.11643 0.0
C27 C 0.98484 0.45673 0.10623 0.0
O28 O 0.99388 0.4376 0.11148 0.0
C29 C 0.94998 0.40591 0.18805 0.0
C30 C 0.87366 0.36727 0.19725 0.0
O31 O 0.88707 0.35157 0.20231 0.0
O32 O 0.88036 0.38299 0.18294 0.0
O33 O 0.09825 0.93415 0.2118 0.0
Cd34 Cd 0.1251 0.90907 0.19274 0.0
O35 O 0.08127 0.93405 0.17491 0.0
Cd36 Cd 0.05499 0.94268 0.14801 0.0
O37 O 0.03052 0.95458 0.12073 0.0
C38 C 0.0288 0.97513 0.11646 0.0
O39 O 0.04174 0.98889 0.12881 0.0
C40 C 0.08274 0.94117 0.19772 0.0
C41 C 0.12224 0.86557 0.20956 0.0
O42 O 0.1346 0.87961 0.22101 0.0
O43 O 0.11093 0.87221 0.19039 0.0
O44 O 0.58049 0.38302 0.27908 0.0
Cd45 Cd 0.60603 0.35843 0.30108 0.0
O46 O 0.57414 0.39614 0.31722 0.0
Cd47 Cd 0.55746 0.41597 0.3462 0.0
O48 O 0.54241 0.43579 0.37621 0.0
C49 C 0.53133 0.42646 0.39364 0.0
O50 O 0.52898 0.40492 0.39308 0.0
C51 C 0.57044 0.39664 0.29333 0.0
C52 C 0.64879 0.36085 0.28234 0.0
O53 O 0.63565 0.34557 0.27492 0.0
O54 O 0.64166 0.37506 0.29845 0.0
O55 O 0.12347 0.56675 0.27501 0.0
Cd56 Cd 0.15032 0.59323 0.29153 0.0
O57 O 0.10735 0.5678 0.31224 0.0
Cd58 Cd 0.08229 0.5605 0.34089 0.0
O59 O 0.06013 0.54841 0.37038 0.0
C60 C 0.06147 0.55593 0.39298 0.0
O61 O 0.07602 0.57136 0.39813 0.0
C62 C 0.10828 0.56004 0.28967 0.0
C63 C 0.14129 0.63654 0.27712 0.0
O64 O 0.15358 0.62412 0.26342 0.0
O65 O 0.13313 0.62841 0.29756 0.0
O66 O 0.92692 0.12166 0.27415 0.0
Cd67 Cd 0.9025 0.15087 0.28915 0.0
O68 O 0.92227 0.10537 0.31093 0.0
Cd69 Cd 0.92586 0.07961 0.33979 0.0
O70 O 0.93571 0.05763 0.37066 0.0
C71 C 0.95421 0.06119 0.38125 0.0
O72 O 0.96636 0.07763 0.37308 0.0
C73 C 0.93129 0.10575 0.28904 0.0
C74 C 0.85891 0.14437 0.27427 0.0
O75 O 0.87217 0.15559 0.26044 0.0
O76 O 0.86632 0.13612 0.29506 0.0
O77 O 0.38763 0.92052 0.27289 0.0
Cd78 Cd 0.35934 0.89674 0.29121 0.0
O79 O 0.40185 0.92362 0.31118 0.0
Cd80 Cd 0.42444 0.93797 0.33924 0.0
O81 O 0.45022 0.95257 0.36288 0.0
C82 C 0.45617 0.97246 0.35962 0.0
O83 O 0.44648 0.98426 0.34188 0.0
C84 C 0.40236 0.92838 0.28756 0.0
C85 C 0.36371 0.85275 0.27647 0.0
O86 O 0.35186 0.86615 0.26351 0.0
O87 O 0.3736 0.8602 0.29633 0.0
O88 O 0.41731 0.94352 0.84241 0.0
Cd89 Cd 0.3913 0.92728 0.87252 0.0
O90 O 0.4363 0.9133 0.83538 0.0
Cd91 Cd 0.42084 0.89811 0.86843 0.0
O92 O 0.42319 0.90127 0.9098 0.0
C93 C 0.44271 0.90065 0.91849 0.0
O94 O 0.45886 0.89641 0.90261 0.0
C95 C 0.43244 0.93344 0.83042 0.0
C96 C 0.35274 0.91498 0.84723 0.0
O97 O 0.35566 0.93479 0.85515 0.0
O98 O 0.36797 0.90086 0.85151 0.0
O99 O 0.54392 0.431 0.77836 0.0
Cd100 Cd 0.55649 0.4009 0.80572 0.0
O101 O 0.56301 0.45635 0.79879 0.0
Cd102 Cd 0.57245 0.43461 0.83003 0.0
O103 O 0.56788 0.43 0.87095 0.0
C104 C 0.5726 0.44656 0.88485 0.0
O105 O 0.58132 0.46402 0.87404 0.0
C106 C 0.55016 0.45093 0.78063 0.0
C107 C 0.56076 0.36145 0.77861 0.0
O108 O 0.54227 0.36725 0.7882 0.0
O109 O 0.57729 0.37431 0.78186 0.0
O110 O 0.05098 0.55426 0.78469 0.0
Cd111 Cd 0.0782 0.56561 0.81662 0.0
O112 O 0.02472 0.5751 0.80047 0.0
Cd113 Cd 0.04393 0.58539 0.83364 0.0
O114 O 0.04761 0.58242 0.87489 0.0
C115 C 0.0577 0.56582 0.8839 0.0
O116 O 0.0673 0.55207 0.86806 0.0
C117 C 0.03133 0.56139 0.78378 0.0
C118 C 0.11838 0.57809 0.79556 0.0
O119 O 0.11391 0.55777 0.79976 0.0
O120 O 0.10377 0.59254 0.80113 0.0
O121 O 0.94095 0.05875 0.78819 0.0
Cd122 Cd 0.9285 0.08458 0.82104 0.0
O123 O 0.92222 0.03062 0.80323 0.0
Cd124 Cd 0.91193 0.04805 0.83762 0.0
O125 O 0.91563 0.04966 0.879 0.0
C126 C 0.91203 0.03181 0.89092 0.0
O127 O 0.90489 0.01461 0.87802 0.0
C128 C 0.93504 0.03867 0.78654 0.0
C129 C 0.91638 0.12522 0.80056 0.0
O130 O 0.93651 0.12092 0.80587 0.0
O131 O 0.90193 0.11029 0.80493 0.0
O132 O 0.4005 0.62787 0.69071 0.0
Cd133 Cd 0.37101 0.65213 0.67608 0.0
O134 O 0.39801 0.61181 0.65336 0.0
Cd135 Cd 0.40885 0.58895 0.62367 0.0
O136 O 0.42148 0.56733 0.59384 0.0
C137 C 0.43943 0.557 0.59713 0.0
O138 O 0.45011 0.55938 0.6188 0.0
C139 C 0.40688 0.613 0.67532 0.0
C140 C 0.33028 0.64004 0.69602 0.0
O141 O 0.33795 0.63062 0.67602 0.0
O142 O 0.34187 0.65518 0.70664 0.0
O143 O 0.8667 0.40428 0.6815 0.0
Cd144 Cd 0.84474 0.37329 0.66578 0.0
O145 O 0.88201 0.40509 0.64373 0.0
Cd146 Cd 0.9033 0.41979 0.61486 0.0
O147 O 0.92271 0.43627 0.58563 0.0
C148 C 0.93399 0.45332 0.59106 0.0
O149 O 0.93395 0.46081 0.6146 0.0
C150 C 0.88058 0.41271 0.66629 0.0
C151 C 0.85631 0.33373 0.68927 0.0
O152 O 0.86703 0.34096 0.67001 0.0
O153 O 0.84011 0.34521 0.69747 0.0
O154 O 0.09111 0.87423 0.68688 0.0
Cd155 Cd 0.12126 0.85048 0.67302 0.0
O156 O 0.0822 0.87965 0.64688 0.0
Cd157 Cd 0.06521 0.89638 0.61562 0.0
O158 O 0.04907 0.91414 0.58467 0.0
C159 C 0.03779 0.93128 0.58945 0.0
O160 O 0.03591 0.93797 0.61321 0.0
C161 C 0.0789 0.88354 0.67042 0.0
C162 C 0.15923 0.85929 0.7013 0.0
O163 O 0.15416 0.8709 0.68178 0.0
O164 O 0.14645 0.84334 0.70738 0.0
O165 O 0.55965 0.08435 0.66006 0.0
Cd166 Cd 0.57412 0.10982 0.62819 0.0
O167 O 0.58057 0.05625 0.64944 0.0
Cd168 Cd 0.59146 0.07195 0.6143 0.0
O169 O 0.58649 0.06934 0.57316 0.0
C170 C 0.58788 0.04986 0.5643 0.0
O171 O 0.5937 0.03389 0.57981 0.0
C172 C 0.56617 0.06473 0.66399 0.0
C173 C 0.57411 0.15257 0.64811 0.0
O174 O 0.55711 0.14465 0.63681 0.0
O175 O 0.59128 0.1404 0.64963 0.0
C176 C 0.54275 0.05041 0.19645 0.0
C177 C 0.54213 0.07194 0.20636 0.0
C178 C 0.52824 0.03432 0.20536 0.0
C179 C 0.49381 0.01912 0.25985 0.0
H180 H 0.46131 0.98432 0.21021 0.0
C181 C 0.41392 0.95788 0.25723 0.0
C182 C 0.41916 0.94362 0.27741 0.0
C183 C 0.42946 0.97297 0.24825 0.0
C184 C 0.47023 0.99395 0.22426 0.0
H185 H 0.52681 0.0932 0.23443 0.0
H186 H 0.50167 0.06493 0.25039 0.0
H187 H 0.48772 0.01196 0.19565 0.0
H188 H 0.44539 0.93258 0.30236 0.0
H189 H 0.47221 0.95955 0.28747 0.0
H190 H 0.47628 0.00114 0.28846 0.0
C191 C 0.51316 0.06061 0.23543 0.0
C192 C 0.48546 0.00962 0.21595 0.0
C193 C 0.52751 0.07678 0.2263 0.0
C194 C 0.44048 0.94416 0.28777 0.0
C195 C 0.45593 0.95941 0.27902 0.0
C196 C 0.47876 0.00327 0.26816 0.0
C197 C 0.51316 0.03932 0.22477 0.0
C198 C 0.49733 0.02242 0.23366 0.0
C199 C 0.45052 0.97408 0.25931 0.0
C200 C 0.46676 0.9906 0.25045 0.0
H201 H 0.55463 0.04586 0.18207 0.0
H202 H 0.52896 0.01789 0.19723 0.0
H203 H 0.50284 0.02866 0.2739 0.0
H204 H 0.39765 0.9577 0.24874 0.0
H205 H 0.42483 0.98413 0.23306 0.0
C206 C 0.43609 0.53532 0.2246 0.0
C207 C 0.42524 0.53052 0.20157 0.0
C208 C 0.45218 0.52105 0.23409 0.0
C209 C 0.47063 0.46338 0.23122 0.0
H210 H 0.52568 0.4868 0.25726 0.0
C211 C 0.54262 0.4066 0.26009 0.0
C212 C 0.55439 0.41225 0.28225 0.0
C213 C 0.52719 0.42116 0.24975 0.0
C214 C 0.5103 0.47999 0.25036 0.0
H215 H 0.42175 0.50648 0.17117 0.0
H216 H 0.4501 0.48175 0.18744 0.0
H217 H 0.49788 0.51192 0.24058 0.0
H218 H 0.5604 0.43828 0.30982 0.0
H219 H 0.53282 0.46322 0.29265 0.0
H220 H 0.48282 0.4315 0.24128 0.0
C221 C 0.44636 0.49663 0.19805 0.0
C222 C 0.49439 0.4944 0.24076 0.0
C223 C 0.43039 0.51097 0.1885 0.0
C224 C 0.5509 0.43301 0.29343 0.0
C225 C 0.53541 0.44754 0.2832 0.0
C226 C 0.48647 0.44898 0.24095 0.0
C227 C 0.45748 0.50154 0.22091 0.0
C228 C 0.47439 0.48625 0.23109 0.0
C229 C 0.52326 0.44175 0.2613 0.0
C230 C 0.50651 0.45709 0.25066 0.0
H231 H 0.43226 0.55021 0.23515 0.0
H232 H 0.46026 0.52512 0.25194 0.0
H233 H 0.45525 0.45664 0.22421 0.0
H234 H 0.54517 0.3908 0.25087 0.0
H235 H 0.51846 0.41633 0.23259 0.0
C236 C 0.96742 0.42427 0.22592 0.0
C237 C 0.96676 0.42064 0.19944 0.0
C238 C 0.98285 0.43882 0.23653 0.0
C239 C 0.01562 0.4872 0.22077 0.0
H240 H 0.05261 0.4707 0.27793 0.0
C241 C 0.08724 0.54257 0.25393 0.0
C242 C 0.09194 0.54384 0.28014 0.0
C243 C 0.07196 0.52729 0.24461 0.0
C244 C 0.04217 0.47577 0.26226 0.0
H245 H 0.98322 0.42763 0.16375 0.0
H246 H 0.00928 0.45389 0.18201 0.0
H247 H 0.02564 0.44449 0.26124 0.0
H248 H 0.08547 0.52878 0.3168 0.0
H249 H 0.05772 0.50332 0.30099 0.0
H250 H 0.03149 0.51861 0.22201 0.0
C251 C -0.00246 0.44589 0.19446 0.0
C252 C 0.0268 0.46067 0.25265 0.0
C253 C 0.98238 0.43112 0.18395 0.0
C254 C 0.0814 0.52912 0.29674 0.0
C255 C 0.06587 0.51404 0.2875 0.0
C256 C 0.03071 0.50241 0.23059 0.0
C257 C -0.00221 0.45004 0.22081 0.0
C258 C 0.01355 0.46619 0.23167 0.0
C259 C 0.06089 0.51294 0.26129 0.0
C260 C 0.04437 0.49685 0.25132 0.0
H261 H 0.95573 0.41619 0.23836 0.0
H262 H 0.98276 0.4417 0.25693 0.0
H263 H 0.00537 0.49195 0.20476 0.0
H264 H 0.09534 0.55346 0.24057 0.0
H265 H 0.06905 0.52661 0.22425 0.0
C266 C 0.9593 0.07635 0.29818 0.0
C267 C 0.94643 0.08809 0.28059 0.0
C268 C 0.97355 0.05973 0.28995 0.0
C269 C 0.98588 0.02414 0.23359 0.0
H270 H 0.04158 0.01568 0.26844 0.0
C271 C 0.05736 0.97322 0.19172 0.0
C272 C 0.06684 0.9574 0.20785 0.0
C273 C 0.04224 0.98846 0.2012 0.0
C274 C 0.02599 0.01776 0.25869 0.0
H275 H 0.9392 0.09236 0.24041 0.0
H276 H 0.96466 0.0641 0.22589 0.0
H277 H 0.01621 0.04392 0.28355 0.0
H278 H 0.06888 0.94589 0.24689 0.0
H279 H 0.04275 0.97301 0.26367 0.0
H280 H -0.0038 -0.00156 0.20818 0.0
C281 C 0.96312 0.06697 0.24619 0.0
C282 C 0.01137 0.03387 0.26738 0.0
C283 C 0.94866 0.08337 0.25449 0.0
C284 C 0.0616 0.95773 0.23394 0.0
C285 C 0.0467 0.97322 0.24354 0.0
C286 C 0.00065 0.00827 0.2247 0.0
C287 C 0.97567 0.0548 0.26382 0.0
C288 C 0.99112 0.03733 0.25491 0.0
C289 C 0.03673 0.98858 0.22718 0.0
C290 C 0.02085 0.00497 0.23712 0.0
H291 H 0.9589 0.08033 0.31826 0.0
H292 H 0.98286 0.05074 0.30414 0.0
H293 H 0.97028 0.02594 0.2238 0.0
H294 H 0.06212 0.9743 0.17194 0.0
H295 H 0.03522 0.0005 0.18831 0.0
C296 C 0.56139 0.02893 0.68725 0.0
C297 C 0.55567 0.05122 0.68407 0.0
C298 C 0.54982 0.0156 0.70431 0.0
C299 C 0.51125 0.01754 0.75898 0.0
H300 H 0.49372 0.95953 0.73497 0.0
C301 C 0.44271 0.96823 0.80784 0.0
C302 C 0.44641 0.94567 0.81215 0.0
C303 C 0.45691 0.98037 0.79242 0.0
C304 C 0.49869 0.97558 0.74206 0.0
H305 H 0.53376 0.07715 0.69704 0.0
H306 H 0.51353 0.05391 0.72654 0.0
H307 H 0.51786 0.98227 0.70879 0.0
H308 H 0.46764 0.91803 0.803 0.0
H309 H 0.49246 0.93932 0.77596 0.0
H310 H 0.49181 0.01099 0.79205 0.0
C311 C 0.52708 0.04674 0.71605 0.0
C312 C 0.51258 0.98859 0.72711 0.0
C313 C 0.53864 0.06006 0.69901 0.0
C314 C 0.4643 0.93538 0.80005 0.0
C315 C 0.4785 0.94755 0.78452 0.0
C316 C 0.49734 0.00456 0.77387 0.0
C317 C 0.53229 0.02427 0.7186 0.0
C318 C 0.51881 0.00983 0.73528 0.0
C319 C 0.47514 0.97026 0.78088 0.0
C320 C 0.49069 0.98355 0.76545 0.0
H321 H 0.57447 0.0216 0.67611 0.0
H322 H 0.55446 -0.00156 0.70613 0.0
H323 H 0.51605 0.03365 0.76604 0.0
H324 H 0.42904 0.97669 0.81674 0.0
H325 H 0.45363 -0.00225 0.78958 0.0
C326 C 0.42375 0.5754 0.675 0.0
C327 C 0.42444 0.59753 0.68289 0.0
C328 C 0.44001 0.5606 0.68282 0.0
C329 C 0.48129 0.5525 0.73364 0.0
H330 H 0.50217 0.50587 0.68911 0.0
C331 C 0.546 0.49056 0.76815 0.0
C332 C 0.54065 0.46826 0.76405 0.0
C333 C 0.53459 0.5072 0.75537 0.0
C334 C 0.49645 0.51878 0.70176 0.0
H335 H 0.44256 0.62158 0.70521 0.0
H336 H 0.47121 0.59585 0.71863 0.0
H337 H 0.47681 0.53361 0.67251 0.0
H338 H 0.52002 0.44595 0.74207 0.0
H339 H 0.50008 0.47502 0.71983 0.0
H340 H 0.50067 0.53759 0.76295 0.0
C341 C 0.45801 0.58983 0.70656 0.0
C342 C 0.48188 0.53464 0.6923 0.0
C343 C 0.44166 0.60459 0.69883 0.0
C344 C 0.52453 0.46295 0.74574 0.0
C345 C 0.51314 0.47962 0.7329 0.0
C346 C 0.49591 0.53675 0.74304 0.0
C347 C 0.4573 0.5676 0.69879 0.0
C348 C 0.47391 0.55154 0.70822 0.0
C349 C 0.51762 0.50193 0.73814 0.0
C350 C 0.50348 0.51956 0.72731 0.0
H351 H 0.41023 0.5693 0.66349 0.0
H352 H 0.43863 0.54351 0.67696 0.0
H353 H 0.47522 0.56502 0.74659 0.0
H354 H 0.55844 0.49526 0.78197 0.0
H355 H 0.53868 0.52424 0.75947 0.0
C356 C 0.02211 0.53567 0.74769 0.0
C357 C 0.0154 0.55175 0.7654 0.0
C358 C 0.00653 0.52395 0.73336 0.0
C359 C 0.95005 0.50474 0.73919 0.0
H360 H 0.95635 0.48685 0.66855 0.0
C361 C 0.88657 0.44734 0.69127 0.0
C362 C 0.89477 0.43107 0.6748 0.0
C363 C 0.90021 0.46438 0.69994 0.0
C364 C 0.95445 0.49154 0.68837 0.0
H365 H 0.98712 0.56915 0.78065 0.0
H366 H 0.96005 0.54866 0.7557 0.0
H367 H 0.98242 0.51312 0.68713 0.0
H368 H 0.92381 0.41928 0.65523 0.0
H369 H 0.94776 0.44866 0.67068 0.0
H370 H 0.92276 0.48264 0.74096 0.0
C371 C 0.97733 0.54496 0.75313 0.0
C372 C 0.96933 0.50666 0.69894 0.0
C373 C 0.99288 0.55677 0.76732 0.0
C374 C 0.91689 0.43201 0.6673 0.0
C375 C 0.93061 0.44887 0.67619 0.0
C376 C 0.93534 0.4895 0.72874 0.0
C377 C 0.98395 0.528 0.73657 0.0
C378 C 0.96736 0.51329 0.72452 0.0
C379 C 0.92248 0.46526 0.69271 0.0
C380 C 0.93743 0.48253 0.70325 0.0
H381 H 0.03932 0.53143 0.74567 0.0
H382 H 0.01212 0.51091 0.7208 0.0
H383 H 0.94835 0.50923 0.7591 0.0
H384 H 0.86955 0.44696 0.69733 0.0
H385 H 0.89327 0.47685 0.71235 0.0
C386 C 0.94127 0.00114 0.76781 0.0
C387 C 0.94507 0.02401 0.76713 0.0
C388 C 0.95348 0.98683 0.75247 0.0
C389 C 0.00765 0.98442 0.72197 0.0
H390 H 0.98619 0.92841 0.69606 0.0
C391 C 0.06602 0.9125 0.70069 0.0
C392 C 0.06222 0.89973 0.67874 0.0
C393 C 0.05073 0.92829 0.70846 0.0
C394 C 0.99241 0.94409 0.7029 0.0
H395 H 0.96354 0.04989 0.7483 0.0
H396 H 0.98456 0.02494 0.7212 0.0
H397 H 0.96018 0.95542 0.71283 0.0
H398 H 0.03874 0.89245 0.64868 0.0
H399 H 0.01223 0.92049 0.66184 0.0
H400 H 0.03984 0.97317 0.71208 0.0
C401 C 0.97249 0.01803 0.73408 0.0
C402 C 0.97753 0.95949 0.71273 0.0
C403 C 0.96033 0.03235 0.7495 0.0
C404 C 0.0425 0.90262 0.66512 0.0
C405 C 0.02715 0.91842 0.67292 0.0
C406 C 0.02249 0.96907 0.71214 0.0
C407 C 0.96972 0.99506 0.73599 0.0
C408 C 0.98502 0.97969 0.7228 0.0
C409 C 0.0312 0.93159 0.69455 0.0
C410 C 0.01512 0.94855 0.70297 0.0
H411 H 0.92961 0.99414 0.78112 0.0
H412 H 0.951 0.96925 0.75461 0.0
H413 H 0.01407 -0.00033 0.72981 0.0
H414 H 0.08098 0.9105 0.7117 0.0
H415 H 0.05415 0.93779 0.72555 0.0
C416 C 0.43088 0.91506 0.96128 0.0
C417 C 0.44766 0.90772 0.94495 0.0
C418 C 0.43606 0.92451 0.98494 0.0
C419 C 0.48209 0.93323 0.03126 0.0
H420 H 0.45172 0.98805 0.04566 0.0
C421 C 0.51969 0.00322 0.09147 0.0
C422 C 0.50604 0.0148 0.10843 0.0
C423 C 0.51092 0.98722 0.07514 0.0
C424 C 0.46012 0.97259 0.04218 0.0
H425 H 0.48294 0.90346 0.94126 0.0
H426 H 0.49194 0.9202 0.98204 0.0
H427 H 0.43901 0.96462 0.01081 0.0
H428 H 0.47252 0.01832 0.12195 0.0
H429 H 0.45716 0.99049 0.09311 0.0
H430 H 0.50381 0.94182 0.06199 0.0
C431 C 0.47477 0.91847 0.97687 0.0
C432 C 0.4528 0.95909 0.02223 0.0
C433 C 0.4696 0.90899 0.95332 0.0
C434 C 0.48347 0.00973 0.10905 0.0
C435 C 0.47465 0.99386 0.09251 0.0
C436 C 0.4895 0.94682 0.05108 0.0
C437 C 0.45811 0.92683 -0.00727 0.0
C438 C 0.46401 0.9395 0.01614 0.0
C439 C 0.48827 0.98256 0.07526 0.0
C440 C 0.47888 0.96687 0.05637 0.0
H441 H 0.41379 0.9142 0.95546 0.0
H442 H 0.4228 0.93045 -0.00312 0.0
H443 H 0.49085 0.91804 0.02743 0.0
H444 H 0.53716 0.00667 0.09057 0.0
H445 H 0.52179 0.97898 0.06185 0.0
C446 C 0.55378 0.43005 0.92288 0.0
C447 C 0.56557 0.44753 0.91186 0.0
C448 C 0.5447 0.43228 0.94725 0.0
C449 C 0.54498 0.46782 0.00546 0.0
H450 H 0.48411 0.44925 0.0107 0.0
C451 C 0.48422 0.50542 0.07744 0.0
C452 C 0.46881 0.49148 0.08917 0.0
C453 C 0.49817 0.49735 0.05847 0.0
C454 C 0.50121 0.45421 0.00975 0.0
H455 H 0.57806 0.48062 0.91834 0.0
H456 H 0.56202 0.48463 0.96044 0.0
H457 H 0.50525 0.4395 0.97296 0.0
H458 H 0.45633 0.45797 0.09061 0.0
H459 H 0.48068 0.44391 0.05735 0.0
H460 H 0.5406 0.48324 0.0419 0.0
C461 C 0.55993 0.46908 0.9505 0.0
C462 C 0.51337 0.44857 0.98812 0.0
C463 C 0.56903 0.46683 0.92622 0.0
C464 C 0.46797 0.46917 0.08188 0.0
C465 C 0.48185 0.46112 0.06278 0.0
C466 C 0.53278 0.47354 0.02704 0.0
C467 C 0.54722 0.45205 0.96109 0.0
C468 C 0.53527 0.45569 0.98547 0.0
C469 C 0.49697 0.47517 0.05072 0.0
C470 C 0.51064 0.46716 0.02918 0.0
H471 H 0.55094 0.41489 0.91239 0.0
H472 H 0.5353 0.4187 0.95502 0.0
H473 H 0.56193 0.47324 0.00424 0.0
H474 H 0.48533 0.52269 0.08264 0.0
H475 H 0.50945 0.50866 0.04933 0.0
C476 C 0.9864 0.49281 0.08304 0.0
C477 C -0.00471 0.47182 0.08772 0.0
C478 C -0.0044 0.50651 0.06449 0.0
C479 C 0.04504 0.51401 0.02353 0.0
H480 H 0.00366 0.54303 0.97839 0.0
C481 C 0.06538 0.54088 0.92082 0.0
C482 C 0.0555 0.56009 0.9112 0.0
C483 C 0.06058 0.53354 0.94542 0.0
C484 C 0.01549 0.5354 0.99108 0.0
H485 H 0.02115 0.44899 0.07706 0.0
H486 H 0.03683 0.4726 0.04439 0.0
H487 H 0.99016 0.52362 0.01569 0.0
H488 H 0.03398 0.58747 0.92052 0.0
H489 H 0.02566 0.57464 0.96348 0.0
H490 H 0.07029 0.52517 -0.00182 0.0
C491 C 0.02301 0.4787 0.05532 0.0
C492 C 0.00774 0.52426 0.01251 0.0
C493 C 0.0139 0.46507 0.07394 0.0
C494 C 0.04175 0.57251 0.92727 0.0
C495 C 0.03688 0.56511 0.95184 0.0
C496 C 0.05279 0.52508 0.00198 0.0
C497 C 0.01381 0.49948 0.05012 0.0
C498 C 0.02237 0.5131 0.02878 0.0
C499 C 0.04575 0.54522 0.9609 0.0
C500 C 0.03805 0.5356 0.9853 0.0
H501 H 0.97218 0.49859 0.09349 0.0
H502 H 0.9883 0.52255 0.06127 0.0
H503 H 0.0568 0.50592 0.03591 0.0
H504 H 0.07612 0.53097 0.90899 0.0
H505 H 0.06758 0.51808 0.95178 0.0
C506 C 0.92859 0.04694 0.93127 0.0
C507 C 0.91856 0.02942 0.91801 0.0
C508 C 0.93723 0.0437 0.95573 0.0
C509 C 0.93827 0.00451 0.01035 0.0
H510 H -0.00282 0.02757 0.02043 0.0
C511 C -0.00071 0.96874 0.08376 0.0
C512 C 0.0132 0.98338 0.09698 0.0
C513 C 0.98538 0.9764 0.06445 0.0
C514 C 0.9806 0.02131 0.01815 0.0
H515 H 0.90871 0.99509 0.92057 0.0
H516 H 0.924 0.9894 0.9629 0.0
H517 H 0.97652 0.03774 0.98244 0.0
H518 H 0.02293 0.01768 0.10078 0.0
H519 H -0.00135 0.03101 0.06709 0.0
H520 H 0.94271 0.98752 0.04576 0.0
C521 C 0.92504 0.0057 0.95461 0.0
C522 C 0.96871 0.02718 -0.00363 0.0
C523 C 0.91639 0.00893 0.93021 0.0
C524 C 0.01251 0.00593 0.09088 0.0
C525 C -0.00134 0.01358 0.07151 0.0
C526 C 0.9502 -0.00142 0.03211 0.0
C527 C 0.93602 0.02289 0.96744 0.0
C528 C 0.94755 0.01856 -0.00802 0.0
C529 C 0.98512 -0.00114 0.05789 0.0
C530 C 0.97163 0.00663 0.03603 0.0
H531 H 0.9304 0.06297 0.92247 0.0
H532 H 0.94527 0.0574 0.96527 0.0
H533 H 0.92187 -0.00214 0.00776 0.0
H534 H -0.00062 0.95127 0.088 0.0
H535 H 0.97534 0.96459 0.05412 0.0
C536 C 0.43718 0.54067 0.55325 0.0
C537 C 0.44842 0.54288 0.57658 0.0
C538 C 0.44587 0.52774 0.53363 0.0
C539 C 0.48536 0.48287 0.52078 0.0
H540 H 0.48242 0.50476 0.45142 0.0
C541 C 0.50928 0.42937 0.43383 0.0
C542 C 0.52147 0.43966 0.41447 0.0
C543 C 0.50018 0.4418 0.45365 0.0
C544 C 0.48351 0.49847 0.4707 0.0
H545 H 0.47755 0.53308 0.59768 0.0
H546 H 0.49281 0.51067 0.56333 0.0
H547 H 0.46726 0.52678 0.4861 0.0
H548 H 0.53367 0.4711 0.40077 0.0
H549 H 0.51797 0.49272 0.43545 0.0
H550 H 0.50201 0.45475 0.50541 0.0
C551 C 0.47715 0.51876 0.56031 0.0
C552 C 0.47459 0.51098 0.49054 0.0
C553 C 0.46846 0.5317 0.57995 0.0
C554 C 0.52431 0.46265 0.41533 0.0
C555 C 0.51521 0.47508 0.43514 0.0
C556 C 0.49426 0.47034 0.50092 0.0
C557 C 0.466 0.51672 0.53689 0.0
C558 C 0.47542 0.50333 0.51581 0.0
C559 C 0.50306 0.46479 0.45455 0.0
C560 C 0.49346 0.47801 0.47565 0.0
H561 H 0.42166 0.54898 0.55005 0.0
H562 H 0.43671 0.52626 0.51595 0.0
H563 H 0.48609 0.47641 0.54 0.0
H564 H 0.50673 0.41169 0.4337 0.0
H565 H 0.49067 0.43341 0.46812 0.0
C566 C 0.94585 0.45737 0.5456 0.0
C567 C 0.94678 0.4647 0.57104 0.0
C568 C 0.95777 0.46818 0.52664 0.0
C569 C 0.00553 0.50452 0.5169 0.0
H570 H 0.9785 0.51504 0.45096 0.0
C571 C 0.04883 0.55508 0.43844 0.0
C572 C 0.04738 0.54684 0.41341 0.0
C573 C 0.03602 0.54601 0.45788 0.0
C574 C 0.98636 0.51204 0.46919 0.0
H575 H 0.96101 0.48915 0.59652 0.0
H576 H 0.98179 0.50805 0.56334 0.0
H577 H 0.95729 0.4973 0.48457 0.0
H578 H 0.03119 0.52271 0.38912 0.0
H579 H 0.00908 0.50675 0.42305 0.0
H580 H 0.03468 0.51903 0.50146 0.0
C581 C 0.97195 0.49383 0.55813 0.0
C582 C 0.9742 0.50188 0.48844 0.0
C583 C 0.95996 0.48306 0.57711 0.0
C584 C 0.03267 0.5295 0.40818 0.0
C585 C 0.01989 0.52042 0.42762 0.0
C586 C 0.01771 0.51463 0.49762 0.0
C587 C 0.97095 0.48654 0.53268 0.0
C588 C 0.98369 0.49789 0.51247 0.0
C589 C 0.02148 0.5285 0.45272 0.0
C590 C 0.00831 0.5184 0.47349 0.0
H591 H 0.93589 0.44326 0.54027 0.0
H592 H 0.95688 0.46197 0.50727 0.0
H593 H 0.0134 0.50142 0.5351 0.0
H594 H 0.05994 0.56849 0.4431 0.0
H595 H 0.03743 0.55282 0.47694 0.0
C596 C 0.01554 0.96324 0.57363 0.0
C597 C 0.02745 0.94389 0.56847 0.0
C598 C 0.00637 0.97551 0.55375 0.0
C599 C 0.98966 0.97209 0.48593 0.0
H600 H -0.00408 0.03571 0.4882 0.0
C601 C 0.94899 0.02969 0.41161 0.0
C602 C 0.96186 0.04733 0.4027 0.0
C603 C 0.95622 0.01683 0.43208 0.0
C604 C 0.99413 0.01795 0.48722 0.0
H605 H 0.03878 0.92208 0.53837 0.0
H606 H 0.02295 0.9436 0.50371 0.0
H607 H 0.00989 0.01354 0.52338 0.0
H608 H 0.99249 0.06515 0.40819 0.0
H609 H 0.00512 0.04265 0.44369 0.0
H610 H 0.97435 0.9765 0.44947 0.0
C611 C 0.0205 0.94917 0.52315 0.0
C612 C 0.0019 0.00527 0.50752 0.0
C613 C 0.0297 0.93691 0.54302 0.0
C614 C 0.98213 0.05175 0.41463 0.0
C615 C 0.98932 0.03893 0.43509 0.0
C616 C 0.98183 0.98479 0.46564 0.0
C617 C 0.00887 0.96869 0.52827 0.0
C618 C -0.00012 0.98218 0.50705 0.0
C619 C 0.97643 0.02136 0.44411 0.0
C620 C 0.98413 0.00786 0.46598 0.0
H621 H 0.01341 0.96902 0.59303 0.0
H622 H -0.00274 0.99033 0.55835 0.0
H623 H 0.98766 0.95435 0.48511 0.0
H624 H 0.93328 0.02586 0.40286 0.0
H625 H 0.94582 0.00354 0.43873 0.0
C626 C 0.47742 0.00516 0.37578 0.0
C627 C 0.47337 0.98232 0.37613 0.0
C628 C 0.49296 0.01453 0.39231 0.0
C629 C 0.5409 0.00132 0.43286 0.0
H630 H 0.52158 0.05088 0.47392 0.0
C631 C 0.57967 0.02259 0.52975 0.0
C632 C 0.58019 0.04461 0.53815 0.0
C633 C 0.56986 0.01704 0.50651 0.0
C634 C 0.5275 0.03737 0.46228 0.0
H635 H 0.48295 0.95135 0.39353 0.0
H636 H 0.51006 0.96769 0.42222 0.0
H637 H 0.49826 0.03734 0.43941 0.0
H638 H 0.57196 0.07826 0.52801 0.0
H639 H 0.55512 0.06859 0.48712 0.0
H640 H 0.56999 0.0011 0.45592 0.0
C641 C 0.50127 0.97834 0.40915 0.0
C642 C 0.51408 0.02957 0.44253 0.0
C643 C 0.48561 0.96901 0.39284 0.0
C644 C 0.57168 0.06111 0.52216 0.0
C645 C 0.56191 0.05555 0.4988 0.0
C646 C 0.55441 0.00922 0.45248 0.0
C647 C 0.50494 0.00122 0.40927 0.0
C648 C 0.52039 0.01113 0.42804 0.0
C649 C 0.56042 0.03338 0.49098 0.0
C650 C 0.54762 0.02697 0.46787 0.0
H651 H 0.4683 0.01586 0.36308 0.0
H652 H 0.49555 0.0322 0.39189 0.0
H653 H 0.54634 0.98729 0.42172 0.0
H654 H 0.58609 0.00945 0.54156 0.0
H655 H 0.56879 -0.00023 0.50132 0.0
C656 C 0.8272 0.15205 0.24498 0.0
C657 C 0.83562 0.14139 0.26668 0.0
C658 C 0.80505 0.1498 0.23825 0.0
C659 C 0.76038 0.13329 0.22064 0.0
H660 H 0.71663 0.13429 0.27429 0.0
C661 C 0.6681 0.11869 0.20001 0.0
C662 C 0.65307 0.13219 0.21307 0.0
C663 C 0.69037 0.11872 0.20674 0.0
C664 C 0.72862 0.13412 0.25906 0.0
H665 H 0.82745 0.11967 0.29806 0.0
H666 H 0.7889 0.11546 0.2861 0.0
H667 H 0.75549 0.13672 0.28532 0.0
H668 H 0.64963 0.15625 0.24349 0.0
H669 H 0.68848 0.15656 0.25494 0.0
H670 H 0.73347 0.13142 0.19434 0.0
C671 C 0.79932 0.12588 0.27453 0.0
C672 C 0.75093 0.13523 0.2654 0.0
C673 C 0.82146 0.1282 0.28131 0.0
C674 C 0.66076 0.14559 0.23311 0.0
C675 C 0.68303 0.14567 0.23978 0.0
C676 C 0.73806 0.13224 0.21429 0.0
C677 C 0.79081 0.13678 0.25302 0.0
C678 C 0.76709 0.13493 0.24627 0.0
C679 C 0.69813 0.13229 0.22663 0.0
C680 C 0.7219 0.13276 0.23342 0.0
H681 H 0.83765 0.16239 0.23334 0.0
H682 H 0.799 0.15866 0.22177 0.0
H683 H 0.77239 0.13276 0.20544 0.0
H684 H 0.66268 0.1081 0.18455 0.0
H685 H 0.70148 0.10798 0.19645 0.0
C686 C 0.35381 0.82104 0.2479 0.0
C687 C 0.36567 0.82929 0.2689 0.0
C688 C 0.35531 0.79881 0.24104 0.0
C689 C 0.37032 0.7442 0.26687 0.0
H690 H 0.37142 0.72733 0.1955 0.0
C691 C 0.38418 0.66182 0.19973 0.0
C692 C 0.37096 0.64664 0.2129 0.0
C693 C 0.38453 0.68405 0.20688 0.0
C694 C 0.37135 0.73175 0.21552 0.0
H695 H 0.38864 0.8207 0.29901 0.0
H696 H 0.39148 0.78198 0.28684 0.0
H697 H 0.3707 0.76624 0.2071 0.0
H698 H 0.34785 0.64288 0.24404 0.0
H699 H 0.34823 0.68166 0.25628 0.0
H700 H 0.37135 0.70971 0.27529 0.0
C701 C 0.38074 0.79262 0.2759 0.0
C702 C 0.37066 0.75407 0.22218 0.0
C703 C 0.37921 0.81485 0.28278 0.0
C704 C 0.35827 0.65413 0.23354 0.0
C705 C 0.35859 0.67636 0.24066 0.0
C706 C 0.37104 0.72188 0.26022 0.0
C707 C 0.36875 0.78431 0.25499 0.0
C708 C 0.37003 0.76057 0.24793 0.0
C709 C 0.37163 0.69161 0.22733 0.0
C710 C 0.37146 0.71537 0.23446 0.0
H711 H 0.34317 0.8317 0.23685 0.0
H712 H 0.34561 0.7929 0.22506 0.0
H713 H 0.36963 0.74862 0.28689 0.0
H714 H 0.39422 0.65657 0.1838 0.0
H715 H 0.39501 0.69529 0.19645 0.0
C716 C 0.83852 0.38649 0.20827 0.0
C717 C 0.8509 0.36695 0.20702 0.0
C718 C 0.81678 0.38606 0.21688 0.0
C719 C 0.76859 0.35144 0.21981 0.0
H720 H 0.74975 0.38832 0.27615 0.0
C721 C 0.68182 0.34298 0.26293 0.0
C722 C 0.67165 0.36187 0.27295 0.0
C723 C 0.7037 0.34373 0.25489 0.0
C724 C 0.75454 0.3782 0.26007 0.0
H725 H 0.85023 0.33168 0.21365 0.0
H726 H 0.81195 0.3309 0.22799 0.0
H727 H 0.78788 0.38975 0.26198 0.0
H728 H 0.67615 0.3965 0.28179 0.0
H729 H 0.71391 0.39818 0.26662 0.0
H730 H 0.7353 0.34045 0.217 0.0
C731 C 0.81923 0.34651 0.22259 0.0
C732 C 0.77646 0.37894 0.25213 0.0
C733 C 0.84112 0.347 0.21452 0.0
C734 C 0.68364 0.38163 0.27434 0.0
C735 C 0.70539 0.38251 0.26582 0.0
C736 C 0.74658 0.35102 0.22737 0.0
C737 C 0.8069 0.36603 0.22383 0.0
C738 C 0.78368 0.36546 0.23206 0.0
C739 C 0.71582 0.36352 0.25618 0.0
C740 C 0.73924 0.36429 0.24774 0.0
H741 H 0.84565 0.40211 0.20266 0.0
H742 H 0.80752 0.4013 0.21761 0.0
H743 H 0.77378 0.34108 0.20408 0.0
H744 H 0.67302 0.32746 0.26184 0.0
H745 H 0.71118 0.32863 0.24811 0.0
C746 C 0.10797 0.82693 0.20508 0.0
C747 C 0.12162 0.84221 0.2177 0.0
C748 C 0.10821 0.80467 0.21196 0.0
C749 C 0.12504 0.76658 0.26369 0.0
H750 H 0.12462 0.72286 0.20956 0.0
C751 C 0.14708 0.66882 0.24817 0.0
C752 C 0.13703 0.65973 0.26984 0.0
C753 C 0.14367 0.6909 0.24174 0.0
C754 C 0.12486 0.73486 0.2249 0.0
H755 H 0.14597 0.84615 0.24769 0.0
H756 H 0.14659 0.80734 0.25945 0.0
H757 H 0.12175 0.76184 0.19896 0.0
H758 H 0.11517 0.66661 0.3015 0.0
H759 H 0.109 0.70507 0.2901 0.0
H760 H 0.12889 0.73964 0.28958 0.0
C761 C 0.13548 0.81256 0.24447 0.0
C762 C 0.12294 0.7572 0.21884 0.0
C763 C 0.13521 0.83482 0.23763 0.0
C764 C 0.12324 0.67313 0.28474 0.0
C765 C 0.1198 0.69522 0.27829 0.0
C766 C 0.12699 0.74423 0.26975 0.0
C767 C 0.12211 0.79718 0.23159 0.0
C768 C 0.12317 0.77335 0.23815 0.0
C769 C 0.13009 0.70441 0.25681 0.0
C770 C 0.12709 0.72811 0.25041 0.0
H771 H 0.09723 0.8321 0.18971 0.0
H772 H 0.09748 0.79332 0.20189 0.0
H773 H 0.12503 0.77856 0.27905 0.0
H774 H 0.15785 0.65896 0.23631 0.0
H775 H 0.15209 0.69751 0.22527 0.0
C776 C 0.18928 0.88512 0.71464 0.0
C777 C 0.1791 0.86437 0.71656 0.0
C778 C 0.20775 0.89016 0.72947 0.0
C779 C 0.25464 0.86589 0.76188 0.0
H780 H 0.2549 0.91937 0.80258 0.0
C781 C 0.32652 0.88651 0.83034 0.0
C782 C 0.33251 0.90875 0.83321 0.0
C783 C 0.30746 0.88069 0.8169 0.0
C784 C 0.25532 0.90455 0.79104 0.0
H785 H 0.1805 0.83251 0.73519 0.0
H786 H 0.21324 0.84121 0.76065 0.0
H787 H 0.22265 0.91012 0.77699 0.0
H788 H 0.32343 0.94234 0.82394 0.0
H789 H 0.2908 0.93227 0.79966 0.0
H790 H 0.28752 0.86061 0.77498 0.0
C791 C 0.20671 0.85358 0.74783 0.0
C792 C 0.23676 0.89922 0.77651 0.0
C793 C 0.18796 0.84866 0.73335 0.0
C794 C 0.31913 0.92506 0.82226 0.0
C795 C 0.3003 0.91925 0.80846 0.0
C796 C 0.27338 0.87141 0.77606 0.0
C797 C 0.21666 0.87443 0.74615 0.0
C798 C 0.23625 0.87986 0.7618 0.0
C799 C 0.29413 0.89698 0.80563 0.0
C800 C 0.27401 0.89085 0.79083 0.0
H801 H 0.18279 0.89758 0.70193 0.0
H802 H 0.21523 0.90631 0.72772 0.0
H803 H 0.2547 0.85096 0.75049 0.0
H804 H 0.33645 0.87358 0.83871 0.0
H805 H 0.3031 0.86341 0.81559 0.0
C806 C 0.55374 0.18635 0.66205 0.0
C807 C 0.57369 0.17488 0.65964 0.0
C808 C 0.55311 0.20702 0.67387 0.0
C809 C 0.58507 0.24299 0.71789 0.0
H810 H 0.5442 0.28761 0.69434 0.0
C811 C 0.58375 0.33229 0.75766 0.0
C812 C 0.56291 0.34054 0.7642 0.0
C813 C 0.58572 0.31242 0.74424 0.0
C814 C 0.55561 0.27526 0.7012 0.0
H815 H 0.60873 0.17631 0.66727 0.0
H816 H 0.60778 0.21265 0.68725 0.0
H817 H 0.54678 0.25262 0.67156 0.0
H818 H 0.52779 0.33451 0.76161 0.0
H819 H 0.53126 0.29996 0.73796 0.0
H820 H 0.59405 0.2659 0.74735 0.0
C821 C 0.59249 0.20547 0.68057 0.0
C822 C 0.55705 0.25515 0.68821 0.0
C823 C 0.59307 0.18468 0.66896 0.0
C824 C 0.54409 0.32859 0.75688 0.0
C825 C 0.54605 0.30888 0.74321 0.0
C826 C 0.58378 0.2632 0.73071 0.0
C827 C 0.57247 0.21684 0.68337 0.0
C828 C 0.57164 0.23865 0.69653 0.0
C829 C 0.56688 0.30055 0.73682 0.0
C830 C 0.56889 0.27945 0.72264 0.0
H831 H 0.53848 0.17918 0.65523 0.0
H832 H 0.53733 0.21505 0.67605 0.0
H833 H 0.59623 0.23059 0.72514 0.0
H834 H 0.59857 0.3411 0.76304 0.0
H835 H 0.60198 0.30645 0.73942 0.0
C836 C 0.14717 0.60663 0.78672 0.0
C837 C 0.13988 0.58467 0.78486 0.0
C838 C 0.16775 0.61271 0.77719 0.0
C839 C 0.20917 0.59767 0.73022 0.0
H840 H 0.24998 0.62965 0.77366 0.0
C841 C 0.29864 0.61374 0.69907 0.0
C842 C 0.3086 0.63368 0.70643 0.0
C843 C 0.27814 0.60773 0.70884 0.0
C844 C 0.2387 0.62106 0.76107 0.0
H845 H 0.14829 0.55195 0.77124 0.0
H846 H 0.18407 0.56274 0.75408 0.0
H847 H 0.21375 0.61973 0.78986 0.0
H848 H 0.30482 0.66309 0.72959 0.0
H849 H 0.26871 0.65309 0.74587 0.0
H850 H 0.23363 0.59949 0.70114 0.0
C851 C 0.17388 0.57516 0.76308 0.0
C852 C 0.21798 0.61529 0.77045 0.0
C853 C 0.15347 0.56899 0.77299 0.0
C854 C 0.29761 0.64753 0.7237 0.0
C855 C 0.27694 0.6417 0.73316 0.0
C856 C 0.22974 0.60374 0.72068 0.0
C857 C 0.18127 0.59704 0.76524 0.0
C858 C 0.20308 0.60346 0.75515 0.0
C859 C 0.26691 0.62168 0.72591 0.0
C860 C 0.24486 0.61542 0.73601 0.0
H861 H 0.13709 0.61907 0.79582 0.0
H862 H 0.17303 0.62972 0.77895 0.0
H863 H 0.19786 0.58875 0.71796 0.0
H864 H 0.3068 0.60263 0.68595 0.0
H865 H 0.27123 0.59199 0.70319 0.0
C866 C 0.88797 0.15365 0.78987 0.0
C867 C 0.91003 0.14679 0.7897 0.0
C868 C 0.88203 0.17412 0.77979 0.0
C869 C 0.90586 0.22809 0.75966 0.0
H870 H 0.84986 0.23426 0.72479 0.0
C871 C 0.88301 0.30301 0.6968 0.0
C872 C 0.86242 0.31267 0.70155 0.0
C873 C 0.88878 0.28307 0.70832 0.0
C874 C 0.86548 0.23278 0.73465 0.0
H875 H 0.94311 0.15582 0.77848 0.0
H876 H 0.93271 0.19107 0.76 0.0
H877 H 0.86009 0.19873 0.74291 0.0
H878 H 0.83166 0.30894 0.72195 0.0
H879 H 0.8416 0.2738 0.74165 0.0
H880 H 0.91142 0.26207 0.7505 0.0
C881 C 0.92002 0.18105 0.76863 0.0
C882 C 0.87134 0.21246 0.74517 0.0
C883 C 0.92599 0.16073 0.77907 0.0
C884 C 0.84766 0.30193 0.71796 0.0
C885 C 0.85329 0.28179 0.72914 0.0
C886 C 0.90013 0.24831 0.74879 0.0
C887 C 0.89796 0.18809 0.76892 0.0
C888 C 0.89161 0.20981 0.75784 0.0
C889 C 0.87392 0.27221 0.72447 0.0
C890 C 0.87988 0.25084 0.73621 0.0
H891 H 0.87531 0.14333 0.79812 0.0
H892 H 0.86496 0.17908 0.78083 0.0
H893 H 0.92139 0.2269 0.76972 0.0
H894 H 0.89475 0.31092 0.68429 0.0
H895 H 0.90473 0.27595 0.70428 0.0
loop_
_geom_bond_atom_site_label_1
_geom_bond_atom_site_label_2
_geom_bond_distance
_geom_bond_site_symmetry_2
_ccdc_geom_bond_type
O0 Cd1 2.300 . S
O0 C7 1.275 . S
Cd1 O0 2.300 . S
Cd1 O9 2.381 . S
Cd1 O10 2.378 . S
O2 Cd3 2.385 . S
O2 C7 1.255 . S
Cd3 O2 2.385 . S
Cd3 O4 2.317 . S
O4 Cd3 2.317 . S
O4 C5 1.232 . S
C5 O4 1.232 . S
C5 O6 1.218 . S
O6 C5 1.218 . S
C7 O0 1.275 . S
C7 O2 1.255 . S
C8 O9 1.258 . S
C8 O10 1.256 . S
O9 Cd1 2.381 . S
O9 C8 1.258 . S
O10 Cd1 2.378 . S
O10 C8 1.256 . S
O11 Cd12 2.300 . S
O11 C18 1.275 . S
Cd12 O11 2.300 . S
Cd12 O20 2.381 . S
Cd12 O21 2.378 . S
O13 Cd14 2.385 . S
O13 C18 1.255 . S
Cd14 O13 2.385 . S
Cd14 O15 2.317 . S
O15 Cd14 2.317 . S
O15 C16 1.232 . S
C16 O15 1.232 . S
C16 O17 1.218 . S
O17 C16 1.218 . S
C18 O11 1.275 . S
C18 O13 1.255 . S
C19 O20 1.258 . S
C19 O21 1.256 . S
O20 Cd12 2.381 . S
O20 C19 1.258 . S
O21 Cd12 2.378 . S
O21 C19 1.256 . S
O22 Cd23 2.300 . S
O22 C29 1.275 . S
Cd23 O22 2.300 . S
Cd23 O31 2.381 . S
Cd23 O32 2.378 . S
O24 Cd25 2.385 . S
O24 C29 1.255 . S
Cd25 O24 2.385 . S
Cd25 O26 2.317 . S
O26 Cd25 2.317 . S
O26 C27 1.232 . S
C27 O26 1.232 . S
C27 O28 1.218 . S
O28 C27 1.218 . S
C29 O22 1.275 . S
C29 O24 1.255 . S
C30 O31 1.258 . S
C30 O32 1.256 . S
O31 Cd23 2.381 . S
O31 C30 1.258 . S
O32 Cd23 2.378 . S
O32 C30 1.256 . S
O33 Cd34 2.300 . S
O33 C40 1.275 . S
Cd34 O33 2.300 . S
Cd34 O42 2.381 . S
Cd34 O43 2.378 . S
O35 Cd36 2.385 . S
O35 C40 1.255 . S
Cd36 O35 2.385 . S
Cd36 O37 2.317 . S
O37 Cd36 2.317 . S
O37 C38 1.232 . S
C38 O37 1.232 . S
C38 O39 1.218 . S
O39 C38 1.218 . S
C40 O33 1.275 . S
C40 O35 1.255 . S
C41 O42 1.258 . S
C41 O43 1.256 . S
O42 Cd34 2.381 . S
O42 C41 1.258 . S
O43 Cd34 2.378 . S
O43 C41 1.256 . S
O44 Cd45 2.300 . S
O44 C51 1.275 . S
Cd45 O44 2.300 . S
Cd45 O53 2.381 . S
Cd45 O54 2.378 . S
O46 Cd47 2.385 . S
O46 C51 1.255 . S
Cd47 O46 2.385 . S
Cd47 O48 2.317 . S
O48 Cd47 2.317 . S
O48 C49 1.232 . S
C49 O48 1.232 . S
C49 O50 1.218 . S
O50 C49 1.218 . S
C51 O44 1.275 . S
C51 O46 1.255 . S
C52 O53 1.258 . S
C52 O54 1.256 . S
O53 Cd45 2.381 . S
O53 C52 1.258 . S
O54 Cd45 2.378 . S
O54 C52 1.256 . S
O55 Cd56 2.300 . S
O55 C62 1.275 . S
Cd56 O55 2.300 . S
Cd56 O64 2.381 . S
Cd56 O65 2.378 . S
O57 Cd58 2.385 . S
O57 C62 1.255 . S
Cd58 O57 2.385 . S
Cd58 O59 2.317 . S
O59 Cd58 2.317 . S
O59 C60 1.232 . S
C60 O59 1.232 . S
C60 O61 1.218 . S
O61 C60 1.218 . S
C62 O55 1.275 . S
C62 O57 1.255 . S
C63 O64 1.258 . S
C63 O65 1.256 . S
O64 Cd56 2.381 . S
O64 C63 1.258 . S
O65 Cd56 2.378 . S
O65 C63 1.256 . S
O66 Cd67 2.300 . S
O66 C73 1.275 . S
Cd67 O66 2.300 . S
Cd67 O75 2.381 . S
Cd67 O76 2.378 . S
O68 Cd69 2.385 . S
O68 C73 1.255 . S
Cd69 O68 2.385 . S
Cd69 O70 2.317 . S
O70 Cd69 2.317 . S
O70 C71 1.232 . S
C71 O70 1.232 . S
C71 O72 1.218 . S
O72 C71 1.218 . S
C73 O66 1.275 . S
C73 O68 1.255 . S
C74 O75 1.258 . S
C74 O76 1.256 . S
O75 Cd67 2.381 . S
O75 C74 1.258 . S
O76 Cd67 2.378 . S
O76 C74 1.256 . S
O77 Cd78 2.300 . S
O77 C84 1.275 . S
Cd78 O77 2.300 . S
Cd78 O86 2.381 . S
Cd78 O87 2.378 . S
O79 Cd80 2.385 . S
O79 C84 1.255 . S
Cd80 O79 2.385 . S
Cd80 O81 2.317 . S
O81 Cd80 2.317 . S
O81 C82 1.232 . S
C82 O81 1.232 . S
C82 O83 1.218 . S
O83 C82 1.218 . S
C84 O77 1.275 . S
C84 O79 1.255 . S
C85 O86 1.258 . S
C85 O87 1.256 . S
O86 Cd78 2.381 . S
O86 C85 1.258 . S
O87 Cd78 2.378 . S
O87 C85 1.256 . S
O88 Cd89 2.300 . S
O88 C95 1.275 . S
Cd89 O88 2.300 . S
Cd89 O97 2.381 . S
Cd89 O98 2.378 . S
O90 Cd91 2.385 . S
O90 C95 1.255 . S
Cd91 O90 2.385 . S
Cd91 O92 2.317 . S
O92 Cd91 2.317 . S
O92 C93 1.232 . S
C93 O92 1.232 . S
C93 O94 1.218 . S
O94 C93 1.218 . S
C95 O88 1.275 . S
C95 O90 1.255 . S
C96 O97 1.258 . S
C96 O98 1.256 . S
O97 Cd89 2.381 . S
O97 C96 1.258 . S
O98 Cd89 2.378 . S
O98 C96 1.256 . S
O99 Cd100 2.300 . S
O99 C106 1.275 . S
Cd100 O99 2.300 . S
Cd100 O108 2.381 . S
Cd100 O109 2.378 . S
O101 Cd102 2.385 . S
O101 C106 1.255 . S
Cd102 O101 2.385 . S
Cd102 O103 2.317 . S
O103 Cd102 2.317 . S
O103 C104 1.232 . S
C104 O103 1.232 . S
C104 O105 1.218 . S
O105 C104 1.218 . S
C106 O99 1.275 . S
C106 O101 1.255 . S
C107 O108 1.258 . S
C107 O109 1.256 . S
O108 Cd100 2.381 . S
O108 C107 1.258 . S
O109 Cd100 2.378 . S
O109 C107 1.256 . S
O110 Cd111 2.300 . S
O110 C117 1.275 . S
Cd111 O110 2.300 . S
Cd111 O119 2.381 . S
Cd111 O120 2.378 . S
O112 Cd113 2.385 . S
O112 C117 1.255 . S
Cd113 O112 2.385 . S
Cd113 O114 2.317 . S
O114 Cd113 2.317 . S
O114 C115 1.232 . S
C115 O114 1.232 . S
C115 O116 1.218 . S
O116 C115 1.218 . S
C117 O110 1.275 . S
C117 O112 1.255 . S
C118 O119 1.258 . S
C118 O120 1.256 . S
O119 Cd111 2.381 . S
O119 C118 1.258 . S
O120 Cd111 2.378 . S
O120 C118 1.256 . S
O121 Cd122 2.300 . S
O121 C128 1.275 . S
Cd122 O121 2.300 . S
Cd122 O130 2.381 . S
Cd122 O131 2.378 . S
O123 Cd124 2.385 . S
O123 C128 1.255 . S
Cd124 O123 2.385 . S
Cd124 O125 2.317 . S
O125 Cd124 2.317 . S
O125 C126 1.232 . S
C126 O125 1.232 . S
C126 O127 1.218 . S
O127 C126 1.218 . S
C128 O121 1.275 . S
C128 O123 1.255 . S
C129 O130 1.258 . S
C129 O131 1.256 . S
O130 Cd122 2.381 . S
O130 C129 1.258 . S
O131 Cd122 2.378 . S
O131 C129 1.256 . S
O132 Cd133 2.300 . S
O132 C139 1.275 . S
Cd133 O132 2.300 . S
Cd133 O141 2.381 . S
Cd133 O142 2.378 . S
O134 Cd135 2.385 . S
O134 C139 1.255 . S
Cd135 O134 2.385 . S
Cd135 O136 2.317 . S
O136 Cd135 2.317 . S
O136 C137 1.232 . S
C137 O136 1.232 . S
C137 O138 1.218 . S
O138 C137 1.218 . S
C139 O132 1.275 . S
C139 O134 1.255 . S
C140 O141 1.258 . S
C140 O142 1.256 . S
O141 Cd133 2.381 . S
O141 C140 1.258 . S
O142 Cd133 2.378 . S
O142 C140 1.256 . S
O143 Cd144 2.300 . S
O143 C150 1.275 . S
Cd144 O143 2.300 . S
Cd144 O152 2.381 . S
Cd144 O153 2.378 . S
O145 Cd146 2.385 . S
O145 C150 1.255 . S
Cd146 O145 2.385 . S
Cd146 O147 2.317 . S
O147 Cd146 2.317 . S
O147 C148 1.232 . S
C148 O147 1.232 . S
C148 O149 1.218 . S
O149 C148 1.218 . S
C150 O143 1.275 . S
C150 O145 1.255 . S
C151 O152 1.258 . S
C151 O153 1.256 . S
O152 Cd144 2.381 . S
O152 C151 1.258 . S
O153 Cd144 2.378 . S
O153 C151 1.256 . S
O154 Cd155 2.300 . S
O154 C161 1.275 . S
Cd155 O154 2.300 . S
Cd155 O163 2.381 . S
Cd155 O164 2.378 . S
O156 Cd157 2.385 . S
O156 C161 1.255 . S
Cd157 O156 2.385 . S
Cd157 O158 2.317 . S
O158 Cd157 2.317 . S
O158 C159 1.232 . S
C159 O158 1.232 . S
C159 O160 1.218 . S
O160 C159 1.218 . S
C161 O154 1.275 . S
C161 O156 1.255 . S
C162 O163 1.258 . S
C162 O164 1.256 . S
O163 Cd155 2.381 . S
O163 C162 1.258 . S
O164 Cd155 2.378 . S
O164 C162 1.256 . S
O165 Cd166 2.300 . S
O165 C172 1.275 . S
Cd166 O165 2.300 . S
Cd166 O174 2.381 . S
Cd166 O175 2.378 . S
O167 Cd168 2.385 . S
O167 C172 1.255 . S
Cd168 O167 2.385 . S
Cd168 O169 2.317 . S
O169 Cd168 2.317 . S
O169 C170 1.232 . S
C170 O169 1.232 . S
C170 O171 1.218 . S
O171 C170 1.218 . S
C172 O165 1.275 . S
C172 O167 1.255 . S
C173 O174 1.258 . S
C173 O175 1.256 . S
O174 Cd166 2.381 . S
O174 C173 1.258 . S
O175 Cd166 2.378 . S
O175 C173 1.256 . S
C176 C177 1.349 . S
C176 C178 1.327 . S
C176 H201 0.950 . S
C177 C176 1.349 . S
C177 C193 1.349 . S
C178 C176 1.327 . S
C178 C197 1.429 . S
C178 H202 0.950 . S
C179 C196 1.574 . S
C179 C198 1.368 . S
C179 H203 0.949 . S
H180 C184 0.949 . S
C181 C182 1.349 . S
C181 C183 1.327 . S
C181 H204 0.950 . S
C182 C181 1.349 . S
C182 C194 1.349 . S
C183 C181 1.327 . S
C183 C199 1.429 . S
C183 H205 0.938 1_565 S
C184 H180 0.949 . S
C184 C192 1.574 1_565 S
C184 C200 1.380 . S
H185 C193 0.950 . S
H186 C191 0.950 . S
H187 C192 0.949 . S
H188 C194 0.950 . S
H189 C195 0.950 . S
H190 C196 0.949 . S
C191 H186 0.950 . S
C191 C193 1.327 . S
C191 C197 1.429 . S
C192 C184 1.574 1_545 S
C192 H187 0.949 . S
C192 C198 1.368 . S
C193 C177 1.349 . S
C193 H185 0.950 . S
C193 C191 1.327 . S
C194 C182 1.349 . S
C194 H188 0.950 . S
C194 C195 1.327 . S
C195 H189 0.950 . S
C195 C194 1.327 . S
C195 C199 1.429 . S
C196 C179 1.574 . S
C196 H190 0.949 . S
C196 C200 1.339 1_545 S
C197 C178 1.429 . S
C197 C191 1.429 . S
C197 C198 1.523 . S
C198 C179 1.368 . S
C198 C192 1.368 . S
C198 C197 1.523 . S
C199 C183 1.429 . S
C199 C195 1.429 . S
C199 C200 1.546 . S
C200 C184 1.380 . S
C200 C196 1.339 1_565 S
C200 C199 1.546 . S
H201 C176 0.950 . S
H202 C178 0.950 . S
H203 C179 0.949 . S
H204 C181 0.950 . S
H205 C183 0.938 1_545 S
C206 C207 1.349 . S
C206 C208 1.327 . S
C206 H231 0.950 . S
C207 C206 1.349 . S
C207 C223 1.349 . S
C208 C206 1.327 . S
C208 C227 1.429 . S
C208 H232 0.950 . S
C209 C226 1.574 . S
C209 C228 1.368 . S
C209 H233 0.949 . S
H210 C214 0.949 . S
C211 C212 1.349 . S
C211 C213 1.327 . S
C211 H234 0.950 . S
C212 C211 1.349 . S
C212 C224 1.349 . S
C213 C211 1.327 . S
C213 C229 1.429 . S
C213 H235 0.950 . S
C214 H210 0.949 . S
C214 C222 1.574 . S
C214 C230 1.368 . S
H215 C223 0.950 . S
H216 C221 0.950 . S
H217 C222 0.949 . S
H218 C224 0.950 . S
H219 C225 0.950 . S
H220 C226 0.949 . S
C221 H216 0.950 . S
C221 C223 1.327 . S
C221 C227 1.429 . S
C222 C214 1.574 . S
C222 H217 0.949 . S
C222 C228 1.368 . S
C223 C207 1.349 . S
C223 H215 0.950 . S
C223 C221 1.327 . S
C224 C212 1.349 . S
C224 H218 0.950 . S
C224 C225 1.327 . S
C225 H219 0.950 . S
C225 C224 1.327 . S
C225 C229 1.429 . S
C226 C209 1.574 . S
C226 H220 0.949 . S
C226 C230 1.368 . S
C227 C208 1.429 . S
C227 C221 1.429 . S
C227 C228 1.523 . S
C228 C209 1.368 . S
C228 C222 1.368 . S
C228 C227 1.523 . S
C229 C213 1.429 . S
C229 C225 1.429 . S
C229 C230 1.523 . S
C230 C214 1.368 . S
C230 C226 1.368 . S
C230 C229 1.523 . S
H231 C206 0.950 . S
H232 C208 0.950 . S
H233 C209 0.949 . S
H234 C211 0.950 . S
H235 C213 0.950 . S
C236 C237 1.349 . S
C236 C238 1.327 . S
C236 H261 0.950 . S
C237 C236 1.349 . S
C237 C253 1.349 . S
C238 C236 1.327 . S
C238 C257 1.429 . S
C238 H262 0.950 . S
C239 C256 1.559 1_655 S
C239 C258 1.368 . S
C239 H263 0.963 . S
H240 C244 0.949 . S
C241 C242 1.349 . S
C241 C243 1.327 . S
C241 H264 0.950 . S
C242 C241 1.349 . S
C242 C254 1.349 . S
C243 C241 1.327 . S
C243 C259 1.429 . S
C243 H265 0.950 . S
C244 H240 0.949 . S
C244 C252 1.574 . S
C244 C260 1.368 . S
H245 C253 0.950 . S
H246 C251 0.950 . S
H247 C252 0.949 . S
H248 C254 0.950 . S
H249 C255 0.950 . S
H250 C256 0.949 . S
C251 H246 0.950 . S
C251 C253 1.327 . S
C251 C257 1.429 . S
C252 C244 1.574 . S
C252 H247 0.949 . S
C252 C258 1.351 1_455 S
C253 C237 1.349 . S
C253 H245 0.950 . S
C253 C251 1.327 . S
C254 C242 1.349 . S
C254 H248 0.950 . S
C254 C255 1.327 . S
C255 H249 0.950 . S
C255 C254 1.327 . S
C255 C259 1.429 . S
C256 C239 1.559 1_455 S
C256 H250 0.949 . S
C256 C260 1.368 . S
C257 C238 1.429 . S
C257 C251 1.429 . S
C257 C258 1.546 . S
C258 C239 1.368 . S
C258 C252 1.351 1_655 S
C258 C257 1.546 . S
C259 C243 1.429 . S
C259 C255 1.429 . S
C259 C260 1.523 . S
C260 C244 1.368 . S
C260 C256 1.368 . S
C260 C259 1.523 . S
H261 C236 0.950 . S
H262 C238 0.950 . S
H263 C239 0.963 . S
H264 C241 0.950 . S
H265 C243 0.950 . S
C266 C267 1.349 . S
C266 C268 1.327 . S
C266 H291 0.950 . S
C267 C266 1.349 . S
C267 C283 1.349 . S
C268 C266 1.327 . S
C268 C287 1.429 . S
C268 H292 0.950 . S
C269 C286 1.574 1_655 S
C269 C288 1.378 . S
C269 H293 0.949 . S
H270 C274 0.951 1_565 S
C271 C272 1.349 . S
C271 C273 1.327 . S
C271 H294 0.950 . S
C272 C271 1.349 . S
C272 C284 1.349 . S
C273 C271 1.327 . S
C273 C289 1.429 . S
C273 H295 0.950 . S
C274 H270 0.951 1_545 S
C274 C282 1.571 . S
C274 C290 1.368 1_545 S
H275 C283 0.950 . S
H276 C281 0.950 . S
H277 C282 0.949 . S
H278 C284 0.950 . S
H279 C285 0.950 . S
H280 C286 0.949 . S
C281 H276 0.950 . S
C281 C283 1.327 . S
C281 C287 1.429 . S
C282 C274 1.571 . S
C282 H277 0.949 . S
C282 C288 1.342 1_455 S
C283 C267 1.349 . S
C283 H275 0.950 . S
C283 C281 1.327 . S
C284 C272 1.349 . S
C284 H278 0.950 . S
C284 C285 1.327 . S
C285 H279 0.950 . S
C285 C284 1.327 . S
C285 C289 1.429 . S
C286 C269 1.574 1_455 S
C286 H280 0.949 . S
C286 C290 1.352 1_545 S
C287 C268 1.429 . S
C287 C281 1.429 . S
C287 C288 1.546 . S
C288 C269 1.378 . S
C288 C282 1.342 1_655 S
C288 C287 1.546 . S
C289 C273 1.429 . S
C289 C285 1.429 . S
C289 C290 1.546 . S
C290 C274 1.368 1_565 S
C290 C286 1.352 1_565 S
C290 C289 1.546 . S
H291 C266 0.950 . S
H292 C268 0.950 . S
H293 C269 0.949 . S
H294 C271 0.950 . S
H295 C273 0.950 . S
C296 C297 1.349 . S
C296 C298 1.327 . S
C296 H321 0.950 . S
C297 C296 1.349 . S
C297 C313 1.349 . S
C298 C296 1.327 . S
C298 C317 1.429 . S
C298 H322 0.950 1_545 S
C299 C316 1.574 1_545 S
C299 C318 1.386 . S
C299 H323 0.949 . S
H300 C304 0.949 . S
C301 C302 1.349 . S
C301 C303 1.327 . S
C301 H324 0.950 . S
C302 C301 1.349 . S
C302 C314 1.349 . S
C303 C301 1.327 . S
C303 C319 1.429 . S
C303 H325 0.950 . S
C304 H300 0.949 . S
C304 C312 1.574 . S
C304 C320 1.368 . S
H305 C313 0.950 . S
H306 C311 0.950 . S
H307 C312 0.949 . S
H308 C314 0.950 . S
H309 C315 0.950 . S
H310 C316 0.950 1_545 S
C311 H306 0.950 . S
C311 C313 1.327 . S
C311 C317 1.429 . S
C312 C304 1.574 . S
C312 H307 0.949 . S
C312 C318 1.333 1_565 S
C313 C297 1.349 . S
C313 H305 0.950 . S
C313 C311 1.327 . S
C314 C302 1.349 . S
C314 H308 0.950 . S
C314 C315 1.327 . S
C315 H309 0.950 . S
C315 C314 1.327 . S
C315 C319 1.429 . S
C316 C299 1.574 1_565 S
C316 H310 0.950 1_565 S
C316 C320 1.368 . S
C317 C298 1.429 . S
C317 C311 1.429 . S
C317 C318 1.546 . S
C318 C299 1.386 . S
C318 C312 1.333 1_545 S
C318 C317 1.546 . S
C319 C303 1.429 . S
C319 C315 1.429 . S
C319 C320 1.523 . S
C320 C304 1.368 . S
C320 C316 1.368 . S
C320 C319 1.523 . S
H321 C296 0.950 . S
H322 C298 0.950 1_565 S
H323 C299 0.949 . S
H324 C301 0.950 . S
H325 C303 0.950 . S
C326 C327 1.349 . S
C326 C328 1.327 . S
C326 H351 0.950 . S
C327 C326 1.349 . S
C327 C343 1.349 . S
C328 C326 1.327 . S
C328 C347 1.429 . S
C328 H352 0.950 . S
C329 C346 1.574 . S
C329 C348 1.368 . S
C329 H353 0.949 . S
H330 C334 0.949 . S
C331 C332 1.349 . S
C331 C333 1.327 . S
C331 H354 0.950 . S
C332 C331 1.349 . S
C332 C344 1.349 . S
C333 C331 1.327 . S
C333 C349 1.429 . S
C333 H355 0.950 . S
C334 H330 0.949 . S
C334 C342 1.574 . S
C334 C350 1.368 . S
H335 C343 0.950 . S
H336 C341 0.950 . S
H337 C342 0.949 . S
H338 C344 0.950 . S
H339 C345 0.950 . S
H340 C346 0.949 . S
C341 H336 0.950 . S
C341 C343 1.327 . S
C341 C347 1.429 . S
C342 C334 1.574 . S
C342 H337 0.949 . S
C342 C348 1.368 . S
C343 C327 1.349 . S
C343 H335 0.950 . S
C343 C341 1.327 . S
C344 C332 1.349 . S
C344 H338 0.950 . S
C344 C345 1.327 . S
C345 H339 0.950 . S
C345 C344 1.327 . S
C345 C349 1.429 . S
C346 C329 1.574 . S
C346 H340 0.949 . S
C346 C350 1.368 . S
C347 C328 1.429 . S
C347 C341 1.429 . S
C347 C348 1.523 . S
C348 C329 1.368 . S
C348 C342 1.368 . S
C348 C347 1.523 . S
C349 C333 1.429 . S
C349 C345 1.429 . S
C349 C350 1.523 . S
C350 C334 1.368 . S
C350 C346 1.368 . S
C350 C349 1.523 . S
H351 C326 0.950 . S
H352 C328 0.950 . S
H353 C329 0.949 . S
H354 C331 0.950 . S
H355 C333 0.950 . S
C356 C357 1.349 . S
C356 C358 1.327 . S
C356 H381 0.950 . S
C357 C356 1.349 . S
C357 C373 1.349 . S
C358 C356 1.327 . S
C358 C377 1.429 . S
C358 H382 0.950 . S
C359 C376 1.574 . S
C359 C378 1.343 1_655 S
C359 H383 0.949 . S
H360 C364 0.949 . S
C361 C362 1.349 . S
C361 C363 1.327 . S
C361 H384 0.950 . S
C362 C361 1.349 . S
C362 C374 1.349 . S
C363 C361 1.327 . S
C363 C379 1.429 . S
C363 H385 0.950 . S
C364 H360 0.949 . S
C364 C372 1.574 1_655 S
C364 C380 1.368 . S
H365 C373 0.950 . S
H366 C371 0.950 . S
H367 C372 0.949 . S
H368 C374 0.950 . S
H369 C375 0.950 . S
H370 C376 0.949 . S
C371 H366 0.950 . S
C371 C373 1.327 . S
C371 C377 1.429 . S
C372 C364 1.574 1_455 S
C372 H367 0.949 . S
C372 C378 1.377 . S
C373 C357 1.349 . S
C373 H365 0.950 . S
C373 C371 1.327 . S
C374 C362 1.349 . S
C374 H368 0.950 . S
C374 C375 1.327 . S
C375 H369 0.950 . S
C375 C374 1.327 . S
C375 C379 1.429 . S
C376 C359 1.574 . S
C376 H370 0.949 . S
C376 C380 1.368 . S
C377 C358 1.429 . S
C377 C371 1.429 . S
C377 C378 1.546 . S
C378 C359 1.343 1_455 S
C378 C372 1.377 . S
C378 C377 1.546 . S
C379 C363 1.429 . S
C379 C375 1.429 . S
C379 C380 1.523 . S
C380 C364 1.368 . S
C380 C376 1.368 . S
C380 C379 1.523 . S
H381 C356 0.950 . S
H382 C358 0.950 . S
H383 C359 0.949 . S
H384 C361 0.950 . S
H385 C363 0.950 . S
C386 C387 1.349 . S
C386 C388 1.327 . S
C386 H411 0.950 . S
C387 C386 1.349 . S
C387 C403 1.349 . S
C388 C386 1.327 . S
C388 C407 1.429 . S
C388 H412 0.950 1_545 S
C389 C406 1.574 1_645 S
C389 C408 1.386 . S
C389 H413 0.949 . S
H390 C394 0.949 . S
C391 C392 1.349 . S
C391 C393 1.327 . S
C391 H414 0.950 . S
C392 C391 1.349 . S
C392 C404 1.349 . S
C393 C391 1.327 . S
C393 C409 1.429 . S
C393 H415 0.950 . S
C394 H390 0.949 . S
C394 C402 1.574 . S
C394 C410 1.336 1_655 S
H395 C403 0.950 . S
H396 C401 0.950 . S
H397 C402 0.949 . S
H398 C404 0.950 . S
H399 C405 0.950 1_655 S
H400 C406 0.952 . S
C401 H396 0.950 . S
C401 C403 1.327 . S
C401 C407 1.429 . S
C402 C394 1.574 . S
C402 H397 0.949 . S
C402 C408 1.333 1_565 S
C403 C387 1.349 . S
C403 H395 0.950 . S
C403 C401 1.327 . S
C404 C392 1.349 . S
C404 H398 0.950 . S
C404 C405 1.327 . S
C405 H399 0.950 1_455 S
C405 C404 1.327 . S
C405 C409 1.429 . S
C406 C389 1.574 1_465 S
C406 H400 0.952 . S
C406 C410 1.383 . S
C407 C388 1.429 . S
C407 C401 1.429 . S
C407 C408 1.546 . S
C408 C389 1.386 . S
C408 C402 1.333 1_545 S
C408 C407 1.546 . S
C409 C393 1.429 . S
C409 C405 1.429 . S
C409 C410 1.546 . S
C410 C394 1.336 1_455 S
C410 C406 1.383 . S
C410 C409 1.546 . S
H411 C386 0.950 . S
H412 C388 0.950 1_565 S
H413 C389 0.949 . S
H414 C391 0.950 . S
H415 C393 0.950 . S
C416 C417 1.349 . S
C416 C418 1.327 . S
C416 H441 0.950 . S
C417 C416 1.349 . S
C417 C433 1.349 . S
C418 C416 1.327 . S
C418 C437 1.429 . S
C418 H442 0.950 . S
C419 C436 1.603 1_556 S
C419 C438 1.368 . S
C419 H443 0.949 . S
H420 C424 0.949 . S
C421 C422 1.349 . S
C421 C423 1.327 . S
C421 H444 0.950 . S
C422 C421 1.349 . S
C422 C434 1.349 . S
C423 C421 1.327 . S
C423 C439 1.429 . S
C423 H445 0.950 . S
C424 H420 0.949 . S
C424 C432 1.603 1_554 S
C424 C440 1.368 . S
H425 C433 0.950 . S
H426 C431 0.950 . S
H427 C432 0.951 . S
H428 C434 0.950 . S
H429 C435 0.950 . S
H430 C436 0.951 . S
C431 H426 0.950 . S
C431 C433 1.327 . S
C431 C437 1.429 . S
C432 C424 1.603 1_556 S
C432 H427 0.951 . S
C432 C438 1.339 1_545 S
C433 C417 1.349 . S
C433 H425 0.950 . S
C433 C431 1.327 . S
C434 C422 1.349 . S
C434 H428 0.950 . S
C434 C435 1.327 . S
C435 H429 0.950 . S
C435 C434 1.327 . S
C435 C439 1.429 . S
C436 C419 1.603 1_554 S
C436 H430 0.951 . S
C436 C440 1.339 1_565 S
C437 C418 1.429 . S
C437 C431 1.429 . S
C437 C438 1.523 . S
C438 C419 1.368 . S
C438 C432 1.339 1_565 S
C438 C437 1.523 . S
C439 C423 1.429 . S
C439 C435 1.429 . S
C439 C440 1.523 . S
C440 C424 1.368 . S
C440 C436 1.339 1_545 S
C440 C439 1.523 . S
H441 C416 0.950 . S
H442 C418 0.950 . S
H443 C419 0.949 . S
H444 C421 0.950 . S
H445 C423 0.950 . S
C446 C447 1.349 . S
C446 C448 1.327 . S
C446 H471 0.950 . S
C447 C446 1.349 . S
C447 C463 1.349 . S
C448 C446 1.327 . S
C448 C467 1.429 . S
C448 H472 0.950 . S
C449 C466 1.602 . S
C449 C468 1.368 . S
C449 H473 0.949 . S
H450 C454 0.949 . S
C451 C452 1.349 . S
C451 C453 1.327 . S
C451 H474 0.950 . S
C452 C451 1.349 . S
C452 C464 1.349 . S
C453 C451 1.327 . S
C453 C469 1.429 . S
C453 H475 0.950 . S
C454 H450 0.949 . S
C454 C462 1.602 . S
C454 C470 1.368 . S
H455 C463 0.950 . S
H456 C461 0.950 . S
H457 C462 0.950 . S
H458 C464 0.950 . S
H459 C465 0.950 . S
H460 C466 0.950 . S
C461 H456 0.950 . S
C461 C463 1.327 . S
C461 C467 1.429 . S
C462 C454 1.602 . S
C462 H457 0.950 . S
C462 C468 1.340 1_554 S
C463 C447 1.349 . S
C463 H455 0.950 . S
C463 C461 1.327 . S
C464 C452 1.349 . S
C464 H458 0.950 . S
C464 C465 1.327 . S
C465 H459 0.950 . S
C465 C464 1.327 . S
C465 C469 1.429 . S
C466 C449 1.602 . S
C466 H460 0.950 . S
C466 C470 1.340 1_556 S
C467 C448 1.429 . S
C467 C461 1.429 . S
C467 C468 1.523 . S
C468 C449 1.368 . S
C468 C462 1.340 1_556 S
C468 C467 1.523 . S
C469 C453 1.429 . S
C469 C465 1.429 . S
C469 C470 1.523 . S
C470 C454 1.368 . S
C470 C466 1.340 1_554 S
C470 C469 1.523 . S
H471 C446 0.950 . S
H472 C448 0.950 . S
H473 C449 0.949 . S
H474 C451 0.950 . S
H475 C453 0.950 . S
C476 C477 1.349 . S
C476 C478 1.327 . S
C476 H501 0.950 . S
C477 C476 1.349 . S
C477 C493 1.349 . S
C478 C476 1.327 . S
C478 C497 1.429 . S
C478 H502 0.950 . S
C479 C496 1.563 1_655 S
C479 C498 1.368 1_556 S
C479 H503 0.949 . S
H480 C484 0.949 . S
C481 C482 1.349 . S
C481 C483 1.327 . S
C481 H504 0.950 . S
C482 C481 1.349 . S
C482 C494 1.349 . S
C483 C481 1.327 . S
C483 C499 1.429 . S
C483 H505 0.950 . S
C484 H480 0.949 . S
C484 C492 1.563 1_455 S
C484 C500 1.368 1_554 S
H485 C493 0.950 . S
H486 C491 0.950 . S
H487 C492 0.950 . S
H488 C494 0.950 . S
H489 C495 0.950 . S
H490 C496 0.950 . S
C491 H486 0.950 . S
C491 C493 1.327 . S
C491 C497 1.429 . S
C492 C484 1.563 1_655 S
C492 H487 0.950 . S
C492 C498 1.378 . S
C493 C477 1.349 . S
C493 H485 0.950 . S
C493 C491 1.327 . S
C494 C482 1.349 . S
C494 H488 0.950 . S
C494 C495 1.327 . S
C495 H489 0.950 . S
C495 C494 1.327 . S
C495 C499 1.429 . S
C496 C479 1.563 1_455 S
C496 H490 0.950 . S
C496 C500 1.378 . S
C497 C478 1.429 . S
C497 C491 1.429 . S
C497 C498 1.523 . S
C498 C479 1.368 1_554 S
C498 C492 1.378 . S
C498 C497 1.523 . S
C499 C483 1.429 . S
C499 C495 1.429 . S
C499 C500 1.523 . S
C500 C484 1.368 1_556 S
C500 C496 1.378 . S
C500 C499 1.523 . S
H501 C476 0.950 . S
H502 C478 0.950 . S
H503 C479 0.949 . S
H504 C481 0.950 . S
H505 C483 0.950 . S
C506 C507 1.349 . S
C506 C508 1.327 . S
C506 H531 0.950 . S
C507 C506 1.349 . S
C507 C523 1.349 . S
C508 C506 1.327 . S
C508 C527 1.429 . S
C508 H532 0.950 . S
C509 C526 1.584 1_556 S
C509 C528 1.368 1_565 S
C509 H533 0.949 . S
H510 C514 0.949 . S
C511 C512 1.349 . S
C511 C513 1.327 . S
C511 H534 0.950 . S
C512 C511 1.349 . S
C512 C524 1.349 . S
C513 C511 1.327 . S
C513 C529 1.429 . S
C513 H535 0.950 . S
C514 H510 0.949 . S
C514 C522 1.584 1_554 S
C514 C530 1.368 1_545 S
H515 C523 0.950 . S
H516 C521 0.950 1_565 S
H517 C522 0.949 . S
H518 C524 0.950 . S
H519 C525 0.950 1_545 S
H520 C526 0.949 . S
C521 H516 0.950 1_545 S
C521 C523 1.327 . S
C521 C527 1.429 . S
C522 C514 1.584 1_556 S
C522 H517 0.949 . S
C522 C528 1.358 1_455 S
C523 C507 1.349 . S
C523 H515 0.950 . S
C523 C521 1.327 . S
C524 C512 1.349 . S
C524 H518 0.950 . S
C524 C525 1.327 . S
C525 H519 0.950 1_565 S
C525 C524 1.327 . S
C525 C529 1.429 . S
C526 C509 1.584 1_554 S
C526 H520 0.949 . S
C526 C530 1.358 1_655 S
C527 C508 1.429 . S
C527 C521 1.429 . S
C527 C528 1.523 . S
C528 C509 1.368 1_545 S
C528 C522 1.358 1_655 S
C528 C527 1.523 . S
C529 C513 1.429 . S
C529 C525 1.429 . S
C529 C530 1.523 . S
C530 C514 1.368 1_565 S
C530 C526 1.358 1_455 S
C530 C529 1.523 . S
H531 C506 0.950 . S
H532 C508 0.950 . S
H533 C509 0.949 . S
H534 C511 0.950 . S
H535 C513 0.950 . S
C536 C537 1.349 . S
C536 C538 1.327 . S
C536 H561 0.950 . S
C537 C536 1.349 . S
C537 C553 1.349 . S
C538 C536 1.327 . S
C538 C557 1.429 . S
C538 H562 0.950 . S
C539 C556 1.574 . S
C539 C558 1.368 . S
C539 H563 0.949 . S
H540 C544 0.949 . S
C541 C542 1.349 . S
C541 C543 1.327 . S
C541 H564 0.950 . S
C542 C541 1.349 . S
C542 C554 1.349 . S
C543 C541 1.327 . S
C543 C559 1.429 . S
C543 H565 0.950 . S
C544 H540 0.949 . S
C544 C552 1.574 . S
C544 C560 1.368 . S
H545 C553 0.950 . S
H546 C551 0.950 . S
H547 C552 0.949 . S
H548 C554 0.950 . S
H549 C555 0.950 . S
H550 C556 0.949 . S
C551 H546 0.950 . S
C551 C553 1.327 . S
C551 C557 1.429 . S
C552 C544 1.574 . S
C552 H547 0.949 . S
C552 C558 1.368 . S
C553 C537 1.349 . S
C553 H545 0.950 . S
C553 C551 1.327 . S
C554 C542 1.349 . S
C554 H548 0.950 . S
C554 C555 1.327 . S
C555 H549 0.950 . S
C555 C554 1.327 . S
C555 C559 1.429 . S
C556 C539 1.574 . S
C556 H550 0.949 . S
C556 C560 1.368 . S
C557 C538 1.429 . S
C557 C551 1.429 . S
C557 C558 1.523 . S
C558 C539 1.368 . S
C558 C552 1.368 . S
C558 C557 1.523 . S
C559 C543 1.429 . S
C559 C555 1.429 . S
C559 C560 1.523 . S
C560 C544 1.368 . S
C560 C556 1.368 . S
C560 C559 1.523 . S
H561 C536 0.950 . S
H562 C538 0.950 . S
H563 C539 0.949 . S
H564 C541 0.950 . S
H565 C543 0.950 . S
C566 C567 1.349 . S
C566 C568 1.327 . S
C566 H591 0.950 . S
C567 C566 1.349 . S
C567 C583 1.349 . S
C568 C566 1.327 . S
C568 C587 1.429 . S
C568 H592 0.950 . S
C569 C586 1.574 . S
C569 C588 1.368 1_455 S
C569 H593 0.949 . S
H570 C574 0.949 . S
C571 C572 1.349 . S
C571 C573 1.327 . S
C571 H594 0.950 . S
C572 C571 1.349 . S
C572 C584 1.349 . S
C573 C571 1.327 . S
C573 C589 1.429 . S
C573 H595 0.950 . S
C574 H570 0.949 . S
C574 C582 1.574 . S
C574 C590 1.368 1_655 S
H575 C583 0.950 . S
H576 C581 0.950 . S
H577 C582 0.949 . S
H578 C584 0.950 . S
H579 C585 0.950 . S
H580 C586 0.949 . S
C581 H576 0.950 . S
C581 C583 1.327 . S
C581 C587 1.429 . S
C582 C574 1.574 . S
C582 H577 0.949 . S
C582 C588 1.368 . S
C583 C567 1.349 . S
C583 H575 0.950 . S
C583 C581 1.327 . S
C584 C572 1.349 . S
C584 H578 0.950 . S
C584 C585 1.327 . S
C585 H579 0.950 . S
C585 C584 1.327 . S
C585 C589 1.429 . S
C586 C569 1.574 . S
C586 H580 0.949 . S
C586 C590 1.368 . S
C587 C568 1.429 . S
C587 C581 1.429 . S
C587 C588 1.523 . S
C588 C569 1.368 1_655 S
C588 C582 1.368 . S
C588 C587 1.523 . S
C589 C573 1.429 . S
C589 C585 1.429 . S
C589 C590 1.523 . S
C590 C574 1.368 1_455 S
C590 C586 1.368 . S
C590 C589 1.523 . S
H591 C566 0.950 . S
H592 C568 0.950 . S
H593 C569 0.949 . S
H594 C571 0.950 . S
H595 C573 0.950 . S
C596 C597 1.349 . S
C596 C598 1.327 . S
C596 H621 0.950 . S
C597 C596 1.349 . S
C597 C613 1.349 . S
C598 C596 1.327 . S
C598 C617 1.429 . S
C598 H622 0.950 . S
C599 C616 1.574 . S
C599 C618 1.368 1_655 S
C599 H623 0.949 . S
H600 C604 0.949 . S
C601 C602 1.349 . S
C601 C603 1.327 . S
C601 H624 0.950 . S
C602 C601 1.349 . S
C602 C614 1.349 . S
C603 C601 1.327 . S
C603 C619 1.429 . S
C603 H625 0.950 . S
C604 H600 0.949 . S
C604 C612 1.574 . S
C604 C620 1.368 1_455 S
H605 C613 0.950 . S
H606 C611 0.950 1_655 S
H607 C612 0.949 . S
H608 C614 0.950 . S
H609 C615 0.950 1_455 S
H610 C616 0.949 . S
C611 H606 0.950 1_455 S
C611 C613 1.327 . S
C611 C617 1.429 . S
C612 C604 1.574 . S
C612 H607 0.949 . S
C612 C618 1.368 1_545 S
C613 C597 1.349 . S
C613 H605 0.950 . S
C613 C611 1.327 . S
C614 C602 1.349 . S
C614 H608 0.950 . S
C614 C615 1.327 . S
C615 H609 0.950 1_655 S
C615 C614 1.327 . S
C615 C619 1.429 . S
C616 C599 1.574 . S
C616 H610 0.949 . S
C616 C620 1.368 1_565 S
C617 C598 1.429 . S
C617 C611 1.429 . S
C617 C618 1.523 . S
C618 C599 1.368 1_455 S
C618 C612 1.368 1_565 S
C618 C617 1.523 . S
C619 C603 1.429 . S
C619 C615 1.429 . S
C619 C620 1.523 . S
C620 C604 1.368 1_655 S
C620 C616 1.368 1_545 S
C620 C619 1.523 . S
H621 C596 0.950 . S
H622 C598 0.950 . S
H623 C599 0.949 . S
H624 C601 0.950 . S
H625 C603 0.950 . S
C626 C627 1.349 . S
C626 C628 1.327 . S
C626 H651 0.950 . S
C627 C626 1.349 . S
C627 C643 1.349 . S
C628 C626 1.327 . S
C628 C647 1.429 . S
C628 H652 0.950 1_565 S
C629 C646 1.574 . S
C629 C648 1.368 . S
C629 H653 0.949 . S
H630 C634 0.949 . S
C631 C632 1.349 . S
C631 C633 1.327 . S
C631 H654 0.950 . S
C632 C631 1.349 . S
C632 C644 1.349 . S
C633 C631 1.327 . S
C633 C649 1.429 . S
C633 H655 0.950 1_545 S
C634 H630 0.949 . S
C634 C642 1.574 . S
C634 C650 1.368 . S
H635 C643 0.950 . S
H636 C641 0.950 . S
H637 C642 0.949 . S
H638 C644 0.950 . S
H639 C645 0.950 . S
H640 C646 0.949 . S
C641 H636 0.950 . S
C641 C643 1.327 . S
C641 C647 1.429 . S
C642 C634 1.574 . S
C642 H637 0.949 . S
C642 C648 1.368 1_545 S
C643 C627 1.349 . S
C643 H635 0.950 . S
C643 C641 1.327 . S
C644 C632 1.349 . S
C644 H638 0.950 . S
C644 C645 1.327 . S
C645 H639 0.950 . S
C645 C644 1.327 . S
C645 C649 1.429 . S
C646 C629 1.574 . S
C646 H640 0.949 . S
C646 C650 1.368 1_565 S
C647 C628 1.429 . S
C647 C641 1.429 . S
C647 C648 1.523 . S
C648 C629 1.368 . S
C648 C642 1.368 1_565 S
C648 C647 1.523 . S
C649 C633 1.429 . S
C649 C645 1.429 . S
C649 C650 1.523 . S
C650 C634 1.368 . S
C650 C646 1.368 1_545 S
C650 C649 1.523 . S
H651 C626 0.950 . S
H652 C628 0.950 1_545 S
H653 C629 0.949 . S
H654 C631 0.950 . S
H655 C633 0.950 1_565 S
C656 C657 1.349 . S
C656 C658 1.327 . S
C656 H681 0.950 . S
C657 C656 1.349 . S
C657 C673 1.349 . S
C658 C656 1.327 . S
C658 C677 1.429 . S
C658 H682 0.950 . S
C659 C676 1.574 . S
C659 C678 1.368 . S
C659 H683 0.949 . S
H660 C664 0.949 . S
C661 C662 1.349 . S
C661 C663 1.327 . S
C661 H684 0.950 . S
C662 C661 1.349 . S
C662 C674 1.349 . S
C663 C661 1.327 . S
C663 C679 1.429 . S
C663 H685 0.950 . S
C664 H660 0.949 . S
C664 C672 1.574 . S
C664 C680 1.368 . S
H665 C673 0.950 . S
H666 C671 0.950 . S
H667 C672 0.949 . S
H668 C674 0.950 . S
H669 C675 0.950 . S
H670 C676 0.949 . S
C671 H666 0.950 . S
C671 C673 1.327 . S
C671 C677 1.429 . S
C672 C664 1.574 . S
C672 H667 0.949 . S
C672 C678 1.368 . S
C673 C657 1.349 . S
C673 H665 0.950 . S
C673 C671 1.327 . S
C674 C662 1.349 . S
C674 H668 0.950 . S
C674 C675 1.327 . S
C675 H669 0.950 . S
C675 C674 1.327 . S
C675 C679 1.429 . S
C676 C659 1.574 . S
C676 H670 0.949 . S
C676 C680 1.368 . S
C677 C658 1.429 . S
C677 C671 1.429 . S
C677 C678 1.523 . S
C678 C659 1.368 . S
C678 C672 1.368 . S
C678 C677 1.523 . S
C679 C663 1.429 . S
C679 C675 1.429 . S
C679 C680 1.523 . S
C680 C664 1.368 . S
C680 C676 1.368 . S
C680 C679 1.523 . S
H681 C656 0.950 . S
H682 C658 0.950 . S
H683 C659 0.949 . S
H684 C661 0.950 . S
H685 C663 0.950 . S
C686 C687 1.349 . S
C686 C688 1.327 . S
C686 H711 0.950 . S
C687 C686 1.349 . S
C687 C703 1.349 . S
C688 C686 1.327 . S
C688 C707 1.429 . S
C688 H712 0.950 . S
C689 C706 1.574 . S
C689 C708 1.368 . S
C689 H713 0.949 . S
H690 C694 0.949 . S
C691 C692 1.349 . S
C691 C693 1.327 . S
C691 H714 0.950 . S
C692 C691 1.349 . S
C692 C704 1.349 . S
C693 C691 1.327 . S
C693 C709 1.429 . S
C693 H715 0.950 . S
C694 H690 0.949 . S
C694 C702 1.574 . S
C694 C710 1.368 . S
H695 C703 0.950 . S
H696 C701 0.950 . S
H697 C702 0.949 . S
H698 C704 0.950 . S
H699 C705 0.950 . S
H700 C706 0.949 . S
C701 H696 0.950 . S
C701 C703 1.327 . S
C701 C707 1.429 . S
C702 C694 1.574 . S
C702 H697 0.949 . S
C702 C708 1.368 . S
C703 C687 1.349 . S
C703 H695 0.950 . S
C703 C701 1.327 . S
C704 C692 1.349 . S
C704 H698 0.950 . S
C704 C705 1.327 . S
C705 H699 0.950 . S
C705 C704 1.327 . S
C705 C709 1.429 . S
C706 C689 1.574 . S
C706 H700 0.949 . S
C706 C710 1.368 . S
C707 C688 1.429 . S
C707 C701 1.429 . S
C707 C708 1.523 . S
C708 C689 1.368 . S
C708 C702 1.368 . S
C708 C707 1.523 . S
C709 C693 1.429 . S
C709 C705 1.429 . S
C709 C710 1.523 . S
C710 C694 1.368 . S
C710 C706 1.368 . S
C710 C709 1.523 . S
H711 C686 0.950 . S
H712 C688 0.950 . S
H713 C689 0.949 . S
H714 C691 0.950 . S
H715 C693 0.950 . S
C716 C717 1.349 . S
C716 C718 1.327 . S
C716 H741 0.950 . S
C717 C716 1.349 . S
C717 C733 1.349 . S
C718 C716 1.327 . S
C718 C737 1.429 . S
C718 H742 0.950 . S
C719 C736 1.574 . S
C719 C738 1.368 . S
C719 H743 0.949 . S
H720 C724 0.949 . S
C721 C722 1.349 . S
C721 C723 1.327 . S
C721 H744 0.950 . S
C722 C721 1.349 . S
C722 C734 1.349 . S
C723 C721 1.327 . S
C723 C739 1.429 . S
C723 H745 0.950 . S
C724 H720 0.949 . S
C724 C732 1.574 . S
C724 C740 1.368 . S
H725 C733 0.950 . S
H726 C731 0.950 . S
H727 C732 0.949 . S
H728 C734 0.950 . S
H729 C735 0.950 . S
H730 C736 0.949 . S
C731 H726 0.950 . S
C731 C733 1.327 . S
C731 C737 1.429 . S
C732 C724 1.574 . S
C732 H727 0.949 . S
C732 C738 1.368 . S
C733 C717 1.349 . S
C733 H725 0.950 . S
C733 C731 1.327 . S
C734 C722 1.349 . S
C734 H728 0.950 . S
C734 C735 1.327 . S
C735 H729 0.950 . S
C735 C734 1.327 . S
C735 C739 1.429 . S
C736 C719 1.574 . S
C736 H730 0.949 . S
C736 C740 1.368 . S
C737 C718 1.429 . S
C737 C731 1.429 . S
C737 C738 1.523 . S
C738 C719 1.368 . S
C738 C732 1.368 . S
C738 C737 1.523 . S
C739 C723 1.429 . S
C739 C735 1.429 . S
C739 C740 1.523 . S
C740 C724 1.368 . S
C740 C736 1.368 . S
C740 C739 1.523 . S
H741 C716 0.950 . S
H742 C718 0.950 . S
H743 C719 0.949 . S
H744 C721 0.950 . S
H745 C723 0.950 . S
C746 C747 1.349 . S
C746 C748 1.327 . S
C746 H771 0.950 . S
C747 C746 1.349 . S
C747 C763 1.349 . S
C748 C746 1.327 . S
C748 C767 1.429 . S
C748 H772 0.950 . S
C749 C766 1.574 . S
C749 C768 1.368 . S
C749 H773 0.949 . S
H750 C754 0.949 . S
C751 C752 1.349 . S
C751 C753 1.327 . S
C751 H774 0.950 . S
C752 C751 1.349 . S
C752 C764 1.349 . S
C753 C751 1.327 . S
C753 C769 1.429 . S
C753 H775 0.950 . S
C754 H750 0.949 . S
C754 C762 1.574 . S
C754 C770 1.368 . S
H755 C763 0.950 . S
H756 C761 0.950 . S
H757 C762 0.949 . S
H758 C764 0.950 . S
H759 C765 0.950 . S
H760 C766 0.949 . S
C761 H756 0.950 . S
C761 C763 1.327 . S
C761 C767 1.429 . S
C762 C754 1.574 . S
C762 H757 0.949 . S
C762 C768 1.368 . S
C763 C747 1.349 . S
C763 H755 0.950 . S
C763 C761 1.327 . S
C764 C752 1.349 . S
C764 H758 0.950 . S
C764 C765 1.327 . S
C765 H759 0.950 . S
C765 C764 1.327 . S
C765 C769 1.429 . S
C766 C749 1.574 . S
C766 H760 0.949 . S
C766 C770 1.368 . S
C767 C748 1.429 . S
C767 C761 1.429 . S
C767 C768 1.523 . S
C768 C749 1.368 . S
C768 C762 1.368 . S
C768 C767 1.523 . S
C769 C753 1.429 . S
C769 C765 1.429 . S
C769 C770 1.523 . S
C770 C754 1.368 . S
C770 C766 1.368 . S
C770 C769 1.523 . S
H771 C746 0.950 . S
H772 C748 0.950 . S
H773 C749 0.949 . S
H774 C751 0.950 . S
H775 C753 0.950 . S
C776 C777 1.349 . S
C776 C778 1.327 . S
C776 H801 0.950 . S
C777 C776 1.349 . S
C777 C793 1.349 . S
C778 C776 1.327 . S
C778 C797 1.429 . S
C778 H802 0.950 . S
C779 C796 1.574 . S
C779 C798 1.368 . S
C779 H803 0.949 . S
H780 C784 0.949 . S
C781 C782 1.349 . S
C781 C783 1.327 . S
C781 H804 0.950 . S
C782 C781 1.349 . S
C782 C794 1.349 . S
C783 C781 1.327 . S
C783 C799 1.429 . S
C783 H805 0.950 . S
C784 H780 0.949 . S
C784 C792 1.574 . S
C784 C800 1.368 . S
H785 C793 0.950 . S
H786 C791 0.950 . S
H787 C792 0.949 . S
H788 C794 0.950 . S
H789 C795 0.950 . S
H790 C796 0.949 . S
C791 H786 0.950 . S
C791 C793 1.327 . S
C791 C797 1.429 . S
C792 C784 1.574 . S
C792 H787 0.949 . S
C792 C798 1.368 . S
C793 C777 1.349 . S
C793 H785 0.950 . S
C793 C791 1.327 . S
C794 C782 1.349 . S
C794 H788 0.950 . S
C794 C795 1.327 . S
C795 H789 0.950 . S
C795 C794 1.327 . S
C795 C799 1.429 . S
C796 C779 1.574 . S
C796 H790 0.949 . S
C796 C800 1.368 . S
C797 C778 1.429 . S
C797 C791 1.429 . S
C797 C798 1.523 . S
C798 C779 1.368 . S
C798 C792 1.368 . S
C798 C797 1.523 . S
C799 C783 1.429 . S
C799 C795 1.429 . S
C799 C800 1.523 . S
C800 C784 1.368 . S
C800 C796 1.368 . S
C800 C799 1.523 . S
H801 C776 0.950 . S
H802 C778 0.950 . S
H803 C779 0.949 . S
H804 C781 0.950 . S
H805 C783 0.950 . S
C806 C807 1.349 . S
C806 C808 1.327 . S
C806 H831 0.950 . S
C807 C806 1.349 . S
C807 C823 1.349 . S
C808 C806 1.327 . S
C808 C827 1.429 . S
C808 H832 0.950 . S
C809 C826 1.574 . S
C809 C828 1.368 . S
C809 H833 0.949 . S
H810 C814 0.949 . S
C811 C812 1.349 . S
C811 C813 1.327 . S
C811 H834 0.950 . S
C812 C811 1.349 . S
C812 C824 1.349 . S
C813 C811 1.327 . S
C813 C829 1.429 . S
C813 H835 0.950 . S
C814 H810 0.949 . S
C814 C822 1.574 . S
C814 C830 1.368 . S
H815 C823 0.950 . S
H816 C821 0.950 . S
H817 C822 0.949 . S
H818 C824 0.950 . S
H819 C825 0.950 . S
H820 C826 0.949 . S
C821 H816 0.950 . S
C821 C823 1.327 . S
C821 C827 1.429 . S
C822 C814 1.574 . S
C822 H817 0.949 . S
C822 C828 1.368 . S
C823 C807 1.349 . S
C823 H815 0.950 . S
C823 C821 1.327 . S
C824 C812 1.349 . S
C824 H818 0.950 . S
C824 C825 1.327 . S
C825 H819 0.950 . S
C825 C824 1.327 . S
C825 C829 1.429 . S
C826 C809 1.574 . S
C826 H820 0.949 . S
C826 C830 1.368 . S
C827 C808 1.429 . S
C827 C821 1.429 . S
C827 C828 1.523 . S
C828 C809 1.368 . S
C828 C822 1.368 . S
C828 C827 1.523 . S
C829 C813 1.429 . S
C829 C825 1.429 . S
C829 C830 1.523 . S
C830 C814 1.368 . S
C830 C826 1.368 . S
C830 C829 1.523 . S
H831 C806 0.950 . S
H832 C808 0.950 . S
H833 C809 0.949 . S
H834 C811 0.950 . S
H835 C813 0.950 . S
C836 C837 1.349 . S
C836 C838 1.327 . S
C836 H861 0.950 . S
C837 C836 1.349 . S
C837 C853 1.349 . S
C838 C836 1.327 . S
C838 C857 1.429 . S
C838 H862 0.950 . S
C839 C856 1.574 . S
C839 C858 1.368 . S
C839 H863 0.949 . S
H840 C844 0.949 . S
C841 C842 1.349 . S
C841 C843 1.327 . S
C841 H864 0.950 . S
C842 C841 1.349 . S
C842 C854 1.349 . S
C843 C841 1.327 . S
C843 C859 1.429 . S
C843 H865 0.950 . S
C844 H840 0.949 . S
C844 C852 1.574 . S
C844 C860 1.368 . S
H845 C853 0.950 . S
H846 C851 0.950 . S
H847 C852 0.949 . S
H848 C854 0.950 . S
H849 C855 0.950 . S
H850 C856 0.949 . S
C851 H846 0.950 . S
C851 C853 1.327 . S
C851 C857 1.429 . S
C852 C844 1.574 . S
C852 H847 0.949 . S
C852 C858 1.368 . S
C853 C837 1.349 . S
C853 H845 0.950 . S
C853 C851 1.327 . S
C854 C842 1.349 . S
C854 H848 0.950 . S
C854 C855 1.327 . S
C855 H849 0.950 . S
C855 C854 1.327 . S
C855 C859 1.429 . S
C856 C839 1.574 . S
C856 H850 0.949 . S
C856 C860 1.368 . S
C857 C838 1.429 . S
C857 C851 1.429 . S
C857 C858 1.523 . S
C858 C839 1.368 . S
C858 C852 1.368 . S
C858 C857 1.523 . S
C859 C843 1.429 . S
C859 C855 1.429 . S
C859 C860 1.523 . S
C860 C844 1.368 . S
C860 C856 1.368 . S
C860 C859 1.523 . S
H861 C836 0.950 . S
H862 C838 0.950 . S
H863 C839 0.949 . S
H864 C841 0.950 . S
H865 C843 0.950 . S
C866 C867 1.349 . S
C866 C868 1.327 . S
C866 H891 0.950 . S
C867 C866 1.349 . S
C867 C883 1.349 . S
C868 C866 1.327 . S
C868 C887 1.429 . S
C868 H892 0.950 . S
C869 C886 1.574 . S
C869 C888 1.368 . S
C869 H893 0.949 . S
H870 C874 0.949 . S
C871 C872 1.349 . S
C871 C873 1.327 . S
C871 H894 0.950 . S
C872 C871 1.349 . S
C872 C884 1.349 . S
C873 C871 1.327 . S
C873 C889 1.429 . S
C873 H895 0.950 . S
C874 H870 0.949 . S
C874 C882 1.574 . S
C874 C890 1.368 . S
H875 C883 0.950 . S
H876 C881 0.950 . S
H877 C882 0.949 . S
H878 C884 0.950 . S
H879 C885 0.950 . S
H880 C886 0.949 . S
C881 H876 0.950 . S
C881 C883 1.327 . S
C881 C887 1.429 . S
C882 C874 1.574 . S
C882 H877 0.949 . S
C882 C888 1.368 . S
C883 C867 1.349 . S
C883 H875 0.950 . S
C883 C881 1.327 . S
C884 C872 1.349 . S
C884 H878 0.950 . S
C884 C885 1.327 . S
C885 H879 0.950 . S
C885 C884 1.327 . S
C885 C889 1.429 . S
C886 C869 1.574 . S
C886 H880 0.949 . S
C886 C890 1.368 . S
C887 C868 1.429 . S
C887 C881 1.429 . S
C887 C888 1.523 . S
C888 C869 1.368 . S
C888 C882 1.368 . S
C888 C887 1.523 . S
C889 C873 1.429 . S
C889 C885 1.429 . S
C889 C890 1.523 . S
C890 C874 1.368 . S
C890 C886 1.368 . S
C890 C889 1.523 . S
H891 C866 0.950 . S
H892 C868 0.950 . S
H893 C869 0.949 . S
H894 C871 0.950 . S
H895 C873 0.950 . S
C177 C7 0.867 . S
C182 C84 0.867 . S
C207 C18 0.867 . S
C212 C51 0.867 . S
C237 C29 0.867 . S
C242 C62 0.867 . S
C267 C73 0.867 . S
C272 C40 0.867 . S
C297 C172 0.900 . S
C302 C95 0.900 . S
C327 C139 0.900 . S
C332 C106 0.900 . S
C357 C117 0.900 . S
C362 C150 0.900 . S
C387 C128 0.900 . S
C392 C161 0.900 . S
C417 C93 1.997 . S
C422 C5 1.576 . S
C447 C104 1.997 . S
C452 C16 1.576 . S
C477 C27 1.576 . S
C482 C115 1.997 . S
C507 C126 1.997 . S
C512 C38 1.576 . S
C537 C137 1.997 . S
C542 C49 1.576 . S
C567 C148 1.997 . S
C572 C60 1.576 . S
C597 C159 1.997 . S
C602 C71 1.576 . S
C627 C82 1.576 . S
C632 C170 1.997 . S
C657 C74 1.929 . S
C662 C8 1.929 . S
C687 C85 1.929 . S
C692 C19 1.929 . S
C717 C30 1.929 . S
C722 C52 1.929 . S
C747 C41 1.929 . S
C752 C63 1.929 . S
C777 C162 1.984 . S
C782 C96 1.984 . S
C807 C173 1.984 . S
C812 C107 1.984 . S
C837 C118 1.984 . S
C842 C140 1.984 . S
C867 C129 1.984 . S
C872 C151 1.984 . S
