# Generated by pormake.
# Topology sog, (5)-cn, num edge types: 1
# Building blocks:
#     Node 0, Type 0, BuildingBlock: XOMCOT_clean_sbu_0, # of connection points: 5
#     Node 1, Type 0, BuildingBlock: XOMCOT_clean_sbu_0, # of connection points: 5
#     Node 2, Type 0, BuildingBlock: XOMCOT_clean_sbu_0, # of connection points: 5
#     Node 3, Type 0, BuildingBlock: XOMCOT_clean_sbu_0, # of connection points: 5
#     Node 4, Type 0, BuildingBlock: XOMCOT_clean_sbu_0, # of connection points: 5
#     Node 5, Type 0, BuildingBlock: XOMCOT_clean_sbu_0, # of connection points: 5
#     Node 6, Type 0, BuildingBlock: XOMCOT_clean_sbu_0, # of connection points: 5
#     Node 7, Type 0, BuildingBlock: XOMCOT_clean_sbu_0, # of connection points: 5
#     Node 8, Type 0, BuildingBlock: XOMCOT_clean_sbu_0, # of connection points: 5
#     Node 9, Type 0, BuildingBlock: XOMCOT_clean_sbu_0, # of connection points: 5
#     Node 10, Type 0, BuildingBlock: XOMCOT_clean_sbu_0, # of connection points: 5
#     Node 11, Type 0, BuildingBlock: XOMCOT_clean_sbu_0, # of connection points: 5
#     Node 12, Type 0, BuildingBlock: XOMCOT_clean_sbu_0, # of connection points: 5
#     Node 13, Type 0, BuildingBlock: XOMCOT_clean_sbu_0, # of connection points: 5
#     Node 14, Type 0, BuildingBlock: XOMCOT_clean_sbu_0, # of connection points: 5
#     Node 15, Type 0, BuildingBlock: XOMCOT_clean_sbu_0, # of connection points: 5
#     Node 16, Type 0, BuildingBlock: XOMCOT_clean_sbu_0, # of connection points: 5
#     Node 17, Type 0, BuildingBlock: XOMCOT_clean_sbu_0, # of connection points: 5
#     Node 18, Type 0, BuildingBlock: XOMCOT_clean_sbu_0, # of connection points: 5
#     Node 19, Type 0, BuildingBlock: XOMCOT_clean_sbu_0, # of connection points: 5
#     Node 20, Type 0, BuildingBlock: XOMCOT_clean_sbu_0, # of connection points: 5
#     Node 21, Type 0, BuildingBlock: XOMCOT_clean_sbu_0, # of connection points: 5
#     Node 22, Type 0, BuildingBlock: XOMCOT_clean_sbu_0, # of connection points: 5
#     Node 23, Type 0, BuildingBlock: XOMCOT_clean_sbu_0, # of connection points: 5
#     Node 24, Type 0, BuildingBlock: XOMCOT_clean_sbu_0, # of connection points: 5
#     Node 25, Type 0, BuildingBlock: XOMCOT_clean_sbu_0, # of connection points: 5
#     Node 26, Type 0, BuildingBlock: XOMCOT_clean_sbu_0, # of connection points: 5
#     Node 27, Type 0, BuildingBlock: XOMCOT_clean_sbu_0, # of connection points: 5
#     Node 28, Type 0, BuildingBlock: XOMCOT_clean_sbu_0, # of connection points: 5
#     Node 29, Type 0, BuildingBlock: XOMCOT_clean_sbu_0, # of connection points: 5
#     Node 30, Type 0, BuildingBlock: XOMCOT_clean_sbu_0, # of connection points: 5
#     Node 31, Type 0, BuildingBlock: XOMCOT_clean_sbu_0, # of connection points: 5
#     Edge 32, Type (0, 0), BuildingBlock: ZUJKAS_clean_linker_0, # of connection points: 2
#     Edge 33, Type (0, 0), BuildingBlock: ZUJKAS_clean_linker_0, # of connection points: 2
#     Edge 34, Type (0, 0), BuildingBlock: ZUJKAS_clean_linker_0, # of connection points: 2
#     Edge 35, Type (0, 0), BuildingBlock: ZUJKAS_clean_linker_0, # of connection points: 2
#     Edge 36, Type (0, 0), BuildingBlock: ZUJKAS_clean_linker_0, # of connection points: 2
#     Edge 37, Type (0, 0), BuildingBlock: ZUJKAS_clean_linker_0, # of connection points: 2
#     Edge 38, Type (0, 0), BuildingBlock: ZUJKAS_clean_linker_0, # of connection points: 2
#     Edge 39, Type (0, 0), BuildingBlock: ZUJKAS_clean_linker_0, # of connection points: 2
#     Edge 40, Type (0, 0), BuildingBlock: ZUJKAS_clean_linker_0, # of connection points: 2
#     Edge 41, Type (0, 0), BuildingBlock: ZUJKAS_clean_linker_0, # of connection points: 2
#     Edge 42, Type (0, 0), BuildingBlock: ZUJKAS_clean_linker_0, # of connection points: 2
#     Edge 43, Type (0, 0), BuildingBlock: ZUJKAS_clean_linker_0, # of connection points: 2
#     Edge 44, Type (0, 0), BuildingBlock: ZUJKAS_clean_linker_0, # of connection points: 2
#     Edge 45, Type (0, 0), BuildingBlock: ZUJKAS_clean_linker_0, # of connection points: 2
#     Edge 46, Type (0, 0), BuildingBlock: ZUJKAS_clean_linker_0, # of connection points: 2
#     Edge 47, Type (0, 0), BuildingBlock: ZUJKAS_clean_linker_0, # of connection points: 2
#     Edge 48, Type (0, 0), BuildingBlock: ZUJKAS_clean_linker_0, # of connection points: 2
#     Edge 49, Type (0, 0), BuildingBlock: ZUJKAS_clean_linker_0, # of connection points: 2
#     Edge 50, Type (0, 0), BuildingBlock: ZUJKAS_clean_linker_0, # of connection points: 2
#     Edge 51, Type (0, 0), BuildingBlock: ZUJKAS_clean_linker_0, # of connection points: 2
#     Edge 52, Type (0, 0), BuildingBlock: ZUJKAS_clean_linker_0, # of connection points: 2
#     Edge 53, Type (0, 0), BuildingBlock: ZUJKAS_clean_linker_0, # of connection points: 2
#     Edge 54, Type (0, 0), BuildingBlock: ZUJKAS_clean_linker_0, # of connection points: 2
#     Edge 55, Type (0, 0), BuildingBlock: ZUJKAS_clean_linker_0, # of connection points: 2
#     Edge 56, Type (0, 0), BuildingBlock: ZUJKAS_clean_linker_0, # of connection points: 2
#     Edge 57, Type (0, 0), BuildingBlock: ZUJKAS_clean_linker_0, # of connection points: 2
#     Edge 58, Type (0, 0), BuildingBlock: ZUJKAS_clean_linker_0, # of connection points: 2
#     Edge 59, Type (0, 0), BuildingBlock: ZUJKAS_clean_linker_0, # of connection points: 2
#     Edge 60, Type (0, 0), BuildingBlock: ZUJKAS_clean_linker_0, # of connection points: 2
#     Edge 61, Type (0, 0), BuildingBlock: ZUJKAS_clean_linker_0, # of connection points: 2
#     Edge 62, Type (0, 0), BuildingBlock: ZUJKAS_clean_linker_0, # of connection points: 2
#     Edge 63, Type (0, 0), BuildingBlock: ZUJKAS_clean_linker_0, # of connection points: 2
#     Edge 64, Type (0, 0), BuildingBlock: ZUJKAS_clean_linker_0, # of connection points: 2
#     Edge 65, Type (0, 0), BuildingBlock: ZUJKAS_clean_linker_0, # of connection points: 2
#     Edge 66, Type (0, 0), BuildingBlock: ZUJKAS_clean_linker_0, # of connection points: 2
#     Edge 67, Type (0, 0), BuildingBlock: ZUJKAS_clean_linker_0, # of connection points: 2
#     Edge 68, Type (0, 0), BuildingBlock: ZUJKAS_clean_linker_0, # of connection points: 2
#     Edge 69, Type (0, 0), BuildingBlock: ZUJKAS_clean_linker_0, # of connection points: 2
#     Edge 70, Type (0, 0), BuildingBlock: ZUJKAS_clean_linker_0, # of connection points: 2
#     Edge 71, Type (0, 0), BuildingBlock: ZUJKAS_clean_linker_0, # of connection points: 2
#     Edge 72, Type (0, 0), BuildingBlock: ZUJKAS_clean_linker_0, # of connection points: 2
#     Edge 73, Type (0, 0), BuildingBlock: ZUJKAS_clean_linker_0, # of connection points: 2
#     Edge 74, Type (0, 0), BuildingBlock: ZUJKAS_clean_linker_0, # of connection points: 2
#     Edge 75, Type (0, 0), BuildingBlock: ZUJKAS_clean_linker_0, # of connection points: 2
#     Edge 76, Type (0, 0), BuildingBlock: ZUJKAS_clean_linker_0, # of connection points: 2
#     Edge 77, Type (0, 0), BuildingBlock: ZUJKAS_clean_linker_0, # of connection points: 2
#     Edge 78, Type (0, 0), BuildingBlock: ZUJKAS_clean_linker_0, # of connection points: 2
#     Edge 79, Type (0, 0), BuildingBlock: ZUJKAS_clean_linker_0, # of connection points: 2
#     Edge 80, Type (0, 0), BuildingBlock: ZUJKAS_clean_linker_0, # of connection points: 2
#     Edge 81, Type (0, 0), BuildingBlock: ZUJKAS_clean_linker_0, # of connection points: 2
#     Edge 82, Type (0, 0), BuildingBlock: ZUJKAS_clean_linker_0, # of connection points: 2
#     Edge 83, Type (0, 0), BuildingBlock: ZUJKAS_clean_linker_0, # of connection points: 2
#     Edge 84, Type (0, 0), BuildingBlock: ZUJKAS_clean_linker_0, # of connection points: 2
#     Edge 85, Type (0, 0), BuildingBlock: ZUJKAS_clean_linker_0, # of connection points: 2
#     Edge 86, Type (0, 0), BuildingBlock: ZUJKAS_clean_linker_0, # of connection points: 2
#     Edge 87, Type (0, 0), BuildingBlock: ZUJKAS_clean_linker_0, # of connection points: 2
#     Edge 88, Type (0, 0), BuildingBlock: ZUJKAS_clean_linker_0, # of connection points: 2
#     Edge 89, Type (0, 0), BuildingBlock: ZUJKAS_clean_linker_0, # of connection points: 2
#     Edge 90, Type (0, 0), BuildingBlock: ZUJKAS_clean_linker_0, # of connection points: 2
#     Edge 91, Type (0, 0), BuildingBlock: ZUJKAS_clean_linker_0, # of connection points: 2
#     Edge 92, Type (0, 0), BuildingBlock: ZUJKAS_clean_linker_0, # of connection points: 2
#     Edge 93, Type (0, 0), BuildingBlock: ZUJKAS_clean_linker_0, # of connection points: 2
#     Edge 94, Type (0, 0), BuildingBlock: ZUJKAS_clean_linker_0, # of connection points: 2
#     Edge 95, Type (0, 0), BuildingBlock: ZUJKAS_clean_linker_0, # of connection points: 2
#     Edge 96, Type (0, 0), BuildingBlock: ZUJKAS_clean_linker_0, # of connection points: 2
#     Edge 97, Type (0, 0), BuildingBlock: ZUJKAS_clean_linker_0, # of connection points: 2
#     Edge 98, Type (0, 0), BuildingBlock: ZUJKAS_clean_linker_0, # of connection points: 2
#     Edge 99, Type (0, 0), BuildingBlock: ZUJKAS_clean_linker_0, # of connection points: 2
#     Edge 100, Type (0, 0), BuildingBlock: ZUJKAS_clean_linker_0, # of connection points: 2
#     Edge 101, Type (0, 0), BuildingBlock: ZUJKAS_clean_linker_0, # of connection points: 2
#     Edge 102, Type (0, 0), BuildingBlock: ZUJKAS_clean_linker_0, # of connection points: 2
#     Edge 103, Type (0, 0), BuildingBlock: ZUJKAS_clean_linker_0, # of connection points: 2
#     Edge 104, Type (0, 0), BuildingBlock: ZUJKAS_clean_linker_0, # of connection points: 2
#     Edge 105, Type (0, 0), BuildingBlock: ZUJKAS_clean_linker_0, # of connection points: 2
#     Edge 106, Type (0, 0), BuildingBlock: ZUJKAS_clean_linker_0, # of connection points: 2
#     Edge 107, Type (0, 0), BuildingBlock: ZUJKAS_clean_linker_0, # of connection points: 2
#     Edge 108, Type (0, 0), BuildingBlock: ZUJKAS_clean_linker_0, # of connection points: 2
#     Edge 109, Type (0, 0), BuildingBlock: ZUJKAS_clean_linker_0, # of connection points: 2
#     Edge 110, Type (0, 0), BuildingBlock: ZUJKAS_clean_linker_0, # of connection points: 2
#     Edge 111, Type (0, 0), BuildingBlock: ZUJKAS_clean_linker_0, # of connection points: 2
# Relax obj value: 0.165
# Max RMSD: 0.186
# Mean RMSD: 0.186
data_MOF--net-sog--node1-XOMCOT_clean_sbu_0--edge1-ZUJKAS_clean_linker_0
_symmetry_space_group_name_H-M    P1
_symmetry_Int_Tables_number       1
_symmetry_cell_setting            triclinic
loop_
_symmetry_equiv_pos_as_xyz
'x, y, z'
_cell_length_a     108.51895
_cell_length_b     21.844101
_cell_length_c     149.89238
_cell_angle_alpha  90.002447
_cell_angle_beta   89.992587
_cell_angle_gamma 90.011188
loop_
_atom_site_label
_atom_site_type_symbol
_atom_site_fract_x
_atom_site_fract_y
_atom_site_fract_z
_atom_type_partial_charge
Co0 Co 0.45844 0.18734 0.04369 0.0
C1 C 0.45479 0.05435 0.04428 0.0
C2 C 0.43903 0.09971 0.03869 0.0
C3 C 0.43718 0.03738 0.03821 0.0
N4 N 0.45006 0.11002 0.04251 0.0
N5 N 0.44714 0.00902 0.04167 0.0
H6 H 0.46379 0.04733 0.04721 0.0
H7 H 0.43301 0.13481 0.03608 0.0
C8 C 0.4388 0.27225 0.05016 0.0
O9 O 0.44667 0.29299 0.05611 0.0
N10 N 0.46691 0.26563 0.04453 0.0
C11 C 0.47823 0.2785 0.04776 0.0
C12 C 0.48043 0.34024 0.04683 0.0
C13 C 0.46273 0.31928 0.04124 0.0
N14 N 0.47059 0.3659 0.04281 0.0
C15 C 0.47051 0.16349 0.06041 0.0
C16 C 0.44934 0.15493 0.07056 0.0
C17 C 0.4608 0.15028 0.07482 0.0
C18 C 0.47148 0.15301 0.06956 0.0
C19 C 0.44882 0.16455 0.06137 0.0
N20 N 0.45933 0.17331 0.05651 0.0
H21 H 0.47877 0.16159 0.05645 0.0
H22 H 0.43991 0.16461 0.05818 0.0
H23 H 0.48469 0.24599 0.05044 0.0
H24 H 0.45406 0.32414 0.03776 0.0
O25 O 0.47362 0.14863 0.04023 0.0
O26 O 0.46018 0.1906 0.03089 0.0
O27 O 0.442 0.22993 0.04474 0.0
C28 C 0.47043 0.16053 0.03205 0.0
H29 H 0.42938 0.01477 0.03514 0.0
H30 H 0.48854 0.36444 0.04911 0.0
H31 H 0.4408 0.15168 0.07426 0.0
H32 H 0.48051 0.14594 0.07245 0.0
Co33 Co 0.79064 0.05077 0.0442 0.0
C34 C 0.79398 0.18593 0.04406 0.0
C35 C 0.8102 0.13899 0.03975 0.0
C36 C 0.81199 0.2007 0.03854 0.0
N37 N 0.79904 0.1295 0.04352 0.0
N38 N 0.80173 0.23006 0.04121 0.0
H39 H 0.78452 0.19463 0.04585 0.0
H40 H 0.8163 0.10347 0.03738 0.0
C41 C 0.81572 0.02238 0.05092 0.0
O42 O 0.8144 0.06907 0.05638 0.0
N43 N 0.78235 0.97295 0.04443 0.0
C44 C 0.77105 0.96104 0.04769 0.0
C45 C 0.7689 0.89909 0.04699 0.0
C46 C 0.7869 0.91876 0.04173 0.0
N47 N 0.7789 0.8726 0.04327 0.0
C48 C 0.78228 0.10399 0.06069 0.0
C49 C 0.79088 0.01192 0.07168 0.0
C50 C 0.78531 0.06342 0.07554 0.0
C51 C 0.78076 0.10927 0.06989 0.0
C52 C 0.79223 0.00864 0.06244 0.0
N53 N 0.78856 0.05597 0.05709 0.0
H54 H 0.77813 0.13805 0.0565 0.0
H55 H 0.7963 0.968 0.05958 0.0
H56 H 0.76496 0.9948 0.0506 0.0
H57 H 0.79592 0.91328 0.03877 0.0
O58 O 0.77553 0.08941 0.04065 0.0
O59 O 0.7896 0.05205 0.03136 0.0
O60 O 0.80704 0.00811 0.04554 0.0
C61 C 0.77921 0.08106 0.03249 0.0
H62 H 0.81986 0.22188 0.03535 0.0
H63 H 0.76079 0.8752 0.04936 0.0
H64 H 0.7941 0.97425 0.07576 0.0
H65 H 0.77618 0.14938 0.07254 0.0
Co66 Co 0.45779 0.06032 0.20155 0.0
C67 C 0.45377 0.19356 0.20112 0.0
C68 C 0.43817 0.14646 0.20664 0.0
C69 C 0.43609 0.20855 0.20718 0.0
N70 N 0.44925 0.13731 0.20283 0.0
N71 N 0.44594 0.23815 0.20375 0.0
H72 H 0.46287 0.20152 0.1984 0.0
H73 H 0.43221 0.11072 0.20914 0.0
C74 C 0.43808 0.97596 0.19494 0.0
O75 O 0.44582 0.95645 0.18882 0.0
N76 N 0.46643 0.98231 0.20061 0.0
C77 C 0.47807 0.9715 0.19785 0.0
C78 C 0.48046 0.90979 0.19847 0.0
C79 C 0.46225 0.92723 0.2034 0.0
N80 N 0.47045 0.88188 0.20189 0.0
C81 C 0.4698 0.08343 0.1848 0.0
C82 C 0.44862 0.09389 0.17472 0.0
C83 C 0.46008 0.09718 0.17042 0.0
C84 C 0.47076 0.09364 0.17565 0.0
C85 C 0.44811 0.08451 0.18392 0.0
N86 N 0.45861 0.0748 0.18875 0.0
H87 H 0.47808 0.08448 0.18873 0.0
H88 H 0.43921 0.08496 0.18714 0.0
H89 H 0.48466 0.00558 0.19581 0.0
H90 H 0.45329 0.92024 0.20637 0.0
O91 O 0.4729 0.09969 0.20497 0.0
O92 O 0.45964 0.05667 0.21435 0.0
O93 O 0.4414 0.01712 0.20051 0.0
C94 C 0.46983 0.08719 0.21315 0.0
H95 H 0.42802 0.23005 0.21004 0.0
H96 H 0.489 0.88742 0.19666 0.0
H97 H 0.44007 0.0978 0.17103 0.0
H98 H 0.47981 0.09974 0.17274 0.0
Co99 Co 0.79282 0.19006 0.20111 0.0
C100 C 0.79646 0.05469 0.20124 0.0
C101 C 0.81213 0.10269 0.20631 0.0
C102 C 0.81411 0.04098 0.20739 0.0
N103 N 0.80121 0.11153 0.20218 0.0
N104 N 0.80422 0.01088 0.2042 0.0
H105 H 0.78711 0.04525 0.19927 0.0
H106 H 0.81801 0.13867 0.20884 0.0
C107 C 0.81802 0.21548 0.19437 0.0
O108 O 0.8167 0.16673 0.18931 0.0
N109 N 0.78453 0.26781 0.20044 0.0
C110 C 0.77321 0.27834 0.19712 0.0
C111 C 0.77093 0.34028 0.19748 0.0
C112 C 0.78898 0.32293 0.20285 0.0
N113 N 0.78087 0.36823 0.20107 0.0
C114 C 0.78384 0.13447 0.18496 0.0
C115 C 0.79325 0.22117 0.17341 0.0
C116 C 0.78715 0.17007 0.16988 0.0
C117 C 0.78219 0.12702 0.17581 0.0
C118 C 0.79471 0.22666 0.18262 0.0
N119 N 0.79069 0.18166 0.18826 0.0
H120 H 0.77929 0.10302 0.18937 0.0
H121 H 0.79909 0.26733 0.18523 0.0
H122 H 0.76713 0.2435 0.19448 0.0
H123 H 0.79809 0.32986 0.2056 0.0
O124 O 0.77773 0.15233 0.20491 0.0
O125 O 0.79181 0.19211 0.21397 0.0
O126 O 0.80926 0.23225 0.19953 0.0
C127 C 0.78139 0.16306 0.21302 0.0
H128 H 0.82203 0.02014 0.21055 0.0
H129 H 0.76262 0.36291 0.19525 0.0
H130 H 0.79675 0.25699 0.16911 0.0
H131 H 0.77713 0.08754 0.17342 0.0
Co132 Co 0.54156 0.80218 0.95041 0.0
C133 C 0.54494 0.93744 0.9508 0.0
C134 C 0.56043 0.88971 0.95621 0.0
C135 C 0.56225 0.95136 0.95745 0.0
N136 N 0.54975 0.88082 0.95176 0.0
N137 N 0.55245 0.9812 0.95409 0.0
H138 H 0.53582 0.9467 0.94833 0.0
H139 H 0.56618 0.85373 0.95889 0.0
C140 C 0.56706 0.77897 0.94417 0.0
O141 O 0.56577 0.82798 0.93917 0.0
N142 N 0.53348 0.72422 0.94951 0.0
C143 C 0.52239 0.71255 0.94585 0.0
C144 C 0.52033 0.65038 0.94621 0.0
C145 C 0.53798 0.66974 0.95209 0.0
N146 N 0.53018 0.62362 0.9501 0.0
C147 C 0.53303 0.8577 0.9341 0.0
C148 C 0.54326 0.77211 0.92273 0.0
C149 C 0.53715 0.82278 0.91909 0.0
C150 C 0.53176 0.86519 0.92491 0.0
C151 C 0.54431 0.76648 0.93197 0.0
N152 N 0.5399 0.81102 0.93753 0.0
H153 H 0.52813 0.8884 0.93842 0.0
H154 H 0.54873 0.72616 0.93464 0.0
H155 H 0.51639 0.74668 0.94295 0.0
H156 H 0.54683 0.6641 0.95532 0.0
O157 O 0.52624 0.83893 0.95397 0.0
O158 O 0.54008 0.79934 0.96323 0.0
O159 O 0.55814 0.76103 0.94912 0.0
C160 C 0.52964 0.82789 0.96213 0.0
H161 H 0.5698 0.97228 0.96106 0.0
H162 H 0.5124 0.62664 0.94353 0.0
H163 H 0.54736 0.73746 0.9185 0.0
H164 H 0.52639 0.90325 0.92239 0.0
Co165 Co 0.20828 0.92629 0.95094 0.0
C166 C 0.20481 0.79127 0.95061 0.0
C167 C 0.18896 0.83783 0.95568 0.0
C168 C 0.18712 0.77593 0.95663 0.0
N169 N 0.19991 0.84768 0.95163 0.0
N170 N 0.19714 0.74682 0.95349 0.0
H171 H 0.2141 0.78263 0.94843 0.0
H172 H 0.18305 0.87318 0.95835 0.0
C173 C 0.18301 0.95402 0.94447 0.0
O174 O 0.18415 0.90692 0.93907 0.0
N175 N 0.21657 0.00406 0.95063 0.0
C176 C 0.22795 0.01534 0.94746 0.0
C177 C 0.23014 0.0773 0.94802 0.0
C178 C 0.212 0.05868 0.95312 0.0
N179 N 0.22008 0.10441 0.95155 0.0
C180 C 0.2174 0.87526 0.93454 0.0
C181 C 0.2078 0.96422 0.92344 0.0
C182 C 0.21421 0.91489 0.91966 0.0
C183 C 0.21927 0.87079 0.92537 0.0
C184 C 0.20624 0.96709 0.93266 0.0
N185 N 0.21036 0.92097 0.93806 0.0
H186 H 0.22201 0.84306 0.93879 0.0
H187 H 0.20169 0.00666 0.93546 0.0
H188 H 0.23407 0.98112 0.94471 0.0
H189 H 0.20291 0.06482 0.95595 0.0
O190 O 0.22341 0.88783 0.95451 0.0
O191 O 0.20936 0.92542 0.96379 0.0
O192 O 0.19186 0.96879 0.94967 0.0
C193 C 0.2198 0.8969 0.96267 0.0
H194 H 0.1794 0.75431 0.95996 0.0
H195 H 0.23833 0.10074 0.94571 0.0
H196 H 0.20391 7e-05 0.91932 0.0
H197 H 0.22486 0.83368 0.92279 0.0
Co198 Co 0.54118 0.94265 0.793 0.0
C199 C 0.54486 0.80969 0.79353 0.0
C200 C 0.56053 0.85526 0.78783 0.0
C201 C 0.56241 0.79298 0.78734 0.0
N202 N 0.54954 0.86539 0.79173 0.0
N203 N 0.5525 0.76451 0.79087 0.0
H204 H 0.53589 0.80253 0.79651 0.0
H205 H 0.5665 0.89044 0.78518 0.0
C206 C 0.56114 0.02439 0.79983 0.0
O207 O 0.55344 0.04393 0.80597 0.0
N208 N 0.5327 0.02098 0.7939 0.0
C209 C 0.52084 0.03226 0.79607 0.0
C210 C 0.51861 0.09407 0.79533 0.0
C211 C 0.53721 0.07579 0.79131 0.0
N212 N 0.52898 0.12144 0.79242 0.0
C213 C 0.52918 0.9242 0.80992 0.0
C214 C 0.55042 0.90411 0.81964 0.0
C215 C 0.53907 0.90462 0.82409 0.0
C216 C 0.52833 0.91362 0.81908 0.0
C217 C 0.55083 0.91481 0.81047 0.0
N218 N 0.54035 0.92842 0.80581 0.0
H219 H 0.5208 0.9268 0.80614 0.0
H220 H 0.55962 0.91207 0.80712 0.0
H221 H 0.51399 -0.00164 0.79771 0.0
H222 H 0.54627 0.08212 0.78847 0.0
O223 O 0.52599 0.90393 0.78958 0.0
O224 O 0.53937 0.94629 0.78021 0.0
O225 O 0.55767 0.98466 0.79409 0.0
C226 C 0.52914 0.91607 0.78139 0.0
H227 H 0.57018 0.77045 0.78422 0.0
H228 H 0.51003 0.11694 0.79687 0.0
H229 H 0.55895 0.89608 0.8232 0.0
H230 H 0.51932 0.91115 0.82216 0.0
Co231 Co 0.20936 0.80447 0.79373 0.0
C232 C 0.20613 0.93978 0.79327 0.0
C233 C 0.1909 0.89234 0.78741 0.0
C234 C 0.18914 0.95409 0.78621 0.0
N235 N 0.20139 0.88327 0.79209 0.0
N236 N 0.19877 0.98368 0.78986 0.0
H237 H 0.21506 0.949 0.79608 0.0
H238 H 0.18523 0.85637 0.78464 0.0
C239 C 0.18379 0.78541 0.80011 0.0
O240 O 0.18525 0.83577 0.8048 0.0
N241 N 0.21721 0.7263 0.79496 0.0
C242 C 0.22826 0.71478 0.79867 0.0
C243 C 0.23034 0.65265 0.79835 0.0
C244 C 0.21272 0.67177 0.79238 0.0
N245 N 0.22054 0.62578 0.79441 0.0
C246 C 0.219 0.8611 0.80957 0.0
C247 C 0.2078 0.78316 0.8216 0.0
C248 C 0.21477 0.83243 0.82485 0.0
C249 C 0.22067 0.87073 0.81869 0.0
C250 C 0.20647 0.77502 0.81243 0.0
N251 N 0.21132 0.81629 0.80653 0.0
H252 H 0.22428 0.88846 0.805 0.0
H253 H 0.20153 0.73526 0.81008 0.0
H254 H 0.23429 0.74906 0.80152 0.0
H255 H 0.20395 0.66607 0.78906 0.0
O256 O 0.22471 0.83918 0.78985 0.0
O257 O 0.21061 0.79857 0.7809 0.0
O258 O 0.19265 0.76497 0.79534 0.0
C259 C 0.22115 0.82652 0.78178 0.0
H260 H 0.18174 0.97531 0.78249 0.0
H261 H 0.2383 0.62905 0.80101 0.0
H262 H 0.2033 0.7514 0.82609 0.0
H263 H 0.22673 0.90715 0.82087 0.0
Co264 Co 0.45934 0.70132 0.54406 0.0
C265 C 0.45598 0.56833 0.54336 0.0
C266 C 0.441 0.61483 0.5369 0.0
C267 C 0.4393 0.55259 0.53597 0.0
N268 N 0.45143 0.6243 0.54156 0.0
N269 N 0.44879 0.5236 0.53998 0.0
H270 H 0.46449 0.5607 0.54695 0.0
H271 H 0.43525 0.65053 0.53414 0.0
C272 C 0.43865 0.78038 0.55019 0.0
O273 O 0.44552 0.79622 0.55704 0.0
N274 N 0.46735 0.77953 0.54623 0.0
C275 C 0.47842 0.79156 0.54995 0.0
C276 C 0.48059 0.8536 0.54954 0.0
C277 C 0.46331 0.83415 0.5432 0.0
N278 N 0.47101 0.88033 0.54535 0.0
C279 C 0.4692 0.67228 0.56137 0.0
C280 C 0.44677 0.65462 0.56971 0.0
C281 C 0.45759 0.65074 0.57474 0.0
C282 C 0.46893 0.65782 0.57043 0.0
C283 C 0.44749 0.66789 0.56063 0.0
N284 N 0.45855 0.68135 0.55671 0.0
H285 H 0.47799 0.67436 0.55808 0.0
H286 H 0.4391 0.66749 0.55676 0.0
H287 H 0.48481 0.7582 0.5525 0.0
H288 H 0.45499 0.83986 0.53932 0.0
O289 O 0.47503 0.66499 0.54135 0.0
O290 O 0.4628 0.71047 0.5315 0.0
O291 O 0.44271 0.74278 0.54436 0.0
C292 C 0.47292 0.68037 0.53311 0.0
H293 H 0.43194 0.53053 0.53231 0.0
H294 H 0.48859 0.87707 0.55215 0.0
H295 H 0.43785 0.6466 0.57275 0.0
H296 H 0.47751 0.65281 0.57405 0.0
Co297 Co 0.79214 0.56032 0.5438 0.0
C298 C 0.79557 0.69552 0.54335 0.0
C299 C 0.81072 0.64781 0.53745 0.0
C300 C 0.81249 0.70953 0.53619 0.0
N301 N 0.80029 0.63888 0.5422 0.0
N302 N 0.8029 0.73935 0.53987 0.0
H303 H 0.78662 0.7048 0.54611 0.0
H304 H 0.81632 0.6118 0.53461 0.0
C305 C 0.81792 0.53721 0.54947 0.0
O306 O 0.81708 0.58738 0.55427 0.0
N307 N 0.78406 0.48246 0.54497 0.0
C308 C 0.77309 0.47133 0.54883 0.0
C309 C 0.77096 0.4092 0.54861 0.0
C310 C 0.78845 0.42763 0.54242 0.0
N311 N 0.78065 0.38187 0.54461 0.0
C312 C 0.78389 0.6161 0.56014 0.0
C313 C 0.79459 0.5318 0.57148 0.0
C314 C 0.78824 0.58166 0.57515 0.0
C315 C 0.78267 0.6236 0.56934 0.0
C316 C 0.79562 0.5263 0.56224 0.0
N317 N 0.79091 0.5701 0.55669 0.0
H318 H 0.77879 0.64619 0.55585 0.0
H319 H 0.80008 0.4861 0.55956 0.0
H320 H 0.7672 0.50583 0.55176 0.0
H321 H 0.79717 0.42146 0.53905 0.0
O322 O 0.77673 0.59695 0.54045 0.0
O323 O 0.79024 0.55646 0.53101 0.0
O324 O 0.80871 0.51893 0.54487 0.0
C325 C 0.77986 0.58517 0.53225 0.0
H326 H 0.81984 0.73052 0.53239 0.0
H327 H 0.76307 0.38588 0.55144 0.0
H328 H 0.79854 0.49664 0.57569 0.0
H329 H 0.7774 0.662 0.57185 0.0
Co330 Co 0.45711 0.5509 0.70112 0.0
C331 C 0.45309 0.68408 0.70091 0.0
C332 C 0.43799 0.63705 0.70714 0.0
C333 C 0.43599 0.69917 0.7078 0.0
N334 N 0.4487 0.62785 0.70282 0.0
N335 N 0.44553 0.72872 0.70393 0.0
H336 H 0.46193 0.69198 0.69778 0.0
H337 H 0.43225 0.6013 0.70989 0.0
C338 C 0.43704 0.46651 0.69519 0.0
O339 O 0.44444 0.44686 0.68886 0.0
N340 N 0.46567 0.47299 0.69974 0.0
C341 C 0.47698 0.4622 0.69632 0.0
C342 C 0.47943 0.4005 0.69682 0.0
C343 C 0.46181 0.41792 0.70276 0.0
N344 N 0.46982 0.37257 0.70079 0.0
C345 C 0.46779 0.57559 0.6839 0.0
C346 C 0.44577 0.58319 0.67471 0.0
C347 C 0.45685 0.5867 0.66998 0.0
C348 C 0.46797 0.58503 0.6747 0.0
C349 C 0.44604 0.57508 0.68394 0.0
N350 N 0.45695 0.5662 0.68832 0.0
H351 H 0.47638 0.57721 0.68747 0.0
H352 H 0.43743 0.57568 0.68753 0.0
H353 H 0.48331 0.49627 0.69389 0.0
H354 H 0.45315 0.41093 0.70618 0.0
O355 O 0.47246 0.59009 0.70403 0.0
O356 O 0.45986 0.54632 0.71381 0.0
O357 O 0.44067 0.50775 0.70064 0.0
C358 C 0.46994 0.5771 0.7123 0.0
H359 H 0.42821 0.72074 0.71104 0.0
H360 H 0.48775 0.37813 0.69453 0.0
H361 H 0.437 0.5873 0.67132 0.0
H362 H 0.47671 0.59008 0.67129 0.0
Co363 Co 0.79207 0.68166 0.70136 0.0
C364 C 0.79583 0.54646 0.70127 0.0
C365 C 0.81105 0.59416 0.70707 0.0
C366 C 0.81303 0.53238 0.70804 0.0
N367 N 0.80043 0.60325 0.70256 0.0
N368 N 0.80342 0.50246 0.70439 0.0
H369 H 0.78664 0.53711 0.69893 0.0
H370 H 0.8167 0.62999 0.7099 0.0
C371 C 0.81763 0.70702 0.6954 0.0
O372 O 0.81665 0.65802 0.69035 0.0
N373 N 0.78377 0.75926 0.70057 0.0
C374 C 0.7726 0.76979 0.69698 0.0
C375 C 0.77036 0.8318 0.69721 0.0
C376 C 0.78814 0.81441 0.70301 0.0
N377 N 0.78016 0.85971 0.70099 0.0
C378 C 0.78377 0.62767 0.68488 0.0
C379 C 0.79378 0.71563 0.6738 0.0
C380 C 0.78769 0.66546 0.66998 0.0
C381 C 0.78246 0.62168 0.67567 0.0
C382 C 0.79492 0.71958 0.68304 0.0
N383 N 0.79057 0.67409 0.68846 0.0
H384 H 0.77897 0.59592 0.6891 0.0
H385 H 0.79924 0.75977 0.68584 0.0
H386 H 0.76663 0.73494 0.69421 0.0
H387 H 0.79716 0.82139 0.70592 0.0
O388 O 0.77681 0.64355 0.70478 0.0
O389 O 0.79048 0.68327 0.71417 0.0
O390 O 0.80854 0.72406 0.70023 0.0
C391 C 0.78011 0.65429 0.71297 0.0
H392 H 0.82074 0.51135 0.71144 0.0
H393 H 0.76218 0.85452 0.69473 0.0
H394 H 0.79747 0.75207 0.66969 0.0
H395 H 0.7774 0.58288 0.67305 0.0
Co396 Co 0.54054 0.30248 0.45189 0.0
C397 C 0.54404 0.43777 0.45165 0.0
C398 C 0.56047 0.39073 0.45547 0.0
C399 C 0.56242 0.45251 0.45647 0.0
N400 N 0.54906 0.38117 0.45215 0.0
N401 N 0.55204 0.48206 0.45409 0.0
H402 H 0.5344 0.44644 0.45045 0.0
H403 H 0.56674 0.3553 0.45764 0.0
C404 C 0.56511 0.27312 0.44436 0.0
O405 O 0.56338 0.31924 0.43887 0.0
N406 N 0.53213 0.2248 0.45206 0.0
C407 C 0.52048 0.21395 0.44941 0.0
C408 C 0.51822 0.15212 0.4501 0.0
C409 C 0.53678 0.16994 0.4544 0.0
N410 N 0.52849 0.1245 0.45321 0.0
C411 C 0.53151 0.3552 0.43552 0.0
C412 C 0.53926 0.26131 0.42452 0.0
C413 C 0.5339 0.31343 0.42068 0.0
C414 C 0.52973 0.36013 0.42634 0.0
C415 C 0.54089 0.25843 0.43374 0.0
N416 N 0.53769 0.30665 0.43908 0.0
H417 H 0.52776 0.39021 0.43974 0.0
H418 H 0.54492 0.21762 0.43657 0.0
H419 H 0.51418 0.24842 0.44696 0.0
H420 H 0.54616 0.1632 0.45662 0.0
O421 O 0.52572 0.34192 0.45587 0.0
O422 O 0.5403 0.30484 0.46475 0.0
O423 O 0.55681 0.2593 0.45008 0.0
C424 C 0.52989 0.33409 0.46392 0.0
H425 H 0.57067 0.47363 0.4591 0.0
H426 H 0.50969 0.12934 0.44837 0.0
H427 H 0.54217 0.22303 0.42044 0.0
H428 H 0.52532 0.40076 0.42371 0.0
Co429 Co 0.20771 0.43966 0.45082 0.0
C430 C 0.20417 0.30447 0.45034 0.0
C431 C 0.1879 0.35123 0.45459 0.0
C432 C 0.18601 0.2894 0.45557 0.0
N433 N 0.19917 0.36103 0.45103 0.0
N434 N 0.19629 0.26001 0.45293 0.0
H435 H 0.21375 0.29594 0.4489 0.0
H436 H 0.18174 0.38652 0.45696 0.0
C437 C 0.18294 0.46996 0.44377 0.0
O438 O 0.18444 0.42391 0.43823 0.0
N439 N 0.21619 0.51719 0.45105 0.0
C440 C 0.22779 0.52788 0.44826 0.0
C441 C 0.23012 0.58964 0.44894 0.0
C442 C 0.21163 0.57214 0.45345 0.0
N443 N 0.21994 0.61743 0.45217 0.0
C444 C 0.21622 0.38924 0.43413 0.0
C445 C 0.20812 0.48498 0.4236 0.0
C446 C 0.21346 0.43384 0.4195 0.0
C447 C 0.2178 0.38615 0.42491 0.0
C448 C 0.20675 0.48619 0.43284 0.0
N449 N 0.21014 0.43715 0.43795 0.0
H450 H 0.22007 0.35346 0.43816 0.0
H451 H 0.2028 0.52649 0.43588 0.0
H452 H 0.234 0.49335 0.44571 0.0
H453 H 0.20229 0.5791 0.45575 0.0
O454 O 0.22263 0.3995 0.45446 0.0
O455 O 0.20835 0.43577 0.46367 0.0
O456 O 0.19141 0.48327 0.44938 0.0
C457 C 0.2187 0.40645 0.46259 0.0
H458 H 0.1779 0.26813 0.45839 0.0
H459 H 0.23862 0.61229 0.44711 0.0
H460 H 0.20506 0.52387 0.4197 0.0
H461 H 0.22223 0.34631 0.42204 0.0
Co462 Co 0.54283 0.43571 0.29505 0.0
C463 C 0.54658 0.30036 0.29497 0.0
C464 C 0.56196 0.34857 0.28947 0.0
C465 C 0.56399 0.28686 0.28844 0.0
N466 N 0.5512 0.35729 0.29382 0.0
N467 N 0.55429 0.25663 0.2919 0.0
H468 H 0.53735 0.2907 0.29719 0.0
H469 H 0.56768 0.38463 0.28678 0.0
C470 C 0.56824 0.46098 0.30139 0.0
O471 O 0.56711 0.41216 0.30645 0.0
N472 N 0.53456 0.51342 0.29588 0.0
C473 C 0.52333 0.52392 0.29937 0.0
C474 C 0.52108 0.58591 0.29911 0.0
C475 C 0.53897 0.5686 0.29347 0.0
N476 N 0.53093 0.6139 0.29541 0.0
C477 C 0.53397 0.38038 0.31123 0.0
C478 C 0.54373 0.46621 0.32276 0.0
C479 C 0.53737 0.41593 0.3263 0.0
C480 C 0.53227 0.37322 0.32038 0.0
C481 C 0.54523 0.47144 0.31355 0.0
N482 N 0.54099 0.42691 0.30792 0.0
H483 H 0.52925 0.34947 0.30684 0.0
H484 H 0.54972 0.51179 0.31094 0.0
H485 H 0.51732 0.48903 0.30207 0.0
H486 H 0.54801 0.57557 0.29061 0.0
O487 O 0.52764 0.39811 0.29141 0.0
O488 O 0.5415 0.43824 0.28221 0.0
O489 O 0.55929 0.47788 0.29642 0.0
C490 C 0.53109 0.40934 0.28327 0.0
H491 H 0.57181 0.2661 0.28515 0.0
H492 H 0.51284 0.60854 0.30149 0.0
H493 H 0.54736 0.50178 0.32706 0.0
H494 H 0.52703 0.33438 0.32278 0.0
Co495 Co 0.20973 0.29612 0.29395 0.0
C496 C 0.20586 0.42951 0.2943 0.0
C497 C 0.19017 0.38264 0.28888 0.0
C498 C 0.18817 0.44474 0.28827 0.0
N499 N 0.20125 0.37332 0.29267 0.0
N500 N 0.19808 0.4742 0.29163 0.0
H501 H 0.21498 0.43728 0.29698 0.0
H502 H 0.18415 0.34699 0.28642 0.0
C503 C 0.18968 0.21442 0.30063 0.0
O504 O 0.19723 0.19585 0.30694 0.0
N505 N 0.21833 0.21786 0.29483 0.0
C506 C 0.23032 0.20761 0.29675 0.0
C507 C 0.23272 0.14594 0.29606 0.0
C508 C 0.21391 0.16241 0.29241 0.0
N509 N 0.22235 0.11754 0.29339 0.0
C510 C 0.22146 0.31322 0.31096 0.0
C511 C 0.20018 0.33737 0.32045 0.0
C512 C 0.21149 0.33733 0.32495 0.0
C513 C 0.22224 0.32574 0.32006 0.0
C514 C 0.19983 0.3247 0.31133 0.0
N515 N 0.21033 0.3098 0.30677 0.0
H516 H 0.22988 0.30859 0.30728 0.0
H517 H 0.19109 0.32762 0.30791 0.0
H518 H 0.23714 0.24224 0.29811 0.0
H519 H 0.20469 0.15483 0.28992 0.0
O520 O 0.2249 0.33566 0.29077 0.0
O521 O 0.21182 0.29355 0.28116 0.0
O522 O 0.19328 0.25344 0.29484 0.0
C523 C 0.22195 0.32427 0.28253 0.0
H524 H 0.18011 0.4663 0.28541 0.0
H525 H 0.24152 0.12402 0.2972 0.0
H526 H 0.1917 0.3485 0.32389 0.0
H527 H 0.23122 0.32649 0.32322 0.0
Co528 Co 0.95792 0.18227 0.54424 0.0
C529 C 0.95428 0.04709 0.54414 0.0
C530 C 0.93934 0.09481 0.53797 0.0
C531 C 0.93745 0.03306 0.53688 0.0
N532 N 0.94971 0.1038 0.54278 0.0
N533 N 0.9469 0.00323 0.54074 0.0
H534 H 0.96314 0.03766 0.54704 0.0
H535 H 0.93386 0.13076 0.535 0.0
C536 C 0.93216 0.20545 0.54995 0.0
O537 O 0.93306 0.15557 0.55482 0.0
N538 N 0.96601 0.26011 0.54527 0.0
C539 C 0.97699 0.27173 0.54908 0.0
C540 C 0.97906 0.33392 0.54877 0.0
C541 C 0.96157 0.31461 0.54264 0.0
N542 N 0.96932 0.36071 0.54474 0.0
C543 C 0.96647 0.12774 0.56057 0.0
C544 C 0.95549 0.21101 0.57192 0.0
C545 C 0.96195 0.16144 0.57557 0.0
C546 C 0.9677 0.12017 0.56976 0.0
C547 C 0.95449 0.21669 0.56268 0.0
N548 N 0.95928 0.17316 0.55712 0.0
H549 H 0.97167 0.09808 0.55626 0.0
H550 H 0.94994 0.25665 0.56001 0.0
H551 H 0.98292 0.23758 0.55206 0.0
H552 H 0.95282 0.3203 0.53928 0.0
O553 O 0.97328 0.14531 0.54085 0.0
O554 O 0.95968 0.18535 0.53144 0.0
O555 O 0.94136 0.22374 0.54533 0.0
C556 C 0.97006 0.15655 0.53265 0.0
H557 H 0.9301 0.01195 0.53309 0.0
H558 H 0.98692 0.35766 0.55156 0.0
H559 H 0.9514 0.24568 0.57616 0.0
H560 H 0.97308 0.08213 0.57226 0.0
Co561 Co 0.29062 0.05074 0.5427 0.0
C562 C 0.2945 0.18632 0.54201 0.0
C563 C 0.30602 0.13728 0.53288 0.0
C564 C 0.30804 0.19885 0.5317 0.0
N565 N 0.29769 0.12928 0.53946 0.0
N566 N 0.30078 0.22955 0.53746 0.0
H567 H 0.28731 0.19677 0.5467 0.0
H568 H 0.31019 0.10062 0.52908 0.0
C569 C 0.31741 0.04076 0.54614 0.0
O570 O 0.3167 0.09529 0.54981 0.0
N571 N 0.28358 0.97259 0.54552 0.0
C572 C 0.27354 0.96169 0.55055 0.0
C573 C 0.2718 0.89935 0.55106 0.0
C574 C 0.28776 0.91745 0.54295 0.0
N575 N 0.28075 0.87178 0.54626 0.0
C576 C 0.28254 0.11061 0.55873 0.0
C577 C 0.29698 0.04392 0.57037 0.0
C578 C 0.28912 0.08898 0.57381 0.0
C579 C 0.28175 0.12216 0.56786 0.0
C580 C 0.29746 0.03385 0.56119 0.0
N581 N 0.29078 0.06921 0.55542 0.0
H582 H 0.27612 0.13344 0.55437 0.0
H583 H 0.30292 0.99599 0.55881 0.0
H584 H 0.26793 0.9966 0.55367 0.0
H585 H 0.2959 0.91096 0.53889 0.0
O586 O 0.27451 0.08153 0.53981 0.0
O587 O 0.28727 0.03745 0.53019 0.0
O588 O 0.30773 0.01428 0.54318 0.0
C589 C 0.27681 0.06492 0.53165 0.0
H590 H 0.31429 0.21929 0.52693 0.0
H591 H 0.26447 0.87619 0.55461 0.0
H592 H 0.30264 0.01613 0.57472 0.0
H593 H 0.27509 0.15527 0.57025 0.0
Co594 Co 0.95782 0.06124 0.70183 0.0
C595 C 0.95467 0.19656 0.70244 0.0
C596 C 0.9391 0.14942 0.70783 0.0
C597 C 0.93748 0.21111 0.70921 0.0
N598 N 0.9497 0.14013 0.70329 0.0
N599 N 0.94734 0.24057 0.70586 0.0
H600 H 0.96382 0.20538 0.69998 0.0
H601 H 0.93329 0.11365 0.7105 0.0
C602 C 0.93211 0.0372 0.6961 0.0
O603 O 0.93303 0.08668 0.69115 0.0
N604 N 0.9659 0.98321 0.70081 0.0
C605 C 0.97694 0.97202 0.69706 0.0
C606 C 0.9792 0.91007 0.6975 0.0
C607 C 0.96159 0.92852 0.70352 0.0
N608 N 0.96951 0.88285 0.70154 0.0
C609 C 0.96571 0.11668 0.68537 0.0
C610 C 0.95561 0.02933 0.67422 0.0
C611 C 0.9617 0.07965 0.67047 0.0
C612 C 0.96695 0.1232 0.67617 0.0
C613 C 0.95455 0.02479 0.68347 0.0
N614 N 0.959 0.06983 0.68893 0.0
H615 H 0.97057 0.14811 0.6896 0.0
H616 H 0.9502 0.98456 0.68624 0.0
H617 H 0.98282 0.00638 0.69408 0.0
H618 H 0.95285 0.9224 0.70687 0.0
O619 O 0.97325 0.09813 0.70505 0.0
O620 O 0.95977 0.05875 0.71462 0.0
O621 O 0.94125 0.0197 0.70084 0.0
C622 C 0.97015 0.08742 0.71328 0.0
H623 H 0.93005 0.23222 0.71292 0.0
H624 H 0.98717 0.88674 0.69481 0.0
H625 H 0.95164 0.99392 0.67006 0.0
H626 H 0.97225 0.16118 0.67355 0.0
Co627 Co 0.28942 0.19426 0.69992 0.0
C628 C 0.29323 0.05906 0.69958 0.0
C629 C 0.30846 0.10665 0.7054 0.0
C630 C 0.31047 0.04488 0.70631 0.0
N631 N 0.29781 0.11582 0.70093 0.0
N632 N 0.30086 0.01504 0.70265 0.0
H633 H 0.28406 0.04969 0.69721 0.0
H634 H 0.3141 0.14243 0.70826 0.0
C635 C 0.31481 0.21908 0.69365 0.0
O636 O 0.31347 0.17102 0.68846 0.0
N637 N 0.28111 0.27188 0.69931 0.0
C638 C 0.26977 0.28216 0.69599 0.0
C639 C 0.26752 0.34413 0.69621 0.0
C640 C 0.28559 0.32719 0.70157 0.0
N641 N 0.27749 0.37232 0.6997 0.0
C642 C 0.2806 0.14133 0.68352 0.0
C643 C 0.29077 0.22823 0.67233 0.0
C644 C 0.28458 0.17816 0.66859 0.0
C645 C 0.27918 0.13519 0.67432 0.0
C646 C 0.29192 0.23263 0.68158 0.0
N647 N 0.28758 0.18733 0.68704 0.0
H648 H 0.27574 0.11009 0.68779 0.0
H649 H 0.29639 0.27253 0.68434 0.0
H650 H 0.26369 0.24715 0.69341 0.0
H651 H 0.29475 0.33444 0.70421 0.0
O652 O 0.27425 0.15597 0.70348 0.0
O653 O 0.28813 0.19507 0.71276 0.0
O654 O 0.30592 0.23631 0.69866 0.0
C655 C 0.27776 0.16599 0.71164 0.0
H656 H 0.3182 0.02378 0.70967 0.0
H657 H 0.25923 0.36667 0.69391 0.0
H658 H 0.29488 0.2633 0.66818 0.0
H659 H 0.27374 0.09759 0.67174 0.0
Co660 Co 0.04102 0.80174 0.45138 0.0
C661 C 0.04474 0.93495 0.45169 0.0
C662 C 0.05987 0.88765 0.45784 0.0
C663 C 0.06185 0.94972 0.45859 0.0
N664 N 0.04916 0.87872 0.4535 0.0
N665 N 0.05231 0.97938 0.45474 0.0
H666 H 0.03593 0.94291 0.44852 0.0
H667 H 0.06566 0.85169 0.46047 0.0
C668 C 0.06136 0.72402 0.44419 0.0
O669 O 0.0539 0.70668 0.43776 0.0
N670 N 0.03277 0.72345 0.44961 0.0
C671 C 0.02105 0.71252 0.44703 0.0
C672 C 0.01883 0.65055 0.44736 0.0
C673 C 0.03719 0.66804 0.45202 0.0
N674 N 0.02903 0.62267 0.45047 0.0
C675 C 0.02941 0.82874 0.4346 0.0
C676 C 0.0508 0.85527 0.42538 0.0
C677 C 0.0395 0.85842 0.42088 0.0
C678 C 0.0287 0.84562 0.42565 0.0
C679 C 0.05108 0.83796 0.43434 0.0
N680 N 0.04052 0.82175 0.43873 0.0
H681 H 0.02097 0.82372 0.43825 0.0
H682 H 0.05981 0.83877 0.43779 0.0
H683 H 0.01421 0.74665 0.44548 0.0
H684 H 0.0462 0.66095 0.4549 0.0
O685 O 0.02566 0.83806 0.4549 0.0
O686 O 0.03883 0.79235 0.46408 0.0
O687 O 0.05762 0.76124 0.45018 0.0
C688 C 0.02857 0.82244 0.463 0.0
H689 H 0.06967 0.97119 0.4618 0.0
H690 H 0.01024 0.62801 0.44574 0.0
H691 H 0.05933 0.86738 0.42208 0.0
H692 H 0.01973 0.84871 0.42252 0.0
Co693 Co 0.70779 0.94741 0.45161 0.0
C694 C 0.70381 0.81408 0.45126 0.0
C695 C 0.68841 0.86104 0.4571 0.0
C696 C 0.68634 0.79895 0.45764 0.0
N697 N 0.69935 0.8703 0.45309 0.0
N698 N 0.69607 0.76942 0.45402 0.0
H699 H 0.71279 0.80624 0.44835 0.0
H700 H 0.68253 0.89674 0.45971 0.0
C701 C 0.68769 0.02918 0.44503 0.0
O702 O 0.6952 0.04764 0.43869 0.0
N703 N 0.71639 0.02558 0.4505 0.0
C704 C 0.72831 0.03556 0.44832 0.0
C705 C 0.73077 0.09722 0.44887 0.0
C706 C 0.7121 0.08125 0.45294 0.0
N707 N 0.72052 0.12597 0.45172 0.0
C708 C 0.71908 0.92949 0.4344 0.0
C709 C 0.69741 0.9091 0.42519 0.0
C710 C 0.70854 0.91057 0.42047 0.0
C711 C 0.71951 0.91947 0.42522 0.0
C712 C 0.69743 0.91895 0.43438 0.0
N713 N 0.7081 0.93291 0.43879 0.0
H714 H 0.72763 0.9329 0.43797 0.0
H715 H 0.68881 0.91557 0.43794 0.0
H716 H 0.73505 0.00075 0.44685 0.0
H717 H 0.70298 0.08906 0.45559 0.0
O718 O 0.72303 0.90809 0.45473 0.0
O719 O 0.7101 0.95125 0.46435 0.0
O720 O 0.69134 0.99013 0.45081 0.0
C721 C 0.72023 0.92059 0.46297 0.0
H722 H 0.67836 0.7774 0.46062 0.0
H723 H 0.73954 0.11892 0.44752 0.0
H724 H 0.68878 0.89969 0.42183 0.0
H725 H 0.72836 0.91921 0.42187 0.0
Co726 Co 0.0423 0.93923 0.29502 0.0
C727 C 0.04559 0.80432 0.29608 0.0
C728 C 0.06175 0.84931 0.29123 0.0
C729 C 0.06353 0.78721 0.29057 0.0
N730 N 0.05064 0.86035 0.29497 0.0
N731 N 0.05331 0.75909 0.29356 0.0
H732 H 0.03615 0.79645 0.298 0.0
H733 H 0.06782 0.88383 0.28852 0.0
C734 C 0.06728 0.96774 0.30186 0.0
O735 O 0.06563 0.92236 0.30749 0.0
N736 N 0.03403 0.017 0.29467 0.0
C737 C 0.0225 0.02889 0.29751 0.0
C738 C 0.02033 0.09063 0.2966 0.0
C739 C 0.03871 0.07108 0.29203 0.0
N740 N 0.03055 0.11706 0.2932 0.0
C741 C 0.03312 0.8927 0.31175 0.0
C742 C 0.04215 0.98693 0.32217 0.0
C743 C 0.03611 0.93793 0.32633 0.0
C744 C 0.03129 0.89113 0.32096 0.0
C745 C 0.04368 0.98681 0.31294 0.0
N746 N 0.03987 0.93821 0.3079 0.0
H747 H 0.02878 0.85815 0.30774 0.0
H748 H 0.04808 0.0258 0.30986 0.0
H749 H 0.01627 0.99528 0.30029 0.0
H750 H 0.04793 0.0767 0.28943 0.0
O751 O 0.02725 0.89971 0.29147 0.0
O752 O 0.0416 0.9343 0.28218 0.0
O753 O 0.05875 0.98179 0.29632 0.0
C754 C 0.03112 0.90613 0.28331 0.0
H755 H 0.07133 0.7647 0.28748 0.0
H756 H 0.01206 0.11448 0.29864 0.0
H757 H 0.04587 0.02466 0.32601 0.0
H758 H 0.026 0.85396 0.32383 0.0
Co759 Co 0.70967 0.80191 0.29411 0.0
C760 C 0.70569 0.93523 0.29437 0.0
C761 C 0.69045 0.88824 0.28834 0.0
C762 C 0.68841 0.95034 0.28773 0.0
N763 N 0.70126 0.879 0.29251 0.0
N764 N 0.69805 0.97988 0.29148 0.0
H765 H 0.7146 0.94308 0.29739 0.0
H766 H 0.68463 0.85252 0.28566 0.0
C767 C 0.68951 0.72003 0.30053 0.0
O768 O 0.69698 0.70156 0.30688 0.0
N769 N 0.71824 0.72378 0.29534 0.0
C770 C 0.73007 0.7138 0.29773 0.0
C771 C 0.73255 0.65214 0.29721 0.0
C772 C 0.71403 0.66814 0.29281 0.0
N773 N 0.72241 0.62341 0.29417 0.0
C774 C 0.72061 0.82069 0.31141 0.0
C775 C 0.69876 0.84126 0.32039 0.0
C776 C 0.70981 0.84038 0.32523 0.0
C777 C 0.72086 0.83129 0.32058 0.0
C778 C 0.69896 0.83071 0.31122 0.0
N779 N 0.70971 0.81673 0.30692 0.0
H780 H 0.72922 0.81769 0.30792 0.0
H781 H 0.69039 0.8335 0.30757 0.0
H782 H 0.73676 0.74857 0.29933 0.0
H783 H 0.70499 0.66036 0.29001 0.0
O784 O 0.72497 0.84119 0.29114 0.0
O785 O 0.71226 0.79794 0.28138 0.0
O786 O 0.69318 0.75917 0.29477 0.0
C787 C 0.72236 0.82866 0.28288 0.0
H788 H 0.68053 0.9719 0.28463 0.0
H789 H 0.74127 0.63043 0.29871 0.0
H790 H 0.69001 0.84928 0.32365 0.0
H791 H 0.72967 0.83352 0.32397 0.0
Co792 Co 0.95789 0.68645 0.04456 0.0
C793 C 0.95429 0.55165 0.04555 0.0
C794 C 0.93852 0.59752 0.04022 0.0
C795 C 0.93659 0.53553 0.03958 0.0
N796 N 0.94947 0.60792 0.04424 0.0
N797 N 0.94657 0.50683 0.04289 0.0
H798 H 0.96357 0.54323 0.04778 0.0
H799 H 0.93267 0.63242 0.03737 0.0
C800 C 0.93271 0.71511 0.05104 0.0
O801 O 0.93402 0.66904 0.05661 0.0
N802 N 0.96622 0.7641 0.04447 0.0
C803 C 0.97763 0.77596 0.04755 0.0
C804 C 0.97974 0.83793 0.04686 0.0
C805 C 0.96157 0.81833 0.0419 0.0
N806 N 0.9696 0.86444 0.04335 0.0
C807 C 0.96681 0.63884 0.0613 0.0
C808 C 0.95732 0.73145 0.07181 0.0
C809 C 0.96344 0.68257 0.07594 0.0
C810 C 0.96847 0.63657 0.07053 0.0
C811 C 0.95596 0.73205 0.06257 0.0
N812 N 0.96 0.68418 0.05746 0.0
H813 H 0.97138 0.60515 0.05726 0.0
H814 H 0.95157 0.77116 0.05951 0.0
H815 H 0.98379 0.74222 0.05037 0.0
H816 H 0.95242 0.82397 0.03916 0.0
O817 O 0.973 0.64696 0.0411 0.0
O818 O 0.9589 0.68292 0.03172 0.0
O819 O 0.94146 0.72924 0.0457 0.0
C820 C 0.96934 0.65459 0.03291 0.0
H821 H 0.92886 0.51342 0.03635 0.0
H822 H 0.9879 0.86184 0.04913 0.0
H823 H 0.95345 0.76865 0.07567 0.0
H824 H 0.97383 0.5996 0.07337 0.0
Co825 Co 0.29186 0.55088 0.04501 0.0
C826 C 0.2951 0.68614 0.04479 0.0
C827 C 0.31064 0.63921 0.03929 0.0
C828 C 0.3124 0.70103 0.03816 0.0
N829 N 0.29996 0.62974 0.04371 0.0
N830 N 0.30257 0.73032 0.04157 0.0
H831 H 0.286 0.69503 0.04731 0.0
H832 H 0.31645 0.60351 0.03659 0.0
C833 C 0.3173 0.52897 0.05149 0.0
O834 O 0.31593 0.57839 0.0564 0.0
N835 N 0.28386 0.47275 0.04589 0.0
C836 C 0.2727 0.46112 0.04943 0.0
C837 C 0.27057 0.39909 0.04894 0.0
C838 C 0.28835 0.41837 0.04325 0.0
N839 N 0.28044 0.37236 0.04507 0.0
C840 C 0.28234 0.60548 0.06105 0.0
C841 C 0.29278 0.52272 0.07275 0.0
C842 C 0.28597 0.57184 0.07619 0.0
C843 C 0.28048 0.61277 0.07019 0.0
C844 C 0.29433 0.51702 0.06355 0.0
N845 N 0.2898 0.56033 0.05784 0.0
H846 H 0.27735 0.63485 0.05658 0.0
H847 H 0.29915 0.47738 0.06103 0.0
H848 H 0.26666 0.49523 0.0523 0.0
H849 H 0.29722 0.41274 0.04005 0.0
O850 O 0.27659 0.5868 0.0412 0.0
O851 O 0.29074 0.54727 0.03217 0.0
O852 O 0.30845 0.51035 0.04655 0.0
C853 C 0.28021 0.57523 0.0331 0.0
H854 H 0.31993 0.72246 0.03459 0.0
H855 H 0.26254 0.37541 0.05147 0.0
H856 H 0.29699 0.48915 0.0771 0.0
H857 H 0.27458 0.6494 0.07252 0.0
Co858 Co 0.9593 0.55686 0.20146 0.0
C859 C 0.95542 0.68991 0.20153 0.0
C860 C 0.94049 0.64259 0.20793 0.0
C861 C 0.93843 0.70462 0.20859 0.0
N862 N 0.95112 0.63371 0.20349 0.0
N863 N 0.94786 0.73425 0.20459 0.0
H864 H 0.96416 0.69797 0.19825 0.0
H865 H 0.93481 0.60662 0.21069 0.0
C866 C 0.93909 0.47757 0.19443 0.0
O867 O 0.94664 0.45979 0.18807 0.0
N868 N 0.96755 0.47859 0.1998 0.0
C869 C 0.97911 0.46666 0.19694 0.0
C870 C 0.98117 0.40455 0.19738 0.0
C871 C 0.96311 0.42382 0.20245 0.0
N872 N 0.97103 0.37766 0.20078 0.0
C873 C 0.97087 0.58352 0.18464 0.0
C874 C 0.94942 0.60649 0.17531 0.0
C875 C 0.96071 0.60954 0.1708 0.0
C876 C 0.97155 0.59879 0.17562 0.0
C877 C 0.94918 0.59085 0.18434 0.0
N878 N 0.95978 0.57605 0.18878 0.0
H879 H 0.97932 0.57992 0.18833 0.0
H880 H 0.94045 0.59161 0.18778 0.0
H881 H 0.98589 0.50011 0.19501 0.0
H882 H 0.95431 0.41796 0.20573 0.0
O883 O 0.97467 0.59354 0.20494 0.0
O884 O 0.96152 0.54824 0.21417 0.0
O885 O 0.94271 0.51591 0.20031 0.0
C886 C 0.97178 0.57824 0.21306 0.0
H887 H 0.93066 0.72613 0.21186 0.0
H888 H 0.98949 0.38117 0.19533 0.0
H889 H 0.94085 0.61726 0.17196 0.0
H890 H 0.98052 0.60208 0.17249 0.0
Co891 Co 0.29101 0.69669 0.20188 0.0
C892 C 0.29491 0.56128 0.20186 0.0
C893 C 0.30923 0.60971 0.20868 0.0
C894 C 0.31134 0.54804 0.20962 0.0
N895 N 0.29909 0.61822 0.20361 0.0
N896 N 0.30231 0.5177 0.20533 0.0
H897 H 0.28621 0.55128 0.19875 0.0
H898 H 0.3145 0.64599 0.21177 0.0
C899 C 0.3167 0.71568 0.19581 0.0
O900 O 0.31535 0.66494 0.19119 0.0
N901 N 0.28304 0.77461 0.20054 0.0
C902 C 0.27199 0.78521 0.19675 0.0
C903 C 0.26991 0.84735 0.19674 0.0
C904 C 0.2875 0.82982 0.20285 0.0
N905 N 0.27968 0.87521 0.20056 0.0
C906 C 0.28145 0.64031 0.18601 0.0
C907 C 0.29298 0.71722 0.174 0.0
C908 C 0.2859 0.6684 0.17075 0.0
C909 C 0.27984 0.63063 0.17689 0.0
C910 C 0.29426 0.72541 0.18318 0.0
N911 N 0.28924 0.68459 0.18907 0.0
H912 H 0.27604 0.61342 0.19057 0.0
H913 H 0.29926 0.76496 0.18554 0.0
H914 H 0.26598 0.75024 0.19407 0.0
H915 H 0.29643 0.83667 0.2059 0.0
O916 O 0.27567 0.66138 0.20564 0.0
O917 O 0.28955 0.70274 0.2147 0.0
O918 O 0.3077 0.73659 0.2004 0.0
C919 C 0.27908 0.67422 0.21374 0.0
H920 H 0.31879 0.52728 0.21335 0.0
H921 H 0.26185 0.87021 0.1941 0.0
H922 H 0.2976 0.74862 0.16952 0.0
H923 H 0.27369 0.5946 0.17469 0.0
Co924 Co 0.04244 0.30533 0.95099 0.0
C925 C 0.04584 0.44034 0.95076 0.0
C926 C 0.06145 0.39405 0.95625 0.0
C927 C 0.06323 0.456 0.9572 0.0
N928 N 0.05071 0.38404 0.95194 0.0
N929 N 0.05335 0.48491 0.95379 0.0
H930 H 0.03666 0.44885 0.94834 0.0
H931 H 0.06726 0.35877 0.95906 0.0
C932 C 0.06795 0.27907 0.94495 0.0
O933 O 0.06689 0.32688 0.93967 0.0
N934 N 0.03425 0.22747 0.95044 0.0
C935 C 0.02309 0.21581 0.94691 0.0
C936 C 0.02092 0.15383 0.94746 0.0
C937 C 0.0387 0.17312 0.95314 0.0
N938 N 0.03077 0.12713 0.95134 0.0
C939 C 0.0341 0.35696 0.93434 0.0
C940 C 0.04452 0.26864 0.92351 0.0
C941 C 0.0385 0.31843 0.91957 0.0
C942 C 0.03296 0.36215 0.9251 0.0
C943 C 0.04533 0.26504 0.93277 0.0
N944 N 0.04089 0.31104 0.93807 0.0
H945 H 0.02923 0.38907 0.93846 0.0
H946 H 0.0496 0.22512 0.93569 0.0
H947 H 0.01711 0.24979 0.94394 0.0
H948 H 0.04759 0.16741 0.95629 0.0
O949 O 0.02713 0.34333 0.95433 0.0
O950 O 0.04089 0.30539 0.9638 0.0
O951 O 0.05896 0.26331 0.94997 0.0
C952 C 0.03046 0.33365 0.96255 0.0
H953 H 0.07079 0.47781 0.96068 0.0
H954 H 0.01291 0.1301 0.94489 0.0
H955 H 0.04845 0.23244 0.91947 0.0
H956 H 0.0279 0.40039 0.92233 0.0
Co957 Co 0.70992 0.45616 0.95207 0.0
C958 C 0.70612 0.32282 0.95199 0.0
C959 C 0.69073 0.36972 0.95784 0.0
C960 C 0.68875 0.30762 0.95851 0.0
N961 N 0.7016 0.37898 0.95373 0.0
N962 N 0.69848 0.27816 0.95487 0.0
H963 H 0.71509 0.31505 0.94904 0.0
H964 H 0.68484 0.40543 0.96042 0.0
C965 C 0.68966 0.53663 0.94539 0.0
O966 O 0.69715 0.55552 0.93906 0.0
N967 N 0.71837 0.53445 0.95077 0.0
C968 C 0.7302 0.54494 0.94841 0.0
C969 C 0.73257 0.60668 0.94897 0.0
C970 C 0.71404 0.58984 0.95329 0.0
N971 N 0.72236 0.63489 0.95198 0.0
C972 C 0.72127 0.43552 0.93498 0.0
C973 C 0.6997 0.4136 0.92573 0.0
C974 C 0.7109 0.41359 0.92107 0.0
C975 C 0.72181 0.4235 0.92586 0.0
C976 C 0.69961 0.42574 0.93486 0.0
N977 N 0.71025 0.44021 0.93929 0.0
H978 H 0.72978 0.43885 0.9386 0.0
H979 H 0.69094 0.42339 0.93838 0.0
H980 H 0.73697 0.51049 0.94685 0.0
H981 H 0.70496 0.5972 0.95605 0.0
O982 O 0.72523 0.41791 0.95525 0.0
O983 O 0.71226 0.4614 0.96481 0.0
O984 O 0.69338 0.49795 0.95119 0.0
C985 C 0.72245 0.43111 0.96346 0.0
H986 H 0.68085 0.28604 0.96158 0.0
H987 H 0.74127 0.62881 0.94751 0.0
H988 H 0.69106 0.40487 0.92235 0.0
H989 H 0.73071 0.42065 0.92262 0.0
Co990 Co 0.04159 0.45307 0.79396 0.0
C991 C 0.04555 0.31985 0.79443 0.0
C992 C 0.06094 0.3665 0.78853 0.0
C993 C 0.06302 0.30439 0.78807 0.0
N994 N 0.05001 0.37593 0.79254 0.0
N995 N 0.0533 0.27508 0.79174 0.0
H996 H 0.03656 0.31218 0.79736 0.0
H997 H 0.06682 0.40208 0.78589 0.0
C998 C 0.06173 0.5334 0.80086 0.0
O999 O 0.05421 0.55152 0.80721 0.0
N1000 N 0.03302 0.53134 0.79499 0.0
C1001 C 0.02097 0.54127 0.79676 0.0
C1002 C 0.01857 0.603 0.79624 0.0
C1003 C 0.0375 0.58715 0.79281 0.0
N1004 N 0.02901 0.6318 0.79381 0.0
C1005 C 0.02985 0.43654 0.81101 0.0
C1006 C 0.05108 0.40969 0.8204 0.0
C1007 C 0.03984 0.41203 0.82496 0.0
C1008 C 0.0291 0.42482 0.82014 0.0
C1009 C 0.05141 0.42213 0.81127 0.0
N1010 N 0.04095 0.43837 0.80676 0.0
H1011 H 0.02142 0.44195 0.80736 0.0
H1012 H 0.06012 0.41853 0.80782 0.0
H1013 H 0.01411 0.50639 0.79789 0.0
H1014 H 0.04676 0.59518 0.79046 0.0
O1015 O 0.02641 0.41401 0.79066 0.0
O1016 O 0.03955 0.45706 0.78118 0.0
O1017 O 0.05807 0.49526 0.79497 0.0
C1018 C 0.02938 0.42652 0.78246 0.0
H1019 H 0.071 0.28267 0.78513 0.0
H1020 H 0.00973 0.62474 0.79731 0.0
H1021 H 0.05958 0.39884 0.82385 0.0
H1022 H 0.02015 0.42423 0.82334 0.0
Co1023 Co 0.70835 0.30245 0.79489 0.0
C1024 C 0.70456 0.43772 0.7949 0.0
C1025 C 0.68965 0.38969 0.78873 0.0
C1026 C 0.68765 0.45142 0.78773 0.0
N1027 N 0.70009 0.38087 0.79347 0.0
N1028 N 0.69705 0.48151 0.79162 0.0
H1029 H 0.71358 0.44736 0.79753 0.0
H1030 H 0.68415 0.35365 0.78581 0.0
C1031 C 0.68275 0.2793 0.80085 0.0
O1032 O 0.6839 0.32872 0.80578 0.0
N1033 N 0.71654 0.22474 0.7959 0.0
C1034 C 0.72767 0.2143 0.79957 0.0
C1035 C 0.72985 0.15224 0.79948 0.0
C1036 C 0.71213 0.16948 0.79355 0.0
N1037 N 0.72005 0.12421 0.79571 0.0
C1038 C 0.71683 0.35755 0.81125 0.0
C1039 C 0.70615 0.27292 0.82255 0.0
C1040 C 0.71236 0.32315 0.82623 0.0
C1041 C 0.71798 0.36507 0.82045 0.0
C1042 C 0.70522 0.26729 0.81331 0.0
N1043 N 0.70983 0.31148 0.80778 0.0
H1044 H 0.72194 0.38766 0.80695 0.0
H1045 H 0.70076 0.22714 0.81062 0.0
H1046 H 0.73364 0.24929 0.80229 0.0
H1047 H 0.70313 0.16242 0.79062 0.0
O1048 O 0.72367 0.33968 0.7914 0.0
O1049 O 0.70999 0.29926 0.78208 0.0
O1050 O 0.69179 0.26096 0.79606 0.0
C1051 C 0.72039 0.32808 0.78323 0.0
H1052 H 0.68005 0.47234 0.78419 0.0
H1053 H 0.73797 0.12954 0.80205 0.0
H1054 H 0.7019 0.23858 0.82676 0.0
H1055 H 0.72344 0.40269 0.82301 0.0
H1056 H 0.47796 0.19872 0.08621 0.0
H1057 H 0.47919 0.18657 0.10236 0.0
H1058 H 0.4463 0.07567 0.10196 0.0
H1059 H 0.44546 0.08397 0.08576 0.0
H1060 H 0.46361 0.22297 0.11478 0.0
H1061 H 0.46839 0.97126 0.11694 0.0
H1062 H 0.46994 0.01222 0.10655 0.0
H1063 H 0.45491 0.99309 0.11081 0.0
C1064 C 0.47114 0.17051 0.08952 0.0
C1065 C 0.46164 0.1421 0.08465 0.0
C1066 C 0.4718 0.16411 0.09877 0.0
C1067 C 0.46295 0.12945 0.10336 0.0
C1068 C 0.4534 0.10143 0.09854 0.0
H1069 H 0.44499 0.16407 0.15936 0.0
H1070 H 0.44604 0.17193 0.14315 0.0
C1071 C 0.45282 0.10712 0.08928 0.0
C1072 C 0.4634 0.12491 0.11321 0.0
H1073 H 0.46301 0.02307 0.13045 0.0
C1074 C 0.46359 0.17925 0.11821 0.0
C1075 C 0.46358 0.06786 0.11768 0.0
C1076 C 0.46433 0.00785 0.11271 0.0
C1077 C 0.46367 0.17815 0.12756 0.0
C1078 C 0.46314 0.12114 0.13202 0.0
C1079 C 0.46324 0.06679 0.12702 0.0
C1080 C 0.4625 0.11663 0.14187 0.0
C1081 C 0.46453 0.23808 0.13254 0.0
C1082 C 0.47115 0.08119 0.14652 0.0
C1083 C 0.47037 0.07507 0.15577 0.0
C1084 C 0.46095 0.10459 0.16058 0.0
C1085 C 0.45229 0.14015 0.15589 0.0
C1086 C 0.453 0.14557 0.14662 0.0
H1087 H 0.46879 0.27437 0.12836 0.0
H1088 H 0.45512 0.25358 0.13435 0.0
H1089 H 0.47001 0.23322 0.13875 0.0
H1090 H 0.4785 0.05799 0.14298 0.0
H1091 H 0.47705 0.04631 0.15912 0.0
H1092 H 0.76597 0.10848 0.08531 0.0
H1093 H 0.76526 0.12631 0.10142 0.0
H1094 H 0.80171 0.05006 0.10413 0.0
H1095 H 0.80265 0.03333 0.08801 0.0
H1096 H 0.7828 0.00801 0.11703 0.0
H1097 H 0.78704 0.26123 0.11402 0.0
H1098 H 0.77537 0.225 0.10731 0.0
H1099 H 0.79133 0.20976 0.10511 0.0
C1100 C 0.77387 0.09579 0.08932 0.0
C1101 C 0.78442 0.06995 0.08537 0.0
C1102 C 0.77342 0.10581 0.09852 0.0
C1103 C 0.78348 0.09006 0.1039 0.0
C1104 C 0.79386 0.06251 0.10004 0.0
H1105 H 0.80455 0.19271 0.15712 0.0
H1106 H 0.80302 0.17406 0.14108 0.0
C1107 C 0.79435 0.05271 0.09085 0.0
C1108 C 0.78334 0.10351 0.11354 0.0
H1109 H 0.78447 0.221 0.12852 0.0
C1110 C 0.78311 0.05449 0.11957 0.0
C1111 C 0.78387 0.16427 0.11675 0.0
C1112 C 0.78451 0.21829 0.11049 0.0
C1113 C 0.78336 0.06474 0.1288 0.0
C1114 C 0.78379 0.12552 0.13202 0.0
C1115 C 0.78406 0.17452 0.12599 0.0
C1116 C 0.7844 0.13902 0.14165 0.0
C1117 C 0.78343 0.01061 0.13506 0.0
C1118 C 0.77432 0.12656 0.14721 0.0
C1119 C 0.77511 0.13769 0.15636 0.0
C1120 C 0.78601 0.16143 0.1601 0.0
C1121 C 0.79599 0.17505 0.15445 0.0
C1122 C 0.79516 0.16412 0.1453 0.0
H1123 H 0.7853 0.96696 0.1315 0.0
H1124 H 0.79047 0.01688 0.14035 0.0
H1125 H 0.7743 0.00684 0.13835 0.0
H1126 H 0.76587 0.10807 0.14446 0.0
H1127 H 0.76718 0.12781 0.1605 0.0
H1128 H 0.53997 0.92915 0.90978 0.0
H1129 H 0.53928 0.94337 0.8936 0.0
H1130 H 0.53247 0.75035 0.89009 0.0
H1131 H 0.53279 0.73594 0.90628 0.0
H1132 H 0.55471 0.8872 0.88106 0.0
H1133 H 0.50547 0.83212 0.87491 0.0
H1134 H 0.51139 0.84967 0.88588 0.0
H1135 H 0.51374 0.77505 0.88113 0.0
C1136 C 0.53812 0.88989 0.90557 0.0
C1137 C 0.5364 0.83144 0.9093 0.0
C1138 C 0.53781 0.89804 0.89634 0.0
C1139 C 0.53569 0.84803 0.89068 0.0
C1140 C 0.53393 0.78966 0.89436 0.0
H1141 H 0.55214 0.82301 0.83424 0.0
H1142 H 0.55133 0.8098 0.85044 0.0
C1143 C 0.53425 0.78142 0.9036 0.0
C1144 C 0.53585 0.85665 0.88091 0.0
H1145 H 0.51827 0.84281 0.86214 0.0
C1146 C 0.54675 0.87768 0.87692 0.0
C1147 C 0.52539 0.84475 0.87557 0.0
C1148 C 0.51329 0.82467 0.87958 0.0
C1149 C 0.54753 0.88631 0.86767 0.0
C1150 C 0.53718 0.87268 0.8623 0.0
C1151 C 0.52622 0.85259 0.8663 0.0
C1152 C 0.53753 0.87984 0.85251 0.0
C1153 C 0.55935 0.91076 0.86374 0.0
C1154 C 0.52983 0.92263 0.84833 0.0
C1155 C 0.53028 0.9304 0.83909 0.0
C1156 C 0.5384 0.89521 0.83387 0.0
C1157 C 0.54595 0.8516 0.83809 0.0
C1158 C 0.54549 0.84391 0.84733 0.0
H1159 H 0.56529 0.93241 0.86889 0.0
H1160 H 0.56458 0.87245 0.86069 0.0
H1161 H 0.55741 0.94494 0.85843 0.0
H1162 H 0.52361 0.95069 0.85223 0.0
H1163 H 0.52444 0.96477 0.83605 0.0
H1164 H 0.21724 0.74781 0.83825 0.0
H1165 H 0.21806 0.76699 0.8543 0.0
H1166 H 0.2165 0.96148 0.84948 0.0
H1167 H 0.21503 0.94278 0.83346 0.0
H1168 H 0.23483 0.83132 0.86435 0.0
H1169 H 0.18833 0.9363 0.86688 0.0
H1170 H 0.19343 0.89568 0.85707 0.0
H1171 H 0.19831 0.97324 0.85899 0.0
C1172 C 0.2169 0.79466 0.8406 0.0
C1173 C 0.21593 0.84374 0.83457 0.0
C1174 C 0.21749 0.80553 0.84977 0.0
C1175 C 0.21713 0.86558 0.85307 0.0
C1176 C 0.21653 0.91474 0.84707 0.0
H1177 H 0.21838 0.00648 0.90747 0.0
H1178 H 0.21987 0.99665 0.89123 0.0
C1179 C 0.21585 0.90394 0.83791 0.0
C1180 C 0.21732 0.87658 0.8628 0.0
H1181 H 0.20065 0.93806 0.87991 0.0
C1182 C 0.22736 0.85464 0.86775 0.0
C1183 C 0.20755 0.90702 0.8672 0.0
C1184 C 0.19624 0.92895 0.86229 0.0
C1185 C 0.22789 0.8624 0.87703 0.0
C1186 C 0.21811 0.89253 0.88141 0.0
C1187 C 0.20816 0.91528 0.87647 0.0
C1188 C 0.2177 0.89826 0.89121 0.0
C1189 C 0.2389 0.83848 0.88209 0.0
C1190 C 0.21588 0.84615 0.89649 0.0
C1191 C 0.21484 0.8516 0.90572 0.0
C1192 C 0.21563 0.90934 0.90985 0.0
C1193 C 0.21756 0.96146 0.9045 0.0
C1194 C 0.21851 0.95595 0.89525 0.0
H1195 H 0.24676 0.82808 0.87759 0.0
H1196 H 0.24195 0.87216 0.88719 0.0
H1197 H 0.23628 0.79571 0.88562 0.0
H1198 H 0.21502 0.80138 0.89344 0.0
H1199 H 0.21314 0.81068 0.90961 0.0
H1200 H 0.44524 0.51188 0.65826 0.0
H1201 H 0.44562 0.51733 0.64195 0.0
H1202 H 0.46818 0.67986 0.6434 0.0
H1203 H 0.46828 0.67261 0.65971 0.0
H1204 H 0.43737 0.59843 0.63086 0.0
H1205 H 0.4878 0.58197 0.62613 0.0
H1206 H 0.48057 0.56855 0.63678 0.0
H1207 H 0.4838 0.64549 0.63312 0.0
C1208 C 0.4503 0.54858 0.65506 0.0
C1209 C 0.4568 0.59162 0.66017 0.0
C1210 C 0.45053 0.55166 0.64576 0.0
C1211 C 0.45714 0.59826 0.64143 0.0
C1212 C 0.46336 0.64232 0.64657 0.0
H1213 H 0.44447 0.71436 0.58703 0.0
H1214 H 0.44418 0.69917 0.60319 0.0
C1215 C 0.46334 0.63851 0.65587 0.0
C1216 C 0.4572 0.60163 0.63156 0.0
H1217 H 0.47611 0.61468 0.61348 0.0
C1218 C 0.44585 0.60143 0.62706 0.0
C1219 C 0.46826 0.60427 0.62657 0.0
C1220 C 0.48079 0.59939 0.6309 0.0
C1221 C 0.44525 0.6051 0.61773 0.0
C1222 C 0.45629 0.61164 0.61279 0.0
C1223 C 0.46764 0.61048 0.61727 0.0
C1224 C 0.4563 0.62034 0.60298 0.0
C1225 C 0.43279 0.60072 0.61329 0.0
C1226 C 0.46355 0.58254 0.59751 0.0
C1227 C 0.46397 0.59223 0.58831 0.0
C1228 C 0.45702 0.63942 0.58443 0.0
C1229 C 0.44974 0.67705 0.58988 0.0
C1230 C 0.44951 0.66812 0.5991 0.0
H1231 H 0.42612 0.57525 0.61752 0.0
H1232 H 0.42906 0.64748 0.61228 0.0
H1233 H 0.4334 0.57756 0.60671 0.0
H1234 H 0.46892 0.54559 0.60037 0.0
H1235 H 0.46964 0.56263 0.58421 0.0
H1236 H 0.76795 0.62541 0.66013 0.0
H1237 H 0.76696 0.61086 0.64395 0.0
H1238 H 0.80416 0.67781 0.6414 0.0
H1239 H 0.80541 0.69096 0.65757 0.0
H1240 H 0.78485 0.72946 0.62906 0.0
H1241 H 0.78773 0.47486 0.63018 0.0
H1242 H 0.77675 0.51143 0.63744 0.0
H1243 H 0.79292 0.52255 0.63929 0.0
C1244 C 0.77597 0.63651 0.65614 0.0
C1245 C 0.78679 0.65902 0.66015 0.0
C1246 C 0.77535 0.62846 0.64691 0.0
C1247 C 0.78552 0.64293 0.64155 0.0
C1248 C 0.79623 0.66651 0.64547 0.0
H1249 H 0.80613 0.56096 0.58762 0.0
H1250 H 0.80475 0.57542 0.60376 0.0
C1251 C 0.79689 0.67427 0.6547 0.0
C1252 C 0.78509 0.63281 0.63184 0.0
H1253 H 0.78565 0.52061 0.61601 0.0
C1254 C 0.78495 0.6839 0.62618 0.0
C1255 C 0.78532 0.57322 0.62818 0.0
C1256 C 0.78576 0.51714 0.63405 0.0
C1257 C 0.78505 0.67684 0.61688 0.0
C1258 C 0.78529 0.61724 0.61323 0.0
C1259 C 0.78541 0.56617 0.61889 0.0
C1260 C 0.78588 0.60712 0.60352 0.0
C1261 C 0.78519 0.73294 0.61101 0.0
C1262 C 0.77565 0.61944 0.59812 0.0
C1263 C 0.77635 0.6106 0.5889 0.0
C1264 C 0.78732 0.58944 0.58496 0.0
C1265 C 0.79751 0.57656 0.59045 0.0
C1266 C 0.79677 0.5851 0.59966 0.0
H1267 H 0.78679 0.77555 0.61489 0.0
H1268 H 0.79247 0.72878 0.60584 0.0
H1269 H 0.7762 0.73702 0.60754 0.0
H1270 H 0.76712 0.63577 0.60103 0.0
H1271 H 0.76826 0.61986 0.58489 0.0
H1272 H 0.55097 0.28046 0.40818 0.0
H1273 H 0.55008 0.29699 0.39208 0.0
H1274 H 0.51416 0.37907 0.39481 0.0
H1275 H 0.51481 0.3615 0.41093 0.0
H1276 H 0.53109 0.25748 0.37924 0.0
H1277 H 0.53658 0.51022 0.38208 0.0
H1278 H 0.54052 0.4586 0.39105 0.0
H1279 H 0.52466 0.4757 0.38874 0.0
C1280 C 0.54278 0.30105 0.40536 0.0
C1281 C 0.53298 0.31993 0.41085 0.0
C1282 C 0.54233 0.31076 0.39616 0.0
C1283 C 0.53213 0.33985 0.39232 0.0
C1284 C 0.52218 0.35734 0.39771 0.0
H1285 H 0.51699 0.37698 0.33551 0.0
H1286 H 0.51523 0.35851 0.35156 0.0
C1287 C 0.5226 0.34744 0.40691 0.0
C1288 C 0.53207 0.35303 0.38267 0.0
H1289 H 0.53407 0.4697 0.3676 0.0
C1290 C 0.53168 0.30381 0.37667 0.0
C1291 C 0.53296 0.41357 0.3794 0.0
C1292 C 0.5338 0.46774 0.38562 0.0
C1293 C 0.53214 0.31362 0.36743 0.0
C1294 C 0.53296 0.37419 0.36417 0.0
C1295 C 0.53337 0.4234 0.37017 0.0
C1296 C 0.53385 0.38715 0.35454 0.0
C1297 C 0.53206 0.25923 0.36123 0.0
C1298 C 0.54483 0.41056 0.35098 0.0
C1299 C 0.54591 0.42075 0.34182 0.0
C1300 C 0.53599 0.40804 0.33608 0.0
C1301 C 0.52489 0.38606 0.33973 0.0
C1302 C 0.52384 0.37567 0.34888 0.0
H1303 H 0.53362 0.21551 0.36484 0.0
H1304 H 0.52298 0.25651 0.35784 0.0
H1305 H 0.53924 0.26434 0.35601 0.0
H1306 H 0.55265 0.41971 0.35528 0.0
H1307 H 0.55462 0.4371 0.33922 0.0
H1308 H 0.22822 0.40914 0.33372 0.0
H1309 H 0.22965 0.42764 0.34979 0.0
H1310 H 0.19742 0.31591 0.35407 0.0
H1311 H 0.19614 0.29558 0.33805 0.0
H1312 H 0.21227 0.48059 0.36124 0.0
H1313 H 0.22315 0.24156 0.37102 0.0
H1314 H 0.22425 0.26825 0.35965 0.0
H1315 H 0.2095 0.24891 0.36433 0.0
C1316 C 0.22152 0.38794 0.3381 0.0
C1317 C 0.21213 0.35043 0.33464 0.0
C1318 C 0.22231 0.3989 0.34725 0.0
C1319 C 0.21376 0.37235 0.3531 0.0
C1320 C 0.20423 0.3359 0.34967 0.0
H1321 H 0.19585 0.46473 0.40735 0.0
H1322 H 0.19674 0.45353 0.39114 0.0
C1323 C 0.20344 0.32489 0.34051 0.0
C1324 C 0.21472 0.38334 0.36279 0.0
H1325 H 0.21819 0.31056 0.38276 0.0
C1326 C 0.21364 0.44355 0.36596 0.0
C1327 C 0.2167 0.33495 0.36889 0.0
C1328 C 0.21859 0.26983 0.36581 0.0
C1329 C 0.21413 0.45648 0.37511 0.0
C1330 C 0.21557 0.40773 0.38123 0.0
C1331 C 0.21699 0.34775 0.37805 0.0
C1332 C 0.21532 0.4176 0.39098 0.0
C1333 C 0.2132 0.52217 0.37815 0.0
C1334 C 0.22541 0.40022 0.39625 0.0
C1335 C 0.22492 0.40639 0.40551 0.0
C1336 C 0.21429 0.42982 0.40966 0.0
C1337 C 0.20424 0.44757 0.40434 0.0
C1338 C 0.20473 0.44126 0.39508 0.0
H1339 H 0.21565 0.55456 0.37271 0.0
H1340 H 0.20357 0.53185 0.3802 0.0
H1341 H 0.21931 0.53096 0.38395 0.0
H1342 H 0.23365 0.38163 0.39319 0.0
H1343 H 0.23285 0.39287 0.40943 0.0
H1344 H 0.96729 0.99116 0.6582 0.0
H1345 H 0.96877 0.0028 0.64198 0.0
H1346 H 0.95983 0.19447 0.64445 0.0
H1347 H 0.95839 0.18328 0.66064 0.0
H1348 H 0.95083 0.03913 0.63031 0.0
H1349 H 0.99055 0.19834 0.62891 0.0
H1350 H 0.98652 0.15638 0.63886 0.0
H1351 H 0.97835 0.22526 0.63597 0.0
C1352 C 0.96563 0.03574 0.65527 0.0
C1353 C 0.96276 0.08639 0.66067 0.0
C1354 C 0.96654 0.04237 0.64603 0.0
C1355 C 0.96462 0.0997 0.64205 0.0
C1356 C 0.96166 0.1502 0.64742 0.0
H1357 H 0.9437 0.1783 0.58787 0.0
H1358 H 0.94482 0.16215 0.60398 0.0
C1359 C 0.96081 0.1437 0.65665 0.0
C1360 C 0.96513 0.10622 0.63224 0.0
H1361 H 0.97881 0.1873 0.6155 0.0
C1362 C 0.95702 0.07114 0.62706 0.0
C1363 C 0.97334 0.14738 0.62803 0.0
C1364 C 0.98277 0.18354 0.63322 0.0
C1365 C 0.95662 0.07745 0.61776 0.0
C1366 C 0.96438 0.12091 0.61359 0.0
C1367 C 0.97277 0.15461 0.61874 0.0
C1368 C 0.96384 0.13241 0.60389 0.0
C1369 C 0.94796 0.03726 0.61249 0.0
C1370 C 0.9743 0.12312 0.59857 0.0
C1371 C 0.97375 0.13322 0.58938 0.0
C1372 C 0.96273 0.15298 0.58537 0.0
C1373 C 0.95234 0.16346 0.59076 0.0
C1374 C 0.95292 0.15351 0.59995 0.0
H1375 H 0.94536 0.99547 0.61627 0.0
H1376 H 0.9394 0.06311 0.61102 0.0
H1377 H 0.95216 0.02318 0.60605 0.0
H1378 H 0.98285 0.10744 0.60152 0.0
H1379 H 0.98197 0.1258 0.58543 0.0
H1380 H 0.28716 0.19854 0.58254 0.0
H1381 H 0.28577 0.21564 0.59866 0.0
H1382 H 0.28767 0.02095 0.60319 0.0
H1383 H 0.28887 0.00325 0.58711 0.0
H1384 H 0.26775 0.16568 0.61108 0.0
H1385 H 0.31584 0.09515 0.61865 0.0
H1386 H 0.31083 0.11534 0.60754 0.0
H1387 H 0.3071 0.04158 0.6121 0.0
C1388 C 0.2872 0.15934 0.58697 0.0
C1389 C 0.28823 0.09956 0.58356 0.0
C1390 C 0.28644 0.16923 0.59615 0.0
C1391 C 0.28679 0.11958 0.60207 0.0
C1392 C 0.28763 0.05987 0.5987 0.0
H1393 H 0.28685 0.07216 0.6591 0.0
H1394 H 0.28647 0.05939 0.64292 0.0
C1395 C 0.28836 0.0499 0.58953 0.0
C1396 C 0.28622 0.13003 0.61179 0.0
H1397 H 0.30267 0.11235 0.63099 0.0
C1398 C 0.27539 0.15439 0.61545 0.0
C1399 C 0.29621 0.11512 0.61741 0.0
C1400 C 0.30821 0.09081 0.61375 0.0
C1401 C 0.27417 0.16286 0.62469 0.0
C1402 C 0.28415 0.1476 0.63033 0.0
C1403 C 0.29502 0.12378 0.62663 0.0
C1404 C 0.28356 0.15546 0.64011 0.0
C1405 C 0.26212 0.18648 0.62835 0.0
C1406 C 0.28202 0.21375 0.64388 0.0
C1407 C 0.28211 0.22115 0.65313 0.0
C1408 C 0.28385 0.17039 0.65877 0.0
C1409 C 0.2853 0.11203 0.65495 0.0
C1410 C 0.28517 0.10469 0.64571 0.0
H1411 H 0.25448 0.18089 0.62348 0.0
H1412 H 0.25961 0.16245 0.63462 0.0
H1413 H 0.26305 0.236 0.62985 0.0
H1414 H 0.28098 0.25366 0.63966 0.0
H1415 H 0.28085 0.26661 0.65586 0.0
H1416 H 0.0551 0.823 0.40753 0.0
H1417 H 0.0537 0.84785 0.39166 0.0
H1418 H 0.02114 0.95562 0.39664 0.0
H1419 H 0.0226 0.93232 0.41257 0.0
H1420 H 0.01918 0.86484 0.3826 0.0
H1421 H 0.06016 0.01531 0.379 0.0
H1422 H 0.06294 0.94424 0.38471 0.0
H1423 H 0.05293 0.0003 0.38964 0.0
C1424 C 0.04777 0.85293 0.40528 0.0
C1425 C 0.03895 0.87558 0.41131 0.0
C1426 C 0.04698 0.86697 0.39622 0.0
C1427 C 0.03739 0.90393 0.39303 0.0
C1428 C 0.02862 0.92707 0.39901 0.0
H1429 H 0.03165 0.03253 0.33797 0.0
H1430 H 0.03104 0.0279 0.35429 0.0
C1431 C 0.02943 0.91333 0.40809 0.0
C1432 C 0.03616 0.91562 0.38338 0.0
H1433 H 0.05093 0.97922 0.36556 0.0
C1434 C 0.02604 0.89035 0.37887 0.0
C1435 C 0.04508 0.94941 0.3786 0.0
C1436 C 0.05585 0.97941 0.38322 0.0
C1437 C 0.02486 0.89605 0.3696 0.0
C1438 C 0.03407 0.92751 0.36477 0.0
C1439 C 0.04394 0.9548 0.36932 0.0
C1440 C 0.03394 0.93009 0.35494 0.0
C1441 C 0.01386 0.86795 0.36501 0.0
C1442 C 0.03585 0.87659 0.34997 0.0
C1443 C 0.03636 0.8791 0.34068 0.0
C1444 C 0.03497 0.93523 0.33619 0.0
C1445 C 0.03292 0.9887 0.34122 0.0
C1446 C 0.03249 0.98616 0.35053 0.0
H1447 H 0.00629 0.85797 0.36978 0.0
H1448 H 0.01031 0.89874 0.3597 0.0
H1449 H 0.01667 0.82426 0.36182 0.0
H1450 H 0.03719 0.83307 0.35329 0.0
H1451 H 0.03818 0.83726 0.33703 0.0
H1452 H 0.72385 0.78048 0.33759 0.0
H1453 H 0.72365 0.79365 0.35379 0.0
H1454 H 0.69555 0.93211 0.3513 0.0
H1455 H 0.69585 0.92028 0.33507 0.0
H1456 H 0.72764 0.90678 0.3638 0.0
H1457 H 0.68139 0.80342 0.36927 0.0
H1458 H 0.69016 0.79119 0.35918 0.0
H1459 H 0.68224 0.86235 0.36091 0.0
C1460 C 0.71772 0.81422 0.34047 0.0
C1461 C 0.70983 0.84919 0.33504 0.0
C1462 C 0.71757 0.82139 0.34972 0.0
C1463 C 0.70948 0.86323 0.3537 0.0
C1464 C 0.70171 0.89881 0.34833 0.0
H1465 H 0.69313 0.96278 0.40829 0.0
H1466 H 0.69362 0.95173 0.39205 0.0
C1467 C 0.70187 0.89185 0.33907 0.0
C1468 C 0.70925 0.86999 0.36349 0.0
H1469 H 0.69117 0.84746 0.38181 0.0
C1470 C 0.7197 0.89372 0.36777 0.0
C1471 C 0.69884 0.85296 0.36858 0.0
C1472 C 0.68753 0.8256 0.36429 0.0
C1473 C 0.71995 0.90185 0.37704 0.0
C1474 C 0.70956 0.88442 0.38215 0.0
C1475 C 0.69911 0.86071 0.37786 0.0
C1476 C 0.70932 0.89065 0.39197 0.0
C1477 C 0.73121 0.9303 0.38126 0.0
C1478 C 0.71786 0.85916 0.39729 0.0
C1479 C 0.71761 0.86541 0.40655 0.0
C1480 C 0.7087 0.90273 0.41066 0.0
C1481 C 0.70002 0.93331 0.40532 0.0
C1482 C 0.70032 0.92727 0.39605 0.0
H1483 H 0.73682 0.95585 0.3763 0.0
H1484 H 0.72859 0.96204 0.38673 0.0
H1485 H 0.73707 0.89362 0.38412 0.0
H1486 H 0.72468 0.82945 0.39427 0.0
H1487 H 0.72428 0.8405 0.41052 0.0
H1488 H 0.97737 0.68262 0.16206 0.0
H1489 H 0.97861 0.70277 0.14603 0.0
H1490 H 0.94637 0.59137 0.14168 0.0
H1491 H 0.9452 0.56968 0.15766 0.0
H1492 H 0.98064 0.60999 0.1322 0.0
H1493 H 0.93909 0.75664 0.12864 0.0
H1494 H 0.94657 0.74361 0.13924 0.0
H1495 H 0.9367 0.68599 0.13455 0.0
C1496 C 0.97057 0.66211 0.1577 0.0
C1497 C 0.96119 0.6244 0.16114 0.0
C1498 C 0.97126 0.67403 0.14856 0.0
C1499 C 0.96251 0.64904 0.14273 0.0
C1500 C 0.95308 0.61189 0.14612 0.0
H1501 H 0.9616 0.58117 0.08653 0.0
H1502 H 0.96253 0.57625 0.1028 0.0
C1503 C 0.95241 0.59968 0.15525 0.0
C1504 C 0.96352 0.65952 0.13303 0.0
H1505 H 0.94836 0.72087 0.11522 0.0
C1506 C 0.97365 0.63465 0.12849 0.0
C1507 C 0.95443 0.69219 0.12826 0.0
C1508 C 0.94362 0.72167 0.1329 0.0
C1509 C 0.97471 0.63989 0.11919 0.0
C1510 C 0.96537 0.67048 0.11438 0.0
C1511 C 0.95545 0.69712 0.11896 0.0
C1512 C 0.96548 0.67342 0.10455 0.0
C1513 C 0.98576 0.61246 0.11457 0.0
C1514 C 0.96679 0.7298 0.10019 0.0
C1515 C 0.96638 0.73277 0.09089 0.0
C1516 C 0.96451 0.67941 0.0858 0.0
C1517 C 0.96327 0.62295 0.09023 0.0
C1518 C 0.96376 0.62003 0.09952 0.0
H1519 H 0.99336 0.60275 0.11933 0.0
H1520 H 0.98303 0.56873 0.11136 0.0
H1521 H 0.98922 0.64359 0.10928 0.0
H1522 H 0.96811 0.77146 0.104 0.0
H1523 H 0.96754 0.77685 0.0877 0.0
H1524 H 0.28242 0.48356 0.08896 0.0
H1525 H 0.28106 0.49802 0.10512 0.0
H1526 H 0.28466 0.69312 0.10165 0.0
H1527 H 0.28635 0.67923 0.08552 0.0
H1528 H 0.29992 0.55997 0.11582 0.0
H1529 H 0.25374 0.66922 0.11807 0.0
H1530 H 0.2585 0.62411 0.10857 0.0
H1531 H 0.26406 0.70097 0.1099 0.0
C1532 C 0.28298 0.52954 0.09163 0.0
C1533 C 0.28452 0.58027 0.08595 0.0
C1534 C 0.2821 0.53768 0.10084 0.0
C1535 C 0.28262 0.59662 0.10451 0.0
C1536 C 0.28402 0.64737 0.09889 0.0
H1537 H 0.28361 0.75294 0.15731 0.0
H1538 H 0.28278 0.73348 0.14126 0.0
C1539 C 0.28496 0.63931 0.08969 0.0
C1540 C 0.28241 0.60495 0.11427 0.0
H1541 H 0.26586 0.66849 0.13124 0.0
C1542 C 0.29244 0.58324 0.11923 0.0
C1543 C 0.27267 0.63574 0.11861 0.0
C1544 C 0.26157 0.65854 0.11355 0.0
C1545 C 0.29315 0.59281 0.12846 0.0
C1546 C 0.28339 0.62358 0.13283 0.0
C1547 C 0.2733 0.64488 0.12786 0.0
C1548 C 0.28359 0.6349 0.14254 0.0
C1549 C 0.30451 0.57161 0.13338 0.0
C1550 C 0.28412 0.58583 0.14856 0.0
C1551 C 0.28478 0.59677 0.15771 0.0
C1552 C 0.28478 0.65703 0.16103 0.0
C1553 C 0.28389 0.70605 0.15498 0.0
C1554 C 0.2833 0.69503 0.14581 0.0
H1555 H 0.31239 0.56409 0.12879 0.0
H1556 H 0.30731 0.60538 0.13854 0.0
H1557 H 0.30249 0.52753 0.13676 0.0
H1558 H 0.2841 0.53904 0.14617 0.0
H1559 H 0.28554 0.55799 0.16218 0.0
H1560 H 0.05133 0.32133 0.83439 0.0
H1561 H 0.05038 0.30317 0.85052 0.0
H1562 H 0.02601 0.4577 0.85353 0.0
H1563 H 0.027 0.4766 0.83744 0.0
H1564 H 0.04749 0.4522 0.86552 0.0
H1565 H 0.0195 0.2387 0.86484 0.0
H1566 H 0.03254 0.24142 0.85742 0.0
H1567 H 0.01979 0.29232 0.85566 0.0
C1568 C 0.0458 0.35152 0.8385 0.0
C1569 C 0.03923 0.40035 0.83468 0.0
C1570 C 0.04519 0.34078 0.84768 0.0
C1571 C 0.03802 0.37876 0.85315 0.0
C1572 C 0.03151 0.42772 0.84937 0.0
H1573 H 0.0187 0.34871 0.90917 0.0
H1574 H 0.0184 0.36318 0.89293 0.0
C1575 C 0.03205 0.43825 0.8402 0.0
C1576 C 0.03762 0.36866 0.86287 0.0
H1577 H 0.02759 0.26913 0.87885 0.0
C1578 C 0.04313 0.4123 0.86845 0.0
C1579 C 0.03183 0.31673 0.86661 0.0
C1580 C 0.02548 0.26966 0.86086 0.0
C1581 C 0.04319 0.40474 0.87773 0.0
C1582 C 0.03761 0.35226 0.88146 0.0
C1583 C 0.03191 0.30911 0.87591 0.0
C1584 C 0.03769 0.3415 0.89116 0.0
C1585 C 0.04915 0.45285 0.88352 0.0
C1586 C 0.0486 0.32386 0.89543 0.0
C1587 C 0.0488 0.31546 0.90466 0.0
C1588 C 0.03808 0.32487 0.90975 0.0
C1589 C 0.02711 0.34181 0.90541 0.0
C1590 C 0.02691 0.34975 0.89617 0.0
H1591 H 0.05142 0.495 0.87971 0.0
H1592 H 0.04299 0.46518 0.88915 0.0
H1593 H 0.05781 0.43422 0.88638 0.0
H1594 H 0.05699 0.31714 0.89163 0.0
H1595 H 0.0574 0.30292 0.90784 0.0
H1596 H 0.70965 0.42966 0.83552 0.0
H1597 H 0.71015 0.44384 0.8517 0.0
H1598 H 0.71648 0.25048 0.85526 0.0
H1599 H 0.71634 0.23608 0.83907 0.0
H1600 H 0.69441 0.38747 0.86422 0.0
H1601 H 0.74364 0.33199 0.87044 0.0
H1602 H 0.73778 0.35001 0.85948 0.0
H1603 H 0.73529 0.2754 0.86418 0.0
C1604 C 0.71134 0.39031 0.83974 0.0
C1605 C 0.71299 0.33178 0.83602 0.0
C1606 C 0.71154 0.39843 0.84897 0.0
C1607 C 0.71347 0.34831 0.85464 0.0
C1608 C 0.71516 0.28985 0.85097 0.0
H1609 H 0.69756 0.33033 0.91138 0.0
H1610 H 0.69804 0.31415 0.89523 0.0
C1611 C 0.71495 0.28163 0.84174 0.0
C1612 C 0.71328 0.35703 0.86441 0.0
H1613 H 0.7309 0.34493 0.88317 0.0
C1614 C 0.70238 0.37826 0.86838 0.0
C1615 C 0.72374 0.34545 0.86976 0.0
C1616 C 0.73582 0.32495 0.86577 0.0
C1617 C 0.70162 0.38774 0.87761 0.0
C1618 C 0.712 0.37483 0.88298 0.0
C1619 C 0.72294 0.3542 0.87901 0.0
C1620 C 0.71177 0.38395 0.89274 0.0
C1621 C 0.68982 0.41249 0.88152 0.0
C1622 C 0.7195 0.4277 0.89667 0.0
C1623 C 0.71923 0.43717 0.90587 0.0
C1624 C 0.71126 0.40274 0.91131 0.0
C1625 C 0.70364 0.35833 0.90735 0.0
C1626 C 0.70391 0.34893 0.89814 0.0
H1627 H 0.68377 0.43289 0.87632 0.0
H1628 H 0.68468 0.37462 0.88477 0.0
H1629 H 0.69178 0.44778 0.88666 0.0
H1630 H 0.72563 0.4551 0.89259 0.0
H1631 H 0.72512 0.47217 0.90871 0.0
H1632 H 0.5075 0.88619 0.96158 0.0
H1633 H 0.4975 0.94226 0.97369 0.0
H1634 H 0.52612 0.88517 0.99181 0.0
H1635 H 0.53628 0.82911 0.97971 0.0
H1636 H 0.48918 0.90296 0.99107 0.0
H1637 H 0.52674 0.07611 0.99239 0.0
H1638 H 0.52479 0.02441 0.9831 0.0
H1639 H 0.53154 0.99758 0.99331 0.0
C1640 C 0.51159 0.88483 0.96817 0.0
C1641 C 0.52272 0.85362 0.9697 0.0
C1642 C 0.50586 0.91692 0.97506 0.0
C1643 C 0.51121 0.91859 0.98357 0.0
C1644 C 0.52199 0.88509 0.98524 0.0
H1645 H 0.49237 0.10051 0.03271 0.0
H1646 H 0.5024 0.04425 0.02063 0.0
C1647 C 0.52772 0.85278 0.97834 0.0
C1648 C 0.50571 0.95733 0.99058 0.0
H1649 H 0.51091 0.0849 0.00317 0.0
C1650 C 0.4939 0.9428 0.99372 0.0
C1651 C 0.51191 0.00938 0.99394 0.0
C1652 C 0.52441 0.02835 0.99048 0.0
C1653 C 0.48818 0.97853 0.00029 0.0
C1654 C 0.49439 0.03051 0.00367 0.0
C1655 C 0.5062 0.04505 0.00052 0.0
C1656 C 0.48888 0.06922 0.01067 0.0
C1657 C 0.47565 0.95979 0.00372 0.0
C1658 C 0.47821 0.10345 0.00896 0.0
C1659 C 0.47248 0.13591 0.01583 0.0
C1660 C 0.47737 0.13443 0.02451 0.0
C1661 C 0.48838 0.10237 0.02609 0.0
C1662 C 0.49412 0.07018 0.01922 0.0
H1663 H 0.47325 0.91224 0.00174 0.0
H1664 H 0.47528 0.96328 0.01111 0.0
H1665 H 0.46857 0.99102 0.00094 0.0
H1666 H 0.47416 0.10384 0.00235 0.0
H1667 H 0.464 0.16022 0.01442 0.0
H1668 H 0.78585 0.08281 0.01489 0.0
H1669 H 0.77668 0.14544 0.00305 0.0
H1670 H 0.7491 0.21041 0.02147 0.0
H1671 H 0.75818 0.14844 0.03332 0.0
H1672 H 0.75174 0.14855 0.99633 0.0
H1673 H 0.76611 0.368 0.01197 0.0
H1674 H 0.77264 0.29512 0.01514 0.0
H1675 H 0.7577 0.31717 0.01917 0.0
C1676 C 0.77773 0.10976 0.01637 0.0
C1677 C 0.77276 0.11099 0.02503 0.0
C1678 C 0.77255 0.14563 0.00963 0.0
C1679 C 0.76241 0.18335 0.01148 0.0
C1680 C 0.75709 0.18246 0.01999 0.0
H1681 H 0.71692 0.43257 0.98126 0.0
H1682 H 0.72739 0.37496 0.99308 0.0
C1683 C 0.76224 0.14664 0.02672 0.0
C1684 C 0.75742 0.22427 0.00454 0.0
H1685 H 0.75273 0.37481 -0.00055 0.0
C1686 C 0.75201 0.198 0.99697 0.0
C1687 C 0.75782 0.28871 0.00545 0.0
C1688 C 0.76397 0.31913 0.01333 0.0
C1689 C 0.7467 0.23461 0.99033 0.0
C1690 C 0.74705 0.29905 0.99125 0.0
C1691 C 0.75251 0.32536 -0.0012 0.0
C1692 C 0.74166 0.3396 0.98442 0.0
C1693 C 0.74051 0.20405 0.98248 0.0
C1694 C 0.74656 0.34056 0.97577 0.0
C1695 C 0.74064 0.37328 0.96904 0.0
C1696 C 0.72975 0.40581 0.97087 0.0
C1697 C 0.72529 0.40788 0.97967 0.0
C1698 C 0.73123 0.37496 0.9864 0.0
H1699 H 0.73859 0.15489 0.98378 0.0
H1700 H 0.73171 0.22731 0.98081 0.0
H1701 H 0.74664 0.207 0.97657 0.0
H1702 H 0.75475 0.31437 0.97417 0.0
H1703 H 0.74435 0.3712 0.96234 0.0
H1704 H 0.46378 0.08619 0.23086 0.0
H1705 H 0.47435 0.14083 0.24293 0.0
H1706 H 0.5022 0.20147 0.22441 0.0
H1707 H 0.4918 0.14684 0.21234 0.0
H1708 H 0.51128 0.15944 0.24137 0.0
H1709 H 0.47367 0.33128 0.24435 0.0
H1710 H 0.46899 0.2525 0.24511 0.0
H1711 H 0.47518 0.28124 0.23482 0.0
C1712 C 0.47225 0.11041 0.2294 0.0
C1713 C 0.47693 0.11262 0.22066 0.0
C1714 C 0.47821 0.1419 0.23627 0.0
C1715 C 0.4889 0.17593 0.23449 0.0
C1716 C 0.49391 0.17573 0.22587 0.0
H1717 H 0.5376 0.4097 0.26564 0.0
H1718 H 0.52717 0.3558 0.25344 0.0
C1719 C 0.48795 0.14448 0.21901 0.0
C1720 C 0.4947 0.21346 0.24151 0.0
H1721 H 0.49001 0.33846 0.25474 0.0
C1722 C 0.50667 0.19866 0.24429 0.0
C1723 C 0.48863 0.2647 0.24524 0.0
C1724 C 0.47594 0.28392 0.2422 0.0
C1725 C 0.51266 0.23319 0.25087 0.0
C1726 C 0.50659 0.28441 0.25461 0.0
C1727 C 0.49463 0.29927 0.25181 0.0
C1728 C 0.51233 0.32161 0.2617 0.0
C1729 C 0.52533 0.21379 0.25393 0.0
C1730 C 0.50712 0.3222 0.27025 0.0
C1731 C 0.51299 0.35311 0.27719 0.0
C1732 C 0.52413 0.38421 0.27567 0.0
C1733 C 0.52903 0.38603 0.267 0.0
C1734 C 0.52315 0.35494 0.26005 0.0
H1735 H 0.52756 0.16633 0.25181 0.0
H1736 H 0.53231 0.24496 0.251 0.0
H1737 H 0.5261 0.21665 0.26131 0.0
H1738 H 0.49872 0.29703 0.27162 0.0
H1739 H 0.50897 0.35106 0.2838 0.0
H1740 H 0.78824 0.16371 0.23059 0.0
H1741 H 0.77858 0.10623 0.24279 0.0
H1742 H 0.75012 0.04433 0.22486 0.0
H1743 H 0.75967 0.10114 0.21266 0.0
H1744 H 0.75336 0.10897 0.2497 0.0
H1745 H 0.76637 0.88523 0.23476 0.0
H1746 H 0.77343 0.95656 0.23143 0.0
H1747 H 0.75837 0.93659 0.22741 0.0
C1748 C 0.77982 0.13859 0.22929 0.0
C1749 C 0.77475 0.13651 0.22067 0.0
C1750 C 0.77435 0.10571 0.23625 0.0
C1751 C 0.76381 0.07023 0.23464 0.0
C1752 C 0.75839 0.0706 0.22616 0.0
H1753 H 0.7173 0.82692 0.26501 0.0
H1754 H 0.72803 0.88423 0.25329 0.0
C1755 C 0.76383 0.10338 0.21922 0.0
C1756 C 0.75861 0.03127 0.24175 0.0
H1757 H 0.753 0.88228 0.24728 0.0
C1758 C 0.75334 0.05941 0.24923 0.0
C1759 C 0.75862 0.9667 0.24104 0.0
C1760 C 0.76459 0.93426 0.23327 0.0
C1761 C 0.74776 0.02454 0.25597 0.0
C1762 C 0.74771 0.95993 0.25524 0.0
C1763 C 0.75307 0.93181 0.24779 0.0
C1764 C 0.74197 0.92091 0.26213 0.0
C1765 C 0.74168 0.05714 0.26368 0.0
C1766 C 0.74657 0.92085 0.27086 0.0
C1767 C 0.74049 0.88825 0.27754 0.0
C1768 C 0.72976 0.85486 0.27557 0.0
C1769 C 0.72556 0.85225 0.26672 0.0
C1770 C 0.73164 0.88505 0.26003 0.0
H1771 H 0.73997 0.10622 0.26217 0.0
H1772 H 0.73278 0.03512 0.26543 0.0
H1773 H 0.74779 0.05471 0.26961 0.0
H1774 H 0.7547 0.94724 0.27255 0.0
H1775 H 0.744 0.8908 0.2843 0.0
H1776 H 0.24204 0.83979 0.96207 0.0
H1777 H 0.25219 0.78371 0.9741 0.0
H1778 H 0.22317 0.83595 0.99222 0.0
H1779 H 0.21286 0.89204 0.98018 0.0
H1780 H 0.26019 0.82459 0.99144 0.0
H1781 H 0.22387 0.64507 0.99285 0.0
H1782 H 0.22545 0.69692 0.98354 0.0
H1783 H 0.21852 0.72273 0.99374 0.0
C1784 C 0.23787 0.83994 0.96864 0.0
C1785 C 0.22662 0.86999 0.97019 0.0
C1786 C 0.24368 0.80786 0.97548 0.0
C1787 C 0.2383 0.805 0.98397 0.0
C1788 C 0.22733 0.83696 0.98565 0.0
H1789 H 0.25773 0.63014 0.03333 0.0
H1790 H 0.24751 0.6827 0.021 0.0
C1791 C 0.22152 0.86929 0.9788 0.0
C1792 C 0.24406 0.7673 0.99097 0.0
H1793 H 0.23971 0.63949 0.00368 0.0
C1794 C 0.25575 0.78401 0.99411 0.0
C1795 C 0.23822 0.71433 0.99436 0.0
C1796 C 0.22587 0.69317 0.99092 0.0
C1797 C 0.26169 0.74967 0.00073 0.0
C1798 C 0.25584 0.6968 0.00415 0.0
C1799 C 0.24416 0.67997 0.00099 0.0
C1800 C 0.26151 0.65992 0.01128 0.0
C1801 C 0.27404 0.77095 0.00419 0.0
C1802 C 0.27254 0.62811 0.00978 0.0
C1803 C 0.2784 0.59783 0.01681 0.0
C1804 C 0.27328 0.59908 0.02541 0.0
C1805 C 0.26192 0.62858 0.02678 0.0
C1806 C 0.25607 0.65861 0.01975 0.0
H1807 H 0.27609 0.81881 0.00217 0.0
H1808 H 0.27438 0.76792 0.01158 0.0
H1809 H 0.28138 0.74096 0.00146 0.0
H1810 H 0.27676 0.62797 0.00323 0.0
H1811 H 0.28714 0.57542 0.01557 0.0
H1812 H 0.49134 0.6413 0.71089 0.0
H1813 H 0.50188 0.69787 0.72269 0.0
H1814 H 0.47574 0.62978 0.74196 0.0
H1815 H 0.46505 0.57325 0.73017 0.0
H1816 H 0.47843 0.7594 0.74153 0.0
H1817 H 0.52369 0.64148 0.74365 0.0
H1818 H 0.51905 0.66272 0.73257 0.0
H1819 H 0.51031 0.60649 0.73862 0.0
C1820 C 0.48798 0.63732 0.71767 0.0
C1821 C 0.47736 0.60292 0.71962 0.0
C1822 C 0.49404 0.66952 0.7244 0.0
C1823 C 0.48962 0.66759 0.73318 0.0
C1824 C 0.47929 0.63155 0.73521 0.0
H1825 H 0.50767 0.85209 0.78218 0.0
H1826 H 0.49766 0.79632 0.77008 0.0
C1827 C 0.47324 0.59915 0.72848 0.0
C1828 C 0.49515 0.70726 0.74008 0.0
H1829 H 0.52181 0.73584 0.75138 0.0
C1830 C 0.48789 0.75412 0.74373 0.0
C1831 C 0.50753 0.70048 0.74283 0.0
C1832 C 0.5156 0.64979 0.73928 0.0
C1833 C 0.49272 0.79492 0.75004 0.0
C1834 C 0.50507 0.78788 0.75285 0.0
C1835 C 0.51236 0.74122 0.74916 0.0
C1836 C 0.51046 0.82651 0.75993 0.0
C1837 C 0.48464 0.84574 0.75355 0.0
C1838 C 0.52097 0.86202 0.7582 0.0
C1839 C 0.52675 0.89392 0.76512 0.0
C1840 C 0.52214 0.89022 0.77386 0.0
C1841 C 0.5114 0.8561 0.7755 0.0
C1842 C 0.50563 0.82436 0.76859 0.0
H1843 H 0.4768 0.85527 0.74899 0.0
H1844 H 0.4808 0.83201 0.76011 0.0
H1845 H 0.49 0.88856 0.75449 0.0
H1846 H 0.52485 0.86392 0.75155 0.0
H1847 H 0.53506 0.91956 0.76367 0.0
H1848 H 0.25582 0.10586 0.71106 0.0
H1849 H 0.24604 0.04815 0.72308 0.0
H1850 H 0.27488 0.10394 0.74114 0.0
H1851 H 0.28467 0.16252 0.72916 0.0
H1852 H 0.25732 0.95104 0.73207 0.0
H1853 H 0.24335 0.13553 0.75549 0.0
H1854 H 0.24732 0.15035 0.74399 0.0
H1855 H 0.25923 0.1383 0.75213 0.0
C1856 C 0.25996 0.10684 0.71763 0.0
C1857 C 0.271 0.13876 0.71918 0.0
C1858 C 0.25438 0.07368 0.72447 0.0
C1859 C 0.25971 0.07211 0.73299 0.0
C1860 C 0.27052 0.10545 0.73464 0.0
H1861 H 0.24358 0.88181 0.78195 0.0
H1862 H 0.25352 0.93605 0.76967 0.0
C1863 C 0.27611 0.13881 0.72779 0.0
C1864 C 0.25438 0.03227 0.73995 0.0
H1865 H 0.24186 0.03347 0.7608 0.0
C1866 C 0.25387 0.96898 0.73834 0.0
C1867 C 0.24995 0.056 0.7481 0.0
C1868 C 0.24986 0.12381 0.75003 0.0
C1869 C 0.2492 0.9285 0.74477 0.0
C1870 C 0.24481 0.95224 0.75293 0.0
C1871 C 0.2453 0.01552 0.75453 0.0
C1872 C 0.23957 0.91259 0.75995 0.0
C1873 C 0.24922 0.86069 0.74285 0.0
C1874 C 0.22857 0.88034 0.75847 0.0
C1875 C 0.22287 0.84904 0.76548 0.0
C1876 C 0.22807 0.85009 0.77406 0.0
C1877 C 0.23935 0.88023 0.77541 0.0
C1878 C 0.24504 0.91135 0.76841 0.0
H1879 H 0.25554 0.84889 0.73728 0.0
H1880 H 0.25199 0.83429 0.74886 0.0
H1881 H 0.23978 0.84613 0.74095 0.0
H1882 H 0.22413 0.8816 0.752 0.0
H1883 H 0.21414 0.82656 0.76426 0.0
H1884 H 0.4685 0.68393 0.51518 0.0
H1885 H 0.4797 0.62795 0.50358 0.0
H1886 H 0.50624 0.56766 0.52311 0.0
H1887 H 0.49502 0.62263 0.53476 0.0
H1888 H 0.50462 0.62831 0.49751 0.0
H1889 H 0.49132 0.40766 0.51333 0.0
H1890 H 0.48429 0.47959 0.51636 0.0
H1891 H 0.49932 0.46012 0.52052 0.0
C1892 C 0.47685 0.65973 0.51697 0.0
C1893 C 0.48081 0.657 0.52588 0.0
C1894 C 0.48321 0.62771 0.51035 0.0
C1895 C 0.49361 0.59268 0.51256 0.0
C1896 C 0.49807 0.59343 0.52133 0.0
H1897 H 0.53761 0.337 0.48129 0.0
H1898 H 0.52908 0.3999 0.49336 0.0
C1899 C 0.49169 0.62513 0.52795 0.0
C1900 C 0.49931 0.55237 0.50581 0.0
H1901 H 0.50433 0.40209 0.50072 0.0
C1902 C 0.50458 0.57888 0.4982 0.0
C1903 C 0.49918 0.4879 0.50676 0.0
C1904 C 0.49314 0.45692 0.51464 0.0
C1905 C 0.50984 0.54246 0.4915 0.0
C1906 C 0.50961 0.47803 0.49242 0.0
C1907 C 0.50448 0.45155 0.50008 0.0
C1908 C 0.51431 0.43729 0.48535 0.0
C1909 C 0.51565 0.57311 0.48351 0.0
C1910 C 0.50852 0.43605 0.47701 0.0
C1911 C 0.51328 0.40004 0.47015 0.0
C1912 C 0.52391 0.36456 0.47154 0.0
C1913 C 0.52939 0.36381 0.48004 0.0
C1914 C 0.52459 0.39985 0.48691 0.0
H1915 H 0.51774 0.62209 0.48482 0.0
H1916 H 0.52429 0.54947 0.48155 0.0
H1917 H 0.50918 0.57086 0.47779 0.0
H1918 H 0.50042 0.46376 0.47575 0.0
H1919 H 0.50883 0.40148 0.46368 0.0
H1920 H 0.71479 0.92296 0.48076 0.0
H1921 H 0.72526 0.86634 0.49263 0.0
H1922 H 0.75226 0.80193 0.47372 0.0
H1923 H 0.7418 0.85767 0.4618 0.0
H1924 H 0.74114 0.70887 0.48362 0.0
H1925 H 0.75802 0.89597 0.50554 0.0
H1926 H 0.74193 0.90055 0.50282 0.0
H1927 H 0.75325 0.90893 0.49415 0.0
C1928 C 0.7231 0.89778 0.47917 0.0
C1929 C 0.72748 0.89466 0.47036 0.0
C1930 C 0.72908 0.86558 0.48596 0.0
C1931 C 0.73956 0.83034 0.48404 0.0
C1932 C 0.74419 0.82897 0.47532 0.0
H1933 H 0.78566 0.58258 0.51451 0.0
H1934 H 0.77528 0.63828 0.5025 0.0
C1935 C 0.73822 0.86098 0.46853 0.0
C1936 C 0.74518 0.79124 0.49097 0.0
H1937 H 0.75925 0.79489 0.5113 0.0
C1938 C 0.74517 0.7276 0.48966 0.0
C1939 C 0.75036 0.81599 0.49883 0.0
C1940 C 0.75102 0.88413 0.50042 0.0
C1941 C 0.75005 0.68779 0.49608 0.0
C1942 C 0.7552 0.71254 0.50395 0.0
C1943 C 0.75523 0.77618 0.50526 0.0
C1944 C 0.76071 0.6735 0.51092 0.0
C1945 C 0.74944 0.61964 0.4945 0.0
C1946 C 0.75589 0.67463 0.51959 0.0
C1947 C 0.76179 0.6431 0.52645 0.0
C1948 C 0.77267 0.61021 0.52476 0.0
C1949 C 0.77724 0.6072 0.516 0.0
C1950 C 0.77131 0.63887 0.50913 0.0
H1951 H 0.74261 0.60771 0.48926 0.0
H1952 H 0.75861 0.60315 0.49227 0.0
H1953 H 0.74701 0.59497 0.50073 0.0
H1954 H 0.74772 0.70122 0.52109 0.0
H1955 H 0.75807 0.64633 0.53314 0.0
H1956 H 0.71419 0.32624 0.76557 0.0
H1957 H 0.72471 0.37959 0.75337 0.0
H1958 H 0.75276 0.44096 0.77169 0.0
H1959 H 0.74241 0.38751 0.78387 0.0
H1960 H 0.72896 0.50764 0.75337 0.0
H1961 H 0.77263 0.37689 0.75027 0.0
H1962 H 0.75918 0.34648 0.75582 0.0
H1963 H 0.76897 0.40049 0.76144 0.0
C1964 C 0.72274 0.35003 0.76695 0.0
C1965 C 0.72749 0.35271 0.77566 0.0
C1966 C 0.7287 0.38061 0.76 0.0
C1967 C 0.73954 0.41372 0.76164 0.0
C1968 C 0.74451 0.41478 0.77027 0.0
H1969 H 0.7863 0.6549 0.73064 0.0
H1970 H 0.77582 0.60045 0.74275 0.0
C1971 C 0.73855 0.3844 0.77722 0.0
C1972 C 0.74515 0.45115 0.75452 0.0
H1973 H 0.77162 0.47218 0.74265 0.0
C1974 C 0.73826 0.49971 0.75097 0.0
C1975 C 0.7573 0.44082 0.75149 0.0
C1976 C 0.76494 0.38803 0.75489 0.0
C1977 C 0.74328 0.53897 0.74452 0.0
C1978 C 0.75543 0.52867 0.7415 0.0
C1979 C 0.76233 0.48008 0.74505 0.0
C1980 C 0.76106 0.56635 0.73441 0.0
C1981 C 0.73564 0.59179 0.74113 0.0
C1982 C 0.75612 0.56559 0.72578 0.0
C1983 C 0.76205 0.59662 0.71887 0.0
C1984 C 0.77306 0.62864 0.72049 0.0
C1985 C 0.7778 0.63087 0.72921 0.0
C1986 C 0.77186 0.59966 0.73611 0.0
H1987 H 0.72792 0.60278 0.74573 0.0
H1988 H 0.7414 0.6334 0.74024 0.0
H1989 H 0.73165 0.57948 0.73456 0.0
H1990 H 0.74791 0.53928 0.72431 0.0
H1991 H 0.75822 0.59383 0.71221 0.0
H1992 H 0.28157 0.05992 0.51377 0.0
H1993 H 0.27023 0.11313 0.50197 0.0
H1994 H 0.2428 0.16953 0.52109 0.0
H1995 H 0.25412 0.11719 0.53294 0.0
H1996 H 0.24504 0.11012 0.49561 0.0
H1997 H 0.2579 0.33117 0.51152 0.0
H1998 H 0.26512 0.25957 0.51448 0.0
H1999 H 0.25005 0.27787 0.51867 0.0
C2000 C 0.27298 0.08246 0.51542 0.0
C2001 C 0.2688 0.08511 0.52429 0.0
C2002 C 0.26653 0.11289 0.50868 0.0
C2003 C 0.25586 0.14621 0.51073 0.0
C2004 C 0.25117 0.14495 0.51944 0.0
H2005 H 0.21154 0.40233 0.48007 0.0
H2006 H 0.22037 0.33843 0.4919 0.0
C2007 C 0.25761 0.1148 0.52618 0.0
C2008 C 0.25019 0.1862 0.50394 0.0
H2009 H 0.24495 0.33632 0.49889 0.0
C2010 C 0.24499 0.15955 0.49631 0.0
C2011 C 0.25024 0.25066 0.5049 0.0
C2012 C 0.25621 0.28175 0.51279 0.0
C2013 C 0.23967 0.19585 0.48962 0.0
C2014 C 0.23977 0.26029 0.49057 0.0
C2015 C 0.24489 0.28686 0.49822 0.0
C2016 C 0.23483 0.30106 0.48359 0.0
C2017 C 0.23388 0.16503 0.48164 0.0
C2018 C 0.24035 0.30261 0.47514 0.0
C2019 C 0.2354 0.3392 0.46841 0.0
C2020 C 0.22487 0.37499 0.47005 0.0
C2021 C 0.21967 0.3753 0.47863 0.0
C2022 C 0.22465 0.33868 0.48537 0.0
H2023 H 0.23186 0.11598 0.48295 0.0
H2024 H 0.22519 0.18835 0.47969 0.0
H2025 H 0.24033 0.1675 0.47591 0.0
H2026 H 0.24838 0.27486 0.47371 0.0
H2027 H 0.23963 0.33809 0.46187 0.0
H2028 H 0.28605 0.67208 0.23127 0.0
H2029 H 0.27615 0.6142 0.24333 0.0
H2030 H 0.24681 0.56226 0.22547 0.0
H2031 H 0.25661 0.61948 0.21341 0.0
H2032 H 0.25082 0.61668 0.25066 0.0
H2033 H 0.26328 0.39849 0.2338 0.0
H2034 H 0.27042 0.47069 0.23101 0.0
H2035 H 0.25523 0.45315 0.22699 0.0
C2036 C 0.27736 0.64937 0.22998 0.0
C2037 C 0.27216 0.64971 0.22139 0.0
C2038 C 0.27175 0.61626 0.23685 0.0
C2039 C 0.26091 0.58317 0.23519 0.0
C2040 C 0.25529 0.58675 0.2268 0.0
H2041 H 0.21587 0.32792 0.26484 0.0
H2042 H 0.22579 0.38996 0.25325 0.0
C2043 C 0.26088 0.61967 0.21994 0.0
C2044 C 0.25582 0.54193 0.24205 0.0
H2045 H 0.25051 0.39109 0.24656 0.0
C2046 C 0.25079 0.56736 0.24981 0.0
C2047 C 0.25584 0.4777 0.24086 0.0
C2048 C 0.26157 0.44812 0.23276 0.0
C2049 C 0.24548 0.53004 0.25639 0.0
C2050 C 0.24546 0.46577 0.25518 0.0
C2051 C 0.25055 0.4404 0.24743 0.0
C2052 C 0.24018 0.42416 0.26192 0.0
C2053 C 0.23969 0.5597 0.26446 0.0
C2054 C 0.24532 0.42109 0.27048 0.0
C2055 C 0.23973 0.38571 0.27707 0.0
C2056 C 0.22893 0.35258 0.27519 0.0
C2057 C 0.22419 0.35293 0.26647 0.0
C2058 C 0.2298 0.3885 0.25987 0.0
H2059 H 0.23785 0.60917 0.26336 0.0
H2060 H 0.2309 0.53673 0.26625 0.0
H2061 H 0.24605 0.55548 0.27023 0.0
H2062 H 0.25349 0.44728 0.27211 0.0
H2063 H 0.24363 0.38603 0.28372 0.0
H2064 H 0.03463 0.81787 0.48067 0.0
H2065 H 0.02421 0.87113 0.49292 0.0
H2066 H 0.99612 0.93334 0.47469 0.0
H2067 H 0.00638 0.88005 0.46247 0.0
H2068 H 0.02048 -0.00029 0.49257 0.0
H2069 H 0.97633 0.874 0.49645 0.0
H2070 H 0.98957 0.84134 0.49091 0.0
H2071 H 0.97991 0.89532 0.48517 0.0
C2072 C 0.02607 0.8416 0.47933 0.0
C2073 C 0.02133 0.84496 0.47062 0.0
C2074 C 0.02017 0.87214 0.48631 0.0
C2075 C 0.00938 0.90575 0.48469 0.0
C2076 C 0.00433 0.90682 0.47609 0.0
H2077 H 0.96383 0.15607 0.51499 0.0
H2078 H 0.97409 0.09924 0.50302 0.0
C2079 C 0.01024 0.87654 0.46911 0.0
C2080 C 0.00405 0.94464 0.49175 0.0
H2081 H 0.97779 0.97085 0.50364 0.0
C2082 C 0.01119 0.99319 0.49506 0.0
C2083 C 0.99189 0.93618 0.49488 0.0
C2084 C 0.984 0.88359 0.49174 0.0
C2085 C 0.00639 0.03432 0.50134 0.0
C2086 C 0.99423 0.02593 0.50445 0.0
C2087 C 0.9871 0.97729 0.50117 0.0
C2088 C 0.98884 0.0656 0.5114 0.0
C2089 C 0.01428 0.08707 0.50444 0.0
C2090 C 0.99388 0.06607 0.52 0.0
C2091 C 0.98808 0.09849 0.52683 0.0
C2092 C 0.97711 0.13066 0.52516 0.0
C2093 C 0.97231 0.13196 0.51646 0.0
C2094 C 0.97812 0.09936 0.50963 0.0
H2095 H 0.02198 0.09638 0.49974 0.0
H2096 H 0.00871 0.12939 0.5052 0.0
H2097 H 0.01832 0.07572 0.51104 0.0
H2098 H 0.00203 0.03945 0.52152 0.0
H2099 H 0.99196 0.0964 0.53348 0.0
H2100 H 0.96446 0.08703 0.73105 0.0
H2101 H 0.97473 0.14572 0.74285 0.0
H2102 H 0.00197 0.20772 0.72395 0.0
H2103 H 0.99178 0.14973 0.71214 0.0
H2104 H 0.99999 0.14478 0.74908 0.0
H2105 H 0.98619 0.36687 0.73395 0.0
H2106 H 0.97916 0.29504 0.73084 0.0
H2107 H 0.99409 0.31519 0.72658 0.0
C2108 C 0.97275 0.11238 0.72945 0.0
C2109 C 0.97727 0.1142 0.72067 0.0
C2110 C 0.97856 0.14597 0.73617 0.0
C2111 C 0.98892 0.18189 0.73418 0.0
C2112 C 0.99383 0.18115 0.72554 0.0
H2113 H 0.03514 0.42828 0.7647 0.0
H2114 H 0.0249 0.37065 0.75278 0.0
C2115 C 0.98804 0.14767 0.71883 0.0
C2116 C 0.9944 0.22165 0.74107 0.0
H2117 H 0.99964 0.37135 0.7464 0.0
C2118 C 0.99989 0.1943 0.74853 0.0
C2119 C 0.99422 0.28618 0.74028 0.0
C2120 C 0.98801 0.31778 0.73253 0.0
C2121 C 0.00542 0.22993 0.75519 0.0
C2122 C 0.00522 0.29447 0.75441 0.0
C2123 C 0.99975 0.32184 0.74694 0.0
C2124 C 0.01063 0.33413 0.76134 0.0
C2125 C 0.01163 0.19827 0.76293 0.0
C2126 C 0.00567 0.33436 0.76997 0.0
C2127 C 0.01146 0.36715 0.77676 0.0
C2128 C 0.02227 0.40046 0.775 0.0
C2129 C 0.02683 0.40298 0.76624 0.0
C2130 C 0.02102 0.37003 0.75944 0.0
H2131 H 0.01351 0.14927 0.76148 0.0
H2132 H 0.02046 0.22118 0.76465 0.0
H2133 H 0.00553 0.20051 0.76887 0.0
H2134 H 0.9975 0.3078 0.7715 0.0
H2135 H 0.00768 0.36467 0.78344 0.0
H2136 H 0.03789 0.90232 0.26575 0.0
H2137 H 0.02783 0.84473 0.25375 0.0
H2138 H 0.99977 0.7846 0.27215 0.0
H2139 H 0.00962 0.84238 0.28411 0.0
H2140 H 0.02366 0.71709 0.25375 0.0
H2141 H 0.97986 0.8468 0.25076 0.0
H2142 H 0.99326 0.87735 0.25634 0.0
H2143 H 0.98347 0.82313 0.26193 0.0
C2144 C 0.02946 0.87767 0.26719 0.0
C2145 C 0.0245 0.87708 0.27585 0.0
C2146 C 0.02377 0.84465 0.26035 0.0
C2147 C 0.01301 0.811 0.26206 0.0
C2148 C 0.00794 0.81121 0.27066 0.0
H2149 H 0.96604 0.57199 0.23078 0.0
H2150 H 0.97683 0.62285 0.24308 0.0
C2151 C 0.01361 0.84413 0.27749 0.0
C2152 C 0.0074 0.77303 0.25499 0.0
H2153 H 0.98089 0.75141 0.24319 0.0
C2154 C 0.01434 0.72472 0.2514 0.0
C2155 C 0.99522 0.78303 0.252 0.0
C2156 C 0.98754 0.83571 0.25539 0.0
C2157 C 0.00932 0.68546 0.24494 0.0
C2158 C 0.99713 0.69543 0.24197 0.0
C2159 C 0.9902 0.74368 0.24557 0.0
C2160 C 0.99153 0.6583 0.23481 0.0
C2161 C 0.01701 0.63315 0.24146 0.0
C2162 C 0.99636 0.66075 0.22614 0.0
C2163 C 0.99023 0.63188 0.21913 0.0
C2164 C 0.97915 0.60029 0.22066 0.0
C2165 C 0.97459 0.59577 0.22941 0.0
C2166 C 0.98071 0.6249 0.23643 0.0
H2167 H 0.02479 0.62222 0.24601 0.0
H2168 H 0.01132 0.59138 0.24053 0.0
H2169 H 0.02093 0.64599 0.23488 0.0
H2170 H 0.00458 0.68715 0.22474 0.0
H2171 H 0.99395 0.63629 0.21245 0.0
H2172 H 0.03632 0.33196 0.98027 0.0
H2173 H 0.02547 0.38437 0.99239 0.0
H2174 H 0.99789 0.44682 0.97379 0.0
H2175 H 0.00858 0.39432 0.96167 0.0
H2176 H 0.02094 0.51241 0.99266 0.0
H2177 H 0.97752 0.37841 0.99474 0.0
H2178 H 0.99122 0.34952 0.98934 0.0
H2179 H 0.98151 0.40374 0.9837 0.0
C2180 C 0.02783 0.35594 0.97879 0.0
C2181 C 0.02328 0.35898 0.97003 0.0
C2182 C 0.02167 0.38594 0.98571 0.0
C2183 C 0.01084 0.4189 0.98398 0.0
C2184 C 0.00612 0.42071 0.97528 0.0
H2185 H 0.963 0.65367 0.01527 0.0
H2186 H 0.97356 0.59964 0.00314 0.0
C2187 C 0.01227 0.39087 0.96836 0.0
C2188 C 0.00494 0.45502 0.99112 0.0
H2189 H 0.97817 0.47205 0.00278 0.0
C2190 C 0.01162 0.50343 0.99493 0.0
C2191 C 0.99276 0.44331 0.99398 0.0
C2192 C 0.98534 0.39061 0.99029 0.0
C2193 C 0.00635 0.54117 0.00146 0.0
C2194 C 0.99417 0.52941 0.00433 0.0
C2195 C 0.98749 0.48102 0.00051 0.0
C2196 C 0.9883 0.56553 0.01149 0.0
C2197 C 0.01376 0.59397 0.00511 0.0
C2198 C 0.99317 0.56431 0.02015 0.0
C2199 C 0.9872 0.59512 0.02706 0.0
C2200 C 0.97622 0.62738 0.02542 0.0
C2201 C 0.97148 0.62946 0.01671 0.0
C2202 C 0.97746 0.59851 0.00979 0.0
H2203 H 0.02151 0.60645 0.00061 0.0
H2204 H 0.00787 0.63493 0.00613 0.0
H2205 H 0.01771 0.58077 0.01166 0.0
H2206 H 0.0014 0.53817 0.02161 0.0
H2207 H 0.99103 0.59234 0.03372 0.0
H2208 H 0.43046 0.91691 0.04244 0.0
H2209 H 0.43474 0.80683 0.04213 0.0
H2210 H 0.47369 0.84422 0.04048 0.0
H2211 H 0.4695 0.954 0.04075 0.0
H2212 H 0.44709 0.73891 0.0289 0.0
H2213 H 0.47124 0.72492 0.06151 0.0
H2214 H 0.46202 0.79012 0.05832 0.0
H2215 H 0.47737 0.78134 0.05401 0.0
C2216 C 0.43993 0.90166 0.04201 0.0
C2217 C 0.44964 0.94424 0.04171 0.0
C2218 C 0.44236 0.83883 0.04185 0.0
C2219 C 0.45453 0.81747 0.04142 0.0
C2220 C 0.46424 0.85977 0.04103 0.0
H2221 H 0.48765 0.45538 0.04053 0.0
H2222 H 0.4838 0.56557 0.0395 0.0
C2223 C 0.46183 0.92254 0.04121 0.0
C2224 C 0.45708 0.75092 0.04119 0.0
H2225 H 0.47168 0.63608 0.05244 0.0
C2226 C 0.45243 0.71629 0.03406 0.0
C2227 C 0.46408 0.72174 0.04792 0.0
C2228 C 0.46889 0.75623 0.05592 0.0
C2229 C 0.45473 0.65321 0.03341 0.0
C2230 C 0.4617 0.62404 0.04015 0.0
C2231 C 0.46639 0.65872 0.04726 0.0
C2232 C 0.46396 0.55721 0.04012 0.0
C2233 C 0.44985 0.61852 0.02546 0.0
C2234 C 0.45407 0.51612 0.0408 0.0
C2235 C 0.45624 0.45325 0.04142 0.0
C2236 C 0.46835 0.43026 0.04143 0.0
C2237 C 0.47823 0.47159 0.04061 0.0
C2238 C 0.47605 0.5345 0.03999 0.0
H2239 H 0.44765 0.64964 0.01981 0.0
H2240 H 0.4566 0.58381 0.02314 0.0
H2241 H 0.44126 0.59435 0.02738 0.0
H2242 H 0.44468 0.5328 0.04112 0.0
H2243 H 0.44843 0.42297 0.04223 0.0
H2244 H 0.76169 0.78408 0.04082 0.0
H2245 H 0.76532 0.67373 0.03968 0.0
H2246 H 0.8045 0.7045 0.04139 0.0
H2247 H 0.80097 0.81429 0.04282 0.0
H2248 H 0.77979 0.60485 0.02719 0.0
H2249 H 0.79708 0.58454 0.06194 0.0
H2250 H 0.78878 0.65089 0.05802 0.0
H2251 H 0.80481 0.64139 0.05534 0.0
C2252 C 0.77107 0.76735 0.041 0.0
C2253 C 0.78103 0.80808 0.04198 0.0
C2254 C 0.77313 0.70439 0.04028 0.0
C2255 C 0.78516 0.68112 0.04058 0.0
C2256 C 0.79513 0.72164 0.04127 0.0
H2257 H 0.81825 0.3223 0.04207 0.0
H2258 H 0.81397 0.43204 0.04115 0.0
C2259 C 0.79309 0.7845 0.042 0.0
C2260 C 0.78731 0.61433 0.04041 0.0
H2261 H 0.79912 0.49702 0.05274 0.0
C2262 C 0.78397 0.58106 0.03278 0.0
C2263 C 0.79272 0.58369 0.04774 0.0
C2264 C 0.79596 0.61674 0.05626 0.0
C2265 C 0.7862 0.51787 0.03219 0.0
C2266 C 0.79174 0.48741 0.03948 0.0
C2267 C 0.79496 0.52068 0.04714 0.0
C2268 C 0.79431 0.42094 0.03938 0.0
C2269 C 0.78289 0.48457 0.02369 0.0
C2270 C 0.78466 0.37847 0.03868 0.0
C2271 C 0.78709 0.31578 0.03916 0.0
C2272 C 0.79921 0.29452 0.04042 0.0
C2273 C 0.80885 0.33726 0.04102 0.0
C2274 C 0.80642 0.39989 0.04054 0.0
H2275 H 0.78176 0.51663 0.018 0.0
H2276 H 0.79002 0.45019 0.02194 0.0
H2277 H 0.77402 0.46012 0.02466 0.0
H2278 H 0.77523 0.39381 0.03794 0.0
H2279 H 0.77948 0.2841 0.03852 0.0
H2280 H 0.4815 0.79053 0.19262 0.0
H2281 H 0.47715 0.68115 0.1936 0.0
H2282 H 0.45047 0.7155 0.21432 0.0
H2283 H 0.45479 0.82524 0.2134 0.0
H2284 H 0.47899 0.60005 0.20781 0.0
H2285 H 0.43062 0.61843 0.19596 0.0
H2286 H 0.44149 0.68063 0.19499 0.0
H2287 H 0.43418 0.66487 0.2055 0.0
C2288 C 0.47482 0.77494 0.19747 0.0
C2289 C 0.46845 0.81691 0.2029 0.0
C2290 C 0.47229 0.71234 0.19798 0.0
C2291 C 0.46333 0.69031 0.20391 0.0
C2292 C 0.45721 0.7317 0.20954 0.0
H2293 H 0.43565 0.32395 0.21458 0.0
H2294 H 0.43991 0.43368 0.21472 0.0
C2295 C 0.45971 0.79443 0.20902 0.0
C2296 C 0.46043 0.62399 0.20415 0.0
H2297 H 0.43734 0.52042 0.20062 0.0
C2298 C 0.46989 0.5826 0.20623 0.0
C2299 C 0.44854 0.60139 0.20208 0.0
C2300 C 0.43813 0.64349 0.19943 0.0
C2301 C 0.46777 0.5192 0.20637 0.0
C2302 C 0.45592 0.49664 0.20424 0.0
C2303 C 0.44642 0.53797 0.20224 0.0
C2304 C 0.45322 0.43017 0.20399 0.0
C2305 C 0.47819 0.4769 0.20892 0.0
C2306 C 0.45912 0.392 0.1978 0.0
C2307 C 0.45664 0.32919 0.19765 0.0
C2308 C 0.44816 0.30334 0.20368 0.0
C2309 C 0.44212 0.34212 0.20977 0.0
C2310 C 0.44459 0.4049 0.2099 0.0
H2311 H 0.48571 0.50167 0.21243 0.0
H2312 H 0.47483 0.43935 0.21329 0.0
H2313 H 0.48211 0.45604 0.2028 0.0
H2314 H 0.46562 0.41085 0.19305 0.0
H2315 H 0.4613 0.30104 0.19276 0.0
H2316 H 0.79573 0.42378 0.21317 0.0
H2317 H 0.79939 0.53376 0.21478 0.0
H2318 H 0.77405 0.56963 0.19325 0.0
H2319 H 0.77038 0.46005 0.19157 0.0
H2320 H 0.80868 0.61338 0.20203 0.0
H2321 H 0.76198 0.68578 0.2127 0.0
H2322 H 0.7669 0.60683 0.2129 0.0
H2323 H 0.76199 0.6415 0.20261 0.0
C2324 C 0.79093 0.45505 0.20878 0.0
C2325 C 0.78272 0.43305 0.20226 0.0
C2326 C 0.79299 0.51787 0.20974 0.0
C2327 C 0.78684 0.55983 0.20424 0.0
C2328 C 0.77865 0.53811 0.19772 0.0
H2329 H 0.78944 0.94575 0.19318 0.0
H2330 H 0.78541 0.83569 0.1937 0.0
C2331 C 0.77657 0.47538 0.19677 0.0
C2332 C 0.78943 0.62618 0.20497 0.0
H2333 H 0.77573 0.76516 0.20814 0.0
C2334 C 0.80151 0.64658 0.20346 0.0
C2335 C 0.78005 0.66926 0.20684 0.0
C2336 C 0.76702 0.64979 0.20894 0.0
C2337 C 0.8044 0.7092 0.20346 0.0
C2338 C 0.79496 0.7523 0.20515 0.0
C2339 C 0.78292 0.73188 0.20682 0.0
C2340 C 0.79734 0.81895 0.205 0.0
C2341 C 0.81741 0.72885 0.20138 0.0
C2342 C 0.80527 0.84595 0.21125 0.0
C2343 C 0.80756 0.90887 0.21099 0.0
C2344 C 0.80189 0.94595 0.20451 0.0
C2345 C 0.79384 0.91866 0.19832 0.0
C2346 C 0.79157 0.85578 0.19858 0.0
H2347 H 0.82288 0.69122 0.19834 0.0
H2348 H 0.81745 0.76859 0.19676 0.0
H2349 H 0.82206 0.743 0.20764 0.0
H2350 H 0.80962 0.81839 0.21636 0.0
H2351 H 0.81361 0.92851 0.21596 0.0
H2352 H 0.56934 0.07197 0.95398 0.0
H2353 H 0.56534 0.1822 0.95436 0.0
H2354 H 0.52625 0.14725 0.95531 0.0
H2355 H 0.53018 0.03717 0.95521 0.0
H2356 H 0.55152 0.24709 0.94166 0.0
H2357 H 0.53156 0.27081 0.97562 0.0
H2358 H 0.54025 0.20431 0.9722 0.0
H2359 H 0.52447 0.21304 0.9688 0.0
C2360 C 0.55991 0.0878 0.95441 0.0
C2361 C 0.55009 0.04591 0.95453 0.0
C2362 C 0.55764 0.15065 0.95459 0.0
C2363 C 0.54551 0.17266 0.95496 0.0
C2364 C 0.53568 0.13107 0.95516 0.0
H2365 H 0.51296 0.53442 0.95184 0.0
H2366 H 0.51668 0.42421 0.95308 0.0
C2367 C 0.53794 0.0682 0.95497 0.0
C2368 C 0.54315 0.23916 0.95463 0.0
H2369 H 0.53033 0.35789 0.96616 0.0
C2370 C 0.54695 0.27146 0.94703 0.0
C2371 C 0.53711 0.27044 0.96163 0.0
C2372 C 0.53319 0.2381 0.97007 0.0
C2373 C 0.54474 0.33436 0.94618 0.0
C2374 C 0.53877 0.36577 0.95321 0.0
C2375 C 0.53492 0.33347 0.9608 0.0
C2376 C 0.53654 0.43236 0.95278 0.0
C2377 C 0.5486 0.36641 0.93771 0.0
C2378 C 0.54649 0.47318 0.95237 0.0
C2379 C 0.5444 0.53594 0.9516 0.0
C2380 C 0.53231 0.55907 0.95129 0.0
C2381 C 0.52237 0.51801 0.95193 0.0
C2382 C 0.52447 0.45515 0.9527 0.0
H2383 H 0.55015 0.33353 0.93216 0.0
H2384 H 0.54154 0.40022 0.93559 0.0
H2385 H 0.55735 0.39133 0.9389 0.0
H2386 H 0.55588 0.4564 0.95257 0.0
H2387 H 0.55228 0.56606 0.95104 0.0
H2388 H 0.19816 0.16394 0.95123 0.0
H2389 H 0.19483 0.27418 0.95246 0.0
H2390 H 0.23393 0.30216 0.95561 0.0
H2391 H 0.23735 0.19173 0.95445 0.0
H2392 H 0.20135 0.35706 0.96631 0.0
H2393 H 0.22467 0.4117 0.93424 0.0
H2394 H 0.22003 0.33495 0.93719 0.0
H2395 H 0.23369 0.3678 0.94199 0.0
C2396 C 0.20605 0.19334 0.9523 0.0
C2397 C 0.21804 0.16905 0.9527 0.0
C2398 C 0.20413 0.25635 0.95296 0.0
C2399 C 0.21415 0.29618 0.95399 0.0
C2400 C 0.2261 0.27213 0.95463 0.0
H2401 H 0.21947 0.69244 0.95547 0.0
H2402 H 0.22367 0.58267 0.95608 0.0
C2403 C 0.22803 0.2091 0.95396 0.0
C2404 C 0.21208 0.36299 0.95426 0.0
H2405 H 0.21795 0.49539 0.94296 0.0
C2406 C 0.20496 0.38741 0.96121 0.0
C2407 C 0.21683 0.4022 0.94759 0.0
C2408 C 0.22415 0.37798 0.93978 0.0
C2409 C 0.20254 0.4504 0.96172 0.0
C2410 C 0.20721 0.4895 0.955 0.0
C2411 C 0.21441 0.46513 0.94809 0.0
C2412 C 0.20455 0.55583 0.95491 0.0
C2413 C 0.19517 0.47468 0.96948 0.0
C2414 C 0.19241 0.5769 0.95397 0.0
C2415 C 0.18998 0.6396 0.95355 0.0
C2416 C 0.19966 0.68224 0.95399 0.0
C2417 C 0.21182 0.66085 0.95494 0.0
C2418 C 0.21424 0.59817 0.95537 0.0
H2419 H 0.19505 0.44193 0.97516 0.0
H2420 H 0.19895 0.51905 0.97185 0.0
H2421 H 0.18551 0.48228 0.96733 0.0
H2422 H 0.18484 0.54482 0.95341 0.0
H2423 H 0.18056 0.65473 0.95271 0.0
H2424 H 0.56922 0.67279 0.79177 0.0
H2425 H 0.56501 0.5627 0.79143 0.0
H2426 H 0.52604 0.59942 0.78965 0.0
H2427 H 0.53017 0.7093 0.78997 0.0
H2428 H 0.53188 0.51089 0.8022 0.0
H2429 H 0.55451 0.46159 0.76977 0.0
H2430 H 0.56425 0.50001 0.77768 0.0
H2431 H 0.55086 0.53836 0.77336 0.0
C2432 C 0.55977 0.65736 0.79124 0.0
C2433 C 0.55004 0.69975 0.7909 0.0
C2434 C 0.55738 0.59453 0.79102 0.0
C2435 C 0.54523 0.57303 0.79036 0.0
C2436 C 0.53549 0.61515 0.79013 0.0
H2437 H 0.51198 0.20991 0.78914 0.0
H2438 H 0.51564 0.32033 0.78839 0.0
C2439 C 0.53786 0.67793 0.79038 0.0
C2440 C 0.54262 0.50657 0.79014 0.0
H2441 H 0.54826 0.3756 0.77839 0.0
C2442 C 0.53538 0.48132 0.79697 0.0
C2443 C 0.5472 0.46828 0.78329 0.0
C2444 C 0.55454 0.4934 0.77556 0.0
C2445 C 0.53282 0.41842 0.79724 0.0
C2446 C 0.53751 0.38009 0.79045 0.0
C2447 C 0.54469 0.4053 0.78359 0.0
C2448 C 0.53531 0.31333 0.79048 0.0
C2449 C 0.5254 0.39317 0.80492 0.0
C2450 C 0.54521 0.273 0.79167 0.0
C2451 C 0.54316 0.21001 0.79214 0.0
C2452 C 0.53116 0.18613 0.79135 0.0
C2453 C 0.5213 0.22676 0.78991 0.0
C2454 C 0.52337 0.28983 0.78947 0.0
H2455 H 0.52468 0.42635 0.81052 0.0
H2456 H 0.51594 0.38254 0.80258 0.0
H2457 H 0.52956 0.35014 0.80747 0.0
H2458 H 0.5545 0.29041 0.79247 0.0
H2459 H 0.55095 0.1803 0.79338 0.0
H2460 H 0.22109 0.03899 0.78902 0.0
H2461 H 0.22517 0.14895 0.78906 0.0
H2462 H 0.18611 0.18508 0.78991 0.0
H2463 H 0.18196 0.07482 0.78991 0.0
H2464 H 0.19944 0.25716 0.77739 0.0
H2465 H 0.22093 0.26 0.81105 0.0
H2466 H 0.22755 0.20605 0.80338 0.0
H2467 H 0.21191 0.19625 0.80705 0.0
C2468 C 0.21337 0.07026 0.78932 0.0
C2469 C 0.2012 0.04834 0.78959 0.0
C2470 C 0.21572 0.13302 0.78931 0.0
C2471 C 0.20594 0.17486 0.78964 0.0
C2472 C 0.19377 0.15329 0.78969 0.0
H2473 H 0.1986 0.56694 0.79332 0.0
H2474 H 0.1953 0.4572 0.79145 0.0
C2475 C 0.19141 0.09047 0.78967 0.0
C2476 C 0.20842 0.24122 0.78999 0.0
H2477 H 0.22166 0.35224 0.8028 0.0
C2478 C 0.20427 0.2781 0.78295 0.0
C2479 C 0.21474 0.26804 0.79725 0.0
C2480 C 0.21896 0.23075 0.80516 0.0
C2481 C 0.20641 0.3414 0.78292 0.0
C2482 C 0.21269 0.36822 0.7902 0.0
C2483 C 0.21689 0.33127 0.79722 0.0
C2484 C 0.2147 0.43487 0.79082 0.0
C2485 C 0.20209 0.37894 0.77508 0.0
C2486 C 0.22671 0.45837 0.79121 0.0
C2487 C 0.22864 0.52112 0.79227 0.0
C2488 C 0.21858 0.56134 0.79302 0.0
C2489 C 0.20655 0.53747 0.79259 0.0
C2490 C 0.20464 0.47475 0.79153 0.0
H2491 H 0.20034 0.34996 0.76912 0.0
H2492 H 0.19335 0.4023 0.77685 0.0
H2493 H 0.20898 0.41454 0.77331 0.0
H2494 H 0.23459 0.42808 0.79072 0.0
H2495 H 0.238 0.53811 0.79248 0.0
H2496 H 0.43198 0.43195 0.53968 0.0
H2497 H 0.43617 0.32175 0.54004 0.0
H2498 H 0.47521 0.35833 0.54079 0.0
H2499 H 0.47111 0.46823 0.54041 0.0
H2500 H 0.45008 0.24965 0.52817 0.0
H2501 H 0.46992 0.24587 0.56233 0.0
H2502 H 0.46124 0.31009 0.5581 0.0
H2503 H 0.47707 0.29972 0.5549 0.0
C2504 C 0.44145 0.41646 0.53989 0.0
C2505 C 0.4512 0.45879 0.54013 0.0
C2506 C 0.44383 0.35359 0.54012 0.0
C2507 C 0.45599 0.33203 0.5406 0.0
C2508 C 0.46575 0.37409 0.54064 0.0
H2509 H 0.48845 0.96906 0.54397 0.0
H2510 H 0.48494 0.07909 0.54225 0.0
C2511 C 0.46338 0.43689 0.54045 0.0
C2512 C 0.45848 0.26548 0.54098 0.0
H2513 H 0.47135 0.15416 0.55396 0.0
C2514 C 0.4547 0.22865 0.53381 0.0
C2515 C 0.46452 0.2384 0.54835 0.0
C2516 C 0.46833 0.27537 0.5564 0.0
C2517 C 0.45694 0.16537 0.53377 0.0
C2518 C 0.46296 0.13832 0.54115 0.0
C2519 C 0.46679 0.17519 0.5483 0.0
C2520 C 0.46507 0.07154 0.54173 0.0
C2521 C 0.45303 0.12815 0.52578 0.0
C2522 C 0.45506 0.03104 0.54206 0.0
C2523 C 0.45703 0.96828 0.54309 0.0
C2524 C 0.46906 0.9448 0.54386 0.0
C2525 C 0.47908 0.9856 0.54348 0.0
C2526 C 0.47709 0.04843 0.54245 0.0
H2527 H 0.45156 0.1574 0.51981 0.0
H2528 H 0.46001 0.09272 0.52415 0.0
H2529 H 0.44421 0.10461 0.52731 0.0
H2530 H 0.4457 0.04813 0.54173 0.0
H2531 H 0.44909 0.93845 0.54354 0.0
H2532 H 0.78055 0.79504 0.53949 0.0
H2533 H 0.77653 0.90502 0.53945 0.0
H2534 H 0.81562 0.94071 0.53931 0.0
H2535 H 0.81973 0.83054 0.53944 0.0
H2536 H 0.78438 0.98952 0.55243 0.0
H2537 H 0.80248 0.04798 0.51883 0.0
H2538 H 0.79889 0.97046 0.52212 0.0
H2539 H 0.81299 0.00571 0.52574 0.0
C2540 C 0.7883 0.82618 0.5395 0.0
C2541 C 0.80048 0.80408 0.53952 0.0
C2542 C 0.78598 0.88899 0.53941 0.0
C2543 C 0.79578 0.93081 0.53927 0.0
C2544 C 0.80794 0.90906 0.53923 0.0
H2545 H 0.80259 0.32292 0.54349 0.0
H2546 H 0.80588 0.21285 0.54193 0.0
C2547 C 0.81027 0.84619 0.53932 0.0
C2548 C 0.79326 0.99721 0.53963 0.0
H2549 H 0.79747 0.13133 0.52836 0.0
C2550 C 0.78716 0.02055 0.54715 0.0
C2551 C 0.79693 0.03733 0.53273 0.0
C2552 C 0.80309 0.0142 0.52435 0.0
C2553 C 0.78485 0.08338 0.54804 0.0
C2554 C 0.78858 0.12357 0.54116 0.0
C2555 C 0.79463 0.10022 0.53362 0.0
C2556 C 0.78648 0.19023 0.54176 0.0
C2557 C 0.77875 0.10644 0.55644 0.0
C2558 C 0.77447 0.21386 0.54201 0.0
C2559 C 0.77255 0.27679 0.54286 0.0
C2560 C 0.78261 0.31719 0.54342 0.0
C2561 C 0.79464 0.29327 0.54297 0.0
C2562 C 0.79654 0.23036 0.54213 0.0
H2563 H 0.77906 0.07196 0.56189 0.0
H2564 H 0.78322 0.14916 0.55882 0.0
H2565 H 0.76893 0.11681 0.55502 0.0
H2566 H 0.76659 0.18358 0.54156 0.0
H2567 H 0.76319 0.29382 0.54303 0.0
H2568 H 0.45982 0.79153 0.6922 0.0
H2569 H 0.46422 0.90129 0.69228 0.0
H2570 H 0.4407 0.92422 0.71522 0.0
H2571 H 0.43637 0.81451 0.71528 0.0
H2572 H 0.43674 0.01097 0.70141 0.0
H2573 H 0.48623 0.99223 0.71042 0.0
H2574 H 0.48165 0.94692 0.70098 0.0
H2575 H 0.47551 0.92972 0.71183 0.0
C2576 C 0.45567 0.8197 0.69732 0.0
C2577 C 0.44778 0.79388 0.70376 0.0
C2578 C 0.45819 0.88247 0.69735 0.0
C2579 C 0.45293 0.92067 0.70384 0.0
C2580 C 0.44489 0.89543 0.71017 0.0
H2581 H 0.45549 0.31581 0.71317 0.0
H2582 H 0.45132 0.20601 0.71433 0.0
C2583 C 0.44237 0.83267 0.71015 0.0
C2584 C 0.45566 0.98716 0.70394 0.0
H2585 H 0.47905 0.09062 0.70618 0.0
C2586 C 0.44596 0.02852 0.7025 0.0
C2587 C 0.46771 0.00976 0.70538 0.0
C2588 C 0.47837 0.96748 0.70732 0.0
C2589 C 0.44806 0.09194 0.70222 0.0
C2590 C 0.46013 0.11456 0.7036 0.0
C2591 C 0.4698 0.07317 0.70513 0.0
C2592 C 0.463 0.18091 0.70321 0.0
C2593 C 0.43739 0.13402 0.70018 0.0
C2594 C 0.47126 0.20303 0.69678 0.0
C2595 C 0.4737 0.26566 0.69612 0.0
C2596 C 0.46795 0.30758 0.70191 0.0
C2597 C 0.45991 0.28503 0.70851 0.0
C2598 C 0.4575 0.22227 0.70917 0.0
H2599 H 0.42952 0.10896 0.69716 0.0
H2600 H 0.43413 0.15541 0.70647 0.0
H2601 H 0.44025 0.17116 0.69556 0.0
H2602 H 0.47563 0.17188 0.69212 0.0
H2603 H 0.47982 0.2813 0.6909 0.0
H2604 H 0.77045 0.95078 0.69092 0.0
H2605 H 0.77447 0.06037 0.69233 0.0
H2606 H 0.79832 0.0257 0.71478 0.0
H2607 H 0.79433 0.91587 0.71343 0.0
H2608 H 0.77051 0.13935 0.70675 0.0
H2609 H 0.82017 0.1255 0.69789 0.0
H2610 H 0.8096 0.06301 0.696 0.0
H2611 H 0.81555 0.07728 0.707 0.0
C2612 C 0.77645 0.96642 0.69622 0.0
C2613 C 0.78212 0.92452 0.70204 0.0
C2614 C 0.77878 0.02904 0.69698 0.0
C2615 C 0.78684 0.05093 0.70356 0.0
C2616 C 0.79229 0.00952 0.70952 0.0
H2617 H 0.81232 0.41869 0.71616 0.0
H2618 H 0.80813 0.30872 0.71629 0.0
C2619 C 0.79 0.94682 0.70874 0.0
C2620 C 0.78951 0.1172 0.70415 0.0
H2621 H 0.81263 0.22244 0.70232 0.0
C2622 C 0.77971 0.15759 0.70578 0.0
C2623 C 0.80153 0.14067 0.70289 0.0
C2624 C 0.81232 0.09953 0.70077 0.0
C2625 C 0.78163 0.22101 0.70622 0.0
C2626 C 0.79362 0.24446 0.70487 0.0
C2627 C 0.80345 0.20409 0.70336 0.0
C2628 C 0.79612 0.31094 0.70478 0.0
C2629 C 0.77084 0.26239 0.70821 0.0
C2630 C 0.7909 0.34822 0.69817 0.0
C2631 C 0.79335 0.41094 0.69803 0.0
C2632 C 0.80109 0.43752 0.70448 0.0
C2633 C 0.80642 0.39974 0.71104 0.0
C2634 C 0.80398 0.33695 0.71116 0.0
H2635 H 0.76304 0.23684 0.71125 0.0
H2636 H 0.77358 0.29997 0.71279 0.0
H2637 H 0.76753 0.28324 0.7019 0.0
H2638 H 0.78503 0.32867 0.69307 0.0
H2639 H 0.78929 0.43847 0.6928 0.0
H2640 H 0.56336 0.56446 0.46497 0.0
H2641 H 0.5591 0.67402 0.46604 0.0
H2642 H 0.53069 0.65636 0.44611 0.0
H2643 H 0.53501 0.54695 0.44487 0.0
H2644 H 0.56029 0.76112 0.45189 0.0
H2645 H 0.51359 0.74803 0.4669 0.0
H2646 H 0.52426 0.68458 0.46707 0.0
H2647 H 0.51566 0.70151 0.45713 0.0
C2648 C 0.55626 0.58375 0.46077 0.0
C2649 C 0.54952 0.5467 0.45483 0.0
C2650 C 0.55378 0.64635 0.46144 0.0
C2651 C 0.54447 0.67296 0.45625 0.0
C2652 C 0.53774 0.63635 0.45031 0.0
H2653 H 0.51677 0.0318 0.44465 0.0
H2654 H 0.52082 0.92239 0.44613 0.0
C2655 C 0.54023 0.57382 0.44961 0.0
C2656 C 0.54214 0.73957 0.45675 0.0
H2657 H 0.51988 0.84535 0.46135 0.0
C2658 C 0.55151 0.77971 0.45404 0.0
C2659 C 0.53067 0.76338 0.45957 0.0
C2660 C 0.52049 0.72227 0.46291 0.0
C2661 C 0.54957 0.84318 0.45378 0.0
C2662 C 0.53802 0.86699 0.45644 0.0
C2663 C 0.52872 0.82687 0.4593 0.0
C2664 C 0.53526 0.93325 0.45595 0.0
C2665 C 0.55974 0.88404 0.45035 0.0
C2666 C 0.54188 0.9755 0.46112 0.0
C2667 C 0.53955 0.0382 0.46031 0.0
C2668 C 0.53051 0.05973 0.45436 0.0
C2669 C 0.5237 0.01696 0.44937 0.0
C2670 C 0.52604 0.95435 0.45017 0.0
H2671 H 0.56695 0.8577 0.44675 0.0
H2672 H 0.55601 0.91957 0.44579 0.0
H2673 H 0.56419 0.9076 0.45606 0.0
H2674 H 0.54887 0.95998 0.46575 0.0
H2675 H 0.54481 0.06975 0.46437 0.0
H2676 H 0.18556 0.17777 0.46414 0.0
H2677 H 0.18995 0.06837 0.46519 0.0
H2678 H 0.21741 0.08579 0.44456 0.0
H2679 H 0.21295 0.19512 0.44334 0.0
H2680 H 0.18814 0.98087 0.45115 0.0
H2681 H 0.23552 0.99482 0.46497 0.0
H2682 H 0.22485 0.05821 0.46535 0.0
H2683 H 0.23295 0.04089 0.45521 0.0
C2684 C 0.19248 0.15847 0.45977 0.0
C2685 C 0.1989 0.19544 0.45364 0.0
C2686 C 0.19503 0.09595 0.46044 0.0
C2687 C 0.20412 0.0693 0.45505 0.0
C2688 C 0.21054 0.10583 0.44892 0.0
H2689 H 0.2314 0.70961 0.44333 0.0
H2690 H 0.22743 0.81912 0.44476 0.0
C2691 C 0.20797 0.16831 0.44823 0.0
C2692 C 0.2065 0.00271 0.45553 0.0
H2693 H 0.22895 0.89717 0.45974 0.0
C2694 C 0.19701 0.96241 0.4531 0.0
C2695 C 0.21809 0.97906 0.4581 0.0
C2696 C 0.22842 0.02036 0.46114 0.0
C2697 C 0.19893 0.89891 0.45288 0.0
C2698 C 0.2106 0.87523 0.4553 0.0
C2699 C 0.22003 0.91553 0.45788 0.0
C2700 C 0.21333 0.80889 0.45484 0.0
C2701 C 0.18861 0.8579 0.44975 0.0
C2702 C 0.20687 0.76692 0.46017 0.0
C2703 C 0.20914 0.70415 0.45938 0.0
C2704 C 0.21797 0.68227 0.4533 0.0
C2705 C 0.22464 0.72474 0.44815 0.0
C2706 C 0.22235 0.78741 0.44893 0.0
H2707 H 0.18128 0.88403 0.44624 0.0
H2708 H 0.19213 0.82187 0.44519 0.0
H2709 H 0.18437 0.83499 0.4556 0.0
H2710 H 0.20004 0.78272 0.46491 0.0
H2711 H 0.204 0.67281 0.46356 0.0
H2712 H 0.54007 0.19178 0.30334 0.0
H2713 H 0.5361 0.08164 0.30303 0.0
H2714 H 0.55943 0.06349 0.2799 0.0
H2715 H 0.56335 0.17369 0.28009 0.0
H2716 H 0.52585 0.01104 0.28879 0.0
H2717 H 0.57327 0.93641 0.29772 0.0
H2718 H 0.56795 0.01387 0.2994 0.0
H2719 H 0.57217 0.98819 0.28844 0.0
C2720 C 0.5443 0.16448 0.29815 0.0
C2721 C 0.55206 0.19159 0.29176 0.0
C2722 C 0.54206 0.10155 0.29801 0.0
C2723 C 0.54759 0.06448 0.29151 0.0
C2724 C 0.55527 0.09125 0.28507 0.0
H2725 H 0.54545 0.66981 0.28314 0.0
H2726 H 0.54916 0.7798 0.2816 0.0
C2727 C 0.55751 0.15423 0.2852 0.0
C2728 C 0.54517 0.99788 0.29143 0.0
H2729 H 0.55891 0.85875 0.29427 0.0
C2730 C 0.53306 0.97765 0.28998 0.0
C2731 C 0.55463 0.95465 0.29294 0.0
C2732 C 0.56773 0.97412 0.29479 0.0
C2733 C 0.53016 0.91508 0.28999 0.0
C2734 C 0.53958 0.87185 0.29167 0.0
C2735 C 0.55172 0.89207 0.29298 0.0
C2736 C 0.53698 0.80551 0.29239 0.0
C2737 C 0.51706 0.89582 0.28811 0.0
C2738 C 0.52898 0.78359 0.29901 0.0
C2739 C 0.52687 0.72086 0.29992 0.0
C2740 C 0.53281 0.67874 0.29427 0.0
C2741 C 0.54083 0.70093 0.28765 0.0
C2742 C 0.54292 0.76375 0.28673 0.0
H2743 H 0.5119 0.93198 0.28447 0.0
H2744 H 0.51678 0.85301 0.28412 0.0
H2745 H 0.51224 0.88732 0.29452 0.0
H2746 H 0.52455 0.81496 0.3036 0.0
H2747 H 0.52083 0.70534 0.3052 0.0
H2748 H 0.18754 0.56001 0.28092 0.0
H2749 H 0.19189 0.66961 0.28066 0.0
H2750 H 0.21841 0.64658 0.30179 0.0
H2751 H 0.21396 0.53697 0.30226 0.0
H2752 H 0.19001 0.75541 0.29538 0.0
H2753 H 0.23742 0.7382 0.28155 0.0
H2754 H 0.22636 0.67662 0.28074 0.0
H2755 H 0.23428 0.69049 0.29106 0.0
C2756 C 0.1942 0.57806 0.28559 0.0
C2757 C 0.20041 0.53929 0.2916 0.0
C2758 C 0.19673 0.64076 0.28538 0.0
C2759 C 0.20559 0.66589 0.29111 0.0
C2760 C 0.21171 0.62775 0.29719 0.0
H2761 H 0.23446 0.02616 0.30188 0.0
H2762 H 0.23029 0.91649 0.30086 0.0
C2763 C 0.20915 0.56506 0.29744 0.0
C2764 C 0.20824 0.7323 0.29086 0.0
H2765 H 0.23093 0.83624 0.28646 0.0
C2766 C 0.19892 0.77326 0.29338 0.0
C2767 C 0.21989 0.75512 0.28825 0.0
C2768 C 0.23006 0.713 0.28517 0.0
C2769 C 0.20103 0.83664 0.29359 0.0
C2770 C 0.21271 0.85956 0.29102 0.0
C2771 C 0.222 0.81852 0.28842 0.0
C2772 C 0.21557 0.9259 0.29123 0.0
C2773 C 0.19086 0.87829 0.29681 0.0
C2774 C 0.20887 0.96745 0.28599 0.0
C2775 C 0.21124 0.03025 0.28655 0.0
C2776 C 0.22044 0.05261 0.29231 0.0
C2777 C 0.2274 0.01054 0.29732 0.0
C2778 C 0.22499 0.94783 0.29678 0.0
H2779 H 0.18371 0.85279 0.3006 0.0
H2780 H 0.19459 0.91519 0.30114 0.0
H2781 H 0.18633 0.89998 0.29098 0.0
H2782 H 0.20176 0.95134 0.2815 0.0
H2783 H 0.20587 0.0612 0.28248 0.0
H2784 H 0.94724 0.41819 0.54372 0.0
H2785 H 0.94363 0.52782 0.54209 0.0
H2786 H 0.98284 0.56002 0.54184 0.0
H2787 H 0.98656 0.44994 0.54318 0.0
H2788 H 0.95147 0.61816 0.55403 0.0
H2789 H 0.97053 0.65689 0.52008 0.0
H2790 H 0.96671 0.58158 0.52422 0.0
H2791 H 0.98075 0.61835 0.52765 0.0
C2792 C 0.95511 0.44831 0.54314 0.0
C2793 C 0.9672 0.42522 0.54353 0.0
C2794 C 0.95302 0.51101 0.54227 0.0
C2795 C 0.96297 0.55177 0.54173 0.0
C2796 C 0.97505 0.52908 0.54208 0.0
H2797 H 0.96911 0.94621 0.5406 0.0
H2798 H 0.97285 0.83594 0.54087 0.0
C2799 C 0.97715 0.46629 0.54295 0.0
C2800 C 0.96065 0.61831 0.54129 0.0
H2801 H 0.9651 0.74527 0.52842 0.0
C2802 C 0.95439 0.64597 0.54841 0.0
C2803 C 0.96452 0.65423 0.53396 0.0
C2804 C 0.97091 0.62632 0.526 0.0
C2805 C 0.95203 0.70902 0.54847 0.0
C2806 C 0.95588 0.74494 0.54114 0.0
C2807 C 0.96216 0.71736 0.53402 0.0
C2808 C 0.95353 0.81144 0.5408 0.0
C2809 C 0.94569 0.7369 0.55646 0.0
C2810 C 0.94143 0.8339 0.54053 0.0
C2811 C 0.93926 0.89688 0.54045 0.0
C2812 C 0.94916 0.93836 0.54061 0.0
C2813 C 0.96128 0.91553 0.54068 0.0
C2814 C 0.96344 0.85258 0.54075 0.0
H2815 H 0.946 0.70608 0.56235 0.0
H2816 H 0.94999 0.78131 0.55829 0.0
H2817 H 0.93588 0.74552 0.55481 0.0
H2818 H 0.93368 0.8027 0.54043 0.0
H2819 H 0.92984 0.91313 0.54043 0.0
H2820 H 0.30518 0.3153 0.52475 0.0
H2821 H 0.3026 0.42599 0.52619 0.0
H2822 H 0.29023 0.40254 0.55332 0.0
H2823 H 0.29327 0.29225 0.55207 0.0
H2824 H 0.28119 0.48895 0.5299 0.0
H2825 H 0.31649 0.53417 0.55584 0.0
H2826 H 0.31584 0.4632 0.54969 0.0
H2827 H 0.30562 0.47603 0.55896 0.0
C2828 C 0.30212 0.33371 0.53107 0.0
C2829 C 0.29946 0.29487 0.5383 0.0
C2830 C 0.30057 0.39692 0.53186 0.0
C2831 C 0.2964 0.42238 0.5399 0.0
C2832 C 0.2937 0.38385 0.54712 0.0
H2833 H 0.2747 0.78167 0.55785 0.0
H2834 H 0.27832 0.67182 0.55596 0.0
C2835 C 0.29528 0.32072 0.54635 0.0
C2836 C 0.29439 0.48906 0.54063 0.0
H2837 H 0.30244 0.61527 0.55272 0.0
C2838 C 0.2859 0.51673 0.53483 0.0
C2839 C 0.30057 0.52497 0.54709 0.0
C2840 C 0.31023 0.49826 0.55319 0.0
C2841 C 0.28321 0.57933 0.53546 0.0
C2842 C 0.28925 0.61493 0.54199 0.0
C2843 C 0.2978 0.58747 0.54775 0.0
C2844 C 0.28681 0.68095 0.54298 0.0
C2845 C 0.27374 0.60676 0.52927 0.0
C2846 C 0.29046 0.72205 0.53631 0.0
C2847 C 0.2884 0.78468 0.53736 0.0
C2848 C 0.28265 0.80714 0.5451 0.0
C2849 C 0.27899 0.76566 0.55176 0.0
C2850 C 0.28111 0.70306 0.55073 0.0
H2851 H 0.26819 0.57105 0.52584 0.0
H2852 H 0.26741 0.63749 0.53299 0.0
H2853 H 0.27849 0.63452 0.52411 0.0
H2854 H 0.29499 0.70569 0.53032 0.0
H2855 H 0.29122 0.81546 0.53208 0.0
H2856 H 0.96984 0.29429 0.70716 0.0
H2857 H 0.97421 0.40402 0.70762 0.0
H2858 H 0.93527 0.44281 0.70655 0.0
H2859 H 0.93082 0.33305 0.70601 0.0
H2860 H 0.9674 0.48997 0.69451 0.0
H2861 H 0.94744 0.54833 0.72753 0.0
H2862 H 0.95105 0.47071 0.72429 0.0
H2863 H 0.93721 0.50676 0.72031 0.0
C2864 C 0.9622 0.3261 0.70698 0.0
C2865 C 0.94997 0.30502 0.70648 0.0
C2866 C 0.96472 0.38875 0.70732 0.0
C2867 C 0.95506 0.43136 0.70722 0.0
C2868 C 0.94284 0.41055 0.70682 0.0
H2869 H 0.94775 0.82227 0.70257 0.0
H2870 H 0.94478 0.71207 0.70436 0.0
C2871 C 0.94032 0.34791 0.70649 0.0
C2872 C 0.95777 0.49767 0.70702 0.0
H2873 H 0.95275 0.63194 0.71807 0.0
C2874 C 0.96431 0.52103 0.6997 0.0
C2875 C 0.95368 0.53783 0.71379 0.0
C2876 C 0.94705 0.51471 0.72197 0.0
C2877 C 0.96657 0.58394 0.69883 0.0
C2878 C 0.96236 0.62425 0.70556 0.0
C2879 C 0.95594 0.60081 0.71293 0.0
C2880 C 0.96425 0.69113 0.70492 0.0
C2881 C 0.97309 0.60693 0.69059 0.0
C2882 C 0.97618 0.71585 0.70482 0.0
C2883 C 0.97791 0.77883 0.70381 0.0
C2884 C 0.96773 0.81825 0.70296 0.0
C2885 C 0.95578 0.79336 0.7033 0.0
C2886 C 0.95406 0.73037 0.70429 0.0
H2887 H 0.97313 0.57224 0.68517 0.0
H2888 H 0.96869 0.64938 0.68805 0.0
H2889 H 0.98281 0.61772 0.69228 0.0
H2890 H 0.98415 0.68637 0.70548 0.0
H2891 H 0.98721 0.79668 0.70374 0.0
H2892 H 0.28693 0.95105 0.69095 0.0
H2893 H 0.28273 0.84112 0.69117 0.0
H2894 H 0.30573 0.82125 0.71445 0.0
H2895 H 0.30964 0.93138 0.71446 0.0
H2896 H 0.29984 0.74603 0.68992 0.0
H2897 H 0.27374 0.73473 0.72178 0.0
H2898 H 0.27662 0.80585 0.716 0.0
H2899 H 0.28856 0.77099 0.72256 0.0
C2900 C 0.29096 0.92346 0.69619 0.0
C2901 C 0.29857 0.95009 0.70271 0.0
C2902 C 0.28861 0.86064 0.69627 0.0
C2903 C 0.29378 0.82334 0.7029 0.0
C2904 C 0.30147 0.84951 0.70937 0.0
H2905 H 0.29219 0.42981 0.71168 0.0
H2906 H 0.29637 0.53988 0.71258 0.0
C2907 C 0.30383 0.91237 0.7093 0.0
C2908 C 0.29142 0.7567 0.70283 0.0
H2909 H 0.27876 0.64006 0.71492 0.0
C2910 C 0.29521 0.72285 0.69537 0.0
C2911 C 0.2854 0.72676 0.70998 0.0
C2912 C 0.28074 0.7614 0.71801 0.0
C2913 C 0.2932 0.65957 0.69487 0.0
C2914 C 0.28712 0.62971 0.70198 0.0
C2915 C 0.28343 0.66335 0.70949 0.0
C2916 C 0.2843 0.56364 0.70163 0.0
C2917 C 0.29774 0.62495 0.6868 0.0
C2918 C 0.27599 0.54105 0.69528 0.0
C2919 C 0.27361 0.47839 0.69474 0.0
C2920 C 0.2795 0.4372 0.70055 0.0
C2921 C 0.28765 0.46026 0.70703 0.0
C2922 C 0.28998 0.52305 0.70759 0.0
H2923 H 0.30466 0.65165 0.68296 0.0
H2924 H 0.30191 0.58057 0.68878 0.0
H2925 H 0.28983 0.61517 0.68233 0.0
H2926 H 0.27141 0.57191 0.6907 0.0
H2927 H 0.26738 0.46216 0.68962 0.0
H2928 H 0.06158 0.06548 0.46598 0.0
H2929 H 0.05752 0.17547 0.46568 0.0
H2930 H 0.03403 0.15162 0.44275 0.0
H2931 H 0.0382 0.04171 0.44288 0.0
H2932 H 0.06163 0.26001 0.45117 0.0
H2933 H 0.01239 0.24534 0.46114 0.0
H2934 H 0.02311 0.18308 0.46278 0.0
H2935 H 0.01676 0.19744 0.45192 0.0
C2936 C 0.05565 0.08352 0.46081 0.0
C2937 C 0.05017 0.04452 0.45447 0.0
C2938 C 0.05328 0.14638 0.46069 0.0
C2939 C 0.04534 0.17134 0.45428 0.0
C2940 C 0.04 0.13292 0.44786 0.0
H2941 H 0.01837 0.53131 0.44104 0.0
H2942 H 0.0225 0.42169 0.44233 0.0
C2943 C 0.04238 0.07009 0.44796 0.0
C2944 C 0.04277 0.23781 0.45422 0.0
H2945 H 0.0197 0.34269 0.45657 0.0
C2946 C 0.05249 0.27827 0.4524 0.0
C2947 C 0.03083 0.26116 0.45582 0.0
C2948 C 0.02017 0.21967 0.4581 0.0
C2949 C 0.05052 0.34167 0.45192 0.0
C2950 C 0.03855 0.36509 0.45348 0.0
C2951 C 0.02886 0.32456 0.45537 0.0
C2952 C 0.03583 0.43143 0.45297 0.0
C2953 C 0.06118 0.38276 0.44946 0.0
C2954 C 0.04176 0.4731 0.45866 0.0
C2955 C 0.03942 0.53581 0.45793 0.0
C2956 C 0.03099 0.55789 0.45157 0.0
C2957 C 0.02481 0.51577 0.44606 0.0
C2958 C 0.02721 0.45315 0.44676 0.0
H2959 H 0.06879 0.35678 0.44626 0.0
H2960 H 0.05818 0.41964 0.44485 0.0
H2961 H 0.06487 0.40447 0.45559 0.0
H2962 H 0.04821 0.45712 0.46365 0.0
H2963 H 0.04416 0.56691 0.46238 0.0
H2964 H 0.71127 0.70704 0.44283 0.0
H2965 H 0.71548 0.59707 0.44291 0.0
H2966 H 0.69006 0.57325 0.46473 0.0
H2967 H 0.68595 0.68304 0.46484 0.0
H2968 H 0.72451 0.52521 0.45777 0.0
H2969 H 0.67869 0.44694 0.44571 0.0
H2970 H 0.68397 0.52483 0.4444 0.0
H2971 H 0.67843 0.49876 0.45503 0.0
C2972 C 0.7066 0.6786 0.44768 0.0
C2973 C 0.69823 0.70419 0.45381 0.0
C2974 C 0.70898 0.61569 0.44768 0.0
C2975 C 0.70297 0.57705 0.45376 0.0
C2976 C 0.69462 0.6022 0.45988 0.0
H2977 H 0.70432 0.1835 0.46273 0.0
H2978 H 0.70047 0.29363 0.4637 0.0
C2979 C 0.69226 0.66508 0.4599 0.0
C2980 C 0.70566 0.5106 0.45384 0.0
H2981 H 0.6927 0.37031 0.45031 0.0
C2982 C 0.71758 0.49125 0.45612 0.0
C2983 C 0.69656 0.46658 0.45174 0.0
C2984 C 0.68371 0.48507 0.44901 0.0
C2985 C 0.72062 0.42881 0.45644 0.0
C2986 C 0.71156 0.38472 0.45424 0.0
C2987 C 0.69962 0.40416 0.45201 0.0
C2988 C 0.71434 0.31825 0.45396 0.0
C2989 C 0.73344 0.41065 0.45931 0.0
C2990 C 0.72337 0.2955 0.44815 0.0
C2991 C 0.72559 0.23262 0.44758 0.0
C2992 C 0.71872 0.19105 0.45275 0.0
C2993 C 0.7097 0.21406 0.4586 0.0
C2994 C 0.70752 0.27703 0.45919 0.0
H2995 H 0.73797 0.44749 0.46324 0.0
H2996 H 0.73327 0.36822 0.46339 0.0
H2997 H 0.73915 0.40199 0.45331 0.0
H2998 H 0.72853 0.32628 0.44388 0.0
H2999 H 0.73242 0.2165 0.44288 0.0
H3000 H 0.01342 0.2042 0.28979 0.0
H3001 H 0.01689 0.31463 0.28869 0.0
H3002 H 0.05584 0.28663 0.29266 0.0
H3003 H 0.05247 0.17653 0.29385 0.0
H3004 H 0.02725 0.38749 0.30213 0.0
H3005 H 0.05462 0.40068 0.27092 0.0
H3006 H 0.04559 0.33424 0.27388 0.0
H3007 H 0.06043 0.3466 0.2789 0.0
C3008 C 0.02273 0.22153 0.2904 0.0
C3009 C 0.03266 0.18152 0.2919 0.0
C3010 C 0.02469 0.28452 0.28972 0.0
C3011 C 0.03663 0.30855 0.29048 0.0
C3012 C 0.04659 0.26879 0.29185 0.0
H3013 H 0.06955 0.66611 0.29509 0.0
H3014 H 0.06506 0.55639 0.29417 0.0
C3015 C 0.04464 0.20582 0.29252 0.0
C3016 C 0.03858 0.37547 0.29047 0.0
H3017 H 0.05415 0.49041 0.27996 0.0
C3018 C 0.03303 0.41019 0.29724 0.0
C3019 C 0.04617 0.40462 0.28409 0.0
C3020 C 0.05197 0.36978 0.27648 0.0
C3021 C 0.03513 0.4733 0.29795 0.0
C3022 C 0.04284 0.50237 0.29163 0.0
C3023 C 0.04828 0.46778 0.2848 0.0
C3024 C 0.04549 0.5686 0.29208 0.0
C3025 C 0.02941 0.50798 0.30562 0.0
C3026 C 0.03598 0.61152 0.2911 0.0
C3027 C 0.03852 0.67405 0.29163 0.0
C3028 C 0.05063 0.69468 0.29309 0.0
C3029 C 0.06016 0.65149 0.29393 0.0
C3030 C 0.0576 0.58895 0.29342 0.0
H3031 H 0.02624 0.4768 0.311 0.0
H3032 H 0.03604 0.5413 0.30849 0.0
H3033 H 0.02129 0.53384 0.30315 0.0
H3034 H 0.02662 0.59664 0.28986 0.0
H3035 H 0.03103 0.70614 0.29073 0.0
H3036 H 0.71289 0.04241 0.30289 0.0
H3037 H 0.71712 0.15237 0.30285 0.0
H3038 H 0.69249 0.17581 0.28056 0.0
H3039 H 0.68836 0.06602 0.28043 0.0
H3040 H 0.72668 0.22422 0.28818 0.0
H3041 H 0.68039 0.30216 0.29932 0.0
H3042 H 0.68564 0.22429 0.30073 0.0
H3043 H 0.6805 0.25037 0.29 0.0
C3044 C 0.7084 0.07076 0.29795 0.0
C3045 C 0.70024 0.04509 0.29168 0.0
C3046 C 0.7108 0.13367 0.29797 0.0
C3047 C 0.705 0.17221 0.29177 0.0
C3048 C 0.69687 0.14695 0.2855 0.0
H3049 H 0.70663 0.56589 0.28284 0.0
H3050 H 0.70283 0.45573 0.28179 0.0
C3051 C 0.6945 0.08407 0.28546 0.0
C3052 C 0.70768 0.23869 0.29173 0.0
H3053 H 0.69455 0.37889 0.295 0.0
C3054 C 0.71968 0.25813 0.28969 0.0
C3055 C 0.6985 0.28264 0.29365 0.0
C3056 C 0.68555 0.26407 0.29612 0.0
C3057 C 0.72272 0.32059 0.28943 0.0
C3058 C 0.71357 0.36462 0.29146 0.0
C3059 C 0.70155 0.34509 0.29344 0.0
C3060 C 0.71632 0.43111 0.29179 0.0
C3061 C 0.73564 0.33884 0.28682 0.0
C3062 C 0.72513 0.45388 0.29779 0.0
C3063 C 0.72731 0.51677 0.2984 0.0
C3064 C 0.72064 0.55833 0.29311 0.0
C3065 C 0.71185 0.53531 0.28708 0.0
C3066 C 0.7097 0.47233 0.28644 0.0
H3067 H 0.74033 0.30205 0.28299 0.0
H3068 H 0.73563 0.3813 0.28275 0.0
H3069 H 0.74112 0.34748 0.29295 0.0
H3070 H 0.73012 0.42311 0.30215 0.0
H3071 H 0.73396 0.5329 0.30324 0.0
H3072 H 0.9475 0.92217 0.04383 0.0
H3073 H 0.94381 0.03206 0.04281 0.0
H3074 H 0.98282 0.06375 0.03989 0.0
H3075 H 0.98659 0.95344 0.04061 0.0
H3076 H 0.95347 0.1191 0.05463 0.0
H3077 H 0.96765 0.1664 0.01967 0.0
H3078 H 0.96429 0.09015 0.02365 0.0
H3079 H 0.9788 0.12556 0.02624 0.0
C3080 C 0.95529 0.95223 0.04277 0.0
C3081 C 0.96735 0.92896 0.04227 0.0
C3082 C 0.95316 0.01508 0.04225 0.0
C3083 C 0.96303 0.0558 0.04118 0.0
C3084 C 0.97507 0.03289 0.04057 0.0
H3085 H 0.9688 0.45116 0.04119 0.0
H3086 H 0.9728 0.34108 0.04096 0.0
C3087 C 0.97721 0.96995 0.04108 0.0
C3088 C 0.96075 0.12242 0.04127 0.0
H3089 H 0.96345 0.25254 0.02884 0.0
C3090 C 0.95559 0.1483 0.04898 0.0
C3091 C 0.96361 0.16017 0.0339 0.0
C3092 C 0.9688 0.13426 0.02536 0.0
C3093 C 0.95333 0.2113 0.04956 0.0
C3094 C 0.95611 0.24903 0.04217 0.0
C3095 C 0.96133 0.22326 0.03448 0.0
C3096 C 0.95364 0.31544 0.04231 0.0
C3097 C 0.94819 0.23714 0.05813 0.0
C3098 C 0.94152 0.33721 0.04305 0.0
C3099 C 0.93922 0.40003 0.04326 0.0
C3100 C 0.94898 0.44211 0.0427 0.0
C3101 C 0.9611 0.42002 0.04183 0.0
C3102 C 0.9634 0.35718 0.04162 0.0
H3103 H 0.94944 0.20509 0.06381 0.0
H3104 H 0.95267 0.28138 0.05981 0.0
H3105 H 0.93817 0.24552 0.05731 0.0
H3106 H 0.93386 0.30557 0.04346 0.0
H3107 H 0.92981 0.41572 0.04396 0.0
H3108 H 0.31923 0.82215 0.04194 0.0
H3109 H 0.31493 0.93222 0.04166 0.0
H3110 H 0.27599 0.89459 0.0399 0.0
H3111 H 0.28021 0.78478 0.04013 0.0
H3112 H 0.3021 0.00281 0.02868 0.0
H3113 H 0.27904 0.00767 0.06179 0.0
H3114 H 0.28834 0.94394 0.05813 0.0
H3115 H 0.27288 0.95288 0.05405 0.0
C3116 C 0.30977 0.83741 0.04144 0.0
C3117 C 0.30006 0.79489 0.04118 0.0
C3118 C 0.30733 0.90014 0.0413 0.0
C3119 C 0.29514 0.92127 0.04091 0.0
C3120 C 0.28544 0.87903 0.04041 0.0
H3121 H 0.26299 0.28498 0.0428 0.0
H3122 H 0.26639 0.17488 0.0411 0.0
C3123 C 0.28787 0.81635 0.04058 0.0
C3124 C 0.29257 0.9876 0.04108 0.0
H3125 H 0.27874 0.09935 0.05342 0.0
C3126 C 0.29701 0.02407 0.03408 0.0
C3127 C 0.28591 0.01485 0.04815 0.0
C3128 C 0.28134 0.97803 0.056 0.0
C3129 C 0.29485 0.08735 0.03392 0.0
C3130 C 0.28826 0.11462 0.04102 0.0
C3131 C 0.28375 0.07806 0.04798 0.0
C3132 C 0.28627 0.18136 0.04153 0.0
C3133 C 0.29951 0.12438 0.02612 0.0
C3134 C 0.29633 0.22115 0.04238 0.0
C3135 C 0.29443 0.28391 0.0434 0.0
C3136 C 0.28241 0.30794 0.04365 0.0
C3137 C 0.27235 0.26786 0.04274 0.0
C3138 C 0.27427 0.20506 0.04171 0.0
H3139 H 0.30143 0.09504 0.02022 0.0
H3140 H 0.29274 0.16013 0.02418 0.0
H3141 H 0.30822 0.14752 0.02803 0.0
H3142 H 0.30566 0.20347 0.04246 0.0
H3143 H 0.30237 0.31326 0.04426 0.0
H3144 H 0.93925 0.82017 0.21608 0.0
H3145 H 0.94297 0.93038 0.2155 0.0
H3146 H 0.96523 0.90641 0.19192 0.0
H3147 H 0.96122 0.79634 0.19227 0.0
H3148 H 0.96555 0.99155 0.21625 0.0
H3149 H 0.94082 0.0405 0.18462 0.0
H3150 H 0.93889 0.9697 0.19068 0.0
H3151 H 0.95223 0.98126 0.18377 0.0
C3152 C 0.94477 0.83834 0.21068 0.0
C3153 C 0.94988 0.79939 0.20419 0.0
C3154 C 0.94697 0.90129 0.21041 0.0
C3155 C 0.95426 0.92652 0.20362 0.0
C3156 C 0.95942 0.8879 0.19714 0.0
H3157 H 0.98802 0.28744 0.20289 0.0
H3158 H 0.98405 0.17744 0.20384 0.0
C3159 C 0.95722 0.82493 0.19741 0.0
C3160 C 0.95664 0.99316 0.20342 0.0
H3161 H 0.95276 0.12131 0.19072 0.0
C3162 C 0.96273 0.02005 0.21069 0.0
C3163 C 0.95283 0.03014 0.19619 0.0
C3164 C 0.94573 0.00417 0.1884 0.0
C3165 C 0.96524 0.08305 0.21088 0.0
C3166 C 0.96173 0.11973 0.20354 0.0
C3167 C 0.95552 0.09291 0.19631 0.0
C3168 C 0.9642 0.18632 0.20325 0.0
C3169 C 0.97142 0.10994 0.21901 0.0
C3170 C 0.95438 0.2276 0.20244 0.0
C3171 C 0.95662 0.29032 0.20178 0.0
C3172 C 0.96875 0.31308 0.20189 0.0
C3173 C 0.97858 0.27152 0.20274 0.0
C3174 C 0.97633 0.20867 0.20338 0.0
H3175 H 0.97059 0.07928 0.22489 0.0
H3176 H 0.98137 0.11652 0.21759 0.0
H3177 H 0.9674 0.15517 0.22072 0.0
H3178 H 0.94496 0.21119 0.20225 0.0
H3179 H 0.94884 0.32073 0.20095 0.0
H3180 H 0.30999 0.43316 0.21738 0.0
H3181 H 0.30667 0.32255 0.21674 0.0
H3182 H 0.28652 0.34396 0.19214 0.0
H3183 H 0.29018 0.45421 0.19256 0.0
H3184 H 0.28432 0.25956 0.21644 0.0
H3185 H 0.31178 0.21186 0.186 0.0
H3186 H 0.31297 0.28295 0.19208 0.0
H3187 H 0.30036 0.27044 0.18451 0.0
C3188 C 0.30502 0.4143 0.21176 0.0
C3189 C 0.30041 0.45251 0.20499 0.0
C3190 C 0.30306 0.35116 0.21144 0.0
C3191 C 0.29651 0.32514 0.20433 0.0
C3192 C 0.2918 0.3631 0.1976 0.0
H3193 H 0.27079 0.96538 0.18999 0.0
H3194 H 0.27472 0.07518 0.19139 0.0
C3195 C 0.29377 0.42617 0.19791 0.0
C3196 C 0.29433 0.25841 0.20404 0.0
H3197 H 0.29898 0.13113 0.19128 0.0
C3198 C 0.28759 0.2313 0.21099 0.0
C3199 C 0.29865 0.22188 0.1969 0.0
C3200 C 0.30645 0.24806 0.18949 0.0
C3201 C 0.28478 0.16863 0.21087 0.0
C3202 C 0.28893 0.1324 0.20367 0.0
C3203 C 0.29577 0.15935 0.19677 0.0
C3204 C 0.28621 0.06635 0.20311 0.0
C3205 C 0.27715 0.14186 0.21832 0.0
C3206 C 0.29141 0.02532 0.20923 0.0
C3207 C 0.28916 0.9626 0.20846 0.0
C3208 C 0.28168 0.93997 0.20154 0.0
C3209 C 0.27643 0.98143 0.19546 0.0
C3210 C 0.27873 0.04406 0.19621 0.0
H3211 H 0.27261 0.17793 0.22239 0.0
H3212 H 0.26996 0.11077 0.21562 0.0
H3213 H 0.28319 0.11462 0.22278 0.0
H3214 H 0.29733 0.04176 0.21453 0.0
H3215 H 0.29325 0.93186 0.21328 0.0
H3216 H 0.01341 0.03919 0.95351 0.0
H3217 H 0.0169 0.92896 0.95493 0.0
H3218 H 0.05614 0.95849 0.9535 0.0
H3219 H 0.05276 0.06837 0.95198 0.0
H3220 H 0.02921 0.85497 0.9424 0.0
H3221 H 0.05219 0.84752 0.97547 0.0
H3222 H 0.04343 0.91288 0.9717 0.0
H3223 H 0.05888 0.90095 0.96776 0.0
C3224 C 0.02278 0.02225 0.95351 0.0
C3225 C 0.0328 0.06263 0.95266 0.0
C3226 C 0.02476 0.95937 0.95437 0.0
C3227 C 0.03678 0.93588 0.95445 0.0
C3228 C 0.04681 0.97596 0.95366 0.0
H3229 H 0.06997 0.57697 0.95328 0.0
H3230 H 0.06562 0.68699 0.95362 0.0
C3231 C 0.04485 0.0388 0.9528 0.0
C3232 C 0.03883 0.86911 0.95479 0.0
H3233 H 0.05288 0.75628 0.9668 0.0
C3234 C 0.03429 0.8332 0.94776 0.0
C3235 C 0.04552 0.84121 0.96179 0.0
C3236 C 0.0502 0.87746 0.96965 0.0
C3237 C 0.0365 0.77005 0.94744 0.0
C3238 C 0.04325 0.74219 0.9544 0.0
C3239 C 0.04772 0.778 0.96146 0.0
C3240 C 0.04585 0.67586 0.95443 0.0
C3241 C 0.03189 0.73396 0.93952 0.0
C3242 C 0.03616 0.63352 0.95493 0.0
C3243 C 0.03862 0.57086 0.95475 0.0
C3244 C 0.05081 0.54949 0.95411 0.0
C3245 C 0.0605 0.59213 0.95381 0.0
C3246 C 0.05804 0.65484 0.95398 0.0
H3247 H 0.02952 0.76415 0.93381 0.0
H3248 H 0.03889 0.70018 0.93729 0.0
H3249 H 0.02346 0.7085 0.94147 0.0
H3250 H 0.02671 0.64899 0.95549 0.0
H3251 H 0.03097 0.53925 0.95522 0.0
H3252 H 0.70661 0.69107 0.96345 0.0
H3253 H 0.70255 0.80092 0.96458 0.0
H3254 H 0.72968 0.8359 0.94418 0.0
H3255 H 0.73379 0.72626 0.94301 0.0
H3256 H 0.73138 0.91571 0.95859 0.0
H3257 H 0.68324 0.89999 0.94617 0.0
H3258 H 0.68651 0.85246 0.95566 0.0
H3259 H 0.69405 0.83755 0.9452 0.0
C3260 C 0.71168 0.72206 0.95918 0.0
C3261 C 0.72047 0.69978 0.95309 0.0
C3262 C 0.70934 0.78483 0.95983 0.0
C3263 C 0.71566 0.8264 0.95435 0.0
C3264 C 0.72468 0.80453 0.94845 0.0
H3265 H 0.71358 0.21559 0.94366 0.0
H3266 H 0.71796 0.10589 0.94387 0.0
C3267 C 0.72705 0.74185 0.94782 0.0
C3268 C 0.71285 0.89272 0.95469 0.0
H3269 H 0.68994 0.99718 0.95122 0.0
C3270 C 0.72233 0.93358 0.95697 0.0
C3271 C 0.70103 0.91581 0.95256 0.0
C3272 C 0.69064 0.87433 0.94968 0.0
C3273 C 0.72027 0.99698 0.95725 0.0
C3274 C 0.70847 0.01998 0.95508 0.0
C3275 C 0.69897 0.9792 0.95288 0.0
C3276 C 0.70584 0.0864 0.95497 0.0
C3277 C 0.73067 0.03888 0.95997 0.0
C3278 C 0.69739 0.11143 0.96102 0.0
C3279 C 0.69491 0.17418 0.96096 0.0
C3280 C 0.70076 0.21306 0.95477 0.0
C3281 C 0.70907 0.18739 0.94861 0.0
C3282 C 0.71159 0.12465 0.94871 0.0
H3283 H 0.73824 0.01352 0.96332 0.0
H3284 H 0.73451 0.06138 0.95395 0.0
H3285 H 0.7273 0.07528 0.96454 0.0
H3286 H 0.69285 0.08249 0.96588 0.0
H3287 H 0.68858 0.1922 0.96587 0.0
H3288 H 0.01692 0.72167 0.80262 0.0
H3289 H 0.02089 0.83172 0.8018 0.0
H3290 H 0.04961 0.79981 0.78248 0.0
H3291 H 0.04555 0.68967 0.78313 0.0
H3292 H 0.04455 0.88839 0.80556 0.0
H3293 H 0.02761 0.9365 0.77125 0.0
H3294 H 0.02311 0.86902 0.77742 0.0
H3295 H 0.03809 0.87317 0.77236 0.0
C3296 C 0.02393 0.73808 0.79807 0.0
C3297 C 0.0309 0.69684 0.79292 0.0
C3298 C 0.02624 0.80091 0.79766 0.0
C3299 C 0.03547 0.82377 0.79203 0.0
C3300 C 0.04235 0.78301 0.78679 0.0
H3301 H 0.06338 0.18791 0.78106 0.0
H3302 H 0.05943 0.07801 0.78146 0.0
C3303 C 0.04009 0.72007 0.78723 0.0
C3304 C 0.03826 0.89005 0.79195 0.0
H3305 H 0.03758 0.01757 0.77882 0.0
C3306 C 0.043 0.9168 0.79974 0.0
C3307 C 0.03628 0.92662 0.78431 0.0
C3308 C 0.03091 0.90022 0.77586 0.0
C3309 C 0.04599 0.97926 0.80005 0.0
C3310 C 0.04389 0.01611 0.79244 0.0
C3311 C 0.03917 0.98922 0.78464 0.0
C3312 C 0.0465 0.08272 0.79242 0.0
C3313 C 0.05163 0.00485 0.80847 0.0
C3314 C 0.04049 0.12194 0.79843 0.0
C3315 C 0.04284 0.18484 0.79829 0.0
C3316 C 0.05115 0.2099 0.79207 0.0
C3317 C 0.0571 0.17034 0.78604 0.0
C3318 C 0.05477 0.10744 0.7862 0.0
H3319 H 0.0558 0.96826 0.81264 0.0
H3320 H 0.05883 0.03937 0.80691 0.0
H3321 H 0.04434 0.02745 0.81248 0.0
H3322 H 0.03388 0.104 0.80317 0.0
H3323 H 0.03816 0.2137 0.80308 0.0
H3324 H 0.70615 0.06709 0.78322 0.0
H3325 H 0.70195 0.95713 0.78215 0.0
H3326 H 0.72532 0.92449 0.80492 0.0
H3327 H 0.72936 0.0342 0.80615 0.0
H3328 H 0.7196 0.85711 0.7804 0.0
H3329 H 0.69159 0.84456 0.81139 0.0
H3330 H 0.69476 0.91584 0.80573 0.0
H3331 H 0.70637 0.88086 0.81258 0.0
C3332 C 0.71033 0.03653 0.78803 0.0
C3333 C 0.71804 0.05939 0.7948 0.0
C3334 C 0.70798 0.9738 0.78737 0.0
C3335 C 0.71321 0.93308 0.79353 0.0
C3336 C 0.72109 0.95547 0.80018 0.0
H3337 H 0.71016 0.54554 0.8038 0.0
H3338 H 0.7142 0.6556 0.8038 0.0
C3339 C 0.72348 0.01808 0.80082 0.0
C3340 C 0.7104 0.86704 0.79303 0.0
H3341 H 0.69687 0.75035 0.80455 0.0
C3342 C 0.71457 0.83366 0.78564 0.0
C3343 C 0.70384 0.83697 0.7999 0.0
C3344 C 0.69877 0.87133 0.80783 0.0
C3345 C 0.71262 0.77029 0.78503 0.0
C3346 C 0.70613 0.74012 0.79193 0.0
C3347 C 0.70186 0.77372 0.79928 0.0
C3348 C 0.70383 0.67345 0.79175 0.0
C3349 C 0.7178 0.73591 0.77714 0.0
C3350 C 0.69657 0.64728 0.78502 0.0
C3351 C 0.69431 0.58432 0.78497 0.0
C3352 C 0.69924 0.54654 0.79168 0.0
C3353 C 0.7064 0.57319 0.79846 0.0
C3354 C 0.70865 0.63608 0.79851 0.0
H3355 H 0.725 0.7628 0.77361 0.0
H3356 H 0.72184 0.69153 0.77927 0.0
H3357 H 0.71027 0.72619 0.77234 0.0
H3358 H 0.69259 0.67559 0.77984 0.0
H3359 H 0.68884 0.56527 0.77961 0.0
H3360 H 0.32395 0.42846 0.04165 0.0
H3361 H 0.34407 0.37756 0.04141 0.0
H3362 H 0.35768 0.50516 0.06103 0.0
H3363 H 0.33767 0.55595 0.06138 0.0
H3364 H 0.36703 0.43348 0.0371 0.0
H3365 H 0.36713 0.33691 0.07133 0.0
H3366 H 0.35323 0.36258 0.06587 0.0
H3367 H 0.36354 0.41709 0.07087 0.0
C3368 C 0.3312 0.44536 0.04597 0.0
C3369 C 0.32921 0.49623 0.05154 0.0
C3370 C 0.34267 0.41627 0.04581 0.0
C3371 C 0.35228 0.43719 0.05128 0.0
C3372 C 0.3503 0.48764 0.05688 0.0
H3373 H 0.42918 0.36576 0.06006 0.0
H3374 H 0.40801 0.404 0.05991 0.0
C3375 C 0.33887 0.5168 0.05703 0.0
C3376 C 0.36459 0.40841 0.05087 0.0
H3377 H 0.38638 0.33794 0.06366 0.0
C3378 C 0.37124 0.41193 0.04286 0.0
C3379 C 0.37001 0.38061 0.05843 0.0
C3380 C 0.36308 0.37347 0.06709 0.0
C3381 C 0.38338 0.3902 0.04229 0.0
C3382 C 0.38888 0.36336 0.04989 0.0
C3383 C 0.38214 0.35882 0.05786 0.0
C3384 C 0.40171 0.34063 0.0498 0.0
C3385 C 0.39036 0.39804 0.03365 0.0
C3386 C 0.40513 0.29215 0.04419 0.0
C3387 C 0.41723 0.27028 0.04424 0.0
C3388 C 0.42608 0.29624 0.04996 0.0
C3389 C 0.42259 0.34473 0.05559 0.0
C3390 C 0.41051 0.36662 0.05551 0.0
H3391 H 0.38591 0.43221 0.02921 0.0
H3392 H 0.4 0.41263 0.03494 0.0
H3393 H 0.39063 0.35361 0.03007 0.0
H3394 H 0.39842 0.27075 0.03985 0.0
H3395 H 0.41959 0.23265 0.03986 0.0
H3396 H 0.82346 0.93773 0.03867 0.0
H3397 H 0.8434 0.88557 0.03817 0.0
H3398 H 0.85436 0.97731 0.06239 0.0
H3399 H 0.83464 0.03084 0.06281 0.0
H3400 H 0.87219 0.98211 0.04987 0.0
H3401 H 0.85505 0.74388 0.05329 0.0
H3402 H 0.84845 0.78459 0.04405 0.0
H3403 H 0.84537 0.80966 0.05526 0.0
C3404 C 0.83009 0.94648 0.04392 0.0
C3405 C 0.82748 0.98839 0.05078 0.0
C3406 C 0.84146 0.91641 0.04364 0.0
C3407 C 0.8503 0.92698 0.0503 0.0
C3408 C 0.84766 0.96848 0.05718 0.0
H3409 H 0.91387 0.70831 0.063 0.0
H3410 H 0.89419 0.76219 0.06254 0.0
C3411 C 0.83637 -0.00106 0.05742 0.0
C3412 C 0.86245 0.89618 0.05003 0.0
H3413 H 0.87631 0.75602 0.05013 0.0
C3414 C 0.87311 0.93266 0.04993 0.0
C3415 C 0.8636 0.8317 0.05021 0.0
C3416 C 0.85252 0.79011 0.0508 0.0
C3417 C 0.88491 0.90644 0.05005 0.0
C3418 C 0.88606 0.84194 0.05002 0.0
C3419 C 0.8754 0.80548 0.05008 0.0
C3420 C 0.8982 0.81112 0.05032 0.0
C3421 C 0.89599 0.94808 0.05046 0.0
C3422 C 0.90701 0.8208 0.0436 0.0
C3423 C 0.91835 0.79052 0.0439 0.0
C3424 C 0.92098 0.74929 0.05085 0.0
C3425 C 0.91212 0.73965 0.05755 0.0
C3426 C 0.90086 0.77033 0.05729 0.0
H3427 H 0.8935 0.99462 0.05285 0.0
H3428 H 0.90319 0.92908 0.05494 0.0
H3429 H 0.89999 0.95273 0.04368 0.0
H3430 H 0.90505 0.85107 0.03806 0.0
H3431 H 0.92496 0.79856 0.03861 0.0
H3432 H 0.32372 0.81576 0.20563 0.0
H3433 H 0.34409 0.8641 0.20597 0.0
H3434 H 0.35711 0.736 0.1862 0.0
H3435 H 0.33694 0.68689 0.18592 0.0
H3436 H 0.37264 0.74637 0.20077 0.0
H3437 H 0.36018 0.97546 0.18737 0.0
H3438 H 0.35133 0.95097 0.19684 0.0
H3439 H 0.35007 0.91012 0.18648 0.0
C3440 C 0.3309 0.79821 0.2013 0.0
C3441 C 0.32872 0.74746 0.19575 0.0
C3442 C 0.34251 0.82607 0.20148 0.0
C3443 C 0.35206 0.80397 0.19604 0.0
C3444 C 0.34985 0.75377 0.19044 0.0
H3445 H 0.42837 0.88309 0.18495 0.0
H3446 H 0.40745 0.84174 0.18563 0.0
C3447 C 0.3383 0.72582 0.19028 0.0
C3448 C 0.36453 0.83122 0.19639 0.0
H3449 H 0.38073 0.96222 0.1923 0.0
C3450 C 0.37441 0.79356 0.19891 0.0
C3451 C 0.36679 0.89284 0.194 0.0
C3452 C 0.35656 0.9347 0.19094 0.0
C3453 C 0.38653 0.81584 0.1991 0.0
C3454 C 0.3888 0.87714 0.19658 0.0
C3455 C 0.37891 0.91518 0.19421 0.0
C3456 C 0.40144 0.90224 0.19619 0.0
C3457 C 0.39678 0.77378 0.20205 0.0
C3458 C 0.40487 0.95068 0.2018 0.0
C3459 C 0.4168 0.97452 0.20142 0.0
C3460 C 0.42547 0.95061 0.19537 0.0
C3461 C 0.42194 0.90242 0.1897 0.0
C3462 C 0.41001 0.87852 0.19011 0.0
H3463 H 0.39321 0.73381 0.20584 0.0
H3464 H 0.40171 0.75626 0.19608 0.0
H3465 H 0.40354 0.79858 0.20628 0.0
H3466 H 0.39834 0.96973 0.20651 0.0
H3467 H 0.41921 0.01177 0.20586 0.0
H3468 H 0.82486 0.31285 0.2048 0.0
H3469 H 0.84482 0.36546 0.2049 0.0
H3470 H 0.85776 0.24669 0.18392 0.0
H3471 H 0.83792 0.19422 0.18372 0.0
H3472 H 0.86821 0.30966 0.20809 0.0
H3473 H 0.86613 0.41974 0.17477 0.0
H3474 H 0.85261 0.39103 0.18042 0.0
H3475 H 0.86273 0.33928 0.17466 0.0
C3476 C 0.83192 0.29829 0.20016 0.0
C3477 C 0.82981 0.24937 0.19425 0.0
C3478 C 0.8433 0.32835 0.20023 0.0
C3479 C 0.85268 0.3104 0.19434 0.0
C3480 C 0.85056 0.26194 0.1884 0.0
H3481 H 0.92884 0.38938 0.18384 0.0
H3482 H 0.90768 0.35097 0.18425 0.0
C3483 C 0.83923 0.23179 0.18834 0.0
C3484 C 0.86492 0.34004 0.19464 0.0
H3485 H 0.88581 0.41694 0.18183 0.0
C3486 C 0.87203 0.33379 0.2024 0.0
C3487 C 0.86984 0.3712 0.18718 0.0
C3488 C 0.8624 0.38131 0.17881 0.0
C3489 C 0.88416 0.35599 0.20279 0.0
C3490 C 0.88917 0.38618 0.19527 0.0
C3491 C 0.88195 0.39352 0.18757 0.0
C3492 C 0.90198 0.40933 0.19516 0.0
C3493 C 0.89165 0.34501 0.21112 0.0
C3494 C 0.90573 0.45518 0.20111 0.0
C3495 C 0.91783 0.47709 0.20092 0.0
C3496 C 0.92634 0.45388 0.19471 0.0
C3497 C 0.92251 0.40824 0.1887 0.0
C3498 C 0.91043 0.38626 0.18892 0.0
H3499 H 0.88753 0.30875 0.21538 0.0
H3500 H 0.90123 0.33161 0.20942 0.0
H3501 H 0.89203 0.38786 0.21508 0.0
H3502 H 0.89928 0.47443 0.20586 0.0
H3503 H 0.92045 0.51257 0.2056 0.0
H3504 H 0.6712 0.49983 0.95661 0.0
H3505 H 0.64968 0.53285 0.95653 0.0
H3506 H 0.65741 0.65567 0.9347 0.0
H3507 H 0.6789 0.62228 0.93462 0.0
H3508 H 0.63991 0.64873 0.95896 0.0
H3509 H 0.62792 0.55849 0.9255 0.0
H3510 H 0.64177 0.53625 0.93134 0.0
H3511 H 0.64114 0.60785 0.92542 0.0
C3512 C 0.66833 0.5338 0.95178 0.0
C3513 C 0.67675 0.55813 0.94558 0.0
C3514 C 0.65603 0.55256 0.95174 0.0
C3515 C 0.65192 0.59576 0.9455 0.0
C3516 C 0.66034 0.62112 0.93943 0.0
H3517 H 0.58745 0.8044 0.93424 0.0
H3518 H 0.60753 0.75459 0.93491 0.0
C3519 C 0.67264 0.60228 0.93944 0.0
C3520 C 0.63888 0.61552 0.94546 0.0
H3521 H 0.61354 0.62781 0.93209 0.0
C3522 C 0.63408 0.64356 0.95313 0.0
C3523 C 0.6313 0.60833 0.93785 0.0
C3524 C 0.63574 0.57555 0.92959 0.0
C3525 C 0.62204 0.66699 0.95327 0.0
C3526 C 0.61461 0.66143 0.94557 0.0
C3527 C 0.6193 0.63202 0.93797 0.0
C3528 C 0.60222 0.68931 0.94506 0.0
C3529 C 0.61751 0.69956 0.96152 0.0
C3530 C 0.59254 0.66828 0.95045 0.0
C3531 C 0.58099 0.69667 0.95008 0.0
C3532 C 0.579 0.74649 0.94431 0.0
C3533 C 0.58868 0.76637 0.93879 0.0
C3534 C 0.60017 0.73793 0.93915 0.0
H3535 H 0.62511 0.70948 0.96628 0.0
H3536 H 0.61293 0.74328 0.95972 0.0
H3537 H 0.61064 0.67035 0.96497 0.0
H3538 H 0.59392 0.63014 0.95495 0.0
H3539 H 0.5737 0.68006 0.95438 0.0
H3540 H 0.16413 0.94823 0.93251 0.0
H3541 H 0.14473 0.00482 0.93286 0.0
H3542 H 0.15595 0.0935 0.95726 0.0
H3543 H 0.17557 0.0385 0.95681 0.0
H3544 H 0.12666 0.00285 0.94499 0.0
H3545 H 0.14557 0.23808 0.94243 0.0
H3546 H 0.15485 0.17091 0.94049 0.0
H3547 H 0.15166 0.19583 0.9517 0.0
C3548 C 0.16251 0.98008 0.93792 0.0
C3549 C 0.17139 0.9891 0.94461 0.0
C3550 C 0.15141 0.01232 0.93812 0.0
C3551 C 0.14896 0.05398 0.94502 0.0
C3552 C 0.15777 0.0627 0.95176 0.0
H3553 H 0.07515 0.19154 0.95693 0.0
H3554 H 0.09474 0.13605 0.95723 0.0
C3555 C 0.16895 0.03097 0.95151 0.0
C3556 C 0.13704 0.08693 0.94524 0.0
H3557 H 0.12422 0.2295 0.94566 0.0
C3558 C 0.12612 0.05243 0.94512 0.0
C3559 C 0.13636 0.1516 0.9453 0.0
C3560 C 0.14773 0.19132 0.9449 0.0
C3561 C 0.11452 0.08079 0.94505 0.0
C3562 C 0.11384 0.14543 0.94538 0.0
C3563 C 0.12476 0.17992 0.9455 0.0
C3564 C 0.10193 0.17848 0.94525 0.0
C3565 C 0.10315 0.04126 0.94438 0.0
C3566 C 0.0996 0.22185 0.93856 0.0
C3567 C 0.08853 0.25431 0.93846 0.0
C3568 C 0.07955 0.24385 0.94504 0.0
C3569 C 0.08187 0.20025 0.95173 0.0
C3570 C 0.09302 0.16824 0.95188 0.0
H3571 H 0.10532 0.9951 0.9417 0.0
H3572 H 0.09913 0.03518 0.95113 0.0
H3573 H 0.09608 0.06278 0.94004 0.0
H3574 H 0.10636 0.23052 0.93339 0.0
H3575 H 0.08702 0.28746 0.9332 0.0
H3576 H 0.67642 0.17913 0.7908 0.0
H3577 H 0.65635 0.12766 0.79029 0.0
H3578 H 0.64225 0.2534 0.80998 0.0
H3579 H 0.66219 0.30475 0.81059 0.0
H3580 H 0.63671 0.12675 0.81316 0.0
H3581 H 0.62491 0.20224 0.77872 0.0
H3582 H 0.63952 0.16465 0.78013 0.0
H3583 H 0.63696 0.23805 0.78518 0.0
C3584 C 0.66905 0.19572 0.79503 0.0
C3585 C 0.67087 0.24627 0.8007 0.0
C3586 C 0.65759 0.16645 0.7947 0.0
C3587 C 0.64782 0.18735 0.80001 0.0
C3588 C 0.64969 0.23683 0.8058 0.0
H3589 H 0.57135 0.11315 0.81034 0.0
H3590 H 0.59267 0.14916 0.81026 0.0
C3591 C 0.66109 0.26614 0.80613 0.0
C3592 C 0.63555 0.15821 0.79957 0.0
H3593 H 0.61039 0.14047 0.78617 0.0
C3594 C 0.63096 0.12942 0.80725 0.0
C3595 C 0.62813 0.16178 0.79184 0.0
C3596 C 0.63254 0.19367 0.7835 0.0
C3597 C 0.61907 0.10434 0.80743 0.0
C3598 C 0.61151 0.10942 0.79977 0.0
C3599 C 0.61621 0.13691 0.79203 0.0
C3600 C 0.59859 0.08789 0.79975 0.0
C3601 C 0.61473 0.07234 0.81578 0.0
C3602 C 0.59479 0.04291 0.79368 0.0
C3603 C 0.58258 0.02257 0.79365 0.0
C3604 C 0.57397 0.0471 0.79968 0.0
C3605 C 0.57777 0.09294 0.80566 0.0
C3606 C 0.58997 0.11332 0.80566 0.0
H3607 H 0.6226 0.05717 0.81997 0.0
H3608 H 0.60909 0.10451 0.81979 0.0
H3609 H 0.60897 0.03188 0.81414 0.0
H3610 H 0.60129 0.0231 0.78902 0.0
H3611 H 0.57995 0.98731 0.78894 0.0
H3612 H 0.07205 0.62168 0.81141 0.0
H3613 H 0.09313 0.661 0.81079 0.0
H3614 H 0.10129 0.53915 0.78895 0.0
H3615 H 0.08023 0.49922 0.78952 0.0
H3616 H 0.11926 0.54104 0.80322 0.0
H3617 H 0.10726 0.77329 0.79087 0.0
H3618 H 0.09876 0.74862 0.80052 0.0
H3619 H 0.0968 0.70918 0.79009 0.0
C3620 C 0.0783 0.60327 0.80646 0.0
C3621 C 0.07445 0.55749 0.80049 0.0
C3622 C 0.09032 0.62598 0.8061 0.0
C3623 C 0.09868 0.6034 0.79976 0.0
C3624 C 0.09493 0.55727 0.79386 0.0
H3625 H 0.17647 0.68685 0.79008 0.0
H3626 H 0.15602 0.6393 0.78978 0.0
C3627 C 0.08289 0.53467 0.79418 0.0
C3628 C 0.11138 0.62755 0.79938 0.0
H3629 H 0.12786 0.75799 0.79566 0.0
C3630 C 0.12119 0.58833 0.80151 0.0
C3631 C 0.1138 0.68917 0.79712 0.0
C3632 C 0.10363 0.73252 0.79444 0.0
C3633 C 0.13338 0.60979 0.80174 0.0
C3634 C 0.13578 0.67173 0.79961 0.0
C3635 C 0.12597 0.71056 0.79732 0.0
C3636 C 0.14833 0.6981 0.79999 0.0
C3637 C 0.14352 0.5666 0.80453 0.0
C3638 C 0.15072 0.74728 0.80574 0.0
C3639 C 0.16231 0.77483 0.80587 0.0
C3640 C 0.17175 0.7538 0.80023 0.0
C3641 C 0.1694 0.70393 0.79454 0.0
C3642 C 0.15775 0.6765 0.79439 0.0
H3643 H 0.13983 0.52542 0.80797 0.0
H3644 H 0.14862 0.5511 0.79852 0.0
H3645 H 0.15016 0.58981 0.80904 0.0
H3646 H 0.14357 0.76466 0.8101 0.0
H3647 H 0.16381 0.81304 0.81035 0.0
H3648 H 0.42576 0.80389 0.53499 0.0
H3649 H 0.405 0.84724 0.5338 0.0
H3650 H 0.40209 0.84923 0.56253 0.0
H3651 H 0.42309 0.80968 0.56371 0.0
H3652 H 0.38333 0.81009 0.5383 0.0
H3653 H 0.39283 0.02053 0.55759 0.0
H3654 H 0.40491 0.96887 0.55424 0.0
H3655 H 0.39592 0.95366 0.56412 0.0
C3656 C 0.42068 0.81406 0.54103 0.0
C3657 C 0.42604 0.80445 0.54944 0.0
C3658 C 0.40883 0.83865 0.54036 0.0
C3659 C 0.40207 0.85298 0.54808 0.0
C3660 C 0.40727 0.84084 0.55648 0.0
H3661 H 0.32256 0.91921 0.54816 0.0
H3662 H 0.34301 0.87145 0.54838 0.0
C3663 C 0.41923 0.81787 0.55715 0.0
C3664 C 0.38958 0.88022 0.54735 0.0
H3665 H 0.37168 0.99731 0.55497 0.0
C3666 C 0.38081 0.85139 0.54188 0.0
C3667 C 0.38633 0.93472 0.55188 0.0
C3668 C 0.39555 0.97155 0.5572 0.0
C3669 C 0.36886 0.87517 0.54089 0.0
C3670 C 0.36542 0.92777 0.54582 0.0
C3671 C 0.37424 0.95666 0.55125 0.0
C3672 C 0.35291 0.95515 0.54533 0.0
C3673 C 0.36024 0.84456 0.53437 0.0
C3674 C 0.35163 0.0183 0.54381 0.0
C3675 C 0.34005 0.04578 0.54403 0.0
C3676 C 0.32947 0.01049 0.54557 0.0
C3677 C 0.33062 0.94713 0.54686 0.0
C3678 C 0.34228 0.91981 0.5469 0.0
H3679 H 0.3654 0.8193 0.52913 0.0
H3680 H 0.35444 0.81085 0.53799 0.0
H3681 H 0.35411 0.87833 0.53106 0.0
H3682 H 0.35965 0.04662 0.54256 0.0
H3683 H 0.33936 0.09474 0.54297 0.0
H3684 H 0.8222 0.42453 0.54209 0.0
H3685 H 0.84153 0.3667 0.54218 0.0
H3686 H 0.85924 0.51321 0.5566 0.0
H3687 H 0.83997 0.57077 0.55669 0.0
H3688 H 0.86431 0.39773 0.53524 0.0
H3689 H 0.86714 0.36418 0.57186 0.0
H3690 H 0.85327 0.38989 0.56638 0.0
H3691 H 0.86556 0.44294 0.56864 0.0
C3692 C 0.83021 0.44435 0.5453 0.0
C3693 C 0.82954 0.50206 0.54943 0.0
C3694 C 0.84123 0.41128 0.54534 0.0
C3695 C 0.85174 0.43531 0.54952 0.0
C3696 C 0.85115 0.49327 0.55352 0.0
H3697 H 0.92764 0.31726 0.54236 0.0
H3698 H 0.90808 0.37307 0.54208 0.0
C3699 C 0.84014 0.52619 0.55352 0.0
C3700 C 0.86341 0.40027 0.54958 0.0
H3701 H 0.88505 0.33896 0.56346 0.0
C3702 C 0.86883 0.38458 0.5414 0.0
C3703 C 0.86918 0.38262 0.55764 0.0
C3704 C 0.86344 0.3952 0.56663 0.0
C3705 C 0.88002 0.35247 0.54105 0.0
C3706 C 0.88602 0.3368 0.54911 0.0
C3707 C 0.88049 0.35168 0.55729 0.0
C3708 C 0.89789 0.30348 0.54924 0.0
C3709 C 0.88519 0.33469 0.53207 0.0
C3710 C 0.8987 0.24674 0.55358 0.0
C3711 C 0.90987 0.21514 0.55384 0.0
C3712 C 0.92043 0.23971 0.54976 0.0
C3713 C 0.91963 0.29687 0.54549 0.0
C3714 C 0.90845 0.32865 0.54528 0.0
H3715 H 0.878 0.33554 0.52679 0.0
H3716 H 0.8925 0.36769 0.53016 0.0
H3717 H 0.88933 0.28822 0.53229 0.0
H3718 H 0.89066 0.22669 0.55672 0.0
H3719 H 0.91017 0.17122 0.55719 0.0
H3720 H 0.33519 0.1945 0.68367 0.0
H3721 H 0.35554 0.24092 0.6849 0.0
H3722 H 0.34232 0.36017 0.70573 0.0
H3723 H 0.32176 0.31425 0.7045 0.0
H3724 H 0.3572 0.41866 0.69251 0.0
H3725 H 0.37928 0.20867 0.70581 0.0
H3726 H 0.37086 0.19636 0.69565 0.0
H3727 H 0.36278 0.21906 0.70559 0.0
C3728 C 0.33656 0.2307 0.6885 0.0
C3729 C 0.32688 0.25029 0.69405 0.0
C3730 C 0.34822 0.25694 0.68922 0.0
C3731 C 0.35047 0.30296 0.69553 0.0
C3732 C 0.34076 0.32422 0.70088 0.0
H3733 H 0.41872 0.50308 0.70655 0.0
H3734 H 0.39751 0.46533 0.70718 0.0
C3735 C 0.32904 0.29797 0.70016 0.0
C3736 C 0.36301 0.3285 0.69648 0.0
H3737 H 0.39278 0.28763 0.70077 0.0
C3738 C 0.36498 0.39035 0.69441 0.0
C3739 C 0.37309 0.29129 0.699 0.0
C3740 C 0.37141 0.22529 0.70173 0.0
C3741 C 0.37689 0.41541 0.69443 0.0
C3742 C 0.38701 0.37766 0.69669 0.0
C3743 C 0.38499 0.31626 0.69899 0.0
C3744 C 0.39983 0.40033 0.69642 0.0
C3745 C 0.37863 0.48137 0.69172 0.0
C3746 C 0.40819 0.37518 0.6903 0.0
C3747 C 0.42031 0.39641 0.68994 0.0
C3748 C 0.4243 0.44295 0.69574 0.0
C3749 C 0.41593 0.46736 0.70197 0.0
C3750 C 0.40379 0.44615 0.70231 0.0
H3751 H 0.37028 0.50047 0.68846 0.0
H3752 H 0.38065 0.50924 0.69773 0.0
H3753 H 0.38655 0.48601 0.68707 0.0
H3754 H 0.40529 0.33948 0.68574 0.0
H3755 H 0.42653 0.37646 0.68509 0.0
H3756 H 0.83957 0.67316 0.68807 0.0
H3757 H 0.85912 0.7282 0.68863 0.0
H3758 H 0.84183 0.87369 0.70353 0.0
H3759 H 0.82224 0.81814 0.70319 0.0
H3760 H 0.86495 0.83959 0.68207 0.0
H3761 H 0.87181 0.83604 0.71874 0.0
H3762 H 0.86038 0.78943 0.71323 0.0
H3763 H 0.8574 0.86908 0.71538 0.0
C3764 C 0.83991 0.7168 0.6915 0.0
C3765 C 0.82937 0.74117 0.69563 0.0
C3766 C 0.8511 0.74816 0.69181 0.0
C3767 C 0.85197 0.80451 0.69625 0.0
C3768 C 0.84142 0.82953 0.70026 0.0
H3769 H 0.91013 0.07046 0.68876 0.0
H3770 H 0.89084 0.01314 0.68886 0.0
C3771 C 0.83022 0.79792 0.70001 0.0
C3772 C 0.86387 0.83764 0.69641 0.0
H3773 H 0.88555 0.8984 0.71034 0.0
C3774 C 0.86948 0.85228 0.68825 0.0
C3775 C 0.86985 0.85328 0.70449 0.0
C3776 C 0.86463 0.83566 0.71346 0.0
C3777 C 0.88082 0.88294 0.68793 0.0
C3778 C 0.88655 0.90068 0.696 0.0
C3779 C 0.88106 0.88521 0.70417 0.0
C3780 C 0.89823 0.93565 0.69609 0.0
C3781 C 0.88663 0.89509 0.67895 0.0
C3782 C 0.9087 0.91185 0.70035 0.0
C3783 C 0.91974 0.94483 0.70039 0.0
C3784 C 0.92047 0.00219 0.69617 0.0
C3785 C 0.90992 0.02613 0.692 0.0
C3786 C 0.89889 0.99333 0.69201 0.0
H3787 H 0.88298 0.86375 0.67375 0.0
H3788 H 0.88452 0.94269 0.67687 0.0
H3789 H 0.8968 0.88987 0.67925 0.0
H3790 H 0.90835 0.86749 0.70358 0.0
H3791 H 0.92771 0.92517 0.70367 0.0
H3792 H 0.67697 0.11313 0.43398 0.0
H3793 H 0.6558 0.15091 0.43446 0.0
H3794 H 0.64839 0.03706 0.45734 0.0
H3795 H 0.66954 -0.00159 0.45688 0.0
H3796 H 0.63022 0.03083 0.44378 0.0
H3797 H 0.64141 0.27075 0.45289 0.0
H3798 H 0.64962 0.243 0.44331 0.0
H3799 H 0.65234 0.20895 0.45405 0.0
C3800 C 0.67087 0.09626 0.43915 0.0
C3801 C 0.67496 0.05295 0.44542 0.0
C3802 C 0.65879 0.11812 0.43943 0.0
C3803 C 0.65061 0.09735 0.44601 0.0
C3804 C 0.65461 0.05381 0.45224 0.0
H3805 H 0.573 0.18329 0.4558 0.0
H3806 H 0.59351 0.13667 0.45641 0.0
C3807 C 0.6667 0.03192 0.45197 0.0
C3808 C 0.63781 0.12032 0.44626 0.0
H3809 H 0.62083 0.251 0.44823 0.0
C3810 C 0.62812 0.07885 0.44483 0.0
C3811 C 0.63516 0.18293 0.44766 0.0
C3812 C 0.64516 0.22897 0.44965 0.0
C3813 C 0.61584 0.09881 0.44444 0.0
C3814 C 0.61323 0.16166 0.44565 0.0
C3815 C 0.6229 0.20286 0.44726 0.0
C3816 C 0.60058 0.18636 0.44501 0.0
C3817 C 0.6058 0.05296 0.44247 0.0
C3818 C 0.59781 0.22983 0.43843 0.0
C3819 C 0.58617 0.25674 0.4381 0.0
C3820 C 0.57708 0.24091 0.44437 0.0
C3821 C 0.57979 0.19635 0.45086 0.0
C3822 C 0.59148 0.16946 0.45119 0.0
H3823 H 0.60958 0.00937 0.43979 0.0
H3824 H 0.60073 0.04249 0.44871 0.0
H3825 H 0.59911 0.07184 0.43758 0.0
H3826 H 0.60472 0.24348 0.43361 0.0
H3827 H 0.58438 0.29075 0.433 0.0
H3828 H 0.07229 0.64183 0.43293 0.0
H3829 H 0.09359 0.60539 0.43333 0.0
H3830 H 0.10081 0.7194 0.45623 0.0
H3831 H 0.07951 0.75554 0.45597 0.0
H3832 H 0.11537 0.67564 0.43205 0.0
H3833 H 0.11272 0.54963 0.46423 0.0
H3834 H 0.09917 0.57373 0.45819 0.0
H3835 H 0.1078 0.62811 0.46466 0.0
C3836 C 0.07838 0.65898 0.43808 0.0
C3837 C 0.07419 0.70138 0.44445 0.0
C3838 C 0.09055 0.63817 0.43828 0.0
C3839 C 0.0987 0.65918 0.44487 0.0
C3840 C 0.09458 0.70181 0.45119 0.0
H3841 H 0.17559 0.56123 0.45515 0.0
H3842 H 0.15561 0.61358 0.45539 0.0
C3843 C 0.08242 0.72258 0.45101 0.0
C3844 C 0.11158 0.63722 0.445 0.0
H3845 H 0.13227 0.55564 0.45735 0.0
C3846 C 0.11909 0.64947 0.43758 0.0
C3847 C 0.11639 0.60348 0.45226 0.0
C3848 C 0.1086 0.58741 0.46026 0.0
C3849 C 0.13129 0.6285 0.43721 0.0
C3850 C 0.136 0.59367 0.44439 0.0
C3851 C 0.1286 0.58257 0.45189 0.0
C3852 C 0.14831 0.56485 0.44399 0.0
C3853 C 0.13903 0.64388 0.42916 0.0
C3854 C 0.15075 0.52009 0.43752 0.0
C3855 C 0.16209 0.49012 0.43738 0.0
C3856 C 0.17119 0.50412 0.44373 0.0
C3857 C 0.16877 0.54948 0.45016 0.0
C3858 C 0.15738 0.57938 0.45031 0.0
H3859 H 0.13538 0.68445 0.42555 0.0
H3860 H 0.14874 0.65298 0.43109 0.0
H3861 H 0.13894 0.60451 0.42448 0.0
H3862 H 0.14378 0.50743 0.43269 0.0
H3863 H 0.16364 0.45536 0.43235 0.0
H3864 H 0.57456 0.55913 0.29094 0.0
H3865 H 0.59452 0.61151 0.29036 0.0
H3866 H 0.6085 0.49147 0.31083 0.0
H3867 H 0.58865 0.43914 0.31151 0.0
H3868 H 0.61371 0.6197 0.31334 0.0
H3869 H 0.62635 0.53541 0.27949 0.0
H3870 H 0.61161 0.57231 0.28056 0.0
H3871 H 0.61429 0.50054 0.28606 0.0
C3872 C 0.58188 0.54398 0.29533 0.0
C3873 C 0.58005 0.49469 0.30123 0.0
C3874 C 0.59328 0.57378 0.29496 0.0
C3875 C 0.60299 0.55473 0.30047 0.0
C3876 C 0.60111 0.50659 0.3065 0.0
H3877 H 0.67896 0.63391 0.3113 0.0
H3878 H 0.65767 0.59783 0.31108 0.0
C3879 C 0.58976 0.47671 0.30686 0.0
C3880 C 0.61522 0.58442 0.29998 0.0
H3881 H 0.6406 0.59981 0.28672 0.0
C3882 C 0.61958 0.61568 0.30751 0.0
C3883 C 0.62279 0.57918 0.29234 0.0
C3884 C 0.61861 0.54473 0.28416 0.0
C3885 C 0.63141 0.6415 0.30765 0.0
C3886 C 0.63914 0.63464 0.30012 0.0
C3887 C 0.63465 0.60476 0.29249 0.0
C3888 C 0.65207 0.65621 0.30015 0.0
C3889 C 0.6355 0.67611 0.31585 0.0
C3890 C 0.65607 0.69953 0.29387 0.0
C3891 C 0.66828 0.71992 0.29393 0.0
C3892 C 0.6767 0.69707 0.30024 0.0
C3893 C 0.6727 0.65281 0.3064 0.0
C3894 C 0.66051 0.6324 0.30633 0.0
H3895 H 0.62751 0.69241 0.31983 0.0
H3896 H 0.64105 0.64529 0.32015 0.0
H3897 H 0.64129 0.71613 0.31403 0.0
H3898 H 0.6497 0.71805 0.289 0.0
H3899 H 0.67107 0.75394 0.28908 0.0
H3900 H 0.17908 0.12933 0.31158 0.0
H3901 H 0.15796 0.09074 0.31105 0.0
H3902 H 0.15036 0.20599 0.28836 0.0
H3903 H 0.17145 0.2454 0.28886 0.0
H3904 H 0.13221 0.21064 0.30194 0.0
H3905 H 0.14367 0.97175 0.29246 0.0
H3906 H 0.15187 -0.00092 0.30207 0.0
H3907 H 0.15452 0.03397 0.29138 0.0
C3908 C 0.17295 0.14636 0.30645 0.0
C3909 C 0.17696 0.19029 0.30024 0.0
C3910 C 0.1609 0.12402 0.30614 0.0
C3911 C 0.15268 0.14495 0.29959 0.0
C3912 C 0.15661 0.1891 0.29343 0.0
H3913 H 0.07489 0.05741 0.29027 0.0
H3914 H 0.09539 0.10413 0.28939 0.0
C3915 C 0.16866 0.21145 0.29373 0.0
C3916 C 0.1399 0.12157 0.29932 0.0
H3917 H 0.12308 0.99049 0.2972 0.0
C3918 C 0.13017 0.16264 0.30082 0.0
C3919 C 0.13732 0.05899 0.29782 0.0
C3920 C 0.14738 0.01341 0.29575 0.0
C3921 C 0.11791 0.14225 0.30121 0.0
C3922 C 0.11537 0.0794 0.29992 0.0
C3923 C 0.12509 0.03864 0.29822 0.0
C3924 C 0.10277 0.05417 0.30065 0.0
C3925 C 0.10783 0.18762 0.30329 0.0
C3926 C 0.10018 0.01047 0.30724 0.0
C3927 C 0.08856 0.98353 0.30773 0.0
C3928 C 0.07929 -0.00043 0.30161 0.0
C3929 C 0.08183 0.0442 0.2951 0.0
C3930 C 0.09351 0.07113 0.2946 0.0
H3931 H 0.11157 0.23127 0.30597 0.0
H3932 H 0.10266 0.19808 0.2971 0.0
H3933 H 0.10124 0.16829 0.30821 0.0
H3934 H 0.10722 0.99679 0.31196 0.0
H3935 H 0.08692 0.94945 0.31284 0.0
loop_
_geom_bond_atom_site_label_1
_geom_bond_atom_site_label_2
_geom_bond_distance
_geom_bond_site_symmetry_2
_ccdc_geom_bond_type
Co0 N4 2.148 . S
Co0 N10 2.128 . S
Co0 N20 2.194 . S
Co0 O25 2.351 . S
Co0 O26 2.155 . S
Co0 O27 2.096 . S
C1 N4 1.301 . S
C1 N5 1.328 1_545 S
C1 H6 0.930 . S
C2 C3 1.333 . S
C2 N4 1.317 . S
C2 H7 0.930 . S
C3 C2 1.333 . S
C3 N5 1.350 1_545 S
C3 H29 0.931 1_545 S
N4 Co0 2.148 . S
N4 C1 1.301 . S
N4 C2 1.317 . S
N5 C1 1.328 1_565 S
N5 C3 1.350 1_565 S
H6 C1 0.930 . S
H7 C2 0.930 . S
C8 O9 1.224 . S
C8 O27 1.247 . S
O9 C8 1.224 . S
N10 Co0 2.128 . S
N10 C11 1.355 . S
N10 C13 1.311 . S
C11 N10 1.355 . S
C11 C12 1.363 . S
C11 H23 0.929 . S
C12 C11 1.363 . S
C12 N14 1.375 . S
C12 H30 0.931 . S
C13 N10 1.311 . S
C13 N14 1.347 . S
C13 H24 0.929 . S
N14 C12 1.375 . S
N14 C13 1.347 . S
C15 C18 1.365 . S
C15 N20 1.328 . S
C15 H21 0.929 . S
C16 C17 1.362 . S
C16 C19 1.378 . S
C16 H31 0.929 . S
C17 C16 1.362 . S
C17 C18 1.366 . S
C18 C15 1.365 . S
C18 C17 1.366 . S
C18 H32 0.930 . S
C19 C16 1.378 . S
C19 N20 1.315 . S
C19 H22 0.930 . S
N20 Co0 2.194 . S
N20 C15 1.328 . S
N20 C19 1.315 . S
H21 C15 0.929 . S
H22 C19 0.930 . S
H23 C11 0.929 . S
H24 C13 0.929 . S
O25 Co0 2.351 . S
O25 C28 1.244 . S
O26 Co0 2.155 . S
O26 C28 1.240 . S
O27 Co0 2.096 . S
O27 C8 1.247 . S
C28 O25 1.244 . S
C28 O26 1.240 . S
H29 C3 0.931 1_565 S
H30 C12 0.931 . S
H31 C16 0.929 . S
H32 C18 0.930 . S
Co33 N37 2.148 . S
Co33 N43 2.128 1_545 S
Co33 N53 2.194 . S
Co33 O58 2.351 . S
Co33 O59 2.155 . S
Co33 O60 2.096 . S
C34 N37 1.301 . S
C34 N38 1.328 . S
C34 H39 0.930 . S
C35 C36 1.333 . S
C35 N37 1.317 . S
C35 H40 0.930 . S
C36 C35 1.333 . S
C36 N38 1.350 . S
C36 H62 0.931 . S
N37 Co33 2.148 . S
N37 C34 1.301 . S
N37 C35 1.317 . S
N38 C34 1.328 . S
N38 C36 1.350 . S
H39 C34 0.930 . S
H40 C35 0.930 . S
C41 O42 1.224 . S
C41 O60 1.247 . S
O42 C41 1.224 . S
N43 Co33 2.128 1_565 S
N43 C44 1.355 . S
N43 C46 1.311 . S
C44 N43 1.355 . S
C44 C45 1.363 . S
C44 H56 0.929 . S
C45 C44 1.363 . S
C45 N47 1.375 . S
C45 H63 0.931 . S
C46 N43 1.311 . S
C46 N47 1.347 . S
C46 H57 0.929 . S
N47 C45 1.375 . S
N47 C46 1.347 . S
C48 C51 1.365 . S
C48 N53 1.328 . S
C48 H54 0.929 . S
C49 C50 1.362 . S
C49 C52 1.378 . S
C49 H64 0.929 . S
C50 C49 1.362 . S
C50 C51 1.366 . S
C51 C48 1.365 . S
C51 C50 1.366 . S
C51 H65 0.930 . S
C52 C49 1.378 . S
C52 N53 1.315 . S
C52 H55 0.930 . S
N53 Co33 2.194 . S
N53 C48 1.328 . S
N53 C52 1.315 . S
H54 C48 0.929 . S
H55 C52 0.930 . S
H56 C44 0.929 . S
H57 C46 0.929 . S
O58 Co33 2.351 . S
O58 C61 1.244 . S
O59 Co33 2.155 . S
O59 C61 1.240 . S
O60 Co33 2.096 . S
O60 C41 1.247 . S
C61 O58 1.244 . S
C61 O59 1.240 . S
H62 C36 0.931 . S
H63 C45 0.931 . S
H64 C49 0.929 . S
H65 C51 0.930 . S
Co66 N70 2.148 . S
Co66 N76 2.128 1_545 S
Co66 N86 2.194 . S
Co66 O91 2.351 . S
Co66 O92 2.155 . S
Co66 O93 2.096 . S
C67 N70 1.301 . S
C67 N71 1.328 . S
C67 H72 0.930 . S
C68 C69 1.333 . S
C68 N70 1.317 . S
C68 H73 0.930 . S
C69 C68 1.333 . S
C69 N71 1.350 . S
C69 H95 0.931 . S
N70 Co66 2.148 . S
N70 C67 1.301 . S
N70 C68 1.317 . S
N71 C67 1.328 . S
N71 C69 1.350 . S
H72 C67 0.930 . S
H73 C68 0.930 . S
C74 O75 1.224 . S
C74 O93 1.247 . S
O75 C74 1.224 . S
N76 Co66 2.128 1_565 S
N76 C77 1.355 . S
N76 C79 1.311 . S
C77 N76 1.355 . S
C77 C78 1.363 . S
C77 H89 0.929 . S
C78 C77 1.363 . S
C78 N80 1.375 . S
C78 H96 0.931 . S
C79 N76 1.311 . S
C79 N80 1.347 . S
C79 H90 0.929 . S
N80 C78 1.375 . S
N80 C79 1.347 . S
C81 C84 1.365 . S
C81 N86 1.328 . S
C81 H87 0.929 . S
C82 C83 1.362 . S
C82 C85 1.378 . S
C82 H97 0.929 . S
C83 C82 1.362 . S
C83 C84 1.366 . S
C84 C81 1.365 . S
C84 C83 1.366 . S
C84 H98 0.930 . S
C85 C82 1.378 . S
C85 N86 1.315 . S
C85 H88 0.930 . S
N86 Co66 2.194 . S
N86 C81 1.328 . S
N86 C85 1.315 . S
H87 C81 0.929 . S
H88 C85 0.930 . S
H89 C77 0.929 . S
H90 C79 0.929 . S
O91 Co66 2.351 . S
O91 C94 1.244 . S
O92 Co66 2.155 . S
O92 C94 1.240 . S
O93 Co66 2.096 . S
O93 C74 1.247 . S
C94 O91 1.244 . S
C94 O92 1.240 . S
H95 C69 0.931 . S
H96 C78 0.931 . S
H97 C82 0.929 . S
H98 C84 0.930 . S
Co99 N103 2.148 . S
Co99 N109 2.128 . S
Co99 N119 2.194 . S
Co99 O124 2.351 . S
Co99 O125 2.155 . S
Co99 O126 2.096 . S
C100 N103 1.301 . S
C100 N104 1.328 1_545 S
C100 H105 0.930 . S
C101 C102 1.333 . S
C101 N103 1.317 . S
C101 H106 0.930 . S
C102 C101 1.333 . S
C102 N104 1.350 1_545 S
C102 H128 0.931 1_545 S
N103 Co99 2.148 . S
N103 C100 1.301 . S
N103 C101 1.317 . S
N104 C100 1.328 1_565 S
N104 C102 1.350 1_565 S
H105 C100 0.930 . S
H106 C101 0.930 . S
C107 O108 1.224 . S
C107 O126 1.247 . S
O108 C107 1.224 . S
N109 Co99 2.128 . S
N109 C110 1.355 . S
N109 C112 1.311 . S
C110 N109 1.355 . S
C110 C111 1.363 . S
C110 H122 0.929 . S
C111 C110 1.363 . S
C111 N113 1.375 . S
C111 H129 0.931 . S
C112 N109 1.311 . S
C112 N113 1.347 . S
C112 H123 0.929 . S
N113 C111 1.375 . S
N113 C112 1.347 . S
C114 C117 1.365 . S
C114 N119 1.328 . S
C114 H120 0.929 . S
C115 C116 1.362 . S
C115 C118 1.378 . S
C115 H130 0.929 . S
C116 C115 1.362 . S
C116 C117 1.366 . S
C117 C114 1.365 . S
C117 C116 1.366 . S
C117 H131 0.930 . S
C118 C115 1.378 . S
C118 N119 1.315 . S
C118 H121 0.930 . S
N119 Co99 2.194 . S
N119 C114 1.328 . S
N119 C118 1.315 . S
H120 C114 0.929 . S
H121 C118 0.930 . S
H122 C110 0.929 . S
H123 C112 0.929 . S
O124 Co99 2.351 . S
O124 C127 1.244 . S
O125 Co99 2.155 . S
O125 C127 1.240 . S
O126 Co99 2.096 . S
O126 C107 1.247 . S
C127 O124 1.244 . S
C127 O125 1.240 . S
H128 C102 0.931 1_565 S
H129 C111 0.931 . S
H130 C115 0.929 . S
H131 C117 0.930 . S
Co132 N136 2.148 . S
Co132 N142 2.128 . S
Co132 N152 2.194 . S
Co132 O157 2.351 . S
Co132 O158 2.155 . S
Co132 O159 2.096 . S
C133 N136 1.301 . S
C133 N137 1.328 1_565 S
C133 H138 0.930 . S
C134 C135 1.333 . S
C134 N136 1.317 . S
C134 H139 0.930 . S
C135 C134 1.333 . S
C135 N137 1.350 1_565 S
C135 H161 0.931 1_565 S
N136 Co132 2.148 . S
N136 C133 1.301 . S
N136 C134 1.317 . S
N137 C133 1.328 1_545 S
N137 C135 1.350 1_545 S
H138 C133 0.930 . S
H139 C134 0.930 . S
C140 O141 1.224 . S
C140 O159 1.247 . S
O141 C140 1.224 . S
N142 Co132 2.128 . S
N142 C143 1.355 . S
N142 C145 1.311 . S
C143 N142 1.355 . S
C143 C144 1.363 . S
C143 H155 0.929 . S
C144 C143 1.363 . S
C144 N146 1.375 . S
C144 H162 0.931 . S
C145 N142 1.311 . S
C145 N146 1.347 . S
C145 H156 0.929 . S
N146 C144 1.375 . S
N146 C145 1.347 . S
C147 C150 1.365 . S
C147 N152 1.328 . S
C147 H153 0.929 . S
C148 C149 1.362 . S
C148 C151 1.378 . S
C148 H163 0.929 . S
C149 C148 1.362 . S
C149 C150 1.366 . S
C150 C147 1.365 . S
C150 C149 1.366 . S
C150 H164 0.930 . S
C151 C148 1.378 . S
C151 N152 1.315 . S
C151 H154 0.930 . S
N152 Co132 2.194 . S
N152 C147 1.328 . S
N152 C151 1.315 . S
H153 C147 0.929 . S
H154 C151 0.930 . S
H155 C143 0.929 . S
H156 C145 0.929 . S
O157 Co132 2.351 . S
O157 C160 1.244 . S
O158 Co132 2.155 . S
O158 C160 1.240 . S
O159 Co132 2.096 . S
O159 C140 1.247 . S
C160 O157 1.244 . S
C160 O158 1.240 . S
H161 C135 0.931 1_545 S
H162 C144 0.931 . S
H163 C148 0.929 . S
H164 C150 0.930 . S
Co165 N169 2.148 . S
Co165 N175 2.128 1_565 S
Co165 N185 2.194 . S
Co165 O190 2.351 . S
Co165 O191 2.155 . S
Co165 O192 2.096 . S
C166 N169 1.301 . S
C166 N170 1.328 . S
C166 H171 0.930 . S
C167 C168 1.333 . S
C167 N169 1.317 . S
C167 H172 0.930 . S
C168 C167 1.333 . S
C168 N170 1.350 . S
C168 H194 0.931 . S
N169 Co165 2.148 . S
N169 C166 1.301 . S
N169 C167 1.317 . S
N170 C166 1.328 . S
N170 C168 1.350 . S
H171 C166 0.930 . S
H172 C167 0.930 . S
C173 O174 1.224 . S
C173 O192 1.247 . S
O174 C173 1.224 . S
N175 Co165 2.128 1_545 S
N175 C176 1.355 . S
N175 C178 1.311 . S
C176 N175 1.355 . S
C176 C177 1.363 . S
C176 H188 0.929 . S
C177 C176 1.363 . S
C177 N179 1.375 . S
C177 H195 0.931 . S
C178 N175 1.311 . S
C178 N179 1.347 . S
C178 H189 0.929 . S
N179 C177 1.375 . S
N179 C178 1.347 . S
C180 C183 1.365 . S
C180 N185 1.328 . S
C180 H186 0.929 . S
C181 C182 1.362 . S
C181 C184 1.378 . S
C181 H196 0.929 . S
C182 C181 1.362 . S
C182 C183 1.366 . S
C183 C180 1.365 . S
C183 C182 1.366 . S
C183 H197 0.930 . S
C184 C181 1.378 . S
C184 N185 1.315 . S
C184 H187 0.930 . S
N185 Co165 2.194 . S
N185 C180 1.328 . S
N185 C184 1.315 . S
H186 C180 0.929 . S
H187 C184 0.930 . S
H188 C176 0.929 . S
H189 C178 0.929 . S
O190 Co165 2.351 . S
O190 C193 1.244 . S
O191 Co165 2.155 . S
O191 C193 1.240 . S
O192 Co165 2.096 . S
O192 C173 1.247 . S
C193 O190 1.244 . S
C193 O191 1.240 . S
H194 C168 0.931 . S
H195 C177 0.931 . S
H196 C181 0.929 . S
H197 C183 0.930 . S
Co198 N202 2.148 . S
Co198 N208 2.128 1_565 S
Co198 N218 2.194 . S
Co198 O223 2.351 . S
Co198 O224 2.155 . S
Co198 O225 2.096 . S
C199 N202 1.301 . S
C199 N203 1.328 . S
C199 H204 0.930 . S
C200 C201 1.333 . S
C200 N202 1.317 . S
C200 H205 0.930 . S
C201 C200 1.333 . S
C201 N203 1.350 . S
C201 H227 0.931 . S
N202 Co198 2.148 . S
N202 C199 1.301 . S
N202 C200 1.317 . S
N203 C199 1.328 . S
N203 C201 1.350 . S
H204 C199 0.930 . S
H205 C200 0.930 . S
C206 O207 1.224 . S
C206 O225 1.247 . S
O207 C206 1.224 . S
N208 Co198 2.128 1_545 S
N208 C209 1.355 . S
N208 C211 1.311 . S
C209 N208 1.355 . S
C209 C210 1.363 . S
C209 H221 0.929 . S
C210 C209 1.363 . S
C210 N212 1.375 . S
C210 H228 0.931 . S
C211 N208 1.311 . S
C211 N212 1.347 . S
C211 H222 0.929 . S
N212 C210 1.375 . S
N212 C211 1.347 . S
C213 C216 1.365 . S
C213 N218 1.328 . S
C213 H219 0.929 . S
C214 C215 1.362 . S
C214 C217 1.378 . S
C214 H229 0.929 . S
C215 C214 1.362 . S
C215 C216 1.366 . S
C216 C213 1.365 . S
C216 C215 1.366 . S
C216 H230 0.930 . S
C217 C214 1.378 . S
C217 N218 1.315 . S
C217 H220 0.930 . S
N218 Co198 2.194 . S
N218 C213 1.328 . S
N218 C217 1.315 . S
H219 C213 0.929 . S
H220 C217 0.930 . S
H221 C209 0.929 . S
H222 C211 0.929 . S
O223 Co198 2.351 . S
O223 C226 1.244 . S
O224 Co198 2.155 . S
O224 C226 1.240 . S
O225 Co198 2.096 . S
O225 C206 1.247 . S
C226 O223 1.244 . S
C226 O224 1.240 . S
H227 C201 0.931 . S
H228 C210 0.931 . S
H229 C214 0.929 . S
H230 C216 0.930 . S
Co231 N235 2.148 . S
Co231 N241 2.128 . S
Co231 N251 2.194 . S
Co231 O256 2.351 . S
Co231 O257 2.155 . S
Co231 O258 2.096 . S
C232 N235 1.301 . S
C232 N236 1.328 1_565 S
C232 H237 0.930 . S
C233 C234 1.333 . S
C233 N235 1.317 . S
C233 H238 0.930 . S
C234 C233 1.333 . S
C234 N236 1.350 1_565 S
C234 H260 0.931 1_565 S
N235 Co231 2.148 . S
N235 C232 1.301 . S
N235 C233 1.317 . S
N236 C232 1.328 1_545 S
N236 C234 1.350 1_545 S
H237 C232 0.930 . S
H238 C233 0.930 . S
C239 O240 1.224 . S
C239 O258 1.247 . S
O240 C239 1.224 . S
N241 Co231 2.128 . S
N241 C242 1.355 . S
N241 C244 1.311 . S
C242 N241 1.355 . S
C242 C243 1.363 . S
C242 H254 0.929 . S
C243 C242 1.363 . S
C243 N245 1.375 . S
C243 H261 0.931 . S
C244 N241 1.311 . S
C244 N245 1.347 . S
C244 H255 0.929 . S
N245 C243 1.375 . S
N245 C244 1.347 . S
C246 C249 1.365 . S
C246 N251 1.328 . S
C246 H252 0.929 . S
C247 C248 1.362 . S
C247 C250 1.378 . S
C247 H262 0.929 . S
C248 C247 1.362 . S
C248 C249 1.366 . S
C249 C246 1.365 . S
C249 C248 1.366 . S
C249 H263 0.930 . S
C250 C247 1.378 . S
C250 N251 1.315 . S
C250 H253 0.930 . S
N251 Co231 2.194 . S
N251 C246 1.328 . S
N251 C250 1.315 . S
H252 C246 0.929 . S
H253 C250 0.930 . S
H254 C242 0.929 . S
H255 C244 0.929 . S
O256 Co231 2.351 . S
O256 C259 1.244 . S
O257 Co231 2.155 . S
O257 C259 1.240 . S
O258 Co231 2.096 . S
O258 C239 1.247 . S
C259 O256 1.244 . S
C259 O257 1.240 . S
H260 C234 0.931 1_545 S
H261 C243 0.931 . S
H262 C247 0.929 . S
H263 C249 0.930 . S
Co264 N268 2.148 . S
Co264 N274 2.128 . S
Co264 N284 2.194 . S
Co264 O289 2.351 . S
Co264 O290 2.155 . S
Co264 O291 2.096 . S
C265 N268 1.301 . S
C265 N269 1.328 . S
C265 H270 0.930 . S
C266 C267 1.333 . S
C266 N268 1.317 . S
C266 H271 0.930 . S
C267 C266 1.333 . S
C267 N269 1.350 . S
C267 H293 0.931 . S
N268 Co264 2.148 . S
N268 C265 1.301 . S
N268 C266 1.317 . S
N269 C265 1.328 . S
N269 C267 1.350 . S
H270 C265 0.930 . S
H271 C266 0.930 . S
C272 O273 1.224 . S
C272 O291 1.247 . S
O273 C272 1.224 . S
N274 Co264 2.128 . S
N274 C275 1.355 . S
N274 C277 1.311 . S
C275 N274 1.355 . S
C275 C276 1.363 . S
C275 H287 0.929 . S
C276 C275 1.363 . S
C276 N278 1.375 . S
C276 H294 0.931 . S
C277 N274 1.311 . S
C277 N278 1.347 . S
C277 H288 0.929 . S
N278 C276 1.375 . S
N278 C277 1.347 . S
C279 C282 1.365 . S
C279 N284 1.328 . S
C279 H285 0.929 . S
C280 C281 1.362 . S
C280 C283 1.378 . S
C280 H295 0.929 . S
C281 C280 1.362 . S
C281 C282 1.366 . S
C282 C279 1.365 . S
C282 C281 1.366 . S
C282 H296 0.930 . S
C283 C280 1.378 . S
C283 N284 1.315 . S
C283 H286 0.930 . S
N284 Co264 2.194 . S
N284 C279 1.328 . S
N284 C283 1.315 . S
H285 C279 0.929 . S
H286 C283 0.930 . S
H287 C275 0.929 . S
H288 C277 0.929 . S
O289 Co264 2.351 . S
O289 C292 1.244 . S
O290 Co264 2.155 . S
O290 C292 1.240 . S
O291 Co264 2.096 . S
O291 C272 1.247 . S
C292 O289 1.244 . S
C292 O290 1.240 . S
H293 C267 0.931 . S
H294 C276 0.931 . S
H295 C280 0.929 . S
H296 C282 0.930 . S
Co297 N301 2.148 . S
Co297 N307 2.128 . S
Co297 N317 2.194 . S
Co297 O322 2.351 . S
Co297 O323 2.155 . S
Co297 O324 2.096 . S
C298 N301 1.301 . S
C298 N302 1.328 . S
C298 H303 0.930 . S
C299 C300 1.333 . S
C299 N301 1.317 . S
C299 H304 0.930 . S
C300 C299 1.333 . S
C300 N302 1.350 . S
C300 H326 0.931 . S
N301 Co297 2.148 . S
N301 C298 1.301 . S
N301 C299 1.317 . S
N302 C298 1.328 . S
N302 C300 1.350 . S
H303 C298 0.930 . S
H304 C299 0.930 . S
C305 O306 1.224 . S
C305 O324 1.247 . S
O306 C305 1.224 . S
N307 Co297 2.128 . S
N307 C308 1.355 . S
N307 C310 1.311 . S
C308 N307 1.355 . S
C308 C309 1.363 . S
C308 H320 0.929 . S
C309 C308 1.363 . S
C309 N311 1.375 . S
C309 H327 0.931 . S
C310 N307 1.311 . S
C310 N311 1.347 . S
C310 H321 0.929 . S
N311 C309 1.375 . S
N311 C310 1.347 . S
C312 C315 1.365 . S
C312 N317 1.328 . S
C312 H318 0.929 . S
C313 C314 1.362 . S
C313 C316 1.378 . S
C313 H328 0.929 . S
C314 C313 1.362 . S
C314 C315 1.366 . S
C315 C312 1.365 . S
C315 C314 1.366 . S
C315 H329 0.930 . S
C316 C313 1.378 . S
C316 N317 1.315 . S
C316 H319 0.930 . S
N317 Co297 2.194 . S
N317 C312 1.328 . S
N317 C316 1.315 . S
H318 C312 0.929 . S
H319 C316 0.930 . S
H320 C308 0.929 . S
H321 C310 0.929 . S
O322 Co297 2.351 . S
O322 C325 1.244 . S
O323 Co297 2.155 . S
O323 C325 1.240 . S
O324 Co297 2.096 . S
O324 C305 1.247 . S
C325 O322 1.244 . S
C325 O323 1.240 . S
H326 C300 0.931 . S
H327 C309 0.931 . S
H328 C313 0.929 . S
H329 C315 0.930 . S
Co330 N334 2.148 . S
Co330 N340 2.128 . S
Co330 N350 2.194 . S
Co330 O355 2.351 . S
Co330 O356 2.155 . S
Co330 O357 2.096 . S
C331 N334 1.301 . S
C331 N335 1.328 . S
C331 H336 0.930 . S
C332 C333 1.333 . S
C332 N334 1.317 . S
C332 H337 0.930 . S
C333 C332 1.333 . S
C333 N335 1.350 . S
C333 H359 0.931 . S
N334 Co330 2.148 . S
N334 C331 1.301 . S
N334 C332 1.317 . S
N335 C331 1.328 . S
N335 C333 1.350 . S
H336 C331 0.930 . S
H337 C332 0.930 . S
C338 O339 1.224 . S
C338 O357 1.247 . S
O339 C338 1.224 . S
N340 Co330 2.128 . S
N340 C341 1.355 . S
N340 C343 1.311 . S
C341 N340 1.355 . S
C341 C342 1.363 . S
C341 H353 0.929 . S
C342 C341 1.363 . S
C342 N344 1.375 . S
C342 H360 0.931 . S
C343 N340 1.311 . S
C343 N344 1.347 . S
C343 H354 0.929 . S
N344 C342 1.375 . S
N344 C343 1.347 . S
C345 C348 1.365 . S
C345 N350 1.328 . S
C345 H351 0.929 . S
C346 C347 1.362 . S
C346 C349 1.378 . S
C346 H361 0.929 . S
C347 C346 1.362 . S
C347 C348 1.366 . S
C348 C345 1.365 . S
C348 C347 1.366 . S
C348 H362 0.930 . S
C349 C346 1.378 . S
C349 N350 1.315 . S
C349 H352 0.930 . S
N350 Co330 2.194 . S
N350 C345 1.328 . S
N350 C349 1.315 . S
H351 C345 0.929 . S
H352 C349 0.930 . S
H353 C341 0.929 . S
H354 C343 0.929 . S
O355 Co330 2.351 . S
O355 C358 1.244 . S
O356 Co330 2.155 . S
O356 C358 1.240 . S
O357 Co330 2.096 . S
O357 C338 1.247 . S
C358 O355 1.244 . S
C358 O356 1.240 . S
H359 C333 0.931 . S
H360 C342 0.931 . S
H361 C346 0.929 . S
H362 C348 0.930 . S
Co363 N367 2.148 . S
Co363 N373 2.128 . S
Co363 N383 2.194 . S
Co363 O388 2.351 . S
Co363 O389 2.155 . S
Co363 O390 2.096 . S
C364 N367 1.301 . S
C364 N368 1.328 . S
C364 H369 0.930 . S
C365 C366 1.333 . S
C365 N367 1.317 . S
C365 H370 0.930 . S
C366 C365 1.333 . S
C366 N368 1.350 . S
C366 H392 0.931 . S
N367 Co363 2.148 . S
N367 C364 1.301 . S
N367 C365 1.317 . S
N368 C364 1.328 . S
N368 C366 1.350 . S
H369 C364 0.930 . S
H370 C365 0.930 . S
C371 O372 1.224 . S
C371 O390 1.247 . S
O372 C371 1.224 . S
N373 Co363 2.128 . S
N373 C374 1.355 . S
N373 C376 1.311 . S
C374 N373 1.355 . S
C374 C375 1.363 . S
C374 H386 0.929 . S
C375 C374 1.363 . S
C375 N377 1.375 . S
C375 H393 0.931 . S
C376 N373 1.311 . S
C376 N377 1.347 . S
C376 H387 0.929 . S
N377 C375 1.375 . S
N377 C376 1.347 . S
C378 C381 1.365 . S
C378 N383 1.328 . S
C378 H384 0.929 . S
C379 C380 1.362 . S
C379 C382 1.378 . S
C379 H394 0.929 . S
C380 C379 1.362 . S
C380 C381 1.366 . S
C381 C378 1.365 . S
C381 C380 1.366 . S
C381 H395 0.930 . S
C382 C379 1.378 . S
C382 N383 1.315 . S
C382 H385 0.930 . S
N383 Co363 2.194 . S
N383 C378 1.328 . S
N383 C382 1.315 . S
H384 C378 0.929 . S
H385 C382 0.930 . S
H386 C374 0.929 . S
H387 C376 0.929 . S
O388 Co363 2.351 . S
O388 C391 1.244 . S
O389 Co363 2.155 . S
O389 C391 1.240 . S
O390 Co363 2.096 . S
O390 C371 1.247 . S
C391 O388 1.244 . S
C391 O389 1.240 . S
H392 C366 0.931 . S
H393 C375 0.931 . S
H394 C379 0.929 . S
H395 C381 0.930 . S
Co396 N400 2.148 . S
Co396 N406 2.128 . S
Co396 N416 2.194 . S
Co396 O421 2.351 . S
Co396 O422 2.155 . S
Co396 O423 2.096 . S
C397 N400 1.301 . S
C397 N401 1.328 . S
C397 H402 0.930 . S
C398 C399 1.333 . S
C398 N400 1.317 . S
C398 H403 0.930 . S
C399 C398 1.333 . S
C399 N401 1.350 . S
C399 H425 0.931 . S
N400 Co396 2.148 . S
N400 C397 1.301 . S
N400 C398 1.317 . S
N401 C397 1.328 . S
N401 C399 1.350 . S
H402 C397 0.930 . S
H403 C398 0.930 . S
C404 O405 1.224 . S
C404 O423 1.247 . S
O405 C404 1.224 . S
N406 Co396 2.128 . S
N406 C407 1.355 . S
N406 C409 1.311 . S
C407 N406 1.355 . S
C407 C408 1.363 . S
C407 H419 0.929 . S
C408 C407 1.363 . S
C408 N410 1.375 . S
C408 H426 0.931 . S
C409 N406 1.311 . S
C409 N410 1.347 . S
C409 H420 0.929 . S
N410 C408 1.375 . S
N410 C409 1.347 . S
C411 C414 1.365 . S
C411 N416 1.328 . S
C411 H417 0.929 . S
C412 C413 1.362 . S
C412 C415 1.378 . S
C412 H427 0.929 . S
C413 C412 1.362 . S
C413 C414 1.366 . S
C414 C411 1.365 . S
C414 C413 1.366 . S
C414 H428 0.930 . S
C415 C412 1.378 . S
C415 N416 1.315 . S
C415 H418 0.930 . S
N416 Co396 2.194 . S
N416 C411 1.328 . S
N416 C415 1.315 . S
H417 C411 0.929 . S
H418 C415 0.930 . S
H419 C407 0.929 . S
H420 C409 0.929 . S
O421 Co396 2.351 . S
O421 C424 1.244 . S
O422 Co396 2.155 . S
O422 C424 1.240 . S
O423 Co396 2.096 . S
O423 C404 1.247 . S
C424 O421 1.244 . S
C424 O422 1.240 . S
H425 C399 0.931 . S
H426 C408 0.931 . S
H427 C412 0.929 . S
H428 C414 0.930 . S
Co429 N433 2.148 . S
Co429 N439 2.128 . S
Co429 N449 2.194 . S
Co429 O454 2.351 . S
Co429 O455 2.155 . S
Co429 O456 2.096 . S
C430 N433 1.301 . S
C430 N434 1.328 . S
C430 H435 0.930 . S
C431 C432 1.333 . S
C431 N433 1.317 . S
C431 H436 0.930 . S
C432 C431 1.333 . S
C432 N434 1.350 . S
C432 H458 0.931 . S
N433 Co429 2.148 . S
N433 C430 1.301 . S
N433 C431 1.317 . S
N434 C430 1.328 . S
N434 C432 1.350 . S
H435 C430 0.930 . S
H436 C431 0.930 . S
C437 O438 1.224 . S
C437 O456 1.247 . S
O438 C437 1.224 . S
N439 Co429 2.128 . S
N439 C440 1.355 . S
N439 C442 1.311 . S
C440 N439 1.355 . S
C440 C441 1.363 . S
C440 H452 0.929 . S
C441 C440 1.363 . S
C441 N443 1.375 . S
C441 H459 0.931 . S
C442 N439 1.311 . S
C442 N443 1.347 . S
C442 H453 0.929 . S
N443 C441 1.375 . S
N443 C442 1.347 . S
C444 C447 1.365 . S
C444 N449 1.328 . S
C444 H450 0.929 . S
C445 C446 1.362 . S
C445 C448 1.378 . S
C445 H460 0.929 . S
C446 C445 1.362 . S
C446 C447 1.366 . S
C447 C444 1.365 . S
C447 C446 1.366 . S
C447 H461 0.930 . S
C448 C445 1.378 . S
C448 N449 1.315 . S
C448 H451 0.930 . S
N449 Co429 2.194 . S
N449 C444 1.328 . S
N449 C448 1.315 . S
H450 C444 0.929 . S
H451 C448 0.930 . S
H452 C440 0.929 . S
H453 C442 0.929 . S
O454 Co429 2.351 . S
O454 C457 1.244 . S
O455 Co429 2.155 . S
O455 C457 1.240 . S
O456 Co429 2.096 . S
O456 C437 1.247 . S
C457 O454 1.244 . S
C457 O455 1.240 . S
H458 C432 0.931 . S
H459 C441 0.931 . S
H460 C445 0.929 . S
H461 C447 0.930 . S
Co462 N466 2.148 . S
Co462 N472 2.128 . S
Co462 N482 2.194 . S
Co462 O487 2.351 . S
Co462 O488 2.155 . S
Co462 O489 2.096 . S
C463 N466 1.301 . S
C463 N467 1.328 . S
C463 H468 0.930 . S
C464 C465 1.333 . S
C464 N466 1.317 . S
C464 H469 0.930 . S
C465 C464 1.333 . S
C465 N467 1.350 . S
C465 H491 0.931 . S
N466 Co462 2.148 . S
N466 C463 1.301 . S
N466 C464 1.317 . S
N467 C463 1.328 . S
N467 C465 1.350 . S
H468 C463 0.930 . S
H469 C464 0.930 . S
C470 O471 1.224 . S
C470 O489 1.247 . S
O471 C470 1.224 . S
N472 Co462 2.128 . S
N472 C473 1.355 . S
N472 C475 1.311 . S
C473 N472 1.355 . S
C473 C474 1.363 . S
C473 H485 0.929 . S
C474 C473 1.363 . S
C474 N476 1.375 . S
C474 H492 0.931 . S
C475 N472 1.311 . S
C475 N476 1.347 . S
C475 H486 0.929 . S
N476 C474 1.375 . S
N476 C475 1.347 . S
C477 C480 1.365 . S
C477 N482 1.328 . S
C477 H483 0.929 . S
C478 C479 1.362 . S
C478 C481 1.378 . S
C478 H493 0.929 . S
C479 C478 1.362 . S
C479 C480 1.366 . S
C480 C477 1.365 . S
C480 C479 1.366 . S
C480 H494 0.930 . S
C481 C478 1.378 . S
C481 N482 1.315 . S
C481 H484 0.930 . S
N482 Co462 2.194 . S
N482 C477 1.328 . S
N482 C481 1.315 . S
H483 C477 0.929 . S
H484 C481 0.930 . S
H485 C473 0.929 . S
H486 C475 0.929 . S
O487 Co462 2.351 . S
O487 C490 1.244 . S
O488 Co462 2.155 . S
O488 C490 1.240 . S
O489 Co462 2.096 . S
O489 C470 1.247 . S
C490 O487 1.244 . S
C490 O488 1.240 . S
H491 C465 0.931 . S
H492 C474 0.931 . S
H493 C478 0.929 . S
H494 C480 0.930 . S
Co495 N499 2.148 . S
Co495 N505 2.128 . S
Co495 N515 2.194 . S
Co495 O520 2.351 . S
Co495 O521 2.155 . S
Co495 O522 2.096 . S
C496 N499 1.301 . S
C496 N500 1.328 . S
C496 H501 0.930 . S
C497 C498 1.333 . S
C497 N499 1.317 . S
C497 H502 0.930 . S
C498 C497 1.333 . S
C498 N500 1.350 . S
C498 H524 0.931 . S
N499 Co495 2.148 . S
N499 C496 1.301 . S
N499 C497 1.317 . S
N500 C496 1.328 . S
N500 C498 1.350 . S
H501 C496 0.930 . S
H502 C497 0.930 . S
C503 O504 1.224 . S
C503 O522 1.247 . S
O504 C503 1.224 . S
N505 Co495 2.128 . S
N505 C506 1.355 . S
N505 C508 1.311 . S
C506 N505 1.355 . S
C506 C507 1.363 . S
C506 H518 0.929 . S
C507 C506 1.363 . S
C507 N509 1.375 . S
C507 H525 0.931 . S
C508 N505 1.311 . S
C508 N509 1.347 . S
C508 H519 0.929 . S
N509 C507 1.375 . S
N509 C508 1.347 . S
C510 C513 1.365 . S
C510 N515 1.328 . S
C510 H516 0.929 . S
C511 C512 1.362 . S
C511 C514 1.378 . S
C511 H526 0.929 . S
C512 C511 1.362 . S
C512 C513 1.366 . S
C513 C510 1.365 . S
C513 C512 1.366 . S
C513 H527 0.930 . S
C514 C511 1.378 . S
C514 N515 1.315 . S
C514 H517 0.930 . S
N515 Co495 2.194 . S
N515 C510 1.328 . S
N515 C514 1.315 . S
H516 C510 0.929 . S
H517 C514 0.930 . S
H518 C506 0.929 . S
H519 C508 0.929 . S
O520 Co495 2.351 . S
O520 C523 1.244 . S
O521 Co495 2.155 . S
O521 C523 1.240 . S
O522 Co495 2.096 . S
O522 C503 1.247 . S
C523 O520 1.244 . S
C523 O521 1.240 . S
H524 C498 0.931 . S
H525 C507 0.931 . S
H526 C511 0.929 . S
H527 C513 0.930 . S
Co528 N532 2.148 . S
Co528 N538 2.128 . S
Co528 N548 2.194 . S
Co528 O553 2.351 . S
Co528 O554 2.155 . S
Co528 O555 2.096 . S
C529 N532 1.301 . S
C529 N533 1.328 1_545 S
C529 H534 0.930 . S
C530 C531 1.333 . S
C530 N532 1.317 . S
C530 H535 0.930 . S
C531 C530 1.333 . S
C531 N533 1.350 1_545 S
C531 H557 0.931 1_545 S
N532 Co528 2.148 . S
N532 C529 1.301 . S
N532 C530 1.317 . S
N533 C529 1.328 1_565 S
N533 C531 1.350 1_565 S
H534 C529 0.930 . S
H535 C530 0.930 . S
C536 O537 1.224 . S
C536 O555 1.247 . S
O537 C536 1.224 . S
N538 Co528 2.128 . S
N538 C539 1.355 . S
N538 C541 1.311 . S
C539 N538 1.355 . S
C539 C540 1.363 . S
C539 H551 0.929 . S
C540 C539 1.363 . S
C540 N542 1.375 . S
C540 H558 0.931 . S
C541 N538 1.311 . S
C541 N542 1.347 . S
C541 H552 0.929 . S
N542 C540 1.375 . S
N542 C541 1.347 . S
C543 C546 1.365 . S
C543 N548 1.328 . S
C543 H549 0.929 . S
C544 C545 1.362 . S
C544 C547 1.378 . S
C544 H559 0.929 . S
C545 C544 1.362 . S
C545 C546 1.366 . S
C546 C543 1.365 . S
C546 C545 1.366 . S
C546 H560 0.930 . S
C547 C544 1.378 . S
C547 N548 1.315 . S
C547 H550 0.930 . S
N548 Co528 2.194 . S
N548 C543 1.328 . S
N548 C547 1.315 . S
H549 C543 0.929 . S
H550 C547 0.930 . S
H551 C539 0.929 . S
H552 C541 0.929 . S
O553 Co528 2.351 . S
O553 C556 1.244 . S
O554 Co528 2.155 . S
O554 C556 1.240 . S
O555 Co528 2.096 . S
O555 C536 1.247 . S
C556 O553 1.244 . S
C556 O554 1.240 . S
H557 C531 0.931 1_565 S
H558 C540 0.931 . S
H559 C544 0.929 . S
H560 C546 0.930 . S
Co561 N565 2.148 . S
Co561 N571 2.128 1_545 S
Co561 N581 2.194 . S
Co561 O586 2.351 . S
Co561 O587 2.155 . S
Co561 O588 2.096 . S
C562 N565 1.301 . S
C562 N566 1.328 . S
C562 H567 0.930 . S
C563 C564 1.333 . S
C563 N565 1.317 . S
C563 H568 0.930 . S
C564 C563 1.333 . S
C564 N566 1.350 . S
C564 H590 0.931 . S
N565 Co561 2.148 . S
N565 C562 1.301 . S
N565 C563 1.317 . S
N566 C562 1.328 . S
N566 C564 1.350 . S
H567 C562 0.930 . S
H568 C563 0.930 . S
C569 O570 1.224 . S
C569 O588 1.247 . S
O570 C569 1.224 . S
N571 Co561 2.128 1_565 S
N571 C572 1.355 . S
N571 C574 1.311 . S
C572 N571 1.355 . S
C572 C573 1.363 . S
C572 H584 0.929 . S
C573 C572 1.363 . S
C573 N575 1.375 . S
C573 H591 0.931 . S
C574 N571 1.311 . S
C574 N575 1.347 . S
C574 H585 0.929 . S
N575 C573 1.375 . S
N575 C574 1.347 . S
C576 C579 1.365 . S
C576 N581 1.328 . S
C576 H582 0.929 . S
C577 C578 1.362 . S
C577 C580 1.378 . S
C577 H592 0.929 . S
C578 C577 1.362 . S
C578 C579 1.366 . S
C579 C576 1.365 . S
C579 C578 1.366 . S
C579 H593 0.930 . S
C580 C577 1.378 . S
C580 N581 1.315 . S
C580 H583 0.930 . S
N581 Co561 2.194 . S
N581 C576 1.328 . S
N581 C580 1.315 . S
H582 C576 0.929 . S
H583 C580 0.930 . S
H584 C572 0.929 . S
H585 C574 0.929 . S
O586 Co561 2.351 . S
O586 C589 1.244 . S
O587 Co561 2.155 . S
O587 C589 1.240 . S
O588 Co561 2.096 . S
O588 C569 1.247 . S
C589 O586 1.244 . S
C589 O587 1.240 . S
H590 C564 0.931 . S
H591 C573 0.931 . S
H592 C577 0.929 . S
H593 C579 0.930 . S
Co594 N598 2.148 . S
Co594 N604 2.128 1_545 S
Co594 N614 2.194 . S
Co594 O619 2.351 . S
Co594 O620 2.155 . S
Co594 O621 2.096 . S
C595 N598 1.301 . S
C595 N599 1.328 . S
C595 H600 0.930 . S
C596 C597 1.333 . S
C596 N598 1.317 . S
C596 H601 0.930 . S
C597 C596 1.333 . S
C597 N599 1.350 . S
C597 H623 0.931 . S
N598 Co594 2.148 . S
N598 C595 1.301 . S
N598 C596 1.317 . S
N599 C595 1.328 . S
N599 C597 1.350 . S
H600 C595 0.930 . S
H601 C596 0.930 . S
C602 O603 1.224 . S
C602 O621 1.247 . S
O603 C602 1.224 . S
N604 Co594 2.128 1_565 S
N604 C605 1.355 . S
N604 C607 1.311 . S
C605 N604 1.355 . S
C605 C606 1.363 . S
C605 H617 0.929 . S
C606 C605 1.363 . S
C606 N608 1.375 . S
C606 H624 0.931 . S
C607 N604 1.311 . S
C607 N608 1.347 . S
C607 H618 0.929 . S
N608 C606 1.375 . S
N608 C607 1.347 . S
C609 C612 1.365 . S
C609 N614 1.328 . S
C609 H615 0.929 . S
C610 C611 1.362 . S
C610 C613 1.378 . S
C610 H625 0.929 . S
C611 C610 1.362 . S
C611 C612 1.366 . S
C612 C609 1.365 . S
C612 C611 1.366 . S
C612 H626 0.930 . S
C613 C610 1.378 . S
C613 N614 1.315 . S
C613 H616 0.930 . S
N614 Co594 2.194 . S
N614 C609 1.328 . S
N614 C613 1.315 . S
H615 C609 0.929 . S
H616 C613 0.930 . S
H617 C605 0.929 . S
H618 C607 0.929 . S
O619 Co594 2.351 . S
O619 C622 1.244 . S
O620 Co594 2.155 . S
O620 C622 1.240 . S
O621 Co594 2.096 . S
O621 C602 1.247 . S
C622 O619 1.244 . S
C622 O620 1.240 . S
H623 C597 0.931 . S
H624 C606 0.931 . S
H625 C610 0.929 . S
H626 C612 0.930 . S
Co627 N631 2.148 . S
Co627 N637 2.128 . S
Co627 N647 2.194 . S
Co627 O652 2.351 . S
Co627 O653 2.155 . S
Co627 O654 2.096 . S
C628 N631 1.301 . S
C628 N632 1.328 1_545 S
C628 H633 0.930 . S
C629 C630 1.333 . S
C629 N631 1.317 . S
C629 H634 0.930 . S
C630 C629 1.333 . S
C630 N632 1.350 1_545 S
C630 H656 0.931 1_545 S
N631 Co627 2.148 . S
N631 C628 1.301 . S
N631 C629 1.317 . S
N632 C628 1.328 1_565 S
N632 C630 1.350 1_565 S
H633 C628 0.930 . S
H634 C629 0.930 . S
C635 O636 1.224 . S
C635 O654 1.247 . S
O636 C635 1.224 . S
N637 Co627 2.128 . S
N637 C638 1.355 . S
N637 C640 1.311 . S
C638 N637 1.355 . S
C638 C639 1.363 . S
C638 H650 0.929 . S
C639 C638 1.363 . S
C639 N641 1.375 . S
C639 H657 0.931 . S
C640 N637 1.311 . S
C640 N641 1.347 . S
C640 H651 0.929 . S
N641 C639 1.375 . S
N641 C640 1.347 . S
C642 C645 1.365 . S
C642 N647 1.328 . S
C642 H648 0.929 . S
C643 C644 1.362 . S
C643 C646 1.378 . S
C643 H658 0.929 . S
C644 C643 1.362 . S
C644 C645 1.366 . S
C645 C642 1.365 . S
C645 C644 1.366 . S
C645 H659 0.930 . S
C646 C643 1.378 . S
C646 N647 1.315 . S
C646 H649 0.930 . S
N647 Co627 2.194 . S
N647 C642 1.328 . S
N647 C646 1.315 . S
H648 C642 0.929 . S
H649 C646 0.930 . S
H650 C638 0.929 . S
H651 C640 0.929 . S
O652 Co627 2.351 . S
O652 C655 1.244 . S
O653 Co627 2.155 . S
O653 C655 1.240 . S
O654 Co627 2.096 . S
O654 C635 1.247 . S
C655 O652 1.244 . S
C655 O653 1.240 . S
H656 C630 0.931 1_565 S
H657 C639 0.931 . S
H658 C643 0.929 . S
H659 C645 0.930 . S
Co660 N664 2.148 . S
Co660 N670 2.128 . S
Co660 N680 2.194 . S
Co660 O685 2.351 . S
Co660 O686 2.155 . S
Co660 O687 2.096 . S
C661 N664 1.301 . S
C661 N665 1.328 1_565 S
C661 H666 0.930 . S
C662 C663 1.333 . S
C662 N664 1.317 . S
C662 H667 0.930 . S
C663 C662 1.333 . S
C663 N665 1.350 1_565 S
C663 H689 0.931 1_565 S
N664 Co660 2.148 . S
N664 C661 1.301 . S
N664 C662 1.317 . S
N665 C661 1.328 1_545 S
N665 C663 1.350 1_545 S
H666 C661 0.930 . S
H667 C662 0.930 . S
C668 O669 1.224 . S
C668 O687 1.247 . S
O669 C668 1.224 . S
N670 Co660 2.128 . S
N670 C671 1.355 . S
N670 C673 1.311 . S
C671 N670 1.355 . S
C671 C672 1.363 . S
C671 H683 0.929 . S
C672 C671 1.363 . S
C672 N674 1.375 . S
C672 H690 0.931 . S
C673 N670 1.311 . S
C673 N674 1.347 . S
C673 H684 0.929 . S
N674 C672 1.375 . S
N674 C673 1.347 . S
C675 C678 1.365 . S
C675 N680 1.328 . S
C675 H681 0.929 . S
C676 C677 1.362 . S
C676 C679 1.378 . S
C676 H691 0.929 . S
C677 C676 1.362 . S
C677 C678 1.366 . S
C678 C675 1.365 . S
C678 C677 1.366 . S
C678 H692 0.930 . S
C679 C676 1.378 . S
C679 N680 1.315 . S
C679 H682 0.930 . S
N680 Co660 2.194 . S
N680 C675 1.328 . S
N680 C679 1.315 . S
H681 C675 0.929 . S
H682 C679 0.930 . S
H683 C671 0.929 . S
H684 C673 0.929 . S
O685 Co660 2.351 . S
O685 C688 1.244 . S
O686 Co660 2.155 . S
O686 C688 1.240 . S
O687 Co660 2.096 . S
O687 C668 1.247 . S
C688 O685 1.244 . S
C688 O686 1.240 . S
H689 C663 0.931 1_545 S
H690 C672 0.931 . S
H691 C676 0.929 . S
H692 C678 0.930 . S
Co693 N697 2.148 . S
Co693 N703 2.128 1_565 S
Co693 N713 2.194 . S
Co693 O718 2.351 . S
Co693 O719 2.155 . S
Co693 O720 2.096 . S
C694 N697 1.301 . S
C694 N698 1.328 . S
C694 H699 0.930 . S
C695 C696 1.333 . S
C695 N697 1.317 . S
C695 H700 0.930 . S
C696 C695 1.333 . S
C696 N698 1.350 . S
C696 H722 0.931 . S
N697 Co693 2.148 . S
N697 C694 1.301 . S
N697 C695 1.317 . S
N698 C694 1.328 . S
N698 C696 1.350 . S
H699 C694 0.930 . S
H700 C695 0.930 . S
C701 O702 1.224 . S
C701 O720 1.247 . S
O702 C701 1.224 . S
N703 Co693 2.128 1_545 S
N703 C704 1.355 . S
N703 C706 1.311 . S
C704 N703 1.355 . S
C704 C705 1.363 . S
C704 H716 0.929 . S
C705 C704 1.363 . S
C705 N707 1.375 . S
C705 H723 0.931 . S
C706 N703 1.311 . S
C706 N707 1.347 . S
C706 H717 0.929 . S
N707 C705 1.375 . S
N707 C706 1.347 . S
C708 C711 1.365 . S
C708 N713 1.328 . S
C708 H714 0.929 . S
C709 C710 1.362 . S
C709 C712 1.378 . S
C709 H724 0.929 . S
C710 C709 1.362 . S
C710 C711 1.366 . S
C711 C708 1.365 . S
C711 C710 1.366 . S
C711 H725 0.930 . S
C712 C709 1.378 . S
C712 N713 1.315 . S
C712 H715 0.930 . S
N713 Co693 2.194 . S
N713 C708 1.328 . S
N713 C712 1.315 . S
H714 C708 0.929 . S
H715 C712 0.930 . S
H716 C704 0.929 . S
H717 C706 0.929 . S
O718 Co693 2.351 . S
O718 C721 1.244 . S
O719 Co693 2.155 . S
O719 C721 1.240 . S
O720 Co693 2.096 . S
O720 C701 1.247 . S
C721 O718 1.244 . S
C721 O719 1.240 . S
H722 C696 0.931 . S
H723 C705 0.931 . S
H724 C709 0.929 . S
H725 C711 0.930 . S
Co726 N730 2.148 . S
Co726 N736 2.128 1_565 S
Co726 N746 2.194 . S
Co726 O751 2.351 . S
Co726 O752 2.155 . S
Co726 O753 2.096 . S
C727 N730 1.301 . S
C727 N731 1.328 . S
C727 H732 0.930 . S
C728 C729 1.333 . S
C728 N730 1.317 . S
C728 H733 0.930 . S
C729 C728 1.333 . S
C729 N731 1.350 . S
C729 H755 0.931 . S
N730 Co726 2.148 . S
N730 C727 1.301 . S
N730 C728 1.317 . S
N731 C727 1.328 . S
N731 C729 1.350 . S
H732 C727 0.930 . S
H733 C728 0.930 . S
C734 O735 1.224 . S
C734 O753 1.247 . S
O735 C734 1.224 . S
N736 Co726 2.128 1_545 S
N736 C737 1.355 . S
N736 C739 1.311 . S
C737 N736 1.355 . S
C737 C738 1.363 . S
C737 H749 0.929 . S
C738 C737 1.363 . S
C738 N740 1.375 . S
C738 H756 0.931 . S
C739 N736 1.311 . S
C739 N740 1.347 . S
C739 H750 0.929 . S
N740 C738 1.375 . S
N740 C739 1.347 . S
C741 C744 1.365 . S
C741 N746 1.328 . S
C741 H747 0.929 . S
C742 C743 1.362 . S
C742 C745 1.378 . S
C742 H757 0.929 . S
C743 C742 1.362 . S
C743 C744 1.366 . S
C744 C741 1.365 . S
C744 C743 1.366 . S
C744 H758 0.930 . S
C745 C742 1.378 . S
C745 N746 1.315 . S
C745 H748 0.930 . S
N746 Co726 2.194 . S
N746 C741 1.328 . S
N746 C745 1.315 . S
H747 C741 0.929 . S
H748 C745 0.930 . S
H749 C737 0.929 . S
H750 C739 0.929 . S
O751 Co726 2.351 . S
O751 C754 1.244 . S
O752 Co726 2.155 . S
O752 C754 1.240 . S
O753 Co726 2.096 . S
O753 C734 1.247 . S
C754 O751 1.244 . S
C754 O752 1.240 . S
H755 C729 0.931 . S
H756 C738 0.931 . S
H757 C742 0.929 . S
H758 C744 0.930 . S
Co759 N763 2.148 . S
Co759 N769 2.128 . S
Co759 N779 2.194 . S
Co759 O784 2.351 . S
Co759 O785 2.155 . S
Co759 O786 2.096 . S
C760 N763 1.301 . S
C760 N764 1.328 1_565 S
C760 H765 0.930 . S
C761 C762 1.333 . S
C761 N763 1.317 . S
C761 H766 0.930 . S
C762 C761 1.333 . S
C762 N764 1.350 1_565 S
C762 H788 0.931 1_565 S
N763 Co759 2.148 . S
N763 C760 1.301 . S
N763 C761 1.317 . S
N764 C760 1.328 1_545 S
N764 C762 1.350 1_545 S
H765 C760 0.930 . S
H766 C761 0.930 . S
C767 O768 1.224 . S
C767 O786 1.247 . S
O768 C767 1.224 . S
N769 Co759 2.128 . S
N769 C770 1.355 . S
N769 C772 1.311 . S
C770 N769 1.355 . S
C770 C771 1.363 . S
C770 H782 0.929 . S
C771 C770 1.363 . S
C771 N773 1.375 . S
C771 H789 0.931 . S
C772 N769 1.311 . S
C772 N773 1.347 . S
C772 H783 0.929 . S
N773 C771 1.375 . S
N773 C772 1.347 . S
C774 C777 1.365 . S
C774 N779 1.328 . S
C774 H780 0.929 . S
C775 C776 1.362 . S
C775 C778 1.378 . S
C775 H790 0.929 . S
C776 C775 1.362 . S
C776 C777 1.366 . S
C777 C774 1.365 . S
C777 C776 1.366 . S
C777 H791 0.930 . S
C778 C775 1.378 . S
C778 N779 1.315 . S
C778 H781 0.930 . S
N779 Co759 2.194 . S
N779 C774 1.328 . S
N779 C778 1.315 . S
H780 C774 0.929 . S
H781 C778 0.930 . S
H782 C770 0.929 . S
H783 C772 0.929 . S
O784 Co759 2.351 . S
O784 C787 1.244 . S
O785 Co759 2.155 . S
O785 C787 1.240 . S
O786 Co759 2.096 . S
O786 C767 1.247 . S
C787 O784 1.244 . S
C787 O785 1.240 . S
H788 C762 0.931 1_545 S
H789 C771 0.931 . S
H790 C775 0.929 . S
H791 C777 0.930 . S
Co792 N796 2.148 . S
Co792 N802 2.128 . S
Co792 N812 2.194 . S
Co792 O817 2.351 . S
Co792 O818 2.155 . S
Co792 O819 2.096 . S
C793 N796 1.301 . S
C793 N797 1.328 . S
C793 H798 0.930 . S
C794 C795 1.333 . S
C794 N796 1.317 . S
C794 H799 0.930 . S
C795 C794 1.333 . S
C795 N797 1.350 . S
C795 H821 0.931 . S
N796 Co792 2.148 . S
N796 C793 1.301 . S
N796 C794 1.317 . S
N797 C793 1.328 . S
N797 C795 1.350 . S
H798 C793 0.930 . S
H799 C794 0.930 . S
C800 O801 1.224 . S
C800 O819 1.247 . S
O801 C800 1.224 . S
N802 Co792 2.128 . S
N802 C803 1.355 . S
N802 C805 1.311 . S
C803 N802 1.355 . S
C803 C804 1.363 . S
C803 H815 0.929 . S
C804 C803 1.363 . S
C804 N806 1.375 . S
C804 H822 0.931 . S
C805 N802 1.311 . S
C805 N806 1.347 . S
C805 H816 0.929 . S
N806 C804 1.375 . S
N806 C805 1.347 . S
C807 C810 1.365 . S
C807 N812 1.328 . S
C807 H813 0.929 . S
C808 C809 1.362 . S
C808 C811 1.378 . S
C808 H823 0.929 . S
C809 C808 1.362 . S
C809 C810 1.366 . S
C810 C807 1.365 . S
C810 C809 1.366 . S
C810 H824 0.930 . S
C811 C808 1.378 . S
C811 N812 1.315 . S
C811 H814 0.930 . S
N812 Co792 2.194 . S
N812 C807 1.328 . S
N812 C811 1.315 . S
H813 C807 0.929 . S
H814 C811 0.930 . S
H815 C803 0.929 . S
H816 C805 0.929 . S
O817 Co792 2.351 . S
O817 C820 1.244 . S
O818 Co792 2.155 . S
O818 C820 1.240 . S
O819 Co792 2.096 . S
O819 C800 1.247 . S
C820 O817 1.244 . S
C820 O818 1.240 . S
H821 C795 0.931 . S
H822 C804 0.931 . S
H823 C808 0.929 . S
H824 C810 0.930 . S
Co825 N829 2.148 . S
Co825 N835 2.128 . S
Co825 N845 2.194 . S
Co825 O850 2.351 . S
Co825 O851 2.155 . S
Co825 O852 2.096 . S
C826 N829 1.301 . S
C826 N830 1.328 . S
C826 H831 0.930 . S
C827 C828 1.333 . S
C827 N829 1.317 . S
C827 H832 0.930 . S
C828 C827 1.333 . S
C828 N830 1.350 . S
C828 H854 0.931 . S
N829 Co825 2.148 . S
N829 C826 1.301 . S
N829 C827 1.317 . S
N830 C826 1.328 . S
N830 C828 1.350 . S
H831 C826 0.930 . S
H832 C827 0.930 . S
C833 O834 1.224 . S
C833 O852 1.247 . S
O834 C833 1.224 . S
N835 Co825 2.128 . S
N835 C836 1.355 . S
N835 C838 1.311 . S
C836 N835 1.355 . S
C836 C837 1.363 . S
C836 H848 0.929 . S
C837 C836 1.363 . S
C837 N839 1.375 . S
C837 H855 0.931 . S
C838 N835 1.311 . S
C838 N839 1.347 . S
C838 H849 0.929 . S
N839 C837 1.375 . S
N839 C838 1.347 . S
C840 C843 1.365 . S
C840 N845 1.328 . S
C840 H846 0.929 . S
C841 C842 1.362 . S
C841 C844 1.378 . S
C841 H856 0.929 . S
C842 C841 1.362 . S
C842 C843 1.366 . S
C843 C840 1.365 . S
C843 C842 1.366 . S
C843 H857 0.930 . S
C844 C841 1.378 . S
C844 N845 1.315 . S
C844 H847 0.930 . S
N845 Co825 2.194 . S
N845 C840 1.328 . S
N845 C844 1.315 . S
H846 C840 0.929 . S
H847 C844 0.930 . S
H848 C836 0.929 . S
H849 C838 0.929 . S
O850 Co825 2.351 . S
O850 C853 1.244 . S
O851 Co825 2.155 . S
O851 C853 1.240 . S
O852 Co825 2.096 . S
O852 C833 1.247 . S
C853 O850 1.244 . S
C853 O851 1.240 . S
H854 C828 0.931 . S
H855 C837 0.931 . S
H856 C841 0.929 . S
H857 C843 0.930 . S
Co858 N862 2.148 . S
Co858 N868 2.128 . S
Co858 N878 2.194 . S
Co858 O883 2.351 . S
Co858 O884 2.155 . S
Co858 O885 2.096 . S
C859 N862 1.301 . S
C859 N863 1.328 . S
C859 H864 0.930 . S
C860 C861 1.333 . S
C860 N862 1.317 . S
C860 H865 0.930 . S
C861 C860 1.333 . S
C861 N863 1.350 . S
C861 H887 0.931 . S
N862 Co858 2.148 . S
N862 C859 1.301 . S
N862 C860 1.317 . S
N863 C859 1.328 . S
N863 C861 1.350 . S
H864 C859 0.930 . S
H865 C860 0.930 . S
C866 O867 1.224 . S
C866 O885 1.247 . S
O867 C866 1.224 . S
N868 Co858 2.128 . S
N868 C869 1.355 . S
N868 C871 1.311 . S
C869 N868 1.355 . S
C869 C870 1.363 . S
C869 H881 0.929 . S
C870 C869 1.363 . S
C870 N872 1.375 . S
C870 H888 0.931 . S
C871 N868 1.311 . S
C871 N872 1.347 . S
C871 H882 0.929 . S
N872 C870 1.375 . S
N872 C871 1.347 . S
C873 C876 1.365 . S
C873 N878 1.328 . S
C873 H879 0.929 . S
C874 C875 1.362 . S
C874 C877 1.378 . S
C874 H889 0.929 . S
C875 C874 1.362 . S
C875 C876 1.366 . S
C876 C873 1.365 . S
C876 C875 1.366 . S
C876 H890 0.930 . S
C877 C874 1.378 . S
C877 N878 1.315 . S
C877 H880 0.930 . S
N878 Co858 2.194 . S
N878 C873 1.328 . S
N878 C877 1.315 . S
H879 C873 0.929 . S
H880 C877 0.930 . S
H881 C869 0.929 . S
H882 C871 0.929 . S
O883 Co858 2.351 . S
O883 C886 1.244 . S
O884 Co858 2.155 . S
O884 C886 1.240 . S
O885 Co858 2.096 . S
O885 C866 1.247 . S
C886 O883 1.244 . S
C886 O884 1.240 . S
H887 C861 0.931 . S
H888 C870 0.931 . S
H889 C874 0.929 . S
H890 C876 0.930 . S
Co891 N895 2.148 . S
Co891 N901 2.128 . S
Co891 N911 2.194 . S
Co891 O916 2.351 . S
Co891 O917 2.155 . S
Co891 O918 2.096 . S
C892 N895 1.301 . S
C892 N896 1.328 . S
C892 H897 0.930 . S
C893 C894 1.333 . S
C893 N895 1.317 . S
C893 H898 0.930 . S
C894 C893 1.333 . S
C894 N896 1.350 . S
C894 H920 0.931 . S
N895 Co891 2.148 . S
N895 C892 1.301 . S
N895 C893 1.317 . S
N896 C892 1.328 . S
N896 C894 1.350 . S
H897 C892 0.930 . S
H898 C893 0.930 . S
C899 O900 1.224 . S
C899 O918 1.247 . S
O900 C899 1.224 . S
N901 Co891 2.128 . S
N901 C902 1.355 . S
N901 C904 1.311 . S
C902 N901 1.355 . S
C902 C903 1.363 . S
C902 H914 0.929 . S
C903 C902 1.363 . S
C903 N905 1.375 . S
C903 H921 0.931 . S
C904 N901 1.311 . S
C904 N905 1.347 . S
C904 H915 0.929 . S
N905 C903 1.375 . S
N905 C904 1.347 . S
C906 C909 1.365 . S
C906 N911 1.328 . S
C906 H912 0.929 . S
C907 C908 1.362 . S
C907 C910 1.378 . S
C907 H922 0.929 . S
C908 C907 1.362 . S
C908 C909 1.366 . S
C909 C906 1.365 . S
C909 C908 1.366 . S
C909 H923 0.930 . S
C910 C907 1.378 . S
C910 N911 1.315 . S
C910 H913 0.930 . S
N911 Co891 2.194 . S
N911 C906 1.328 . S
N911 C910 1.315 . S
H912 C906 0.929 . S
H913 C910 0.930 . S
H914 C902 0.929 . S
H915 C904 0.929 . S
O916 Co891 2.351 . S
O916 C919 1.244 . S
O917 Co891 2.155 . S
O917 C919 1.240 . S
O918 Co891 2.096 . S
O918 C899 1.247 . S
C919 O916 1.244 . S
C919 O917 1.240 . S
H920 C894 0.931 . S
H921 C903 0.931 . S
H922 C907 0.929 . S
H923 C909 0.930 . S
Co924 N928 2.148 . S
Co924 N934 2.128 . S
Co924 N944 2.194 . S
Co924 O949 2.351 . S
Co924 O950 2.155 . S
Co924 O951 2.096 . S
C925 N928 1.301 . S
C925 N929 1.328 . S
C925 H930 0.930 . S
C926 C927 1.333 . S
C926 N928 1.317 . S
C926 H931 0.930 . S
C927 C926 1.333 . S
C927 N929 1.350 . S
C927 H953 0.931 . S
N928 Co924 2.148 . S
N928 C925 1.301 . S
N928 C926 1.317 . S
N929 C925 1.328 . S
N929 C927 1.350 . S
H930 C925 0.930 . S
H931 C926 0.930 . S
C932 O933 1.224 . S
C932 O951 1.247 . S
O933 C932 1.224 . S
N934 Co924 2.128 . S
N934 C935 1.355 . S
N934 C937 1.311 . S
C935 N934 1.355 . S
C935 C936 1.363 . S
C935 H947 0.929 . S
C936 C935 1.363 . S
C936 N938 1.375 . S
C936 H954 0.931 . S
C937 N934 1.311 . S
C937 N938 1.347 . S
C937 H948 0.929 . S
N938 C936 1.375 . S
N938 C937 1.347 . S
C939 C942 1.365 . S
C939 N944 1.328 . S
C939 H945 0.929 . S
C940 C941 1.362 . S
C940 C943 1.378 . S
C940 H955 0.929 . S
C941 C940 1.362 . S
C941 C942 1.366 . S
C942 C939 1.365 . S
C942 C941 1.366 . S
C942 H956 0.930 . S
C943 C940 1.378 . S
C943 N944 1.315 . S
C943 H946 0.930 . S
N944 Co924 2.194 . S
N944 C939 1.328 . S
N944 C943 1.315 . S
H945 C939 0.929 . S
H946 C943 0.930 . S
H947 C935 0.929 . S
H948 C937 0.929 . S
O949 Co924 2.351 . S
O949 C952 1.244 . S
O950 Co924 2.155 . S
O950 C952 1.240 . S
O951 Co924 2.096 . S
O951 C932 1.247 . S
C952 O949 1.244 . S
C952 O950 1.240 . S
H953 C927 0.931 . S
H954 C936 0.931 . S
H955 C940 0.929 . S
H956 C942 0.930 . S
Co957 N961 2.148 . S
Co957 N967 2.128 . S
Co957 N977 2.194 . S
Co957 O982 2.351 . S
Co957 O983 2.155 . S
Co957 O984 2.096 . S
C958 N961 1.301 . S
C958 N962 1.328 . S
C958 H963 0.930 . S
C959 C960 1.333 . S
C959 N961 1.317 . S
C959 H964 0.930 . S
C960 C959 1.333 . S
C960 N962 1.350 . S
C960 H986 0.931 . S
N961 Co957 2.148 . S
N961 C958 1.301 . S
N961 C959 1.317 . S
N962 C958 1.328 . S
N962 C960 1.350 . S
H963 C958 0.930 . S
H964 C959 0.930 . S
C965 O966 1.224 . S
C965 O984 1.247 . S
O966 C965 1.224 . S
N967 Co957 2.128 . S
N967 C968 1.355 . S
N967 C970 1.311 . S
C968 N967 1.355 . S
C968 C969 1.363 . S
C968 H980 0.929 . S
C969 C968 1.363 . S
C969 N971 1.375 . S
C969 H987 0.931 . S
C970 N967 1.311 . S
C970 N971 1.347 . S
C970 H981 0.929 . S
N971 C969 1.375 . S
N971 C970 1.347 . S
C972 C975 1.365 . S
C972 N977 1.328 . S
C972 H978 0.929 . S
C973 C974 1.362 . S
C973 C976 1.378 . S
C973 H988 0.929 . S
C974 C973 1.362 . S
C974 C975 1.366 . S
C975 C972 1.365 . S
C975 C974 1.366 . S
C975 H989 0.930 . S
C976 C973 1.378 . S
C976 N977 1.315 . S
C976 H979 0.930 . S
N977 Co957 2.194 . S
N977 C972 1.328 . S
N977 C976 1.315 . S
H978 C972 0.929 . S
H979 C976 0.930 . S
H980 C968 0.929 . S
H981 C970 0.929 . S
O982 Co957 2.351 . S
O982 C985 1.244 . S
O983 Co957 2.155 . S
O983 C985 1.240 . S
O984 Co957 2.096 . S
O984 C965 1.247 . S
C985 O982 1.244 . S
C985 O983 1.240 . S
H986 C960 0.931 . S
H987 C969 0.931 . S
H988 C973 0.929 . S
H989 C975 0.930 . S
Co990 N994 2.148 . S
Co990 N1000 2.128 . S
Co990 N1010 2.194 . S
Co990 O1015 2.351 . S
Co990 O1016 2.155 . S
Co990 O1017 2.096 . S
C991 N994 1.301 . S
C991 N995 1.328 . S
C991 H996 0.930 . S
C992 C993 1.333 . S
C992 N994 1.317 . S
C992 H997 0.930 . S
C993 C992 1.333 . S
C993 N995 1.350 . S
C993 H1019 0.931 . S
N994 Co990 2.148 . S
N994 C991 1.301 . S
N994 C992 1.317 . S
N995 C991 1.328 . S
N995 C993 1.350 . S
H996 C991 0.930 . S
H997 C992 0.930 . S
C998 O999 1.224 . S
C998 O1017 1.247 . S
O999 C998 1.224 . S
N1000 Co990 2.128 . S
N1000 C1001 1.355 . S
N1000 C1003 1.311 . S
C1001 N1000 1.355 . S
C1001 C1002 1.363 . S
C1001 H1013 0.929 . S
C1002 C1001 1.363 . S
C1002 N1004 1.375 . S
C1002 H1020 0.931 . S
C1003 N1000 1.311 . S
C1003 N1004 1.347 . S
C1003 H1014 0.929 . S
N1004 C1002 1.375 . S
N1004 C1003 1.347 . S
C1005 C1008 1.365 . S
C1005 N1010 1.328 . S
C1005 H1011 0.929 . S
C1006 C1007 1.362 . S
C1006 C1009 1.378 . S
C1006 H1021 0.929 . S
C1007 C1006 1.362 . S
C1007 C1008 1.366 . S
C1008 C1005 1.365 . S
C1008 C1007 1.366 . S
C1008 H1022 0.930 . S
C1009 C1006 1.378 . S
C1009 N1010 1.315 . S
C1009 H1012 0.930 . S
N1010 Co990 2.194 . S
N1010 C1005 1.328 . S
N1010 C1009 1.315 . S
H1011 C1005 0.929 . S
H1012 C1009 0.930 . S
H1013 C1001 0.929 . S
H1014 C1003 0.929 . S
O1015 Co990 2.351 . S
O1015 C1018 1.244 . S
O1016 Co990 2.155 . S
O1016 C1018 1.240 . S
O1017 Co990 2.096 . S
O1017 C998 1.247 . S
C1018 O1015 1.244 . S
C1018 O1016 1.240 . S
H1019 C993 0.931 . S
H1020 C1002 0.931 . S
H1021 C1006 0.929 . S
H1022 C1008 0.930 . S
Co1023 N1027 2.148 . S
Co1023 N1033 2.128 . S
Co1023 N1043 2.194 . S
Co1023 O1048 2.351 . S
Co1023 O1049 2.155 . S
Co1023 O1050 2.096 . S
C1024 N1027 1.301 . S
C1024 N1028 1.328 . S
C1024 H1029 0.930 . S
C1025 C1026 1.333 . S
C1025 N1027 1.317 . S
C1025 H1030 0.930 . S
C1026 C1025 1.333 . S
C1026 N1028 1.350 . S
C1026 H1052 0.931 . S
N1027 Co1023 2.148 . S
N1027 C1024 1.301 . S
N1027 C1025 1.317 . S
N1028 C1024 1.328 . S
N1028 C1026 1.350 . S
H1029 C1024 0.930 . S
H1030 C1025 0.930 . S
C1031 O1032 1.224 . S
C1031 O1050 1.247 . S
O1032 C1031 1.224 . S
N1033 Co1023 2.128 . S
N1033 C1034 1.355 . S
N1033 C1036 1.311 . S
C1034 N1033 1.355 . S
C1034 C1035 1.363 . S
C1034 H1046 0.929 . S
C1035 C1034 1.363 . S
C1035 N1037 1.375 . S
C1035 H1053 0.931 . S
C1036 N1033 1.311 . S
C1036 N1037 1.347 . S
C1036 H1047 0.929 . S
N1037 C1035 1.375 . S
N1037 C1036 1.347 . S
C1038 C1041 1.365 . S
C1038 N1043 1.328 . S
C1038 H1044 0.929 . S
C1039 C1040 1.362 . S
C1039 C1042 1.378 . S
C1039 H1054 0.929 . S
C1040 C1039 1.362 . S
C1040 C1041 1.366 . S
C1041 C1038 1.365 . S
C1041 C1040 1.366 . S
C1041 H1055 0.930 . S
C1042 C1039 1.378 . S
C1042 N1043 1.315 . S
C1042 H1045 0.930 . S
N1043 Co1023 2.194 . S
N1043 C1038 1.328 . S
N1043 C1042 1.315 . S
H1044 C1038 0.929 . S
H1045 C1042 0.930 . S
H1046 C1034 0.929 . S
H1047 C1036 0.929 . S
O1048 Co1023 2.351 . S
O1048 C1051 1.244 . S
O1049 Co1023 2.155 . S
O1049 C1051 1.240 . S
O1050 Co1023 2.096 . S
O1050 C1031 1.247 . S
C1051 O1048 1.244 . S
C1051 O1049 1.240 . S
H1052 C1026 0.931 . S
H1053 C1035 0.931 . S
H1054 C1039 0.929 . S
H1055 C1041 0.930 . S
H1056 C1064 0.929 . S
H1057 C1066 0.930 . S
H1058 C1068 0.930 . S
H1059 C1071 0.929 . S
H1060 C1074 0.930 . S
H1061 C1076 0.960 . S
H1062 C1076 0.960 . S
H1063 C1076 0.960 . S
C1064 H1056 0.929 . S
C1064 C1065 1.377 . S
C1064 C1066 1.384 . S
C1065 C1064 1.377 . S
C1065 C1071 1.390 . S
C1066 H1057 0.930 . S
C1066 C1064 1.384 . S
C1066 C1067 1.372 . S
C1067 C1066 1.372 . S
C1067 C1068 1.400 . S
C1067 C1072 1.490 . S
C1068 H1058 0.930 . S
C1068 C1067 1.400 . S
C1068 C1071 1.386 . S
H1069 C1085 0.930 . S
H1070 C1086 0.931 . S
C1071 H1059 0.929 . S
C1071 C1065 1.390 . S
C1071 C1068 1.386 . S
C1072 C1067 1.490 . S
C1072 C1074 1.395 . S
C1072 C1075 1.403 . S
H1073 C1079 0.930 . S
C1074 H1060 0.930 . S
C1074 C1072 1.395 . S
C1074 C1077 1.403 . S
C1075 C1072 1.403 . S
C1075 C1076 1.524 . S
C1075 C1079 1.400 . S
C1076 H1061 0.960 . S
C1076 H1062 0.960 . S
C1076 H1063 0.960 . S
C1076 C1075 1.524 . S
C1077 C1074 1.403 . S
C1077 C1078 1.392 . S
C1077 C1081 1.495 . S
C1078 C1077 1.392 . S
C1078 C1079 1.385 . S
C1078 C1080 1.478 . S
C1079 H1073 0.930 . S
C1079 C1075 1.400 . S
C1079 C1078 1.385 . S
C1080 C1078 1.478 . S
C1080 C1082 1.381 . S
C1080 C1086 1.383 . S
C1081 C1077 1.495 . S
C1081 H1087 0.959 . S
C1081 H1088 0.961 . S
C1081 H1089 0.960 . S
C1082 C1080 1.381 . S
C1082 C1083 1.394 . S
C1082 H1090 0.930 . S
C1083 C1082 1.394 . S
C1083 C1084 1.383 . S
C1083 H1091 0.929 . S
C1084 C1083 1.383 . S
C1084 C1085 1.377 . S
C1085 H1069 0.930 . S
C1085 C1084 1.377 . S
C1085 C1086 1.379 . S
C1086 H1070 0.931 . S
C1086 C1080 1.383 . S
C1086 C1085 1.379 . S
H1087 C1081 0.959 . S
H1088 C1081 0.961 . S
H1089 C1081 0.960 . S
H1090 C1082 0.930 . S
H1091 C1083 0.929 . S
H1092 C1100 0.929 . S
H1093 C1102 0.930 . S
H1094 C1104 0.930 . S
H1095 C1107 0.929 . S
H1096 C1110 0.930 . S
H1097 C1112 0.960 . S
H1098 C1112 0.960 . S
H1099 C1112 0.960 . S
C1100 H1092 0.929 . S
C1100 C1101 1.377 . S
C1100 C1102 1.384 . S
C1101 C1100 1.377 . S
C1101 C1107 1.390 . S
C1102 H1093 0.930 . S
C1102 C1100 1.384 . S
C1102 C1103 1.372 . S
C1103 C1102 1.372 . S
C1103 C1104 1.400 . S
C1103 C1108 1.490 . S
C1104 H1094 0.930 . S
C1104 C1103 1.400 . S
C1104 C1107 1.386 . S
H1105 C1121 0.930 . S
H1106 C1122 0.931 . S
C1107 H1095 0.929 . S
C1107 C1101 1.390 . S
C1107 C1104 1.386 . S
C1108 C1103 1.490 . S
C1108 C1110 1.395 . S
C1108 C1111 1.403 . S
H1109 C1115 0.930 . S
C1110 H1096 0.930 . S
C1110 C1108 1.395 . S
C1110 C1113 1.403 . S
C1111 C1108 1.403 . S
C1111 C1112 1.524 . S
C1111 C1115 1.400 . S
C1112 H1097 0.960 . S
C1112 H1098 0.960 . S
C1112 H1099 0.960 . S
C1112 C1111 1.524 . S
C1113 C1110 1.403 . S
C1113 C1114 1.392 . S
C1113 C1117 1.495 . S
C1114 C1113 1.392 . S
C1114 C1115 1.385 . S
C1114 C1116 1.478 . S
C1115 H1109 0.930 . S
C1115 C1111 1.400 . S
C1115 C1114 1.385 . S
C1116 C1114 1.478 . S
C1116 C1118 1.381 . S
C1116 C1122 1.383 . S
C1117 C1113 1.495 . S
C1117 H1123 0.959 1_545 S
C1117 H1124 0.961 . S
C1117 H1125 0.960 . S
C1118 C1116 1.381 . S
C1118 C1119 1.394 . S
C1118 H1126 0.930 . S
C1119 C1118 1.394 . S
C1119 C1120 1.383 . S
C1119 H1127 0.929 . S
C1120 C1119 1.383 . S
C1120 C1121 1.377 . S
C1121 H1105 0.930 . S
C1121 C1120 1.377 . S
C1121 C1122 1.379 . S
C1122 H1106 0.931 . S
C1122 C1116 1.383 . S
C1122 C1121 1.379 . S
H1123 C1117 0.959 1_565 S
H1124 C1117 0.961 . S
H1125 C1117 0.960 . S
H1126 C1118 0.930 . S
H1127 C1119 0.929 . S
H1128 C1136 0.929 . S
H1129 C1138 0.930 . S
H1130 C1140 0.930 . S
H1131 C1143 0.929 . S
H1132 C1146 0.930 . S
H1133 C1148 0.960 . S
H1134 C1148 0.960 . S
H1135 C1148 0.960 . S
C1136 H1128 0.929 . S
C1136 C1137 1.377 . S
C1136 C1138 1.384 . S
C1137 C1136 1.377 . S
C1137 C1143 1.390 . S
C1138 H1129 0.930 . S
C1138 C1136 1.384 . S
C1138 C1139 1.372 . S
C1139 C1138 1.372 . S
C1139 C1140 1.400 . S
C1139 C1144 1.490 . S
C1140 H1130 0.930 . S
C1140 C1139 1.400 . S
C1140 C1143 1.386 . S
H1141 C1157 0.930 . S
H1142 C1158 0.931 . S
C1143 H1131 0.929 . S
C1143 C1137 1.390 . S
C1143 C1140 1.386 . S
C1144 C1139 1.490 . S
C1144 C1146 1.395 . S
C1144 C1147 1.403 . S
H1145 C1151 0.930 . S
C1146 H1132 0.930 . S
C1146 C1144 1.395 . S
C1146 C1149 1.403 . S
C1147 C1144 1.403 . S
C1147 C1148 1.524 . S
C1147 C1151 1.400 . S
C1148 H1133 0.960 . S
C1148 H1134 0.960 . S
C1148 H1135 0.960 . S
C1148 C1147 1.524 . S
C1149 C1146 1.403 . S
C1149 C1150 1.392 . S
C1149 C1153 1.495 1_565 S
C1150 C1149 1.392 . S
C1150 C1151 1.385 . S
C1150 C1152 1.478 . S
C1151 H1145 0.930 . S
C1151 C1147 1.400 . S
C1151 C1150 1.385 . S
C1152 C1150 1.478 . S
C1152 C1154 1.381 . S
C1152 C1158 1.383 . S
C1153 C1149 1.495 1_545 S
C1153 H1159 0.959 . S
C1153 H1160 0.961 . S
C1153 H1161 0.960 . S
C1154 C1152 1.381 . S
C1154 C1155 1.394 . S
C1154 H1162 0.930 . S
C1155 C1154 1.394 . S
C1155 C1156 1.383 . S
C1155 H1163 0.929 . S
C1156 C1155 1.383 . S
C1156 C1157 1.377 . S
C1157 H1141 0.930 . S
C1157 C1156 1.377 . S
C1157 C1158 1.379 . S
C1158 H1142 0.931 . S
C1158 C1152 1.383 . S
C1158 C1157 1.379 . S
H1159 C1153 0.959 . S
H1160 C1153 0.961 . S
H1161 C1153 0.960 . S
H1162 C1154 0.930 . S
H1163 C1155 0.929 . S
H1164 C1172 0.929 . S
H1165 C1174 0.930 . S
H1166 C1176 0.930 . S
H1167 C1179 0.929 . S
H1168 C1182 0.930 . S
H1169 C1184 0.960 . S
H1170 C1184 0.960 . S
H1171 C1184 0.960 . S
C1172 H1164 0.929 . S
C1172 C1173 1.377 . S
C1172 C1174 1.384 . S
C1173 C1172 1.377 . S
C1173 C1179 1.390 . S
C1174 H1165 0.930 . S
C1174 C1172 1.384 . S
C1174 C1175 1.372 . S
C1175 C1174 1.372 . S
C1175 C1176 1.400 . S
C1175 C1180 1.490 . S
C1176 H1166 0.930 . S
C1176 C1175 1.400 . S
C1176 C1179 1.386 . S
H1177 C1193 0.930 . S
H1178 C1194 0.931 . S
C1179 H1167 0.929 . S
C1179 C1173 1.390 . S
C1179 C1176 1.386 . S
C1180 C1175 1.490 . S
C1180 C1182 1.395 . S
C1180 C1183 1.403 . S
H1181 C1187 0.930 . S
C1182 H1168 0.930 . S
C1182 C1180 1.395 . S
C1182 C1185 1.403 . S
C1183 C1180 1.403 . S
C1183 C1184 1.524 . S
C1183 C1187 1.400 . S
C1184 H1169 0.960 . S
C1184 H1170 0.960 . S
C1184 H1171 0.960 . S
C1184 C1183 1.524 . S
C1185 C1182 1.403 . S
C1185 C1186 1.392 . S
C1185 C1189 1.495 . S
C1186 C1185 1.392 . S
C1186 C1187 1.385 . S
C1186 C1188 1.478 . S
C1187 H1181 0.930 . S
C1187 C1183 1.400 . S
C1187 C1186 1.385 . S
C1188 C1186 1.478 . S
C1188 C1190 1.381 . S
C1188 C1194 1.383 . S
C1189 C1185 1.495 . S
C1189 H1195 0.959 . S
C1189 H1196 0.961 . S
C1189 H1197 0.960 . S
C1190 C1188 1.381 . S
C1190 C1191 1.394 . S
C1190 H1198 0.930 . S
C1191 C1190 1.394 . S
C1191 C1192 1.383 . S
C1191 H1199 0.929 . S
C1192 C1191 1.383 . S
C1192 C1193 1.377 . S
C1193 H1177 0.930 . S
C1193 C1192 1.377 . S
C1193 C1194 1.379 . S
C1194 H1178 0.931 . S
C1194 C1188 1.383 . S
C1194 C1193 1.379 . S
H1195 C1189 0.959 . S
H1196 C1189 0.961 . S
H1197 C1189 0.960 . S
H1198 C1190 0.930 . S
H1199 C1191 0.929 . S
H1200 C1208 0.929 . S
H1201 C1210 0.930 . S
H1202 C1212 0.930 . S
H1203 C1215 0.929 . S
H1204 C1218 0.930 . S
H1205 C1220 0.960 . S
H1206 C1220 0.960 . S
H1207 C1220 0.960 . S
C1208 H1200 0.929 . S
C1208 C1209 1.377 . S
C1208 C1210 1.384 . S
C1209 C1208 1.377 . S
C1209 C1215 1.390 . S
C1210 H1201 0.930 . S
C1210 C1208 1.384 . S
C1210 C1211 1.372 . S
C1211 C1210 1.372 . S
C1211 C1212 1.400 . S
C1211 C1216 1.490 . S
C1212 H1202 0.930 . S
C1212 C1211 1.400 . S
C1212 C1215 1.386 . S
H1213 C1229 0.930 . S
H1214 C1230 0.931 . S
C1215 H1203 0.929 . S
C1215 C1209 1.390 . S
C1215 C1212 1.386 . S
C1216 C1211 1.490 . S
C1216 C1218 1.395 . S
C1216 C1219 1.403 . S
H1217 C1223 0.930 . S
C1218 H1204 0.930 . S
C1218 C1216 1.395 . S
C1218 C1221 1.403 . S
C1219 C1216 1.403 . S
C1219 C1220 1.524 . S
C1219 C1223 1.400 . S
C1220 H1205 0.960 . S
C1220 H1206 0.960 . S
C1220 H1207 0.960 . S
C1220 C1219 1.524 . S
C1221 C1218 1.403 . S
C1221 C1222 1.392 . S
C1221 C1225 1.495 . S
C1222 C1221 1.392 . S
C1222 C1223 1.385 . S
C1222 C1224 1.478 . S
C1223 H1217 0.930 . S
C1223 C1219 1.400 . S
C1223 C1222 1.385 . S
C1224 C1222 1.478 . S
C1224 C1226 1.381 . S
C1224 C1230 1.383 . S
C1225 C1221 1.495 . S
C1225 H1231 0.959 . S
C1225 H1232 0.961 . S
C1225 H1233 0.960 . S
C1226 C1224 1.381 . S
C1226 C1227 1.394 . S
C1226 H1234 0.930 . S
C1227 C1226 1.394 . S
C1227 C1228 1.383 . S
C1227 H1235 0.929 . S
C1228 C1227 1.383 . S
C1228 C1229 1.377 . S
C1229 H1213 0.930 . S
C1229 C1228 1.377 . S
C1229 C1230 1.379 . S
C1230 H1214 0.931 . S
C1230 C1224 1.383 . S
C1230 C1229 1.379 . S
H1231 C1225 0.959 . S
H1232 C1225 0.961 . S
H1233 C1225 0.960 . S
H1234 C1226 0.930 . S
H1235 C1227 0.929 . S
H1236 C1244 0.929 . S
H1237 C1246 0.930 . S
H1238 C1248 0.930 . S
H1239 C1251 0.929 . S
H1240 C1254 0.930 . S
H1241 C1256 0.960 . S
H1242 C1256 0.960 . S
H1243 C1256 0.960 . S
C1244 H1236 0.929 . S
C1244 C1245 1.377 . S
C1244 C1246 1.384 . S
C1245 C1244 1.377 . S
C1245 C1251 1.390 . S
C1246 H1237 0.930 . S
C1246 C1244 1.384 . S
C1246 C1247 1.372 . S
C1247 C1246 1.372 . S
C1247 C1248 1.400 . S
C1247 C1252 1.490 . S
C1248 H1238 0.930 . S
C1248 C1247 1.400 . S
C1248 C1251 1.386 . S
H1249 C1265 0.930 . S
H1250 C1266 0.931 . S
C1251 H1239 0.929 . S
C1251 C1245 1.390 . S
C1251 C1248 1.386 . S
C1252 C1247 1.490 . S
C1252 C1254 1.395 . S
C1252 C1255 1.403 . S
H1253 C1259 0.930 . S
C1254 H1240 0.930 . S
C1254 C1252 1.395 . S
C1254 C1257 1.403 . S
C1255 C1252 1.403 . S
C1255 C1256 1.524 . S
C1255 C1259 1.400 . S
C1256 H1241 0.960 . S
C1256 H1242 0.960 . S
C1256 H1243 0.960 . S
C1256 C1255 1.524 . S
C1257 C1254 1.403 . S
C1257 C1258 1.392 . S
C1257 C1261 1.495 . S
C1258 C1257 1.392 . S
C1258 C1259 1.385 . S
C1258 C1260 1.478 . S
C1259 H1253 0.930 . S
C1259 C1255 1.400 . S
C1259 C1258 1.385 . S
C1260 C1258 1.478 . S
C1260 C1262 1.381 . S
C1260 C1266 1.383 . S
C1261 C1257 1.495 . S
C1261 H1267 0.959 . S
C1261 H1268 0.961 . S
C1261 H1269 0.960 . S
C1262 C1260 1.381 . S
C1262 C1263 1.394 . S
C1262 H1270 0.930 . S
C1263 C1262 1.394 . S
C1263 C1264 1.383 . S
C1263 H1271 0.929 . S
C1264 C1263 1.383 . S
C1264 C1265 1.377 . S
C1265 H1249 0.930 . S
C1265 C1264 1.377 . S
C1265 C1266 1.379 . S
C1266 H1250 0.931 . S
C1266 C1260 1.383 . S
C1266 C1265 1.379 . S
H1267 C1261 0.959 . S
H1268 C1261 0.961 . S
H1269 C1261 0.960 . S
H1270 C1262 0.930 . S
H1271 C1263 0.929 . S
H1272 C1280 0.929 . S
H1273 C1282 0.930 . S
H1274 C1284 0.930 . S
H1275 C1287 0.929 . S
H1276 C1290 0.930 . S
H1277 C1292 0.960 . S
H1278 C1292 0.960 . S
H1279 C1292 0.960 . S
C1280 H1272 0.929 . S
C1280 C1281 1.377 . S
C1280 C1282 1.384 . S
C1281 C1280 1.377 . S
C1281 C1287 1.390 . S
C1282 H1273 0.930 . S
C1282 C1280 1.384 . S
C1282 C1283 1.372 . S
C1283 C1282 1.372 . S
C1283 C1284 1.400 . S
C1283 C1288 1.490 . S
C1284 H1274 0.930 . S
C1284 C1283 1.400 . S
C1284 C1287 1.386 . S
H1285 C1301 0.930 . S
H1286 C1302 0.931 . S
C1287 H1275 0.929 . S
C1287 C1281 1.390 . S
C1287 C1284 1.386 . S
C1288 C1283 1.490 . S
C1288 C1290 1.395 . S
C1288 C1291 1.403 . S
H1289 C1295 0.930 . S
C1290 H1276 0.930 . S
C1290 C1288 1.395 . S
C1290 C1293 1.403 . S
C1291 C1288 1.403 . S
C1291 C1292 1.524 . S
C1291 C1295 1.400 . S
C1292 H1277 0.960 . S
C1292 H1278 0.960 . S
C1292 H1279 0.960 . S
C1292 C1291 1.524 . S
C1293 C1290 1.403 . S
C1293 C1294 1.392 . S
C1293 C1297 1.495 . S
C1294 C1293 1.392 . S
C1294 C1295 1.385 . S
C1294 C1296 1.478 . S
C1295 H1289 0.930 . S
C1295 C1291 1.400 . S
C1295 C1294 1.385 . S
C1296 C1294 1.478 . S
C1296 C1298 1.381 . S
C1296 C1302 1.383 . S
C1297 C1293 1.495 . S
C1297 H1303 0.959 . S
C1297 H1304 0.961 . S
C1297 H1305 0.960 . S
C1298 C1296 1.381 . S
C1298 C1299 1.394 . S
C1298 H1306 0.930 . S
C1299 C1298 1.394 . S
C1299 C1300 1.383 . S
C1299 H1307 0.929 . S
C1300 C1299 1.383 . S
C1300 C1301 1.377 . S
C1301 H1285 0.930 . S
C1301 C1300 1.377 . S
C1301 C1302 1.379 . S
C1302 H1286 0.931 . S
C1302 C1296 1.383 . S
C1302 C1301 1.379 . S
H1303 C1297 0.959 . S
H1304 C1297 0.961 . S
H1305 C1297 0.960 . S
H1306 C1298 0.930 . S
H1307 C1299 0.929 . S
H1308 C1316 0.929 . S
H1309 C1318 0.930 . S
H1310 C1320 0.930 . S
H1311 C1323 0.929 . S
H1312 C1326 0.930 . S
H1313 C1328 0.960 . S
H1314 C1328 0.960 . S
H1315 C1328 0.960 . S
C1316 H1308 0.929 . S
C1316 C1317 1.377 . S
C1316 C1318 1.384 . S
C1317 C1316 1.377 . S
C1317 C1323 1.390 . S
C1318 H1309 0.930 . S
C1318 C1316 1.384 . S
C1318 C1319 1.372 . S
C1319 C1318 1.372 . S
C1319 C1320 1.400 . S
C1319 C1324 1.490 . S
C1320 H1310 0.930 . S
C1320 C1319 1.400 . S
C1320 C1323 1.386 . S
H1321 C1337 0.930 . S
H1322 C1338 0.931 . S
C1323 H1311 0.929 . S
C1323 C1317 1.390 . S
C1323 C1320 1.386 . S
C1324 C1319 1.490 . S
C1324 C1326 1.395 . S
C1324 C1327 1.403 . S
H1325 C1331 0.930 . S
C1326 H1312 0.930 . S
C1326 C1324 1.395 . S
C1326 C1329 1.403 . S
C1327 C1324 1.403 . S
C1327 C1328 1.524 . S
C1327 C1331 1.400 . S
C1328 H1313 0.960 . S
C1328 H1314 0.960 . S
C1328 H1315 0.960 . S
C1328 C1327 1.524 . S
C1329 C1326 1.403 . S
C1329 C1330 1.392 . S
C1329 C1333 1.495 . S
C1330 C1329 1.392 . S
C1330 C1331 1.385 . S
C1330 C1332 1.478 . S
C1331 H1325 0.930 . S
C1331 C1327 1.400 . S
C1331 C1330 1.385 . S
C1332 C1330 1.478 . S
C1332 C1334 1.381 . S
C1332 C1338 1.383 . S
C1333 C1329 1.495 . S
C1333 H1339 0.959 . S
C1333 H1340 0.961 . S
C1333 H1341 0.960 . S
C1334 C1332 1.381 . S
C1334 C1335 1.394 . S
C1334 H1342 0.930 . S
C1335 C1334 1.394 . S
C1335 C1336 1.383 . S
C1335 H1343 0.929 . S
C1336 C1335 1.383 . S
C1336 C1337 1.377 . S
C1337 H1321 0.930 . S
C1337 C1336 1.377 . S
C1337 C1338 1.379 . S
C1338 H1322 0.931 . S
C1338 C1332 1.383 . S
C1338 C1337 1.379 . S
H1339 C1333 0.959 . S
H1340 C1333 0.961 . S
H1341 C1333 0.960 . S
H1342 C1334 0.930 . S
H1343 C1335 0.929 . S
H1344 C1352 0.929 . S
H1345 C1354 0.930 . S
H1346 C1356 0.930 . S
H1347 C1359 0.929 . S
H1348 C1362 0.930 . S
H1349 C1364 0.960 . S
H1350 C1364 0.960 . S
H1351 C1364 0.960 . S
C1352 H1344 0.929 . S
C1352 C1353 1.377 . S
C1352 C1354 1.384 . S
C1353 C1352 1.377 . S
C1353 C1359 1.390 . S
C1354 H1345 0.930 . S
C1354 C1352 1.384 . S
C1354 C1355 1.372 . S
C1355 C1354 1.372 . S
C1355 C1356 1.400 . S
C1355 C1360 1.490 . S
C1356 H1346 0.930 . S
C1356 C1355 1.400 . S
C1356 C1359 1.386 . S
H1357 C1373 0.930 . S
H1358 C1374 0.931 . S
C1359 H1347 0.929 . S
C1359 C1353 1.390 . S
C1359 C1356 1.386 . S
C1360 C1355 1.490 . S
C1360 C1362 1.395 . S
C1360 C1363 1.403 . S
H1361 C1367 0.930 . S
C1362 H1348 0.930 . S
C1362 C1360 1.395 . S
C1362 C1365 1.403 . S
C1363 C1360 1.403 . S
C1363 C1364 1.524 . S
C1363 C1367 1.400 . S
C1364 H1349 0.960 . S
C1364 H1350 0.960 . S
C1364 H1351 0.960 . S
C1364 C1363 1.524 . S
C1365 C1362 1.403 . S
C1365 C1366 1.392 . S
C1365 C1369 1.495 . S
C1366 C1365 1.392 . S
C1366 C1367 1.385 . S
C1366 C1368 1.478 . S
C1367 H1361 0.930 . S
C1367 C1363 1.400 . S
C1367 C1366 1.385 . S
C1368 C1366 1.478 . S
C1368 C1370 1.381 . S
C1368 C1374 1.383 . S
C1369 C1365 1.495 . S
C1369 H1375 0.959 1_545 S
C1369 H1376 0.961 . S
C1369 H1377 0.961 . S
C1370 C1368 1.381 . S
C1370 C1371 1.394 . S
C1370 H1378 0.930 . S
C1371 C1370 1.394 . S
C1371 C1372 1.383 . S
C1371 H1379 0.929 . S
C1372 C1371 1.383 . S
C1372 C1373 1.377 . S
C1373 H1357 0.930 . S
C1373 C1372 1.377 . S
C1373 C1374 1.379 . S
C1374 H1358 0.931 . S
C1374 C1368 1.383 . S
C1374 C1373 1.379 . S
H1375 C1369 0.959 1_565 S
H1376 C1369 0.961 . S
H1377 C1369 0.961 . S
H1378 C1370 0.930 . S
H1379 C1371 0.929 . S
H1380 C1388 0.929 . S
H1381 C1390 0.930 . S
H1382 C1392 0.930 . S
H1383 C1395 0.917 1_565 S
H1384 C1398 0.930 . S
H1385 C1400 0.960 . S
H1386 C1400 0.960 . S
H1387 C1400 0.960 . S
C1388 H1380 0.929 . S
C1388 C1389 1.377 . S
C1388 C1390 1.384 . S
C1389 C1388 1.377 . S
C1389 C1395 1.390 . S
C1390 H1381 0.930 . S
C1390 C1388 1.384 . S
C1390 C1391 1.372 . S
C1391 C1390 1.372 . S
C1391 C1392 1.400 . S
C1391 C1396 1.490 . S
C1392 H1382 0.930 . S
C1392 C1391 1.400 . S
C1392 C1395 1.386 . S
H1393 C1409 0.930 . S
H1394 C1410 0.931 . S
C1395 H1383 0.917 1_545 S
C1395 C1389 1.390 . S
C1395 C1392 1.386 . S
C1396 C1391 1.490 . S
C1396 C1398 1.395 . S
C1396 C1399 1.403 . S
H1397 C1403 0.930 . S
C1398 H1384 0.930 . S
C1398 C1396 1.395 . S
C1398 C1401 1.403 . S
C1399 C1396 1.403 . S
C1399 C1400 1.524 . S
C1399 C1403 1.400 . S
C1400 H1385 0.960 . S
C1400 H1386 0.960 . S
C1400 H1387 0.960 . S
C1400 C1399 1.524 . S
C1401 C1398 1.403 . S
C1401 C1402 1.392 . S
C1401 C1405 1.495 . S
C1402 C1401 1.392 . S
C1402 C1403 1.385 . S
C1402 C1404 1.478 . S
C1403 H1397 0.930 . S
C1403 C1399 1.400 . S
C1403 C1402 1.385 . S
C1404 C1402 1.478 . S
C1404 C1406 1.381 . S
C1404 C1410 1.383 . S
C1405 C1401 1.495 . S
C1405 H1411 0.959 . S
C1405 H1412 0.961 . S
C1405 H1413 0.960 . S
C1406 C1404 1.381 . S
C1406 C1407 1.394 . S
C1406 H1414 0.930 . S
C1407 C1406 1.394 . S
C1407 C1408 1.383 . S
C1407 H1415 0.929 . S
C1408 C1407 1.383 . S
C1408 C1409 1.377 . S
C1409 H1393 0.930 . S
C1409 C1408 1.377 . S
C1409 C1410 1.379 . S
C1410 H1394 0.931 . S
C1410 C1404 1.383 . S
C1410 C1409 1.379 . S
H1411 C1405 0.959 . S
H1412 C1405 0.961 . S
H1413 C1405 0.960 . S
H1414 C1406 0.930 . S
H1415 C1407 0.929 . S
H1416 C1424 0.929 . S
H1417 C1426 0.930 . S
H1418 C1428 0.930 . S
H1419 C1431 0.929 . S
H1420 C1434 0.930 . S
H1421 C1436 0.960 . S
H1422 C1436 0.960 . S
H1423 C1436 0.960 . S
C1424 H1416 0.929 . S
C1424 C1425 1.377 . S
C1424 C1426 1.384 . S
C1425 C1424 1.377 . S
C1425 C1431 1.390 . S
C1426 H1417 0.930 . S
C1426 C1424 1.384 . S
C1426 C1427 1.372 . S
C1427 C1426 1.372 . S
C1427 C1428 1.400 . S
C1427 C1432 1.490 . S
C1428 H1418 0.930 . S
C1428 C1427 1.400 . S
C1428 C1431 1.386 . S
H1429 C1445 0.930 . S
H1430 C1446 0.931 . S
C1431 H1419 0.929 . S
C1431 C1425 1.390 . S
C1431 C1428 1.386 . S
C1432 C1427 1.490 . S
C1432 C1434 1.395 . S
C1432 C1435 1.403 . S
H1433 C1439 0.930 . S
C1434 H1420 0.930 . S
C1434 C1432 1.395 . S
C1434 C1437 1.403 . S
C1435 C1432 1.403 . S
C1435 C1436 1.524 . S
C1435 C1439 1.400 . S
C1436 H1421 0.960 . S
C1436 H1422 0.960 . S
C1436 H1423 0.960 . S
C1436 C1435 1.524 . S
C1437 C1434 1.403 . S
C1437 C1438 1.392 . S
C1437 C1441 1.495 . S
C1438 C1437 1.392 . S
C1438 C1439 1.385 . S
C1438 C1440 1.478 . S
C1439 H1433 0.930 . S
C1439 C1435 1.400 . S
C1439 C1438 1.385 . S
C1440 C1438 1.478 . S
C1440 C1442 1.381 . S
C1440 C1446 1.383 . S
C1441 C1437 1.495 . S
C1441 H1447 0.914 1_455 S
C1441 H1448 1.003 . S
C1441 H1449 0.960 . S
C1442 C1440 1.381 . S
C1442 C1443 1.394 . S
C1442 H1450 0.930 . S
C1443 C1442 1.394 . S
C1443 C1444 1.383 . S
C1443 H1451 0.929 . S
C1444 C1443 1.383 . S
C1444 C1445 1.377 . S
C1445 H1429 0.930 . S
C1445 C1444 1.377 . S
C1445 C1446 1.379 . S
C1446 H1430 0.931 . S
C1446 C1440 1.383 . S
C1446 C1445 1.379 . S
H1447 C1441 0.914 1_655 S
H1448 C1441 1.003 . S
H1449 C1441 0.960 . S
H1450 C1442 0.930 . S
H1451 C1443 0.929 . S
H1452 C1460 0.929 . S
H1453 C1462 0.930 . S
H1454 C1464 0.930 . S
H1455 C1467 0.929 . S
H1456 C1470 0.930 . S
H1457 C1472 0.960 . S
H1458 C1472 0.960 . S
H1459 C1472 0.960 . S
C1460 H1452 0.929 . S
C1460 C1461 1.377 . S
C1460 C1462 1.384 . S
C1461 C1460 1.377 . S
C1461 C1467 1.390 . S
C1462 H1453 0.930 . S
C1462 C1460 1.384 . S
C1462 C1463 1.372 . S
C1463 C1462 1.372 . S
C1463 C1464 1.400 . S
C1463 C1468 1.490 . S
C1464 H1454 0.930 . S
C1464 C1463 1.400 . S
C1464 C1467 1.386 . S
H1465 C1481 0.930 . S
H1466 C1482 0.931 . S
C1467 H1455 0.929 . S
C1467 C1461 1.390 . S
C1467 C1464 1.386 . S
C1468 C1463 1.490 . S
C1468 C1470 1.395 . S
C1468 C1471 1.403 . S
H1469 C1475 0.930 . S
C1470 H1456 0.930 . S
C1470 C1468 1.395 . S
C1470 C1473 1.403 . S
C1471 C1468 1.403 . S
C1471 C1472 1.524 . S
C1471 C1475 1.400 . S
C1472 H1457 0.960 . S
C1472 H1458 0.960 . S
C1472 H1459 0.960 . S
C1472 C1471 1.524 . S
C1473 C1470 1.403 . S
C1473 C1474 1.392 . S
C1473 C1477 1.495 . S
C1474 C1473 1.392 . S
C1474 C1475 1.385 . S
C1474 C1476 1.478 . S
C1475 H1469 0.930 . S
C1475 C1471 1.400 . S
C1475 C1474 1.385 . S
C1476 C1474 1.478 . S
C1476 C1478 1.381 . S
C1476 C1482 1.383 . S
C1477 C1473 1.495 . S
C1477 H1483 0.959 . S
C1477 H1484 0.961 . S
C1477 H1485 0.960 . S
C1478 C1476 1.381 . S
C1478 C1479 1.394 . S
C1478 H1486 0.930 . S
C1479 C1478 1.394 . S
C1479 C1480 1.383 . S
C1479 H1487 0.929 . S
C1480 C1479 1.383 . S
C1480 C1481 1.377 . S
C1481 H1465 0.930 . S
C1481 C1480 1.377 . S
C1481 C1482 1.379 . S
C1482 H1466 0.931 . S
C1482 C1476 1.383 . S
C1482 C1481 1.379 . S
H1483 C1477 0.959 . S
H1484 C1477 0.961 . S
H1485 C1477 0.960 . S
H1486 C1478 0.930 . S
H1487 C1479 0.929 . S
H1488 C1496 0.929 . S
H1489 C1498 0.930 . S
H1490 C1500 0.930 . S
H1491 C1503 0.929 . S
H1492 C1506 0.930 . S
H1493 C1508 0.960 . S
H1494 C1508 0.960 . S
H1495 C1508 0.960 . S
C1496 H1488 0.929 . S
C1496 C1497 1.377 . S
C1496 C1498 1.384 . S
C1497 C1496 1.377 . S
C1497 C1503 1.390 . S
C1498 H1489 0.930 . S
C1498 C1496 1.384 . S
C1498 C1499 1.372 . S
C1499 C1498 1.372 . S
C1499 C1500 1.400 . S
C1499 C1504 1.490 . S
C1500 H1490 0.930 . S
C1500 C1499 1.400 . S
C1500 C1503 1.386 . S
H1501 C1517 0.930 . S
H1502 C1518 0.931 . S
C1503 H1491 0.929 . S
C1503 C1497 1.390 . S
C1503 C1500 1.386 . S
C1504 C1499 1.490 . S
C1504 C1506 1.395 . S
C1504 C1507 1.403 . S
H1505 C1511 0.930 . S
C1506 H1492 0.930 . S
C1506 C1504 1.395 . S
C1506 C1509 1.403 . S
C1507 C1504 1.403 . S
C1507 C1508 1.524 . S
C1507 C1511 1.400 . S
C1508 H1493 0.960 . S
C1508 H1494 0.960 . S
C1508 H1495 0.960 . S
C1508 C1507 1.524 . S
C1509 C1506 1.403 . S
C1509 C1510 1.392 . S
C1509 C1513 1.495 . S
C1510 C1509 1.392 . S
C1510 C1511 1.385 . S
C1510 C1512 1.478 . S
C1511 H1505 0.930 . S
C1511 C1507 1.400 . S
C1511 C1510 1.385 . S
C1512 C1510 1.478 . S
C1512 C1514 1.381 . S
C1512 C1518 1.383 . S
C1513 C1509 1.495 . S
C1513 H1519 0.959 1_655 S
C1513 H1520 0.961 . S
C1513 H1521 0.960 . S
C1514 C1512 1.381 . S
C1514 C1515 1.394 . S
C1514 H1522 0.930 . S
C1515 C1514 1.394 . S
C1515 C1516 1.383 . S
C1515 H1523 0.929 . S
C1516 C1515 1.383 . S
C1516 C1517 1.377 . S
C1517 H1501 0.930 . S
C1517 C1516 1.377 . S
C1517 C1518 1.379 . S
C1518 H1502 0.931 . S
C1518 C1512 1.383 . S
C1518 C1517 1.379 . S
H1519 C1513 0.959 1_455 S
H1520 C1513 0.961 . S
H1521 C1513 0.960 . S
H1522 C1514 0.930 . S
H1523 C1515 0.929 . S
H1524 C1532 0.929 . S
H1525 C1534 0.930 . S
H1526 C1536 0.930 . S
H1527 C1539 0.929 . S
H1528 C1542 0.930 . S
H1529 C1544 0.960 . S
H1530 C1544 0.960 . S
H1531 C1544 0.960 . S
C1532 H1524 0.929 . S
C1532 C1533 1.377 . S
C1532 C1534 1.384 . S
C1533 C1532 1.377 . S
C1533 C1539 1.390 . S
C1534 H1525 0.930 . S
C1534 C1532 1.384 . S
C1534 C1535 1.372 . S
C1535 C1534 1.372 . S
C1535 C1536 1.400 . S
C1535 C1540 1.490 . S
C1536 H1526 0.930 . S
C1536 C1535 1.400 . S
C1536 C1539 1.386 . S
H1537 C1553 0.930 . S
H1538 C1554 0.931 . S
C1539 H1527 0.929 . S
C1539 C1533 1.390 . S
C1539 C1536 1.386 . S
C1540 C1535 1.490 . S
C1540 C1542 1.395 . S
C1540 C1543 1.403 . S
H1541 C1547 0.930 . S
C1542 H1528 0.930 . S
C1542 C1540 1.395 . S
C1542 C1545 1.403 . S
C1543 C1540 1.403 . S
C1543 C1544 1.524 . S
C1543 C1547 1.400 . S
C1544 H1529 0.960 . S
C1544 H1530 0.960 . S
C1544 H1531 0.960 . S
C1544 C1543 1.524 . S
C1545 C1542 1.403 . S
C1545 C1546 1.392 . S
C1545 C1549 1.495 . S
C1546 C1545 1.392 . S
C1546 C1547 1.385 . S
C1546 C1548 1.478 . S
C1547 H1541 0.930 . S
C1547 C1543 1.400 . S
C1547 C1546 1.385 . S
C1548 C1546 1.478 . S
C1548 C1550 1.381 . S
C1548 C1554 1.383 . S
C1549 C1545 1.495 . S
C1549 H1555 0.959 . S
C1549 H1556 0.961 . S
C1549 H1557 0.960 . S
C1550 C1548 1.381 . S
C1550 C1551 1.394 . S
C1550 H1558 0.930 . S
C1551 C1550 1.394 . S
C1551 C1552 1.383 . S
C1551 H1559 0.929 . S
C1552 C1551 1.383 . S
C1552 C1553 1.377 . S
C1553 H1537 0.930 . S
C1553 C1552 1.377 . S
C1553 C1554 1.379 . S
C1554 H1538 0.931 . S
C1554 C1548 1.383 . S
C1554 C1553 1.379 . S
H1555 C1549 0.959 . S
H1556 C1549 0.961 . S
H1557 C1549 0.960 . S
H1558 C1550 0.930 . S
H1559 C1551 0.929 . S
H1560 C1568 0.929 . S
H1561 C1570 0.930 . S
H1562 C1572 0.930 . S
H1563 C1575 0.929 . S
H1564 C1578 0.930 . S
H1565 C1580 0.960 . S
H1566 C1580 0.960 . S
H1567 C1580 0.960 . S
C1568 H1560 0.929 . S
C1568 C1569 1.377 . S
C1568 C1570 1.384 . S
C1569 C1568 1.377 . S
C1569 C1575 1.390 . S
C1570 H1561 0.930 . S
C1570 C1568 1.384 . S
C1570 C1571 1.372 . S
C1571 C1570 1.372 . S
C1571 C1572 1.400 . S
C1571 C1576 1.490 . S
C1572 H1562 0.930 . S
C1572 C1571 1.400 . S
C1572 C1575 1.386 . S
H1573 C1589 0.930 . S
H1574 C1590 0.931 . S
C1575 H1563 0.929 . S
C1575 C1569 1.390 . S
C1575 C1572 1.386 . S
C1576 C1571 1.490 . S
C1576 C1578 1.395 . S
C1576 C1579 1.403 . S
H1577 C1583 0.930 . S
C1578 H1564 0.930 . S
C1578 C1576 1.395 . S
C1578 C1581 1.403 . S
C1579 C1576 1.403 . S
C1579 C1580 1.524 . S
C1579 C1583 1.400 . S
C1580 H1565 0.960 . S
C1580 H1566 0.960 . S
C1580 H1567 0.960 . S
C1580 C1579 1.524 . S
C1581 C1578 1.403 . S
C1581 C1582 1.392 . S
C1581 C1585 1.495 . S
C1582 C1581 1.392 . S
C1582 C1583 1.385 . S
C1582 C1584 1.478 . S
C1583 H1577 0.930 . S
C1583 C1579 1.400 . S
C1583 C1582 1.385 . S
C1584 C1582 1.478 . S
C1584 C1586 1.381 . S
C1584 C1590 1.383 . S
C1585 C1581 1.495 . S
C1585 H1591 0.959 . S
C1585 H1592 0.961 . S
C1585 H1593 0.960 . S
C1586 C1584 1.381 . S
C1586 C1587 1.394 . S
C1586 H1594 0.930 . S
C1587 C1586 1.394 . S
C1587 C1588 1.383 . S
C1587 H1595 0.929 . S
C1588 C1587 1.383 . S
C1588 C1589 1.377 . S
C1589 H1573 0.930 . S
C1589 C1588 1.377 . S
C1589 C1590 1.379 . S
C1590 H1574 0.931 . S
C1590 C1584 1.383 . S
C1590 C1589 1.379 . S
H1591 C1585 0.959 . S
H1592 C1585 0.961 . S
H1593 C1585 0.960 . S
H1594 C1586 0.930 . S
H1595 C1587 0.929 . S
H1596 C1604 0.929 . S
H1597 C1606 0.930 . S
H1598 C1608 0.930 . S
H1599 C1611 0.929 . S
H1600 C1614 0.930 . S
H1601 C1616 0.960 . S
H1602 C1616 0.960 . S
H1603 C1616 0.960 . S
C1604 H1596 0.929 . S
C1604 C1605 1.377 . S
C1604 C1606 1.384 . S
C1605 C1604 1.377 . S
C1605 C1611 1.390 . S
C1606 H1597 0.930 . S
C1606 C1604 1.384 . S
C1606 C1607 1.372 . S
C1607 C1606 1.372 . S
C1607 C1608 1.400 . S
C1607 C1612 1.490 . S
C1608 H1598 0.930 . S
C1608 C1607 1.400 . S
C1608 C1611 1.386 . S
H1609 C1625 0.930 . S
H1610 C1626 0.931 . S
C1611 H1599 0.929 . S
C1611 C1605 1.390 . S
C1611 C1608 1.386 . S
C1612 C1607 1.490 . S
C1612 C1614 1.395 . S
C1612 C1615 1.403 . S
H1613 C1619 0.930 . S
C1614 H1600 0.930 . S
C1614 C1612 1.395 . S
C1614 C1617 1.403 . S
C1615 C1612 1.403 . S
C1615 C1616 1.524 . S
C1615 C1619 1.400 . S
C1616 H1601 0.960 . S
C1616 H1602 0.960 . S
C1616 H1603 0.960 . S
C1616 C1615 1.524 . S
C1617 C1614 1.403 . S
C1617 C1618 1.392 . S
C1617 C1621 1.495 . S
C1618 C1617 1.392 . S
C1618 C1619 1.385 . S
C1618 C1620 1.478 . S
C1619 H1613 0.930 . S
C1619 C1615 1.400 . S
C1619 C1618 1.385 . S
C1620 C1618 1.478 . S
C1620 C1622 1.381 . S
C1620 C1626 1.383 . S
C1621 C1617 1.495 . S
C1621 H1627 0.959 . S
C1621 H1628 0.961 . S
C1621 H1629 0.960 . S
C1622 C1620 1.381 . S
C1622 C1623 1.394 . S
C1622 H1630 0.930 . S
C1623 C1622 1.394 . S
C1623 C1624 1.383 . S
C1623 H1631 0.929 . S
C1624 C1623 1.383 . S
C1624 C1625 1.377 . S
C1625 H1609 0.930 . S
C1625 C1624 1.377 . S
C1625 C1626 1.379 . S
C1626 H1610 0.931 . S
C1626 C1620 1.383 . S
C1626 C1625 1.379 . S
H1627 C1621 0.959 . S
H1628 C1621 0.961 . S
H1629 C1621 0.960 . S
H1630 C1622 0.930 . S
H1631 C1623 0.929 . S
H1632 C1640 0.929 . S
H1633 C1642 0.930 1_545 S
H1634 C1644 0.930 . S
H1635 C1647 0.929 . S
H1636 C1650 0.930 . S
H1637 C1652 0.960 . S
H1638 C1652 0.960 1_556 S
H1639 C1652 0.960 . S
C1640 H1632 0.929 . S
C1640 C1641 1.377 . S
C1640 C1642 1.384 . S
C1641 C1640 1.377 . S
C1641 C1647 1.390 . S
C1642 H1633 0.930 1_565 S
C1642 C1640 1.384 . S
C1642 C1643 1.372 . S
C1643 C1642 1.372 . S
C1643 C1644 1.400 . S
C1643 C1648 1.490 . S
C1644 H1634 0.930 . S
C1644 C1643 1.400 . S
C1644 C1647 1.386 . S
H1645 C1661 0.930 . S
H1646 C1662 0.914 1_565 S
C1647 H1635 0.929 . S
C1647 C1641 1.390 . S
C1647 C1644 1.386 . S
C1648 C1643 1.490 . S
C1648 C1650 1.395 . S
C1648 C1651 1.357 1_556 S
H1649 C1655 0.930 . S
C1650 H1636 0.930 . S
C1650 C1648 1.395 . S
C1650 C1653 1.403 1_565 S
C1651 C1648 1.357 1_554 S
C1651 C1652 1.533 . S
C1651 C1655 1.440 1_565 S
C1652 H1637 0.960 . S
C1652 H1638 0.960 1_554 S
C1652 H1639 0.960 . S
C1652 C1651 1.533 . S
C1653 C1650 1.403 1_545 S
C1653 C1654 1.392 1_556 S
C1653 C1657 1.495 . S
C1654 C1653 1.392 1_554 S
C1654 C1655 1.385 . S
C1654 C1656 1.478 . S
C1655 H1649 0.930 . S
C1655 C1651 1.440 1_545 S
C1655 C1654 1.385 . S
C1656 C1654 1.478 . S
C1656 C1658 1.381 . S
C1656 C1662 1.383 . S
C1657 C1653 1.495 . S
C1657 H1663 0.959 . S
C1657 H1664 0.961 1_556 S
C1657 H1665 0.960 . S
C1658 C1656 1.381 . S
C1658 C1659 1.394 . S
C1658 H1666 0.930 . S
C1659 C1658 1.394 . S
C1659 C1660 1.383 . S
C1659 H1667 0.929 . S
C1660 C1659 1.383 . S
C1660 C1661 1.377 . S
C1661 H1645 0.930 . S
C1661 C1660 1.377 . S
C1661 C1662 1.379 . S
C1662 H1646 0.914 1_545 S
C1662 C1656 1.383 . S
C1662 C1661 1.379 . S
H1663 C1657 0.959 . S
H1664 C1657 0.961 1_554 S
H1665 C1657 0.960 . S
H1666 C1658 0.930 . S
H1667 C1659 0.929 . S
H1668 C1676 0.929 . S
H1669 C1678 0.930 . S
H1670 C1680 0.930 . S
H1671 C1683 0.929 . S
H1672 C1686 0.961 . S
H1673 C1688 0.960 . S
H1674 C1688 0.960 . S
H1675 C1688 0.960 . S
C1676 H1668 0.929 . S
C1676 C1677 1.377 . S
C1676 C1678 1.384 . S
C1677 C1676 1.377 . S
C1677 C1683 1.390 . S
C1678 H1669 0.930 . S
C1678 C1676 1.384 . S
C1678 C1679 1.372 . S
C1679 C1678 1.372 . S
C1679 C1680 1.400 . S
C1679 C1684 1.490 . S
C1680 H1670 0.930 . S
C1680 C1679 1.400 . S
C1680 C1683 1.386 . S
H1681 C1697 0.930 . S
H1682 C1698 0.931 . S
C1683 H1671 0.929 . S
C1683 C1677 1.390 . S
C1683 C1680 1.386 . S
C1684 C1679 1.490 . S
C1684 C1686 1.476 . S
C1684 C1687 1.403 . S
H1685 C1691 0.930 . S
C1686 H1672 0.961 . S
C1686 C1684 1.476 . S
C1686 C1689 1.306 1_554 S
C1687 C1684 1.403 . S
C1687 C1688 1.524 . S
C1687 C1691 1.400 1_554 S
C1688 H1673 0.960 . S
C1688 H1674 0.960 . S
C1688 H1675 0.960 . S
C1688 C1687 1.524 . S
C1689 C1686 1.306 1_556 S
C1689 C1690 1.392 . S
C1689 C1693 1.495 . S
C1690 C1689 1.392 . S
C1690 C1691 1.385 . S
C1690 C1692 1.478 . S
C1691 H1685 0.930 . S
C1691 C1687 1.400 1_556 S
C1691 C1690 1.385 . S
C1692 C1690 1.478 . S
C1692 C1694 1.381 . S
C1692 C1698 1.383 . S
C1693 C1689 1.495 . S
C1693 H1699 0.959 . S
C1693 H1700 0.961 . S
C1693 H1701 0.960 . S
C1694 C1692 1.381 . S
C1694 C1695 1.394 . S
C1694 H1702 0.930 . S
C1695 C1694 1.394 . S
C1695 C1696 1.383 . S
C1695 H1703 0.929 . S
C1696 C1695 1.383 . S
C1696 C1697 1.377 . S
C1697 H1681 0.930 . S
C1697 C1696 1.377 . S
C1697 C1698 1.379 . S
C1698 H1682 0.931 . S
C1698 C1692 1.383 . S
C1698 C1697 1.379 . S
H1699 C1693 0.959 . S
H1700 C1693 0.961 . S
H1701 C1693 0.960 . S
H1702 C1694 0.930 . S
H1703 C1695 0.929 . S
H1704 C1712 0.929 . S
H1705 C1714 0.930 . S
H1706 C1716 0.930 . S
H1707 C1719 0.929 . S
H1708 C1722 0.930 . S
H1709 C1724 0.960 . S
H1710 C1724 0.960 . S
H1711 C1724 0.960 . S
C1712 H1704 0.929 . S
C1712 C1713 1.377 . S
C1712 C1714 1.384 . S
C1713 C1712 1.377 . S
C1713 C1719 1.390 . S
C1714 H1705 0.930 . S
C1714 C1712 1.384 . S
C1714 C1715 1.372 . S
C1715 C1714 1.372 . S
C1715 C1716 1.400 . S
C1715 C1720 1.490 . S
C1716 H1706 0.930 . S
C1716 C1715 1.400 . S
C1716 C1719 1.386 . S
H1717 C1733 0.930 . S
H1718 C1734 0.931 . S
C1719 H1707 0.929 . S
C1719 C1713 1.390 . S
C1719 C1716 1.386 . S
C1720 C1715 1.490 . S
C1720 C1722 1.395 . S
C1720 C1723 1.403 . S
H1721 C1727 0.930 . S
C1722 H1708 0.930 . S
C1722 C1720 1.395 . S
C1722 C1725 1.403 . S
C1723 C1720 1.403 . S
C1723 C1724 1.524 . S
C1723 C1727 1.400 . S
C1724 H1709 0.960 . S
C1724 H1710 0.960 . S
C1724 H1711 0.960 . S
C1724 C1723 1.524 . S
C1725 C1722 1.403 . S
C1725 C1726 1.392 . S
C1725 C1729 1.495 . S
C1726 C1725 1.392 . S
C1726 C1727 1.385 . S
C1726 C1728 1.478 . S
C1727 H1721 0.930 . S
C1727 C1723 1.400 . S
C1727 C1726 1.385 . S
C1728 C1726 1.478 . S
C1728 C1730 1.381 . S
C1728 C1734 1.383 . S
C1729 C1725 1.495 . S
C1729 H1735 0.959 . S
C1729 H1736 0.961 . S
C1729 H1737 0.960 . S
C1730 C1728 1.381 . S
C1730 C1731 1.394 . S
C1730 H1738 0.930 . S
C1731 C1730 1.394 . S
C1731 C1732 1.383 . S
C1731 H1739 0.929 . S
C1732 C1731 1.383 . S
C1732 C1733 1.377 . S
C1733 H1717 0.930 . S
C1733 C1732 1.377 . S
C1733 C1734 1.379 . S
C1734 H1718 0.931 . S
C1734 C1728 1.383 . S
C1734 C1733 1.379 . S
H1735 C1729 0.959 . S
H1736 C1729 0.961 . S
H1737 C1729 0.960 . S
H1738 C1730 0.930 . S
H1739 C1731 0.929 . S
H1740 C1748 0.929 . S
H1741 C1750 0.930 . S
H1742 C1752 0.930 . S
H1743 C1755 0.929 . S
H1744 C1758 0.930 . S
H1745 C1760 0.960 . S
H1746 C1760 0.960 . S
H1747 C1760 0.960 . S
C1748 H1740 0.929 . S
C1748 C1749 1.377 . S
C1748 C1750 1.384 . S
C1749 C1748 1.377 . S
C1749 C1755 1.390 . S
C1750 H1741 0.930 . S
C1750 C1748 1.384 . S
C1750 C1751 1.372 . S
C1751 C1750 1.372 . S
C1751 C1752 1.400 . S
C1751 C1756 1.490 . S
C1752 H1742 0.930 . S
C1752 C1751 1.400 . S
C1752 C1755 1.386 . S
H1753 C1769 0.930 . S
H1754 C1770 0.931 . S
C1755 H1743 0.929 . S
C1755 C1749 1.390 . S
C1755 C1752 1.386 . S
C1756 C1751 1.490 . S
C1756 C1758 1.395 . S
C1756 C1759 1.403 1_545 S
H1757 C1763 0.930 . S
C1758 H1744 0.930 . S
C1758 C1756 1.395 . S
C1758 C1761 1.403 . S
C1759 C1756 1.403 1_565 S
C1759 C1760 1.524 . S
C1759 C1763 1.400 . S
C1760 H1745 0.960 . S
C1760 H1746 0.960 . S
C1760 H1747 0.960 . S
C1760 C1759 1.524 . S
C1761 C1758 1.403 . S
C1761 C1762 1.392 1_545 S
C1761 C1765 1.495 . S
C1762 C1761 1.392 1_565 S
C1762 C1763 1.385 . S
C1762 C1764 1.478 . S
C1763 H1757 0.930 . S
C1763 C1759 1.400 . S
C1763 C1762 1.385 . S
C1764 C1762 1.478 . S
C1764 C1766 1.381 . S
C1764 C1770 1.383 . S
C1765 C1761 1.495 . S
C1765 H1771 0.959 . S
C1765 H1772 0.961 . S
C1765 H1773 0.960 . S
C1766 C1764 1.381 . S
C1766 C1767 1.394 . S
C1766 H1774 0.930 . S
C1767 C1766 1.394 . S
C1767 C1768 1.383 . S
C1767 H1775 0.929 . S
C1768 C1767 1.383 . S
C1768 C1769 1.377 . S
C1769 H1753 0.930 . S
C1769 C1768 1.377 . S
C1769 C1770 1.379 . S
C1770 H1754 0.931 . S
C1770 C1764 1.383 . S
C1770 C1769 1.379 . S
H1771 C1765 0.959 . S
H1772 C1765 0.961 . S
H1773 C1765 0.960 . S
H1774 C1766 0.930 . S
H1775 C1767 0.929 . S
H1776 C1784 0.929 . S
H1777 C1786 0.930 . S
H1778 C1788 0.930 . S
H1779 C1791 0.929 . S
H1780 C1794 0.930 . S
H1781 C1796 0.960 . S
H1782 C1796 0.960 1_556 S
H1783 C1796 0.960 . S
C1784 H1776 0.929 . S
C1784 C1785 1.377 . S
C1784 C1786 1.384 . S
C1785 C1784 1.377 . S
C1785 C1791 1.390 . S
C1786 H1777 0.930 . S
C1786 C1784 1.384 . S
C1786 C1787 1.372 . S
C1787 C1786 1.372 . S
C1787 C1788 1.400 . S
C1787 C1792 1.490 . S
C1788 H1778 0.930 . S
C1788 C1787 1.400 . S
C1788 C1791 1.386 . S
H1789 C1805 0.930 . S
H1790 C1806 0.931 . S
C1791 H1779 0.929 . S
C1791 C1785 1.390 . S
C1791 C1788 1.386 . S
C1792 C1787 1.490 . S
C1792 C1794 1.395 . S
C1792 C1795 1.350 1_556 S
H1793 C1799 0.930 . S
C1794 H1780 0.930 . S
C1794 C1792 1.395 . S
C1794 C1797 1.403 . S
C1795 C1792 1.350 1_554 S
C1795 C1796 1.534 . S
C1795 C1799 1.445 . S
C1796 H1781 0.960 . S
C1796 H1782 0.960 1_554 S
C1796 H1783 0.960 . S
C1796 C1795 1.534 . S
C1797 C1794 1.403 . S
C1797 C1798 1.392 1_556 S
C1797 C1801 1.495 . S
C1798 C1797 1.392 1_554 S
C1798 C1799 1.385 . S
C1798 C1800 1.478 . S
C1799 H1793 0.930 . S
C1799 C1795 1.445 . S
C1799 C1798 1.385 . S
C1800 C1798 1.478 . S
C1800 C1802 1.381 . S
C1800 C1806 1.383 . S
C1801 C1797 1.495 . S
C1801 H1807 0.959 . S
C1801 H1808 0.881 1_556 S
C1801 H1809 0.960 . S
C1802 C1800 1.381 . S
C1802 C1803 1.394 . S
C1802 H1810 0.930 . S
C1803 C1802 1.394 . S
C1803 C1804 1.383 . S
C1803 H1811 0.929 . S
C1804 C1803 1.383 . S
C1804 C1805 1.377 . S
C1805 H1789 0.930 . S
C1805 C1804 1.377 . S
C1805 C1806 1.379 . S
C1806 H1790 0.931 . S
C1806 C1800 1.383 . S
C1806 C1805 1.379 . S
H1807 C1801 0.959 . S
H1808 C1801 0.881 1_554 S
H1809 C1801 0.960 . S
H1810 C1802 0.930 . S
H1811 C1803 0.929 . S
H1812 C1820 0.929 . S
H1813 C1822 0.930 . S
H1814 C1824 0.930 . S
H1815 C1827 0.929 . S
H1816 C1830 0.930 . S
H1817 C1832 0.960 . S
H1818 C1832 0.960 . S
H1819 C1832 0.960 . S
C1820 H1812 0.929 . S
C1820 C1821 1.377 . S
C1820 C1822 1.384 . S
C1821 C1820 1.377 . S
C1821 C1827 1.390 . S
C1822 H1813 0.930 . S
C1822 C1820 1.384 . S
C1822 C1823 1.372 . S
C1823 C1822 1.372 . S
C1823 C1824 1.400 . S
C1823 C1828 1.490 . S
C1824 H1814 0.930 . S
C1824 C1823 1.400 . S
C1824 C1827 1.386 . S
H1825 C1841 0.930 . S
H1826 C1842 0.931 . S
C1827 H1815 0.929 . S
C1827 C1821 1.390 . S
C1827 C1824 1.386 . S
C1828 C1823 1.490 . S
C1828 C1830 1.395 . S
C1828 C1831 1.403 . S
H1829 C1835 0.930 . S
C1830 H1816 0.930 . S
C1830 C1828 1.395 . S
C1830 C1833 1.403 . S
C1831 C1828 1.403 . S
C1831 C1832 1.524 . S
C1831 C1835 1.400 . S
C1832 H1817 0.960 . S
C1832 H1818 0.960 . S
C1832 H1819 0.960 . S
C1832 C1831 1.524 . S
C1833 C1830 1.403 . S
C1833 C1834 1.392 . S
C1833 C1837 1.495 . S
C1834 C1833 1.392 . S
C1834 C1835 1.385 . S
C1834 C1836 1.478 . S
C1835 H1829 0.930 . S
C1835 C1831 1.400 . S
C1835 C1834 1.385 . S
C1836 C1834 1.478 . S
C1836 C1838 1.381 . S
C1836 C1842 1.383 . S
C1837 C1833 1.495 . S
C1837 H1843 0.959 . S
C1837 H1844 0.961 . S
C1837 H1845 0.960 . S
C1838 C1836 1.381 . S
C1838 C1839 1.394 . S
C1838 H1846 0.930 . S
C1839 C1838 1.394 . S
C1839 C1840 1.383 . S
C1839 H1847 0.929 . S
C1840 C1839 1.383 . S
C1840 C1841 1.377 . S
C1841 H1825 0.930 . S
C1841 C1840 1.377 . S
C1841 C1842 1.379 . S
C1842 H1826 0.931 . S
C1842 C1836 1.383 . S
C1842 C1841 1.379 . S
H1843 C1837 0.959 . S
H1844 C1837 0.961 . S
H1845 C1837 0.960 . S
H1846 C1838 0.930 . S
H1847 C1839 0.929 . S
H1848 C1856 0.929 . S
H1849 C1858 0.930 . S
H1850 C1860 0.930 . S
H1851 C1863 0.929 . S
H1852 C1866 0.930 . S
H1853 C1868 0.960 . S
H1854 C1868 0.960 . S
H1855 C1868 0.960 . S
C1856 H1848 0.929 . S
C1856 C1857 1.377 . S
C1856 C1858 1.384 . S
C1857 C1856 1.377 . S
C1857 C1863 1.390 . S
C1858 H1849 0.930 . S
C1858 C1856 1.384 . S
C1858 C1859 1.372 . S
C1859 C1858 1.372 . S
C1859 C1860 1.400 . S
C1859 C1864 1.490 . S
C1860 H1850 0.930 . S
C1860 C1859 1.400 . S
C1860 C1863 1.386 . S
H1861 C1877 0.930 . S
H1862 C1878 0.931 . S
C1863 H1851 0.929 . S
C1863 C1857 1.390 . S
C1863 C1860 1.386 . S
C1864 C1859 1.490 . S
C1864 C1866 1.395 1_545 S
C1864 C1867 1.403 . S
H1865 C1871 0.930 . S
C1866 H1852 0.930 . S
C1866 C1864 1.395 1_565 S
C1866 C1869 1.403 . S
C1867 C1864 1.403 . S
C1867 C1868 1.524 . S
C1867 C1871 1.400 . S
C1868 H1853 0.960 . S
C1868 H1854 0.960 . S
C1868 H1855 0.960 . S
C1868 C1867 1.524 . S
C1869 C1866 1.403 . S
C1869 C1870 1.392 . S
C1869 C1873 1.495 . S
C1870 C1869 1.392 . S
C1870 C1871 1.385 1_565 S
C1870 C1872 1.478 . S
C1871 H1865 0.930 . S
C1871 C1867 1.400 . S
C1871 C1870 1.385 1_545 S
C1872 C1870 1.478 . S
C1872 C1874 1.381 . S
C1872 C1878 1.383 . S
C1873 C1869 1.495 . S
C1873 H1879 0.959 . S
C1873 H1880 0.961 . S
C1873 H1881 0.960 . S
C1874 C1872 1.381 . S
C1874 C1875 1.394 . S
C1874 H1882 0.930 . S
C1875 C1874 1.394 . S
C1875 C1876 1.383 . S
C1875 H1883 0.929 . S
C1876 C1875 1.383 . S
C1876 C1877 1.377 . S
C1877 H1861 0.930 . S
C1877 C1876 1.377 . S
C1877 C1878 1.379 . S
C1878 H1862 0.931 . S
C1878 C1872 1.383 . S
C1878 C1877 1.379 . S
H1879 C1873 0.959 . S
H1880 C1873 0.961 . S
H1881 C1873 0.960 . S
H1882 C1874 0.930 . S
H1883 C1875 0.929 . S
H1884 C1892 0.929 . S
H1885 C1894 0.930 . S
H1886 C1896 0.930 . S
H1887 C1899 0.929 . S
H1888 C1902 0.930 . S
H1889 C1904 0.960 . S
H1890 C1904 0.960 . S
H1891 C1904 0.960 . S
C1892 H1884 0.929 . S
C1892 C1893 1.377 . S
C1892 C1894 1.384 . S
C1893 C1892 1.377 . S
C1893 C1899 1.390 . S
C1894 H1885 0.930 . S
C1894 C1892 1.384 . S
C1894 C1895 1.372 . S
C1895 C1894 1.372 . S
C1895 C1896 1.400 . S
C1895 C1900 1.490 . S
C1896 H1886 0.930 . S
C1896 C1895 1.400 . S
C1896 C1899 1.386 . S
H1897 C1913 0.930 . S
H1898 C1914 0.931 . S
C1899 H1887 0.929 . S
C1899 C1893 1.390 . S
C1899 C1896 1.386 . S
C1900 C1895 1.490 . S
C1900 C1902 1.395 . S
C1900 C1903 1.403 . S
H1901 C1907 0.930 . S
C1902 H1888 0.930 . S
C1902 C1900 1.395 . S
C1902 C1905 1.403 . S
C1903 C1900 1.403 . S
C1903 C1904 1.524 . S
C1903 C1907 1.400 . S
C1904 H1889 0.960 . S
C1904 H1890 0.960 . S
C1904 H1891 0.960 . S
C1904 C1903 1.524 . S
C1905 C1902 1.403 . S
C1905 C1906 1.392 . S
C1905 C1909 1.495 . S
C1906 C1905 1.392 . S
C1906 C1907 1.385 . S
C1906 C1908 1.478 . S
C1907 H1901 0.930 . S
C1907 C1903 1.400 . S
C1907 C1906 1.385 . S
C1908 C1906 1.478 . S
C1908 C1910 1.381 . S
C1908 C1914 1.383 . S
C1909 C1905 1.495 . S
C1909 H1915 0.959 . S
C1909 H1916 0.961 . S
C1909 H1917 0.960 . S
C1910 C1908 1.381 . S
C1910 C1911 1.394 . S
C1910 H1918 0.930 . S
C1911 C1910 1.394 . S
C1911 C1912 1.383 . S
C1911 H1919 0.929 . S
C1912 C1911 1.383 . S
C1912 C1913 1.377 . S
C1913 H1897 0.930 . S
C1913 C1912 1.377 . S
C1913 C1914 1.379 . S
C1914 H1898 0.931 . S
C1914 C1908 1.383 . S
C1914 C1913 1.379 . S
H1915 C1909 0.959 . S
H1916 C1909 0.961 . S
H1917 C1909 0.960 . S
H1918 C1910 0.930 . S
H1919 C1911 0.929 . S
H1920 C1928 0.929 . S
H1921 C1930 0.930 . S
H1922 C1932 0.930 . S
H1923 C1935 0.929 . S
H1924 C1938 0.930 . S
H1925 C1940 0.960 . S
H1926 C1940 0.960 . S
H1927 C1940 0.960 . S
C1928 H1920 0.929 . S
C1928 C1929 1.377 . S
C1928 C1930 1.384 . S
C1929 C1928 1.377 . S
C1929 C1935 1.390 . S
C1930 H1921 0.930 . S
C1930 C1928 1.384 . S
C1930 C1931 1.372 . S
C1931 C1930 1.372 . S
C1931 C1932 1.400 . S
C1931 C1936 1.490 . S
C1932 H1922 0.930 . S
C1932 C1931 1.400 . S
C1932 C1935 1.386 . S
H1933 C1949 0.930 . S
H1934 C1950 0.931 . S
C1935 H1923 0.929 . S
C1935 C1929 1.390 . S
C1935 C1932 1.386 . S
C1936 C1931 1.490 . S
C1936 C1938 1.395 . S
C1936 C1939 1.403 . S
H1937 C1943 0.930 . S
C1938 H1924 0.930 . S
C1938 C1936 1.395 . S
C1938 C1941 1.403 . S
C1939 C1936 1.403 . S
C1939 C1940 1.524 . S
C1939 C1943 1.400 . S
C1940 H1925 0.960 . S
C1940 H1926 0.960 . S
C1940 H1927 0.960 . S
C1940 C1939 1.524 . S
C1941 C1938 1.403 . S
C1941 C1942 1.392 . S
C1941 C1945 1.495 . S
C1942 C1941 1.392 . S
C1942 C1943 1.385 . S
C1942 C1944 1.478 . S
C1943 H1937 0.930 . S
C1943 C1939 1.400 . S
C1943 C1942 1.385 . S
C1944 C1942 1.478 . S
C1944 C1946 1.381 . S
C1944 C1950 1.383 . S
C1945 C1941 1.495 . S
C1945 H1951 0.959 . S
C1945 H1952 0.961 . S
C1945 H1953 0.960 . S
C1946 C1944 1.381 . S
C1946 C1947 1.394 . S
C1946 H1954 0.930 . S
C1947 C1946 1.394 . S
C1947 C1948 1.383 . S
C1947 H1955 0.929 . S
C1948 C1947 1.383 . S
C1948 C1949 1.377 . S
C1949 H1933 0.930 . S
C1949 C1948 1.377 . S
C1949 C1950 1.379 . S
C1950 H1934 0.931 . S
C1950 C1944 1.383 . S
C1950 C1949 1.379 . S
H1951 C1945 0.959 . S
H1952 C1945 0.961 . S
H1953 C1945 0.960 . S
H1954 C1946 0.930 . S
H1955 C1947 0.929 . S
H1956 C1964 0.929 . S
H1957 C1966 0.930 . S
H1958 C1968 0.930 . S
H1959 C1971 0.929 . S
H1960 C1974 0.930 . S
H1961 C1976 0.960 . S
H1962 C1976 0.960 . S
H1963 C1976 0.960 . S
C1964 H1956 0.929 . S
C1964 C1965 1.377 . S
C1964 C1966 1.384 . S
C1965 C1964 1.377 . S
C1965 C1971 1.390 . S
C1966 H1957 0.930 . S
C1966 C1964 1.384 . S
C1966 C1967 1.372 . S
C1967 C1966 1.372 . S
C1967 C1968 1.400 . S
C1967 C1972 1.490 . S
C1968 H1958 0.930 . S
C1968 C1967 1.400 . S
C1968 C1971 1.386 . S
H1969 C1985 0.930 . S
H1970 C1986 0.931 . S
C1971 H1959 0.929 . S
C1971 C1965 1.390 . S
C1971 C1968 1.386 . S
C1972 C1967 1.490 . S
C1972 C1974 1.395 . S
C1972 C1975 1.403 . S
H1973 C1979 0.930 . S
C1974 H1960 0.930 . S
C1974 C1972 1.395 . S
C1974 C1977 1.403 . S
C1975 C1972 1.403 . S
C1975 C1976 1.524 . S
C1975 C1979 1.400 . S
C1976 H1961 0.960 . S
C1976 H1962 0.960 . S
C1976 H1963 0.960 . S
C1976 C1975 1.524 . S
C1977 C1974 1.403 . S
C1977 C1978 1.392 . S
C1977 C1981 1.495 . S
C1978 C1977 1.392 . S
C1978 C1979 1.385 . S
C1978 C1980 1.478 . S
C1979 H1973 0.930 . S
C1979 C1975 1.400 . S
C1979 C1978 1.385 . S
C1980 C1978 1.478 . S
C1980 C1982 1.381 . S
C1980 C1986 1.383 . S
C1981 C1977 1.495 . S
C1981 H1987 0.959 . S
C1981 H1988 0.961 . S
C1981 H1989 0.960 . S
C1982 C1980 1.381 . S
C1982 C1983 1.394 . S
C1982 H1990 0.930 . S
C1983 C1982 1.394 . S
C1983 C1984 1.383 . S
C1983 H1991 0.929 . S
C1984 C1983 1.383 . S
C1984 C1985 1.377 . S
C1985 H1969 0.930 . S
C1985 C1984 1.377 . S
C1985 C1986 1.379 . S
C1986 H1970 0.931 . S
C1986 C1980 1.383 . S
C1986 C1985 1.379 . S
H1987 C1981 0.959 . S
H1988 C1981 0.961 . S
H1989 C1981 0.960 . S
H1990 C1982 0.930 . S
H1991 C1983 0.929 . S
H1992 C2000 0.929 . S
H1993 C2002 0.930 . S
H1994 C2004 0.930 . S
H1995 C2007 0.929 . S
H1996 C2010 0.930 . S
H1997 C2012 0.960 . S
H1998 C2012 0.960 . S
H1999 C2012 0.960 . S
C2000 H1992 0.929 . S
C2000 C2001 1.377 . S
C2000 C2002 1.384 . S
C2001 C2000 1.377 . S
C2001 C2007 1.390 . S
C2002 H1993 0.930 . S
C2002 C2000 1.384 . S
C2002 C2003 1.372 . S
C2003 C2002 1.372 . S
C2003 C2004 1.400 . S
C2003 C2008 1.490 . S
C2004 H1994 0.930 . S
C2004 C2003 1.400 . S
C2004 C2007 1.386 . S
H2005 C2021 0.930 . S
H2006 C2022 0.931 . S
C2007 H1995 0.929 . S
C2007 C2001 1.390 . S
C2007 C2004 1.386 . S
C2008 C2003 1.490 . S
C2008 C2010 1.395 . S
C2008 C2011 1.403 . S
H2009 C2015 0.930 . S
C2010 H1996 0.930 . S
C2010 C2008 1.395 . S
C2010 C2013 1.403 . S
C2011 C2008 1.403 . S
C2011 C2012 1.524 . S
C2011 C2015 1.400 . S
C2012 H1997 0.960 . S
C2012 H1998 0.960 . S
C2012 H1999 0.960 . S
C2012 C2011 1.524 . S
C2013 C2010 1.403 . S
C2013 C2014 1.392 . S
C2013 C2017 1.495 . S
C2014 C2013 1.392 . S
C2014 C2015 1.385 . S
C2014 C2016 1.478 . S
C2015 H2009 0.930 . S
C2015 C2011 1.400 . S
C2015 C2014 1.385 . S
C2016 C2014 1.478 . S
C2016 C2018 1.381 . S
C2016 C2022 1.383 . S
C2017 C2013 1.495 . S
C2017 H2023 0.959 . S
C2017 H2024 0.961 . S
C2017 H2025 0.960 . S
C2018 C2016 1.381 . S
C2018 C2019 1.394 . S
C2018 H2026 0.930 . S
C2019 C2018 1.394 . S
C2019 C2020 1.383 . S
C2019 H2027 0.929 . S
C2020 C2019 1.383 . S
C2020 C2021 1.377 . S
C2021 H2005 0.930 . S
C2021 C2020 1.377 . S
C2021 C2022 1.379 . S
C2022 H2006 0.931 . S
C2022 C2016 1.383 . S
C2022 C2021 1.379 . S
H2023 C2017 0.959 . S
H2024 C2017 0.961 . S
H2025 C2017 0.960 . S
H2026 C2018 0.930 . S
H2027 C2019 0.929 . S
H2028 C2036 0.929 . S
H2029 C2038 0.930 . S
H2030 C2040 0.930 . S
H2031 C2043 0.929 . S
H2032 C2046 0.930 . S
H2033 C2048 0.960 . S
H2034 C2048 0.960 . S
H2035 C2048 0.960 . S
C2036 H2028 0.929 . S
C2036 C2037 1.377 . S
C2036 C2038 1.384 . S
C2037 C2036 1.377 . S
C2037 C2043 1.390 . S
C2038 H2029 0.930 . S
C2038 C2036 1.384 . S
C2038 C2039 1.372 . S
C2039 C2038 1.372 . S
C2039 C2040 1.400 . S
C2039 C2044 1.490 . S
C2040 H2030 0.930 . S
C2040 C2039 1.400 . S
C2040 C2043 1.386 . S
H2041 C2057 0.930 . S
H2042 C2058 0.931 . S
C2043 H2031 0.929 . S
C2043 C2037 1.390 . S
C2043 C2040 1.386 . S
C2044 C2039 1.490 . S
C2044 C2046 1.395 . S
C2044 C2047 1.403 . S
H2045 C2051 0.930 . S
C2046 H2032 0.930 . S
C2046 C2044 1.395 . S
C2046 C2049 1.403 . S
C2047 C2044 1.403 . S
C2047 C2048 1.524 . S
C2047 C2051 1.400 . S
C2048 H2033 0.960 . S
C2048 H2034 0.960 . S
C2048 H2035 0.960 . S
C2048 C2047 1.524 . S
C2049 C2046 1.403 . S
C2049 C2050 1.392 . S
C2049 C2053 1.495 . S
C2050 C2049 1.392 . S
C2050 C2051 1.385 . S
C2050 C2052 1.478 . S
C2051 H2045 0.930 . S
C2051 C2047 1.400 . S
C2051 C2050 1.385 . S
C2052 C2050 1.478 . S
C2052 C2054 1.381 . S
C2052 C2058 1.383 . S
C2053 C2049 1.495 . S
C2053 H2059 0.959 . S
C2053 H2060 0.961 . S
C2053 H2061 0.960 . S
C2054 C2052 1.381 . S
C2054 C2055 1.394 . S
C2054 H2062 0.930 . S
C2055 C2054 1.394 . S
C2055 C2056 1.383 . S
C2055 H2063 0.929 . S
C2056 C2055 1.383 . S
C2056 C2057 1.377 . S
C2057 H2041 0.930 . S
C2057 C2056 1.377 . S
C2057 C2058 1.379 . S
C2058 H2042 0.931 . S
C2058 C2052 1.383 . S
C2058 C2057 1.379 . S
H2059 C2053 0.959 . S
H2060 C2053 0.961 . S
H2061 C2053 0.960 . S
H2062 C2054 0.930 . S
H2063 C2055 0.929 . S
H2064 C2072 0.929 . S
H2065 C2074 0.930 . S
H2066 C2076 0.930 . S
H2067 C2079 0.929 . S
H2068 C2082 0.930 . S
H2069 C2084 0.960 . S
H2070 C2084 0.960 . S
H2071 C2084 0.960 . S
C2072 H2064 0.929 . S
C2072 C2073 1.377 . S
C2072 C2074 1.384 . S
C2073 C2072 1.377 . S
C2073 C2079 1.390 . S
C2074 H2065 0.930 . S
C2074 C2072 1.384 . S
C2074 C2075 1.372 . S
C2075 C2074 1.372 . S
C2075 C2076 1.400 . S
C2075 C2080 1.490 . S
C2076 H2066 0.930 . S
C2076 C2075 1.400 . S
C2076 C2079 1.386 . S
H2077 C2093 0.930 . S
H2078 C2094 0.931 . S
C2079 H2067 0.929 . S
C2079 C2073 1.390 . S
C2079 C2076 1.386 . S
C2080 C2075 1.490 . S
C2080 C2082 1.395 . S
C2080 C2083 1.403 1_455 S
H2081 C2087 0.930 . S
C2082 H2068 0.930 . S
C2082 C2080 1.395 . S
C2082 C2085 1.403 1_565 S
C2083 C2080 1.403 1_655 S
C2083 C2084 1.524 . S
C2083 C2087 1.400 1_565 S
C2084 H2069 0.960 . S
C2084 H2070 0.960 . S
C2084 H2071 0.960 . S
C2084 C2083 1.524 . S
C2085 C2082 1.403 1_545 S
C2085 C2086 1.392 1_455 S
C2085 C2089 1.495 . S
C2086 C2085 1.392 1_655 S
C2086 C2087 1.385 . S
C2086 C2088 1.478 . S
C2087 H2081 0.930 . S
C2087 C2083 1.400 1_545 S
C2087 C2086 1.385 . S
C2088 C2086 1.478 . S
C2088 C2090 1.381 . S
C2088 C2094 1.383 . S
C2089 C2085 1.495 . S
C2089 H2095 0.959 . S
C2089 H2096 0.961 . S
C2089 H2097 0.960 . S
C2090 C2088 1.381 . S
C2090 C2091 1.394 . S
C2090 H2098 0.930 . S
C2091 C2090 1.394 . S
C2091 C2092 1.383 . S
C2091 H2099 0.929 . S
C2092 C2091 1.383 . S
C2092 C2093 1.377 . S
C2093 H2077 0.930 . S
C2093 C2092 1.377 . S
C2093 C2094 1.379 . S
C2094 H2078 0.931 . S
C2094 C2088 1.383 . S
C2094 C2093 1.379 . S
H2095 C2089 0.959 . S
H2096 C2089 0.961 . S
H2097 C2089 0.960 . S
H2098 C2090 0.930 . S
H2099 C2091 0.929 . S
H2100 C2108 0.929 . S
H2101 C2110 0.930 . S
H2102 C2112 0.938 . S
H2103 C2115 0.929 . S
H2104 C2118 0.938 . S
H2105 C2120 0.960 . S
H2106 C2120 0.960 . S
H2107 C2120 0.960 . S
C2108 H2100 0.929 . S
C2108 C2109 1.377 . S
C2108 C2110 1.384 . S
C2109 C2108 1.377 . S
C2109 C2115 1.390 . S
C2110 H2101 0.930 . S
C2110 C2108 1.384 . S
C2110 C2111 1.372 . S
C2111 C2110 1.372 . S
C2111 C2112 1.400 . S
C2111 C2116 1.490 . S
C2112 H2102 0.938 . S
C2112 C2111 1.400 . S
C2112 C2115 1.386 . S
H2113 C2129 0.930 . S
H2114 C2130 0.931 . S
C2115 H2103 0.929 . S
C2115 C2109 1.390 . S
C2115 C2112 1.386 . S
C2116 C2111 1.490 . S
C2116 C2118 1.359 1_655 S
C2116 C2119 1.403 . S
H2117 C2123 0.935 . S
C2118 H2104 0.938 . S
C2118 C2116 1.359 1_455 S
C2118 C2121 1.438 . S
C2119 C2116 1.403 . S
C2119 C2120 1.524 . S
C2119 C2123 1.426 . S
C2120 H2105 0.960 . S
C2120 H2106 0.960 . S
C2120 H2107 0.960 . S
C2120 C2119 1.524 . S
C2121 C2118 1.438 . S
C2121 C2122 1.392 . S
C2121 C2125 1.495 . S
C2122 C2121 1.392 . S
C2122 C2123 1.359 1_455 S
C2122 C2124 1.478 . S
C2123 H2117 0.935 . S
C2123 C2119 1.426 . S
C2123 C2122 1.359 1_655 S
C2124 C2122 1.478 . S
C2124 C2126 1.381 . S
C2124 C2130 1.383 . S
C2125 C2121 1.495 . S
C2125 H2131 0.959 . S
C2125 H2132 0.961 . S
C2125 H2133 0.960 . S
C2126 C2124 1.381 . S
C2126 C2127 1.394 . S
C2126 H2134 0.891 1_455 S
C2127 C2126 1.394 . S
C2127 C2128 1.383 . S
C2127 H2135 0.929 . S
C2128 C2127 1.383 . S
C2128 C2129 1.377 . S
C2129 H2113 0.930 . S
C2129 C2128 1.377 . S
C2129 C2130 1.379 . S
C2130 H2114 0.931 . S
C2130 C2124 1.383 . S
C2130 C2129 1.379 . S
H2131 C2125 0.959 . S
H2132 C2125 0.961 . S
H2133 C2125 0.960 . S
H2134 C2126 0.891 1_655 S
H2135 C2127 0.929 . S
H2136 C2144 0.929 . S
H2137 C2146 0.930 . S
H2138 C2148 0.930 . S
H2139 C2151 0.929 . S
H2140 C2154 0.930 . S
H2141 C2156 0.960 . S
H2142 C2156 0.960 . S
H2143 C2156 0.960 . S
C2144 H2136 0.929 . S
C2144 C2145 1.377 . S
C2144 C2146 1.384 . S
C2145 C2144 1.377 . S
C2145 C2151 1.390 . S
C2146 H2137 0.930 . S
C2146 C2144 1.384 . S
C2146 C2147 1.372 . S
C2147 C2146 1.372 . S
C2147 C2148 1.400 . S
C2147 C2152 1.490 . S
C2148 H2138 0.930 . S
C2148 C2147 1.400 . S
C2148 C2151 1.386 . S
H2149 C2165 0.930 . S
H2150 C2166 0.931 . S
C2151 H2139 0.929 . S
C2151 C2145 1.390 . S
C2151 C2148 1.386 . S
C2152 C2147 1.490 . S
C2152 C2154 1.395 . S
C2152 C2155 1.403 1_455 S
H2153 C2159 0.930 . S
C2154 H2140 0.930 . S
C2154 C2152 1.395 . S
C2154 C2157 1.403 . S
C2155 C2152 1.403 1_655 S
C2155 C2156 1.524 . S
C2155 C2159 1.400 . S
C2156 H2141 0.960 . S
C2156 H2142 0.960 . S
C2156 H2143 0.960 . S
C2156 C2155 1.524 . S
C2157 C2154 1.403 . S
C2157 C2158 1.392 1_455 S
C2157 C2161 1.495 . S
C2158 C2157 1.392 1_655 S
C2158 C2159 1.385 . S
C2158 C2160 1.478 . S
C2159 H2153 0.930 . S
C2159 C2155 1.400 . S
C2159 C2158 1.385 . S
C2160 C2158 1.478 . S
C2160 C2162 1.381 . S
C2160 C2166 1.383 . S
C2161 C2157 1.495 . S
C2161 H2167 0.959 . S
C2161 H2168 0.961 . S
C2161 H2169 0.960 . S
C2162 C2160 1.381 . S
C2162 C2163 1.394 . S
C2162 H2170 0.930 . S
C2163 C2162 1.394 . S
C2163 C2164 1.383 . S
C2163 H2171 0.929 . S
C2164 C2163 1.383 . S
C2164 C2165 1.377 . S
C2165 H2149 0.930 . S
C2165 C2164 1.377 . S
C2165 C2166 1.379 . S
C2166 H2150 0.931 . S
C2166 C2160 1.383 . S
C2166 C2165 1.379 . S
H2167 C2161 0.959 . S
H2168 C2161 0.961 . S
H2169 C2161 0.960 . S
H2170 C2162 0.930 . S
H2171 C2163 0.929 . S
H2172 C2180 0.929 . S
H2173 C2182 0.930 . S
H2174 C2184 0.930 1_655 S
H2175 C2187 0.929 . S
H2176 C2190 0.930 . S
H2177 C2192 0.960 1_554 S
H2178 C2192 0.960 . S
H2179 C2192 0.960 . S
C2180 H2172 0.929 . S
C2180 C2181 1.377 . S
C2180 C2182 1.384 . S
C2181 C2180 1.377 . S
C2181 C2187 1.390 . S
C2182 H2173 0.930 . S
C2182 C2180 1.384 . S
C2182 C2183 1.372 . S
C2183 C2182 1.372 . S
C2183 C2184 1.400 . S
C2183 C2188 1.490 . S
C2184 H2174 0.930 1_455 S
C2184 C2183 1.400 . S
C2184 C2187 1.386 . S
H2185 C2201 0.930 . S
H2186 C2202 0.931 . S
C2187 H2175 0.929 . S
C2187 C2181 1.390 . S
C2187 C2184 1.386 . S
C2188 C2183 1.490 . S
C2188 C2190 1.395 . S
C2188 C2191 1.403 1_455 S
H2189 C2195 0.930 . S
C2190 H2176 0.930 . S
C2190 C2188 1.395 . S
C2190 C2193 1.403 1_556 S
C2191 C2188 1.403 1_655 S
C2191 C2192 1.524 . S
C2191 C2195 1.400 1_556 S
C2192 H2177 0.960 1_556 S
C2192 H2178 0.960 . S
C2192 H2179 0.960 . S
C2192 C2191 1.524 . S
C2193 C2190 1.403 1_554 S
C2193 C2194 1.392 1_455 S
C2193 C2197 1.495 . S
C2194 C2193 1.392 1_655 S
C2194 C2195 1.385 . S
C2194 C2196 1.478 . S
C2195 H2189 0.930 . S
C2195 C2191 1.400 1_554 S
C2195 C2194 1.385 . S
C2196 C2194 1.478 . S
C2196 C2198 1.381 . S
C2196 C2202 1.383 . S
C2197 C2193 1.495 . S
C2197 H2203 0.959 1_554 S
C2197 H2204 0.961 . S
C2197 H2205 0.960 . S
C2198 C2196 1.381 . S
C2198 C2199 1.394 . S
C2198 H2206 0.930 1_655 S
C2199 C2198 1.394 . S
C2199 C2200 1.383 . S
C2199 H2207 0.929 . S
C2200 C2199 1.383 . S
C2200 C2201 1.377 . S
C2201 H2185 0.930 . S
C2201 C2200 1.377 . S
C2201 C2202 1.379 . S
C2202 H2186 0.931 . S
C2202 C2196 1.383 . S
C2202 C2201 1.379 . S
H2203 C2197 0.959 1_556 S
H2204 C2197 0.961 . S
H2205 C2197 0.960 . S
H2206 C2198 0.930 1_455 S
H2207 C2199 0.929 . S
H2208 C2216 0.929 . S
H2209 C2218 0.930 . S
H2210 C2220 0.930 . S
H2211 C2223 0.929 . S
H2212 C2226 0.930 . S
H2213 C2228 0.960 . S
H2214 C2228 0.960 . S
H2215 C2228 0.960 . S
C2216 H2208 0.929 . S
C2216 C2217 1.377 . S
C2216 C2218 1.384 . S
C2217 C2216 1.377 . S
C2217 C2223 1.390 . S
C2218 H2209 0.930 . S
C2218 C2216 1.384 . S
C2218 C2219 1.372 . S
C2219 C2218 1.372 . S
C2219 C2220 1.400 . S
C2219 C2224 1.490 . S
C2220 H2210 0.930 . S
C2220 C2219 1.400 . S
C2220 C2223 1.386 . S
H2221 C2237 0.930 . S
H2222 C2238 0.931 . S
C2223 H2211 0.929 . S
C2223 C2217 1.390 . S
C2223 C2220 1.386 . S
C2224 C2219 1.490 . S
C2224 C2226 1.395 . S
C2224 C2227 1.403 . S
H2225 C2231 0.930 . S
C2226 H2212 0.930 . S
C2226 C2224 1.395 . S
C2226 C2229 1.403 . S
C2227 C2224 1.403 . S
C2227 C2228 1.524 . S
C2227 C2231 1.400 . S
C2228 H2213 0.960 . S
C2228 H2214 0.960 . S
C2228 H2215 0.960 . S
C2228 C2227 1.524 . S
C2229 C2226 1.403 . S
C2229 C2230 1.392 . S
C2229 C2233 1.495 . S
C2230 C2229 1.392 . S
C2230 C2231 1.385 . S
C2230 C2232 1.478 . S
C2231 H2225 0.930 . S
C2231 C2227 1.400 . S
C2231 C2230 1.385 . S
C2232 C2230 1.478 . S
C2232 C2234 1.381 . S
C2232 C2238 1.383 . S
C2233 C2229 1.495 . S
C2233 H2239 0.959 . S
C2233 H2240 0.961 . S
C2233 H2241 0.960 . S
C2234 C2232 1.381 . S
C2234 C2235 1.394 . S
C2234 H2242 0.930 . S
C2235 C2234 1.394 . S
C2235 C2236 1.383 . S
C2235 H2243 0.929 . S
C2236 C2235 1.383 . S
C2236 C2237 1.377 . S
C2237 H2221 0.930 . S
C2237 C2236 1.377 . S
C2237 C2238 1.379 . S
C2238 H2222 0.931 . S
C2238 C2232 1.383 . S
C2238 C2237 1.379 . S
H2239 C2233 0.959 . S
H2240 C2233 0.961 . S
H2241 C2233 0.960 . S
H2242 C2234 0.930 . S
H2243 C2235 0.929 . S
H2244 C2252 0.929 . S
H2245 C2254 0.930 . S
H2246 C2256 0.930 . S
H2247 C2259 0.929 . S
H2248 C2262 0.930 . S
H2249 C2264 0.960 . S
H2250 C2264 0.960 . S
H2251 C2264 0.960 . S
C2252 H2244 0.929 . S
C2252 C2253 1.377 . S
C2252 C2254 1.384 . S
C2253 C2252 1.377 . S
C2253 C2259 1.390 . S
C2254 H2245 0.930 . S
C2254 C2252 1.384 . S
C2254 C2255 1.372 . S
C2255 C2254 1.372 . S
C2255 C2256 1.400 . S
C2255 C2260 1.490 . S
C2256 H2246 0.930 . S
C2256 C2255 1.400 . S
C2256 C2259 1.386 . S
H2257 C2273 0.930 . S
H2258 C2274 0.931 . S
C2259 H2247 0.929 . S
C2259 C2253 1.390 . S
C2259 C2256 1.386 . S
C2260 C2255 1.490 . S
C2260 C2262 1.395 . S
C2260 C2263 1.403 . S
H2261 C2267 0.930 . S
C2262 H2248 0.930 . S
C2262 C2260 1.395 . S
C2262 C2265 1.403 . S
C2263 C2260 1.403 . S
C2263 C2264 1.524 . S
C2263 C2267 1.400 . S
C2264 H2249 0.960 . S
C2264 H2250 0.960 . S
C2264 H2251 0.960 . S
C2264 C2263 1.524 . S
C2265 C2262 1.403 . S
C2265 C2266 1.392 . S
C2265 C2269 1.495 . S
C2266 C2265 1.392 . S
C2266 C2267 1.385 . S
C2266 C2268 1.478 . S
C2267 H2261 0.930 . S
C2267 C2263 1.400 . S
C2267 C2266 1.385 . S
C2268 C2266 1.478 . S
C2268 C2270 1.381 . S
C2268 C2274 1.383 . S
C2269 C2265 1.495 . S
C2269 H2275 0.959 . S
C2269 H2276 0.961 . S
C2269 H2277 0.960 . S
C2270 C2268 1.381 . S
C2270 C2271 1.394 . S
C2270 H2278 0.930 . S
C2271 C2270 1.394 . S
C2271 C2272 1.383 . S
C2271 H2279 0.929 . S
C2272 C2271 1.383 . S
C2272 C2273 1.377 . S
C2273 H2257 0.930 . S
C2273 C2272 1.377 . S
C2273 C2274 1.379 . S
C2274 H2258 0.931 . S
C2274 C2268 1.383 . S
C2274 C2273 1.379 . S
H2275 C2269 0.959 . S
H2276 C2269 0.961 . S
H2277 C2269 0.960 . S
H2278 C2270 0.930 . S
H2279 C2271 0.929 . S
H2280 C2288 0.929 . S
H2281 C2290 0.930 . S
H2282 C2292 0.930 . S
H2283 C2295 0.929 . S
H2284 C2298 0.930 . S
H2285 C2300 0.960 . S
H2286 C2300 0.960 . S
H2287 C2300 0.960 . S
C2288 H2280 0.929 . S
C2288 C2289 1.377 . S
C2288 C2290 1.384 . S
C2289 C2288 1.377 . S
C2289 C2295 1.390 . S
C2290 H2281 0.930 . S
C2290 C2288 1.384 . S
C2290 C2291 1.372 . S
C2291 C2290 1.372 . S
C2291 C2292 1.400 . S
C2291 C2296 1.490 . S
C2292 H2282 0.930 . S
C2292 C2291 1.400 . S
C2292 C2295 1.386 . S
H2293 C2309 0.930 . S
H2294 C2310 0.931 . S
C2295 H2283 0.929 . S
C2295 C2289 1.390 . S
C2295 C2292 1.386 . S
C2296 C2291 1.490 . S
C2296 C2298 1.395 . S
C2296 C2299 1.403 . S
H2297 C2303 0.930 . S
C2298 H2284 0.930 . S
C2298 C2296 1.395 . S
C2298 C2301 1.403 . S
C2299 C2296 1.403 . S
C2299 C2300 1.524 . S
C2299 C2303 1.400 . S
C2300 H2285 0.960 . S
C2300 H2286 0.960 . S
C2300 H2287 0.960 . S
C2300 C2299 1.524 . S
C2301 C2298 1.403 . S
C2301 C2302 1.392 . S
C2301 C2305 1.495 . S
C2302 C2301 1.392 . S
C2302 C2303 1.385 . S
C2302 C2304 1.478 . S
C2303 H2297 0.930 . S
C2303 C2299 1.400 . S
C2303 C2302 1.385 . S
C2304 C2302 1.478 . S
C2304 C2306 1.381 . S
C2304 C2310 1.383 . S
C2305 C2301 1.495 . S
C2305 H2311 0.959 . S
C2305 H2312 0.961 . S
C2305 H2313 0.960 . S
C2306 C2304 1.381 . S
C2306 C2307 1.394 . S
C2306 H2314 0.930 . S
C2307 C2306 1.394 . S
C2307 C2308 1.383 . S
C2307 H2315 0.929 . S
C2308 C2307 1.383 . S
C2308 C2309 1.377 . S
C2309 H2293 0.930 . S
C2309 C2308 1.377 . S
C2309 C2310 1.379 . S
C2310 H2294 0.931 . S
C2310 C2304 1.383 . S
C2310 C2309 1.379 . S
H2311 C2305 0.959 . S
H2312 C2305 0.961 . S
H2313 C2305 0.960 . S
H2314 C2306 0.930 . S
H2315 C2307 0.929 . S
H2316 C2324 0.929 . S
H2317 C2326 0.930 . S
H2318 C2328 0.930 . S
H2319 C2331 0.929 . S
H2320 C2334 0.930 . S
H2321 C2336 0.960 . S
H2322 C2336 0.960 . S
H2323 C2336 0.960 . S
C2324 H2316 0.929 . S
C2324 C2325 1.377 . S
C2324 C2326 1.384 . S
C2325 C2324 1.377 . S
C2325 C2331 1.390 . S
C2326 H2317 0.930 . S
C2326 C2324 1.384 . S
C2326 C2327 1.372 . S
C2327 C2326 1.372 . S
C2327 C2328 1.400 . S
C2327 C2332 1.490 . S
C2328 H2318 0.930 . S
C2328 C2327 1.400 . S
C2328 C2331 1.386 . S
H2329 C2345 0.930 . S
H2330 C2346 0.931 . S
C2331 H2319 0.929 . S
C2331 C2325 1.390 . S
C2331 C2328 1.386 . S
C2332 C2327 1.490 . S
C2332 C2334 1.395 . S
C2332 C2335 1.403 . S
H2333 C2339 0.930 . S
C2334 H2320 0.930 . S
C2334 C2332 1.395 . S
C2334 C2337 1.403 . S
C2335 C2332 1.403 . S
C2335 C2336 1.524 . S
C2335 C2339 1.400 . S
C2336 H2321 0.960 . S
C2336 H2322 0.960 . S
C2336 H2323 0.960 . S
C2336 C2335 1.524 . S
C2337 C2334 1.403 . S
C2337 C2338 1.392 . S
C2337 C2341 1.495 . S
C2338 C2337 1.392 . S
C2338 C2339 1.385 . S
C2338 C2340 1.478 . S
C2339 H2333 0.930 . S
C2339 C2335 1.400 . S
C2339 C2338 1.385 . S
C2340 C2338 1.478 . S
C2340 C2342 1.381 . S
C2340 C2346 1.383 . S
C2341 C2337 1.495 . S
C2341 H2347 0.959 . S
C2341 H2348 0.961 . S
C2341 H2349 0.960 . S
C2342 C2340 1.381 . S
C2342 C2343 1.394 . S
C2342 H2350 0.930 . S
C2343 C2342 1.394 . S
C2343 C2344 1.383 . S
C2343 H2351 0.929 . S
C2344 C2343 1.383 . S
C2344 C2345 1.377 . S
C2345 H2329 0.930 . S
C2345 C2344 1.377 . S
C2345 C2346 1.379 . S
C2346 H2330 0.931 . S
C2346 C2340 1.383 . S
C2346 C2345 1.379 . S
H2347 C2341 0.959 . S
H2348 C2341 0.961 . S
H2349 C2341 0.960 . S
H2350 C2342 0.930 . S
H2351 C2343 0.929 . S
H2352 C2360 0.929 . S
H2353 C2362 0.930 . S
H2354 C2364 0.930 . S
H2355 C2367 0.929 . S
H2356 C2370 0.930 . S
H2357 C2372 0.960 . S
H2358 C2372 0.960 . S
H2359 C2372 0.960 . S
C2360 H2352 0.929 . S
C2360 C2361 1.377 . S
C2360 C2362 1.384 . S
C2361 C2360 1.377 . S
C2361 C2367 1.390 . S
C2362 H2353 0.930 . S
C2362 C2360 1.384 . S
C2362 C2363 1.372 . S
C2363 C2362 1.372 . S
C2363 C2364 1.400 . S
C2363 C2368 1.490 . S
C2364 H2354 0.930 . S
C2364 C2363 1.400 . S
C2364 C2367 1.386 . S
H2365 C2381 0.930 . S
H2366 C2382 0.931 . S
C2367 H2355 0.929 . S
C2367 C2361 1.390 . S
C2367 C2364 1.386 . S
C2368 C2363 1.490 . S
C2368 C2370 1.395 . S
C2368 C2371 1.403 . S
H2369 C2375 0.930 . S
C2370 H2356 0.930 . S
C2370 C2368 1.395 . S
C2370 C2373 1.403 . S
C2371 C2368 1.403 . S
C2371 C2372 1.524 . S
C2371 C2375 1.400 . S
C2372 H2357 0.960 . S
C2372 H2358 0.960 . S
C2372 H2359 0.960 . S
C2372 C2371 1.524 . S
C2373 C2370 1.403 . S
C2373 C2374 1.392 . S
C2373 C2377 1.495 . S
C2374 C2373 1.392 . S
C2374 C2375 1.385 . S
C2374 C2376 1.478 . S
C2375 H2369 0.930 . S
C2375 C2371 1.400 . S
C2375 C2374 1.385 . S
C2376 C2374 1.478 . S
C2376 C2378 1.381 . S
C2376 C2382 1.383 . S
C2377 C2373 1.495 . S
C2377 H2383 0.959 . S
C2377 H2384 0.961 . S
C2377 H2385 0.960 . S
C2378 C2376 1.381 . S
C2378 C2379 1.394 . S
C2378 H2386 0.930 . S
C2379 C2378 1.394 . S
C2379 C2380 1.383 . S
C2379 H2387 0.929 . S
C2380 C2379 1.383 . S
C2380 C2381 1.377 . S
C2381 H2365 0.930 . S
C2381 C2380 1.377 . S
C2381 C2382 1.379 . S
C2382 H2366 0.931 . S
C2382 C2376 1.383 . S
C2382 C2381 1.379 . S
H2383 C2377 0.959 . S
H2384 C2377 0.961 . S
H2385 C2377 0.960 . S
H2386 C2378 0.930 . S
H2387 C2379 0.929 . S
H2388 C2396 0.929 . S
H2389 C2398 0.930 . S
H2390 C2400 0.930 . S
H2391 C2403 0.929 . S
H2392 C2406 0.930 . S
H2393 C2408 0.960 . S
H2394 C2408 0.960 . S
H2395 C2408 0.960 . S
C2396 H2388 0.929 . S
C2396 C2397 1.377 . S
C2396 C2398 1.384 . S
C2397 C2396 1.377 . S
C2397 C2403 1.390 . S
C2398 H2389 0.930 . S
C2398 C2396 1.384 . S
C2398 C2399 1.372 . S
C2399 C2398 1.372 . S
C2399 C2400 1.400 . S
C2399 C2404 1.490 . S
C2400 H2390 0.930 . S
C2400 C2399 1.400 . S
C2400 C2403 1.386 . S
H2401 C2417 0.930 . S
H2402 C2418 0.931 . S
C2403 H2391 0.929 . S
C2403 C2397 1.390 . S
C2403 C2400 1.386 . S
C2404 C2399 1.490 . S
C2404 C2406 1.395 . S
C2404 C2407 1.403 . S
H2405 C2411 0.930 . S
C2406 H2392 0.930 . S
C2406 C2404 1.395 . S
C2406 C2409 1.403 . S
C2407 C2404 1.403 . S
C2407 C2408 1.524 . S
C2407 C2411 1.400 . S
C2408 H2393 0.960 . S
C2408 H2394 0.960 . S
C2408 H2395 0.960 . S
C2408 C2407 1.524 . S
C2409 C2406 1.403 . S
C2409 C2410 1.392 . S
C2409 C2413 1.495 . S
C2410 C2409 1.392 . S
C2410 C2411 1.385 . S
C2410 C2412 1.478 . S
C2411 H2405 0.930 . S
C2411 C2407 1.400 . S
C2411 C2410 1.385 . S
C2412 C2410 1.478 . S
C2412 C2414 1.381 . S
C2412 C2418 1.383 . S
C2413 C2409 1.495 . S
C2413 H2419 0.959 . S
C2413 H2420 0.961 . S
C2413 H2421 0.960 . S
C2414 C2412 1.381 . S
C2414 C2415 1.394 . S
C2414 H2422 0.930 . S
C2415 C2414 1.394 . S
C2415 C2416 1.383 . S
C2415 H2423 0.929 . S
C2416 C2415 1.383 . S
C2416 C2417 1.377 . S
C2417 H2401 0.930 . S
C2417 C2416 1.377 . S
C2417 C2418 1.379 . S
C2418 H2402 0.931 . S
C2418 C2412 1.383 . S
C2418 C2417 1.379 . S
H2419 C2413 0.959 . S
H2420 C2413 0.961 . S
H2421 C2413 0.960 . S
H2422 C2414 0.930 . S
H2423 C2415 0.929 . S
H2424 C2432 0.929 . S
H2425 C2434 0.930 . S
H2426 C2436 0.930 . S
H2427 C2439 0.929 . S
H2428 C2442 0.930 . S
H2429 C2444 0.960 . S
H2430 C2444 0.960 . S
H2431 C2444 0.960 . S
C2432 H2424 0.929 . S
C2432 C2433 1.377 . S
C2432 C2434 1.384 . S
C2433 C2432 1.377 . S
C2433 C2439 1.390 . S
C2434 H2425 0.930 . S
C2434 C2432 1.384 . S
C2434 C2435 1.372 . S
C2435 C2434 1.372 . S
C2435 C2436 1.400 . S
C2435 C2440 1.490 . S
C2436 H2426 0.930 . S
C2436 C2435 1.400 . S
C2436 C2439 1.386 . S
H2437 C2453 0.930 . S
H2438 C2454 0.931 . S
C2439 H2427 0.929 . S
C2439 C2433 1.390 . S
C2439 C2436 1.386 . S
C2440 C2435 1.490 . S
C2440 C2442 1.395 . S
C2440 C2443 1.403 . S
H2441 C2447 0.930 . S
C2442 H2428 0.930 . S
C2442 C2440 1.395 . S
C2442 C2445 1.403 . S
C2443 C2440 1.403 . S
C2443 C2444 1.524 . S
C2443 C2447 1.400 . S
C2444 H2429 0.960 . S
C2444 H2430 0.960 . S
C2444 H2431 0.960 . S
C2444 C2443 1.524 . S
C2445 C2442 1.403 . S
C2445 C2446 1.392 . S
C2445 C2449 1.495 . S
C2446 C2445 1.392 . S
C2446 C2447 1.385 . S
C2446 C2448 1.478 . S
C2447 H2441 0.930 . S
C2447 C2443 1.400 . S
C2447 C2446 1.385 . S
C2448 C2446 1.478 . S
C2448 C2450 1.381 . S
C2448 C2454 1.383 . S
C2449 C2445 1.495 . S
C2449 H2455 0.959 . S
C2449 H2456 0.961 . S
C2449 H2457 0.960 . S
C2450 C2448 1.381 . S
C2450 C2451 1.394 . S
C2450 H2458 0.930 . S
C2451 C2450 1.394 . S
C2451 C2452 1.383 . S
C2451 H2459 0.929 . S
C2452 C2451 1.383 . S
C2452 C2453 1.377 . S
C2453 H2437 0.930 . S
C2453 C2452 1.377 . S
C2453 C2454 1.379 . S
C2454 H2438 0.931 . S
C2454 C2448 1.383 . S
C2454 C2453 1.379 . S
H2455 C2449 0.959 . S
H2456 C2449 0.961 . S
H2457 C2449 0.960 . S
H2458 C2450 0.930 . S
H2459 C2451 0.929 . S
H2460 C2468 0.929 . S
H2461 C2470 0.930 . S
H2462 C2472 0.930 . S
H2463 C2475 0.929 . S
H2464 C2478 0.930 . S
H2465 C2480 0.960 . S
H2466 C2480 0.960 . S
H2467 C2480 0.960 . S
C2468 H2460 0.929 . S
C2468 C2469 1.377 . S
C2468 C2470 1.384 . S
C2469 C2468 1.377 . S
C2469 C2475 1.390 . S
C2470 H2461 0.930 . S
C2470 C2468 1.384 . S
C2470 C2471 1.372 . S
C2471 C2470 1.372 . S
C2471 C2472 1.400 . S
C2471 C2476 1.490 . S
C2472 H2462 0.930 . S
C2472 C2471 1.400 . S
C2472 C2475 1.386 . S
H2473 C2489 0.930 . S
H2474 C2490 0.931 . S
C2475 H2463 0.929 . S
C2475 C2469 1.390 . S
C2475 C2472 1.386 . S
C2476 C2471 1.490 . S
C2476 C2478 1.395 . S
C2476 C2479 1.403 . S
H2477 C2483 0.930 . S
C2478 H2464 0.930 . S
C2478 C2476 1.395 . S
C2478 C2481 1.403 . S
C2479 C2476 1.403 . S
C2479 C2480 1.524 . S
C2479 C2483 1.400 . S
C2480 H2465 0.960 . S
C2480 H2466 0.960 . S
C2480 H2467 0.960 . S
C2480 C2479 1.524 . S
C2481 C2478 1.403 . S
C2481 C2482 1.392 . S
C2481 C2485 1.495 . S
C2482 C2481 1.392 . S
C2482 C2483 1.385 . S
C2482 C2484 1.478 . S
C2483 H2477 0.930 . S
C2483 C2479 1.400 . S
C2483 C2482 1.385 . S
C2484 C2482 1.478 . S
C2484 C2486 1.381 . S
C2484 C2490 1.383 . S
C2485 C2481 1.495 . S
C2485 H2491 0.959 . S
C2485 H2492 0.961 . S
C2485 H2493 0.960 . S
C2486 C2484 1.381 . S
C2486 C2487 1.394 . S
C2486 H2494 0.930 . S
C2487 C2486 1.394 . S
C2487 C2488 1.383 . S
C2487 H2495 0.929 . S
C2488 C2487 1.383 . S
C2488 C2489 1.377 . S
C2489 H2473 0.930 . S
C2489 C2488 1.377 . S
C2489 C2490 1.379 . S
C2490 H2474 0.931 . S
C2490 C2484 1.383 . S
C2490 C2489 1.379 . S
H2491 C2485 0.959 . S
H2492 C2485 0.961 . S
H2493 C2485 0.960 . S
H2494 C2486 0.930 . S
H2495 C2487 0.929 . S
H2496 C2504 0.929 . S
H2497 C2506 0.930 . S
H2498 C2508 0.930 . S
H2499 C2511 0.929 . S
H2500 C2514 0.930 . S
H2501 C2516 0.960 . S
H2502 C2516 0.960 . S
H2503 C2516 0.960 . S
C2504 H2496 0.929 . S
C2504 C2505 1.377 . S
C2504 C2506 1.384 . S
C2505 C2504 1.377 . S
C2505 C2511 1.390 . S
C2506 H2497 0.930 . S
C2506 C2504 1.384 . S
C2506 C2507 1.372 . S
C2507 C2506 1.372 . S
C2507 C2508 1.400 . S
C2507 C2512 1.490 . S
C2508 H2498 0.930 . S
C2508 C2507 1.400 . S
C2508 C2511 1.386 . S
H2509 C2525 0.930 . S
H2510 C2526 0.931 . S
C2511 H2499 0.929 . S
C2511 C2505 1.390 . S
C2511 C2508 1.386 . S
C2512 C2507 1.490 . S
C2512 C2514 1.395 . S
C2512 C2515 1.403 . S
H2513 C2519 0.930 . S
C2514 H2500 0.930 . S
C2514 C2512 1.395 . S
C2514 C2517 1.403 . S
C2515 C2512 1.403 . S
C2515 C2516 1.524 . S
C2515 C2519 1.400 . S
C2516 H2501 0.960 . S
C2516 H2502 0.960 . S
C2516 H2503 0.960 . S
C2516 C2515 1.524 . S
C2517 C2514 1.403 . S
C2517 C2518 1.392 . S
C2517 C2521 1.495 . S
C2518 C2517 1.392 . S
C2518 C2519 1.385 . S
C2518 C2520 1.478 . S
C2519 H2513 0.930 . S
C2519 C2515 1.400 . S
C2519 C2518 1.385 . S
C2520 C2518 1.478 . S
C2520 C2522 1.381 . S
C2520 C2526 1.383 . S
C2521 C2517 1.495 . S
C2521 H2527 0.959 . S
C2521 H2528 0.961 . S
C2521 H2529 0.960 . S
C2522 C2520 1.381 . S
C2522 C2523 1.394 1_545 S
C2522 H2530 0.930 . S
C2523 C2522 1.394 1_565 S
C2523 C2524 1.383 . S
C2523 H2531 0.929 . S
C2524 C2523 1.383 . S
C2524 C2525 1.377 . S
C2525 H2509 0.930 . S
C2525 C2524 1.377 . S
C2525 C2526 1.379 1_565 S
C2526 H2510 0.931 . S
C2526 C2520 1.383 . S
C2526 C2525 1.379 1_545 S
H2527 C2521 0.959 . S
H2528 C2521 0.961 . S
H2529 C2521 0.960 . S
H2530 C2522 0.930 . S
H2531 C2523 0.929 . S
H2532 C2540 0.929 . S
H2533 C2542 0.930 . S
H2534 C2544 0.930 . S
H2535 C2547 0.929 . S
H2536 C2550 0.930 . S
H2537 C2552 0.960 . S
H2538 C2552 0.960 1_565 S
H2539 C2552 0.960 1_565 S
C2540 H2532 0.929 . S
C2540 C2541 1.377 . S
C2540 C2542 1.384 . S
C2541 C2540 1.377 . S
C2541 C2547 1.390 . S
C2542 H2533 0.930 . S
C2542 C2540 1.384 . S
C2542 C2543 1.372 . S
C2543 C2542 1.372 . S
C2543 C2544 1.400 . S
C2543 C2548 1.490 1_565 S
C2544 H2534 0.930 . S
C2544 C2543 1.400 . S
C2544 C2547 1.386 . S
H2545 C2561 0.930 . S
H2546 C2562 0.931 . S
C2547 H2535 0.929 . S
C2547 C2541 1.390 . S
C2547 C2544 1.386 . S
C2548 C2543 1.490 1_545 S
C2548 C2550 1.395 . S
C2548 C2551 1.403 . S
H2549 C2555 0.930 . S
C2550 H2536 0.930 . S
C2550 C2548 1.395 . S
C2550 C2553 1.403 . S
C2551 C2548 1.403 . S
C2551 C2552 1.524 . S
C2551 C2555 1.400 . S
C2552 H2537 0.960 . S
C2552 H2538 0.960 1_545 S
C2552 H2539 0.960 1_545 S
C2552 C2551 1.524 . S
C2553 C2550 1.403 . S
C2553 C2554 1.392 . S
C2553 C2557 1.495 . S
C2554 C2553 1.392 . S
C2554 C2555 1.385 . S
C2554 C2556 1.478 . S
C2555 H2549 0.930 . S
C2555 C2551 1.400 . S
C2555 C2554 1.385 . S
C2556 C2554 1.478 . S
C2556 C2558 1.381 . S
C2556 C2562 1.383 . S
C2557 C2553 1.495 . S
C2557 H2563 0.959 . S
C2557 H2564 0.961 . S
C2557 H2565 0.960 . S
C2558 C2556 1.381 . S
C2558 C2559 1.394 . S
C2558 H2566 0.930 . S
C2559 C2558 1.394 . S
C2559 C2560 1.383 . S
C2559 H2567 0.929 . S
C2560 C2559 1.383 . S
C2560 C2561 1.377 . S
C2561 H2545 0.930 . S
C2561 C2560 1.377 . S
C2561 C2562 1.379 . S
C2562 H2546 0.931 . S
C2562 C2556 1.383 . S
C2562 C2561 1.379 . S
H2563 C2557 0.959 . S
H2564 C2557 0.961 . S
H2565 C2557 0.960 . S
H2566 C2558 0.930 . S
H2567 C2559 0.929 . S
H2568 C2576 0.929 . S
H2569 C2578 0.930 . S
H2570 C2580 0.930 . S
H2571 C2583 0.929 . S
H2572 C2586 0.930 . S
H2573 C2588 0.960 1_545 S
H2574 C2588 0.960 . S
H2575 C2588 0.960 . S
C2576 H2568 0.929 . S
C2576 C2577 1.377 . S
C2576 C2578 1.384 . S
C2577 C2576 1.377 . S
C2577 C2583 1.390 . S
C2578 H2569 0.930 . S
C2578 C2576 1.384 . S
C2578 C2579 1.372 . S
C2579 C2578 1.372 . S
C2579 C2580 1.400 . S
C2579 C2584 1.490 1_565 S
C2580 H2570 0.930 . S
C2580 C2579 1.400 . S
C2580 C2583 1.386 . S
H2581 C2597 0.930 . S
H2582 C2598 0.931 . S
C2583 H2571 0.929 . S
C2583 C2577 1.390 . S
C2583 C2580 1.386 . S
C2584 C2579 1.490 1_545 S
C2584 C2586 1.395 . S
C2584 C2587 1.403 . S
H2585 C2591 0.930 . S
C2586 H2572 0.930 . S
C2586 C2584 1.395 . S
C2586 C2589 1.403 . S
C2587 C2584 1.403 . S
C2587 C2588 1.524 1_545 S
C2587 C2591 1.400 . S
C2588 H2573 0.960 1_565 S
C2588 H2574 0.960 . S
C2588 H2575 0.960 . S
C2588 C2587 1.524 1_565 S
C2589 C2586 1.403 . S
C2589 C2590 1.392 . S
C2589 C2593 1.495 . S
C2590 C2589 1.392 . S
C2590 C2591 1.385 . S
C2590 C2592 1.478 . S
C2591 H2585 0.930 . S
C2591 C2587 1.400 . S
C2591 C2590 1.385 . S
C2592 C2590 1.478 . S
C2592 C2594 1.381 . S
C2592 C2598 1.383 . S
C2593 C2589 1.495 . S
C2593 H2599 0.959 . S
C2593 H2600 0.961 . S
C2593 H2601 0.960 . S
C2594 C2592 1.381 . S
C2594 C2595 1.394 . S
C2594 H2602 0.930 . S
C2595 C2594 1.394 . S
C2595 C2596 1.383 . S
C2595 H2603 0.929 . S
C2596 C2595 1.383 . S
C2596 C2597 1.377 . S
C2597 H2581 0.930 . S
C2597 C2596 1.377 . S
C2597 C2598 1.379 . S
C2598 H2582 0.931 . S
C2598 C2592 1.383 . S
C2598 C2597 1.379 . S
H2599 C2593 0.959 . S
H2600 C2593 0.961 . S
H2601 C2593 0.960 . S
H2602 C2594 0.930 . S
H2603 C2595 0.929 . S
H2604 C2612 0.929 . S
H2605 C2614 0.930 . S
H2606 C2616 0.930 . S
H2607 C2619 0.929 . S
H2608 C2622 0.930 . S
H2609 C2624 0.960 . S
H2610 C2624 0.960 . S
H2611 C2624 0.960 . S
C2612 H2604 0.929 . S
C2612 C2613 1.377 . S
C2612 C2614 1.384 1_565 S
C2613 C2612 1.377 . S
C2613 C2619 1.390 . S
C2614 H2605 0.930 . S
C2614 C2612 1.384 1_545 S
C2614 C2615 1.372 . S
C2615 C2614 1.372 . S
C2615 C2616 1.400 . S
C2615 C2620 1.490 . S
C2616 H2606 0.930 . S
C2616 C2615 1.400 . S
C2616 C2619 1.386 1_545 S
H2617 C2633 0.930 . S
H2618 C2634 0.931 . S
C2619 H2607 0.929 . S
C2619 C2613 1.390 . S
C2619 C2616 1.386 1_565 S
C2620 C2615 1.490 . S
C2620 C2622 1.395 . S
C2620 C2623 1.403 . S
H2621 C2627 0.930 . S
C2622 H2608 0.930 . S
C2622 C2620 1.395 . S
C2622 C2625 1.403 . S
C2623 C2620 1.403 . S
C2623 C2624 1.524 . S
C2623 C2627 1.400 . S
C2624 H2609 0.960 . S
C2624 H2610 0.960 . S
C2624 H2611 0.960 . S
C2624 C2623 1.524 . S
C2625 C2622 1.403 . S
C2625 C2626 1.392 . S
C2625 C2629 1.495 . S
C2626 C2625 1.392 . S
C2626 C2627 1.385 . S
C2626 C2628 1.478 . S
C2627 H2621 0.930 . S
C2627 C2623 1.400 . S
C2627 C2626 1.385 . S
C2628 C2626 1.478 . S
C2628 C2630 1.381 . S
C2628 C2634 1.383 . S
C2629 C2625 1.495 . S
C2629 H2635 0.959 . S
C2629 H2636 0.961 . S
C2629 H2637 0.960 . S
C2630 C2628 1.381 . S
C2630 C2631 1.394 . S
C2630 H2638 0.930 . S
C2631 C2630 1.394 . S
C2631 C2632 1.383 . S
C2631 H2639 0.929 . S
C2632 C2631 1.383 . S
C2632 C2633 1.377 . S
C2633 H2617 0.930 . S
C2633 C2632 1.377 . S
C2633 C2634 1.379 . S
C2634 H2618 0.931 . S
C2634 C2628 1.383 . S
C2634 C2633 1.379 . S
H2635 C2629 0.959 . S
H2636 C2629 0.961 . S
H2637 C2629 0.960 . S
H2638 C2630 0.930 . S
H2639 C2631 0.929 . S
H2640 C2648 0.929 . S
H2641 C2650 0.930 . S
H2642 C2652 0.930 . S
H2643 C2655 0.929 . S
H2644 C2658 0.930 . S
H2645 C2660 0.960 . S
H2646 C2660 0.960 . S
H2647 C2660 0.960 . S
C2648 H2640 0.929 . S
C2648 C2649 1.377 . S
C2648 C2650 1.384 . S
C2649 C2648 1.377 . S
C2649 C2655 1.390 . S
C2650 H2641 0.930 . S
C2650 C2648 1.384 . S
C2650 C2651 1.372 . S
C2651 C2650 1.372 . S
C2651 C2652 1.400 . S
C2651 C2656 1.490 . S
C2652 H2642 0.930 . S
C2652 C2651 1.400 . S
C2652 C2655 1.386 . S
H2653 C2669 0.930 . S
H2654 C2670 0.931 . S
C2655 H2643 0.929 . S
C2655 C2649 1.390 . S
C2655 C2652 1.386 . S
C2656 C2651 1.490 . S
C2656 C2658 1.395 . S
C2656 C2659 1.403 . S
H2657 C2663 0.930 . S
C2658 H2644 0.930 . S
C2658 C2656 1.395 . S
C2658 C2661 1.403 . S
C2659 C2656 1.403 . S
C2659 C2660 1.524 . S
C2659 C2663 1.400 . S
C2660 H2645 0.960 . S
C2660 H2646 0.960 . S
C2660 H2647 0.960 . S
C2660 C2659 1.524 . S
C2661 C2658 1.403 . S
C2661 C2662 1.392 . S
C2661 C2665 1.495 . S
C2662 C2661 1.392 . S
C2662 C2663 1.385 . S
C2662 C2664 1.478 . S
C2663 H2657 0.930 . S
C2663 C2659 1.400 . S
C2663 C2662 1.385 . S
C2664 C2662 1.478 . S
C2664 C2666 1.381 . S
C2664 C2670 1.383 . S
C2665 C2661 1.495 . S
C2665 H2671 0.959 . S
C2665 H2672 0.961 . S
C2665 H2673 0.960 . S
C2666 C2664 1.381 . S
C2666 C2667 1.394 1_565 S
C2666 H2674 0.930 . S
C2667 C2666 1.394 1_545 S
C2667 C2668 1.383 . S
C2667 H2675 0.929 . S
C2668 C2667 1.383 . S
C2668 C2669 1.377 . S
C2669 H2653 0.930 . S
C2669 C2668 1.377 . S
C2669 C2670 1.379 1_545 S
C2670 H2654 0.931 . S
C2670 C2664 1.383 . S
C2670 C2669 1.379 1_565 S
H2671 C2665 0.959 . S
H2672 C2665 0.961 . S
H2673 C2665 0.960 . S
H2674 C2666 0.930 . S
H2675 C2667 0.929 . S
H2676 C2684 0.929 . S
H2677 C2686 0.930 . S
H2678 C2688 0.930 . S
H2679 C2691 0.929 . S
H2680 C2694 0.930 . S
H2681 C2696 0.956 1_565 S
H2682 C2696 0.963 . S
H2683 C2696 0.964 . S
C2684 H2676 0.929 . S
C2684 C2685 1.377 . S
C2684 C2686 1.384 . S
C2685 C2684 1.377 . S
C2685 C2691 1.390 . S
C2686 H2677 0.930 . S
C2686 C2684 1.384 . S
C2686 C2687 1.372 . S
C2687 C2686 1.372 . S
C2687 C2688 1.400 . S
C2687 C2692 1.490 1_545 S
C2688 H2678 0.930 . S
C2688 C2687 1.400 . S
C2688 C2691 1.386 . S
H2689 C2705 0.930 . S
H2690 C2706 0.931 . S
C2691 H2679 0.929 . S
C2691 C2685 1.390 . S
C2691 C2688 1.386 . S
C2692 C2687 1.490 1_565 S
C2692 C2694 1.395 . S
C2692 C2695 1.403 . S
H2693 C2699 0.930 . S
C2694 H2680 0.930 . S
C2694 C2692 1.395 . S
C2694 C2697 1.403 . S
C2695 C2692 1.403 . S
C2695 C2696 1.521 1_565 S
C2695 C2699 1.400 . S
C2696 H2681 0.956 1_545 S
C2696 H2682 0.963 . S
C2696 H2683 0.964 . S
C2696 C2695 1.521 1_545 S
C2697 C2694 1.403 . S
C2697 C2698 1.392 . S
C2697 C2701 1.495 . S
C2698 C2697 1.392 . S
C2698 C2699 1.385 . S
C2698 C2700 1.478 . S
C2699 H2693 0.930 . S
C2699 C2695 1.400 . S
C2699 C2698 1.385 . S
C2700 C2698 1.478 . S
C2700 C2702 1.381 . S
C2700 C2706 1.383 . S
C2701 C2697 1.495 . S
C2701 H2707 0.959 . S
C2701 H2708 0.961 . S
C2701 H2709 0.960 . S
C2702 C2700 1.381 . S
C2702 C2703 1.394 . S
C2702 H2710 0.930 . S
C2703 C2702 1.394 . S
C2703 C2704 1.383 . S
C2703 H2711 0.929 . S
C2704 C2703 1.383 . S
C2704 C2705 1.377 . S
C2705 H2689 0.930 . S
C2705 C2704 1.377 . S
C2705 C2706 1.379 . S
C2706 H2690 0.931 . S
C2706 C2700 1.383 . S
C2706 C2705 1.379 . S
H2707 C2701 0.959 . S
H2708 C2701 0.961 . S
H2709 C2701 0.960 . S
H2710 C2702 0.930 . S
H2711 C2703 0.929 . S
H2712 C2720 0.929 . S
H2713 C2722 0.930 . S
H2714 C2724 0.930 . S
H2715 C2727 0.929 . S
H2716 C2730 0.930 1_545 S
H2717 C2732 0.960 . S
H2718 C2732 0.952 1_545 S
H2719 C2732 0.960 1_545 S
C2720 H2712 0.929 . S
C2720 C2721 1.377 . S
C2720 C2722 1.384 . S
C2721 C2720 1.377 . S
C2721 C2727 1.390 . S
C2722 H2713 0.930 . S
C2722 C2720 1.384 . S
C2722 C2723 1.372 . S
C2723 C2722 1.372 . S
C2723 C2724 1.400 . S
C2723 C2728 1.490 1_545 S
C2724 H2714 0.930 . S
C2724 C2723 1.400 . S
C2724 C2727 1.386 . S
H2725 C2741 0.930 . S
H2726 C2742 0.931 . S
C2727 H2715 0.929 . S
C2727 C2721 1.390 . S
C2727 C2724 1.386 . S
C2728 C2723 1.490 1_565 S
C2728 C2730 1.395 . S
C2728 C2731 1.403 . S
H2729 C2735 0.930 . S
C2730 H2716 0.930 1_565 S
C2730 C2728 1.395 . S
C2730 C2733 1.403 . S
C2731 C2728 1.403 . S
C2731 C2732 1.524 . S
C2731 C2735 1.400 . S
C2732 H2717 0.960 . S
C2732 H2718 0.952 1_565 S
C2732 H2719 0.960 1_565 S
C2732 C2731 1.524 . S
C2733 C2730 1.403 . S
C2733 C2734 1.392 . S
C2733 C2737 1.495 . S
C2734 C2733 1.392 . S
C2734 C2735 1.385 . S
C2734 C2736 1.478 . S
C2735 H2729 0.930 . S
C2735 C2731 1.400 . S
C2735 C2734 1.385 . S
C2736 C2734 1.478 . S
C2736 C2738 1.381 . S
C2736 C2742 1.383 . S
C2737 C2733 1.495 . S
C2737 H2743 0.959 . S
C2737 H2744 0.961 . S
C2737 H2745 0.960 . S
C2738 C2736 1.381 . S
C2738 C2739 1.394 . S
C2738 H2746 0.930 . S
C2739 C2738 1.394 . S
C2739 C2740 1.383 . S
C2739 H2747 0.929 . S
C2740 C2739 1.383 . S
C2740 C2741 1.377 . S
C2741 H2725 0.930 . S
C2741 C2740 1.377 . S
C2741 C2742 1.379 . S
C2742 H2726 0.931 . S
C2742 C2736 1.383 . S
C2742 C2741 1.379 . S
H2743 C2737 0.959 . S
H2744 C2737 0.961 . S
H2745 C2737 0.960 . S
H2746 C2738 0.930 . S
H2747 C2739 0.929 . S
H2748 C2756 0.929 . S
H2749 C2758 0.930 . S
H2750 C2760 0.930 . S
H2751 C2763 0.929 . S
H2752 C2766 0.930 . S
H2753 C2768 0.960 . S
H2754 C2768 0.960 . S
H2755 C2768 0.960 . S
C2756 H2748 0.929 . S
C2756 C2757 1.377 . S
C2756 C2758 1.384 . S
C2757 C2756 1.377 . S
C2757 C2763 1.390 . S
C2758 H2749 0.930 . S
C2758 C2756 1.384 . S
C2758 C2759 1.372 . S
C2759 C2758 1.372 . S
C2759 C2760 1.400 . S
C2759 C2764 1.490 . S
C2760 H2750 0.930 . S
C2760 C2759 1.400 . S
C2760 C2763 1.386 . S
H2761 C2777 0.930 . S
H2762 C2778 0.931 . S
C2763 H2751 0.929 . S
C2763 C2757 1.390 . S
C2763 C2760 1.386 . S
C2764 C2759 1.490 . S
C2764 C2766 1.395 . S
C2764 C2767 1.403 . S
H2765 C2771 0.930 . S
C2766 H2752 0.930 . S
C2766 C2764 1.395 . S
C2766 C2769 1.403 . S
C2767 C2764 1.403 . S
C2767 C2768 1.524 . S
C2767 C2771 1.400 . S
C2768 H2753 0.960 . S
C2768 H2754 0.960 . S
C2768 H2755 0.960 . S
C2768 C2767 1.524 . S
C2769 C2766 1.403 . S
C2769 C2770 1.392 . S
C2769 C2773 1.495 . S
C2770 C2769 1.392 . S
C2770 C2771 1.385 . S
C2770 C2772 1.478 . S
C2771 H2765 0.930 . S
C2771 C2767 1.400 . S
C2771 C2770 1.385 . S
C2772 C2770 1.478 . S
C2772 C2774 1.381 . S
C2772 C2778 1.383 . S
C2773 C2769 1.495 . S
C2773 H2779 0.959 . S
C2773 H2780 0.961 . S
C2773 H2781 0.960 . S
C2774 C2772 1.381 . S
C2774 C2775 1.394 1_565 S
C2774 H2782 0.930 . S
C2775 C2774 1.394 1_545 S
C2775 C2776 1.383 . S
C2775 H2783 0.929 . S
C2776 C2775 1.383 . S
C2776 C2777 1.377 . S
C2777 H2761 0.930 . S
C2777 C2776 1.377 . S
C2777 C2778 1.379 1_545 S
C2778 H2762 0.931 . S
C2778 C2772 1.383 . S
C2778 C2777 1.379 1_565 S
H2779 C2773 0.959 . S
H2780 C2773 0.961 . S
H2781 C2773 0.960 . S
H2782 C2774 0.930 . S
H2783 C2775 0.929 . S
H2784 C2792 0.929 . S
H2785 C2794 0.930 . S
H2786 C2796 0.930 . S
H2787 C2799 0.929 . S
H2788 C2802 0.930 . S
H2789 C2804 0.960 . S
H2790 C2804 0.960 . S
H2791 C2804 0.960 . S
C2792 H2784 0.929 . S
C2792 C2793 1.377 . S
C2792 C2794 1.384 . S
C2793 C2792 1.377 . S
C2793 C2799 1.390 . S
C2794 H2785 0.930 . S
C2794 C2792 1.384 . S
C2794 C2795 1.372 . S
C2795 C2794 1.372 . S
C2795 C2796 1.400 . S
C2795 C2800 1.490 . S
C2796 H2786 0.930 . S
C2796 C2795 1.400 . S
C2796 C2799 1.386 . S
H2797 C2813 0.930 . S
H2798 C2814 0.931 . S
C2799 H2787 0.929 . S
C2799 C2793 1.390 . S
C2799 C2796 1.386 . S
C2800 C2795 1.490 . S
C2800 C2802 1.395 . S
C2800 C2803 1.403 . S
H2801 C2807 0.930 . S
C2802 H2788 0.930 . S
C2802 C2800 1.395 . S
C2802 C2805 1.403 . S
C2803 C2800 1.403 . S
C2803 C2804 1.524 . S
C2803 C2807 1.400 . S
C2804 H2789 0.960 . S
C2804 H2790 0.960 . S
C2804 H2791 0.960 . S
C2804 C2803 1.524 . S
C2805 C2802 1.403 . S
C2805 C2806 1.392 . S
C2805 C2809 1.495 . S
C2806 C2805 1.392 . S
C2806 C2807 1.385 . S
C2806 C2808 1.478 . S
C2807 H2801 0.930 . S
C2807 C2803 1.400 . S
C2807 C2806 1.385 . S
C2808 C2806 1.478 . S
C2808 C2810 1.381 . S
C2808 C2814 1.383 . S
C2809 C2805 1.495 . S
C2809 H2815 0.959 . S
C2809 H2816 0.961 . S
C2809 H2817 0.960 . S
C2810 C2808 1.381 . S
C2810 C2811 1.394 . S
C2810 H2818 0.930 . S
C2811 C2810 1.394 . S
C2811 C2812 1.383 . S
C2811 H2819 0.929 . S
C2812 C2811 1.383 . S
C2812 C2813 1.377 . S
C2813 H2797 0.930 . S
C2813 C2812 1.377 . S
C2813 C2814 1.379 . S
C2814 H2798 0.931 . S
C2814 C2808 1.383 . S
C2814 C2813 1.379 . S
H2815 C2809 0.959 . S
H2816 C2809 0.961 . S
H2817 C2809 0.960 . S
H2818 C2810 0.930 . S
H2819 C2811 0.929 . S
H2820 C2828 0.929 . S
H2821 C2830 0.930 . S
H2822 C2832 0.930 . S
H2823 C2835 0.929 . S
H2824 C2838 0.930 . S
H2825 C2840 0.960 . S
H2826 C2840 0.960 . S
H2827 C2840 0.960 . S
C2828 H2820 0.929 . S
C2828 C2829 1.377 . S
C2828 C2830 1.384 . S
C2829 C2828 1.377 . S
C2829 C2835 1.390 . S
C2830 H2821 0.930 . S
C2830 C2828 1.384 . S
C2830 C2831 1.372 . S
C2831 C2830 1.372 . S
C2831 C2832 1.400 . S
C2831 C2836 1.490 . S
C2832 H2822 0.930 . S
C2832 C2831 1.400 . S
C2832 C2835 1.386 . S
H2833 C2849 0.930 . S
H2834 C2850 0.931 . S
C2835 H2823 0.929 . S
C2835 C2829 1.390 . S
C2835 C2832 1.386 . S
C2836 C2831 1.490 . S
C2836 C2838 1.395 . S
C2836 C2839 1.403 . S
H2837 C2843 0.930 . S
C2838 H2824 0.930 . S
C2838 C2836 1.395 . S
C2838 C2841 1.403 . S
C2839 C2836 1.403 . S
C2839 C2840 1.524 . S
C2839 C2843 1.400 . S
C2840 H2825 0.960 . S
C2840 H2826 0.960 . S
C2840 H2827 0.960 . S
C2840 C2839 1.524 . S
C2841 C2838 1.403 . S
C2841 C2842 1.392 . S
C2841 C2845 1.495 . S
C2842 C2841 1.392 . S
C2842 C2843 1.385 . S
C2842 C2844 1.478 . S
C2843 H2837 0.930 . S
C2843 C2839 1.400 . S
C2843 C2842 1.385 . S
C2844 C2842 1.478 . S
C2844 C2846 1.381 . S
C2844 C2850 1.383 . S
C2845 C2841 1.495 . S
C2845 H2851 0.959 . S
C2845 H2852 0.961 . S
C2845 H2853 0.960 . S
C2846 C2844 1.381 . S
C2846 C2847 1.394 . S
C2846 H2854 0.930 . S
C2847 C2846 1.394 . S
C2847 C2848 1.383 . S
C2847 H2855 0.929 . S
C2848 C2847 1.383 . S
C2848 C2849 1.377 . S
C2849 H2833 0.930 . S
C2849 C2848 1.377 . S
C2849 C2850 1.379 . S
C2850 H2834 0.931 . S
C2850 C2844 1.383 . S
C2850 C2849 1.379 . S
H2851 C2845 0.959 . S
H2852 C2845 0.961 . S
H2853 C2845 0.960 . S
H2854 C2846 0.930 . S
H2855 C2847 0.929 . S
H2856 C2864 0.929 . S
H2857 C2866 0.930 . S
H2858 C2868 0.930 . S
H2859 C2871 0.929 . S
H2860 C2874 0.930 . S
H2861 C2876 0.960 . S
H2862 C2876 0.960 . S
H2863 C2876 0.960 . S
C2864 H2856 0.929 . S
C2864 C2865 1.377 . S
C2864 C2866 1.384 . S
C2865 C2864 1.377 . S
C2865 C2871 1.390 . S
C2866 H2857 0.930 . S
C2866 C2864 1.384 . S
C2866 C2867 1.372 . S
C2867 C2866 1.372 . S
C2867 C2868 1.400 . S
C2867 C2872 1.490 . S
C2868 H2858 0.930 . S
C2868 C2867 1.400 . S
C2868 C2871 1.386 . S
H2869 C2885 0.930 . S
H2870 C2886 0.931 . S
C2871 H2859 0.929 . S
C2871 C2865 1.390 . S
C2871 C2868 1.386 . S
C2872 C2867 1.490 . S
C2872 C2874 1.395 . S
C2872 C2875 1.403 . S
H2873 C2879 0.930 . S
C2874 H2860 0.930 . S
C2874 C2872 1.395 . S
C2874 C2877 1.403 . S
C2875 C2872 1.403 . S
C2875 C2876 1.524 . S
C2875 C2879 1.400 . S
C2876 H2861 0.960 . S
C2876 H2862 0.960 . S
C2876 H2863 0.960 . S
C2876 C2875 1.524 . S
C2877 C2874 1.403 . S
C2877 C2878 1.392 . S
C2877 C2881 1.495 . S
C2878 C2877 1.392 . S
C2878 C2879 1.385 . S
C2878 C2880 1.478 . S
C2879 H2873 0.930 . S
C2879 C2875 1.400 . S
C2879 C2878 1.385 . S
C2880 C2878 1.478 . S
C2880 C2882 1.381 . S
C2880 C2886 1.383 . S
C2881 C2877 1.495 . S
C2881 H2887 0.959 . S
C2881 H2888 0.961 . S
C2881 H2889 0.960 . S
C2882 C2880 1.381 . S
C2882 C2883 1.394 . S
C2882 H2890 0.930 . S
C2883 C2882 1.394 . S
C2883 C2884 1.383 . S
C2883 H2891 0.929 . S
C2884 C2883 1.383 . S
C2884 C2885 1.377 . S
C2885 H2869 0.930 . S
C2885 C2884 1.377 . S
C2885 C2886 1.379 . S
C2886 H2870 0.931 . S
C2886 C2880 1.383 . S
C2886 C2885 1.379 . S
H2887 C2881 0.959 . S
H2888 C2881 0.961 . S
H2889 C2881 0.960 . S
H2890 C2882 0.930 . S
H2891 C2883 0.929 . S
H2892 C2900 0.929 . S
H2893 C2902 0.930 . S
H2894 C2904 0.930 . S
H2895 C2907 0.929 . S
H2896 C2910 0.930 . S
H2897 C2912 0.960 . S
H2898 C2912 0.960 . S
H2899 C2912 0.960 . S
C2900 H2892 0.929 . S
C2900 C2901 1.377 . S
C2900 C2902 1.384 . S
C2901 C2900 1.377 . S
C2901 C2907 1.390 . S
C2902 H2893 0.930 . S
C2902 C2900 1.384 . S
C2902 C2903 1.372 . S
C2903 C2902 1.372 . S
C2903 C2904 1.400 . S
C2903 C2908 1.490 . S
C2904 H2894 0.930 . S
C2904 C2903 1.400 . S
C2904 C2907 1.386 . S
H2905 C2921 0.930 . S
H2906 C2922 0.931 . S
C2907 H2895 0.929 . S
C2907 C2901 1.390 . S
C2907 C2904 1.386 . S
C2908 C2903 1.490 . S
C2908 C2910 1.395 . S
C2908 C2911 1.403 . S
H2909 C2915 0.930 . S
C2910 H2896 0.930 . S
C2910 C2908 1.395 . S
C2910 C2913 1.403 . S
C2911 C2908 1.403 . S
C2911 C2912 1.524 . S
C2911 C2915 1.400 . S
C2912 H2897 0.960 . S
C2912 H2898 0.960 . S
C2912 H2899 0.960 . S
C2912 C2911 1.524 . S
C2913 C2910 1.403 . S
C2913 C2914 1.392 . S
C2913 C2917 1.495 . S
C2914 C2913 1.392 . S
C2914 C2915 1.385 . S
C2914 C2916 1.478 . S
C2915 H2909 0.930 . S
C2915 C2911 1.400 . S
C2915 C2914 1.385 . S
C2916 C2914 1.478 . S
C2916 C2918 1.381 . S
C2916 C2922 1.383 . S
C2917 C2913 1.495 . S
C2917 H2923 0.959 . S
C2917 H2924 0.961 . S
C2917 H2925 0.960 . S
C2918 C2916 1.381 . S
C2918 C2919 1.394 . S
C2918 H2926 0.930 . S
C2919 C2918 1.394 . S
C2919 C2920 1.383 . S
C2919 H2927 0.929 . S
C2920 C2919 1.383 . S
C2920 C2921 1.377 . S
C2921 H2905 0.930 . S
C2921 C2920 1.377 . S
C2921 C2922 1.379 . S
C2922 H2906 0.931 . S
C2922 C2916 1.383 . S
C2922 C2921 1.379 . S
H2923 C2917 0.959 . S
H2924 C2917 0.961 . S
H2925 C2917 0.960 . S
H2926 C2918 0.930 . S
H2927 C2919 0.929 . S
H2928 C2936 0.929 . S
H2929 C2938 0.930 . S
H2930 C2940 0.930 . S
H2931 C2943 0.929 . S
H2932 C2946 0.930 . S
H2933 C2948 0.960 . S
H2934 C2948 0.960 . S
H2935 C2948 0.960 . S
C2936 H2928 0.929 . S
C2936 C2937 1.377 . S
C2936 C2938 1.384 . S
C2937 C2936 1.377 . S
C2937 C2943 1.390 . S
C2938 H2929 0.930 . S
C2938 C2936 1.384 . S
C2938 C2939 1.372 . S
C2939 C2938 1.372 . S
C2939 C2940 1.400 . S
C2939 C2944 1.490 . S
C2940 H2930 0.930 . S
C2940 C2939 1.400 . S
C2940 C2943 1.386 . S
H2941 C2957 0.930 . S
H2942 C2958 0.931 . S
C2943 H2931 0.929 . S
C2943 C2937 1.390 . S
C2943 C2940 1.386 . S
C2944 C2939 1.490 . S
C2944 C2946 1.395 . S
C2944 C2947 1.403 . S
H2945 C2951 0.930 . S
C2946 H2932 0.930 . S
C2946 C2944 1.395 . S
C2946 C2949 1.403 . S
C2947 C2944 1.403 . S
C2947 C2948 1.524 . S
C2947 C2951 1.400 . S
C2948 H2933 0.960 . S
C2948 H2934 0.960 . S
C2948 H2935 0.960 . S
C2948 C2947 1.524 . S
C2949 C2946 1.403 . S
C2949 C2950 1.392 . S
C2949 C2953 1.495 . S
C2950 C2949 1.392 . S
C2950 C2951 1.385 . S
C2950 C2952 1.478 . S
C2951 H2945 0.930 . S
C2951 C2947 1.400 . S
C2951 C2950 1.385 . S
C2952 C2950 1.478 . S
C2952 C2954 1.381 . S
C2952 C2958 1.383 . S
C2953 C2949 1.495 . S
C2953 H2959 0.959 . S
C2953 H2960 0.961 . S
C2953 H2961 0.960 . S
C2954 C2952 1.381 . S
C2954 C2955 1.394 . S
C2954 H2962 0.930 . S
C2955 C2954 1.394 . S
C2955 C2956 1.383 . S
C2955 H2963 0.929 . S
C2956 C2955 1.383 . S
C2956 C2957 1.377 . S
C2957 H2941 0.930 . S
C2957 C2956 1.377 . S
C2957 C2958 1.379 . S
C2958 H2942 0.931 . S
C2958 C2952 1.383 . S
C2958 C2957 1.379 . S
H2959 C2953 0.959 . S
H2960 C2953 0.961 . S
H2961 C2953 0.960 . S
H2962 C2954 0.930 . S
H2963 C2955 0.929 . S
H2964 C2972 0.929 . S
H2965 C2974 0.930 . S
H2966 C2976 0.930 . S
H2967 C2979 0.929 . S
H2968 C2982 0.930 . S
H2969 C2984 0.960 . S
H2970 C2984 0.960 . S
H2971 C2984 0.960 . S
C2972 H2964 0.929 . S
C2972 C2973 1.377 . S
C2972 C2974 1.384 . S
C2973 C2972 1.377 . S
C2973 C2979 1.390 . S
C2974 H2965 0.930 . S
C2974 C2972 1.384 . S
C2974 C2975 1.372 . S
C2975 C2974 1.372 . S
C2975 C2976 1.400 . S
C2975 C2980 1.490 . S
C2976 H2966 0.930 . S
C2976 C2975 1.400 . S
C2976 C2979 1.386 . S
H2977 C2993 0.930 . S
H2978 C2994 0.931 . S
C2979 H2967 0.929 . S
C2979 C2973 1.390 . S
C2979 C2976 1.386 . S
C2980 C2975 1.490 . S
C2980 C2982 1.395 . S
C2980 C2983 1.403 . S
H2981 C2987 0.930 . S
C2982 H2968 0.930 . S
C2982 C2980 1.395 . S
C2982 C2985 1.403 . S
C2983 C2980 1.403 . S
C2983 C2984 1.524 . S
C2983 C2987 1.400 . S
C2984 H2969 0.960 . S
C2984 H2970 0.960 . S
C2984 H2971 0.960 . S
C2984 C2983 1.524 . S
C2985 C2982 1.403 . S
C2985 C2986 1.392 . S
C2985 C2989 1.495 . S
C2986 C2985 1.392 . S
C2986 C2987 1.385 . S
C2986 C2988 1.478 . S
C2987 H2981 0.930 . S
C2987 C2983 1.400 . S
C2987 C2986 1.385 . S
C2988 C2986 1.478 . S
C2988 C2990 1.381 . S
C2988 C2994 1.383 . S
C2989 C2985 1.495 . S
C2989 H2995 0.959 . S
C2989 H2996 0.961 . S
C2989 H2997 0.960 . S
C2990 C2988 1.381 . S
C2990 C2991 1.394 . S
C2990 H2998 0.930 . S
C2991 C2990 1.394 . S
C2991 C2992 1.383 . S
C2991 H2999 0.929 . S
C2992 C2991 1.383 . S
C2992 C2993 1.377 . S
C2993 H2977 0.930 . S
C2993 C2992 1.377 . S
C2993 C2994 1.379 . S
C2994 H2978 0.931 . S
C2994 C2988 1.383 . S
C2994 C2993 1.379 . S
H2995 C2989 0.959 . S
H2996 C2989 0.961 . S
H2997 C2989 0.960 . S
H2998 C2990 0.930 . S
H2999 C2991 0.929 . S
H3000 C3008 0.929 . S
H3001 C3010 0.930 . S
H3002 C3012 0.930 . S
H3003 C3015 0.929 . S
H3004 C3018 0.930 . S
H3005 C3020 0.960 . S
H3006 C3020 0.960 . S
H3007 C3020 0.960 . S
C3008 H3000 0.929 . S
C3008 C3009 1.377 . S
C3008 C3010 1.384 . S
C3009 C3008 1.377 . S
C3009 C3015 1.390 . S
C3010 H3001 0.930 . S
C3010 C3008 1.384 . S
C3010 C3011 1.372 . S
C3011 C3010 1.372 . S
C3011 C3012 1.400 . S
C3011 C3016 1.490 . S
C3012 H3002 0.930 . S
C3012 C3011 1.400 . S
C3012 C3015 1.386 . S
H3013 C3029 0.930 . S
H3014 C3030 0.931 . S
C3015 H3003 0.929 . S
C3015 C3009 1.390 . S
C3015 C3012 1.386 . S
C3016 C3011 1.490 . S
C3016 C3018 1.395 . S
C3016 C3019 1.403 . S
H3017 C3023 0.930 . S
C3018 H3004 0.930 . S
C3018 C3016 1.395 . S
C3018 C3021 1.403 . S
C3019 C3016 1.403 . S
C3019 C3020 1.524 . S
C3019 C3023 1.400 . S
C3020 H3005 0.960 . S
C3020 H3006 0.960 . S
C3020 H3007 0.960 . S
C3020 C3019 1.524 . S
C3021 C3018 1.403 . S
C3021 C3022 1.392 . S
C3021 C3025 1.495 . S
C3022 C3021 1.392 . S
C3022 C3023 1.385 . S
C3022 C3024 1.478 . S
C3023 H3017 0.930 . S
C3023 C3019 1.400 . S
C3023 C3022 1.385 . S
C3024 C3022 1.478 . S
C3024 C3026 1.381 . S
C3024 C3030 1.383 . S
C3025 C3021 1.495 . S
C3025 H3031 0.959 . S
C3025 H3032 0.961 . S
C3025 H3033 0.960 . S
C3026 C3024 1.381 . S
C3026 C3027 1.394 . S
C3026 H3034 0.930 . S
C3027 C3026 1.394 . S
C3027 C3028 1.383 . S
C3027 H3035 0.929 . S
C3028 C3027 1.383 . S
C3028 C3029 1.377 . S
C3029 H3013 0.930 . S
C3029 C3028 1.377 . S
C3029 C3030 1.379 . S
C3030 H3014 0.931 . S
C3030 C3024 1.383 . S
C3030 C3029 1.379 . S
H3031 C3025 0.959 . S
H3032 C3025 0.961 . S
H3033 C3025 0.960 . S
H3034 C3026 0.930 . S
H3035 C3027 0.929 . S
H3036 C3044 0.929 . S
H3037 C3046 0.930 . S
H3038 C3048 0.930 . S
H3039 C3051 0.929 . S
H3040 C3054 0.930 . S
H3041 C3056 0.960 . S
H3042 C3056 0.960 . S
H3043 C3056 0.960 . S
C3044 H3036 0.929 . S
C3044 C3045 1.377 . S
C3044 C3046 1.384 . S
C3045 C3044 1.377 . S
C3045 C3051 1.390 . S
C3046 H3037 0.930 . S
C3046 C3044 1.384 . S
C3046 C3047 1.372 . S
C3047 C3046 1.372 . S
C3047 C3048 1.400 . S
C3047 C3052 1.490 . S
C3048 H3038 0.930 . S
C3048 C3047 1.400 . S
C3048 C3051 1.386 . S
H3049 C3065 0.930 . S
H3050 C3066 0.931 . S
C3051 H3039 0.929 . S
C3051 C3045 1.390 . S
C3051 C3048 1.386 . S
C3052 C3047 1.490 . S
C3052 C3054 1.395 . S
C3052 C3055 1.403 . S
H3053 C3059 0.930 . S
C3054 H3040 0.930 . S
C3054 C3052 1.395 . S
C3054 C3057 1.403 . S
C3055 C3052 1.403 . S
C3055 C3056 1.524 . S
C3055 C3059 1.400 . S
C3056 H3041 0.960 . S
C3056 H3042 0.960 . S
C3056 H3043 0.960 . S
C3056 C3055 1.524 . S
C3057 C3054 1.403 . S
C3057 C3058 1.392 . S
C3057 C3061 1.495 . S
C3058 C3057 1.392 . S
C3058 C3059 1.385 . S
C3058 C3060 1.478 . S
C3059 H3053 0.930 . S
C3059 C3055 1.400 . S
C3059 C3058 1.385 . S
C3060 C3058 1.478 . S
C3060 C3062 1.381 . S
C3060 C3066 1.383 . S
C3061 C3057 1.495 . S
C3061 H3067 0.959 . S
C3061 H3068 0.961 . S
C3061 H3069 0.960 . S
C3062 C3060 1.381 . S
C3062 C3063 1.394 . S
C3062 H3070 0.930 . S
C3063 C3062 1.394 . S
C3063 C3064 1.383 . S
C3063 H3071 0.929 . S
C3064 C3063 1.383 . S
C3064 C3065 1.377 . S
C3065 H3049 0.930 . S
C3065 C3064 1.377 . S
C3065 C3066 1.379 . S
C3066 H3050 0.931 . S
C3066 C3060 1.383 . S
C3066 C3065 1.379 . S
H3067 C3061 0.959 . S
H3068 C3061 0.961 . S
H3069 C3061 0.960 . S
H3070 C3062 0.930 . S
H3071 C3063 0.929 . S
H3072 C3080 0.929 . S
H3073 C3082 0.930 . S
H3074 C3084 0.930 . S
H3075 C3087 0.929 . S
H3076 C3090 0.930 . S
H3077 C3092 0.960 . S
H3078 C3092 0.960 . S
H3079 C3092 0.960 . S
C3080 H3072 0.929 . S
C3080 C3081 1.377 . S
C3080 C3082 1.384 1_565 S
C3081 C3080 1.377 . S
C3081 C3087 1.390 . S
C3082 H3073 0.930 . S
C3082 C3080 1.384 1_545 S
C3082 C3083 1.372 . S
C3083 C3082 1.372 . S
C3083 C3084 1.400 . S
C3083 C3088 1.490 . S
C3084 H3074 0.930 . S
C3084 C3083 1.400 . S
C3084 C3087 1.386 1_545 S
H3085 C3101 0.930 . S
H3086 C3102 0.931 . S
C3087 H3075 0.929 . S
C3087 C3081 1.390 . S
C3087 C3084 1.386 1_565 S
C3088 C3083 1.490 . S
C3088 C3090 1.395 . S
C3088 C3091 1.403 . S
H3089 C3095 0.930 . S
C3090 H3076 0.930 . S
C3090 C3088 1.395 . S
C3090 C3093 1.403 . S
C3091 C3088 1.403 . S
C3091 C3092 1.524 . S
C3091 C3095 1.400 . S
C3092 H3077 0.960 . S
C3092 H3078 0.960 . S
C3092 H3079 0.960 . S
C3092 C3091 1.524 . S
C3093 C3090 1.403 . S
C3093 C3094 1.392 . S
C3093 C3097 1.495 . S
C3094 C3093 1.392 . S
C3094 C3095 1.385 . S
C3094 C3096 1.478 . S
C3095 H3089 0.930 . S
C3095 C3091 1.400 . S
C3095 C3094 1.385 . S
C3096 C3094 1.478 . S
C3096 C3098 1.381 . S
C3096 C3102 1.383 . S
C3097 C3093 1.495 . S
C3097 H3103 0.959 . S
C3097 H3104 0.961 . S
C3097 H3105 0.960 . S
C3098 C3096 1.381 . S
C3098 C3099 1.394 . S
C3098 H3106 0.930 . S
C3099 C3098 1.394 . S
C3099 C3100 1.383 . S
C3099 H3107 0.929 . S
C3100 C3099 1.383 . S
C3100 C3101 1.377 . S
C3101 H3085 0.930 . S
C3101 C3100 1.377 . S
C3101 C3102 1.379 . S
C3102 H3086 0.931 . S
C3102 C3096 1.383 . S
C3102 C3101 1.379 . S
H3103 C3097 0.959 . S
H3104 C3097 0.961 . S
H3105 C3097 0.960 . S
H3106 C3098 0.930 . S
H3107 C3099 0.929 . S
H3108 C3116 0.929 . S
H3109 C3118 0.930 . S
H3110 C3120 0.930 . S
H3111 C3123 0.929 . S
H3112 C3126 0.930 . S
H3113 C3128 0.960 1_545 S
H3114 C3128 0.960 . S
H3115 C3128 0.960 . S
C3116 H3108 0.929 . S
C3116 C3117 1.377 . S
C3116 C3118 1.384 . S
C3117 C3116 1.377 . S
C3117 C3123 1.390 . S
C3118 H3109 0.930 . S
C3118 C3116 1.384 . S
C3118 C3119 1.372 . S
C3119 C3118 1.372 . S
C3119 C3120 1.400 . S
C3119 C3124 1.490 1_565 S
C3120 H3110 0.930 . S
C3120 C3119 1.400 . S
C3120 C3123 1.386 . S
H3121 C3137 0.930 . S
H3122 C3138 0.931 . S
C3123 H3111 0.929 . S
C3123 C3117 1.390 . S
C3123 C3120 1.386 . S
C3124 C3119 1.490 1_545 S
C3124 C3126 1.395 . S
C3124 C3127 1.403 . S
H3125 C3131 0.930 . S
C3126 H3112 0.930 . S
C3126 C3124 1.395 . S
C3126 C3129 1.403 . S
C3127 C3124 1.403 . S
C3127 C3128 1.524 1_545 S
C3127 C3131 1.400 . S
C3128 H3113 0.960 1_565 S
C3128 H3114 0.960 . S
C3128 H3115 0.960 . S
C3128 C3127 1.524 1_565 S
C3129 C3126 1.403 . S
C3129 C3130 1.392 . S
C3129 C3133 1.495 . S
C3130 C3129 1.392 . S
C3130 C3131 1.385 . S
C3130 C3132 1.478 . S
C3131 H3125 0.930 . S
C3131 C3127 1.400 . S
C3131 C3130 1.385 . S
C3132 C3130 1.478 . S
C3132 C3134 1.381 . S
C3132 C3138 1.383 . S
C3133 C3129 1.495 . S
C3133 H3139 0.959 . S
C3133 H3140 0.961 . S
C3133 H3141 0.960 . S
C3134 C3132 1.381 . S
C3134 C3135 1.394 . S
C3134 H3142 0.930 . S
C3135 C3134 1.394 . S
C3135 C3136 1.383 . S
C3135 H3143 0.929 . S
C3136 C3135 1.383 . S
C3136 C3137 1.377 . S
C3137 H3121 0.930 . S
C3137 C3136 1.377 . S
C3137 C3138 1.379 . S
C3138 H3122 0.931 . S
C3138 C3132 1.383 . S
C3138 C3137 1.379 . S
H3139 C3133 0.959 . S
H3140 C3133 0.961 . S
H3141 C3133 0.960 . S
H3142 C3134 0.930 . S
H3143 C3135 0.929 . S
H3144 C3152 0.929 . S
H3145 C3154 0.930 . S
H3146 C3156 0.930 . S
H3147 C3159 0.929 . S
H3148 C3162 0.930 . S
H3149 C3164 0.960 . S
H3150 C3164 0.960 1_565 S
H3151 C3164 0.960 1_565 S
C3152 H3144 0.929 . S
C3152 C3153 1.377 . S
C3152 C3154 1.384 . S
C3153 C3152 1.377 . S
C3153 C3159 1.390 . S
C3154 H3145 0.930 . S
C3154 C3152 1.384 . S
C3154 C3155 1.372 . S
C3155 C3154 1.372 . S
C3155 C3156 1.400 . S
C3155 C3160 1.490 1_565 S
C3156 H3146 0.930 . S
C3156 C3155 1.400 . S
C3156 C3159 1.386 . S
H3157 C3173 0.930 . S
H3158 C3174 0.931 . S
C3159 H3147 0.929 . S
C3159 C3153 1.390 . S
C3159 C3156 1.386 . S
C3160 C3155 1.490 1_545 S
C3160 C3162 1.395 . S
C3160 C3163 1.403 . S
H3161 C3167 0.930 . S
C3162 H3148 0.930 . S
C3162 C3160 1.395 . S
C3162 C3165 1.403 . S
C3163 C3160 1.403 . S
C3163 C3164 1.524 . S
C3163 C3167 1.400 . S
C3164 H3149 0.960 . S
C3164 H3150 0.960 1_545 S
C3164 H3151 0.960 1_545 S
C3164 C3163 1.524 . S
C3165 C3162 1.403 . S
C3165 C3166 1.392 . S
C3165 C3169 1.495 . S
C3166 C3165 1.392 . S
C3166 C3167 1.385 . S
C3166 C3168 1.478 . S
C3167 H3161 0.930 . S
C3167 C3163 1.400 . S
C3167 C3166 1.385 . S
C3168 C3166 1.478 . S
C3168 C3170 1.381 . S
C3168 C3174 1.383 . S
C3169 C3165 1.495 . S
C3169 H3175 0.959 . S
C3169 H3176 0.961 . S
C3169 H3177 0.960 . S
C3170 C3168 1.381 . S
C3170 C3171 1.394 . S
C3170 H3178 0.930 . S
C3171 C3170 1.394 . S
C3171 C3172 1.383 . S
C3171 H3179 0.929 . S
C3172 C3171 1.383 . S
C3172 C3173 1.377 . S
C3173 H3157 0.930 . S
C3173 C3172 1.377 . S
C3173 C3174 1.379 . S
C3174 H3158 0.931 . S
C3174 C3168 1.383 . S
C3174 C3173 1.379 . S
H3175 C3169 0.959 . S
H3176 C3169 0.961 . S
H3177 C3169 0.960 . S
H3178 C3170 0.930 . S
H3179 C3171 0.929 . S
H3180 C3188 0.929 . S
H3181 C3190 0.930 . S
H3182 C3192 0.930 . S
H3183 C3195 0.929 . S
H3184 C3198 0.930 . S
H3185 C3200 0.960 . S
H3186 C3200 0.960 . S
H3187 C3200 0.960 . S
C3188 H3180 0.929 . S
C3188 C3189 1.377 . S
C3188 C3190 1.384 . S
C3189 C3188 1.377 . S
C3189 C3195 1.390 . S
C3190 H3181 0.930 . S
C3190 C3188 1.384 . S
C3190 C3191 1.372 . S
C3191 C3190 1.372 . S
C3191 C3192 1.400 . S
C3191 C3196 1.490 . S
C3192 H3182 0.930 . S
C3192 C3191 1.400 . S
C3192 C3195 1.386 . S
H3193 C3209 0.930 . S
H3194 C3210 0.931 . S
C3195 H3183 0.929 . S
C3195 C3189 1.390 . S
C3195 C3192 1.386 . S
C3196 C3191 1.490 . S
C3196 C3198 1.395 . S
C3196 C3199 1.403 . S
H3197 C3203 0.930 . S
C3198 H3184 0.930 . S
C3198 C3196 1.395 . S
C3198 C3201 1.403 . S
C3199 C3196 1.403 . S
C3199 C3200 1.524 . S
C3199 C3203 1.400 . S
C3200 H3185 0.960 . S
C3200 H3186 0.960 . S
C3200 H3187 0.960 . S
C3200 C3199 1.524 . S
C3201 C3198 1.403 . S
C3201 C3202 1.392 . S
C3201 C3205 1.495 . S
C3202 C3201 1.392 . S
C3202 C3203 1.385 . S
C3202 C3204 1.478 . S
C3203 H3197 0.930 . S
C3203 C3199 1.400 . S
C3203 C3202 1.385 . S
C3204 C3202 1.478 . S
C3204 C3206 1.381 . S
C3204 C3210 1.383 . S
C3205 C3201 1.495 . S
C3205 H3211 0.959 . S
C3205 H3212 0.961 . S
C3205 H3213 0.960 . S
C3206 C3204 1.381 . S
C3206 C3207 1.394 1_545 S
C3206 H3214 0.930 . S
C3207 C3206 1.394 1_565 S
C3207 C3208 1.383 . S
C3207 H3215 0.929 . S
C3208 C3207 1.383 . S
C3208 C3209 1.377 . S
C3209 H3193 0.930 . S
C3209 C3208 1.377 . S
C3209 C3210 1.379 1_565 S
C3210 H3194 0.931 . S
C3210 C3204 1.383 . S
C3210 C3209 1.379 1_545 S
H3211 C3205 0.959 . S
H3212 C3205 0.961 . S
H3213 C3205 0.960 . S
H3214 C3206 0.930 . S
H3215 C3207 0.929 . S
H3216 C3224 0.929 . S
H3217 C3226 0.930 . S
H3218 C3228 0.930 . S
H3219 C3231 0.929 . S
H3220 C3234 0.930 . S
H3221 C3236 0.960 . S
H3222 C3236 0.960 . S
H3223 C3236 0.960 . S
C3224 H3216 0.929 . S
C3224 C3225 1.377 . S
C3224 C3226 1.384 1_545 S
C3225 C3224 1.377 . S
C3225 C3231 1.390 . S
C3226 H3217 0.930 . S
C3226 C3224 1.384 1_565 S
C3226 C3227 1.372 . S
C3227 C3226 1.372 . S
C3227 C3228 1.400 . S
C3227 C3232 1.490 . S
C3228 H3218 0.930 . S
C3228 C3227 1.400 . S
C3228 C3231 1.386 1_565 S
H3229 C3245 0.930 . S
H3230 C3246 0.931 . S
C3231 H3219 0.929 . S
C3231 C3225 1.390 . S
C3231 C3228 1.386 1_545 S
C3232 C3227 1.490 . S
C3232 C3234 1.395 . S
C3232 C3235 1.403 . S
H3233 C3239 0.930 . S
C3234 H3220 0.930 . S
C3234 C3232 1.395 . S
C3234 C3237 1.403 . S
C3235 C3232 1.403 . S
C3235 C3236 1.524 . S
C3235 C3239 1.400 . S
C3236 H3221 0.960 . S
C3236 H3222 0.960 . S
C3236 H3223 0.960 . S
C3236 C3235 1.524 . S
C3237 C3234 1.403 . S
C3237 C3238 1.392 . S
C3237 C3241 1.495 . S
C3238 C3237 1.392 . S
C3238 C3239 1.385 . S
C3238 C3240 1.478 . S
C3239 H3233 0.930 . S
C3239 C3235 1.400 . S
C3239 C3238 1.385 . S
C3240 C3238 1.478 . S
C3240 C3242 1.381 . S
C3240 C3246 1.383 . S
C3241 C3237 1.495 . S
C3241 H3247 0.959 . S
C3241 H3248 0.961 . S
C3241 H3249 0.960 . S
C3242 C3240 1.381 . S
C3242 C3243 1.394 . S
C3242 H3250 0.930 . S
C3243 C3242 1.394 . S
C3243 C3244 1.383 . S
C3243 H3251 0.929 . S
C3244 C3243 1.383 . S
C3244 C3245 1.377 . S
C3245 H3229 0.930 . S
C3245 C3244 1.377 . S
C3245 C3246 1.379 . S
C3246 H3230 0.931 . S
C3246 C3240 1.383 . S
C3246 C3245 1.379 . S
H3247 C3241 0.959 . S
H3248 C3241 0.961 . S
H3249 C3241 0.960 . S
H3250 C3242 0.930 . S
H3251 C3243 0.929 . S
H3252 C3260 0.929 . S
H3253 C3262 0.930 . S
H3254 C3264 0.930 . S
H3255 C3267 0.929 . S
H3256 C3270 0.930 . S
H3257 C3272 0.960 . S
H3258 C3272 0.960 . S
H3259 C3272 0.960 . S
C3260 H3252 0.929 . S
C3260 C3261 1.377 . S
C3260 C3262 1.384 . S
C3261 C3260 1.377 . S
C3261 C3267 1.390 . S
C3262 H3253 0.930 . S
C3262 C3260 1.384 . S
C3262 C3263 1.372 . S
C3263 C3262 1.372 . S
C3263 C3264 1.400 . S
C3263 C3268 1.490 . S
C3264 H3254 0.930 . S
C3264 C3263 1.400 . S
C3264 C3267 1.386 . S
H3265 C3281 0.930 . S
H3266 C3282 0.931 . S
C3267 H3255 0.929 . S
C3267 C3261 1.390 . S
C3267 C3264 1.386 . S
C3268 C3263 1.490 . S
C3268 C3270 1.395 . S
C3268 C3271 1.403 . S
H3269 C3275 0.930 . S
C3270 H3256 0.930 . S
C3270 C3268 1.395 . S
C3270 C3273 1.403 . S
C3271 C3268 1.403 . S
C3271 C3272 1.524 . S
C3271 C3275 1.400 . S
C3272 H3257 0.960 . S
C3272 H3258 0.960 . S
C3272 H3259 0.960 . S
C3272 C3271 1.524 . S
C3273 C3270 1.403 . S
C3273 C3274 1.392 . S
C3273 C3277 1.495 1_565 S
C3274 C3273 1.392 . S
C3274 C3275 1.385 . S
C3274 C3276 1.477 1_565 S
C3275 H3269 0.930 . S
C3275 C3271 1.400 . S
C3275 C3274 1.385 . S
C3276 C3274 1.477 1_545 S
C3276 C3278 1.381 . S
C3276 C3282 1.383 . S
C3277 C3273 1.495 1_545 S
C3277 H3283 0.959 1_545 S
C3277 H3284 0.961 . S
C3277 H3285 0.960 . S
C3278 C3276 1.381 . S
C3278 C3279 1.394 . S
C3278 H3286 0.930 . S
C3279 C3278 1.394 . S
C3279 C3280 1.383 . S
C3279 H3287 0.929 . S
C3280 C3279 1.383 . S
C3280 C3281 1.377 . S
C3281 H3265 0.930 . S
C3281 C3280 1.377 . S
C3281 C3282 1.379 . S
C3282 H3266 0.931 . S
C3282 C3276 1.383 . S
C3282 C3281 1.379 . S
H3283 C3277 0.959 1_565 S
H3284 C3277 0.961 . S
H3285 C3277 0.960 . S
H3286 C3278 0.930 . S
H3287 C3279 0.929 . S
H3288 C3296 0.929 . S
H3289 C3298 0.930 . S
H3290 C3300 0.930 . S
H3291 C3303 0.929 . S
H3292 C3306 0.930 . S
H3293 C3308 0.960 . S
H3294 C3308 0.960 . S
H3295 C3308 0.960 . S
C3296 H3288 0.929 . S
C3296 C3297 1.377 . S
C3296 C3298 1.384 . S
C3297 C3296 1.377 . S
C3297 C3303 1.390 . S
C3298 H3289 0.930 . S
C3298 C3296 1.384 . S
C3298 C3299 1.372 . S
C3299 C3298 1.372 . S
C3299 C3300 1.400 . S
C3299 C3304 1.490 . S
C3300 H3290 0.930 . S
C3300 C3299 1.400 . S
C3300 C3303 1.386 . S
H3301 C3317 0.930 . S
H3302 C3318 0.931 . S
C3303 H3291 0.929 . S
C3303 C3297 1.390 . S
C3303 C3300 1.386 . S
C3304 C3299 1.490 . S
C3304 C3306 1.395 . S
C3304 C3307 1.403 . S
H3305 C3311 0.930 . S
C3306 H3292 0.930 . S
C3306 C3304 1.395 . S
C3306 C3309 1.403 . S
C3307 C3304 1.403 . S
C3307 C3308 1.524 . S
C3307 C3311 1.400 . S
C3308 H3293 0.960 . S
C3308 H3294 0.960 . S
C3308 H3295 0.960 . S
C3308 C3307 1.524 . S
C3309 C3306 1.403 . S
C3309 C3310 1.392 . S
C3309 C3313 1.495 . S
C3310 C3309 1.392 . S
C3310 C3311 1.385 . S
C3310 C3312 1.478 1_565 S
C3311 H3305 0.930 . S
C3311 C3307 1.400 . S
C3311 C3310 1.385 . S
C3312 C3310 1.478 1_545 S
C3312 C3314 1.381 . S
C3312 C3318 1.383 . S
C3313 C3309 1.495 . S
C3313 H3319 0.959 . S
C3313 H3320 0.961 1_565 S
C3313 H3321 0.960 1_565 S
C3314 C3312 1.381 . S
C3314 C3315 1.394 . S
C3314 H3322 0.930 . S
C3315 C3314 1.394 . S
C3315 C3316 1.383 . S
C3315 H3323 0.929 . S
C3316 C3315 1.383 . S
C3316 C3317 1.377 . S
C3317 H3301 0.930 . S
C3317 C3316 1.377 . S
C3317 C3318 1.379 . S
C3318 H3302 0.931 . S
C3318 C3312 1.383 . S
C3318 C3317 1.379 . S
H3319 C3313 0.959 . S
H3320 C3313 0.961 1_545 S
H3321 C3313 0.960 1_545 S
H3322 C3314 0.930 . S
H3323 C3315 0.929 . S
H3324 C3332 0.929 . S
H3325 C3334 0.930 . S
H3326 C3336 0.930 . S
H3327 C3339 0.929 . S
H3328 C3342 0.930 . S
H3329 C3344 0.960 . S
H3330 C3344 0.960 . S
H3331 C3344 0.960 . S
C3332 H3324 0.929 . S
C3332 C3333 1.377 . S
C3332 C3334 1.384 1_545 S
C3333 C3332 1.377 . S
C3333 C3339 1.390 . S
C3334 H3325 0.930 . S
C3334 C3332 1.384 1_565 S
C3334 C3335 1.372 . S
C3335 C3334 1.372 . S
C3335 C3336 1.400 . S
C3335 C3340 1.490 . S
C3336 H3326 0.930 . S
C3336 C3335 1.400 . S
C3336 C3339 1.386 1_565 S
H3337 C3353 0.930 . S
H3338 C3354 0.931 . S
C3339 H3327 0.929 . S
C3339 C3333 1.390 . S
C3339 C3336 1.386 1_545 S
C3340 C3335 1.490 . S
C3340 C3342 1.395 . S
C3340 C3343 1.403 . S
H3341 C3347 0.930 . S
C3342 H3328 0.930 . S
C3342 C3340 1.395 . S
C3342 C3345 1.403 . S
C3343 C3340 1.403 . S
C3343 C3344 1.524 . S
C3343 C3347 1.400 . S
C3344 H3329 0.960 . S
C3344 H3330 0.960 . S
C3344 H3331 0.960 . S
C3344 C3343 1.524 . S
C3345 C3342 1.403 . S
C3345 C3346 1.392 . S
C3345 C3349 1.495 . S
C3346 C3345 1.392 . S
C3346 C3347 1.385 . S
C3346 C3348 1.478 . S
C3347 H3341 0.930 . S
C3347 C3343 1.400 . S
C3347 C3346 1.385 . S
C3348 C3346 1.478 . S
C3348 C3350 1.381 . S
C3348 C3354 1.383 . S
C3349 C3345 1.495 . S
C3349 H3355 0.959 . S
C3349 H3356 0.961 . S
C3349 H3357 0.960 . S
C3350 C3348 1.381 . S
C3350 C3351 1.394 . S
C3350 H3358 0.930 . S
C3351 C3350 1.394 . S
C3351 C3352 1.383 . S
C3351 H3359 0.929 . S
C3352 C3351 1.383 . S
C3352 C3353 1.377 . S
C3353 H3337 0.930 . S
C3353 C3352 1.377 . S
C3353 C3354 1.379 . S
C3354 H3338 0.931 . S
C3354 C3348 1.383 . S
C3354 C3353 1.379 . S
H3355 C3349 0.959 . S
H3356 C3349 0.961 . S
H3357 C3349 0.960 . S
H3358 C3350 0.930 . S
H3359 C3351 0.929 . S
H3360 C3368 0.929 . S
H3361 C3370 0.930 . S
H3362 C3372 0.930 . S
H3363 C3375 0.929 . S
H3364 C3378 0.930 . S
H3365 C3380 0.960 . S
H3366 C3380 0.960 . S
H3367 C3380 0.960 . S
C3368 H3360 0.929 . S
C3368 C3369 1.377 . S
C3368 C3370 1.384 . S
C3369 C3368 1.377 . S
C3369 C3375 1.390 . S
C3370 H3361 0.930 . S
C3370 C3368 1.384 . S
C3370 C3371 1.372 . S
C3371 C3370 1.372 . S
C3371 C3372 1.400 . S
C3371 C3376 1.490 . S
C3372 H3362 0.930 . S
C3372 C3371 1.400 . S
C3372 C3375 1.386 . S
H3373 C3389 0.930 . S
H3374 C3390 0.931 . S
C3375 H3363 0.929 . S
C3375 C3369 1.390 . S
C3375 C3372 1.386 . S
C3376 C3371 1.490 . S
C3376 C3378 1.395 . S
C3376 C3379 1.403 . S
H3377 C3383 0.930 . S
C3378 H3364 0.930 . S
C3378 C3376 1.395 . S
C3378 C3381 1.403 . S
C3379 C3376 1.403 . S
C3379 C3380 1.524 . S
C3379 C3383 1.400 . S
C3380 H3365 0.960 . S
C3380 H3366 0.960 . S
C3380 H3367 0.960 . S
C3380 C3379 1.524 . S
C3381 C3378 1.403 . S
C3381 C3382 1.392 . S
C3381 C3385 1.495 . S
C3382 C3381 1.392 . S
C3382 C3383 1.385 . S
C3382 C3384 1.478 . S
C3383 H3377 0.930 . S
C3383 C3379 1.400 . S
C3383 C3382 1.385 . S
C3384 C3382 1.478 . S
C3384 C3386 1.381 . S
C3384 C3390 1.383 . S
C3385 C3381 1.495 . S
C3385 H3391 0.959 . S
C3385 H3392 0.961 . S
C3385 H3393 0.960 . S
C3386 C3384 1.381 . S
C3386 C3387 1.394 . S
C3386 H3394 0.930 . S
C3387 C3386 1.394 . S
C3387 C3388 1.383 . S
C3387 H3395 0.929 . S
C3388 C3387 1.383 . S
C3388 C3389 1.377 . S
C3389 H3373 0.930 . S
C3389 C3388 1.377 . S
C3389 C3390 1.379 . S
C3390 H3374 0.931 . S
C3390 C3384 1.383 . S
C3390 C3389 1.379 . S
H3391 C3385 0.959 . S
H3392 C3385 0.961 . S
H3393 C3385 0.960 . S
H3394 C3386 0.930 . S
H3395 C3387 0.929 . S
H3396 C3404 0.929 . S
H3397 C3406 0.930 . S
H3398 C3408 0.930 . S
H3399 C3411 0.929 . S
H3400 C3414 0.930 . S
H3401 C3416 0.960 . S
H3402 C3416 0.960 . S
H3403 C3416 0.960 . S
C3404 H3396 0.929 . S
C3404 C3405 1.377 . S
C3404 C3406 1.384 . S
C3405 C3404 1.377 . S
C3405 C3411 1.390 . S
C3406 H3397 0.930 . S
C3406 C3404 1.384 . S
C3406 C3407 1.372 . S
C3407 C3406 1.372 . S
C3407 C3408 1.400 . S
C3407 C3412 1.490 . S
C3408 H3398 0.930 . S
C3408 C3407 1.400 . S
C3408 C3411 1.386 . S
H3409 C3425 0.930 . S
H3410 C3426 0.931 . S
C3411 H3399 0.929 . S
C3411 C3405 1.390 . S
C3411 C3408 1.386 . S
C3412 C3407 1.490 . S
C3412 C3414 1.395 . S
C3412 C3415 1.403 . S
H3413 C3419 0.930 . S
C3414 H3400 0.930 . S
C3414 C3412 1.395 . S
C3414 C3417 1.403 . S
C3415 C3412 1.403 . S
C3415 C3416 1.524 . S
C3415 C3419 1.400 . S
C3416 H3401 0.960 . S
C3416 H3402 0.960 . S
C3416 H3403 0.960 . S
C3416 C3415 1.524 . S
C3417 C3414 1.403 . S
C3417 C3418 1.392 . S
C3417 C3421 1.495 . S
C3418 C3417 1.392 . S
C3418 C3419 1.385 . S
C3418 C3420 1.478 . S
C3419 H3413 0.930 . S
C3419 C3415 1.400 . S
C3419 C3418 1.385 . S
C3420 C3418 1.478 . S
C3420 C3422 1.381 . S
C3420 C3426 1.383 . S
C3421 C3417 1.495 . S
C3421 H3427 0.959 . S
C3421 H3428 0.961 . S
C3421 H3429 0.960 . S
C3422 C3420 1.381 . S
C3422 C3423 1.394 . S
C3422 H3430 0.930 . S
C3423 C3422 1.394 . S
C3423 C3424 1.383 . S
C3423 H3431 0.929 . S
C3424 C3423 1.383 . S
C3424 C3425 1.377 . S
C3425 H3409 0.930 . S
C3425 C3424 1.377 . S
C3425 C3426 1.379 . S
C3426 H3410 0.931 . S
C3426 C3420 1.383 . S
C3426 C3425 1.379 . S
H3427 C3421 0.959 . S
H3428 C3421 0.961 . S
H3429 C3421 0.960 . S
H3430 C3422 0.930 . S
H3431 C3423 0.929 . S
H3432 C3440 0.929 . S
H3433 C3442 0.930 . S
H3434 C3444 0.930 . S
H3435 C3447 0.929 . S
H3436 C3450 0.930 . S
H3437 C3452 0.960 . S
H3438 C3452 0.960 . S
H3439 C3452 0.960 . S
C3440 H3432 0.929 . S
C3440 C3441 1.377 . S
C3440 C3442 1.384 . S
C3441 C3440 1.377 . S
C3441 C3447 1.390 . S
C3442 H3433 0.930 . S
C3442 C3440 1.384 . S
C3442 C3443 1.372 . S
C3443 C3442 1.372 . S
C3443 C3444 1.400 . S
C3443 C3448 1.490 . S
C3444 H3434 0.930 . S
C3444 C3443 1.400 . S
C3444 C3447 1.386 . S
H3445 C3461 0.930 1_545 S
H3446 C3462 0.931 . S
C3447 H3435 0.929 . S
C3447 C3441 1.390 . S
C3447 C3444 1.386 . S
C3448 C3443 1.490 . S
C3448 C3450 1.395 . S
C3448 C3451 1.403 . S
H3449 C3455 0.930 . S
C3450 H3436 0.930 . S
C3450 C3448 1.395 . S
C3450 C3453 1.403 . S
C3451 C3448 1.403 . S
C3451 C3452 1.524 . S
C3451 C3455 1.400 . S
C3452 H3437 0.960 . S
C3452 H3438 0.960 . S
C3452 H3439 0.960 . S
C3452 C3451 1.524 . S
C3453 C3450 1.403 . S
C3453 C3454 1.392 . S
C3453 C3457 1.495 . S
C3454 C3453 1.392 . S
C3454 C3455 1.385 . S
C3454 C3456 1.478 . S
C3455 H3449 0.930 . S
C3455 C3451 1.400 . S
C3455 C3454 1.385 . S
C3456 C3454 1.478 . S
C3456 C3458 1.381 . S
C3456 C3462 1.383 . S
C3457 C3453 1.495 . S
C3457 H3463 0.959 . S
C3457 H3464 0.961 . S
C3457 H3465 0.960 . S
C3458 C3456 1.381 . S
C3458 C3459 1.394 . S
C3458 H3466 0.930 . S
C3459 C3458 1.394 . S
C3459 C3460 1.383 . S
C3459 H3467 0.929 . S
C3460 C3459 1.383 . S
C3460 C3461 1.377 . S
C3461 H3445 0.930 1_565 S
C3461 C3460 1.377 . S
C3461 C3462 1.379 . S
C3462 H3446 0.931 . S
C3462 C3456 1.383 . S
C3462 C3461 1.379 . S
H3463 C3457 0.959 . S
H3464 C3457 0.961 . S
H3465 C3457 0.960 . S
H3466 C3458 0.930 . S
H3467 C3459 0.929 . S
H3468 C3476 0.929 . S
H3469 C3478 0.930 . S
H3470 C3480 0.930 . S
H3471 C3483 0.929 . S
H3472 C3486 0.930 . S
H3473 C3488 0.960 . S
H3474 C3488 0.960 . S
H3475 C3488 0.960 . S
C3476 H3468 0.929 . S
C3476 C3477 1.377 . S
C3476 C3478 1.384 . S
C3477 C3476 1.377 . S
C3477 C3483 1.390 . S
C3478 H3469 0.930 . S
C3478 C3476 1.384 . S
C3478 C3479 1.372 . S
C3479 C3478 1.372 . S
C3479 C3480 1.400 . S
C3479 C3484 1.490 . S
C3480 H3470 0.930 . S
C3480 C3479 1.400 . S
C3480 C3483 1.386 . S
H3481 C3497 0.930 . S
H3482 C3498 0.931 . S
C3483 H3471 0.929 . S
C3483 C3477 1.390 . S
C3483 C3480 1.386 . S
C3484 C3479 1.490 . S
C3484 C3486 1.395 . S
C3484 C3487 1.403 . S
H3485 C3491 0.930 . S
C3486 H3472 0.930 . S
C3486 C3484 1.395 . S
C3486 C3489 1.403 . S
C3487 C3484 1.403 . S
C3487 C3488 1.524 . S
C3487 C3491 1.400 . S
C3488 H3473 0.960 . S
C3488 H3474 0.960 . S
C3488 H3475 0.960 . S
C3488 C3487 1.524 . S
C3489 C3486 1.403 . S
C3489 C3490 1.392 . S
C3489 C3493 1.495 . S
C3490 C3489 1.392 . S
C3490 C3491 1.385 . S
C3490 C3492 1.478 . S
C3491 H3485 0.930 . S
C3491 C3487 1.400 . S
C3491 C3490 1.385 . S
C3492 C3490 1.478 . S
C3492 C3494 1.381 . S
C3492 C3498 1.383 . S
C3493 C3489 1.495 . S
C3493 H3499 0.959 . S
C3493 H3500 0.961 . S
C3493 H3501 0.960 . S
C3494 C3492 1.381 . S
C3494 C3495 1.394 . S
C3494 H3502 0.930 . S
C3495 C3494 1.394 . S
C3495 C3496 1.383 . S
C3495 H3503 0.929 . S
C3496 C3495 1.383 . S
C3496 C3497 1.377 . S
C3497 H3481 0.930 . S
C3497 C3496 1.377 . S
C3497 C3498 1.379 . S
C3498 H3482 0.931 . S
C3498 C3492 1.383 . S
C3498 C3497 1.379 . S
H3499 C3493 0.959 . S
H3500 C3493 0.961 . S
H3501 C3493 0.960 . S
H3502 C3494 0.930 . S
H3503 C3495 0.929 . S
H3504 C3512 0.929 . S
H3505 C3514 0.930 . S
H3506 C3516 0.930 . S
H3507 C3519 0.929 . S
H3508 C3522 0.930 . S
H3509 C3524 0.960 . S
H3510 C3524 0.960 . S
H3511 C3524 0.960 . S
C3512 H3504 0.929 . S
C3512 C3513 1.377 . S
C3512 C3514 1.384 . S
C3513 C3512 1.377 . S
C3513 C3519 1.390 . S
C3514 H3505 0.930 . S
C3514 C3512 1.384 . S
C3514 C3515 1.372 . S
C3515 C3514 1.372 . S
C3515 C3516 1.400 . S
C3515 C3520 1.490 . S
C3516 H3506 0.930 . S
C3516 C3515 1.400 . S
C3516 C3519 1.386 . S
H3517 C3533 0.930 . S
H3518 C3534 0.931 . S
C3519 H3507 0.929 . S
C3519 C3513 1.390 . S
C3519 C3516 1.386 . S
C3520 C3515 1.490 . S
C3520 C3522 1.395 . S
C3520 C3523 1.403 . S
H3521 C3527 0.930 . S
C3522 H3508 0.930 . S
C3522 C3520 1.395 . S
C3522 C3525 1.403 . S
C3523 C3520 1.403 . S
C3523 C3524 1.524 . S
C3523 C3527 1.400 . S
C3524 H3509 0.960 . S
C3524 H3510 0.960 . S
C3524 H3511 0.960 . S
C3524 C3523 1.524 . S
C3525 C3522 1.403 . S
C3525 C3526 1.392 . S
C3525 C3529 1.495 . S
C3526 C3525 1.392 . S
C3526 C3527 1.385 . S
C3526 C3528 1.478 . S
C3527 H3521 0.930 . S
C3527 C3523 1.400 . S
C3527 C3526 1.385 . S
C3528 C3526 1.478 . S
C3528 C3530 1.381 . S
C3528 C3534 1.383 . S
C3529 C3525 1.495 . S
C3529 H3535 0.959 . S
C3529 H3536 0.961 . S
C3529 H3537 0.960 . S
C3530 C3528 1.381 . S
C3530 C3531 1.394 . S
C3530 H3538 0.930 . S
C3531 C3530 1.394 . S
C3531 C3532 1.383 . S
C3531 H3539 0.929 . S
C3532 C3531 1.383 . S
C3532 C3533 1.377 . S
C3533 H3517 0.930 . S
C3533 C3532 1.377 . S
C3533 C3534 1.379 . S
C3534 H3518 0.931 . S
C3534 C3528 1.383 . S
C3534 C3533 1.379 . S
H3535 C3529 0.959 . S
H3536 C3529 0.961 . S
H3537 C3529 0.960 . S
H3538 C3530 0.930 . S
H3539 C3531 0.929 . S
H3540 C3548 0.929 . S
H3541 C3550 0.930 . S
H3542 C3552 0.930 . S
H3543 C3555 0.929 . S
H3544 C3558 0.930 . S
H3545 C3560 0.960 . S
H3546 C3560 0.960 . S
H3547 C3560 0.960 . S
C3548 H3540 0.929 . S
C3548 C3549 1.377 . S
C3548 C3550 1.384 . S
C3549 C3548 1.377 . S
C3549 C3555 1.390 . S
C3550 H3541 0.930 . S
C3550 C3548 1.384 . S
C3550 C3551 1.372 . S
C3551 C3550 1.372 . S
C3551 C3552 1.400 . S
C3551 C3556 1.490 . S
C3552 H3542 0.930 . S
C3552 C3551 1.400 . S
C3552 C3555 1.386 . S
H3553 C3569 0.930 . S
H3554 C3570 0.931 . S
C3555 H3543 0.929 . S
C3555 C3549 1.390 . S
C3555 C3552 1.386 . S
C3556 C3551 1.490 . S
C3556 C3558 1.395 . S
C3556 C3559 1.403 . S
H3557 C3563 0.930 . S
C3558 H3544 0.930 . S
C3558 C3556 1.395 . S
C3558 C3561 1.403 . S
C3559 C3556 1.403 . S
C3559 C3560 1.524 . S
C3559 C3563 1.400 . S
C3560 H3545 0.960 . S
C3560 H3546 0.960 . S
C3560 H3547 0.960 . S
C3560 C3559 1.524 . S
C3561 C3558 1.403 . S
C3561 C3562 1.392 . S
C3561 C3565 1.495 . S
C3562 C3561 1.392 . S
C3562 C3563 1.385 . S
C3562 C3564 1.478 . S
C3563 H3557 0.930 . S
C3563 C3559 1.400 . S
C3563 C3562 1.385 . S
C3564 C3562 1.478 . S
C3564 C3566 1.381 . S
C3564 C3570 1.383 . S
C3565 C3561 1.495 . S
C3565 H3571 0.959 . S
C3565 H3572 0.961 . S
C3565 H3573 0.960 . S
C3566 C3564 1.381 . S
C3566 C3567 1.394 . S
C3566 H3574 0.930 . S
C3567 C3566 1.394 . S
C3567 C3568 1.383 . S
C3567 H3575 0.929 . S
C3568 C3567 1.383 . S
C3568 C3569 1.377 . S
C3569 H3553 0.930 . S
C3569 C3568 1.377 . S
C3569 C3570 1.379 . S
C3570 H3554 0.931 . S
C3570 C3564 1.383 . S
C3570 C3569 1.379 . S
H3571 C3565 0.959 . S
H3572 C3565 0.961 . S
H3573 C3565 0.960 . S
H3574 C3566 0.930 . S
H3575 C3567 0.929 . S
H3576 C3584 0.929 . S
H3577 C3586 0.930 . S
H3578 C3588 0.930 . S
H3579 C3591 0.929 . S
H3580 C3594 0.930 . S
H3581 C3596 0.960 . S
H3582 C3596 0.960 . S
H3583 C3596 0.960 . S
C3584 H3576 0.929 . S
C3584 C3585 1.377 . S
C3584 C3586 1.384 . S
C3585 C3584 1.377 . S
C3585 C3591 1.390 . S
C3586 H3577 0.930 . S
C3586 C3584 1.384 . S
C3586 C3587 1.372 . S
C3587 C3586 1.372 . S
C3587 C3588 1.400 . S
C3587 C3592 1.490 . S
C3588 H3578 0.930 . S
C3588 C3587 1.400 . S
C3588 C3591 1.386 . S
H3589 C3605 0.930 . S
H3590 C3606 0.931 . S
C3591 H3579 0.929 . S
C3591 C3585 1.390 . S
C3591 C3588 1.386 . S
C3592 C3587 1.490 . S
C3592 C3594 1.395 . S
C3592 C3595 1.403 . S
H3593 C3599 0.930 . S
C3594 H3580 0.930 . S
C3594 C3592 1.395 . S
C3594 C3597 1.403 . S
C3595 C3592 1.403 . S
C3595 C3596 1.524 . S
C3595 C3599 1.400 . S
C3596 H3581 0.960 . S
C3596 H3582 0.960 . S
C3596 H3583 0.960 . S
C3596 C3595 1.524 . S
C3597 C3594 1.403 . S
C3597 C3598 1.392 . S
C3597 C3601 1.495 . S
C3598 C3597 1.392 . S
C3598 C3599 1.385 . S
C3598 C3600 1.478 . S
C3599 H3593 0.930 . S
C3599 C3595 1.400 . S
C3599 C3598 1.385 . S
C3600 C3598 1.478 . S
C3600 C3602 1.381 . S
C3600 C3606 1.383 . S
C3601 C3597 1.495 . S
C3601 H3607 0.959 . S
C3601 H3608 0.961 . S
C3601 H3609 0.960 . S
C3602 C3600 1.381 . S
C3602 C3603 1.394 1_545 S
C3602 H3610 0.930 1_545 S
C3603 C3602 1.394 1_565 S
C3603 C3604 1.383 1_565 S
C3603 H3611 0.929 . S
C3604 C3603 1.383 1_545 S
C3604 C3605 1.377 . S
C3605 H3589 0.930 . S
C3605 C3604 1.377 . S
C3605 C3606 1.379 . S
C3606 H3590 0.931 . S
C3606 C3600 1.383 . S
C3606 C3605 1.379 . S
H3607 C3601 0.959 . S
H3608 C3601 0.961 . S
H3609 C3601 0.960 . S
H3610 C3602 0.930 1_565 S
H3611 C3603 0.929 . S
H3612 C3620 0.929 . S
H3613 C3622 0.930 . S
H3614 C3624 0.930 . S
H3615 C3627 0.929 . S
H3616 C3630 0.930 . S
H3617 C3632 0.960 . S
H3618 C3632 0.960 . S
H3619 C3632 0.960 . S
C3620 H3612 0.929 . S
C3620 C3621 1.377 . S
C3620 C3622 1.384 . S
C3621 C3620 1.377 . S
C3621 C3627 1.390 . S
C3622 H3613 0.930 . S
C3622 C3620 1.384 . S
C3622 C3623 1.372 . S
C3623 C3622 1.372 . S
C3623 C3624 1.400 . S
C3623 C3628 1.490 . S
C3624 H3614 0.930 . S
C3624 C3623 1.400 . S
C3624 C3627 1.386 . S
H3625 C3641 0.930 . S
H3626 C3642 0.931 . S
C3627 H3615 0.929 . S
C3627 C3621 1.390 . S
C3627 C3624 1.386 . S
C3628 C3623 1.490 . S
C3628 C3630 1.395 . S
C3628 C3631 1.403 . S
H3629 C3635 0.930 . S
C3630 H3616 0.930 . S
C3630 C3628 1.395 . S
C3630 C3633 1.403 . S
C3631 C3628 1.403 . S
C3631 C3632 1.524 . S
C3631 C3635 1.400 . S
C3632 H3617 0.960 . S
C3632 H3618 0.960 . S
C3632 H3619 0.960 . S
C3632 C3631 1.524 . S
C3633 C3630 1.403 . S
C3633 C3634 1.392 . S
C3633 C3637 1.495 . S
C3634 C3633 1.392 . S
C3634 C3635 1.385 . S
C3634 C3636 1.478 . S
C3635 H3629 0.930 . S
C3635 C3631 1.400 . S
C3635 C3634 1.385 . S
C3636 C3634 1.478 . S
C3636 C3638 1.381 . S
C3636 C3642 1.383 . S
C3637 C3633 1.495 . S
C3637 H3643 0.959 . S
C3637 H3644 0.961 . S
C3637 H3645 0.960 . S
C3638 C3636 1.381 . S
C3638 C3639 1.394 . S
C3638 H3646 0.930 . S
C3639 C3638 1.394 . S
C3639 C3640 1.383 . S
C3639 H3647 0.929 . S
C3640 C3639 1.383 . S
C3640 C3641 1.377 . S
C3641 H3625 0.930 . S
C3641 C3640 1.377 . S
C3641 C3642 1.379 . S
C3642 H3626 0.931 . S
C3642 C3636 1.383 . S
C3642 C3641 1.379 . S
H3643 C3637 0.959 . S
H3644 C3637 0.961 . S
H3645 C3637 0.960 . S
H3646 C3638 0.930 . S
H3647 C3639 0.929 . S
H3648 C3656 0.929 . S
H3649 C3658 0.930 . S
H3650 C3660 0.930 . S
H3651 C3663 0.929 . S
H3652 C3666 0.930 . S
H3653 C3668 0.960 . S
H3654 C3668 0.960 . S
H3655 C3668 0.960 . S
C3656 H3648 0.929 . S
C3656 C3657 1.377 . S
C3656 C3658 1.384 . S
C3657 C3656 1.377 . S
C3657 C3663 1.390 . S
C3658 H3649 0.930 . S
C3658 C3656 1.384 . S
C3658 C3659 1.372 . S
C3659 C3658 1.372 . S
C3659 C3660 1.400 . S
C3659 C3664 1.490 . S
C3660 H3650 0.930 . S
C3660 C3659 1.400 . S
C3660 C3663 1.386 . S
H3661 C3677 0.930 . S
H3662 C3678 0.931 . S
C3663 H3651 0.929 . S
C3663 C3657 1.390 . S
C3663 C3660 1.386 . S
C3664 C3659 1.490 . S
C3664 C3666 1.395 . S
C3664 C3667 1.403 . S
H3665 C3671 0.930 . S
C3666 H3652 0.930 . S
C3666 C3664 1.395 . S
C3666 C3669 1.403 . S
C3667 C3664 1.403 . S
C3667 C3668 1.524 . S
C3667 C3671 1.400 . S
C3668 H3653 0.960 . S
C3668 H3654 0.960 . S
C3668 H3655 0.960 . S
C3668 C3667 1.524 . S
C3669 C3666 1.403 . S
C3669 C3670 1.392 . S
C3669 C3673 1.495 . S
C3670 C3669 1.392 . S
C3670 C3671 1.385 . S
C3670 C3672 1.478 . S
C3671 H3665 0.930 . S
C3671 C3667 1.400 . S
C3671 C3670 1.385 . S
C3672 C3670 1.478 . S
C3672 C3674 1.381 . S
C3672 C3678 1.383 . S
C3673 C3669 1.495 . S
C3673 H3679 0.959 . S
C3673 H3680 0.961 . S
C3673 H3681 0.960 . S
C3674 C3672 1.381 . S
C3674 C3675 1.394 1_565 S
C3674 H3682 0.930 . S
C3675 C3674 1.394 1_545 S
C3675 C3676 1.383 1_545 S
C3675 H3683 0.929 . S
C3676 C3675 1.383 1_565 S
C3676 C3677 1.377 . S
C3677 H3661 0.930 . S
C3677 C3676 1.377 . S
C3677 C3678 1.379 . S
C3678 H3662 0.931 . S
C3678 C3672 1.383 . S
C3678 C3677 1.379 . S
H3679 C3673 0.959 . S
H3680 C3673 0.961 . S
H3681 C3673 0.960 . S
H3682 C3674 0.930 . S
H3683 C3675 0.929 . S
H3684 C3692 0.929 . S
H3685 C3694 0.930 . S
H3686 C3696 0.930 . S
H3687 C3699 0.929 . S
H3688 C3702 0.930 . S
H3689 C3704 0.960 . S
H3690 C3704 0.960 . S
H3691 C3704 0.960 . S
C3692 H3684 0.929 . S
C3692 C3693 1.377 . S
C3692 C3694 1.384 . S
C3693 C3692 1.377 . S
C3693 C3699 1.390 . S
C3694 H3685 0.930 . S
C3694 C3692 1.384 . S
C3694 C3695 1.372 . S
C3695 C3694 1.372 . S
C3695 C3696 1.400 . S
C3695 C3700 1.490 . S
C3696 H3686 0.930 . S
C3696 C3695 1.400 . S
C3696 C3699 1.386 . S
H3697 C3713 0.930 . S
H3698 C3714 0.931 . S
C3699 H3687 0.929 . S
C3699 C3693 1.390 . S
C3699 C3696 1.386 . S
C3700 C3695 1.490 . S
C3700 C3702 1.395 . S
C3700 C3703 1.403 . S
H3701 C3707 0.930 . S
C3702 H3688 0.930 . S
C3702 C3700 1.395 . S
C3702 C3705 1.403 . S
C3703 C3700 1.403 . S
C3703 C3704 1.524 . S
C3703 C3707 1.400 . S
C3704 H3689 0.960 . S
C3704 H3690 0.960 . S
C3704 H3691 0.960 . S
C3704 C3703 1.524 . S
C3705 C3702 1.403 . S
C3705 C3706 1.392 . S
C3705 C3709 1.495 . S
C3706 C3705 1.392 . S
C3706 C3707 1.385 . S
C3706 C3708 1.478 . S
C3707 H3701 0.930 . S
C3707 C3703 1.400 . S
C3707 C3706 1.385 . S
C3708 C3706 1.478 . S
C3708 C3710 1.381 . S
C3708 C3714 1.383 . S
C3709 C3705 1.495 . S
C3709 H3715 0.959 . S
C3709 H3716 0.961 . S
C3709 H3717 0.960 . S
C3710 C3708 1.381 . S
C3710 C3711 1.394 . S
C3710 H3718 0.930 . S
C3711 C3710 1.394 . S
C3711 C3712 1.383 . S
C3711 H3719 0.929 . S
C3712 C3711 1.383 . S
C3712 C3713 1.377 . S
C3713 H3697 0.930 . S
C3713 C3712 1.377 . S
C3713 C3714 1.379 . S
C3714 H3698 0.931 . S
C3714 C3708 1.383 . S
C3714 C3713 1.379 . S
H3715 C3709 0.959 . S
H3716 C3709 0.961 . S
H3717 C3709 0.960 . S
H3718 C3710 0.930 . S
H3719 C3711 0.929 . S
H3720 C3728 0.929 . S
H3721 C3730 0.930 . S
H3722 C3732 0.930 . S
H3723 C3735 0.929 . S
H3724 C3738 0.930 . S
H3725 C3740 0.960 . S
H3726 C3740 0.960 . S
H3727 C3740 0.960 . S
C3728 H3720 0.929 . S
C3728 C3729 1.377 . S
C3728 C3730 1.384 . S
C3729 C3728 1.377 . S
C3729 C3735 1.390 . S
C3730 H3721 0.930 . S
C3730 C3728 1.384 . S
C3730 C3731 1.372 . S
C3731 C3730 1.372 . S
C3731 C3732 1.400 . S
C3731 C3736 1.490 . S
C3732 H3722 0.930 . S
C3732 C3731 1.400 . S
C3732 C3735 1.386 . S
H3733 C3749 0.930 . S
H3734 C3750 0.931 . S
C3735 H3723 0.929 . S
C3735 C3729 1.390 . S
C3735 C3732 1.386 . S
C3736 C3731 1.490 . S
C3736 C3738 1.395 . S
C3736 C3739 1.403 . S
H3737 C3743 0.930 . S
C3738 H3724 0.930 . S
C3738 C3736 1.395 . S
C3738 C3741 1.403 . S
C3739 C3736 1.403 . S
C3739 C3740 1.524 . S
C3739 C3743 1.400 . S
C3740 H3725 0.960 . S
C3740 H3726 0.960 . S
C3740 H3727 0.960 . S
C3740 C3739 1.524 . S
C3741 C3738 1.403 . S
C3741 C3742 1.392 . S
C3741 C3745 1.495 . S
C3742 C3741 1.392 . S
C3742 C3743 1.385 . S
C3742 C3744 1.478 . S
C3743 H3737 0.930 . S
C3743 C3739 1.400 . S
C3743 C3742 1.385 . S
C3744 C3742 1.478 . S
C3744 C3746 1.381 . S
C3744 C3750 1.383 . S
C3745 C3741 1.495 . S
C3745 H3751 0.959 . S
C3745 H3752 0.961 . S
C3745 H3753 0.960 . S
C3746 C3744 1.381 . S
C3746 C3747 1.394 . S
C3746 H3754 0.930 . S
C3747 C3746 1.394 . S
C3747 C3748 1.383 . S
C3747 H3755 0.929 . S
C3748 C3747 1.383 . S
C3748 C3749 1.377 . S
C3749 H3733 0.930 . S
C3749 C3748 1.377 . S
C3749 C3750 1.379 . S
C3750 H3734 0.931 . S
C3750 C3744 1.383 . S
C3750 C3749 1.379 . S
H3751 C3745 0.959 . S
H3752 C3745 0.961 . S
H3753 C3745 0.960 . S
H3754 C3746 0.930 . S
H3755 C3747 0.929 . S
H3756 C3764 0.929 . S
H3757 C3766 0.930 . S
H3758 C3768 0.930 . S
H3759 C3771 0.929 . S
H3760 C3774 0.930 . S
H3761 C3776 0.960 . S
H3762 C3776 0.960 . S
H3763 C3776 0.960 . S
C3764 H3756 0.929 . S
C3764 C3765 1.377 . S
C3764 C3766 1.384 . S
C3765 C3764 1.377 . S
C3765 C3771 1.390 . S
C3766 H3757 0.930 . S
C3766 C3764 1.384 . S
C3766 C3767 1.372 . S
C3767 C3766 1.372 . S
C3767 C3768 1.400 . S
C3767 C3772 1.490 . S
C3768 H3758 0.930 . S
C3768 C3767 1.400 . S
C3768 C3771 1.386 . S
H3769 C3785 0.930 . S
H3770 C3786 0.931 1_545 S
C3771 H3759 0.929 . S
C3771 C3765 1.390 . S
C3771 C3768 1.386 . S
C3772 C3767 1.490 . S
C3772 C3774 1.395 . S
C3772 C3775 1.403 . S
H3773 C3779 0.930 . S
C3774 H3760 0.930 . S
C3774 C3772 1.395 . S
C3774 C3777 1.403 . S
C3775 C3772 1.403 . S
C3775 C3776 1.524 . S
C3775 C3779 1.400 . S
C3776 H3761 0.960 . S
C3776 H3762 0.960 . S
C3776 H3763 0.960 . S
C3776 C3775 1.524 . S
C3777 C3774 1.403 . S
C3777 C3778 1.392 . S
C3777 C3781 1.495 . S
C3778 C3777 1.392 . S
C3778 C3779 1.385 . S
C3778 C3780 1.478 . S
C3779 H3773 0.930 . S
C3779 C3775 1.400 . S
C3779 C3778 1.385 . S
C3780 C3778 1.478 . S
C3780 C3782 1.381 . S
C3780 C3786 1.383 . S
C3781 C3777 1.495 . S
C3781 H3787 0.959 . S
C3781 H3788 0.961 . S
C3781 H3789 0.960 . S
C3782 C3780 1.381 . S
C3782 C3783 1.394 . S
C3782 H3790 0.930 . S
C3783 C3782 1.394 . S
C3783 C3784 1.383 . S
C3783 H3791 0.929 . S
C3784 C3783 1.383 . S
C3784 C3785 1.377 1_565 S
C3785 H3769 0.930 . S
C3785 C3784 1.377 1_545 S
C3785 C3786 1.379 1_545 S
C3786 H3770 0.931 1_565 S
C3786 C3780 1.383 . S
C3786 C3785 1.379 1_565 S
H3787 C3781 0.959 . S
H3788 C3781 0.961 . S
H3789 C3781 0.960 . S
H3790 C3782 0.930 . S
H3791 C3783 0.929 . S
H3792 C3800 0.933 . S
H3793 C3802 0.930 . S
H3794 C3804 0.930 . S
H3795 C3807 0.929 . S
H3796 C3810 0.930 . S
H3797 C3812 0.960 . S
H3798 C3812 0.960 . S
H3799 C3812 0.960 . S
C3800 H3792 0.933 . S
C3800 C3801 1.377 1_565 S
C3800 C3802 1.381 1_565 S
C3801 C3800 1.377 1_545 S
C3801 C3807 1.390 . S
C3802 H3793 0.930 . S
C3802 C3800 1.381 1_545 S
C3802 C3803 1.372 . S
C3803 C3802 1.372 . S
C3803 C3804 1.400 . S
C3803 C3808 1.490 . S
C3804 H3794 0.930 . S
C3804 C3803 1.400 . S
C3804 C3807 1.386 . S
H3805 C3821 0.930 . S
H3806 C3822 0.931 . S
C3807 H3795 0.929 . S
C3807 C3801 1.390 . S
C3807 C3804 1.386 . S
C3808 C3803 1.490 . S
C3808 C3810 1.395 . S
C3808 C3811 1.403 . S
H3809 C3815 0.930 . S
C3810 H3796 0.930 . S
C3810 C3808 1.395 . S
C3810 C3813 1.403 . S
C3811 C3808 1.403 . S
C3811 C3812 1.524 . S
C3811 C3815 1.400 . S
C3812 H3797 0.960 . S
C3812 H3798 0.960 . S
C3812 H3799 0.960 . S
C3812 C3811 1.524 . S
C3813 C3810 1.403 . S
C3813 C3814 1.392 . S
C3813 C3817 1.495 . S
C3814 C3813 1.392 . S
C3814 C3815 1.385 . S
C3814 C3816 1.478 . S
C3815 H3809 0.930 . S
C3815 C3811 1.400 . S
C3815 C3814 1.385 . S
C3816 C3814 1.478 . S
C3816 C3818 1.381 . S
C3816 C3822 1.383 . S
C3817 C3813 1.495 . S
C3817 H3823 0.959 1_545 S
C3817 H3824 0.961 . S
C3817 H3825 0.960 . S
C3818 C3816 1.381 . S
C3818 C3819 1.394 . S
C3818 H3826 0.930 . S
C3819 C3818 1.394 . S
C3819 C3820 1.383 . S
C3819 H3827 0.929 . S
C3820 C3819 1.383 . S
C3820 C3821 1.377 . S
C3821 H3805 0.930 . S
C3821 C3820 1.377 . S
C3821 C3822 1.379 . S
C3822 H3806 0.931 . S
C3822 C3816 1.383 . S
C3822 C3821 1.379 . S
H3823 C3817 0.959 1_565 S
H3824 C3817 0.961 . S
H3825 C3817 0.960 . S
H3826 C3818 0.930 . S
H3827 C3819 0.929 . S
H3828 C3836 0.929 . S
H3829 C3838 0.930 . S
H3830 C3840 0.930 . S
H3831 C3843 0.929 . S
H3832 C3846 0.930 . S
H3833 C3848 0.960 . S
H3834 C3848 0.960 . S
H3835 C3848 0.960 . S
C3836 H3828 0.929 . S
C3836 C3837 1.377 . S
C3836 C3838 1.384 . S
C3837 C3836 1.377 . S
C3837 C3843 1.390 . S
C3838 H3829 0.930 . S
C3838 C3836 1.384 . S
C3838 C3839 1.372 . S
C3839 C3838 1.372 . S
C3839 C3840 1.400 . S
C3839 C3844 1.490 . S
C3840 H3830 0.930 . S
C3840 C3839 1.400 . S
C3840 C3843 1.386 . S
H3841 C3857 0.930 . S
H3842 C3858 0.931 . S
C3843 H3831 0.929 . S
C3843 C3837 1.390 . S
C3843 C3840 1.386 . S
C3844 C3839 1.490 . S
C3844 C3846 1.395 . S
C3844 C3847 1.403 . S
H3845 C3851 0.930 . S
C3846 H3832 0.930 . S
C3846 C3844 1.395 . S
C3846 C3849 1.403 . S
C3847 C3844 1.403 . S
C3847 C3848 1.524 . S
C3847 C3851 1.400 . S
C3848 H3833 0.960 . S
C3848 H3834 0.960 . S
C3848 H3835 0.960 . S
C3848 C3847 1.524 . S
C3849 C3846 1.403 . S
C3849 C3850 1.392 . S
C3849 C3853 1.495 . S
C3850 C3849 1.392 . S
C3850 C3851 1.385 . S
C3850 C3852 1.478 . S
C3851 H3845 0.930 . S
C3851 C3847 1.400 . S
C3851 C3850 1.385 . S
C3852 C3850 1.478 . S
C3852 C3854 1.381 . S
C3852 C3858 1.383 . S
C3853 C3849 1.495 . S
C3853 H3859 0.959 . S
C3853 H3860 0.961 . S
C3853 H3861 0.960 . S
C3854 C3852 1.381 . S
C3854 C3855 1.394 . S
C3854 H3862 0.930 . S
C3855 C3854 1.394 . S
C3855 C3856 1.383 . S
C3855 H3863 0.929 . S
C3856 C3855 1.383 . S
C3856 C3857 1.377 . S
C3857 H3841 0.930 . S
C3857 C3856 1.377 . S
C3857 C3858 1.379 . S
C3858 H3842 0.931 . S
C3858 C3852 1.383 . S
C3858 C3857 1.379 . S
H3859 C3853 0.959 . S
H3860 C3853 0.961 . S
H3861 C3853 0.960 . S
H3862 C3854 0.930 . S
H3863 C3855 0.929 . S
H3864 C3872 0.929 . S
H3865 C3874 0.930 . S
H3866 C3876 0.930 . S
H3867 C3879 0.929 . S
H3868 C3882 0.930 . S
H3869 C3884 0.960 . S
H3870 C3884 0.960 . S
H3871 C3884 0.960 . S
C3872 H3864 0.929 . S
C3872 C3873 1.377 . S
C3872 C3874 1.384 . S
C3873 C3872 1.377 . S
C3873 C3879 1.390 . S
C3874 H3865 0.930 . S
C3874 C3872 1.384 . S
C3874 C3875 1.372 . S
C3875 C3874 1.372 . S
C3875 C3876 1.400 . S
C3875 C3880 1.490 . S
C3876 H3866 0.930 . S
C3876 C3875 1.400 . S
C3876 C3879 1.386 . S
H3877 C3893 0.930 . S
H3878 C3894 0.931 . S
C3879 H3867 0.929 . S
C3879 C3873 1.390 . S
C3879 C3876 1.386 . S
C3880 C3875 1.490 . S
C3880 C3882 1.395 . S
C3880 C3883 1.403 . S
H3881 C3887 0.930 . S
C3882 H3868 0.930 . S
C3882 C3880 1.395 . S
C3882 C3885 1.403 . S
C3883 C3880 1.403 . S
C3883 C3884 1.524 . S
C3883 C3887 1.400 . S
C3884 H3869 0.960 . S
C3884 H3870 0.960 . S
C3884 H3871 0.960 . S
C3884 C3883 1.524 . S
C3885 C3882 1.403 . S
C3885 C3886 1.392 . S
C3885 C3889 1.495 . S
C3886 C3885 1.392 . S
C3886 C3887 1.385 . S
C3886 C3888 1.478 . S
C3887 H3881 0.930 . S
C3887 C3883 1.400 . S
C3887 C3886 1.385 . S
C3888 C3886 1.478 . S
C3888 C3890 1.381 . S
C3888 C3894 1.383 . S
C3889 C3885 1.495 . S
C3889 H3895 0.959 . S
C3889 H3896 0.961 . S
C3889 H3897 0.960 . S
C3890 C3888 1.381 . S
C3890 C3891 1.394 . S
C3890 H3898 0.930 . S
C3891 C3890 1.394 . S
C3891 C3892 1.383 . S
C3891 H3899 0.929 . S
C3892 C3891 1.383 . S
C3892 C3893 1.377 . S
C3893 H3877 0.930 . S
C3893 C3892 1.377 . S
C3893 C3894 1.379 . S
C3894 H3878 0.931 . S
C3894 C3888 1.383 . S
C3894 C3893 1.379 . S
H3895 C3889 0.959 . S
H3896 C3889 0.961 . S
H3897 C3889 0.960 . S
H3898 C3890 0.930 . S
H3899 C3891 0.929 . S
H3900 C3908 0.929 . S
H3901 C3910 0.930 . S
H3902 C3912 0.930 . S
H3903 C3915 0.929 . S
H3904 C3918 0.930 . S
H3905 C3920 0.960 . S
H3906 C3920 0.960 . S
H3907 C3920 0.960 . S
C3908 H3900 0.929 . S
C3908 C3909 1.377 . S
C3908 C3910 1.384 . S
C3909 C3908 1.377 . S
C3909 C3915 1.390 . S
C3910 H3901 0.930 . S
C3910 C3908 1.384 . S
C3910 C3911 1.372 . S
C3911 C3910 1.372 . S
C3911 C3912 1.400 . S
C3911 C3916 1.490 . S
C3912 H3902 0.930 . S
C3912 C3911 1.400 . S
C3912 C3915 1.386 . S
H3913 C3929 0.930 1_565 S
H3914 C3930 0.931 . S
C3915 H3903 0.929 . S
C3915 C3909 1.390 . S
C3915 C3912 1.386 . S
C3916 C3911 1.490 . S
C3916 C3918 1.395 . S
C3916 C3919 1.403 . S
H3917 C3923 0.930 . S
C3918 H3904 0.930 . S
C3918 C3916 1.395 . S
C3918 C3921 1.403 . S
C3919 C3916 1.403 . S
C3919 C3920 1.524 . S
C3919 C3923 1.400 . S
C3920 H3905 0.960 . S
C3920 H3906 0.960 . S
C3920 H3907 0.960 . S
C3920 C3919 1.524 . S
C3921 C3918 1.403 . S
C3921 C3922 1.392 . S
C3921 C3925 1.495 . S
C3922 C3921 1.392 . S
C3922 C3923 1.385 . S
C3922 C3924 1.478 . S
C3923 H3917 0.930 . S
C3923 C3919 1.400 . S
C3923 C3922 1.385 . S
C3924 C3922 1.478 . S
C3924 C3926 1.381 . S
C3924 C3930 1.383 . S
C3925 C3921 1.495 . S
C3925 H3931 0.959 . S
C3925 H3932 0.961 . S
C3925 H3933 0.960 . S
C3926 C3924 1.381 . S
C3926 C3927 1.394 . S
C3926 H3934 0.930 . S
C3927 C3926 1.394 . S
C3927 C3928 1.383 . S
C3927 H3935 0.929 . S
C3928 C3927 1.383 . S
C3928 C3929 1.377 . S
C3929 H3913 0.930 1_545 S
C3929 C3928 1.377 . S
C3929 C3930 1.379 . S
C3930 H3914 0.931 . S
C3930 C3924 1.383 . S
C3930 C3929 1.379 . S
H3931 C3925 0.959 . S
H3932 C3925 0.961 . S
H3933 C3925 0.960 . S
H3934 C3926 0.930 . S
H3935 C3927 0.929 . S
C1065 C17 1.463 . S
C1084 C83 1.459 . S
C1101 C50 1.465 . S
C1120 C116 1.448 . S
C1137 C149 1.466 . S
C1156 C215 1.462 . S
C1173 C248 1.461 . S
C1192 C182 1.469 . S
C1209 C347 1.466 . S
C1228 C281 1.443 . S
C1245 C380 1.465 . S
C1264 C314 1.448 . S
C1281 C413 1.459 . S
C1300 C479 1.451 . S
C1317 C512 1.466 . S
C1336 C446 1.467 . S
C1353 C611 1.466 . S
C1372 C545 1.447 . S
C1389 C578 1.459 . S
C1408 C644 1.477 . S
C1425 C677 1.462 . S
C1444 C743 1.471 . S
C1461 C776 1.466 . S
C1480 C710 1.477 . S
C1497 C875 1.460 . S
C1516 C809 1.474 . S
C1533 C842 1.466 . S
C1552 C908 1.444 . S
C1569 C1007 1.460 . S
C1588 C941 1.446 . S
C1605 C1040 1.465 . S
C1624 C974 1.454 . S
C1641 C160 1.055 . S
C1660 C28 1.039 . S
C1677 C61 1.055 . S
C1696 C985 1.035 . S
C1713 C94 1.061 . S
C1732 C490 1.039 . S
C1749 C127 1.054 . S
C1768 C787 1.046 . S
C1785 C193 1.055 . S
C1804 C853 1.039 . S
C1821 C358 1.061 . S
C1840 C226 1.083 . S
C1857 C655 1.064 . S
C1876 C259 1.056 . S
C1893 C292 1.057 . S
C1912 C424 1.073 . S
C1929 C721 1.055 . S
C1948 C325 1.057 . S
C1965 C1051 1.065 . S
C1984 C391 1.077 . S
C2001 C589 1.057 . S
C2020 C457 1.071 . S
C2037 C919 1.056 . S
C2056 C523 1.066 . S
C2073 C688 1.064 . S
C2092 C556 1.082 . S
C2109 C622 1.055 . S
C2128 C1018 1.039 . S
C2145 C754 1.063 . S
C2164 C886 1.083 . S
C2181 C952 1.060 . S
C2200 C820 1.080 . S
C2217 N5 1.070 . S
C2236 N14 1.080 . S
C2253 N47 1.065 . S
C2272 N38 1.070 . S
C2289 N80 1.066 . S
C2308 N71 1.074 . S
C2325 N113 1.069 . S
C2344 N104 1.059 . S
C2361 N137 1.068 . S
C2380 N146 1.059 . S
C2397 N179 1.066 . S
C2416 N170 1.057 . S
C2433 N203 1.067 . S
C2452 N212 1.055 . S
C2469 N236 1.072 . S
C2488 N245 1.076 . S
C2505 N269 1.068 . S
C2524 N278 1.073 . S
C2541 N302 1.071 . S
C2560 N311 1.058 . S
C2577 N335 1.072 . S
C2596 N344 1.077 . S
C2613 N377 1.067 . S
C2632 N368 1.076 . S
C2649 N401 1.069 . S
C2668 N410 1.072 . S
C2685 N434 1.069 . S
C2704 N443 1.074 . S
C2721 N467 1.069 . S
C2740 N476 1.054 . S
C2757 N500 1.071 . S
C2776 N509 1.079 . S
C2793 N542 1.071 . S
C2812 N533 1.067 . S
C2829 N566 1.068 . S
C2848 N575 1.057 . S
C2865 N599 1.071 . S
C2884 N608 1.056 . S
C2901 N632 1.072 . S
C2920 N641 1.062 . S
C2937 N665 1.072 . S
C2956 N674 1.080 . S
C2973 N698 1.070 . S
C2992 N707 1.059 . S
C3009 N740 1.070 . S
C3028 N731 1.079 . S
C3045 N764 1.069 . S
C3064 N773 1.054 . S
C3081 N806 1.071 . S
C3100 N797 1.072 . S
C3117 N830 1.070 . S
C3136 N839 1.080 . S
C3153 N863 1.068 . S
C3172 N872 1.070 . S
C3189 N896 1.068 . S
C3208 N905 1.056 . S
C3225 N938 1.066 . S
C3244 N929 1.071 . S
C3261 N971 1.071 . S
C3280 N962 1.077 . S
C3297 N1004 1.065 . S
C3316 N995 1.064 . S
C3333 N1037 1.071 . S
C3352 N1028 1.077 . S
C3369 C833 1.466 . S
C3388 C8 1.477 . S
C3405 C41 1.469 1_565 S
C3424 C800 1.464 . S
C3441 C899 1.470 . S
C3460 C74 1.456 1_565 S
C3477 C107 1.465 . S
C3496 C866 1.478 . S
C3513 C965 1.466 . S
C3532 C140 1.466 . S
C3549 C173 1.465 1_545 S
C3568 C932 1.453 . S
C3585 C1031 1.468 . S
C3604 C206 1.452 1_545 S
C3621 C998 1.465 . S
C3640 C239 1.457 . S
C3657 C272 1.467 . S
C3676 C569 1.471 1_565 S
C3693 C305 1.465 . S
C3712 C536 1.480 . S
C3729 C635 1.466 . S
C3748 C338 1.473 . S
C3765 C371 1.471 . S
C3784 C602 1.450 1_565 S
C3801 C701 1.465 1_545 S
C3820 C404 1.458 . S
C3837 C668 1.471 . S
C3856 C437 1.466 . S
C3873 C470 1.468 . S
C3892 C767 1.452 . S
C3909 C503 1.465 . S
C3928 C734 1.459 1_545 S
