# Generated by pormake.
# Topology afw, (4)-cn, num edge types: 1
# Building blocks:
#     Node 0, Type 0, BuildingBlock: AZAVOO_clean_sbu_0, # of connection points: 4
#     Node 1, Type 0, BuildingBlock: AZAVOO_clean_sbu_0, # of connection points: 4
#     Node 2, Type 0, BuildingBlock: AZAVOO_clean_sbu_0, # of connection points: 4
#     Node 3, Type 0, BuildingBlock: AZAVOO_clean_sbu_0, # of connection points: 4
#     Node 4, Type 0, BuildingBlock: AZAVOO_clean_sbu_0, # of connection points: 4
#     Node 5, Type 0, BuildingBlock: AZAVOO_clean_sbu_0, # of connection points: 4
#     Node 6, Type 0, BuildingBlock: AZAVOO_clean_sbu_0, # of connection points: 4
#     Node 7, Type 0, BuildingBlock: AZAVOO_clean_sbu_0, # of connection points: 4
#     Node 8, Type 0, BuildingBlock: AZAVOO_clean_sbu_0, # of connection points: 4
#     Edge 9, Type (0, 0), BuildingBlock: ZUJKAS_clean_linker_0, # of connection points: 2
#     Edge 10, Type (0, 0), BuildingBlock: ZUJKAS_clean_linker_0, # of connection points: 2
#     Edge 11, Type (0, 0), BuildingBlock: ZUJKAS_clean_linker_0, # of connection points: 2
#     Edge 12, Type (0, 0), BuildingBlock: ZUJKAS_clean_linker_0, # of connection points: 2
#     Edge 13, Type (0, 0), BuildingBlock: ZUJKAS_clean_linker_0, # of connection points: 2
#     Edge 14, Type (0, 0), BuildingBlock: ZUJKAS_clean_linker_0, # of connection points: 2
#     Edge 15, Type (0, 0), BuildingBlock: ZUJKAS_clean_linker_0, # of connection points: 2
#     Edge 16, Type (0, 0), BuildingBlock: ZUJKAS_clean_linker_0, # of connection points: 2
#     Edge 17, Type (0, 0), BuildingBlock: ZUJKAS_clean_linker_0, # of connection points: 2
#     Edge 18, Type (0, 0), BuildingBlock: ZUJKAS_clean_linker_0, # of connection points: 2
#     Edge 19, Type (0, 0), BuildingBlock: ZUJKAS_clean_linker_0, # of connection points: 2
#     Edge 20, Type (0, 0), BuildingBlock: ZUJKAS_clean_linker_0, # of connection points: 2
#     Edge 21, Type (0, 0), BuildingBlock: ZUJKAS_clean_linker_0, # of connection points: 2
#     Edge 22, Type (0, 0), BuildingBlock: ZUJKAS_clean_linker_0, # of connection points: 2
#     Edge 23, Type (0, 0), BuildingBlock: ZUJKAS_clean_linker_0, # of connection points: 2
#     Edge 24, Type (0, 0), BuildingBlock: ZUJKAS_clean_linker_0, # of connection points: 2
#     Edge 25, Type (0, 0), BuildingBlock: ZUJKAS_clean_linker_0, # of connection points: 2
#     Edge 26, Type (0, 0), BuildingBlock: ZUJKAS_clean_linker_0, # of connection points: 2
# Relax obj value: 0.307
# Max RMSD: 0.278
# Mean RMSD: 0.259
data_MOF--net-afw--node1-AZAVOO_clean_sbu_0--edge1-ZUJKAS_clean_linker_0
_symmetry_space_group_name_H-M    P1
_symmetry_Int_Tables_number       1
_symmetry_cell_setting            triclinic
loop_
_symmetry_equiv_pos_as_xyz
'x, y, z'
_cell_length_a     51.548677
_cell_length_b     49.220995
_cell_length_c     47.094367
_cell_angle_alpha  90.58761
_cell_angle_beta   90.372992
_cell_angle_gamma 119.90416
loop_
_atom_site_label
_atom_site_type_symbol
_atom_site_fract_x
_atom_site_fract_y
_atom_site_fract_z
_atom_type_partial_charge
Mg0 Mg 0.03522 0.27033 0.0295 0.0
O1 O 0.99337 0.22171 0.03072 0.0
O2 O 0.95292 0.22701 0.02738 0.0
Mg3 Mg 0.96907 0.27945 0.02475 0.0
C4 C 0.96501 0.20994 0.02964 0.0
C5 C 0.09061 0.26297 0.01489 0.0
O6 O 0.10279 0.29337 0.01156 0.0
O7 O 0.02859 0.27334 0.98207 0.0
O8 O 0.98971 0.28161 0.9811 0.0
O9 O 0.03437 0.27545 0.07661 0.0
O10 O 0.01148 0.29058 0.04616 0.0
C11 C 0.01016 0.27878 0.96852 0.0
C12 C 0.01723 0.28728 0.07212 0.0
O13 O 0.06331 0.24719 0.02192 0.0
Mg14 Mg 0.7961 0.81163 -0.00301 0.0
O15 O 0.80443 0.86045 0.00919 0.0
O16 O 0.76184 0.86147 0.00472 0.0
Mg17 Mg 0.72585 0.81272 0.98912 0.0
C18 C 0.78972 0.87492 0.01083 0.0
C19 C 0.86375 0.84874 0.0047 0.0
O20 O 0.85812 0.86454 0.98569 0.0
O21 O 0.77219 0.79137 0.03861 0.0
O22 O 0.72878 0.79006 0.03052 0.0
O23 O 0.80512 0.8252 0.95151 0.0
O24 O 0.76041 0.80426 0.97074 0.0
C25 C 0.74569 0.784 0.04599 0.0
C26 C 0.7769 0.81587 0.9488 0.0
O27 O 0.84193 0.8245 0.01524 0.0
Mg28 Mg 0.24218 0.02323 0.01384 0.0
O29 O 0.23612 0.0658 0.00938 0.0
O30 O 0.28002 0.10824 0.00064 0.0
Mg31 Mg 0.31478 0.09216 -0.00048 0.0
C32 C 0.25187 0.09504 0.00462 0.0
C33 C 0.17761 0.97173 0.02976 0.0
O34 O 0.19267 0.96819 0.05062 0.0
O35 O 0.24703 0.02064 0.96603 0.0
O36 O 0.29247 0.06217 0.95947 0.0
O37 O 0.25296 0.03419 0.06007 0.0
O38 O 0.28652 0.05147 0.026 0.0
C39 C 0.26887 0.03796 0.94999 0.0
C40 C 0.28065 0.0507 0.05256 0.0
O41 O 0.19172 0.99211 0.01101 0.0
Mg42 Mg 0.54809 0.50073 0.27557 0.0
O43 O 0.59734 0.51701 0.28406 0.0
O44 O 0.62414 0.56925 0.28638 0.0
Mg45 Mg 0.59039 0.58647 0.28172 0.0
C46 C 0.62228 0.5424 0.28707 0.0
C47 C 0.51168 0.42717 0.28339 0.0
O48 O 0.48921 0.4305 0.27459 0.0
O49 O 0.54301 0.51038 0.32197 0.0
O50 O 0.56863 0.56277 0.3235 0.0
O51 O 0.55809 0.50642 0.22919 0.0
O52 O 0.5601 0.54368 0.25733 0.0
C53 C 0.55281 0.53638 0.33544 0.0
C54 C 0.56521 0.53545 0.23293 0.0
O55 O 0.53759 0.45118 0.28575 0.0
Mg56 Mg 0.5273 0.0916 0.29626 0.0
O57 O 0.50963 0.12478 0.30763 0.0
O58 O 0.46059 0.10065 0.29791 0.0
Mg59 Mg 0.44625 0.05036 0.28399 0.0
C60 C 0.48489 0.12479 0.30615 0.0
C61 C 0.59434 0.13435 0.3007 0.0
O62 O 0.58973 0.12147 0.27524 0.0
O63 O 0.50879 0.06492 0.3373 0.0
O64 O 0.45972 0.04035 0.32754 0.0
O65 O 0.53205 0.1092 0.25233 0.0
O66 O 0.49154 0.06726 0.26793 0.0
C67 C 0.48168 0.04632 0.34418 0.0
C68 C 0.50442 0.08769 0.24842 0.0
O69 O 0.57209 0.12594 0.31692 0.0
Mg70 Mg 0.92432 0.48022 0.3088 0.0
O71 O 0.88625 0.43078 0.31938 0.0
O72 O 0.90599 0.40093 0.33106 0.0
Mg73 Mg 0.95664 0.43137 0.32875 0.0
C74 C 0.88346 0.40466 0.32707 0.0
C75 C 0.86835 0.48492 0.2935 0.0
O76 O 0.8652 0.46231 0.27622 0.0
O77 O 0.93538 0.49155 0.35589 0.0
O78 O 0.95444 0.46057 0.36579 0.0
O79 O 0.92308 0.46455 0.26399 0.0
O80 O 0.95147 0.46157 0.29777 0.0
C81 C 0.94672 0.48052 0.37327 0.0
C82 C 0.94138 0.45522 0.27204 0.0
O83 O 0.89102 0.4978 0.31005 0.0
Mg84 Mg 0.39228 0.90947 0.68482 0.0
O85 O 0.34617 0.8656 0.68048 0.0
O86 O 0.31207 0.87975 0.67126 0.0
Mg87 Mg 0.33701 0.93337 0.66896 0.0
C88 C 0.31914 0.85872 0.67583 0.0
C89 C 0.43832 0.88826 0.669 0.0
O90 O 0.45177 0.91643 0.65813 0.0
O91 O 0.39493 0.91603 0.63716 0.0
O92 O 0.36256 0.93285 0.62909 0.0
O93 O 0.38384 0.91209 0.73075 0.0
O94 O 0.3724 0.93553 0.6971 0.0
C95 C 0.38214 0.92607 0.62041 0.0
C96 C 0.37135 0.92826 0.72342 0.0
O97 O 0.41363 0.87874 0.68165 0.0
Mg98 Mg 0.11163 0.47055 0.65043 0.0
O99 O 0.12254 0.51699 0.67156 0.0
O100 O 0.08055 0.51884 0.67772 0.0
Mg101 Mg 0.04199 0.47084 0.66323 0.0
C102 C 0.10899 0.53147 0.67942 0.0
C103 C 0.17049 0.46654 0.64966 0.0
O104 O 0.15457 0.44354 0.63157 0.0
O105 O 0.09534 0.44512 0.69179 0.0
O106 O 0.05256 0.44525 0.69852 0.0
O107 O 0.11471 0.4929 0.60919 0.0
O108 O 0.07261 0.46663 0.63321 0.0
C109 C 0.07196 0.43772 0.70622 0.0
C110 C 0.08672 0.48442 0.61224 0.0
O111 O 0.15895 0.48162 0.66072 0.0
Mg112 Mg 0.54992 0.61475 0.69119 0.0
O113 O 0.54539 0.65654 0.67685 0.0
O114 O 0.58968 0.69453 0.66205 0.0
Mg115 Mg 0.62245 0.67609 0.66609 0.0
C116 C 0.56197 0.68391 0.66702 0.0
C117 C 0.48348 0.59375 0.70381 0.0
O118 O 0.49687 0.61994 0.71884 0.0
O119 O 0.55122 0.60137 0.64548 0.0
O120 O 0.59619 0.63858 0.63134 0.0
O121 O 0.56201 0.63589 0.73429 0.0
O122 O 0.59498 0.64512 0.70053 0.0
C123 C 0.57123 0.61354 0.62657 0.0
C124 C 0.58932 0.65163 0.72553 0.0
O125 O 0.49928 0.5847 0.69058 0.0
H126 H 0.27718 0.15836 -0.0039 0.0
H127 H 0.25217 0.1896 -0.00296 0.0
H128 H 0.16788 0.10625 0.0127 0.0
H129 H 0.19248 0.0749 0.01207 0.0
H130 H 0.20297 0.183 0.96311 0.0
H131 H 0.17602 0.16681 0.07773 0.0
H132 H 0.20329 0.15863 0.06198 0.0
H133 H 0.16399 0.13083 0.05827 0.0
C134 C 0.25332 0.14665 -0.00025 0.0
C135 C 0.23691 0.11412 0.00423 0.0
C136 C 0.23909 0.16455 0.00025 0.0
C137 C 0.20831 0.15027 0.0054 0.0
C138 C 0.19177 0.11778 0.00925 0.0
H139 H 0.07185 0.20066 0.01997 0.0
H140 H 0.10191 0.17507 0.01631 0.0
C141 C 0.20591 0.09989 0.00875 0.0
C142 C 0.19322 0.16913 0.00671 0.0
H143 H 0.15191 0.18829 0.05021 0.0
C144 C 0.19203 0.18447 0.98219 0.0
C145 C 0.17908 0.17099 0.03168 0.0
C146 C 0.18084 0.1562 0.05901 0.0
C147 C 0.17603 0.20068 0.9817 0.0
C148 C 0.1613 0.2019 0.00651 0.0
C149 C 0.16309 0.18714 0.03117 0.0
C150 C 0.14318 0.21761 0.00727 0.0
C151 C 0.17415 0.21544 0.95441 0.0
C152 C 0.15647 0.25005 0.00341 0.0
C153 C 0.13932 0.2648 0.00545 0.0
C154 C 0.10864 0.24735 0.01157 0.0
C155 C 0.09541 0.21481 0.01523 0.0
C156 C 0.11255 0.20013 0.01317 0.0
H157 H 0.18092 0.20645 0.93581 0.0
H158 H 0.15107 0.21101 0.95062 0.0
H159 H 0.18935 0.24117 0.95596 0.0
H160 H 0.1802 0.26404 -0.00065 0.0
H161 H 0.15022 0.28991 0.00263 0.0
H162 H 0.84949 0.91224 0.02281 0.0
H163 H 0.87701 0.9689 0.0305 0.0
H164 H 0.79479 0.9714 0.02333 0.0
H165 H 0.76698 0.91467 0.01519 0.0
H166 H 0.83955 0.01379 0.98881 0.0
H167 H 0.88275 0.02336 0.09874 0.0
H168 H 0.89084 -0.00064 0.07565 0.0
H169 H 0.85262 0.98723 0.08401 0.0
C170 C 0.83712 0.92469 0.02325 0.0
C171 C 0.80597 0.90882 0.0183 0.0
C172 C 0.85291 0.95711 0.02784 0.0
C173 C 0.8379 0.9743 0.02785 0.0
C174 C 0.80676 0.95851 0.02356 0.0
H175 H 0.90368 0.17584 0.02916 0.0
H176 H 0.87188 0.11886 0.02993 0.0
C177 C 0.79092 0.92607 0.01893 0.0
C178 C 0.855 0.00898 0.03003 0.0
H179 H 0.90504 0.07028 0.0717 0.0
C180 C 0.85361 0.02618 0.00707 0.0
C181 C 0.87342 0.02503 0.05381 0.0
C182 C 0.87485 0.00783 0.07958 0.0
C183 C 0.87084 0.059 0.00685 0.0
C184 C 0.88956 0.07504 0.03048 0.0
C185 C 0.89067 0.05788 0.05362 0.0
C186 C 0.90872 0.1096 0.0312 0.0
C187 C 0.86961 0.07615 0.98095 0.0
C188 C 0.93996 0.12327 0.03245 0.0
C189 C 0.95824 0.15584 0.03216 0.0
C190 C 0.94559 0.17539 0.03071 0.0
C191 C 0.91421 0.16155 0.03005 0.0
C192 C 0.89597 0.12897 0.03038 0.0
H193 H 0.85975 0.06018 0.96224 0.0
H194 H 0.85551 0.08684 0.98548 0.0
H195 H 0.89232 0.09524 0.97541 0.0
H196 H 0.95021 0.10869 0.0332 0.0
H197 H 0.98229 0.16564 0.0328 0.0
H198 H 0.88425 0.82057 0.04169 0.0
H199 H 0.93654 0.83458 0.05051 0.0
H200 H 0.96596 0.91117 -0.00764 0.0
H201 H 0.91421 0.89764 0.98349 0.0
H202 H 0.98705 0.86293 0.98454 0.0
H203 H 0.00561 0.91908 0.09187 0.0
H204 H 0.97164 0.88268 0.08427 0.0
H205 H 0.97781 0.9179 0.06753 0.0
C206 C 0.90189 0.84056 0.031 0.0
C207 C 0.89508 0.85794 0.01183 0.0
C208 C 0.93167 0.8485 0.03608 0.0
C209 C 0.95492 0.87387 0.02205 0.0
C210 C 0.94822 0.8915 0.00333 0.0
H211 H 0.14016 0.97562 0.9909 0.0
H212 H 0.08561 0.9472 0.99035 0.0
C213 C 0.91861 0.88372 -0.00166 0.0
C214 C 0.98635 0.88174 0.0258 0.0
H215 H 0.04747 0.92226 0.06909 0.0
C216 C 0.00024 0.87551 0.00317 0.0
C217 C 0.00324 0.89783 0.05025 0.0
C218 C 0.98904 0.90495 0.07497 0.0
C219 C 0.031 0.88603 0.0039 0.0
C220 C 0.04834 0.90388 0.02761 0.0
C221 C 0.03413 0.90871 0.05088 0.0
C222 C 0.08144 0.91995 0.02759 0.0
C223 C 0.0447 0.8783 0.9791 0.0
C224 C 0.09723 0.91457 0.0491 0.0
C225 C 0.12854 0.93103 0.04962 0.0
C226 C 0.14453 0.95328 0.02872 0.0
C227 C 0.12857 0.95851 0.00719 0.0
C228 C 0.09736 0.94212 0.00674 0.0
H229 H 0.02789 0.85659 0.96781 0.0
H230 H 0.05315 0.89774 0.96373 0.0
H231 H 0.0637 0.87525 0.98605 0.0
H232 H 0.08532 0.89774 0.06552 0.0
H233 H 0.14017 0.92653 0.06653 0.0
H234 H 0.86691 0.52956 0.32767 0.0
H235 H 0.82826 0.54466 0.32878 0.0
H236 H 0.77953 0.47752 0.26178 0.0
H237 H 0.81802 0.46243 0.26032 0.0
H238 H 0.78578 0.53801 0.25414 0.0
H239 H 0.74313 0.48945 0.36091 0.0
H240 H 0.78269 0.51626 0.3587 0.0
H241 H 0.76653 0.47895 0.34065 0.0
C242 C 0.84798 0.51803 0.31315 0.0
C243 C 0.84547 0.49469 0.29398 0.0
C244 C 0.8259 0.52661 0.3139 0.0
C245 C 0.80094 0.51195 0.29557 0.0
C246 C 0.79862 0.48905 0.27613 0.0
H247 H 0.62632 0.48964 0.29423 0.0
H248 H 0.67151 0.48565 0.29756 0.0
C249 C 0.82062 0.48042 0.27539 0.0
C250 C 0.77698 0.52015 0.29662 0.0
H251 H 0.72013 0.51429 0.33767 0.0
C252 C 0.77155 0.53311 0.27246 0.0
C253 C 0.7584 0.51343 0.32051 0.0
C254 C 0.7627 0.49854 0.34664 0.0
C255 C 0.74767 0.53912 0.27138 0.0
C256 C 0.72899 0.53226 0.29523 0.0
C257 C 0.7347 0.51975 0.31955 0.0
C258 C 0.70197 0.5355 0.29447 0.0
C259 C 0.74186 0.55163 0.2444 0.0
C260 C 0.7042 0.56498 0.29208 0.0
C261 C 0.67833 0.56741 0.29016 0.0
C262 C 0.64984 0.54036 0.2906 0.0
C263 C 0.64784 0.51096 0.29365 0.0
C264 C 0.67365 0.5086 0.29565 0.0
H265 H 0.75507 0.55043 0.22636 0.0
H266 H 0.71774 0.53829 0.23847 0.0
H267 H 0.74811 0.5765 0.24784 0.0
H268 H 0.72592 0.58605 0.29151 0.0
H269 H 0.68069 0.59041 0.28792 0.0
H270 H 0.53181 0.18096 0.32451 0.0
H271 H 0.53414 0.23173 0.32616 0.0
H272 H 0.44151 0.18773 0.2998 0.0
H273 H 0.43877 0.13674 0.29837 0.0
H274 H 0.52422 0.25804 0.27834 0.0
H275 H 0.44627 0.24679 0.36414 0.0
H276 H 0.46122 0.22065 0.36058 0.0
H277 H 0.43076 0.21558 0.33811 0.0
C278 C 0.51172 0.1819 0.31961 0.0
C279 C 0.48511 0.15471 0.31121 0.0
C280 C 0.51312 0.21098 0.32055 0.0
C281 C 0.48796 0.21347 0.31331 0.0
C282 C 0.46104 0.18627 0.30599 0.0
H283 H 0.46055 0.37015 0.27666 0.0
H284 H 0.45452 0.31823 0.28485 0.0
C285 C 0.45958 0.15713 0.30507 0.0
C286 C 0.49078 0.24479 0.31058 0.0
H287 H 0.46344 0.29126 0.3345 0.0
C288 C 0.51111 0.2654 0.29078 0.0
C289 C 0.4734 0.25416 0.32662 0.0
C290 C 0.45185 0.23328 0.34874 0.0
C291 C 0.51429 0.29502 0.28629 0.0
C292 C 0.49708 0.30453 0.30245 0.0
C293 C 0.47663 0.2839 0.32219 0.0
C294 C 0.50022 0.33592 0.2991 0.0
C295 C 0.53557 0.31559 0.26381 0.0
C296 C 0.52772 0.36301 0.30499 0.0
C297 C 0.53129 0.39262 0.30022 0.0
C298 C 0.50732 0.39574 0.28966 0.0
C299 C 0.47949 0.36856 0.28466 0.0
C300 C 0.47598 0.33889 0.28939 0.0
H301 H 0.54099 0.30187 0.24848 0.0
H302 H 0.52605 0.328 0.25187 0.0
H303 H 0.5568 0.33344 0.27413 0.0
H304 H 0.54654 0.36123 0.31303 0.0
H305 H 0.55295 0.41306 0.30457 0.0
H306 H 0.6436 0.16265 0.26755 0.0
H307 H 0.69244 0.20703 0.27979 0.0
H308 H 0.66278 0.20857 0.36493 0.0
H309 H 0.61315 0.16442 0.35252 0.0
H310 H 0.69151 0.26622 0.34354 0.0
H311 H 0.75976 0.21009 0.32525 0.0
H312 H 0.73732 0.20572 0.29447 0.0
H313 H 0.7195 0.18778 0.3273 0.0
C314 C 0.64746 0.17212 0.289 0.0
C315 C 0.6245 0.15989 0.30911 0.0
C316 C 0.67554 0.19742 0.29603 0.0
C317 C 0.68151 0.21071 0.32345 0.0
C318 C 0.65872 0.19848 0.3437 0.0
H319 H 0.86788 0.35236 0.35815 0.0
H320 H 0.81828 0.30619 0.36244 0.0
C321 C 0.63042 0.17325 0.3366 0.0
C322 C 0.71108 0.23847 0.33018 0.0
H323 H 0.78597 0.2666 0.32324 0.0
C324 C 0.71221 0.26621 0.33957 0.0
C325 C 0.73811 0.23833 0.3256 0.0
C326 C 0.73862 0.20875 0.31792 0.0
C327 C 0.73961 0.29421 0.34304 0.0
C328 C 0.76649 0.29465 0.33608 0.0
C329 C 0.76539 0.2665 0.32814 0.0
C330 C 0.79592 0.32403 0.33579 0.0
C331 C 0.73935 0.32295 0.35412 0.0
C332 C 0.79991 0.34959 0.31952 0.0
C333 C 0.82819 0.37625 0.31741 0.0
C334 C 0.85316 0.37751 0.33092 0.0
C335 C 0.8491 0.35201 0.34734 0.0
C336 C 0.82075 0.32562 0.34985 0.0
H337 H 0.71963 0.31643 0.36773 0.0
H338 H 0.75996 0.3385 0.36662 0.0
H339 H 0.73783 0.33627 0.33595 0.0
H340 H 0.78135 0.3486 0.30773 0.0
H341 H 0.83066 0.39539 0.30438 0.0
H342 H 0.41483 0.82784 0.68671 0.0
H343 H 0.43698 0.79412 0.68265 0.0
H344 H 0.51357 0.86805 0.64105 0.0
H345 H 0.49172 0.90209 0.64512 0.0
H346 H 0.4555 0.77548 0.63175 0.0
H347 H 0.54938 0.84295 0.70834 0.0
H348 H 0.5168 0.84759 0.70663 0.0
H349 H 0.54531 0.86512 0.6803 0.0
C350 C 0.43643 0.837 0.67675 0.0
C351 C 0.4516 0.86774 0.6664 0.0
C352 C 0.44899 0.81766 0.67439 0.0
C353 C 0.47702 0.82874 0.66184 0.0
C354 C 0.4921 0.85925 0.65118 0.0
H355 H 0.58942 0.74346 0.64592 0.0
H356 H 0.56862 0.77834 0.64164 0.0
C357 C 0.47952 0.87861 0.65345 0.0
C358 C 0.49038 0.80826 0.65995 0.0
H359 H 0.54811 0.7997 0.68501 0.0
C360 C 0.47577 0.78074 0.64333 0.0
C361 C 0.51689 0.81536 0.67499 0.0
C362 C 0.53299 0.84422 0.69377 0.0
C363 C 0.48703 0.76005 0.64131 0.0
C364 C 0.51321 0.7668 0.65684 0.0
C365 C 0.52806 0.7946 0.6731 0.0
C366 C 0.52502 0.74483 0.65748 0.0
C367 C 0.47097 0.73137 0.62233 0.0
C368 C 0.50738 0.7144 0.66779 0.0
C369 C 0.51913 0.69435 0.67018 0.0
C370 C 0.54891 0.70445 0.66259 0.0
C371 C 0.56642 0.73487 0.65195 0.0
C372 C 0.55458 0.75487 0.6495 0.0
H373 H 0.45735 0.73451 0.60569 0.0
H374 H 0.487 0.72576 0.61186 0.0
H375 H 0.45559 0.71104 0.63532 0.0
H376 H 0.48474 0.70639 0.6747 0.0
H377 H 0.50502 0.67117 0.67859 0.0
H378 H 0.25836 0.83455 0.6717 0.0
H379 H 0.21907 0.77996 0.67741 0.0
H380 H 0.28618 0.75302 0.68908 0.0
H381 H 0.32557 0.80739 0.68379 0.0
H382 H 0.20774 0.72696 0.64609 0.0
H383 H 0.23333 0.71569 0.75833 0.0
H384 H 0.24801 0.75315 0.74133 0.0
H385 H 0.26529 0.72957 0.73582 0.0
C386 C 0.2648 0.81703 0.67544 0.0
C387 C 0.29518 0.82545 0.67746 0.0
C388 C 0.2423 0.78586 0.67877 0.0
C389 C 0.24973 0.7626 0.68432 0.0
C390 C 0.27996 0.77076 0.68558 0.0
H391 H 0.16924 0.56482 0.68995 0.0
H392 H 0.20065 0.62162 0.69427 0.0
C393 C 0.30245 0.80186 0.6823 0.0
C394 C 0.22599 0.72956 0.68791 0.0
H395 H 0.20157 0.6678 0.7329 0.0
C396 C 0.20605 0.7141 0.66521 0.0
C397 C 0.22382 0.71294 0.71295 0.0
C398 C 0.24356 0.72875 0.73861 0.0
C399 C 0.18493 0.68202 0.66633 0.0
C400 C 0.18347 0.66516 0.69099 0.0
C401 C 0.20277 0.68084 0.71404 0.0
C402 C 0.16378 0.63076 0.69221 0.0
C403 C 0.16529 0.66609 0.64062 0.0
C404 C 0.13253 0.61706 0.69079 0.0
C405 C 0.1144 0.58448 0.68835 0.0
C406 C 0.12731 0.56514 0.68725 0.0
C407 C 0.15854 0.57897 0.69049 0.0
C408 C 0.17657 0.61146 0.693 0.0
H409 H 0.17289 0.68119 0.62161 0.0
H410 H 0.16491 0.64381 0.63554 0.0
H411 H 0.14203 0.66039 0.64519 0.0
H412 H 0.12224 0.63161 0.69063 0.0
H413 H 0.09044 0.57464 0.68599 0.0
H414 H 0.20334 0.44133 0.62831 0.0
H415 H 0.25563 0.45749 0.63936 0.0
H416 H 0.26063 0.52825 0.6975 0.0
H417 H 0.20851 0.51218 0.6869 0.0
H418 H 0.30527 0.51721 0.63155 0.0
H419 H 0.29479 0.48358 0.74466 0.0
H420 H 0.26296 0.46884 0.72072 0.0
H421 H 0.27843 0.50737 0.73643 0.0
C422 C 0.21549 0.46015 0.64364 0.0
C423 C 0.20175 0.47543 0.65677 0.0
C424 C 0.24533 0.46932 0.64991 0.0
C425 C 0.26179 0.4937 0.66957 0.0
C426 C 0.24811 0.50891 0.68275 0.0
H427 H 0.44337 0.60843 0.72678 0.0
H428 H 0.38926 0.58164 0.71844 0.0
C429 C 0.21836 0.49982 0.67649 0.0
C430 C 0.29379 0.50461 0.67518 0.0
H431 H 0.34431 0.51803 0.72835 0.0
C432 C 0.31382 0.51703 0.65261 0.0
C433 C 0.30477 0.50438 0.70272 0.0
C434 C 0.2841 0.49006 0.72748 0.0
C435 C 0.34476 0.53036 0.65706 0.0
C436 C 0.35579 0.53075 0.68473 0.0
C437 C 0.33571 0.51773 0.70719 0.0
C438 C 0.38822 0.54565 0.69091 0.0
C439 C 0.36546 0.54498 0.63235 0.0
C440 C 0.40537 0.53381 0.67868 0.0
C441 C 0.43628 0.54905 0.68337 0.0
C442 C 0.45053 0.57633 0.70049 0.0
C443 C 0.4331 0.58753 0.71343 0.0
C444 C 0.40219 0.57226 0.70872 0.0
H445 H 0.35396 0.54868 0.61402 0.0
H446 H 0.38506 0.56785 0.63872 0.0
H447 H 0.37387 0.52925 0.62522 0.0
H448 H 0.39487 0.51296 0.66526 0.0
H449 H 0.44903 0.53971 0.67321 0.0
H450 H 0.9737 0.2878 0.93219 0.0
H451 H 0.98487 0.30784 0.88413 0.0
H452 H 0.06738 0.30551 0.88686 0.0
H453 H 0.05664 0.28581 0.93535 0.0
H454 H 0.07515 0.36324 0.87319 0.0
H455 H 0.98458 0.27134 0.80638 0.0
H456 H 0.97051 0.28174 0.83687 0.0
H457 H 0.99329 0.26382 0.84163 0.0
C458 C 0.99395 0.29088 0.92244 0.0
C459 C 0.0144 0.28543 0.93777 0.0
C460 C 0.00018 0.30213 0.89481 0.0
C461 C 0.02681 0.30789 0.88183 0.0
C462 C 0.04661 0.30105 0.89649 0.0
H463 H 0.10734 0.41612 0.72866 0.0
H464 H 0.09764 0.38344 0.77033 0.0
C465 C 0.04039 0.28973 0.92418 0.0
C466 C 0.03546 0.32458 0.85452 0.0
H467 H 0.01045 0.32318 0.78695 0.0
C468 C 0.06132 0.35427 0.85415 0.0
C469 C 0.01726 0.31287 0.82982 0.0
C470 C 0.99002 0.28055 0.82856 0.0
C471 C 0.06874 0.3732 0.83013 0.0
C472 C 0.05 0.36188 0.80574 0.0
C473 C 0.02464 0.33182 0.80579 0.0
C474 C 0.05581 0.38137 0.78031 0.0
C475 C 0.09582 0.40566 0.83145 0.0
C476 C 0.03524 0.39061 0.77192 0.0
C477 C 0.04063 0.40925 0.74807 0.0
C478 C 0.06665 0.41883 0.73207 0.0
C479 C 0.08716 0.40936 0.74055 0.0
C480 C 0.08172 0.39073 0.7644 0.0
H481 H 0.1041 0.41321 0.85358 0.0
H482 H 0.11413 0.40583 0.81905 0.0
H483 H 0.09065 0.42303 0.82203 0.0
H484 H 0.01508 0.38356 0.78396 0.0
H485 H 0.0243 0.41598 0.74212 0.0
H486 H 0.80437 0.8316 0.89727 0.0
H487 H 0.77965 0.81965 0.85058 0.0
H488 H 0.69433 0.78632 0.89082 0.0
H489 H 0.71866 0.79824 0.93721 0.0
H490 H 0.73961 0.75864 0.83793 0.0
H491 H 0.6849 0.82934 0.82184 0.0
H492 H 0.71526 0.84052 0.84707 0.0
H493 H 0.67742 0.81244 0.85645 0.0
C494 C 0.78047 0.8227 0.89612 0.0
C495 C 0.76342 0.81557 0.92095 0.0
C496 C 0.76641 0.81594 0.86943 0.0
C497 C 0.7352 0.80235 0.86722 0.0
C498 C 0.7185 0.79746 0.89195 0.0
H499 H 0.5829 0.67246 0.77741 0.0
H500 H 0.62176 0.71385 0.80713 0.0
C501 C 0.73248 0.80407 0.91856 0.0
C502 C 0.71935 0.78771 0.84021 0.0
H503 H 0.66096 0.77799 0.79839 0.0
C504 C 0.72298 0.76342 0.8287 0.0
C505 C 0.69761 0.79392 0.82838 0.0
C506 C 0.69378 0.82072 0.83894 0.0
C507 C 0.70382 0.7435 0.80721 0.0
C508 C 0.68087 0.74854 0.79654 0.0
C509 C 0.67848 0.7741 0.80675 0.0
C510 C 0.6573 0.72559 0.77711 0.0
C511 C 0.70697 0.71592 0.79762 0.0
C512 C 0.66436 0.7188 0.75022 0.0
C513 C 0.64227 0.69481 0.73334 0.0
C514 C 0.61266 0.67756 0.74291 0.0
C515 C 0.60551 0.68518 0.76947 0.0
C516 C 0.62764 0.70897 0.7864 0.0
H517 H 0.72205 0.71205 0.81187 0.0
H518 H 0.68482 0.69413 0.79674 0.0
H519 H 0.71649 0.72026 0.77599 0.0
H520 H 0.68706 0.73167 0.74252 0.0
H521 H 0.64855 0.68954 0.71303 0.0
H522 H 0.34705 0.9658 0.71501 0.0
H523 H 0.32309 0.98272 0.75006 0.0
H524 H 0.33557 0.92787 0.81382 0.0
H525 H 0.35969 0.91082 0.77889 0.0
H526 H 0.2723 0.94809 0.7863 0.0
H527 H 0.37947 0.01892 0.84571 0.0
H528 H 0.37783 0.00381 0.81026 0.0
H529 H 0.36872 0.97845 0.84022 0.0
C530 C 0.34442 0.95702 0.73639 0.0
C531 C 0.35541 0.93708 0.74422 0.0
C532 C 0.33069 0.9667 0.75636 0.0
C533 C 0.32786 0.95676 0.78451 0.0
C534 C 0.3379 0.93606 0.79222 0.0
H535 H 0.23613 0.97875 0.92733 0.0
H536 H 0.24673 0.95949 0.88339 0.0
C537 C 0.35167 0.92637 0.77226 0.0
C538 C 0.31597 0.96948 0.80614 0.0
H539 H 0.336 0.01464 0.8664 0.0
C540 C 0.28616 0.96272 0.80381 0.0
C541 C 0.33434 0.98896 0.8286 0.0
C542 C 0.36695 0.99826 0.83133 0.0
C543 C 0.27402 0.9745 0.82385 0.0
C544 C 0.29218 0.99321 0.84678 0.0
C545 C 0.32211 0.00029 0.84876 0.0
C546 C 0.28087 0.00527 0.86963 0.0
C547 C 0.24207 0.96712 0.82017 0.0
C548 C 0.29593 0.03748 0.87607 0.0
C549 C 0.2902 0.0485 0.9013 0.0
C550 C 0.26925 0.02749 0.92054 0.0
C551 C 0.25231 0.99555 0.91289 0.0
C552 C 0.25828 0.98449 0.8877 0.0
H553 H 0.23407 0.9603 0.79787 0.0
H554 H 0.22747 0.94719 0.83392 0.0
H555 H 0.23958 0.9875 0.82646 0.0
H556 H 0.31341 0.05391 0.86236 0.0
H557 H 0.30342 0.07327 0.90648 0.0
H558 H 0.46361 0.04134 0.21432 0.0
H559 H 0.42821 0.04442 0.18149 0.0
H560 H 0.46592 0.14263 0.20284 0.0
H561 H 0.50274 0.13993 0.23401 0.0
H562 H 0.38609 0.0551 0.19395 0.0
H563 H 0.46011 0.14799 0.11983 0.0
H564 H 0.47432 0.13098 0.14485 0.0
H565 H 0.46621 0.16099 0.1562 0.0
C566 C 0.46483 0.06373 0.2112 0.0
C567 C 0.48612 0.09052 0.22602 0.0
C568 C 0.44451 0.06548 0.19269 0.0
C569 C 0.44454 0.09386 0.18938 0.0
C570 C 0.466 0.12074 0.20422 0.0
H571 H 0.27786 0.06568 0.10838 0.0
H572 H 0.31809 0.08359 0.1442 0.0
C573 C 0.48699 0.11919 0.22206 0.0
C574 C 0.42077 0.09438 0.17183 0.0
H575 H 0.40824 0.12973 0.11562 0.0
C576 C 0.39096 0.07139 0.17675 0.0
C577 C 0.4271 0.11583 0.14956 0.0
C578 C 0.45868 0.14014 0.14209 0.0
C579 C 0.3675 0.06798 0.15912 0.0
C580 C 0.37378 0.0894 0.1368 0.0
C581 C 0.40341 0.11348 0.13284 0.0
C582 C 0.35087 0.08456 0.11501 0.0
C583 C 0.33666 0.04022 0.16362 0.0
C584 C 0.35661 0.0817 0.08638 0.0
C585 C 0.33414 0.07268 0.06587 0.0
C586 C 0.30523 0.06573 0.07362 0.0
C587 C 0.29986 0.07045 0.10195 0.0
C588 C 0.32273 0.08038 0.12243 0.0
H589 H 0.33736 0.02217 0.17705 0.0
H590 H 0.32259 0.04821 0.17455 0.0
H591 H 0.32571 0.02898 0.14306 0.0
H592 H 0.37812 0.08492 0.08002 0.0
H593 H 0.33901 0.06935 0.04419 0.0
H594 H 0.03012 0.28964 0.12891 0.0
H595 H 0.0147 0.31264 0.16709 0.0
H596 H 0.96275 0.33181 0.10686 0.0
H597 H 0.97825 0.30952 0.06875 0.0
H598 H 0.02665 0.37766 0.16405 0.0
H599 H 0.90603 0.29074 0.17592 0.0
H600 H 0.93241 0.28069 0.16091 0.0
H601 H 0.91829 0.3009 0.13996 0.0
C602 C 0.01498 0.29825 0.1239 0.0
C603 C 0.00531 0.29761 0.09578 0.0
C604 C 0.00623 0.31136 0.14571 0.0
C605 C 0.98733 0.32352 0.13975 0.0
C606 C 0.97691 0.322 0.11192 0.0
H607 H 0.91884 0.43245 0.21888 0.0
H608 H 0.93071 0.39987 0.18807 0.0
C609 C 0.98587 0.30925 0.09013 0.0
C610 C 0.98072 0.34064 0.1618 0.0
H611 H 0.92329 0.34126 0.19677 0.0
C612 C 0.00415 0.36958 0.17159 0.0
C613 C 0.95129 0.33006 0.17118 0.0
C614 C 0.92553 0.29877 0.16167 0.0
C615 C -0.00124 0.3889 0.18979 0.0
C616 C 0.96922 0.37851 0.19897 0.0
C617 C 0.94588 0.34919 0.18965 0.0
C618 C 0.96198 0.39802 0.21779 0.0
C619 C 0.02455 0.42078 0.198 0.0
C620 C 0.97547 0.40755 0.24474 0.0
C621 C 0.96904 0.42645 0.26219 0.0
C622 C 0.94854 0.43569 0.25325 0.0
C623 C 0.93477 0.42579 0.22636 0.0
C624 C 0.94142 0.40707 0.2088 0.0
H625 H 0.04357 0.42845 0.18321 0.0
H626 H 0.01748 0.43872 0.19832 0.0
H627 H 0.03273 0.41974 0.21958 0.0
H628 H 0.99097 0.40034 0.25231 0.0
H629 H 0.98025 0.43385 0.28264 0.0
H630 H 0.57536 0.59513 0.23153 0.0
H631 H 0.60919 0.63723 0.20059 0.0
H632 H 0.62961 0.57323 0.15623 0.0
H633 H 0.5957 0.53072 0.18734 0.0
H634 H 0.67203 0.65886 0.19423 0.0
H635 H 0.60701 0.61635 0.09281 0.0
H636 H 0.59027 0.60197 0.12694 0.0
H637 H 0.61403 0.58895 0.11156 0.0
C638 C 0.58692 0.5899 0.21513 0.0
C639 C 0.58301 0.55965 0.21197 0.0
C640 C 0.60626 0.61401 0.1975 0.0
C641 C 0.62188 0.60832 0.17622 0.0
C642 C 0.61752 0.57798 0.17244 0.0
H643 H 0.76776 0.75281 0.07704 0.0
H644 H 0.74014 0.71103 0.11108 0.0
C645 C 0.59812 0.55374 0.19015 0.0
C646 C 0.64308 0.63453 0.15847 0.0
H647 H 0.65321 0.6634 0.09145 0.0
C648 C 0.66811 0.65982 0.1717 0.0
C649 C 0.63768 0.63566 0.12919 0.0
C650 C 0.61072 0.60944 0.11418 0.0
C651 C 0.68772 0.68651 0.1564 0.0
C652 C 0.6821 0.68774 0.12721 0.0
C653 C 0.65738 0.66225 0.11389 0.0
C654 C 0.70065 0.71582 0.11016 0.0
C655 C 0.71372 0.71359 0.17163 0.0
C656 C 0.68784 0.7328 0.09908 0.0
C657 C 0.70348 0.75664 0.07975 0.0
C658 C 0.73221 0.76379 0.07092 0.0
C659 C 0.74574 0.748 0.08344 0.0
C660 C 0.72999 0.72407 0.10285 0.0
H661 H 0.71241 0.71082 0.19504 0.0
H662 H 0.73492 0.71525 0.16447 0.0
H663 H 0.71457 0.73597 0.16638 0.0
H664 H 0.66524 0.7268 0.1046 0.0
H665 H 0.69243 0.76842 0.07072 0.0
H666 H 0.11285 0.53847 0.58209 0.0
H667 H 0.08833 0.55683 0.54895 0.0
H668 H 0.00317 0.47485 0.56607 0.0
H669 H 0.02732 0.4576 0.60035 0.0
H670 H 0.06444 0.53114 0.50263 0.0
H671 H 0.97511 0.53556 0.5614 0.0
H672 H 0.00472 0.53286 0.57946 0.0
H673 H 0.97141 0.49793 0.56708 0.0
C674 C 0.0888 0.52474 0.5791 0.0
C675 C 0.07194 0.49652 0.59354 0.0
C676 C 0.07479 0.53533 0.56032 0.0
C677 C 0.04375 0.5176 0.5553 0.0
C678 C 0.0269 0.48968 0.57026 0.0
H679 H 0.93751 0.44583 0.42 0.0
H680 H 0.95934 0.46511 0.46716 0.0
C681 C 0.0408 0.47952 0.58954 0.0
C682 C 0.02968 0.52529 0.53141 0.0
H683 H 0.96336 0.51914 0.51051 0.0
C684 C 0.04288 0.52979 0.5046 0.0
C685 C 0.00166 0.52392 0.53378 0.0
C686 C 0.98769 0.52268 0.56212 0.0
C687 C 0.0275 0.52958 0.47994 0.0
C688 C -0.00192 0.52443 0.48214 0.0
C689 C 0.98586 0.5228 0.50898 0.0
C690 C 0.97823 0.51406 0.45692 0.0
C691 C 0.04166 0.53195 0.45143 0.0
C692 C 0.98049 0.53532 0.43612 0.0
C693 C 0.96764 0.52427 0.40915 0.0
C694 C 0.95303 0.492 0.40283 0.0
C695 C 0.94881 0.47083 0.42443 0.0
C696 C 0.96111 0.48179 0.45136 0.0
H697 H 0.06512 0.53693 0.45345 0.0
H698 H 0.02847 0.50965 0.43927 0.0
H699 H 0.04151 0.55089 0.43897 0.0
H700 H 0.99389 0.56033 0.44009 0.0
H701 H 0.9713 0.54098 0.39269 0.0
H702 H 0.53232 0.48732 0.37245 0.0
H703 H 0.52636 0.48942 0.42397 0.0
H704 H 0.55406 0.58759 0.41891 0.0
H705 H 0.55996 0.58582 0.36783 0.0
H706 H 0.57336 0.52929 0.4622 0.0
H707 H 0.47842 0.55169 0.4678 0.0
H708 H 0.4862 0.53565 0.43641 0.0
H709 H 0.50668 0.57719 0.44361 0.0
C710 C 0.53668 0.50922 0.38228 0.0
C711 C 0.54669 0.53643 0.36606 0.0
C712 C 0.5333 0.51036 0.41166 0.0
C713 C 0.53938 0.53855 0.42508 0.0
C714 C 0.54869 0.56547 0.40885 0.0
H715 H 0.60921 0.63023 0.58155 0.0
H716 H 0.59865 0.60607 0.53428 0.0
C717 C 0.55229 0.56444 0.37965 0.0
C718 C 0.53865 0.54103 0.45631 0.0
H719 H 0.51141 0.56774 0.50878 0.0
C720 C 0.55939 0.53705 0.47254 0.0
C721 C 0.52015 0.55078 0.46973 0.0
C722 C 0.49639 0.55378 0.45352 0.0
C723 C 0.56353 0.54466 0.50161 0.0
C724 C 0.54674 0.55688 0.51452 0.0
C725 C 0.52455 0.55876 0.49871 0.0
C726 C 0.5534 0.5701 0.5437 0.0
C727 C 0.58638 0.54034 0.51808 0.0
C728 C 0.53124 0.55821 0.56447 0.0
C729 C 0.53712 0.57208 0.59152 0.0
C730 C 0.56522 0.5983 0.59816 0.0
C731 C 0.58737 0.61006 0.57723 0.0
C732 C 0.58147 0.59612 0.55025 0.0
H733 H 0.59037 0.5223 0.50791 0.0
H734 H 0.60794 0.56279 0.51867 0.0
H735 H 0.57917 0.5334 0.54028 0.0
H736 H 0.50934 0.53832 0.55968 0.0
H737 H 0.51951 0.56244 0.60709 0.0
H738 H 0.42483 0.91724 0.59416 0.0
H739 H 0.44578 0.93489 0.54697 0.0
H740 H 0.38387 0.96824 0.53223 0.0
H741 H 0.36278 0.95084 0.57922 0.0
H742 H 0.41689 0.92098 0.49059 0.0
H743 H 0.46946 0.04628 0.52318 0.0
H744 H 0.45659 0.01497 0.54847 0.0
H745 H 0.43031 0.02332 0.53101 0.0
C746 C 0.41541 0.928 0.58078 0.0
C747 C 0.3923 0.93291 0.59064 0.0
C748 C 0.42744 0.93807 0.55385 0.0
C749 C 0.4167 0.95335 0.53646 0.0
C750 C 0.39276 0.95695 0.54563 0.0
H751 H 0.42756 0.0008 0.36313 0.0
H752 H 0.41566 0.97705 0.40975 0.0
C753 C 0.38066 0.94684 0.57245 0.0
C754 C 0.43099 0.96651 0.50905 0.0
H755 H 0.46772 0.03542 0.47357 0.0
C756 C 0.42831 0.946 0.48688 0.0
C757 C 0.44635 -0.00081 0.50454 0.0
C758 C 0.45116 0.02231 0.52811 0.0
C759 C 0.4393 0.95731 0.45977 0.0
C760 C 0.45301 0.98987 0.45482 0.0
C761 C 0.45703 0.01045 0.47739 0.0
C762 C 0.46112 0.00287 0.42597 0.0
C763 C 0.43582 0.93432 0.43658 0.0
C764 C 0.49063 0.02572 0.41977 0.0
C765 C 0.49759 0.03959 0.39303 0.0
C766 C 0.47502 0.03106 0.37222 0.0
C767 C 0.44554 0.00798 0.37858 0.0
C768 C 0.43869 0.99411 0.40518 0.0
H769 H 0.43355 0.91243 0.44548 0.0
H770 H 0.41527 0.92796 0.42396 0.0
H771 H 0.45519 0.94466 0.42206 0.0
H772 H 0.5082 0.03301 0.43571 0.0
H773 H 0.52049 0.05731 0.38886 0.0
loop_
_geom_bond_atom_site_label_1
_geom_bond_atom_site_label_2
_geom_bond_distance
_geom_bond_site_symmetry_2
_ccdc_geom_bond_type
Mg0 O1 2.028 1_455 S
Mg0 O7 1.986 1_554 S
Mg0 O9 2.114 . S
Mg0 O10 2.251 1_455 S
Mg0 O13 2.010 . S
O1 Mg0 2.028 1_655 S
O1 C4 1.252 . S
O2 Mg3 2.028 . S
O2 C4 1.247 1_556 S
Mg3 O2 2.028 . S
Mg3 O8 2.032 . S
Mg3 O10 2.079 1_556 S
C4 O1 1.252 . S
C4 O2 1.247 1_554 S
C5 O6 1.264 . S
C5 O13 1.249 . S
O6 C5 1.264 . S
O7 Mg0 1.986 1_556 S
O7 C11 1.246 . S
O8 Mg3 2.032 . S
O8 C11 1.259 1_655 S
O9 Mg0 2.114 . S
O9 C12 1.252 . S
O10 Mg0 2.251 1_655 S
O10 Mg3 2.079 1_554 S
O10 C12 1.273 1_655 S
C11 O7 1.246 . S
C11 O8 1.259 1_455 S
C12 O9 1.252 . S
C12 O10 1.273 1_455 S
O13 Mg0 2.010 . S
O13 C5 1.249 . S
Mg14 O15 2.028 . S
Mg14 O21 1.986 . S
Mg14 O23 2.114 1_554 S
Mg14 O24 2.251 1_554 S
Mg14 O27 2.010 . S
O15 Mg14 2.028 . S
O15 C18 1.250 . S
O16 Mg17 2.028 . S
O16 C18 1.248 . S
Mg17 O16 2.028 . S
Mg17 O22 2.032 . S
Mg17 O24 2.079 1_554 S
C18 O15 1.250 . S
C18 O16 1.248 . S
C19 O20 1.264 . S
C19 O27 1.249 1_556 S
O20 C19 1.264 . S
O21 Mg14 1.986 . S
O21 C25 1.246 . S
O22 Mg17 2.032 . S
O22 C25 1.259 . S
O23 Mg14 2.114 1_556 S
O23 C26 1.252 . S
O24 Mg14 2.251 1_556 S
O24 Mg17 2.079 1_556 S
O24 C26 1.273 . S
C25 O21 1.246 . S
C25 O22 1.259 . S
C26 O23 1.252 . S
C26 O24 1.273 . S
O27 Mg14 2.010 . S
O27 C19 1.249 1_554 S
Mg28 O29 2.028 . S
Mg28 O35 1.986 1_544 S
Mg28 O37 2.114 . S
Mg28 O38 2.251 . S
Mg28 O41 2.010 1_545 S
O29 Mg28 2.028 . S
O29 C32 1.246 1_554 S
O30 Mg31 2.028 . S
O30 C32 1.250 . S
Mg31 O30 2.028 . S
Mg31 O36 2.032 . S
Mg31 O38 2.079 1_556 S
C32 O29 1.246 1_556 S
C32 O30 1.250 . S
C33 O34 1.264 . S
C33 O41 1.249 . S
O34 C33 1.264 . S
O35 Mg28 1.986 1_566 S
O35 C39 1.246 1_565 S
O36 Mg31 2.032 . S
O36 C39 1.259 . S
O37 Mg28 2.114 . S
O37 C40 1.252 . S
O38 Mg28 2.251 . S
O38 Mg31 2.079 1_554 S
O38 C40 1.273 . S
C39 O35 1.246 1_545 S
C39 O36 1.259 . S
C40 O37 1.252 . S
C40 O38 1.273 . S
O41 Mg28 2.010 1_565 S
O41 C33 1.249 . S
Mg42 O43 2.028 . S
Mg42 O49 1.986 . S
Mg42 O51 2.114 . S
Mg42 O52 2.251 . S
Mg42 O55 2.010 . S
O43 Mg42 2.028 . S
O43 C46 1.250 . S
O44 Mg45 2.028 . S
O44 C46 1.248 . S
Mg45 O44 2.028 . S
Mg45 O50 2.032 . S
Mg45 O52 2.079 . S
C46 O43 1.250 . S
C46 O44 1.248 . S
C47 O48 1.264 . S
C47 O55 1.249 . S
O48 C47 1.264 . S
O49 Mg42 1.986 . S
O49 C53 1.246 . S
O50 Mg45 2.032 . S
O50 C53 1.259 . S
O51 Mg42 2.114 . S
O51 C54 1.252 . S
O52 Mg42 2.251 . S
O52 Mg45 2.079 . S
O52 C54 1.273 . S
C53 O49 1.246 . S
C53 O50 1.259 . S
C54 O51 1.252 . S
C54 O52 1.273 . S
O55 Mg42 2.010 . S
O55 C47 1.249 . S
Mg56 O57 2.028 . S
Mg56 O63 1.986 . S
Mg56 O65 2.114 . S
Mg56 O66 2.251 . S
Mg56 O69 2.010 . S
O57 Mg56 2.028 . S
O57 C60 1.250 . S
O58 Mg59 2.028 . S
O58 C60 1.248 . S
Mg59 O58 2.028 . S
Mg59 O64 2.032 . S
Mg59 O66 2.079 . S
C60 O57 1.250 . S
C60 O58 1.248 . S
C61 O62 1.264 . S
C61 O69 1.249 . S
O62 C61 1.264 . S
O63 Mg56 1.986 . S
O63 C67 1.246 . S
O64 Mg59 2.032 . S
O64 C67 1.259 . S
O65 Mg56 2.114 . S
O65 C68 1.252 . S
O66 Mg56 2.251 . S
O66 Mg59 2.079 . S
O66 C68 1.273 . S
C67 O63 1.246 . S
C67 O64 1.259 . S
C68 O65 1.252 . S
C68 O66 1.273 . S
O69 Mg56 2.010 . S
O69 C61 1.249 . S
Mg70 O71 2.028 . S
Mg70 O77 1.986 . S
Mg70 O79 2.114 . S
Mg70 O80 2.251 . S
Mg70 O83 2.010 . S
O71 Mg70 2.028 . S
O71 C74 1.250 . S
O72 Mg73 2.028 . S
O72 C74 1.248 . S
Mg73 O72 2.028 . S
Mg73 O78 2.032 . S
Mg73 O80 2.079 . S
C74 O71 1.250 . S
C74 O72 1.248 . S
C75 O76 1.264 . S
C75 O83 1.249 . S
O76 C75 1.264 . S
O77 Mg70 1.986 . S
O77 C81 1.246 . S
O78 Mg73 2.032 . S
O78 C81 1.259 . S
O79 Mg70 2.114 . S
O79 C82 1.252 . S
O80 Mg70 2.251 . S
O80 Mg73 2.079 . S
O80 C82 1.273 . S
C81 O77 1.246 . S
C81 O78 1.259 . S
C82 O79 1.252 . S
C82 O80 1.273 . S
O83 Mg70 2.010 . S
O83 C75 1.249 . S
Mg84 O85 2.028 . S
Mg84 O91 1.986 . S
Mg84 O93 2.114 . S
Mg84 O94 2.251 . S
Mg84 O97 2.010 . S
O85 Mg84 2.028 . S
O85 C88 1.250 . S
O86 Mg87 2.028 . S
O86 C88 1.248 . S
Mg87 O86 2.028 . S
Mg87 O92 2.032 . S
Mg87 O94 2.079 . S
C88 O85 1.250 . S
C88 O86 1.248 . S
C89 O90 1.264 . S
C89 O97 1.249 . S
O90 C89 1.264 . S
O91 Mg84 1.986 . S
O91 C95 1.246 . S
O92 Mg87 2.032 . S
O92 C95 1.259 . S
O93 Mg84 2.114 . S
O93 C96 1.252 . S
O94 Mg84 2.251 . S
O94 Mg87 2.079 . S
O94 C96 1.273 . S
C95 O91 1.246 . S
C95 O92 1.259 . S
C96 O93 1.252 . S
C96 O94 1.273 . S
O97 Mg84 2.010 . S
O97 C89 1.249 . S
Mg98 O99 2.028 . S
Mg98 O105 1.986 . S
Mg98 O107 2.114 . S
Mg98 O108 2.251 . S
Mg98 O111 2.010 . S
O99 Mg98 2.028 . S
O99 C102 1.250 . S
O100 Mg101 2.028 . S
O100 C102 1.248 . S
Mg101 O100 2.028 . S
Mg101 O106 2.032 . S
Mg101 O108 2.079 . S
C102 O99 1.250 . S
C102 O100 1.248 . S
C103 O104 1.264 . S
C103 O111 1.249 . S
O104 C103 1.264 . S
O105 Mg98 1.986 . S
O105 C109 1.246 . S
O106 Mg101 2.032 . S
O106 C109 1.259 . S
O107 Mg98 2.114 . S
O107 C110 1.252 . S
O108 Mg98 2.251 . S
O108 Mg101 2.079 . S
O108 C110 1.273 . S
C109 O105 1.246 . S
C109 O106 1.259 . S
C110 O107 1.252 . S
C110 O108 1.273 . S
O111 Mg98 2.010 . S
O111 C103 1.249 . S
Mg112 O113 2.028 . S
Mg112 O119 1.986 . S
Mg112 O121 2.114 . S
Mg112 O122 2.251 . S
Mg112 O125 2.010 . S
O113 Mg112 2.028 . S
O113 C116 1.250 . S
O114 Mg115 2.028 . S
O114 C116 1.248 . S
Mg115 O114 2.028 . S
Mg115 O120 2.032 . S
Mg115 O122 2.079 . S
C116 O113 1.250 . S
C116 O114 1.248 . S
C117 O118 1.264 . S
C117 O125 1.249 . S
O118 C117 1.264 . S
O119 Mg112 1.986 . S
O119 C123 1.246 . S
O120 Mg115 2.032 . S
O120 C123 1.259 . S
O121 Mg112 2.114 . S
O121 C124 1.252 . S
O122 Mg112 2.251 . S
O122 Mg115 2.079 . S
O122 C124 1.273 . S
C123 O119 1.246 . S
C123 O120 1.259 . S
C124 O121 1.252 . S
C124 O122 1.273 . S
O125 Mg112 2.010 . S
O125 C117 1.249 . S
H126 C134 0.929 . S
H127 C136 0.930 . S
H128 C138 0.930 . S
H129 C141 0.929 . S
H130 C144 0.930 . S
H131 C146 0.960 . S
H132 C146 0.960 . S
H133 C146 0.960 . S
C134 H126 0.929 . S
C134 C135 1.377 1_554 S
C134 C136 1.384 . S
C135 C134 1.377 1_556 S
C135 C141 1.390 . S
C136 H127 0.930 . S
C136 C134 1.384 . S
C136 C137 1.372 . S
C137 C136 1.372 . S
C137 C138 1.400 1_554 S
C137 C142 1.490 . S
C138 H128 0.930 . S
C138 C137 1.400 1_556 S
C138 C141 1.386 . S
H139 C155 0.930 1_556 S
H140 C156 0.937 . S
C141 H129 0.929 . S
C141 C135 1.390 . S
C141 C138 1.386 . S
C142 C137 1.490 . S
C142 C144 1.395 1_554 S
C142 C145 1.403 . S
H143 C149 0.930 . S
C144 H130 0.930 . S
C144 C142 1.395 1_556 S
C144 C147 1.403 . S
C145 C142 1.403 . S
C145 C146 1.524 . S
C145 C149 1.400 . S
C146 H131 0.960 . S
C146 H132 0.960 . S
C146 H133 0.960 . S
C146 C145 1.524 . S
C147 C144 1.403 . S
C147 C148 1.392 1_556 S
C147 C151 1.495 . S
C148 C147 1.392 1_554 S
C148 C149 1.385 . S
C148 C150 1.478 . S
C149 H143 0.930 . S
C149 C145 1.400 . S
C149 C148 1.385 . S
C150 C148 1.478 . S
C150 C152 1.381 . S
C150 C156 1.378 1_554 S
C151 C147 1.495 . S
C151 H157 0.959 . S
C151 H158 0.961 . S
C151 H159 0.960 . S
C152 C150 1.381 . S
C152 C153 1.394 . S
C152 H160 0.930 . S
C153 C152 1.394 . S
C153 C154 1.383 . S
C153 H161 0.929 . S
C154 C153 1.383 . S
C154 C155 1.377 . S
C155 H139 0.930 1_554 S
C155 C154 1.377 . S
C155 C156 1.378 1_554 S
C156 H140 0.937 . S
C156 C150 1.378 1_556 S
C156 C155 1.378 1_556 S
H157 C151 0.959 . S
H158 C151 0.961 . S
H159 C151 0.960 . S
H160 C152 0.930 . S
H161 C153 0.929 . S
H162 C170 0.929 . S
H163 C172 0.930 . S
H164 C174 0.930 . S
H165 C177 0.929 . S
H166 C180 0.930 1_565 S
H167 C182 0.960 . S
H168 C182 0.960 1_565 S
H169 C182 0.960 1_565 S
C170 H162 0.929 . S
C170 C171 1.377 1_556 S
C170 C172 1.384 . S
C171 C170 1.377 1_554 S
C171 C177 1.390 . S
C172 H163 0.930 . S
C172 C170 1.384 . S
C172 C173 1.372 1_556 S
C173 C172 1.372 1_554 S
C173 C174 1.400 . S
C173 C178 1.490 . S
C174 H164 0.930 . S
C174 C173 1.400 . S
C174 C177 1.386 . S
H175 C191 0.930 . S
H176 C192 0.931 . S
C177 H165 0.929 . S
C177 C171 1.390 . S
C177 C174 1.386 . S
C178 C173 1.490 . S
C178 C180 1.395 1_564 S
C178 C181 1.403 1_565 S
H179 C185 0.930 . S
C180 H166 0.930 1_545 S
C180 C178 1.395 1_546 S
C180 C183 1.403 . S
C181 C178 1.403 1_545 S
C181 C182 1.524 . S
C181 C185 1.400 . S
C182 H167 0.960 . S
C182 H168 0.960 1_545 S
C182 H169 0.960 1_545 S
C182 C181 1.524 . S
C183 C180 1.403 . S
C183 C184 1.366 1_556 S
C183 C187 1.495 . S
C184 C183 1.366 1_554 S
C184 C185 1.418 . S
C184 C186 1.474 1_554 S
C185 H179 0.930 . S
C185 C181 1.400 . S
C185 C184 1.418 . S
C186 C184 1.474 1_556 S
C186 C188 1.381 . S
C186 C192 1.383 1_556 S
C187 C183 1.495 . S
C187 H193 0.959 . S
C187 H194 0.961 . S
C187 H195 0.960 . S
C188 C186 1.381 . S
C188 C189 1.394 . S
C188 H196 0.930 . S
C189 C188 1.394 . S
C189 C190 1.383 . S
C189 H197 0.929 . S
C190 C189 1.383 . S
C190 C191 1.377 1_556 S
C191 H175 0.930 . S
C191 C190 1.377 1_554 S
C191 C192 1.379 . S
C192 H176 0.931 . S
C192 C186 1.383 1_554 S
C192 C191 1.379 . S
H193 C187 0.959 . S
H194 C187 0.961 . S
H195 C187 0.960 . S
H196 C188 0.930 . S
H197 C189 0.929 . S
H198 C206 0.929 . S
H199 C208 0.930 . S
H200 C210 0.930 . S
H201 C213 0.929 . S
H202 C216 0.930 . S
H203 C218 0.960 . S
H204 C218 0.960 . S
H205 C218 0.960 . S
C206 H198 0.929 . S
C206 C207 1.377 1_554 S
C206 C208 1.384 . S
C207 C206 1.377 1_556 S
C207 C213 1.390 . S
C208 H199 0.930 . S
C208 C206 1.384 . S
C208 C209 1.372 . S
C209 C208 1.372 . S
C209 C210 1.400 1_554 S
C209 C214 1.490 . S
C210 H200 0.930 . S
C210 C209 1.400 1_556 S
C210 C213 1.386 . S
H211 C227 0.930 . S
H212 C228 0.921 1_556 S
C213 H201 0.929 . S
C213 C207 1.390 . S
C213 C210 1.386 . S
C214 C209 1.490 . S
C214 C216 1.395 1_554 S
C214 C217 1.403 . S
H215 C221 0.930 . S
C216 H202 0.930 . S
C216 C214 1.395 1_556 S
C216 C219 1.403 1_655 S
C217 C214 1.403 . S
C217 C218 1.524 . S
C217 C221 1.400 1_655 S
C218 H203 0.960 . S
C218 H204 0.960 . S
C218 H205 0.960 . S
C218 C217 1.524 . S
C219 C216 1.403 1_455 S
C219 C220 1.392 1_556 S
C219 C223 1.495 . S
C220 C219 1.392 1_554 S
C220 C221 1.385 . S
C220 C222 1.478 . S
C221 H215 0.930 . S
C221 C217 1.400 1_455 S
C221 C220 1.385 . S
C222 C220 1.478 . S
C222 C224 1.381 . S
C222 C228 1.383 . S
C223 C219 1.495 . S
C223 H229 0.959 . S
C223 H230 0.961 . S
C223 H231 0.960 . S
C224 C222 1.381 . S
C224 C225 1.394 . S
C224 H232 0.930 . S
C225 C224 1.394 . S
C225 C226 1.383 . S
C225 H233 0.929 . S
C226 C225 1.383 . S
C226 C227 1.377 . S
C227 H211 0.930 . S
C227 C226 1.377 . S
C227 C228 1.379 . S
C228 H212 0.921 1_554 S
C228 C222 1.383 . S
C228 C227 1.379 . S
H229 C223 0.959 . S
H230 C223 0.961 . S
H231 C223 0.960 . S
H232 C224 0.930 . S
H233 C225 0.929 . S
H234 C242 0.929 . S
H235 C244 0.930 . S
H236 C246 0.930 . S
H237 C249 0.929 . S
H238 C252 0.930 . S
H239 C254 0.960 . S
H240 C254 0.960 . S
H241 C254 0.960 . S
C242 H234 0.929 . S
C242 C243 1.377 . S
C242 C244 1.384 . S
C243 C242 1.377 . S
C243 C249 1.390 . S
C244 H235 0.930 . S
C244 C242 1.384 . S
C244 C245 1.372 . S
C245 C244 1.372 . S
C245 C246 1.400 . S
C245 C250 1.490 . S
C246 H236 0.930 . S
C246 C245 1.400 . S
C246 C249 1.386 . S
H247 C263 0.930 . S
H248 C264 0.931 . S
C249 H237 0.929 . S
C249 C243 1.390 . S
C249 C246 1.386 . S
C250 C245 1.490 . S
C250 C252 1.395 . S
C250 C253 1.403 . S
H251 C257 0.930 . S
C252 H238 0.930 . S
C252 C250 1.395 . S
C252 C255 1.403 . S
C253 C250 1.403 . S
C253 C254 1.524 . S
C253 C257 1.400 . S
C254 H239 0.960 . S
C254 H240 0.960 . S
C254 H241 0.960 . S
C254 C253 1.524 . S
C255 C252 1.403 . S
C255 C256 1.392 . S
C255 C259 1.495 . S
C256 C255 1.392 . S
C256 C257 1.385 . S
C256 C258 1.478 . S
C257 H251 0.930 . S
C257 C253 1.400 . S
C257 C256 1.385 . S
C258 C256 1.478 . S
C258 C260 1.381 . S
C258 C264 1.383 . S
C259 C255 1.495 . S
C259 H265 0.959 . S
C259 H266 0.961 . S
C259 H267 0.960 . S
C260 C258 1.381 . S
C260 C261 1.394 . S
C260 H268 0.930 . S
C261 C260 1.394 . S
C261 C262 1.383 . S
C261 H269 0.929 . S
C262 C261 1.383 . S
C262 C263 1.377 . S
C263 H247 0.930 . S
C263 C262 1.377 . S
C263 C264 1.379 . S
C264 H248 0.931 . S
C264 C258 1.383 . S
C264 C263 1.379 . S
H265 C259 0.959 . S
H266 C259 0.961 . S
H267 C259 0.960 . S
H268 C260 0.930 . S
H269 C261 0.929 . S
H270 C278 0.929 . S
H271 C280 0.930 . S
H272 C282 0.930 . S
H273 C285 0.929 . S
H274 C288 0.930 . S
H275 C290 0.960 . S
H276 C290 0.960 . S
H277 C290 0.960 . S
C278 H270 0.929 . S
C278 C279 1.377 . S
C278 C280 1.384 . S
C279 C278 1.377 . S
C279 C285 1.390 . S
C280 H271 0.930 . S
C280 C278 1.384 . S
C280 C281 1.372 . S
C281 C280 1.372 . S
C281 C282 1.400 . S
C281 C286 1.490 . S
C282 H272 0.930 . S
C282 C281 1.400 . S
C282 C285 1.386 . S
H283 C299 0.930 . S
H284 C300 0.931 . S
C285 H273 0.929 . S
C285 C279 1.390 . S
C285 C282 1.386 . S
C286 C281 1.490 . S
C286 C288 1.395 . S
C286 C289 1.403 . S
H287 C293 0.930 . S
C288 H274 0.930 . S
C288 C286 1.395 . S
C288 C291 1.403 . S
C289 C286 1.403 . S
C289 C290 1.524 . S
C289 C293 1.400 . S
C290 H275 0.960 . S
C290 H276 0.960 . S
C290 H277 0.960 . S
C290 C289 1.524 . S
C291 C288 1.403 . S
C291 C292 1.392 . S
C291 C295 1.495 . S
C292 C291 1.392 . S
C292 C293 1.385 . S
C292 C294 1.478 . S
C293 H287 0.930 . S
C293 C289 1.400 . S
C293 C292 1.385 . S
C294 C292 1.478 . S
C294 C296 1.381 . S
C294 C300 1.383 . S
C295 C291 1.495 . S
C295 H301 0.959 . S
C295 H302 0.961 . S
C295 H303 0.960 . S
C296 C294 1.381 . S
C296 C297 1.394 . S
C296 H304 0.930 . S
C297 C296 1.394 . S
C297 C298 1.383 . S
C297 H305 0.929 . S
C298 C297 1.383 . S
C298 C299 1.377 . S
C299 H283 0.930 . S
C299 C298 1.377 . S
C299 C300 1.379 . S
C300 H284 0.931 . S
C300 C294 1.383 . S
C300 C299 1.379 . S
H301 C295 0.959 . S
H302 C295 0.961 . S
H303 C295 0.960 . S
H304 C296 0.930 . S
H305 C297 0.929 . S
H306 C314 0.929 . S
H307 C316 0.930 . S
H308 C318 0.930 . S
H309 C321 0.929 . S
H310 C324 0.930 . S
H311 C326 0.960 . S
H312 C326 0.960 . S
H313 C326 0.960 . S
C314 H306 0.929 . S
C314 C315 1.377 . S
C314 C316 1.384 . S
C315 C314 1.377 . S
C315 C321 1.390 . S
C316 H307 0.930 . S
C316 C314 1.384 . S
C316 C317 1.372 . S
C317 C316 1.372 . S
C317 C318 1.400 . S
C317 C322 1.490 . S
C318 H308 0.930 . S
C318 C317 1.400 . S
C318 C321 1.386 . S
H319 C335 0.930 . S
H320 C336 0.931 . S
C321 H309 0.929 . S
C321 C315 1.390 . S
C321 C318 1.386 . S
C322 C317 1.490 . S
C322 C324 1.395 . S
C322 C325 1.403 . S
H323 C329 0.930 . S
C324 H310 0.930 . S
C324 C322 1.395 . S
C324 C327 1.403 . S
C325 C322 1.403 . S
C325 C326 1.524 . S
C325 C329 1.400 . S
C326 H311 0.960 . S
C326 H312 0.960 . S
C326 H313 0.960 . S
C326 C325 1.524 . S
C327 C324 1.403 . S
C327 C328 1.392 . S
C327 C331 1.495 . S
C328 C327 1.392 . S
C328 C329 1.385 . S
C328 C330 1.478 . S
C329 H323 0.930 . S
C329 C325 1.400 . S
C329 C328 1.385 . S
C330 C328 1.478 . S
C330 C332 1.381 . S
C330 C336 1.383 . S
C331 C327 1.495 . S
C331 H337 0.959 . S
C331 H338 0.961 . S
C331 H339 0.960 . S
C332 C330 1.381 . S
C332 C333 1.394 . S
C332 H340 0.930 . S
C333 C332 1.394 . S
C333 C334 1.383 . S
C333 H341 0.929 . S
C334 C333 1.383 . S
C334 C335 1.377 . S
C335 H319 0.930 . S
C335 C334 1.377 . S
C335 C336 1.379 . S
C336 H320 0.931 . S
C336 C330 1.383 . S
C336 C335 1.379 . S
H337 C331 0.959 . S
H338 C331 0.961 . S
H339 C331 0.960 . S
H340 C332 0.930 . S
H341 C333 0.929 . S
H342 C350 0.929 . S
H343 C352 0.930 . S
H344 C354 0.930 . S
H345 C357 0.929 . S
H346 C360 0.930 . S
H347 C362 0.960 . S
H348 C362 0.960 . S
H349 C362 0.960 . S
C350 H342 0.929 . S
C350 C351 1.377 . S
C350 C352 1.384 . S
C351 C350 1.377 . S
C351 C357 1.390 . S
C352 H343 0.930 . S
C352 C350 1.384 . S
C352 C353 1.372 . S
C353 C352 1.372 . S
C353 C354 1.400 . S
C353 C358 1.490 . S
C354 H344 0.930 . S
C354 C353 1.400 . S
C354 C357 1.386 . S
H355 C371 0.930 . S
H356 C372 0.931 . S
C357 H345 0.929 . S
C357 C351 1.390 . S
C357 C354 1.386 . S
C358 C353 1.490 . S
C358 C360 1.395 . S
C358 C361 1.403 . S
H359 C365 0.930 . S
C360 H346 0.930 . S
C360 C358 1.395 . S
C360 C363 1.403 . S
C361 C358 1.403 . S
C361 C362 1.524 . S
C361 C365 1.400 . S
C362 H347 0.960 . S
C362 H348 0.960 . S
C362 H349 0.960 . S
C362 C361 1.524 . S
C363 C360 1.403 . S
C363 C364 1.392 . S
C363 C367 1.495 . S
C364 C363 1.392 . S
C364 C365 1.385 . S
C364 C366 1.478 . S
C365 H359 0.930 . S
C365 C361 1.400 . S
C365 C364 1.385 . S
C366 C364 1.478 . S
C366 C368 1.381 . S
C366 C372 1.383 . S
C367 C363 1.495 . S
C367 H373 0.959 . S
C367 H374 0.961 . S
C367 H375 0.960 . S
C368 C366 1.381 . S
C368 C369 1.394 . S
C368 H376 0.930 . S
C369 C368 1.394 . S
C369 C370 1.383 . S
C369 H377 0.929 . S
C370 C369 1.383 . S
C370 C371 1.377 . S
C371 H355 0.930 . S
C371 C370 1.377 . S
C371 C372 1.379 . S
C372 H356 0.931 . S
C372 C366 1.383 . S
C372 C371 1.379 . S
H373 C367 0.959 . S
H374 C367 0.961 . S
H375 C367 0.960 . S
H376 C368 0.930 . S
H377 C369 0.929 . S
H378 C386 0.929 . S
H379 C388 0.930 . S
H380 C390 0.930 . S
H381 C393 0.929 . S
H382 C396 0.930 . S
H383 C398 0.960 . S
H384 C398 0.960 . S
H385 C398 0.960 . S
C386 H378 0.929 . S
C386 C387 1.377 . S
C386 C388 1.384 . S
C387 C386 1.377 . S
C387 C393 1.390 . S
C388 H379 0.930 . S
C388 C386 1.384 . S
C388 C389 1.372 . S
C389 C388 1.372 . S
C389 C390 1.400 . S
C389 C394 1.490 . S
C390 H380 0.930 . S
C390 C389 1.400 . S
C390 C393 1.386 . S
H391 C407 0.930 . S
H392 C408 0.931 . S
C393 H381 0.929 . S
C393 C387 1.390 . S
C393 C390 1.386 . S
C394 C389 1.490 . S
C394 C396 1.395 . S
C394 C397 1.403 . S
H395 C401 0.930 . S
C396 H382 0.930 . S
C396 C394 1.395 . S
C396 C399 1.403 . S
C397 C394 1.403 . S
C397 C398 1.524 . S
C397 C401 1.400 . S
C398 H383 0.960 . S
C398 H384 0.960 . S
C398 H385 0.960 . S
C398 C397 1.524 . S
C399 C396 1.403 . S
C399 C400 1.392 . S
C399 C403 1.495 . S
C400 C399 1.392 . S
C400 C401 1.385 . S
C400 C402 1.478 . S
C401 H395 0.930 . S
C401 C397 1.400 . S
C401 C400 1.385 . S
C402 C400 1.478 . S
C402 C404 1.381 . S
C402 C408 1.383 . S
C403 C399 1.495 . S
C403 H409 0.959 . S
C403 H410 0.961 . S
C403 H411 0.960 . S
C404 C402 1.381 . S
C404 C405 1.394 . S
C404 H412 0.930 . S
C405 C404 1.394 . S
C405 C406 1.383 . S
C405 H413 0.929 . S
C406 C405 1.383 . S
C406 C407 1.377 . S
C407 H391 0.930 . S
C407 C406 1.377 . S
C407 C408 1.379 . S
C408 H392 0.931 . S
C408 C402 1.383 . S
C408 C407 1.379 . S
H409 C403 0.959 . S
H410 C403 0.961 . S
H411 C403 0.960 . S
H412 C404 0.930 . S
H413 C405 0.929 . S
H414 C422 0.929 . S
H415 C424 0.930 . S
H416 C426 0.930 . S
H417 C429 0.929 . S
H418 C432 0.930 . S
H419 C434 0.960 . S
H420 C434 0.960 . S
H421 C434 0.960 . S
C422 H414 0.929 . S
C422 C423 1.377 . S
C422 C424 1.384 . S
C423 C422 1.377 . S
C423 C429 1.390 . S
C424 H415 0.930 . S
C424 C422 1.384 . S
C424 C425 1.372 . S
C425 C424 1.372 . S
C425 C426 1.400 . S
C425 C430 1.490 . S
C426 H416 0.930 . S
C426 C425 1.400 . S
C426 C429 1.386 . S
H427 C443 0.930 . S
H428 C444 0.931 . S
C429 H417 0.929 . S
C429 C423 1.390 . S
C429 C426 1.386 . S
C430 C425 1.490 . S
C430 C432 1.395 . S
C430 C433 1.403 . S
H431 C437 0.930 . S
C432 H418 0.930 . S
C432 C430 1.395 . S
C432 C435 1.403 . S
C433 C430 1.403 . S
C433 C434 1.524 . S
C433 C437 1.400 . S
C434 H419 0.960 . S
C434 H420 0.960 . S
C434 H421 0.960 . S
C434 C433 1.524 . S
C435 C432 1.403 . S
C435 C436 1.392 . S
C435 C439 1.495 . S
C436 C435 1.392 . S
C436 C437 1.385 . S
C436 C438 1.478 . S
C437 H431 0.930 . S
C437 C433 1.400 . S
C437 C436 1.385 . S
C438 C436 1.478 . S
C438 C440 1.381 . S
C438 C444 1.383 . S
C439 C435 1.495 . S
C439 H445 0.959 . S
C439 H446 0.961 . S
C439 H447 0.960 . S
C440 C438 1.381 . S
C440 C441 1.394 . S
C440 H448 0.930 . S
C441 C440 1.394 . S
C441 C442 1.383 . S
C441 H449 0.929 . S
C442 C441 1.383 . S
C442 C443 1.377 . S
C443 H427 0.930 . S
C443 C442 1.377 . S
C443 C444 1.379 . S
C444 H428 0.931 . S
C444 C438 1.383 . S
C444 C443 1.379 . S
H445 C439 0.959 . S
H446 C439 0.961 . S
H447 C439 0.960 . S
H448 C440 0.930 . S
H449 C441 0.929 . S
H450 C458 0.929 . S
H451 C460 0.930 . S
H452 C462 0.930 . S
H453 C465 0.929 . S
H454 C468 0.930 . S
H455 C470 0.960 . S
H456 C470 0.960 1_655 S
H457 C470 0.960 . S
C458 H450 0.929 . S
C458 C459 1.377 . S
C458 C460 1.384 . S
C459 C458 1.377 . S
C459 C465 1.390 . S
C460 H451 0.930 . S
C460 C458 1.384 . S
C460 C461 1.372 . S
C461 C460 1.372 . S
C461 C462 1.400 . S
C461 C466 1.490 . S
C462 H452 0.930 . S
C462 C461 1.400 . S
C462 C465 1.386 . S
H463 C479 0.930 . S
H464 C480 0.931 . S
C465 H453 0.929 . S
C465 C459 1.390 . S
C465 C462 1.386 . S
C466 C461 1.490 . S
C466 C468 1.395 . S
C466 C469 1.403 . S
H467 C473 0.930 . S
C468 H454 0.930 . S
C468 C466 1.395 . S
C468 C471 1.403 . S
C469 C466 1.403 . S
C469 C470 1.524 . S
C469 C473 1.400 . S
C470 H455 0.960 . S
C470 H456 0.960 1_455 S
C470 H457 0.960 . S
C470 C469 1.524 . S
C471 C468 1.403 . S
C471 C472 1.392 . S
C471 C475 1.495 . S
C472 C471 1.392 . S
C472 C473 1.385 . S
C472 C474 1.478 . S
C473 H467 0.930 . S
C473 C469 1.400 . S
C473 C472 1.385 . S
C474 C472 1.478 . S
C474 C476 1.381 . S
C474 C480 1.383 . S
C475 C471 1.495 . S
C475 H481 0.959 . S
C475 H482 0.961 . S
C475 H483 0.960 . S
C476 C474 1.381 . S
C476 C477 1.394 . S
C476 H484 0.930 . S
C477 C476 1.394 . S
C477 C478 1.383 . S
C477 H485 0.929 . S
C478 C477 1.383 . S
C478 C479 1.377 . S
C479 H463 0.930 . S
C479 C478 1.377 . S
C479 C480 1.379 . S
C480 H464 0.931 . S
C480 C474 1.383 . S
C480 C479 1.379 . S
H481 C475 0.959 . S
H482 C475 0.961 . S
H483 C475 0.960 . S
H484 C476 0.930 . S
H485 C477 0.929 . S
H486 C494 0.929 . S
H487 C496 0.930 . S
H488 C498 0.930 . S
H489 C501 0.929 . S
H490 C504 0.930 . S
H491 C506 0.960 . S
H492 C506 0.960 . S
H493 C506 0.960 . S
C494 H486 0.929 . S
C494 C495 1.377 . S
C494 C496 1.384 . S
C495 C494 1.377 . S
C495 C501 1.390 . S
C496 H487 0.930 . S
C496 C494 1.384 . S
C496 C497 1.372 . S
C497 C496 1.372 . S
C497 C498 1.400 . S
C497 C502 1.490 . S
C498 H488 0.930 . S
C498 C497 1.400 . S
C498 C501 1.386 . S
H499 C515 0.930 . S
H500 C516 0.931 . S
C501 H489 0.929 . S
C501 C495 1.390 . S
C501 C498 1.386 . S
C502 C497 1.490 . S
C502 C504 1.395 . S
C502 C505 1.403 . S
H503 C509 0.930 . S
C504 H490 0.930 . S
C504 C502 1.395 . S
C504 C507 1.403 . S
C505 C502 1.403 . S
C505 C506 1.524 . S
C505 C509 1.400 . S
C506 H491 0.960 . S
C506 H492 0.960 . S
C506 H493 0.960 . S
C506 C505 1.524 . S
C507 C504 1.403 . S
C507 C508 1.392 . S
C507 C511 1.495 . S
C508 C507 1.392 . S
C508 C509 1.385 . S
C508 C510 1.478 . S
C509 H503 0.930 . S
C509 C505 1.400 . S
C509 C508 1.385 . S
C510 C508 1.478 . S
C510 C512 1.381 . S
C510 C516 1.383 . S
C511 C507 1.495 . S
C511 H517 0.959 . S
C511 H518 0.961 . S
C511 H519 0.960 . S
C512 C510 1.381 . S
C512 C513 1.394 . S
C512 H520 0.930 . S
C513 C512 1.394 . S
C513 C514 1.383 . S
C513 H521 0.929 . S
C514 C513 1.383 . S
C514 C515 1.377 . S
C515 H499 0.930 . S
C515 C514 1.377 . S
C515 C516 1.379 . S
C516 H500 0.931 . S
C516 C510 1.383 . S
C516 C515 1.379 . S
H517 C511 0.959 . S
H518 C511 0.961 . S
H519 C511 0.960 . S
H520 C512 0.930 . S
H521 C513 0.929 . S
H522 C530 0.929 . S
H523 C532 0.930 . S
H524 C534 0.930 . S
H525 C537 0.929 . S
H526 C540 0.930 . S
H527 C542 0.960 . S
H528 C542 0.960 . S
H529 C542 0.960 . S
C530 H522 0.929 . S
C530 C531 1.377 . S
C530 C532 1.384 . S
C531 C530 1.377 . S
C531 C537 1.390 . S
C532 H523 0.930 . S
C532 C530 1.384 . S
C532 C533 1.372 . S
C533 C532 1.372 . S
C533 C534 1.400 . S
C533 C538 1.490 . S
C534 H524 0.930 . S
C534 C533 1.400 . S
C534 C537 1.386 . S
H535 C551 0.930 . S
H536 C552 0.931 . S
C537 H525 0.929 . S
C537 C531 1.390 . S
C537 C534 1.386 . S
C538 C533 1.490 . S
C538 C540 1.395 . S
C538 C541 1.403 . S
H539 C545 0.930 . S
C540 H526 0.930 . S
C540 C538 1.395 . S
C540 C543 1.403 . S
C541 C538 1.403 . S
C541 C542 1.524 . S
C541 C545 1.400 . S
C542 H527 0.960 . S
C542 H528 0.960 . S
C542 H529 0.960 . S
C542 C541 1.524 . S
C543 C540 1.403 . S
C543 C544 1.392 . S
C543 C547 1.495 . S
C544 C543 1.392 . S
C544 C545 1.385 . S
C544 C546 1.478 . S
C545 H539 0.930 . S
C545 C541 1.400 . S
C545 C544 1.385 . S
C546 C544 1.478 . S
C546 C548 1.381 1_565 S
C546 C552 1.383 . S
C547 C543 1.495 . S
C547 H553 0.959 . S
C547 H554 0.961 . S
C547 H555 0.960 . S
C548 C546 1.381 1_545 S
C548 C549 1.394 . S
C548 H556 0.930 . S
C549 C548 1.394 . S
C549 C550 1.383 . S
C549 H557 0.929 . S
C550 C549 1.383 . S
C550 C551 1.377 1_545 S
C551 H535 0.930 . S
C551 C550 1.377 1_565 S
C551 C552 1.379 . S
C552 H536 0.931 . S
C552 C546 1.383 . S
C552 C551 1.379 . S
H553 C547 0.959 . S
H554 C547 0.961 . S
H555 C547 0.960 . S
H556 C548 0.930 . S
H557 C549 0.929 . S
H558 C566 0.929 . S
H559 C568 0.930 . S
H560 C570 0.930 . S
H561 C573 0.929 . S
H562 C576 0.930 . S
H563 C578 0.960 . S
H564 C578 0.960 . S
H565 C578 0.960 . S
C566 H558 0.929 . S
C566 C567 1.377 . S
C566 C568 1.384 . S
C567 C566 1.377 . S
C567 C573 1.390 . S
C568 H559 0.930 . S
C568 C566 1.384 . S
C568 C569 1.372 . S
C569 C568 1.372 . S
C569 C570 1.400 . S
C569 C574 1.490 . S
C570 H560 0.930 . S
C570 C569 1.400 . S
C570 C573 1.386 . S
H571 C587 0.930 . S
H572 C588 0.931 . S
C573 H561 0.929 . S
C573 C567 1.390 . S
C573 C570 1.386 . S
C574 C569 1.490 . S
C574 C576 1.395 . S
C574 C577 1.403 . S
H575 C581 0.930 . S
C576 H562 0.930 . S
C576 C574 1.395 . S
C576 C579 1.403 . S
C577 C574 1.403 . S
C577 C578 1.524 . S
C577 C581 1.400 . S
C578 H563 0.960 . S
C578 H564 0.960 . S
C578 H565 0.960 . S
C578 C577 1.524 . S
C579 C576 1.403 . S
C579 C580 1.392 . S
C579 C583 1.495 . S
C580 C579 1.392 . S
C580 C581 1.385 . S
C580 C582 1.478 . S
C581 H575 0.930 . S
C581 C577 1.400 . S
C581 C580 1.385 . S
C582 C580 1.478 . S
C582 C584 1.381 . S
C582 C588 1.383 . S
C583 C579 1.495 . S
C583 H589 0.959 . S
C583 H590 0.961 . S
C583 H591 0.960 1_545 S
C584 C582 1.381 . S
C584 C585 1.394 . S
C584 H592 0.930 . S
C585 C584 1.394 . S
C585 C586 1.383 . S
C585 H593 0.929 . S
C586 C585 1.383 . S
C586 C587 1.377 . S
C587 H571 0.930 . S
C587 C586 1.377 . S
C587 C588 1.379 . S
C588 H572 0.931 . S
C588 C582 1.383 . S
C588 C587 1.379 . S
H589 C583 0.959 . S
H590 C583 0.961 . S
H591 C583 0.960 1_565 S
H592 C584 0.930 . S
H593 C585 0.929 . S
H594 C602 0.929 . S
H595 C604 0.930 1_455 S
H596 C606 0.930 . S
H597 C609 0.929 . S
H598 C612 0.930 1_455 S
H599 C614 0.960 . S
H600 C614 0.960 . S
H601 C614 0.960 . S
C602 H594 0.929 . S
C602 C603 1.377 1_455 S
C602 C604 1.384 1_455 S
C603 C602 1.377 1_655 S
C603 C609 1.390 . S
C604 H595 0.930 1_655 S
C604 C602 1.384 1_655 S
C604 C605 1.372 . S
C605 C604 1.372 . S
C605 C606 1.400 . S
C605 C610 1.490 . S
C606 H596 0.930 . S
C606 C605 1.400 . S
C606 C609 1.386 . S
H607 C623 0.930 . S
H608 C624 0.931 . S
C609 H597 0.929 . S
C609 C603 1.390 . S
C609 C606 1.386 . S
C610 C605 1.490 . S
C610 C612 1.395 . S
C610 C613 1.403 . S
H611 C617 0.930 . S
C612 H598 0.930 1_655 S
C612 C610 1.395 . S
C612 C615 1.403 . S
C613 C610 1.403 . S
C613 C614 1.524 . S
C613 C617 1.400 . S
C614 H599 0.960 . S
C614 H600 0.960 . S
C614 H601 0.960 . S
C614 C613 1.524 . S
C615 C612 1.403 . S
C615 C616 1.392 . S
C615 C619 1.495 1_655 S
C616 C615 1.392 . S
C616 C617 1.385 . S
C616 C618 1.478 . S
C617 H611 0.930 . S
C617 C613 1.400 . S
C617 C616 1.385 . S
C618 C616 1.478 . S
C618 C620 1.381 . S
C618 C624 1.383 . S
C619 C615 1.495 1_455 S
C619 H625 0.959 . S
C619 H626 0.961 . S
C619 H627 0.960 . S
C620 C618 1.381 . S
C620 C621 1.394 . S
C620 H628 0.930 . S
C621 C620 1.394 . S
C621 C622 1.383 . S
C621 H629 0.929 . S
C622 C621 1.383 . S
C622 C623 1.377 . S
C623 H607 0.930 . S
C623 C622 1.377 . S
C623 C624 1.379 . S
C624 H608 0.931 . S
C624 C618 1.383 . S
C624 C623 1.379 . S
H625 C619 0.959 . S
H626 C619 0.961 . S
H627 C619 0.960 . S
H628 C620 0.930 . S
H629 C621 0.929 . S
H630 C638 0.929 . S
H631 C640 0.930 . S
H632 C642 0.930 . S
H633 C645 0.929 . S
H634 C648 0.930 . S
H635 C650 0.960 . S
H636 C650 0.960 . S
H637 C650 0.960 . S
C638 H630 0.929 . S
C638 C639 1.377 . S
C638 C640 1.384 . S
C639 C638 1.377 . S
C639 C645 1.390 . S
C640 H631 0.930 . S
C640 C638 1.384 . S
C640 C641 1.372 . S
C641 C640 1.372 . S
C641 C642 1.400 . S
C641 C646 1.490 . S
C642 H632 0.930 . S
C642 C641 1.400 . S
C642 C645 1.386 . S
H643 C659 0.930 . S
H644 C660 0.931 . S
C645 H633 0.929 . S
C645 C639 1.390 . S
C645 C642 1.386 . S
C646 C641 1.490 . S
C646 C648 1.395 . S
C646 C649 1.403 . S
H647 C653 0.930 . S
C648 H634 0.930 . S
C648 C646 1.395 . S
C648 C651 1.403 . S
C649 C646 1.403 . S
C649 C650 1.524 . S
C649 C653 1.400 . S
C650 H635 0.960 . S
C650 H636 0.960 . S
C650 H637 0.960 . S
C650 C649 1.524 . S
C651 C648 1.403 . S
C651 C652 1.392 . S
C651 C655 1.495 . S
C652 C651 1.392 . S
C652 C653 1.385 . S
C652 C654 1.478 . S
C653 H647 0.930 . S
C653 C649 1.400 . S
C653 C652 1.385 . S
C654 C652 1.478 . S
C654 C656 1.381 . S
C654 C660 1.383 . S
C655 C651 1.495 . S
C655 H661 0.959 . S
C655 H662 0.961 . S
C655 H663 0.960 . S
C656 C654 1.381 . S
C656 C657 1.394 . S
C656 H664 0.930 . S
C657 C656 1.394 . S
C657 C658 1.383 . S
C657 H665 0.929 . S
C658 C657 1.383 . S
C658 C659 1.377 . S
C659 H643 0.930 . S
C659 C658 1.377 . S
C659 C660 1.379 . S
C660 H644 0.931 . S
C660 C654 1.383 . S
C660 C659 1.379 . S
H661 C655 0.959 . S
H662 C655 0.961 . S
H663 C655 0.960 . S
H664 C656 0.930 . S
H665 C657 0.929 . S
H666 C674 0.929 . S
H667 C676 0.930 . S
H668 C678 0.930 . S
H669 C681 0.929 . S
H670 C684 0.930 . S
H671 C686 0.960 . S
H672 C686 0.960 1_455 S
H673 C686 0.960 . S
C674 H666 0.929 . S
C674 C675 1.377 . S
C674 C676 1.384 . S
C675 C674 1.377 . S
C675 C681 1.390 . S
C676 H667 0.930 . S
C676 C674 1.384 . S
C676 C677 1.372 . S
C677 C676 1.372 . S
C677 C678 1.400 . S
C677 C682 1.490 . S
C678 H668 0.930 . S
C678 C677 1.400 . S
C678 C681 1.386 . S
H679 C695 0.930 . S
H680 C696 0.931 . S
C681 H669 0.929 . S
C681 C675 1.390 . S
C681 C678 1.386 . S
C682 C677 1.490 . S
C682 C684 1.395 . S
C682 C685 1.403 . S
H683 C689 0.930 . S
C684 H670 0.930 . S
C684 C682 1.395 . S
C684 C687 1.403 . S
C685 C682 1.403 . S
C685 C686 1.524 1_455 S
C685 C689 1.400 1_455 S
C686 H671 0.960 . S
C686 H672 0.960 1_655 S
C686 H673 0.960 . S
C686 C685 1.524 1_655 S
C687 C684 1.403 . S
C687 C688 1.392 1_455 S
C687 C691 1.495 . S
C688 C687 1.392 1_655 S
C688 C689 1.385 . S
C688 C690 1.478 . S
C689 H683 0.930 . S
C689 C685 1.400 1_655 S
C689 C688 1.385 . S
C690 C688 1.478 . S
C690 C692 1.381 . S
C690 C696 1.383 . S
C691 C687 1.495 . S
C691 H697 0.959 . S
C691 H698 0.961 . S
C691 H699 0.960 . S
C692 C690 1.381 . S
C692 C693 1.394 . S
C692 H700 0.930 1_655 S
C693 C692 1.394 . S
C693 C694 1.383 . S
C693 H701 0.929 . S
C694 C693 1.383 . S
C694 C695 1.377 . S
C695 H679 0.930 . S
C695 C694 1.377 . S
C695 C696 1.379 . S
C696 H680 0.931 . S
C696 C690 1.383 . S
C696 C695 1.379 . S
H697 C691 0.959 . S
H698 C691 0.961 . S
H699 C691 0.960 . S
H700 C692 0.930 1_455 S
H701 C693 0.929 . S
H702 C710 0.929 . S
H703 C712 0.930 . S
H704 C714 0.930 . S
H705 C717 0.929 . S
H706 C720 0.930 . S
H707 C722 0.960 . S
H708 C722 0.960 . S
H709 C722 0.960 . S
C710 H702 0.929 . S
C710 C711 1.377 . S
C710 C712 1.384 . S
C711 C710 1.377 . S
C711 C717 1.390 . S
C712 H703 0.930 . S
C712 C710 1.384 . S
C712 C713 1.372 . S
C713 C712 1.372 . S
C713 C714 1.400 . S
C713 C718 1.490 . S
C714 H704 0.930 . S
C714 C713 1.400 . S
C714 C717 1.386 . S
H715 C731 0.930 . S
H716 C732 0.931 . S
C717 H705 0.929 . S
C717 C711 1.390 . S
C717 C714 1.386 . S
C718 C713 1.490 . S
C718 C720 1.395 . S
C718 C721 1.403 . S
H719 C725 0.930 . S
C720 H706 0.930 . S
C720 C718 1.395 . S
C720 C723 1.403 . S
C721 C718 1.403 . S
C721 C722 1.524 . S
C721 C725 1.400 . S
C722 H707 0.960 . S
C722 H708 0.960 . S
C722 H709 0.960 . S
C722 C721 1.524 . S
C723 C720 1.403 . S
C723 C724 1.392 . S
C723 C727 1.495 . S
C724 C723 1.392 . S
C724 C725 1.385 . S
C724 C726 1.478 . S
C725 H719 0.930 . S
C725 C721 1.400 . S
C725 C724 1.385 . S
C726 C724 1.478 . S
C726 C728 1.381 . S
C726 C732 1.383 . S
C727 C723 1.495 . S
C727 H733 0.959 . S
C727 H734 0.961 . S
C727 H735 0.960 . S
C728 C726 1.381 . S
C728 C729 1.394 . S
C728 H736 0.930 . S
C729 C728 1.394 . S
C729 C730 1.383 . S
C729 H737 0.929 . S
C730 C729 1.383 . S
C730 C731 1.377 . S
C731 H715 0.930 . S
C731 C730 1.377 . S
C731 C732 1.379 . S
C732 H716 0.931 . S
C732 C726 1.383 . S
C732 C731 1.379 . S
H733 C727 0.959 . S
H734 C727 0.961 . S
H735 C727 0.960 . S
H736 C728 0.930 . S
H737 C729 0.929 . S
H738 C746 0.929 . S
H739 C748 0.930 . S
H740 C750 0.925 1_545 S
H741 C753 0.929 . S
H742 C756 0.930 . S
H743 C758 0.960 . S
H744 C758 0.960 . S
H745 C758 0.960 . S
C746 H738 0.929 . S
C746 C747 1.377 . S
C746 C748 1.384 . S
C747 C746 1.377 . S
C747 C753 1.390 . S
C748 H739 0.930 . S
C748 C746 1.384 . S
C748 C749 1.372 . S
C749 C748 1.372 . S
C749 C750 1.400 . S
C749 C754 1.491 1_565 S
C750 H740 0.925 1_565 S
C750 C749 1.400 . S
C750 C753 1.386 . S
H751 C767 0.930 . S
H752 C768 0.931 . S
C753 H741 0.929 . S
C753 C747 1.390 . S
C753 C750 1.386 . S
C754 C749 1.491 1_545 S
C754 C756 1.395 1_545 S
C754 C757 1.401 . S
H755 C761 0.930 . S
C756 H742 0.930 . S
C756 C754 1.395 1_565 S
C756 C759 1.400 1_565 S
C757 C754 1.401 . S
C757 C758 1.524 . S
C757 C761 1.400 . S
C758 H743 0.960 . S
C758 H744 0.960 . S
C758 H745 0.960 . S
C758 C757 1.524 . S
C759 C756 1.400 1_545 S
C759 C760 1.401 . S
C759 C763 1.491 1_545 S
C760 C759 1.401 . S
C760 C761 1.385 . S
C760 C762 1.478 . S
C761 H755 0.930 . S
C761 C757 1.400 . S
C761 C760 1.385 . S
C762 C760 1.478 . S
C762 C764 1.381 . S
C762 C768 1.383 . S
C763 C759 1.491 1_565 S
C763 H769 0.959 . S
C763 H770 0.961 . S
C763 H771 0.960 . S
C764 C762 1.381 . S
C764 C765 1.394 . S
C764 H772 0.930 . S
C765 C764 1.394 . S
C765 C766 1.383 . S
C765 H773 0.929 . S
C766 C765 1.383 . S
C766 C767 1.377 . S
C767 H751 0.930 . S
C767 C766 1.377 . S
C767 C768 1.379 . S
C768 H752 0.931 . S
C768 C762 1.383 . S
C768 C767 1.379 . S
H769 C763 0.959 . S
H770 C763 0.961 . S
H771 C763 0.960 . S
H772 C764 0.930 . S
H773 C765 0.929 . S
C135 C32 0.848 . S
C154 C5 0.771 . S
C171 C18 0.835 . S
C190 C4 0.844 1_556 S
C207 C19 0.651 . S
C226 C33 0.608 . S
C243 C75 0.771 . S
C262 C46 0.756 . S
C279 C60 0.704 . S
C298 C47 0.759 . S
C315 C61 0.807 . S
C334 C74 0.837 . S
C351 C89 0.682 . S
C370 C116 0.656 . S
C387 C88 0.903 . S
C406 C102 0.903 . S
C423 C103 0.668 . S
C442 C117 0.701 . S
C459 C11 1.265 . S
C478 C109 1.275 . S
C495 C26 1.233 . S
C514 C124 1.236 . S
C531 C96 1.240 . S
C550 C39 1.240 . S
C567 C68 1.253 . S
C586 C40 1.253 . S
C603 C12 1.396 1_655 S
C622 C82 1.397 . S
C639 C54 1.244 . S
C658 C25 1.237 . S
C675 C110 1.270 . S
C694 C81 1.255 . S
C711 C53 1.121 . S
C730 C123 1.121 . S
C747 C95 1.255 . S
C766 C67 1.243 . S
