# Generated by pormake.
# Topology xfu, (5)-cn, num edge types: 1
# Building blocks:
#     Node 0, Type 0, BuildingBlock: XOMCOT_clean_sbu_1, # of connection points: 5
#     Node 1, Type 0, BuildingBlock: XOMCOT_clean_sbu_1, # of connection points: 5
#     Node 2, Type 0, BuildingBlock: XOMCOT_clean_sbu_1, # of connection points: 5
#     Node 3, Type 0, BuildingBlock: XOMCOT_clean_sbu_1, # of connection points: 5
#     Node 4, Type 0, BuildingBlock: XOMCOT_clean_sbu_1, # of connection points: 5
#     Node 5, Type 0, BuildingBlock: XOMCOT_clean_sbu_1, # of connection points: 5
#     Node 6, Type 0, BuildingBlock: XOMCOT_clean_sbu_1, # of connection points: 5
#     Node 7, Type 0, BuildingBlock: XOMCOT_clean_sbu_1, # of connection points: 5
#     Edge 8, Type (0, 0), BuildingBlock: OJICUG_clean_linker_0, # of connection points: 2
#     Edge 9, Type (0, 0), BuildingBlock: OJICUG_clean_linker_0, # of connection points: 2
#     Edge 10, Type (0, 0), BuildingBlock: OJICUG_clean_linker_0, # of connection points: 2
#     Edge 11, Type (0, 0), BuildingBlock: OJICUG_clean_linker_0, # of connection points: 2
#     Edge 12, Type (0, 0), BuildingBlock: OJICUG_clean_linker_0, # of connection points: 2
#     Edge 13, Type (0, 0), BuildingBlock: OJICUG_clean_linker_0, # of connection points: 2
#     Edge 14, Type (0, 0), BuildingBlock: OJICUG_clean_linker_0, # of connection points: 2
#     Edge 15, Type (0, 0), BuildingBlock: OJICUG_clean_linker_0, # of connection points: 2
#     Edge 16, Type (0, 0), BuildingBlock: OJICUG_clean_linker_0, # of connection points: 2
#     Edge 17, Type (0, 0), BuildingBlock: OJICUG_clean_linker_0, # of connection points: 2
#     Edge 18, Type (0, 0), BuildingBlock: OJICUG_clean_linker_0, # of connection points: 2
#     Edge 19, Type (0, 0), BuildingBlock: OJICUG_clean_linker_0, # of connection points: 2
#     Edge 20, Type (0, 0), BuildingBlock: OJICUG_clean_linker_0, # of connection points: 2
#     Edge 21, Type (0, 0), BuildingBlock: OJICUG_clean_linker_0, # of connection points: 2
#     Edge 22, Type (0, 0), BuildingBlock: OJICUG_clean_linker_0, # of connection points: 2
#     Edge 23, Type (0, 0), BuildingBlock: OJICUG_clean_linker_0, # of connection points: 2
#     Edge 24, Type (0, 0), BuildingBlock: OJICUG_clean_linker_0, # of connection points: 2
#     Edge 25, Type (0, 0), BuildingBlock: OJICUG_clean_linker_0, # of connection points: 2
#     Edge 26, Type (0, 0), BuildingBlock: OJICUG_clean_linker_0, # of connection points: 2
#     Edge 27, Type (0, 0), BuildingBlock: OJICUG_clean_linker_0, # of connection points: 2
# Relax obj value: 0.509
# Max RMSD: 0.276
# Mean RMSD: 0.276
data_MOF--net-xfu--node1-XOMCOT_clean_sbu_1--edge1-OJICUG_clean_linker_0
_symmetry_space_group_name_H-M    P1
_symmetry_Int_Tables_number       1
_symmetry_cell_setting            triclinic
loop_
_symmetry_equiv_pos_as_xyz
'x, y, z'
_cell_length_a     20.281888
_cell_length_b     20.28703
_cell_length_c     44.204157
_cell_angle_alpha  89.995397
_cell_angle_beta   91.388556
_cell_angle_gamma 87.474518
loop_
_atom_site_label
_atom_site_type_symbol
_atom_site_fract_x
_atom_site_fract_y
_atom_site_fract_z
_atom_type_partial_charge
C0 C 0.91694 0.23771 0.65509 0.0
C1 C 0.92328 0.27345 0.68133 0.0
N2 N 0.95776 0.32698 0.67526 0.0
N3 N 0.94807 0.26833 0.63288 0.0
C4 C 0.97115 0.32323 0.64561 0.0
H5 H 0.89416 0.19074 0.65262 0.0
Co6 Co 0.96035 0.23436 0.59486 0.0
C7 C 0.08539 0.28214 0.57258 0.0
O8 O 0.09388 0.22189 0.56214 0.0
N9 N 0.96851 0.20155 0.55507 0.0
C10 C 0.96824 0.21325 0.50496 0.0
C11 C 0.95631 0.244 0.53175 0.0
C12 C 0.98819 0.14436 0.54145 0.0
N13 N 0.98886 0.15077 0.51089 0.0
O14 O 0.88646 0.29143 0.58078 0.0
H15 H 0.94347 0.29601 0.53396 0.0
H16 H 1.00495 0.1002 0.55354 0.0
O17 O 1.03029 0.2995 0.58518 0.0
C18 C 0.83125 0.2632 0.5813 0.0
O19 O 0.83163 0.20096 0.58957 0.0
N20 N 1.028 0.17582 0.61242 0.0
C21 C 0.09893 0.10349 0.65756 0.0
C22 C 0.11358 0.16826 0.65126 0.0
C23 C 0.07723 0.20361 0.62934 0.0
C24 C 1.01484 0.11117 0.61729 0.0
C25 C 0.05044 0.07359 0.63966 0.0
H26 H 0.08476 0.25571 0.62894 0.0
H27 H 0.97298 0.09023 0.60582 0.0
H28 H 1.00185 0.35697 0.63404 0.0
H29 H 0.90664 0.25954 0.70343 0.0
H30 H 0.96662 0.23661 0.48292 0.0
H31 H 0.1501 0.19328 0.6648 0.0
H32 H 0.03724 1.0235 0.64425 0.0
C33 C 0.80313 0.55429 0.10541 0.0
C34 C 0.76349 0.53528 0.1284 0.0
N35 N 0.80107 0.5003 0.14893 0.0
N36 N 0.86545 0.53212 0.11169 0.0
C37 C 0.8626 0.49878 0.13789 0.0
H38 H 0.78768 0.58293 0.08565 0.0
Co39 Co 0.94034 0.5378 0.08964 0.0
C40 C 0.93879 0.67422 0.063 0.0
O41 O 1.00309 0.67029 0.06745 0.0
N42 N 1.01667 0.53989 0.06645 0.0
C43 C 0.11598 0.53449 0.04591 0.0
C44 C 0.08227 0.53116 0.07246 0.0
C45 C 1.01215 0.54642 0.03613 0.0
N46 N 0.07144 0.54396 0.02315 0.0
O47 O 0.90194 0.47862 0.0602 0.0
H48 H 0.10536 0.52164 0.09429 0.0
H49 H 0.96568 0.5545 0.02386 0.0
O50 O 0.90452 0.62369 0.06927 0.0
C51 C 0.92791 0.42056 0.06481 0.0
O52 O 0.97735 0.41405 0.08452 0.0
N53 N 0.97751 0.5875 0.12096 0.0
C54 C 0.03744 0.65724 0.16712 0.0
C55 C 0.98017 0.68318 0.15249 0.0
C56 C 0.94962 0.64638 0.13018 0.0
C57 C 1.0274 0.55778 0.13789 0.0
C58 C 0.05952 0.59251 0.16072 0.0
H59 H 0.90332 0.66524 0.12053 0.0
H60 H 0.04247 0.50696 0.13358 0.0
H61 H 0.90554 0.47469 0.14873 0.0
H62 H 0.71164 0.54905 0.13043 0.0
H63 H 0.16892 0.52904 0.0435 0.0
H64 H 0.95894 0.73127 0.15841 0.0
H65 H 0.10165 0.56955 0.17276 0.0
C66 C 0.52808 0.478 0.64168 0.0
C67 C 0.54825 0.44444 0.66742 0.0
N68 N 0.52361 0.38388 0.66616 0.0
N69 N 0.49007 0.43923 0.62448 0.0
C70 C 0.48835 0.38207 0.63984 0.0
H71 H 0.54268 0.52654 0.63521 0.0
Co72 Co 0.46528 0.45955 0.58515 0.0
C73 C 0.3259 0.42623 0.57622 0.0
O74 O 0.319 0.48543 0.56412 0.0
N75 N 0.44527 0.47891 0.54469 0.0
C76 C 0.43301 0.45677 0.49562 0.0
C77 C 0.42066 0.43608 0.5243 0.0
C78 C 0.47415 0.52403 0.52773 0.0
N79 N 0.4678 0.51146 0.49785 0.0
O80 O 0.52375 0.38762 0.57216 0.0
H81 H 0.40157 0.38871 0.5297 0.0
H82 H 0.50725 0.5595 0.53702 0.0
O83 O 0.3837 0.40467 0.58602 0.0
C84 C 0.5808 0.41165 0.5696 0.0
O85 O 0.58517 0.47578 0.57259 0.0
N86 N 0.41626 0.53399 0.60003 0.0
C87 C 0.38296 0.63401 0.64095 0.0
C88 C 0.35073 0.57464 0.64106 0.0
C89 C 0.3705 0.52449 0.6217 0.0
C90 C 0.44383 0.59402 0.59769 0.0
C91 C 0.42872 0.64463 0.61841 0.0
H92 H 0.35484 0.47597 0.62721 0.0
H93 H 0.48429 0.60008 0.58273 0.0
H94 H 0.46311 0.33963 0.63145 0.0
H95 H 0.58049 0.46249 0.68513 0.0
H96 H 0.42267 0.43008 0.47497 0.0
H97 H 0.31774 0.56308 0.65907 0.0
H98 H 0.45659 0.68896 0.6185 0.0
C99 C 0.80671 0.15489 0.12818 0.0
C100 C 0.84372 0.16722 0.15369 0.0
N101 N 0.88643 0.11545 0.15884 0.0
N102 N 0.82586 0.09603 0.11646 0.0
C103 C 0.87509 0.07318 0.13554 0.0
H104 H 0.76607 0.18606 0.1195 0.0
Co105 Co 0.7784 0.06239 0.08317 0.0
C106 C 0.86202 0.95402 0.05497 0.0
O107 O 0.85716 0.9833 0.02845 0.0
N108 N 0.72802 1.03085 0.04994 0.0
C109 C 0.66765 0.96605 0.02061 0.0
C110 C 0.70584 0.9693 0.04667 0.0
C111 C 0.70243 0.06385 0.02543 0.0
N112 N 0.66527 1.02584 0.00733 0.0
O113 O 0.82684 0.1196 0.05717 0.0
H114 H 0.71577 0.92936 0.06256 0.0
H115 H 0.71067 0.1148 0.02061 0.0
O116 O 0.8406 0.98461 0.07837 0.0
C117 C 0.79813 0.17705 0.05457 0.0
O118 O 0.73736 0.18502 0.06406 0.0
N119 N 0.72998 1.01336 0.10994 0.0
C120 C 0.65844 0.95377 0.15418 0.0
C121 C 0.72497 0.93609 0.15061 0.0
C122 C 0.75999 0.96655 0.12846 0.0
C123 C 0.66483 1.0312 0.11305 0.0
C124 C 0.62753 1.00124 0.13503 0.0
H125 H 0.81187 0.9535 0.12712 0.0
H126 H 0.64217 0.06957 0.09876 0.0
H127 H 0.89956 1.02509 0.13325 0.0
H128 H 0.83759 0.21047 0.1678 0.0
H129 H 0.64201 0.92349 0.01263 0.0
H130 H 0.75 0.89956 0.16523 0.0
H131 H 0.57594 1.01585 0.13749 0.0
C132 C 0.18931 0.9146 0.27716 0.0
C133 C 0.18731 0.88061 0.25032 0.0
N134 N 0.15293 0.82617 0.25454 0.0
N135 N 0.15565 0.88198 0.29788 0.0
C136 C 0.13483 0.82784 0.28365 0.0
H137 H 0.21207 0.96112 0.28119 0.0
Co138 Co 0.1418 0.91179 0.33639 0.0
C139 C 1.01602 0.86051 0.35679 0.0
O140 O 1.00778 0.91829 0.36981 0.0
N141 N 0.13215 0.94087 0.37661 0.0
C142 C 0.13087 0.92648 0.42653 0.0
C143 C 0.14394 0.8972 0.39948 0.0
C144 C 0.11174 0.9972 0.3907 0.0
N145 N 0.11004 0.98914 0.42114 0.0
O146 O 0.21488 0.85327 0.34982 0.0
H147 H 0.15743 0.84547 0.39671 0.0
H148 H 0.09531 0.04193 0.37894 0.0
O149 O 0.0713 0.84577 0.34377 0.0
C150 C 0.26967 0.88238 0.35037 0.0
O151 O 0.26833 0.94588 0.34436 0.0
N152 N 0.07567 0.97219 0.31943 0.0
C153 C 1.01786 0.04394 0.27074 0.0
C154 C 0.99571 0.98237 0.27827 0.0
C155 C 1.02589 0.94692 0.30193 0.0
C156 C 0.0942 1.03505 0.31399 0.0
C157 C 0.06572 0.07212 0.28959 0.0
H158 H 1.01506 0.89563 0.30234 0.0
H159 H 0.13637 0.05363 0.32617 0.0
H160 H 0.10402 0.79223 0.29388 0.0
H161 H 0.20807 0.89553 0.22919 0.0
H162 H 0.13204 0.90207 0.44833 0.0
H163 H 0.95955 0.95871 0.26396 0.0
H164 H 0.08453 0.1197 0.28413 0.0
C165 C 0.36219 0.57293 0.80246 0.0
C166 C 0.39607 0.59542 0.77814 0.0
N167 N 0.35616 0.6388 0.7623 0.0
N168 N 0.30101 0.60139 0.80166 0.0
C169 C 0.29905 0.64161 0.77743 0.0
H170 H 0.38064 0.53753 0.81924 0.0
Co171 Co 0.23152 0.59578 0.82716 0.0
C172 C 0.23686 0.45889 0.85358 0.0
O173 O 0.17208 0.4633 0.85201 0.0
N174 N 0.1605 0.59399 0.85362 0.0
C175 C 0.06432 0.59946 0.87684 0.0
C176 C 0.09451 0.60455 0.84954 0.0
C177 C 0.16899 0.58522 0.88374 0.0
N178 N 0.11141 0.58706 0.89823 0.0
O179 O 0.27691 0.65285 0.85517 0.0
H180 H 0.06876 0.61641 0.82856 0.0
H181 H 0.21675 0.57549 0.89468 0.0
O182 O 0.27001 0.5089 0.84546 0.0
C183 C 0.25043 0.71115 0.8521 0.0
O184 O 0.19711 0.71864 0.83472 0.0
N185 N 0.18668 0.54847 0.79725 0.0
C186 C 0.11073 0.48447 0.75446 0.0
C187 C 0.16868 0.4537 0.76649 0.0
C188 C 0.20731 0.48761 0.78712 0.0
C189 C 0.13647 0.58248 0.78229 0.0
C190 C 0.09636 0.55084 0.7613 0.0
H191 H 0.25359 0.46469 0.79483 0.0
H192 H 0.12654 0.63411 0.78726 0.0
H193 H 0.25559 0.67152 0.77094 0.0
H194 H 0.44521 0.57844 0.77195 0.0
H195 H 1.0119 0.60541 0.88069 0.0
H196 H 0.18398 0.40396 0.75998 0.0
H197 H 0.05377 0.57735 0.75126 0.0
C198 C 0.55882 0.69896 0.27347 0.0
C199 C 0.54554 0.73645 0.24806 0.0
N200 N 0.58461 0.78852 0.24898 0.0
N201 N 0.6061 0.72698 0.29033 0.0
C202 C 0.62066 0.78171 0.27505 0.0
H203 H 0.53538 0.65406 0.27944 0.0
Co204 Co 0.63392 0.69328 0.32744 0.0
C205 C 0.77499 0.72164 0.33573 0.0
O206 O 0.78235 0.65849 0.3423 0.0
N207 N 0.65713 0.66016 0.36585 0.0
C208 C 0.67424 0.66763 0.41561 0.0
C209 C 0.68671 0.69473 0.38819 0.0
C210 C 0.62549 0.61323 0.3806 0.0
N211 N 0.63438 0.61739 0.41084 0.0
O212 O 0.57742 0.76005 0.34628 0.0
H213 H 0.70837 0.742 0.38551 0.0
H214 H 0.58854 0.58352 0.36996 0.0
O215 O 0.71649 0.74719 0.32936 0.0
C216 C 0.5206 0.73528 0.34846 0.0
O217 O 0.51516 0.67304 0.34099 0.0
N218 N 0.68098 0.62488 0.30689 0.0
C219 C 0.72843 0.53136 0.26573 0.0
C220 C 0.74838 0.5962 0.26468 0.0
C221 C 0.7224 0.64238 0.28455 0.0
C222 C 0.66153 0.56134 0.30859 0.0
C223 C 0.68444 0.5135 0.28792 0.0
H224 H 0.73304 0.69328 0.28069 0.0
H225 H 0.62438 0.54853 0.32431 0.0
H226 H 0.65793 0.81488 0.28265 0.0
H227 H 0.5098 0.72596 0.23034 0.0
H228 H 0.68698 0.68819 0.43748 0.0
H229 H 0.77962 0.61258 0.24684 0.0
H230 H 0.66581 0.46431 0.28838 0.0
C231 C 0.3582 0.9846 0.78165 0.0
C232 C 0.31472 0.9737 0.75815 0.0
N233 N 0.26764 1.02275 0.7576 0.0
N234 N 0.33909 0.03986 0.7965 0.0
C235 C 0.28323 0.06182 0.78153 0.0
H236 H 0.40265 0.9551 0.78688 0.0
Co237 Co 0.39241 0.07176 0.8282 0.0
C238 C 0.31433 0.17925 0.86039 0.0
O239 O 0.32499 0.15049 0.88678 0.0
N240 N 0.44835 0.10173 0.85984 0.0
C241 C 0.51153 0.16577 0.88819 0.0
C242 C 0.47062 0.16327 0.863 0.0
C243 C 0.47686 0.06788 0.88349 0.0
N244 N 0.51556 0.10553 0.90105 0.0
O245 O 0.34995 1.01241 0.85532 0.0
H246 H 0.45824 0.20395 0.8478 0.0
H247 H 0.4691 1.01675 0.8882 0.0
O248 O 0.33084 0.14844 0.83624 0.0
C249 C 0.37962 0.95523 0.85567 0.0
O250 O 0.43753 0.94887 0.843 0.0
N251 N 0.43471 0.12358 0.80022 0.0
C252 C 0.49668 0.19582 0.75692 0.0
C253 C 0.42947 0.2065 0.76174 0.0
C254 C 0.39926 0.16958 0.78325 0.0
C255 C 0.50031 0.11117 0.79531 0.0
C256 C 0.53282 0.14752 0.77369 0.0
H257 H 0.34693 0.17809 0.78581 0.0
H258 H 0.52735 0.07316 0.80825 0.0
H259 H 0.25662 0.10733 0.78718 0.0
H260 H 0.31917 0.93342 0.74222 0.0
H261 H 0.53724 0.20839 0.89604 0.0
H262 H 0.4003 0.24312 0.74875 0.0
H263 H 0.58501 0.13805 0.77008 0.0
C264 C 1.0257 0.07321 0.43605 0.0
C265 C 0.08111 1.03221 0.44345 0.0
H266 H 0.95099 0.14099 0.45221 0.0
C267 C 0.10404 1.02861 0.47375 0.0
H268 H 1.00601 0.07565 0.41307 0.0
C269 C 0.07224 0.06537 0.49623 0.0
C270 C 1.01701 0.10663 0.48879 0.0
H271 H 0.14688 0.99743 0.48002 0.0
H272 H 0.09203 0.06304 0.51918 0.0
C273 C 0.99384 0.10985 0.45852 0.0
C274 C 0.03551 0.53453 -0.03013 0.0
C275 C 0.0834 0.55199 -0.00844 0.0
H276 H 1.00723 0.53177 0.92308 0.0
C277 C 0.14149 0.57988 -0.01799 0.0
H278 H 0.9909 0.51161 -0.02349 0.0
C279 C 0.15084 0.59135 0.95134 0.0
C280 C 0.10221 0.57513 0.92977 0.0
H281 H 0.17882 0.59448 -0.00172 0.0
H282 H 0.19539 0.61422 0.94457 0.0
C283 C 0.04475 0.54617 0.9393 0.0
C284 C 0.52969 0.49996 0.45061 0.0
C285 C 0.50632 0.53921 0.47467 0.0
H286 H 0.5902 0.49449 0.41152 0.0
C287 C 0.52537 0.60456 0.47717 0.0
H288 H 0.51687 0.44899 0.44834 0.0
C289 C 0.56811 0.62988 0.45645 0.0
C290 C 0.59243 0.5903 0.43277 0.0
H291 H 0.50737 0.63599 0.49525 0.0
H292 H 0.58122 0.6808 0.45871 0.0
C293 C 0.57222 0.5255 0.42975 0.0
C294 C 0.57516 1.01907 0.93207 0.0
C295 C 0.55364 0.08538 0.92779 0.0
H296 H 0.6283 0.94838 -0.03963 0.0
C297 C 0.57003 0.13172 0.95007 0.0
H298 H 0.5645 0.98219 0.91519 0.0
C299 C 0.60674 0.1123 -0.02401 0.0
C300 C 0.62816 0.04599 -0.01968 0.0
H301 H 0.5535 0.18296 0.94779 0.0
H302 H 0.61716 0.14922 -0.00711 0.0
C303 C 0.61191 0.99964 0.95801 0.0
C304 C 0.1673 0.08427 0.73733 0.0
C305 C 0.21786 1.03534 0.73384 0.0
H306 H 0.08905 0.14299 0.71588 0.0
C307 C 0.22135 1.00192 0.70577 0.0
H308 H 0.16159 0.11028 0.75851 0.0
C309 C 0.17867 1.02002 0.68146 0.0
C310 C 0.1316 0.07191 0.68457 0.0
H311 H 0.25915 0.96399 0.70176 0.0
H312 H 0.18536 0.99641 0.6597 0.0
C313 C 0.125 0.10249 0.71297 0.0
C314 C 0.11904 0.71569 0.23928 0.0
C315 C 0.13055 0.78145 0.23181 0.0
H316 H 0.08058 0.62412 0.22436 0.0
C317 C 0.11522 0.80444 0.20245 0.0
H318 H 0.13095 0.69687 0.26176 0.0
C319 C 0.08645 0.76322 0.18125 0.0
C320 C 0.07294 0.69818 0.189 0.0
H321 H 0.12284 0.85509 0.19622 0.0
H322 H 0.07363 0.78253 0.15892 0.0
C323 C 0.09073 0.67413 0.21793 0.0
C324 C 0.31317 0.6847 0.71333 0.0
C325 C 0.36705 0.66468 0.73243 0.0
H326 H 0.27701 0.69466 0.66763 0.0
C327 C 0.43043 0.66062 0.72009 0.0
H328 H 0.26369 0.69034 0.72175 0.0
C329 C 0.43789 0.66416 0.6888 0.0
C330 C 0.38204 0.67157 0.66951 0.0
H331 H 0.47359 0.64844 0.73418 0.0
H332 H 0.48591 0.65142 0.67967 0.0
C333 C 0.32076 0.68846 0.68209 0.0
C334 C 0.62155 0.89668 0.23199 0.0
C335 C 0.59141 0.837 0.22556 0.0
H336 H 0.66554 0.98181 0.2138 0.0
C337 C 0.57293 0.82308 0.19537 0.0
H338 H 0.63507 0.90978 0.25496 0.0
C339 C 0.58901 0.86523 0.17199 0.0
C340 C 0.62363 0.92184 0.17843 0.0
H341 H 0.55001 0.7776 0.18942 0.0
H342 H 0.57885 0.85108 0.14875 0.0
C343 C 0.63799 0.93852 0.20856 0.0
C344 C 1.00923 1.03653 0.21456 0.0
C345 C 0.99552 0.07221 0.24114 0.0
H346 H 0.98661 1.02271 0.16755 0.0
C347 C 0.95056 0.12642 0.23961 0.0
H348 H 0.04357 0.99404 0.21529 0.0
C349 C 0.91686 0.14229 0.21235 0.0
C350 C 0.9274 0.10419 0.18592 0.0
H351 H 0.93836 0.15387 0.25989 0.0
H352 H 0.8801 0.18241 0.2127 0.0
C353 C 0.97585 0.05245 0.18727 0.0
C354 C 0.04118 0.47272 0.70741 0.0
C355 C 0.06591 0.44683 0.73506 0.0
H356 H 0.98602 0.45425 0.66659 0.0
C357 C 0.04917 0.3834 0.74395 0.0
H358 H 0.05346 0.52156 0.70012 0.0
C359 C 1.01057 0.34531 0.72496 0.0
C360 C 0.98837 0.36983 0.69666 0.0
H361 H 0.06699 0.3628 0.7654 0.0
H362 H 1.00088 0.29553 0.73184 0.0
C363 C 1.00291 0.4343 0.68827 0.0
C364 C 0.8116 0.47937 0.23264 0.0
C365 C 0.74486 0.48944 0.23961 0.0
H366 H 0.88247 0.47561 0.19802 0.0
C367 C 0.69669 0.48403 0.21656 0.0
H368 H 0.84952 0.48362 0.25015 0.0
C369 C 0.71537 0.48018 0.18637 0.0
C370 C 0.78241 0.48183 0.17898 0.0
H371 H 0.64482 0.49177 0.22146 0.0
H372 H 0.67714 0.48211 0.16886 0.0
C373 C 0.83034 0.47571 0.20253 0.0
C374 C 0.52009 0.2187 0.70357 0.0
C375 C 0.52616 0.23668 0.73406 0.0
H376 H 0.51563 0.25187 0.65764 0.0
C377 C 0.54071 0.30148 0.74171 0.0
H378 H 0.50751 0.16903 0.69738 0.0
C379 C 0.54371 0.34921 0.71919 0.0
C380 C 0.53183 0.33279 0.68868 0.0
H381 H 0.54381 0.31639 0.76523 0.0
H382 H 0.55028 0.39977 0.72597 0.0
C383 C 0.52322 0.26642 0.68097 0.0
C384 C 0.70681 0.2678 0.57841 0.0
C385 C 0.76685 0.29944 0.5749 0.0
H386 H 0.60081 0.27775 0.57928 0.0
C387 C 0.76413 0.36625 0.56666 0.0
H388 H 0.70686 0.21617 0.58464 0.0
C389 C 0.70325 0.40119 0.56333 0.0
C390 C 0.64331 0.37044 0.56824 0.0
H391 H 0.80908 0.39211 0.56355 0.0
H392 H 0.70341 0.45321 0.55782 0.0
C393 C 0.64576 0.30288 0.57515 0.0
C394 C 0.93434 0.29856 0.05573 0.0
C395 C 0.89778 0.35931 0.0535 0.0
H396 H 0.93203 0.19289 0.05724 0.0
C397 C 0.83041 0.35841 0.04568 0.0
H398 H 0.98659 0.29745 0.06151 0.0
C399 C 0.7992 0.29816 0.04319 0.0
C400 C 0.83465 0.23753 0.04833 0.0
H401 H 0.80078 0.40404 0.04385 0.0
H402 H 0.74623 0.29933 0.03926 0.0
C403 C 0.90321 0.23836 0.0531 0.0
C404 C 0.45542 0.84406 0.35155 0.0
C405 C 0.45875 0.77511 0.35423 0.0
H406 H 0.39314 0.93195 0.34837 0.0
C407 C 0.39968 0.74252 0.35874 0.0
H408 H 0.49969 0.87067 0.34792 0.0
C409 C 0.3385 0.77732 0.35873 0.0
C410 C 0.33467 0.84581 0.35434 0.0
H411 H 0.4003 0.68935 0.36113 0.0
H412 H 0.29408 0.75021 0.36112 0.0
C413 C 0.39406 0.87901 0.35163 0.0
C414 C 0.27708 0.89269 0.86369 0.0
C415 C 0.34614 0.89398 0.86371 0.0
H416 H 0.19266 0.83312 0.86063 0.0
C417 C 0.3832 0.8335 0.86601 0.0
H418 H 0.24704 0.93807 0.8619 0.0
C419 C 0.35207 0.77305 0.86531 0.0
C420 C 0.28319 0.77186 0.86213 0.0
H421 H 0.43665 0.83269 0.8663 0.0
H422 H 0.38215 0.72762 0.86473 0.0
C423 C 0.24601 0.83231 0.86284 0.0
C424 C 0.26719 0.31985 0.57891 0.0
C425 C 0.26506 0.38877 0.5791 0.0
H426 H 0.21216 0.23268 0.57651 0.0
C427 C 0.20277 0.42304 0.57938 0.0
H428 H 0.31407 0.29212 0.57871 0.0
C429 C 0.14388 0.38916 0.57834 0.0
C430 C 0.14607 0.32029 0.57635 0.0
H431 H 0.19945 0.47646 0.57987 0.0
H432 H 0.09695 0.41681 0.578 0.0
C433 C 0.20846 0.28608 0.57733 0.0
C434 C 0.86011 0.77028 0.07575 0.0
C435 C 0.90923 0.74212 0.05721 0.0
H436 H 0.80846 0.85899 0.09045 0.0
C437 C 0.94126 0.78431 0.03751 0.0
H438 H 0.83487 0.73982 0.09146 0.0
C439 C 0.9257 0.85254 0.03669 0.0
C440 C 0.87929 0.88134 0.05637 0.0
H441 H 0.98011 0.7646 0.02326 0.0
H442 H 0.95154 0.88314 0.02123 0.0
C443 C 0.84596 0.83906 0.0756 0.0
C444 C 0.89752 0.72865 0.33214 0.0
C445 C 0.83541 0.76029 0.33757 0.0
H446 H 1.00328 0.73486 0.3337 0.0
C447 C 0.8335 0.825 0.3484 0.0
H448 H 0.90053 0.67848 0.32372 0.0
C449 C 0.89235 0.85639 0.35485 0.0
C450 C 0.95478 0.82436 0.35017 0.0
H451 H 0.78673 0.85032 0.35311 0.0
H452 H 0.88855 0.90619 0.36365 0.0
C453 C 0.95653 0.76053 0.33806 0.0
C454 C 0.32633 0.2936 0.83837 0.0
C455 C 0.29698 0.2519 0.85928 0.0
H456 H 0.33393 0.39233 0.82119 0.0
C457 C 0.25471 0.28126 0.88062 0.0
H458 H 0.36077 0.27329 0.8222 0.0
C459 C 0.23905 0.34947 0.8799 0.0
C460 C 0.267 0.39101 0.85856 0.0
H461 H 0.23208 0.25111 0.89736 0.0
H462 H 0.2033 0.36967 0.89561 0.0
C463 C 0.31212 0.36232 0.83822 0.0
loop_
_geom_bond_atom_site_label_1
_geom_bond_atom_site_label_2
_geom_bond_distance
_geom_bond_site_symmetry_2
_ccdc_geom_bond_type
C0 C1 1.351 1_655 S
C0 N3 1.368 1_655 S
C0 H5 0.931 . S
C1 C0 1.351 1_455 S
C1 N2 1.373 . S
C1 H29 0.930 1_455 S
N2 C1 1.373 . S
N2 C4 1.340 . S
N3 C0 1.368 1_455 S
N3 C4 1.321 . S
N3 Co6 2.135 . S
C4 N2 1.340 . S
C4 N3 1.321 . S
C4 H28 0.930 . S
H5 C0 0.931 . S
Co6 N3 2.135 . S
Co6 N9 2.121 . S
Co6 O14 2.055 1_455 S
Co6 O17 2.039 . S
Co6 N20 2.140 . S
C7 O8 1.227 . S
C7 O17 1.265 . S
O8 C7 1.227 . S
N9 Co6 2.121 . S
N9 C11 1.375 . S
N9 C12 1.313 . S
C10 C11 1.338 . S
C10 N13 1.377 . S
C10 H30 0.930 . S
C11 N9 1.375 . S
C11 C10 1.338 . S
C11 H15 0.931 . S
C12 N9 1.313 . S
C12 N13 1.344 . S
C12 H16 0.930 1_455 S
N13 C10 1.377 . S
N13 C12 1.344 . S
O14 Co6 2.055 1_655 S
O14 C18 1.253 . S
H15 C11 0.931 . S
H16 C12 0.930 1_655 S
O17 Co6 2.039 . S
O17 C7 1.265 . S
C18 O14 1.253 . S
C18 O19 1.227 . S
O19 C18 1.227 . S
N20 Co6 2.140 . S
N20 C23 1.346 . S
N20 C24 1.345 . S
C21 C22 1.387 . S
C21 C25 1.391 . S
C22 C21 1.387 . S
C22 C23 1.369 . S
C22 H31 0.929 . S
C23 N20 1.346 . S
C23 C22 1.369 . S
C23 H26 0.928 . S
C24 N20 1.345 . S
C24 C25 1.371 . S
C24 H27 0.931 . S
C25 C21 1.391 . S
C25 C24 1.371 . S
C25 H32 0.930 . S
H26 C23 0.928 . S
H27 C24 0.931 . S
H28 C4 0.930 . S
H29 C1 0.930 1_655 S
H30 C10 0.930 . S
H31 C22 0.929 . S
H32 C25 0.930 . S
C33 C34 1.351 . S
C33 N36 1.368 . S
C33 H38 0.931 . S
C34 C33 1.351 . S
C34 N35 1.373 . S
C34 H62 0.930 . S
N35 C34 1.373 . S
N35 C37 1.340 . S
N36 C33 1.368 . S
N36 C37 1.321 . S
N36 Co39 2.135 . S
C37 N35 1.340 . S
C37 N36 1.321 . S
C37 H61 0.930 . S
H38 C33 0.931 . S
Co39 N36 2.135 . S
Co39 N42 2.121 . S
Co39 O47 2.055 . S
Co39 O50 2.039 . S
Co39 N53 2.140 . S
C40 O41 1.227 . S
C40 O50 1.265 . S
O41 C40 1.227 . S
N42 Co39 2.121 . S
N42 C44 1.375 . S
N42 C45 1.313 . S
C43 C44 1.338 . S
C43 N46 1.377 . S
C43 H63 0.930 . S
C44 N42 1.375 . S
C44 C43 1.338 . S
C44 H48 0.931 . S
C45 N42 1.313 . S
C45 N46 1.344 . S
C45 H49 0.930 . S
N46 C43 1.377 . S
N46 C45 1.344 . S
O47 Co39 2.055 . S
O47 C51 1.253 . S
H48 C44 0.931 . S
H49 C45 0.930 . S
O50 Co39 2.039 . S
O50 C40 1.265 . S
C51 O47 1.253 . S
C51 O52 1.227 . S
O52 C51 1.227 . S
N53 Co39 2.140 . S
N53 C56 1.346 . S
N53 C57 1.345 . S
C54 C55 1.387 . S
C54 C58 1.391 . S
C55 C54 1.387 . S
C55 C56 1.369 . S
C55 H64 0.929 . S
C56 N53 1.346 . S
C56 C55 1.369 . S
C56 H59 0.928 . S
C57 N53 1.345 . S
C57 C58 1.371 . S
C57 H60 0.931 . S
C58 C54 1.391 . S
C58 C57 1.371 . S
C58 H65 0.930 . S
H59 C56 0.928 . S
H60 C57 0.931 . S
H61 C37 0.930 . S
H62 C34 0.930 . S
H63 C43 0.930 . S
H64 C55 0.929 . S
H65 C58 0.930 . S
C66 C67 1.351 . S
C66 N69 1.368 . S
C66 H71 0.931 . S
C67 C66 1.351 . S
C67 N68 1.373 . S
C67 H95 0.930 . S
N68 C67 1.373 . S
N68 C70 1.340 . S
N69 C66 1.368 . S
N69 C70 1.321 . S
N69 Co72 2.135 . S
C70 N68 1.340 . S
C70 N69 1.321 . S
C70 H94 0.930 . S
H71 C66 0.931 . S
Co72 N69 2.135 . S
Co72 N75 2.121 . S
Co72 O80 2.055 . S
Co72 O83 2.039 . S
Co72 N86 2.140 . S
C73 O74 1.227 . S
C73 O83 1.265 . S
O74 C73 1.227 . S
N75 Co72 2.121 . S
N75 C77 1.375 . S
N75 C78 1.313 . S
C76 C77 1.338 . S
C76 N79 1.377 . S
C76 H96 0.930 . S
C77 N75 1.375 . S
C77 C76 1.338 . S
C77 H81 0.931 . S
C78 N75 1.313 . S
C78 N79 1.344 . S
C78 H82 0.930 . S
N79 C76 1.377 . S
N79 C78 1.344 . S
O80 Co72 2.055 . S
O80 C84 1.253 . S
H81 C77 0.931 . S
H82 C78 0.930 . S
O83 Co72 2.039 . S
O83 C73 1.265 . S
C84 O80 1.253 . S
C84 O85 1.227 . S
O85 C84 1.227 . S
N86 Co72 2.140 . S
N86 C89 1.346 . S
N86 C90 1.345 . S
C87 C88 1.387 . S
C87 C91 1.391 . S
C88 C87 1.387 . S
C88 C89 1.369 . S
C88 H97 0.929 . S
C89 N86 1.346 . S
C89 C88 1.369 . S
C89 H92 0.928 . S
C90 N86 1.345 . S
C90 C91 1.371 . S
C90 H93 0.931 . S
C91 C87 1.391 . S
C91 C90 1.371 . S
C91 H98 0.930 . S
H92 C89 0.928 . S
H93 C90 0.931 . S
H94 C70 0.930 . S
H95 C67 0.930 . S
H96 C76 0.930 . S
H97 C88 0.929 . S
H98 C91 0.930 . S
C99 C100 1.351 . S
C99 N102 1.368 . S
C99 H104 0.931 . S
C100 C99 1.351 . S
C100 N101 1.373 . S
C100 H128 0.930 . S
N101 C100 1.373 . S
N101 C103 1.340 1_545 S
N102 C99 1.368 . S
N102 C103 1.321 1_545 S
N102 Co105 2.135 . S
C103 N101 1.340 1_565 S
C103 N102 1.321 1_565 S
C103 H127 0.930 . S
H104 C99 0.931 . S
Co105 N102 2.135 . S
Co105 N108 2.121 . S
Co105 O113 2.055 . S
Co105 O116 2.039 1_545 S
Co105 N119 2.140 . S
C106 O107 1.227 . S
C106 O116 1.265 . S
O107 C106 1.227 . S
N108 Co105 2.121 . S
N108 C110 1.375 1_545 S
N108 C111 1.313 . S
C109 C110 1.338 . S
C109 N112 1.377 1_565 S
C109 H129 0.930 . S
C110 N108 1.375 1_565 S
C110 C109 1.338 . S
C110 H114 0.931 . S
C111 N108 1.313 . S
C111 N112 1.344 . S
C111 H115 0.930 . S
N112 C109 1.377 1_545 S
N112 C111 1.344 . S
O113 Co105 2.055 . S
O113 C117 1.253 . S
H114 C110 0.931 . S
H115 C111 0.930 . S
O116 Co105 2.039 1_565 S
O116 C106 1.265 . S
C117 O113 1.253 . S
C117 O118 1.227 . S
O118 C117 1.227 . S
N119 Co105 2.140 . S
N119 C122 1.346 1_545 S
N119 C123 1.345 . S
C120 C121 1.387 . S
C120 C124 1.391 1_565 S
C121 C120 1.387 . S
C121 C122 1.369 . S
C121 H130 0.929 . S
C122 N119 1.346 1_565 S
C122 C121 1.369 . S
C122 H125 0.928 . S
C123 N119 1.345 . S
C123 C124 1.371 . S
C123 H126 0.931 . S
C124 C120 1.391 1_545 S
C124 C123 1.371 . S
C124 H131 0.930 . S
H125 C122 0.928 . S
H126 C123 0.931 . S
H127 C103 0.930 . S
H128 C100 0.930 . S
H129 C109 0.930 . S
H130 C121 0.929 . S
H131 C124 0.930 . S
C132 C133 1.351 . S
C132 N135 1.368 . S
C132 H137 0.931 . S
C133 C132 1.351 . S
C133 N134 1.373 . S
C133 H161 0.930 . S
N134 C133 1.373 . S
N134 C136 1.340 1_455 S
N135 C132 1.368 . S
N135 C136 1.321 1_455 S
N135 Co138 2.135 . S
C136 N134 1.340 1_655 S
C136 N135 1.321 1_655 S
C136 H160 0.930 . S
H137 C132 0.931 . S
Co138 N135 2.135 . S
Co138 N141 2.121 . S
Co138 O146 2.055 . S
Co138 O149 2.039 1_455 S
Co138 N152 2.140 . S
C139 O140 1.227 . S
C139 O149 1.265 . S
O140 C139 1.227 . S
N141 Co138 2.121 . S
N141 C143 1.375 1_455 S
N141 C144 1.313 . S
C142 C143 1.338 . S
C142 N145 1.377 1_655 S
C142 H162 0.930 . S
C143 N141 1.375 1_655 S
C143 C142 1.338 . S
C143 H147 0.931 . S
C144 N141 1.313 . S
C144 N145 1.344 . S
C144 H148 0.930 . S
N145 C142 1.377 1_455 S
N145 C144 1.344 . S
O146 Co138 2.055 . S
O146 C150 1.253 . S
H147 C143 0.931 . S
H148 C144 0.930 . S
O149 Co138 2.039 1_655 S
O149 C139 1.265 . S
C150 O146 1.253 . S
C150 O151 1.227 . S
O151 C150 1.227 . S
N152 Co138 2.140 . S
N152 C155 1.346 1_455 S
N152 C156 1.345 . S
C153 C154 1.387 . S
C153 C157 1.391 1_655 S
C154 C153 1.387 . S
C154 C155 1.369 . S
C154 H163 0.929 . S
C155 N152 1.346 1_655 S
C155 C154 1.369 . S
C155 H158 0.928 . S
C156 N152 1.345 . S
C156 C157 1.371 . S
C156 H159 0.931 . S
C157 C153 1.391 1_455 S
C157 C156 1.371 . S
C157 H164 0.930 . S
H158 C155 0.928 . S
H159 C156 0.931 . S
H160 C136 0.930 . S
H161 C133 0.930 . S
H162 C142 0.930 . S
H163 C154 0.929 . S
H164 C157 0.930 . S
C165 C166 1.351 . S
C165 N168 1.368 . S
C165 H170 0.931 . S
C166 C165 1.351 . S
C166 N167 1.373 . S
C166 H194 0.930 . S
N167 C166 1.373 . S
N167 C169 1.340 . S
N168 C165 1.368 . S
N168 C169 1.321 . S
N168 Co171 2.135 . S
C169 N167 1.340 . S
C169 N168 1.321 . S
C169 H193 0.930 . S
H170 C165 0.931 . S
Co171 N168 2.135 . S
Co171 N174 2.121 . S
Co171 O179 2.055 . S
Co171 O182 2.039 . S
Co171 N185 2.140 . S
C172 O173 1.227 . S
C172 O182 1.265 . S
O173 C172 1.227 . S
N174 Co171 2.121 . S
N174 C176 1.375 . S
N174 C177 1.313 . S
C175 C176 1.338 . S
C175 N178 1.377 . S
C175 H195 0.930 . S
C176 N174 1.375 . S
C176 C175 1.338 . S
C176 H180 0.931 . S
C177 N174 1.313 . S
C177 N178 1.344 . S
C177 H181 0.930 . S
N178 C175 1.377 . S
N178 C177 1.344 . S
O179 Co171 2.055 . S
O179 C183 1.253 . S
H180 C176 0.931 . S
H181 C177 0.930 . S
O182 Co171 2.039 . S
O182 C172 1.265 . S
C183 O179 1.253 . S
C183 O184 1.227 . S
O184 C183 1.227 . S
N185 Co171 2.140 . S
N185 C188 1.346 . S
N185 C189 1.345 . S
C186 C187 1.387 . S
C186 C190 1.391 . S
C187 C186 1.387 . S
C187 C188 1.369 . S
C187 H196 0.929 . S
C188 N185 1.346 . S
C188 C187 1.369 . S
C188 H191 0.928 . S
C189 N185 1.345 . S
C189 C190 1.371 . S
C189 H192 0.931 . S
C190 C186 1.391 . S
C190 C189 1.371 . S
C190 H197 0.930 . S
H191 C188 0.928 . S
H192 C189 0.931 . S
H193 C169 0.930 . S
H194 C166 0.930 . S
H195 C175 0.930 . S
H196 C187 0.929 . S
H197 C190 0.930 . S
C198 C199 1.351 . S
C198 N201 1.368 . S
C198 H203 0.931 . S
C199 C198 1.351 . S
C199 N200 1.373 . S
C199 H227 0.930 . S
N200 C199 1.373 . S
N200 C202 1.340 . S
N201 C198 1.368 . S
N201 C202 1.321 . S
N201 Co204 2.135 . S
C202 N200 1.340 . S
C202 N201 1.321 . S
C202 H226 0.930 . S
H203 C198 0.931 . S
Co204 N201 2.135 . S
Co204 N207 2.121 . S
Co204 O212 2.055 . S
Co204 O215 2.039 . S
Co204 N218 2.140 . S
C205 O206 1.227 . S
C205 O215 1.265 . S
O206 C205 1.227 . S
N207 Co204 2.121 . S
N207 C209 1.375 . S
N207 C210 1.313 . S
C208 C209 1.338 . S
C208 N211 1.377 . S
C208 H228 0.930 . S
C209 N207 1.375 . S
C209 C208 1.338 . S
C209 H213 0.931 . S
C210 N207 1.313 . S
C210 N211 1.344 . S
C210 H214 0.930 . S
N211 C208 1.377 . S
N211 C210 1.344 . S
O212 Co204 2.055 . S
O212 C216 1.253 . S
H213 C209 0.931 . S
H214 C210 0.930 . S
O215 Co204 2.039 . S
O215 C205 1.265 . S
C216 O212 1.253 . S
C216 O217 1.227 . S
O217 C216 1.227 . S
N218 Co204 2.140 . S
N218 C221 1.346 . S
N218 C222 1.345 . S
C219 C220 1.387 . S
C219 C223 1.391 . S
C220 C219 1.387 . S
C220 C221 1.369 . S
C220 H229 0.929 . S
C221 N218 1.346 . S
C221 C220 1.369 . S
C221 H224 0.928 . S
C222 N218 1.345 . S
C222 C223 1.371 . S
C222 H225 0.931 . S
C223 C219 1.391 . S
C223 C222 1.371 . S
C223 H230 0.930 . S
H224 C221 0.928 . S
H225 C222 0.931 . S
H226 C202 0.930 . S
H227 C199 0.930 . S
H228 C208 0.930 . S
H229 C220 0.929 . S
H230 C223 0.930 . S
C231 C232 1.351 1_565 S
C231 N234 1.368 1_565 S
C231 H236 0.931 . S
C232 C231 1.351 1_545 S
C232 N233 1.373 . S
C232 H260 0.930 1_545 S
N233 C232 1.373 . S
N233 C235 1.340 . S
N234 C231 1.368 1_545 S
N234 C235 1.321 . S
N234 Co237 2.135 . S
C235 N233 1.340 . S
C235 N234 1.321 . S
C235 H259 0.930 . S
H236 C231 0.931 . S
Co237 N234 2.135 . S
Co237 N240 2.121 . S
Co237 O245 2.055 1_545 S
Co237 O248 2.039 . S
Co237 N251 2.140 . S
C238 O239 1.227 . S
C238 O248 1.265 . S
O239 C238 1.227 . S
N240 Co237 2.121 . S
N240 C242 1.375 . S
N240 C243 1.313 . S
C241 C242 1.338 . S
C241 N244 1.377 . S
C241 H261 0.930 . S
C242 N240 1.375 . S
C242 C241 1.338 . S
C242 H246 0.931 . S
C243 N240 1.313 . S
C243 N244 1.344 . S
C243 H247 0.930 1_545 S
N244 C241 1.377 . S
N244 C243 1.344 . S
O245 Co237 2.055 1_565 S
O245 C249 1.253 . S
H246 C242 0.931 . S
H247 C243 0.930 1_565 S
O248 Co237 2.039 . S
O248 C238 1.265 . S
C249 O245 1.253 . S
C249 O250 1.227 . S
O250 C249 1.227 . S
N251 Co237 2.140 . S
N251 C254 1.346 . S
N251 C255 1.345 . S
C252 C253 1.387 . S
C252 C256 1.391 . S
C253 C252 1.387 . S
C253 C254 1.369 . S
C253 H262 0.929 . S
C254 N251 1.346 . S
C254 C253 1.369 . S
C254 H257 0.928 . S
C255 N251 1.345 . S
C255 C256 1.371 . S
C255 H258 0.931 . S
C256 C252 1.391 . S
C256 C255 1.371 . S
C256 H263 0.930 . S
H257 C254 0.928 . S
H258 C255 0.931 . S
H259 C235 0.930 . S
H260 C232 0.930 1_565 S
H261 C241 0.930 . S
H262 C253 0.929 . S
H263 C256 0.930 . S
C264 C265 1.387 1_545 S
C264 H268 0.950 . S
C264 C273 1.390 . S
C265 C264 1.387 1_565 S
C265 C267 1.387 . S
H266 C273 0.950 1_655 S
C267 C265 1.387 . S
C267 C269 1.390 1_565 S
C267 H271 0.950 . S
H268 C264 0.950 . S
C269 C267 1.390 1_545 S
C269 C270 1.387 . S
C269 H272 0.950 . S
C270 C269 1.387 . S
C270 C273 1.387 . S
H271 C267 0.950 . S
H272 C269 0.950 . S
C273 C264 1.390 . S
C273 H266 0.950 1_455 S
C273 C270 1.387 . S
C274 C275 1.387 1_456 S
C274 H278 0.950 1_455 S
C274 C283 1.390 . S
C275 C274 1.387 1_654 S
C275 C277 1.387 1_655 S
H276 C283 0.950 . S
C277 C275 1.387 1_455 S
C277 C279 1.390 . S
C277 H281 0.950 1_455 S
H278 C274 0.950 1_655 S
C279 C277 1.390 . S
C279 C280 1.387 1_554 S
C279 H282 0.950 . S
C280 C279 1.387 1_556 S
C280 C283 1.387 . S
H281 C277 0.950 1_655 S
H282 C279 0.950 . S
C283 C274 1.390 . S
C283 H276 0.950 . S
C283 C280 1.387 . S
C284 C285 1.387 . S
C284 H288 0.950 . S
C284 C293 1.390 . S
C285 C284 1.387 . S
C285 C287 1.387 . S
H286 C293 0.950 . S
C287 C285 1.387 . S
C287 C289 1.390 . S
C287 H291 0.950 . S
H288 C284 0.950 . S
C289 C287 1.390 . S
C289 C290 1.387 . S
C289 H292 0.950 . S
C290 C289 1.387 . S
C290 C293 1.387 . S
H291 C287 0.950 . S
H292 C289 0.950 . S
C293 C284 1.390 . S
C293 H286 0.950 . S
C293 C290 1.387 . S
C294 C295 1.387 1_565 S
C294 H298 0.950 . S
C294 C303 1.390 1_556 S
C295 C294 1.387 1_545 S
C295 C297 1.387 . S
H296 C303 0.950 . S
C297 C295 1.387 . S
C297 C299 1.390 1_556 S
C297 H301 0.950 . S
H298 C294 0.950 . S
C299 C297 1.390 1_554 S
C299 C300 1.387 . S
C299 H302 0.950 . S
C300 C299 1.387 . S
C300 C303 1.387 1_545 S
H301 C297 0.950 . S
H302 C299 0.950 . S
C303 C294 1.390 1_554 S
C303 H296 0.950 . S
C303 C300 1.387 1_565 S
C304 C305 1.387 . S
C304 H308 0.950 . S
C304 C313 1.390 . S
C305 C304 1.387 . S
C305 C307 1.387 . S
H306 C313 0.950 . S
C307 C305 1.387 . S
C307 C309 1.390 . S
C307 H311 0.950 1_545 S
H308 C304 0.950 . S
C309 C307 1.390 . S
C309 C310 1.387 . S
C309 H312 0.950 . S
C310 C309 1.387 . S
C310 C313 1.387 . S
H311 C307 0.950 1_565 S
H312 C309 0.950 . S
C313 C304 1.390 . S
C313 H306 0.950 . S
C313 C310 1.387 . S
C314 C315 1.387 . S
C314 H318 0.950 1_655 S
C314 C323 1.390 . S
C315 C314 1.387 . S
C315 C317 1.387 . S
H316 C323 0.950 . S
C317 C315 1.387 . S
C317 C319 1.390 . S
C317 H321 0.950 . S
H318 C314 0.950 1_455 S
C319 C317 1.390 . S
C319 C320 1.387 . S
C319 H322 0.950 . S
C320 C319 1.387 . S
C320 C323 1.387 . S
H321 C317 0.950 . S
H322 C319 0.950 . S
C323 C314 1.390 . S
C323 H316 0.950 . S
C323 C320 1.387 . S
C324 C325 1.387 . S
C324 H328 0.950 . S
C324 C333 1.390 . S
C325 C324 1.387 . S
C325 C327 1.387 . S
H326 C333 0.950 . S
C327 C325 1.387 . S
C327 C329 1.390 . S
C327 H331 0.950 . S
H328 C324 0.950 . S
C329 C327 1.390 . S
C329 C330 1.387 . S
C329 H332 0.950 . S
C330 C329 1.387 . S
C330 C333 1.387 . S
H331 C327 0.950 . S
H332 C329 0.950 . S
C333 C324 1.390 . S
C333 H326 0.950 . S
C333 C330 1.387 . S
C334 C335 1.387 . S
C334 H338 0.950 1_565 S
C334 C343 1.390 . S
C335 C334 1.387 . S
C335 C337 1.387 . S
H336 C343 0.950 1_545 S
C337 C335 1.387 . S
C337 C339 1.390 . S
C337 H341 0.950 . S
H338 C334 0.950 1_545 S
C339 C337 1.390 . S
C339 C340 1.387 . S
C339 H342 0.950 . S
C340 C339 1.387 . S
C340 C343 1.387 . S
H341 C337 0.950 . S
H342 C339 0.950 . S
C343 C334 1.390 . S
C343 H336 0.950 1_565 S
C343 C340 1.387 . S
C344 C345 1.387 . S
C344 H348 0.950 . S
C344 C353 1.390 . S
C345 C344 1.387 . S
C345 C347 1.387 1_565 S
H346 C353 0.950 . S
C347 C345 1.387 1_545 S
C347 C349 1.390 . S
C347 H351 0.950 . S
H348 C344 0.950 . S
C349 C347 1.390 . S
C349 C350 1.387 1_545 S
C349 H352 0.950 . S
C350 C349 1.387 1_565 S
C350 C353 1.387 . S
H351 C347 0.950 . S
H352 C349 0.950 . S
C353 C344 1.390 . S
C353 H346 0.950 . S
C353 C350 1.387 . S
C354 C355 1.387 . S
C354 H358 0.950 . S
C354 C363 1.390 . S
C355 C354 1.387 . S
C355 C357 1.387 . S
H356 C363 0.950 . S
C357 C355 1.387 . S
C357 C359 1.390 . S
C357 H361 0.950 . S
H358 C354 0.950 . S
C359 C357 1.390 . S
C359 C360 1.387 . S
C359 H362 0.950 . S
C360 C359 1.387 . S
C360 C363 1.387 . S
H361 C357 0.950 . S
H362 C359 0.950 . S
C363 C354 1.390 . S
C363 H356 0.950 . S
C363 C360 1.387 . S
C364 C365 1.387 . S
C364 H368 0.950 . S
C364 C373 1.390 . S
C365 C364 1.387 . S
C365 C367 1.387 . S
H366 C373 0.950 . S
C367 C365 1.387 . S
C367 C369 1.390 . S
C367 H371 0.950 . S
H368 C364 0.950 . S
C369 C367 1.390 . S
C369 C370 1.387 . S
C369 H372 0.950 . S
C370 C369 1.387 . S
C370 C373 1.387 . S
H371 C367 0.950 . S
H372 C369 0.950 . S
C373 C364 1.390 . S
C373 H366 0.950 . S
C373 C370 1.387 . S
C374 C375 1.387 . S
C374 H378 0.950 . S
C374 C383 1.390 . S
C375 C374 1.387 . S
C375 C377 1.387 . S
H376 C383 0.950 . S
C377 C375 1.387 . S
C377 C379 1.390 . S
C377 H381 0.950 . S
H378 C374 0.950 . S
C379 C377 1.390 . S
C379 C380 1.387 . S
C379 H382 0.950 . S
C380 C379 1.387 . S
C380 C383 1.387 . S
H381 C377 0.950 . S
H382 C379 0.950 . S
C383 C374 1.390 . S
C383 H376 0.950 . S
C383 C380 1.387 . S
C384 C385 1.387 . S
C384 H388 0.950 . S
C384 C393 1.390 . S
C385 C384 1.387 . S
C385 C387 1.387 . S
H386 C393 0.950 . S
C387 C385 1.387 . S
C387 C389 1.390 . S
C387 H391 0.950 . S
H388 C384 0.950 . S
C389 C387 1.390 . S
C389 C390 1.387 . S
C389 H392 0.950 . S
C390 C389 1.387 . S
C390 C393 1.387 . S
H391 C387 0.950 . S
H392 C389 0.950 . S
C393 C384 1.390 . S
C393 H386 0.950 . S
C393 C390 1.387 . S
C394 C395 1.387 . S
C394 H398 0.950 . S
C394 C403 1.390 . S
C395 C394 1.387 . S
C395 C397 1.387 . S
H396 C403 0.950 . S
C397 C395 1.387 . S
C397 C399 1.390 . S
C397 H401 0.950 . S
H398 C394 0.950 . S
C399 C397 1.390 . S
C399 C400 1.387 . S
C399 H402 0.950 . S
C400 C399 1.387 . S
C400 C403 1.387 . S
H401 C397 0.950 . S
H402 C399 0.950 . S
C403 C394 1.390 . S
C403 H396 0.950 . S
C403 C400 1.387 . S
C404 C405 1.387 . S
C404 H408 0.950 . S
C404 C413 1.390 . S
C405 C404 1.387 . S
C405 C407 1.387 . S
H406 C413 0.950 . S
C407 C405 1.387 . S
C407 C409 1.390 . S
C407 H411 0.950 . S
H408 C404 0.950 . S
C409 C407 1.390 . S
C409 C410 1.387 . S
C409 H412 0.950 . S
C410 C409 1.387 . S
C410 C413 1.387 . S
H411 C407 0.950 . S
H412 C409 0.950 . S
C413 C404 1.390 . S
C413 H406 0.950 . S
C413 C410 1.387 . S
C414 C415 1.387 . S
C414 H418 0.950 . S
C414 C423 1.390 . S
C415 C414 1.387 . S
C415 C417 1.387 . S
H416 C423 0.950 . S
C417 C415 1.387 . S
C417 C419 1.390 . S
C417 H421 0.950 . S
H418 C414 0.950 . S
C419 C417 1.390 . S
C419 C420 1.387 . S
C419 H422 0.950 . S
C420 C419 1.387 . S
C420 C423 1.387 . S
H421 C417 0.950 . S
H422 C419 0.950 . S
C423 C414 1.390 . S
C423 H416 0.950 . S
C423 C420 1.387 . S
C424 C425 1.387 . S
C424 H428 0.950 . S
C424 C433 1.390 . S
C425 C424 1.387 . S
C425 C427 1.387 . S
H426 C433 0.950 . S
C427 C425 1.387 . S
C427 C429 1.390 . S
C427 H431 0.950 . S
H428 C424 0.950 . S
C429 C427 1.390 . S
C429 C430 1.387 . S
C429 H432 0.950 . S
C430 C429 1.387 . S
C430 C433 1.387 . S
H431 C427 0.950 . S
H432 C429 0.950 . S
C433 C424 1.390 . S
C433 H426 0.950 . S
C433 C430 1.387 . S
C434 C435 1.387 . S
C434 H438 0.950 . S
C434 C443 1.390 . S
C435 C434 1.387 . S
C435 C437 1.387 . S
H436 C443 0.950 . S
C437 C435 1.387 . S
C437 C439 1.390 . S
C437 H441 0.950 . S
H438 C434 0.950 . S
C439 C437 1.390 . S
C439 C440 1.387 . S
C439 H442 0.950 . S
C440 C439 1.387 . S
C440 C443 1.387 . S
H441 C437 0.950 . S
H442 C439 0.950 . S
C443 C434 1.390 . S
C443 H436 0.950 . S
C443 C440 1.387 . S
C444 C445 1.387 . S
C444 H448 0.950 . S
C444 C453 1.390 . S
C445 C444 1.387 . S
C445 C447 1.387 . S
H446 C453 0.950 . S
C447 C445 1.387 . S
C447 C449 1.390 . S
C447 H451 0.950 . S
H448 C444 0.950 . S
C449 C447 1.390 . S
C449 C450 1.387 . S
C449 H452 0.950 . S
C450 C449 1.387 . S
C450 C453 1.387 . S
H451 C447 0.950 . S
H452 C449 0.950 . S
C453 C444 1.390 . S
C453 H446 0.950 . S
C453 C450 1.387 . S
C454 C455 1.387 . S
C454 H458 0.950 . S
C454 C463 1.390 . S
C455 C454 1.387 . S
C455 C457 1.387 . S
H456 C463 0.950 . S
C457 C455 1.387 . S
C457 C459 1.390 . S
C457 H461 0.950 . S
H458 C454 0.950 . S
C459 C457 1.390 . S
C459 C460 1.387 . S
C459 H462 0.950 . S
C460 C459 1.387 . S
C460 C463 1.387 . S
H461 C457 0.950 . S
H462 C459 0.950 . S
C463 C454 1.390 . S
C463 H456 0.950 . S
C463 C460 1.387 . S
C265 N145 1.620 . S
C270 N13 1.620 . S
C275 N46 1.619 . S
C280 N178 1.619 . S
C285 N79 1.620 . S
C290 N211 1.620 . S
C295 N244 1.619 . S
C300 N112 1.619 . S
C305 N233 1.002 . S
C310 C21 1.018 . S
C315 N134 0.997 1_655 S
C320 C54 1.015 . S
C325 N167 1.001 . S
C330 C87 1.020 . S
C335 N200 1.000 . S
C340 C120 1.016 . S
C345 C153 1.017 . S
C350 N101 0.997 1_565 S
C355 C186 1.020 . S
C360 N2 1.001 . S
C365 C219 1.015 . S
C370 N35 0.997 . S
C375 C252 1.020 . S
C380 N68 1.002 . S
C385 C18 1.608 . S
C390 C84 1.608 . S
C395 C51 1.607 . S
C400 C117 1.607 . S
C405 C216 1.608 . S
C410 C150 1.608 . S
C415 C249 1.610 . S
C420 C183 1.610 . S
C425 C73 1.460 . S
C430 C7 1.460 . S
C435 C40 1.465 . S
C440 C106 1.465 . S
C445 C205 1.460 . S
C450 C139 1.460 . S
C455 C238 1.461 . S
C460 C172 1.461 . S
