# Generated by pormake.
# Topology ukb, (4)-cn, num edge types: 1
# Building blocks:
#     Node 0, Type 0, BuildingBlock: TATPOV_clean_sbu_0, # of connection points: 4
#     Node 1, Type 0, BuildingBlock: TATPOV_clean_sbu_0, # of connection points: 4
#     Node 2, Type 0, BuildingBlock: TATPOV_clean_sbu_0, # of connection points: 4
#     Node 3, Type 0, BuildingBlock: TATPOV_clean_sbu_0, # of connection points: 4
#     Node 4, Type 0, BuildingBlock: TATPOV_clean_sbu_0, # of connection points: 4
#     Node 5, Type 0, BuildingBlock: TATPOV_clean_sbu_0, # of connection points: 4
#     Node 6, Type 0, BuildingBlock: TATPOV_clean_sbu_0, # of connection points: 4
#     Node 7, Type 0, BuildingBlock: TATPOV_clean_sbu_0, # of connection points: 4
#     Node 8, Type 0, BuildingBlock: TATPOV_clean_sbu_0, # of connection points: 4
#     Node 9, Type 0, BuildingBlock: TATPOV_clean_sbu_0, # of connection points: 4
#     Node 10, Type 0, BuildingBlock: TATPOV_clean_sbu_0, # of connection points: 4
#     Node 11, Type 0, BuildingBlock: TATPOV_clean_sbu_0, # of connection points: 4
#     Node 12, Type 0, BuildingBlock: TATPOV_clean_sbu_0, # of connection points: 4
#     Node 13, Type 0, BuildingBlock: TATPOV_clean_sbu_0, # of connection points: 4
#     Node 14, Type 0, BuildingBlock: TATPOV_clean_sbu_0, # of connection points: 4
#     Node 15, Type 0, BuildingBlock: TATPOV_clean_sbu_0, # of connection points: 4
#     Edge 16, Type (0, 0), BuildingBlock: TEMPAE_clean_linker_10, # of connection points: 2
#     Edge 17, Type (0, 0), BuildingBlock: TEMPAE_clean_linker_10, # of connection points: 2
#     Edge 18, Type (0, 0), BuildingBlock: TEMPAE_clean_linker_10, # of connection points: 2
#     Edge 19, Type (0, 0), BuildingBlock: TEMPAE_clean_linker_10, # of connection points: 2
#     Edge 20, Type (0, 0), BuildingBlock: TEMPAE_clean_linker_10, # of connection points: 2
#     Edge 21, Type (0, 0), BuildingBlock: TEMPAE_clean_linker_10, # of connection points: 2
#     Edge 22, Type (0, 0), BuildingBlock: TEMPAE_clean_linker_10, # of connection points: 2
#     Edge 23, Type (0, 0), BuildingBlock: TEMPAE_clean_linker_10, # of connection points: 2
#     Edge 24, Type (0, 0), BuildingBlock: TEMPAE_clean_linker_10, # of connection points: 2
#     Edge 25, Type (0, 0), BuildingBlock: TEMPAE_clean_linker_10, # of connection points: 2
#     Edge 26, Type (0, 0), BuildingBlock: TEMPAE_clean_linker_10, # of connection points: 2
#     Edge 27, Type (0, 0), BuildingBlock: TEMPAE_clean_linker_10, # of connection points: 2
#     Edge 28, Type (0, 0), BuildingBlock: TEMPAE_clean_linker_10, # of connection points: 2
#     Edge 29, Type (0, 0), BuildingBlock: TEMPAE_clean_linker_10, # of connection points: 2
#     Edge 30, Type (0, 0), BuildingBlock: TEMPAE_clean_linker_10, # of connection points: 2
#     Edge 31, Type (0, 0), BuildingBlock: TEMPAE_clean_linker_10, # of connection points: 2
#     Edge 32, Type (0, 0), BuildingBlock: TEMPAE_clean_linker_10, # of connection points: 2
#     Edge 33, Type (0, 0), BuildingBlock: TEMPAE_clean_linker_10, # of connection points: 2
#     Edge 34, Type (0, 0), BuildingBlock: TEMPAE_clean_linker_10, # of connection points: 2
#     Edge 35, Type (0, 0), BuildingBlock: TEMPAE_clean_linker_10, # of connection points: 2
#     Edge 36, Type (0, 0), BuildingBlock: TEMPAE_clean_linker_10, # of connection points: 2
#     Edge 37, Type (0, 0), BuildingBlock: TEMPAE_clean_linker_10, # of connection points: 2
#     Edge 38, Type (0, 0), BuildingBlock: TEMPAE_clean_linker_10, # of connection points: 2
#     Edge 39, Type (0, 0), BuildingBlock: TEMPAE_clean_linker_10, # of connection points: 2
#     Edge 40, Type (0, 0), BuildingBlock: TEMPAE_clean_linker_10, # of connection points: 2
#     Edge 41, Type (0, 0), BuildingBlock: TEMPAE_clean_linker_10, # of connection points: 2
#     Edge 42, Type (0, 0), BuildingBlock: TEMPAE_clean_linker_10, # of connection points: 2
#     Edge 43, Type (0, 0), BuildingBlock: TEMPAE_clean_linker_10, # of connection points: 2
#     Edge 44, Type (0, 0), BuildingBlock: TEMPAE_clean_linker_10, # of connection points: 2
#     Edge 45, Type (0, 0), BuildingBlock: TEMPAE_clean_linker_10, # of connection points: 2
#     Edge 46, Type (0, 0), BuildingBlock: TEMPAE_clean_linker_10, # of connection points: 2
#     Edge 47, Type (0, 0), BuildingBlock: TEMPAE_clean_linker_10, # of connection points: 2
# Relax obj value: 0.143
# Max RMSD: 0.149
# Mean RMSD: 0.149
data_MOF--net-ukb--node1-TATPOV_clean_sbu_0--edge1-TEMPAE_clean_linker_10
_symmetry_space_group_name_H-M    P1
_symmetry_Int_Tables_number       1
_symmetry_cell_setting            triclinic
loop_
_symmetry_equiv_pos_as_xyz
'x, y, z'
_cell_length_a     44.034087
_cell_length_b     44.031407
_cell_length_c     38.656081
_cell_angle_alpha  89.952557
_cell_angle_beta   90.033032
_cell_angle_gamma 90.056114
loop_
_atom_site_label
_atom_site_type_symbol
_atom_site_fract_x
_atom_site_fract_y
_atom_site_fract_z
_atom_type_partial_charge
Zn0 Zn 0.57976 0.20091 0.13339 0.0
Zn1 Zn 0.53287 0.18526 0.17153 0.0
O2 O 0.51559 0.18942 0.1221 0.0
O3 O 0.55572 0.19805 0.08978 0.0
O4 O 0.49623 0.16994 0.19722 0.0
O5 O 0.6042 0.16554 0.14897 0.0
O6 O 0.56548 0.15194 0.18137 0.0
C7 C 0.52745 0.19373 0.09252 0.0
C8 C 0.56357 0.24575 0.18523 0.0
O9 O 0.54303 0.22661 0.19336 0.0
O10 O 0.58161 0.24013 0.16051 0.0
C11 C 0.46988 0.1798 0.18978 0.0
O12 O 0.4671 0.20184 0.16707 0.0
C13 C 0.59253 0.14743 0.1706 0.0
Zn14 Zn 0.31982 0.5575 0.61847 0.0
Zn15 Zn 0.32734 0.51837 0.66849 0.0
O16 O 0.32446 0.49272 0.62377 0.0
O17 O 0.32344 0.52611 0.58166 0.0
O18 O 0.33877 0.48628 0.70307 0.0
O19 O 0.35587 0.58225 0.63135 0.0
O20 O 0.36166 0.55047 0.6747 0.0
C21 C 0.32388 0.49876 0.5916 0.0
C22 C 0.26976 0.55516 0.66829 0.0
O23 O 0.28599 0.5352 0.68344 0.0
O24 O 0.27899 0.56724 0.64039 0.0
C25 C 0.32792 0.45958 0.70072 0.0
O26 O 0.30653 0.45409 0.67784 0.0
C27 C 0.37002 0.57425 0.65831 0.0
Zn28 Zn 0.92014 0.30622 0.13496 0.0
Zn29 Zn 0.96471 0.3185 0.17833 0.0
O30 O 0.9855 0.31755 0.1306 0.0
O31 O 0.94747 0.31227 0.09427 0.0
O32 O 0.99906 0.33122 0.20918 0.0
O33 O 0.89481 0.34049 0.15202 0.0
O34 O 0.93164 0.35106 0.18849 0.0
C35 C 0.97557 0.31569 0.09979 0.0
C36 C 0.93313 0.25752 0.18353 0.0
O37 O 0.95305 0.27594 0.19502 0.0
O38 O 0.91657 0.26497 0.15806 0.0
C39 C 0.02587 0.32144 0.20426 0.0
O40 O 0.03075 0.30133 0.1798 0.0
C41 C 0.90529 0.35667 0.17626 0.0
Zn42 Zn 0.20022 0.95698 0.59792 0.0
Zn43 Zn 0.18831 0.0008 0.64208 0.0
O44 O 0.19658 0.02421 0.5967 0.0
O45 O 0.20331 0.987 0.55956 0.0
O46 O 0.17551 0.03478 0.67308 0.0
O47 O 0.16053 0.93628 0.60567 0.0
O48 O 0.15125 0.97143 0.64463 0.0
C49 C 0.20135 0.01508 0.56598 0.0
C50 C 0.24324 0.96081 0.655 0.0
O51 O 0.22673 0.98308 0.66442 0.0
O52 O 0.23673 0.94625 0.62769 0.0
C53 C 0.16486 0.03045 0.70319 0.0
O54 O 0.1636 0.00266 0.71553 0.0
C55 C 0.14333 0.94736 0.62857 0.0
Zn56 Zn 0.58575 0.28616 0.85122 0.0
Zn57 Zn 0.5393 0.30068 0.81131 0.0
O58 O 0.52078 0.29581 0.85999 0.0
O59 O 0.56015 0.28788 0.89377 0.0
O60 O 0.5035 0.31607 0.7841 0.0
O61 O 0.60977 0.32241 0.8371 0.0
O62 O 0.57169 0.33452 0.80302 0.0
C63 C 0.53186 0.2915 0.88997 0.0
C64 C 0.57164 0.24115 0.79833 0.0
O65 O 0.55068 0.25962 0.78969 0.0
O66 O 0.5891 0.24734 0.82346 0.0
C67 C 0.47642 0.30837 0.79153 0.0
O68 O 0.47174 0.28792 0.81571 0.0
C69 C 0.5982 0.34003 0.8149 0.0
Zn70 Zn 0.20149 0.56218 0.38555 0.0
Zn71 Zn 0.18798 0.51648 0.34319 0.0
O72 O 0.1961 0.49481 0.38947 0.0
O73 O 0.20501 0.53281 0.42489 0.0
O74 O 0.1733 0.48278 0.31247 0.0
O75 O 0.16204 0.58342 0.37695 0.0
O76 O 0.15213 0.54684 0.33998 0.0
C77 C 0.20227 0.50457 0.41961 0.0
C78 C 0.244 0.55444 0.32831 0.0
O79 O 0.22697 0.53208 0.32037 0.0
O80 O 0.2378 0.5707 0.35443 0.0
C81 C 0.17991 0.45495 0.31692 0.0
O82 O 0.19886 0.44727 0.34167 0.0
C83 C 0.14465 0.57171 0.35459 0.0
Zn84 Zn 0.91629 0.21631 0.86264 0.0
Zn85 Zn 0.96412 0.19989 0.82533 0.0
O86 O 0.98203 0.20671 0.87381 0.0
O87 O 0.9418 0.21648 0.90558 0.0
O88 O 0.99915 0.182 0.79913 0.0
O89 O 0.89221 0.17952 0.84998 0.0
O90 O 0.93147 0.16636 0.81835 0.0
C91 C 0.97018 0.21261 0.90303 0.0
C92 C 0.93267 0.25892 0.80771 0.0
O93 O 0.95395 0.24017 0.80125 0.0
O94 O 0.9141 0.25372 0.83208 0.0
C95 C 0.0269 0.18623 0.80684 0.0
O96 O 0.03394 0.20521 0.83179 0.0
C97 C 0.90462 0.16115 0.82924 0.0
Zn98 Zn 0.28905 0.93573 0.3428 0.0
Zn99 Zn 0.301 0.97752 0.29632 0.0
O100 O 0.29945 0.00073 0.34282 0.0
O101 O 0.29309 0.96496 0.38175 0.0
O102 O 0.31507 0.01057 0.26422 0.0
O103 O 0.3245 0.91038 0.32937 0.0
O104 O 0.33438 0.94473 0.28966 0.0
C105 C 0.29696 0.99265 0.37429 0.0
C106 C 0.24147 0.94326 0.29114 0.0
O107 O 0.25922 0.96331 0.27848 0.0
O108 O 0.24891 0.92922 0.3185 0.0
C109 C 0.30703 0.03801 0.26878 0.0
O110 O 0.28644 0.04423 0.2923 0.0
C111 C 0.34067 0.91959 0.30447 0.0
Zn112 Zn 0.40281 0.79811 0.84095 0.0
Zn113 Zn 0.45253 0.81606 0.80899 0.0
O114 O 0.46593 0.80893 0.85948 0.0
O115 O 0.42362 0.79806 0.887 0.0
O116 O 0.48953 0.83542 0.78784 0.0
O117 O 0.37821 0.8336 0.82558 0.0
O118 O 0.41901 0.84788 0.7972 0.0
C119 C 0.45203 0.8023 0.88734 0.0
C120 C 0.42548 0.75596 0.78851 0.0
O121 O 0.44658 0.77542 0.78412 0.0
O122 O 0.40469 0.7607 0.81054 0.0
C123 C 0.51649 0.8295 0.79751 0.0
O124 O 0.52102 0.80821 0.82079 0.0
C125 C 0.3912 0.852 0.80528 0.0
Zn126 Zn 0.6914 0.43001 0.3668 0.0
Zn127 Zn 0.67779 0.47442 0.32434 0.0
O128 O 0.68124 0.49518 0.3722 0.0
O129 O 0.68805 0.457 0.40799 0.0
O130 O 0.66226 0.50817 0.294 0.0
O131 O 0.6565 0.40418 0.35263 0.0
O132 O 0.64549 0.44057 0.31581 0.0
C133 C 0.68473 0.48517 0.40285 0.0
C134 C 0.73807 0.44272 0.31535 0.0
O135 O 0.71965 0.46311 0.30499 0.0
O136 O 0.73128 0.42611 0.34102 0.0
C137 C 0.66877 0.53598 0.29892 0.0
O138 O 0.68798 0.54329 0.32356 0.0
C139 C 0.63997 0.41436 0.32854 0.0
Zn140 Zn 0.09786 0.73713 0.80664 0.0
Zn141 Zn 0.04895 0.71321 0.78059 0.0
O142 O 0.03723 0.72282 0.83133 0.0
O143 O 0.07757 0.7464 0.85129 0.0
O144 O 0.01247 0.6899 0.76303 0.0
O145 O 0.12285 0.69981 0.80075 0.0
O146 O 0.0834 0.68143 0.77295 0.0
C147 C 0.0507 0.73701 0.85562 0.0
C148 C 0.07498 0.77051 0.74835 0.0
O149 O 0.05288 0.75176 0.74978 0.0
O150 O 0.09718 0.76796 0.76894 0.0
C151 C 0.986 0.69201 0.776 0.0
O152 O 0.98092 0.71218 0.80034 0.0
C153 C 0.1109 0.67885 0.78303 0.0
Zn154 Zn 0.80286 0.06502 0.35662 0.0
Zn155 Zn 0.81718 0.02205 0.31346 0.0
O156 O 0.8154 0.00095 0.36142 0.0
O157 O 0.80909 0.0387 0.3978 0.0
O158 O 0.8347 0.98889 0.28375 0.0
O159 O 0.83561 0.09302 0.34161 0.0
O160 O 0.84796 0.05727 0.30462 0.0
C161 C 0.81304 0.01069 0.39228 0.0
C162 C 0.75553 0.05113 0.30622 0.0
O163 O 0.77462 0.03197 0.29446 0.0
O164 O 0.76215 0.06699 0.33253 0.0
C165 C 0.8285 0.961 0.28864 0.0
O166 O 0.80756 0.95366 0.31137 0.0
C167 C 0.85231 0.08371 0.31727 0.0
Zn168 Zn 0.40924 0.69624 0.12928 0.0
Zn169 Zn 0.45662 0.68589 0.16825 0.0
O170 O 0.47358 0.68979 0.11852 0.0
O171 O 0.43295 0.69206 0.0856 0.0
O172 O 0.49285 0.67193 0.19579 0.0
O173 O 0.38505 0.66164 0.14751 0.0
O174 O 0.42434 0.65301 0.18112 0.0
C175 C 0.46153 0.69134 0.08863 0.0
C176 C 0.4242 0.7453 0.1773 0.0
O177 O 0.4455 0.72775 0.18719 0.0
O178 O 0.4064 0.7371 0.15324 0.0
C179 C 0.52022 0.6777 0.1876 0.0
O180 O 0.5258 0.69519 0.1608 0.0
C181 C 0.39743 0.64638 0.17134 0.0
Zn182 Zn 0.80431 0.43698 0.62694 0.0
Zn183 Zn 0.81457 0.48218 0.66793 0.0
O184 O 0.80583 0.50126 0.61983 0.0
O185 O 0.80288 0.46235 0.58452 0.0
O186 O 0.82908 0.51923 0.69372 0.0
O187 O 0.84164 0.41408 0.63864 0.0
O188 O 0.84986 0.45103 0.67557 0.0
C189 C 0.8025 0.49072 0.5894 0.0
C190 C 0.75857 0.44521 0.68119 0.0
O191 O 0.77506 0.4675 0.69083 0.0
O192 O 0.76619 0.42957 0.65506 0.0
C193 C 0.84594 0.51832 0.7204 0.0
O194 O 0.85228 0.49189 0.73444 0.0
C195 C 0.85753 0.42552 0.66253 0.0
Zn196 Zn 0.08193 0.76233 0.14705 0.0
Zn197 Zn 0.03197 0.78263 0.17239 0.0
O198 O 0.01978 0.76961 0.12271 0.0
O199 O 0.06147 0.74724 0.10461 0.0
O200 O 0.99339 0.80162 0.18981 0.0
O201 O 0.10289 0.8026 0.14848 0.0
O202 O 0.06277 0.81831 0.17695 0.0
C203 C 0.03399 0.75439 0.09985 0.0
C204 C 0.0649 0.73074 0.2085 0.0
O205 O 0.04089 0.7468 0.20598 0.0
O206 O 0.0863 0.73428 0.18705 0.0
C207 C 0.99307 0.8162 0.21815 0.0
O208 O 0.01794 0.81727 0.23692 0.0
C209 C 0.08951 0.82314 0.16548 0.0
Zn210 Zn 0.71219 0.06339 0.62709 0.0
Zn211 Zn 0.69877 0.01803 0.66738 0.0
O212 O 0.70723 0.99812 0.61976 0.0
O213 O 0.71335 0.03731 0.58521 0.0
O214 O 0.68313 0.98221 0.69414 0.0
O215 O 0.67495 0.08692 0.63799 0.0
O216 O 0.66361 0.04937 0.67311 0.0
C217 C 0.71172 0.00891 0.58962 0.0
C218 C 0.75551 0.05376 0.68311 0.0
O219 O 0.73778 0.03213 0.69178 0.0
O220 O 0.74969 0.06958 0.6565 0.0
C221 C 0.66971 0.9849 0.72305 0.0
O222 O 0.66802 0.01184 0.73752 0.0
C223 C 0.65738 0.07534 0.66023 0.0
C224 C 0.44527 0.14289 0.23007 0.0
C225 C 0.44265 0.16386 0.20294 0.0
C226 C 0.42042 0.12511 0.24027 0.0
C227 C 0.39238 0.12812 0.22264 0.0
C228 C 0.38925 0.15004 0.1961 0.0
C229 C 0.41442 0.1678 0.18668 0.0
C230 C 0.4245 0.10229 0.2691 0.0
C231 C 0.35977 0.15376 0.1766 0.0
C232 C 0.34501 0.05639 0.22564 0.0
C233 C 0.32504 0.06271 0.25291 0.0
C234 C 0.36594 0.0782 0.21418 0.0
C235 C 0.36711 0.10687 0.23068 0.0
C236 C 0.34586 0.11401 0.25688 0.0
C237 C 0.32491 0.09187 0.26755 0.0
C238 C 0.38788 0.06993 0.1857 0.0
C239 C 0.34649 0.14429 0.27515 0.0
H240 H 0.46696 0.13991 0.2429 0.0
H241 H 0.41224 0.18393 0.16563 0.0
H242 H 0.40656 0.10528 0.28894 0.0
H243 H 0.42223 0.07894 0.25864 0.0
H244 H 0.44703 0.10434 0.28184 0.0
H245 H 0.36024 0.17359 0.15882 0.0
H246 H 0.35522 0.13301 0.16117 0.0
H247 H 0.34056 0.15653 0.19488 0.0
H248 H 0.34503 0.03398 0.21403 0.0
H249 H 0.30956 0.09693 0.28868 0.0
H250 H 0.41115 0.06809 0.19651 0.0
H251 H 0.38832 0.08795 0.16563 0.0
H252 H 0.38196 0.048 0.17319 0.0
H253 H 0.36723 0.14579 0.29139 0.0
H254 H 0.32635 0.14758 0.29204 0.0
H255 H 0.34747 0.16316 0.25616 0.0
C256 C 0.36403 0.44008 0.74528 0.0
C257 C 0.34338 0.43419 0.7185 0.0
C258 C 0.38262 0.41699 0.75849 0.0
C259 C 0.38077 0.38743 0.74425 0.0
C260 C 0.35877 0.38093 0.71861 0.0
C261 C 0.34016 0.4044 0.70617 0.0
C262 C 0.40543 0.42467 0.78635 0.0
C263 C 0.35619 0.34973 0.70272 0.0
C264 C 0.45508 0.34435 0.74794 0.0
C265 C 0.45064 0.32551 0.77673 0.0
C266 C 0.43195 0.36361 0.73618 0.0
C267 C 0.40383 0.36432 0.75391 0.0
C268 C 0.39874 0.34445 0.78211 0.0
C269 C 0.42219 0.32511 0.79307 0.0
C270 C 0.43807 0.38411 0.7056 0.0
C271 C 0.36912 0.3447 0.80176 0.0
H272 H 0.36641 0.46301 0.75513 0.0
H273 H 0.32427 0.39967 0.68543 0.0
H274 H 0.40414 0.40791 0.80774 0.0
H275 H 0.42872 0.42356 0.77549 0.0
H276 H 0.40182 0.44776 0.79715 0.0
H277 H 0.33566 0.34745 0.68621 0.0
H278 H 0.37651 0.34525 0.68654 0.0
H279 H 0.35548 0.33201 0.72311 0.0
H280 H 0.47694 0.34457 0.73503 0.0
H281 H 0.41861 0.31066 0.81541 0.0
H282 H 0.43826 0.40814 0.7142 0.0
H283 H 0.41974 0.38173 0.68607 0.0
H284 H 0.46017 0.37906 0.69301 0.0
H285 H 0.36681 0.36654 0.8158 0.0
H286 H 0.36766 0.32586 0.82082 0.0
H287 H 0.34963 0.34296 0.78367 0.0
C288 C 0.08137 0.33226 0.21047 0.0
C289 C 0.05161 0.33547 0.2229 0.0
C290 C 0.10544 0.34865 0.22529 0.0
C291 C 0.09956 0.3684 0.25334 0.0
C292 C 0.06986 0.37043 0.26716 0.0
C293 C 0.04622 0.35404 0.25166 0.0
C294 C 0.13679 0.34602 0.20979 0.0
C295 C 0.06277 0.39096 0.29739 0.0
C296 C 0.16173 0.40148 0.30989 0.0
C297 C 0.16298 0.43145 0.29762 0.0
C298 C 0.14212 0.38013 0.29475 0.0
C299 C 0.12364 0.38898 0.26653 0.0
C300 C 0.12624 0.41865 0.25271 0.0
C301 C 0.14578 0.43957 0.26853 0.0
C302 C 0.13991 0.34871 0.31019 0.0
C303 C 0.10724 0.42881 0.22228 0.0
H304 H 0.0857 0.31794 0.18822 0.0
H305 H 0.02332 0.35639 0.26159 0.0
H306 H 0.14279 0.36762 0.19667 0.0
H307 H 0.15396 0.34213 0.23033 0.0
H308 H 0.13829 0.3273 0.19062 0.0
H309 H 0.03914 0.38797 0.30687 0.0
H310 H 0.07866 0.38646 0.31908 0.0
H311 H 0.06586 0.41501 0.28956 0.0
H312 H 0.17499 0.39505 0.33237 0.0
H313 H 0.1469 0.46261 0.25869 0.0
H314 H 0.14103 0.33119 0.28964 0.0
H315 H 0.11768 0.34611 0.32338 0.0
H316 H 0.15823 0.3443 0.32932 0.0
H317 H 0.10916 0.41231 0.20073 0.0
H318 H 0.11403 0.45161 0.21267 0.0
H319 H 0.08298 0.4297 0.22998 0.0
C320 C 0.13425 0.05068 0.75255 0.0
C321 C 0.15034 0.05592 0.72184 0.0
C322 C 0.11695 0.0738 0.76783 0.0
C323 C 0.11578 0.10279 0.752 0.0
C324 C 0.13338 0.10871 0.72215 0.0
C325 C 0.15047 0.0852 0.70743 0.0
C326 C 0.0986 0.06671 0.79983 0.0
C327 C 0.13285 0.13938 0.70464 0.0
C328 C 0.04259 0.14647 0.76452 0.0
C329 C 0.05053 0.167 0.79074 0.0
C330 C 0.06384 0.12589 0.7513 0.0
C331 C 0.0938 0.12583 0.76456 0.0
C332 C 0.10229 0.14711 0.79023 0.0
C333 C 0.08052 0.1675 0.80303 0.0
C334 C 0.05396 0.10364 0.72374 0.0
C335 C 0.13409 0.14775 0.80483 0.0
H336 H 0.13418 0.02819 0.76397 0.0
H337 H 0.16307 0.08955 0.68385 0.0
H338 H 0.10242 0.08429 0.81991 0.0
H339 H 0.07406 0.06694 0.79333 0.0
H340 H 0.10433 0.04413 0.81089 0.0
H341 H 0.15036 0.14132 0.68408 0.0
H342 H 0.11022 0.14315 0.69276 0.0
H343 H 0.13654 0.15776 0.72381 0.0
H344 H 0.01951 0.14599 0.75477 0.0
H345 H 0.08684 0.18328 0.82329 0.0
H346 H 0.05612 0.08008 0.73364 0.0
H347 H 0.0689 0.10563 0.70075 0.0
H348 H 0.03009 0.10732 0.71543 0.0
H349 H 0.13877 0.12616 0.81865 0.0
H350 H 0.13756 0.16689 0.82312 0.0
H351 H 0.15095 0.14968 0.78363 0.0
C352 C 0.53686 0.87161 0.76088 0.0
C353 C 0.54199 0.84877 0.7855 0.0
C354 C 0.55997 0.89191 0.75149 0.0
C355 C 0.58895 0.88935 0.7671 0.0
C356 C 0.59459 0.8658 0.79119 0.0
C357 C 0.57103 0.84574 0.80009 0.0
C358 C 0.55311 0.91662 0.72549 0.0
C359 C 0.62524 0.86233 0.80825 0.0
C360 C 0.6519 0.93099 0.71986 0.0
C361 C 0.65236 0.95893 0.73734 0.0
C362 C 0.63235 0.90753 0.73026 0.0
C363 C 0.61285 0.91209 0.75885 0.0
C364 C 0.61441 0.93958 0.77776 0.0
C365 C 0.63416 0.96269 0.76678 0.0
C366 C 0.63145 0.87848 0.70953 0.0
C367 C 0.5941 0.9452 0.80856 0.0
H368 H 0.51455 0.87406 0.74936 0.0
H369 H 0.57519 0.82815 0.81914 0.0
H370 H 0.55565 0.9392 0.73788 0.0
H371 H 0.56953 0.91562 0.70377 0.0
H372 H 0.52976 0.9148 0.7148 0.0
H373 H 0.62649 0.84175 0.82484 0.0
H374 H 0.64336 0.86104 0.78838 0.0
H375 H 0.63007 0.88255 0.82447 0.0
H376 H 0.66603 0.92778 0.69721 0.0
H377 H 0.63447 0.98411 0.78056 0.0
H378 H 0.60953 0.87695 0.69546 0.0
H379 H 0.63288 0.85847 0.7269 0.0
H380 H 0.6502 0.87723 0.69036 0.0
H381 H 0.57013 0.94667 0.79986 0.0
H382 H 0.6 0.96655 0.82231 0.0
H383 H 0.59563 0.92602 0.8271 0.0
C384 C 0.53939 0.64484 0.23557 0.0
C385 C 0.54531 0.66185 0.20563 0.0
C386 C 0.56202 0.6269 0.25081 0.0
C387 C 0.59125 0.62578 0.23564 0.0
C388 C 0.59779 0.6439 0.20631 0.0
C389 C 0.57473 0.66183 0.1917 0.0
C390 C 0.55425 0.60814 0.28233 0.0
C391 C 0.62869 0.64329 0.18944 0.0
C392 C 0.65298 0.59017 0.29101 0.0
C393 C 0.65191 0.55984 0.27996 0.0
C394 C 0.63418 0.61228 0.27592 0.0
C395 C 0.61405 0.60383 0.24904 0.0
C396 C 0.61401 0.5736 0.23662 0.0
C397 C 0.63287 0.55196 0.25229 0.0
C398 C 0.63484 0.6443 0.28985 0.0
C399 C 0.59308 0.56376 0.20773 0.0
H400 H 0.51679 0.64493 0.24668 0.0
H401 H 0.57951 0.67494 0.16858 0.0
H402 H 0.55517 0.58364 0.27568 0.0
H403 H 0.57111 0.61216 0.30317 0.0
H404 H 0.53124 0.61333 0.2925 0.0
H405 H 0.63101 0.66087 0.16897 0.0
H406 H 0.64678 0.64683 0.20901 0.0
H407 H 0.63255 0.62067 0.1776 0.0
H408 H 0.66765 0.59647 0.31236 0.0
H409 H 0.6321 0.52863 0.24339 0.0
H410 H 0.61317 0.64918 0.30336 0.0
H411 H 0.63698 0.6609 0.26839 0.0
H412 H 0.65385 0.64793 0.30831 0.0
H413 H 0.56914 0.56533 0.21649 0.0
H414 H 0.59753 0.54007 0.19928 0.0
H415 H 0.59564 0.57906 0.18511 0.0
C416 C 0.93456 0.66873 0.78467 0.0
C417 C 0.96227 0.66951 0.76672 0.0
C418 C 0.91311 0.64574 0.7784 0.0
C419 C 0.91949 0.62304 0.75354 0.0
C420 C 0.94698 0.62425 0.7346 0.0
C421 C 0.96802 0.64743 0.74142 0.0
C422 C 0.88401 0.64525 0.79904 0.0
C423 C 0.95454 0.60056 0.70771 0.0
C424 C 0.88343 0.5448 0.75871 0.0
C425 C 0.86188 0.5462 0.73202 0.0
C426 C 0.90153 0.57006 0.76691 0.0
C427 C 0.898 0.59738 0.74796 0.0
C428 C 0.87532 0.59939 0.72212 0.0
C429 C 0.85751 0.5738 0.71449 0.0
C430 C 0.92535 0.56709 0.79483 0.0
C431 C 0.87077 0.62815 0.70146 0.0
H432 H 0.9299 0.68567 0.80428 0.0
H433 H 0.9893 0.64787 0.72735 0.0
H434 H 0.86413 0.64427 0.78143 0.0
H435 H 0.8833 0.62455 0.81541 0.0
H436 H 0.88171 0.66546 0.81601 0.0
H437 H 0.97633 0.60539 0.6943 0.0
H438 H 0.95615 0.57789 0.72013 0.0
H439 H 0.93619 0.59931 0.68808 0.0
H440 H 0.88691 0.52364 0.7725 0.0
H441 H 0.84084 0.57518 0.69391 0.0
H442 H 0.9232 0.58589 0.81375 0.0
H443 H 0.9483 0.56876 0.78313 0.0
H444 H 0.92366 0.54514 0.80891 0.0
H445 H 0.86828 0.64793 0.71898 0.0
H446 H 0.85048 0.62689 0.68442 0.0
H447 H 0.89104 0.63237 0.68509 0.0
C448 C 0.8454 0.90687 0.28383 0.0
C449 C 0.84823 0.93727 0.27339 0.0
C450 C 0.86674 0.88497 0.27355 0.0
C451 C 0.89141 0.89371 0.25229 0.0
C452 C 0.89347 0.92399 0.24017 0.0
C453 C 0.87186 0.9454 0.25086 0.0
C454 C 0.86369 0.85286 0.28682 0.0
C455 C 0.91932 0.93415 0.21725 0.0
C456 C 0.96626 0.85143 0.25859 0.0
C457 C 0.96596 0.83403 0.22823 0.0
C458 C 0.94176 0.87034 0.26712 0.0
C459 C 0.91632 0.8719 0.24476 0.0
C460 C 0.91545 0.85373 0.21461 0.0
C461 C 0.94028 0.835 0.20669 0.0
C462 C 0.9435 0.88931 0.29961 0.0
C463 C 0.88869 0.85474 0.1902 0.0
H464 H 0.82718 0.90034 0.30115 0.0
H465 H 0.87414 0.96879 0.24247 0.0
H466 H 0.86565 0.83641 0.26522 0.0
H467 H 0.88239 0.84796 0.30524 0.0
H468 H 0.84172 0.84902 0.30026 0.0
H469 H 0.91636 0.95783 0.2079 0.0
H470 H 0.94101 0.93278 0.2318 0.0
H471 H 0.92137 0.91892 0.19453 0.0
H472 H 0.98593 0.85078 0.27543 0.0
H473 H 0.93981 0.82159 0.1832 0.0
H474 H 0.92329 0.8851 0.31606 0.0
H475 H 0.94347 0.91378 0.2927 0.0
H476 H 0.96423 0.88444 0.31503 0.0
H477 H 0.86727 0.85055 0.20454 0.0
H478 H 0.89062 0.83775 0.16909 0.0
H479 H 0.88694 0.87768 0.17847 0.0
C480 C 0.59578 0.2892 0.20383 0.0
C481 C 0.5679 0.27388 0.20559 0.0
C482 C 0.60168 0.31452 0.22461 0.0
C483 C 0.57889 0.32534 0.24729 0.0
C484 C 0.55009 0.31098 0.24795 0.0
C485 C 0.54506 0.28507 0.22742 0.0
C486 C 0.6329 0.32882 0.2234 0.0
C487 C 0.52495 0.32238 0.27103 0.0
C488 C 0.61502 0.36369 0.324 0.0
C489 C 0.61758 0.39372 0.31209 0.0
C490 C 0.60008 0.34152 0.30438 0.0
C491 C 0.58679 0.34968 0.27237 0.0
C492 C 0.58628 0.38057 0.26212 0.0
C493 C 0.60196 0.40227 0.28198 0.0
C494 C 0.60136 0.30885 0.31628 0.0
C495 C 0.57133 0.39032 0.22879 0.0
H496 H 0.61358 0.28071 0.18707 0.0
H497 H 0.52333 0.27352 0.22859 0.0
H498 H 0.63107 0.35339 0.21745 0.0
H499 H 0.64402 0.32668 0.24907 0.0
H500 H 0.6478 0.3181 0.20371 0.0
H501 H 0.50258 0.31259 0.26379 0.0
H502 H 0.52985 0.31604 0.29824 0.0
H503 H 0.52345 0.34752 0.26987 0.0
H504 H 0.62656 0.35689 0.34753 0.0
H505 H 0.60339 0.4255 0.27282 0.0
H506 H 0.61726 0.29602 0.29949 0.0
H507 H 0.57875 0.29795 0.31403 0.0
H508 H 0.60924 0.30678 0.34349 0.0
H509 H 0.58635 0.38457 0.20671 0.0
H510 H 0.56707 0.41518 0.22827 0.0
H511 H 0.54949 0.37818 0.22494 0.0
C512 C 0.22925 0.5527 0.71412 0.0
C513 C 0.24135 0.56643 0.68438 0.0
C514 C 0.20435 0.56563 0.7315 0.0
C515 C 0.19178 0.5932 0.7192 0.0
C516 C 0.20293 0.60624 0.68822 0.0
C517 C 0.22735 0.59257 0.67108 0.0
C518 C 0.19252 0.55062 0.76391 0.0
C519 C 0.19043 0.63579 0.67433 0.0
C520 C 0.11875 0.63068 0.74914 0.0
C521 C 0.13018 0.65323 0.77127 0.0
C522 C 0.13825 0.60922 0.7339 0.0
C523 C 0.16986 0.61075 0.74055 0.0
C524 C 0.18114 0.6322 0.76459 0.0
C525 C 0.16116 0.65295 0.77982 0.0
C526 C 0.12527 0.58612 0.70916 0.0
C527 C 0.2147 0.63479 0.77232 0.0
H528 H 0.23969 0.53229 0.72436 0.0
H529 H 0.23636 0.6033 0.64802 0.0
H530 H 0.20022 0.5636 0.78688 0.0
H531 H 0.16732 0.55054 0.76412 0.0
H532 H 0.20076 0.52688 0.76647 0.0
H533 H 0.20022 0.64185 0.64875 0.0
H534 H 0.16539 0.63442 0.6717 0.0
H535 H 0.19554 0.65442 0.69277 0.0
H536 H 0.0948 0.63048 0.74267 0.0
H537 H 0.17024 0.67003 0.79718 0.0
H538 H 0.1357 0.56349 0.71348 0.0
H539 H 0.13047 0.59302 0.6822 0.0
H540 H 0.10023 0.58405 0.71181 0.0
H541 H 0.22417 0.61233 0.77947 0.0
H542 H 0.21948 0.65101 0.79364 0.0
H543 H 0.22686 0.64265 0.74882 0.0
C544 C 0.87505 0.13538 0.31285 0.0
C545 C 0.87384 0.10529 0.30095 0.0
C546 C 0.89002 0.15798 0.29394 0.0
C547 C 0.90476 0.15024 0.26266 0.0
C548 C 0.90617 0.11945 0.2522 0.0
C549 C 0.89041 0.09729 0.27133 0.0
C550 C 0.88773 0.19055 0.30596 0.0
C551 C 0.92255 0.11021 0.21961 0.0
C552 C 0.90017 0.21286 0.19598 0.0
C553 C 0.92777 0.22812 0.20106 0.0
C554 C 0.89306 0.18664 0.21481 0.0
C555 C 0.91435 0.17495 0.23883 0.0
C556 C 0.94304 0.18913 0.24254 0.0
C557 C 0.94928 0.21586 0.22392 0.0
C558 C 0.862 0.17251 0.21041 0.0
C559 C 0.96664 0.17679 0.26712 0.0
H560 H 0.86268 0.14179 0.33594 0.0
H561 H 0.88994 0.07404 0.26217 0.0
H562 H 0.91042 0.20148 0.30606 0.0
H563 H 0.87316 0.20353 0.28777 0.0
H564 H 0.87784 0.19242 0.33231 0.0
H565 H 0.92682 0.08536 0.21882 0.0
H566 H 0.90857 0.11638 0.19678 0.0
H567 H 0.94454 0.12237 0.2173 0.0
H568 H 0.88344 0.22217 0.17834 0.0
H569 H 0.97082 0.22735 0.22761 0.0
H570 H 0.84906 0.1745 0.23494 0.0
H571 H 0.86412 0.14799 0.20443 0.0
H572 H 0.84866 0.18352 0.18947 0.0
H573 H 0.95987 0.18187 0.29413 0.0
H574 H 0.98937 0.18697 0.26245 0.0
H575 H 0.96838 0.15174 0.26469 0.0
C576 C 0.28254 0.92225 0.67022 0.0
C577 C 0.26899 0.95049 0.67677 0.0
C578 C 0.30494 0.9105 0.69219 0.0
C579 C 0.31449 0.92759 0.72124 0.0
C580 C 0.3021 0.95681 0.72706 0.0
C581 C 0.27925 0.96783 0.70492 0.0
C582 C 0.31728 0.87908 0.68521 0.0
C583 C 0.3122 0.97596 0.75732 0.0
C584 C 0.34143 0.87728 0.79428 0.0
C585 C 0.37279 0.87582 0.788 0.0
C586 C 0.32242 0.89555 0.774 0.0
C587 C 0.33507 0.91324 0.74705 0.0
C588 C 0.36698 0.91383 0.74237 0.0
C589 C 0.38549 0.89492 0.76276 0.0
C590 C 0.28851 0.89406 0.7798 0.0
C591 C 0.38138 0.933 0.71446 0.0
H592 H 0.27484 0.90868 0.64853 0.0
H593 H 0.26911 0.9898 0.70999 0.0
H594 H 0.34244 0.87965 0.68405 0.0
H595 H 0.31085 0.86361 0.70668 0.0
H596 H 0.30857 0.86939 0.6606 0.0
H597 H 0.30368 0.99964 0.75546 0.0
H598 H 0.30362 0.96584 0.78172 0.0
H599 H 0.33736 0.97645 0.75901 0.0
H600 H 0.33135 0.86288 0.81392 0.0
H601 H 0.40973 0.89419 0.75792 0.0
H602 H 0.27756 0.8826 0.75747 0.0
H603 H 0.2788 0.91723 0.78156 0.0
H604 H 0.28253 0.88138 0.80371 0.0
H605 H 0.37708 0.92248 0.68886 0.0
H606 H 0.40632 0.93513 0.71806 0.0
H607 H 0.37123 0.95606 0.71401 0.0
C608 C 0.60559 0.19905 0.78007 0.0
C609 C 0.5771 0.21312 0.77819 0.0
C610 C 0.61245 0.17373 0.7597 0.0
C611 C 0.59002 0.16162 0.73735 0.0
C612 C 0.56066 0.17473 0.73654 0.0
C613 C 0.55467 0.2007 0.75661 0.0
C614 C 0.64424 0.16082 0.76105 0.0
C615 C 0.53589 0.16193 0.71384 0.0
C616 C 0.62842 0.12387 0.66195 0.0
C617 C 0.63285 0.09442 0.67493 0.0
C618 C 0.61186 0.14546 0.68062 0.0
C619 C 0.59886 0.13723 0.71275 0.0
C620 C 0.59997 0.10657 0.72382 0.0
C621 C 0.61723 0.08548 0.70489 0.0
C622 C 0.61132 0.17788 0.66779 0.0
C623 C 0.58528 0.09664 0.75721 0.0
H624 H 0.62307 0.20851 0.79664 0.0
H625 H 0.53248 0.21129 0.75535 0.0
H626 H 0.64345 0.13634 0.76773 0.0
H627 H 0.6551 0.16286 0.73525 0.0
H628 H 0.65882 0.17259 0.78031 0.0
H629 H 0.51309 0.17008 0.72186 0.0
H630 H 0.53975 0.1691 0.68669 0.0
H631 H 0.53604 0.13673 0.71444 0.0
H632 H 0.63986 0.13088 0.63843 0.0
H633 H 0.62007 0.06264 0.71485 0.0
H634 H 0.62655 0.19194 0.68414 0.0
H635 H 0.58816 0.18754 0.6698 0.0
H636 H 0.61901 0.17976 0.6405 0.0
H637 H 0.59986 0.10349 0.77929 0.0
H638 H 0.58223 0.0716 0.75822 0.0
H639 H 0.56286 0.10773 0.76059 0.0
C640 C 0.34799 0.62042 0.18225 0.0
C641 C 0.37881 0.62398 0.1907 0.0
C642 C 0.32819 0.60452 0.20405 0.0
C643 C 0.33952 0.59127 0.23481 0.0
C644 C 0.37106 0.59239 0.24194 0.0
C645 C 0.39036 0.60898 0.21992 0.0
C646 C 0.29469 0.60411 0.19553 0.0
C647 C 0.38413 0.57777 0.27397 0.0
C648 C 0.28297 0.5917 0.30851 0.0
C649 C 0.27029 0.56255 0.30626 0.0
C650 C 0.30629 0.60088 0.28618 0.0
C651 C 0.3177 0.5802 0.26136 0.0
C652 C 0.30608 0.55022 0.26006 0.0
C653 C 0.28221 0.54184 0.28227 0.0
C654 C 0.3177 0.63321 0.28813 0.0
C655 C 0.31822 0.52734 0.23454 0.0
H656 H 0.33883 0.63162 0.15956 0.0
H657 H 0.41418 0.61132 0.22649 0.0
H658 H 0.28551 0.58072 0.19741 0.0
H659 H 0.28222 0.61828 0.21454 0.0
H660 H 0.28994 0.61301 0.16918 0.0
H661 H 0.40924 0.57571 0.27249 0.0
H662 H 0.37839 0.59174 0.29692 0.0
H663 H 0.37421 0.55487 0.27804 0.0
H664 H 0.2739 0.60785 0.32695 0.0
H665 H 0.27275 0.51915 0.28067 0.0
H666 H 0.31248 0.64521 0.26357 0.0
H667 H 0.34271 0.63351 0.29145 0.0
H668 H 0.30728 0.64607 0.3098 0.0
H669 H 0.31107 0.53369 0.20799 0.0
H670 H 0.30987 0.50401 0.24003 0.0
H671 H 0.34342 0.52722 0.23495 0.0
C672 C 0.8871 0.37739 0.66559 0.0
C673 C 0.88122 0.40643 0.67899 0.0
C674 C 0.90206 0.35536 0.68539 0.0
C675 C 0.91199 0.36275 0.71916 0.0
C676 C 0.9097 0.3931 0.73102 0.0
C677 C 0.89408 0.41462 0.71087 0.0
C678 C 0.90393 0.32331 0.67165 0.0
C679 C 0.92112 0.40215 0.76634 0.0
C680 C 0.89969 0.29988 0.78439 0.0
C681 C 0.92845 0.28638 0.78618 0.0
C682 C 0.89439 0.32513 0.76326 0.0
C683 C 0.91865 0.33777 0.74395 0.0
C684 C 0.94807 0.32501 0.74662 0.0
C685 C 0.95255 0.29908 0.76733 0.0
C686 C 0.86249 0.33762 0.76076 0.0
C687 C 0.97465 0.33834 0.72719 0.0
H688 H 0.87782 0.37097 0.64066 0.0
H689 H 0.89014 0.43714 0.72122 0.0
H690 H 0.92664 0.3134 0.67665 0.0
H691 H 0.88696 0.30893 0.68518 0.0
H692 H 0.89929 0.32224 0.64342 0.0
H693 H 0.92389 0.42716 0.76855 0.0
H694 H 0.9046 0.39464 0.78626 0.0
H695 H 0.94317 0.39106 0.77209 0.0
H696 H 0.88095 0.29012 0.7988 0.0
H697 H 0.9749 0.28888 0.76894 0.0
H698 H 0.8543 0.33609 0.73365 0.0
H699 H 0.86226 0.36194 0.76817 0.0
H700 H 0.84625 0.32522 0.77764 0.0
H701 H 0.97269 0.33262 0.69935 0.0
H702 H 0.99668 0.32945 0.73686 0.0
H703 H 0.97475 0.36347 0.72933 0.0
C704 C 0.09424 0.87207 0.19858 0.0
C705 C 0.10688 0.85047 0.17612 0.0
C706 C 0.11264 0.89411 0.21458 0.0
C707 C 0.14436 0.89402 0.2085 0.0
C708 C 0.15664 0.87412 0.18342 0.0
C709 C 0.13771 0.85285 0.1673 0.0
C710 C 0.09848 0.91586 0.24002 0.0
C711 C 0.19034 0.87311 0.17613 0.0
C712 C 0.20284 0.94972 0.24353 0.0
C713 C 0.21358 0.93376 0.27251 0.0
C714 C 0.17855 0.93833 0.22368 0.0
C715 C 0.1654 0.90999 0.23253 0.0
C716 C 0.17518 0.89465 0.26274 0.0
C717 C 0.19882 0.90689 0.2825 0.0
C718 C 0.16801 0.95593 0.19241 0.0
C719 C 0.16211 0.86419 0.27304 0.0
H720 H 0.07034 0.87078 0.20514 0.0
H721 H 0.14765 0.83663 0.14953 0.0
H722 H 0.10238 0.9075 0.26673 0.0
H723 H 0.10898 0.93871 0.23791 0.0
H724 H 0.07359 0.91793 0.23594 0.0
H725 H 0.19582 0.8586 0.15348 0.0
H726 H 0.19928 0.89626 0.17127 0.0
H727 H 0.20241 0.86391 0.19907 0.0
H728 H 0.21386 0.97069 0.23585 0.0
H729 H 0.20676 0.89443 0.30493 0.0
H730 H 0.14299 0.95444 0.1894 0.0
H731 H 0.17848 0.94619 0.16881 0.0
H732 H 0.17468 0.98023 0.19405 0.0
H733 H 0.13706 0.86563 0.27528 0.0
H734 H 0.17137 0.85587 0.29805 0.0
H735 H 0.16731 0.84712 0.25277 0.0
C736 C 0.39924 0.62268 0.65599 0.0
C737 C 0.39222 0.59569 0.67363 0.0
C738 C 0.41204 0.64747 0.67338 0.0
C739 C 0.41844 0.64498 0.70913 0.0
C740 C 0.41539 0.61648 0.72582 0.0
C741 C 0.40209 0.59211 0.70789 0.0
C742 C 0.41497 0.67735 0.65446 0.0
C743 C 0.42298 0.61262 0.76363 0.0
C744 C 0.45094 0.71475 0.75427 0.0
C745 C 0.42446 0.72779 0.76784 0.0
C746 C 0.44968 0.68727 0.73572 0.0
C747 C 0.42121 0.67311 0.73011 0.0
C748 C 0.39445 0.68647 0.74353 0.0
C749 C 0.39647 0.71342 0.76248 0.0
C750 C 0.4787 0.67323 0.72257 0.0
C751 C 0.36348 0.67252 0.73757 0.0
H752 H 0.39234 0.62546 0.62924 0.0
H753 H 0.39729 0.57116 0.72159 0.0
H754 H 0.39567 0.69225 0.66169 0.0
H755 H 0.43621 0.68927 0.66175 0.0
H756 H 0.41463 0.67425 0.62594 0.0
H757 H 0.42612 0.58832 0.77053 0.0
H758 H 0.44389 0.62534 0.77047 0.0
H759 H 0.40413 0.6218 0.77953 0.0
H760 H 0.47266 0.72567 0.75876 0.0
H761 H 0.37592 0.72353 0.77275 0.0
H762 H 0.47721 0.66919 0.6943 0.0
H763 H 0.48216 0.65081 0.73507 0.0
H764 H 0.49884 0.68771 0.72789 0.0
H765 H 0.35905 0.67041 0.70941 0.0
H766 H 0.34492 0.68615 0.74926 0.0
H767 H 0.36269 0.64935 0.7488 0.0
C768 C 0.85494 0.38204 0.18133 0.0
C769 C 0.88505 0.37925 0.19288 0.0
C770 C 0.83334 0.39803 0.20058 0.0
C771 C 0.84214 0.41218 0.23187 0.0
C772 C 0.8731 0.41212 0.24186 0.0
C773 C 0.89422 0.39537 0.22239 0.0
C774 C 0.80055 0.39729 0.18902 0.0
C775 C 0.88352 0.42788 0.27441 0.0
C776 C 0.77893 0.45816 0.27345 0.0
C777 C 0.7666 0.43671 0.29634 0.0
C778 C 0.80493 0.45136 0.2538 0.0
C779 C 0.8182 0.42216 0.25645 0.0
C780 C 0.80636 0.40085 0.28035 0.0
C781 C 0.78097 0.40852 0.30023 0.0
C782 C 0.8175 0.47499 0.22939 0.0
C783 C 0.81946 0.36925 0.28364 0.0
H784 H 0.84765 0.37008 0.15827 0.0
H785 H 0.91752 0.39373 0.23126 0.0
H786 H 0.78723 0.38283 0.20702 0.0
H787 H 0.79055 0.42037 0.18971 0.0
H788 H 0.79796 0.38804 0.16245 0.0
H789 H 0.90853 0.43127 0.27467 0.0
H790 H 0.87223 0.45027 0.27723 0.0
H791 H 0.87727 0.41391 0.29722 0.0
H792 H 0.76812 0.48014 0.27064 0.0
H793 H 0.77159 0.3918 0.31785 0.0
H794 H 0.81131 0.46904 0.20242 0.0
H795 H 0.84266 0.47571 0.2309 0.0
H796 H 0.80842 0.49799 0.23507 0.0
H797 H 0.81676 0.35694 0.25877 0.0
H798 H 0.80827 0.35579 0.30434 0.0
H799 H 0.84411 0.37046 0.28934 0.0
C800 C 0.1039 0.80672 0.71246 0.0
C801 C 0.0756 0.79596 0.72351 0.0
C802 C 0.1065 0.83362 0.69361 0.0
C803 C 0.08002 0.85043 0.68546 0.0
C804 C 0.05109 0.83886 0.69479 0.0
C805 C 0.04919 0.81158 0.71382 0.0
C806 C 0.13788 0.84462 0.68371 0.0
C807 C 0.02231 0.85586 0.68636 0.0
C808 C 0.10784 0.93015 0.67493 0.0
C809 C 0.11712 0.92904 0.64029 0.0
C810 C 0.09125 0.90604 0.68944 0.0
C811 C 0.08383 0.88059 0.66865 0.0
C812 C 0.08875 0.88191 0.63255 0.0
C813 C 0.1056 0.90608 0.61878 0.0
C814 C 0.08553 0.90594 0.7279 0.0
C815 C 0.08002 0.85588 0.60922 0.0
H816 H 0.12432 0.79442 0.71952 0.0
H817 H 0.02727 0.80335 0.72249 0.0
H818 H 0.13926 0.84814 0.65534 0.0
H819 H 0.14262 0.86675 0.69635 0.0
H820 H 0.15598 0.82839 0.69137 0.0
H821 H 0.00232 0.84046 0.68612 0.0
H822 H 0.0184 0.87345 0.70639 0.0
H823 H 0.0239 0.8675 0.66095 0.0
H824 H 0.11621 0.9481 0.69159 0.0
H825 H 0.11199 0.90558 0.59169 0.0
H826 H 0.10291 0.89161 0.74081 0.0
H827 H 0.06291 0.89615 0.73382 0.0
H828 H 0.08687 0.92918 0.73899 0.0
H829 H 0.09754 0.83784 0.61107 0.0
H830 H 0.07846 0.86322 0.58177 0.0
H831 H 0.05797 0.84586 0.61716 0.0
C832 C 0.60131 0.10426 0.21225 0.0
C833 C 0.612 0.12343 0.1859 0.0
C834 C 0.62144 0.08546 0.23075 0.0
C835 C 0.65291 0.08651 0.22319 0.0
C836 C 0.66333 0.10397 0.19484 0.0
C837 C 0.64272 0.12189 0.17635 0.0
C838 C 0.60931 0.06613 0.25987 0.0
C839 C 0.69669 0.10605 0.18597 0.0
C840 C 0.71084 0.08425 0.29507 0.0
C841 C 0.72666 0.05736 0.2878 0.0
C842 C 0.68573 0.09308 0.27534 0.0
C843 C 0.67557 0.07421 0.24805 0.0
C844 C 0.68997 0.04591 0.24217 0.0
C845 C 0.71573 0.038 0.2618 0.0
C846 C 0.67144 0.1237 0.28224 0.0
C847 C 0.67912 0.02467 0.21417 0.0
H848 H 0.57754 0.1049 0.21946 0.0
H849 H 0.65121 0.1362 0.15567 0.0
H850 H 0.62095 0.04379 0.26062 0.0
H851 H 0.61364 0.07763 0.28491 0.0
H852 H 0.58445 0.06235 0.25739 0.0
H853 H 0.70074 0.1185 0.16139 0.0
H854 H 0.70892 0.11805 0.20705 0.0
H855 H 0.70673 0.08307 0.18368 0.0
H856 H 0.719 0.09935 0.31517 0.0
H857 H 0.72759 0.01699 0.25633 0.0
H858 H 0.6466 0.12126 0.28595 0.0
H859 H 0.67503 0.13881 0.2596 0.0
H860 H 0.68112 0.13495 0.30547 0.0
H861 H 0.65394 0.02416 0.21301 0.0
H862 H 0.68762 0.00119 0.21827 0.0
H863 H 0.6875 0.03272 0.18871 0.0
C864 C 0.44115 0.78814 0.21568 0.0
C865 C 0.41881 0.77463 0.19483 0.0
C866 C 0.43513 0.8152 0.23372 0.0
C867 C 0.40588 0.82839 0.23153 0.0
C868 C 0.38362 0.81528 0.2097 0.0
C869 C 0.39048 0.7888 0.19138 0.0
C870 C 0.4597 0.82903 0.25593 0.0
C871 C 0.35196 0.82833 0.20694 0.0
C872 C 0.36756 0.86986 0.30439 0.0
C873 C 0.36391 0.8989 0.28996 0.0
C874 C 0.38362 0.8472 0.28689 0.0
C875 C 0.39691 0.85389 0.25447 0.0
C876 C 0.39633 0.88403 0.24168 0.0
C877 C 0.37954 0.90622 0.25945 0.0
C878 C 0.38354 0.81534 0.30146 0.0
C879 C 0.41128 0.89228 0.20784 0.0
H880 H 0.46322 0.77747 0.2181 0.0
H881 H 0.37311 0.77853 0.17531 0.0
H882 H 0.46006 0.8541 0.25307 0.0
H883 H 0.4551 0.82387 0.28352 0.0
H884 H 0.48249 0.81993 0.24933 0.0
H885 H 0.33762 0.81586 0.18803 0.0
H886 H 0.34067 0.82744 0.23258 0.0
H887 H 0.35303 0.85251 0.19897 0.0
H888 H 0.35604 0.86408 0.32828 0.0
H889 H 0.37731 0.92874 0.2484 0.0
H890 H 0.40661 0.80533 0.30042 0.0
H891 H 0.36839 0.80078 0.28557 0.0
H892 H 0.37543 0.81466 0.32866 0.0
H893 H 0.43359 0.8808 0.20525 0.0
H894 H 0.41465 0.9172 0.20538 0.0
H895 H 0.39673 0.88461 0.1861 0.0
C896 C 0.71898 0.40698 0.69581 0.0
C897 C 0.73133 0.43598 0.70109 0.0
C898 C 0.69454 0.39646 0.71558 0.0
C899 C 0.68159 0.41561 0.74097 0.0
C900 C 0.69297 0.44546 0.74547 0.0
C901 C 0.71803 0.45521 0.72573 0.0
C902 C 0.68349 0.36428 0.71024 0.0
C903 C 0.67923 0.46676 0.77169 0.0
C904 C 0.6072 0.38224 0.77218 0.0
C905 C 0.61722 0.36473 0.80029 0.0
C906 C 0.62735 0.4015 0.75436 0.0
C907 C 0.65822 0.40282 0.76464 0.0
C908 C 0.66774 0.38718 0.79472 0.0
C909 C 0.64708 0.36856 0.8123 0.0
C910 C 0.61614 0.41858 0.72302 0.0
C911 C 0.70045 0.38772 0.80652 0.0
H912 H 0.72908 0.39191 0.67689 0.0
H913 H 0.72728 0.47776 0.72971 0.0
H914 H 0.68699 0.35091 0.73427 0.0
H915 H 0.65881 0.36416 0.70455 0.0
H916 H 0.69549 0.35265 0.68874 0.0
H917 H 0.68738 0.49045 0.76825 0.0
H918 H 0.65409 0.46648 0.76981 0.0
H919 H 0.68533 0.45916 0.79816 0.0
H920 H 0.58406 0.37979 0.76298 0.0
H921 H 0.655 0.35554 0.83434 0.0
H922 H 0.62341 0.40653 0.69924 0.0
H923 H 0.62599 0.44177 0.72215 0.0
H924 H 0.59097 0.42035 0.7227 0.0
H925 H 0.71459 0.37484 0.78785 0.0
H926 H 0.70339 0.37741 0.83255 0.0
H927 H 0.70924 0.41131 0.80724 0.0
C928 C 0.10528 0.58258 0.3096 0.0
C929 C 0.11863 0.58969 0.34153 0.0
C930 C 0.08776 0.60416 0.29183 0.0
C931 C 0.08359 0.63336 0.30645 0.0
C932 C 0.09317 0.63889 0.34081 0.0
C933 C 0.11066 0.61696 0.35797 0.0
C934 C 0.0774 0.59706 0.25551 0.0
C935 C 0.0887 0.66943 0.35774 0.0
C936 C 0.09801 0.69704 0.24321 0.0
C937 C 0.06867 0.70753 0.23584 0.0
C938 C 0.1029 0.67336 0.26654 0.0
C939 C 0.07777 0.65959 0.28316 0.0
C940 C 0.04804 0.67057 0.27679 0.0
C941 C 0.04381 0.69461 0.25315 0.0
C942 C 0.13512 0.66272 0.27277 0.0
C943 C 0.02081 0.65651 0.29423 0.0
H944 H 0.11078 0.56131 0.29697 0.0
H945 H 0.1202 0.62233 0.3831 0.0
H946 H 0.05498 0.60745 0.25003 0.0
H947 H 0.09399 0.60665 0.23684 0.0
H948 H 0.07589 0.57218 0.25104 0.0
H949 H 0.09021 0.66776 0.38637 0.0
H950 H 0.10672 0.6852 0.34873 0.0
H951 H 0.06645 0.67944 0.35065 0.0
H952 H 0.11739 0.70718 0.23032 0.0
H953 H 0.02108 0.70265 0.2475 0.0
H954 H 0.13745 0.63859 0.26499 0.0
H955 H 0.14073 0.66427 0.30068 0.0
H956 H 0.15207 0.67628 0.2581 0.0
H957 H 0.01822 0.63261 0.28565 0.0
H958 H 0.99949 0.66893 0.28827 0.0
H959 H 0.02409 0.65609 0.32268 0.0
C960 C 0.89887 0.11582 0.79033 0.0
C961 C 0.88633 0.13601 0.81449 0.0
C962 C 0.88024 0.09587 0.77145 0.0
C963 C 0.84839 0.09665 0.77643 0.0
C964 C 0.836 0.11508 0.80285 0.0
C965 C 0.85515 0.13431 0.82175 0.0
C966 C 0.8944 0.07572 0.74437 0.0
C967 C 0.80215 0.11677 0.80895 0.0
C968 C 0.79663 0.09001 0.69888 0.0
C969 C 0.7817 0.06238 0.70512 0.0
C970 C 0.81922 0.10069 0.72122 0.0
C971 C 0.82766 0.08306 0.7503 0.0
C972 C 0.81404 0.05429 0.75571 0.0
C973 C 0.79089 0.0444 0.73323 0.0
C974 C 0.83289 0.13167 0.71461 0.0
C975 C 0.82304 0.03449 0.78588 0.0
H976 H 0.92302 0.11658 0.78495 0.0
H977 H 0.84524 0.14949 0.84068 0.0
H978 H 0.88345 0.05301 0.74419 0.0
H979 H 0.89103 0.08598 0.71843 0.0
H980 H 0.91918 0.07285 0.74868 0.0
H981 H 0.79649 0.12942 0.83295 0.0
H982 H 0.79119 0.12845 0.78676 0.0
H983 H 0.79221 0.09369 0.81073 0.0
H984 H 0.78983 0.10407 0.6772 0.0
H985 H 0.77967 0.02289 0.73805 0.0
H986 H 0.85799 0.13008 0.71328 0.0
H987 H 0.8272 0.14716 0.73629 0.0
H988 H 0.82455 0.14202 0.69017 0.0
H989 H 0.84807 0.03442 0.78931 0.0
H990 H 0.81508 0.01072 0.78255 0.0
H991 H 0.81291 0.04363 0.80998 0.0
C992 C 0.52024 0.19147 0.02939 0.0
C993 C 0.50846 0.19894 0.06183 0.0
C994 C 0.51002 0.20636 -0.00035 0.0
C995 C 0.48784 0.22951 0.00286 0.0
C996 C 0.47217 0.23307 0.03455 0.0
C997 C 0.48281 0.21768 0.06402 0.0
C998 C 0.52641 0.20056 0.96597 0.0
C999 C 0.44688 0.25583 0.03849 0.0
C1000 C 0.52297 0.29232 0.9529 0.0
C1001 C 0.51207 0.28561 0.91984 0.0
C1002 C 0.51147 0.27725 0.98189 0.0
C1003 C 0.48879 0.25469 0.97733 0.0
C1004 C 0.47422 0.25176 0.94487 0.0
C1005 C 0.48618 0.26732 0.91617 0.0
C1006 C 0.52684 0.28231 0.01638 0.0
C1007 C 0.44856 0.22962 0.93936 0.0
H1008 H 0.53957 0.17629 0.02773 0.0
H1009 H 0.47325 0.22302 0.08913 0.0
H1010 H 0.50999 0.1986 0.94436 0.0
H1011 H 0.54182 0.21988 0.96021 0.0
H1012 H 0.5402 0.17945 0.96693 0.0
H1013 H 0.42998 0.24775 0.05775 0.0
H1014 H 0.45634 0.2776 0.04813 0.0
H1015 H 0.4352 0.26021 0.01353 0.0
H1016 H 0.5425 0.30715 0.95571 0.0
H1017 H 0.4773 0.26255 0.89057 0.0
H1018 H 0.54134 0.26246 0.02271 0.0
H1019 H 0.50974 0.2847 0.03721 0.0
H1020 H 0.54139 0.30294 0.01628 0.0
H1021 H 0.45777 0.20797 0.92913 0.0
H1022 H 0.43227 0.23859 0.91992 0.0
H1023 H 0.4362 0.22473 0.96376 0.0
C1024 C 0.22517 0.45565 0.4399 0.0
C1025 C 0.21136 0.48357 0.44748 0.0
C1026 C 0.24374 0.44127 0.46457 0.0
C1027 C 0.24887 0.45568 0.49677 0.0
C1028 C 0.23071 0.481 0.50624 0.0
C1029 C 0.21199 0.49444 0.48142 0.0
C1030 C 0.25997 0.41246 0.45459 0.0
C1031 C 0.23408 0.49676 0.54079 0.0
C1032 C 0.2968 0.45134 0.57473 0.0
C1033 C 0.31667 0.47508 0.56596 0.0
C1034 C 0.27753 0.43884 0.54945 0.0
C1035 C 0.27793 0.45127 0.51572 0.0
C1036 C 0.30279 0.46971 0.50555 0.0
C1037 C 0.32205 0.4814 0.53103 0.0
C1038 C 0.25392 0.41591 0.56009 0.0
C1039 C 0.30584 0.48162 0.46907 0.0
H1040 H 0.22393 0.4465 0.41391 0.0
H1041 H 0.20026 0.51539 0.48764 0.0
H1042 H 0.27735 0.41757 0.43464 0.0
H1043 H 0.27109 0.40129 0.47701 0.0
H1044 H 0.24359 0.39631 0.44279 0.0
H1045 H 0.21701 0.51505 0.54446 0.0
H1046 H 0.23145 0.48027 0.56222 0.0
H1047 H 0.25701 0.50709 0.54284 0.0
H1048 H 0.29342 0.44531 0.60165 0.0
H1049 H 0.33852 0.49871 0.52411 0.0
H1050 H 0.24488 0.4033 0.53744 0.0
H1051 H 0.23479 0.4276 0.57314 0.0
H1052 H 0.26371 0.39951 0.57888 0.0
H1053 H 0.30393 0.46275 0.45026 0.0
H1054 H 0.32792 0.49328 0.46484 0.0
H1055 H 0.28733 0.49805 0.46361 0.0
C1056 C 0.98689 0.31949 0.03754 0.0
C1057 C 0.99642 0.31093 0.07063 0.0
C1058 C 0.99713 0.30373 0.00842 0.0
C1059 C 0.01696 0.2787 0.01301 0.0
C1060 C 0.03132 0.27435 0.04536 0.0
C1061 C 0.0207 0.29057 0.0742 0.0
C1062 C 0.98261 0.31054 0.97388 0.0
C1063 C 0.05452 0.24964 0.05062 0.0
C1064 C 0.977 0.21651 0.96622 0.0
C1065 C 0.98928 0.21994 0.93313 0.0
C1066 C 0.9889 0.23263 -0.00577 0.0
C1067 C 0.0136 0.2528 0.98874 0.0
C1068 C 0.029 0.25255 0.95662 0.0
C1069 C 0.01653 0.23606 0.9289 0.0
C1070 C 0.97231 0.23103 0.02843 0.0
C1071 C 0.05659 0.27202 0.95017 0.0
H1072 H 0.96874 0.33596 0.0348 0.0
H1073 H 0.02869 0.28442 0.09981 0.0
H1074 H 0.99985 0.31023 0.95301 0.0
H1075 H 0.96538 0.29288 0.96791 0.0
H1076 H 0.97119 0.33303 0.97372 0.0
H1077 H 0.07076 0.25593 0.07143 0.0
H1078 H 0.04288 0.22842 0.05863 0.0
H1079 H 0.06731 0.245 0.02646 0.0
H1080 H 0.95638 0.20333 0.96957 0.0
H1081 H 0.02645 0.23829 0.90336 0.0
H1082 H 0.96003 0.25266 0.03302 0.0
H1083 H 0.98857 0.22775 0.04998 0.0
H1084 H 0.95551 0.21219 0.02915 0.0
H1085 H 0.04969 0.29298 0.93631 0.0
H1086 H 0.07298 0.25983 0.93333 0.0
H1087 H 0.06817 0.27856 0.97456 0.0
C1088 C 0.28157 0.04404 0.39584 0.0
C1089 C 0.29406 0.01527 0.40218 0.0
C1090 C 0.26864 0.06083 0.42305 0.0
C1091 C 0.2677 0.04794 0.4566 0.0
C1092 C 0.2852 0.02159 0.46374 0.0
C1093 C 0.2983 0.0057 0.43632 0.0
C1094 C 0.25337 0.0906 0.41492 0.0
C1095 C 0.28643 0.00745 0.49938 0.0
C1096 C 0.23106 0.05829 0.54184 0.0
C1097 C 0.20831 0.0363 0.53777 0.0
C1098 C 0.24788 0.06811 0.51299 0.0
C1099 C 0.24208 0.05471 0.48037 0.0
C1100 C 0.215 0.03777 0.47554 0.0
C1101 C 0.19842 0.02868 0.50455 0.0
C1102 C 0.27423 0.08943 0.51837 0.0
C1103 C 0.20638 0.02468 0.44077 0.0
H1104 H 0.27924 0.05217 0.36949 0.0
H1105 H 0.30922 0.98406 0.44133 0.0
H1106 H 0.23244 0.08639 0.39966 0.0
H1107 H 0.24742 0.10351 0.43862 0.0
H1108 H 0.26858 0.10476 0.3986 0.0
H1109 H 0.30251 0.98805 0.50066 0.0
H1110 H 0.29361 0.02449 0.51877 0.0
H1111 H 0.26358 0.99903 0.50679 0.0
H1112 H 0.23815 0.065 0.5676 0.0
H1113 H 0.18002 0.01249 0.50154 0.0
H1114 H 0.28217 0.09948 0.49361 0.0
H1115 H 0.29335 0.07706 0.53061 0.0
H1116 H 0.26759 0.10799 0.53627 0.0
H1117 H 0.20674 0.04264 0.42071 0.0
H1118 H 0.18338 0.01428 0.44107 0.0
H1119 H 0.22298 0.00692 0.43322 0.0
C1120 C 0.45447 0.7958 0.95084 0.0
C1121 C 0.469 0.79393 0.91878 0.0
C1122 C 0.46511 0.77924 0.97924 0.0
C1123 C 0.49076 0.7601 0.97522 0.0
C1124 C 0.50779 0.76128 0.94422 0.0
C1125 C 0.49668 0.77833 0.91618 0.0
C1126 C 0.44669 0.77957 0.01222 0.0
C1127 C 0.53586 0.74221 0.93918 0.0
C1128 C 0.50202 0.72218 0.06101 0.0
C1129 C 0.47975 0.69951 0.05812 0.0
C1130 C 0.50974 0.74011 0.03224 0.0
C1131 C 0.49485 0.73489 0.00035 0.0
C1132 C 0.47664 0.70858 -0.00378 0.0
C1133 C 0.4691 0.69128 0.02535 0.0
C1134 C 0.53051 0.76698 0.03726 0.0
C1135 C 0.46133 0.7013 0.96226 0.0
H1136 H 0.43336 0.80834 0.95298 0.0
H1137 H 0.50816 0.77702 0.89141 0.0
H1138 H 0.4345 0.75763 0.01507 0.0
H1139 H 0.46172 0.78232 0.03502 0.0
H1140 H 0.42964 0.79815 0.01243 0.0
H1141 H 0.55187 0.75342 0.92099 0.0
H1142 H 0.54774 0.7378 0.964 0.0
H1143 H 0.5293 0.72004 0.92778 0.0
H1144 H 0.5106 0.72837 0.08635 0.0
H1145 H 0.45232 0.67334 0.02309 0.0
H1146 H 0.51677 0.78717 0.04427 0.0
H1147 H 0.54318 0.77236 0.01322 0.0
H1148 H 0.54696 0.76277 0.05854 0.0
H1149 H 0.44231 0.71739 0.95792 0.0
H1150 H 0.45202 0.67783 0.96192 0.0
H1151 H 0.47749 0.70383 0.94046 0.0
C1152 C 0.7964 0.4998 0.52677 0.0
C1153 C 0.79241 0.51024 0.56061 0.0
C1154 C 0.77736 0.50972 0.50014 0.0
C1155 C 0.75395 0.5308 0.50773 0.0
C1156 C 0.75361 0.54545 0.5403 0.0
C1157 C 0.77282 0.53477 0.56672 0.0
C1158 C 0.77959 0.49419 0.46537 0.0
C1159 C 0.73083 0.56988 0.54865 0.0
C1160 C 0.70829 0.53238 0.42637 0.0
C1161 C 0.69121 0.50589 0.43185 0.0
C1162 C 0.72573 0.5448 0.45337 0.0
C1163 C 0.72622 0.5299 0.48581 0.0
C1164 C 0.70461 0.50679 0.4928 0.0
C1165 C 0.68726 0.49511 0.46559 0.0
C1166 C 0.74632 0.57133 0.44579 0.0
C1167 C 0.70311 0.49107 0.52752 0.0
H1168 H 0.81227 0.48147 0.52187 0.0
H1169 H 0.77014 0.54349 0.59276 0.0
H1170 H 0.75972 0.479 0.46163 0.0
H1171 H 0.77944 0.51119 0.44423 0.0
H1172 H 0.80056 0.48034 0.46296 0.0
H1173 H 0.74128 0.58737 0.56559 0.0
H1174 H 0.72192 0.58103 0.52497 0.0
H1175 H 0.71151 0.5598 0.56308 0.0
H1176 H 0.7108 0.54136 0.4004 0.0
H1177 H 0.67321 0.47523 0.46999 0.0
H1178 H 0.76739 0.56307 0.43321 0.0
H1179 H 0.75265 0.58371 0.46974 0.0
H1180 H 0.73517 0.58735 0.42757 0.0
H1181 H 0.72399 0.4774 0.53154 0.0
H1182 H 0.68317 0.47568 0.52955 0.0
H1183 H 0.70178 0.50799 0.54865 0.0
C1184 C 0.03126 0.72167 0.04807 0.0
C1185 C 0.02001 0.74667 0.06636 0.0
C1186 C 0.02568 0.71845 0.0127 0.0
C1187 C 0.00851 0.74092 -0.00468 0.0
C1188 C 0.99329 0.76356 0.01468 0.0
C1189 C 0.99937 0.76634 0.05026 0.0
C1190 C 0.04165 0.69334 -0.0067 0.0
C1191 C 0.97338 0.78684 -0.00274 0.0
C1192 C 0.0501 0.76081 0.91373 0.0
C1193 C 0.03594 0.74186 0.88949 0.0
C1194 C 0.03958 0.76264 0.94771 0.0
C1195 C 0.01399 0.74525 0.95777 0.0
C1196 C 0.99778 0.72833 0.93266 0.0
C1197 C 0.0091 0.72665 0.89869 0.0
C1198 C 0.05754 0.78131 0.97344 0.0
C1199 C 0.96971 0.71045 0.94189 0.0
H1200 H 0.04649 0.70588 0.06085 0.0
H1201 H 0.99012 0.78537 0.06456 0.0
H1202 H 0.02601 0.68245 0.97457 0.0
H1203 H 0.06096 0.70304 0.97849 0.0
H1204 H 0.05064 0.6756 0.011 0.0
H1205 H 0.95696 0.79691 0.01579 0.0
H1206 H 0.98775 0.80543 0.98685 0.0
H1207 H 0.96071 0.77665 0.97531 0.0
H1208 H 0.07038 0.7733 0.9066 0.0
H1209 H 0.99767 0.71239 0.87988 0.0
H1210 H 0.06829 0.76606 -0.00723 0.0
H1211 H 0.04234 0.79703 0.9876 0.0
H1212 H 0.0757 0.79492 0.96087 0.0
H1213 H 0.97633 0.68699 0.94914 0.0
H1214 H 0.95405 0.70888 0.91941 0.0
H1215 H 0.95737 0.72068 0.96402 0.0
C1216 C 0.71364 0.99981 0.5268 0.0
C1217 C 0.71953 0.9892 0.56021 0.0
C1218 C 0.73016 0.98898 0.49857 0.0
C1219 C 0.75308 0.96686 0.50411 0.0
C1220 C 0.75525 0.95237 0.53673 0.0
C1221 C 0.7385 0.96394 0.56475 0.0
C1222 C 0.72596 0.00448 0.46397 0.0
C1223 C 0.77747 0.92698 0.54319 0.0
C1224 C 0.79099 0.96376 0.41816 0.0
C1225 C 0.80918 0.98975 0.42164 0.0
C1226 C 0.77594 0.95162 0.44712 0.0
C1227 C 0.77896 0.96635 0.47946 0.0
C1228 C 0.80191 0.98863 0.48388 0.0
C1229 C 0.81677 1.00009 0.45472 0.0
C1230 C 0.75392 0.92579 0.44207 0.0
C1231 C 0.80728 0.00397 0.51829 0.0
H1232 H 0.69823 0.01878 0.52325 0.0
H1233 H 0.74262 0.95519 0.59056 0.0
H1234 H 0.74619 0.01862 0.45804 0.0
H1235 H 0.72353 0.98742 0.44311 0.0
H1236 H 0.70563 0.0194 0.46354 0.0
H1237 H 0.76723 0.90971 0.5606 0.0
H1238 H 0.78467 0.91576 0.51883 0.0
H1239 H 0.79787 0.93611 0.55645 0.0
H1240 H 0.78568 0.95513 0.39259 0.0
H1241 H 0.83168 0.01958 0.45741 0.0
H1242 H 0.73193 0.9348 0.43254 0.0
H1243 H 0.74978 0.91333 0.4666 0.0
H1244 H 0.7626 0.90967 0.42232 0.0
H1245 H 0.78751 0.01851 0.5248 0.0
H1246 H 0.82795 0.01845 0.518 0.0
H1247 H 0.80979 0.98682 0.53907 0.0
loop_
_geom_bond_atom_site_label_1
_geom_bond_atom_site_label_2
_geom_bond_distance
_geom_bond_site_symmetry_2
_ccdc_geom_bond_type
Zn0 O3 2.031 . S
Zn0 O5 2.049 . S
Zn0 O10 2.067 . S
Zn1 O2 1.962 . S
Zn1 O4 1.986 . S
Zn1 O6 1.996 . S
Zn1 O9 1.943 . S
O2 Zn1 1.962 . S
O2 C7 1.254 . S
O3 Zn0 2.031 . S
O3 C7 1.269 . S
O4 Zn1 1.986 . S
O4 C11 1.262 . S
O5 Zn0 2.049 . S
O5 C13 1.260 . S
O6 Zn1 1.996 . S
O6 C13 1.257 . S
C7 O2 1.254 . S
C7 O3 1.269 . S
C8 O9 1.249 . S
C8 O10 1.270 . S
O9 Zn1 1.943 . S
O9 C8 1.249 . S
O10 Zn0 2.067 . S
O10 C8 1.270 . S
C11 O4 1.262 . S
C11 O12 1.232 . S
O12 C11 1.232 . S
C13 O5 1.260 . S
C13 O6 1.257 . S
Zn14 O17 2.031 . S
Zn14 O19 2.049 . S
Zn14 O24 2.067 . S
Zn15 O16 1.962 . S
Zn15 O18 1.986 . S
Zn15 O20 1.996 . S
Zn15 O23 1.943 . S
O16 Zn15 1.962 . S
O16 C21 1.254 . S
O17 Zn14 2.031 . S
O17 C21 1.269 . S
O18 Zn15 1.986 . S
O18 C25 1.262 . S
O19 Zn14 2.049 . S
O19 C27 1.260 . S
O20 Zn15 1.996 . S
O20 C27 1.257 . S
C21 O16 1.254 . S
C21 O17 1.269 . S
C22 O23 1.249 . S
C22 O24 1.270 . S
O23 Zn15 1.943 . S
O23 C22 1.249 . S
O24 Zn14 2.067 . S
O24 C22 1.270 . S
C25 O18 1.262 . S
C25 O26 1.232 . S
O26 C25 1.232 . S
C27 O19 1.260 . S
C27 O20 1.257 . S
Zn28 O31 2.031 . S
Zn28 O33 2.049 . S
Zn28 O38 2.067 . S
Zn29 O30 1.962 . S
Zn29 O32 1.986 . S
Zn29 O34 1.996 . S
Zn29 O37 1.943 . S
O30 Zn29 1.962 . S
O30 C35 1.254 . S
O31 Zn28 2.031 . S
O31 C35 1.269 . S
O32 Zn29 1.986 . S
O32 C39 1.262 1_655 S
O33 Zn28 2.049 . S
O33 C41 1.260 . S
O34 Zn29 1.996 . S
O34 C41 1.257 . S
C35 O30 1.254 . S
C35 O31 1.269 . S
C36 O37 1.249 . S
C36 O38 1.270 . S
O37 Zn29 1.943 . S
O37 C36 1.249 . S
O38 Zn28 2.067 . S
O38 C36 1.270 . S
C39 O32 1.262 1_455 S
C39 O40 1.232 . S
O40 C39 1.232 . S
C41 O33 1.260 . S
C41 O34 1.257 . S
Zn42 O45 2.031 . S
Zn42 O47 2.049 . S
Zn42 O52 2.067 . S
Zn43 O44 1.962 . S
Zn43 O46 1.986 . S
Zn43 O48 1.996 . S
Zn43 O51 1.943 . S
O44 Zn43 1.962 . S
O44 C49 1.254 . S
O45 Zn42 2.031 . S
O45 C49 1.269 . S
O46 Zn43 1.986 . S
O46 C53 1.262 1_565 S
O47 Zn42 2.049 . S
O47 C55 1.260 . S
O48 Zn43 1.996 . S
O48 C55 1.257 . S
C49 O44 1.254 . S
C49 O45 1.269 . S
C50 O51 1.249 . S
C50 O52 1.270 . S
O51 Zn43 1.943 . S
O51 C50 1.249 . S
O52 Zn42 2.067 . S
O52 C50 1.270 . S
C53 O46 1.262 1_545 S
C53 O54 1.232 . S
O54 C53 1.232 . S
C55 O47 1.260 . S
C55 O48 1.257 . S
Zn56 O59 2.031 . S
Zn56 O61 2.049 . S
Zn56 O66 2.067 . S
Zn57 O58 1.962 . S
Zn57 O60 1.986 . S
Zn57 O62 1.996 . S
Zn57 O65 1.943 . S
O58 Zn57 1.962 . S
O58 C63 1.254 . S
O59 Zn56 2.031 . S
O59 C63 1.269 . S
O60 Zn57 1.986 . S
O60 C67 1.262 . S
O61 Zn56 2.049 . S
O61 C69 1.260 . S
O62 Zn57 1.996 . S
O62 C69 1.257 . S
C63 O58 1.254 . S
C63 O59 1.269 . S
C64 O65 1.249 . S
C64 O66 1.270 . S
O65 Zn57 1.943 . S
O65 C64 1.249 . S
O66 Zn56 2.067 . S
O66 C64 1.270 . S
C67 O60 1.262 . S
C67 O68 1.232 . S
O68 C67 1.232 . S
C69 O61 1.260 . S
C69 O62 1.257 . S
Zn70 O73 2.031 . S
Zn70 O75 2.049 . S
Zn70 O80 2.067 . S
Zn71 O72 1.962 . S
Zn71 O74 1.986 . S
Zn71 O76 1.996 . S
Zn71 O79 1.943 . S
O72 Zn71 1.962 . S
O72 C77 1.254 . S
O73 Zn70 2.031 . S
O73 C77 1.269 . S
O74 Zn71 1.986 . S
O74 C81 1.262 . S
O75 Zn70 2.049 . S
O75 C83 1.260 . S
O76 Zn71 1.996 . S
O76 C83 1.257 . S
C77 O72 1.254 . S
C77 O73 1.269 . S
C78 O79 1.249 . S
C78 O80 1.270 . S
O79 Zn71 1.943 . S
O79 C78 1.249 . S
O80 Zn70 2.067 . S
O80 C78 1.270 . S
C81 O74 1.262 . S
C81 O82 1.232 . S
O82 C81 1.232 . S
C83 O75 1.260 . S
C83 O76 1.257 . S
Zn84 O87 2.031 . S
Zn84 O89 2.049 . S
Zn84 O94 2.067 . S
Zn85 O86 1.962 . S
Zn85 O88 1.986 . S
Zn85 O90 1.996 . S
Zn85 O93 1.943 . S
O86 Zn85 1.962 . S
O86 C91 1.254 . S
O87 Zn84 2.031 . S
O87 C91 1.269 . S
O88 Zn85 1.986 . S
O88 C95 1.262 1_655 S
O89 Zn84 2.049 . S
O89 C97 1.260 . S
O90 Zn85 1.996 . S
O90 C97 1.257 . S
C91 O86 1.254 . S
C91 O87 1.269 . S
C92 O93 1.249 . S
C92 O94 1.270 . S
O93 Zn85 1.943 . S
O93 C92 1.249 . S
O94 Zn84 2.067 . S
O94 C92 1.270 . S
C95 O88 1.262 1_455 S
C95 O96 1.232 . S
O96 C95 1.232 . S
C97 O89 1.260 . S
C97 O90 1.257 . S
Zn98 O101 2.031 . S
Zn98 O103 2.049 . S
Zn98 O108 2.067 . S
Zn99 O100 1.962 . S
Zn99 O102 1.986 . S
Zn99 O104 1.996 . S
Zn99 O107 1.943 . S
O100 Zn99 1.962 . S
O100 C105 1.254 . S
O101 Zn98 2.031 . S
O101 C105 1.269 . S
O102 Zn99 1.986 . S
O102 C109 1.262 1_565 S
O103 Zn98 2.049 . S
O103 C111 1.260 . S
O104 Zn99 1.996 . S
O104 C111 1.257 . S
C105 O100 1.254 . S
C105 O101 1.269 . S
C106 O107 1.249 . S
C106 O108 1.270 . S
O107 Zn99 1.943 . S
O107 C106 1.249 . S
O108 Zn98 2.067 . S
O108 C106 1.270 . S
C109 O102 1.262 1_545 S
C109 O110 1.232 . S
O110 C109 1.232 . S
C111 O103 1.260 . S
C111 O104 1.257 . S
Zn112 O115 2.031 . S
Zn112 O117 2.049 . S
Zn112 O122 2.067 . S
Zn113 O114 1.962 . S
Zn113 O116 1.986 . S
Zn113 O118 1.996 . S
Zn113 O121 1.943 . S
O114 Zn113 1.962 . S
O114 C119 1.254 . S
O115 Zn112 2.031 . S
O115 C119 1.269 . S
O116 Zn113 1.986 . S
O116 C123 1.262 . S
O117 Zn112 2.049 . S
O117 C125 1.260 . S
O118 Zn113 1.996 . S
O118 C125 1.257 . S
C119 O114 1.254 . S
C119 O115 1.269 . S
C120 O121 1.249 . S
C120 O122 1.270 . S
O121 Zn113 1.943 . S
O121 C120 1.249 . S
O122 Zn112 2.067 . S
O122 C120 1.270 . S
C123 O116 1.262 . S
C123 O124 1.232 . S
O124 C123 1.232 . S
C125 O117 1.260 . S
C125 O118 1.257 . S
Zn126 O129 2.031 . S
Zn126 O131 2.049 . S
Zn126 O136 2.067 . S
Zn127 O128 1.962 . S
Zn127 O130 1.986 . S
Zn127 O132 1.996 . S
Zn127 O135 1.943 . S
O128 Zn127 1.962 . S
O128 C133 1.254 . S
O129 Zn126 2.031 . S
O129 C133 1.269 . S
O130 Zn127 1.986 . S
O130 C137 1.262 . S
O131 Zn126 2.049 . S
O131 C139 1.260 . S
O132 Zn127 1.996 . S
O132 C139 1.257 . S
C133 O128 1.254 . S
C133 O129 1.269 . S
C134 O135 1.249 . S
C134 O136 1.270 . S
O135 Zn127 1.943 . S
O135 C134 1.249 . S
O136 Zn126 2.067 . S
O136 C134 1.270 . S
C137 O130 1.262 . S
C137 O138 1.232 . S
O138 C137 1.232 . S
C139 O131 1.260 . S
C139 O132 1.257 . S
Zn140 O143 2.031 . S
Zn140 O145 2.049 . S
Zn140 O150 2.067 . S
Zn141 O142 1.962 . S
Zn141 O144 1.986 . S
Zn141 O146 1.996 . S
Zn141 O149 1.943 . S
O142 Zn141 1.962 . S
O142 C147 1.254 . S
O143 Zn140 2.031 . S
O143 C147 1.269 . S
O144 Zn141 1.986 . S
O144 C151 1.262 1_455 S
O145 Zn140 2.049 . S
O145 C153 1.260 . S
O146 Zn141 1.996 . S
O146 C153 1.257 . S
C147 O142 1.254 . S
C147 O143 1.269 . S
C148 O149 1.249 . S
C148 O150 1.270 . S
O149 Zn141 1.943 . S
O149 C148 1.249 . S
O150 Zn140 2.067 . S
O150 C148 1.270 . S
C151 O144 1.262 1_655 S
C151 O152 1.232 . S
O152 C151 1.232 . S
C153 O145 1.260 . S
C153 O146 1.257 . S
Zn154 O157 2.031 . S
Zn154 O159 2.049 . S
Zn154 O164 2.067 . S
Zn155 O156 1.962 . S
Zn155 O158 1.986 . S
Zn155 O160 1.996 . S
Zn155 O163 1.943 . S
O156 Zn155 1.962 . S
O156 C161 1.254 . S
O157 Zn154 2.031 . S
O157 C161 1.269 . S
O158 Zn155 1.986 . S
O158 C165 1.262 1_545 S
O159 Zn154 2.049 . S
O159 C167 1.260 . S
O160 Zn155 1.996 . S
O160 C167 1.257 . S
C161 O156 1.254 . S
C161 O157 1.269 . S
C162 O163 1.249 . S
C162 O164 1.270 . S
O163 Zn155 1.943 . S
O163 C162 1.249 . S
O164 Zn154 2.067 . S
O164 C162 1.270 . S
C165 O158 1.262 1_565 S
C165 O166 1.232 . S
O166 C165 1.232 . S
C167 O159 1.260 . S
C167 O160 1.257 . S
Zn168 O171 2.031 . S
Zn168 O173 2.049 . S
Zn168 O178 2.067 . S
Zn169 O170 1.962 . S
Zn169 O172 1.986 . S
Zn169 O174 1.996 . S
Zn169 O177 1.943 . S
O170 Zn169 1.962 . S
O170 C175 1.254 . S
O171 Zn168 2.031 . S
O171 C175 1.269 . S
O172 Zn169 1.986 . S
O172 C179 1.262 . S
O173 Zn168 2.049 . S
O173 C181 1.260 . S
O174 Zn169 1.996 . S
O174 C181 1.257 . S
C175 O170 1.254 . S
C175 O171 1.269 . S
C176 O177 1.249 . S
C176 O178 1.270 . S
O177 Zn169 1.943 . S
O177 C176 1.249 . S
O178 Zn168 2.067 . S
O178 C176 1.270 . S
C179 O172 1.262 . S
C179 O180 1.232 . S
O180 C179 1.232 . S
C181 O173 1.260 . S
C181 O174 1.257 . S
Zn182 O185 2.031 . S
Zn182 O187 2.049 . S
Zn182 O192 2.067 . S
Zn183 O184 1.962 . S
Zn183 O186 1.986 . S
Zn183 O188 1.996 . S
Zn183 O191 1.943 . S
O184 Zn183 1.962 . S
O184 C189 1.254 . S
O185 Zn182 2.031 . S
O185 C189 1.269 . S
O186 Zn183 1.986 . S
O186 C193 1.262 . S
O187 Zn182 2.049 . S
O187 C195 1.260 . S
O188 Zn183 1.996 . S
O188 C195 1.257 . S
C189 O184 1.254 . S
C189 O185 1.269 . S
C190 O191 1.249 . S
C190 O192 1.270 . S
O191 Zn183 1.943 . S
O191 C190 1.249 . S
O192 Zn182 2.067 . S
O192 C190 1.270 . S
C193 O186 1.262 . S
C193 O194 1.232 . S
O194 C193 1.232 . S
C195 O187 1.260 . S
C195 O188 1.257 . S
Zn196 O199 2.031 . S
Zn196 O201 2.049 . S
Zn196 O206 2.067 . S
Zn197 O198 1.962 . S
Zn197 O200 1.986 . S
Zn197 O202 1.996 . S
Zn197 O205 1.943 . S
O198 Zn197 1.962 . S
O198 C203 1.254 . S
O199 Zn196 2.031 . S
O199 C203 1.269 . S
O200 Zn197 1.986 . S
O200 C207 1.262 1_455 S
O201 Zn196 2.049 . S
O201 C209 1.260 . S
O202 Zn197 1.996 . S
O202 C209 1.257 . S
C203 O198 1.254 . S
C203 O199 1.269 . S
C204 O205 1.249 . S
C204 O206 1.270 . S
O205 Zn197 1.943 . S
O205 C204 1.249 . S
O206 Zn196 2.067 . S
O206 C204 1.270 . S
C207 O200 1.262 1_655 S
C207 O208 1.232 . S
O208 C207 1.232 . S
C209 O201 1.260 . S
C209 O202 1.257 . S
Zn210 O213 2.031 . S
Zn210 O215 2.049 . S
Zn210 O220 2.067 . S
Zn211 O212 1.962 . S
Zn211 O214 1.986 . S
Zn211 O216 1.996 . S
Zn211 O219 1.943 . S
O212 Zn211 1.962 . S
O212 C217 1.254 . S
O213 Zn210 2.031 . S
O213 C217 1.269 . S
O214 Zn211 1.986 . S
O214 C221 1.262 1_545 S
O215 Zn210 2.049 . S
O215 C223 1.260 . S
O216 Zn211 1.996 . S
O216 C223 1.257 . S
C217 O212 1.254 . S
C217 O213 1.269 . S
C218 O219 1.249 . S
C218 O220 1.270 . S
O219 Zn211 1.943 . S
O219 C218 1.249 . S
O220 Zn210 2.067 . S
O220 C218 1.270 . S
C221 O214 1.262 1_565 S
C221 O222 1.232 . S
O222 C221 1.232 . S
C223 O215 1.260 . S
C223 O216 1.257 . S
C224 C225 1.391 . S
C224 C226 1.394 . S
C224 H240 0.931 . S
C225 C224 1.391 . S
C225 C229 1.376 . S
C226 C224 1.394 . S
C226 C227 1.369 . S
C226 C230 1.531 . S
C227 C226 1.369 . S
C227 C228 1.410 . S
C227 C235 1.503 . S
C228 C227 1.410 . S
C228 C229 1.392 . S
C228 C231 1.511 . S
C229 C225 1.376 . S
C229 C228 1.392 . S
C229 H241 0.929 . S
C230 C226 1.531 . S
C230 H242 0.960 . S
C230 H243 0.962 . S
C230 H244 0.960 . S
C231 C228 1.511 . S
C231 H245 0.961 . S
C231 H246 0.961 . S
C231 H247 0.961 . S
C232 C233 1.370 . S
C232 C234 1.363 . S
C232 H248 0.931 . S
C233 C232 1.370 . S
C233 C237 1.408 . S
C234 C232 1.363 . S
C234 C235 1.370 . S
C234 C238 1.524 . S
C235 C227 1.503 . S
C235 C234 1.370 . S
C235 C236 1.403 . S
C236 C235 1.403 . S
C236 C237 1.404 . S
C236 C239 1.539 . S
C237 C233 1.408 . S
C237 C236 1.404 . S
C237 H249 0.930 . S
C238 C234 1.524 . S
C238 H250 0.956 . S
C238 H251 0.961 . S
C238 H252 0.961 . S
C239 C236 1.539 . S
C239 H253 0.958 . S
C239 H254 0.961 . S
C239 H255 0.960 . S
H240 C224 0.931 . S
H241 C229 0.929 . S
H242 C230 0.960 . S
H243 C230 0.962 . S
H244 C230 0.960 . S
H245 C231 0.961 . S
H246 C231 0.961 . S
H247 C231 0.961 . S
H248 C232 0.931 . S
H249 C237 0.930 . S
H250 C238 0.956 . S
H251 C238 0.961 . S
H252 C238 0.961 . S
H253 C239 0.958 . S
H254 C239 0.961 . S
H255 C239 0.960 . S
C256 C257 1.391 . S
C256 C258 1.394 . S
C256 H272 0.931 . S
C257 C256 1.391 . S
C257 C261 1.376 . S
C258 C256 1.394 . S
C258 C259 1.369 . S
C258 C262 1.531 . S
C259 C258 1.369 . S
C259 C260 1.410 . S
C259 C267 1.503 . S
C260 C259 1.410 . S
C260 C261 1.392 . S
C260 C263 1.511 . S
C261 C257 1.376 . S
C261 C260 1.392 . S
C261 H273 0.929 . S
C262 C258 1.531 . S
C262 H274 0.960 . S
C262 H275 0.962 . S
C262 H276 0.960 . S
C263 C260 1.511 . S
C263 H277 0.961 . S
C263 H278 0.961 . S
C263 H279 0.961 . S
C264 C265 1.370 . S
C264 C266 1.363 . S
C264 H280 0.931 . S
C265 C264 1.370 . S
C265 C269 1.408 . S
C266 C264 1.363 . S
C266 C267 1.370 . S
C266 C270 1.524 . S
C267 C259 1.503 . S
C267 C266 1.370 . S
C267 C268 1.403 . S
C268 C267 1.403 . S
C268 C269 1.404 . S
C268 C271 1.539 . S
C269 C265 1.408 . S
C269 C268 1.404 . S
C269 H281 0.930 . S
C270 C266 1.524 . S
C270 H282 0.956 . S
C270 H283 0.961 . S
C270 H284 0.961 . S
C271 C268 1.539 . S
C271 H285 0.958 . S
C271 H286 0.961 . S
C271 H287 0.960 . S
H272 C256 0.931 . S
H273 C261 0.929 . S
H274 C262 0.960 . S
H275 C262 0.962 . S
H276 C262 0.960 . S
H277 C263 0.961 . S
H278 C263 0.961 . S
H279 C263 0.961 . S
H280 C264 0.931 . S
H281 C269 0.930 . S
H282 C270 0.956 . S
H283 C270 0.961 . S
H284 C270 0.961 . S
H285 C271 0.958 . S
H286 C271 0.961 . S
H287 C271 0.960 . S
C288 C289 1.391 . S
C288 C290 1.394 . S
C288 H304 0.931 . S
C289 C288 1.391 . S
C289 C293 1.376 . S
C290 C288 1.394 . S
C290 C291 1.369 . S
C290 C294 1.531 . S
C291 C290 1.369 . S
C291 C292 1.410 . S
C291 C299 1.503 . S
C292 C291 1.410 . S
C292 C293 1.392 . S
C292 C295 1.511 . S
C293 C289 1.376 . S
C293 C292 1.392 . S
C293 H305 0.929 . S
C294 C290 1.531 . S
C294 H306 0.960 . S
C294 H307 0.962 . S
C294 H308 0.960 . S
C295 C292 1.511 . S
C295 H309 0.961 . S
C295 H310 0.961 . S
C295 H311 0.961 . S
C296 C297 1.370 . S
C296 C298 1.363 . S
C296 H312 0.931 . S
C297 C296 1.370 . S
C297 C301 1.408 . S
C298 C296 1.363 . S
C298 C299 1.370 . S
C298 C302 1.524 . S
C299 C291 1.503 . S
C299 C298 1.370 . S
C299 C300 1.403 . S
C300 C299 1.403 . S
C300 C301 1.404 . S
C300 C303 1.539 . S
C301 C297 1.408 . S
C301 C300 1.404 . S
C301 H313 0.930 . S
C302 C298 1.524 . S
C302 H314 0.956 . S
C302 H315 0.961 . S
C302 H316 0.961 . S
C303 C300 1.539 . S
C303 H317 0.958 . S
C303 H318 0.961 . S
C303 H319 0.960 . S
H304 C288 0.931 . S
H305 C293 0.929 . S
H306 C294 0.960 . S
H307 C294 0.962 . S
H308 C294 0.960 . S
H309 C295 0.961 . S
H310 C295 0.961 . S
H311 C295 0.961 . S
H312 C296 0.931 . S
H313 C301 0.930 . S
H314 C302 0.956 . S
H315 C302 0.961 . S
H316 C302 0.961 . S
H317 C303 0.958 . S
H318 C303 0.961 . S
H319 C303 0.960 . S
C320 C321 1.391 . S
C320 C322 1.394 . S
C320 H336 0.931 . S
C321 C320 1.391 . S
C321 C325 1.376 . S
C322 C320 1.394 . S
C322 C323 1.369 . S
C322 C326 1.531 . S
C323 C322 1.369 . S
C323 C324 1.410 . S
C323 C331 1.503 . S
C324 C323 1.410 . S
C324 C325 1.392 . S
C324 C327 1.511 . S
C325 C321 1.376 . S
C325 C324 1.392 . S
C325 H337 0.929 . S
C326 C322 1.531 . S
C326 H338 0.960 . S
C326 H339 0.962 . S
C326 H340 0.960 . S
C327 C324 1.511 . S
C327 H341 0.961 . S
C327 H342 0.961 . S
C327 H343 0.961 . S
C328 C329 1.370 . S
C328 C330 1.363 . S
C328 H344 0.931 . S
C329 C328 1.370 . S
C329 C333 1.408 . S
C330 C328 1.363 . S
C330 C331 1.370 . S
C330 C334 1.524 . S
C331 C323 1.503 . S
C331 C330 1.370 . S
C331 C332 1.403 . S
C332 C331 1.403 . S
C332 C333 1.404 . S
C332 C335 1.539 . S
C333 C329 1.408 . S
C333 C332 1.404 . S
C333 H345 0.930 . S
C334 C330 1.524 . S
C334 H346 0.956 . S
C334 H347 0.961 . S
C334 H348 0.961 . S
C335 C332 1.539 . S
C335 H349 0.958 . S
C335 H350 0.961 . S
C335 H351 0.960 . S
H336 C320 0.931 . S
H337 C325 0.929 . S
H338 C326 0.960 . S
H339 C326 0.962 . S
H340 C326 0.960 . S
H341 C327 0.961 . S
H342 C327 0.961 . S
H343 C327 0.961 . S
H344 C328 0.931 . S
H345 C333 0.930 . S
H346 C334 0.956 . S
H347 C334 0.961 . S
H348 C334 0.961 . S
H349 C335 0.958 . S
H350 C335 0.961 . S
H351 C335 0.960 . S
C352 C353 1.391 . S
C352 C354 1.394 . S
C352 H368 0.931 . S
C353 C352 1.391 . S
C353 C357 1.376 . S
C354 C352 1.394 . S
C354 C355 1.369 . S
C354 C358 1.531 . S
C355 C354 1.369 . S
C355 C356 1.410 . S
C355 C363 1.503 . S
C356 C355 1.410 . S
C356 C357 1.392 . S
C356 C359 1.511 . S
C357 C353 1.376 . S
C357 C356 1.392 . S
C357 H369 0.929 . S
C358 C354 1.531 . S
C358 H370 0.960 . S
C358 H371 0.962 . S
C358 H372 0.960 . S
C359 C356 1.511 . S
C359 H373 0.961 . S
C359 H374 0.961 . S
C359 H375 0.961 . S
C360 C361 1.370 . S
C360 C362 1.363 . S
C360 H376 0.931 . S
C361 C360 1.370 . S
C361 C365 1.408 . S
C362 C360 1.363 . S
C362 C363 1.370 . S
C362 C366 1.524 . S
C363 C355 1.503 . S
C363 C362 1.370 . S
C363 C364 1.403 . S
C364 C363 1.403 . S
C364 C365 1.404 . S
C364 C367 1.539 . S
C365 C361 1.408 . S
C365 C364 1.404 . S
C365 H377 0.930 . S
C366 C362 1.524 . S
C366 H378 0.956 . S
C366 H379 0.961 . S
C366 H380 0.961 . S
C367 C364 1.539 . S
C367 H381 0.958 . S
C367 H382 0.961 . S
C367 H383 0.960 . S
H368 C352 0.931 . S
H369 C357 0.929 . S
H370 C358 0.960 . S
H371 C358 0.962 . S
H372 C358 0.960 . S
H373 C359 0.961 . S
H374 C359 0.961 . S
H375 C359 0.961 . S
H376 C360 0.931 . S
H377 C365 0.930 . S
H378 C366 0.956 . S
H379 C366 0.961 . S
H380 C366 0.961 . S
H381 C367 0.958 . S
H382 C367 0.961 . S
H383 C367 0.960 . S
C384 C385 1.391 . S
C384 C386 1.394 . S
C384 H400 0.931 . S
C385 C384 1.391 . S
C385 C389 1.376 . S
C386 C384 1.394 . S
C386 C387 1.369 . S
C386 C390 1.531 . S
C387 C386 1.369 . S
C387 C388 1.410 . S
C387 C395 1.503 . S
C388 C387 1.410 . S
C388 C389 1.392 . S
C388 C391 1.511 . S
C389 C385 1.376 . S
C389 C388 1.392 . S
C389 H401 0.929 . S
C390 C386 1.531 . S
C390 H402 0.960 . S
C390 H403 0.962 . S
C390 H404 0.960 . S
C391 C388 1.511 . S
C391 H405 0.961 . S
C391 H406 0.961 . S
C391 H407 0.961 . S
C392 C393 1.370 . S
C392 C394 1.363 . S
C392 H408 0.931 . S
C393 C392 1.370 . S
C393 C397 1.408 . S
C394 C392 1.363 . S
C394 C395 1.370 . S
C394 C398 1.524 . S
C395 C387 1.503 . S
C395 C394 1.370 . S
C395 C396 1.403 . S
C396 C395 1.403 . S
C396 C397 1.404 . S
C396 C399 1.539 . S
C397 C393 1.408 . S
C397 C396 1.404 . S
C397 H409 0.930 . S
C398 C394 1.524 . S
C398 H410 0.956 . S
C398 H411 0.961 . S
C398 H412 0.961 . S
C399 C396 1.539 . S
C399 H413 0.958 . S
C399 H414 0.961 . S
C399 H415 0.960 . S
H400 C384 0.931 . S
H401 C389 0.929 . S
H402 C390 0.960 . S
H403 C390 0.962 . S
H404 C390 0.960 . S
H405 C391 0.961 . S
H406 C391 0.961 . S
H407 C391 0.961 . S
H408 C392 0.931 . S
H409 C397 0.930 . S
H410 C398 0.956 . S
H411 C398 0.961 . S
H412 C398 0.961 . S
H413 C399 0.958 . S
H414 C399 0.961 . S
H415 C399 0.960 . S
C416 C417 1.391 . S
C416 C418 1.394 . S
C416 H432 0.931 . S
C417 C416 1.391 . S
C417 C421 1.376 . S
C418 C416 1.394 . S
C418 C419 1.369 . S
C418 C422 1.531 . S
C419 C418 1.369 . S
C419 C420 1.410 . S
C419 C427 1.503 . S
C420 C419 1.410 . S
C420 C421 1.392 . S
C420 C423 1.511 . S
C421 C417 1.376 . S
C421 C420 1.392 . S
C421 H433 0.929 . S
C422 C418 1.531 . S
C422 H434 0.960 . S
C422 H435 0.962 . S
C422 H436 0.960 . S
C423 C420 1.511 . S
C423 H437 0.961 . S
C423 H438 0.961 . S
C423 H439 0.961 . S
C424 C425 1.370 . S
C424 C426 1.363 . S
C424 H440 0.931 . S
C425 C424 1.370 . S
C425 C429 1.408 . S
C426 C424 1.363 . S
C426 C427 1.370 . S
C426 C430 1.524 . S
C427 C419 1.503 . S
C427 C426 1.370 . S
C427 C428 1.403 . S
C428 C427 1.403 . S
C428 C429 1.404 . S
C428 C431 1.539 . S
C429 C425 1.408 . S
C429 C428 1.404 . S
C429 H441 0.930 . S
C430 C426 1.524 . S
C430 H442 0.956 . S
C430 H443 0.961 . S
C430 H444 0.961 . S
C431 C428 1.539 . S
C431 H445 0.958 . S
C431 H446 0.961 . S
C431 H447 0.960 . S
H432 C416 0.931 . S
H433 C421 0.929 . S
H434 C422 0.960 . S
H435 C422 0.962 . S
H436 C422 0.960 . S
H437 C423 0.961 . S
H438 C423 0.961 . S
H439 C423 0.961 . S
H440 C424 0.931 . S
H441 C429 0.930 . S
H442 C430 0.956 . S
H443 C430 0.961 . S
H444 C430 0.961 . S
H445 C431 0.958 . S
H446 C431 0.961 . S
H447 C431 0.960 . S
C448 C449 1.391 . S
C448 C450 1.394 . S
C448 H464 0.931 . S
C449 C448 1.391 . S
C449 C453 1.376 . S
C450 C448 1.394 . S
C450 C451 1.369 . S
C450 C454 1.531 . S
C451 C450 1.369 . S
C451 C452 1.410 . S
C451 C459 1.503 . S
C452 C451 1.410 . S
C452 C453 1.392 . S
C452 C455 1.511 . S
C453 C449 1.376 . S
C453 C452 1.392 . S
C453 H465 0.929 . S
C454 C450 1.531 . S
C454 H466 0.960 . S
C454 H467 0.962 . S
C454 H468 0.960 . S
C455 C452 1.511 . S
C455 H469 0.961 . S
C455 H470 0.961 . S
C455 H471 0.961 . S
C456 C457 1.370 . S
C456 C458 1.363 . S
C456 H472 0.931 . S
C457 C456 1.370 . S
C457 C461 1.408 . S
C458 C456 1.363 . S
C458 C459 1.370 . S
C458 C462 1.524 . S
C459 C451 1.503 . S
C459 C458 1.370 . S
C459 C460 1.403 . S
C460 C459 1.403 . S
C460 C461 1.404 . S
C460 C463 1.539 . S
C461 C457 1.408 . S
C461 C460 1.404 . S
C461 H473 0.930 . S
C462 C458 1.524 . S
C462 H474 0.956 . S
C462 H475 0.961 . S
C462 H476 0.961 . S
C463 C460 1.539 . S
C463 H477 0.958 . S
C463 H478 0.961 . S
C463 H479 0.960 . S
H464 C448 0.931 . S
H465 C453 0.929 . S
H466 C454 0.960 . S
H467 C454 0.962 . S
H468 C454 0.960 . S
H469 C455 0.961 . S
H470 C455 0.961 . S
H471 C455 0.961 . S
H472 C456 0.931 . S
H473 C461 0.930 . S
H474 C462 0.956 . S
H475 C462 0.961 . S
H476 C462 0.961 . S
H477 C463 0.958 . S
H478 C463 0.961 . S
H479 C463 0.960 . S
C480 C481 1.391 . S
C480 C482 1.394 . S
C480 H496 0.931 . S
C481 C480 1.391 . S
C481 C485 1.376 . S
C482 C480 1.394 . S
C482 C483 1.369 . S
C482 C486 1.531 . S
C483 C482 1.369 . S
C483 C484 1.410 . S
C483 C491 1.503 . S
C484 C483 1.410 . S
C484 C485 1.392 . S
C484 C487 1.511 . S
C485 C481 1.376 . S
C485 C484 1.392 . S
C485 H497 0.929 . S
C486 C482 1.531 . S
C486 H498 0.960 . S
C486 H499 0.962 . S
C486 H500 0.960 . S
C487 C484 1.511 . S
C487 H501 0.961 . S
C487 H502 0.961 . S
C487 H503 0.961 . S
C488 C489 1.370 . S
C488 C490 1.363 . S
C488 H504 0.931 . S
C489 C488 1.370 . S
C489 C493 1.408 . S
C490 C488 1.363 . S
C490 C491 1.370 . S
C490 C494 1.524 . S
C491 C483 1.503 . S
C491 C490 1.370 . S
C491 C492 1.403 . S
C492 C491 1.403 . S
C492 C493 1.404 . S
C492 C495 1.539 . S
C493 C489 1.408 . S
C493 C492 1.404 . S
C493 H505 0.930 . S
C494 C490 1.524 . S
C494 H506 0.956 . S
C494 H507 0.961 . S
C494 H508 0.961 . S
C495 C492 1.539 . S
C495 H509 0.958 . S
C495 H510 0.961 . S
C495 H511 0.960 . S
H496 C480 0.931 . S
H497 C485 0.929 . S
H498 C486 0.960 . S
H499 C486 0.962 . S
H500 C486 0.960 . S
H501 C487 0.961 . S
H502 C487 0.961 . S
H503 C487 0.961 . S
H504 C488 0.931 . S
H505 C493 0.930 . S
H506 C494 0.956 . S
H507 C494 0.961 . S
H508 C494 0.961 . S
H509 C495 0.958 . S
H510 C495 0.961 . S
H511 C495 0.960 . S
C512 C513 1.391 . S
C512 C514 1.394 . S
C512 H528 0.931 . S
C513 C512 1.391 . S
C513 C517 1.376 . S
C514 C512 1.394 . S
C514 C515 1.369 . S
C514 C518 1.531 . S
C515 C514 1.369 . S
C515 C516 1.410 . S
C515 C523 1.503 . S
C516 C515 1.410 . S
C516 C517 1.392 . S
C516 C519 1.511 . S
C517 C513 1.376 . S
C517 C516 1.392 . S
C517 H529 0.929 . S
C518 C514 1.531 . S
C518 H530 0.960 . S
C518 H531 0.962 . S
C518 H532 0.960 . S
C519 C516 1.511 . S
C519 H533 0.961 . S
C519 H534 0.961 . S
C519 H535 0.961 . S
C520 C521 1.370 . S
C520 C522 1.363 . S
C520 H536 0.931 . S
C521 C520 1.370 . S
C521 C525 1.408 . S
C522 C520 1.363 . S
C522 C523 1.370 . S
C522 C526 1.524 . S
C523 C515 1.503 . S
C523 C522 1.370 . S
C523 C524 1.403 . S
C524 C523 1.403 . S
C524 C525 1.404 . S
C524 C527 1.539 . S
C525 C521 1.408 . S
C525 C524 1.404 . S
C525 H537 0.930 . S
C526 C522 1.524 . S
C526 H538 0.956 . S
C526 H539 0.961 . S
C526 H540 0.961 . S
C527 C524 1.539 . S
C527 H541 0.958 . S
C527 H542 0.961 . S
C527 H543 0.960 . S
H528 C512 0.931 . S
H529 C517 0.929 . S
H530 C518 0.960 . S
H531 C518 0.962 . S
H532 C518 0.960 . S
H533 C519 0.961 . S
H534 C519 0.961 . S
H535 C519 0.961 . S
H536 C520 0.931 . S
H537 C525 0.930 . S
H538 C526 0.956 . S
H539 C526 0.961 . S
H540 C526 0.961 . S
H541 C527 0.958 . S
H542 C527 0.961 . S
H543 C527 0.960 . S
C544 C545 1.391 . S
C544 C546 1.394 . S
C544 H560 0.931 . S
C545 C544 1.391 . S
C545 C549 1.376 . S
C546 C544 1.394 . S
C546 C547 1.369 . S
C546 C550 1.531 . S
C547 C546 1.369 . S
C547 C548 1.410 . S
C547 C555 1.503 . S
C548 C547 1.410 . S
C548 C549 1.392 . S
C548 C551 1.511 . S
C549 C545 1.376 . S
C549 C548 1.392 . S
C549 H561 0.929 . S
C550 C546 1.531 . S
C550 H562 0.960 . S
C550 H563 0.962 . S
C550 H564 0.960 . S
C551 C548 1.511 . S
C551 H565 0.961 . S
C551 H566 0.961 . S
C551 H567 0.961 . S
C552 C553 1.370 . S
C552 C554 1.363 . S
C552 H568 0.931 . S
C553 C552 1.370 . S
C553 C557 1.408 . S
C554 C552 1.363 . S
C554 C555 1.370 . S
C554 C558 1.524 . S
C555 C547 1.503 . S
C555 C554 1.370 . S
C555 C556 1.403 . S
C556 C555 1.403 . S
C556 C557 1.404 . S
C556 C559 1.539 . S
C557 C553 1.408 . S
C557 C556 1.404 . S
C557 H569 0.930 . S
C558 C554 1.524 . S
C558 H570 0.956 . S
C558 H571 0.961 . S
C558 H572 0.961 . S
C559 C556 1.539 . S
C559 H573 0.958 . S
C559 H574 0.961 . S
C559 H575 0.960 . S
H560 C544 0.931 . S
H561 C549 0.929 . S
H562 C550 0.960 . S
H563 C550 0.962 . S
H564 C550 0.960 . S
H565 C551 0.961 . S
H566 C551 0.961 . S
H567 C551 0.961 . S
H568 C552 0.931 . S
H569 C557 0.930 . S
H570 C558 0.956 . S
H571 C558 0.961 . S
H572 C558 0.961 . S
H573 C559 0.958 . S
H574 C559 0.961 . S
H575 C559 0.960 . S
C576 C577 1.391 . S
C576 C578 1.394 . S
C576 H592 0.931 . S
C577 C576 1.391 . S
C577 C581 1.376 . S
C578 C576 1.394 . S
C578 C579 1.369 . S
C578 C582 1.531 . S
C579 C578 1.369 . S
C579 C580 1.410 . S
C579 C587 1.503 . S
C580 C579 1.410 . S
C580 C581 1.392 . S
C580 C583 1.511 . S
C581 C577 1.376 . S
C581 C580 1.392 . S
C581 H593 0.929 . S
C582 C578 1.531 . S
C582 H594 0.960 . S
C582 H595 0.962 . S
C582 H596 0.960 . S
C583 C580 1.511 . S
C583 H597 0.961 . S
C583 H598 0.961 . S
C583 H599 0.961 . S
C584 C585 1.370 . S
C584 C586 1.363 . S
C584 H600 0.931 . S
C585 C584 1.370 . S
C585 C589 1.408 . S
C586 C584 1.363 . S
C586 C587 1.370 . S
C586 C590 1.524 . S
C587 C579 1.503 . S
C587 C586 1.370 . S
C587 C588 1.403 . S
C588 C587 1.403 . S
C588 C589 1.404 . S
C588 C591 1.539 . S
C589 C585 1.408 . S
C589 C588 1.404 . S
C589 H601 0.930 . S
C590 C586 1.524 . S
C590 H602 0.956 . S
C590 H603 0.961 . S
C590 H604 0.961 . S
C591 C588 1.539 . S
C591 H605 0.958 . S
C591 H606 0.961 . S
C591 H607 0.960 . S
H592 C576 0.931 . S
H593 C581 0.929 . S
H594 C582 0.960 . S
H595 C582 0.962 . S
H596 C582 0.960 . S
H597 C583 0.961 . S
H598 C583 0.961 . S
H599 C583 0.961 . S
H600 C584 0.931 . S
H601 C589 0.930 . S
H602 C590 0.956 . S
H603 C590 0.961 . S
H604 C590 0.961 . S
H605 C591 0.958 . S
H606 C591 0.961 . S
H607 C591 0.960 . S
C608 C609 1.391 . S
C608 C610 1.394 . S
C608 H624 0.931 . S
C609 C608 1.391 . S
C609 C613 1.376 . S
C610 C608 1.394 . S
C610 C611 1.369 . S
C610 C614 1.531 . S
C611 C610 1.369 . S
C611 C612 1.410 . S
C611 C619 1.503 . S
C612 C611 1.410 . S
C612 C613 1.392 . S
C612 C615 1.511 . S
C613 C609 1.376 . S
C613 C612 1.392 . S
C613 H625 0.929 . S
C614 C610 1.531 . S
C614 H626 0.960 . S
C614 H627 0.962 . S
C614 H628 0.960 . S
C615 C612 1.511 . S
C615 H629 0.961 . S
C615 H630 0.961 . S
C615 H631 0.961 . S
C616 C617 1.370 . S
C616 C618 1.363 . S
C616 H632 0.931 . S
C617 C616 1.370 . S
C617 C621 1.408 . S
C618 C616 1.363 . S
C618 C619 1.370 . S
C618 C622 1.524 . S
C619 C611 1.503 . S
C619 C618 1.370 . S
C619 C620 1.403 . S
C620 C619 1.403 . S
C620 C621 1.404 . S
C620 C623 1.539 . S
C621 C617 1.408 . S
C621 C620 1.404 . S
C621 H633 0.930 . S
C622 C618 1.524 . S
C622 H634 0.956 . S
C622 H635 0.961 . S
C622 H636 0.961 . S
C623 C620 1.539 . S
C623 H637 0.958 . S
C623 H638 0.961 . S
C623 H639 0.960 . S
H624 C608 0.931 . S
H625 C613 0.929 . S
H626 C614 0.960 . S
H627 C614 0.962 . S
H628 C614 0.960 . S
H629 C615 0.961 . S
H630 C615 0.961 . S
H631 C615 0.961 . S
H632 C616 0.931 . S
H633 C621 0.930 . S
H634 C622 0.956 . S
H635 C622 0.961 . S
H636 C622 0.961 . S
H637 C623 0.958 . S
H638 C623 0.961 . S
H639 C623 0.960 . S
C640 C641 1.391 . S
C640 C642 1.394 . S
C640 H656 0.931 . S
C641 C640 1.391 . S
C641 C645 1.376 . S
C642 C640 1.394 . S
C642 C643 1.369 . S
C642 C646 1.531 . S
C643 C642 1.369 . S
C643 C644 1.410 . S
C643 C651 1.503 . S
C644 C643 1.410 . S
C644 C645 1.392 . S
C644 C647 1.511 . S
C645 C641 1.376 . S
C645 C644 1.392 . S
C645 H657 0.929 . S
C646 C642 1.531 . S
C646 H658 0.960 . S
C646 H659 0.962 . S
C646 H660 0.960 . S
C647 C644 1.511 . S
C647 H661 0.961 . S
C647 H662 0.961 . S
C647 H663 0.961 . S
C648 C649 1.370 . S
C648 C650 1.363 . S
C648 H664 0.931 . S
C649 C648 1.370 . S
C649 C653 1.408 . S
C650 C648 1.363 . S
C650 C651 1.370 . S
C650 C654 1.524 . S
C651 C643 1.503 . S
C651 C650 1.370 . S
C651 C652 1.403 . S
C652 C651 1.403 . S
C652 C653 1.404 . S
C652 C655 1.539 . S
C653 C649 1.408 . S
C653 C652 1.404 . S
C653 H665 0.930 . S
C654 C650 1.524 . S
C654 H666 0.956 . S
C654 H667 0.961 . S
C654 H668 0.961 . S
C655 C652 1.539 . S
C655 H669 0.958 . S
C655 H670 0.961 . S
C655 H671 0.960 . S
H656 C640 0.931 . S
H657 C645 0.929 . S
H658 C646 0.960 . S
H659 C646 0.962 . S
H660 C646 0.960 . S
H661 C647 0.961 . S
H662 C647 0.961 . S
H663 C647 0.961 . S
H664 C648 0.931 . S
H665 C653 0.930 . S
H666 C654 0.956 . S
H667 C654 0.961 . S
H668 C654 0.961 . S
H669 C655 0.958 . S
H670 C655 0.961 . S
H671 C655 0.960 . S
C672 C673 1.391 . S
C672 C674 1.394 . S
C672 H688 0.931 . S
C673 C672 1.391 . S
C673 C677 1.376 . S
C674 C672 1.394 . S
C674 C675 1.369 . S
C674 C678 1.531 . S
C675 C674 1.369 . S
C675 C676 1.410 . S
C675 C683 1.503 . S
C676 C675 1.410 . S
C676 C677 1.392 . S
C676 C679 1.511 . S
C677 C673 1.376 . S
C677 C676 1.392 . S
C677 H689 0.929 . S
C678 C674 1.531 . S
C678 H690 0.960 . S
C678 H691 0.962 . S
C678 H692 0.960 . S
C679 C676 1.511 . S
C679 H693 0.961 . S
C679 H694 0.961 . S
C679 H695 0.961 . S
C680 C681 1.370 . S
C680 C682 1.363 . S
C680 H696 0.931 . S
C681 C680 1.370 . S
C681 C685 1.408 . S
C682 C680 1.363 . S
C682 C683 1.370 . S
C682 C686 1.524 . S
C683 C675 1.503 . S
C683 C682 1.370 . S
C683 C684 1.403 . S
C684 C683 1.403 . S
C684 C685 1.404 . S
C684 C687 1.539 . S
C685 C681 1.408 . S
C685 C684 1.404 . S
C685 H697 0.930 . S
C686 C682 1.524 . S
C686 H698 0.956 . S
C686 H699 0.961 . S
C686 H700 0.961 . S
C687 C684 1.539 . S
C687 H701 0.958 . S
C687 H702 0.961 . S
C687 H703 0.960 . S
H688 C672 0.931 . S
H689 C677 0.929 . S
H690 C678 0.960 . S
H691 C678 0.962 . S
H692 C678 0.960 . S
H693 C679 0.961 . S
H694 C679 0.961 . S
H695 C679 0.961 . S
H696 C680 0.931 . S
H697 C685 0.930 . S
H698 C686 0.956 . S
H699 C686 0.961 . S
H700 C686 0.961 . S
H701 C687 0.958 . S
H702 C687 0.961 . S
H703 C687 0.960 . S
C704 C705 1.391 . S
C704 C706 1.394 . S
C704 H720 0.931 . S
C705 C704 1.391 . S
C705 C709 1.376 . S
C706 C704 1.394 . S
C706 C707 1.369 . S
C706 C710 1.531 . S
C707 C706 1.369 . S
C707 C708 1.410 . S
C707 C715 1.503 . S
C708 C707 1.410 . S
C708 C709 1.392 . S
C708 C711 1.511 . S
C709 C705 1.376 . S
C709 C708 1.392 . S
C709 H721 0.929 . S
C710 C706 1.531 . S
C710 H722 0.960 . S
C710 H723 0.962 . S
C710 H724 0.960 . S
C711 C708 1.511 . S
C711 H725 0.961 . S
C711 H726 0.961 . S
C711 H727 0.961 . S
C712 C713 1.370 . S
C712 C714 1.363 . S
C712 H728 0.931 . S
C713 C712 1.370 . S
C713 C717 1.408 . S
C714 C712 1.363 . S
C714 C715 1.370 . S
C714 C718 1.524 . S
C715 C707 1.503 . S
C715 C714 1.370 . S
C715 C716 1.403 . S
C716 C715 1.403 . S
C716 C717 1.404 . S
C716 C719 1.539 . S
C717 C713 1.408 . S
C717 C716 1.404 . S
C717 H729 0.930 . S
C718 C714 1.524 . S
C718 H730 0.956 . S
C718 H731 0.961 . S
C718 H732 0.961 . S
C719 C716 1.539 . S
C719 H733 0.958 . S
C719 H734 0.961 . S
C719 H735 0.960 . S
H720 C704 0.931 . S
H721 C709 0.929 . S
H722 C710 0.960 . S
H723 C710 0.962 . S
H724 C710 0.960 . S
H725 C711 0.961 . S
H726 C711 0.961 . S
H727 C711 0.961 . S
H728 C712 0.931 . S
H729 C717 0.930 . S
H730 C718 0.956 . S
H731 C718 0.961 . S
H732 C718 0.961 . S
H733 C719 0.958 . S
H734 C719 0.961 . S
H735 C719 0.960 . S
C736 C737 1.391 . S
C736 C738 1.394 . S
C736 H752 0.931 . S
C737 C736 1.391 . S
C737 C741 1.376 . S
C738 C736 1.394 . S
C738 C739 1.369 . S
C738 C742 1.531 . S
C739 C738 1.369 . S
C739 C740 1.410 . S
C739 C747 1.503 . S
C740 C739 1.410 . S
C740 C741 1.392 . S
C740 C743 1.511 . S
C741 C737 1.376 . S
C741 C740 1.392 . S
C741 H753 0.929 . S
C742 C738 1.531 . S
C742 H754 0.960 . S
C742 H755 0.962 . S
C742 H756 0.960 . S
C743 C740 1.511 . S
C743 H757 0.961 . S
C743 H758 0.961 . S
C743 H759 0.961 . S
C744 C745 1.370 . S
C744 C746 1.363 . S
C744 H760 0.931 . S
C745 C744 1.370 . S
C745 C749 1.408 . S
C746 C744 1.363 . S
C746 C747 1.370 . S
C746 C750 1.524 . S
C747 C739 1.503 . S
C747 C746 1.370 . S
C747 C748 1.403 . S
C748 C747 1.403 . S
C748 C749 1.404 . S
C748 C751 1.539 . S
C749 C745 1.408 . S
C749 C748 1.404 . S
C749 H761 0.930 . S
C750 C746 1.524 . S
C750 H762 0.956 . S
C750 H763 0.961 . S
C750 H764 0.961 . S
C751 C748 1.539 . S
C751 H765 0.958 . S
C751 H766 0.961 . S
C751 H767 0.960 . S
H752 C736 0.931 . S
H753 C741 0.929 . S
H754 C742 0.960 . S
H755 C742 0.962 . S
H756 C742 0.960 . S
H757 C743 0.961 . S
H758 C743 0.961 . S
H759 C743 0.961 . S
H760 C744 0.931 . S
H761 C749 0.930 . S
H762 C750 0.956 . S
H763 C750 0.961 . S
H764 C750 0.961 . S
H765 C751 0.958 . S
H766 C751 0.961 . S
H767 C751 0.960 . S
C768 C769 1.391 . S
C768 C770 1.394 . S
C768 H784 0.931 . S
C769 C768 1.391 . S
C769 C773 1.376 . S
C770 C768 1.394 . S
C770 C771 1.369 . S
C770 C774 1.531 . S
C771 C770 1.369 . S
C771 C772 1.410 . S
C771 C779 1.503 . S
C772 C771 1.410 . S
C772 C773 1.392 . S
C772 C775 1.511 . S
C773 C769 1.376 . S
C773 C772 1.392 . S
C773 H785 0.929 . S
C774 C770 1.531 . S
C774 H786 0.960 . S
C774 H787 0.962 . S
C774 H788 0.960 . S
C775 C772 1.511 . S
C775 H789 0.961 . S
C775 H790 0.961 . S
C775 H791 0.961 . S
C776 C777 1.370 . S
C776 C778 1.363 . S
C776 H792 0.931 . S
C777 C776 1.370 . S
C777 C781 1.408 . S
C778 C776 1.363 . S
C778 C779 1.370 . S
C778 C782 1.524 . S
C779 C771 1.503 . S
C779 C778 1.370 . S
C779 C780 1.403 . S
C780 C779 1.403 . S
C780 C781 1.404 . S
C780 C783 1.539 . S
C781 C777 1.408 . S
C781 C780 1.404 . S
C781 H793 0.930 . S
C782 C778 1.524 . S
C782 H794 0.956 . S
C782 H795 0.961 . S
C782 H796 0.961 . S
C783 C780 1.539 . S
C783 H797 0.958 . S
C783 H798 0.961 . S
C783 H799 0.960 . S
H784 C768 0.931 . S
H785 C773 0.929 . S
H786 C774 0.960 . S
H787 C774 0.962 . S
H788 C774 0.960 . S
H789 C775 0.961 . S
H790 C775 0.961 . S
H791 C775 0.961 . S
H792 C776 0.931 . S
H793 C781 0.930 . S
H794 C782 0.956 . S
H795 C782 0.961 . S
H796 C782 0.961 . S
H797 C783 0.958 . S
H798 C783 0.961 . S
H799 C783 0.960 . S
C800 C801 1.391 . S
C800 C802 1.394 . S
C800 H816 0.931 . S
C801 C800 1.391 . S
C801 C805 1.376 . S
C802 C800 1.394 . S
C802 C803 1.369 . S
C802 C806 1.531 . S
C803 C802 1.369 . S
C803 C804 1.410 . S
C803 C811 1.503 . S
C804 C803 1.410 . S
C804 C805 1.392 . S
C804 C807 1.511 . S
C805 C801 1.376 . S
C805 C804 1.392 . S
C805 H817 0.929 . S
C806 C802 1.531 . S
C806 H818 0.960 . S
C806 H819 0.962 . S
C806 H820 0.960 . S
C807 C804 1.511 . S
C807 H821 0.961 . S
C807 H822 0.961 . S
C807 H823 0.961 . S
C808 C809 1.370 . S
C808 C810 1.363 . S
C808 H824 0.931 . S
C809 C808 1.370 . S
C809 C813 1.408 . S
C810 C808 1.363 . S
C810 C811 1.370 . S
C810 C814 1.524 . S
C811 C803 1.503 . S
C811 C810 1.370 . S
C811 C812 1.403 . S
C812 C811 1.403 . S
C812 C813 1.404 . S
C812 C815 1.539 . S
C813 C809 1.408 . S
C813 C812 1.404 . S
C813 H825 0.930 . S
C814 C810 1.524 . S
C814 H826 0.956 . S
C814 H827 0.961 . S
C814 H828 0.961 . S
C815 C812 1.539 . S
C815 H829 0.958 . S
C815 H830 0.961 . S
C815 H831 0.960 . S
H816 C800 0.931 . S
H817 C805 0.929 . S
H818 C806 0.960 . S
H819 C806 0.962 . S
H820 C806 0.960 . S
H821 C807 0.961 . S
H822 C807 0.961 . S
H823 C807 0.961 . S
H824 C808 0.931 . S
H825 C813 0.930 . S
H826 C814 0.956 . S
H827 C814 0.961 . S
H828 C814 0.961 . S
H829 C815 0.958 . S
H830 C815 0.961 . S
H831 C815 0.960 . S
C832 C833 1.391 . S
C832 C834 1.394 . S
C832 H848 0.931 . S
C833 C832 1.391 . S
C833 C837 1.376 . S
C834 C832 1.394 . S
C834 C835 1.369 . S
C834 C838 1.531 . S
C835 C834 1.369 . S
C835 C836 1.410 . S
C835 C843 1.503 . S
C836 C835 1.410 . S
C836 C837 1.392 . S
C836 C839 1.511 . S
C837 C833 1.376 . S
C837 C836 1.392 . S
C837 H849 0.929 . S
C838 C834 1.531 . S
C838 H850 0.960 . S
C838 H851 0.962 . S
C838 H852 0.960 . S
C839 C836 1.511 . S
C839 H853 0.961 . S
C839 H854 0.961 . S
C839 H855 0.961 . S
C840 C841 1.370 . S
C840 C842 1.363 . S
C840 H856 0.931 . S
C841 C840 1.370 . S
C841 C845 1.408 . S
C842 C840 1.363 . S
C842 C843 1.370 . S
C842 C846 1.524 . S
C843 C835 1.503 . S
C843 C842 1.370 . S
C843 C844 1.403 . S
C844 C843 1.403 . S
C844 C845 1.404 . S
C844 C847 1.539 . S
C845 C841 1.408 . S
C845 C844 1.404 . S
C845 H857 0.930 . S
C846 C842 1.524 . S
C846 H858 0.956 . S
C846 H859 0.961 . S
C846 H860 0.961 . S
C847 C844 1.539 . S
C847 H861 0.958 . S
C847 H862 0.961 . S
C847 H863 0.960 . S
H848 C832 0.931 . S
H849 C837 0.929 . S
H850 C838 0.960 . S
H851 C838 0.962 . S
H852 C838 0.960 . S
H853 C839 0.961 . S
H854 C839 0.961 . S
H855 C839 0.961 . S
H856 C840 0.931 . S
H857 C845 0.930 . S
H858 C846 0.956 . S
H859 C846 0.961 . S
H860 C846 0.961 . S
H861 C847 0.958 . S
H862 C847 0.961 . S
H863 C847 0.960 . S
C864 C865 1.391 . S
C864 C866 1.394 . S
C864 H880 0.931 . S
C865 C864 1.391 . S
C865 C869 1.376 . S
C866 C864 1.394 . S
C866 C867 1.369 . S
C866 C870 1.531 . S
C867 C866 1.369 . S
C867 C868 1.410 . S
C867 C875 1.503 . S
C868 C867 1.410 . S
C868 C869 1.392 . S
C868 C871 1.511 . S
C869 C865 1.376 . S
C869 C868 1.392 . S
C869 H881 0.929 . S
C870 C866 1.531 . S
C870 H882 0.960 . S
C870 H883 0.962 . S
C870 H884 0.960 . S
C871 C868 1.511 . S
C871 H885 0.961 . S
C871 H886 0.961 . S
C871 H887 0.961 . S
C872 C873 1.370 . S
C872 C874 1.363 . S
C872 H888 0.931 . S
C873 C872 1.370 . S
C873 C877 1.408 . S
C874 C872 1.363 . S
C874 C875 1.370 . S
C874 C878 1.524 . S
C875 C867 1.503 . S
C875 C874 1.370 . S
C875 C876 1.403 . S
C876 C875 1.403 . S
C876 C877 1.404 . S
C876 C879 1.539 . S
C877 C873 1.408 . S
C877 C876 1.404 . S
C877 H889 0.930 . S
C878 C874 1.524 . S
C878 H890 0.956 . S
C878 H891 0.961 . S
C878 H892 0.961 . S
C879 C876 1.539 . S
C879 H893 0.958 . S
C879 H894 0.961 . S
C879 H895 0.960 . S
H880 C864 0.931 . S
H881 C869 0.929 . S
H882 C870 0.960 . S
H883 C870 0.962 . S
H884 C870 0.960 . S
H885 C871 0.961 . S
H886 C871 0.961 . S
H887 C871 0.961 . S
H888 C872 0.931 . S
H889 C877 0.930 . S
H890 C878 0.956 . S
H891 C878 0.961 . S
H892 C878 0.961 . S
H893 C879 0.958 . S
H894 C879 0.961 . S
H895 C879 0.960 . S
C896 C897 1.391 . S
C896 C898 1.394 . S
C896 H912 0.931 . S
C897 C896 1.391 . S
C897 C901 1.376 . S
C898 C896 1.394 . S
C898 C899 1.369 . S
C898 C902 1.531 . S
C899 C898 1.369 . S
C899 C900 1.410 . S
C899 C907 1.503 . S
C900 C899 1.410 . S
C900 C901 1.392 . S
C900 C903 1.511 . S
C901 C897 1.376 . S
C901 C900 1.392 . S
C901 H913 0.929 . S
C902 C898 1.531 . S
C902 H914 0.960 . S
C902 H915 0.962 . S
C902 H916 0.960 . S
C903 C900 1.511 . S
C903 H917 0.961 . S
C903 H918 0.961 . S
C903 H919 0.961 . S
C904 C905 1.370 . S
C904 C906 1.363 . S
C904 H920 0.931 . S
C905 C904 1.370 . S
C905 C909 1.408 . S
C906 C904 1.363 . S
C906 C907 1.370 . S
C906 C910 1.524 . S
C907 C899 1.503 . S
C907 C906 1.370 . S
C907 C908 1.403 . S
C908 C907 1.403 . S
C908 C909 1.404 . S
C908 C911 1.539 . S
C909 C905 1.408 . S
C909 C908 1.404 . S
C909 H921 0.930 . S
C910 C906 1.524 . S
C910 H922 0.956 . S
C910 H923 0.961 . S
C910 H924 0.961 . S
C911 C908 1.539 . S
C911 H925 0.958 . S
C911 H926 0.961 . S
C911 H927 0.960 . S
H912 C896 0.931 . S
H913 C901 0.929 . S
H914 C902 0.960 . S
H915 C902 0.962 . S
H916 C902 0.960 . S
H917 C903 0.961 . S
H918 C903 0.961 . S
H919 C903 0.961 . S
H920 C904 0.931 . S
H921 C909 0.930 . S
H922 C910 0.956 . S
H923 C910 0.961 . S
H924 C910 0.961 . S
H925 C911 0.958 . S
H926 C911 0.961 . S
H927 C911 0.960 . S
C928 C929 1.391 . S
C928 C930 1.394 . S
C928 H944 0.931 . S
C929 C928 1.391 . S
C929 C933 1.376 . S
C930 C928 1.394 . S
C930 C931 1.369 . S
C930 C934 1.531 . S
C931 C930 1.369 . S
C931 C932 1.410 . S
C931 C939 1.503 . S
C932 C931 1.410 . S
C932 C933 1.392 . S
C932 C935 1.511 . S
C933 C929 1.376 . S
C933 C932 1.392 . S
C933 H945 0.929 . S
C934 C930 1.531 . S
C934 H946 0.960 . S
C934 H947 0.962 . S
C934 H948 0.960 . S
C935 C932 1.511 . S
C935 H949 0.961 . S
C935 H950 0.961 . S
C935 H951 0.961 . S
C936 C937 1.370 . S
C936 C938 1.363 . S
C936 H952 0.931 . S
C937 C936 1.370 . S
C937 C941 1.408 . S
C938 C936 1.363 . S
C938 C939 1.370 . S
C938 C942 1.524 . S
C939 C931 1.503 . S
C939 C938 1.370 . S
C939 C940 1.403 . S
C940 C939 1.403 . S
C940 C941 1.404 . S
C940 C943 1.539 . S
C941 C937 1.408 . S
C941 C940 1.404 . S
C941 H953 0.930 . S
C942 C938 1.524 . S
C942 H954 0.956 . S
C942 H955 0.961 . S
C942 H956 0.961 . S
C943 C940 1.539 . S
C943 H957 0.958 . S
C943 H958 0.961 . S
C943 H959 0.960 . S
H944 C928 0.931 . S
H945 C933 0.929 . S
H946 C934 0.960 . S
H947 C934 0.962 . S
H948 C934 0.960 . S
H949 C935 0.961 . S
H950 C935 0.961 . S
H951 C935 0.961 . S
H952 C936 0.931 . S
H953 C941 0.930 . S
H954 C942 0.956 . S
H955 C942 0.961 . S
H956 C942 0.961 . S
H957 C943 0.958 . S
H958 C943 0.961 . S
H959 C943 0.960 . S
C960 C961 1.391 . S
C960 C962 1.394 . S
C960 H976 0.931 . S
C961 C960 1.391 . S
C961 C965 1.376 . S
C962 C960 1.394 . S
C962 C963 1.369 . S
C962 C966 1.531 . S
C963 C962 1.369 . S
C963 C964 1.410 . S
C963 C971 1.503 . S
C964 C963 1.410 . S
C964 C965 1.392 . S
C964 C967 1.511 . S
C965 C961 1.376 . S
C965 C964 1.392 . S
C965 H977 0.929 . S
C966 C962 1.531 . S
C966 H978 0.960 . S
C966 H979 0.962 . S
C966 H980 0.960 . S
C967 C964 1.511 . S
C967 H981 0.961 . S
C967 H982 0.961 . S
C967 H983 0.961 . S
C968 C969 1.370 . S
C968 C970 1.363 . S
C968 H984 0.931 . S
C969 C968 1.370 . S
C969 C973 1.408 . S
C970 C968 1.363 . S
C970 C971 1.370 . S
C970 C974 1.524 . S
C971 C963 1.503 . S
C971 C970 1.370 . S
C971 C972 1.403 . S
C972 C971 1.403 . S
C972 C973 1.404 . S
C972 C975 1.539 . S
C973 C969 1.408 . S
C973 C972 1.404 . S
C973 H985 0.930 . S
C974 C970 1.524 . S
C974 H986 0.956 . S
C974 H987 0.961 . S
C974 H988 0.961 . S
C975 C972 1.539 . S
C975 H989 0.958 . S
C975 H990 0.961 . S
C975 H991 0.960 . S
H976 C960 0.931 . S
H977 C965 0.929 . S
H978 C966 0.960 . S
H979 C966 0.962 . S
H980 C966 0.960 . S
H981 C967 0.961 . S
H982 C967 0.961 . S
H983 C967 0.961 . S
H984 C968 0.931 . S
H985 C973 0.930 . S
H986 C974 0.956 . S
H987 C974 0.961 . S
H988 C974 0.961 . S
H989 C975 0.958 . S
H990 C975 0.961 . S
H991 C975 0.960 . S
C992 C993 1.391 . S
C992 C994 1.394 . S
C992 H1008 0.931 . S
C993 C992 1.391 . S
C993 C997 1.376 . S
C994 C992 1.394 . S
C994 C995 1.369 . S
C994 C998 1.531 . S
C995 C994 1.369 . S
C995 C996 1.410 . S
C995 C1003 1.503 1_554 S
C996 C995 1.410 . S
C996 C997 1.392 . S
C996 C999 1.511 . S
C997 C993 1.376 . S
C997 C996 1.392 . S
C997 H1009 0.929 . S
C998 C994 1.531 . S
C998 H1010 0.960 1_554 S
C998 H1011 0.962 . S
C998 H1012 0.960 . S
C999 C996 1.511 . S
C999 H1013 0.961 . S
C999 H1014 0.961 1_554 S
C999 H1015 0.961 . S
C1000 C1001 1.370 . S
C1000 C1002 1.363 . S
C1000 H1016 0.931 . S
C1001 C1000 1.370 . S
C1001 C1005 1.408 . S
C1002 C1000 1.363 . S
C1002 C1003 1.370 . S
C1002 C1006 1.524 1_556 S
C1003 C995 1.503 1_556 S
C1003 C1002 1.370 . S
C1003 C1004 1.403 . S
C1004 C1003 1.403 . S
C1004 C1005 1.404 . S
C1004 C1007 1.539 . S
C1005 C1001 1.408 . S
C1005 C1004 1.404 . S
C1005 H1017 0.930 . S
C1006 C1002 1.524 1_554 S
C1006 H1018 0.956 . S
C1006 H1019 0.961 . S
C1006 H1020 0.961 . S
C1007 C1004 1.539 . S
C1007 H1021 0.958 . S
C1007 H1022 0.961 . S
C1007 H1023 0.960 . S
H1008 C992 0.931 . S
H1009 C997 0.929 . S
H1010 C998 0.960 1_556 S
H1011 C998 0.962 . S
H1012 C998 0.960 . S
H1013 C999 0.961 . S
H1014 C999 0.961 1_556 S
H1015 C999 0.961 . S
H1016 C1000 0.931 . S
H1017 C1005 0.930 . S
H1018 C1006 0.956 . S
H1019 C1006 0.961 . S
H1020 C1006 0.961 . S
H1021 C1007 0.958 . S
H1022 C1007 0.961 . S
H1023 C1007 0.960 . S
C1024 C1025 1.391 . S
C1024 C1026 1.394 . S
C1024 H1040 0.931 . S
C1025 C1024 1.391 . S
C1025 C1029 1.376 . S
C1026 C1024 1.394 . S
C1026 C1027 1.369 . S
C1026 C1030 1.531 . S
C1027 C1026 1.369 . S
C1027 C1028 1.410 . S
C1027 C1035 1.503 . S
C1028 C1027 1.410 . S
C1028 C1029 1.392 . S
C1028 C1031 1.511 . S
C1029 C1025 1.376 . S
C1029 C1028 1.392 . S
C1029 H1041 0.929 . S
C1030 C1026 1.531 . S
C1030 H1042 0.960 . S
C1030 H1043 0.962 . S
C1030 H1044 0.960 . S
C1031 C1028 1.511 . S
C1031 H1045 0.961 . S
C1031 H1046 0.961 . S
C1031 H1047 0.961 . S
C1032 C1033 1.370 . S
C1032 C1034 1.363 . S
C1032 H1048 0.931 . S
C1033 C1032 1.370 . S
C1033 C1037 1.408 . S
C1034 C1032 1.363 . S
C1034 C1035 1.370 . S
C1034 C1038 1.524 . S
C1035 C1027 1.503 . S
C1035 C1034 1.370 . S
C1035 C1036 1.403 . S
C1036 C1035 1.403 . S
C1036 C1037 1.404 . S
C1036 C1039 1.539 . S
C1037 C1033 1.408 . S
C1037 C1036 1.404 . S
C1037 H1049 0.930 . S
C1038 C1034 1.524 . S
C1038 H1050 0.956 . S
C1038 H1051 0.961 . S
C1038 H1052 0.961 . S
C1039 C1036 1.539 . S
C1039 H1053 0.958 . S
C1039 H1054 0.961 . S
C1039 H1055 0.960 . S
H1040 C1024 0.931 . S
H1041 C1029 0.929 . S
H1042 C1030 0.960 . S
H1043 C1030 0.962 . S
H1044 C1030 0.960 . S
H1045 C1031 0.961 . S
H1046 C1031 0.961 . S
H1047 C1031 0.961 . S
H1048 C1032 0.931 . S
H1049 C1037 0.930 . S
H1050 C1038 0.956 . S
H1051 C1038 0.961 . S
H1052 C1038 0.961 . S
H1053 C1039 0.958 . S
H1054 C1039 0.961 . S
H1055 C1039 0.960 . S
C1056 C1057 1.391 . S
C1056 C1058 1.394 . S
C1056 H1072 0.931 . S
C1057 C1056 1.391 . S
C1057 C1061 1.376 . S
C1058 C1056 1.394 . S
C1058 C1059 1.369 . S
C1058 C1062 1.531 . S
C1059 C1058 1.369 . S
C1059 C1060 1.410 . S
C1059 C1067 1.503 1_554 S
C1060 C1059 1.410 . S
C1060 C1061 1.392 . S
C1060 C1063 1.511 1_655 S
C1061 C1057 1.376 . S
C1061 C1060 1.392 . S
C1061 H1073 0.929 1_655 S
C1062 C1058 1.531 . S
C1062 H1074 0.960 1_554 S
C1062 H1075 0.962 . S
C1062 H1076 0.960 . S
C1063 C1060 1.511 1_455 S
C1063 H1077 0.961 . S
C1063 H1078 0.961 . S
C1063 H1079 0.961 . S
C1064 C1065 1.370 . S
C1064 C1066 1.363 . S
C1064 H1080 0.931 . S
C1065 C1064 1.370 . S
C1065 C1069 1.408 . S
C1066 C1064 1.363 . S
C1066 C1067 1.370 . S
C1066 C1070 1.524 1_556 S
C1067 C1059 1.503 1_556 S
C1067 C1066 1.370 . S
C1067 C1068 1.403 . S
C1068 C1067 1.403 . S
C1068 C1069 1.404 . S
C1068 C1071 1.539 . S
C1069 C1065 1.408 . S
C1069 C1068 1.404 . S
C1069 H1081 0.930 . S
C1070 C1066 1.524 1_554 S
C1070 H1082 0.956 . S
C1070 H1083 0.961 . S
C1070 H1084 0.965 . S
C1071 C1068 1.539 . S
C1071 H1085 0.958 . S
C1071 H1086 0.961 1_655 S
C1071 H1087 0.960 1_655 S
H1072 C1056 0.931 . S
H1073 C1061 0.929 1_455 S
H1074 C1062 0.960 1_556 S
H1075 C1062 0.962 . S
H1076 C1062 0.960 . S
H1077 C1063 0.961 . S
H1078 C1063 0.961 . S
H1079 C1063 0.961 . S
H1080 C1064 0.931 . S
H1081 C1069 0.930 . S
H1082 C1070 0.956 . S
H1083 C1070 0.961 . S
H1084 C1070 0.965 . S
H1085 C1071 0.958 . S
H1086 C1071 0.961 1_455 S
H1087 C1071 0.960 1_455 S
C1088 C1089 1.391 . S
C1088 C1090 1.394 . S
C1088 H1104 0.931 1_565 S
C1089 C1088 1.391 . S
C1089 C1093 1.376 . S
C1090 C1088 1.394 . S
C1090 C1091 1.369 . S
C1090 C1094 1.531 1_565 S
C1091 C1090 1.369 . S
C1091 C1092 1.410 . S
C1091 C1099 1.503 . S
C1092 C1091 1.410 . S
C1092 C1093 1.392 . S
C1092 C1095 1.511 . S
C1093 C1089 1.376 . S
C1093 C1092 1.392 . S
C1093 H1105 0.929 . S
C1094 C1090 1.531 1_545 S
C1094 H1106 0.960 . S
C1094 H1107 0.962 . S
C1094 H1108 0.960 . S
C1095 C1092 1.511 . S
C1095 H1109 0.961 . S
C1095 H1110 0.961 . S
C1095 H1111 0.961 . S
C1096 C1097 1.370 . S
C1096 C1098 1.363 . S
C1096 H1112 0.931 . S
C1097 C1096 1.370 . S
C1097 C1101 1.408 . S
C1098 C1096 1.363 . S
C1098 C1099 1.370 . S
C1098 C1102 1.524 . S
C1099 C1091 1.503 . S
C1099 C1098 1.370 . S
C1099 C1100 1.403 . S
C1100 C1099 1.403 . S
C1100 C1101 1.404 . S
C1100 C1103 1.539 . S
C1101 C1097 1.408 . S
C1101 C1100 1.404 . S
C1101 H1113 0.930 . S
C1102 C1098 1.524 . S
C1102 H1114 0.956 . S
C1102 H1115 0.961 . S
C1102 H1116 0.961 . S
C1103 C1100 1.539 . S
C1103 H1117 0.958 . S
C1103 H1118 0.961 . S
C1103 H1119 0.960 . S
H1104 C1088 0.931 1_545 S
H1105 C1093 0.929 . S
H1106 C1094 0.960 . S
H1107 C1094 0.962 . S
H1108 C1094 0.960 . S
H1109 C1095 0.961 . S
H1110 C1095 0.961 . S
H1111 C1095 0.961 . S
H1112 C1096 0.931 . S
H1113 C1101 0.930 . S
H1114 C1102 0.956 . S
H1115 C1102 0.961 . S
H1116 C1102 0.961 . S
H1117 C1103 0.958 . S
H1118 C1103 0.961 . S
H1119 C1103 0.960 . S
C1120 C1121 1.391 . S
C1120 C1122 1.394 . S
C1120 H1136 0.931 . S
C1121 C1120 1.391 . S
C1121 C1125 1.376 . S
C1122 C1120 1.394 . S
C1122 C1123 1.369 . S
C1122 C1126 1.531 . S
C1123 C1122 1.369 . S
C1123 C1124 1.410 . S
C1123 C1131 1.503 1_556 S
C1124 C1123 1.410 . S
C1124 C1125 1.392 . S
C1124 C1127 1.511 . S
C1125 C1121 1.376 . S
C1125 C1124 1.392 . S
C1125 H1137 0.929 . S
C1126 C1122 1.531 . S
C1126 H1138 0.960 . S
C1126 H1139 0.962 . S
C1126 H1140 0.960 . S
C1127 C1124 1.511 . S
C1127 H1141 0.961 . S
C1127 H1142 0.961 1_556 S
C1127 H1143 0.961 . S
C1128 C1129 1.370 . S
C1128 C1130 1.363 . S
C1128 H1144 0.931 . S
C1129 C1128 1.370 . S
C1129 C1133 1.408 . S
C1130 C1128 1.363 . S
C1130 C1131 1.370 . S
C1130 C1134 1.524 . S
C1131 C1123 1.503 1_554 S
C1131 C1130 1.370 . S
C1131 C1132 1.403 . S
C1132 C1131 1.403 . S
C1132 C1133 1.404 . S
C1132 C1135 1.539 1_554 S
C1133 C1129 1.408 . S
C1133 C1132 1.404 . S
C1133 H1145 0.930 . S
C1134 C1130 1.524 . S
C1134 H1146 0.956 . S
C1134 H1147 0.961 . S
C1134 H1148 0.961 . S
C1135 C1132 1.539 1_556 S
C1135 H1149 0.958 . S
C1135 H1150 0.961 1_556 S
C1135 H1151 0.960 . S
H1136 C1120 0.931 . S
H1137 C1125 0.929 . S
H1138 C1126 0.960 . S
H1139 C1126 0.962 . S
H1140 C1126 0.960 . S
H1141 C1127 0.961 . S
H1142 C1127 0.961 1_554 S
H1143 C1127 0.961 . S
H1144 C1128 0.931 . S
H1145 C1133 0.930 . S
H1146 C1134 0.956 . S
H1147 C1134 0.961 . S
H1148 C1134 0.961 . S
H1149 C1135 0.958 . S
H1150 C1135 0.961 1_554 S
H1151 C1135 0.960 . S
C1152 C1153 1.391 . S
C1152 C1154 1.394 . S
C1152 H1168 0.931 . S
C1153 C1152 1.391 . S
C1153 C1157 1.376 . S
C1154 C1152 1.394 . S
C1154 C1155 1.369 . S
C1154 C1158 1.531 . S
C1155 C1154 1.369 . S
C1155 C1156 1.410 . S
C1155 C1163 1.503 . S
C1156 C1155 1.410 . S
C1156 C1157 1.392 . S
C1156 C1159 1.511 . S
C1157 C1153 1.376 . S
C1157 C1156 1.392 . S
C1157 H1169 0.929 . S
C1158 C1154 1.531 . S
C1158 H1170 0.960 . S
C1158 H1171 0.962 . S
C1158 H1172 0.960 . S
C1159 C1156 1.511 . S
C1159 H1173 0.961 . S
C1159 H1174 0.961 . S
C1159 H1175 0.961 . S
C1160 C1161 1.370 . S
C1160 C1162 1.363 . S
C1160 H1176 0.931 . S
C1161 C1160 1.370 . S
C1161 C1165 1.408 . S
C1162 C1160 1.363 . S
C1162 C1163 1.370 . S
C1162 C1166 1.524 . S
C1163 C1155 1.503 . S
C1163 C1162 1.370 . S
C1163 C1164 1.403 . S
C1164 C1163 1.403 . S
C1164 C1165 1.404 . S
C1164 C1167 1.539 . S
C1165 C1161 1.408 . S
C1165 C1164 1.404 . S
C1165 H1177 0.930 . S
C1166 C1162 1.524 . S
C1166 H1178 0.956 . S
C1166 H1179 0.961 . S
C1166 H1180 0.961 . S
C1167 C1164 1.539 . S
C1167 H1181 0.958 . S
C1167 H1182 0.961 . S
C1167 H1183 0.960 . S
H1168 C1152 0.931 . S
H1169 C1157 0.929 . S
H1170 C1158 0.960 . S
H1171 C1158 0.962 . S
H1172 C1158 0.960 . S
H1173 C1159 0.961 . S
H1174 C1159 0.961 . S
H1175 C1159 0.961 . S
H1176 C1160 0.931 . S
H1177 C1165 0.930 . S
H1178 C1166 0.956 . S
H1179 C1166 0.961 . S
H1180 C1166 0.961 . S
H1181 C1167 0.958 . S
H1182 C1167 0.961 . S
H1183 C1167 0.960 . S
C1184 C1185 1.391 . S
C1184 C1186 1.394 . S
C1184 H1200 0.931 . S
C1185 C1184 1.391 . S
C1185 C1189 1.376 . S
C1186 C1184 1.394 . S
C1186 C1187 1.369 . S
C1186 C1190 1.531 . S
C1187 C1186 1.369 . S
C1187 C1188 1.410 . S
C1187 C1195 1.503 1_554 S
C1188 C1187 1.410 . S
C1188 C1189 1.392 . S
C1188 C1191 1.511 1_554 S
C1189 C1185 1.376 . S
C1189 C1188 1.392 . S
C1189 H1201 0.929 . S
C1190 C1186 1.531 . S
C1190 H1202 0.960 . S
C1190 H1203 0.962 . S
C1190 H1204 0.960 . S
C1191 C1188 1.511 1_556 S
C1191 H1205 0.957 1_556 S
C1191 H1206 0.961 . S
C1191 H1207 0.961 1_455 S
C1192 C1193 1.370 . S
C1192 C1194 1.363 . S
C1192 H1208 0.931 . S
C1193 C1192 1.370 . S
C1193 C1197 1.408 . S
C1194 C1192 1.363 . S
C1194 C1195 1.370 . S
C1194 C1198 1.524 . S
C1195 C1187 1.503 1_556 S
C1195 C1194 1.370 . S
C1195 C1196 1.403 . S
C1196 C1195 1.403 . S
C1196 C1197 1.404 . S
C1196 C1199 1.539 1_455 S
C1197 C1193 1.408 . S
C1197 C1196 1.404 . S
C1197 H1209 0.930 1_455 S
C1198 C1194 1.524 . S
C1198 H1210 0.956 . S
C1198 H1211 0.961 . S
C1198 H1212 0.961 . S
C1199 C1196 1.539 1_655 S
C1199 H1213 0.958 1_556 S
C1199 H1214 0.961 . S
C1199 H1215 0.960 1_556 S
H1200 C1184 0.931 . S
H1201 C1189 0.929 . S
H1202 C1190 0.960 . S
H1203 C1190 0.962 . S
H1204 C1190 0.960 . S
H1205 C1191 0.957 1_554 S
H1206 C1191 0.961 . S
H1207 C1191 0.961 1_655 S
H1208 C1192 0.931 . S
H1209 C1197 0.930 1_655 S
H1210 C1198 0.956 . S
H1211 C1198 0.961 . S
H1212 C1198 0.961 . S
H1213 C1199 0.958 1_554 S
H1214 C1199 0.961 . S
H1215 C1199 0.960 1_554 S
C1216 C1217 1.391 . S
C1216 C1218 1.394 . S
C1216 H1232 0.931 . S
C1217 C1216 1.391 . S
C1217 C1221 1.376 . S
C1218 C1216 1.394 . S
C1218 C1219 1.369 . S
C1218 C1222 1.531 . S
C1219 C1218 1.369 . S
C1219 C1220 1.410 . S
C1219 C1227 1.503 . S
C1220 C1219 1.410 . S
C1220 C1221 1.392 . S
C1220 C1223 1.511 1_545 S
C1221 C1217 1.376 . S
C1221 C1220 1.392 . S
C1221 H1233 0.929 . S
C1222 C1218 1.531 . S
C1222 H1234 0.960 . S
C1222 H1235 0.962 . S
C1222 H1236 0.960 . S
C1223 C1220 1.511 1_565 S
C1223 H1237 0.961 . S
C1223 H1238 0.961 . S
C1223 H1239 0.961 1_565 S
C1224 C1225 1.370 . S
C1224 C1226 1.363 . S
C1224 H1240 0.931 . S
C1225 C1224 1.370 . S
C1225 C1229 1.408 . S
C1226 C1224 1.363 . S
C1226 C1227 1.370 . S
C1226 C1230 1.524 1_545 S
C1227 C1219 1.503 . S
C1227 C1226 1.370 . S
C1227 C1228 1.403 . S
C1228 C1227 1.403 . S
C1228 C1229 1.404 . S
C1228 C1231 1.539 . S
C1229 C1225 1.408 . S
C1229 C1228 1.404 . S
C1229 H1241 0.930 . S
C1230 C1226 1.524 1_565 S
C1230 H1242 0.956 1_565 S
C1230 H1243 0.961 . S
C1230 H1244 0.961 . S
C1231 C1228 1.539 . S
C1231 H1245 0.958 . S
C1231 H1246 0.961 . S
C1231 H1247 0.960 . S
H1232 C1216 0.931 . S
H1233 C1221 0.929 . S
H1234 C1222 0.960 . S
H1235 C1222 0.962 . S
H1236 C1222 0.960 . S
H1237 C1223 0.961 . S
H1238 C1223 0.961 . S
H1239 C1223 0.961 1_545 S
H1240 C1224 0.931 . S
H1241 C1229 0.930 . S
H1242 C1230 0.956 1_545 S
H1243 C1230 0.961 . S
H1244 C1230 0.961 . S
H1245 C1231 0.958 . S
H1246 C1231 0.961 . S
H1247 C1231 0.960 . S
C225 C11 1.191 . S
C233 C109 1.171 . S
C257 C25 1.191 . S
C265 C67 1.171 . S
C289 C39 1.153 . S
C297 C81 1.170 . S
C321 C53 1.180 . S
C329 C95 1.180 . S
C353 C123 1.155 . S
C361 C221 1.181 . S
C385 C179 1.151 . S
C393 C137 1.179 . S
C417 C151 1.185 . S
C425 C193 1.165 . S
C449 C165 1.186 . S
C457 C207 1.165 . S
C481 C8 1.211 . S
C489 C139 1.231 . S
C513 C22 1.178 . S
C521 C153 1.197 . S
C545 C167 1.253 . S
C553 C36 1.196 . S
C577 C50 1.214 . S
C585 C125 1.230 . S
C609 C64 1.225 . S
C617 C223 1.228 . S
C641 C181 1.206 . S
C649 C78 1.195 . S
C673 C195 1.248 . S
C681 C92 1.199 . S
C705 C209 1.217 . S
C713 C106 1.162 . S
C737 C27 1.169 . S
C745 C120 1.167 . S
C769 C41 1.173 . S
C777 C134 1.154 . S
C801 C148 1.150 . S
C809 C55 1.195 . S
C833 C13 1.178 . S
C841 C162 1.174 . S
C865 C176 1.214 . S
C873 C111 1.230 . S
C897 C190 1.153 . S
C905 C69 1.195 . S
C929 C83 1.184 . S
C937 C204 1.178 . S
C961 C97 1.169 . S
C969 C218 1.167 . S
C993 C7 1.505 . S
C1001 C63 1.501 . S
C1025 C77 1.482 . S
C1033 C21 1.498 . S
C1057 C35 1.510 . S
C1065 C91 1.504 . S
C1089 C105 1.493 . S
C1097 C49 1.503 . S
C1121 C119 1.504 . S
C1129 C175 1.509 . S
C1153 C189 1.480 . S
C1161 C133 1.497 . S
C1185 C203 1.512 . S
C1193 C147 1.510 . S
C1217 C217 1.481 . S
C1225 C161 1.499 . S
