# Generated by pormake.
# Topology fnk, (5)-cn, num edge types: 1
# Building blocks:
#     Node 0, Type 0, BuildingBlock: BEQFEK_clean_sbu_0, # of connection points: 5
#     Node 1, Type 0, BuildingBlock: BEQFEK_clean_sbu_0, # of connection points: 5
#     Node 2, Type 0, BuildingBlock: BEQFEK_clean_sbu_0, # of connection points: 5
#     Node 3, Type 0, BuildingBlock: BEQFEK_clean_sbu_0, # of connection points: 5
#     Node 4, Type 0, BuildingBlock: BEQFEK_clean_sbu_0, # of connection points: 5
#     Node 5, Type 0, BuildingBlock: BEQFEK_clean_sbu_0, # of connection points: 5
#     Node 6, Type 0, BuildingBlock: BEQFEK_clean_sbu_0, # of connection points: 5
#     Node 7, Type 0, BuildingBlock: BEQFEK_clean_sbu_0, # of connection points: 5
#     Node 8, Type 0, BuildingBlock: BEQFEK_clean_sbu_0, # of connection points: 5
#     Node 9, Type 0, BuildingBlock: BEQFEK_clean_sbu_0, # of connection points: 5
#     Node 10, Type 0, BuildingBlock: BEQFEK_clean_sbu_0, # of connection points: 5
#     Node 11, Type 0, BuildingBlock: BEQFEK_clean_sbu_0, # of connection points: 5
#     Node 12, Type 0, BuildingBlock: BEQFEK_clean_sbu_0, # of connection points: 5
#     Node 13, Type 0, BuildingBlock: BEQFEK_clean_sbu_0, # of connection points: 5
#     Node 14, Type 0, BuildingBlock: BEQFEK_clean_sbu_0, # of connection points: 5
#     Node 15, Type 0, BuildingBlock: BEQFEK_clean_sbu_0, # of connection points: 5
#     Edge 16, Type (0, 0), BuildingBlock: ZUJKAS_clean_linker_0, # of connection points: 2
#     Edge 17, Type (0, 0), BuildingBlock: ZUJKAS_clean_linker_0, # of connection points: 2
#     Edge 18, Type (0, 0), BuildingBlock: ZUJKAS_clean_linker_0, # of connection points: 2
#     Edge 19, Type (0, 0), BuildingBlock: ZUJKAS_clean_linker_0, # of connection points: 2
#     Edge 20, Type (0, 0), BuildingBlock: ZUJKAS_clean_linker_0, # of connection points: 2
#     Edge 21, Type (0, 0), BuildingBlock: ZUJKAS_clean_linker_0, # of connection points: 2
#     Edge 22, Type (0, 0), BuildingBlock: ZUJKAS_clean_linker_0, # of connection points: 2
#     Edge 23, Type (0, 0), BuildingBlock: ZUJKAS_clean_linker_0, # of connection points: 2
#     Edge 24, Type (0, 0), BuildingBlock: ZUJKAS_clean_linker_0, # of connection points: 2
#     Edge 25, Type (0, 0), BuildingBlock: ZUJKAS_clean_linker_0, # of connection points: 2
#     Edge 26, Type (0, 0), BuildingBlock: ZUJKAS_clean_linker_0, # of connection points: 2
#     Edge 27, Type (0, 0), BuildingBlock: ZUJKAS_clean_linker_0, # of connection points: 2
#     Edge 28, Type (0, 0), BuildingBlock: ZUJKAS_clean_linker_0, # of connection points: 2
#     Edge 29, Type (0, 0), BuildingBlock: ZUJKAS_clean_linker_0, # of connection points: 2
#     Edge 30, Type (0, 0), BuildingBlock: ZUJKAS_clean_linker_0, # of connection points: 2
#     Edge 31, Type (0, 0), BuildingBlock: ZUJKAS_clean_linker_0, # of connection points: 2
#     Edge 32, Type (0, 0), BuildingBlock: ZUJKAS_clean_linker_0, # of connection points: 2
#     Edge 33, Type (0, 0), BuildingBlock: ZUJKAS_clean_linker_0, # of connection points: 2
#     Edge 34, Type (0, 0), BuildingBlock: ZUJKAS_clean_linker_0, # of connection points: 2
#     Edge 35, Type (0, 0), BuildingBlock: ZUJKAS_clean_linker_0, # of connection points: 2
#     Edge 36, Type (0, 0), BuildingBlock: ZUJKAS_clean_linker_0, # of connection points: 2
#     Edge 37, Type (0, 0), BuildingBlock: ZUJKAS_clean_linker_0, # of connection points: 2
#     Edge 38, Type (0, 0), BuildingBlock: ZUJKAS_clean_linker_0, # of connection points: 2
#     Edge 39, Type (0, 0), BuildingBlock: ZUJKAS_clean_linker_0, # of connection points: 2
#     Edge 40, Type (0, 0), BuildingBlock: ZUJKAS_clean_linker_0, # of connection points: 2
#     Edge 41, Type (0, 0), BuildingBlock: ZUJKAS_clean_linker_0, # of connection points: 2
#     Edge 42, Type (0, 0), BuildingBlock: ZUJKAS_clean_linker_0, # of connection points: 2
#     Edge 43, Type (0, 0), BuildingBlock: ZUJKAS_clean_linker_0, # of connection points: 2
#     Edge 44, Type (0, 0), BuildingBlock: ZUJKAS_clean_linker_0, # of connection points: 2
#     Edge 45, Type (0, 0), BuildingBlock: ZUJKAS_clean_linker_0, # of connection points: 2
#     Edge 46, Type (0, 0), BuildingBlock: ZUJKAS_clean_linker_0, # of connection points: 2
#     Edge 47, Type (0, 0), BuildingBlock: ZUJKAS_clean_linker_0, # of connection points: 2
#     Edge 48, Type (0, 0), BuildingBlock: ZUJKAS_clean_linker_0, # of connection points: 2
#     Edge 49, Type (0, 0), BuildingBlock: ZUJKAS_clean_linker_0, # of connection points: 2
#     Edge 50, Type (0, 0), BuildingBlock: ZUJKAS_clean_linker_0, # of connection points: 2
#     Edge 51, Type (0, 0), BuildingBlock: ZUJKAS_clean_linker_0, # of connection points: 2
#     Edge 52, Type (0, 0), BuildingBlock: ZUJKAS_clean_linker_0, # of connection points: 2
#     Edge 53, Type (0, 0), BuildingBlock: ZUJKAS_clean_linker_0, # of connection points: 2
#     Edge 54, Type (0, 0), BuildingBlock: ZUJKAS_clean_linker_0, # of connection points: 2
#     Edge 55, Type (0, 0), BuildingBlock: ZUJKAS_clean_linker_0, # of connection points: 2
# Relax obj value: 0.380
# Max RMSD: 0.194
# Mean RMSD: 0.194
data_MOF--net-fnk--node1-BEQFEK_clean_sbu_0--edge1-ZUJKAS_clean_linker_0
_symmetry_space_group_name_H-M    P1
_symmetry_Int_Tables_number       1
_symmetry_cell_setting            triclinic
loop_
_symmetry_equiv_pos_as_xyz
'x, y, z'
_cell_length_a     61.889765
_cell_length_b     61.889716
_cell_length_c     62.637936
_cell_angle_alpha  90.009149
_cell_angle_beta   89.987004
_cell_angle_gamma 90.004971
loop_
_atom_site_label
_atom_site_type_symbol
_atom_site_fract_x
_atom_site_fract_y
_atom_site_fract_z
_atom_type_partial_charge
Co0 Co 0.10632 0.39739 0.14808 0.0
Co1 Co 0.13627 0.36305 0.17016 0.0
C2 C 0.1406 0.41041 0.1794 0.0
O3 O 0.12557 0.41491 0.16621 0.0
O4 O 0.14644 0.39094 0.18285 0.0
C5 C 0.08915 0.43662 0.12916 0.0
O6 O 0.10577 0.4462 0.13811 0.0
C7 C 0.17473 0.33946 0.18584 0.0
C8 C 0.16266 0.30586 0.18453 0.0
C9 C 0.18065 0.31815 0.18952 0.0
N10 N 0.15418 0.33967 0.17885 0.0
N11 N 0.14705 0.31955 0.17828 0.0
C12 C 0.18859 0.35916 0.18769 0.0
H13 H 0.18542 0.36704 0.20329 0.0
H14 H 0.18443 0.37082 0.17487 0.0
H15 H 0.20599 0.35493 0.18671 0.0
C16 C 0.12437 0.37733 0.10944 0.0
N17 N 0.12275 0.37885 0.13077 0.0
N18 N 0.13564 0.36459 0.13975 0.0
C19 C 0.146 0.35351 0.12425 0.0
C20 C 0.13907 0.36116 0.10456 0.0
C21 C 0.1128 0.39194 0.09421 0.0
H22 H 0.11516 0.40897 0.09919 0.0
H23 H 0.11869 0.38998 0.0776 0.0
H24 H 0.09523 0.38843 0.09483 0.0
O25 O 0.08649 0.38089 0.16644 0.0
O26 O 0.10718 0.35621 0.18181 0.0
H27 H 0.15268 0.32187 0.13602 0.0
H28 H 0.16875 0.32922 0.11326 0.0
C29 C 0.16144 0.33535 0.12823 0.0
H30 H 0.17441 0.34086 0.13916 0.0
H31 H 0.13154 0.31516 0.17337 0.0
O32 O 0.08715 0.41625 0.13082 0.0
C33 C 0.08879 0.36493 0.17899 0.0
Co34 Co 0.60555 0.10551 0.14901 0.0
Co35 Co 0.63664 0.13786 0.17225 0.0
C36 C 0.58954 0.13739 0.18192 0.0
O37 O 0.58679 0.12186 0.16883 0.0
O38 O 0.60812 0.14581 0.18484 0.0
C39 C 0.56748 0.08933 0.12744 0.0
O40 O 0.55823 0.10719 0.13417 0.0
C41 C 0.65725 0.17748 0.18913 0.0
C42 C 0.69149 0.16735 0.18938 0.0
C43 C 0.67797 0.18453 0.19415 0.0
N44 N 0.6586 0.15709 0.1818 0.0
N45 N 0.67909 0.15115 0.18205 0.0
C46 C 0.6367 0.19019 0.18978 0.0
H47 H 0.62549 0.18448 0.17716 0.0
H48 H 0.63993 0.20769 0.18758 0.0
H49 H 0.6288 0.18774 0.2055 0.0
C50 C 0.6235 0.12703 0.11105 0.0
N51 N 0.62217 0.12444 0.13231 0.0
N52 N 0.63529 0.13814 0.1418 0.0
C53 C 0.64537 0.15004 0.12674 0.0
C54 C 0.63816 0.14342 0.10678 0.0
C55 C 0.61175 0.11317 0.09527 0.0
H56 H 0.61305 0.09597 0.10006 0.0
H57 H 0.59438 0.11762 0.09531 0.0
H58 H 0.6183 0.11504 0.07889 0.0
O59 O 0.62436 0.08622 0.16541 0.0
O60 O 0.64536 0.10885 0.18331 0.0
H61 H 0.67593 0.1611 0.13818 0.0
H62 H 0.66488 0.17734 0.11683 0.0
C63 C 0.66088 0.16798 0.1314 0.0
H64 H 0.65373 0.17901 0.14342 0.0
H65 H 0.68462 0.13602 0.17711 0.0
O66 O 0.58737 0.08619 0.13136 0.0
C67 C 0.63935 0.08971 0.17882 0.0
Co68 Co 0.89226 0.60693 0.14683 0.0
Co69 Co 0.86199 0.63923 0.17124 0.0
C70 C 0.85945 0.59141 0.17851 0.0
O71 O 0.87424 0.58798 0.16479 0.0
O72 O 0.85306 0.61052 0.18284 0.0
C73 C 0.90666 0.56972 0.12259 0.0
O74 O 0.88745 0.56171 0.12673 0.0
C75 C 0.8232 0.65992 0.1895 0.0
C76 C 0.83522 0.69319 0.19451 0.0
C77 C 0.81744 0.67998 0.19761 0.0
N78 N 0.8435 0.66128 0.18196 0.0
N79 N 0.85049 0.68125 0.18483 0.0
C80 C 0.81071 0.63926 0.19076 0.0
H81 H 0.81721 0.62939 0.20408 0.0
H82 H 0.81289 0.62993 0.17578 0.0
H83 H 0.79329 0.64215 0.19369 0.0
C84 C 0.87192 0.62785 0.10962 0.0
N85 N 0.87469 0.62569 0.13078 0.0
N86 N 0.86177 0.63919 0.14083 0.0
C87 C 0.85031 0.65042 0.12626 0.0
C88 C 0.85632 0.64351 0.10602 0.0
C89 C 0.88449 0.61546 0.09327 0.0
H90 H 0.90181 0.61516 0.09778 0.0
H91 H 0.87856 0.59854 0.09287 0.0
H92 H 0.88287 0.62266 0.07713 0.0
O93 O 0.91219 0.62323 0.16522 0.0
O94 O 0.8912 0.64642 0.18238 0.0
H95 H 0.84067 0.68057 0.13983 0.0
H96 H 0.82443 0.67221 0.11728 0.0
C97 C 0.83315 0.66654 0.1317 0.0
H98 H 0.82143 0.65912 0.1429 0.0
H99 H 0.86594 0.68656 0.18068 0.0
O100 O 0.9112 0.58873 0.12877 0.0
C101 C 0.90977 0.63848 0.17859 0.0
Co102 Co 0.39425 0.89449 0.15326 0.0
Co103 Co 0.36177 0.86371 0.17669 0.0
C104 C 0.40954 0.86107 0.18438 0.0
O105 O 0.41304 0.87604 0.17087 0.0
O106 O 0.3904 0.85465 0.18854 0.0
C107 C 0.43149 0.90901 0.12933 0.0
O108 O 0.43919 0.8896 0.13311 0.0
C109 C 0.34091 0.82389 0.19231 0.0
C110 C 0.30709 0.83489 0.19563 0.0
C111 C 0.32037 0.81706 0.19817 0.0
N112 N 0.33973 0.8448 0.18658 0.0
N113 N 0.3195 0.85128 0.18871 0.0
C114 C 0.36104 0.81062 0.19078 0.0
H115 H 0.37147 0.81675 0.1777 0.0
H116 H 0.35712 0.79335 0.18794 0.0
H117 H 0.37014 0.81199 0.20598 0.0
C118 C 0.37289 0.87598 0.11541 0.0
N119 N 0.3755 0.87749 0.13665 0.0
N120 N 0.36207 0.86416 0.14624 0.0
C121 C 0.35051 0.85357 0.13126 0.0
C122 C 0.35691 0.86084 0.11126 0.0
C123 C 0.38627 0.88815 0.09954 0.0
H124 H 0.384 0.90575 0.10202 0.0
H125 H 0.40357 0.88442 0.10228 0.0
H126 H 0.38214 0.88389 0.08284 0.0
O127 O 0.37782 0.91397 0.17204 0.0
O128 O 0.3542 0.89267 0.18827 0.0
H129 H 0.32022 0.84552 0.14553 0.0
H130 H 0.32578 0.83088 0.12126 0.0
C131 C 0.33307 0.83755 0.13604 0.0
H132 H 0.33983 0.82416 0.14571 0.0
H133 H 0.31415 0.86688 0.18525 0.0
O134 O 0.41256 0.91374 0.13565 0.0
C135 C 0.36228 0.91129 0.18505 0.0
Co136 Co 0.1049 0.6043 0.34742 0.0
Co137 Co 0.13557 0.63613 0.32284 0.0
C138 C 0.13865 0.58819 0.31694 0.0
O139 O 0.12354 0.58505 0.33038 0.0
O140 O 0.14499 0.60721 0.31219 0.0
C141 C 0.09036 0.56736 0.37176 0.0
O142 O 0.10947 0.5593 0.36725 0.0
C143 C 0.17442 0.65696 0.30466 0.0
C144 C 0.16229 0.69023 0.2999 0.0
C145 C 0.1802 0.67717 0.29687 0.0
N146 N 0.15402 0.65816 0.312 0.0
N147 N 0.14694 0.6781 0.30919 0.0
C148 C 0.1869 0.6363 0.30328 0.0
H149 H 0.17876 0.62538 0.29176 0.0
H150 H 0.1868 0.62817 0.31907 0.0
H151 H 0.20374 0.63887 0.29786 0.0
C152 C 0.12362 0.627 0.38445 0.0
N153 N 0.1219 0.62375 0.36331 0.0
N154 N 0.13513 0.6369 0.35322 0.0
C155 C 0.14586 0.64892 0.36773 0.0
C156 C 0.13879 0.64312 0.38797 0.0
C157 C 0.11175 0.61397 0.40081 0.0
H158 H 0.11499 0.59657 0.39806 0.0
H159 H 0.11666 0.61813 0.41732 0.0
H160 H 0.09412 0.6166 0.39891 0.0
O161 O 0.08516 0.62001 0.32826 0.0
O162 O 0.10653 0.64291 0.31114 0.0
H163 H 0.16898 0.67367 0.37666 0.0
H164 H 0.175 0.65902 0.35234 0.0
C165 C 0.16191 0.66611 0.36221 0.0
H166 H 0.15381 0.6788 0.35263 0.0
H167 H 0.13144 0.6833 0.31326 0.0
O168 O 0.08582 0.58644 0.36576 0.0
C169 C 0.08788 0.63505 0.3147 0.0
Co170 Co 0.39516 0.10632 0.35088 0.0
Co171 Co 0.36303 0.1378 0.32771 0.0
C172 C 0.41026 0.13866 0.3181 0.0
O173 O 0.41348 0.12348 0.33147 0.0
O174 O 0.39138 0.1463 0.31487 0.0
C175 C 0.43354 0.09072 0.37241 0.0
O176 O 0.4426 0.10859 0.36548 0.0
C177 C 0.34073 0.17551 0.30847 0.0
C178 C 0.3067 0.16635 0.31424 0.0
C179 C 0.31957 0.18236 0.3055 0.0
N180 N 0.34029 0.15632 0.31856 0.0
N181 N 0.3199 0.15094 0.32186 0.0
C182 C 0.36103 0.18741 0.30302 0.0
H183 H 0.36774 0.18077 0.28796 0.0
H184 H 0.3732 0.18502 0.31581 0.0
H185 H 0.35792 0.20494 0.30094 0.0
C186 C 0.37654 0.12727 0.38887 0.0
N187 N 0.37781 0.1246 0.36761 0.0
N188 N 0.36462 0.13822 0.35812 0.0
C189 C 0.35465 0.15024 0.37317 0.0
C190 C 0.36187 0.14366 0.39311 0.0
C191 C 0.38859 0.11372 0.40468 0.0
H192 H 0.38772 0.09648 0.3999 0.0
H193 H 0.40584 0.1186 0.40468 0.0
H194 H 0.38195 0.11548 0.42103 0.0
O195 O 0.37745 0.0867 0.3337 0.0
O196 O 0.35481 0.10858 0.3169 0.0
H197 H 0.32345 0.16188 0.36431 0.0
H198 H 0.33764 0.17922 0.38269 0.0
C199 C 0.33952 0.16851 0.3686 0.0
H200 H 0.34565 0.17815 0.35497 0.0
H201 H 0.31501 0.13674 0.32942 0.0
O202 O 0.41367 0.08734 0.36858 0.0
C203 C 0.362 0.08969 0.32067 0.0
Co204 Co 0.89314 0.39556 0.34706 0.0
Co205 Co 0.86274 0.36377 0.3221 0.0
C206 C 0.8606 0.41166 0.31533 0.0
O207 O 0.87537 0.41482 0.32915 0.0
O208 O 0.85409 0.39265 0.31075 0.0
C209 C 0.90901 0.43309 0.36985 0.0
O210 O 0.89146 0.44262 0.36275 0.0
C211 C 0.8238 0.34347 0.30374 0.0
C212 C 0.83566 0.31022 0.29828 0.0
C213 C 0.81789 0.32351 0.2955 0.0
N214 N 0.84418 0.34196 0.31106 0.0
N215 N 0.85108 0.32201 0.3079 0.0
C216 C 0.81136 0.36418 0.30289 0.0
H217 H 0.81797 0.37436 0.28986 0.0
H218 H 0.81347 0.37314 0.3181 0.0
H219 H 0.79396 0.36141 0.29979 0.0
C220 C 0.87213 0.37467 0.38386 0.0
N221 N 0.87522 0.37682 0.36274 0.0
N222 N 0.86223 0.36355 0.35249 0.0
C223 C 0.85041 0.35245 0.36688 0.0
C224 C 0.85623 0.35923 0.38722 0.0
C225 C 0.8846 0.38693 0.40037 0.0
H226 H 0.90206 0.38645 0.39641 0.0
H227 H 0.87937 0.40408 0.40019 0.0
H228 H 0.88218 0.38016 0.41659 0.0
O229 O 0.91314 0.37924 0.32867 0.0
O230 O 0.89199 0.35645 0.31118 0.0
H231 H 0.84035 0.32267 0.3528 0.0
H232 H 0.82422 0.33086 0.3755 0.0
C233 C 0.83304 0.33666 0.36118 0.0
H234 H 0.82142 0.34444 0.35012 0.0
H235 H 0.86653 0.3166 0.31186 0.0
O236 O 0.91204 0.41321 0.36578 0.0
C237 C 0.91063 0.36412 0.31516 0.0
Co238 Co 0.60769 0.8968 0.34971 0.0
Co239 Co 0.63857 0.86443 0.32621 0.0
C240 C 0.59094 0.86318 0.31908 0.0
O241 O 0.58829 0.87871 0.33217 0.0
O242 O 0.6097 0.85577 0.31488 0.0
C243 C 0.57122 0.91158 0.37465 0.0
O244 O 0.56393 0.89178 0.37233 0.0
C245 C 0.65898 0.82484 0.30902 0.0
C246 C 0.69321 0.83502 0.30825 0.0
C247 C 0.67963 0.81785 0.3036 0.0
N248 N 0.66043 0.8452 0.31642 0.0
N249 N 0.68092 0.85116 0.31588 0.0
C250 C 0.63844 0.81212 0.30861 0.0
H251 H 0.62761 0.81746 0.32171 0.0
H252 H 0.64172 0.79457 0.31026 0.0
H253 H 0.63006 0.81501 0.29321 0.0
C254 C 0.62772 0.87691 0.38759 0.0
N255 N 0.62575 0.87915 0.36635 0.0
N256 N 0.63845 0.86514 0.35671 0.0
C257 C 0.64882 0.85335 0.37167 0.0
C258 C 0.64229 0.8604 0.39171 0.0
C259 C 0.61617 0.89071 0.40356 0.0
H260 H 0.6159 0.90771 0.39802 0.0
H261 H 0.59924 0.88502 0.40507 0.0
H262 H 0.62404 0.88997 0.41946 0.0
O263 O 0.62481 0.91574 0.3311 0.0
O264 O 0.6464 0.8931 0.31395 0.0
H265 H 0.67866 0.84092 0.35976 0.0
H266 H 0.6673 0.82527 0.38137 0.0
C267 C 0.66344 0.83473 0.36683 0.0
H268 H 0.65562 0.82396 0.35498 0.0
H269 H 0.6865 0.86628 0.32078 0.0
O270 O 0.58964 0.91647 0.3671 0.0
C271 C 0.63962 0.91218 0.3175 0.0
Co272 Co 0.89671 0.60711 0.84902 0.0
Co273 Co 0.86415 0.63685 0.8243 0.0
C274 C 0.91217 0.64009 0.81762 0.0
O275 O 0.9158 0.62541 0.83143 0.0
O276 O 0.89296 0.64607 0.81314 0.0
C277 C 0.93428 0.58983 0.87077 0.0
O278 O 0.94448 0.60661 0.8628 0.0
C279 C 0.84325 0.67558 0.80618 0.0
C280 C 0.81047 0.6629 0.79978 0.0
C281 C 0.82335 0.68105 0.7975 0.0
N282 N 0.84209 0.65509 0.81325 0.0
N283 N 0.82242 0.6477 0.80953 0.0
C284 C 0.86371 0.68844 0.80576 0.0
H285 H 0.87409 0.68234 0.79264 0.0
H286 H 0.87261 0.68614 0.82098 0.0
H287 H 0.86066 0.70585 0.80303 0.0
C288 C 0.8747 0.62669 0.88595 0.0
N289 N 0.87739 0.62433 0.8648 0.0
N290 N 0.86374 0.637 0.85467 0.0
C291 C 0.85184 0.64789 0.86916 0.0
C292 C 0.85833 0.6416 0.88947 0.0
C293 C 0.88849 0.6157 0.9023 0.0
H294 H 0.8845 0.59822 0.90261 0.0
H295 H 0.90574 0.61731 0.89776 0.0
H296 H 0.88616 0.62264 0.91847 0.0
O297 O 0.88105 0.5871 0.83012 0.0
O298 O 0.85744 0.60762 0.813 0.0
H299 H 0.82208 0.65498 0.85339 0.0
H300 H 0.82586 0.66967 0.87799 0.0
C301 C 0.83412 0.66332 0.86358 0.0
H302 H 0.84093 0.67696 0.85426 0.0
H303 H 0.81733 0.63205 0.81316 0.0
O304 O 0.91409 0.58789 0.86765 0.0
C305 C 0.86582 0.58924 0.81669 0.0
Co306 Co 0.39528 0.8955 0.84954 0.0
Co307 Co 0.36331 0.86314 0.82747 0.0
C308 C 0.3617 0.91042 0.81802 0.0
O309 O 0.3773 0.91385 0.83086 0.0
O310 O 0.35425 0.89143 0.81501 0.0
C311 C 0.41161 0.93385 0.87077 0.0
O312 O 0.39367 0.94311 0.86429 0.0
C313 C 0.32446 0.84119 0.81036 0.0
C314 C 0.3347 0.80708 0.81291 0.0
C315 C 0.31775 0.82013 0.80642 0.0
N316 N 0.34447 0.84049 0.81874 0.0
N317 N 0.35046 0.82006 0.82018 0.0
C318 C 0.31175 0.86155 0.80757 0.0
H319 H 0.316 0.87329 0.82029 0.0
H320 H 0.29413 0.85827 0.80806 0.0
H321 H 0.31588 0.86888 0.79193 0.0
C322 C 0.37572 0.87673 0.88821 0.0
N323 N 0.37772 0.87798 0.86689 0.0
N324 N 0.36389 0.86467 0.85784 0.0
C325 C 0.35242 0.85465 0.87325 0.0
C326 C 0.35954 0.86197 0.89299 0.0
C327 C 0.3897 0.88889 0.90358 0.0
H328 H 0.40677 0.88819 0.89821 0.0
H329 H 0.38466 0.90609 0.9038 0.0
H330 H 0.3886 0.88219 0.91996 0.0
O331 O 0.41444 0.87788 0.83173 0.0
O332 O 0.39219 0.855 0.81577 0.0
H333 H 0.34065 0.82371 0.86365 0.0
H334 H 0.32424 0.83677 0.88369 0.0
C335 C 0.33409 0.83944 0.86913 0.0
H336 H 0.32359 0.84603 0.85637 0.0
H337 H 0.36535 0.815 0.82617 0.0
O338 O 0.41475 0.91398 0.86673 0.0
C339 C 0.41114 0.86233 0.8189 0.0
Co340 Co 0.1023 0.39174 0.84318 0.0
Co341 Co 0.13588 0.36147 0.82062 0.0
C342 C 0.08844 0.35867 0.81109 0.0
O343 O 0.08422 0.37347 0.8246 0.0
O344 O 0.10779 0.35248 0.80766 0.0
C345 C 0.06462 0.406 0.86712 0.0
O346 O 0.05706 0.38641 0.864 0.0
C347 C 0.15731 0.32223 0.80434 0.0
C348 C 0.19146 0.3327 0.80431 0.0
C349 C 0.17813 0.31534 0.79966 0.0
N350 N 0.15837 0.34272 0.8114 0.0
N351 N 0.1788 0.34889 0.81125 0.0
C352 C 0.13694 0.30924 0.8037 0.0
H353 H 0.12582 0.31455 0.81657 0.0
H354 H 0.1404 0.29174 0.80551 0.0
H355 H 0.1288 0.31191 0.78813 0.0
C356 C 0.12169 0.37212 0.88158 0.0
N357 N 0.12032 0.37445 0.86029 0.0
N358 N 0.13426 0.36142 0.85101 0.0
C359 C 0.14492 0.35024 0.86622 0.0
C360 C 0.13723 0.35663 0.88605 0.0
C361 C 0.10894 0.3852 0.89725 0.0
H362 H 0.10858 0.40234 0.89212 0.0
H363 H 0.09207 0.37913 0.89764 0.0
H364 H 0.11589 0.38426 0.91355 0.0
O365 O 0.11944 0.41148 0.82536 0.0
O366 O 0.1438 0.3906 0.80969 0.0
H367 H 0.17604 0.34061 0.85499 0.0
H368 H 0.16576 0.32409 0.8765 0.0
C369 C 0.16133 0.33307 0.86181 0.0
H370 H 0.15479 0.32152 0.84993 0.0
H371 H 0.18411 0.36414 0.81606 0.0
O372 O 0.08334 0.4108 0.86028 0.0
C373 C 0.13548 0.40912 0.81291 0.0
Co374 Co 0.6084 0.10472 0.84728 0.0
Co375 Co 0.63954 0.1364 0.82313 0.0
C376 C 0.64177 0.08848 0.81643 0.0
O377 O 0.62667 0.08543 0.82992 0.0
O378 O 0.64846 0.10746 0.81198 0.0
C379 C 0.59345 0.06804 0.87183 0.0
O380 O 0.61275 0.05999 0.86819 0.0
C381 C 0.67784 0.15714 0.80359 0.0
C382 C 0.66675 0.19109 0.80224 0.0
C383 C 0.68379 0.17768 0.79682 0.0
N384 N 0.65818 0.15849 0.81267 0.0
N385 N 0.65173 0.17882 0.81189 0.0
C386 C 0.68926 0.13623 0.79954 0.0
H387 H 0.67951 0.12644 0.78826 0.0
H388 H 0.6905 0.12702 0.81469 0.0
H389 H 0.70553 0.13862 0.79258 0.0
C390 C 0.62701 0.12683 0.88462 0.0
N391 N 0.62555 0.12371 0.86345 0.0
N392 N 0.63912 0.1367 0.85359 0.0
C393 C 0.64993 0.14836 0.86834 0.0
C394 C 0.64244 0.1426 0.88845 0.0
C395 C 0.61443 0.11417 0.90075 0.0
H396 H 0.59689 0.11649 0.89787 0.0
H397 H 0.61805 0.09675 0.89872 0.0
H398 H 0.61841 0.11893 0.91736 0.0
O399 O 0.58896 0.1209 0.82837 0.0
O400 O 0.61053 0.14371 0.81141 0.0
H401 H 0.65844 0.17905 0.85532 0.0
H402 H 0.67478 0.17111 0.87778 0.0
C403 C 0.66649 0.16519 0.86322 0.0
H404 H 0.67856 0.15844 0.85197 0.0
H405 H 0.63681 0.18423 0.81753 0.0
O406 O 0.58901 0.08694 0.86525 0.0
C407 C 0.5918 0.13601 0.81493 0.0
Co408 Co 0.89511 0.39263 0.64493 0.0
Co409 Co 0.86239 0.36264 0.66918 0.0
C410 C 0.91045 0.35805 0.67456 0.0
O411 O 0.91411 0.37305 0.66111 0.0
O412 O 0.89124 0.35251 0.67955 0.0
C413 C 0.93267 0.41005 0.62325 0.0
O414 O 0.94266 0.39286 0.63058 0.0
C415 C 0.84108 0.32304 0.68472 0.0
C416 C 0.80794 0.33503 0.69041 0.0
C417 C 0.82072 0.3167 0.69163 0.0
N418 N 0.84028 0.34414 0.67969 0.0
N419 N 0.82046 0.35121 0.68322 0.0
C420 C 0.86063 0.30919 0.68162 0.0
H421 H 0.87055 0.31549 0.66824 0.0
H422 H 0.85597 0.29219 0.67836 0.0
H423 H 0.87058 0.30965 0.69636 0.0
C424 C 0.87226 0.37483 0.60769 0.0
N425 N 0.87516 0.37649 0.62887 0.0
N426 N 0.86145 0.36368 0.63877 0.0
C427 C 0.84926 0.35344 0.62404 0.0
C428 C 0.85566 0.36027 0.60388 0.0
C429 C 0.88626 0.38593 0.59156 0.0
H430 H 0.90347 0.38378 0.59596 0.0
H431 H 0.8837 0.3795 0.57523 0.0
H432 H 0.88269 0.4035 0.59174 0.0
O433 O 0.88021 0.41208 0.66501 0.0
O434 O 0.85626 0.3915 0.68164 0.0
H435 H 0.81971 0.34598 0.64005 0.0
H436 H 0.82276 0.33252 0.61473 0.0
C437 C 0.83142 0.338 0.62924 0.0
H438 H 0.83821 0.32379 0.63769 0.0
H439 H 0.81545 0.36709 0.68056 0.0
O440 O 0.91255 0.41225 0.62671 0.0
C441 C 0.86507 0.4098 0.67854 0.0
Co442 Co 0.60482 0.89182 0.6505 0.0
Co443 Co 0.63534 0.85954 0.67448 0.0
C444 C 0.63832 0.90736 0.68149 0.0
O445 O 0.62335 0.91075 0.66795 0.0
O446 O 0.6446 0.88825 0.68594 0.0
C447 C 0.59056 0.92896 0.62625 0.0
O448 O 0.60997 0.93664 0.63008 0.0
C449 C 0.67497 0.83863 0.69046 0.0
C450 C 0.66345 0.80516 0.69515 0.0
C451 C 0.6815 0.81825 0.69715 0.0
N452 N 0.65403 0.83753 0.68483 0.0
N453 N 0.64725 0.81751 0.68775 0.0
C454 C 0.6885 0.85851 0.68809 0.0
H455 H 0.68222 0.86868 0.67488 0.0
H456 H 0.70562 0.85424 0.68494 0.0
H457 H 0.68764 0.86804 0.70307 0.0
C458 C 0.62369 0.87011 0.61298 0.0
N459 N 0.62187 0.87281 0.63418 0.0
N460 N 0.63506 0.85943 0.64402 0.0
C461 C 0.64584 0.84778 0.62924 0.0
C462 C 0.63889 0.8541 0.60911 0.0
C463 C 0.61192 0.88358 0.5969 0.0
H464 H 0.59425 0.88138 0.59901 0.0
H465 H 0.61566 0.90086 0.59976 0.0
H466 H 0.6165 0.87948 0.58028 0.0
O467 O 0.58509 0.87567 0.66929 0.0
O468 O 0.60628 0.85231 0.68598 0.0
H469 H 0.65403 0.81797 0.64439 0.0
H470 H 0.66827 0.82264 0.6197 0.0
C471 C 0.66187 0.83045 0.63433 0.0
H472 H 0.67544 0.8375 0.64356 0.0
H473 H 0.63155 0.81227 0.68458 0.0
O474 O 0.58576 0.91006 0.63262 0.0
C475 C 0.58767 0.86032 0.68252 0.0
Co476 Co 0.10409 0.60607 0.64801 0.0
Co477 Co 0.13724 0.63691 0.67066 0.0
C478 C 0.08978 0.64032 0.67898 0.0
O479 O 0.08596 0.62509 0.66583 0.0
O480 O 0.10901 0.64669 0.6828 0.0
C481 C 0.06641 0.59203 0.62405 0.0
O482 O 0.0592 0.61178 0.6269 0.0
C483 C 0.16088 0.67293 0.69164 0.0
C484 C 0.19446 0.66422 0.68316 0.0
C485 C 0.18227 0.67942 0.69404 0.0
N486 N 0.16057 0.65491 0.6796 0.0
N487 N 0.1807 0.64979 0.67471 0.0
C488 C 0.14129 0.68225 0.70219 0.0
H489 H 0.13141 0.66903 0.70905 0.0
H490 H 0.13136 0.69072 0.69006 0.0
H491 H 0.1456 0.69363 0.71517 0.0
C492 C 0.12411 0.62489 0.60962 0.0
N493 N 0.12261 0.62281 0.63092 0.0
N494 N 0.13593 0.6365 0.64018 0.0
C495 C 0.14605 0.64809 0.62489 0.0
C496 C 0.13893 0.64106 0.60507 0.0
C497 C 0.11192 0.61119 0.59403 0.0
H498 H 0.11127 0.59427 0.59982 0.0
H499 H 0.09513 0.61732 0.5927 0.0
H500 H 0.11957 0.61145 0.57801 0.0
O501 O 0.12055 0.58651 0.66647 0.0
O502 O 0.14438 0.60781 0.68233 0.0
H503 H 0.17735 0.6606 0.63213 0.0
H504 H 0.16143 0.67788 0.61522 0.0
C505 C 0.16081 0.66677 0.62911 0.0
H506 H 0.15527 0.67586 0.64335 0.0
H507 H 0.18503 0.63628 0.6657 0.0
O508 O 0.08504 0.58699 0.63099 0.0
C509 C 0.1362 0.5892 0.67932 0.0
Co510 Co 0.39446 0.10214 0.65095 0.0
Co511 Co 0.36411 0.13444 0.67527 0.0
C512 C 0.3616 0.08662 0.68265 0.0
O513 O 0.37673 0.08327 0.66928 0.0
O514 O 0.35479 0.10568 0.68658 0.0
C515 C 0.41051 0.0643 0.62884 0.0
O516 O 0.39322 0.0547 0.63645 0.0
C517 C 0.32516 0.15566 0.69262 0.0
C518 C 0.33774 0.18859 0.69849 0.0
C519 C 0.31952 0.1758 0.70069 0.0
N520 N 0.3458 0.15664 0.68595 0.0
N521 N 0.35314 0.17638 0.68938 0.0
C522 C 0.31231 0.1352 0.69328 0.0
H523 H 0.31844 0.12503 0.70654 0.0
H524 H 0.31466 0.1261 0.67819 0.0
H525 H 0.2949 0.13822 0.69599 0.0
C526 C 0.37473 0.12357 0.61376 0.0
N527 N 0.3768 0.12088 0.63494 0.0
N528 N 0.364 0.13455 0.64491 0.0
C529 C 0.35336 0.14649 0.63028 0.0
C530 C 0.35993 0.13999 0.61006 0.0
C531 C 0.38614 0.10996 0.59754 0.0
H532 H 0.40363 0.11393 0.59772 0.0
H533 H 0.38439 0.09267 0.60183 0.0
H534 H 0.37963 0.11246 0.58123 0.0
O535 O 0.41452 0.11865 0.66899 0.0
O536 O 0.39338 0.14158 0.68633 0.0
H537 H 0.3467 0.17651 0.64576 0.0
H538 H 0.33201 0.17274 0.62119 0.0
C539 C 0.33819 0.16451 0.63567 0.0
H540 H 0.32442 0.158 0.64501 0.0
H541 H 0.36886 0.18138 0.68589 0.0
O542 O 0.41334 0.08432 0.63241 0.0
C543 C 0.41202 0.13389 0.68236 0.0
H544 H 0.94888 0.58047 0.11568 0.0
H545 H 0.97869 0.5561 0.10781 0.0
H546 H 0.93399 0.50293 0.10213 0.0
H547 H 0.90397 0.5272 0.11058 0.0
H548 H 0.96531 0.49449 0.13011 0.0
H549 H 0.00314 0.52587 0.05649 0.0
H550 H -0.00011 0.54675 0.07606 0.0
H551 H 0.97638 0.53385 0.06487 0.0
C552 C 0.94527 0.56369 0.1123 0.0
C553 C 0.92403 0.55575 0.11397 0.0
C554 C 0.96237 0.54978 0.10758 0.0
C555 C 0.95859 0.5277 0.10412 0.0
C556 C 0.93727 0.51993 0.10464 0.0
H557 H 0.05228 0.42177 0.11005 0.0
H558 H 0.02038 0.44283 0.1002 0.0
C559 C 0.92012 0.53384 0.10947 0.0
C560 C 0.97706 0.51245 0.10304 0.0
H561 H 0.02598 0.50385 0.07916 0.0
C562 C 0.97835 0.49625 0.11867 0.0
C563 C 0.99416 0.51484 0.08821 0.0
C564 C 0.99323 0.53114 0.07034 0.0
C565 C 0.99667 0.48307 0.12054 0.0
C566 C 0.01408 0.48599 0.1062 0.0
C567 C 0.01259 0.50171 0.09014 0.0
C568 C 0.0344 0.47366 0.10869 0.0
C569 C 0.99768 0.4668 0.13847 0.0
C570 C 0.05315 0.48417 0.11579 0.0
C571 C 0.07145 0.4722 0.12141 0.0
C572 C 0.07126 0.44952 0.12001 0.0
C573 C 0.05289 0.4392 0.11155 0.0
C574 C 0.03463 0.45118 0.10592 0.0
H575 H 0.98461 0.46927 0.15038 0.0
H576 H 0.99598 0.45028 0.1318 0.0
H577 H 0.01349 0.46772 0.1468 0.0
H578 H 0.05327 0.50153 0.11797 0.0
H579 H 0.08535 0.48067 0.12775 0.0
H580 H 0.58177 0.05063 0.11193 0.0
H581 H 0.55994 0.01906 0.10287 0.0
H582 H 0.50183 0.0558 0.11406 0.0
H583 H 0.52351 0.08754 0.12296 0.0
H584 H 0.53298 0.00114 0.13308 0.0
H585 H 0.48654 0.02149 0.0602 0.0
H586 H 0.51059 0.03601 0.06808 0.0
H587 H 0.48508 0.04187 0.08056 0.0
C588 C 0.56434 0.05217 0.11199 0.0
C589 C 0.55437 0.07155 0.11839 0.0
C590 C 0.5519 0.03411 0.10676 0.0
C591 C 0.52928 0.03512 0.10765 0.0
C592 C 0.51925 0.05477 0.11286 0.0
H593 H 0.42195 0.9518 0.12437 0.0
H594 H 0.4469 0.98094 0.11548 0.0
C595 C 0.53169 0.07288 0.11809 0.0
C596 C 0.51635 0.01503 0.10621 0.0
H597 H 0.47323 0.99181 0.08112 0.0
C598 C 0.52016 0.99889 0.12147 0.0
C599 C 0.49957 0.01227 0.09116 0.0
C600 C 0.49529 0.02874 0.07394 0.0
C601 C 0.50701 0.98051 0.12278 0.0
C602 C 0.48987 0.97793 0.10804 0.0
C603 C 0.48644 0.99377 0.09233 0.0
C604 C 0.47426 0.95989 0.11002 0.0
C605 C 0.51088 0.96463 0.14069 0.0
C606 C 0.48114 0.93829 0.10905 0.0
C607 C 0.46695 0.92155 0.11438 0.0
C608 C 0.44559 0.92614 0.12051 0.0
C609 C 0.43835 0.94769 0.11991 0.0
C610 C 0.45258 0.96439 0.11475 0.0
H611 H 0.52155 0.97142 0.15328 0.0
H612 H 0.49539 0.95968 0.1482 0.0
H613 H 0.51882 0.94996 0.13419 0.0
H614 H 0.49771 0.93445 0.10496 0.0
H615 H 0.47295 0.90511 0.11443 0.0
H616 H 0.91169 0.4771 0.37349 0.0
H617 H 0.94375 0.49826 0.38267 0.0
H618 H 0.97864 0.43964 0.39651 0.0
H619 H 0.94679 0.41828 0.38712 0.0
H620 H 0.97287 0.50072 0.41916 0.0
H621 H 0.01141 0.46752 0.34582 0.0
H622 H 0.98285 0.46495 0.35099 0.0
H623 H 0.00179 0.44794 0.36474 0.0
C624 C 0.92603 0.4687 0.37888 0.0
C625 C 0.92681 0.44599 0.3792 0.0
C626 C 0.94433 0.48083 0.38416 0.0
C627 C 0.96364 0.47047 0.38987 0.0
C628 C 0.96397 0.4479 0.39179 0.0
H629 H 0.09342 0.52497 0.38394 0.0
H630 H 0.06371 0.50069 0.3933 0.0
C631 C 0.94573 0.43574 0.38645 0.0
C632 C 0.98387 0.48311 0.39158 0.0
H633 H 0.03152 0.49239 0.36578 0.0
C634 C 0.98581 0.49881 0.40764 0.0
C635 C 0.00069 0.48055 0.37649 0.0
C636 C 0.99914 0.46447 0.35841 0.0
C637 C 0.00412 0.51219 0.40888 0.0
C638 C 0.02065 0.51005 0.39339 0.0
C639 C 0.01891 0.49393 0.37773 0.0
C640 C 0.039 0.52538 0.39178 0.0
C641 C 0.00557 0.5285 0.42671 0.0
C642 C 0.03506 0.54742 0.38828 0.0
C643 C 0.052 0.56135 0.383 0.0
C644 C 0.0732 0.55344 0.38084 0.0
C645 C 0.07728 0.53158 0.38541 0.0
C646 C 0.06032 0.51767 0.39077 0.0
H647 H 0.99602 0.52328 0.44082 0.0
H648 H 0.02257 0.53116 0.43172 0.0
H649 H 0.99883 0.54413 0.42113 0.0
H650 H 0.01872 0.55368 0.38846 0.0
H651 H 0.04827 0.57809 0.37959 0.0
H652 H 0.53012 0.90768 0.39057 0.0
H653 H 0.50512 0.93704 0.39934 0.0
H654 H 0.55501 0.98378 0.38603 0.0
H655 H 0.5802 0.95467 0.37777 0.0
H656 H 0.52906 0.99549 0.42065 0.0
H657 H 0.47997 0.97187 0.34995 0.0
H658 H 0.48343 0.95118 0.36974 0.0
H659 H 0.50641 0.96077 0.35498 0.0
C660 C 0.53588 0.9242 0.38986 0.0
C661 C 0.55705 0.92884 0.38312 0.0
C662 C 0.52154 0.94095 0.3948 0.0
C663 C 0.52809 0.96258 0.39285 0.0
C664 C 0.54959 0.9672 0.38751 0.0
H665 H 0.47755 0.08934 0.37666 0.0
H666 H 0.49953 0.05802 0.38623 0.0
C667 C 0.56396 0.9505 0.38272 0.0
C668 C 0.51226 0.98048 0.39444 0.0
H669 H 0.46862 0.0023 0.36911 0.0
C670 C 0.5157 0.99691 0.40954 0.0
C671 C 0.49491 0.98233 0.37984 0.0
C672 C 0.49098 0.96573 0.36258 0.0
C673 C 0.50238 0.01529 0.41024 0.0
C674 C 0.4854 0.01735 0.39528 0.0
C675 C 0.48158 0.00061 0.38064 0.0
C676 C 0.47228 0.03727 0.39326 0.0
C677 C 0.50666 0.03238 0.42686 0.0
C678 C 0.44967 0.03609 0.39423 0.0
C679 C 0.43706 0.05391 0.38859 0.0
C680 C 0.44684 0.07322 0.38173 0.0
C681 C 0.46951 0.07473 0.3819 0.0
C682 C 0.48212 0.05687 0.38751 0.0
H683 H 0.51547 0.02564 0.44081 0.0
H684 H 0.51684 0.04528 0.41976 0.0
H685 H 0.49137 0.03983 0.43252 0.0
H686 H 0.44177 0.02109 0.39854 0.0
H687 H 0.41964 0.05223 0.38877 0.0
H688 H 0.91821 0.55206 0.88694 0.0
H689 H 0.93856 0.51952 0.89604 0.0
H690 H 0.99829 0.55326 0.88401 0.0
H691 H 0.97813 0.58594 0.87504 0.0
H692 H 0.96429 0.50004 0.86568 0.0
H693 H 0.01251 0.51857 0.93784 0.0
H694 H 0.98907 0.53416 0.93017 0.0
H695 H 0.01472 0.53886 0.91748 0.0
C696 C 0.9357 0.55275 0.88673 0.0
C697 C 0.94655 0.57155 0.88004 0.0
C698 C 0.94729 0.53412 0.89197 0.0
C699 C 0.96992 0.534 0.89084 0.0
C700 C 0.98084 0.5531 0.88539 0.0
H701 H 0.07448 0.44868 0.8721 0.0
H702 H 0.04997 0.47796 0.88156 0.0
C703 C 0.96927 0.57175 0.88012 0.0
C704 C 0.9819 0.51332 0.89224 0.0
H705 H 0.02471 0.48866 0.91646 0.0
C706 C 0.97723 0.49733 0.87705 0.0
C707 C 0.99883 0.50994 0.90701 0.0
C708 C 0.00397 0.52621 0.92419 0.0
C709 C 0.98978 0.47854 0.87543 0.0
C710 C 0.00717 0.47542 0.88978 0.0
C711 C 0.01133 0.49105 0.90553 0.0
C712 C 0.02246 0.45716 0.88719 0.0
C713 C 0.98506 0.46286 0.85755 0.0
C714 C 0.01534 0.43563 0.88799 0.0
C715 C 0.02929 0.41877 0.88233 0.0
C716 C 0.05065 0.42321 0.87602 0.0
C717 C 0.05808 0.44468 0.87668 0.0
C718 C 0.04411 0.46148 0.88218 0.0
H719 H 0.97417 0.46993 0.84531 0.0
H720 H 0.00023 0.45767 0.84957 0.0
H721 H 0.97705 0.4483 0.86418 0.0
H722 H 0.9988 0.43192 0.89229 0.0
H723 H 0.02314 0.40239 0.88223 0.0
H724 H 0.4501 0.91939 0.88656 0.0
H725 H 0.48166 0.94105 0.89603 0.0
H726 H 0.44536 0.99936 0.88448 0.0
H727 H 0.41361 0.97784 0.87518 0.0
H728 H 0.50018 0.96799 0.86618 0.0
H729 H 0.47889 0.01432 0.93891 0.0
H730 H 0.46436 0.99038 0.93072 0.0
H731 H 0.4589 0.01595 0.91819 0.0
C732 C 0.44866 0.93683 0.88648 0.0
C733 C 0.4294 0.9469 0.87989 0.0
C734 C 0.46671 0.94917 0.89195 0.0
C735 C 0.46582 0.9718 0.89111 0.0
C736 C 0.44629 0.98193 0.88565 0.0
H737 H 0.55076 0.07827 0.87636 0.0
H738 H 0.52112 0.05374 0.88472 0.0
C739 C 0.42818 0.96958 0.88019 0.0
C740 C 0.48596 0.98461 0.8929 0.0
H741 H 0.50915 0.02733 0.91867 0.0
C742 C 0.50233 0.98072 0.8779 0.0
C743 C 0.4886 0.00129 0.90809 0.0
C744 C 0.47184 0.00565 0.92503 0.0
C745 C 0.52088 0.99368 0.87701 0.0
C746 C 0.52337 0.01068 0.89193 0.0
C747 C 0.50726 0.01421 0.90734 0.0
C748 C 0.54167 0.02605 0.89041 0.0
C749 C 0.53705 0.98973 0.85937 0.0
C750 C 0.56314 0.01885 0.89172 0.0
C751 C 0.58018 0.0328 0.8867 0.0
C752 C 0.576 0.05424 0.88053 0.0
C753 C 0.55456 0.0618 0.88086 0.0
C754 C 0.53756 0.04782 0.88571 0.0
H755 H 0.53036 0.97925 0.84657 0.0
H756 H 0.54234 0.00521 0.85208 0.0
H757 H 0.55148 0.98156 0.86607 0.0
H758 H 0.56666 0.00222 0.8958 0.0
H759 H 0.59653 0.02655 0.88686 0.0
H760 H 0.91708 0.44844 0.60807 0.0
H761 H 0.93792 0.48063 0.5988 0.0
H762 H 0.99716 0.44546 0.60912 0.0
H763 H 0.97649 0.41314 0.61821 0.0
H764 H 0.96477 0.49956 0.62832 0.0
H765 H 0.01089 0.47985 0.55512 0.0
H766 H 0.98739 0.46469 0.56343 0.0
H767 H 0.01327 0.45958 0.57548 0.0
C768 C 0.93455 0.44738 0.60789 0.0
C769 C 0.94513 0.42825 0.61408 0.0
C770 C 0.94642 0.4658 0.60255 0.0
C771 C 0.96908 0.46541 0.60311 0.0
C772 C 0.97969 0.44603 0.60816 0.0
H773 H 0.07558 0.54914 0.61937 0.0
H774 H 0.05048 0.52011 0.61066 0.0
C775 C 0.96783 0.42758 0.61351 0.0
C776 C 0.9815 0.48581 0.60142 0.0
H777 H 0.02425 0.50953 0.57615 0.0
C778 C 0.97751 0.50196 0.61665 0.0
C779 C 0.99816 0.4888 0.58626 0.0
C780 C 0.00258 0.47239 0.56901 0.0
C781 C 0.99045 0.52051 0.61789 0.0
C782 C 0.00757 0.52323 0.60314 0.0
C783 C 0.01108 0.50744 0.58739 0.0
C784 C 0.02319 0.54126 0.60524 0.0
C785 C 0.98644 0.53638 0.63577 0.0
C786 C 0.0164 0.56289 0.60428 0.0
C787 C 0.0307 0.5796 0.60949 0.0
C788 C 0.05208 0.57492 0.61552 0.0
C789 C 0.05918 0.55333 0.61499 0.0
C790 C 0.04486 0.53668 0.60993 0.0
H791 H 0.97567 0.5296 0.64829 0.0
H792 H 0.00187 0.54132 0.64338 0.0
H793 H 0.97857 0.55106 0.62922 0.0
H794 H -0.00016 0.56679 0.60024 0.0
H795 H 0.02479 0.59606 0.6095 0.0
H796 H 0.44858 0.07918 0.61229 0.0
H797 H 0.48007 0.05777 0.60205 0.0
H798 H 0.44425 0.99917 0.61366 0.0
H799 H 0.4126 0.02042 0.62376 0.0
H800 H 0.49909 0.03069 0.6315 0.0
H801 H 0.47722 0.98471 0.55878 0.0
H802 H 0.46272 0.00857 0.56724 0.0
H803 H 0.45734 0.98289 0.57959 0.0
C804 C 0.44721 0.06173 0.6122 0.0
C805 C 0.42814 0.0515 0.61907 0.0
C806 C 0.46523 0.04953 0.60628 0.0
C807 C 0.46447 0.02689 0.60695 0.0
C808 C 0.44508 0.01662 0.61263 0.0
H809 H 0.54769 0.91961 0.62156 0.0
H810 H 0.51861 0.94474 0.61302 0.0
C811 C 0.42703 0.02881 0.61855 0.0
C812 C 0.48463 0.01417 0.60486 0.0
H813 H 0.50733 0.97121 0.57904 0.0
C814 C 0.5011 0.01795 0.61977 0.0
C815 C 0.48709 0.99749 0.58964 0.0
C816 C 0.47023 0.99327 0.57277 0.0
C817 C 0.51951 0.0048 0.62063 0.0
C818 C 0.52177 0.98771 0.60576 0.0
C819 C 0.50561 0.98438 0.59035 0.0
C820 C 0.53975 0.97199 0.6074 0.0
C821 C 0.53575 0.00859 0.63824 0.0
C822 C 0.56138 0.97875 0.6062 0.0
C823 C 0.5781 0.96446 0.61133 0.0
C824 C 0.57344 0.94311 0.61749 0.0
C825 C 0.55186 0.93599 0.61707 0.0
C826 C 0.53518 0.95032 0.61211 0.0
H827 H 0.52925 0.01925 0.65098 0.0
H828 H 0.54078 0.99307 0.64562 0.0
H829 H 0.55032 0.01649 0.63148 0.0
H830 H 0.56527 0.9953 0.60211 0.0
H831 H 0.59457 0.97037 0.61124 0.0
H832 H 0.20473 0.33285 0.22315 0.0
H833 H 0.23459 0.31387 0.24066 0.0
H834 H 0.23204 0.26422 0.19234 0.0
H835 H 0.20185 0.28284 0.17521 0.0
H836 H 0.22776 0.24791 0.23106 0.0
H837 H 0.29833 0.303 0.23083 0.0
H838 H 0.27429 0.31536 0.24121 0.0
H839 H 0.2752 0.30704 0.2137 0.0
C840 C 0.21106 0.31828 0.21591 0.0
C841 C 0.20111 0.3093 0.19782 0.0
C842 C 0.22817 0.30747 0.22588 0.0
C843 C 0.23572 0.28772 0.2177 0.0
C844 C 0.22653 0.27946 0.1989 0.0
H845 H 0.33384 0.20026 0.268 0.0
H846 H 0.31547 0.22814 0.24688 0.0
C847 C 0.20929 0.29007 0.18915 0.0
C848 C 0.25075 0.27405 0.23025 0.0
H849 H 0.29993 0.27294 0.25507 0.0
C850 C 0.24362 0.25335 0.23609 0.0
C851 C 0.27148 0.28111 0.23677 0.0
C852 C 0.28039 0.30277 0.23013 0.0
C853 C 0.25642 0.23966 0.24854 0.0
C854 C 0.27673 0.24703 0.25585 0.0
C855 C 0.2842 0.2675 0.24965 0.0
C856 C 0.2901 0.23344 0.27006 0.0
C857 C 0.24809 0.21733 0.25374 0.0
C858 C 0.28232 0.22788 0.29035 0.0
C859 C 0.29269 0.21198 0.30234 0.0
C860 C 0.31122 0.20166 0.2944 0.0
C861 C 0.31983 0.20825 0.27468 0.0
C862 C 0.30931 0.22409 0.26257 0.0
H863 H 0.23496 0.2123 0.24271 0.0
H864 H 0.26127 0.20519 0.25293 0.0
H865 H 0.24148 0.21727 0.27021 0.0
H866 H 0.26761 0.23508 0.29645 0.0
H867 H 0.28578 0.20722 0.31752 0.0
H868 H 0.81494 0.30397 0.25715 0.0
H869 H 0.78261 0.28926 0.24016 0.0
H870 H 0.74359 0.3129 0.29223 0.0
H871 H 0.77617 0.32761 0.30944 0.0
H872 H 0.73881 0.2686 0.28338 0.0
H873 H 0.73066 0.31638 0.20933 0.0
H874 H 0.75787 0.30731 0.2135 0.0
H875 H 0.7458 0.32583 0.23219 0.0
C876 C 0.79939 0.30643 0.26472 0.0
C877 C 0.79791 0.31718 0.28437 0.0
C878 C 0.78092 0.29819 0.25494 0.0
C879 C 0.76064 0.30041 0.26471 0.0
C880 C 0.75905 0.3114 0.28426 0.0
H881 H 0.65769 0.2104 0.22387 0.0
H882 H 0.67255 0.24266 0.24119 0.0
C883 C 0.77759 0.31987 0.29399 0.0
C884 C 0.7419 0.28878 0.25559 0.0
H885 H 0.7161 0.27996 0.20828 0.0
C886 C 0.7333 0.2714 0.26718 0.0
C887 C 0.73477 0.29257 0.23449 0.0
C888 C 0.74261 0.31169 0.22173 0.0
C889 C 0.71925 0.25651 0.25755 0.0
C890 C 0.7134 0.25939 0.23589 0.0
C891 C 0.72069 0.27774 0.22485 0.0
C892 C 0.70266 0.24199 0.22362 0.0
C893 C 0.71221 0.2369 0.27009 0.0
C894 C 0.71428 0.23151 0.20744 0.0
C895 C 0.70574 0.21336 0.19735 0.0
C896 C 0.68531 0.20539 0.20311 0.0
C897 C 0.67326 0.21641 0.21872 0.0
C898 C 0.68184 0.23468 0.22884 0.0
H899 H 0.72072 0.23558 0.28565 0.0
H900 H 0.69461 0.23792 0.2733 0.0
H901 H 0.71523 0.22191 0.2608 0.0
H902 H 0.73039 0.23688 0.20319 0.0
H903 H 0.71539 0.20522 0.18536 0.0
H904 H 0.7172 0.79706 0.31146 0.0
H905 H 0.7319 0.76567 0.29291 0.0
H906 H 0.67338 0.76038 0.25589 0.0
H907 H 0.65883 0.79238 0.2739 0.0
H908 H 0.71766 0.72269 0.28747 0.0
H909 H 0.7206 0.76813 0.21062 0.0
H910 H 0.71553 0.78142 0.23575 0.0
H911 H 0.69473 0.76552 0.22341 0.0
C912 C 0.70734 0.78908 0.29953 0.0
C913 C 0.68681 0.79711 0.29425 0.0
C914 C 0.71571 0.77108 0.28903 0.0
C915 C 0.7038 0.76082 0.27291 0.0
C916 C 0.68289 0.76819 0.26817 0.0
H917 H 0.7754 0.67607 0.18458 0.0
H918 H 0.74323 0.6907 0.20262 0.0
C919 C 0.67448 0.78631 0.2787 0.0
C920 C 0.71433 0.74362 0.26019 0.0
H921 H 0.73869 0.73506 0.21203 0.0
C922 C 0.72188 0.72514 0.27084 0.0
C923 C 0.71971 0.7468 0.23845 0.0
C924 C 0.71238 0.76656 0.22631 0.0
C925 C 0.73576 0.71045 0.2607 0.0
C926 C 0.74241 0.71452 0.23949 0.0
C927 C 0.73355 0.73204 0.22832 0.0
C928 C 0.76095 0.70302 0.22981 0.0
C929 C 0.7439 0.69118 0.27303 0.0
C930 C 0.78145 0.70519 0.23911 0.0
C931 C 0.79968 0.69701 0.22884 0.0
C932 C 0.79773 0.68637 0.20918 0.0
C933 C 0.77718 0.68375 0.20002 0.0
C934 C 0.75888 0.69216 0.21023 0.0
H935 H 0.73227 0.68635 0.28568 0.0
H936 H 0.74681 0.67717 0.26233 0.0
H937 H 0.75938 0.69546 0.28091 0.0
H938 H 0.78348 0.71401 0.25392 0.0
H939 H 0.81541 0.6994 0.23607 0.0
H940 H 0.22221 0.67058 0.30935 0.0
H941 H 0.25487 0.68531 0.29237 0.0
H942 H 0.21541 0.71532 0.24397 0.0
H943 H 0.183 0.70024 0.26047 0.0
H944 H 0.25418 0.69552 0.22811 0.0
H945 H 0.26859 0.7505 0.29727 0.0
H946 H 0.26691 0.72195 0.3024 0.0
H947 H 0.24332 0.73639 0.29383 0.0
C948 C 0.22065 0.6798 0.29474 0.0
C949 C 0.20018 0.68405 0.28599 0.0
C950 C 0.23924 0.68839 0.28522 0.0
C951 C 0.2375 0.70148 0.26699 0.0
C952 C 0.2171 0.70518 0.25797 0.0
H953 H 0.28291 0.79692 0.18848 0.0
H954 H 0.26809 0.76429 0.20465 0.0
C955 C 0.19861 0.69666 0.26745 0.0
C956 C 0.25642 0.7128 0.25787 0.0
H957 H 0.28816 0.7571 0.26607 0.0
C958 C 0.262 0.70868 0.23654 0.0
C959 C 0.2667 0.72985 0.26898 0.0
C960 C 0.26111 0.73513 0.29185 0.0
C961 C 0.27656 0.72205 0.22559 0.0
C962 C 0.28545 0.74015 0.23618 0.0
C963 C 0.28125 0.74322 0.25799 0.0
C964 C 0.29612 0.75788 0.22434 0.0
C965 C 0.28158 0.71723 0.20252 0.0
C966 C 0.31677 0.76521 0.23013 0.0
C967 C 0.32529 0.78397 0.22088 0.0
C968 C 0.31311 0.79574 0.20592 0.0
C969 C 0.29268 0.78807 0.19986 0.0
C970 C 0.28429 0.76931 0.20894 0.0
H971 H 0.28013 0.69967 0.19913 0.0
H972 H 0.26982 0.72582 0.19219 0.0
H973 H 0.29811 0.72267 0.19818 0.0
H974 H 0.32598 0.75682 0.24227 0.0
H975 H 0.34084 0.78982 0.22625 0.0
H976 H 0.70041 0.77952 0.69021 0.0
H977 H 0.73289 0.76506 0.70707 0.0
H978 H 0.74277 0.8256 0.73975 0.0
H979 H 0.70987 0.84007 0.72327 0.0
H980 H 0.77736 0.77994 0.70839 0.0
H981 H 0.73662 0.77983 0.78788 0.0
H982 H 0.72163 0.78328 0.76341 0.0
H983 H 0.73805 0.80491 0.77343 0.0
C984 C 0.70965 0.78986 0.70078 0.0
C985 C 0.70269 0.81096 0.7053 0.0
C986 C 0.72825 0.78162 0.71031 0.0
C987 C 0.74013 0.79423 0.72473 0.0
C988 C 0.73374 0.81561 0.72871 0.0
H989 H 0.82692 0.72307 0.81086 0.0
H990 H 0.81211 0.75524 0.79306 0.0
C991 C 0.71508 0.82392 0.71909 0.0
C992 C 0.75801 0.784 0.73669 0.0
H993 H 0.76894 0.76061 0.7848 0.0
C994 C 0.77581 0.77611 0.72522 0.0
C995 C 0.75601 0.77919 0.75867 0.0
C996 C 0.73704 0.7871 0.77167 0.0
C997 C 0.79098 0.76239 0.73487 0.0
C998 C 0.78798 0.75613 0.75638 0.0
C999 C 0.77115 0.7654 0.76828 0.0
C1000 C 0.79978 0.73764 0.76579 0.0
C1001 C 0.80961 0.75407 0.72171 0.0
C1002 C 0.79772 0.71716 0.75638 0.0
C1003 C 0.80613 0.69894 0.76645 0.0
C1004 C 0.81684 0.70083 0.78609 0.0
C1005 C 0.81929 0.72133 0.7954 0.0
C1006 C 0.81074 0.73964 0.78533 0.0
H1007 H 0.8142 0.76584 0.70911 0.0
H1008 H 0.82397 0.75067 0.73179 0.0
H1009 H 0.8047 0.73887 0.71366 0.0
H1010 H 0.78876 0.71512 0.74166 0.0
H1011 H 0.80382 0.68326 0.75911 0.0
H1012 H 0.21912 0.67962 0.71717 0.0
H1013 H 0.23598 0.71013 0.73544 0.0
H1014 H 0.1835 0.75148 0.71597 0.0
H1015 H 0.16665 0.72096 0.69715 0.0
H1016 H 0.24656 0.7519 0.71327 0.0
H1017 H 0.19199 0.75917 0.78376 0.0
H1018 H 0.19469 0.73403 0.76933 0.0
H1019 H 0.18059 0.75624 0.75741 0.0
C1020 C 0.21107 0.69516 0.71688 0.0
C1021 C 0.19135 0.69781 0.70611 0.0
C1022 C 0.2207 0.71254 0.72733 0.0
C1023 C 0.21085 0.73292 0.72718 0.0
C1024 C 0.19113 0.73573 0.71651 0.0
H1025 H 0.29492 0.83797 0.77312 0.0
H1026 H 0.26493 0.82135 0.75357 0.0
C1027 C 0.18146 0.71828 0.70595 0.0
C1028 C 0.22203 0.75119 0.73755 0.0
H1029 H 0.22383 0.77997 0.78398 0.0
C1030 C 0.24143 0.75845 0.72851 0.0
C1031 C 0.21519 0.75949 0.75743 0.0
C1032 C 0.19451 0.7519 0.76773 0.0
C1033 C 0.25484 0.77301 0.73938 0.0
C1034 C 0.24847 0.78066 0.75973 0.0
C1035 C 0.22853 0.77418 0.76831 0.0
C1036 C 0.2637 0.79278 0.77343 0.0
C1037 C 0.27636 0.77895 0.72965 0.0
C1038 C 0.27224 0.78263 0.79156 0.0
C1039 C 0.28915 0.79216 0.80286 0.0
C1040 C 0.2977 0.81212 0.79635 0.0
C1041 C 0.28838 0.82283 0.77883 0.0
C1042 C 0.27141 0.81324 0.76749 0.0
H1043 H 0.28015 0.76909 0.71531 0.0
H1044 H 0.2761 0.7962 0.72483 0.0
H1045 H 0.28956 0.7768 0.74147 0.0
H1046 H 0.26655 0.7668 0.79637 0.0
H1047 H 0.29603 0.78356 0.8163 0.0
H1048 H 0.27782 0.17104 0.68657 0.0
H1049 H 0.24506 0.18612 0.70302 0.0
H1050 H 0.28364 0.21273 0.75399 0.0
H1051 H 0.31615 0.19726 0.73799 0.0
H1052 H 0.24354 0.19379 0.76759 0.0
H1053 H 0.23404 0.25194 0.70019 0.0
H1054 H 0.23486 0.22359 0.69393 0.0
H1055 H 0.25859 0.23673 0.70405 0.0
C1056 C 0.27914 0.17954 0.70162 0.0
C1057 C 0.2994 0.18275 0.71124 0.0
C1058 C 0.2605 0.18835 0.71084 0.0
C1059 C 0.26199 0.20062 0.72965 0.0
C1060 C 0.28215 0.20323 0.73953 0.0
H1061 H 0.21467 0.29404 0.81043 0.0
H1062 H 0.22989 0.26195 0.79354 0.0
C1063 C 0.30069 0.19449 0.73035 0.0
C1064 C 0.24314 0.21228 0.73847 0.0
H1065 H 0.21315 0.25784 0.73068 0.0
C1066 C 0.23651 0.20752 0.75938 0.0
C1067 C 0.23393 0.23009 0.72764 0.0
C1068 C 0.2407 0.23608 0.70525 0.0
C1069 C 0.22186 0.22089 0.77021 0.0
C1070 C 0.21397 0.23964 0.75995 0.0
C1071 C 0.21929 0.24346 0.73851 0.0
C1072 C 0.20301 0.2571 0.77194 0.0
C1073 C 0.2156 0.21528 0.7928 0.0
C1074 C 0.18292 0.26517 0.76528 0.0
C1075 C 0.17421 0.28364 0.77489 0.0
C1076 C 0.1856 0.29437 0.79116 0.0
C1077 C 0.20549 0.28599 0.79804 0.0
C1078 C 0.21409 0.26752 0.78855 0.0
H1079 H 0.2164 0.19755 0.79552 0.0
H1080 H 0.22709 0.22308 0.804 0.0
H1081 H 0.19904 0.22101 0.79661 0.0
H1082 H 0.17432 0.25758 0.75222 0.0
H1083 H 0.15914 0.29008 0.76887 0.0
H1084 H 0.84211 0.28777 0.71734 0.0
H1085 H 0.8272 0.25482 0.73339 0.0
H1086 H 0.76697 0.26576 0.70048 0.0
H1087 H 0.78185 0.29831 0.6842 0.0
H1088 H 0.79172 0.25535 0.76001 0.0
H1089 H 0.77562 0.20114 0.69191 0.0
H1090 H 0.79426 0.22357 0.69022 0.0
H1091 H 0.76568 0.22786 0.68681 0.0
C1092 C 0.82598 0.2827 0.71295 0.0
C1093 C 0.81321 0.29541 0.69929 0.0
C1094 C 0.81744 0.26396 0.72224 0.0
C1095 C 0.79613 0.25761 0.7178 0.0
C1096 C 0.78364 0.27 0.70368 0.0
H1097 H 0.68418 0.20311 0.76186 0.0
H1098 H 0.71554 0.21791 0.74324 0.0
C1099 C 0.79208 0.28872 0.69455 0.0
C1100 C 0.7857 0.23984 0.72983 0.0
H1101 H 0.75194 0.19687 0.72277 0.0
C1102 C 0.78354 0.24213 0.75202 0.0
C1103 C 0.77515 0.22258 0.71935 0.0
C1104 C 0.77799 0.21851 0.69578 0.0
C1105 C 0.76947 0.22884 0.7637 0.0
C1106 C 0.75754 0.21272 0.75287 0.0
C1107 C 0.76103 0.20933 0.73099 0.0
C1108 C 0.73906 0.20172 0.76317 0.0
C1109 C 0.76617 0.23325 0.78717 0.0
C1110 C 0.74194 0.18745 0.78037 0.0
C1111 C 0.72396 0.17898 0.79108 0.0
C1112 C 0.70296 0.1846 0.7846 0.0
C1113 C 0.70021 0.19848 0.7671 0.0
C1114 C 0.71809 0.20684 0.75641 0.0
H1115 H 0.77493 0.24792 0.7926 0.0
H1116 H 0.7487 0.23533 0.79071 0.0
H1117 H 0.77208 0.21927 0.79659 0.0
H1118 H 0.75802 0.18329 0.78578 0.0
H1119 H 0.72648 0.16873 0.80487 0.0
H1120 H 0.17949 0.359 0.08729 0.0
H1121 H 0.18883 0.34992 0.05019 0.0
H1122 H 0.12149 0.33813 0.03662 0.0
H1123 H 0.11229 0.34661 0.07368 0.0
H1124 H 0.15028 0.30803 0.01712 0.0
H1125 H 0.17401 0.39384 0.00311 0.0
H1126 H 0.18784 0.37949 0.02399 0.0
H1127 H 0.15962 0.38558 0.02678 0.0
C1128 C 0.16683 0.35401 0.07641 0.0
C1129 C 0.14519 0.35357 0.08311 0.0
C1130 C 0.17213 0.34898 0.05528 0.0
C1131 C 0.1558 0.34363 0.04065 0.0
C1132 C 0.13432 0.34222 0.04768 0.0
H1133 H 0.11148 0.34021 0.91694 0.0
H1134 H 0.12131 0.33245 0.95395 0.0
C1135 C 0.12906 0.34717 0.06874 0.0
C1136 C 0.16041 0.34133 0.01762 0.0
H1137 H 0.17079 0.37154 0.97327 0.0
C1138 C 0.1552 0.32177 0.00752 0.0
C1139 C 0.16696 0.35926 0.00519 0.0
C1140 C 0.17233 0.3808 0.01519 0.0
C1141 C 0.15519 0.32003 0.98519 0.0
C1142 C 0.16018 0.33842 0.97276 0.0
C1143 C 0.16695 0.35747 0.98288 0.0
C1144 C 0.15533 0.33946 0.94967 0.0
C1145 C 0.14907 0.29876 0.97512 0.0
C1146 C 0.17119 0.346 0.93498 0.0
C1147 C 0.16551 0.35059 0.91386 0.0
C1148 C 0.1439 0.34894 0.9073 0.0
C1149 C 0.12824 0.34159 0.92174 0.0
C1150 C 0.1339 0.33693 0.94278 0.0
H1151 H 0.1534 0.285 0.98567 0.0
H1152 H 0.13133 0.29833 0.97263 0.0
H1153 H 0.15713 0.29655 0.95942 0.0
H1154 H 0.18775 0.34831 0.94008 0.0
H1155 H 0.17778 0.3564 0.90293 0.0
H1156 H 0.61692 0.16314 0.91694 0.0
H1157 H 0.62553 0.17183 0.95405 0.0
H1158 H 0.69092 0.14966 0.94435 0.0
H1159 H 0.6821 0.14063 0.90712 0.0
H1160 H 0.67082 0.12937 0.9771 0.0
H1161 H 0.65934 0.21728 0.98635 0.0
H1162 H 0.63679 0.20521 0.9729 0.0
H1163 H 0.6631 0.20467 0.96059 0.0
C1164 C 0.63326 0.16069 0.92265 0.0
C1165 C 0.64888 0.15126 0.90939 0.0
C1166 C 0.63825 0.16583 0.94375 0.0
C1167 C 0.65898 0.16172 0.95189 0.0
C1168 C 0.67491 0.1532 0.9383 0.0
H1169 H 0.67893 0.14584 0.09049 0.0
H1170 H 0.68899 0.15399 0.05336 0.0
C1171 C 0.66991 0.14809 0.91711 0.0
C1172 C 0.66269 0.16314 0.9752 0.0
H1173 H 0.65338 0.19556 0.01832 0.0
C1174 C 0.66766 0.14399 0.98613 0.0
C1175 C 0.65851 0.18222 0.98692 0.0
C1176 C 0.65436 0.20355 0.97603 0.0
C1177 C 0.66684 0.14297 0.00847 0.0
C1178 C 0.66123 0.16171 0.02013 0.0
C1179 C 0.65762 0.18121 0.00929 0.0
C1180 C 0.65622 0.1605 0.04317 0.0
C1181 C 0.67039 0.12148 0.01934 0.0
C1182 C 0.63465 0.16235 0.04979 0.0
C1183 C 0.62895 0.15777 0.07084 0.0
C1184 C 0.64475 0.15137 0.08558 0.0
C1185 C 0.66652 0.15079 0.07932 0.0
C1186 C 0.67224 0.15534 0.05819 0.0
H1187 H 0.67178 0.10796 0.00774 0.0
H1188 H 0.68551 0.12213 0.02882 0.0
H1189 H 0.65688 0.11791 0.03046 0.0
H1190 H 0.62208 0.1663 0.0384 0.0
H1191 H 0.61208 0.15845 0.07544 0.0
H1192 H 0.8555 0.68282 0.90474 0.0
H1193 H 0.84624 0.69377 0.94138 0.0
H1194 H 0.83395 0.62714 0.95762 0.0
H1195 H 0.84268 0.61632 0.92106 0.0
H1196 H 0.80434 0.65708 0.97643 0.0
H1197 H 0.89066 0.68011 0.98848 0.0
H1198 H 0.8761 0.69325 0.96732 0.0
H1199 H 0.88196 0.6649 0.96548 0.0
C1200 C 0.8503 0.67067 0.91608 0.0
C1201 C 0.84993 0.64875 0.91032 0.0
C1202 C 0.84517 0.67689 0.93696 0.0
C1203 C 0.83971 0.66121 0.95224 0.0
C1204 C 0.83812 0.63948 0.94606 0.0
H1205 H 0.83826 0.6183 0.07565 0.0
H1206 H 0.82948 0.62845 0.03897 0.0
C1207 C 0.84321 0.6333 0.92527 0.0
C1208 C 0.83777 0.66667 0.97514 0.0
H1209 H 0.86896 0.67732 0.01876 0.0
C1210 C 0.81831 0.662 0.98569 0.0
C1211 C 0.856 0.67322 0.98714 0.0
C1212 C 0.87744 0.67808 0.97666 0.0
C1213 C 0.817 0.66238 0.00805 0.0
C1214 C 0.83571 0.66721 0.02006 0.0
C1215 C 0.85465 0.67359 0.00948 0.0
C1216 C 0.83723 0.66232 0.04314 0.0
C1217 C 0.79584 0.65675 0.0186 0.0
C1218 C 0.84449 0.67799 0.0577 0.0
C1219 C 0.84963 0.67213 0.07867 0.0
C1220 C 0.84783 0.65051 0.08517 0.0
C1221 C 0.83972 0.63507 0.0709 0.0
C1222 C 0.8345 0.64092 0.05005 0.0
H1223 H 0.78195 0.66135 0.00833 0.0
H1224 H 0.79507 0.63902 0.02114 0.0
H1225 H 0.79415 0.66489 0.03432 0.0
H1226 H 0.84697 0.69453 0.0526 0.0
H1227 H 0.85602 0.68423 0.08947 0.0
H1228 H 0.34604 0.8888 0.92444 0.0
H1229 H 0.33744 0.87924 0.9614 0.0
H1230 H 0.34644 0.81177 0.94652 0.0
H1231 H 0.35551 0.8214 0.90949 0.0
H1232 H 0.30625 0.85031 0.98071 0.0
H1233 H 0.39189 0.82519 0.99329 0.0
H1234 H 0.38366 0.84051 0.97018 0.0
H1235 H 0.37708 0.81234 0.9721 0.0
C1236 C 0.34598 0.87194 0.92907 0.0
C1237 C 0.3517 0.85583 0.91437 0.0
C1238 C 0.34093 0.86648 0.95007 0.0
C1239 C 0.34155 0.84484 0.95669 0.0
C1240 C 0.3461 0.82858 0.94172 0.0
H1241 H 0.35699 0.82062 0.09362 0.0
H1242 H 0.34814 0.81124 0.05648 0.0
C1243 C 0.35116 0.83406 0.92064 0.0
C1244 C 0.33943 0.8399 0.97967 0.0
H1245 H 0.37006 0.82848 0.02347 0.0
C1246 C 0.32004 0.8451 0.99008 0.0
C1247 C 0.35743 0.83295 0.99178 0.0
C1248 C 0.37877 0.82751 0.9814 0.0
C1249 C 0.31853 0.84466 0.01242 0.0
C1250 C 0.33702 0.83931 0.02458 0.0
C1251 C 0.35591 0.8326 0.0141 0.0
C1252 C 0.33835 0.84365 0.04778 0.0
C1253 C 0.29736 0.8506 0.0228 0.0
C1254 C 0.33548 0.86486 0.05523 0.0
C1255 C 0.3405 0.87016 0.07628 0.0
C1256 C 0.34862 0.85439 0.09017 0.0
C1257 C 0.35059 0.83296 0.08311 0.0
C1258 C 0.34557 0.82764 0.06198 0.0
H1259 H 0.2835 0.84619 0.0124 0.0
H1260 H 0.29538 0.8425 0.0385 0.0
H1261 H 0.29681 0.86834 0.0253 0.0
H1262 H 0.33052 0.87761 0.04445 0.0
H1263 H 0.33891 0.88678 0.08148 0.0
H1264 H 0.1133 0.66147 0.41794 0.0
H1265 H 0.12311 0.67052 0.45464 0.0
H1266 H 0.1894 0.65329 0.44158 0.0
H1267 H 0.17936 0.64373 0.4048 0.0
H1268 H 0.17322 0.63167 0.47501 0.0
H1269 H 0.15443 0.71798 0.48589 0.0
H1270 H 0.13216 0.7044 0.47348 0.0
H1271 H 0.15774 0.70598 0.45978 0.0
C1272 C 0.13004 0.66012 0.42283 0.0
C1273 C 0.1456 0.65189 0.40876 0.0
C1274 C 0.1357 0.66552 0.44369 0.0
C1275 C 0.15708 0.66295 0.45077 0.0
C1276 C 0.17288 0.65565 0.43636 0.0
H1277 H 0.17958 0.64632 0.58908 0.0
H1278 H 0.18942 0.65586 0.55222 0.0
C1279 C 0.16718 0.65023 0.41543 0.0
C1280 C 0.16181 0.66452 0.47389 0.0
H1281 H 0.15053 0.69523 0.51773 0.0
C1282 C 0.16895 0.6458 0.48436 0.0
C1283 C 0.15628 0.68298 0.48603 0.0
C1284 C 0.14995 0.70402 0.47564 0.0
C1285 C 0.16874 0.64434 0.50669 0.0
C1286 C 0.16148 0.66222 0.51878 0.0
C1287 C 0.15597 0.68152 0.50837 0.0
C1288 C 0.15637 0.65995 0.5417 0.0
C1289 C 0.17461 0.62312 0.51709 0.0
C1290 C 0.13464 0.65997 0.54807 0.0
C1291 C 0.12905 0.65463 0.56896 0.0
C1292 C 0.14512 0.64921 0.58381 0.0
C1293 C 0.16695 0.6504 0.57781 0.0
C1294 C 0.17256 0.65574 0.55683 0.0
H1295 H 0.1774 0.61008 0.50521 0.0
H1296 H 0.1896 0.62518 0.52657 0.0
H1297 H 0.16158 0.61789 0.52814 0.0
H1298 H 0.12193 0.6632 0.53661 0.0
H1299 H 0.11213 0.65414 0.57338 0.0
H1300 H 0.32116 0.14684 0.40926 0.0
H1301 H 0.31104 0.15612 0.44611 0.0
H1302 H 0.37812 0.16766 0.46106 0.0
H1303 H 0.38814 0.15863 0.42436 0.0
H1304 H 0.3263 0.1321 0.48004 0.0
H1305 H 0.34813 0.2178 0.49137 0.0
H1306 H 0.34385 0.20606 0.46528 0.0
H1307 H 0.36945 0.20302 0.4786 0.0
C1308 C 0.33359 0.15192 0.42036 0.0
C1309 C 0.3554 0.15195 0.41421 0.0
C1310 C 0.32782 0.15721 0.44131 0.0
C1311 C 0.34379 0.16289 0.4562 0.0
C1312 C 0.36548 0.16384 0.44971 0.0
H1313 H 0.38647 0.15544 0.57939 0.0
H1314 H 0.37693 0.16491 0.5427 0.0
C1315 C 0.37123 0.15844 0.42886 0.0
C1316 C 0.33859 0.16461 0.47918 0.0
H1317 H 0.34954 0.19516 0.52317 0.0
C1318 C 0.33073 0.1461 0.4895 0.0
C1319 C 0.34434 0.18292 0.49138 0.0
C1320 C 0.3517 0.20365 0.48104 0.0
C1321 C 0.33046 0.14464 0.51183 0.0
C1322 C 0.33781 0.1624 0.52408 0.0
C1323 C 0.34399 0.18155 0.51373 0.0
C1324 C 0.34256 0.16007 0.5471 0.0
C1325 C 0.32406 0.12347 0.52203 0.0
C1326 C 0.32631 0.15492 0.56191 0.0
C1327 C 0.33181 0.14925 0.58284 0.0
C1328 C 0.35357 0.14887 0.58916 0.0
C1329 C 0.36961 0.15541 0.57473 0.0
C1330 C 0.36415 0.16095 0.55387 0.0
H1331 H 0.32187 0.11038 0.51008 0.0
H1332 H 0.33647 0.11824 0.53374 0.0
H1333 H 0.30856 0.12557 0.53069 0.0
H1334 H 0.30953 0.15447 0.55707 0.0
H1335 H 0.31921 0.14425 0.59379 0.0
H1336 H 0.85497 0.31857 0.40382 0.0
H1337 H 0.8451 0.30848 0.44054 0.0
H1338 H 0.82843 0.37487 0.45376 0.0
H1339 H 0.83798 0.38478 0.4172 0.0
H1340 H 0.86686 0.32525 0.47448 0.0
H1341 H 0.7801 0.343 0.48405 0.0
H1342 H 0.79251 0.33934 0.45817 0.0
H1343 H 0.79379 0.36513 0.47147 0.0
C1344 C 0.84858 0.33078 0.41448 0.0
C1345 C 0.84724 0.35241 0.40792 0.0
C1346 C 0.84296 0.32505 0.43537 0.0
C1347 C 0.83571 0.34086 0.44978 0.0
C1348 C 0.83343 0.36229 0.44279 0.0
H1349 H 0.84062 0.38616 0.57245 0.0
H1350 H 0.83201 0.37588 0.53571 0.0
C1351 C 0.8391 0.368 0.42201 0.0
C1352 C 0.83384 0.33606 0.47285 0.0
H1353 H 0.80221 0.34677 0.51619 0.0
C1354 C 0.85252 0.32927 0.48362 0.0
C1355 C 0.81511 0.34129 0.48469 0.0
C1356 C 0.79419 0.34738 0.47393 0.0
C1357 C 0.85364 0.32958 0.50597 0.0
C1358 C 0.83542 0.33647 0.5178 0.0
C1359 C 0.81619 0.34159 0.50706 0.0
C1360 C 0.83718 0.34167 0.54077 0.0
C1361 C 0.87487 0.32426 0.51664 0.0
C1362 C 0.84225 0.32574 0.55593 0.0
C1363 C 0.84735 0.33165 0.57689 0.0
C1364 C 0.84729 0.35351 0.58288 0.0
C1365 C 0.84091 0.36923 0.56806 0.0
C1366 C 0.83589 0.36335 0.54717 0.0
H1367 H 0.8882 0.32217 0.50495 0.0
H1368 H 0.87946 0.33721 0.52804 0.0
H1369 H 0.87318 0.30899 0.52577 0.0
H1370 H 0.84308 0.30889 0.55134 0.0
H1371 H 0.85227 0.31929 0.58813 0.0
H1372 H 0.6152 0.84631 0.42261 0.0
H1373 H 0.62442 0.83675 0.45938 0.0
H1374 H 0.69209 0.84528 0.44512 0.0
H1375 H 0.68279 0.85528 0.40821 0.0
H1376 H 0.65285 0.80488 0.47834 0.0
H1377 H 0.67873 0.89004 0.49264 0.0
H1378 H 0.66352 0.88243 0.46925 0.0
H1379 H 0.69156 0.87538 0.47133 0.0
C1380 C 0.63205 0.8459 0.4273 0.0
C1381 C 0.6483 0.85176 0.41282 0.0
C1382 C 0.63731 0.84031 0.44821 0.0
C1383 C 0.6589 0.84055 0.45498 0.0
C1384 C 0.67532 0.84522 0.4402 0.0
H1385 H 0.67963 0.85414 0.59266 0.0
H1386 H 0.69011 0.84564 0.55573 0.0
C1387 C 0.67003 0.85081 0.41919 0.0
C1388 C 0.66358 0.83798 0.47798 0.0
H1389 H 0.67419 0.86794 0.52243 0.0
C1390 C 0.65799 0.8185 0.488 0.0
C1391 C 0.67043 0.85574 0.49048 0.0
C1392 C 0.67633 0.87716 0.48052 0.0
C1393 C 0.65784 0.8167 0.51033 0.0
C1394 C 0.663 0.835 0.52286 0.0
C1395 C 0.6702 0.85394 0.51279 0.0
C1396 C 0.65794 0.83612 0.54594 0.0
C1397 C 0.65144 0.79546 0.52028 0.0
C1398 C 0.6365 0.83329 0.55272 0.0
C1399 C 0.63058 0.83809 0.57366 0.0
C1400 C 0.64594 0.84599 0.58812 0.0
C1401 C 0.66758 0.84792 0.58172 0.0
C1402 C 0.67354 0.8431 0.56071 0.0
H1403 H 0.6561 0.78169 0.50986 0.0
H1404 H 0.65903 0.79326 0.5362 0.0
H1405 H 0.63362 0.79499 0.52222 0.0
H1406 H 0.62406 0.82851 0.54152 0.0
H1407 H 0.61379 0.83653 0.57834 0.0
H1408 H 0.13485 0.54577 0.32793 0.0
H1409 H 0.14413 0.51437 0.3063 0.0
H1410 H 0.1713 0.5561 0.25814 0.0
H1411 H 0.16236 0.58773 0.27989 0.0
H1412 H 0.12533 0.50959 0.26721 0.0
H1413 H 0.21459 0.50582 0.25949 0.0
H1414 H 0.20123 0.52095 0.28036 0.0
H1415 H 0.20314 0.53189 0.25385 0.0
C1416 C 0.14323 0.5483 0.31295 0.0
C1417 C 0.14764 0.56928 0.30551 0.0
C1418 C 0.1486 0.5303 0.30065 0.0
C1419 C 0.15848 0.53287 0.28066 0.0
C1420 C 0.16405 0.55371 0.27369 0.0
H1421 H 0.13831 0.45357 0.17116 0.0
H1422 H 0.14662 0.48307 0.19564 0.0
C1423 C 0.1588 0.57179 0.2861 0.0
C1424 C 0.15981 0.51418 0.26595 0.0
H1425 H 0.19409 0.48397 0.23524 0.0
C1426 C 0.14042 0.50387 0.26042 0.0
C1427 C 0.1795 0.50676 0.2571 0.0
C1428 C 0.20085 0.51678 0.26312 0.0
C1429 C 0.14007 0.48663 0.246 0.0
C1430 C 0.15961 0.47963 0.23663 0.0
C1431 C 0.17915 0.48954 0.24241 0.0
C1432 C 0.15946 0.46238 0.22036 0.0
C1433 C 0.11872 0.47612 0.24065 0.0
C1434 C 0.16483 0.44109 0.22589 0.0
C1435 C 0.16009 0.42408 0.21189 0.0
C1436 C 0.14976 0.42823 0.1923 0.0
C1437 C 0.14598 0.44979 0.18624 0.0
C1438 C 0.15082 0.4667 0.20014 0.0
H1439 H 0.10577 0.48083 0.25202 0.0
H1440 H 0.11368 0.48113 0.22438 0.0
H1441 H 0.12028 0.45825 0.24072 0.0
H1442 H 0.17143 0.43751 0.24151 0.0
H1443 H 0.16326 0.40766 0.21699 0.0
H1444 H 0.58561 0.1746 0.2057 0.0
H1445 H 0.55481 0.18546 0.22793 0.0
H1446 H 0.52095 0.12736 0.20971 0.0
H1447 H 0.55097 0.11696 0.18695 0.0
H1448 H 0.49417 0.16065 0.21023 0.0
H1449 H 0.54211 0.16022 0.28542 0.0
H1450 H 0.55094 0.17895 0.26535 0.0
H1451 H 0.55294 0.15037 0.26055 0.0
C1452 C 0.57152 0.16424 0.20637 0.0
C1453 C 0.57082 0.14484 0.19467 0.0
C1454 C 0.55399 0.17041 0.21917 0.0
C1455 C 0.5357 0.15704 0.22082 0.0
C1456 C 0.53484 0.13798 0.20871 0.0
H1457 H 0.45018 0.1205 0.31551 0.0
H1458 H 0.47983 0.13059 0.29224 0.0
C1459 C 0.5521 0.13201 0.19572 0.0
C1460 C 0.51758 0.16202 0.23559 0.0
H1461 H 0.50481 0.16509 0.28853 0.0
C1462 C 0.49647 0.16193 0.22736 0.0
C1463 C 0.52065 0.16372 0.25793 0.0
C1464 C 0.54284 0.16317 0.26793 0.0
C1465 C 0.47835 0.16182 0.24084 0.0
C1466 C 0.48143 0.16267 0.26322 0.0
C1467 C 0.5025 0.16444 0.27137 0.0
C1468 C 0.46355 0.15823 0.27845 0.0
C1469 C 0.45623 0.15916 0.23101 0.0
C1470 C 0.44454 0.17065 0.27882 0.0
C1471 C 0.4272 0.16464 0.29197 0.0
C1472 C 0.42882 0.14636 0.30523 0.0
C1473 C 0.44829 0.13465 0.3055 0.0
C1474 C 0.46536 0.14045 0.29221 0.0
H1475 H 0.45712 0.15457 0.21388 0.0
H1476 H 0.4468 0.14662 0.2396 0.0
H1477 H 0.44732 0.17467 0.23214 0.0
H1478 H 0.44296 0.18477 0.26873 0.0
H1479 H 0.41252 0.17414 0.29157 0.0
H1480 H 0.86479 0.45421 0.32568 0.0
H1481 H 0.85634 0.48536 0.3034 0.0
H1482 H 0.82972 0.44319 0.25531 0.0
H1483 H 0.83781 0.4118 0.27773 0.0
H1484 H 0.87581 0.48951 0.26443 0.0
H1485 H 0.78664 0.49376 0.25573 0.0
H1486 H 0.79966 0.47881 0.27691 0.0
H1487 H 0.79812 0.46761 0.25049 0.0
C1488 C 0.85672 0.45153 0.31056 0.0
C1489 C 0.85221 0.43049 0.30336 0.0
C1490 C 0.85184 0.46938 0.29788 0.0
C1491 C 0.84234 0.46661 0.27775 0.0
C1492 C 0.8367 0.44573 0.27097 0.0
H1493 H 0.86469 0.54858 0.16969 0.0
H1494 H 0.85703 0.51814 0.19325 0.0
C1495 C 0.84146 0.42779 0.28375 0.0
C1496 C 0.84132 0.48515 0.26284 0.0
H1497 H 0.8075 0.51579 0.23209 0.0
C1498 C 0.86084 0.49533 0.2575 0.0
C1499 C 0.82177 0.49272 0.25385 0.0
C1500 C 0.8003 0.48281 0.25964 0.0
C1501 C 0.86142 0.51269 0.24322 0.0
C1502 C 0.842 0.51989 0.23375 0.0
C1503 C 0.82236 0.51004 0.23929 0.0
C1504 C 0.84228 0.53758 0.21794 0.0
C1505 C 0.88287 0.52322 0.2383 0.0
C1506 C 0.83563 0.55844 0.22371 0.0
C1507 C 0.83998 0.57598 0.21025 0.0
C1508 C 0.85114 0.57282 0.19092 0.0
C1509 C 0.85633 0.55163 0.18459 0.0
C1510 C 0.8519 0.53418 0.19797 0.0
H1511 H 0.89555 0.51858 0.24999 0.0
H1512 H 0.88831 0.51814 0.22219 0.0
H1513 H 0.8813 0.5411 0.23827 0.0
H1514 H 0.82822 0.56132 0.23912 0.0
H1515 H 0.83571 0.59207 0.21557 0.0
H1516 H 0.54865 0.86844 0.32987 0.0
H1517 H 0.51701 0.8598 0.30835 0.0
H1518 H 0.558 0.83122 0.26034 0.0
H1519 H 0.58986 0.8394 0.28209 0.0
H1520 H 0.51179 0.87805 0.26955 0.0
H1521 H 0.5074 0.78882 0.26215 0.0
H1522 H 0.52321 0.80213 0.28253 0.0
H1523 H 0.53339 0.8 0.25573 0.0
C1524 C 0.55095 0.8599 0.31494 0.0
C1525 C 0.5718 0.85482 0.30757 0.0
C1526 C 0.53282 0.85492 0.30269 0.0
C1527 C 0.53511 0.8448 0.28278 0.0
C1528 C 0.5558 0.83867 0.27583 0.0
H1529 H 0.45235 0.86594 0.17541 0.0
H1530 H 0.4828 0.85842 0.19898 0.0
C1531 C 0.57402 0.84348 0.28822 0.0
C1532 C 0.51626 0.84355 0.26823 0.0
H1533 H 0.48529 0.80935 0.23818 0.0
C1534 C 0.50591 0.86298 0.26287 0.0
C1535 C 0.50858 0.82388 0.25954 0.0
C1536 C 0.51858 0.80248 0.26541 0.0
C1537 C 0.48834 0.86337 0.24883 0.0
C1538 C 0.48109 0.84384 0.23961 0.0
C1539 C 0.49107 0.82429 0.2452 0.0
C1540 C 0.46335 0.84396 0.22383 0.0
C1541 C 0.47767 0.88473 0.24388 0.0
C1542 C 0.44248 0.8374 0.22967 0.0
C1543 C 0.42493 0.84166 0.21619 0.0
C1544 C 0.42809 0.85266 0.19678 0.0
C1545 C 0.44929 0.85771 0.19037 0.0
C1546 C 0.46675 0.85336 0.20377 0.0
H1547 H 0.48233 0.8975 0.25546 0.0
H1548 H 0.48262 0.8901 0.22769 0.0
H1549 H 0.4598 0.88308 0.24398 0.0
H1550 H 0.4396 0.83014 0.24515 0.0
H1551 H 0.40882 0.83749 0.22155 0.0
H1552 H 0.88611 0.55032 0.81375 0.0
H1553 H 0.87706 0.52017 0.79053 0.0
H1554 H 0.82042 0.55415 0.76852 0.0
H1555 H 0.8299 0.58499 0.79124 0.0
H1556 H 0.84357 0.49341 0.78727 0.0
H1557 H 0.85055 0.54224 0.713 0.0
H1558 H 0.85852 0.55259 0.73871 0.0
H1559 H 0.8304 0.55123 0.7316 0.0
C1560 C 0.87164 0.55141 0.8041 0.0
C1561 C 0.85887 0.57019 0.80416 0.0
C1562 C 0.86645 0.53409 0.79084 0.0
C1563 C 0.84828 0.53503 0.77747 0.0
C1564 C 0.83483 0.5533 0.77827 0.0
H1565 H 0.82919 0.41414 0.70405 0.0
H1566 H 0.82007 0.44477 0.7272 0.0
C1567 C 0.8402 0.57084 0.79135 0.0
C1568 C 0.84437 0.51714 0.76218 0.0
H1569 H 0.84443 0.50515 0.70899 0.0
C1570 C 0.84349 0.49595 0.77014 0.0
C1571 C 0.84434 0.52054 0.73983 0.0
C1572 C 0.84617 0.54283 0.73019 0.0
C1573 C 0.8439 0.47801 0.75642 0.0
C1574 C 0.84443 0.48141 0.73408 0.0
C1575 C 0.84398 0.50262 0.72612 0.0
C1576 C 0.84839 0.4635 0.71883 0.0
C1577 C 0.84521 0.45569 0.76607 0.0
C1578 C 0.86678 0.46426 0.70574 0.0
C1579 C 0.87177 0.44707 0.69226 0.0
C1580 C 0.85858 0.42859 0.69167 0.0
C1581 C 0.8398 0.42806 0.70432 0.0
C1582 C 0.83463 0.44548 0.71765 0.0
H1583 H 0.84924 0.45621 0.78335 0.0
H1584 H 0.82936 0.44752 0.76434 0.0
H1585 H 0.85759 0.44577 0.75779 0.0
H1586 H 0.87764 0.47798 0.70636 0.0
H1587 H 0.88636 0.44805 0.68274 0.0
H1588 H 0.58467 0.8241 0.70773 0.0
H1589 H 0.55382 0.81284 0.72961 0.0
H1590 H 0.51783 0.8683 0.70777 0.0
H1591 H 0.548 0.87911 0.68543 0.0
H1592 H 0.53685 0.83238 0.76204 0.0
H1593 H 0.47215 0.82373 0.70265 0.0
H1594 H 0.5002 0.82567 0.69497 0.0
H1595 H 0.48431 0.84974 0.69932 0.0
C1596 C 0.57002 0.83366 0.70733 0.0
C1597 C 0.56878 0.85247 0.69478 0.0
C1598 C 0.5524 0.82719 0.71982 0.0
C1599 C 0.53328 0.83943 0.72 0.0
C1600 C 0.53204 0.85811 0.70735 0.0
H1601 H 0.45199 0.87855 0.81704 0.0
H1602 H 0.48148 0.86694 0.79429 0.0
C1603 C 0.54947 0.86442 0.69471 0.0
C1604 C 0.5154 0.83426 0.73496 0.0
H1605 H 0.46042 0.83513 0.73843 0.0
C1606 C 0.52014 0.83242 0.7568 0.0
C1607 C 0.49357 0.83358 0.72824 0.0
C1608 C 0.48733 0.83302 0.70497 0.0
C1609 C 0.50365 0.83199 0.77216 0.0
C1610 C 0.4819 0.83424 0.76553 0.0
C1611 C 0.47709 0.83395 0.74362 0.0
C1612 C 0.46435 0.83965 0.78078 0.0
C1613 C 0.50981 0.82975 0.79536 0.0
C1614 C 0.44454 0.82855 0.78045 0.0
C1615 C 0.42731 0.83549 0.79323 0.0
C1616 C 0.42962 0.85366 0.80655 0.0
C1617 C 0.44964 0.86438 0.80715 0.0
C1618 C 0.46668 0.8576 0.79427 0.0
H1619 H 0.52443 0.81949 0.79712 0.0
H1620 H 0.51377 0.84593 0.80193 0.0
H1621 H 0.49653 0.82259 0.80495 0.0
H1622 H 0.44228 0.81478 0.77 0.0
H1623 H 0.41209 0.82688 0.79238 0.0
H1624 H 0.11623 0.44848 0.80948 0.0
H1625 H 0.12711 0.47872 0.78723 0.0
H1626 H 0.18411 0.44385 0.76755 0.0
H1627 H 0.1728 0.41288 0.7893 0.0
H1628 H 0.16132 0.50482 0.786 0.0
H1629 H 0.15701 0.457 0.71079 0.0
H1630 H 0.14759 0.44645 0.73593 0.0
H1631 H 0.17606 0.4477 0.73035 0.0
C1632 C 0.13117 0.44719 0.80055 0.0
C1633 C 0.14351 0.42813 0.80096 0.0
C1634 C 0.13741 0.46458 0.78786 0.0
C1635 C 0.15624 0.46345 0.77542 0.0
C1636 C 0.16923 0.44488 0.77659 0.0
H1637 H 0.17289 0.58604 0.70394 0.0
H1638 H 0.18391 0.5554 0.72628 0.0
C1639 C 0.16281 0.42725 0.78912 0.0
C1640 C 0.16116 0.48146 0.76056 0.0
H1641 H 0.16206 0.49423 0.70756 0.0
C1642 C 0.16184 0.50254 0.76884 0.0
C1643 C 0.16183 0.47838 0.73817 0.0
C1644 C 0.16044 0.45621 0.72819 0.0
C1645 C 0.16147 0.52067 0.75539 0.0
C1646 C 0.1612 0.51758 0.733 0.0
C1647 C 0.16225 0.49651 0.72473 0.0
C1648 C 0.15635 0.53552 0.71803 0.0
C1649 C 0.1597 0.54283 0.76533 0.0
C1650 C 0.13778 0.53415 0.70527 0.0
C1651 C 0.13171 0.55135 0.69226 0.0
C1652 C 0.14397 0.57046 0.69183 0.0
C1653 C 0.16298 0.57162 0.7041 0.0
C1654 C 0.16923 0.55418 0.71696 0.0
H1655 H 0.15601 0.54202 0.78267 0.0
H1656 H 0.17526 0.5515 0.76338 0.0
H1657 H 0.14687 0.55245 0.75739 0.0
H1658 H 0.12756 0.51994 0.70582 0.0
H1659 H 0.11698 0.54986 0.68303 0.0
H1660 H 0.41511 0.17021 0.70741 0.0
H1661 H 0.44638 0.18206 0.72838 0.0
H1662 H 0.48265 0.1271 0.7057 0.0
H1663 H 0.45203 0.11571 0.68425 0.0
H1664 H 0.46452 0.16288 0.76036 0.0
H1665 H 0.52747 0.17236 0.69925 0.0
H1666 H 0.49926 0.16996 0.69232 0.0
H1667 H 0.51563 0.14615 0.6963 0.0
C1668 C 0.4299 0.16088 0.70664 0.0
C1669 C 0.4311 0.14205 0.69411 0.0
C1670 C 0.44776 0.16769 0.7186 0.0
C1671 C 0.46708 0.15576 0.71827 0.0
C1672 C 0.46826 0.13706 0.70565 0.0
H1673 H 0.55149 0.11847 0.81349 0.0
H1674 H 0.52134 0.12918 0.79112 0.0
C1675 C 0.45059 0.13041 0.69353 0.0
C1676 C 0.48527 0.16125 0.73273 0.0
H1677 H 0.54033 0.16122 0.73474 0.0
C1678 C 0.48108 0.16308 0.75468 0.0
C1679 C 0.5069 0.16224 0.72542 0.0
C1680 C 0.5125 0.16284 0.70199 0.0
C1681 C 0.49796 0.16378 0.76959 0.0
C1682 C 0.51956 0.16184 0.76238 0.0
C1683 C 0.52378 0.16215 0.74036 0.0
C1684 C 0.53758 0.1568 0.7772 0.0
C1685 C 0.4924 0.16599 0.79294 0.0
C1686 C 0.5571 0.16836 0.77644 0.0
C1687 C 0.5747 0.16195 0.78899 0.0
C1688 C 0.57302 0.14387 0.80251 0.0
C1689 C 0.55332 0.1326 0.80345 0.0
C1690 C 0.53592 0.13886 0.79079 0.0
H1691 H 0.47762 0.17596 0.79508 0.0
H1692 H 0.48896 0.14976 0.79966 0.0
H1693 H 0.50579 0.17346 0.80214 0.0
H1694 H 0.55884 0.18212 0.76589 0.0
H1695 H 0.58966 0.17097 0.7879 0.0
H1696 H 0.66564 0.08828 0.77945 0.0
H1697 H 0.67286 0.05707 0.7564 0.0
H1698 H 0.6435 0.01496 0.80288 0.0
H1699 H 0.63615 0.04586 0.82595 0.0
H1700 H 0.69299 0.01123 0.76422 0.0
H1701 H 0.60506 0.01517 0.74597 0.0
H1702 H 0.61964 0.03766 0.75733 0.0
H1703 H 0.61225 0.0151 0.77379 0.0
C1704 C 0.66123 0.07232 0.78502 0.0
C1705 C 0.65 0.06961 0.80438 0.0
C1706 C 0.66541 0.05452 0.77185 0.0
C1707 C 0.65852 0.03383 0.77792 0.0
C1708 C 0.64884 0.03086 0.79792 0.0
H1709 H 0.66121 0.90727 0.71905 0.0
H1710 H 0.66977 0.93865 0.74137 0.0
C1711 C 0.64458 0.04858 0.81103 0.0
C1712 C 0.65858 0.01589 0.76235 0.0
H1713 H 0.62441 0.9857 0.73187 0.0
C1714 C 0.67807 0.00564 0.75702 0.0
C1715 C 0.63908 0.00887 0.7529 0.0
C1716 C 0.61779 0.01981 0.75759 0.0
C1717 C 0.67845 0.98814 0.74266 0.0
C1718 C 0.65882 0.98079 0.73364 0.0
C1719 C 0.63944 0.99134 0.7388 0.0
C1720 C 0.65757 0.96217 0.71881 0.0
C1721 C 0.69977 0.97782 0.73707 0.0
C1722 C 0.64817 0.965 0.69864 0.0
C1723 C 0.643 0.94716 0.68603 0.0
C1724 C 0.64715 0.92608 0.69334 0.0
C1725 C 0.65784 0.92331 0.71297 0.0
C1726 C 0.66287 0.94123 0.72569 0.0
H1727 H 0.7136 0.98856 0.74097 0.0
H1728 H 0.70164 0.96266 0.74635 0.0
H1729 H 0.70045 0.97366 0.71983 0.0
H1730 H 0.64393 0.98101 0.69304 0.0
H1731 H 0.63498 0.9499 0.6709 0.0
H1732 H 0.91107 0.66518 0.78147 0.0
H1733 H 0.94143 0.6734 0.75768 0.0
H1734 H 0.98521 0.64243 0.80153 0.0
H1735 H 0.95517 0.63411 0.82537 0.0
H1736 H 0.989 0.69304 0.7664 0.0
H1737 H 0.98126 0.607 0.74144 0.0
H1738 H 0.95928 0.62167 0.75366 0.0
H1739 H 0.98144 0.6124 0.76968 0.0
C1740 C 0.92722 0.6606 0.78633 0.0
C1741 C 0.93063 0.64869 0.80518 0.0
C1742 C 0.94453 0.66537 0.77274 0.0
C1743 C 0.96544 0.6584 0.77788 0.0
C1744 C 0.96913 0.64791 0.79735 0.0
H1745 H 0.09073 0.66132 0.71755 0.0
H1746 H 0.05972 0.66966 0.74039 0.0
C1747 C 0.9519 0.6431 0.81089 0.0
C1748 C 0.98282 0.65915 0.76175 0.0
H1749 H 0.01081 0.62648 0.72782 0.0
C1750 C 0.99377 0.67859 0.75781 0.0
C1751 C 0.98874 0.64027 0.75052 0.0
C1752 C 0.97704 0.61912 0.75384 0.0
C1753 C 0.01093 0.67949 0.74308 0.0
C1754 C 0.01725 0.6604 0.7323 0.0
C1755 C 0.00594 0.64112 0.73606 0.0
C1756 C 0.03574 0.65955 0.71728 0.0
C1757 C 0.022 0.70079 0.73905 0.0
C1758 C 0.03257 0.65142 0.69662 0.0
C1759 C 0.05021 0.64633 0.68371 0.0
C1760 C 0.07142 0.64936 0.69118 0.0
C1761 C 0.07459 0.6589 0.71132 0.0
C1762 C 0.05686 0.66379 0.72435 0.0
H1763 H 0.01164 0.71465 0.74379 0.0
H1764 H 0.03707 0.70154 0.74862 0.0
H1765 H 0.0264 0.70256 0.72195 0.0
H1766 H 0.01642 0.64802 0.69084 0.0
H1767 H 0.04722 0.6392 0.66819 0.0
H1768 H 0.37814 0.04593 0.6845 0.0
H1769 H 0.3663 0.0161 0.70667 0.0
H1770 H 0.31319 0.05453 0.73014 0.0
H1771 H 0.32556 0.08506 0.7084 0.0
H1772 H 0.3323 0.03641 0.76192 0.0
H1773 H 0.31999 0.97235 0.70261 0.0
H1774 H 0.34642 0.98334 0.6986 0.0
H1775 H 0.32296 0.0003 0.6949 0.0
C1776 C 0.36372 0.04804 0.69408 0.0
C1777 C 0.35283 0.06796 0.69468 0.0
C1778 C 0.3568 0.03079 0.70663 0.0
C1779 C 0.3385 0.03279 0.71972 0.0
C1780 C 0.32723 0.05251 0.72001 0.0
H1781 H 0.32573 0.91159 0.79215 0.0
H1782 H 0.31337 0.94188 0.77004 0.0
C1783 C 0.33434 0.06996 0.70761 0.0
C1784 C 0.33294 0.01503 0.73472 0.0
H1785 H 0.33256 0.96002 0.73797 0.0
C1786 C 0.33177 0.01973 0.75662 0.0
C1787 C 0.33145 0.99324 0.72795 0.0
C1788 C 0.33 0.9871 0.70469 0.0
C1789 C 0.33137 0.00319 0.77192 0.0
C1790 C 0.33301 0.98141 0.76516 0.0
C1791 C 0.33191 0.9767 0.74326 0.0
C1792 C 0.33869 0.96373 0.78019 0.0
C1793 C 0.32986 0.00932 0.79518 0.0
C1794 C 0.35703 0.96588 0.79319 0.0
C1795 C 0.36396 0.94878 0.80593 0.0
C1796 C 0.35302 0.92888 0.80564 0.0
C1797 C 0.33453 0.92671 0.79274 0.0
C1798 C 0.32743 0.94401 0.78012 0.0
H1799 H 0.31981 0.02404 0.79726 0.0
H1800 H 0.32284 0.9961 0.80495 0.0
H1801 H 0.34626 0.01312 0.8013 0.0
H1802 H 0.36651 0.98058 0.79298 0.0
H1803 H 0.37838 0.95102 0.81547 0.0
H1804 H 0.95232 0.3568 0.6613 0.0
H1805 H 0.98396 0.34724 0.68249 0.0
H1806 H 0.94259 0.32917 0.73499 0.0
H1807 H 0.91077 0.33808 0.71357 0.0
H1808 H 0.99315 0.36949 0.71737 0.0
H1809 H 0.98837 0.28286 0.7389 0.0
H1810 H 0.97255 0.29448 0.71755 0.0
H1811 H 0.9639 0.2972 0.74486 0.0
C1812 C 0.94992 0.35025 0.67716 0.0
C1813 C 0.92907 0.34842 0.68587 0.0
C1814 C 0.96803 0.34474 0.68924 0.0
C1815 C 0.96569 0.33742 0.71032 0.0
C1816 C 0.94482 0.33434 0.71862 0.0
H1817 H 0.0452 0.3646 0.81718 0.0
H1818 H 0.01604 0.35556 0.79255 0.0
C1819 C 0.92663 0.33959 0.70641 0.0
C1820 C 0.98488 0.33642 0.72446 0.0
H1821 H 0.01179 0.30499 0.76065 0.0
C1822 C 0.99739 0.35523 0.72652 0.0
C1823 C 0.99042 0.31785 0.73648 0.0
C1824 C 0.97822 0.29689 0.7342 0.0
C1825 C 0.01483 0.35622 0.7407 0.0
C1826 C 0.01978 0.33801 0.75334 0.0
C1827 C 0.00778 0.31894 0.75096 0.0
C1828 C 0.03673 0.33936 0.76983 0.0
C1829 C 0.02759 0.37693 0.74251 0.0
C1830 C 0.05788 0.33261 0.7654 0.0
C1831 C 0.0747 0.33779 0.77945 0.0
C1832 C 0.07053 0.34994 0.798 0.0
C1833 C 0.04904 0.35544 0.80294 0.0
C1834 C 0.03231 0.35019 0.78896 0.0
H1835 H 0.02357 0.38855 0.72958 0.0
H1836 H 0.02405 0.38471 0.75809 0.0
H1837 H 0.04519 0.37348 0.74195 0.0
H1838 H 0.06154 0.32434 0.75059 0.0
H1839 H 0.09105 0.33326 0.77521 0.0
H1840 H 0.38225 0.95012 0.18993 0.0
H1841 H 0.37149 0.98001 0.21272 0.0
H1842 H 0.31361 0.94561 0.23064 0.0
H1843 H 0.32482 0.91497 0.20839 0.0
H1844 H 0.33792 0.00653 0.21358 0.0
H1845 H 0.33905 0.95767 0.2882 0.0
H1846 H 0.34891 0.94724 0.26318 0.0
H1847 H 0.32033 0.94897 0.26807 0.0
C1848 C 0.36716 0.94887 0.19861 0.0
C1849 C 0.35451 0.93004 0.19752 0.0
C1850 C 0.36099 0.96604 0.21162 0.0
C1851 C 0.34191 0.96495 0.22369 0.0
C1852 C 0.32867 0.9466 0.22191 0.0
H1853 H 0.32569 0.08742 0.29538 0.0
H1854 H 0.31435 0.05698 0.27291 0.0
C1855 C 0.33504 0.92916 0.2091 0.0
C1856 C 0.33685 0.98283 0.23868 0.0
H1857 H 0.33417 0.99491 0.29178 0.0
C1858 C 0.33678 0.00403 0.23069 0.0
C1859 C 0.33532 0.97947 0.26099 0.0
C1860 C 0.33605 0.95716 0.27072 0.0
C1861 C 0.33695 0.02197 0.24438 0.0
C1862 C 0.33633 0.0186 0.26673 0.0
C1863 C 0.33465 0.99743 0.27465 0.0
C1864 C 0.34097 0.03626 0.2821 0.0
C1865 C 0.33951 0.04421 0.23478 0.0
C1866 C 0.35897 0.03432 0.29557 0.0
C1867 C 0.36517 0.05139 0.30869 0.0
C1868 C 0.35365 0.07096 0.30851 0.0
C1869 C 0.33506 0.07264 0.29568 0.0
C1870 C 0.32864 0.05532 0.28273 0.0
H1871 H 0.3439 0.04353 0.2176 0.0
H1872 H 0.32402 0.05311 0.23619 0.0
H1873 H 0.35215 0.05353 0.24334 0.0
H1874 H 0.36875 0.0198 0.2954 0.0
H1875 H 0.37954 0.04947 0.31837 0.0
H1876 H 0.08554 0.32874 0.20424 0.0
H1877 H 0.05474 0.3179 0.22641 0.0
H1878 H 0.01916 0.37365 0.20465 0.0
H1879 H 0.0493 0.38412 0.18209 0.0
H1880 H 0.03793 0.33828 0.25899 0.0
H1881 H 0.9734 0.32887 0.19938 0.0
H1882 H 0.00151 0.3306 0.19186 0.0
H1883 H 0.98577 0.35479 0.19598 0.0
C1884 C 0.07099 0.33847 0.20392 0.0
C1885 C 0.06987 0.35727 0.19133 0.0
C1886 C 0.05341 0.33224 0.21658 0.0
C1887 C 0.03443 0.3447 0.21687 0.0
C1888 C 0.03329 0.36334 0.20417 0.0
H1889 H 0.95087 0.38196 0.31399 0.0
H1890 H 0.98107 0.37168 0.29142 0.0
C1891 C 0.05069 0.36944 0.1914 0.0
C1892 C 0.01654 0.33967 0.23184 0.0
H1893 H 0.96155 0.33977 0.23509 0.0
C1894 C 0.02123 0.33808 0.25372 0.0
C1895 C 0.99476 0.33874 0.22504 0.0
C1896 C 0.98863 0.33808 0.20174 0.0
C1897 C 0.00469 0.3375 0.26902 0.0
C1898 C 0.98293 0.33927 0.26228 0.0
C1899 C 0.97823 0.33891 0.24036 0.0
C1900 C 0.9651 0.34392 0.27747 0.0
C1901 C 0.01079 0.33549 0.29225 0.0
C1902 C 0.94575 0.33206 0.27686 0.0
C1903 C 0.92814 0.33822 0.28951 0.0
C1904 C 0.92962 0.35634 0.30301 0.0
C1905 C 0.9492 0.36781 0.30395 0.0
C1906 C 0.96663 0.3618 0.29116 0.0
H1907 H 0.02575 0.32575 0.29413 0.0
H1908 H 0.01412 0.3518 0.29883 0.0
H1909 H 0.9977 0.32788 0.30177 0.0
H1910 H 0.94412 0.31831 0.26628 0.0
H1911 H 0.91329 0.32903 0.28842 0.0
H1912 H 0.63152 0.95512 0.32326 0.0
H1913 H 0.63964 0.98459 0.29868 0.0
H1914 H 0.6736 0.94044 0.25739 0.0
H1915 H 0.66561 0.91063 0.28196 0.0
H1916 H 0.69176 0.98838 0.26546 0.0
H1917 H 0.60692 0.97864 0.23753 0.0
H1918 H 0.611 0.97963 0.26596 0.0
H1919 H 0.62145 0.95727 0.25091 0.0
C1920 C 0.64106 0.95166 0.30917 0.0
C1921 C 0.64763 0.93043 0.30441 0.0
C1922 C 0.64575 0.96856 0.29521 0.0
C1923 C 0.65708 0.96459 0.27625 0.0
C1924 C 0.66489 0.94376 0.27203 0.0
H1925 H 0.63882 0.04744 0.16684 0.0
H1926 H 0.64783 0.01613 0.18874 0.0
C1927 C 0.66024 0.92677 0.28605 0.0
C1928 C 0.65814 0.98158 0.25977 0.0
H1929 H 0.62607 0.00892 0.22484 0.0
C1930 C 0.67752 0.99283 0.25638 0.0
C1931 C 0.63956 0.98706 0.24788 0.0
C1932 C 0.61854 0.97498 0.25055 0.0
C1933 C 0.67857 0.00999 0.24167 0.0
C1934 C 0.6597 0.01603 0.23039 0.0
C1935 C 0.64054 0.0043 0.23347 0.0
C1936 C 0.65884 0.03487 0.2158 0.0
C1937 C 0.69981 0.02142 0.2383 0.0
C1938 C 0.66273 0.05584 0.22347 0.0
C1939 C 0.65776 0.07384 0.21087 0.0
C1940 C 0.64845 0.0711 0.19057 0.0
C1941 C 0.64576 0.05008 0.1825 0.0
C1942 C 0.65096 0.03216 0.19497 0.0
H1943 H 0.71368 0.01103 0.24293 0.0
H1944 H 0.70182 0.0264 0.22139 0.0
H1945 H 0.70027 0.03614 0.2484 0.0
H1946 H 0.66837 0.05834 0.23965 0.0
H1947 H 0.65993 0.08984 0.21755 0.0
H1948 H 0.91269 0.67346 0.20549 0.0
H1949 H 0.94359 0.68377 0.22776 0.0
H1950 H 0.98001 0.63008 0.20252 0.0
H1951 H 0.94979 0.62023 0.17985 0.0
H1952 H 0.96087 0.66205 0.25892 0.0
H1953 H 0.02511 0.67558 0.19983 0.0
H1954 H 0.99703 0.6738 0.19223 0.0
H1955 H 0.0132 0.64968 0.19498 0.0
C1956 C 0.92745 0.66412 0.20441 0.0
C1957 C 0.92878 0.64605 0.19085 0.0
C1958 C 0.94509 0.67004 0.21714 0.0
C1959 C 0.96432 0.65798 0.21651 0.0
C1960 C 0.96569 0.64012 0.20278 0.0
H1961 H 0.04812 0.61639 0.31181 0.0
H1962 H 0.01802 0.62728 0.28935 0.0
C1963 C 0.94823 0.63436 0.18993 0.0
C1964 C 0.9822 0.66239 0.23169 0.0
H1965 H 0.0372 0.6625 0.23482 0.0
C1966 C 0.97755 0.66269 0.25362 0.0
C1967 C 0.00397 0.66389 0.2249 0.0
C1968 C 0.01005 0.66599 0.20167 0.0
C1969 C 0.99412 0.66251 0.2689 0.0
C1970 C 0.01587 0.66126 0.26203 0.0
C1971 C 0.02053 0.66293 0.24015 0.0
C1972 C 0.03374 0.65592 0.27692 0.0
C1973 C 0.98805 0.66318 0.29222 0.0
C1974 C 0.05296 0.66801 0.27701 0.0
C1975 C 0.0705 0.6615 0.28956 0.0
C1976 C 0.06909 0.64281 0.30227 0.0
C1977 C 0.0497 0.63099 0.30239 0.0
C1978 C 0.03234 0.63734 0.28969 0.0
H1979 H 0.97301 0.67267 0.29466 0.0
H1980 H 0.98487 0.6465 0.29791 0.0
H1981 H 0.00109 0.67037 0.3021 0.0
H1982 H 0.05449 0.68229 0.26712 0.0
H1983 H 0.08521 0.67097 0.28912 0.0
loop_
_geom_bond_atom_site_label_1
_geom_bond_atom_site_label_2
_geom_bond_distance
_geom_bond_site_symmetry_2
_ccdc_geom_bond_type
Co0 O3 1.970 . S
Co0 N17 1.989 . S
Co0 O25 1.967 . S
Co0 O32 1.920 . S
Co1 O4 1.966 . S
Co1 N10 2.022 . S
Co1 N18 1.993 . S
Co1 O26 1.941 . S
C2 O3 1.258 . S
C2 O4 1.263 . S
O3 Co0 1.970 . S
O3 C2 1.258 . S
O4 Co1 1.966 . S
O4 C2 1.263 . S
C5 O6 1.235 . S
C5 O32 1.289 . S
O6 C5 1.235 . S
C7 C9 1.400 . S
C7 N10 1.351 . S
C7 C12 1.501 . S
C8 C9 1.387 . S
C8 N11 1.341 . S
C9 C7 1.400 . S
C9 C8 1.387 . S
N10 Co1 2.022 . S
N10 C7 1.351 . S
N10 N11 1.365 . S
N11 C8 1.341 . S
N11 N10 1.365 . S
N11 H31 0.862 . S
C12 C7 1.501 . S
C12 H13 0.961 . S
C12 H14 0.961 . S
C12 H15 0.960 . S
H13 C12 0.961 . S
H14 C12 0.961 . S
H15 C12 0.960 . S
C16 N17 1.342 . S
C16 C20 1.401 . S
C16 C21 1.499 . S
N17 Co0 1.989 . S
N17 C16 1.342 . S
N17 N18 1.388 . S
N18 Co1 1.993 . S
N18 N17 1.388 . S
N18 C19 1.346 . S
C19 N18 1.346 . S
C19 C20 1.396 . S
C19 C29 1.510 . S
C20 C16 1.401 . S
C20 C19 1.396 . S
C21 C16 1.499 . S
C21 H22 0.959 . S
C21 H23 0.960 . S
C21 H24 0.961 . S
H22 C21 0.959 . S
H23 C21 0.960 . S
H24 C21 0.961 . S
O25 Co0 1.967 . S
O25 C33 1.258 . S
O26 Co1 1.941 . S
O26 C33 1.266 . S
H27 C29 0.959 . S
H28 C29 0.961 . S
C29 C19 1.510 . S
C29 H27 0.959 . S
C29 H28 0.961 . S
C29 H30 0.960 . S
H30 C29 0.960 . S
H31 N11 0.862 . S
O32 Co0 1.920 . S
O32 C5 1.289 . S
C33 O25 1.258 . S
C33 O26 1.266 . S
Co34 O37 1.970 . S
Co34 N51 1.989 . S
Co34 O59 1.967 . S
Co34 O66 1.920 . S
Co35 O38 1.966 . S
Co35 N44 2.022 . S
Co35 N52 1.993 . S
Co35 O60 1.941 . S
C36 O37 1.258 . S
C36 O38 1.263 . S
O37 Co34 1.970 . S
O37 C36 1.258 . S
O38 Co35 1.966 . S
O38 C36 1.263 . S
C39 O40 1.235 . S
C39 O66 1.289 . S
O40 C39 1.235 . S
C41 C43 1.400 . S
C41 N44 1.351 . S
C41 C46 1.501 . S
C42 C43 1.387 . S
C42 N45 1.341 . S
C43 C41 1.400 . S
C43 C42 1.387 . S
N44 Co35 2.022 . S
N44 C41 1.351 . S
N44 N45 1.365 . S
N45 C42 1.341 . S
N45 N44 1.365 . S
N45 H65 0.862 . S
C46 C41 1.501 . S
C46 H47 0.961 . S
C46 H48 0.961 . S
C46 H49 0.960 . S
H47 C46 0.961 . S
H48 C46 0.961 . S
H49 C46 0.960 . S
C50 N51 1.342 . S
C50 C54 1.401 . S
C50 C55 1.499 . S
N51 Co34 1.989 . S
N51 C50 1.342 . S
N51 N52 1.388 . S
N52 Co35 1.993 . S
N52 N51 1.388 . S
N52 C53 1.346 . S
C53 N52 1.346 . S
C53 C54 1.396 . S
C53 C63 1.510 . S
C54 C50 1.401 . S
C54 C53 1.396 . S
C55 C50 1.499 . S
C55 H56 0.959 . S
C55 H57 0.960 . S
C55 H58 0.961 . S
H56 C55 0.959 . S
H57 C55 0.960 . S
H58 C55 0.961 . S
O59 Co34 1.967 . S
O59 C67 1.258 . S
O60 Co35 1.941 . S
O60 C67 1.266 . S
H61 C63 0.959 . S
H62 C63 0.961 . S
C63 C53 1.510 . S
C63 H61 0.959 . S
C63 H62 0.961 . S
C63 H64 0.960 . S
H64 C63 0.960 . S
H65 N45 0.862 . S
O66 Co34 1.920 . S
O66 C39 1.289 . S
C67 O59 1.258 . S
C67 O60 1.266 . S
Co68 O71 1.970 . S
Co68 N85 1.989 . S
Co68 O93 1.967 . S
Co68 O100 1.920 . S
Co69 O72 1.966 . S
Co69 N78 2.022 . S
Co69 N86 1.993 . S
Co69 O94 1.941 . S
C70 O71 1.258 . S
C70 O72 1.263 . S
O71 Co68 1.970 . S
O71 C70 1.258 . S
O72 Co69 1.966 . S
O72 C70 1.263 . S
C73 O74 1.235 . S
C73 O100 1.289 . S
O74 C73 1.235 . S
C75 C77 1.400 . S
C75 N78 1.351 . S
C75 C80 1.501 . S
C76 C77 1.387 . S
C76 N79 1.341 . S
C77 C75 1.400 . S
C77 C76 1.387 . S
N78 Co69 2.022 . S
N78 C75 1.351 . S
N78 N79 1.365 . S
N79 C76 1.341 . S
N79 N78 1.365 . S
N79 H99 0.862 . S
C80 C75 1.501 . S
C80 H81 0.961 . S
C80 H82 0.961 . S
C80 H83 0.960 . S
H81 C80 0.961 . S
H82 C80 0.961 . S
H83 C80 0.960 . S
C84 N85 1.342 . S
C84 C88 1.401 . S
C84 C89 1.499 . S
N85 Co68 1.989 . S
N85 C84 1.342 . S
N85 N86 1.388 . S
N86 Co69 1.993 . S
N86 N85 1.388 . S
N86 C87 1.346 . S
C87 N86 1.346 . S
C87 C88 1.396 . S
C87 C97 1.510 . S
C88 C84 1.401 . S
C88 C87 1.396 . S
C89 C84 1.499 . S
C89 H90 0.959 . S
C89 H91 0.960 . S
C89 H92 0.961 . S
H90 C89 0.959 . S
H91 C89 0.960 . S
H92 C89 0.961 . S
O93 Co68 1.967 . S
O93 C101 1.258 . S
O94 Co69 1.941 . S
O94 C101 1.266 . S
H95 C97 0.959 . S
H96 C97 0.961 . S
C97 C87 1.510 . S
C97 H95 0.959 . S
C97 H96 0.961 . S
C97 H98 0.960 . S
H98 C97 0.960 . S
H99 N79 0.862 . S
O100 Co68 1.920 . S
O100 C73 1.289 . S
C101 O93 1.258 . S
C101 O94 1.266 . S
Co102 O105 1.970 . S
Co102 N119 1.989 . S
Co102 O127 1.967 . S
Co102 O134 1.920 . S
Co103 O106 1.966 . S
Co103 N112 2.022 . S
Co103 N120 1.993 . S
Co103 O128 1.941 . S
C104 O105 1.258 . S
C104 O106 1.263 . S
O105 Co102 1.970 . S
O105 C104 1.258 . S
O106 Co103 1.966 . S
O106 C104 1.263 . S
C107 O108 1.235 . S
C107 O134 1.289 . S
O108 C107 1.235 . S
C109 C111 1.400 . S
C109 N112 1.351 . S
C109 C114 1.501 . S
C110 C111 1.387 . S
C110 N113 1.341 . S
C111 C109 1.400 . S
C111 C110 1.387 . S
N112 Co103 2.022 . S
N112 C109 1.351 . S
N112 N113 1.365 . S
N113 C110 1.341 . S
N113 N112 1.365 . S
N113 H133 0.862 . S
C114 C109 1.501 . S
C114 H115 0.961 . S
C114 H116 0.961 . S
C114 H117 0.960 . S
H115 C114 0.961 . S
H116 C114 0.961 . S
H117 C114 0.960 . S
C118 N119 1.342 . S
C118 C122 1.401 . S
C118 C123 1.499 . S
N119 Co102 1.989 . S
N119 C118 1.342 . S
N119 N120 1.388 . S
N120 Co103 1.993 . S
N120 N119 1.388 . S
N120 C121 1.346 . S
C121 N120 1.346 . S
C121 C122 1.396 . S
C121 C131 1.510 . S
C122 C118 1.401 . S
C122 C121 1.396 . S
C123 C118 1.499 . S
C123 H124 0.959 . S
C123 H125 0.960 . S
C123 H126 0.961 . S
H124 C123 0.959 . S
H125 C123 0.960 . S
H126 C123 0.961 . S
O127 Co102 1.967 . S
O127 C135 1.258 . S
O128 Co103 1.941 . S
O128 C135 1.266 . S
H129 C131 0.959 . S
H130 C131 0.961 . S
C131 C121 1.510 . S
C131 H129 0.959 . S
C131 H130 0.961 . S
C131 H132 0.960 . S
H132 C131 0.960 . S
H133 N113 0.862 . S
O134 Co102 1.920 . S
O134 C107 1.289 . S
C135 O127 1.258 . S
C135 O128 1.266 . S
Co136 O139 1.970 . S
Co136 N153 1.989 . S
Co136 O161 1.967 . S
Co136 O168 1.920 . S
Co137 O140 1.966 . S
Co137 N146 2.022 . S
Co137 N154 1.993 . S
Co137 O162 1.941 . S
C138 O139 1.258 . S
C138 O140 1.263 . S
O139 Co136 1.970 . S
O139 C138 1.258 . S
O140 Co137 1.966 . S
O140 C138 1.263 . S
C141 O142 1.235 . S
C141 O168 1.289 . S
O142 C141 1.235 . S
C143 C145 1.400 . S
C143 N146 1.351 . S
C143 C148 1.501 . S
C144 C145 1.387 . S
C144 N147 1.341 . S
C145 C143 1.400 . S
C145 C144 1.387 . S
N146 Co137 2.022 . S
N146 C143 1.351 . S
N146 N147 1.365 . S
N147 C144 1.341 . S
N147 N146 1.365 . S
N147 H167 0.862 . S
C148 C143 1.501 . S
C148 H149 0.961 . S
C148 H150 0.961 . S
C148 H151 0.960 . S
H149 C148 0.961 . S
H150 C148 0.961 . S
H151 C148 0.960 . S
C152 N153 1.342 . S
C152 C156 1.401 . S
C152 C157 1.499 . S
N153 Co136 1.989 . S
N153 C152 1.342 . S
N153 N154 1.388 . S
N154 Co137 1.993 . S
N154 N153 1.388 . S
N154 C155 1.346 . S
C155 N154 1.346 . S
C155 C156 1.396 . S
C155 C165 1.510 . S
C156 C152 1.401 . S
C156 C155 1.396 . S
C157 C152 1.499 . S
C157 H158 0.959 . S
C157 H159 0.960 . S
C157 H160 0.961 . S
H158 C157 0.959 . S
H159 C157 0.960 . S
H160 C157 0.961 . S
O161 Co136 1.967 . S
O161 C169 1.258 . S
O162 Co137 1.941 . S
O162 C169 1.266 . S
H163 C165 0.959 . S
H164 C165 0.961 . S
C165 C155 1.510 . S
C165 H163 0.959 . S
C165 H164 0.961 . S
C165 H166 0.960 . S
H166 C165 0.960 . S
H167 N147 0.862 . S
O168 Co136 1.920 . S
O168 C141 1.289 . S
C169 O161 1.258 . S
C169 O162 1.266 . S
Co170 O173 1.970 . S
Co170 N187 1.989 . S
Co170 O195 1.967 . S
Co170 O202 1.920 . S
Co171 O174 1.966 . S
Co171 N180 2.022 . S
Co171 N188 1.993 . S
Co171 O196 1.941 . S
C172 O173 1.258 . S
C172 O174 1.263 . S
O173 Co170 1.970 . S
O173 C172 1.258 . S
O174 Co171 1.966 . S
O174 C172 1.263 . S
C175 O176 1.235 . S
C175 O202 1.289 . S
O176 C175 1.235 . S
C177 C179 1.400 . S
C177 N180 1.351 . S
C177 C182 1.501 . S
C178 C179 1.387 . S
C178 N181 1.341 . S
C179 C177 1.400 . S
C179 C178 1.387 . S
N180 Co171 2.022 . S
N180 C177 1.351 . S
N180 N181 1.365 . S
N181 C178 1.341 . S
N181 N180 1.365 . S
N181 H201 0.862 . S
C182 C177 1.501 . S
C182 H183 0.961 . S
C182 H184 0.961 . S
C182 H185 0.960 . S
H183 C182 0.961 . S
H184 C182 0.961 . S
H185 C182 0.960 . S
C186 N187 1.342 . S
C186 C190 1.401 . S
C186 C191 1.499 . S
N187 Co170 1.989 . S
N187 C186 1.342 . S
N187 N188 1.388 . S
N188 Co171 1.993 . S
N188 N187 1.388 . S
N188 C189 1.346 . S
C189 N188 1.346 . S
C189 C190 1.396 . S
C189 C199 1.510 . S
C190 C186 1.401 . S
C190 C189 1.396 . S
C191 C186 1.499 . S
C191 H192 0.959 . S
C191 H193 0.960 . S
C191 H194 0.961 . S
H192 C191 0.959 . S
H193 C191 0.960 . S
H194 C191 0.961 . S
O195 Co170 1.967 . S
O195 C203 1.258 . S
O196 Co171 1.941 . S
O196 C203 1.266 . S
H197 C199 0.959 . S
H198 C199 0.961 . S
C199 C189 1.510 . S
C199 H197 0.959 . S
C199 H198 0.961 . S
C199 H200 0.960 . S
H200 C199 0.960 . S
H201 N181 0.862 . S
O202 Co170 1.920 . S
O202 C175 1.289 . S
C203 O195 1.258 . S
C203 O196 1.266 . S
Co204 O207 1.970 . S
Co204 N221 1.989 . S
Co204 O229 1.967 . S
Co204 O236 1.920 . S
Co205 O208 1.966 . S
Co205 N214 2.022 . S
Co205 N222 1.993 . S
Co205 O230 1.941 . S
C206 O207 1.258 . S
C206 O208 1.263 . S
O207 Co204 1.970 . S
O207 C206 1.258 . S
O208 Co205 1.966 . S
O208 C206 1.263 . S
C209 O210 1.235 . S
C209 O236 1.289 . S
O210 C209 1.235 . S
C211 C213 1.400 . S
C211 N214 1.351 . S
C211 C216 1.501 . S
C212 C213 1.387 . S
C212 N215 1.341 . S
C213 C211 1.400 . S
C213 C212 1.387 . S
N214 Co205 2.022 . S
N214 C211 1.351 . S
N214 N215 1.365 . S
N215 C212 1.341 . S
N215 N214 1.365 . S
N215 H235 0.862 . S
C216 C211 1.501 . S
C216 H217 0.961 . S
C216 H218 0.961 . S
C216 H219 0.960 . S
H217 C216 0.961 . S
H218 C216 0.961 . S
H219 C216 0.960 . S
C220 N221 1.342 . S
C220 C224 1.401 . S
C220 C225 1.499 . S
N221 Co204 1.989 . S
N221 C220 1.342 . S
N221 N222 1.388 . S
N222 Co205 1.993 . S
N222 N221 1.388 . S
N222 C223 1.346 . S
C223 N222 1.346 . S
C223 C224 1.396 . S
C223 C233 1.510 . S
C224 C220 1.401 . S
C224 C223 1.396 . S
C225 C220 1.499 . S
C225 H226 0.959 . S
C225 H227 0.960 . S
C225 H228 0.961 . S
H226 C225 0.959 . S
H227 C225 0.960 . S
H228 C225 0.961 . S
O229 Co204 1.967 . S
O229 C237 1.258 . S
O230 Co205 1.941 . S
O230 C237 1.266 . S
H231 C233 0.959 . S
H232 C233 0.961 . S
C233 C223 1.510 . S
C233 H231 0.959 . S
C233 H232 0.961 . S
C233 H234 0.960 . S
H234 C233 0.960 . S
H235 N215 0.862 . S
O236 Co204 1.920 . S
O236 C209 1.289 . S
C237 O229 1.258 . S
C237 O230 1.266 . S
Co238 O241 1.970 . S
Co238 N255 1.989 . S
Co238 O263 1.967 . S
Co238 O270 1.920 . S
Co239 O242 1.966 . S
Co239 N248 2.022 . S
Co239 N256 1.993 . S
Co239 O264 1.941 . S
C240 O241 1.258 . S
C240 O242 1.263 . S
O241 Co238 1.970 . S
O241 C240 1.258 . S
O242 Co239 1.966 . S
O242 C240 1.263 . S
C243 O244 1.235 . S
C243 O270 1.289 . S
O244 C243 1.235 . S
C245 C247 1.400 . S
C245 N248 1.351 . S
C245 C250 1.501 . S
C246 C247 1.387 . S
C246 N249 1.341 . S
C247 C245 1.400 . S
C247 C246 1.387 . S
N248 Co239 2.022 . S
N248 C245 1.351 . S
N248 N249 1.365 . S
N249 C246 1.341 . S
N249 N248 1.365 . S
N249 H269 0.862 . S
C250 C245 1.501 . S
C250 H251 0.961 . S
C250 H252 0.961 . S
C250 H253 0.960 . S
H251 C250 0.961 . S
H252 C250 0.961 . S
H253 C250 0.960 . S
C254 N255 1.342 . S
C254 C258 1.401 . S
C254 C259 1.499 . S
N255 Co238 1.989 . S
N255 C254 1.342 . S
N255 N256 1.388 . S
N256 Co239 1.993 . S
N256 N255 1.388 . S
N256 C257 1.346 . S
C257 N256 1.346 . S
C257 C258 1.396 . S
C257 C267 1.510 . S
C258 C254 1.401 . S
C258 C257 1.396 . S
C259 C254 1.499 . S
C259 H260 0.959 . S
C259 H261 0.960 . S
C259 H262 0.961 . S
H260 C259 0.959 . S
H261 C259 0.960 . S
H262 C259 0.961 . S
O263 Co238 1.967 . S
O263 C271 1.258 . S
O264 Co239 1.941 . S
O264 C271 1.266 . S
H265 C267 0.959 . S
H266 C267 0.961 . S
C267 C257 1.510 . S
C267 H265 0.959 . S
C267 H266 0.961 . S
C267 H268 0.960 . S
H268 C267 0.960 . S
H269 N249 0.862 . S
O270 Co238 1.920 . S
O270 C243 1.289 . S
C271 O263 1.258 . S
C271 O264 1.266 . S
Co272 O275 1.970 . S
Co272 N289 1.989 . S
Co272 O297 1.967 . S
Co272 O304 1.920 . S
Co273 O276 1.966 . S
Co273 N282 2.022 . S
Co273 N290 1.993 . S
Co273 O298 1.941 . S
C274 O275 1.258 . S
C274 O276 1.263 . S
O275 Co272 1.970 . S
O275 C274 1.258 . S
O276 Co273 1.966 . S
O276 C274 1.263 . S
C277 O278 1.235 . S
C277 O304 1.289 . S
O278 C277 1.235 . S
C279 C281 1.400 . S
C279 N282 1.351 . S
C279 C284 1.501 . S
C280 C281 1.387 . S
C280 N283 1.341 . S
C281 C279 1.400 . S
C281 C280 1.387 . S
N282 Co273 2.022 . S
N282 C279 1.351 . S
N282 N283 1.365 . S
N283 C280 1.341 . S
N283 N282 1.365 . S
N283 H303 0.862 . S
C284 C279 1.501 . S
C284 H285 0.961 . S
C284 H286 0.961 . S
C284 H287 0.960 . S
H285 C284 0.961 . S
H286 C284 0.961 . S
H287 C284 0.960 . S
C288 N289 1.342 . S
C288 C292 1.401 . S
C288 C293 1.499 . S
N289 Co272 1.989 . S
N289 C288 1.342 . S
N289 N290 1.388 . S
N290 Co273 1.993 . S
N290 N289 1.388 . S
N290 C291 1.346 . S
C291 N290 1.346 . S
C291 C292 1.396 . S
C291 C301 1.510 . S
C292 C288 1.401 . S
C292 C291 1.396 . S
C293 C288 1.499 . S
C293 H294 0.959 . S
C293 H295 0.960 . S
C293 H296 0.961 . S
H294 C293 0.959 . S
H295 C293 0.960 . S
H296 C293 0.961 . S
O297 Co272 1.967 . S
O297 C305 1.258 . S
O298 Co273 1.941 . S
O298 C305 1.266 . S
H299 C301 0.959 . S
H300 C301 0.961 . S
C301 C291 1.510 . S
C301 H299 0.959 . S
C301 H300 0.961 . S
C301 H302 0.960 . S
H302 C301 0.960 . S
H303 N283 0.862 . S
O304 Co272 1.920 . S
O304 C277 1.289 . S
C305 O297 1.258 . S
C305 O298 1.266 . S
Co306 O309 1.970 . S
Co306 N323 1.989 . S
Co306 O331 1.967 . S
Co306 O338 1.920 . S
Co307 O310 1.966 . S
Co307 N316 2.022 . S
Co307 N324 1.993 . S
Co307 O332 1.941 . S
C308 O309 1.258 . S
C308 O310 1.263 . S
O309 Co306 1.970 . S
O309 C308 1.258 . S
O310 Co307 1.966 . S
O310 C308 1.263 . S
C311 O312 1.235 . S
C311 O338 1.289 . S
O312 C311 1.235 . S
C313 C315 1.400 . S
C313 N316 1.351 . S
C313 C318 1.501 . S
C314 C315 1.387 . S
C314 N317 1.341 . S
C315 C313 1.400 . S
C315 C314 1.387 . S
N316 Co307 2.022 . S
N316 C313 1.351 . S
N316 N317 1.365 . S
N317 C314 1.341 . S
N317 N316 1.365 . S
N317 H337 0.862 . S
C318 C313 1.501 . S
C318 H319 0.961 . S
C318 H320 0.961 . S
C318 H321 0.960 . S
H319 C318 0.961 . S
H320 C318 0.961 . S
H321 C318 0.960 . S
C322 N323 1.342 . S
C322 C326 1.401 . S
C322 C327 1.499 . S
N323 Co306 1.989 . S
N323 C322 1.342 . S
N323 N324 1.388 . S
N324 Co307 1.993 . S
N324 N323 1.388 . S
N324 C325 1.346 . S
C325 N324 1.346 . S
C325 C326 1.396 . S
C325 C335 1.510 . S
C326 C322 1.401 . S
C326 C325 1.396 . S
C327 C322 1.499 . S
C327 H328 0.959 . S
C327 H329 0.960 . S
C327 H330 0.961 . S
H328 C327 0.959 . S
H329 C327 0.960 . S
H330 C327 0.961 . S
O331 Co306 1.967 . S
O331 C339 1.258 . S
O332 Co307 1.941 . S
O332 C339 1.266 . S
H333 C335 0.959 . S
H334 C335 0.961 . S
C335 C325 1.510 . S
C335 H333 0.959 . S
C335 H334 0.961 . S
C335 H336 0.960 . S
H336 C335 0.960 . S
H337 N317 0.862 . S
O338 Co306 1.920 . S
O338 C311 1.289 . S
C339 O331 1.258 . S
C339 O332 1.266 . S
Co340 O343 1.970 . S
Co340 N357 1.989 . S
Co340 O365 1.967 . S
Co340 O372 1.920 . S
Co341 O344 1.966 . S
Co341 N350 2.022 . S
Co341 N358 1.993 . S
Co341 O366 1.941 . S
C342 O343 1.258 . S
C342 O344 1.263 . S
O343 Co340 1.970 . S
O343 C342 1.258 . S
O344 Co341 1.966 . S
O344 C342 1.263 . S
C345 O346 1.235 . S
C345 O372 1.289 . S
O346 C345 1.235 . S
C347 C349 1.400 . S
C347 N350 1.351 . S
C347 C352 1.501 . S
C348 C349 1.387 . S
C348 N351 1.341 . S
C349 C347 1.400 . S
C349 C348 1.387 . S
N350 Co341 2.022 . S
N350 C347 1.351 . S
N350 N351 1.365 . S
N351 C348 1.341 . S
N351 N350 1.365 . S
N351 H371 0.862 . S
C352 C347 1.501 . S
C352 H353 0.961 . S
C352 H354 0.961 . S
C352 H355 0.960 . S
H353 C352 0.961 . S
H354 C352 0.961 . S
H355 C352 0.960 . S
C356 N357 1.342 . S
C356 C360 1.401 . S
C356 C361 1.499 . S
N357 Co340 1.989 . S
N357 C356 1.342 . S
N357 N358 1.388 . S
N358 Co341 1.993 . S
N358 N357 1.388 . S
N358 C359 1.346 . S
C359 N358 1.346 . S
C359 C360 1.396 . S
C359 C369 1.510 . S
C360 C356 1.401 . S
C360 C359 1.396 . S
C361 C356 1.499 . S
C361 H362 0.959 . S
C361 H363 0.960 . S
C361 H364 0.961 . S
H362 C361 0.959 . S
H363 C361 0.960 . S
H364 C361 0.961 . S
O365 Co340 1.967 . S
O365 C373 1.258 . S
O366 Co341 1.941 . S
O366 C373 1.266 . S
H367 C369 0.959 . S
H368 C369 0.961 . S
C369 C359 1.510 . S
C369 H367 0.959 . S
C369 H368 0.961 . S
C369 H370 0.960 . S
H370 C369 0.960 . S
H371 N351 0.862 . S
O372 Co340 1.920 . S
O372 C345 1.289 . S
C373 O365 1.258 . S
C373 O366 1.266 . S
Co374 O377 1.970 . S
Co374 N391 1.989 . S
Co374 O399 1.967 . S
Co374 O406 1.920 . S
Co375 O378 1.966 . S
Co375 N384 2.022 . S
Co375 N392 1.993 . S
Co375 O400 1.941 . S
C376 O377 1.258 . S
C376 O378 1.263 . S
O377 Co374 1.970 . S
O377 C376 1.258 . S
O378 Co375 1.966 . S
O378 C376 1.263 . S
C379 O380 1.235 . S
C379 O406 1.289 . S
O380 C379 1.235 . S
C381 C383 1.400 . S
C381 N384 1.351 . S
C381 C386 1.501 . S
C382 C383 1.387 . S
C382 N385 1.341 . S
C383 C381 1.400 . S
C383 C382 1.387 . S
N384 Co375 2.022 . S
N384 C381 1.351 . S
N384 N385 1.365 . S
N385 C382 1.341 . S
N385 N384 1.365 . S
N385 H405 0.862 . S
C386 C381 1.501 . S
C386 H387 0.961 . S
C386 H388 0.961 . S
C386 H389 0.960 . S
H387 C386 0.961 . S
H388 C386 0.961 . S
H389 C386 0.960 . S
C390 N391 1.342 . S
C390 C394 1.401 . S
C390 C395 1.499 . S
N391 Co374 1.989 . S
N391 C390 1.342 . S
N391 N392 1.388 . S
N392 Co375 1.993 . S
N392 N391 1.388 . S
N392 C393 1.346 . S
C393 N392 1.346 . S
C393 C394 1.396 . S
C393 C403 1.510 . S
C394 C390 1.401 . S
C394 C393 1.396 . S
C395 C390 1.499 . S
C395 H396 0.959 . S
C395 H397 0.960 . S
C395 H398 0.961 . S
H396 C395 0.959 . S
H397 C395 0.960 . S
H398 C395 0.961 . S
O399 Co374 1.967 . S
O399 C407 1.258 . S
O400 Co375 1.941 . S
O400 C407 1.266 . S
H401 C403 0.959 . S
H402 C403 0.961 . S
C403 C393 1.510 . S
C403 H401 0.959 . S
C403 H402 0.961 . S
C403 H404 0.960 . S
H404 C403 0.960 . S
H405 N385 0.862 . S
O406 Co374 1.920 . S
O406 C379 1.289 . S
C407 O399 1.258 . S
C407 O400 1.266 . S
Co408 O411 1.970 . S
Co408 N425 1.989 . S
Co408 O433 1.967 . S
Co408 O440 1.920 . S
Co409 O412 1.966 . S
Co409 N418 2.022 . S
Co409 N426 1.993 . S
Co409 O434 1.941 . S
C410 O411 1.258 . S
C410 O412 1.263 . S
O411 Co408 1.970 . S
O411 C410 1.258 . S
O412 Co409 1.966 . S
O412 C410 1.263 . S
C413 O414 1.235 . S
C413 O440 1.289 . S
O414 C413 1.235 . S
C415 C417 1.400 . S
C415 N418 1.351 . S
C415 C420 1.501 . S
C416 C417 1.387 . S
C416 N419 1.341 . S
C417 C415 1.400 . S
C417 C416 1.387 . S
N418 Co409 2.022 . S
N418 C415 1.351 . S
N418 N419 1.365 . S
N419 C416 1.341 . S
N419 N418 1.365 . S
N419 H439 0.862 . S
C420 C415 1.501 . S
C420 H421 0.961 . S
C420 H422 0.961 . S
C420 H423 0.960 . S
H421 C420 0.961 . S
H422 C420 0.961 . S
H423 C420 0.960 . S
C424 N425 1.342 . S
C424 C428 1.401 . S
C424 C429 1.499 . S
N425 Co408 1.989 . S
N425 C424 1.342 . S
N425 N426 1.388 . S
N426 Co409 1.993 . S
N426 N425 1.388 . S
N426 C427 1.346 . S
C427 N426 1.346 . S
C427 C428 1.396 . S
C427 C437 1.510 . S
C428 C424 1.401 . S
C428 C427 1.396 . S
C429 C424 1.499 . S
C429 H430 0.959 . S
C429 H431 0.960 . S
C429 H432 0.961 . S
H430 C429 0.959 . S
H431 C429 0.960 . S
H432 C429 0.961 . S
O433 Co408 1.967 . S
O433 C441 1.258 . S
O434 Co409 1.941 . S
O434 C441 1.266 . S
H435 C437 0.959 . S
H436 C437 0.961 . S
C437 C427 1.510 . S
C437 H435 0.959 . S
C437 H436 0.961 . S
C437 H438 0.960 . S
H438 C437 0.960 . S
H439 N419 0.862 . S
O440 Co408 1.920 . S
O440 C413 1.289 . S
C441 O433 1.258 . S
C441 O434 1.266 . S
Co442 O445 1.970 . S
Co442 N459 1.989 . S
Co442 O467 1.967 . S
Co442 O474 1.920 . S
Co443 O446 1.966 . S
Co443 N452 2.022 . S
Co443 N460 1.993 . S
Co443 O468 1.941 . S
C444 O445 1.258 . S
C444 O446 1.263 . S
O445 Co442 1.970 . S
O445 C444 1.258 . S
O446 Co443 1.966 . S
O446 C444 1.263 . S
C447 O448 1.235 . S
C447 O474 1.289 . S
O448 C447 1.235 . S
C449 C451 1.400 . S
C449 N452 1.351 . S
C449 C454 1.501 . S
C450 C451 1.387 . S
C450 N453 1.341 . S
C451 C449 1.400 . S
C451 C450 1.387 . S
N452 Co443 2.022 . S
N452 C449 1.351 . S
N452 N453 1.365 . S
N453 C450 1.341 . S
N453 N452 1.365 . S
N453 H473 0.862 . S
C454 C449 1.501 . S
C454 H455 0.961 . S
C454 H456 0.961 . S
C454 H457 0.960 . S
H455 C454 0.961 . S
H456 C454 0.961 . S
H457 C454 0.960 . S
C458 N459 1.342 . S
C458 C462 1.401 . S
C458 C463 1.499 . S
N459 Co442 1.989 . S
N459 C458 1.342 . S
N459 N460 1.388 . S
N460 Co443 1.993 . S
N460 N459 1.388 . S
N460 C461 1.346 . S
C461 N460 1.346 . S
C461 C462 1.396 . S
C461 C471 1.510 . S
C462 C458 1.401 . S
C462 C461 1.396 . S
C463 C458 1.499 . S
C463 H464 0.959 . S
C463 H465 0.960 . S
C463 H466 0.961 . S
H464 C463 0.959 . S
H465 C463 0.960 . S
H466 C463 0.961 . S
O467 Co442 1.967 . S
O467 C475 1.258 . S
O468 Co443 1.941 . S
O468 C475 1.266 . S
H469 C471 0.959 . S
H470 C471 0.961 . S
C471 C461 1.510 . S
C471 H469 0.959 . S
C471 H470 0.961 . S
C471 H472 0.960 . S
H472 C471 0.960 . S
H473 N453 0.862 . S
O474 Co442 1.920 . S
O474 C447 1.289 . S
C475 O467 1.258 . S
C475 O468 1.266 . S
Co476 O479 1.970 . S
Co476 N493 1.989 . S
Co476 O501 1.967 . S
Co476 O508 1.920 . S
Co477 O480 1.966 . S
Co477 N486 2.022 . S
Co477 N494 1.993 . S
Co477 O502 1.941 . S
C478 O479 1.258 . S
C478 O480 1.263 . S
O479 Co476 1.970 . S
O479 C478 1.258 . S
O480 Co477 1.966 . S
O480 C478 1.263 . S
C481 O482 1.235 . S
C481 O508 1.289 . S
O482 C481 1.235 . S
C483 C485 1.400 . S
C483 N486 1.351 . S
C483 C488 1.501 . S
C484 C485 1.387 . S
C484 N487 1.341 . S
C485 C483 1.400 . S
C485 C484 1.387 . S
N486 Co477 2.022 . S
N486 C483 1.351 . S
N486 N487 1.365 . S
N487 C484 1.341 . S
N487 N486 1.365 . S
N487 H507 0.862 . S
C488 C483 1.501 . S
C488 H489 0.961 . S
C488 H490 0.961 . S
C488 H491 0.960 . S
H489 C488 0.961 . S
H490 C488 0.961 . S
H491 C488 0.960 . S
C492 N493 1.342 . S
C492 C496 1.401 . S
C492 C497 1.499 . S
N493 Co476 1.989 . S
N493 C492 1.342 . S
N493 N494 1.388 . S
N494 Co477 1.993 . S
N494 N493 1.388 . S
N494 C495 1.346 . S
C495 N494 1.346 . S
C495 C496 1.396 . S
C495 C505 1.510 . S
C496 C492 1.401 . S
C496 C495 1.396 . S
C497 C492 1.499 . S
C497 H498 0.959 . S
C497 H499 0.960 . S
C497 H500 0.961 . S
H498 C497 0.959 . S
H499 C497 0.960 . S
H500 C497 0.961 . S
O501 Co476 1.967 . S
O501 C509 1.258 . S
O502 Co477 1.941 . S
O502 C509 1.266 . S
H503 C505 0.959 . S
H504 C505 0.961 . S
C505 C495 1.510 . S
C505 H503 0.959 . S
C505 H504 0.961 . S
C505 H506 0.960 . S
H506 C505 0.960 . S
H507 N487 0.862 . S
O508 Co476 1.920 . S
O508 C481 1.289 . S
C509 O501 1.258 . S
C509 O502 1.266 . S
Co510 O513 1.970 . S
Co510 N527 1.989 . S
Co510 O535 1.967 . S
Co510 O542 1.920 . S
Co511 O514 1.966 . S
Co511 N520 2.022 . S
Co511 N528 1.993 . S
Co511 O536 1.941 . S
C512 O513 1.258 . S
C512 O514 1.263 . S
O513 Co510 1.970 . S
O513 C512 1.258 . S
O514 Co511 1.966 . S
O514 C512 1.263 . S
C515 O516 1.235 . S
C515 O542 1.289 . S
O516 C515 1.235 . S
C517 C519 1.400 . S
C517 N520 1.351 . S
C517 C522 1.501 . S
C518 C519 1.387 . S
C518 N521 1.341 . S
C519 C517 1.400 . S
C519 C518 1.387 . S
N520 Co511 2.022 . S
N520 C517 1.351 . S
N520 N521 1.365 . S
N521 C518 1.341 . S
N521 N520 1.365 . S
N521 H541 0.862 . S
C522 C517 1.501 . S
C522 H523 0.961 . S
C522 H524 0.961 . S
C522 H525 0.960 . S
H523 C522 0.961 . S
H524 C522 0.961 . S
H525 C522 0.960 . S
C526 N527 1.342 . S
C526 C530 1.401 . S
C526 C531 1.499 . S
N527 Co510 1.989 . S
N527 C526 1.342 . S
N527 N528 1.388 . S
N528 Co511 1.993 . S
N528 N527 1.388 . S
N528 C529 1.346 . S
C529 N528 1.346 . S
C529 C530 1.396 . S
C529 C539 1.510 . S
C530 C526 1.401 . S
C530 C529 1.396 . S
C531 C526 1.499 . S
C531 H532 0.959 . S
C531 H533 0.960 . S
C531 H534 0.961 . S
H532 C531 0.959 . S
H533 C531 0.960 . S
H534 C531 0.961 . S
O535 Co510 1.967 . S
O535 C543 1.258 . S
O536 Co511 1.941 . S
O536 C543 1.266 . S
H537 C539 0.959 . S
H538 C539 0.961 . S
C539 C529 1.510 . S
C539 H537 0.959 . S
C539 H538 0.961 . S
C539 H540 0.960 . S
H540 C539 0.960 . S
H541 N521 0.862 . S
O542 Co510 1.920 . S
O542 C515 1.289 . S
C543 O535 1.258 . S
C543 O536 1.266 . S
H544 C552 0.929 . S
H545 C554 0.930 . S
H546 C556 0.930 . S
H547 C559 0.929 . S
H548 C562 0.930 . S
H549 C564 0.960 . S
H550 C564 0.960 . S
H551 C564 0.960 . S
C552 H544 0.929 . S
C552 C553 1.377 . S
C552 C554 1.384 . S
C553 C552 1.377 . S
C553 C559 1.390 . S
C554 H545 0.930 . S
C554 C552 1.384 . S
C554 C555 1.372 . S
C555 C554 1.372 . S
C555 C556 1.400 . S
C555 C560 1.490 . S
C556 H546 0.930 . S
C556 C555 1.400 . S
C556 C559 1.386 . S
H557 C573 0.930 . S
H558 C574 0.931 . S
C559 H547 0.929 . S
C559 C553 1.390 . S
C559 C556 1.386 . S
C560 C555 1.490 . S
C560 C562 1.395 . S
C560 C563 1.403 . S
H561 C567 0.930 . S
C562 H548 0.930 . S
C562 C560 1.395 . S
C562 C565 1.403 1_655 S
C563 C560 1.403 . S
C563 C564 1.524 . S
C563 C567 1.400 1_655 S
C564 H549 0.960 . S
C564 H550 0.960 . S
C564 H551 0.960 . S
C564 C563 1.524 . S
C565 C562 1.403 1_455 S
C565 C566 1.392 . S
C565 C569 1.495 . S
C566 C565 1.392 . S
C566 C567 1.385 . S
C566 C568 1.478 . S
C567 H561 0.930 . S
C567 C563 1.400 1_455 S
C567 C566 1.385 . S
C568 C566 1.478 . S
C568 C570 1.381 . S
C568 C574 1.383 . S
C569 C565 1.495 . S
C569 H575 0.959 . S
C569 H576 0.961 . S
C569 H577 0.960 . S
C570 C568 1.381 . S
C570 C571 1.394 . S
C570 H578 0.930 . S
C571 C570 1.394 . S
C571 C572 1.383 . S
C571 H579 0.929 . S
C572 C571 1.383 . S
C572 C573 1.377 . S
C573 H557 0.930 . S
C573 C572 1.377 . S
C573 C574 1.379 . S
C574 H558 0.931 . S
C574 C568 1.383 . S
C574 C573 1.379 . S
H575 C569 0.959 . S
H576 C569 0.961 . S
H577 C569 0.960 . S
H578 C570 0.930 . S
H579 C571 0.929 . S
H580 C588 0.929 . S
H581 C590 0.930 . S
H582 C592 0.930 . S
H583 C595 0.929 . S
H584 C598 0.931 . S
H585 C600 0.960 . S
H586 C600 0.960 . S
H587 C600 0.960 . S
C588 H580 0.929 . S
C588 C589 1.377 . S
C588 C590 1.384 . S
C589 C588 1.377 . S
C589 C595 1.390 . S
C590 H581 0.930 . S
C590 C588 1.384 . S
C590 C591 1.372 . S
C591 C590 1.372 . S
C591 C592 1.400 . S
C591 C596 1.490 . S
C592 H582 0.930 . S
C592 C591 1.400 . S
C592 C595 1.386 . S
H593 C609 0.930 . S
H594 C610 0.931 . S
C595 H583 0.929 . S
C595 C589 1.390 . S
C595 C592 1.386 . S
C596 C591 1.490 . S
C596 C598 1.395 1_545 S
C596 C599 1.403 . S
H597 C603 0.930 . S
C598 H584 0.931 . S
C598 C596 1.395 1_565 S
C598 C601 1.403 . S
C599 C596 1.403 . S
C599 C600 1.524 . S
C599 C603 1.400 1_545 S
C600 H585 0.960 . S
C600 H586 0.960 . S
C600 H587 0.960 . S
C600 C599 1.524 . S
C601 C598 1.403 . S
C601 C602 1.392 . S
C601 C605 1.495 . S
C602 C601 1.392 . S
C602 C603 1.385 . S
C602 C604 1.478 . S
C603 H597 0.930 . S
C603 C599 1.400 1_565 S
C603 C602 1.385 . S
C604 C602 1.478 . S
C604 C606 1.381 . S
C604 C610 1.383 . S
C605 C601 1.495 . S
C605 H611 0.959 . S
C605 H612 0.961 . S
C605 H613 0.960 . S
C606 C604 1.381 . S
C606 C607 1.394 . S
C606 H614 0.930 . S
C607 C606 1.394 . S
C607 C608 1.383 . S
C607 H615 0.929 . S
C608 C607 1.383 . S
C608 C609 1.377 . S
C609 H593 0.930 . S
C609 C608 1.377 . S
C609 C610 1.379 . S
C610 H594 0.931 . S
C610 C604 1.383 . S
C610 C609 1.379 . S
H611 C605 0.959 . S
H612 C605 0.961 . S
H613 C605 0.960 . S
H614 C606 0.930 . S
H615 C607 0.929 . S
H616 C624 0.929 . S
H617 C626 0.930 . S
H618 C628 0.930 . S
H619 C631 0.929 . S
H620 C634 0.930 . S
H621 C636 0.935 1_455 S
H622 C636 0.979 . S
H623 C636 0.966 . S
C624 H616 0.929 . S
C624 C625 1.377 . S
C624 C626 1.384 . S
C625 C624 1.377 . S
C625 C631 1.390 . S
C626 H617 0.930 . S
C626 C624 1.384 . S
C626 C627 1.372 . S
C627 C626 1.372 . S
C627 C628 1.400 . S
C627 C632 1.490 . S
C628 H618 0.930 . S
C628 C627 1.400 . S
C628 C631 1.386 . S
H629 C645 0.930 . S
H630 C646 0.931 . S
C631 H619 0.929 . S
C631 C625 1.390 . S
C631 C628 1.386 . S
C632 C627 1.490 . S
C632 C634 1.395 . S
C632 C635 1.403 . S
H633 C639 0.930 . S
C634 H620 0.930 . S
C634 C632 1.395 . S
C634 C637 1.403 . S
C635 C632 1.403 . S
C635 C636 1.525 . S
C635 C639 1.400 1_655 S
C636 H621 0.935 1_655 S
C636 H622 0.979 . S
C636 H623 0.966 . S
C636 C635 1.525 . S
C637 C634 1.403 . S
C637 C638 1.392 1_655 S
C637 C641 1.495 . S
C638 C637 1.392 1_455 S
C638 C639 1.385 . S
C638 C640 1.478 . S
C639 H633 0.930 . S
C639 C635 1.400 1_455 S
C639 C638 1.385 . S
C640 C638 1.478 . S
C640 C642 1.381 . S
C640 C646 1.383 . S
C641 C637 1.495 . S
C641 H647 0.959 . S
C641 H648 0.961 1_655 S
C641 H649 0.952 1_655 S
C642 C640 1.381 . S
C642 C643 1.394 . S
C642 H650 0.930 . S
C643 C642 1.394 . S
C643 C644 1.383 . S
C643 H651 0.929 . S
C644 C643 1.383 . S
C644 C645 1.377 . S
C645 H629 0.930 . S
C645 C644 1.377 . S
C645 C646 1.379 . S
C646 H630 0.931 . S
C646 C640 1.383 . S
C646 C645 1.379 . S
H647 C641 0.959 . S
H648 C641 0.961 1_455 S
H649 C641 0.952 1_455 S
H650 C642 0.930 . S
H651 C643 0.929 . S
H652 C660 0.929 . S
H653 C662 0.930 . S
H654 C664 0.930 . S
H655 C667 0.929 . S
H656 C670 0.930 . S
H657 C672 0.960 . S
H658 C672 0.960 . S
H659 C672 0.960 . S
C660 H652 0.929 . S
C660 C661 1.377 . S
C660 C662 1.384 . S
C661 C660 1.377 . S
C661 C667 1.390 . S
C662 H653 0.930 . S
C662 C660 1.384 . S
C662 C663 1.372 . S
C663 C662 1.372 . S
C663 C664 1.400 . S
C663 C668 1.490 . S
C664 H654 0.930 . S
C664 C663 1.400 . S
C664 C667 1.386 . S
H665 C681 0.930 . S
H666 C682 0.931 . S
C667 H655 0.929 . S
C667 C661 1.390 . S
C667 C664 1.386 . S
C668 C663 1.490 . S
C668 C670 1.395 . S
C668 C671 1.403 . S
H669 C675 0.930 . S
C670 H656 0.930 . S
C670 C668 1.395 . S
C670 C673 1.403 1_565 S
C671 C668 1.403 . S
C671 C672 1.524 . S
C671 C675 1.400 1_565 S
C672 H657 0.960 . S
C672 H658 0.960 . S
C672 H659 0.960 . S
C672 C671 1.524 . S
C673 C670 1.403 1_545 S
C673 C674 1.392 . S
C673 C677 1.495 . S
C674 C673 1.392 . S
C674 C675 1.385 . S
C674 C676 1.478 . S
C675 H669 0.930 . S
C675 C671 1.400 1_545 S
C675 C674 1.385 . S
C676 C674 1.478 . S
C676 C678 1.381 . S
C676 C682 1.383 . S
C677 C673 1.495 . S
C677 H683 0.959 . S
C677 H684 0.961 . S
C677 H685 0.960 . S
C678 C676 1.381 . S
C678 C679 1.394 . S
C678 H686 0.930 . S
C679 C678 1.394 . S
C679 C680 1.383 . S
C679 H687 0.929 . S
C680 C679 1.383 . S
C680 C681 1.377 . S
C681 H665 0.930 . S
C681 C680 1.377 . S
C681 C682 1.379 . S
C682 H666 0.931 . S
C682 C676 1.383 . S
C682 C681 1.379 . S
H683 C677 0.959 . S
H684 C677 0.961 . S
H685 C677 0.960 . S
H686 C678 0.930 . S
H687 C679 0.929 . S
H688 C696 0.929 . S
H689 C698 0.930 . S
H690 C700 0.930 . S
H691 C703 0.929 . S
H692 C706 0.930 . S
H693 C708 0.960 . S
H694 C708 0.960 . S
H695 C708 0.960 . S
C696 H688 0.929 . S
C696 C697 1.377 . S
C696 C698 1.384 . S
C697 C696 1.377 . S
C697 C703 1.390 . S
C698 H689 0.930 . S
C698 C696 1.384 . S
C698 C699 1.372 . S
C699 C698 1.372 . S
C699 C700 1.400 . S
C699 C704 1.490 . S
C700 H690 0.930 . S
C700 C699 1.400 . S
C700 C703 1.386 . S
H701 C717 0.930 . S
H702 C718 0.931 . S
C703 H691 0.929 . S
C703 C697 1.390 . S
C703 C700 1.386 . S
C704 C699 1.490 . S
C704 C706 1.395 . S
C704 C707 1.403 1_655 S
H705 C711 0.930 . S
C706 H692 0.930 . S
C706 C704 1.395 . S
C706 C709 1.403 . S
C707 C704 1.403 1_455 S
C707 C708 1.524 . S
C707 C711 1.400 . S
C708 H693 0.960 . S
C708 H694 0.960 . S
C708 H695 0.960 . S
C708 C707 1.524 . S
C709 C706 1.403 . S
C709 C710 1.392 1_655 S
C709 C713 1.495 . S
C710 C709 1.392 1_455 S
C710 C711 1.385 . S
C710 C712 1.478 . S
C711 H705 0.930 . S
C711 C707 1.400 . S
C711 C710 1.385 . S
C712 C710 1.478 . S
C712 C714 1.381 . S
C712 C718 1.383 . S
C713 C709 1.495 . S
C713 H719 0.959 . S
C713 H720 0.961 . S
C713 H721 0.960 . S
C714 C712 1.381 . S
C714 C715 1.394 . S
C714 H722 0.930 . S
C715 C714 1.394 . S
C715 C716 1.383 . S
C715 H723 0.929 . S
C716 C715 1.383 . S
C716 C717 1.377 . S
C717 H701 0.930 . S
C717 C716 1.377 . S
C717 C718 1.379 . S
C718 H702 0.931 . S
C718 C712 1.383 . S
C718 C717 1.379 . S
H719 C713 0.959 . S
H720 C713 0.961 . S
H721 C713 0.960 . S
H722 C714 0.930 . S
H723 C715 0.929 . S
H724 C732 0.929 . S
H725 C734 0.930 . S
H726 C736 0.930 . S
H727 C739 0.929 . S
H728 C742 0.930 . S
H729 C744 0.960 . S
H730 C744 0.960 . S
H731 C744 0.960 . S
C732 H724 0.929 . S
C732 C733 1.377 . S
C732 C734 1.384 . S
C733 C732 1.377 . S
C733 C739 1.390 . S
C734 H725 0.930 . S
C734 C732 1.384 . S
C734 C735 1.372 . S
C735 C734 1.372 . S
C735 C736 1.400 . S
C735 C740 1.490 . S
C736 H726 0.930 . S
C736 C735 1.400 . S
C736 C739 1.386 . S
H737 C753 0.930 . S
H738 C754 0.931 . S
C739 H727 0.929 . S
C739 C733 1.390 . S
C739 C736 1.386 . S
C740 C735 1.490 . S
C740 C742 1.395 . S
C740 C743 1.403 1_565 S
H741 C747 0.930 . S
C742 H728 0.930 . S
C742 C740 1.395 . S
C742 C745 1.403 . S
C743 C740 1.403 1_545 S
C743 C744 1.524 . S
C743 C747 1.400 . S
C744 H729 0.960 . S
C744 H730 0.960 . S
C744 H731 0.960 . S
C744 C743 1.524 . S
C745 C742 1.403 . S
C745 C746 1.392 1_565 S
C745 C749 1.495 . S
C746 C745 1.392 1_545 S
C746 C747 1.385 . S
C746 C748 1.478 . S
C747 H741 0.930 . S
C747 C743 1.400 . S
C747 C746 1.385 . S
C748 C746 1.478 . S
C748 C750 1.381 . S
C748 C754 1.383 . S
C749 C745 1.495 . S
C749 H755 0.959 . S
C749 H756 0.961 . S
C749 H757 0.960 . S
C750 C748 1.381 . S
C750 C751 1.394 . S
C750 H758 0.930 . S
C751 C750 1.394 . S
C751 C752 1.383 . S
C751 H759 0.929 . S
C752 C751 1.383 . S
C752 C753 1.377 . S
C753 H737 0.930 . S
C753 C752 1.377 . S
C753 C754 1.379 . S
C754 H738 0.931 . S
C754 C748 1.383 . S
C754 C753 1.379 . S
H755 C749 0.959 . S
H756 C749 0.961 . S
H757 C749 0.960 . S
H758 C750 0.930 . S
H759 C751 0.929 . S
H760 C768 0.929 . S
H761 C770 0.930 . S
H762 C772 0.930 . S
H763 C775 0.929 . S
H764 C778 0.930 . S
H765 C780 0.960 . S
H766 C780 0.960 . S
H767 C780 0.960 . S
C768 H760 0.929 . S
C768 C769 1.377 . S
C768 C770 1.384 . S
C769 C768 1.377 . S
C769 C775 1.390 . S
C770 H761 0.930 . S
C770 C768 1.384 . S
C770 C771 1.372 . S
C771 C770 1.372 . S
C771 C772 1.400 . S
C771 C776 1.490 . S
C772 H762 0.930 . S
C772 C771 1.400 . S
C772 C775 1.386 . S
H773 C789 0.930 . S
H774 C790 0.931 . S
C775 H763 0.929 . S
C775 C769 1.390 . S
C775 C772 1.386 . S
C776 C771 1.490 . S
C776 C778 1.395 . S
C776 C779 1.403 1_655 S
H777 C783 0.930 . S
C778 H764 0.930 . S
C778 C776 1.395 . S
C778 C781 1.403 . S
C779 C776 1.403 1_455 S
C779 C780 1.524 . S
C779 C783 1.400 . S
C780 H765 0.960 . S
C780 H766 0.960 . S
C780 H767 0.960 . S
C780 C779 1.524 . S
C781 C778 1.403 . S
C781 C782 1.392 1_655 S
C781 C785 1.495 . S
C782 C781 1.392 1_455 S
C782 C783 1.385 . S
C782 C784 1.478 . S
C783 H777 0.930 . S
C783 C779 1.400 . S
C783 C782 1.385 . S
C784 C782 1.478 . S
C784 C786 1.381 . S
C784 C790 1.383 . S
C785 C781 1.495 . S
C785 H791 0.959 . S
C785 H792 0.961 . S
C785 H793 0.960 . S
C786 C784 1.381 . S
C786 C787 1.394 . S
C786 H794 0.930 . S
C787 C786 1.394 . S
C787 C788 1.383 . S
C787 H795 0.929 . S
C788 C787 1.383 . S
C788 C789 1.377 . S
C789 H773 0.930 . S
C789 C788 1.377 . S
C789 C790 1.379 . S
C790 H774 0.931 . S
C790 C784 1.383 . S
C790 C789 1.379 . S
H791 C785 0.959 . S
H792 C785 0.961 . S
H793 C785 0.960 . S
H794 C786 0.930 . S
H795 C787 0.929 . S
H796 C804 0.929 . S
H797 C806 0.930 . S
H798 C808 0.965 . S
H799 C811 0.929 . S
H800 C814 0.930 . S
H801 C816 0.960 . S
H802 C816 0.960 1_545 S
H803 C816 0.960 . S
C804 H796 0.929 . S
C804 C805 1.377 . S
C804 C806 1.384 . S
C805 C804 1.377 . S
C805 C811 1.390 . S
C806 H797 0.930 . S
C806 C804 1.384 . S
C806 C807 1.372 . S
C807 C806 1.372 . S
C807 C808 1.400 . S
C807 C812 1.490 . S
C808 H798 0.965 . S
C808 C807 1.400 . S
C808 C811 1.386 . S
H809 C825 0.930 . S
H810 C826 0.931 . S
C811 H799 0.929 . S
C811 C805 1.390 . S
C811 C808 1.386 . S
C812 C807 1.490 . S
C812 C814 1.395 . S
C812 C815 1.403 1_545 S
H813 C819 0.930 . S
C814 H800 0.930 . S
C814 C812 1.395 . S
C814 C817 1.403 . S
C815 C812 1.403 1_565 S
C815 C816 1.524 . S
C815 C819 1.400 . S
C816 H801 0.960 . S
C816 H802 0.960 1_565 S
C816 H803 0.960 . S
C816 C815 1.524 . S
C817 C814 1.403 . S
C817 C818 1.392 1_545 S
C817 C821 1.495 . S
C818 C817 1.392 1_565 S
C818 C819 1.385 . S
C818 C820 1.478 . S
C819 H813 0.930 . S
C819 C815 1.400 . S
C819 C818 1.385 . S
C820 C818 1.478 . S
C820 C822 1.381 . S
C820 C826 1.383 . S
C821 C817 1.495 . S
C821 H827 0.959 . S
C821 H828 0.944 1_545 S
C821 H829 0.960 . S
C822 C820 1.381 . S
C822 C823 1.394 . S
C822 H830 0.892 1_565 S
C823 C822 1.394 . S
C823 C824 1.383 . S
C823 H831 0.929 . S
C824 C823 1.383 . S
C824 C825 1.377 . S
C825 H809 0.930 . S
C825 C824 1.377 . S
C825 C826 1.379 . S
C826 H810 0.931 . S
C826 C820 1.383 . S
C826 C825 1.379 . S
H827 C821 0.959 . S
H828 C821 0.944 1_565 S
H829 C821 0.960 . S
H830 C822 0.892 1_545 S
H831 C823 0.929 . S
H832 C840 0.929 . S
H833 C842 0.930 . S
H834 C844 0.930 . S
H835 C847 0.929 . S
H836 C850 0.930 . S
H837 C852 0.960 . S
H838 C852 0.960 . S
H839 C852 0.960 . S
C840 H832 0.929 . S
C840 C841 1.377 . S
C840 C842 1.384 . S
C841 C840 1.377 . S
C841 C847 1.390 . S
C842 H833 0.930 . S
C842 C840 1.384 . S
C842 C843 1.372 . S
C843 C842 1.372 . S
C843 C844 1.400 . S
C843 C848 1.490 . S
C844 H834 0.930 . S
C844 C843 1.400 . S
C844 C847 1.386 . S
H845 C861 0.930 . S
H846 C862 0.931 . S
C847 H835 0.929 . S
C847 C841 1.390 . S
C847 C844 1.386 . S
C848 C843 1.490 . S
C848 C850 1.395 . S
C848 C851 1.403 . S
H849 C855 0.930 . S
C850 H836 0.930 . S
C850 C848 1.395 . S
C850 C853 1.403 . S
C851 C848 1.403 . S
C851 C852 1.524 . S
C851 C855 1.400 . S
C852 H837 0.960 . S
C852 H838 0.960 . S
C852 H839 0.960 . S
C852 C851 1.524 . S
C853 C850 1.403 . S
C853 C854 1.392 . S
C853 C857 1.495 . S
C854 C853 1.392 . S
C854 C855 1.385 . S
C854 C856 1.478 . S
C855 H849 0.930 . S
C855 C851 1.400 . S
C855 C854 1.385 . S
C856 C854 1.478 . S
C856 C858 1.381 . S
C856 C862 1.383 . S
C857 C853 1.495 . S
C857 H863 0.959 . S
C857 H864 0.961 . S
C857 H865 0.960 . S
C858 C856 1.381 . S
C858 C859 1.394 . S
C858 H866 0.930 . S
C859 C858 1.394 . S
C859 C860 1.383 . S
C859 H867 0.929 . S
C860 C859 1.383 . S
C860 C861 1.377 . S
C861 H845 0.930 . S
C861 C860 1.377 . S
C861 C862 1.379 . S
C862 H846 0.931 . S
C862 C856 1.383 . S
C862 C861 1.379 . S
H863 C857 0.959 . S
H864 C857 0.961 . S
H865 C857 0.960 . S
H866 C858 0.930 . S
H867 C859 0.929 . S
H868 C876 0.929 . S
H869 C878 0.930 . S
H870 C880 0.930 . S
H871 C883 0.929 . S
H872 C886 0.930 . S
H873 C888 0.960 . S
H874 C888 0.960 . S
H875 C888 0.960 . S
C876 H868 0.929 . S
C876 C877 1.377 . S
C876 C878 1.384 . S
C877 C876 1.377 . S
C877 C883 1.390 . S
C878 H869 0.930 . S
C878 C876 1.384 . S
C878 C879 1.372 . S
C879 C878 1.372 . S
C879 C880 1.400 . S
C879 C884 1.490 . S
C880 H870 0.930 . S
C880 C879 1.400 . S
C880 C883 1.386 . S
H881 C897 0.930 . S
H882 C898 0.931 . S
C883 H871 0.929 . S
C883 C877 1.390 . S
C883 C880 1.386 . S
C884 C879 1.490 . S
C884 C886 1.395 . S
C884 C887 1.403 . S
H885 C891 0.930 . S
C886 H872 0.930 . S
C886 C884 1.395 . S
C886 C889 1.403 . S
C887 C884 1.403 . S
C887 C888 1.524 . S
C887 C891 1.400 . S
C888 H873 0.960 . S
C888 H874 0.960 . S
C888 H875 0.960 . S
C888 C887 1.524 . S
C889 C886 1.403 . S
C889 C890 1.392 . S
C889 C893 1.495 . S
C890 C889 1.392 . S
C890 C891 1.385 . S
C890 C892 1.478 . S
C891 H885 0.930 . S
C891 C887 1.400 . S
C891 C890 1.385 . S
C892 C890 1.478 . S
C892 C894 1.381 . S
C892 C898 1.383 . S
C893 C889 1.495 . S
C893 H899 0.959 . S
C893 H900 0.961 . S
C893 H901 0.960 . S
C894 C892 1.381 . S
C894 C895 1.394 . S
C894 H902 0.930 . S
C895 C894 1.394 . S
C895 C896 1.383 . S
C895 H903 0.929 . S
C896 C895 1.383 . S
C896 C897 1.377 . S
C897 H881 0.930 . S
C897 C896 1.377 . S
C897 C898 1.379 . S
C898 H882 0.931 . S
C898 C892 1.383 . S
C898 C897 1.379 . S
H899 C893 0.959 . S
H900 C893 0.961 . S
H901 C893 0.960 . S
H902 C894 0.930 . S
H903 C895 0.929 . S
H904 C912 0.929 . S
H905 C914 0.930 . S
H906 C916 0.930 . S
H907 C919 0.929 . S
H908 C922 0.930 . S
H909 C924 0.960 . S
H910 C924 0.960 . S
H911 C924 0.960 . S
C912 H904 0.929 . S
C912 C913 1.377 . S
C912 C914 1.384 . S
C913 C912 1.377 . S
C913 C919 1.390 . S
C914 H905 0.930 . S
C914 C912 1.384 . S
C914 C915 1.372 . S
C915 C914 1.372 . S
C915 C916 1.400 . S
C915 C920 1.490 . S
C916 H906 0.930 . S
C916 C915 1.400 . S
C916 C919 1.386 . S
H917 C933 0.930 . S
H918 C934 0.931 . S
C919 H907 0.929 . S
C919 C913 1.390 . S
C919 C916 1.386 . S
C920 C915 1.490 . S
C920 C922 1.395 . S
C920 C923 1.403 . S
H921 C927 0.930 . S
C922 H908 0.930 . S
C922 C920 1.395 . S
C922 C925 1.403 . S
C923 C920 1.403 . S
C923 C924 1.524 . S
C923 C927 1.400 . S
C924 H909 0.960 . S
C924 H910 0.960 . S
C924 H911 0.960 . S
C924 C923 1.524 . S
C925 C922 1.403 . S
C925 C926 1.392 . S
C925 C929 1.495 . S
C926 C925 1.392 . S
C926 C927 1.385 . S
C926 C928 1.478 . S
C927 H921 0.930 . S
C927 C923 1.400 . S
C927 C926 1.385 . S
C928 C926 1.478 . S
C928 C930 1.381 . S
C928 C934 1.383 . S
C929 C925 1.495 . S
C929 H935 0.959 . S
C929 H936 0.961 . S
C929 H937 0.960 . S
C930 C928 1.381 . S
C930 C931 1.394 . S
C930 H938 0.930 . S
C931 C930 1.394 . S
C931 C932 1.383 . S
C931 H939 0.929 . S
C932 C931 1.383 . S
C932 C933 1.377 . S
C933 H917 0.930 . S
C933 C932 1.377 . S
C933 C934 1.379 . S
C934 H918 0.931 . S
C934 C928 1.383 . S
C934 C933 1.379 . S
H935 C929 0.959 . S
H936 C929 0.961 . S
H937 C929 0.960 . S
H938 C930 0.930 . S
H939 C931 0.929 . S
H940 C948 0.929 . S
H941 C950 0.930 . S
H942 C952 0.930 . S
H943 C955 0.929 . S
H944 C958 0.930 . S
H945 C960 0.960 . S
H946 C960 0.960 . S
H947 C960 0.960 . S
C948 H940 0.929 . S
C948 C949 1.377 . S
C948 C950 1.384 . S
C949 C948 1.377 . S
C949 C955 1.390 . S
C950 H941 0.930 . S
C950 C948 1.384 . S
C950 C951 1.372 . S
C951 C950 1.372 . S
C951 C952 1.400 . S
C951 C956 1.490 . S
C952 H942 0.930 . S
C952 C951 1.400 . S
C952 C955 1.386 . S
H953 C969 0.930 . S
H954 C970 0.931 . S
C955 H943 0.929 . S
C955 C949 1.390 . S
C955 C952 1.386 . S
C956 C951 1.490 . S
C956 C958 1.395 . S
C956 C959 1.403 . S
H957 C963 0.930 . S
C958 H944 0.930 . S
C958 C956 1.395 . S
C958 C961 1.403 . S
C959 C956 1.403 . S
C959 C960 1.524 . S
C959 C963 1.400 . S
C960 H945 0.960 . S
C960 H946 0.960 . S
C960 H947 0.960 . S
C960 C959 1.524 . S
C961 C958 1.403 . S
C961 C962 1.392 . S
C961 C965 1.495 . S
C962 C961 1.392 . S
C962 C963 1.385 . S
C962 C964 1.478 . S
C963 H957 0.930 . S
C963 C959 1.400 . S
C963 C962 1.385 . S
C964 C962 1.478 . S
C964 C966 1.381 . S
C964 C970 1.383 . S
C965 C961 1.495 . S
C965 H971 0.959 . S
C965 H972 0.961 . S
C965 H973 0.960 . S
C966 C964 1.381 . S
C966 C967 1.394 . S
C966 H974 0.930 . S
C967 C966 1.394 . S
C967 C968 1.383 . S
C967 H975 0.929 . S
C968 C967 1.383 . S
C968 C969 1.377 . S
C969 H953 0.930 . S
C969 C968 1.377 . S
C969 C970 1.379 . S
C970 H954 0.931 . S
C970 C964 1.383 . S
C970 C969 1.379 . S
H971 C965 0.959 . S
H972 C965 0.961 . S
H973 C965 0.960 . S
H974 C966 0.930 . S
H975 C967 0.929 . S
H976 C984 0.929 . S
H977 C986 0.930 . S
H978 C988 0.930 . S
H979 C991 0.929 . S
H980 C994 0.930 . S
H981 C996 0.960 . S
H982 C996 0.960 . S
H983 C996 0.960 . S
C984 H976 0.929 . S
C984 C985 1.377 . S
C984 C986 1.384 . S
C985 C984 1.377 . S
C985 C991 1.390 . S
C986 H977 0.930 . S
C986 C984 1.384 . S
C986 C987 1.372 . S
C987 C986 1.372 . S
C987 C988 1.400 . S
C987 C992 1.490 . S
C988 H978 0.930 . S
C988 C987 1.400 . S
C988 C991 1.386 . S
H989 C1005 0.930 . S
H990 C1006 0.931 . S
C991 H979 0.929 . S
C991 C985 1.390 . S
C991 C988 1.386 . S
C992 C987 1.490 . S
C992 C994 1.395 . S
C992 C995 1.403 . S
H993 C999 0.930 . S
C994 H980 0.930 . S
C994 C992 1.395 . S
C994 C997 1.403 . S
C995 C992 1.403 . S
C995 C996 1.524 . S
C995 C999 1.400 . S
C996 H981 0.960 . S
C996 H982 0.960 . S
C996 H983 0.960 . S
C996 C995 1.524 . S
C997 C994 1.403 . S
C997 C998 1.392 . S
C997 C1001 1.495 . S
C998 C997 1.392 . S
C998 C999 1.385 . S
C998 C1000 1.478 . S
C999 H993 0.930 . S
C999 C995 1.400 . S
C999 C998 1.385 . S
C1000 C998 1.478 . S
C1000 C1002 1.381 . S
C1000 C1006 1.383 . S
C1001 C997 1.495 . S
C1001 H1007 0.959 . S
C1001 H1008 0.961 . S
C1001 H1009 0.960 . S
C1002 C1000 1.381 . S
C1002 C1003 1.394 . S
C1002 H1010 0.930 . S
C1003 C1002 1.394 . S
C1003 C1004 1.383 . S
C1003 H1011 0.929 . S
C1004 C1003 1.383 . S
C1004 C1005 1.377 . S
C1005 H989 0.930 . S
C1005 C1004 1.377 . S
C1005 C1006 1.379 . S
C1006 H990 0.931 . S
C1006 C1000 1.383 . S
C1006 C1005 1.379 . S
H1007 C1001 0.959 . S
H1008 C1001 0.961 . S
H1009 C1001 0.960 . S
H1010 C1002 0.930 . S
H1011 C1003 0.929 . S
H1012 C1020 0.929 . S
H1013 C1022 0.930 . S
H1014 C1024 0.930 . S
H1015 C1027 0.929 . S
H1016 C1030 0.930 . S
H1017 C1032 0.960 . S
H1018 C1032 0.960 . S
H1019 C1032 0.960 . S
C1020 H1012 0.929 . S
C1020 C1021 1.377 . S
C1020 C1022 1.384 . S
C1021 C1020 1.377 . S
C1021 C1027 1.390 . S
C1022 H1013 0.930 . S
C1022 C1020 1.384 . S
C1022 C1023 1.372 . S
C1023 C1022 1.372 . S
C1023 C1024 1.400 . S
C1023 C1028 1.490 . S
C1024 H1014 0.930 . S
C1024 C1023 1.400 . S
C1024 C1027 1.386 . S
H1025 C1041 0.930 . S
H1026 C1042 0.931 . S
C1027 H1015 0.929 . S
C1027 C1021 1.390 . S
C1027 C1024 1.386 . S
C1028 C1023 1.490 . S
C1028 C1030 1.395 . S
C1028 C1031 1.403 . S
H1029 C1035 0.930 . S
C1030 H1016 0.930 . S
C1030 C1028 1.395 . S
C1030 C1033 1.403 . S
C1031 C1028 1.403 . S
C1031 C1032 1.524 . S
C1031 C1035 1.400 . S
C1032 H1017 0.960 . S
C1032 H1018 0.960 . S
C1032 H1019 0.960 . S
C1032 C1031 1.524 . S
C1033 C1030 1.403 . S
C1033 C1034 1.392 . S
C1033 C1037 1.495 . S
C1034 C1033 1.392 . S
C1034 C1035 1.385 . S
C1034 C1036 1.478 . S
C1035 H1029 0.930 . S
C1035 C1031 1.400 . S
C1035 C1034 1.385 . S
C1036 C1034 1.478 . S
C1036 C1038 1.381 . S
C1036 C1042 1.383 . S
C1037 C1033 1.495 . S
C1037 H1043 0.959 . S
C1037 H1044 0.961 . S
C1037 H1045 0.960 . S
C1038 C1036 1.381 . S
C1038 C1039 1.394 . S
C1038 H1046 0.930 . S
C1039 C1038 1.394 . S
C1039 C1040 1.383 . S
C1039 H1047 0.929 . S
C1040 C1039 1.383 . S
C1040 C1041 1.377 . S
C1041 H1025 0.930 . S
C1041 C1040 1.377 . S
C1041 C1042 1.379 . S
C1042 H1026 0.931 . S
C1042 C1036 1.383 . S
C1042 C1041 1.379 . S
H1043 C1037 0.959 . S
H1044 C1037 0.961 . S
H1045 C1037 0.960 . S
H1046 C1038 0.930 . S
H1047 C1039 0.929 . S
H1048 C1056 0.929 . S
H1049 C1058 0.930 . S
H1050 C1060 0.930 . S
H1051 C1063 0.929 . S
H1052 C1066 0.930 . S
H1053 C1068 0.960 . S
H1054 C1068 0.960 . S
H1055 C1068 0.960 . S
C1056 H1048 0.929 . S
C1056 C1057 1.377 . S
C1056 C1058 1.384 . S
C1057 C1056 1.377 . S
C1057 C1063 1.390 . S
C1058 H1049 0.930 . S
C1058 C1056 1.384 . S
C1058 C1059 1.372 . S
C1059 C1058 1.372 . S
C1059 C1060 1.400 . S
C1059 C1064 1.490 . S
C1060 H1050 0.930 . S
C1060 C1059 1.400 . S
C1060 C1063 1.386 . S
H1061 C1077 0.930 . S
H1062 C1078 0.931 . S
C1063 H1051 0.929 . S
C1063 C1057 1.390 . S
C1063 C1060 1.386 . S
C1064 C1059 1.490 . S
C1064 C1066 1.395 . S
C1064 C1067 1.403 . S
H1065 C1071 0.930 . S
C1066 H1052 0.930 . S
C1066 C1064 1.395 . S
C1066 C1069 1.403 . S
C1067 C1064 1.403 . S
C1067 C1068 1.524 . S
C1067 C1071 1.400 . S
C1068 H1053 0.960 . S
C1068 H1054 0.960 . S
C1068 H1055 0.960 . S
C1068 C1067 1.524 . S
C1069 C1066 1.403 . S
C1069 C1070 1.392 . S
C1069 C1073 1.495 . S
C1070 C1069 1.392 . S
C1070 C1071 1.385 . S
C1070 C1072 1.478 . S
C1071 H1065 0.930 . S
C1071 C1067 1.400 . S
C1071 C1070 1.385 . S
C1072 C1070 1.478 . S
C1072 C1074 1.381 . S
C1072 C1078 1.383 . S
C1073 C1069 1.495 . S
C1073 H1079 0.959 . S
C1073 H1080 0.961 . S
C1073 H1081 0.960 . S
C1074 C1072 1.381 . S
C1074 C1075 1.394 . S
C1074 H1082 0.930 . S
C1075 C1074 1.394 . S
C1075 C1076 1.383 . S
C1075 H1083 0.929 . S
C1076 C1075 1.383 . S
C1076 C1077 1.377 . S
C1077 H1061 0.930 . S
C1077 C1076 1.377 . S
C1077 C1078 1.379 . S
C1078 H1062 0.931 . S
C1078 C1072 1.383 . S
C1078 C1077 1.379 . S
H1079 C1073 0.959 . S
H1080 C1073 0.961 . S
H1081 C1073 0.960 . S
H1082 C1074 0.930 . S
H1083 C1075 0.929 . S
H1084 C1092 0.929 . S
H1085 C1094 0.930 . S
H1086 C1096 0.930 . S
H1087 C1099 0.929 . S
H1088 C1102 0.930 . S
H1089 C1104 0.960 . S
H1090 C1104 0.960 . S
H1091 C1104 0.960 . S
C1092 H1084 0.929 . S
C1092 C1093 1.377 . S
C1092 C1094 1.384 . S
C1093 C1092 1.377 . S
C1093 C1099 1.390 . S
C1094 H1085 0.930 . S
C1094 C1092 1.384 . S
C1094 C1095 1.372 . S
C1095 C1094 1.372 . S
C1095 C1096 1.400 . S
C1095 C1100 1.490 . S
C1096 H1086 0.930 . S
C1096 C1095 1.400 . S
C1096 C1099 1.386 . S
H1097 C1113 0.930 . S
H1098 C1114 0.931 . S
C1099 H1087 0.929 . S
C1099 C1093 1.390 . S
C1099 C1096 1.386 . S
C1100 C1095 1.490 . S
C1100 C1102 1.395 . S
C1100 C1103 1.403 . S
H1101 C1107 0.930 . S
C1102 H1088 0.930 . S
C1102 C1100 1.395 . S
C1102 C1105 1.403 . S
C1103 C1100 1.403 . S
C1103 C1104 1.524 . S
C1103 C1107 1.400 . S
C1104 H1089 0.960 . S
C1104 H1090 0.960 . S
C1104 H1091 0.960 . S
C1104 C1103 1.524 . S
C1105 C1102 1.403 . S
C1105 C1106 1.392 . S
C1105 C1109 1.495 . S
C1106 C1105 1.392 . S
C1106 C1107 1.385 . S
C1106 C1108 1.478 . S
C1107 H1101 0.930 . S
C1107 C1103 1.400 . S
C1107 C1106 1.385 . S
C1108 C1106 1.478 . S
C1108 C1110 1.381 . S
C1108 C1114 1.383 . S
C1109 C1105 1.495 . S
C1109 H1115 0.959 . S
C1109 H1116 0.961 . S
C1109 H1117 0.960 . S
C1110 C1108 1.381 . S
C1110 C1111 1.394 . S
C1110 H1118 0.930 . S
C1111 C1110 1.394 . S
C1111 C1112 1.383 . S
C1111 H1119 0.929 . S
C1112 C1111 1.383 . S
C1112 C1113 1.377 . S
C1113 H1097 0.930 . S
C1113 C1112 1.377 . S
C1113 C1114 1.379 . S
C1114 H1098 0.931 . S
C1114 C1108 1.383 . S
C1114 C1113 1.379 . S
H1115 C1109 0.959 . S
H1116 C1109 0.961 . S
H1117 C1109 0.960 . S
H1118 C1110 0.930 . S
H1119 C1111 0.929 . S
H1120 C1128 0.929 . S
H1121 C1130 0.930 . S
H1122 C1132 0.930 . S
H1123 C1135 0.929 . S
H1124 C1138 0.930 . S
H1125 C1140 0.960 . S
H1126 C1140 0.960 . S
H1127 C1140 0.960 . S
C1128 H1120 0.929 . S
C1128 C1129 1.377 . S
C1128 C1130 1.384 . S
C1129 C1128 1.377 . S
C1129 C1135 1.390 . S
C1130 H1121 0.930 . S
C1130 C1128 1.384 . S
C1130 C1131 1.372 . S
C1131 C1130 1.372 . S
C1131 C1132 1.400 . S
C1131 C1136 1.490 . S
C1132 H1122 0.930 . S
C1132 C1131 1.400 . S
C1132 C1135 1.386 . S
H1133 C1149 0.930 . S
H1134 C1150 0.931 . S
C1135 H1123 0.929 . S
C1135 C1129 1.390 . S
C1135 C1132 1.386 . S
C1136 C1131 1.490 . S
C1136 C1138 1.395 . S
C1136 C1139 1.403 . S
H1137 C1143 0.930 . S
C1138 H1124 0.930 . S
C1138 C1136 1.395 . S
C1138 C1141 1.403 1_554 S
C1139 C1136 1.403 . S
C1139 C1140 1.524 . S
C1139 C1143 1.400 1_554 S
C1140 H1125 0.960 . S
C1140 H1126 0.960 . S
C1140 H1127 0.960 . S
C1140 C1139 1.524 . S
C1141 C1138 1.403 1_556 S
C1141 C1142 1.392 . S
C1141 C1145 1.495 . S
C1142 C1141 1.392 . S
C1142 C1143 1.385 . S
C1142 C1144 1.478 . S
C1143 H1137 0.930 . S
C1143 C1139 1.400 1_556 S
C1143 C1142 1.385 . S
C1144 C1142 1.478 . S
C1144 C1146 1.381 . S
C1144 C1150 1.383 . S
C1145 C1141 1.495 . S
C1145 H1151 0.959 . S
C1145 H1152 0.961 . S
C1145 H1153 0.960 . S
C1146 C1144 1.381 . S
C1146 C1147 1.394 . S
C1146 H1154 0.930 . S
C1147 C1146 1.394 . S
C1147 C1148 1.383 . S
C1147 H1155 0.929 . S
C1148 C1147 1.383 . S
C1148 C1149 1.377 . S
C1149 H1133 0.930 . S
C1149 C1148 1.377 . S
C1149 C1150 1.379 . S
C1150 H1134 0.931 . S
C1150 C1144 1.383 . S
C1150 C1149 1.379 . S
H1151 C1145 0.959 . S
H1152 C1145 0.961 . S
H1153 C1145 0.960 . S
H1154 C1146 0.930 . S
H1155 C1147 0.929 . S
H1156 C1164 0.929 . S
H1157 C1166 0.930 . S
H1158 C1168 0.930 . S
H1159 C1171 0.929 . S
H1160 C1174 0.930 . S
H1161 C1176 0.960 . S
H1162 C1176 0.960 . S
H1163 C1176 0.960 . S
C1164 H1156 0.929 . S
C1164 C1165 1.377 . S
C1164 C1166 1.384 . S
C1165 C1164 1.377 . S
C1165 C1171 1.390 . S
C1166 H1157 0.930 . S
C1166 C1164 1.384 . S
C1166 C1167 1.372 . S
C1167 C1166 1.372 . S
C1167 C1168 1.400 . S
C1167 C1172 1.490 . S
C1168 H1158 0.930 . S
C1168 C1167 1.400 . S
C1168 C1171 1.386 . S
H1169 C1185 0.930 . S
H1170 C1186 0.931 . S
C1171 H1159 0.929 . S
C1171 C1165 1.390 . S
C1171 C1168 1.386 . S
C1172 C1167 1.490 . S
C1172 C1174 1.395 . S
C1172 C1175 1.403 . S
H1173 C1179 0.930 . S
C1174 H1160 0.930 . S
C1174 C1172 1.395 . S
C1174 C1177 1.403 1_556 S
C1175 C1172 1.403 . S
C1175 C1176 1.524 . S
C1175 C1179 1.400 1_556 S
C1176 H1161 0.960 . S
C1176 H1162 0.960 . S
C1176 H1163 0.960 . S
C1176 C1175 1.524 . S
C1177 C1174 1.403 1_554 S
C1177 C1178 1.392 . S
C1177 C1181 1.495 . S
C1178 C1177 1.392 . S
C1178 C1179 1.385 . S
C1178 C1180 1.478 . S
C1179 H1173 0.930 . S
C1179 C1175 1.400 1_554 S
C1179 C1178 1.385 . S
C1180 C1178 1.478 . S
C1180 C1182 1.381 . S
C1180 C1186 1.383 . S
C1181 C1177 1.495 . S
C1181 H1187 0.959 . S
C1181 H1188 0.961 . S
C1181 H1189 0.960 . S
C1182 C1180 1.381 . S
C1182 C1183 1.394 . S
C1182 H1190 0.930 . S
C1183 C1182 1.394 . S
C1183 C1184 1.383 . S
C1183 H1191 0.929 . S
C1184 C1183 1.383 . S
C1184 C1185 1.377 . S
C1185 H1169 0.930 . S
C1185 C1184 1.377 . S
C1185 C1186 1.379 . S
C1186 H1170 0.931 . S
C1186 C1180 1.383 . S
C1186 C1185 1.379 . S
H1187 C1181 0.959 . S
H1188 C1181 0.961 . S
H1189 C1181 0.960 . S
H1190 C1182 0.930 . S
H1191 C1183 0.929 . S
H1192 C1200 0.929 . S
H1193 C1202 0.930 . S
H1194 C1204 0.930 . S
H1195 C1207 0.929 . S
H1196 C1210 0.930 . S
H1197 C1212 0.960 . S
H1198 C1212 0.960 . S
H1199 C1212 0.960 . S
C1200 H1192 0.929 . S
C1200 C1201 1.377 . S
C1200 C1202 1.384 . S
C1201 C1200 1.377 . S
C1201 C1207 1.390 . S
C1202 H1193 0.930 . S
C1202 C1200 1.384 . S
C1202 C1203 1.372 . S
C1203 C1202 1.372 . S
C1203 C1204 1.400 . S
C1203 C1208 1.490 . S
C1204 H1194 0.930 . S
C1204 C1203 1.400 . S
C1204 C1207 1.386 . S
H1205 C1221 0.930 . S
H1206 C1222 0.931 . S
C1207 H1195 0.929 . S
C1207 C1201 1.390 . S
C1207 C1204 1.386 . S
C1208 C1203 1.490 . S
C1208 C1210 1.395 . S
C1208 C1211 1.403 . S
H1209 C1215 0.930 . S
C1210 H1196 0.930 . S
C1210 C1208 1.395 . S
C1210 C1213 1.403 1_556 S
C1211 C1208 1.403 . S
C1211 C1212 1.524 . S
C1211 C1215 1.400 1_556 S
C1212 H1197 0.960 . S
C1212 H1198 0.960 . S
C1212 H1199 0.960 . S
C1212 C1211 1.524 . S
C1213 C1210 1.403 1_554 S
C1213 C1214 1.392 . S
C1213 C1217 1.495 . S
C1214 C1213 1.392 . S
C1214 C1215 1.385 . S
C1214 C1216 1.478 . S
C1215 H1209 0.930 . S
C1215 C1211 1.400 1_554 S
C1215 C1214 1.385 . S
C1216 C1214 1.478 . S
C1216 C1218 1.381 . S
C1216 C1222 1.383 . S
C1217 C1213 1.495 . S
C1217 H1223 0.959 . S
C1217 H1224 0.961 . S
C1217 H1225 0.960 . S
C1218 C1216 1.381 . S
C1218 C1219 1.394 . S
C1218 H1226 0.930 . S
C1219 C1218 1.394 . S
C1219 C1220 1.383 . S
C1219 H1227 0.929 . S
C1220 C1219 1.383 . S
C1220 C1221 1.377 . S
C1221 H1205 0.930 . S
C1221 C1220 1.377 . S
C1221 C1222 1.379 . S
C1222 H1206 0.931 . S
C1222 C1216 1.383 . S
C1222 C1221 1.379 . S
H1223 C1217 0.959 . S
H1224 C1217 0.961 . S
H1225 C1217 0.960 . S
H1226 C1218 0.930 . S
H1227 C1219 0.929 . S
H1228 C1236 0.929 . S
H1229 C1238 0.930 . S
H1230 C1240 0.930 . S
H1231 C1243 0.929 . S
H1232 C1246 0.930 . S
H1233 C1248 0.960 . S
H1234 C1248 0.960 . S
H1235 C1248 0.960 . S
C1236 H1228 0.929 . S
C1236 C1237 1.377 . S
C1236 C1238 1.384 . S
C1237 C1236 1.377 . S
C1237 C1243 1.390 . S
C1238 H1229 0.930 . S
C1238 C1236 1.384 . S
C1238 C1239 1.372 . S
C1239 C1238 1.372 . S
C1239 C1240 1.400 . S
C1239 C1244 1.490 . S
C1240 H1230 0.930 . S
C1240 C1239 1.400 . S
C1240 C1243 1.386 . S
H1241 C1257 0.930 . S
H1242 C1258 0.931 . S
C1243 H1231 0.929 . S
C1243 C1237 1.390 . S
C1243 C1240 1.386 . S
C1244 C1239 1.490 . S
C1244 C1246 1.395 . S
C1244 C1247 1.403 . S
H1245 C1251 0.930 . S
C1246 H1232 0.930 . S
C1246 C1244 1.395 . S
C1246 C1249 1.403 1_556 S
C1247 C1244 1.403 . S
C1247 C1248 1.524 . S
C1247 C1251 1.400 1_556 S
C1248 H1233 0.960 . S
C1248 H1234 0.960 . S
C1248 H1235 0.960 . S
C1248 C1247 1.524 . S
C1249 C1246 1.403 1_554 S
C1249 C1250 1.392 . S
C1249 C1253 1.495 . S
C1250 C1249 1.392 . S
C1250 C1251 1.385 . S
C1250 C1252 1.478 . S
C1251 H1245 0.930 . S
C1251 C1247 1.400 1_554 S
C1251 C1250 1.385 . S
C1252 C1250 1.478 . S
C1252 C1254 1.381 . S
C1252 C1258 1.383 . S
C1253 C1249 1.495 . S
C1253 H1259 0.959 . S
C1253 H1260 0.961 . S
C1253 H1261 0.960 . S
C1254 C1252 1.381 . S
C1254 C1255 1.394 . S
C1254 H1262 0.930 . S
C1255 C1254 1.394 . S
C1255 C1256 1.383 . S
C1255 H1263 0.929 . S
C1256 C1255 1.383 . S
C1256 C1257 1.377 . S
C1257 H1241 0.930 . S
C1257 C1256 1.377 . S
C1257 C1258 1.379 . S
C1258 H1242 0.931 . S
C1258 C1252 1.383 . S
C1258 C1257 1.379 . S
H1259 C1253 0.959 . S
H1260 C1253 0.961 . S
H1261 C1253 0.960 . S
H1262 C1254 0.930 . S
H1263 C1255 0.929 . S
H1264 C1272 0.929 . S
H1265 C1274 0.930 . S
H1266 C1276 0.930 . S
H1267 C1279 0.929 . S
H1268 C1282 0.930 . S
H1269 C1284 0.960 . S
H1270 C1284 0.960 . S
H1271 C1284 0.960 . S
C1272 H1264 0.929 . S
C1272 C1273 1.377 . S
C1272 C1274 1.384 . S
C1273 C1272 1.377 . S
C1273 C1279 1.390 . S
C1274 H1265 0.930 . S
C1274 C1272 1.384 . S
C1274 C1275 1.372 . S
C1275 C1274 1.372 . S
C1275 C1276 1.400 . S
C1275 C1280 1.490 . S
C1276 H1266 0.930 . S
C1276 C1275 1.400 . S
C1276 C1279 1.386 . S
H1277 C1293 0.930 . S
H1278 C1294 0.931 . S
C1279 H1267 0.929 . S
C1279 C1273 1.390 . S
C1279 C1276 1.386 . S
C1280 C1275 1.490 . S
C1280 C1282 1.395 . S
C1280 C1283 1.403 . S
H1281 C1287 0.930 . S
C1282 H1268 0.930 . S
C1282 C1280 1.395 . S
C1282 C1285 1.403 . S
C1283 C1280 1.403 . S
C1283 C1284 1.524 . S
C1283 C1287 1.400 . S
C1284 H1269 0.960 . S
C1284 H1270 0.960 . S
C1284 H1271 0.960 . S
C1284 C1283 1.524 . S
C1285 C1282 1.403 . S
C1285 C1286 1.392 . S
C1285 C1289 1.495 . S
C1286 C1285 1.392 . S
C1286 C1287 1.385 . S
C1286 C1288 1.478 . S
C1287 H1281 0.930 . S
C1287 C1283 1.400 . S
C1287 C1286 1.385 . S
C1288 C1286 1.478 . S
C1288 C1290 1.381 . S
C1288 C1294 1.383 . S
C1289 C1285 1.495 . S
C1289 H1295 0.959 . S
C1289 H1296 0.961 . S
C1289 H1297 0.960 . S
C1290 C1288 1.381 . S
C1290 C1291 1.394 . S
C1290 H1298 0.930 . S
C1291 C1290 1.394 . S
C1291 C1292 1.383 . S
C1291 H1299 0.929 . S
C1292 C1291 1.383 . S
C1292 C1293 1.377 . S
C1293 H1277 0.930 . S
C1293 C1292 1.377 . S
C1293 C1294 1.379 . S
C1294 H1278 0.931 . S
C1294 C1288 1.383 . S
C1294 C1293 1.379 . S
H1295 C1289 0.959 . S
H1296 C1289 0.961 . S
H1297 C1289 0.960 . S
H1298 C1290 0.930 . S
H1299 C1291 0.929 . S
H1300 C1308 0.929 . S
H1301 C1310 0.930 . S
H1302 C1312 0.930 . S
H1303 C1315 0.929 . S
H1304 C1318 0.930 . S
H1305 C1320 0.960 . S
H1306 C1320 0.960 . S
H1307 C1320 0.960 . S
C1308 H1300 0.929 . S
C1308 C1309 1.377 . S
C1308 C1310 1.384 . S
C1309 C1308 1.377 . S
C1309 C1315 1.390 . S
C1310 H1301 0.930 . S
C1310 C1308 1.384 . S
C1310 C1311 1.372 . S
C1311 C1310 1.372 . S
C1311 C1312 1.400 . S
C1311 C1316 1.490 . S
C1312 H1302 0.930 . S
C1312 C1311 1.400 . S
C1312 C1315 1.386 . S
H1313 C1329 0.930 . S
H1314 C1330 0.931 . S
C1315 H1303 0.929 . S
C1315 C1309 1.390 . S
C1315 C1312 1.386 . S
C1316 C1311 1.490 . S
C1316 C1318 1.395 . S
C1316 C1319 1.403 . S
H1317 C1323 0.930 . S
C1318 H1304 0.930 . S
C1318 C1316 1.395 . S
C1318 C1321 1.403 . S
C1319 C1316 1.403 . S
C1319 C1320 1.524 . S
C1319 C1323 1.400 . S
C1320 H1305 0.960 . S
C1320 H1306 0.960 . S
C1320 H1307 0.960 . S
C1320 C1319 1.524 . S
C1321 C1318 1.403 . S
C1321 C1322 1.392 . S
C1321 C1325 1.495 . S
C1322 C1321 1.392 . S
C1322 C1323 1.385 . S
C1322 C1324 1.478 . S
C1323 H1317 0.930 . S
C1323 C1319 1.400 . S
C1323 C1322 1.385 . S
C1324 C1322 1.478 . S
C1324 C1326 1.381 . S
C1324 C1330 1.383 . S
C1325 C1321 1.495 . S
C1325 H1331 0.959 . S
C1325 H1332 0.961 . S
C1325 H1333 0.960 . S
C1326 C1324 1.381 . S
C1326 C1327 1.394 . S
C1326 H1334 0.930 . S
C1327 C1326 1.394 . S
C1327 C1328 1.383 . S
C1327 H1335 0.929 . S
C1328 C1327 1.383 . S
C1328 C1329 1.377 . S
C1329 H1313 0.930 . S
C1329 C1328 1.377 . S
C1329 C1330 1.379 . S
C1330 H1314 0.931 . S
C1330 C1324 1.383 . S
C1330 C1329 1.379 . S
H1331 C1325 0.959 . S
H1332 C1325 0.961 . S
H1333 C1325 0.960 . S
H1334 C1326 0.930 . S
H1335 C1327 0.929 . S
H1336 C1344 0.929 . S
H1337 C1346 0.930 . S
H1338 C1348 0.930 . S
H1339 C1351 0.929 . S
H1340 C1354 0.930 . S
H1341 C1356 0.960 . S
H1342 C1356 0.960 . S
H1343 C1356 0.960 . S
C1344 H1336 0.929 . S
C1344 C1345 1.377 . S
C1344 C1346 1.384 . S
C1345 C1344 1.377 . S
C1345 C1351 1.390 . S
C1346 H1337 0.930 . S
C1346 C1344 1.384 . S
C1346 C1347 1.372 . S
C1347 C1346 1.372 . S
C1347 C1348 1.400 . S
C1347 C1352 1.490 . S
C1348 H1338 0.930 . S
C1348 C1347 1.400 . S
C1348 C1351 1.386 . S
H1349 C1365 0.930 . S
H1350 C1366 0.931 . S
C1351 H1339 0.929 . S
C1351 C1345 1.390 . S
C1351 C1348 1.386 . S
C1352 C1347 1.490 . S
C1352 C1354 1.395 . S
C1352 C1355 1.403 . S
H1353 C1359 0.930 . S
C1354 H1340 0.930 . S
C1354 C1352 1.395 . S
C1354 C1357 1.403 . S
C1355 C1352 1.403 . S
C1355 C1356 1.524 . S
C1355 C1359 1.400 . S
C1356 H1341 0.960 . S
C1356 H1342 0.960 . S
C1356 H1343 0.960 . S
C1356 C1355 1.524 . S
C1357 C1354 1.403 . S
C1357 C1358 1.392 . S
C1357 C1361 1.495 . S
C1358 C1357 1.392 . S
C1358 C1359 1.385 . S
C1358 C1360 1.478 . S
C1359 H1353 0.930 . S
C1359 C1355 1.400 . S
C1359 C1358 1.385 . S
C1360 C1358 1.478 . S
C1360 C1362 1.381 . S
C1360 C1366 1.383 . S
C1361 C1357 1.495 . S
C1361 H1367 0.959 . S
C1361 H1368 0.961 . S
C1361 H1369 0.960 . S
C1362 C1360 1.381 . S
C1362 C1363 1.394 . S
C1362 H1370 0.930 . S
C1363 C1362 1.394 . S
C1363 C1364 1.383 . S
C1363 H1371 0.929 . S
C1364 C1363 1.383 . S
C1364 C1365 1.377 . S
C1365 H1349 0.930 . S
C1365 C1364 1.377 . S
C1365 C1366 1.379 . S
C1366 H1350 0.931 . S
C1366 C1360 1.383 . S
C1366 C1365 1.379 . S
H1367 C1361 0.959 . S
H1368 C1361 0.961 . S
H1369 C1361 0.960 . S
H1370 C1362 0.930 . S
H1371 C1363 0.929 . S
H1372 C1380 0.929 . S
H1373 C1382 0.930 . S
H1374 C1384 0.930 . S
H1375 C1387 0.929 . S
H1376 C1390 0.930 . S
H1377 C1392 0.960 . S
H1378 C1392 0.960 . S
H1379 C1392 0.960 . S
C1380 H1372 0.929 . S
C1380 C1381 1.377 . S
C1380 C1382 1.384 . S
C1381 C1380 1.377 . S
C1381 C1387 1.390 . S
C1382 H1373 0.930 . S
C1382 C1380 1.384 . S
C1382 C1383 1.372 . S
C1383 C1382 1.372 . S
C1383 C1384 1.400 . S
C1383 C1388 1.490 . S
C1384 H1374 0.930 . S
C1384 C1383 1.400 . S
C1384 C1387 1.386 . S
H1385 C1401 0.930 . S
H1386 C1402 0.931 . S
C1387 H1375 0.929 . S
C1387 C1381 1.390 . S
C1387 C1384 1.386 . S
C1388 C1383 1.490 . S
C1388 C1390 1.395 . S
C1388 C1391 1.403 . S
H1389 C1395 0.930 . S
C1390 H1376 0.930 . S
C1390 C1388 1.395 . S
C1390 C1393 1.403 . S
C1391 C1388 1.403 . S
C1391 C1392 1.524 . S
C1391 C1395 1.400 . S
C1392 H1377 0.960 . S
C1392 H1378 0.960 . S
C1392 H1379 0.960 . S
C1392 C1391 1.524 . S
C1393 C1390 1.403 . S
C1393 C1394 1.392 . S
C1393 C1397 1.495 . S
C1394 C1393 1.392 . S
C1394 C1395 1.385 . S
C1394 C1396 1.478 . S
C1395 H1389 0.930 . S
C1395 C1391 1.400 . S
C1395 C1394 1.385 . S
C1396 C1394 1.478 . S
C1396 C1398 1.381 . S
C1396 C1402 1.383 . S
C1397 C1393 1.495 . S
C1397 H1403 0.959 . S
C1397 H1404 0.961 . S
C1397 H1405 0.960 . S
C1398 C1396 1.381 . S
C1398 C1399 1.394 . S
C1398 H1406 0.930 . S
C1399 C1398 1.394 . S
C1399 C1400 1.383 . S
C1399 H1407 0.929 . S
C1400 C1399 1.383 . S
C1400 C1401 1.377 . S
C1401 H1385 0.930 . S
C1401 C1400 1.377 . S
C1401 C1402 1.379 . S
C1402 H1386 0.931 . S
C1402 C1396 1.383 . S
C1402 C1401 1.379 . S
H1403 C1397 0.959 . S
H1404 C1397 0.961 . S
H1405 C1397 0.960 . S
H1406 C1398 0.930 . S
H1407 C1399 0.929 . S
H1408 C1416 0.929 . S
H1409 C1418 0.930 . S
H1410 C1420 0.930 . S
H1411 C1423 0.929 . S
H1412 C1426 0.930 . S
H1413 C1428 0.960 . S
H1414 C1428 0.960 . S
H1415 C1428 0.960 . S
C1416 H1408 0.929 . S
C1416 C1417 1.377 . S
C1416 C1418 1.384 . S
C1417 C1416 1.377 . S
C1417 C1423 1.390 . S
C1418 H1409 0.930 . S
C1418 C1416 1.384 . S
C1418 C1419 1.372 . S
C1419 C1418 1.372 . S
C1419 C1420 1.400 . S
C1419 C1424 1.490 . S
C1420 H1410 0.930 . S
C1420 C1419 1.400 . S
C1420 C1423 1.386 . S
H1421 C1437 0.930 . S
H1422 C1438 0.931 . S
C1423 H1411 0.929 . S
C1423 C1417 1.390 . S
C1423 C1420 1.386 . S
C1424 C1419 1.490 . S
C1424 C1426 1.395 . S
C1424 C1427 1.403 . S
H1425 C1431 0.930 . S
C1426 H1412 0.930 . S
C1426 C1424 1.395 . S
C1426 C1429 1.403 . S
C1427 C1424 1.403 . S
C1427 C1428 1.524 . S
C1427 C1431 1.400 . S
C1428 H1413 0.960 . S
C1428 H1414 0.960 . S
C1428 H1415 0.960 . S
C1428 C1427 1.524 . S
C1429 C1426 1.403 . S
C1429 C1430 1.392 . S
C1429 C1433 1.495 . S
C1430 C1429 1.392 . S
C1430 C1431 1.385 . S
C1430 C1432 1.478 . S
C1431 H1425 0.930 . S
C1431 C1427 1.400 . S
C1431 C1430 1.385 . S
C1432 C1430 1.478 . S
C1432 C1434 1.381 . S
C1432 C1438 1.383 . S
C1433 C1429 1.495 . S
C1433 H1439 0.959 . S
C1433 H1440 0.961 . S
C1433 H1441 0.960 . S
C1434 C1432 1.381 . S
C1434 C1435 1.394 . S
C1434 H1442 0.930 . S
C1435 C1434 1.394 . S
C1435 C1436 1.383 . S
C1435 H1443 0.929 . S
C1436 C1435 1.383 . S
C1436 C1437 1.377 . S
C1437 H1421 0.930 . S
C1437 C1436 1.377 . S
C1437 C1438 1.379 . S
C1438 H1422 0.931 . S
C1438 C1432 1.383 . S
C1438 C1437 1.379 . S
H1439 C1433 0.959 . S
H1440 C1433 0.961 . S
H1441 C1433 0.960 . S
H1442 C1434 0.930 . S
H1443 C1435 0.929 . S
H1444 C1452 0.929 . S
H1445 C1454 0.930 . S
H1446 C1456 0.930 . S
H1447 C1459 0.929 . S
H1448 C1462 0.930 . S
H1449 C1464 0.960 . S
H1450 C1464 0.960 . S
H1451 C1464 0.960 . S
C1452 H1444 0.929 . S
C1452 C1453 1.377 . S
C1452 C1454 1.384 . S
C1453 C1452 1.377 . S
C1453 C1459 1.390 . S
C1454 H1445 0.930 . S
C1454 C1452 1.384 . S
C1454 C1455 1.372 . S
C1455 C1454 1.372 . S
C1455 C1456 1.400 . S
C1455 C1460 1.490 . S
C1456 H1446 0.930 . S
C1456 C1455 1.400 . S
C1456 C1459 1.386 . S
H1457 C1473 0.930 . S
H1458 C1474 0.931 . S
C1459 H1447 0.929 . S
C1459 C1453 1.390 . S
C1459 C1456 1.386 . S
C1460 C1455 1.490 . S
C1460 C1462 1.395 . S
C1460 C1463 1.403 . S
H1461 C1467 0.930 . S
C1462 H1448 0.930 . S
C1462 C1460 1.395 . S
C1462 C1465 1.403 . S
C1463 C1460 1.403 . S
C1463 C1464 1.524 . S
C1463 C1467 1.400 . S
C1464 H1449 0.960 . S
C1464 H1450 0.960 . S
C1464 H1451 0.960 . S
C1464 C1463 1.524 . S
C1465 C1462 1.403 . S
C1465 C1466 1.392 . S
C1465 C1469 1.495 . S
C1466 C1465 1.392 . S
C1466 C1467 1.385 . S
C1466 C1468 1.478 . S
C1467 H1461 0.930 . S
C1467 C1463 1.400 . S
C1467 C1466 1.385 . S
C1468 C1466 1.478 . S
C1468 C1470 1.381 . S
C1468 C1474 1.383 . S
C1469 C1465 1.495 . S
C1469 H1475 0.959 . S
C1469 H1476 0.961 . S
C1469 H1477 0.960 . S
C1470 C1468 1.381 . S
C1470 C1471 1.394 . S
C1470 H1478 0.930 . S
C1471 C1470 1.394 . S
C1471 C1472 1.383 . S
C1471 H1479 0.929 . S
C1472 C1471 1.383 . S
C1472 C1473 1.377 . S
C1473 H1457 0.930 . S
C1473 C1472 1.377 . S
C1473 C1474 1.379 . S
C1474 H1458 0.931 . S
C1474 C1468 1.383 . S
C1474 C1473 1.379 . S
H1475 C1469 0.959 . S
H1476 C1469 0.961 . S
H1477 C1469 0.960 . S
H1478 C1470 0.930 . S
H1479 C1471 0.929 . S
H1480 C1488 0.929 . S
H1481 C1490 0.930 . S
H1482 C1492 0.930 . S
H1483 C1495 0.929 . S
H1484 C1498 0.930 . S
H1485 C1500 0.960 . S
H1486 C1500 0.960 . S
H1487 C1500 0.960 . S
C1488 H1480 0.929 . S
C1488 C1489 1.377 . S
C1488 C1490 1.384 . S
C1489 C1488 1.377 . S
C1489 C1495 1.390 . S
C1490 H1481 0.930 . S
C1490 C1488 1.384 . S
C1490 C1491 1.372 . S
C1491 C1490 1.372 . S
C1491 C1492 1.400 . S
C1491 C1496 1.490 . S
C1492 H1482 0.930 . S
C1492 C1491 1.400 . S
C1492 C1495 1.386 . S
H1493 C1509 0.930 . S
H1494 C1510 0.931 . S
C1495 H1483 0.929 . S
C1495 C1489 1.390 . S
C1495 C1492 1.386 . S
C1496 C1491 1.490 . S
C1496 C1498 1.395 . S
C1496 C1499 1.403 . S
H1497 C1503 0.930 . S
C1498 H1484 0.930 . S
C1498 C1496 1.395 . S
C1498 C1501 1.403 . S
C1499 C1496 1.403 . S
C1499 C1500 1.524 . S
C1499 C1503 1.400 . S
C1500 H1485 0.960 . S
C1500 H1486 0.960 . S
C1500 H1487 0.960 . S
C1500 C1499 1.524 . S
C1501 C1498 1.403 . S
C1501 C1502 1.392 . S
C1501 C1505 1.495 . S
C1502 C1501 1.392 . S
C1502 C1503 1.385 . S
C1502 C1504 1.478 . S
C1503 H1497 0.930 . S
C1503 C1499 1.400 . S
C1503 C1502 1.385 . S
C1504 C1502 1.478 . S
C1504 C1506 1.381 . S
C1504 C1510 1.383 . S
C1505 C1501 1.495 . S
C1505 H1511 0.959 . S
C1505 H1512 0.961 . S
C1505 H1513 0.960 . S
C1506 C1504 1.381 . S
C1506 C1507 1.394 . S
C1506 H1514 0.930 . S
C1507 C1506 1.394 . S
C1507 C1508 1.383 . S
C1507 H1515 0.929 . S
C1508 C1507 1.383 . S
C1508 C1509 1.377 . S
C1509 H1493 0.930 . S
C1509 C1508 1.377 . S
C1509 C1510 1.379 . S
C1510 H1494 0.931 . S
C1510 C1504 1.383 . S
C1510 C1509 1.379 . S
H1511 C1505 0.959 . S
H1512 C1505 0.961 . S
H1513 C1505 0.960 . S
H1514 C1506 0.930 . S
H1515 C1507 0.929 . S
H1516 C1524 0.929 . S
H1517 C1526 0.930 . S
H1518 C1528 0.930 . S
H1519 C1531 0.929 . S
H1520 C1534 0.930 . S
H1521 C1536 0.960 . S
H1522 C1536 0.960 . S
H1523 C1536 0.960 . S
C1524 H1516 0.929 . S
C1524 C1525 1.377 . S
C1524 C1526 1.384 . S
C1525 C1524 1.377 . S
C1525 C1531 1.390 . S
C1526 H1517 0.930 . S
C1526 C1524 1.384 . S
C1526 C1527 1.372 . S
C1527 C1526 1.372 . S
C1527 C1528 1.400 . S
C1527 C1532 1.490 . S
C1528 H1518 0.930 . S
C1528 C1527 1.400 . S
C1528 C1531 1.386 . S
H1529 C1545 0.930 . S
H1530 C1546 0.931 . S
C1531 H1519 0.929 . S
C1531 C1525 1.390 . S
C1531 C1528 1.386 . S
C1532 C1527 1.490 . S
C1532 C1534 1.395 . S
C1532 C1535 1.403 . S
H1533 C1539 0.930 . S
C1534 H1520 0.930 . S
C1534 C1532 1.395 . S
C1534 C1537 1.403 . S
C1535 C1532 1.403 . S
C1535 C1536 1.524 . S
C1535 C1539 1.400 . S
C1536 H1521 0.960 . S
C1536 H1522 0.960 . S
C1536 H1523 0.960 . S
C1536 C1535 1.524 . S
C1537 C1534 1.403 . S
C1537 C1538 1.392 . S
C1537 C1541 1.495 . S
C1538 C1537 1.392 . S
C1538 C1539 1.385 . S
C1538 C1540 1.478 . S
C1539 H1533 0.930 . S
C1539 C1535 1.400 . S
C1539 C1538 1.385 . S
C1540 C1538 1.478 . S
C1540 C1542 1.381 . S
C1540 C1546 1.383 . S
C1541 C1537 1.495 . S
C1541 H1547 0.959 . S
C1541 H1548 0.961 . S
C1541 H1549 0.960 . S
C1542 C1540 1.381 . S
C1542 C1543 1.394 . S
C1542 H1550 0.930 . S
C1543 C1542 1.394 . S
C1543 C1544 1.383 . S
C1543 H1551 0.929 . S
C1544 C1543 1.383 . S
C1544 C1545 1.377 . S
C1545 H1529 0.930 . S
C1545 C1544 1.377 . S
C1545 C1546 1.379 . S
C1546 H1530 0.931 . S
C1546 C1540 1.383 . S
C1546 C1545 1.379 . S
H1547 C1541 0.959 . S
H1548 C1541 0.961 . S
H1549 C1541 0.960 . S
H1550 C1542 0.930 . S
H1551 C1543 0.929 . S
H1552 C1560 0.929 . S
H1553 C1562 0.930 . S
H1554 C1564 0.930 . S
H1555 C1567 0.929 . S
H1556 C1570 0.930 . S
H1557 C1572 0.960 . S
H1558 C1572 0.960 . S
H1559 C1572 0.960 . S
C1560 H1552 0.929 . S
C1560 C1561 1.377 . S
C1560 C1562 1.384 . S
C1561 C1560 1.377 . S
C1561 C1567 1.390 . S
C1562 H1553 0.930 . S
C1562 C1560 1.384 . S
C1562 C1563 1.372 . S
C1563 C1562 1.372 . S
C1563 C1564 1.400 . S
C1563 C1568 1.490 . S
C1564 H1554 0.930 . S
C1564 C1563 1.400 . S
C1564 C1567 1.386 . S
H1565 C1581 0.930 . S
H1566 C1582 0.931 . S
C1567 H1555 0.929 . S
C1567 C1561 1.390 . S
C1567 C1564 1.386 . S
C1568 C1563 1.490 . S
C1568 C1570 1.395 . S
C1568 C1571 1.403 . S
H1569 C1575 0.930 . S
C1570 H1556 0.930 . S
C1570 C1568 1.395 . S
C1570 C1573 1.403 . S
C1571 C1568 1.403 . S
C1571 C1572 1.524 . S
C1571 C1575 1.400 . S
C1572 H1557 0.960 . S
C1572 H1558 0.960 . S
C1572 H1559 0.960 . S
C1572 C1571 1.524 . S
C1573 C1570 1.403 . S
C1573 C1574 1.392 . S
C1573 C1577 1.495 . S
C1574 C1573 1.392 . S
C1574 C1575 1.385 . S
C1574 C1576 1.478 . S
C1575 H1569 0.930 . S
C1575 C1571 1.400 . S
C1575 C1574 1.385 . S
C1576 C1574 1.478 . S
C1576 C1578 1.381 . S
C1576 C1582 1.383 . S
C1577 C1573 1.495 . S
C1577 H1583 0.959 . S
C1577 H1584 0.961 . S
C1577 H1585 0.960 . S
C1578 C1576 1.381 . S
C1578 C1579 1.394 . S
C1578 H1586 0.930 . S
C1579 C1578 1.394 . S
C1579 C1580 1.383 . S
C1579 H1587 0.929 . S
C1580 C1579 1.383 . S
C1580 C1581 1.377 . S
C1581 H1565 0.930 . S
C1581 C1580 1.377 . S
C1581 C1582 1.379 . S
C1582 H1566 0.931 . S
C1582 C1576 1.383 . S
C1582 C1581 1.379 . S
H1583 C1577 0.959 . S
H1584 C1577 0.961 . S
H1585 C1577 0.960 . S
H1586 C1578 0.930 . S
H1587 C1579 0.929 . S
H1588 C1596 0.929 . S
H1589 C1598 0.930 . S
H1590 C1600 0.930 . S
H1591 C1603 0.929 . S
H1592 C1606 0.930 . S
H1593 C1608 0.960 . S
H1594 C1608 0.960 . S
H1595 C1608 0.960 . S
C1596 H1588 0.929 . S
C1596 C1597 1.377 . S
C1596 C1598 1.384 . S
C1597 C1596 1.377 . S
C1597 C1603 1.390 . S
C1598 H1589 0.930 . S
C1598 C1596 1.384 . S
C1598 C1599 1.372 . S
C1599 C1598 1.372 . S
C1599 C1600 1.400 . S
C1599 C1604 1.490 . S
C1600 H1590 0.930 . S
C1600 C1599 1.400 . S
C1600 C1603 1.386 . S
H1601 C1617 0.930 . S
H1602 C1618 0.931 . S
C1603 H1591 0.929 . S
C1603 C1597 1.390 . S
C1603 C1600 1.386 . S
C1604 C1599 1.490 . S
C1604 C1606 1.395 . S
C1604 C1607 1.403 . S
H1605 C1611 0.930 . S
C1606 H1592 0.930 . S
C1606 C1604 1.395 . S
C1606 C1609 1.403 . S
C1607 C1604 1.403 . S
C1607 C1608 1.524 . S
C1607 C1611 1.400 . S
C1608 H1593 0.960 . S
C1608 H1594 0.960 . S
C1608 H1595 0.960 . S
C1608 C1607 1.524 . S
C1609 C1606 1.403 . S
C1609 C1610 1.392 . S
C1609 C1613 1.495 . S
C1610 C1609 1.392 . S
C1610 C1611 1.385 . S
C1610 C1612 1.478 . S
C1611 H1605 0.930 . S
C1611 C1607 1.400 . S
C1611 C1610 1.385 . S
C1612 C1610 1.478 . S
C1612 C1614 1.381 . S
C1612 C1618 1.383 . S
C1613 C1609 1.495 . S
C1613 H1619 0.959 . S
C1613 H1620 0.961 . S
C1613 H1621 0.960 . S
C1614 C1612 1.381 . S
C1614 C1615 1.394 . S
C1614 H1622 0.930 . S
C1615 C1614 1.394 . S
C1615 C1616 1.383 . S
C1615 H1623 0.929 . S
C1616 C1615 1.383 . S
C1616 C1617 1.377 . S
C1617 H1601 0.930 . S
C1617 C1616 1.377 . S
C1617 C1618 1.379 . S
C1618 H1602 0.931 . S
C1618 C1612 1.383 . S
C1618 C1617 1.379 . S
H1619 C1613 0.959 . S
H1620 C1613 0.961 . S
H1621 C1613 0.960 . S
H1622 C1614 0.930 . S
H1623 C1615 0.929 . S
H1624 C1632 0.929 . S
H1625 C1634 0.930 . S
H1626 C1636 0.930 . S
H1627 C1639 0.929 . S
H1628 C1642 0.930 . S
H1629 C1644 0.960 . S
H1630 C1644 0.960 . S
H1631 C1644 0.960 . S
C1632 H1624 0.929 . S
C1632 C1633 1.377 . S
C1632 C1634 1.384 . S
C1633 C1632 1.377 . S
C1633 C1639 1.390 . S
C1634 H1625 0.930 . S
C1634 C1632 1.384 . S
C1634 C1635 1.372 . S
C1635 C1634 1.372 . S
C1635 C1636 1.400 . S
C1635 C1640 1.490 . S
C1636 H1626 0.930 . S
C1636 C1635 1.400 . S
C1636 C1639 1.386 . S
H1637 C1653 0.930 . S
H1638 C1654 0.931 . S
C1639 H1627 0.929 . S
C1639 C1633 1.390 . S
C1639 C1636 1.386 . S
C1640 C1635 1.490 . S
C1640 C1642 1.395 . S
C1640 C1643 1.403 . S
H1641 C1647 0.930 . S
C1642 H1628 0.930 . S
C1642 C1640 1.395 . S
C1642 C1645 1.403 . S
C1643 C1640 1.403 . S
C1643 C1644 1.524 . S
C1643 C1647 1.400 . S
C1644 H1629 0.960 . S
C1644 H1630 0.960 . S
C1644 H1631 0.960 . S
C1644 C1643 1.524 . S
C1645 C1642 1.403 . S
C1645 C1646 1.392 . S
C1645 C1649 1.495 . S
C1646 C1645 1.392 . S
C1646 C1647 1.385 . S
C1646 C1648 1.478 . S
C1647 H1641 0.930 . S
C1647 C1643 1.400 . S
C1647 C1646 1.385 . S
C1648 C1646 1.478 . S
C1648 C1650 1.381 . S
C1648 C1654 1.383 . S
C1649 C1645 1.495 . S
C1649 H1655 0.959 . S
C1649 H1656 0.961 . S
C1649 H1657 0.960 . S
C1650 C1648 1.381 . S
C1650 C1651 1.394 . S
C1650 H1658 0.930 . S
C1651 C1650 1.394 . S
C1651 C1652 1.383 . S
C1651 H1659 0.929 . S
C1652 C1651 1.383 . S
C1652 C1653 1.377 . S
C1653 H1637 0.930 . S
C1653 C1652 1.377 . S
C1653 C1654 1.379 . S
C1654 H1638 0.931 . S
C1654 C1648 1.383 . S
C1654 C1653 1.379 . S
H1655 C1649 0.959 . S
H1656 C1649 0.961 . S
H1657 C1649 0.960 . S
H1658 C1650 0.930 . S
H1659 C1651 0.929 . S
H1660 C1668 0.929 . S
H1661 C1670 0.930 . S
H1662 C1672 0.930 . S
H1663 C1675 0.929 . S
H1664 C1678 0.930 . S
H1665 C1680 0.960 . S
H1666 C1680 0.960 . S
H1667 C1680 0.960 . S
C1668 H1660 0.929 . S
C1668 C1669 1.377 . S
C1668 C1670 1.384 . S
C1669 C1668 1.377 . S
C1669 C1675 1.390 . S
C1670 H1661 0.930 . S
C1670 C1668 1.384 . S
C1670 C1671 1.372 . S
C1671 C1670 1.372 . S
C1671 C1672 1.400 . S
C1671 C1676 1.490 . S
C1672 H1662 0.930 . S
C1672 C1671 1.400 . S
C1672 C1675 1.386 . S
H1673 C1689 0.930 . S
H1674 C1690 0.931 . S
C1675 H1663 0.929 . S
C1675 C1669 1.390 . S
C1675 C1672 1.386 . S
C1676 C1671 1.490 . S
C1676 C1678 1.395 . S
C1676 C1679 1.403 . S
H1677 C1683 0.930 . S
C1678 H1664 0.930 . S
C1678 C1676 1.395 . S
C1678 C1681 1.403 . S
C1679 C1676 1.403 . S
C1679 C1680 1.524 . S
C1679 C1683 1.400 . S
C1680 H1665 0.960 . S
C1680 H1666 0.960 . S
C1680 H1667 0.960 . S
C1680 C1679 1.524 . S
C1681 C1678 1.403 . S
C1681 C1682 1.392 . S
C1681 C1685 1.495 . S
C1682 C1681 1.392 . S
C1682 C1683 1.385 . S
C1682 C1684 1.478 . S
C1683 H1677 0.930 . S
C1683 C1679 1.400 . S
C1683 C1682 1.385 . S
C1684 C1682 1.478 . S
C1684 C1686 1.381 . S
C1684 C1690 1.383 . S
C1685 C1681 1.495 . S
C1685 H1691 0.959 . S
C1685 H1692 0.961 . S
C1685 H1693 0.960 . S
C1686 C1684 1.381 . S
C1686 C1687 1.394 . S
C1686 H1694 0.930 . S
C1687 C1686 1.394 . S
C1687 C1688 1.383 . S
C1687 H1695 0.929 . S
C1688 C1687 1.383 . S
C1688 C1689 1.377 . S
C1689 H1673 0.930 . S
C1689 C1688 1.377 . S
C1689 C1690 1.379 . S
C1690 H1674 0.931 . S
C1690 C1684 1.383 . S
C1690 C1689 1.379 . S
H1691 C1685 0.959 . S
H1692 C1685 0.961 . S
H1693 C1685 0.960 . S
H1694 C1686 0.930 . S
H1695 C1687 0.929 . S
H1696 C1704 0.929 . S
H1697 C1706 0.930 . S
H1698 C1708 0.930 . S
H1699 C1711 0.929 . S
H1700 C1714 0.930 . S
H1701 C1716 0.960 1_565 S
H1702 C1716 0.960 . S
H1703 C1716 0.960 . S
C1704 H1696 0.929 . S
C1704 C1705 1.377 . S
C1704 C1706 1.384 . S
C1705 C1704 1.377 . S
C1705 C1711 1.390 . S
C1706 H1697 0.930 . S
C1706 C1704 1.384 . S
C1706 C1707 1.372 . S
C1707 C1706 1.372 . S
C1707 C1708 1.400 . S
C1707 C1712 1.490 . S
C1708 H1698 0.930 . S
C1708 C1707 1.400 . S
C1708 C1711 1.386 . S
H1709 C1725 0.930 . S
H1710 C1726 0.931 . S
C1711 H1699 0.929 . S
C1711 C1705 1.390 . S
C1711 C1708 1.386 . S
C1712 C1707 1.490 . S
C1712 C1714 1.395 . S
C1712 C1715 1.403 . S
H1713 C1719 0.930 . S
C1714 H1700 0.930 . S
C1714 C1712 1.395 . S
C1714 C1717 1.403 1_545 S
C1715 C1712 1.403 . S
C1715 C1716 1.524 . S
C1715 C1719 1.400 1_545 S
C1716 H1701 0.960 1_545 S
C1716 H1702 0.960 . S
C1716 H1703 0.960 . S
C1716 C1715 1.524 . S
C1717 C1714 1.403 1_565 S
C1717 C1718 1.392 . S
C1717 C1721 1.495 . S
C1718 C1717 1.392 . S
C1718 C1719 1.385 . S
C1718 C1720 1.478 . S
C1719 H1713 0.930 . S
C1719 C1715 1.400 1_565 S
C1719 C1718 1.385 . S
C1720 C1718 1.478 . S
C1720 C1722 1.381 . S
C1720 C1726 1.383 . S
C1721 C1717 1.495 . S
C1721 H1727 0.959 1_565 S
C1721 H1728 0.961 . S
C1721 H1729 0.960 . S
C1722 C1720 1.381 . S
C1722 C1723 1.394 . S
C1722 H1730 0.930 . S
C1723 C1722 1.394 . S
C1723 C1724 1.383 . S
C1723 H1731 0.929 . S
C1724 C1723 1.383 . S
C1724 C1725 1.377 . S
C1725 H1709 0.930 . S
C1725 C1724 1.377 . S
C1725 C1726 1.379 . S
C1726 H1710 0.931 . S
C1726 C1720 1.383 . S
C1726 C1725 1.379 . S
H1727 C1721 0.959 1_545 S
H1728 C1721 0.961 . S
H1729 C1721 0.960 . S
H1730 C1722 0.930 . S
H1731 C1723 0.929 . S
H1732 C1740 0.929 . S
H1733 C1742 0.930 . S
H1734 C1744 0.930 . S
H1735 C1747 0.929 . S
H1736 C1750 0.936 . S
H1737 C1752 0.960 . S
H1738 C1752 0.960 . S
H1739 C1752 0.960 . S
C1740 H1732 0.929 . S
C1740 C1741 1.377 . S
C1740 C1742 1.384 . S
C1741 C1740 1.377 . S
C1741 C1747 1.390 . S
C1742 H1733 0.930 . S
C1742 C1740 1.384 . S
C1742 C1743 1.372 . S
C1743 C1742 1.372 . S
C1743 C1744 1.400 . S
C1743 C1748 1.490 . S
C1744 H1734 0.930 . S
C1744 C1743 1.400 . S
C1744 C1747 1.386 . S
H1745 C1761 0.930 . S
H1746 C1762 0.931 . S
C1747 H1735 0.929 . S
C1747 C1741 1.390 . S
C1747 C1744 1.386 . S
C1748 C1743 1.490 . S
C1748 C1750 1.434 . S
C1748 C1751 1.403 . S
H1749 C1755 0.930 . S
C1750 H1736 0.936 . S
C1750 C1748 1.434 . S
C1750 C1753 1.359 1_655 S
C1751 C1748 1.403 . S
C1751 C1752 1.524 . S
C1751 C1755 1.400 1_655 S
C1752 H1737 0.960 . S
C1752 H1738 0.960 . S
C1752 H1739 0.960 . S
C1752 C1751 1.524 . S
C1753 C1750 1.359 1_455 S
C1753 C1754 1.392 . S
C1753 C1757 1.495 . S
C1754 C1753 1.392 . S
C1754 C1755 1.385 . S
C1754 C1756 1.478 . S
C1755 H1749 0.930 . S
C1755 C1751 1.400 1_455 S
C1755 C1754 1.385 . S
C1756 C1754 1.478 . S
C1756 C1758 1.381 . S
C1756 C1762 1.383 . S
C1757 C1753 1.495 . S
C1757 H1763 0.959 . S
C1757 H1764 0.961 . S
C1757 H1765 0.960 . S
C1758 C1756 1.381 . S
C1758 C1759 1.394 . S
C1758 H1766 0.930 . S
C1759 C1758 1.394 . S
C1759 C1760 1.383 . S
C1759 H1767 0.929 . S
C1760 C1759 1.383 . S
C1760 C1761 1.377 . S
C1761 H1745 0.930 . S
C1761 C1760 1.377 . S
C1761 C1762 1.379 . S
C1762 H1746 0.931 . S
C1762 C1756 1.383 . S
C1762 C1761 1.379 . S
H1763 C1757 0.959 . S
H1764 C1757 0.961 . S
H1765 C1757 0.960 . S
H1766 C1758 0.930 . S
H1767 C1759 0.929 . S
H1768 C1776 0.929 . S
H1769 C1778 0.930 . S
H1770 C1780 0.930 . S
H1771 C1783 0.929 . S
H1772 C1786 0.930 . S
H1773 C1788 0.960 . S
H1774 C1788 0.959 1_545 S
H1775 C1788 0.960 1_545 S
C1776 H1768 0.929 . S
C1776 C1777 1.377 . S
C1776 C1778 1.384 . S
C1777 C1776 1.377 . S
C1777 C1783 1.390 . S
C1778 H1769 0.930 . S
C1778 C1776 1.384 . S
C1778 C1779 1.372 . S
C1779 C1778 1.372 . S
C1779 C1780 1.400 . S
C1779 C1784 1.490 . S
C1780 H1770 0.930 . S
C1780 C1779 1.400 . S
C1780 C1783 1.386 . S
H1781 C1797 0.930 . S
H1782 C1798 0.931 . S
C1783 H1771 0.929 . S
C1783 C1777 1.390 . S
C1783 C1780 1.386 . S
C1784 C1779 1.490 . S
C1784 C1786 1.395 . S
C1784 C1787 1.365 1_545 S
H1785 C1791 0.930 . S
C1786 H1772 0.930 . S
C1786 C1784 1.395 . S
C1786 C1789 1.403 . S
C1787 C1784 1.365 1_565 S
C1787 C1788 1.530 . S
C1787 C1791 1.434 . S
C1788 H1773 0.960 . S
C1788 H1774 0.959 1_565 S
C1788 H1775 0.960 1_565 S
C1788 C1787 1.530 . S
C1789 C1786 1.403 . S
C1789 C1790 1.392 1_545 S
C1789 C1793 1.495 . S
C1790 C1789 1.392 1_565 S
C1790 C1791 1.385 . S
C1790 C1792 1.478 . S
C1791 H1785 0.930 . S
C1791 C1787 1.434 . S
C1791 C1790 1.385 . S
C1792 C1790 1.478 . S
C1792 C1794 1.381 . S
C1792 C1798 1.383 . S
C1793 C1789 1.495 . S
C1793 H1799 0.959 . S
C1793 H1800 0.977 . S
C1793 H1801 0.960 1_545 S
C1794 C1792 1.381 . S
C1794 C1795 1.394 . S
C1794 H1802 0.930 . S
C1795 C1794 1.394 . S
C1795 C1796 1.383 . S
C1795 H1803 0.929 . S
C1796 C1795 1.383 . S
C1796 C1797 1.377 . S
C1797 H1781 0.930 . S
C1797 C1796 1.377 . S
C1797 C1798 1.379 . S
C1798 H1782 0.931 . S
C1798 C1792 1.383 . S
C1798 C1797 1.379 . S
H1799 C1793 0.959 . S
H1800 C1793 0.977 . S
H1801 C1793 0.960 1_565 S
H1802 C1794 0.930 . S
H1803 C1795 0.929 . S
H1804 C1812 0.929 . S
H1805 C1814 0.930 . S
H1806 C1816 0.930 . S
H1807 C1819 0.929 . S
H1808 C1822 0.930 . S
H1809 C1824 0.960 . S
H1810 C1824 0.960 . S
H1811 C1824 0.960 . S
C1812 H1804 0.929 . S
C1812 C1813 1.377 . S
C1812 C1814 1.384 . S
C1813 C1812 1.377 . S
C1813 C1819 1.390 . S
C1814 H1805 0.930 . S
C1814 C1812 1.384 . S
C1814 C1815 1.372 . S
C1815 C1814 1.372 . S
C1815 C1816 1.400 . S
C1815 C1820 1.490 . S
C1816 H1806 0.930 . S
C1816 C1815 1.400 . S
C1816 C1819 1.386 . S
H1817 C1833 0.930 . S
H1818 C1834 0.931 . S
C1819 H1807 0.929 . S
C1819 C1813 1.390 . S
C1819 C1816 1.386 . S
C1820 C1815 1.490 . S
C1820 C1822 1.395 . S
C1820 C1823 1.403 . S
H1821 C1827 0.930 . S
C1822 H1808 0.930 . S
C1822 C1820 1.395 . S
C1822 C1825 1.403 1_655 S
C1823 C1820 1.403 . S
C1823 C1824 1.524 . S
C1823 C1827 1.400 1_655 S
C1824 H1809 0.960 . S
C1824 H1810 0.960 . S
C1824 H1811 0.960 . S
C1824 C1823 1.524 . S
C1825 C1822 1.403 1_455 S
C1825 C1826 1.392 . S
C1825 C1829 1.495 . S
C1826 C1825 1.392 . S
C1826 C1827 1.385 . S
C1826 C1828 1.478 . S
C1827 H1821 0.930 . S
C1827 C1823 1.400 1_455 S
C1827 C1826 1.385 . S
C1828 C1826 1.478 . S
C1828 C1830 1.381 . S
C1828 C1834 1.383 . S
C1829 C1825 1.495 . S
C1829 H1835 0.959 . S
C1829 H1836 0.961 . S
C1829 H1837 0.960 . S
C1830 C1828 1.381 . S
C1830 C1831 1.394 . S
C1830 H1838 0.930 . S
C1831 C1830 1.394 . S
C1831 C1832 1.383 . S
C1831 H1839 0.929 . S
C1832 C1831 1.383 . S
C1832 C1833 1.377 . S
C1833 H1817 0.930 . S
C1833 C1832 1.377 . S
C1833 C1834 1.379 . S
C1834 H1818 0.931 . S
C1834 C1828 1.383 . S
C1834 C1833 1.379 . S
H1835 C1829 0.959 . S
H1836 C1829 0.961 . S
H1837 C1829 0.960 . S
H1838 C1830 0.930 . S
H1839 C1831 0.929 . S
H1840 C1848 0.929 . S
H1841 C1850 0.930 . S
H1842 C1852 0.930 . S
H1843 C1855 0.929 . S
H1844 C1858 0.930 . S
H1845 C1860 0.960 . S
H1846 C1860 0.960 . S
H1847 C1860 0.960 . S
C1848 H1840 0.929 . S
C1848 C1849 1.377 . S
C1848 C1850 1.384 . S
C1849 C1848 1.377 . S
C1849 C1855 1.390 . S
C1850 H1841 0.930 . S
C1850 C1848 1.384 . S
C1850 C1851 1.372 . S
C1851 C1850 1.372 . S
C1851 C1852 1.400 . S
C1851 C1856 1.490 . S
C1852 H1842 0.930 . S
C1852 C1851 1.400 . S
C1852 C1855 1.386 . S
H1853 C1869 0.930 . S
H1854 C1870 0.931 . S
C1855 H1843 0.929 . S
C1855 C1849 1.390 . S
C1855 C1852 1.386 . S
C1856 C1851 1.490 . S
C1856 C1858 1.395 . S
C1856 C1859 1.403 . S
H1857 C1863 0.930 . S
C1858 H1844 0.930 . S
C1858 C1856 1.395 . S
C1858 C1861 1.403 1_565 S
C1859 C1856 1.403 . S
C1859 C1860 1.524 . S
C1859 C1863 1.400 1_565 S
C1860 H1845 0.960 . S
C1860 H1846 0.960 . S
C1860 H1847 0.960 . S
C1860 C1859 1.524 . S
C1861 C1858 1.403 1_545 S
C1861 C1862 1.392 . S
C1861 C1865 1.495 . S
C1862 C1861 1.392 . S
C1862 C1863 1.385 . S
C1862 C1864 1.478 . S
C1863 H1857 0.930 . S
C1863 C1859 1.400 1_545 S
C1863 C1862 1.385 . S
C1864 C1862 1.478 . S
C1864 C1866 1.381 . S
C1864 C1870 1.383 . S
C1865 C1861 1.495 . S
C1865 H1871 0.959 . S
C1865 H1872 0.961 . S
C1865 H1873 0.960 . S
C1866 C1864 1.381 . S
C1866 C1867 1.394 . S
C1866 H1874 0.930 . S
C1867 C1866 1.394 . S
C1867 C1868 1.383 . S
C1867 H1875 0.929 . S
C1868 C1867 1.383 . S
C1868 C1869 1.377 . S
C1869 H1853 0.930 . S
C1869 C1868 1.377 . S
C1869 C1870 1.379 . S
C1870 H1854 0.931 . S
C1870 C1864 1.383 . S
C1870 C1869 1.379 . S
H1871 C1865 0.959 . S
H1872 C1865 0.961 . S
H1873 C1865 0.960 . S
H1874 C1866 0.930 . S
H1875 C1867 0.929 . S
H1876 C1884 0.929 . S
H1877 C1886 0.930 . S
H1878 C1888 0.930 . S
H1879 C1891 0.929 . S
H1880 C1894 0.930 . S
H1881 C1896 0.960 . S
H1882 C1896 0.960 1_455 S
H1883 C1896 0.960 1_455 S
C1884 H1876 0.929 . S
C1884 C1885 1.377 . S
C1884 C1886 1.384 . S
C1885 C1884 1.377 . S
C1885 C1891 1.390 . S
C1886 H1877 0.930 . S
C1886 C1884 1.384 . S
C1886 C1887 1.372 . S
C1887 C1886 1.372 . S
C1887 C1888 1.400 . S
C1887 C1892 1.490 . S
C1888 H1878 0.930 . S
C1888 C1887 1.400 . S
C1888 C1891 1.386 . S
H1889 C1905 0.930 . S
H1890 C1906 0.931 . S
C1891 H1879 0.929 . S
C1891 C1885 1.390 . S
C1891 C1888 1.386 . S
C1892 C1887 1.490 . S
C1892 C1894 1.395 . S
C1892 C1895 1.354 1_455 S
H1893 C1899 0.930 . S
C1894 H1880 0.930 . S
C1894 C1892 1.395 . S
C1894 C1897 1.403 . S
C1895 C1892 1.354 1_655 S
C1895 C1896 1.532 . S
C1895 C1899 1.443 . S
C1896 H1881 0.960 . S
C1896 H1882 0.960 1_655 S
C1896 H1883 0.960 1_655 S
C1896 C1895 1.532 . S
C1897 C1894 1.403 . S
C1897 C1898 1.392 1_455 S
C1897 C1901 1.495 . S
C1898 C1897 1.392 1_655 S
C1898 C1899 1.385 . S
C1898 C1900 1.478 . S
C1899 H1893 0.930 . S
C1899 C1895 1.443 . S
C1899 C1898 1.385 . S
C1900 C1898 1.478 . S
C1900 C1902 1.381 . S
C1900 C1906 1.383 . S
C1901 C1897 1.495 . S
C1901 H1907 0.959 . S
C1901 H1908 0.942 1_455 S
C1901 H1909 0.960 . S
C1902 C1900 1.381 . S
C1902 C1903 1.394 . S
C1902 H1910 0.930 . S
C1903 C1902 1.394 . S
C1903 C1904 1.383 . S
C1903 H1911 0.929 . S
C1904 C1903 1.383 . S
C1904 C1905 1.377 . S
C1905 H1889 0.930 . S
C1905 C1904 1.377 . S
C1905 C1906 1.379 . S
C1906 H1890 0.931 . S
C1906 C1900 1.383 . S
C1906 C1905 1.379 . S
H1907 C1901 0.959 . S
H1908 C1901 0.942 1_655 S
H1909 C1901 0.960 . S
H1910 C1902 0.930 . S
H1911 C1903 0.929 . S
H1912 C1920 0.929 . S
H1913 C1922 0.930 . S
H1914 C1924 0.930 . S
H1915 C1927 0.929 . S
H1916 C1930 0.928 1_565 S
H1917 C1932 0.960 . S
H1918 C1932 0.960 . S
H1919 C1932 0.960 . S
C1920 H1912 0.929 . S
C1920 C1921 1.377 . S
C1920 C1922 1.384 . S
C1921 C1920 1.377 . S
C1921 C1927 1.390 . S
C1922 H1913 0.930 . S
C1922 C1920 1.384 . S
C1922 C1923 1.372 . S
C1923 C1922 1.372 . S
C1923 C1924 1.400 . S
C1923 C1928 1.490 . S
C1924 H1914 0.930 . S
C1924 C1923 1.400 . S
C1924 C1927 1.386 . S
H1925 C1941 0.930 . S
H1926 C1942 0.931 . S
C1927 H1915 0.929 . S
C1927 C1921 1.390 . S
C1927 C1924 1.386 . S
C1928 C1923 1.490 . S
C1928 C1930 1.370 1_565 S
C1928 C1931 1.403 . S
H1929 C1935 0.930 . S
C1930 H1916 0.928 1_545 S
C1930 C1928 1.370 1_545 S
C1930 C1933 1.430 . S
C1931 C1928 1.403 . S
C1931 C1932 1.524 . S
C1931 C1935 1.400 1_565 S
C1932 H1917 0.960 . S
C1932 H1918 0.960 . S
C1932 H1919 0.960 . S
C1932 C1931 1.524 . S
C1933 C1930 1.430 . S
C1933 C1934 1.392 . S
C1933 C1937 1.495 . S
C1934 C1933 1.392 . S
C1934 C1935 1.385 . S
C1934 C1936 1.478 . S
C1935 H1929 0.930 . S
C1935 C1931 1.400 1_545 S
C1935 C1934 1.385 . S
C1936 C1934 1.478 . S
C1936 C1938 1.381 . S
C1936 C1942 1.383 . S
C1937 C1933 1.495 . S
C1937 H1943 0.959 . S
C1937 H1944 0.961 . S
C1937 H1945 0.960 . S
C1938 C1936 1.381 . S
C1938 C1939 1.394 . S
C1938 H1946 0.930 . S
C1939 C1938 1.394 . S
C1939 C1940 1.383 . S
C1939 H1947 0.929 . S
C1940 C1939 1.383 . S
C1940 C1941 1.377 . S
C1941 H1925 0.930 . S
C1941 C1940 1.377 . S
C1941 C1942 1.379 . S
C1942 H1926 0.931 . S
C1942 C1936 1.383 . S
C1942 C1941 1.379 . S
H1943 C1937 0.959 . S
H1944 C1937 0.961 . S
H1945 C1937 0.960 . S
H1946 C1938 0.930 . S
H1947 C1939 0.929 . S
H1948 C1956 0.929 . S
H1949 C1958 0.930 . S
H1950 C1960 0.930 . S
H1951 C1963 0.929 . S
H1952 C1966 0.930 . S
H1953 C1968 0.960 . S
H1954 C1968 0.966 . S
H1955 C1968 0.960 1_655 S
C1956 H1948 0.929 . S
C1956 C1957 1.377 . S
C1956 C1958 1.384 . S
C1957 C1956 1.377 . S
C1957 C1963 1.390 . S
C1958 H1949 0.930 . S
C1958 C1956 1.384 . S
C1958 C1959 1.372 . S
C1959 C1958 1.372 . S
C1959 C1960 1.400 . S
C1959 C1964 1.490 . S
C1960 H1950 0.930 . S
C1960 C1959 1.400 . S
C1960 C1963 1.386 . S
H1961 C1977 0.930 . S
H1962 C1978 0.931 . S
C1963 H1951 0.929 . S
C1963 C1957 1.390 . S
C1963 C1960 1.386 . S
C1964 C1959 1.490 . S
C1964 C1966 1.395 . S
C1964 C1967 1.364 1_655 S
H1965 C1971 0.930 . S
C1966 H1952 0.930 . S
C1966 C1964 1.395 . S
C1966 C1969 1.403 . S
C1967 C1964 1.364 1_455 S
C1967 C1968 1.530 . S
C1967 C1971 1.435 . S
C1968 H1953 0.960 . S
C1968 H1954 0.966 . S
C1968 H1955 0.960 1_455 S
C1968 C1967 1.530 . S
C1969 C1966 1.403 . S
C1969 C1970 1.392 1_655 S
C1969 C1973 1.495 . S
C1970 C1969 1.392 1_455 S
C1970 C1971 1.385 . S
C1970 C1972 1.478 . S
C1971 H1965 0.930 . S
C1971 C1967 1.435 . S
C1971 C1970 1.385 . S
C1972 C1970 1.478 . S
C1972 C1974 1.381 . S
C1972 C1978 1.383 . S
C1973 C1969 1.495 . S
C1973 H1979 0.959 . S
C1973 H1980 0.961 . S
C1973 H1981 0.960 1_655 S
C1974 C1972 1.381 . S
C1974 C1975 1.394 . S
C1974 H1982 0.930 . S
C1975 C1974 1.394 . S
C1975 C1976 1.383 . S
C1975 H1983 0.929 . S
C1976 C1975 1.383 . S
C1976 C1977 1.377 . S
C1977 H1961 0.930 . S
C1977 C1976 1.377 . S
C1977 C1978 1.379 . S
C1978 H1962 0.931 . S
C1978 C1972 1.383 . S
C1978 C1977 1.379 . S
H1979 C1973 0.959 . S
H1980 C1973 0.961 . S
H1981 C1973 0.960 1_455 S
H1982 C1974 0.930 . S
H1983 C1975 0.929 . S
C553 C73 0.696 . S
C572 C5 0.666 . S
C589 C39 0.701 . S
C608 C107 0.692 . S
C625 C209 0.689 . S
C644 C141 0.711 . S
C661 C243 0.698 . S
C680 C175 0.717 . S
C697 C277 0.701 . S
C716 C345 0.696 . S
C733 C311 0.700 . S
C752 C379 0.707 . S
C769 C413 0.701 . S
C788 C481 0.687 . S
C805 C515 0.699 . S
C824 C447 0.674 . S
C841 C9 1.780 . S
C860 C179 1.753 . S
C877 C213 1.776 . S
C896 C43 1.745 . S
C913 C247 1.773 . S
C932 C77 1.758 . S
C949 C145 1.783 . S
C968 C111 1.806 . S
C985 C451 1.773 . S
C1004 C281 1.760 . S
C1021 C485 1.776 . S
C1040 C315 1.745 . S
C1057 C519 1.784 . S
C1076 C349 1.805 . S
C1093 C417 1.784 . S
C1112 C383 1.773 . S
C1129 C20 1.351 . S
C1148 C360 1.358 . S
C1165 C394 1.357 . S
C1184 C54 1.334 . S
C1201 C292 1.349 . S
C1220 C88 1.372 . S
C1237 C326 1.349 . S
C1256 C122 1.373 . S
C1273 C156 1.354 . S
C1292 C496 1.352 . S
C1309 C190 1.358 . S
C1328 C530 1.327 . S
C1345 C224 1.357 . S
C1364 C428 1.330 . S
C1381 C258 1.349 . S
C1400 C462 1.373 . S
C1417 C138 0.662 . S
C1436 C2 0.626 . S
C1453 C36 0.684 . S
C1472 C172 0.705 . S
C1489 C206 0.662 . S
C1508 C70 0.627 . S
C1525 C240 0.669 . S
C1544 C104 0.621 . S
C1561 C305 0.984 . S
C1580 C441 0.968 . S
C1597 C475 0.992 . S
C1616 C339 0.982 . S
C1633 C373 0.987 . S
C1652 C509 0.961 . S
C1669 C543 0.991 . S
C1688 C407 0.987 . S
C1705 C376 0.670 . S
C1724 C444 0.704 . S
C1741 C274 0.683 . S
C1760 C478 0.720 . S
C1777 C512 0.662 . S
C1796 C308 0.635 . S
C1813 C410 0.672 . S
C1832 C342 0.629 . S
C1849 C135 0.984 . S
C1868 C203 0.969 . S
C1885 C33 0.992 . S
C1904 C237 0.979 . S
C1921 C271 0.981 . S
C1940 C67 0.997 . S
C1957 C101 0.990 . S
C1976 C169 0.993 . S
