# Generated by pormake.
# Topology crb, (4)-cn, num edge types: 1
# Building blocks:
#     Node 0, Type 0, BuildingBlock: TATPOV_clean_sbu_0, # of connection points: 4
#     Node 1, Type 0, BuildingBlock: TATPOV_clean_sbu_0, # of connection points: 4
#     Node 2, Type 0, BuildingBlock: TATPOV_clean_sbu_0, # of connection points: 4
#     Node 3, Type 0, BuildingBlock: TATPOV_clean_sbu_0, # of connection points: 4
#     Node 4, Type 0, BuildingBlock: TATPOV_clean_sbu_0, # of connection points: 4
#     Node 5, Type 0, BuildingBlock: TATPOV_clean_sbu_0, # of connection points: 4
#     Node 6, Type 0, BuildingBlock: TATPOV_clean_sbu_0, # of connection points: 4
#     Node 7, Type 0, BuildingBlock: TATPOV_clean_sbu_0, # of connection points: 4
#     Edge 8, Type (0, 0), BuildingBlock: FUNLAD_clean_linker_1, # of connection points: 2
#     Edge 9, Type (0, 0), BuildingBlock: FUNLAD_clean_linker_1, # of connection points: 2
#     Edge 10, Type (0, 0), BuildingBlock: FUNLAD_clean_linker_1, # of connection points: 2
#     Edge 11, Type (0, 0), BuildingBlock: FUNLAD_clean_linker_1, # of connection points: 2
#     Edge 12, Type (0, 0), BuildingBlock: FUNLAD_clean_linker_1, # of connection points: 2
#     Edge 13, Type (0, 0), BuildingBlock: FUNLAD_clean_linker_1, # of connection points: 2
#     Edge 14, Type (0, 0), BuildingBlock: FUNLAD_clean_linker_1, # of connection points: 2
#     Edge 15, Type (0, 0), BuildingBlock: FUNLAD_clean_linker_1, # of connection points: 2
#     Edge 16, Type (0, 0), BuildingBlock: FUNLAD_clean_linker_1, # of connection points: 2
#     Edge 17, Type (0, 0), BuildingBlock: FUNLAD_clean_linker_1, # of connection points: 2
#     Edge 18, Type (0, 0), BuildingBlock: FUNLAD_clean_linker_1, # of connection points: 2
#     Edge 19, Type (0, 0), BuildingBlock: FUNLAD_clean_linker_1, # of connection points: 2
#     Edge 20, Type (0, 0), BuildingBlock: FUNLAD_clean_linker_1, # of connection points: 2
#     Edge 21, Type (0, 0), BuildingBlock: FUNLAD_clean_linker_1, # of connection points: 2
#     Edge 22, Type (0, 0), BuildingBlock: FUNLAD_clean_linker_1, # of connection points: 2
#     Edge 23, Type (0, 0), BuildingBlock: FUNLAD_clean_linker_1, # of connection points: 2
# Relax obj value: 0.016
# Max RMSD: 0.047
# Mean RMSD: 0.047
data_MOF--net-crb--node1-TATPOV_clean_sbu_0--edge1-FUNLAD_clean_linker_1
_symmetry_space_group_name_H-M    P1
_symmetry_Int_Tables_number       1
_symmetry_cell_setting            triclinic
loop_
_symmetry_equiv_pos_as_xyz
'x, y, z'
_cell_length_a     45.530126
_cell_length_b     42.538709
_cell_length_c     25.978739
_cell_angle_alpha  89.952542
_cell_angle_beta   89.842642
_cell_angle_gamma 90.043311
loop_
_atom_site_label
_atom_site_type_symbol
_atom_site_fract_x
_atom_site_fract_y
_atom_site_fract_z
_atom_type_partial_charge
Zn0 Zn 0.36652 0.33788 0.1575 0.0
Zn1 Zn 0.32872 0.31783 0.08426 0.0
O2 O 0.36969 0.3015 0.06227 0.0
O3 O 0.40021 0.31542 0.12376 0.0
O4 O 0.30391 0.30328 0.02373 0.0
O5 O 0.34144 0.31579 0.21007 0.0
O6 O 0.31076 0.29823 0.15094 0.0
C7 C 0.39548 0.30197 0.08115 0.0
C8 C 0.33883 0.38845 0.1027 0.0
O9 O 0.32517 0.3661 0.08052 0.0
O10 O 0.35811 0.38269 0.13637 0.0
C11 C 0.31047 0.31551 0.98038 0.0
O12 O 0.33138 0.33674 0.97818 0.0
C13 C 0.31878 0.30026 0.19796 0.0
Zn14 Zn 0.64745 0.33542 0.88694 0.0
Zn15 Zn 0.67496 0.30802 0.9686 0.0
O16 O 0.63193 0.29439 0.97724 0.0
O17 O 0.60942 0.31495 0.91017 0.0
O18 O 0.69471 0.28946 0.03132 0.0
O19 O 0.67527 0.31235 0.83997 0.0
O20 O 0.69696 0.28935 0.90582 0.0
C21 C 0.60867 0.29876 0.95112 0.0
C22 C 0.67318 0.38007 0.95631 0.0
O23 O 0.68084 0.35526 0.98011 0.0
O24 O 0.65864 0.37826 0.91491 0.0
C25 C 0.68517 0.29793 0.07527 0.0
O26 O 0.663 0.31758 0.07795 0.0
C27 C 0.69454 0.29376 0.85744 0.0
Zn28 Zn 0.64373 0.64606 0.17244 0.0
Zn29 Zn 0.66806 0.68101 0.0966 0.0
O30 O 0.62378 0.69177 0.0924 0.0
O31 O 0.60431 0.66515 0.15694 0.0
O32 O 0.68593 0.70406 0.03532 0.0
O33 O 0.67062 0.66662 0.22294 0.0
O34 O 0.68979 0.69698 0.16253 0.0
C35 C 0.60149 0.68371 0.11922 0.0
C36 C 0.67021 0.60831 0.09483 0.0
O37 O 0.67656 0.63515 0.07619 0.0
O38 O 0.65592 0.60617 0.13655 0.0
C39 C 0.67403 0.69888 0.99179 0.0
O40 O 0.6507 0.68078 0.98958 0.0
C41 C 0.68817 0.68819 0.20957 0.0
Zn42 Zn 0.35612 0.652 0.88259 0.0
Zn43 Zn 0.33655 0.6831 0.96798 0.0
O44 O 0.38127 0.68982 0.97155 0.0
O45 O 0.397 0.66785 0.89964 0.0
O46 O 0.31975 0.70801 0.02692 0.0
O47 O 0.32884 0.6782 0.83807 0.0
O48 O 0.31575 0.70416 0.90775 0.0
C49 C 0.40213 0.68279 0.94079 0.0
C50 C 0.32775 0.61198 0.9584 0.0
O51 O 0.32337 0.63778 0.98195 0.0
O52 O 0.34167 0.61153 0.91606 0.0
C53 C 0.31547 0.69755 0.07209 0.0
O54 O 0.32362 0.66882 0.08387 0.0
C55 C 0.3141 0.69981 0.85948 0.0
Zn56 Zn 0.85415 0.83677 0.66982 0.0
Zn57 Zn 0.82144 0.8083 0.59547 0.0
O58 O 0.86409 0.79549 0.57909 0.0
O59 O 0.89107 0.81868 0.6382 0.0
O60 O 0.79973 0.79006 0.53418 0.0
O61 O 0.8306 0.81217 0.72204 0.0
O62 O 0.80285 0.78996 0.66262 0.0
C63 C 0.88912 0.8017 0.59831 0.0
C64 C 0.82343 0.88057 0.60591 0.0
O65 O 0.81463 0.85542 0.58449 0.0
O66 O 0.84029 0.87936 0.64459 0.0
C67 C 0.80811 0.80119 0.49099 0.0
O68 O 0.82911 0.82235 0.49005 0.0
C69 C 0.8096 0.79416 0.70988 0.0
Zn70 Zn 0.14089 0.84108 0.38508 0.0
Zn71 Zn 0.16751 0.81382 0.46843 0.0
O72 O 0.1246 0.80239 0.48048 0.0
O73 O 0.10228 0.82275 0.41298 0.0
O74 O 0.18916 0.79223 0.52534 0.0
O75 O 0.16743 0.81563 0.3371 0.0
O76 O 0.18718 0.79407 0.40585 0.0
C77 C 0.10127 0.8076 0.45508 0.0
C78 C 0.16917 0.8852 0.45504 0.0
O79 O 0.17565 0.86043 0.47998 0.0
O80 O 0.15486 0.88345 0.41328 0.0
C81 C 0.19021 0.80196 0.57142 0.0
O82 O 0.17588 0.8275 0.58475 0.0
C83 C 0.1856 0.79674 0.35724 0.0
Zn84 Zn 0.14715 0.15602 0.65914 0.0
Zn85 Zn 0.17727 0.18762 0.58484 0.0
O86 O 0.13416 0.20033 0.57352 0.0
O87 O 0.1093 0.17559 0.6341 0.0
O88 O 0.19763 0.20846 0.52403 0.0
O89 O 0.17237 0.17792 0.71163 0.0
O90 O 0.19665 0.20458 0.65216 0.0
C91 C 0.10988 0.19368 0.59535 0.0
C92 C 0.17605 0.11491 0.58818 0.0
O93 O 0.18441 0.14087 0.56863 0.0
O94 O 0.15998 0.11465 0.62806 0.0
C95 C 0.18662 0.20175 0.48034 0.0
O96 O 0.16366 0.18312 0.47831 0.0
C97 C 0.19186 0.19781 0.69943 0.0
Zn98 Zn 0.86266 0.14739 0.38759 0.0
Zn99 Zn 0.83106 0.17866 0.46046 0.0
O100 O 0.87338 0.1926 0.47486 0.0
O101 O 0.89949 0.16805 0.41574 0.0
O102 O 0.80818 0.19952 0.51729 0.0
O103 O 0.83819 0.16905 0.33333 0.0
O104 O 0.81246 0.19422 0.39244 0.0
C105 C 0.89806 0.18632 0.45419 0.0
C106 C 0.83265 0.10635 0.45821 0.0
O107 O 0.82434 0.13232 0.47754 0.0
O108 O 0.84901 0.10597 0.41866 0.0
C109 C 0.80757 0.22903 0.52468 0.0
O110 O 0.82141 0.24782 0.49268 0.0
C111 C 0.8179 0.18801 0.34531 0.0
H112 H 0.3516 0.438 0.09697 0.0
C113 C 0.33452 0.42129 0.0866 0.0
H114 H 0.29444 0.41444 0.04785 0.0
H115 H 0.33748 0.56695 0.07046 0.0
H116 H 0.33376 0.55936 0.16241 0.0
H117 H 0.31693 0.50876 0.19846 0.0
H118 H 0.30502 0.465 0.14218 0.0
C119 C 0.31148 0.43106 0.05859 0.0
C120 C 0.31073 0.46373 0.03742 0.0
C121 C 0.31464 0.48997 0.07043 0.0
C122 C 0.32166 0.51996 0.04945 0.0
C123 C 0.32963 0.54441 0.08374 0.0
C124 C 0.32797 0.54025 0.13687 0.0
C125 C 0.31868 0.51172 0.15718 0.0
C126 C 0.31215 0.48676 0.12452 0.0
H127 H 0.29942 0.58335 0.00941 0.0
C128 C 0.31726 0.58237 0.98157 0.0
H129 H 0.34854 0.55416 0.94378 0.0
H130 H 0.30045 0.41932 0.96286 0.0
H131 H 0.29774 0.42826 0.87106 0.0
H132 H 0.30466 0.48138 0.83489 0.0
H133 H 0.31484 0.5258 0.89043 0.0
C134 C 0.33068 0.55489 0.97162 0.0
C135 C 0.32144 0.52444 0.99521 0.0
C136 C 0.3142 0.4989 0.96243 0.0
C137 C 0.30933 0.46842 0.98344 0.0
C138 C 0.3038 0.44309 0.94938 0.0
C139 C 0.30219 0.44787 0.89642 0.0
C140 C 0.30613 0.47776 0.87605 0.0
C141 C 0.3121 0.50303 0.90842 0.0
H142 H 0.41634 0.28281 0.01088 0.0
C143 C 0.42044 0.29035 0.05018 0.0
H144 H 0.45267 0.30136 0.10575 0.0
H145 H 0.55029 0.23148 0.96608 0.0
H146 H 0.53236 0.1842 0.00833 0.0
H147 H 0.48741 0.18548 0.06162 0.0
H148 H 0.45995 0.23404 0.07262 0.0
C149 C 0.44821 0.2931 0.06699 0.0
C150 C 0.47357 0.2912 0.03116 0.0
C151 C 0.48941 0.26281 0.02546 0.0
C152 C 0.51563 0.26223 0.99554 0.0
C153 C 0.5307 0.23338 0.98951 0.0
C154 C 0.52053 0.20606 0.01328 0.0
C155 C 0.4952 0.20677 0.04324 0.0
C156 C 0.47969 0.23475 0.04934 0.0
H157 H 0.57948 0.2806 0.01215 0.0
C158 C 0.58022 0.28813 0.97216 0.0
H159 H 0.5557 0.29921 0.90587 0.0
H160 H 0.44729 0.34917 0.03204 0.0
H161 H 0.46481 0.39627 0.98943 0.0
H162 H 0.51063 0.39562 0.93861 0.0
H163 H 0.53912 0.34794 0.93001 0.0
C164 C 0.5551 0.29113 0.94556 0.0
C165 C 0.52613 0.29024 0.9722 0.0
C166 C 0.50955 0.31838 0.97618 0.0
C167 C 0.48326 0.31885 1.00575 0.0
C168 C 0.46742 0.34742 0.01002 0.0
C169 C 0.47723 0.37469 0.98578 0.0
C170 C 0.503 0.37432 0.95715 0.0
C171 C 0.51911 0.34665 0.95242 0.0
H172 H 0.6881 0.41135 0.0186 0.0
C173 C 0.67922 0.41092 0.97979 0.0
H174 H 0.66226 0.43779 0.91838 0.0
H175 H 0.61501 0.54673 0.05954 0.0
H176 H 0.57 0.5243 0.02616 0.0
H177 H 0.57092 0.4757 0.97444 0.0
H178 H 0.61684 0.44945 0.95541 0.0
C179 C 0.67189 0.43803 0.95661 0.0
C180 C 0.67192 0.46819 0.98554 0.0
C181 C 0.64477 0.48312 0.99649 0.0
C182 C 0.64416 0.51076 0.02711 0.0
C183 C 0.61675 0.52538 0.03712 0.0
C184 C 0.59071 0.51281 0.0181 0.0
C185 C 0.59124 0.48549 0.98892 0.0
C186 C 0.61784 0.47069 0.97819 0.0
H187 H 0.68791 0.58244 0.02783 0.0
C188 C 0.67749 0.57976 0.06529 0.0
H189 H 0.65772 0.54831 0.11792 0.0
H190 H 0.72791 0.448 0.96564 0.0
H191 H 0.77294 0.47015 0.99994 0.0
H192 H 0.77162 0.51637 0.05721 0.0
H193 H 0.7253 0.541 0.07992 0.0
C194 C 0.66925 0.55108 0.08151 0.0
C195 C 0.67064 0.52329 0.04704 0.0
C196 C 0.69786 0.50881 0.03521 0.0
C197 C 0.69854 0.48148 1.0037 0.0
C198 C 0.72607 0.46813 0.99085 0.0
C199 C 0.75209 0.48073 0.01 0.0
C200 C 0.75135 0.50681 0.04214 0.0
C201 C 0.72462 0.52079 0.05474 0.0
H202 H 0.44972 0.68275 0.92617 0.0
C203 C 0.43296 0.68959 0.95389 0.0
H204 H 0.42508 0.70781 0.02843 0.0
H205 H 0.55864 0.6443 0.03904 0.0
H206 H 0.53323 0.59459 0.02945 0.0
H207 H 0.47966 0.59299 0.01573 0.0
H208 H 0.45139 0.64104 0.01028 0.0
C209 C 0.44129 0.7005 1.0001 0.0
C210 C 0.47294 0.70138 0.01444 0.0
C211 C 0.48885 0.67289 0.02016 0.0
C212 C 0.51941 0.67374 0.03102 0.0
C213 C 0.53514 0.64502 0.03317 0.0
C214 C 0.52087 0.61629 0.02738 0.0
C215 C 0.49075 0.61539 0.01943 0.0
C216 C 0.47481 0.64324 0.01592 0.0
H217 H 0.55377 0.68627 0.13029 0.0
C218 C 0.5715 0.69273 0.10418 0.0
H219 H 0.58184 0.70949 0.02949 0.0
H220 H 0.44897 0.76009 1.0064 0.0
H221 H 0.47424 0.8098 0.01923 0.0
H222 H 0.52685 0.81109 0.04172 0.0
H223 H 0.55463 0.76265 0.05122 0.0
C224 C 0.56475 0.70339 0.05703 0.0
C225 C 0.53363 0.70297 0.0396 0.0
C226 C 0.51776 0.73138 0.03423 0.0
C227 C 0.48736 0.7306 0.0216 0.0
C228 C 0.47205 0.75935 0.01621 0.0
C229 C 0.48628 0.78802 0.02346 0.0
C230 C 0.51592 0.78875 0.03612 0.0
C231 C 0.53159 0.76083 0.04152 0.0
H232 H 0.80522 0.91056 0.54464 0.0
C233 C 0.81682 0.91094 0.58117 0.0
H234 H 0.84046 0.93856 0.6342 0.0
H235 H 0.88747 0.03626 0.47369 0.0
H236 H 0.93187 0.0089 0.49821 0.0
H237 H 0.92967 0.9615 0.55281 0.0
H238 H 0.8831 0.94147 0.58376 0.0
C239 C 0.82785 0.93816 0.59875 0.0
C240 C 0.82858 0.96666 0.56552 0.0
C241 C 0.85605 0.97775 0.54702 0.0
C242 C 0.85725 0.00457 0.51442 0.0
C243 C 0.88509 0.01561 0.49766 0.0
C244 C 0.91084 0.00017 0.51156 0.0
C245 C 0.90961 0.97353 0.54236 0.0
C246 C 0.88264 0.96235 0.55999 0.0
H247 H 0.8148 0.07863 0.52281 0.0
C248 C 0.82517 0.07691 0.48516 0.0
H249 H 0.84391 0.0467 0.4298 0.0
H250 H 0.77264 0.95324 0.59779 0.0
H251 H 0.72788 0.97885 0.56955 0.0
H252 H 0.72965 0.02261 0.50723 0.0
H253 H 0.77621 0.04142 0.47359 0.0
C254 C 0.83281 0.04857 0.46676 0.0
C255 C 0.83095 0.01995 0.49962 0.0
C256 C 0.80342 0.00841 0.51715 0.0
C257 C 0.80229 0.98219 0.55116 0.0
C258 C 0.77467 0.97226 0.57036 0.0
C259 C 0.74882 0.98687 0.5547 0.0
C260 C 0.74983 0.01159 0.51976 0.0
C261 C 0.77673 0.02231 0.50103 0.0
H262 H 0.07291 0.78892 0.5168 0.0
C263 C 0.07279 0.79862 0.47806 0.0
H264 H 0.0466 0.81575 0.41736 0.0
H265 H 0.95428 0.74268 0.58134 0.0
H266 H 0.97902 0.69435 0.55704 0.0
H267 H 0.02165 0.69532 0.49821 0.0
H268 H 0.04007 0.74468 0.46387 0.0
C269 C 0.04699 0.80506 0.45536 0.0
C270 C 0.019 0.80349 0.48512 0.0
C271 C 0.00792 0.77435 0.50343 0.0
C272 C 0.98271 0.77369 0.53598 0.0
C273 C 0.97287 0.74444 0.55549 0.0
C274 C 0.98692 0.71654 0.54196 0.0
C275 C 0.01098 0.71709 0.50895 0.0
C276 C 0.02144 0.74559 0.48976 0.0
H277 H 0.91342 0.78071 0.53307 0.0
C278 C 0.91593 0.79255 0.56988 0.0
H279 H 0.94514 0.81542 0.62039 0.0
H280 H 0.03375 0.86339 0.45507 0.0
H281 H 0.0075 0.91122 0.47567 0.0
H282 H 0.96265 0.90979 0.52908 0.0
H283 H 0.94399 0.86051 0.56262 0.0
C284 C 0.94267 0.8023 0.58478 0.0
C285 C 0.96818 0.80208 0.54887 0.0
C286 C 0.97851 0.83106 0.52868 0.0
C287 C 0.00399 0.8318 0.49699 0.0
C288 C 0.01423 0.86125 0.47861 0.0
C289 C -0.00061 0.88899 0.49023 0.0
C290 C 0.97419 0.88819 0.52036 0.0
C291 C 0.96378 0.85969 0.5395 0.0
H292 H 0.19391 0.08663 0.52401 0.0
C293 C 0.18262 0.08529 0.56089 0.0
H294 H 0.16003 0.05617 0.61351 0.0
H295 H 0.1147 0.95665 0.45662 0.0
H296 H 0.06998 0.98473 0.4773 0.0
H297 H 0.07146 0.03378 0.52779 0.0
H298 H 0.11766 0.05481 0.5584 0.0
C299 C 0.17236 0.05747 0.57768 0.0
C300 C 0.17233 0.02912 0.54415 0.0
C301 C 0.14514 0.01745 0.52566 0.0
C302 C 0.14435 0.98957 0.49555 0.0
C303 C 0.11675 0.97802 0.47886 0.0
C304 C 0.09083 0.99387 0.49055 0.0
C305 C 0.09165 0.02144 0.51905 0.0
C306 C 0.11838 0.03319 0.53651 0.0
H307 H 0.18571 0.91635 0.5162 0.0
C308 C 0.17631 0.91603 0.47777 0.0
H309 H 0.15908 0.94326 0.41704 0.0
H310 H 0.22801 0.04442 0.57506 0.0
H311 H 0.27309 0.01796 0.55042 0.0
H312 H 0.27201 0.9717 0.49325 0.0
H313 H 0.22578 0.95128 0.46108 0.0
C314 C 0.16936 0.94332 0.45475 0.0
C315 C 0.17081 0.97359 0.48344 0.0
C316 C 0.19812 0.98595 0.50021 0.0
C317 C 0.19884 0.01342 0.53146 0.0
C318 C 0.22626 0.02428 0.54987 0.0
C319 C 0.2523 0.00923 0.53622 0.0
C320 C 0.25168 0.98311 0.50416 0.0
C321 C 0.22498 0.97152 0.48623 0.0
H322 H 0.92341 0.2083 0.51691 0.0
C323 C 0.92525 0.19726 0.47931 0.0
H324 H 0.95387 0.1785 0.42331 0.0
H325 H 0.04432 0.25417 0.58422 0.0
H326 H 0.02062 0.30233 0.55617 0.0
H327 H 0.97804 0.30068 0.49767 0.0
H328 H 0.95865 0.25085 0.46737 0.0
C329 C 0.95194 0.1904 0.46017 0.0
C330 C 0.97868 0.19222 0.49283 0.0
C331 C 0.99018 0.22159 0.50902 0.0
C332 C 0.01534 0.22259 0.54143 0.0
C333 C 0.02576 0.25213 0.55854 0.0
C334 C 0.01229 0.27993 0.54288 0.0
C335 C 0.98827 0.27899 0.51004 0.0
C336 C 0.97726 0.25024 0.49314 0.0
H337 H 0.08341 0.21484 0.53329 0.0
C338 C 0.08217 0.20349 0.57075 0.0
H339 H 0.05462 0.18219 0.62606 0.0
H340 H 0.96195 0.13182 0.46964 0.0
H341 H 0.98676 0.08398 0.4949 0.0
H342 H 0.03167 0.08586 0.5477 0.0
H343 H 0.05175 0.13558 0.57604 0.0
C344 C 0.05591 0.1946 0.58953 0.0
C345 C 0.02935 0.19428 0.55634 0.0
C346 C 0.01811 0.16494 0.53946 0.0
C347 C 0.99267 0.1639 0.50797 0.0
C348 C 0.98156 0.13417 0.49272 0.0
C349 C 0.99554 0.10643 0.50708 0.0
C350 C 0.02076 0.10748 0.53688 0.0
C351 C 0.03201 0.13627 0.55301 0.0
H352 H 0.18742 0.20813 0.39629 0.0
C353 C 0.19903 0.21381 0.43161 0.0
H354 H 0.23678 0.23513 0.46323 0.0
H355 H 0.30737 0.22055 0.25291 0.0
H356 H 0.32885 0.17818 0.3028 0.0
H357 H 0.30841 0.16357 0.38755 0.0
H358 H 0.26628 0.19111 0.42283 0.0
C359 C 0.22407 0.23036 0.42877 0.0
C360 C 0.23651 0.23971 0.37781 0.0
C361 C 0.26145 0.22375 0.35814 0.0
C362 C 0.27354 0.23251 0.30963 0.0
C363 C 0.29786 0.21546 0.2902 0.0
C364 C 0.31025 0.19093 0.31825 0.0
C365 C 0.29871 0.18267 0.36594 0.0
C366 C 0.27456 0.19873 0.38578 0.0
H367 H 0.31191 0.28662 0.27845 0.0
C368 C 0.30238 0.28499 0.24017 0.0
H369 H 0.26563 0.26945 0.19759 0.0
H370 H 0.18872 0.27533 0.40424 0.0
H371 H 0.16675 0.31696 0.35348 0.0
H372 H 0.18755 0.33186 0.26915 0.0
H373 H 0.23051 0.30524 0.23505 0.0
C374 C 0.27647 0.27032 0.23476 0.0
C375 C 0.26113 0.25776 0.28134 0.0
C376 C 0.23556 0.27296 0.30013 0.0
C377 C 0.22336 0.26411 0.34858 0.0
C378 C 0.19852 0.2806 0.36726 0.0
C379 C 0.18578 0.30467 0.33864 0.0
C380 C 0.19752 0.3131 0.29118 0.0
C381 C 0.22218 0.29761 0.27205 0.0
H382 H 0.68955 0.29485 0.15962 0.0
C383 C 0.6988 0.28672 0.12338 0.0
H384 H 0.73119 0.25834 0.08828 0.0
H385 H 0.79045 0.27991 0.31824 0.0
H386 H 0.79639 0.33432 0.29196 0.0
H387 H 0.77484 0.35352 0.2108 0.0
H388 H 0.74713 0.31854 0.15555 0.0
C389 C 0.72215 0.26747 0.124 0.0
C390 C 0.73501 0.25632 0.17344 0.0
C391 C 0.75126 0.27714 0.2052 0.0
C392 C 0.76409 0.26597 0.25167 0.0
C393 C 0.78033 0.28716 0.28252 0.0
C394 C 0.78392 0.31843 0.26788 0.0
C395 C 0.77175 0.32925 0.22222 0.0
C396 C 0.75572 0.30894 0.19099 0.0
H397 H 0.80639 0.19538 0.26412 0.0
C398 C 0.80051 0.20195 0.30328 0.0
H399 H 0.77174 0.22914 0.34927 0.0
H400 H 0.70425 0.21067 0.12259 0.0
H401 H 0.69743 0.15661 0.15001 0.0
H402 H 0.71896 0.13754 0.23129 0.0
H403 H 0.74757 0.17237 0.28549 0.0
C404 C 0.77771 0.22142 0.31078 0.0
C405 C 0.76115 0.23393 0.26576 0.0
C406 C 0.74401 0.21342 0.23495 0.0
C407 C 0.73121 0.22455 0.1885 0.0
C408 C 0.71449 0.20345 0.15823 0.0
C409 C 0.71034 0.17238 0.17357 0.0
C410 C 0.72249 0.16163 0.2193 0.0
C411 C 0.73906 0.18182 0.24986 0.0
H412 H 0.80263 0.80297 0.40694 0.0
C413 C 0.79493 0.79134 0.44174 0.0
H414 H 0.76711 0.756 0.47176 0.0
H415 H 0.70201 0.78219 0.24848 0.0
H416 H 0.68647 0.83146 0.28695 0.0
H417 H 0.70552 0.84807 0.37147 0.0
H418 H 0.74022 0.81558 0.41808 0.0
C419 C 0.77443 0.76882 0.43788 0.0
C420 C 0.76303 0.75922 0.3865 0.0
C421 C 0.74281 0.77858 0.35968 0.0
C422 C 0.73159 0.76886 0.31109 0.0
C423 C 0.71116 0.78842 0.28549 0.0
C424 C 0.70207 0.81676 0.30712 0.0
C425 C 0.71282 0.82613 0.35469 0.0
C426 C 0.73286 0.80732 0.38093 0.0
H427 H 0.70419 0.69201 0.28865 0.0
C428 C 0.70632 0.70227 0.25041 0.0
H429 H 0.72633 0.73859 0.20707 0.0
H430 H 0.80269 0.71754 0.42625 0.0
H431 H 0.81948 0.66919 0.38629 0.0
H432 H 0.80088 0.65302 0.3012 0.0
H433 H 0.76525 0.68503 0.25567 0.0
C434 C 0.72448 0.72682 0.24406 0.0
C435 C 0.74027 0.73964 0.28979 0.0
C436 C 0.76161 0.72108 0.31542 0.0
C437 C 0.7727 0.73068 0.36408 0.0
C438 C 0.79359 0.71139 0.38916 0.0
C439 C 0.80345 0.68361 0.36662 0.0
C440 C 0.79295 0.67448 0.31875 0.0
C441 C 0.77233 0.69294 0.29322 0.0
H442 H 0.21914 0.76028 0.34449 0.0
C443 C 0.20549 0.77763 0.32522 0.0
H444 H 0.19536 0.79916 0.25399 0.0
H445 H 0.32409 0.75549 0.17858 0.0
H446 H 0.33586 0.8085 0.20599 0.0
H447 H 0.29899 0.84113 0.25065 0.0
H448 H 0.2502 0.82078 0.26868 0.0
C449 C 0.208 0.78136 0.27414 0.0
C450 C 0.22949 0.76229 0.24446 0.0
C451 C 0.25757 0.77485 0.23288 0.0
C452 C 0.27854 0.75634 0.20586 0.0
C453 C 0.30693 0.76893 0.19718 0.0
C454 C 0.31407 0.79924 0.21313 0.0
C455 C 0.29334 0.81759 0.23838 0.0
C456 C 0.26542 0.80563 0.24843 0.0
H457 H 0.29079 0.73968 0.09536 0.0
C458 C 0.29875 0.71701 0.10875 0.0
H459 H 0.29854 0.68409 0.16957 0.0
H460 H 0.17766 0.73129 0.26095 0.0
H461 H 0.16571 0.67827 0.23368 0.0
H462 H 0.20162 0.64642 0.18527 0.0
H463 H 0.24968 0.66728 0.164 0.0
C464 C 0.29163 0.70715 0.15628 0.0
C465 C 0.27098 0.72566 0.18893 0.0
C466 C 0.24301 0.71294 0.20129 0.0
C467 C 0.22225 0.73131 0.22907 0.0
C468 C 0.19433 0.71825 0.24029 0.0
C469 C 0.18714 0.68788 0.22472 0.0
C470 C 0.20736 0.66996 0.19747 0.0
C471 C 0.23494 0.68224 0.18561 0.0
H472 H 0.22083 0.76461 0.59421 0.0
C473 C 0.20884 0.785 0.60825 0.0
H474 H 0.20003 0.81382 0.67289 0.0
H475 H 0.23969 0.69689 0.81368 0.0
H476 H 0.18696 0.69525 0.82645 0.0
H477 H 0.15428 0.73083 0.77817 0.0
H478 H 0.17422 0.76816 0.71652 0.0
C479 C 0.2122 0.79402 0.65731 0.0
C480 C 0.23214 0.7761 0.69162 0.0
C481 C 0.22023 0.7552 0.72863 0.0
C482 C 0.23913 0.73514 0.75715 0.0
C483 C 0.2265 0.71334 0.79203 0.0
C484 C 0.19621 0.71199 0.79949 0.0
C485 C 0.1778 0.73198 0.77225 0.0
C486 C 0.18953 0.75329 0.737 0.0
H487 H 0.28258 0.73859 0.84922 0.0
C488 C 0.29434 0.71999 0.82923 0.0
H489 H 0.30207 0.69786 0.75766 0.0
H490 H 0.26211 0.81614 0.62776 0.0
H491 H 0.31496 0.81863 0.61592 0.0
H492 H 0.34783 0.78371 0.66507 0.0
H493 H 0.32807 0.74615 0.72641 0.0
C494 C 0.28997 0.71575 0.77868 0.0
C495 C 0.26997 0.73669 0.74938 0.0
C496 C 0.28191 0.75825 0.71336 0.0
C497 C 0.26298 0.77816 0.6847 0.0
C498 C 0.27548 0.8 0.64975 0.0
C499 C 0.30579 0.80181 0.64282 0.0
C500 C 0.32429 0.78217 0.67052 0.0
C501 C 0.31264 0.76066 0.70553 0.0
H502 H 0.30261 0.31782 0.89686 0.0
C503 C 0.29613 0.30572 0.932 0.0
H504 H 0.27095 0.2687 0.96341 0.0
H505 H 0.20615 0.29109 0.73651 0.0
H506 H 0.19106 0.34172 0.77049 0.0
H507 H 0.20925 0.36032 0.85448 0.0
H508 H 0.24267 0.32853 0.90496 0.0
C509 C 0.27668 0.28205 0.92914 0.0
C510 C 0.26527 0.27108 0.87836 0.0
C511 C 0.24558 0.28995 0.8494 0.0
C512 C 0.2347 0.279 0.80124 0.0
C513 C 0.21498 0.29822 0.77332 0.0
C514 C 0.20614 0.32732 0.79238 0.0
C515 C 0.21641 0.33782 0.83964 0.0
C516 C 0.23578 0.3194 0.86809 0.0
H517 H 0.20442 0.20328 0.78035 0.0
C518 C 0.2087 0.21224 0.7418 0.0
H519 H 0.23221 0.24614 0.69861 0.0
H520 H 0.30363 0.22965 0.92267 0.0
H521 H 0.31928 0.1795 0.88777 0.0
H522 H 0.3008 0.16091 0.80397 0.0
H523 H 0.26646 0.19234 0.7546 0.0
C524 C 0.22823 0.23564 0.73612 0.0
C525 C 0.24298 0.24898 0.78258 0.0
C526 C 0.2634 0.23059 0.81071 0.0
C527 C 0.27433 0.24151 0.85878 0.0
C528 C 0.29454 0.2225 0.88606 0.0
C529 C 0.30378 0.19368 0.86641 0.0
C530 C 0.29335 0.1832 0.81926 0.0
C531 C 0.27348 0.20137 0.7915 0.0
H532 H 0.72967 0.25997 0.83629 0.0
C533 C 0.71423 0.27713 0.82125 0.0
H534 H 0.69734 0.29948 0.755 0.0
H535 H 0.82312 0.24956 0.65823 0.0
H536 H 0.84684 0.28392 0.71992 0.0
H537 H 0.81794 0.31114 0.78681 0.0
H538 H 0.76529 0.3037 0.79305 0.0
C539 C 0.71326 0.28294 0.77033 0.0
C540 C 0.73141 0.26553 0.73217 0.0
C541 C 0.76209 0.27093 0.72828 0.0
C542 C 0.77858 0.25631 0.68831 0.0
C543 C 0.80937 0.261 0.68657 0.0
C544 C 0.8233 0.28052 0.72195 0.0
C545 C 0.80704 0.29576 0.75971 0.0
C546 C 0.7768 0.29116 0.76299 0.0
H547 H 0.79009 0.26764 0.57258 0.0
C548 C 0.79199 0.24224 0.5696 0.0
H549 H 0.78205 0.19842 0.60393 0.0
H550 H 0.67344 0.24841 0.73113 0.0
H551 H 0.64967 0.2145 0.66884 0.0
H552 H 0.67791 0.19079 0.59762 0.0
H553 H 0.73009 0.20073 0.58838 0.0
C554 C 0.78072 0.22386 0.60692 0.0
C555 C 0.76417 0.23736 0.65119 0.0
C556 C 0.73367 0.23127 0.656 0.0
C557 C 0.71731 0.24531 0.69659 0.0
C558 C 0.68687 0.23875 0.70057 0.0
C559 C 0.67295 0.21923 0.66518 0.0
C560 C 0.68885 0.20585 0.62514 0.0
C561 C 0.71884 0.21173 0.62035 0.0
H562 H 0.67437 0.70681 0.90799 0.0
C563 C 0.68648 0.7113 0.94324 0.0
H564 H 0.72562 0.72945 0.97483 0.0
H565 H 0.79825 0.71434 0.76834 0.0
H566 H 0.81845 0.67195 0.81978 0.0
H567 H 0.79643 0.65789 0.90356 0.0
H568 H 0.75403 0.68603 0.93636 0.0
C569 C 0.71248 0.72617 0.94039 0.0
C570 C 0.72559 0.73495 0.88956 0.0
C571 C 0.75063 0.71854 0.87119 0.0
C572 C 0.76357 0.72689 0.82312 0.0
C573 C 0.78804 0.7095 0.80516 0.0
C574 C 0.79973 0.68497 0.83413 0.0
C575 C 0.7873 0.67703 0.88127 0.0
C576 C 0.763 0.69345 0.8997 0.0
H577 H 0.80256 0.78124 0.79075 0.0
C578 C 0.79339 0.77877 0.75233 0.0
H579 H 0.75706 0.7623 0.70965 0.0
H580 H 0.6783 0.77195 0.91374 0.0
H581 H 0.65764 0.81356 0.86136 0.0
H582 H 0.67959 0.82733 0.77741 0.0
H583 H 0.72246 0.79963 0.74539 0.0
C584 C 0.76764 0.76373 0.747 0.0
C585 C 0.75181 0.75202 0.79374 0.0
C586 C 0.72622 0.76775 0.81127 0.0
C587 C 0.71327 0.75946 0.85942 0.0
C588 C 0.68857 0.77664 0.87694 0.0
C589 C 0.67658 0.80075 0.84739 0.0
C590 C 0.68897 0.80854 0.80016 0.0
C591 C 0.71357 0.79243 0.78222 0.0
loop_
_geom_bond_atom_site_label_1
_geom_bond_atom_site_label_2
_geom_bond_distance
_geom_bond_site_symmetry_2
_ccdc_geom_bond_type
Zn0 O3 2.031 . S
Zn0 O5 2.049 . S
Zn0 O10 2.067 . S
Zn1 O2 1.962 . S
Zn1 O4 1.986 . S
Zn1 O6 1.996 1_556 S
Zn1 O9 1.943 . S
O2 Zn1 1.962 . S
O2 C7 1.254 1_556 S
O3 Zn0 2.031 . S
O3 C7 1.269 . S
O4 Zn1 1.986 . S
O4 C11 1.262 . S
O5 Zn0 2.049 . S
O5 C13 1.260 . S
O6 Zn1 1.996 1_554 S
O6 C13 1.257 . S
C7 O2 1.254 1_554 S
C7 O3 1.269 . S
C8 O9 1.249 1_554 S
C8 O10 1.270 . S
O9 Zn1 1.943 . S
O9 C8 1.249 1_556 S
O10 Zn0 2.067 . S
O10 C8 1.270 . S
C11 O4 1.262 . S
C11 O12 1.232 . S
O12 C11 1.232 . S
C13 O5 1.260 . S
C13 O6 1.257 . S
Zn14 O17 2.031 . S
Zn14 O19 2.049 . S
Zn14 O24 2.067 . S
Zn15 O16 1.962 . S
Zn15 O18 1.986 . S
Zn15 O20 1.996 1_554 S
Zn15 O23 1.943 . S
O16 Zn15 1.962 . S
O16 C21 1.254 . S
O17 Zn14 2.031 . S
O17 C21 1.269 1_556 S
O18 Zn15 1.986 . S
O18 C25 1.262 . S
O19 Zn14 2.049 . S
O19 C27 1.260 . S
O20 Zn15 1.996 1_556 S
O20 C27 1.257 . S
C21 O16 1.254 . S
C21 O17 1.269 1_554 S
C22 O23 1.249 . S
C22 O24 1.270 1_554 S
O23 Zn15 1.943 . S
O23 C22 1.249 . S
O24 Zn14 2.067 . S
O24 C22 1.270 1_556 S
C25 O18 1.262 . S
C25 O26 1.232 . S
O26 C25 1.232 . S
C27 O19 1.260 . S
C27 O20 1.257 . S
Zn28 O31 2.031 . S
Zn28 O33 2.049 . S
Zn28 O38 2.067 . S
Zn29 O30 1.962 . S
Zn29 O32 1.986 . S
Zn29 O34 1.996 1_556 S
Zn29 O37 1.943 . S
O30 Zn29 1.962 . S
O30 C35 1.254 1_556 S
O31 Zn28 2.031 . S
O31 C35 1.269 . S
O32 Zn29 1.986 . S
O32 C39 1.262 . S
O33 Zn28 2.049 . S
O33 C41 1.260 . S
O34 Zn29 1.996 1_554 S
O34 C41 1.257 . S
C35 O30 1.254 1_554 S
C35 O31 1.269 . S
C36 O37 1.249 1_554 S
C36 O38 1.270 . S
O37 Zn29 1.943 . S
O37 C36 1.249 1_556 S
O38 Zn28 2.067 . S
O38 C36 1.270 . S
C39 O32 1.262 . S
C39 O40 1.232 . S
O40 C39 1.232 . S
C41 O33 1.260 . S
C41 O34 1.257 . S
Zn42 O45 2.031 . S
Zn42 O47 2.049 . S
Zn42 O52 2.067 . S
Zn43 O44 1.962 . S
Zn43 O46 1.986 . S
Zn43 O48 1.996 1_554 S
Zn43 O51 1.943 . S
O44 Zn43 1.962 . S
O44 C49 1.254 . S
O45 Zn42 2.031 . S
O45 C49 1.269 1_556 S
O46 Zn43 1.986 . S
O46 C53 1.262 . S
O47 Zn42 2.049 . S
O47 C55 1.260 . S
O48 Zn43 1.996 1_556 S
O48 C55 1.257 . S
C49 O44 1.254 . S
C49 O45 1.269 1_554 S
C50 O51 1.249 . S
C50 O52 1.270 1_554 S
O51 Zn43 1.943 . S
O51 C50 1.249 . S
O52 Zn42 2.067 . S
O52 C50 1.270 1_556 S
C53 O46 1.262 . S
C53 O54 1.232 . S
O54 C53 1.232 . S
C55 O47 1.260 . S
C55 O48 1.257 . S
Zn56 O59 2.031 . S
Zn56 O61 2.049 . S
Zn56 O66 2.067 . S
Zn57 O58 1.962 . S
Zn57 O60 1.986 . S
Zn57 O62 1.996 . S
Zn57 O65 1.943 . S
O58 Zn57 1.962 . S
O58 C63 1.254 . S
O59 Zn56 2.031 . S
O59 C63 1.269 . S
O60 Zn57 1.986 . S
O60 C67 1.262 . S
O61 Zn56 2.049 . S
O61 C69 1.260 . S
O62 Zn57 1.996 . S
O62 C69 1.257 . S
C63 O58 1.254 . S
C63 O59 1.269 . S
C64 O65 1.249 . S
C64 O66 1.270 . S
O65 Zn57 1.943 . S
O65 C64 1.249 . S
O66 Zn56 2.067 . S
O66 C64 1.270 . S
C67 O60 1.262 . S
C67 O68 1.232 . S
O68 C67 1.232 . S
C69 O61 1.260 . S
C69 O62 1.257 . S
Zn70 O73 2.031 . S
Zn70 O75 2.049 . S
Zn70 O80 2.067 . S
Zn71 O72 1.962 . S
Zn71 O74 1.986 . S
Zn71 O76 1.996 . S
Zn71 O79 1.943 . S
O72 Zn71 1.962 . S
O72 C77 1.254 . S
O73 Zn70 2.031 . S
O73 C77 1.269 . S
O74 Zn71 1.986 . S
O74 C81 1.262 . S
O75 Zn70 2.049 . S
O75 C83 1.260 . S
O76 Zn71 1.996 . S
O76 C83 1.257 . S
C77 O72 1.254 . S
C77 O73 1.269 . S
C78 O79 1.249 . S
C78 O80 1.270 . S
O79 Zn71 1.943 . S
O79 C78 1.249 . S
O80 Zn70 2.067 . S
O80 C78 1.270 . S
C81 O74 1.262 . S
C81 O82 1.232 . S
O82 C81 1.232 . S
C83 O75 1.260 . S
C83 O76 1.257 . S
Zn84 O87 2.031 . S
Zn84 O89 2.049 . S
Zn84 O94 2.067 . S
Zn85 O86 1.962 . S
Zn85 O88 1.986 . S
Zn85 O90 1.996 . S
Zn85 O93 1.943 . S
O86 Zn85 1.962 . S
O86 C91 1.254 . S
O87 Zn84 2.031 . S
O87 C91 1.269 . S
O88 Zn85 1.986 . S
O88 C95 1.262 . S
O89 Zn84 2.049 . S
O89 C97 1.260 . S
O90 Zn85 1.996 . S
O90 C97 1.257 . S
C91 O86 1.254 . S
C91 O87 1.269 . S
C92 O93 1.249 . S
C92 O94 1.270 . S
O93 Zn85 1.943 . S
O93 C92 1.249 . S
O94 Zn84 2.067 . S
O94 C92 1.270 . S
C95 O88 1.262 . S
C95 O96 1.232 . S
O96 C95 1.232 . S
C97 O89 1.260 . S
C97 O90 1.257 . S
Zn98 O101 2.031 . S
Zn98 O103 2.049 . S
Zn98 O108 2.067 . S
Zn99 O100 1.962 . S
Zn99 O102 1.986 . S
Zn99 O104 1.996 . S
Zn99 O107 1.943 . S
O100 Zn99 1.962 . S
O100 C105 1.254 . S
O101 Zn98 2.031 . S
O101 C105 1.269 . S
O102 Zn99 1.986 . S
O102 C109 1.262 . S
O103 Zn98 2.049 . S
O103 C111 1.260 . S
O104 Zn99 1.996 . S
O104 C111 1.257 . S
C105 O100 1.254 . S
C105 O101 1.269 . S
C106 O107 1.249 . S
C106 O108 1.270 . S
O107 Zn99 1.943 . S
O107 C106 1.249 . S
O108 Zn98 2.067 . S
O108 C106 1.270 . S
C109 O102 1.262 . S
C109 O110 1.232 . S
O110 C109 1.232 . S
C111 O103 1.260 . S
C111 O104 1.257 . S
H112 C113 0.951 . S
C113 H112 0.951 . S
C113 C119 1.265 . S
H114 C119 0.950 . S
H115 C123 0.949 . S
H116 C124 0.950 . S
H117 C125 0.951 . S
H118 C126 0.951 . S
C119 C113 1.265 . S
C119 H114 0.950 . S
C119 C120 1.478 . S
C120 C119 1.478 . S
C120 C121 1.397 . S
C120 C137 1.394 1_554 S
C121 C120 1.397 . S
C121 C122 1.438 . S
C121 C126 1.429 . S
C122 C121 1.438 . S
C122 C123 1.428 . S
C122 C135 1.394 . S
C123 H115 0.949 . S
C123 C122 1.428 . S
C123 C124 1.345 . S
C124 H116 0.950 . S
C124 C123 1.345 . S
C124 C125 1.424 . S
C125 H117 0.951 . S
C125 C124 1.424 . S
C125 C126 1.347 . S
C126 H118 0.951 . S
C126 C121 1.429 . S
C126 C125 1.347 . S
H127 C128 0.951 . S
C128 H127 0.951 . S
C128 C134 1.265 . S
H129 C134 0.950 . S
H130 C138 0.949 . S
H131 C139 0.950 . S
H132 C140 0.951 . S
H133 C141 0.951 . S
C134 C128 1.265 . S
C134 H129 0.950 . S
C134 C135 1.478 . S
C135 C122 1.394 . S
C135 C134 1.478 . S
C135 C136 1.397 1_554 S
C136 C135 1.397 1_556 S
C136 C137 1.438 . S
C136 C141 1.429 . S
C137 C120 1.394 1_556 S
C137 C136 1.438 . S
C137 C138 1.428 . S
C138 H130 0.949 . S
C138 C137 1.428 . S
C138 C139 1.345 . S
C139 H131 0.950 . S
C139 C138 1.345 . S
C139 C140 1.424 . S
C140 H132 0.951 . S
C140 C139 1.424 . S
C140 C141 1.347 . S
C141 H133 0.951 . S
C141 C136 1.429 . S
C141 C140 1.347 . S
H142 C143 0.936 1_556 S
C143 H142 0.936 1_554 S
C143 C149 1.275 . S
H144 C149 0.950 . S
H145 C153 0.949 . S
H146 C154 0.950 . S
H147 C155 0.951 . S
H148 C156 0.951 . S
C149 C143 1.275 . S
C149 H144 0.950 . S
C149 C150 1.478 . S
C150 C149 1.478 . S
C150 C151 1.397 . S
C150 C167 1.394 1_554 S
C151 C150 1.397 . S
C151 C152 1.438 . S
C151 C156 1.429 . S
C152 C151 1.438 . S
C152 C153 1.428 . S
C152 C165 1.394 . S
C153 H145 0.949 . S
C153 C152 1.428 . S
C153 C154 1.345 . S
C154 H146 0.950 . S
C154 C153 1.345 . S
C154 C155 1.424 . S
C155 H147 0.951 . S
C155 C154 1.424 . S
C155 C156 1.347 . S
C156 H148 0.951 . S
C156 C151 1.429 . S
C156 C155 1.347 . S
H157 C158 0.951 . S
C158 H157 0.951 . S
C158 C164 1.265 1_554 S
H159 C164 0.950 . S
H160 C168 0.949 . S
H161 C169 0.950 . S
H162 C170 0.951 . S
H163 C171 0.951 . S
C164 C158 1.265 1_556 S
C164 H159 0.950 . S
C164 C165 1.478 1_556 S
C165 C152 1.394 . S
C165 C164 1.478 1_554 S
C165 C166 1.397 1_554 S
C166 C165 1.397 1_556 S
C166 C167 1.438 . S
C166 C171 1.429 . S
C167 C150 1.394 1_556 S
C167 C166 1.438 . S
C167 C168 1.428 . S
C168 H160 0.949 . S
C168 C167 1.428 . S
C168 C169 1.345 . S
C169 H161 0.950 . S
C169 C168 1.345 . S
C169 C170 1.424 . S
C170 H162 0.951 . S
C170 C169 1.424 . S
C170 C171 1.347 . S
C171 H163 0.951 . S
C171 C166 1.429 . S
C171 C170 1.347 . S
H172 C173 0.951 . S
C173 H172 0.951 . S
C173 C179 1.265 . S
H174 C179 0.950 1_556 S
H175 C183 0.949 . S
H176 C184 0.950 . S
H177 C185 0.951 . S
H178 C186 0.951 . S
C179 C173 1.265 . S
C179 H174 0.950 1_554 S
C179 C180 1.478 . S
C180 C179 1.478 . S
C180 C181 1.397 1_554 S
C180 C197 1.394 . S
C181 C180 1.397 1_556 S
C181 C182 1.438 . S
C181 C186 1.429 . S
C182 C181 1.438 . S
C182 C183 1.428 . S
C182 C195 1.394 1_556 S
C183 H175 0.949 . S
C183 C182 1.428 . S
C183 C184 1.345 . S
C184 H176 0.950 . S
C184 C183 1.345 . S
C184 C185 1.424 . S
C185 H177 0.951 . S
C185 C184 1.424 . S
C185 C186 1.347 . S
C186 H178 0.951 . S
C186 C181 1.429 . S
C186 C185 1.347 . S
H187 C188 0.951 1_556 S
C188 H187 0.951 1_554 S
C188 C194 1.265 . S
H189 C194 0.950 . S
H190 C198 0.949 . S
H191 C199 0.950 . S
H192 C200 0.951 . S
H193 C201 0.951 . S
C194 C188 1.265 . S
C194 H189 0.950 . S
C194 C195 1.478 . S
C195 C182 1.394 1_554 S
C195 C194 1.478 . S
C195 C196 1.397 . S
C196 C195 1.397 . S
C196 C197 1.438 . S
C196 C201 1.429 . S
C197 C180 1.394 . S
C197 C196 1.438 . S
C197 C198 1.428 . S
C198 H190 0.949 . S
C198 C197 1.428 . S
C198 C199 1.345 . S
C199 H191 0.950 . S
C199 C198 1.345 . S
C199 C200 1.424 . S
C200 H192 0.951 . S
C200 C199 1.424 . S
C200 C201 1.347 . S
C201 H193 0.951 . S
C201 C196 1.429 . S
C201 C200 1.347 . S
H202 C203 0.951 1_556 S
C203 H202 0.951 1_554 S
C203 C209 1.265 . S
H204 C209 0.950 . S
H205 C213 0.949 . S
H206 C214 0.950 . S
H207 C215 0.951 . S
H208 C216 0.951 . S
C209 C203 1.265 . S
C209 H204 0.950 . S
C209 C210 1.478 . S
C210 C209 1.478 . S
C210 C211 1.397 . S
C210 C227 1.394 1_554 S
C211 C210 1.397 . S
C211 C212 1.438 . S
C211 C216 1.429 . S
C212 C211 1.438 . S
C212 C213 1.428 . S
C212 C225 1.406 . S
C213 H205 0.949 . S
C213 C212 1.428 . S
C213 C214 1.345 . S
C214 H206 0.950 . S
C214 C213 1.345 . S
C214 C215 1.424 . S
C215 H207 0.951 . S
C215 C214 1.424 . S
C215 C216 1.347 . S
C216 H208 0.951 . S
C216 C211 1.429 . S
C216 C215 1.347 . S
H217 C218 0.951 . S
C218 H217 0.951 . S
C218 C224 1.265 1_554 S
H219 C224 0.950 . S
H220 C228 0.949 . S
H221 C229 0.950 . S
H222 C230 0.951 . S
H223 C231 0.951 . S
C224 C218 1.265 1_556 S
C224 H219 0.950 . S
C224 C225 1.473 1_556 S
C225 C212 1.406 . S
C225 C224 1.473 1_554 S
C225 C226 1.390 1_554 S
C226 C225 1.390 1_556 S
C226 C227 1.438 . S
C226 C231 1.429 . S
C227 C210 1.394 1_556 S
C227 C226 1.438 . S
C227 C228 1.428 . S
C228 H220 0.949 . S
C228 C227 1.428 . S
C228 C229 1.345 . S
C229 H221 0.950 . S
C229 C228 1.345 . S
C229 C230 1.424 . S
C230 H222 0.951 . S
C230 C229 1.424 . S
C230 C231 1.347 . S
C231 H223 0.951 . S
C231 C226 1.429 . S
C231 C230 1.347 . S
H232 C233 0.951 . S
C233 H232 0.951 . S
C233 C239 1.265 . S
H234 C239 0.950 . S
H235 C243 0.949 . S
H236 C244 0.950 . S
H237 C245 0.951 . S
H238 C246 0.951 . S
C239 C233 1.265 . S
C239 H234 0.950 . S
C239 C240 1.478 . S
C240 C239 1.478 . S
C240 C241 1.397 . S
C240 C257 1.394 . S
C241 C240 1.397 . S
C241 C242 1.438 1_565 S
C241 C246 1.429 . S
C242 C241 1.438 1_545 S
C242 C243 1.428 . S
C242 C255 1.394 . S
C243 H235 0.949 . S
C243 C242 1.428 . S
C243 C244 1.345 . S
C244 H236 0.950 . S
C244 C243 1.345 . S
C244 C245 1.424 1_545 S
C245 H237 0.951 . S
C245 C244 1.424 1_565 S
C245 C246 1.347 . S
C246 H238 0.951 . S
C246 C241 1.429 . S
C246 C245 1.347 . S
H247 C248 0.951 . S
C248 H247 0.951 . S
C248 C254 1.265 . S
H249 C254 0.950 . S
H250 C258 0.949 . S
H251 C259 0.950 . S
H252 C260 0.951 . S
H253 C261 0.951 . S
C254 C248 1.265 . S
C254 H249 0.950 . S
C254 C255 1.478 . S
C255 C242 1.394 . S
C255 C254 1.478 . S
C255 C256 1.397 . S
C256 C255 1.397 . S
C256 C257 1.438 1_545 S
C256 C261 1.429 . S
C257 C240 1.394 . S
C257 C256 1.438 1_565 S
C257 C258 1.428 . S
C258 H250 0.949 . S
C258 C257 1.428 . S
C258 C259 1.345 . S
C259 H251 0.950 . S
C259 C258 1.345 . S
C259 C260 1.424 1_565 S
C260 H252 0.951 . S
C260 C259 1.424 1_545 S
C260 C261 1.347 . S
C261 H253 0.951 . S
C261 C256 1.429 . S
C261 C260 1.347 . S
H262 C263 0.951 . S
C263 H262 0.951 . S
C263 C269 1.265 . S
H264 C269 0.950 . S
H265 C273 0.949 . S
H266 C274 0.950 . S
H267 C275 0.951 . S
H268 C276 0.951 . S
C269 C263 1.265 . S
C269 H264 0.950 . S
C269 C270 1.478 . S
C270 C269 1.478 . S
C270 C271 1.397 . S
C270 C287 1.394 . S
C271 C270 1.397 . S
C271 C272 1.438 1_455 S
C271 C276 1.429 . S
C272 C271 1.438 1_655 S
C272 C273 1.428 . S
C272 C285 1.394 . S
C273 H265 0.949 . S
C273 C272 1.428 . S
C273 C274 1.345 . S
C274 H266 0.950 . S
C274 C273 1.345 . S
C274 C275 1.424 1_655 S
C275 H267 0.951 . S
C275 C274 1.424 1_455 S
C275 C276 1.347 . S
C276 H268 0.951 . S
C276 C271 1.429 . S
C276 C275 1.347 . S
H277 C278 0.951 . S
C278 H277 0.951 . S
C278 C284 1.265 . S
H279 C284 0.950 . S
H280 C288 0.949 . S
H281 C289 0.950 . S
H282 C290 0.951 . S
H283 C291 0.951 . S
C284 C278 1.265 . S
C284 H279 0.950 . S
C284 C285 1.478 . S
C285 C272 1.394 . S
C285 C284 1.478 . S
C285 C286 1.397 . S
C286 C285 1.397 . S
C286 C287 1.438 1_655 S
C286 C291 1.429 . S
C287 C270 1.394 . S
C287 C286 1.438 1_455 S
C287 C288 1.428 . S
C288 H280 0.949 . S
C288 C287 1.428 . S
C288 C289 1.345 . S
C289 H281 0.950 . S
C289 C288 1.345 . S
C289 C290 1.424 1_455 S
C290 H282 0.951 . S
C290 C289 1.424 1_655 S
C290 C291 1.347 . S
C291 H283 0.951 . S
C291 C286 1.429 . S
C291 C290 1.347 . S
H292 C293 0.951 . S
C293 H292 0.951 . S
C293 C299 1.265 . S
H294 C299 0.950 . S
H295 C303 0.949 . S
H296 C304 0.950 . S
H297 C305 0.951 . S
H298 C306 0.951 . S
C299 C293 1.265 . S
C299 H294 0.950 . S
C299 C300 1.478 . S
C300 C299 1.478 . S
C300 C301 1.397 . S
C300 C317 1.394 . S
C301 C300 1.397 . S
C301 C302 1.438 1_545 S
C301 C306 1.429 . S
C302 C301 1.438 1_565 S
C302 C303 1.428 . S
C302 C315 1.394 . S
C303 H295 0.949 . S
C303 C302 1.428 . S
C303 C304 1.345 . S
C304 H296 0.950 . S
C304 C303 1.345 . S
C304 C305 1.424 1_565 S
C305 H297 0.951 . S
C305 C304 1.424 1_545 S
C305 C306 1.347 . S
C306 H298 0.951 . S
C306 C301 1.429 . S
C306 C305 1.347 . S
H307 C308 0.951 . S
C308 H307 0.951 . S
C308 C314 1.265 . S
H309 C314 0.950 . S
H310 C318 0.949 . S
H311 C319 0.950 . S
H312 C320 0.951 . S
H313 C321 0.951 . S
C314 C308 1.265 . S
C314 H309 0.950 . S
C314 C315 1.478 . S
C315 C302 1.394 . S
C315 C314 1.478 . S
C315 C316 1.397 . S
C316 C315 1.397 . S
C316 C317 1.438 1_565 S
C316 C321 1.429 . S
C317 C300 1.394 . S
C317 C316 1.438 1_545 S
C317 C318 1.428 . S
C318 H310 0.949 . S
C318 C317 1.428 . S
C318 C319 1.345 . S
C319 H311 0.950 . S
C319 C318 1.345 . S
C319 C320 1.424 1_545 S
C320 H312 0.951 . S
C320 C319 1.424 1_565 S
C320 C321 1.347 . S
C321 H313 0.951 . S
C321 C316 1.429 . S
C321 C320 1.347 . S
H322 C323 0.951 . S
C323 H322 0.951 . S
C323 C329 1.265 . S
H324 C329 0.950 . S
H325 C333 0.949 . S
H326 C334 0.950 . S
H327 C335 0.951 . S
H328 C336 0.951 . S
C329 C323 1.265 . S
C329 H324 0.950 . S
C329 C330 1.478 . S
C330 C329 1.478 . S
C330 C331 1.397 . S
C330 C347 1.394 . S
C331 C330 1.397 . S
C331 C332 1.438 1_655 S
C331 C336 1.429 . S
C332 C331 1.438 1_455 S
C332 C333 1.428 . S
C332 C345 1.394 . S
C333 H325 0.949 . S
C333 C332 1.428 . S
C333 C334 1.345 . S
C334 H326 0.950 . S
C334 C333 1.345 . S
C334 C335 1.424 1_455 S
C335 H327 0.951 . S
C335 C334 1.424 1_655 S
C335 C336 1.347 . S
C336 H328 0.951 . S
C336 C331 1.429 . S
C336 C335 1.347 . S
H337 C338 0.951 . S
C338 H337 0.951 . S
C338 C344 1.265 . S
H339 C344 0.950 . S
H340 C348 0.949 . S
H341 C349 0.950 . S
H342 C350 0.951 . S
H343 C351 0.951 . S
C344 C338 1.265 . S
C344 H339 0.950 . S
C344 C345 1.478 . S
C345 C332 1.394 . S
C345 C344 1.478 . S
C345 C346 1.397 . S
C346 C345 1.397 . S
C346 C347 1.438 1_455 S
C346 C351 1.429 . S
C347 C330 1.394 . S
C347 C346 1.438 1_655 S
C347 C348 1.428 . S
C348 H340 0.949 . S
C348 C347 1.428 . S
C348 C349 1.345 . S
C349 H341 0.950 . S
C349 C348 1.345 . S
C349 C350 1.424 1_655 S
C350 H342 0.951 . S
C350 C349 1.424 1_455 S
C350 C351 1.347 . S
C351 H343 0.951 . S
C351 C346 1.429 . S
C351 C350 1.347 . S
H352 C353 0.951 . S
C353 H352 0.951 . S
C353 C359 1.265 . S
H354 C359 0.950 . S
H355 C363 0.949 . S
H356 C364 0.950 . S
H357 C365 0.951 . S
H358 C366 0.951 . S
C359 C353 1.265 . S
C359 H354 0.950 . S
C359 C360 1.478 . S
C360 C359 1.478 . S
C360 C361 1.397 . S
C360 C377 1.394 . S
C361 C360 1.397 . S
C361 C362 1.438 . S
C361 C366 1.429 . S
C362 C361 1.438 . S
C362 C363 1.428 . S
C362 C375 1.394 . S
C363 H355 0.949 . S
C363 C362 1.428 . S
C363 C364 1.345 . S
C364 H356 0.950 . S
C364 C363 1.345 . S
C364 C365 1.424 . S
C365 H357 0.951 . S
C365 C364 1.424 . S
C365 C366 1.347 . S
C366 H358 0.951 . S
C366 C361 1.429 . S
C366 C365 1.347 . S
H367 C368 0.951 . S
C368 H367 0.951 . S
C368 C374 1.265 . S
H369 C374 0.950 . S
H370 C378 0.949 . S
H371 C379 0.950 . S
H372 C380 0.951 . S
H373 C381 0.951 . S
C374 C368 1.265 . S
C374 H369 0.950 . S
C374 C375 1.478 . S
C375 C362 1.394 . S
C375 C374 1.478 . S
C375 C376 1.397 . S
C376 C375 1.397 . S
C376 C377 1.438 . S
C376 C381 1.429 . S
C377 C360 1.394 . S
C377 C376 1.438 . S
C377 C378 1.428 . S
C378 H370 0.949 . S
C378 C377 1.428 . S
C378 C379 1.345 . S
C379 H371 0.950 . S
C379 C378 1.345 . S
C379 C380 1.424 . S
C380 H372 0.951 . S
C380 C379 1.424 . S
C380 C381 1.347 . S
C381 H373 0.951 . S
C381 C376 1.429 . S
C381 C380 1.347 . S
H382 C383 0.951 . S
C383 H382 0.951 . S
C383 C389 1.265 . S
H384 C389 0.950 . S
H385 C393 0.949 . S
H386 C394 0.950 . S
H387 C395 0.951 . S
H388 C396 0.951 . S
C389 C383 1.265 . S
C389 H384 0.950 . S
C389 C390 1.478 . S
C390 C389 1.478 . S
C390 C391 1.397 . S
C390 C407 1.394 . S
C391 C390 1.397 . S
C391 C392 1.438 . S
C391 C396 1.429 . S
C392 C391 1.438 . S
C392 C393 1.428 . S
C392 C405 1.394 . S
C393 H385 0.949 . S
C393 C392 1.428 . S
C393 C394 1.345 . S
C394 H386 0.950 . S
C394 C393 1.345 . S
C394 C395 1.424 . S
C395 H387 0.951 . S
C395 C394 1.424 . S
C395 C396 1.347 . S
C396 H388 0.951 . S
C396 C391 1.429 . S
C396 C395 1.347 . S
H397 C398 0.951 . S
C398 H397 0.951 . S
C398 C404 1.265 . S
H399 C404 0.950 . S
H400 C408 0.949 . S
H401 C409 0.950 . S
H402 C410 0.951 . S
H403 C411 0.951 . S
C404 C398 1.265 . S
C404 H399 0.950 . S
C404 C405 1.478 . S
C405 C392 1.394 . S
C405 C404 1.478 . S
C405 C406 1.397 . S
C406 C405 1.397 . S
C406 C407 1.438 . S
C406 C411 1.429 . S
C407 C390 1.394 . S
C407 C406 1.438 . S
C407 C408 1.428 . S
C408 H400 0.949 . S
C408 C407 1.428 . S
C408 C409 1.345 . S
C409 H401 0.950 . S
C409 C408 1.345 . S
C409 C410 1.424 . S
C410 H402 0.951 . S
C410 C409 1.424 . S
C410 C411 1.347 . S
C411 H403 0.951 . S
C411 C406 1.429 . S
C411 C410 1.347 . S
H412 C413 0.951 . S
C413 H412 0.951 . S
C413 C419 1.265 . S
H414 C419 0.950 . S
H415 C423 0.949 . S
H416 C424 0.950 . S
H417 C425 0.951 . S
H418 C426 0.951 . S
C419 C413 1.265 . S
C419 H414 0.950 . S
C419 C420 1.478 . S
C420 C419 1.478 . S
C420 C421 1.397 . S
C420 C437 1.394 . S
C421 C420 1.397 . S
C421 C422 1.438 . S
C421 C426 1.429 . S
C422 C421 1.438 . S
C422 C423 1.428 . S
C422 C435 1.394 . S
C423 H415 0.949 . S
C423 C422 1.428 . S
C423 C424 1.345 . S
C424 H416 0.950 . S
C424 C423 1.345 . S
C424 C425 1.424 . S
C425 H417 0.951 . S
C425 C424 1.424 . S
C425 C426 1.347 . S
C426 H418 0.951 . S
C426 C421 1.429 . S
C426 C425 1.347 . S
H427 C428 0.951 . S
C428 H427 0.951 . S
C428 C434 1.265 . S
H429 C434 0.950 . S
H430 C438 0.949 . S
H431 C439 0.950 . S
H432 C440 0.951 . S
H433 C441 0.951 . S
C434 C428 1.265 . S
C434 H429 0.950 . S
C434 C435 1.478 . S
C435 C422 1.394 . S
C435 C434 1.478 . S
C435 C436 1.397 . S
C436 C435 1.397 . S
C436 C437 1.438 . S
C436 C441 1.429 . S
C437 C420 1.394 . S
C437 C436 1.438 . S
C437 C438 1.428 . S
C438 H430 0.949 . S
C438 C437 1.428 . S
C438 C439 1.345 . S
C439 H431 0.950 . S
C439 C438 1.345 . S
C439 C440 1.424 . S
C440 H432 0.951 . S
C440 C439 1.424 . S
C440 C441 1.347 . S
C441 H433 0.951 . S
C441 C436 1.429 . S
C441 C440 1.347 . S
H442 C443 0.951 . S
C443 H442 0.951 . S
C443 C449 1.265 . S
H444 C449 0.950 . S
H445 C453 0.949 . S
H446 C454 0.950 . S
H447 C455 0.951 . S
H448 C456 0.951 . S
C449 C443 1.265 . S
C449 H444 0.950 . S
C449 C450 1.478 . S
C450 C449 1.478 . S
C450 C451 1.397 . S
C450 C467 1.394 . S
C451 C450 1.397 . S
C451 C452 1.438 . S
C451 C456 1.429 . S
C452 C451 1.438 . S
C452 C453 1.428 . S
C452 C465 1.394 . S
C453 H445 0.949 . S
C453 C452 1.428 . S
C453 C454 1.345 . S
C454 H446 0.950 . S
C454 C453 1.345 . S
C454 C455 1.424 . S
C455 H447 0.951 . S
C455 C454 1.424 . S
C455 C456 1.347 . S
C456 H448 0.951 . S
C456 C451 1.429 . S
C456 C455 1.347 . S
H457 C458 0.951 . S
C458 H457 0.951 . S
C458 C464 1.265 . S
H459 C464 0.950 . S
H460 C468 0.949 . S
H461 C469 0.950 . S
H462 C470 0.951 . S
H463 C471 0.951 . S
C464 C458 1.265 . S
C464 H459 0.950 . S
C464 C465 1.478 . S
C465 C452 1.394 . S
C465 C464 1.478 . S
C465 C466 1.397 . S
C466 C465 1.397 . S
C466 C467 1.438 . S
C466 C471 1.429 . S
C467 C450 1.394 . S
C467 C466 1.438 . S
C467 C468 1.428 . S
C468 H460 0.949 . S
C468 C467 1.428 . S
C468 C469 1.345 . S
C469 H461 0.950 . S
C469 C468 1.345 . S
C469 C470 1.424 . S
C470 H462 0.951 . S
C470 C469 1.424 . S
C470 C471 1.347 . S
C471 H463 0.951 . S
C471 C466 1.429 . S
C471 C470 1.347 . S
H472 C473 0.951 . S
C473 H472 0.951 . S
C473 C479 1.265 . S
H474 C479 0.950 . S
H475 C483 0.949 . S
H476 C484 0.950 . S
H477 C485 0.951 . S
H478 C486 0.951 . S
C479 C473 1.265 . S
C479 H474 0.950 . S
C479 C480 1.478 . S
C480 C479 1.478 . S
C480 C481 1.397 . S
C480 C497 1.394 . S
C481 C480 1.397 . S
C481 C482 1.438 . S
C481 C486 1.429 . S
C482 C481 1.438 . S
C482 C483 1.428 . S
C482 C495 1.394 . S
C483 H475 0.949 . S
C483 C482 1.428 . S
C483 C484 1.345 . S
C484 H476 0.950 . S
C484 C483 1.345 . S
C484 C485 1.424 . S
C485 H477 0.951 . S
C485 C484 1.424 . S
C485 C486 1.347 . S
C486 H478 0.951 . S
C486 C481 1.429 . S
C486 C485 1.347 . S
H487 C488 0.951 . S
C488 H487 0.951 . S
C488 C494 1.265 . S
H489 C494 0.950 . S
H490 C498 0.949 . S
H491 C499 0.950 . S
H492 C500 0.951 . S
H493 C501 0.951 . S
C494 C488 1.265 . S
C494 H489 0.950 . S
C494 C495 1.478 . S
C495 C482 1.394 . S
C495 C494 1.478 . S
C495 C496 1.397 . S
C496 C495 1.397 . S
C496 C497 1.438 . S
C496 C501 1.429 . S
C497 C480 1.394 . S
C497 C496 1.438 . S
C497 C498 1.428 . S
C498 H490 0.949 . S
C498 C497 1.428 . S
C498 C499 1.345 . S
C499 H491 0.950 . S
C499 C498 1.345 . S
C499 C500 1.424 . S
C500 H492 0.951 . S
C500 C499 1.424 . S
C500 C501 1.347 . S
C501 H493 0.951 . S
C501 C496 1.429 . S
C501 C500 1.347 . S
H502 C503 0.951 . S
C503 H502 0.951 . S
C503 C509 1.265 . S
H504 C509 0.950 . S
H505 C513 0.949 . S
H506 C514 0.950 . S
H507 C515 0.951 . S
H508 C516 0.951 . S
C509 C503 1.265 . S
C509 H504 0.950 . S
C509 C510 1.478 . S
C510 C509 1.478 . S
C510 C511 1.397 . S
C510 C527 1.394 . S
C511 C510 1.397 . S
C511 C512 1.438 . S
C511 C516 1.429 . S
C512 C511 1.438 . S
C512 C513 1.428 . S
C512 C525 1.394 . S
C513 H505 0.949 . S
C513 C512 1.428 . S
C513 C514 1.345 . S
C514 H506 0.950 . S
C514 C513 1.345 . S
C514 C515 1.424 . S
C515 H507 0.951 . S
C515 C514 1.424 . S
C515 C516 1.347 . S
C516 H508 0.951 . S
C516 C511 1.429 . S
C516 C515 1.347 . S
H517 C518 0.951 . S
C518 H517 0.951 . S
C518 C524 1.265 . S
H519 C524 0.950 . S
H520 C528 0.949 . S
H521 C529 0.950 . S
H522 C530 0.951 . S
H523 C531 0.951 . S
C524 C518 1.265 . S
C524 H519 0.950 . S
C524 C525 1.478 . S
C525 C512 1.394 . S
C525 C524 1.478 . S
C525 C526 1.397 . S
C526 C525 1.397 . S
C526 C527 1.438 . S
C526 C531 1.429 . S
C527 C510 1.394 . S
C527 C526 1.438 . S
C527 C528 1.428 . S
C528 H520 0.949 . S
C528 C527 1.428 . S
C528 C529 1.345 . S
C529 H521 0.950 . S
C529 C528 1.345 . S
C529 C530 1.424 . S
C530 H522 0.951 . S
C530 C529 1.424 . S
C530 C531 1.347 . S
C531 H523 0.951 . S
C531 C526 1.429 . S
C531 C530 1.347 . S
H532 C533 0.951 . S
C533 H532 0.951 . S
C533 C539 1.265 . S
H534 C539 0.950 . S
H535 C543 0.949 . S
H536 C544 0.950 . S
H537 C545 0.951 . S
H538 C546 0.951 . S
C539 C533 1.265 . S
C539 H534 0.950 . S
C539 C540 1.478 . S
C540 C539 1.478 . S
C540 C541 1.397 . S
C540 C557 1.394 . S
C541 C540 1.397 . S
C541 C542 1.438 . S
C541 C546 1.429 . S
C542 C541 1.438 . S
C542 C543 1.428 . S
C542 C555 1.394 . S
C543 H535 0.949 . S
C543 C542 1.428 . S
C543 C544 1.345 . S
C544 H536 0.950 . S
C544 C543 1.345 . S
C544 C545 1.424 . S
C545 H537 0.951 . S
C545 C544 1.424 . S
C545 C546 1.347 . S
C546 H538 0.951 . S
C546 C541 1.429 . S
C546 C545 1.347 . S
H547 C548 0.951 . S
C548 H547 0.951 . S
C548 C554 1.265 . S
H549 C554 0.950 . S
H550 C558 0.949 . S
H551 C559 0.950 . S
H552 C560 0.951 . S
H553 C561 0.951 . S
C554 C548 1.265 . S
C554 H549 0.950 . S
C554 C555 1.478 . S
C555 C542 1.394 . S
C555 C554 1.478 . S
C555 C556 1.397 . S
C556 C555 1.397 . S
C556 C557 1.438 . S
C556 C561 1.429 . S
C557 C540 1.394 . S
C557 C556 1.438 . S
C557 C558 1.428 . S
C558 H550 0.949 . S
C558 C557 1.428 . S
C558 C559 1.345 . S
C559 H551 0.950 . S
C559 C558 1.345 . S
C559 C560 1.424 . S
C560 H552 0.951 . S
C560 C559 1.424 . S
C560 C561 1.347 . S
C561 H553 0.951 . S
C561 C556 1.429 . S
C561 C560 1.347 . S
H562 C563 0.951 . S
C563 H562 0.951 . S
C563 C569 1.265 . S
H564 C569 0.950 . S
H565 C573 0.949 . S
H566 C574 0.950 . S
H567 C575 0.951 . S
H568 C576 0.951 . S
C569 C563 1.265 . S
C569 H564 0.950 . S
C569 C570 1.478 . S
C570 C569 1.478 . S
C570 C571 1.397 . S
C570 C587 1.394 . S
C571 C570 1.397 . S
C571 C572 1.438 . S
C571 C576 1.429 . S
C572 C571 1.438 . S
C572 C573 1.428 . S
C572 C585 1.394 . S
C573 H565 0.949 . S
C573 C572 1.428 . S
C573 C574 1.345 . S
C574 H566 0.950 . S
C574 C573 1.345 . S
C574 C575 1.424 . S
C575 H567 0.951 . S
C575 C574 1.424 . S
C575 C576 1.347 . S
C576 H568 0.951 . S
C576 C571 1.429 . S
C576 C575 1.347 . S
H577 C578 0.951 . S
C578 H577 0.951 . S
C578 C584 1.265 . S
H579 C584 0.950 . S
H580 C588 0.949 . S
H581 C589 0.950 . S
H582 C590 0.951 . S
H583 C591 0.951 . S
C584 C578 1.265 . S
C584 H579 0.950 . S
C584 C585 1.478 . S
C585 C572 1.394 . S
C585 C584 1.478 . S
C585 C586 1.397 . S
C586 C585 1.397 . S
C586 C587 1.438 . S
C586 C591 1.429 . S
C587 C570 1.394 . S
C587 C586 1.438 . S
C587 C588 1.428 . S
C588 H580 0.949 . S
C588 C587 1.428 . S
C588 C589 1.345 . S
C589 H581 0.950 . S
C589 C588 1.345 . S
C589 C590 1.424 . S
C590 H582 0.951 . S
C590 C589 1.424 . S
C590 C591 1.347 . S
C591 H583 0.951 . S
C591 C586 1.429 . S
C591 C590 1.347 . S
C113 C8 1.447 . S
C128 C50 1.447 . S
C143 C7 1.480 . S
C158 C21 1.474 . S
C173 C22 1.459 . S
C188 C36 1.458 . S
C203 C49 1.424 . S
C218 C35 1.427 . S
C233 C64 1.444 . S
C248 C106 1.445 . S
C263 C77 1.476 . S
C278 C63 1.476 . S
C293 C92 1.455 . S
C308 C78 1.454 . S
C323 C105 1.475 . S
C338 C91 1.477 . S
C353 C95 1.431 . S
C368 C13 1.281 . S
C383 C25 1.433 . S
C398 C111 1.315 . S
C413 C67 1.430 . S
C428 C41 1.289 . S
C443 C83 1.409 . S
C458 C53 1.460 . S
C473 C81 1.454 . S
C488 C55 1.406 . S
C503 C11 1.430 . S
C518 C97 1.283 . S
C533 C27 1.313 . S
C548 C109 1.433 . S
C563 C39 1.430 . S
C578 C69 1.285 . S
