# Generated by pormake.
# Topology kag, (6)-cn, num edge types: 1
# Building blocks:
#     Node 0, Type 0, BuildingBlock: PAMTUU_clean_sbu_0, # of connection points: 6
#     Node 1, Type 0, BuildingBlock: PAMTUU_clean_sbu_0, # of connection points: 6
#     Node 2, Type 0, BuildingBlock: PAMTUU_clean_sbu_0, # of connection points: 6
#     Edge 3, Type (0, 0), BuildingBlock: EZIPEK_clean_linker_0, # of connection points: 2
#     Edge 4, Type (0, 0), BuildingBlock: EZIPEK_clean_linker_0, # of connection points: 2
#     Edge 5, Type (0, 0), BuildingBlock: EZIPEK_clean_linker_0, # of connection points: 2
#     Edge 6, Type (0, 0), BuildingBlock: EZIPEK_clean_linker_0, # of connection points: 2
#     Edge 7, Type (0, 0), BuildingBlock: EZIPEK_clean_linker_0, # of connection points: 2
#     Edge 8, Type (0, 0), BuildingBlock: EZIPEK_clean_linker_0, # of connection points: 2
#     Edge 9, Type (0, 0), BuildingBlock: EZIPEK_clean_linker_0, # of connection points: 2
#     Edge 10, Type (0, 0), BuildingBlock: EZIPEK_clean_linker_0, # of connection points: 2
#     Edge 11, Type (0, 0), BuildingBlock: EZIPEK_clean_linker_0, # of connection points: 2
# Relax obj value: 0.147
# Max RMSD: 0.203
# Mean RMSD: 0.143
data_MOF--net-kag--node1-PAMTUU_clean_sbu_0--edge1-EZIPEK_clean_linker_0
_symmetry_space_group_name_H-M    P1
_symmetry_Int_Tables_number       1
_symmetry_cell_setting            triclinic
loop_
_symmetry_equiv_pos_as_xyz
'x, y, z'
_cell_length_a     40.492369
_cell_length_b     22.526343
_cell_length_c     11.15468
_cell_angle_alpha  87.541055
_cell_angle_beta   98.993442
_cell_angle_gamma 123.62283
loop_
_atom_site_label
_atom_site_type_symbol
_atom_site_fract_x
_atom_site_fract_y
_atom_site_fract_z
_atom_type_partial_charge
Tb0 Tb 1.04945 0.6269 -0.01299 0.0
Tb1 Tb 0.06104 0.48944 0.00772 0.0
C2 C 1.05041 0.55294 0.75876 0.0
C3 C 1.00394 0.73001 -0.00195 0.0
C4 C 0.93953 0.73841 0.04799 0.0
C5 C 0.96486 0.7825 0.96367 0.0
C6 C 0.99714 0.77973 0.94211 0.0
C7 C 0.97656 0.68019 0.0701 0.0
C8 C 0.94432 0.68308 0.09186 0.0
C9 C 1.03688 0.72545 0.96995 0.0
O10 O 0.99067 0.53613 0.00725 0.0
O11 O 0.99625 0.43951 -0.00675 0.0
O12 O 0.05358 0.50279 0.1897 0.0
O13 O 0.05512 0.60738 0.1804 0.0
O14 O 1.04987 0.39684 0.92347 0.0
O15 O 0.08707 0.43799 0.09911 0.0
O16 O 0.12101 0.58547 0.04776 0.0
O17 O 0.11203 0.6728 0.96787 0.0
O18 O 1.03302 0.57919 0.80472 0.0
O19 O 0.06916 0.52827 0.82641 0.0
C20 C 0.97527 0.46732 0.00246 0.0
O21 O 0.05955 0.72099 0.0617 0.0
O22 O 1.02682 0.67997 0.8815 0.0
C23 C 0.05382 0.55452 0.2404 0.0
C24 C 0.10972 0.39849 0.96114 0.0
C25 C 0.18206 0.42704 0.90089 0.0
C26 C 0.16713 0.38822 0.00296 0.0
C27 C 0.13121 0.37418 0.03302 0.0
C28 C 0.12398 0.43487 0.85628 0.0
C29 C 0.15987 0.44905 0.82656 0.0
C30 C 0.07621 0.39514 0.00516 0.0
C31 C 0.13509 0.6497 0.00853 0.0
H32 H 0.9597 0.81826 0.90969 0.0
H33 H 1.01626 0.81548 0.87901 0.0
H34 H 0.97956 0.6379 0.10751 0.0
H35 H 0.92283 0.63984 0.14039 0.0
H36 H 0.18398 0.371 0.06141 0.0
H37 H 0.12104 0.34685 0.11502 0.0
H38 H 0.10826 0.45484 0.79975 0.0
H39 H 0.171 0.47904 0.74747 0.0
Tb40 Tb 0.50071 1.021 0.94484 0.0
Tb41 Tb 0.60132 0.10526 -0.01133 0.0
C42 C 0.54865 1.05891 0.72637 0.0
C43 C 0.38491 0.90985 0.93248 0.0
C44 C 0.3053 0.82408 0.97882 0.0
C45 C 0.31319 0.84772 0.86202 0.0
C46 C 0.35259 0.89 0.83912 0.0
C47 C 0.3773 0.88559 0.04952 0.0
C48 C 0.33756 0.84238 0.07238 0.0
C49 C 0.42556 0.96188 0.9055 0.0
O50 O 0.51217 0.93613 0.97488 0.0
O51 O 0.58057 0.99401 0.97159 0.0
O52 O 0.58601 0.07832 0.16936 0.0
O53 O 0.52021 1.04741 0.13908 0.0
O54 O 0.65329 0.18783 0.92548 0.0
O55 O 0.65697 0.12442 0.0755 0.0
O56 O 0.58836 0.186 0.01424 0.0
O57 O 0.5236 0.13206 0.91346 0.0
O58 O 0.51782 1.05094 0.76652 0.0
O59 O 0.58041 0.0694 0.79842 0.0
C60 C 0.54482 0.93593 0.97542 0.0
O61 O 0.45019 1.01567 0.98336 0.0
O62 O 0.44377 0.93957 0.85338 0.0
C63 C 0.55364 1.06364 0.20996 0.0
C64 C 0.72026 0.21736 0.00889 0.0
C65 C 0.80381 0.29327 0.01229 0.0
C66 C 0.78612 0.24538 0.10261 0.0
C67 C 0.74458 0.20752 0.10079 0.0
C68 C 0.73822 0.26571 0.91903 0.0
C69 C 0.77966 0.3033 0.9207 0.0
C70 C 0.6762 0.17532 0.00292 0.0
C71 C 0.55753 0.18865 0.96463 0.0
H72 H 0.28873 0.8337 0.78856 0.0
H73 H 0.35788 0.90879 0.7486 0.0
H74 H 0.40193 0.90091 0.12302 0.0
H75 H 0.33195 0.82391 0.1628 0.0
H76 H 0.80448 0.23739 0.17424 0.0
H77 H 0.73151 0.17041 0.17086 0.0
H78 H 0.72022 0.27408 0.84665 0.0
H79 H 0.79294 0.34037 0.85072 0.0
Tb80 Tb 0.60543 0.62098 0.02648 0.0
Tb81 Tb 0.50553 0.51379 0.97783 0.0
C82 C 0.55438 0.56128 0.23749 0.0
C83 C 0.71809 0.70504 0.07248 0.0
C84 C 0.79028 0.71537 0.06339 0.0
C85 C 0.78986 0.7634 0.13809 0.0
C86 C 0.75412 0.75829 0.14245 0.0
C87 C 0.71824 0.6568 -0.00302 0.0
C88 C 0.75428 0.66211 -0.00782 0.0
C89 C 0.68104 0.7005 0.08413 0.0
O90 O 0.59259 0.51288 0.01545 0.0
O91 O 0.52307 0.43873 0.97257 0.0
O92 O 0.52446 0.5501 0.80036 0.0
O93 O 0.59142 0.58906 0.83544 0.0
O94 O 0.45213 0.46608 0.0502 0.0
O95 O 0.45052 0.44947 0.86011 0.0
O96 O 0.51927 0.62013 0.0139 0.0
O97 O 0.58461 0.69146 0.97722 0.0
O98 O 0.58249 0.61867 0.19234 0.0
O99 O 0.52604 0.50604 0.16642 0.0
C100 C 0.55887 0.44912 -0.00892 0.0
O101 O 0.66106 0.70665 -0.01386 0.0
O102 O 0.6573 0.65066 0.15109 0.0
C103 C 0.55782 0.5679 0.76147 0.0
C104 C 0.39766 0.45423 0.91443 0.0
C105 C 0.33378 0.47578 0.86299 0.0
C106 C 0.33018 0.4143 0.81712 0.0
C107 C 0.36174 0.40445 0.84071 0.0
C108 C 0.40137 0.51372 0.96571 0.0
C109 C 0.36969 0.5233 0.94322 0.0
C110 C 0.42951 0.44029 0.94472 0.0
C111 C 0.55056 0.68248 -0.00703 0.0
H112 H 0.8173 0.80477 0.19361 0.0
H113 H 0.75456 0.79576 0.20153 0.0
H114 H 0.69061 0.61507 0.94278 0.0
H115 H 0.75407 0.62457 0.93407 0.0
H116 H 0.30242 0.37132 0.76623 0.0
H117 H 0.35759 0.35663 0.8038 0.0
H118 H 0.42838 0.55192 0.02669 0.0
H119 H 0.37387 0.56691 -0.00555 0.0
C120 C 1.02582 0.48858 0.55399 0.0
C121 C 1.05038 0.55338 0.62597 0.0
C122 C 0.08088 0.61617 0.44905 0.0
C123 C 0.05285 0.55347 0.37355 0.0
N124 N 0.99398 0.43201 0.35291 0.0
N125 N 0.09765 0.68124 0.64003 0.0
C126 C 1.02411 0.49003 0.42564 0.0
C127 C 0.07658 0.618 0.57264 0.0
N128 N 1.00436 0.42536 0.60825 0.0
N129 N 0.11327 0.67237 0.40522 0.0
H130 H 0.09656 0.68471 0.732 0.0
H131 H 0.11366 0.73075 0.60233 0.0
H132 H 0.11912 0.67151 0.31781 0.0
H133 H 0.13681 0.71648 0.4595 0.0
H134 H 0.98979 0.3757 0.5624 0.0
H135 H 1.00371 0.42222 0.70145 0.0
H136 H 0.96963 0.38796 0.38533 0.0
H137 H 0.99083 0.43006 0.25853 0.0
C138 C 0.52453 0.99848 0.39229 0.0
C139 C 0.55377 1.06224 0.34317 0.0
C140 C 0.5789 0.1241 0.54533 0.0
C141 C 0.54913 1.06058 0.59365 0.0
N142 N 0.48919 0.94129 0.56152 0.0
N143 N 0.61285 0.18288 0.37408 0.0
C144 C 0.52062 0.99894 0.51663 0.0
C145 C 0.58221 0.12425 0.42005 0.0
N146 N 0.50242 0.93609 0.32185 0.0
N147 N 0.60214 0.1857 0.6178 0.0
H148 H 0.61536 0.18748 0.28225 0.0
H149 H 0.63747 0.22593 0.42739 0.0
H150 H 0.59997 0.18825 0.70912 0.0
H151 H 0.62119 0.23588 0.5863 0.0
H152 H 0.4839 0.88618 0.35521 0.0
H153 H 0.50553 0.93276 0.23178 0.0
H154 H 0.46471 0.89842 0.50731 0.0
H155 H 0.48565 0.93839 0.65241 0.0
C156 C 0.56613 0.52191 0.57279 0.0
C157 C 0.55799 0.56748 0.6275 0.0
C158 C 0.54672 0.60816 0.42556 0.0
C159 C 0.5537 0.56094 0.37105 0.0
N160 N 0.5619 0.46267 0.38922 0.0
N161 N 0.54871 0.66445 0.61033 0.0
C162 C 0.56109 0.51496 0.44373 0.0
C163 C 0.55017 0.61311 0.5548 0.0
N164 N 0.58037 0.48735 0.64399 0.0
N165 N 0.53478 0.64558 0.35287 0.0
H166 H 0.55274 0.67148 0.70448 0.0
H167 H 0.54706 0.70428 0.56508 0.0
H168 H 0.53135 0.64242 0.25834 0.0
H169 H 0.52512 0.67542 0.38424 0.0
H170 H 0.59166 0.46078 0.61041 0.0
H171 H 0.5842 0.48976 0.73843 0.0
H172 H 0.56217 0.42179 0.43552 0.0
H173 H 0.5585 0.45589 0.29546 0.0
C174 C 0.25744 0.50819 0.94119 0.0
C175 C 0.2221 0.44868 0.87514 0.0
C176 C 0.26378 0.43725 0.75312 0.0
C177 C 0.29813 0.48338 0.83955 0.0
N178 N 0.32653 0.60008 0.93045 0.0
N179 N 0.1913 0.35853 0.71082 0.0
C180 C 0.29536 0.53031 0.91151 0.0
C181 C 0.2251 0.41447 0.77733 0.0
N182 N 0.25506 0.5441 0.03148 0.0
N183 N 0.26871 0.42231 0.6426 0.0
H184 H 0.16239 0.34026 0.72571 0.0
H185 H 0.1922 0.32721 0.64695 0.0
H186 H 0.29728 0.44574 0.61922 0.0
H187 H 0.24509 0.39454 0.57096 0.0
H188 H 0.28039 0.58333 0.08934 0.0
H189 H 0.22785 0.53227 0.05222 0.0
H190 H 0.32496 0.63836 0.9738 0.0
H191 H 0.3511 0.62113 0.88469 0.0
C192 C 0.86424 0.31496 0.93361 0.0
C193 C 0.84793 0.33485 0.0149 0.0
C194 C 0.91553 0.43416 0.10029 0.0
C195 C 0.9316 0.41934 0.00955 0.0
N196 N 0.91927 0.35424 0.82316 0.0
N197 N 0.85688 0.41999 0.16182 0.0
C198 C 0.90549 0.36167 0.92206 0.0
C199 C 0.87325 0.39626 0.09452 0.0
N200 N 0.84036 0.25114 0.86795 0.0
N201 N 0.9405 0.4828 0.19465 0.0
H202 H 0.82605 0.39315 0.16181 0.0
H203 H 0.87354 0.46942 0.20958 0.0
H204 H 0.97166 0.51182 0.20442 0.0
H205 H 0.9304 0.48946 0.27011 0.0
H206 H 0.85151 0.23032 0.81697 0.0
H207 H 0.80988 0.21602 0.87305 0.0
H208 H 0.90058 0.31769 0.75037 0.0
H209 H 0.9486 0.3895 0.80701 0.0
C210 C 0.56462 0.85791 0.08699 0.0
C211 C 0.54229 0.86698 0.98491 0.0
C212 C 0.52111 0.75039 0.89593 0.0
C213 C 0.54739 0.74567 -0.00924 0.0
N214 N 0.59607 0.79687 0.17408 0.0
N215 N 0.50237 0.82547 0.7859 0.0
C216 C 0.56976 0.80013 0.08544 0.0
C217 C 0.521 0.81378 0.88822 0.0
N218 N 0.57953 0.90305 0.18788 0.0
N219 N 0.49617 0.69426 0.81291 0.0
H220 H 0.50119 0.87048 0.77787 0.0
H221 H 0.49063 0.79347 0.70596 0.0
H222 H 0.49671 0.6486 0.81093 0.0
H223 H 0.473 0.69068 0.75087 0.0
H224 H 0.59245 0.8954 0.27024 0.0
H225 H 0.57549 0.94469 0.19322 0.0
H226 H 0.61684 0.83887 0.23681 0.0
H227 H 0.59895 0.75362 0.18096 0.0
C228 C 0.87898 0.6979 0.15737 0.0
C229 C 0.90567 0.7443 0.07758 0.0
C230 C 0.85887 0.77946 0.00355 0.0
C231 C 0.829 0.72216 0.06262 0.0
N232 N 0.81068 0.62598 0.19848 0.0
N233 N 0.93013 0.86399 0.01715 0.0
C234 C 0.83903 0.68094 0.14018 0.0
C235 C 0.89856 0.79556 0.0249 0.0
N236 N 0.89378 0.68119 0.26218 0.0
N237 N 0.84953 0.81871 0.9267 0.0
H238 H 0.95937 0.88107 0.05664 0.0
H239 H 0.9266 0.90523 -0.01043 0.0
H240 H 0.82074 0.80866 0.90851 0.0
H241 H 0.86968 0.85696 0.87358 0.0
H242 H 0.87662 0.65298 0.32962 0.0
H243 H 0.92462 0.70527 0.28919 0.0
H244 H 0.81559 0.58999 0.24606 0.0
H245 H 0.78143 0.61325 0.19167 0.0
C246 C 0.20416 0.76145 0.07297 0.0
C247 C 0.17894 0.69573 0.00319 0.0
C248 C 0.23814 0.70884 0.94122 0.0
C249 C 0.26275 0.77798 -0.00094 0.0
N250 N 0.26886 0.87487 0.10737 0.0
N251 N 0.17153 0.61546 0.84871 0.0
C252 C 0.24574 0.80562 0.06211 0.0
C253 C 0.19585 0.6716 0.93165 0.0
N254 N 0.18869 0.78078 0.15202 0.0
N255 N 0.25525 0.67828 0.89637 0.0
H256 H 0.14046 0.5882 0.8354 0.0
H257 H 0.18222 0.60132 0.78373 0.0
H258 H 0.28628 0.70357 0.90368 0.0
H259 H 0.23893 0.62543 0.86264 0.0
H260 H 0.20635 0.82396 0.21515 0.0
H261 H 0.15838 0.75033 0.16109 0.0
H262 H 0.2572 0.90052 0.14198 0.0
H263 H 0.2994 0.90852 0.10228 0.0
C264 C 0.54371 0.34033 0.8732 0.0
C265 C 0.56105 0.38498 0.98211 0.0
C266 C 0.57301 0.29749 0.08209 0.0
C267 C 0.56021 0.25767 0.96993 0.0
N268 N 0.5423 0.25191 0.75213 0.0
N269 N 0.60031 0.41174 0.18357 0.0
C270 C 0.54807 0.28215 0.86356 0.0
C271 C 0.57863 0.36578 0.08394 0.0
N272 N 0.52269 0.35252 0.77853 0.0
N273 N 0.57687 0.26799 0.18854 0.0
H274 H 0.60481 0.46163 0.19148 0.0
H275 H 0.61696 0.40277 0.25414 0.0
H276 H 0.56952 0.2158 0.19189 0.0
H277 H 0.58234 0.29173 0.2738 0.0
H278 H 0.50554 0.31655 0.70389 0.0
H279 H 0.51999 0.39589 0.77725 0.0
H280 H 0.53761 0.27256 0.67066 0.0
H281 H 0.54653 0.21101 0.74058 0.0
loop_
_geom_bond_atom_site_label_1
_geom_bond_atom_site_label_2
_geom_bond_distance
_geom_bond_site_symmetry_2
_ccdc_geom_bond_type
Tb0 C9 2.764 . S
Tb0 O10 2.325 . S
Tb0 O13 2.303 1_656 S
Tb0 O17 2.322 1_655 S
Tb0 O18 2.349 . S
Tb0 O21 2.415 1_556 S
Tb0 O22 2.399 . S
Tb1 O11 2.322 1_455 S
Tb1 O12 2.349 . S
Tb1 O14 2.415 1_554 S
Tb1 O15 2.399 . S
Tb1 O16 2.325 . S
Tb1 O19 2.303 1_554 S
Tb1 C30 2.764 . S
C2 O18 1.292 . S
C2 O19 1.245 1_655 S
C3 C6 1.358 . S
C3 C7 1.332 1_556 S
C3 C9 1.504 . S
C4 C5 1.373 1_554 S
C4 C8 1.308 . S
C5 C4 1.373 1_556 S
C5 C6 1.429 . S
C5 H32 0.932 . S
C6 C3 1.358 . S
C6 C5 1.429 . S
C6 H33 0.930 . S
C7 C3 1.332 1_554 S
C7 C8 1.394 . S
C7 H34 0.932 . S
C8 C4 1.308 . S
C8 C7 1.394 . S
C8 H35 0.929 . S
C9 Tb0 2.764 . S
C9 C3 1.504 . S
C9 O21 1.239 1_556 S
C9 O22 1.263 . S
O10 Tb0 2.325 . S
O10 C20 1.236 . S
O11 Tb1 2.322 1_655 S
O11 C20 1.257 1_554 S
O12 Tb1 2.349 . S
O12 C23 1.261 . S
O13 Tb0 2.303 1_454 S
O13 C23 1.257 . S
O14 Tb1 2.415 1_556 S
O14 C30 1.239 1_556 S
O15 Tb1 2.399 . S
O15 C30 1.263 . S
O16 Tb1 2.325 . S
O16 C31 1.236 . S
O17 Tb0 2.322 1_455 S
O17 C31 1.257 1_556 S
O18 Tb0 2.349 . S
O18 C2 1.292 . S
O19 Tb1 2.303 1_556 S
O19 C2 1.245 1_455 S
C20 O10 1.236 . S
C20 O11 1.257 1_556 S
O21 Tb0 2.415 1_554 S
O21 C9 1.239 1_554 S
O22 Tb0 2.399 . S
O22 C9 1.263 . S
C23 O12 1.261 . S
C23 O13 1.257 . S
C24 C27 1.358 . S
C24 C28 1.332 1_554 S
C24 C30 1.504 . S
C25 C26 1.373 1_556 S
C25 C29 1.308 . S
C26 C25 1.373 1_554 S
C26 C27 1.429 . S
C26 H36 0.932 . S
C27 C24 1.358 . S
C27 C26 1.429 . S
C27 H37 0.930 . S
C28 C24 1.332 1_556 S
C28 C29 1.394 . S
C28 H38 0.932 . S
C29 C25 1.308 . S
C29 C28 1.394 . S
C29 H39 0.929 . S
C30 Tb1 2.764 . S
C30 O14 1.239 1_554 S
C30 O15 1.263 . S
C30 C24 1.504 . S
C31 O16 1.236 . S
C31 O17 1.257 1_554 S
H32 C5 0.932 . S
H33 C6 0.930 . S
H34 C7 0.932 . S
H35 C8 0.929 . S
H36 C26 0.932 . S
H37 C27 0.930 . S
H38 C28 0.932 . S
H39 C29 0.929 . S
Tb40 C49 2.764 . S
Tb40 O50 2.325 . S
Tb40 O53 2.303 1_556 S
Tb40 O57 2.322 1_565 S
Tb40 O58 2.349 . S
Tb40 O61 2.415 1_556 S
Tb40 O62 2.399 . S
Tb41 O51 2.322 1_545 S
Tb41 O52 2.349 . S
Tb41 O54 2.415 1_554 S
Tb41 O55 2.399 . S
Tb41 O56 2.325 . S
Tb41 O59 2.303 1_554 S
Tb41 C70 2.764 . S
C42 O58 1.261 . S
C42 O59 1.257 1_565 S
C43 C46 1.358 . S
C43 C47 1.332 1_556 S
C43 C49 1.504 . S
C44 C45 1.381 . S
C44 C48 1.302 1_556 S
C45 C44 1.381 . S
C45 C46 1.429 . S
C45 H72 0.932 . S
C46 C43 1.358 . S
C46 C45 1.429 . S
C46 H73 0.930 . S
C47 C43 1.332 1_554 S
C47 C48 1.394 . S
C47 H74 0.932 . S
C48 C44 1.302 1_554 S
C48 C47 1.394 . S
C48 H75 0.929 . S
C49 Tb40 2.764 . S
C49 C43 1.504 . S
C49 O61 1.239 1_556 S
C49 O62 1.263 . S
O50 Tb40 2.325 . S
O50 C60 1.236 1_556 S
O51 Tb41 2.322 1_565 S
O51 C60 1.257 . S
O52 Tb41 2.349 . S
O52 C63 1.261 . S
O53 Tb40 2.303 1_554 S
O53 C63 1.257 1_565 S
O54 Tb41 2.415 1_556 S
O54 C70 1.239 1_556 S
O55 Tb41 2.399 . S
O55 C70 1.263 . S
O56 Tb41 2.325 . S
O56 C71 1.236 1_554 S
O57 Tb40 2.322 1_545 S
O57 C71 1.257 . S
O58 Tb40 2.349 . S
O58 C42 1.261 . S
O59 Tb41 2.303 1_556 S
O59 C42 1.257 1_545 S
C60 O50 1.236 1_554 S
C60 O51 1.257 . S
O61 Tb40 2.415 1_554 S
O61 C49 1.239 1_554 S
O62 Tb40 2.399 . S
O62 C49 1.263 . S
C63 O52 1.261 . S
C63 O53 1.257 1_545 S
C64 C67 1.358 . S
C64 C68 1.332 1_554 S
C64 C70 1.504 . S
C65 C66 1.373 . S
C65 C69 1.308 1_554 S
C66 C65 1.373 . S
C66 C67 1.429 . S
C66 H76 0.932 . S
C67 C64 1.358 . S
C67 C66 1.429 . S
C67 H77 0.930 . S
C68 C64 1.332 1_556 S
C68 C69 1.394 . S
C68 H78 0.932 . S
C69 C65 1.308 1_556 S
C69 C68 1.394 . S
C69 H79 0.929 . S
C70 Tb41 2.764 . S
C70 O54 1.239 1_554 S
C70 O55 1.263 . S
C70 C64 1.504 . S
C71 O56 1.236 1_556 S
C71 O57 1.257 . S
H72 C45 0.932 . S
H73 C46 0.930 . S
H74 C47 0.932 . S
H75 C48 0.929 . S
H76 C66 0.932 . S
H77 C67 0.930 . S
H78 C68 0.932 . S
H79 C69 0.929 . S
Tb80 C89 2.764 . S
Tb80 O90 2.325 . S
Tb80 O93 2.303 1_554 S
Tb80 O97 2.322 . S
Tb80 O98 2.349 . S
Tb80 O101 2.415 1_554 S
Tb80 O102 2.399 . S
Tb81 O91 2.322 . S
Tb81 O92 2.349 . S
Tb81 O94 2.415 1_556 S
Tb81 O95 2.399 . S
Tb81 O96 2.325 . S
Tb81 O99 2.303 1_556 S
Tb81 C110 2.764 . S
C82 O98 1.261 . S
C82 O99 1.257 . S
C83 C86 1.358 . S
C83 C87 1.332 1_554 S
C83 C89 1.504 . S
C84 C85 1.373 . S
C84 C88 1.308 1_554 S
C85 C84 1.373 . S
C85 C86 1.429 . S
C85 H112 0.932 . S
C86 C83 1.358 . S
C86 C85 1.429 . S
C86 H113 0.930 . S
C87 C83 1.332 1_556 S
C87 C88 1.394 . S
C87 H114 0.932 . S
C88 C84 1.308 1_556 S
C88 C87 1.394 . S
C88 H115 0.929 . S
C89 Tb80 2.764 . S
C89 C83 1.504 . S
C89 O101 1.239 1_554 S
C89 O102 1.263 . S
O90 Tb80 2.325 . S
O90 C100 1.236 1_554 S
O91 Tb81 2.322 . S
O91 C100 1.257 . S
O92 Tb81 2.349 . S
O92 C103 1.261 . S
O93 Tb80 2.303 1_556 S
O93 C103 1.257 . S
O94 Tb81 2.415 1_554 S
O94 C110 1.239 1_554 S
O95 Tb81 2.399 . S
O95 C110 1.263 . S
O96 Tb81 2.325 . S
O96 C111 1.236 1_556 S
O97 Tb80 2.322 . S
O97 C111 1.257 . S
O98 Tb80 2.349 . S
O98 C82 1.261 . S
O99 Tb81 2.303 1_554 S
O99 C82 1.257 . S
C100 O90 1.236 1_556 S
C100 O91 1.257 . S
O101 Tb80 2.415 1_556 S
O101 C89 1.239 1_556 S
O102 Tb80 2.399 . S
O102 C89 1.263 . S
C103 O92 1.261 . S
C103 O93 1.257 . S
C104 C107 1.358 . S
C104 C108 1.332 1_556 S
C104 C110 1.504 . S
C105 C106 1.373 . S
C105 C109 1.308 1_556 S
C106 C105 1.373 . S
C106 C107 1.429 . S
C106 H116 0.932 . S
C107 C104 1.358 . S
C107 C106 1.429 . S
C107 H117 0.930 . S
C108 C104 1.332 1_554 S
C108 C109 1.394 . S
C108 H118 0.932 . S
C109 C105 1.308 1_554 S
C109 C108 1.394 . S
C109 H119 0.929 . S
C110 Tb81 2.764 . S
C110 O94 1.239 1_556 S
C110 O95 1.263 . S
C110 C104 1.504 . S
C111 O96 1.236 1_554 S
C111 O97 1.257 . S
H112 C85 0.932 . S
H113 C86 0.930 . S
H114 C87 0.932 . S
H115 C88 0.929 . S
H116 C106 0.932 . S
H117 C107 0.930 . S
H118 C108 0.932 . S
H119 C109 0.929 . S
C120 C121 1.363 1_655 S
C120 C126 1.379 . S
C120 N128 1.356 . S
C121 C120 1.363 1_455 S
C121 C127 1.363 . S
C122 C123 1.363 . S
C122 C127 1.379 . S
C122 N129 1.356 . S
C123 C122 1.363 . S
C123 C126 1.363 1_455 S
N124 C126 1.356 . S
N124 H136 0.984 . S
N124 H137 0.985 . S
N125 C127 1.356 . S
N125 H130 0.984 . S
N125 H131 0.985 . S
C126 C120 1.379 . S
C126 C123 1.363 1_655 S
C126 N124 1.356 . S
C127 C121 1.363 . S
C127 C122 1.379 . S
C127 N125 1.356 . S
N128 C120 1.356 . S
N128 H134 0.984 . S
N128 H135 0.984 . S
N129 C122 1.356 . S
N129 H132 0.984 . S
N129 H133 0.985 . S
H130 N125 0.984 . S
H131 N125 0.985 . S
H132 N129 0.984 . S
H133 N129 0.985 . S
H134 N128 0.984 . S
H135 N128 0.984 . S
H136 N124 0.984 . S
H137 N124 0.985 . S
C138 C139 1.363 . S
C138 C144 1.379 . S
C138 N146 1.356 . S
C139 C138 1.363 . S
C139 C145 1.363 1_565 S
C140 C141 1.363 . S
C140 C145 1.379 . S
C140 N147 1.356 . S
C141 C140 1.363 . S
C141 C144 1.363 1_545 S
N142 C144 1.356 . S
N142 H154 0.984 . S
N142 H155 0.985 . S
N143 C145 1.356 . S
N143 H148 0.984 . S
N143 H149 0.985 . S
C144 C138 1.379 . S
C144 C141 1.363 1_565 S
C144 N142 1.356 . S
C145 C139 1.363 1_545 S
C145 C140 1.379 . S
C145 N143 1.356 . S
N146 C138 1.356 . S
N146 H152 0.984 . S
N146 H153 0.984 . S
N147 C140 1.356 . S
N147 H150 0.984 . S
N147 H151 0.985 . S
H148 N143 0.984 . S
H149 N143 0.985 . S
H150 N147 0.984 . S
H151 N147 0.985 . S
H152 N146 0.984 . S
H153 N146 0.984 . S
H154 N142 0.984 . S
H155 N142 0.985 . S
C156 C157 1.363 . S
C156 C162 1.379 . S
C156 N164 1.356 . S
C157 C156 1.363 . S
C157 C163 1.363 . S
C158 C159 1.363 . S
C158 C163 1.379 . S
C158 N165 1.356 . S
C159 C158 1.363 . S
C159 C162 1.363 . S
N160 C162 1.356 . S
N160 H172 0.984 . S
N160 H173 0.985 . S
N161 C163 1.356 . S
N161 H166 0.984 . S
N161 H167 0.985 . S
C162 C156 1.379 . S
C162 C159 1.363 . S
C162 N160 1.356 . S
C163 C157 1.363 . S
C163 C158 1.379 . S
C163 N161 1.356 . S
N164 C156 1.356 . S
N164 H170 0.984 . S
N164 H171 0.984 . S
N165 C158 1.356 . S
N165 H168 0.984 . S
N165 H169 0.985 . S
H166 N161 0.984 . S
H167 N161 0.985 . S
H168 N165 0.984 . S
H169 N165 0.985 . S
H170 N164 0.984 . S
H171 N164 0.984 . S
H172 N160 0.984 . S
H173 N160 0.985 . S
C174 C175 1.363 1_554 S
C174 C180 1.379 . S
C174 N182 1.356 . S
C175 C174 1.363 1_556 S
C175 C181 1.363 . S
C176 C177 1.363 . S
C176 C181 1.379 . S
C176 N183 1.356 . S
C177 C176 1.363 . S
C177 C180 1.363 1_556 S
N178 C180 1.356 . S
N178 H190 0.984 . S
N178 H191 0.985 . S
N179 C181 1.356 . S
N179 H184 0.984 . S
N179 H185 0.985 . S
C180 C174 1.379 . S
C180 C177 1.363 1_554 S
C180 N178 1.356 . S
C181 C175 1.363 . S
C181 C176 1.379 . S
C181 N179 1.356 . S
N182 C174 1.356 . S
N182 H188 0.984 . S
N182 H189 0.984 . S
N183 C176 1.356 . S
N183 H186 0.984 . S
N183 H187 0.985 . S
H184 N179 0.984 . S
H185 N179 0.985 . S
H186 N183 0.984 . S
H187 N183 0.985 . S
H188 N182 0.984 . S
H189 N182 0.984 . S
H190 N178 0.984 . S
H191 N178 0.985 . S
C192 C193 1.363 1_556 S
C192 C198 1.379 . S
C192 N200 1.356 . S
C193 C192 1.363 1_554 S
C193 C199 1.363 . S
C194 C195 1.363 1_554 S
C194 C199 1.379 . S
C194 N201 1.356 . S
C195 C194 1.363 1_556 S
C195 C198 1.363 . S
N196 C198 1.356 . S
N196 H208 0.984 . S
N196 H209 0.985 . S
N197 C199 1.356 . S
N197 H202 0.984 . S
N197 H203 0.985 . S
C198 C192 1.379 . S
C198 C195 1.363 . S
C198 N196 1.356 . S
C199 C193 1.363 . S
C199 C194 1.379 . S
C199 N197 1.356 . S
N200 C192 1.356 . S
N200 H206 0.984 . S
N200 H207 0.984 . S
N201 C194 1.356 . S
N201 H204 0.984 . S
N201 H205 0.985 . S
H202 N197 0.984 . S
H203 N197 0.985 . S
H204 N201 0.984 . S
H205 N201 0.985 . S
H206 N200 0.984 . S
H207 N200 0.984 . S
H208 N196 0.984 . S
H209 N196 0.985 . S
C210 C211 1.363 . S
C210 C216 1.379 . S
C210 N218 1.356 . S
C211 C210 1.363 . S
C211 C217 1.363 1_554 S
C212 C213 1.363 1_556 S
C212 C217 1.379 . S
C212 N219 1.356 . S
C213 C212 1.363 1_554 S
C213 C216 1.363 . S
N214 C216 1.356 . S
N214 H226 0.984 . S
N214 H227 0.985 . S
N215 C217 1.356 . S
N215 H220 0.984 . S
N215 H221 0.985 . S
C216 C210 1.379 . S
C216 C213 1.363 . S
C216 N214 1.356 . S
C217 C211 1.363 1_556 S
C217 C212 1.379 . S
C217 N215 1.356 . S
N218 C210 1.356 . S
N218 H224 0.984 . S
N218 H225 0.984 . S
N219 C212 1.356 . S
N219 H222 0.984 . S
N219 H223 0.985 . S
H220 N215 0.984 . S
H221 N215 0.985 . S
H222 N219 0.984 . S
H223 N219 0.985 . S
H224 N218 0.984 . S
H225 N218 0.984 . S
H226 N214 0.984 . S
H227 N214 0.985 . S
C228 C229 1.363 . S
C228 C234 1.379 . S
C228 N236 1.356 . S
C229 C228 1.363 . S
C229 C235 1.363 1_554 S
C230 C231 1.363 1_556 S
C230 C235 1.379 . S
C230 N237 1.356 . S
C231 C230 1.363 1_554 S
C231 C234 1.363 . S
N232 C234 1.356 . S
N232 H244 0.984 . S
N232 H245 0.985 . S
N233 C235 1.356 . S
N233 H238 0.984 . S
N233 H239 0.985 . S
C234 C228 1.379 . S
C234 C231 1.363 . S
C234 N232 1.356 . S
C235 C229 1.363 1_556 S
C235 C230 1.379 . S
C235 N233 1.356 . S
N236 C228 1.356 . S
N236 H242 0.984 . S
N236 H243 0.984 . S
N237 C230 1.356 . S
N237 H240 0.984 . S
N237 H241 0.985 . S
H238 N233 0.984 . S
H239 N233 0.985 . S
H240 N237 0.984 . S
H241 N237 0.985 . S
H242 N236 0.984 . S
H243 N236 0.984 . S
H244 N232 0.984 . S
H245 N232 0.985 . S
C246 C247 1.363 . S
C246 C252 1.379 . S
C246 N254 1.356 . S
C247 C246 1.363 . S
C247 C253 1.363 1_554 S
C248 C249 1.363 . S
C248 C253 1.379 . S
C248 N255 1.356 . S
C249 C248 1.363 . S
C249 C252 1.363 1_556 S
N250 C252 1.356 . S
N250 H262 0.984 . S
N250 H263 0.985 . S
N251 C253 1.356 . S
N251 H256 0.984 . S
N251 H257 0.985 . S
C252 C246 1.379 . S
C252 C249 1.363 1_554 S
C252 N250 1.356 . S
C253 C247 1.363 1_556 S
C253 C248 1.379 . S
C253 N251 1.356 . S
N254 C246 1.356 . S
N254 H260 0.984 . S
N254 H261 0.984 . S
N255 C248 1.356 . S
N255 H258 0.984 . S
N255 H259 0.985 . S
H256 N251 0.984 . S
H257 N251 0.985 . S
H258 N255 0.984 . S
H259 N255 0.985 . S
H260 N254 0.984 . S
H261 N254 0.984 . S
H262 N250 0.984 . S
H263 N250 0.985 . S
C264 C265 1.363 . S
C264 C270 1.379 . S
C264 N272 1.356 . S
C265 C264 1.363 . S
C265 C271 1.363 1_556 S
C266 C267 1.363 1_554 S
C266 C271 1.379 . S
C266 N273 1.356 . S
C267 C266 1.363 1_556 S
C267 C270 1.363 . S
N268 C270 1.356 . S
N268 H280 0.984 . S
N268 H281 0.985 . S
N269 C271 1.356 . S
N269 H274 0.984 . S
N269 H275 0.985 . S
C270 C264 1.379 . S
C270 C267 1.363 . S
C270 N268 1.356 . S
C271 C265 1.363 1_554 S
C271 C266 1.379 . S
C271 N269 1.356 . S
N272 C264 1.356 . S
N272 H278 0.984 . S
N272 H279 0.984 . S
N273 C266 1.356 . S
N273 H276 0.984 . S
N273 H277 0.985 . S
H274 N269 0.984 . S
H275 N269 0.985 . S
H276 N273 0.984 . S
H277 N273 0.985 . S
H278 N272 0.984 . S
H279 N272 0.984 . S
H280 N268 0.984 . S
H281 N268 0.985 . S
C121 C2 1.451 1_455 S
C123 C23 1.463 . S
C139 C63 1.478 1_565 S
C141 C42 1.478 1_545 S
C157 C103 1.472 . S
C159 C82 1.472 . S
C175 C25 0.870 . S
C177 C105 0.890 . S
C193 C65 2.057 . S
C195 C20 2.065 . S
C211 C60 2.557 . S
C213 C111 2.600 . S
C229 C4 0.870 . S
C231 C84 0.890 . S
C247 C31 2.065 . S
C249 C44 2.055 . S
C265 C100 2.600 . S
C267 C71 2.557 . S
