# Generated by pormake.
# Topology fnh, (5)-cn, num edge types: 1
# Building blocks:
#     Node 0, Type 0, BuildingBlock: XOMCOT_clean_sbu_1, # of connection points: 5
#     Node 1, Type 0, BuildingBlock: XOMCOT_clean_sbu_1, # of connection points: 5
#     Node 2, Type 0, BuildingBlock: XOMCOT_clean_sbu_1, # of connection points: 5
#     Node 3, Type 0, BuildingBlock: XOMCOT_clean_sbu_1, # of connection points: 5
#     Node 4, Type 0, BuildingBlock: XOMCOT_clean_sbu_1, # of connection points: 5
#     Node 5, Type 0, BuildingBlock: XOMCOT_clean_sbu_1, # of connection points: 5
#     Node 6, Type 0, BuildingBlock: XOMCOT_clean_sbu_1, # of connection points: 5
#     Node 7, Type 0, BuildingBlock: XOMCOT_clean_sbu_1, # of connection points: 5
#     Node 8, Type 0, BuildingBlock: XOMCOT_clean_sbu_1, # of connection points: 5
#     Node 9, Type 0, BuildingBlock: XOMCOT_clean_sbu_1, # of connection points: 5
#     Node 10, Type 0, BuildingBlock: XOMCOT_clean_sbu_1, # of connection points: 5
#     Node 11, Type 0, BuildingBlock: XOMCOT_clean_sbu_1, # of connection points: 5
#     Node 12, Type 0, BuildingBlock: XOMCOT_clean_sbu_1, # of connection points: 5
#     Node 13, Type 0, BuildingBlock: XOMCOT_clean_sbu_1, # of connection points: 5
#     Node 14, Type 0, BuildingBlock: XOMCOT_clean_sbu_1, # of connection points: 5
#     Node 15, Type 0, BuildingBlock: XOMCOT_clean_sbu_1, # of connection points: 5
#     Node 16, Type 0, BuildingBlock: XOMCOT_clean_sbu_1, # of connection points: 5
#     Node 17, Type 0, BuildingBlock: XOMCOT_clean_sbu_1, # of connection points: 5
#     Edge 18, Type (0, 0), BuildingBlock: MIFKUJ_clean_linker_0, # of connection points: 2
#     Edge 19, Type (0, 0), BuildingBlock: MIFKUJ_clean_linker_0, # of connection points: 2
#     Edge 20, Type (0, 0), BuildingBlock: MIFKUJ_clean_linker_0, # of connection points: 2
#     Edge 21, Type (0, 0), BuildingBlock: MIFKUJ_clean_linker_0, # of connection points: 2
#     Edge 22, Type (0, 0), BuildingBlock: MIFKUJ_clean_linker_0, # of connection points: 2
#     Edge 23, Type (0, 0), BuildingBlock: MIFKUJ_clean_linker_0, # of connection points: 2
#     Edge 24, Type (0, 0), BuildingBlock: MIFKUJ_clean_linker_0, # of connection points: 2
#     Edge 25, Type (0, 0), BuildingBlock: MIFKUJ_clean_linker_0, # of connection points: 2
#     Edge 26, Type (0, 0), BuildingBlock: MIFKUJ_clean_linker_0, # of connection points: 2
#     Edge 27, Type (0, 0), BuildingBlock: MIFKUJ_clean_linker_0, # of connection points: 2
#     Edge 28, Type (0, 0), BuildingBlock: MIFKUJ_clean_linker_0, # of connection points: 2
#     Edge 29, Type (0, 0), BuildingBlock: MIFKUJ_clean_linker_0, # of connection points: 2
#     Edge 30, Type (0, 0), BuildingBlock: MIFKUJ_clean_linker_0, # of connection points: 2
#     Edge 31, Type (0, 0), BuildingBlock: MIFKUJ_clean_linker_0, # of connection points: 2
#     Edge 32, Type (0, 0), BuildingBlock: MIFKUJ_clean_linker_0, # of connection points: 2
#     Edge 33, Type (0, 0), BuildingBlock: MIFKUJ_clean_linker_0, # of connection points: 2
#     Edge 34, Type (0, 0), BuildingBlock: MIFKUJ_clean_linker_0, # of connection points: 2
#     Edge 35, Type (0, 0), BuildingBlock: MIFKUJ_clean_linker_0, # of connection points: 2
#     Edge 36, Type (0, 0), BuildingBlock: MIFKUJ_clean_linker_0, # of connection points: 2
#     Edge 37, Type (0, 0), BuildingBlock: MIFKUJ_clean_linker_0, # of connection points: 2
#     Edge 38, Type (0, 0), BuildingBlock: MIFKUJ_clean_linker_0, # of connection points: 2
#     Edge 39, Type (0, 0), BuildingBlock: MIFKUJ_clean_linker_0, # of connection points: 2
#     Edge 40, Type (0, 0), BuildingBlock: MIFKUJ_clean_linker_0, # of connection points: 2
#     Edge 41, Type (0, 0), BuildingBlock: MIFKUJ_clean_linker_0, # of connection points: 2
#     Edge 42, Type (0, 0), BuildingBlock: MIFKUJ_clean_linker_0, # of connection points: 2
#     Edge 43, Type (0, 0), BuildingBlock: MIFKUJ_clean_linker_0, # of connection points: 2
#     Edge 44, Type (0, 0), BuildingBlock: MIFKUJ_clean_linker_0, # of connection points: 2
#     Edge 45, Type (0, 0), BuildingBlock: MIFKUJ_clean_linker_0, # of connection points: 2
#     Edge 46, Type (0, 0), BuildingBlock: MIFKUJ_clean_linker_0, # of connection points: 2
#     Edge 47, Type (0, 0), BuildingBlock: MIFKUJ_clean_linker_0, # of connection points: 2
#     Edge 48, Type (0, 0), BuildingBlock: MIFKUJ_clean_linker_0, # of connection points: 2
#     Edge 49, Type (0, 0), BuildingBlock: MIFKUJ_clean_linker_0, # of connection points: 2
#     Edge 50, Type (0, 0), BuildingBlock: MIFKUJ_clean_linker_0, # of connection points: 2
#     Edge 51, Type (0, 0), BuildingBlock: MIFKUJ_clean_linker_0, # of connection points: 2
#     Edge 52, Type (0, 0), BuildingBlock: MIFKUJ_clean_linker_0, # of connection points: 2
#     Edge 53, Type (0, 0), BuildingBlock: MIFKUJ_clean_linker_0, # of connection points: 2
#     Edge 54, Type (0, 0), BuildingBlock: MIFKUJ_clean_linker_0, # of connection points: 2
#     Edge 55, Type (0, 0), BuildingBlock: MIFKUJ_clean_linker_0, # of connection points: 2
#     Edge 56, Type (0, 0), BuildingBlock: MIFKUJ_clean_linker_0, # of connection points: 2
#     Edge 57, Type (0, 0), BuildingBlock: MIFKUJ_clean_linker_0, # of connection points: 2
#     Edge 58, Type (0, 0), BuildingBlock: MIFKUJ_clean_linker_0, # of connection points: 2
#     Edge 59, Type (0, 0), BuildingBlock: MIFKUJ_clean_linker_0, # of connection points: 2
#     Edge 60, Type (0, 0), BuildingBlock: MIFKUJ_clean_linker_0, # of connection points: 2
#     Edge 61, Type (0, 0), BuildingBlock: MIFKUJ_clean_linker_0, # of connection points: 2
#     Edge 62, Type (0, 0), BuildingBlock: MIFKUJ_clean_linker_0, # of connection points: 2
# Relax obj value: 0.146
# Max RMSD: 0.171
# Mean RMSD: 0.171
data_MOF--net-fnh--node1-XOMCOT_clean_sbu_1--edge1-MIFKUJ_clean_linker_0
_symmetry_space_group_name_H-M    P1
_symmetry_Int_Tables_number       1
_symmetry_cell_setting            triclinic
loop_
_symmetry_equiv_pos_as_xyz
'x, y, z'
_cell_length_a     87.359566
_cell_length_b     87.085478
_cell_length_c     29.880033
_cell_angle_alpha  89.95802
_cell_angle_beta   89.964488
_cell_angle_gamma 120.04563
loop_
_atom_site_label
_atom_site_type_symbol
_atom_site_fract_x
_atom_site_fract_y
_atom_site_fract_z
_atom_type_partial_charge
C0 C 0.08432 0.20345 0.26537 0.0
C1 C 0.07034 0.20202 0.28977 0.0
N2 N 0.066 0.18932 0.32108 0.0
N3 N 0.08885 0.19184 0.28149 0.0
C4 C 0.07726 0.18314 0.3146 0.0
H5 H 0.09136 0.21296 0.23906 0.0
Co6 Co 0.10811 0.19043 0.26267 0.0
C7 C 0.11579 0.17991 0.35683 0.0
O8 O 0.12675 0.19663 0.36581 0.0
N9 N 0.12756 0.18895 0.24231 0.0
C10 C 0.15428 0.19179 0.23892 0.0
C11 C 0.14079 0.18933 0.26671 0.0
C12 C 0.13325 0.19087 0.19957 0.0
N13 N 0.1496 0.193 0.19688 0.0
O14 O 0.09138 0.16868 0.22741 0.0
H15 H 0.14151 0.18922 0.30254 0.0
H16 H 0.1263 0.19233 0.17145 0.0
O17 O 0.10751 0.1757 0.31876 0.0
C18 C 0.08759 0.17306 0.18935 0.0
O19 O 0.09582 0.19001 0.17906 0.0
N20 N 0.12375 0.21364 0.28973 0.0
C21 C 0.14314 0.25032 0.31155 0.0
C22 C 0.1292 0.23811 0.33882 0.0
C23 C 0.11952 0.22003 0.32694 0.0
C24 C 0.13719 0.22554 0.26283 0.0
C25 C 0.14716 0.24359 0.27348 0.0
H26 H 0.10832 0.21126 0.34747 0.0
H27 H 0.13983 0.2215 0.2311 0.0
H28 H 0.07754 0.17291 0.33444 0.0
H29 H 0.06458 0.21043 0.28625 0.0
H30 H 0.16687 0.19331 0.249 0.0
H31 H 0.12522 0.24258 0.36807 0.0
H32 H 0.15768 0.25231 0.251 0.0
C33 C 0.83045 0.88861 0.25988 0.0
C34 C 0.82953 0.87736 0.29355 0.0
N35 N 0.83676 0.88716 0.33056 0.0
N36 N 0.8381 0.90527 0.27603 0.0
C37 C 0.84185 0.90398 0.31905 0.0
H38 H 0.82525 0.88484 0.22635 0.0
Co39 Co 0.83965 0.92442 0.24642 0.0
C40 C 0.85328 0.95445 0.31544 0.0
O41 O 0.84197 0.95874 0.29907 0.0
N42 N 0.84126 0.94377 0.21531 0.0
C43 C 0.85291 0.9701 0.18215 0.0
C44 C 0.8563 0.9594 0.20919 0.0
C45 C 0.82901 0.94517 0.1909 0.0
N46 N 0.8357 0.96108 0.17068 0.0
O47 O 0.86096 0.92724 0.21311 0.0
H48 H 0.86906 0.96262 0.22266 0.0
H49 H 0.81557 0.93466 0.18648 0.0
O50 O 0.85406 0.94121 0.29822 0.0
C51 C 0.85687 0.92104 0.17289 0.0
O52 O 0.8406 0.91544 0.15947 0.0
N53 N 0.81732 0.91881 0.27242 0.0
C54 C 0.78147 0.90318 0.29809 0.0
C55 C 0.79516 0.91236 0.32932 0.0
C56 C 0.81304 0.92002 0.31589 0.0
C57 C 0.80409 0.90893 0.24284 0.0
C58 C 0.78625 0.90157 0.25438 0.0
H59 H 0.82322 0.92614 0.34097 0.0
H60 H 0.80744 0.90645 0.2098 0.0
H61 H 0.84724 0.91491 0.34244 0.0
H62 H 0.82372 0.86311 0.29129 0.0
H63 H 0.86257 0.9831 0.16985 0.0
H64 H 0.79208 0.91345 0.36387 0.0
H65 H 0.77622 0.89403 0.22957 0.0
C66 C 0.14191 0.94372 0.27913 0.0
C67 C 0.15271 0.95614 0.30992 0.0
N68 N 0.14243 0.95936 0.33742 0.0
N69 N 0.12498 0.93905 0.28792 0.0
C70 C 0.12573 0.94902 0.32304 0.0
H71 H 0.14596 0.93767 0.25366 0.0
Co72 Co 0.10568 0.92083 0.26039 0.0
C73 C 0.08187 0.90883 0.34643 0.0
O74 O 0.08569 0.89635 0.35475 0.0
N75 N 0.08644 0.90263 0.23147 0.0
C76 C 0.06288 0.87692 0.21377 0.0
C77 C 0.07267 0.88769 0.2483 0.0
C78 C 0.08473 0.90065 0.18678 0.0
N79 N 0.07057 0.88506 0.1751 0.0
O80 O 0.1023 0.93897 0.22639 0.0
H81 H 0.07026 0.88418 0.28311 0.0
H82 H 0.09404 0.91026 0.16335 0.0
O83 O 0.08872 0.91903 0.31178 0.0
C84 C 0.11354 0.94622 0.19404 0.0
O85 O 0.12484 0.9407 0.18712 0.0
N86 N 0.1116 0.90406 0.2871 0.0
C87 C 0.12717 0.88341 0.31177 0.0
C88 C 0.12642 0.89547 0.34188 0.0
C89 C 0.11895 0.90584 0.3287 0.0
C90 C 0.11259 0.89265 0.25731 0.0
C91 C 0.11998 0.88215 0.269 0.0
H92 H 0.11945 0.9156 0.35188 0.0
H93 H 0.10857 0.89225 0.22301 0.0
H94 H 0.11421 0.94778 0.33995 0.0
H95 H 0.16686 0.96174 0.31318 0.0
H96 H 0.05146 0.86377 0.217 0.0
H97 H 0.13183 0.89715 0.37528 0.0
H98 H 0.12081 0.87375 0.24359 0.0
C99 C 0.21165 0.08059 0.75454 0.0
C100 C 0.20641 0.0637 0.74021 0.0
N101 N 0.18881 0.0552 0.73289 0.0
N102 N 0.1975 0.08287 0.75526 0.0
C103 C 0.18376 0.0671 0.74328 0.0
H104 H 0.22497 0.09062 0.76332 0.0
Co105 Co 0.19682 0.10258 0.77437 0.0
C106 C 0.17722 0.09638 0.68112 0.0
O107 O 0.18205 0.08541 0.66505 0.0
N108 N 0.19647 0.1225 0.79397 0.0
C109 C 0.20041 0.14972 0.79297 0.0
C110 C 0.1972 0.1354 0.76733 0.0
C111 C 0.19932 0.12926 0.83559 0.0
N112 N 0.20191 0.14589 0.83578 0.0
O113 O 0.17576 0.08651 0.8126 0.0
H114 H 0.19667 0.13499 0.73119 0.0
H115 H 0.20065 0.12262 0.86467 0.0
O116 O 0.18187 0.10238 0.72123 0.0
C117 C 0.18123 0.0827 0.84883 0.0
O118 O 0.19844 0.09064 0.85476 0.0
N119 N 0.21873 0.11774 0.74438 0.0
C120 C 0.25434 0.13838 0.71701 0.0
C121 C 0.24074 0.12894 0.68566 0.0
C122 C 0.22299 0.11875 0.69999 0.0
C123 C 0.23182 0.12678 0.77501 0.0
C124 C 0.2495 0.13726 0.76214 0.0
H125 H 0.21294 0.11126 0.67555 0.0
H126 H 0.22859 0.12536 0.81025 0.0
H127 H 0.17034 0.06461 0.74147 0.0
H128 H 0.21512 0.0585 0.73356 0.0
H129 H 0.20193 0.16214 0.78092 0.0
H130 H 0.24381 0.12931 0.65042 0.0
H131 H 0.25942 0.14388 0.78781 0.0
C132 C 0.94578 0.13405 0.77227 0.0
C133 C 0.95733 0.14718 0.74383 0.0
N134 N 0.96134 0.13939 0.71056 0.0
N135 N 0.94242 0.11818 0.75634 0.0
C136 C 0.95223 0.12184 0.71897 0.0
H137 H 0.93979 0.13587 0.80199 0.0
Co138 Co 0.92622 0.09689 0.78072 0.0
C139 C 0.91123 0.06991 0.70569 0.0
O140 O 0.89585 0.06577 0.72332 0.0
N141 N 0.90993 0.07519 0.80672 0.0
C142 C 0.89758 0.04649 0.82315 0.0
C143 C 0.91246 0.06109 0.80706 0.0
C144 C 0.89362 0.06895 0.82442 0.0
N145 N 0.8858 0.05151 0.83376 0.0
O146 O 0.94621 0.09542 0.81022 0.0
H147 H 0.92416 0.06125 0.79458 0.0
H148 H 0.88718 0.07664 0.82917 0.0
O149 O 0.92546 0.0828 0.72342 0.0
C150 C 0.94799 0.10024 0.85169 0.0
O151 O 0.93606 0.10357 0.86853 0.0
N152 N 0.90801 0.10118 0.75855 0.0
C153 C 0.88812 0.11775 0.73634 0.0
C154 C 0.89483 0.11124 0.70296 0.0
C155 C 0.90501 0.10338 0.71465 0.0
C156 C 0.90184 0.10765 0.79119 0.0
C157 C 0.89176 0.11564 0.78104 0.0
H158 H 0.91131 0.10011 0.68819 0.0
H159 H 0.90566 0.10756 0.82557 0.0
H160 H 0.95221 0.11186 0.69737 0.0
H161 H 0.9623 0.16128 0.74704 0.0
H162 H 0.89555 0.03323 0.82697 0.0
H163 H 0.89271 0.11264 0.66787 0.0
H164 H 0.88772 0.12102 0.80827 0.0
C165 C 0.88567 0.81418 0.75729 0.0
C166 C 0.87204 0.81675 0.74425 0.0
N167 N 0.87894 0.83232 0.72208 0.0
N168 N 0.90105 0.82793 0.74287 0.0
C169 C 0.89661 0.83891 0.72246 0.0
H170 H 0.8845 0.80304 0.77619 0.0
Co171 Co 0.9231 0.8312 0.75497 0.0
C172 C 0.93283 0.84795 0.65599 0.0
O173 O 0.91703 0.84155 0.63835 0.0
N174 N 0.94536 0.8344 0.76663 0.0
C175 C 0.97074 0.83509 0.75355 0.0
C176 C 0.95506 0.83182 0.73537 0.0
C177 C 0.95537 0.83905 0.80387 0.0
N178 N 0.97091 0.83962 0.79659 0.0
O179 O 0.92833 0.85331 0.78849 0.0
H180 H 0.95088 0.82752 0.70136 0.0
H181 H 0.95139 0.84199 0.83554 0.0
O182 O 0.93423 0.84436 0.69705 0.0
C183 C 0.92241 0.84962 0.82903 0.0
O184 O 0.9162 0.83323 0.84283 0.0
N185 N 0.91626 0.80845 0.72949 0.0
C186 C 0.90158 0.77208 0.70888 0.0
C187 C 0.90201 0.78424 0.67696 0.0
C188 C 0.90936 0.80234 0.68794 0.0
C189 C 0.91598 0.79686 0.76072 0.0
C190 C 0.90893 0.77882 0.75109 0.0
H191 H 0.90876 0.81116 0.66369 0.0
H192 H 0.92072 0.80154 0.7942 0.0
H193 H 0.90625 0.85142 0.70789 0.0
H194 H 0.85815 0.80773 0.75053 0.0
H195 H 0.981 0.83375 0.73679 0.0
H196 H 0.8965 0.77979 0.6439 0.0
H197 H 0.90859 0.7701 0.77741 0.0
C198 C 0.75057 0.535 0.61024 0.0
C199 C 0.74076 0.53628 0.64458 0.0
N200 N 0.74073 0.52612 0.67855 0.0
N201 N 0.75673 0.52424 0.62307 0.0
C202 C 0.75037 0.5189 0.66464 0.0
H203 H 0.75383 0.54221 0.57895 0.0
Co204 Co 0.77349 0.52158 0.5929 0.0
C205 C 0.79081 0.50906 0.66046 0.0
O206 O 0.80574 0.52123 0.64253 0.0
N207 N 0.79038 0.51873 0.56167 0.0
C208 C 0.80389 0.50497 0.53393 0.0
C209 C 0.78874 0.50271 0.55373 0.0
C210 C 0.80656 0.53052 0.54573 0.0
N211 N 0.81512 0.52249 0.52933 0.0
O212 O 0.75416 0.50034 0.56092 0.0
H213 H 0.77738 0.49013 0.56287 0.0
H214 H 0.81233 0.54472 0.54698 0.0
O215 O 0.77612 0.50733 0.64531 0.0
C216 C 0.75152 0.5063 0.52383 0.0
O217 O 0.76192 0.52331 0.5159 0.0
N218 N 0.7909 0.54408 0.61671 0.0
C219 C 0.80988 0.58046 0.63947 0.0
C220 C 0.80603 0.56721 0.67185 0.0
C221 C 0.79613 0.54906 0.66005 0.0
C222 C 0.79441 0.55684 0.58535 0.0
C223 C 0.80401 0.57489 0.59567 0.0
H224 H 0.79195 0.53921 0.6862 0.0
H225 H 0.78923 0.55291 0.55186 0.0
H226 H 0.75366 0.51085 0.68566 0.0
H227 H 0.7346 0.5444 0.64512 0.0
H228 H 0.8063 0.49453 0.52296 0.0
H229 H 0.80982 0.5708 0.70643 0.0
H230 H 0.80653 0.58445 0.56939 0.0
C231 C 0.50114 0.22041 0.59579 0.0
C232 C 0.49886 0.20882 0.62993 0.0
N233 N 0.49967 0.21688 0.66906 0.0
N234 N 0.50357 0.23567 0.61362 0.0
C235 C 0.50273 0.23318 0.65815 0.0
H236 H 0.50026 0.21763 0.56032 0.0
Co237 Co 0.50348 0.25388 0.58335 0.0
C238 C 0.51589 0.28473 0.65028 0.0
O239 O 0.50421 0.28815 0.63228 0.0
N240 N 0.50316 0.27208 0.55161 0.0
C241 C 0.49512 0.28935 0.51647 0.0
C242 C 0.48939 0.27265 0.53294 0.0
C243 C 0.51721 0.28837 0.54454 0.0
N244 N 0.51261 0.29929 0.52419 0.0
O245 O 0.52552 0.25842 0.55041 0.0
H246 H 0.4759 0.26191 0.532 0.0
H247 H 0.53046 0.29223 0.5555 0.0
O248 O 0.51717 0.27145 0.63515 0.0
C249 C 0.52217 0.25247 0.50987 0.0
O250 O 0.50589 0.24602 0.49539 0.0
N251 N 0.48067 0.24664 0.60889 0.0
C252 C 0.44434 0.22951 0.63151 0.0
C253 C 0.45743 0.24154 0.66116 0.0
C254 C 0.47553 0.24977 0.64956 0.0
C255 C 0.4682 0.2345 0.58075 0.0
C256 C 0.45015 0.22614 0.59081 0.0
H257 H 0.48519 0.25806 0.67404 0.0
H258 H 0.47236 0.23147 0.54949 0.0
H259 H 0.50384 0.24299 0.6821 0.0
H260 H 0.49614 0.19532 0.62617 0.0
H261 H 0.48686 0.29389 0.50126 0.0
H262 H 0.4538 0.24421 0.69367 0.0
H263 H 0.44085 0.21717 0.56633 0.0
C264 C 0.81562 0.28336 0.61548 0.0
C265 C 0.82485 0.29612 0.6472 0.0
N266 N 0.81312 0.29809 0.67232 0.0
N267 N 0.79821 0.27733 0.62098 0.0
C268 C 0.79711 0.28675 0.65515 0.0
H269 H 0.82111 0.2782 0.59131 0.0
Co270 Co 0.78025 0.25897 0.59015 0.0
C271 C 0.7548 0.24342 0.67175 0.0
O272 O 0.75918 0.23109 0.67456 0.0
N273 N 0.76213 0.24054 0.55759 0.0
C274 C 0.7394 0.21496 0.535 0.0
C275 C 0.7479 0.22525 0.57134 0.0
C276 C 0.76185 0.23918 0.5126 0.0
N277 N 0.74823 0.22372 0.49801 0.0
O278 O 0.77642 0.27688 0.55605 0.0
H279 H 0.74396 0.22121 0.60524 0.0
H280 H 0.77167 0.24921 0.49098 0.0
O281 O 0.76198 0.25532 0.64051 0.0
C282 C 0.78784 0.28352 0.52386 0.0
O283 O 0.79914 0.27779 0.52008 0.0
N284 N 0.78702 0.24265 0.61641 0.0
C285 C 0.80306 0.22244 0.6412 0.0
C286 C 0.80138 0.23374 0.67198 0.0
C287 C 0.79377 0.24402 0.65868 0.0
C288 C 0.78895 0.23194 0.58612 0.0
C289 C 0.79656 0.22165 0.59786 0.0
H290 H 0.79346 0.25322 0.68245 0.0
H291 H 0.78539 0.23183 0.55154 0.0
H292 H 0.78477 0.28502 0.66794 0.0
H293 H 0.83897 0.30267 0.65283 0.0
H294 H 0.72787 0.20182 0.53601 0.0
H295 H 0.80655 0.23521 0.7056 0.0
H296 H 0.79762 0.21332 0.57256 0.0
C297 C 0.88396 0.41988 0.11413 0.0
C298 C 0.88054 0.40408 0.09515 0.0
N299 N 0.86591 0.39815 0.06991 0.0
N300 N 0.87181 0.42395 0.09947 0.0
C301 C 0.86084 0.41035 0.07323 0.0
H302 H 0.89488 0.42818 0.13598 0.0
Co303 Co 0.87058 0.44372 0.11388 0.0
C304 C 0.86077 0.44958 0.01678 0.0
O305 O 0.87755 0.45979 1.00732 0.0
N306 N 0.86918 0.46374 0.12943 0.0
C307 C 0.8726 0.49074 0.1259 0.0
C308 C 0.87156 0.477 0.10162 0.0
C309 C 0.86874 0.46979 0.1707 0.0
N310 N 0.87095 0.48633 0.16947 0.0
O311 O 0.84842 0.42759 0.14819 0.0
H312 H 0.874 0.4776 0.0663 0.0
H313 H 0.86767 0.46251 0.20098 0.0
O314 O 0.85636 0.44213 0.05592 0.0
C315 C 0.85161 0.42271 0.18631 0.0
O316 O 0.86814 0.43022 0.19948 0.0
N317 N 0.89398 0.45868 0.08749 0.0
C318 C 0.93061 0.47782 0.06655 0.0
C319 C 0.9186 0.46342 0.04023 0.0
C320 C 0.90054 0.45381 0.05185 0.0
C321 C 0.90569 0.47246 0.11383 0.0
C322 C 0.92377 0.48228 0.10362 0.0
H323 H 0.89188 0.44215 0.03249 0.0
H324 H 0.90134 0.47552 0.14462 0.0
H325 H 0.84979 0.40973 0.05531 0.0
H326 H 0.8884 0.3977 0.09851 0.0
H327 H 0.87558 0.50347 0.11239 0.0
H328 H 0.92322 0.45906 1.01198 0.0
H329 H 0.93239 0.49311 0.12545 0.0
C330 C 0.60898 0.46856 0.08167 0.0
C331 C 0.62415 0.48145 0.06187 0.0
N332 N 0.63316 0.4738 0.04586 0.0
N333 N 0.60821 0.45279 0.07735 0.0
C334 C 0.62313 0.45635 0.05563 0.0
H335 H 0.59937 0.47062 0.09944 0.0
Co336 Co 0.59199 0.43258 0.10663 0.0
C337 C 0.57699 0.40565 0.0302 0.0
O338 O 0.56132 0.40304 0.04126 0.0
N339 N 0.57625 0.41299 0.1393 0.0
C340 C 0.56153 0.38747 0.17628 0.0
C341 C 0.56793 0.39514 0.13503 0.0
C342 C 0.57503 0.41573 0.18304 0.0
N343 N 0.5662 0.40059 0.20617 0.0
O344 O 0.61201 0.43146 0.13804 0.0
H345 H 0.56808 0.38801 0.10573 0.0
H346 H 0.58176 0.42874 0.19833 0.0
O347 O 0.59069 0.41677 0.05325 0.0
C348 C 0.6195 0.44328 0.1691 0.0
O349 O 0.61413 0.4548 0.17445 0.0
N350 N 0.57317 0.43576 0.08232 0.0
C351 C 0.55127 0.44966 0.05708 0.0
C352 C 0.56194 0.4474 0.02547 0.0
C353 C 0.57277 0.44046 0.0387 0.0
C354 C 0.56263 0.43764 0.11308 0.0
C355 C 0.5515 0.44424 0.10115 0.0
H356 H 0.58166 0.43992 1.01438 0.0
H357 H 0.56359 0.43526 0.14802 0.0
H358 H 0.62693 0.44648 0.04933 0.0
H359 H 0.62822 0.49538 0.05985 0.0
H360 H 0.55566 0.37353 0.18448 0.0
H361 H 0.56231 0.45142 0.991 0.0
H362 H 0.54394 0.4461 0.12715 0.0
C363 C 0.56115 0.16009 0.10136 0.0
C364 C 0.54821 0.16304 0.0845 0.0
N365 N 0.55574 0.17641 0.05454 0.0
N366 N 0.57665 0.1714 0.08165 0.0
C367 C 0.57306 0.18134 0.05395 0.0
H368 H 0.55939 0.15014 0.12573 0.0
Co369 Co 0.59792 0.17285 0.09317 0.0
C370 C 0.61302 0.18322 0.99612 0.0
O371 O 0.60422 0.16663 0.98337 0.0
N372 N 0.6199 0.1748 0.1046 0.0
C373 C 0.64497 0.17482 0.09108 0.0
C374 C 0.62861 0.17015 0.07497 0.0
C375 C 0.63133 0.18218 0.13893 0.0
N376 N 0.64668 0.18242 0.13116 0.0
O377 O 0.60409 0.19473 0.12877 0.0
H378 H 0.62334 0.16345 0.04364 0.0
H379 H 0.62868 0.1876 0.16855 0.0
O380 O 0.61022 0.18738 0.03572 0.0
C381 C 0.59796 0.1906 0.16907 0.0
O382 O 0.59168 0.17407 0.18175 0.0
N383 N 0.5892 0.14948 0.06622 0.0
C384 C 0.57222 0.11295 0.04438 0.0
C385 C 0.56843 0.12463 0.02088 0.0
C386 C 0.57686 0.14271 0.03258 0.0
C387 C 0.59214 0.13793 0.09088 0.0
C388 C 0.58433 0.11993 0.07969 0.0
H389 H 0.57316 0.15118 1.01484 0.0
H390 H 0.60015 0.14242 0.12076 0.0
H391 H 0.583 0.19196 0.03377 0.0
H392 H 0.53428 0.15548 0.09258 0.0
H393 H 0.65471 0.17243 0.0751 0.0
H394 H 0.55887 0.11981 0.99392 0.0
H395 H 0.58714 0.11134 0.10008 0.0
C396 C 0.42357 0.87761 0.94787 0.0
C397 C 0.41136 0.87714 0.97736 0.0
N398 N 0.4073 0.86392 1.00688 0.0
N399 N 0.42731 0.86485 0.95888 0.0
C400 C 0.41704 0.85652 0.99445 0.0
H401 H 0.43004 0.88721 0.92138 0.0
Co402 Co 0.44455 0.86239 0.93041 0.0
C403 C 0.45925 0.85299 1.01423 0.0
O404 O 0.47319 0.86893 1.01265 0.0
N405 N 0.4616 0.86011 0.89906 0.0
C406 C 0.4858 0.86105 0.87212 0.0
C407 C 0.47673 0.86038 0.91043 0.0
C408 C 0.46163 0.86025 0.85401 0.0
N409 N 0.47615 0.86094 0.83709 0.0
O410 O 0.42551 0.8404 0.89994 0.0
H411 H 0.48144 0.86078 0.94383 0.0
H412 H 0.45174 0.86094 0.83381 0.0
O413 O 0.44694 0.8484 0.98426 0.0
C414 C 0.41789 0.84424 0.86826 0.0
O415 O 0.42337 0.86107 0.86075 0.0
N416 N 0.46217 0.8854 0.95384 0.0
C417 C 0.4824 0.92187 0.97522 0.0
C418 C 0.47058 0.90954 1.00632 0.0
C419 C 0.46067 0.89146 0.99511 0.0
C420 C 0.47374 0.89736 0.9234 0.0
C421 C 0.48418 0.91544 0.93371 0.0
H422 H 0.45127 0.8824 0.01929 0.0
H423 H 0.47429 0.89327 0.88967 0.0
H424 H 0.41718 0.84565 1.01155 0.0
H425 H 0.40664 0.88649 0.97826 0.0
H426 H 0.49854 0.86182 0.87004 0.0
H427 H 0.46873 0.91388 0.03881 0.0
H428 H 0.49282 0.92449 0.90822 0.0
C429 C 0.17009 0.55567 0.95874 0.0
C430 C 0.16779 0.5454 0.99589 0.0
N431 N 0.17299 0.55609 0.03198 0.0
N432 N 0.17668 0.57264 0.97163 0.0
C433 C 0.17838 0.57253 0.01639 0.0
H434 H 0.16663 0.55102 0.92467 0.0
Co435 Co 0.17904 0.59039 0.93455 0.0
C436 C 0.19241 0.62359 0.99181 0.0
O437 O 0.18209 0.62704 0.96698 0.0
N438 N 0.18138 0.60811 0.89539 0.0
C439 C 0.17816 0.62159 0.83618 0.0
C440 C 0.1694 0.60899 0.86865 0.0
C441 C 0.1972 0.6207 0.8795 0.0
N442 N 0.19568 0.62863 0.84247 0.0
O443 O 0.20049 0.59125 0.90602 0.0
H444 H 0.15531 0.60008 0.86948 0.0
H445 H 0.20966 0.62287 0.89262 0.0
O446 O 0.19314 0.6094 0.98298 0.0
C447 C 0.1969 0.58381 0.86699 0.0
O448 O 0.18072 0.57737 0.85182 0.0
N449 N 0.15666 0.58635 0.95608 0.0
C450 C 0.12049 0.57188 0.97788 0.0
C451 C 0.13393 0.58344 1.00745 0.0
C452 C 0.15193 0.59032 0.99627 0.0
C453 C 0.14377 0.57464 0.92808 0.0
C454 C 0.12581 0.56752 0.93782 0.0
H455 H 0.16181 0.59816 0.02085 0.0
H456 H 0.14752 0.57049 0.89789 0.0
H457 H 0.18266 0.58405 0.03749 0.0
H458 H 0.16263 0.53122 0.99641 0.0
H459 H 0.17205 0.62388 0.80738 0.0
H460 H 0.13063 0.587 0.03924 0.0
H461 H 0.11618 0.55815 0.91454 0.0
C462 C 0.47728 0.60807 0.94331 0.0
C463 C 0.48984 0.62493 0.95569 0.0
N464 N 0.48151 0.6339 0.96656 0.0
N465 N 0.46111 0.60633 0.94727 0.0
C466 C 0.46413 0.62235 0.96076 0.0
H467 H 0.47984 0.5979 0.93098 0.0
Co468 Co 0.44023 0.58746 0.92735 0.0
C469 C 0.42791 0.59285 0.02279 0.0
O470 O 0.44398 0.60252 0.03878 0.0
N471 N 0.41955 0.56838 0.90644 0.0
C472 C 0.3954 0.54177 0.90465 0.0
C473 C 0.40635 0.55576 0.93151 0.0
C474 C 0.41637 0.56179 0.8646 0.0
N475 N 0.40185 0.54554 0.86272 0.0
O476 O 0.43598 0.60468 0.89211 0.0
H477 H 0.40539 0.55599 0.96752 0.0
H478 H 0.4253 0.56813 0.83681 0.0
O479 O 0.42598 0.58761 0.98178 0.0
C480 C 0.4443 0.60862 0.85431 0.0
O481 O 0.45284 0.60028 0.84379 0.0
N482 N 0.44617 0.57114 0.95444 0.0
C483 C 0.45991 0.54893 0.97752 0.0
C484 C 0.45516 0.55729 1.01069 0.0
C485 C 0.44824 0.56829 0.99849 0.0
C486 C 0.45069 0.56307 0.92205 0.0
C487 C 0.45737 0.5519 0.9327 0.0
H488 H 0.44509 0.57476 0.02454 0.0
H489 H 0.4497 0.56585 0.88723 0.0
H490 H 0.4537 0.62541 0.9664 0.0
H491 H 0.50399 0.63022 0.95612 0.0
H492 H 0.38396 0.52953 0.91544 0.0
H493 H 0.45683 0.55541 0.04579 0.0
H494 H 0.46115 0.54617 0.90573 0.0
C495 C 0.52969 0.73384 0.41284 0.0
C496 C 0.52682 0.72392 0.37451 0.0
N497 N 0.5244 0.73261 0.3404 0.0
N498 N 0.5291 0.74859 0.40234 0.0
C499 C 0.52599 0.74749 0.35807 0.0
H500 H 0.53224 0.73065 0.446 0.0
Co501 Co 0.53305 0.76715 0.43864 0.0
C502 C 0.52153 0.78908 0.38016 0.0
O503 O 0.53486 0.8037 0.39634 0.0
N504 N 0.53712 0.78596 0.47589 0.0
C505 C 0.55007 0.81084 0.51549 0.0
C506 C 0.55226 0.79774 0.49654 0.0
C507 C 0.52562 0.79159 0.48515 0.0
N508 N 0.53339 0.80704 0.50762 0.0
O509 O 0.51154 0.75072 0.47499 0.0
H510 H 0.56436 0.79728 0.49731 0.0
H511 H 0.51215 0.78513 0.47294 0.0
O512 O 0.51912 0.77395 0.39421 0.0
C513 C 0.51559 0.74654 0.51294 0.0
O514 O 0.53241 0.75433 0.52372 0.0
N515 N 0.55539 0.78148 0.40897 0.0
C516 C 0.59141 0.80043 0.38266 0.0
C517 C 0.57809 0.8008 0.35665 0.0
C518 C 0.56015 0.79105 0.37 0.0
C519 C 0.56793 0.77994 0.43249 0.0
C520 C 0.58584 0.78953 0.42085 0.0
H521 H 0.5503 0.79105 0.34835 0.0
H522 H 0.56401 0.77162 0.46201 0.0
H523 H 0.52553 0.75769 0.33851 0.0
H524 H 0.52645 0.71134 0.37192 0.0
H525 H 0.56002 0.82238 0.5332 0.0
H526 H 0.58138 0.8083 0.32579 0.0
H527 H 0.59521 0.78858 0.44266 0.0
C528 C 0.27785 0.8069 0.43996 0.0
C529 C 0.29111 0.82046 0.41589 0.0
N530 N 0.29805 0.81335 0.38824 0.0
N531 N 0.27632 0.79138 0.4268 0.0
C532 C 0.28888 0.79571 0.39552 0.0
H533 H 0.27 0.80828 0.46592 0.0
Co534 Co 0.26113 0.76989 0.45187 0.0
C535 C 0.24813 0.74236 0.37813 0.0
O536 O 0.23238 0.73645 0.39576 0.0
N537 N 0.24604 0.74829 0.47926 0.0
C538 C 0.22759 0.72732 0.52595 0.0
C539 C 0.23118 0.74262 0.50388 0.0
C540 C 0.25084 0.73596 0.48593 0.0
N541 N 0.24007 0.72329 0.51465 0.0
O542 O 0.28195 0.77014 0.48179 0.0
H543 H 0.22407 0.74962 0.5088 0.0
H544 H 0.26305 0.73718 0.47346 0.0
O545 O 0.26155 0.75612 0.39582 0.0
C546 C 0.28492 0.77843 0.51938 0.0
O547 O 0.27403 0.78409 0.53048 0.0
N548 N 0.24193 0.77234 0.42907 0.0
C549 C 0.22086 0.78738 0.40603 0.0
C550 C 0.22749 0.78073 0.37295 0.0
C551 C 0.23834 0.77365 0.38505 0.0
C552 C 0.23544 0.77863 0.46136 0.0
C553 C 0.22477 0.78589 0.45078 0.0
H554 H 0.24482 0.77053 0.35877 0.0
H555 H 0.2397 0.77931 0.49563 0.0
H556 H 0.29123 0.78614 0.37839 0.0
H557 H 0.29554 0.83446 0.41901 0.0
H558 H 0.21751 0.72054 0.55123 0.0
H559 H 0.22531 0.78207 0.33784 0.0
H560 H 0.22018 0.79093 0.47761 0.0
C561 C 0.23105 0.48693 0.45235 0.0
C562 C 0.21725 0.48896 0.43813 0.0
N563 N 0.22358 0.5023 0.40814 0.0
N564 N 0.24594 0.49881 0.43113 0.0
C565 C 0.24107 0.50815 0.40469 0.0
H566 H 0.23034 0.47734 0.47653 0.0
Co567 Co 0.26751 0.50091 0.44289 0.0
C568 C 0.28217 0.51271 0.34548 0.0
O569 O 0.2744 0.49621 0.33203 0.0
N570 N 0.28935 0.50308 0.45644 0.0
C571 C 0.31389 0.50145 0.45158 0.0
C572 C 0.30116 0.50272 0.42781 0.0
C573 C 0.29529 0.50216 0.49741 0.0
N574 N 0.31004 0.50089 0.4953 0.0
O575 O 0.273 0.52233 0.48012 0.0
H576 H 0.30005 0.50197 0.39192 0.0
H577 H 0.28812 0.5009 0.52796 0.0
O578 O 0.27971 0.51617 0.38621 0.0
C579 C 0.26598 0.51766 0.51946 0.0
O580 O 0.25856 0.50076 0.52988 0.0
N581 N 0.25967 0.47797 0.4139 0.0
C582 C 0.24179 0.44126 0.39217 0.0
C583 C 0.23855 0.45328 0.36843 0.0
C584 C 0.2473 0.47136 0.38028 0.0
C585 C 0.26285 0.46627 0.43719 0.0
C586 C 0.25443 0.44819 0.42643 0.0
H587 H 0.24354 0.47991 0.36317 0.0
H588 H 0.27111 0.47046 0.46651 0.0
H589 H 0.25008 0.51872 0.38272 0.0
H590 H 0.20363 0.48123 0.44903 0.0
H591 H 0.32469 0.50027 0.43763 0.0
H592 H 0.22862 0.44865 0.34237 0.0
H593 H 0.25747 0.4396 0.44606 0.0
H594 H 0.19116 0.13605 0.92067 0.0
H595 H 0.19405 0.15554 0.9824 0.0
H596 H 0.22461 0.20133 0.89845 0.0
H597 H 0.22166 0.18176 0.83623 0.0
H598 H 0.21916 0.18272 0.03017 0.0
H599 H 0.20894 0.22954 0.92052 0.0
H600 H 0.19984 0.23192 0.84375 0.0
H601 H 0.16492 0.17551 0.83985 0.0
H602 H 0.17371 0.17287 0.91672 0.0
H603 H 0.1848 0.21561 0.1929 0.0
H604 H 0.20411 0.22029 0.12875 0.0
H605 H 0.15847 0.18522 0.04959 0.0
H606 H 0.13919 0.18086 0.11337 0.0
H607 H 0.18319 0.21107 0.99847 0.0
H608 H 0.18057 0.16921 0.11432 0.0
H609 H 0.18539 0.16212 0.19119 0.0
H610 H 0.24027 0.20208 0.18267 0.0
H611 H 0.23568 0.20951 0.10587 0.0
C612 C 0.19887 0.15026 0.9157 0.0
C613 C 0.20583 0.1574 0.87354 0.0
C614 C 0.20061 0.1614 0.951 0.0
C615 C 0.2094 0.17986 0.94472 0.0
C616 C 0.21762 0.18711 0.90369 0.0
C617 C 0.21577 0.17593 0.86818 0.0
C618 C 0.20731 0.19081 0.979 0.0
C619 C 0.21178 0.18944 0.02324 0.0
C620 C 0.1977 0.19957 0.9698 0.0
C621 C 0.19214 0.20101 0.92396 0.0
C622 C 0.19931 0.21767 0.90322 0.0
C623 C 0.1942 0.21906 0.85974 0.0
C624 C 0.18186 0.20386 0.83687 0.0
C625 C 0.17452 0.18726 0.85753 0.0
C626 C 0.17955 0.18581 0.90103 0.0
C627 C 0.17894 0.20911 0.16154 0.0
C628 C 0.16061 0.19752 0.15804 0.0
C629 C 0.18994 0.21193 0.12494 0.0
C630 C 0.18272 0.2029 0.08477 0.0
C631 C 0.16429 0.19237 0.08034 0.0
C632 C 0.15329 0.18976 0.11673 0.0
C633 C 0.19409 0.20195 0.04972 0.0
C634 C 0.1915 0.20536 1.00537 0.0
C635 C 0.20498 0.19457 0.05884 0.0
C636 C 0.20775 0.19005 0.10476 0.0
C637 C 0.19363 0.17653 0.129 0.0
C638 C 0.19632 0.17245 0.1725 0.0
C639 C 0.21311 0.18168 0.19186 0.0
C640 C 0.22726 0.19497 0.16768 0.0
C641 C 0.22463 0.19913 0.1242 0.0
H642 H 0.21517 0.1785 0.22554 0.0
H643 H 0.17795 0.20496 0.8032 0.0
H644 H 0.86096 0.01925 0.80544 0.0
H645 H 0.83461 0.99807 0.84727 0.0
H646 H 0.84712 0.03774 0.94949 0.0
H647 H 0.87256 0.05898 0.90602 0.0
H648 H 0.83844 0.98582 0.91708 0.0
H649 H 0.81754 0.02981 0.02309 0.0
H650 H 0.80823 0.05175 1.00841 0.0
H651 H 0.79369 0.03225 0.87423 0.0
H652 H 0.80263 1.00996 0.88821 0.0
H653 H 0.84295 0.99433 0.15149 0.0
H654 H 0.83402 1.00353 0.08394 0.0
H655 H 0.79996 0.94873 0.04757 0.0
H656 H 0.80919 0.93944 0.11439 0.0
H657 H 0.80426 0.99772 0.0306 0.0
H658 H 0.81236 0.94581 0.94253 0.0
H659 H 0.82228 0.92412 0.95542 0.0
H660 H 0.8619 0.9601 0.04696 0.0
H661 H 0.85234 0.98206 0.03406 0.0
C662 C 0.85755 0.02348 0.83607 0.0
C663 C 0.86873 0.04051 0.85316 0.0
C664 C 0.84251 1.01147 0.85985 0.0
C665 C 0.83878 0.01618 0.90176 0.0
C666 C 0.84928 0.03375 0.91687 0.0
C667 C 0.864 0.04589 0.89237 0.0
C668 C 0.82714 1.0022 0.93409 0.0
C669 C 0.83029 0.98804 0.94062 0.0
C670 C 0.81638 1.00483 0.96507 0.0
C671 C 0.81076 0.01813 0.95677 0.0
C672 C 0.81218 0.03003 0.99058 0.0
C673 C 0.80702 0.04259 0.98233 0.0
C674 C 0.80037 0.0434 0.94042 0.0
C675 C 0.79887 0.03163 0.90666 0.0
C676 C 0.80401 0.01904 0.91472 0.0
C677 C 0.83324 0.98425 0.12965 0.0
C678 C 0.8272 0.96623 0.13753 0.0
C679 C 0.8279 0.9895 0.09148 0.0
C680 C 0.81653 0.97678 0.06056 0.0
C681 C 0.80878 0.95872 0.07107 0.0
C682 C 0.81415 0.95345 0.10928 0.0
C683 C 0.81674 0.98256 1.01405 0.0
C684 C 0.81147 0.99505 1.00516 0.0
C685 C 0.82539 0.97833 0.98036 0.0
C686 C 0.8315 0.96542 0.98773 0.0
C687 C 0.82321 0.94907 0.9653 0.0
C688 C 0.82877 0.93675 0.97258 0.0
C689 C 0.84268 0.94071 1.00209 0.0
C690 C 0.85111 0.95704 0.02419 0.0
C691 C 0.84564 0.96943 0.01686 0.0
H692 H 0.84694 0.93114 1.0077 0.0
H693 H 0.7964 0.05314 0.9341 0.0
H694 H 0.03753 0.86122 0.14875 0.0
H695 H 0.02776 0.85074 0.07317 0.0
H696 H 0.08116 0.88299 0.02456 0.0
H697 H 0.09118 0.89338 0.1008 0.0
H698 H 0.05776 0.88882 0.97963 0.0
H699 H 0.06254 0.83885 1.01508 0.0
H700 H 0.06018 0.81416 0.06066 0.0
H701 H 1.00358 0.78961 0.06054 0.0
H702 H 1.00557 0.81427 1.01556 0.0
H703 H 1.00586 0.85512 0.77933 0.0
H704 H 0.02925 0.86059 0.83289 0.0
H705 H 0.99038 0.83808 0.93839 0.0
H706 H 0.96694 0.83233 0.88491 0.0
H707 H 1.01539 0.82641 0.93844 0.0
H708 H 1.0128 0.88133 0.92618 0.0
H709 H 1.01475 0.90661 0.884 0.0
H710 H 0.06754 0.92177 0.84251 0.0
H711 H 0.0658 0.89641 0.88407 0.0
C712 C 0.0473 0.86578 0.1223 0.0
C713 C 0.0651 0.8782 0.13075 0.0
C714 C 0.04172 0.85971 0.07909 0.0
C715 C 0.05383 0.86589 0.04353 0.0
C716 C 0.07169 0.87799 0.05178 0.0
C717 C 0.07732 0.88405 0.09521 0.0
C718 C 0.04707 0.86131 0.99753 0.0
C719 C 0.04899 0.87515 0.96976 0.0
C720 C 0.0356 0.84349 0.98501 0.0
C721 C 0.03423 0.82846 1.01182 0.0
C722 C 0.04958 0.82823 0.02492 0.0
C723 C 0.04831 0.81423 0.05067 0.0
C724 C 0.03174 0.80032 0.06347 0.0
C725 C 1.01641 0.80037 0.05051 0.0
C726 C 1.0176 0.81435 0.02478 0.0
C727 C 1.00233 0.85122 0.8139 0.0
C728 C 0.98464 0.84336 0.8282 0.0
C729 C 1.01566 0.85435 0.84429 0.0
C730 C 1.01143 0.84963 0.88927 0.0
C731 C 0.99379 0.84166 0.90357 0.0
C732 C 0.98048 0.83862 0.87327 0.0
C733 C 0.02536 0.85391 0.92251 0.0
C734 C 0.02478 0.84001 0.94747 0.0
C735 C 0.03806 0.87166 0.93256 0.0
C736 C 0.03908 0.88686 0.90763 0.0
C737 C 0.02476 0.88996 0.90772 0.0
C738 C 0.02584 0.90432 0.88401 0.0
C739 C 0.04124 0.91575 0.86044 0.0
C740 C 0.05561 0.91287 0.86066 0.0
C741 C 0.05458 0.89852 0.88428 0.0
H742 H 0.04205 0.92686 0.84212 0.0
H743 H 0.03079 0.7895 0.08343 0.0
H744 H 0.86016 0.9285 0.08406 0.0
H745 H 0.87425 0.92009 0.02615 0.0
H746 H 0.89399 0.89909 0.12712 0.0
H747 H 0.88022 0.9082 0.18579 0.0
H748 H 0.9177 0.91213 0.06201 0.0
H749 H 0.85507 0.87203 0.05936 0.0
H750 H 0.82368 0.86388 0.05618 0.0
H751 H 0.83225 0.88928 0.92804 0.0
H752 H 0.86374 0.89772 0.93066 0.0
H753 H 0.92781 0.85187 0.91889 0.0
H754 H 0.91995 0.86712 0.97494 0.0
H755 H 0.90409 0.89028 0.87029 0.0
H756 H 0.9121 0.87486 0.81353 0.0
H757 H 0.87915 0.87723 0.93571 0.0
H758 H 0.94163 0.91565 0.93665 0.0
H759 H 0.97296 0.92368 0.94057 0.0
H760 H 0.96466 0.90116 0.07233 0.0
H761 H 0.9332 0.89275 0.06896 0.0
C762 C 0.86785 0.92246 0.09424 0.0
C763 C 0.86909 0.91925 0.14004 0.0
C764 C 0.87576 0.91736 0.06072 0.0
C765 C 0.88489 0.9083 0.07127 0.0
C766 C 0.88698 0.90588 0.11731 0.0
C767 C 0.8792 0.91126 0.15117 0.0
C768 C 0.89155 0.90093 0.03429 0.0
C769 C 0.90912 0.90431 0.03483 0.0
C770 C 0.88077 0.89097 0.99748 0.0
C771 C 0.86178 0.88562 0.99538 0.0
C772 C 0.85027 0.87592 0.03058 0.0
C773 C 0.83246 0.87125 0.02887 0.0
C774 C 0.82599 0.87609 0.99198 0.0
C775 C 0.83729 0.88555 0.95661 0.0
C776 C 0.85511 0.89025 0.95815 0.0
C777 C 0.9231 0.86059 0.90748 0.0
C778 C 0.92099 0.8623 0.8612 0.0
C779 C 0.91852 0.86935 0.93991 0.0
C780 C 0.91143 0.88015 0.92767 0.0
C781 C 0.90957 0.88218 0.88128 0.0
C782 C 0.9144 0.87352 0.84855 0.0
C783 C 0.90528 0.88842 0.96342 0.0
C784 C 0.88776 0.88513 0.96275 0.0
C785 C 0.91609 0.89838 1.00015 0.0
C786 C 0.935 0.90342 1.00237 0.0
C787 C 0.94644 0.91228 0.96632 0.0
C788 C 0.96423 0.91692 0.96847 0.0
C789 C 0.97079 0.91289 1.00663 0.0
C790 C 0.95956 0.90425 0.04277 0.0
C791 C 0.94175 0.89956 0.04078 0.0
H792 H 0.98457 0.91651 1.00823 0.0
H793 H 0.8122 0.87249 0.99075 0.0
H794 H 0.18985 0.08128 0.93533 0.0
H795 H 0.17483 0.05806 0.99082 0.0
H796 H 0.13145 0.02934 0.89987 0.0
H797 H 0.14674 0.05297 0.84299 0.0
H798 H 0.11994 0.02693 0.99241 0.0
H799 H 0.16074 0.01605 0.91165 0.0
H800 H 0.18945 0.02373 0.8778 0.0
H801 H 0.21401 0.03744 1.00723 0.0
H802 H 0.18548 0.03012 0.0418 0.0
H803 H 0.09058 0.94744 0.1313 0.0
H804 H 0.09826 0.96977 0.07179 0.0
H805 H 0.1501 1.00127 0.1295 0.0
H806 H 0.14254 0.97886 0.18766 0.0
H807 H 0.15489 1.00006 0.04663 0.0
H808 H 0.1148 1.01285 0.12709 0.0
H809 H 0.08639 1.00603 0.16143 0.0
H810 H 0.06061 0.98896 0.03403 0.0
H811 H 0.08884 0.99548 0.99903 0.0
C812 C 0.17701 0.07018 0.92679 0.0
C813 C 0.1697 0.06921 0.88398 0.0
C814 C 0.16838 0.05674 0.95896 0.0
C815 C 0.152 0.04154 0.95002 0.0
C816 C 0.14408 0.0408 0.9081 0.0
C817 C 0.15283 0.05442 0.87544 0.0
C818 C 0.1441 0.02638 0.98388 0.0
C819 C 0.12747 0.02085 1.00365 0.0
C820 C 0.15384 0.01842 0.99984 0.0
C821 C 0.17099 0.02265 0.97927 0.0
C822 C 0.17228 0.02081 0.93287 0.0
C823 C 0.18852 0.02509 0.91355 0.0
C824 C 0.20355 0.03109 0.94034 0.0
C825 C 0.20235 0.03279 0.98652 0.0
C826 C 0.18615 0.02857 1.006 0.0
C827 C 0.10336 0.95945 0.13224 0.0
C828 C 0.11572 0.96149 0.16541 0.0
C829 C 0.10787 0.97228 0.09774 0.0
C830 C 0.1249 0.98759 0.09532 0.0
C831 C 0.13692 0.98978 0.1296 0.0
C832 C 0.13248 0.97698 0.16358 0.0
C833 C 0.13083 1.00079 0.05638 0.0
C834 C 0.14721 1.006 0.03547 0.0
C835 C 0.12083 1.0084 0.03962 0.0
C836 C 0.10388 1.00446 0.06057 0.0
C837 C 0.10304 1.00751 0.10648 0.0
C838 C 0.08698 1.00373 0.12604 0.0
C839 C 0.07169 0.99701 0.09996 0.0
C840 C 0.07245 0.99412 0.05421 0.0
C841 C 0.08848 0.99787 0.03449 0.0
H842 H 0.05927 0.9941 0.11516 0.0
H843 H 0.21611 0.0344 0.92532 0.0
H844 H 0.9844 0.1167 0.83512 0.0
H845 H 1.00819 0.12643 0.89097 0.0
H846 H 0.96925 0.10037 0.99479 0.0
H847 H 0.94575 0.09144 0.93963 0.0
H848 H 0.99094 0.12898 0.02837 0.0
H849 H 1.00095 0.08675 0.95015 0.0
H850 H 1.00664 0.07294 0.88501 0.0
H851 H 0.05505 0.12139 0.85849 0.0
H852 H 0.04954 0.13557 0.92318 0.0
H853 H 0.05371 0.14378 0.20338 0.0
H854 H 0.03033 0.12837 0.1467 0.0
H855 H 0.06702 0.15961 0.04276 0.0
H856 H 0.09012 0.17478 0.09877 0.0
H857 H 0.04649 0.12739 1.01051 0.0
H858 H 0.0355 0.16935 0.08876 0.0
H859 H 0.02983 0.18245 0.15544 0.0
H860 H 0.9827 0.13296 0.1833 0.0
H861 H 0.98823 0.11949 0.11707 0.0
C862 C 0.98094 0.11262 0.86963 0.0
C863 C 0.96298 0.10296 0.88233 0.0
C864 C 0.99465 0.11828 0.90201 0.0
C865 C 0.99091 0.11421 0.94816 0.0
C866 C 0.97292 0.10401 0.96014 0.0
C867 C 0.95933 0.09865 0.92812 0.0
C868 C 1.00531 0.12105 0.98433 0.0
C869 C 1.00289 0.12825 0.02435 0.0
C870 C 0.02139 0.12073 0.98012 0.0
C871 C 0.02473 0.11227 0.94122 0.0
C872 C 1.01274 0.0945 0.93023 0.0
C873 C 1.01595 0.0866 0.89342 0.0
C874 C 0.03117 0.0963 0.86755 0.0
C875 C 0.04325 0.11391 0.87851 0.0
C876 C 0.0401 0.12187 0.91526 0.0
C877 C 0.05693 0.14699 0.16836 0.0
C878 C 0.07403 0.16049 0.15601 0.0
C879 C 0.04341 0.13833 0.13572 0.0
C880 C 0.04656 0.14285 0.08969 0.0
C881 C 0.06391 0.15567 0.07748 0.0
C882 C 0.07725 0.16438 0.10988 0.0
C883 C 0.03195 0.13508 0.05435 0.0
C884 C 0.0344 0.12787 1.01447 0.0
C885 C 1.01583 0.13524 0.05879 0.0
C886 C 1.01238 0.14337 0.09826 0.0
C887 C 0.02399 0.16123 0.10927 0.0
C888 C 0.02079 0.16872 0.14695 0.0
C889 C 1.00594 0.15853 0.17366 0.0
C890 C 0.99421 0.14083 0.16263 0.0
C891 C 0.99737 0.13326 0.12501 0.0
H892 H 1.00349 0.16434 0.20284 0.0
H893 H 0.03363 0.09016 0.83908 0.0
H894 H 0.83014 0.55319 0.48217 0.0
H895 H 0.85311 0.56151 0.42574 0.0
H896 H 0.86074 0.51848 0.46828 0.0
H897 H 0.83813 0.5104 0.52564 0.0
H898 H 0.89038 0.54571 0.42031 0.0
H899 H 0.82564 0.50627 0.40802 0.0
H900 H 0.79504 0.50036 0.41627 0.0
H901 H 0.80696 0.54468 0.33092 0.0
H902 H 0.83775 0.55101 0.32287 0.0
H903 H 0.87924 0.48357 0.25587 0.0
H904 H 0.88084 0.50226 0.31837 0.0
H905 H 0.86997 0.53456 0.229 0.0
H906 H 0.86719 0.51539 0.16706 0.0
H907 H 0.84775 0.52304 0.29416 0.0
H908 H 0.91018 0.55211 0.28472 0.0
H909 H 0.93955 0.55482 0.27795 0.0
H910 H 0.93178 0.52775 0.40333 0.0
H911 H 0.90224 0.52463 0.41059 0.0
C912 C 0.83732 0.54607 0.4811 0.0
C913 C 0.83187 0.53066 0.50682 0.0
C914 C 0.85055 0.55093 0.449 0.0
C915 C 0.85817 0.54027 0.44219 0.0
C916 C 0.85485 0.52675 0.47283 0.0
C917 C 0.84168 0.52193 0.50498 0.0
C918 C 0.86445 0.5391 0.39735 0.0
C919 C 0.88128 0.54102 0.39228 0.0
C920 C 0.85249 0.5331 0.36098 0.0
C921 C 0.83399 0.52925 0.36535 0.0
C922 C 0.82174 0.51481 0.39127 0.0
C923 C 0.80438 0.51139 0.39591 0.0
C924 C 0.79907 0.52218 0.37425 0.0
C925 C 0.81111 0.53638 0.3478 0.0
C926 C 0.82852 0.53991 0.34324 0.0
C927 C 0.87716 0.49461 0.24941 0.0
C928 C 0.8729 0.4978 0.20633 0.0
C929 C 0.87849 0.50555 0.28506 0.0
C930 C 0.87583 0.51999 0.27812 0.0
C931 C 0.87227 0.5236 0.23494 0.0
C932 C 0.8707 0.51257 0.19949 0.0
C933 C 0.87371 0.5293 0.31675 0.0
C934 C 0.85741 0.52864 0.32092 0.0
C935 C 0.88612 0.5362 0.35212 0.0
C936 C 0.90394 0.5381 0.34812 0.0
C937 C 0.91467 0.54663 0.31074 0.0
C938 C 0.93137 0.54825 0.30683 0.0
C939 C 0.93752 0.54145 0.34017 0.0
C940 C 0.927 0.53303 0.37754 0.0
C941 C 0.91029 0.53137 0.38162 0.0
H942 H 0.95045 0.54272 0.33708 0.0
H943 H 0.78562 0.51951 0.37785 0.0
H944 H 0.53882 0.38095 0.26081 0.0
H945 H 0.54028 0.37813 0.34229 0.0
H946 H 0.59677 0.41336 0.33801 0.0
H947 H 0.59507 0.41699 0.25751 0.0
H948 H 0.5869 0.38199 0.3809 0.0
H949 H 0.57488 0.42815 0.39638 0.0
H950 H 0.56152 0.44662 0.38034 0.0
H951 H 0.51046 0.40367 0.4179 0.0
H952 H 0.52341 0.38481 0.43354 0.0
H953 H 0.544 0.32261 0.56343 0.0
H954 H 0.56379 0.35351 0.54124 0.0
H955 H 0.52607 0.34875 0.44116 0.0
H956 H 0.5067 0.31813 0.46186 0.0
H957 H 0.54318 0.38248 0.48593 0.0
H958 H 0.55989 0.33957 0.40214 0.0
H959 H 0.57053 0.31829 0.41218 0.0
H960 H 0.61035 0.35416 0.50353 0.0
H961 H 0.59986 0.37558 0.49398 0.0
C962 C 0.55141 0.38831 0.27779 0.0
C963 C 0.56681 0.39919 0.25361 0.0
C964 C 0.55227 0.38691 0.32407 0.0
C965 C 0.56861 0.39609 0.34638 0.0
C966 C 0.58401 0.4068 0.32192 0.0
C967 C 0.58305 0.40864 0.27596 0.0
C968 C 0.5695 0.39235 0.39404 0.0
C969 C 0.57796 0.38277 0.40482 0.0
C970 C 0.55823 0.39378 0.42556 0.0
C971 C 0.55022 0.40508 0.41663 0.0
C972 C 0.56081 0.4226 0.40126 0.0
C973 C 0.55329 0.43315 0.39215 0.0
C974 C 0.53516 0.42634 0.39824 0.0
C975 C 0.52452 0.40896 0.41341 0.0
C976 C 0.53197 0.39834 0.42256 0.0
C977 C 0.53993 0.32818 0.53675 0.0
C978 C 0.52382 0.31779 0.51399 0.0
C979 C 0.55114 0.3459 0.52466 0.0
C980 C 0.54628 0.35342 0.48997 0.0
C981 C 0.5299 0.3433 0.46873 0.0
C982 C 0.51883 0.3257 0.48047 0.0
C983 C 0.55887 0.37056 0.46945 0.0
C984 C 0.55322 0.38294 0.46368 0.0
C985 C 0.57262 0.37169 0.4423 0.0
C986 C 0.57915 0.35909 0.44736 0.0
C987 C 0.57096 0.34289 0.42418 0.0
C988 C 0.57693 0.33081 0.42985 0.0
C989 C 0.59112 0.33488 0.45847 0.0
C990 C 0.59937 0.35104 0.48139 0.0
C991 C 0.59343 0.36314 0.47588 0.0
H992 H 0.5957 0.32551 0.46293 0.0
H993 H 0.52936 0.43453 0.39112 0.0
H994 H 0.71599 0.19978 0.4667 0.0
H995 H 0.70768 0.19154 0.38958 0.0
H996 H 0.76158 0.22633 0.34762 0.0
H997 H 0.77022 0.23451 0.42577 0.0
H998 H 0.73867 0.23295 0.30379 0.0
H999 H 0.74371 0.18259 0.32528 0.0
H1000 H 0.7419 0.1567 0.36383 0.0
H1001 H 0.68524 0.13131 0.36563 0.0
H1002 H 0.68667 0.15713 0.32777 0.0
H1003 H 0.68094 0.19891 0.10652 0.0
H1004 H 0.7063 0.20603 0.15511 0.0
H1005 H 0.6713 0.18611 0.26904 0.0
H1006 H 0.64599 0.17906 0.22068 0.0
H1007 H 0.69547 0.17191 0.25441 0.0
H1008 H 0.69363 0.22769 0.25696 0.0
H1009 H 0.69588 0.25422 0.22082 0.0
H1010 H 0.74799 0.26929 0.17356 0.0
H1011 H 0.74589 0.24265 0.20885 0.0
C1012 C 0.72625 0.20534 0.44148 0.0
C1013 C 0.74375 0.21788 0.45252 0.0
C1014 C 0.72148 0.20054 0.39725 0.0
C1015 C 0.7341 0.20809 0.36301 0.0
C1016 C 0.75172 0.22025 0.37374 0.0
C1017 C 0.75655 0.22504 0.41831 0.0
C1018 C 0.72791 0.205 0.31634 0.0
C1019 C 0.72974 0.2196 0.29197 0.0
C1020 C 0.71639 0.18759 0.30088 0.0
C1021 C 0.71532 0.17184 0.32344 0.0
C1022 C 0.73085 0.17152 0.33402 0.0
C1023 C 0.72989 0.15685 0.35578 0.0
C1024 C 0.71346 0.14236 0.36712 0.0
C1025 C 0.69796 0.14252 0.3567 0.0
C1026 C 0.69884 0.15716 0.33495 0.0
C1027 C 0.67877 0.1962 0.14203 0.0
C1028 C 0.66161 0.18842 0.16013 0.0
C1029 C 0.69318 0.20024 0.16952 0.0
C1030 C 0.6905 0.19636 0.21523 0.0
C1031 C 0.67347 0.18901 0.23357 0.0
C1032 C 0.65911 0.18519 0.20621 0.0
C1033 C 0.70528 0.19979 0.24471 0.0
C1034 C 0.70507 0.18521 0.26517 0.0
C1035 C 0.71837 0.21719 0.25635 0.0
C1036 C 0.71948 0.23304 0.23483 0.0
C1037 C 0.70546 0.23654 0.23836 0.0
C1038 C 0.70674 0.25162 0.21815 0.0
C1039 C 0.72204 0.26339 0.19471 0.0
C1040 C 0.73612 0.26013 0.19155 0.0
C1041 C 0.73489 0.24504 0.21162 0.0
H1042 H 0.72301 0.27508 0.17916 0.0
H1043 H 0.71275 0.13102 0.384 0.0
H1044 H 0.6047 0.19356 0.25834 0.0
H1045 H 0.59552 0.20723 0.3157 0.0
H1046 H 0.57544 0.22735 0.21341 0.0
H1047 H 0.58531 0.21403 0.15538 0.0
H1048 H 0.58721 0.25065 0.27933 0.0
H1049 H 0.54822 0.18798 0.27851 0.0
H1050 H 0.5398 0.15641 0.28099 0.0
H1051 H 0.5627 0.16368 0.41186 0.0
H1052 H 0.57148 0.19538 0.4099 0.0
H1053 H 0.52475 0.25815 0.42011 0.0
H1054 H 0.54077 0.2511 0.36451 0.0
H1055 H 0.56421 0.23592 0.46981 0.0
H1056 H 0.54802 0.24311 0.52614 0.0
H1057 H 0.55164 0.21093 0.40355 0.0
H1058 H 0.58914 0.27397 0.4044 0.0
H1059 H 0.59599 0.30506 0.40094 0.0
H1060 H 0.57397 0.29649 0.26876 0.0
H1061 H 0.5668 0.26527 0.27159 0.0
C1062 C 0.59877 0.2013 0.24777 0.0
C1063 C 0.59606 0.20281 0.20179 0.0
C1064 C 0.5932 0.20896 0.28095 0.0
C1065 C 0.58415 0.21804 0.26984 0.0
C1066 C 0.58223 0.2204 0.22367 0.0
C1067 C 0.58807 0.21289 0.19017 0.0
C1068 C 0.57622 0.2243 0.30635 0.0
C1069 C 0.57927 0.24182 0.30608 0.0
C1070 C 0.56598 0.21315 0.34246 0.0
C1071 C 0.56066 0.19409 0.34386 0.0
C1072 C 0.55156 0.18288 0.30769 0.0
C1073 C 0.54672 0.16496 0.30902 0.0
C1074 C 0.55075 0.15806 0.34651 0.0
C1075 C 0.55961 0.16905 0.38281 0.0
C1076 C 0.56451 0.18699 0.38162 0.0
C1077 C 0.53367 0.25375 0.43178 0.0
C1078 C 0.53522 0.25156 0.4781 0.0
C1079 C 0.54289 0.24965 0.3996 0.0
C1080 C 0.55399 0.24299 0.41216 0.0
C1081 C 0.55587 0.24107 0.4586 0.0
C1082 C 0.54676 0.24543 0.49108 0.0
C1083 C 0.56273 0.23727 0.37668 0.0
C1084 C 0.55971 0.2198 0.37701 0.0
C1085 C 0.57281 0.24841 0.34046 0.0
C1086 C 0.5773 0.26723 0.33837 0.0
C1087 C 0.58565 0.27868 0.3747 0.0
C1088 C 0.58961 0.29634 0.37284 0.0
C1089 C 0.58536 0.30274 0.33472 0.0
C1090 C 0.57723 0.29151 0.29829 0.0
C1091 C 0.57324 0.27384 0.29997 0.0
H1092 H 0.58841 0.31641 0.3334 0.0
H1093 H 0.54699 0.14418 0.34747 0.0
H1094 H 0.84519 0.3888 0.18149 0.0
H1095 H 0.83085 0.36522 0.23728 0.0
H1096 H 0.81532 0.39757 0.31187 0.0
H1097 H 0.83039 0.42149 0.25644 0.0
H1098 H 0.82572 0.38355 0.36978 0.0
H1099 H 0.785 0.35622 0.24965 0.0
H1100 H 0.77499 0.34537 0.17299 0.0
H1101 H 0.79661 0.31078 0.18343 0.0
H1102 H 0.80699 0.32162 0.25991 0.0
H1103 H 0.77888 0.31059 0.52779 0.0
H1104 H 0.78518 0.3336 0.47061 0.0
H1105 H 0.80664 0.30964 0.38349 0.0
H1106 H 0.80018 0.28689 0.43912 0.0
H1107 H 0.78963 0.31966 0.33325 0.0
H1108 H 0.83257 0.34937 0.45124 0.0
H1109 H 0.84191 0.35995 0.52843 0.0
H1110 H 0.8148 0.38961 0.52215 0.0
H1111 H 0.80513 0.37903 0.44507 0.0
C1112 C 0.8381 0.39064 0.2088 0.0
C1113 C 0.83833 0.40688 0.213 0.0
C1114 C 0.82989 0.37706 0.24123 0.0
C1115 C 0.82146 0.37907 0.27937 0.0
C1116 C 0.82147 0.39527 0.28316 0.0
C1117 C 0.82985 0.40895 0.25079 0.0
C1118 C 0.81362 0.3648 0.31597 0.0
C1119 C 0.81756 0.36963 0.36147 0.0
C1120 C 0.80306 0.34635 0.30648 0.0
C1121 C 0.7969 0.33986 0.26041 0.0
C1122 C 0.78774 0.3464 0.23548 0.0
C1123 C 0.78198 0.34024 0.19207 0.0
C1124 C 0.7852 0.32743 0.17332 0.0
C1125 C 0.79415 0.32072 0.19797 0.0
C1126 C 0.79996 0.32686 0.24137 0.0
C1127 C 0.78465 0.31007 0.49615 0.0
C1128 C 0.78897 0.29668 0.48866 0.0
C1129 C 0.7885 0.32344 0.46339 0.0
C1130 C 0.79676 0.32383 0.4221 0.0
C1131 C 0.80037 0.31002 0.41442 0.0
C1132 C 0.79665 0.29688 0.44682 0.0
C1133 C 0.80203 0.33839 0.38678 0.0
C1134 C 0.79765 0.33361 0.34148 0.0
C1135 C 0.81209 0.35684 0.39648 0.0
C1136 C 0.81797 0.36326 0.44264 0.0
C1137 C 0.82851 0.35806 0.46645 0.0
C1138 C 0.83387 0.36406 0.51015 0.0
C1139 C 0.82891 0.3754 0.53023 0.0
C1140 C 0.81861 0.3808 0.50659 0.0
C1141 C 0.81319 0.37481 0.4629 0.0
H1142 H 0.83307 0.38004 0.56407 0.0
H1143 H 0.78072 0.32267 0.13971 0.0
H1144 H 0.62122 0.4183 0.22493 0.0
H1145 H 0.6423 0.42449 0.2869 0.0
H1146 H 0.67162 0.47932 0.2466 0.0
H1147 H 0.65045 0.47331 0.18637 0.0
H1148 H 0.69426 0.46812 0.26694 0.0
H1149 H 0.64362 0.46566 0.33977 0.0
H1150 H 0.61385 0.45423 0.37214 0.0
H1151 H 0.61825 0.41322 0.44042 0.0
H1152 H 0.64802 0.42437 0.40837 0.0
H1153 H 0.74563 0.51876 0.44617 0.0
H1154 H 0.7236 0.50392 0.38899 0.0
H1155 H 0.7025 0.45468 0.46155 0.0
H1156 H 0.72484 0.46993 0.5211 0.0
H1157 H 0.67556 0.45782 0.42594 0.0
H1158 H 0.72777 0.4631 0.36276 0.0
H1159 H 0.75937 0.47821 0.3424 0.0
H1160 H 0.75251 0.5143 0.25828 0.0
H1161 H 0.72095 0.49964 0.27878 0.0
C1162 C 0.63236 0.43159 0.22874 0.0
C1163 C 0.63417 0.44522 0.19977 0.0
C1164 C 0.64436 0.43522 0.26478 0.0
C1165 C 0.65872 0.45253 0.27245 0.0
C1166 C 0.66083 0.46587 0.24219 0.0
C1167 C 0.64871 0.46235 0.20716 0.0
C1168 C 0.67176 0.45709 0.31105 0.0
C1169 C 0.69004 0.46584 0.30164 0.0
C1170 C 0.66666 0.45379 0.35693 0.0
C1171 C 0.64797 0.44573 0.37126 0.0
C1172 C 0.63811 0.454 0.36098 0.0
C1173 C 0.62132 0.4477 0.37971 0.0
C1174 C 0.6143 0.43318 0.40882 0.0
C1175 C 0.6238 0.42459 0.41827 0.0
C1176 C 0.64061 0.43087 0.39977 0.0
C1177 C 0.73647 0.50472 0.45062 0.0
C1178 C 0.7374 0.49569 0.48901 0.0
C1179 C 0.72375 0.49613 0.41708 0.0
C1180 C 0.71134 0.47792 0.4195 0.0
C1181 C 0.7119 0.46871 0.45807 0.0
C1182 C 0.72479 0.47744 0.49227 0.0
C1183 C 0.69796 0.46911 0.38173 0.0
C1184 C 0.67971 0.45968 0.3912 0.0
C1185 C 0.70305 0.47167 0.33583 0.0
C1186 C 0.72197 0.4803 0.32252 0.0
C1187 C 0.73301 0.47431 0.34007 0.0
C1188 C 0.75092 0.4828 0.32852 0.0
C1189 C 0.75794 0.49721 0.29909 0.0
C1190 C 0.74705 0.50313 0.28107 0.0
C1191 C 0.72914 0.49472 0.29261 0.0
H1192 H 0.77182 0.50379 0.29024 0.0
H1193 H 0.6014 0.42842 0.42368 0.0
H1194 H 0.49993 0.79619 0.53346 0.0
H1195 H 0.48913 0.81501 0.56434 0.0
H1196 H 0.53931 0.86156 0.53447 0.0
H1197 H 0.55016 0.84269 0.50427 0.0
H1198 H 0.53296 0.85706 0.62097 0.0
H1199 H 0.50095 0.85796 0.49457 0.0
H1200 H 0.48066 0.84618 0.43027 0.0
H1201 H 0.43735 0.81465 0.51885 0.0
H1202 H 0.45739 0.82593 0.58364 0.0
H1203 H 0.50445 0.88771 0.79738 0.0
H1204 H 0.51332 0.88883 0.71886 0.0
H1205 H 0.46682 0.83767 0.69619 0.0
H1206 H 0.45747 0.83741 0.77361 0.0
H1207 H 0.47522 0.855 0.6217 0.0
H1208 H 0.50768 0.84288 0.73606 0.0
H1209 H 0.52656 0.84998 0.80304 0.0
H1210 H 0.56702 0.89701 0.73875 0.0
H1211 H 0.54827 0.89026 0.67156 0.0
C1212 C 0.5084 0.81046 0.5323 0.0
C1213 C 0.526 0.81804 0.51795 0.0
C1214 C 0.50218 0.82123 0.54938 0.0
C1215 C 0.51345 0.83969 0.55167 0.0
C1216 C 0.53043 0.84734 0.53296 0.0
C1217 C 0.53669 0.83658 0.51642 0.0
C1218 C 0.50928 0.85005 0.58341 0.0
C1219 C 0.5206 0.85719 0.62027 0.0
C1220 C 0.49293 0.84972 0.58303 0.0
C1221 C 0.48075 0.84281 0.54408 0.0
C1222 C 0.48713 0.84841 0.50038 0.0
C1223 C 0.47566 0.84182 0.4638 0.0
C1224 C 0.45773 0.82967 0.47046 0.0
C1225 C 0.45124 0.82407 0.51373 0.0
C1226 C 0.46265 0.83059 0.55041 0.0
C1227 C 0.4961 0.87696 0.77501 0.0
C1228 C 0.48064 0.86224 0.79093 0.0
C1229 C 0.50105 0.8776 0.7304 0.0
C1230 C 0.491 0.86309 0.70207 0.0
C1231 C 0.47484 0.84899 0.71742 0.0
C1232 C 0.46961 0.84868 0.76158 0.0
C1233 C 0.4985 0.86101 0.65972 0.0
C1234 C 0.48787 0.8555 0.62119 0.0
C1235 C 0.51523 0.86214 0.65887 0.0
C1236 C 0.5265 0.86622 0.69917 0.0
C1237 C 0.52057 0.85479 0.73638 0.0
C1238 C 0.53124 0.85874 0.77434 0.0
C1239 C 0.54795 0.87398 0.77522 0.0
C1240 C 0.55405 0.88526 0.73808 0.0
C1241 C 0.54341 0.88138 0.70007 0.0
H1242 H 0.5562 0.87701 0.80462 0.0
H1243 H 0.44887 0.82459 0.4421 0.0
H1244 H 0.19616 0.65095 0.77931 0.0
H1245 H 0.21575 0.66197 0.71449 0.0
H1246 H 0.24529 0.63808 0.76436 0.0
H1247 H 0.22561 0.62673 0.8291 0.0
H1248 H 0.26564 0.67563 0.72585 0.0
H1249 H 0.22569 0.61711 0.68437 0.0
H1250 H 0.19699 0.58919 0.68144 0.0
H1251 H 0.17409 0.61568 0.61075 0.0
H1252 H 0.20248 0.64376 0.61367 0.0
H1253 H 0.24845 0.69967 0.48133 0.0
H1254 H 0.25593 0.68028 0.52526 0.0
H1255 H 0.25091 0.70418 0.64693 0.0
H1256 H 0.24321 0.72297 0.60342 0.0
H1257 H 0.23255 0.6562 0.58287 0.0
H1258 H 0.27806 0.70646 0.72529 0.0
H1259 H 0.30647 0.73436 0.72856 0.0
H1260 H 0.3191 0.72551 0.59573 0.0
H1261 H 0.29105 0.69714 0.59207 0.0
C1262 C 0.20689 0.64817 0.77675 0.0
C1263 C 0.20912 0.63779 0.8091 0.0
C1264 C 0.21804 0.65442 0.73978 0.0
C1265 C 0.23165 0.65045 0.73452 0.0
C1266 C 0.23474 0.64111 0.76792 0.0
C1267 C 0.22352 0.63478 0.80505 0.0
C1268 C 0.24207 0.65602 0.69297 0.0
C1269 C 0.25876 0.67133 0.69416 0.0
C1270 C 0.23345 0.64946 0.6516 0.0
C1271 C 0.21631 0.63254 0.64899 0.0
C1272 C 0.21452 0.61698 0.66827 0.0
C1273 C 0.19831 0.60113 0.66664 0.0
C1274 C 0.18376 0.60067 0.64588 0.0
C1275 C 0.18539 0.61604 0.62667 0.0
C1276 C 0.20157 0.63192 0.62816 0.0
C1277 C 0.24912 0.70069 0.51747 0.0
C1278 C 0.24479 0.71225 0.53946 0.0
C1279 C 0.25361 0.68989 0.54234 0.0
C1280 C 0.25433 0.69105 0.58924 0.0
C1281 C 0.25087 0.70333 0.61074 0.0
C1282 C 0.24606 0.71376 0.58609 0.0
C1283 C 0.25482 0.67732 0.61711 0.0
C1284 C 0.24017 0.66019 0.6136 0.0
C1285 C 0.26539 0.68223 0.65616 0.0
C1286 C 0.28236 0.69943 0.65854 0.0
C1287 C 0.28695 0.71021 0.69696 0.0
C1288 C 0.30304 0.72617 0.69889 0.0
C1289 C 0.31462 0.73167 0.66245 0.0
C1290 C 0.31014 0.72121 0.62399 0.0
C1291 C 0.29415 0.70515 0.62201 0.0
H1292 H 0.32701 0.7441 0.66393 0.0
H1293 H 0.17122 0.58839 0.64472 0.0
H1294 H 0.3272 0.48218 0.49252 0.0
H1295 H 0.34244 0.47715 0.55455 0.0
H1296 H 0.32725 0.50664 0.64225 0.0
H1297 H 0.31208 0.51167 0.5806 0.0
H1298 H 0.36989 0.50084 0.59903 0.0
H1299 H 0.32048 0.49268 0.74367 0.0
H1300 H 0.28828 0.47624 0.75605 0.0
H1301 H 0.2822 0.43905 0.65361 0.0
H1302 H 0.31441 0.45509 0.64102 0.0
H1303 H 0.4039 0.5555 0.77669 0.0
H1304 H 0.39034 0.53618 0.71263 0.0
H1305 H 0.37169 0.49018 0.798 0.0
H1306 H 0.38516 0.50963 0.86257 0.0
H1307 H 0.34571 0.48789 0.75337 0.0
H1308 H 0.4002 0.49602 0.70979 0.0
H1309 H 0.43238 0.51104 0.69711 0.0
H1310 H 0.42832 0.54449 0.59785 0.0
H1311 H 0.39618 0.52991 0.61036 0.0
C1312 C 0.32712 0.48757 0.52507 0.0
C1313 C 0.31856 0.49744 0.53178 0.0
C1314 C 0.33567 0.48452 0.56048 0.0
C1315 C 0.33568 0.49121 0.6031 0.0
C1316 C 0.32695 0.50088 0.6099 0.0
C1317 C 0.31839 0.50387 0.57464 0.0
C1318 C 0.34639 0.49008 0.63971 0.0
C1319 C 0.36465 0.4977 0.63279 0.0
C1320 C 0.33935 0.485 0.6833 0.0
C1321 C 0.31994 0.47511 0.69146 0.0
C1322 C 0.31233 0.48089 0.72409 0.0
C1323 C 0.29405 0.47167 0.73105 0.0
C1324 C 0.2832 0.45661 0.70565 0.0
C1325 C 0.29061 0.45073 0.67324 0.0
C1326 C 0.30889 0.4599 0.66615 0.0
C1327 C 0.39728 0.54128 0.78161 0.0
C1328 C 0.39535 0.53407 0.82455 0.0
C1329 C 0.38966 0.53021 0.74492 0.0
C1330 C 0.38021 0.51169 0.75041 0.0
C1331 C 0.37898 0.50442 0.79303 0.0
C1332 C 0.38651 0.51553 0.82987 0.0
C1333 C 0.36934 0.5005 0.71295 0.0
C1334 C 0.351 0.49036 0.71963 0.0
C1335 C 0.37631 0.50292 0.66914 0.0
C1336 C 0.39569 0.51177 0.66096 0.0
C1337 C 0.40616 0.50662 0.68535 0.0
C1338 C 0.42441 0.51507 0.6782 0.0
C1339 C 0.43239 0.5287 0.64665 0.0
C1340 C 0.42212 0.53389 0.62218 0.0
C1341 C 0.40386 0.52549 0.6292 0.0
H1342 H 0.44652 0.53523 0.64119 0.0
H1343 H 0.26904 0.4495 0.71106 0.0
H1344 H 0.21603 0.56648 0.87898 0.0
H1345 H 0.23058 0.5584 0.82061 0.0
H1346 H 0.22101 0.58961 0.72472 0.0
H1347 H 0.20548 0.59659 0.78214 0.0
H1348 H 0.2139 0.56235 0.6835 0.0
H1349 H 0.26496 0.59979 0.77052 0.0
H1350 H 0.28346 0.61092 0.83821 0.0
H1351 H 0.28101 0.56075 0.85475 0.0
H1352 H 0.2623 0.54924 0.78744 0.0
H1353 H 0.26226 0.54769 0.50763 0.0
H1354 H 0.2542 0.56274 0.56527 0.0
H1355 H 0.25671 0.52879 0.66648 0.0
H1356 H 0.26497 0.5142 0.60983 0.0
H1357 H 0.26886 0.55972 0.70245 0.0
H1358 H 0.21651 0.52271 0.61407 0.0
H1359 H 0.19929 0.51321 0.54404 0.0
H1360 H 0.20572 0.56512 0.52787 0.0
H1361 H 0.22321 0.57501 0.59752 0.0
C1362 C 0.21755 0.5721 0.84582 0.0
C1363 C 0.21001 0.58273 0.83602 0.0
C1364 C 0.22587 0.56739 0.81197 0.0
C1365 C 0.22722 0.57339 0.76721 0.0
C1366 C 0.2202 0.58453 0.75819 0.0
C1367 C 0.21157 0.58887 0.79159 0.0
C1368 C 0.23499 0.56748 0.72938 0.0
C1369 C 0.2261 0.56211 0.68782 0.0
C1370 C 0.25084 0.56675 0.73374 0.0
C1371 C 0.26209 0.57361 0.77419 0.0
C1372 C 0.26826 0.59109 0.78877 0.0
C1373 C 0.27881 0.59747 0.82704 0.0
C1374 C 0.28337 0.58653 0.85083 0.0
C1375 C 0.27744 0.5692 0.83632 0.0
C1376 C 0.26688 0.56275 0.79809 0.0
C1377 C 0.26155 0.54376 0.5423 0.0
C1378 C 0.26444 0.52969 0.55365 0.0
C1379 C 0.25663 0.55222 0.57547 0.0
C1380 C 0.25441 0.54684 0.62098 0.0
C1381 C 0.25817 0.53338 0.6322 0.0
C1382 C 0.26296 0.52497 0.59936 0.0
C1383 C 0.24769 0.55451 0.65701 0.0
C1384 C 0.25673 0.56012 0.69822 0.0
C1385 C 0.23212 0.55569 0.65211 0.0
C1386 C 0.22135 0.54965 0.61071 0.0
C1387 C 0.21434 0.53213 0.59544 0.0
C1388 C 0.20452 0.52667 0.55583 0.0
C1389 C 0.20146 0.53857 0.53145 0.0
C1390 C 0.20814 0.55593 0.54675 0.0
C1391 C 0.218 0.56147 0.58629 0.0
H1392 H 0.19389 0.53433 0.50076 0.0
H1393 H 0.29153 0.59149 0.88046 0.0
H1394 H 0.49032 0.71109 0.49917 0.0
H1395 H 0.47543 0.68806 0.55669 0.0
H1396 H 0.49768 0.72806 0.65953 0.0
H1397 H 0.51312 0.75072 0.60227 0.0
H1398 H 0.50098 0.70366 0.68959 0.0
H1399 H 0.44968 0.7013 0.62588 0.0
H1400 H 0.42883 0.69849 0.56652 0.0
H1401 H 0.41968 0.64651 0.53425 0.0
H1402 H 0.44065 0.6491 0.59309 0.0
H1403 H 0.45255 0.64358 0.8698 0.0
H1404 H 0.46131 0.6673 0.81342 0.0
H1405 H 0.44947 0.62923 0.70808 0.0
H1406 H 0.44091 0.60577 0.76394 0.0
H1407 H 0.43975 0.65288 0.6815 0.0
H1408 H 0.49222 0.65668 0.74623 0.0
H1409 H 0.51189 0.65973 0.80896 0.0
H1410 H 0.51749 0.71022 0.84262 0.0
H1411 H 0.49764 0.70734 0.78042 0.0
C1412 C 0.49154 0.71503 0.53394 0.0
C1413 C 0.50264 0.73298 0.54564 0.0
C1414 C 0.48302 0.70175 0.56728 0.0
C1415 C 0.48505 0.70595 0.61357 0.0
C1416 C 0.4957 0.72403 0.62476 0.0
C1417 C 0.50441 0.73717 0.59164 0.0
C1418 C 0.47704 0.69175 0.65035 0.0
C1419 C 0.48745 0.69281 0.68776 0.0
C1420 C 0.45945 0.67707 0.64902 0.0
C1421 C 0.44687 0.67547 0.61357 0.0
C1422 C 0.44332 0.68932 0.6059 0.0
C1423 C 0.43146 0.68776 0.57239 0.0
C1424 C 0.42297 0.67235 0.54655 0.0
C1425 C 0.42629 0.65845 0.55425 0.0
C1426 C 0.43814 0.65995 0.58769 0.0
C1427 C 0.45127 0.64017 0.83461 0.0
C1428 C 0.44566 0.62256 0.82172 0.0
C1429 C 0.45656 0.65385 0.80214 0.0
C1430 C 0.45634 0.65034 0.75574 0.0
C1431 C 0.44986 0.63258 0.74312 0.0
C1432 C 0.44485 0.61905 0.77538 0.0
C1433 C 0.46366 0.665 0.72039 0.0
C1434 C 0.4532 0.66392 0.68324 0.0
C1435 C 0.4811 0.6798 0.72222 0.0
C1436 C 0.49332 0.68172 0.75897 0.0
C1437 C 0.49758 0.66839 0.76716 0.0
C1438 C 0.50876 0.67008 0.80261 0.0
C1439 C 0.5159 0.68513 0.82984 0.0
C1440 C 0.51193 0.69856 0.82154 0.0
C1441 C 0.50072 0.69691 0.78618 0.0
H1442 H 0.52453 0.68641 0.85731 0.0
H1443 H 0.4138 0.67117 0.52062 0.0
H1444 H 0.41559 0.8171 0.81361 0.0
H1445 H 0.39369 0.80153 0.75373 0.0
H1446 H 0.36533 0.82789 0.79433 0.0
H1447 H 0.38683 0.84304 0.85371 0.0
H1448 H 0.34207 0.79598 0.77167 0.0
H1449 H 0.3965 0.84101 0.70224 0.0
H1450 H 0.42815 0.85493 0.6829 0.0
H1451 H 0.41864 0.80718 0.61683 0.0
H1452 H 0.38696 0.79285 0.63652 0.0
H1453 H 0.296 0.8016 0.58883 0.0
H1454 H 0.31839 0.80799 0.6449 0.0
H1455 H 0.3313 0.77151 0.58159 0.0
H1456 H 0.30846 0.76496 0.52379 0.0
H1457 H 0.3622 0.80272 0.614 0.0
H1458 H 0.30688 0.75988 0.6717 0.0
H1459 H 0.27539 0.74549 0.69199 0.0
H1460 H 0.28628 0.78866 0.78033 0.0
H1461 H 0.31787 0.80338 0.76028 0.0
C1462 C 0.40432 0.81905 0.81072 0.0
C1463 C 0.40284 0.83108 0.83949 0.0
C1464 C 0.39191 0.81038 0.77573 0.0
C1465 C 0.37771 0.81357 0.76832 0.0
C1466 C 0.37593 0.82498 0.79855 0.0
C1467 C 0.38827 0.83363 0.83302 0.0
C1468 C 0.36491 0.80576 0.72904 0.0
C1469 C 0.34659 0.79763 0.73727 0.0
C1470 C 0.37041 0.80709 0.68359 0.0
C1471 C 0.3894 0.81578 0.67136 0.0
C1472 C 0.40118 0.83343 0.68388 0.0
C1473 C 0.41912 0.8414 0.67285 0.0
C1474 C 0.42541 0.83193 0.64881 0.0
C1475 C 0.41375 0.81448 0.6356 0.0
C1476 C 0.39581 0.80643 0.6467 0.0
C1477 C 0.30351 0.79482 0.58618 0.0
C1478 C 0.30005 0.78255 0.55128 0.0
C1479 C 0.31647 0.79858 0.61877 0.0
C1480 C 0.32663 0.79017 0.61856 0.0
C1481 C 0.32375 0.77827 0.58299 0.0
C1482 C 0.31061 0.77448 0.54981 0.0
C1483 C 0.33946 0.7936 0.65683 0.0
C1484 C 0.3577 0.8009 0.64844 0.0
C1485 C 0.33392 0.7915 0.70232 0.0
C1486 C 0.31484 0.78274 0.71445 0.0
C1487 C 0.3026 0.76633 0.69542 0.0
C1488 C 0.2847 0.75811 0.70685 0.0
C1489 C 0.27883 0.76616 0.73746 0.0
C1490 C 0.29085 0.78243 0.75667 0.0
C1491 C 0.30878 0.79069 0.74533 0.0
H1492 H 0.26496 0.75978 0.74628 0.0
H1493 H 0.4393 0.83811 0.64031 0.0
H1494 H 0.22915 0.41398 0.45347 0.0
H1495 H 0.21253 0.3821 0.44004 0.0
H1496 H 0.2136 0.39151 0.29813 0.0
H1497 H 0.23033 0.4236 0.31136 0.0
H1498 H 0.18172 0.36563 0.32149 0.0
H1499 H 0.2406 0.37726 0.34893 0.0
H1500 H 0.26861 0.38884 0.3905 0.0
H1501 H 0.24073 0.35547 0.50237 0.0
H1502 H 0.21251 0.34386 0.46168 0.0
H1503 H 0.15496 0.27787 0.25119 0.0
H1504 H 0.1713 0.30968 0.26551 0.0
H1505 H 0.1693 0.2997 0.4073 0.0
H1506 H 0.15338 0.26764 0.39308 0.0
H1507 H 0.20156 0.3258 0.38453 0.0
H1508 H 0.14268 0.31396 0.35657 0.0
H1509 H 0.11473 0.30238 0.31477 0.0
H1510 H 0.14268 0.33614 0.20353 0.0
H1511 H 0.17085 0.34774 0.24445 0.0
C1512 C 0.22612 0.40936 0.41924 0.0
C1513 C 0.2314 0.42157 0.38349 0.0
C1514 C 0.21651 0.391 0.4116 0.0
C1515 C 0.21197 0.38418 0.36794 0.0
C1516 C 0.21692 0.3963 0.33218 0.0
C1517 C 0.2265 0.41473 0.33982 0.0
C1518 C 0.20197 0.36447 0.3598 0.0
C1519 C 0.18624 0.35699 0.33477 0.0
C1520 C 0.20747 0.35293 0.37794 0.0
C1521 C 0.22442 0.35982 0.40242 0.0
C1522 C 0.24043 0.37249 0.38252 0.0
C1523 C 0.25634 0.37904 0.40591 0.0
C1524 C 0.25644 0.37292 0.44909 0.0
C1525 C 0.24063 0.36021 0.46894 0.0
C1526 C 0.22467 0.35363 0.44572 0.0
C1527 C 0.15811 0.28233 0.28551 0.0
C1528 C 0.15284 0.26997 0.32091 0.0
C1529 C 0.16733 0.30066 0.2937 0.0
C1530 C 0.17146 0.3073 0.33759 0.0
C1531 C 0.16629 0.29503 0.37309 0.0
C1532 C 0.15702 0.27664 0.36491 0.0
C1533 C 0.18133 0.32697 0.34619 0.0
C1534 C 0.19704 0.33444 0.37129 0.0
C1535 C 0.17582 0.3385 0.32807 0.0
C1536 C 0.1589 0.3316 0.30343 0.0
C1537 C 0.14289 0.31882 0.32307 0.0
C1538 C 0.127 0.31227 0.29955 0.0
C1539 C 0.12693 0.31849 0.25648 0.0
C1540 C 0.14275 0.33131 0.23688 0.0
C1541 C 0.15868 0.33789 0.26023 0.0
H1542 H 0.11462 0.3134 0.23832 0.0
H1543 H 0.26878 0.37801 0.46714 0.0
H1544 H 0.7638 0.87905 0.36532 0.0
H1545 H 0.73171 0.86232 0.37938 0.0
H1546 H 0.72357 0.89077 0.2727 0.0
H1547 H 0.75552 0.9071 0.25772 0.0
H1548 H 0.70321 0.88628 0.35741 0.0
H1549 H 0.71526 0.85294 0.24724 0.0
H1550 H 0.73064 0.83767 0.2189 0.0
H1551 H 0.71206 0.80231 0.33166 0.0
H1552 H 0.69679 0.81757 0.36105 0.0
H1553 H 0.60963 0.83284 0.33837 0.0
H1554 H 0.64125 0.85052 0.32272 0.0
H1555 H 0.64959 0.81097 0.38703 0.0
H1556 H 0.618 0.79258 0.39915 0.0
H1557 H 0.67051 0.8219 0.3235 0.0
H1558 H 0.65915 0.85383 0.43641 0.0
H1559 H 0.64481 0.8691 0.47117 0.0
H1560 H 0.66288 0.9068 0.36334 0.0
H1561 H 0.67714 0.89161 0.32764 0.0
C1562 C 0.75519 0.88191 0.34531 0.0
C1563 C 0.76226 0.89447 0.31048 0.0
C1564 C 0.73682 0.87227 0.35321 0.0
C1565 C 0.72511 0.87521 0.32708 0.0
C1566 C 0.73224 0.88824 0.29343 0.0
C1567 C 0.75053 0.89757 0.28486 0.0
C1568 C 0.70544 0.86422 0.33342 0.0
C1569 C 0.69601 0.87223 0.34957 0.0
C1570 C 0.696 0.84578 0.32439 0.0
C1571 C 0.70505 0.83652 0.30659 0.0
C1572 C 0.71459 0.84201 0.26621 0.0
C1573 C 0.72326 0.83334 0.24991 0.0
C1574 C 0.72237 0.81906 0.27353 0.0
C1575 C 0.71276 0.81339 0.31344 0.0
C1576 C 0.70409 0.82204 0.32992 0.0
C1577 C 0.61807 0.82768 0.3486 0.0
C1578 C 0.61089 0.81119 0.37084 0.0
C1579 C 0.63637 0.83805 0.34027 0.0
C1580 C 0.64823 0.83251 0.35472 0.0
C1581 C 0.64102 0.81585 0.37573 0.0
C1582 C 0.62275 0.80535 0.38331 0.0
C1583 C 0.66801 0.84384 0.348 0.0
C1584 C 0.67756 0.83592 0.33162 0.0
C1585 C 0.6776 0.86231 0.3578 0.0
C1586 C 0.66904 0.87147 0.37912 0.0
C1587 C 0.65996 0.8653 0.41996 0.0
C1588 C 0.65186 0.87395 0.43985 0.0
C1589 C 0.65289 0.88888 0.41941 0.0
C1590 C 0.66206 0.89521 0.37909 0.0
C1591 C 0.67016 0.8866 0.35903 0.0
H1592 H 0.64662 0.89556 0.43486 0.0
H1593 H 0.72908 0.81236 0.26085 0.0
H1594 H 0.19434 0.77856 0.3437 0.0
H1595 H 0.17804 0.7941 0.32757 0.0
H1596 H 0.20949 0.83401 0.42523 0.0
H1597 H 0.2254 0.81834 0.44209 0.0
H1598 H 0.17781 0.82718 0.43526 0.0
H1599 H 0.2146 0.84034 0.30571 0.0
H1600 H 0.2273 0.83381 0.23965 0.0
H1601 H 0.17564 0.80435 0.18107 0.0
H1602 H 0.16259 0.81051 0.24708 0.0
H1603 H 0.15629 0.89303 0.36615 0.0
H1604 H 0.1714 0.87641 0.38208 0.0
H1605 H 0.13419 0.83356 0.29885 0.0
H1606 H 0.11866 0.8498 0.2837 0.0
H1607 H 0.16814 0.84153 0.28099 0.0
H1608 H 0.13203 0.82982 0.41234 0.0
H1609 H 0.12052 0.83786 0.47824 0.0
H1610 H 0.1729 0.86668 0.53312 0.0
H1611 H 0.18475 0.85901 0.46722 0.0
C1612 C 0.19784 0.7907 0.36154 0.0
C1613 C 0.21115 0.79706 0.39446 0.0
C1614 C 0.18852 0.79967 0.35219 0.0
C1615 C 0.19252 0.81547 0.37479 0.0
C1616 C 0.20593 0.82186 0.40736 0.0
C1617 C 0.21506 0.81282 0.41706 0.0
C1618 C 0.18268 0.82526 0.36532 0.0
C1619 C 0.17596 0.83048 0.40145 0.0
C1620 C 0.1798 0.82944 0.3213 0.0
C1621 C 0.1876 0.82572 0.28156 0.0
C1622 C 0.20593 0.83235 0.27889 0.0
C1623 C 0.2132 0.82874 0.24144 0.0
C1624 C 0.20228 0.81862 0.20625 0.0
C1625 C 0.18408 0.81215 0.20839 0.0
C1626 C 0.17674 0.81571 0.2458 0.0
C1627 C 0.15104 0.87995 0.35176 0.0
C1628 C 0.13611 0.87291 0.32349 0.0
C1629 C 0.15983 0.87045 0.36076 0.0
C1630 C 0.15399 0.85362 0.34181 0.0
C1631 C 0.1391 0.84653 0.31374 0.0
C1632 C 0.13023 0.85594 0.30497 0.0
C1633 C 0.16343 0.84348 0.3509 0.0
C1634 C 0.17004 0.83819 0.31473 0.0
C1635 C 0.16642 0.83945 0.39488 0.0
C1636 C 0.1593 0.84398 0.43465 0.0
C1637 C 0.14111 0.83798 0.43831 0.0
C1638 C 0.13452 0.84245 0.47568 0.0
C1639 C 0.14598 0.85281 0.50979 0.0
C1640 C 0.16404 0.85867 0.50665 0.0
C1641 C 0.1707 0.85425 0.46931 0.0
H1642 H 0.14085 0.85626 0.5387 0.0
H1643 H 0.20793 0.81584 0.17727 0.0
H1644 H 0.42571 0.24223 0.67899 0.0
H1645 H 0.39381 0.22745 0.69322 0.0
H1646 H 0.38657 0.1812 0.62246 0.0
H1647 H 0.41832 0.19556 0.60916 0.0
H1648 H 0.36214 0.18996 0.59619 0.0
H1649 H 0.38406 0.18147 0.73628 0.0
H1650 H 0.4027 0.19101 0.80395 0.0
H1651 H 0.38019 0.22288 0.84355 0.0
H1652 H 0.36158 0.21372 0.77576 0.0
H1653 H 0.27275 0.12887 0.65903 0.0
H1654 H 0.3046 0.14459 0.64405 0.0
H1655 H 0.31141 0.1872 0.73055 0.0
H1656 H 0.2797 0.1713 0.74643 0.0
H1657 H 0.33634 0.18101 0.74832 0.0
H1658 H 0.3144 0.18999 0.60994 0.0
H1659 H 0.29601 0.18145 0.54186 0.0
H1660 H 0.31866 0.15017 0.49815 0.0
H1661 H 0.33703 0.15835 0.56628 0.0
C1662 C 0.41742 0.22882 0.66695 0.0
C1663 C 0.42484 0.22028 0.64249 0.0
C1664 C 0.39908 0.22037 0.67498 0.0
C1665 C 0.38761 0.20313 0.6589 0.0
C1666 C 0.39499 0.19453 0.63492 0.0
C1667 C 0.41327 0.20288 0.62714 0.0
C1668 C 0.36796 0.19403 0.66658 0.0
C1669 C 0.35651 0.18784 0.62952 0.0
C1670 C 0.36044 0.19158 0.70989 0.0
C1671 C 0.37157 0.19705 0.75072 0.0
C1672 C 0.38319 0.19063 0.75924 0.0
C1673 C 0.39373 0.19594 0.79764 0.0
C1674 C 0.39267 0.20758 0.82796 0.0
C1675 C 0.38102 0.21389 0.82 0.0
C1676 C 0.37047 0.20863 0.78161 0.0
C1677 C 0.28098 0.14172 0.67431 0.0
C1678 C 0.27354 0.14877 0.70394 0.0
C1679 C 0.2993 0.15076 0.66571 0.0
C1680 C 0.31067 0.16731 0.68575 0.0
C1681 C 0.30315 0.17448 0.71468 0.0
C1682 C 0.28491 0.16535 0.72369 0.0
C1683 C 0.33039 0.1769 0.67785 0.0
C1684 C 0.3419 0.18317 0.7149 0.0
C1685 C 0.33796 0.17958 0.63445 0.0
C1686 C 0.32696 0.17465 0.59344 0.0
C1687 C 0.31536 0.18119 0.58597 0.0
C1688 C 0.30496 0.17643 0.54735 0.0
C1689 C 0.30613 0.16524 0.51576 0.0
C1690 C 0.31775 0.15882 0.52268 0.0
C1691 C 0.32817 0.16353 0.56127 0.0
H1692 H 0.29807 0.16157 0.48588 0.0
H1693 H 0.40084 0.21168 0.85768 0.0
H1694 H 0.89261 0.13933 0.66324 0.0
H1695 H 0.87794 0.15631 0.64747 0.0
H1696 H 0.84776 0.13688 0.76932 0.0
H1697 H 0.86151 0.11896 0.78389 0.0
H1698 H 0.82717 0.13814 0.71065 0.0
H1699 H 0.88592 0.18064 0.75622 0.0
H1700 H 0.91852 0.19626 0.75467 0.0
H1701 H 0.91838 0.21294 0.61947 0.0
H1702 H 0.88576 0.19722 0.62001 0.0
H1703 H 0.8006 0.20406 0.71903 0.0
H1704 H 0.81472 0.18643 0.73612 0.0
H1705 H 0.84024 0.19969 0.60711 0.0
H1706 H 0.82641 0.21742 0.59012 0.0
H1707 H 0.86315 0.20186 0.67109 0.0
H1708 H 0.80377 0.15888 0.6274 0.0
H1709 H 0.77123 0.14364 0.63151 0.0
H1710 H 0.77283 0.12853 0.7675 0.0
H1711 H 0.80543 0.1439 0.76438 0.0
C1712 C 0.88264 0.13833 0.68646 0.0
C1713 C 0.87849 0.12767 0.72518 0.0
C1714 C 0.8744 0.14838 0.67768 0.0
C1715 C 0.86192 0.14838 0.70764 0.0
C1716 C 0.85739 0.13738 0.74563 0.0
C1717 C 0.86549 0.1272 0.75421 0.0
C1718 C 0.85364 0.15979 0.6996 0.0
C1719 C 0.83515 0.15213 0.70265 0.0
C1720 C 0.86379 0.17808 0.68841 0.0
C1721 C 0.88339 0.18761 0.68802 0.0
C1722 C 0.89284 0.18754 0.72606 0.0
C1723 C 0.91132 0.19642 0.72537 0.0
C1724 C 0.92051 0.20555 0.68695 0.0
C1725 C 0.91124 0.20585 0.64918 0.0
C1726 C 0.89276 0.19696 0.64967 0.0
C1727 C 0.80931 0.20334 0.6944 0.0
C1728 C 0.81215 0.21211 0.65295 0.0
C1729 C 0.81731 0.1931 0.70408 0.0
C1730 C 0.82847 0.19145 0.67275 0.0
C1731 C 0.83167 0.20059 0.63191 0.0
C1732 C 0.82359 0.21066 0.62207 0.0
C1733 C 0.83675 0.18018 0.68209 0.0
C1734 C 0.85523 0.18788 0.67925 0.0
C1735 C 0.82662 0.16199 0.69393 0.0
C1736 C 0.80704 0.1527 0.6958 0.0
C1737 C 0.79719 0.15243 0.65829 0.0
C1738 C 0.77874 0.14375 0.66042 0.0
C1739 C 0.76997 0.13517 0.69978 0.0
C1740 C 0.77964 0.13521 0.73706 0.0
C1741 C 0.79811 0.14389 0.73512 0.0
H1742 H 0.75568 0.12845 0.70136 0.0
H1743 H 0.93482 0.21241 0.68649 0.0
H1744 H 0.87116 0.75079 0.66068 0.0
H1745 H 0.85615 0.71862 0.65006 0.0
H1746 H 0.89675 0.71631 0.72667 0.0
H1747 H 0.91209 0.7485 0.73625 0.0
H1748 H 0.88811 0.69441 0.65799 0.0
H1749 H 0.85537 0.70413 0.77171 0.0
H1750 H 0.83859 0.71703 0.80554 0.0
H1751 H 0.79954 0.69398 0.70182 0.0
H1752 H 0.81622 0.68114 0.66699 0.0
H1753 H 0.83937 0.6 0.69255 0.0
H1754 H 0.85517 0.63218 0.70609 0.0
H1755 H 0.81706 0.63717 0.62517 0.0
H1756 H 0.80121 0.6052 0.61204 0.0
H1757 H 0.82475 0.65756 0.69846 0.0
H1758 H 0.85808 0.64832 0.58427 0.0
H1759 H 0.87489 0.63527 0.55142 0.0
H1760 H 0.91287 0.65725 0.6578 0.0
H1761 H 0.89614 0.67023 0.69165 0.0
C1762 C 0.87708 0.74353 0.67477 0.0
C1763 C 0.89288 0.75244 0.69961 0.0
C1764 C 0.86833 0.725 0.6691 0.0
C1765 C 0.87506 0.71478 0.68818 0.0
C1766 C 0.89111 0.72371 0.71176 0.0
C1767 C 0.89984 0.74221 0.71752 0.0
C1768 C 0.86534 0.69484 0.68405 0.0
C1769 C 0.87432 0.68638 0.66747 0.0
C1770 C 0.84722 0.68414 0.69566 0.0
C1771 C 0.83714 0.69183 0.71648 0.0
C1772 C 0.84328 0.70193 0.75591 0.0
C1773 C 0.83377 0.70921 0.7753 0.0
C1774 C 0.81803 0.70637 0.75577 0.0
C1775 C 0.81175 0.6962 0.71686 0.0
C1776 C 0.82122 0.68891 0.6973 0.0
C1777 C 0.83427 0.60793 0.678 0.0
C1778 C 0.81908 0.59992 0.65076 0.0
C1779 C 0.8434 0.6264 0.68547 0.0
C1780 C 0.83752 0.63732 0.66619 0.0
C1781 C 0.82202 0.62921 0.64032 0.0
C1782 C 0.813 0.61085 0.63256 0.0
C1783 C 0.84749 0.65716 0.67219 0.0
C1784 C 0.83856 0.6656 0.68913 0.0
C1785 C 0.86566 0.66782 0.66107 0.0
C1786 C 0.87575 0.66007 0.64075 0.0
C1787 C 0.86994 0.65025 0.60086 0.0
C1788 C 0.87946 0.64289 0.58202 0.0
C1789 C 0.89491 0.64539 0.60258 0.0
C1790 C 0.90088 0.6553 0.64196 0.0
C1791 C 0.89139 0.66267 0.66097 0.0
H1792 H 0.90227 0.63968 0.58794 0.0
H1793 H 0.81069 0.71201 0.77084 0.0
H1794 H 0.09294 0.56434 0.9204 0.0
H1795 H 0.06134 0.54893 0.93615 0.0
H1796 H 0.07183 0.5458 0.07582 0.0
H1797 H 0.1036 0.56053 0.05987 0.0
H1798 H 0.04516 0.5153 0.05149 0.0
H1799 H 0.05809 0.5751 0.03328 0.0
H1800 H 0.06987 0.60415 0.99609 0.0
H1801 H 0.03549 0.57923 0.88404 0.0
H1802 H 0.02366 0.54998 0.9203 0.0
H1803 H 0.95802 0.48957 0.12679 0.0
H1804 H 0.98981 0.50586 0.11219 0.0
H1805 H 0.97981 0.50442 0.97061 0.0
H1806 H 0.94783 0.48826 0.98507 0.0
H1807 H 1.0061 0.53742 0.99683 0.0
H1808 H 0.99335 0.47747 0.0165 0.0
H1809 H 0.98146 0.44876 0.05546 0.0
H1810 H 1.01558 0.47466 0.16734 0.0
H1811 H 0.0275 0.50358 0.12929 0.0
C1812 C 0.08863 0.56033 0.95454 0.0
C1813 C 0.10107 0.56373 0.98874 0.0
C1814 C 0.07042 0.55165 0.96364 0.0
C1815 C 0.06395 0.54627 1.00738 0.0
C1816 C 0.07632 0.54978 0.04175 0.0
C1817 C 0.09459 0.55843 0.03263 0.0
C1818 C 0.04436 0.53658 0.01682 0.0
C1819 C 0.03672 0.52035 0.0401 0.0
C1820 C 0.03303 0.54276 1.00125 0.0
C1821 C 0.04011 0.56032 0.97933 0.0
C1822 C 0.05314 0.57579 1.00055 0.0
C1823 C 0.05981 0.5923 0.97967 0.0
C1824 C 0.05347 0.59353 0.93768 0.0
C1825 C 0.0404 0.57825 0.91654 0.0
C1826 C 0.0337 0.56171 0.93726 0.0
C1827 C 0.9625 0.4928 0.09248 0.0
C1828 C 0.95019 0.48758 0.05716 0.0
C1829 C 0.98078 0.50202 0.08414 0.0
C1830 C 0.98738 0.50635 0.04021 0.0
C1831 C 0.97516 0.50128 1.00483 0.0
C1832 C 0.95682 0.4919 1.01314 0.0
C1833 C 1.00698 0.5162 0.0314 0.0
C1834 C 1.01459 0.53244 1.00824 0.0
C1835 C 1.01829 0.51009 0.04734 0.0
C1836 C 1.01119 0.49272 0.07023 0.0
C1837 C 0.99822 0.47707 0.04957 0.0
C1838 C 0.99149 0.46075 0.07145 0.0
C1839 C 0.99773 0.45989 0.11389 0.0
C1840 C 1.01074 0.47535 0.13449 0.0
C1841 C 1.0175 0.49171 0.11276 0.0
H1842 H 0.99251 0.44725 0.13078 0.0
H1843 H 0.05865 0.60632 0.92157 0.0
H1844 H 0.45327 0.51756 0.93872 0.0
H1845 H 0.46784 0.50031 0.95264 0.0
H1846 H 0.50011 0.5377 0.05424 0.0
H1847 H 0.4853 0.55486 0.04088 0.0
H1848 H 0.49935 0.50629 0.94158 0.0
H1849 H 0.5136 0.51829 0.13146 0.0
H1850 H 0.50059 0.52357 0.19894 0.0
H1851 H 0.44924 0.49696 0.13778 0.0
H1852 H 0.4619 0.49133 0.0702 0.0
H1853 H 0.56122 0.47907 1.00383 0.0
H1854 H 0.54536 0.49518 0.99065 0.0
H1855 H 0.50197 0.45709 0.07152 0.0
H1856 H 0.5179 0.44113 0.08534 0.0
H1857 H 0.50738 0.48793 0.09277 0.0
H1858 H 0.50056 0.45898 0.95222 0.0
H1859 H 0.51025 0.45039 0.88387 0.0
H1860 H 0.54085 0.50509 0.84478 0.0
H1861 H 0.53153 0.51403 0.91323 0.0
C1862 C 0.46343 0.52212 0.96419 0.0
C1863 C 0.46803 0.53768 0.98866 0.0
C1864 C 0.47182 0.51221 0.9721 0.0
C1865 C 0.48514 0.5175 1.00472 0.0
C1866 C 0.4897 0.53299 0.02945 0.0
C1867 C 0.48117 0.54285 0.0218 0.0
C1868 C 0.49436 0.50697 1.01197 0.0
C1869 C 0.5011 0.50234 0.97474 0.0
C1870 C 0.49652 0.50139 0.05499 0.0
C1871 C 0.48875 0.50457 0.09561 0.0
C1872 C 0.49953 0.51352 0.13249 0.0
C1873 C 0.49222 0.51658 0.17074 0.0
C1874 C 0.47411 0.51066 0.17258 0.0
C1875 C 0.46327 0.5016 0.13624 0.0
C1876 C 0.47052 0.49849 0.09794 0.0
C1877 C 0.54818 0.47393 0.01825 0.0
C1878 C 0.54089 0.45869 0.0456 0.0
C1879 C 0.53907 0.48322 1.01074 0.0
C1880 C 0.52227 0.4774 0.02973 0.0
C1881 C 0.5149 0.46205 0.05657 0.0
C1882 C 0.52405 0.45286 0.0644 0.0
C1883 C 0.5125 0.4874 0.02242 0.0
C1884 C 0.50569 0.49194 0.05963 0.0
C1885 C 0.50988 0.49251 0.97928 0.0
C1886 C 0.51548 0.48718 0.93806 0.0
C1887 C 0.50946 0.46919 0.9292 0.0
C1888 C 0.51487 0.46425 0.89042 0.0
C1889 C 0.52619 0.47719 0.86006 0.0
C1890 C 0.5321 0.49508 0.86836 0.0
C1891 C 0.52675 0.50009 0.90712 0.0
H1892 H 0.53037 0.47334 0.83005 0.0
H1893 H 0.46848 0.51305 0.20221 0.0
H1894 H 0.53668 0.09003 0.03175 0.0
H1895 H 0.52152 0.05779 0.01991 0.0
H1896 H 0.57168 0.05952 0.02195 0.0
H1897 H 0.58686 0.09168 0.03462 0.0
H1898 H 0.54772 0.03815 0.95001 0.0
H1899 H 0.54838 0.04558 0.11061 0.0
H1900 H 0.54246 0.05689 0.18026 0.0
H1901 H 0.48698 0.02968 0.14995 0.0
H1902 H 0.49261 0.01842 0.07974 0.0
H1903 H 0.51761 0.94611 0.96311 0.0
H1904 H 0.53287 0.97821 0.97514 0.0
H1905 H 0.48376 0.97417 0.01761 0.0
H1906 H 0.46874 0.94195 1.00788 0.0
H1907 H 0.50713 0.99734 0.06618 0.0
H1908 H 0.50455 0.99001 0.90766 0.0
H1909 H 0.50869 0.97927 0.83483 0.0
H1910 H 0.56487 1.00666 0.85552 0.0
H1911 H 0.56104 0.01738 0.92877 0.0
C1912 C 0.5445 0.08357 0.02926 0.0
C1913 C 0.56301 0.09348 0.03415 0.0
C1914 C 0.5358 0.06511 0.02272 0.0
C1915 C 0.54542 0.05614 0.02018 0.0
C1916 C 0.56394 0.06608 0.02379 0.0
C1917 C 0.5726 0.08447 0.03119 0.0
C1918 C 0.5362 0.03638 1.01474 0.0
C1919 C 0.53899 0.0292 0.97561 0.0
C1920 C 0.52435 0.02465 0.04738 0.0
C1921 C 0.52094 0.03132 0.0897 0.0
C1922 C 0.53494 0.04214 0.1186 0.0
C1923 C 0.53163 0.04852 0.15822 0.0
C1924 C 0.51436 0.04405 0.16946 0.0
C1925 C 0.50035 0.03315 0.14116 0.0
C1926 C 0.50359 0.02676 0.10147 0.0
C1927 C 0.5101 0.95208 0.97521 0.0
C1928 C 0.49194 0.94142 0.98448 0.0
C1929 C 0.51881 0.97053 0.98174 0.0
C1930 C 0.50951 0.97897 0.99629 0.0
C1931 C 0.49139 0.96822 1.00631 0.0
C1932 C 0.48276 0.94972 1.00075 0.0
C1933 C 0.51857 0.99887 1.00118 0.0
C1934 C 0.51578 1.00616 0.0403 0.0
C1935 C 0.53012 1.01072 0.96797 0.0
C1936 C 0.53249 1.00435 0.9239 0.0
C1937 C 0.51778 0.99365 0.89681 0.0
C1938 C 0.52007 0.98758 0.85544 0.0
C1939 C 0.53703 0.99224 0.84062 0.0
C1940 C 0.55174 1.00303 0.86708 0.0
C1941 C 0.54952 1.00912 0.90851 0.0
H1942 H 0.53878 0.98753 0.80858 0.0
H1943 H 0.51183 0.049 0.20015 0.0
H1944 H 0.11771 0.14927 0.34094 0.0
H1945 H 0.12592 0.13335 0.39544 0.0
H1946 H 0.1243 0.16605 0.50145 0.0
H1947 H 0.11649 0.18197 0.44733 0.0
H1948 H 0.15294 0.16537 0.51179 0.0
H1949 H 0.09299 0.119 0.48751 0.0
H1950 H 0.06724 0.09773 0.44316 0.0
H1951 H 0.09649 0.07347 0.3953 0.0
H1952 H 0.1225 0.09475 0.43895 0.0
H1953 H 0.16624 0.12103 0.6972 0.0
H1954 H 0.15349 0.13303 0.64397 0.0
H1955 H 0.15531 0.09964 0.5402 0.0
H1956 H 0.16756 0.08739 0.59333 0.0
H1957 H 0.12651 0.10034 0.52809 0.0
H1958 H 0.18644 0.14676 0.55096 0.0
H1959 H 0.21231 0.16785 0.59528 0.0
H1960 H 0.18326 0.19206 0.64493 0.0
H1961 H 0.15714 0.17095 0.60133 0.0
C1962 C 0.11849 0.15263 0.37607 0.0
C1963 C 0.11608 0.1668 0.38951 0.0
C1964 C 0.12337 0.14358 0.40749 0.0
C1965 C 0.12588 0.14834 0.45338 0.0
C1966 C 0.1227 0.162 0.4667 0.0
C1967 C 0.11797 0.17103 0.43552 0.0
C1968 C 0.13263 0.13999 0.48734 0.0
C1969 C 0.14689 0.15111 0.51555 0.0
C1970 C 0.12535 0.12138 0.49237 0.0
C1971 C 0.10975 0.10859 0.46612 0.0
C1972 C 0.09398 0.10921 0.46725 0.0
C1973 C 0.07933 0.09714 0.44229 0.0
C1974 C 0.08025 0.08429 0.41632 0.0
C1975 C 0.09581 0.08345 0.41536 0.0
C1976 C 0.1105 0.09551 0.44023 0.0
C1977 C 0.16391 0.11617 0.66313 0.0
C1978 C 0.16825 0.10325 0.64997 0.0
C1979 C 0.15664 0.12317 0.6323 0.0
C1980 C 0.15359 0.11765 0.58704 0.0
C1981 C 0.15745 0.10437 0.57441 0.0
C1982 C 0.16461 0.09735 0.60514 0.0
C1983 C 0.14669 0.12573 0.55273 0.0
C1984 C 0.13249 0.11459 0.52437 0.0
C1985 C 0.15405 0.14434 0.54742 0.0
C1986 C 0.16979 0.15717 0.57323 0.0
C1987 C 0.18555 0.15652 0.57153 0.0
C1988 C 0.20025 0.16848 0.5965 0.0
C1989 C 0.19941 0.18125 0.623 0.0
C1990 C 0.18388 0.18213 0.62445 0.0
C1991 C 0.16913 0.17019 0.59959 0.0
H1992 H 0.21081 0.19049 0.64234 0.0
H1993 H 0.06889 0.07495 0.39703 0.0
H1994 H 0.89016 0.03439 0.69749 0.0
H1995 H 0.88424 0.01558 0.63205 0.0
H1996 H 0.92402 0.06026 0.55791 0.0
H1997 H 0.93 0.07939 0.6244 0.0
H1998 H 0.89412 0.04207 0.50768 0.0
H1999 H 0.92928 0.02441 0.59199 0.0
H2000 H 0.9383 1.01379 0.65785 0.0
H2001 H 0.88803 0.96561 0.65833 0.0
H2002 H 0.87858 0.97605 0.59294 0.0
H2003 H 0.88086 0.98853 0.31606 0.0
H2004 H 0.89444 1.00812 0.38046 0.0
H2005 H 0.86199 0.96482 0.46947 0.0
H2006 H 0.84913 0.94503 0.40468 0.0
H2007 H 0.89058 0.98345 0.51109 0.0
H2008 H 0.85377 1.00124 0.43486 0.0
H2009 H 0.84295 1.01109 0.37097 0.0
H2010 H 0.89392 0.05797 0.35779 0.0
H2011 H 0.9051 0.04828 0.42128 0.0
C2012 C 0.89801 0.04025 0.66763 0.0
C2013 C 0.91078 0.0585 0.66693 0.0
C2014 C 0.89457 0.02935 0.62985 0.0
C2015 C 0.90368 0.03618 0.58929 0.0
C2016 C 0.91674 0.05442 0.58848 0.0
C2017 C 0.92035 0.06539 0.62683 0.0
C2018 C 0.89881 0.02437 0.54791 0.0
C2019 C 0.89373 0.02942 0.50833 0.0
C2020 C 0.89753 1.0074 0.54831 0.0
C2021 C 0.90316 1.00111 0.58778 0.0
C2022 C 0.92008 1.01162 0.60638 0.0
C2023 C 0.92528 1.00562 0.64361 0.0
C2024 C 0.91373 0.98906 0.66235 0.0
C2025 C 0.89695 0.97845 0.64384 0.0
C2026 C 0.89167 0.9844 0.60668 0.0
C2027 C 0.87702 0.98304 0.34943 0.0
C2028 C 0.86418 0.96502 0.35491 0.0
C2029 C 0.88457 0.99441 0.38659 0.0
C2030 C 0.87905 0.9884 0.4308 0.0
C2031 C 0.86664 0.97014 0.4363 0.0
C2032 C 0.85932 0.95867 0.39903 0.0
C2033 C 0.88578 1.00109 0.47078 0.0
C2034 C 0.89111 0.99616 0.5102 0.0
C2035 C 0.88702 0.01805 0.47054 0.0
C2036 C 0.88032 0.02394 0.43249 0.0
C2037 C 0.8627 1.01359 0.41815 0.0
C2038 C 0.8565 0.01915 0.38204 0.0
C2039 C 0.86776 0.03512 0.36026 0.0
C2040 C 0.88522 0.04559 0.37464 0.0
C2041 C 0.8915 0.04007 0.4107 0.0
H2042 H 0.86293 0.0394 0.3323 0.0
H2043 H 0.91778 0.98443 0.69115 0.0
H2044 H 0.04784 0.90054 0.32543 0.0
H2045 H 0.02332 0.89244 0.3779 0.0
H2046 H 0.0597 0.90769 0.48864 0.0
H2047 H 0.08391 0.91491 0.43611 0.0
H2048 H 0.03354 0.87929 0.5124 0.0
H2049 H 0.03591 0.93109 0.44974 0.0
H2050 H 0.03619 0.95077 0.38995 0.0
H2051 H 0.98507 0.91 0.34565 0.0
H2052 H 0.98458 0.89 0.40486 0.0
H2053 H 0.96857 0.86607 0.67848 0.0
H2054 H 0.99426 0.87946 0.62827 0.0
H2055 H 0.95945 0.86302 0.51413 0.0
H2056 H 0.93391 0.85042 0.56407 0.0
H2057 H 0.98539 0.89316 0.49397 0.0
H2058 H 0.98402 0.84121 0.55735 0.0
H2059 H 0.98371 0.82275 0.62042 0.0
H2060 H 0.03362 0.86533 0.66595 0.0
H2061 H 0.03411 0.88412 0.60348 0.0
C2062 C 0.05071 0.90282 0.36085 0.0
C2063 C 0.06807 0.909 0.37622 0.0
C2064 C 0.03656 0.89805 0.39124 0.0
C2065 C 0.03931 0.89951 0.43813 0.0
C2066 C 0.05684 0.90627 0.45314 0.0
C2067 C 0.07086 0.91074 0.42285 0.0
C2068 C 0.02404 0.89318 0.4715 0.0
C2069 C 0.02321 0.88263 0.50841 0.0
C2070 C 1.01006 0.89699 0.46699 0.0
C2071 C 1.01029 0.909 0.43147 0.0
C2072 C 0.02478 0.92629 0.42707 0.0
C2073 C 0.02497 0.93751 0.39331 0.0
C2074 C 1.01067 0.93163 0.36395 0.0
C2075 C 0.99614 0.91453 0.36838 0.0
C2076 C 0.99589 0.90326 0.40205 0.0
C2077 C 0.96635 0.86537 0.6427 0.0
C2078 C 0.94894 0.85701 0.6258 0.0
C2079 C 0.98117 0.87295 0.61367 0.0
C2080 C 0.97915 0.87206 0.56658 0.0
C2081 C 0.96173 0.86402 0.5499 0.0
C2082 C 0.94697 0.85671 0.57883 0.0
C2083 C 0.99489 0.87924 0.53457 0.0
C2084 C 0.99577 0.88989 0.49791 0.0
C2085 C 1.00899 0.87564 0.53947 0.0
C2086 C 1.00903 0.86411 0.57596 0.0
C2087 C 0.99491 0.84663 0.58086 0.0
C2088 C 0.9947 0.83612 0.61652 0.0
C2089 C 1.00862 0.84288 0.64723 0.0
C2090 C 0.02284 0.86012 0.64217 0.0
C2091 C 0.0231 0.8707 0.60661 0.0
H2092 H 1.0084 0.83474 0.67492 0.0
H2093 H 1.01084 0.94033 0.33783 0.0
H2094 H 0.84416 0.81468 0.69783 0.0
H2095 H 0.83034 0.82446 0.64301 0.0
H2096 H 0.87837 0.87507 0.63321 0.0
H2097 H 0.89199 0.86591 0.69015 0.0
H2098 H 0.85039 0.87878 0.61625 0.0
H2099 H 0.87218 0.83987 0.56846 0.0
H2100 H 0.87363 0.81231 0.57099 0.0
H2101 H 0.81819 0.78178 0.5409 0.0
H2102 H 0.81639 0.80918 0.53883 0.0
H2103 H 0.86276 0.90425 0.39065 0.0
H2104 H 0.8639 0.89469 0.46675 0.0
H2105 H 0.81352 0.84711 0.44672 0.0
H2106 H 0.81259 0.85654 0.36989 0.0
H2107 H 0.83629 0.83971 0.48356 0.0
H2108 H 0.81801 0.8821 0.51351 0.0
H2109 H 0.81953 0.91106 0.50706 0.0
H2110 H 0.87107 0.93675 0.56717 0.0
H2111 H 0.87001 0.90799 0.57328 0.0
C2112 C 0.85169 0.8281 0.68535 0.0
C2113 C 0.86952 0.83923 0.69733 0.0
C2114 C 0.84372 0.83365 0.65377 0.0
C2115 C 0.85354 0.85025 0.63301 0.0
C2116 C 0.87063 0.86209 0.64837 0.0
C2117 C 0.87852 0.85668 0.68049 0.0
C2118 C 0.8473 0.85424 0.59099 0.0
C2119 C 0.84722 0.87025 0.5872 0.0
C2120 C 0.84299 0.84296 0.55332 0.0
C2121 C 0.8441 0.82652 0.55403 0.0
C2122 C 0.86029 0.82726 0.56264 0.0
C2123 C 0.86117 0.81168 0.56398 0.0
C2124 C 0.846 0.7953 0.55624 0.0
C2125 C 0.82992 0.79448 0.547 0.0
C2126 C 0.82896 0.81002 0.54574 0.0
C2127 C 0.8519 0.8918 0.40265 0.0
C2128 C 0.83759 0.88111 0.37462 0.0
C2129 C 0.85248 0.88642 0.44618 0.0
C2130 C 0.83857 0.8704 0.46275 0.0
C2131 C 0.82431 0.8596 0.43465 0.0
C2132 C 0.82384 0.86489 0.3908 0.0
C2133 C 0.83964 0.86444 0.50837 0.0
C2134 C 0.83886 0.84804 0.5128 0.0
C2135 C 0.84346 0.87555 0.54625 0.0
C2136 C 0.84394 0.89285 0.54369 0.0
C2137 C 0.8297 0.89392 0.52519 0.0
C2138 C 0.83049 0.91032 0.52157 0.0
C2139 C 0.8454 0.92574 0.53664 0.0
C2140 C 0.85953 0.92479 0.55552 0.0
C2141 C 0.85883 0.90844 0.55913 0.0
H2142 H 0.846 0.93842 0.53373 0.0
H2143 H 0.84671 0.78325 0.5573 0.0
H2144 H 0.1664 0.96061 0.3963 0.0
H2145 H 0.17218 0.97365 0.47138 0.0
H2146 H 0.13495 0.99162 0.44774 0.0
H2147 H 0.12916 0.97859 0.37265 0.0
H2148 H 0.16753 0.01718 0.48567 0.0
H2149 H 0.12146 0.95644 0.50672 0.0
H2150 H 0.10821 0.92403 0.49976 0.0
H2151 H 0.15079 0.92614 0.5764 0.0
H2152 H 0.16444 0.95863 0.58326 0.0
H2153 H 0.15758 0.04394 0.68927 0.0
H2154 H 0.14604 0.0219 0.63068 0.0
H2155 H 0.18516 1.0071 0.66096 0.0
H2156 H 0.19658 0.02883 0.72143 0.0
H2157 H 0.15216 0.97902 0.62097 0.0
H2158 H 0.19854 0.03964 0.59881 0.0
H2159 H 0.21217 0.0721 0.60512 0.0
H2160 H 0.17004 0.07038 0.52726 0.0
H2161 H 0.15579 0.03781 0.52202 0.0
C2162 C 0.15974 0.96765 0.40692 0.0
C2163 C 0.14739 0.96872 0.37897 0.0
C2164 C 0.16288 0.97486 0.4498 0.0
C2165 C 0.15379 0.98333 0.46492 0.0
C2166 C 0.14197 0.985 0.43647 0.0
C2167 C 0.13869 0.97762 0.39384 0.0
C2168 C 0.15661 0.99052 0.51048 0.0
C2169 C 0.16399 1.00884 0.51525 0.0
C2170 C 0.15237 0.97954 0.54875 0.0
C2171 C 0.14407 0.95999 0.5451 0.0
C2172 C 0.12808 0.95002 0.52177 0.0
C2173 C 0.12048 0.93163 0.51789 0.0
C2174 C 0.12868 0.92304 0.5375 0.0
C2175 C 0.14447 0.93282 0.56117 0.0
C2176 C 0.15213 0.95122 0.5651 0.0
C2177 C 0.16339 0.03562 0.68518 0.0
C2178 C 0.17865 0.03883 0.70883 0.0
C2179 C 0.15667 0.02292 0.65151 0.0
C2180 C 0.16517 1.0134 0.64083 0.0
C2181 C 0.17864 0.01459 0.66852 0.0
C2182 C 0.18532 0.02723 0.70257 0.0
C2183 C 0.16276 1.00564 0.59597 0.0
C2184 C 0.15564 0.98731 0.59133 0.0
C2185 C 0.16735 0.01661 0.55756 0.0
C2186 C 0.17596 0.03624 0.56058 0.0
C2187 C 0.19204 0.04614 0.58359 0.0
C2188 C 0.19989 0.06457 0.58696 0.0
C2189 C 0.19195 0.0733 0.56673 0.0
C2190 C 0.17614 0.0636 0.5431 0.0
C2191 C 0.16814 0.04515 0.54005 0.0
H2192 H 0.19806 0.08757 0.56928 0.0
H2193 H 0.12278 0.9088 0.53445 0.0
H2194 H 0.98433 0.13143 0.67268 0.0
H2195 H 1.00197 0.14482 0.6051 0.0
H2196 H 0.9799 0.17925 0.59369 0.0
H2197 H 0.96244 0.16605 0.66206 0.0
H2198 H 0.9791 0.15716 0.5123 0.0
H2199 H 1.01745 0.20021 0.61949 0.0
H2200 H 0.03372 0.21008 0.69077 0.0
H2201 H 0.06334 0.18456 0.65651 0.0
H2202 H 0.04704 0.1743 0.58531 0.0
H2203 H 0.03922 0.19666 0.32769 0.0
H2204 H 0.0209 0.19244 0.39333 0.0
H2205 H 0.04635 0.16788 0.46304 0.0
H2206 H 0.06538 0.17301 0.39932 0.0
H2207 H 0.0447 0.19106 0.51488 0.0
H2208 H 1.0041 0.14388 0.41668 0.0
H2209 H 0.98736 0.13161 0.34678 0.0
H2210 H 0.96167 0.16223 0.36485 0.0
H2211 H 0.97844 0.17486 0.43461 0.0
C2212 C 0.98336 0.14191 0.65578 0.0
C2213 C 0.97216 0.1478 0.67226 0.0
C2214 C 0.9934 0.14955 0.61748 0.0
C2215 C 0.99216 0.16298 0.59484 0.0
C2216 C 0.98098 0.16891 0.61106 0.0
C2217 C 0.97117 0.16149 0.65 0.0
C2218 C 1.00237 0.17033 0.55352 0.0
C2219 C 0.99344 0.16496 0.51255 0.0
C2220 C 0.021 0.18015 0.55449 0.0
C2221 C 0.03093 0.18639 0.59717 0.0
C2222 C 0.02732 0.19657 0.62732 0.0
C2223 C 0.03657 0.20226 0.66768 0.0
C2224 C 0.04953 0.19792 0.6782 0.0
C2225 C 0.05329 0.18791 0.64833 0.0
C2226 C 0.04407 0.18217 0.60793 0.0
C2227 C 0.04102 0.19046 0.35701 0.0
C2228 C 0.05392 0.18527 0.35794 0.0
C2229 C 0.0304 0.18792 0.39439 0.0
C2230 C 0.03227 0.17983 0.43298 0.0
C2231 C 0.04477 0.17425 0.43362 0.0
C2232 C 0.05552 0.17699 0.39668 0.0
C2233 C 0.02151 0.17732 0.47336 0.0
C2234 C 0.03035 0.18363 0.51427 0.0
C2235 C 1.0028 0.16812 0.47232 0.0
C2236 C 0.99268 0.16048 0.43051 0.0
C2237 C 0.99499 0.1481 0.40554 0.0
C2238 C 0.98548 0.14106 0.36599 0.0
C2239 C 0.97351 0.14619 0.3513 0.0
C2240 C 0.97098 0.15831 0.37621 0.0
C2241 C 0.98047 0.16541 0.41576 0.0
H2242 H 0.96616 0.14072 0.32067 0.0
H2243 H 0.05668 0.20234 0.70947 0.0
H2244 H 0.76915 0.49291 0.73585 0.0
H2245 H 0.77521 0.47841 0.79922 0.0
H2246 H 0.82243 0.48634 0.73274 0.0
H2247 H 0.81642 0.50044 0.67035 0.0
H2248 H 0.80732 0.45493 0.76945 0.0
H2249 H 0.82164 0.51355 0.82293 0.0
H2250 H 0.81426 0.53665 0.84197 0.0
H2251 H 0.77471 0.5011 0.93457 0.0
H2252 H 0.78175 0.47772 0.91571 0.0
H2253 H 0.86651 0.45607 0.92796 0.0
H2254 H 0.84962 0.46174 0.87296 0.0
H2255 H 0.80904 0.45008 0.97106 0.0
H2256 H 0.82652 0.44468 0.02769 0.0
H2257 H 0.81452 0.47869 0.92352 0.0
H2258 H 0.80226 0.42146 0.87891 0.0
H2259 H 0.8089 0.39774 0.86127 0.0
H2260 H 0.84248 0.42887 0.75302 0.0
H2261 H 0.83615 0.45285 0.77017 0.0
C2262 C 0.78064 0.49127 0.73448 0.0
C2263 C 0.79224 0.49795 0.69752 0.0
C2264 C 0.78426 0.48312 0.77112 0.0
C2265 C 0.79952 0.48132 0.77174 0.0
C2266 C 0.81061 0.48742 0.73395 0.0
C2267 C 0.80711 0.4956 0.69794 0.0
C2268 C 0.80453 0.47354 0.81111 0.0
C2269 C 0.80892 0.46025 0.80302 0.0
C2270 C 0.80614 0.47975 0.85587 0.0
C2271 C 0.80209 0.49385 0.86757 0.0
C2272 C 0.81131 0.51064 0.84717 0.0
C2273 C 0.8072 0.52378 0.85796 0.0
C2274 C 0.79399 0.52033 0.88937 0.0
C2275 C 0.78492 0.50374 0.9102 0.0
C2276 C 0.78897 0.49055 0.89951 0.0
C2277 C 0.85382 0.4543 0.9381 0.0
C2278 C 0.84793 0.4496 0.98268 0.0
C2279 C 0.84404 0.45758 0.90612 0.0
C2280 C 0.82771 0.45619 0.91681 0.0
C2281 C 0.82151 0.45123 0.96126 0.0
C2282 C 0.83142 0.44788 0.9937 0.0
C2283 C 0.81784 0.4605 0.8814 0.0
C2284 C 0.81262 0.47315 0.89014 0.0
C2285 C 0.81523 0.45354 0.83722 0.0
C2286 C 0.81877 0.43899 0.82596 0.0
C2287 C 0.81109 0.42327 0.85138 0.0
C2288 C 0.81478 0.40977 0.84143 0.0
C2289 C 0.82611 0.4118 0.80606 0.0
C2290 C 0.83369 0.4273 0.78038 0.0
C2291 C 0.83 0.44083 0.79011 0.0
H2292 H 0.82904 0.40138 0.79861 0.0
H2293 H 0.79081 0.53051 0.89764 0.0
H2294 H 0.58257 0.41429 0.94104 0.0
H2295 H 0.57528 0.39393 0.8774 0.0
H2296 H 0.56274 0.35087 0.96862 0.0
H2297 H 0.57018 0.37133 0.03212 0.0
H2298 H 0.57743 0.34603 0.89423 0.0
H2299 H 0.5303 0.35788 0.92156 0.0
H2300 H 0.51675 0.37658 0.93202 0.0
H2301 H 0.53305 0.39797 0.79977 0.0
H2302 H 0.54693 0.37958 0.78876 0.0
H2303 H 0.52398 0.27623 0.73411 0.0
H2304 H 0.53678 0.29621 0.79899 0.0
H2305 H 0.54494 0.34047 0.71721 0.0
H2306 H 0.53155 0.32057 0.6537 0.0
H2307 H 0.53253 0.34397 0.78937 0.0
H2308 H 0.57961 0.33187 0.76134 0.0
H2309 H 0.59392 0.31383 0.75197 0.0
H2310 H 0.57817 0.29305 0.8849 0.0
H2311 H 0.56349 0.31075 0.89481 0.0
C2312 C 0.57893 0.40064 0.94749 0.0
C2313 C 0.5776 0.39469 0.99196 0.0
C2314 C 0.57443 0.38883 0.91092 0.0
C2315 C 0.56811 0.37053 0.91746 0.0
C2316 C 0.56756 0.36477 0.96189 0.0
C2317 C 0.57201 0.37658 0.99845 0.0
C2318 C 0.56114 0.35737 0.87863 0.0
C2319 C 0.56747 0.3455 0.87161 0.0
C2320 C 0.54824 0.35651 0.84813 0.0
C2321 C 0.53981 0.36749 0.85452 0.0
C2322 C 0.5311 0.36666 0.89482 0.0
C2323 C 0.52335 0.3772 0.90084 0.0
C2324 C 0.52408 0.38849 0.86662 0.0
C2325 C 0.53252 0.38924 0.82627 0.0
C2326 C 0.54033 0.37875 0.82011 0.0
C2327 C 0.52894 0.2903 0.72971 0.0
C2328 C 0.5269 0.29672 0.6881 0.0
C2329 C 0.5363 0.30182 0.76707 0.0
C2330 C 0.54216 0.3202 0.76385 0.0
C2331 C 0.54058 0.32653 0.72168 0.0
C2332 C 0.53302 0.31506 0.68487 0.0
C2333 C 0.54907 0.33277 0.80402 0.0
C2334 C 0.54258 0.34449 0.81162 0.0
C2335 C 0.56183 0.33346 0.83489 0.0
C2336 C 0.57029 0.32251 0.82864 0.0
C2337 C 0.57904 0.32333 0.78842 0.0
C2338 C 0.58727 0.3132 0.78305 0.0
C2339 C 0.58698 0.30233 0.81784 0.0
C2340 C 0.57843 0.30153 0.85804 0.0
C2341 C 0.57013 0.31158 0.86351 0.0
H2342 H 0.59334 0.29448 0.81361 0.0
H2343 H 0.51807 0.39663 0.87134 0.0
H2344 H 0.62581 0.2175 0.96062 0.0
H2345 H 0.65076 0.23327 0.90761 0.0
H2346 H 0.66187 0.19041 0.91654 0.0
H2347 H 0.63739 0.17493 0.96849 0.0
H2348 H 0.69206 0.2203 0.91624 0.0
H2349 H 0.63859 0.19625 0.82635 0.0
H2350 H 0.61013 0.19333 0.8034 0.0
H2351 H 0.63602 0.24917 0.77532 0.0
H2352 H 0.66461 0.25244 0.79864 0.0
H2353 H 0.73485 0.21561 0.72692 0.0
H2354 H 0.7127 0.21149 0.78133 0.0
H2355 H 0.71886 0.26228 0.74664 0.0
H2356 H 0.7416 0.26664 0.69029 0.0
H2357 H 0.68234 0.23559 0.76296 0.0
H2358 H 0.73656 0.25876 0.84169 0.0
H2359 H 0.76508 0.26136 0.86191 0.0
H2360 H 0.73815 0.20797 0.91221 0.0
H2361 H 0.70944 0.20489 0.8913 0.0
C2362 C 0.63382 0.21166 0.9519 0.0
C2363 C 0.62955 0.19493 0.96944 0.0
C2364 C 0.64802 0.22059 0.92103 0.0
C2365 C 0.65838 0.21308 0.90714 0.0
C2366 C 0.65437 0.19671 0.92614 0.0
C2367 C 0.64024 0.18781 0.95622 0.0
C2368 C 0.67316 0.22162 0.8726 0.0
C2369 C 0.68981 0.2236 0.88279 0.0
C2370 C 0.67082 0.22662 0.82888 0.0
C2371 C 0.65368 0.22463 0.81474 0.0
C2372 C 0.63818 0.20793 0.8156 0.0
C2373 C 0.62203 0.2062 0.80247 0.0
C2374 C 0.62126 0.22106 0.78806 0.0
C2375 C 0.63664 0.23767 0.7866 0.0
C2376 C 0.65281 0.23947 0.79974 0.0
C2377 C 0.73172 0.22612 0.73027 0.0
C2378 C 0.74047 0.24165 0.70376 0.0
C2379 C 0.71885 0.22365 0.76194 0.0
C2380 C 0.71405 0.23659 0.76927 0.0
C2381 C 0.72225 0.252 0.74212 0.0
C2382 C 0.73534 0.25453 0.70982 0.0
C2383 C 0.70096 0.23372 0.80645 0.0
C2384 C 0.68468 0.23268 0.79672 0.0
C2385 C 0.70362 0.22966 0.85086 0.0
C2386 C 0.72082 0.23157 0.8647 0.0
C2387 C 0.73671 0.24753 0.85688 0.0
C2388 C 0.75292 0.24909 0.86846 0.0
C2389 C 0.75344 0.23483 0.88834 0.0
C2390 C 0.73773 0.21901 0.89681 0.0
C2391 C 0.72147 0.21735 0.88512 0.0
H2392 H 0.766 0.23603 0.89718 0.0
H2393 H 0.60874 0.2197 0.77791 0.0
H2394 H 0.52342 0.17331 0.06701 0.0
H2395 H 0.50721 0.18092 1.01296 0.0
H2396 H 0.55179 0.20154 0.92296 0.0
H2397 H 0.56779 0.19368 0.97551 0.0
H2398 H 0.5364 0.22228 0.92449 0.0
H2399 H 0.51947 0.1595 0.91345 0.0
H2400 H 0.5069 0.12922 0.94405 0.0
H2401 H 0.45803 0.12792 0.97198 0.0
H2402 H 0.47044 0.15831 0.94201 0.0
H2403 H 0.50668 0.19145 0.69663 0.0
H2404 H 0.50779 0.18306 0.77404 0.0
H2405 H 0.48931 0.21794 0.81959 0.0
H2406 H 0.48771 0.22606 0.74224 0.0
H2407 H 0.48557 0.17057 0.85214 0.0
H2408 H 0.5197 0.24377 0.89751 0.0
H2409 H 0.53437 0.27299 0.85986 0.0
H2410 H 0.55227 0.25202 0.75511 0.0
H2411 H 0.53795 0.22282 0.79246 0.0
C2412 C 0.52981 0.17954 0.03582 0.0
C2413 C 0.54689 0.1827 0.02556 0.0
C2414 C 0.52057 0.18399 1.00521 0.0
C2415 C 0.52833 0.19173 0.96409 0.0
C2416 C 0.54565 0.19573 0.95479 0.0
C2417 C 0.55482 0.19121 0.98506 0.0
C2418 C 0.51813 0.19414 0.9283 0.0
C2419 C 0.52498 0.21107 0.90938 0.0
C2420 C 0.50339 0.17945 0.90835 0.0
C2421 C 0.49594 0.16121 0.92609 0.0
C2422 C 0.50609 0.15279 0.92643 0.0
C2423 C 0.499 0.13562 0.9436 0.0
C2424 C 0.4817 0.12668 0.96009 0.0
C2425 C 0.47144 0.13488 0.95931 0.0
C2426 C 0.4785 0.15207 0.94225 0.0
C2427 C 0.50232 0.19691 0.72296 0.0
C2428 C 0.49759 0.20978 0.71347 0.0
C2429 C 0.50287 0.19204 0.76713 0.0
C2430 C 0.49878 0.20004 0.80227 0.0
C2431 C 0.4926 0.21174 0.79275 0.0
C2432 C 0.49198 0.21655 0.74862 0.0
C2433 C 0.50409 0.1986 0.84809 0.0
C2434 C 0.49639 0.18191 0.86862 0.0
C2435 C 0.51833 0.21342 0.86908 0.0
C2436 C 0.52757 0.23111 0.84745 0.0
C2437 C 0.52684 0.24545 0.86655 0.0
C2438 C 0.53507 0.26199 0.84525 0.0
C2439 C 0.54414 0.2643 0.80497 0.0
C2440 C 0.54517 0.25017 0.78617 0.0
C2441 C 0.537 0.23365 0.80738 0.0
H2442 H 0.55043 0.27705 0.78836 0.0
H2443 H 0.47622 0.11338 0.97336 0.0
H2444 H 0.88485 0.39108 1.01152 0.0
H2445 H 0.87301 0.37152 0.94629 0.0
H2446 H 0.81988 0.35426 0.99112 0.0
H2447 H 0.83176 0.37426 0.05585 0.0
H2448 H 0.8306 0.32697 0.95089 0.0
H2449 H 0.82771 0.38053 0.92684 0.0
H2450 H 0.83974 0.41288 0.92693 0.0
H2451 H 0.88059 0.41964 0.83549 0.0
H2452 H 0.86912 0.38736 0.83592 0.0
H2453 H 0.79066 0.2913 0.742 0.0
H2454 H 0.79737 0.30717 0.81271 0.0
H2455 H 0.85052 0.34289 0.76705 0.0
H2456 H 0.84366 0.32757 0.69511 0.0
H2457 H 0.83719 0.3603 0.81049 0.0
H2458 H 0.84028 0.30712 0.83313 0.0
H2459 H 0.82914 0.27492 0.83364 0.0
H2460 H 0.7889 0.26733 0.92821 0.0
H2461 H 0.79941 0.29939 0.92712 0.0
C2462 C 0.87068 0.38268 1.00804 0.0
C2463 C 0.85912 0.38403 0.0382 0.0
C2464 C 0.86396 0.37166 0.97087 0.0
C2465 C 0.84565 0.36171 0.96414 0.0
C2466 C 0.83405 0.36194 0.99609 0.0
C2467 C 0.84078 0.37327 0.03276 0.0
C2468 C 0.83883 0.35248 0.92155 0.0
C2469 C 0.83171 0.33411 0.92016 0.0
C2470 C 0.84068 0.36208 0.88186 0.0
C2471 C 0.84772 0.38153 0.88201 0.0
C2472 C 0.83945 0.38893 0.90741 0.0
C2473 C 0.84615 0.40726 0.9073 0.0
C2474 C 0.86096 0.41831 0.88137 0.0
C2475 C 0.86914 0.41107 0.85565 0.0
C2476 C 0.86257 0.39276 0.85589 0.0
C2477 C 0.80366 0.30275 0.74643 0.0
C2478 C 0.81668 0.30815 0.71288 0.0
C2479 C 0.80752 0.31167 0.78715 0.0
C2480 C 0.82451 0.32597 0.79524 0.0
C2481 C 0.83735 0.33178 0.7614 0.0
C2482 C 0.83347 0.32295 0.72052 0.0
C2483 C 0.82909 0.33465 0.83935 0.0
C2484 C 0.83584 0.35301 0.84112 0.0
C2485 C 0.82693 0.325 0.87935 0.0
C2486 C 0.82049 0.30566 0.87955 0.0
C2487 C 0.8289 0.29856 0.85355 0.0
C2488 C 0.82269 0.28032 0.85394 0.0
C2489 C 0.80824 0.26906 0.88071 0.0
C2490 C 0.80001 0.27603 0.90724 0.0
C2491 C 0.80605 0.29423 0.90666 0.0
H2492 H 0.80348 0.25495 0.88105 0.0
H2493 H 0.86604 0.43247 0.88092 0.0
H2494 H 0.64677 0.45873 0.99129 0.0
H2495 H 0.6733 0.47415 0.94559 0.0
H2496 H 0.68405 0.5242 1.00155 0.0
H2497 H 0.65788 0.50887 0.04884 0.0
H2498 H 0.6797 0.52162 0.90885 0.0
H2499 H 0.71378 0.51323 0.01841 0.0
H2500 H 0.72121 0.49729 0.07464 0.0
H2501 H 0.72065 0.46221 0.97295 0.0
H2502 H 0.7129 0.47772 0.91618 0.0
H2503 H 0.74101 0.55233 0.72731 0.0
H2504 H 0.73008 0.54992 0.80413 0.0
H2505 H 0.71389 0.49422 0.80526 0.0
H2506 H 0.72531 0.49682 0.72935 0.0
H2507 H 0.72804 0.50847 0.88266 0.0
H2508 H 0.68478 0.51 0.78192 0.0
H2509 H 0.67504 0.5236 0.72438 0.0
H2510 H 0.69069 0.56898 0.8087 0.0
H2511 H 0.7007 0.5557 0.86654 0.0
C2512 C 0.655 0.47293 0.99505 0.0
C2513 C 0.64994 0.48256 0.02314 0.0
C2514 C 0.67022 0.48173 0.96896 0.0
C2515 C 0.68058 0.50028 0.97043 0.0
C2516 C 0.67617 0.50987 1.00014 0.0
C2517 C 0.66106 0.50106 0.02664 0.0
C2518 C 0.69406 0.50954 0.93566 0.0
C2519 C 0.69064 0.51924 0.90373 0.0
C2520 C 0.70806 0.5061 0.92895 0.0
C2521 C 0.71268 0.49663 0.96299 0.0
C2522 C 0.71509 0.50203 1.00805 0.0
C2523 C 0.71939 0.49308 0.04004 0.0
C2524 C 0.72139 0.47874 0.02738 0.0
C2525 C 0.71911 0.47333 0.9827 0.0
C2526 C 0.71479 0.48222 0.95058 0.0
C2527 C 0.73502 0.53961 0.74411 0.0
C2528 C 0.73376 0.52469 0.72264 0.0
C2529 C 0.72891 0.53826 0.7879 0.0
C2530 C 0.7211 0.52187 0.81023 0.0
C2531 C 0.72002 0.50703 0.78878 0.0
C2532 C 0.72639 0.50846 0.74544 0.0
C2533 C 0.71298 0.51962 0.85483 0.0
C2534 C 0.71748 0.51135 0.88856 0.0
C2535 C 0.69969 0.52403 0.86295 0.0
C2536 C 0.6937 0.53199 0.82821 0.0
C2537 C 0.68626 0.52294 0.788 0.0
C2538 C 0.68067 0.53057 0.75538 0.0
C2539 C 0.68231 0.54717 0.76281 0.0
C2540 C 0.68948 0.55614 0.80294 0.0
C2541 C 0.69511 0.54858 0.83565 0.0
H2542 H 0.67797 0.55305 0.73752 0.0
H2543 H 0.72473 0.47183 0.0522 0.0
H2544 H 0.50205 0.76608 0.31019 0.0
H2545 H 0.48735 0.77205 0.24748 0.0
H2546 H 0.50175 0.8229 0.3048 0.0
H2547 H 0.51633 0.81708 0.36661 0.0
H2548 H 0.46864 0.80799 0.27363 0.0
H2549 H 0.52459 0.81775 0.21386 0.0
H2550 H 0.54622 0.80843 0.19484 0.0
H2551 H 0.50768 0.76679 0.11184 0.0
H2552 H 0.48575 0.77578 0.1307 0.0
H2553 H 0.4678 0.86251 0.10067 0.0
H2554 H 0.47397 0.84725 0.1601 0.0
H2555 H 0.4579 0.80208 0.07392 0.0
H2556 H 0.45178 0.81768 1.01339 0.0
H2557 H 0.48776 0.80882 0.11694 0.0
H2558 H 0.43298 0.80042 0.16734 0.0
H2559 H 0.41 0.8078 0.18677 0.0
H2560 H 0.4437 0.84373 0.28815 0.0
H2561 H 0.46704 0.83681 0.2688 0.0
C2562 C 0.50188 0.77842 0.30973 0.0
C2563 C 0.51049 0.79105 0.34392 0.0
C2564 C 0.49357 0.78195 0.27345 0.0
C2565 C 0.49345 0.79812 0.27047 0.0
C2566 C 0.50151 0.81035 0.30555 0.0
C2567 C 0.50995 0.80696 0.34119 0.0
C2568 C 0.48539 0.80277 0.23115 0.0
C2569 C 0.47297 0.80827 0.23947 0.0
C2570 C 0.49029 0.80258 0.18583 0.0
C2571 C 0.5035 0.79734 0.17399 0.0
C2572 C 0.52071 0.80655 0.19173 0.0
C2573 C 0.53302 0.80134 0.18095 0.0
C2574 C 0.52831 0.78701 0.1522 0.0
C2575 C 0.51129 0.77788 0.13411 0.0
C2576 C 0.49893 0.78305 0.14478 0.0
C2577 C 0.4651 0.84912 0.09446 0.0
C2578 C 0.4589 0.8413 0.05212 0.0
C2579 C 0.46871 0.84033 0.1288 0.0
C2580 C 0.46636 0.82326 0.12249 0.0
C2581 C 0.45985 0.81517 0.08034 0.0
C2582 C 0.45605 0.82401 0.04574 0.0
C2583 C 0.47136 0.81453 0.15963 0.0
C2584 C 0.48323 0.80834 0.15098 0.0
C2585 C 0.46575 0.81381 0.20471 0.0
C2586 C 0.45184 0.81818 0.21635 0.0
C2587 C 0.43558 0.81002 0.1935 0.0
C2588 C 0.42247 0.81411 0.20454 0.0
C2589 C 0.4254 0.82624 0.23862 0.0
C2590 C 0.44146 0.83434 0.26172 0.0
C2591 C 0.45463 0.83033 0.25075 0.0
H2592 H 0.41519 0.8293 0.24723 0.0
H2593 H 0.53787 0.78304 0.14381 0.0
H2594 H 0.23601 0.74463 0.29595 0.0
H2595 H 0.22952 0.7248 0.23187 0.0
H2596 H 0.25285 0.6981 0.30094 0.0
H2597 H 0.25972 0.71837 0.365 0.0
H2598 H 0.25912 0.6979 0.21249 0.0
H2599 H 0.20709 0.68115 0.29812 0.0
H2600 H 0.18457 0.68532 0.33721 0.0
H2601 H 0.17082 0.70053 0.21357 0.0
H2602 H 0.19345 0.6967 0.17382 0.0
H2603 H 0.2121 0.62075 0.0632 0.0
H2604 H 0.22434 0.64048 0.12894 0.0
H2605 H 0.20474 0.67351 0.07688 0.0
H2606 H 0.19278 0.65429 1.01233 0.0
H2607 H 0.19674 0.66824 0.16193 0.0
H2608 H 0.25007 0.68576 0.07722 0.0
H2609 H 0.27245 0.68099 0.03945 0.0
H2610 H 0.28313 0.6629 0.16296 0.0
H2611 H 0.26063 0.66735 0.20135 0.0
C2612 C 0.24037 0.73497 0.29692 0.0
C2613 C 0.2489 0.73356 0.33542 0.0
C2614 C 0.23635 0.72333 0.26031 0.0
C2615 C 0.24026 0.70944 0.26111 0.0
C2616 C 0.24958 0.70854 0.29877 0.0
C2617 C 0.2537 0.72032 0.33546 0.0
C2618 C 0.23367 0.69547 0.22409 0.0
C2619 C 0.24541 0.69128 0.20198 0.0
C2620 C 0.21578 0.68658 0.20939 0.0
C2621 C 0.20207 0.68879 0.23307 0.0
C2622 C 0.19934 0.68549 0.27931 0.0
C2623 C 0.18655 0.68779 0.30159 0.0
C2624 C 0.1763 0.69322 0.27791 0.0
C2625 C 0.17878 0.69634 0.23188 0.0
C2626 C 0.19158 0.6941 0.20945 0.0
C2627 C 0.21056 0.63231 0.06553 0.0
C2628 C 0.20132 0.63569 0.03172 0.0
C2629 C 0.21761 0.64369 0.10337 0.0
C2630 C 0.21559 0.65876 0.10866 0.0
C2631 C 0.20653 0.6621 0.0746 0.0
C2632 C 0.19967 0.65093 0.03712 0.0
C2633 C 0.22225 0.67098 0.14941 0.0
C2634 C 0.21046 0.67481 0.17244 0.0
C2635 C 0.24002 0.67936 0.16501 0.0
C2636 C 0.25352 0.67669 0.14202 0.0
C2637 C 0.25708 0.68062 0.09623 0.0
C2638 C 0.26981 0.678 0.07473 0.0
C2639 C 0.27917 0.67159 0.09875 0.0
C2640 C 0.27585 0.66783 0.14437 0.0
C2641 C 0.26311 0.67041 0.16602 0.0
H2642 H 0.28902 0.66958 0.08205 0.0
H2643 H 0.1664 0.69499 0.29522 0.0
H2644 H 0.28038 0.51479 0.25509 0.0
H2645 H 0.30448 0.5303 0.20164 0.0
H2646 H 0.34105 0.55504 0.31051 0.0
H2647 H 0.31658 0.53965 0.36455 0.0
H2648 H 0.35141 0.57794 0.24099 0.0
H2649 H 0.3362 0.51726 0.25429 0.0
H2650 H 0.31647 0.48481 0.25457 0.0
H2651 H 0.30267 0.48653 0.11749 0.0
H2652 H 0.32212 0.51905 0.11659 0.0
H2653 H 0.42853 0.59776 0.11385 0.0
H2654 H 0.40416 0.58657 0.16701 0.0
H2655 H 0.36703 0.56123 0.05956 0.0
H2656 H 0.39164 0.57249 1.00567 0.0
H2657 H 0.35713 0.53913 0.12881 0.0
H2658 H 0.37312 0.60021 0.11578 0.0
H2659 H 0.39375 0.6325 0.11588 0.0
H2660 H 0.40702 0.62993 0.25296 0.0
H2661 H 0.38661 0.59757 0.25353 0.0
C2662 C 0.29345 0.52392 0.26787 0.0
C2663 C 0.29631 0.52602 0.31451 0.0
C2664 C 0.3074 0.53267 0.23701 0.0
C2665 C 0.32497 0.54363 0.25135 0.0
C2666 C 0.32777 0.54664 0.29795 0.0
C2667 C 0.31367 0.53794 0.32908 0.0
C2668 C 0.34021 0.55106 0.21776 0.0
C2669 C 0.35271 0.56935 0.21692 0.0
C2670 C 0.34211 0.54017 0.1852 0.0
C2671 C 0.33049 0.52061 0.18551 0.0
C2672 C 0.32887 0.51073 0.22429 0.0
C2673 C 0.31774 0.49233 0.22456 0.0
C2674 C 0.30829 0.48362 0.18611 0.0
C2675 C 0.30998 0.4933 0.14727 0.0
C2676 C 0.32106 0.51172 0.14685 0.0
C2677 C 0.41522 0.59004 0.101 0.0
C2678 C 0.41232 0.58632 0.05474 0.0
C2679 C 0.40112 0.58358 0.13187 0.0
C2680 C 0.38341 0.57314 0.11798 0.0
C2681 C 0.38042 0.56926 0.07179 0.0
C2682 C 0.3946 0.57578 0.0407 0.0
C2683 C 0.36825 0.56603 0.15173 0.0
C2684 C 0.35579 0.54776 0.15271 0.0
C2685 C 0.36647 0.57693 0.18447 0.0
C2686 C 0.37843 0.59644 0.18458 0.0
C2687 C 0.38049 0.60652 0.1459 0.0
C2688 C 0.39213 0.62483 0.14585 0.0
C2689 C 0.40172 0.63325 0.18437 0.0
C2690 C 0.3996 0.62338 0.22312 0.0
C2691 C 0.38797 0.60506 0.22336 0.0
H2692 H 0.41078 0.64743 0.18419 0.0
H2693 H 0.29969 0.46937 0.18637 0.0
H2694 H 0.23494 0.53505 0.37417 0.0
H2695 H 0.21891 0.54354 0.32205 0.0
H2696 H 0.1733 0.49105 0.33192 0.0
H2697 H 0.18938 0.48237 0.38314 0.0
H2698 H 0.18463 0.5005 0.24694 0.0
H2699 H 0.1704 0.52551 0.36978 0.0
H2700 H 0.17631 0.54328 0.43843 0.0
H2701 H 0.21102 0.59064 0.36532 0.0
H2702 H 0.20559 0.57313 0.29634 0.0
H2703 H 0.14872 0.52561 0.07139 0.0
H2704 H 0.14992 0.51589 0.14758 0.0
H2705 H 0.19807 0.56539 0.17153 0.0
H2706 H 0.19661 0.57527 0.0959 0.0
H2707 H 0.17859 0.5542 0.24648 0.0
H2708 H 0.19907 0.52894 0.13237 0.0
H2709 H 0.19602 0.51191 0.06373 0.0
H2710 H 0.15195 0.46578 0.12158 0.0
H2711 H 0.15461 0.48264 0.19037 0.0
C2712 C 0.22144 0.5254 0.36556 0.0
C2713 C 0.21349 0.50801 0.38226 0.0
C2714 C 0.21222 0.53032 0.33632 0.0
C2715 C 0.19489 0.51792 0.32348 0.0
C2716 C 0.18662 0.50081 0.34176 0.0
C2717 C 0.19582 0.4959 0.37109 0.0
C2718 C 0.1865 0.5221 0.28627 0.0
C2719 C 0.18279 0.51194 0.24725 0.0
C2720 C 0.18458 0.53728 0.28659 0.0
C2721 C 0.18764 0.54796 0.32784 0.0
C2722 C 0.17938 0.5397 0.36835 0.0
C2723 C 0.18265 0.54973 0.40735 0.0
C2724 C 0.19405 0.56807 0.40625 0.0
C2725 C 0.20218 0.57643 0.36611 0.0
C2726 C 0.19899 0.56646 0.32702 0.0
C2727 C 0.15943 0.53443 0.09318 0.0
C2728 C 0.17275 0.55103 0.07774 0.0
C2729 C 0.16005 0.52894 0.13666 0.0
C2730 C 0.17424 0.53981 0.16486 0.0
C2731 C 0.18698 0.55682 0.15032 0.0
C2732 C 0.1862 0.56241 0.1071 0.0
C2733 C 0.17713 0.53279 0.20706 0.0
C2734 C 0.17988 0.54245 0.24678 0.0
C2735 C 0.17845 0.51725 0.20744 0.0
C2736 C 0.17689 0.5071 0.16621 0.0
C2737 C 0.18865 0.5152 0.13029 0.0
C2738 C 0.18701 0.50558 0.0914 0.0
C2739 C 0.17376 0.48779 0.08823 0.0
C2740 C 0.16217 0.47958 0.12403 0.0
C2741 C 0.16374 0.48915 0.16297 0.0
H2742 H 0.17251 0.48036 0.0581 0.0
H2743 H 0.19658 0.57581 0.4365 0.0
H2744 H 0.53787 0.716 0.29194 0.0
H2745 H 0.53237 0.70806 0.21246 0.0
H2746 H 0.49787 0.73012 0.20557 0.0
H2747 H 0.50335 0.73808 0.28487 0.0
H2748 H 0.48331 0.69468 0.17428 0.0
H2749 H 0.53323 0.7514 0.15131 0.0
H2750 H 0.56338 0.7763 0.16443 0.0
H2751 H 0.58508 0.74379 0.1242 0.0
H2752 H 0.55505 0.71858 0.1116 0.0
H2753 H 0.46867 0.65651 0.96242 0.0
H2754 H 0.47808 0.68275 1.00932 0.0
H2755 H 0.52119 0.67706 0.06016 0.0
H2756 H 0.51183 0.6509 1.01404 0.0
H2757 H 0.52975 0.71193 0.05806 0.0
H2758 H 0.48184 0.6547 0.1101 0.0
H2759 H 0.45258 0.62781 0.10428 0.0
H2760 H 0.42799 0.65981 0.0954 0.0
H2761 H 0.45728 0.68699 0.10085 0.0
C2762 C 0.52912 0.71911 0.27336 0.0
C2763 C 0.521 0.72758 0.29427 0.0
C2764 C 0.52618 0.71481 0.22804 0.0
C2765 C 0.51494 0.71879 0.20331 0.0
C2766 C 0.50675 0.72718 0.22414 0.0
C2767 C 0.50988 0.73168 0.26926 0.0
C2768 C 0.51052 0.71256 0.15685 0.0
C2769 C 0.49329 0.69885 0.14824 0.0
C2770 C 0.52369 0.71792 0.1235 0.0
C2771 C 0.54184 0.73307 0.13065 0.0
C2772 C 0.54442 0.74952 0.14554 0.0
C2773 C 0.5615 0.7637 0.15284 0.0
C2774 C 0.57614 0.76163 0.14516 0.0
C2775 C 0.57372 0.74537 0.1301 0.0
C2776 C 0.55667 0.73114 0.1228 0.0
C2777 C 0.48034 0.66106 0.98301 0.0
C2778 C 0.48921 0.65135 0.98561 0.0
C2779 C 0.48579 0.67614 1.00935 0.0
C2780 C 0.50011 0.68159 0.03869 0.0
C2781 C 0.5101 0.67306 0.03766 0.0
C2782 C 0.50469 0.65803 1.01134 0.0
C2783 C 0.50273 0.69362 0.07626 0.0
C2784 C 0.51959 0.70835 0.08333 0.0
C2785 C 0.48931 0.68905 0.10872 0.0
C2786 C 0.47172 0.67283 0.10513 0.0
C2787 C 0.4702 0.65599 0.1065 0.0
C2788 C 0.45361 0.6407 0.10332 0.0
C2789 C 0.4384 0.64206 0.09915 0.0
C2790 C 0.43978 0.65876 0.0984 0.0
C2791 C 0.45638 0.67412 0.10154 0.0
H2792 H 0.42556 0.63019 0.09668 0.0
H2793 H 0.58935 0.77262 0.15084 0.0
H2794 H 0.30463 0.84231 0.34058 0.0
H2795 H 0.32621 0.85587 0.2799 0.0
H2796 H 0.34422 0.81859 0.30331 0.0
H2797 H 0.32276 0.80509 0.36416 0.0
H2798 H 0.37176 0.85466 0.28192 0.0
H2799 H 0.31392 0.80737 0.23063 0.0
H2800 H 0.28154 0.79352 0.22363 0.0
H2801 H 0.28782 0.8402 0.15784 0.0
H2802 H 0.32025 0.85442 0.16509 0.0
H2803 H 0.40753 0.8458 0.08098 0.0
H2804 H 0.39049 0.8409 0.14897 0.0
H2805 H 0.3667 0.86967 0.09277 0.0
H2806 H 0.38266 0.87351 0.02327 0.0
H2807 H 0.34296 0.84216 0.13279 0.0
H2808 H 0.40045 0.88808 0.17193 0.0
H2809 H 0.43287 0.90333 0.1796 0.0
H2810 H 0.42823 0.86262 0.26904 0.0
H2811 H 0.39578 0.84682 0.26096 0.0
C2812 C 0.31349 0.83732 0.33339 0.0
C2813 C 0.31195 0.82254 0.3564 0.0
C2814 C 0.32574 0.84503 0.29887 0.0
C2815 C 0.33662 0.83809 0.28729 0.0
C2816 C 0.33589 0.82408 0.31204 0.0
C2817 C 0.32354 0.81627 0.34627 0.0
C2818 C 0.34717 0.84386 0.24611 0.0
C2819 C 0.36559 0.85194 0.24918 0.0
C2820 C 0.33894 0.84069 0.20381 0.0
C2821 C 0.31947 0.83202 0.19884 0.0
C2822 C 0.30838 0.81472 0.21497 0.0
C2823 C 0.29003 0.8068 0.21092 0.0
C2824 C 0.28262 0.816 0.19042 0.0
C2825 C 0.29357 0.83311 0.17378 0.0
C2826 C 0.31193 0.8411 0.17784 0.0
C2827 C 0.39849 0.85086 0.08252 0.0
C2828 C 0.39663 0.8602 0.04647 0.0
C2829 C 0.38896 0.8483 0.12186 0.0
C2830 C 0.37771 0.85534 0.1263 0.0
C2831 C 0.3755 0.86431 0.09018 0.0
C2832 C 0.38477 0.86661 0.05054 0.0
C2833 C 0.36776 0.85281 0.16813 0.0
C2834 C 0.34935 0.84525 0.16529 0.0
C2835 C 0.37609 0.85675 0.21057 0.0
C2836 C 0.39565 0.86617 0.21551 0.0
C2837 C 0.40633 0.88226 0.19288 0.0
C2838 C 0.42473 0.891 0.19728 0.0
C2839 C 0.43261 0.88389 0.22461 0.0
C2840 C 0.4221 0.86805 0.24768 0.0
C2841 C 0.4037 0.85919 0.2432 0.0
H2842 H 0.44685 0.89069 0.22805 0.0
H2843 H 0.26841 0.80985 0.18733 0.0
loop_
_geom_bond_atom_site_label_1
_geom_bond_atom_site_label_2
_geom_bond_distance
_geom_bond_site_symmetry_2
_ccdc_geom_bond_type
C0 C1 1.351 . S
C0 N3 1.368 . S
C0 H5 0.931 . S
C1 C0 1.351 . S
C1 N2 1.373 . S
C1 H29 0.930 . S
N2 C1 1.373 . S
N2 C4 1.340 . S
N3 C0 1.368 . S
N3 C4 1.321 . S
N3 Co6 2.135 . S
C4 N2 1.340 . S
C4 N3 1.321 . S
C4 H28 0.930 . S
H5 C0 0.931 . S
Co6 N3 2.135 . S
Co6 N9 2.121 . S
Co6 O14 2.055 . S
Co6 O17 2.039 . S
Co6 N20 2.140 . S
C7 O8 1.227 . S
C7 O17 1.265 . S
O8 C7 1.227 . S
N9 Co6 2.121 . S
N9 C11 1.375 . S
N9 C12 1.313 . S
C10 C11 1.338 . S
C10 N13 1.377 . S
C10 H30 0.930 . S
C11 N9 1.375 . S
C11 C10 1.338 . S
C11 H15 0.931 . S
C12 N9 1.313 . S
C12 N13 1.344 . S
C12 H16 0.930 . S
N13 C10 1.377 . S
N13 C12 1.344 . S
O14 Co6 2.055 . S
O14 C18 1.253 . S
H15 C11 0.931 . S
H16 C12 0.930 . S
O17 Co6 2.039 . S
O17 C7 1.265 . S
C18 O14 1.253 . S
C18 O19 1.227 . S
O19 C18 1.227 . S
N20 Co6 2.140 . S
N20 C23 1.346 . S
N20 C24 1.345 . S
C21 C22 1.387 . S
C21 C25 1.391 . S
C22 C21 1.387 . S
C22 C23 1.369 . S
C22 H31 0.929 . S
C23 N20 1.346 . S
C23 C22 1.369 . S
C23 H26 0.928 . S
C24 N20 1.345 . S
C24 C25 1.371 . S
C24 H27 0.931 . S
C25 C21 1.391 . S
C25 C24 1.371 . S
C25 H32 0.930 . S
H26 C23 0.928 . S
H27 C24 0.931 . S
H28 C4 0.930 . S
H29 C1 0.930 . S
H30 C10 0.930 . S
H31 C22 0.929 . S
H32 C25 0.930 . S
C33 C34 1.351 . S
C33 N36 1.368 . S
C33 H38 0.931 . S
C34 C33 1.351 . S
C34 N35 1.373 . S
C34 H62 0.930 . S
N35 C34 1.373 . S
N35 C37 1.340 . S
N36 C33 1.368 . S
N36 C37 1.321 . S
N36 Co39 2.135 . S
C37 N35 1.340 . S
C37 N36 1.321 . S
C37 H61 0.930 . S
H38 C33 0.931 . S
Co39 N36 2.135 . S
Co39 N42 2.121 . S
Co39 O47 2.055 . S
Co39 O50 2.039 . S
Co39 N53 2.140 . S
C40 O41 1.227 . S
C40 O50 1.265 . S
O41 C40 1.227 . S
N42 Co39 2.121 . S
N42 C44 1.375 . S
N42 C45 1.313 . S
C43 C44 1.338 . S
C43 N46 1.377 . S
C43 H63 0.930 . S
C44 N42 1.375 . S
C44 C43 1.338 . S
C44 H48 0.931 . S
C45 N42 1.313 . S
C45 N46 1.344 . S
C45 H49 0.930 . S
N46 C43 1.377 . S
N46 C45 1.344 . S
O47 Co39 2.055 . S
O47 C51 1.253 . S
H48 C44 0.931 . S
H49 C45 0.930 . S
O50 Co39 2.039 . S
O50 C40 1.265 . S
C51 O47 1.253 . S
C51 O52 1.227 . S
O52 C51 1.227 . S
N53 Co39 2.140 . S
N53 C56 1.346 . S
N53 C57 1.345 . S
C54 C55 1.387 . S
C54 C58 1.391 . S
C55 C54 1.387 . S
C55 C56 1.369 . S
C55 H64 0.929 . S
C56 N53 1.346 . S
C56 C55 1.369 . S
C56 H59 0.928 . S
C57 N53 1.345 . S
C57 C58 1.371 . S
C57 H60 0.931 . S
C58 C54 1.391 . S
C58 C57 1.371 . S
C58 H65 0.930 . S
H59 C56 0.928 . S
H60 C57 0.931 . S
H61 C37 0.930 . S
H62 C34 0.930 . S
H63 C43 0.930 . S
H64 C55 0.929 . S
H65 C58 0.930 . S
C66 C67 1.351 . S
C66 N69 1.368 . S
C66 H71 0.931 . S
C67 C66 1.351 . S
C67 N68 1.373 . S
C67 H95 0.930 . S
N68 C67 1.373 . S
N68 C70 1.340 . S
N69 C66 1.368 . S
N69 C70 1.321 . S
N69 Co72 2.135 . S
C70 N68 1.340 . S
C70 N69 1.321 . S
C70 H94 0.930 . S
H71 C66 0.931 . S
Co72 N69 2.135 . S
Co72 N75 2.121 . S
Co72 O80 2.055 . S
Co72 O83 2.039 . S
Co72 N86 2.140 . S
C73 O74 1.227 . S
C73 O83 1.265 . S
O74 C73 1.227 . S
N75 Co72 2.121 . S
N75 C77 1.375 . S
N75 C78 1.313 . S
C76 C77 1.338 . S
C76 N79 1.377 . S
C76 H96 0.930 . S
C77 N75 1.375 . S
C77 C76 1.338 . S
C77 H81 0.931 . S
C78 N75 1.313 . S
C78 N79 1.344 . S
C78 H82 0.930 . S
N79 C76 1.377 . S
N79 C78 1.344 . S
O80 Co72 2.055 . S
O80 C84 1.253 . S
H81 C77 0.931 . S
H82 C78 0.930 . S
O83 Co72 2.039 . S
O83 C73 1.265 . S
C84 O80 1.253 . S
C84 O85 1.227 . S
O85 C84 1.227 . S
N86 Co72 2.140 . S
N86 C89 1.346 . S
N86 C90 1.345 . S
C87 C88 1.387 . S
C87 C91 1.391 . S
C88 C87 1.387 . S
C88 C89 1.369 . S
C88 H97 0.929 . S
C89 N86 1.346 . S
C89 C88 1.369 . S
C89 H92 0.928 . S
C90 N86 1.345 . S
C90 C91 1.371 . S
C90 H93 0.931 . S
C91 C87 1.391 . S
C91 C90 1.371 . S
C91 H98 0.930 . S
H92 C89 0.928 . S
H93 C90 0.931 . S
H94 C70 0.930 . S
H95 C67 0.930 . S
H96 C76 0.930 . S
H97 C88 0.929 . S
H98 C91 0.930 . S
C99 C100 1.351 . S
C99 N102 1.368 . S
C99 H104 0.931 . S
C100 C99 1.351 . S
C100 N101 1.373 . S
C100 H128 0.930 . S
N101 C100 1.373 . S
N101 C103 1.340 . S
N102 C99 1.368 . S
N102 C103 1.321 . S
N102 Co105 2.135 . S
C103 N101 1.340 . S
C103 N102 1.321 . S
C103 H127 0.930 . S
H104 C99 0.931 . S
Co105 N102 2.135 . S
Co105 N108 2.121 . S
Co105 O113 2.055 . S
Co105 O116 2.039 . S
Co105 N119 2.140 . S
C106 O107 1.227 . S
C106 O116 1.265 . S
O107 C106 1.227 . S
N108 Co105 2.121 . S
N108 C110 1.375 . S
N108 C111 1.313 . S
C109 C110 1.338 . S
C109 N112 1.377 . S
C109 H129 0.930 . S
C110 N108 1.375 . S
C110 C109 1.338 . S
C110 H114 0.931 . S
C111 N108 1.313 . S
C111 N112 1.344 . S
C111 H115 0.930 . S
N112 C109 1.377 . S
N112 C111 1.344 . S
O113 Co105 2.055 . S
O113 C117 1.253 . S
H114 C110 0.931 . S
H115 C111 0.930 . S
O116 Co105 2.039 . S
O116 C106 1.265 . S
C117 O113 1.253 . S
C117 O118 1.227 . S
O118 C117 1.227 . S
N119 Co105 2.140 . S
N119 C122 1.346 . S
N119 C123 1.345 . S
C120 C121 1.387 . S
C120 C124 1.391 . S
C121 C120 1.387 . S
C121 C122 1.369 . S
C121 H130 0.929 . S
C122 N119 1.346 . S
C122 C121 1.369 . S
C122 H125 0.928 . S
C123 N119 1.345 . S
C123 C124 1.371 . S
C123 H126 0.931 . S
C124 C120 1.391 . S
C124 C123 1.371 . S
C124 H131 0.930 . S
H125 C122 0.928 . S
H126 C123 0.931 . S
H127 C103 0.930 . S
H128 C100 0.930 . S
H129 C109 0.930 . S
H130 C121 0.929 . S
H131 C124 0.930 . S
C132 C133 1.351 . S
C132 N135 1.368 . S
C132 H137 0.931 . S
C133 C132 1.351 . S
C133 N134 1.373 . S
C133 H161 0.930 . S
N134 C133 1.373 . S
N134 C136 1.340 . S
N135 C132 1.368 . S
N135 C136 1.321 . S
N135 Co138 2.135 . S
C136 N134 1.340 . S
C136 N135 1.321 . S
C136 H160 0.930 . S
H137 C132 0.931 . S
Co138 N135 2.135 . S
Co138 N141 2.121 . S
Co138 O146 2.055 . S
Co138 O149 2.039 . S
Co138 N152 2.140 . S
C139 O140 1.227 . S
C139 O149 1.265 . S
O140 C139 1.227 . S
N141 Co138 2.121 . S
N141 C143 1.375 . S
N141 C144 1.313 . S
C142 C143 1.338 . S
C142 N145 1.377 . S
C142 H162 0.930 . S
C143 N141 1.375 . S
C143 C142 1.338 . S
C143 H147 0.931 . S
C144 N141 1.313 . S
C144 N145 1.344 . S
C144 H148 0.930 . S
N145 C142 1.377 . S
N145 C144 1.344 . S
O146 Co138 2.055 . S
O146 C150 1.253 . S
H147 C143 0.931 . S
H148 C144 0.930 . S
O149 Co138 2.039 . S
O149 C139 1.265 . S
C150 O146 1.253 . S
C150 O151 1.227 . S
O151 C150 1.227 . S
N152 Co138 2.140 . S
N152 C155 1.346 . S
N152 C156 1.345 . S
C153 C154 1.387 . S
C153 C157 1.391 . S
C154 C153 1.387 . S
C154 C155 1.369 . S
C154 H163 0.929 . S
C155 N152 1.346 . S
C155 C154 1.369 . S
C155 H158 0.928 . S
C156 N152 1.345 . S
C156 C157 1.371 . S
C156 H159 0.931 . S
C157 C153 1.391 . S
C157 C156 1.371 . S
C157 H164 0.930 . S
H158 C155 0.928 . S
H159 C156 0.931 . S
H160 C136 0.930 . S
H161 C133 0.930 . S
H162 C142 0.930 . S
H163 C154 0.929 . S
H164 C157 0.930 . S
C165 C166 1.351 . S
C165 N168 1.368 . S
C165 H170 0.931 . S
C166 C165 1.351 . S
C166 N167 1.373 . S
C166 H194 0.930 . S
N167 C166 1.373 . S
N167 C169 1.340 . S
N168 C165 1.368 . S
N168 C169 1.321 . S
N168 Co171 2.135 . S
C169 N167 1.340 . S
C169 N168 1.321 . S
C169 H193 0.930 . S
H170 C165 0.931 . S
Co171 N168 2.135 . S
Co171 N174 2.121 . S
Co171 O179 2.055 . S
Co171 O182 2.039 . S
Co171 N185 2.140 . S
C172 O173 1.227 . S
C172 O182 1.265 . S
O173 C172 1.227 . S
N174 Co171 2.121 . S
N174 C176 1.375 . S
N174 C177 1.313 . S
C175 C176 1.338 . S
C175 N178 1.377 . S
C175 H195 0.930 . S
C176 N174 1.375 . S
C176 C175 1.338 . S
C176 H180 0.931 . S
C177 N174 1.313 . S
C177 N178 1.344 . S
C177 H181 0.930 . S
N178 C175 1.377 . S
N178 C177 1.344 . S
O179 Co171 2.055 . S
O179 C183 1.253 . S
H180 C176 0.931 . S
H181 C177 0.930 . S
O182 Co171 2.039 . S
O182 C172 1.265 . S
C183 O179 1.253 . S
C183 O184 1.227 . S
O184 C183 1.227 . S
N185 Co171 2.140 . S
N185 C188 1.346 . S
N185 C189 1.345 . S
C186 C187 1.387 . S
C186 C190 1.391 . S
C187 C186 1.387 . S
C187 C188 1.369 . S
C187 H196 0.929 . S
C188 N185 1.346 . S
C188 C187 1.369 . S
C188 H191 0.928 . S
C189 N185 1.345 . S
C189 C190 1.371 . S
C189 H192 0.931 . S
C190 C186 1.391 . S
C190 C189 1.371 . S
C190 H197 0.930 . S
H191 C188 0.928 . S
H192 C189 0.931 . S
H193 C169 0.930 . S
H194 C166 0.930 . S
H195 C175 0.930 . S
H196 C187 0.929 . S
H197 C190 0.930 . S
C198 C199 1.351 . S
C198 N201 1.368 . S
C198 H203 0.931 . S
C199 C198 1.351 . S
C199 N200 1.373 . S
C199 H227 0.930 . S
N200 C199 1.373 . S
N200 C202 1.340 . S
N201 C198 1.368 . S
N201 C202 1.321 . S
N201 Co204 2.135 . S
C202 N200 1.340 . S
C202 N201 1.321 . S
C202 H226 0.930 . S
H203 C198 0.931 . S
Co204 N201 2.135 . S
Co204 N207 2.121 . S
Co204 O212 2.055 . S
Co204 O215 2.039 . S
Co204 N218 2.140 . S
C205 O206 1.227 . S
C205 O215 1.265 . S
O206 C205 1.227 . S
N207 Co204 2.121 . S
N207 C209 1.375 . S
N207 C210 1.313 . S
C208 C209 1.338 . S
C208 N211 1.377 . S
C208 H228 0.930 . S
C209 N207 1.375 . S
C209 C208 1.338 . S
C209 H213 0.931 . S
C210 N207 1.313 . S
C210 N211 1.344 . S
C210 H214 0.930 . S
N211 C208 1.377 . S
N211 C210 1.344 . S
O212 Co204 2.055 . S
O212 C216 1.253 . S
H213 C209 0.931 . S
H214 C210 0.930 . S
O215 Co204 2.039 . S
O215 C205 1.265 . S
C216 O212 1.253 . S
C216 O217 1.227 . S
O217 C216 1.227 . S
N218 Co204 2.140 . S
N218 C221 1.346 . S
N218 C222 1.345 . S
C219 C220 1.387 . S
C219 C223 1.391 . S
C220 C219 1.387 . S
C220 C221 1.369 . S
C220 H229 0.929 . S
C221 N218 1.346 . S
C221 C220 1.369 . S
C221 H224 0.928 . S
C222 N218 1.345 . S
C222 C223 1.371 . S
C222 H225 0.931 . S
C223 C219 1.391 . S
C223 C222 1.371 . S
C223 H230 0.930 . S
H224 C221 0.928 . S
H225 C222 0.931 . S
H226 C202 0.930 . S
H227 C199 0.930 . S
H228 C208 0.930 . S
H229 C220 0.929 . S
H230 C223 0.930 . S
C231 C232 1.351 . S
C231 N234 1.368 . S
C231 H236 0.931 . S
C232 C231 1.351 . S
C232 N233 1.373 . S
C232 H260 0.930 . S
N233 C232 1.373 . S
N233 C235 1.340 . S
N234 C231 1.368 . S
N234 C235 1.321 . S
N234 Co237 2.135 . S
C235 N233 1.340 . S
C235 N234 1.321 . S
C235 H259 0.930 . S
H236 C231 0.931 . S
Co237 N234 2.135 . S
Co237 N240 2.121 . S
Co237 O245 2.055 . S
Co237 O248 2.039 . S
Co237 N251 2.140 . S
C238 O239 1.227 . S
C238 O248 1.265 . S
O239 C238 1.227 . S
N240 Co237 2.121 . S
N240 C242 1.375 . S
N240 C243 1.313 . S
C241 C242 1.338 . S
C241 N244 1.377 . S
C241 H261 0.930 . S
C242 N240 1.375 . S
C242 C241 1.338 . S
C242 H246 0.931 . S
C243 N240 1.313 . S
C243 N244 1.344 . S
C243 H247 0.930 . S
N244 C241 1.377 . S
N244 C243 1.344 . S
O245 Co237 2.055 . S
O245 C249 1.253 . S
H246 C242 0.931 . S
H247 C243 0.930 . S
O248 Co237 2.039 . S
O248 C238 1.265 . S
C249 O245 1.253 . S
C249 O250 1.227 . S
O250 C249 1.227 . S
N251 Co237 2.140 . S
N251 C254 1.346 . S
N251 C255 1.345 . S
C252 C253 1.387 . S
C252 C256 1.391 . S
C253 C252 1.387 . S
C253 C254 1.369 . S
C253 H262 0.929 . S
C254 N251 1.346 . S
C254 C253 1.369 . S
C254 H257 0.928 . S
C255 N251 1.345 . S
C255 C256 1.371 . S
C255 H258 0.931 . S
C256 C252 1.391 . S
C256 C255 1.371 . S
C256 H263 0.930 . S
H257 C254 0.928 . S
H258 C255 0.931 . S
H259 C235 0.930 . S
H260 C232 0.930 . S
H261 C241 0.930 . S
H262 C253 0.929 . S
H263 C256 0.930 . S
C264 C265 1.351 . S
C264 N267 1.368 . S
C264 H269 0.931 . S
C265 C264 1.351 . S
C265 N266 1.373 . S
C265 H293 0.930 . S
N266 C265 1.373 . S
N266 C268 1.340 . S
N267 C264 1.368 . S
N267 C268 1.321 . S
N267 Co270 2.135 . S
C268 N266 1.340 . S
C268 N267 1.321 . S
C268 H292 0.930 . S
H269 C264 0.931 . S
Co270 N267 2.135 . S
Co270 N273 2.121 . S
Co270 O278 2.055 . S
Co270 O281 2.039 . S
Co270 N284 2.140 . S
C271 O272 1.227 . S
C271 O281 1.265 . S
O272 C271 1.227 . S
N273 Co270 2.121 . S
N273 C275 1.375 . S
N273 C276 1.313 . S
C274 C275 1.338 . S
C274 N277 1.377 . S
C274 H294 0.930 . S
C275 N273 1.375 . S
C275 C274 1.338 . S
C275 H279 0.931 . S
C276 N273 1.313 . S
C276 N277 1.344 . S
C276 H280 0.930 . S
N277 C274 1.377 . S
N277 C276 1.344 . S
O278 Co270 2.055 . S
O278 C282 1.253 . S
H279 C275 0.931 . S
H280 C276 0.930 . S
O281 Co270 2.039 . S
O281 C271 1.265 . S
C282 O278 1.253 . S
C282 O283 1.227 . S
O283 C282 1.227 . S
N284 Co270 2.140 . S
N284 C287 1.346 . S
N284 C288 1.345 . S
C285 C286 1.387 . S
C285 C289 1.391 . S
C286 C285 1.387 . S
C286 C287 1.369 . S
C286 H295 0.929 . S
C287 N284 1.346 . S
C287 C286 1.369 . S
C287 H290 0.928 . S
C288 N284 1.345 . S
C288 C289 1.371 . S
C288 H291 0.931 . S
C289 C285 1.391 . S
C289 C288 1.371 . S
C289 H296 0.930 . S
H290 C287 0.928 . S
H291 C288 0.931 . S
H292 C268 0.930 . S
H293 C265 0.930 . S
H294 C274 0.930 . S
H295 C286 0.929 . S
H296 C289 0.930 . S
C297 C298 1.351 . S
C297 N300 1.368 . S
C297 H302 0.931 . S
C298 C297 1.351 . S
C298 N299 1.373 1_554 S
C298 H326 0.930 . S
N299 C298 1.373 1_556 S
N299 C301 1.340 . S
N300 C297 1.368 . S
N300 C301 1.321 1_554 S
N300 Co303 2.135 . S
C301 N299 1.340 . S
C301 N300 1.321 1_556 S
C301 H325 0.930 . S
H302 C297 0.931 . S
Co303 N300 2.135 . S
Co303 N306 2.121 . S
Co303 O311 2.055 . S
Co303 O314 2.039 . S
Co303 N317 2.140 . S
C304 O305 1.227 1_554 S
C304 O314 1.265 . S
O305 C304 1.227 1_556 S
N306 Co303 2.121 . S
N306 C308 1.375 . S
N306 C309 1.313 . S
C307 C308 1.338 . S
C307 N310 1.377 . S
C307 H327 0.930 . S
C308 N306 1.375 . S
C308 C307 1.338 . S
C308 H312 0.931 . S
C309 N306 1.313 . S
C309 N310 1.344 . S
C309 H313 0.930 . S
N310 C307 1.377 . S
N310 C309 1.344 . S
O311 Co303 2.055 . S
O311 C315 1.253 . S
H312 C308 0.931 . S
H313 C309 0.930 . S
O314 Co303 2.039 . S
O314 C304 1.265 . S
C315 O311 1.253 . S
C315 O316 1.227 . S
O316 C315 1.227 . S
N317 Co303 2.140 . S
N317 C320 1.346 . S
N317 C321 1.345 . S
C318 C319 1.387 . S
C318 C322 1.391 . S
C319 C318 1.387 . S
C319 C320 1.369 . S
C319 H328 0.929 1_554 S
C320 N317 1.346 . S
C320 C319 1.369 . S
C320 H323 0.928 . S
C321 N317 1.345 . S
C321 C322 1.371 . S
C321 H324 0.931 . S
C322 C318 1.391 . S
C322 C321 1.371 . S
C322 H329 0.930 . S
H323 C320 0.928 . S
H324 C321 0.931 . S
H325 C301 0.930 . S
H326 C298 0.930 . S
H327 C307 0.930 . S
H328 C319 0.929 1_556 S
H329 C322 0.930 . S
C330 C331 1.351 . S
C330 N333 1.368 . S
C330 H335 0.931 . S
C331 C330 1.351 . S
C331 N332 1.373 1_554 S
C331 H359 0.930 . S
N332 C331 1.373 1_556 S
N332 C334 1.340 . S
N333 C330 1.368 . S
N333 C334 1.321 1_554 S
N333 Co336 2.135 . S
C334 N332 1.340 . S
C334 N333 1.321 1_556 S
C334 H358 0.930 . S
H335 C330 0.931 . S
Co336 N333 2.135 . S
Co336 N339 2.121 . S
Co336 O344 2.055 . S
Co336 O347 2.039 . S
Co336 N350 2.140 . S
C337 O338 1.227 1_554 S
C337 O347 1.265 . S
O338 C337 1.227 1_556 S
N339 Co336 2.121 . S
N339 C341 1.375 . S
N339 C342 1.313 . S
C340 C341 1.338 . S
C340 N343 1.377 . S
C340 H360 0.930 . S
C341 N339 1.375 . S
C341 C340 1.338 . S
C341 H345 0.931 . S
C342 N339 1.313 . S
C342 N343 1.344 . S
C342 H346 0.930 . S
N343 C340 1.377 . S
N343 C342 1.344 . S
O344 Co336 2.055 . S
O344 C348 1.253 . S
H345 C341 0.931 . S
H346 C342 0.930 . S
O347 Co336 2.039 . S
O347 C337 1.265 . S
C348 O344 1.253 . S
C348 O349 1.227 . S
O349 C348 1.227 . S
N350 Co336 2.140 . S
N350 C353 1.346 . S
N350 C354 1.345 . S
C351 C352 1.387 . S
C351 C355 1.391 . S
C352 C351 1.387 . S
C352 C353 1.369 . S
C352 H361 0.929 1_554 S
C353 N350 1.346 . S
C353 C352 1.369 . S
C353 H356 0.928 . S
C354 N350 1.345 . S
C354 C355 1.371 . S
C354 H357 0.931 . S
C355 C351 1.391 . S
C355 C354 1.371 . S
C355 H362 0.930 . S
H356 C353 0.928 . S
H357 C354 0.931 . S
H358 C334 0.930 . S
H359 C331 0.930 . S
H360 C340 0.930 . S
H361 C352 0.929 1_556 S
H362 C355 0.930 . S
C363 C364 1.351 . S
C363 N366 1.368 . S
C363 H368 0.931 . S
C364 C363 1.351 . S
C364 N365 1.373 1_554 S
C364 H392 0.930 . S
N365 C364 1.373 1_556 S
N365 C367 1.340 . S
N366 C363 1.368 . S
N366 C367 1.321 1_554 S
N366 Co369 2.135 . S
C367 N365 1.340 . S
C367 N366 1.321 1_556 S
C367 H391 0.930 . S
H368 C363 0.931 . S
Co369 N366 2.135 . S
Co369 N372 2.121 . S
Co369 O377 2.055 . S
Co369 O380 2.039 . S
Co369 N383 2.140 . S
C370 O371 1.227 1_554 S
C370 O380 1.265 . S
O371 C370 1.227 1_556 S
N372 Co369 2.121 . S
N372 C374 1.375 . S
N372 C375 1.313 . S
C373 C374 1.338 . S
C373 N376 1.377 . S
C373 H393 0.930 . S
C374 N372 1.375 . S
C374 C373 1.338 . S
C374 H378 0.931 . S
C375 N372 1.313 . S
C375 N376 1.344 . S
C375 H379 0.930 . S
N376 C373 1.377 . S
N376 C375 1.344 . S
O377 Co369 2.055 . S
O377 C381 1.253 . S
H378 C374 0.931 . S
H379 C375 0.930 . S
O380 Co369 2.039 . S
O380 C370 1.265 . S
C381 O377 1.253 . S
C381 O382 1.227 . S
O382 C381 1.227 . S
N383 Co369 2.140 . S
N383 C386 1.346 . S
N383 C387 1.345 . S
C384 C385 1.387 . S
C384 C388 1.391 . S
C385 C384 1.387 . S
C385 C386 1.369 . S
C385 H394 0.929 1_554 S
C386 N383 1.346 . S
C386 C385 1.369 . S
C386 H389 0.928 . S
C387 N383 1.345 . S
C387 C388 1.371 . S
C387 H390 0.931 . S
C388 C384 1.391 . S
C388 C387 1.371 . S
C388 H395 0.930 . S
H389 C386 0.928 . S
H390 C387 0.931 . S
H391 C367 0.930 . S
H392 C364 0.930 . S
H393 C373 0.930 . S
H394 C385 0.929 1_556 S
H395 C388 0.930 . S
C396 C397 1.351 . S
C396 N399 1.368 . S
C396 H401 0.931 . S
C397 C396 1.351 . S
C397 N398 1.373 1_556 S
C397 H425 0.930 . S
N398 C397 1.373 1_554 S
N398 C400 1.340 . S
N399 C396 1.368 . S
N399 C400 1.321 1_556 S
N399 Co402 2.135 . S
C400 N398 1.340 . S
C400 N399 1.321 1_554 S
C400 H424 0.930 . S
H401 C396 0.931 . S
Co402 N399 2.135 . S
Co402 N405 2.121 . S
Co402 O410 2.055 . S
Co402 O413 2.039 . S
Co402 N416 2.140 . S
C403 O404 1.227 1_556 S
C403 O413 1.265 . S
O404 C403 1.227 1_554 S
N405 Co402 2.121 . S
N405 C407 1.375 . S
N405 C408 1.313 . S
C406 C407 1.338 . S
C406 N409 1.377 . S
C406 H426 0.930 . S
C407 N405 1.375 . S
C407 C406 1.338 . S
C407 H411 0.931 . S
C408 N405 1.313 . S
C408 N409 1.344 . S
C408 H412 0.930 . S
N409 C406 1.377 . S
N409 C408 1.344 . S
O410 Co402 2.055 . S
O410 C414 1.253 . S
H411 C407 0.931 . S
H412 C408 0.930 . S
O413 Co402 2.039 . S
O413 C403 1.265 . S
C414 O410 1.253 . S
C414 O415 1.227 . S
O415 C414 1.227 . S
N416 Co402 2.140 . S
N416 C419 1.346 . S
N416 C420 1.345 . S
C417 C418 1.387 . S
C417 C421 1.391 . S
C418 C417 1.387 . S
C418 C419 1.369 . S
C418 H427 0.929 1_556 S
C419 N416 1.346 . S
C419 C418 1.369 . S
C419 H422 0.928 . S
C420 N416 1.345 . S
C420 C421 1.371 . S
C420 H423 0.931 . S
C421 C417 1.391 . S
C421 C420 1.371 . S
C421 H428 0.930 . S
H422 C419 0.928 . S
H423 C420 0.931 . S
H424 C400 0.930 . S
H425 C397 0.930 . S
H426 C406 0.930 . S
H427 C418 0.929 1_554 S
H428 C421 0.930 . S
C429 C430 1.351 . S
C429 N432 1.368 . S
C429 H434 0.931 . S
C430 C429 1.351 . S
C430 N431 1.373 1_556 S
C430 H458 0.930 . S
N431 C430 1.373 1_554 S
N431 C433 1.340 . S
N432 C429 1.368 . S
N432 C433 1.321 1_556 S
N432 Co435 2.135 . S
C433 N431 1.340 . S
C433 N432 1.321 1_554 S
C433 H457 0.930 . S
H434 C429 0.931 . S
Co435 N432 2.135 . S
Co435 N438 2.121 . S
Co435 O443 2.055 . S
Co435 O446 2.039 . S
Co435 N449 2.140 . S
C436 O437 1.227 1_556 S
C436 O446 1.265 . S
O437 C436 1.227 1_554 S
N438 Co435 2.121 . S
N438 C440 1.375 . S
N438 C441 1.313 . S
C439 C440 1.338 . S
C439 N442 1.377 . S
C439 H459 0.930 . S
C440 N438 1.375 . S
C440 C439 1.338 . S
C440 H444 0.931 . S
C441 N438 1.313 . S
C441 N442 1.344 . S
C441 H445 0.930 . S
N442 C439 1.377 . S
N442 C441 1.344 . S
O443 Co435 2.055 . S
O443 C447 1.253 . S
H444 C440 0.931 . S
H445 C441 0.930 . S
O446 Co435 2.039 . S
O446 C436 1.265 . S
C447 O443 1.253 . S
C447 O448 1.227 . S
O448 C447 1.227 . S
N449 Co435 2.140 . S
N449 C452 1.346 . S
N449 C453 1.345 . S
C450 C451 1.387 . S
C450 C454 1.391 . S
C451 C450 1.387 . S
C451 C452 1.369 . S
C451 H460 0.929 1_556 S
C452 N449 1.346 . S
C452 C451 1.369 . S
C452 H455 0.928 . S
C453 N449 1.345 . S
C453 C454 1.371 . S
C453 H456 0.931 . S
C454 C450 1.391 . S
C454 C453 1.371 . S
C454 H461 0.930 . S
H455 C452 0.928 . S
H456 C453 0.931 . S
H457 C433 0.930 . S
H458 C430 0.930 . S
H459 C439 0.930 . S
H460 C451 0.929 1_554 S
H461 C454 0.930 . S
C462 C463 1.351 . S
C462 N465 1.368 . S
C462 H467 0.931 . S
C463 C462 1.351 . S
C463 N464 1.373 1_556 S
C463 H491 0.930 . S
N464 C463 1.373 1_554 S
N464 C466 1.340 . S
N465 C462 1.368 . S
N465 C466 1.321 1_556 S
N465 Co468 2.135 . S
C466 N464 1.340 . S
C466 N465 1.321 1_554 S
C466 H490 0.930 . S
H467 C462 0.931 . S
Co468 N465 2.135 . S
Co468 N471 2.121 . S
Co468 O476 2.055 . S
Co468 O479 2.039 . S
Co468 N482 2.140 . S
C469 O470 1.227 1_556 S
C469 O479 1.265 . S
O470 C469 1.227 1_554 S
N471 Co468 2.121 . S
N471 C473 1.375 . S
N471 C474 1.313 . S
C472 C473 1.338 . S
C472 N475 1.377 . S
C472 H492 0.930 . S
C473 N471 1.375 . S
C473 C472 1.338 . S
C473 H477 0.931 . S
C474 N471 1.313 . S
C474 N475 1.344 . S
C474 H478 0.930 . S
N475 C472 1.377 . S
N475 C474 1.344 . S
O476 Co468 2.055 . S
O476 C480 1.253 . S
H477 C473 0.931 . S
H478 C474 0.930 . S
O479 Co468 2.039 . S
O479 C469 1.265 . S
C480 O476 1.253 . S
C480 O481 1.227 . S
O481 C480 1.227 . S
N482 Co468 2.140 . S
N482 C485 1.346 . S
N482 C486 1.345 . S
C483 C484 1.387 . S
C483 C487 1.391 . S
C484 C483 1.387 . S
C484 C485 1.369 . S
C484 H493 0.929 1_556 S
C485 N482 1.346 . S
C485 C484 1.369 . S
C485 H488 0.928 . S
C486 N482 1.345 . S
C486 C487 1.371 . S
C486 H489 0.931 . S
C487 C483 1.391 . S
C487 C486 1.371 . S
C487 H494 0.930 . S
H488 C485 0.928 . S
H489 C486 0.931 . S
H490 C466 0.930 . S
H491 C463 0.930 . S
H492 C472 0.930 . S
H493 C484 0.929 1_554 S
H494 C487 0.930 . S
C495 C496 1.351 . S
C495 N498 1.368 . S
C495 H500 0.931 . S
C496 C495 1.351 . S
C496 N497 1.373 . S
C496 H524 0.930 . S
N497 C496 1.373 . S
N497 C499 1.340 . S
N498 C495 1.368 . S
N498 C499 1.321 . S
N498 Co501 2.135 . S
C499 N497 1.340 . S
C499 N498 1.321 . S
C499 H523 0.930 . S
H500 C495 0.931 . S
Co501 N498 2.135 . S
Co501 N504 2.121 . S
Co501 O509 2.055 . S
Co501 O512 2.039 . S
Co501 N515 2.140 . S
C502 O503 1.227 . S
C502 O512 1.265 . S
O503 C502 1.227 . S
N504 Co501 2.121 . S
N504 C506 1.375 . S
N504 C507 1.313 . S
C505 C506 1.338 . S
C505 N508 1.377 . S
C505 H525 0.930 . S
C506 N504 1.375 . S
C506 C505 1.338 . S
C506 H510 0.931 . S
C507 N504 1.313 . S
C507 N508 1.344 . S
C507 H511 0.930 . S
N508 C505 1.377 . S
N508 C507 1.344 . S
O509 Co501 2.055 . S
O509 C513 1.253 . S
H510 C506 0.931 . S
H511 C507 0.930 . S
O512 Co501 2.039 . S
O512 C502 1.265 . S
C513 O509 1.253 . S
C513 O514 1.227 . S
O514 C513 1.227 . S
N515 Co501 2.140 . S
N515 C518 1.346 . S
N515 C519 1.345 . S
C516 C517 1.387 . S
C516 C520 1.391 . S
C517 C516 1.387 . S
C517 C518 1.369 . S
C517 H526 0.929 . S
C518 N515 1.346 . S
C518 C517 1.369 . S
C518 H521 0.928 . S
C519 N515 1.345 . S
C519 C520 1.371 . S
C519 H522 0.931 . S
C520 C516 1.391 . S
C520 C519 1.371 . S
C520 H527 0.930 . S
H521 C518 0.928 . S
H522 C519 0.931 . S
H523 C499 0.930 . S
H524 C496 0.930 . S
H525 C505 0.930 . S
H526 C517 0.929 . S
H527 C520 0.930 . S
C528 C529 1.351 . S
C528 N531 1.368 . S
C528 H533 0.931 . S
C529 C528 1.351 . S
C529 N530 1.373 . S
C529 H557 0.930 . S
N530 C529 1.373 . S
N530 C532 1.340 . S
N531 C528 1.368 . S
N531 C532 1.321 . S
N531 Co534 2.135 . S
C532 N530 1.340 . S
C532 N531 1.321 . S
C532 H556 0.930 . S
H533 C528 0.931 . S
Co534 N531 2.135 . S
Co534 N537 2.121 . S
Co534 O542 2.055 . S
Co534 O545 2.039 . S
Co534 N548 2.140 . S
C535 O536 1.227 . S
C535 O545 1.265 . S
O536 C535 1.227 . S
N537 Co534 2.121 . S
N537 C539 1.375 . S
N537 C540 1.313 . S
C538 C539 1.338 . S
C538 N541 1.377 . S
C538 H558 0.930 . S
C539 N537 1.375 . S
C539 C538 1.338 . S
C539 H543 0.931 . S
C540 N537 1.313 . S
C540 N541 1.344 . S
C540 H544 0.930 . S
N541 C538 1.377 . S
N541 C540 1.344 . S
O542 Co534 2.055 . S
O542 C546 1.253 . S
H543 C539 0.931 . S
H544 C540 0.930 . S
O545 Co534 2.039 . S
O545 C535 1.265 . S
C546 O542 1.253 . S
C546 O547 1.227 . S
O547 C546 1.227 . S
N548 Co534 2.140 . S
N548 C551 1.346 . S
N548 C552 1.345 . S
C549 C550 1.387 . S
C549 C553 1.391 . S
C550 C549 1.387 . S
C550 C551 1.369 . S
C550 H559 0.929 . S
C551 N548 1.346 . S
C551 C550 1.369 . S
C551 H554 0.928 . S
C552 N548 1.345 . S
C552 C553 1.371 . S
C552 H555 0.931 . S
C553 C549 1.391 . S
C553 C552 1.371 . S
C553 H560 0.930 . S
H554 C551 0.928 . S
H555 C552 0.931 . S
H556 C532 0.930 . S
H557 C529 0.930 . S
H558 C538 0.930 . S
H559 C550 0.929 . S
H560 C553 0.930 . S
C561 C562 1.351 . S
C561 N564 1.368 . S
C561 H566 0.931 . S
C562 C561 1.351 . S
C562 N563 1.373 . S
C562 H590 0.930 . S
N563 C562 1.373 . S
N563 C565 1.340 . S
N564 C561 1.368 . S
N564 C565 1.321 . S
N564 Co567 2.135 . S
C565 N563 1.340 . S
C565 N564 1.321 . S
C565 H589 0.930 . S
H566 C561 0.931 . S
Co567 N564 2.135 . S
Co567 N570 2.121 . S
Co567 O575 2.055 . S
Co567 O578 2.039 . S
Co567 N581 2.140 . S
C568 O569 1.227 . S
C568 O578 1.265 . S
O569 C568 1.227 . S
N570 Co567 2.121 . S
N570 C572 1.375 . S
N570 C573 1.313 . S
C571 C572 1.338 . S
C571 N574 1.377 . S
C571 H591 0.930 . S
C572 N570 1.375 . S
C572 C571 1.338 . S
C572 H576 0.931 . S
C573 N570 1.313 . S
C573 N574 1.344 . S
C573 H577 0.930 . S
N574 C571 1.377 . S
N574 C573 1.344 . S
O575 Co567 2.055 . S
O575 C579 1.253 . S
H576 C572 0.931 . S
H577 C573 0.930 . S
O578 Co567 2.039 . S
O578 C568 1.265 . S
C579 O575 1.253 . S
C579 O580 1.227 . S
O580 C579 1.227 . S
N581 Co567 2.140 . S
N581 C584 1.346 . S
N581 C585 1.345 . S
C582 C583 1.387 . S
C582 C586 1.391 . S
C583 C582 1.387 . S
C583 C584 1.369 . S
C583 H592 0.929 . S
C584 N581 1.346 . S
C584 C583 1.369 . S
C584 H587 0.928 . S
C585 N581 1.345 . S
C585 C586 1.371 . S
C585 H588 0.931 . S
C586 C582 1.391 . S
C586 C585 1.371 . S
C586 H593 0.930 . S
H587 C584 0.928 . S
H588 C585 0.931 . S
H589 C565 0.930 . S
H590 C562 0.930 . S
H591 C571 0.930 . S
H592 C583 0.929 . S
H593 C586 0.930 . S
H594 C612 0.951 . S
H595 C614 0.951 . S
H596 C616 0.950 . S
H597 C617 0.950 . S
H598 C619 0.950 . S
H599 C622 0.950 . S
H600 C623 0.950 . S
H601 C625 0.950 . S
H602 C626 0.950 . S
H603 C627 0.951 . S
H604 C629 0.951 . S
H605 C631 0.950 . S
H606 C632 0.950 . S
H607 C634 0.950 . S
H608 C637 0.950 . S
H609 C638 0.950 . S
H610 C640 0.950 . S
H611 C641 0.950 . S
C612 H594 0.951 . S
C612 C613 1.366 . S
C612 C614 1.388 . S
C613 C612 1.366 . S
C613 C617 1.385 . S
C614 H595 0.951 . S
C614 C612 1.388 . S
C614 C615 1.366 . S
C615 C614 1.366 . S
C615 C616 1.414 . S
C615 C618 1.499 . S
C616 H596 0.950 . S
C616 C615 1.414 . S
C616 C617 1.374 . S
C617 H597 0.950 . S
C617 C613 1.385 . S
C617 C616 1.374 . S
C618 C615 1.499 . S
C618 C619 1.373 1_556 S
C618 C620 1.389 . S
C619 H598 0.950 . S
C619 C618 1.373 1_554 S
C619 C635 1.377 . S
C620 C618 1.389 . S
C620 C621 1.524 . S
C620 C634 1.377 . S
C621 C620 1.524 . S
C621 C622 1.397 . S
C621 C626 1.363 . S
C622 H599 0.950 . S
C622 C621 1.397 . S
C622 C623 1.334 . S
C623 H600 0.950 . S
C623 C622 1.334 . S
C623 C624 1.287 . S
C624 C623 1.287 . S
C624 C625 1.524 . S
C624 H643 0.913 . S
C625 H601 0.950 . S
C625 C624 1.524 . S
C625 C626 1.415 . S
C626 H602 0.950 . S
C626 C621 1.363 . S
C626 C625 1.415 . S
C627 H603 0.951 . S
C627 C628 1.366 . S
C627 C629 1.388 . S
C628 C627 1.366 . S
C628 C632 1.385 . S
C629 H604 0.951 . S
C629 C627 1.388 . S
C629 C630 1.366 . S
C630 C629 1.366 . S
C630 C631 1.414 . S
C630 C633 1.499 . S
C631 H605 0.950 . S
C631 C630 1.414 . S
C631 C632 1.374 . S
C632 H606 0.950 . S
C632 C628 1.385 . S
C632 C631 1.374 . S
C633 C630 1.499 . S
C633 C634 1.373 1_554 S
C633 C635 1.389 . S
C634 H607 0.950 . S
C634 C620 1.377 . S
C634 C633 1.373 1_556 S
C635 C619 1.377 . S
C635 C633 1.389 . S
C635 C636 1.524 . S
C636 C635 1.524 . S
C636 C637 1.397 . S
C636 C641 1.363 . S
C637 H608 0.950 . S
C637 C636 1.397 . S
C637 C638 1.334 . S
C638 H609 0.950 . S
C638 C637 1.334 . S
C638 C639 1.287 . S
C639 C638 1.287 . S
C639 C640 1.524 . S
C639 H642 0.999 . S
C640 H610 0.950 . S
C640 C639 1.524 . S
C640 C641 1.415 . S
C641 H611 0.950 . S
C641 C636 1.363 . S
C641 C640 1.415 . S
H642 C639 0.999 . S
H643 C624 0.913 . S
H644 C662 0.951 . S
H645 C664 0.951 . S
H646 C666 0.950 . S
H647 C667 0.950 . S
H648 C669 0.950 . S
H649 C672 0.950 1_554 S
H650 C673 0.950 . S
H651 C675 0.950 . S
H652 C676 0.950 1_565 S
H653 C677 0.951 . S
H654 C679 0.951 . S
H655 C681 0.950 . S
H656 C682 0.950 . S
H657 C684 0.950 . S
H658 C687 0.950 1_556 S
H659 C688 0.950 . S
H660 C690 0.950 . S
H661 C691 0.950 1_545 S
C662 H644 0.951 . S
C662 C663 1.366 . S
C662 C664 1.388 . S
C663 C662 1.366 . S
C663 C667 1.385 . S
C664 H645 0.951 . S
C664 C662 1.388 . S
C664 C665 1.366 . S
C665 C664 1.366 . S
C665 C666 1.414 . S
C665 C668 1.499 . S
C666 H646 0.950 . S
C666 C665 1.414 . S
C666 C667 1.374 . S
C667 H647 0.950 . S
C667 C663 1.385 . S
C667 C666 1.374 . S
C668 C665 1.499 . S
C668 C669 1.373 . S
C668 C670 1.389 . S
C669 H648 0.950 . S
C669 C668 1.373 . S
C669 C685 1.377 1_546 S
C670 C668 1.389 . S
C670 C671 1.524 . S
C670 C684 1.377 1_546 S
C671 C670 1.524 . S
C671 C672 1.397 . S
C671 C676 1.363 . S
C672 H649 0.950 1_556 S
C672 C671 1.397 . S
C672 C673 1.334 . S
C673 H650 0.950 . S
C673 C672 1.334 . S
C673 C674 1.287 . S
C674 C673 1.287 . S
C674 C675 1.524 . S
C674 H693 0.913 . S
C675 H651 0.950 . S
C675 C674 1.524 . S
C675 C676 1.415 . S
C676 H652 0.950 1_545 S
C676 C671 1.363 . S
C676 C675 1.415 . S
C677 H653 0.951 . S
C677 C678 1.366 . S
C677 C679 1.388 . S
C678 C677 1.366 . S
C678 C682 1.385 . S
C679 H654 0.951 . S
C679 C677 1.388 . S
C679 C680 1.366 . S
C680 C679 1.366 . S
C680 C681 1.414 . S
C680 C683 1.499 . S
C681 H655 0.950 . S
C681 C680 1.414 . S
C681 C682 1.374 . S
C682 H656 0.950 . S
C682 C678 1.385 . S
C682 C681 1.374 . S
C683 C680 1.499 . S
C683 C684 1.373 . S
C683 C685 1.389 . S
C684 H657 0.950 . S
C684 C670 1.377 1_564 S
C684 C683 1.373 . S
C685 C669 1.377 1_564 S
C685 C683 1.389 . S
C685 C686 1.524 . S
C686 C685 1.524 . S
C686 C687 1.397 . S
C686 C691 1.363 . S
C687 H658 0.950 1_554 S
C687 C686 1.397 . S
C687 C688 1.334 . S
C688 H659 0.950 . S
C688 C687 1.334 . S
C688 C689 1.287 . S
C689 C688 1.287 . S
C689 C690 1.524 . S
C689 H692 0.999 . S
C690 H660 0.950 . S
C690 C689 1.524 . S
C690 C691 1.415 . S
C691 H661 0.950 1_565 S
C691 C686 1.363 . S
C691 C690 1.415 . S
H692 C689 0.999 . S
H693 C674 0.913 . S
H694 C712 0.951 . S
H695 C714 0.951 . S
H696 C716 0.950 . S
H697 C717 0.950 . S
H698 C719 0.950 . S
H699 C722 0.950 . S
H700 C723 0.950 . S
H701 C725 0.950 . S
H702 C726 0.950 . S
H703 C727 0.951 . S
H704 C729 0.951 . S
H705 C731 0.950 . S
H706 C732 0.950 . S
H707 C734 0.950 . S
H708 C737 0.950 . S
H709 C738 0.950 . S
H710 C740 0.950 . S
H711 C741 0.950 . S
C712 H694 0.951 . S
C712 C713 1.366 . S
C712 C714 1.388 . S
C713 C712 1.366 . S
C713 C717 1.385 . S
C714 H695 0.951 . S
C714 C712 1.388 . S
C714 C715 1.366 . S
C715 C714 1.366 . S
C715 C716 1.414 . S
C715 C718 1.499 . S
C716 H696 0.950 . S
C716 C715 1.414 . S
C716 C717 1.374 . S
C717 H697 0.950 . S
C717 C713 1.385 . S
C717 C716 1.374 . S
C718 C715 1.499 . S
C718 C719 1.373 1_554 S
C718 C720 1.389 1_455 S
C719 H698 0.950 . S
C719 C718 1.373 1_556 S
C719 C735 1.377 . S
C720 C718 1.389 1_655 S
C720 C721 1.524 . S
C720 C734 1.377 . S
C721 C720 1.524 . S
C721 C722 1.397 1_655 S
C721 C726 1.363 . S
C722 H699 0.950 . S
C722 C721 1.397 1_455 S
C722 C723 1.334 . S
C723 H700 0.950 . S
C723 C722 1.334 . S
C723 C724 1.287 1_455 S
C724 C723 1.287 1_655 S
C724 C725 1.524 . S
C724 H743 0.913 . S
C725 H701 0.950 . S
C725 C724 1.524 . S
C725 C726 1.415 . S
C726 H702 0.950 . S
C726 C721 1.363 . S
C726 C725 1.415 . S
C727 H703 0.951 . S
C727 C728 1.366 . S
C727 C729 1.388 . S
C728 C727 1.366 . S
C728 C732 1.385 . S
C729 H704 0.951 . S
C729 C727 1.388 . S
C729 C730 1.366 . S
C730 C729 1.366 . S
C730 C731 1.414 . S
C730 C733 1.499 . S
C731 H705 0.950 . S
C731 C730 1.414 . S
C731 C732 1.374 . S
C732 H706 0.950 . S
C732 C728 1.385 . S
C732 C731 1.374 . S
C733 C730 1.499 . S
C733 C734 1.373 1_556 S
C733 C735 1.389 1_655 S
C734 H707 0.950 . S
C734 C720 1.377 . S
C734 C733 1.373 1_554 S
C735 C719 1.377 . S
C735 C733 1.389 1_455 S
C735 C736 1.524 . S
C736 C735 1.524 . S
C736 C737 1.397 1_455 S
C736 C741 1.363 . S
C737 H708 0.950 . S
C737 C736 1.397 1_655 S
C737 C738 1.334 . S
C738 H709 0.950 . S
C738 C737 1.334 . S
C738 C739 1.287 1_655 S
C739 C738 1.287 1_455 S
C739 C740 1.524 . S
C739 H742 0.999 . S
C740 H710 0.950 . S
C740 C739 1.524 . S
C740 C741 1.415 . S
C741 H711 0.950 . S
C741 C736 1.363 . S
C741 C740 1.415 . S
H742 C739 0.999 . S
H743 C724 0.913 . S
H744 C762 0.951 . S
H745 C764 0.951 . S
H746 C766 0.950 . S
H747 C767 0.950 . S
H748 C769 0.950 . S
H749 C772 0.950 . S
H750 C773 0.950 . S
H751 C775 0.950 . S
H752 C776 0.950 1_556 S
H753 C777 0.951 . S
H754 C779 0.951 . S
H755 C781 0.950 . S
H756 C782 0.950 . S
H757 C784 0.950 . S
H758 C787 0.950 . S
H759 C788 0.950 . S
H760 C790 0.950 . S
H761 C791 0.950 1_554 S
C762 H744 0.951 . S
C762 C763 1.366 . S
C762 C764 1.388 . S
C763 C762 1.366 . S
C763 C767 1.385 . S
C764 H745 0.951 . S
C764 C762 1.388 . S
C764 C765 1.366 . S
C765 C764 1.366 . S
C765 C766 1.414 . S
C765 C768 1.499 . S
C766 H746 0.950 . S
C766 C765 1.414 . S
C766 C767 1.374 . S
C767 H747 0.950 . S
C767 C763 1.385 . S
C767 C766 1.374 . S
C768 C765 1.499 . S
C768 C769 1.373 . S
C768 C770 1.389 . S
C769 H748 0.950 . S
C769 C768 1.373 . S
C769 C785 1.377 1_554 S
C770 C768 1.389 . S
C770 C771 1.524 . S
C770 C784 1.377 1_554 S
C771 C770 1.524 . S
C771 C772 1.397 . S
C771 C776 1.363 . S
C772 H749 0.950 . S
C772 C771 1.397 . S
C772 C773 1.334 . S
C773 H750 0.950 . S
C773 C772 1.334 . S
C773 C774 1.287 . S
C774 C773 1.287 . S
C774 C775 1.524 . S
C774 H793 0.913 . S
C775 H751 0.950 . S
C775 C774 1.524 . S
C775 C776 1.415 . S
C776 H752 0.950 1_554 S
C776 C771 1.363 . S
C776 C775 1.415 . S
C777 H753 0.951 . S
C777 C778 1.366 . S
C777 C779 1.388 . S
C778 C777 1.366 . S
C778 C782 1.385 . S
C779 H754 0.951 . S
C779 C777 1.388 . S
C779 C780 1.366 . S
C780 C779 1.366 . S
C780 C781 1.414 . S
C780 C783 1.499 . S
C781 H755 0.950 . S
C781 C780 1.414 . S
C781 C782 1.374 . S
C782 H756 0.950 . S
C782 C778 1.385 . S
C782 C781 1.374 . S
C783 C780 1.499 . S
C783 C784 1.373 . S
C783 C785 1.389 . S
C784 H757 0.950 . S
C784 C770 1.377 1_556 S
C784 C783 1.373 . S
C785 C769 1.377 1_556 S
C785 C783 1.389 . S
C785 C786 1.524 . S
C786 C785 1.524 . S
C786 C787 1.397 . S
C786 C791 1.363 . S
C787 H758 0.950 . S
C787 C786 1.397 . S
C787 C788 1.334 . S
C788 H759 0.950 . S
C788 C787 1.334 . S
C788 C789 1.287 . S
C789 C788 1.287 . S
C789 C790 1.524 . S
C789 H792 0.999 . S
C790 H760 0.950 . S
C790 C789 1.524 . S
C790 C791 1.415 . S
C791 H761 0.950 1_556 S
C791 C786 1.363 . S
C791 C790 1.415 . S
H792 C789 0.999 . S
H793 C774 0.913 . S
H794 C812 0.951 . S
H795 C814 0.951 . S
H796 C816 0.950 . S
H797 C817 0.950 . S
H798 C819 0.950 . S
H799 C822 0.950 . S
H800 C823 0.950 . S
H801 C825 0.950 . S
H802 C826 0.950 . S
H803 C827 0.951 . S
H804 C829 0.951 . S
H805 C831 0.950 . S
H806 C832 0.950 . S
H807 C834 0.950 . S
H808 C837 0.950 . S
H809 C838 0.950 . S
H810 C840 0.950 . S
H811 C841 0.950 . S
C812 H794 0.951 . S
C812 C813 1.366 . S
C812 C814 1.388 . S
C813 C812 1.366 . S
C813 C817 1.385 . S
C814 H795 0.951 . S
C814 C812 1.388 . S
C814 C815 1.366 . S
C815 C814 1.366 . S
C815 C816 1.414 . S
C815 C818 1.499 . S
C816 H796 0.950 . S
C816 C815 1.414 . S
C816 C817 1.374 . S
C817 H797 0.950 . S
C817 C813 1.385 . S
C817 C816 1.374 . S
C818 C815 1.499 . S
C818 C819 1.373 . S
C818 C820 1.389 . S
C819 H798 0.950 . S
C819 C818 1.373 . S
C819 C835 1.377 1_546 S
C820 C818 1.389 . S
C820 C821 1.524 . S
C820 C834 1.377 1_546 S
C821 C820 1.524 . S
C821 C822 1.397 1_545 S
C821 C826 1.363 . S
C822 H799 0.950 . S
C822 C821 1.397 1_565 S
C822 C823 1.334 . S
C823 H800 0.950 . S
C823 C822 1.334 . S
C823 C824 1.287 . S
C824 C823 1.287 . S
C824 C825 1.524 1_565 S
C824 H843 0.913 . S
C825 H801 0.950 . S
C825 C824 1.524 1_545 S
C825 C826 1.415 . S
C826 H802 0.950 . S
C826 C821 1.363 . S
C826 C825 1.415 . S
C827 H803 0.951 . S
C827 C828 1.366 . S
C827 C829 1.388 . S
C828 C827 1.366 . S
C828 C832 1.385 . S
C829 H804 0.951 . S
C829 C827 1.388 . S
C829 C830 1.366 . S
C830 C829 1.366 . S
C830 C831 1.414 . S
C830 C833 1.499 . S
C831 H805 0.950 . S
C831 C830 1.414 . S
C831 C832 1.374 . S
C832 H806 0.950 . S
C832 C828 1.385 . S
C832 C831 1.374 . S
C833 C830 1.499 . S
C833 C834 1.373 . S
C833 C835 1.389 . S
C834 H807 0.950 . S
C834 C820 1.377 1_564 S
C834 C833 1.373 . S
C835 C819 1.377 1_564 S
C835 C833 1.389 . S
C835 C836 1.524 . S
C836 C835 1.524 . S
C836 C837 1.397 1_565 S
C836 C841 1.363 . S
C837 H808 0.950 . S
C837 C836 1.397 1_545 S
C837 C838 1.334 . S
C838 H809 0.950 . S
C838 C837 1.334 . S
C838 C839 1.287 . S
C839 C838 1.287 . S
C839 C840 1.524 1_545 S
C839 H842 0.999 . S
C840 H810 0.950 . S
C840 C839 1.524 1_565 S
C840 C841 1.415 . S
C841 H811 0.950 . S
C841 C836 1.363 . S
C841 C840 1.415 . S
H842 C839 0.999 . S
H843 C824 0.913 . S
H844 C862 0.951 . S
H845 C864 0.951 . S
H846 C866 0.950 . S
H847 C867 0.950 . S
H848 C869 0.951 . S
H849 C872 0.950 . S
H850 C873 0.950 . S
H851 C875 0.950 . S
H852 C876 0.950 . S
H853 C877 0.951 . S
H854 C879 0.951 . S
H855 C881 0.950 . S
H856 C882 0.950 . S
H857 C884 0.951 . S
H858 C887 0.950 . S
H859 C888 0.950 . S
H860 C890 0.950 . S
H861 C891 0.950 . S
C862 H844 0.951 . S
C862 C863 1.366 . S
C862 C864 1.388 . S
C863 C862 1.366 . S
C863 C867 1.385 . S
C864 H845 0.951 . S
C864 C862 1.388 . S
C864 C865 1.366 . S
C865 C864 1.366 . S
C865 C866 1.414 . S
C865 C868 1.499 . S
C866 H846 0.950 . S
C866 C865 1.414 . S
C866 C867 1.374 . S
C867 H847 0.950 . S
C867 C863 1.385 . S
C867 C866 1.374 . S
C868 C865 1.499 . S
C868 C869 1.360 1_556 S
C868 C870 1.389 1_655 S
C869 H848 0.951 . S
C869 C868 1.360 1_554 S
C869 C885 1.389 . S
C870 C868 1.389 1_455 S
C870 C871 1.524 . S
C870 C884 1.389 . S
C871 C870 1.524 . S
C871 C872 1.397 1_455 S
C871 C876 1.363 . S
C872 H849 0.950 . S
C872 C871 1.397 1_655 S
C872 C873 1.334 . S
C873 H850 0.950 . S
C873 C872 1.334 . S
C873 C874 1.287 1_655 S
C874 C873 1.287 1_455 S
C874 C875 1.524 . S
C874 H893 0.913 . S
C875 H851 0.950 . S
C875 C874 1.524 . S
C875 C876 1.415 . S
C876 H852 0.950 . S
C876 C871 1.363 . S
C876 C875 1.415 . S
C877 H853 0.951 . S
C877 C878 1.366 . S
C877 C879 1.388 . S
C878 C877 1.366 . S
C878 C882 1.385 . S
C879 H854 0.951 . S
C879 C877 1.388 . S
C879 C880 1.366 . S
C880 C879 1.366 . S
C880 C881 1.414 . S
C880 C883 1.499 . S
C881 H855 0.950 . S
C881 C880 1.414 . S
C881 C882 1.374 . S
C882 H856 0.950 . S
C882 C878 1.385 . S
C882 C881 1.374 . S
C883 C880 1.499 . S
C883 C884 1.360 1_554 S
C883 C885 1.389 1_455 S
C884 H857 0.951 . S
C884 C870 1.389 . S
C884 C883 1.360 1_556 S
C885 C869 1.389 . S
C885 C883 1.389 1_655 S
C885 C886 1.524 . S
C886 C885 1.524 . S
C886 C887 1.397 1_655 S
C886 C891 1.363 . S
C887 H858 0.950 . S
C887 C886 1.397 1_455 S
C887 C888 1.334 . S
C888 H859 0.950 . S
C888 C887 1.334 . S
C888 C889 1.287 1_455 S
C889 C888 1.287 1_655 S
C889 C890 1.524 . S
C889 H892 0.999 . S
C890 H860 0.950 . S
C890 C889 1.524 . S
C890 C891 1.415 . S
C891 H861 0.950 . S
C891 C886 1.363 . S
C891 C890 1.415 . S
H892 C889 0.999 . S
H893 C874 0.913 . S
H894 C912 0.951 . S
H895 C914 0.951 . S
H896 C916 0.950 . S
H897 C917 0.950 . S
H898 C919 0.950 . S
H899 C922 0.950 . S
H900 C923 0.950 . S
H901 C925 0.950 . S
H902 C926 0.950 . S
H903 C927 0.951 . S
H904 C929 0.951 . S
H905 C931 0.950 . S
H906 C932 0.950 . S
H907 C934 0.950 . S
H908 C937 0.950 . S
H909 C938 0.950 . S
H910 C940 0.950 . S
H911 C941 0.950 . S
C912 H894 0.951 . S
C912 C913 1.366 . S
C912 C914 1.388 . S
C913 C912 1.366 . S
C913 C917 1.385 . S
C914 H895 0.951 . S
C914 C912 1.388 . S
C914 C915 1.366 . S
C915 C914 1.366 . S
C915 C916 1.414 . S
C915 C918 1.499 . S
C916 H896 0.950 . S
C916 C915 1.414 . S
C916 C917 1.374 . S
C917 H897 0.950 . S
C917 C913 1.385 . S
C917 C916 1.374 . S
C918 C915 1.499 . S
C918 C919 1.373 . S
C918 C920 1.389 . S
C919 H898 0.950 . S
C919 C918 1.373 . S
C919 C935 1.377 . S
C920 C918 1.389 . S
C920 C921 1.524 . S
C920 C934 1.377 . S
C921 C920 1.524 . S
C921 C922 1.397 . S
C921 C926 1.363 . S
C922 H899 0.950 . S
C922 C921 1.397 . S
C922 C923 1.334 . S
C923 H900 0.950 . S
C923 C922 1.334 . S
C923 C924 1.287 . S
C924 C923 1.287 . S
C924 C925 1.524 . S
C924 H943 0.913 . S
C925 H901 0.950 . S
C925 C924 1.524 . S
C925 C926 1.415 . S
C926 H902 0.950 . S
C926 C921 1.363 . S
C926 C925 1.415 . S
C927 H903 0.951 . S
C927 C928 1.366 . S
C927 C929 1.388 . S
C928 C927 1.366 . S
C928 C932 1.385 . S
C929 H904 0.951 . S
C929 C927 1.388 . S
C929 C930 1.366 . S
C930 C929 1.366 . S
C930 C931 1.414 . S
C930 C933 1.499 . S
C931 H905 0.950 . S
C931 C930 1.414 . S
C931 C932 1.374 . S
C932 H906 0.950 . S
C932 C928 1.385 . S
C932 C931 1.374 . S
C933 C930 1.499 . S
C933 C934 1.373 . S
C933 C935 1.389 . S
C934 H907 0.950 . S
C934 C920 1.377 . S
C934 C933 1.373 . S
C935 C919 1.377 . S
C935 C933 1.389 . S
C935 C936 1.524 . S
C936 C935 1.524 . S
C936 C937 1.397 . S
C936 C941 1.363 . S
C937 H908 0.950 . S
C937 C936 1.397 . S
C937 C938 1.334 . S
C938 H909 0.950 . S
C938 C937 1.334 . S
C938 C939 1.287 . S
C939 C938 1.287 . S
C939 C940 1.524 . S
C939 H942 0.999 . S
C940 H910 0.950 . S
C940 C939 1.524 . S
C940 C941 1.415 . S
C941 H911 0.950 . S
C941 C936 1.363 . S
C941 C940 1.415 . S
H942 C939 0.999 . S
H943 C924 0.913 . S
H944 C962 0.951 . S
H945 C964 0.951 . S
H946 C966 0.950 . S
H947 C967 0.950 . S
H948 C969 0.950 . S
H949 C972 0.950 . S
H950 C973 0.950 . S
H951 C975 0.950 . S
H952 C976 0.950 . S
H953 C977 0.951 . S
H954 C979 0.951 . S
H955 C981 0.950 . S
H956 C982 0.950 . S
H957 C984 0.950 . S
H958 C987 0.950 . S
H959 C988 0.950 . S
H960 C990 0.950 . S
H961 C991 0.950 . S
C962 H944 0.951 . S
C962 C963 1.366 . S
C962 C964 1.388 . S
C963 C962 1.366 . S
C963 C967 1.385 . S
C964 H945 0.951 . S
C964 C962 1.388 . S
C964 C965 1.366 . S
C965 C964 1.366 . S
C965 C966 1.414 . S
C965 C968 1.499 . S
C966 H946 0.950 . S
C966 C965 1.414 . S
C966 C967 1.374 . S
C967 H947 0.950 . S
C967 C963 1.385 . S
C967 C966 1.374 . S
C968 C965 1.499 . S
C968 C969 1.373 . S
C968 C970 1.389 . S
C969 H948 0.950 . S
C969 C968 1.373 . S
C969 C985 1.377 . S
C970 C968 1.389 . S
C970 C971 1.524 . S
C970 C984 1.377 . S
C971 C970 1.524 . S
C971 C972 1.397 . S
C971 C976 1.363 . S
C972 H949 0.950 . S
C972 C971 1.397 . S
C972 C973 1.334 . S
C973 H950 0.950 . S
C973 C972 1.334 . S
C973 C974 1.287 . S
C974 C973 1.287 . S
C974 C975 1.524 . S
C974 H993 0.913 . S
C975 H951 0.950 . S
C975 C974 1.524 . S
C975 C976 1.415 . S
C976 H952 0.950 . S
C976 C971 1.363 . S
C976 C975 1.415 . S
C977 H953 0.951 . S
C977 C978 1.366 . S
C977 C979 1.388 . S
C978 C977 1.366 . S
C978 C982 1.385 . S
C979 H954 0.951 . S
C979 C977 1.388 . S
C979 C980 1.366 . S
C980 C979 1.366 . S
C980 C981 1.414 . S
C980 C983 1.499 . S
C981 H955 0.950 . S
C981 C980 1.414 . S
C981 C982 1.374 . S
C982 H956 0.950 . S
C982 C978 1.385 . S
C982 C981 1.374 . S
C983 C980 1.499 . S
C983 C984 1.373 . S
C983 C985 1.389 . S
C984 H957 0.950 . S
C984 C970 1.377 . S
C984 C983 1.373 . S
C985 C969 1.377 . S
C985 C983 1.389 . S
C985 C986 1.524 . S
C986 C985 1.524 . S
C986 C987 1.397 . S
C986 C991 1.363 . S
C987 H958 0.950 . S
C987 C986 1.397 . S
C987 C988 1.334 . S
C988 H959 0.950 . S
C988 C987 1.334 . S
C988 C989 1.287 . S
C989 C988 1.287 . S
C989 C990 1.524 . S
C989 H992 0.999 . S
C990 H960 0.950 . S
C990 C989 1.524 . S
C990 C991 1.415 . S
C991 H961 0.950 . S
C991 C986 1.363 . S
C991 C990 1.415 . S
H992 C989 0.999 . S
H993 C974 0.913 . S
H994 C1012 0.951 . S
H995 C1014 0.951 . S
H996 C1016 0.950 . S
H997 C1017 0.950 . S
H998 C1019 0.950 . S
H999 C1022 0.950 . S
H1000 C1023 0.950 . S
H1001 C1025 0.950 . S
H1002 C1026 0.950 . S
H1003 C1027 0.951 . S
H1004 C1029 0.951 . S
H1005 C1031 0.950 . S
H1006 C1032 0.950 . S
H1007 C1034 0.950 . S
H1008 C1037 0.950 . S
H1009 C1038 0.950 . S
H1010 C1040 0.950 . S
H1011 C1041 0.950 . S
C1012 H994 0.951 . S
C1012 C1013 1.366 . S
C1012 C1014 1.388 . S
C1013 C1012 1.366 . S
C1013 C1017 1.385 . S
C1014 H995 0.951 . S
C1014 C1012 1.388 . S
C1014 C1015 1.366 . S
C1015 C1014 1.366 . S
C1015 C1016 1.414 . S
C1015 C1018 1.499 . S
C1016 H996 0.950 . S
C1016 C1015 1.414 . S
C1016 C1017 1.374 . S
C1017 H997 0.950 . S
C1017 C1013 1.385 . S
C1017 C1016 1.374 . S
C1018 C1015 1.499 . S
C1018 C1019 1.373 . S
C1018 C1020 1.389 . S
C1019 H998 0.950 . S
C1019 C1018 1.373 . S
C1019 C1035 1.377 . S
C1020 C1018 1.389 . S
C1020 C1021 1.524 . S
C1020 C1034 1.377 . S
C1021 C1020 1.524 . S
C1021 C1022 1.397 . S
C1021 C1026 1.363 . S
C1022 H999 0.950 . S
C1022 C1021 1.397 . S
C1022 C1023 1.334 . S
C1023 H1000 0.950 . S
C1023 C1022 1.334 . S
C1023 C1024 1.287 . S
C1024 C1023 1.287 . S
C1024 C1025 1.524 . S
C1024 H1043 0.913 . S
C1025 H1001 0.950 . S
C1025 C1024 1.524 . S
C1025 C1026 1.415 . S
C1026 H1002 0.950 . S
C1026 C1021 1.363 . S
C1026 C1025 1.415 . S
C1027 H1003 0.951 . S
C1027 C1028 1.366 . S
C1027 C1029 1.388 . S
C1028 C1027 1.366 . S
C1028 C1032 1.385 . S
C1029 H1004 0.951 . S
C1029 C1027 1.388 . S
C1029 C1030 1.366 . S
C1030 C1029 1.366 . S
C1030 C1031 1.414 . S
C1030 C1033 1.499 . S
C1031 H1005 0.950 . S
C1031 C1030 1.414 . S
C1031 C1032 1.374 . S
C1032 H1006 0.950 . S
C1032 C1028 1.385 . S
C1032 C1031 1.374 . S
C1033 C1030 1.499 . S
C1033 C1034 1.373 . S
C1033 C1035 1.389 . S
C1034 H1007 0.950 . S
C1034 C1020 1.377 . S
C1034 C1033 1.373 . S
C1035 C1019 1.377 . S
C1035 C1033 1.389 . S
C1035 C1036 1.524 . S
C1036 C1035 1.524 . S
C1036 C1037 1.397 . S
C1036 C1041 1.363 . S
C1037 H1008 0.950 . S
C1037 C1036 1.397 . S
C1037 C1038 1.334 . S
C1038 H1009 0.950 . S
C1038 C1037 1.334 . S
C1038 C1039 1.287 . S
C1039 C1038 1.287 . S
C1039 C1040 1.524 . S
C1039 H1042 0.999 . S
C1040 H1010 0.950 . S
C1040 C1039 1.524 . S
C1040 C1041 1.415 . S
C1041 H1011 0.950 . S
C1041 C1036 1.363 . S
C1041 C1040 1.415 . S
H1042 C1039 0.999 . S
H1043 C1024 0.913 . S
H1044 C1062 0.951 . S
H1045 C1064 0.951 . S
H1046 C1066 0.950 . S
H1047 C1067 0.950 . S
H1048 C1069 0.950 . S
H1049 C1072 0.950 . S
H1050 C1073 0.950 . S
H1051 C1075 0.950 . S
H1052 C1076 0.950 . S
H1053 C1077 0.951 . S
H1054 C1079 0.951 . S
H1055 C1081 0.950 . S
H1056 C1082 0.950 . S
H1057 C1084 0.950 . S
H1058 C1087 0.950 . S
H1059 C1088 0.950 . S
H1060 C1090 0.950 . S
H1061 C1091 0.950 . S
C1062 H1044 0.951 . S
C1062 C1063 1.366 . S
C1062 C1064 1.388 . S
C1063 C1062 1.366 . S
C1063 C1067 1.385 . S
C1064 H1045 0.951 . S
C1064 C1062 1.388 . S
C1064 C1065 1.366 . S
C1065 C1064 1.366 . S
C1065 C1066 1.414 . S
C1065 C1068 1.499 . S
C1066 H1046 0.950 . S
C1066 C1065 1.414 . S
C1066 C1067 1.374 . S
C1067 H1047 0.950 . S
C1067 C1063 1.385 . S
C1067 C1066 1.374 . S
C1068 C1065 1.499 . S
C1068 C1069 1.373 . S
C1068 C1070 1.389 . S
C1069 H1048 0.950 . S
C1069 C1068 1.373 . S
C1069 C1085 1.377 . S
C1070 C1068 1.389 . S
C1070 C1071 1.524 . S
C1070 C1084 1.377 . S
C1071 C1070 1.524 . S
C1071 C1072 1.397 . S
C1071 C1076 1.363 . S
C1072 H1049 0.950 . S
C1072 C1071 1.397 . S
C1072 C1073 1.334 . S
C1073 H1050 0.950 . S
C1073 C1072 1.334 . S
C1073 C1074 1.287 . S
C1074 C1073 1.287 . S
C1074 C1075 1.524 . S
C1074 H1093 0.913 . S
C1075 H1051 0.950 . S
C1075 C1074 1.524 . S
C1075 C1076 1.415 . S
C1076 H1052 0.950 . S
C1076 C1071 1.363 . S
C1076 C1075 1.415 . S
C1077 H1053 0.951 . S
C1077 C1078 1.366 . S
C1077 C1079 1.388 . S
C1078 C1077 1.366 . S
C1078 C1082 1.385 . S
C1079 H1054 0.951 . S
C1079 C1077 1.388 . S
C1079 C1080 1.366 . S
C1080 C1079 1.366 . S
C1080 C1081 1.414 . S
C1080 C1083 1.499 . S
C1081 H1055 0.950 . S
C1081 C1080 1.414 . S
C1081 C1082 1.374 . S
C1082 H1056 0.950 . S
C1082 C1078 1.385 . S
C1082 C1081 1.374 . S
C1083 C1080 1.499 . S
C1083 C1084 1.373 . S
C1083 C1085 1.389 . S
C1084 H1057 0.950 . S
C1084 C1070 1.377 . S
C1084 C1083 1.373 . S
C1085 C1069 1.377 . S
C1085 C1083 1.389 . S
C1085 C1086 1.524 . S
C1086 C1085 1.524 . S
C1086 C1087 1.397 . S
C1086 C1091 1.363 . S
C1087 H1058 0.950 . S
C1087 C1086 1.397 . S
C1087 C1088 1.334 . S
C1088 H1059 0.950 . S
C1088 C1087 1.334 . S
C1088 C1089 1.287 . S
C1089 C1088 1.287 . S
C1089 C1090 1.524 . S
C1089 H1092 0.999 . S
C1090 H1060 0.950 . S
C1090 C1089 1.524 . S
C1090 C1091 1.415 . S
C1091 H1061 0.950 . S
C1091 C1086 1.363 . S
C1091 C1090 1.415 . S
H1092 C1089 0.999 . S
H1093 C1074 0.913 . S
H1094 C1112 0.951 . S
H1095 C1114 0.951 . S
H1096 C1116 0.950 . S
H1097 C1117 0.950 . S
H1098 C1119 0.950 . S
H1099 C1122 0.950 . S
H1100 C1123 0.950 . S
H1101 C1125 0.950 . S
H1102 C1126 0.950 . S
H1103 C1127 0.951 . S
H1104 C1129 0.951 . S
H1105 C1131 0.950 . S
H1106 C1132 0.950 . S
H1107 C1134 0.950 . S
H1108 C1137 0.950 . S
H1109 C1138 0.950 . S
H1110 C1140 0.950 . S
H1111 C1141 0.950 . S
C1112 H1094 0.951 . S
C1112 C1113 1.366 . S
C1112 C1114 1.388 . S
C1113 C1112 1.366 . S
C1113 C1117 1.385 . S
C1114 H1095 0.951 . S
C1114 C1112 1.388 . S
C1114 C1115 1.366 . S
C1115 C1114 1.366 . S
C1115 C1116 1.414 . S
C1115 C1118 1.499 . S
C1116 H1096 0.950 . S
C1116 C1115 1.414 . S
C1116 C1117 1.374 . S
C1117 H1097 0.950 . S
C1117 C1113 1.385 . S
C1117 C1116 1.374 . S
C1118 C1115 1.499 . S
C1118 C1119 1.373 . S
C1118 C1120 1.389 . S
C1119 H1098 0.950 . S
C1119 C1118 1.373 . S
C1119 C1135 1.377 . S
C1120 C1118 1.389 . S
C1120 C1121 1.524 . S
C1120 C1134 1.377 . S
C1121 C1120 1.524 . S
C1121 C1122 1.397 . S
C1121 C1126 1.363 . S
C1122 H1099 0.950 . S
C1122 C1121 1.397 . S
C1122 C1123 1.334 . S
C1123 H1100 0.950 . S
C1123 C1122 1.334 . S
C1123 C1124 1.287 . S
C1124 C1123 1.287 . S
C1124 C1125 1.524 . S
C1124 H1143 0.913 . S
C1125 H1101 0.950 . S
C1125 C1124 1.524 . S
C1125 C1126 1.415 . S
C1126 H1102 0.950 . S
C1126 C1121 1.363 . S
C1126 C1125 1.415 . S
C1127 H1103 0.951 . S
C1127 C1128 1.366 . S
C1127 C1129 1.388 . S
C1128 C1127 1.366 . S
C1128 C1132 1.385 . S
C1129 H1104 0.951 . S
C1129 C1127 1.388 . S
C1129 C1130 1.366 . S
C1130 C1129 1.366 . S
C1130 C1131 1.414 . S
C1130 C1133 1.499 . S
C1131 H1105 0.950 . S
C1131 C1130 1.414 . S
C1131 C1132 1.374 . S
C1132 H1106 0.950 . S
C1132 C1128 1.385 . S
C1132 C1131 1.374 . S
C1133 C1130 1.499 . S
C1133 C1134 1.373 . S
C1133 C1135 1.389 . S
C1134 H1107 0.950 . S
C1134 C1120 1.377 . S
C1134 C1133 1.373 . S
C1135 C1119 1.377 . S
C1135 C1133 1.389 . S
C1135 C1136 1.524 . S
C1136 C1135 1.524 . S
C1136 C1137 1.397 . S
C1136 C1141 1.363 . S
C1137 H1108 0.950 . S
C1137 C1136 1.397 . S
C1137 C1138 1.334 . S
C1138 H1109 0.950 . S
C1138 C1137 1.334 . S
C1138 C1139 1.287 . S
C1139 C1138 1.287 . S
C1139 C1140 1.524 . S
C1139 H1142 0.999 . S
C1140 H1110 0.950 . S
C1140 C1139 1.524 . S
C1140 C1141 1.415 . S
C1141 H1111 0.950 . S
C1141 C1136 1.363 . S
C1141 C1140 1.415 . S
H1142 C1139 0.999 . S
H1143 C1124 0.913 . S
H1144 C1162 0.951 . S
H1145 C1164 0.951 . S
H1146 C1166 0.950 . S
H1147 C1167 0.950 . S
H1148 C1169 0.950 . S
H1149 C1172 0.950 . S
H1150 C1173 0.950 . S
H1151 C1175 0.950 . S
H1152 C1176 0.950 . S
H1153 C1177 0.951 . S
H1154 C1179 0.951 . S
H1155 C1181 0.950 . S
H1156 C1182 0.950 . S
H1157 C1184 0.950 . S
H1158 C1187 0.950 . S
H1159 C1188 0.950 . S
H1160 C1190 0.950 . S
H1161 C1191 0.950 . S
C1162 H1144 0.951 . S
C1162 C1163 1.366 . S
C1162 C1164 1.388 . S
C1163 C1162 1.366 . S
C1163 C1167 1.385 . S
C1164 H1145 0.951 . S
C1164 C1162 1.388 . S
C1164 C1165 1.366 . S
C1165 C1164 1.366 . S
C1165 C1166 1.414 . S
C1165 C1168 1.499 . S
C1166 H1146 0.950 . S
C1166 C1165 1.414 . S
C1166 C1167 1.374 . S
C1167 H1147 0.950 . S
C1167 C1163 1.385 . S
C1167 C1166 1.374 . S
C1168 C1165 1.499 . S
C1168 C1169 1.373 . S
C1168 C1170 1.389 . S
C1169 H1148 0.950 . S
C1169 C1168 1.373 . S
C1169 C1185 1.377 . S
C1170 C1168 1.389 . S
C1170 C1171 1.524 . S
C1170 C1184 1.377 . S
C1171 C1170 1.524 . S
C1171 C1172 1.397 . S
C1171 C1176 1.363 . S
C1172 H1149 0.950 . S
C1172 C1171 1.397 . S
C1172 C1173 1.334 . S
C1173 H1150 0.950 . S
C1173 C1172 1.334 . S
C1173 C1174 1.287 . S
C1174 C1173 1.287 . S
C1174 C1175 1.524 . S
C1174 H1193 0.913 . S
C1175 H1151 0.950 . S
C1175 C1174 1.524 . S
C1175 C1176 1.415 . S
C1176 H1152 0.950 . S
C1176 C1171 1.363 . S
C1176 C1175 1.415 . S
C1177 H1153 0.951 . S
C1177 C1178 1.366 . S
C1177 C1179 1.388 . S
C1178 C1177 1.366 . S
C1178 C1182 1.385 . S
C1179 H1154 0.951 . S
C1179 C1177 1.388 . S
C1179 C1180 1.366 . S
C1180 C1179 1.366 . S
C1180 C1181 1.414 . S
C1180 C1183 1.499 . S
C1181 H1155 0.950 . S
C1181 C1180 1.414 . S
C1181 C1182 1.374 . S
C1182 H1156 0.950 . S
C1182 C1178 1.385 . S
C1182 C1181 1.374 . S
C1183 C1180 1.499 . S
C1183 C1184 1.373 . S
C1183 C1185 1.389 . S
C1184 H1157 0.950 . S
C1184 C1170 1.377 . S
C1184 C1183 1.373 . S
C1185 C1169 1.377 . S
C1185 C1183 1.389 . S
C1185 C1186 1.524 . S
C1186 C1185 1.524 . S
C1186 C1187 1.397 . S
C1186 C1191 1.363 . S
C1187 H1158 0.950 . S
C1187 C1186 1.397 . S
C1187 C1188 1.334 . S
C1188 H1159 0.950 . S
C1188 C1187 1.334 . S
C1188 C1189 1.287 . S
C1189 C1188 1.287 . S
C1189 C1190 1.524 . S
C1189 H1192 0.999 . S
C1190 H1160 0.950 . S
C1190 C1189 1.524 . S
C1190 C1191 1.415 . S
C1191 H1161 0.950 . S
C1191 C1186 1.363 . S
C1191 C1190 1.415 . S
H1192 C1189 0.999 . S
H1193 C1174 0.913 . S
H1194 C1212 0.951 . S
H1195 C1214 0.951 . S
H1196 C1216 0.950 . S
H1197 C1217 0.950 . S
H1198 C1219 0.950 . S
H1199 C1222 0.950 . S
H1200 C1223 0.950 . S
H1201 C1225 0.950 . S
H1202 C1226 0.950 . S
H1203 C1227 0.951 . S
H1204 C1229 0.951 . S
H1205 C1231 0.950 . S
H1206 C1232 0.950 . S
H1207 C1234 0.950 . S
H1208 C1237 0.950 . S
H1209 C1238 0.950 . S
H1210 C1240 0.950 . S
H1211 C1241 0.950 . S
C1212 H1194 0.951 . S
C1212 C1213 1.366 . S
C1212 C1214 1.388 . S
C1213 C1212 1.366 . S
C1213 C1217 1.385 . S
C1214 H1195 0.951 . S
C1214 C1212 1.388 . S
C1214 C1215 1.366 . S
C1215 C1214 1.366 . S
C1215 C1216 1.414 . S
C1215 C1218 1.499 . S
C1216 H1196 0.950 . S
C1216 C1215 1.414 . S
C1216 C1217 1.374 . S
C1217 H1197 0.950 . S
C1217 C1213 1.385 . S
C1217 C1216 1.374 . S
C1218 C1215 1.499 . S
C1218 C1219 1.373 . S
C1218 C1220 1.389 . S
C1219 H1198 0.950 . S
C1219 C1218 1.373 . S
C1219 C1235 1.377 . S
C1220 C1218 1.389 . S
C1220 C1221 1.524 . S
C1220 C1234 1.377 . S
C1221 C1220 1.524 . S
C1221 C1222 1.397 . S
C1221 C1226 1.363 . S
C1222 H1199 0.950 . S
C1222 C1221 1.397 . S
C1222 C1223 1.334 . S
C1223 H1200 0.950 . S
C1223 C1222 1.334 . S
C1223 C1224 1.287 . S
C1224 C1223 1.287 . S
C1224 C1225 1.524 . S
C1224 H1243 0.913 . S
C1225 H1201 0.950 . S
C1225 C1224 1.524 . S
C1225 C1226 1.415 . S
C1226 H1202 0.950 . S
C1226 C1221 1.363 . S
C1226 C1225 1.415 . S
C1227 H1203 0.951 . S
C1227 C1228 1.366 . S
C1227 C1229 1.388 . S
C1228 C1227 1.366 . S
C1228 C1232 1.385 . S
C1229 H1204 0.951 . S
C1229 C1227 1.388 . S
C1229 C1230 1.366 . S
C1230 C1229 1.366 . S
C1230 C1231 1.414 . S
C1230 C1233 1.499 . S
C1231 H1205 0.950 . S
C1231 C1230 1.414 . S
C1231 C1232 1.374 . S
C1232 H1206 0.950 . S
C1232 C1228 1.385 . S
C1232 C1231 1.374 . S
C1233 C1230 1.499 . S
C1233 C1234 1.373 . S
C1233 C1235 1.389 . S
C1234 H1207 0.950 . S
C1234 C1220 1.377 . S
C1234 C1233 1.373 . S
C1235 C1219 1.377 . S
C1235 C1233 1.389 . S
C1235 C1236 1.524 . S
C1236 C1235 1.524 . S
C1236 C1237 1.397 . S
C1236 C1241 1.363 . S
C1237 H1208 0.950 . S
C1237 C1236 1.397 . S
C1237 C1238 1.334 . S
C1238 H1209 0.950 . S
C1238 C1237 1.334 . S
C1238 C1239 1.287 . S
C1239 C1238 1.287 . S
C1239 C1240 1.524 . S
C1239 H1242 0.999 . S
C1240 H1210 0.950 . S
C1240 C1239 1.524 . S
C1240 C1241 1.415 . S
C1241 H1211 0.950 . S
C1241 C1236 1.363 . S
C1241 C1240 1.415 . S
H1242 C1239 0.999 . S
H1243 C1224 0.913 . S
H1244 C1262 0.951 . S
H1245 C1264 0.951 . S
H1246 C1266 0.950 . S
H1247 C1267 0.950 . S
H1248 C1269 0.950 . S
H1249 C1272 0.950 . S
H1250 C1273 0.950 . S
H1251 C1275 0.950 . S
H1252 C1276 0.950 . S
H1253 C1277 0.951 . S
H1254 C1279 0.951 . S
H1255 C1281 0.950 . S
H1256 C1282 0.950 . S
H1257 C1284 0.950 . S
H1258 C1287 0.950 . S
H1259 C1288 0.950 . S
H1260 C1290 0.950 . S
H1261 C1291 0.950 . S
C1262 H1244 0.951 . S
C1262 C1263 1.366 . S
C1262 C1264 1.388 . S
C1263 C1262 1.366 . S
C1263 C1267 1.385 . S
C1264 H1245 0.951 . S
C1264 C1262 1.388 . S
C1264 C1265 1.366 . S
C1265 C1264 1.366 . S
C1265 C1266 1.414 . S
C1265 C1268 1.499 . S
C1266 H1246 0.950 . S
C1266 C1265 1.414 . S
C1266 C1267 1.374 . S
C1267 H1247 0.950 . S
C1267 C1263 1.385 . S
C1267 C1266 1.374 . S
C1268 C1265 1.499 . S
C1268 C1269 1.373 . S
C1268 C1270 1.389 . S
C1269 H1248 0.950 . S
C1269 C1268 1.373 . S
C1269 C1285 1.377 . S
C1270 C1268 1.389 . S
C1270 C1271 1.524 . S
C1270 C1284 1.377 . S
C1271 C1270 1.524 . S
C1271 C1272 1.397 . S
C1271 C1276 1.363 . S
C1272 H1249 0.950 . S
C1272 C1271 1.397 . S
C1272 C1273 1.334 . S
C1273 H1250 0.950 . S
C1273 C1272 1.334 . S
C1273 C1274 1.287 . S
C1274 C1273 1.287 . S
C1274 C1275 1.524 . S
C1274 H1293 0.913 . S
C1275 H1251 0.950 . S
C1275 C1274 1.524 . S
C1275 C1276 1.415 . S
C1276 H1252 0.950 . S
C1276 C1271 1.363 . S
C1276 C1275 1.415 . S
C1277 H1253 0.951 . S
C1277 C1278 1.366 . S
C1277 C1279 1.388 . S
C1278 C1277 1.366 . S
C1278 C1282 1.385 . S
C1279 H1254 0.951 . S
C1279 C1277 1.388 . S
C1279 C1280 1.366 . S
C1280 C1279 1.366 . S
C1280 C1281 1.414 . S
C1280 C1283 1.499 . S
C1281 H1255 0.950 . S
C1281 C1280 1.414 . S
C1281 C1282 1.374 . S
C1282 H1256 0.950 . S
C1282 C1278 1.385 . S
C1282 C1281 1.374 . S
C1283 C1280 1.499 . S
C1283 C1284 1.373 . S
C1283 C1285 1.389 . S
C1284 H1257 0.950 . S
C1284 C1270 1.377 . S
C1284 C1283 1.373 . S
C1285 C1269 1.377 . S
C1285 C1283 1.389 . S
C1285 C1286 1.524 . S
C1286 C1285 1.524 . S
C1286 C1287 1.397 . S
C1286 C1291 1.363 . S
C1287 H1258 0.950 . S
C1287 C1286 1.397 . S
C1287 C1288 1.334 . S
C1288 H1259 0.950 . S
C1288 C1287 1.334 . S
C1288 C1289 1.287 . S
C1289 C1288 1.287 . S
C1289 C1290 1.524 . S
C1289 H1292 0.999 . S
C1290 H1260 0.950 . S
C1290 C1289 1.524 . S
C1290 C1291 1.415 . S
C1291 H1261 0.950 . S
C1291 C1286 1.363 . S
C1291 C1290 1.415 . S
H1292 C1289 0.999 . S
H1293 C1274 0.913 . S
H1294 C1312 0.951 . S
H1295 C1314 0.951 . S
H1296 C1316 0.950 . S
H1297 C1317 0.950 . S
H1298 C1319 0.950 . S
H1299 C1322 0.950 . S
H1300 C1323 0.950 . S
H1301 C1325 0.950 . S
H1302 C1326 0.950 . S
H1303 C1327 0.951 . S
H1304 C1329 0.951 . S
H1305 C1331 0.950 . S
H1306 C1332 0.950 . S
H1307 C1334 0.950 . S
H1308 C1337 0.950 . S
H1309 C1338 0.950 . S
H1310 C1340 0.950 . S
H1311 C1341 0.950 . S
C1312 H1294 0.951 . S
C1312 C1313 1.366 . S
C1312 C1314 1.388 . S
C1313 C1312 1.366 . S
C1313 C1317 1.385 . S
C1314 H1295 0.951 . S
C1314 C1312 1.388 . S
C1314 C1315 1.366 . S
C1315 C1314 1.366 . S
C1315 C1316 1.414 . S
C1315 C1318 1.499 . S
C1316 H1296 0.950 . S
C1316 C1315 1.414 . S
C1316 C1317 1.374 . S
C1317 H1297 0.950 . S
C1317 C1313 1.385 . S
C1317 C1316 1.374 . S
C1318 C1315 1.499 . S
C1318 C1319 1.373 . S
C1318 C1320 1.389 . S
C1319 H1298 0.950 . S
C1319 C1318 1.373 . S
C1319 C1335 1.377 . S
C1320 C1318 1.389 . S
C1320 C1321 1.524 . S
C1320 C1334 1.377 . S
C1321 C1320 1.524 . S
C1321 C1322 1.397 . S
C1321 C1326 1.363 . S
C1322 H1299 0.950 . S
C1322 C1321 1.397 . S
C1322 C1323 1.334 . S
C1323 H1300 0.950 . S
C1323 C1322 1.334 . S
C1323 C1324 1.287 . S
C1324 C1323 1.287 . S
C1324 C1325 1.524 . S
C1324 H1343 0.913 . S
C1325 H1301 0.950 . S
C1325 C1324 1.524 . S
C1325 C1326 1.415 . S
C1326 H1302 0.950 . S
C1326 C1321 1.363 . S
C1326 C1325 1.415 . S
C1327 H1303 0.951 . S
C1327 C1328 1.366 . S
C1327 C1329 1.388 . S
C1328 C1327 1.366 . S
C1328 C1332 1.385 . S
C1329 H1304 0.951 . S
C1329 C1327 1.388 . S
C1329 C1330 1.366 . S
C1330 C1329 1.366 . S
C1330 C1331 1.414 . S
C1330 C1333 1.499 . S
C1331 H1305 0.950 . S
C1331 C1330 1.414 . S
C1331 C1332 1.374 . S
C1332 H1306 0.950 . S
C1332 C1328 1.385 . S
C1332 C1331 1.374 . S
C1333 C1330 1.499 . S
C1333 C1334 1.373 . S
C1333 C1335 1.389 . S
C1334 H1307 0.950 . S
C1334 C1320 1.377 . S
C1334 C1333 1.373 . S
C1335 C1319 1.377 . S
C1335 C1333 1.389 . S
C1335 C1336 1.524 . S
C1336 C1335 1.524 . S
C1336 C1337 1.397 . S
C1336 C1341 1.363 . S
C1337 H1308 0.950 . S
C1337 C1336 1.397 . S
C1337 C1338 1.334 . S
C1338 H1309 0.950 . S
C1338 C1337 1.334 . S
C1338 C1339 1.287 . S
C1339 C1338 1.287 . S
C1339 C1340 1.524 . S
C1339 H1342 0.999 . S
C1340 H1310 0.950 . S
C1340 C1339 1.524 . S
C1340 C1341 1.415 . S
C1341 H1311 0.950 . S
C1341 C1336 1.363 . S
C1341 C1340 1.415 . S
H1342 C1339 0.999 . S
H1343 C1324 0.913 . S
H1344 C1362 0.951 . S
H1345 C1364 0.951 . S
H1346 C1366 0.950 . S
H1347 C1367 0.950 . S
H1348 C1369 0.950 . S
H1349 C1372 0.950 . S
H1350 C1373 0.950 . S
H1351 C1375 0.950 . S
H1352 C1376 0.950 . S
H1353 C1377 0.951 . S
H1354 C1379 0.951 . S
H1355 C1381 0.950 . S
H1356 C1382 0.950 . S
H1357 C1384 0.950 . S
H1358 C1387 0.950 . S
H1359 C1388 0.950 . S
H1360 C1390 0.950 . S
H1361 C1391 0.950 . S
C1362 H1344 0.951 . S
C1362 C1363 1.366 . S
C1362 C1364 1.388 . S
C1363 C1362 1.366 . S
C1363 C1367 1.385 . S
C1364 H1345 0.951 . S
C1364 C1362 1.388 . S
C1364 C1365 1.366 . S
C1365 C1364 1.366 . S
C1365 C1366 1.414 . S
C1365 C1368 1.499 . S
C1366 H1346 0.950 . S
C1366 C1365 1.414 . S
C1366 C1367 1.374 . S
C1367 H1347 0.950 . S
C1367 C1363 1.385 . S
C1367 C1366 1.374 . S
C1368 C1365 1.499 . S
C1368 C1369 1.373 . S
C1368 C1370 1.389 . S
C1369 H1348 0.950 . S
C1369 C1368 1.373 . S
C1369 C1385 1.377 . S
C1370 C1368 1.389 . S
C1370 C1371 1.524 . S
C1370 C1384 1.377 . S
C1371 C1370 1.524 . S
C1371 C1372 1.397 . S
C1371 C1376 1.363 . S
C1372 H1349 0.950 . S
C1372 C1371 1.397 . S
C1372 C1373 1.334 . S
C1373 H1350 0.950 . S
C1373 C1372 1.334 . S
C1373 C1374 1.287 . S
C1374 C1373 1.287 . S
C1374 C1375 1.524 . S
C1374 H1393 0.913 . S
C1375 H1351 0.950 . S
C1375 C1374 1.524 . S
C1375 C1376 1.415 . S
C1376 H1352 0.950 . S
C1376 C1371 1.363 . S
C1376 C1375 1.415 . S
C1377 H1353 0.951 . S
C1377 C1378 1.366 . S
C1377 C1379 1.388 . S
C1378 C1377 1.366 . S
C1378 C1382 1.385 . S
C1379 H1354 0.951 . S
C1379 C1377 1.388 . S
C1379 C1380 1.366 . S
C1380 C1379 1.366 . S
C1380 C1381 1.414 . S
C1380 C1383 1.499 . S
C1381 H1355 0.950 . S
C1381 C1380 1.414 . S
C1381 C1382 1.374 . S
C1382 H1356 0.950 . S
C1382 C1378 1.385 . S
C1382 C1381 1.374 . S
C1383 C1380 1.499 . S
C1383 C1384 1.373 . S
C1383 C1385 1.389 . S
C1384 H1357 0.950 . S
C1384 C1370 1.377 . S
C1384 C1383 1.373 . S
C1385 C1369 1.377 . S
C1385 C1383 1.389 . S
C1385 C1386 1.524 . S
C1386 C1385 1.524 . S
C1386 C1387 1.397 . S
C1386 C1391 1.363 . S
C1387 H1358 0.950 . S
C1387 C1386 1.397 . S
C1387 C1388 1.334 . S
C1388 H1359 0.950 . S
C1388 C1387 1.334 . S
C1388 C1389 1.287 . S
C1389 C1388 1.287 . S
C1389 C1390 1.524 . S
C1389 H1392 0.999 . S
C1390 H1360 0.950 . S
C1390 C1389 1.524 . S
C1390 C1391 1.415 . S
C1391 H1361 0.950 . S
C1391 C1386 1.363 . S
C1391 C1390 1.415 . S
H1392 C1389 0.999 . S
H1393 C1374 0.913 . S
H1394 C1412 0.951 . S
H1395 C1414 0.951 . S
H1396 C1416 0.950 . S
H1397 C1417 0.950 . S
H1398 C1419 0.950 . S
H1399 C1422 0.950 . S
H1400 C1423 0.950 . S
H1401 C1425 0.950 . S
H1402 C1426 0.950 . S
H1403 C1427 0.951 . S
H1404 C1429 0.951 . S
H1405 C1431 0.950 . S
H1406 C1432 0.950 . S
H1407 C1434 0.950 . S
H1408 C1437 0.950 . S
H1409 C1438 0.950 . S
H1410 C1440 0.950 . S
H1411 C1441 0.950 . S
C1412 H1394 0.951 . S
C1412 C1413 1.366 . S
C1412 C1414 1.388 . S
C1413 C1412 1.366 . S
C1413 C1417 1.385 . S
C1414 H1395 0.951 . S
C1414 C1412 1.388 . S
C1414 C1415 1.366 . S
C1415 C1414 1.366 . S
C1415 C1416 1.414 . S
C1415 C1418 1.499 . S
C1416 H1396 0.950 . S
C1416 C1415 1.414 . S
C1416 C1417 1.374 . S
C1417 H1397 0.950 . S
C1417 C1413 1.385 . S
C1417 C1416 1.374 . S
C1418 C1415 1.499 . S
C1418 C1419 1.373 . S
C1418 C1420 1.389 . S
C1419 H1398 0.950 . S
C1419 C1418 1.373 . S
C1419 C1435 1.377 . S
C1420 C1418 1.389 . S
C1420 C1421 1.524 . S
C1420 C1434 1.377 . S
C1421 C1420 1.524 . S
C1421 C1422 1.397 . S
C1421 C1426 1.363 . S
C1422 H1399 0.950 . S
C1422 C1421 1.397 . S
C1422 C1423 1.334 . S
C1423 H1400 0.950 . S
C1423 C1422 1.334 . S
C1423 C1424 1.287 . S
C1424 C1423 1.287 . S
C1424 C1425 1.524 . S
C1424 H1443 0.913 . S
C1425 H1401 0.950 . S
C1425 C1424 1.524 . S
C1425 C1426 1.415 . S
C1426 H1402 0.950 . S
C1426 C1421 1.363 . S
C1426 C1425 1.415 . S
C1427 H1403 0.951 . S
C1427 C1428 1.366 . S
C1427 C1429 1.388 . S
C1428 C1427 1.366 . S
C1428 C1432 1.385 . S
C1429 H1404 0.951 . S
C1429 C1427 1.388 . S
C1429 C1430 1.366 . S
C1430 C1429 1.366 . S
C1430 C1431 1.414 . S
C1430 C1433 1.499 . S
C1431 H1405 0.950 . S
C1431 C1430 1.414 . S
C1431 C1432 1.374 . S
C1432 H1406 0.950 . S
C1432 C1428 1.385 . S
C1432 C1431 1.374 . S
C1433 C1430 1.499 . S
C1433 C1434 1.373 . S
C1433 C1435 1.389 . S
C1434 H1407 0.950 . S
C1434 C1420 1.377 . S
C1434 C1433 1.373 . S
C1435 C1419 1.377 . S
C1435 C1433 1.389 . S
C1435 C1436 1.524 . S
C1436 C1435 1.524 . S
C1436 C1437 1.397 . S
C1436 C1441 1.363 . S
C1437 H1408 0.950 . S
C1437 C1436 1.397 . S
C1437 C1438 1.334 . S
C1438 H1409 0.950 . S
C1438 C1437 1.334 . S
C1438 C1439 1.287 . S
C1439 C1438 1.287 . S
C1439 C1440 1.524 . S
C1439 H1442 0.999 . S
C1440 H1410 0.950 . S
C1440 C1439 1.524 . S
C1440 C1441 1.415 . S
C1441 H1411 0.950 . S
C1441 C1436 1.363 . S
C1441 C1440 1.415 . S
H1442 C1439 0.999 . S
H1443 C1424 0.913 . S
H1444 C1462 0.951 . S
H1445 C1464 0.951 . S
H1446 C1466 0.950 . S
H1447 C1467 0.950 . S
H1448 C1469 0.950 . S
H1449 C1472 0.950 . S
H1450 C1473 0.950 . S
H1451 C1475 0.950 . S
H1452 C1476 0.950 . S
H1453 C1477 0.951 . S
H1454 C1479 0.951 . S
H1455 C1481 0.950 . S
H1456 C1482 0.950 . S
H1457 C1484 0.950 . S
H1458 C1487 0.950 . S
H1459 C1488 0.950 . S
H1460 C1490 0.950 . S
H1461 C1491 0.950 . S
C1462 H1444 0.951 . S
C1462 C1463 1.366 . S
C1462 C1464 1.388 . S
C1463 C1462 1.366 . S
C1463 C1467 1.385 . S
C1464 H1445 0.951 . S
C1464 C1462 1.388 . S
C1464 C1465 1.366 . S
C1465 C1464 1.366 . S
C1465 C1466 1.414 . S
C1465 C1468 1.499 . S
C1466 H1446 0.950 . S
C1466 C1465 1.414 . S
C1466 C1467 1.374 . S
C1467 H1447 0.950 . S
C1467 C1463 1.385 . S
C1467 C1466 1.374 . S
C1468 C1465 1.499 . S
C1468 C1469 1.373 . S
C1468 C1470 1.389 . S
C1469 H1448 0.950 . S
C1469 C1468 1.373 . S
C1469 C1485 1.377 . S
C1470 C1468 1.389 . S
C1470 C1471 1.524 . S
C1470 C1484 1.377 . S
C1471 C1470 1.524 . S
C1471 C1472 1.397 . S
C1471 C1476 1.363 . S
C1472 H1449 0.950 . S
C1472 C1471 1.397 . S
C1472 C1473 1.334 . S
C1473 H1450 0.950 . S
C1473 C1472 1.334 . S
C1473 C1474 1.287 . S
C1474 C1473 1.287 . S
C1474 C1475 1.524 . S
C1474 H1493 0.913 . S
C1475 H1451 0.950 . S
C1475 C1474 1.524 . S
C1475 C1476 1.415 . S
C1476 H1452 0.950 . S
C1476 C1471 1.363 . S
C1476 C1475 1.415 . S
C1477 H1453 0.951 . S
C1477 C1478 1.366 . S
C1477 C1479 1.388 . S
C1478 C1477 1.366 . S
C1478 C1482 1.385 . S
C1479 H1454 0.951 . S
C1479 C1477 1.388 . S
C1479 C1480 1.366 . S
C1480 C1479 1.366 . S
C1480 C1481 1.414 . S
C1480 C1483 1.499 . S
C1481 H1455 0.950 . S
C1481 C1480 1.414 . S
C1481 C1482 1.374 . S
C1482 H1456 0.950 . S
C1482 C1478 1.385 . S
C1482 C1481 1.374 . S
C1483 C1480 1.499 . S
C1483 C1484 1.373 . S
C1483 C1485 1.389 . S
C1484 H1457 0.950 . S
C1484 C1470 1.377 . S
C1484 C1483 1.373 . S
C1485 C1469 1.377 . S
C1485 C1483 1.389 . S
C1485 C1486 1.524 . S
C1486 C1485 1.524 . S
C1486 C1487 1.397 . S
C1486 C1491 1.363 . S
C1487 H1458 0.950 . S
C1487 C1486 1.397 . S
C1487 C1488 1.334 . S
C1488 H1459 0.950 . S
C1488 C1487 1.334 . S
C1488 C1489 1.287 . S
C1489 C1488 1.287 . S
C1489 C1490 1.524 . S
C1489 H1492 0.999 . S
C1490 H1460 0.950 . S
C1490 C1489 1.524 . S
C1490 C1491 1.415 . S
C1491 H1461 0.950 . S
C1491 C1486 1.363 . S
C1491 C1490 1.415 . S
H1492 C1489 0.999 . S
H1493 C1474 0.913 . S
H1494 C1512 0.951 . S
H1495 C1514 0.951 . S
H1496 C1516 0.950 . S
H1497 C1517 0.950 . S
H1498 C1519 0.950 . S
H1499 C1522 0.950 . S
H1500 C1523 0.950 . S
H1501 C1525 0.950 . S
H1502 C1526 0.950 . S
H1503 C1527 0.951 . S
H1504 C1529 0.951 . S
H1505 C1531 0.950 . S
H1506 C1532 0.950 . S
H1507 C1534 0.950 . S
H1508 C1537 0.950 . S
H1509 C1538 0.950 . S
H1510 C1540 0.950 . S
H1511 C1541 0.950 . S
C1512 H1494 0.951 . S
C1512 C1513 1.366 . S
C1512 C1514 1.388 . S
C1513 C1512 1.366 . S
C1513 C1517 1.385 . S
C1514 H1495 0.951 . S
C1514 C1512 1.388 . S
C1514 C1515 1.366 . S
C1515 C1514 1.366 . S
C1515 C1516 1.414 . S
C1515 C1518 1.499 . S
C1516 H1496 0.950 . S
C1516 C1515 1.414 . S
C1516 C1517 1.374 . S
C1517 H1497 0.950 . S
C1517 C1513 1.385 . S
C1517 C1516 1.374 . S
C1518 C1515 1.499 . S
C1518 C1519 1.373 . S
C1518 C1520 1.389 . S
C1519 H1498 0.950 . S
C1519 C1518 1.373 . S
C1519 C1535 1.377 . S
C1520 C1518 1.389 . S
C1520 C1521 1.524 . S
C1520 C1534 1.377 . S
C1521 C1520 1.524 . S
C1521 C1522 1.397 . S
C1521 C1526 1.363 . S
C1522 H1499 0.950 . S
C1522 C1521 1.397 . S
C1522 C1523 1.334 . S
C1523 H1500 0.950 . S
C1523 C1522 1.334 . S
C1523 C1524 1.287 . S
C1524 C1523 1.287 . S
C1524 C1525 1.524 . S
C1524 H1543 0.913 . S
C1525 H1501 0.950 . S
C1525 C1524 1.524 . S
C1525 C1526 1.415 . S
C1526 H1502 0.950 . S
C1526 C1521 1.363 . S
C1526 C1525 1.415 . S
C1527 H1503 0.951 . S
C1527 C1528 1.366 . S
C1527 C1529 1.388 . S
C1528 C1527 1.366 . S
C1528 C1532 1.385 . S
C1529 H1504 0.951 . S
C1529 C1527 1.388 . S
C1529 C1530 1.366 . S
C1530 C1529 1.366 . S
C1530 C1531 1.414 . S
C1530 C1533 1.499 . S
C1531 H1505 0.950 . S
C1531 C1530 1.414 . S
C1531 C1532 1.374 . S
C1532 H1506 0.950 . S
C1532 C1528 1.385 . S
C1532 C1531 1.374 . S
C1533 C1530 1.499 . S
C1533 C1534 1.373 . S
C1533 C1535 1.389 . S
C1534 H1507 0.950 . S
C1534 C1520 1.377 . S
C1534 C1533 1.373 . S
C1535 C1519 1.377 . S
C1535 C1533 1.389 . S
C1535 C1536 1.524 . S
C1536 C1535 1.524 . S
C1536 C1537 1.397 . S
C1536 C1541 1.363 . S
C1537 H1508 0.950 . S
C1537 C1536 1.397 . S
C1537 C1538 1.334 . S
C1538 H1509 0.950 . S
C1538 C1537 1.334 . S
C1538 C1539 1.287 . S
C1539 C1538 1.287 . S
C1539 C1540 1.524 . S
C1539 H1542 0.999 . S
C1540 H1510 0.950 . S
C1540 C1539 1.524 . S
C1540 C1541 1.415 . S
C1541 H1511 0.950 . S
C1541 C1536 1.363 . S
C1541 C1540 1.415 . S
H1542 C1539 0.999 . S
H1543 C1524 0.913 . S
H1544 C1562 0.951 . S
H1545 C1564 0.951 . S
H1546 C1566 0.950 . S
H1547 C1567 0.950 . S
H1548 C1569 0.950 . S
H1549 C1572 0.950 . S
H1550 C1573 0.950 . S
H1551 C1575 0.950 . S
H1552 C1576 0.950 . S
H1553 C1577 0.951 . S
H1554 C1579 0.951 . S
H1555 C1581 0.950 . S
H1556 C1582 0.950 . S
H1557 C1584 0.950 . S
H1558 C1587 0.950 . S
H1559 C1588 0.950 . S
H1560 C1590 0.950 . S
H1561 C1591 0.950 . S
C1562 H1544 0.951 . S
C1562 C1563 1.366 . S
C1562 C1564 1.388 . S
C1563 C1562 1.366 . S
C1563 C1567 1.385 . S
C1564 H1545 0.951 . S
C1564 C1562 1.388 . S
C1564 C1565 1.366 . S
C1565 C1564 1.366 . S
C1565 C1566 1.414 . S
C1565 C1568 1.499 . S
C1566 H1546 0.950 . S
C1566 C1565 1.414 . S
C1566 C1567 1.374 . S
C1567 H1547 0.950 . S
C1567 C1563 1.385 . S
C1567 C1566 1.374 . S
C1568 C1565 1.499 . S
C1568 C1569 1.373 . S
C1568 C1570 1.389 . S
C1569 H1548 0.950 . S
C1569 C1568 1.373 . S
C1569 C1585 1.377 . S
C1570 C1568 1.389 . S
C1570 C1571 1.524 . S
C1570 C1584 1.377 . S
C1571 C1570 1.524 . S
C1571 C1572 1.397 . S
C1571 C1576 1.363 . S
C1572 H1549 0.950 . S
C1572 C1571 1.397 . S
C1572 C1573 1.334 . S
C1573 H1550 0.950 . S
C1573 C1572 1.334 . S
C1573 C1574 1.287 . S
C1574 C1573 1.287 . S
C1574 C1575 1.524 . S
C1574 H1593 0.913 . S
C1575 H1551 0.950 . S
C1575 C1574 1.524 . S
C1575 C1576 1.415 . S
C1576 H1552 0.950 . S
C1576 C1571 1.363 . S
C1576 C1575 1.415 . S
C1577 H1553 0.951 . S
C1577 C1578 1.366 . S
C1577 C1579 1.388 . S
C1578 C1577 1.366 . S
C1578 C1582 1.385 . S
C1579 H1554 0.951 . S
C1579 C1577 1.388 . S
C1579 C1580 1.366 . S
C1580 C1579 1.366 . S
C1580 C1581 1.414 . S
C1580 C1583 1.499 . S
C1581 H1555 0.950 . S
C1581 C1580 1.414 . S
C1581 C1582 1.374 . S
C1582 H1556 0.950 . S
C1582 C1578 1.385 . S
C1582 C1581 1.374 . S
C1583 C1580 1.499 . S
C1583 C1584 1.373 . S
C1583 C1585 1.389 . S
C1584 H1557 0.950 . S
C1584 C1570 1.377 . S
C1584 C1583 1.373 . S
C1585 C1569 1.377 . S
C1585 C1583 1.389 . S
C1585 C1586 1.524 . S
C1586 C1585 1.524 . S
C1586 C1587 1.397 . S
C1586 C1591 1.363 . S
C1587 H1558 0.950 . S
C1587 C1586 1.397 . S
C1587 C1588 1.334 . S
C1588 H1559 0.950 . S
C1588 C1587 1.334 . S
C1588 C1589 1.287 . S
C1589 C1588 1.287 . S
C1589 C1590 1.524 . S
C1589 H1592 0.999 . S
C1590 H1560 0.950 . S
C1590 C1589 1.524 . S
C1590 C1591 1.415 . S
C1591 H1561 0.950 . S
C1591 C1586 1.363 . S
C1591 C1590 1.415 . S
H1592 C1589 0.999 . S
H1593 C1574 0.913 . S
H1594 C1612 0.951 . S
H1595 C1614 0.951 . S
H1596 C1616 0.950 . S
H1597 C1617 0.950 . S
H1598 C1619 0.950 . S
H1599 C1622 0.950 . S
H1600 C1623 0.950 . S
H1601 C1625 0.950 . S
H1602 C1626 0.950 . S
H1603 C1627 0.951 . S
H1604 C1629 0.951 . S
H1605 C1631 0.950 . S
H1606 C1632 0.950 . S
H1607 C1634 0.950 . S
H1608 C1637 0.950 . S
H1609 C1638 0.950 . S
H1610 C1640 0.950 . S
H1611 C1641 0.950 . S
C1612 H1594 0.951 . S
C1612 C1613 1.366 . S
C1612 C1614 1.388 . S
C1613 C1612 1.366 . S
C1613 C1617 1.385 . S
C1614 H1595 0.951 . S
C1614 C1612 1.388 . S
C1614 C1615 1.366 . S
C1615 C1614 1.366 . S
C1615 C1616 1.414 . S
C1615 C1618 1.499 . S
C1616 H1596 0.950 . S
C1616 C1615 1.414 . S
C1616 C1617 1.374 . S
C1617 H1597 0.950 . S
C1617 C1613 1.385 . S
C1617 C1616 1.374 . S
C1618 C1615 1.499 . S
C1618 C1619 1.373 . S
C1618 C1620 1.389 . S
C1619 H1598 0.950 . S
C1619 C1618 1.373 . S
C1619 C1635 1.377 . S
C1620 C1618 1.389 . S
C1620 C1621 1.524 . S
C1620 C1634 1.377 . S
C1621 C1620 1.524 . S
C1621 C1622 1.397 . S
C1621 C1626 1.363 . S
C1622 H1599 0.950 . S
C1622 C1621 1.397 . S
C1622 C1623 1.334 . S
C1623 H1600 0.950 . S
C1623 C1622 1.334 . S
C1623 C1624 1.287 . S
C1624 C1623 1.287 . S
C1624 C1625 1.524 . S
C1624 H1643 0.913 . S
C1625 H1601 0.950 . S
C1625 C1624 1.524 . S
C1625 C1626 1.415 . S
C1626 H1602 0.950 . S
C1626 C1621 1.363 . S
C1626 C1625 1.415 . S
C1627 H1603 0.951 . S
C1627 C1628 1.366 . S
C1627 C1629 1.388 . S
C1628 C1627 1.366 . S
C1628 C1632 1.385 . S
C1629 H1604 0.951 . S
C1629 C1627 1.388 . S
C1629 C1630 1.366 . S
C1630 C1629 1.366 . S
C1630 C1631 1.414 . S
C1630 C1633 1.499 . S
C1631 H1605 0.950 . S
C1631 C1630 1.414 . S
C1631 C1632 1.374 . S
C1632 H1606 0.950 . S
C1632 C1628 1.385 . S
C1632 C1631 1.374 . S
C1633 C1630 1.499 . S
C1633 C1634 1.373 . S
C1633 C1635 1.389 . S
C1634 H1607 0.950 . S
C1634 C1620 1.377 . S
C1634 C1633 1.373 . S
C1635 C1619 1.377 . S
C1635 C1633 1.389 . S
C1635 C1636 1.524 . S
C1636 C1635 1.524 . S
C1636 C1637 1.397 . S
C1636 C1641 1.363 . S
C1637 H1608 0.950 . S
C1637 C1636 1.397 . S
C1637 C1638 1.334 . S
C1638 H1609 0.950 . S
C1638 C1637 1.334 . S
C1638 C1639 1.287 . S
C1639 C1638 1.287 . S
C1639 C1640 1.524 . S
C1639 H1642 0.999 . S
C1640 H1610 0.950 . S
C1640 C1639 1.524 . S
C1640 C1641 1.415 . S
C1641 H1611 0.950 . S
C1641 C1636 1.363 . S
C1641 C1640 1.415 . S
H1642 C1639 0.999 . S
H1643 C1624 0.913 . S
H1644 C1662 0.951 . S
H1645 C1664 0.951 . S
H1646 C1666 0.950 . S
H1647 C1667 0.950 . S
H1648 C1669 0.950 . S
H1649 C1672 0.950 . S
H1650 C1673 0.950 . S
H1651 C1675 0.950 . S
H1652 C1676 0.950 . S
H1653 C1677 0.951 . S
H1654 C1679 0.951 . S
H1655 C1681 0.950 . S
H1656 C1682 0.950 . S
H1657 C1684 0.950 . S
H1658 C1687 0.950 . S
H1659 C1688 0.950 . S
H1660 C1690 0.950 . S
H1661 C1691 0.950 . S
C1662 H1644 0.951 . S
C1662 C1663 1.366 . S
C1662 C1664 1.388 . S
C1663 C1662 1.366 . S
C1663 C1667 1.385 . S
C1664 H1645 0.951 . S
C1664 C1662 1.388 . S
C1664 C1665 1.366 . S
C1665 C1664 1.366 . S
C1665 C1666 1.414 . S
C1665 C1668 1.499 . S
C1666 H1646 0.950 . S
C1666 C1665 1.414 . S
C1666 C1667 1.374 . S
C1667 H1647 0.950 . S
C1667 C1663 1.385 . S
C1667 C1666 1.374 . S
C1668 C1665 1.499 . S
C1668 C1669 1.373 . S
C1668 C1670 1.389 . S
C1669 H1648 0.950 . S
C1669 C1668 1.373 . S
C1669 C1685 1.377 . S
C1670 C1668 1.389 . S
C1670 C1671 1.524 . S
C1670 C1684 1.377 . S
C1671 C1670 1.524 . S
C1671 C1672 1.397 . S
C1671 C1676 1.363 . S
C1672 H1649 0.950 . S
C1672 C1671 1.397 . S
C1672 C1673 1.334 . S
C1673 H1650 0.950 . S
C1673 C1672 1.334 . S
C1673 C1674 1.287 . S
C1674 C1673 1.287 . S
C1674 C1675 1.524 . S
C1674 H1693 0.913 . S
C1675 H1651 0.950 . S
C1675 C1674 1.524 . S
C1675 C1676 1.415 . S
C1676 H1652 0.950 . S
C1676 C1671 1.363 . S
C1676 C1675 1.415 . S
C1677 H1653 0.951 . S
C1677 C1678 1.366 . S
C1677 C1679 1.388 . S
C1678 C1677 1.366 . S
C1678 C1682 1.385 . S
C1679 H1654 0.951 . S
C1679 C1677 1.388 . S
C1679 C1680 1.366 . S
C1680 C1679 1.366 . S
C1680 C1681 1.414 . S
C1680 C1683 1.499 . S
C1681 H1655 0.950 . S
C1681 C1680 1.414 . S
C1681 C1682 1.374 . S
C1682 H1656 0.950 . S
C1682 C1678 1.385 . S
C1682 C1681 1.374 . S
C1683 C1680 1.499 . S
C1683 C1684 1.373 . S
C1683 C1685 1.389 . S
C1684 H1657 0.950 . S
C1684 C1670 1.377 . S
C1684 C1683 1.373 . S
C1685 C1669 1.377 . S
C1685 C1683 1.389 . S
C1685 C1686 1.524 . S
C1686 C1685 1.524 . S
C1686 C1687 1.397 . S
C1686 C1691 1.363 . S
C1687 H1658 0.950 . S
C1687 C1686 1.397 . S
C1687 C1688 1.334 . S
C1688 H1659 0.950 . S
C1688 C1687 1.334 . S
C1688 C1689 1.287 . S
C1689 C1688 1.287 . S
C1689 C1690 1.524 . S
C1689 H1692 0.999 . S
C1690 H1660 0.950 . S
C1690 C1689 1.524 . S
C1690 C1691 1.415 . S
C1691 H1661 0.950 . S
C1691 C1686 1.363 . S
C1691 C1690 1.415 . S
H1692 C1689 0.999 . S
H1693 C1674 0.913 . S
H1694 C1712 0.951 . S
H1695 C1714 0.951 . S
H1696 C1716 0.950 . S
H1697 C1717 0.950 . S
H1698 C1719 0.950 . S
H1699 C1722 0.950 . S
H1700 C1723 0.950 . S
H1701 C1725 0.950 . S
H1702 C1726 0.950 . S
H1703 C1727 0.951 . S
H1704 C1729 0.951 . S
H1705 C1731 0.950 . S
H1706 C1732 0.950 . S
H1707 C1734 0.950 . S
H1708 C1737 0.950 . S
H1709 C1738 0.950 . S
H1710 C1740 0.950 . S
H1711 C1741 0.950 . S
C1712 H1694 0.951 . S
C1712 C1713 1.366 . S
C1712 C1714 1.388 . S
C1713 C1712 1.366 . S
C1713 C1717 1.385 . S
C1714 H1695 0.951 . S
C1714 C1712 1.388 . S
C1714 C1715 1.366 . S
C1715 C1714 1.366 . S
C1715 C1716 1.414 . S
C1715 C1718 1.499 . S
C1716 H1696 0.950 . S
C1716 C1715 1.414 . S
C1716 C1717 1.374 . S
C1717 H1697 0.950 . S
C1717 C1713 1.385 . S
C1717 C1716 1.374 . S
C1718 C1715 1.499 . S
C1718 C1719 1.373 . S
C1718 C1720 1.389 . S
C1719 H1698 0.950 . S
C1719 C1718 1.373 . S
C1719 C1735 1.377 . S
C1720 C1718 1.389 . S
C1720 C1721 1.524 . S
C1720 C1734 1.377 . S
C1721 C1720 1.524 . S
C1721 C1722 1.397 . S
C1721 C1726 1.363 . S
C1722 H1699 0.950 . S
C1722 C1721 1.397 . S
C1722 C1723 1.334 . S
C1723 H1700 0.950 . S
C1723 C1722 1.334 . S
C1723 C1724 1.287 . S
C1724 C1723 1.287 . S
C1724 C1725 1.524 . S
C1724 H1743 0.913 . S
C1725 H1701 0.950 . S
C1725 C1724 1.524 . S
C1725 C1726 1.415 . S
C1726 H1702 0.950 . S
C1726 C1721 1.363 . S
C1726 C1725 1.415 . S
C1727 H1703 0.951 . S
C1727 C1728 1.366 . S
C1727 C1729 1.388 . S
C1728 C1727 1.366 . S
C1728 C1732 1.385 . S
C1729 H1704 0.951 . S
C1729 C1727 1.388 . S
C1729 C1730 1.366 . S
C1730 C1729 1.366 . S
C1730 C1731 1.414 . S
C1730 C1733 1.499 . S
C1731 H1705 0.950 . S
C1731 C1730 1.414 . S
C1731 C1732 1.374 . S
C1732 H1706 0.950 . S
C1732 C1728 1.385 . S
C1732 C1731 1.374 . S
C1733 C1730 1.499 . S
C1733 C1734 1.373 . S
C1733 C1735 1.389 . S
C1734 H1707 0.950 . S
C1734 C1720 1.377 . S
C1734 C1733 1.373 . S
C1735 C1719 1.377 . S
C1735 C1733 1.389 . S
C1735 C1736 1.524 . S
C1736 C1735 1.524 . S
C1736 C1737 1.397 . S
C1736 C1741 1.363 . S
C1737 H1708 0.950 . S
C1737 C1736 1.397 . S
C1737 C1738 1.334 . S
C1738 H1709 0.950 . S
C1738 C1737 1.334 . S
C1738 C1739 1.287 . S
C1739 C1738 1.287 . S
C1739 C1740 1.524 . S
C1739 H1742 0.999 . S
C1740 H1710 0.950 . S
C1740 C1739 1.524 . S
C1740 C1741 1.415 . S
C1741 H1711 0.950 . S
C1741 C1736 1.363 . S
C1741 C1740 1.415 . S
H1742 C1739 0.999 . S
H1743 C1724 0.913 . S
H1744 C1762 0.951 . S
H1745 C1764 0.951 . S
H1746 C1766 0.950 . S
H1747 C1767 0.950 . S
H1748 C1769 0.950 . S
H1749 C1772 0.950 . S
H1750 C1773 0.950 . S
H1751 C1775 0.950 . S
H1752 C1776 0.950 . S
H1753 C1777 0.951 . S
H1754 C1779 0.951 . S
H1755 C1781 0.950 . S
H1756 C1782 0.950 . S
H1757 C1784 0.950 . S
H1758 C1787 0.950 . S
H1759 C1788 0.950 . S
H1760 C1790 0.950 . S
H1761 C1791 0.950 . S
C1762 H1744 0.951 . S
C1762 C1763 1.366 . S
C1762 C1764 1.388 . S
C1763 C1762 1.366 . S
C1763 C1767 1.385 . S
C1764 H1745 0.951 . S
C1764 C1762 1.388 . S
C1764 C1765 1.366 . S
C1765 C1764 1.366 . S
C1765 C1766 1.414 . S
C1765 C1768 1.499 . S
C1766 H1746 0.950 . S
C1766 C1765 1.414 . S
C1766 C1767 1.374 . S
C1767 H1747 0.950 . S
C1767 C1763 1.385 . S
C1767 C1766 1.374 . S
C1768 C1765 1.499 . S
C1768 C1769 1.373 . S
C1768 C1770 1.389 . S
C1769 H1748 0.950 . S
C1769 C1768 1.373 . S
C1769 C1785 1.377 . S
C1770 C1768 1.389 . S
C1770 C1771 1.524 . S
C1770 C1784 1.377 . S
C1771 C1770 1.524 . S
C1771 C1772 1.397 . S
C1771 C1776 1.363 . S
C1772 H1749 0.950 . S
C1772 C1771 1.397 . S
C1772 C1773 1.334 . S
C1773 H1750 0.950 . S
C1773 C1772 1.334 . S
C1773 C1774 1.287 . S
C1774 C1773 1.287 . S
C1774 C1775 1.524 . S
C1774 H1793 0.913 . S
C1775 H1751 0.950 . S
C1775 C1774 1.524 . S
C1775 C1776 1.415 . S
C1776 H1752 0.950 . S
C1776 C1771 1.363 . S
C1776 C1775 1.415 . S
C1777 H1753 0.951 . S
C1777 C1778 1.366 . S
C1777 C1779 1.388 . S
C1778 C1777 1.366 . S
C1778 C1782 1.385 . S
C1779 H1754 0.951 . S
C1779 C1777 1.388 . S
C1779 C1780 1.366 . S
C1780 C1779 1.366 . S
C1780 C1781 1.414 . S
C1780 C1783 1.499 . S
C1781 H1755 0.950 . S
C1781 C1780 1.414 . S
C1781 C1782 1.374 . S
C1782 H1756 0.950 . S
C1782 C1778 1.385 . S
C1782 C1781 1.374 . S
C1783 C1780 1.499 . S
C1783 C1784 1.373 . S
C1783 C1785 1.389 . S
C1784 H1757 0.950 . S
C1784 C1770 1.377 . S
C1784 C1783 1.373 . S
C1785 C1769 1.377 . S
C1785 C1783 1.389 . S
C1785 C1786 1.524 . S
C1786 C1785 1.524 . S
C1786 C1787 1.397 . S
C1786 C1791 1.363 . S
C1787 H1758 0.950 . S
C1787 C1786 1.397 . S
C1787 C1788 1.334 . S
C1788 H1759 0.950 . S
C1788 C1787 1.334 . S
C1788 C1789 1.287 . S
C1789 C1788 1.287 . S
C1789 C1790 1.524 . S
C1789 H1792 0.999 . S
C1790 H1760 0.950 . S
C1790 C1789 1.524 . S
C1790 C1791 1.415 . S
C1791 H1761 0.950 . S
C1791 C1786 1.363 . S
C1791 C1790 1.415 . S
H1792 C1789 0.999 . S
H1793 C1774 0.913 . S
H1794 C1812 0.951 . S
H1795 C1814 0.951 . S
H1796 C1816 0.950 . S
H1797 C1817 0.950 1_554 S
H1798 C1819 0.950 . S
H1799 C1822 0.950 . S
H1800 C1823 0.950 . S
H1801 C1825 0.950 . S
H1802 C1826 0.950 1_655 S
H1803 C1827 0.951 . S
H1804 C1829 0.951 . S
H1805 C1831 0.950 . S
H1806 C1832 0.950 1_556 S
H1807 C1834 0.950 . S
H1808 C1837 0.950 . S
H1809 C1838 0.950 . S
H1810 C1840 0.950 . S
H1811 C1841 0.950 1_455 S
C1812 H1794 0.951 . S
C1812 C1813 1.366 . S
C1812 C1814 1.388 . S
C1813 C1812 1.366 . S
C1813 C1817 1.385 . S
C1814 H1795 0.951 . S
C1814 C1812 1.388 . S
C1814 C1815 1.366 . S
C1815 C1814 1.366 . S
C1815 C1816 1.414 1_556 S
C1815 C1818 1.499 . S
C1816 H1796 0.950 . S
C1816 C1815 1.414 1_554 S
C1816 C1817 1.374 1_554 S
C1817 H1797 0.950 1_556 S
C1817 C1813 1.385 . S
C1817 C1816 1.374 1_556 S
C1818 C1815 1.499 . S
C1818 C1819 1.373 1_556 S
C1818 C1820 1.389 . S
C1819 H1798 0.950 . S
C1819 C1818 1.373 1_554 S
C1819 C1835 1.377 1_455 S
C1820 C1818 1.389 . S
C1820 C1821 1.524 . S
C1820 C1834 1.377 1_455 S
C1821 C1820 1.524 . S
C1821 C1822 1.397 . S
C1821 C1826 1.363 . S
C1822 H1799 0.950 . S
C1822 C1821 1.397 . S
C1822 C1823 1.334 . S
C1823 H1800 0.950 . S
C1823 C1822 1.334 . S
C1823 C1824 1.287 . S
C1824 C1823 1.287 . S
C1824 C1825 1.524 . S
C1824 H1843 0.913 . S
C1825 H1801 0.950 . S
C1825 C1824 1.524 . S
C1825 C1826 1.415 . S
C1826 H1802 0.950 1_455 S
C1826 C1821 1.363 . S
C1826 C1825 1.415 . S
C1827 H1803 0.951 . S
C1827 C1828 1.366 . S
C1827 C1829 1.388 . S
C1828 C1827 1.366 . S
C1828 C1832 1.385 . S
C1829 H1804 0.951 . S
C1829 C1827 1.388 . S
C1829 C1830 1.366 . S
C1830 C1829 1.366 . S
C1830 C1831 1.414 1_554 S
C1830 C1833 1.499 . S
C1831 H1805 0.950 . S
C1831 C1830 1.414 1_556 S
C1831 C1832 1.374 1_556 S
C1832 H1806 0.950 1_554 S
C1832 C1828 1.385 . S
C1832 C1831 1.374 1_554 S
C1833 C1830 1.499 . S
C1833 C1834 1.373 1_554 S
C1833 C1835 1.389 . S
C1834 H1807 0.950 . S
C1834 C1820 1.377 1_655 S
C1834 C1833 1.373 1_556 S
C1835 C1819 1.377 1_655 S
C1835 C1833 1.389 . S
C1835 C1836 1.524 . S
C1836 C1835 1.524 . S
C1836 C1837 1.397 . S
C1836 C1841 1.363 . S
C1837 H1808 0.950 . S
C1837 C1836 1.397 . S
C1837 C1838 1.334 . S
C1838 H1809 0.950 . S
C1838 C1837 1.334 . S
C1838 C1839 1.287 . S
C1839 C1838 1.287 . S
C1839 C1840 1.524 . S
C1839 H1842 0.999 . S
C1840 H1810 0.950 . S
C1840 C1839 1.524 . S
C1840 C1841 1.415 . S
C1841 H1811 0.950 1_655 S
C1841 C1836 1.363 . S
C1841 C1840 1.415 . S
H1842 C1839 0.999 . S
H1843 C1824 0.913 . S
H1844 C1862 0.951 . S
H1845 C1864 0.951 . S
H1846 C1866 0.950 . S
H1847 C1867 0.950 . S
H1848 C1869 0.950 . S
H1849 C1872 0.950 . S
H1850 C1873 0.950 . S
H1851 C1875 0.950 . S
H1852 C1876 0.950 . S
H1853 C1877 0.951 . S
H1854 C1879 0.951 . S
H1855 C1881 0.950 . S
H1856 C1882 0.950 . S
H1857 C1884 0.950 . S
H1858 C1887 0.950 . S
H1859 C1888 0.950 . S
H1860 C1890 0.950 . S
H1861 C1891 0.950 . S
C1862 H1844 0.951 . S
C1862 C1863 1.366 . S
C1862 C1864 1.388 . S
C1863 C1862 1.366 . S
C1863 C1867 1.385 . S
C1864 H1845 0.951 . S
C1864 C1862 1.388 . S
C1864 C1865 1.366 . S
C1865 C1864 1.366 . S
C1865 C1866 1.414 . S
C1865 C1868 1.499 . S
C1866 H1846 0.950 . S
C1866 C1865 1.414 . S
C1866 C1867 1.374 . S
C1867 H1847 0.950 . S
C1867 C1863 1.385 . S
C1867 C1866 1.374 . S
C1868 C1865 1.499 . S
C1868 C1869 1.373 . S
C1868 C1870 1.389 1_556 S
C1869 H1848 0.950 . S
C1869 C1868 1.373 . S
C1869 C1885 1.377 . S
C1870 C1868 1.389 1_554 S
C1870 C1871 1.524 . S
C1870 C1884 1.377 . S
C1871 C1870 1.524 . S
C1871 C1872 1.397 . S
C1871 C1876 1.363 . S
C1872 H1849 0.950 . S
C1872 C1871 1.397 . S
C1872 C1873 1.334 . S
C1873 H1850 0.950 . S
C1873 C1872 1.334 . S
C1873 C1874 1.287 . S
C1874 C1873 1.287 . S
C1874 C1875 1.524 . S
C1874 H1893 0.913 . S
C1875 H1851 0.950 . S
C1875 C1874 1.524 . S
C1875 C1876 1.415 . S
C1876 H1852 0.950 . S
C1876 C1871 1.363 . S
C1876 C1875 1.415 . S
C1877 H1853 0.951 . S
C1877 C1878 1.366 . S
C1877 C1879 1.388 . S
C1878 C1877 1.366 . S
C1878 C1882 1.385 . S
C1879 H1854 0.951 . S
C1879 C1877 1.388 . S
C1879 C1880 1.366 . S
C1880 C1879 1.366 . S
C1880 C1881 1.414 . S
C1880 C1883 1.499 . S
C1881 H1855 0.950 . S
C1881 C1880 1.414 . S
C1881 C1882 1.374 . S
C1882 H1856 0.950 . S
C1882 C1878 1.385 . S
C1882 C1881 1.374 . S
C1883 C1880 1.499 . S
C1883 C1884 1.373 . S
C1883 C1885 1.389 1_554 S
C1884 H1857 0.950 . S
C1884 C1870 1.377 . S
C1884 C1883 1.373 . S
C1885 C1869 1.377 . S
C1885 C1883 1.389 1_556 S
C1885 C1886 1.524 . S
C1886 C1885 1.524 . S
C1886 C1887 1.397 . S
C1886 C1891 1.363 . S
C1887 H1858 0.950 . S
C1887 C1886 1.397 . S
C1887 C1888 1.334 . S
C1888 H1859 0.950 . S
C1888 C1887 1.334 . S
C1888 C1889 1.287 . S
C1889 C1888 1.287 . S
C1889 C1890 1.524 . S
C1889 H1892 0.999 . S
C1890 H1860 0.950 . S
C1890 C1889 1.524 . S
C1890 C1891 1.415 . S
C1891 H1861 0.950 . S
C1891 C1886 1.363 . S
C1891 C1890 1.415 . S
H1892 C1889 0.999 . S
H1893 C1874 0.913 . S
H1894 C1912 0.951 . S
H1895 C1914 0.951 . S
H1896 C1916 0.950 . S
H1897 C1917 0.950 . S
H1898 C1919 0.950 . S
H1899 C1922 0.950 . S
H1900 C1923 0.950 . S
H1901 C1925 0.950 . S
H1902 C1926 0.950 . S
H1903 C1927 0.951 . S
H1904 C1929 0.951 . S
H1905 C1931 0.950 . S
H1906 C1932 0.950 . S
H1907 C1934 0.950 . S
H1908 C1937 0.950 . S
H1909 C1938 0.950 . S
H1910 C1940 0.950 . S
H1911 C1941 0.950 . S
C1912 H1894 0.951 . S
C1912 C1913 1.366 . S
C1912 C1914 1.388 . S
C1913 C1912 1.366 . S
C1913 C1917 1.385 . S
C1914 H1895 0.951 . S
C1914 C1912 1.388 . S
C1914 C1915 1.366 . S
C1915 C1914 1.366 . S
C1915 C1916 1.414 . S
C1915 C1918 1.499 . S
C1916 H1896 0.950 . S
C1916 C1915 1.414 . S
C1916 C1917 1.374 . S
C1917 H1897 0.950 . S
C1917 C1913 1.385 . S
C1917 C1916 1.374 . S
C1918 C1915 1.499 . S
C1918 C1919 1.373 1_554 S
C1918 C1920 1.389 . S
C1919 H1898 0.950 . S
C1919 C1918 1.373 1_556 S
C1919 C1935 1.377 1_545 S
C1920 C1918 1.389 . S
C1920 C1921 1.524 . S
C1920 C1934 1.377 1_545 S
C1921 C1920 1.524 . S
C1921 C1922 1.397 . S
C1921 C1926 1.363 . S
C1922 H1899 0.950 . S
C1922 C1921 1.397 . S
C1922 C1923 1.334 . S
C1923 H1900 0.950 . S
C1923 C1922 1.334 . S
C1923 C1924 1.287 . S
C1924 C1923 1.287 . S
C1924 C1925 1.524 . S
C1924 H1943 0.913 . S
C1925 H1901 0.950 . S
C1925 C1924 1.524 . S
C1925 C1926 1.415 . S
C1926 H1902 0.950 . S
C1926 C1921 1.363 . S
C1926 C1925 1.415 . S
C1927 H1903 0.951 . S
C1927 C1928 1.366 . S
C1927 C1929 1.388 . S
C1928 C1927 1.366 . S
C1928 C1932 1.385 . S
C1929 H1904 0.951 . S
C1929 C1927 1.388 . S
C1929 C1930 1.366 . S
C1930 C1929 1.366 . S
C1930 C1931 1.414 . S
C1930 C1933 1.499 . S
C1931 H1905 0.950 . S
C1931 C1930 1.414 . S
C1931 C1932 1.374 . S
C1932 H1906 0.950 . S
C1932 C1928 1.385 . S
C1932 C1931 1.374 . S
C1933 C1930 1.499 . S
C1933 C1934 1.373 1_556 S
C1933 C1935 1.389 . S
C1934 H1907 0.950 . S
C1934 C1920 1.377 1_565 S
C1934 C1933 1.373 1_554 S
C1935 C1919 1.377 1_565 S
C1935 C1933 1.389 . S
C1935 C1936 1.524 . S
C1936 C1935 1.524 . S
C1936 C1937 1.397 . S
C1936 C1941 1.363 . S
C1937 H1908 0.950 . S
C1937 C1936 1.397 . S
C1937 C1938 1.334 . S
C1938 H1909 0.950 . S
C1938 C1937 1.334 . S
C1938 C1939 1.287 . S
C1939 C1938 1.287 . S
C1939 C1940 1.524 . S
C1939 H1942 0.999 . S
C1940 H1910 0.950 . S
C1940 C1939 1.524 . S
C1940 C1941 1.415 . S
C1941 H1911 0.950 . S
C1941 C1936 1.363 . S
C1941 C1940 1.415 . S
H1942 C1939 0.999 . S
H1943 C1924 0.913 . S
H1944 C1962 0.951 . S
H1945 C1964 0.951 . S
H1946 C1966 0.950 . S
H1947 C1967 0.950 . S
H1948 C1969 0.950 . S
H1949 C1972 0.950 . S
H1950 C1973 0.950 . S
H1951 C1975 0.950 . S
H1952 C1976 0.950 . S
H1953 C1977 0.951 . S
H1954 C1979 0.951 . S
H1955 C1981 0.950 . S
H1956 C1982 0.950 . S
H1957 C1984 0.950 . S
H1958 C1987 0.950 . S
H1959 C1988 0.950 . S
H1960 C1990 0.950 . S
H1961 C1991 0.950 . S
C1962 H1944 0.951 . S
C1962 C1963 1.366 . S
C1962 C1964 1.388 . S
C1963 C1962 1.366 . S
C1963 C1967 1.385 . S
C1964 H1945 0.951 . S
C1964 C1962 1.388 . S
C1964 C1965 1.366 . S
C1965 C1964 1.366 . S
C1965 C1966 1.414 . S
C1965 C1968 1.499 . S
C1966 H1946 0.950 . S
C1966 C1965 1.414 . S
C1966 C1967 1.374 . S
C1967 H1947 0.950 . S
C1967 C1963 1.385 . S
C1967 C1966 1.374 . S
C1968 C1965 1.499 . S
C1968 C1969 1.373 . S
C1968 C1970 1.389 . S
C1969 H1948 0.950 . S
C1969 C1968 1.373 . S
C1969 C1985 1.377 . S
C1970 C1968 1.389 . S
C1970 C1971 1.524 . S
C1970 C1984 1.377 . S
C1971 C1970 1.524 . S
C1971 C1972 1.397 . S
C1971 C1976 1.363 . S
C1972 H1949 0.950 . S
C1972 C1971 1.397 . S
C1972 C1973 1.334 . S
C1973 H1950 0.950 . S
C1973 C1972 1.334 . S
C1973 C1974 1.287 . S
C1974 C1973 1.287 . S
C1974 C1975 1.524 . S
C1974 H1993 0.913 . S
C1975 H1951 0.950 . S
C1975 C1974 1.524 . S
C1975 C1976 1.415 . S
C1976 H1952 0.950 . S
C1976 C1971 1.363 . S
C1976 C1975 1.415 . S
C1977 H1953 0.951 . S
C1977 C1978 1.366 . S
C1977 C1979 1.388 . S
C1978 C1977 1.366 . S
C1978 C1982 1.385 . S
C1979 H1954 0.951 . S
C1979 C1977 1.388 . S
C1979 C1980 1.366 . S
C1980 C1979 1.366 . S
C1980 C1981 1.414 . S
C1980 C1983 1.499 . S
C1981 H1955 0.950 . S
C1981 C1980 1.414 . S
C1981 C1982 1.374 . S
C1982 H1956 0.950 . S
C1982 C1978 1.385 . S
C1982 C1981 1.374 . S
C1983 C1980 1.499 . S
C1983 C1984 1.373 . S
C1983 C1985 1.389 . S
C1984 H1957 0.950 . S
C1984 C1970 1.377 . S
C1984 C1983 1.373 . S
C1985 C1969 1.377 . S
C1985 C1983 1.389 . S
C1985 C1986 1.524 . S
C1986 C1985 1.524 . S
C1986 C1987 1.397 . S
C1986 C1991 1.363 . S
C1987 H1958 0.950 . S
C1987 C1986 1.397 . S
C1987 C1988 1.334 . S
C1988 H1959 0.950 . S
C1988 C1987 1.334 . S
C1988 C1989 1.287 . S
C1989 C1988 1.287 . S
C1989 C1990 1.524 . S
C1989 H1992 0.999 . S
C1990 H1960 0.950 . S
C1990 C1989 1.524 . S
C1990 C1991 1.415 . S
C1991 H1961 0.950 . S
C1991 C1986 1.363 . S
C1991 C1990 1.415 . S
H1992 C1989 0.999 . S
H1993 C1974 0.913 . S
H1994 C2012 0.951 . S
H1995 C2014 0.951 . S
H1996 C2016 0.950 . S
H1997 C2017 0.950 . S
H1998 C2019 0.950 . S
H1999 C2022 0.950 . S
H2000 C2023 0.950 . S
H2001 C2025 0.950 . S
H2002 C2026 0.950 . S
H2003 C2027 0.951 . S
H2004 C2029 0.951 . S
H2005 C2031 0.950 . S
H2006 C2032 0.950 . S
H2007 C2034 0.950 . S
H2008 C2037 0.950 . S
H2009 C2038 0.950 . S
H2010 C2040 0.950 . S
H2011 C2041 0.950 . S
C2012 H1994 0.951 . S
C2012 C2013 1.366 . S
C2012 C2014 1.388 . S
C2013 C2012 1.366 . S
C2013 C2017 1.385 . S
C2014 H1995 0.951 . S
C2014 C2012 1.388 . S
C2014 C2015 1.366 . S
C2015 C2014 1.366 . S
C2015 C2016 1.414 . S
C2015 C2018 1.499 . S
C2016 H1996 0.950 . S
C2016 C2015 1.414 . S
C2016 C2017 1.374 . S
C2017 H1997 0.950 . S
C2017 C2013 1.385 . S
C2017 C2016 1.374 . S
C2018 C2015 1.499 . S
C2018 C2019 1.373 . S
C2018 C2020 1.389 . S
C2019 H1998 0.950 . S
C2019 C2018 1.373 . S
C2019 C2035 1.377 1_545 S
C2020 C2018 1.389 . S
C2020 C2021 1.524 . S
C2020 C2034 1.377 1_545 S
C2021 C2020 1.524 . S
C2021 C2022 1.397 . S
C2021 C2026 1.363 1_545 S
C2022 H1999 0.950 . S
C2022 C2021 1.397 . S
C2022 C2023 1.334 . S
C2023 H2000 0.950 . S
C2023 C2022 1.334 . S
C2023 C2024 1.287 . S
C2024 C2023 1.287 . S
C2024 C2025 1.524 1_545 S
C2024 H2043 0.913 . S
C2025 H2001 0.950 . S
C2025 C2024 1.524 1_565 S
C2025 C2026 1.415 . S
C2026 H2002 0.950 . S
C2026 C2021 1.363 1_565 S
C2026 C2025 1.415 . S
C2027 H2003 0.951 . S
C2027 C2028 1.366 . S
C2027 C2029 1.388 . S
C2028 C2027 1.366 . S
C2028 C2032 1.385 . S
C2029 H2004 0.951 . S
C2029 C2027 1.388 . S
C2029 C2030 1.366 . S
C2030 C2029 1.366 . S
C2030 C2031 1.414 . S
C2030 C2033 1.499 . S
C2031 H2005 0.950 . S
C2031 C2030 1.414 . S
C2031 C2032 1.374 . S
C2032 H2006 0.950 . S
C2032 C2028 1.385 . S
C2032 C2031 1.374 . S
C2033 C2030 1.499 . S
C2033 C2034 1.373 . S
C2033 C2035 1.389 . S
C2034 H2007 0.950 . S
C2034 C2020 1.377 1_565 S
C2034 C2033 1.373 . S
C2035 C2019 1.377 1_565 S
C2035 C2033 1.389 . S
C2035 C2036 1.524 . S
C2036 C2035 1.524 . S
C2036 C2037 1.397 . S
C2036 C2041 1.363 1_565 S
C2037 H2008 0.950 . S
C2037 C2036 1.397 . S
C2037 C2038 1.334 . S
C2038 H2009 0.950 . S
C2038 C2037 1.334 . S
C2038 C2039 1.287 . S
C2039 C2038 1.287 . S
C2039 C2040 1.524 1_565 S
C2039 H2042 0.999 . S
C2040 H2010 0.950 . S
C2040 C2039 1.524 1_545 S
C2040 C2041 1.415 . S
C2041 H2011 0.950 . S
C2041 C2036 1.363 1_545 S
C2041 C2040 1.415 . S
H2042 C2039 0.999 . S
H2043 C2024 0.913 . S
H2044 C2062 0.951 . S
H2045 C2064 0.951 . S
H2046 C2066 0.950 . S
H2047 C2067 0.950 . S
H2048 C2069 0.950 . S
H2049 C2072 0.950 . S
H2050 C2073 0.950 . S
H2051 C2075 0.950 . S
H2052 C2076 0.950 . S
H2053 C2077 0.951 . S
H2054 C2079 0.951 . S
H2055 C2081 0.950 . S
H2056 C2082 0.950 . S
H2057 C2084 0.950 . S
H2058 C2087 0.950 . S
H2059 C2088 0.950 . S
H2060 C2090 0.950 . S
H2061 C2091 0.950 . S
C2062 H2044 0.951 . S
C2062 C2063 1.366 . S
C2062 C2064 1.388 . S
C2063 C2062 1.366 . S
C2063 C2067 1.385 . S
C2064 H2045 0.951 . S
C2064 C2062 1.388 . S
C2064 C2065 1.366 . S
C2065 C2064 1.366 . S
C2065 C2066 1.414 . S
C2065 C2068 1.499 . S
C2066 H2046 0.950 . S
C2066 C2065 1.414 . S
C2066 C2067 1.374 . S
C2067 H2047 0.950 . S
C2067 C2063 1.385 . S
C2067 C2066 1.374 . S
C2068 C2065 1.499 . S
C2068 C2069 1.373 . S
C2068 C2070 1.389 . S
C2069 H2048 0.950 . S
C2069 C2068 1.373 . S
C2069 C2085 1.377 1_455 S
C2070 C2068 1.389 . S
C2070 C2071 1.524 . S
C2070 C2084 1.377 1_455 S
C2071 C2070 1.524 . S
C2071 C2072 1.397 . S
C2071 C2076 1.363 1_455 S
C2072 H2049 0.950 . S
C2072 C2071 1.397 . S
C2072 C2073 1.334 . S
C2073 H2050 0.950 . S
C2073 C2072 1.334 . S
C2073 C2074 1.287 . S
C2074 C2073 1.287 . S
C2074 C2075 1.524 1_455 S
C2074 H2093 0.913 . S
C2075 H2051 0.950 . S
C2075 C2074 1.524 1_655 S
C2075 C2076 1.415 . S
C2076 H2052 0.950 . S
C2076 C2071 1.363 1_655 S
C2076 C2075 1.415 . S
C2077 H2053 0.951 . S
C2077 C2078 1.366 . S
C2077 C2079 1.388 . S
C2078 C2077 1.366 . S
C2078 C2082 1.385 . S
C2079 H2054 0.951 . S
C2079 C2077 1.388 . S
C2079 C2080 1.366 . S
C2080 C2079 1.366 . S
C2080 C2081 1.414 . S
C2080 C2083 1.499 . S
C2081 H2055 0.950 . S
C2081 C2080 1.414 . S
C2081 C2082 1.374 . S
C2082 H2056 0.950 . S
C2082 C2078 1.385 . S
C2082 C2081 1.374 . S
C2083 C2080 1.499 . S
C2083 C2084 1.373 . S
C2083 C2085 1.389 . S
C2084 H2057 0.950 . S
C2084 C2070 1.377 1_655 S
C2084 C2083 1.373 . S
C2085 C2069 1.377 1_655 S
C2085 C2083 1.389 . S
C2085 C2086 1.524 . S
C2086 C2085 1.524 . S
C2086 C2087 1.397 . S
C2086 C2091 1.363 1_655 S
C2087 H2058 0.950 . S
C2087 C2086 1.397 . S
C2087 C2088 1.334 . S
C2088 H2059 0.950 . S
C2088 C2087 1.334 . S
C2088 C2089 1.287 . S
C2089 C2088 1.287 . S
C2089 C2090 1.524 1_655 S
C2089 H2092 0.999 . S
C2090 H2060 0.950 . S
C2090 C2089 1.524 1_455 S
C2090 C2091 1.415 . S
C2091 H2061 0.950 . S
C2091 C2086 1.363 1_455 S
C2091 C2090 1.415 . S
H2092 C2089 0.999 . S
H2093 C2074 0.913 . S
H2094 C2112 0.951 . S
H2095 C2114 0.951 . S
H2096 C2116 0.950 . S
H2097 C2117 0.950 . S
H2098 C2119 0.950 . S
H2099 C2122 0.950 . S
H2100 C2123 0.950 . S
H2101 C2125 0.950 . S
H2102 C2126 0.950 . S
H2103 C2127 0.951 . S
H2104 C2129 0.951 . S
H2105 C2131 0.950 . S
H2106 C2132 0.950 . S
H2107 C2134 0.950 . S
H2108 C2137 0.950 . S
H2109 C2138 0.950 . S
H2110 C2140 0.950 . S
H2111 C2141 0.950 . S
C2112 H2094 0.951 . S
C2112 C2113 1.366 . S
C2112 C2114 1.388 . S
C2113 C2112 1.366 . S
C2113 C2117 1.385 . S
C2114 H2095 0.951 . S
C2114 C2112 1.388 . S
C2114 C2115 1.366 . S
C2115 C2114 1.366 . S
C2115 C2116 1.414 . S
C2115 C2118 1.499 . S
C2116 H2096 0.950 . S
C2116 C2115 1.414 . S
C2116 C2117 1.374 . S
C2117 H2097 0.950 . S
C2117 C2113 1.385 . S
C2117 C2116 1.374 . S
C2118 C2115 1.499 . S
C2118 C2119 1.373 . S
C2118 C2120 1.389 . S
C2119 H2098 0.950 . S
C2119 C2118 1.373 . S
C2119 C2135 1.377 . S
C2120 C2118 1.389 . S
C2120 C2121 1.524 . S
C2120 C2134 1.377 . S
C2121 C2120 1.524 . S
C2121 C2122 1.397 . S
C2121 C2126 1.363 . S
C2122 H2099 0.950 . S
C2122 C2121 1.397 . S
C2122 C2123 1.334 . S
C2123 H2100 0.950 . S
C2123 C2122 1.334 . S
C2123 C2124 1.287 . S
C2124 C2123 1.287 . S
C2124 C2125 1.524 . S
C2124 H2143 0.913 . S
C2125 H2101 0.950 . S
C2125 C2124 1.524 . S
C2125 C2126 1.415 . S
C2126 H2102 0.950 . S
C2126 C2121 1.363 . S
C2126 C2125 1.415 . S
C2127 H2103 0.951 . S
C2127 C2128 1.366 . S
C2127 C2129 1.388 . S
C2128 C2127 1.366 . S
C2128 C2132 1.385 . S
C2129 H2104 0.951 . S
C2129 C2127 1.388 . S
C2129 C2130 1.366 . S
C2130 C2129 1.366 . S
C2130 C2131 1.414 . S
C2130 C2133 1.499 . S
C2131 H2105 0.950 . S
C2131 C2130 1.414 . S
C2131 C2132 1.374 . S
C2132 H2106 0.950 . S
C2132 C2128 1.385 . S
C2132 C2131 1.374 . S
C2133 C2130 1.499 . S
C2133 C2134 1.373 . S
C2133 C2135 1.389 . S
C2134 H2107 0.950 . S
C2134 C2120 1.377 . S
C2134 C2133 1.373 . S
C2135 C2119 1.377 . S
C2135 C2133 1.389 . S
C2135 C2136 1.524 . S
C2136 C2135 1.524 . S
C2136 C2137 1.397 . S
C2136 C2141 1.363 . S
C2137 H2108 0.950 . S
C2137 C2136 1.397 . S
C2137 C2138 1.334 . S
C2138 H2109 0.950 . S
C2138 C2137 1.334 . S
C2138 C2139 1.287 . S
C2139 C2138 1.287 . S
C2139 C2140 1.524 . S
C2139 H2142 0.999 . S
C2140 H2110 0.950 . S
C2140 C2139 1.524 . S
C2140 C2141 1.415 . S
C2141 H2111 0.950 . S
C2141 C2136 1.363 . S
C2141 C2140 1.415 . S
H2142 C2139 0.999 . S
H2143 C2124 0.913 . S
H2144 C2162 0.951 . S
H2145 C2164 0.951 . S
H2146 C2166 0.950 . S
H2147 C2167 0.950 . S
H2148 C2169 0.950 . S
H2149 C2172 0.950 . S
H2150 C2173 0.950 . S
H2151 C2175 0.950 . S
H2152 C2176 0.950 . S
H2153 C2177 0.951 . S
H2154 C2179 0.951 . S
H2155 C2181 0.950 . S
H2156 C2182 0.950 . S
H2157 C2184 0.950 . S
H2158 C2187 0.950 . S
H2159 C2188 0.950 . S
H2160 C2190 0.950 . S
H2161 C2191 0.950 . S
C2162 H2144 0.951 . S
C2162 C2163 1.366 . S
C2162 C2164 1.388 . S
C2163 C2162 1.366 . S
C2163 C2167 1.385 . S
C2164 H2145 0.951 . S
C2164 C2162 1.388 . S
C2164 C2165 1.366 . S
C2165 C2164 1.366 . S
C2165 C2166 1.414 . S
C2165 C2168 1.499 . S
C2166 H2146 0.950 . S
C2166 C2165 1.414 . S
C2166 C2167 1.374 . S
C2167 H2147 0.950 . S
C2167 C2163 1.385 . S
C2167 C2166 1.374 . S
C2168 C2165 1.499 . S
C2168 C2169 1.373 1_565 S
C2168 C2170 1.389 . S
C2169 H2148 0.950 . S
C2169 C2168 1.373 1_545 S
C2169 C2185 1.377 . S
C2170 C2168 1.389 . S
C2170 C2171 1.524 . S
C2170 C2184 1.377 . S
C2171 C2170 1.524 . S
C2171 C2172 1.397 . S
C2171 C2176 1.363 . S
C2172 H2149 0.950 . S
C2172 C2171 1.397 . S
C2172 C2173 1.334 . S
C2173 H2150 0.950 . S
C2173 C2172 1.334 . S
C2173 C2174 1.287 . S
C2174 C2173 1.287 . S
C2174 C2175 1.524 . S
C2174 H2193 0.913 . S
C2175 H2151 0.950 . S
C2175 C2174 1.524 . S
C2175 C2176 1.415 . S
C2176 H2152 0.950 . S
C2176 C2171 1.363 . S
C2176 C2175 1.415 . S
C2177 H2153 0.951 . S
C2177 C2178 1.366 . S
C2177 C2179 1.388 . S
C2178 C2177 1.366 . S
C2178 C2182 1.385 . S
C2179 H2154 0.951 . S
C2179 C2177 1.388 . S
C2179 C2180 1.366 . S
C2180 C2179 1.366 . S
C2180 C2181 1.414 . S
C2180 C2183 1.499 . S
C2181 H2155 0.950 . S
C2181 C2180 1.414 . S
C2181 C2182 1.374 . S
C2182 H2156 0.950 . S
C2182 C2178 1.385 . S
C2182 C2181 1.374 . S
C2183 C2180 1.499 . S
C2183 C2184 1.373 1_545 S
C2183 C2185 1.389 . S
C2184 H2157 0.950 . S
C2184 C2170 1.377 . S
C2184 C2183 1.373 1_565 S
C2185 C2169 1.377 . S
C2185 C2183 1.389 . S
C2185 C2186 1.524 . S
C2186 C2185 1.524 . S
C2186 C2187 1.397 . S
C2186 C2191 1.363 . S
C2187 H2158 0.950 . S
C2187 C2186 1.397 . S
C2187 C2188 1.334 . S
C2188 H2159 0.950 . S
C2188 C2187 1.334 . S
C2188 C2189 1.287 . S
C2189 C2188 1.287 . S
C2189 C2190 1.524 . S
C2189 H2192 0.999 . S
C2190 H2160 0.950 . S
C2190 C2189 1.524 . S
C2190 C2191 1.415 . S
C2191 H2161 0.950 . S
C2191 C2186 1.363 . S
C2191 C2190 1.415 . S
H2192 C2189 0.999 . S
H2193 C2174 0.913 . S
H2194 C2212 0.951 . S
H2195 C2214 0.951 . S
H2196 C2216 0.950 . S
H2197 C2217 0.950 . S
H2198 C2219 0.950 . S
H2199 C2222 0.917 1_655 S
H2200 C2223 0.950 1_655 S
H2201 C2225 0.950 . S
H2202 C2226 0.950 . S
H2203 C2227 0.951 . S
H2204 C2229 0.951 . S
H2205 C2231 0.950 . S
H2206 C2232 0.950 . S
H2207 C2234 0.950 . S
H2208 C2237 0.917 1_455 S
H2209 C2238 0.950 1_455 S
H2210 C2240 0.950 . S
H2211 C2241 0.950 . S
C2212 H2194 0.951 . S
C2212 C2213 1.366 . S
C2212 C2214 1.388 . S
C2213 C2212 1.366 . S
C2213 C2217 1.385 . S
C2214 H2195 0.951 . S
C2214 C2212 1.388 . S
C2214 C2215 1.366 . S
C2215 C2214 1.366 . S
C2215 C2216 1.414 . S
C2215 C2218 1.499 . S
C2216 H2196 0.950 . S
C2216 C2215 1.414 . S
C2216 C2217 1.374 . S
C2217 H2197 0.950 . S
C2217 C2213 1.385 . S
C2217 C2216 1.374 . S
C2218 C2215 1.499 . S
C2218 C2219 1.373 . S
C2218 C2220 1.389 1_655 S
C2219 H2198 0.950 . S
C2219 C2218 1.373 . S
C2219 C2235 1.377 . S
C2220 C2218 1.389 1_455 S
C2220 C2221 1.524 . S
C2220 C2234 1.377 . S
C2221 C2220 1.524 . S
C2221 C2222 1.429 . S
C2221 C2226 1.363 . S
C2222 H2199 0.917 1_455 S
C2222 C2221 1.429 . S
C2222 C2223 1.335 . S
C2223 H2200 0.950 1_455 S
C2223 C2222 1.335 . S
C2223 C2224 1.287 . S
C2224 C2223 1.287 . S
C2224 C2225 1.524 . S
C2224 H2243 0.913 . S
C2225 H2201 0.950 . S
C2225 C2224 1.524 . S
C2225 C2226 1.415 . S
C2226 H2202 0.950 . S
C2226 C2221 1.363 . S
C2226 C2225 1.415 . S
C2227 H2203 0.951 . S
C2227 C2228 1.366 . S
C2227 C2229 1.388 . S
C2228 C2227 1.366 . S
C2228 C2232 1.385 . S
C2229 H2204 0.951 . S
C2229 C2227 1.388 . S
C2229 C2230 1.366 . S
C2230 C2229 1.366 . S
C2230 C2231 1.414 . S
C2230 C2233 1.499 . S
C2231 H2205 0.950 . S
C2231 C2230 1.414 . S
C2231 C2232 1.374 . S
C2232 H2206 0.950 . S
C2232 C2228 1.385 . S
C2232 C2231 1.374 . S
C2233 C2230 1.499 . S
C2233 C2234 1.373 . S
C2233 C2235 1.389 1_455 S
C2234 H2207 0.950 . S
C2234 C2220 1.377 . S
C2234 C2233 1.373 . S
C2235 C2219 1.377 . S
C2235 C2233 1.389 1_655 S
C2235 C2236 1.524 . S
C2236 C2235 1.524 . S
C2236 C2237 1.428 . S
C2236 C2241 1.363 . S
C2237 H2208 0.917 1_655 S
C2237 C2236 1.428 . S
C2237 C2238 1.335 . S
C2238 H2209 0.950 1_655 S
C2238 C2237 1.335 . S
C2238 C2239 1.287 . S
C2239 C2238 1.287 . S
C2239 C2240 1.524 . S
C2239 H2242 0.999 . S
C2240 H2210 0.950 . S
C2240 C2239 1.524 . S
C2240 C2241 1.415 . S
C2241 H2211 0.950 . S
C2241 C2236 1.363 . S
C2241 C2240 1.415 . S
H2242 C2239 0.999 . S
H2243 C2224 0.913 . S
H2244 C2262 0.951 . S
H2245 C2264 0.951 . S
H2246 C2266 0.950 . S
H2247 C2267 0.950 . S
H2248 C2269 0.950 . S
H2249 C2272 0.950 . S
H2250 C2273 0.950 . S
H2251 C2275 0.950 . S
H2252 C2276 0.950 . S
H2253 C2277 0.951 . S
H2254 C2279 0.951 . S
H2255 C2281 0.950 . S
H2256 C2282 0.950 1_554 S
H2257 C2284 0.950 . S
H2258 C2287 0.950 . S
H2259 C2288 0.950 . S
H2260 C2290 0.950 . S
H2261 C2291 0.950 . S
C2262 H2244 0.951 . S
C2262 C2263 1.366 . S
C2262 C2264 1.388 . S
C2263 C2262 1.366 . S
C2263 C2267 1.385 . S
C2264 H2245 0.951 . S
C2264 C2262 1.388 . S
C2264 C2265 1.366 . S
C2265 C2264 1.366 . S
C2265 C2266 1.414 . S
C2265 C2268 1.499 . S
C2266 H2246 0.950 . S
C2266 C2265 1.414 . S
C2266 C2267 1.374 . S
C2267 H2247 0.950 . S
C2267 C2263 1.385 . S
C2267 C2266 1.374 . S
C2268 C2265 1.499 . S
C2268 C2269 1.373 . S
C2268 C2270 1.389 . S
C2269 H2248 0.950 . S
C2269 C2268 1.373 . S
C2269 C2285 1.377 . S
C2270 C2268 1.389 . S
C2270 C2271 1.524 . S
C2270 C2284 1.377 . S
C2271 C2270 1.524 . S
C2271 C2272 1.397 . S
C2271 C2276 1.363 . S
C2272 H2249 0.950 . S
C2272 C2271 1.397 . S
C2272 C2273 1.334 . S
C2273 H2250 0.950 . S
C2273 C2272 1.334 . S
C2273 C2274 1.287 . S
C2274 C2273 1.287 . S
C2274 C2275 1.524 . S
C2274 H2293 0.913 . S
C2275 H2251 0.950 . S
C2275 C2274 1.524 . S
C2275 C2276 1.415 . S
C2276 H2252 0.950 . S
C2276 C2271 1.363 . S
C2276 C2275 1.415 . S
C2277 H2253 0.951 . S
C2277 C2278 1.366 . S
C2277 C2279 1.388 . S
C2278 C2277 1.366 . S
C2278 C2282 1.385 . S
C2279 H2254 0.951 . S
C2279 C2277 1.388 . S
C2279 C2280 1.366 . S
C2280 C2279 1.366 . S
C2280 C2281 1.414 . S
C2280 C2283 1.499 . S
C2281 H2255 0.950 . S
C2281 C2280 1.414 . S
C2281 C2282 1.374 . S
C2282 H2256 0.950 1_556 S
C2282 C2278 1.385 . S
C2282 C2281 1.374 . S
C2283 C2280 1.499 . S
C2283 C2284 1.373 . S
C2283 C2285 1.389 . S
C2284 H2257 0.950 . S
C2284 C2270 1.377 . S
C2284 C2283 1.373 . S
C2285 C2269 1.377 . S
C2285 C2283 1.389 . S
C2285 C2286 1.524 . S
C2286 C2285 1.524 . S
C2286 C2287 1.397 . S
C2286 C2291 1.363 . S
C2287 H2258 0.950 . S
C2287 C2286 1.397 . S
C2287 C2288 1.334 . S
C2288 H2259 0.950 . S
C2288 C2287 1.334 . S
C2288 C2289 1.287 . S
C2289 C2288 1.287 . S
C2289 C2290 1.524 . S
C2289 H2292 0.999 . S
C2290 H2260 0.950 . S
C2290 C2289 1.524 . S
C2290 C2291 1.415 . S
C2291 H2261 0.950 . S
C2291 C2286 1.363 . S
C2291 C2290 1.415 . S
H2292 C2289 0.999 . S
H2293 C2274 0.913 . S
H2294 C2312 0.951 . S
H2295 C2314 0.951 . S
H2296 C2316 0.950 . S
H2297 C2317 0.950 1_554 S
H2298 C2319 0.950 . S
H2299 C2322 0.950 . S
H2300 C2323 0.950 . S
H2301 C2325 0.950 . S
H2302 C2326 0.950 . S
H2303 C2327 0.951 . S
H2304 C2329 0.951 . S
H2305 C2331 0.950 . S
H2306 C2332 0.950 . S
H2307 C2334 0.950 . S
H2308 C2337 0.950 . S
H2309 C2338 0.950 . S
H2310 C2340 0.950 . S
H2311 C2341 0.950 . S
C2312 H2294 0.951 . S
C2312 C2313 1.366 . S
C2312 C2314 1.388 . S
C2313 C2312 1.366 . S
C2313 C2317 1.385 . S
C2314 H2295 0.951 . S
C2314 C2312 1.388 . S
C2314 C2315 1.366 . S
C2315 C2314 1.366 . S
C2315 C2316 1.414 . S
C2315 C2318 1.499 . S
C2316 H2296 0.950 . S
C2316 C2315 1.414 . S
C2316 C2317 1.374 . S
C2317 H2297 0.950 1_556 S
C2317 C2313 1.385 . S
C2317 C2316 1.374 . S
C2318 C2315 1.499 . S
C2318 C2319 1.373 . S
C2318 C2320 1.389 . S
C2319 H2298 0.950 . S
C2319 C2318 1.373 . S
C2319 C2335 1.377 . S
C2320 C2318 1.389 . S
C2320 C2321 1.524 . S
C2320 C2334 1.377 . S
C2321 C2320 1.524 . S
C2321 C2322 1.397 . S
C2321 C2326 1.363 . S
C2322 H2299 0.950 . S
C2322 C2321 1.397 . S
C2322 C2323 1.334 . S
C2323 H2300 0.950 . S
C2323 C2322 1.334 . S
C2323 C2324 1.287 . S
C2324 C2323 1.287 . S
C2324 C2325 1.524 . S
C2324 H2343 0.913 . S
C2325 H2301 0.950 . S
C2325 C2324 1.524 . S
C2325 C2326 1.415 . S
C2326 H2302 0.950 . S
C2326 C2321 1.363 . S
C2326 C2325 1.415 . S
C2327 H2303 0.951 . S
C2327 C2328 1.366 . S
C2327 C2329 1.388 . S
C2328 C2327 1.366 . S
C2328 C2332 1.385 . S
C2329 H2304 0.951 . S
C2329 C2327 1.388 . S
C2329 C2330 1.366 . S
C2330 C2329 1.366 . S
C2330 C2331 1.414 . S
C2330 C2333 1.499 . S
C2331 H2305 0.950 . S
C2331 C2330 1.414 . S
C2331 C2332 1.374 . S
C2332 H2306 0.950 . S
C2332 C2328 1.385 . S
C2332 C2331 1.374 . S
C2333 C2330 1.499 . S
C2333 C2334 1.373 . S
C2333 C2335 1.389 . S
C2334 H2307 0.950 . S
C2334 C2320 1.377 . S
C2334 C2333 1.373 . S
C2335 C2319 1.377 . S
C2335 C2333 1.389 . S
C2335 C2336 1.524 . S
C2336 C2335 1.524 . S
C2336 C2337 1.397 . S
C2336 C2341 1.363 . S
C2337 H2308 0.950 . S
C2337 C2336 1.397 . S
C2337 C2338 1.334 . S
C2338 H2309 0.950 . S
C2338 C2337 1.334 . S
C2338 C2339 1.287 . S
C2339 C2338 1.287 . S
C2339 C2340 1.524 . S
C2339 H2342 0.999 . S
C2340 H2310 0.950 . S
C2340 C2339 1.524 . S
C2340 C2341 1.415 . S
C2341 H2311 0.950 . S
C2341 C2336 1.363 . S
C2341 C2340 1.415 . S
H2342 C2339 0.999 . S
H2343 C2324 0.913 . S
H2344 C2362 0.951 . S
H2345 C2364 0.951 . S
H2346 C2366 0.950 . S
H2347 C2367 0.950 . S
H2348 C2369 0.950 . S
H2349 C2372 0.950 . S
H2350 C2373 0.950 . S
H2351 C2375 0.950 . S
H2352 C2376 0.950 . S
H2353 C2377 0.951 . S
H2354 C2379 0.951 . S
H2355 C2381 0.950 . S
H2356 C2382 0.950 . S
H2357 C2384 0.950 . S
H2358 C2387 0.950 . S
H2359 C2388 0.950 . S
H2360 C2390 0.950 . S
H2361 C2391 0.950 . S
C2362 H2344 0.951 . S
C2362 C2363 1.366 . S
C2362 C2364 1.388 . S
C2363 C2362 1.366 . S
C2363 C2367 1.385 . S
C2364 H2345 0.951 . S
C2364 C2362 1.388 . S
C2364 C2365 1.366 . S
C2365 C2364 1.366 . S
C2365 C2366 1.414 . S
C2365 C2368 1.499 . S
C2366 H2346 0.950 . S
C2366 C2365 1.414 . S
C2366 C2367 1.374 . S
C2367 H2347 0.950 . S
C2367 C2363 1.385 . S
C2367 C2366 1.374 . S
C2368 C2365 1.499 . S
C2368 C2369 1.373 . S
C2368 C2370 1.389 . S
C2369 H2348 0.950 . S
C2369 C2368 1.373 . S
C2369 C2385 1.377 . S
C2370 C2368 1.389 . S
C2370 C2371 1.524 . S
C2370 C2384 1.377 . S
C2371 C2370 1.524 . S
C2371 C2372 1.397 . S
C2371 C2376 1.363 . S
C2372 H2349 0.950 . S
C2372 C2371 1.397 . S
C2372 C2373 1.334 . S
C2373 H2350 0.950 . S
C2373 C2372 1.334 . S
C2373 C2374 1.287 . S
C2374 C2373 1.287 . S
C2374 C2375 1.524 . S
C2374 H2393 0.913 . S
C2375 H2351 0.950 . S
C2375 C2374 1.524 . S
C2375 C2376 1.415 . S
C2376 H2352 0.950 . S
C2376 C2371 1.363 . S
C2376 C2375 1.415 . S
C2377 H2353 0.951 . S
C2377 C2378 1.366 . S
C2377 C2379 1.388 . S
C2378 C2377 1.366 . S
C2378 C2382 1.385 . S
C2379 H2354 0.951 . S
C2379 C2377 1.388 . S
C2379 C2380 1.366 . S
C2380 C2379 1.366 . S
C2380 C2381 1.414 . S
C2380 C2383 1.499 . S
C2381 H2355 0.950 . S
C2381 C2380 1.414 . S
C2381 C2382 1.374 . S
C2382 H2356 0.950 . S
C2382 C2378 1.385 . S
C2382 C2381 1.374 . S
C2383 C2380 1.499 . S
C2383 C2384 1.373 . S
C2383 C2385 1.389 . S
C2384 H2357 0.950 . S
C2384 C2370 1.377 . S
C2384 C2383 1.373 . S
C2385 C2369 1.377 . S
C2385 C2383 1.389 . S
C2385 C2386 1.524 . S
C2386 C2385 1.524 . S
C2386 C2387 1.397 . S
C2386 C2391 1.363 . S
C2387 H2358 0.950 . S
C2387 C2386 1.397 . S
C2387 C2388 1.334 . S
C2388 H2359 0.950 . S
C2388 C2387 1.334 . S
C2388 C2389 1.287 . S
C2389 C2388 1.287 . S
C2389 C2390 1.524 . S
C2389 H2392 0.999 . S
C2390 H2360 0.950 . S
C2390 C2389 1.524 . S
C2390 C2391 1.415 . S
C2391 H2361 0.950 . S
C2391 C2386 1.363 . S
C2391 C2390 1.415 . S
H2392 C2389 0.999 . S
H2393 C2374 0.913 . S
H2394 C2412 0.951 . S
H2395 C2414 0.951 . S
H2396 C2416 0.950 . S
H2397 C2417 0.950 . S
H2398 C2419 0.950 . S
H2399 C2422 0.950 . S
H2400 C2423 0.950 . S
H2401 C2425 0.950 . S
H2402 C2426 0.950 . S
H2403 C2427 0.951 . S
H2404 C2429 0.951 . S
H2405 C2431 0.950 . S
H2406 C2432 0.950 . S
H2407 C2434 0.950 . S
H2408 C2437 0.950 . S
H2409 C2438 0.950 . S
H2410 C2440 0.950 . S
H2411 C2441 0.950 . S
C2412 H2394 0.951 . S
C2412 C2413 1.366 . S
C2412 C2414 1.388 . S
C2413 C2412 1.366 . S
C2413 C2417 1.385 . S
C2414 H2395 0.951 . S
C2414 C2412 1.388 . S
C2414 C2415 1.366 . S
C2415 C2414 1.366 . S
C2415 C2416 1.414 . S
C2415 C2418 1.499 . S
C2416 H2396 0.950 . S
C2416 C2415 1.414 . S
C2416 C2417 1.374 . S
C2417 H2397 0.950 . S
C2417 C2413 1.385 . S
C2417 C2416 1.374 . S
C2418 C2415 1.499 . S
C2418 C2419 1.373 . S
C2418 C2420 1.389 . S
C2419 H2398 0.950 . S
C2419 C2418 1.373 . S
C2419 C2435 1.377 . S
C2420 C2418 1.389 . S
C2420 C2421 1.524 . S
C2420 C2434 1.377 . S
C2421 C2420 1.524 . S
C2421 C2422 1.397 . S
C2421 C2426 1.363 . S
C2422 H2399 0.950 . S
C2422 C2421 1.397 . S
C2422 C2423 1.334 . S
C2423 H2400 0.950 . S
C2423 C2422 1.334 . S
C2423 C2424 1.287 . S
C2424 C2423 1.287 . S
C2424 C2425 1.524 . S
C2424 H2443 0.913 . S
C2425 H2401 0.950 . S
C2425 C2424 1.524 . S
C2425 C2426 1.415 . S
C2426 H2402 0.950 . S
C2426 C2421 1.363 . S
C2426 C2425 1.415 . S
C2427 H2403 0.951 . S
C2427 C2428 1.366 . S
C2427 C2429 1.388 . S
C2428 C2427 1.366 . S
C2428 C2432 1.385 . S
C2429 H2404 0.951 . S
C2429 C2427 1.388 . S
C2429 C2430 1.366 . S
C2430 C2429 1.366 . S
C2430 C2431 1.414 . S
C2430 C2433 1.499 . S
C2431 H2405 0.950 . S
C2431 C2430 1.414 . S
C2431 C2432 1.374 . S
C2432 H2406 0.950 . S
C2432 C2428 1.385 . S
C2432 C2431 1.374 . S
C2433 C2430 1.499 . S
C2433 C2434 1.373 . S
C2433 C2435 1.389 . S
C2434 H2407 0.950 . S
C2434 C2420 1.377 . S
C2434 C2433 1.373 . S
C2435 C2419 1.377 . S
C2435 C2433 1.389 . S
C2435 C2436 1.524 . S
C2436 C2435 1.524 . S
C2436 C2437 1.397 . S
C2436 C2441 1.363 . S
C2437 H2408 0.950 . S
C2437 C2436 1.397 . S
C2437 C2438 1.334 . S
C2438 H2409 0.950 . S
C2438 C2437 1.334 . S
C2438 C2439 1.287 . S
C2439 C2438 1.287 . S
C2439 C2440 1.524 . S
C2439 H2442 0.999 . S
C2440 H2410 0.950 . S
C2440 C2439 1.524 . S
C2440 C2441 1.415 . S
C2441 H2411 0.950 . S
C2441 C2436 1.363 . S
C2441 C2440 1.415 . S
H2442 C2439 0.999 . S
H2443 C2424 0.913 . S
H2444 C2462 0.951 . S
H2445 C2464 0.951 . S
H2446 C2466 0.950 . S
H2447 C2467 0.974 . S
H2448 C2469 0.950 . S
H2449 C2472 0.950 . S
H2450 C2473 0.950 . S
H2451 C2475 0.950 . S
H2452 C2476 0.950 . S
H2453 C2477 0.951 . S
H2454 C2479 0.951 . S
H2455 C2481 0.950 . S
H2456 C2482 0.950 . S
H2457 C2484 0.950 . S
H2458 C2487 0.950 . S
H2459 C2488 0.950 . S
H2460 C2490 0.950 . S
H2461 C2491 0.950 . S
C2462 H2444 0.951 . S
C2462 C2463 1.366 . S
C2462 C2464 1.388 . S
C2463 C2462 1.366 . S
C2463 C2467 1.385 . S
C2464 H2445 0.951 . S
C2464 C2462 1.388 . S
C2464 C2465 1.366 . S
C2465 C2464 1.366 . S
C2465 C2466 1.414 . S
C2465 C2468 1.499 . S
C2466 H2446 0.950 . S
C2466 C2465 1.414 . S
C2466 C2467 1.374 . S
C2467 H2447 0.974 . S
C2467 C2463 1.385 . S
C2467 C2466 1.374 . S
C2468 C2465 1.499 . S
C2468 C2469 1.373 . S
C2468 C2470 1.389 . S
C2469 H2448 0.950 . S
C2469 C2468 1.373 . S
C2469 C2485 1.377 . S
C2470 C2468 1.389 . S
C2470 C2471 1.524 . S
C2470 C2484 1.377 . S
C2471 C2470 1.524 . S
C2471 C2472 1.397 . S
C2471 C2476 1.363 . S
C2472 H2449 0.950 . S
C2472 C2471 1.397 . S
C2472 C2473 1.334 . S
C2473 H2450 0.950 . S
C2473 C2472 1.334 . S
C2473 C2474 1.287 . S
C2474 C2473 1.287 . S
C2474 C2475 1.524 . S
C2474 H2493 0.913 . S
C2475 H2451 0.950 . S
C2475 C2474 1.524 . S
C2475 C2476 1.415 . S
C2476 H2452 0.950 . S
C2476 C2471 1.363 . S
C2476 C2475 1.415 . S
C2477 H2453 0.951 . S
C2477 C2478 1.366 . S
C2477 C2479 1.388 . S
C2478 C2477 1.366 . S
C2478 C2482 1.385 . S
C2479 H2454 0.951 . S
C2479 C2477 1.388 . S
C2479 C2480 1.366 . S
C2480 C2479 1.366 . S
C2480 C2481 1.414 . S
C2480 C2483 1.499 . S
C2481 H2455 0.950 . S
C2481 C2480 1.414 . S
C2481 C2482 1.374 . S
C2482 H2456 0.950 . S
C2482 C2478 1.385 . S
C2482 C2481 1.374 . S
C2483 C2480 1.499 . S
C2483 C2484 1.373 . S
C2483 C2485 1.389 . S
C2484 H2457 0.950 . S
C2484 C2470 1.377 . S
C2484 C2483 1.373 . S
C2485 C2469 1.377 . S
C2485 C2483 1.389 . S
C2485 C2486 1.524 . S
C2486 C2485 1.524 . S
C2486 C2487 1.397 . S
C2486 C2491 1.363 . S
C2487 H2458 0.950 . S
C2487 C2486 1.397 . S
C2487 C2488 1.334 . S
C2488 H2459 0.950 . S
C2488 C2487 1.334 . S
C2488 C2489 1.287 . S
C2489 C2488 1.287 . S
C2489 C2490 1.524 . S
C2489 H2492 0.999 . S
C2490 H2460 0.950 . S
C2490 C2489 1.524 . S
C2490 C2491 1.415 . S
C2491 H2461 0.950 . S
C2491 C2486 1.363 . S
C2491 C2490 1.415 . S
H2492 C2489 0.999 . S
H2493 C2474 0.913 . S
H2494 C2512 0.951 . S
H2495 C2514 0.951 . S
H2496 C2516 0.950 . S
H2497 C2517 0.950 . S
H2498 C2519 0.950 . S
H2499 C2522 0.950 . S
H2500 C2523 0.950 . S
H2501 C2525 0.950 . S
H2502 C2526 0.950 . S
H2503 C2527 0.951 . S
H2504 C2529 0.951 . S
H2505 C2531 0.950 . S
H2506 C2532 0.950 . S
H2507 C2534 0.950 . S
H2508 C2537 0.950 . S
H2509 C2538 0.950 . S
H2510 C2540 0.950 . S
H2511 C2541 0.950 . S
C2512 H2494 0.951 . S
C2512 C2513 1.366 . S
C2512 C2514 1.388 . S
C2513 C2512 1.366 . S
C2513 C2517 1.385 . S
C2514 H2495 0.951 . S
C2514 C2512 1.388 . S
C2514 C2515 1.366 . S
C2515 C2514 1.366 . S
C2515 C2516 1.414 . S
C2515 C2518 1.499 . S
C2516 H2496 0.950 . S
C2516 C2515 1.414 . S
C2516 C2517 1.374 . S
C2517 H2497 0.950 . S
C2517 C2513 1.385 . S
C2517 C2516 1.374 . S
C2518 C2515 1.499 . S
C2518 C2519 1.373 . S
C2518 C2520 1.389 . S
C2519 H2498 0.950 . S
C2519 C2518 1.373 . S
C2519 C2535 1.377 . S
C2520 C2518 1.389 . S
C2520 C2521 1.524 . S
C2520 C2534 1.377 . S
C2521 C2520 1.524 . S
C2521 C2522 1.397 . S
C2521 C2526 1.363 . S
C2522 H2499 0.950 . S
C2522 C2521 1.397 . S
C2522 C2523 1.334 . S
C2523 H2500 0.950 . S
C2523 C2522 1.334 . S
C2523 C2524 1.287 . S
C2524 C2523 1.287 . S
C2524 C2525 1.524 . S
C2524 H2543 0.913 . S
C2525 H2501 0.950 . S
C2525 C2524 1.524 . S
C2525 C2526 1.415 . S
C2526 H2502 0.950 . S
C2526 C2521 1.363 . S
C2526 C2525 1.415 . S
C2527 H2503 0.951 . S
C2527 C2528 1.366 . S
C2527 C2529 1.388 . S
C2528 C2527 1.366 . S
C2528 C2532 1.385 . S
C2529 H2504 0.951 . S
C2529 C2527 1.388 . S
C2529 C2530 1.366 . S
C2530 C2529 1.366 . S
C2530 C2531 1.414 . S
C2530 C2533 1.499 . S
C2531 H2505 0.950 . S
C2531 C2530 1.414 . S
C2531 C2532 1.374 . S
C2532 H2506 0.950 . S
C2532 C2528 1.385 . S
C2532 C2531 1.374 . S
C2533 C2530 1.499 . S
C2533 C2534 1.373 . S
C2533 C2535 1.389 . S
C2534 H2507 0.950 . S
C2534 C2520 1.377 . S
C2534 C2533 1.373 . S
C2535 C2519 1.377 . S
C2535 C2533 1.389 . S
C2535 C2536 1.524 . S
C2536 C2535 1.524 . S
C2536 C2537 1.397 . S
C2536 C2541 1.363 . S
C2537 H2508 0.950 . S
C2537 C2536 1.397 . S
C2537 C2538 1.334 . S
C2538 H2509 0.950 . S
C2538 C2537 1.334 . S
C2538 C2539 1.287 . S
C2539 C2538 1.287 . S
C2539 C2540 1.524 . S
C2539 H2542 0.999 . S
C2540 H2510 0.950 . S
C2540 C2539 1.524 . S
C2540 C2541 1.415 . S
C2541 H2511 0.950 . S
C2541 C2536 1.363 . S
C2541 C2540 1.415 . S
H2542 C2539 0.999 . S
H2543 C2524 0.913 . S
H2544 C2562 0.951 . S
H2545 C2564 0.951 . S
H2546 C2566 0.950 . S
H2547 C2567 0.950 . S
H2548 C2569 0.950 . S
H2549 C2572 0.950 . S
H2550 C2573 0.950 . S
H2551 C2575 0.950 . S
H2552 C2576 0.950 . S
H2553 C2577 0.951 . S
H2554 C2579 0.951 . S
H2555 C2581 0.950 . S
H2556 C2582 0.950 1_556 S
H2557 C2584 0.950 . S
H2558 C2587 0.950 . S
H2559 C2588 0.950 . S
H2560 C2590 0.950 . S
H2561 C2591 0.950 . S
C2562 H2544 0.951 . S
C2562 C2563 1.366 . S
C2562 C2564 1.388 . S
C2563 C2562 1.366 . S
C2563 C2567 1.385 . S
C2564 H2545 0.951 . S
C2564 C2562 1.388 . S
C2564 C2565 1.366 . S
C2565 C2564 1.366 . S
C2565 C2566 1.414 . S
C2565 C2568 1.499 . S
C2566 H2546 0.950 . S
C2566 C2565 1.414 . S
C2566 C2567 1.374 . S
C2567 H2547 0.950 . S
C2567 C2563 1.385 . S
C2567 C2566 1.374 . S
C2568 C2565 1.499 . S
C2568 C2569 1.373 . S
C2568 C2570 1.389 . S
C2569 H2548 0.950 . S
C2569 C2568 1.373 . S
C2569 C2585 1.377 . S
C2570 C2568 1.389 . S
C2570 C2571 1.524 . S
C2570 C2584 1.377 . S
C2571 C2570 1.524 . S
C2571 C2572 1.397 . S
C2571 C2576 1.363 . S
C2572 H2549 0.950 . S
C2572 C2571 1.397 . S
C2572 C2573 1.334 . S
C2573 H2550 0.950 . S
C2573 C2572 1.334 . S
C2573 C2574 1.287 . S
C2574 C2573 1.287 . S
C2574 C2575 1.524 . S
C2574 H2593 0.913 . S
C2575 H2551 0.950 . S
C2575 C2574 1.524 . S
C2575 C2576 1.415 . S
C2576 H2552 0.950 . S
C2576 C2571 1.363 . S
C2576 C2575 1.415 . S
C2577 H2553 0.951 . S
C2577 C2578 1.366 . S
C2577 C2579 1.388 . S
C2578 C2577 1.366 . S
C2578 C2582 1.385 . S
C2579 H2554 0.951 . S
C2579 C2577 1.388 . S
C2579 C2580 1.366 . S
C2580 C2579 1.366 . S
C2580 C2581 1.414 . S
C2580 C2583 1.499 . S
C2581 H2555 0.950 . S
C2581 C2580 1.414 . S
C2581 C2582 1.374 . S
C2582 H2556 0.950 1_554 S
C2582 C2578 1.385 . S
C2582 C2581 1.374 . S
C2583 C2580 1.499 . S
C2583 C2584 1.373 . S
C2583 C2585 1.389 . S
C2584 H2557 0.950 . S
C2584 C2570 1.377 . S
C2584 C2583 1.373 . S
C2585 C2569 1.377 . S
C2585 C2583 1.389 . S
C2585 C2586 1.524 . S
C2586 C2585 1.524 . S
C2586 C2587 1.397 . S
C2586 C2591 1.363 . S
C2587 H2558 0.950 . S
C2587 C2586 1.397 . S
C2587 C2588 1.334 . S
C2588 H2559 0.950 . S
C2588 C2587 1.334 . S
C2588 C2589 1.287 . S
C2589 C2588 1.287 . S
C2589 C2590 1.524 . S
C2589 H2592 0.999 . S
C2590 H2560 0.950 . S
C2590 C2589 1.524 . S
C2590 C2591 1.415 . S
C2591 H2561 0.950 . S
C2591 C2586 1.363 . S
C2591 C2590 1.415 . S
H2592 C2589 0.999 . S
H2593 C2574 0.913 . S
H2594 C2612 0.951 . S
H2595 C2614 0.951 . S
H2596 C2616 0.950 . S
H2597 C2617 0.950 . S
H2598 C2619 0.950 . S
H2599 C2622 0.950 . S
H2600 C2623 0.950 . S
H2601 C2625 0.950 . S
H2602 C2626 0.950 . S
H2603 C2627 0.951 . S
H2604 C2629 0.951 . S
H2605 C2631 0.950 . S
H2606 C2632 0.950 . S
H2607 C2634 0.950 . S
H2608 C2637 0.950 . S
H2609 C2638 0.950 . S
H2610 C2640 0.950 . S
H2611 C2641 0.950 . S
C2612 H2594 0.951 . S
C2612 C2613 1.366 . S
C2612 C2614 1.388 . S
C2613 C2612 1.366 . S
C2613 C2617 1.385 . S
C2614 H2595 0.951 . S
C2614 C2612 1.388 . S
C2614 C2615 1.366 . S
C2615 C2614 1.366 . S
C2615 C2616 1.414 . S
C2615 C2618 1.499 . S
C2616 H2596 0.950 . S
C2616 C2615 1.414 . S
C2616 C2617 1.374 . S
C2617 H2597 0.950 . S
C2617 C2613 1.385 . S
C2617 C2616 1.374 . S
C2618 C2615 1.499 . S
C2618 C2619 1.373 . S
C2618 C2620 1.389 . S
C2619 H2598 0.950 . S
C2619 C2618 1.373 . S
C2619 C2635 1.377 . S
C2620 C2618 1.389 . S
C2620 C2621 1.524 . S
C2620 C2634 1.377 . S
C2621 C2620 1.524 . S
C2621 C2622 1.397 . S
C2621 C2626 1.363 . S
C2622 H2599 0.950 . S
C2622 C2621 1.397 . S
C2622 C2623 1.334 . S
C2623 H2600 0.950 . S
C2623 C2622 1.334 . S
C2623 C2624 1.287 . S
C2624 C2623 1.287 . S
C2624 C2625 1.524 . S
C2624 H2643 0.913 . S
C2625 H2601 0.950 . S
C2625 C2624 1.524 . S
C2625 C2626 1.415 . S
C2626 H2602 0.950 . S
C2626 C2621 1.363 . S
C2626 C2625 1.415 . S
C2627 H2603 0.951 . S
C2627 C2628 1.366 . S
C2627 C2629 1.388 . S
C2628 C2627 1.366 . S
C2628 C2632 1.385 . S
C2629 H2604 0.951 . S
C2629 C2627 1.388 . S
C2629 C2630 1.366 . S
C2630 C2629 1.366 . S
C2630 C2631 1.414 . S
C2630 C2633 1.499 . S
C2631 H2605 0.950 . S
C2631 C2630 1.414 . S
C2631 C2632 1.374 . S
C2632 H2606 0.950 . S
C2632 C2628 1.385 . S
C2632 C2631 1.374 . S
C2633 C2630 1.499 . S
C2633 C2634 1.373 . S
C2633 C2635 1.389 . S
C2634 H2607 0.950 . S
C2634 C2620 1.377 . S
C2634 C2633 1.373 . S
C2635 C2619 1.377 . S
C2635 C2633 1.389 . S
C2635 C2636 1.524 . S
C2636 C2635 1.524 . S
C2636 C2637 1.397 . S
C2636 C2641 1.363 . S
C2637 H2608 0.950 . S
C2637 C2636 1.397 . S
C2637 C2638 1.334 . S
C2638 H2609 0.950 . S
C2638 C2637 1.334 . S
C2638 C2639 1.287 . S
C2639 C2638 1.287 . S
C2639 C2640 1.524 . S
C2639 H2642 0.999 . S
C2640 H2610 0.950 . S
C2640 C2639 1.524 . S
C2640 C2641 1.415 . S
C2641 H2611 0.950 . S
C2641 C2636 1.363 . S
C2641 C2640 1.415 . S
H2642 C2639 0.999 . S
H2643 C2624 0.913 . S
H2644 C2662 0.951 . S
H2645 C2664 0.951 . S
H2646 C2666 0.950 . S
H2647 C2667 0.950 . S
H2648 C2669 0.950 . S
H2649 C2672 0.950 . S
H2650 C2673 0.950 . S
H2651 C2675 0.950 . S
H2652 C2676 0.950 . S
H2653 C2677 0.951 . S
H2654 C2679 0.951 . S
H2655 C2681 0.950 . S
H2656 C2682 0.950 1_556 S
H2657 C2684 0.950 . S
H2658 C2687 0.950 . S
H2659 C2688 0.950 . S
H2660 C2690 0.950 . S
H2661 C2691 0.950 . S
C2662 H2644 0.951 . S
C2662 C2663 1.366 . S
C2662 C2664 1.388 . S
C2663 C2662 1.366 . S
C2663 C2667 1.385 . S
C2664 H2645 0.951 . S
C2664 C2662 1.388 . S
C2664 C2665 1.366 . S
C2665 C2664 1.366 . S
C2665 C2666 1.414 . S
C2665 C2668 1.499 . S
C2666 H2646 0.950 . S
C2666 C2665 1.414 . S
C2666 C2667 1.374 . S
C2667 H2647 0.950 . S
C2667 C2663 1.385 . S
C2667 C2666 1.374 . S
C2668 C2665 1.499 . S
C2668 C2669 1.373 . S
C2668 C2670 1.389 . S
C2669 H2648 0.950 . S
C2669 C2668 1.373 . S
C2669 C2685 1.377 . S
C2670 C2668 1.389 . S
C2670 C2671 1.524 . S
C2670 C2684 1.377 . S
C2671 C2670 1.524 . S
C2671 C2672 1.397 . S
C2671 C2676 1.363 . S
C2672 H2649 0.950 . S
C2672 C2671 1.397 . S
C2672 C2673 1.334 . S
C2673 H2650 0.950 . S
C2673 C2672 1.334 . S
C2673 C2674 1.287 . S
C2674 C2673 1.287 . S
C2674 C2675 1.524 . S
C2674 H2693 0.913 . S
C2675 H2651 0.950 . S
C2675 C2674 1.524 . S
C2675 C2676 1.415 . S
C2676 H2652 0.950 . S
C2676 C2671 1.363 . S
C2676 C2675 1.415 . S
C2677 H2653 0.951 . S
C2677 C2678 1.366 . S
C2677 C2679 1.388 . S
C2678 C2677 1.366 . S
C2678 C2682 1.385 . S
C2679 H2654 0.951 . S
C2679 C2677 1.388 . S
C2679 C2680 1.366 . S
C2680 C2679 1.366 . S
C2680 C2681 1.414 . S
C2680 C2683 1.499 . S
C2681 H2655 0.950 . S
C2681 C2680 1.414 . S
C2681 C2682 1.374 . S
C2682 H2656 0.950 1_554 S
C2682 C2678 1.385 . S
C2682 C2681 1.374 . S
C2683 C2680 1.499 . S
C2683 C2684 1.373 . S
C2683 C2685 1.389 . S
C2684 H2657 0.950 . S
C2684 C2670 1.377 . S
C2684 C2683 1.373 . S
C2685 C2669 1.377 . S
C2685 C2683 1.389 . S
C2685 C2686 1.524 . S
C2686 C2685 1.524 . S
C2686 C2687 1.397 . S
C2686 C2691 1.363 . S
C2687 H2658 0.950 . S
C2687 C2686 1.397 . S
C2687 C2688 1.334 . S
C2688 H2659 0.950 . S
C2688 C2687 1.334 . S
C2688 C2689 1.287 . S
C2689 C2688 1.287 . S
C2689 C2690 1.524 . S
C2689 H2692 0.999 . S
C2690 H2660 0.950 . S
C2690 C2689 1.524 . S
C2690 C2691 1.415 . S
C2691 H2661 0.950 . S
C2691 C2686 1.363 . S
C2691 C2690 1.415 . S
H2692 C2689 0.999 . S
H2693 C2674 0.913 . S
H2694 C2712 0.951 . S
H2695 C2714 0.951 . S
H2696 C2716 0.950 . S
H2697 C2717 0.950 . S
H2698 C2719 0.950 . S
H2699 C2722 0.950 . S
H2700 C2723 0.950 . S
H2701 C2725 0.950 . S
H2702 C2726 0.950 . S
H2703 C2727 0.951 . S
H2704 C2729 0.951 . S
H2705 C2731 0.950 . S
H2706 C2732 0.950 . S
H2707 C2734 0.950 . S
H2708 C2737 0.950 . S
H2709 C2738 0.950 1_556 S
H2710 C2740 0.950 . S
H2711 C2741 0.950 . S
C2712 H2694 0.951 . S
C2712 C2713 1.366 . S
C2712 C2714 1.388 . S
C2713 C2712 1.366 . S
C2713 C2717 1.385 . S
C2714 H2695 0.951 . S
C2714 C2712 1.388 . S
C2714 C2715 1.366 . S
C2715 C2714 1.366 . S
C2715 C2716 1.414 . S
C2715 C2718 1.499 . S
C2716 H2696 0.950 . S
C2716 C2715 1.414 . S
C2716 C2717 1.374 . S
C2717 H2697 0.950 . S
C2717 C2713 1.385 . S
C2717 C2716 1.374 . S
C2718 C2715 1.499 . S
C2718 C2719 1.373 . S
C2718 C2720 1.389 . S
C2719 H2698 0.950 . S
C2719 C2718 1.373 . S
C2719 C2735 1.377 . S
C2720 C2718 1.389 . S
C2720 C2721 1.524 . S
C2720 C2734 1.377 . S
C2721 C2720 1.524 . S
C2721 C2722 1.397 . S
C2721 C2726 1.363 . S
C2722 H2699 0.950 . S
C2722 C2721 1.397 . S
C2722 C2723 1.334 . S
C2723 H2700 0.950 . S
C2723 C2722 1.334 . S
C2723 C2724 1.287 . S
C2724 C2723 1.287 . S
C2724 C2725 1.524 . S
C2724 H2743 0.913 . S
C2725 H2701 0.950 . S
C2725 C2724 1.524 . S
C2725 C2726 1.415 . S
C2726 H2702 0.950 . S
C2726 C2721 1.363 . S
C2726 C2725 1.415 . S
C2727 H2703 0.951 . S
C2727 C2728 1.366 . S
C2727 C2729 1.388 . S
C2728 C2727 1.366 . S
C2728 C2732 1.385 . S
C2729 H2704 0.951 . S
C2729 C2727 1.388 . S
C2729 C2730 1.366 . S
C2730 C2729 1.366 . S
C2730 C2731 1.414 . S
C2730 C2733 1.499 . S
C2731 H2705 0.950 . S
C2731 C2730 1.414 . S
C2731 C2732 1.374 . S
C2732 H2706 0.950 . S
C2732 C2728 1.385 . S
C2732 C2731 1.374 . S
C2733 C2730 1.499 . S
C2733 C2734 1.373 . S
C2733 C2735 1.389 . S
C2734 H2707 0.950 . S
C2734 C2720 1.377 . S
C2734 C2733 1.373 . S
C2735 C2719 1.377 . S
C2735 C2733 1.389 . S
C2735 C2736 1.524 . S
C2736 C2735 1.524 . S
C2736 C2737 1.397 . S
C2736 C2741 1.363 . S
C2737 H2708 0.950 . S
C2737 C2736 1.397 . S
C2737 C2738 1.334 . S
C2738 H2709 0.950 1_554 S
C2738 C2737 1.334 . S
C2738 C2739 1.287 . S
C2739 C2738 1.287 . S
C2739 C2740 1.524 . S
C2739 H2742 0.999 1_554 S
C2740 H2710 0.950 . S
C2740 C2739 1.524 . S
C2740 C2741 1.415 . S
C2741 H2711 0.950 . S
C2741 C2736 1.363 . S
C2741 C2740 1.415 . S
H2742 C2739 0.999 1_556 S
H2743 C2724 0.913 . S
H2744 C2762 0.951 . S
H2745 C2764 0.951 . S
H2746 C2766 0.950 . S
H2747 C2767 0.950 . S
H2748 C2769 0.950 . S
H2749 C2772 0.950 . S
H2750 C2773 0.950 . S
H2751 C2775 0.950 . S
H2752 C2776 0.950 . S
H2753 C2777 0.951 . S
H2754 C2779 0.951 . S
H2755 C2781 0.950 . S
H2756 C2782 0.950 . S
H2757 C2784 0.950 . S
H2758 C2787 0.950 . S
H2759 C2788 0.950 . S
H2760 C2790 0.950 . S
H2761 C2791 0.950 . S
C2762 H2744 0.951 . S
C2762 C2763 1.366 . S
C2762 C2764 1.388 . S
C2763 C2762 1.366 . S
C2763 C2767 1.385 . S
C2764 H2745 0.951 . S
C2764 C2762 1.388 . S
C2764 C2765 1.366 . S
C2765 C2764 1.366 . S
C2765 C2766 1.414 . S
C2765 C2768 1.499 . S
C2766 H2746 0.950 . S
C2766 C2765 1.414 . S
C2766 C2767 1.374 . S
C2767 H2747 0.950 . S
C2767 C2763 1.385 . S
C2767 C2766 1.374 . S
C2768 C2765 1.499 . S
C2768 C2769 1.373 . S
C2768 C2770 1.389 . S
C2769 H2748 0.950 . S
C2769 C2768 1.373 . S
C2769 C2785 1.377 . S
C2770 C2768 1.389 . S
C2770 C2771 1.524 . S
C2770 C2784 1.377 . S
C2771 C2770 1.524 . S
C2771 C2772 1.397 . S
C2771 C2776 1.363 . S
C2772 H2749 0.950 . S
C2772 C2771 1.397 . S
C2772 C2773 1.334 . S
C2773 H2750 0.950 . S
C2773 C2772 1.334 . S
C2773 C2774 1.287 . S
C2774 C2773 1.287 . S
C2774 C2775 1.524 . S
C2774 H2793 0.913 . S
C2775 H2751 0.950 . S
C2775 C2774 1.524 . S
C2775 C2776 1.415 . S
C2776 H2752 0.950 . S
C2776 C2771 1.363 . S
C2776 C2775 1.415 . S
C2777 H2753 0.951 . S
C2777 C2778 1.366 . S
C2777 C2779 1.388 . S
C2778 C2777 1.366 . S
C2778 C2782 1.385 . S
C2779 H2754 0.951 . S
C2779 C2777 1.388 . S
C2779 C2780 1.366 . S
C2780 C2779 1.366 . S
C2780 C2781 1.414 . S
C2780 C2783 1.499 . S
C2781 H2755 0.950 . S
C2781 C2780 1.414 . S
C2781 C2782 1.374 . S
C2782 H2756 0.950 . S
C2782 C2778 1.385 . S
C2782 C2781 1.374 . S
C2783 C2780 1.499 . S
C2783 C2784 1.373 . S
C2783 C2785 1.389 . S
C2784 H2757 0.950 . S
C2784 C2770 1.377 . S
C2784 C2783 1.373 . S
C2785 C2769 1.377 . S
C2785 C2783 1.389 . S
C2785 C2786 1.524 . S
C2786 C2785 1.524 . S
C2786 C2787 1.397 . S
C2786 C2791 1.363 . S
C2787 H2758 0.950 . S
C2787 C2786 1.397 . S
C2787 C2788 1.334 . S
C2788 H2759 0.950 . S
C2788 C2787 1.334 . S
C2788 C2789 1.287 . S
C2789 C2788 1.287 . S
C2789 C2790 1.524 . S
C2789 H2792 0.999 . S
C2790 H2760 0.950 . S
C2790 C2789 1.524 . S
C2790 C2791 1.415 . S
C2791 H2761 0.950 . S
C2791 C2786 1.363 . S
C2791 C2790 1.415 . S
H2792 C2789 0.999 . S
H2793 C2774 0.913 . S
H2794 C2812 0.951 . S
H2795 C2814 0.951 . S
H2796 C2816 0.950 . S
H2797 C2817 0.950 . S
H2798 C2819 0.950 . S
H2799 C2822 0.950 . S
H2800 C2823 0.950 . S
H2801 C2825 0.950 . S
H2802 C2826 0.950 . S
H2803 C2827 0.951 . S
H2804 C2829 0.951 . S
H2805 C2831 0.950 . S
H2806 C2832 0.950 . S
H2807 C2834 0.950 . S
H2808 C2837 0.950 . S
H2809 C2838 0.950 . S
H2810 C2840 0.950 . S
H2811 C2841 0.950 . S
C2812 H2794 0.951 . S
C2812 C2813 1.366 . S
C2812 C2814 1.388 . S
C2813 C2812 1.366 . S
C2813 C2817 1.385 . S
C2814 H2795 0.951 . S
C2814 C2812 1.388 . S
C2814 C2815 1.366 . S
C2815 C2814 1.366 . S
C2815 C2816 1.414 . S
C2815 C2818 1.499 . S
C2816 H2796 0.950 . S
C2816 C2815 1.414 . S
C2816 C2817 1.374 . S
C2817 H2797 0.950 . S
C2817 C2813 1.385 . S
C2817 C2816 1.374 . S
C2818 C2815 1.499 . S
C2818 C2819 1.373 . S
C2818 C2820 1.389 . S
C2819 H2798 0.950 . S
C2819 C2818 1.373 . S
C2819 C2835 1.377 . S
C2820 C2818 1.389 . S
C2820 C2821 1.524 . S
C2820 C2834 1.377 . S
C2821 C2820 1.524 . S
C2821 C2822 1.397 . S
C2821 C2826 1.363 . S
C2822 H2799 0.950 . S
C2822 C2821 1.397 . S
C2822 C2823 1.334 . S
C2823 H2800 0.950 . S
C2823 C2822 1.334 . S
C2823 C2824 1.287 . S
C2824 C2823 1.287 . S
C2824 C2825 1.524 . S
C2824 H2843 0.913 . S
C2825 H2801 0.950 . S
C2825 C2824 1.524 . S
C2825 C2826 1.415 . S
C2826 H2802 0.950 . S
C2826 C2821 1.363 . S
C2826 C2825 1.415 . S
C2827 H2803 0.951 . S
C2827 C2828 1.366 . S
C2827 C2829 1.388 . S
C2828 C2827 1.366 . S
C2828 C2832 1.385 . S
C2829 H2804 0.951 . S
C2829 C2827 1.388 . S
C2829 C2830 1.366 . S
C2830 C2829 1.366 . S
C2830 C2831 1.414 . S
C2830 C2833 1.499 . S
C2831 H2805 0.950 . S
C2831 C2830 1.414 . S
C2831 C2832 1.374 . S
C2832 H2806 0.950 . S
C2832 C2828 1.385 . S
C2832 C2831 1.374 . S
C2833 C2830 1.499 . S
C2833 C2834 1.373 . S
C2833 C2835 1.389 . S
C2834 H2807 0.950 . S
C2834 C2820 1.377 . S
C2834 C2833 1.373 . S
C2835 C2819 1.377 . S
C2835 C2833 1.389 . S
C2835 C2836 1.524 . S
C2836 C2835 1.524 . S
C2836 C2837 1.397 . S
C2836 C2841 1.363 . S
C2837 H2808 0.950 . S
C2837 C2836 1.397 . S
C2837 C2838 1.334 . S
C2838 H2809 0.950 . S
C2838 C2837 1.334 . S
C2838 C2839 1.287 . S
C2839 C2838 1.287 . S
C2839 C2840 1.524 . S
C2839 H2842 0.999 . S
C2840 H2810 0.950 . S
C2840 C2839 1.524 . S
C2840 C2841 1.415 . S
C2841 H2811 0.950 . S
C2841 C2836 1.363 . S
C2841 C2840 1.415 . S
H2842 C2839 0.999 . S
H2843 C2824 0.913 . S
C613 N112 1.130 . S
C628 N13 1.130 . S
C663 N145 1.129 . S
C678 N46 1.129 . S
C713 N79 1.130 . S
C728 N178 1.130 . S
C763 C51 2.259 . S
C778 C183 2.259 . S
C813 C117 2.258 . S
C828 C84 2.258 . S
C863 C150 2.258 . S
C878 C18 2.258 . S
C913 N211 1.130 . S
C928 N310 1.130 . S
C963 N343 1.129 . S
C978 N244 1.129 . S
C1013 N277 1.130 . S
C1028 N376 1.130 . S
C1063 C381 2.259 . S
C1078 C249 2.259 . S
C1113 C315 2.258 . S
C1128 C282 2.258 . S
C1163 C348 2.258 . S
C1178 C216 2.258 . S
C1213 N508 1.130 . S
C1228 N409 1.130 . S
C1263 N442 1.129 . S
C1278 N541 1.130 . S
C1313 N574 1.129 . S
C1328 N475 1.129 . S
C1363 C447 2.259 . S
C1378 C579 2.259 . S
C1413 C513 2.258 . S
C1428 C480 2.258 . S
C1463 C414 2.258 . S
C1478 C546 2.258 . S
C1513 C582 1.382 . S
C1528 C21 1.382 . S
C1563 C54 1.382 . S
C1578 C516 1.382 . S
C1613 C549 1.382 . S
C1628 C87 1.382 . S
C1663 C252 1.382 . S
C1678 C120 1.382 . S
C1713 C153 1.382 . S
C1728 C285 1.382 . S
C1763 C186 1.382 . S
C1778 C219 1.382 . S
C1813 C450 1.382 . S
C1828 C318 1.382 . S
C1863 C483 1.382 . S
C1878 C351 1.382 . S
C1913 C384 1.382 . S
C1928 C417 1.382 . S
C1963 C7 1.862 . S
C1978 C106 1.862 . S
C2013 C139 1.862 . S
C2028 C40 1.862 . S
C2063 C73 1.862 . S
C2078 C172 1.862 . S
C2113 N167 0.688 . S
C2128 N35 0.689 . S
C2163 N68 0.688 . S
C2178 N101 0.688 . S
C2213 N134 0.690 . S
C2228 N2 0.691 . S
C2263 C205 1.863 . S
C2278 C304 1.862 1_556 S
C2313 C337 1.862 1_556 S
C2328 C238 1.862 . S
C2363 C370 1.862 1_556 S
C2378 C271 1.863 . S
C2413 N365 0.688 . S
C2428 N233 0.689 . S
C2463 N299 0.689 . S
C2478 N266 0.689 . S
C2513 N332 0.691 . S
C2528 N200 0.690 . S
C2563 C502 1.862 . S
C2578 C403 1.862 1_554 S
C2613 C535 1.862 . S
C2628 C436 1.862 1_554 S
C2663 C568 1.862 . S
C2678 C469 1.862 1_554 S
C2713 N563 0.690 . S
C2728 N431 0.690 . S
C2763 N497 0.688 . S
C2778 N464 0.688 . S
C2813 N530 0.688 . S
C2828 N398 0.688 . S
