# Generated by pormake.
# Topology smu, (6)-cn, num edge types: 1
# Building blocks:
#     Node 0, Type 0, BuildingBlock: PAMTOO_clean_sbu_0, # of connection points: 6
#     Node 1, Type 0, BuildingBlock: PAMTOO_clean_sbu_0, # of connection points: 6
#     Node 2, Type 0, BuildingBlock: PAMTOO_clean_sbu_0, # of connection points: 6
#     Node 3, Type 0, BuildingBlock: PAMTOO_clean_sbu_0, # of connection points: 6
#     Node 4, Type 0, BuildingBlock: PAMTOO_clean_sbu_0, # of connection points: 6
#     Node 5, Type 0, BuildingBlock: PAMTOO_clean_sbu_0, # of connection points: 6
#     Edge 6, Type (0, 0), BuildingBlock: MIFKUJ_clean_linker_0, # of connection points: 2
#     Edge 7, Type (0, 0), BuildingBlock: MIFKUJ_clean_linker_0, # of connection points: 2
#     Edge 8, Type (0, 0), BuildingBlock: MIFKUJ_clean_linker_0, # of connection points: 2
#     Edge 9, Type (0, 0), BuildingBlock: MIFKUJ_clean_linker_0, # of connection points: 2
#     Edge 10, Type (0, 0), BuildingBlock: MIFKUJ_clean_linker_0, # of connection points: 2
#     Edge 11, Type (0, 0), BuildingBlock: MIFKUJ_clean_linker_0, # of connection points: 2
#     Edge 12, Type (0, 0), BuildingBlock: MIFKUJ_clean_linker_0, # of connection points: 2
#     Edge 13, Type (0, 0), BuildingBlock: MIFKUJ_clean_linker_0, # of connection points: 2
#     Edge 14, Type (0, 0), BuildingBlock: MIFKUJ_clean_linker_0, # of connection points: 2
#     Edge 15, Type (0, 0), BuildingBlock: MIFKUJ_clean_linker_0, # of connection points: 2
#     Edge 16, Type (0, 0), BuildingBlock: MIFKUJ_clean_linker_0, # of connection points: 2
#     Edge 17, Type (0, 0), BuildingBlock: MIFKUJ_clean_linker_0, # of connection points: 2
#     Edge 18, Type (0, 0), BuildingBlock: MIFKUJ_clean_linker_0, # of connection points: 2
#     Edge 19, Type (0, 0), BuildingBlock: MIFKUJ_clean_linker_0, # of connection points: 2
#     Edge 20, Type (0, 0), BuildingBlock: MIFKUJ_clean_linker_0, # of connection points: 2
#     Edge 21, Type (0, 0), BuildingBlock: MIFKUJ_clean_linker_0, # of connection points: 2
#     Edge 22, Type (0, 0), BuildingBlock: MIFKUJ_clean_linker_0, # of connection points: 2
#     Edge 23, Type (0, 0), BuildingBlock: MIFKUJ_clean_linker_0, # of connection points: 2
# Relax obj value: 0.210
# Max RMSD: 0.298
# Mean RMSD: 0.298
data_MOF--net-smu--node1-PAMTOO_clean_sbu_0--edge1-MIFKUJ_clean_linker_0
_symmetry_space_group_name_H-M    P1
_symmetry_Int_Tables_number       1
_symmetry_cell_setting            triclinic
loop_
_symmetry_equiv_pos_as_xyz
'x, y, z'
_cell_length_a     47.956448
_cell_length_b     47.961269
_cell_length_c     36.543503
_cell_angle_alpha  89.967623
_cell_angle_beta   89.994975
_cell_angle_gamma 120.10257
loop_
_atom_site_label
_atom_site_type_symbol
_atom_site_fract_x
_atom_site_fract_y
_atom_site_fract_z
_atom_type_partial_charge
Dy0 Dy 0.37025 0.08348 0.24129 0.0
Dy1 Dy 0.31854 0.11046 0.24178 0.0
C2 C 0.3406 0.09079 0.31787 0.0
O3 O 0.32087 0.03898 0.23841 0.0
O4 O 0.29033 0.06007 0.26147 0.0
O5 O 0.39484 0.05934 0.26298 0.0
O6 O 0.4092 0.08436 0.2111 0.0
O7 O 0.3092 0.08495 0.18812 0.0
O8 O 0.35625 0.08361 0.18284 0.0
O9 O 0.36589 0.14736 0.21861 0.0
O10 O 0.39707 0.13601 0.25458 0.0
O11 O 0.27542 0.11046 0.2241 0.0
O12 O 0.31165 0.15013 0.25677 0.0
C13 C 0.29381 0.03546 0.25229 0.0
O14 O 0.35714 0.08009 0.30003 0.0
O15 O 0.32656 0.10523 0.30169 0.0
C16 C 0.45036 0.0852 0.24664 0.0
C17 C 0.51792 0.11631 0.25665 0.0
C18 C 0.50139 0.13346 0.26088 0.0
C19 C 0.46792 0.11805 0.25586 0.0
C20 C 0.46653 0.06778 0.24368 0.0
C21 C 0.49993 0.08312 0.2487 0.0
C22 C 0.41598 0.06966 0.23653 0.0
C23 C 0.32899 0.07917 0.16911 0.0
C24 C 0.39298 0.15692 0.23598 0.0
C25 C 0.25864 0.14387 0.25472 0.0
C26 C 0.21576 0.16583 0.27446 0.0
C27 C 0.21161 0.14885 0.2416 0.0
C28 C 0.23272 0.138 0.23195 0.0
C29 C 0.26221 0.15961 0.28831 0.0
C30 C 0.24089 0.17036 0.29814 0.0
C31 C 0.28395 0.13801 0.23988 0.0
H32 H 0.51443 0.15905 0.26672 0.0
H33 H 0.45589 0.132 0.25803 0.0
H34 H 0.45344 0.04245 0.23651 0.0
H35 H 0.51174 0.06902 0.24592 0.0
H36 H 0.19305 0.14534 0.22223 0.0
H37 H 0.22974 0.12644 0.20562 0.0
H38 H 0.28211 0.16466 0.30637 0.0
H39 H 0.24458 0.18289 0.3239 0.0
Dy40 Dy 0.72624 0.64813 0.26555 0.0
Dy41 Dy 0.80416 0.6962 0.27481 0.0
C42 C 0.75601 0.68098 0.341 0.0
O43 O 0.73105 0.69699 0.25825 0.0
O44 O 0.78606 0.73039 0.26815 0.0
O45 O 0.6806 0.61551 0.2907 0.0
O46 O 0.68393 0.62044 0.23174 0.0
O47 O 0.7941 0.70639 0.21793 0.0
O48 O 0.74782 0.65781 0.20925 0.0
O49 O 0.79524 0.64886 0.25429 0.0
O50 O 0.74808 0.61848 0.28379 0.0
O51 O 0.85176 0.70412 0.2642 0.0
O52 O 0.84541 0.735 0.30263 0.0
C53 C 0.75709 0.72581 0.26114 0.0
O54 O 0.73329 0.67507 0.31729 0.0
O55 O 0.7818 0.67992 0.33085 0.0
C56 C 0.64842 0.56819 0.2557 0.0
C57 C 0.61247 0.50015 0.2486 0.0
C58 C 0.63097 0.5146 0.28015 0.0
C59 C 0.64877 0.54816 0.28363 0.0
C60 C 0.63028 0.55388 0.22402 0.0
C61 C 0.61264 0.52029 0.22041 0.0
C62 C 0.66628 0.60381 0.2595 0.0
C63 C 0.7706 0.68581 0.19663 0.0
C64 C 0.77417 0.62139 0.26874 0.0
C65 C 0.89736 0.75621 0.27473 0.0
C66 C 0.96209 0.8024 0.25835 0.0
C67 C 0.9415 0.78166 0.23096 0.0
C68 C 0.90943 0.75876 0.23906 0.0
C69 C 0.91749 0.77772 0.30164 0.0
C70 C 0.94945 0.80057 0.29359 0.0
C71 C 0.86584 0.7289 0.286 0.0
H72 H 0.63112 0.50001 0.30269 0.0
H73 H 0.66249 0.55832 0.30846 0.0
H74 H 0.62963 0.56871 0.20203 0.0
H75 H 0.59916 0.51015 0.19545 0.0
H76 H 0.95032 0.78272 0.20342 0.0
H77 H 0.89447 0.74242 0.21773 0.0
H78 H 0.90888 0.77594 0.32945 0.0
H79 H 0.96464 0.81579 0.3155 0.0
Dy80 Dy 0.93511 0.29257 0.27039 0.0
Dy81 Dy 0.90627 0.21455 0.26263 0.0
C82 C 0.93638 0.25198 0.33966 0.0
O83 O 0.97975 0.28794 0.26503 0.0
O84 O 0.9581 0.23248 0.27108 0.0
O85 O 0.94143 0.33279 0.30306 0.0
O86 O 0.95417 0.33986 0.24576 0.0
O87 O 0.93011 0.23518 0.20911 0.0
O88 O 0.92747 0.28151 0.21027 0.0
O89 O 0.87017 0.22747 0.24334 0.0
O90 O 0.88252 0.26679 0.28439 0.0
O91 O 0.90121 0.17209 0.23603 0.0
O92 O 0.86697 0.16757 0.27807 0.0
C93 C 0.98272 0.26195 0.2678 0.0
O94 O 0.94905 0.27989 0.32286 0.0
O95 O 0.91598 0.22457 0.32334 0.0
C96 C 0.93114 0.36918 0.27095 0.0
C97 C 0.89611 0.40212 0.26635 0.0
C98 C 0.87992 0.36821 0.26699 0.0
C99 C 0.89729 0.3519 0.26916 0.0
C100 C 0.94735 0.4029 0.26998 0.0
C101 C 0.93005 0.41922 0.26767 0.0
C102 C 0.94958 0.35233 0.27525 0.0
C103 C 0.93305 0.26086 0.19271 0.0
C104 C 0.86123 0.24398 0.26352 0.0
C105 C 0.86893 0.11968 0.26255 0.0
C106 C 0.845 0.05259 0.26792 0.0
C107 C 0.8651 0.07055 0.23869 0.0
C108 C 0.87688 0.10363 0.23606 0.0
C109 C 0.85005 0.10215 0.29271 0.0
C110 C 0.83833 0.06896 0.29545 0.0
C111 C 0.8754 0.15262 0.25453 0.0
H112 H 0.85386 0.35428 0.26565 0.0
H113 H 0.88429 0.3258 0.2698 0.0
H114 H 0.97342 0.41666 0.27153 0.0
H115 H 0.9433 0.44533 0.26777 0.0
H116 H 0.8704 0.05882 0.21666 0.0
H117 H 0.89081 0.11632 0.21211 0.0
H118 H 0.84319 0.11375 0.31339 0.0
H119 H 0.82335 0.05598 0.31864 0.0
Dy120 Dy 0.08614 0.36691 0.76114 0.0
Dy121 Dy 0.11417 0.31653 0.76875 0.0
C122 C 0.0865 0.32598 0.69165 0.0
O123 O 0.04188 0.31799 0.7703 0.0
O124 O 0.06213 0.28364 0.75983 0.0
O125 O 0.07925 0.39991 0.7274 0.0
O126 O 0.06602 0.39452 0.78455 0.0
O127 O 0.09209 0.31524 0.82309 0.0
O128 O 0.09417 0.36409 0.82114 0.0
O129 O 0.15097 0.36499 0.78864 0.0
O130 O 0.13942 0.39478 0.75027 0.0
O131 O 0.11573 0.27568 0.7914 0.0
O132 O 0.15463 0.31006 0.75658 0.0
C133 C 0.03817 0.28887 0.76631 0.0
O134 O 0.0725 0.33971 0.70883 0.0
O135 O 0.10735 0.31977 0.70799 0.0
C136 C 0.08587 0.44605 0.75777 0.0
C137 C 0.11668 0.5141 0.75998 0.0
C138 C 0.08335 0.49527 0.75315 0.0
C139 C 0.06816 0.46162 0.75205 0.0
C140 C 0.11906 0.46455 0.76491 0.0
C141 C 0.13434 0.49828 0.76597 0.0
C142 C 0.06973 0.4107 0.75451 0.0
C143 C 0.08905 0.33813 0.83906 0.0
C144 C 0.16033 0.39139 0.76996 0.0
C145 C 0.14917 0.25771 0.76319 0.0
C146 C 0.17066 0.21321 0.75161 0.0
C147 C 0.14496 0.20586 0.77563 0.0
C148 C 0.13441 0.22789 0.78143 0.0
C149 C 0.17368 0.26433 0.73764 0.0
C150 C 0.18421 0.24226 0.7318 0.0
C151 C 0.14321 0.28359 0.7758 0.0
H152 H 0.06906 0.50656 0.74782 0.0
H153 H 0.04258 0.44776 0.7462 0.0
H154 H 0.13316 0.45291 0.76934 0.0
H155 H 0.15994 0.51195 0.77165 0.0
H156 H 0.13366 0.18345 0.79087 0.0
H157 H 0.11574 0.22218 0.80161 0.0
H158 H 0.18593 0.28728 0.72353 0.0
H159 H 0.2042 0.24877 0.71329 0.0
Dy160 Dy 0.29383 0.92968 0.74985 0.0
Dy161 Dy 0.2176 0.90894 0.73593 0.0
C162 C 0.26936 0.93553 0.67025 0.0
O163 O 0.29162 0.975 0.7596 0.0
O164 O 0.24626 0.96157 0.72507 0.0
O165 O 0.34088 0.9429 0.72862 0.0
O166 O 0.33201 0.9358 0.78674 0.0
O167 O 0.22781 0.92626 0.79397 0.0
O168 O 0.27004 0.91769 0.80489 0.0
O169 O 0.2185 0.86589 0.75769 0.0
O170 O 0.26673 0.87793 0.73271 0.0
O171 O 0.17313 0.87722 0.70745 0.0
O172 O 0.17604 0.91458 0.74356 0.0
C173 C 0.27223 0.9828 0.74254 0.0
O174 O 0.29314 0.94797 0.69391 0.0
O175 O 0.2398 0.91426 0.68028 0.0
C176 C 0.36836 0.92102 0.76128 0.0
C177 C 0.40332 0.88773 0.76225 0.0
C178 C 0.38079 0.882 0.73436 0.0
C179 C 0.36343 0.89837 0.73394 0.0
C180 C 0.39017 0.92621 0.78959 0.0
C181 C 0.40734 0.90969 0.79019 0.0
C182 C 0.35192 0.94019 0.76018 0.0
C183 C 0.24842 0.92482 0.81654 0.0
C184 C 0.23856 0.85675 0.7461 0.0
C185 C 0.12363 0.87042 0.73056 0.0
C186 C 0.05689 0.83683 0.74571 0.0
C187 C 0.07941 0.84387 0.77402 0.0
C188 C 0.11263 0.86074 0.76652 0.0
C189 C 0.10117 0.86224 0.70225 0.0
C190 C 0.06819 0.84568 0.7097 0.0
C191 C 0.15801 0.89095 0.72147 0.0
H192 H 0.37716 0.86555 0.71219 0.0
H193 H 0.34659 0.89369 0.71184 0.0
H194 H 0.39422 0.94337 0.81111 0.0
H195 H 0.42388 0.91428 0.81258 0.0
H196 H 0.07139 0.83743 0.80205 0.0
H197 H 0.12964 0.86686 0.78878 0.0
H198 H 0.10918 0.86947 0.67433 0.0
H199 H 0.05148 0.84019 0.68725 0.0
Dy200 Dy 0.65282 0.72112 0.77802 0.0
Dy201 Dy 0.70087 0.79907 0.76926 0.0
C202 C 0.68752 0.75101 0.70363 0.0
O203 O 0.70173 0.72617 0.78667 0.0
O204 O 0.73526 0.7814 0.77814 0.0
O205 O 0.62214 0.67535 0.75205 0.0
O206 O 0.62279 0.67883 0.8111 0.0
O207 O 0.70947 0.78958 0.82705 0.0
O208 O 0.66174 0.74188 0.83473 0.0
O209 O 0.65296 0.79014 0.78766 0.0
O210 O 0.62351 0.7429 0.75806 0.0
O211 O 0.70844 0.84669 0.77863 0.0
O212 O 0.73985 0.84006 0.74118 0.0
C213 C 0.7306 0.75234 0.78488 0.0
O214 O 0.68131 0.72832 0.72747 0.0
O215 O 0.68561 0.77642 0.71329 0.0
C216 C 0.57272 0.64313 0.78292 0.0
C217 C 0.50439 0.60706 0.7821 0.0
C218 C 0.52131 0.63488 0.76031 0.0
C219 C 0.55504 0.65278 0.76084 0.0
C220 C 0.55604 0.61577 0.80509 0.0
C221 C 0.52229 0.598 0.80481 0.0
C222 C 0.6084 0.66098 0.78261 0.0
C223 C 0.68881 0.76573 0.848 0.0
C224 C 0.62598 0.7691 0.77229 0.0
C225 C 0.75958 0.89322 0.76568 0.0
C226 C 0.80276 0.95996 0.77525 0.0
C227 C 0.78119 0.94157 0.8033 0.0
C228 C 0.75977 0.90855 0.79855 0.0
C229 C 0.78214 0.91122 0.73843 0.0
C230 C 0.80351 0.94417 0.74315 0.0
C231 C 0.7331 0.86052 0.75658 0.0
H232 H 0.50857 0.64253 0.74217 0.0
H233 H 0.5673 0.67394 0.7436 0.0
H234 H 0.56915 0.60802 0.82254 0.0
H235 H 0.51025 0.57719 0.82258 0.0
H236 H 0.78032 0.95286 0.8286 0.0
H237 H 0.74255 0.89537 0.82003 0.0
H238 H 0.78215 0.90014 0.71261 0.0
H239 H 0.81947 0.95755 0.72078 0.0
H240 H 0.2201 0.95677 0.84688 0.0
H241 H 0.22966 0.98121 0.90766 0.0
H242 H 0.29091 0.94224 0.93443 0.0
H243 H 0.28155 0.91773 0.87364 0.0
H244 H 0.25251 0.93895 0.99334 0.0
H245 H 0.32561 0.01753 0.9084 0.0
H246 H 0.34075 0.04911 0.85123 0.0
H247 H 0.28248 0.09018 0.88147 0.0
H248 H 0.26674 0.05858 0.93873 0.0
H249 H 0.35418 0.04861 0.12969 0.0
H250 H 0.33585 0.02123 0.07085 0.0
H251 H 0.26393 0.0498 0.06472 0.0
H252 H 0.28161 0.07677 0.12433 0.0
H253 H 0.30457 0.05828 0.99618 0.0
H254 H 0.23393 0.97984 0.08414 0.0
H255 H 0.2218 0.94874 0.14133 0.0
H256 H 0.27897 0.90797 0.10543 0.0
H257 H 0.29168 0.93914 0.04798 0.0
C258 C 0.23508 0.95279 0.86589 0.0
C259 C 0.2501 0.93529 0.85523 0.0
C260 C 0.24069 0.96699 0.90062 0.0
C261 C 0.2613 0.9639 0.92553 0.0
C262 C 0.27494 0.94501 0.91571 0.0
C263 C 0.26959 0.93104 0.88086 0.0
C264 C 0.27027 0.98201 0.96078 0.0
C265 C 0.26403 0.96502 0.99389 0.0
C266 C 0.28506 0.01607 0.96171 0.0
C267 C 0.29478 0.0355 0.92766 0.0
C268 C 0.3159 0.03319 0.90277 0.0
C269 C 0.32466 0.05113 0.87041 0.0
C270 C 0.31265 0.07167 0.86278 0.0
C271 C 0.29185 0.07434 0.88749 0.0
C272 C 0.28302 0.05644 0.91992 0.0
C273 C 0.33467 0.04946 0.11577 0.0
C274 C 0.31946 0.06506 0.1318 0.0
C275 C 0.32416 0.03365 0.08215 0.0
C276 C 0.29851 0.03343 0.06345 0.0
C277 C 0.28382 0.04975 0.07869 0.0
C278 C 0.29395 0.06512 0.11276 0.0
C279 C 0.28662 0.01517 0.0286 0.0
C280 C 0.29259 0.03217 0.99558 0.0
C281 C 0.27188 0.98117 0.02774 0.0
C282 C 0.264 0.96205 0.06194 0.0
C283 C 0.24413 0.96444 0.08856 0.0
C284 C 0.23711 0.94676 0.12102 0.0
C285 C 0.24973 0.92649 0.12715 0.0
C286 C 0.26926 0.92373 0.10069 0.0
C287 C 0.27632 0.94134 0.06812 0.0
H288 H 0.2443 0.91284 0.15233 0.0
H289 H 0.31942 0.08541 0.83765 0.0
H290 H 0.6808 0.77649 0.63878 0.0
H291 H 0.69549 0.76764 0.57704 0.0
H292 H 0.73282 0.71009 0.62287 0.0
H293 H 0.71782 0.7183 0.68413 0.0
H294 H 0.77332 0.7553 0.56738 0.0
H295 H 0.66258 0.67182 0.58801 0.0
H296 H 0.60557 0.65185 0.60342 0.0
H297 H 0.59751 0.70446 0.51284 0.0
H298 H 0.65466 0.72513 0.49722 0.0
H299 H 0.78353 0.67604 0.40541 0.0
H300 H 0.77481 0.69026 0.4673 0.0
H301 H 0.71325 0.72352 0.42272 0.0
H302 H 0.7206 0.70799 0.36176 0.0
H303 H 0.68578 0.69193 0.47872 0.0
H304 H 0.7949 0.77451 0.4556 0.0
H305 H 0.85239 0.79739 0.44037 0.0
H306 H 0.86497 0.75108 0.5344 0.0
H307 H 0.80743 0.72751 0.54991 0.0
C308 C 0.6923 0.76213 0.63563 0.0
C309 C 0.69776 0.74778 0.66626 0.0
C310 C 0.70066 0.75706 0.60039 0.0
C311 C 0.71517 0.73809 0.59533 0.0
C312 C 0.7217 0.72481 0.62607 0.0
C313 C 0.71285 0.72934 0.66105 0.0
C314 C 0.72219 0.73064 0.55802 0.0
C315 C 0.75423 0.74119 0.54802 0.0
C316 C 0.69735 0.71288 0.53249 0.0
C317 C 0.66297 0.70029 0.54171 0.0
C318 C 0.64872 0.67935 0.57158 0.0
C319 C 0.61638 0.66787 0.58031 0.0
C320 C 0.59796 0.67696 0.55919 0.0
C321 C 0.61183 0.69748 0.52922 0.0
C322 C 0.64418 0.70907 0.5204 0.0
C323 C 0.76822 0.68644 0.40895 0.0
C324 C 0.75256 0.6906 0.37869 0.0
C325 C 0.76337 0.69479 0.44434 0.0
C326 C 0.7435 0.70831 0.45 0.0
C327 C 0.72845 0.71295 0.4195 0.0
C328 C 0.73273 0.70404 0.38448 0.0
C329 C 0.73723 0.71674 0.48747 0.0
C330 C 0.70514 0.7062 0.49773 0.0
C331 C 0.76216 0.73489 0.51302 0.0
C332 C 0.79673 0.74888 0.50362 0.0
C333 C 0.80985 0.76894 0.47283 0.0
C334 C 0.84246 0.78208 0.46419 0.0
C335 C 0.86229 0.77559 0.48632 0.0
C336 C 0.84956 0.75601 0.51721 0.0
C337 C 0.81695 0.74275 0.52594 0.0
H338 H 0.88754 0.7858 0.47959 0.0
H339 H 0.57291 0.66804 0.56599 0.0
H340 H 0.94553 0.31293 0.14947 0.0
H341 H 0.97155 0.32675 0.08931 0.0
H342 H 0.97553 0.23891 0.08938 0.0
H343 H 0.94985 0.22504 0.14942 0.0
H344 H 0.03254 0.28867 0.07072 0.0
H345 H 0.9231 0.24796 0.03351 0.0
H346 H 0.86972 0.24378 0.03318 0.0
H347 H 0.91299 0.34277 0.99989 0.0
H348 H 0.96672 0.34766 1.00047 0.0
H349 H 0.0746 0.28705 0.88435 0.0
H350 H 0.04854 0.27551 0.94418 0.0
H351 H 0.04814 0.36516 0.94035 0.0
H352 H 0.07395 0.3768 0.88011 0.0
H353 H 0.99003 0.31615 0.96122 0.0
H354 H 0.09986 0.35566 0.99677 0.0
H355 H 0.15261 0.35842 0.9964 0.0
H356 H 0.10785 0.26003 0.03239 0.0
H357 H 0.05473 0.25652 0.03247 0.0
C358 C 0.95151 0.2963 0.13649 0.0
C359 C 0.94548 0.26782 0.15444 0.0
C360 C 0.9664 0.30424 0.102 0.0
C361 C 0.97551 0.28385 0.08463 0.0
C362 C 0.96888 0.25511 0.10217 0.0
C363 C 0.95398 0.24714 0.13653 0.0
C364 C 0.99313 0.29298 0.04897 0.0
C365 C 0.02302 0.29428 0.04667 0.0
C366 C 0.98121 0.30109 0.01771 0.0
C367 C 0.94897 0.29828 0.01745 0.0
C368 C 0.92127 0.26892 0.02645 0.0
C369 C 0.89094 0.2664 0.02614 0.0
C370 C 0.88797 0.29302 0.01663 0.0
C371 C 0.91533 0.32219 1.00731 0.0
C372 C 0.94573 0.32484 1.0076 0.0
C373 C 0.06943 0.30461 0.89635 0.0
C374 C 0.07662 0.333 0.87731 0.0
C375 C 0.05449 0.29794 0.93069 0.0
C376 C 0.0465 0.31954 0.94703 0.0
C377 C 0.05404 0.34811 0.92837 0.0
C378 C 0.06904 0.35483 0.89398 0.0
C379 C 0.0294 0.31176 0.98298 0.0
C380 C 0.99961 0.31067 0.98533 0.0
C381 C 0.04134 0.30369 0.01427 0.0
C382 C 0.07327 0.30575 0.0143 0.0
C383 C 0.10122 0.33453 1.00432 0.0
C384 C 0.13119 0.33624 1.00421 0.0
C385 C 0.13356 0.30939 0.01428 0.0
C386 C 0.10597 0.28079 0.02456 0.0
C387 C 0.07593 0.27894 0.02467 0.0
H388 H 0.15679 0.31077 0.01419 0.0
H389 H 0.86447 0.29102 0.0164 0.0
H390 H 0.28497 0.07154 0.35638 0.0
H391 H 0.27157 0.04608 0.41685 0.0
H392 H 0.36901 0.06457 0.42835 0.0
H393 H 0.38182 0.08846 0.36724 0.0
H394 H 0.33178 1.00662 0.44571 0.0
H395 H 0.33423 0.10443 0.48011 0.0
H396 H 0.31983 0.14704 0.47672 0.0
H397 H 0.22048 0.07698 0.49622 0.0
H398 H 0.23422 0.03387 0.49926 0.0
H399 H 0.32746 0.97107 0.63578 0.0
H400 H 0.33796 0.99788 0.57629 0.0
H401 H 0.23596 0.95854 0.56008 0.0
H402 H 0.22517 0.93138 0.61958 0.0
H403 H 0.2728 0.02527 0.5453 0.0
H404 H 0.27229 0.92805 0.51255 0.0
H405 H 0.28837 0.88679 0.51788 0.0
H406 H 0.38696 0.9585 0.49721 0.0
H407 H 0.37153 1.00031 0.49228 0.0
C408 C 0.30373 0.07096 0.37229 0.0
C409 C 0.33452 0.08222 0.3572 0.0
C410 C 0.29606 0.05632 0.40694 0.0
C411 C 0.31927 0.05339 0.42759 0.0
C412 C 0.35051 0.06621 0.4131 0.0
C413 C 0.35794 0.08016 0.37824 0.0
C414 C 0.3107 0.03503 0.46291 0.0
C415 C 0.31934 0.01121 0.46761 0.0
C416 C 0.29354 0.04001 0.49138 0.0
C417 C 0.28522 0.06588 0.48953 0.0
C418 C 0.30927 0.09808 0.48339 0.0
C419 C 0.30124 0.12232 0.48158 0.0
C420 C 0.26925 0.11471 0.48614 0.0
C421 C 0.24524 0.08284 0.49263 0.0
C422 C 0.25314 0.05849 0.49443 0.0
C423 C 0.30718 0.96775 0.61941 0.0
C424 C 0.27544 0.94886 0.63244 0.0
C425 C 0.31325 0.98315 0.58538 0.0
C426 C 0.28776 0.98023 0.56366 0.0
C427 C 0.25601 0.96117 0.57638 0.0
C428 C 0.24988 0.94542 0.61027 0.0
C429 C 0.29444 0.99755 0.528 0.0
C430 C 0.28531 0.02094 0.52326 0.0
C431 C 0.31148 0.99249 0.49963 0.0
C432 C 0.32079 0.96736 0.50237 0.0
C433 C 0.29744 0.93508 0.50943 0.0
C434 C 0.30643 0.91158 0.51233 0.0
C435 C 0.33868 0.92003 0.50797 0.0
C436 C 0.36199 0.952 0.50062 0.0
C437 C 0.35313 0.97559 0.49773 0.0
H438 H 0.34559 0.90181 0.51023 0.0
H439 H 0.26307 0.13351 0.48474 0.0
H440 H 0.65379 0.71828 0.89801 0.0
H441 H 0.67082 0.7104 0.95794 0.0
H442 H 0.76082 0.79966 0.94624 0.0
H443 H 0.74425 0.80729 0.88538 0.0
H444 H 0.77284 0.75593 0.97084 0.0
H445 H 0.70047 0.79071 1.00865 0.0
H446 H 0.65003 0.79259 1.01028 0.0
H447 H 0.5981 0.69406 0.04612 0.0
H448 H 0.64815 0.69145 0.04426 0.0
H449 H 0.80966 0.74335 0.16131 0.0
H450 H 0.79907 0.7619 0.10315 0.0
H451 H 0.71218 0.6702 0.08946 0.0
H452 H 0.72256 0.6514 0.14712 0.0
H453 H 0.70244 0.72245 0.08051 0.0
H454 H 0.77671 0.68862 0.03832 0.0
H455 H 0.8284 0.68915 0.03741 0.0
H456 H 0.87847 0.79015 1.01168 0.0
H457 H 0.8271 0.79031 0.01297 0.0
C458 C 0.67702 0.73661 0.90827 0.0
C459 C 0.69751 0.76356 0.88669 0.0
C460 C 0.68674 0.73209 0.94282 0.0
C461 C 0.71704 0.75459 0.95712 0.0
C462 C 0.73731 0.78192 0.93601 0.0
C463 C 0.72767 0.78639 0.90124 0.0
C464 C 0.72797 0.74847 0.99312 0.0
C465 C 0.75765 0.74923 0.99497 0.0
C466 C 0.70823 0.73939 0.02479 0.0
C467 C 0.67804 0.74083 0.02603 0.0
C468 C 0.67825 0.76937 0.01662 0.0
C469 C 0.64974 0.77058 0.01764 0.0
C470 C 0.62087 0.74344 0.02822 0.0
C471 C 0.62047 0.71506 0.03791 0.0
C472 C 0.64892 0.71372 0.03693 0.0
C473 C 0.78862 0.72687 0.1456 0.0
C474 C 0.76707 0.69575 0.15901 0.0
C475 C 0.78255 0.73759 0.11236 0.0
C476 C 0.75476 0.71749 0.0919 0.0
C477 C 0.7337 0.68622 0.10479 0.0
C478 C 0.73984 0.67542 0.13775 0.0
C479 C 0.74676 0.72911 0.05776 0.0
C480 C 0.71768 0.72948 0.0564 0.0
C481 C 0.76725 0.73964 0.02678 0.0
C482 C 0.79812 0.73956 0.02619 0.0
C483 C 0.79878 0.71101 0.03284 0.0
C484 C 0.82801 0.71117 0.03217 0.0
C485 C 0.85671 0.73969 0.02461 0.0
C486 C 0.85623 0.76809 0.01761 0.0
C487 C 0.82707 0.76807 0.0183 0.0
H488 H 0.87931 0.73976 0.02406 0.0
H489 H 0.59881 0.74442 0.02897 0.0
H490 H 0.9441 0.20551 0.37564 0.0
H491 H 0.97188 0.21179 0.43436 0.0
H492 H 0.98299 0.30625 0.4472 0.0
H493 H 0.95603 0.30032 0.38897 0.0
H494 H 0.03842 0.30984 0.45816 0.0
H495 H 0.92869 0.23791 0.49875 0.0
H496 H 0.87623 0.18741 0.49872 0.0
H497 H 0.9234 0.13351 0.52284 0.0
H498 H 0.97622 0.18369 0.5225 0.0
H499 H 0.06522 0.35388 0.64299 0.0
H500 H 0.04311 0.33525 0.58202 0.0
H501 H 0.06148 0.25631 0.59173 0.0
H502 H 0.08423 0.27525 0.65331 0.0
H503 H 0.99728 0.23804 0.56649 0.0
H504 H 0.10631 0.31199 0.53441 0.0
H505 H 0.15802 0.36321 0.5363 0.0
H506 H 0.11139 0.4139 0.49691 0.0
H507 H 0.05929 0.36305 0.49528 0.0
C508 C 0.95185 0.22726 0.39148 0.0
C509 C 0.94784 0.25241 0.37761 0.0
C510 C 0.96787 0.23092 0.42498 0.0
C511 C 0.97982 0.25964 0.44531 0.0
C512 C 0.97446 0.28402 0.43203 0.0
C513 C 0.95881 0.28051 0.39871 0.0
C514 C 0.9992 0.2656 0.47952 0.0
C515 C 0.02923 0.29414 0.48186 0.0
C516 C 0.9881 0.24461 0.51014 0.0
C517 C 0.95641 0.21448 0.51012 0.0
C518 C 0.9279 0.21525 0.5037 0.0
C519 C 0.8981 0.1867 0.50382 0.0
C520 C 0.89649 0.15725 0.51064 0.0
C521 C 0.92469 0.15632 0.51746 0.0
C522 C 0.95455 0.18481 0.51731 0.0
C523 C 0.06498 0.33276 0.6321 0.0
C524 C 0.07664 0.31614 0.65302 0.0
C525 C 0.0523 0.32212 0.59714 0.0
C526 C 0.05063 0.29439 0.58216 0.0
C527 C 0.06254 0.27779 0.60272 0.0
C528 C 0.07579 0.28878 0.63773 0.0
C529 C 0.03563 0.2829 0.5454 0.0
C530 C 1.00661 0.25338 0.54253 0.0
C531 C 0.04751 0.30304 0.51422 0.0
C532 C 0.07884 0.3337 0.51493 0.0
C533 C 0.10703 0.33409 0.52639 0.0
C534 C 0.13643 0.36306 0.52737 0.0
C535 C 0.13798 0.3918 0.51678 0.0
C536 C 0.11015 0.39162 0.5051 0.0
C537 C 0.08068 0.36272 0.50409 0.0
H538 H 0.16076 0.41421 0.51757 0.0
H539 H 0.8734 0.13518 0.51076 0.0
H540 H 0.55915 0.10776 0.21267 0.0
H541 H 0.61762 0.13345 0.21718 0.0
H542 H 0.61712 0.18904 0.30962 0.0
H543 H 0.55823 0.16322 0.30533 0.0
H544 H 0.66772 0.22567 0.26307 0.0
H545 H 0.62489 0.12424 0.32397 0.0
H546 H 0.59055 0.06543 0.33132 0.0
H547 H 0.63657 0.05006 0.23896 0.0
H548 H 0.67088 0.10881 0.23072 0.0
H549 H 0.83121 0.26724 0.30813 0.0
H550 H 0.77351 0.24951 0.3103 0.0
H551 H 0.75627 0.18426 0.22071 0.0
H552 H 0.81334 0.20119 0.21895 0.0
H553 H 0.71447 0.15424 0.27355 0.0
H554 H 0.75574 0.25658 0.21123 0.0
H555 H 0.79104 0.31546 0.20571 0.0
H556 H 0.74894 0.32943 0.30264 0.0
H557 H 0.71372 0.27056 0.30908 0.0
C558 C 0.57134 0.12524 0.2342 0.0
C559 C 0.55383 0.133 0.25901 0.0
C560 C 0.60487 0.14006 0.23663 0.0
C561 C 0.6218 0.16285 0.2641 0.0
C562 C 0.6046 0.17149 0.28824 0.0
C563 C 0.57093 0.15669 0.28575 0.0
C564 C 0.65726 0.17657 0.26805 0.0
C565 C 0.67797 0.21011 0.2659 0.0
C566 C 0.67073 0.15633 0.27154 0.0
C567 C 0.65029 0.12095 0.27656 0.0
C568 C 0.62754 0.10832 0.30507 0.0
C569 C 0.6081 0.075 0.30941 0.0
C570 C 0.61133 0.05402 0.28558 0.0
C571 C 0.63407 0.06634 0.25739 0.0
C572 C 0.65355 0.09965 0.25289 0.0
C573 C 0.81512 0.24929 0.28874 0.0
C574 C 0.8269 0.23553 0.26349 0.0
C575 C 0.78214 0.23924 0.28993 0.0
C576 C 0.76045 0.21556 0.26559 0.0
C577 C 0.7724 0.20241 0.23991 0.0
C578 C 0.80516 0.21223 0.23888 0.0
C579 C 0.7251 0.20327 0.26735 0.0
C580 C 0.70432 0.16989 0.27085 0.0
C581 C 0.71173 0.22373 0.26524 0.0
C582 C 0.73232 0.25914 0.26084 0.0
C583 C 0.75413 0.27219 0.23149 0.0
C584 C 0.77412 0.30556 0.22819 0.0
C585 C 0.7723 0.32616 0.25387 0.0
C586 C 0.75037 0.31343 0.28281 0.0
C587 C 0.73036 0.28007 0.28628 0.0
H588 H 0.78783 0.35198 0.25129 0.0
H589 H 0.59625 0.02823 0.28899 0.0
H590 H 0.55235 0.46474 0.21806 0.0
H591 H 0.51836 0.40638 0.2154 0.0
H592 H 0.59134 0.39548 0.2718 0.0
H593 H 0.62642 0.45403 0.2727 0.0
H594 H 0.56521 0.35108 0.22111 0.0
H595 H 0.52359 0.38713 0.31677 0.0
H596 H 0.50332 0.41982 0.34604 0.0
H597 H 0.42415 0.38268 0.27046 0.0
H598 H 0.4442 0.35009 0.24039 0.0
H599 H 0.45269 0.18584 0.26846 0.0
H600 H 0.49245 0.24351 0.27078 0.0
H601 H 0.4298 0.26399 0.20573 0.0
H602 H 0.38994 0.20664 0.20353 0.0
H603 H 0.45248 0.30286 0.26513 0.0
H604 H 0.49721 0.26732 0.16908 0.0
H605 H 0.51778 0.23341 0.14379 0.0
H606 H 0.59173 0.2684 0.22593 0.0
H607 H 0.57133 0.30224 0.25198 0.0
C608 C 0.56154 0.45005 0.22934 0.0
C609 C 0.59219 0.46432 0.24579 0.0
C610 C 0.54181 0.41656 0.22824 0.0
C611 C 0.5519 0.3964 0.24415 0.0
C612 C 0.58283 0.41045 0.25963 0.0
C613 C 0.60276 0.44402 0.26045 0.0
C614 C 0.52987 0.3608 0.24503 0.0
C615 C 0.54071 0.34054 0.23121 0.0
C616 C 0.49778 0.34686 0.25806 0.0
C617 C 0.48557 0.36638 0.27611 0.0
C618 C 0.50199 0.38611 0.30621 0.0
C619 C 0.49052 0.4046 0.32298 0.0
C620 C 0.46251 0.40339 0.31007 0.0
C621 C 0.44587 0.38362 0.28041 0.0
C622 C 0.45726 0.36511 0.26351 0.0
C623 C 0.44748 0.2026 0.25442 0.0
C624 C 0.4181 0.19157 0.23579 0.0
C625 C 0.47029 0.23557 0.2557 0.0
C626 C 0.46419 0.25811 0.23827 0.0
C627 C 0.43502 0.24708 0.21942 0.0
C628 C 0.41229 0.21421 0.21807 0.0
C629 C 0.48759 0.2933 0.24045 0.0
C630 C 0.47702 0.31345 0.25508 0.0
C631 C 0.51998 0.307 0.2287 0.0
C632 C 0.53255 0.28707 0.21268 0.0
C633 C 0.51773 0.26763 0.18188 0.0
C634 C 0.52938 0.24845 0.16739 0.0
C635 C 0.55599 0.24868 0.18331 0.0
C636 C 0.57109 0.26821 0.21366 0.0
C637 C 0.55952 0.28742 0.22826 0.0
H638 H 0.56494 0.23378 0.17208 0.0
H639 H 0.45366 0.41772 0.32309 0.0
H640 H 0.9099 0.45554 0.22587 0.0
H641 H 0.88329 0.48754 0.22789 0.0
H642 H 0.81435 0.42105 0.3057 0.0
H643 H 0.84093 0.38872 0.30376 0.0
H644 H 0.78556 0.4423 0.25666 0.0
H645 H 0.87703 0.49007 0.33587 0.0
H646 H 0.93389 0.51165 0.35324 0.0
H647 H 0.96357 0.58472 0.27049 0.0
H648 H 0.9069 0.56328 0.25224 0.0
H649 H 0.74256 0.56321 0.30548 0.0
H650 H 0.75748 0.52108 0.30718 0.0
H651 H 0.83563 0.57649 0.23222 0.0
H652 H 0.82146 0.6185 0.23098 0.0
H653 H 0.85641 0.55759 0.28822 0.0
H654 H 0.76408 0.50692 0.2068 0.0
H655 H 0.7069 0.4854 0.1909 0.0
H656 H 0.67824 0.4182 0.28005 0.0
H657 H 0.73528 0.43962 0.29678 0.0
C658 C 0.88908 0.44766 0.24343 0.0
C659 C 0.87792 0.41983 0.26511 0.0
C660 C 0.87379 0.46594 0.24448 0.0
C661 C 0.84718 0.4571 0.26752 0.0
C662 C 0.83492 0.42846 0.28784 0.0
C663 C 0.85016 0.41 0.28668 0.0
C664 C 0.83364 0.47892 0.27173 0.0
C665 C 0.80091 0.46741 0.26404 0.0
C666 C 0.8536 0.51171 0.28138 0.0
C667 C 0.88772 0.5249 0.29252 0.0
C668 C 0.8957 0.51061 0.32122 0.0
C669 C 0.92789 0.52284 0.33124 0.0
C670 C 0.95233 0.5495 0.31293 0.0
C671 C 0.94462 0.56406 0.28463 0.0
C672 C 0.91246 0.5519 0.27446 0.0
C673 C 0.76276 0.56622 0.28919 0.0
C674 C 0.78094 0.59437 0.26833 0.0
C675 C 0.77121 0.54208 0.29008 0.0
C676 C 0.79773 0.54555 0.2698 0.0
C677 C 0.81525 0.57328 0.24832 0.0
C678 C 0.80703 0.59733 0.24762 0.0
C679 C 0.80862 0.52141 0.27171 0.0
C680 C 0.84092 0.53246 0.28095 0.0
C681 C 0.78818 0.48829 0.26367 0.0
C682 C 0.75393 0.47511 0.25328 0.0
C683 C 0.74558 0.4877 0.22317 0.0
C684 C 0.7132 0.4755 0.21398 0.0
C685 C 0.68895 0.45051 0.23451 0.0
C686 C 0.69705 0.43759 0.2642 0.0
C687 C 0.7294 0.44973 0.27353 0.0
H688 H 0.6639 0.4411 0.22736 0.0
H689 H 0.97725 0.55893 0.32072 0.0
H690 H 0.09421 0.55167 0.78929 0.0
H691 H 0.1187 0.61016 0.78609 0.0
H692 H 0.20027 0.6168 0.72844 0.0
H693 H 0.17574 0.55805 0.73128 0.0
H694 H 0.21946 0.66501 0.77857 0.0
H695 H 0.14338 0.62239 0.68152 0.0
H696 H 0.0909 0.58723 0.65213 0.0
H697 H 0.04679 0.62757 0.71977 0.0
H698 H 0.09894 0.66266 0.74998 0.0
H699 H 0.27204 0.82788 0.72111 0.0
H700 H 0.25529 0.77055 0.72297 0.0
H701 H 0.16734 0.75011 0.77778 0.0
H702 H 0.1835 0.80706 0.77528 0.0
H703 H 0.15469 0.70895 0.72413 0.0
H704 H 0.23353 0.7515 0.82207 0.0
H705 H 0.28737 0.78665 0.84857 0.0
H706 H 0.32832 0.74701 0.77508 0.0
H707 H 0.27476 0.71193 0.74774 0.0
C708 C 0.1173 0.56549 0.77577 0.0
C709 C 0.13278 0.55002 0.76018 0.0
C710 C 0.13134 0.59899 0.77407 0.0
C711 C 0.16112 0.6179 0.75652 0.0
C712 C 0.17726 0.60273 0.74207 0.0
C713 C 0.16321 0.56913 0.7438 0.0
C714 C 0.17466 0.65331 0.75238 0.0
C715 C 0.2055 0.67467 0.76624 0.0
C716 C 0.15647 0.66597 0.73637 0.0
C717 C 0.12503 0.64494 0.71826 0.0
C718 C 0.12244 0.62358 0.69035 0.0
C719 C 0.09275 0.60369 0.6735 0.0
C720 C 0.06551 0.6051 0.68414 0.0
C721 C 0.06791 0.62647 0.71159 0.0
C722 C 0.09753 0.64639 0.72857 0.0
C723 C 0.24915 0.81119 0.73364 0.0
C724 C 0.22908 0.82214 0.74796 0.0
C725 C 0.2397 0.77839 0.73488 0.0
C726 C 0.21015 0.75592 0.75083 0.0
C727 C 0.19023 0.7669 0.76531 0.0
C728 C 0.19955 0.79956 0.7639 0.0
C729 C 0.19911 0.7208 0.75139 0.0
C730 C 0.16873 0.69939 0.73651 0.0
C731 C 0.21797 0.70825 0.76607 0.0
C732 C 0.25016 0.72934 0.78257 0.0
C733 C 0.25404 0.75046 0.81134 0.0
C734 C 0.28452 0.77035 0.82654 0.0
C735 C 0.31127 0.76914 0.81343 0.0
C736 C 0.30759 0.74797 0.78515 0.0
C737 C 0.27718 0.72807 0.76981 0.0
H738 H 0.33483 0.78453 0.82525 0.0
H739 H 0.04255 0.5897 0.67105 0.0
H740 H 0.3858 0.82594 0.74041 0.0
H741 H 0.41966 0.80127 0.73739 0.0
H742 H 0.49969 0.88817 0.78104 0.0
H743 H 0.46674 0.91362 0.78199 0.0
H744 H 0.51998 0.86743 0.72753 0.0
H745 H 0.45189 0.81681 0.83323 0.0
H746 H 0.39905 0.78591 0.86368 0.0
H747 H 0.3742 0.70557 0.79251 0.0
H748 H 0.42676 0.73618 0.7613 0.0
H749 H 0.62591 0.82224 0.79823 0.0
H750 H 0.58401 0.83637 0.79278 0.0
H751 H 0.52309 0.7471 0.73632 0.0
H752 H 0.56532 0.73243 0.74188 0.0
H753 H 0.48934 0.7634 0.78836 0.0
H754 H 0.56006 0.81267 0.68683 0.0
H755 H 0.61255 0.84427 0.65594 0.0
H756 H 0.63217 0.92761 0.71915 0.0
H757 H 0.57999 0.89637 0.75083 0.0
C758 C 0.4107 0.83997 0.74902 0.0
C759 C 0.42338 0.87185 0.76158 0.0
C760 C 0.42997 0.82563 0.74769 0.0
C761 C 0.46224 0.84264 0.75943 0.0
C762 C 0.4749 0.87443 0.7719 0.0
C763 C 0.45581 0.88886 0.77287 0.0
C764 C 0.48319 0.82782 0.75853 0.0
C765 C 0.5133 0.84481 0.74112 0.0
C766 C 0.47418 0.7977 0.7751 0.0
C767 C 0.44312 0.77888 0.79472 0.0
C768 C 0.43511 0.79258 0.82401 0.0
C769 C 0.40522 0.77513 0.84139 0.0
C770 C 0.38325 0.74383 0.82996 0.0
C771 C 0.39123 0.72984 0.80129 0.0
C772 C 0.42108 0.74721 0.78377 0.0
C773 C 0.60362 0.80538 0.78474 0.0
C774 C 0.59919 0.77626 0.77019 0.0
C775 C 0.57963 0.81359 0.7816 0.0
C776 C 0.55055 0.79306 0.76368 0.0
C777 C 0.54541 0.7634 0.75013 0.0
C778 C 0.5696 0.7551 0.75321 0.0
C779 C 0.52641 0.80361 0.75839 0.0
C780 C 0.49578 0.78583 0.77448 0.0
C781 C 0.53489 0.83309 0.74067 0.0
C782 C 0.56617 0.8521 0.72137 0.0
C783 C 0.57565 0.83768 0.69431 0.0
C784 C 0.60535 0.85553 0.67664 0.0
C785 C 0.62571 0.88791 0.68562 0.0
C786 C 0.61638 0.90252 0.71223 0.0
C787 C 0.58672 0.88476 0.73002 0.0
H788 H 0.6487 0.90169 0.67192 0.0
H789 H 0.36006 0.73041 0.84336 0.0
H790 H 0.18859 0.45574 0.75143 0.0
H791 H 0.24613 0.49648 0.75415 0.0
H792 H 0.26763 0.42383 0.7912 0.0
H793 H 0.21058 0.38379 0.79008 0.0
H794 H 0.30104 0.47383 0.82914 0.0
H795 H 0.28094 0.45575 0.69942 0.0
H796 H 0.25407 0.45363 0.64108 0.0
H797 H 0.28461 0.55417 0.65075 0.0
H798 H 0.31135 0.55679 0.7094 0.0
H799 H 0.46624 0.54119 0.78631 0.0
H800 H 0.40755 0.50897 0.78502 0.0
H801 H 0.40165 0.59516 0.77181 0.0
H802 H 0.46049 0.62789 0.77432 0.0
H803 H 0.36033 0.54418 0.72396 0.0
H804 H 0.38513 0.56144 0.85222 0.0
H805 H 0.41329 0.56172 0.90879 0.0
H806 H 0.37459 0.45958 0.89956 0.0
H807 H 0.34656 0.45877 0.84262 0.0
C808 C 0.20566 0.44857 0.76017 0.0
C809 C 0.19496 0.41655 0.77068 0.0
C810 C 0.2386 0.47183 0.76154 0.0
C811 C 0.2615 0.46331 0.77258 0.0
C812 C 0.25065 0.43125 0.78283 0.0
C813 C 0.21788 0.40828 0.78209 0.0
C814 C 0.29676 0.48737 0.77403 0.0
C815 C 0.31392 0.48894 0.80592 0.0
C816 C 0.31377 0.50789 0.74424 0.0
C817 C 0.29781 0.50637 0.70897 0.0
C818 C 0.28172 0.47735 0.68922 0.0
C819 C 0.26655 0.47607 0.65609 0.0
C820 C 0.26754 0.50373 0.64228 0.0
C821 C 0.2838 0.53275 0.66152 0.0
C822 C 0.29899 0.53416 0.69469 0.0
C823 C 0.45261 0.55349 0.78367 0.0
C824 C 0.46838 0.58732 0.78074 0.0
C825 C 0.41896 0.53493 0.78266 0.0
C826 C 0.40018 0.54965 0.77855 0.0
C827 C 0.41567 0.58328 0.77491 0.0
C828 C 0.44939 0.60194 0.77623 0.0
C829 C 0.36436 0.52976 0.77858 0.0
C830 C 0.34723 0.52914 0.74715 0.0
C831 C 0.34736 0.50972 0.80855 0.0
C832 C 0.36394 0.5101 0.843 0.0
C833 C 0.3828 0.53908 0.86211 0.0
C834 C 0.39871 0.53933 0.89427 0.0
C835 C 0.39578 0.5107 0.90772 0.0
C836 C 0.37686 0.48174 0.8891 0.0
C837 C 0.36092 0.48137 0.8569 0.0
H838 H 0.40813 0.51094 0.93262 0.0
H839 H 0.25578 0.50269 0.61662 0.0
H840 H 0.15143 0.14099 0.25951 0.0
H841 H 0.12053 0.1687 0.26293 0.0
H842 H 0.20177 0.25128 0.31155 0.0
H843 H 0.23366 0.22443 0.30664 0.0
H844 H 0.13075 0.22625 0.34223 0.0
H845 H 0.19965 0.2661 0.2356 0.0
H846 H 0.22475 0.25967 0.17976 0.0
H847 H 0.13121 0.2001 0.13235 0.0
H848 H 0.10554 0.2057 0.18822 0.0
H849 H 0.03848 0.30421 0.30435 0.0
H850 H 0.08753 0.29989 0.30931 0.0
H851 H 0.0463 0.21989 0.23387 0.0
H852 H 0.99812 0.22432 0.2288 0.0
H853 H 0.10864 0.25713 0.22061 0.0
H854 H 0.03977 0.20857 0.32709 0.0
H855 H 0.01106 0.21017 0.38233 0.0
H856 H 0.10055 0.28213 0.42943 0.0
H857 H 0.12977 0.28115 0.37418 0.0
C858 C 0.16288 0.16503 0.27098 0.0
C859 C 0.19533 0.18057 0.28223 0.0
C860 C 0.14502 0.1807 0.27323 0.0
C861 C 0.15896 0.21206 0.2873 0.0
C862 C 0.19059 0.227 0.30074 0.0
C863 C 0.20871 0.21149 0.29802 0.0
C864 C 0.14115 0.22984 0.28454 0.0
C865 C 0.12651 0.2338 0.31583 0.0
C866 C 0.13534 0.23925 0.25003 0.0
C867 C 0.15069 0.23611 0.21622 0.0
C868 C 0.18443 0.25139 0.21341 0.0
C869 C 0.19876 0.24794 0.18173 0.0
C870 C 0.17959 0.22943 0.15256 0.0
C871 C 0.14604 0.2144 0.15498 0.0
C872 C 0.13159 0.21773 0.18664 0.0
C873 C 0.04049 0.28638 0.28817 0.0
C874 C 0.01464 0.26454 0.26627 0.0
C875 C 0.06828 0.28371 0.29124 0.0
C876 C 0.07045 0.2593 0.27226 0.0
C877 C 0.0453 0.23891 0.24876 0.0
C878 C 0.01771 0.2414 0.24595 0.0
C879 C 0.09737 0.25281 0.27813 0.0
C880 C 0.11366 0.25071 0.24728 0.0
C881 C 0.10431 0.24478 0.313 0.0
C882 C 0.08688 0.24506 0.34638 0.0
C883 C 0.05329 0.22487 0.34914 0.0
C884 C 0.03693 0.22565 0.38045 0.0
C885 C 0.05396 0.24632 0.40933 0.0
C886 C 0.0874 0.26618 0.407 0.0
C887 C 0.10387 0.2655 0.37571 0.0
H888 H 0.04128 0.24685 0.43358 0.0
H889 H 0.19072 0.22679 0.12805 0.0
H890 H 1.00333 0.79058 0.21791 0.0
H891 H 0.06158 0.82539 0.21051 0.0
H892 H 0.05852 0.89838 0.27646 0.0
H893 H 1.00021 0.86432 0.28272 0.0
H894 H 0.09829 0.92559 0.22093 0.0
H895 H 0.08076 0.84498 0.31177 0.0
H896 H 0.05946 0.78961 0.33485 0.0
H897 H 0.11191 0.7718 0.25173 0.0
H898 H 0.1332 0.82698 0.22786 0.0
H899 H 0.24549 0.01715 0.3012 0.0
H900 H 0.1914 0.97064 0.29687 0.0
H901 H 0.22107 0.93423 0.20616 0.0
H902 H 0.27572 0.98165 0.20964 0.0
H903 H 0.17029 0.88567 0.26378 0.0
H904 H 0.19135 0.97003 0.17662 0.0
H905 H 0.21551 0.0274 0.16004 0.0
H906 H 0.15709 0.03902 0.24083 0.0
H907 H 0.13304 0.98179 0.25837 0.0
C908 C 0.01494 0.8143 0.23023 0.0
C909 C 0.99705 0.82456 0.25112 0.0
C910 C 0.04834 0.83404 0.22631 0.0
C911 C 0.06457 0.86432 0.24343 0.0
C912 C 0.0466 0.87507 0.26313 0.0
C913 C 0.01326 0.85544 0.26694 0.0
C914 C 0.10032 0.88462 0.24194 0.0
C915 C 0.11391 0.91672 0.2302 0.0
C916 C 0.12097 0.87305 0.25339 0.0
C917 C 0.10824 0.83994 0.26776 0.0
C918 C 0.08754 0.82916 0.29824 0.0
C919 C 0.07551 0.79783 0.31149 0.0
C920 C 0.08424 0.77716 0.29469 0.0
C921 C 0.10511 0.78781 0.26466 0.0
C922 C 0.11717 0.81911 0.25127 0.0
C923 C 0.24082 0.99893 0.2808 0.0
C924 C 0.26466 1.0033 0.25533 0.0
C925 C 0.20992 0.9723 0.27849 0.0
C926 C 0.20221 0.94945 0.25075 0.0
C927 C 0.22667 0.95188 0.22752 0.0
C928 C 0.25784 0.97884 0.22968 0.0
C929 C 0.1678 0.92638 0.24326 0.0
C930 C 0.15454 0.89404 0.25352 0.0
C931 C 0.14735 0.93767 0.2306 0.0
C932 C 0.16054 0.97167 0.21893 0.0
C933 C 0.18375 0.98485 0.19094 0.0
C934 C 0.19744 0.01734 0.18138 0.0
C935 C 0.18787 0.03686 0.19941 0.0
C936 C 0.16447 0.02386 0.22689 0.0
C937 C 0.15077 0.99138 0.23661 0.0
H938 H 0.19855 0.06203 0.19207 0.0
H939 H 0.0749 0.75292 0.305 0.0
H940 H 0.78326 0.00802 0.28857 0.0
H941 H 0.75685 0.94925 0.28452 0.0
H942 H 0.84441 0.95724 0.24194 0.0
H943 H 0.87134 0.01582 0.24699 0.0
H944 H 0.78882 0.91549 0.20096 0.0
H945 H 0.82502 0.93648 0.3278 0.0
H946 H 0.82744 0.95772 0.38988 0.0
H947 H 0.72463 0.89895 0.39974 0.0
H948 H 0.72159 0.87768 0.33746 0.0
H949 H 0.80242 0.78111 0.23031 0.0
H950 H 0.80382 0.83234 0.22725 0.0
H951 H 0.70899 0.78884 0.27558 0.0
H952 H 0.70762 0.73678 0.27903 0.0
H953 H 0.75254 0.84462 0.3104 0.0
H954 H 0.71802 0.81439 0.18885 0.0
H955 H 0.71622 0.79123 0.12808 0.0
H956 H 0.81375 0.86562 0.10753 0.0
H957 H 0.81638 0.88897 0.16841 0.0
C958 C 0.79713 0.99731 0.279 0.0
C959 C 0.8295 0.01678 0.26808 0.0
C960 C 0.78186 0.96371 0.27637 0.0
C961 C 0.79861 0.94896 0.26265 0.0
C962 C 0.83094 0.96821 0.25216 0.0
C963 C 0.84629 1.00172 0.25507 0.0
C964 C 0.78286 0.91342 0.25949 0.0
C965 C 0.78083 0.89992 0.22481 0.0
C966 C 0.77117 0.89302 0.29046 0.0
C967 C 0.77303 0.90585 0.32782 0.0
C968 C 0.8029 0.92834 0.34307 0.0
C969 C 0.8044 0.94032 0.37832 0.0
C970 C 0.77619 0.92979 0.39869 0.0
C971 C 0.74645 0.90716 0.38389 0.0
C972 C 0.74482 0.89513 0.34863 0.0
C973 C 0.78164 0.78226 0.2399 0.0
C974 C 0.75498 0.75508 0.25514 0.0
C975 C 0.78235 0.81154 0.23785 0.0
C976 C 0.75639 0.81438 0.25086 0.0
C977 C 0.72919 0.78705 0.26519 0.0
C978 C 0.72834 0.75739 0.26697 0.0
C979 C 0.75968 0.8468 0.25202 0.0
C980 C 0.75946 0.85988 0.28629 0.0
C981 C 0.76906 0.86676 0.22059 0.0
C982 C 0.76741 0.85343 0.18336 0.0
C983 C 0.73915 0.82578 0.17145 0.0
C984 C 0.73797 0.8126 0.13697 0.0
C985 C 0.76486 0.82692 0.11398 0.0
C986 C 0.79292 0.85456 0.12536 0.0
C987 C 0.79425 0.86783 0.15984 0.0
H988 H 0.76393 0.81661 0.08734 0.0
H989 H 0.7774 0.93908 0.42599 0.0
H990 H 0.19119 0.19532 0.69047 0.0
H991 H 0.21635 0.16176 0.68779 0.0
H992 H 0.20745 0.14951 0.80494 0.0
H993 H 0.18304 0.18357 0.80795 0.0
H994 H 0.26666 0.16226 0.78094 0.0
H995 H 0.15534 0.0903 0.74937 0.0
H996 H 0.10538 0.07234 0.71402 0.0
H997 H 0.15429 0.07266 0.61545 0.0
H998 H 0.20468 0.09105 0.65016 0.0
H999 H 0.27487 0.01746 0.8026 0.0
H1000 H 0.26617 0.06375 0.80283 0.0
H1001 H 0.27151 0.06742 0.68493 0.0
H1002 H 0.27873 0.02043 0.68471 0.0
H1003 H 0.21745 0.06219 0.70694 0.0
H1004 H 0.32761 0.12846 0.73947 0.0
H1005 H 0.37816 0.14803 0.77401 0.0
H1006 H 0.33333 0.15997 0.86977 0.0
H1007 H 0.28225 0.13972 0.8361 0.0
C1008 C 0.1947 0.18556 0.71566 0.0
C1009 C 0.18484 0.19189 0.74938 0.0
C1010 C 0.20895 0.16629 0.71407 0.0
C1011 C 0.2136 0.15297 0.74616 0.0
C1012 C 0.20409 0.15952 0.77986 0.0
C1013 C 0.18977 0.17867 0.78145 0.0
C1014 C 0.22786 0.13175 0.74469 0.0
C1015 C 0.25581 0.14016 0.7651 0.0
C1016 C 0.21414 0.10346 0.72318 0.0
C1017 C 0.18386 0.0924 0.70229 0.0
C1018 C 0.15551 0.08681 0.72011 0.0
C1019 C 0.1271 0.0765 0.7002 0.0
C1020 C 0.12669 0.07146 0.66249 0.0
C1021 C 0.15466 0.07664 0.64464 0.0
C1022 C 0.18314 0.08699 0.66442 0.0
C1023 C 0.27561 0.02914 0.77694 0.0
C1024 C 0.27786 0.01584 0.74365 0.0
C1025 C 0.27057 0.05552 0.77704 0.0
C1026 C 0.26832 0.0692 0.7439 0.0
C1027 C 0.27312 0.05731 0.71082 0.0
C1028 C 0.27755 0.03068 0.71069 0.0
C1029 C 0.25646 0.09252 0.74329 0.0
C1030 C 0.2287 0.0844 0.7226 0.0
C1031 C 0.27047 0.12105 0.76455 0.0
C1032 C 0.3009 0.1322 0.78529 0.0
C1033 C 0.32834 0.1348 0.76803 0.0
C1034 C 0.35716 0.14614 0.78744 0.0
C1035 C 0.35897 0.15526 0.82405 0.0
C1036 C 0.33194 0.15299 0.84137 0.0
C1037 C 0.30302 0.14151 0.82215 0.0
H1038 H 0.38131 0.16405 0.83901 0.0
H1039 H 0.10467 0.06347 0.64713 0.0
H1040 H 0.01597 0.85601 0.72002 0.0
H1041 H 0.95833 0.83178 0.73119 0.0
H1042 H 0.96035 0.7594 0.79954 0.0
H1043 H 0.01862 0.78418 0.78887 0.0
H1044 H 0.9091 0.77623 0.7151 0.0
H1045 H 0.89988 0.73523 0.8647 0.0
H1046 H 0.93334 0.74863 0.92036 0.0
H1047 H 0.99126 0.84632 0.88326 0.0
H1048 H 0.95788 0.83358 0.82765 0.0
H1049 H 0.74273 0.70536 0.76029 0.0
H1050 H 0.79556 0.70846 0.75906 0.0
H1051 H 0.83709 0.79792 0.81904 0.0
H1052 H 0.78482 0.79489 0.82028 0.0
H1053 H 0.86369 0.7623 0.84013 0.0
H1054 H 0.83732 0.79776 0.72781 0.0
H1055 H 0.80471 0.7908 0.67273 0.0
H1056 H 0.82093 0.71531 0.63512 0.0
H1057 H 0.85306 0.72133 0.69045 0.0
C1058 C 1.00415 0.83483 0.73731 0.0
C1059 C 0.02182 0.82192 0.75345 0.0
C1060 C 0.97113 0.82095 0.74365 0.0
C1061 C 0.95483 0.79371 0.76621 0.0
C1062 C 0.97238 0.78062 0.78236 0.0
C1063 C 1.00566 0.79478 0.77629 0.0
C1064 C 0.91963 0.77975 0.77283 0.0
C1065 C 0.89916 0.77282 0.74249 0.0
C1066 C 0.90646 0.77529 0.8085 0.0
C1067 C 0.92667 0.78331 0.84182 0.0
C1068 C 0.91975 0.75957 0.86847 0.0
C1069 C 0.93868 0.76705 0.9 0.0
C1070 C 0.9645 0.79827 0.90526 0.0
C1071 C 0.97135 0.82211 0.87907 0.0
C1072 C 0.95246 0.81476 0.84752 0.0
C1073 C 0.763 0.72512 0.77408 0.0
C1074 C 0.75987 0.75002 0.79011 0.0
C1075 C 0.79315 0.72698 0.77321 0.0
C1076 C 0.82036 0.75363 0.78863 0.0
C1077 C 0.81652 0.77715 0.80699 0.0
C1078 C 0.78666 0.77549 0.8075 0.0
C1079 C 0.85349 0.75942 0.78244 0.0
C1080 C 0.87353 0.76481 0.8128 0.0
C1081 C 0.86647 0.76327 0.74678 0.0
C1082 C 0.84718 0.75966 0.71352 0.0
C1083 C 0.83365 0.77945 0.70799 0.0
C1084 C 0.81528 0.77569 0.67672 0.0
C1085 C 0.81068 0.75256 0.65052 0.0
C1086 C 0.82444 0.73314 0.65552 0.0
C1087 C 0.84268 0.73667 0.68685 0.0
H1088 H 0.79656 0.74976 0.62628 0.0
H1089 H 0.97914 0.80401 0.92968 0.0
H1090 H 0.9793 0.27343 0.73671 0.0
H1091 H 0.92915 0.2207 0.74124 0.0
H1092 H 0.97691 0.18696 0.81387 0.0
H1093 H 0.02642 0.23881 0.8091 0.0
H1094 H 0.92346 0.16262 0.7195 0.0
H1095 H 0.92473 0.1351 0.87489 0.0
H1096 H 0.93715 0.16449 0.93343 0.0
H1097 H 0.91657 0.23393 0.88545 0.0
H1098 H 0.90353 0.20471 0.82677 0.0
H1099 H 0.86536 0.99879 0.75308 0.0
H1100 H 0.8967 0.05762 0.75329 0.0
H1101 H 0.81744 0.06116 0.80429 0.0
H1102 H 0.7857 1.00224 0.80374 0.0
H1103 H 0.87439 0.10413 0.83516 0.0
H1104 H 0.83115 0.07739 0.71481 0.0
H1105 H 0.81814 0.04924 0.65544 0.0
H1106 H 0.91898 0.09023 0.63219 0.0
H1107 H 0.93262 0.11821 0.6917 0.0
C1108 C 0.97863 0.25487 0.7542 0.0
C1109 C 1.00653 0.25994 0.77248 0.0
C1110 C 0.95017 0.22483 0.75666 0.0
C1111 C 0.94926 0.19999 0.77812 0.0
C1112 C 0.97685 0.20582 0.79759 0.0
C1113 C 1.00517 0.23539 0.79468 0.0
C1114 C 0.92099 0.16686 0.77788 0.0
C1115 C 0.91236 0.1499 0.7447 0.0
C1116 C 0.90622 0.15044 0.81075 0.0
C1117 C 0.91327 0.16772 0.84631 0.0
C1118 C 0.92259 0.15648 0.87687 0.0
C1119 C 0.92981 0.17316 0.91008 0.0
C1120 C 0.92772 0.20109 0.91314 0.0
C1121 C 0.91827 0.21234 0.88302 0.0
C1122 C 0.911 0.19574 0.84976 0.0
C1123 C 0.85451 0.01203 0.76423 0.0
C1124 C 0.82291 0.9957 0.77821 0.0
C1125 C 0.87246 0.04569 0.76433 0.0
C1126 C 0.85921 0.06382 0.77825 0.0
C1127 C 0.82811 0.04767 0.79331 0.0
C1128 C 0.81008 0.01395 0.79317 0.0
C1129 C 0.87802 0.09962 0.77696 0.0
C1130 C 0.88492 0.11696 0.80986 0.0
C1131 C 0.89097 0.1165 0.74377 0.0
C1132 C 0.8829 0.09977 0.70786 0.0
C1133 C 0.85056 0.08023 0.69717 0.0
C1134 C 0.84307 0.06432 0.66346 0.0
C1135 C 0.86771 0.06791 0.64008 0.0
C1136 C 0.89991 0.08746 0.65033 0.0
C1137 C 0.90754 0.10338 0.68404 0.0
H1138 H 0.86186 0.05559 0.61399 0.0
H1139 H 0.93338 0.21401 0.93885 0.0
loop_
_geom_bond_atom_site_label_1
_geom_bond_atom_site_label_2
_geom_bond_distance
_geom_bond_site_symmetry_2
_ccdc_geom_bond_type
Dy0 O3 2.307 . S
Dy0 O5 2.395 . S
Dy0 O6 2.379 . S
Dy0 O8 2.339 . S
Dy0 O10 2.298 . S
Dy0 O14 2.275 . S
Dy0 C22 2.738 . S
Dy1 O4 2.298 . S
Dy1 O7 2.275 . S
Dy1 O9 2.307 . S
Dy1 O11 2.395 . S
Dy1 O12 2.379 . S
Dy1 O15 2.339 . S
Dy1 C31 2.738 . S
C2 O14 1.254 . S
C2 O15 1.257 . S
O3 Dy0 2.307 . S
O3 C13 1.266 . S
O4 Dy1 2.298 . S
O4 C13 1.236 . S
O5 Dy0 2.395 . S
O5 C22 1.255 . S
O6 Dy0 2.379 . S
O6 C22 1.249 . S
O7 Dy1 2.275 . S
O7 C23 1.254 . S
O8 Dy0 2.339 . S
O8 C23 1.257 . S
O9 Dy1 2.307 . S
O9 C24 1.266 . S
O10 Dy0 2.298 . S
O10 C24 1.236 . S
O11 Dy1 2.395 . S
O11 C31 1.255 . S
O12 Dy1 2.379 . S
O12 C31 1.249 . S
C13 O3 1.266 . S
C13 O4 1.236 . S
O14 Dy0 2.275 . S
O14 C2 1.254 . S
O15 Dy1 2.339 . S
O15 C2 1.257 . S
C16 C19 1.344 . S
C16 C20 1.328 . S
C16 C22 1.516 . S
C17 C18 1.304 . S
C17 C21 1.323 . S
C18 C17 1.304 . S
C18 C19 1.371 . S
C18 H32 0.930 . S
C19 C16 1.344 . S
C19 C18 1.371 . S
C19 H33 0.931 . S
C20 C16 1.328 . S
C20 C21 1.433 . S
C20 H34 0.931 . S
C21 C17 1.323 . S
C21 C20 1.433 . S
C21 H35 0.933 . S
C22 Dy0 2.738 . S
C22 O5 1.255 . S
C22 O6 1.249 . S
C22 C16 1.516 . S
C23 O7 1.254 . S
C23 O8 1.257 . S
C24 O9 1.266 . S
C24 O10 1.236 . S
C25 C28 1.344 . S
C25 C29 1.328 . S
C25 C31 1.516 . S
C26 C27 1.304 . S
C26 C30 1.323 . S
C27 C26 1.304 . S
C27 C28 1.371 . S
C27 H36 0.930 . S
C28 C25 1.344 . S
C28 C27 1.371 . S
C28 H37 0.931 . S
C29 C25 1.328 . S
C29 C30 1.433 . S
C29 H38 0.931 . S
C30 C26 1.323 . S
C30 C29 1.433 . S
C30 H39 0.933 . S
C31 Dy1 2.738 . S
C31 O11 1.255 . S
C31 O12 1.249 . S
C31 C25 1.516 . S
H32 C18 0.930 . S
H33 C19 0.931 . S
H34 C20 0.931 . S
H35 C21 0.933 . S
H36 C27 0.930 . S
H37 C28 0.931 . S
H38 C29 0.931 . S
H39 C30 0.933 . S
Dy40 O43 2.307 . S
Dy40 O45 2.395 . S
Dy40 O46 2.379 . S
Dy40 O48 2.339 . S
Dy40 O50 2.298 . S
Dy40 O54 2.275 . S
Dy40 C62 2.738 . S
Dy41 O44 2.298 . S
Dy41 O47 2.275 . S
Dy41 O49 2.307 . S
Dy41 O51 2.395 . S
Dy41 O52 2.379 . S
Dy41 O55 2.339 . S
Dy41 C71 2.738 . S
C42 O54 1.254 . S
C42 O55 1.257 . S
O43 Dy40 2.307 . S
O43 C53 1.266 . S
O44 Dy41 2.298 . S
O44 C53 1.236 . S
O45 Dy40 2.395 . S
O45 C62 1.255 . S
O46 Dy40 2.379 . S
O46 C62 1.249 . S
O47 Dy41 2.275 . S
O47 C63 1.254 . S
O48 Dy40 2.339 . S
O48 C63 1.257 . S
O49 Dy41 2.307 . S
O49 C64 1.266 . S
O50 Dy40 2.298 . S
O50 C64 1.236 . S
O51 Dy41 2.395 . S
O51 C71 1.255 . S
O52 Dy41 2.379 . S
O52 C71 1.249 . S
C53 O43 1.266 . S
C53 O44 1.236 . S
O54 Dy40 2.275 . S
O54 C42 1.254 . S
O55 Dy41 2.339 . S
O55 C42 1.257 . S
C56 C59 1.344 . S
C56 C60 1.328 . S
C56 C62 1.516 . S
C57 C58 1.304 . S
C57 C61 1.323 . S
C58 C57 1.304 . S
C58 C59 1.371 . S
C58 H72 0.930 . S
C59 C56 1.344 . S
C59 C58 1.371 . S
C59 H73 0.931 . S
C60 C56 1.328 . S
C60 C61 1.433 . S
C60 H74 0.931 . S
C61 C57 1.323 . S
C61 C60 1.433 . S
C61 H75 0.933 . S
C62 Dy40 2.738 . S
C62 O45 1.255 . S
C62 O46 1.249 . S
C62 C56 1.516 . S
C63 O47 1.254 . S
C63 O48 1.257 . S
C64 O49 1.266 . S
C64 O50 1.236 . S
C65 C68 1.344 . S
C65 C69 1.328 . S
C65 C71 1.516 . S
C66 C67 1.304 . S
C66 C70 1.323 . S
C67 C66 1.304 . S
C67 C68 1.371 . S
C67 H76 0.930 . S
C68 C65 1.344 . S
C68 C67 1.371 . S
C68 H77 0.931 . S
C69 C65 1.328 . S
C69 C70 1.433 . S
C69 H78 0.931 . S
C70 C66 1.323 . S
C70 C69 1.433 . S
C70 H79 0.933 . S
C71 Dy41 2.738 . S
C71 O51 1.255 . S
C71 O52 1.249 . S
C71 C65 1.516 . S
H72 C58 0.930 . S
H73 C59 0.931 . S
H74 C60 0.931 . S
H75 C61 0.933 . S
H76 C67 0.930 . S
H77 C68 0.931 . S
H78 C69 0.931 . S
H79 C70 0.933 . S
Dy80 O83 2.307 . S
Dy80 O85 2.395 . S
Dy80 O86 2.379 . S
Dy80 O88 2.339 . S
Dy80 O90 2.298 . S
Dy80 O94 2.275 . S
Dy80 C102 2.738 . S
Dy81 O84 2.298 . S
Dy81 O87 2.275 . S
Dy81 O89 2.307 . S
Dy81 O91 2.395 . S
Dy81 O92 2.379 . S
Dy81 O95 2.339 . S
Dy81 C111 2.738 . S
C82 O94 1.254 . S
C82 O95 1.257 . S
O83 Dy80 2.307 . S
O83 C93 1.266 . S
O84 Dy81 2.298 . S
O84 C93 1.236 . S
O85 Dy80 2.395 . S
O85 C102 1.255 . S
O86 Dy80 2.379 . S
O86 C102 1.249 . S
O87 Dy81 2.275 . S
O87 C103 1.254 . S
O88 Dy80 2.339 . S
O88 C103 1.257 . S
O89 Dy81 2.307 . S
O89 C104 1.266 . S
O90 Dy80 2.298 . S
O90 C104 1.236 . S
O91 Dy81 2.395 . S
O91 C111 1.255 . S
O92 Dy81 2.379 . S
O92 C111 1.249 . S
C93 O83 1.266 . S
C93 O84 1.236 . S
O94 Dy80 2.275 . S
O94 C82 1.254 . S
O95 Dy81 2.339 . S
O95 C82 1.257 . S
C96 C99 1.344 . S
C96 C100 1.328 . S
C96 C102 1.516 . S
C97 C98 1.304 . S
C97 C101 1.323 . S
C98 C97 1.304 . S
C98 C99 1.371 . S
C98 H112 0.930 . S
C99 C96 1.344 . S
C99 C98 1.371 . S
C99 H113 0.931 . S
C100 C96 1.328 . S
C100 C101 1.433 . S
C100 H114 0.931 . S
C101 C97 1.323 . S
C101 C100 1.433 . S
C101 H115 0.933 . S
C102 Dy80 2.738 . S
C102 O85 1.255 . S
C102 O86 1.249 . S
C102 C96 1.516 . S
C103 O87 1.254 . S
C103 O88 1.257 . S
C104 O89 1.266 . S
C104 O90 1.236 . S
C105 C108 1.344 . S
C105 C109 1.328 . S
C105 C111 1.516 . S
C106 C107 1.304 . S
C106 C110 1.323 . S
C107 C106 1.304 . S
C107 C108 1.371 . S
C107 H116 0.930 . S
C108 C105 1.344 . S
C108 C107 1.371 . S
C108 H117 0.931 . S
C109 C105 1.328 . S
C109 C110 1.433 . S
C109 H118 0.931 . S
C110 C106 1.323 . S
C110 C109 1.433 . S
C110 H119 0.933 . S
C111 Dy81 2.738 . S
C111 O91 1.255 . S
C111 O92 1.249 . S
C111 C105 1.516 . S
H112 C98 0.930 . S
H113 C99 0.931 . S
H114 C100 0.931 . S
H115 C101 0.933 . S
H116 C107 0.930 . S
H117 C108 0.931 . S
H118 C109 0.931 . S
H119 C110 0.933 . S
Dy120 O123 2.307 . S
Dy120 O125 2.395 . S
Dy120 O126 2.379 . S
Dy120 O128 2.339 . S
Dy120 O130 2.298 . S
Dy120 O134 2.275 . S
Dy120 C142 2.738 . S
Dy121 O124 2.298 . S
Dy121 O127 2.275 . S
Dy121 O129 2.307 . S
Dy121 O131 2.395 . S
Dy121 O132 2.379 . S
Dy121 O135 2.339 . S
Dy121 C151 2.738 . S
C122 O134 1.254 . S
C122 O135 1.257 . S
O123 Dy120 2.307 . S
O123 C133 1.266 . S
O124 Dy121 2.298 . S
O124 C133 1.236 . S
O125 Dy120 2.395 . S
O125 C142 1.255 . S
O126 Dy120 2.379 . S
O126 C142 1.249 . S
O127 Dy121 2.275 . S
O127 C143 1.254 . S
O128 Dy120 2.339 . S
O128 C143 1.257 . S
O129 Dy121 2.307 . S
O129 C144 1.266 . S
O130 Dy120 2.298 . S
O130 C144 1.236 . S
O131 Dy121 2.395 . S
O131 C151 1.255 . S
O132 Dy121 2.379 . S
O132 C151 1.249 . S
C133 O123 1.266 . S
C133 O124 1.236 . S
O134 Dy120 2.275 . S
O134 C122 1.254 . S
O135 Dy121 2.339 . S
O135 C122 1.257 . S
C136 C139 1.344 . S
C136 C140 1.328 . S
C136 C142 1.516 . S
C137 C138 1.304 . S
C137 C141 1.323 . S
C138 C137 1.304 . S
C138 C139 1.371 . S
C138 H152 0.930 . S
C139 C136 1.344 . S
C139 C138 1.371 . S
C139 H153 0.931 . S
C140 C136 1.328 . S
C140 C141 1.433 . S
C140 H154 0.931 . S
C141 C137 1.323 . S
C141 C140 1.433 . S
C141 H155 0.933 . S
C142 Dy120 2.738 . S
C142 O125 1.255 . S
C142 O126 1.249 . S
C142 C136 1.516 . S
C143 O127 1.254 . S
C143 O128 1.257 . S
C144 O129 1.266 . S
C144 O130 1.236 . S
C145 C148 1.344 . S
C145 C149 1.328 . S
C145 C151 1.516 . S
C146 C147 1.304 . S
C146 C150 1.323 . S
C147 C146 1.304 . S
C147 C148 1.371 . S
C147 H156 0.930 . S
C148 C145 1.344 . S
C148 C147 1.371 . S
C148 H157 0.931 . S
C149 C145 1.328 . S
C149 C150 1.433 . S
C149 H158 0.931 . S
C150 C146 1.323 . S
C150 C149 1.433 . S
C150 H159 0.933 . S
C151 Dy121 2.738 . S
C151 O131 1.255 . S
C151 O132 1.249 . S
C151 C145 1.516 . S
H152 C138 0.930 . S
H153 C139 0.931 . S
H154 C140 0.931 . S
H155 C141 0.933 . S
H156 C147 0.930 . S
H157 C148 0.931 . S
H158 C149 0.931 . S
H159 C150 0.933 . S
Dy160 O163 2.307 . S
Dy160 O165 2.395 . S
Dy160 O166 2.379 . S
Dy160 O168 2.339 . S
Dy160 O170 2.298 . S
Dy160 O174 2.275 . S
Dy160 C182 2.738 . S
Dy161 O164 2.298 . S
Dy161 O167 2.275 . S
Dy161 O169 2.307 . S
Dy161 O171 2.395 . S
Dy161 O172 2.379 . S
Dy161 O175 2.339 . S
Dy161 C191 2.738 . S
C162 O174 1.254 . S
C162 O175 1.257 . S
O163 Dy160 2.307 . S
O163 C173 1.266 . S
O164 Dy161 2.298 . S
O164 C173 1.236 . S
O165 Dy160 2.395 . S
O165 C182 1.255 . S
O166 Dy160 2.379 . S
O166 C182 1.249 . S
O167 Dy161 2.275 . S
O167 C183 1.254 . S
O168 Dy160 2.339 . S
O168 C183 1.257 . S
O169 Dy161 2.307 . S
O169 C184 1.266 . S
O170 Dy160 2.298 . S
O170 C184 1.236 . S
O171 Dy161 2.395 . S
O171 C191 1.255 . S
O172 Dy161 2.379 . S
O172 C191 1.249 . S
C173 O163 1.266 . S
C173 O164 1.236 . S
O174 Dy160 2.275 . S
O174 C162 1.254 . S
O175 Dy161 2.339 . S
O175 C162 1.257 . S
C176 C179 1.344 . S
C176 C180 1.328 . S
C176 C182 1.516 . S
C177 C178 1.304 . S
C177 C181 1.323 . S
C178 C177 1.304 . S
C178 C179 1.371 . S
C178 H192 0.930 . S
C179 C176 1.344 . S
C179 C178 1.371 . S
C179 H193 0.931 . S
C180 C176 1.328 . S
C180 C181 1.433 . S
C180 H194 0.931 . S
C181 C177 1.323 . S
C181 C180 1.433 . S
C181 H195 0.933 . S
C182 Dy160 2.738 . S
C182 O165 1.255 . S
C182 O166 1.249 . S
C182 C176 1.516 . S
C183 O167 1.254 . S
C183 O168 1.257 . S
C184 O169 1.266 . S
C184 O170 1.236 . S
C185 C188 1.344 . S
C185 C189 1.328 . S
C185 C191 1.516 . S
C186 C187 1.304 . S
C186 C190 1.323 . S
C187 C186 1.304 . S
C187 C188 1.371 . S
C187 H196 0.930 . S
C188 C185 1.344 . S
C188 C187 1.371 . S
C188 H197 0.931 . S
C189 C185 1.328 . S
C189 C190 1.433 . S
C189 H198 0.931 . S
C190 C186 1.323 . S
C190 C189 1.433 . S
C190 H199 0.933 . S
C191 Dy161 2.738 . S
C191 O171 1.255 . S
C191 O172 1.249 . S
C191 C185 1.516 . S
H192 C178 0.930 . S
H193 C179 0.931 . S
H194 C180 0.931 . S
H195 C181 0.933 . S
H196 C187 0.930 . S
H197 C188 0.931 . S
H198 C189 0.931 . S
H199 C190 0.933 . S
Dy200 O203 2.307 . S
Dy200 O205 2.395 . S
Dy200 O206 2.379 . S
Dy200 O208 2.339 . S
Dy200 O210 2.298 . S
Dy200 O214 2.275 . S
Dy200 C222 2.738 . S
Dy201 O204 2.298 . S
Dy201 O207 2.275 . S
Dy201 O209 2.307 . S
Dy201 O211 2.395 . S
Dy201 O212 2.379 . S
Dy201 O215 2.339 . S
Dy201 C231 2.738 . S
C202 O214 1.254 . S
C202 O215 1.257 . S
O203 Dy200 2.307 . S
O203 C213 1.266 . S
O204 Dy201 2.298 . S
O204 C213 1.236 . S
O205 Dy200 2.395 . S
O205 C222 1.255 . S
O206 Dy200 2.379 . S
O206 C222 1.249 . S
O207 Dy201 2.275 . S
O207 C223 1.254 . S
O208 Dy200 2.339 . S
O208 C223 1.257 . S
O209 Dy201 2.307 . S
O209 C224 1.266 . S
O210 Dy200 2.298 . S
O210 C224 1.236 . S
O211 Dy201 2.395 . S
O211 C231 1.255 . S
O212 Dy201 2.379 . S
O212 C231 1.249 . S
C213 O203 1.266 . S
C213 O204 1.236 . S
O214 Dy200 2.275 . S
O214 C202 1.254 . S
O215 Dy201 2.339 . S
O215 C202 1.257 . S
C216 C219 1.344 . S
C216 C220 1.328 . S
C216 C222 1.516 . S
C217 C218 1.304 . S
C217 C221 1.323 . S
C218 C217 1.304 . S
C218 C219 1.371 . S
C218 H232 0.930 . S
C219 C216 1.344 . S
C219 C218 1.371 . S
C219 H233 0.931 . S
C220 C216 1.328 . S
C220 C221 1.433 . S
C220 H234 0.931 . S
C221 C217 1.323 . S
C221 C220 1.433 . S
C221 H235 0.933 . S
C222 Dy200 2.738 . S
C222 O205 1.255 . S
C222 O206 1.249 . S
C222 C216 1.516 . S
C223 O207 1.254 . S
C223 O208 1.257 . S
C224 O209 1.266 . S
C224 O210 1.236 . S
C225 C228 1.344 . S
C225 C229 1.328 . S
C225 C231 1.516 . S
C226 C227 1.304 . S
C226 C230 1.323 . S
C227 C226 1.304 . S
C227 C228 1.371 . S
C227 H236 0.930 . S
C228 C225 1.344 . S
C228 C227 1.371 . S
C228 H237 0.931 . S
C229 C225 1.328 . S
C229 C230 1.433 . S
C229 H238 0.931 . S
C230 C226 1.323 . S
C230 C229 1.433 . S
C230 H239 0.933 . S
C231 Dy201 2.738 . S
C231 O211 1.255 . S
C231 O212 1.249 . S
C231 C225 1.516 . S
H232 C218 0.930 . S
H233 C219 0.931 . S
H234 C220 0.931 . S
H235 C221 0.933 . S
H236 C227 0.930 . S
H237 C228 0.931 . S
H238 C229 0.931 . S
H239 C230 0.933 . S
H240 C258 0.951 . S
H241 C260 0.951 . S
H242 C262 0.950 . S
H243 C263 0.950 . S
H244 C265 0.950 . S
H245 C268 0.950 . S
H246 C269 0.950 . S
H247 C271 0.950 . S
H248 C272 0.950 . S
H249 C273 0.951 . S
H250 C275 0.951 . S
H251 C277 0.950 . S
H252 C278 0.950 . S
H253 C280 0.950 . S
H254 C283 0.950 . S
H255 C284 0.950 . S
H256 C286 0.950 . S
H257 C287 0.950 . S
C258 H240 0.951 . S
C258 C259 1.366 . S
C258 C260 1.388 . S
C259 C258 1.366 . S
C259 C263 1.385 . S
C260 H241 0.951 . S
C260 C258 1.388 . S
C260 C261 1.366 . S
C261 C260 1.366 . S
C261 C262 1.414 . S
C261 C264 1.499 . S
C262 H242 0.950 . S
C262 C261 1.414 . S
C262 C263 1.374 . S
C263 H243 0.950 . S
C263 C259 1.385 . S
C263 C262 1.374 . S
C264 C261 1.499 . S
C264 C265 1.373 1_556 S
C264 C266 1.389 1_565 S
C265 H244 0.950 . S
C265 C264 1.373 1_554 S
C265 C281 1.377 . S
C266 C264 1.389 1_545 S
C266 C267 1.524 . S
C266 C280 1.377 . S
C267 C266 1.524 . S
C267 C268 1.397 . S
C267 C272 1.363 . S
C268 H245 0.950 . S
C268 C267 1.397 . S
C268 C269 1.334 . S
C269 H246 0.950 . S
C269 C268 1.334 . S
C269 C270 1.287 . S
C270 C269 1.287 . S
C270 C271 1.524 . S
C270 H289 0.913 . S
C271 H247 0.950 . S
C271 C270 1.524 . S
C271 C272 1.415 . S
C272 H248 0.950 . S
C272 C267 1.363 . S
C272 C271 1.415 . S
C273 H249 0.951 . S
C273 C274 1.366 . S
C273 C275 1.388 . S
C274 C273 1.366 . S
C274 C278 1.385 . S
C275 H250 0.951 . S
C275 C273 1.388 . S
C275 C276 1.366 . S
C276 C275 1.366 . S
C276 C277 1.414 . S
C276 C279 1.499 . S
C277 H251 0.950 . S
C277 C276 1.414 . S
C277 C278 1.374 . S
C278 H252 0.950 . S
C278 C274 1.385 . S
C278 C277 1.374 . S
C279 C276 1.499 . S
C279 C280 1.373 1_554 S
C279 C281 1.389 1_545 S
C280 H253 0.950 . S
C280 C266 1.377 . S
C280 C279 1.373 1_556 S
C281 C265 1.377 . S
C281 C279 1.389 1_565 S
C281 C282 1.524 . S
C282 C281 1.524 . S
C282 C283 1.397 . S
C282 C287 1.363 . S
C283 H254 0.950 . S
C283 C282 1.397 . S
C283 C284 1.334 . S
C284 H255 0.950 . S
C284 C283 1.334 . S
C284 C285 1.287 . S
C285 C284 1.287 . S
C285 C286 1.524 . S
C285 H288 0.999 . S
C286 H256 0.950 . S
C286 C285 1.524 . S
C286 C287 1.415 . S
C287 H257 0.950 . S
C287 C282 1.363 . S
C287 C286 1.415 . S
H288 C285 0.999 . S
H289 C270 0.913 . S
H290 C308 0.951 . S
H291 C310 0.951 . S
H292 C312 0.950 . S
H293 C313 0.950 . S
H294 C315 0.950 . S
H295 C318 0.950 . S
H296 C319 0.950 . S
H297 C321 0.950 . S
H298 C322 0.950 . S
H299 C323 0.951 . S
H300 C325 0.951 . S
H301 C327 0.950 . S
H302 C328 0.950 . S
H303 C330 0.950 . S
H304 C333 0.950 . S
H305 C334 0.950 . S
H306 C336 0.950 . S
H307 C337 0.950 . S
C308 H290 0.951 . S
C308 C309 1.366 . S
C308 C310 1.388 . S
C309 C308 1.366 . S
C309 C313 1.385 . S
C310 H291 0.951 . S
C310 C308 1.388 . S
C310 C311 1.366 . S
C311 C310 1.366 . S
C311 C312 1.414 . S
C311 C314 1.499 . S
C312 H292 0.950 . S
C312 C311 1.414 . S
C312 C313 1.374 . S
C313 H293 0.950 . S
C313 C309 1.385 . S
C313 C312 1.374 . S
C314 C311 1.499 . S
C314 C315 1.373 . S
C314 C316 1.389 . S
C315 H294 0.950 . S
C315 C314 1.373 . S
C315 C331 1.377 . S
C316 C314 1.389 . S
C316 C317 1.524 . S
C316 C330 1.377 . S
C317 C316 1.524 . S
C317 C318 1.397 . S
C317 C322 1.363 . S
C318 H295 0.950 . S
C318 C317 1.397 . S
C318 C319 1.334 . S
C319 H296 0.950 . S
C319 C318 1.334 . S
C319 C320 1.287 . S
C320 C319 1.287 . S
C320 C321 1.524 . S
C320 H339 0.913 . S
C321 H297 0.950 . S
C321 C320 1.524 . S
C321 C322 1.415 . S
C322 H298 0.950 . S
C322 C317 1.363 . S
C322 C321 1.415 . S
C323 H299 0.951 . S
C323 C324 1.366 . S
C323 C325 1.388 . S
C324 C323 1.366 . S
C324 C328 1.385 . S
C325 H300 0.951 . S
C325 C323 1.388 . S
C325 C326 1.366 . S
C326 C325 1.366 . S
C326 C327 1.414 . S
C326 C329 1.499 . S
C327 H301 0.950 . S
C327 C326 1.414 . S
C327 C328 1.374 . S
C328 H302 0.950 . S
C328 C324 1.385 . S
C328 C327 1.374 . S
C329 C326 1.499 . S
C329 C330 1.373 . S
C329 C331 1.389 . S
C330 H303 0.950 . S
C330 C316 1.377 . S
C330 C329 1.373 . S
C331 C315 1.377 . S
C331 C329 1.389 . S
C331 C332 1.524 . S
C332 C331 1.524 . S
C332 C333 1.397 . S
C332 C337 1.363 . S
C333 H304 0.950 . S
C333 C332 1.397 . S
C333 C334 1.334 . S
C334 H305 0.950 . S
C334 C333 1.334 . S
C334 C335 1.287 . S
C335 C334 1.287 . S
C335 C336 1.524 . S
C335 H338 0.999 . S
C336 H306 0.950 . S
C336 C335 1.524 . S
C336 C337 1.415 . S
C337 H307 0.950 . S
C337 C332 1.363 . S
C337 C336 1.415 . S
H338 C335 0.999 . S
H339 C320 0.913 . S
H340 C358 0.951 . S
H341 C360 0.951 . S
H342 C362 0.950 . S
H343 C363 0.950 . S
H344 C365 0.950 . S
H345 C368 0.953 . S
H346 C369 0.950 1_554 S
H347 C371 0.950 . S
H348 C372 0.950 . S
H349 C373 0.951 . S
H350 C375 0.951 . S
H351 C377 0.950 . S
H352 C378 0.950 . S
H353 C380 0.950 . S
H354 C383 0.953 . S
H355 C384 0.950 1_556 S
H356 C386 0.950 . S
H357 C387 0.950 . S
C358 H340 0.951 . S
C358 C359 1.366 . S
C358 C360 1.388 . S
C359 C358 1.366 . S
C359 C363 1.385 . S
C360 H341 0.951 . S
C360 C358 1.388 . S
C360 C361 1.366 . S
C361 C360 1.366 . S
C361 C362 1.414 . S
C361 C364 1.499 . S
C362 H342 0.950 . S
C362 C361 1.414 . S
C362 C363 1.374 . S
C363 H343 0.950 . S
C363 C359 1.385 . S
C363 C362 1.374 . S
C364 C361 1.499 . S
C364 C365 1.373 1_655 S
C364 C366 1.389 1_554 S
C365 H344 0.950 . S
C365 C364 1.373 1_455 S
C365 C381 1.377 . S
C366 C364 1.389 1_556 S
C366 C367 1.524 . S
C366 C380 1.377 . S
C367 C366 1.524 . S
C367 C368 1.394 1_556 S
C367 C372 1.363 . S
C368 H345 0.953 . S
C368 C367 1.394 1_554 S
C368 C369 1.333 1_554 S
C369 H346 0.950 1_556 S
C369 C368 1.333 1_556 S
C369 C370 1.287 . S
C370 C369 1.287 . S
C370 C371 1.524 . S
C370 H389 0.913 . S
C371 H347 0.950 . S
C371 C370 1.524 . S
C371 C372 1.415 . S
C372 H348 0.950 . S
C372 C367 1.363 . S
C372 C371 1.415 . S
C373 H349 0.951 . S
C373 C374 1.366 . S
C373 C375 1.388 . S
C374 C373 1.366 . S
C374 C378 1.385 . S
C375 H350 0.951 . S
C375 C373 1.388 . S
C375 C376 1.366 . S
C376 C375 1.366 . S
C376 C377 1.414 . S
C376 C379 1.499 . S
C377 H351 0.950 . S
C377 C376 1.414 . S
C377 C378 1.374 . S
C378 H352 0.950 . S
C378 C374 1.385 . S
C378 C377 1.374 . S
C379 C376 1.499 . S
C379 C380 1.373 1_455 S
C379 C381 1.389 1_556 S
C380 H353 0.950 . S
C380 C366 1.377 . S
C380 C379 1.373 1_655 S
C381 C365 1.377 . S
C381 C379 1.389 1_554 S
C381 C382 1.524 . S
C382 C381 1.524 . S
C382 C383 1.394 1_554 S
C382 C387 1.363 . S
C383 H354 0.953 . S
C383 C382 1.394 1_556 S
C383 C384 1.333 1_556 S
C384 H355 0.950 1_554 S
C384 C383 1.333 1_554 S
C384 C385 1.287 . S
C385 C384 1.287 . S
C385 C386 1.524 . S
C385 H388 0.999 . S
C386 H356 0.950 . S
C386 C385 1.524 . S
C386 C387 1.415 . S
C387 H357 0.950 . S
C387 C382 1.363 . S
C387 C386 1.415 . S
H388 C385 0.999 . S
H389 C370 0.913 . S
H390 C408 0.951 . S
H391 C410 0.951 . S
H392 C412 0.950 . S
H393 C413 0.950 . S
H394 C415 0.950 . S
H395 C418 0.950 . S
H396 C419 0.950 . S
H397 C421 0.950 . S
H398 C422 0.950 . S
H399 C423 0.951 . S
H400 C425 0.951 . S
H401 C427 0.950 . S
H402 C428 0.950 . S
H403 C430 0.950 . S
H404 C433 0.950 . S
H405 C434 0.950 . S
H406 C436 0.950 . S
H407 C437 0.950 . S
C408 H390 0.951 . S
C408 C409 1.366 . S
C408 C410 1.388 . S
C409 C408 1.366 . S
C409 C413 1.385 . S
C410 H391 0.951 . S
C410 C408 1.388 . S
C410 C411 1.366 . S
C411 C410 1.366 . S
C411 C412 1.414 . S
C411 C414 1.499 . S
C412 H392 0.950 . S
C412 C411 1.414 . S
C412 C413 1.374 . S
C413 H393 0.950 . S
C413 C409 1.385 . S
C413 C412 1.374 . S
C414 C411 1.499 . S
C414 C415 1.373 . S
C414 C416 1.389 . S
C415 H394 0.950 . S
C415 C414 1.373 . S
C415 C431 1.377 1_545 S
C416 C414 1.389 . S
C416 C417 1.524 . S
C416 C430 1.377 1_545 S
C417 C416 1.524 . S
C417 C418 1.397 . S
C417 C422 1.363 1_545 S
C418 H395 0.950 . S
C418 C417 1.397 . S
C418 C419 1.334 . S
C419 H396 0.950 . S
C419 C418 1.334 . S
C419 C420 1.287 . S
C420 C419 1.287 . S
C420 C421 1.524 1_545 S
C420 H439 0.913 . S
C421 H397 0.950 . S
C421 C420 1.524 1_565 S
C421 C422 1.415 . S
C422 H398 0.950 . S
C422 C417 1.363 1_565 S
C422 C421 1.415 . S
C423 H399 0.951 . S
C423 C424 1.366 . S
C423 C425 1.388 . S
C424 C423 1.366 . S
C424 C428 1.385 . S
C425 H400 0.951 . S
C425 C423 1.388 . S
C425 C426 1.366 . S
C426 C425 1.366 . S
C426 C427 1.414 . S
C426 C429 1.499 . S
C427 H401 0.950 . S
C427 C426 1.414 . S
C427 C428 1.374 . S
C428 H402 0.950 . S
C428 C424 1.385 . S
C428 C427 1.374 . S
C429 C426 1.499 . S
C429 C430 1.373 . S
C429 C431 1.389 . S
C430 H403 0.950 . S
C430 C416 1.377 1_565 S
C430 C429 1.373 . S
C431 C415 1.377 1_565 S
C431 C429 1.389 . S
C431 C432 1.524 . S
C432 C431 1.524 . S
C432 C433 1.397 . S
C432 C437 1.363 1_565 S
C433 H404 0.950 . S
C433 C432 1.397 . S
C433 C434 1.334 . S
C434 H405 0.950 . S
C434 C433 1.334 . S
C434 C435 1.287 . S
C435 C434 1.287 . S
C435 C436 1.524 1_565 S
C435 H438 0.999 . S
C436 H406 0.950 . S
C436 C435 1.524 1_545 S
C436 C437 1.415 . S
C437 H407 0.950 . S
C437 C432 1.363 1_545 S
C437 C436 1.415 . S
H438 C435 0.999 . S
H439 C420 0.913 . S
H440 C458 0.951 . S
H441 C460 0.951 . S
H442 C462 0.950 . S
H443 C463 0.950 . S
H444 C465 0.950 . S
H445 C468 0.950 . S
H446 C469 0.950 . S
H447 C471 0.950 . S
H448 C472 0.950 . S
H449 C473 0.951 . S
H450 C475 0.951 . S
H451 C477 0.950 . S
H452 C478 0.950 . S
H453 C480 0.950 . S
H454 C483 0.950 . S
H455 C484 0.950 . S
H456 C486 0.950 . S
H457 C487 0.950 . S
C458 H440 0.951 . S
C458 C459 1.366 . S
C458 C460 1.388 . S
C459 C458 1.366 . S
C459 C463 1.385 . S
C460 H441 0.951 . S
C460 C458 1.388 . S
C460 C461 1.366 . S
C461 C460 1.366 . S
C461 C462 1.414 . S
C461 C464 1.499 . S
C462 H442 0.950 . S
C462 C461 1.414 . S
C462 C463 1.374 . S
C463 H443 0.950 . S
C463 C459 1.385 . S
C463 C462 1.374 . S
C464 C461 1.499 . S
C464 C465 1.373 . S
C464 C466 1.389 . S
C465 H444 0.950 . S
C465 C464 1.373 . S
C465 C481 1.377 1_556 S
C466 C464 1.389 . S
C466 C467 1.524 . S
C466 C480 1.377 1_556 S
C467 C466 1.524 . S
C467 C468 1.397 . S
C467 C472 1.363 . S
C468 H445 0.950 . S
C468 C467 1.397 . S
C468 C469 1.334 . S
C469 H446 0.950 . S
C469 C468 1.334 . S
C469 C470 1.287 . S
C470 C469 1.287 . S
C470 C471 1.524 . S
C470 H489 0.913 . S
C471 H447 0.950 . S
C471 C470 1.524 . S
C471 C472 1.415 . S
C472 H448 0.950 . S
C472 C467 1.363 . S
C472 C471 1.415 . S
C473 H449 0.951 . S
C473 C474 1.366 . S
C473 C475 1.388 . S
C474 C473 1.366 . S
C474 C478 1.385 . S
C475 H450 0.951 . S
C475 C473 1.388 . S
C475 C476 1.366 . S
C476 C475 1.366 . S
C476 C477 1.414 . S
C476 C479 1.499 . S
C477 H451 0.950 . S
C477 C476 1.414 . S
C477 C478 1.374 . S
C478 H452 0.950 . S
C478 C474 1.385 . S
C478 C477 1.374 . S
C479 C476 1.499 . S
C479 C480 1.373 . S
C479 C481 1.389 . S
C480 H453 0.950 . S
C480 C466 1.377 1_554 S
C480 C479 1.373 . S
C481 C465 1.377 1_554 S
C481 C479 1.389 . S
C481 C482 1.524 . S
C482 C481 1.524 . S
C482 C483 1.397 . S
C482 C487 1.363 . S
C483 H454 0.950 . S
C483 C482 1.397 . S
C483 C484 1.334 . S
C484 H455 0.950 . S
C484 C483 1.334 . S
C484 C485 1.287 . S
C485 C484 1.287 . S
C485 C486 1.524 . S
C485 H488 0.999 . S
C486 H456 0.950 . S
C486 C485 1.524 . S
C486 C487 1.415 . S
C487 H457 0.950 . S
C487 C482 1.363 . S
C487 C486 1.415 . S
H488 C485 0.999 . S
H489 C470 0.913 . S
H490 C508 0.951 . S
H491 C510 0.951 . S
H492 C512 0.950 . S
H493 C513 0.950 . S
H494 C515 0.950 . S
H495 C518 0.950 . S
H496 C519 0.950 . S
H497 C521 0.950 . S
H498 C522 0.950 . S
H499 C523 0.951 . S
H500 C525 0.951 . S
H501 C527 0.950 . S
H502 C528 0.950 . S
H503 C530 0.950 . S
H504 C533 0.950 . S
H505 C534 0.950 . S
H506 C536 0.950 . S
H507 C537 0.950 . S
C508 H490 0.951 . S
C508 C509 1.366 . S
C508 C510 1.388 . S
C509 C508 1.366 . S
C509 C513 1.385 . S
C510 H491 0.951 . S
C510 C508 1.388 . S
C510 C511 1.366 . S
C511 C510 1.366 . S
C511 C512 1.414 . S
C511 C514 1.499 . S
C512 H492 0.950 . S
C512 C511 1.414 . S
C512 C513 1.374 . S
C513 H493 0.950 . S
C513 C509 1.385 . S
C513 C512 1.374 . S
C514 C511 1.499 . S
C514 C515 1.373 1_655 S
C514 C516 1.389 . S
C515 H494 0.950 . S
C515 C514 1.373 1_455 S
C515 C531 1.377 . S
C516 C514 1.389 . S
C516 C517 1.524 . S
C516 C530 1.377 . S
C517 C516 1.524 . S
C517 C518 1.397 . S
C517 C522 1.363 . S
C518 H495 0.950 . S
C518 C517 1.397 . S
C518 C519 1.334 . S
C519 H496 0.950 . S
C519 C518 1.334 . S
C519 C520 1.287 . S
C520 C519 1.287 . S
C520 C521 1.524 . S
C520 H539 0.913 . S
C521 H497 0.950 . S
C521 C520 1.524 . S
C521 C522 1.415 . S
C522 H498 0.950 . S
C522 C517 1.363 . S
C522 C521 1.415 . S
C523 H499 0.951 . S
C523 C524 1.366 . S
C523 C525 1.388 . S
C524 C523 1.366 . S
C524 C528 1.385 . S
C525 H500 0.951 . S
C525 C523 1.388 . S
C525 C526 1.366 . S
C526 C525 1.366 . S
C526 C527 1.414 . S
C526 C529 1.499 . S
C527 H501 0.950 . S
C527 C526 1.414 . S
C527 C528 1.374 . S
C528 H502 0.950 . S
C528 C524 1.385 . S
C528 C527 1.374 . S
C529 C526 1.499 . S
C529 C530 1.373 1_455 S
C529 C531 1.389 . S
C530 H503 0.950 . S
C530 C516 1.377 . S
C530 C529 1.373 1_655 S
C531 C515 1.377 . S
C531 C529 1.389 . S
C531 C532 1.524 . S
C532 C531 1.524 . S
C532 C533 1.397 . S
C532 C537 1.363 . S
C533 H504 0.950 . S
C533 C532 1.397 . S
C533 C534 1.334 . S
C534 H505 0.950 . S
C534 C533 1.334 . S
C534 C535 1.287 . S
C535 C534 1.287 . S
C535 C536 1.524 . S
C535 H538 0.999 . S
C536 H506 0.950 . S
C536 C535 1.524 . S
C536 C537 1.415 . S
C537 H507 0.950 . S
C537 C532 1.363 . S
C537 C536 1.415 . S
H538 C535 0.999 . S
H539 C520 0.913 . S
H540 C558 0.951 . S
H541 C560 0.951 . S
H542 C562 0.950 . S
H543 C563 0.950 . S
H544 C565 0.950 . S
H545 C568 0.950 . S
H546 C569 0.950 . S
H547 C571 0.950 . S
H548 C572 0.950 . S
H549 C573 0.951 . S
H550 C575 0.951 . S
H551 C577 0.950 . S
H552 C578 0.950 . S
H553 C580 0.950 . S
H554 C583 0.950 . S
H555 C584 0.950 . S
H556 C586 0.950 . S
H557 C587 0.950 . S
C558 H540 0.951 . S
C558 C559 1.366 . S
C558 C560 1.388 . S
C559 C558 1.366 . S
C559 C563 1.385 . S
C560 H541 0.951 . S
C560 C558 1.388 . S
C560 C561 1.366 . S
C561 C560 1.366 . S
C561 C562 1.414 . S
C561 C564 1.499 . S
C562 H542 0.950 . S
C562 C561 1.414 . S
C562 C563 1.374 . S
C563 H543 0.950 . S
C563 C559 1.385 . S
C563 C562 1.374 . S
C564 C561 1.499 . S
C564 C565 1.373 . S
C564 C566 1.389 . S
C565 H544 0.950 . S
C565 C564 1.373 . S
C565 C581 1.377 . S
C566 C564 1.389 . S
C566 C567 1.524 . S
C566 C580 1.377 . S
C567 C566 1.524 . S
C567 C568 1.397 . S
C567 C572 1.363 . S
C568 H545 0.950 . S
C568 C567 1.397 . S
C568 C569 1.334 . S
C569 H546 0.950 . S
C569 C568 1.334 . S
C569 C570 1.287 . S
C570 C569 1.287 . S
C570 C571 1.524 . S
C570 H589 0.913 . S
C571 H547 0.950 . S
C571 C570 1.524 . S
C571 C572 1.415 . S
C572 H548 0.950 . S
C572 C567 1.363 . S
C572 C571 1.415 . S
C573 H549 0.951 . S
C573 C574 1.366 . S
C573 C575 1.388 . S
C574 C573 1.366 . S
C574 C578 1.385 . S
C575 H550 0.951 . S
C575 C573 1.388 . S
C575 C576 1.366 . S
C576 C575 1.366 . S
C576 C577 1.414 . S
C576 C579 1.499 . S
C577 H551 0.950 . S
C577 C576 1.414 . S
C577 C578 1.374 . S
C578 H552 0.950 . S
C578 C574 1.385 . S
C578 C577 1.374 . S
C579 C576 1.499 . S
C579 C580 1.373 . S
C579 C581 1.389 . S
C580 H553 0.950 . S
C580 C566 1.377 . S
C580 C579 1.373 . S
C581 C565 1.377 . S
C581 C579 1.389 . S
C581 C582 1.524 . S
C582 C581 1.524 . S
C582 C583 1.397 . S
C582 C587 1.363 . S
C583 H554 0.950 . S
C583 C582 1.397 . S
C583 C584 1.334 . S
C584 H555 0.950 . S
C584 C583 1.334 . S
C584 C585 1.287 . S
C585 C584 1.287 . S
C585 C586 1.524 . S
C585 H588 0.999 . S
C586 H556 0.950 . S
C586 C585 1.524 . S
C586 C587 1.415 . S
C587 H557 0.950 . S
C587 C582 1.363 . S
C587 C586 1.415 . S
H588 C585 0.999 . S
H589 C570 0.913 . S
H590 C608 0.951 . S
H591 C610 0.951 . S
H592 C612 0.950 . S
H593 C613 0.950 . S
H594 C615 0.950 . S
H595 C618 0.950 . S
H596 C619 0.950 . S
H597 C621 0.950 . S
H598 C622 0.950 . S
H599 C623 0.951 . S
H600 C625 0.951 . S
H601 C627 0.950 . S
H602 C628 0.950 . S
H603 C630 0.950 . S
H604 C633 0.950 . S
H605 C634 0.950 . S
H606 C636 0.950 . S
H607 C637 0.950 . S
C608 H590 0.951 . S
C608 C609 1.366 . S
C608 C610 1.388 . S
C609 C608 1.366 . S
C609 C613 1.385 . S
C610 H591 0.951 . S
C610 C608 1.388 . S
C610 C611 1.366 . S
C611 C610 1.366 . S
C611 C612 1.414 . S
C611 C614 1.499 . S
C612 H592 0.950 . S
C612 C611 1.414 . S
C612 C613 1.374 . S
C613 H593 0.950 . S
C613 C609 1.385 . S
C613 C612 1.374 . S
C614 C611 1.499 . S
C614 C615 1.373 . S
C614 C616 1.389 . S
C615 H594 0.950 . S
C615 C614 1.373 . S
C615 C631 1.377 . S
C616 C614 1.389 . S
C616 C617 1.524 . S
C616 C630 1.377 . S
C617 C616 1.524 . S
C617 C618 1.397 . S
C617 C622 1.363 . S
C618 H595 0.950 . S
C618 C617 1.397 . S
C618 C619 1.334 . S
C619 H596 0.950 . S
C619 C618 1.334 . S
C619 C620 1.287 . S
C620 C619 1.287 . S
C620 C621 1.524 . S
C620 H639 0.913 . S
C621 H597 0.950 . S
C621 C620 1.524 . S
C621 C622 1.415 . S
C622 H598 0.950 . S
C622 C617 1.363 . S
C622 C621 1.415 . S
C623 H599 0.951 . S
C623 C624 1.366 . S
C623 C625 1.388 . S
C624 C623 1.366 . S
C624 C628 1.385 . S
C625 H600 0.951 . S
C625 C623 1.388 . S
C625 C626 1.366 . S
C626 C625 1.366 . S
C626 C627 1.414 . S
C626 C629 1.499 . S
C627 H601 0.950 . S
C627 C626 1.414 . S
C627 C628 1.374 . S
C628 H602 0.950 . S
C628 C624 1.385 . S
C628 C627 1.374 . S
C629 C626 1.499 . S
C629 C630 1.373 . S
C629 C631 1.389 . S
C630 H603 0.950 . S
C630 C616 1.377 . S
C630 C629 1.373 . S
C631 C615 1.377 . S
C631 C629 1.389 . S
C631 C632 1.524 . S
C632 C631 1.524 . S
C632 C633 1.397 . S
C632 C637 1.363 . S
C633 H604 0.950 . S
C633 C632 1.397 . S
C633 C634 1.334 . S
C634 H605 0.950 . S
C634 C633 1.334 . S
C634 C635 1.287 . S
C635 C634 1.287 . S
C635 C636 1.524 . S
C635 H638 0.999 . S
C636 H606 0.950 . S
C636 C635 1.524 . S
C636 C637 1.415 . S
C637 H607 0.950 . S
C637 C632 1.363 . S
C637 C636 1.415 . S
H638 C635 0.999 . S
H639 C620 0.913 . S
H640 C658 0.951 . S
H641 C660 0.951 . S
H642 C662 0.950 . S
H643 C663 0.950 . S
H644 C665 0.950 . S
H645 C668 0.950 . S
H646 C669 0.950 . S
H647 C671 0.950 . S
H648 C672 0.950 . S
H649 C673 0.951 . S
H650 C675 0.951 . S
H651 C677 0.950 . S
H652 C678 0.950 . S
H653 C680 0.950 . S
H654 C683 0.950 . S
H655 C684 0.950 . S
H656 C686 0.950 . S
H657 C687 0.950 . S
C658 H640 0.951 . S
C658 C659 1.366 . S
C658 C660 1.388 . S
C659 C658 1.366 . S
C659 C663 1.385 . S
C660 H641 0.951 . S
C660 C658 1.388 . S
C660 C661 1.366 . S
C661 C660 1.366 . S
C661 C662 1.414 . S
C661 C664 1.499 . S
C662 H642 0.950 . S
C662 C661 1.414 . S
C662 C663 1.374 . S
C663 H643 0.950 . S
C663 C659 1.385 . S
C663 C662 1.374 . S
C664 C661 1.499 . S
C664 C665 1.373 . S
C664 C666 1.389 . S
C665 H644 0.950 . S
C665 C664 1.373 . S
C665 C681 1.377 . S
C666 C664 1.389 . S
C666 C667 1.524 . S
C666 C680 1.377 . S
C667 C666 1.524 . S
C667 C668 1.397 . S
C667 C672 1.363 . S
C668 H645 0.950 . S
C668 C667 1.397 . S
C668 C669 1.334 . S
C669 H646 0.950 . S
C669 C668 1.334 . S
C669 C670 1.287 . S
C670 C669 1.287 . S
C670 C671 1.524 . S
C670 H689 0.913 . S
C671 H647 0.950 . S
C671 C670 1.524 . S
C671 C672 1.415 . S
C672 H648 0.950 . S
C672 C667 1.363 . S
C672 C671 1.415 . S
C673 H649 0.951 . S
C673 C674 1.366 . S
C673 C675 1.388 . S
C674 C673 1.366 . S
C674 C678 1.385 . S
C675 H650 0.951 . S
C675 C673 1.388 . S
C675 C676 1.366 . S
C676 C675 1.366 . S
C676 C677 1.414 . S
C676 C679 1.499 . S
C677 H651 0.950 . S
C677 C676 1.414 . S
C677 C678 1.374 . S
C678 H652 0.950 . S
C678 C674 1.385 . S
C678 C677 1.374 . S
C679 C676 1.499 . S
C679 C680 1.373 . S
C679 C681 1.389 . S
C680 H653 0.950 . S
C680 C666 1.377 . S
C680 C679 1.373 . S
C681 C665 1.377 . S
C681 C679 1.389 . S
C681 C682 1.524 . S
C682 C681 1.524 . S
C682 C683 1.397 . S
C682 C687 1.363 . S
C683 H654 0.950 . S
C683 C682 1.397 . S
C683 C684 1.334 . S
C684 H655 0.950 . S
C684 C683 1.334 . S
C684 C685 1.287 . S
C685 C684 1.287 . S
C685 C686 1.524 . S
C685 H688 0.999 . S
C686 H656 0.950 . S
C686 C685 1.524 . S
C686 C687 1.415 . S
C687 H657 0.950 . S
C687 C682 1.363 . S
C687 C686 1.415 . S
H688 C685 0.999 . S
H689 C670 0.913 . S
H690 C708 0.951 . S
H691 C710 0.951 . S
H692 C712 0.950 . S
H693 C713 0.950 . S
H694 C715 0.950 . S
H695 C718 0.950 . S
H696 C719 0.950 . S
H697 C721 0.950 . S
H698 C722 0.950 . S
H699 C723 0.951 . S
H700 C725 0.951 . S
H701 C727 0.950 . S
H702 C728 0.950 . S
H703 C730 0.950 . S
H704 C733 0.950 . S
H705 C734 0.950 . S
H706 C736 0.950 . S
H707 C737 0.950 . S
C708 H690 0.951 . S
C708 C709 1.366 . S
C708 C710 1.388 . S
C709 C708 1.366 . S
C709 C713 1.385 . S
C710 H691 0.951 . S
C710 C708 1.388 . S
C710 C711 1.366 . S
C711 C710 1.366 . S
C711 C712 1.414 . S
C711 C714 1.499 . S
C712 H692 0.950 . S
C712 C711 1.414 . S
C712 C713 1.374 . S
C713 H693 0.950 . S
C713 C709 1.385 . S
C713 C712 1.374 . S
C714 C711 1.499 . S
C714 C715 1.373 . S
C714 C716 1.389 . S
C715 H694 0.950 . S
C715 C714 1.373 . S
C715 C731 1.377 . S
C716 C714 1.389 . S
C716 C717 1.524 . S
C716 C730 1.377 . S
C717 C716 1.524 . S
C717 C718 1.397 . S
C717 C722 1.363 . S
C718 H695 0.950 . S
C718 C717 1.397 . S
C718 C719 1.334 . S
C719 H696 0.950 . S
C719 C718 1.334 . S
C719 C720 1.287 . S
C720 C719 1.287 . S
C720 C721 1.524 . S
C720 H739 0.913 . S
C721 H697 0.950 . S
C721 C720 1.524 . S
C721 C722 1.415 . S
C722 H698 0.950 . S
C722 C717 1.363 . S
C722 C721 1.415 . S
C723 H699 0.951 . S
C723 C724 1.366 . S
C723 C725 1.388 . S
C724 C723 1.366 . S
C724 C728 1.385 . S
C725 H700 0.951 . S
C725 C723 1.388 . S
C725 C726 1.366 . S
C726 C725 1.366 . S
C726 C727 1.414 . S
C726 C729 1.499 . S
C727 H701 0.950 . S
C727 C726 1.414 . S
C727 C728 1.374 . S
C728 H702 0.950 . S
C728 C724 1.385 . S
C728 C727 1.374 . S
C729 C726 1.499 . S
C729 C730 1.373 . S
C729 C731 1.389 . S
C730 H703 0.950 . S
C730 C716 1.377 . S
C730 C729 1.373 . S
C731 C715 1.377 . S
C731 C729 1.389 . S
C731 C732 1.524 . S
C732 C731 1.524 . S
C732 C733 1.397 . S
C732 C737 1.363 . S
C733 H704 0.950 . S
C733 C732 1.397 . S
C733 C734 1.334 . S
C734 H705 0.950 . S
C734 C733 1.334 . S
C734 C735 1.287 . S
C735 C734 1.287 . S
C735 C736 1.524 . S
C735 H738 0.999 . S
C736 H706 0.950 . S
C736 C735 1.524 . S
C736 C737 1.415 . S
C737 H707 0.950 . S
C737 C732 1.363 . S
C737 C736 1.415 . S
H738 C735 0.999 . S
H739 C720 0.913 . S
H740 C758 0.951 . S
H741 C760 0.951 . S
H742 C762 0.950 . S
H743 C763 0.950 . S
H744 C765 0.950 . S
H745 C768 0.950 . S
H746 C769 0.950 . S
H747 C771 0.950 . S
H748 C772 0.950 . S
H749 C773 0.951 . S
H750 C775 0.951 . S
H751 C777 0.950 . S
H752 C778 0.950 . S
H753 C780 0.950 . S
H754 C783 0.950 . S
H755 C784 0.950 . S
H756 C786 0.950 . S
H757 C787 0.950 . S
C758 H740 0.951 . S
C758 C759 1.366 . S
C758 C760 1.388 . S
C759 C758 1.366 . S
C759 C763 1.385 . S
C760 H741 0.951 . S
C760 C758 1.388 . S
C760 C761 1.366 . S
C761 C760 1.366 . S
C761 C762 1.414 . S
C761 C764 1.499 . S
C762 H742 0.950 . S
C762 C761 1.414 . S
C762 C763 1.374 . S
C763 H743 0.950 . S
C763 C759 1.385 . S
C763 C762 1.374 . S
C764 C761 1.499 . S
C764 C765 1.373 . S
C764 C766 1.389 . S
C765 H744 0.950 . S
C765 C764 1.373 . S
C765 C781 1.377 . S
C766 C764 1.389 . S
C766 C767 1.524 . S
C766 C780 1.377 . S
C767 C766 1.524 . S
C767 C768 1.397 . S
C767 C772 1.363 . S
C768 H745 0.950 . S
C768 C767 1.397 . S
C768 C769 1.334 . S
C769 H746 0.950 . S
C769 C768 1.334 . S
C769 C770 1.287 . S
C770 C769 1.287 . S
C770 C771 1.524 . S
C770 H789 0.913 . S
C771 H747 0.950 . S
C771 C770 1.524 . S
C771 C772 1.415 . S
C772 H748 0.950 . S
C772 C767 1.363 . S
C772 C771 1.415 . S
C773 H749 0.951 . S
C773 C774 1.366 . S
C773 C775 1.388 . S
C774 C773 1.366 . S
C774 C778 1.385 . S
C775 H750 0.951 . S
C775 C773 1.388 . S
C775 C776 1.366 . S
C776 C775 1.366 . S
C776 C777 1.414 . S
C776 C779 1.499 . S
C777 H751 0.950 . S
C777 C776 1.414 . S
C777 C778 1.374 . S
C778 H752 0.950 . S
C778 C774 1.385 . S
C778 C777 1.374 . S
C779 C776 1.499 . S
C779 C780 1.373 . S
C779 C781 1.389 . S
C780 H753 0.950 . S
C780 C766 1.377 . S
C780 C779 1.373 . S
C781 C765 1.377 . S
C781 C779 1.389 . S
C781 C782 1.524 . S
C782 C781 1.524 . S
C782 C783 1.397 . S
C782 C787 1.363 . S
C783 H754 0.950 . S
C783 C782 1.397 . S
C783 C784 1.334 . S
C784 H755 0.950 . S
C784 C783 1.334 . S
C784 C785 1.287 . S
C785 C784 1.287 . S
C785 C786 1.524 . S
C785 H788 0.999 . S
C786 H756 0.950 . S
C786 C785 1.524 . S
C786 C787 1.415 . S
C787 H757 0.950 . S
C787 C782 1.363 . S
C787 C786 1.415 . S
H788 C785 0.999 . S
H789 C770 0.913 . S
H790 C808 0.951 . S
H791 C810 0.951 . S
H792 C812 0.950 . S
H793 C813 0.950 . S
H794 C815 0.950 . S
H795 C818 0.950 . S
H796 C819 0.950 . S
H797 C821 0.950 . S
H798 C822 0.950 . S
H799 C823 0.951 . S
H800 C825 0.951 . S
H801 C827 0.950 . S
H802 C828 0.950 . S
H803 C830 0.950 . S
H804 C833 0.950 . S
H805 C834 0.950 . S
H806 C836 0.950 . S
H807 C837 0.950 . S
C808 H790 0.951 . S
C808 C809 1.366 . S
C808 C810 1.388 . S
C809 C808 1.366 . S
C809 C813 1.385 . S
C810 H791 0.951 . S
C810 C808 1.388 . S
C810 C811 1.366 . S
C811 C810 1.366 . S
C811 C812 1.414 . S
C811 C814 1.499 . S
C812 H792 0.950 . S
C812 C811 1.414 . S
C812 C813 1.374 . S
C813 H793 0.950 . S
C813 C809 1.385 . S
C813 C812 1.374 . S
C814 C811 1.499 . S
C814 C815 1.373 . S
C814 C816 1.389 . S
C815 H794 0.950 . S
C815 C814 1.373 . S
C815 C831 1.377 . S
C816 C814 1.389 . S
C816 C817 1.524 . S
C816 C830 1.377 . S
C817 C816 1.524 . S
C817 C818 1.397 . S
C817 C822 1.363 . S
C818 H795 0.950 . S
C818 C817 1.397 . S
C818 C819 1.334 . S
C819 H796 0.950 . S
C819 C818 1.334 . S
C819 C820 1.287 . S
C820 C819 1.287 . S
C820 C821 1.524 . S
C820 H839 0.913 . S
C821 H797 0.950 . S
C821 C820 1.524 . S
C821 C822 1.415 . S
C822 H798 0.950 . S
C822 C817 1.363 . S
C822 C821 1.415 . S
C823 H799 0.951 . S
C823 C824 1.366 . S
C823 C825 1.388 . S
C824 C823 1.366 . S
C824 C828 1.385 . S
C825 H800 0.951 . S
C825 C823 1.388 . S
C825 C826 1.366 . S
C826 C825 1.366 . S
C826 C827 1.414 . S
C826 C829 1.499 . S
C827 H801 0.950 . S
C827 C826 1.414 . S
C827 C828 1.374 . S
C828 H802 0.950 . S
C828 C824 1.385 . S
C828 C827 1.374 . S
C829 C826 1.499 . S
C829 C830 1.373 . S
C829 C831 1.389 . S
C830 H803 0.950 . S
C830 C816 1.377 . S
C830 C829 1.373 . S
C831 C815 1.377 . S
C831 C829 1.389 . S
C831 C832 1.524 . S
C832 C831 1.524 . S
C832 C833 1.397 . S
C832 C837 1.363 . S
C833 H804 0.950 . S
C833 C832 1.397 . S
C833 C834 1.334 . S
C834 H805 0.950 . S
C834 C833 1.334 . S
C834 C835 1.287 . S
C835 C834 1.287 . S
C835 C836 1.524 . S
C835 H838 0.999 . S
C836 H806 0.950 . S
C836 C835 1.524 . S
C836 C837 1.415 . S
C837 H807 0.950 . S
C837 C832 1.363 . S
C837 C836 1.415 . S
H838 C835 0.999 . S
H839 C820 0.913 . S
H840 C858 0.951 . S
H841 C860 0.951 . S
H842 C862 0.950 . S
H843 C863 0.950 . S
H844 C865 0.950 . S
H845 C868 0.950 . S
H846 C869 0.950 . S
H847 C871 0.950 . S
H848 C872 0.950 . S
H849 C873 0.951 . S
H850 C875 0.951 . S
H851 C877 0.950 . S
H852 C878 0.950 . S
H853 C880 0.950 . S
H854 C883 0.950 . S
H855 C884 0.950 . S
H856 C886 0.950 . S
H857 C887 0.984 . S
C858 H840 0.951 . S
C858 C859 1.366 . S
C858 C860 1.388 . S
C859 C858 1.366 . S
C859 C863 1.385 . S
C860 H841 0.951 . S
C860 C858 1.388 . S
C860 C861 1.366 . S
C861 C860 1.366 . S
C861 C862 1.414 . S
C861 C864 1.499 . S
C862 H842 0.950 . S
C862 C861 1.414 . S
C862 C863 1.374 . S
C863 H843 0.950 . S
C863 C859 1.385 . S
C863 C862 1.374 . S
C864 C861 1.499 . S
C864 C865 1.373 . S
C864 C866 1.389 . S
C865 H844 0.950 . S
C865 C864 1.373 . S
C865 C881 1.377 . S
C866 C864 1.389 . S
C866 C867 1.524 . S
C866 C880 1.377 . S
C867 C866 1.524 . S
C867 C868 1.397 . S
C867 C872 1.363 . S
C868 H845 0.950 . S
C868 C867 1.397 . S
C868 C869 1.334 . S
C869 H846 0.950 . S
C869 C868 1.334 . S
C869 C870 1.287 . S
C870 C869 1.287 . S
C870 C871 1.524 . S
C870 H889 0.913 . S
C871 H847 0.950 . S
C871 C870 1.524 . S
C871 C872 1.415 . S
C872 H848 0.950 . S
C872 C867 1.363 . S
C872 C871 1.415 . S
C873 H849 0.951 . S
C873 C874 1.366 . S
C873 C875 1.388 1_655 S
C874 C873 1.366 . S
C874 C878 1.385 . S
C875 H850 0.951 . S
C875 C873 1.388 1_455 S
C875 C876 1.366 . S
C876 C875 1.366 . S
C876 C877 1.414 1_455 S
C876 C879 1.499 . S
C877 H851 0.950 . S
C877 C876 1.414 1_655 S
C877 C878 1.374 . S
C878 H852 0.950 . S
C878 C874 1.385 . S
C878 C877 1.374 . S
C879 C876 1.499 . S
C879 C880 1.373 . S
C879 C881 1.389 . S
C880 H853 0.950 . S
C880 C866 1.377 . S
C880 C879 1.373 . S
C881 C865 1.377 . S
C881 C879 1.389 . S
C881 C882 1.524 1_455 S
C882 C881 1.524 1_655 S
C882 C883 1.397 . S
C882 C887 1.354 1_655 S
C883 H854 0.950 . S
C883 C882 1.397 . S
C883 C884 1.334 . S
C884 H855 0.950 . S
C884 C883 1.334 . S
C884 C885 1.287 . S
C885 C884 1.287 . S
C885 C886 1.524 . S
C885 H888 0.999 . S
C886 H856 0.950 . S
C886 C885 1.524 . S
C886 C887 1.392 1_655 S
C887 H857 0.984 . S
C887 C882 1.354 1_455 S
C887 C886 1.392 1_455 S
H888 C885 0.999 . S
H889 C870 0.913 . S
H890 C908 0.951 . S
H891 C910 0.951 . S
H892 C912 0.950 . S
H893 C913 0.950 . S
H894 C915 0.950 . S
H895 C918 0.950 . S
H896 C919 0.950 . S
H897 C921 0.950 . S
H898 C922 0.950 . S
H899 C923 0.951 . S
H900 C925 0.951 . S
H901 C927 0.950 . S
H902 C928 0.922 1_565 S
H903 C930 0.950 . S
H904 C933 0.950 . S
H905 C934 0.950 . S
H906 C936 0.950 . S
H907 C937 0.950 . S
C908 H890 0.951 . S
C908 C909 1.366 . S
C908 C910 1.388 1_655 S
C909 C908 1.366 . S
C909 C913 1.385 . S
C910 H891 0.951 . S
C910 C908 1.388 1_455 S
C910 C911 1.366 . S
C911 C910 1.366 . S
C911 C912 1.414 . S
C911 C914 1.499 . S
C912 H892 0.950 . S
C912 C911 1.414 . S
C912 C913 1.374 1_455 S
C913 H893 0.950 . S
C913 C909 1.385 . S
C913 C912 1.374 1_655 S
C914 C911 1.499 . S
C914 C915 1.373 . S
C914 C916 1.389 . S
C915 H894 0.950 . S
C915 C914 1.373 . S
C915 C931 1.377 . S
C916 C914 1.389 . S
C916 C917 1.524 . S
C916 C930 1.377 . S
C917 C916 1.524 . S
C917 C918 1.397 . S
C917 C922 1.363 . S
C918 H895 0.950 . S
C918 C917 1.397 . S
C918 C919 1.334 . S
C919 H896 0.950 . S
C919 C918 1.334 . S
C919 C920 1.287 . S
C920 C919 1.287 . S
C920 C921 1.524 . S
C920 H939 0.913 . S
C921 H897 0.950 . S
C921 C920 1.524 . S
C921 C922 1.415 . S
C922 H898 0.950 . S
C922 C917 1.363 . S
C922 C921 1.415 . S
C923 H899 0.951 . S
C923 C924 1.366 . S
C923 C925 1.388 . S
C924 C923 1.366 . S
C924 C928 1.418 . S
C925 H900 0.951 . S
C925 C923 1.388 . S
C925 C926 1.366 1_545 S
C926 C925 1.366 1_565 S
C926 C927 1.414 . S
C926 C929 1.499 . S
C927 H901 0.950 . S
C927 C926 1.414 . S
C927 C928 1.370 1_565 S
C928 H902 0.922 1_545 S
C928 C924 1.418 . S
C928 C927 1.370 1_545 S
C929 C926 1.499 . S
C929 C930 1.373 . S
C929 C931 1.389 . S
C930 H903 0.950 . S
C930 C916 1.377 . S
C930 C929 1.373 . S
C931 C915 1.377 . S
C931 C929 1.389 . S
C931 C932 1.524 1_565 S
C932 C931 1.524 1_545 S
C932 C933 1.397 . S
C932 C937 1.363 . S
C933 H904 0.950 . S
C933 C932 1.397 . S
C933 C934 1.334 . S
C934 H905 0.950 . S
C934 C933 1.334 . S
C934 C935 1.287 . S
C935 C934 1.287 . S
C935 C936 1.524 . S
C935 H938 0.999 . S
C936 H906 0.950 . S
C936 C935 1.524 . S
C936 C937 1.415 . S
C937 H907 0.950 . S
C937 C932 1.363 . S
C937 C936 1.415 . S
H938 C935 0.999 . S
H939 C920 0.913 . S
H940 C958 0.951 . S
H941 C960 0.951 . S
H942 C962 0.950 . S
H943 C963 0.950 . S
H944 C965 0.950 . S
H945 C968 0.950 . S
H946 C969 0.950 . S
H947 C971 0.950 . S
H948 C972 0.950 . S
H949 C973 0.951 . S
H950 C975 0.951 . S
H951 C977 0.950 . S
H952 C978 0.950 . S
H953 C980 0.950 . S
H954 C983 0.950 . S
H955 C984 0.950 . S
H956 C986 0.950 . S
H957 C987 0.950 . S
C958 H940 0.951 . S
C958 C959 1.366 . S
C958 C960 1.388 1_545 S
C959 C958 1.366 . S
C959 C963 1.385 . S
C960 H941 0.951 . S
C960 C958 1.388 1_565 S
C960 C961 1.366 . S
C961 C960 1.366 . S
C961 C962 1.414 . S
C961 C964 1.499 . S
C962 H942 0.950 . S
C962 C961 1.414 . S
C962 C963 1.374 1_565 S
C963 H943 0.950 . S
C963 C959 1.385 . S
C963 C962 1.374 1_545 S
C964 C961 1.499 . S
C964 C965 1.373 . S
C964 C966 1.389 . S
C965 H944 0.950 . S
C965 C964 1.373 . S
C965 C981 1.377 . S
C966 C964 1.389 . S
C966 C967 1.524 . S
C966 C980 1.377 . S
C967 C966 1.524 . S
C967 C968 1.397 . S
C967 C972 1.363 . S
C968 H945 0.950 . S
C968 C967 1.397 . S
C968 C969 1.334 . S
C969 H946 0.950 . S
C969 C968 1.334 . S
C969 C970 1.287 . S
C970 C969 1.287 . S
C970 C971 1.524 . S
C970 H989 0.913 . S
C971 H947 0.950 . S
C971 C970 1.524 . S
C971 C972 1.415 . S
C972 H948 0.950 . S
C972 C967 1.363 . S
C972 C971 1.415 . S
C973 H949 0.951 . S
C973 C974 1.366 . S
C973 C975 1.388 . S
C974 C973 1.366 . S
C974 C978 1.385 . S
C975 H950 0.951 . S
C975 C973 1.388 . S
C975 C976 1.366 . S
C976 C975 1.366 . S
C976 C977 1.414 . S
C976 C979 1.499 . S
C977 H951 0.950 . S
C977 C976 1.414 . S
C977 C978 1.374 . S
C978 H952 0.950 . S
C978 C974 1.385 . S
C978 C977 1.374 . S
C979 C976 1.499 . S
C979 C980 1.373 . S
C979 C981 1.389 . S
C980 H953 0.950 . S
C980 C966 1.377 . S
C980 C979 1.373 . S
C981 C965 1.377 . S
C981 C979 1.389 . S
C981 C982 1.524 . S
C982 C981 1.524 . S
C982 C983 1.397 . S
C982 C987 1.363 . S
C983 H954 0.950 . S
C983 C982 1.397 . S
C983 C984 1.334 . S
C984 H955 0.950 . S
C984 C983 1.334 . S
C984 C985 1.287 . S
C985 C984 1.287 . S
C985 C986 1.524 . S
C985 H988 0.999 . S
C986 H956 0.950 . S
C986 C985 1.524 . S
C986 C987 1.415 . S
C987 H957 0.950 . S
C987 C982 1.363 . S
C987 C986 1.415 . S
H988 C985 0.999 . S
H989 C970 0.913 . S
H990 C1008 0.951 . S
H991 C1010 0.951 . S
H992 C1012 0.950 . S
H993 C1013 0.950 . S
H994 C1015 0.950 . S
H995 C1018 0.950 . S
H996 C1019 0.950 . S
H997 C1021 0.950 . S
H998 C1022 0.950 . S
H999 C1023 0.951 . S
H1000 C1025 0.951 . S
H1001 C1027 0.950 . S
H1002 C1028 0.950 . S
H1003 C1030 0.950 . S
H1004 C1033 0.950 . S
H1005 C1034 0.950 . S
H1006 C1036 0.950 . S
H1007 C1037 0.950 . S
C1008 H990 0.951 . S
C1008 C1009 1.366 . S
C1008 C1010 1.388 . S
C1009 C1008 1.366 . S
C1009 C1013 1.385 . S
C1010 H991 0.951 . S
C1010 C1008 1.388 . S
C1010 C1011 1.366 . S
C1011 C1010 1.366 . S
C1011 C1012 1.414 . S
C1011 C1014 1.499 . S
C1012 H992 0.950 . S
C1012 C1011 1.414 . S
C1012 C1013 1.374 . S
C1013 H993 0.950 . S
C1013 C1009 1.385 . S
C1013 C1012 1.374 . S
C1014 C1011 1.499 . S
C1014 C1015 1.373 . S
C1014 C1016 1.389 . S
C1015 H994 0.950 . S
C1015 C1014 1.373 . S
C1015 C1031 1.377 . S
C1016 C1014 1.389 . S
C1016 C1017 1.524 . S
C1016 C1030 1.377 . S
C1017 C1016 1.524 . S
C1017 C1018 1.397 . S
C1017 C1022 1.363 . S
C1018 H995 0.950 . S
C1018 C1017 1.397 . S
C1018 C1019 1.334 . S
C1019 H996 0.950 . S
C1019 C1018 1.334 . S
C1019 C1020 1.287 . S
C1020 C1019 1.287 . S
C1020 C1021 1.524 . S
C1020 H1039 0.913 . S
C1021 H997 0.950 . S
C1021 C1020 1.524 . S
C1021 C1022 1.415 . S
C1022 H998 0.950 . S
C1022 C1017 1.363 . S
C1022 C1021 1.415 . S
C1023 H999 0.951 . S
C1023 C1024 1.366 . S
C1023 C1025 1.388 . S
C1024 C1023 1.366 . S
C1024 C1028 1.385 . S
C1025 H1000 0.951 . S
C1025 C1023 1.388 . S
C1025 C1026 1.366 1_565 S
C1026 C1025 1.366 1_545 S
C1026 C1027 1.414 . S
C1026 C1029 1.499 . S
C1027 H1001 0.950 . S
C1027 C1026 1.414 . S
C1027 C1028 1.374 1_545 S
C1028 H1002 0.950 . S
C1028 C1024 1.385 . S
C1028 C1027 1.374 1_565 S
C1029 C1026 1.499 . S
C1029 C1030 1.373 . S
C1029 C1031 1.389 . S
C1030 H1003 0.950 . S
C1030 C1016 1.377 . S
C1030 C1029 1.373 . S
C1031 C1015 1.377 . S
C1031 C1029 1.389 . S
C1031 C1032 1.524 . S
C1032 C1031 1.524 . S
C1032 C1033 1.397 . S
C1032 C1037 1.363 . S
C1033 H1004 0.950 . S
C1033 C1032 1.397 . S
C1033 C1034 1.334 . S
C1034 H1005 0.950 . S
C1034 C1033 1.334 . S
C1034 C1035 1.287 . S
C1035 C1034 1.287 . S
C1035 C1036 1.524 . S
C1035 H1038 0.999 . S
C1036 H1006 0.950 . S
C1036 C1035 1.524 . S
C1036 C1037 1.415 . S
C1037 H1007 0.950 . S
C1037 C1032 1.363 . S
C1037 C1036 1.415 . S
H1038 C1035 0.999 . S
H1039 C1020 0.913 . S
H1040 C1058 0.951 . S
H1041 C1060 0.951 . S
H1042 C1062 0.950 . S
H1043 C1063 0.950 . S
H1044 C1065 0.950 . S
H1045 C1068 0.950 . S
H1046 C1069 0.950 . S
H1047 C1071 0.950 . S
H1048 C1072 0.950 . S
H1049 C1073 0.951 . S
H1050 C1075 0.951 . S
H1051 C1077 0.950 . S
H1052 C1078 0.950 . S
H1053 C1080 0.950 . S
H1054 C1083 0.950 . S
H1055 C1084 0.950 . S
H1056 C1086 0.950 . S
H1057 C1087 0.950 . S
C1058 H1040 0.951 . S
C1058 C1059 1.366 . S
C1058 C1060 1.388 1_455 S
C1059 C1058 1.366 . S
C1059 C1063 1.385 . S
C1060 H1041 0.951 . S
C1060 C1058 1.388 1_655 S
C1060 C1061 1.366 . S
C1061 C1060 1.366 . S
C1061 C1062 1.414 . S
C1061 C1064 1.499 . S
C1062 H1042 0.950 . S
C1062 C1061 1.414 . S
C1062 C1063 1.374 1_655 S
C1063 H1043 0.950 . S
C1063 C1059 1.385 . S
C1063 C1062 1.374 1_455 S
C1064 C1061 1.499 . S
C1064 C1065 1.373 . S
C1064 C1066 1.389 . S
C1065 H1044 0.950 . S
C1065 C1064 1.373 . S
C1065 C1081 1.377 . S
C1066 C1064 1.389 . S
C1066 C1067 1.524 . S
C1066 C1080 1.377 . S
C1067 C1066 1.524 . S
C1067 C1068 1.397 . S
C1067 C1072 1.363 . S
C1068 H1045 0.950 . S
C1068 C1067 1.397 . S
C1068 C1069 1.334 . S
C1069 H1046 0.950 . S
C1069 C1068 1.334 . S
C1069 C1070 1.287 . S
C1070 C1069 1.287 . S
C1070 C1071 1.524 . S
C1070 H1089 0.913 . S
C1071 H1047 0.950 . S
C1071 C1070 1.524 . S
C1071 C1072 1.415 . S
C1072 H1048 0.950 . S
C1072 C1067 1.363 . S
C1072 C1071 1.415 . S
C1073 H1049 0.951 . S
C1073 C1074 1.366 . S
C1073 C1075 1.388 . S
C1074 C1073 1.366 . S
C1074 C1078 1.385 . S
C1075 H1050 0.951 . S
C1075 C1073 1.388 . S
C1075 C1076 1.366 . S
C1076 C1075 1.366 . S
C1076 C1077 1.414 . S
C1076 C1079 1.499 . S
C1077 H1051 0.950 . S
C1077 C1076 1.414 . S
C1077 C1078 1.374 . S
C1078 H1052 0.950 . S
C1078 C1074 1.385 . S
C1078 C1077 1.374 . S
C1079 C1076 1.499 . S
C1079 C1080 1.373 . S
C1079 C1081 1.389 . S
C1080 H1053 0.950 . S
C1080 C1066 1.377 . S
C1080 C1079 1.373 . S
C1081 C1065 1.377 . S
C1081 C1079 1.389 . S
C1081 C1082 1.524 . S
C1082 C1081 1.524 . S
C1082 C1083 1.397 . S
C1082 C1087 1.363 . S
C1083 H1054 0.950 . S
C1083 C1082 1.397 . S
C1083 C1084 1.334 . S
C1084 H1055 0.950 . S
C1084 C1083 1.334 . S
C1084 C1085 1.287 . S
C1085 C1084 1.287 . S
C1085 C1086 1.524 . S
C1085 H1088 0.999 . S
C1086 H1056 0.950 . S
C1086 C1085 1.524 . S
C1086 C1087 1.415 . S
C1087 H1057 0.950 . S
C1087 C1082 1.363 . S
C1087 C1086 1.415 . S
H1088 C1085 0.999 . S
H1089 C1070 0.913 . S
H1090 C1108 0.974 . S
H1091 C1110 0.951 . S
H1092 C1112 0.950 . S
H1093 C1113 0.950 . S
H1094 C1115 0.950 . S
H1095 C1118 0.947 1_455 S
H1096 C1119 0.950 1_455 S
H1097 C1121 0.950 . S
H1098 C1122 0.950 . S
H1099 C1123 0.951 . S
H1100 C1125 0.951 . S
H1101 C1127 0.950 . S
H1102 C1128 0.950 . S
H1103 C1130 0.950 . S
H1104 C1133 0.950 . S
H1105 C1134 0.950 . S
H1106 C1136 0.950 . S
H1107 C1137 0.950 . S
C1108 H1090 0.974 . S
C1108 C1109 1.340 1_655 S
C1108 C1110 1.391 . S
C1109 C1108 1.340 1_455 S
C1109 C1113 1.385 . S
C1110 H1091 0.951 . S
C1110 C1108 1.391 . S
C1110 C1111 1.366 . S
C1111 C1110 1.366 . S
C1111 C1112 1.414 1_655 S
C1111 C1114 1.499 . S
C1112 H1092 0.950 . S
C1112 C1111 1.414 1_455 S
C1112 C1113 1.374 . S
C1113 H1093 0.950 . S
C1113 C1109 1.385 . S
C1113 C1112 1.374 . S
C1114 C1111 1.499 . S
C1114 C1115 1.373 . S
C1114 C1116 1.389 . S
C1115 H1094 0.950 . S
C1115 C1114 1.373 . S
C1115 C1131 1.377 . S
C1116 C1114 1.389 . S
C1116 C1117 1.524 . S
C1116 C1130 1.377 . S
C1117 C1116 1.524 . S
C1117 C1118 1.397 . S
C1117 C1122 1.363 . S
C1118 H1095 0.947 1_655 S
C1118 C1117 1.397 . S
C1118 C1119 1.334 . S
C1119 H1096 0.950 1_655 S
C1119 C1118 1.334 . S
C1119 C1120 1.287 . S
C1120 C1119 1.287 . S
C1120 C1121 1.524 . S
C1120 H1139 0.913 . S
C1121 H1097 0.950 . S
C1121 C1120 1.524 . S
C1121 C1122 1.415 . S
C1122 H1098 0.950 . S
C1122 C1117 1.363 . S
C1122 C1121 1.415 . S
C1123 H1099 0.951 . S
C1123 C1124 1.366 . S
C1123 C1125 1.388 1_565 S
C1124 C1123 1.366 . S
C1124 C1128 1.385 . S
C1125 H1100 0.951 . S
C1125 C1123 1.388 1_545 S
C1125 C1126 1.366 . S
C1126 C1125 1.366 . S
C1126 C1127 1.414 . S
C1126 C1129 1.499 . S
C1127 H1101 0.950 . S
C1127 C1126 1.414 . S
C1127 C1128 1.374 1_545 S
C1128 H1102 0.950 . S
C1128 C1124 1.385 . S
C1128 C1127 1.374 1_565 S
C1129 C1126 1.499 . S
C1129 C1130 1.373 . S
C1129 C1131 1.389 . S
C1130 H1103 0.950 . S
C1130 C1116 1.377 . S
C1130 C1129 1.373 . S
C1131 C1115 1.377 . S
C1131 C1129 1.389 . S
C1131 C1132 1.524 . S
C1132 C1131 1.524 . S
C1132 C1133 1.397 . S
C1132 C1137 1.363 . S
C1133 H1104 0.950 . S
C1133 C1132 1.397 . S
C1133 C1134 1.334 . S
C1134 H1105 0.950 . S
C1134 C1133 1.334 . S
C1134 C1135 1.287 . S
C1135 C1134 1.287 . S
C1135 C1136 1.524 . S
C1135 H1138 0.999 . S
C1136 H1106 0.950 . S
C1136 C1135 1.524 . S
C1136 C1137 1.415 . S
C1137 H1107 0.950 . S
C1137 C1132 1.363 . S
C1137 C1136 1.415 . S
H1138 C1135 0.999 . S
H1139 C1120 0.913 . S
C259 C183 2.295 . S
C274 C23 2.295 . S
C309 C202 2.481 . S
C324 C42 2.482 . S
C359 C103 2.295 . S
C374 C143 2.295 . S
C409 C2 2.482 . S
C424 C162 2.481 . S
C459 C223 2.295 . S
C474 C63 2.294 . S
C509 C82 2.481 . S
C524 C122 2.481 . S
C559 C17 1.767 . S
C574 C104 1.773 . S
C609 C57 1.767 . S
C624 C24 1.773 . S
C659 C97 1.767 . S
C674 C64 1.773 . S
C709 C137 1.768 . S
C724 C184 1.774 . S
C759 C177 1.768 . S
C774 C224 1.774 . S
C809 C144 1.773 . S
C824 C217 1.767 . S
C859 C26 0.822 . S
C874 C93 0.821 . S
C909 C66 0.822 . S
C924 C13 0.820 . S
C959 C106 0.822 . S
C974 C53 0.820 . S
C1009 C146 0.821 . S
C1024 C173 0.819 . S
C1059 C186 0.821 . S
C1074 C213 0.820 . S
C1109 C133 0.820 . S
C1124 C226 0.822 . S
