# Generated by pormake.
# Topology umn, (4)-cn, num edge types: 1
# Building blocks:
#     Node 0, Type 0, BuildingBlock: KUFVIS_clean_sbu_0, # of connection points: 4
#     Node 1, Type 0, BuildingBlock: KUFVIS_clean_sbu_0, # of connection points: 4
#     Node 2, Type 0, BuildingBlock: KUFVIS_clean_sbu_0, # of connection points: 4
#     Node 3, Type 0, BuildingBlock: KUFVIS_clean_sbu_0, # of connection points: 4
#     Node 4, Type 0, BuildingBlock: KUFVIS_clean_sbu_0, # of connection points: 4
#     Node 5, Type 0, BuildingBlock: KUFVIS_clean_sbu_0, # of connection points: 4
#     Node 6, Type 0, BuildingBlock: KUFVIS_clean_sbu_0, # of connection points: 4
#     Node 7, Type 0, BuildingBlock: KUFVIS_clean_sbu_0, # of connection points: 4
#     Node 8, Type 0, BuildingBlock: KUFVIS_clean_sbu_0, # of connection points: 4
#     Node 9, Type 0, BuildingBlock: KUFVIS_clean_sbu_0, # of connection points: 4
#     Node 10, Type 0, BuildingBlock: KUFVIS_clean_sbu_0, # of connection points: 4
#     Node 11, Type 0, BuildingBlock: KUFVIS_clean_sbu_0, # of connection points: 4
#     Node 12, Type 0, BuildingBlock: KUFVIS_clean_sbu_0, # of connection points: 4
#     Node 13, Type 0, BuildingBlock: KUFVIS_clean_sbu_0, # of connection points: 4
#     Node 14, Type 0, BuildingBlock: KUFVIS_clean_sbu_0, # of connection points: 4
#     Node 15, Type 0, BuildingBlock: KUFVIS_clean_sbu_0, # of connection points: 4
#     Node 16, Type 0, BuildingBlock: KUFVIS_clean_sbu_0, # of connection points: 4
#     Node 17, Type 0, BuildingBlock: KUFVIS_clean_sbu_0, # of connection points: 4
#     Node 18, Type 0, BuildingBlock: KUFVIS_clean_sbu_0, # of connection points: 4
#     Node 19, Type 0, BuildingBlock: KUFVIS_clean_sbu_0, # of connection points: 4
#     Node 20, Type 0, BuildingBlock: KUFVIS_clean_sbu_0, # of connection points: 4
#     Node 21, Type 0, BuildingBlock: KUFVIS_clean_sbu_0, # of connection points: 4
#     Node 22, Type 0, BuildingBlock: KUFVIS_clean_sbu_0, # of connection points: 4
#     Node 23, Type 0, BuildingBlock: KUFVIS_clean_sbu_0, # of connection points: 4
#     Node 24, Type 0, BuildingBlock: KUFVIS_clean_sbu_0, # of connection points: 4
#     Node 25, Type 0, BuildingBlock: KUFVIS_clean_sbu_0, # of connection points: 4
#     Node 26, Type 0, BuildingBlock: KUFVIS_clean_sbu_0, # of connection points: 4
#     Node 27, Type 0, BuildingBlock: KUFVIS_clean_sbu_0, # of connection points: 4
#     Node 28, Type 0, BuildingBlock: KUFVIS_clean_sbu_0, # of connection points: 4
#     Node 29, Type 0, BuildingBlock: KUFVIS_clean_sbu_0, # of connection points: 4
#     Node 30, Type 0, BuildingBlock: KUFVIS_clean_sbu_0, # of connection points: 4
#     Node 31, Type 0, BuildingBlock: KUFVIS_clean_sbu_0, # of connection points: 4
#     Node 32, Type 0, BuildingBlock: KUFVIS_clean_sbu_0, # of connection points: 4
#     Node 33, Type 0, BuildingBlock: KUFVIS_clean_sbu_0, # of connection points: 4
#     Node 34, Type 0, BuildingBlock: KUFVIS_clean_sbu_0, # of connection points: 4
#     Node 35, Type 0, BuildingBlock: KUFVIS_clean_sbu_0, # of connection points: 4
#     Edge 36, Type (0, 0), BuildingBlock: OJICUG_clean_linker_0, # of connection points: 2
#     Edge 37, Type (0, 0), BuildingBlock: OJICUG_clean_linker_0, # of connection points: 2
#     Edge 38, Type (0, 0), BuildingBlock: OJICUG_clean_linker_0, # of connection points: 2
#     Edge 39, Type (0, 0), BuildingBlock: OJICUG_clean_linker_0, # of connection points: 2
#     Edge 40, Type (0, 0), BuildingBlock: OJICUG_clean_linker_0, # of connection points: 2
#     Edge 41, Type (0, 0), BuildingBlock: OJICUG_clean_linker_0, # of connection points: 2
#     Edge 42, Type (0, 0), BuildingBlock: OJICUG_clean_linker_0, # of connection points: 2
#     Edge 43, Type (0, 0), BuildingBlock: OJICUG_clean_linker_0, # of connection points: 2
#     Edge 44, Type (0, 0), BuildingBlock: OJICUG_clean_linker_0, # of connection points: 2
#     Edge 45, Type (0, 0), BuildingBlock: OJICUG_clean_linker_0, # of connection points: 2
#     Edge 46, Type (0, 0), BuildingBlock: OJICUG_clean_linker_0, # of connection points: 2
#     Edge 47, Type (0, 0), BuildingBlock: OJICUG_clean_linker_0, # of connection points: 2
#     Edge 48, Type (0, 0), BuildingBlock: OJICUG_clean_linker_0, # of connection points: 2
#     Edge 49, Type (0, 0), BuildingBlock: OJICUG_clean_linker_0, # of connection points: 2
#     Edge 50, Type (0, 0), BuildingBlock: OJICUG_clean_linker_0, # of connection points: 2
#     Edge 51, Type (0, 0), BuildingBlock: OJICUG_clean_linker_0, # of connection points: 2
#     Edge 52, Type (0, 0), BuildingBlock: OJICUG_clean_linker_0, # of connection points: 2
#     Edge 53, Type (0, 0), BuildingBlock: OJICUG_clean_linker_0, # of connection points: 2
#     Edge 54, Type (0, 0), BuildingBlock: OJICUG_clean_linker_0, # of connection points: 2
#     Edge 55, Type (0, 0), BuildingBlock: OJICUG_clean_linker_0, # of connection points: 2
#     Edge 56, Type (0, 0), BuildingBlock: OJICUG_clean_linker_0, # of connection points: 2
#     Edge 57, Type (0, 0), BuildingBlock: OJICUG_clean_linker_0, # of connection points: 2
#     Edge 58, Type (0, 0), BuildingBlock: OJICUG_clean_linker_0, # of connection points: 2
#     Edge 59, Type (0, 0), BuildingBlock: OJICUG_clean_linker_0, # of connection points: 2
#     Edge 60, Type (0, 0), BuildingBlock: OJICUG_clean_linker_0, # of connection points: 2
#     Edge 61, Type (0, 0), BuildingBlock: OJICUG_clean_linker_0, # of connection points: 2
#     Edge 62, Type (0, 0), BuildingBlock: OJICUG_clean_linker_0, # of connection points: 2
#     Edge 63, Type (0, 0), BuildingBlock: OJICUG_clean_linker_0, # of connection points: 2
#     Edge 64, Type (0, 0), BuildingBlock: OJICUG_clean_linker_0, # of connection points: 2
#     Edge 65, Type (0, 0), BuildingBlock: OJICUG_clean_linker_0, # of connection points: 2
#     Edge 66, Type (0, 0), BuildingBlock: OJICUG_clean_linker_0, # of connection points: 2
#     Edge 67, Type (0, 0), BuildingBlock: OJICUG_clean_linker_0, # of connection points: 2
#     Edge 68, Type (0, 0), BuildingBlock: OJICUG_clean_linker_0, # of connection points: 2
#     Edge 69, Type (0, 0), BuildingBlock: OJICUG_clean_linker_0, # of connection points: 2
#     Edge 70, Type (0, 0), BuildingBlock: OJICUG_clean_linker_0, # of connection points: 2
#     Edge 71, Type (0, 0), BuildingBlock: OJICUG_clean_linker_0, # of connection points: 2
#     Edge 72, Type (0, 0), BuildingBlock: OJICUG_clean_linker_0, # of connection points: 2
#     Edge 73, Type (0, 0), BuildingBlock: OJICUG_clean_linker_0, # of connection points: 2
#     Edge 74, Type (0, 0), BuildingBlock: OJICUG_clean_linker_0, # of connection points: 2
#     Edge 75, Type (0, 0), BuildingBlock: OJICUG_clean_linker_0, # of connection points: 2
#     Edge 76, Type (0, 0), BuildingBlock: OJICUG_clean_linker_0, # of connection points: 2
#     Edge 77, Type (0, 0), BuildingBlock: OJICUG_clean_linker_0, # of connection points: 2
#     Edge 78, Type (0, 0), BuildingBlock: OJICUG_clean_linker_0, # of connection points: 2
#     Edge 79, Type (0, 0), BuildingBlock: OJICUG_clean_linker_0, # of connection points: 2
#     Edge 80, Type (0, 0), BuildingBlock: OJICUG_clean_linker_0, # of connection points: 2
#     Edge 81, Type (0, 0), BuildingBlock: OJICUG_clean_linker_0, # of connection points: 2
#     Edge 82, Type (0, 0), BuildingBlock: OJICUG_clean_linker_0, # of connection points: 2
#     Edge 83, Type (0, 0), BuildingBlock: OJICUG_clean_linker_0, # of connection points: 2
#     Edge 84, Type (0, 0), BuildingBlock: OJICUG_clean_linker_0, # of connection points: 2
#     Edge 85, Type (0, 0), BuildingBlock: OJICUG_clean_linker_0, # of connection points: 2
#     Edge 86, Type (0, 0), BuildingBlock: OJICUG_clean_linker_0, # of connection points: 2
#     Edge 87, Type (0, 0), BuildingBlock: OJICUG_clean_linker_0, # of connection points: 2
#     Edge 88, Type (0, 0), BuildingBlock: OJICUG_clean_linker_0, # of connection points: 2
#     Edge 89, Type (0, 0), BuildingBlock: OJICUG_clean_linker_0, # of connection points: 2
#     Edge 90, Type (0, 0), BuildingBlock: OJICUG_clean_linker_0, # of connection points: 2
#     Edge 91, Type (0, 0), BuildingBlock: OJICUG_clean_linker_0, # of connection points: 2
#     Edge 92, Type (0, 0), BuildingBlock: OJICUG_clean_linker_0, # of connection points: 2
#     Edge 93, Type (0, 0), BuildingBlock: OJICUG_clean_linker_0, # of connection points: 2
#     Edge 94, Type (0, 0), BuildingBlock: OJICUG_clean_linker_0, # of connection points: 2
#     Edge 95, Type (0, 0), BuildingBlock: OJICUG_clean_linker_0, # of connection points: 2
#     Edge 96, Type (0, 0), BuildingBlock: OJICUG_clean_linker_0, # of connection points: 2
#     Edge 97, Type (0, 0), BuildingBlock: OJICUG_clean_linker_0, # of connection points: 2
#     Edge 98, Type (0, 0), BuildingBlock: OJICUG_clean_linker_0, # of connection points: 2
#     Edge 99, Type (0, 0), BuildingBlock: OJICUG_clean_linker_0, # of connection points: 2
#     Edge 100, Type (0, 0), BuildingBlock: OJICUG_clean_linker_0, # of connection points: 2
#     Edge 101, Type (0, 0), BuildingBlock: OJICUG_clean_linker_0, # of connection points: 2
#     Edge 102, Type (0, 0), BuildingBlock: OJICUG_clean_linker_0, # of connection points: 2
#     Edge 103, Type (0, 0), BuildingBlock: OJICUG_clean_linker_0, # of connection points: 2
#     Edge 104, Type (0, 0), BuildingBlock: OJICUG_clean_linker_0, # of connection points: 2
#     Edge 105, Type (0, 0), BuildingBlock: OJICUG_clean_linker_0, # of connection points: 2
#     Edge 106, Type (0, 0), BuildingBlock: OJICUG_clean_linker_0, # of connection points: 2
#     Edge 107, Type (0, 0), BuildingBlock: OJICUG_clean_linker_0, # of connection points: 2
# Relax obj value: 0.176
# Max RMSD: 0.242
# Mean RMSD: 0.242
data_MOF--net-umn--node1-KUFVIS_clean_sbu_0--edge1-OJICUG_clean_linker_0
_symmetry_space_group_name_H-M    P1
_symmetry_Int_Tables_number       1
_symmetry_cell_setting            triclinic
loop_
_symmetry_equiv_pos_as_xyz
'x, y, z'
_cell_length_a     58.178521
_cell_length_b     58.146093
_cell_length_c     28.636175
_cell_angle_alpha  90.003922
_cell_angle_beta   89.969447
_cell_angle_gamma 120.08179
loop_
_atom_site_label
_atom_site_type_symbol
_atom_site_fract_x
_atom_site_fract_y
_atom_site_fract_z
_atom_type_partial_charge
Mn0 Mn 0.35326 0.09034 0.24454 0.0
Mn1 Mn 0.28932 0.06483 0.28498 0.0
C2 C 0.32737 0.04515 0.26352 0.0
C3 C 0.37842 0.09125 0.17426 0.0
C4 C 0.33834 0.09998 0.33243 0.0
O5 O 0.34099 0.11612 0.22145 0.0
O6 O 0.29626 0.09177 0.23755 0.0
C7 C 0.24061 0.04955 0.23341 0.0
N8 N 0.25355 0.04282 0.26541 0.0
C9 C 0.21268 0.01429 0.30591 0.0
C10 C 0.19923 0.02191 0.27452 0.0
C11 C 0.21313 0.03913 0.23753 0.0
C12 C 0.24017 0.02573 0.30062 0.0
H13 H 0.25143 0.06413 0.20666 0.0
C14 C 0.31676 0.1113 0.21862 0.0
O15 O 0.38987 0.1064 0.21006 0.0
O16 O 0.35311 0.07788 0.17792 0.0
N17 N 0.28175 0.03813 0.33161 0.0
C18 C 0.29816 0.03537 0.36212 0.0
C19 C 0.28716 0.01633 0.39791 0.0
C20 C 0.25946 0.00113 0.40303 0.0
C21 C 0.24302 0.00444 0.37128 0.0
C22 C 0.25511 0.02239 0.3345 0.0
H23 H 0.3194 0.04782 0.35927 0.0
O24 O 0.35311 0.05787 0.26597 0.0
O25 O 0.31594 0.05863 0.25203 0.0
O26 O 0.36134 0.10756 0.31665 0.0
O27 O 0.32302 0.08615 0.30241 0.0
C28 C 0.21518 0.99141 0.37564 0.0
C29 C 0.20013 -0.00294 0.34391 0.0
H30 H 0.17819 0.01469 0.27857 0.0
H31 H 0.20283 0.045 0.21308 0.0
H32 H 0.29992 0.01383 0.42231 0.0
H33 H 0.25105 0.9872 0.43173 0.0
H34 H 0.20524 0.9778 0.40427 0.0
H35 H 0.17891 0.98808 0.34911 0.0
Mn36 Mn 0.89125 0.26016 0.23193 0.0
Mn37 Mn 0.90033 0.20937 0.27122 0.0
C38 C 0.93202 0.26725 0.25348 0.0
C39 C 0.8921 0.28688 0.16519 0.0
C40 C 0.88451 0.23982 0.3349 0.0
O41 O 0.85656 0.22724 0.21247 0.0
O42 O 0.86591 0.19787 0.24504 0.0
C43 C 0.89821 0.18716 0.17745 0.0
N44 N 0.90985 0.19499 0.22006 0.0
C45 C 0.93062 0.16855 0.21271 0.0
C46 C 0.91864 0.1598 0.16885 0.0
C47 C 0.9029 0.16973 0.15057 0.0
C48 C 0.92703 0.18768 0.23588 0.0
H49 H 0.88524 0.19392 0.16467 0.0
C50 C 0.85046 0.20359 0.22362 0.0
O51 O 0.88059 0.28665 0.20434 0.0
O52 O 0.90122 0.27077 0.16438 0.0
N53 N 0.93261 0.21502 0.29945 0.0
C54 C 0.94092 0.22334 0.34394 0.0
C55 C 0.9578 0.21625 0.36667 0.0
C56 C 0.96366 0.19807 0.34557 0.0
C57 C 0.95322 0.18792 0.30138 0.0
C58 C 0.93883 0.19796 0.27839 0.0
H59 H 0.93395 0.23454 0.36266 0.0
O60 O 0.92738 0.28679 0.25033 0.0
O61 O 0.91363 0.24394 0.24054 0.0
O62 O 0.88138 0.25458 0.30444 0.0
O63 O 0.89118 0.22275 0.3249 0.0
C64 C 0.95484 0.16679 0.28077 0.0
C65 C 0.94443 0.15777 0.23574 0.0
H66 H 0.92109 0.14523 0.14927 0.0
H67 H 0.89355 0.16312 0.11678 0.0
H68 H 0.96482 0.2234 0.40162 0.0
H69 H 0.97529 0.19125 0.36437 0.0
H70 H 0.96452 0.15763 0.29895 0.0
H71 H 0.94657 0.14208 0.2197 0.0
Mn72 Mn 0.71912 0.62948 0.23437 0.0
Mn73 Mn 0.76676 0.69165 0.26965 0.0
C74 C 0.70851 0.66011 0.2603 0.0
C75 C 0.69315 0.60434 0.16674 0.0
C76 C 0.74489 0.6439 0.33244 0.0
O77 O 0.75302 0.6315 0.21078 0.0
O78 O 0.78063 0.67321 0.23484 0.0
C79 C 0.78556 0.71721 0.17813 0.0
N80 N 0.77613 0.71733 0.22158 0.0
C81 C 0.79984 0.76494 0.224 0.0
C82 C 0.80977 0.76549 0.17913 0.0
C83 C 0.80198 0.74149 0.15554 0.0
C84 C 0.78154 0.74024 0.24278 0.0
H85 H 0.78151 0.69878 0.16189 0.0
C86 C 0.77595 0.65221 0.21378 0.0
O87 O 0.69439 0.59234 0.20427 0.0
O88 O 0.70751 0.62974 0.16854 0.0
N89 N 0.75714 0.71344 0.30499 0.0
C90 C 0.74782 0.70971 0.34954 0.0
C91 C 0.75159 0.7315 0.37643 0.0
C92 C 0.76737 0.75731 0.3589 0.0
C93 C 0.77827 0.76082 0.31404 0.0
C94 C 0.77119 0.73817 0.28696 0.0
H95 H 0.73769 0.69024 0.36426 0.0
O96 O 0.69054 0.63521 0.25769 0.0
O97 O 0.73179 0.66713 0.24432 0.0
O98 O 0.72805 0.62555 0.30473 0.0
O99 O 0.75959 0.66799 0.32096 0.0
C100 C 0.79777 0.7857 0.29686 0.0
C101 C 0.80887 0.78769 0.25219 0.0
H102 H 0.82375 0.78418 0.16286 0.0
H103 H 0.80982 0.74171 0.12118 0.0
H104 H 0.74366 0.72848 0.41152 0.0
H105 H 0.77182 0.77424 0.38079 0.0
H106 H 0.80484 0.80337 0.31816 0.0
H107 H 0.8243 0.80688 0.23978 0.0
Mn108 Mn 0.08122 0.35676 0.28288 0.0
Mn109 Mn 0.07052 0.29472 0.25469 0.0
C110 C 0.03984 0.32234 0.2677 0.0
C111 C 0.08321 0.38521 0.34749 0.0
C112 C 0.08712 0.33803 0.18386 0.0
O113 O 0.11669 0.35988 0.29902 0.0
O114 O 0.10513 0.31781 0.28044 0.0
C115 C 0.07255 0.2762 0.34941 0.0
N116 N 0.05976 0.27221 0.30788 0.0
C117 C 0.03646 0.22493 0.31844 0.0
C118 C 0.04893 0.22843 0.36184 0.0
C119 C 0.06667 0.25425 0.37784 0.0
C120 C 0.04125 0.24765 0.29369 0.0
H121 H 0.08775 0.29589 0.35984 0.0
C122 C 0.12163 0.34099 0.29453 0.0
O123 O 0.09235 0.39485 0.30617 0.0
O124 O 0.07441 0.36013 0.3511 0.0
N125 N 0.03769 0.26873 0.22729 0.0
C126 C 0.02939 0.26838 0.18263 0.0
C127 C 0.01111 0.24425 0.16164 0.0
C128 C 0.00371 0.22032 0.18482 0.0
C129 C 0.01395 0.22098 0.2294 0.0
C130 C 0.02973 0.24575 0.25065 0.0
H131 H 0.03712 0.28635 0.16278 0.0
O132 O 0.04443 0.34655 0.26799 0.0
O133 O 0.05861 0.31808 0.28055 0.0
O134 O 0.08869 0.35714 0.20971 0.0
O135 O 0.08115 0.31529 0.19891 0.0
C136 C 0.01098 0.19815 0.25185 0.0
C137 C 0.02135 0.19995 0.29702 0.0
H138 H 0.04564 0.21144 0.3825 0.0
H139 H 0.07679 0.25711 0.41085 0.0
H140 H 0.00408 0.24405 0.12657 0.0
H141 H -0.00902 0.2016 0.16742 0.0
H142 H 0.00078 0.17903 0.23454 0.0
H143 H 0.01838 0.18207 0.31424 0.0
Mn144 Mn 0.62218 0.72332 0.28298 0.0
Mn145 Mn 0.68191 0.77283 0.24061 0.0
C146 C 0.65508 0.71529 0.26223 0.0
C147 C 0.59743 0.69853 0.35187 0.0
C148 C 0.63468 0.74128 0.17917 0.0
O149 O 0.62117 0.75662 0.30031 0.0
O150 O 0.65985 0.78569 0.26653 0.0
C151 C 0.70445 0.7987 0.33118 0.0
N152 N 0.70696 0.78856 0.28995 0.0
C153 C 0.75442 0.81545 0.2923 0.0
C154 C 0.7525 0.82622 0.33494 0.0
C155 C 0.72739 0.81728 0.3551 0.0
C156 C 0.73103 0.79516 0.27251 0.0
H157 H 0.68511 0.7931 0.34493 0.0
C158 C 0.6389 0.78011 0.28883 0.0
O159 O 0.5854 0.69771 0.31302 0.0
O160 O 0.62267 0.71458 0.35098 0.0
N161 N 0.70749 0.76552 0.21264 0.0
C162 C 0.70618 0.75498 0.16957 0.0
C163 C 0.7295 0.76078 0.14561 0.0
C164 C 0.75415 0.77981 0.16373 0.0
C165 C 0.75513 0.792 0.20643 0.0
C166 C 0.73135 0.78315 0.23118 0.0
H167 H 0.68747 0.74291 0.15295 0.0
O168 O 0.63076 0.69606 0.26622 0.0
O169 O 0.66061 0.73901 0.27371 0.0
O170 O 0.61695 0.7273 0.21039 0.0
O171 O 0.65855 0.75838 0.18824 0.0
C172 C 0.77843 0.81406 0.2235 0.0
C173 C 0.77826 0.82536 0.26697 0.0
H174 H 0.77009 0.8417 0.352 0.0
H175 H 0.72566 0.82563 0.38779 0.0
H176 H 0.72836 0.75193 0.11181 0.0
H177 H 0.77206 0.78564 0.14374 0.0
H178 H 0.79669 0.82241 0.20354 0.0
H179 H 0.79651 0.84192 0.28022 0.0
Mn180 Mn 0.24487 0.88909 0.27796 0.0
Mn181 Mn 0.20866 0.91546 0.23235 0.0
C182 C 0.26624 0.93314 0.2522 0.0
C183 C 0.27033 0.89161 0.34968 0.0
C184 C 0.21981 0.87712 0.18961 0.0
O185 O 0.2071 0.8663 0.30529 0.0
O186 O 0.18775 0.89041 0.28183 0.0
C187 C 0.17855 0.93527 0.2822 0.0
N188 N 0.19768 0.93998 0.24999 0.0
C189 C 0.18828 0.97016 0.20797 0.0
C190 C 0.16773 0.96464 0.23956 0.0
C191 C 0.16313 0.94746 0.27725 0.0
C192 C 0.20233 0.95665 0.21369 0.0
H193 H 0.17389 0.92097 0.30984 0.0
C194 C 0.18808 0.87179 0.30532 0.0
O195 O 0.2655 0.87429 0.31714 0.0
O196 O 0.25853 0.90481 0.34255 0.0
N197 N 0.22851 0.94034 0.18343 0.0
C198 C 0.2471 0.94127 0.15328 0.0
C199 C 0.25642 0.95996 0.1168 0.0
C200 C 0.24589 0.97684 0.11077 0.0
C201 C 0.22684 0.97555 0.14228 0.0
C202 C 0.21958 0.9577 0.17958 0.0
H203 H 0.25454 0.92771 0.15689 0.0
O204 O 0.2775 0.91875 0.25181 0.0
O205 O 0.24155 0.92196 0.2658 0.0
O206 O 0.23437 0.86914 0.20792 0.0
O207 O 0.21837 0.89175 0.21781 0.0
C208 C 0.21426 0.99076 0.13756 0.0
C209 C 0.19434 0.98738 0.16951 0.0
H210 H 0.15533 0.97348 0.2352 0.0
H211 H 0.14734 0.94316 0.30184 0.0
H212 H 0.27124 0.96099 0.09275 0.0
H213 H 0.25249 0.99063 0.08172 0.0
H214 H 0.2191 0.00443 0.10862 0.0
H215 H 0.18381 -0.00186 0.16421 0.0
Mn216 Mn 0.62906 0.90538 0.79157 0.0
Mn217 Mn 0.68693 0.91206 0.74442 0.0
C218 C 0.66308 0.94568 0.76924 0.0
C219 C 0.60313 0.90455 0.85742 0.0
C220 C 0.63837 0.89768 0.68748 0.0
O221 O 0.62599 0.86964 0.80692 0.0
O222 O 0.66468 0.87839 0.77419 0.0
C223 C 0.71229 0.91055 0.83299 0.0
N224 N 0.71365 0.92224 0.79111 0.0
C225 C 0.76131 0.94784 0.79484 0.0
C226 C 0.76048 0.93615 0.8381 0.0
C227 C 0.73582 0.91772 0.85759 0.0
C228 C 0.73716 0.94089 0.77312 0.0
H229 H 0.69344 0.89554 0.84698 0.0
C230 C 0.64334 0.8633 0.79574 0.0
O231 O 0.59241 0.89484 0.8171 0.0
O232 O 0.62839 0.91328 0.86021 0.0
N233 N 0.71222 0.94346 0.71195 0.0
C234 C 0.7099 0.95233 0.66912 0.0
C235 C 0.73259 0.97188 0.64598 0.0
C236 C 0.75777 0.98086 0.66555 0.0
C237 C 0.7599 0.97039 0.70833 0.0
C238 C 0.73645 0.95199 0.73099 0.0
H239 H 0.69088 0.94462 0.65287 0.0
O240 O 0.6395 0.94209 0.77639 0.0
O241 O 0.66766 0.92663 0.77965 0.0
O242 O 0.62238 0.89655 0.71974 0.0
O243 O 0.66181 0.90235 0.69451 0.0
C244 C 0.7844 0.97664 0.72843 0.0
C245 C 0.78512 0.96538 0.77166 0.0
H246 H 0.77864 0.94104 0.85646 0.0
H247 H 0.73501 0.90851 0.89084 0.0
H248 H 0.73071 0.97943 0.61251 0.0
H249 H 0.77534 -0.0046 0.64703 0.0
H250 H 0.80283 0.98997 0.71074 0.0
H251 H 0.80413 0.97037 0.78678 0.0
Mn252 Mn 0.08029 0.71663 0.79042 0.0
Mn253 Mn 0.08162 0.77103 0.74868 0.0
C254 C 0.04165 0.7181 0.79478 0.0
C255 C 0.08392 0.6919 0.85517 0.0
C256 C 0.08553 0.73303 0.69061 0.0
O257 O 0.11956 0.74732 0.79205 0.0
O258 O 0.11208 0.78226 0.78832 0.0
C259 C 0.07917 0.80588 0.82113 0.0
N260 N 0.06992 0.79196 0.78071 0.0
C261 C 0.0489 0.81703 0.75874 0.0
C262 C 0.05784 0.83141 0.80054 0.0
C263 C 0.07284 0.82565 0.83204 0.0
C264 C 0.05571 0.79755 0.74993 0.0
H265 H 0.09176 0.80228 0.84415 0.0
C266 C 0.12659 0.77206 0.79744 0.0
O267 O 0.08747 0.68702 0.81226 0.0
O268 O 0.08087 0.71228 0.86024 0.0
N269 N 0.05148 0.76131 0.709 0.0
C270 C 0.03442 0.73825 0.68693 0.0
C271 C 0.01466 0.7374 0.65752 0.0
C272 C 0.0114 0.7597 0.65411 0.0
C273 C 0.02641 0.78161 0.68323 0.0
C274 C 0.04582 0.78115 0.71143 0.0
H275 H 0.03504 0.72037 0.6937 0.0
O276 O 0.04175 0.69578 0.79359 0.0
O277 O 0.06442 0.73976 0.791 0.0
O278 O 0.0767 0.71242 0.71628 0.0
O279 O 0.09754 0.75507 0.71052 0.0
C280 C 0.02124 0.80265 0.68865 0.0
C281 C 0.03289 0.82069 0.72605 0.0
H282 H 0.05301 0.84664 0.80908 0.0
H283 H 0.07992 0.83677 0.86422 0.0
H284 H 0.00143 0.71934 0.63884 0.0
H285 H -0.00423 0.75881 0.6323 0.0
H286 H 0.00721 0.80424 0.66596 0.0
H287 H 0.028 0.83621 0.73103 0.0
Mn288 Mn 0.25897 0.35366 0.78299 0.0
Mn289 Mn 0.20392 0.29583 0.74759 0.0
C290 C 0.26077 0.31599 0.7687 0.0
C291 C 0.2849 0.37909 0.85026 0.0
C292 C 0.23912 0.33898 0.68075 0.0
O293 O 0.22922 0.36163 0.7948 0.0
O294 O 0.19579 0.32222 0.77051 0.0
C295 C 0.17938 0.2792 0.84082 0.0
N296 N 0.18812 0.27363 0.80062 0.0
C297 C 0.16506 0.22696 0.81798 0.0
C298 C 0.15594 0.23213 0.85979 0.0
C299 C 0.1635 0.25843 0.87162 0.0
C300 C 0.18233 0.24864 0.79025 0.0
H301 H 0.18408 0.29924 0.8488 0.0
C302 C 0.20475 0.34557 0.78633 0.0
O303 O 0.28816 0.39006 0.8093 0.0
O304 O 0.26614 0.35468 0.85187 0.0
N305 N 0.20736 0.26705 0.72289 0.0
C306 C 0.21432 0.26468 0.67841 0.0
C307 C 0.20841 0.23978 0.66102 0.0
C308 C 0.19281 0.21696 0.68764 0.0
C309 C 0.18372 0.21945 0.73161 0.0
C310 C 0.19222 0.24507 0.74877 0.0
H311 H 0.22395 0.28161 0.65593 0.0
O312 O 0.28229 0.3389 0.77175 0.0
O313 O 0.23852 0.31482 0.7781 0.0
O314 O 0.25602 0.35649 0.70958 0.0
O315 O 0.21926 0.31692 0.69261 0.0
C316 C 0.16487 0.19745 0.75736 0.0
C317 C 0.15626 0.2011 0.80126 0.0
H318 H 0.1427 0.21601 0.88259 0.0
H319 H 0.15633 0.26258 0.90359 0.0
H320 H 0.21465 0.23807 0.62619 0.0
H321 H 0.187 0.19758 0.67316 0.0
H322 H 0.15634 0.1776 0.74309 0.0
H323 H 0.14203 0.18391 0.82095 0.0
Mn324 Mn 0.90437 0.63735 0.72969 0.0
Mn325 Mn 0.91022 0.69536 0.77399 0.0
C326 C 0.94462 0.67177 0.75056 0.0
C327 C 0.90342 0.61268 0.66086 0.0
C328 C 0.89764 0.64826 0.83411 0.0
O329 O 0.86794 0.63254 0.71764 0.0
O330 O 0.8759 0.67165 0.74695 0.0
C331 C 0.9064 0.7176 0.68344 0.0
N332 N 0.9192 0.72048 0.72468 0.0
C333 C 0.94599 0.76772 0.71383 0.0
C334 C 0.93321 0.7653 0.67111 0.0
C335 C 0.91355 0.74008 0.65559 0.0
C336 C 0.93884 0.74449 0.73905 0.0
H337 H 0.89058 0.69837 0.67236 0.0
C338 C 0.86082 0.64934 0.72805 0.0
O339 O 0.89427 0.60092 0.70084 0.0
O340 O 0.91137 0.63777 0.66085 0.0
N341 N 0.94212 0.72194 0.80349 0.0
C342 C 0.9515 0.72137 0.84683 0.0
C343 C 0.97191 0.74478 0.86675 0.0
C344 C 0.98129 0.76904 0.84334 0.0
C345 C 0.97021 0.76953 0.80018 0.0
C346 C 0.95081 0.74532 0.78102 0.0
H347 H 0.94354 0.70321 0.86594 0.0
O348 O 0.94135 0.64844 0.74198 0.0
O349 O 0.92526 0.67604 0.74083 0.0
O350 O 0.8969 0.63179 0.80275 0.0
O351 O 0.9017 0.67142 0.82564 0.0
C352 C 0.97688 0.79322 0.77636 0.0
C353 C 0.96491 0.79233 0.73308 0.0
H354 H 0.93816 0.78269 0.65017 0.0
H355 H 0.90347 0.73807 0.6228 0.0
H356 H 0.97984 0.74421 0.90063 0.0
H357 H -0.00343 0.78722 0.85928 0.0
H358 H -0.00884 0.81226 0.79114 0.0
H359 H 0.97037 0.81072 0.71494 0.0
Mn360 Mn 0.35363 0.26405 0.73923 0.0
Mn361 Mn 0.29593 0.2089 0.77582 0.0
C362 C 0.31578 0.26556 0.75374 0.0
C363 C 0.3797 0.29124 0.67349 0.0
C364 C 0.33929 0.24456 0.84186 0.0
O365 O 0.36135 0.23396 0.72674 0.0
O366 O 0.32229 0.2008 0.75297 0.0
C367 C 0.279 0.18377 0.68307 0.0
N368 N 0.27353 0.19265 0.7232 0.0
C369 C 0.22677 0.169 0.70674 0.0
C370 C 0.23184 0.15972 0.66502 0.0
C371 C 0.25814 0.16751 0.65276 0.0
C372 C 0.24853 0.18666 0.73392 0.0
H373 H 0.29904 0.18864 0.67477 0.0
C374 C 0.34539 0.20951 0.73628 0.0
O375 O 0.39025 0.29347 0.71453 0.0
O376 O 0.3553 0.27246 0.67048 0.0
N377 N 0.26711 0.2122 0.80073 0.0
C378 C 0.26485 0.21919 0.84527 0.0
C379 C 0.23997 0.21304 0.86307 0.0
C380 C 0.21708 0.19715 0.83687 0.0
C381 C 0.21947 0.18796 0.79294 0.0
C382 C 0.24505 0.19671 0.77529 0.0
H383 H 0.28189 0.22907 0.86748 0.0
O384 O 0.33862 0.28719 0.75098 0.0
O385 O 0.31475 0.24338 0.74433 0.0
O386 O 0.35664 0.26113 0.81252 0.0
O387 O 0.31716 0.22464 0.83055 0.0
C388 C 0.19745 0.16872 0.76779 0.0
C389 C 0.20098 0.15995 0.72397 0.0
H390 H 0.21567 0.14617 0.64266 0.0
H391 H 0.26221 0.16021 0.62086 0.0
H392 H 0.23835 0.21933 0.8979 0.0
H393 H 0.19774 0.19117 0.85167 0.0
H394 H 0.17772 0.1599 0.78261 0.0
H395 H 0.18376 0.14538 0.70478 0.0
Mn396 Mn 0.71951 0.08286 0.73526 0.0
Mn397 Mn 0.77427 0.08218 0.76557 0.0
C398 C 0.71864 0.04311 0.72984 0.0
C399 C 0.69276 0.08707 0.67646 0.0
C400 C 0.74165 0.09033 0.83042 0.0
O401 O 0.75084 0.12142 0.73014 0.0
O402 O 0.78373 0.1111 0.72326 0.0
C403 C 0.80299 0.0755 0.68677 0.0
N404 N 0.79144 0.06776 0.72952 0.0
C405 C 0.81668 0.04635 0.74718 0.0
C406 C 0.82855 0.05366 0.70294 0.0
C407 C 0.82148 0.06808 0.67245 0.0
C408 C 0.7982 0.054 0.75918 0.0
H409 H 0.79864 0.08786 0.66451 0.0
C410 C 0.77447 0.1268 0.71873 0.0
O411 O 0.69003 0.09089 0.72039 0.0
O412 O 0.71226 0.08323 0.66672 0.0
N413 N 0.7659 0.05317 0.80747 0.0
C414 C 0.74438 0.03774 0.83469 0.0
C415 C 0.74477 0.01871 0.86444 0.0
C416 C 0.76654 0.01451 0.86335 0.0
C417 C 0.78641 0.02773 0.82964 0.0
C418 C 0.78462 0.04624 0.80098 0.0
H419 H 0.72656 0.03894 0.83176 0.0
O420 O 0.69705 0.04431 0.73479 0.0
O421 O 0.74084 0.06538 0.72982 0.0
O422 O 0.71963 0.08103 0.80895 0.0
O423 O 0.76237 0.10085 0.8065 0.0
C424 C 0.80656 0.02166 0.82057 0.0
C425 C 0.82205 0.03138 0.7796 0.0
H426 H 0.84293 0.04813 0.6919 0.0
H427 H 0.83075 0.07399 0.63844 0.0
H428 H 0.72803 0.0068 0.88707 0.0
H429 H 0.76663 -0.00048 0.88568 0.0
H430 H 0.80926 0.00832 0.84332 0.0
H431 H 0.8368 0.02574 0.77193 0.0
Mn432 Mn 0.02289 0.42416 0.57079 0.0
Mn433 Mn 0.96165 0.40936 0.60027 0.0
C434 C -0.00553 0.38213 0.59423 0.0
C435 C 0.05075 0.42658 0.50495 0.0
C436 C 0.00617 0.44044 0.65867 0.0
O437 O 0.01693 0.45398 0.54732 0.0
O438 O 0.9719 0.43153 0.54435 0.0
C439 C 0.91903 0.38569 0.53204 0.0
N440 N 0.92902 0.38321 0.57354 0.0
C441 C 0.885 0.35858 0.60652 0.0
C442 C 0.87455 0.36211 0.56487 0.0
C443 C 0.89153 0.375 0.52702 0.0
C444 C 0.91256 0.37012 0.60976 0.0
H445 H 0.93211 0.39737 0.50399 0.0
C446 C -0.00538 0.45168 0.53491 0.0
O447 O 0.0609 0.43958 0.54358 0.0
O448 O 0.02529 0.41384 0.50409 0.0
N449 N 0.9508 0.38584 0.65413 0.0
C450 C 0.96444 0.38101 0.68805 0.0
C451 C 0.95047 0.36341 0.72473 0.0
C452 C 0.92265 0.3508 0.72615 0.0
C453 C 0.90909 0.35412 0.6887 0.0
C454 C 0.9242 0.37036 0.65166 0.0
H455 H 0.9858 0.39042 0.68732 0.0
O456 O 0.01982 0.39089 0.59272 0.0
O457 O 0.98583 0.39725 0.57793 0.0
O458 O 0.02422 0.4356 0.64359 0.0
O459 O -0.0093 0.44044 0.62905 0.0
C460 C 0.88125 0.34176 0.68604 0.0
C461 C 0.86929 0.34516 0.64576 0.0
H462 H 0.85347 0.35481 0.56138 0.0
H463 H 0.88352 0.37761 0.49465 0.0
H464 H 0.96113 0.3599 0.75211 0.0
H465 H 0.9119 0.33791 0.75517 0.0
H466 H 0.86891 0.32993 0.71486 0.0
H467 H 0.84796 0.33674 0.6448 0.0
Mn468 Mn 0.55572 0.60198 0.5888 0.0
Mn469 Mn 0.57813 0.56071 0.62181 0.0
C470 C 0.60014 0.61861 0.61036 0.0
C471 C 0.55859 0.62718 0.51651 0.0
C472 C 0.54275 0.57368 0.6739 0.0
O473 O 0.52868 0.56574 0.56313 0.0
O474 O 0.55097 0.54306 0.57353 0.0
C475 C 0.59402 0.53209 0.55908 0.0
N476 N 0.60056 0.54908 0.59588 0.0
C477 C 0.62348 0.52948 0.63383 0.0
C478 C 0.61541 0.51072 0.59775 0.0
C479 C 0.60162 0.51272 0.55927 0.0
C480 C 0.61577 0.54871 0.63134 0.0
H481 H 0.58136 0.53206 0.53148 0.0
C482 C 0.53148 0.54528 0.55783 0.0
O483 O 0.54323 0.62511 0.55089 0.0
O484 O 0.57017 0.61387 0.52319 0.0
N485 N 0.60471 0.57703 0.6696 0.0
C486 C 0.60605 0.59264 0.70622 0.0
C487 C 0.62267 0.596 0.74423 0.0
C488 C 0.63628 0.58177 0.74573 0.0
C489 C 0.63378 0.56507 0.70841 0.0
C490 C 0.61912 0.5647 0.66935 0.0
H491 H 0.59415 0.60208 0.7066 0.0
O492 O 0.58883 0.63289 0.61359 0.0
O493 O 0.58621 0.59481 0.59415 0.0
O494 O 0.53729 0.59109 0.65983 0.0
O495 O 0.5568 0.57203 0.64454 0.0
C496 C 0.64324 0.54707 0.7102 0.0
C497 C 0.63697 0.52847 0.67396 0.0
H498 H 0.61979 0.49469 0.59916 0.0
H499 H 0.59568 0.49851 0.53101 0.0
H500 H 0.62393 0.60847 0.77326 0.0
H501 H 0.64774 0.58305 0.77641 0.0
H502 H 0.65392 0.54625 0.74055 0.0
H503 H 0.64245 0.51329 0.67753 0.0
Mn504 Mn 0.38033 0.96088 0.56651 0.0
Mn505 Mn 0.42499 0.02419 0.60148 0.0
C506 C 0.36665 0.98907 0.59266 0.0
C507 C 0.35232 0.93445 0.50008 0.0
C508 C 0.40531 0.97777 0.66582 0.0
O509 O 0.41515 0.96547 0.54093 0.0
O510 O 0.44096 0.00616 0.57108 0.0
C511 C 0.44618 0.0486 0.51033 0.0
N512 N 0.43521 0.04912 0.55202 0.0
C513 C 0.46138 0.09665 0.55575 0.0
C514 C 0.47265 0.09678 0.51239 0.0
C515 C 0.46445 0.07266 0.48894 0.0
C516 C 0.44112 0.07231 0.5728 0.0
H517 H 0.44201 0.02995 0.49487 0.0
C518 C 0.43779 0.98587 0.5493 0.0
O519 O 0.35579 0.92319 0.53655 0.0
O520 O 0.36647 0.95983 0.50114 0.0
N521 N 0.41403 0.0459 0.63324 0.0
C522 C 0.40383 0.04239 0.67716 0.0
C523 C 0.40827 0.06446 0.70389 0.0
C524 C 0.42573 0.09013 0.68729 0.0
C525 C 0.4376 0.0933 0.64339 0.0
C526 C 0.4296 0.07061 0.61583 0.0
H527 H 0.39321 0.02292 0.69221 0.0
O528 O 0.35079 0.96365 0.59198 0.0
O529 O 0.39025 -0.00169 0.57528 0.0
O530 O 0.39104 0.95838 0.63723 0.0
O531 O 0.41751 0.00195 0.6544 0.0
C532 C 0.45892 0.11766 0.62799 0.0
C533 C 0.47082 0.11935 0.58428 0.0
H534 H 0.48808 0.11519 0.49736 0.0
H535 H 0.47345 0.07254 0.45593 0.0
H536 H 0.39981 0.06167 0.73852 0.0
H537 H 0.43082 0.10715 0.70939 0.0
H538 H 0.46653 0.13521 0.64976 0.0
H539 H 0.48725 0.13825 0.57294 0.0
Mn540 Mn 0.75071 0.68766 0.61843 0.0
Mn541 Mn 0.73235 0.62425 0.58617 0.0
C542 C 0.70853 0.65892 0.59516 0.0
C543 C 0.75185 0.71549 0.68325 0.0
C544 C 0.75791 0.67007 0.52012 0.0
O545 O 0.78143 0.68402 0.64243 0.0
O546 O 0.76681 0.64263 0.61572 0.0
C547 C 0.72972 0.6004 0.67782 0.0
N548 N 0.71807 0.59963 0.63622 0.0
C549 C 0.69535 0.55197 0.63464 0.0
C550 C 0.70657 0.55211 0.67805 0.0
C551 C 0.72331 0.57645 0.70031 0.0
C552 C 0.70025 0.57633 0.6164 0.0
H553 H 0.74466 0.61911 0.69249 0.0
C554 C 0.78389 0.66367 0.63596 0.0
O555 O 0.7649 0.72579 0.64472 0.0
O556 O 0.73994 0.69003 0.68452 0.0
N557 N 0.69926 0.60231 0.55569 0.0
C558 C 0.69155 0.60563 0.51257 0.0
C559 C 0.6733 0.58339 0.48679 0.0
C560 C 0.6652 0.5578 0.5037 0.0
C561 C 0.67452 0.55485 0.54715 0.0
C562 C 0.69011 0.57776 0.57362 0.0
H563 H 0.69996 0.62504 0.49753 0.0
O564 O 0.71811 0.68436 0.59463 0.0
O565 O 0.72324 0.64997 0.61224 0.0
O566 O 0.76269 0.68961 0.54773 0.0
O567 O 0.7466 0.64606 0.53252 0.0
C568 C 0.6707 0.53036 0.56359 0.0
C569 C 0.68088 0.52886 0.60746 0.0
H570 H 0.70296 0.53372 0.69406 0.0
H571 H 0.73249 0.57676 0.73334 0.0
H572 H 0.66688 0.58597 0.45271 0.0
H573 H 0.65257 0.54062 0.4824 0.0
H574 H 0.65976 0.51249 0.54288 0.0
H575 H 0.67749 0.50982 0.61994 0.0
Mn576 Mn 0.2834 0.05953 0.61067 0.0
Mn577 Mn 0.34686 0.10016 0.5711 0.0
C578 C 0.30968 0.04228 0.58437 0.0
C579 C 0.2601 0.03242 0.68178 0.0
C580 C 0.29702 0.08557 0.52091 0.0
O581 O 0.29441 0.09655 0.63854 0.0
O582 O 0.33841 0.11842 0.61856 0.0
C583 C 0.39162 0.1287 0.63375 0.0
N584 N 0.38103 0.11191 0.59668 0.0
C585 C 0.42349 0.13173 0.55833 0.0
C586 C 0.43452 0.14994 0.59519 0.0
C587 C 0.41874 0.1478 0.63384 0.0
C588 C 0.39648 0.11259 0.56081 0.0
H589 H 0.37906 0.12872 0.66155 0.0
C590 C 0.31827 0.11679 0.63943 0.0
O591 O 0.24746 0.03609 0.64802 0.0
O592 O 0.28521 0.04588 0.67591 0.0
N593 N 0.35691 0.0838 0.52318 0.0
C594 C 0.34268 0.06741 0.48736 0.0
C595 C 0.35612 0.06355 0.4501 0.0
C596 C 0.38392 0.07839 0.44787 0.0
C597 C 0.39805 0.09594 0.48416 0.0
C598 C 0.38373 0.09653 0.523 0.0
H599 H 0.32126 0.05756 0.48707 0.0
O600 O 0.28399 0.02864 0.5838 0.0
O601 O 0.32102 0.06618 0.60114 0.0
O602 O 0.27479 0.06942 0.53951 0.0
O603 O 0.31422 0.08934 0.54868 0.0
C604 C 0.42548 0.11415 0.48191 0.0
C605 C 0.43792 0.13283 0.51801 0.0
H606 H 0.4552 0.16545 0.59444 0.0
H607 H 0.42717 0.16165 0.66258 0.0
H608 H 0.34519 0.05006 0.42215 0.0
H609 H 0.39413 0.07665 0.41761 0.0
H610 H 0.43696 0.11475 0.45166 0.0
H611 H 0.45871 0.14775 0.51468 0.0
Mn612 Mn 0.92521 0.23159 0.61893 0.0
Mn613 Mn 0.87631 0.24311 0.59029 0.0
C614 C 0.93585 0.27493 0.61469 0.0
C615 C 0.9507 0.22597 0.68027 0.0
C616 C 0.90004 0.22379 0.52494 0.0
O617 O 0.8896 0.19702 0.63193 0.0
O618 O 0.86406 0.21631 0.63755 0.0
C619 C 0.85382 0.25824 0.66817 0.0
N620 N 0.86516 0.26359 0.62501 0.0
C621 C 0.84098 0.28533 0.60167 0.0
C622 C 0.82914 0.28016 0.64598 0.0
C623 C 0.83596 0.26698 0.67964 0.0
C624 C 0.85888 0.27652 0.59265 0.0
H625 H 0.85744 0.24629 0.69273 0.0
C626 C 0.86845 0.19727 0.64443 0.0
O627 O 0.95029 0.21782 0.63778 0.0
O628 O 0.93468 0.2348 0.68767 0.0
N629 N 0.88699 0.27032 0.54392 0.0
C630 C 0.90784 0.28209 0.51389 0.0
C631 C 0.90871 0.30056 0.4811 0.0
C632 C 0.88861 0.30733 0.48118 0.0
C633 C 0.86965 0.2977 0.51711 0.0
C634 C 0.87095 0.28058 0.5497 0.0
H635 H 0.92413 0.27834 0.51675 0.0
O636 O 0.95358 0.26781 0.61018 0.0
O637 O 0.91136 0.25633 0.62069 0.0
O638 O 0.92179 0.22895 0.54477 0.0
O639 O 0.88056 0.21834 0.55052 0.0
C640 C 0.85053 0.30547 0.52385 0.0
C641 C 0.83568 0.29869 0.56581 0.0
H642 H 0.81495 0.28638 0.65465 0.0
H643 H 0.82672 0.26274 0.71376 0.0
H644 H 0.92488 0.3097 0.45627 0.0
H645 H 0.8891 0.32136 0.45576 0.0
H646 H 0.84788 0.31754 0.49801 0.0
H647 H 0.82136 0.30515 0.57118 0.0
Mn648 Mn 0.28518 0.22977 0.122 0.0
Mn649 Mn 0.34228 0.23328 0.09412 0.0
C650 C 0.32245 0.27093 0.12609 0.0
C651 C 0.25318 0.22358 0.18068 0.0
C652 C 0.30177 0.2232 0.02742 0.0
O653 O 0.27992 0.19205 0.12882 0.0
O654 O 0.32346 0.20437 0.13751 0.0
C655 C 0.37797 0.24222 0.17383 0.0
N656 N 0.37383 0.24914 0.13061 0.0
C657 C 0.42025 0.26907 0.11108 0.0
C658 C 0.42517 0.26272 0.15582 0.0
C659 C 0.404 0.24958 0.18756 0.0
C660 C 0.39416 0.26208 0.10013 0.0
H661 H 0.36143 0.23045 0.19686 0.0
C662 C 0.29865 0.18811 0.14307 0.0
O663 O 0.24683 0.21937 0.13669 0.0
O664 O 0.27714 0.22939 0.1905 0.0
N665 N 0.36246 0.26192 0.05134 0.0
C666 C 0.35643 0.27699 0.02312 0.0
C667 C 0.37577 0.29506 0.99193 0.0
C668 C 0.40141 0.29831 0.99211 0.0
C669 C 0.40807 0.2857 0.02694 0.0
C670 C 0.38808 0.26887 0.05775 0.0
H671 H 0.33749 0.276 0.02597 0.0
O672 O 0.2989 0.26787 0.12096 0.0
O673 O 0.3242 0.24955 0.12782 0.0
O674 O 0.28766 0.23121 0.04808 0.0
O675 O 0.3123 0.21336 0.05227 0.0
C676 C 0.43398 0.29047 0.0346 0.0
C677 C 0.44008 0.282 0.07671 0.0
H678 H 0.44509 0.26789 0.1662 0.0
H679 H 0.40761 0.24435 0.22195 0.0
H680 H 0.37103 0.30664 0.96836 0.0
H681 H 0.41631 0.31213 0.96805 0.0
H682 H 0.44959 0.30178 1.00955 0.0
H683 H 0.46033 0.28673 0.08324 0.0
Mn684 Mn 0.7494 0.05566 0.11954 0.0
Mn685 Mn 0.74665 0.10954 0.07801 0.0
C686 C 0.71028 0.05309 0.09864 0.0
C687 C 0.74647 0.02857 0.18503 0.0
C688 C 0.7577 0.07429 0.01708 0.0
O689 O 0.78607 0.08638 0.13703 0.0
O690 O 0.78025 0.11831 0.10508 0.0
C691 C 0.75058 0.1338 0.17057 0.0
N692 N 0.73854 0.12575 0.12828 0.0
C693 C 0.71565 0.15007 0.13856 0.0
C694 C 0.72805 0.15901 0.18205 0.0
C695 C 0.74518 0.15035 0.19859 0.0
C696 C 0.72043 0.13215 0.11376 0.0
H697 H 0.7643 0.1278 0.18246 0.0
C698 C 0.79429 0.11057 0.12614 0.0
O699 O 0.75684 0.02713 0.14562 0.0
O700 O 0.73979 0.04663 0.18689 0.0
N701 N 0.71523 0.10569 0.04906 0.0
C702 C 0.70699 0.0978 1.00434 0.0
C703 C 0.68903 0.10397 0.98312 0.0
C704 C 0.68175 0.1206 1.00618 0.0
C705 C 0.69225 0.13051 0.05046 0.0
C706 C 0.7083 0.12181 0.07149 0.0
H707 H 0.71437 0.08718 0.98466 0.0
O708 O 0.71198 0.03178 0.10261 0.0
O709 O 0.73063 0.07541 0.11025 0.0
O710 O 0.75854 0.0587 0.04816 0.0
O711 O 0.75413 0.0937 0.02562 0.0
C712 C 0.68902 0.1502 0.07298 0.0
C713 C 0.69996 0.15936 0.11766 0.0
H714 H 0.72477 0.17269 0.20277 0.0
H715 H 0.75481 0.15706 0.23214 0.0
H716 H 0.68191 0.09704 0.94812 0.0
H717 H 0.66893 0.12647 0.98885 0.0
H718 H 0.67821 0.15855 0.05607 0.0
H719 H 0.69678 0.17408 0.13504 0.0
Mn720 Mn 0.92874 0.69159 0.12075 0.0
Mn721 Mn 0.88705 0.62956 0.0859 0.0
C722 C 0.94662 0.66514 0.11204 0.0
C723 C 0.94736 0.72036 0.18733 0.0
C724 C 0.9078 0.67501 0.02467 0.0
O725 O 0.89072 0.68453 0.12898 0.0
O726 O 0.86974 0.63977 0.132 0.0
C727 C 0.8627 0.58877 0.15801 0.0
N728 N 0.8776 0.59749 0.11837 0.0
C729 C 0.85829 0.55266 0.08901 0.0
C730 C 0.84233 0.54339 0.12901 0.0
C731 C 0.84494 0.56147 0.16409 0.0
C732 C 0.87536 0.58003 0.08478 0.0
H733 H 0.86315 0.60273 0.18345 0.0
C734 C 0.87025 0.6617 0.13726 0.0
O735 O 0.94781 0.72985 0.14592 0.0
O736 O 0.93422 0.69488 0.19029 0.0
N737 N 0.90285 0.61725 0.0409 0.0
C738 C 0.92439 0.62971 0.01254 0.0
C739 C 0.92928 0.61468 0.97958 0.0
C740 C 0.91232 0.58694 0.97754 0.0
C741 C 0.89236 0.57444 0.01136 0.0
C742 C 0.88974 0.59058 0.04448 0.0
H743 H 0.93813 0.65062 0.0165 0.0
O744 O 0.9611 0.69076 0.11362 0.0
O745 O 0.92096 0.65455 0.11805 0.0
O746 O 0.9277 0.69331 0.04672 0.0
O747 O 0.88863 0.65786 0.04765 0.0
C748 C 0.87542 0.54674 0.01464 0.0
C749 C 0.85742 0.53598 0.05237 0.0
H750 H 0.82827 0.52241 0.13348 0.0
H751 H 0.83269 0.55443 0.19511 0.0
H752 H 0.94599 0.62441 0.95597 0.0
H753 H 0.9157 0.57538 0.95163 0.0
H754 H 0.87604 0.53359 0.98851 0.0
H755 H 0.84377 0.51476 0.0538 0.0
Mn756 Mn 0.56414 0.96807 0.07541 0.0
Mn757 Mn 0.56941 0.02692 0.1103 0.0
C758 C 0.60422 0.00474 0.08998 0.0
C759 C 0.56408 0.94119 0.01147 0.0
C760 C 0.55855 0.9828 0.17661 0.0
O761 O 0.52704 0.96179 0.06211 0.0
O762 O 0.53467 0.00181 0.08641 0.0
C763 C 0.56339 0.04491 0.01711 0.0
N764 N 0.5772 0.04964 0.05771 0.0
C765 C 0.60235 0.09643 0.04193 0.0
C766 C 0.58861 0.09214 0.99969 0.0
C767 C 0.56934 0.06618 0.98686 0.0
C768 C 0.59689 0.07424 0.06904 0.0
H769 H 0.54762 0.02516 1.00843 0.0
C770 C 0.51963 0.97872 0.07011 0.0
O771 O 0.55586 0.93117 0.0529 0.0
O772 O 0.57051 0.96576 1.00697 0.0
N773 N 0.60207 0.05449 0.13593 0.0
C774 C 0.61124 0.05594 0.18032 0.0
C775 C 0.63087 0.0804 0.19839 0.0
C776 C 0.63898 0.10369 0.1726 0.0
C777 C 0.62764 0.10212 0.12872 0.0
C778 C 0.60985 0.0769 0.11077 0.0
H779 H 0.60343 0.03859 0.20213 0.0
O780 O 0.6018 0.98137 0.08802 0.0
O781 O 0.58381 0.0069 0.07966 0.0
O782 O 0.55751 0.9652 0.14789 0.0
O783 O 0.56215 0.00541 0.16506 0.0
C784 C 0.63181 0.12469 0.10368 0.0
C785 C 0.61994 0.12191 0.0596 0.0
H786 H 0.59232 0.10867 0.97731 0.0
H787 H 0.55844 0.06271 0.95455 0.0
H788 H 0.63873 0.08143 0.23307 0.0
H789 H 0.65313 0.12273 0.18756 0.0
H790 H 0.64401 0.14437 0.1182 0.0
H791 H 0.62378 0.13952 0.04034 0.0
Mn792 Mn 0.02768 0.59077 0.08262 0.0
Mn793 Mn 0.96527 0.55135 0.12672 0.0
C794 C 0.00263 0.60941 0.10806 0.0
C795 C 0.04944 0.61516 0.01085 0.0
C796 C 0.01554 0.56499 0.16877 0.0
O797 O 0.01534 0.55375 0.05695 0.0
O798 O 0.97102 0.53207 0.07602 0.0
C799 C 0.91511 0.51946 0.07753 0.0
N800 N 0.92911 0.53835 0.11032 0.0
C801 C 0.88928 0.52638 0.15399 0.0
C802 C 0.87462 0.50638 0.12128 0.0
C803 C 0.88752 0.50325 0.0824 0.0
C804 C 0.91674 0.54185 0.14741 0.0
H805 H 0.92514 0.51577 0.04926 0.0
C806 C -0.00864 0.53397 0.0545 0.0
O807 O 0.06276 0.61177 0.04377 0.0
O808 O 0.02443 0.60292 0.01812 0.0
N809 N 0.95913 0.57013 0.17623 0.0
C810 C 0.97643 0.58925 0.20608 0.0
C811 C 0.96657 0.59742 0.24336 0.0
C812 C 0.93905 0.5851 0.2508 0.0
C813 C 0.92166 0.56546 0.21967 0.0
C814 C 0.93264 0.55954 0.18126 0.0
H815 H -0.00242 0.59791 0.20171 0.0
O816 O 0.02841 0.62249 0.1078 0.0
O817 O -0.00942 0.5848 0.09434 0.0
O818 O 0.03808 0.58121 0.1522 0.0
O819 O -0.00058 0.56319 0.14027 0.0
C820 C 0.89393 0.55091 0.22599 0.0
C821 C 0.8779 0.53067 0.19414 0.0
H822 H 0.8534 0.49344 0.12547 0.0
H823 H 0.8763 0.48788 0.05695 0.0
H824 H 0.98019 0.61263 0.26696 0.0
H825 H 0.93152 0.59073 0.28066 0.0
H826 H 0.88484 0.55452 0.256 0.0
H827 H 0.85677 0.51863 0.20069 0.0
Mn828 Mn 0.38471 0.41672 0.07587 0.0
Mn829 Mn 0.43217 0.40265 0.10347 0.0
C830 C 0.3721 0.37537 0.10329 0.0
C831 C 0.35827 0.41718 1.01008 0.0
C832 C 0.41949 0.43525 0.16231 0.0
O833 O 0.41961 0.44634 0.04996 0.0
O834 O 0.44281 0.42464 0.04723 0.0
C835 C 0.44665 0.37721 0.03048 0.0
N836 N 0.43668 0.37587 0.07409 0.0
C837 C 0.45449 0.34872 0.10133 0.0
C838 C 0.46587 0.35087 0.05729 0.0
C839 C 0.46128 0.3645 0.02134 0.0
C840 C 0.44054 0.36218 0.10857 0.0
H841 H 0.44487 0.38929 1.00366 0.0
C842 C 0.43974 0.4444 0.03748 0.0
O843 O 0.36176 0.43146 0.04729 0.0
O844 O 0.37069 0.40418 0.01081 0.0
N845 N 0.42146 0.37964 0.15769 0.0
C846 C 0.40523 0.37625 0.19476 0.0
C847 C 0.40277 0.359 0.23126 0.0
C848 C 0.41653 0.34493 0.22883 0.0
C849 C 0.43092 0.34678 0.18837 0.0
C850 C 0.43138 0.36326 0.15236 0.0
H851 H 0.3941 0.38648 0.19654 0.0
O852 O 0.3551 0.38361 0.10158 0.0
O853 O 0.39535 0.3905 0.08517 0.0
O854 O 0.39674 0.43059 0.14644 0.0
O855 O 0.43533 0.43365 0.13499 0.0
C856 C 0.44452 0.3327 0.18185 0.0
C857 C 0.45735 0.3347 0.13897 0.0
H858 H 0.47819 0.34215 0.05068 0.0
H859 H 0.46991 0.3661 0.98717 0.0
H860 H 0.39049 0.35676 0.26126 0.0
H861 H 0.4151 0.33206 0.25738 0.0
H862 H 0.44548 0.32056 0.20962 0.0
H863 H 0.46892 0.32493 0.13512 0.0
Mn864 Mn 0.68298 0.75112 0.89455 0.0
Mn865 Mn 0.62497 0.74475 0.92564 0.0
C866 C 0.64696 0.70917 0.89326 0.0
C867 C 0.71417 0.75645 0.83351 0.0
C868 C 0.66718 0.75823 0.99025 0.0
O869 O 0.68588 0.78801 0.88658 0.0
O870 O 0.64154 0.77327 0.88133 0.0
C871 C 0.58715 0.73351 0.84876 0.0
N872 N 0.59276 0.72711 0.89127 0.0
C873 C 0.54678 0.70582 0.91454 0.0
C874 C 0.54037 0.71161 0.87055 0.0
C875 C 0.5606 0.7252 0.83729 0.0
C876 C 0.57336 0.71386 0.92327 0.0
H877 H 0.60294 0.74568 0.82466 0.0
C878 C 0.66591 0.79103 0.87654 0.0
O879 O 0.72138 0.76217 0.87693 0.0
O880 O 0.68993 0.75017 0.82525 0.0
N881 N 0.60701 0.71635 0.96963 0.0
C882 C 0.61483 0.70249 0.99725 0.0
C883 C 0.59673 0.68405 0.02955 0.0
C884 C 0.57054 0.67936 0.03127 0.0
C885 C 0.56216 0.69091 0.99723 0.0
C886 C 0.58097 0.70804 0.96508 0.0
H887 H 0.63428 0.70478 0.99318 0.0
O888 O 0.67099 0.71345 0.89775 0.0
O889 O 0.64396 0.72978 0.89092 0.0
O890 O 0.68178 0.75091 0.9691 0.0
O891 O 0.65523 0.76657 0.96563 0.0
C892 C 0.53569 0.68486 0.99167 0.0
C893 C 0.52799 0.69253 0.95034 0.0
H894 H 0.52002 0.7057 0.86191 0.0
H895 H 0.55583 0.73005 0.80351 0.0
H896 H 0.60284 0.67337 0.05262 0.0
H897 H 0.55661 0.6653 0.05628 0.0
H898 H 0.52089 0.67323 0.01776 0.0
H899 H 0.50736 0.6869 0.94549 0.0
Mn900 Mn 0.2184 0.92449 0.90626 0.0
Mn901 Mn 0.24158 0.88395 0.94437 0.0
C902 C 0.26157 0.94143 0.93454 0.0
C903 C 0.22158 0.95212 0.83668 0.0
C904 C 0.2034 0.89539 0.99667 0.0
O905 O 0.19249 0.88792 0.87759 0.0
O906 O 0.21475 0.86616 0.89648 0.0
C907 C 0.25937 0.85937 0.8765 0.0
N908 N 0.26536 0.87512 0.915 0.0
C909 C 0.28705 0.85362 0.95111 0.0
C910 C 0.28006 0.83653 0.91259 0.0
C911 C 0.26704 0.84004 0.87445 0.0
C912 C 0.27978 0.87323 0.95056 0.0
H913 H 0.24699 0.86015 0.84916 0.0
C914 C 0.19635 0.86793 0.87563 0.0
O915 O 0.2049 0.94742 0.87043 0.0
O916 O 0.23415 0.9395 0.84187 0.0
N917 N 0.26752 0.89943 0.99273 0.0
C918 C 0.2674 0.91285 0.0317 0.0
C919 C 0.28349 0.91498 0.06984 0.0
C920 C 0.29735 0.90102 0.0694 0.0
C921 C 0.29577 0.886 0.03 0.0
C922 C 0.28222 0.88749 0.99071 0.0
H923 H 0.25505 0.9218 0.0336 0.0
O924 O 0.2498 0.95534 0.9348 0.0
O925 O 0.24889 0.91789 0.91678 0.0
O926 O 0.19909 0.91237 0.97576 0.0
O927 O 0.21879 0.8908 0.97555 0.0
C928 C 0.30475 0.86764 0.02992 0.0
C929 C 0.29912 0.85053 0.9915 0.0
H930 H 0.28458 0.82058 0.912 0.0
H931 H 0.26163 0.82691 0.84463 0.0
H932 H 0.28414 0.92612 0.10048 0.0
H933 H 0.30815 0.90104 0.10022 0.0
H934 H 0.31443 0.86531 0.06038 0.0
H935 H 0.30413 0.83495 0.99345 0.0
Mn936 Mn 0.05483 0.2956 0.8951 0.0
Mn937 Mn 0.09786 0.35839 0.93676 0.0
C938 C 0.03892 0.32177 0.92074 0.0
C939 C 0.03045 0.26859 0.82827 0.0
C940 C 0.07621 0.31007 0.99669 0.0
O941 O 0.09068 0.30174 0.87332 0.0
O942 O 0.11555 0.34219 0.90513 0.0
C943 C 0.12138 0.38675 0.84882 0.0
N944 N 0.10917 0.3852 0.8902 0.0
C945 C 0.12952 0.43273 0.89472 0.0
C946 C 0.1423 0.43489 0.85202 0.0
C947 C 0.13772 0.41176 0.82845 0.0
C948 C 0.11228 0.40725 0.91184 0.0
H949 H 0.11949 0.36912 0.83254 0.0
C950 C 0.11292 0.32239 0.88231 0.0
O951 O 0.03331 0.25799 0.86631 0.0
O952 O 0.04309 0.29416 0.82825 0.0
N953 N 0.08548 0.37846 0.97013 0.0
C954 C 0.07146 0.37276 0.01068 0.0
C955 C 0.07139 0.39338 0.03611 0.0
C956 C 0.08709 0.41982 0.02101 0.0
C957 C 0.10181 0.42519 0.97962 0.0
C958 C 0.0994 0.40363 0.95399 0.0
H959 H 0.06034 0.35266 0.02302 0.0
O960 O 0.02387 0.29634 0.91614 0.0
O961 O 0.06359 0.33273 0.90656 0.0
O962 O 0.06264 0.29152 0.96651 0.0
O963 O 0.08919 0.33446 0.98713 0.0
C964 C 0.11972 0.45105 0.96382 0.0
C965 C 0.13395 0.45481 0.92185 0.0
H966 H 0.15575 0.4542 0.83714 0.0
H967 H 0.14768 0.41327 0.7957 0.0
H968 H 0.06004 0.38901 0.0681 0.0
H969 H 0.08794 0.43582 0.0417 0.0
H970 H 0.12289 0.4682 0.98387 0.0
H971 H 0.14787 0.47481 0.9103 0.0
Mn972 Mn 0.414 0.02121 0.95452 0.0
Mn973 Mn 0.39735 0.95831 0.92066 0.0
C974 C 0.37196 0.99165 0.93105 0.0
C975 C 0.414 0.04803 0.02118 0.0
C976 C 0.42163 0.00438 0.85486 0.0
O977 O 0.44539 0.0182 0.97821 0.0
O978 O 0.43158 0.97719 0.95058 0.0
C979 C 0.39497 0.93473 0.01248 0.0
N980 N 0.38342 0.93357 0.97056 0.0
C981 C 0.36265 0.88608 0.96832 0.0
C982 C 0.37372 0.88656 0.01205 0.0
C983 C 0.38939 0.91098 0.03482 0.0
C984 C 0.3664 0.9101 0.9504 0.0
H985 H 0.40923 0.95363 0.02749 0.0
C986 C 0.44832 -0.00187 0.97138 0.0
O987 O 0.42719 0.05904 0.98309 0.0
O988 O 0.40288 0.02262 0.02091 0.0
N989 N 0.36462 0.93569 0.88966 0.0
C990 C 0.35726 0.9387 0.84602 0.0
C991 C 0.34002 0.91626 0.81965 0.0
C992 C 0.33283 0.89086 0.8364 0.0
C993 C 0.34202 0.88827 0.88022 0.0
C994 C 0.35629 0.91121 0.90736 0.0
H995 H 0.36532 0.95805 0.83091 0.0
O996 O 0.38062 0.01693 0.93175 0.0
O997 O 0.38735 0.98333 0.94722 0.0
O998 O 0.4257 0.02362 0.88296 0.0
O999 O 0.41134 0.98042 0.86717 0.0
C1000 C 0.33963 0.86428 0.89621 0.0
C1001 C 0.34983 0.86314 0.94026 0.0
H1002 H 0.37093 0.8684 0.02782 0.0
H1003 H 0.39851 0.91159 0.06808 0.0
H1004 H 0.33385 0.91862 0.78518 0.0
H1005 H 0.32118 0.87363 0.81458 0.0
H1006 H 0.33006 0.84656 0.87477 0.0
H1007 H 0.34769 0.84449 0.95223 0.0
Mn1008 Mn 0.94834 0.38642 0.93357 0.0
Mn1009 Mn 0.01059 0.42885 0.89319 0.0
C1010 C 0.97918 0.37204 0.9244 0.0
C1011 C 0.92544 0.36263 1.00638 0.0
C1012 C 0.96194 0.40817 0.84434 0.0
O1013 O 0.9545 0.42292 0.95099 0.0
O1014 O -0.00105 0.4483 0.93395 0.0
C1015 C 0.05665 0.46782 0.9466 0.0
N1016 N 0.04627 0.44786 0.91454 0.0
C1017 C 0.08863 0.46476 0.87667 0.0
C1018 C 0.09975 0.48563 0.90914 0.0
C1019 C 0.08383 0.48681 0.94491 0.0
C1020 C 0.06166 0.44595 0.88104 0.0
H1021 H 0.04399 0.46992 0.97181 0.0
C1022 C 0.97687 0.44495 0.9506 0.0
O1023 O 0.91241 0.3623 0.96952 0.0
O1024 O 0.95039 0.37822 1.00214 0.0
N1025 N 0.0224 0.4108 0.85177 0.0
C1026 C 0.0083 0.38984 0.82254 0.0
C1027 C 0.02177 0.38405 0.78795 0.0
C1028 C 0.04938 0.40049 0.78267 0.0
C1029 C 0.06335 0.42208 0.81298 0.0
C1030 C 0.04911 0.42586 0.84854 0.0
H1031 H 0.98693 0.37813 0.82498 0.0
O1032 O 0.95384 0.35657 0.91839 0.0
O1033 O 0.98794 0.39709 0.93187 0.0
O1034 O 0.93911 0.39164 0.85931 0.0
O1035 O 0.97699 0.41051 0.87522 0.0
C1036 C 0.09062 0.44063 0.80824 0.0
C1037 C 0.10304 0.46238 0.83919 0.0
H1038 H 0.12052 0.50081 0.90705 0.0
H1039 H 0.09226 0.5029 0.96996 0.0
H1040 H 0.01081 0.36753 0.76438 0.0
H1041 H 0.05957 0.39658 0.75485 0.0
H1042 H 0.1021 0.43867 0.78033 0.0
H1043 H 0.12384 0.47695 0.83433 0.0
Mn1044 Mn 0.59034 0.56417 0.94552 0.0
Mn1045 Mn 0.54103 0.57584 0.92041 0.0
C1046 C 0.60133 0.60522 0.9189 0.0
C1047 C 0.61798 0.56449 1.00977 0.0
C1048 C 0.55475 0.54478 0.86062 0.0
O1049 O 0.55618 0.53384 0.97257 0.0
O1050 O 0.53209 0.55454 0.97734 0.0
C1051 C 0.52563 0.60053 0.99341 0.0
N1052 N 0.53525 0.60191 0.94948 0.0
C1053 C 0.51548 0.62737 0.92258 0.0
C1054 C 0.50443 0.62509 0.96695 0.0
C1055 C 0.51016 0.61231 1.00287 0.0
C1056 C 0.53019 0.61471 0.91498 0.0
H1057 H 0.52838 0.58912 0.02032 0.0
C1058 C 0.53611 0.53536 0.98698 0.0
O1059 O 0.61453 0.55043 0.97227 0.0
O1060 O 0.60481 0.57675 1.01021 0.0
N1061 N 0.55022 0.59838 0.86551 0.0
C1062 C 0.56701 0.60299 0.82873 0.0
C1063 C 0.56892 0.62028 0.7927 0.0
C1064 C 0.55389 0.63302 0.79499 0.0
C1065 C 0.53897 0.63011 0.8352 0.0
C1066 C 0.53921 0.61383 0.87098 0.0
H1067 H 0.57931 0.59401 0.82711 0.0
O1068 O 0.61894 0.59775 0.91966 0.0
O1069 O 0.57837 0.58956 0.93762 0.0
O1070 O 0.57811 0.55053 0.87481 0.0
O1071 O 0.53912 0.54505 0.89002 0.0
C1072 C 0.52454 0.64332 0.84202 0.0
C1073 C 0.51173 0.64089 0.88508 0.0
H1074 H 0.4916 0.63322 0.97391 0.0
H1075 H 0.50184 0.61069 0.03733 0.0
H1076 H 0.58189 0.62375 0.76326 0.0
H1077 H 0.55494 0.64592 0.76678 0.0
H1078 H 0.52307 0.65528 0.81444 0.0
H1079 H 0.49968 0.65011 0.88931 0.0
Mn1080 Mn 0.96383 0.57034 0.43974 0.0
Mn1081 Mn 0.0247 0.58092 0.4173 0.0
C1082 C -0.00587 0.61035 0.40906 0.0
C1083 C 0.9368 0.57255 0.50247 0.0
C1084 C 0.97949 0.54776 0.35871 0.0
O1085 O 0.96721 0.54076 0.47078 0.0
O1086 O 0.01195 0.56119 0.47589 0.0
C1087 C 0.06445 0.60738 0.49018 0.0
N1088 N 0.05633 0.60786 0.44574 0.0
C1089 C 0.10166 0.6347 0.41984 0.0
C1090 C 0.11036 0.63326 0.46472 0.0
C1091 C 0.0917 0.6201 0.50031 0.0
C1092 C 0.07432 0.62063 0.41136 0.0
H1093 H 0.05028 0.59597 0.51712 0.0
C1094 C -0.01137 0.54237 0.48618 0.0
O1095 O 0.92601 0.55737 0.46618 0.0
O1096 O 0.96226 0.58513 0.5025 0.0
N1097 N 0.03833 0.60196 0.36082 0.0
C1098 C 0.02606 0.60487 0.3224 0.0
C1099 C 0.04137 0.62159 0.2857 0.0
C1100 C 0.06914 0.63575 0.28915 0.0
C1101 C 0.08114 0.6346 0.33076 0.0
C1102 C 0.06465 0.61847 0.36679 0.0
H1103 H 0.00475 0.59516 0.32011 0.0
O1104 O 0.96907 0.60308 0.40946 0.0
O1105 O 0.00121 0.59526 0.43055 0.0
O1106 O 0.96204 0.55408 0.37127 0.0
O1107 O -0.00406 0.54933 0.38831 0.0
C1108 C 0.10871 0.64956 0.33867 0.0
C1109 C 0.11904 0.64873 0.38276 0.0
H1110 H 0.13135 0.64219 0.47223 0.0
H1111 H 0.09831 0.61909 0.53516 0.0
H1112 H 0.03182 0.62378 0.25503 0.0
H1113 H 0.08093 0.64841 0.26062 0.0
H1114 H 0.1221 0.66167 0.31115 0.0
H1115 H 0.14033 0.65948 0.38803 0.0
Mn1116 Mn 0.42024 0.39448 0.44891 0.0
Mn1117 Mn 0.40419 0.43895 0.41383 0.0
C1118 C 0.37744 0.37846 0.42526 0.0
C1119 C 0.41954 0.36906 0.51815 0.0
C1120 C 0.43679 0.42527 0.35946 0.0
O1121 O 0.44883 0.43061 0.47327 0.0
O1122 O 0.42591 0.45258 0.46973 0.0
C1123 C 0.37946 0.45825 0.47895 0.0
N1124 N 0.37761 0.44542 0.4381 0.0
C1125 C 0.35472 0.46555 0.40116 0.0
C1126 C 0.35762 0.47989 0.44219 0.0
C1127 C 0.36947 0.47575 0.48158 0.0
C1128 C 0.36601 0.4493 0.40012 0.0
H1129 H 0.39021 0.45661 0.50831 0.0
C1130 C 0.44566 0.45038 0.4833 0.0
O1131 O 0.43446 0.37187 0.48228 0.0
O1132 O 0.40761 0.38241 0.51482 0.0
N1133 N 0.38156 0.42542 0.35964 0.0
C1134 C 0.3766 0.40584 0.32808 0.0
C1135 C 0.35989 0.40202 0.2898 0.0
C1136 C 0.34797 0.41783 0.28527 0.0
C1137 C 0.35122 0.43575 0.32096 0.0
C1138 C 0.36696 0.4375 0.35906 0.0
H1139 H 0.38581 0.39378 0.33133 0.0
O1140 O 0.38845 0.36384 0.42549 0.0
O1141 O 0.39187 0.40298 0.4392 0.0
O1142 O 0.4333 0.40346 0.37732 0.0
O1143 O 0.43564 0.44133 0.38643 0.0
C1144 C 0.33893 0.45136 0.32135 0.0
C1145 C 0.3418 0.46728 0.36071 0.0
H1146 H 0.35037 0.49376 0.44419 0.0
H1147 H 0.37157 0.48659 0.5135 0.0
H1148 H 0.35656 0.38726 0.26356 0.0
H1149 H 0.33554 0.41527 0.25533 0.0
H1150 H 0.32732 0.4513 0.29175 0.0
H1151 H 0.33307 0.47992 0.36023 0.0
Mn1152 Mn 0.58982 0.01523 0.4659 0.0
Mn1153 Mn 0.53642 0.95638 0.43375 0.0
C1154 C 0.59569 0.98024 0.44828 0.0
C1155 C 0.6148 0.04402 0.52858 0.0
C1156 C 0.56554 0.00285 0.36952 0.0
O1157 O 0.55721 0.01952 0.47525 0.0
O1158 O 0.52784 0.97587 0.4782 0.0
C1159 C 0.51773 0.92591 0.52157 0.0
N1160 N 0.52525 0.92743 0.47613 0.0
C1161 C 0.5031 0.8798 0.46973 0.0
C1162 C 0.4951 0.87769 0.51645 0.0
C1163 C 0.50285 0.90086 0.54272 0.0
C1164 C 0.5187 0.90527 0.4511 0.0
H1165 H 0.52238 0.94366 0.54099 0.0
C1166 C 0.53347 -8e-05 0.47787 0.0
O1167 O 0.61602 0.05298 0.48649 0.0
O1168 O 0.59811 0.01898 0.53457 0.0
N1169 N 0.54163 0.93415 0.3902 0.0
C1170 C 0.55294 0.93945 0.34704 0.0
C1171 C 0.54978 0.91861 0.31802 0.0
C1172 C 0.53408 0.89222 0.33294 0.0
C1173 C 0.52258 0.88708 0.37747 0.0
C1174 C 0.52756 0.90881 0.40564 0.0
H1175 H 0.56516 0.95932 0.33567 0.0
O1176 O 0.616 0.00378 0.45475 0.0
O1177 O 0.57254 0.97654 0.4594 0.0
O1178 O 0.58647 0.01737 0.39376 0.0
O1179 O 0.54441 0.9839 0.38698 0.0
C1180 C 0.5061 0.86126 0.39491 0.0
C1181 C 0.49579 0.85767 0.44061 0.0
H1182 H 0.48302 0.8584 0.5325 0.0
H1183 H 0.49665 0.89938 0.57875 0.0
H1184 H 0.5592 0.9229 0.28404 0.0
H1185 H 0.53119 0.87611 0.31015 0.0
H1186 H 0.50119 0.84404 0.37349 0.0
H1187 H 0.48271 0.83774 0.45342 0.0
Mn1188 Mn 0.22234 0.28923 0.39609 0.0
Mn1189 Mn 0.23889 0.3513 0.42659 0.0
C1190 C 0.26608 0.31848 0.4076 0.0
C1191 C 0.21384 0.25983 0.33147 0.0
C1192 C 0.21803 0.30721 0.49198 0.0
O1193 O 0.18905 0.2925 0.38671 0.0
O1194 O 0.21033 0.33726 0.38231 0.0
C1195 C 0.2529 0.38655 0.34536 0.0
N1196 N 0.2594 0.3815 0.38832 0.0
C1197 C 0.2822 0.42798 0.40821 0.0
C1198 C 0.27587 0.43371 0.36409 0.0
C1199 C 0.26168 0.41295 0.33214 0.0
C1200 C 0.27391 0.40149 0.41853 0.0
H1201 H 0.23997 0.37044 0.32244 0.0
C1202 C 0.18992 0.31449 0.37777 0.0
O1203 O 0.20536 0.25071 0.37331 0.0
O1204 O 0.22481 0.28519 0.32702 0.0
N1205 N 0.2677 0.36815 0.46995 0.0
C1206 C 0.27746 0.35928 0.50414 0.0
C1207 C 0.29578 0.37755 0.53635 0.0
C1208 C 0.30377 0.40469 0.53251 0.0
C1209 C 0.29539 0.41342 0.49388 0.0
C1210 C 0.27887 0.39437 0.46155 0.0
H1211 H 0.27238 0.33883 0.50492 0.0
O1212 O 0.25713 0.29321 0.40388 0.0
O1213 O 0.24967 0.32704 0.39873 0.0
O1214 O 0.21982 0.28889 0.47015 0.0
O1215 O 0.21467 0.32372 0.4692 0.0
C1216 C 0.30268 0.44009 0.48565 0.0
C1217 C 0.29552 0.44727 0.44316 0.0
H1218 H 0.2817 0.45392 0.35445 0.0
H1219 H 0.25646 0.41719 0.29824 0.0
H1220 H 0.30354 0.37075 0.5641 0.0
H1221 H 0.31723 0.41872 0.55805 0.0
H1222 H 0.31407 0.45525 0.51136 0.0
H1223 H 0.30115 0.46782 0.43708 0.0
Mn1224 Mn 0.6759 0.92501 0.39918 0.0
Mn1225 Mn 0.62121 0.87157 0.438 0.0
C1226 C 0.63716 0.92638 0.3968 0.0
C1227 C 0.70451 0.94946 0.33532 0.0
C1228 C 0.66422 0.90644 0.49739 0.0
O1229 O 0.68258 0.89333 0.39562 0.0
O1230 O 0.63928 0.86026 0.39616 0.0
C1231 C 0.58351 0.83984 0.36378 0.0
N1232 N 0.58858 0.85304 0.4051 0.0
C1233 C 0.54257 0.82804 0.42772 0.0
C1234 C 0.5367 0.81448 0.38498 0.0
C1235 C 0.55723 0.82059 0.35269 0.0
C1236 C 0.56899 0.8472 0.43646 0.0
H1237 H 0.59955 0.84347 0.34029 0.0
C1238 C 0.66401 0.86906 0.38951 0.0
O1239 O 0.7132 0.95343 0.37809 0.0
O1240 O 0.68058 0.92998 0.3298 0.0
N1241 N 0.60183 0.88137 0.48005 0.0
C1242 C 0.60874 0.90361 0.50565 0.0
C1243 C 0.59024 0.90393 0.53689 0.0
C1244 C 0.5643 0.88201 0.53895 0.0
C1245 C 0.55666 0.86118 0.50691 0.0
C1246 C 0.57605 0.86231 0.47663 0.0
H1247 H 0.62762 0.92135 0.50028 0.0
O1248 O 0.66033 0.94785 0.39844 0.0
O1249 O 0.6368 0.90392 0.39862 0.0
O1250 O 0.67673 0.92754 0.47308 0.0
O1251 O 0.65291 0.8848 0.47625 0.0
C1252 C 0.53028 0.84043 0.50123 0.0
C1253 C 0.5233 0.82356 0.46187 0.0
H1254 H 0.51651 0.79947 0.37649 0.0
H1255 H 0.55288 0.81 0.31986 0.0
H1256 H 0.59573 0.92128 0.55825 0.0
H1257 H 0.54993 0.88242 0.5625 0.0
H1258 H 0.51496 0.83817 0.52541 0.0
H1259 H 0.50279 0.80824 0.45686 0.0
Mn1260 Mn 0.04488 0.75064 0.40411 0.0
Mn1261 Mn 0.0997 0.75047 0.43621 0.0
C1262 C 0.04566 0.712 0.39214 0.0
C1263 C 0.01987 0.75725 0.34397 0.0
C1264 C 0.06308 0.75238 0.50186 0.0
O1265 O 0.0753 0.78999 0.40757 0.0
O1266 O 0.10977 0.78226 0.40029 0.0
C1267 C 0.13145 0.74961 0.35616 0.0
N1268 N 0.11913 0.73954 0.39767 0.0
C1269 C 0.14614 0.71966 0.4126 0.0
C1270 C 0.15871 0.72924 0.36941 0.0
C1271 C 0.15111 0.74401 0.34082 0.0
C1272 C 0.12615 0.72511 0.42514 0.0
H1273 H 0.12673 0.76235 0.33577 0.0
C1274 C 0.10003 0.7977 0.40046 0.0
O1275 O 0.01502 0.75818 0.38808 0.0
O1276 O 0.0404 0.75496 0.33527 0.0
N1277 N 0.0916 0.71965 0.47246 0.0
C1278 C 0.07029 0.70265 0.49864 0.0
C1279 C 0.07203 0.68384 0.52703 0.0
C1280 C 0.09525 0.68203 0.52617 0.0
C1281 C 0.11509 0.69703 0.49328 0.0
C1282 C 0.1117 0.71482 0.46551 0.0
H1283 H 0.05187 0.70267 0.49594 0.0
O1284 O 0.02355 0.71225 0.39604 0.0
O1285 O 0.06743 0.73457 0.39697 0.0
O1286 O 0.04204 0.74423 0.47755 0.0
O1287 O 0.08505 0.76469 0.48142 0.0
C1288 C 0.13722 0.69397 0.4847 0.0
C1289 C 0.15263 0.70505 0.44398 0.0
H1290 H 0.17419 0.72537 0.35785 0.0
H1291 H 0.16096 0.75171 0.3077 0.0
H1292 H 0.05547 0.67062 0.54899 0.0
H1293 H 0.09668 0.66766 0.54818 0.0
H1294 H 0.14182 0.68219 0.50801 0.0
H1295 H 0.1688 0.70146 0.43638 0.0
C1296 C 0.31045 0.97412 0.25468 0.0
C1297 C 0.28263 0.96175 0.25198 0.0
H1298 H 0.34681 0.01091 0.26394 0.0
C1299 C 0.27027 0.97687 0.25475 0.0
H1300 H 0.3205 0.96269 0.25384 0.0
C1301 C 0.28517 0.00397 0.25556 0.0
C1302 C 0.31257 0.01646 0.26151 0.0
H1303 H 0.24908 0.96794 0.25689 0.0
H1304 H 0.27502 0.01499 0.25187 0.0
C1305 C 0.32542 0.00151 0.26085 0.0
C1306 C 0.00111 0.29653 0.2193 0.0
C1307 C 0.01323 0.30135 0.26299 0.0
H1308 H 0.9644 0.27816 0.18237 0.0
C1309 C -0.00168 0.29198 0.30383 0.0
H1310 H 0.01252 0.30584 0.18809 0.0
C1311 C 0.97101 0.27934 0.30095 0.0
C1312 C 0.95886 0.27344 0.25724 0.0
H1313 H 0.00774 0.29736 0.33786 0.0
H1314 H 0.95966 0.27607 0.33251 0.0
C1315 C 0.97384 0.28117 0.21623 0.0
C1316 C 0.69279 0.68539 0.30426 0.0
C1317 C 0.70005 0.67902 0.26199 0.0
H1318 H 0.67539 0.70598 0.33672 0.0
C1319 C 0.69467 0.68692 0.21933 0.0
H1320 H 0.69476 0.67719 0.33695 0.0
C1321 C 0.68075 0.70028 0.21902 0.0
C1322 C 0.6751 0.70829 0.2612 0.0
H1323 H 0.69885 0.68043 0.1865 0.0
H1324 H 0.67285 0.70261 0.18636 0.0
C1325 C 0.68164 0.70146 0.30396 0.0
C1326 C 0.70834 0.98292 0.76178 0.0
C1327 C 0.68224 0.96916 0.74575 0.0
H1328 H 0.74642 0.01626 0.74976 0.0
C1329 C 0.67443 0.9783 0.70707 0.0
H1330 H 0.7149 0.97542 0.79037 0.0
C1331 C 0.69225 0.00271 0.68786 0.0
C1332 C 0.71618 0.01868 0.71153 0.0
H1333 H 0.65426 0.96759 0.69407 0.0
H1334 H 0.68491 0.01132 0.66247 0.0
C1335 C 0.7261 0.0064 0.73997 0.0
C1336 C -0.00034 0.6938 0.83421 0.0
C1337 C 0.01777 0.71751 0.812 0.0
H1338 H 0.96239 0.65844 0.82541 0.0
C1339 C 0.00788 0.73072 0.78591 0.0
H1340 H 0.00649 0.68401 0.85807 0.0
C1341 C 0.98349 0.71589 0.76417 0.0
C1342 C 0.96725 0.68957 0.77779 0.0
H1343 H 0.0201 0.75107 0.77748 0.0
H1344 H 0.97777 0.72453 0.73624 0.0
C1345 C 0.97466 0.679 0.81493 0.0
C1346 C 0.28276 0.27285 0.71753 0.0
C1347 C 0.29244 0.26761 0.75827 0.0
H1348 H 0.26675 0.29556 0.68927 0.0
C1349 C 0.28612 0.27347 0.80202 0.0
H1350 H 0.289 0.26984 0.68349 0.0
C1351 C 0.27 0.28455 0.80522 0.0
C1352 C 0.26323 0.29288 0.76445 0.0
H1353 H 0.29553 0.27179 0.83329 0.0
H1354 H 0.26666 0.29057 0.83923 0.0
C1355 C 0.26948 0.28692 0.72065 0.0
C1356 C 0.98642 0.34312 0.63975 0.0
C1357 C 0.97688 0.35552 0.61 0.0
H1358 H 0.97925 0.30598 0.66657 0.0
C1359 C 0.95075 0.34195 0.59419 0.0
H1360 H 0.00648 0.35362 0.65348 0.0
C1361 C 0.93434 0.31595 0.60717 0.0
C1362 C 0.94546 0.30224 0.62757 0.0
H1363 H 0.94343 0.35076 0.5697 0.0
H1364 H 0.91419 0.30625 0.59638 0.0
C1365 C 0.9707 0.31623 0.64823 0.0
C1366 C 0.63868 0.63061 0.56272 0.0
C1367 C 0.62825 0.63093 0.60655 0.0
H1368 H 0.67379 0.64089 0.52436 0.0
C1369 C 0.64424 0.63967 0.64608 0.0
H1370 H 0.62638 0.6248 0.53165 0.0
C1371 C 0.67008 0.64484 0.64281 0.0
C1372 C 0.68047 0.64399 0.59909 0.0
H1373 H 0.63669 0.64184 0.67932 0.0
H1374 H 0.68258 0.65156 0.67364 0.0
C1375 C 0.66518 0.63833 0.55875 0.0
C1376 C 0.3327 0.02509 0.6295 0.0
C1377 C 0.32383 0.02829 0.58595 0.0
H1378 H 0.35139 0.00704 0.66612 0.0
C1379 C 0.32781 0.01737 0.54565 0.0
H1380 H 0.32794 0.032 0.66126 0.0
C1381 C 0.34428 0.00673 0.54781 0.0
C1382 C 0.35421 0.00464 0.59109 0.0
H1383 H 0.31858 0.01728 0.51284 0.0
H1384 H 0.34812 -0.00115 0.51629 0.0
C1385 C 0.34678 0.01189 0.63226 0.0
C1386 C 0.34483 0.33827 0.15631 0.0
C1387 C 0.36417 0.34934 0.12132 0.0
H1388 H 0.31687 0.30221 0.18964 0.0
C1389 C 0.37526 0.33496 0.10269 0.0
H1390 H 0.33656 0.34946 0.17216 0.0
C1391 C 0.36655 0.30943 0.11793 0.0
C1392 C 0.34309 0.29655 0.14307 0.0
H1393 H 0.38942 0.34274 0.07455 0.0
H1394 H 0.37585 0.29905 0.10462 0.0
C1395 C 0.33438 0.31171 0.16761 0.0
C1396 C 0.64464 0.03436 0.05069 0.0
C1397 C 0.63032 0.02714 0.09246 0.0
H1398 H 0.68216 0.04543 0.02024 0.0
C1399 C 0.6433 0.03311 0.1355 0.0
H1400 H 0.63453 0.02825 0.01732 0.0
C1401 C 0.67068 0.04626 0.13686 0.0
C1402 C 0.68466 0.05044 0.0952 0.0
H1403 H 0.6324 0.02511 0.16766 0.0
H1404 H 0.68056 0.04953 0.17034 0.0
C1405 C 0.67176 0.04444 0.05216 0.0
C1406 C -0.01172 0.66441 0.11947 0.0
C1407 C 0.96048 0.6504 0.11431 0.0
H1408 H 0.02341 0.66188 0.12461 0.0
C1409 C 0.9468 0.62291 0.11197 0.0
H1410 H -0.00045 0.68585 0.12282 0.0
C1411 C 0.96068 0.60966 0.10763 0.0
C1412 C -0.0118 0.62333 0.11355 0.0
H1413 H 0.92565 0.61172 0.11214 0.0
H1414 H 0.94981 0.58882 0.09923 0.0
C1415 C 0.00201 0.65079 0.12051 0.0
C1416 C 0.59616 0.64447 0.91857 0.0
C1417 C 0.60825 0.6309 0.90055 0.0
H1418 H 0.59384 0.67945 0.91563 0.0
C1419 C 0.62744 0.64233 0.86538 0.0
H1420 H 0.58206 0.63641 0.94674 0.0
C1421 C 0.63666 0.66853 0.85305 0.0
C1422 C 0.62705 0.68307 0.87709 0.0
H1423 H 0.63654 0.63177 0.85013 0.0
H1424 H 0.65402 0.67844 0.83074 0.0
C1425 C 0.60377 0.66963 0.90258 0.0
C1426 C 0.33126 0.97259 0.97472 0.0
C1427 C 0.34387 0.97513 0.9318 0.0
H1428 H 0.29486 0.96328 1.00844 0.0
C1429 C 0.32978 0.96936 0.89003 0.0
H1430 H 0.34257 0.97934 1.00687 0.0
C1431 C 0.30252 0.9579 0.89144 0.0
C1432 C 0.28987 0.95474 0.93442 0.0
H1433 H 0.33976 0.97448 0.8566 0.0
H1434 H 0.29138 0.95231 0.85904 0.0
C1435 C 0.3043 0.96356 0.97573 0.0
C1436 C 0.03718 0.36305 0.92005 0.0
C1437 C 0.02597 0.33651 0.93283 0.0
H1438 H 0.03296 0.397 0.92406 0.0
C1439 C -0.00019 0.32254 0.95001 0.0
H1440 H 0.05624 0.37364 0.90304 0.0
C1441 C 0.98421 0.33424 0.94802 0.0
C1442 C -0.00428 0.36071 0.93376 0.0
H1443 H -0.00936 0.3019 0.96059 0.0
H1444 H 0.96329 0.32254 0.95663 0.0
C1445 C 0.02302 0.37584 0.92716 0.0
C1446 C 0.02183 0.67351 0.3427 0.0
C1447 C 0.04449 0.68885 0.37016 0.0
H1448 H 0.98619 0.63586 0.33744 0.0
C1449 C 0.05516 0.676 0.39503 0.0
H1450 H 0.01402 0.68299 0.32025 0.0
C1451 C 0.03839 0.6502 0.40927 0.0
C1452 C 0.01314 0.63579 0.38966 0.0
H1453 H 0.07441 0.68669 0.40994 0.0
H1454 H 0.04436 0.64253 0.43809 0.0
C1455 C 0.00555 0.64688 0.35364 0.0
C1456 C 0.30785 0.32301 0.43466 0.0
C1457 C 0.2939 0.33518 0.41791 0.0
H1458 H 0.34547 0.32714 0.44825 0.0
C1459 C 0.30725 0.36222 0.40799 0.0
H1460 H 0.29791 0.30207 0.44353 0.0
C1461 C 0.33428 0.37707 0.41563 0.0
C1462 C 0.34864 0.36449 0.42608 0.0
H1463 H 0.29712 0.37178 0.39361 0.0
H1464 H 0.34365 0.39793 0.41204 0.0
C1465 C 0.33511 0.3374 0.43744 0.0
C1466 C 0.62179 0.95313 0.35939 0.0
C1467 C 0.61465 0.92886 0.38123 0.0
H1468 H 0.62357 0.99045 0.36885 0.0
C1469 C 0.59254 0.91784 0.41009 0.0
H1470 H 0.63725 0.96121 0.33302 0.0
C1471 C 0.5867 0.93482 0.43456 0.0
C1472 C 0.59897 0.9614 0.42115 0.0
H1473 H 0.58251 0.89726 0.41832 0.0
H1474 H 0.57319 0.92747 0.46391 0.0
C1475 C 0.61498 0.97016 0.38114 0.0
C1476 C 0.28895 0.08443 0.43245 0.0
C1477 C 0.30548 0.09488 0.47132 0.0
H1478 H 0.28658 0.08158 0.35806 0.0
C1479 C 0.33306 0.11245 0.46265 0.0
H1480 H 0.26772 0.07175 0.43685 0.0
C1481 C 0.34437 0.11503 0.418 0.0
C1482 C 0.32807 0.10227 0.37972 0.0
H1483 H 0.34655 0.12223 0.49147 0.0
H1484 H 0.36576 0.1261 0.41398 0.0
C1485 C 0.30011 0.08937 0.38722 0.0
C1486 C 0.91713 0.24775 0.44724 0.0
C1487 C 0.89655 0.22796 0.47419 0.0
H1488 H 0.92781 0.27201 0.38568 0.0
C1489 C 0.87044 0.21634 0.45616 0.0
H1490 H 0.9374 0.25755 0.45987 0.0
C1491 C 0.86518 0.2238 0.4126 0.0
C1492 C 0.88567 0.24385 0.38597 0.0
H1493 H 0.85386 0.20107 0.47572 0.0
H1494 H 0.84537 0.21245 0.39811 0.0
C1495 C 0.91141 0.2568 0.40554 0.0
C1496 C 0.73488 0.6638 0.44675 0.0
C1497 C 0.75923 0.67141 0.46891 0.0
H1498 H 0.70826 0.64284 0.39044 0.0
C1499 C 0.77638 0.6641 0.4473 0.0
H1500 H 0.72066 0.66813 0.46315 0.0
C1501 C 0.76936 0.64978 0.40516 0.0
C1502 C 0.74467 0.64173 0.38361 0.0
H1503 H 0.79467 0.66825 0.46442 0.0
H1504 H 0.78397 0.64646 0.38769 0.0
C1505 C 0.72699 0.64769 0.40669 0.0
C1506 C 0.06261 0.32805 0.1101 0.0
C1507 C 0.08731 0.33763 0.13236 0.0
H1508 H 0.03721 0.30612 0.05284 0.0
C1509 C 0.10559 0.33156 0.11153 0.0
H1510 H 0.04742 0.33101 0.12615 0.0
C1511 C 0.09937 0.31641 0.07042 0.0
C1512 C 0.07476 0.30708 0.04781 0.0
H1513 H 0.12425 0.33722 0.12883 0.0
H1514 H 0.11478 0.31395 0.05396 0.0
C1515 C 0.05603 0.31207 0.06979 0.0
C1516 C 0.63132 0.75717 0.10199 0.0
C1517 C 0.63124 0.73681 0.12831 0.0
H1518 H 0.644 0.78083 0.04018 0.0
C1519 C 0.64351 0.72341 0.10843 0.0
H1520 H 0.62322 0.76879 0.11668 0.0
C1521 C 0.65837 0.73236 0.0667 0.0
C1522 C 0.6586 0.75293 0.04057 0.0
H1523 H 0.64436 0.70797 0.12819 0.0
H1524 H 0.66833 0.72215 0.05364 0.0
C1525 C 0.64456 0.76495 0.05899 0.0
C1526 C 0.21526 0.86396 0.10365 0.0
C1527 C 0.20937 0.87558 0.14072 0.0
H1528 H 0.21464 0.85839 0.03047 0.0
C1529 C 0.19488 0.8888 0.13027 0.0
H1530 H 0.22551 0.853 0.10969 0.0
C1531 C 0.19121 0.89485 0.08392 0.0
C1532 C 0.19934 0.88521 0.04653 0.0
H1533 H 0.188 0.89632 0.15825 0.0
H1534 H 0.1831 0.90775 0.07773 0.0
C1535 C 0.20909 0.86758 0.05779 0.0
C1536 C 0.64412 0.92197 0.61476 0.0
C1537 C 0.63294 0.89709 0.63738 0.0
H1538 H 0.66616 0.94586 0.55566 0.0
C1539 C 0.63195 0.87582 0.61287 0.0
H1540 H 0.64557 0.9389 0.633 0.0
C1541 C 0.64403 0.87981 0.56926 0.0
C1542 C 0.65707 0.90513 0.54783 0.0
H1543 H 0.62441 0.85666 0.62968 0.0
H1544 H 0.64321 0.86275 0.55231 0.0
C1545 C 0.65713 0.92632 0.57144 0.0
C1546 C 0.08846 0.765 0.57544 0.0
C1547 C 0.06464 0.74717 0.55284 0.0
H1548 H 0.1146 0.77335 0.63256 0.0
C1549 C 0.04801 0.72254 0.57503 0.0
H1550 H 0.10205 0.78409 0.55989 0.0
C1551 C 0.05612 0.71556 0.61697 0.0
C1552 C 0.07992 0.73403 0.63957 0.0
H1553 H 0.02956 0.70809 0.55873 0.0
H1554 H 0.0429 0.69664 0.63329 0.0
C1555 C 0.09608 0.75845 0.61699 0.0
C1556 C 0.21297 0.32925 0.5624 0.0
C1557 C 0.2224 0.31313 0.54306 0.0
H1558 H 0.21333 0.35299 0.61982 0.0
C1559 C 0.24167 0.31053 0.56828 0.0
H1560 H 0.19812 0.33189 0.54423 0.0
C1561 C 0.25235 0.32513 0.60977 0.0
C1562 C 0.24214 0.34039 0.6297 0.0
H1563 H 0.24997 0.29897 0.5542 0.0
H1564 H 0.26687 0.32238 0.62874 0.0
C1565 C 0.22269 0.34264 0.60468 0.0
C1566 C 0.88027 0.65451 0.95381 0.0
C1567 C 0.90591 0.66977 0.97345 0.0
H1568 H 0.85687 0.63303 0.89447 0.0
C1569 C 0.9275 0.67216 0.94791 0.0
H1570 H 0.86294 0.65193 0.97253 0.0
C1571 C 0.92329 0.65799 0.90602 0.0
C1572 C 0.89804 0.64437 0.88481 0.0
H1573 H 0.94746 0.68338 0.9618 0.0
H1574 H 0.94048 0.66048 0.88756 0.0
C1575 C 0.87645 0.64228 0.91015 0.0
C1576 C 0.32767 0.21967 0.96093 0.0
C1577 C 0.31182 0.22994 0.97819 0.0
H1578 H 0.3518 0.2187 0.90542 0.0
C1579 C 0.31123 0.25021 0.9524 0.0
H1580 H 0.32903 0.20422 0.97968 0.0
C1581 C 0.32646 0.2601 0.91128 0.0
C1582 C 0.3408 0.2485 0.89275 0.0
H1583 H 0.30003 0.25923 0.96501 0.0
H1584 H 0.32476 0.27496 0.8913 0.0
C1585 C 0.34196 0.22888 0.91928 0.0
C1586 C 0.77108 0.09631 0.89774 0.0
C1587 C 0.74494 0.08449 0.8799 0.0
H1588 H 0.79641 0.09961 0.95439 0.0
C1589 C 0.72439 0.06392 0.90574 0.0
H1590 H 0.78765 0.11207 0.87892 0.0
C1591 C 0.73007 0.05555 0.94811 0.0
C1592 C 0.75595 0.06882 0.96705 0.0
H1593 H 0.70422 0.05383 0.89263 0.0
H1594 H 0.71367 0.04087 0.96879 0.0
C1595 C 0.77651 0.08834 0.94015 0.0
C1596 C 0.01258 0.44337 0.7476 0.0
C1597 C -0.00322 0.43908 0.70846 0.0
H1598 H 0.01385 0.44411 0.82175 0.0
C1599 C 0.96956 0.43142 0.71679 0.0
H1600 H 0.03381 0.45156 0.74405 0.0
C1601 C 0.95726 0.42098 0.76025 0.0
C1602 C 0.97276 0.42229 0.79835 0.0
H1603 H 0.95677 0.43014 0.68827 0.0
H1604 H 0.93588 0.41151 0.76352 0.0
C1605 C 0.00079 0.43746 0.79215 0.0
C1606 C 0.55858 0.54018 0.77246 0.0
C1607 C 0.54607 0.54402 0.81066 0.0
H1608 H 0.56177 0.5408 0.69834 0.0
C1609 C 0.52577 0.55039 0.80095 0.0
H1610 H 0.57269 0.5334 0.77732 0.0
C1611 C 0.52386 0.56014 0.75688 0.0
C1612 C 0.53919 0.55967 0.71991 0.0
H1613 H 0.51385 0.55158 0.82887 0.0
H1614 H 0.51127 0.56876 0.75244 0.0
C1615 C 0.55312 0.54565 0.7273 0.0
C1616 C 0.39789 -0.00108 0.78182 0.0
C1617 C 0.42222 0.00563 0.80327 0.0
H1618 H 0.37047 0.97874 0.72598 0.0
C1619 C 0.43855 -0.00233 0.78021 0.0
H1620 H 0.38412 0.00351 0.79923 0.0
C1621 C 0.43075 0.98352 0.73773 0.0
C1622 C 0.40592 0.97598 0.71723 0.0
H1623 H 0.45685 0.0012 0.79646 0.0
H1624 H 0.44483 0.97973 0.71945 0.0
C1625 C 0.38927 0.98309 0.74129 0.0
C1626 C 0.58376 -0.00762 0.2493 0.0
C1627 C 0.55873 0.98031 0.22728 0.0
H1628 H 0.60663 0.01217 0.31041 0.0
C1629 C 0.53734 0.97954 0.25105 0.0
H1630 H 0.60095 -0.00545 0.23065 0.0
C1631 C 0.54083 0.9908 0.29525 0.0
C1632 C 0.56569 0.00253 0.31787 0.0
H1633 H 0.51825 0.97188 0.23397 0.0
H1634 H 0.52358 0.98916 0.31292 0.0
C1635 C 0.58741 0.00397 0.29371 0.0
C1636 C 0.96885 0.53683 0.27188 0.0
C1637 C 0.98639 0.54428 0.30941 0.0
H1638 H 0.96443 0.53184 0.19794 0.0
C1639 C 0.01311 0.55101 0.2993 0.0
H1640 H 0.94793 0.52964 0.2776 0.0
C1641 C 0.02346 0.55756 0.25375 0.0
C1642 C 0.00638 0.55335 0.21661 0.0
H1643 H 0.02716 0.55481 0.32714 0.0
H1644 H 0.04466 0.56676 0.2481 0.0
C1645 C 0.97865 0.5391 0.22615 0.0
C1646 C 0.44483 0.42791 0.22668 0.0
C1647 C 0.42777 0.43775 0.2128 0.0
H1648 H 0.45727 0.41165 0.2826 0.0
C1649 C 0.42015 0.44942 0.24736 0.0
H1650 H 0.45428 0.42175 0.20098 0.0
C1651 C 0.42728 0.44866 0.29406 0.0
C1652 C 0.43729 0.43181 0.30842 0.0
H1653 H 0.40922 0.45936 0.23847 0.0
H1654 H 0.42257 0.45944 0.31946 0.0
C1655 C 0.4473 0.42255 0.27368 0.0
C1656 C 0.30675 0.16916 0.21117 0.0
C1657 C 0.29333 0.1645 0.16842 0.0
H1658 H 0.32722 0.15697 0.25802 0.0
C1659 C 0.28658 0.14141 0.14303 0.0
H1660 H 0.31251 0.18724 0.23069 0.0
C1661 C 0.29519 0.12425 0.15857 0.0
C1662 C 0.31125 0.13074 0.19847 0.0
H1663 H 0.27675 0.13784 0.1095 0.0
H1664 H 0.28995 0.10634 0.13897 0.0
C1665 C 0.31617 0.15267 0.22563 0.0
C1666 C 0.8119 0.13254 0.19969 0.0
C1667 C 0.81563 0.13252 0.15142 0.0
H1668 H 0.81604 0.15584 0.26014 0.0
C1669 C 0.82864 0.15696 0.12742 0.0
H1670 H 0.80125 0.11402 0.21883 0.0
C1671 C 0.83489 0.18055 0.15013 0.0
C1672 C 0.83064 0.18055 0.19822 0.0
H1673 H 0.83128 0.15737 0.08988 0.0
H1674 H 0.84537 0.19907 0.13094 0.0
C1675 C 0.81852 0.15621 0.22258 0.0
C1676 C 0.8221 0.67938 0.18659 0.0
C1677 C 0.79905 0.65407 0.19063 0.0
H1678 H 0.86273 0.70163 0.16657 0.0
C1679 C 0.79905 0.63162 0.17379 0.0
H1680 H 0.8227 0.69734 0.19853 0.0
C1681 C 0.82228 0.63433 0.15514 0.0
C1682 C 0.84562 0.65953 0.1534 0.0
H1683 H 0.78152 0.61208 0.17609 0.0
H1684 H 0.82199 0.61656 0.14289 0.0
C1685 C 0.84518 0.68206 0.16812 0.0
C1686 C 0.15714 0.33123 0.2875 0.0
C1687 C 0.1448 0.34211 0.31466 0.0
H1688 H 0.17848 0.31013 0.2874 0.0
C1689 C 0.14532 0.34086 0.36334 0.0
H1690 H 0.15611 0.33127 0.24969 0.0
C1691 C 0.15677 0.32754 0.38458 0.0
C1692 C 0.16812 0.31573 0.3573 0.0
H1693 H 0.13507 0.3483 0.38471 0.0
H1694 H 0.15795 0.32755 0.42237 0.0
C1695 C 0.16834 0.31773 0.30872 0.0
C1696 C 0.66809 0.85102 0.31743 0.0
C1697 C 0.66863 0.84995 0.36611 0.0
H1698 H 0.65454 0.82877 0.25413 0.0
C1699 C 0.6578 0.82524 0.38871 0.0
H1700 H 0.67571 0.8699 0.29954 0.0
C1701 C 0.64379 0.80187 0.36336 0.0
C1702 C 0.64207 0.80288 0.31473 0.0
H1703 H 0.6575 0.82412 0.42653 0.0
H1704 H 0.63577 0.78301 0.38145 0.0
C1705 C 0.65449 0.82765 0.29192 0.0
C1706 C 0.14442 0.83567 0.40713 0.0
C1707 C 0.11908 0.8247 0.38658 0.0
H1708 H 0.18651 0.85752 0.39571 0.0
C1709 C 0.11654 0.83278 0.34187 0.0
H1710 H 0.14668 0.82948 0.44172 0.0
C1711 C 0.13929 0.84867 0.31566 0.0
C1712 C 0.16457 0.85629 0.33398 0.0
H1713 H 0.09726 0.82425 0.32522 0.0
H1714 H 0.13708 0.85353 0.28001 0.0
C1715 C 0.16711 0.85081 0.3805 0.0
C1716 C 0.64778 0.84188 0.86537 0.0
C1717 C 0.64412 0.84113 0.817 0.0
H1718 H 0.66145 0.82848 0.92287 0.0
C1719 C 0.65297 0.82731 0.78877 0.0
H1720 H 0.64232 0.85351 0.8875 0.0
C1721 C 0.66559 0.81476 0.80849 0.0
C1722 C 0.66882 0.81509 0.85686 0.0
H1723 H 0.65136 0.82749 0.75106 0.0
H1724 H 0.67087 0.80298 0.78637 0.0
C1725 C 0.66026 0.82911 0.88515 0.0
C1726 C 0.14622 0.79666 0.86695 0.0
C1727 C 0.1506 0.79057 0.8216 0.0
H1728 H 0.15514 0.82726 0.91715 0.0
C1729 C 0.1707 0.81055 0.79422 0.0
H1730 H 0.13035 0.78167 0.88824 0.0
C1731 C 0.18435 0.83673 0.8103 0.0
C1732 C 0.17763 0.8432 0.8534 0.0
H1733 H 0.17406 0.80638 0.75878 0.0
H1734 H 0.20011 0.85194 0.78919 0.0
C1735 C 0.15918 0.82287 0.88231 0.0
C1736 C 0.16141 0.34212 0.88035 0.0
C1737 C 0.13682 0.32786 0.85741 0.0
H1738 H 0.20366 0.36171 0.87382 0.0
C1739 C 0.13596 0.32616 0.80874 0.0
H1740 H 0.16233 0.34476 0.91791 0.0
C1741 C 0.15949 0.33739 0.78343 0.0
C1742 C 0.1841 0.34936 0.80673 0.0
H1743 H 0.11716 0.31667 0.7903 0.0
H1744 H 0.15847 0.33424 0.74599 0.0
C1745 C 0.18496 0.35297 0.85509 0.0
C1746 C 0.8294 0.63787 0.66337 0.0
C1747 C 0.83663 0.64698 0.70908 0.0
H1748 H 0.80817 0.63796 0.6028 0.0
C1749 C 0.82626 0.66162 0.73065 0.0
H1750 H 0.83749 0.62695 0.64592 0.0
C1751 C 0.81067 0.66902 0.70549 0.0
C1752 C 0.80458 0.66109 0.65904 0.0
H1753 H 0.83172 0.66885 0.76612 0.0
H1754 H 0.80289 0.68032 0.72257 0.0
C1755 C 0.81352 0.64501 0.63838 0.0
C1756 C 0.33607 0.16362 0.73937 0.0
C1757 C 0.34855 0.18833 0.71594 0.0
H1758 H 0.31404 0.12112 0.73258 0.0
C1759 C 0.35181 0.18893 0.66756 0.0
H1760 H 0.3332 0.16276 0.77687 0.0
C1761 C 0.33991 0.16527 0.6425 0.0
C1762 C 0.32503 0.14073 0.66554 0.0
H1763 H 0.36098 0.2076 0.64866 0.0
H1764 H 0.3422 0.16608 0.60485 0.0
C1765 C 0.32395 0.13994 0.71419 0.0
C1766 C 0.84093 0.17849 0.71178 0.0
C1767 C 0.84579 0.175 0.66512 0.0
H1768 H 0.81178 0.16877 0.76504 0.0
C1769 C 0.82431 0.16053 0.63488 0.0
H1770 H 0.85721 0.1912 0.7348 0.0
C1771 C 0.7984 0.14961 0.65115 0.0
C1772 C 0.79365 0.15161 0.69851 0.0
H1773 H 0.8276 0.15919 0.59795 0.0
H1774 H 0.78216 0.13697 0.62802 0.0
C1775 C 0.81502 0.16745 0.72808 0.0
C1776 C 0.01262 0.49995 0.53828 0.0
C1777 C -0.0061 0.47512 0.52032 0.0
H1778 H 0.02444 0.54095 0.54402 0.0
C1779 C 0.97161 0.4721 0.49605 0.0
H1780 H 0.0294 0.50246 0.55871 0.0
C1781 C 0.96838 0.49386 0.4888 0.0
C1782 C 0.98757 0.51885 0.50547 0.0
H1783 H 0.95665 0.45287 0.48283 0.0
H1784 H 0.95173 0.49135 0.46798 0.0
C1785 C 0.00937 0.52169 0.53113 0.0
C1786 C 0.51297 0.49923 0.52874 0.0
C1787 C 0.50988 0.5214 0.53695 0.0
H1788 H 0.49473 0.45892 0.50628 0.0
C1789 C 0.48525 0.51952 0.52966 0.0
H1790 H 0.53174 0.50001 0.53454 0.0
C1791 C 0.46401 0.49585 0.51436 0.0
C1792 C 0.46715 0.47378 0.50555 0.0
H1793 H 0.48218 0.53612 0.53645 0.0
H1794 H 0.44523 0.49511 0.50871 0.0
C1795 C 0.49172 0.47555 0.51317 0.0
C1796 C 0.48752 0.98756 0.46485 0.0
C1797 C 0.51127 0.0033 0.48966 0.0
H1798 H 0.445 0.96819 0.46569 0.0
C1799 C 0.51068 0.01321 0.53354 0.0
H1800 H 0.48786 0.97928 0.43109 0.0
C1801 C 0.48635 0.00602 0.5538 0.0
C1802 C 0.4624 0.98917 0.53006 0.0
H1803 H 0.52875 0.0246 0.55356 0.0
H1804 H 0.48624 0.0135 0.58842 0.0
C1805 C 0.46312 0.98035 0.48511 0.0
C1806 C 0.47784 0.97936 0.97547 0.0
C1807 C 0.4682 -0.00516 0.99629 0.0
H1808 H 0.50025 0.95969 0.98453 0.0
C1809 C 0.47121 -0.00027 0.04424 0.0
H1810 H 0.47465 0.9744 0.93867 0.0
C1811 C 0.48443 0.98998 0.07079 0.0
C1812 C 0.49566 0.97606 0.04937 0.0
H1813 H 0.46268 0.01036 0.06134 0.0
H1814 H 0.48787 -0.00477 0.10747 0.0
C1815 C 0.49133 0.96987 1.00192 0.0
C1816 C 0.96382 0.48663 0.03322 0.0
C1817 C 0.98644 0.5116 0.02537 0.0
H1818 H 0.94285 0.44557 0.01491 0.0
C1819 C 0.00421 0.51497 0.98961 0.0
H1820 H 0.94974 0.48364 0.06063 0.0
C1821 C 9e-05 0.49332 0.96329 0.0
C1822 C 0.97834 0.46803 0.9729 0.0
H1823 H 0.02142 0.53421 0.98231 0.0
H1824 H 0.01443 0.49629 0.93637 0.0
C1825 C 0.95976 0.4649 1.007 0.0
C1826 C 0.46938 0.49277 0.03868 0.0
C1827 C 0.46337 0.46789 0.02118 0.0
H1828 H 0.4985 0.53384 0.04391 0.0
C1829 C 0.48245 0.46499 0.99601 0.0
H1830 H 0.45523 0.49522 0.0596 0.0
C1831 C 0.50733 0.48684 0.98811 0.0
C1832 C 0.51322 0.51178 1.00511 0.0
H1833 H 0.47818 0.44575 0.98293 0.0
H1834 H 0.52144 0.48442 0.96699 0.0
C1835 C 0.49428 0.51459 0.03091 0.0
C1836 C 0.39425 0.04618 0.10062 0.0
C1837 C 0.40898 0.06185 0.06212 0.0
H1838 H 0.37373 0.04309 0.16466 0.0
C1839 C 0.41604 0.089 0.06311 0.0
H1840 H 0.38822 0.02529 0.10204 0.0
C1841 C 0.40776 0.09952 0.10054 0.0
C1842 C 0.39208 0.08317 0.13785 0.0
H1843 H 0.42716 0.10188 0.03434 0.0
H1844 H 0.41265 0.12009 0.0992 0.0
C1845 C 0.38589 0.05648 0.13713 0.0
C1846 C 0.88155 0.31471 0.10641 0.0
C1847 C 0.89903 0.3069 0.12578 0.0
H1848 H 0.87524 0.33754 0.05283 0.0
C1849 C 0.92435 0.31774 0.10526 0.0
H1850 H 0.86178 0.30675 0.12078 0.0
C1851 C 0.93218 0.33563 0.06764 0.0
C1852 C 0.91492 0.34325 0.04729 0.0
H1853 H 0.93852 0.31248 0.1187 0.0
H1854 H 0.95202 0.34321 0.05377 0.0
C1855 C 0.88923 0.33229 0.06714 0.0
C1856 C 0.63952 0.55433 0.0801 0.0
C1857 C 0.63953 0.57191 0.04586 0.0
H1858 H 0.65613 0.55021 0.14544 0.0
C1859 C 0.65819 0.59903 0.05098 0.0
H1860 H 0.62506 0.53333 0.07801 0.0
C1861 C 0.67575 0.60857 0.08891 0.0
C1862 C 0.6754 0.59159 0.12447 0.0
H1863 H 0.65864 0.61328 0.02607 0.0
H1864 H 0.68914 0.62983 0.09099 0.0
C1865 C 0.65723 0.56407 0.11905 0.0
C1866 C 0.0771 0.42256 0.38345 0.0
C1867 C 0.08059 0.40032 0.38858 0.0
H1868 H 0.06508 0.4485 0.41602 0.0
C1869 C 0.07785 0.38988 0.43412 0.0
H1870 H 0.07862 0.43106 0.34917 0.0
C1871 C 0.07075 0.40027 0.4725 0.0
C1872 C 0.06583 0.42148 0.46714 0.0
H1873 H 0.08011 0.37271 0.43992 0.0
H1874 H 0.0674 0.39048 0.50605 0.0
C1875 C 0.06943 0.43268 0.422 0.0
C1876 C 0.55043 0.65439 0.45242 0.0
C1877 C 0.56656 0.64579 0.47467 0.0
H1878 H 0.54667 0.67703 0.39539 0.0
C1879 C 0.59189 0.65457 0.45518 0.0
H1880 H 0.53076 0.64808 0.4659 0.0
C1881 C 0.60103 0.67125 0.41599 0.0
C1882 C 0.58521 0.67977 0.3931 0.0
H1883 H 0.60517 0.6487 0.47069 0.0
H1884 H 0.6208 0.67734 0.40318 0.0
C1885 C 0.55951 0.67087 0.41167 0.0
C1886 C 0.31958 0.89443 0.44676 0.0
C1887 C 0.33109 0.92117 0.46211 0.0
H1888 H 0.29213 0.86386 0.39881 0.0
C1889 C 0.32214 0.93686 0.43976 0.0
H1890 H 0.32576 0.8815 0.46261 0.0
C1891 C 0.30272 0.92674 0.40453 0.0
C1892 C 0.29122 0.90033 0.38841 0.0
H1893 H 0.33 0.95741 0.44995 0.0
H1894 H 0.29692 0.94013 0.3893 0.0
C1895 C 0.30024 0.88428 0.4099 0.0
C1896 C 0.58891 0.90128 0.94234 0.0
C1897 C 0.58863 0.90946 0.89608 0.0
H1898 H 0.58022 0.90366 0.01492 0.0
C1899 C 0.57736 0.92559 0.88806 0.0
H1900 H 0.5976 0.88901 0.94981 0.0
C1901 C 0.56815 0.93461 0.92539 0.0
C1902 C 0.5691 0.92716 0.97191 0.0
H1903 H 0.57716 0.93262 0.85311 0.0
H1904 H 0.56108 0.94827 0.91795 0.0
C1905 C 0.57882 0.9096 0.97968 0.0
C1906 C 0.04695 0.64876 0.95994 0.0
C1907 C 0.06072 0.63538 0.97171 0.0
H1908 H 0.04362 0.67661 0.91574 0.0
C1909 C 0.08326 0.64102 0.94452 0.0
H1910 H 0.02956 0.64518 0.97968 0.0
C1911 C 0.09106 0.65899 0.90598 0.0
C1912 C 0.07709 0.67241 0.89498 0.0
H1913 H 0.09436 0.6311 0.95217 0.0
H1914 H 0.10812 0.66259 0.88526 0.0
C1915 C 0.05511 0.66702 0.92303 0.0
C1916 C 0.32285 0.41846 0.89629 0.0
C1917 C 0.30258 0.39149 0.89276 0.0
H1918 H 0.35601 0.44835 0.93666 0.0
C1919 C 0.29974 0.37479 0.93074 0.0
H1920 H 0.32587 0.43208 0.86806 0.0
C1921 C 0.31684 0.38401 0.96943 0.0
C1922 C 0.33743 0.41056 0.97288 0.0
H1923 H 0.28473 0.35392 0.92998 0.0
H1924 H 0.3145 0.36987 0.99631 0.0
C1925 C 0.34001 0.42789 0.93595 0.0
C1926 C 0.90054 0.57279 0.61527 0.0
C1927 C 0.90764 0.59988 0.61799 0.0
H1928 H 0.90331 0.54234 0.57605 0.0
C1929 C 0.92126 0.61613 0.57942 0.0
H1930 H 0.89015 0.55954 0.64408 0.0
C1931 C 0.92873 0.60635 0.54097 0.0
C1932 C 0.92255 0.57971 0.53857 0.0
H1933 H 0.92732 0.63704 0.57963 0.0
H1934 H 0.94049 0.62013 0.5136 0.0
C1935 C 0.90788 0.56283 0.57598 0.0
C1936 C 0.41882 0.32349 0.61934 0.0
C1937 C 0.39196 0.31133 0.63407 0.0
H1938 H 0.44889 0.35048 0.57028 0.0
C1939 C 0.37528 0.31809 0.60942 0.0
H1940 H 0.43237 0.31878 0.6371 0.0
C1941 C 0.38473 0.33636 0.57241 0.0
C1942 C 0.41129 0.34852 0.55693 0.0
H1943 H 0.35461 0.30948 0.61936 0.0
H1944 H 0.37081 0.34091 0.55549 0.0
C1945 C 0.42828 0.34155 0.58069 0.0
C1946 C 0.62613 0.05438 0.61399 0.0
C1947 C 0.63374 0.0601 0.56677 0.0
H1948 H 0.63857 0.05941 0.68583 0.0
C1949 C 0.6606 0.0783 0.55692 0.0
H1950 H 0.60566 0.04039 0.62287 0.0
C1951 C 0.67962 0.08865 0.59303 0.0
C1952 C 0.67219 0.08185 0.64008 0.0
H1953 H 0.66727 0.083 0.52106 0.0
H1954 H 0.70039 0.10101 0.58394 0.0
C1955 C 0.64501 0.06544 0.65018 0.0
C1956 C 0.74299 0.71932 0.76844 0.0
C1957 C 0.74805 0.73043 0.72315 0.0
H1958 H 0.72949 0.71933 0.83843 0.0
C1959 C 0.74493 0.75276 0.71626 0.0
H1960 H 0.74471 0.70192 0.77527 0.0
C1961 C 0.7354 0.76239 0.75272 0.0
C1962 C 0.72965 0.75065 0.79759 0.0
H1963 H 0.74813 0.76168 0.68194 0.0
H1964 H 0.73162 0.77847 0.74534 0.0
C1965 C 0.73431 0.72942 0.805 0.0
C1966 C 0.26433 0.00271 0.74175 0.0
C1967 C 0.24824 0.01187 0.72154 0.0
H1968 H 0.26879 0.97762 0.79126 0.0
C1969 C 0.2222 0.00095 0.74021 0.0
H1970 H 0.28436 0.01007 0.72901 0.0
C1971 C 0.21315 0.98209 0.77798 0.0
C1972 C 0.22952 0.97284 0.79737 0.0
H1973 H 0.20892 0.00719 0.72613 0.0
H1974 H 0.19322 0.97447 0.79136 0.0
C1975 C 0.25521 0.98369 0.77796 0.0
C1976 C -0.00217 0.25465 0.7075 0.0
C1977 C 0.97265 0.23216 0.71485 0.0
H1978 H 0.03537 0.28347 0.73685 0.0
C1979 C 0.96769 0.2198 0.7591 0.0
H1980 H 0.00221 0.26523 0.67459 0.0
C1981 C 0.98716 0.23003 0.79504 0.0
C1982 C 0.01184 0.25352 0.78829 0.0
H1983 H 0.94834 0.20283 0.76654 0.0
H1984 H 0.98217 0.22059 0.82902 0.0
C1985 C 0.01689 0.26524 0.74355 0.0
C1986 C 0.22444 0.24199 0.20858 0.0
C1987 C 0.23633 0.22649 0.21731 0.0
H1988 H 0.20802 0.2647 0.23796 0.0
C1989 C 0.23639 0.21836 0.2637 0.0
H1990 H 0.22451 0.2491 0.17359 0.0
C1991 C 0.2261 0.22663 0.30062 0.0
C1992 C 0.2163 0.24402 0.29233 0.0
H1993 H 0.24568 0.20669 0.27178 0.0
H1994 H 0.22801 0.22129 0.33606 0.0
C1995 C 0.21498 0.25097 0.24562 0.0
C1996 C 0.71133 -0.00222 0.24004 0.0
C1997 C 0.73725 0.00786 0.2228 0.0
H1998 H 0.68113 0.97165 0.2876 0.0
C1999 C 0.75316 -0.00147 0.24322 0.0
H2000 H 0.69844 0.00436 0.22526 0.0
C2001 C 0.7433 0.98001 0.28077 0.0
C2002 C 0.71705 0.96981 0.29722 0.0
H2003 H 0.77328 0.00595 0.23098 0.0
H2004 H 0.75595 0.97337 0.29627 0.0
C2005 C 0.70134 0.97892 0.27592 0.0
C2006 C 0.00995 0.76189 0.25928 0.0
C2007 C 0.00078 0.75379 0.30534 0.0
H2008 H 0.00025 0.75889 0.18605 0.0
C2009 C 0.97314 0.73815 0.31213 0.0
H2010 H 0.03107 0.77366 0.25252 0.0
C2011 C 0.95551 0.72912 0.27379 0.0
C2012 C 0.96478 0.73617 0.22754 0.0
H2013 H 0.96526 0.73106 0.34675 0.0
H2014 H 0.93464 0.71535 0.28015 0.0
C2015 C -0.0078 0.75355 0.22104 0.0
loop_
_geom_bond_atom_site_label_1
_geom_bond_atom_site_label_2
_geom_bond_distance
_geom_bond_site_symmetry_2
_ccdc_geom_bond_type
Mn0 O5 2.095 . S
Mn0 O15 2.162 . S
Mn0 O16 2.297 . S
Mn0 O24 2.385 . S
Mn0 O25 2.209 . S
Mn0 O26 2.094 . S
Mn1 O6 2.121 . S
Mn1 N8 2.257 . S
Mn1 N17 2.282 . S
Mn1 O25 2.215 . S
Mn1 O27 2.117 . S
C2 O24 1.234 . S
C2 O25 1.283 . S
C3 O15 1.281 . S
C3 O16 1.236 . S
C4 O26 1.240 . S
C4 O27 1.264 . S
O5 Mn0 2.095 . S
O5 C14 1.250 . S
O6 Mn1 2.121 . S
O6 C14 1.258 . S
C7 N8 1.326 . S
C7 C11 1.460 . S
C7 H13 0.929 . S
N8 Mn1 2.257 . S
N8 C7 1.326 . S
N8 C12 1.362 . S
C9 C10 1.258 . S
C9 C12 1.431 . S
C9 C29 1.449 1_545 S
C10 C9 1.258 . S
C10 C11 1.477 . S
C10 H30 0.931 . S
C11 C7 1.460 . S
C11 C10 1.477 . S
C11 H31 0.930 . S
C12 N8 1.362 . S
C12 C9 1.431 . S
C12 C22 1.476 . S
H13 C7 0.929 . S
C14 O5 1.250 . S
C14 O6 1.258 . S
O15 Mn0 2.162 . S
O15 C3 1.281 . S
O16 Mn0 2.297 . S
O16 C3 1.236 . S
N17 Mn1 2.282 . S
N17 C18 1.328 . S
N17 C22 1.318 . S
C18 N17 1.328 . S
C18 C19 1.457 . S
C18 H23 0.929 . S
C19 C18 1.457 . S
C19 C20 1.291 1_545 S
C19 H32 0.931 . S
C20 C19 1.291 1_565 S
C20 C21 1.350 1_565 S
C20 H33 0.929 . S
C21 C20 1.350 1_545 S
C21 C22 1.427 . S
C21 C28 1.395 1_545 S
C22 C12 1.476 . S
C22 N17 1.318 . S
C22 C21 1.427 . S
H23 C18 0.929 . S
O24 Mn0 2.385 . S
O24 C2 1.234 . S
O25 Mn0 2.209 . S
O25 Mn1 2.215 . S
O25 C2 1.283 . S
O26 Mn0 2.094 . S
O26 C4 1.240 . S
O27 Mn1 2.117 . S
O27 C4 1.264 . S
C28 C21 1.395 1_565 S
C28 C29 1.399 . S
C28 H34 0.929 . S
C29 C9 1.449 1_565 S
C29 C28 1.399 . S
C29 H35 0.930 . S
H30 C10 0.931 . S
H31 C11 0.930 . S
H32 C19 0.931 . S
H33 C20 0.929 . S
H34 C28 0.929 . S
H35 C29 0.930 . S
Mn36 O41 2.095 . S
Mn36 O51 2.162 . S
Mn36 O52 2.297 . S
Mn36 O60 2.385 . S
Mn36 O61 2.209 . S
Mn36 O62 2.094 . S
Mn37 O42 2.121 . S
Mn37 N44 2.257 . S
Mn37 N53 2.282 . S
Mn37 O61 2.215 . S
Mn37 O63 2.117 . S
C38 O60 1.234 . S
C38 O61 1.283 . S
C39 O51 1.281 . S
C39 O52 1.236 . S
C40 O62 1.240 . S
C40 O63 1.264 . S
O41 Mn36 2.095 . S
O41 C50 1.250 . S
O42 Mn37 2.121 . S
O42 C50 1.258 . S
C43 N44 1.326 . S
C43 C47 1.460 . S
C43 H49 0.929 . S
N44 Mn37 2.257 . S
N44 C43 1.326 . S
N44 C48 1.362 . S
C45 C46 1.258 . S
C45 C48 1.431 . S
C45 C65 1.449 1_655 S
C46 C45 1.258 . S
C46 C47 1.477 . S
C46 H66 0.931 . S
C47 C43 1.460 . S
C47 C46 1.477 . S
C47 H67 0.930 . S
C48 N44 1.362 . S
C48 C45 1.431 . S
C48 C58 1.476 . S
H49 C43 0.929 . S
C50 O41 1.250 . S
C50 O42 1.258 . S
O51 Mn36 2.162 . S
O51 C39 1.281 . S
O52 Mn36 2.297 . S
O52 C39 1.236 . S
N53 Mn37 2.282 . S
N53 C54 1.328 . S
N53 C58 1.318 . S
C54 N53 1.328 . S
C54 C55 1.457 . S
C54 H59 0.929 . S
C55 C54 1.457 . S
C55 C56 1.291 1_655 S
C55 H68 0.931 . S
C56 C55 1.291 1_455 S
C56 C57 1.379 1_455 S
C56 H69 0.929 . S
C57 C56 1.379 1_655 S
C57 C58 1.431 . S
C57 C64 1.365 1_655 S
C58 C48 1.476 . S
C58 N53 1.318 . S
C58 C57 1.431 . S
H59 C54 0.929 . S
O60 Mn36 2.385 . S
O60 C38 1.234 . S
O61 Mn36 2.209 . S
O61 Mn37 2.215 . S
O61 C38 1.283 . S
O62 Mn36 2.094 . S
O62 C40 1.240 . S
O63 Mn37 2.117 . S
O63 C40 1.264 . S
C64 C57 1.365 1_455 S
C64 C65 1.399 . S
C64 H70 0.929 . S
C65 C45 1.449 1_455 S
C65 C64 1.399 . S
C65 H71 0.930 . S
H66 C46 0.931 . S
H67 C47 0.930 . S
H68 C55 0.931 . S
H69 C56 0.929 . S
H70 C64 0.929 . S
H71 C65 0.930 . S
Mn72 O77 2.095 . S
Mn72 O87 2.162 . S
Mn72 O88 2.297 . S
Mn72 O96 2.385 . S
Mn72 O97 2.209 . S
Mn72 O98 2.094 . S
Mn73 O78 2.121 . S
Mn73 N80 2.257 . S
Mn73 N89 2.282 . S
Mn73 O97 2.215 . S
Mn73 O99 2.117 . S
C74 O96 1.234 . S
C74 O97 1.283 . S
C75 O87 1.281 . S
C75 O88 1.236 . S
C76 O98 1.240 . S
C76 O99 1.264 . S
O77 Mn72 2.095 . S
O77 C86 1.250 . S
O78 Mn73 2.121 . S
O78 C86 1.258 . S
C79 N80 1.326 . S
C79 C83 1.460 . S
C79 H85 0.929 . S
N80 Mn73 2.257 . S
N80 C79 1.326 . S
N80 C84 1.362 . S
C81 C82 1.258 . S
C81 C84 1.431 . S
C81 C101 1.449 . S
C82 C81 1.258 . S
C82 C83 1.477 . S
C82 H102 0.931 . S
C83 C79 1.460 . S
C83 C82 1.477 . S
C83 H103 0.930 . S
C84 N80 1.362 . S
C84 C81 1.431 . S
C84 C94 1.476 . S
H85 C79 0.929 . S
C86 O77 1.250 . S
C86 O78 1.258 . S
O87 Mn72 2.162 . S
O87 C75 1.281 . S
O88 Mn72 2.297 . S
O88 C75 1.236 . S
N89 Mn73 2.282 . S
N89 C90 1.328 . S
N89 C94 1.318 . S
C90 N89 1.328 . S
C90 C91 1.457 . S
C90 H95 0.929 . S
C91 C90 1.457 . S
C91 C92 1.291 . S
C91 H104 0.931 . S
C92 C91 1.291 . S
C92 C93 1.373 . S
C92 H105 0.929 . S
C93 C92 1.373 . S
C93 C94 1.396 . S
C93 C100 1.403 . S
C94 C84 1.476 . S
C94 N89 1.318 . S
C94 C93 1.396 . S
H95 C90 0.929 . S
O96 Mn72 2.385 . S
O96 C74 1.234 . S
O97 Mn72 2.209 . S
O97 Mn73 2.215 . S
O97 C74 1.283 . S
O98 Mn72 2.094 . S
O98 C76 1.240 . S
O99 Mn73 2.117 . S
O99 C76 1.264 . S
C100 C93 1.403 . S
C100 C101 1.399 . S
C100 H106 0.929 . S
C101 C81 1.449 . S
C101 C100 1.399 . S
C101 H107 0.930 . S
H102 C82 0.931 . S
H103 C83 0.930 . S
H104 C91 0.931 . S
H105 C92 0.929 . S
H106 C100 0.929 . S
H107 C101 0.930 . S
Mn108 O113 2.095 . S
Mn108 O123 2.162 . S
Mn108 O124 2.297 . S
Mn108 O132 2.385 . S
Mn108 O133 2.209 . S
Mn108 O134 2.094 . S
Mn109 O114 2.121 . S
Mn109 N116 2.257 . S
Mn109 N125 2.282 . S
Mn109 O133 2.215 . S
Mn109 O135 2.117 . S
C110 O132 1.234 . S
C110 O133 1.283 . S
C111 O123 1.281 . S
C111 O124 1.236 . S
C112 O134 1.240 . S
C112 O135 1.264 . S
O113 Mn108 2.095 . S
O113 C122 1.250 . S
O114 Mn109 2.121 . S
O114 C122 1.258 . S
C115 N116 1.326 . S
C115 C119 1.460 . S
C115 H121 0.929 . S
N116 Mn109 2.257 . S
N116 C115 1.326 . S
N116 C120 1.362 . S
C117 C118 1.258 . S
C117 C120 1.431 . S
C117 C137 1.449 1_455 S
C118 C117 1.258 . S
C118 C119 1.477 . S
C118 H138 0.931 . S
C119 C115 1.460 . S
C119 C118 1.477 . S
C119 H139 0.930 . S
C120 N116 1.362 . S
C120 C117 1.431 . S
C120 C130 1.476 . S
H121 C115 0.929 . S
C122 O113 1.250 . S
C122 O114 1.258 . S
O123 Mn108 2.162 . S
O123 C111 1.281 . S
O124 Mn108 2.297 . S
O124 C111 1.236 . S
N125 Mn109 2.282 . S
N125 C126 1.328 . S
N125 C130 1.318 . S
C126 N125 1.328 . S
C126 C127 1.457 . S
C126 H131 0.929 . S
C127 C126 1.457 . S
C127 C128 1.291 1_455 S
C127 H140 0.931 . S
C128 C127 1.291 1_655 S
C128 C129 1.350 1_655 S
C128 H141 0.929 . S
C129 C128 1.350 1_455 S
C129 C130 1.427 . S
C129 C136 1.395 1_455 S
C130 C120 1.476 . S
C130 N125 1.318 . S
C130 C129 1.427 . S
H131 C126 0.929 . S
O132 Mn108 2.385 . S
O132 C110 1.234 . S
O133 Mn108 2.209 . S
O133 Mn109 2.215 . S
O133 C110 1.283 . S
O134 Mn108 2.094 . S
O134 C112 1.240 . S
O135 Mn109 2.117 . S
O135 C112 1.264 . S
C136 C129 1.395 1_655 S
C136 C137 1.399 . S
C136 H142 0.929 . S
C137 C117 1.449 1_655 S
C137 C136 1.399 . S
C137 H143 0.930 . S
H138 C118 0.931 . S
H139 C119 0.930 . S
H140 C127 0.931 . S
H141 C128 0.929 . S
H142 C136 0.929 . S
H143 C137 0.930 . S
Mn144 O149 2.095 . S
Mn144 O159 2.162 . S
Mn144 O160 2.297 . S
Mn144 O168 2.385 . S
Mn144 O169 2.209 . S
Mn144 O170 2.094 . S
Mn145 O150 2.121 . S
Mn145 N152 2.257 . S
Mn145 N161 2.282 . S
Mn145 O169 2.215 . S
Mn145 O171 2.117 . S
C146 O168 1.234 . S
C146 O169 1.283 . S
C147 O159 1.281 . S
C147 O160 1.236 . S
C148 O170 1.240 . S
C148 O171 1.264 . S
O149 Mn144 2.095 . S
O149 C158 1.250 . S
O150 Mn145 2.121 . S
O150 C158 1.258 . S
C151 N152 1.326 . S
C151 C155 1.460 . S
C151 H157 0.929 . S
N152 Mn145 2.257 . S
N152 C151 1.326 . S
N152 C156 1.362 . S
C153 C154 1.258 . S
C153 C156 1.431 . S
C153 C173 1.449 . S
C154 C153 1.258 . S
C154 C155 1.477 . S
C154 H174 0.931 . S
C155 C151 1.460 . S
C155 C154 1.477 . S
C155 H175 0.930 . S
C156 N152 1.362 . S
C156 C153 1.431 . S
C156 C166 1.476 . S
H157 C151 0.929 . S
C158 O149 1.250 . S
C158 O150 1.258 . S
O159 Mn144 2.162 . S
O159 C147 1.281 . S
O160 Mn144 2.297 . S
O160 C147 1.236 . S
N161 Mn145 2.282 . S
N161 C162 1.328 . S
N161 C166 1.318 . S
C162 N161 1.328 . S
C162 C163 1.457 . S
C162 H167 0.929 . S
C163 C162 1.457 . S
C163 C164 1.291 . S
C163 H176 0.931 . S
C164 C163 1.291 . S
C164 C165 1.373 . S
C164 H177 0.929 . S
C165 C164 1.373 . S
C165 C166 1.396 . S
C165 C172 1.403 . S
C166 C156 1.476 . S
C166 N161 1.318 . S
C166 C165 1.396 . S
H167 C162 0.929 . S
O168 Mn144 2.385 . S
O168 C146 1.234 . S
O169 Mn144 2.209 . S
O169 Mn145 2.215 . S
O169 C146 1.283 . S
O170 Mn144 2.094 . S
O170 C148 1.240 . S
O171 Mn145 2.117 . S
O171 C148 1.264 . S
C172 C165 1.403 . S
C172 C173 1.399 . S
C172 H178 0.929 . S
C173 C153 1.449 . S
C173 C172 1.399 . S
C173 H179 0.930 . S
H174 C154 0.931 . S
H175 C155 0.930 . S
H176 C163 0.931 . S
H177 C164 0.929 . S
H178 C172 0.929 . S
H179 C173 0.930 . S
Mn180 O185 2.095 . S
Mn180 O195 2.162 . S
Mn180 O196 2.297 . S
Mn180 O204 2.385 . S
Mn180 O205 2.209 . S
Mn180 O206 2.094 . S
Mn181 O186 2.121 . S
Mn181 N188 2.257 . S
Mn181 N197 2.282 . S
Mn181 O205 2.215 . S
Mn181 O207 2.117 . S
C182 O204 1.234 . S
C182 O205 1.283 . S
C183 O195 1.281 . S
C183 O196 1.236 . S
C184 O206 1.240 . S
C184 O207 1.264 . S
O185 Mn180 2.095 . S
O185 C194 1.250 . S
O186 Mn181 2.121 . S
O186 C194 1.258 . S
C187 N188 1.326 . S
C187 C191 1.460 . S
C187 H193 0.929 . S
N188 Mn181 2.257 . S
N188 C187 1.326 . S
N188 C192 1.362 . S
C189 C190 1.258 . S
C189 C192 1.431 . S
C189 C209 1.449 1_565 S
C190 C189 1.258 . S
C190 C191 1.477 . S
C190 H210 0.931 . S
C191 C187 1.460 . S
C191 C190 1.477 . S
C191 H211 0.930 . S
C192 N188 1.362 . S
C192 C189 1.431 . S
C192 C202 1.476 . S
H193 C187 0.929 . S
C194 O185 1.250 . S
C194 O186 1.258 . S
O195 Mn180 2.162 . S
O195 C183 1.281 . S
O196 Mn180 2.297 . S
O196 C183 1.236 . S
N197 Mn181 2.282 . S
N197 C198 1.328 . S
N197 C202 1.318 . S
C198 N197 1.328 . S
C198 C199 1.457 . S
C198 H203 0.929 . S
C199 C198 1.457 . S
C199 C200 1.291 1_565 S
C199 H212 0.931 . S
C200 C199 1.291 1_545 S
C200 C201 1.379 1_545 S
C200 H213 0.929 . S
C201 C200 1.379 1_565 S
C201 C202 1.431 . S
C201 C208 1.365 1_565 S
C202 C192 1.476 . S
C202 N197 1.318 . S
C202 C201 1.431 . S
H203 C198 0.929 . S
O204 Mn180 2.385 . S
O204 C182 1.234 . S
O205 Mn180 2.209 . S
O205 Mn181 2.215 . S
O205 C182 1.283 . S
O206 Mn180 2.094 . S
O206 C184 1.240 . S
O207 Mn181 2.117 . S
O207 C184 1.264 . S
C208 C201 1.365 1_545 S
C208 C209 1.399 . S
C208 H214 0.929 . S
C209 C189 1.449 1_545 S
C209 C208 1.399 . S
C209 H215 0.930 . S
H210 C190 0.931 . S
H211 C191 0.930 . S
H212 C199 0.931 . S
H213 C200 0.929 . S
H214 C208 0.929 . S
H215 C209 0.930 . S
Mn216 O221 2.095 . S
Mn216 O231 2.162 . S
Mn216 O232 2.297 . S
Mn216 O240 2.385 . S
Mn216 O241 2.209 . S
Mn216 O242 2.094 . S
Mn217 O222 2.121 . S
Mn217 N224 2.257 . S
Mn217 N233 2.282 . S
Mn217 O241 2.215 . S
Mn217 O243 2.117 . S
C218 O240 1.234 . S
C218 O241 1.283 . S
C219 O231 1.281 . S
C219 O232 1.236 . S
C220 O242 1.240 . S
C220 O243 1.264 . S
O221 Mn216 2.095 . S
O221 C230 1.250 . S
O222 Mn217 2.121 . S
O222 C230 1.258 . S
C223 N224 1.326 . S
C223 C227 1.460 . S
C223 H229 0.929 . S
N224 Mn217 2.257 . S
N224 C223 1.326 . S
N224 C228 1.362 . S
C225 C226 1.258 . S
C225 C228 1.431 . S
C225 C245 1.449 1_565 S
C226 C225 1.258 . S
C226 C227 1.477 . S
C226 H246 0.931 . S
C227 C223 1.460 . S
C227 C226 1.477 . S
C227 H247 0.930 . S
C228 N224 1.362 . S
C228 C225 1.431 . S
C228 C238 1.476 . S
H229 C223 0.929 . S
C230 O221 1.250 . S
C230 O222 1.258 . S
O231 Mn216 2.162 . S
O231 C219 1.281 . S
O232 Mn216 2.297 . S
O232 C219 1.236 . S
N233 Mn217 2.282 . S
N233 C234 1.328 . S
N233 C238 1.318 . S
C234 N233 1.328 . S
C234 C235 1.457 . S
C234 H239 0.929 . S
C235 C234 1.457 . S
C235 C236 1.291 1_565 S
C235 H248 0.931 . S
C236 C235 1.291 1_545 S
C236 C237 1.350 1_545 S
C236 H249 0.929 . S
C237 C236 1.350 1_565 S
C237 C238 1.427 . S
C237 C244 1.395 1_565 S
C238 C228 1.476 . S
C238 N233 1.318 . S
C238 C237 1.427 . S
H239 C234 0.929 . S
O240 Mn216 2.385 . S
O240 C218 1.234 . S
O241 Mn216 2.209 . S
O241 Mn217 2.215 . S
O241 C218 1.283 . S
O242 Mn216 2.094 . S
O242 C220 1.240 . S
O243 Mn217 2.117 . S
O243 C220 1.264 . S
C244 C237 1.395 1_545 S
C244 C245 1.399 . S
C244 H250 0.929 . S
C245 C225 1.449 1_545 S
C245 C244 1.399 . S
C245 H251 0.930 . S
H246 C226 0.931 . S
H247 C227 0.930 . S
H248 C235 0.931 . S
H249 C236 0.929 . S
H250 C244 0.929 . S
H251 C245 0.930 . S
Mn252 O257 2.095 . S
Mn252 O267 2.162 . S
Mn252 O268 2.297 . S
Mn252 O276 2.385 . S
Mn252 O277 2.209 . S
Mn252 O278 2.094 . S
Mn253 O258 2.121 . S
Mn253 N260 2.257 . S
Mn253 N269 2.282 . S
Mn253 O277 2.215 . S
Mn253 O279 2.117 . S
C254 O276 1.234 . S
C254 O277 1.283 . S
C255 O267 1.281 . S
C255 O268 1.236 . S
C256 O278 1.240 . S
C256 O279 1.264 . S
O257 Mn252 2.095 . S
O257 C266 1.250 . S
O258 Mn253 2.121 . S
O258 C266 1.258 . S
C259 N260 1.326 . S
C259 C263 1.460 . S
C259 H265 0.929 . S
N260 Mn253 2.257 . S
N260 C259 1.326 . S
N260 C264 1.362 . S
C261 C262 1.258 . S
C261 C264 1.431 . S
C261 C281 1.449 1_455 S
C262 C261 1.258 . S
C262 C263 1.477 . S
C262 H282 0.931 . S
C263 C259 1.460 . S
C263 C262 1.477 . S
C263 H283 0.930 . S
C264 N260 1.362 . S
C264 C261 1.431 . S
C264 C274 1.476 . S
H265 C259 0.929 . S
C266 O257 1.250 . S
C266 O258 1.258 . S
O267 Mn252 2.162 . S
O267 C255 1.281 . S
O268 Mn252 2.297 . S
O268 C255 1.236 . S
N269 Mn253 2.282 . S
N269 C270 1.328 . S
N269 C274 1.318 . S
C270 N269 1.328 . S
C270 C271 1.457 . S
C270 H275 0.929 . S
C271 C270 1.457 . S
C271 C272 1.291 1_455 S
C271 H284 0.931 . S
C272 C271 1.291 1_655 S
C272 C273 1.379 1_655 S
C272 H285 0.929 . S
C273 C272 1.379 1_455 S
C273 C274 1.431 . S
C273 C280 1.365 1_455 S
C274 C264 1.476 . S
C274 N269 1.318 . S
C274 C273 1.431 . S
H275 C270 0.929 . S
O276 Mn252 2.385 . S
O276 C254 1.234 . S
O277 Mn252 2.209 . S
O277 Mn253 2.215 . S
O277 C254 1.283 . S
O278 Mn252 2.094 . S
O278 C256 1.240 . S
O279 Mn253 2.117 . S
O279 C256 1.264 . S
C280 C273 1.365 1_655 S
C280 C281 1.399 . S
C280 H286 0.929 . S
C281 C261 1.449 1_655 S
C281 C280 1.399 . S
C281 H287 0.930 . S
H282 C262 0.931 . S
H283 C263 0.930 . S
H284 C271 0.931 . S
H285 C272 0.929 . S
H286 C280 0.929 . S
H287 C281 0.930 . S
Mn288 O293 2.095 . S
Mn288 O303 2.162 . S
Mn288 O304 2.297 . S
Mn288 O312 2.385 . S
Mn288 O313 2.209 . S
Mn288 O314 2.094 . S
Mn289 O294 2.121 . S
Mn289 N296 2.257 . S
Mn289 N305 2.282 . S
Mn289 O313 2.215 . S
Mn289 O315 2.117 . S
C290 O312 1.234 . S
C290 O313 1.283 . S
C291 O303 1.281 . S
C291 O304 1.236 . S
C292 O314 1.240 . S
C292 O315 1.264 . S
O293 Mn288 2.095 . S
O293 C302 1.250 . S
O294 Mn289 2.121 . S
O294 C302 1.258 . S
C295 N296 1.326 . S
C295 C299 1.460 . S
C295 H301 0.929 . S
N296 Mn289 2.257 . S
N296 C295 1.326 . S
N296 C300 1.362 . S
C297 C298 1.258 . S
C297 C300 1.431 . S
C297 C317 1.449 . S
C298 C297 1.258 . S
C298 C299 1.477 . S
C298 H318 0.931 . S
C299 C295 1.460 . S
C299 C298 1.477 . S
C299 H319 0.930 . S
C300 N296 1.362 . S
C300 C297 1.431 . S
C300 C310 1.476 . S
H301 C295 0.929 . S
C302 O293 1.250 . S
C302 O294 1.258 . S
O303 Mn288 2.162 . S
O303 C291 1.281 . S
O304 Mn288 2.297 . S
O304 C291 1.236 . S
N305 Mn289 2.282 . S
N305 C306 1.328 . S
N305 C310 1.318 . S
C306 N305 1.328 . S
C306 C307 1.457 . S
C306 H311 0.929 . S
C307 C306 1.457 . S
C307 C308 1.291 . S
C307 H320 0.931 . S
C308 C307 1.291 . S
C308 C309 1.373 . S
C308 H321 0.929 . S
C309 C308 1.373 . S
C309 C310 1.396 . S
C309 C316 1.403 . S
C310 C300 1.476 . S
C310 N305 1.318 . S
C310 C309 1.396 . S
H311 C306 0.929 . S
O312 Mn288 2.385 . S
O312 C290 1.234 . S
O313 Mn288 2.209 . S
O313 Mn289 2.215 . S
O313 C290 1.283 . S
O314 Mn288 2.094 . S
O314 C292 1.240 . S
O315 Mn289 2.117 . S
O315 C292 1.264 . S
C316 C309 1.403 . S
C316 C317 1.399 . S
C316 H322 0.929 . S
C317 C297 1.449 . S
C317 C316 1.399 . S
C317 H323 0.930 . S
H318 C298 0.931 . S
H319 C299 0.930 . S
H320 C307 0.931 . S
H321 C308 0.929 . S
H322 C316 0.929 . S
H323 C317 0.930 . S
Mn324 O329 2.095 . S
Mn324 O339 2.162 . S
Mn324 O340 2.297 . S
Mn324 O348 2.385 . S
Mn324 O349 2.209 . S
Mn324 O350 2.094 . S
Mn325 O330 2.121 . S
Mn325 N332 2.257 . S
Mn325 N341 2.282 . S
Mn325 O349 2.215 . S
Mn325 O351 2.117 . S
C326 O348 1.234 . S
C326 O349 1.283 . S
C327 O339 1.281 . S
C327 O340 1.236 . S
C328 O350 1.240 . S
C328 O351 1.264 . S
O329 Mn324 2.095 . S
O329 C338 1.250 . S
O330 Mn325 2.121 . S
O330 C338 1.258 . S
C331 N332 1.326 . S
C331 C335 1.460 . S
C331 H337 0.929 . S
N332 Mn325 2.257 . S
N332 C331 1.326 . S
N332 C336 1.362 . S
C333 C334 1.258 . S
C333 C336 1.431 . S
C333 C353 1.449 1_655 S
C334 C333 1.258 . S
C334 C335 1.477 . S
C334 H354 0.931 . S
C335 C331 1.460 . S
C335 C334 1.477 . S
C335 H355 0.930 . S
C336 N332 1.362 . S
C336 C333 1.431 . S
C336 C346 1.476 . S
H337 C331 0.929 . S
C338 O329 1.250 . S
C338 O330 1.258 . S
O339 Mn324 2.162 . S
O339 C327 1.281 . S
O340 Mn324 2.297 . S
O340 C327 1.236 . S
N341 Mn325 2.282 . S
N341 C342 1.328 . S
N341 C346 1.318 . S
C342 N341 1.328 . S
C342 C343 1.457 . S
C342 H347 0.929 . S
C343 C342 1.457 . S
C343 C344 1.291 1_655 S
C343 H356 0.931 . S
C344 C343 1.291 1_455 S
C344 C345 1.350 1_455 S
C344 H357 0.929 . S
C345 C344 1.350 1_655 S
C345 C346 1.427 . S
C345 C352 1.395 1_655 S
C346 C336 1.476 . S
C346 N341 1.318 . S
C346 C345 1.427 . S
H347 C342 0.929 . S
O348 Mn324 2.385 . S
O348 C326 1.234 . S
O349 Mn324 2.209 . S
O349 Mn325 2.215 . S
O349 C326 1.283 . S
O350 Mn324 2.094 . S
O350 C328 1.240 . S
O351 Mn325 2.117 . S
O351 C328 1.264 . S
C352 C345 1.395 1_455 S
C352 C353 1.399 . S
C352 H358 0.929 . S
C353 C333 1.449 1_455 S
C353 C352 1.399 . S
C353 H359 0.930 . S
H354 C334 0.931 . S
H355 C335 0.930 . S
H356 C343 0.931 . S
H357 C344 0.929 . S
H358 C352 0.929 . S
H359 C353 0.930 . S
Mn360 O365 2.095 . S
Mn360 O375 2.162 . S
Mn360 O376 2.297 . S
Mn360 O384 2.385 . S
Mn360 O385 2.209 . S
Mn360 O386 2.094 . S
Mn361 O366 2.121 . S
Mn361 N368 2.257 . S
Mn361 N377 2.282 . S
Mn361 O385 2.215 . S
Mn361 O387 2.117 . S
C362 O384 1.234 . S
C362 O385 1.283 . S
C363 O375 1.281 . S
C363 O376 1.236 . S
C364 O386 1.240 . S
C364 O387 1.264 . S
O365 Mn360 2.095 . S
O365 C374 1.250 . S
O366 Mn361 2.121 . S
O366 C374 1.258 . S
C367 N368 1.326 . S
C367 C371 1.460 . S
C367 H373 0.929 . S
N368 Mn361 2.257 . S
N368 C367 1.326 . S
N368 C372 1.362 . S
C369 C370 1.258 . S
C369 C372 1.431 . S
C369 C389 1.449 . S
C370 C369 1.258 . S
C370 C371 1.477 . S
C370 H390 0.931 . S
C371 C367 1.460 . S
C371 C370 1.477 . S
C371 H391 0.930 . S
C372 N368 1.362 . S
C372 C369 1.431 . S
C372 C382 1.476 . S
H373 C367 0.929 . S
C374 O365 1.250 . S
C374 O366 1.258 . S
O375 Mn360 2.162 . S
O375 C363 1.281 . S
O376 Mn360 2.297 . S
O376 C363 1.236 . S
N377 Mn361 2.282 . S
N377 C378 1.328 . S
N377 C382 1.318 . S
C378 N377 1.328 . S
C378 C379 1.457 . S
C378 H383 0.929 . S
C379 C378 1.457 . S
C379 C380 1.291 . S
C379 H392 0.931 . S
C380 C379 1.291 . S
C380 C381 1.373 . S
C380 H393 0.929 . S
C381 C380 1.373 . S
C381 C382 1.396 . S
C381 C388 1.403 . S
C382 C372 1.476 . S
C382 N377 1.318 . S
C382 C381 1.396 . S
H383 C378 0.929 . S
O384 Mn360 2.385 . S
O384 C362 1.234 . S
O385 Mn360 2.209 . S
O385 Mn361 2.215 . S
O385 C362 1.283 . S
O386 Mn360 2.094 . S
O386 C364 1.240 . S
O387 Mn361 2.117 . S
O387 C364 1.264 . S
C388 C381 1.403 . S
C388 C389 1.399 . S
C388 H394 0.929 . S
C389 C369 1.449 . S
C389 C388 1.399 . S
C389 H395 0.930 . S
H390 C370 0.931 . S
H391 C371 0.930 . S
H392 C379 0.931 . S
H393 C380 0.929 . S
H394 C388 0.929 . S
H395 C389 0.930 . S
Mn396 O401 2.095 . S
Mn396 O411 2.162 . S
Mn396 O412 2.297 . S
Mn396 O420 2.385 . S
Mn396 O421 2.209 . S
Mn396 O422 2.094 . S
Mn397 O402 2.121 . S
Mn397 N404 2.257 . S
Mn397 N413 2.282 . S
Mn397 O421 2.215 . S
Mn397 O423 2.117 . S
C398 O420 1.234 . S
C398 O421 1.283 . S
C399 O411 1.281 . S
C399 O412 1.236 . S
C400 O422 1.240 . S
C400 O423 1.264 . S
O401 Mn396 2.095 . S
O401 C410 1.250 . S
O402 Mn397 2.121 . S
O402 C410 1.258 . S
C403 N404 1.326 . S
C403 C407 1.460 . S
C403 H409 0.929 . S
N404 Mn397 2.257 . S
N404 C403 1.326 . S
N404 C408 1.362 . S
C405 C406 1.258 . S
C405 C408 1.431 . S
C405 C425 1.449 1_545 S
C406 C405 1.258 . S
C406 C407 1.477 . S
C406 H426 0.931 . S
C407 C403 1.460 . S
C407 C406 1.477 . S
C407 H427 0.930 . S
C408 N404 1.362 . S
C408 C405 1.431 . S
C408 C418 1.476 . S
H409 C403 0.929 . S
C410 O401 1.250 . S
C410 O402 1.258 . S
O411 Mn396 2.162 . S
O411 C399 1.281 . S
O412 Mn396 2.297 . S
O412 C399 1.236 . S
N413 Mn397 2.282 . S
N413 C414 1.328 . S
N413 C418 1.318 . S
C414 N413 1.328 . S
C414 C415 1.457 . S
C414 H419 0.929 . S
C415 C414 1.457 . S
C415 C416 1.291 1_545 S
C415 H428 0.931 . S
C416 C415 1.291 1_565 S
C416 C417 1.379 1_565 S
C416 H429 0.929 . S
C417 C416 1.379 1_545 S
C417 C418 1.431 . S
C417 C424 1.365 1_545 S
C418 C408 1.476 . S
C418 N413 1.318 . S
C418 C417 1.431 . S
H419 C414 0.929 . S
O420 Mn396 2.385 . S
O420 C398 1.234 . S
O421 Mn396 2.209 . S
O421 Mn397 2.215 . S
O421 C398 1.283 . S
O422 Mn396 2.094 . S
O422 C400 1.240 . S
O423 Mn397 2.117 . S
O423 C400 1.264 . S
C424 C417 1.365 1_565 S
C424 C425 1.399 . S
C424 H430 0.929 . S
C425 C405 1.449 1_565 S
C425 C424 1.399 . S
C425 H431 0.930 . S
H426 C406 0.931 . S
H427 C407 0.930 . S
H428 C415 0.931 . S
H429 C416 0.929 . S
H430 C424 0.929 . S
H431 C425 0.930 . S
Mn432 O437 2.095 . S
Mn432 O447 2.162 . S
Mn432 O448 2.297 . S
Mn432 O456 2.385 . S
Mn432 O457 2.209 1_455 S
Mn432 O458 2.094 . S
Mn433 O438 2.121 . S
Mn433 N440 2.257 . S
Mn433 N449 2.282 . S
Mn433 O457 2.215 . S
Mn433 O459 2.117 1_655 S
C434 O456 1.246 . S
C434 O457 1.275 1_455 S
C435 O447 1.281 . S
C435 O448 1.236 . S
C436 O458 1.240 . S
C436 O459 1.264 . S
O437 Mn432 2.095 . S
O437 C446 1.250 . S
O438 Mn433 2.121 . S
O438 C446 1.258 1_655 S
C439 N440 1.326 . S
C439 C443 1.460 . S
C439 H445 0.929 . S
N440 Mn433 2.257 . S
N440 C439 1.326 . S
N440 C444 1.362 . S
C441 C442 1.258 . S
C441 C444 1.431 . S
C441 C461 1.449 . S
C442 C441 1.258 . S
C442 C443 1.477 . S
C442 H462 0.931 . S
C443 C439 1.460 . S
C443 C442 1.477 . S
C443 H463 0.930 . S
C444 N440 1.362 . S
C444 C441 1.431 . S
C444 C454 1.476 . S
H445 C439 0.929 . S
C446 O437 1.250 . S
C446 O438 1.258 1_455 S
O447 Mn432 2.162 . S
O447 C435 1.281 . S
O448 Mn432 2.297 . S
O448 C435 1.236 . S
N449 Mn433 2.282 . S
N449 C450 1.328 . S
N449 C454 1.318 . S
C450 N449 1.328 . S
C450 C451 1.457 . S
C450 H455 0.929 . S
C451 C450 1.457 . S
C451 C452 1.291 . S
C451 H464 0.931 . S
C452 C451 1.291 . S
C452 C453 1.373 . S
C452 H465 0.929 . S
C453 C452 1.373 . S
C453 C454 1.396 . S
C453 C460 1.403 . S
C454 C444 1.476 . S
C454 N449 1.318 . S
C454 C453 1.396 . S
H455 C450 0.929 . S
O456 Mn432 2.385 . S
O456 C434 1.246 . S
O457 Mn432 2.209 1_655 S
O457 Mn433 2.215 . S
O457 C434 1.275 1_655 S
O458 Mn432 2.094 . S
O458 C436 1.240 . S
O459 Mn433 2.117 1_455 S
O459 C436 1.264 . S
C460 C453 1.403 . S
C460 C461 1.399 . S
C460 H466 0.929 . S
C461 C441 1.449 . S
C461 C460 1.399 . S
C461 H467 0.930 . S
H462 C442 0.931 . S
H463 C443 0.930 . S
H464 C451 0.931 . S
H465 C452 0.929 . S
H466 C460 0.929 . S
H467 C461 0.930 . S
Mn468 O473 2.095 . S
Mn468 O483 2.162 . S
Mn468 O484 2.297 . S
Mn468 O492 2.385 . S
Mn468 O493 2.209 . S
Mn468 O494 2.094 . S
Mn469 O474 2.121 . S
Mn469 N476 2.257 . S
Mn469 N485 2.282 . S
Mn469 O493 2.215 . S
Mn469 O495 2.117 . S
C470 O492 1.234 . S
C470 O493 1.283 . S
C471 O483 1.281 . S
C471 O484 1.236 . S
C472 O494 1.240 . S
C472 O495 1.264 . S
O473 Mn468 2.095 . S
O473 C482 1.250 . S
O474 Mn469 2.121 . S
O474 C482 1.258 . S
C475 N476 1.326 . S
C475 C479 1.460 . S
C475 H481 0.929 . S
N476 Mn469 2.257 . S
N476 C475 1.326 . S
N476 C480 1.362 . S
C477 C478 1.258 . S
C477 C480 1.431 . S
C477 C497 1.449 . S
C478 C477 1.258 . S
C478 C479 1.477 . S
C478 H498 0.931 . S
C479 C475 1.460 . S
C479 C478 1.477 . S
C479 H499 0.930 . S
C480 N476 1.362 . S
C480 C477 1.431 . S
C480 C490 1.476 . S
H481 C475 0.929 . S
C482 O473 1.250 . S
C482 O474 1.258 . S
O483 Mn468 2.162 . S
O483 C471 1.281 . S
O484 Mn468 2.297 . S
O484 C471 1.236 . S
N485 Mn469 2.282 . S
N485 C486 1.328 . S
N485 C490 1.318 . S
C486 N485 1.328 . S
C486 C487 1.457 . S
C486 H491 0.929 . S
C487 C486 1.457 . S
C487 C488 1.291 . S
C487 H500 0.931 . S
C488 C487 1.291 . S
C488 C489 1.373 . S
C488 H501 0.929 . S
C489 C488 1.373 . S
C489 C490 1.396 . S
C489 C496 1.403 . S
C490 C480 1.476 . S
C490 N485 1.318 . S
C490 C489 1.396 . S
H491 C486 0.929 . S
O492 Mn468 2.385 . S
O492 C470 1.234 . S
O493 Mn468 2.209 . S
O493 Mn469 2.215 . S
O493 C470 1.283 . S
O494 Mn468 2.094 . S
O494 C472 1.240 . S
O495 Mn469 2.117 . S
O495 C472 1.264 . S
C496 C489 1.403 . S
C496 C497 1.399 . S
C496 H502 0.929 . S
C497 C477 1.449 . S
C497 C496 1.399 . S
C497 H503 0.930 . S
H498 C478 0.931 . S
H499 C479 0.930 . S
H500 C487 0.931 . S
H501 C488 0.929 . S
H502 C496 0.929 . S
H503 C497 0.930 . S
Mn504 O509 2.095 . S
Mn504 O519 2.162 . S
Mn504 O520 2.297 . S
Mn504 O528 2.385 . S
Mn504 O529 2.209 1_565 S
Mn504 O530 2.094 . S
Mn505 O510 2.121 . S
Mn505 N512 2.257 . S
Mn505 N521 2.282 . S
Mn505 O529 2.215 . S
Mn505 O531 2.117 1_545 S
C506 O528 1.238 . S
C506 O529 1.285 1_565 S
C507 O519 1.281 . S
C507 O520 1.236 . S
C508 O530 1.240 . S
C508 O531 1.264 . S
O509 Mn504 2.095 . S
O509 C518 1.250 . S
O510 Mn505 2.121 . S
O510 C518 1.258 1_545 S
C511 N512 1.326 . S
C511 C515 1.460 . S
C511 H517 0.929 . S
N512 Mn505 2.257 . S
N512 C511 1.326 . S
N512 C516 1.362 . S
C513 C514 1.258 . S
C513 C516 1.431 . S
C513 C533 1.449 . S
C514 C513 1.258 . S
C514 C515 1.477 . S
C514 H534 0.931 . S
C515 C511 1.460 . S
C515 C514 1.477 . S
C515 H535 0.930 . S
C516 N512 1.362 . S
C516 C513 1.431 . S
C516 C526 1.476 . S
H517 C511 0.929 . S
C518 O509 1.250 . S
C518 O510 1.258 1_565 S
O519 Mn504 2.162 . S
O519 C507 1.281 . S
O520 Mn504 2.297 . S
O520 C507 1.236 . S
N521 Mn505 2.282 . S
N521 C522 1.328 . S
N521 C526 1.318 . S
C522 N521 1.328 . S
C522 C523 1.457 . S
C522 H527 0.929 . S
C523 C522 1.457 . S
C523 C524 1.291 . S
C523 H536 0.931 . S
C524 C523 1.291 . S
C524 C525 1.373 . S
C524 H537 0.929 . S
C525 C524 1.373 . S
C525 C526 1.396 . S
C525 C532 1.403 . S
C526 C516 1.476 . S
C526 N521 1.318 . S
C526 C525 1.396 . S
H527 C522 0.929 . S
O528 Mn504 2.385 . S
O528 C506 1.238 . S
O529 Mn504 2.209 1_545 S
O529 Mn505 2.215 . S
O529 C506 1.285 1_545 S
O530 Mn504 2.094 . S
O530 C508 1.240 . S
O531 Mn505 2.117 1_565 S
O531 C508 1.264 . S
C532 C525 1.403 . S
C532 C533 1.399 . S
C532 H538 0.929 . S
C533 C513 1.449 . S
C533 C532 1.399 . S
C533 H539 0.930 . S
H534 C514 0.931 . S
H535 C515 0.930 . S
H536 C523 0.931 . S
H537 C524 0.929 . S
H538 C532 0.929 . S
H539 C533 0.930 . S
Mn540 O545 2.095 . S
Mn540 O555 2.162 . S
Mn540 O556 2.297 . S
Mn540 O564 2.385 . S
Mn540 O565 2.209 . S
Mn540 O566 2.094 . S
Mn541 O546 2.121 . S
Mn541 N548 2.257 . S
Mn541 N557 2.282 . S
Mn541 O565 2.215 . S
Mn541 O567 2.117 . S
C542 O564 1.234 . S
C542 O565 1.283 . S
C543 O555 1.281 . S
C543 O556 1.236 . S
C544 O566 1.240 . S
C544 O567 1.264 . S
O545 Mn540 2.095 . S
O545 C554 1.250 . S
O546 Mn541 2.121 . S
O546 C554 1.258 . S
C547 N548 1.326 . S
C547 C551 1.460 . S
C547 H553 0.929 . S
N548 Mn541 2.257 . S
N548 C547 1.326 . S
N548 C552 1.362 . S
C549 C550 1.258 . S
C549 C552 1.431 . S
C549 C569 1.449 . S
C550 C549 1.258 . S
C550 C551 1.477 . S
C550 H570 0.931 . S
C551 C547 1.460 . S
C551 C550 1.477 . S
C551 H571 0.930 . S
C552 N548 1.362 . S
C552 C549 1.431 . S
C552 C562 1.476 . S
H553 C547 0.929 . S
C554 O545 1.250 . S
C554 O546 1.258 . S
O555 Mn540 2.162 . S
O555 C543 1.281 . S
O556 Mn540 2.297 . S
O556 C543 1.236 . S
N557 Mn541 2.282 . S
N557 C558 1.328 . S
N557 C562 1.318 . S
C558 N557 1.328 . S
C558 C559 1.457 . S
C558 H563 0.929 . S
C559 C558 1.457 . S
C559 C560 1.291 . S
C559 H572 0.931 . S
C560 C559 1.291 . S
C560 C561 1.373 . S
C560 H573 0.929 . S
C561 C560 1.373 . S
C561 C562 1.396 . S
C561 C568 1.403 . S
C562 C552 1.476 . S
C562 N557 1.318 . S
C562 C561 1.396 . S
H563 C558 0.929 . S
O564 Mn540 2.385 . S
O564 C542 1.234 . S
O565 Mn540 2.209 . S
O565 Mn541 2.215 . S
O565 C542 1.283 . S
O566 Mn540 2.094 . S
O566 C544 1.240 . S
O567 Mn541 2.117 . S
O567 C544 1.264 . S
C568 C561 1.403 . S
C568 C569 1.399 . S
C568 H574 0.929 . S
C569 C549 1.449 . S
C569 C568 1.399 . S
C569 H575 0.930 . S
H570 C550 0.931 . S
H571 C551 0.930 . S
H572 C559 0.931 . S
H573 C560 0.929 . S
H574 C568 0.929 . S
H575 C569 0.930 . S
Mn576 O581 2.095 . S
Mn576 O591 2.162 . S
Mn576 O592 2.297 . S
Mn576 O600 2.385 . S
Mn576 O601 2.209 . S
Mn576 O602 2.094 . S
Mn577 O582 2.121 . S
Mn577 N584 2.257 . S
Mn577 N593 2.282 . S
Mn577 O601 2.215 . S
Mn577 O603 2.117 . S
C578 O600 1.234 . S
C578 O601 1.283 . S
C579 O591 1.281 . S
C579 O592 1.236 . S
C580 O602 1.240 . S
C580 O603 1.264 . S
O581 Mn576 2.095 . S
O581 C590 1.250 . S
O582 Mn577 2.121 . S
O582 C590 1.258 . S
C583 N584 1.326 . S
C583 C587 1.460 . S
C583 H589 0.929 . S
N584 Mn577 2.257 . S
N584 C583 1.326 . S
N584 C588 1.362 . S
C585 C586 1.258 . S
C585 C588 1.431 . S
C585 C605 1.449 . S
C586 C585 1.258 . S
C586 C587 1.477 . S
C586 H606 0.931 . S
C587 C583 1.460 . S
C587 C586 1.477 . S
C587 H607 0.930 . S
C588 N584 1.362 . S
C588 C585 1.431 . S
C588 C598 1.476 . S
H589 C583 0.929 . S
C590 O581 1.250 . S
C590 O582 1.258 . S
O591 Mn576 2.162 . S
O591 C579 1.281 . S
O592 Mn576 2.297 . S
O592 C579 1.236 . S
N593 Mn577 2.282 . S
N593 C594 1.328 . S
N593 C598 1.318 . S
C594 N593 1.328 . S
C594 C595 1.457 . S
C594 H599 0.929 . S
C595 C594 1.457 . S
C595 C596 1.291 . S
C595 H608 0.931 . S
C596 C595 1.291 . S
C596 C597 1.373 . S
C596 H609 0.929 . S
C597 C596 1.373 . S
C597 C598 1.396 . S
C597 C604 1.403 . S
C598 C588 1.476 . S
C598 N593 1.318 . S
C598 C597 1.396 . S
H599 C594 0.929 . S
O600 Mn576 2.385 . S
O600 C578 1.234 . S
O601 Mn576 2.209 . S
O601 Mn577 2.215 . S
O601 C578 1.283 . S
O602 Mn576 2.094 . S
O602 C580 1.240 . S
O603 Mn577 2.117 . S
O603 C580 1.264 . S
C604 C597 1.403 . S
C604 C605 1.399 . S
C604 H610 0.929 . S
C605 C585 1.449 . S
C605 C604 1.399 . S
C605 H611 0.930 . S
H606 C586 0.931 . S
H607 C587 0.930 . S
H608 C595 0.931 . S
H609 C596 0.929 . S
H610 C604 0.929 . S
H611 C605 0.930 . S
Mn612 O617 2.095 . S
Mn612 O627 2.162 . S
Mn612 O628 2.297 . S
Mn612 O636 2.385 . S
Mn612 O637 2.209 . S
Mn612 O638 2.094 . S
Mn613 O618 2.121 . S
Mn613 N620 2.257 . S
Mn613 N629 2.282 . S
Mn613 O637 2.215 . S
Mn613 O639 2.117 . S
C614 O636 1.234 . S
C614 O637 1.283 . S
C615 O627 1.281 . S
C615 O628 1.236 . S
C616 O638 1.240 . S
C616 O639 1.264 . S
O617 Mn612 2.095 . S
O617 C626 1.250 . S
O618 Mn613 2.121 . S
O618 C626 1.258 . S
C619 N620 1.326 . S
C619 C623 1.460 . S
C619 H625 0.929 . S
N620 Mn613 2.257 . S
N620 C619 1.326 . S
N620 C624 1.362 . S
C621 C622 1.258 . S
C621 C624 1.431 . S
C621 C641 1.449 . S
C622 C621 1.258 . S
C622 C623 1.477 . S
C622 H642 0.931 . S
C623 C619 1.460 . S
C623 C622 1.477 . S
C623 H643 0.930 . S
C624 N620 1.362 . S
C624 C621 1.431 . S
C624 C634 1.476 . S
H625 C619 0.929 . S
C626 O617 1.250 . S
C626 O618 1.258 . S
O627 Mn612 2.162 . S
O627 C615 1.281 . S
O628 Mn612 2.297 . S
O628 C615 1.236 . S
N629 Mn613 2.282 . S
N629 C630 1.328 . S
N629 C634 1.318 . S
C630 N629 1.328 . S
C630 C631 1.457 . S
C630 H635 0.929 . S
C631 C630 1.457 . S
C631 C632 1.291 . S
C631 H644 0.931 . S
C632 C631 1.291 . S
C632 C633 1.373 . S
C632 H645 0.929 . S
C633 C632 1.373 . S
C633 C634 1.396 . S
C633 C640 1.403 . S
C634 C624 1.476 . S
C634 N629 1.318 . S
C634 C633 1.396 . S
H635 C630 0.929 . S
O636 Mn612 2.385 . S
O636 C614 1.234 . S
O637 Mn612 2.209 . S
O637 Mn613 2.215 . S
O637 C614 1.283 . S
O638 Mn612 2.094 . S
O638 C616 1.240 . S
O639 Mn613 2.117 . S
O639 C616 1.264 . S
C640 C633 1.403 . S
C640 C641 1.399 . S
C640 H646 0.929 . S
C641 C621 1.449 . S
C641 C640 1.399 . S
C641 H647 0.930 . S
H642 C622 0.931 . S
H643 C623 0.930 . S
H644 C631 0.931 . S
H645 C632 0.929 . S
H646 C640 0.929 . S
H647 C641 0.930 . S
Mn648 O653 2.095 . S
Mn648 O663 2.162 . S
Mn648 O664 2.297 . S
Mn648 O672 2.385 . S
Mn648 O673 2.209 . S
Mn648 O674 2.094 . S
Mn649 O654 2.121 . S
Mn649 N656 2.257 . S
Mn649 N665 2.282 . S
Mn649 O673 2.215 . S
Mn649 O675 2.117 . S
C650 O672 1.234 . S
C650 O673 1.283 . S
C651 O663 1.281 . S
C651 O664 1.236 . S
C652 O674 1.255 . S
C652 O675 1.268 . S
O653 Mn648 2.095 . S
O653 C662 1.250 . S
O654 Mn649 2.121 . S
O654 C662 1.258 . S
C655 N656 1.326 . S
C655 C659 1.460 . S
C655 H661 0.929 . S
N656 Mn649 2.257 . S
N656 C655 1.326 . S
N656 C660 1.362 . S
C657 C658 1.258 . S
C657 C660 1.431 . S
C657 C677 1.449 . S
C658 C657 1.258 . S
C658 C659 1.477 . S
C658 H678 0.931 . S
C659 C655 1.460 . S
C659 C658 1.477 . S
C659 H679 0.930 . S
C660 N656 1.362 . S
C660 C657 1.431 . S
C660 C670 1.476 . S
H661 C655 0.929 . S
C662 O653 1.250 . S
C662 O654 1.258 . S
O663 Mn648 2.162 . S
O663 C651 1.281 . S
O664 Mn648 2.297 . S
O664 C651 1.236 . S
N665 Mn649 2.282 . S
N665 C666 1.328 1_554 S
N665 C670 1.318 . S
C666 N665 1.328 1_556 S
C666 C667 1.457 . S
C666 H671 0.929 . S
C667 C666 1.457 . S
C667 C668 1.291 . S
C667 H680 0.931 . S
C668 C667 1.291 . S
C668 C669 1.373 1_556 S
C668 H681 0.929 . S
C669 C668 1.373 1_554 S
C669 C670 1.396 . S
C669 C676 1.403 . S
C670 C660 1.476 . S
C670 N665 1.318 . S
C670 C669 1.396 . S
H671 C666 0.929 . S
O672 Mn648 2.385 . S
O672 C650 1.234 . S
O673 Mn648 2.209 . S
O673 Mn649 2.215 . S
O673 C650 1.283 . S
O674 Mn648 2.094 . S
O674 C652 1.255 . S
O675 Mn649 2.117 . S
O675 C652 1.268 . S
C676 C669 1.403 . S
C676 C677 1.399 . S
C676 H682 0.929 . S
C677 C657 1.449 . S
C677 C676 1.399 . S
C677 H683 0.930 . S
H678 C658 0.931 . S
H679 C659 0.930 . S
H680 C667 0.931 . S
H681 C668 0.929 . S
H682 C676 0.929 . S
H683 C677 0.930 . S
Mn684 O689 2.095 . S
Mn684 O699 2.162 . S
Mn684 O700 2.297 . S
Mn684 O708 2.385 . S
Mn684 O709 2.209 . S
Mn684 O710 2.094 . S
Mn685 O690 2.121 . S
Mn685 N692 2.257 . S
Mn685 N701 2.282 . S
Mn685 O709 2.215 . S
Mn685 O711 2.117 . S
C686 O708 1.234 . S
C686 O709 1.283 . S
C687 O699 1.281 . S
C687 O700 1.236 . S
C688 O710 1.255 . S
C688 O711 1.268 . S
O689 Mn684 2.095 . S
O689 C698 1.250 . S
O690 Mn685 2.121 . S
O690 C698 1.258 . S
C691 N692 1.326 . S
C691 C695 1.460 . S
C691 H697 0.929 . S
N692 Mn685 2.257 . S
N692 C691 1.326 . S
N692 C696 1.362 . S
C693 C694 1.258 . S
C693 C696 1.431 . S
C693 C713 1.449 . S
C694 C693 1.258 . S
C694 C695 1.477 . S
C694 H714 0.931 . S
C695 C691 1.460 . S
C695 C694 1.477 . S
C695 H715 0.930 . S
C696 N692 1.362 . S
C696 C693 1.431 . S
C696 C706 1.476 . S
H697 C691 0.929 . S
C698 O689 1.250 . S
C698 O690 1.258 . S
O699 Mn684 2.162 . S
O699 C687 1.281 . S
O700 Mn684 2.297 . S
O700 C687 1.236 . S
N701 Mn685 2.282 . S
N701 C702 1.328 1_554 S
N701 C706 1.318 . S
C702 N701 1.328 1_556 S
C702 C703 1.457 . S
C702 H707 0.929 . S
C703 C702 1.457 . S
C703 C704 1.291 . S
C703 H716 0.931 . S
C704 C703 1.291 . S
C704 C705 1.373 1_556 S
C704 H717 0.929 . S
C705 C704 1.373 1_554 S
C705 C706 1.396 . S
C705 C712 1.403 . S
C706 C696 1.476 . S
C706 N701 1.318 . S
C706 C705 1.396 . S
H707 C702 0.929 . S
O708 Mn684 2.385 . S
O708 C686 1.234 . S
O709 Mn684 2.209 . S
O709 Mn685 2.215 . S
O709 C686 1.283 . S
O710 Mn684 2.094 . S
O710 C688 1.255 . S
O711 Mn685 2.117 . S
O711 C688 1.268 . S
C712 C705 1.403 . S
C712 C713 1.399 . S
C712 H718 0.929 . S
C713 C693 1.449 . S
C713 C712 1.399 . S
C713 H719 0.930 . S
H714 C694 0.931 . S
H715 C695 0.930 . S
H716 C703 0.931 . S
H717 C704 0.929 . S
H718 C712 0.929 . S
H719 C713 0.930 . S
Mn720 O725 2.095 . S
Mn720 O735 2.162 . S
Mn720 O736 2.297 . S
Mn720 O744 2.385 . S
Mn720 O745 2.209 . S
Mn720 O746 2.094 . S
Mn721 O726 2.121 . S
Mn721 N728 2.257 . S
Mn721 N737 2.282 . S
Mn721 O745 2.215 . S
Mn721 O747 2.117 . S
C722 O744 1.234 . S
C722 O745 1.283 . S
C723 O735 1.281 . S
C723 O736 1.236 . S
C724 O746 1.255 . S
C724 O747 1.268 . S
O725 Mn720 2.095 . S
O725 C734 1.250 . S
O726 Mn721 2.121 . S
O726 C734 1.258 . S
C727 N728 1.326 . S
C727 C731 1.460 . S
C727 H733 0.929 . S
N728 Mn721 2.257 . S
N728 C727 1.326 . S
N728 C732 1.362 . S
C729 C730 1.258 . S
C729 C732 1.431 . S
C729 C749 1.449 . S
C730 C729 1.258 . S
C730 C731 1.477 . S
C730 H750 0.931 . S
C731 C727 1.460 . S
C731 C730 1.477 . S
C731 H751 0.930 . S
C732 N728 1.362 . S
C732 C729 1.431 . S
C732 C742 1.476 . S
H733 C727 0.929 . S
C734 O725 1.250 . S
C734 O726 1.258 . S
O735 Mn720 2.162 . S
O735 C723 1.281 . S
O736 Mn720 2.297 . S
O736 C723 1.236 . S
N737 Mn721 2.282 . S
N737 C738 1.328 1_554 S
N737 C742 1.318 . S
C738 N737 1.328 1_556 S
C738 C739 1.457 . S
C738 H743 0.929 . S
C739 C738 1.457 . S
C739 C740 1.291 . S
C739 H752 0.931 . S
C740 C739 1.291 . S
C740 C741 1.373 1_556 S
C740 H753 0.929 . S
C741 C740 1.373 1_554 S
C741 C742 1.396 . S
C741 C748 1.403 . S
C742 C732 1.476 . S
C742 N737 1.318 . S
C742 C741 1.396 . S
H743 C738 0.929 . S
O744 Mn720 2.385 . S
O744 C722 1.234 . S
O745 Mn720 2.209 . S
O745 Mn721 2.215 . S
O745 C722 1.283 . S
O746 Mn720 2.094 . S
O746 C724 1.255 . S
O747 Mn721 2.117 . S
O747 C724 1.268 . S
C748 C741 1.403 . S
C748 C749 1.399 . S
C748 H754 0.929 . S
C749 C729 1.449 . S
C749 C748 1.399 . S
C749 H755 0.930 . S
H750 C730 0.931 . S
H751 C731 0.930 . S
H752 C739 0.931 . S
H753 C740 0.929 . S
H754 C748 0.929 . S
H755 C749 0.930 . S
Mn756 O761 2.095 . S
Mn756 O771 2.162 . S
Mn756 O772 2.297 1_554 S
Mn756 O780 2.385 . S
Mn756 O781 2.209 1_565 S
Mn756 O782 2.094 . S
Mn757 O762 2.121 . S
Mn757 N764 2.257 . S
Mn757 N773 2.282 . S
Mn757 O781 2.215 . S
Mn757 O783 2.117 1_545 S
C758 O780 1.246 . S
C758 O781 1.275 1_565 S
C759 O771 1.281 . S
C759 O772 1.236 1_554 S
C760 O782 1.240 . S
C760 O783 1.264 . S
O761 Mn756 2.095 . S
O761 C770 1.250 . S
O762 Mn757 2.121 . S
O762 C770 1.258 1_545 S
C763 N764 1.326 . S
C763 C767 1.460 . S
C763 H769 0.929 . S
N764 Mn757 2.257 . S
N764 C763 1.326 . S
N764 C768 1.362 . S
C765 C766 1.258 . S
C765 C768 1.431 . S
C765 C785 1.449 . S
C766 C765 1.258 . S
C766 C767 1.477 . S
C766 H786 0.931 . S
C767 C763 1.460 . S
C767 C766 1.477 . S
C767 H787 0.930 . S
C768 N764 1.362 . S
C768 C765 1.431 . S
C768 C778 1.476 . S
H769 C763 0.929 . S
C770 O761 1.250 . S
C770 O762 1.258 1_565 S
O771 Mn756 2.162 . S
O771 C759 1.281 . S
O772 Mn756 2.297 1_556 S
O772 C759 1.236 1_556 S
N773 Mn757 2.282 . S
N773 C774 1.328 . S
N773 C778 1.318 . S
C774 N773 1.328 . S
C774 C775 1.457 . S
C774 H779 0.929 . S
C775 C774 1.457 . S
C775 C776 1.291 . S
C775 H788 0.931 . S
C776 C775 1.291 . S
C776 C777 1.373 . S
C776 H789 0.929 . S
C777 C776 1.373 . S
C777 C778 1.396 . S
C777 C784 1.403 . S
C778 C768 1.476 . S
C778 N773 1.318 . S
C778 C777 1.396 . S
H779 C774 0.929 . S
O780 Mn756 2.385 . S
O780 C758 1.246 . S
O781 Mn756 2.209 1_545 S
O781 Mn757 2.215 . S
O781 C758 1.275 1_545 S
O782 Mn756 2.094 . S
O782 C760 1.240 . S
O783 Mn757 2.117 1_565 S
O783 C760 1.264 . S
C784 C777 1.403 . S
C784 C785 1.399 . S
C784 H790 0.929 . S
C785 C765 1.449 . S
C785 C784 1.399 . S
C785 H791 0.930 . S
H786 C766 0.931 . S
H787 C767 0.930 . S
H788 C775 0.931 . S
H789 C776 0.929 . S
H790 C784 0.929 . S
H791 C785 0.930 . S
Mn792 O797 2.095 . S
Mn792 O807 2.162 . S
Mn792 O808 2.297 1_554 S
Mn792 O816 2.385 . S
Mn792 O817 2.209 1_455 S
Mn792 O818 2.094 . S
Mn793 O798 2.121 . S
Mn793 N800 2.257 . S
Mn793 N809 2.282 . S
Mn793 O817 2.215 . S
Mn793 O819 2.117 1_655 S
C794 O816 1.238 . S
C794 O817 1.286 1_455 S
C795 O807 1.281 . S
C795 O808 1.236 1_554 S
C796 O818 1.240 . S
C796 O819 1.264 . S
O797 Mn792 2.095 . S
O797 C806 1.250 . S
O798 Mn793 2.121 . S
O798 C806 1.258 1_655 S
C799 N800 1.326 . S
C799 C803 1.460 . S
C799 H805 0.929 . S
N800 Mn793 2.257 . S
N800 C799 1.326 . S
N800 C804 1.362 . S
C801 C802 1.258 . S
C801 C804 1.431 . S
C801 C821 1.449 . S
C802 C801 1.258 . S
C802 C803 1.477 . S
C802 H822 0.931 . S
C803 C799 1.460 . S
C803 C802 1.477 . S
C803 H823 0.930 . S
C804 N800 1.362 . S
C804 C801 1.431 . S
C804 C814 1.476 . S
H805 C799 0.929 . S
C806 O797 1.250 . S
C806 O798 1.258 1_455 S
O807 Mn792 2.162 . S
O807 C795 1.281 . S
O808 Mn792 2.297 1_556 S
O808 C795 1.236 1_556 S
N809 Mn793 2.282 . S
N809 C810 1.328 . S
N809 C814 1.318 . S
C810 N809 1.328 . S
C810 C811 1.457 . S
C810 H815 0.929 . S
C811 C810 1.457 . S
C811 C812 1.291 . S
C811 H824 0.931 . S
C812 C811 1.291 . S
C812 C813 1.373 . S
C812 H825 0.929 . S
C813 C812 1.373 . S
C813 C814 1.396 . S
C813 C820 1.403 . S
C814 C804 1.476 . S
C814 N809 1.318 . S
C814 C813 1.396 . S
H815 C810 0.929 . S
O816 Mn792 2.385 . S
O816 C794 1.238 . S
O817 Mn792 2.209 1_655 S
O817 Mn793 2.215 . S
O817 C794 1.286 1_655 S
O818 Mn792 2.094 . S
O818 C796 1.240 . S
O819 Mn793 2.117 1_455 S
O819 C796 1.264 . S
C820 C813 1.403 . S
C820 C821 1.399 . S
C820 H826 0.929 . S
C821 C801 1.449 . S
C821 C820 1.399 . S
C821 H827 0.930 . S
H822 C802 0.931 . S
H823 C803 0.930 . S
H824 C811 0.931 . S
H825 C812 0.929 . S
H826 C820 0.929 . S
H827 C821 0.930 . S
Mn828 O833 2.095 . S
Mn828 O843 2.162 . S
Mn828 O844 2.297 1_554 S
Mn828 O852 2.385 . S
Mn828 O853 2.209 . S
Mn828 O854 2.094 . S
Mn829 O834 2.121 . S
Mn829 N836 2.257 . S
Mn829 N845 2.282 . S
Mn829 O853 2.215 . S
Mn829 O855 2.117 . S
C830 O852 1.234 . S
C830 O853 1.283 . S
C831 O843 1.281 . S
C831 O844 1.236 1_554 S
C832 O854 1.240 . S
C832 O855 1.264 . S
O833 Mn828 2.095 . S
O833 C842 1.250 . S
O834 Mn829 2.121 . S
O834 C842 1.258 . S
C835 N836 1.326 . S
C835 C839 1.460 . S
C835 H841 0.929 . S
N836 Mn829 2.257 . S
N836 C835 1.326 . S
N836 C840 1.362 . S
C837 C838 1.258 . S
C837 C840 1.431 . S
C837 C857 1.449 . S
C838 C837 1.258 . S
C838 C839 1.477 . S
C838 H858 0.931 . S
C839 C835 1.460 . S
C839 C838 1.477 . S
C839 H859 0.930 . S
C840 N836 1.362 . S
C840 C837 1.431 . S
C840 C850 1.476 . S
H841 C835 0.929 . S
C842 O833 1.250 . S
C842 O834 1.258 . S
O843 Mn828 2.162 . S
O843 C831 1.281 . S
O844 Mn828 2.297 1_556 S
O844 C831 1.236 1_556 S
N845 Mn829 2.282 . S
N845 C846 1.328 . S
N845 C850 1.318 . S
C846 N845 1.328 . S
C846 C847 1.457 . S
C846 H851 0.929 . S
C847 C846 1.457 . S
C847 C848 1.291 . S
C847 H860 0.931 . S
C848 C847 1.291 . S
C848 C849 1.373 . S
C848 H861 0.929 . S
C849 C848 1.373 . S
C849 C850 1.396 . S
C849 C856 1.403 . S
C850 C840 1.476 . S
C850 N845 1.318 . S
C850 C849 1.396 . S
H851 C846 0.929 . S
O852 Mn828 2.385 . S
O852 C830 1.234 . S
O853 Mn828 2.209 . S
O853 Mn829 2.215 . S
O853 C830 1.283 . S
O854 Mn828 2.094 . S
O854 C832 1.240 . S
O855 Mn829 2.117 . S
O855 C832 1.264 . S
C856 C849 1.403 . S
C856 C857 1.399 . S
C856 H862 0.929 . S
C857 C837 1.449 . S
C857 C856 1.399 . S
C857 H863 0.930 . S
H858 C838 0.931 . S
H859 C839 0.930 . S
H860 C847 0.931 . S
H861 C848 0.929 . S
H862 C856 0.929 . S
H863 C857 0.930 . S
Mn864 O869 2.095 . S
Mn864 O879 2.162 . S
Mn864 O880 2.297 . S
Mn864 O888 2.385 . S
Mn864 O889 2.209 . S
Mn864 O890 2.094 . S
Mn865 O870 2.121 . S
Mn865 N872 2.257 . S
Mn865 N881 2.282 . S
Mn865 O889 2.215 . S
Mn865 O891 2.117 . S
C866 O888 1.234 . S
C866 O889 1.283 . S
C867 O879 1.281 . S
C867 O880 1.236 . S
C868 O890 1.255 . S
C868 O891 1.268 . S
O869 Mn864 2.095 . S
O869 C878 1.250 . S
O870 Mn865 2.121 . S
O870 C878 1.258 . S
C871 N872 1.326 . S
C871 C875 1.460 . S
C871 H877 0.929 . S
N872 Mn865 2.257 . S
N872 C871 1.326 . S
N872 C876 1.362 . S
C873 C874 1.258 . S
C873 C876 1.431 . S
C873 C893 1.449 . S
C874 C873 1.258 . S
C874 C875 1.477 . S
C874 H894 0.931 . S
C875 C871 1.460 . S
C875 C874 1.477 . S
C875 H895 0.930 . S
C876 N872 1.362 . S
C876 C873 1.431 . S
C876 C886 1.476 . S
H877 C871 0.929 . S
C878 O869 1.250 . S
C878 O870 1.258 . S
O879 Mn864 2.162 . S
O879 C867 1.281 . S
O880 Mn864 2.297 . S
O880 C867 1.236 . S
N881 Mn865 2.282 . S
N881 C882 1.328 1_556 S
N881 C886 1.318 . S
C882 N881 1.328 1_554 S
C882 C883 1.457 . S
C882 H887 0.929 . S
C883 C882 1.457 . S
C883 C884 1.291 . S
C883 H896 0.931 . S
C884 C883 1.291 . S
C884 C885 1.373 1_554 S
C884 H897 0.929 . S
C885 C884 1.373 1_556 S
C885 C886 1.396 . S
C885 C892 1.403 . S
C886 C876 1.476 . S
C886 N881 1.318 . S
C886 C885 1.396 . S
H887 C882 0.929 . S
O888 Mn864 2.385 . S
O888 C866 1.234 . S
O889 Mn864 2.209 . S
O889 Mn865 2.215 . S
O889 C866 1.283 . S
O890 Mn864 2.094 . S
O890 C868 1.255 . S
O891 Mn865 2.117 . S
O891 C868 1.268 . S
C892 C885 1.403 . S
C892 C893 1.399 . S
C892 H898 0.929 . S
C893 C873 1.449 . S
C893 C892 1.399 . S
C893 H899 0.930 . S
H894 C874 0.931 . S
H895 C875 0.930 . S
H896 C883 0.931 . S
H897 C884 0.929 . S
H898 C892 0.929 . S
H899 C893 0.930 . S
Mn900 O905 2.095 . S
Mn900 O915 2.162 . S
Mn900 O916 2.297 . S
Mn900 O924 2.385 . S
Mn900 O925 2.209 . S
Mn900 O926 2.094 . S
Mn901 O906 2.121 . S
Mn901 N908 2.257 . S
Mn901 N917 2.282 . S
Mn901 O925 2.215 . S
Mn901 O927 2.117 . S
C902 O924 1.234 . S
C902 O925 1.283 . S
C903 O915 1.281 . S
C903 O916 1.236 . S
C904 O926 1.255 . S
C904 O927 1.268 . S
O905 Mn900 2.095 . S
O905 C914 1.250 . S
O906 Mn901 2.121 . S
O906 C914 1.258 . S
C907 N908 1.326 . S
C907 C911 1.460 . S
C907 H913 0.929 . S
N908 Mn901 2.257 . S
N908 C907 1.326 . S
N908 C912 1.362 . S
C909 C910 1.258 . S
C909 C912 1.431 . S
C909 C929 1.449 . S
C910 C909 1.258 . S
C910 C911 1.477 . S
C910 H930 0.931 . S
C911 C907 1.460 . S
C911 C910 1.477 . S
C911 H931 0.930 . S
C912 N908 1.362 . S
C912 C909 1.431 . S
C912 C922 1.476 . S
H913 C907 0.929 . S
C914 O905 1.250 . S
C914 O906 1.258 . S
O915 Mn900 2.162 . S
O915 C903 1.281 . S
O916 Mn900 2.297 . S
O916 C903 1.236 . S
N917 Mn901 2.282 . S
N917 C918 1.328 1_556 S
N917 C922 1.318 . S
C918 N917 1.328 1_554 S
C918 C919 1.457 . S
C918 H923 0.929 . S
C919 C918 1.457 . S
C919 C920 1.291 . S
C919 H932 0.931 . S
C920 C919 1.291 . S
C920 C921 1.373 1_554 S
C920 H933 0.929 . S
C921 C920 1.373 1_556 S
C921 C922 1.396 . S
C921 C928 1.403 . S
C922 C912 1.476 . S
C922 N917 1.318 . S
C922 C921 1.396 . S
H923 C918 0.929 . S
O924 Mn900 2.385 . S
O924 C902 1.234 . S
O925 Mn900 2.209 . S
O925 Mn901 2.215 . S
O925 C902 1.283 . S
O926 Mn900 2.094 . S
O926 C904 1.255 . S
O927 Mn901 2.117 . S
O927 C904 1.268 . S
C928 C921 1.403 . S
C928 C929 1.399 . S
C928 H934 0.929 . S
C929 C909 1.449 . S
C929 C928 1.399 . S
C929 H935 0.930 . S
H930 C910 0.931 . S
H931 C911 0.930 . S
H932 C919 0.931 . S
H933 C920 0.929 . S
H934 C928 0.929 . S
H935 C929 0.930 . S
Mn936 O941 2.095 . S
Mn936 O951 2.162 . S
Mn936 O952 2.297 . S
Mn936 O960 2.385 . S
Mn936 O961 2.209 . S
Mn936 O962 2.094 . S
Mn937 O942 2.121 . S
Mn937 N944 2.257 . S
Mn937 N953 2.282 . S
Mn937 O961 2.215 . S
Mn937 O963 2.117 . S
C938 O960 1.234 . S
C938 O961 1.283 . S
C939 O951 1.281 . S
C939 O952 1.236 . S
C940 O962 1.255 . S
C940 O963 1.268 . S
O941 Mn936 2.095 . S
O941 C950 1.250 . S
O942 Mn937 2.121 . S
O942 C950 1.258 . S
C943 N944 1.326 . S
C943 C947 1.460 . S
C943 H949 0.929 . S
N944 Mn937 2.257 . S
N944 C943 1.326 . S
N944 C948 1.362 . S
C945 C946 1.258 . S
C945 C948 1.431 . S
C945 C965 1.449 . S
C946 C945 1.258 . S
C946 C947 1.477 . S
C946 H966 0.931 . S
C947 C943 1.460 . S
C947 C946 1.477 . S
C947 H967 0.930 . S
C948 N944 1.362 . S
C948 C945 1.431 . S
C948 C958 1.476 . S
H949 C943 0.929 . S
C950 O941 1.250 . S
C950 O942 1.258 . S
O951 Mn936 2.162 . S
O951 C939 1.281 . S
O952 Mn936 2.297 . S
O952 C939 1.236 . S
N953 Mn937 2.282 . S
N953 C954 1.328 1_556 S
N953 C958 1.318 . S
C954 N953 1.328 1_554 S
C954 C955 1.457 . S
C954 H959 0.929 . S
C955 C954 1.457 . S
C955 C956 1.291 . S
C955 H968 0.931 . S
C956 C955 1.291 . S
C956 C957 1.373 1_554 S
C956 H969 0.929 . S
C957 C956 1.373 1_556 S
C957 C958 1.396 . S
C957 C964 1.403 . S
C958 C948 1.476 . S
C958 N953 1.318 . S
C958 C957 1.396 . S
H959 C954 0.929 . S
O960 Mn936 2.385 . S
O960 C938 1.234 . S
O961 Mn936 2.209 . S
O961 Mn937 2.215 . S
O961 C938 1.283 . S
O962 Mn936 2.094 . S
O962 C940 1.255 . S
O963 Mn937 2.117 . S
O963 C940 1.268 . S
C964 C957 1.403 . S
C964 C965 1.399 . S
C964 H970 0.929 . S
C965 C945 1.449 . S
C965 C964 1.399 . S
C965 H971 0.930 . S
H966 C946 0.931 . S
H967 C947 0.930 . S
H968 C955 0.931 . S
H969 C956 0.929 . S
H970 C964 0.929 . S
H971 C965 0.930 . S
Mn972 O977 2.095 . S
Mn972 O987 2.162 . S
Mn972 O988 2.297 1_556 S
Mn972 O996 2.385 . S
Mn972 O997 2.209 1_545 S
Mn972 O998 2.094 . S
Mn973 O978 2.121 . S
Mn973 N980 2.257 . S
Mn973 N989 2.282 . S
Mn973 O997 2.215 . S
Mn973 O999 2.117 1_565 S
C974 O996 1.246 . S
C974 O997 1.275 1_545 S
C975 O987 1.281 . S
C975 O988 1.236 1_556 S
C976 O998 1.240 . S
C976 O999 1.264 . S
O977 Mn972 2.095 . S
O977 C986 1.250 . S
O978 Mn973 2.121 . S
O978 C986 1.258 1_565 S
C979 N980 1.326 . S
C979 C983 1.460 . S
C979 H985 0.929 . S
N980 Mn973 2.257 . S
N980 C979 1.326 . S
N980 C984 1.362 . S
C981 C982 1.258 . S
C981 C984 1.431 . S
C981 C1001 1.449 . S
C982 C981 1.258 . S
C982 C983 1.477 . S
C982 H1002 0.931 . S
C983 C979 1.460 . S
C983 C982 1.477 . S
C983 H1003 0.930 . S
C984 N980 1.362 . S
C984 C981 1.431 . S
C984 C994 1.476 . S
H985 C979 0.929 . S
C986 O977 1.250 . S
C986 O978 1.258 1_545 S
O987 Mn972 2.162 . S
O987 C975 1.281 . S
O988 Mn972 2.297 1_554 S
O988 C975 1.236 1_554 S
N989 Mn973 2.282 . S
N989 C990 1.328 . S
N989 C994 1.318 . S
C990 N989 1.328 . S
C990 C991 1.457 . S
C990 H995 0.929 . S
C991 C990 1.457 . S
C991 C992 1.291 . S
C991 H1004 0.931 . S
C992 C991 1.291 . S
C992 C993 1.373 . S
C992 H1005 0.929 . S
C993 C992 1.373 . S
C993 C994 1.396 . S
C993 C1000 1.403 . S
C994 C984 1.476 . S
C994 N989 1.318 . S
C994 C993 1.396 . S
H995 C990 0.929 . S
O996 Mn972 2.385 . S
O996 C974 1.246 . S
O997 Mn972 2.209 1_565 S
O997 Mn973 2.215 . S
O997 C974 1.275 1_565 S
O998 Mn972 2.094 . S
O998 C976 1.240 . S
O999 Mn973 2.117 1_545 S
O999 C976 1.264 . S
C1000 C993 1.403 . S
C1000 C1001 1.399 . S
C1000 H1006 0.929 . S
C1001 C981 1.449 . S
C1001 C1000 1.399 . S
C1001 H1007 0.930 . S
H1002 C982 0.931 . S
H1003 C983 0.930 . S
H1004 C991 0.931 . S
H1005 C992 0.929 . S
H1006 C1000 0.929 . S
H1007 C1001 0.930 . S
Mn1008 O1013 2.095 . S
Mn1008 O1023 2.162 . S
Mn1008 O1024 2.297 1_556 S
Mn1008 O1032 2.385 . S
Mn1008 O1033 2.209 1_655 S
Mn1008 O1034 2.094 . S
Mn1009 O1014 2.121 . S
Mn1009 N1016 2.257 . S
Mn1009 N1025 2.282 . S
Mn1009 O1033 2.215 . S
Mn1009 O1035 2.117 1_455 S
C1010 O1032 1.238 . S
C1010 O1033 1.286 1_655 S
C1011 O1023 1.281 . S
C1011 O1024 1.236 1_556 S
C1012 O1034 1.240 . S
C1012 O1035 1.264 . S
O1013 Mn1008 2.095 . S
O1013 C1022 1.250 . S
O1014 Mn1009 2.121 . S
O1014 C1022 1.258 1_455 S
C1015 N1016 1.326 . S
C1015 C1019 1.460 . S
C1015 H1021 0.929 . S
N1016 Mn1009 2.257 . S
N1016 C1015 1.326 . S
N1016 C1020 1.362 . S
C1017 C1018 1.258 . S
C1017 C1020 1.431 . S
C1017 C1037 1.449 . S
C1018 C1017 1.258 . S
C1018 C1019 1.477 . S
C1018 H1038 0.931 . S
C1019 C1015 1.460 . S
C1019 C1018 1.477 . S
C1019 H1039 0.930 . S
C1020 N1016 1.362 . S
C1020 C1017 1.431 . S
C1020 C1030 1.476 . S
H1021 C1015 0.929 . S
C1022 O1013 1.250 . S
C1022 O1014 1.258 1_655 S
O1023 Mn1008 2.162 . S
O1023 C1011 1.281 . S
O1024 Mn1008 2.297 1_554 S
O1024 C1011 1.236 1_554 S
N1025 Mn1009 2.282 . S
N1025 C1026 1.328 . S
N1025 C1030 1.318 . S
C1026 N1025 1.328 . S
C1026 C1027 1.457 . S
C1026 H1031 0.929 . S
C1027 C1026 1.457 . S
C1027 C1028 1.291 . S
C1027 H1040 0.931 . S
C1028 C1027 1.291 . S
C1028 C1029 1.373 . S
C1028 H1041 0.929 . S
C1029 C1028 1.373 . S
C1029 C1030 1.396 . S
C1029 C1036 1.403 . S
C1030 C1020 1.476 . S
C1030 N1025 1.318 . S
C1030 C1029 1.396 . S
H1031 C1026 0.929 . S
O1032 Mn1008 2.385 . S
O1032 C1010 1.238 . S
O1033 Mn1008 2.209 1_455 S
O1033 Mn1009 2.215 . S
O1033 C1010 1.286 1_455 S
O1034 Mn1008 2.094 . S
O1034 C1012 1.240 . S
O1035 Mn1009 2.117 1_655 S
O1035 C1012 1.264 . S
C1036 C1029 1.403 . S
C1036 C1037 1.399 . S
C1036 H1042 0.929 . S
C1037 C1017 1.449 . S
C1037 C1036 1.399 . S
C1037 H1043 0.930 . S
H1038 C1018 0.931 . S
H1039 C1019 0.930 . S
H1040 C1027 0.931 . S
H1041 C1028 0.929 . S
H1042 C1036 0.929 . S
H1043 C1037 0.930 . S
Mn1044 O1049 2.095 . S
Mn1044 O1059 2.162 . S
Mn1044 O1060 2.297 1_556 S
Mn1044 O1068 2.385 . S
Mn1044 O1069 2.209 . S
Mn1044 O1070 2.094 . S
Mn1045 O1050 2.121 . S
Mn1045 N1052 2.257 . S
Mn1045 N1061 2.282 . S
Mn1045 O1069 2.215 . S
Mn1045 O1071 2.117 . S
C1046 O1068 1.234 . S
C1046 O1069 1.283 . S
C1047 O1059 1.281 . S
C1047 O1060 1.236 1_556 S
C1048 O1070 1.240 . S
C1048 O1071 1.264 . S
O1049 Mn1044 2.095 . S
O1049 C1058 1.250 . S
O1050 Mn1045 2.121 . S
O1050 C1058 1.258 . S
C1051 N1052 1.326 . S
C1051 C1055 1.460 . S
C1051 H1057 0.929 . S
N1052 Mn1045 2.257 . S
N1052 C1051 1.326 . S
N1052 C1056 1.362 . S
C1053 C1054 1.258 . S
C1053 C1056 1.431 . S
C1053 C1073 1.449 . S
C1054 C1053 1.258 . S
C1054 C1055 1.477 . S
C1054 H1074 0.931 . S
C1055 C1051 1.460 . S
C1055 C1054 1.477 . S
C1055 H1075 0.930 . S
C1056 N1052 1.362 . S
C1056 C1053 1.431 . S
C1056 C1066 1.476 . S
H1057 C1051 0.929 . S
C1058 O1049 1.250 . S
C1058 O1050 1.258 . S
O1059 Mn1044 2.162 . S
O1059 C1047 1.281 . S
O1060 Mn1044 2.297 1_554 S
O1060 C1047 1.236 1_554 S
N1061 Mn1045 2.282 . S
N1061 C1062 1.328 . S
N1061 C1066 1.318 . S
C1062 N1061 1.328 . S
C1062 C1063 1.457 . S
C1062 H1067 0.929 . S
C1063 C1062 1.457 . S
C1063 C1064 1.291 . S
C1063 H1076 0.931 . S
C1064 C1063 1.291 . S
C1064 C1065 1.373 . S
C1064 H1077 0.929 . S
C1065 C1064 1.373 . S
C1065 C1066 1.396 . S
C1065 C1072 1.403 . S
C1066 C1056 1.476 . S
C1066 N1061 1.318 . S
C1066 C1065 1.396 . S
H1067 C1062 0.929 . S
O1068 Mn1044 2.385 . S
O1068 C1046 1.234 . S
O1069 Mn1044 2.209 . S
O1069 Mn1045 2.215 . S
O1069 C1046 1.283 . S
O1070 Mn1044 2.094 . S
O1070 C1048 1.240 . S
O1071 Mn1045 2.117 . S
O1071 C1048 1.264 . S
C1072 C1065 1.403 . S
C1072 C1073 1.399 . S
C1072 H1078 0.929 . S
C1073 C1053 1.449 . S
C1073 C1072 1.399 . S
C1073 H1079 0.930 . S
H1074 C1054 0.931 . S
H1075 C1055 0.930 . S
H1076 C1063 0.931 . S
H1077 C1064 0.929 . S
H1078 C1072 0.929 . S
H1079 C1073 0.930 . S
Mn1080 O1085 2.095 . S
Mn1080 O1095 2.162 . S
Mn1080 O1096 2.297 . S
Mn1080 O1104 2.385 . S
Mn1080 O1105 2.209 1_655 S
Mn1080 O1106 2.094 . S
Mn1081 O1086 2.121 . S
Mn1081 N1088 2.257 . S
Mn1081 N1097 2.282 . S
Mn1081 O1105 2.215 . S
Mn1081 O1107 2.117 1_455 S
C1082 O1104 1.246 . S
C1082 O1105 1.275 1_655 S
C1083 O1095 1.281 . S
C1083 O1096 1.236 . S
C1084 O1106 1.240 . S
C1084 O1107 1.264 . S
O1085 Mn1080 2.095 . S
O1085 C1094 1.250 . S
O1086 Mn1081 2.121 . S
O1086 C1094 1.258 1_455 S
C1087 N1088 1.326 . S
C1087 C1091 1.460 . S
C1087 H1093 0.929 . S
N1088 Mn1081 2.257 . S
N1088 C1087 1.326 . S
N1088 C1092 1.362 . S
C1089 C1090 1.258 . S
C1089 C1092 1.431 . S
C1089 C1109 1.449 . S
C1090 C1089 1.258 . S
C1090 C1091 1.477 . S
C1090 H1110 0.931 . S
C1091 C1087 1.460 . S
C1091 C1090 1.477 . S
C1091 H1111 0.930 . S
C1092 N1088 1.362 . S
C1092 C1089 1.431 . S
C1092 C1102 1.476 . S
H1093 C1087 0.929 . S
C1094 O1085 1.250 . S
C1094 O1086 1.258 1_655 S
O1095 Mn1080 2.162 . S
O1095 C1083 1.281 . S
O1096 Mn1080 2.297 . S
O1096 C1083 1.236 . S
N1097 Mn1081 2.282 . S
N1097 C1098 1.328 . S
N1097 C1102 1.318 . S
C1098 N1097 1.328 . S
C1098 C1099 1.457 . S
C1098 H1103 0.929 . S
C1099 C1098 1.457 . S
C1099 C1100 1.291 . S
C1099 H1112 0.931 . S
C1100 C1099 1.291 . S
C1100 C1101 1.373 . S
C1100 H1113 0.929 . S
C1101 C1100 1.373 . S
C1101 C1102 1.396 . S
C1101 C1108 1.403 . S
C1102 C1092 1.476 . S
C1102 N1097 1.318 . S
C1102 C1101 1.396 . S
H1103 C1098 0.929 . S
O1104 Mn1080 2.385 . S
O1104 C1082 1.246 . S
O1105 Mn1080 2.209 1_455 S
O1105 Mn1081 2.215 . S
O1105 C1082 1.275 1_455 S
O1106 Mn1080 2.094 . S
O1106 C1084 1.240 . S
O1107 Mn1081 2.117 1_655 S
O1107 C1084 1.264 . S
C1108 C1101 1.403 . S
C1108 C1109 1.399 . S
C1108 H1114 0.929 . S
C1109 C1089 1.449 . S
C1109 C1108 1.399 . S
C1109 H1115 0.930 . S
H1110 C1090 0.931 . S
H1111 C1091 0.930 . S
H1112 C1099 0.931 . S
H1113 C1100 0.929 . S
H1114 C1108 0.929 . S
H1115 C1109 0.930 . S
Mn1116 O1121 2.095 . S
Mn1116 O1131 2.162 . S
Mn1116 O1132 2.297 . S
Mn1116 O1140 2.385 . S
Mn1116 O1141 2.209 . S
Mn1116 O1142 2.094 . S
Mn1117 O1122 2.121 . S
Mn1117 N1124 2.257 . S
Mn1117 N1133 2.282 . S
Mn1117 O1141 2.215 . S
Mn1117 O1143 2.117 . S
C1118 O1140 1.234 . S
C1118 O1141 1.283 . S
C1119 O1131 1.281 . S
C1119 O1132 1.236 . S
C1120 O1142 1.240 . S
C1120 O1143 1.264 . S
O1121 Mn1116 2.095 . S
O1121 C1130 1.250 . S
O1122 Mn1117 2.121 . S
O1122 C1130 1.258 . S
C1123 N1124 1.326 . S
C1123 C1127 1.460 . S
C1123 H1129 0.929 . S
N1124 Mn1117 2.257 . S
N1124 C1123 1.326 . S
N1124 C1128 1.362 . S
C1125 C1126 1.258 . S
C1125 C1128 1.431 . S
C1125 C1145 1.449 . S
C1126 C1125 1.258 . S
C1126 C1127 1.477 . S
C1126 H1146 0.931 . S
C1127 C1123 1.460 . S
C1127 C1126 1.477 . S
C1127 H1147 0.930 . S
C1128 N1124 1.362 . S
C1128 C1125 1.431 . S
C1128 C1138 1.476 . S
H1129 C1123 0.929 . S
C1130 O1121 1.250 . S
C1130 O1122 1.258 . S
O1131 Mn1116 2.162 . S
O1131 C1119 1.281 . S
O1132 Mn1116 2.297 . S
O1132 C1119 1.236 . S
N1133 Mn1117 2.282 . S
N1133 C1134 1.328 . S
N1133 C1138 1.318 . S
C1134 N1133 1.328 . S
C1134 C1135 1.457 . S
C1134 H1139 0.929 . S
C1135 C1134 1.457 . S
C1135 C1136 1.291 . S
C1135 H1148 0.931 . S
C1136 C1135 1.291 . S
C1136 C1137 1.373 . S
C1136 H1149 0.929 . S
C1137 C1136 1.373 . S
C1137 C1138 1.396 . S
C1137 C1144 1.403 . S
C1138 C1128 1.476 . S
C1138 N1133 1.318 . S
C1138 C1137 1.396 . S
H1139 C1134 0.929 . S
O1140 Mn1116 2.385 . S
O1140 C1118 1.234 . S
O1141 Mn1116 2.209 . S
O1141 Mn1117 2.215 . S
O1141 C1118 1.283 . S
O1142 Mn1116 2.094 . S
O1142 C1120 1.240 . S
O1143 Mn1117 2.117 . S
O1143 C1120 1.264 . S
C1144 C1137 1.403 . S
C1144 C1145 1.399 . S
C1144 H1150 0.929 . S
C1145 C1125 1.449 . S
C1145 C1144 1.399 . S
C1145 H1151 0.930 . S
H1146 C1126 0.931 . S
H1147 C1127 0.930 . S
H1148 C1135 0.931 . S
H1149 C1136 0.929 . S
H1150 C1144 0.929 . S
H1151 C1145 0.930 . S
Mn1152 O1157 2.095 . S
Mn1152 O1167 2.162 . S
Mn1152 O1168 2.297 . S
Mn1152 O1176 2.385 . S
Mn1152 O1177 2.209 1_545 S
Mn1152 O1178 2.094 . S
Mn1153 O1158 2.121 . S
Mn1153 N1160 2.257 . S
Mn1153 N1169 2.282 . S
Mn1153 O1177 2.215 . S
Mn1153 O1179 2.117 1_565 S
C1154 O1176 1.238 . S
C1154 O1177 1.285 1_545 S
C1155 O1167 1.281 . S
C1155 O1168 1.236 . S
C1156 O1178 1.240 . S
C1156 O1179 1.264 . S
O1157 Mn1152 2.095 . S
O1157 C1166 1.250 . S
O1158 Mn1153 2.121 . S
O1158 C1166 1.258 1_565 S
C1159 N1160 1.326 . S
C1159 C1163 1.460 . S
C1159 H1165 0.929 . S
N1160 Mn1153 2.257 . S
N1160 C1159 1.326 . S
N1160 C1164 1.362 . S
C1161 C1162 1.258 . S
C1161 C1164 1.431 . S
C1161 C1181 1.449 . S
C1162 C1161 1.258 . S
C1162 C1163 1.477 . S
C1162 H1182 0.931 . S
C1163 C1159 1.460 . S
C1163 C1162 1.477 . S
C1163 H1183 0.930 . S
C1164 N1160 1.362 . S
C1164 C1161 1.431 . S
C1164 C1174 1.476 . S
H1165 C1159 0.929 . S
C1166 O1157 1.250 . S
C1166 O1158 1.258 1_545 S
O1167 Mn1152 2.162 . S
O1167 C1155 1.281 . S
O1168 Mn1152 2.297 . S
O1168 C1155 1.236 . S
N1169 Mn1153 2.282 . S
N1169 C1170 1.328 . S
N1169 C1174 1.318 . S
C1170 N1169 1.328 . S
C1170 C1171 1.457 . S
C1170 H1175 0.929 . S
C1171 C1170 1.457 . S
C1171 C1172 1.291 . S
C1171 H1184 0.931 . S
C1172 C1171 1.291 . S
C1172 C1173 1.373 . S
C1172 H1185 0.929 . S
C1173 C1172 1.373 . S
C1173 C1174 1.396 . S
C1173 C1180 1.403 . S
C1174 C1164 1.476 . S
C1174 N1169 1.318 . S
C1174 C1173 1.396 . S
H1175 C1170 0.929 . S
O1176 Mn1152 2.385 . S
O1176 C1154 1.238 . S
O1177 Mn1152 2.209 1_565 S
O1177 Mn1153 2.215 . S
O1177 C1154 1.285 1_565 S
O1178 Mn1152 2.094 . S
O1178 C1156 1.240 . S
O1179 Mn1153 2.117 1_545 S
O1179 C1156 1.264 . S
C1180 C1173 1.403 . S
C1180 C1181 1.399 . S
C1180 H1186 0.929 . S
C1181 C1161 1.449 . S
C1181 C1180 1.399 . S
C1181 H1187 0.930 . S
H1182 C1162 0.931 . S
H1183 C1163 0.930 . S
H1184 C1171 0.931 . S
H1185 C1172 0.929 . S
H1186 C1180 0.929 . S
H1187 C1181 0.930 . S
Mn1188 O1193 2.095 . S
Mn1188 O1203 2.162 . S
Mn1188 O1204 2.297 . S
Mn1188 O1212 2.385 . S
Mn1188 O1213 2.209 . S
Mn1188 O1214 2.094 . S
Mn1189 O1194 2.121 . S
Mn1189 N1196 2.257 . S
Mn1189 N1205 2.282 . S
Mn1189 O1213 2.215 . S
Mn1189 O1215 2.117 . S
C1190 O1212 1.234 . S
C1190 O1213 1.283 . S
C1191 O1203 1.281 . S
C1191 O1204 1.236 . S
C1192 O1214 1.240 . S
C1192 O1215 1.264 . S
O1193 Mn1188 2.095 . S
O1193 C1202 1.250 . S
O1194 Mn1189 2.121 . S
O1194 C1202 1.258 . S
C1195 N1196 1.326 . S
C1195 C1199 1.460 . S
C1195 H1201 0.929 . S
N1196 Mn1189 2.257 . S
N1196 C1195 1.326 . S
N1196 C1200 1.362 . S
C1197 C1198 1.258 . S
C1197 C1200 1.431 . S
C1197 C1217 1.449 . S
C1198 C1197 1.258 . S
C1198 C1199 1.477 . S
C1198 H1218 0.931 . S
C1199 C1195 1.460 . S
C1199 C1198 1.477 . S
C1199 H1219 0.930 . S
C1200 N1196 1.362 . S
C1200 C1197 1.431 . S
C1200 C1210 1.476 . S
H1201 C1195 0.929 . S
C1202 O1193 1.250 . S
C1202 O1194 1.258 . S
O1203 Mn1188 2.162 . S
O1203 C1191 1.281 . S
O1204 Mn1188 2.297 . S
O1204 C1191 1.236 . S
N1205 Mn1189 2.282 . S
N1205 C1206 1.328 . S
N1205 C1210 1.318 . S
C1206 N1205 1.328 . S
C1206 C1207 1.457 . S
C1206 H1211 0.929 . S
C1207 C1206 1.457 . S
C1207 C1208 1.291 . S
C1207 H1220 0.931 . S
C1208 C1207 1.291 . S
C1208 C1209 1.373 . S
C1208 H1221 0.929 . S
C1209 C1208 1.373 . S
C1209 C1210 1.396 . S
C1209 C1216 1.403 . S
C1210 C1200 1.476 . S
C1210 N1205 1.318 . S
C1210 C1209 1.396 . S
H1211 C1206 0.929 . S
O1212 Mn1188 2.385 . S
O1212 C1190 1.234 . S
O1213 Mn1188 2.209 . S
O1213 Mn1189 2.215 . S
O1213 C1190 1.283 . S
O1214 Mn1188 2.094 . S
O1214 C1192 1.240 . S
O1215 Mn1189 2.117 . S
O1215 C1192 1.264 . S
C1216 C1209 1.403 . S
C1216 C1217 1.399 . S
C1216 H1222 0.929 . S
C1217 C1197 1.449 . S
C1217 C1216 1.399 . S
C1217 H1223 0.930 . S
H1218 C1198 0.931 . S
H1219 C1199 0.930 . S
H1220 C1207 0.931 . S
H1221 C1208 0.929 . S
H1222 C1216 0.929 . S
H1223 C1217 0.930 . S
Mn1224 O1229 2.095 . S
Mn1224 O1239 2.162 . S
Mn1224 O1240 2.297 . S
Mn1224 O1248 2.385 . S
Mn1224 O1249 2.209 . S
Mn1224 O1250 2.094 . S
Mn1225 O1230 2.121 . S
Mn1225 N1232 2.257 . S
Mn1225 N1241 2.282 . S
Mn1225 O1249 2.215 . S
Mn1225 O1251 2.117 . S
C1226 O1248 1.234 . S
C1226 O1249 1.283 . S
C1227 O1239 1.281 . S
C1227 O1240 1.236 . S
C1228 O1250 1.240 . S
C1228 O1251 1.264 . S
O1229 Mn1224 2.095 . S
O1229 C1238 1.250 . S
O1230 Mn1225 2.121 . S
O1230 C1238 1.258 . S
C1231 N1232 1.326 . S
C1231 C1235 1.460 . S
C1231 H1237 0.929 . S
N1232 Mn1225 2.257 . S
N1232 C1231 1.326 . S
N1232 C1236 1.362 . S
C1233 C1234 1.258 . S
C1233 C1236 1.431 . S
C1233 C1253 1.449 . S
C1234 C1233 1.258 . S
C1234 C1235 1.477 . S
C1234 H1254 0.931 . S
C1235 C1231 1.460 . S
C1235 C1234 1.477 . S
C1235 H1255 0.930 . S
C1236 N1232 1.362 . S
C1236 C1233 1.431 . S
C1236 C1246 1.476 . S
H1237 C1231 0.929 . S
C1238 O1229 1.250 . S
C1238 O1230 1.258 . S
O1239 Mn1224 2.162 . S
O1239 C1227 1.281 . S
O1240 Mn1224 2.297 . S
O1240 C1227 1.236 . S
N1241 Mn1225 2.282 . S
N1241 C1242 1.328 . S
N1241 C1246 1.318 . S
C1242 N1241 1.328 . S
C1242 C1243 1.457 . S
C1242 H1247 0.929 . S
C1243 C1242 1.457 . S
C1243 C1244 1.291 . S
C1243 H1256 0.931 . S
C1244 C1243 1.291 . S
C1244 C1245 1.373 . S
C1244 H1257 0.929 . S
C1245 C1244 1.373 . S
C1245 C1246 1.396 . S
C1245 C1252 1.403 . S
C1246 C1236 1.476 . S
C1246 N1241 1.318 . S
C1246 C1245 1.396 . S
H1247 C1242 0.929 . S
O1248 Mn1224 2.385 . S
O1248 C1226 1.234 . S
O1249 Mn1224 2.209 . S
O1249 Mn1225 2.215 . S
O1249 C1226 1.283 . S
O1250 Mn1224 2.094 . S
O1250 C1228 1.240 . S
O1251 Mn1225 2.117 . S
O1251 C1228 1.264 . S
C1252 C1245 1.403 . S
C1252 C1253 1.399 . S
C1252 H1258 0.929 . S
C1253 C1233 1.449 . S
C1253 C1252 1.399 . S
C1253 H1259 0.930 . S
H1254 C1234 0.931 . S
H1255 C1235 0.930 . S
H1256 C1243 0.931 . S
H1257 C1244 0.929 . S
H1258 C1252 0.929 . S
H1259 C1253 0.930 . S
Mn1260 O1265 2.095 . S
Mn1260 O1275 2.162 . S
Mn1260 O1276 2.297 . S
Mn1260 O1284 2.385 . S
Mn1260 O1285 2.209 . S
Mn1260 O1286 2.094 . S
Mn1261 O1266 2.121 . S
Mn1261 N1268 2.257 . S
Mn1261 N1277 2.282 . S
Mn1261 O1285 2.215 . S
Mn1261 O1287 2.117 . S
C1262 O1284 1.234 . S
C1262 O1285 1.283 . S
C1263 O1275 1.281 . S
C1263 O1276 1.236 . S
C1264 O1286 1.240 . S
C1264 O1287 1.264 . S
O1265 Mn1260 2.095 . S
O1265 C1274 1.250 . S
O1266 Mn1261 2.121 . S
O1266 C1274 1.258 . S
C1267 N1268 1.326 . S
C1267 C1271 1.460 . S
C1267 H1273 0.929 . S
N1268 Mn1261 2.257 . S
N1268 C1267 1.326 . S
N1268 C1272 1.362 . S
C1269 C1270 1.258 . S
C1269 C1272 1.431 . S
C1269 C1289 1.449 . S
C1270 C1269 1.258 . S
C1270 C1271 1.477 . S
C1270 H1290 0.931 . S
C1271 C1267 1.460 . S
C1271 C1270 1.477 . S
C1271 H1291 0.930 . S
C1272 N1268 1.362 . S
C1272 C1269 1.431 . S
C1272 C1282 1.476 . S
H1273 C1267 0.929 . S
C1274 O1265 1.250 . S
C1274 O1266 1.258 . S
O1275 Mn1260 2.162 . S
O1275 C1263 1.281 . S
O1276 Mn1260 2.297 . S
O1276 C1263 1.236 . S
N1277 Mn1261 2.282 . S
N1277 C1278 1.328 . S
N1277 C1282 1.318 . S
C1278 N1277 1.328 . S
C1278 C1279 1.457 . S
C1278 H1283 0.929 . S
C1279 C1278 1.457 . S
C1279 C1280 1.291 . S
C1279 H1292 0.931 . S
C1280 C1279 1.291 . S
C1280 C1281 1.373 . S
C1280 H1293 0.929 . S
C1281 C1280 1.373 . S
C1281 C1282 1.396 . S
C1281 C1288 1.403 . S
C1282 C1272 1.476 . S
C1282 N1277 1.318 . S
C1282 C1281 1.396 . S
H1283 C1278 0.929 . S
O1284 Mn1260 2.385 . S
O1284 C1262 1.234 . S
O1285 Mn1260 2.209 . S
O1285 Mn1261 2.215 . S
O1285 C1262 1.283 . S
O1286 Mn1260 2.094 . S
O1286 C1264 1.240 . S
O1287 Mn1261 2.117 . S
O1287 C1264 1.264 . S
C1288 C1281 1.403 . S
C1288 C1289 1.399 . S
C1288 H1294 0.929 . S
C1289 C1269 1.449 . S
C1289 C1288 1.399 . S
C1289 H1295 0.930 . S
H1290 C1270 0.931 . S
H1291 C1271 0.930 . S
H1292 C1279 0.931 . S
H1293 C1280 0.929 . S
H1294 C1288 0.929 . S
H1295 C1289 0.930 . S
C1296 C1297 1.387 . S
C1296 H1300 0.950 . S
C1296 C1305 1.390 1_565 S
C1297 C1296 1.387 . S
C1297 C1299 1.387 . S
H1298 C1305 0.950 . S
C1299 C1297 1.387 . S
C1299 C1301 1.390 1_565 S
C1299 H1303 0.950 . S
H1300 C1296 0.950 . S
C1301 C1299 1.390 1_545 S
C1301 C1302 1.387 . S
C1301 H1304 0.950 . S
C1302 C1301 1.387 . S
C1302 C1305 1.387 . S
H1303 C1299 0.950 . S
H1304 C1301 0.950 . S
C1305 C1296 1.390 1_545 S
C1305 H1298 0.950 . S
C1305 C1302 1.387 . S
C1306 C1307 1.387 . S
C1306 H1310 0.950 . S
C1306 C1315 1.390 1_455 S
C1307 C1306 1.387 . S
C1307 C1309 1.387 . S
H1308 C1315 0.950 . S
C1309 C1307 1.387 . S
C1309 C1311 1.390 1_455 S
C1309 H1313 0.950 . S
H1310 C1306 0.950 . S
C1311 C1309 1.390 1_655 S
C1311 C1312 1.387 . S
C1311 H1314 0.950 . S
C1312 C1311 1.387 . S
C1312 C1315 1.387 . S
H1313 C1309 0.950 . S
H1314 C1311 0.950 . S
C1315 C1306 1.390 1_655 S
C1315 H1308 0.950 . S
C1315 C1312 1.387 . S
C1316 C1317 1.387 . S
C1316 H1320 0.950 . S
C1316 C1325 1.390 . S
C1317 C1316 1.387 . S
C1317 C1319 1.387 . S
H1318 C1325 0.950 . S
C1319 C1317 1.387 . S
C1319 C1321 1.390 . S
C1319 H1323 0.950 . S
H1320 C1316 0.950 . S
C1321 C1319 1.390 . S
C1321 C1322 1.387 . S
C1321 H1324 0.950 . S
C1322 C1321 1.387 . S
C1322 C1325 1.387 . S
H1323 C1319 0.950 . S
H1324 C1321 0.950 . S
C1325 C1316 1.390 . S
C1325 H1318 0.950 . S
C1325 C1322 1.387 . S
C1326 C1327 1.387 . S
C1326 H1330 0.950 . S
C1326 C1335 1.390 1_565 S
C1327 C1326 1.387 . S
C1327 C1329 1.387 . S
H1328 C1335 0.950 . S
C1329 C1327 1.387 . S
C1329 C1331 1.390 1_565 S
C1329 H1333 0.950 . S
H1330 C1326 0.950 . S
C1331 C1329 1.390 1_545 S
C1331 C1332 1.387 . S
C1331 H1334 0.950 . S
C1332 C1331 1.387 . S
C1332 C1335 1.387 . S
H1333 C1329 0.950 . S
H1334 C1331 0.950 . S
C1335 C1326 1.390 1_545 S
C1335 H1328 0.950 . S
C1335 C1332 1.387 . S
C1336 C1337 1.387 . S
C1336 H1340 0.950 . S
C1336 C1345 1.390 1_455 S
C1337 C1336 1.387 . S
C1337 C1339 1.387 . S
H1338 C1345 0.950 . S
C1339 C1337 1.387 . S
C1339 C1341 1.390 1_455 S
C1339 H1343 0.950 . S
H1340 C1336 0.950 . S
C1341 C1339 1.390 1_655 S
C1341 C1342 1.387 . S
C1341 H1344 0.950 . S
C1342 C1341 1.387 . S
C1342 C1345 1.387 . S
H1343 C1339 0.950 . S
H1344 C1341 0.950 . S
C1345 C1336 1.390 1_655 S
C1345 H1338 0.950 . S
C1345 C1342 1.387 . S
C1346 C1347 1.387 . S
C1346 H1350 0.950 . S
C1346 C1355 1.390 . S
C1347 C1346 1.387 . S
C1347 C1349 1.387 . S
H1348 C1355 0.950 . S
C1349 C1347 1.387 . S
C1349 C1351 1.390 . S
C1349 H1353 0.950 . S
H1350 C1346 0.950 . S
C1351 C1349 1.390 . S
C1351 C1352 1.387 . S
C1351 H1354 0.950 . S
C1352 C1351 1.387 . S
C1352 C1355 1.387 . S
H1353 C1349 0.950 . S
H1354 C1351 0.950 . S
C1355 C1346 1.390 . S
C1355 H1348 0.950 . S
C1355 C1352 1.387 . S
C1356 C1357 1.390 . S
C1356 H1360 0.948 1_655 S
C1356 C1365 1.390 . S
C1357 C1356 1.390 . S
C1357 C1359 1.387 . S
H1358 C1365 0.950 . S
C1359 C1357 1.387 . S
C1359 C1361 1.390 . S
C1359 H1363 0.950 . S
H1360 C1356 0.948 1_455 S
C1361 C1359 1.390 . S
C1361 C1362 1.387 . S
C1361 H1364 0.950 . S
C1362 C1361 1.387 . S
C1362 C1365 1.387 . S
H1363 C1359 0.950 . S
H1364 C1361 0.950 . S
C1365 C1356 1.390 . S
C1365 H1358 0.950 . S
C1365 C1362 1.387 . S
C1366 C1367 1.387 . S
C1366 H1370 0.950 . S
C1366 C1375 1.390 . S
C1367 C1366 1.387 . S
C1367 C1369 1.387 . S
H1368 C1375 0.950 . S
C1369 C1367 1.387 . S
C1369 C1371 1.390 . S
C1369 H1373 0.950 . S
H1370 C1366 0.950 . S
C1371 C1369 1.390 . S
C1371 C1372 1.387 . S
C1371 H1374 0.950 . S
C1372 C1371 1.387 . S
C1372 C1375 1.387 . S
H1373 C1369 0.950 . S
H1374 C1371 0.950 . S
C1375 C1366 1.390 . S
C1375 H1368 0.950 . S
C1375 C1372 1.387 . S
C1376 C1377 1.387 . S
C1376 H1380 0.950 . S
C1376 C1385 1.390 . S
C1377 C1376 1.387 . S
C1377 C1379 1.387 . S
H1378 C1385 0.950 . S
C1379 C1377 1.387 . S
C1379 C1381 1.390 . S
C1379 H1383 0.950 . S
H1380 C1376 0.950 . S
C1381 C1379 1.390 . S
C1381 C1382 1.387 . S
C1381 H1384 0.950 . S
C1382 C1381 1.387 . S
C1382 C1385 1.387 . S
H1383 C1379 0.950 . S
H1384 C1381 0.950 . S
C1385 C1376 1.390 . S
C1385 H1378 0.950 . S
C1385 C1382 1.387 . S
C1386 C1387 1.387 . S
C1386 H1390 0.950 . S
C1386 C1395 1.390 . S
C1387 C1386 1.387 . S
C1387 C1389 1.387 . S
H1388 C1395 0.950 . S
C1389 C1387 1.387 . S
C1389 C1391 1.390 . S
C1389 H1393 0.950 . S
H1390 C1386 0.950 . S
C1391 C1389 1.390 . S
C1391 C1392 1.387 . S
C1391 H1394 0.950 . S
C1392 C1391 1.387 . S
C1392 C1395 1.387 . S
H1393 C1389 0.950 . S
H1394 C1391 0.950 . S
C1395 C1386 1.390 . S
C1395 H1388 0.950 . S
C1395 C1392 1.387 . S
C1396 C1397 1.387 . S
C1396 H1400 0.950 . S
C1396 C1405 1.390 . S
C1397 C1396 1.387 . S
C1397 C1399 1.387 . S
H1398 C1405 0.950 . S
C1399 C1397 1.387 . S
C1399 C1401 1.390 . S
C1399 H1403 0.950 1_545 S
H1400 C1396 0.950 . S
C1401 C1399 1.390 . S
C1401 C1402 1.387 . S
C1401 H1404 0.950 . S
C1402 C1401 1.387 . S
C1402 C1405 1.387 . S
H1403 C1399 0.950 1_565 S
H1404 C1401 0.950 . S
C1405 C1396 1.390 . S
C1405 H1398 0.950 . S
C1405 C1402 1.387 . S
C1406 C1407 1.387 . S
C1406 H1410 0.950 . S
C1406 C1415 1.390 . S
C1407 C1406 1.387 . S
C1407 C1409 1.387 . S
H1408 C1415 0.950 1_455 S
C1409 C1407 1.387 . S
C1409 C1411 1.390 . S
C1409 H1413 0.950 . S
H1410 C1406 0.950 . S
C1411 C1409 1.390 . S
C1411 C1412 1.387 . S
C1411 H1414 0.950 . S
C1412 C1411 1.387 . S
C1412 C1415 1.387 . S
H1413 C1409 0.950 . S
H1414 C1411 0.950 . S
C1415 C1406 1.390 . S
C1415 H1408 0.950 1_655 S
C1415 C1412 1.387 . S
C1416 C1417 1.387 . S
C1416 H1420 0.950 . S
C1416 C1425 1.390 . S
C1417 C1416 1.387 . S
C1417 C1419 1.387 . S
H1418 C1425 0.950 . S
C1419 C1417 1.387 . S
C1419 C1421 1.390 . S
C1419 H1423 0.950 . S
H1420 C1416 0.950 . S
C1421 C1419 1.390 . S
C1421 C1422 1.387 . S
C1421 H1424 0.950 . S
C1422 C1421 1.387 . S
C1422 C1425 1.387 . S
H1423 C1419 0.950 . S
H1424 C1421 0.950 . S
C1425 C1416 1.390 . S
C1425 H1418 0.950 . S
C1425 C1422 1.387 . S
C1426 C1427 1.387 . S
C1426 H1430 0.950 . S
C1426 C1435 1.390 . S
C1427 C1426 1.387 . S
C1427 C1429 1.387 . S
H1428 C1435 0.950 . S
C1429 C1427 1.387 . S
C1429 C1431 1.390 . S
C1429 H1433 0.950 . S
H1430 C1426 0.950 . S
C1431 C1429 1.390 . S
C1431 C1432 1.387 . S
C1431 H1434 0.950 . S
C1432 C1431 1.387 . S
C1432 C1435 1.387 . S
H1433 C1429 0.950 . S
H1434 C1431 0.950 . S
C1435 C1426 1.390 . S
C1435 H1428 0.950 . S
C1435 C1432 1.387 . S
C1436 C1437 1.387 . S
C1436 H1440 0.950 . S
C1436 C1445 1.390 . S
C1437 C1436 1.387 . S
C1437 C1439 1.387 . S
H1438 C1445 0.950 . S
C1439 C1437 1.387 . S
C1439 C1441 1.390 . S
C1439 H1443 0.950 . S
H1440 C1436 0.950 . S
C1441 C1439 1.390 . S
C1441 C1442 1.387 . S
C1441 H1444 0.950 1_455 S
C1442 C1441 1.387 . S
C1442 C1445 1.387 . S
H1443 C1439 0.950 . S
H1444 C1441 0.950 1_655 S
C1445 C1436 1.390 . S
C1445 H1438 0.950 . S
C1445 C1442 1.387 . S
C1446 C1447 1.387 . S
C1446 H1450 0.950 . S
C1446 C1455 1.390 . S
C1447 C1446 1.387 . S
C1447 C1449 1.387 . S
H1448 C1455 0.948 1_655 S
C1449 C1447 1.387 . S
C1449 C1451 1.390 . S
C1449 H1453 0.950 . S
H1450 C1446 0.950 . S
C1451 C1449 1.390 . S
C1451 C1452 1.387 . S
C1451 H1454 0.950 . S
C1452 C1451 1.387 . S
C1452 C1455 1.389 . S
H1453 C1449 0.950 . S
H1454 C1451 0.950 . S
C1455 C1446 1.390 . S
C1455 H1448 0.948 1_455 S
C1455 C1452 1.389 . S
C1456 C1457 1.387 . S
C1456 H1460 0.950 . S
C1456 C1465 1.390 . S
C1457 C1456 1.387 . S
C1457 C1459 1.387 . S
H1458 C1465 0.950 . S
C1459 C1457 1.387 . S
C1459 C1461 1.390 . S
C1459 H1463 0.950 . S
H1460 C1456 0.950 . S
C1461 C1459 1.390 . S
C1461 C1462 1.387 . S
C1461 H1464 0.950 . S
C1462 C1461 1.387 . S
C1462 C1465 1.387 . S
H1463 C1459 0.950 . S
H1464 C1461 0.950 . S
C1465 C1456 1.390 . S
C1465 H1458 0.950 . S
C1465 C1462 1.387 . S
C1466 C1467 1.387 . S
C1466 H1470 0.950 . S
C1466 C1475 1.390 . S
C1467 C1466 1.387 . S
C1467 C1469 1.387 . S
H1468 C1475 0.950 1_545 S
C1469 C1467 1.387 . S
C1469 C1471 1.390 . S
C1469 H1473 0.950 . S
H1470 C1466 0.950 . S
C1471 C1469 1.390 . S
C1471 C1472 1.387 . S
C1471 H1474 0.950 . S
C1472 C1471 1.387 . S
C1472 C1475 1.387 . S
H1473 C1469 0.950 . S
H1474 C1471 0.950 . S
C1475 C1466 1.390 . S
C1475 H1468 0.950 1_565 S
C1475 C1472 1.387 . S
C1476 C1477 1.387 . S
C1476 H1480 0.950 . S
C1476 C1485 1.390 . S
C1477 C1476 1.387 . S
C1477 C1479 1.387 . S
H1478 C1485 0.950 . S
C1479 C1477 1.387 . S
C1479 C1481 1.390 . S
C1479 H1483 0.950 . S
H1480 C1476 0.950 . S
C1481 C1479 1.390 . S
C1481 C1482 1.387 . S
C1481 H1484 0.950 . S
C1482 C1481 1.387 . S
C1482 C1485 1.387 . S
H1483 C1479 0.950 . S
H1484 C1481 0.950 . S
C1485 C1476 1.390 . S
C1485 H1478 0.950 . S
C1485 C1482 1.387 . S
C1486 C1487 1.387 . S
C1486 H1490 0.950 . S
C1486 C1495 1.390 . S
C1487 C1486 1.387 . S
C1487 C1489 1.387 . S
H1488 C1495 0.950 . S
C1489 C1487 1.387 . S
C1489 C1491 1.390 . S
C1489 H1493 0.950 . S
H1490 C1486 0.950 . S
C1491 C1489 1.390 . S
C1491 C1492 1.387 . S
C1491 H1494 0.950 . S
C1492 C1491 1.387 . S
C1492 C1495 1.387 . S
H1493 C1489 0.950 . S
H1494 C1491 0.950 . S
C1495 C1486 1.390 . S
C1495 H1488 0.950 . S
C1495 C1492 1.387 . S
C1496 C1497 1.387 . S
C1496 H1500 0.950 . S
C1496 C1505 1.390 . S
C1497 C1496 1.387 . S
C1497 C1499 1.387 . S
H1498 C1505 0.950 . S
C1499 C1497 1.387 . S
C1499 C1501 1.390 . S
C1499 H1503 0.950 . S
H1500 C1496 0.950 . S
C1501 C1499 1.390 . S
C1501 C1502 1.387 . S
C1501 H1504 0.950 . S
C1502 C1501 1.387 . S
C1502 C1505 1.387 . S
H1503 C1499 0.950 . S
H1504 C1501 0.950 . S
C1505 C1496 1.390 . S
C1505 H1498 0.950 . S
C1505 C1502 1.387 . S
C1506 C1507 1.387 . S
C1506 H1510 0.950 . S
C1506 C1515 1.390 . S
C1507 C1506 1.387 . S
C1507 C1509 1.387 . S
H1508 C1515 0.950 . S
C1509 C1507 1.387 . S
C1509 C1511 1.390 . S
C1509 H1513 0.950 . S
H1510 C1506 0.950 . S
C1511 C1509 1.390 . S
C1511 C1512 1.387 . S
C1511 H1514 0.950 . S
C1512 C1511 1.387 . S
C1512 C1515 1.387 . S
H1513 C1509 0.950 . S
H1514 C1511 0.950 . S
C1515 C1506 1.390 . S
C1515 H1508 0.950 . S
C1515 C1512 1.387 . S
C1516 C1517 1.387 . S
C1516 H1520 0.950 . S
C1516 C1525 1.390 . S
C1517 C1516 1.387 . S
C1517 C1519 1.387 . S
H1518 C1525 0.950 . S
C1519 C1517 1.387 . S
C1519 C1521 1.390 . S
C1519 H1523 0.950 . S
H1520 C1516 0.950 . S
C1521 C1519 1.390 . S
C1521 C1522 1.387 . S
C1521 H1524 0.950 . S
C1522 C1521 1.387 . S
C1522 C1525 1.387 . S
H1523 C1519 0.950 . S
H1524 C1521 0.950 . S
C1525 C1516 1.390 . S
C1525 H1518 0.950 . S
C1525 C1522 1.387 . S
C1526 C1527 1.387 . S
C1526 H1530 0.950 . S
C1526 C1535 1.390 . S
C1527 C1526 1.387 . S
C1527 C1529 1.387 . S
H1528 C1535 0.950 . S
C1529 C1527 1.387 . S
C1529 C1531 1.390 . S
C1529 H1533 0.950 . S
H1530 C1526 0.950 . S
C1531 C1529 1.390 . S
C1531 C1532 1.387 . S
C1531 H1534 0.950 . S
C1532 C1531 1.387 . S
C1532 C1535 1.387 . S
H1533 C1529 0.950 . S
H1534 C1531 0.950 . S
C1535 C1526 1.390 . S
C1535 H1528 0.950 . S
C1535 C1532 1.387 . S
C1536 C1537 1.387 . S
C1536 H1540 0.950 . S
C1536 C1545 1.390 . S
C1537 C1536 1.387 . S
C1537 C1539 1.387 . S
H1538 C1545 0.950 . S
C1539 C1537 1.387 . S
C1539 C1541 1.390 . S
C1539 H1543 0.950 . S
H1540 C1536 0.950 . S
C1541 C1539 1.390 . S
C1541 C1542 1.387 . S
C1541 H1544 0.950 . S
C1542 C1541 1.387 . S
C1542 C1545 1.387 . S
H1543 C1539 0.950 . S
H1544 C1541 0.950 . S
C1545 C1536 1.390 . S
C1545 H1538 0.950 . S
C1545 C1542 1.387 . S
C1546 C1547 1.387 . S
C1546 H1550 0.950 . S
C1546 C1555 1.390 . S
C1547 C1546 1.387 . S
C1547 C1549 1.387 . S
H1548 C1555 0.950 . S
C1549 C1547 1.387 . S
C1549 C1551 1.390 . S
C1549 H1553 0.950 . S
H1550 C1546 0.950 . S
C1551 C1549 1.390 . S
C1551 C1552 1.387 . S
C1551 H1554 0.950 . S
C1552 C1551 1.387 . S
C1552 C1555 1.387 . S
H1553 C1549 0.950 . S
H1554 C1551 0.950 . S
C1555 C1546 1.390 . S
C1555 H1548 0.950 . S
C1555 C1552 1.387 . S
C1556 C1557 1.387 . S
C1556 H1560 0.950 . S
C1556 C1565 1.390 . S
C1557 C1556 1.387 . S
C1557 C1559 1.387 . S
H1558 C1565 0.950 . S
C1559 C1557 1.387 . S
C1559 C1561 1.390 . S
C1559 H1563 0.950 . S
H1560 C1556 0.950 . S
C1561 C1559 1.390 . S
C1561 C1562 1.387 . S
C1561 H1564 0.950 . S
C1562 C1561 1.387 . S
C1562 C1565 1.387 . S
H1563 C1559 0.950 . S
H1564 C1561 0.950 . S
C1565 C1556 1.390 . S
C1565 H1558 0.950 . S
C1565 C1562 1.387 . S
C1566 C1567 1.387 . S
C1566 H1570 0.950 . S
C1566 C1575 1.390 . S
C1567 C1566 1.387 . S
C1567 C1569 1.387 . S
H1568 C1575 0.950 . S
C1569 C1567 1.387 . S
C1569 C1571 1.390 . S
C1569 H1573 0.950 . S
H1570 C1566 0.950 . S
C1571 C1569 1.390 . S
C1571 C1572 1.387 . S
C1571 H1574 0.950 . S
C1572 C1571 1.387 . S
C1572 C1575 1.387 . S
H1573 C1569 0.950 . S
H1574 C1571 0.950 . S
C1575 C1566 1.390 . S
C1575 H1568 0.950 . S
C1575 C1572 1.387 . S
C1576 C1577 1.387 . S
C1576 H1580 0.950 . S
C1576 C1585 1.390 . S
C1577 C1576 1.387 . S
C1577 C1579 1.387 . S
H1578 C1585 0.950 . S
C1579 C1577 1.387 . S
C1579 C1581 1.390 . S
C1579 H1583 0.950 . S
H1580 C1576 0.950 . S
C1581 C1579 1.390 . S
C1581 C1582 1.387 . S
C1581 H1584 0.950 . S
C1582 C1581 1.387 . S
C1582 C1585 1.387 . S
H1583 C1579 0.950 . S
H1584 C1581 0.950 . S
C1585 C1576 1.390 . S
C1585 H1578 0.950 . S
C1585 C1582 1.387 . S
C1586 C1587 1.387 . S
C1586 H1590 0.950 . S
C1586 C1595 1.390 . S
C1587 C1586 1.387 . S
C1587 C1589 1.387 . S
H1588 C1595 0.950 . S
C1589 C1587 1.387 . S
C1589 C1591 1.390 . S
C1589 H1593 0.950 . S
H1590 C1586 0.950 . S
C1591 C1589 1.390 . S
C1591 C1592 1.387 . S
C1591 H1594 0.950 . S
C1592 C1591 1.387 . S
C1592 C1595 1.387 . S
H1593 C1589 0.950 . S
H1594 C1591 0.950 . S
C1595 C1586 1.390 . S
C1595 H1588 0.950 . S
C1595 C1592 1.387 . S
C1596 C1597 1.387 . S
C1596 H1600 0.950 . S
C1596 C1605 1.390 . S
C1597 C1596 1.387 . S
C1597 C1599 1.387 1_455 S
H1598 C1605 0.950 . S
C1599 C1597 1.387 1_655 S
C1599 C1601 1.390 . S
C1599 H1603 0.950 . S
H1600 C1596 0.950 . S
C1601 C1599 1.390 . S
C1601 C1602 1.387 . S
C1601 H1604 0.950 . S
C1602 C1601 1.387 . S
C1602 C1605 1.387 1_655 S
H1603 C1599 0.950 . S
H1604 C1601 0.950 . S
C1605 C1596 1.390 . S
C1605 H1598 0.950 . S
C1605 C1602 1.387 1_455 S
C1606 C1607 1.387 . S
C1606 H1610 0.950 . S
C1606 C1615 1.390 . S
C1607 C1606 1.387 . S
C1607 C1609 1.387 . S
H1608 C1615 0.950 . S
C1609 C1607 1.387 . S
C1609 C1611 1.390 . S
C1609 H1613 0.950 . S
H1610 C1606 0.950 . S
C1611 C1609 1.390 . S
C1611 C1612 1.387 . S
C1611 H1614 0.950 . S
C1612 C1611 1.387 . S
C1612 C1615 1.387 . S
H1613 C1609 0.950 . S
H1614 C1611 0.950 . S
C1615 C1606 1.390 . S
C1615 H1608 0.950 . S
C1615 C1612 1.387 . S
C1616 C1617 1.387 . S
C1616 H1620 0.950 . S
C1616 C1625 1.390 1_545 S
C1617 C1616 1.387 . S
C1617 C1619 1.387 . S
H1618 C1625 0.950 . S
C1619 C1617 1.387 . S
C1619 C1621 1.390 1_545 S
C1619 H1623 0.950 . S
H1620 C1616 0.950 . S
C1621 C1619 1.390 1_565 S
C1621 C1622 1.387 . S
C1621 H1624 0.950 . S
C1622 C1621 1.387 . S
C1622 C1625 1.387 . S
H1623 C1619 0.950 . S
H1624 C1621 0.950 . S
C1625 C1616 1.390 1_565 S
C1625 H1618 0.950 . S
C1625 C1622 1.387 . S
C1626 C1627 1.387 . S
C1626 H1630 0.950 . S
C1626 C1635 1.390 1_565 S
C1627 C1626 1.387 . S
C1627 C1629 1.387 . S
H1628 C1635 0.950 . S
C1629 C1627 1.387 . S
C1629 C1631 1.390 1_565 S
C1629 H1633 0.950 . S
H1630 C1626 0.950 . S
C1631 C1629 1.390 1_545 S
C1631 C1632 1.387 . S
C1631 H1634 0.950 . S
C1632 C1631 1.387 . S
C1632 C1635 1.387 . S
H1633 C1629 0.950 . S
H1634 C1631 0.950 . S
C1635 C1626 1.390 1_545 S
C1635 H1628 0.950 . S
C1635 C1632 1.387 . S
C1636 C1637 1.387 . S
C1636 H1640 0.950 . S
C1636 C1645 1.390 . S
C1637 C1636 1.387 . S
C1637 C1639 1.387 1_655 S
H1638 C1645 0.950 . S
C1639 C1637 1.387 1_455 S
C1639 C1641 1.390 . S
C1639 H1643 0.950 . S
H1640 C1636 0.950 . S
C1641 C1639 1.390 . S
C1641 C1642 1.387 . S
C1641 H1644 0.950 . S
C1642 C1641 1.387 . S
C1642 C1645 1.387 1_455 S
H1643 C1639 0.950 . S
H1644 C1641 0.950 . S
C1645 C1636 1.390 . S
C1645 H1638 0.950 . S
C1645 C1642 1.387 1_655 S
C1646 C1647 1.387 . S
C1646 H1650 0.950 . S
C1646 C1655 1.390 . S
C1647 C1646 1.387 . S
C1647 C1649 1.387 . S
H1648 C1655 0.950 . S
C1649 C1647 1.387 . S
C1649 C1651 1.390 . S
C1649 H1653 0.950 . S
H1650 C1646 0.950 . S
C1651 C1649 1.390 . S
C1651 C1652 1.387 . S
C1651 H1654 0.950 . S
C1652 C1651 1.387 . S
C1652 C1655 1.387 . S
H1653 C1649 0.950 . S
H1654 C1651 0.950 . S
C1655 C1646 1.390 . S
C1655 H1648 0.950 . S
C1655 C1652 1.387 . S
C1656 C1657 1.387 . S
C1656 H1660 0.950 . S
C1656 C1665 1.390 . S
C1657 C1656 1.387 . S
C1657 C1659 1.387 . S
H1658 C1665 0.950 . S
C1659 C1657 1.387 . S
C1659 C1661 1.390 . S
C1659 H1663 0.950 . S
H1660 C1656 0.950 . S
C1661 C1659 1.390 . S
C1661 C1662 1.387 . S
C1661 H1664 0.950 . S
C1662 C1661 1.387 . S
C1662 C1665 1.387 . S
H1663 C1659 0.950 . S
H1664 C1661 0.950 . S
C1665 C1656 1.390 . S
C1665 H1658 0.950 . S
C1665 C1662 1.387 . S
C1666 C1667 1.387 . S
C1666 H1670 0.950 . S
C1666 C1675 1.390 . S
C1667 C1666 1.387 . S
C1667 C1669 1.387 . S
H1668 C1675 0.950 . S
C1669 C1667 1.387 . S
C1669 C1671 1.390 . S
C1669 H1673 0.950 . S
H1670 C1666 0.950 . S
C1671 C1669 1.390 . S
C1671 C1672 1.387 . S
C1671 H1674 0.950 . S
C1672 C1671 1.387 . S
C1672 C1675 1.387 . S
H1673 C1669 0.950 . S
H1674 C1671 0.950 . S
C1675 C1666 1.390 . S
C1675 H1668 0.950 . S
C1675 C1672 1.387 . S
C1676 C1677 1.387 . S
C1676 H1680 0.950 . S
C1676 C1685 1.390 . S
C1677 C1676 1.387 . S
C1677 C1679 1.387 . S
H1678 C1685 0.950 . S
C1679 C1677 1.387 . S
C1679 C1681 1.390 . S
C1679 H1683 0.950 . S
H1680 C1676 0.950 . S
C1681 C1679 1.390 . S
C1681 C1682 1.387 . S
C1681 H1684 0.950 . S
C1682 C1681 1.387 . S
C1682 C1685 1.387 . S
H1683 C1679 0.950 . S
H1684 C1681 0.950 . S
C1685 C1676 1.390 . S
C1685 H1678 0.950 . S
C1685 C1682 1.387 . S
C1686 C1687 1.387 . S
C1686 H1690 0.950 . S
C1686 C1695 1.390 . S
C1687 C1686 1.387 . S
C1687 C1689 1.387 . S
H1688 C1695 0.950 . S
C1689 C1687 1.387 . S
C1689 C1691 1.390 . S
C1689 H1693 0.950 . S
H1690 C1686 0.950 . S
C1691 C1689 1.390 . S
C1691 C1692 1.387 . S
C1691 H1694 0.950 . S
C1692 C1691 1.387 . S
C1692 C1695 1.387 . S
H1693 C1689 0.950 . S
H1694 C1691 0.950 . S
C1695 C1686 1.390 . S
C1695 H1688 0.950 . S
C1695 C1692 1.387 . S
C1696 C1697 1.387 . S
C1696 H1700 0.950 . S
C1696 C1705 1.390 . S
C1697 C1696 1.387 . S
C1697 C1699 1.387 . S
H1698 C1705 0.950 . S
C1699 C1697 1.387 . S
C1699 C1701 1.390 . S
C1699 H1703 0.950 . S
H1700 C1696 0.950 . S
C1701 C1699 1.390 . S
C1701 C1702 1.387 . S
C1701 H1704 0.950 . S
C1702 C1701 1.387 . S
C1702 C1705 1.387 . S
H1703 C1699 0.950 . S
H1704 C1701 0.950 . S
C1705 C1696 1.390 . S
C1705 H1698 0.950 . S
C1705 C1702 1.387 . S
C1706 C1707 1.387 . S
C1706 H1710 0.950 . S
C1706 C1715 1.390 . S
C1707 C1706 1.387 . S
C1707 C1709 1.387 . S
H1708 C1715 0.950 . S
C1709 C1707 1.387 . S
C1709 C1711 1.390 . S
C1709 H1713 0.950 . S
H1710 C1706 0.950 . S
C1711 C1709 1.390 . S
C1711 C1712 1.387 . S
C1711 H1714 0.950 . S
C1712 C1711 1.387 . S
C1712 C1715 1.387 . S
H1713 C1709 0.950 . S
H1714 C1711 0.950 . S
C1715 C1706 1.390 . S
C1715 H1708 0.950 . S
C1715 C1712 1.387 . S
C1716 C1717 1.387 . S
C1716 H1720 0.950 . S
C1716 C1725 1.390 . S
C1717 C1716 1.387 . S
C1717 C1719 1.387 . S
H1718 C1725 0.950 . S
C1719 C1717 1.387 . S
C1719 C1721 1.390 . S
C1719 H1723 0.950 . S
H1720 C1716 0.950 . S
C1721 C1719 1.390 . S
C1721 C1722 1.387 . S
C1721 H1724 0.950 . S
C1722 C1721 1.387 . S
C1722 C1725 1.387 . S
H1723 C1719 0.950 . S
H1724 C1721 0.950 . S
C1725 C1716 1.390 . S
C1725 H1718 0.950 . S
C1725 C1722 1.387 . S
C1726 C1727 1.387 . S
C1726 H1730 0.950 . S
C1726 C1735 1.390 . S
C1727 C1726 1.387 . S
C1727 C1729 1.387 . S
H1728 C1735 0.950 . S
C1729 C1727 1.387 . S
C1729 C1731 1.390 . S
C1729 H1733 0.950 . S
H1730 C1726 0.950 . S
C1731 C1729 1.390 . S
C1731 C1732 1.387 . S
C1731 H1734 0.950 . S
C1732 C1731 1.387 . S
C1732 C1735 1.387 . S
H1733 C1729 0.950 . S
H1734 C1731 0.950 . S
C1735 C1726 1.390 . S
C1735 H1728 0.950 . S
C1735 C1732 1.387 . S
C1736 C1737 1.387 . S
C1736 H1740 0.950 . S
C1736 C1745 1.390 . S
C1737 C1736 1.387 . S
C1737 C1739 1.387 . S
H1738 C1745 0.950 . S
C1739 C1737 1.387 . S
C1739 C1741 1.390 . S
C1739 H1743 0.950 . S
H1740 C1736 0.950 . S
C1741 C1739 1.390 . S
C1741 C1742 1.387 . S
C1741 H1744 0.950 . S
C1742 C1741 1.387 . S
C1742 C1745 1.387 . S
H1743 C1739 0.950 . S
H1744 C1741 0.950 . S
C1745 C1736 1.390 . S
C1745 H1738 0.950 . S
C1745 C1742 1.387 . S
C1746 C1747 1.387 . S
C1746 H1750 0.950 . S
C1746 C1755 1.390 . S
C1747 C1746 1.387 . S
C1747 C1749 1.387 . S
H1748 C1755 0.950 . S
C1749 C1747 1.387 . S
C1749 C1751 1.390 . S
C1749 H1753 0.950 . S
H1750 C1746 0.950 . S
C1751 C1749 1.390 . S
C1751 C1752 1.387 . S
C1751 H1754 0.950 . S
C1752 C1751 1.387 . S
C1752 C1755 1.387 . S
H1753 C1749 0.950 . S
H1754 C1751 0.950 . S
C1755 C1746 1.390 . S
C1755 H1748 0.950 . S
C1755 C1752 1.387 . S
C1756 C1757 1.387 . S
C1756 H1760 0.950 . S
C1756 C1765 1.390 . S
C1757 C1756 1.387 . S
C1757 C1759 1.387 . S
H1758 C1765 0.950 . S
C1759 C1757 1.387 . S
C1759 C1761 1.390 . S
C1759 H1763 0.950 . S
H1760 C1756 0.950 . S
C1761 C1759 1.390 . S
C1761 C1762 1.387 . S
C1761 H1764 0.950 . S
C1762 C1761 1.387 . S
C1762 C1765 1.387 . S
H1763 C1759 0.950 . S
H1764 C1761 0.950 . S
C1765 C1756 1.390 . S
C1765 H1758 0.950 . S
C1765 C1762 1.387 . S
C1766 C1767 1.387 . S
C1766 H1770 0.950 . S
C1766 C1775 1.390 . S
C1767 C1766 1.387 . S
C1767 C1769 1.387 . S
H1768 C1775 0.950 . S
C1769 C1767 1.387 . S
C1769 C1771 1.390 . S
C1769 H1773 0.950 . S
H1770 C1766 0.950 . S
C1771 C1769 1.390 . S
C1771 C1772 1.387 . S
C1771 H1774 0.950 . S
C1772 C1771 1.387 . S
C1772 C1775 1.387 . S
H1773 C1769 0.950 . S
H1774 C1771 0.950 . S
C1775 C1766 1.390 . S
C1775 H1768 0.950 . S
C1775 C1772 1.387 . S
C1776 C1777 1.387 . S
C1776 H1780 0.950 . S
C1776 C1785 1.390 . S
C1777 C1776 1.387 . S
C1777 C1779 1.387 1_455 S
H1778 C1785 0.950 . S
C1779 C1777 1.387 1_655 S
C1779 C1781 1.390 . S
C1779 H1783 0.950 . S
H1780 C1776 0.950 . S
C1781 C1779 1.390 . S
C1781 C1782 1.387 . S
C1781 H1784 0.950 . S
C1782 C1781 1.387 . S
C1782 C1785 1.387 1_655 S
H1783 C1779 0.950 . S
H1784 C1781 0.950 . S
C1785 C1776 1.390 . S
C1785 H1778 0.950 . S
C1785 C1782 1.387 1_455 S
C1786 C1787 1.387 . S
C1786 H1790 0.950 . S
C1786 C1795 1.390 . S
C1787 C1786 1.387 . S
C1787 C1789 1.387 . S
H1788 C1795 0.950 . S
C1789 C1787 1.387 . S
C1789 C1791 1.390 . S
C1789 H1793 0.950 . S
H1790 C1786 0.950 . S
C1791 C1789 1.390 . S
C1791 C1792 1.387 . S
C1791 H1794 0.950 . S
C1792 C1791 1.387 . S
C1792 C1795 1.387 . S
H1793 C1789 0.950 . S
H1794 C1791 0.950 . S
C1795 C1786 1.390 . S
C1795 H1788 0.950 . S
C1795 C1792 1.387 . S
C1796 C1797 1.387 1_565 S
C1796 H1800 0.950 . S
C1796 C1805 1.390 . S
C1797 C1796 1.387 1_545 S
C1797 C1799 1.387 . S
H1798 C1805 0.950 . S
C1799 C1797 1.387 . S
C1799 C1801 1.390 . S
C1799 H1803 0.950 . S
H1800 C1796 0.950 . S
C1801 C1799 1.390 . S
C1801 C1802 1.387 1_545 S
C1801 H1804 0.950 . S
C1802 C1801 1.387 1_565 S
C1802 C1805 1.387 . S
H1803 C1799 0.950 . S
H1804 C1801 0.950 . S
C1805 C1796 1.390 . S
C1805 H1798 0.950 . S
C1805 C1802 1.387 . S
C1806 C1807 1.387 1_565 S
C1806 H1810 0.950 . S
C1806 C1815 1.390 1_556 S
C1807 C1806 1.387 1_545 S
C1807 C1809 1.387 . S
H1808 C1815 0.950 . S
C1809 C1807 1.387 . S
C1809 C1811 1.390 1_556 S
C1809 H1813 0.950 . S
H1810 C1806 0.950 . S
C1811 C1809 1.390 1_554 S
C1811 C1812 1.387 1_545 S
C1811 H1814 0.950 . S
C1812 C1811 1.387 1_565 S
C1812 C1815 1.387 . S
H1813 C1809 0.950 . S
H1814 C1811 0.950 . S
C1815 C1806 1.390 1_554 S
C1815 H1808 0.950 . S
C1815 C1812 1.387 . S
C1816 C1817 1.387 1_655 S
C1816 H1820 0.950 . S
C1816 C1825 1.390 . S
C1817 C1816 1.387 1_455 S
C1817 C1819 1.387 1_554 S
H1818 C1825 0.950 . S
C1819 C1817 1.387 1_556 S
C1819 C1821 1.390 . S
C1819 H1823 0.950 . S
H1820 C1816 0.950 . S
C1821 C1819 1.390 . S
C1821 C1822 1.387 1_455 S
C1821 H1824 0.950 . S
C1822 C1821 1.387 1_655 S
C1822 C1825 1.387 1_556 S
H1823 C1819 0.950 . S
H1824 C1821 0.950 . S
C1825 C1816 1.390 . S
C1825 H1818 0.950 . S
C1825 C1822 1.387 1_554 S
C1826 C1827 1.387 . S
C1826 H1830 0.950 . S
C1826 C1835 1.390 . S
C1827 C1826 1.387 . S
C1827 C1829 1.387 1_554 S
H1828 C1835 0.950 . S
C1829 C1827 1.387 1_556 S
C1829 C1831 1.390 . S
C1829 H1833 0.950 . S
H1830 C1826 0.950 . S
C1831 C1829 1.390 . S
C1831 C1832 1.387 . S
C1831 H1834 0.950 . S
C1832 C1831 1.387 . S
C1832 C1835 1.387 1_556 S
H1833 C1829 0.950 . S
H1834 C1831 0.950 . S
C1835 C1826 1.390 . S
C1835 H1828 0.950 . S
C1835 C1832 1.387 1_554 S
C1836 C1837 1.387 . S
C1836 H1840 0.950 . S
C1836 C1845 1.390 . S
C1837 C1836 1.387 . S
C1837 C1839 1.387 . S
H1838 C1845 0.950 . S
C1839 C1837 1.387 . S
C1839 C1841 1.390 . S
C1839 H1843 0.950 . S
H1840 C1836 0.950 . S
C1841 C1839 1.390 . S
C1841 C1842 1.387 . S
C1841 H1844 0.950 . S
C1842 C1841 1.387 . S
C1842 C1845 1.387 . S
H1843 C1839 0.950 . S
H1844 C1841 0.950 . S
C1845 C1836 1.390 . S
C1845 H1838 0.950 . S
C1845 C1842 1.387 . S
C1846 C1847 1.387 . S
C1846 H1850 0.950 . S
C1846 C1855 1.390 . S
C1847 C1846 1.387 . S
C1847 C1849 1.387 . S
H1848 C1855 0.950 . S
C1849 C1847 1.387 . S
C1849 C1851 1.390 . S
C1849 H1853 0.950 . S
H1850 C1846 0.950 . S
C1851 C1849 1.390 . S
C1851 C1852 1.387 . S
C1851 H1854 0.950 . S
C1852 C1851 1.387 . S
C1852 C1855 1.387 . S
H1853 C1849 0.950 . S
H1854 C1851 0.950 . S
C1855 C1846 1.390 . S
C1855 H1848 0.950 . S
C1855 C1852 1.387 . S
C1856 C1857 1.387 . S
C1856 H1860 0.950 . S
C1856 C1865 1.390 . S
C1857 C1856 1.387 . S
C1857 C1859 1.387 . S
H1858 C1865 0.950 . S
C1859 C1857 1.387 . S
C1859 C1861 1.390 . S
C1859 H1863 0.950 . S
H1860 C1856 0.950 . S
C1861 C1859 1.390 . S
C1861 C1862 1.387 . S
C1861 H1864 0.950 . S
C1862 C1861 1.387 . S
C1862 C1865 1.387 . S
H1863 C1859 0.950 . S
H1864 C1861 0.950 . S
C1865 C1856 1.390 . S
C1865 H1858 0.950 . S
C1865 C1862 1.387 . S
C1866 C1867 1.387 . S
C1866 H1870 0.950 . S
C1866 C1875 1.390 . S
C1867 C1866 1.387 . S
C1867 C1869 1.387 . S
H1868 C1875 0.950 . S
C1869 C1867 1.387 . S
C1869 C1871 1.390 . S
C1869 H1873 0.950 . S
H1870 C1866 0.950 . S
C1871 C1869 1.390 . S
C1871 C1872 1.387 . S
C1871 H1874 0.950 . S
C1872 C1871 1.387 . S
C1872 C1875 1.387 . S
H1873 C1869 0.950 . S
H1874 C1871 0.950 . S
C1875 C1866 1.390 . S
C1875 H1868 0.950 . S
C1875 C1872 1.387 . S
C1876 C1877 1.387 . S
C1876 H1880 0.950 . S
C1876 C1885 1.390 . S
C1877 C1876 1.387 . S
C1877 C1879 1.387 . S
H1878 C1885 0.950 . S
C1879 C1877 1.387 . S
C1879 C1881 1.390 . S
C1879 H1883 0.950 . S
H1880 C1876 0.950 . S
C1881 C1879 1.390 . S
C1881 C1882 1.387 . S
C1881 H1884 0.950 . S
C1882 C1881 1.387 . S
C1882 C1885 1.387 . S
H1883 C1879 0.950 . S
H1884 C1881 0.950 . S
C1885 C1876 1.390 . S
C1885 H1878 0.950 . S
C1885 C1882 1.387 . S
C1886 C1887 1.387 . S
C1886 H1890 0.950 . S
C1886 C1895 1.390 . S
C1887 C1886 1.387 . S
C1887 C1889 1.387 . S
H1888 C1895 0.950 . S
C1889 C1887 1.387 . S
C1889 C1891 1.390 . S
C1889 H1893 0.950 . S
H1890 C1886 0.950 . S
C1891 C1889 1.390 . S
C1891 C1892 1.387 . S
C1891 H1894 0.950 . S
C1892 C1891 1.387 . S
C1892 C1895 1.387 . S
H1893 C1889 0.950 . S
H1894 C1891 0.950 . S
C1895 C1886 1.390 . S
C1895 H1888 0.950 . S
C1895 C1892 1.387 . S
C1896 C1897 1.387 . S
C1896 H1900 0.950 . S
C1896 C1905 1.390 . S
C1897 C1896 1.387 . S
C1897 C1899 1.387 . S
H1898 C1905 0.950 . S
C1899 C1897 1.387 . S
C1899 C1901 1.390 . S
C1899 H1903 0.950 . S
H1900 C1896 0.950 . S
C1901 C1899 1.390 . S
C1901 C1902 1.387 . S
C1901 H1904 0.950 . S
C1902 C1901 1.387 . S
C1902 C1905 1.387 . S
H1903 C1899 0.950 . S
H1904 C1901 0.950 . S
C1905 C1896 1.390 . S
C1905 H1898 0.950 . S
C1905 C1902 1.387 . S
C1906 C1907 1.387 . S
C1906 H1910 0.950 . S
C1906 C1915 1.390 . S
C1907 C1906 1.387 . S
C1907 C1909 1.387 . S
H1908 C1915 0.950 . S
C1909 C1907 1.387 . S
C1909 C1911 1.390 . S
C1909 H1913 0.950 . S
H1910 C1906 0.950 . S
C1911 C1909 1.390 . S
C1911 C1912 1.387 . S
C1911 H1914 0.950 . S
C1912 C1911 1.387 . S
C1912 C1915 1.387 . S
H1913 C1909 0.950 . S
H1914 C1911 0.950 . S
C1915 C1906 1.390 . S
C1915 H1908 0.950 . S
C1915 C1912 1.387 . S
C1916 C1917 1.387 . S
C1916 H1920 0.950 . S
C1916 C1925 1.390 . S
C1917 C1916 1.387 . S
C1917 C1919 1.387 . S
H1918 C1925 0.950 . S
C1919 C1917 1.387 . S
C1919 C1921 1.390 . S
C1919 H1923 0.950 . S
H1920 C1916 0.950 . S
C1921 C1919 1.390 . S
C1921 C1922 1.387 . S
C1921 H1924 0.950 . S
C1922 C1921 1.387 . S
C1922 C1925 1.387 . S
H1923 C1919 0.950 . S
H1924 C1921 0.950 . S
C1925 C1916 1.390 . S
C1925 H1918 0.950 . S
C1925 C1922 1.387 . S
C1926 C1927 1.387 . S
C1926 H1930 0.950 . S
C1926 C1935 1.390 . S
C1927 C1926 1.387 . S
C1927 C1929 1.387 . S
H1928 C1935 0.950 . S
C1929 C1927 1.387 . S
C1929 C1931 1.390 . S
C1929 H1933 0.950 . S
H1930 C1926 0.950 . S
C1931 C1929 1.390 . S
C1931 C1932 1.387 . S
C1931 H1934 0.950 . S
C1932 C1931 1.387 . S
C1932 C1935 1.387 . S
H1933 C1929 0.950 . S
H1934 C1931 0.950 . S
C1935 C1926 1.390 . S
C1935 H1928 0.950 . S
C1935 C1932 1.387 . S
C1936 C1937 1.387 . S
C1936 H1940 0.950 . S
C1936 C1945 1.390 . S
C1937 C1936 1.387 . S
C1937 C1939 1.387 . S
H1938 C1945 0.950 . S
C1939 C1937 1.387 . S
C1939 C1941 1.390 . S
C1939 H1943 0.950 . S
H1940 C1936 0.950 . S
C1941 C1939 1.390 . S
C1941 C1942 1.387 . S
C1941 H1944 0.950 . S
C1942 C1941 1.387 . S
C1942 C1945 1.387 . S
H1943 C1939 0.950 . S
H1944 C1941 0.950 . S
C1945 C1936 1.390 . S
C1945 H1938 0.950 . S
C1945 C1942 1.387 . S
C1946 C1947 1.387 . S
C1946 H1950 0.950 . S
C1946 C1955 1.390 . S
C1947 C1946 1.387 . S
C1947 C1949 1.387 . S
H1948 C1955 0.950 . S
C1949 C1947 1.387 . S
C1949 C1951 1.390 . S
C1949 H1953 0.950 . S
H1950 C1946 0.950 . S
C1951 C1949 1.390 . S
C1951 C1952 1.387 . S
C1951 H1954 0.950 . S
C1952 C1951 1.387 . S
C1952 C1955 1.387 . S
H1953 C1949 0.950 . S
H1954 C1951 0.950 . S
C1955 C1946 1.390 . S
C1955 H1948 0.950 . S
C1955 C1952 1.387 . S
C1956 C1957 1.387 . S
C1956 H1960 0.950 . S
C1956 C1965 1.390 . S
C1957 C1956 1.387 . S
C1957 C1959 1.387 . S
H1958 C1965 0.950 . S
C1959 C1957 1.387 . S
C1959 C1961 1.390 . S
C1959 H1963 0.950 . S
H1960 C1956 0.950 . S
C1961 C1959 1.390 . S
C1961 C1962 1.387 . S
C1961 H1964 0.950 . S
C1962 C1961 1.387 . S
C1962 C1965 1.387 . S
H1963 C1959 0.950 . S
H1964 C1961 0.950 . S
C1965 C1956 1.390 . S
C1965 H1958 0.950 . S
C1965 C1962 1.387 . S
C1966 C1967 1.387 . S
C1966 H1970 0.950 . S
C1966 C1975 1.390 1_545 S
C1967 C1966 1.387 . S
C1967 C1969 1.387 . S
H1968 C1975 0.950 . S
C1969 C1967 1.387 . S
C1969 C1971 1.390 1_545 S
C1969 H1973 0.950 . S
H1970 C1966 0.950 . S
C1971 C1969 1.390 1_565 S
C1971 C1972 1.387 . S
C1971 H1974 0.950 . S
C1972 C1971 1.387 . S
C1972 C1975 1.387 . S
H1973 C1969 0.950 . S
H1974 C1971 0.950 . S
C1975 C1966 1.390 1_565 S
C1975 H1968 0.950 . S
C1975 C1972 1.387 . S
C1976 C1977 1.387 1_455 S
C1976 H1980 0.950 . S
C1976 C1985 1.390 . S
C1977 C1976 1.387 1_655 S
C1977 C1979 1.387 . S
H1978 C1985 0.950 . S
C1979 C1977 1.387 . S
C1979 C1981 1.390 . S
C1979 H1983 0.950 . S
H1980 C1976 0.950 . S
C1981 C1979 1.390 . S
C1981 C1982 1.387 1_655 S
C1981 H1984 0.950 . S
C1982 C1981 1.387 1_455 S
C1982 C1985 1.387 . S
H1983 C1979 0.950 . S
H1984 C1981 0.950 . S
C1985 C1976 1.390 . S
C1985 H1978 0.950 . S
C1985 C1982 1.387 . S
C1986 C1987 1.387 . S
C1986 H1990 0.950 . S
C1986 C1995 1.390 . S
C1987 C1986 1.387 . S
C1987 C1989 1.387 . S
H1988 C1995 0.950 . S
C1989 C1987 1.387 . S
C1989 C1991 1.390 . S
C1989 H1993 0.950 . S
H1990 C1986 0.950 . S
C1991 C1989 1.390 . S
C1991 C1992 1.387 . S
C1991 H1994 0.950 . S
C1992 C1991 1.387 . S
C1992 C1995 1.387 . S
H1993 C1989 0.950 . S
H1994 C1991 0.950 . S
C1995 C1986 1.390 . S
C1995 H1988 0.950 . S
C1995 C1992 1.387 . S
C1996 C1997 1.387 . S
C1996 H2000 0.950 . S
C1996 C2005 1.390 1_545 S
C1997 C1996 1.387 . S
C1997 C1999 1.387 . S
H1998 C2005 0.950 . S
C1999 C1997 1.387 . S
C1999 C2001 1.390 1_545 S
C1999 H2003 0.950 . S
H2000 C1996 0.950 . S
C2001 C1999 1.390 1_565 S
C2001 C2002 1.387 . S
C2001 H2004 0.950 . S
C2002 C2001 1.387 . S
C2002 C2005 1.387 . S
H2003 C1999 0.950 . S
H2004 C2001 0.950 . S
C2005 C1996 1.390 1_565 S
C2005 H1998 0.950 . S
C2005 C2002 1.387 . S
C2006 C2007 1.387 . S
C2006 H2010 0.950 . S
C2006 C2015 1.390 . S
C2007 C2006 1.387 . S
C2007 C2009 1.387 1_455 S
H2008 C2015 0.950 . S
C2009 C2007 1.387 1_655 S
C2009 C2011 1.390 . S
C2009 H2013 0.950 . S
H2010 C2006 0.950 . S
C2011 C2009 1.390 . S
C2011 C2012 1.387 . S
C2011 H2014 0.950 . S
C2012 C2011 1.387 . S
C2012 C2015 1.387 1_655 S
H2013 C2009 0.950 . S
H2014 C2011 0.950 . S
C2015 C2006 1.390 . S
C2015 H2008 0.950 . S
C2015 C2012 1.387 1_455 S
C1297 C182 1.038 . S
C1302 C2 1.038 . S
C1307 C110 1.036 . S
C1312 C38 1.038 . S
C1317 C74 1.036 . S
C1322 C146 1.039 . S
C1327 C218 1.038 . S
C1332 C398 1.038 . S
C1337 C254 1.035 . S
C1342 C326 1.037 . S
C1347 C362 1.035 . S
C1352 C290 1.038 . S
C1357 C434 1.035 1_655 S
C1362 C614 1.038 . S
C1367 C470 1.038 . S
C1372 C542 1.036 . S
C1377 C578 1.039 . S
C1382 C506 1.029 1_545 S
C1387 C830 1.036 . S
C1392 C650 1.036 . S
C1397 C758 1.033 1_545 S
C1402 C686 1.039 . S
C1407 C722 1.036 . S
C1412 C794 1.029 1_655 S
C1417 C1046 1.036 . S
C1422 C866 1.036 . S
C1427 C974 1.035 1_565 S
C1432 C902 1.035 . S
C1437 C938 1.037 . S
C1442 C1010 1.028 1_455 S
C1447 C1262 1.036 . S
C1452 C1082 1.032 1_455 S
C1457 C1190 1.037 . S
C1462 C1118 1.035 . S
C1467 C1226 1.035 . S
C1472 C1154 1.031 1_565 S
C1477 C580 1.643 . S
C1482 C4 1.644 . S
C1487 C616 1.643 . S
C1492 C40 1.642 . S
C1497 C544 1.642 . S
C1502 C76 1.642 . S
C1507 C112 1.642 . S
C1512 C940 1.621 1_554 S
C1517 C148 1.646 . S
C1522 C868 1.625 1_554 S
C1527 C184 1.644 . S
C1532 C904 1.624 1_554 S
C1537 C220 1.646 . S
C1542 C1228 1.647 . S
C1547 C1264 1.643 . S
C1552 C256 1.642 . S
C1557 C1192 1.642 . S
C1562 C292 1.642 . S
C1567 C724 1.621 1_556 S
C1572 C328 1.642 . S
C1577 C652 1.622 1_556 S
C1582 C364 1.642 . S
C1587 C400 1.642 . S
C1592 C688 1.621 1_556 S
C1597 C436 1.644 . S
C1602 C1012 1.645 . S
C1607 C1048 1.645 . S
C1612 C472 1.646 . S
C1617 C976 1.642 . S
C1622 C508 1.642 . S
C1627 C760 1.647 . S
C1632 C1156 1.647 . S
C1637 C1084 1.643 . S
C1642 C796 1.642 . S
C1647 C832 1.645 . S
C1652 C1120 1.646 . S
C1657 C662 1.400 . S
C1662 C14 1.400 . S
C1667 C698 1.400 . S
C1672 C50 1.400 . S
C1677 C86 1.402 . S
C1682 C734 1.402 . S
C1687 C122 1.401 . S
C1692 C1202 1.401 . S
C1697 C1238 1.401 . S
C1702 C158 1.401 . S
C1707 C1274 1.402 . S
C1712 C194 1.402 . S
C1717 C230 1.401 . S
C1722 C878 1.401 . S
C1727 C266 1.400 . S
C1732 C914 1.400 . S
C1737 C950 1.401 . S
C1742 C302 1.401 . S
C1747 C338 1.402 . S
C1752 C554 1.402 . S
C1757 C374 1.401 . S
C1762 C590 1.401 . S
C1767 C626 1.402 . S
C1772 C410 1.402 . S
C1777 C446 1.401 . S
C1782 C1094 1.401 . S
C1787 C482 1.402 . S
C1792 C1130 1.402 . S
C1797 C1166 1.401 . S
C1802 C518 1.401 . S
C1807 C986 1.403 . S
C1812 C770 1.403 . S
C1817 C806 1.402 . S
C1822 C1022 1.402 . S
C1827 C842 1.402 . S
C1832 C1058 1.402 . S
C1837 C975 1.601 1_554 S
C1842 C3 1.602 . S
C1847 C39 1.600 . S
C1852 C1011 1.600 1_554 S
C1857 C1047 1.600 1_554 S
C1862 C75 1.600 . S
C1867 C111 1.602 . S
C1872 C435 1.600 . S
C1877 C471 1.600 . S
C1882 C147 1.600 . S
C1887 C507 1.600 . S
C1892 C183 1.600 . S
C1897 C219 1.602 . S
C1902 C759 1.601 1_556 S
C1907 C795 1.600 1_556 S
C1912 C255 1.600 . S
C1917 C291 1.601 . S
C1922 C831 1.601 1_556 S
C1927 C327 1.602 . S
C1932 C1083 1.602 . S
C1937 C363 1.601 . S
C1942 C1119 1.601 . S
C1947 C1155 1.601 . S
C1952 C399 1.599 . S
C1957 C543 1.601 . S
C1962 C867 1.602 . S
C1967 C579 1.601 . S
C1972 C903 1.601 . S
C1977 C615 1.601 . S
C1982 C939 1.600 . S
C1987 C651 1.600 . S
C1992 C1191 1.601 . S
C1997 C687 1.600 . S
C2002 C1227 1.600 . S
C2007 C1263 1.602 . S
C2012 C723 1.600 . S
