# Generated by pormake.
# Topology umg, (4)-cn, num edge types: 1
# Building blocks:
#     Node 0, Type 0, BuildingBlock: KOZSID_clean_sbu_0, # of connection points: 4
#     Node 1, Type 0, BuildingBlock: KOZSID_clean_sbu_0, # of connection points: 4
#     Node 2, Type 0, BuildingBlock: KOZSID_clean_sbu_0, # of connection points: 4
#     Node 3, Type 0, BuildingBlock: KOZSID_clean_sbu_0, # of connection points: 4
#     Node 4, Type 0, BuildingBlock: KOZSID_clean_sbu_0, # of connection points: 4
#     Node 5, Type 0, BuildingBlock: KOZSID_clean_sbu_0, # of connection points: 4
#     Node 6, Type 0, BuildingBlock: KOZSID_clean_sbu_0, # of connection points: 4
#     Node 7, Type 0, BuildingBlock: KOZSID_clean_sbu_0, # of connection points: 4
#     Node 8, Type 0, BuildingBlock: KOZSID_clean_sbu_0, # of connection points: 4
#     Node 9, Type 0, BuildingBlock: KOZSID_clean_sbu_0, # of connection points: 4
#     Node 10, Type 0, BuildingBlock: KOZSID_clean_sbu_0, # of connection points: 4
#     Node 11, Type 0, BuildingBlock: KOZSID_clean_sbu_0, # of connection points: 4
#     Edge 12, Type (0, 0), BuildingBlock: ZUJKAS_clean_linker_0, # of connection points: 2
#     Edge 13, Type (0, 0), BuildingBlock: ZUJKAS_clean_linker_0, # of connection points: 2
#     Edge 14, Type (0, 0), BuildingBlock: ZUJKAS_clean_linker_0, # of connection points: 2
#     Edge 15, Type (0, 0), BuildingBlock: ZUJKAS_clean_linker_0, # of connection points: 2
#     Edge 16, Type (0, 0), BuildingBlock: ZUJKAS_clean_linker_0, # of connection points: 2
#     Edge 17, Type (0, 0), BuildingBlock: ZUJKAS_clean_linker_0, # of connection points: 2
#     Edge 18, Type (0, 0), BuildingBlock: ZUJKAS_clean_linker_0, # of connection points: 2
#     Edge 19, Type (0, 0), BuildingBlock: ZUJKAS_clean_linker_0, # of connection points: 2
#     Edge 20, Type (0, 0), BuildingBlock: ZUJKAS_clean_linker_0, # of connection points: 2
#     Edge 21, Type (0, 0), BuildingBlock: ZUJKAS_clean_linker_0, # of connection points: 2
#     Edge 22, Type (0, 0), BuildingBlock: ZUJKAS_clean_linker_0, # of connection points: 2
#     Edge 23, Type (0, 0), BuildingBlock: ZUJKAS_clean_linker_0, # of connection points: 2
#     Edge 24, Type (0, 0), BuildingBlock: ZUJKAS_clean_linker_0, # of connection points: 2
#     Edge 25, Type (0, 0), BuildingBlock: ZUJKAS_clean_linker_0, # of connection points: 2
#     Edge 26, Type (0, 0), BuildingBlock: ZUJKAS_clean_linker_0, # of connection points: 2
#     Edge 27, Type (0, 0), BuildingBlock: ZUJKAS_clean_linker_0, # of connection points: 2
#     Edge 28, Type (0, 0), BuildingBlock: ZUJKAS_clean_linker_0, # of connection points: 2
#     Edge 29, Type (0, 0), BuildingBlock: ZUJKAS_clean_linker_0, # of connection points: 2
#     Edge 30, Type (0, 0), BuildingBlock: ZUJKAS_clean_linker_0, # of connection points: 2
#     Edge 31, Type (0, 0), BuildingBlock: ZUJKAS_clean_linker_0, # of connection points: 2
#     Edge 32, Type (0, 0), BuildingBlock: ZUJKAS_clean_linker_0, # of connection points: 2
#     Edge 33, Type (0, 0), BuildingBlock: ZUJKAS_clean_linker_0, # of connection points: 2
#     Edge 34, Type (0, 0), BuildingBlock: ZUJKAS_clean_linker_0, # of connection points: 2
#     Edge 35, Type (0, 0), BuildingBlock: ZUJKAS_clean_linker_0, # of connection points: 2
# Relax obj value: 0.045
# Max RMSD: 0.148
# Mean RMSD: 0.148
data_MOF--net-umg--node1-KOZSID_clean_sbu_0--edge1-ZUJKAS_clean_linker_0
_symmetry_space_group_name_H-M    P1
_symmetry_Int_Tables_number       1
_symmetry_cell_setting            triclinic
loop_
_symmetry_equiv_pos_as_xyz
'x, y, z'
_cell_length_a     48.099117
_cell_length_b     48.199875
_cell_length_c     119.2601
_cell_angle_alpha  89.998929
_cell_angle_beta   89.991776
_cell_angle_gamma 120.08477
loop_
_atom_site_label
_atom_site_type_symbol
_atom_site_fract_x
_atom_site_fract_y
_atom_site_fract_z
_atom_type_partial_charge
C0 C 0.26055 0.52346 0.11562 0.0
C1 C 0.25014 0.49949 0.12366 0.0
C2 C 0.24754 0.47292 0.1184 0.0
C3 C 0.25626 0.48199 0.10745 0.0
N4 N 0.26406 0.51254 0.10552 0.0
Co5 Co 0.27651 0.5348 0.09081 0.0
N6 N 0.25843 0.4938 0.0824 0.0
C7 C 0.25156 0.46532 0.08679 0.0
C8 C 0.24024 0.44125 0.07894 0.0
C9 C 0.24038 0.45559 0.06898 0.0
C10 C 0.25188 0.48775 0.07131 0.0
N11 N 0.28891 0.55748 0.07618 0.0
C12 C 0.27917 0.54619 0.06565 0.0
C13 C 0.29472 0.57049 0.05779 0.0
C14 C 0.31515 0.59769 0.06361 0.0
C15 C 0.31098 0.58861 0.07466 0.0
N16 N 0.29507 0.57576 0.09918 0.0
C17 C 0.31719 0.60475 0.09528 0.0
C18 C 0.32606 0.62869 0.10308 0.0
C19 C 0.30842 0.61379 0.11247 0.0
C20 C 0.28961 0.58149 0.10983 0.0
N21 N 0.31828 0.53602 0.09155 0.0
C22 C 0.37479 0.53166 0.09282 0.0
C23 C 0.35841 0.52715 0.08265 0.0
C24 C 0.33039 0.52929 0.0822 0.0
C25 C 0.36253 0.53923 0.10231 0.0
C26 C 0.33457 0.54158 0.10148 0.0
N27 N 0.23455 0.53281 0.09006 0.0
C28 C 0.2022 0.55774 0.08722 0.0
C29 C 0.17377 0.52845 0.08912 0.0
C30 C 0.17671 0.5016 0.09157 0.0
C31 C 0.20705 0.5043 0.09207 0.0
C32 C 0.23225 0.55935 0.08764 0.0
H33 H 0.20814 0.48313 0.09413 0.0
H34 H 0.25362 0.58205 0.08599 0.0
H35 H 0.31817 0.52471 0.07427 0.0
H36 H 0.32582 0.54735 0.10895 0.0
C37 C 0.25173 0.46138 0.09845 0.0
C38 C 0.26842 0.55672 0.11783 0.0
C39 C 0.25865 0.51221 0.06269 0.0
C40 C 0.32427 0.60926 0.08383 0.0
H41 H 0.24475 0.50088 0.13238 0.0
H42 H 0.2388 0.44939 0.12201 0.0
H43 H 0.23205 0.41611 0.08033 0.0
H44 H 0.23322 0.44382 0.06091 0.0
H45 H 0.29223 0.5686 0.04876 0.0
H46 H 0.33076 0.62135 0.06019 0.0
H47 H 0.34233 0.65412 0.10193 0.0
H48 H 0.30935 0.62537 0.12035 0.0
H49 H 0.36657 0.52099 0.07508 0.0
H50 H 0.37448 0.5434 0.11034 0.0
H51 H 0.20123 0.57916 0.08523 0.0
H52 H 0.15565 0.47856 0.09329 0.0
C53 C 0.74794 0.25791 0.4492 0.0
C54 C 0.76202 0.24784 0.45716 0.0
C55 C 0.78639 0.24602 0.45182 0.0
C56 C 0.78575 0.25483 0.44091 0.0
N57 N 0.76243 0.26194 0.43907 0.0
Co58 Co 0.75204 0.27422 0.42443 0.0
N59 N 0.77569 0.2572 0.4159 0.0
C60 C 0.7979 0.25099 0.4202 0.0
C61 C 0.81103 0.24029 0.41227 0.0
C62 C 0.79644 0.24012 0.40235 0.0
C63 C 0.77519 0.25085 0.40479 0.0
N64 N 0.74107 0.28634 0.40988 0.0
C65 C 0.74267 0.27684 0.39932 0.0
C66 C 0.73334 0.29207 0.39153 0.0
C67 C 0.72611 0.312 0.39744 0.0
C68 C 0.73135 0.3079 0.40846 0.0
N69 N 0.72896 0.29182 0.43294 0.0
C70 C 0.72145 0.31352 0.42914 0.0
C71 C 0.70609 0.32183 0.43701 0.0
C72 C 0.70385 0.30425 0.44636 0.0
C73 C 0.7179 0.28603 0.44361 0.0
N74 N 0.79207 0.31627 0.4252 0.0
C75 C 0.85284 0.37241 0.42652 0.0
C76 C 0.84049 0.35717 0.41623 0.0
C77 C 0.81041 0.32913 0.41577 0.0
C78 C 0.83363 0.35951 0.4361 0.0
C79 C 0.80317 0.33182 0.43523 0.0
N80 N 0.71267 0.232 0.42367 0.0
C81 C 0.65541 0.1986 0.42089 0.0
C82 C 0.65699 0.1707 0.42302 0.0
C83 C 0.68729 0.1745 0.42537 0.0
C84 C 0.71451 0.20504 0.4257 0.0
C85 C 0.68346 0.22893 0.42123 0.0
H86 H 0.73716 0.20674 0.42764 0.0
H87 H 0.68153 0.24992 0.41959 0.0
H88 H 0.8025 0.31742 0.40777 0.0
H89 H 0.78895 0.32258 0.44275 0.0
C90 C 0.80216 0.25103 0.43185 0.0
C91 C 0.72207 0.26507 0.45152 0.0
C92 C 0.75678 0.25699 0.39626 0.0
C93 C 0.72372 0.32071 0.4177 0.0
H94 H 0.75536 0.24221 0.46588 0.0
H95 H 0.80167 0.23775 0.45536 0.0
H96 H 0.82844 0.23263 0.41357 0.0
H97 H 0.80115 0.23322 0.39425 0.0
H98 H 0.73268 0.28972 0.38249 0.0
H99 H 0.71754 0.32725 0.3941 0.0
H100 H 0.69643 0.33768 0.43595 0.0
H101 H 0.69316 0.30484 0.45427 0.0
H102 H 0.85453 0.36621 0.40863 0.0
H103 H 0.84208 0.37074 0.4442 0.0
H104 H 0.63266 0.19718 0.41912 0.0
H105 H 0.69024 0.15395 0.42683 0.0
C106 C 0.49521 0.74467 0.78259 0.0
C107 C 0.51863 0.75948 0.79077 0.0
C108 C 0.54523 0.78357 0.78549 0.0
C109 C 0.53661 0.78212 0.77442 0.0
N110 N 0.50632 0.75862 0.77244 0.0
Co111 Co 0.48434 0.74779 0.75768 0.0
N112 N 0.52559 0.77088 0.74939 0.0
C113 C 0.55387 0.79316 0.75378 0.0
C114 C 0.57814 0.80603 0.74598 0.0
C115 C 0.56413 0.79117 0.73605 0.0
C116 C 0.53198 0.77 0.73835 0.0
N117 N 0.46193 0.73655 0.74299 0.0
C118 C 0.47358 0.73779 0.73255 0.0
C119 C 0.44934 0.72798 0.72459 0.0
C120 C 0.4218 0.72094 0.73026 0.0
C121 C 0.43063 0.72668 0.74133 0.0
N122 N 0.44312 0.72513 0.76597 0.0
C123 C 0.41396 0.71719 0.76192 0.0
C124 C 0.38982 0.70151 0.76963 0.0
C125 C 0.40478 0.69951 0.77914 0.0
C126 C 0.43731 0.71414 0.77665 0.0
N127 N 0.48259 0.78797 0.75804 0.0
C128 C 0.48827 0.84941 0.75886 0.0
C129 C 0.47973 0.82966 0.76842 0.0
C130 C 0.47682 0.79912 0.76782 0.0
C131 C 0.4924 0.83674 0.7488 0.0
C132 C 0.48961 0.80638 0.74858 0.0
N133 N 0.48694 0.70827 0.7573 0.0
C134 C 0.46297 0.65112 0.75444 0.0
C135 C 0.49225 0.65243 0.75688 0.0
C136 C 0.51869 0.68256 0.75947 0.0
C137 C 0.51552 0.70987 0.75969 0.0
C138 C 0.46084 0.67921 0.75468 0.0
H139 H 0.53644 0.73241 0.76177 0.0
H140 H 0.43807 0.67742 0.75278 0.0
H141 H 0.4708 0.78491 0.77537 0.0
H142 H 0.49399 0.79824 0.74072 0.0
C143 C 0.55745 0.79806 0.76543 0.0
C144 C 0.46219 0.71871 0.78475 0.0
C145 C 0.50775 0.75163 0.72973 0.0
C146 C 0.40962 0.71913 0.75041 0.0
H147 H 0.51666 0.75349 0.79959 0.0
H148 H 0.56848 0.79928 0.7892 0.0
H149 H 0.60317 0.82355 0.74738 0.0
H150 H 0.57607 0.79574 0.72801 0.0
H151 H 0.45145 0.72674 0.71559 0.0
H152 H 0.39807 0.71203 0.72675 0.0
H153 H 0.36426 0.69135 0.76836 0.0
H154 H 0.39309 0.68847 0.78697 0.0
H155 H 0.47626 0.838 0.77644 0.0
H156 H 0.49801 0.85022 0.74105 0.0
H157 H 0.44165 0.62854 0.7525 0.0
H158 H 0.54205 0.68534 0.7612 0.0
C159 C 0.76279 0.48976 0.11584 0.0
C160 C 0.77127 0.51272 0.12416 0.0
C161 C 0.77393 0.53953 0.11906 0.0
C162 C 0.76692 0.53146 0.10794 0.0
N163 N 0.76013 0.50134 0.10577 0.0
Co164 Co 0.74895 0.4801 0.09088 0.0
N165 N 0.76707 0.52167 0.08283 0.0
C166 C 0.77314 0.54968 0.08743 0.0
C167 C 0.78457 0.57428 0.07978 0.0
C168 C 0.78534 0.5608 0.06973 0.0
C169 C 0.77427 0.52859 0.07181 0.0
N170 N 0.73771 0.45847 0.07605 0.0
C171 C 0.74794 0.47062 0.06565 0.0
C172 C 0.73331 0.44683 0.05755 0.0
C173 C 0.71295 0.41906 0.0631 0.0
C174 C 0.71626 0.42731 0.07423 0.0
N175 N 0.73047 0.43854 0.09892 0.0
C176 C 0.70937 0.40961 0.09469 0.0
C177 C 0.70098 0.38513 0.10223 0.0
C178 C 0.71781 0.3996 0.1118 0.0
C179 C 0.73553 0.43223 0.10955 0.0
N180 N 0.70682 0.47814 0.09144 0.0
C181 C 0.65003 0.48213 0.09263 0.0
C182 C 0.66746 0.48826 0.08259 0.0
C183 C 0.69546 0.48609 0.08218 0.0
C184 C 0.66142 0.473 0.10199 0.0
C185 C 0.68959 0.47101 0.10121 0.0
N186 N 0.79126 0.48283 0.09034 0.0
C187 C 0.82451 0.45888 0.08748 0.0
C188 C 0.85256 0.48797 0.09007 0.0
C189 C 0.84885 0.51435 0.09267 0.0
C190 C 0.81832 0.51126 0.09282 0.0
C191 C 0.79425 0.45685 0.08762 0.0
H192 H 0.8167 0.53209 0.09497 0.0
H193 H 0.77324 0.4342 0.08562 0.0
H194 H 0.70834 0.49173 0.07435 0.0
H195 H 0.69775 0.46428 0.1086 0.0
C196 C 0.77184 0.55268 0.09911 0.0
C197 C 0.75548 0.45667 0.11783 0.0
C198 C 0.7683 0.50484 0.06301 0.0
C199 C 0.70299 0.40587 0.08319 0.0
H200 H 0.77506 0.51029 0.13296 0.0
H201 H 0.78136 0.56252 0.12292 0.0
H202 H 0.79214 0.5992 0.08135 0.0
H203 H 0.79273 0.57312 0.06176 0.0
H204 H 0.73645 0.4494 0.04855 0.0
H205 H 0.69805 0.39555 0.05947 0.0
H206 H 0.68568 0.35967 0.10078 0.0
H207 H 0.71716 0.3875 0.11952 0.0
H208 H 0.66017 0.49571 0.07513 0.0
H209 H 0.64869 0.4674 0.1099 0.0
H210 H 0.82571 0.43759 0.08551 0.0
H211 H 0.86945 0.5376 0.09449 0.0
C212 C 0.28386 0.76409 0.44963 0.0
C213 C 0.27433 0.77905 0.45741 0.0
C214 C 0.25622 0.78903 0.45174 0.0
C215 C 0.25581 0.77979 0.44084 0.0
N216 N 0.27217 0.76405 0.43923 0.0
Co217 Co 0.27992 0.74877 0.42449 0.0
N218 N 0.25744 0.76768 0.41586 0.0
C219 C 0.24287 0.78309 0.42021 0.0
C220 C 0.22942 0.79332 0.41226 0.0
C221 C 0.23574 0.78391 0.40224 0.0
C222 C 0.25283 0.76847 0.40464 0.0
N223 N 0.28814 0.73377 0.40982 0.0
C224 C 0.28084 0.73788 0.39918 0.0
C225 C 0.29178 0.7241 0.39139 0.0
C226 C 0.30613 0.71052 0.3973 0.0
C227 C 0.30336 0.71689 0.4083 0.0
N228 N 0.30241 0.7299 0.43308 0.0
C229 C 0.31468 0.71226 0.42886 0.0
C230 C 0.32882 0.70263 0.43673 0.0
C231 C 0.32597 0.71537 0.44657 0.0
C232 C 0.31042 0.73235 0.44409 0.0
N233 N 0.23791 0.70742 0.42598 0.0
C234 C 0.17705 0.64963 0.42713 0.0
C235 C 0.20542 0.64924 0.42465 0.0
C236 C 0.23517 0.67805 0.42405 0.0
C237 C 0.18021 0.67972 0.42908 0.0
C238 C 0.2103 0.70765 0.42864 0.0
N239 N 0.32138 0.79006 0.42301 0.0
C240 C 0.37903 0.82034 0.41983 0.0
C241 C 0.37955 0.84949 0.42124 0.0
C242 C 0.35048 0.84815 0.42361 0.0
C243 C 0.32216 0.81864 0.42452 0.0
C244 C 0.34981 0.79107 0.42065 0.0
H245 H 0.30118 0.81966 0.42654 0.0
H246 H 0.35065 0.76952 0.41937 0.0
H247 H 0.25556 0.67591 0.42197 0.0
H248 H 0.21031 0.7292 0.43039 0.0
C249 C 0.24284 0.78807 0.43179 0.0
C250 C 0.3052 0.75155 0.45238 0.0
C251 C 0.26368 0.75454 0.39599 0.0
C252 C 0.31488 0.70739 0.41736 0.0
H253 H 0.28051 0.78312 0.46621 0.0
H254 H 0.24569 0.80255 0.45509 0.0
H255 H 0.21662 0.80619 0.4136 0.0
H256 H 0.22854 0.78789 0.39407 0.0
H257 H 0.28968 0.72388 0.38235 0.0
H258 H 0.31735 0.69761 0.39398 0.0
H259 H 0.34071 0.68887 0.43541 0.0
H260 H 0.33505 0.71309 0.45461 0.0
H261 H 0.20498 0.62685 0.42322 0.0
H262 H 0.15946 0.6822 0.43078 0.0
H263 H 0.40093 0.8201 0.41796 0.0
H264 H 0.34959 0.86991 0.42499 0.0
C265 C 0.52553 0.27945 0.7828 0.0
C266 C 0.50132 0.2705 0.79069 0.0
C267 C 0.4729 0.25258 0.78515 0.0
C268 C 0.4813 0.25162 0.77423 0.0
N269 N 0.51341 0.26738 0.77248 0.0
Co270 Co 0.53581 0.27429 0.75765 0.0
N271 N 0.494 0.25032 0.7493 0.0
C272 C 0.46427 0.23464 0.75388 0.0
C273 C 0.44018 0.21969 0.74612 0.0
C274 C 0.45541 0.22606 0.73598 0.0
C275 C 0.48805 0.24471 0.73814 0.0
N276 N 0.55836 0.28259 0.74282 0.0
C277 C 0.54642 0.27486 0.73225 0.0
C278 C 0.57079 0.2866 0.72429 0.0
C279 C 0.59908 0.30204 0.73001 0.0
C280 C 0.59044 0.29907 0.74107 0.0
N281 N 0.57765 0.2973 0.76599 0.0
C282 C 0.6074 0.30959 0.76156 0.0
C283 C 0.63166 0.32446 0.76923 0.0
C284 C 0.61659 0.32178 0.77918 0.0
C285 C 0.5838 0.30527 0.777 0.0
N286 N 0.53604 0.23284 0.75927 0.0
C287 C 0.53325 0.17227 0.76022 0.0
C288 C 0.56014 0.19961 0.75584 0.0
C289 C 0.56107 0.22931 0.75547 0.0
C290 C 0.5082 0.17632 0.76428 0.0
C291 C 0.51016 0.20629 0.7638 0.0
N292 N 0.53502 0.31521 0.75603 0.0
C293 C 0.56188 0.37315 0.7539 0.0
C294 C 0.53258 0.3728 0.75458 0.0
C295 C 0.50472 0.34306 0.75596 0.0
C296 C 0.50647 0.31503 0.75672 0.0
C297 C 0.56253 0.34427 0.75453 0.0
H298 H 0.48424 0.29347 0.75796 0.0
H299 H 0.5855 0.34592 0.75382 0.0
H300 H 0.58222 0.24905 0.75202 0.0
H301 H 0.49003 0.20707 0.76706 0.0
C302 C 0.45972 0.23651 0.76539 0.0
C303 C 0.55964 0.29945 0.78552 0.0
C304 C 0.51241 0.25636 0.72931 0.0
C305 C 0.61188 0.31039 0.75002 0.0
H306 H 0.50398 0.27655 0.79951 0.0
H307 H 0.44894 0.24191 0.78865 0.0
H308 H 0.41455 0.20621 0.74764 0.0
H309 H 0.44385 0.21804 0.7279 0.0
H310 H 0.56842 0.28418 0.71526 0.0
H311 H 0.62309 0.31385 0.72652 0.0
H312 H 0.65729 0.33704 0.76769 0.0
H313 H 0.62854 0.33184 0.78706 0.0
H314 H 0.58061 0.19829 0.75275 0.0
H315 H 0.48653 0.15623 0.76763 0.0
H316 H 0.58417 0.39553 0.75275 0.0
H317 H 0.48147 0.34137 0.75671 0.0
C318 C 0.49701 0.7568 0.55684 0.0
C319 C 0.52084 0.76712 0.54873 0.0
C320 C 0.54759 0.76976 0.5539 0.0
C321 C 0.53878 0.76117 0.56488 0.0
N322 N 0.50821 0.7534 0.5669 0.0
Co323 Co 0.48629 0.74126 0.58167 0.0
N324 N 0.52757 0.75956 0.58995 0.0
C325 C 0.55602 0.76635 0.58549 0.0
C326 C 0.58034 0.77793 0.59327 0.0
C327 C 0.5662 0.77806 0.60325 0.0
C328 C 0.5339 0.76644 0.60101 0.0
N329 N 0.46392 0.72914 0.59636 0.0
C330 C 0.47548 0.73915 0.60684 0.0
C331 C 0.45136 0.72369 0.61479 0.0
C332 C 0.424 0.70305 0.60907 0.0
C333 C 0.4328 0.70702 0.59799 0.0
N334 N 0.44503 0.72251 0.57343 0.0
C335 C 0.41611 0.70042 0.57742 0.0
C336 C 0.39192 0.69145 0.56969 0.0
C337 C 0.4066 0.70899 0.56026 0.0
C338 C 0.43902 0.72785 0.5628 0.0
N339 N 0.48512 0.69957 0.58098 0.0
C340 C 0.48921 0.64296 0.57983 0.0
C341 C 0.49429 0.65976 0.58993 0.0
C342 C 0.49224 0.68778 0.59033 0.0
C343 C 0.48131 0.65496 0.57034 0.0
C344 C 0.47914 0.68299 0.57111 0.0
N345 N 0.48822 0.78313 0.58236 0.0
C346 C 0.46324 0.81542 0.58524 0.0
C347 C 0.4925 0.84379 0.58321 0.0
C348 C 0.51936 0.84084 0.58068 0.0
C349 C 0.5167 0.81057 0.58024 0.0
C350 C 0.46167 0.78544 0.58486 0.0
H351 H 0.53788 0.80947 0.57812 0.0
H352 H 0.43899 0.76412 0.5866 0.0
H353 H 0.49717 0.70023 0.59822 0.0
H354 H 0.47311 0.69152 0.56365 0.0
C355 C 0.55968 0.76591 0.57382 0.0
C356 C 0.46364 0.749 0.55476 0.0
C357 C 0.50957 0.75993 0.60968 0.0
C358 C 0.41189 0.69352 0.58888 0.0
H359 H 0.51926 0.77245 0.54002 0.0
H360 H 0.5711 0.77849 0.55022 0.0
H361 H 0.60551 0.78615 0.59181 0.0
H362 H 0.57821 0.7855 0.61128 0.0
H363 H 0.45347 0.72639 0.62381 0.0
H364 H 0.4004 0.68746 0.61256 0.0
H365 H 0.36648 0.67519 0.57091 0.0
H366 H 0.3948 0.70798 0.55242 0.0
H367 H 0.50078 0.65189 0.59749 0.0
H368 H 0.47669 0.64273 0.56236 0.0
H369 H 0.4418 0.81637 0.58729 0.0
H370 H 0.54237 0.86183 0.57886 0.0
C371 C 0.74354 0.49154 0.89021 0.0
C372 C 0.75767 0.51489 0.88199 0.0
C373 C 0.78197 0.5416 0.88713 0.0
C374 C 0.78127 0.53316 0.89818 0.0
N375 N 0.75802 0.50288 0.90028 0.0
Co376 Co 0.74799 0.48129 0.91512 0.0
N377 N 0.77158 0.52265 0.92329 0.0
C378 C 0.79352 0.55082 0.91874 0.0
C379 C 0.80684 0.57523 0.92645 0.0
C380 C 0.79269 0.56145 0.93649 0.0
C381 C 0.77147 0.52927 0.93435 0.0
N382 N 0.7375 0.45927 0.92988 0.0
C383 C 0.73949 0.47112 0.94034 0.0
C384 C 0.7303 0.44711 0.94834 0.0
C385 C 0.72284 0.41952 0.94268 0.0
C386 C 0.72777 0.42808 0.93158 0.0
N387 N 0.72487 0.43995 0.90697 0.0
C388 C 0.7173 0.41099 0.91106 0.0
C389 C 0.70147 0.38672 0.90342 0.0
C390 C 0.69897 0.40137 0.89393 0.0
C391 C 0.71342 0.43387 0.89635 0.0
N392 N 0.78823 0.4795 0.91446 0.0
C393 C 0.84906 0.48373 0.91323 0.0
C394 C 0.83733 0.48862 0.92337 0.0
C395 C 0.8072 0.48653 0.9238 0.0
C396 C 0.82906 0.47576 0.90377 0.0
C397 C 0.79875 0.47345 0.90458 0.0
N398 N 0.70833 0.48385 0.91575 0.0
C399 C 0.65096 0.45957 0.91849 0.0
C400 C 0.65205 0.48871 0.91606 0.0
C401 C 0.68227 0.51528 0.9136 0.0
C402 C 0.70977 0.51233 0.91343 0.0
C403 C 0.67925 0.45769 0.91833 0.0
H404 H 0.7323 0.53331 0.91137 0.0
H405 H 0.67757 0.43499 0.92021 0.0
H406 H 0.79972 0.49146 0.93169 0.0
H407 H 0.7841 0.46737 0.89713 0.0
C408 C 0.79766 0.55414 0.90706 0.0
C409 C 0.71756 0.45843 0.8882 0.0
C410 C 0.75376 0.50529 0.94311 0.0
C411 C 0.71984 0.40694 0.92254 0.0
H412 H 0.75109 0.5129 0.87323 0.0
H413 H 0.79729 0.56481 0.88335 0.0
H414 H 0.8242 0.6002 0.92494 0.0
H415 H 0.79774 0.57359 0.9445 0.0
H416 H 0.72986 0.44944 0.95736 0.0
H417 H 0.71431 0.39594 0.94624 0.0
H418 H 0.69161 0.36126 0.90474 0.0
H419 H 0.68781 0.38951 0.88614 0.0
H420 H 0.85179 0.49508 0.93091 0.0
H421 H 0.83671 0.47127 0.89577 0.0
H422 H 0.62837 0.43814 0.92035 0.0
H423 H 0.68496 0.53857 0.91191 0.0
C424 C 0.25817 0.73881 0.22287 0.0
C425 C 0.24779 0.75245 0.21485 0.0
C426 C 0.24507 0.7763 0.22015 0.0
C427 C 0.25368 0.77581 0.2311 0.0
N428 N 0.2615 0.75306 0.233 0.0
Co429 Co 0.2738 0.74307 0.2477 0.0
N430 N 0.25553 0.76576 0.25614 0.0
C431 C 0.24854 0.78732 0.25178 0.0
C432 C 0.23656 0.79946 0.25961 0.0
C433 C 0.23638 0.78491 0.26953 0.0
C434 C 0.24846 0.76472 0.2672 0.0
N435 N 0.28611 0.73269 0.26232 0.0
C436 C 0.27622 0.73403 0.27284 0.0
C437 C 0.29214 0.72574 0.28071 0.0
C438 C 0.31281 0.71931 0.27489 0.0
C439 C 0.30847 0.72402 0.26383 0.0
N440 N 0.2925 0.72084 0.23931 0.0
C441 C 0.31468 0.71408 0.24321 0.0
C442 C 0.3237 0.69916 0.23541 0.0
C443 C 0.30611 0.69643 0.22601 0.0
C444 C 0.28717 0.70977 0.22864 0.0
N445 N 0.3155 0.78366 0.24702 0.0
C446 C 0.37194 0.84456 0.24578 0.0
C447 C 0.35542 0.83271 0.25594 0.0
C448 C 0.32744 0.80253 0.25637 0.0
C449 C 0.35985 0.82468 0.2363 0.0
C450 C 0.33192 0.79437 0.23711 0.0
N451 N 0.23191 0.70307 0.24836 0.0
C452 C 0.19953 0.64572 0.25104 0.0
C453 C 0.17111 0.64637 0.24878 0.0
C454 C 0.1742 0.67633 0.24644 0.0
C455 C 0.20448 0.70404 0.24621 0.0
C456 C 0.22955 0.67423 0.25083 0.0
H457 H 0.20558 0.72636 0.24425 0.0
H458 H 0.2509 0.67295 0.25258 0.0
H459 H 0.31508 0.79487 0.26428 0.0
H460 H 0.32329 0.77982 0.22965 0.0
C461 C 0.24892 0.79165 0.24012 0.0
C462 C 0.26614 0.71352 0.22062 0.0
C463 C 0.25508 0.74679 0.27579 0.0
C464 C 0.32184 0.71677 0.25466 0.0
H465 H 0.24249 0.7458 0.20612 0.0
H466 H 0.23631 0.7911 0.21656 0.0
H467 H 0.228 0.8161 0.25823 0.0
H468 H 0.2285 0.78892 0.27755 0.0
H469 H 0.28977 0.72523 0.28975 0.0
H470 H 0.32868 0.7116 0.2783 0.0
H471 H 0.34009 0.69016 0.23655 0.0
H472 H 0.30721 0.68595 0.21811 0.0
H473 H 0.36347 0.84708 0.26349 0.0
H474 H 0.37192 0.83243 0.22829 0.0
H475 H 0.19878 0.62333 0.25281 0.0
H476 H 0.15329 0.67866 0.24489 0.0
C477 C 0.5273 0.25197 0.55635 0.0
C478 C 0.50349 0.24181 0.54823 0.0
C479 C 0.47666 0.23884 0.55346 0.0
C480 C 0.4854 0.24709 0.56445 0.0
N481 N 0.516 0.25493 0.56645 0.0
Co482 Co 0.53783 0.26672 0.58126 0.0
N483 N 0.49649 0.24813 0.58953 0.0
C484 C 0.46802 0.24124 0.58507 0.0
C485 C 0.44359 0.2291 0.59281 0.0
C486 C 0.45767 0.22871 0.60277 0.0
C487 C 0.49008 0.24082 0.60057 0.0
N488 N 0.56009 0.27851 0.59597 0.0
C489 C 0.54848 0.26829 0.60644 0.0
C490 C 0.57251 0.28386 0.61441 0.0
C491 C 0.59987 0.30465 0.60872 0.0
C492 C 0.59115 0.30073 0.59763 0.0
N493 N 0.57914 0.28577 0.57302 0.0
C494 C 0.60801 0.30778 0.57707 0.0
C495 C 0.63227 0.31711 0.56935 0.0
C496 C 0.61771 0.2999 0.55985 0.0
C497 C 0.58527 0.28086 0.56235 0.0
N498 N 0.53887 0.30837 0.58071 0.0
C499 C 0.53385 0.36459 0.5797 0.0
C500 C 0.52927 0.34773 0.58979 0.0
C501 C 0.53169 0.31992 0.5901 0.0
C502 C 0.54216 0.35295 0.57019 0.0
C503 C 0.54474 0.32513 0.57089 0.0
N504 N 0.53599 0.22488 0.58179 0.0
C505 C 0.56094 0.19251 0.58453 0.0
C506 C 0.53187 0.16414 0.58218 0.0
C507 C 0.50502 0.16728 0.57973 0.0
C508 C 0.50761 0.19752 0.57951 0.0
C509 C 0.56246 0.22248 0.58433 0.0
H510 H 0.48639 0.19864 0.57748 0.0
H511 H 0.58508 0.24376 0.58616 0.0
H512 H 0.52711 0.30746 0.59798 0.0
H513 H 0.55077 0.31678 0.56338 0.0
C514 C 0.46444 0.24197 0.57341 0.0
C515 C 0.56075 0.26009 0.55421 0.0
C516 C 0.51438 0.24726 0.60925 0.0
C517 C 0.61211 0.31444 0.58855 0.0
H518 H 0.50514 0.2368 0.5395 0.0
H519 H 0.45315 0.23013 0.54978 0.0
H520 H 0.41837 0.22061 0.59133 0.0
H521 H 0.4455 0.22069 0.61075 0.0
H522 H 0.57036 0.28119 0.62343 0.0
H523 H 0.6234 0.32036 0.61223 0.0
H524 H 0.65768 0.33344 0.5706 0.0
H525 H 0.62958 0.30129 0.55199 0.0
H526 H 0.52375 0.35581 0.5975 0.0
H527 H 0.54585 0.36464 0.56214 0.0
H528 H 0.58259 0.19177 0.58637 0.0
H529 H 0.48176 0.14644 0.57811 0.0
C530 C 0.28025 0.52687 0.88971 0.0
C531 C 0.26577 0.5034 0.88155 0.0
C532 C 0.24172 0.47675 0.88681 0.0
C533 C 0.24286 0.4854 0.89786 0.0
N534 N 0.26616 0.51574 0.89985 0.0
Co535 Co 0.27645 0.53776 0.9146 0.0
N536 N 0.25326 0.49661 0.92291 0.0
C537 C 0.23123 0.46829 0.91849 0.0
C538 C 0.21821 0.44412 0.92631 0.0
C539 C 0.23269 0.45821 0.93627 0.0
C540 C 0.25381 0.49033 0.93398 0.0
N541 N 0.28718 0.56019 0.92928 0.0
C542 C 0.28565 0.54864 0.93976 0.0
C543 C 0.29508 0.57286 0.94769 0.0
C544 C 0.3022 0.60026 0.94197 0.0
C545 C 0.29685 0.59139 0.9309 0.0
N546 N 0.29918 0.57888 0.90629 0.0
C547 C 0.30682 0.60794 0.91031 0.0
C548 C 0.32249 0.63202 0.90259 0.0
C549 C 0.3248 0.61714 0.89313 0.0
C550 C 0.31036 0.5847 0.89563 0.0
N551 N 0.23603 0.53924 0.91402 0.0
C552 C 0.17454 0.53379 0.91293 0.0
C553 C 0.18694 0.52964 0.92306 0.0
C554 C 0.21732 0.5323 0.92341 0.0
C555 C 0.19456 0.54211 0.90343 0.0
C556 C 0.2251 0.54491 0.90416 0.0
N557 N 0.31625 0.53546 0.91519 0.0
C558 C 0.37355 0.55991 0.91815 0.0
C559 C 0.37234 0.53057 0.91614 0.0
C560 C 0.34238 0.50394 0.91355 0.0
C561 C 0.3149 0.50691 0.91306 0.0
C562 C 0.34528 0.56179 0.91772 0.0
H563 H 0.29247 0.48592 0.91092 0.0
H564 H 0.34688 0.58451 0.91946 0.0
H565 H 0.22525 0.52796 0.93132 0.0
H566 H 0.23953 0.55084 0.89666 0.0
C567 C 0.22674 0.46463 0.90683 0.0
C568 C 0.30603 0.55994 0.88755 0.0
C569 C 0.27182 0.51459 0.94262 0.0
C570 C 0.30454 0.61228 0.92179 0.0
H571 H 0.27194 0.50534 0.87275 0.0
H572 H 0.22621 0.45349 0.8831 0.0
H573 H 0.20084 0.41909 0.9249 0.0
H574 H 0.22793 0.44635 0.94433 0.0
H575 H 0.296 0.5708 0.95671 0.0
H576 H 0.31085 0.62394 0.94545 0.0
H577 H 0.33241 0.65751 0.90384 0.0
H578 H 0.33586 0.62881 0.8853 0.0
H579 H 0.17328 0.52419 0.93076 0.0
H580 H 0.18646 0.54555 0.89536 0.0
H581 H 0.39608 0.58115 0.92024 0.0
H582 H 0.34015 0.48089 0.91175 0.0
C583 C 0.76159 0.27433 0.22322 0.0
C584 C 0.77079 0.25993 0.21511 0.0
C585 C 0.77324 0.23588 0.22039 0.0
C586 C 0.76547 0.23696 0.23142 0.0
N587 N 0.75839 0.26021 0.23336 0.0
Co588 Co 0.74648 0.27053 0.24807 0.0
N589 N 0.76437 0.24744 0.25645 0.0
C590 C 0.77072 0.22544 0.25208 0.0
C591 C 0.78199 0.21264 0.25993 0.0
C592 C 0.78238 0.22723 0.26986 0.0
C593 C 0.77123 0.24817 0.26752 0.0
N594 N 0.73458 0.28128 0.2627 0.0
C595 C 0.74456 0.27986 0.2732 0.0
C596 C 0.72943 0.28901 0.2811 0.0
C597 C 0.70904 0.29593 0.27532 0.0
C598 C 0.71282 0.29071 0.26426 0.0
N599 N 0.72815 0.29317 0.2397 0.0
C600 C 0.70654 0.30068 0.24364 0.0
C601 C 0.69823 0.3163 0.23588 0.0
C602 C 0.71568 0.31871 0.22647 0.0
C603 C 0.73375 0.30439 0.22905 0.0
N604 N 0.70451 0.23022 0.24746 0.0
C605 C 0.64843 0.16883 0.24631 0.0
C606 C 0.66487 0.1812 0.25646 0.0
C607 C 0.69262 0.21154 0.25684 0.0
C608 C 0.66022 0.18883 0.23682 0.0
C609 C 0.68799 0.21933 0.23758 0.0
N610 N 0.78863 0.31023 0.24869 0.0
C611 C 0.8215 0.36745 0.25154 0.0
C612 C 0.8497 0.36626 0.24954 0.0
C613 C 0.84639 0.33634 0.24703 0.0
C614 C 0.81591 0.30889 0.24658 0.0
C615 C 0.7913 0.33921 0.25116 0.0
H616 H 0.81449 0.28649 0.24449 0.0
H617 H 0.77011 0.34079 0.25288 0.0
H618 H 0.70483 0.21946 0.26477 0.0
H619 H 0.69658 0.23374 0.23008 0.0
C620 C 0.77002 0.2209 0.24042 0.0
C621 C 0.75443 0.30014 0.22104 0.0
C622 C 0.76505 0.26635 0.27611 0.0
C623 C 0.69966 0.29832 0.25511 0.0
H624 H 0.7753 0.26616 0.20632 0.0
H625 H 0.78111 0.22045 0.21673 0.0
H626 H 0.78979 0.19539 0.25856 0.0
H627 H 0.78964 0.22268 0.27793 0.0
H628 H 0.73222 0.28985 0.29012 0.0
H629 H 0.69379 0.30438 0.27876 0.0
H630 H 0.68253 0.32612 0.23708 0.0
H631 H 0.71519 0.32975 0.21863 0.0
H632 H 0.65657 0.16753 0.26415 0.0
H633 H 0.64876 0.18074 0.22873 0.0
H634 H 0.82276 0.38995 0.25357 0.0
H635 H 0.86727 0.33413 0.24523 0.0
H636 H 0.22142 0.50409 0.95582 0.0
H637 H 0.21714 0.49779 0.97629 0.0
H638 H 0.30742 0.49898 0.97706 0.0
H639 H 0.31207 0.50633 0.9566 0.0
H640 H 0.21483 0.45445 0.99117 0.0
H641 H 0.32589 0.57112 0.99822 0.0
H642 H 0.30741 0.55889 0.98461 0.0
H643 H 0.3324 0.54388 0.98991 0.0
C644 C 0.24003 0.50248 0.96039 0.0
C645 C 0.26701 0.50554 0.95471 0.0
C646 C 0.23766 0.49899 0.97207 0.0
C647 C 0.26227 0.49858 0.9783 0.0
C648 C 0.2885 0.50005 0.97251 0.0
H649 H 0.29534 0.49568 0.05017 0.0
H650 H 0.29455 0.48927 0.02971 0.0
C651 C 0.29101 0.50384 0.96083 0.0
C652 C 0.26092 0.49782 0.99082 0.0
H653 H 0.30174 0.53901 0.01427 0.0
C654 C 0.23385 0.47296 0.99621 0.0
C655 C 0.28557 0.52212 0.99745 0.0
C656 C 0.3143 0.55068 0.99227 0.0
C657 C 0.23099 0.47155 0.00798 0.0
C658 C 0.25577 0.49566 0.01457 0.0
C659 C 0.28286 0.5204 0.00921 0.0
C660 C 0.25395 0.49619 0.02703 0.0
C661 C 0.20168 0.44409 0.01332 0.0
C662 C 0.23124 0.50197 0.03235 0.0
C663 C 0.23174 0.50569 0.04403 0.0
C664 C 0.25477 0.50342 0.05058 0.0
C665 C 0.27697 0.49688 0.0453 0.0
C666 C 0.27664 0.49342 0.03363 0.0
H667 H 0.18809 0.42413 0.00732 0.0
H668 H 0.20856 0.43474 0.02069 0.0
H669 H 0.1855 0.45274 0.0163 0.0
H670 H 0.2139 0.50481 0.02743 0.0
H671 H 0.21485 0.51137 0.04792 0.0
H672 H 0.81007 0.2932 0.38363 0.0
H673 H 0.81525 0.2924 0.36314 0.0
H674 H 0.71841 0.21265 0.36101 0.0
H675 H 0.71319 0.21358 0.38154 0.0
H676 H 0.77121 0.21078 0.34672 0.0
H677 H 0.76148 0.32057 0.34229 0.0
H678 H 0.78955 0.32164 0.35251 0.0
H679 H 0.74729 0.29529 0.35458 0.0
C680 C 0.79021 0.27508 0.37878 0.0
C681 C 0.7614 0.25314 0.38411 0.0
C682 C 0.79309 0.27476 0.3671 0.0
C683 C 0.76717 0.25255 0.36055 0.0
C684 C 0.73873 0.2299 0.36591 0.0
H685 H 0.72858 0.21439 0.28921 0.0
H686 H 0.7309 0.21026 0.30965 0.0
C687 C 0.73577 0.23035 0.3776 0.0
C688 C 0.76918 0.25421 0.34809 0.0
H689 H 0.77041 0.29936 0.32581 0.0
C690 C 0.77104 0.23011 0.34212 0.0
C691 C 0.76915 0.27956 0.34213 0.0
C692 C 0.76656 0.30572 0.34814 0.0
C693 C 0.77323 0.23088 0.33033 0.0
C694 C 0.77266 0.25599 0.32431 0.0
C695 C 0.77096 0.28015 0.33035 0.0
C696 C 0.77284 0.25734 0.31179 0.0
C697 C 0.77686 0.20513 0.32447 0.0
C698 C 0.79526 0.28532 0.3061 0.0
C699 C 0.79368 0.28775 0.29443 0.0
C700 C 0.76979 0.26221 0.28822 0.0
C701 C 0.7477 0.23406 0.29383 0.0
C702 C 0.74911 0.2317 0.3055 0.0
H703 H 0.78741 0.19452 0.33012 0.0
H704 H 0.75282 0.18559 0.32183 0.0
H705 H 0.79227 0.21466 0.3169 0.0
H706 H 0.81361 0.30556 0.31074 0.0
H707 H 0.81054 0.30989 0.29028 0.0
H708 H 0.51686 0.80079 0.71619 0.0
H709 H 0.52329 0.80429 0.69572 0.0
H710 H 0.52516 0.71571 0.69567 0.0
H711 H 0.51765 0.71181 0.71613 0.0
H712 H 0.56749 0.80736 0.68105 0.0
H713 H 0.45245 0.69419 0.67432 0.0
H714 H 0.46418 0.71331 0.68785 0.0
H715 H 0.4804 0.68915 0.68279 0.0
C716 C 0.51916 0.7824 0.71178 0.0
C717 C 0.51689 0.75609 0.71765 0.0
C718 C 0.52274 0.78432 0.7001 0.0
C719 C 0.52404 0.75992 0.69407 0.0
C720 C 0.52339 0.73442 0.70006 0.0
H721 H 0.52749 0.72468 0.62238 0.0
H722 H 0.53424 0.72637 0.64284 0.0
C723 C 0.51951 0.73236 0.71174 0.0
C724 C 0.52486 0.76072 0.68155 0.0
H725 H 0.48432 0.71842 0.65823 0.0
C726 C 0.54929 0.7879 0.67607 0.0
C727 C 0.50096 0.73547 0.675 0.0
C728 C 0.47283 0.70653 0.68027 0.0
C729 C 0.55066 0.79029 0.66429 0.0
C730 C 0.52692 0.76495 0.65778 0.0
C731 C 0.50264 0.73774 0.66323 0.0
C732 C 0.52625 0.7663 0.64531 0.0
C733 C 0.57766 0.81976 0.65886 0.0
C734 C 0.51977 0.78834 0.63988 0.0
C735 C 0.51588 0.78734 0.6282 0.0
C736 C 0.51867 0.76447 0.62177 0.0
C737 C 0.52591 0.74294 0.62716 0.0
C738 C 0.52956 0.74378 0.63883 0.0
H739 H 0.59762 0.83383 0.66482 0.0
H740 H 0.58727 0.81309 0.65151 0.0
H741 H 0.56837 0.83536 0.65583 0.0
H742 H 0.5165 0.80551 0.64471 0.0
H743 H 0.50963 0.80369 0.62422 0.0
H744 H 0.73057 0.5191 0.05009 0.0
H745 H 0.73226 0.52533 0.02963 0.0
H746 H 0.81771 0.51748 0.02837 0.0
H747 H 0.8153 0.51022 0.04882 0.0
H748 H 0.77444 0.56671 0.01443 0.0
H749 H 0.75922 0.44604 0.00766 0.0
H750 H 0.7549 0.45968 0.02128 0.0
H751 H 0.79422 0.47193 0.01575 0.0
C752 C 0.75001 0.51933 0.04542 0.0
C753 C 0.77295 0.51443 0.05097 0.0
C754 C 0.75092 0.52276 0.03374 0.0
C755 C 0.77472 0.52121 0.02738 0.0
C756 C 0.79864 0.51797 0.03303 0.0
H757 H 0.80693 0.51992 0.9554 0.0
H758 H 0.81354 0.52689 0.97583 0.0
C759 C 0.79755 0.51425 0.04471 0.0
C760 C 0.77358 0.52161 0.01486 0.0
H761 H 0.76885 0.47818 0.9915 0.0
C762 C 0.7732 0.54733 0.00943 0.0
C763 C 0.77163 0.49618 0.00828 0.0
C764 C 0.76967 0.46674 0.01353 0.0
C765 C 0.7714 0.5485 0.99765 0.0
C766 C 0.76983 0.52326 0.99112 0.0
C767 C 0.77031 0.49764 0.99652 0.0
C768 C 0.76709 0.52252 0.97867 0.0
C769 C 0.77156 0.57685 0.99225 0.0
C770 C 0.73889 0.51801 0.97346 0.0
C771 C 0.73509 0.51394 0.9618 0.0
C772 C 0.75954 0.51461 0.95517 0.0
C773 C 0.78804 0.51995 0.96034 0.0
C774 C 0.79173 0.52374 0.97199 0.0
H775 H 0.77913 0.59711 0.9982 0.0
H776 H 0.78788 0.58528 0.98488 0.0
H777 H 0.74699 0.56952 0.98925 0.0
H778 H 0.71933 0.51641 0.97846 0.0
H779 H 0.71268 0.50921 0.958 0.0
H780 H 0.28441 0.80088 0.28861 0.0
H781 H 0.28179 0.80495 0.30906 0.0
H782 H 0.21314 0.70374 0.31087 0.0
H783 H 0.21539 0.69982 0.29035 0.0
H784 H 0.19864 0.74177 0.32542 0.0
H785 H 0.32522 0.77049 0.32996 0.0
H786 H 0.31976 0.79687 0.32076 0.0
H787 H 0.30301 0.75535 0.31707 0.0
C788 C 0.26818 0.77972 0.29337 0.0
C789 C 0.24971 0.75013 0.28793 0.0
C790 C 0.26697 0.78195 0.30505 0.0
C791 C 0.24762 0.75456 0.31154 0.0
C792 C 0.22826 0.72519 0.30606 0.0
H793 H 0.21993 0.70687 0.38256 0.0
H794 H 0.2142 0.70809 0.36215 0.0
C795 C 0.22944 0.72296 0.29435 0.0
C796 C 0.24872 0.75624 0.32403 0.0
H797 H 0.29901 0.77252 0.34642 0.0
C798 C 0.22057 0.74849 0.33002 0.0
C799 C 0.27733 0.76496 0.33006 0.0
C800 C 0.30801 0.77212 0.32417 0.0
C801 C 0.22039 0.74967 0.34183 0.0
C802 C 0.24898 0.75825 0.34785 0.0
C803 C 0.27713 0.76613 0.34184 0.0
C804 C 0.25021 0.75824 0.36036 0.0
C805 C 0.18968 0.74222 0.34773 0.0
C806 C 0.27246 0.7859 0.36622 0.0
C807 C 0.27579 0.78513 0.37788 0.0
C808 C 0.25707 0.75664 0.38388 0.0
C809 C 0.2343 0.7292 0.3781 0.0
C810 C 0.23097 0.72995 0.36645 0.0
H811 H 0.17321 0.74558 0.34209 0.0
H812 H 0.1771 0.71682 0.35049 0.0
H813 H 0.19462 0.75761 0.35525 0.0
H814 H 0.28772 0.80795 0.36172 0.0
H815 H 0.29373 0.80646 0.38216 0.0
H816 H 0.49103 0.28653 0.71537 0.0
H817 H 0.48378 0.28037 0.69493 0.0
H818 H 0.50825 0.20566 0.69568 0.0
H819 H 0.51508 0.21165 0.71611 0.0
H820 H 0.53119 0.29064 0.67988 0.0
H821 H 0.42997 0.16621 0.67529 0.0
H822 H 0.43923 0.18771 0.68841 0.0
H823 H 0.46195 0.16933 0.68394 0.0
C824 C 0.49399 0.26826 0.71116 0.0
C825 C 0.5032 0.24927 0.71726 0.0
C826 C 0.49004 0.26485 0.6995 0.0
C827 C 0.49507 0.24226 0.69373 0.0
C828 C 0.50348 0.22271 0.69992 0.0
H829 H 0.5203 0.207 0.62391 0.0
H830 H 0.51337 0.20468 0.6444 0.0
C831 C 0.50745 0.22615 0.71157 0.0
C832 C 0.49427 0.24108 0.68122 0.0
H833 H 0.46011 0.1912 0.65871 0.0
C834 C 0.51538 0.26897 0.67526 0.0
C835 C 0.47386 0.21275 0.67515 0.0
C836 C 0.44975 0.18236 0.68101 0.0
C837 C 0.51718 0.26916 0.66349 0.0
C838 C 0.49687 0.24082 0.65742 0.0
C839 C 0.47564 0.21292 0.66335 0.0
C840 C 0.49786 0.23976 0.64493 0.0
C841 C 0.54155 0.29951 0.65765 0.0
C842 C 0.49053 0.25949 0.63837 0.0
C843 C 0.49439 0.26072 0.62671 0.0
C844 C 0.50524 0.24193 0.62135 0.0
C845 C 0.51143 0.22131 0.62785 0.0
C846 C 0.50758 0.22009 0.63953 0.0
H847 H 0.56041 0.31641 0.66352 0.0
H848 H 0.55333 0.29409 0.65066 0.0
H849 H 0.52922 0.31177 0.6541 0.0
H850 H 0.48261 0.27458 0.64231 0.0
H851 H 0.48999 0.2772 0.62189 0.0
H852 H 0.28987 0.7399 0.19997 0.0
H853 H 0.28514 0.71163 0.18234 0.0
H854 H 0.22718 0.62105 0.19907 0.0
H855 H 0.23088 0.64946 0.21657 0.0
H856 H 0.30675 0.6723 0.17778 0.0
H857 H 0.17522 0.60546 0.17111 0.0
H858 H 0.19418 0.63738 0.18125 0.0
H859 H 0.18626 0.59764 0.18461 0.0
C860 C 0.27514 0.71402 0.19976 0.0
C861 C 0.25984 0.69689 0.20954 0.0
C862 C 0.27276 0.69781 0.18971 0.0
C863 C 0.25529 0.66408 0.18924 0.0
C864 C 0.23995 0.64701 0.19904 0.0
H865 H 0.29179 0.5544 0.13859 0.0
H866 H 0.28695 0.57852 0.15607 0.0
C867 C 0.24214 0.66324 0.20906 0.0
C868 C 0.25509 0.64689 0.17875 0.0
H869 H 0.20591 0.58909 0.16004 0.0
C870 C 0.28464 0.65423 0.17389 0.0
C871 C 0.22632 0.62348 0.17352 0.0
C872 C 0.19371 0.61573 0.17782 0.0
C873 C 0.28628 0.63868 0.16412 0.0
C874 C 0.25756 0.61432 0.15917 0.0
C875 C 0.22797 0.60733 0.1639 0.0
C876 C 0.2578 0.59664 0.14888 0.0
C877 C 0.31884 0.64915 0.15907 0.0
C878 C 0.2417 0.59722 0.13912 0.0
C879 C 0.24382 0.58273 0.1292 0.0
C880 C 0.26182 0.56707 0.12885 0.0
C881 C 0.27711 0.56561 0.13869 0.0
C882 C 0.27481 0.57991 0.14863 0.0
H883 H 0.33705 0.67364 0.16186 0.0
H884 H 0.32709 0.63245 0.1618 0.0
H885 H 0.31782 0.6489 0.14977 0.0
H886 H 0.22839 0.60986 0.13905 0.0
H887 H 0.23228 0.58466 0.12168 0.0
H888 H 0.65794 0.22817 0.45541 0.0
H889 H 0.62869 0.22377 0.47281 0.0
H890 H 0.71868 0.28284 0.48982 0.0
H891 H 0.74777 0.2882 0.47231 0.0
H892 H 0.62702 0.2014 0.49375 0.0
H893 H 0.67298 0.33211 0.4957 0.0
H894 H 0.67877 0.31315 0.4836 0.0
H895 H 0.70446 0.32244 0.49566 0.0
C896 C 0.67141 0.2397 0.46294 0.0
C897 C 0.70513 0.25802 0.46257 0.0
C898 C 0.65471 0.23729 0.47287 0.0
C899 C 0.67135 0.25341 0.48264 0.0
C900 C 0.70516 0.27069 0.48238 0.0
H901 H 0.59 0.22525 0.55021 0.0
H902 H 0.61532 0.22199 0.53278 0.0
C903 C 0.72185 0.27328 0.47242 0.0
C904 C 0.65327 0.25295 0.49293 0.0
H905 H 0.64385 0.30163 0.51156 0.0
C906 C 0.63068 0.22333 0.49763 0.0
C907 C 0.6574 0.28149 0.49791 0.0
C908 C 0.67945 0.31408 0.49291 0.0
C909 C 0.61266 0.22148 0.50722 0.0
C910 C 0.61777 0.25007 0.51247 0.0
C911 C 0.63999 0.27965 0.50765 0.0
C912 C 0.60046 0.25005 0.52292 0.0
C913 C 0.58779 0.18883 0.51146 0.0
C914 C 0.58404 0.26735 0.52336 0.0
C915 C 0.56986 0.26949 0.53337 0.0
C916 C 0.5715 0.2541 0.54315 0.0
C917 C 0.58763 0.23658 0.5427 0.0
C918 C 0.60202 0.23464 0.53273 0.0
H919 H 0.57977 0.17046 0.50473 0.0
H920 H 0.59843 0.18143 0.51827 0.0
H921 H 0.56644 0.18911 0.51485 0.0
H922 H 0.58272 0.27979 0.51599 0.0
H923 H 0.55859 0.28409 0.53356 0.0
H924 H 0.44884 0.74156 0.80368 0.0
H925 H 0.42475 0.71239 0.82114 0.0
H926 H 0.42766 0.63028 0.8082 0.0
H927 H 0.45077 0.65929 0.79058 0.0
H928 H 0.37105 0.61166 0.81709 0.0
H929 H 0.46214 0.69237 0.84764 0.0
H930 H 0.44734 0.71322 0.83935 0.0
H931 H 0.46931 0.69647 0.83273 0.0
C932 C 0.44498 0.71755 0.80472 0.0
C933 C 0.45221 0.70283 0.79593 0.0
C934 C 0.43127 0.70086 0.8147 0.0
C935 C 0.42485 0.66919 0.81617 0.0
C936 C 0.43252 0.65469 0.80737 0.0
H937 H 0.3668 0.57478 0.88193 0.0
H938 H 0.39553 0.59844 0.86432 0.0
C939 C 0.44596 0.67131 0.79734 0.0
C940 C 0.40839 0.65061 0.82654 0.0
H941 H 0.41097 0.65382 0.85521 0.0
C942 C 0.38001 0.62081 0.82542 0.0
C943 C 0.42011 0.66207 0.83747 0.0
C944 C 0.45157 0.69261 0.83938 0.0
C945 C 0.36271 0.60269 0.83483 0.0
C946 C 0.37348 0.61499 0.84576 0.0
C947 C 0.40233 0.64439 0.84688 0.0
C948 C 0.35517 0.59811 0.85612 0.0
C949 C 0.33334 0.57026 0.83293 0.0
C950 C 0.32279 0.58972 0.85746 0.0
C951 C 0.30628 0.57569 0.86745 0.0
C952 C 0.32188 0.57006 0.87637 0.0
C953 C 0.35412 0.57829 0.87507 0.0
C954 C 0.37056 0.59204 0.86504 0.0
H955 H 0.33453 0.55995 0.82473 0.0
H956 H 0.33042 0.5531 0.83966 0.0
H957 H 0.3117 0.57289 0.83282 0.0
H958 H 0.31051 0.59497 0.85092 0.0
H959 H 0.28168 0.57036 0.86839 0.0
H960 H 0.80618 0.45083 0.12494 0.0
H961 H 0.81083 0.42697 0.14257 0.0
H962 H 0.71884 0.41283 0.15319 0.0
H963 H 0.71486 0.43764 0.13573 0.0
H964 H 0.75934 0.43195 0.17043 0.0
H965 H 0.76423 0.33253 0.14896 0.0
H966 H 0.7961 0.37138 0.14486 0.0
H967 H 0.75511 0.35972 0.14162 0.0
C968 C 0.78731 0.44308 0.13116 0.0
C969 C 0.76028 0.44617 0.12907 0.0
C970 C 0.78972 0.42906 0.14117 0.0
C971 C 0.76482 0.41729 0.14916 0.0
C972 C 0.73833 0.4215 0.14718 0.0
H973 H 0.72214 0.2753 0.20142 0.0
H974 H 0.72639 0.3044 0.184 0.0
C975 C 0.73607 0.43576 0.13724 0.0
C976 C 0.76596 0.40021 0.15949 0.0
H977 H 0.77224 0.33621 0.16864 0.0
C978 C 0.76222 0.41105 0.17002 0.0
C979 C 0.76912 0.3725 0.15902 0.0
C980 C 0.77104 0.35811 0.14801 0.0
C981 C 0.76166 0.3952 0.18002 0.0
C982 C 0.76587 0.36811 0.17957 0.0
C983 C 0.76946 0.35717 0.16905 0.0
C984 C 0.76515 0.35 0.18988 0.0
C985 C 0.75544 0.40705 0.19092 0.0
C986 C 0.78614 0.36551 0.19891 0.0
C987 C 0.78359 0.34888 0.20886 0.0
C988 C 0.76056 0.31624 0.2099 0.0
C989 C 0.74047 0.30034 0.20073 0.0
C990 C 0.74281 0.31702 0.19081 0.0
H991 H 0.74377 0.42166 0.18952 0.0
H992 H 0.73988 0.38678 0.19655 0.0
H993 H 0.77863 0.42244 0.19524 0.0
H994 H 0.80412 0.39068 0.19835 0.0
H995 H 0.79909 0.36168 0.21587 0.0
H996 H 0.46547 0.72601 0.53389 0.0
H997 H 0.44135 0.7315 0.51651 0.0
H998 H 0.40977 0.78912 0.53401 0.0
H999 H 0.43502 0.78462 0.55126 0.0
H1000 H 0.37995 0.71046 0.51234 0.0
H1001 H 0.44589 0.84198 0.50619 0.0
H1002 H 0.45894 0.82243 0.51604 0.0
H1003 H 0.42739 0.83051 0.51974 0.0
C1004 C 0.45442 0.74083 0.53389 0.0
C1005 C 0.45304 0.75579 0.54382 0.0
C1006 C 0.44026 0.74364 0.524 0.0
C1007 C 0.42412 0.76123 0.52382 0.0
C1008 C 0.42283 0.77624 0.53377 0.0
H1009 H 0.27833 0.72835 0.47301 0.0
H1010 H 0.30646 0.73221 0.49066 0.0
C1011 C 0.4372 0.77361 0.54364 0.0
C1012 C 0.40685 0.76197 0.51347 0.0
H1013 H 0.39875 0.81206 0.4951 0.0
C1014 C 0.38421 0.73272 0.50857 0.0
C1015 C 0.41247 0.79095 0.50841 0.0
C1016 C 0.43772 0.82324 0.51279 0.0
C1017 C 0.36696 0.73161 0.49887 0.0
C1018 C 0.37172 0.76055 0.49404 0.0
C1019 C 0.39464 0.78983 0.49887 0.0
C1020 C 0.35423 0.7609 0.48371 0.0
C1021 C 0.34442 0.69935 0.49374 0.0
C1022 C 0.37149 0.77715 0.47405 0.0
C1023 C 0.3554 0.77547 0.46406 0.0
C1024 C 0.32168 0.75764 0.4635 0.0
C1025 C 0.30431 0.74248 0.47325 0.0
C1026 C 0.32042 0.74433 0.48329 0.0
H1027 H 0.35012 0.68075 0.49651 0.0
H1028 H 0.31945 0.69157 0.49639 0.0
H1029 H 0.34544 0.70057 0.48444 0.0
H1030 H 0.39752 0.79021 0.47413 0.0
H1031 H 0.36932 0.78713 0.45662 0.0
H1032 H 0.65453 0.4368 0.88373 0.0
H1033 H 0.62499 0.41153 0.8664 0.0
H1034 H 0.71308 0.42835 0.85085 0.0
H1035 H 0.74262 0.45414 0.86812 0.0
H1036 H 0.6761 0.43949 0.83622 0.0
H1037 H 0.60181 0.32185 0.85698 0.0
H1038 H 0.59834 0.35374 0.86332 0.0
H1039 H 0.63619 0.35466 0.86368 0.0
C1040 C 0.66758 0.43565 0.8765 0.0
C1041 C 0.70087 0.44786 0.87716 0.0
C1042 C 0.65067 0.42086 0.86666 0.0
C1043 C 0.66663 0.41741 0.85734 0.0
C1044 C 0.70015 0.43062 0.85789 0.0
H1045 H 0.58604 0.28155 0.80228 0.0
H1046 H 0.6106 0.31037 0.81977 0.0
C1047 C 0.71707 0.44554 0.86773 0.0
C1048 C 0.64842 0.39935 0.84714 0.0
H1049 H 0.58848 0.32607 0.83817 0.0
C1050 C 0.65689 0.41472 0.83666 0.0
C1051 C 0.62366 0.36678 0.84764 0.0
C1052 C 0.61462 0.34814 0.85848 0.0
C1053 C 0.64126 0.39861 0.82672 0.0
C1054 C 0.61589 0.36632 0.82726 0.0
C1055 C 0.60757 0.3509 0.83774 0.0
C1056 C 0.59879 0.34768 0.817 0.0
C1057 C 0.65284 0.4161 0.8157 0.0
C1058 C 0.58295 0.35829 0.80975 0.0
C1059 C 0.56897 0.34182 0.79974 0.0
C1060 C 0.57028 0.31425 0.79686 0.0
C1061 C 0.58469 0.30272 0.80435 0.0
C1062 C 0.59878 0.31925 0.81432 0.0
H1063 H 0.67746 0.43715 0.8164 0.0
H1064 H 0.65286 0.39996 0.80906 0.0
H1065 H 0.63652 0.42491 0.81305 0.0
H1066 H 0.58184 0.37964 0.81173 0.0
H1067 H 0.55797 0.35112 0.79409 0.0
H1068 H 0.87598 0.45754 0.07651 0.0
H1069 H 0.9296 0.46354 0.07655 0.0
H1070 H 0.9583 0.5331 0.10315 0.0
H1071 H 0.90448 0.52581 0.10368 0.0
H1072 H 0.98706 0.5128 0.07206 0.0
H1073 H 0.98972 0.47791 0.11603 0.0
H1074 H 0.9534 0.47213 0.1095 0.0
H1075 H 0.98219 0.51068 0.11517 0.0
C1076 C 0.8934 0.47364 0.08255 0.0
C1077 C 0.88539 0.49107 0.09011 0.0
C1078 C 0.92433 0.4773 0.08249 0.0
C1079 C 0.9482 0.49841 0.08998 0.0
C1080 C 0.94037 0.51602 0.09746 0.0
H1081 H 0.1546 0.56918 0.09786 0.0
H1082 H 0.10046 0.56251 0.09777 0.0
C1083 C 0.90945 0.51218 0.0976 0.0
C1084 C 0.98144 0.50276 0.08978 0.0
H1085 H 0.04002 0.50341 0.10637 0.0
C1086 C 0.99844 0.51048 0.07957 0.0
C1087 C 0.99666 0.49974 0.09953 0.0
C1088 C 0.97942 0.48933 0.11064 0.0
C1089 C 0.03006 0.5158 0.07891 0.0
C1090 C 0.04536 0.5134 0.0887 0.0
C1091 C 0.02847 0.50561 0.09889 0.0
C1092 C 0.07856 0.51802 0.08846 0.0
C1093 C 0.04718 0.52446 0.06777 0.0
C1094 C 0.08441 0.49527 0.08328 0.0
C1095 C 0.11525 0.49891 0.08338 0.0
C1096 C 0.1412 0.52554 0.08861 0.0
C1097 C 0.13536 0.54856 0.09366 0.0
C1098 C 0.10434 0.54469 0.09367 0.0
H1099 H 0.0344 0.53083 0.06142 0.0
H1100 H 0.07203 0.54492 0.06874 0.0
H1101 H 0.04883 0.50371 0.06457 0.0
H1102 H 0.06495 0.47439 0.07927 0.0
H1103 H 0.11881 0.48081 0.07933 0.0
H1104 H 0.64333 0.11876 0.43638 0.0
H1105 H 0.59772 0.06439 0.43526 0.0
H1106 H 0.55687 0.09341 0.40874 0.0
H1107 H 0.6035 0.14759 0.40932 0.0
H1108 H 0.53579 0.0399 0.43878 0.0
H1109 H 0.55173 0.01589 0.39451 0.0
H1110 H 0.58171 0.05062 0.40197 0.0
H1111 H 0.54714 0.05039 0.39606 0.0
C1112 C 0.62502 0.11362 0.43014 0.0
C1113 C 0.62767 0.1378 0.42281 0.0
C1114 C 0.59865 0.0824 0.42959 0.0
C1115 C 0.57399 0.07431 0.42174 0.0
C1116 C 0.57592 0.09859 0.41466 0.0
H1117 H 0.38868 0.90329 0.41025 0.0
H1118 H 0.43639 0.95688 0.41032 0.0
C1119 C 0.60248 0.12985 0.41513 0.0
C1120 C 0.54617 0.04067 0.42117 0.0
H1121 H 0.50323 0.97736 0.40341 0.0
C1122 C 0.52889 0.02623 0.43104 0.0
C1123 C 0.53701 0.0225 0.41111 0.0
C1124 C 0.55555 0.0355 0.40034 0.0
C1125 C 0.50259 0.99466 0.43108 0.0
C1126 C 0.49322 0.97677 0.42101 0.0
C1127 C 0.51041 0.99107 0.41114 0.0
C1128 C 0.46501 0.94356 0.42051 0.0
C1129 C 0.4845 0.98083 0.44187 0.0
C1130 C 0.46538 0.9179 0.426 0.0
C1131 C 0.4381 0.88705 0.42591 0.0
C1132 C 0.40979 0.8813 0.42042 0.0
C1133 C 0.40991 0.90691 0.41468 0.0
C1134 C 0.43722 0.93758 0.41467 0.0
H1135 H 0.49116 0.99945 0.44845 0.0
H1136 H 0.45818 0.96886 0.44041 0.0
H1137 H 0.49002 0.9625 0.44507 0.0
H1138 H 0.48666 0.92184 0.43046 0.0
H1139 H 0.43881 0.86797 0.43046 0.0
H1140 H 0.57106 0.4309 0.76496 0.0
H1141 H 0.56424 0.47809 0.76523 0.0
H1142 H 0.483 0.43004 0.74302 0.0
H1143 H 0.4893 0.3828 0.7429 0.0
H1144 H 0.56579 0.51888 0.74962 0.0
H1145 H 0.44317 0.45502 0.76755 0.0
H1146 H 0.46823 0.43709 0.76684 0.0
H1147 H 0.44598 0.43724 0.75471 0.0
C1148 C 0.55188 0.43048 0.76007 0.0
C1149 C 0.5305 0.4028 0.75402 0.0
C1150 C 0.5479 0.45748 0.76027 0.0
C1151 C 0.5225 0.45751 0.7544 0.0
C1152 C 0.50207 0.43041 0.74795 0.0
H1153 H 0.46231 0.59941 0.74297 0.0
H1154 H 0.46953 0.55258 0.74242 0.0
C1155 C 0.50583 0.40338 0.74784 0.0
C1156 C 0.51745 0.48581 0.75495 0.0
H1157 H 0.46118 0.50771 0.76064 0.0
C1158 C 0.54295 0.51638 0.7521 0.0
C1159 C 0.48768 0.48286 0.75821 0.0
C1160 C 0.45982 0.45135 0.76211 0.0
C1161 C 0.53934 0.54368 0.7522 0.0
C1162 C 0.50948 0.54058 0.7553 0.0
C1163 C 0.484 0.51011 0.75817 0.0
C1164 C 0.50446 0.5688 0.75583 0.0
C1165 C 0.56738 0.57565 0.74879 0.0
C1166 C 0.52109 0.59328 0.76371 0.0
C1167 C 0.51668 0.61992 0.76417 0.0
C1168 C 0.49561 0.62299 0.7567 0.0
C1169 C 0.47851 0.59801 0.74894 0.0
C1170 C 0.48278 0.57121 0.74855 0.0
H1171 H 0.58621 0.57298 0.74435 0.0
H1172 H 0.5593 0.58881 0.74327 0.0
H1173 H 0.57833 0.59041 0.7564 0.0
H1174 H 0.53743 0.59172 0.76958 0.0
H1175 H 0.52972 0.63802 0.77047 0.0
H1176 H 0.49354 0.11142 0.56898 0.0
H1177 H 0.48648 0.05779 0.56987 0.0
H1178 H 0.55854 0.08888 0.59574 0.0
H1179 H 0.56425 0.14219 0.59545 0.0
H1180 H 0.52372 0.03438 0.56566 0.0
H1181 H 0.49022 0.01017 0.61048 0.0
H1182 H 0.49325 0.04451 0.60331 0.0
H1183 H 0.52879 0.04528 0.60851 0.0
C1184 C 0.50753 0.10692 0.57506 0.0
C1185 C 0.52913 0.13151 0.58229 0.0
C1186 C 0.50366 0.07606 0.57547 0.0
C1187 C 0.52134 0.06865 0.58306 0.0
C1188 C 0.54375 0.09337 0.59003 0.0
H1189 H 0.54063 0.8991 0.59266 0.0
H1190 H 0.54691 0.9528 0.5926 0.0
C1191 C 0.54742 0.12423 0.58971 0.0
C1192 C 0.51662 0.03531 0.58346 0.0
H1193 H 0.50059 0.9727 0.60107 0.0
C1194 C 0.51846 0.02093 0.57342 0.0
C1195 C 0.50959 0.0173 0.59354 0.0
C1196 C 0.50501 0.02995 0.60455 0.0
C1197 C 0.51402 0.98968 0.5732 0.0
C1198 C 0.50748 0.97199 0.58329 0.0
C1199 C 0.50569 0.98624 0.59333 0.0
C1200 C 0.50288 0.93885 0.58356 0.0
C1201 C 0.51691 0.97591 0.5622 0.0
C1202 C 0.47573 0.91278 0.57866 0.0
C1203 C 0.47193 0.88186 0.57875 0.0
C1204 C 0.49536 0.8763 0.58365 0.0
C1205 C 0.52228 0.90244 0.58868 0.0
C1206 C 0.52586 0.93321 0.5887 0.0
H1207 H 0.52733 0.9944 0.55551 0.0
H1208 H 0.53211 0.96474 0.56318 0.0
H1209 H 0.49271 0.95693 0.55945 0.0
H1210 H 0.45749 0.91637 0.57473 0.0
H1211 H 0.45101 0.86245 0.57475 0.0
H1212 H 0.37871 0.48225 0.92573 0.0
H1213 H 0.42602 0.47585 0.92614 0.0
H1214 H 0.47986 0.56438 0.90785 0.0
H1215 H 0.43275 0.57129 0.90768 0.0
H1216 H 0.45859 0.46757 0.91025 0.0
H1217 H 0.54291 0.58022 0.93203 0.0
H1218 H 0.50054 0.56636 0.93101 0.0
H1219 H 0.52704 0.58749 0.91949 0.0
C1220 C 0.40066 0.50048 0.92183 0.0
C1221 C 0.40183 0.52739 0.91671 0.0
C1222 C 0.42782 0.49679 0.92208 0.0
C1223 C 0.457 0.51983 0.9172 0.0
C1224 C 0.45815 0.54665 0.912 0.0
H1225 H 0.63818 0.52699 0.90266 0.0
H1226 H 0.59129 0.53391 0.90326 0.0
C1227 C 0.43106 0.55055 0.91187 0.0
C1228 C 0.48564 0.51508 0.91723 0.0
H1229 H 0.56586 0.55137 0.92363 0.0
C1230 C 0.48193 0.48587 0.91327 0.0
C1231 C 0.51634 0.53877 0.92119 0.0
C1232 C 0.52193 0.56982 0.92628 0.0
C1233 C 0.50789 0.48003 0.91297 0.0
C1234 C 0.53858 0.50392 0.91672 0.0
C1235 C 0.54239 0.53307 0.9207 0.0
C1236 C 0.56711 0.49927 0.91644 0.0
C1237 C 0.50254 0.44852 0.90843 0.0
C1238 C 0.5694 0.4775 0.92369 0.0
C1239 C 0.59662 0.4738 0.92353 0.0
C1240 C 0.62229 0.49172 0.91607 0.0
C1241 C 0.61953 0.5132 0.90872 0.0
C1242 C 0.59249 0.51708 0.90898 0.0
H1243 H 0.47882 0.43457 0.90424 0.0
H1244 H 0.52172 0.45262 0.90235 0.0
H1245 H 0.50362 0.43392 0.91543 0.0
H1246 H 0.55029 0.46368 0.92961 0.0
H1247 H 0.59777 0.45737 0.92944 0.0
H1248 H 0.11859 0.63191 0.23549 0.0
H1249 H 0.0648 0.58526 0.23633 0.0
H1250 H 0.09553 0.54445 0.26231 0.0
H1251 H 0.14904 0.59212 0.26206 0.0
H1252 H 0.04154 0.52442 0.23219 0.0
H1253 H 0.0166 0.53456 0.27687 0.0
H1254 H 0.0511 0.56581 0.26969 0.0
H1255 H 0.05177 0.53118 0.27501 0.0
C1256 C 0.11396 0.61342 0.24157 0.0
C1257 C 0.13848 0.61645 0.24885 0.0
C1258 C 0.08304 0.58641 0.24195 0.0
C1259 C 0.07551 0.56137 0.24957 0.0
C1260 C 0.10016 0.5637 0.25658 0.0
H1261 H 0.90465 0.37301 0.25913 0.0
H1262 H 0.95871 0.42022 0.25912 0.0
C1263 C 0.1311 0.59092 0.25629 0.0
C1264 C 0.04211 0.53279 0.24995 0.0
H1265 H 0.97893 0.48673 0.26748 0.0
C1266 C 0.02788 0.5164 0.23992 0.0
C1267 C 0.02388 0.52207 0.26 0.0
C1268 C 0.03646 0.5395 0.27098 0.0
C1269 C 0.99651 0.48965 0.23968 0.0
C1270 C 0.97857 0.47879 0.24973 0.0
C1271 C 0.99268 0.49498 0.25977 0.0
C1272 C 0.94527 0.45042 0.24997 0.0
C1273 C 0.98284 0.47278 0.22869 0.0
C1274 C 0.91943 0.4517 0.24499 0.0
C1275 C 0.88833 0.42472 0.24505 0.0
C1276 C 0.88239 0.39571 0.25 0.0
C1277 C 0.90832 0.39474 0.25511 0.0
C1278 C 0.93927 0.4218 0.25516 0.0
H1279 H 1.00149 0.48067 0.22205 0.0
H1280 H 0.97147 0.44641 0.22975 0.0
H1281 H 0.96399 0.47801 0.22583 0.0
H1282 H 0.92335 0.47357 0.24101 0.0
H1283 H 0.86908 0.42636 0.24097 0.0
H1284 H 0.60333 0.46784 0.07658 0.0
H1285 H 0.55771 0.47694 0.07727 0.0
H1286 H 0.5836 0.51329 0.11094 0.0
H1287 H 0.62994 0.50525 0.1102 0.0
H1288 H 0.50478 0.45283 0.09115 0.0
H1289 H 0.57644 0.58507 0.09576 0.0
H1290 H 0.59432 0.56129 0.09186 0.0
H1291 H 0.58442 0.56328 0.10626 0.0
C1292 C 0.59965 0.47808 0.08412 0.0
C1293 C 0.62083 0.48602 0.09329 0.0
C1294 C 0.57326 0.48308 0.08453 0.0
C1295 C 0.56728 0.49637 0.09409 0.0
C1296 C 0.58788 0.50364 0.10336 0.0
H1297 H 0.39081 0.50184 0.10924 0.0
H1298 H 0.43704 0.49335 0.1098 0.0
C1299 C 0.61427 0.4986 0.10297 0.0
C1300 C 0.53945 0.50237 0.09431 0.0
H1301 H 0.51986 0.56134 0.09724 0.0
C1302 C 0.50816 0.47657 0.09252 0.0
C1303 C 0.5436 0.5334 0.09596 0.0
C1304 C 0.5765 0.56244 0.09747 0.0
C1305 C 0.48117 0.48085 0.09246 0.0
C1306 C 0.48531 0.51174 0.09427 0.0
C1307 C 0.51656 0.53761 0.09595 0.0
C1308 C 0.45753 0.51768 0.09413 0.0
C1309 C 0.44833 0.45239 0.09026 0.0
C1310 C 0.45371 0.53462 0.08524 0.0
C1311 C 0.42718 0.5394 0.08488 0.0
C1312 C 0.40391 0.52775 0.09348 0.0
C1313 C 0.40825 0.51141 0.10251 0.0
C1314 C 0.43461 0.50631 0.1028 0.0
H1315 H 0.44958 0.43109 0.08741 0.0
H1316 H 0.43388 0.44598 0.09807 0.0
H1317 H 0.43559 0.45843 0.0838 0.0
H1318 H 0.47107 0.54378 0.07848 0.0
H1319 H 0.42497 0.55238 0.07784 0.0
H1320 H 0.90268 0.38064 0.43987 0.0
H1321 H 0.95788 0.42583 0.44013 0.0
H1322 H 0.93268 0.47437 0.4152 0.0
H1323 H 0.87803 0.42818 0.41445 0.0
H1324 H 0.98727 0.48337 0.41003 0.0
H1325 H 0.99485 0.50856 0.45542 0.0
H1326 H 0.98663 0.46852 0.45293 0.0
H1327 H 0.95771 0.48002 0.44881 0.0
C1328 C 0.90891 0.40113 0.43453 0.0
C1329 C 0.8859 0.40095 0.42721 0.0
C1330 C 0.94051 0.42718 0.43474 0.0
C1331 C 0.94972 0.45428 0.4279 0.0
C1332 C 0.92654 0.45404 0.42061 0.0
H1333 H 0.12367 0.63761 0.4397 0.0
H1334 H 0.07004 0.59125 0.4392 0.0
C1335 C 0.89517 0.42764 0.4202 0.0
C1336 C 0.98354 0.48235 0.42804 0.0
H1337 H 0.04429 0.53422 0.44535 0.0
C1338 C 0.99956 0.49458 0.41778 0.0
C1339 C 0.99988 0.49765 0.43808 0.0
C1340 C 0.98374 0.48823 0.44941 0.0
C1341 C 0.03097 0.52127 0.41726 0.0
C1342 C 0.04788 0.53556 0.42733 0.0
C1343 C 0.03185 0.52331 0.43759 0.0
C1344 C 0.08143 0.5641 0.42748 0.0
C1345 C 0.04499 0.53449 0.40586 0.0
C1346 C 0.10658 0.56478 0.4212 0.0
C1347 C 0.13744 0.59216 0.42111 0.0
C1348 C 0.14445 0.61947 0.42756 0.0
C1349 C 0.11951 0.61794 0.43426 0.0
C1350 C 0.08858 0.59095 0.43413 0.0
H1351 H 0.02585 0.52797 0.39948 0.0
H1352 H 0.06022 0.56101 0.40604 0.0
H1353 H 0.05989 0.52412 0.40311 0.0
H1354 H 0.10243 0.54416 0.4163 0.0
H1355 H 0.15555 0.59194 0.41579 0.0
H1356 H 0.55718 0.1459 0.74503 0.0
H1357 H 0.55069 0.09211 0.74514 0.0
H1358 H 0.49659 0.07039 0.77584 0.0
H1359 H 0.50376 0.12423 0.77605 0.0
H1360 H 0.56768 0.05987 0.76282 0.0
H1361 H 0.4368 0.99688 0.75373 0.0
H1362 H 0.46284 0.03915 0.75105 0.0
H1363 H 0.45017 0.02518 0.7651 0.0
C1364 C 0.54427 0.12997 0.75191 0.0
C1365 C 0.53078 0.13977 0.76047 0.0
C1366 C 0.54038 0.09901 0.75192 0.0
C1367 C 0.52265 0.07685 0.7604 0.0
C1368 C 0.5098 0.0867 0.76907 0.0
H1369 H 0.45757 0.87343 0.77204 0.0
H1370 H 0.46707 0.92825 0.77278 0.0
C1371 C 0.51386 0.11766 0.76913 0.0
C1372 C 0.51758 0.04349 0.76023 0.0
H1373 H 0.45948 0.96445 0.75778 0.0
C1374 C 0.54405 0.03901 0.76167 0.0
C1375 C 0.48672 0.01613 0.75884 0.0
C1376 C 0.45744 0.01937 0.75701 0.0
C1377 C 0.54047 0.00808 0.76196 0.0
C1378 C 0.50962 0.98062 0.7604 0.0
C1379 C 0.48315 0.98522 0.75898 0.0
C1380 C 0.5043 0.94706 0.7601 0.0
C1381 C 0.56979 1.00525 0.76429 0.0
C1382 C 0.52167 0.93878 0.75267 0.0
C1383 C 0.51666 0.90747 0.75236 0.0
C1384 C 0.4936 0.88307 0.75932 0.0
C1385 C 0.47588 0.89134 0.76666 0.0
C1386 C 0.48112 0.92281 0.76702 0.0
H1387 H 0.58844 0.02656 0.76887 0.0
H1388 H 0.56362 0.9835 0.7693 0.0
H1389 H 0.58042 1.00373 0.75622 0.0
H1390 H 0.53909 0.95652 0.747 0.0
H1391 H 0.53125 0.90259 0.74669 0.0
H1392 H 0.46969 0.59403 0.59522 0.0
H1393 H 0.47747 0.54769 0.59472 0.0
H1394 H 0.52493 0.57867 0.56273 0.0
H1395 H 0.51671 0.62492 0.5631 0.0
H1396 H 0.48644 0.51547 0.56253 0.0
H1397 H 0.55759 0.54587 0.60162 0.0
H1398 H 0.5189 0.54183 0.60392 0.0
H1399 H 0.54762 0.57338 0.59499 0.0
C1400 C 0.48199 0.5912 0.58809 0.0
C1401 C 0.49279 0.61364 0.57925 0.0
C1402 C 0.48659 0.56461 0.58784 0.0
C1403 C 0.50263 0.5598 0.57883 0.0
C1404 C 0.5127 0.58171 0.56984 0.0
H1405 H 0.56485 0.41855 0.56609 0.0
H1406 H 0.55724 0.46509 0.56536 0.0
C1407 C 0.50786 0.6082 0.57005 0.0
C1408 C 0.50849 0.53184 0.57873 0.0
H1409 H 0.53897 0.49333 0.59432 0.0
C1410 C 0.49819 0.51089 0.56946 0.0
C1411 C 0.52402 0.52558 0.5877 0.0
C1412 C 0.53797 0.54804 0.59756 0.0
C1413 C 0.50215 0.48375 0.56907 0.0
C1414 C 0.51689 0.47714 0.57816 0.0
C1415 C 0.52746 0.49816 0.58737 0.0
C1416 C 0.52107 0.44829 0.57836 0.0
C1417 C 0.48986 0.46178 0.55905 0.0
C1418 C 0.50342 0.42315 0.58592 0.0
C1419 C 0.50732 0.39614 0.58626 0.0
C1420 C 0.52946 0.39357 0.57916 0.0
C1421 C 0.54721 0.41902 0.5716 0.0
C1422 C 0.543 0.4459 0.57119 0.0
H1423 H 0.47482 0.46739 0.55348 0.0
H1424 H 0.51054 0.46423 0.55412 0.0
H1425 H 0.47549 0.43641 0.5618 0.0
H1426 H 0.48628 0.42426 0.59153 0.0
H1427 H 0.49253 0.37707 0.59204 0.0
H1428 H 0.12083 0.49169 0.92513 0.0
H1429 H 0.06691 0.4845 0.92459 0.0
H1430 H 0.09641 0.55583 0.89862 0.0
H1431 H 0.15102 0.56427 0.89936 0.0
H1432 H 0.04896 0.53465 0.92782 0.0
H1433 H 0.01287 0.47485 0.88622 0.0
H1434 H 0.04532 0.47624 0.8943 0.0
H1435 H 0.05109 0.51134 0.88704 0.0
C1436 C 0.11628 0.50634 0.91939 0.0
C1437 C 0.14093 0.52884 0.91235 0.0
C1438 C 0.08512 0.50191 0.91903 0.0
C1439 C 0.07733 0.51939 0.91151 0.0
C1440 C 0.10159 0.54168 0.9044 0.0
H1441 H 0.89489 0.51306 0.89672 0.0
H1442 H 0.94984 0.52223 0.8963 0.0
C1443 C 0.13294 0.54639 0.90482 0.0
C1444 C 0.04402 0.51467 0.91134 0.0
H1445 H 0.97562 0.48508 0.89547 0.0
C1446 C 0.03292 0.5238 0.92075 0.0
C1447 C 0.02306 0.50077 0.90209 0.0
C1448 C 0.03341 0.48998 0.89183 0.0
C1449 C 1.00175 0.51974 0.92113 0.0
C1450 C 0.98034 0.50503 0.91199 0.0
C1451 C 0.99166 0.49619 0.90252 0.0
C1452 C 0.94626 0.49857 0.91211 0.0
C1453 C 0.99253 0.53219 0.93124 0.0
C1454 C 0.92521 0.48147 0.92096 0.0
C1455 C 0.89379 0.47641 0.92126 0.0
C1456 C 0.88214 0.48772 0.91259 0.0
C1457 C 0.90282 0.50381 0.90352 0.0
C1458 C 0.93441 0.50918 0.90329 0.0
H1459 H 0.01405 0.55157 0.93552 0.0
H1460 H 0.97648 0.54163 0.9289 0.0
H1461 H 0.97977 0.5124 0.93735 0.0
H1462 H 0.93303 0.47191 0.92769 0.0
H1463 H 0.87848 0.46337 0.92827 0.0
H1464 H 0.42191 0.87416 0.26081 0.0
H1465 H 0.46819 0.92873 0.2601 0.0
H1466 H 0.43461 0.94474 0.22862 0.0
H1467 H 0.38814 0.89019 0.22928 0.0
H1468 H 0.51698 0.95854 0.24193 0.0
H1469 H 0.44814 0.0212 0.24949 0.0
H1470 H 0.4325 0.97956 0.2531 0.0
H1471 H 0.43328 0.99095 0.23873 0.0
C1472 C 0.42423 0.88927 0.25374 0.0
C1473 C 0.40104 0.87758 0.24512 0.0
C1474 C 0.45085 0.9205 0.25333 0.0
C1475 C 0.45484 0.94113 0.24437 0.0
C1476 C 0.43198 0.92951 0.23568 0.0
H1477 H 0.59436 0.14524 0.23273 0.0
H1478 H 0.5488 0.09046 0.23168 0.0
C1479 C 0.40551 0.89812 0.23603 0.0
C1480 C 0.48297 0.97465 0.24411 0.0
H1481 H 0.5037 0.05361 0.24618 0.0
C1482 C 0.51408 0.97933 0.24286 0.0
C1483 C 0.47931 1.00191 0.24522 0.0
C1484 C 0.44659 0.9984 0.24679 0.0
C1485 C 0.54145 0.01033 0.24259 0.0
C1486 C 0.53795 0.03769 0.244 0.0
C1487 C 0.5067 0.03292 0.24513 0.0
C1488 C 0.56627 0.07128 0.24451 0.0
C1489 C 0.57377 0.0133 0.24049 0.0
C1490 C 0.59147 0.07936 0.25215 0.0
C1491 C 0.61793 0.11063 0.25264 0.0
C1492 C 0.61989 0.13522 0.24566 0.0
C1493 C 0.59431 0.12717 0.23813 0.0
C1494 C 0.56792 0.09573 0.23758 0.0
H1495 H 0.57132 0.99213 0.23589 0.0
H1496 H 0.58973 0.03519 0.23559 0.0
H1497 H 0.58546 0.01459 0.24865 0.0
H1498 H 0.59068 0.06146 0.25783 0.0
H1499 H 0.63706 0.11531 0.25846 0.0
loop_
_geom_bond_atom_site_label_1
_geom_bond_atom_site_label_2
_geom_bond_distance
_geom_bond_site_symmetry_2
_ccdc_geom_bond_type
C0 C1 1.443 . S
C0 N4 1.376 . S
C0 C38 1.389 . S
C1 C0 1.443 . S
C1 C2 1.340 . S
C1 H41 0.951 . S
C2 C1 1.340 . S
C2 C3 1.439 . S
C2 H42 0.950 . S
C3 C2 1.439 . S
C3 N4 1.374 . S
C3 C37 1.395 . S
N4 C0 1.376 . S
N4 C3 1.374 . S
N4 Co5 2.008 . S
Co5 N4 2.008 . S
Co5 N6 1.995 . S
Co5 N11 2.008 . S
Co5 N16 1.995 . S
Co5 N21 2.282 . S
Co5 N27 2.282 . S
N6 Co5 1.995 . S
N6 C7 1.376 . S
N6 C10 1.383 . S
C7 N6 1.376 . S
C7 C8 1.446 . S
C7 C37 1.391 . S
C8 C7 1.446 . S
C8 C9 1.339 . S
C8 H43 0.949 . S
C9 C8 1.339 . S
C9 C10 1.439 . S
C9 H44 0.950 . S
C10 N6 1.383 . S
C10 C9 1.439 . S
C10 C39 1.392 . S
N11 Co5 2.008 . S
N11 C12 1.376 . S
N11 C15 1.374 . S
C12 N11 1.376 . S
C12 C13 1.443 . S
C12 C39 1.389 . S
C13 C12 1.443 . S
C13 C14 1.340 . S
C13 H45 0.951 . S
C14 C13 1.340 . S
C14 C15 1.439 . S
C14 H46 0.950 . S
C15 N11 1.374 . S
C15 C14 1.439 . S
C15 C40 1.395 . S
N16 Co5 1.995 . S
N16 C17 1.376 . S
N16 C20 1.383 . S
C17 N16 1.376 . S
C17 C18 1.446 . S
C17 C40 1.391 . S
C18 C17 1.446 . S
C18 C19 1.339 . S
C18 H47 0.949 . S
C19 C18 1.339 . S
C19 C20 1.439 . S
C19 H48 0.950 . S
C20 N16 1.383 . S
C20 C19 1.439 . S
C20 C38 1.392 . S
N21 Co5 2.282 . S
N21 C24 1.332 . S
N21 C26 1.332 . S
C22 C23 1.386 . S
C22 C25 1.388 . S
C23 C22 1.386 . S
C23 C24 1.382 . S
C23 H49 0.950 . S
C24 N21 1.332 . S
C24 C23 1.382 . S
C24 H35 0.952 . S
C25 C22 1.388 . S
C25 C26 1.382 . S
C25 H50 0.950 . S
C26 N21 1.332 . S
C26 C25 1.382 . S
C26 H36 0.948 . S
N27 Co5 2.282 . S
N27 C31 1.332 . S
N27 C32 1.332 . S
C28 C29 1.388 . S
C28 C32 1.382 . S
C28 H51 0.950 . S
C29 C28 1.388 . S
C29 C30 1.386 . S
C30 C29 1.386 . S
C30 C31 1.382 . S
C30 H52 0.950 . S
C31 N27 1.332 . S
C31 C30 1.382 . S
C31 H33 0.952 . S
C32 N27 1.332 . S
C32 C28 1.382 . S
C32 H34 0.948 . S
H33 C31 0.952 . S
H34 C32 0.948 . S
H35 C24 0.952 . S
H36 C26 0.948 . S
C37 C3 1.395 . S
C37 C7 1.391 . S
C38 C0 1.389 . S
C38 C20 1.392 . S
C39 C10 1.392 . S
C39 C12 1.389 . S
C40 C15 1.395 . S
C40 C17 1.391 . S
H41 C1 0.951 . S
H42 C2 0.950 . S
H43 C8 0.949 . S
H44 C9 0.950 . S
H45 C13 0.951 . S
H46 C14 0.950 . S
H47 C18 0.949 . S
H48 C19 0.950 . S
H49 C23 0.950 . S
H50 C25 0.950 . S
H51 C28 0.950 . S
H52 C30 0.950 . S
C53 C54 1.443 . S
C53 N57 1.376 . S
C53 C91 1.389 . S
C54 C53 1.443 . S
C54 C55 1.340 . S
C54 H94 0.951 . S
C55 C54 1.340 . S
C55 C56 1.439 . S
C55 H95 0.950 . S
C56 C55 1.439 . S
C56 N57 1.374 . S
C56 C90 1.395 . S
N57 C53 1.376 . S
N57 C56 1.374 . S
N57 Co58 2.008 . S
Co58 N57 2.008 . S
Co58 N59 1.995 . S
Co58 N64 2.008 . S
Co58 N69 1.995 . S
Co58 N74 2.282 . S
Co58 N80 2.282 . S
N59 Co58 1.995 . S
N59 C60 1.376 . S
N59 C63 1.383 . S
C60 N59 1.376 . S
C60 C61 1.446 . S
C60 C90 1.391 . S
C61 C60 1.446 . S
C61 C62 1.339 . S
C61 H96 0.949 . S
C62 C61 1.339 . S
C62 C63 1.439 . S
C62 H97 0.950 . S
C63 N59 1.383 . S
C63 C62 1.439 . S
C63 C92 1.392 . S
N64 Co58 2.008 . S
N64 C65 1.376 . S
N64 C68 1.374 . S
C65 N64 1.376 . S
C65 C66 1.443 . S
C65 C92 1.389 . S
C66 C65 1.443 . S
C66 C67 1.340 . S
C66 H98 0.951 . S
C67 C66 1.340 . S
C67 C68 1.439 . S
C67 H99 0.950 . S
C68 N64 1.374 . S
C68 C67 1.439 . S
C68 C93 1.395 . S
N69 Co58 1.995 . S
N69 C70 1.376 . S
N69 C73 1.383 . S
C70 N69 1.376 . S
C70 C71 1.446 . S
C70 C93 1.391 . S
C71 C70 1.446 . S
C71 C72 1.339 . S
C71 H100 0.949 . S
C72 C71 1.339 . S
C72 C73 1.439 . S
C72 H101 0.950 . S
C73 N69 1.383 . S
C73 C72 1.439 . S
C73 C91 1.392 . S
N74 Co58 2.282 . S
N74 C77 1.332 . S
N74 C79 1.332 . S
C75 C76 1.386 . S
C75 C78 1.388 . S
C76 C75 1.386 . S
C76 C77 1.382 . S
C76 H102 0.950 . S
C77 N74 1.332 . S
C77 C76 1.382 . S
C77 H88 0.952 . S
C78 C75 1.388 . S
C78 C79 1.382 . S
C78 H103 0.950 . S
C79 N74 1.332 . S
C79 C78 1.382 . S
C79 H89 0.948 . S
N80 Co58 2.282 . S
N80 C84 1.332 . S
N80 C85 1.332 . S
C81 C82 1.388 . S
C81 C85 1.382 . S
C81 H104 0.950 . S
C82 C81 1.388 . S
C82 C83 1.386 . S
C83 C82 1.386 . S
C83 C84 1.382 . S
C83 H105 0.950 . S
C84 N80 1.332 . S
C84 C83 1.382 . S
C84 H86 0.952 . S
C85 N80 1.332 . S
C85 C81 1.382 . S
C85 H87 0.948 . S
H86 C84 0.952 . S
H87 C85 0.948 . S
H88 C77 0.952 . S
H89 C79 0.948 . S
C90 C56 1.395 . S
C90 C60 1.391 . S
C91 C53 1.389 . S
C91 C73 1.392 . S
C92 C63 1.392 . S
C92 C65 1.389 . S
C93 C68 1.395 . S
C93 C70 1.391 . S
H94 C54 0.951 . S
H95 C55 0.950 . S
H96 C61 0.949 . S
H97 C62 0.950 . S
H98 C66 0.951 . S
H99 C67 0.950 . S
H100 C71 0.949 . S
H101 C72 0.950 . S
H102 C76 0.950 . S
H103 C78 0.950 . S
H104 C81 0.950 . S
H105 C83 0.950 . S
C106 C107 1.443 . S
C106 N110 1.376 . S
C106 C144 1.389 . S
C107 C106 1.443 . S
C107 C108 1.340 . S
C107 H147 0.951 . S
C108 C107 1.340 . S
C108 C109 1.439 . S
C108 H148 0.950 . S
C109 C108 1.439 . S
C109 N110 1.374 . S
C109 C143 1.395 . S
N110 C106 1.376 . S
N110 C109 1.374 . S
N110 Co111 2.008 . S
Co111 N110 2.008 . S
Co111 N112 1.995 . S
Co111 N117 2.008 . S
Co111 N122 1.995 . S
Co111 N127 2.282 . S
Co111 N133 2.282 . S
N112 Co111 1.995 . S
N112 C113 1.376 . S
N112 C116 1.383 . S
C113 N112 1.376 . S
C113 C114 1.446 . S
C113 C143 1.391 . S
C114 C113 1.446 . S
C114 C115 1.339 . S
C114 H149 0.949 . S
C115 C114 1.339 . S
C115 C116 1.439 . S
C115 H150 0.950 . S
C116 N112 1.383 . S
C116 C115 1.439 . S
C116 C145 1.392 . S
N117 Co111 2.008 . S
N117 C118 1.376 . S
N117 C121 1.374 . S
C118 N117 1.376 . S
C118 C119 1.443 . S
C118 C145 1.389 . S
C119 C118 1.443 . S
C119 C120 1.340 . S
C119 H151 0.951 . S
C120 C119 1.340 . S
C120 C121 1.439 . S
C120 H152 0.950 . S
C121 N117 1.374 . S
C121 C120 1.439 . S
C121 C146 1.395 . S
N122 Co111 1.995 . S
N122 C123 1.376 . S
N122 C126 1.383 . S
C123 N122 1.376 . S
C123 C124 1.446 . S
C123 C146 1.391 . S
C124 C123 1.446 . S
C124 C125 1.339 . S
C124 H153 0.949 . S
C125 C124 1.339 . S
C125 C126 1.439 . S
C125 H154 0.950 . S
C126 N122 1.383 . S
C126 C125 1.439 . S
C126 C144 1.392 . S
N127 Co111 2.282 . S
N127 C130 1.332 . S
N127 C132 1.332 . S
C128 C129 1.386 . S
C128 C131 1.388 . S
C129 C128 1.386 . S
C129 C130 1.382 . S
C129 H155 0.950 . S
C130 N127 1.332 . S
C130 C129 1.382 . S
C130 H141 0.952 . S
C131 C128 1.388 . S
C131 C132 1.382 . S
C131 H156 0.950 . S
C132 N127 1.332 . S
C132 C131 1.382 . S
C132 H142 0.948 . S
N133 Co111 2.282 . S
N133 C137 1.332 . S
N133 C138 1.332 . S
C134 C135 1.388 . S
C134 C138 1.382 . S
C134 H157 0.950 . S
C135 C134 1.388 . S
C135 C136 1.386 . S
C136 C135 1.386 . S
C136 C137 1.382 . S
C136 H158 0.950 . S
C137 N133 1.332 . S
C137 C136 1.382 . S
C137 H139 0.952 . S
C138 N133 1.332 . S
C138 C134 1.382 . S
C138 H140 0.948 . S
H139 C137 0.952 . S
H140 C138 0.948 . S
H141 C130 0.952 . S
H142 C132 0.948 . S
C143 C109 1.395 . S
C143 C113 1.391 . S
C144 C106 1.389 . S
C144 C126 1.392 . S
C145 C116 1.392 . S
C145 C118 1.389 . S
C146 C121 1.395 . S
C146 C123 1.391 . S
H147 C107 0.951 . S
H148 C108 0.950 . S
H149 C114 0.949 . S
H150 C115 0.950 . S
H151 C119 0.951 . S
H152 C120 0.950 . S
H153 C124 0.949 . S
H154 C125 0.950 . S
H155 C129 0.950 . S
H156 C131 0.950 . S
H157 C134 0.950 . S
H158 C136 0.950 . S
C159 C160 1.443 . S
C159 N163 1.376 . S
C159 C197 1.389 . S
C160 C159 1.443 . S
C160 C161 1.340 . S
C160 H200 0.951 . S
C161 C160 1.340 . S
C161 C162 1.439 . S
C161 H201 0.950 . S
C162 C161 1.439 . S
C162 N163 1.374 . S
C162 C196 1.395 . S
N163 C159 1.376 . S
N163 C162 1.374 . S
N163 Co164 2.008 . S
Co164 N163 2.008 . S
Co164 N165 1.995 . S
Co164 N170 2.008 . S
Co164 N175 1.995 . S
Co164 N180 2.282 . S
Co164 N186 2.282 . S
N165 Co164 1.995 . S
N165 C166 1.376 . S
N165 C169 1.383 . S
C166 N165 1.376 . S
C166 C167 1.446 . S
C166 C196 1.391 . S
C167 C166 1.446 . S
C167 C168 1.339 . S
C167 H202 0.949 . S
C168 C167 1.339 . S
C168 C169 1.439 . S
C168 H203 0.950 . S
C169 N165 1.383 . S
C169 C168 1.439 . S
C169 C198 1.392 . S
N170 Co164 2.008 . S
N170 C171 1.376 . S
N170 C174 1.374 . S
C171 N170 1.376 . S
C171 C172 1.443 . S
C171 C198 1.389 . S
C172 C171 1.443 . S
C172 C173 1.340 . S
C172 H204 0.951 . S
C173 C172 1.340 . S
C173 C174 1.439 . S
C173 H205 0.950 . S
C174 N170 1.374 . S
C174 C173 1.439 . S
C174 C199 1.395 . S
N175 Co164 1.995 . S
N175 C176 1.376 . S
N175 C179 1.383 . S
C176 N175 1.376 . S
C176 C177 1.446 . S
C176 C199 1.391 . S
C177 C176 1.446 . S
C177 C178 1.339 . S
C177 H206 0.949 . S
C178 C177 1.339 . S
C178 C179 1.439 . S
C178 H207 0.950 . S
C179 N175 1.383 . S
C179 C178 1.439 . S
C179 C197 1.392 . S
N180 Co164 2.282 . S
N180 C183 1.332 . S
N180 C185 1.332 . S
C181 C182 1.386 . S
C181 C184 1.388 . S
C182 C181 1.386 . S
C182 C183 1.382 . S
C182 H208 0.950 . S
C183 N180 1.332 . S
C183 C182 1.382 . S
C183 H194 0.952 . S
C184 C181 1.388 . S
C184 C185 1.382 . S
C184 H209 0.950 . S
C185 N180 1.332 . S
C185 C184 1.382 . S
C185 H195 0.948 . S
N186 Co164 2.282 . S
N186 C190 1.332 . S
N186 C191 1.332 . S
C187 C188 1.388 . S
C187 C191 1.382 . S
C187 H210 0.950 . S
C188 C187 1.388 . S
C188 C189 1.386 . S
C189 C188 1.386 . S
C189 C190 1.382 . S
C189 H211 0.950 . S
C190 N186 1.332 . S
C190 C189 1.382 . S
C190 H192 0.952 . S
C191 N186 1.332 . S
C191 C187 1.382 . S
C191 H193 0.948 . S
H192 C190 0.952 . S
H193 C191 0.948 . S
H194 C183 0.952 . S
H195 C185 0.948 . S
C196 C162 1.395 . S
C196 C166 1.391 . S
C197 C159 1.389 . S
C197 C179 1.392 . S
C198 C169 1.392 . S
C198 C171 1.389 . S
C199 C174 1.395 . S
C199 C176 1.391 . S
H200 C160 0.951 . S
H201 C161 0.950 . S
H202 C167 0.949 . S
H203 C168 0.950 . S
H204 C172 0.951 . S
H205 C173 0.950 . S
H206 C177 0.949 . S
H207 C178 0.950 . S
H208 C182 0.950 . S
H209 C184 0.950 . S
H210 C187 0.950 . S
H211 C189 0.950 . S
C212 C213 1.443 . S
C212 N216 1.376 . S
C212 C250 1.389 . S
C213 C212 1.443 . S
C213 C214 1.340 . S
C213 H253 0.951 . S
C214 C213 1.340 . S
C214 C215 1.439 . S
C214 H254 0.950 . S
C215 C214 1.439 . S
C215 N216 1.374 . S
C215 C249 1.395 . S
N216 C212 1.376 . S
N216 C215 1.374 . S
N216 Co217 2.008 . S
Co217 N216 2.008 . S
Co217 N218 1.995 . S
Co217 N223 2.008 . S
Co217 N228 1.995 . S
Co217 N233 2.282 . S
Co217 N239 2.282 . S
N218 Co217 1.995 . S
N218 C219 1.376 . S
N218 C222 1.383 . S
C219 N218 1.376 . S
C219 C220 1.446 . S
C219 C249 1.391 . S
C220 C219 1.446 . S
C220 C221 1.339 . S
C220 H255 0.949 . S
C221 C220 1.339 . S
C221 C222 1.439 . S
C221 H256 0.950 . S
C222 N218 1.383 . S
C222 C221 1.439 . S
C222 C251 1.392 . S
N223 Co217 2.008 . S
N223 C224 1.376 . S
N223 C227 1.374 . S
C224 N223 1.376 . S
C224 C225 1.443 . S
C224 C251 1.389 . S
C225 C224 1.443 . S
C225 C226 1.340 . S
C225 H257 0.951 . S
C226 C225 1.340 . S
C226 C227 1.439 . S
C226 H258 0.950 . S
C227 N223 1.374 . S
C227 C226 1.439 . S
C227 C252 1.395 . S
N228 Co217 1.995 . S
N228 C229 1.376 . S
N228 C232 1.383 . S
C229 N228 1.376 . S
C229 C230 1.446 . S
C229 C252 1.391 . S
C230 C229 1.446 . S
C230 C231 1.339 . S
C230 H259 0.949 . S
C231 C230 1.339 . S
C231 C232 1.439 . S
C231 H260 0.950 . S
C232 N228 1.383 . S
C232 C231 1.439 . S
C232 C250 1.392 . S
N233 Co217 2.282 . S
N233 C236 1.332 . S
N233 C238 1.332 . S
C234 C235 1.386 . S
C234 C237 1.388 . S
C235 C234 1.386 . S
C235 C236 1.382 . S
C235 H261 0.950 . S
C236 N233 1.332 . S
C236 C235 1.382 . S
C236 H247 0.952 . S
C237 C234 1.388 . S
C237 C238 1.382 . S
C237 H262 0.950 . S
C238 N233 1.332 . S
C238 C237 1.382 . S
C238 H248 0.948 . S
N239 Co217 2.282 . S
N239 C243 1.332 . S
N239 C244 1.332 . S
C240 C241 1.388 . S
C240 C244 1.382 . S
C240 H263 0.950 . S
C241 C240 1.388 . S
C241 C242 1.386 . S
C242 C241 1.386 . S
C242 C243 1.382 . S
C242 H264 0.950 . S
C243 N239 1.332 . S
C243 C242 1.382 . S
C243 H245 0.952 . S
C244 N239 1.332 . S
C244 C240 1.382 . S
C244 H246 0.948 . S
H245 C243 0.952 . S
H246 C244 0.948 . S
H247 C236 0.952 . S
H248 C238 0.948 . S
C249 C215 1.395 . S
C249 C219 1.391 . S
C250 C212 1.389 . S
C250 C232 1.392 . S
C251 C222 1.392 . S
C251 C224 1.389 . S
C252 C227 1.395 . S
C252 C229 1.391 . S
H253 C213 0.951 . S
H254 C214 0.950 . S
H255 C220 0.949 . S
H256 C221 0.950 . S
H257 C225 0.951 . S
H258 C226 0.950 . S
H259 C230 0.949 . S
H260 C231 0.950 . S
H261 C235 0.950 . S
H262 C237 0.950 . S
H263 C240 0.950 . S
H264 C242 0.950 . S
C265 C266 1.443 . S
C265 N269 1.376 . S
C265 C303 1.389 . S
C266 C265 1.443 . S
C266 C267 1.340 . S
C266 H306 0.951 . S
C267 C266 1.340 . S
C267 C268 1.439 . S
C267 H307 0.950 . S
C268 C267 1.439 . S
C268 N269 1.374 . S
C268 C302 1.395 . S
N269 C265 1.376 . S
N269 C268 1.374 . S
N269 Co270 2.008 . S
Co270 N269 2.008 . S
Co270 N271 1.995 . S
Co270 N276 2.008 . S
Co270 N281 1.995 . S
Co270 N286 2.282 . S
Co270 N292 2.282 . S
N271 Co270 1.995 . S
N271 C272 1.376 . S
N271 C275 1.383 . S
C272 N271 1.376 . S
C272 C273 1.446 . S
C272 C302 1.391 . S
C273 C272 1.446 . S
C273 C274 1.339 . S
C273 H308 0.949 . S
C274 C273 1.339 . S
C274 C275 1.439 . S
C274 H309 0.950 . S
C275 N271 1.383 . S
C275 C274 1.439 . S
C275 C304 1.392 . S
N276 Co270 2.008 . S
N276 C277 1.376 . S
N276 C280 1.374 . S
C277 N276 1.376 . S
C277 C278 1.443 . S
C277 C304 1.389 . S
C278 C277 1.443 . S
C278 C279 1.340 . S
C278 H310 0.951 . S
C279 C278 1.340 . S
C279 C280 1.439 . S
C279 H311 0.950 . S
C280 N276 1.374 . S
C280 C279 1.439 . S
C280 C305 1.395 . S
N281 Co270 1.995 . S
N281 C282 1.376 . S
N281 C285 1.383 . S
C282 N281 1.376 . S
C282 C283 1.446 . S
C282 C305 1.391 . S
C283 C282 1.446 . S
C283 C284 1.339 . S
C283 H312 0.949 . S
C284 C283 1.339 . S
C284 C285 1.439 . S
C284 H313 0.950 . S
C285 N281 1.383 . S
C285 C284 1.439 . S
C285 C303 1.392 . S
N286 Co270 2.282 . S
N286 C289 1.332 . S
N286 C291 1.332 . S
C287 C288 1.386 . S
C287 C290 1.388 . S
C288 C287 1.386 . S
C288 C289 1.382 . S
C288 H314 0.950 . S
C289 N286 1.332 . S
C289 C288 1.382 . S
C289 H300 0.952 . S
C290 C287 1.388 . S
C290 C291 1.382 . S
C290 H315 0.950 . S
C291 N286 1.332 . S
C291 C290 1.382 . S
C291 H301 0.948 . S
N292 Co270 2.282 . S
N292 C296 1.332 . S
N292 C297 1.332 . S
C293 C294 1.388 . S
C293 C297 1.382 . S
C293 H316 0.950 . S
C294 C293 1.388 . S
C294 C295 1.386 . S
C295 C294 1.386 . S
C295 C296 1.382 . S
C295 H317 0.950 . S
C296 N292 1.332 . S
C296 C295 1.382 . S
C296 H298 0.952 . S
C297 N292 1.332 . S
C297 C293 1.382 . S
C297 H299 0.948 . S
H298 C296 0.952 . S
H299 C297 0.948 . S
H300 C289 0.952 . S
H301 C291 0.948 . S
C302 C268 1.395 . S
C302 C272 1.391 . S
C303 C265 1.389 . S
C303 C285 1.392 . S
C304 C275 1.392 . S
C304 C277 1.389 . S
C305 C280 1.395 . S
C305 C282 1.391 . S
H306 C266 0.951 . S
H307 C267 0.950 . S
H308 C273 0.949 . S
H309 C274 0.950 . S
H310 C278 0.951 . S
H311 C279 0.950 . S
H312 C283 0.949 . S
H313 C284 0.950 . S
H314 C288 0.950 . S
H315 C290 0.950 . S
H316 C293 0.950 . S
H317 C295 0.950 . S
C318 C319 1.443 . S
C318 N322 1.376 . S
C318 C356 1.389 . S
C319 C318 1.443 . S
C319 C320 1.340 . S
C319 H359 0.951 . S
C320 C319 1.340 . S
C320 C321 1.439 . S
C320 H360 0.950 . S
C321 C320 1.439 . S
C321 N322 1.374 . S
C321 C355 1.395 . S
N322 C318 1.376 . S
N322 C321 1.374 . S
N322 Co323 2.008 . S
Co323 N322 2.008 . S
Co323 N324 1.995 . S
Co323 N329 2.008 . S
Co323 N334 1.995 . S
Co323 N339 2.282 . S
Co323 N345 2.282 . S
N324 Co323 1.995 . S
N324 C325 1.376 . S
N324 C328 1.383 . S
C325 N324 1.376 . S
C325 C326 1.446 . S
C325 C355 1.391 . S
C326 C325 1.446 . S
C326 C327 1.339 . S
C326 H361 0.949 . S
C327 C326 1.339 . S
C327 C328 1.439 . S
C327 H362 0.950 . S
C328 N324 1.383 . S
C328 C327 1.439 . S
C328 C357 1.392 . S
N329 Co323 2.008 . S
N329 C330 1.376 . S
N329 C333 1.374 . S
C330 N329 1.376 . S
C330 C331 1.443 . S
C330 C357 1.389 . S
C331 C330 1.443 . S
C331 C332 1.340 . S
C331 H363 0.951 . S
C332 C331 1.340 . S
C332 C333 1.439 . S
C332 H364 0.950 . S
C333 N329 1.374 . S
C333 C332 1.439 . S
C333 C358 1.395 . S
N334 Co323 1.995 . S
N334 C335 1.376 . S
N334 C338 1.383 . S
C335 N334 1.376 . S
C335 C336 1.446 . S
C335 C358 1.391 . S
C336 C335 1.446 . S
C336 C337 1.339 . S
C336 H365 0.949 . S
C337 C336 1.339 . S
C337 C338 1.439 . S
C337 H366 0.950 . S
C338 N334 1.383 . S
C338 C337 1.439 . S
C338 C356 1.392 . S
N339 Co323 2.282 . S
N339 C342 1.332 . S
N339 C344 1.332 . S
C340 C341 1.386 . S
C340 C343 1.388 . S
C341 C340 1.386 . S
C341 C342 1.382 . S
C341 H367 0.950 . S
C342 N339 1.332 . S
C342 C341 1.382 . S
C342 H353 0.952 . S
C343 C340 1.388 . S
C343 C344 1.382 . S
C343 H368 0.950 . S
C344 N339 1.332 . S
C344 C343 1.382 . S
C344 H354 0.948 . S
N345 Co323 2.282 . S
N345 C349 1.332 . S
N345 C350 1.332 . S
C346 C347 1.388 . S
C346 C350 1.382 . S
C346 H369 0.950 . S
C347 C346 1.388 . S
C347 C348 1.386 . S
C348 C347 1.386 . S
C348 C349 1.382 . S
C348 H370 0.950 . S
C349 N345 1.332 . S
C349 C348 1.382 . S
C349 H351 0.952 . S
C350 N345 1.332 . S
C350 C346 1.382 . S
C350 H352 0.948 . S
H351 C349 0.952 . S
H352 C350 0.948 . S
H353 C342 0.952 . S
H354 C344 0.948 . S
C355 C321 1.395 . S
C355 C325 1.391 . S
C356 C318 1.389 . S
C356 C338 1.392 . S
C357 C328 1.392 . S
C357 C330 1.389 . S
C358 C333 1.395 . S
C358 C335 1.391 . S
H359 C319 0.951 . S
H360 C320 0.950 . S
H361 C326 0.949 . S
H362 C327 0.950 . S
H363 C331 0.951 . S
H364 C332 0.950 . S
H365 C336 0.949 . S
H366 C337 0.950 . S
H367 C341 0.950 . S
H368 C343 0.950 . S
H369 C346 0.950 . S
H370 C348 0.950 . S
C371 C372 1.443 . S
C371 N375 1.376 . S
C371 C409 1.389 . S
C372 C371 1.443 . S
C372 C373 1.340 . S
C372 H412 0.951 . S
C373 C372 1.340 . S
C373 C374 1.439 . S
C373 H413 0.950 . S
C374 C373 1.439 . S
C374 N375 1.374 . S
C374 C408 1.395 . S
N375 C371 1.376 . S
N375 C374 1.374 . S
N375 Co376 2.008 . S
Co376 N375 2.008 . S
Co376 N377 1.995 . S
Co376 N382 2.008 . S
Co376 N387 1.995 . S
Co376 N392 2.282 . S
Co376 N398 2.282 . S
N377 Co376 1.995 . S
N377 C378 1.376 . S
N377 C381 1.383 . S
C378 N377 1.376 . S
C378 C379 1.446 . S
C378 C408 1.391 . S
C379 C378 1.446 . S
C379 C380 1.339 . S
C379 H414 0.949 . S
C380 C379 1.339 . S
C380 C381 1.439 . S
C380 H415 0.950 . S
C381 N377 1.383 . S
C381 C380 1.439 . S
C381 C410 1.392 . S
N382 Co376 2.008 . S
N382 C383 1.376 . S
N382 C386 1.374 . S
C383 N382 1.376 . S
C383 C384 1.443 . S
C383 C410 1.389 . S
C384 C383 1.443 . S
C384 C385 1.340 . S
C384 H416 0.951 . S
C385 C384 1.340 . S
C385 C386 1.439 . S
C385 H417 0.950 . S
C386 N382 1.374 . S
C386 C385 1.439 . S
C386 C411 1.395 . S
N387 Co376 1.995 . S
N387 C388 1.376 . S
N387 C391 1.383 . S
C388 N387 1.376 . S
C388 C389 1.446 . S
C388 C411 1.391 . S
C389 C388 1.446 . S
C389 C390 1.339 . S
C389 H418 0.949 . S
C390 C389 1.339 . S
C390 C391 1.439 . S
C390 H419 0.950 . S
C391 N387 1.383 . S
C391 C390 1.439 . S
C391 C409 1.392 . S
N392 Co376 2.282 . S
N392 C395 1.332 . S
N392 C397 1.332 . S
C393 C394 1.386 . S
C393 C396 1.388 . S
C394 C393 1.386 . S
C394 C395 1.382 . S
C394 H420 0.950 . S
C395 N392 1.332 . S
C395 C394 1.382 . S
C395 H406 0.952 . S
C396 C393 1.388 . S
C396 C397 1.382 . S
C396 H421 0.950 . S
C397 N392 1.332 . S
C397 C396 1.382 . S
C397 H407 0.948 . S
N398 Co376 2.282 . S
N398 C402 1.332 . S
N398 C403 1.332 . S
C399 C400 1.388 . S
C399 C403 1.382 . S
C399 H422 0.950 . S
C400 C399 1.388 . S
C400 C401 1.386 . S
C401 C400 1.386 . S
C401 C402 1.382 . S
C401 H423 0.950 . S
C402 N398 1.332 . S
C402 C401 1.382 . S
C402 H404 0.952 . S
C403 N398 1.332 . S
C403 C399 1.382 . S
C403 H405 0.948 . S
H404 C402 0.952 . S
H405 C403 0.948 . S
H406 C395 0.952 . S
H407 C397 0.948 . S
C408 C374 1.395 . S
C408 C378 1.391 . S
C409 C371 1.389 . S
C409 C391 1.392 . S
C410 C381 1.392 . S
C410 C383 1.389 . S
C411 C386 1.395 . S
C411 C388 1.391 . S
H412 C372 0.951 . S
H413 C373 0.950 . S
H414 C379 0.949 . S
H415 C380 0.950 . S
H416 C384 0.951 . S
H417 C385 0.950 . S
H418 C389 0.949 . S
H419 C390 0.950 . S
H420 C394 0.950 . S
H421 C396 0.950 . S
H422 C399 0.950 . S
H423 C401 0.950 . S
C424 C425 1.443 . S
C424 N428 1.376 . S
C424 C462 1.389 . S
C425 C424 1.443 . S
C425 C426 1.340 . S
C425 H465 0.951 . S
C426 C425 1.340 . S
C426 C427 1.439 . S
C426 H466 0.950 . S
C427 C426 1.439 . S
C427 N428 1.374 . S
C427 C461 1.395 . S
N428 C424 1.376 . S
N428 C427 1.374 . S
N428 Co429 2.008 . S
Co429 N428 2.008 . S
Co429 N430 1.995 . S
Co429 N435 2.008 . S
Co429 N440 1.995 . S
Co429 N445 2.282 . S
Co429 N451 2.282 . S
N430 Co429 1.995 . S
N430 C431 1.376 . S
N430 C434 1.383 . S
C431 N430 1.376 . S
C431 C432 1.446 . S
C431 C461 1.391 . S
C432 C431 1.446 . S
C432 C433 1.339 . S
C432 H467 0.949 . S
C433 C432 1.339 . S
C433 C434 1.439 . S
C433 H468 0.950 . S
C434 N430 1.383 . S
C434 C433 1.439 . S
C434 C463 1.392 . S
N435 Co429 2.008 . S
N435 C436 1.376 . S
N435 C439 1.374 . S
C436 N435 1.376 . S
C436 C437 1.443 . S
C436 C463 1.389 . S
C437 C436 1.443 . S
C437 C438 1.340 . S
C437 H469 0.951 . S
C438 C437 1.340 . S
C438 C439 1.439 . S
C438 H470 0.950 . S
C439 N435 1.374 . S
C439 C438 1.439 . S
C439 C464 1.395 . S
N440 Co429 1.995 . S
N440 C441 1.376 . S
N440 C444 1.383 . S
C441 N440 1.376 . S
C441 C442 1.446 . S
C441 C464 1.391 . S
C442 C441 1.446 . S
C442 C443 1.339 . S
C442 H471 0.949 . S
C443 C442 1.339 . S
C443 C444 1.439 . S
C443 H472 0.950 . S
C444 N440 1.383 . S
C444 C443 1.439 . S
C444 C462 1.392 . S
N445 Co429 2.282 . S
N445 C448 1.332 . S
N445 C450 1.332 . S
C446 C447 1.386 . S
C446 C449 1.388 . S
C447 C446 1.386 . S
C447 C448 1.382 . S
C447 H473 0.950 . S
C448 N445 1.332 . S
C448 C447 1.382 . S
C448 H459 0.952 . S
C449 C446 1.388 . S
C449 C450 1.382 . S
C449 H474 0.950 . S
C450 N445 1.332 . S
C450 C449 1.382 . S
C450 H460 0.948 . S
N451 Co429 2.282 . S
N451 C455 1.332 . S
N451 C456 1.332 . S
C452 C453 1.388 . S
C452 C456 1.382 . S
C452 H475 0.950 . S
C453 C452 1.388 . S
C453 C454 1.386 . S
C454 C453 1.386 . S
C454 C455 1.382 . S
C454 H476 0.950 . S
C455 N451 1.332 . S
C455 C454 1.382 . S
C455 H457 0.952 . S
C456 N451 1.332 . S
C456 C452 1.382 . S
C456 H458 0.948 . S
H457 C455 0.952 . S
H458 C456 0.948 . S
H459 C448 0.952 . S
H460 C450 0.948 . S
C461 C427 1.395 . S
C461 C431 1.391 . S
C462 C424 1.389 . S
C462 C444 1.392 . S
C463 C434 1.392 . S
C463 C436 1.389 . S
C464 C439 1.395 . S
C464 C441 1.391 . S
H465 C425 0.951 . S
H466 C426 0.950 . S
H467 C432 0.949 . S
H468 C433 0.950 . S
H469 C437 0.951 . S
H470 C438 0.950 . S
H471 C442 0.949 . S
H472 C443 0.950 . S
H473 C447 0.950 . S
H474 C449 0.950 . S
H475 C452 0.950 . S
H476 C454 0.950 . S
C477 C478 1.443 . S
C477 N481 1.376 . S
C477 C515 1.389 . S
C478 C477 1.443 . S
C478 C479 1.340 . S
C478 H518 0.951 . S
C479 C478 1.340 . S
C479 C480 1.439 . S
C479 H519 0.950 . S
C480 C479 1.439 . S
C480 N481 1.374 . S
C480 C514 1.395 . S
N481 C477 1.376 . S
N481 C480 1.374 . S
N481 Co482 2.008 . S
Co482 N481 2.008 . S
Co482 N483 1.995 . S
Co482 N488 2.008 . S
Co482 N493 1.995 . S
Co482 N498 2.282 . S
Co482 N504 2.282 . S
N483 Co482 1.995 . S
N483 C484 1.376 . S
N483 C487 1.383 . S
C484 N483 1.376 . S
C484 C485 1.446 . S
C484 C514 1.391 . S
C485 C484 1.446 . S
C485 C486 1.339 . S
C485 H520 0.949 . S
C486 C485 1.339 . S
C486 C487 1.439 . S
C486 H521 0.950 . S
C487 N483 1.383 . S
C487 C486 1.439 . S
C487 C516 1.392 . S
N488 Co482 2.008 . S
N488 C489 1.376 . S
N488 C492 1.374 . S
C489 N488 1.376 . S
C489 C490 1.443 . S
C489 C516 1.389 . S
C490 C489 1.443 . S
C490 C491 1.340 . S
C490 H522 0.951 . S
C491 C490 1.340 . S
C491 C492 1.439 . S
C491 H523 0.950 . S
C492 N488 1.374 . S
C492 C491 1.439 . S
C492 C517 1.395 . S
N493 Co482 1.995 . S
N493 C494 1.376 . S
N493 C497 1.383 . S
C494 N493 1.376 . S
C494 C495 1.446 . S
C494 C517 1.391 . S
C495 C494 1.446 . S
C495 C496 1.339 . S
C495 H524 0.949 . S
C496 C495 1.339 . S
C496 C497 1.439 . S
C496 H525 0.950 . S
C497 N493 1.383 . S
C497 C496 1.439 . S
C497 C515 1.392 . S
N498 Co482 2.282 . S
N498 C501 1.332 . S
N498 C503 1.332 . S
C499 C500 1.386 . S
C499 C502 1.388 . S
C500 C499 1.386 . S
C500 C501 1.382 . S
C500 H526 0.950 . S
C501 N498 1.332 . S
C501 C500 1.382 . S
C501 H512 0.952 . S
C502 C499 1.388 . S
C502 C503 1.382 . S
C502 H527 0.950 . S
C503 N498 1.332 . S
C503 C502 1.382 . S
C503 H513 0.948 . S
N504 Co482 2.282 . S
N504 C508 1.332 . S
N504 C509 1.332 . S
C505 C506 1.388 . S
C505 C509 1.382 . S
C505 H528 0.950 . S
C506 C505 1.388 . S
C506 C507 1.386 . S
C507 C506 1.386 . S
C507 C508 1.382 . S
C507 H529 0.950 . S
C508 N504 1.332 . S
C508 C507 1.382 . S
C508 H510 0.952 . S
C509 N504 1.332 . S
C509 C505 1.382 . S
C509 H511 0.948 . S
H510 C508 0.952 . S
H511 C509 0.948 . S
H512 C501 0.952 . S
H513 C503 0.948 . S
C514 C480 1.395 . S
C514 C484 1.391 . S
C515 C477 1.389 . S
C515 C497 1.392 . S
C516 C487 1.392 . S
C516 C489 1.389 . S
C517 C492 1.395 . S
C517 C494 1.391 . S
H518 C478 0.951 . S
H519 C479 0.950 . S
H520 C485 0.949 . S
H521 C486 0.950 . S
H522 C490 0.951 . S
H523 C491 0.950 . S
H524 C495 0.949 . S
H525 C496 0.950 . S
H526 C500 0.950 . S
H527 C502 0.950 . S
H528 C505 0.950 . S
H529 C507 0.950 . S
C530 C531 1.443 . S
C530 N534 1.376 . S
C530 C568 1.389 . S
C531 C530 1.443 . S
C531 C532 1.340 . S
C531 H571 0.951 . S
C532 C531 1.340 . S
C532 C533 1.439 . S
C532 H572 0.950 . S
C533 C532 1.439 . S
C533 N534 1.374 . S
C533 C567 1.395 . S
N534 C530 1.376 . S
N534 C533 1.374 . S
N534 Co535 2.008 . S
Co535 N534 2.008 . S
Co535 N536 1.995 . S
Co535 N541 2.008 . S
Co535 N546 1.995 . S
Co535 N551 2.282 . S
Co535 N557 2.282 . S
N536 Co535 1.995 . S
N536 C537 1.376 . S
N536 C540 1.383 . S
C537 N536 1.376 . S
C537 C538 1.446 . S
C537 C567 1.391 . S
C538 C537 1.446 . S
C538 C539 1.339 . S
C538 H573 0.949 . S
C539 C538 1.339 . S
C539 C540 1.439 . S
C539 H574 0.950 . S
C540 N536 1.383 . S
C540 C539 1.439 . S
C540 C569 1.392 . S
N541 Co535 2.008 . S
N541 C542 1.376 . S
N541 C545 1.374 . S
C542 N541 1.376 . S
C542 C543 1.443 . S
C542 C569 1.389 . S
C543 C542 1.443 . S
C543 C544 1.340 . S
C543 H575 0.951 . S
C544 C543 1.340 . S
C544 C545 1.439 . S
C544 H576 0.950 . S
C545 N541 1.374 . S
C545 C544 1.439 . S
C545 C570 1.395 . S
N546 Co535 1.995 . S
N546 C547 1.376 . S
N546 C550 1.383 . S
C547 N546 1.376 . S
C547 C548 1.446 . S
C547 C570 1.391 . S
C548 C547 1.446 . S
C548 C549 1.339 . S
C548 H577 0.949 . S
C549 C548 1.339 . S
C549 C550 1.439 . S
C549 H578 0.950 . S
C550 N546 1.383 . S
C550 C549 1.439 . S
C550 C568 1.392 . S
N551 Co535 2.282 . S
N551 C554 1.332 . S
N551 C556 1.332 . S
C552 C553 1.386 . S
C552 C555 1.388 . S
C553 C552 1.386 . S
C553 C554 1.382 . S
C553 H579 0.950 . S
C554 N551 1.332 . S
C554 C553 1.382 . S
C554 H565 0.952 . S
C555 C552 1.388 . S
C555 C556 1.382 . S
C555 H580 0.950 . S
C556 N551 1.332 . S
C556 C555 1.382 . S
C556 H566 0.948 . S
N557 Co535 2.282 . S
N557 C561 1.332 . S
N557 C562 1.332 . S
C558 C559 1.388 . S
C558 C562 1.382 . S
C558 H581 0.950 . S
C559 C558 1.388 . S
C559 C560 1.386 . S
C560 C559 1.386 . S
C560 C561 1.382 . S
C560 H582 0.950 . S
C561 N557 1.332 . S
C561 C560 1.382 . S
C561 H563 0.952 . S
C562 N557 1.332 . S
C562 C558 1.382 . S
C562 H564 0.948 . S
H563 C561 0.952 . S
H564 C562 0.948 . S
H565 C554 0.952 . S
H566 C556 0.948 . S
C567 C533 1.395 . S
C567 C537 1.391 . S
C568 C530 1.389 . S
C568 C550 1.392 . S
C569 C540 1.392 . S
C569 C542 1.389 . S
C570 C545 1.395 . S
C570 C547 1.391 . S
H571 C531 0.951 . S
H572 C532 0.950 . S
H573 C538 0.949 . S
H574 C539 0.950 . S
H575 C543 0.951 . S
H576 C544 0.950 . S
H577 C548 0.949 . S
H578 C549 0.950 . S
H579 C553 0.950 . S
H580 C555 0.950 . S
H581 C558 0.950 . S
H582 C560 0.950 . S
C583 C584 1.443 . S
C583 N587 1.376 . S
C583 C621 1.389 . S
C584 C583 1.443 . S
C584 C585 1.340 . S
C584 H624 0.951 . S
C585 C584 1.340 . S
C585 C586 1.439 . S
C585 H625 0.950 . S
C586 C585 1.439 . S
C586 N587 1.374 . S
C586 C620 1.395 . S
N587 C583 1.376 . S
N587 C586 1.374 . S
N587 Co588 2.008 . S
Co588 N587 2.008 . S
Co588 N589 1.995 . S
Co588 N594 2.008 . S
Co588 N599 1.995 . S
Co588 N604 2.282 . S
Co588 N610 2.282 . S
N589 Co588 1.995 . S
N589 C590 1.376 . S
N589 C593 1.383 . S
C590 N589 1.376 . S
C590 C591 1.446 . S
C590 C620 1.391 . S
C591 C590 1.446 . S
C591 C592 1.339 . S
C591 H626 0.949 . S
C592 C591 1.339 . S
C592 C593 1.439 . S
C592 H627 0.950 . S
C593 N589 1.383 . S
C593 C592 1.439 . S
C593 C622 1.392 . S
N594 Co588 2.008 . S
N594 C595 1.376 . S
N594 C598 1.374 . S
C595 N594 1.376 . S
C595 C596 1.443 . S
C595 C622 1.389 . S
C596 C595 1.443 . S
C596 C597 1.340 . S
C596 H628 0.951 . S
C597 C596 1.340 . S
C597 C598 1.439 . S
C597 H629 0.950 . S
C598 N594 1.374 . S
C598 C597 1.439 . S
C598 C623 1.395 . S
N599 Co588 1.995 . S
N599 C600 1.376 . S
N599 C603 1.383 . S
C600 N599 1.376 . S
C600 C601 1.446 . S
C600 C623 1.391 . S
C601 C600 1.446 . S
C601 C602 1.339 . S
C601 H630 0.949 . S
C602 C601 1.339 . S
C602 C603 1.439 . S
C602 H631 0.950 . S
C603 N599 1.383 . S
C603 C602 1.439 . S
C603 C621 1.392 . S
N604 Co588 2.282 . S
N604 C607 1.332 . S
N604 C609 1.332 . S
C605 C606 1.386 . S
C605 C608 1.388 . S
C606 C605 1.386 . S
C606 C607 1.382 . S
C606 H632 0.950 . S
C607 N604 1.332 . S
C607 C606 1.382 . S
C607 H618 0.952 . S
C608 C605 1.388 . S
C608 C609 1.382 . S
C608 H633 0.950 . S
C609 N604 1.332 . S
C609 C608 1.382 . S
C609 H619 0.948 . S
N610 Co588 2.282 . S
N610 C614 1.332 . S
N610 C615 1.332 . S
C611 C612 1.388 . S
C611 C615 1.382 . S
C611 H634 0.950 . S
C612 C611 1.388 . S
C612 C613 1.386 . S
C613 C612 1.386 . S
C613 C614 1.382 . S
C613 H635 0.950 . S
C614 N610 1.332 . S
C614 C613 1.382 . S
C614 H616 0.952 . S
C615 N610 1.332 . S
C615 C611 1.382 . S
C615 H617 0.948 . S
H616 C614 0.952 . S
H617 C615 0.948 . S
H618 C607 0.952 . S
H619 C609 0.948 . S
C620 C586 1.395 . S
C620 C590 1.391 . S
C621 C583 1.389 . S
C621 C603 1.392 . S
C622 C593 1.392 . S
C622 C595 1.389 . S
C623 C598 1.395 . S
C623 C600 1.391 . S
H624 C584 0.951 . S
H625 C585 0.950 . S
H626 C591 0.949 . S
H627 C592 0.950 . S
H628 C596 0.951 . S
H629 C597 0.950 . S
H630 C601 0.949 . S
H631 C602 0.950 . S
H632 C606 0.950 . S
H633 C608 0.950 . S
H634 C611 0.950 . S
H635 C613 0.950 . S
H636 C644 0.929 . S
H637 C646 0.930 . S
H638 C648 0.930 . S
H639 C651 0.929 . S
H640 C654 0.930 . S
H641 C656 0.960 . S
H642 C656 0.960 . S
H643 C656 0.960 . S
C644 H636 0.929 . S
C644 C645 1.377 . S
C644 C646 1.384 . S
C645 C644 1.377 . S
C645 C651 1.390 . S
C646 H637 0.930 . S
C646 C644 1.384 . S
C646 C647 1.372 . S
C647 C646 1.372 . S
C647 C648 1.400 . S
C647 C652 1.490 . S
C648 H638 0.930 . S
C648 C647 1.400 . S
C648 C651 1.386 . S
H649 C665 0.930 . S
H650 C666 0.931 . S
C651 H639 0.929 . S
C651 C645 1.390 . S
C651 C648 1.386 . S
C652 C647 1.490 . S
C652 C654 1.395 . S
C652 C655 1.403 . S
H653 C659 0.930 . S
C654 H640 0.930 . S
C654 C652 1.395 . S
C654 C657 1.403 1_556 S
C655 C652 1.403 . S
C655 C656 1.524 . S
C655 C659 1.400 1_556 S
C656 H641 0.960 . S
C656 H642 0.960 . S
C656 H643 0.960 . S
C656 C655 1.524 . S
C657 C654 1.403 1_554 S
C657 C658 1.392 . S
C657 C661 1.495 . S
C658 C657 1.392 . S
C658 C659 1.385 . S
C658 C660 1.478 . S
C659 H653 0.930 . S
C659 C655 1.400 1_554 S
C659 C658 1.385 . S
C660 C658 1.478 . S
C660 C662 1.381 . S
C660 C666 1.383 . S
C661 C657 1.495 . S
C661 H667 0.959 . S
C661 H668 0.961 . S
C661 H669 0.960 . S
C662 C660 1.381 . S
C662 C663 1.394 . S
C662 H670 0.930 . S
C663 C662 1.394 . S
C663 C664 1.383 . S
C663 H671 0.929 . S
C664 C663 1.383 . S
C664 C665 1.377 . S
C665 H649 0.930 . S
C665 C664 1.377 . S
C665 C666 1.379 . S
C666 H650 0.931 . S
C666 C660 1.383 . S
C666 C665 1.379 . S
H667 C661 0.959 . S
H668 C661 0.961 . S
H669 C661 0.960 . S
H670 C662 0.930 . S
H671 C663 0.929 . S
H672 C680 0.929 . S
H673 C682 0.930 . S
H674 C684 0.930 . S
H675 C687 0.929 . S
H676 C690 0.930 . S
H677 C692 0.960 . S
H678 C692 0.960 . S
H679 C692 0.960 . S
C680 H672 0.929 . S
C680 C681 1.377 . S
C680 C682 1.384 . S
C681 C680 1.377 . S
C681 C687 1.390 . S
C682 H673 0.930 . S
C682 C680 1.384 . S
C682 C683 1.372 . S
C683 C682 1.372 . S
C683 C684 1.400 . S
C683 C688 1.490 . S
C684 H674 0.930 . S
C684 C683 1.400 . S
C684 C687 1.386 . S
H685 C701 0.930 . S
H686 C702 0.931 . S
C687 H675 0.929 . S
C687 C681 1.390 . S
C687 C684 1.386 . S
C688 C683 1.490 . S
C688 C690 1.395 . S
C688 C691 1.403 . S
H689 C695 0.930 . S
C690 H676 0.930 . S
C690 C688 1.395 . S
C690 C693 1.403 . S
C691 C688 1.403 . S
C691 C692 1.524 . S
C691 C695 1.400 . S
C692 H677 0.960 . S
C692 H678 0.960 . S
C692 H679 0.960 . S
C692 C691 1.524 . S
C693 C690 1.403 . S
C693 C694 1.392 . S
C693 C697 1.495 . S
C694 C693 1.392 . S
C694 C695 1.385 . S
C694 C696 1.478 . S
C695 H689 0.930 . S
C695 C691 1.400 . S
C695 C694 1.385 . S
C696 C694 1.478 . S
C696 C698 1.381 . S
C696 C702 1.383 . S
C697 C693 1.495 . S
C697 H703 0.959 . S
C697 H704 0.961 . S
C697 H705 0.960 . S
C698 C696 1.381 . S
C698 C699 1.394 . S
C698 H706 0.930 . S
C699 C698 1.394 . S
C699 C700 1.383 . S
C699 H707 0.929 . S
C700 C699 1.383 . S
C700 C701 1.377 . S
C701 H685 0.930 . S
C701 C700 1.377 . S
C701 C702 1.379 . S
C702 H686 0.931 . S
C702 C696 1.383 . S
C702 C701 1.379 . S
H703 C697 0.959 . S
H704 C697 0.961 . S
H705 C697 0.960 . S
H706 C698 0.930 . S
H707 C699 0.929 . S
H708 C716 0.929 . S
H709 C718 0.930 . S
H710 C720 0.930 . S
H711 C723 0.929 . S
H712 C726 0.930 . S
H713 C728 0.960 . S
H714 C728 0.960 . S
H715 C728 0.960 . S
C716 H708 0.929 . S
C716 C717 1.377 . S
C716 C718 1.384 . S
C717 C716 1.377 . S
C717 C723 1.390 . S
C718 H709 0.930 . S
C718 C716 1.384 . S
C718 C719 1.372 . S
C719 C718 1.372 . S
C719 C720 1.400 . S
C719 C724 1.490 . S
C720 H710 0.930 . S
C720 C719 1.400 . S
C720 C723 1.386 . S
H721 C737 0.930 . S
H722 C738 0.931 . S
C723 H711 0.929 . S
C723 C717 1.390 . S
C723 C720 1.386 . S
C724 C719 1.490 . S
C724 C726 1.395 . S
C724 C727 1.403 . S
H725 C731 0.930 . S
C726 H712 0.930 . S
C726 C724 1.395 . S
C726 C729 1.403 . S
C727 C724 1.403 . S
C727 C728 1.524 . S
C727 C731 1.400 . S
C728 H713 0.960 . S
C728 H714 0.960 . S
C728 H715 0.960 . S
C728 C727 1.524 . S
C729 C726 1.403 . S
C729 C730 1.392 . S
C729 C733 1.495 . S
C730 C729 1.392 . S
C730 C731 1.385 . S
C730 C732 1.478 . S
C731 H725 0.930 . S
C731 C727 1.400 . S
C731 C730 1.385 . S
C732 C730 1.478 . S
C732 C734 1.381 . S
C732 C738 1.383 . S
C733 C729 1.495 . S
C733 H739 0.959 . S
C733 H740 0.961 . S
C733 H741 0.960 . S
C734 C732 1.381 . S
C734 C735 1.394 . S
C734 H742 0.930 . S
C735 C734 1.394 . S
C735 C736 1.383 . S
C735 H743 0.929 . S
C736 C735 1.383 . S
C736 C737 1.377 . S
C737 H721 0.930 . S
C737 C736 1.377 . S
C737 C738 1.379 . S
C738 H722 0.931 . S
C738 C732 1.383 . S
C738 C737 1.379 . S
H739 C733 0.959 . S
H740 C733 0.961 . S
H741 C733 0.960 . S
H742 C734 0.930 . S
H743 C735 0.929 . S
H744 C752 0.929 . S
H745 C754 0.930 . S
H746 C756 0.930 . S
H747 C759 0.929 . S
H748 C762 0.930 . S
H749 C764 0.960 . S
H750 C764 0.960 . S
H751 C764 0.960 . S
C752 H744 0.929 . S
C752 C753 1.377 . S
C752 C754 1.384 . S
C753 C752 1.377 . S
C753 C759 1.390 . S
C754 H745 0.930 . S
C754 C752 1.384 . S
C754 C755 1.372 . S
C755 C754 1.372 . S
C755 C756 1.400 . S
C755 C760 1.490 . S
C756 H746 0.930 . S
C756 C755 1.400 . S
C756 C759 1.386 . S
H757 C773 0.930 . S
H758 C774 0.931 . S
C759 H747 0.929 . S
C759 C753 1.390 . S
C759 C756 1.386 . S
C760 C755 1.490 . S
C760 C762 1.395 . S
C760 C763 1.403 . S
H761 C767 0.930 . S
C762 H748 0.930 . S
C762 C760 1.395 . S
C762 C765 1.403 1_554 S
C763 C760 1.403 . S
C763 C764 1.524 . S
C763 C767 1.400 1_554 S
C764 H749 0.960 . S
C764 H750 0.960 . S
C764 H751 0.960 . S
C764 C763 1.524 . S
C765 C762 1.403 1_556 S
C765 C766 1.392 . S
C765 C769 1.495 . S
C766 C765 1.392 . S
C766 C767 1.385 . S
C766 C768 1.478 . S
C767 H761 0.930 . S
C767 C763 1.400 1_556 S
C767 C766 1.385 . S
C768 C766 1.478 . S
C768 C770 1.381 . S
C768 C774 1.383 . S
C769 C765 1.495 . S
C769 H775 0.959 . S
C769 H776 0.961 . S
C769 H777 0.960 . S
C770 C768 1.381 . S
C770 C771 1.394 . S
C770 H778 0.930 . S
C771 C770 1.394 . S
C771 C772 1.383 . S
C771 H779 0.929 . S
C772 C771 1.383 . S
C772 C773 1.377 . S
C773 H757 0.930 . S
C773 C772 1.377 . S
C773 C774 1.379 . S
C774 H758 0.931 . S
C774 C768 1.383 . S
C774 C773 1.379 . S
H775 C769 0.959 . S
H776 C769 0.961 . S
H777 C769 0.960 . S
H778 C770 0.930 . S
H779 C771 0.929 . S
H780 C788 0.929 . S
H781 C790 0.930 . S
H782 C792 0.930 . S
H783 C795 0.929 . S
H784 C798 0.930 . S
H785 C800 0.960 . S
H786 C800 0.960 . S
H787 C800 0.960 . S
C788 H780 0.929 . S
C788 C789 1.377 . S
C788 C790 1.384 . S
C789 C788 1.377 . S
C789 C795 1.390 . S
C790 H781 0.930 . S
C790 C788 1.384 . S
C790 C791 1.372 . S
C791 C790 1.372 . S
C791 C792 1.400 . S
C791 C796 1.490 . S
C792 H782 0.930 . S
C792 C791 1.400 . S
C792 C795 1.386 . S
H793 C809 0.930 . S
H794 C810 0.931 . S
C795 H783 0.929 . S
C795 C789 1.390 . S
C795 C792 1.386 . S
C796 C791 1.490 . S
C796 C798 1.395 . S
C796 C799 1.403 . S
H797 C803 0.930 . S
C798 H784 0.930 . S
C798 C796 1.395 . S
C798 C801 1.403 . S
C799 C796 1.403 . S
C799 C800 1.524 . S
C799 C803 1.400 . S
C800 H785 0.960 . S
C800 H786 0.960 . S
C800 H787 0.960 . S
C800 C799 1.524 . S
C801 C798 1.403 . S
C801 C802 1.392 . S
C801 C805 1.495 . S
C802 C801 1.392 . S
C802 C803 1.385 . S
C802 C804 1.478 . S
C803 H797 0.930 . S
C803 C799 1.400 . S
C803 C802 1.385 . S
C804 C802 1.478 . S
C804 C806 1.381 . S
C804 C810 1.383 . S
C805 C801 1.495 . S
C805 H811 0.959 . S
C805 H812 0.961 . S
C805 H813 0.960 . S
C806 C804 1.381 . S
C806 C807 1.394 . S
C806 H814 0.930 . S
C807 C806 1.394 . S
C807 C808 1.383 . S
C807 H815 0.929 . S
C808 C807 1.383 . S
C808 C809 1.377 . S
C809 H793 0.930 . S
C809 C808 1.377 . S
C809 C810 1.379 . S
C810 H794 0.931 . S
C810 C804 1.383 . S
C810 C809 1.379 . S
H811 C805 0.959 . S
H812 C805 0.961 . S
H813 C805 0.960 . S
H814 C806 0.930 . S
H815 C807 0.929 . S
H816 C824 0.929 . S
H817 C826 0.930 . S
H818 C828 0.930 . S
H819 C831 0.929 . S
H820 C834 0.930 . S
H821 C836 0.960 . S
H822 C836 0.960 . S
H823 C836 0.960 . S
C824 H816 0.929 . S
C824 C825 1.377 . S
C824 C826 1.384 . S
C825 C824 1.377 . S
C825 C831 1.390 . S
C826 H817 0.930 . S
C826 C824 1.384 . S
C826 C827 1.372 . S
C827 C826 1.372 . S
C827 C828 1.400 . S
C827 C832 1.490 . S
C828 H818 0.930 . S
C828 C827 1.400 . S
C828 C831 1.386 . S
H829 C845 0.930 . S
H830 C846 0.931 . S
C831 H819 0.929 . S
C831 C825 1.390 . S
C831 C828 1.386 . S
C832 C827 1.490 . S
C832 C834 1.395 . S
C832 C835 1.403 . S
H833 C839 0.930 . S
C834 H820 0.930 . S
C834 C832 1.395 . S
C834 C837 1.403 . S
C835 C832 1.403 . S
C835 C836 1.524 . S
C835 C839 1.400 . S
C836 H821 0.960 . S
C836 H822 0.960 . S
C836 H823 0.960 . S
C836 C835 1.524 . S
C837 C834 1.403 . S
C837 C838 1.392 . S
C837 C841 1.495 . S
C838 C837 1.392 . S
C838 C839 1.385 . S
C838 C840 1.478 . S
C839 H833 0.930 . S
C839 C835 1.400 . S
C839 C838 1.385 . S
C840 C838 1.478 . S
C840 C842 1.381 . S
C840 C846 1.383 . S
C841 C837 1.495 . S
C841 H847 0.959 . S
C841 H848 0.961 . S
C841 H849 0.960 . S
C842 C840 1.381 . S
C842 C843 1.394 . S
C842 H850 0.930 . S
C843 C842 1.394 . S
C843 C844 1.383 . S
C843 H851 0.929 . S
C844 C843 1.383 . S
C844 C845 1.377 . S
C845 H829 0.930 . S
C845 C844 1.377 . S
C845 C846 1.379 . S
C846 H830 0.931 . S
C846 C840 1.383 . S
C846 C845 1.379 . S
H847 C841 0.959 . S
H848 C841 0.961 . S
H849 C841 0.960 . S
H850 C842 0.930 . S
H851 C843 0.929 . S
H852 C860 0.929 . S
H853 C862 0.930 . S
H854 C864 0.930 . S
H855 C867 0.929 . S
H856 C870 0.930 . S
H857 C872 0.960 . S
H858 C872 0.960 . S
H859 C872 0.960 . S
C860 H852 0.929 . S
C860 C861 1.377 . S
C860 C862 1.384 . S
C861 C860 1.377 . S
C861 C867 1.390 . S
C862 H853 0.930 . S
C862 C860 1.384 . S
C862 C863 1.372 . S
C863 C862 1.372 . S
C863 C864 1.400 . S
C863 C868 1.490 . S
C864 H854 0.930 . S
C864 C863 1.400 . S
C864 C867 1.386 . S
H865 C881 0.930 . S
H866 C882 0.931 . S
C867 H855 0.929 . S
C867 C861 1.390 . S
C867 C864 1.386 . S
C868 C863 1.490 . S
C868 C870 1.395 . S
C868 C871 1.403 . S
H869 C875 0.930 . S
C870 H856 0.930 . S
C870 C868 1.395 . S
C870 C873 1.403 . S
C871 C868 1.403 . S
C871 C872 1.524 . S
C871 C875 1.400 . S
C872 H857 0.960 . S
C872 H858 0.960 . S
C872 H859 0.960 . S
C872 C871 1.524 . S
C873 C870 1.403 . S
C873 C874 1.392 . S
C873 C877 1.495 . S
C874 C873 1.392 . S
C874 C875 1.385 . S
C874 C876 1.478 . S
C875 H869 0.930 . S
C875 C871 1.400 . S
C875 C874 1.385 . S
C876 C874 1.478 . S
C876 C878 1.381 . S
C876 C882 1.383 . S
C877 C873 1.495 . S
C877 H883 0.959 . S
C877 H884 0.961 . S
C877 H885 0.960 . S
C878 C876 1.381 . S
C878 C879 1.394 . S
C878 H886 0.930 . S
C879 C878 1.394 . S
C879 C880 1.383 . S
C879 H887 0.929 . S
C880 C879 1.383 . S
C880 C881 1.377 . S
C881 H865 0.930 . S
C881 C880 1.377 . S
C881 C882 1.379 . S
C882 H866 0.931 . S
C882 C876 1.383 . S
C882 C881 1.379 . S
H883 C877 0.959 . S
H884 C877 0.961 . S
H885 C877 0.960 . S
H886 C878 0.930 . S
H887 C879 0.929 . S
H888 C896 0.929 . S
H889 C898 0.930 . S
H890 C900 0.930 . S
H891 C903 0.929 . S
H892 C906 0.930 . S
H893 C908 0.960 . S
H894 C908 0.960 . S
H895 C908 0.960 . S
C896 H888 0.929 . S
C896 C897 1.377 . S
C896 C898 1.384 . S
C897 C896 1.377 . S
C897 C903 1.390 . S
C898 H889 0.930 . S
C898 C896 1.384 . S
C898 C899 1.372 . S
C899 C898 1.372 . S
C899 C900 1.400 . S
C899 C904 1.490 . S
C900 H890 0.930 . S
C900 C899 1.400 . S
C900 C903 1.386 . S
H901 C917 0.930 . S
H902 C918 0.931 . S
C903 H891 0.929 . S
C903 C897 1.390 . S
C903 C900 1.386 . S
C904 C899 1.490 . S
C904 C906 1.395 . S
C904 C907 1.403 . S
H905 C911 0.930 . S
C906 H892 0.930 . S
C906 C904 1.395 . S
C906 C909 1.403 . S
C907 C904 1.403 . S
C907 C908 1.524 . S
C907 C911 1.400 . S
C908 H893 0.960 . S
C908 H894 0.960 . S
C908 H895 0.960 . S
C908 C907 1.524 . S
C909 C906 1.403 . S
C909 C910 1.392 . S
C909 C913 1.495 . S
C910 C909 1.392 . S
C910 C911 1.385 . S
C910 C912 1.478 . S
C911 H905 0.930 . S
C911 C907 1.400 . S
C911 C910 1.385 . S
C912 C910 1.478 . S
C912 C914 1.381 . S
C912 C918 1.383 . S
C913 C909 1.495 . S
C913 H919 0.959 . S
C913 H920 0.961 . S
C913 H921 0.960 . S
C914 C912 1.381 . S
C914 C915 1.394 . S
C914 H922 0.930 . S
C915 C914 1.394 . S
C915 C916 1.383 . S
C915 H923 0.929 . S
C916 C915 1.383 . S
C916 C917 1.377 . S
C917 H901 0.930 . S
C917 C916 1.377 . S
C917 C918 1.379 . S
C918 H902 0.931 . S
C918 C912 1.383 . S
C918 C917 1.379 . S
H919 C913 0.959 . S
H920 C913 0.961 . S
H921 C913 0.960 . S
H922 C914 0.930 . S
H923 C915 0.929 . S
H924 C932 0.929 . S
H925 C934 0.930 . S
H926 C936 0.930 . S
H927 C939 0.929 . S
H928 C942 0.930 . S
H929 C944 0.960 . S
H930 C944 0.960 . S
H931 C944 0.960 . S
C932 H924 0.929 . S
C932 C933 1.377 . S
C932 C934 1.384 . S
C933 C932 1.377 . S
C933 C939 1.390 . S
C934 H925 0.930 . S
C934 C932 1.384 . S
C934 C935 1.372 . S
C935 C934 1.372 . S
C935 C936 1.400 . S
C935 C940 1.490 . S
C936 H926 0.930 . S
C936 C935 1.400 . S
C936 C939 1.386 . S
H937 C953 0.930 . S
H938 C954 0.931 . S
C939 H927 0.929 . S
C939 C933 1.390 . S
C939 C936 1.386 . S
C940 C935 1.490 . S
C940 C942 1.395 . S
C940 C943 1.403 . S
H941 C947 0.930 . S
C942 H928 0.930 . S
C942 C940 1.395 . S
C942 C945 1.403 . S
C943 C940 1.403 . S
C943 C944 1.524 . S
C943 C947 1.400 . S
C944 H929 0.960 . S
C944 H930 0.960 . S
C944 H931 0.960 . S
C944 C943 1.524 . S
C945 C942 1.403 . S
C945 C946 1.392 . S
C945 C949 1.495 . S
C946 C945 1.392 . S
C946 C947 1.385 . S
C946 C948 1.478 . S
C947 H941 0.930 . S
C947 C943 1.400 . S
C947 C946 1.385 . S
C948 C946 1.478 . S
C948 C950 1.381 . S
C948 C954 1.383 . S
C949 C945 1.495 . S
C949 H955 0.959 . S
C949 H956 0.961 . S
C949 H957 0.960 . S
C950 C948 1.381 . S
C950 C951 1.394 . S
C950 H958 0.930 . S
C951 C950 1.394 . S
C951 C952 1.383 . S
C951 H959 0.929 . S
C952 C951 1.383 . S
C952 C953 1.377 . S
C953 H937 0.930 . S
C953 C952 1.377 . S
C953 C954 1.379 . S
C954 H938 0.931 . S
C954 C948 1.383 . S
C954 C953 1.379 . S
H955 C949 0.959 . S
H956 C949 0.961 . S
H957 C949 0.960 . S
H958 C950 0.930 . S
H959 C951 0.929 . S
H960 C968 0.929 . S
H961 C970 0.930 . S
H962 C972 0.930 . S
H963 C975 0.929 . S
H964 C978 0.930 . S
H965 C980 0.960 . S
H966 C980 0.960 . S
H967 C980 0.960 . S
C968 H960 0.929 . S
C968 C969 1.377 . S
C968 C970 1.384 . S
C969 C968 1.377 . S
C969 C975 1.390 . S
C970 H961 0.930 . S
C970 C968 1.384 . S
C970 C971 1.372 . S
C971 C970 1.372 . S
C971 C972 1.400 . S
C971 C976 1.490 . S
C972 H962 0.930 . S
C972 C971 1.400 . S
C972 C975 1.386 . S
H973 C989 0.930 . S
H974 C990 0.931 . S
C975 H963 0.929 . S
C975 C969 1.390 . S
C975 C972 1.386 . S
C976 C971 1.490 . S
C976 C978 1.395 . S
C976 C979 1.403 . S
H977 C983 0.930 . S
C978 H964 0.930 . S
C978 C976 1.395 . S
C978 C981 1.403 . S
C979 C976 1.403 . S
C979 C980 1.524 . S
C979 C983 1.400 . S
C980 H965 0.960 . S
C980 H966 0.960 . S
C980 H967 0.960 . S
C980 C979 1.524 . S
C981 C978 1.403 . S
C981 C982 1.392 . S
C981 C985 1.495 . S
C982 C981 1.392 . S
C982 C983 1.385 . S
C982 C984 1.478 . S
C983 H977 0.930 . S
C983 C979 1.400 . S
C983 C982 1.385 . S
C984 C982 1.478 . S
C984 C986 1.381 . S
C984 C990 1.383 . S
C985 C981 1.495 . S
C985 H991 0.959 . S
C985 H992 0.961 . S
C985 H993 0.960 . S
C986 C984 1.381 . S
C986 C987 1.394 . S
C986 H994 0.930 . S
C987 C986 1.394 . S
C987 C988 1.383 . S
C987 H995 0.929 . S
C988 C987 1.383 . S
C988 C989 1.377 . S
C989 H973 0.930 . S
C989 C988 1.377 . S
C989 C990 1.379 . S
C990 H974 0.931 . S
C990 C984 1.383 . S
C990 C989 1.379 . S
H991 C985 0.959 . S
H992 C985 0.961 . S
H993 C985 0.960 . S
H994 C986 0.930 . S
H995 C987 0.929 . S
H996 C1004 0.929 . S
H997 C1006 0.930 . S
H998 C1008 0.930 . S
H999 C1011 0.929 . S
H1000 C1014 0.930 . S
H1001 C1016 0.960 . S
H1002 C1016 0.960 . S
H1003 C1016 0.960 . S
C1004 H996 0.929 . S
C1004 C1005 1.377 . S
C1004 C1006 1.384 . S
C1005 C1004 1.377 . S
C1005 C1011 1.390 . S
C1006 H997 0.930 . S
C1006 C1004 1.384 . S
C1006 C1007 1.372 . S
C1007 C1006 1.372 . S
C1007 C1008 1.400 . S
C1007 C1012 1.490 . S
C1008 H998 0.930 . S
C1008 C1007 1.400 . S
C1008 C1011 1.386 . S
H1009 C1025 0.930 . S
H1010 C1026 0.931 . S
C1011 H999 0.929 . S
C1011 C1005 1.390 . S
C1011 C1008 1.386 . S
C1012 C1007 1.490 . S
C1012 C1014 1.395 . S
C1012 C1015 1.403 . S
H1013 C1019 0.930 . S
C1014 H1000 0.930 . S
C1014 C1012 1.395 . S
C1014 C1017 1.403 . S
C1015 C1012 1.403 . S
C1015 C1016 1.524 . S
C1015 C1019 1.400 . S
C1016 H1001 0.960 . S
C1016 H1002 0.960 . S
C1016 H1003 0.960 . S
C1016 C1015 1.524 . S
C1017 C1014 1.403 . S
C1017 C1018 1.392 . S
C1017 C1021 1.495 . S
C1018 C1017 1.392 . S
C1018 C1019 1.385 . S
C1018 C1020 1.478 . S
C1019 H1013 0.930 . S
C1019 C1015 1.400 . S
C1019 C1018 1.385 . S
C1020 C1018 1.478 . S
C1020 C1022 1.381 . S
C1020 C1026 1.383 . S
C1021 C1017 1.495 . S
C1021 H1027 0.959 . S
C1021 H1028 0.961 . S
C1021 H1029 0.960 . S
C1022 C1020 1.381 . S
C1022 C1023 1.394 . S
C1022 H1030 0.930 . S
C1023 C1022 1.394 . S
C1023 C1024 1.383 . S
C1023 H1031 0.929 . S
C1024 C1023 1.383 . S
C1024 C1025 1.377 . S
C1025 H1009 0.930 . S
C1025 C1024 1.377 . S
C1025 C1026 1.379 . S
C1026 H1010 0.931 . S
C1026 C1020 1.383 . S
C1026 C1025 1.379 . S
H1027 C1021 0.959 . S
H1028 C1021 0.961 . S
H1029 C1021 0.960 . S
H1030 C1022 0.930 . S
H1031 C1023 0.929 . S
H1032 C1040 0.929 . S
H1033 C1042 0.930 . S
H1034 C1044 0.930 . S
H1035 C1047 0.929 . S
H1036 C1050 0.930 . S
H1037 C1052 0.960 . S
H1038 C1052 0.960 . S
H1039 C1052 0.960 . S
C1040 H1032 0.929 . S
C1040 C1041 1.377 . S
C1040 C1042 1.384 . S
C1041 C1040 1.377 . S
C1041 C1047 1.390 . S
C1042 H1033 0.930 . S
C1042 C1040 1.384 . S
C1042 C1043 1.372 . S
C1043 C1042 1.372 . S
C1043 C1044 1.400 . S
C1043 C1048 1.490 . S
C1044 H1034 0.930 . S
C1044 C1043 1.400 . S
C1044 C1047 1.386 . S
H1045 C1061 0.930 . S
H1046 C1062 0.931 . S
C1047 H1035 0.929 . S
C1047 C1041 1.390 . S
C1047 C1044 1.386 . S
C1048 C1043 1.490 . S
C1048 C1050 1.395 . S
C1048 C1051 1.403 . S
H1049 C1055 0.930 . S
C1050 H1036 0.930 . S
C1050 C1048 1.395 . S
C1050 C1053 1.403 . S
C1051 C1048 1.403 . S
C1051 C1052 1.524 . S
C1051 C1055 1.400 . S
C1052 H1037 0.960 . S
C1052 H1038 0.960 . S
C1052 H1039 0.960 . S
C1052 C1051 1.524 . S
C1053 C1050 1.403 . S
C1053 C1054 1.392 . S
C1053 C1057 1.495 . S
C1054 C1053 1.392 . S
C1054 C1055 1.385 . S
C1054 C1056 1.478 . S
C1055 H1049 0.930 . S
C1055 C1051 1.400 . S
C1055 C1054 1.385 . S
C1056 C1054 1.478 . S
C1056 C1058 1.381 . S
C1056 C1062 1.383 . S
C1057 C1053 1.495 . S
C1057 H1063 0.959 . S
C1057 H1064 0.961 . S
C1057 H1065 0.960 . S
C1058 C1056 1.381 . S
C1058 C1059 1.394 . S
C1058 H1066 0.930 . S
C1059 C1058 1.394 . S
C1059 C1060 1.383 . S
C1059 H1067 0.929 . S
C1060 C1059 1.383 . S
C1060 C1061 1.377 . S
C1061 H1045 0.930 . S
C1061 C1060 1.377 . S
C1061 C1062 1.379 . S
C1062 H1046 0.931 . S
C1062 C1056 1.383 . S
C1062 C1061 1.379 . S
H1063 C1057 0.959 . S
H1064 C1057 0.961 . S
H1065 C1057 0.960 . S
H1066 C1058 0.930 . S
H1067 C1059 0.929 . S
H1068 C1076 0.929 . S
H1069 C1078 0.930 . S
H1070 C1080 0.930 . S
H1071 C1083 0.929 . S
H1072 C1086 0.930 . S
H1073 C1088 0.960 . S
H1074 C1088 0.960 . S
H1075 C1088 0.960 . S
C1076 H1068 0.929 . S
C1076 C1077 1.377 . S
C1076 C1078 1.384 . S
C1077 C1076 1.377 . S
C1077 C1083 1.390 . S
C1078 H1069 0.930 . S
C1078 C1076 1.384 . S
C1078 C1079 1.372 . S
C1079 C1078 1.372 . S
C1079 C1080 1.400 . S
C1079 C1084 1.490 . S
C1080 H1070 0.930 . S
C1080 C1079 1.400 . S
C1080 C1083 1.386 . S
H1081 C1097 0.930 . S
H1082 C1098 0.931 . S
C1083 H1071 0.929 . S
C1083 C1077 1.390 . S
C1083 C1080 1.386 . S
C1084 C1079 1.490 . S
C1084 C1086 1.395 . S
C1084 C1087 1.403 . S
H1085 C1091 0.930 . S
C1086 H1072 0.930 . S
C1086 C1084 1.395 . S
C1086 C1089 1.403 1_655 S
C1087 C1084 1.403 . S
C1087 C1088 1.524 . S
C1087 C1091 1.400 1_655 S
C1088 H1073 0.960 . S
C1088 H1074 0.960 . S
C1088 H1075 0.960 . S
C1088 C1087 1.524 . S
C1089 C1086 1.403 1_455 S
C1089 C1090 1.392 . S
C1089 C1093 1.495 . S
C1090 C1089 1.392 . S
C1090 C1091 1.385 . S
C1090 C1092 1.478 . S
C1091 H1085 0.930 . S
C1091 C1087 1.400 1_455 S
C1091 C1090 1.385 . S
C1092 C1090 1.478 . S
C1092 C1094 1.381 . S
C1092 C1098 1.383 . S
C1093 C1089 1.495 . S
C1093 H1099 0.959 . S
C1093 H1100 0.961 . S
C1093 H1101 0.960 . S
C1094 C1092 1.381 . S
C1094 C1095 1.394 . S
C1094 H1102 0.930 . S
C1095 C1094 1.394 . S
C1095 C1096 1.383 . S
C1095 H1103 0.929 . S
C1096 C1095 1.383 . S
C1096 C1097 1.377 . S
C1097 H1081 0.930 . S
C1097 C1096 1.377 . S
C1097 C1098 1.379 . S
C1098 H1082 0.931 . S
C1098 C1092 1.383 . S
C1098 C1097 1.379 . S
H1099 C1093 0.959 . S
H1100 C1093 0.961 . S
H1101 C1093 0.960 . S
H1102 C1094 0.930 . S
H1103 C1095 0.929 . S
H1104 C1112 0.929 . S
H1105 C1114 0.930 . S
H1106 C1116 0.930 . S
H1107 C1119 0.929 . S
H1108 C1122 0.930 . S
H1109 C1124 0.960 . S
H1110 C1124 0.960 . S
H1111 C1124 0.960 . S
C1112 H1104 0.929 . S
C1112 C1113 1.377 . S
C1112 C1114 1.384 . S
C1113 C1112 1.377 . S
C1113 C1119 1.390 . S
C1114 H1105 0.930 . S
C1114 C1112 1.384 . S
C1114 C1115 1.372 . S
C1115 C1114 1.372 . S
C1115 C1116 1.400 . S
C1115 C1120 1.490 . S
C1116 H1106 0.930 . S
C1116 C1115 1.400 . S
C1116 C1119 1.386 . S
H1117 C1133 0.930 . S
H1118 C1134 0.931 . S
C1119 H1107 0.929 . S
C1119 C1113 1.390 . S
C1119 C1116 1.386 . S
C1120 C1115 1.490 . S
C1120 C1122 1.395 . S
C1120 C1123 1.403 . S
H1121 C1127 0.930 . S
C1122 H1108 0.930 . S
C1122 C1120 1.395 . S
C1122 C1125 1.403 1_545 S
C1123 C1120 1.403 . S
C1123 C1124 1.524 . S
C1123 C1127 1.400 1_545 S
C1124 H1109 0.960 . S
C1124 H1110 0.960 . S
C1124 H1111 0.960 . S
C1124 C1123 1.524 . S
C1125 C1122 1.403 1_565 S
C1125 C1126 1.392 . S
C1125 C1129 1.495 . S
C1126 C1125 1.392 . S
C1126 C1127 1.385 . S
C1126 C1128 1.478 . S
C1127 H1121 0.930 . S
C1127 C1123 1.400 1_565 S
C1127 C1126 1.385 . S
C1128 C1126 1.478 . S
C1128 C1130 1.381 . S
C1128 C1134 1.383 . S
C1129 C1125 1.495 . S
C1129 H1135 0.959 . S
C1129 H1136 0.961 . S
C1129 H1137 0.960 . S
C1130 C1128 1.381 . S
C1130 C1131 1.394 . S
C1130 H1138 0.930 . S
C1131 C1130 1.394 . S
C1131 C1132 1.383 . S
C1131 H1139 0.929 . S
C1132 C1131 1.383 . S
C1132 C1133 1.377 . S
C1133 H1117 0.930 . S
C1133 C1132 1.377 . S
C1133 C1134 1.379 . S
C1134 H1118 0.931 . S
C1134 C1128 1.383 . S
C1134 C1133 1.379 . S
H1135 C1129 0.959 . S
H1136 C1129 0.961 . S
H1137 C1129 0.960 . S
H1138 C1130 0.930 . S
H1139 C1131 0.929 . S
H1140 C1148 0.929 . S
H1141 C1150 0.930 . S
H1142 C1152 0.930 . S
H1143 C1155 0.929 . S
H1144 C1158 0.930 . S
H1145 C1160 0.960 . S
H1146 C1160 0.960 . S
H1147 C1160 0.960 . S
C1148 H1140 0.929 . S
C1148 C1149 1.377 . S
C1148 C1150 1.384 . S
C1149 C1148 1.377 . S
C1149 C1155 1.390 . S
C1150 H1141 0.930 . S
C1150 C1148 1.384 . S
C1150 C1151 1.372 . S
C1151 C1150 1.372 . S
C1151 C1152 1.400 . S
C1151 C1156 1.490 . S
C1152 H1142 0.930 . S
C1152 C1151 1.400 . S
C1152 C1155 1.386 . S
H1153 C1169 0.930 . S
H1154 C1170 0.931 . S
C1155 H1143 0.929 . S
C1155 C1149 1.390 . S
C1155 C1152 1.386 . S
C1156 C1151 1.490 . S
C1156 C1158 1.395 . S
C1156 C1159 1.403 . S
H1157 C1163 0.930 . S
C1158 H1144 0.930 . S
C1158 C1156 1.395 . S
C1158 C1161 1.403 . S
C1159 C1156 1.403 . S
C1159 C1160 1.524 . S
C1159 C1163 1.400 . S
C1160 H1145 0.960 . S
C1160 H1146 0.960 . S
C1160 H1147 0.960 . S
C1160 C1159 1.524 . S
C1161 C1158 1.403 . S
C1161 C1162 1.392 . S
C1161 C1165 1.495 . S
C1162 C1161 1.392 . S
C1162 C1163 1.385 . S
C1162 C1164 1.478 . S
C1163 H1157 0.930 . S
C1163 C1159 1.400 . S
C1163 C1162 1.385 . S
C1164 C1162 1.478 . S
C1164 C1166 1.381 . S
C1164 C1170 1.383 . S
C1165 C1161 1.495 . S
C1165 H1171 0.959 . S
C1165 H1172 0.961 . S
C1165 H1173 0.960 . S
C1166 C1164 1.381 . S
C1166 C1167 1.394 . S
C1166 H1174 0.930 . S
C1167 C1166 1.394 . S
C1167 C1168 1.383 . S
C1167 H1175 0.929 . S
C1168 C1167 1.383 . S
C1168 C1169 1.377 . S
C1169 H1153 0.930 . S
C1169 C1168 1.377 . S
C1169 C1170 1.379 . S
C1170 H1154 0.931 . S
C1170 C1164 1.383 . S
C1170 C1169 1.379 . S
H1171 C1165 0.959 . S
H1172 C1165 0.961 . S
H1173 C1165 0.960 . S
H1174 C1166 0.930 . S
H1175 C1167 0.929 . S
H1176 C1184 0.929 . S
H1177 C1186 0.930 . S
H1178 C1188 0.930 . S
H1179 C1191 0.929 . S
H1180 C1194 0.930 . S
H1181 C1196 0.932 1_565 S
H1182 C1196 0.982 . S
H1183 C1196 0.985 . S
C1184 H1176 0.929 . S
C1184 C1185 1.377 . S
C1184 C1186 1.384 . S
C1185 C1184 1.377 . S
C1185 C1191 1.390 . S
C1186 H1177 0.930 . S
C1186 C1184 1.384 . S
C1186 C1187 1.372 . S
C1187 C1186 1.372 . S
C1187 C1188 1.400 . S
C1187 C1192 1.490 . S
C1188 H1178 0.930 . S
C1188 C1187 1.400 . S
C1188 C1191 1.386 . S
H1189 C1205 0.930 . S
H1190 C1206 0.931 . S
C1191 H1179 0.929 . S
C1191 C1185 1.390 . S
C1191 C1188 1.386 . S
C1192 C1187 1.490 . S
C1192 C1194 1.395 . S
C1192 C1195 1.403 . S
H1193 C1199 0.930 . S
C1194 H1180 0.930 . S
C1194 C1192 1.395 . S
C1194 C1197 1.390 1_545 S
C1195 C1192 1.403 . S
C1195 C1196 1.507 . S
C1195 C1199 1.400 1_545 S
C1196 H1181 0.932 1_545 S
C1196 H1182 0.982 . S
C1196 H1183 0.985 . S
C1196 C1195 1.507 . S
C1197 C1194 1.390 1_565 S
C1197 C1198 1.400 . S
C1197 C1201 1.497 . S
C1198 C1197 1.400 . S
C1198 C1199 1.385 . S
C1198 C1200 1.478 . S
C1199 H1193 0.930 . S
C1199 C1195 1.400 1_565 S
C1199 C1198 1.385 . S
C1200 C1198 1.478 . S
C1200 C1202 1.381 . S
C1200 C1206 1.383 . S
C1201 C1197 1.497 . S
C1201 H1207 0.952 1_565 S
C1201 H1208 0.967 . S
C1201 H1209 0.966 . S
C1202 C1200 1.381 . S
C1202 C1203 1.394 . S
C1202 H1210 0.930 . S
C1203 C1202 1.394 . S
C1203 C1204 1.383 . S
C1203 H1211 0.929 . S
C1204 C1203 1.383 . S
C1204 C1205 1.377 . S
C1205 H1189 0.930 . S
C1205 C1204 1.377 . S
C1205 C1206 1.379 . S
C1206 H1190 0.931 . S
C1206 C1200 1.383 . S
C1206 C1205 1.379 . S
H1207 C1201 0.952 1_545 S
H1208 C1201 0.967 . S
H1209 C1201 0.966 . S
H1210 C1202 0.930 . S
H1211 C1203 0.929 . S
H1212 C1220 0.929 . S
H1213 C1222 0.930 . S
H1214 C1224 0.930 . S
H1215 C1227 0.929 . S
H1216 C1230 0.930 . S
H1217 C1232 0.960 . S
H1218 C1232 0.960 . S
H1219 C1232 0.960 . S
C1220 H1212 0.929 . S
C1220 C1221 1.377 . S
C1220 C1222 1.384 . S
C1221 C1220 1.377 . S
C1221 C1227 1.390 . S
C1222 H1213 0.930 . S
C1222 C1220 1.384 . S
C1222 C1223 1.372 . S
C1223 C1222 1.372 . S
C1223 C1224 1.400 . S
C1223 C1228 1.490 . S
C1224 H1214 0.930 . S
C1224 C1223 1.400 . S
C1224 C1227 1.386 . S
H1225 C1241 0.930 . S
H1226 C1242 0.931 . S
C1227 H1215 0.929 . S
C1227 C1221 1.390 . S
C1227 C1224 1.386 . S
C1228 C1223 1.490 . S
C1228 C1230 1.395 . S
C1228 C1231 1.403 . S
H1229 C1235 0.930 . S
C1230 H1216 0.930 . S
C1230 C1228 1.395 . S
C1230 C1233 1.403 . S
C1231 C1228 1.403 . S
C1231 C1232 1.524 . S
C1231 C1235 1.400 . S
C1232 H1217 0.960 . S
C1232 H1218 0.960 . S
C1232 H1219 0.960 . S
C1232 C1231 1.524 . S
C1233 C1230 1.403 . S
C1233 C1234 1.392 . S
C1233 C1237 1.495 . S
C1234 C1233 1.392 . S
C1234 C1235 1.385 . S
C1234 C1236 1.478 . S
C1235 H1229 0.930 . S
C1235 C1231 1.400 . S
C1235 C1234 1.385 . S
C1236 C1234 1.478 . S
C1236 C1238 1.381 . S
C1236 C1242 1.383 . S
C1237 C1233 1.495 . S
C1237 H1243 0.959 . S
C1237 H1244 0.961 . S
C1237 H1245 0.960 . S
C1238 C1236 1.381 . S
C1238 C1239 1.394 . S
C1238 H1246 0.930 . S
C1239 C1238 1.394 . S
C1239 C1240 1.383 . S
C1239 H1247 0.929 . S
C1240 C1239 1.383 . S
C1240 C1241 1.377 . S
C1241 H1225 0.930 . S
C1241 C1240 1.377 . S
C1241 C1242 1.379 . S
C1242 H1226 0.931 . S
C1242 C1236 1.383 . S
C1242 C1241 1.379 . S
H1243 C1237 0.959 . S
H1244 C1237 0.961 . S
H1245 C1237 0.960 . S
H1246 C1238 0.930 . S
H1247 C1239 0.929 . S
H1248 C1256 0.929 . S
H1249 C1258 0.930 . S
H1250 C1260 0.930 . S
H1251 C1263 0.929 . S
H1252 C1266 0.930 . S
H1253 C1268 0.960 . S
H1254 C1268 0.960 . S
H1255 C1268 0.960 . S
C1256 H1248 0.929 . S
C1256 C1257 1.377 . S
C1256 C1258 1.384 . S
C1257 C1256 1.377 . S
C1257 C1263 1.390 . S
C1258 H1249 0.930 . S
C1258 C1256 1.384 . S
C1258 C1259 1.372 . S
C1259 C1258 1.372 . S
C1259 C1260 1.400 . S
C1259 C1264 1.490 . S
C1260 H1250 0.930 . S
C1260 C1259 1.400 . S
C1260 C1263 1.386 . S
H1261 C1277 0.930 . S
H1262 C1278 0.931 . S
C1263 H1251 0.929 . S
C1263 C1257 1.390 . S
C1263 C1260 1.386 . S
C1264 C1259 1.490 . S
C1264 C1266 1.395 . S
C1264 C1267 1.403 . S
H1265 C1271 0.930 . S
C1266 H1252 0.930 . S
C1266 C1264 1.395 . S
C1266 C1269 1.403 1_455 S
C1267 C1264 1.403 . S
C1267 C1268 1.524 . S
C1267 C1271 1.400 1_455 S
C1268 H1253 0.960 . S
C1268 H1254 0.960 . S
C1268 H1255 0.960 . S
C1268 C1267 1.524 . S
C1269 C1266 1.403 1_655 S
C1269 C1270 1.392 . S
C1269 C1273 1.495 . S
C1270 C1269 1.392 . S
C1270 C1271 1.385 . S
C1270 C1272 1.478 . S
C1271 H1265 0.930 . S
C1271 C1267 1.400 1_655 S
C1271 C1270 1.385 . S
C1272 C1270 1.478 . S
C1272 C1274 1.381 . S
C1272 C1278 1.383 . S
C1273 C1269 1.495 . S
C1273 H1279 0.959 . S
C1273 H1280 0.961 . S
C1273 H1281 0.960 . S
C1274 C1272 1.381 . S
C1274 C1275 1.394 . S
C1274 H1282 0.930 . S
C1275 C1274 1.394 . S
C1275 C1276 1.383 . S
C1275 H1283 0.929 . S
C1276 C1275 1.383 . S
C1276 C1277 1.377 . S
C1277 H1261 0.930 . S
C1277 C1276 1.377 . S
C1277 C1278 1.379 . S
C1278 H1262 0.931 . S
C1278 C1272 1.383 . S
C1278 C1277 1.379 . S
H1279 C1273 0.959 . S
H1280 C1273 0.961 . S
H1281 C1273 0.960 . S
H1282 C1274 0.930 . S
H1283 C1275 0.929 . S
H1284 C1292 0.929 . S
H1285 C1294 0.930 . S
H1286 C1296 0.930 . S
H1287 C1299 0.929 . S
H1288 C1302 0.930 . S
H1289 C1304 0.960 . S
H1290 C1304 0.960 . S
H1291 C1304 0.960 . S
C1292 H1284 0.929 . S
C1292 C1293 1.377 . S
C1292 C1294 1.384 . S
C1293 C1292 1.377 . S
C1293 C1299 1.390 . S
C1294 H1285 0.930 . S
C1294 C1292 1.384 . S
C1294 C1295 1.372 . S
C1295 C1294 1.372 . S
C1295 C1296 1.400 . S
C1295 C1300 1.490 . S
C1296 H1286 0.930 . S
C1296 C1295 1.400 . S
C1296 C1299 1.386 . S
H1297 C1313 0.930 . S
H1298 C1314 0.931 . S
C1299 H1287 0.929 . S
C1299 C1293 1.390 . S
C1299 C1296 1.386 . S
C1300 C1295 1.490 . S
C1300 C1302 1.395 . S
C1300 C1303 1.403 . S
H1301 C1307 0.930 . S
C1302 H1288 0.930 . S
C1302 C1300 1.395 . S
C1302 C1305 1.403 . S
C1303 C1300 1.403 . S
C1303 C1304 1.524 . S
C1303 C1307 1.400 . S
C1304 H1289 0.960 . S
C1304 H1290 0.960 . S
C1304 H1291 0.960 . S
C1304 C1303 1.524 . S
C1305 C1302 1.403 . S
C1305 C1306 1.392 . S
C1305 C1309 1.495 . S
C1306 C1305 1.392 . S
C1306 C1307 1.385 . S
C1306 C1308 1.478 . S
C1307 H1301 0.930 . S
C1307 C1303 1.400 . S
C1307 C1306 1.385 . S
C1308 C1306 1.478 . S
C1308 C1310 1.381 . S
C1308 C1314 1.383 . S
C1309 C1305 1.495 . S
C1309 H1315 0.959 . S
C1309 H1316 0.961 . S
C1309 H1317 0.960 . S
C1310 C1308 1.381 . S
C1310 C1311 1.394 . S
C1310 H1318 0.930 . S
C1311 C1310 1.394 . S
C1311 C1312 1.383 . S
C1311 H1319 0.929 . S
C1312 C1311 1.383 . S
C1312 C1313 1.377 . S
C1313 H1297 0.930 . S
C1313 C1312 1.377 . S
C1313 C1314 1.379 . S
C1314 H1298 0.931 . S
C1314 C1308 1.383 . S
C1314 C1313 1.379 . S
H1315 C1309 0.959 . S
H1316 C1309 0.961 . S
H1317 C1309 0.960 . S
H1318 C1310 0.930 . S
H1319 C1311 0.929 . S
H1320 C1328 0.929 . S
H1321 C1330 0.930 . S
H1322 C1332 0.930 . S
H1323 C1335 0.929 . S
H1324 C1338 0.930 . S
H1325 C1340 0.960 . S
H1326 C1340 0.960 . S
H1327 C1340 0.960 . S
C1328 H1320 0.929 . S
C1328 C1329 1.377 . S
C1328 C1330 1.384 . S
C1329 C1328 1.377 . S
C1329 C1335 1.390 . S
C1330 H1321 0.930 . S
C1330 C1328 1.384 . S
C1330 C1331 1.372 . S
C1331 C1330 1.372 . S
C1331 C1332 1.400 . S
C1331 C1336 1.490 . S
C1332 H1322 0.930 . S
C1332 C1331 1.400 . S
C1332 C1335 1.386 . S
H1333 C1349 0.930 . S
H1334 C1350 0.931 . S
C1335 H1323 0.929 . S
C1335 C1329 1.390 . S
C1335 C1332 1.386 . S
C1336 C1331 1.490 . S
C1336 C1338 1.395 . S
C1336 C1339 1.403 . S
H1337 C1343 0.930 . S
C1338 H1324 0.930 . S
C1338 C1336 1.395 . S
C1338 C1341 1.403 1_655 S
C1339 C1336 1.403 . S
C1339 C1340 1.524 . S
C1339 C1343 1.400 1_655 S
C1340 H1325 0.960 . S
C1340 H1326 0.960 . S
C1340 H1327 0.960 . S
C1340 C1339 1.524 . S
C1341 C1338 1.403 1_455 S
C1341 C1342 1.392 . S
C1341 C1345 1.495 . S
C1342 C1341 1.392 . S
C1342 C1343 1.385 . S
C1342 C1344 1.478 . S
C1343 H1337 0.930 . S
C1343 C1339 1.400 1_455 S
C1343 C1342 1.385 . S
C1344 C1342 1.478 . S
C1344 C1346 1.381 . S
C1344 C1350 1.383 . S
C1345 C1341 1.495 . S
C1345 H1351 0.959 . S
C1345 H1352 0.961 . S
C1345 H1353 0.960 . S
C1346 C1344 1.381 . S
C1346 C1347 1.394 . S
C1346 H1354 0.930 . S
C1347 C1346 1.394 . S
C1347 C1348 1.383 . S
C1347 H1355 0.929 . S
C1348 C1347 1.383 . S
C1348 C1349 1.377 . S
C1349 H1333 0.930 . S
C1349 C1348 1.377 . S
C1349 C1350 1.379 . S
C1350 H1334 0.931 . S
C1350 C1344 1.383 . S
C1350 C1349 1.379 . S
H1351 C1345 0.959 . S
H1352 C1345 0.961 . S
H1353 C1345 0.960 . S
H1354 C1346 0.930 . S
H1355 C1347 0.929 . S
H1356 C1364 0.929 . S
H1357 C1366 0.930 . S
H1358 C1368 0.930 . S
H1359 C1371 0.929 . S
H1360 C1374 0.930 . S
H1361 C1376 0.960 . S
H1362 C1376 0.960 1_545 S
H1363 C1376 0.960 1_545 S
C1364 H1356 0.929 . S
C1364 C1365 1.377 . S
C1364 C1366 1.384 . S
C1365 C1364 1.377 . S
C1365 C1371 1.390 . S
C1366 H1357 0.930 . S
C1366 C1364 1.384 . S
C1366 C1367 1.372 . S
C1367 C1366 1.372 . S
C1367 C1368 1.400 . S
C1367 C1372 1.490 . S
C1368 H1358 0.930 . S
C1368 C1367 1.400 . S
C1368 C1371 1.386 . S
H1369 C1385 0.930 . S
H1370 C1386 0.931 . S
C1371 H1359 0.929 . S
C1371 C1365 1.390 . S
C1371 C1368 1.386 . S
C1372 C1367 1.490 . S
C1372 C1374 1.395 . S
C1372 C1375 1.399 1_545 S
H1373 C1379 0.930 . S
C1374 H1360 0.930 . S
C1374 C1372 1.395 . S
C1374 C1377 1.403 . S
C1375 C1372 1.399 1_565 S
C1375 C1376 1.521 . S
C1375 C1379 1.406 . S
C1376 H1361 0.960 . S
C1376 H1362 0.960 1_565 S
C1376 H1363 0.960 1_565 S
C1376 C1375 1.521 . S
C1377 C1374 1.403 . S
C1377 C1378 1.392 1_545 S
C1377 C1381 1.495 . S
C1378 C1377 1.392 1_565 S
C1378 C1379 1.385 . S
C1378 C1380 1.478 . S
C1379 H1373 0.930 . S
C1379 C1375 1.406 . S
C1379 C1378 1.385 . S
C1380 C1378 1.478 . S
C1380 C1382 1.381 . S
C1380 C1386 1.383 . S
C1381 C1377 1.495 . S
C1381 H1387 0.959 . S
C1381 H1388 0.961 1_545 S
C1381 H1389 0.960 1_545 S
C1382 C1380 1.381 . S
C1382 C1383 1.394 . S
C1382 H1390 0.930 . S
C1383 C1382 1.394 . S
C1383 C1384 1.383 . S
C1383 H1391 0.929 . S
C1384 C1383 1.383 . S
C1384 C1385 1.377 . S
C1385 H1369 0.930 . S
C1385 C1384 1.377 . S
C1385 C1386 1.379 . S
C1386 H1370 0.931 . S
C1386 C1380 1.383 . S
C1386 C1385 1.379 . S
H1387 C1381 0.959 . S
H1388 C1381 0.961 1_565 S
H1389 C1381 0.960 1_565 S
H1390 C1382 0.930 . S
H1391 C1383 0.929 . S
H1392 C1400 0.929 . S
H1393 C1402 0.930 . S
H1394 C1404 0.930 . S
H1395 C1407 0.929 . S
H1396 C1410 0.930 . S
H1397 C1412 0.960 . S
H1398 C1412 0.960 . S
H1399 C1412 0.960 . S
C1400 H1392 0.929 . S
C1400 C1401 1.377 . S
C1400 C1402 1.384 . S
C1401 C1400 1.377 . S
C1401 C1407 1.390 . S
C1402 H1393 0.930 . S
C1402 C1400 1.384 . S
C1402 C1403 1.372 . S
C1403 C1402 1.372 . S
C1403 C1404 1.400 . S
C1403 C1408 1.490 . S
C1404 H1394 0.930 . S
C1404 C1403 1.400 . S
C1404 C1407 1.386 . S
H1405 C1421 0.930 . S
H1406 C1422 0.931 . S
C1407 H1395 0.929 . S
C1407 C1401 1.390 . S
C1407 C1404 1.386 . S
C1408 C1403 1.490 . S
C1408 C1410 1.395 . S
C1408 C1411 1.403 . S
H1409 C1415 0.930 . S
C1410 H1396 0.930 . S
C1410 C1408 1.395 . S
C1410 C1413 1.403 . S
C1411 C1408 1.403 . S
C1411 C1412 1.524 . S
C1411 C1415 1.400 . S
C1412 H1397 0.960 . S
C1412 H1398 0.960 . S
C1412 H1399 0.960 . S
C1412 C1411 1.524 . S
C1413 C1410 1.403 . S
C1413 C1414 1.392 . S
C1413 C1417 1.495 . S
C1414 C1413 1.392 . S
C1414 C1415 1.385 . S
C1414 C1416 1.478 . S
C1415 H1409 0.930 . S
C1415 C1411 1.400 . S
C1415 C1414 1.385 . S
C1416 C1414 1.478 . S
C1416 C1418 1.381 . S
C1416 C1422 1.383 . S
C1417 C1413 1.495 . S
C1417 H1423 0.959 . S
C1417 H1424 0.961 . S
C1417 H1425 0.960 . S
C1418 C1416 1.381 . S
C1418 C1419 1.394 . S
C1418 H1426 0.930 . S
C1419 C1418 1.394 . S
C1419 C1420 1.383 . S
C1419 H1427 0.929 . S
C1420 C1419 1.383 . S
C1420 C1421 1.377 . S
C1421 H1405 0.930 . S
C1421 C1420 1.377 . S
C1421 C1422 1.379 . S
C1422 H1406 0.931 . S
C1422 C1416 1.383 . S
C1422 C1421 1.379 . S
H1423 C1417 0.959 . S
H1424 C1417 0.961 . S
H1425 C1417 0.960 . S
H1426 C1418 0.930 . S
H1427 C1419 0.929 . S
H1428 C1436 0.929 . S
H1429 C1438 0.930 . S
H1430 C1440 0.930 . S
H1431 C1443 0.929 . S
H1432 C1446 0.930 . S
H1433 C1448 0.960 1_655 S
H1434 C1448 0.960 . S
H1435 C1448 0.960 . S
C1436 H1428 0.929 . S
C1436 C1437 1.377 . S
C1436 C1438 1.384 . S
C1437 C1436 1.377 . S
C1437 C1443 1.390 . S
C1438 H1429 0.930 . S
C1438 C1436 1.384 . S
C1438 C1439 1.372 . S
C1439 C1438 1.372 . S
C1439 C1440 1.400 . S
C1439 C1444 1.490 . S
C1440 H1430 0.930 . S
C1440 C1439 1.400 . S
C1440 C1443 1.386 . S
H1441 C1457 0.930 . S
H1442 C1458 0.931 . S
C1443 H1431 0.929 . S
C1443 C1437 1.390 . S
C1443 C1440 1.386 . S
C1444 C1439 1.490 . S
C1444 C1446 1.395 . S
C1444 C1447 1.403 . S
H1445 C1451 0.930 . S
C1446 H1432 0.930 . S
C1446 C1444 1.395 . S
C1446 C1449 1.403 1_455 S
C1447 C1444 1.403 . S
C1447 C1448 1.524 . S
C1447 C1451 1.400 1_455 S
C1448 H1433 0.960 1_455 S
C1448 H1434 0.960 . S
C1448 H1435 0.960 . S
C1448 C1447 1.524 . S
C1449 C1446 1.403 1_655 S
C1449 C1450 1.392 . S
C1449 C1453 1.495 . S
C1450 C1449 1.392 . S
C1450 C1451 1.385 . S
C1450 C1452 1.478 . S
C1451 H1445 0.930 . S
C1451 C1447 1.400 1_655 S
C1451 C1450 1.385 . S
C1452 C1450 1.478 . S
C1452 C1454 1.381 . S
C1452 C1458 1.383 . S
C1453 C1449 1.495 . S
C1453 H1459 0.959 1_655 S
C1453 H1460 0.961 . S
C1453 H1461 0.960 . S
C1454 C1452 1.381 . S
C1454 C1455 1.394 . S
C1454 H1462 0.930 . S
C1455 C1454 1.394 . S
C1455 C1456 1.383 . S
C1455 H1463 0.929 . S
C1456 C1455 1.383 . S
C1456 C1457 1.377 . S
C1457 H1441 0.930 . S
C1457 C1456 1.377 . S
C1457 C1458 1.379 . S
C1458 H1442 0.931 . S
C1458 C1452 1.383 . S
C1458 C1457 1.379 . S
H1459 C1453 0.959 1_455 S
H1460 C1453 0.961 . S
H1461 C1453 0.960 . S
H1462 C1454 0.930 . S
H1463 C1455 0.929 . S
H1464 C1472 0.929 . S
H1465 C1474 0.930 . S
H1466 C1476 0.930 . S
H1467 C1479 0.929 . S
H1468 C1482 0.930 . S
H1469 C1484 0.960 . S
H1470 C1484 0.960 1_565 S
H1471 C1484 0.960 1_565 S
C1472 H1464 0.929 . S
C1472 C1473 1.377 . S
C1472 C1474 1.384 . S
C1473 C1472 1.377 . S
C1473 C1479 1.390 . S
C1474 H1465 0.930 . S
C1474 C1472 1.384 . S
C1474 C1475 1.372 . S
C1475 C1474 1.372 . S
C1475 C1476 1.400 . S
C1475 C1480 1.490 . S
C1476 H1466 0.930 . S
C1476 C1475 1.400 . S
C1476 C1479 1.386 . S
H1477 C1493 0.930 . S
H1478 C1494 0.931 . S
C1479 H1467 0.929 . S
C1479 C1473 1.390 . S
C1479 C1476 1.386 . S
C1480 C1475 1.490 . S
C1480 C1482 1.395 . S
C1480 C1483 1.405 1_565 S
H1481 C1487 0.930 . S
C1482 H1468 0.930 . S
C1482 C1480 1.395 . S
C1482 C1485 1.403 . S
C1483 C1480 1.405 1_545 S
C1483 C1484 1.522 . S
C1483 C1487 1.399 . S
C1484 H1469 0.960 . S
C1484 H1470 0.960 1_545 S
C1484 H1471 0.960 1_545 S
C1484 C1483 1.522 . S
C1485 C1482 1.403 . S
C1485 C1486 1.392 1_565 S
C1485 C1489 1.495 . S
C1486 C1485 1.392 1_545 S
C1486 C1487 1.385 . S
C1486 C1488 1.478 . S
C1487 H1481 0.930 . S
C1487 C1483 1.399 . S
C1487 C1486 1.385 . S
C1488 C1486 1.478 . S
C1488 C1490 1.381 . S
C1488 C1494 1.383 . S
C1489 C1485 1.495 . S
C1489 H1495 0.959 . S
C1489 H1496 0.961 1_565 S
C1489 H1497 0.960 1_565 S
C1490 C1488 1.381 . S
C1490 C1491 1.394 . S
C1490 H1498 0.930 . S
C1491 C1490 1.394 . S
C1491 C1492 1.383 . S
C1491 H1499 0.929 . S
C1492 C1491 1.383 . S
C1492 C1493 1.377 . S
C1493 H1477 0.930 . S
C1493 C1492 1.377 . S
C1493 C1494 1.379 . S
C1494 H1478 0.931 . S
C1494 C1488 1.383 . S
C1494 C1493 1.379 . S
H1495 C1489 0.959 . S
H1496 C1489 0.961 1_545 S
H1497 C1489 0.960 1_545 S
H1498 C1490 0.930 . S
H1499 C1491 0.929 . S
C645 C569 1.888 . S
C664 C39 1.890 . S
C681 C92 1.890 . S
C700 C622 1.899 . S
C717 C145 1.885 . S
C736 C357 1.876 . S
C753 C198 1.886 . S
C772 C410 1.883 . S
C789 C463 1.890 . S
C808 C251 1.899 . S
C825 C304 1.887 . S
C844 C516 1.878 . S
C861 C462 1.948 . S
C880 C38 1.938 . S
C897 C91 1.945 . S
C916 C515 1.955 . S
C933 C144 1.947 . S
C952 C568 1.955 . S
C969 C197 1.946 . S
C988 C621 1.929 . S
C1005 C356 1.947 . S
C1024 C250 1.929 . S
C1041 C409 1.945 . S
C1060 C303 1.934 . S
C1077 C188 0.872 . S
C1096 C29 0.865 . S
C1113 C82 0.870 . S
C1132 C241 0.880 . S
C1149 C294 0.873 . S
C1168 C135 0.868 . S
C1185 C506 0.872 . S
C1204 C347 0.873 . S
C1221 C559 0.870 . S
C1240 C400 0.874 . S
C1257 C453 0.870 . S
C1276 C612 0.880 . S
C1293 C181 2.147 . S
C1312 C22 2.144 . S
C1329 C75 2.146 . S
C1348 C234 2.145 . S
C1365 C287 2.147 . S
C1384 C128 2.142 . S
C1401 C340 2.147 . S
C1420 C499 2.140 . S
C1437 C552 2.147 . S
C1456 C393 2.145 . S
C1473 C446 2.147 . S
C1492 C605 2.142 . S
