# Generated by pormake.
# Topology wlb, (5)-cn, num edge types: 1
# Building blocks:
#     Node 0, Type 0, BuildingBlock: XOMCOT_clean_sbu_1, # of connection points: 5
#     Node 1, Type 0, BuildingBlock: XOMCOT_clean_sbu_1, # of connection points: 5
#     Node 2, Type 0, BuildingBlock: XOMCOT_clean_sbu_1, # of connection points: 5
#     Node 3, Type 0, BuildingBlock: XOMCOT_clean_sbu_1, # of connection points: 5
#     Node 4, Type 0, BuildingBlock: XOMCOT_clean_sbu_1, # of connection points: 5
#     Node 5, Type 0, BuildingBlock: XOMCOT_clean_sbu_1, # of connection points: 5
#     Node 6, Type 0, BuildingBlock: XOMCOT_clean_sbu_1, # of connection points: 5
#     Node 7, Type 0, BuildingBlock: XOMCOT_clean_sbu_1, # of connection points: 5
#     Node 8, Type 0, BuildingBlock: XOMCOT_clean_sbu_1, # of connection points: 5
#     Node 9, Type 0, BuildingBlock: XOMCOT_clean_sbu_1, # of connection points: 5
#     Node 10, Type 0, BuildingBlock: XOMCOT_clean_sbu_1, # of connection points: 5
#     Node 11, Type 0, BuildingBlock: XOMCOT_clean_sbu_1, # of connection points: 5
#     Node 12, Type 0, BuildingBlock: XOMCOT_clean_sbu_1, # of connection points: 5
#     Node 13, Type 0, BuildingBlock: XOMCOT_clean_sbu_1, # of connection points: 5
#     Node 14, Type 0, BuildingBlock: XOMCOT_clean_sbu_1, # of connection points: 5
#     Node 15, Type 0, BuildingBlock: XOMCOT_clean_sbu_1, # of connection points: 5
#     Node 16, Type 0, BuildingBlock: XOMCOT_clean_sbu_1, # of connection points: 5
#     Node 17, Type 0, BuildingBlock: XOMCOT_clean_sbu_1, # of connection points: 5
#     Edge 18, Type (0, 0), BuildingBlock: XIVTED_clean_linker_0, # of connection points: 2
#     Edge 19, Type (0, 0), BuildingBlock: XIVTED_clean_linker_0, # of connection points: 2
#     Edge 20, Type (0, 0), BuildingBlock: XIVTED_clean_linker_0, # of connection points: 2
#     Edge 21, Type (0, 0), BuildingBlock: XIVTED_clean_linker_0, # of connection points: 2
#     Edge 22, Type (0, 0), BuildingBlock: XIVTED_clean_linker_0, # of connection points: 2
#     Edge 23, Type (0, 0), BuildingBlock: XIVTED_clean_linker_0, # of connection points: 2
#     Edge 24, Type (0, 0), BuildingBlock: XIVTED_clean_linker_0, # of connection points: 2
#     Edge 25, Type (0, 0), BuildingBlock: XIVTED_clean_linker_0, # of connection points: 2
#     Edge 26, Type (0, 0), BuildingBlock: XIVTED_clean_linker_0, # of connection points: 2
#     Edge 27, Type (0, 0), BuildingBlock: XIVTED_clean_linker_0, # of connection points: 2
#     Edge 28, Type (0, 0), BuildingBlock: XIVTED_clean_linker_0, # of connection points: 2
#     Edge 29, Type (0, 0), BuildingBlock: XIVTED_clean_linker_0, # of connection points: 2
#     Edge 30, Type (0, 0), BuildingBlock: XIVTED_clean_linker_0, # of connection points: 2
#     Edge 31, Type (0, 0), BuildingBlock: XIVTED_clean_linker_0, # of connection points: 2
#     Edge 32, Type (0, 0), BuildingBlock: XIVTED_clean_linker_0, # of connection points: 2
#     Edge 33, Type (0, 0), BuildingBlock: XIVTED_clean_linker_0, # of connection points: 2
#     Edge 34, Type (0, 0), BuildingBlock: XIVTED_clean_linker_0, # of connection points: 2
#     Edge 35, Type (0, 0), BuildingBlock: XIVTED_clean_linker_0, # of connection points: 2
#     Edge 36, Type (0, 0), BuildingBlock: XIVTED_clean_linker_0, # of connection points: 2
#     Edge 37, Type (0, 0), BuildingBlock: XIVTED_clean_linker_0, # of connection points: 2
#     Edge 38, Type (0, 0), BuildingBlock: XIVTED_clean_linker_0, # of connection points: 2
#     Edge 39, Type (0, 0), BuildingBlock: XIVTED_clean_linker_0, # of connection points: 2
#     Edge 40, Type (0, 0), BuildingBlock: XIVTED_clean_linker_0, # of connection points: 2
#     Edge 41, Type (0, 0), BuildingBlock: XIVTED_clean_linker_0, # of connection points: 2
#     Edge 42, Type (0, 0), BuildingBlock: XIVTED_clean_linker_0, # of connection points: 2
#     Edge 43, Type (0, 0), BuildingBlock: XIVTED_clean_linker_0, # of connection points: 2
#     Edge 44, Type (0, 0), BuildingBlock: XIVTED_clean_linker_0, # of connection points: 2
#     Edge 45, Type (0, 0), BuildingBlock: XIVTED_clean_linker_0, # of connection points: 2
#     Edge 46, Type (0, 0), BuildingBlock: XIVTED_clean_linker_0, # of connection points: 2
#     Edge 47, Type (0, 0), BuildingBlock: XIVTED_clean_linker_0, # of connection points: 2
#     Edge 48, Type (0, 0), BuildingBlock: XIVTED_clean_linker_0, # of connection points: 2
#     Edge 49, Type (0, 0), BuildingBlock: XIVTED_clean_linker_0, # of connection points: 2
#     Edge 50, Type (0, 0), BuildingBlock: XIVTED_clean_linker_0, # of connection points: 2
#     Edge 51, Type (0, 0), BuildingBlock: XIVTED_clean_linker_0, # of connection points: 2
#     Edge 52, Type (0, 0), BuildingBlock: XIVTED_clean_linker_0, # of connection points: 2
#     Edge 53, Type (0, 0), BuildingBlock: XIVTED_clean_linker_0, # of connection points: 2
#     Edge 54, Type (0, 0), BuildingBlock: XIVTED_clean_linker_0, # of connection points: 2
#     Edge 55, Type (0, 0), BuildingBlock: XIVTED_clean_linker_0, # of connection points: 2
#     Edge 56, Type (0, 0), BuildingBlock: XIVTED_clean_linker_0, # of connection points: 2
#     Edge 57, Type (0, 0), BuildingBlock: XIVTED_clean_linker_0, # of connection points: 2
#     Edge 58, Type (0, 0), BuildingBlock: XIVTED_clean_linker_0, # of connection points: 2
#     Edge 59, Type (0, 0), BuildingBlock: XIVTED_clean_linker_0, # of connection points: 2
#     Edge 60, Type (0, 0), BuildingBlock: XIVTED_clean_linker_0, # of connection points: 2
#     Edge 61, Type (0, 0), BuildingBlock: XIVTED_clean_linker_0, # of connection points: 2
#     Edge 62, Type (0, 0), BuildingBlock: XIVTED_clean_linker_0, # of connection points: 2
# Relax obj value: 0.337
# Max RMSD: 0.210
# Mean RMSD: 0.210
data_MOF--net-wlb--node1-XOMCOT_clean_sbu_1--edge1-XIVTED_clean_linker_0
_symmetry_space_group_name_H-M    P1
_symmetry_Int_Tables_number       1
_symmetry_cell_setting            triclinic
loop_
_symmetry_equiv_pos_as_xyz
'x, y, z'
_cell_length_a     52.31942
_cell_length_b     52.321636
_cell_length_c     40.030425
_cell_angle_alpha  90.004929
_cell_angle_beta   90.013116
_cell_angle_gamma 119.98595
loop_
_atom_site_label
_atom_site_type_symbol
_atom_site_fract_x
_atom_site_fract_y
_atom_site_fract_z
_atom_type_partial_charge
C0 C 0.11192 0.20575 0.23777 0.0
C1 C 0.12544 0.18929 0.24294 0.0
N2 N 0.10478 0.16049 0.24121 0.0
N3 N 0.08279 0.18747 0.23296 0.0
C4 C 0.07925 0.16005 0.23452 0.0
H5 H 0.12266 0.22955 0.2382 0.0
Co6 Co 0.05402 0.1985 0.22749 0.0
C7 C 0.02286 0.14827 0.2773 0.0
O8 O 0.04526 0.15547 0.29747 0.0
N9 N 0.02516 0.20936 0.22253 0.0
C10 C 0.98584 0.21404 0.23201 0.0
C11 C 1.00244 0.20231 0.24365 0.0
C12 C 0.02236 0.22608 0.19864 0.0
N13 N 0.99847 0.22903 0.20387 0.0
O14 O 0.06792 0.22248 0.26682 0.0
H15 H 0.99837 0.18987 0.2665 0.0
H16 H 0.03743 0.23578 0.17785 0.0
O17 O 0.02581 0.16388 0.25165 0.0
C18 C 0.08363 0.24901 0.2565 0.0
O19 O 0.08711 0.25359 0.2241 0.0
N20 N 0.04216 0.17772 0.18743 0.0
C21 C 0.02795 0.15543 0.12273 0.0
C22 C 0.00668 0.14402 0.14821 0.0
C23 C 0.01422 0.15556 0.18052 0.0
C24 C 0.06316 0.18879 0.16314 0.0
C25 C 0.05663 0.17779 0.13069 0.0
H26 H 0.99729 0.14753 0.1995 0.0
H27 H 0.08491 0.207 0.1688 0.0
H28 H 0.05824 0.14008 0.23111 0.0
H29 H 0.14854 0.19792 0.24868 0.0
H30 H 0.96642 0.2124 0.24373 0.0
H31 H 0.98425 0.12683 0.14307 0.0
H32 H 0.07353 0.18774 0.11167 0.0
C33 C 0.81685 0.91629 0.1995 0.0
C34 C 0.83456 0.94602 0.20525 0.0
N35 N 0.85315 0.9497 0.23054 0.0
N36 N 0.82424 0.90121 0.22092 0.0
C37 C 0.84634 0.92212 0.23963 0.0
H38 H 0.79973 0.90625 0.18077 0.0
Co39 Co 0.80608 0.86031 0.22284 0.0
C40 C 0.8523 0.84692 0.24438 0.0
O41 O 0.83946 0.82293 0.22599 0.0
N42 N 0.78664 0.81847 0.22571 0.0
C43 C 0.76745 0.77434 0.24996 0.0
C44 C 0.78264 0.80424 0.25511 0.0
C45 C 0.77295 0.79639 0.2031 0.0
N46 N 0.76127 0.76928 0.21716 0.0
O47 O 0.78688 0.8604 0.26338 0.0
H48 H 0.79084 0.81499 0.27894 0.0
H49 H 0.77113 0.79987 0.17691 0.0
O50 O 0.84096 0.86365 0.24632 0.0
C51 C 0.76192 0.85687 0.25431 0.0
O52 O 0.75698 0.85719 0.22215 0.0
N53 N 0.82235 0.86083 0.181 0.0
C54 C 0.84041 0.86589 0.11468 0.0
C55 C 0.86106 0.87473 0.14068 0.0
C56 C 0.85167 0.87277 0.17372 0.0
C57 C 0.80234 0.85362 0.15589 0.0
C58 C 0.81075 0.85546 0.1226 0.0
H59 H 0.86821 0.88212 0.19297 0.0
H60 H 0.77964 0.84674 0.16183 0.0
H61 H 0.85695 0.91724 0.25985 0.0
H62 H 0.8341 0.96354 0.19141 0.0
H63 H 0.76198 0.75776 0.26902 0.0
H64 H 0.88436 0.88406 0.13546 0.0
H65 H 0.79413 0.84878 0.10326 0.0
C66 C 0.10128 0.89647 0.22511 0.0
C67 C 0.07124 0.88132 0.2298 0.0
N68 N 0.0618 0.90098 0.23216 0.0
N69 N 0.111 0.92566 0.22467 0.0
C70 C 0.08632 0.92766 0.22818 0.0
H71 H 0.11517 0.88673 0.22272 0.0
Co72 Co 0.15069 0.95543 0.22222 0.0
C73 C 0.12939 0.98487 0.27206 0.0
O74 O 0.11511 0.96262 0.29267 0.0
N75 N 0.19029 0.98516 0.22036 0.0
C76 C 0.23375 0.0221 0.23633 0.0
C77 C 0.20442 0.00573 0.2442 0.0
C78 C 0.2116 0.98934 0.19828 0.0
N79 N 0.23843 0.01167 0.20758 0.0
O80 O 0.1592 0.94045 0.26183 0.0
H81 H 0.19435 0.00811 0.26667 0.0
H82 H 0.20767 0.97539 0.17669 0.0
O83 O 0.14216 0.98216 0.24638 0.0
C84 C 0.17102 0.92562 0.25155 0.0
O85 O 0.1737 0.92355 0.21914 0.0
N86 N 0.14344 0.96826 0.18194 0.0
C87 C 0.13759 0.98371 0.11699 0.0
C88 C 0.14399 1.00364 0.14348 0.0
C89 C 0.14704 0.99554 0.17588 0.0
C90 C 0.13689 0.94855 0.15667 0.0
C91 C 0.1337 0.95573 0.12405 0.0
H92 H 0.15331 0.01157 0.19567 0.0
H93 H 0.13505 0.92739 0.16179 0.0
H94 H 0.08644 0.94837 0.22873 0.0
H95 H 0.05754 0.8576 0.23151 0.0
H96 H 0.25039 0.04006 0.25105 0.0
H97 H 0.14723 0.02549 0.13914 0.0
H98 H 0.12953 0.93991 0.10436 0.0
C99 C 0.19872 0.10467 0.78808 0.0
C100 C 0.18232 0.11817 0.78294 0.0
N101 N 0.16172 0.10274 0.75965 0.0
N102 N 0.18873 0.08093 0.76793 0.0
C103 C 0.16596 0.08018 0.75097 0.0
H104 H 0.21691 0.11175 0.80537 0.0
Co105 Co 0.20576 0.05709 0.76585 0.0
C106 C 0.15839 0.99786 0.74547 0.0
O107 O 0.17071 0.9866 0.76453 0.0
N108 N 0.22414 0.0337 0.76303 0.0
C109 C 0.24262 0.00804 0.73883 0.0
C110 C 0.22788 0.02321 0.73365 0.0
C111 C 0.23727 0.02472 0.78571 0.0
N112 N 0.24851 0.00891 0.77165 0.0
O113 O 0.22455 0.07522 0.72457 0.0
H114 H 0.22006 0.02613 0.70974 0.0
H115 H 0.23843 0.02922 0.81209 0.0
O116 O 0.17017 0.02595 0.74303 0.0
C117 C 0.24854 0.09909 0.73069 0.0
O118 O 0.25452 0.10841 0.7617 0.0
N119 N 0.18984 0.04227 0.80811 0.0
C120 C 0.17234 0.03192 0.8749 0.0
C121 C 0.15137 0.02009 0.84918 0.0
C122 C 0.16052 0.02609 0.81589 0.0
C123 C 0.21027 0.05497 0.83283 0.0
C124 C 0.20215 0.0496 0.86632 0.0
H125 H 0.14382 0.01894 0.79679 0.0
H126 H 0.2331 0.06988 0.8264 0.0
H127 H 0.15313 0.06388 0.73219 0.0
H128 H 0.18506 0.13766 0.79564 0.0
H129 H 0.24882 0.99755 0.71971 0.0
H130 H 0.12801 0.00734 0.85473 0.0
H131 H 0.21913 0.05945 0.88529 0.0
C132 C 0.90273 0.09378 0.79317 0.0
C133 C 0.88915 0.06388 0.78759 0.0
N134 N 0.90538 0.05876 0.76531 0.0
N135 N 0.92735 0.10749 0.77443 0.0
C136 C 0.92844 0.08556 0.75772 0.0
H137 H 0.89512 0.1049 0.80975 0.0
Co138 Co 0.95186 0.14819 0.77288 0.0
C139 C 0.01023 0.15878 0.75099 0.0
O140 O 0.02201 0.18146 0.77143 0.0
N141 N 0.97598 0.18989 0.77033 0.0
C142 C 1.00229 0.23371 0.74581 0.0
C143 C 0.98736 0.2038 0.74102 0.0
C144 C 0.98385 0.21221 0.79249 0.0
N145 N 1.00007 0.23915 0.77823 0.0
O146 O 0.93272 0.14972 0.73279 0.0
H147 H 0.98507 0.19277 0.71743 0.0
H148 H 0.97727 0.20904 0.81834 0.0
O149 O 0.98206 0.14325 0.74832 0.0
C150 C 0.91297 0.15569 0.74224 0.0
O151 O 0.90878 0.15658 0.7745 0.0
N152 N 0.96754 0.14626 0.81435 0.0
C153 C 0.9805 0.13954 0.8803 0.0
C154 C 0.99054 0.1294 0.85374 0.0
C155 C 0.98317 0.13228 0.82092 0.0
C156 C 0.95634 0.15474 0.83998 0.0
C157 C 0.96301 0.15218 0.87305 0.0
H158 H 0.98898 0.12208 0.80122 0.0
H159 H 0.94149 0.16298 0.83469 0.0
H160 H 0.94533 0.0891 0.73977 0.0
H161 H 0.86905 0.04715 0.7993 0.0
H162 H 0.01405 0.25007 0.72671 0.0
H163 H 1.00304 0.11835 0.85834 0.0
H164 H 0.95438 0.15993 0.89274 0.0
C165 C 0.91382 0.81157 0.78932 0.0
C166 C 0.94382 0.828 0.78484 0.0
N167 N 0.94942 0.84899 0.7619 0.0
N168 N 0.90049 0.82203 0.76924 0.0
C169 C 0.92278 0.84497 0.75284 0.0
H170 H 0.90237 0.79298 0.80601 0.0
Co171 Co 0.85974 0.80485 0.76607 0.0
C172 C 0.84762 0.85112 0.74132 0.0
O173 O 0.82313 0.83863 0.75883 0.0
N174 N 0.81799 0.7861 0.76224 0.0
C175 C 0.77403 0.7658 0.73731 0.0
C176 C 0.80398 0.78062 0.73246 0.0
C177 C 0.79574 0.77387 0.78484 0.0
N178 N 0.7688 0.76156 0.77031 0.0
O179 O 0.86007 0.78467 0.72637 0.0
H180 H 0.8149 0.78719 0.70848 0.0
H181 H 0.79892 0.77406 0.81145 0.0
O182 O 0.86437 0.83971 0.74113 0.0
C183 C 0.8552 0.75942 0.73629 0.0
O184 O 0.85398 0.75462 0.76864 0.0
N185 N 0.85995 0.82197 0.80717 0.0
C186 C 0.86479 0.8408 0.87313 0.0
C187 C 0.87345 0.86111 0.8468 0.0
C188 C 0.87159 0.85134 0.81393 0.0
C189 C 0.85269 0.80227 0.83262 0.0
C190 C 0.85446 0.81107 0.86572 0.0
H191 H 0.8808 0.86764 0.79443 0.0
H192 H 0.8457 0.77947 0.82707 0.0
H193 H 0.91961 0.85797 0.73404 0.0
H194 H 0.96029 0.82489 0.79766 0.0
H195 H 0.75744 0.75832 0.71789 0.0
H196 H 0.8826 0.88445 0.85167 0.0
H197 H 0.84782 0.7947 0.88533 0.0
C198 C 0.77607 0.53137 0.53436 0.0
C199 C 0.78984 0.51518 0.53935 0.0
N200 N 0.77408 0.49387 0.56183 0.0
N201 N 0.75179 0.52046 0.55369 0.0
C202 C 0.75106 0.49749 0.57013 0.0
H203 H 0.78337 0.55008 0.51782 0.0
Co204 Co 0.72767 0.5371 0.55603 0.0
C205 C 0.66986 0.49073 0.58179 0.0
O206 O 0.65731 0.50217 0.56338 0.0
N207 N 0.70407 0.55528 0.55902 0.0
C208 C 0.6799 0.57531 0.5833 0.0
C209 C 0.69529 0.56082 0.58859 0.0
C210 C 0.69395 0.56716 0.53608 0.0
N211 N 0.67899 0.57931 0.55022 0.0
O212 O 0.74821 0.55836 0.59523 0.0
H213 H 0.69971 0.55458 0.61273 0.0
H214 H 0.69721 0.56694 0.50953 0.0
O215 O 0.69805 0.50266 0.58193 0.0
C216 C 0.76794 0.58375 0.58488 0.0
O217 O 0.77111 0.58821 0.55246 0.0
N218 N 0.71069 0.51889 0.51536 0.0
C219 C 0.69656 0.49864 0.44985 0.0
C220 C 0.68528 0.47885 0.4767 0.0
C221 C 0.69329 0.48934 0.50935 0.0
C222 C 0.72275 0.53811 0.48942 0.0
C223 C 0.71566 0.52859 0.45653 0.0
H224 H 0.68647 0.47346 0.5293 0.0
H225 H 0.73833 0.56108 0.49441 0.0
H226 H 0.73456 0.48417 0.58846 0.0
H227 H 0.8098 0.51864 0.52718 0.0
H228 H 0.67062 0.58282 0.60249 0.0
H229 H 0.67133 0.45539 0.47242 0.0
H230 H 0.72508 0.54458 0.43651 0.0
C231 C 0.48225 0.24964 0.537 0.0
C232 C 0.49886 0.27942 0.54287 0.0
N233 N 0.519 0.28389 0.56648 0.0
N234 N 0.49167 0.23531 0.55701 0.0
C235 C 0.5143 0.25682 0.57461 0.0
H236 H 0.46419 0.23901 0.51946 0.0
Co237 Co 0.47397 0.19439 0.55871 0.0
C238 C 0.52106 0.18142 0.5772 0.0
O239 O 0.50834 0.1582 0.5576 0.0
N240 N 0.45499 0.15266 0.56126 0.0
C241 C 0.43718 0.10843 0.58492 0.0
C242 C 0.45268 0.1383 0.59017 0.0
C243 C 0.43996 0.13068 0.53889 0.0
N244 N 0.42911 0.10353 0.55258 0.0
O245 O 0.45607 0.1938 0.60061 0.0
H246 H 0.4622 0.14896 0.61372 0.0
H247 H 0.43649 0.13423 0.5132 0.0
O248 O 0.50967 0.19802 0.58052 0.0
C249 C 0.4325 0.19484 0.59582 0.0
O250 O 0.42633 0.19958 0.56545 0.0
N251 N 0.48907 0.19529 0.51592 0.0
C252 C 0.50527 0.19918 0.44894 0.0
C253 C 0.52665 0.20869 0.47423 0.0
C254 C 0.51818 0.20731 0.50758 0.0
C255 C 0.4684 0.18782 0.49151 0.0
C256 C 0.47586 0.18904 0.45791 0.0
H257 H 0.53525 0.21691 0.52628 0.0
H258 H 0.44587 0.18102 0.49827 0.0
H259 H 0.52661 0.25278 0.59357 0.0
H260 H 0.49649 0.29655 0.53055 0.0
H261 H 0.43277 0.09173 0.60352 0.0
H262 H 0.5498 0.21792 0.46822 0.0
H263 H 0.45869 0.18194 0.43919 0.0
C264 C 0.76519 0.23429 0.53778 0.0
C265 C 0.73519 0.22079 0.54224 0.0
N266 N 0.7295 0.23713 0.56374 0.0
N267 N 0.77845 0.259 0.55643 0.0
C268 C 0.75611 0.26024 0.57197 0.0
H269 H 0.7767 0.22657 0.52196 0.0
Co270 Co 0.81916 0.28326 0.55873 0.0
C271 C 0.83026 0.34212 0.57993 0.0
O272 O 0.8538 0.35367 0.56079 0.0
N273 N 0.86082 0.30701 0.56181 0.0
C274 C 0.90485 0.33313 0.58598 0.0
C275 C 0.87495 0.31817 0.59107 0.0
C276 C 0.88295 0.31503 0.53938 0.0
N277 N 0.91 0.33116 0.55339 0.0
O278 O 0.81992 0.26443 0.59945 0.0
H279 H 0.86408 0.31586 0.61478 0.0
H280 H 0.87953 0.30872 0.51345 0.0
O281 O 0.81418 0.31397 0.58218 0.0
C282 C 0.82554 0.24431 0.59044 0.0
O283 O 0.8266 0.2399 0.55827 0.0
N284 N 0.81804 0.29851 0.51672 0.0
C285 C 0.81314 0.3108 0.45005 0.0
C286 C 0.80399 0.32268 0.47567 0.0
C287 C 0.80581 0.31554 0.50891 0.0
C288 C 0.82557 0.28567 0.49196 0.0
C289 C 0.82376 0.29183 0.45852 0.0
H290 H 0.79627 0.3228 0.5279 0.0
H291 H 0.83275 0.27015 0.49831 0.0
H292 H 0.75921 0.27729 0.58948 0.0
H293 H 0.71878 0.20068 0.53024 0.0
H294 H 0.9214 0.34483 0.60493 0.0
H295 H 0.79456 0.33649 0.46997 0.0
H296 H 0.83067 0.28185 0.43948 0.0
C297 C 0.86533 0.43851 0.12515 0.0
C298 C 0.8484 0.45163 0.12105 0.0
N299 N 0.8277 0.43639 0.09774 0.0
N300 N 0.85545 0.41517 0.10445 0.0
C301 C 0.83243 0.41436 0.08807 0.0
H302 H 0.88383 0.44564 0.142 0.0
Co303 Co 0.8728 0.3918 0.10004 0.0
C304 C 0.82555 0.33323 0.07775 0.0
O305 O 0.83796 0.32162 0.09613 0.0
N306 N 0.89137 0.36877 0.09452 0.0
C307 C 0.90749 0.34246 0.06704 0.0
C308 C 0.89396 0.35901 0.06407 0.0
C309 C 0.90453 0.35848 0.11553 0.0
N310 N 0.91415 0.3422 0.09937 0.0
O311 O 0.89185 0.41231 0.05988 0.0
H312 H 0.88561 0.36289 0.04106 0.0
H313 H 0.9064 0.36185 0.14221 0.0
O314 O 0.83725 0.36138 0.0762 0.0
C315 C 0.91713 0.43286 0.06953 0.0
O316 O 0.92223 0.43649 0.10182 0.0
N317 N 0.85697 0.37496 0.14165 0.0
C318 C 0.84007 0.36168 0.20828 0.0
C319 C 0.81886 0.35078 0.1828 0.0
C320 C 0.82771 0.35839 0.1496 0.0
C321 C 0.87762 0.38658 0.16631 0.0
C322 C 0.86977 0.37989 0.19972 0.0
H323 H 0.81086 0.35207 0.1308 0.0
H324 H 0.9004 0.40173 0.15995 0.0
H325 H 0.81983 0.3985 0.06883 0.0
H326 H 0.85096 0.47078 0.13437 0.0
H327 H 0.91189 0.33124 0.04706 0.0
H328 H 0.79558 0.33757 0.1886 0.0
H329 H 0.8868 0.38908 0.21868 0.0
C330 C 0.56836 0.42564 0.12146 0.0
C331 C 0.55483 0.39577 0.11593 0.0
N332 N 0.57135 0.39063 0.09412 0.0
N333 N 0.59323 0.43935 0.10312 0.0
C334 C 0.59458 0.4174 0.08676 0.0
H335 H 0.56048 0.43676 0.13767 0.0
Co336 Co 0.61718 0.48014 0.10163 0.0
C337 C 0.67606 0.49224 0.07953 0.0
O338 O 0.68736 0.51523 0.09951 0.0
N339 N 0.64062 0.52193 0.09933 0.0
C340 C 0.6662 0.56616 0.0755 0.0
C341 C 0.65144 0.5363 0.07014 0.0
C342 C 0.64866 0.54388 0.12204 0.0
N343 N 0.66445 0.57106 0.10822 0.0
O344 O 0.59777 0.48131 0.06158 0.0
H345 H 0.64902 0.52565 0.04626 0.0
H346 H 0.6426 0.54026 0.14804 0.0
O347 O 0.64793 0.47596 0.07711 0.0
C348 C 0.57779 0.48676 0.07159 0.0
O349 O 0.57409 0.48767 0.10396 0.0
N350 N 0.63294 0.47847 0.14305 0.0
C351 C 0.64595 0.47219 0.20901 0.0
C352 C 0.65712 0.4631 0.18259 0.0
C353 C 0.64964 0.46564 0.14973 0.0
C354 C 0.62072 0.48591 0.16857 0.0
C355 C 0.6273 0.48346 0.20168 0.0
H356 H 0.65632 0.45615 0.13009 0.0
H357 H 0.6053 0.49341 0.16311 0.0
H358 H 0.61171 0.42091 0.06916 0.0
H359 H 0.53451 0.37906 0.12727 0.0
H360 H 0.67761 0.58283 0.05661 0.0
H361 H 0.67062 0.45316 0.18736 0.0
H362 H 0.61785 0.49036 0.22135 0.0
C363 C 0.58229 0.14458 0.12409 0.0
C364 C 0.6123 0.16153 0.11985 0.0
N365 N 0.61761 0.18229 0.0967 0.0
N366 N 0.56869 0.15449 0.10364 0.0
C367 C 0.59081 0.17757 0.08724 0.0
H368 H 0.57103 0.12602 0.14087 0.0
Co369 Co 0.52792 0.13688 0.09983 0.0
C370 C 0.51576 0.18304 0.07447 0.0
O371 O 0.49092 0.1704 0.09136 0.0
N372 N 0.48624 0.11785 0.09526 0.0
C373 C 0.44255 0.09791 0.06977 0.0
C374 C 0.47255 0.1125 0.06529 0.0
C375 C 0.46376 0.1057 0.11756 0.0
N376 N 0.43696 0.09362 0.10272 0.0
O377 O 0.52895 0.11695 0.06017 0.0
H378 H 0.48373 0.11941 0.04149 0.0
H379 H 0.46671 0.10534 0.14415 0.0
O380 O 0.53256 0.1717 0.07486 0.0
C381 C 0.52424 0.09175 0.07011 0.0
O382 O 0.52292 0.08696 0.10247 0.0
N383 N 0.52734 0.15369 0.14098 0.0
C384 C 0.53003 0.17172 0.20704 0.0
C385 C 0.53878 0.19223 0.18089 0.0
C386 C 0.53803 0.18288 0.14798 0.0
C387 C 0.52007 0.13386 0.16629 0.0
C388 C 0.52079 0.14225 0.19942 0.0
H389 H 0.54721 0.19939 0.12869 0.0
H390 H 0.51376 0.11125 0.16062 0.0
H391 H 0.58745 0.19018 0.06811 0.0
H392 H 0.62896 0.15894 0.13297 0.0
H393 H 0.42622 0.09164 0.0502 0.0
H394 H 0.54713 0.21541 0.18593 0.0
H395 H 0.51412 0.12574 0.21888 0.0
C396 C 0.44573 0.86298 0.86822 0.0
C397 C 0.45892 0.8463 0.87358 0.0
N398 N 0.44252 0.82499 0.89579 0.0
N399 N 0.42118 0.85239 0.88707 0.0
C400 C 0.41969 0.82909 0.90356 0.0
H401 H 0.45365 0.88185 0.85182 0.0
Co402 Co 0.3979 0.86996 0.8889 0.0
C403 C 0.33924 0.82469 0.91432 0.0
O404 O 0.3274 0.83704 0.89625 0.0
N405 N 0.37521 0.88913 0.89132 0.0
C406 C 0.35215 0.9107 0.91479 0.0
C407 C 0.36683 0.89556 0.92065 0.0
C408 C 0.36544 0.901 0.86794 0.0
N409 N 0.35127 0.91412 0.8816 0.0
O410 O 0.41832 0.89089 0.92839 0.0
H411 H 0.3708 0.88926 0.94499 0.0
H412 H 0.36894 0.90066 0.84145 0.0
O413 O 0.36735 0.83577 0.91446 0.0
C414 C 0.43857 0.91616 0.91836 0.0
O415 O 0.44235 0.9207 0.88599 0.0
N416 N 0.38105 0.85208 0.84802 0.0
C417 C 0.36574 0.83233 0.7825 0.0
C418 C 0.35393 0.81253 0.80928 0.0
C419 C 0.36251 0.82274 0.84193 0.0
C420 C 0.39383 0.87119 0.82213 0.0
C421 C 0.38619 0.86194 0.78922 0.0
H422 H 0.35502 0.80676 0.86181 0.0
H423 H 0.41017 0.89393 0.82718 0.0
H424 H 0.40279 0.81589 0.92158 0.0
H425 H 0.47894 0.84944 0.86187 0.0
H426 H 0.34245 0.91815 0.93355 0.0
H427 H 0.33894 0.78926 0.80496 0.0
H428 H 0.39607 0.87792 0.76926 0.0
C429 C 0.14826 0.58285 0.86912 0.0
C430 C 0.16542 0.61278 0.87383 0.0
N431 N 0.18643 0.61767 0.89649 0.0
N432 N 0.15828 0.56886 0.88881 0.0
C433 C 0.18166 0.59069 0.90518 0.0
H434 H 0.12952 0.57189 0.85253 0.0
Co435 Co 0.14042 0.52802 0.89168 0.0
C436 C 0.18605 0.51496 0.91611 0.0
O437 O 0.1738 0.49109 0.89749 0.0
N438 N 0.1211 0.48625 0.89537 0.0
C439 C 0.10134 0.4425 0.92059 0.0
C440 C 0.11666 0.47246 0.92514 0.0
C441 C 0.10752 0.46386 0.87312 0.0
N442 N 0.09549 0.43696 0.88779 0.0
O443 O 0.12016 0.52846 0.93126 0.0
H444 H 0.12456 0.48357 0.94886 0.0
H445 H 0.10593 0.46698 0.84677 0.0
O446 O 0.17484 0.53187 0.91689 0.0
C447 C 0.09492 0.52362 0.92134 0.0
O448 O 0.09022 0.52271 0.88899 0.0
N449 N 0.15766 0.52808 0.85064 0.0
C450 C 0.17687 0.53194 0.78493 0.0
C451 C 0.19702 0.54093 0.81147 0.0
C452 C 0.18707 0.5396 0.84417 0.0
C453 C 0.13815 0.52068 0.82495 0.0
C454 C 0.14713 0.52195 0.79198 0.0
H455 H 0.20327 0.54902 0.86379 0.0
H456 H 0.11539 0.51405 0.83018 0.0
H457 H 0.1945 0.58698 0.92371 0.0
H458 H 0.16282 0.62968 0.86131 0.0
H459 H 0.09549 0.42619 0.94007 0.0
H460 H 0.22037 0.54991 0.80688 0.0
H461 H 0.1309 0.51518 0.77219 0.0
C462 C 0.42659 0.56458 0.86839 0.0
C463 C 0.39675 0.55179 0.87384 0.0
N464 N 0.39227 0.56811 0.89661 0.0
N465 N 0.44091 0.58879 0.8877 0.0
C466 C 0.41938 0.59045 0.90461 0.0
H467 H 0.43725 0.55666 0.85154 0.0
Co468 Co 0.48175 0.61191 0.88957 0.0
C469 C 0.49512 0.67087 0.91382 0.0
O470 O 0.51922 0.68247 0.8956 0.0
N471 N 0.52358 0.63451 0.89215 0.0
C472 C 0.56802 0.65787 0.91604 0.0
C473 C 0.53818 0.6432 0.9216 0.0
C474 C 0.54539 0.64411 0.86901 0.0
N475 N 0.57258 0.65846 0.88294 0.0
O476 O 0.48209 0.59185 0.92937 0.0
H477 H 0.52773 0.63948 0.94581 0.0
H478 H 0.54175 0.64041 0.84251 0.0
O479 O 0.47819 0.64276 0.91451 0.0
C480 C 0.48662 0.57119 0.91968 0.0
O481 O 0.48688 0.5668 0.88738 0.0
N482 N 0.48085 0.62837 0.84838 0.0
C483 C 0.47567 0.64234 0.78251 0.0
C484 C 0.46761 0.65439 0.80899 0.0
C485 C 0.46962 0.64648 0.84183 0.0
C486 C 0.4874 0.61545 0.82281 0.0
C487 C 0.48543 0.62244 0.78973 0.0
H488 H 0.46098 0.65403 0.86151 0.0
H489 H 0.49408 0.59939 0.82825 0.0
H490 H 0.42342 0.60716 0.92305 0.0
H491 H 0.37963 0.53216 0.86174 0.0
H492 H 0.58502 0.6678 0.93495 0.0
H493 H 0.4589 0.66898 0.80429 0.0
H494 H 0.4916 0.6124 0.77001 0.0
C495 C 0.53366 0.77783 0.45675 0.0
C496 C 0.517 0.79108 0.45164 0.0
N497 N 0.49549 0.77467 0.42963 0.0
N498 N 0.52284 0.75322 0.43797 0.0
C499 C 0.49943 0.75177 0.42175 0.0
H500 H 0.55268 0.78574 0.47295 0.0
Co501 Co 0.54024 0.72981 0.4358 0.0
C502 C 0.4945 0.67112 0.41118 0.0
O503 O 0.50679 0.65928 0.42935 0.0
N504 N 0.55921 0.70693 0.43297 0.0
C505 C 0.58004 0.68339 0.40894 0.0
C506 C 0.56508 0.6983 0.40347 0.0
C507 C 0.57122 0.69706 0.45605 0.0
N508 N 0.58391 0.68258 0.44204 0.0
O509 O 0.56053 0.74985 0.39597 0.0
H510 H 0.55849 0.70223 0.37928 0.0
H511 H 0.57123 0.70064 0.48257 0.0
O512 O 0.5057 0.69923 0.41081 0.0
C513 C 0.58597 0.77018 0.40545 0.0
O514 O 0.59106 0.77429 0.43771 0.0
N515 N 0.52294 0.71332 0.47697 0.0
C516 C 0.50395 0.69939 0.54289 0.0
C517 C 0.48378 0.68733 0.51646 0.0
C518 C 0.49362 0.6952 0.48359 0.0
C519 C 0.54247 0.72622 0.50249 0.0
C520 C 0.5336 0.71927 0.53559 0.0
H521 H 0.47739 0.68762 0.46395 0.0
H522 H 0.56521 0.74224 0.49699 0.0
H523 H 0.48604 0.73483 0.40384 0.0
H524 H 0.52032 0.81116 0.46338 0.0
H525 H 0.58702 0.67344 0.38997 0.0
H526 H 0.4605 0.67274 0.52121 0.0
H527 H 0.54986 0.7293 0.55527 0.0
C528 C 0.23249 0.76084 0.45335 0.0
C529 C 0.21905 0.73097 0.4479 0.0
N530 N 0.23597 0.7258 0.42674 0.0
N531 N 0.25771 0.77452 0.43561 0.0
C532 C 0.25935 0.75256 0.41969 0.0
H533 H 0.22442 0.77197 0.46928 0.0
Co534 Co 0.28203 0.81523 0.43483 0.0
C535 C 0.34114 0.82695 0.41424 0.0
O536 O 0.35226 0.84962 0.4347 0.0
N537 N 0.30583 0.85697 0.43324 0.0
C538 C 0.33215 0.9014 0.41005 0.0
C539 C 0.31741 0.8716 0.40434 0.0
C540 C 0.31342 0.87872 0.45611 0.0
N541 N 0.32964 0.90599 0.44267 0.0
O542 O 0.26396 0.81726 0.3942 0.0
H543 H 0.3155 0.86117 0.38043 0.0
H544 H 0.30674 0.87493 0.48192 0.0
O545 O 0.31304 0.81098 0.41107 0.0
C546 C 0.24327 0.82221 0.4025 0.0
O547 O 0.23706 0.82154 0.43441 0.0
N548 N 0.29682 0.81283 0.47665 0.0
C549 C 0.30984 0.80657 0.54261 0.0
C550 C 0.32053 0.79696 0.5162 0.0
C551 C 0.31306 0.79953 0.48336 0.0
C552 C 0.28475 0.82047 0.50214 0.0
C553 C 0.29138 0.81807 0.53528 0.0
H554 H 0.31951 0.7898 0.46375 0.0
H555 H 0.26954 0.82824 0.49664 0.0
H556 H 0.27692 0.75603 0.4028 0.0
H557 H 0.19861 0.71427 0.45902 0.0
H558 H 0.34409 0.91827 0.39151 0.0
H559 H 0.33378 0.78674 0.52094 0.0
H560 H 0.28222 0.82531 0.55493 0.0
C561 C 0.25359 0.47849 0.45389 0.0
C562 C 0.2834 0.49541 0.44819 0.0
N563 N 0.28797 0.51726 0.42693 0.0
N564 N 0.23935 0.48949 0.43621 0.0
C565 C 0.26091 0.51322 0.42006 0.0
H566 H 0.2429 0.45935 0.46993 0.0
Co567 Co 0.19854 0.47254 0.43569 0.0
C568 C 0.18595 0.51955 0.41602 0.0
O569 O 0.16339 0.50774 0.4366 0.0
N570 N 0.15674 0.45417 0.4343 0.0
C571 C 0.11225 0.43608 0.41123 0.0
C572 C 0.14202 0.45114 0.40546 0.0
C573 C 0.13504 0.44002 0.45722 0.0
N574 N 0.10774 0.42897 0.44385 0.0
O575 O 0.19664 0.45302 0.39468 0.0
H576 H 0.15238 0.45978 0.38154 0.0
H577 H 0.1389 0.43724 0.48305 0.0
O578 O 0.20219 0.50776 0.41259 0.0
C579 C 0.19199 0.42739 0.40251 0.0
O580 O 0.19342 0.42178 0.43425 0.0
N581 N 0.20078 0.48912 0.47783 0.0
C582 C 0.20624 0.50713 0.54423 0.0
C583 C 0.21558 0.52788 0.51829 0.0
C584 C 0.21342 0.51849 0.4852 0.0
C585 C 0.19346 0.46904 0.50286 0.0
C586 C 0.19549 0.47742 0.5362 0.0
H587 H 0.22281 0.53501 0.4659 0.0
H588 H 0.18608 0.44624 0.4968 0.0
H589 H 0.25693 0.52695 0.40312 0.0
H590 H 0.30045 0.49216 0.45922 0.0
H591 H 0.09534 0.43124 0.39275 0.0
H592 H 0.22519 0.5512 0.52358 0.0
H593 H 0.18846 0.46071 0.55547 0.0
H594 H 0.89943 0.28627 0.08498 0.0
H595 H 0.02975 0.28673 0.18726 0.0
H596 H 0.95773 0.36101 0.14556 0.0
H597 H 0.94422 0.20885 0.17861 0.0
H598 H 0.00985 0.31575 0.16064 0.0
H599 H 0.92167 0.25855 0.10833 0.0
C600 C 0.91704 0.2968 0.10313 0.0
C601 C 0.9268 0.32582 0.11354 0.0
C602 C 0.9956 0.29226 0.16435 0.0
C603 C 0.95261 0.29464 0.13974 0.0
C604 C 0.00697 0.27578 0.17911 0.0
C605 C 0.98849 0.24553 0.18478 0.0
C606 C 0.96583 0.27807 0.15461 0.0
C607 C 0.95901 0.23217 0.17445 0.0
C608 C 0.92962 0.28103 0.11645 0.0
C609 C 0.94954 0.33856 0.13724 0.0
N610 N 0.94858 0.24849 0.15965 0.0
N611 N 0.96194 0.32295 0.14941 0.0
H612 H 0.67422 0.58286 0.17502 0.0
H613 H 0.7607 0.75738 0.15056 0.0
H614 H 0.68372 0.62487 0.07926 0.0
H615 H 0.72666 0.71541 0.246 0.0
H616 H 0.7358 0.70898 0.12405 0.0
H617 H 0.69657 0.63124 0.20164 0.0
C618 C 0.68073 0.60205 0.1595 0.0
C619 C 0.67701 0.59946 0.12464 0.0
C620 C 0.73376 0.71046 0.1508 0.0
C621 C 0.70322 0.65518 0.15515 0.0
C622 C 0.7479 0.73819 0.16604 0.0
C623 C 0.74601 0.74082 0.20078 0.0
C624 C 0.7178 0.68503 0.17038 0.0
C625 C 0.72932 0.71475 0.21931 0.0
C626 C 0.69364 0.62976 0.17479 0.0
C627 C 0.68646 0.62551 0.10605 0.0
N628 N 0.71603 0.68803 0.20393 0.0
N629 N 0.69922 0.65219 0.12149 0.0
H630 H 0.42441 0.10071 0.16693 0.0
H631 H 0.24941 0.00608 0.14219 0.0
H632 H 0.38363 0.0555 0.07495 0.0
H633 H 0.29233 0.03929 0.23725 0.0
H634 H 0.298 0.02444 0.11636 0.0
H635 H 0.37582 0.07892 0.19257 0.0
C636 C 0.40536 0.08601 0.15213 0.0
C637 C 0.40834 0.08006 0.1186 0.0
C638 C 0.29668 0.02762 0.14289 0.0
C639 C 0.35225 0.05529 0.14783 0.0
C640 C 0.26894 0.01705 0.15766 0.0
C641 C 0.26667 0.0214 0.19191 0.0
C642 C 0.3223 0.04267 0.16252 0.0
C643 C 0.29284 0.03599 0.21067 0.0
C644 C 0.3775 0.07367 0.16678 0.0
C645 C 0.38253 0.06116 0.10067 0.0
N646 N 0.31946 0.04615 0.19573 0.0
N647 N 0.3556 0.04955 0.11545 0.0
H648 H 0.27776 0.02455 0.83116 0.0
H649 H 0.32775 0.90286 0.81911 0.0
H650 H 0.25411 0.96276 0.74959 0.0
H651 H 0.34346 0.95835 0.90528 0.0
H652 H 0.3031 0.92649 0.79178 0.0
H653 H 0.30356 1.0019 0.85779 0.0
C654 C 0.2778 0.00615 0.81888 0.0
C655 C 0.26368 0.99565 0.78797 0.0
C656 C 0.31196 0.93351 0.81667 0.0
C657 C 0.29361 0.9698 0.81821 0.0
C658 C 0.32623 0.92016 0.83219 0.0
C659 C 0.33762 0.92854 0.8646 0.0
C660 C 0.30917 0.95553 0.83361 0.0
C661 C 0.33465 0.95086 0.8805 0.0
C662 C 0.29272 0.99332 0.83404 0.0
C663 C 0.26498 0.97197 0.77311 0.0
N664 N 0.32073 0.96356 0.86487 0.0
N665 N 0.27966 0.95989 0.78833 0.0
H666 H 0.05976 0.3838 0.91754 0.0
H667 H 0.01963 0.2924 0.74775 0.0
H668 H 0.09545 0.42378 0.8217 0.0
H669 H 0.00885 0.25215 0.84486 0.0
H670 H 0.04214 0.34059 0.77429 0.0
H671 H 0.03577 0.33551 0.89103 0.0
C672 C 0.06277 0.38262 0.89099 0.0
C673 C 0.08004 0.40825 0.87203 0.0
C674 C 0.03485 0.32118 0.78976 0.0
C675 C 0.05188 0.35259 0.84137 0.0
C676 C 0.02204 0.2935 0.77461 0.0
C677 C 0.0124 0.26782 0.79393 0.0
C678 C 0.03784 0.32341 0.82459 0.0
C679 C 0.01563 0.27106 0.8288 0.0
C680 C 0.04887 0.35489 0.87585 0.0
C681 C 0.08228 0.40493 0.83747 0.0
N682 N 0.02805 0.29832 0.84298 0.0
N683 N 0.06837 0.37765 0.8233 0.0
H684 H 0.62448 0.66673 0.90762 0.0
H685 H 0.71703 0.75455 0.7464 0.0
H686 H 0.58531 0.68145 0.8202 0.0
H687 H 0.75504 0.73446 0.83107 0.0
H688 H 0.6688 0.72833 0.77317 0.0
H689 H 0.67253 0.69194 0.88022 0.0
C690 C 0.62598 0.67534 0.88268 0.0
C691 C 0.60079 0.67207 0.86627 0.0
C692 C 0.68768 0.72963 0.7859 0.0
C693 C 0.65587 0.70088 0.83457 0.0
C694 C 0.71528 0.74451 0.77053 0.0
C695 C 0.74027 0.74669 0.78638 0.0
C696 C 0.68491 0.71681 0.81745 0.0
C697 C 0.73657 0.73368 0.81801 0.0
C698 C 0.65344 0.68962 0.86697 0.0
C699 C 0.60404 0.68321 0.83369 0.0
N700 N 0.70943 0.71929 0.83246 0.0
N701 N 0.63109 0.69723 0.81897 0.0
H702 H 0.69243 0.60614 0.48927 0.0
H703 H 0.57351 0.65955 0.50476 0.0
H704 H 0.63407 0.58629 0.57362 0.0
H705 H 0.62708 0.67361 0.41724 0.0
H706 H 0.59693 0.63441 0.53141 0.0
H707 H 0.66953 0.63183 0.46291 0.0
C708 C 0.67471 0.60697 0.5022 0.0
C709 C 0.6653 0.59402 0.53384 0.0
C710 C 0.60357 0.64301 0.50636 0.0
C711 C 0.63918 0.62383 0.50391 0.0
C712 C 0.59034 0.65757 0.49124 0.0
C713 C 0.59824 0.66865 0.45865 0.0
C714 C 0.62497 0.6396 0.48886 0.0
C715 C 0.61996 0.66506 0.44217 0.0
C716 C 0.66175 0.62184 0.4872 0.0
C717 C 0.64245 0.59628 0.54951 0.0
N718 N 0.63254 0.65087 0.45743 0.0
N719 N 0.63024 0.61089 0.53442 0.0
H720 H 0.33975 0.9173 0.50943 0.0
H721 H 0.42589 0.09192 0.48571 0.0
H722 H 0.34803 0.95976 0.41429 0.0
H723 H 0.39519 0.04971 0.58168 0.0
H724 H 0.39985 0.04363 0.45905 0.0
H725 H 0.36233 0.96555 0.53646 0.0
C726 C 0.34603 0.9366 0.49417 0.0
C727 C 0.342 0.93422 0.45936 0.0
C728 C 0.39875 0.04501 0.48595 0.0
C729 C 0.36842 0.98973 0.49025 0.0
C730 C 0.41355 0.07268 0.50127 0.0
C731 C 0.41297 0.07517 0.53618 0.0
C732 C 0.38343 0.01952 0.50561 0.0
C733 C 0.39683 0.04909 0.55483 0.0
C734 C 0.35908 0.96422 0.50966 0.0
C735 C 0.3511 0.96031 0.44102 0.0
N736 N 0.38288 0.02241 0.53935 0.0
N737 N 0.36399 0.98691 0.45664 0.0
H738 H 0.09652 0.42798 0.51062 0.0
H739 H 0.92189 0.3406 0.48665 0.0
H740 H 0.0539 0.39375 0.41555 0.0
H741 H 0.96383 0.35112 0.58267 0.0
H742 H 0.97023 0.36296 0.46017 0.0
H743 H 0.04823 0.40272 0.53765 0.0
C744 C 0.07718 0.41504 0.49538 0.0
C745 C 0.07952 0.41327 0.46058 0.0
C746 C 0.96877 0.36026 0.48705 0.0
C747 C 0.024 0.38468 0.49145 0.0
C748 C 0.94107 0.34733 0.50227 0.0
C749 C 0.93846 0.34385 0.53714 0.0
C750 C 0.9942 0.37011 0.50677 0.0
C751 C 0.96451 0.35364 0.55585 0.0
C752 C 0.04955 0.40071 0.51087 0.0
C753 C 0.05339 0.39638 0.44226 0.0
N754 N 0.99122 0.36641 0.54046 0.0
N755 N 0.02679 0.38293 0.45787 0.0
H756 H 0.1744 0.42634 0.33733 0.0
H757 H 0.0953 0.24995 0.32391 0.0
H758 H 0.18002 0.37121 0.41387 0.0
H759 H 0.10633 0.30665 0.2403 0.0
H760 H 0.1234 0.29404 0.35883 0.0
H761 H 0.14758 0.38255 0.30187 0.0
C762 C 0.17039 0.40516 0.34648 0.0
C763 C 0.17945 0.40247 0.3786 0.0
C764 C 0.11962 0.29675 0.33281 0.0
C765 C 0.14828 0.35225 0.3386 0.0
C766 C 0.10343 0.2716 0.31301 0.0
C767 C 0.0986 0.27464 0.27918 0.0
C768 C 0.13073 0.325 0.31867 0.0
C769 C 0.10973 0.30324 0.26622 0.0
C770 C 0.1549 0.38013 0.32636 0.0
C771 C 0.17338 0.37437 0.38931 0.0
N772 N 0.12521 0.32725 0.28594 0.0
N773 N 0.15801 0.35038 0.3695 0.0
H774 H 0.58604 0.76766 0.33654 0.0
H775 H 0.76166 0.8523 0.32305 0.0
H776 H 0.64327 0.8082 0.4214 0.0
H777 H 0.70515 0.84048 0.23886 0.0
H778 H 0.71836 0.83325 0.35983 0.0
H779 H 0.62945 0.79132 0.29986 0.0
C780 C 0.60761 0.78169 0.3474 0.0
C781 C 0.61098 0.78591 0.38205 0.0
C782 C 0.71559 0.83509 0.3333 0.0
C783 C 0.66062 0.81255 0.34052 0.0
C784 C 0.74028 0.84597 0.31236 0.0
C785 C 0.73707 0.84799 0.27786 0.0
C786 C 0.68754 0.82579 0.31949 0.0
C787 C 0.70877 0.83934 0.26531 0.0
C788 C 0.63236 0.79515 0.32653 0.0
C789 C 0.63953 0.80425 0.39483 0.0
N790 N 0.68511 0.82838 0.28603 0.0
N791 N 0.66322 0.81664 0.37414 0.0
H792 H 0.20686 0.90393 0.23549 0.0
H793 H 0.19813 0.83272 0.41432 0.0
H794 H 0.15954 0.91287 0.3188 0.0
H795 H 0.25827 0.83882 0.33679 0.0
H796 H 0.18026 0.85782 0.37807 0.0
H797 H 0.22293 0.87694 0.27095 0.0
C798 C 0.19982 0.90024 0.26135 0.0
C799 C 0.1817 0.91064 0.27419 0.0
C800 C 0.19725 0.85357 0.36888 0.0
C801 C 0.20008 0.87942 0.31502 0.0
C802 C 0.20741 0.83907 0.38948 0.0
C803 C 0.22986 0.83371 0.37861 0.0
C804 C 0.20948 0.86275 0.33701 0.0
C805 C 0.2409 0.84239 0.34616 0.0
C806 C 0.2091 0.8848 0.28159 0.0
C807 C 0.17354 0.90532 0.30792 0.0
N808 N 0.23066 0.85659 0.32654 0.0
N809 N 0.18269 0.88992 0.32718 0.0
H810 H 0.40017 0.2202 0.61292 0.0
H811 H 0.26817 0.07281 0.68656 0.0
H812 H 0.40953 0.14434 0.63276 0.0
H813 H 0.28429 0.15771 0.72083 0.0
H814 H 0.31516 0.09755 0.6558 0.0
H815 H 0.35361 0.19695 0.64427 0.0
C816 C 0.39273 0.19896 0.62464 0.0
C817 C 0.40889 0.18438 0.62095 0.0
C818 C 0.30812 0.11069 0.66972 0.0
C819 C 0.35511 0.15707 0.65496 0.0
C820 C 0.28116 0.09667 0.68674 0.0
C821 C 0.27233 0.11336 0.70587 0.0
C822 C 0.32589 0.14154 0.6714 0.0
C823 C 0.29031 0.14417 0.70607 0.0
C824 C 0.36611 0.18563 0.64217 0.0
C825 C 0.39801 0.15655 0.63576 0.0
N826 N 0.31621 0.15733 0.689 0.0
N827 N 0.37148 0.14353 0.65172 0.0
H828 H 0.8295 0.24841 0.65934 0.0
H829 H 0.91534 0.15815 0.6733 0.0
H830 H 0.84364 0.20524 0.57527 0.0
H831 H 0.87607 0.17639 0.75821 0.0
H832 H 0.89191 0.17813 0.63658 0.0
H833 H 0.84917 0.22483 0.69635 0.0
C834 C 0.83647 0.23384 0.64872 0.0
C835 C 0.83491 0.22884 0.61418 0.0
C836 C 0.88832 0.17753 0.66327 0.0
C837 C 0.8578 0.20225 0.65608 0.0
C838 C 0.90166 0.16611 0.68418 0.0
C839 C 0.89767 0.16554 0.71885 0.0
C840 C 0.87123 0.18878 0.67723 0.0
C841 C 0.8798 0.17632 0.73163 0.0
C842 C 0.84773 0.22043 0.66978 0.0
C843 C 0.84442 0.20983 0.60173 0.0
N844 N 0.86746 0.18767 0.7109 0.0
N845 N 0.85564 0.19746 0.62257 0.0
H846 H 0.83948 0.70309 0.75307 0.0
H847 H 0.80561 0.6407 0.5672 0.0
H848 H 0.85064 0.75791 0.66742 0.0
H849 H 0.76722 0.58535 0.65387 0.0
H850 H 0.82939 0.68377 0.60337 0.0
H851 H 0.82045 0.6602 0.71666 0.0
C852 C 0.8382 0.70623 0.72651 0.0
C853 C 0.84659 0.73425 0.71329 0.0
C854 C 0.81588 0.66222 0.6145 0.0
C855 C 0.82472 0.68489 0.67145 0.0
C856 C 0.80233 0.63749 0.59392 0.0
C857 C 0.78424 0.60925 0.60752 0.0
C858 C 0.81165 0.65881 0.64909 0.0
C859 C 0.78094 0.60665 0.64232 0.0
C860 C 0.82717 0.6816 0.70579 0.0
C861 C 0.84443 0.73678 0.67867 0.0
N862 N 0.79453 0.63117 0.66195 0.0
N863 N 0.83365 0.71236 0.6589 0.0
H864 H 0.91804 0.42993 0.0006 0.0
H865 H 0.09382 0.52046 0.99025 0.0
H866 H 0.97357 0.47336 0.08587 0.0
H867 H 0.03795 0.50507 0.90439 0.0
H868 H 0.0499 0.50064 0.02611 0.0
H869 H 0.96178 0.4548 0.9645 0.0
C870 C 0.93928 0.44487 0.01167 0.0
C871 C 0.9421 0.44948 0.04629 0.0
C872 C 0.04739 0.50187 -0.0006 0.0
C873 C 0.99213 0.4775 0.00544 0.0
C874 C 0.07245 0.51321 0.979 0.0
C875 C 0.06961 0.51443 0.9443 0.0
C876 C 0.01936 0.49133 0.9849 0.0
C877 C 0.04128 0.50456 0.93101 0.0
C878 C 0.96423 0.45901 0.99112 0.0
C879 C 0.97025 0.469 0.05933 0.0
N880 N 0.01728 0.4932 0.95125 0.0
N881 N 0.99415 0.48202 0.03899 0.0
H882 H 0.50325 0.53116 0.90315 0.0
H883 H 0.54004 0.50598 0.08899 0.0
H884 H 0.4925 0.57554 0.98837 0.0
H885 H 0.57846 0.4888 0.00248 0.0
H886 H 0.51569 0.5245 0.05268 0.0
H887 H 0.5237 0.50863 0.93959 0.0
C888 C 0.50491 0.53601 0.92962 0.0
C889 C 0.49618 0.55543 0.94271 0.0
C890 C 0.52935 0.51661 0.0416 0.0
C891 C 0.51968 0.52947 0.98457 0.0
C892 C 0.54324 0.50586 0.06228 0.0
C893 C 0.56148 0.49584 0.04877 0.0
C894 C 0.53336 0.51711 0.007 0.0
C895 C 0.56465 0.49631 0.01396 0.0
C896 C 0.51676 0.52318 0.95034 0.0
C897 C 0.49891 0.56073 0.97721 0.0
N898 N 0.55069 0.50678 0.99422 0.0
N899 N 0.51045 0.54781 -0.00301 0.0
H900 H 0.50814 0.03534 0.08703 0.0
H901 H 0.47705 0.97305 0.90112 0.0
H902 H 0.52043 0.09027 0.00114 0.0
H903 H 0.43653 0.91773 0.98731 0.0
H904 H 0.50034 0.01607 0.93741 0.0
H905 H 0.48944 0.99248 0.05063 0.0
C906 C 0.50719 0.03852 0.06042 0.0
C907 C 0.51581 0.06657 0.04714 0.0
C908 C 0.48647 0.99453 0.94841 0.0
C909 C 0.49432 0.01721 0.00529 0.0
C910 C 0.47321 0.96983 0.92776 0.0
C911 C 0.45465 0.9416 0.94118 0.0
C912 C 0.48152 0.99113 0.98289 0.0
C913 C 0.45062 0.93901 0.9759 0.0
C914 C 0.49633 0.0139 0.03971 0.0
C915 C 0.51405 0.06912 0.01245 0.0
N916 N 0.46397 0.9635 0.9956 0.0
N917 N 0.50346 0.04471 0.99268 0.0
H918 H 0.05942 0.14443 0.07572 0.0
H919 H 0.03331 0.14966 0.906 0.0
H920 H 0.97834 0.14586 0.08926 0.0
H921 H 0.94386 0.1227 0.93469 0.0
H922 H 0.04558 0.14874 0.96447 0.0
H923 H 0.04864 0.13547 0.01624 0.0
C924 C 0.03934 0.14287 0.0661 0.0
C925 C 0.01994 0.14627 0.08743 0.0
C926 C 0.02307 0.14231 0.95816 0.0
C927 C 0.00775 0.13688 0.01904 0.0
C928 C 0.0161 0.14298 0.92461 0.0
C929 C 0.9876 0.13651 0.91545 0.0
C930 C 1.00127 0.13492 0.98277 0.0
C931 C 0.96627 0.12841 0.94066 0.0
C932 C 0.03327 0.13799 0.032 0.0
C933 C 0.99389 0.14331 0.07381 0.0
N934 N 0.97362 0.12809 0.97312 0.0
N935 N 0.98871 0.13905 0.04047 0.0
H936 H 0.84743 0.87793 0.89956 0.0
H937 H 0.87796 0.84924 0.08794 0.0
H938 H 0.88673 0.82534 0.92649 0.0
H939 H 0.82376 0.88682 0.0613 0.0
H940 H 0.88925 0.84837 0.02877 0.0
H941 H 0.84651 0.88941 0.95871 0.0
C942 C 0.85621 0.86914 0.91791 0.0
C943 C 0.86679 0.85035 0.90826 0.0
C944 C 0.87506 0.85701 0.03591 0.0
C945 C 0.86569 0.8632 0.97575 0.0
C946 C 0.86875 0.85765 0.06965 0.0
C947 C 0.8496 0.86775 0.07941 0.0
C948 C 0.86223 0.86668 0.01185 0.0
C949 C 0.83815 0.87829 0.05472 0.0
C950 C 0.85554 0.87554 0.95163 0.0
C951 C 0.87784 0.83945 0.93299 0.0
N952 N 0.84451 0.87733 0.02204 0.0
N953 N 0.87684 0.84588 0.96563 0.0
H954 H 0.19362 0.07137 0.92673 0.0
H955 H 0.10071 0.95064 0.06598 0.0
H956 H 0.13029 0.98053 0.9042 0.0
H957 H 0.17456 0.03701 0.08762 0.0
H958 H 0.1056 0.96361 0.00675 0.0
H959 H 0.18134 0.06133 0.98583 0.0
C960 C 0.17714 0.04928 0.93421 0.0
C961 C 0.16332 0.02662 0.91051 0.0
C962 C 0.12053 0.97981 0.02453 0.0
C963 C 0.14886 0.01509 0.97817 0.0
C964 C 0.11781 0.97241 0.05833 0.0
C965 C 0.13747 0.99264 0.08181 0.0
C966 C 0.14305 0.00766 0.0141 0.0
C967 C 0.15879 0.02074 0.07052 0.0
C968 C 0.17001 0.04362 0.96795 0.0
C969 C 0.1415 0.99866 0.92159 0.0
N970 N 0.16117 0.02731 0.03745 0.0
N971 N 0.13511 0.99361 0.95467 0.0
H972 H 0.70008 0.48777 0.23522 0.0
H973 H 0.64203 0.46069 0.42404 0.0
H974 H 0.60862 0.4513 0.26258 0.0
H975 H 0.73369 0.51335 0.39634 0.0
H976 H 0.62933 0.44838 0.36506 0.0
H977 H 0.71254 0.48855 0.29431 0.0
C978 C 0.68259 0.47955 0.25365 0.0
C979 C 0.65336 0.46984 0.24413 0.0
C980 C 0.65225 0.46242 0.37195 0.0
C981 C 0.66739 0.47082 0.31158 0.0
C982 C 0.6595 0.4693 0.40557 0.0
C983 C 0.68888 0.48838 0.41493 0.0
C984 C 0.67458 0.47458 0.34764 0.0
C985 C 0.71068 0.49903 0.39004 0.0
C986 C 0.68971 0.48015 0.28734 0.0
C987 C 0.63153 0.45952 0.26898 0.0
N988 N 0.70307 0.49214 0.3575 0.0
N989 N 0.63901 0.46045 0.3016 0.0
H990 H 0.54263 0.1823 0.42216 0.0
H991 H 0.51038 0.20727 0.2329 0.0
H992 H 0.48652 0.21754 0.39486 0.0
H993 H 0.55166 0.15681 0.26115 0.0
H994 H 0.50825 0.2184 0.29197 0.0
H995 H 0.55295 0.18003 0.363 0.0
C996 C 0.53276 0.18987 0.40372 0.0
C997 C 0.51347 0.19984 0.41339 0.0
C998 C 0.51793 0.20504 0.28519 0.0
C999 C 0.52498 0.19712 0.34571 0.0
C1000 C 0.5193 0.19884 0.25152 0.0
C1001 C 0.5309 0.18083 0.24223 0.0
C1002 C 0.52845 0.19331 0.30964 0.0
C1003 C 0.54205 0.17035 0.26733 0.0
C1004 C 0.53851 0.18841 0.36997 0.0
C1005 C 0.5011 0.2092 0.38844 0.0
N1006 N 0.54044 0.17664 0.29989 0.0
N1007 N 0.50697 0.2075 0.35572 0.0
H1008 H 0.85829 0.39989 0.26103 0.0
H1009 H 0.7915 0.27252 0.39742 0.0
H1010 H 0.80234 0.30801 0.23613 0.0
H1011 H 0.83123 0.36488 0.42211 0.0
H1012 H 0.7937 0.28495 0.33825 0.0
H1013 H 0.8473 0.38766 0.32013 0.0
C1014 C 0.84359 0.37713 0.26807 0.0
C1015 C 0.83146 0.35485 0.24378 0.0
C1016 C 0.80166 0.30249 0.35659 0.0
C1017 C 0.81879 0.34067 0.31128 0.0
C1018 C 0.80055 0.29542 0.39032 0.0
C1019 C 0.81151 0.31777 0.41458 0.0
C1020 C 0.81418 0.33217 0.347 0.0
C1021 C 0.82254 0.34701 0.40415 0.0
C1022 C 0.83719 0.37018 0.30176 0.0
C1023 C 0.81214 0.32582 0.25412 0.0
N1024 N 0.82394 0.35342 0.37107 0.0
N1025 N 0.80667 0.31949 0.28717 0.0
H1026 H 0.31016 0.79668 0.75792 0.0
H1027 H 0.36409 0.82109 0.56756 0.0
H1028 H 0.40149 0.84562 0.72784 0.0
H1029 H 0.2736 0.78771 0.59732 0.0
H1030 H 0.37754 0.82199 0.62626 0.0
H1031 H 0.29589 0.78499 0.6992 0.0
C1032 C 0.3272 0.8046 0.73897 0.0
C1033 C 0.357 0.82244 0.74762 0.0
C1034 C 0.3547 0.81427 0.61991 0.0
C1035 C 0.34091 0.80937 0.6806 0.0
C1036 C 0.347 0.81359 0.58643 0.0
C1037 C 0.31776 0.80465 0.57765 0.0
C1038 C 0.33298 0.8058 0.64474 0.0
C1039 C 0.29651 0.79531 0.6031 0.0
C1040 C 0.31906 0.79809 0.7055 0.0
C1041 C 0.37823 0.83226 0.72213 0.0
N1042 N 0.30457 0.79628 0.63553 0.0
N1043 N 0.36976 0.82574 0.68975 0.0
H1044 H 0.18978 0.54511 0.57006 0.0
H1045 H 0.21387 0.51379 0.75994 0.0
H1046 H 0.2254 0.48962 0.59861 0.0
H1047 H 0.16205 0.5533 0.73049 0.0
H1048 H 0.22614 0.51238 0.70115 0.0
H1049 H 0.18748 0.55601 0.62905 0.0
C1050 C 0.19748 0.53555 0.58874 0.0
C1051 C 0.20748 0.51618 0.57951 0.0
C1052 C 0.21225 0.52154 0.7076 0.0
C1053 C 0.20471 0.52834 0.64694 0.0
C1054 C 0.20539 0.52249 0.74111 0.0
C1055 C 0.18664 0.53334 0.74996 0.0
C1056 C 0.20044 0.53173 0.68288 0.0
C1057 C 0.17614 0.54424 0.72462 0.0
C1058 C 0.196 0.54162 0.62239 0.0
C1059 C 0.21703 0.50424 0.60473 0.0
N1060 N 0.18307 0.54303 0.69221 0.0
N1061 N 0.21527 0.51039 0.63732 0.0
H1062 H 0.45315 0.60532 0.72884 0.0
H1063 H 0.51865 0.73644 0.59657 0.0
H1064 H 0.49419 0.69717 0.75643 0.0
H1065 H 0.46764 0.64459 0.56902 0.0
H1066 H 0.50695 0.72262 0.6552 0.0
H1067 H 0.45517 0.61917 0.67023 0.0
C1068 C 0.46246 0.62841 0.72251 0.0
C1069 C 0.47387 0.65019 0.74742 0.0
C1070 C 0.49805 0.70548 0.63635 0.0
C1071 C 0.47626 0.66622 0.68045 0.0
C1072 C 0.50485 0.71335 0.60291 0.0
C1073 C 0.49439 0.69157 0.57801 0.0
C1074 C 0.4809 0.67557 0.645 0.0
C1075 C 0.47614 0.66206 0.58748 0.0
C1076 C 0.46347 0.6363 0.68909 0.0
C1077 C 0.48516 0.67972 0.73797 0.0
N1078 N 0.47026 0.65487 0.62029 0.0
N1079 N 0.4864 0.68691 0.70516 0.0
H1080 H 0.08407 0.99111 0.29802 0.0
H1081 H 0.15468 0.15771 0.23213 0.0
H1082 H 0.16924 0.03985 0.25067 0.0
H1083 H 0.06445 0.10647 0.26549 0.0
H1084 H 0.16184 0.11609 0.24455 0.0
H1085 H 0.07817 0.03475 0.29295 0.0
C1086 C 0.10174 0.01114 0.28718 0.0
C1087 C 0.12712 0.01186 0.2746 0.0
C1088 C 0.14044 0.11389 0.24919 0.0
C1089 C 0.12044 0.06154 0.26835 0.0
C1090 C 0.13638 0.13773 0.24217 0.0
C1091 C 0.1089 0.13562 0.24762 0.0
C1092 C 0.1169 0.08761 0.26194 0.0
C1093 C 0.08588 0.10897 0.2604 0.0
C1094 C 0.09826 0.03592 0.28398 0.0
C1095 C 0.1492 0.03825 0.26043 0.0
N1096 N 0.09039 0.08601 0.26715 0.0
N1097 N 0.14529 0.06192 0.25756 0.0
H1098 H 0.96797 0.13461 0.25717 0.0
H1099 H 0.90414 0.96087 0.26164 0.0
H1100 H 0.01576 0.09589 0.30169 0.0
H1101 H 0.85434 1.00211 0.23048 0.0
H1102 H 0.94393 0.0091 0.28038 0.0
H1103 H 0.92488 0.08572 0.25154 0.0
C1104 C 0.96921 0.11578 0.26629 0.0
C1105 C 0.9955 0.11932 0.27985 0.0
C1106 C 0.92416 0.0075 0.26971 0.0
C1107 C 0.94623 0.06287 0.27275 0.0
C1108 C 0.90137 0.97994 0.25909 0.0
C1109 C 0.87592 0.97742 0.24404 0.0
C1110 C 0.92149 0.0327 0.26521 0.0
C1111 C 0.87374 1.003 0.24119 0.0
C1112 C 0.94458 0.08778 0.26298 0.0
C1113 C 0.99584 0.09411 0.29126 0.0
N1114 N 0.89624 0.02948 0.25142 0.0
N1115 N 0.97168 0.06684 0.287 0.0
H1116 H 0.89828 0.90418 0.24804 0.0
H1117 H 0.01763 0.85146 0.26107 0.0
H1118 H 0.87686 0.81386 0.26183 0.0
H1119 H 0.03792 0.9364 0.22162 0.0
H1120 H 0.96749 0.84051 0.27212 0.0
H1121 H 0.95096 0.91953 0.25041 0.0
C1122 C 0.90463 0.8877 0.25259 0.0
C1123 C 0.8832 0.85765 0.25452 0.0
C1124 C 0.98293 0.8616 0.26113 0.0
C1125 C 0.9432 0.87497 0.25682 0.0
C1126 C 0.01163 0.86782 0.25448 0.0
C1127 C 0.03218 0.89475 0.23974 0.0
C1128 C 0.97444 0.88242 0.25316 0.0
C1129 C 0.02301 0.91535 0.23293 0.0
C1130 C 0.93468 0.89643 0.25352 0.0
C1131 C 0.89267 0.83722 0.25999 0.0
N1132 N 0.99478 0.90867 0.23949 0.0
N1133 N 0.92191 0.8462 0.26068 0.0
H1134 H 0.9982 0.10161 0.74148 0.0
H1135 H 0.16994 0.15654 0.74536 0.0
H1136 H 0.06726 0.19236 0.73234 0.0
H1137 H 0.10387 0.06438 0.74646 0.0
H1138 H 0.13195 0.16891 0.73204 0.0
H1139 H 0.03516 0.08616 0.73422 0.0
C1140 C 0.02095 0.11821 0.73684 0.0
C1141 C 0.02978 0.14834 0.7378 0.0
C1142 C 0.1256 0.1459 0.73478 0.0
C1143 C 0.07211 0.13094 0.73015 0.0
C1144 C 0.14734 0.1389 0.74248 0.0
C1145 C 0.13991 0.10949 0.74739 0.0
C1146 C 0.09595 0.12335 0.73259 0.0
C1147 C 0.11039 0.08734 0.74289 0.0
C1148 C 0.04209 0.1094 0.73302 0.0
C1149 C 0.05958 0.16892 0.73213 0.0
N1150 N 0.08932 0.09475 0.73631 0.0
N1151 N 0.07965 0.15988 0.72898 0.0
H1152 H 0.94466 0.04106 0.74921 0.0
H1153 H 0.81475 0.87494 0.72083 0.0
H1154 H 0.8517 0.01177 0.75262 0.0
H1155 H 0.90496 0.89739 0.73817 0.0
H1156 H 0.83045 0.92727 0.71807 0.0
H1157 H 0.93269 0.99092 0.73277 0.0
C1158 C 0.92179 0.02418 0.74602 0.0
C1159 C 0.89909 0.0304 0.75269 0.0
C1160 C 0.84697 0.92086 0.72193 0.0
C1161 C 0.88528 0.97333 0.73374 0.0
C1162 C 0.83803 0.89094 0.72324 0.0
C1163 C 0.85851 0.8818 0.73012 0.0
C1164 C 0.87662 0.94195 0.72794 0.0
C1165 C 0.88843 0.90349 0.73283 0.0
C1166 C 0.91497 0.99562 0.73676 0.0
C1167 C 0.86982 0.00777 0.74833 0.0
N1168 N 0.89656 0.93265 0.73238 0.0
N1169 N 0.86379 0.9803 0.73929 0.0
H1170 H 0.13471 0.9405 0.7279 0.0
H1171 H 0.96815 0.90609 0.74527 0.0
H1172 H 0.11245 0.00907 0.73862 0.0
H1173 H 0.99617 0.84154 0.75131 0.0
H1174 H 0.01907 0.94394 0.73098 0.0
H1175 H 0.08245 0.90416 0.72298 0.0
C1176 C 0.11877 0.94797 0.72849 0.0
C1177 C 0.12789 0.97777 0.73399 0.0
C1178 C 0.01393 0.9214 0.73505 0.0
C1179 C 0.06777 0.93609 0.72934 0.0
C1180 C 0.98493 0.89984 0.74306 0.0
C1181 C 0.97813 0.87079 0.74992 0.0
C1182 C 0.03606 0.91364 0.73352 0.0
C1183 C 1.00062 0.86379 0.74685 0.0
C1184 C 0.08889 0.92718 0.7259 0.0
C1185 C 0.10633 0.98629 0.73436 0.0
N1186 N 0.0285 0.88503 0.73906 0.0
N1187 N 0.07714 0.96544 0.73272 0.0
H1188 H 0.7729 0.33046 0.58644 0.0
H1189 H 0.82812 0.50201 0.57517 0.0
H1190 H 0.86347 0.39953 0.59752 0.0
H1191 H 0.73581 0.43624 0.57629 0.0
H1192 H 0.84039 0.46427 0.59005 0.0
H1193 H 0.75747 0.36767 0.59039 0.0
C1194 C 0.78944 0.35328 0.59081 0.0
C1195 C 0.81955 0.362 0.59136 0.0
C1196 C 0.81738 0.45795 0.5874 0.0
C1197 C 0.80219 0.40463 0.59516 0.0
C1198 C 0.81042 0.47954 0.57874 0.0
C1199 C 0.78097 0.47213 0.57409 0.0
C1200 C 0.79476 0.42845 0.59092 0.0
C1201 C 0.75881 0.44277 0.57962 0.0
C1202 C 0.78065 0.37457 0.59273 0.0
C1203 C 0.84005 0.39191 0.5966 0.0
N1204 N 0.76616 0.42184 0.58723 0.0
N1205 N 0.83105 0.41211 0.59784 0.0
H1206 H 0.68204 0.44537 0.5879 0.0
H1207 H 0.51075 0.32919 0.58229 0.0
H1208 H 0.61335 0.46688 0.60292 0.0
H1209 H 0.57657 0.30275 0.58045 0.0
H1210 H 0.54864 0.37905 0.5976 0.0
H1211 H 0.64521 0.39285 0.59368 0.0
C1212 C 0.65943 0.43914 0.59355 0.0
C1213 C 0.65065 0.46048 0.59457 0.0
C1214 C 0.55495 0.3624 0.59429 0.0
C1215 C 0.6084 0.40057 0.60049 0.0
C1216 C 0.53327 0.33396 0.58543 0.0
C1217 C 0.54068 0.31206 0.57975 0.0
C1218 C 0.58452 0.3693 0.59684 0.0
C1219 C 0.57009 0.31916 0.5846 0.0
C1220 C 0.63835 0.40912 0.59653 0.0
C1221 C 0.62099 0.45112 0.60154 0.0
N1222 N 0.59111 0.34737 0.5923 0.0
N1223 N 0.60093 0.42193 0.60374 0.0
H1224 H 0.71129 0.27639 0.57805 0.0
H1225 H 0.54361 0.14652 0.59368 0.0
H1226 H 0.68207 0.18344 0.57491 0.0
H1227 H 0.56779 0.23801 0.58485 0.0
H1228 H 0.59556 0.16127 0.59894 0.0
H1229 H 0.66049 0.26433 0.5912 0.0
C1230 C 0.69428 0.2535 0.58062 0.0
C1231 C 0.70074 0.23084 0.57492 0.0
C1232 C 0.58963 0.17826 0.59635 0.0
C1233 C 0.64287 0.2169 0.58998 0.0
C1234 C 0.55991 0.16982 0.59354 0.0
C1235 C 0.55143 0.19104 0.58854 0.0
C1236 C 0.61123 0.20819 0.59359 0.0
C1237 C 0.57343 0.22095 0.58874 0.0
C1238 C 0.66532 0.24662 0.588 0.0
C1239 C 0.67792 0.20155 0.57844 0.0
N1240 N 0.60245 0.22865 0.59057 0.0
N1241 N 0.65008 0.19546 0.58554 0.0
H1242 H 0.77126 0.39724 0.07953 0.0
H1243 H 0.73284 0.52654 0.06042 0.0
H1244 H 0.83357 0.49018 0.08884 0.0
H1245 H 0.66577 0.43537 0.07288 0.0
H1246 H 0.77003 0.51167 0.0561 0.0
H1247 H 0.73276 0.40916 0.0644 0.0
C1248 C 0.77689 0.42012 0.07791 0.0
C1249 C 0.8055 0.44279 0.08585 0.0
C1250 C 0.74714 0.49477 0.05921 0.0
C1251 C 0.76189 0.45655 0.06839 0.0
C1252 C 0.72586 0.50326 0.06139 0.0
C1253 C 0.69625 0.4822 0.06732 0.0
C1254 C 0.7389 0.46499 0.06343 0.0
C1255 C 0.68838 0.45231 0.06825 0.0
C1256 C 0.75495 0.4269 0.0694 0.0
C1257 C 0.81168 0.47206 0.08352 0.0
N1258 N 0.70971 0.44459 0.067 0.0
N1259 N 0.79008 0.47806 0.07514 0.0
H1260 H 0.5733 0.22886 0.07069 0.0
H1261 H 0.51781 0.34502 0.07836 0.0
H1262 H 0.48326 0.20752 0.05461 0.0
H1263 H 0.61007 0.37146 0.08144 0.0
H1264 H 0.50604 0.29523 0.06307 0.0
H1265 H 0.58886 0.28149 0.06707 0.0
C1266 C 0.55694 0.23518 0.06532 0.0
C1267 C 0.52687 0.21379 0.0633 0.0
C1268 C 0.52894 0.31186 0.06671 0.0
C1269 C 0.54438 0.27383 0.05985 0.0
C1270 C 0.53561 0.34027 0.07562 0.0
C1271 C 0.56488 0.36221 0.08157 0.0
C1272 C 0.55166 0.30501 0.06428 0.0
C1273 C 0.58721 0.35507 0.07709 0.0
C1274 C 0.56579 0.26526 0.06358 0.0
C1275 C 0.50661 0.22328 0.05673 0.0
N1276 N 0.58011 0.32691 0.06923 0.0
N1277 N 0.51566 0.25251 0.05572 0.0
H1278 H 0.80235 0.27652 0.05791 0.0
H1279 H 0.63508 0.23901 0.07959 0.0
H1280 H 0.77908 0.34391 0.07334 0.0
H1281 H 0.66523 0.17616 0.08667 0.0
H1282 H 0.68557 0.27753 0.0647 0.0
H1283 H 0.75016 0.23969 0.05391 0.0
C1284 C 0.7862 0.28365 0.05966 0.0
C1285 C 0.79503 0.31324 0.06628 0.0
C1286 C 0.68099 0.25521 0.06915 0.0
C1287 C 0.73503 0.27099 0.06268 0.0
C1288 C 0.65224 0.23327 0.07751 0.0
C1289 C 0.64616 0.2045 0.08476 0.0
C1290 C 0.70357 0.2481 0.06758 0.0
C1291 C 0.66912 0.19817 0.08186 0.0
C1292 C 0.75636 0.26258 0.05763 0.0
C1293 C 0.77318 0.32131 0.06817 0.0
N1294 N 0.69674 0.21976 0.07363 0.0
N1295 N 0.74407 0.30017 0.06702 0.0
H1296 H 0.49596 0.83221 0.9106 0.0
H1297 H 0.43802 0.66009 0.91976 0.0
H1298 H 0.40334 0.76742 0.90938 0.0
H1299 H 0.52886 0.72796 0.93263 0.0
H1300 H 0.42336 0.69783 0.92396 0.0
H1301 H 0.50723 0.7938 0.92572 0.0
C1302 C 0.47798 0.80981 0.91372 0.0
C1303 C 0.44875 0.80287 0.90832 0.0
C1304 C 0.44643 0.70434 0.92663 0.0
C1305 C 0.46138 0.75844 0.9254 0.0
C1306 C 0.45477 0.68275 0.92457 0.0
C1307 C 0.48476 0.69097 0.9255 0.0
C1308 C 0.46827 0.73424 0.92961 0.0
C1309 C 0.50554 0.7207 0.93137 0.0
C1310 C 0.48436 0.78784 0.92252 0.0
C1311 C 0.42618 0.77359 0.91329 0.0
N1312 N 0.49696 0.74124 0.93272 0.0
N1313 N 0.43298 0.75229 0.92103 0.0
H1314 H 0.28296 0.80228 0.93563 0.0
H1315 H 0.24324 0.6345 0.91246 0.0
H1316 H 0.34928 0.77778 0.91874 0.0
H1317 H 0.18098 0.66553 0.90797 0.0
H1318 H 0.2823 0.68473 0.92743 0.0
H1319 H 0.24571 0.75027 0.94012 0.0
C1320 C 0.2898 0.78591 0.93368 0.0
C1321 C 0.31919 0.79437 0.92645 0.0
C1322 C 0.25999 0.68039 0.92354 0.0
C1323 C 0.27643 0.73454 0.93061 0.0
C1324 C 0.23774 0.65179 0.91513 0.0
C1325 C 0.20897 0.64603 0.90856 0.0
C1326 C 0.25321 0.70317 0.92583 0.0
C1327 C 0.20297 0.66916 0.91222 0.0
C1328 C 0.26847 0.75617 0.93599 0.0
C1329 C 0.32686 0.77222 0.92436 0.0
N1330 N 0.22487 0.69665 0.92046 0.0
N1331 N 0.30547 0.74322 0.92577 0.0
H1332 H 0.20816 0.48081 0.93729 0.0
H1333 H 0.37584 0.60831 0.91291 0.0
H1334 H 0.233 0.57176 0.92083 0.0
H1335 H 0.34457 0.51496 0.90911 0.0
H1336 H 0.32588 0.5974 0.92869 0.0
H1337 H 0.26013 0.49536 0.94181 0.0
C1338 C 0.22461 0.504 0.93546 0.0
C1339 C 0.21628 0.52505 0.92833 0.0
C1340 C 0.3301 0.57936 0.9248 0.0
C1341 C 0.27601 0.54185 0.93246 0.0
C1342 C 0.35856 0.58557 0.91592 0.0
C1343 C 0.36414 0.56246 0.90927 0.0
C1344 C 0.3073 0.54985 0.92744 0.0
C1345 C 0.34104 0.53339 0.91339 0.0
C1346 C 0.25431 0.51229 0.93778 0.0
C1347 C 0.23848 0.55482 0.92637 0.0
N1348 N 0.31369 0.52794 0.92204 0.0
N1349 N 0.26745 0.56231 0.92774 0.0
H1350 H 0.33036 0.77007 0.40596 0.0
H1351 H 0.50269 0.82816 0.41517 0.0
H1352 H 0.39834 0.86123 0.39663 0.0
H1353 H 0.43784 0.73556 0.41624 0.0
H1354 H 0.46426 0.83951 0.40054 0.0
H1355 H 0.36821 0.75556 0.40102 0.0
C1356 C 0.35308 0.78694 0.40174 0.0
C1357 C 0.36132 0.81693 0.40199 0.0
C1358 C 0.45828 0.81662 0.40361 0.0
C1359 C 0.40465 0.80062 0.39704 0.0
C1360 C 0.48027 0.8102 0.41213 0.0
C1361 C 0.47333 0.78095 0.41736 0.0
C1362 C 0.42885 0.79368 0.40083 0.0
C1363 C 0.44401 0.75842 0.41247 0.0
C1364 C 0.37472 0.77868 0.39927 0.0
C1365 C 0.3911 0.83789 0.39691 0.0
N1366 N 0.4227 0.76526 0.405 0.0
N1367 N 0.41166 0.82938 0.39509 0.0
H1368 H 0.24245 0.56594 0.40659 0.0
H1369 H 0.18282 0.67929 0.41155 0.0
H1370 H 0.15087 0.54173 0.399 0.0
H1371 H 0.27548 0.70737 0.41534 0.0
H1372 H 0.17192 0.6294 0.39821 0.0
H1373 H 0.25636 0.61804 0.40039 0.0
C1374 C 0.22534 0.5715 0.40253 0.0
C1375 C 0.19544 0.54957 0.40357 0.0
C1376 C 0.19472 0.64641 0.40161 0.0
C1377 C 0.21107 0.60891 0.39714 0.0
C1378 C 0.20089 0.67488 0.40937 0.0
C1379 C 0.23001 0.69731 0.41502 0.0
C1380 C 0.21779 0.64003 0.39998 0.0
C1381 C 0.25271 0.69061 0.41122 0.0
C1382 C 0.23326 0.60125 0.39933 0.0
C1383 C 0.17416 0.558 0.39868 0.0
N1384 N 0.2461 0.66241 0.40446 0.0
N1385 N 0.18236 0.58695 0.39609 0.0
H1386 H 0.47245 0.61519 0.38882 0.0
H1387 H 0.30474 0.57461 0.41415 0.0
H1388 H 0.44748 0.68096 0.40733 0.0
H1389 H 0.3355 0.51206 0.4123 0.0
H1390 H 0.35482 0.6141 0.39958 0.0
H1391 H 0.42052 0.57789 0.38352 0.0
C1392 C 0.45599 0.6219 0.39097 0.0
C1393 C 0.46427 0.65113 0.39884 0.0
C1394 C 0.35046 0.59165 0.40197 0.0
C1395 C 0.40454 0.6083 0.39383 0.0
C1396 C 0.32193 0.56915 0.41015 0.0
C1397 C 0.31615 0.54014 0.41487 0.0
C1398 C 0.37317 0.58492 0.39813 0.0
C1399 C 0.33916 0.53421 0.40953 0.0
C1400 C 0.4263 0.60054 0.38819 0.0
C1401 C 0.44204 0.65865 0.4012 0.0
N1402 N 0.3666 0.55637 0.40164 0.0
N1403 N 0.41308 0.63722 0.39937 0.0
loop_
_geom_bond_atom_site_label_1
_geom_bond_atom_site_label_2
_geom_bond_distance
_geom_bond_site_symmetry_2
_ccdc_geom_bond_type
C0 C1 1.351 . S
C0 N3 1.368 . S
C0 H5 0.931 . S
C1 C0 1.351 . S
C1 N2 1.373 . S
C1 H29 0.930 . S
N2 C1 1.373 . S
N2 C4 1.340 . S
N3 C0 1.368 . S
N3 C4 1.321 . S
N3 Co6 2.135 . S
C4 N2 1.340 . S
C4 N3 1.321 . S
C4 H28 0.930 . S
H5 C0 0.931 . S
Co6 N3 2.135 . S
Co6 N9 2.121 1_455 S
Co6 O14 2.055 . S
Co6 O17 2.039 1_455 S
Co6 N20 2.140 . S
C7 O8 1.227 . S
C7 O17 1.265 . S
O8 C7 1.227 . S
N9 Co6 2.121 1_655 S
N9 C11 1.375 . S
N9 C12 1.313 . S
C10 C11 1.338 . S
C10 N13 1.377 . S
C10 H30 0.930 . S
C11 N9 1.375 . S
C11 C10 1.338 . S
C11 H15 0.931 . S
C12 N9 1.313 . S
C12 N13 1.344 . S
C12 H16 0.930 1_655 S
N13 C10 1.377 . S
N13 C12 1.344 . S
O14 Co6 2.055 . S
O14 C18 1.253 . S
H15 C11 0.931 . S
H16 C12 0.930 1_455 S
O17 Co6 2.039 1_655 S
O17 C7 1.265 . S
C18 O14 1.253 . S
C18 O19 1.227 . S
O19 C18 1.227 . S
N20 Co6 2.140 . S
N20 C23 1.346 . S
N20 C24 1.345 . S
C21 C22 1.387 . S
C21 C25 1.391 . S
C22 C21 1.387 . S
C22 C23 1.369 . S
C22 H31 0.929 . S
C23 N20 1.346 . S
C23 C22 1.369 . S
C23 H26 0.928 . S
C24 N20 1.345 . S
C24 C25 1.371 . S
C24 H27 0.931 . S
C25 C21 1.391 . S
C25 C24 1.371 . S
C25 H32 0.930 . S
H26 C23 0.928 . S
H27 C24 0.931 . S
H28 C4 0.930 . S
H29 C1 0.930 . S
H30 C10 0.930 . S
H31 C22 0.929 . S
H32 C25 0.930 . S
C33 C34 1.351 . S
C33 N36 1.368 . S
C33 H38 0.931 . S
C34 C33 1.351 . S
C34 N35 1.373 . S
C34 H62 0.930 . S
N35 C34 1.373 . S
N35 C37 1.340 . S
N36 C33 1.368 . S
N36 C37 1.321 . S
N36 Co39 2.135 . S
C37 N35 1.340 . S
C37 N36 1.321 . S
C37 H61 0.930 . S
H38 C33 0.931 . S
Co39 N36 2.135 . S
Co39 N42 2.121 . S
Co39 O47 2.055 . S
Co39 O50 2.039 . S
Co39 N53 2.140 . S
C40 O41 1.227 . S
C40 O50 1.265 . S
O41 C40 1.227 . S
N42 Co39 2.121 . S
N42 C44 1.375 . S
N42 C45 1.313 . S
C43 C44 1.338 . S
C43 N46 1.377 . S
C43 H63 0.930 . S
C44 N42 1.375 . S
C44 C43 1.338 . S
C44 H48 0.931 . S
C45 N42 1.313 . S
C45 N46 1.344 . S
C45 H49 0.930 . S
N46 C43 1.377 . S
N46 C45 1.344 . S
O47 Co39 2.055 . S
O47 C51 1.253 . S
H48 C44 0.931 . S
H49 C45 0.930 . S
O50 Co39 2.039 . S
O50 C40 1.265 . S
C51 O47 1.253 . S
C51 O52 1.227 . S
O52 C51 1.227 . S
N53 Co39 2.140 . S
N53 C56 1.346 . S
N53 C57 1.345 . S
C54 C55 1.387 . S
C54 C58 1.391 . S
C55 C54 1.387 . S
C55 C56 1.369 . S
C55 H64 0.929 . S
C56 N53 1.346 . S
C56 C55 1.369 . S
C56 H59 0.928 . S
C57 N53 1.345 . S
C57 C58 1.371 . S
C57 H60 0.931 . S
C58 C54 1.391 . S
C58 C57 1.371 . S
C58 H65 0.930 . S
H59 C56 0.928 . S
H60 C57 0.931 . S
H61 C37 0.930 . S
H62 C34 0.930 . S
H63 C43 0.930 . S
H64 C55 0.929 . S
H65 C58 0.930 . S
C66 C67 1.351 . S
C66 N69 1.368 . S
C66 H71 0.931 . S
C67 C66 1.351 . S
C67 N68 1.373 . S
C67 H95 0.930 . S
N68 C67 1.373 . S
N68 C70 1.340 . S
N69 C66 1.368 . S
N69 C70 1.321 . S
N69 Co72 2.135 . S
C70 N68 1.340 . S
C70 N69 1.321 . S
C70 H94 0.930 . S
H71 C66 0.931 . S
Co72 N69 2.135 . S
Co72 N75 2.121 1_565 S
Co72 O80 2.055 . S
Co72 O83 2.039 1_565 S
Co72 N86 2.140 . S
C73 O74 1.227 . S
C73 O83 1.265 . S
O74 C73 1.227 . S
N75 Co72 2.121 1_545 S
N75 C77 1.375 . S
N75 C78 1.313 . S
C76 C77 1.338 . S
C76 N79 1.377 . S
C76 H96 0.930 . S
C77 N75 1.375 . S
C77 C76 1.338 . S
C77 H81 0.931 . S
C78 N75 1.313 . S
C78 N79 1.344 . S
C78 H82 0.930 1_545 S
N79 C76 1.377 . S
N79 C78 1.344 . S
O80 Co72 2.055 . S
O80 C84 1.253 . S
H81 C77 0.931 . S
H82 C78 0.930 1_565 S
O83 Co72 2.039 1_545 S
O83 C73 1.265 . S
C84 O80 1.253 . S
C84 O85 1.227 . S
O85 C84 1.227 . S
N86 Co72 2.140 . S
N86 C89 1.346 . S
N86 C90 1.345 . S
C87 C88 1.387 . S
C87 C91 1.391 . S
C88 C87 1.387 . S
C88 C89 1.369 . S
C88 H97 0.929 . S
C89 N86 1.346 . S
C89 C88 1.369 . S
C89 H92 0.928 . S
C90 N86 1.345 . S
C90 C91 1.371 . S
C90 H93 0.931 . S
C91 C87 1.391 . S
C91 C90 1.371 . S
C91 H98 0.930 . S
H92 C89 0.928 . S
H93 C90 0.931 . S
H94 C70 0.930 . S
H95 C67 0.930 . S
H96 C76 0.930 . S
H97 C88 0.929 . S
H98 C91 0.930 . S
C99 C100 1.351 . S
C99 N102 1.368 . S
C99 H104 0.931 . S
C100 C99 1.351 . S
C100 N101 1.373 . S
C100 H128 0.930 . S
N101 C100 1.373 . S
N101 C103 1.340 . S
N102 C99 1.368 . S
N102 C103 1.321 . S
N102 Co105 2.135 . S
C103 N101 1.340 . S
C103 N102 1.321 . S
C103 H127 0.930 . S
H104 C99 0.931 . S
Co105 N102 2.135 . S
Co105 N108 2.121 1_545 S
Co105 O113 2.055 . S
Co105 O116 2.039 1_545 S
Co105 N119 2.140 . S
C106 O107 1.227 . S
C106 O116 1.265 . S
O107 C106 1.227 . S
N108 Co105 2.121 1_565 S
N108 C110 1.375 . S
N108 C111 1.313 . S
C109 C110 1.338 . S
C109 N112 1.377 . S
C109 H129 0.930 . S
C110 N108 1.375 . S
C110 C109 1.338 . S
C110 H114 0.931 . S
C111 N108 1.313 . S
C111 N112 1.344 . S
C111 H115 0.930 1_565 S
N112 C109 1.377 . S
N112 C111 1.344 . S
O113 Co105 2.055 . S
O113 C117 1.253 . S
H114 C110 0.931 . S
H115 C111 0.930 1_545 S
O116 Co105 2.039 1_565 S
O116 C106 1.265 . S
C117 O113 1.253 . S
C117 O118 1.227 . S
O118 C117 1.227 . S
N119 Co105 2.140 . S
N119 C122 1.346 . S
N119 C123 1.345 . S
C120 C121 1.387 . S
C120 C124 1.391 . S
C121 C120 1.387 . S
C121 C122 1.369 . S
C121 H130 0.929 . S
C122 N119 1.346 . S
C122 C121 1.369 . S
C122 H125 0.928 . S
C123 N119 1.345 . S
C123 C124 1.371 . S
C123 H126 0.931 . S
C124 C120 1.391 . S
C124 C123 1.371 . S
C124 H131 0.930 . S
H125 C122 0.928 . S
H126 C123 0.931 . S
H127 C103 0.930 . S
H128 C100 0.930 . S
H129 C109 0.930 . S
H130 C121 0.929 . S
H131 C124 0.930 . S
C132 C133 1.351 . S
C132 N135 1.368 . S
C132 H137 0.931 . S
C133 C132 1.351 . S
C133 N134 1.373 . S
C133 H161 0.930 . S
N134 C133 1.373 . S
N134 C136 1.340 . S
N135 C132 1.368 . S
N135 C136 1.321 . S
N135 Co138 2.135 . S
C136 N134 1.340 . S
C136 N135 1.321 . S
C136 H160 0.930 . S
H137 C132 0.931 . S
Co138 N135 2.135 . S
Co138 N141 2.121 1_655 S
Co138 O146 2.055 . S
Co138 O149 2.039 1_655 S
Co138 N152 2.140 . S
C139 O140 1.227 . S
C139 O149 1.265 . S
O140 C139 1.227 . S
N141 Co138 2.121 1_455 S
N141 C143 1.375 . S
N141 C144 1.313 . S
C142 C143 1.338 . S
C142 N145 1.377 . S
C142 H162 0.930 . S
C143 N141 1.375 . S
C143 C142 1.338 . S
C143 H147 0.931 . S
C144 N141 1.313 . S
C144 N145 1.344 . S
C144 H148 0.930 1_455 S
N145 C142 1.377 . S
N145 C144 1.344 . S
O146 Co138 2.055 . S
O146 C150 1.253 . S
H147 C143 0.931 . S
H148 C144 0.930 1_655 S
O149 Co138 2.039 1_455 S
O149 C139 1.265 . S
C150 O146 1.253 . S
C150 O151 1.227 . S
O151 C150 1.227 . S
N152 Co138 2.140 . S
N152 C155 1.346 . S
N152 C156 1.345 . S
C153 C154 1.387 . S
C153 C157 1.391 . S
C154 C153 1.387 . S
C154 C155 1.369 . S
C154 H163 0.929 . S
C155 N152 1.346 . S
C155 C154 1.369 . S
C155 H158 0.928 . S
C156 N152 1.345 . S
C156 C157 1.371 . S
C156 H159 0.931 . S
C157 C153 1.391 . S
C157 C156 1.371 . S
C157 H164 0.930 . S
H158 C155 0.928 . S
H159 C156 0.931 . S
H160 C136 0.930 . S
H161 C133 0.930 . S
H162 C142 0.930 . S
H163 C154 0.929 . S
H164 C157 0.930 . S
C165 C166 1.351 . S
C165 N168 1.368 . S
C165 H170 0.931 . S
C166 C165 1.351 . S
C166 N167 1.373 . S
C166 H194 0.930 . S
N167 C166 1.373 . S
N167 C169 1.340 . S
N168 C165 1.368 . S
N168 C169 1.321 . S
N168 Co171 2.135 . S
C169 N167 1.340 . S
C169 N168 1.321 . S
C169 H193 0.930 . S
H170 C165 0.931 . S
Co171 N168 2.135 . S
Co171 N174 2.121 . S
Co171 O179 2.055 . S
Co171 O182 2.039 . S
Co171 N185 2.140 . S
C172 O173 1.227 . S
C172 O182 1.265 . S
O173 C172 1.227 . S
N174 Co171 2.121 . S
N174 C176 1.375 . S
N174 C177 1.313 . S
C175 C176 1.338 . S
C175 N178 1.377 . S
C175 H195 0.930 . S
C176 N174 1.375 . S
C176 C175 1.338 . S
C176 H180 0.931 . S
C177 N174 1.313 . S
C177 N178 1.344 . S
C177 H181 0.930 . S
N178 C175 1.377 . S
N178 C177 1.344 . S
O179 Co171 2.055 . S
O179 C183 1.253 . S
H180 C176 0.931 . S
H181 C177 0.930 . S
O182 Co171 2.039 . S
O182 C172 1.265 . S
C183 O179 1.253 . S
C183 O184 1.227 . S
O184 C183 1.227 . S
N185 Co171 2.140 . S
N185 C188 1.346 . S
N185 C189 1.345 . S
C186 C187 1.387 . S
C186 C190 1.391 . S
C187 C186 1.387 . S
C187 C188 1.369 . S
C187 H196 0.929 . S
C188 N185 1.346 . S
C188 C187 1.369 . S
C188 H191 0.928 . S
C189 N185 1.345 . S
C189 C190 1.371 . S
C189 H192 0.931 . S
C190 C186 1.391 . S
C190 C189 1.371 . S
C190 H197 0.930 . S
H191 C188 0.928 . S
H192 C189 0.931 . S
H193 C169 0.930 . S
H194 C166 0.930 . S
H195 C175 0.930 . S
H196 C187 0.929 . S
H197 C190 0.930 . S
C198 C199 1.351 . S
C198 N201 1.368 . S
C198 H203 0.931 . S
C199 C198 1.351 . S
C199 N200 1.373 . S
C199 H227 0.930 . S
N200 C199 1.373 . S
N200 C202 1.340 . S
N201 C198 1.368 . S
N201 C202 1.321 . S
N201 Co204 2.135 . S
C202 N200 1.340 . S
C202 N201 1.321 . S
C202 H226 0.930 . S
H203 C198 0.931 . S
Co204 N201 2.135 . S
Co204 N207 2.121 . S
Co204 O212 2.055 . S
Co204 O215 2.039 . S
Co204 N218 2.140 . S
C205 O206 1.227 . S
C205 O215 1.265 . S
O206 C205 1.227 . S
N207 Co204 2.121 . S
N207 C209 1.375 . S
N207 C210 1.313 . S
C208 C209 1.338 . S
C208 N211 1.377 . S
C208 H228 0.930 . S
C209 N207 1.375 . S
C209 C208 1.338 . S
C209 H213 0.931 . S
C210 N207 1.313 . S
C210 N211 1.344 . S
C210 H214 0.930 . S
N211 C208 1.377 . S
N211 C210 1.344 . S
O212 Co204 2.055 . S
O212 C216 1.253 . S
H213 C209 0.931 . S
H214 C210 0.930 . S
O215 Co204 2.039 . S
O215 C205 1.265 . S
C216 O212 1.253 . S
C216 O217 1.227 . S
O217 C216 1.227 . S
N218 Co204 2.140 . S
N218 C221 1.346 . S
N218 C222 1.345 . S
C219 C220 1.387 . S
C219 C223 1.391 . S
C220 C219 1.387 . S
C220 C221 1.369 . S
C220 H229 0.929 . S
C221 N218 1.346 . S
C221 C220 1.369 . S
C221 H224 0.928 . S
C222 N218 1.345 . S
C222 C223 1.371 . S
C222 H225 0.931 . S
C223 C219 1.391 . S
C223 C222 1.371 . S
C223 H230 0.930 . S
H224 C221 0.928 . S
H225 C222 0.931 . S
H226 C202 0.930 . S
H227 C199 0.930 . S
H228 C208 0.930 . S
H229 C220 0.929 . S
H230 C223 0.930 . S
C231 C232 1.351 . S
C231 N234 1.368 . S
C231 H236 0.931 . S
C232 C231 1.351 . S
C232 N233 1.373 . S
C232 H260 0.930 . S
N233 C232 1.373 . S
N233 C235 1.340 . S
N234 C231 1.368 . S
N234 C235 1.321 . S
N234 Co237 2.135 . S
C235 N233 1.340 . S
C235 N234 1.321 . S
C235 H259 0.930 . S
H236 C231 0.931 . S
Co237 N234 2.135 . S
Co237 N240 2.121 . S
Co237 O245 2.055 . S
Co237 O248 2.039 . S
Co237 N251 2.140 . S
C238 O239 1.227 . S
C238 O248 1.265 . S
O239 C238 1.227 . S
N240 Co237 2.121 . S
N240 C242 1.375 . S
N240 C243 1.313 . S
C241 C242 1.338 . S
C241 N244 1.377 . S
C241 H261 0.930 . S
C242 N240 1.375 . S
C242 C241 1.338 . S
C242 H246 0.931 . S
C243 N240 1.313 . S
C243 N244 1.344 . S
C243 H247 0.930 . S
N244 C241 1.377 . S
N244 C243 1.344 . S
O245 Co237 2.055 . S
O245 C249 1.253 . S
H246 C242 0.931 . S
H247 C243 0.930 . S
O248 Co237 2.039 . S
O248 C238 1.265 . S
C249 O245 1.253 . S
C249 O250 1.227 . S
O250 C249 1.227 . S
N251 Co237 2.140 . S
N251 C254 1.346 . S
N251 C255 1.345 . S
C252 C253 1.387 . S
C252 C256 1.391 . S
C253 C252 1.387 . S
C253 C254 1.369 . S
C253 H262 0.929 . S
C254 N251 1.346 . S
C254 C253 1.369 . S
C254 H257 0.928 . S
C255 N251 1.345 . S
C255 C256 1.371 . S
C255 H258 0.931 . S
C256 C252 1.391 . S
C256 C255 1.371 . S
C256 H263 0.930 . S
H257 C254 0.928 . S
H258 C255 0.931 . S
H259 C235 0.930 . S
H260 C232 0.930 . S
H261 C241 0.930 . S
H262 C253 0.929 . S
H263 C256 0.930 . S
C264 C265 1.351 . S
C264 N267 1.368 . S
C264 H269 0.931 . S
C265 C264 1.351 . S
C265 N266 1.373 . S
C265 H293 0.930 . S
N266 C265 1.373 . S
N266 C268 1.340 . S
N267 C264 1.368 . S
N267 C268 1.321 . S
N267 Co270 2.135 . S
C268 N266 1.340 . S
C268 N267 1.321 . S
C268 H292 0.930 . S
H269 C264 0.931 . S
Co270 N267 2.135 . S
Co270 N273 2.121 . S
Co270 O278 2.055 . S
Co270 O281 2.039 . S
Co270 N284 2.140 . S
C271 O272 1.227 . S
C271 O281 1.265 . S
O272 C271 1.227 . S
N273 Co270 2.121 . S
N273 C275 1.375 . S
N273 C276 1.313 . S
C274 C275 1.338 . S
C274 N277 1.377 . S
C274 H294 0.930 . S
C275 N273 1.375 . S
C275 C274 1.338 . S
C275 H279 0.931 . S
C276 N273 1.313 . S
C276 N277 1.344 . S
C276 H280 0.930 . S
N277 C274 1.377 . S
N277 C276 1.344 . S
O278 Co270 2.055 . S
O278 C282 1.253 . S
H279 C275 0.931 . S
H280 C276 0.930 . S
O281 Co270 2.039 . S
O281 C271 1.265 . S
C282 O278 1.253 . S
C282 O283 1.227 . S
O283 C282 1.227 . S
N284 Co270 2.140 . S
N284 C287 1.346 . S
N284 C288 1.345 . S
C285 C286 1.387 . S
C285 C289 1.391 . S
C286 C285 1.387 . S
C286 C287 1.369 . S
C286 H295 0.929 . S
C287 N284 1.346 . S
C287 C286 1.369 . S
C287 H290 0.928 . S
C288 N284 1.345 . S
C288 C289 1.371 . S
C288 H291 0.931 . S
C289 C285 1.391 . S
C289 C288 1.371 . S
C289 H296 0.930 . S
H290 C287 0.928 . S
H291 C288 0.931 . S
H292 C268 0.930 . S
H293 C265 0.930 . S
H294 C274 0.930 . S
H295 C286 0.929 . S
H296 C289 0.930 . S
C297 C298 1.351 . S
C297 N300 1.368 . S
C297 H302 0.931 . S
C298 C297 1.351 . S
C298 N299 1.373 . S
C298 H326 0.930 . S
N299 C298 1.373 . S
N299 C301 1.340 . S
N300 C297 1.368 . S
N300 C301 1.321 . S
N300 Co303 2.135 . S
C301 N299 1.340 . S
C301 N300 1.321 . S
C301 H325 0.930 . S
H302 C297 0.931 . S
Co303 N300 2.135 . S
Co303 N306 2.121 . S
Co303 O311 2.055 . S
Co303 O314 2.039 . S
Co303 N317 2.140 . S
C304 O305 1.227 . S
C304 O314 1.265 . S
O305 C304 1.227 . S
N306 Co303 2.121 . S
N306 C308 1.375 . S
N306 C309 1.313 . S
C307 C308 1.338 . S
C307 N310 1.377 . S
C307 H327 0.930 . S
C308 N306 1.375 . S
C308 C307 1.338 . S
C308 H312 0.931 . S
C309 N306 1.313 . S
C309 N310 1.344 . S
C309 H313 0.930 . S
N310 C307 1.377 . S
N310 C309 1.344 . S
O311 Co303 2.055 . S
O311 C315 1.253 . S
H312 C308 0.931 . S
H313 C309 0.930 . S
O314 Co303 2.039 . S
O314 C304 1.265 . S
C315 O311 1.253 . S
C315 O316 1.227 . S
O316 C315 1.227 . S
N317 Co303 2.140 . S
N317 C320 1.346 . S
N317 C321 1.345 . S
C318 C319 1.387 . S
C318 C322 1.391 . S
C319 C318 1.387 . S
C319 C320 1.369 . S
C319 H328 0.929 . S
C320 N317 1.346 . S
C320 C319 1.369 . S
C320 H323 0.928 . S
C321 N317 1.345 . S
C321 C322 1.371 . S
C321 H324 0.931 . S
C322 C318 1.391 . S
C322 C321 1.371 . S
C322 H329 0.930 . S
H323 C320 0.928 . S
H324 C321 0.931 . S
H325 C301 0.930 . S
H326 C298 0.930 . S
H327 C307 0.930 . S
H328 C319 0.929 . S
H329 C322 0.930 . S
C330 C331 1.351 . S
C330 N333 1.368 . S
C330 H335 0.931 . S
C331 C330 1.351 . S
C331 N332 1.373 . S
C331 H359 0.930 . S
N332 C331 1.373 . S
N332 C334 1.340 . S
N333 C330 1.368 . S
N333 C334 1.321 . S
N333 Co336 2.135 . S
C334 N332 1.340 . S
C334 N333 1.321 . S
C334 H358 0.930 . S
H335 C330 0.931 . S
Co336 N333 2.135 . S
Co336 N339 2.121 . S
Co336 O344 2.055 . S
Co336 O347 2.039 . S
Co336 N350 2.140 . S
C337 O338 1.227 . S
C337 O347 1.265 . S
O338 C337 1.227 . S
N339 Co336 2.121 . S
N339 C341 1.375 . S
N339 C342 1.313 . S
C340 C341 1.338 . S
C340 N343 1.377 . S
C340 H360 0.930 . S
C341 N339 1.375 . S
C341 C340 1.338 . S
C341 H345 0.931 . S
C342 N339 1.313 . S
C342 N343 1.344 . S
C342 H346 0.930 . S
N343 C340 1.377 . S
N343 C342 1.344 . S
O344 Co336 2.055 . S
O344 C348 1.253 . S
H345 C341 0.931 . S
H346 C342 0.930 . S
O347 Co336 2.039 . S
O347 C337 1.265 . S
C348 O344 1.253 . S
C348 O349 1.227 . S
O349 C348 1.227 . S
N350 Co336 2.140 . S
N350 C353 1.346 . S
N350 C354 1.345 . S
C351 C352 1.387 . S
C351 C355 1.391 . S
C352 C351 1.387 . S
C352 C353 1.369 . S
C352 H361 0.929 . S
C353 N350 1.346 . S
C353 C352 1.369 . S
C353 H356 0.928 . S
C354 N350 1.345 . S
C354 C355 1.371 . S
C354 H357 0.931 . S
C355 C351 1.391 . S
C355 C354 1.371 . S
C355 H362 0.930 . S
H356 C353 0.928 . S
H357 C354 0.931 . S
H358 C334 0.930 . S
H359 C331 0.930 . S
H360 C340 0.930 . S
H361 C352 0.929 . S
H362 C355 0.930 . S
C363 C364 1.351 . S
C363 N366 1.368 . S
C363 H368 0.931 . S
C364 C363 1.351 . S
C364 N365 1.373 . S
C364 H392 0.930 . S
N365 C364 1.373 . S
N365 C367 1.340 . S
N366 C363 1.368 . S
N366 C367 1.321 . S
N366 Co369 2.135 . S
C367 N365 1.340 . S
C367 N366 1.321 . S
C367 H391 0.930 . S
H368 C363 0.931 . S
Co369 N366 2.135 . S
Co369 N372 2.121 . S
Co369 O377 2.055 . S
Co369 O380 2.039 . S
Co369 N383 2.140 . S
C370 O371 1.227 . S
C370 O380 1.265 . S
O371 C370 1.227 . S
N372 Co369 2.121 . S
N372 C374 1.375 . S
N372 C375 1.313 . S
C373 C374 1.338 . S
C373 N376 1.377 . S
C373 H393 0.930 . S
C374 N372 1.375 . S
C374 C373 1.338 . S
C374 H378 0.931 . S
C375 N372 1.313 . S
C375 N376 1.344 . S
C375 H379 0.930 . S
N376 C373 1.377 . S
N376 C375 1.344 . S
O377 Co369 2.055 . S
O377 C381 1.253 . S
H378 C374 0.931 . S
H379 C375 0.930 . S
O380 Co369 2.039 . S
O380 C370 1.265 . S
C381 O377 1.253 . S
C381 O382 1.227 . S
O382 C381 1.227 . S
N383 Co369 2.140 . S
N383 C386 1.346 . S
N383 C387 1.345 . S
C384 C385 1.387 . S
C384 C388 1.391 . S
C385 C384 1.387 . S
C385 C386 1.369 . S
C385 H394 0.929 . S
C386 N383 1.346 . S
C386 C385 1.369 . S
C386 H389 0.928 . S
C387 N383 1.345 . S
C387 C388 1.371 . S
C387 H390 0.931 . S
C388 C384 1.391 . S
C388 C387 1.371 . S
C388 H395 0.930 . S
H389 C386 0.928 . S
H390 C387 0.931 . S
H391 C367 0.930 . S
H392 C364 0.930 . S
H393 C373 0.930 . S
H394 C385 0.929 . S
H395 C388 0.930 . S
C396 C397 1.351 . S
C396 N399 1.368 . S
C396 H401 0.931 . S
C397 C396 1.351 . S
C397 N398 1.373 . S
C397 H425 0.930 . S
N398 C397 1.373 . S
N398 C400 1.340 . S
N399 C396 1.368 . S
N399 C400 1.321 . S
N399 Co402 2.135 . S
C400 N398 1.340 . S
C400 N399 1.321 . S
C400 H424 0.930 . S
H401 C396 0.931 . S
Co402 N399 2.135 . S
Co402 N405 2.121 . S
Co402 O410 2.055 . S
Co402 O413 2.039 . S
Co402 N416 2.140 . S
C403 O404 1.227 . S
C403 O413 1.265 . S
O404 C403 1.227 . S
N405 Co402 2.121 . S
N405 C407 1.375 . S
N405 C408 1.313 . S
C406 C407 1.338 . S
C406 N409 1.377 . S
C406 H426 0.930 . S
C407 N405 1.375 . S
C407 C406 1.338 . S
C407 H411 0.931 . S
C408 N405 1.313 . S
C408 N409 1.344 . S
C408 H412 0.930 . S
N409 C406 1.377 . S
N409 C408 1.344 . S
O410 Co402 2.055 . S
O410 C414 1.253 . S
H411 C407 0.931 . S
H412 C408 0.930 . S
O413 Co402 2.039 . S
O413 C403 1.265 . S
C414 O410 1.253 . S
C414 O415 1.227 . S
O415 C414 1.227 . S
N416 Co402 2.140 . S
N416 C419 1.346 . S
N416 C420 1.345 . S
C417 C418 1.387 . S
C417 C421 1.391 . S
C418 C417 1.387 . S
C418 C419 1.369 . S
C418 H427 0.929 . S
C419 N416 1.346 . S
C419 C418 1.369 . S
C419 H422 0.928 . S
C420 N416 1.345 . S
C420 C421 1.371 . S
C420 H423 0.931 . S
C421 C417 1.391 . S
C421 C420 1.371 . S
C421 H428 0.930 . S
H422 C419 0.928 . S
H423 C420 0.931 . S
H424 C400 0.930 . S
H425 C397 0.930 . S
H426 C406 0.930 . S
H427 C418 0.929 . S
H428 C421 0.930 . S
C429 C430 1.351 . S
C429 N432 1.368 . S
C429 H434 0.931 . S
C430 C429 1.351 . S
C430 N431 1.373 . S
C430 H458 0.930 . S
N431 C430 1.373 . S
N431 C433 1.340 . S
N432 C429 1.368 . S
N432 C433 1.321 . S
N432 Co435 2.135 . S
C433 N431 1.340 . S
C433 N432 1.321 . S
C433 H457 0.930 . S
H434 C429 0.931 . S
Co435 N432 2.135 . S
Co435 N438 2.121 . S
Co435 O443 2.055 . S
Co435 O446 2.039 . S
Co435 N449 2.140 . S
C436 O437 1.227 . S
C436 O446 1.265 . S
O437 C436 1.227 . S
N438 Co435 2.121 . S
N438 C440 1.375 . S
N438 C441 1.313 . S
C439 C440 1.338 . S
C439 N442 1.377 . S
C439 H459 0.930 . S
C440 N438 1.375 . S
C440 C439 1.338 . S
C440 H444 0.931 . S
C441 N438 1.313 . S
C441 N442 1.344 . S
C441 H445 0.930 . S
N442 C439 1.377 . S
N442 C441 1.344 . S
O443 Co435 2.055 . S
O443 C447 1.253 . S
H444 C440 0.931 . S
H445 C441 0.930 . S
O446 Co435 2.039 . S
O446 C436 1.265 . S
C447 O443 1.253 . S
C447 O448 1.227 . S
O448 C447 1.227 . S
N449 Co435 2.140 . S
N449 C452 1.346 . S
N449 C453 1.345 . S
C450 C451 1.387 . S
C450 C454 1.391 . S
C451 C450 1.387 . S
C451 C452 1.369 . S
C451 H460 0.929 . S
C452 N449 1.346 . S
C452 C451 1.369 . S
C452 H455 0.928 . S
C453 N449 1.345 . S
C453 C454 1.371 . S
C453 H456 0.931 . S
C454 C450 1.391 . S
C454 C453 1.371 . S
C454 H461 0.930 . S
H455 C452 0.928 . S
H456 C453 0.931 . S
H457 C433 0.930 . S
H458 C430 0.930 . S
H459 C439 0.930 . S
H460 C451 0.929 . S
H461 C454 0.930 . S
C462 C463 1.351 . S
C462 N465 1.368 . S
C462 H467 0.931 . S
C463 C462 1.351 . S
C463 N464 1.373 . S
C463 H491 0.930 . S
N464 C463 1.373 . S
N464 C466 1.340 . S
N465 C462 1.368 . S
N465 C466 1.321 . S
N465 Co468 2.135 . S
C466 N464 1.340 . S
C466 N465 1.321 . S
C466 H490 0.930 . S
H467 C462 0.931 . S
Co468 N465 2.135 . S
Co468 N471 2.121 . S
Co468 O476 2.055 . S
Co468 O479 2.039 . S
Co468 N482 2.140 . S
C469 O470 1.227 . S
C469 O479 1.265 . S
O470 C469 1.227 . S
N471 Co468 2.121 . S
N471 C473 1.375 . S
N471 C474 1.313 . S
C472 C473 1.338 . S
C472 N475 1.377 . S
C472 H492 0.930 . S
C473 N471 1.375 . S
C473 C472 1.338 . S
C473 H477 0.931 . S
C474 N471 1.313 . S
C474 N475 1.344 . S
C474 H478 0.930 . S
N475 C472 1.377 . S
N475 C474 1.344 . S
O476 Co468 2.055 . S
O476 C480 1.253 . S
H477 C473 0.931 . S
H478 C474 0.930 . S
O479 Co468 2.039 . S
O479 C469 1.265 . S
C480 O476 1.253 . S
C480 O481 1.227 . S
O481 C480 1.227 . S
N482 Co468 2.140 . S
N482 C485 1.346 . S
N482 C486 1.345 . S
C483 C484 1.387 . S
C483 C487 1.391 . S
C484 C483 1.387 . S
C484 C485 1.369 . S
C484 H493 0.929 . S
C485 N482 1.346 . S
C485 C484 1.369 . S
C485 H488 0.928 . S
C486 N482 1.345 . S
C486 C487 1.371 . S
C486 H489 0.931 . S
C487 C483 1.391 . S
C487 C486 1.371 . S
C487 H494 0.930 . S
H488 C485 0.928 . S
H489 C486 0.931 . S
H490 C466 0.930 . S
H491 C463 0.930 . S
H492 C472 0.930 . S
H493 C484 0.929 . S
H494 C487 0.930 . S
C495 C496 1.351 . S
C495 N498 1.368 . S
C495 H500 0.931 . S
C496 C495 1.351 . S
C496 N497 1.373 . S
C496 H524 0.930 . S
N497 C496 1.373 . S
N497 C499 1.340 . S
N498 C495 1.368 . S
N498 C499 1.321 . S
N498 Co501 2.135 . S
C499 N497 1.340 . S
C499 N498 1.321 . S
C499 H523 0.930 . S
H500 C495 0.931 . S
Co501 N498 2.135 . S
Co501 N504 2.121 . S
Co501 O509 2.055 . S
Co501 O512 2.039 . S
Co501 N515 2.140 . S
C502 O503 1.227 . S
C502 O512 1.265 . S
O503 C502 1.227 . S
N504 Co501 2.121 . S
N504 C506 1.375 . S
N504 C507 1.313 . S
C505 C506 1.338 . S
C505 N508 1.377 . S
C505 H525 0.930 . S
C506 N504 1.375 . S
C506 C505 1.338 . S
C506 H510 0.931 . S
C507 N504 1.313 . S
C507 N508 1.344 . S
C507 H511 0.930 . S
N508 C505 1.377 . S
N508 C507 1.344 . S
O509 Co501 2.055 . S
O509 C513 1.253 . S
H510 C506 0.931 . S
H511 C507 0.930 . S
O512 Co501 2.039 . S
O512 C502 1.265 . S
C513 O509 1.253 . S
C513 O514 1.227 . S
O514 C513 1.227 . S
N515 Co501 2.140 . S
N515 C518 1.346 . S
N515 C519 1.345 . S
C516 C517 1.387 . S
C516 C520 1.391 . S
C517 C516 1.387 . S
C517 C518 1.369 . S
C517 H526 0.929 . S
C518 N515 1.346 . S
C518 C517 1.369 . S
C518 H521 0.928 . S
C519 N515 1.345 . S
C519 C520 1.371 . S
C519 H522 0.931 . S
C520 C516 1.391 . S
C520 C519 1.371 . S
C520 H527 0.930 . S
H521 C518 0.928 . S
H522 C519 0.931 . S
H523 C499 0.930 . S
H524 C496 0.930 . S
H525 C505 0.930 . S
H526 C517 0.929 . S
H527 C520 0.930 . S
C528 C529 1.351 . S
C528 N531 1.368 . S
C528 H533 0.931 . S
C529 C528 1.351 . S
C529 N530 1.373 . S
C529 H557 0.930 . S
N530 C529 1.373 . S
N530 C532 1.340 . S
N531 C528 1.368 . S
N531 C532 1.321 . S
N531 Co534 2.135 . S
C532 N530 1.340 . S
C532 N531 1.321 . S
C532 H556 0.930 . S
H533 C528 0.931 . S
Co534 N531 2.135 . S
Co534 N537 2.121 . S
Co534 O542 2.055 . S
Co534 O545 2.039 . S
Co534 N548 2.140 . S
C535 O536 1.227 . S
C535 O545 1.265 . S
O536 C535 1.227 . S
N537 Co534 2.121 . S
N537 C539 1.375 . S
N537 C540 1.313 . S
C538 C539 1.338 . S
C538 N541 1.377 . S
C538 H558 0.930 . S
C539 N537 1.375 . S
C539 C538 1.338 . S
C539 H543 0.931 . S
C540 N537 1.313 . S
C540 N541 1.344 . S
C540 H544 0.930 . S
N541 C538 1.377 . S
N541 C540 1.344 . S
O542 Co534 2.055 . S
O542 C546 1.253 . S
H543 C539 0.931 . S
H544 C540 0.930 . S
O545 Co534 2.039 . S
O545 C535 1.265 . S
C546 O542 1.253 . S
C546 O547 1.227 . S
O547 C546 1.227 . S
N548 Co534 2.140 . S
N548 C551 1.346 . S
N548 C552 1.345 . S
C549 C550 1.387 . S
C549 C553 1.391 . S
C550 C549 1.387 . S
C550 C551 1.369 . S
C550 H559 0.929 . S
C551 N548 1.346 . S
C551 C550 1.369 . S
C551 H554 0.928 . S
C552 N548 1.345 . S
C552 C553 1.371 . S
C552 H555 0.931 . S
C553 C549 1.391 . S
C553 C552 1.371 . S
C553 H560 0.930 . S
H554 C551 0.928 . S
H555 C552 0.931 . S
H556 C532 0.930 . S
H557 C529 0.930 . S
H558 C538 0.930 . S
H559 C550 0.929 . S
H560 C553 0.930 . S
C561 C562 1.351 . S
C561 N564 1.368 . S
C561 H566 0.931 . S
C562 C561 1.351 . S
C562 N563 1.373 . S
C562 H590 0.930 . S
N563 C562 1.373 . S
N563 C565 1.340 . S
N564 C561 1.368 . S
N564 C565 1.321 . S
N564 Co567 2.135 . S
C565 N563 1.340 . S
C565 N564 1.321 . S
C565 H589 0.930 . S
H566 C561 0.931 . S
Co567 N564 2.135 . S
Co567 N570 2.121 . S
Co567 O575 2.055 . S
Co567 O578 2.039 . S
Co567 N581 2.140 . S
C568 O569 1.227 . S
C568 O578 1.265 . S
O569 C568 1.227 . S
N570 Co567 2.121 . S
N570 C572 1.375 . S
N570 C573 1.313 . S
C571 C572 1.338 . S
C571 N574 1.377 . S
C571 H591 0.930 . S
C572 N570 1.375 . S
C572 C571 1.338 . S
C572 H576 0.931 . S
C573 N570 1.313 . S
C573 N574 1.344 . S
C573 H577 0.930 . S
N574 C571 1.377 . S
N574 C573 1.344 . S
O575 Co567 2.055 . S
O575 C579 1.253 . S
H576 C572 0.931 . S
H577 C573 0.930 . S
O578 Co567 2.039 . S
O578 C568 1.265 . S
C579 O575 1.253 . S
C579 O580 1.227 . S
O580 C579 1.227 . S
N581 Co567 2.140 . S
N581 C584 1.346 . S
N581 C585 1.345 . S
C582 C583 1.387 . S
C582 C586 1.391 . S
C583 C582 1.387 . S
C583 C584 1.369 . S
C583 H592 0.929 . S
C584 N581 1.346 . S
C584 C583 1.369 . S
C584 H587 0.928 . S
C585 N581 1.345 . S
C585 C586 1.371 . S
C585 H588 0.931 . S
C586 C582 1.391 . S
C586 C585 1.371 . S
C586 H593 0.930 . S
H587 C584 0.928 . S
H588 C585 0.931 . S
H589 C565 0.930 . S
H590 C562 0.930 . S
H591 C571 0.930 . S
H592 C583 0.929 . S
H593 C586 0.930 . S
H594 C600 0.930 . S
H595 C604 0.930 . S
H596 C609 0.929 . S
H597 C607 0.929 . S
H598 C602 0.929 . S
H599 C608 0.929 . S
C600 H594 0.930 . S
C600 C601 1.367 . S
C600 C608 1.378 . S
C601 C600 1.367 . S
C601 C609 1.433 . S
C602 H598 0.929 . S
C602 C604 1.378 . S
C602 C606 1.350 . S
C603 C606 1.463 . S
C603 C608 1.350 . S
C603 N611 1.427 . S
C604 H595 0.930 . S
C604 C602 1.378 . S
C604 C605 1.367 . S
C605 C604 1.367 . S
C605 C607 1.433 . S
C606 C602 1.350 . S
C606 C603 1.463 . S
C606 N610 1.427 . S
C607 H597 0.929 . S
C607 C605 1.433 . S
C607 N610 1.384 . S
C608 H599 0.929 . S
C608 C600 1.378 . S
C608 C603 1.350 . S
C609 H596 0.929 . S
C609 C601 1.433 . S
C609 N611 1.384 . S
N610 C606 1.427 . S
N610 C607 1.384 . S
N611 C603 1.427 . S
N611 C609 1.384 . S
H612 C618 0.930 . S
H613 C622 0.930 . S
H614 C627 0.929 . S
H615 C625 0.929 . S
H616 C620 0.929 . S
H617 C626 0.929 . S
C618 H612 0.930 . S
C618 C619 1.367 . S
C618 C626 1.378 . S
C619 C618 1.367 . S
C619 C627 1.433 . S
C620 H616 0.929 . S
C620 C622 1.378 . S
C620 C624 1.350 . S
C621 C624 1.463 . S
C621 C626 1.350 . S
C621 N629 1.427 . S
C622 H613 0.930 . S
C622 C620 1.378 . S
C622 C623 1.367 . S
C623 C622 1.367 . S
C623 C625 1.433 . S
C624 C620 1.350 . S
C624 C621 1.463 . S
C624 N628 1.427 . S
C625 H615 0.929 . S
C625 C623 1.433 . S
C625 N628 1.384 . S
C626 H617 0.929 . S
C626 C618 1.378 . S
C626 C621 1.350 . S
C627 H614 0.929 . S
C627 C619 1.433 . S
C627 N629 1.384 . S
N628 C624 1.427 . S
N628 C625 1.384 . S
N629 C621 1.427 . S
N629 C627 1.384 . S
H630 C636 0.930 . S
H631 C640 0.930 . S
H632 C645 0.929 . S
H633 C643 0.929 . S
H634 C638 0.929 . S
H635 C644 0.929 . S
C636 H630 0.930 . S
C636 C637 1.367 . S
C636 C644 1.378 . S
C637 C636 1.367 . S
C637 C645 1.433 . S
C638 H634 0.929 . S
C638 C640 1.378 . S
C638 C642 1.350 . S
C639 C642 1.463 . S
C639 C644 1.350 . S
C639 N647 1.427 . S
C640 H631 0.930 . S
C640 C638 1.378 . S
C640 C641 1.367 . S
C641 C640 1.367 . S
C641 C643 1.433 . S
C642 C638 1.350 . S
C642 C639 1.463 . S
C642 N646 1.427 . S
C643 H633 0.929 . S
C643 C641 1.433 . S
C643 N646 1.384 . S
C644 H635 0.929 . S
C644 C636 1.378 . S
C644 C639 1.350 . S
C645 H632 0.929 . S
C645 C637 1.433 . S
C645 N647 1.384 . S
N646 C642 1.427 . S
N646 C643 1.384 . S
N647 C639 1.427 . S
N647 C645 1.384 . S
H648 C654 0.930 . S
H649 C658 0.930 . S
H650 C663 0.929 . S
H651 C661 0.929 . S
H652 C656 0.929 . S
H653 C662 0.929 . S
C654 H648 0.930 . S
C654 C655 1.367 . S
C654 C662 1.378 . S
C655 C654 1.367 . S
C655 C663 1.433 . S
C656 H652 0.929 . S
C656 C658 1.378 . S
C656 C660 1.350 . S
C657 C660 1.463 . S
C657 C662 1.350 . S
C657 N665 1.427 . S
C658 H649 0.930 . S
C658 C656 1.378 . S
C658 C659 1.367 . S
C659 C658 1.367 . S
C659 C661 1.433 . S
C660 C656 1.350 . S
C660 C657 1.463 . S
C660 N664 1.427 . S
C661 H651 0.929 . S
C661 C659 1.433 . S
C661 N664 1.384 . S
C662 H653 0.929 . S
C662 C654 1.378 . S
C662 C657 1.350 . S
C663 H650 0.929 . S
C663 C655 1.433 . S
C663 N665 1.384 . S
N664 C660 1.427 . S
N664 C661 1.384 . S
N665 C657 1.427 . S
N665 C663 1.384 . S
H666 C672 0.930 . S
H667 C676 0.930 . S
H668 C681 0.929 . S
H669 C679 0.929 . S
H670 C674 0.929 . S
H671 C680 0.929 . S
C672 H666 0.930 . S
C672 C673 1.367 . S
C672 C680 1.378 . S
C673 C672 1.367 . S
C673 C681 1.433 . S
C674 H670 0.929 . S
C674 C676 1.378 . S
C674 C678 1.350 . S
C675 C678 1.463 . S
C675 C680 1.350 . S
C675 N683 1.427 . S
C676 H667 0.930 . S
C676 C674 1.378 . S
C676 C677 1.367 . S
C677 C676 1.367 . S
C677 C679 1.433 . S
C678 C674 1.350 . S
C678 C675 1.463 . S
C678 N682 1.427 . S
C679 H669 0.929 . S
C679 C677 1.433 . S
C679 N682 1.384 . S
C680 H671 0.929 . S
C680 C672 1.378 . S
C680 C675 1.350 . S
C681 H668 0.929 . S
C681 C673 1.433 . S
C681 N683 1.384 . S
N682 C678 1.427 . S
N682 C679 1.384 . S
N683 C675 1.427 . S
N683 C681 1.384 . S
H684 C690 0.930 . S
H685 C694 0.930 . S
H686 C699 0.929 . S
H687 C697 0.929 . S
H688 C692 0.929 . S
H689 C698 0.929 . S
C690 H684 0.930 . S
C690 C691 1.367 . S
C690 C698 1.378 . S
C691 C690 1.367 . S
C691 C699 1.433 . S
C692 H688 0.929 . S
C692 C694 1.378 . S
C692 C696 1.350 . S
C693 C696 1.463 . S
C693 C698 1.350 . S
C693 N701 1.427 . S
C694 H685 0.930 . S
C694 C692 1.378 . S
C694 C695 1.367 . S
C695 C694 1.367 . S
C695 C697 1.433 . S
C696 C692 1.350 . S
C696 C693 1.463 . S
C696 N700 1.427 . S
C697 H687 0.929 . S
C697 C695 1.433 . S
C697 N700 1.384 . S
C698 H689 0.929 . S
C698 C690 1.378 . S
C698 C693 1.350 . S
C699 H686 0.929 . S
C699 C691 1.433 . S
C699 N701 1.384 . S
N700 C696 1.427 . S
N700 C697 1.384 . S
N701 C693 1.427 . S
N701 C699 1.384 . S
H702 C708 0.930 . S
H703 C712 0.930 . S
H704 C717 0.929 . S
H705 C715 0.929 . S
H706 C710 0.929 . S
H707 C716 0.929 . S
C708 H702 0.930 . S
C708 C709 1.367 . S
C708 C716 1.378 . S
C709 C708 1.367 . S
C709 C717 1.433 . S
C710 H706 0.929 . S
C710 C712 1.378 . S
C710 C714 1.350 . S
C711 C714 1.463 . S
C711 C716 1.350 . S
C711 N719 1.427 . S
C712 H703 0.930 . S
C712 C710 1.378 . S
C712 C713 1.367 . S
C713 C712 1.367 . S
C713 C715 1.433 . S
C714 C710 1.350 . S
C714 C711 1.463 . S
C714 N718 1.427 . S
C715 H705 0.929 . S
C715 C713 1.433 . S
C715 N718 1.384 . S
C716 H707 0.929 . S
C716 C708 1.378 . S
C716 C711 1.350 . S
C717 H704 0.929 . S
C717 C709 1.433 . S
C717 N719 1.384 . S
N718 C714 1.427 . S
N718 C715 1.384 . S
N719 C711 1.427 . S
N719 C717 1.384 . S
H720 C726 0.930 . S
H721 C730 0.930 . S
H722 C735 0.929 . S
H723 C733 0.929 . S
H724 C728 0.929 . S
H725 C734 0.929 . S
C726 H720 0.930 . S
C726 C727 1.367 . S
C726 C734 1.378 . S
C727 C726 1.367 . S
C727 C735 1.433 . S
C728 H724 0.929 . S
C728 C730 1.378 . S
C728 C732 1.350 . S
C729 C732 1.463 1_565 S
C729 C734 1.350 . S
C729 N737 1.427 . S
C730 H721 0.930 . S
C730 C728 1.378 . S
C730 C731 1.367 . S
C731 C730 1.367 . S
C731 C733 1.433 . S
C732 C728 1.350 . S
C732 C729 1.463 1_545 S
C732 N736 1.427 . S
C733 H723 0.929 . S
C733 C731 1.433 . S
C733 N736 1.384 . S
C734 H725 0.929 . S
C734 C726 1.378 . S
C734 C729 1.350 . S
C735 H722 0.929 . S
C735 C727 1.433 . S
C735 N737 1.384 . S
N736 C732 1.427 . S
N736 C733 1.384 . S
N737 C729 1.427 . S
N737 C735 1.384 . S
H738 C744 0.930 . S
H739 C748 0.930 . S
H740 C753 0.929 . S
H741 C751 0.929 . S
H742 C746 0.929 . S
H743 C752 0.929 . S
C744 H738 0.930 . S
C744 C745 1.367 . S
C744 C752 1.378 . S
C745 C744 1.367 . S
C745 C753 1.433 . S
C746 H742 0.929 . S
C746 C748 1.378 . S
C746 C750 1.350 . S
C747 C750 1.463 1_455 S
C747 C752 1.350 . S
C747 N755 1.427 . S
C748 H739 0.930 . S
C748 C746 1.378 . S
C748 C749 1.367 . S
C749 C748 1.367 . S
C749 C751 1.433 . S
C750 C746 1.350 . S
C750 C747 1.463 1_655 S
C750 N754 1.427 . S
C751 H741 0.929 . S
C751 C749 1.433 . S
C751 N754 1.384 . S
C752 H743 0.929 . S
C752 C744 1.378 . S
C752 C747 1.350 . S
C753 H740 0.929 . S
C753 C745 1.433 . S
C753 N755 1.384 . S
N754 C750 1.427 . S
N754 C751 1.384 . S
N755 C747 1.427 . S
N755 C753 1.384 . S
H756 C762 0.930 . S
H757 C766 0.930 . S
H758 C771 0.929 . S
H759 C769 0.929 . S
H760 C764 0.929 . S
H761 C770 0.929 . S
C762 H756 0.930 . S
C762 C763 1.367 . S
C762 C770 1.378 . S
C763 C762 1.367 . S
C763 C771 1.433 . S
C764 H760 0.929 . S
C764 C766 1.378 . S
C764 C768 1.350 . S
C765 C768 1.463 . S
C765 C770 1.350 . S
C765 N773 1.427 . S
C766 H757 0.930 . S
C766 C764 1.378 . S
C766 C767 1.367 . S
C767 C766 1.367 . S
C767 C769 1.433 . S
C768 C764 1.350 . S
C768 C765 1.463 . S
C768 N772 1.427 . S
C769 H759 0.929 . S
C769 C767 1.433 . S
C769 N772 1.384 . S
C770 H761 0.929 . S
C770 C762 1.378 . S
C770 C765 1.350 . S
C771 H758 0.929 . S
C771 C763 1.433 . S
C771 N773 1.384 . S
N772 C768 1.427 . S
N772 C769 1.384 . S
N773 C765 1.427 . S
N773 C771 1.384 . S
H774 C780 0.930 . S
H775 C784 0.930 . S
H776 C789 0.929 . S
H777 C787 0.929 . S
H778 C782 0.929 . S
H779 C788 0.929 . S
C780 H774 0.930 . S
C780 C781 1.367 . S
C780 C788 1.378 . S
C781 C780 1.367 . S
C781 C789 1.433 . S
C782 H778 0.929 . S
C782 C784 1.378 . S
C782 C786 1.350 . S
C783 C786 1.463 . S
C783 C788 1.350 . S
C783 N791 1.427 . S
C784 H775 0.930 . S
C784 C782 1.378 . S
C784 C785 1.367 . S
C785 C784 1.367 . S
C785 C787 1.433 . S
C786 C782 1.350 . S
C786 C783 1.463 . S
C786 N790 1.427 . S
C787 H777 0.929 . S
C787 C785 1.433 . S
C787 N790 1.384 . S
C788 H779 0.929 . S
C788 C780 1.378 . S
C788 C783 1.350 . S
C789 H776 0.929 . S
C789 C781 1.433 . S
C789 N791 1.384 . S
N790 C786 1.427 . S
N790 C787 1.384 . S
N791 C783 1.427 . S
N791 C789 1.384 . S
H792 C798 0.930 . S
H793 C802 0.930 . S
H794 C807 0.929 . S
H795 C805 0.929 . S
H796 C800 0.929 . S
H797 C806 0.929 . S
C798 H792 0.930 . S
C798 C799 1.367 . S
C798 C806 1.378 . S
C799 C798 1.367 . S
C799 C807 1.433 . S
C800 H796 0.929 . S
C800 C802 1.378 . S
C800 C804 1.350 . S
C801 C804 1.463 . S
C801 C806 1.350 . S
C801 N809 1.427 . S
C802 H793 0.930 . S
C802 C800 1.378 . S
C802 C803 1.367 . S
C803 C802 1.367 . S
C803 C805 1.433 . S
C804 C800 1.350 . S
C804 C801 1.463 . S
C804 N808 1.427 . S
C805 H795 0.929 . S
C805 C803 1.433 . S
C805 N808 1.384 . S
C806 H797 0.929 . S
C806 C798 1.378 . S
C806 C801 1.350 . S
C807 H794 0.929 . S
C807 C799 1.433 . S
C807 N809 1.384 . S
N808 C804 1.427 . S
N808 C805 1.384 . S
N809 C801 1.427 . S
N809 C807 1.384 . S
H810 C816 0.930 . S
H811 C820 0.930 . S
H812 C825 0.929 . S
H813 C823 0.929 . S
H814 C818 0.929 . S
H815 C824 0.929 . S
C816 H810 0.930 . S
C816 C817 1.367 . S
C816 C824 1.378 . S
C817 C816 1.367 . S
C817 C825 1.433 . S
C818 H814 0.929 . S
C818 C820 1.378 . S
C818 C822 1.350 . S
C819 C822 1.463 . S
C819 C824 1.350 . S
C819 N827 1.427 . S
C820 H811 0.930 . S
C820 C818 1.378 . S
C820 C821 1.367 . S
C821 C820 1.367 . S
C821 C823 1.433 . S
C822 C818 1.350 . S
C822 C819 1.463 . S
C822 N826 1.427 . S
C823 H813 0.929 . S
C823 C821 1.433 . S
C823 N826 1.384 . S
C824 H815 0.929 . S
C824 C816 1.378 . S
C824 C819 1.350 . S
C825 H812 0.929 . S
C825 C817 1.433 . S
C825 N827 1.384 . S
N826 C822 1.427 . S
N826 C823 1.384 . S
N827 C819 1.427 . S
N827 C825 1.384 . S
H828 C834 0.930 . S
H829 C838 0.930 . S
H830 C843 0.929 . S
H831 C841 0.929 . S
H832 C836 0.929 . S
H833 C842 0.929 . S
C834 H828 0.930 . S
C834 C835 1.367 . S
C834 C842 1.378 . S
C835 C834 1.367 . S
C835 C843 1.433 . S
C836 H832 0.929 . S
C836 C838 1.378 . S
C836 C840 1.350 . S
C837 C840 1.463 . S
C837 C842 1.350 . S
C837 N845 1.427 . S
C838 H829 0.930 . S
C838 C836 1.378 . S
C838 C839 1.367 . S
C839 C838 1.367 . S
C839 C841 1.433 . S
C840 C836 1.350 . S
C840 C837 1.463 . S
C840 N844 1.427 . S
C841 H831 0.929 . S
C841 C839 1.433 . S
C841 N844 1.384 . S
C842 H833 0.929 . S
C842 C834 1.378 . S
C842 C837 1.350 . S
C843 H830 0.929 . S
C843 C835 1.433 . S
C843 N845 1.384 . S
N844 C840 1.427 . S
N844 C841 1.384 . S
N845 C837 1.427 . S
N845 C843 1.384 . S
H846 C852 0.930 . S
H847 C856 0.930 . S
H848 C861 0.929 . S
H849 C859 0.929 . S
H850 C854 0.929 . S
H851 C860 0.929 . S
C852 H846 0.930 . S
C852 C853 1.367 . S
C852 C860 1.378 . S
C853 C852 1.367 . S
C853 C861 1.433 . S
C854 H850 0.929 . S
C854 C856 1.378 . S
C854 C858 1.350 . S
C855 C858 1.463 . S
C855 C860 1.350 . S
C855 N863 1.427 . S
C856 H847 0.930 . S
C856 C854 1.378 . S
C856 C857 1.367 . S
C857 C856 1.367 . S
C857 C859 1.433 . S
C858 C854 1.350 . S
C858 C855 1.463 . S
C858 N862 1.427 . S
C859 H849 0.929 . S
C859 C857 1.433 . S
C859 N862 1.384 . S
C860 H851 0.929 . S
C860 C852 1.378 . S
C860 C855 1.350 . S
C861 H848 0.929 . S
C861 C853 1.433 . S
C861 N863 1.384 . S
N862 C858 1.427 . S
N862 C859 1.384 . S
N863 C855 1.427 . S
N863 C861 1.384 . S
H864 C870 0.931 . S
H865 C874 0.931 . S
H866 C879 0.929 . S
H867 C877 0.929 . S
H868 C872 0.929 . S
H869 C878 0.929 . S
C870 H864 0.931 . S
C870 C871 1.367 . S
C870 C878 1.378 1_554 S
C871 C870 1.367 . S
C871 C879 1.433 . S
C872 H868 0.929 . S
C872 C874 1.378 1_554 S
C872 C876 1.350 1_554 S
C873 C876 1.463 1_654 S
C873 C878 1.350 1_554 S
C873 N881 1.427 . S
C874 H865 0.931 . S
C874 C872 1.378 1_556 S
C874 C875 1.367 . S
C875 C874 1.367 . S
C875 C877 1.433 . S
C876 C872 1.350 1_556 S
C876 C873 1.463 1_456 S
C876 N880 1.427 . S
C877 H867 0.929 . S
C877 C875 1.433 . S
C877 N880 1.384 . S
C878 H869 0.929 . S
C878 C870 1.378 1_556 S
C878 C873 1.350 1_556 S
C879 H866 0.929 . S
C879 C871 1.433 . S
C879 N881 1.384 . S
N880 C876 1.427 . S
N880 C877 1.384 . S
N881 C873 1.427 . S
N881 C879 1.384 . S
H882 C888 0.930 . S
H883 C892 0.930 . S
H884 C897 0.929 . S
H885 C895 0.929 . S
H886 C890 0.929 . S
H887 C896 0.929 . S
C888 H882 0.930 . S
C888 C889 1.367 . S
C888 C896 1.378 . S
C889 C888 1.367 . S
C889 C897 1.433 . S
C890 H886 0.929 . S
C890 C892 1.378 . S
C890 C894 1.350 . S
C891 C894 1.463 1_556 S
C891 C896 1.350 . S
C891 N899 1.427 1_556 S
C892 H883 0.930 . S
C892 C890 1.378 . S
C892 C893 1.367 . S
C893 C892 1.367 . S
C893 C895 1.433 . S
C894 C890 1.350 . S
C894 C891 1.463 1_554 S
C894 N898 1.427 1_554 S
C895 H885 0.929 . S
C895 C893 1.433 . S
C895 N898 1.384 1_554 S
C896 H887 0.929 . S
C896 C888 1.378 . S
C896 C891 1.350 . S
C897 H884 0.929 . S
C897 C889 1.433 . S
C897 N899 1.384 1_556 S
N898 C894 1.427 1_556 S
N898 C895 1.384 1_556 S
N899 C891 1.427 1_554 S
N899 C897 1.384 1_554 S
H900 C906 0.930 . S
H901 C910 0.930 . S
H902 C915 0.927 1_556 S
H903 C913 0.927 1_554 S
H904 C908 0.929 1_545 S
H905 C914 0.929 1_565 S
C906 H900 0.930 . S
C906 C907 1.367 . S
C906 C914 1.378 . S
C907 C906 1.367 . S
C907 C915 1.433 . S
C908 H904 0.929 1_565 S
C908 C910 1.378 . S
C908 C912 1.350 . S
C909 C912 1.463 1_544 S
C909 C914 1.350 . S
C909 N917 1.427 1_554 S
C910 H901 0.930 . S
C910 C908 1.378 . S
C910 C911 1.367 . S
C911 C910 1.367 . S
C911 C913 1.433 . S
C912 C908 1.350 . S
C912 C909 1.463 1_566 S
C912 N916 1.427 1_556 S
C913 H903 0.927 1_556 S
C913 C911 1.433 . S
C913 N916 1.384 1_556 S
C914 H905 0.929 1_545 S
C914 C906 1.378 . S
C914 C909 1.350 . S
C915 H902 0.927 1_554 S
C915 C907 1.433 . S
C915 N917 1.384 1_554 S
N916 C912 1.427 1_554 S
N916 C913 1.384 1_554 S
N917 C909 1.427 1_556 S
N917 C915 1.384 1_556 S
H918 C924 0.930 . S
H919 C928 0.930 . S
H920 C933 0.929 . S
H921 C931 0.929 . S
H922 C926 0.929 . S
H923 C932 0.929 . S
C924 H918 0.930 . S
C924 C925 1.367 . S
C924 C932 1.378 . S
C925 C924 1.367 . S
C925 C933 1.433 . S
C926 H922 0.929 . S
C926 C928 1.378 . S
C926 C930 1.350 . S
C927 C930 1.463 1_454 S
C927 C932 1.350 . S
C927 N935 1.427 . S
C928 H919 0.930 . S
C928 C926 1.378 . S
C928 C929 1.367 . S
C929 C928 1.367 . S
C929 C931 1.433 . S
C930 C926 1.350 . S
C930 C927 1.463 1_656 S
C930 N934 1.427 . S
C931 H921 0.929 . S
C931 C929 1.433 . S
C931 N934 1.384 . S
C932 H923 0.929 . S
C932 C924 1.378 . S
C932 C927 1.350 . S
C933 H920 0.929 . S
C933 C925 1.433 . S
C933 N935 1.384 . S
N934 C930 1.427 . S
N934 C931 1.384 . S
N935 C927 1.427 . S
N935 C933 1.384 . S
H936 C942 0.930 . S
H937 C946 0.930 . S
H938 C951 0.929 . S
H939 C949 0.929 . S
H940 C944 0.929 . S
H941 C950 0.929 . S
C942 H936 0.930 . S
C942 C943 1.367 . S
C942 C950 1.378 . S
C943 C942 1.367 . S
C943 C951 1.433 . S
C944 H940 0.929 . S
C944 C946 1.378 . S
C944 C948 1.350 . S
C945 C948 1.463 1_556 S
C945 C950 1.350 . S
C945 N953 1.427 . S
C946 H937 0.930 . S
C946 C944 1.378 . S
C946 C947 1.367 . S
C947 C946 1.367 . S
C947 C949 1.433 . S
C948 C944 1.350 . S
C948 C945 1.463 1_554 S
C948 N952 1.427 . S
C949 H939 0.929 . S
C949 C947 1.433 . S
C949 N952 1.384 . S
C950 H941 0.929 . S
C950 C942 1.378 . S
C950 C945 1.350 . S
C951 H938 0.929 . S
C951 C943 1.433 . S
C951 N953 1.384 . S
N952 C948 1.427 . S
N952 C949 1.384 . S
N953 C945 1.427 . S
N953 C951 1.384 . S
H954 C960 0.930 . S
H955 C964 0.930 . S
H956 C969 0.935 . S
H957 C967 0.935 . S
H958 C962 0.929 . S
H959 C968 0.929 . S
C960 H954 0.930 . S
C960 C961 1.367 . S
C960 C968 1.378 . S
C961 C960 1.367 . S
C961 C969 1.433 . S
C962 H958 0.929 . S
C962 C964 1.378 . S
C962 C966 1.350 . S
C963 C966 1.463 1_546 S
C963 C968 1.350 . S
C963 N971 1.427 1_545 S
C964 H955 0.930 . S
C964 C962 1.378 . S
C964 C965 1.367 . S
C965 C964 1.367 . S
C965 C967 1.433 . S
C966 C962 1.350 . S
C966 C963 1.463 1_564 S
C966 N970 1.427 1_565 S
C967 H957 0.935 . S
C967 C965 1.433 . S
C967 N970 1.384 1_565 S
C968 H959 0.929 . S
C968 C960 1.378 . S
C968 C963 1.350 . S
C969 H956 0.935 . S
C969 C961 1.433 . S
C969 N971 1.384 1_545 S
N970 C966 1.427 1_545 S
N970 C967 1.384 1_545 S
N971 C963 1.427 1_565 S
N971 C969 1.384 1_565 S
H972 C978 0.930 . S
H973 C982 0.930 . S
H974 C987 0.929 . S
H975 C985 0.929 . S
H976 C980 0.929 . S
H977 C986 0.929 . S
C978 H972 0.930 . S
C978 C979 1.367 . S
C978 C986 1.378 . S
C979 C978 1.367 . S
C979 C987 1.433 . S
C980 H976 0.929 . S
C980 C982 1.378 . S
C980 C984 1.350 . S
C981 C984 1.463 . S
C981 C986 1.350 . S
C981 N989 1.427 . S
C982 H973 0.930 . S
C982 C980 1.378 . S
C982 C983 1.367 . S
C983 C982 1.367 . S
C983 C985 1.433 . S
C984 C980 1.350 . S
C984 C981 1.463 . S
C984 N988 1.427 . S
C985 H975 0.929 . S
C985 C983 1.433 . S
C985 N988 1.384 . S
C986 H977 0.929 . S
C986 C978 1.378 . S
C986 C981 1.350 . S
C987 H974 0.929 . S
C987 C979 1.433 . S
C987 N989 1.384 . S
N988 C984 1.427 . S
N988 C985 1.384 . S
N989 C981 1.427 . S
N989 C987 1.384 . S
H990 C996 0.930 . S
H991 C1000 0.930 . S
H992 C1005 0.929 . S
H993 C1003 0.929 . S
H994 C998 0.929 . S
H995 C1004 0.929 . S
C996 H990 0.930 . S
C996 C997 1.367 . S
C996 C1004 1.378 . S
C997 C996 1.367 . S
C997 C1005 1.433 . S
C998 H994 0.929 . S
C998 C1000 1.378 . S
C998 C1002 1.350 . S
C999 C1002 1.463 . S
C999 C1004 1.350 . S
C999 N1007 1.427 . S
C1000 H991 0.930 . S
C1000 C998 1.378 . S
C1000 C1001 1.367 . S
C1001 C1000 1.367 . S
C1001 C1003 1.433 . S
C1002 C998 1.350 . S
C1002 C999 1.463 . S
C1002 N1006 1.427 . S
C1003 H993 0.929 . S
C1003 C1001 1.433 . S
C1003 N1006 1.384 . S
C1004 H995 0.929 . S
C1004 C996 1.378 . S
C1004 C999 1.350 . S
C1005 H992 0.929 . S
C1005 C997 1.433 . S
C1005 N1007 1.384 . S
N1006 C1002 1.427 . S
N1006 C1003 1.384 . S
N1007 C999 1.427 . S
N1007 C1005 1.384 . S
H1008 C1014 0.930 . S
H1009 C1018 0.930 . S
H1010 C1023 0.929 . S
H1011 C1021 0.929 . S
H1012 C1016 0.929 . S
H1013 C1022 0.929 . S
C1014 H1008 0.930 . S
C1014 C1015 1.367 . S
C1014 C1022 1.378 . S
C1015 C1014 1.367 . S
C1015 C1023 1.433 . S
C1016 H1012 0.929 . S
C1016 C1018 1.378 . S
C1016 C1020 1.350 . S
C1017 C1020 1.463 . S
C1017 C1022 1.350 . S
C1017 N1025 1.427 . S
C1018 H1009 0.930 . S
C1018 C1016 1.378 . S
C1018 C1019 1.367 . S
C1019 C1018 1.367 . S
C1019 C1021 1.433 . S
C1020 C1016 1.350 . S
C1020 C1017 1.463 . S
C1020 N1024 1.427 . S
C1021 H1011 0.929 . S
C1021 C1019 1.433 . S
C1021 N1024 1.384 . S
C1022 H1013 0.929 . S
C1022 C1014 1.378 . S
C1022 C1017 1.350 . S
C1023 H1010 0.929 . S
C1023 C1015 1.433 . S
C1023 N1025 1.384 . S
N1024 C1020 1.427 . S
N1024 C1021 1.384 . S
N1025 C1017 1.427 . S
N1025 C1023 1.384 . S
H1026 C1032 0.930 . S
H1027 C1036 0.930 . S
H1028 C1041 0.929 . S
H1029 C1039 0.929 . S
H1030 C1034 0.929 . S
H1031 C1040 0.929 . S
C1032 H1026 0.930 . S
C1032 C1033 1.367 . S
C1032 C1040 1.378 . S
C1033 C1032 1.367 . S
C1033 C1041 1.433 . S
C1034 H1030 0.929 . S
C1034 C1036 1.378 . S
C1034 C1038 1.350 . S
C1035 C1038 1.463 . S
C1035 C1040 1.350 . S
C1035 N1043 1.427 . S
C1036 H1027 0.930 . S
C1036 C1034 1.378 . S
C1036 C1037 1.367 . S
C1037 C1036 1.367 . S
C1037 C1039 1.433 . S
C1038 C1034 1.350 . S
C1038 C1035 1.463 . S
C1038 N1042 1.427 . S
C1039 H1029 0.929 . S
C1039 C1037 1.433 . S
C1039 N1042 1.384 . S
C1040 H1031 0.929 . S
C1040 C1032 1.378 . S
C1040 C1035 1.350 . S
C1041 H1028 0.929 . S
C1041 C1033 1.433 . S
C1041 N1043 1.384 . S
N1042 C1038 1.427 . S
N1042 C1039 1.384 . S
N1043 C1035 1.427 . S
N1043 C1041 1.384 . S
H1044 C1050 0.930 . S
H1045 C1054 0.930 . S
H1046 C1059 0.929 . S
H1047 C1057 0.929 . S
H1048 C1052 0.929 . S
H1049 C1058 0.929 . S
C1050 H1044 0.930 . S
C1050 C1051 1.367 . S
C1050 C1058 1.378 . S
C1051 C1050 1.367 . S
C1051 C1059 1.433 . S
C1052 H1048 0.929 . S
C1052 C1054 1.378 . S
C1052 C1056 1.350 . S
C1053 C1056 1.463 . S
C1053 C1058 1.350 . S
C1053 N1061 1.427 . S
C1054 H1045 0.930 . S
C1054 C1052 1.378 . S
C1054 C1055 1.367 . S
C1055 C1054 1.367 . S
C1055 C1057 1.433 . S
C1056 C1052 1.350 . S
C1056 C1053 1.463 . S
C1056 N1060 1.427 . S
C1057 H1047 0.929 . S
C1057 C1055 1.433 . S
C1057 N1060 1.384 . S
C1058 H1049 0.929 . S
C1058 C1050 1.378 . S
C1058 C1053 1.350 . S
C1059 H1046 0.929 . S
C1059 C1051 1.433 . S
C1059 N1061 1.384 . S
N1060 C1056 1.427 . S
N1060 C1057 1.384 . S
N1061 C1053 1.427 . S
N1061 C1059 1.384 . S
H1062 C1068 0.930 . S
H1063 C1072 0.930 . S
H1064 C1077 0.929 . S
H1065 C1075 0.929 . S
H1066 C1070 0.929 . S
H1067 C1076 0.929 . S
C1068 H1062 0.930 . S
C1068 C1069 1.367 . S
C1068 C1076 1.378 . S
C1069 C1068 1.367 . S
C1069 C1077 1.433 . S
C1070 H1066 0.929 . S
C1070 C1072 1.378 . S
C1070 C1074 1.350 . S
C1071 C1074 1.463 . S
C1071 C1076 1.350 . S
C1071 N1079 1.427 . S
C1072 H1063 0.930 . S
C1072 C1070 1.378 . S
C1072 C1073 1.367 . S
C1073 C1072 1.367 . S
C1073 C1075 1.433 . S
C1074 C1070 1.350 . S
C1074 C1071 1.463 . S
C1074 N1078 1.427 . S
C1075 H1065 0.929 . S
C1075 C1073 1.433 . S
C1075 N1078 1.384 . S
C1076 H1067 0.929 . S
C1076 C1068 1.378 . S
C1076 C1071 1.350 . S
C1077 H1064 0.929 . S
C1077 C1069 1.433 . S
C1077 N1079 1.384 . S
N1078 C1074 1.427 . S
N1078 C1075 1.384 . S
N1079 C1071 1.427 . S
N1079 C1077 1.384 . S
H1080 C1086 0.930 . S
H1081 C1090 0.930 . S
H1082 C1095 0.929 . S
H1083 C1093 0.929 . S
H1084 C1088 0.929 . S
H1085 C1094 0.929 . S
C1086 H1080 0.930 . S
C1086 C1087 1.367 . S
C1086 C1094 1.378 . S
C1087 C1086 1.367 . S
C1087 C1095 1.433 . S
C1088 H1084 0.929 . S
C1088 C1090 1.378 . S
C1088 C1092 1.350 . S
C1089 C1092 1.463 . S
C1089 C1094 1.350 . S
C1089 N1097 1.427 . S
C1090 H1081 0.930 . S
C1090 C1088 1.378 . S
C1090 C1091 1.367 . S
C1091 C1090 1.367 . S
C1091 C1093 1.433 . S
C1092 C1088 1.350 . S
C1092 C1089 1.463 . S
C1092 N1096 1.427 . S
C1093 H1083 0.929 . S
C1093 C1091 1.433 . S
C1093 N1096 1.384 . S
C1094 H1085 0.929 . S
C1094 C1086 1.378 . S
C1094 C1089 1.350 . S
C1095 H1082 0.929 . S
C1095 C1087 1.433 . S
C1095 N1097 1.384 . S
N1096 C1092 1.427 . S
N1096 C1093 1.384 . S
N1097 C1089 1.427 . S
N1097 C1095 1.384 . S
H1098 C1104 0.930 . S
H1099 C1108 0.930 . S
H1100 C1113 0.929 . S
H1101 C1111 0.929 . S
H1102 C1106 0.929 1_545 S
H1103 C1112 0.929 . S
C1104 H1098 0.930 . S
C1104 C1105 1.367 . S
C1104 C1112 1.378 . S
C1105 C1104 1.367 . S
C1105 C1113 1.433 . S
C1106 H1102 0.929 1_565 S
C1106 C1108 1.378 . S
C1106 C1110 1.350 1_565 S
C1107 C1110 1.463 . S
C1107 C1112 1.350 . S
C1107 N1115 1.427 . S
C1108 H1099 0.930 . S
C1108 C1106 1.378 . S
C1108 C1109 1.367 . S
C1109 C1108 1.367 . S
C1109 C1111 1.433 . S
C1110 C1106 1.350 1_545 S
C1110 C1107 1.463 . S
C1110 N1114 1.434 . S
C1111 H1101 0.929 . S
C1111 C1109 1.433 . S
C1111 N1114 1.358 1_565 S
C1112 H1103 0.929 . S
C1112 C1104 1.378 . S
C1112 C1107 1.350 . S
C1113 H1100 0.929 . S
C1113 C1105 1.433 . S
C1113 N1115 1.384 . S
N1114 C1110 1.434 . S
N1114 C1111 1.358 1_545 S
N1115 C1107 1.427 . S
N1115 C1113 1.384 . S
H1116 C1122 0.930 . S
H1117 C1126 0.930 . S
H1118 C1131 0.929 . S
H1119 C1129 0.929 . S
H1120 C1124 0.929 1_655 S
H1121 C1130 0.929 . S
C1122 H1116 0.930 . S
C1122 C1123 1.367 . S
C1122 C1130 1.378 . S
C1123 C1122 1.367 . S
C1123 C1131 1.433 . S
C1124 H1120 0.929 1_455 S
C1124 C1126 1.378 . S
C1124 C1128 1.350 1_455 S
C1125 C1128 1.463 . S
C1125 C1130 1.350 . S
C1125 N1133 1.427 . S
C1126 H1117 0.930 . S
C1126 C1124 1.378 . S
C1126 C1127 1.367 . S
C1127 C1126 1.367 . S
C1127 C1129 1.433 . S
C1128 C1124 1.350 1_655 S
C1128 C1125 1.463 . S
C1128 N1132 1.427 1_655 S
C1129 H1119 0.929 . S
C1129 C1127 1.433 . S
C1129 N1132 1.384 . S
C1130 H1121 0.929 . S
C1130 C1122 1.378 . S
C1130 C1125 1.350 . S
C1131 H1118 0.929 . S
C1131 C1123 1.433 . S
C1131 N1133 1.384 . S
N1132 C1128 1.427 1_455 S
N1132 C1129 1.384 . S
N1133 C1125 1.427 . S
N1133 C1131 1.384 . S
H1134 C1140 0.930 . S
H1135 C1144 0.930 . S
H1136 C1149 0.929 . S
H1137 C1147 0.929 . S
H1138 C1142 0.929 . S
H1139 C1148 0.929 . S
C1140 H1134 0.930 . S
C1140 C1141 1.367 . S
C1140 C1148 1.378 . S
C1141 C1140 1.367 . S
C1141 C1149 1.433 . S
C1142 H1138 0.929 . S
C1142 C1144 1.378 . S
C1142 C1146 1.350 . S
C1143 C1146 1.463 . S
C1143 C1148 1.350 . S
C1143 N1151 1.427 . S
C1144 H1135 0.930 . S
C1144 C1142 1.378 . S
C1144 C1145 1.367 . S
C1145 C1144 1.367 . S
C1145 C1147 1.433 . S
C1146 C1142 1.350 . S
C1146 C1143 1.463 . S
C1146 N1150 1.427 . S
C1147 H1137 0.929 . S
C1147 C1145 1.433 . S
C1147 N1150 1.384 . S
C1148 H1139 0.929 . S
C1148 C1140 1.378 . S
C1148 C1143 1.350 . S
C1149 H1136 0.929 . S
C1149 C1141 1.433 . S
C1149 N1151 1.384 . S
N1150 C1146 1.427 . S
N1150 C1147 1.384 . S
N1151 C1143 1.427 . S
N1151 C1149 1.384 . S
H1152 C1158 0.930 . S
H1153 C1162 0.930 . S
H1154 C1167 0.929 . S
H1155 C1165 0.929 . S
H1156 C1160 0.929 . S
H1157 C1166 0.929 1_565 S
C1158 H1152 0.930 . S
C1158 C1159 1.367 . S
C1158 C1166 1.378 . S
C1159 C1158 1.367 . S
C1159 C1167 1.433 . S
C1160 H1156 0.929 . S
C1160 C1162 1.378 . S
C1160 C1164 1.350 . S
C1161 C1164 1.463 . S
C1161 C1166 1.350 1_565 S
C1161 N1169 1.427 . S
C1162 H1153 0.930 . S
C1162 C1160 1.378 . S
C1162 C1163 1.367 . S
C1163 C1162 1.367 . S
C1163 C1165 1.433 . S
C1164 C1160 1.350 . S
C1164 C1161 1.463 . S
C1164 N1168 1.427 . S
C1165 H1155 0.929 . S
C1165 C1163 1.433 . S
C1165 N1168 1.384 . S
C1166 H1157 0.929 1_545 S
C1166 C1158 1.378 . S
C1166 C1161 1.350 1_545 S
C1167 H1154 0.929 . S
C1167 C1159 1.433 . S
C1167 N1169 1.384 1_545 S
N1168 C1164 1.427 . S
N1168 C1165 1.384 . S
N1169 C1161 1.427 . S
N1169 C1167 1.384 1_565 S
H1170 C1176 0.930 . S
H1171 C1180 0.930 . S
H1172 C1185 0.929 . S
H1173 C1183 0.929 . S
H1174 C1178 0.929 1_455 S
H1175 C1184 0.929 . S
C1176 H1170 0.930 . S
C1176 C1177 1.367 . S
C1176 C1184 1.378 . S
C1177 C1176 1.367 . S
C1177 C1185 1.433 . S
C1178 H1174 0.929 1_655 S
C1178 C1180 1.378 . S
C1178 C1182 1.350 1_655 S
C1179 C1182 1.463 . S
C1179 C1184 1.350 . S
C1179 N1187 1.427 . S
C1180 H1171 0.930 . S
C1180 C1178 1.378 . S
C1180 C1181 1.367 . S
C1181 C1180 1.367 . S
C1181 C1183 1.433 . S
C1182 C1178 1.350 1_455 S
C1182 C1179 1.463 . S
C1182 N1186 1.427 . S
C1183 H1173 0.929 . S
C1183 C1181 1.433 . S
C1183 N1186 1.384 1_655 S
C1184 H1175 0.929 . S
C1184 C1176 1.378 . S
C1184 C1179 1.350 . S
C1185 H1172 0.929 . S
C1185 C1177 1.433 . S
C1185 N1187 1.384 . S
N1186 C1182 1.427 . S
N1186 C1183 1.384 1_455 S
N1187 C1179 1.427 . S
N1187 C1185 1.384 . S
H1188 C1194 0.930 . S
H1189 C1198 0.930 . S
H1190 C1203 0.929 . S
H1191 C1201 0.929 . S
H1192 C1196 0.929 . S
H1193 C1202 0.929 . S
C1194 H1188 0.930 . S
C1194 C1195 1.367 . S
C1194 C1202 1.378 . S
C1195 C1194 1.367 . S
C1195 C1203 1.433 . S
C1196 H1192 0.929 . S
C1196 C1198 1.378 . S
C1196 C1200 1.350 . S
C1197 C1200 1.463 . S
C1197 C1202 1.350 . S
C1197 N1205 1.427 . S
C1198 H1189 0.930 . S
C1198 C1196 1.378 . S
C1198 C1199 1.367 . S
C1199 C1198 1.367 . S
C1199 C1201 1.433 . S
C1200 C1196 1.350 . S
C1200 C1197 1.463 . S
C1200 N1204 1.427 . S
C1201 H1191 0.929 . S
C1201 C1199 1.433 . S
C1201 N1204 1.384 . S
C1202 H1193 0.929 . S
C1202 C1194 1.378 . S
C1202 C1197 1.350 . S
C1203 H1190 0.929 . S
C1203 C1195 1.433 . S
C1203 N1205 1.384 . S
N1204 C1200 1.427 . S
N1204 C1201 1.384 . S
N1205 C1197 1.427 . S
N1205 C1203 1.384 . S
H1206 C1212 0.930 . S
H1207 C1216 0.930 . S
H1208 C1221 0.929 . S
H1209 C1219 0.929 . S
H1210 C1214 0.929 . S
H1211 C1220 0.929 . S
C1212 H1206 0.930 . S
C1212 C1213 1.367 . S
C1212 C1220 1.378 . S
C1213 C1212 1.367 . S
C1213 C1221 1.433 . S
C1214 H1210 0.929 . S
C1214 C1216 1.378 . S
C1214 C1218 1.350 . S
C1215 C1218 1.463 . S
C1215 C1220 1.350 . S
C1215 N1223 1.427 . S
C1216 H1207 0.930 . S
C1216 C1214 1.378 . S
C1216 C1217 1.367 . S
C1217 C1216 1.367 . S
C1217 C1219 1.433 . S
C1218 C1214 1.350 . S
C1218 C1215 1.463 . S
C1218 N1222 1.427 . S
C1219 H1209 0.929 . S
C1219 C1217 1.433 . S
C1219 N1222 1.384 . S
C1220 H1211 0.929 . S
C1220 C1212 1.378 . S
C1220 C1215 1.350 . S
C1221 H1208 0.929 . S
C1221 C1213 1.433 . S
C1221 N1223 1.384 . S
N1222 C1218 1.427 . S
N1222 C1219 1.384 . S
N1223 C1215 1.427 . S
N1223 C1221 1.384 . S
H1224 C1230 0.930 . S
H1225 C1234 0.930 . S
H1226 C1239 0.929 . S
H1227 C1237 0.929 . S
H1228 C1232 0.929 . S
H1229 C1238 0.929 . S
C1230 H1224 0.930 . S
C1230 C1231 1.367 . S
C1230 C1238 1.378 . S
C1231 C1230 1.367 . S
C1231 C1239 1.433 . S
C1232 H1228 0.929 . S
C1232 C1234 1.378 . S
C1232 C1236 1.350 . S
C1233 C1236 1.463 . S
C1233 C1238 1.350 . S
C1233 N1241 1.427 . S
C1234 H1225 0.930 . S
C1234 C1232 1.378 . S
C1234 C1235 1.367 . S
C1235 C1234 1.367 . S
C1235 C1237 1.433 . S
C1236 C1232 1.350 . S
C1236 C1233 1.463 . S
C1236 N1240 1.427 . S
C1237 H1227 0.929 . S
C1237 C1235 1.433 . S
C1237 N1240 1.384 . S
C1238 H1229 0.929 . S
C1238 C1230 1.378 . S
C1238 C1233 1.350 . S
C1239 H1226 0.929 . S
C1239 C1231 1.433 . S
C1239 N1241 1.384 . S
N1240 C1236 1.427 . S
N1240 C1237 1.384 . S
N1241 C1233 1.427 . S
N1241 C1239 1.384 . S
H1242 C1248 0.930 . S
H1243 C1252 0.930 . S
H1244 C1257 0.929 . S
H1245 C1255 0.929 . S
H1246 C1250 0.929 . S
H1247 C1256 0.929 . S
C1248 H1242 0.930 . S
C1248 C1249 1.367 . S
C1248 C1256 1.378 . S
C1249 C1248 1.367 . S
C1249 C1257 1.433 . S
C1250 H1246 0.929 . S
C1250 C1252 1.378 . S
C1250 C1254 1.350 . S
C1251 C1254 1.463 . S
C1251 C1256 1.350 . S
C1251 N1259 1.427 . S
C1252 H1243 0.930 . S
C1252 C1250 1.378 . S
C1252 C1253 1.367 . S
C1253 C1252 1.367 . S
C1253 C1255 1.433 . S
C1254 C1250 1.350 . S
C1254 C1251 1.463 . S
C1254 N1258 1.427 . S
C1255 H1245 0.929 . S
C1255 C1253 1.433 . S
C1255 N1258 1.384 . S
C1256 H1247 0.929 . S
C1256 C1248 1.378 . S
C1256 C1251 1.350 . S
C1257 H1244 0.929 . S
C1257 C1249 1.433 . S
C1257 N1259 1.384 . S
N1258 C1254 1.427 . S
N1258 C1255 1.384 . S
N1259 C1251 1.427 . S
N1259 C1257 1.384 . S
H1260 C1266 0.930 . S
H1261 C1270 0.930 . S
H1262 C1275 0.929 . S
H1263 C1273 0.929 . S
H1264 C1268 0.929 . S
H1265 C1274 0.929 . S
C1266 H1260 0.930 . S
C1266 C1267 1.367 . S
C1266 C1274 1.378 . S
C1267 C1266 1.367 . S
C1267 C1275 1.433 . S
C1268 H1264 0.929 . S
C1268 C1270 1.378 . S
C1268 C1272 1.350 . S
C1269 C1272 1.463 . S
C1269 C1274 1.350 . S
C1269 N1277 1.427 . S
C1270 H1261 0.930 . S
C1270 C1268 1.378 . S
C1270 C1271 1.367 . S
C1271 C1270 1.367 . S
C1271 C1273 1.433 . S
C1272 C1268 1.350 . S
C1272 C1269 1.463 . S
C1272 N1276 1.427 . S
C1273 H1263 0.929 . S
C1273 C1271 1.433 . S
C1273 N1276 1.384 . S
C1274 H1265 0.929 . S
C1274 C1266 1.378 . S
C1274 C1269 1.350 . S
C1275 H1262 0.929 . S
C1275 C1267 1.433 . S
C1275 N1277 1.384 . S
N1276 C1272 1.427 . S
N1276 C1273 1.384 . S
N1277 C1269 1.427 . S
N1277 C1275 1.384 . S
H1278 C1284 0.930 . S
H1279 C1288 0.930 . S
H1280 C1293 0.929 . S
H1281 C1291 0.929 . S
H1282 C1286 0.929 . S
H1283 C1292 0.929 . S
C1284 H1278 0.930 . S
C1284 C1285 1.367 . S
C1284 C1292 1.378 . S
C1285 C1284 1.367 . S
C1285 C1293 1.433 . S
C1286 H1282 0.929 . S
C1286 C1288 1.378 . S
C1286 C1290 1.350 . S
C1287 C1290 1.463 . S
C1287 C1292 1.350 . S
C1287 N1295 1.427 . S
C1288 H1279 0.930 . S
C1288 C1286 1.378 . S
C1288 C1289 1.367 . S
C1289 C1288 1.367 . S
C1289 C1291 1.433 . S
C1290 C1286 1.350 . S
C1290 C1287 1.463 . S
C1290 N1294 1.427 . S
C1291 H1281 0.929 . S
C1291 C1289 1.433 . S
C1291 N1294 1.384 . S
C1292 H1283 0.929 . S
C1292 C1284 1.378 . S
C1292 C1287 1.350 . S
C1293 H1280 0.929 . S
C1293 C1285 1.433 . S
C1293 N1295 1.384 . S
N1294 C1290 1.427 . S
N1294 C1291 1.384 . S
N1295 C1287 1.427 . S
N1295 C1293 1.384 . S
H1296 C1302 0.930 . S
H1297 C1306 0.930 . S
H1298 C1311 0.929 . S
H1299 C1309 0.929 . S
H1300 C1304 0.929 . S
H1301 C1310 0.929 . S
C1302 H1296 0.930 . S
C1302 C1303 1.367 . S
C1302 C1310 1.378 . S
C1303 C1302 1.367 . S
C1303 C1311 1.433 . S
C1304 H1300 0.929 . S
C1304 C1306 1.378 . S
C1304 C1308 1.350 . S
C1305 C1308 1.463 . S
C1305 C1310 1.350 . S
C1305 N1313 1.427 . S
C1306 H1297 0.930 . S
C1306 C1304 1.378 . S
C1306 C1307 1.367 . S
C1307 C1306 1.367 . S
C1307 C1309 1.433 . S
C1308 C1304 1.350 . S
C1308 C1305 1.463 . S
C1308 N1312 1.427 . S
C1309 H1299 0.929 . S
C1309 C1307 1.433 . S
C1309 N1312 1.384 . S
C1310 H1301 0.929 . S
C1310 C1302 1.378 . S
C1310 C1305 1.350 . S
C1311 H1298 0.929 . S
C1311 C1303 1.433 . S
C1311 N1313 1.384 . S
N1312 C1308 1.427 . S
N1312 C1309 1.384 . S
N1313 C1305 1.427 . S
N1313 C1311 1.384 . S
H1314 C1320 0.930 . S
H1315 C1324 0.930 . S
H1316 C1329 0.929 . S
H1317 C1327 0.929 . S
H1318 C1322 0.929 . S
H1319 C1328 0.929 . S
C1320 H1314 0.930 . S
C1320 C1321 1.367 . S
C1320 C1328 1.378 . S
C1321 C1320 1.367 . S
C1321 C1329 1.433 . S
C1322 H1318 0.929 . S
C1322 C1324 1.378 . S
C1322 C1326 1.350 . S
C1323 C1326 1.463 . S
C1323 C1328 1.350 . S
C1323 N1331 1.427 . S
C1324 H1315 0.930 . S
C1324 C1322 1.378 . S
C1324 C1325 1.367 . S
C1325 C1324 1.367 . S
C1325 C1327 1.433 . S
C1326 C1322 1.350 . S
C1326 C1323 1.463 . S
C1326 N1330 1.427 . S
C1327 H1317 0.929 . S
C1327 C1325 1.433 . S
C1327 N1330 1.384 . S
C1328 H1319 0.929 . S
C1328 C1320 1.378 . S
C1328 C1323 1.350 . S
C1329 H1316 0.929 . S
C1329 C1321 1.433 . S
C1329 N1331 1.384 . S
N1330 C1326 1.427 . S
N1330 C1327 1.384 . S
N1331 C1323 1.427 . S
N1331 C1329 1.384 . S
H1332 C1338 0.930 . S
H1333 C1342 0.930 . S
H1334 C1347 0.929 . S
H1335 C1345 0.929 . S
H1336 C1340 0.929 . S
H1337 C1346 0.929 . S
C1338 H1332 0.930 . S
C1338 C1339 1.367 . S
C1338 C1346 1.378 . S
C1339 C1338 1.367 . S
C1339 C1347 1.433 . S
C1340 H1336 0.929 . S
C1340 C1342 1.378 . S
C1340 C1344 1.350 . S
C1341 C1344 1.463 . S
C1341 C1346 1.350 . S
C1341 N1349 1.427 . S
C1342 H1333 0.930 . S
C1342 C1340 1.378 . S
C1342 C1343 1.367 . S
C1343 C1342 1.367 . S
C1343 C1345 1.433 . S
C1344 C1340 1.350 . S
C1344 C1341 1.463 . S
C1344 N1348 1.427 . S
C1345 H1335 0.929 . S
C1345 C1343 1.433 . S
C1345 N1348 1.384 . S
C1346 H1337 0.929 . S
C1346 C1338 1.378 . S
C1346 C1341 1.350 . S
C1347 H1334 0.929 . S
C1347 C1339 1.433 . S
C1347 N1349 1.384 . S
N1348 C1344 1.427 . S
N1348 C1345 1.384 . S
N1349 C1341 1.427 . S
N1349 C1347 1.384 . S
H1350 C1356 0.930 . S
H1351 C1360 0.930 . S
H1352 C1365 0.929 . S
H1353 C1363 0.929 . S
H1354 C1358 0.929 . S
H1355 C1364 0.929 . S
C1356 H1350 0.930 . S
C1356 C1357 1.367 . S
C1356 C1364 1.378 . S
C1357 C1356 1.367 . S
C1357 C1365 1.433 . S
C1358 H1354 0.929 . S
C1358 C1360 1.378 . S
C1358 C1362 1.350 . S
C1359 C1362 1.463 . S
C1359 C1364 1.350 . S
C1359 N1367 1.427 . S
C1360 H1351 0.930 . S
C1360 C1358 1.378 . S
C1360 C1361 1.367 . S
C1361 C1360 1.367 . S
C1361 C1363 1.433 . S
C1362 C1358 1.350 . S
C1362 C1359 1.463 . S
C1362 N1366 1.427 . S
C1363 H1353 0.929 . S
C1363 C1361 1.433 . S
C1363 N1366 1.384 . S
C1364 H1355 0.929 . S
C1364 C1356 1.378 . S
C1364 C1359 1.350 . S
C1365 H1352 0.929 . S
C1365 C1357 1.433 . S
C1365 N1367 1.384 . S
N1366 C1362 1.427 . S
N1366 C1363 1.384 . S
N1367 C1359 1.427 . S
N1367 C1365 1.384 . S
H1368 C1374 0.930 . S
H1369 C1378 0.930 . S
H1370 C1383 0.929 . S
H1371 C1381 0.929 . S
H1372 C1376 0.929 . S
H1373 C1382 0.929 . S
C1374 H1368 0.930 . S
C1374 C1375 1.367 . S
C1374 C1382 1.378 . S
C1375 C1374 1.367 . S
C1375 C1383 1.433 . S
C1376 H1372 0.929 . S
C1376 C1378 1.378 . S
C1376 C1380 1.350 . S
C1377 C1380 1.463 . S
C1377 C1382 1.350 . S
C1377 N1385 1.427 . S
C1378 H1369 0.930 . S
C1378 C1376 1.378 . S
C1378 C1379 1.367 . S
C1379 C1378 1.367 . S
C1379 C1381 1.433 . S
C1380 C1376 1.350 . S
C1380 C1377 1.463 . S
C1380 N1384 1.427 . S
C1381 H1371 0.929 . S
C1381 C1379 1.433 . S
C1381 N1384 1.384 . S
C1382 H1373 0.929 . S
C1382 C1374 1.378 . S
C1382 C1377 1.350 . S
C1383 H1370 0.929 . S
C1383 C1375 1.433 . S
C1383 N1385 1.384 . S
N1384 C1380 1.427 . S
N1384 C1381 1.384 . S
N1385 C1377 1.427 . S
N1385 C1383 1.384 . S
H1386 C1392 0.930 . S
H1387 C1396 0.930 . S
H1388 C1401 0.929 . S
H1389 C1399 0.929 . S
H1390 C1394 0.929 . S
H1391 C1400 0.929 . S
C1392 H1386 0.930 . S
C1392 C1393 1.367 . S
C1392 C1400 1.378 . S
C1393 C1392 1.367 . S
C1393 C1401 1.433 . S
C1394 H1390 0.929 . S
C1394 C1396 1.378 . S
C1394 C1398 1.350 . S
C1395 C1398 1.463 . S
C1395 C1400 1.350 . S
C1395 N1403 1.427 . S
C1396 H1387 0.930 . S
C1396 C1394 1.378 . S
C1396 C1397 1.367 . S
C1397 C1396 1.367 . S
C1397 C1399 1.433 . S
C1398 C1394 1.350 . S
C1398 C1395 1.463 . S
C1398 N1402 1.427 . S
C1399 H1389 0.929 . S
C1399 C1397 1.433 . S
C1399 N1402 1.384 . S
C1400 H1391 0.929 . S
C1400 C1392 1.378 . S
C1400 C1395 1.350 . S
C1401 H1388 0.929 . S
C1401 C1393 1.433 . S
C1401 N1403 1.384 . S
N1402 C1398 1.427 . S
N1402 C1399 1.384 . S
N1403 C1395 1.427 . S
N1403 C1401 1.384 . S
C601 N310 0.965 . S
C605 N13 0.975 . S
C619 N343 0.944 . S
C623 N46 0.951 . S
C637 N376 0.944 . S
C641 N79 0.949 . S
C655 N112 0.957 . S
C659 N409 0.946 . S
C673 N442 0.975 . S
C677 N145 0.966 . S
C691 N475 0.962 . S
C695 N178 0.950 . S
C709 N211 0.971 . S
C713 N508 0.958 . S
C727 N541 0.944 . S
C731 N244 0.951 . S
C745 N574 0.944 . S
C749 N277 0.950 . S
C763 C579 1.908 . S
C767 C18 1.905 . S
C781 C513 1.905 . S
C785 C51 1.907 . S
C799 C84 1.903 . S
C803 C546 1.903 . S
C817 C249 1.907 . S
C821 C117 1.903 . S
C835 C282 1.907 . S
C839 C150 1.906 . S
C853 C183 1.904 . S
C857 C216 1.903 . S
C871 C315 1.906 . S
C875 C447 1.907 . S
C889 C480 1.905 . S
C893 C348 1.902 . S
C907 C381 1.903 . S
C911 C414 1.904 . S
C925 C21 1.222 . S
C929 C153 1.221 . S
C943 C186 1.216 . S
C947 C54 1.215 . S
C961 C120 1.231 . S
C965 C87 1.232 . S
C979 C351 1.219 . S
C983 C219 1.220 . S
C997 C252 1.214 . S
C1001 C384 1.213 . S
C1015 C318 1.227 . S
C1019 C285 1.228 . S
C1033 C417 1.213 . S
C1037 C549 1.214 . S
C1051 C582 1.214 . S
C1055 C450 1.214 . S
C1069 C483 1.232 . S
C1073 C516 1.233 . S
C1087 C73 1.062 . S
C1091 N2 1.082 . S
C1105 C7 1.047 . S
C1109 N35 1.077 . S
C1123 C40 1.044 . S
C1127 N68 1.076 . S
C1141 C139 1.063 . S
C1145 N101 1.083 . S
C1159 N134 1.082 . S
C1163 C172 1.057 . S
C1177 C106 1.062 . S
C1181 N167 1.083 . S
C1195 C271 1.052 . S
C1199 N200 1.078 . S
C1213 C205 1.058 . S
C1217 N233 1.081 . S
C1231 N266 1.076 . S
C1235 C238 1.044 . S
C1249 N299 1.080 . S
C1253 C337 1.051 . S
C1267 C370 1.044 . S
C1271 N332 1.075 . S
C1285 C304 1.044 . S
C1289 N365 1.076 . S
C1303 N398 1.075 . S
C1307 C469 1.043 . S
C1321 C403 1.057 . S
C1325 N431 1.081 . S
C1339 C436 1.056 . S
C1343 N464 1.081 . S
C1357 C535 1.044 . S
C1361 N497 1.075 . S
C1375 C568 1.063 . S
C1379 N530 1.083 . S
C1393 C502 1.063 . S
C1397 N563 1.083 . S
