# Generated by pormake.
# Topology umm, (4)-cn, num edge types: 1
# Building blocks:
#     Node 0, Type 0, BuildingBlock: MUDLON_clean_sbu_0, # of connection points: 4
#     Node 1, Type 0, BuildingBlock: MUDLON_clean_sbu_0, # of connection points: 4
#     Node 2, Type 0, BuildingBlock: MUDLON_clean_sbu_0, # of connection points: 4
#     Node 3, Type 0, BuildingBlock: MUDLON_clean_sbu_0, # of connection points: 4
#     Node 4, Type 0, BuildingBlock: MUDLON_clean_sbu_0, # of connection points: 4
#     Node 5, Type 0, BuildingBlock: MUDLON_clean_sbu_0, # of connection points: 4
#     Node 6, Type 0, BuildingBlock: MUDLON_clean_sbu_0, # of connection points: 4
#     Node 7, Type 0, BuildingBlock: MUDLON_clean_sbu_0, # of connection points: 4
#     Node 8, Type 0, BuildingBlock: MUDLON_clean_sbu_0, # of connection points: 4
#     Node 9, Type 0, BuildingBlock: MUDLON_clean_sbu_0, # of connection points: 4
#     Node 10, Type 0, BuildingBlock: MUDLON_clean_sbu_0, # of connection points: 4
#     Node 11, Type 0, BuildingBlock: MUDLON_clean_sbu_0, # of connection points: 4
#     Edge 12, Type (0, 0), BuildingBlock: OJICUG_clean_linker_0, # of connection points: 2
#     Edge 13, Type (0, 0), BuildingBlock: OJICUG_clean_linker_0, # of connection points: 2
#     Edge 14, Type (0, 0), BuildingBlock: OJICUG_clean_linker_0, # of connection points: 2
#     Edge 15, Type (0, 0), BuildingBlock: OJICUG_clean_linker_0, # of connection points: 2
#     Edge 16, Type (0, 0), BuildingBlock: OJICUG_clean_linker_0, # of connection points: 2
#     Edge 17, Type (0, 0), BuildingBlock: OJICUG_clean_linker_0, # of connection points: 2
#     Edge 18, Type (0, 0), BuildingBlock: OJICUG_clean_linker_0, # of connection points: 2
#     Edge 19, Type (0, 0), BuildingBlock: OJICUG_clean_linker_0, # of connection points: 2
#     Edge 20, Type (0, 0), BuildingBlock: OJICUG_clean_linker_0, # of connection points: 2
#     Edge 21, Type (0, 0), BuildingBlock: OJICUG_clean_linker_0, # of connection points: 2
#     Edge 22, Type (0, 0), BuildingBlock: OJICUG_clean_linker_0, # of connection points: 2
#     Edge 23, Type (0, 0), BuildingBlock: OJICUG_clean_linker_0, # of connection points: 2
#     Edge 24, Type (0, 0), BuildingBlock: OJICUG_clean_linker_0, # of connection points: 2
#     Edge 25, Type (0, 0), BuildingBlock: OJICUG_clean_linker_0, # of connection points: 2
#     Edge 26, Type (0, 0), BuildingBlock: OJICUG_clean_linker_0, # of connection points: 2
#     Edge 27, Type (0, 0), BuildingBlock: OJICUG_clean_linker_0, # of connection points: 2
#     Edge 28, Type (0, 0), BuildingBlock: OJICUG_clean_linker_0, # of connection points: 2
#     Edge 29, Type (0, 0), BuildingBlock: OJICUG_clean_linker_0, # of connection points: 2
#     Edge 30, Type (0, 0), BuildingBlock: OJICUG_clean_linker_0, # of connection points: 2
#     Edge 31, Type (0, 0), BuildingBlock: OJICUG_clean_linker_0, # of connection points: 2
#     Edge 32, Type (0, 0), BuildingBlock: OJICUG_clean_linker_0, # of connection points: 2
#     Edge 33, Type (0, 0), BuildingBlock: OJICUG_clean_linker_0, # of connection points: 2
#     Edge 34, Type (0, 0), BuildingBlock: OJICUG_clean_linker_0, # of connection points: 2
#     Edge 35, Type (0, 0), BuildingBlock: OJICUG_clean_linker_0, # of connection points: 2
# Relax obj value: 0.064
# Max RMSD: 0.171
# Mean RMSD: 0.171
data_MOF--net-umm--node1-MUDLON_clean_sbu_0--edge1-OJICUG_clean_linker_0
_symmetry_space_group_name_H-M    P1
_symmetry_Int_Tables_number       1
_symmetry_cell_setting            triclinic
loop_
_symmetry_equiv_pos_as_xyz
'x, y, z'
_cell_length_a     43.237682
_cell_length_b     43.341152
_cell_length_c     21.849972
_cell_angle_alpha  89.936072
_cell_angle_beta   90.05079
_cell_angle_gamma 119.83339
loop_
_atom_site_label
_atom_site_type_symbol
_atom_site_fract_x
_atom_site_fract_y
_atom_site_fract_z
_atom_type_partial_charge
Mg0 Mg 0.41189 0.55183 0.10083 0.0
C1 C 0.47004 0.53824 0.11358 0.0
O2 O 0.48369 0.57295 0.11363 0.0
C3 C 0.35292 0.55837 0.06552 0.0
O4 O 0.38066 0.59001 0.07533 0.0
C5 C 0.40804 0.57202 0.22977 0.0
O6 O 0.37909 0.54067 0.22627 0.0
O7 O 0.42697 0.58496 0.18201 0.0
O8 O 0.43625 0.51867 0.10985 0.0
O9 O 0.43619 0.58061 0.01747 0.0
C10 C 0.42156 0.56207 0.96994 0.0
O11 O 0.39511 0.52936 0.97675 0.0
O12 O 0.35562 0.53127 0.07941 0.0
Mg13 Mg 0.87595 0.39701 0.43258 0.0
C14 C 0.94559 0.45855 0.44574 0.0
O15 O 0.92253 0.46994 0.44638 0.0
C16 C 0.81534 0.33378 0.39026 0.0
O17 O 0.80694 0.35901 0.39289 0.0
C18 C 0.85249 0.3916 0.56239 0.0
O19 O 0.85947 0.36539 0.55947 0.0
O20 O 0.85533 0.40916 0.51401 0.0
O21 O 0.9337 0.42516 0.44162 0.0
O22 O 0.86896 0.42011 0.3495 0.0
C23 C 0.87504 0.40731 0.30158 0.0
O24 O 0.88492 0.38329 0.30766 0.0
O25 O 0.84561 0.34035 0.41064 0.0
Mg26 Mg 0.47378 0.85958 0.7643 0.0
C27 C 0.48505 0.93154 0.77133 0.0
O28 O 0.45024 0.91075 0.77081 0.0
C29 C 0.48938 0.80015 0.77113 0.0
O30 O 0.46226 0.78951 0.80874 0.0
C31 C 0.4585 0.84442 0.89835 0.0
O32 O 0.49215 0.85282 0.8953 0.0
O33 O 0.44226 0.84322 0.84889 0.0
O34 O 0.50461 0.91723 0.76953 0.0
O35 O 0.445 0.8506 0.67837 0.0
C36 C 0.43411 0.82226 0.6472 0.0
O37 O 0.43465 0.79485 0.67168 0.0
O38 O 0.50322 0.83141 0.74918 0.0
Mg39 Mg 0.62444 0.46776 0.10033 0.0
C40 C 0.56543 0.48048 0.11073 0.0
O41 O 0.55189 0.44579 0.10986 0.0
C42 C 0.68742 0.46394 0.08442 0.0
O43 O 0.6611 0.43234 0.09949 0.0
C44 C 0.62699 0.44738 0.22974 0.0
O45 O 0.65623 0.47852 0.22649 0.0
O46 O 0.60824 0.43465 0.18173 0.0
O47 O 0.59923 0.5002 0.10781 0.0
O48 O 0.60224 0.43856 1.01666 0.0
C49 C 0.61841 0.45582 0.96885 0.0
O50 O 0.6461 0.48786 0.975 0.0
O51 O 0.68149 0.4899 0.08494 0.0
Mg52 Mg 0.1651 0.62815 0.42951 0.0
C53 C 0.09645 0.56224 0.4403 0.0
O54 O 0.12001 0.55151 0.43903 0.0
C55 C 0.21756 0.70726 0.4265 0.0
O56 O 0.23163 0.69857 0.47196 0.0
C57 C 0.18235 0.63249 0.56216 0.0
O58 O 0.16673 0.65185 0.55904 0.0
O59 O 0.18723 0.61984 0.51297 0.0
O60 O 0.10751 0.59551 0.4374 0.0
O61 O 0.17757 0.60822 0.34813 0.0
C62 C 0.17053 0.61975 0.29953 0.0
O63 O 0.15701 0.64089 0.30445 0.0
O64 O 0.18727 0.68412 0.40592 0.0
Mg65 Mg 0.55623 0.15644 0.76124 0.0
C66 C 0.54487 0.0845 0.77003 0.0
O67 O 0.57967 0.10529 0.7708 0.0
C68 C 0.53977 0.21543 0.76874 0.0
O69 O 0.56553 0.22534 0.80911 0.0
C70 C 0.56998 0.1696 0.89593 0.0
O71 O 0.53582 0.15919 0.89245 0.0
O72 O 0.58702 0.17275 0.84657 0.0
O73 O 0.52533 0.09879 0.76657 0.0
O74 O 0.58604 0.16567 0.67645 0.0
C75 C 0.59667 0.19394 0.64507 0.0
O76 O 0.59487 0.22084 0.66873 0.0
O77 O 0.52702 0.18475 0.7448 0.0
Mg78 Mg 0.48514 0.62269 0.59636 0.0
C79 C 0.4936 0.56122 0.58171 0.0
O80 O 0.45912 0.54952 0.58202 0.0
C81 C 0.48713 0.68543 0.63994 0.0
O82 O 0.45364 0.66006 0.63668 0.0
C83 C 0.46757 0.62866 0.46694 0.0
O84 O 0.50088 0.65443 0.47053 0.0
O85 O 0.45242 0.61106 0.51503 0.0
O86 O 0.51482 0.59466 0.58592 0.0
O87 O 0.45546 0.59919 0.67942 0.0
C88 C 0.47473 0.61188 0.72697 0.0
O89 O 0.50855 0.63579 0.72025 0.0
O90 O 0.51105 0.67922 0.61941 0.0
Mg91 Mg 0.87085 0.4684 0.92844 0.0
C92 C 0.94282 0.48263 0.91624 0.0
O93 O 0.92216 0.44788 0.91614 0.0
C94 C 0.80551 0.46235 0.9641 0.0
O95 O 0.80147 0.43052 0.95554 0.0
C96 C 0.84857 0.44889 0.79855 0.0
O97 O 0.85185 0.48066 0.8015 0.0
O98 O 0.85329 0.43543 0.84696 0.0
O99 O 0.92823 0.50191 0.91983 0.0
O100 O 0.8665 0.43945 1.0117 0.0
C101 C 0.87028 0.45776 0.05951 0.0
O102 O 0.87623 0.49042 0.05319 0.0
O103 O 0.83524 0.48919 0.94941 0.0
Mg104 Mg 0.40808 0.86295 0.27324 0.0
C105 C 0.4725 0.93352 0.26407 0.0
O106 O 0.48534 0.91169 0.26515 0.0
C107 C 0.32728 0.81334 0.27726 0.0
O108 O 0.33339 0.79933 0.22871 0.0
C109 C 0.40316 0.84703 0.13812 0.0
O110 O 0.38214 0.86076 0.14233 0.0
O111 O 0.41664 0.8426 0.18695 0.0
O112 O 0.43883 0.92051 0.26634 0.0
O113 O 0.42882 0.85155 0.35564 0.0
C114 C 0.40969 0.82364 0.38702 0.0
O115 O 0.37986 0.79828 0.36354 0.0
O116 O 0.35257 0.84187 0.29949 0.0
Mg117 Mg 0.5505 0.39668 0.59647 0.0
C118 C 0.54319 0.45919 0.58292 0.0
O119 O 0.57764 0.47074 0.58356 0.0
C120 C 0.54589 0.33223 0.63848 0.0
O121 O 0.57977 0.35658 0.63567 0.0
C122 C 0.56711 0.39052 0.46661 0.0
O123 O 0.53356 0.36532 0.47023 0.0
O124 O 0.58267 0.40773 0.51475 0.0
O125 O 0.52181 0.42577 0.58677 0.0
O126 O 0.58115 0.41928 0.67899 0.0
C127 C 0.56233 0.40683 0.72704 0.0
O128 O 0.52822 0.38366 0.72118 0.0
O129 O 0.52289 0.33999 0.61868 0.0
Mg130 Mg 0.16809 0.5553 0.92738 0.0
C131 C 0.09605 0.54199 0.91887 0.0
O132 O 0.11681 0.57672 0.91951 0.0
C133 C 0.23486 0.55871 0.9422 0.0
O134 O 0.24033 0.59045 0.92739 0.0
C135 C 0.19152 0.57757 0.79771 0.0
O136 O 0.19264 0.54785 0.79993 0.0
O137 O 0.18368 0.58852 0.84605 0.0
O138 O 0.1105 0.52256 0.92141 0.0
O139 O 0.17605 0.58494 1.01095 0.0
C140 C 0.17711 0.56899 0.05916 0.0
O141 O 0.17411 0.53742 0.05408 0.0
O142 O 0.20295 0.53292 0.94141 0.0
Mg143 Mg 0.62895 0.1572 0.26984 0.0
C144 C 0.56861 0.08585 0.26131 0.0
O145 O 0.55523 0.10723 0.25981 0.0
C146 C 0.7035 0.21685 0.26201 0.0
O147 O 0.68672 0.22657 0.22316 0.0
C148 C 0.62809 0.17039 0.13518 0.0
O149 O 0.65242 0.16072 0.13864 0.0
O150 O 0.61392 0.17311 0.18455 0.0
O151 O 0.60232 0.09955 0.26506 0.0
O152 O 0.60838 0.16627 0.35481 0.0
C153 C 0.62572 0.19448 0.38634 0.0
O154 O 0.65426 0.2216 0.36283 0.0
O155 O 0.68646 0.18592 0.28536 0.0
C156 C 0.40167 0.57311 0.34362 0.0
C157 C 0.42093 0.58942 0.29003 0.0
H158 H 0.40112 0.57281 0.4416 0.0
C159 C 0.45397 0.62088 0.29523 0.0
H160 H 0.37603 0.54896 0.34128 0.0
C161 C 0.46834 0.63458 0.35281 0.0
C162 C 0.45 0.61712 0.40646 0.0
H163 H 0.46941 0.63424 0.25488 0.0
H164 H 0.49445 0.65814 0.35517 0.0
C165 C 0.41605 0.5868 0.40122 0.0
C166 C 0.84642 0.3858 0.6765 0.0
C167 C 0.84638 0.40348 0.6225 0.0
H168 H 0.84685 0.38605 0.77448 0.0
C169 C 0.8434 0.43424 0.62707 0.0
H170 H 0.84846 0.36191 0.67465 0.0
C171 C 0.84245 0.44808 0.68439 0.0
C172 C 0.84446 0.43147 0.7384 0.0
H173 H 0.84312 0.44842 0.58641 0.0
H174 H 0.84143 0.47253 0.68623 0.0
C175 C 0.84547 0.39964 0.73382 0.0
C176 C 0.45794 0.83687 1.01231 0.0
C177 C 0.44142 0.84022 0.95914 0.0
H178 H 0.45857 0.83576 0.11036 0.0
C179 C 0.41022 0.84239 0.9654 0.0
H180 H 0.48191 0.83492 1.00915 0.0
C181 C 0.397 0.84318 0.02359 0.0
C182 C 0.41442 0.84138 0.07683 0.0
H183 H 0.39684 0.84501 0.92547 0.0
H184 H 0.37365 0.8462 0.02682 0.0
C185 C 0.44449 0.83723 0.07044 0.0
C186 C 0.63332 0.44569 0.34348 0.0
C187 C 0.61384 0.42987 0.28985 0.0
H188 H 0.63403 0.44553 0.44142 0.0
C189 C 0.58045 0.39882 0.29488 0.0
H190 H 0.65924 0.46951 0.34124 0.0
C191 C 0.566 0.38504 0.3524 0.0
C192 C 0.58463 0.40202 0.40611 0.0
H193 H 0.56483 0.38585 0.25448 0.0
H194 H 0.53964 0.36182 0.35468 0.0
C195 C 0.61887 0.43192 0.40099 0.0
C196 C 0.1843 0.63621 0.67655 0.0
C197 C 0.18976 0.62196 0.62253 0.0
H198 H 0.18099 0.6337 0.7743 0.0
C199 C 0.19945 0.59553 0.62708 0.0
H200 H 0.17706 0.65679 0.6747 0.0
C201 C 0.20161 0.5822 0.68429 0.0
C202 C 0.19428 0.59513 0.73814 0.0
H203 H 0.20398 0.58409 0.58638 0.0
H204 H 0.20783 0.5609 0.68608 0.0
C205 C 0.18662 0.623 0.73373 0.0
C206 C 0.6339 0.17551 0.02077 0.0
C207 C 0.61526 0.17453 0.07424 0.0
H208 H 0.63458 0.17524 0.92264 0.0
C209 C 0.5831 0.17492 0.06834 0.0
H210 H 0.65887 0.17543 0.02363 0.0
C211 C 0.56906 0.17453 1.01034 0.0
C212 C 0.58702 0.17413 0.95688 0.0
H213 H 0.56807 0.17418 0.10848 0.0
H214 H 0.54363 0.17368 1.00749 0.0
C215 C 0.62004 0.1755 0.96278 0.0
C216 C 0.28832 0.52506 0.03094 0.0
C217 C 0.3222 0.55582 0.03112 0.0
H218 H 0.23348 0.50156 1.0024 0.0
C219 C 0.32729 0.58557 0.99734 0.0
H220 H 0.28373 0.50163 0.05616 0.0
C221 C 0.29917 0.58533 0.96611 0.0
C222 C 0.26483 0.55548 0.96811 0.0
H223 H 0.35316 0.60948 0.99522 0.0
H224 H 0.30433 0.6092 0.94171 0.0
C225 C 0.25969 0.52496 0.9999 0.0
C226 C 0.77825 0.26753 0.37625 0.0
C227 C 0.79276 0.30216 0.35288 0.0
H228 H 0.73816 0.21265 0.36531 0.0
C229 C 0.78169 0.30729 0.29529 0.0
H230 H 0.78637 0.26307 0.42076 0.0
C231 C 0.75472 0.27878 0.26338 0.0
C232 C 0.73771 0.24445 0.28881 0.0
H233 H 0.79281 0.3338 0.27613 0.0
H234 H 0.74573 0.28411 0.22042 0.0
C235 C 0.75072 0.23878 0.34445 0.0
C236 C 0.48033 0.73878 0.76851 0.0
C237 C 0.49692 0.77326 0.74376 0.0
H238 H 0.46463 0.68411 0.75451 0.0
C239 C 0.51568 0.77968 0.68811 0.0
H240 H 0.46598 0.73289 0.81146 0.0
C241 C 0.51517 0.75146 0.65556 0.0
C242 C 0.49573 0.71663 0.67824 0.0
H243 H 0.52871 0.80596 0.66777 0.0
H244 H 0.52772 0.75647 0.61099 0.0
C245 C 0.47952 0.71079 0.7359 0.0
C246 C 0.7252 0.43702 0.0632 0.0
C247 C 0.7206 0.46681 0.05925 0.0
H248 H 0.75507 0.41245 0.03639 0.0
C249 C 0.74583 0.49683 0.02636 0.0
H250 H 0.70661 0.41356 0.08857 0.0
C251 C 0.7743 0.49625 0.99609 0.0
C252 C 0.7775 0.46549 0.99783 0.0
H253 H 0.74293 0.52017 0.02236 0.0
H254 H 0.793 0.51925 0.96991 0.0
C255 C 0.75302 0.43631 0.03278 0.0
C256 C 0.27053 0.76816 0.41585 0.0
C257 C 0.24089 0.73897 0.38914 0.0
H258 H 0.32068 0.81539 0.40121 0.0
C259 C 0.23729 0.73771 0.32502 0.0
H260 H 0.27402 0.76978 0.46507 0.0
C261 C 0.26443 0.76337 0.28827 0.0
C262 C 0.29523 0.79126 0.31495 0.0
H263 H 0.21487 0.71541 0.30299 0.0
H264 H 0.26216 0.76035 0.23898 0.0
C265 C 0.29721 0.79432 0.37914 0.0
C266 C 0.54867 0.27678 0.76746 0.0
C267 C 0.53293 0.24276 0.74108 0.0
H268 H 0.56472 0.33169 0.75505 0.0
C269 C 0.51585 0.23729 0.68385 0.0
H270 H 0.56175 0.28194 0.8116 0.0
C271 C 0.51728 0.26604 0.65155 0.0
C272 C 0.5359 0.30045 0.67612 0.0
H273 H 0.50353 0.21139 0.6622 0.0
H274 H 0.50615 0.26181 0.60587 0.0
C275 C 0.55037 0.30532 0.73513 0.0
C276 C 0.48072 0.4863 0.11412 0.0
C277 C 0.4942 0.52317 0.115 0.0
H278 H 0.49263 0.444 0.11227 0.0
C279 C 0.53143 0.546 0.11578 0.0
H280 H 0.45225 0.46802 0.11352 0.0
C281 C 0.55467 0.5323 0.11486 0.0
C282 C 0.5412 0.49544 0.11333 0.0
H283 H 0.54278 0.57461 0.11648 0.0
H284 H 0.58314 0.5506 0.11497 0.0
C285 C 0.50396 0.4726 0.11337 0.0
C286 C 0.99598 0.52141 0.44809 0.0
C287 C 0.9843 0.48473 0.44665 0.0
H288 H 0.0403 0.57456 0.44715 0.0
C289 C 1.00987 0.4738 0.44442 0.0
H290 H 0.97703 0.53083 0.44985 0.0
C291 C 0.04627 0.49902 0.44298 0.0
C292 C 0.05789 0.53571 0.44357 0.0
H293 H 1.00179 0.44581 0.44325 0.0
H294 H 0.06528 0.48969 0.44081 0.0
C295 C 0.03231 0.54658 0.44648 0.0
C296 C 0.49232 0.02249 0.77133 0.0
C297 C 0.52938 0.04535 0.77171 0.0
H298 H 0.44934 0.96875 0.7711 0.0
C299 C 0.55184 0.03045 0.77295 0.0
H300 H 0.4743 0.03306 0.77045 0.0
C301 C 0.53758 0.99355 0.77321 0.0
C302 C 0.50052 0.97069 0.77238 0.0
H303 H 0.58056 0.04729 0.7733 0.0
H304 H 0.55561 0.98298 0.77379 0.0
C305 C 0.47806 0.98559 0.77172 0.0
C306 C 0.54315 0.54677 0.57975 0.0
C307 C 0.50657 0.53535 0.57953 0.0
H308 H 0.58332 0.5317 0.58071 0.0
C309 C 0.48202 0.49855 0.57878 0.0
H310 H 0.56274 0.57485 0.58028 0.0
C311 C 0.49376 0.47374 0.57924 0.0
C312 C 0.53033 0.48514 0.58024 0.0
H313 H 0.45359 0.48878 0.57856 0.0
H314 H 0.47416 0.44566 0.5793 0.0
C315 C 0.55489 0.52194 0.58 0.0
C316 C 0.04199 0.54913 0.91662 0.0
C317 C 0.05684 0.52662 0.91658 0.0
H318 H 0.99448 0.55306 0.9165 0.0
C319 C 0.03387 0.4897 0.91504 0.0
H320 H 0.05892 0.57777 0.91772 0.0
C321 C 0.99692 0.47561 0.91416 0.0
C322 C 0.98206 0.4981 0.91494 0.0
H323 H 0.0444 0.47166 0.91487 0.0
H324 H 0.97999 0.44697 0.91341 0.0
C325 C 1.00502 0.53503 0.91588 0.0
C326 C 0.53429 0.98639 0.2627 0.0
C327 C 0.49711 0.97247 0.26184 0.0
H328 H 0.5861 0.03304 0.26324 0.0
C329 C 0.48383 0.99614 0.25969 0.0
H330 H 0.54544 0.96889 0.26433 0.0
C331 C 0.50716 0.03286 0.25893 0.0
C332 C 0.54433 0.04682 0.26046 0.0
H333 H 0.45539 0.98634 0.25888 0.0
H334 H 0.49593 0.0503 0.2576 0.0
C335 C 0.55765 0.02317 0.26209 0.0
C336 C 0.42685 0.5694 0.79744 0.0
C337 C 0.46004 0.60013 0.78891 0.0
H338 H 0.38873 0.53324 0.8616 0.0
C339 C 0.47978 0.61927 0.84041 0.0
H340 H 0.41103 0.55419 0.75862 0.0
C341 C 0.46694 0.60746 0.8994 0.0
C342 C 0.43428 0.5761 0.90795 0.0
H343 H 0.50535 0.64329 0.83523 0.0
H344 H 0.48296 0.62246 0.93821 0.0
C345 C 0.41417 0.55739 0.85643 0.0
C346 C 0.8721 0.40019 0.18801 0.0
C347 C 0.87169 0.41919 0.23988 0.0
H348 H 0.87162 0.39727 0.09016 0.0
C349 C 0.8691 0.44993 0.23196 0.0
H350 H 0.87376 0.37618 0.19271 0.0
C351 C 0.86808 0.46209 0.1732 0.0
C352 C 0.86929 0.44353 0.12129 0.0
H353 H 0.86865 0.46505 0.27106 0.0
H354 H 0.8667 0.48626 0.16851 0.0
C355 C 0.87073 0.41216 0.12925 0.0
C356 C 0.44196 0.85456 0.54845 0.0
C357 C 0.42681 0.82231 0.58097 0.0
H358 H 0.44943 0.88016 0.4616 0.0
C359 C 0.40695 0.79026 0.54876 0.0
H360 H 0.45783 0.87969 0.57177 0.0
C361 C 0.40179 0.79055 0.48547 0.0
C362 C 0.41724 0.82283 0.45295 0.0
H363 H 0.39517 0.76499 0.57255 0.0
H364 H 0.38577 0.76552 0.46197 0.0
C365 C 0.43756 0.8548 0.48512 0.0
C366 C 0.55806 0.39964 0.84055 0.0
C367 C 0.57786 0.41811 0.78863 0.0
H368 H 0.55549 0.39683 0.93835 0.0
C369 C 0.61192 0.44777 0.79644 0.0
H370 H 0.53183 0.37643 0.83595 0.0
C371 C 0.6254 0.45951 0.85517 0.0
C372 C 0.60518 0.44161 0.90711 0.0
H373 H 0.62782 0.46243 0.75729 0.0
H374 H 0.65147 0.48294 0.85979 0.0
C375 C 0.57164 0.4112 0.89924 0.0
C376 C 0.17428 0.61373 0.12752 0.0
C377 C 0.17878 0.58403 0.12043 0.0
H378 H 0.1682 0.64828 0.18986 0.0
C379 C 0.18296 0.56754 0.17282 0.0
H380 H 0.17108 0.62705 0.08808 0.0
C381 C 0.18148 0.57979 0.23125 0.0
C382 C 0.17547 0.60856 0.2383 0.0
H383 H 0.18672 0.54471 0.16879 0.0
H384 H 0.18395 0.56608 0.27079 0.0
C385 C 0.17251 0.62578 0.18588 0.0
C386 C 0.62412 0.22664 0.54727 0.0
C387 C 0.60537 0.19436 0.57939 0.0
H388 H 0.6454 0.25203 0.46094 0.0
C389 C 0.59265 0.16226 0.54712 0.0
H390 H 0.63404 0.2518 0.57082 0.0
C391 C 0.59823 0.16238 0.4841 0.0
C392 C 0.61732 0.19463 0.45203 0.0
H393 H 0.57773 0.13692 0.57034 0.0
H394 H 0.58816 0.13715 0.46073 0.0
C395 C 0.63041 0.22677 0.48434 0.0
loop_
_geom_bond_atom_site_label_1
_geom_bond_atom_site_label_2
_geom_bond_distance
_geom_bond_site_symmetry_2
_ccdc_geom_bond_type
Mg0 O7 2.141 . S
Mg0 O8 2.048 . S
Mg0 O9 2.048 1_554 S
Mg0 O12 2.141 . S
C1 O2 1.313 . S
C1 O8 1.195 . S
O2 C1 1.313 . S
C3 O4 1.245 . S
C3 O12 1.289 . S
O4 C3 1.245 . S
C5 O6 1.245 . S
C5 O7 1.289 . S
O6 C5 1.245 . S
O7 Mg0 2.141 . S
O7 C5 1.289 . S
O8 Mg0 2.048 . S
O8 C1 1.195 . S
O9 Mg0 2.048 1_556 S
O9 C10 1.195 . S
C10 O9 1.195 . S
C10 O11 1.313 . S
O11 C10 1.313 . S
O12 Mg0 2.141 . S
O12 C3 1.289 . S
Mg13 O20 2.141 . S
Mg13 O21 2.048 . S
Mg13 O22 2.048 . S
Mg13 O25 2.141 . S
C14 O15 1.313 . S
C14 O21 1.195 . S
O15 C14 1.313 . S
C16 O17 1.245 . S
C16 O25 1.289 . S
O17 C16 1.245 . S
C18 O19 1.245 . S
C18 O20 1.289 . S
O19 C18 1.245 . S
O20 Mg13 2.141 . S
O20 C18 1.289 . S
O21 Mg13 2.048 . S
O21 C14 1.195 . S
O22 Mg13 2.048 . S
O22 C23 1.195 . S
C23 O22 1.195 . S
C23 O24 1.313 . S
O24 C23 1.313 . S
O25 Mg13 2.141 . S
O25 C16 1.289 . S
Mg26 O33 2.141 . S
Mg26 O34 2.048 . S
Mg26 O35 2.048 . S
Mg26 O38 2.141 . S
C27 O28 1.313 . S
C27 O34 1.195 . S
O28 C27 1.313 . S
C29 O30 1.245 . S
C29 O38 1.289 . S
O30 C29 1.245 . S
C31 O32 1.245 . S
C31 O33 1.289 . S
O32 C31 1.245 . S
O33 Mg26 2.141 . S
O33 C31 1.289 . S
O34 Mg26 2.048 . S
O34 C27 1.195 . S
O35 Mg26 2.048 . S
O35 C36 1.195 . S
C36 O35 1.195 . S
C36 O37 1.313 . S
O37 C36 1.313 . S
O38 Mg26 2.141 . S
O38 C29 1.289 . S
Mg39 O46 2.141 . S
Mg39 O47 2.048 . S
Mg39 O48 2.048 1_554 S
Mg39 O51 2.141 . S
C40 O41 1.313 . S
C40 O47 1.195 . S
O41 C40 1.313 . S
C42 O43 1.245 . S
C42 O51 1.289 . S
O43 C42 1.245 . S
C44 O45 1.245 . S
C44 O46 1.289 . S
O45 C44 1.245 . S
O46 Mg39 2.141 . S
O46 C44 1.289 . S
O47 Mg39 2.048 . S
O47 C40 1.195 . S
O48 Mg39 2.048 1_556 S
O48 C49 1.195 . S
C49 O48 1.195 . S
C49 O50 1.313 . S
O50 C49 1.313 . S
O51 Mg39 2.141 . S
O51 C42 1.289 . S
Mg52 O59 2.141 . S
Mg52 O60 2.048 . S
Mg52 O61 2.048 . S
Mg52 O64 2.141 . S
C53 O54 1.313 . S
C53 O60 1.195 . S
O54 C53 1.313 . S
C55 O56 1.245 . S
C55 O64 1.289 . S
O56 C55 1.245 . S
C57 O58 1.245 . S
C57 O59 1.289 . S
O58 C57 1.245 . S
O59 Mg52 2.141 . S
O59 C57 1.289 . S
O60 Mg52 2.048 . S
O60 C53 1.195 . S
O61 Mg52 2.048 . S
O61 C62 1.195 . S
C62 O61 1.195 . S
C62 O63 1.313 . S
O63 C62 1.313 . S
O64 Mg52 2.141 . S
O64 C55 1.289 . S
Mg65 O72 2.141 . S
Mg65 O73 2.048 . S
Mg65 O74 2.048 . S
Mg65 O77 2.141 . S
C66 O67 1.313 . S
C66 O73 1.195 . S
O67 C66 1.313 . S
C68 O69 1.245 . S
C68 O77 1.289 . S
O69 C68 1.245 . S
C70 O71 1.245 . S
C70 O72 1.289 . S
O71 C70 1.245 . S
O72 Mg65 2.141 . S
O72 C70 1.289 . S
O73 Mg65 2.048 . S
O73 C66 1.195 . S
O74 Mg65 2.048 . S
O74 C75 1.195 . S
C75 O74 1.195 . S
C75 O76 1.313 . S
O76 C75 1.313 . S
O77 Mg65 2.141 . S
O77 C68 1.289 . S
Mg78 O85 2.141 . S
Mg78 O86 2.048 . S
Mg78 O87 2.048 . S
Mg78 O90 2.141 . S
C79 O80 1.313 . S
C79 O86 1.195 . S
O80 C79 1.313 . S
C81 O82 1.245 . S
C81 O90 1.289 . S
O82 C81 1.245 . S
C83 O84 1.245 . S
C83 O85 1.289 . S
O84 C83 1.245 . S
O85 Mg78 2.141 . S
O85 C83 1.289 . S
O86 Mg78 2.048 . S
O86 C79 1.195 . S
O87 Mg78 2.048 . S
O87 C88 1.195 . S
C88 O87 1.195 . S
C88 O89 1.313 . S
O89 C88 1.313 . S
O90 Mg78 2.141 . S
O90 C81 1.289 . S
Mg91 O98 2.141 . S
Mg91 O99 2.048 . S
Mg91 O100 2.048 1_556 S
Mg91 O103 2.141 . S
C92 O93 1.313 . S
C92 O99 1.195 . S
O93 C92 1.313 . S
C94 O95 1.245 . S
C94 O103 1.289 . S
O95 C94 1.245 . S
C96 O97 1.245 . S
C96 O98 1.289 . S
O97 C96 1.245 . S
O98 Mg91 2.141 . S
O98 C96 1.289 . S
O99 Mg91 2.048 . S
O99 C92 1.195 . S
O100 Mg91 2.048 1_554 S
O100 C101 1.195 . S
C101 O100 1.195 . S
C101 O102 1.313 . S
O102 C101 1.313 . S
O103 Mg91 2.141 . S
O103 C94 1.289 . S
Mg104 O111 2.141 . S
Mg104 O112 2.048 . S
Mg104 O113 2.048 . S
Mg104 O116 2.141 . S
C105 O106 1.313 . S
C105 O112 1.195 . S
O106 C105 1.313 . S
C107 O108 1.245 . S
C107 O116 1.289 . S
O108 C107 1.245 . S
C109 O110 1.245 . S
C109 O111 1.289 . S
O110 C109 1.245 . S
O111 Mg104 2.141 . S
O111 C109 1.289 . S
O112 Mg104 2.048 . S
O112 C105 1.195 . S
O113 Mg104 2.048 . S
O113 C114 1.195 . S
C114 O113 1.195 . S
C114 O115 1.313 . S
O115 C114 1.313 . S
O116 Mg104 2.141 . S
O116 C107 1.289 . S
Mg117 O124 2.141 . S
Mg117 O125 2.048 . S
Mg117 O126 2.048 . S
Mg117 O129 2.141 . S
C118 O119 1.313 . S
C118 O125 1.195 . S
O119 C118 1.313 . S
C120 O121 1.245 . S
C120 O129 1.289 . S
O121 C120 1.245 . S
C122 O123 1.245 . S
C122 O124 1.289 . S
O123 C122 1.245 . S
O124 Mg117 2.141 . S
O124 C122 1.289 . S
O125 Mg117 2.048 . S
O125 C118 1.195 . S
O126 Mg117 2.048 . S
O126 C127 1.195 . S
C127 O126 1.195 . S
C127 O128 1.313 . S
O128 C127 1.313 . S
O129 Mg117 2.141 . S
O129 C120 1.289 . S
Mg130 O137 2.141 . S
Mg130 O138 2.048 . S
Mg130 O139 2.048 1_556 S
Mg130 O142 2.141 . S
C131 O132 1.313 . S
C131 O138 1.195 . S
O132 C131 1.313 . S
C133 O134 1.245 . S
C133 O142 1.289 . S
O134 C133 1.245 . S
C135 O136 1.245 . S
C135 O137 1.289 . S
O136 C135 1.245 . S
O137 Mg130 2.141 . S
O137 C135 1.289 . S
O138 Mg130 2.048 . S
O138 C131 1.195 . S
O139 Mg130 2.048 1_554 S
O139 C140 1.195 . S
C140 O139 1.195 . S
C140 O141 1.313 . S
O141 C140 1.313 . S
O142 Mg130 2.141 . S
O142 C133 1.289 . S
Mg143 O150 2.141 . S
Mg143 O151 2.048 . S
Mg143 O152 2.048 . S
Mg143 O155 2.141 . S
C144 O145 1.313 . S
C144 O151 1.195 . S
O145 C144 1.313 . S
C146 O147 1.245 . S
C146 O155 1.289 . S
O147 C146 1.245 . S
C148 O149 1.245 . S
C148 O150 1.289 . S
O149 C148 1.245 . S
O150 Mg143 2.141 . S
O150 C148 1.289 . S
O151 Mg143 2.048 . S
O151 C144 1.195 . S
O152 Mg143 2.048 . S
O152 C153 1.195 . S
C153 O152 1.195 . S
C153 O154 1.313 . S
O154 C153 1.313 . S
O155 Mg143 2.141 . S
O155 C146 1.289 . S
C156 C157 1.387 . S
C156 H160 0.950 . S
C156 C165 1.390 . S
C157 C156 1.387 . S
C157 C159 1.387 . S
H158 C165 0.950 . S
C159 C157 1.387 . S
C159 C161 1.390 . S
C159 H163 0.950 . S
H160 C156 0.950 . S
C161 C159 1.390 . S
C161 C162 1.387 . S
C161 H164 0.950 . S
C162 C161 1.387 . S
C162 C165 1.387 . S
H163 C159 0.950 . S
H164 C161 0.950 . S
C165 C156 1.390 . S
C165 H158 0.950 . S
C165 C162 1.387 . S
C166 C167 1.387 . S
C166 H170 0.950 . S
C166 C175 1.390 . S
C167 C166 1.387 . S
C167 C169 1.387 . S
H168 C175 0.950 . S
C169 C167 1.387 . S
C169 C171 1.390 . S
C169 H173 0.950 . S
H170 C166 0.950 . S
C171 C169 1.390 . S
C171 C172 1.387 . S
C171 H174 0.950 . S
C172 C171 1.387 . S
C172 C175 1.387 . S
H173 C169 0.950 . S
H174 C171 0.950 . S
C175 C166 1.390 . S
C175 H168 0.950 . S
C175 C172 1.387 . S
C176 C177 1.387 . S
C176 H180 0.950 . S
C176 C185 1.390 1_556 S
C177 C176 1.387 . S
C177 C179 1.387 . S
H178 C185 0.950 . S
C179 C177 1.387 . S
C179 C181 1.390 1_556 S
C179 H183 0.950 . S
H180 C176 0.950 . S
C181 C179 1.390 1_554 S
C181 C182 1.387 . S
C181 H184 0.950 . S
C182 C181 1.387 . S
C182 C185 1.387 . S
H183 C179 0.950 . S
H184 C181 0.950 . S
C185 C176 1.390 1_554 S
C185 H178 0.950 . S
C185 C182 1.387 . S
C186 C187 1.387 . S
C186 H190 0.950 . S
C186 C195 1.390 . S
C187 C186 1.387 . S
C187 C189 1.387 . S
H188 C195 0.950 . S
C189 C187 1.387 . S
C189 C191 1.390 . S
C189 H193 0.950 . S
H190 C186 0.950 . S
C191 C189 1.390 . S
C191 C192 1.387 . S
C191 H194 0.950 . S
C192 C191 1.387 . S
C192 C195 1.387 . S
H193 C189 0.950 . S
H194 C191 0.950 . S
C195 C186 1.390 . S
C195 H188 0.950 . S
C195 C192 1.387 . S
C196 C197 1.387 . S
C196 H200 0.950 . S
C196 C205 1.390 . S
C197 C196 1.387 . S
C197 C199 1.387 . S
H198 C205 0.950 . S
C199 C197 1.387 . S
C199 C201 1.390 . S
C199 H203 0.950 . S
H200 C196 0.950 . S
C201 C199 1.390 . S
C201 C202 1.387 . S
C201 H204 0.950 . S
C202 C201 1.387 . S
C202 C205 1.387 . S
H203 C199 0.950 . S
H204 C201 0.950 . S
C205 C196 1.390 . S
C205 H198 0.950 . S
C205 C202 1.387 . S
C206 C207 1.387 . S
C206 H210 0.950 . S
C206 C215 1.390 1_554 S
C207 C206 1.387 . S
C207 C209 1.387 . S
H208 C215 0.950 . S
C209 C207 1.387 . S
C209 C211 1.390 1_554 S
C209 H213 0.950 . S
H210 C206 0.950 . S
C211 C209 1.390 1_556 S
C211 C212 1.387 . S
C211 H214 0.950 . S
C212 C211 1.387 . S
C212 C215 1.387 . S
H213 C209 0.950 . S
H214 C211 0.950 . S
C215 C206 1.390 1_556 S
C215 H208 0.950 . S
C215 C212 1.387 . S
C216 C217 1.387 . S
C216 H220 0.950 . S
C216 C225 1.390 1_554 S
C217 C216 1.387 . S
C217 C219 1.387 . S
H218 C225 0.950 . S
C219 C217 1.387 . S
C219 C221 1.390 1_554 S
C219 H223 0.950 . S
H220 C216 0.950 . S
C221 C219 1.390 1_556 S
C221 C222 1.387 . S
C221 H224 0.950 . S
C222 C221 1.387 . S
C222 C225 1.387 . S
H223 C219 0.950 . S
H224 C221 0.950 . S
C225 C216 1.390 1_556 S
C225 H218 0.950 . S
C225 C222 1.387 . S
C226 C227 1.387 . S
C226 H230 0.950 . S
C226 C235 1.390 . S
C227 C226 1.387 . S
C227 C229 1.387 . S
H228 C235 0.950 . S
C229 C227 1.387 . S
C229 C231 1.390 . S
C229 H233 0.950 . S
H230 C226 0.950 . S
C231 C229 1.390 . S
C231 C232 1.387 . S
C231 H234 0.950 . S
C232 C231 1.387 . S
C232 C235 1.387 . S
H233 C229 0.950 . S
H234 C231 0.950 . S
C235 C226 1.390 . S
C235 H228 0.950 . S
C235 C232 1.387 . S
C236 C237 1.387 . S
C236 H240 0.950 . S
C236 C245 1.390 . S
C237 C236 1.387 . S
C237 C239 1.387 . S
H238 C245 0.950 . S
C239 C237 1.387 . S
C239 C241 1.390 . S
C239 H243 0.950 . S
H240 C236 0.950 . S
C241 C239 1.390 . S
C241 C242 1.387 . S
C241 H244 0.950 . S
C242 C241 1.387 . S
C242 C245 1.387 . S
H243 C239 0.950 . S
H244 C241 0.950 . S
C245 C236 1.390 . S
C245 H238 0.950 . S
C245 C242 1.387 . S
C246 C247 1.387 . S
C246 H250 0.950 . S
C246 C255 1.390 1_554 S
C247 C246 1.387 . S
C247 C249 1.387 . S
H248 C255 0.950 . S
C249 C247 1.387 . S
C249 C251 1.390 1_554 S
C249 H253 0.950 . S
H250 C246 0.950 . S
C251 C249 1.390 1_556 S
C251 C252 1.387 . S
C251 H254 0.950 . S
C252 C251 1.387 . S
C252 C255 1.387 . S
H253 C249 0.950 . S
H254 C251 0.950 . S
C255 C246 1.390 1_556 S
C255 H248 0.950 . S
C255 C252 1.387 . S
C256 C257 1.387 . S
C256 H260 0.950 . S
C256 C265 1.390 . S
C257 C256 1.387 . S
C257 C259 1.387 . S
H258 C265 0.950 . S
C259 C257 1.387 . S
C259 C261 1.390 . S
C259 H263 0.950 . S
H260 C256 0.950 . S
C261 C259 1.390 . S
C261 C262 1.387 . S
C261 H264 0.950 . S
C262 C261 1.387 . S
C262 C265 1.387 . S
H263 C259 0.950 . S
H264 C261 0.950 . S
C265 C256 1.390 . S
C265 H258 0.950 . S
C265 C262 1.387 . S
C266 C267 1.387 . S
C266 H270 0.950 . S
C266 C275 1.390 . S
C267 C266 1.387 . S
C267 C269 1.387 . S
H268 C275 0.950 . S
C269 C267 1.387 . S
C269 C271 1.390 . S
C269 H273 0.950 . S
H270 C266 0.950 . S
C271 C269 1.390 . S
C271 C272 1.387 . S
C271 H274 0.950 . S
C272 C271 1.387 . S
C272 C275 1.387 . S
H273 C269 0.950 . S
H274 C271 0.950 . S
C275 C266 1.390 . S
C275 H268 0.950 . S
C275 C272 1.387 . S
C276 C277 1.387 . S
C276 H280 0.950 1_554 S
C276 C285 1.390 . S
C277 C276 1.387 . S
C277 C279 1.387 . S
H278 C285 0.950 1_556 S
C279 C277 1.387 . S
C279 C281 1.390 . S
C279 H283 0.950 . S
H280 C276 0.950 1_556 S
C281 C279 1.390 . S
C281 C282 1.387 . S
C281 H284 0.950 . S
C282 C281 1.387 . S
C282 C285 1.387 . S
H283 C279 0.950 . S
H284 C281 0.950 . S
C285 C276 1.390 . S
C285 H278 0.950 1_554 S
C285 C282 1.387 . S
C286 C287 1.387 . S
C286 H290 0.950 . S
C286 C295 1.390 1_655 S
C287 C286 1.387 . S
C287 C289 1.387 . S
H288 C295 0.950 . S
C289 C287 1.387 . S
C289 C291 1.390 1_655 S
C289 H293 0.950 . S
H290 C286 0.950 . S
C291 C289 1.390 1_455 S
C291 C292 1.387 . S
C291 H294 0.950 . S
C292 C291 1.387 . S
C292 C295 1.387 . S
H293 C289 0.950 . S
H294 C291 0.950 . S
C295 C286 1.390 1_455 S
C295 H288 0.950 . S
C295 C292 1.387 . S
C296 C297 1.387 . S
C296 H300 0.950 . S
C296 C305 1.390 1_545 S
C297 C296 1.387 . S
C297 C299 1.387 . S
H298 C305 0.950 . S
C299 C297 1.387 . S
C299 C301 1.390 1_545 S
C299 H303 0.950 . S
H300 C296 0.950 . S
C301 C299 1.390 1_565 S
C301 C302 1.387 . S
C301 H304 0.950 . S
C302 C301 1.387 . S
C302 C305 1.387 . S
H303 C299 0.950 . S
H304 C301 0.950 . S
C305 C296 1.390 1_565 S
C305 H298 0.950 . S
C305 C302 1.387 . S
C306 C307 1.387 . S
C306 H310 0.950 . S
C306 C315 1.390 . S
C307 C306 1.387 . S
C307 C309 1.387 . S
H308 C315 0.950 . S
C309 C307 1.387 . S
C309 C311 1.390 . S
C309 H313 0.950 . S
H310 C306 0.950 . S
C311 C309 1.390 . S
C311 C312 1.387 . S
C311 H314 0.950 . S
C312 C311 1.387 . S
C312 C315 1.387 . S
H313 C309 0.950 . S
H314 C311 0.950 . S
C315 C306 1.390 . S
C315 H308 0.950 . S
C315 C312 1.387 . S
C316 C317 1.387 . S
C316 H320 0.950 . S
C316 C325 1.390 1_455 S
C317 C316 1.387 . S
C317 C319 1.387 . S
H318 C325 0.950 . S
C319 C317 1.387 . S
C319 C321 1.390 1_455 S
C319 H323 0.950 1_556 S
H320 C316 0.950 . S
C321 C319 1.390 1_655 S
C321 C322 1.387 . S
C321 H324 0.950 1_556 S
C322 C321 1.387 . S
C322 C325 1.387 . S
H323 C319 0.950 1_554 S
H324 C321 0.950 1_554 S
C325 C316 1.390 1_655 S
C325 H318 0.950 . S
C325 C322 1.387 . S
C326 C327 1.387 . S
C326 H330 0.950 . S
C326 C335 1.390 1_565 S
C327 C326 1.387 . S
C327 C329 1.387 . S
H328 C335 0.950 . S
C329 C327 1.387 . S
C329 C331 1.390 1_565 S
C329 H333 0.950 . S
H330 C326 0.950 . S
C331 C329 1.390 1_545 S
C331 C332 1.387 . S
C331 H334 0.950 . S
C332 C331 1.387 . S
C332 C335 1.387 . S
H333 C329 0.950 . S
H334 C331 0.950 . S
C335 C326 1.390 1_545 S
C335 H328 0.950 . S
C335 C332 1.387 . S
C336 C337 1.387 . S
C336 H340 0.950 . S
C336 C345 1.390 . S
C337 C336 1.387 . S
C337 C339 1.387 . S
H338 C345 0.950 . S
C339 C337 1.387 . S
C339 C341 1.390 . S
C339 H343 0.950 . S
H340 C336 0.950 . S
C341 C339 1.390 . S
C341 C342 1.387 . S
C341 H344 0.950 . S
C342 C341 1.387 . S
C342 C345 1.387 . S
H343 C339 0.950 . S
H344 C341 0.950 . S
C345 C336 1.390 . S
C345 H338 0.950 . S
C345 C342 1.387 . S
C346 C347 1.387 . S
C346 H350 0.950 . S
C346 C355 1.390 . S
C347 C346 1.387 . S
C347 C349 1.387 . S
H348 C355 0.950 . S
C349 C347 1.387 . S
C349 C351 1.390 . S
C349 H353 0.950 . S
H350 C346 0.950 . S
C351 C349 1.390 . S
C351 C352 1.387 . S
C351 H354 0.950 . S
C352 C351 1.387 . S
C352 C355 1.387 . S
H353 C349 0.950 . S
H354 C351 0.950 . S
C355 C346 1.390 . S
C355 H348 0.950 . S
C355 C352 1.387 . S
C356 C357 1.387 . S
C356 H360 0.950 . S
C356 C365 1.390 . S
C357 C356 1.387 . S
C357 C359 1.387 . S
H358 C365 0.950 . S
C359 C357 1.387 . S
C359 C361 1.390 . S
C359 H363 0.950 . S
H360 C356 0.950 . S
C361 C359 1.390 . S
C361 C362 1.387 . S
C361 H364 0.950 . S
C362 C361 1.387 . S
C362 C365 1.387 . S
H363 C359 0.950 . S
H364 C361 0.950 . S
C365 C356 1.390 . S
C365 H358 0.950 . S
C365 C362 1.387 . S
C366 C367 1.387 . S
C366 H370 0.950 . S
C366 C375 1.390 . S
C367 C366 1.387 . S
C367 C369 1.387 . S
H368 C375 0.950 . S
C369 C367 1.387 . S
C369 C371 1.390 . S
C369 H373 0.950 . S
H370 C366 0.950 . S
C371 C369 1.390 . S
C371 C372 1.387 . S
C371 H374 0.950 . S
C372 C371 1.387 . S
C372 C375 1.387 . S
H373 C369 0.950 . S
H374 C371 0.950 . S
C375 C366 1.390 . S
C375 H368 0.950 . S
C375 C372 1.387 . S
C376 C377 1.387 . S
C376 H380 0.950 . S
C376 C385 1.390 . S
C377 C376 1.387 . S
C377 C379 1.387 . S
H378 C385 0.950 . S
C379 C377 1.387 . S
C379 C381 1.390 . S
C379 H383 0.950 . S
H380 C376 0.950 . S
C381 C379 1.390 . S
C381 C382 1.387 . S
C381 H384 0.950 . S
C382 C381 1.387 . S
C382 C385 1.387 . S
H383 C379 0.950 . S
H384 C381 0.950 . S
C385 C376 1.390 . S
C385 H378 0.950 . S
C385 C382 1.387 . S
C386 C387 1.387 . S
C386 H390 0.950 . S
C386 C395 1.390 . S
C387 C386 1.387 . S
C387 C389 1.387 . S
H388 C395 0.950 . S
C389 C387 1.387 . S
C389 C391 1.390 . S
C389 H393 0.950 . S
H390 C386 0.950 . S
C391 C389 1.390 . S
C391 C392 1.387 . S
C391 H394 0.950 . S
C392 C391 1.387 . S
C392 C395 1.387 . S
H393 C389 0.950 . S
H394 C391 0.950 . S
C395 C386 1.390 . S
C395 H388 0.950 . S
C395 C392 1.387 . S
C157 C5 1.693 . S
C162 C83 1.692 . S
C167 C18 1.693 . S
C172 C96 1.692 . S
C177 C31 1.695 . S
C182 C109 1.695 . S
C187 C44 1.692 . S
C192 C122 1.692 . S
C197 C57 1.694 . S
C202 C135 1.693 . S
C207 C148 1.692 . S
C212 C70 1.692 . S
C217 C3 1.780 . S
C222 C133 1.780 . S
C227 C16 1.781 . S
C232 C146 1.781 . S
C237 C29 1.782 . S
C242 C81 1.782 . S
C247 C42 1.782 . S
C252 C94 1.782 . S
C257 C55 1.782 . S
C262 C107 1.782 . S
C267 C68 1.782 . S
C272 C120 1.782 . S
C277 C1 1.792 . S
C282 C40 1.792 . S
C287 C14 1.794 . S
C292 C53 1.794 . S
C297 C66 1.794 . S
C302 C27 1.794 . S
C307 C79 1.792 . S
C312 C118 1.792 . S
C317 C131 1.794 . S
C322 C92 1.794 . S
C327 C105 1.792 . S
C332 C144 1.792 . S
C337 C88 1.062 . S
C342 C10 1.062 . S
C347 C23 1.059 . S
C352 C101 1.059 . S
C357 C36 1.059 . S
C362 C114 1.059 . S
C367 C127 1.060 . S
C372 C49 1.061 . S
C377 C140 1.059 . S
C382 C62 1.059 . S
C387 C75 1.062 . S
C392 C153 1.062 . S
