# Generated by pormake.
# Topology wjb, (6)-cn, num edge types: 1
# Building blocks:
#     Node 0, Type 0, BuildingBlock: IZENUY_clean_sbu_0, # of connection points: 6
#     Node 1, Type 0, BuildingBlock: IZENUY_clean_sbu_0, # of connection points: 6
#     Node 2, Type 0, BuildingBlock: IZENUY_clean_sbu_0, # of connection points: 6
#     Node 3, Type 0, BuildingBlock: IZENUY_clean_sbu_0, # of connection points: 6
#     Node 4, Type 0, BuildingBlock: IZENUY_clean_sbu_0, # of connection points: 6
#     Node 5, Type 0, BuildingBlock: IZENUY_clean_sbu_0, # of connection points: 6
#     Node 6, Type 0, BuildingBlock: IZENUY_clean_sbu_0, # of connection points: 6
#     Node 7, Type 0, BuildingBlock: IZENUY_clean_sbu_0, # of connection points: 6
#     Node 8, Type 0, BuildingBlock: IZENUY_clean_sbu_0, # of connection points: 6
#     Node 9, Type 0, BuildingBlock: IZENUY_clean_sbu_0, # of connection points: 6
#     Node 10, Type 0, BuildingBlock: IZENUY_clean_sbu_0, # of connection points: 6
#     Node 11, Type 0, BuildingBlock: IZENUY_clean_sbu_0, # of connection points: 6
#     Node 12, Type 0, BuildingBlock: IZENUY_clean_sbu_0, # of connection points: 6
#     Node 13, Type 0, BuildingBlock: IZENUY_clean_sbu_0, # of connection points: 6
#     Node 14, Type 0, BuildingBlock: IZENUY_clean_sbu_0, # of connection points: 6
#     Node 15, Type 0, BuildingBlock: IZENUY_clean_sbu_0, # of connection points: 6
#     Node 16, Type 0, BuildingBlock: IZENUY_clean_sbu_0, # of connection points: 6
#     Node 17, Type 0, BuildingBlock: IZENUY_clean_sbu_0, # of connection points: 6
#     Node 18, Type 0, BuildingBlock: IZENUY_clean_sbu_0, # of connection points: 6
#     Node 19, Type 0, BuildingBlock: IZENUY_clean_sbu_0, # of connection points: 6
#     Node 20, Type 0, BuildingBlock: IZENUY_clean_sbu_0, # of connection points: 6
#     Node 21, Type 0, BuildingBlock: IZENUY_clean_sbu_0, # of connection points: 6
#     Node 22, Type 0, BuildingBlock: IZENUY_clean_sbu_0, # of connection points: 6
#     Node 23, Type 0, BuildingBlock: IZENUY_clean_sbu_0, # of connection points: 6
#     Edge 24, Type (0, 0), BuildingBlock: OJICUG_clean_linker_0, # of connection points: 2
#     Edge 25, Type (0, 0), BuildingBlock: OJICUG_clean_linker_0, # of connection points: 2
#     Edge 26, Type (0, 0), BuildingBlock: OJICUG_clean_linker_0, # of connection points: 2
#     Edge 27, Type (0, 0), BuildingBlock: OJICUG_clean_linker_0, # of connection points: 2
#     Edge 28, Type (0, 0), BuildingBlock: OJICUG_clean_linker_0, # of connection points: 2
#     Edge 29, Type (0, 0), BuildingBlock: OJICUG_clean_linker_0, # of connection points: 2
#     Edge 30, Type (0, 0), BuildingBlock: OJICUG_clean_linker_0, # of connection points: 2
#     Edge 31, Type (0, 0), BuildingBlock: OJICUG_clean_linker_0, # of connection points: 2
#     Edge 32, Type (0, 0), BuildingBlock: OJICUG_clean_linker_0, # of connection points: 2
#     Edge 33, Type (0, 0), BuildingBlock: OJICUG_clean_linker_0, # of connection points: 2
#     Edge 34, Type (0, 0), BuildingBlock: OJICUG_clean_linker_0, # of connection points: 2
#     Edge 35, Type (0, 0), BuildingBlock: OJICUG_clean_linker_0, # of connection points: 2
#     Edge 36, Type (0, 0), BuildingBlock: OJICUG_clean_linker_0, # of connection points: 2
#     Edge 37, Type (0, 0), BuildingBlock: OJICUG_clean_linker_0, # of connection points: 2
#     Edge 38, Type (0, 0), BuildingBlock: OJICUG_clean_linker_0, # of connection points: 2
#     Edge 39, Type (0, 0), BuildingBlock: OJICUG_clean_linker_0, # of connection points: 2
#     Edge 40, Type (0, 0), BuildingBlock: OJICUG_clean_linker_0, # of connection points: 2
#     Edge 41, Type (0, 0), BuildingBlock: OJICUG_clean_linker_0, # of connection points: 2
#     Edge 42, Type (0, 0), BuildingBlock: OJICUG_clean_linker_0, # of connection points: 2
#     Edge 43, Type (0, 0), BuildingBlock: OJICUG_clean_linker_0, # of connection points: 2
#     Edge 44, Type (0, 0), BuildingBlock: OJICUG_clean_linker_0, # of connection points: 2
#     Edge 45, Type (0, 0), BuildingBlock: OJICUG_clean_linker_0, # of connection points: 2
#     Edge 46, Type (0, 0), BuildingBlock: OJICUG_clean_linker_0, # of connection points: 2
#     Edge 47, Type (0, 0), BuildingBlock: OJICUG_clean_linker_0, # of connection points: 2
#     Edge 48, Type (0, 0), BuildingBlock: OJICUG_clean_linker_0, # of connection points: 2
#     Edge 49, Type (0, 0), BuildingBlock: OJICUG_clean_linker_0, # of connection points: 2
#     Edge 50, Type (0, 0), BuildingBlock: OJICUG_clean_linker_0, # of connection points: 2
#     Edge 51, Type (0, 0), BuildingBlock: OJICUG_clean_linker_0, # of connection points: 2
#     Edge 52, Type (0, 0), BuildingBlock: OJICUG_clean_linker_0, # of connection points: 2
#     Edge 53, Type (0, 0), BuildingBlock: OJICUG_clean_linker_0, # of connection points: 2
#     Edge 54, Type (0, 0), BuildingBlock: OJICUG_clean_linker_0, # of connection points: 2
#     Edge 55, Type (0, 0), BuildingBlock: OJICUG_clean_linker_0, # of connection points: 2
#     Edge 56, Type (0, 0), BuildingBlock: OJICUG_clean_linker_0, # of connection points: 2
#     Edge 57, Type (0, 0), BuildingBlock: OJICUG_clean_linker_0, # of connection points: 2
#     Edge 58, Type (0, 0), BuildingBlock: OJICUG_clean_linker_0, # of connection points: 2
#     Edge 59, Type (0, 0), BuildingBlock: OJICUG_clean_linker_0, # of connection points: 2
#     Edge 60, Type (0, 0), BuildingBlock: OJICUG_clean_linker_0, # of connection points: 2
#     Edge 61, Type (0, 0), BuildingBlock: OJICUG_clean_linker_0, # of connection points: 2
#     Edge 62, Type (0, 0), BuildingBlock: OJICUG_clean_linker_0, # of connection points: 2
#     Edge 63, Type (0, 0), BuildingBlock: OJICUG_clean_linker_0, # of connection points: 2
#     Edge 64, Type (0, 0), BuildingBlock: OJICUG_clean_linker_0, # of connection points: 2
#     Edge 65, Type (0, 0), BuildingBlock: OJICUG_clean_linker_0, # of connection points: 2
#     Edge 66, Type (0, 0), BuildingBlock: OJICUG_clean_linker_0, # of connection points: 2
#     Edge 67, Type (0, 0), BuildingBlock: OJICUG_clean_linker_0, # of connection points: 2
#     Edge 68, Type (0, 0), BuildingBlock: OJICUG_clean_linker_0, # of connection points: 2
#     Edge 69, Type (0, 0), BuildingBlock: OJICUG_clean_linker_0, # of connection points: 2
#     Edge 70, Type (0, 0), BuildingBlock: OJICUG_clean_linker_0, # of connection points: 2
#     Edge 71, Type (0, 0), BuildingBlock: OJICUG_clean_linker_0, # of connection points: 2
#     Edge 72, Type (0, 0), BuildingBlock: OJICUG_clean_linker_0, # of connection points: 2
#     Edge 73, Type (0, 0), BuildingBlock: OJICUG_clean_linker_0, # of connection points: 2
#     Edge 74, Type (0, 0), BuildingBlock: OJICUG_clean_linker_0, # of connection points: 2
#     Edge 75, Type (0, 0), BuildingBlock: OJICUG_clean_linker_0, # of connection points: 2
#     Edge 76, Type (0, 0), BuildingBlock: OJICUG_clean_linker_0, # of connection points: 2
#     Edge 77, Type (0, 0), BuildingBlock: OJICUG_clean_linker_0, # of connection points: 2
#     Edge 78, Type (0, 0), BuildingBlock: OJICUG_clean_linker_0, # of connection points: 2
#     Edge 79, Type (0, 0), BuildingBlock: OJICUG_clean_linker_0, # of connection points: 2
#     Edge 80, Type (0, 0), BuildingBlock: OJICUG_clean_linker_0, # of connection points: 2
#     Edge 81, Type (0, 0), BuildingBlock: OJICUG_clean_linker_0, # of connection points: 2
#     Edge 82, Type (0, 0), BuildingBlock: OJICUG_clean_linker_0, # of connection points: 2
#     Edge 83, Type (0, 0), BuildingBlock: OJICUG_clean_linker_0, # of connection points: 2
#     Edge 84, Type (0, 0), BuildingBlock: OJICUG_clean_linker_0, # of connection points: 2
#     Edge 85, Type (0, 0), BuildingBlock: OJICUG_clean_linker_0, # of connection points: 2
#     Edge 86, Type (0, 0), BuildingBlock: OJICUG_clean_linker_0, # of connection points: 2
#     Edge 87, Type (0, 0), BuildingBlock: OJICUG_clean_linker_0, # of connection points: 2
#     Edge 88, Type (0, 0), BuildingBlock: OJICUG_clean_linker_0, # of connection points: 2
#     Edge 89, Type (0, 0), BuildingBlock: OJICUG_clean_linker_0, # of connection points: 2
#     Edge 90, Type (0, 0), BuildingBlock: OJICUG_clean_linker_0, # of connection points: 2
#     Edge 91, Type (0, 0), BuildingBlock: OJICUG_clean_linker_0, # of connection points: 2
#     Edge 92, Type (0, 0), BuildingBlock: OJICUG_clean_linker_0, # of connection points: 2
#     Edge 93, Type (0, 0), BuildingBlock: OJICUG_clean_linker_0, # of connection points: 2
#     Edge 94, Type (0, 0), BuildingBlock: OJICUG_clean_linker_0, # of connection points: 2
#     Edge 95, Type (0, 0), BuildingBlock: OJICUG_clean_linker_0, # of connection points: 2
# Relax obj value: 0.471
# Max RMSD: 0.193
# Mean RMSD: 0.193
data_MOF--net-wjb--node1-IZENUY_clean_sbu_0--edge1-OJICUG_clean_linker_0
_symmetry_space_group_name_H-M    P1
_symmetry_Int_Tables_number       1
_symmetry_cell_setting            triclinic
loop_
_symmetry_equiv_pos_as_xyz
'x, y, z'
_cell_length_a     38.351896
_cell_length_b     38.429867
_cell_length_c     40.849559
_cell_angle_alpha  89.969852
_cell_angle_beta   90.071672
_cell_angle_gamma 119.93117
loop_
_atom_site_label
_atom_site_type_symbol
_atom_site_fract_x
_atom_site_fract_y
_atom_site_fract_z
_atom_type_partial_charge
Fe0 Fe 0.17532 0.45977 0.1329 0.0
Fe1 Fe 0.13615 0.51313 0.13367 0.0
O2 O 0.17335 0.5025 0.11896 0.0
Fe3 Fe 0.20902 0.53508 0.09038 0.0
O4 O 0.24963 0.52689 0.10427 0.0
O5 O 0.22651 0.49103 0.14906 0.0
O6 O 0.15687 0.46081 0.17426 0.0
C7 C 0.15684 0.48929 0.18993 0.0
C8 C 0.1943 0.46387 0.06494 0.0
O9 O 0.1539 0.51656 0.17518 0.0
C10 C 0.13755 0.53167 0.0693 0.0
O11 O 0.12426 0.4259 0.11791 0.0
O12 O 0.09765 0.46028 0.1389 0.0
O13 O 0.19217 0.4952 0.06044 0.0
O14 O 0.19476 0.45171 0.09379 0.0
C15 C 0.20612 0.58991 0.13082 0.0
O16 O 0.11598 0.51056 0.09272 0.0
O17 O 0.17541 0.54949 0.07102 0.0
C18 C 0.09386 0.4286 0.12609 0.0
O19 O 0.16814 0.56821 0.13126 0.0
O20 O 0.22761 0.5767 0.11888 0.0
C21 C 0.25568 0.51595 0.13179 0.0
Fe22 Fe 0.67392 0.20136 0.59155 0.0
Fe23 Fe 0.72313 0.17433 0.63237 0.0
O24 O 0.67585 0.16763 0.61967 0.0
Fe25 Fe 0.62995 0.12749 0.63456 0.0
O26 O 0.61472 0.1617 0.65188 0.0
O27 O 0.62623 0.19565 0.60628 0.0
O28 O 0.69877 0.24187 0.6202 0.0
C29 C 0.73299 0.25317 0.6324 0.0
C30 C 0.61516 0.13103 0.56718 0.0
O31 O 0.74824 0.23026 0.63205 0.0
C32 C 0.67335 0.08949 0.62376 0.0
O33 O 0.7212 0.2148 0.57105 0.0
O34 O 0.73902 0.17279 0.59035 0.0
O35 O 0.60195 0.12145 0.59619 0.0
O36 O 0.64899 0.1616 0.56192 0.0
C37 C 0.68097 0.1515 0.69034 0.0
O38 O 0.70508 0.11948 0.6351 0.0
O39 O 0.64194 0.09125 0.61829 0.0
C40 C 0.7402 0.19612 0.56808 0.0
O41 O 0.71176 0.17687 0.67502 0.0
O42 O 0.64979 0.12599 0.67519 0.0
C43 C 0.61092 0.1867 0.63449 0.0
Fe44 Fe 0.47509 0.67386 0.094 0.0
Fe45 Fe 0.55365 0.71729 0.13282 0.0
O46 O 0.51039 0.67189 0.12049 0.0
Fe47 Fe 0.50183 0.6244 0.13402 0.0
O48 O 0.45306 0.61094 0.15202 0.0
O49 O 0.43163 0.6271 0.10823 0.0
O50 O 0.46319 0.70027 0.1246 0.0
C51 C 0.48891 0.73391 0.13624 0.0
C52 C 0.48229 0.61327 0.06656 0.0
O53 O 0.52646 0.74608 0.13414 0.0
C54 C 0.58338 0.6632 0.12242 0.0
O55 O 0.51073 0.72089 0.07387 0.0
O56 O 0.56994 0.73261 0.09037 0.0
O57 O 0.47882 0.59864 0.09507 0.0
O58 O 0.48616 0.64764 0.0626 0.0
C59 C 0.53264 0.67404 0.19053 0.0
O60 O 0.58769 0.69579 0.1341 0.0
O61 O 0.54902 0.63357 0.11709 0.0
C62 C 0.5481 0.73681 0.06936 0.0
O63 O 0.54084 0.70605 0.17568 0.0
O64 O 0.52385 0.64217 0.17491 0.0
C65 C 0.42454 0.60903 0.1353 0.0
Fe66 Fe 0.81326 0.47837 0.5932 0.0
Fe67 Fe 0.84793 0.55485 0.63444 0.0
O68 O 0.84953 0.51167 0.62118 0.0
Fe69 Fe 0.88716 0.50152 0.6359 0.0
O70 O 0.85534 0.44634 0.63439 0.0
O71 O 0.79562 0.43726 0.62208 0.0
O72 O 0.77273 0.48627 0.60778 0.0
C73 C 0.76772 0.49798 0.6353 0.0
C74 C 0.88457 0.48171 0.57166 0.0
O75 O 0.79733 0.52406 0.65157 0.0
C76 C 0.92916 0.58557 0.62634 0.0
O77 O 0.82887 0.51755 0.56269 0.0
O78 O 0.82711 0.5617 0.59565 0.0
O79 O 0.90647 0.50309 0.59486 0.0
O80 O 0.84673 0.46404 0.57351 0.0
C81 C 0.86815 0.52726 0.69181 0.0
O82 O 0.89859 0.58815 0.61833 0.0
O83 O 0.92559 0.55446 0.64008 0.0
C84 C 0.82666 0.54885 0.56695 0.0
O85 O 0.86758 0.55511 0.67556 0.0
O86 O 0.87056 0.49934 0.67767 0.0
C87 C 0.8174 0.42434 0.63393 0.0
Fe88 Fe 0.3944 0.88657 0.13433 0.0
Fe89 Fe 0.35057 0.81281 0.09118 0.0
O90 O 0.3485 0.8466 0.11914 0.0
Fe91 Fe 0.30119 0.84013 0.13136 0.0
O92 O 0.31217 0.83785 0.17432 0.0
O93 O 0.3744 0.88822 0.17476 0.0
O94 O 0.4092 0.85213 0.15192 0.0
C95 C 0.41312 0.82717 0.13461 0.0
C96 C 0.3516 0.9251 0.12272 0.0
O97 O 0.39816 0.8185 0.10625 0.0
C98 C 0.28422 0.81764 0.06698 0.0
O99 O 0.42258 0.89252 0.09616 0.0
O100 O 0.37566 0.85259 0.06164 0.0
O101 O 0.31944 0.89516 0.13363 0.0
O102 O 0.38293 0.92306 0.11786 0.0
C103 C 0.29126 0.76113 0.13176 0.0
O104 O 0.30339 0.79916 0.07028 0.0
O105 O 0.28544 0.84125 0.08904 0.0
C106 C 0.4094 0.8832 0.0671 0.0
O107 O 0.32556 0.77238 0.11981 0.0
O108 O 0.27609 0.78414 0.13132 0.0
C109 C 0.34306 0.86291 0.1898 0.0
Fe110 Fe 0.55059 0.34106 0.59342 0.0
Fe111 Fe 0.47121 0.29736 0.63082 0.0
O112 O 0.5146 0.34286 0.61902 0.0
Fe113 Fe 0.52221 0.39013 0.63221 0.0
O114 O 0.57039 0.40404 0.65137 0.0
O115 O 0.59376 0.3873 0.60897 0.0
O116 O 0.56144 0.31404 0.62425 0.0
C117 C 0.53541 0.28021 0.63523 0.0
C118 C 0.54383 0.40182 0.56542 0.0
O119 O 0.498 0.26821 0.63229 0.0
C120 C 0.44118 0.3509 0.61946 0.0
O121 O 0.51504 0.29447 0.57251 0.0
O122 O 0.45553 0.28268 0.58832 0.0
O123 O 0.54648 0.41635 0.59381 0.0
O124 O 0.54076 0.3678 0.56168 0.0
C125 C 0.49079 0.34004 0.68838 0.0
O126 O 0.43728 0.31889 0.63202 0.0
O127 O 0.47543 0.38048 0.61386 0.0
C128 C 0.47769 0.27875 0.56756 0.0
O129 O 0.48374 0.30837 0.67361 0.0
O130 O 0.49892 0.37176 0.67271 0.0
C131 C 0.59942 0.40519 0.63605 0.0
Fe132 Fe 0.55597 0.84028 0.89105 0.0
Fe133 Fe 0.50895 0.88648 0.88818 0.0
O134 O 0.51507 0.84663 0.90336 0.0
Fe135 Fe 0.47938 0.81285 0.93141 0.0
O136 O 0.46402 0.77235 0.90286 0.0
O137 O 0.52526 0.78427 0.89119 0.0
O138 O 0.5425 0.83784 0.84812 0.0
C139 C 0.53658 0.86285 0.83266 0.0
C140 C 0.55081 0.81809 0.95547 0.0
O141 O 0.53057 0.88815 0.84772 0.0
C142 C 0.4907 0.88319 0.95542 0.0
O143 O 0.59259 0.89535 0.88867 0.0
O144 O 0.55689 0.92307 0.9046 0.0
O145 O 0.51315 0.79948 0.95228 0.0
O146 O 0.57305 0.84162 0.93331 0.0
C147 C 0.43092 0.82695 0.88802 0.0
O148 O 0.48673 0.8924 0.92635 0.0
O149 O 0.494 0.85268 0.9609 0.0
C150 C 0.5903 0.92521 0.89967 0.0
O151 O 0.45972 0.85191 0.87066 0.0
O152 O 0.43729 0.81829 0.91636 0.0
C153 C 0.48709 0.76118 0.89085 0.0
Fe154 Fe 0.72356 0.55472 0.38894 0.0
Fe155 Fe 0.63104 0.50123 0.38668 0.0
O156 O 0.67867 0.5115 0.40183 0.0
Fe157 Fe 0.68135 0.47821 0.42998 0.0
O158 O 0.73035 0.48676 0.41642 0.0
O159 O 0.74393 0.52407 0.37238 0.0
O160 O 0.70485 0.55484 0.34748 0.0
C161 C 0.67643 0.52714 0.3311 0.0
C162 C 0.73739 0.54869 0.45685 0.0
O163 O 0.64596 0.49923 0.34508 0.0
C164 C 0.61303 0.4811 0.45074 0.0
O165 O 0.70582 0.58795 0.40449 0.0
O166 O 0.64533 0.5541 0.38244 0.0
O167 O 0.70387 0.51724 0.46068 0.0
O168 O 0.75042 0.5617 0.42827 0.0
C169 C 0.6243 0.42435 0.38855 0.0
O170 O 0.61283 0.50268 0.42759 0.0
O171 O 0.633 0.46324 0.44888 0.0
C172 C 0.67274 0.58529 0.39617 0.0
O173 O 0.60805 0.44609 0.38811 0.0
O174 O 0.65886 0.43739 0.40077 0.0
C175 C 0.74771 0.49847 0.38915 0.0
Fe176 Fe 0.13889 0.62389 0.88809 0.0
Fe177 Fe 0.21576 0.67301 0.92765 0.0
O178 O 0.17822 0.67125 0.90158 0.0
Fe179 Fe 0.18037 0.71678 0.88962 0.0
O180 O 0.18184 0.70575 0.84669 0.0
O181 O 0.13433 0.64209 0.84744 0.0
O182 O 0.17358 0.61019 0.86949 0.0
C183 C 0.20119 0.60899 0.88528 0.0
C184 C 0.09663 0.66293 0.9004 0.0
O185 O 0.21282 0.62672 0.91246 0.0
C186 C 0.20556 0.73569 0.95311 0.0
O187 O 0.13651 0.59773 0.92666 0.0
O188 O 0.1788 0.64628 0.95912 0.0
O189 O 0.12482 0.69534 0.88843 0.0
O190 O 0.10134 0.6333 0.90572 0.0
C191 C 0.26178 0.7337 0.88584 0.0
O192 O 0.22692 0.71967 0.94841 0.0
O193 O 0.17954 0.73178 0.93218 0.0
C194 C 0.14801 0.61218 0.95514 0.0
O195 O 0.2539 0.69994 0.89707 0.0
O196 O 0.23634 0.74574 0.88824 0.0
C197 C 0.15774 0.67386 0.83182 0.0
Fe198 Fe 0.5451 0.20138 0.43091 0.0
Fe199 Fe 0.46883 0.17459 0.3902 0.0
O200 O 0.50933 0.16772 0.40281 0.0
Fe201 Fe 0.51491 0.12749 0.38787 0.0
O202 O 0.56439 0.1616 0.37054 0.0
O203 O 0.5869 0.19542 0.41618 0.0
O204 O 0.56091 0.24189 0.40222 0.0
C205 C 0.53805 0.25326 0.39001 0.0
C206 C 0.53322 0.13095 0.45527 0.0
O207 O 0.49987 0.23049 0.39045 0.0
C208 C 0.4335 0.08971 0.39874 0.0
O209 O 0.51149 0.21511 0.45142 0.0
O210 O 0.45156 0.17321 0.43227 0.0
O211 O 0.5368 0.12133 0.42625 0.0
O212 O 0.53011 0.16161 0.46053 0.0
C213 C 0.48784 0.15157 0.33215 0.0
O214 O 0.43186 0.1198 0.38753 0.0
O215 O 0.46662 0.09132 0.40412 0.0
C216 C 0.47383 0.19656 0.45448 0.0
O217 O 0.48255 0.177 0.34751 0.0
O218 O 0.49358 0.12608 0.34725 0.0
C219 C 0.59323 0.18652 0.38795 0.0
Fe220 Fe 0.30048 0.45949 0.88841 0.0
Fe221 Fe 0.39299 0.5129 0.88855 0.0
O222 O 0.34494 0.50233 0.9027 0.0
Fe223 Fe 0.34137 0.53503 0.9309 0.0
O224 O 0.2932 0.52742 0.91576 0.0
O225 O 0.28104 0.4907 0.87145 0.0
O226 O 0.32078 0.46026 0.84747 0.0
C227 C 0.34923 0.4889 0.83191 0.0
C228 C 0.28389 0.46386 0.95583 0.0
O229 O 0.37921 0.51629 0.84681 0.0
C230 C 0.4092 0.53149 0.95305 0.0
O231 O 0.3174 0.42571 0.90421 0.0
O232 O 0.37859 0.46 0.88358 0.0
O233 O 0.31724 0.49515 0.96075 0.0
O234 O 0.27203 0.45168 0.92688 0.0
C235 C 0.4003 0.58993 0.89118 0.0
O236 O 0.41005 0.51045 0.92972 0.0
O237 O 0.3888 0.54894 0.95122 0.0
C238 C 0.35065 0.42842 0.89647 0.0
O239 O 0.41631 0.568 0.89088 0.0
O240 O 0.36542 0.57682 0.90264 0.0
C241 C 0.27705 0.51632 0.88795 0.0
Fe242 Fe 0.88488 0.3898 0.39052 0.0
Fe243 Fe 0.80814 0.34067 0.42992 0.0
O244 O 0.84562 0.34249 0.40393 0.0
Fe245 Fe 0.84349 0.29706 0.39194 0.0
O246 O 0.84171 0.30802 0.34918 0.0
O247 O 0.88948 0.37156 0.34989 0.0
O248 O 0.84999 0.40331 0.37178 0.0
C249 C 0.82292 0.40511 0.38784 0.0
C250 C 0.92715 0.35085 0.40285 0.0
O251 O 0.81144 0.38726 0.415 0.0
C252 C 0.81871 0.27822 0.45524 0.0
O253 O 0.88721 0.41591 0.42913 0.0
O254 O 0.8451 0.36716 0.46148 0.0
O255 O 0.89896 0.31865 0.39059 0.0
O256 O 0.92248 0.38047 0.40834 0.0
C257 C 0.76218 0.28013 0.38793 0.0
O258 O 0.79701 0.29387 0.45046 0.0
O259 O 0.84474 0.28229 0.43438 0.0
C260 C 0.87578 0.40137 0.4576 0.0
O261 O 0.77001 0.3139 0.39918 0.0
O262 O 0.78755 0.26803 0.39063 0.0
C263 C 0.86603 0.33973 0.33432 0.0
Fe264 Fe 0.8085 0.47402 0.92766 0.0
Fe265 Fe 0.8448 0.55302 0.88977 0.0
O266 O 0.84654 0.50957 0.90211 0.0
Fe267 Fe 0.88594 0.50119 0.88958 0.0
O268 O 0.8515 0.45334 0.87034 0.0
O269 O 0.81184 0.43074 0.91301 0.0
O270 O 0.7715 0.46289 0.89629 0.0
C271 C 0.76375 0.48847 0.88423 0.0
C272 C 0.87475 0.47955 0.95632 0.0
O273 O 0.7886 0.52602 0.88728 0.0
C274 C 0.92833 0.58203 0.9021 0.0
O275 O 0.79672 0.50948 0.94765 0.0
O276 O 0.84494 0.56866 0.93221 0.0
O277 O 0.8868 0.47676 0.92807 0.0
O278 O 0.84465 0.48418 0.95981 0.0
C279 C 0.86851 0.53242 0.83299 0.0
O280 O 0.90055 0.58666 0.88946 0.0
O281 O 0.92302 0.54759 0.90795 0.0
C282 C 0.81848 0.54662 0.95274 0.0
O283 O 0.84426 0.54066 0.84703 0.0
O284 O 0.89176 0.52431 0.84918 0.0
C285 C 0.82369 0.4247 0.88592 0.0
Fe286 Fe 0.30092 0.83952 0.39028 0.0
Fe287 Fe 0.3941 0.88684 0.38796 0.0
O288 O 0.34836 0.84662 0.403 0.0
Fe289 Fe 0.35068 0.81325 0.43128 0.0
O290 O 0.32603 0.77255 0.40283 0.0
O291 O 0.27626 0.78364 0.39071 0.0
O292 O 0.31229 0.83701 0.3475 0.0
C293 C 0.34306 0.86243 0.33215 0.0
C294 C 0.28394 0.81777 0.45475 0.0
O295 O 0.37411 0.88812 0.34735 0.0
C296 C 0.40921 0.88385 0.45535 0.0
O297 O 0.31865 0.89433 0.38753 0.0
O298 O 0.3819 0.92294 0.40416 0.0
O299 O 0.30337 0.7995 0.4519 0.0
O300 O 0.28489 0.84092 0.43237 0.0
C301 C 0.41351 0.82795 0.38816 0.0
O302 O 0.42231 0.89323 0.42629 0.0
O303 O 0.37546 0.85325 0.46073 0.0
C304 C 0.35037 0.92447 0.39877 0.0
O305 O 0.40944 0.85271 0.37069 0.0
O306 O 0.39848 0.81924 0.41648 0.0
C307 C 0.29176 0.76095 0.39061 0.0
Fe308 Fe 0.51792 0.38672 0.88659 0.0
Fe309 Fe 0.54714 0.33827 0.92509 0.0
O310 O 0.51082 0.3396 0.89958 0.0
Fe311 Fe 0.46777 0.29393 0.88771 0.0
O312 O 0.47998 0.30544 0.84483 0.0
O313 O 0.49413 0.36846 0.84633 0.0
O314 O 0.56589 0.40081 0.86706 0.0
C315 C 0.59514 0.40266 0.88261 0.0
C316 C 0.43714 0.34696 0.89993 0.0
O317 O 0.58977 0.38497 0.90974 0.0
C318 C 0.47507 0.27526 0.95096 0.0
O319 O 0.54273 0.41289 0.92472 0.0
O320 O 0.53674 0.36431 0.95693 0.0
O321 O 0.43332 0.31505 0.8871 0.0
O322 O 0.47135 0.37669 0.90539 0.0
C323 C 0.53311 0.27835 0.8828 0.0
O324 O 0.51235 0.29127 0.94579 0.0
O325 O 0.45251 0.27884 0.93031 0.0
C326 C 0.54061 0.39862 0.95311 0.0
O327 O 0.55856 0.31221 0.89407 0.0
O328 O 0.49547 0.26548 0.88573 0.0
C329 C 0.48687 0.33727 0.83034 0.0
Fe330 Fe 0.17601 0.45918 0.38809 0.0
Fe331 Fe 0.13751 0.51308 0.38799 0.0
O332 O 0.17471 0.50217 0.4023 0.0
Fe333 Fe 0.21095 0.5346 0.43065 0.0
O334 O 0.25129 0.5266 0.41567 0.0
O335 O 0.22667 0.49017 0.3712 0.0
O336 O 0.15652 0.4601 0.34706 0.0
C337 C 0.15704 0.48893 0.33148 0.0
C338 C 0.19665 0.46323 0.45558 0.0
O339 O 0.15479 0.51648 0.34637 0.0
C340 C 0.13974 0.53149 0.45246 0.0
O341 O 0.1253 0.42579 0.40394 0.0
O342 O 0.09884 0.46032 0.3829 0.0
O343 O 0.19476 0.49461 0.46045 0.0
O344 O 0.19651 0.45117 0.42663 0.0
C345 C 0.20752 0.58977 0.39082 0.0
O346 O 0.11789 0.51063 0.42904 0.0
O347 O 0.1776 0.5488 0.45079 0.0
C348 C 0.09494 0.42886 0.39623 0.0
O349 O 0.16956 0.56808 0.39043 0.0
O350 O 0.22907 0.57645 0.40244 0.0
C351 C 0.25631 0.51562 0.38782 0.0
Fe352 Fe 0.72618 0.17588 0.89003 0.0
Fe353 Fe 0.63309 0.13153 0.88832 0.0
O354 O 0.67974 0.17174 0.90197 0.0
Fe355 Fe 0.67976 0.20818 0.92808 0.0
O356 O 0.70547 0.24648 0.89766 0.0
O357 O 0.75343 0.23189 0.88874 0.0
O358 O 0.71486 0.17717 0.84713 0.0
C359 C 0.68335 0.15205 0.83234 0.0
C360 C 0.74371 0.20042 0.95375 0.0
O361 O 0.65216 0.12746 0.84804 0.0
C362 C 0.61979 0.14032 0.95511 0.0
O363 O 0.70631 0.12062 0.88868 0.0
O364 O 0.64403 0.09528 0.90643 0.0
O365 O 0.72686 0.22097 0.94896 0.0
O366 O 0.74127 0.17529 0.93261 0.0
C367 C 0.61581 0.19194 0.88513 0.0
O368 O 0.60608 0.1286 0.92648 0.0
O369 O 0.65395 0.17086 0.95938 0.0
C370 C 0.67436 0.09174 0.90077 0.0
O371 O 0.61838 0.16523 0.86925 0.0
O372 O 0.63267 0.20341 0.91266 0.0
C373 C 0.73952 0.25581 0.88614 0.0
Fe374 Fe 0.50177 0.62417 0.38913 0.0
Fe375 Fe 0.47367 0.67328 0.42818 0.0
O376 O 0.50956 0.67148 0.40241 0.0
Fe377 Fe 0.55294 0.71697 0.39053 0.0
O378 O 0.54035 0.7059 0.34762 0.0
O379 O 0.52486 0.64244 0.34859 0.0
O380 O 0.45353 0.61039 0.37013 0.0
C381 C 0.42459 0.60923 0.38561 0.0
C382 C 0.58288 0.6633 0.40185 0.0
O383 O 0.43043 0.62705 0.41273 0.0
C384 C 0.54656 0.73571 0.45395 0.0
O385 O 0.47764 0.59796 0.42753 0.0
O386 O 0.48362 0.64648 0.45983 0.0
O387 O 0.58687 0.6954 0.38939 0.0
O388 O 0.5486 0.63369 0.4073 0.0
C389 C 0.4887 0.73413 0.3864 0.0
O390 O 0.5092 0.71986 0.44908 0.0
O391 O 0.56871 0.73183 0.4331 0.0
C392 C 0.48038 0.6124 0.45596 0.0
O393 O 0.4627 0.70032 0.39746 0.0
O394 O 0.52613 0.74608 0.38909 0.0
C395 C 0.53284 0.67406 0.33285 0.0
Fe396 Fe 0.54477 0.20812 0.0945 0.0
Fe397 Fe 0.46602 0.17578 0.13251 0.0
O398 O 0.50831 0.17163 0.12054 0.0
Fe399 Fe 0.51468 0.13135 0.1341 0.0
O400 O 0.56305 0.16496 0.15325 0.0
O401 O 0.58703 0.20326 0.10991 0.0
O402 O 0.55735 0.24635 0.12499 0.0
C403 C 0.53266 0.25571 0.13651 0.0
C404 C 0.53685 0.14031 0.06733 0.0
O405 O 0.49483 0.23181 0.1339 0.0
C406 C 0.43365 0.09163 0.12161 0.0
O407 O 0.5105 0.221 0.07366 0.0
O408 O 0.45038 0.17532 0.08993 0.0
O409 O 0.5388 0.12851 0.09594 0.0
O410 O 0.53326 0.17087 0.06312 0.0
C411 C 0.485 0.1518 0.19014 0.0
O412 O 0.4306 0.1205 0.13377 0.0
O413 O 0.46752 0.09519 0.11591 0.0
C414 C 0.4731 0.20051 0.06884 0.0
O415 O 0.47861 0.17696 0.17541 0.0
O416 O 0.4915 0.12718 0.17438 0.0
C417 C 0.59236 0.19171 0.13743 0.0
Fe418 Fe 0.30054 0.45936 0.63328 0.0
Fe419 Fe 0.39294 0.5133 0.63419 0.0
O420 O 0.34501 0.50229 0.61938 0.0
Fe421 Fe 0.34158 0.53463 0.59074 0.0
O422 O 0.29267 0.52607 0.60463 0.0
O423 O 0.28035 0.49032 0.64948 0.0
O424 O 0.32024 0.4605 0.67466 0.0
C425 C 0.34858 0.48919 0.69036 0.0
C426 C 0.28544 0.46324 0.56532 0.0
O427 O 0.37856 0.51668 0.67562 0.0
C428 C 0.40992 0.53173 0.56984 0.0
O429 O 0.31818 0.42596 0.61809 0.0
O430 O 0.37895 0.46059 0.63947 0.0
O431 O 0.31878 0.49468 0.56084 0.0
O432 O 0.27286 0.45114 0.59418 0.0
C433 C 0.39908 0.58972 0.63123 0.0
O434 O 0.4106 0.5108 0.59333 0.0
O435 O 0.38967 0.54933 0.57144 0.0
C436 C 0.35149 0.42905 0.62617 0.0
O437 O 0.41563 0.56827 0.6317 0.0
O438 O 0.36437 0.5763 0.61919 0.0
C439 C 0.27593 0.51518 0.63222 0.0
Fe440 Fe 0.88499 0.38621 0.13616 0.0
Fe441 Fe 0.80727 0.33783 0.09772 0.0
O442 O 0.84493 0.33912 0.12318 0.0
Fe443 Fe 0.84228 0.29343 0.13503 0.0
O444 O 0.8416 0.30494 0.17791 0.0
O445 O 0.89057 0.36791 0.17638 0.0
O446 O 0.85119 0.40033 0.15576 0.0
C447 C 0.82377 0.40221 0.14026 0.0
C448 C 0.9259 0.34639 0.12277 0.0
O449 O 0.8114 0.38453 0.11312 0.0
C450 C 0.81627 0.2748 0.07179 0.0
O451 O 0.88632 0.41241 0.09807 0.0
O452 O 0.84368 0.36386 0.06586 0.0
O453 O 0.89783 0.31453 0.13564 0.0
O454 O 0.92145 0.37613 0.11729 0.0
C455 C 0.76141 0.27791 0.13999 0.0
O456 O 0.79501 0.29082 0.077 0.0
O457 O 0.84243 0.27836 0.09242 0.0
C458 C 0.87414 0.39816 0.06968 0.0
O459 O 0.76983 0.31178 0.12876 0.0
O460 O 0.78614 0.26501 0.13701 0.0
C461 C 0.8666 0.33676 0.19238 0.0
Fe462 Fe 0.55488 0.83928 0.63215 0.0
Fe463 Fe 0.50925 0.88682 0.63454 0.0
O464 O 0.51461 0.8465 0.61949 0.0
Fe465 Fe 0.4788 0.81314 0.59126 0.0
O466 O 0.46269 0.77248 0.61977 0.0
O467 O 0.52352 0.78343 0.63178 0.0
O468 O 0.54112 0.83687 0.67496 0.0
C469 C 0.53586 0.86234 0.69032 0.0
C470 C 0.54987 0.81734 0.56771 0.0
O471 O 0.53052 0.88805 0.67514 0.0
C472 C 0.49109 0.8838 0.56715 0.0
O473 O 0.59209 0.89404 0.63486 0.0
O474 O 0.55757 0.92282 0.61832 0.0
O475 O 0.5122 0.79918 0.57064 0.0
O476 O 0.57218 0.84054 0.59003 0.0
C477 C 0.43088 0.82804 0.63441 0.0
O478 O 0.48745 0.89325 0.59621 0.0
O479 O 0.4941 0.85311 0.56178 0.0
C480 C 0.5906 0.92424 0.62367 0.0
O481 O 0.45977 0.8528 0.65185 0.0
O482 O 0.43714 0.81933 0.60608 0.0
C483 C 0.48532 0.76082 0.63196 0.0
Fe484 Fe 0.72505 0.55299 0.13302 0.0
Fe485 Fe 0.63206 0.50123 0.13335 0.0
O486 O 0.67979 0.50958 0.12072 0.0
Fe487 Fe 0.68215 0.47401 0.09509 0.0
O488 O 0.70801 0.46278 0.12641 0.0
O489 O 0.75415 0.52589 0.13543 0.0
O490 O 0.71335 0.54069 0.17577 0.0
C491 C 0.68091 0.53246 0.18989 0.0
C492 C 0.74483 0.54655 0.07001 0.0
O493 O 0.64947 0.52427 0.17377 0.0
C494 C 0.62148 0.47972 0.06655 0.0
O495 O 0.70304 0.58671 0.1334 0.0
O496 O 0.64139 0.5477 0.1151 0.0
O497 O 0.72941 0.50941 0.07509 0.0
O498 O 0.74048 0.56862 0.09056 0.0
C499 C 0.61765 0.42467 0.13681 0.0
O500 O 0.60669 0.47692 0.09483 0.0
O501 O 0.65618 0.48429 0.06301 0.0
C502 C 0.67058 0.58212 0.12088 0.0
O503 O 0.61861 0.45332 0.15248 0.0
O504 O 0.6355 0.43074 0.10971 0.0
C505 C 0.74135 0.48833 0.13849 0.0
Fe506 Fe 0.18059 0.71725 0.63187 0.0
Fe507 Fe 0.13931 0.62445 0.633 0.0
O508 O 0.17849 0.67188 0.61968 0.0
Fe509 Fe 0.21596 0.67384 0.59355 0.0
O510 O 0.25411 0.70042 0.62432 0.0
O511 O 0.23652 0.74619 0.63331 0.0
O512 O 0.18216 0.706 0.67474 0.0
C513 C 0.15806 0.67405 0.68949 0.0
C514 C 0.20568 0.73655 0.5685 0.0
O515 O 0.1347 0.64235 0.67374 0.0
C516 C 0.14835 0.6132 0.5658 0.0
O517 O 0.1251 0.69565 0.63305 0.0
O518 O 0.10159 0.63378 0.6154 0.0
O519 O 0.22725 0.72076 0.57321 0.0
O520 O 0.17961 0.73241 0.5894 0.0
C521 C 0.20121 0.60907 0.63523 0.0
O522 O 0.13694 0.59859 0.59426 0.0
O523 O 0.17894 0.6475 0.56196 0.0
C524 C 0.09693 0.66342 0.62079 0.0
O525 O 0.17429 0.61089 0.65151 0.0
O526 O 0.21262 0.62716 0.60818 0.0
C527 C 0.26194 0.73412 0.63574 0.0
C528 C 0.11957 0.54564 0.98302 0.0
C529 C 0.13096 0.5865 0.9842 0.0
H530 H 0.11142 0.49472 1.01079 0.0
C531 C 0.13218 0.60423 0.01453 0.0
H532 H 0.11848 0.53134 0.95989 0.0
C533 C 0.1269 0.5829 0.04346 0.0
C534 C 0.12089 0.54382 0.04239 0.0
H535 H 0.14052 0.63561 0.01599 0.0
H536 H 0.13248 0.59861 0.0666 0.0
C537 C 0.11498 0.52449 0.01208 0.0
C538 C 0.54947 0.1129 0.54214 0.0
C539 C 0.58729 0.11578 0.53941 0.0
H540 H 0.50211 0.11559 0.51655 0.0
C541 C 0.60176 0.11348 0.50841 0.0
H542 H 0.5379 0.11492 0.56582 0.0
C543 C 0.58083 0.11289 0.48029 0.0
C544 C 0.54585 0.11569 0.48302 0.0
H545 H 0.63095 0.11571 0.50589 0.0
H546 H 0.59444 0.11493 0.45661 0.0
C547 C 0.52908 0.1134 0.51402 0.0
C548 C 0.42579 0.52524 1.01022 0.0
C549 C 0.43835 0.54434 0.97976 0.0
H550 H 0.43086 0.53235 0.06235 0.0
C551 C 0.47136 0.58343 0.97821 0.0
H552 H 0.39967 0.49545 0.01189 0.0
C553 C 0.48836 0.60493 1.00691 0.0
C554 C 0.47283 0.5874 0.0375 0.0
H555 H 0.48084 0.59894 0.95494 0.0
H556 H 0.51138 0.63628 1.00512 0.0
C557 C 0.44332 0.54655 0.03904 0.0
C558 C 0.90735 0.48879 0.5145 0.0
C559 C 0.90103 0.46936 0.5448 0.0
H560 H 0.90493 0.48217 0.4623 0.0
C561 C 0.89523 0.43037 0.54601 0.0
H562 H 0.91081 0.51852 0.51313 0.0
C563 C 0.89072 0.40923 0.51713 0.0
C564 C 0.89239 0.42703 0.48672 0.0
H565 H 0.88939 0.41463 0.56916 0.0
H566 H 0.88257 0.37791 0.51864 0.0
C567 C 0.90349 0.46781 0.48549 0.0
C568 C 0.44348 0.90169 0.98034 0.0
C569 C 0.4784 0.89878 0.98308 0.0
H570 H 0.3935 0.89893 1.00597 0.0
C571 C 0.49539 0.90123 0.01404 0.0
H572 H 0.42977 0.89961 0.95668 0.0
C573 C 0.47513 0.90176 0.04217 0.0
C574 C 0.43727 0.8988 0.03944 0.0
H575 H 0.52236 0.89903 0.01654 0.0
H576 H 0.48679 0.89973 0.06584 0.0
C577 C 0.4227 0.90118 1.00848 0.0
C578 C 0.5979 0.48884 0.50785 0.0
C579 C 0.58442 0.46907 0.47771 0.0
H580 H 0.59483 0.48268 0.56011 0.0
C581 C 0.55146 0.42992 0.47692 0.0
H582 H 0.62403 0.5187 0.50891 0.0
C583 C 0.53557 0.40899 0.506 0.0
C584 C 0.55219 0.42716 0.5362 0.0
H585 H 0.54127 0.41391 0.4539 0.0
H586 H 0.51261 0.37757 0.50478 0.0
C587 C 0.58154 0.46806 0.53708 0.0
C588 C 0.89017 0.43075 0.98239 0.0
C589 C 0.88743 0.46571 0.98484 0.0
H590 H 0.88774 0.38118 1.00838 0.0
C591 C 0.88892 0.48243 0.01567 0.0
H592 H 0.88876 0.41726 0.95877 0.0
C593 C 0.88941 0.46239 0.04392 0.0
C594 C 0.88724 0.42495 0.04143 0.0
H595 H 0.88679 0.50941 0.0179 0.0
H596 H 0.88738 0.47412 0.06752 0.0
C597 C 0.88948 0.41011 1.01063 0.0
C598 C 0.49535 0.90155 0.50844 0.0
C599 C 0.47858 0.89925 0.53944 0.0
H600 H 0.48652 0.90002 0.45664 0.0
C601 C 0.44367 0.90216 0.54219 0.0
H602 H 0.52227 0.89928 0.5059 0.0
C603 C 0.42275 0.90164 0.51406 0.0
C604 C 0.43718 0.89927 0.48306 0.0
H605 H 0.43007 0.90014 0.56587 0.0
H606 H 0.39359 0.89944 0.51661 0.0
C607 C 0.47497 0.9021 0.48032 0.0
C608 C 0.55719 0.4311 0.04045 0.0
C609 C 0.59495 0.46601 0.03804 0.0
H610 H 0.50999 0.38164 0.01441 0.0
C611 C 0.61019 0.48277 1.00722 0.0
H612 H 0.5451 0.41758 0.06405 0.0
C613 C 0.58963 0.4628 0.97894 0.0
C614 C 0.55432 0.42541 0.98139 0.0
H615 H 0.63934 0.50971 1.00501 0.0
H616 H 0.60342 0.47455 0.95535 0.0
C617 C 0.53722 0.41054 0.01218 0.0
C618 C 0.12964 0.5835 0.47746 0.0
C619 C 0.12342 0.54437 0.47906 0.0
H620 H 0.14257 0.63637 0.50434 0.0
C621 C 0.11669 0.5252 0.50951 0.0
H622 H 0.13579 0.59904 0.45418 0.0
C623 C 0.12047 0.54651 0.5383 0.0
C624 C 0.13197 0.58739 0.53673 0.0
H625 H 0.1129 0.49536 0.5112 0.0
H626 H 0.1186 0.53226 0.56163 0.0
C627 C 0.13413 0.60499 0.50613 0.0
C628 C 0.55481 0.12447 0.98018 0.0
C629 C 0.5924 0.12686 0.98314 0.0
H630 H 0.50733 0.12715 1.00551 0.0
C631 C 0.60691 0.12489 0.01423 0.0
H632 H 0.5433 0.12635 0.9564 0.0
C633 C 0.58585 0.1243 0.04222 0.0
C634 C 0.55076 0.12687 0.03927 0.0
H635 H 0.63595 0.12684 0.0169 0.0
H636 H 0.59919 0.12605 0.066 0.0
C637 C 0.53435 0.12506 1.00818 0.0
C638 C 0.42562 0.5247 0.51276 0.0
C639 C 0.43883 0.54405 0.54309 0.0
H640 H 0.42925 0.53154 0.46058 0.0
C641 C 0.47182 0.58316 0.54427 0.0
H642 H 0.39949 0.49487 0.5114 0.0
C643 C 0.48799 0.60451 0.5154 0.0
C644 C 0.47167 0.58675 0.48502 0.0
H645 H 0.48178 0.59886 0.56745 0.0
H646 H 0.51096 0.63591 0.51692 0.0
C647 C 0.4423 0.54587 0.48375 0.0
C648 C 0.32157 0.52255 0.11887 0.0
C649 C 0.29792 0.53002 0.14079 0.0
H650 H 0.38071 0.54164 0.10063 0.0
C651 C 0.31709 0.55954 0.16507 0.0
H652 H 0.30753 0.50063 0.09949 0.0
C653 C 0.35932 0.58336 0.16562 0.0
C654 C 0.38258 0.57776 0.14191 0.0
H655 H 0.29945 0.56665 0.18158 0.0
H656 H 0.37344 0.60815 0.18272 0.0
C657 C 0.36343 0.54613 0.11944 0.0
C658 C 0.81966 0.36007 0.63654 0.0
C659 C 0.79849 0.38092 0.64103 0.0
H660 H 0.8154 0.30248 0.63039 0.0
C661 C 0.75734 0.3591 0.64836 0.0
H662 H 0.85148 0.37618 0.63082 0.0
C663 C 0.73701 0.31733 0.64844 0.0
C664 C 0.75719 0.29624 0.64088 0.0
H665 H 0.74033 0.37427 0.65236 0.0
H666 H 0.70483 0.30152 0.65241 0.0
C667 C 0.79909 0.3179 0.63639 0.0
C668 C 0.49588 0.80226 0.13429 0.0
C669 C 0.47464 0.76209 0.14483 0.0
H670 H 0.49244 0.85509 0.1229 0.0
C671 C 0.43608 0.74716 0.15836 0.0
H672 H 0.52543 0.81438 0.1234 0.0
C673 C 0.41776 0.77078 0.15879 0.0
C674 C 0.43744 0.80948 0.14536 0.0
H675 H 0.41905 0.7163 0.16663 0.0
H676 H 0.38697 0.75764 0.16714 0.0
C677 C 0.47714 0.82563 0.13414 0.0
C678 C 0.70234 0.49695 0.63689 0.0
C679 C 0.72595 0.48032 0.64691 0.0
H680 H 0.64266 0.48579 0.62642 0.0
C681 C 0.7068 0.44076 0.65879 0.0
H682 H 0.71645 0.52689 0.62655 0.0
C683 C 0.6648 0.41711 0.65819 0.0
C684 C 0.64128 0.43284 0.6461 0.0
H685 H 0.72443 0.42703 0.66578 0.0
H686 H 0.65089 0.38568 0.66486 0.0
C687 C 0.66021 0.47339 0.63666 0.0
C688 C 0.20432 0.65436 0.13416 0.0
C689 C 0.2253 0.63324 0.13828 0.0
H690 H 0.20887 0.71218 0.12902 0.0
C691 C 0.26636 0.65468 0.14603 0.0
H692 H 0.17256 0.63851 0.12819 0.0
C693 C 0.28681 0.69646 0.1469 0.0
C694 C 0.26685 0.7179 0.13971 0.0
H695 H 0.28316 0.63922 0.14986 0.0
H696 H 0.31894 0.71204 0.15119 0.0
C697 C 0.22502 0.69651 0.13477 0.0
C698 C 0.60586 0.24277 0.65881 0.0
C699 C 0.58641 0.20427 0.64499 0.0
H700 H 0.60454 0.29721 0.66673 0.0
C701 C 0.54697 0.18837 0.63313 0.0
H702 H 0.63646 0.25574 0.66764 0.0
C703 C 0.52831 0.2118 0.63304 0.0
C704 C 0.54939 0.25182 0.64397 0.0
H705 H 0.53187 0.15907 0.62159 0.0
H706 H 0.49901 0.19988 0.62168 0.0
C707 C 0.58763 0.26647 0.65814 0.0
C708 C 0.46684 0.65423 0.88844 0.0
C709 C 0.42479 0.63331 0.88392 0.0
H710 H 0.52022 0.71192 0.89404 0.0
C711 C 0.40549 0.65499 0.87596 0.0
H712 H 0.48252 0.63821 0.8946 0.0
C713 C 0.42701 0.69676 0.8752 0.0
C714 C 0.46829 0.71799 0.88277 0.0
H715 H 0.37331 0.63976 0.87189 0.0
H716 H 0.41065 0.7125 0.87071 0.0
C717 C 0.48848 0.69639 0.88797 0.0
C718 C 0.76215 0.45142 0.35792 0.0
C719 C 0.77529 0.48393 0.37969 0.0
H720 H 0.76766 0.40059 0.34311 0.0
C721 C 0.8087 0.49385 0.39977 0.0
H722 H 0.73557 0.44237 0.34305 0.0
C723 C 0.82677 0.47001 0.39993 0.0
C724 C 0.81176 0.43576 0.38004 0.0
H725 H 0.81864 0.51802 0.4174 0.0
H726 H 0.8505 0.47656 0.41747 0.0
C727 C 0.7803 0.42741 0.3581 0.0
C728 C 0.32318 0.80201 0.88846 0.0
C729 C 0.30427 0.76204 0.87743 0.0
H730 H 0.37942 0.8546 0.90038 0.0
C731 C 0.32794 0.74728 0.86367 0.0
H732 H 0.30572 0.81398 0.89954 0.0
C733 C 0.36989 0.77085 0.86346 0.0
C734 C 0.38887 0.80931 0.87734 0.0
H735 H 0.31413 0.71656 0.85504 0.0
H736 H 0.38755 0.75781 0.8549 0.0
C737 C 0.36529 0.82531 0.88883 0.0
C738 C 0.55801 0.36 0.38538 0.0
C739 C 0.6001 0.38098 0.38131 0.0
H740 H 0.50474 0.30235 0.39119 0.0
C741 C 0.6197 0.35932 0.37435 0.0
H742 H 0.54211 0.376 0.39078 0.0
C743 C 0.59839 0.31754 0.37433 0.0
C744 C 0.55701 0.29633 0.3815 0.0
H745 H 0.65198 0.37466 0.37063 0.0
H746 H 0.61493 0.30183 0.37069 0.0
C747 C 0.53657 0.31785 0.38553 0.0
C748 C 0.19406 0.54093 0.88578 0.0
C749 C 0.21552 0.58127 0.87578 0.0
H750 H 0.19698 0.48773 0.89683 0.0
C751 C 0.25481 0.5969 0.86384 0.0
H752 H 0.16411 0.52865 0.89596 0.0
C753 C 0.27328 0.57336 0.86387 0.0
C754 C 0.25297 0.53401 0.87622 0.0
H755 H 0.27223 0.62821 0.85679 0.0
H756 H 0.30464 0.58703 0.85693 0.0
C757 C 0.21275 0.51749 0.88616 0.0
C758 C 0.6544 0.24278 0.36393 0.0
C759 C 0.63531 0.20412 0.37745 0.0
H760 H 0.71016 0.2974 0.35653 0.0
C761 C 0.65881 0.18816 0.38927 0.0
H762 H 0.63678 0.25578 0.35514 0.0
C763 C 0.70089 0.21168 0.38963 0.0
C764 C 0.71984 0.25183 0.37903 0.0
H765 H 0.64458 0.15875 0.40061 0.0
H766 H 0.71824 0.19969 0.40095 0.0
C767 C 0.69631 0.26657 0.3649 0.0
C768 C 0.6575 0.46954 0.88402 0.0
C769 C 0.63687 0.42981 0.87238 0.0
H770 H 0.71497 0.52037 0.89621 0.0
C771 C 0.65878 0.41323 0.85875 0.0
H772 H 0.64105 0.48247 0.89539 0.0
C773 C 0.70078 0.4347 0.85926 0.0
C774 C 0.72164 0.47302 0.87371 0.0
H775 H 0.64348 0.38239 0.85025 0.0
H776 H 0.71694 0.41996 0.85084 0.0
C777 C 0.69974 0.4912 0.88448 0.0
C778 C 0.28811 0.6966 0.37589 0.0
C779 C 0.26777 0.71775 0.38259 0.0
H780 H 0.28496 0.63964 0.37317 0.0
C781 C 0.22584 0.69613 0.38682 0.0
H782 H 0.32034 0.71237 0.37214 0.0
C783 C 0.20535 0.654 0.38723 0.0
C784 C 0.22664 0.63313 0.38359 0.0
H785 H 0.20941 0.71161 0.39215 0.0
H786 H 0.17346 0.63796 0.39265 0.0
C787 C 0.26786 0.65484 0.37655 0.0
C788 C 0.52902 0.21111 0.88426 0.0
C789 C 0.54861 0.25128 0.87372 0.0
H790 H 0.53559 0.16008 0.8959 0.0
C791 C 0.58756 0.26799 0.8605 0.0
H792 H 0.49928 0.19768 0.89501 0.0
C793 C 0.60803 0.24644 0.86079 0.0
C794 C 0.5899 0.20776 0.87414 0.0
H795 H 0.60341 0.29893 0.85227 0.0
H796 H 0.63919 0.26125 0.85307 0.0
C797 C 0.54973 0.18958 0.88474 0.0
C798 C 0.31683 0.57244 0.36332 0.0
C799 C 0.29805 0.53333 0.37615 0.0
H800 H 0.37251 0.62744 0.35602 0.0
C801 C 0.32197 0.51729 0.38672 0.0
H802 H 0.29895 0.58575 0.35591 0.0
C803 C 0.36406 0.54099 0.38647 0.0
C804 C 0.38267 0.58115 0.376 0.0
H805 H 0.30814 0.48773 0.39777 0.0
H806 H 0.38187 0.52911 0.39711 0.0
C807 C 0.35883 0.59628 0.36344 0.0
C808 C 0.82734 0.36181 0.88467 0.0
C809 C 0.80762 0.38287 0.87556 0.0
H810 H 0.82113 0.30404 0.89462 0.0
C811 C 0.7679 0.36153 0.86427 0.0
H812 H 0.85776 0.37785 0.89421 0.0
C813 C 0.74704 0.31965 0.86454 0.0
C814 C 0.76538 0.29831 0.8765 0.0
H815 H 0.752 0.37721 0.85767 0.0
H816 H 0.71552 0.30398 0.85776 0.0
C817 C 0.80638 0.31965 0.88495 0.0
C818 C 0.41834 0.77191 0.36349 0.0
C819 C 0.43788 0.81028 0.37753 0.0
H820 H 0.41953 0.71747 0.35511 0.0
C821 C 0.47732 0.82602 0.38934 0.0
H822 H 0.38774 0.75909 0.35468 0.0
C823 C 0.49592 0.80253 0.38911 0.0
C824 C 0.47476 0.76262 0.37794 0.0
H825 H 0.49249 0.85522 0.40103 0.0
H826 H 0.52523 0.8143 0.40041 0.0
C827 C 0.4365 0.74814 0.36387 0.0
C828 C 0.58898 0.31951 0.15818 0.0
C829 C 0.54933 0.29823 0.14614 0.0
H830 H 0.64163 0.37703 0.16515 0.0
C831 C 0.52978 0.31964 0.13759 0.0
H832 H 0.60476 0.30379 0.16503 0.0
C833 C 0.55105 0.36181 0.13788 0.0
C834 C 0.5918 0.38281 0.1471 0.0
H835 H 0.49946 0.30408 0.12785 0.0
H836 H 0.53675 0.37789 0.12828 0.0
C837 C 0.61007 0.3614 0.15847 0.0
C838 C 0.2599 0.56032 0.66488 0.0
C839 C 0.24817 0.5296 0.64151 0.0
H840 H 0.25349 0.61004 0.68154 0.0
C841 C 0.21606 0.52129 0.62038 0.0
H842 H 0.28546 0.5681 0.6807 0.0
C843 C 0.19804 0.54513 0.62079 0.0
C844 C 0.21182 0.57784 0.64229 0.0
H845 H 0.20716 0.49846 0.60164 0.0
H846 H 0.17543 0.53994 0.60252 0.0
C847 C 0.24181 0.58441 0.66525 0.0
C848 C 0.69661 0.26757 0.16229 0.0
C849 C 0.71884 0.25085 0.14904 0.0
H850 H 0.63826 0.2609 0.16967 0.0
C851 C 0.69823 0.21071 0.13841 0.0
H852 H 0.71172 0.29848 0.17059 0.0
C853 C 0.656 0.18924 0.13786 0.0
C854 C 0.63405 0.20745 0.14847 0.0
H855 H 0.71453 0.19728 0.12764 0.0
H856 H 0.64063 0.15977 0.12663 0.0
C857 C 0.65461 0.24608 0.16193 0.0
C858 C 0.42454 0.69627 0.64629 0.0
C859 C 0.46611 0.7176 0.63989 0.0
H860 H 0.37084 0.63909 0.64875 0.0
C861 C 0.48664 0.69617 0.63591 0.0
H862 H 0.40792 0.7119 0.64986 0.0
C863 C 0.46519 0.65406 0.63537 0.0
C864 C 0.423 0.63302 0.63866 0.0
H865 H 0.51863 0.71179 0.63083 0.0
H866 H 0.48124 0.63818 0.63011 0.0
C867 C 0.4032 0.6545 0.64554 0.0
C868 C 0.82851 0.46917 0.13888 0.0
C869 C 0.8093 0.42944 0.1505 0.0
H870 H 0.82204 0.52008 0.12665 0.0
C871 C 0.77079 0.41292 0.16408 0.0
H872 H 0.85791 0.48204 0.12756 0.0
C873 C 0.75035 0.43448 0.16353 0.0
C874 C 0.76792 0.4728 0.14908 0.0
H875 H 0.75518 0.38209 0.17256 0.0
H876 H 0.71944 0.4198 0.17191 0.0
C877 C 0.80802 0.49091 0.13837 0.0
C878 C 0.36517 0.82613 0.63351 0.0
C879 C 0.38887 0.81029 0.6451 0.0
H880 H 0.30557 0.81446 0.62242 0.0
C881 C 0.37002 0.77172 0.65878 0.0
H882 H 0.37921 0.85548 0.62207 0.0
C883 C 0.32811 0.74788 0.65821 0.0
C884 C 0.30435 0.7625 0.64434 0.0
H885 H 0.38781 0.75883 0.66742 0.0
H886 H 0.31441 0.71711 0.66668 0.0
C887 C 0.3231 0.80257 0.63356 0.0
C888 C 0.15691 0.52041 0.24371 0.0
C889 C 0.15708 0.48906 0.22614 0.0
H890 H 0.15681 0.54499 0.29055 0.0
C891 C 0.15749 0.45768 0.24352 0.0
H892 H 0.15677 0.54516 0.23113 0.0
C893 C 0.1575 0.45757 0.27774 0.0
C894 C 0.1571 0.48884 0.29527 0.0
H895 H 0.15773 0.43312 0.23074 0.0
H896 H 0.15776 0.43294 0.29041 0.0
C897 C 0.15693 0.52031 0.27785 0.0
C898 C 0.71712 0.17842 0.77814 0.0
C899 C 0.68318 0.15076 0.79601 0.0
H900 H 0.7431 0.2004 0.73103 0.0
C901 C 0.64874 0.12276 0.77877 0.0
H902 H 0.74416 0.20049 0.79055 0.0
C903 C 0.64812 0.12271 0.74452 0.0
C904 C 0.68193 0.15069 0.72666 0.0
H905 H 0.62202 0.10104 0.79171 0.0
H906 H 0.62097 0.10093 0.73206 0.0
C907 C 0.7165 0.1784 0.74392 0.0
C908 C 0.54354 0.7092 0.24458 0.0
C909 C 0.53417 0.67416 0.22694 0.0
H910 H 0.55059 0.73672 0.29142 0.0
C911 C 0.52536 0.6392 0.24453 0.0
H912 H 0.55045 0.73671 0.23196 0.0
C913 C 0.52546 0.63921 0.27885 0.0
C914 C 0.53435 0.67418 0.29644 0.0
H915 H 0.51798 0.61164 0.23181 0.0
H916 H 0.51812 0.61166 0.29157 0.0
C917 C 0.54362 0.70921 0.27881 0.0
C918 C 0.88422 0.50874 0.74625 0.0
C919 C 0.86919 0.52933 0.7279 0.0
H920 H 0.89645 0.4942 0.79392 0.0
C921 C 0.85494 0.55186 0.74437 0.0
H922 H 0.89557 0.49127 0.73423 0.0
C923 C 0.85502 0.55316 0.77853 0.0
C924 C 0.87004 0.53256 0.79688 0.0
H925 H 0.84306 0.56793 0.73086 0.0
H926 H 0.84331 0.5703 0.79056 0.0
C927 C 0.88498 0.51064 0.78041 0.0
C928 C 0.30847 0.83508 0.27807 0.0
C929 C 0.34248 0.86318 0.29573 0.0
H930 H 0.28184 0.81292 0.23102 0.0
C931 C 0.37632 0.89163 0.27817 0.0
H932 H 0.28187 0.81268 0.29071 0.0
C933 C 0.3763 0.89177 0.24391 0.0
C934 C 0.34244 0.86347 0.22623 0.0
H935 H 0.40308 0.91374 0.29087 0.0
H936 H 0.40306 0.91397 0.23131 0.0
C937 C 0.30844 0.83523 0.24377 0.0
C938 C 0.49582 0.37374 0.74249 0.0
C939 C 0.48813 0.33931 0.72467 0.0
H940 H 0.50133 0.40017 0.78978 0.0
C941 C 0.47869 0.30401 0.74195 0.0
H942 H 0.50319 0.40144 0.73 0.0
C943 C 0.47758 0.30326 0.77611 0.0
C944 C 0.48588 0.33779 0.79401 0.0
H945 H 0.47255 0.27687 0.72912 0.0
H946 H 0.47071 0.27561 0.78847 0.0
C947 C 0.49471 0.37299 0.77679 0.0
C948 C 0.5434 0.83514 0.77867 0.0
C949 C 0.53768 0.86339 0.79623 0.0
H950 H 0.54736 0.81258 0.7317 0.0
C951 C 0.5321 0.89169 0.77858 0.0
H952 H 0.54772 0.81283 0.79139 0.0
C953 C 0.53189 0.89155 0.74432 0.0
C954 C 0.53724 0.86309 0.72674 0.0
H955 H 0.52757 0.9139 0.79121 0.0
H956 H 0.52723 0.91366 0.73165 0.0
C957 C 0.54318 0.83499 0.74437 0.0
C958 C 0.64284 0.51085 0.24255 0.0
C959 C 0.67967 0.53263 0.22601 0.0
H960 H 0.61298 0.49156 0.28874 0.0
C961 C 0.71536 0.55309 0.24432 0.0
H962 H 0.61487 0.49453 0.22908 0.0
C963 C 0.71423 0.55176 0.27849 0.0
C964 C 0.67748 0.52934 0.295 0.0
H965 H 0.7442 0.57013 0.23224 0.0
H966 H 0.74223 0.56771 0.29197 0.0
C967 C 0.64179 0.50892 0.27669 0.0
C968 C 0.18217 0.70909 0.77782 0.0
C969 C 0.15639 0.67404 0.7954 0.0
H970 H 0.20287 0.73664 0.73102 0.0
C971 C 0.1303 0.63911 0.77776 0.0
H972 H 0.20272 0.73658 0.79048 0.0
C973 C 0.13039 0.63914 0.74343 0.0
C974 C 0.15657 0.67412 0.7259 0.0
H975 H 0.11006 0.61154 0.79044 0.0
H976 H 0.11021 0.61161 0.73067 0.0
C977 C 0.18225 0.70913 0.74359 0.0
C978 C 0.49147 0.12263 0.2779 0.0
C979 C 0.48582 0.15068 0.29582 0.0
H980 H 0.49551 0.10082 0.23066 0.0
C981 C 0.47884 0.17835 0.27864 0.0
H982 H 0.49691 0.10086 0.2903 0.0
C983 C 0.47796 0.17828 0.24442 0.0
C984 C 0.48408 0.15055 0.22647 0.0
H985 H 0.47435 0.2004 0.29158 0.0
H986 H 0.47293 0.20034 0.23206 0.0
C987 C 0.49062 0.12258 0.24365 0.0
C988 C 0.38006 0.52035 0.74406 0.0
C989 C 0.34839 0.48897 0.72657 0.0
H990 H 0.40517 0.54496 0.79083 0.0
C991 C 0.3168 0.45757 0.74405 0.0
H992 H 0.40482 0.54512 0.73141 0.0
C993 C 0.31702 0.45748 0.77826 0.0
C994 C 0.34884 0.48879 0.7957 0.0
H995 H 0.2919 0.43299 0.73133 0.0
H996 H 0.29225 0.43284 0.791 0.0
C997 C 0.38028 0.52026 0.7782 0.0
C998 C 0.84204 0.30281 0.24665 0.0
C999 C 0.86819 0.33732 0.22871 0.0
H1000 H 0.82088 0.27648 0.29369 0.0
C1001 C 0.8946 0.37255 0.24587 0.0
H1002 H 0.82124 0.27514 0.23433 0.0
C1003 C 0.89437 0.37336 0.28016 0.0
C1004 C 0.86774 0.33894 0.29803 0.0
H1005 H 0.91511 0.39972 0.23284 0.0
H1006 H 0.91475 0.40108 0.2926 0.0
C1007 C 0.84182 0.3036 0.28081 0.0
C1008 C 0.98786 0.35132 0.14752 0.0
C1009 C 0.96748 0.3537 0.11977 0.0
H1010 H 0.04522 0.37364 0.17122 0.0
C1011 C 0.98996 0.37367 0.0918 0.0
H1012 H 0.97135 0.33701 0.16966 0.0
C1013 C 0.03206 0.39402 0.09253 0.0
C1014 C 0.05247 0.39509 0.12134 0.0
H1015 H 0.975 0.37654 0.07029 0.0
H1016 H 0.04856 0.41221 0.07166 0.0
C1017 C 0.03012 0.3723 0.14843 0.0
C1018 C 0.64705 0.98565 0.6492 0.0
C1019 C 0.62671 0.96443 0.62086 0.0
H1020 H 0.6795 0.04365 0.67223 0.0
C1021 C 0.63197 0.98588 0.59171 0.0
H1022 H 0.64263 0.96986 0.67216 0.0
C1023 C 0.65288 0.02781 0.59175 0.0
C1024 C 0.66901 0.04918 0.62094 0.0
H1025 H 0.61608 0.97028 0.56968 0.0
H1026 H 0.6526 0.04345 0.56975 0.0
C1027 C 0.66815 0.02792 0.64924 0.0
C1028 C 0.64072 0.61587 0.08949 0.0
C1029 C 0.66231 0.6157 0.11723 0.0
H1030 H 0.59936 0.63218 0.06932 0.0
C1031 C 0.66516 0.6398 0.14418 0.0
H1032 H 0.63775 0.59734 0.0685 0.0
C1033 C 0.64297 0.66002 0.14464 0.0
C1034 C 0.61776 0.6562 0.11817 0.0
H1035 H 0.68093 0.63957 0.16612 0.0
H1036 H 0.64228 0.67499 0.16688 0.0
C1037 C 0.61866 0.63579 0.08998 0.0
C1038 C 0.03619 0.66246 0.64446 0.0
C1039 C 0.05537 0.65625 0.61766 0.0
H1040 H 0.97965 0.64461 0.66812 0.0
C1041 C 0.03193 0.63414 0.59071 0.0
H1042 H 0.05345 0.67866 0.6658 0.0
C1043 C 0.98994 0.61543 0.59177 0.0
C1044 C 0.97054 0.61814 0.61992 0.0
H1045 H 0.04595 0.62853 0.5699 0.0
H1046 H 0.97257 0.59549 0.57197 0.0
C1047 C 0.99397 0.64308 0.64574 0.0
C1048 C 0.39521 0.0288 0.08995 0.0
C1049 C 0.39872 0.05052 0.11858 0.0
H1050 H 0.37564 0.97109 0.06868 0.0
C1051 C 0.37688 0.02943 0.14648 0.0
H1052 H 0.41212 0.04425 0.06825 0.0
C1053 C 0.35584 0.98711 0.14675 0.0
C1054 C 0.35639 0.96559 0.11909 0.0
H1055 H 0.37981 0.0454 0.16909 0.0
H1056 H 0.3432 0.97154 0.16958 0.0
C1057 C 0.37423 0.98685 0.09018 0.0
C1058 C 0.40504 0.38004 0.5899 0.0
C1059 C 0.40687 0.35819 0.61682 0.0
H1060 H 0.38408 0.41861 0.57147 0.0
C1061 C 0.38225 0.35251 0.64407 0.0
H1062 H 0.42411 0.38526 0.56877 0.0
C1063 C 0.35968 0.37212 0.64574 0.0
C1064 C 0.36066 0.39673 0.61987 0.0
H1065 H 0.38375 0.33654 0.6654 0.0
H1066 H 0.34438 0.37094 0.66835 0.0
C1067 C 0.38198 0.39896 0.59135 0.0
C1068 C 0.64795 0.98729 0.87563 0.0
C1069 C 0.62592 0.96575 0.9033 0.0
H1070 H 0.68211 0.04558 0.85329 0.0
C1071 C 0.62926 0.98699 0.9322 0.0
H1072 H 0.64508 0.97172 0.85282 0.0
C1073 C 0.65008 0.02894 0.93243 0.0
C1074 C 0.66824 0.05065 0.90379 0.0
H1075 H 0.6121 0.97119 0.9537 0.0
H1076 H 0.64854 0.04435 0.95412 0.0
C1077 C 0.6691 0.0296 0.8759 0.0
C1078 C 0.61874 0.63412 0.43186 0.0
C1079 C 0.61725 0.65608 0.40488 0.0
H1080 H 0.63952 0.59552 0.4506 0.0
C1081 C 0.64237 0.66202 0.37793 0.0
H1082 H 0.5993 0.6287 0.45277 0.0
C1083 C 0.6651 0.64254 0.37658 0.0
C1084 C 0.66378 0.61778 0.40248 0.0
H1085 H 0.64117 0.67809 0.35655 0.0
H1086 H 0.68076 0.64388 0.35414 0.0
C1087 C 0.64194 0.61532 0.43074 0.0
C1088 C 0.99145 0.6397 0.87881 0.0
C1089 C 0.97022 0.61555 0.90574 0.0
H1090 H 0.04948 0.67488 0.85607 0.0
C1091 C 0.99201 0.61565 0.93344 0.0
H1092 H 0.97543 0.63953 0.8569 0.0
C1093 C 0.03399 0.63553 0.93291 0.0
C1094 C 0.05527 0.65597 0.90472 0.0
H1095 H 0.97646 0.5971 0.95443 0.0
H1096 H 0.0497 0.63187 0.95352 0.0
C1097 C 0.03385 0.65987 0.87831 0.0
C1098 C 0.37083 0.98612 0.43075 0.0
C1099 C 0.35459 0.96472 0.40159 0.0
H1100 H 0.40803 0.04364 0.45274 0.0
C1101 C 0.35562 0.98601 0.37325 0.0
H1102 H 0.37102 0.97047 0.45277 0.0
C1103 C 0.37698 0.02828 0.37323 0.0
C1104 C 0.39744 0.04948 0.40155 0.0
H1105 H 0.3442 0.97026 0.35028 0.0
H1106 H 0.38144 0.04405 0.35025 0.0
C1107 C 0.39206 0.02806 0.43073 0.0
C1108 C 0.37876 0.39482 0.93017 0.0
C1109 C 0.3586 0.395 0.90157 0.0
H1110 H 0.41916 0.37828 0.95219 0.0
C1111 C 0.35768 0.37161 0.87476 0.0
H1112 H 0.38084 0.41349 0.9508 0.0
C1113 C 0.37928 0.35093 0.87565 0.0
C1114 C 0.40282 0.35421 0.90312 0.0
H1115 H 0.3433 0.37228 0.8521 0.0
H1116 H 0.38105 0.33614 0.85366 0.0
C1117 C 0.40079 0.37475 0.93089 0.0
C1118 C 0.98768 0.35208 0.37854 0.0
C1119 C 0.96875 0.35813 0.40562 0.0
H1120 H 0.04399 0.37014 0.35441 0.0
C1121 C 0.99243 0.38023 0.43246 0.0
H1122 H 0.97021 0.33589 0.35728 0.0
C1123 C 0.0344 0.39907 0.43106 0.0
C1124 C 0.05351 0.39648 0.40268 0.0
H1125 H 0.97859 0.38572 0.45346 0.0
H1126 H 0.05196 0.41895 0.45083 0.0
C1127 C 0.02987 0.37159 0.37693 0.0
C1128 C 0.26621 0.4469 0.01467 0.0
C1129 C 0.25454 0.45055 0.98284 0.0
H1130 H 0.25446 0.44592 0.06603 0.0
C1131 C 0.21811 0.45033 0.97828 0.0
H1132 H 0.2944 0.44745 0.01877 0.0
C1133 C 0.19604 0.45091 1.00531 0.0
C1134 C 0.20937 0.4504 0.03726 0.0
H1135 H 0.20881 0.4538 0.954 0.0
H1136 H 0.17016 0.45465 1.00129 0.0
C1137 C 0.24333 0.44601 0.04167 0.0
C1138 C 0.77108 0.21288 0.48054 0.0
C1139 C 0.80738 0.24955 0.48262 0.0
H1140 H 0.72152 0.16593 0.50686 0.0
C1141 C 0.82546 0.2631 0.51339 0.0
H1142 H 0.756 0.20248 0.45717 0.0
C1143 C 0.80576 0.24203 0.54188 0.0
C1144 C 0.76773 0.2072 0.53993 0.0
H1145 H 0.85275 0.29193 0.51568 0.0
H1146 H 0.81824 0.25523 0.5655 0.0
C1147 C 0.7514 0.19189 0.50897 0.0
C1148 C 0.56972 0.75169 1.01103 0.0
C1149 C 0.5653 0.76541 0.04178 0.0
H1150 H 0.56994 0.759 0.95883 0.0
C1151 C 0.56512 0.80186 0.04348 0.0
H1152 H 0.56845 0.72298 1.00894 0.0
C1153 C 0.56598 0.82245 0.01486 0.0
C1154 C 0.5671 0.80705 0.98396 0.0
H1155 H 0.56039 0.81238 0.06675 0.0
H1156 H 0.56177 0.84825 0.01678 0.0
C1157 C 0.57062 0.77236 0.98235 0.0
C1158 C 0.77397 0.56144 0.54388 0.0
C1159 C 0.81031 0.56142 0.53959 0.0
H1160 H 0.7218 0.55708 0.52048 0.0
C1161 C 0.82573 0.56492 0.50786 0.0
H1162 H 0.76111 0.55803 0.56808 0.0
C1163 C 0.80387 0.56575 0.4807 0.0
C1164 C 0.76554 0.56148 0.48483 0.0
H1165 H 0.85346 0.56447 0.50398 0.0
H1166 H 0.81524 0.56589 0.45642 0.0
C1167 C 0.75144 0.56079 0.51668 0.0
C1168 C 0.19909 0.7505 0.01155 0.0
C1169 C 0.21711 0.76421 0.98078 0.0
H1170 H 0.2062 0.75806 0.06373 0.0
C1171 C 0.25357 0.8008 0.97899 0.0
H1172 H 0.17175 0.7217 0.01371 0.0
C1173 C 0.27325 0.82161 1.00756 0.0
C1174 C 0.25683 0.80629 0.0385 0.0
H1175 H 0.26873 0.81134 0.95568 0.0
H1176 H 0.30315 0.84756 1.00558 0.0
C1177 C 0.21879 0.77138 0.04019 0.0
C1178 C 0.46045 0.21357 0.54214 0.0
C1179 C 0.46056 0.25012 0.54012 0.0
H1180 H 0.46307 0.16667 0.51575 0.0
C1181 C 0.45569 0.26352 0.50939 0.0
H1182 H 0.46536 0.20327 0.56547 0.0
C1183 C 0.4542 0.24242 0.48088 0.0
C1184 C 0.45758 0.20768 0.48275 0.0
H1185 H 0.45702 0.29226 0.50714 0.0
H1186 H 0.45463 0.2555 0.45727 0.0
C1187 C 0.45899 0.19254 0.5137 0.0
C1188 C 0.8086 0.56456 0.04122 0.0
C1189 C 0.77124 0.56311 0.04118 0.0
H1190 H 0.85403 0.56194 0.01236 0.0
C1191 C 0.75446 0.56507 1.01116 0.0
H1192 H 0.82143 0.56168 0.06402 0.0
C1193 C 0.77299 0.56495 0.9816 0.0
C1194 C 0.80872 0.56317 0.98163 0.0
H1195 H 0.72504 0.56254 1.01046 0.0
H1196 H 0.75742 0.56236 0.95879 0.0
C1197 C 0.82728 0.56474 0.01166 0.0
C1198 C 0.19881 0.75126 0.51015 0.0
C1199 C 0.21699 0.76505 0.54088 0.0
H1200 H 0.20579 0.75857 0.45796 0.0
C1201 C 0.2535 0.80159 0.54263 0.0
H1202 H 0.17142 0.72249 0.50805 0.0
C1203 C 0.27313 0.82222 0.51403 0.0
C1204 C 0.2566 0.80674 0.48313 0.0
H1205 H 0.26875 0.81218 0.56592 0.0
H1206 H 0.30308 0.8481 0.51597 0.0
C1207 C 0.21847 0.77197 0.48148 0.0
C1208 C 0.45859 0.19317 1.00929 0.0
C1209 C 0.45732 0.21023 0.03933 0.0
H1210 H 0.46423 0.20041 0.95709 0.0
C1211 C 0.45368 0.24487 0.03916 0.0
H1212 H 0.46289 0.16736 1.00877 0.0
C1213 C 0.45431 0.26376 1.00954 0.0
C1214 C 0.45882 0.2484 0.97964 0.0
H1215 H 0.45419 0.25944 0.06201 0.0
H1216 H 0.4552 0.29238 1.01023 0.0
C1217 C 0.45943 0.21214 0.97972 0.0
C1218 C 0.24837 0.44914 0.4785 0.0
C1219 C 0.21231 0.44969 0.48277 0.0
H1220 H 0.3004 0.45324 0.50192 0.0
C1221 C 0.19691 0.44634 0.5145 0.0
H1222 H 0.26122 0.45239 0.45431 0.0
C1223 C 0.21872 0.4455 0.5417 0.0
C1224 C 0.25696 0.44957 0.53756 0.0
H1225 H 0.16938 0.44717 0.51837 0.0
H1226 H 0.20751 0.44575 0.56596 0.0
C1227 C 0.27084 0.44972 0.50572 0.0
C1228 C 0.76845 0.21191 0.04296 0.0
C1229 C 0.80558 0.2479 0.04312 0.0
H1230 H 0.72011 0.16747 0.0138 0.0
C1231 C 0.82573 0.26303 0.0133 0.0
H1232 H 0.75174 0.20036 0.06553 0.0
C1233 C 0.80751 0.24423 0.98363 0.0
C1234 C 0.769 0.2099 0.98337 0.0
H1235 H 0.85367 0.29146 0.01268 0.0
H1236 H 0.82181 0.25866 0.96081 0.0
C1237 C 0.75037 0.19302 0.01336 0.0
C1238 C 0.56789 0.75035 0.51238 0.0
C1239 C 0.56357 0.76414 0.48163 0.0
H1240 H 0.56837 0.75782 0.56457 0.0
C1241 C 0.56379 0.80077 0.47984 0.0
H1242 H 0.56639 0.72152 0.51451 0.0
C1243 C 0.56497 0.82154 0.50841 0.0
C1244 C 0.56601 0.8061 0.53933 0.0
H1245 H 0.55921 0.81138 0.45653 0.0
H1246 H 0.56106 0.84752 0.50644 0.0
C1247 C 0.56912 0.77119 0.54102 0.0
loop_
_geom_bond_atom_site_label_1
_geom_bond_atom_site_label_2
_geom_bond_distance
_geom_bond_site_symmetry_2
_ccdc_geom_bond_type
Fe0 O2 1.918 . S
Fe0 O5 1.997 . S
Fe0 O6 2.002 . S
Fe0 O11 1.976 . S
Fe0 O14 1.996 . S
Fe1 O2 1.918 . S
Fe1 O9 1.997 . S
Fe1 O12 1.996 . S
Fe1 O16 1.976 . S
Fe1 O19 2.002 . S
O2 Fe0 1.918 . S
O2 Fe1 1.918 . S
O2 Fe3 1.918 . S
Fe3 O2 1.918 . S
Fe3 O4 2.002 . S
Fe3 O13 1.976 . S
Fe3 O17 1.996 . S
Fe3 O20 1.997 . S
O4 Fe3 2.002 . S
O4 C21 1.295 . S
O5 Fe0 1.997 . S
O5 C21 1.235 . S
O6 Fe0 2.002 . S
O6 C7 1.295 . S
C7 O6 1.295 . S
C7 O9 1.235 . S
C8 O13 1.287 . S
C8 O14 1.255 . S
O9 Fe1 1.997 . S
O9 C7 1.235 . S
C10 O16 1.287 . S
C10 O17 1.255 . S
O11 Fe0 1.976 . S
O11 C18 1.287 . S
O12 Fe1 1.996 . S
O12 C18 1.255 . S
O13 Fe3 1.976 . S
O13 C8 1.287 . S
O14 Fe0 1.996 . S
O14 C8 1.255 . S
C15 O19 1.295 . S
C15 O20 1.235 . S
O16 Fe1 1.976 . S
O16 C10 1.287 . S
O17 Fe3 1.996 . S
O17 C10 1.255 . S
C18 O11 1.287 . S
C18 O12 1.255 . S
O19 Fe1 2.002 . S
O19 C15 1.295 . S
O20 Fe3 1.997 . S
O20 C15 1.235 . S
C21 O4 1.295 . S
C21 O5 1.235 . S
Fe22 O24 1.918 . S
Fe22 O27 1.997 . S
Fe22 O28 2.002 . S
Fe22 O33 1.976 . S
Fe22 O36 1.996 . S
Fe23 O24 1.918 . S
Fe23 O31 1.997 . S
Fe23 O34 1.996 . S
Fe23 O38 1.976 . S
Fe23 O41 2.002 . S
O24 Fe22 1.918 . S
O24 Fe23 1.918 . S
O24 Fe25 1.918 . S
Fe25 O24 1.918 . S
Fe25 O26 2.002 . S
Fe25 O35 1.976 . S
Fe25 O39 1.996 . S
Fe25 O42 1.997 . S
O26 Fe25 2.002 . S
O26 C43 1.295 . S
O27 Fe22 1.997 . S
O27 C43 1.235 . S
O28 Fe22 2.002 . S
O28 C29 1.295 . S
C29 O28 1.295 . S
C29 O31 1.235 . S
C30 O35 1.287 . S
C30 O36 1.255 . S
O31 Fe23 1.997 . S
O31 C29 1.235 . S
C32 O38 1.287 . S
C32 O39 1.255 . S
O33 Fe22 1.976 . S
O33 C40 1.287 . S
O34 Fe23 1.996 . S
O34 C40 1.255 . S
O35 Fe25 1.976 . S
O35 C30 1.287 . S
O36 Fe22 1.996 . S
O36 C30 1.255 . S
C37 O41 1.295 . S
C37 O42 1.235 . S
O38 Fe23 1.976 . S
O38 C32 1.287 . S
O39 Fe25 1.996 . S
O39 C32 1.255 . S
C40 O33 1.287 . S
C40 O34 1.255 . S
O41 Fe23 2.002 . S
O41 C37 1.295 . S
O42 Fe25 1.997 . S
O42 C37 1.235 . S
C43 O26 1.295 . S
C43 O27 1.235 . S
Fe44 O46 1.918 . S
Fe44 O49 1.997 . S
Fe44 O50 2.002 . S
Fe44 O55 1.976 . S
Fe44 O58 1.996 . S
Fe45 O46 1.918 . S
Fe45 O53 1.997 . S
Fe45 O56 1.996 . S
Fe45 O60 1.976 . S
Fe45 O63 2.002 . S
O46 Fe44 1.918 . S
O46 Fe45 1.918 . S
O46 Fe47 1.918 . S
Fe47 O46 1.918 . S
Fe47 O48 2.002 . S
Fe47 O57 1.976 . S
Fe47 O61 1.996 . S
Fe47 O64 1.997 . S
O48 Fe47 2.002 . S
O48 C65 1.295 . S
O49 Fe44 1.997 . S
O49 C65 1.235 . S
O50 Fe44 2.002 . S
O50 C51 1.295 . S
C51 O50 1.295 . S
C51 O53 1.235 . S
C52 O57 1.287 . S
C52 O58 1.255 . S
O53 Fe45 1.997 . S
O53 C51 1.235 . S
C54 O60 1.287 . S
C54 O61 1.255 . S
O55 Fe44 1.976 . S
O55 C62 1.287 . S
O56 Fe45 1.996 . S
O56 C62 1.255 . S
O57 Fe47 1.976 . S
O57 C52 1.287 . S
O58 Fe44 1.996 . S
O58 C52 1.255 . S
C59 O63 1.295 . S
C59 O64 1.235 . S
O60 Fe45 1.976 . S
O60 C54 1.287 . S
O61 Fe47 1.996 . S
O61 C54 1.255 . S
C62 O55 1.287 . S
C62 O56 1.255 . S
O63 Fe45 2.002 . S
O63 C59 1.295 . S
O64 Fe47 1.997 . S
O64 C59 1.235 . S
C65 O48 1.295 . S
C65 O49 1.235 . S
Fe66 O68 1.918 . S
Fe66 O71 1.997 . S
Fe66 O72 2.002 . S
Fe66 O77 1.976 . S
Fe66 O80 1.996 . S
Fe67 O68 1.918 . S
Fe67 O75 1.997 . S
Fe67 O78 1.996 . S
Fe67 O82 1.976 . S
Fe67 O85 2.002 . S
O68 Fe66 1.918 . S
O68 Fe67 1.918 . S
O68 Fe69 1.918 . S
Fe69 O68 1.918 . S
Fe69 O70 2.002 . S
Fe69 O79 1.976 . S
Fe69 O83 1.996 . S
Fe69 O86 1.997 . S
O70 Fe69 2.002 . S
O70 C87 1.295 . S
O71 Fe66 1.997 . S
O71 C87 1.235 . S
O72 Fe66 2.002 . S
O72 C73 1.295 . S
C73 O72 1.295 . S
C73 O75 1.235 . S
C74 O79 1.287 . S
C74 O80 1.255 . S
O75 Fe67 1.997 . S
O75 C73 1.235 . S
C76 O82 1.287 . S
C76 O83 1.255 . S
O77 Fe66 1.976 . S
O77 C84 1.287 . S
O78 Fe67 1.996 . S
O78 C84 1.255 . S
O79 Fe69 1.976 . S
O79 C74 1.287 . S
O80 Fe66 1.996 . S
O80 C74 1.255 . S
C81 O85 1.295 . S
C81 O86 1.235 . S
O82 Fe67 1.976 . S
O82 C76 1.287 . S
O83 Fe69 1.996 . S
O83 C76 1.255 . S
C84 O77 1.287 . S
C84 O78 1.255 . S
O85 Fe67 2.002 . S
O85 C81 1.295 . S
O86 Fe69 1.997 . S
O86 C81 1.235 . S
C87 O70 1.295 . S
C87 O71 1.235 . S
Fe88 O90 1.918 . S
Fe88 O93 1.997 . S
Fe88 O94 2.002 . S
Fe88 O99 1.976 . S
Fe88 O102 1.996 . S
Fe89 O90 1.918 . S
Fe89 O97 1.997 . S
Fe89 O100 1.996 . S
Fe89 O104 1.976 . S
Fe89 O107 2.002 . S
O90 Fe88 1.918 . S
O90 Fe89 1.918 . S
O90 Fe91 1.918 . S
Fe91 O90 1.918 . S
Fe91 O92 2.002 . S
Fe91 O101 1.976 . S
Fe91 O105 1.996 . S
Fe91 O108 1.997 . S
O92 Fe91 2.002 . S
O92 C109 1.295 . S
O93 Fe88 1.997 . S
O93 C109 1.235 . S
O94 Fe88 2.002 . S
O94 C95 1.295 . S
C95 O94 1.295 . S
C95 O97 1.235 . S
C96 O101 1.287 . S
C96 O102 1.255 . S
O97 Fe89 1.997 . S
O97 C95 1.235 . S
C98 O104 1.287 . S
C98 O105 1.255 . S
O99 Fe88 1.976 . S
O99 C106 1.287 . S
O100 Fe89 1.996 . S
O100 C106 1.255 . S
O101 Fe91 1.976 . S
O101 C96 1.287 . S
O102 Fe88 1.996 . S
O102 C96 1.255 . S
C103 O107 1.295 . S
C103 O108 1.235 . S
O104 Fe89 1.976 . S
O104 C98 1.287 . S
O105 Fe91 1.996 . S
O105 C98 1.255 . S
C106 O99 1.287 . S
C106 O100 1.255 . S
O107 Fe89 2.002 . S
O107 C103 1.295 . S
O108 Fe91 1.997 . S
O108 C103 1.235 . S
C109 O92 1.295 . S
C109 O93 1.235 . S
Fe110 O112 1.918 . S
Fe110 O115 1.997 . S
Fe110 O116 2.002 . S
Fe110 O121 1.976 . S
Fe110 O124 1.996 . S
Fe111 O112 1.918 . S
Fe111 O119 1.997 . S
Fe111 O122 1.996 . S
Fe111 O126 1.976 . S
Fe111 O129 2.002 . S
O112 Fe110 1.918 . S
O112 Fe111 1.918 . S
O112 Fe113 1.918 . S
Fe113 O112 1.918 . S
Fe113 O114 2.002 . S
Fe113 O123 1.976 . S
Fe113 O127 1.996 . S
Fe113 O130 1.997 . S
O114 Fe113 2.002 . S
O114 C131 1.295 . S
O115 Fe110 1.997 . S
O115 C131 1.235 . S
O116 Fe110 2.002 . S
O116 C117 1.295 . S
C117 O116 1.295 . S
C117 O119 1.235 . S
C118 O123 1.287 . S
C118 O124 1.255 . S
O119 Fe111 1.997 . S
O119 C117 1.235 . S
C120 O126 1.287 . S
C120 O127 1.255 . S
O121 Fe110 1.976 . S
O121 C128 1.287 . S
O122 Fe111 1.996 . S
O122 C128 1.255 . S
O123 Fe113 1.976 . S
O123 C118 1.287 . S
O124 Fe110 1.996 . S
O124 C118 1.255 . S
C125 O129 1.295 . S
C125 O130 1.235 . S
O126 Fe111 1.976 . S
O126 C120 1.287 . S
O127 Fe113 1.996 . S
O127 C120 1.255 . S
C128 O121 1.287 . S
C128 O122 1.255 . S
O129 Fe111 2.002 . S
O129 C125 1.295 . S
O130 Fe113 1.997 . S
O130 C125 1.235 . S
C131 O114 1.295 . S
C131 O115 1.235 . S
Fe132 O134 1.918 . S
Fe132 O137 1.997 . S
Fe132 O138 2.002 . S
Fe132 O143 1.976 . S
Fe132 O146 1.996 . S
Fe133 O134 1.918 . S
Fe133 O141 1.997 . S
Fe133 O144 1.996 . S
Fe133 O148 1.976 . S
Fe133 O151 2.002 . S
O134 Fe132 1.918 . S
O134 Fe133 1.918 . S
O134 Fe135 1.918 . S
Fe135 O134 1.918 . S
Fe135 O136 2.002 . S
Fe135 O145 1.976 . S
Fe135 O149 1.996 . S
Fe135 O152 1.997 . S
O136 Fe135 2.002 . S
O136 C153 1.295 . S
O137 Fe132 1.997 . S
O137 C153 1.235 . S
O138 Fe132 2.002 . S
O138 C139 1.295 . S
C139 O138 1.295 . S
C139 O141 1.235 . S
C140 O145 1.287 . S
C140 O146 1.255 . S
O141 Fe133 1.997 . S
O141 C139 1.235 . S
C142 O148 1.287 . S
C142 O149 1.255 . S
O143 Fe132 1.976 . S
O143 C150 1.287 . S
O144 Fe133 1.996 . S
O144 C150 1.255 . S
O145 Fe135 1.976 . S
O145 C140 1.287 . S
O146 Fe132 1.996 . S
O146 C140 1.255 . S
C147 O151 1.295 . S
C147 O152 1.235 . S
O148 Fe133 1.976 . S
O148 C142 1.287 . S
O149 Fe135 1.996 . S
O149 C142 1.255 . S
C150 O143 1.287 . S
C150 O144 1.255 . S
O151 Fe133 2.002 . S
O151 C147 1.295 . S
O152 Fe135 1.997 . S
O152 C147 1.235 . S
C153 O136 1.295 . S
C153 O137 1.235 . S
Fe154 O156 1.918 . S
Fe154 O159 1.997 . S
Fe154 O160 2.002 . S
Fe154 O165 1.976 . S
Fe154 O168 1.996 . S
Fe155 O156 1.918 . S
Fe155 O163 1.997 . S
Fe155 O166 1.996 . S
Fe155 O170 1.976 . S
Fe155 O173 2.002 . S
O156 Fe154 1.918 . S
O156 Fe155 1.918 . S
O156 Fe157 1.918 . S
Fe157 O156 1.918 . S
Fe157 O158 2.002 . S
Fe157 O167 1.976 . S
Fe157 O171 1.996 . S
Fe157 O174 1.997 . S
O158 Fe157 2.002 . S
O158 C175 1.295 . S
O159 Fe154 1.997 . S
O159 C175 1.235 . S
O160 Fe154 2.002 . S
O160 C161 1.295 . S
C161 O160 1.295 . S
C161 O163 1.235 . S
C162 O167 1.287 . S
C162 O168 1.255 . S
O163 Fe155 1.997 . S
O163 C161 1.235 . S
C164 O170 1.287 . S
C164 O171 1.255 . S
O165 Fe154 1.976 . S
O165 C172 1.287 . S
O166 Fe155 1.996 . S
O166 C172 1.255 . S
O167 Fe157 1.976 . S
O167 C162 1.287 . S
O168 Fe154 1.996 . S
O168 C162 1.255 . S
C169 O173 1.295 . S
C169 O174 1.235 . S
O170 Fe155 1.976 . S
O170 C164 1.287 . S
O171 Fe157 1.996 . S
O171 C164 1.255 . S
C172 O165 1.287 . S
C172 O166 1.255 . S
O173 Fe155 2.002 . S
O173 C169 1.295 . S
O174 Fe157 1.997 . S
O174 C169 1.235 . S
C175 O158 1.295 . S
C175 O159 1.235 . S
Fe176 O178 1.918 . S
Fe176 O181 1.997 . S
Fe176 O182 2.002 . S
Fe176 O187 1.976 . S
Fe176 O190 1.996 . S
Fe177 O178 1.918 . S
Fe177 O185 1.997 . S
Fe177 O188 1.996 . S
Fe177 O192 1.976 . S
Fe177 O195 2.002 . S
O178 Fe176 1.918 . S
O178 Fe177 1.918 . S
O178 Fe179 1.918 . S
Fe179 O178 1.918 . S
Fe179 O180 2.002 . S
Fe179 O189 1.976 . S
Fe179 O193 1.996 . S
Fe179 O196 1.997 . S
O180 Fe179 2.002 . S
O180 C197 1.295 . S
O181 Fe176 1.997 . S
O181 C197 1.235 . S
O182 Fe176 2.002 . S
O182 C183 1.295 . S
C183 O182 1.295 . S
C183 O185 1.235 . S
C184 O189 1.287 . S
C184 O190 1.255 . S
O185 Fe177 1.997 . S
O185 C183 1.235 . S
C186 O192 1.287 . S
C186 O193 1.255 . S
O187 Fe176 1.976 . S
O187 C194 1.287 . S
O188 Fe177 1.996 . S
O188 C194 1.255 . S
O189 Fe179 1.976 . S
O189 C184 1.287 . S
O190 Fe176 1.996 . S
O190 C184 1.255 . S
C191 O195 1.295 . S
C191 O196 1.235 . S
O192 Fe177 1.976 . S
O192 C186 1.287 . S
O193 Fe179 1.996 . S
O193 C186 1.255 . S
C194 O187 1.287 . S
C194 O188 1.255 . S
O195 Fe177 2.002 . S
O195 C191 1.295 . S
O196 Fe179 1.997 . S
O196 C191 1.235 . S
C197 O180 1.295 . S
C197 O181 1.235 . S
Fe198 O200 1.918 . S
Fe198 O203 1.997 . S
Fe198 O204 2.002 . S
Fe198 O209 1.976 . S
Fe198 O212 1.996 . S
Fe199 O200 1.918 . S
Fe199 O207 1.997 . S
Fe199 O210 1.996 . S
Fe199 O214 1.976 . S
Fe199 O217 2.002 . S
O200 Fe198 1.918 . S
O200 Fe199 1.918 . S
O200 Fe201 1.918 . S
Fe201 O200 1.918 . S
Fe201 O202 2.002 . S
Fe201 O211 1.976 . S
Fe201 O215 1.996 . S
Fe201 O218 1.997 . S
O202 Fe201 2.002 . S
O202 C219 1.295 . S
O203 Fe198 1.997 . S
O203 C219 1.235 . S
O204 Fe198 2.002 . S
O204 C205 1.295 . S
C205 O204 1.295 . S
C205 O207 1.235 . S
C206 O211 1.287 . S
C206 O212 1.255 . S
O207 Fe199 1.997 . S
O207 C205 1.235 . S
C208 O214 1.287 . S
C208 O215 1.255 . S
O209 Fe198 1.976 . S
O209 C216 1.287 . S
O210 Fe199 1.996 . S
O210 C216 1.255 . S
O211 Fe201 1.976 . S
O211 C206 1.287 . S
O212 Fe198 1.996 . S
O212 C206 1.255 . S
C213 O217 1.295 . S
C213 O218 1.235 . S
O214 Fe199 1.976 . S
O214 C208 1.287 . S
O215 Fe201 1.996 . S
O215 C208 1.255 . S
C216 O209 1.287 . S
C216 O210 1.255 . S
O217 Fe199 2.002 . S
O217 C213 1.295 . S
O218 Fe201 1.997 . S
O218 C213 1.235 . S
C219 O202 1.295 . S
C219 O203 1.235 . S
Fe220 O222 1.918 . S
Fe220 O225 1.997 . S
Fe220 O226 2.002 . S
Fe220 O231 1.976 . S
Fe220 O234 1.996 . S
Fe221 O222 1.918 . S
Fe221 O229 1.997 . S
Fe221 O232 1.996 . S
Fe221 O236 1.976 . S
Fe221 O239 2.002 . S
O222 Fe220 1.918 . S
O222 Fe221 1.918 . S
O222 Fe223 1.918 . S
Fe223 O222 1.918 . S
Fe223 O224 2.002 . S
Fe223 O233 1.976 . S
Fe223 O237 1.996 . S
Fe223 O240 1.997 . S
O224 Fe223 2.002 . S
O224 C241 1.295 . S
O225 Fe220 1.997 . S
O225 C241 1.235 . S
O226 Fe220 2.002 . S
O226 C227 1.295 . S
C227 O226 1.295 . S
C227 O229 1.235 . S
C228 O233 1.287 . S
C228 O234 1.255 . S
O229 Fe221 1.997 . S
O229 C227 1.235 . S
C230 O236 1.287 . S
C230 O237 1.255 . S
O231 Fe220 1.976 . S
O231 C238 1.287 . S
O232 Fe221 1.996 . S
O232 C238 1.255 . S
O233 Fe223 1.976 . S
O233 C228 1.287 . S
O234 Fe220 1.996 . S
O234 C228 1.255 . S
C235 O239 1.295 . S
C235 O240 1.235 . S
O236 Fe221 1.976 . S
O236 C230 1.287 . S
O237 Fe223 1.996 . S
O237 C230 1.255 . S
C238 O231 1.287 . S
C238 O232 1.255 . S
O239 Fe221 2.002 . S
O239 C235 1.295 . S
O240 Fe223 1.997 . S
O240 C235 1.235 . S
C241 O224 1.295 . S
C241 O225 1.235 . S
Fe242 O244 1.918 . S
Fe242 O247 1.997 . S
Fe242 O248 2.002 . S
Fe242 O253 1.976 . S
Fe242 O256 1.996 . S
Fe243 O244 1.918 . S
Fe243 O251 1.997 . S
Fe243 O254 1.996 . S
Fe243 O258 1.976 . S
Fe243 O261 2.002 . S
O244 Fe242 1.918 . S
O244 Fe243 1.918 . S
O244 Fe245 1.918 . S
Fe245 O244 1.918 . S
Fe245 O246 2.002 . S
Fe245 O255 1.976 . S
Fe245 O259 1.996 . S
Fe245 O262 1.997 . S
O246 Fe245 2.002 . S
O246 C263 1.295 . S
O247 Fe242 1.997 . S
O247 C263 1.235 . S
O248 Fe242 2.002 . S
O248 C249 1.295 . S
C249 O248 1.295 . S
C249 O251 1.235 . S
C250 O255 1.287 . S
C250 O256 1.255 . S
O251 Fe243 1.997 . S
O251 C249 1.235 . S
C252 O258 1.287 . S
C252 O259 1.255 . S
O253 Fe242 1.976 . S
O253 C260 1.287 . S
O254 Fe243 1.996 . S
O254 C260 1.255 . S
O255 Fe245 1.976 . S
O255 C250 1.287 . S
O256 Fe242 1.996 . S
O256 C250 1.255 . S
C257 O261 1.295 . S
C257 O262 1.235 . S
O258 Fe243 1.976 . S
O258 C252 1.287 . S
O259 Fe245 1.996 . S
O259 C252 1.255 . S
C260 O253 1.287 . S
C260 O254 1.255 . S
O261 Fe243 2.002 . S
O261 C257 1.295 . S
O262 Fe245 1.997 . S
O262 C257 1.235 . S
C263 O246 1.295 . S
C263 O247 1.235 . S
Fe264 O266 1.918 . S
Fe264 O269 1.997 . S
Fe264 O270 2.002 . S
Fe264 O275 1.976 . S
Fe264 O278 1.996 . S
Fe265 O266 1.918 . S
Fe265 O273 1.997 . S
Fe265 O276 1.996 . S
Fe265 O280 1.976 . S
Fe265 O283 2.002 . S
O266 Fe264 1.918 . S
O266 Fe265 1.918 . S
O266 Fe267 1.918 . S
Fe267 O266 1.918 . S
Fe267 O268 2.002 . S
Fe267 O277 1.976 . S
Fe267 O281 1.996 . S
Fe267 O284 1.997 . S
O268 Fe267 2.002 . S
O268 C285 1.295 . S
O269 Fe264 1.997 . S
O269 C285 1.235 . S
O270 Fe264 2.002 . S
O270 C271 1.295 . S
C271 O270 1.295 . S
C271 O273 1.235 . S
C272 O277 1.287 . S
C272 O278 1.255 . S
O273 Fe265 1.997 . S
O273 C271 1.235 . S
C274 O280 1.287 . S
C274 O281 1.255 . S
O275 Fe264 1.976 . S
O275 C282 1.287 . S
O276 Fe265 1.996 . S
O276 C282 1.255 . S
O277 Fe267 1.976 . S
O277 C272 1.287 . S
O278 Fe264 1.996 . S
O278 C272 1.255 . S
C279 O283 1.295 . S
C279 O284 1.235 . S
O280 Fe265 1.976 . S
O280 C274 1.287 . S
O281 Fe267 1.996 . S
O281 C274 1.255 . S
C282 O275 1.287 . S
C282 O276 1.255 . S
O283 Fe265 2.002 . S
O283 C279 1.295 . S
O284 Fe267 1.997 . S
O284 C279 1.235 . S
C285 O268 1.295 . S
C285 O269 1.235 . S
Fe286 O288 1.918 . S
Fe286 O291 1.997 . S
Fe286 O292 2.002 . S
Fe286 O297 1.976 . S
Fe286 O300 1.996 . S
Fe287 O288 1.918 . S
Fe287 O295 1.997 . S
Fe287 O298 1.996 . S
Fe287 O302 1.976 . S
Fe287 O305 2.002 . S
O288 Fe286 1.918 . S
O288 Fe287 1.918 . S
O288 Fe289 1.918 . S
Fe289 O288 1.918 . S
Fe289 O290 2.002 . S
Fe289 O299 1.976 . S
Fe289 O303 1.996 . S
Fe289 O306 1.997 . S
O290 Fe289 2.002 . S
O290 C307 1.295 . S
O291 Fe286 1.997 . S
O291 C307 1.235 . S
O292 Fe286 2.002 . S
O292 C293 1.295 . S
C293 O292 1.295 . S
C293 O295 1.235 . S
C294 O299 1.287 . S
C294 O300 1.255 . S
O295 Fe287 1.997 . S
O295 C293 1.235 . S
C296 O302 1.287 . S
C296 O303 1.255 . S
O297 Fe286 1.976 . S
O297 C304 1.287 . S
O298 Fe287 1.996 . S
O298 C304 1.255 . S
O299 Fe289 1.976 . S
O299 C294 1.287 . S
O300 Fe286 1.996 . S
O300 C294 1.255 . S
C301 O305 1.295 . S
C301 O306 1.235 . S
O302 Fe287 1.976 . S
O302 C296 1.287 . S
O303 Fe289 1.996 . S
O303 C296 1.255 . S
C304 O297 1.287 . S
C304 O298 1.255 . S
O305 Fe287 2.002 . S
O305 C301 1.295 . S
O306 Fe289 1.997 . S
O306 C301 1.235 . S
C307 O290 1.295 . S
C307 O291 1.235 . S
Fe308 O310 1.918 . S
Fe308 O313 1.997 . S
Fe308 O314 2.002 . S
Fe308 O319 1.976 . S
Fe308 O322 1.996 . S
Fe309 O310 1.918 . S
Fe309 O317 1.997 . S
Fe309 O320 1.996 . S
Fe309 O324 1.976 . S
Fe309 O327 2.002 . S
O310 Fe308 1.918 . S
O310 Fe309 1.918 . S
O310 Fe311 1.918 . S
Fe311 O310 1.918 . S
Fe311 O312 2.002 . S
Fe311 O321 1.976 . S
Fe311 O325 1.996 . S
Fe311 O328 1.997 . S
O312 Fe311 2.002 . S
O312 C329 1.295 . S
O313 Fe308 1.997 . S
O313 C329 1.235 . S
O314 Fe308 2.002 . S
O314 C315 1.295 . S
C315 O314 1.295 . S
C315 O317 1.235 . S
C316 O321 1.287 . S
C316 O322 1.255 . S
O317 Fe309 1.997 . S
O317 C315 1.235 . S
C318 O324 1.287 . S
C318 O325 1.255 . S
O319 Fe308 1.976 . S
O319 C326 1.287 . S
O320 Fe309 1.996 . S
O320 C326 1.255 . S
O321 Fe311 1.976 . S
O321 C316 1.287 . S
O322 Fe308 1.996 . S
O322 C316 1.255 . S
C323 O327 1.295 . S
C323 O328 1.235 . S
O324 Fe309 1.976 . S
O324 C318 1.287 . S
O325 Fe311 1.996 . S
O325 C318 1.255 . S
C326 O319 1.287 . S
C326 O320 1.255 . S
O327 Fe309 2.002 . S
O327 C323 1.295 . S
O328 Fe311 1.997 . S
O328 C323 1.235 . S
C329 O312 1.295 . S
C329 O313 1.235 . S
Fe330 O332 1.918 . S
Fe330 O335 1.997 . S
Fe330 O336 2.002 . S
Fe330 O341 1.976 . S
Fe330 O344 1.996 . S
Fe331 O332 1.918 . S
Fe331 O339 1.997 . S
Fe331 O342 1.996 . S
Fe331 O346 1.976 . S
Fe331 O349 2.002 . S
O332 Fe330 1.918 . S
O332 Fe331 1.918 . S
O332 Fe333 1.918 . S
Fe333 O332 1.918 . S
Fe333 O334 2.002 . S
Fe333 O343 1.976 . S
Fe333 O347 1.996 . S
Fe333 O350 1.997 . S
O334 Fe333 2.002 . S
O334 C351 1.295 . S
O335 Fe330 1.997 . S
O335 C351 1.235 . S
O336 Fe330 2.002 . S
O336 C337 1.295 . S
C337 O336 1.295 . S
C337 O339 1.235 . S
C338 O343 1.287 . S
C338 O344 1.255 . S
O339 Fe331 1.997 . S
O339 C337 1.235 . S
C340 O346 1.287 . S
C340 O347 1.255 . S
O341 Fe330 1.976 . S
O341 C348 1.287 . S
O342 Fe331 1.996 . S
O342 C348 1.255 . S
O343 Fe333 1.976 . S
O343 C338 1.287 . S
O344 Fe330 1.996 . S
O344 C338 1.255 . S
C345 O349 1.295 . S
C345 O350 1.235 . S
O346 Fe331 1.976 . S
O346 C340 1.287 . S
O347 Fe333 1.996 . S
O347 C340 1.255 . S
C348 O341 1.287 . S
C348 O342 1.255 . S
O349 Fe331 2.002 . S
O349 C345 1.295 . S
O350 Fe333 1.997 . S
O350 C345 1.235 . S
C351 O334 1.295 . S
C351 O335 1.235 . S
Fe352 O354 1.918 . S
Fe352 O357 1.997 . S
Fe352 O358 2.002 . S
Fe352 O363 1.976 . S
Fe352 O366 1.996 . S
Fe353 O354 1.918 . S
Fe353 O361 1.997 . S
Fe353 O364 1.996 . S
Fe353 O368 1.976 . S
Fe353 O371 2.002 . S
O354 Fe352 1.918 . S
O354 Fe353 1.918 . S
O354 Fe355 1.918 . S
Fe355 O354 1.918 . S
Fe355 O356 2.002 . S
Fe355 O365 1.976 . S
Fe355 O369 1.996 . S
Fe355 O372 1.997 . S
O356 Fe355 2.002 . S
O356 C373 1.295 . S
O357 Fe352 1.997 . S
O357 C373 1.235 . S
O358 Fe352 2.002 . S
O358 C359 1.295 . S
C359 O358 1.295 . S
C359 O361 1.235 . S
C360 O365 1.287 . S
C360 O366 1.255 . S
O361 Fe353 1.997 . S
O361 C359 1.235 . S
C362 O368 1.287 . S
C362 O369 1.255 . S
O363 Fe352 1.976 . S
O363 C370 1.287 . S
O364 Fe353 1.996 . S
O364 C370 1.255 . S
O365 Fe355 1.976 . S
O365 C360 1.287 . S
O366 Fe352 1.996 . S
O366 C360 1.255 . S
C367 O371 1.295 . S
C367 O372 1.235 . S
O368 Fe353 1.976 . S
O368 C362 1.287 . S
O369 Fe355 1.996 . S
O369 C362 1.255 . S
C370 O363 1.287 . S
C370 O364 1.255 . S
O371 Fe353 2.002 . S
O371 C367 1.295 . S
O372 Fe355 1.997 . S
O372 C367 1.235 . S
C373 O356 1.295 . S
C373 O357 1.235 . S
Fe374 O376 1.918 . S
Fe374 O379 1.997 . S
Fe374 O380 2.002 . S
Fe374 O385 1.976 . S
Fe374 O388 1.996 . S
Fe375 O376 1.918 . S
Fe375 O383 1.997 . S
Fe375 O386 1.996 . S
Fe375 O390 1.976 . S
Fe375 O393 2.002 . S
O376 Fe374 1.918 . S
O376 Fe375 1.918 . S
O376 Fe377 1.918 . S
Fe377 O376 1.918 . S
Fe377 O378 2.002 . S
Fe377 O387 1.976 . S
Fe377 O391 1.996 . S
Fe377 O394 1.997 . S
O378 Fe377 2.002 . S
O378 C395 1.295 . S
O379 Fe374 1.997 . S
O379 C395 1.235 . S
O380 Fe374 2.002 . S
O380 C381 1.295 . S
C381 O380 1.295 . S
C381 O383 1.235 . S
C382 O387 1.287 . S
C382 O388 1.255 . S
O383 Fe375 1.997 . S
O383 C381 1.235 . S
C384 O390 1.287 . S
C384 O391 1.255 . S
O385 Fe374 1.976 . S
O385 C392 1.287 . S
O386 Fe375 1.996 . S
O386 C392 1.255 . S
O387 Fe377 1.976 . S
O387 C382 1.287 . S
O388 Fe374 1.996 . S
O388 C382 1.255 . S
C389 O393 1.295 . S
C389 O394 1.235 . S
O390 Fe375 1.976 . S
O390 C384 1.287 . S
O391 Fe377 1.996 . S
O391 C384 1.255 . S
C392 O385 1.287 . S
C392 O386 1.255 . S
O393 Fe375 2.002 . S
O393 C389 1.295 . S
O394 Fe377 1.997 . S
O394 C389 1.235 . S
C395 O378 1.295 . S
C395 O379 1.235 . S
Fe396 O398 1.918 . S
Fe396 O401 1.997 . S
Fe396 O402 2.002 . S
Fe396 O407 1.976 . S
Fe396 O410 1.996 . S
Fe397 O398 1.918 . S
Fe397 O405 1.997 . S
Fe397 O408 1.996 . S
Fe397 O412 1.976 . S
Fe397 O415 2.002 . S
O398 Fe396 1.918 . S
O398 Fe397 1.918 . S
O398 Fe399 1.918 . S
Fe399 O398 1.918 . S
Fe399 O400 2.002 . S
Fe399 O409 1.976 . S
Fe399 O413 1.996 . S
Fe399 O416 1.997 . S
O400 Fe399 2.002 . S
O400 C417 1.295 . S
O401 Fe396 1.997 . S
O401 C417 1.235 . S
O402 Fe396 2.002 . S
O402 C403 1.295 . S
C403 O402 1.295 . S
C403 O405 1.235 . S
C404 O409 1.287 . S
C404 O410 1.255 . S
O405 Fe397 1.997 . S
O405 C403 1.235 . S
C406 O412 1.287 . S
C406 O413 1.255 . S
O407 Fe396 1.976 . S
O407 C414 1.287 . S
O408 Fe397 1.996 . S
O408 C414 1.255 . S
O409 Fe399 1.976 . S
O409 C404 1.287 . S
O410 Fe396 1.996 . S
O410 C404 1.255 . S
C411 O415 1.295 . S
C411 O416 1.235 . S
O412 Fe397 1.976 . S
O412 C406 1.287 . S
O413 Fe399 1.996 . S
O413 C406 1.255 . S
C414 O407 1.287 . S
C414 O408 1.255 . S
O415 Fe397 2.002 . S
O415 C411 1.295 . S
O416 Fe399 1.997 . S
O416 C411 1.235 . S
C417 O400 1.295 . S
C417 O401 1.235 . S
Fe418 O420 1.918 . S
Fe418 O423 1.997 . S
Fe418 O424 2.002 . S
Fe418 O429 1.976 . S
Fe418 O432 1.996 . S
Fe419 O420 1.918 . S
Fe419 O427 1.997 . S
Fe419 O430 1.996 . S
Fe419 O434 1.976 . S
Fe419 O437 2.002 . S
O420 Fe418 1.918 . S
O420 Fe419 1.918 . S
O420 Fe421 1.918 . S
Fe421 O420 1.918 . S
Fe421 O422 2.002 . S
Fe421 O431 1.976 . S
Fe421 O435 1.996 . S
Fe421 O438 1.997 . S
O422 Fe421 2.002 . S
O422 C439 1.295 . S
O423 Fe418 1.997 . S
O423 C439 1.235 . S
O424 Fe418 2.002 . S
O424 C425 1.295 . S
C425 O424 1.295 . S
C425 O427 1.235 . S
C426 O431 1.287 . S
C426 O432 1.255 . S
O427 Fe419 1.997 . S
O427 C425 1.235 . S
C428 O434 1.287 . S
C428 O435 1.255 . S
O429 Fe418 1.976 . S
O429 C436 1.287 . S
O430 Fe419 1.996 . S
O430 C436 1.255 . S
O431 Fe421 1.976 . S
O431 C426 1.287 . S
O432 Fe418 1.996 . S
O432 C426 1.255 . S
C433 O437 1.295 . S
C433 O438 1.235 . S
O434 Fe419 1.976 . S
O434 C428 1.287 . S
O435 Fe421 1.996 . S
O435 C428 1.255 . S
C436 O429 1.287 . S
C436 O430 1.255 . S
O437 Fe419 2.002 . S
O437 C433 1.295 . S
O438 Fe421 1.997 . S
O438 C433 1.235 . S
C439 O422 1.295 . S
C439 O423 1.235 . S
Fe440 O442 1.918 . S
Fe440 O445 1.997 . S
Fe440 O446 2.002 . S
Fe440 O451 1.976 . S
Fe440 O454 1.996 . S
Fe441 O442 1.918 . S
Fe441 O449 1.997 . S
Fe441 O452 1.996 . S
Fe441 O456 1.976 . S
Fe441 O459 2.002 . S
O442 Fe440 1.918 . S
O442 Fe441 1.918 . S
O442 Fe443 1.918 . S
Fe443 O442 1.918 . S
Fe443 O444 2.002 . S
Fe443 O453 1.976 . S
Fe443 O457 1.996 . S
Fe443 O460 1.997 . S
O444 Fe443 2.002 . S
O444 C461 1.295 . S
O445 Fe440 1.997 . S
O445 C461 1.235 . S
O446 Fe440 2.002 . S
O446 C447 1.295 . S
C447 O446 1.295 . S
C447 O449 1.235 . S
C448 O453 1.287 . S
C448 O454 1.255 . S
O449 Fe441 1.997 . S
O449 C447 1.235 . S
C450 O456 1.287 . S
C450 O457 1.255 . S
O451 Fe440 1.976 . S
O451 C458 1.287 . S
O452 Fe441 1.996 . S
O452 C458 1.255 . S
O453 Fe443 1.976 . S
O453 C448 1.287 . S
O454 Fe440 1.996 . S
O454 C448 1.255 . S
C455 O459 1.295 . S
C455 O460 1.235 . S
O456 Fe441 1.976 . S
O456 C450 1.287 . S
O457 Fe443 1.996 . S
O457 C450 1.255 . S
C458 O451 1.287 . S
C458 O452 1.255 . S
O459 Fe441 2.002 . S
O459 C455 1.295 . S
O460 Fe443 1.997 . S
O460 C455 1.235 . S
C461 O444 1.295 . S
C461 O445 1.235 . S
Fe462 O464 1.918 . S
Fe462 O467 1.997 . S
Fe462 O468 2.002 . S
Fe462 O473 1.976 . S
Fe462 O476 1.996 . S
Fe463 O464 1.918 . S
Fe463 O471 1.997 . S
Fe463 O474 1.996 . S
Fe463 O478 1.976 . S
Fe463 O481 2.002 . S
O464 Fe462 1.918 . S
O464 Fe463 1.918 . S
O464 Fe465 1.918 . S
Fe465 O464 1.918 . S
Fe465 O466 2.002 . S
Fe465 O475 1.976 . S
Fe465 O479 1.996 . S
Fe465 O482 1.997 . S
O466 Fe465 2.002 . S
O466 C483 1.295 . S
O467 Fe462 1.997 . S
O467 C483 1.235 . S
O468 Fe462 2.002 . S
O468 C469 1.295 . S
C469 O468 1.295 . S
C469 O471 1.235 . S
C470 O475 1.287 . S
C470 O476 1.255 . S
O471 Fe463 1.997 . S
O471 C469 1.235 . S
C472 O478 1.287 . S
C472 O479 1.255 . S
O473 Fe462 1.976 . S
O473 C480 1.287 . S
O474 Fe463 1.996 . S
O474 C480 1.255 . S
O475 Fe465 1.976 . S
O475 C470 1.287 . S
O476 Fe462 1.996 . S
O476 C470 1.255 . S
C477 O481 1.295 . S
C477 O482 1.235 . S
O478 Fe463 1.976 . S
O478 C472 1.287 . S
O479 Fe465 1.996 . S
O479 C472 1.255 . S
C480 O473 1.287 . S
C480 O474 1.255 . S
O481 Fe463 2.002 . S
O481 C477 1.295 . S
O482 Fe465 1.997 . S
O482 C477 1.235 . S
C483 O466 1.295 . S
C483 O467 1.235 . S
Fe484 O486 1.918 . S
Fe484 O489 1.997 . S
Fe484 O490 2.002 . S
Fe484 O495 1.976 . S
Fe484 O498 1.996 . S
Fe485 O486 1.918 . S
Fe485 O493 1.997 . S
Fe485 O496 1.996 . S
Fe485 O500 1.976 . S
Fe485 O503 2.002 . S
O486 Fe484 1.918 . S
O486 Fe485 1.918 . S
O486 Fe487 1.918 . S
Fe487 O486 1.918 . S
Fe487 O488 2.002 . S
Fe487 O497 1.976 . S
Fe487 O501 1.996 . S
Fe487 O504 1.997 . S
O488 Fe487 2.002 . S
O488 C505 1.295 . S
O489 Fe484 1.997 . S
O489 C505 1.235 . S
O490 Fe484 2.002 . S
O490 C491 1.295 . S
C491 O490 1.295 . S
C491 O493 1.235 . S
C492 O497 1.287 . S
C492 O498 1.255 . S
O493 Fe485 1.997 . S
O493 C491 1.235 . S
C494 O500 1.287 . S
C494 O501 1.255 . S
O495 Fe484 1.976 . S
O495 C502 1.287 . S
O496 Fe485 1.996 . S
O496 C502 1.255 . S
O497 Fe487 1.976 . S
O497 C492 1.287 . S
O498 Fe484 1.996 . S
O498 C492 1.255 . S
C499 O503 1.295 . S
C499 O504 1.235 . S
O500 Fe485 1.976 . S
O500 C494 1.287 . S
O501 Fe487 1.996 . S
O501 C494 1.255 . S
C502 O495 1.287 . S
C502 O496 1.255 . S
O503 Fe485 2.002 . S
O503 C499 1.295 . S
O504 Fe487 1.997 . S
O504 C499 1.235 . S
C505 O488 1.295 . S
C505 O489 1.235 . S
Fe506 O508 1.918 . S
Fe506 O511 1.997 . S
Fe506 O512 2.002 . S
Fe506 O517 1.976 . S
Fe506 O520 1.996 . S
Fe507 O508 1.918 . S
Fe507 O515 1.997 . S
Fe507 O518 1.996 . S
Fe507 O522 1.976 . S
Fe507 O525 2.002 . S
O508 Fe506 1.918 . S
O508 Fe507 1.918 . S
O508 Fe509 1.918 . S
Fe509 O508 1.918 . S
Fe509 O510 2.002 . S
Fe509 O519 1.976 . S
Fe509 O523 1.996 . S
Fe509 O526 1.997 . S
O510 Fe509 2.002 . S
O510 C527 1.295 . S
O511 Fe506 1.997 . S
O511 C527 1.235 . S
O512 Fe506 2.002 . S
O512 C513 1.295 . S
C513 O512 1.295 . S
C513 O515 1.235 . S
C514 O519 1.287 . S
C514 O520 1.255 . S
O515 Fe507 1.997 . S
O515 C513 1.235 . S
C516 O522 1.287 . S
C516 O523 1.255 . S
O517 Fe506 1.976 . S
O517 C524 1.287 . S
O518 Fe507 1.996 . S
O518 C524 1.255 . S
O519 Fe509 1.976 . S
O519 C514 1.287 . S
O520 Fe506 1.996 . S
O520 C514 1.255 . S
C521 O525 1.295 . S
C521 O526 1.235 . S
O522 Fe507 1.976 . S
O522 C516 1.287 . S
O523 Fe509 1.996 . S
O523 C516 1.255 . S
C524 O517 1.287 . S
C524 O518 1.255 . S
O525 Fe507 2.002 . S
O525 C521 1.295 . S
O526 Fe509 1.997 . S
O526 C521 1.235 . S
C527 O510 1.295 . S
C527 O511 1.235 . S
C528 C529 1.387 . S
C528 H532 0.950 . S
C528 C537 1.418 . S
C529 C528 1.387 . S
C529 C531 1.359 1_556 S
H530 C537 0.951 . S
C531 C529 1.359 1_554 S
C531 C533 1.418 . S
C531 H535 0.951 . S
H532 C528 0.950 . S
C533 C531 1.418 . S
C533 C534 1.387 . S
C533 H536 0.950 . S
C534 C533 1.387 . S
C534 C537 1.359 1_554 S
H535 C531 0.951 . S
H536 C533 0.950 . S
C537 C528 1.418 . S
C537 H530 0.951 . S
C537 C534 1.359 1_556 S
C538 C539 1.387 . S
C538 H542 0.950 . S
C538 C547 1.390 . S
C539 C538 1.387 . S
C539 C541 1.387 . S
H540 C547 0.950 . S
C541 C539 1.387 . S
C541 C543 1.390 . S
C541 H545 0.950 . S
H542 C538 0.950 . S
C543 C541 1.390 . S
C543 C544 1.387 . S
C543 H546 0.950 . S
C544 C543 1.387 . S
C544 C547 1.387 . S
H545 C541 0.950 . S
H546 C543 0.950 . S
C547 C538 1.390 . S
C547 H540 0.950 . S
C547 C544 1.387 . S
C548 C549 1.387 . S
C548 H552 0.950 . S
C548 C557 1.390 1_556 S
C549 C548 1.387 . S
C549 C551 1.387 . S
H550 C557 0.950 . S
C551 C549 1.387 . S
C551 C553 1.390 1_556 S
C551 H555 0.950 . S
H552 C548 0.950 . S
C553 C551 1.390 1_554 S
C553 C554 1.387 . S
C553 H556 0.950 . S
C554 C553 1.387 . S
C554 C557 1.387 . S
H555 C551 0.950 . S
H556 C553 0.950 . S
C557 C548 1.390 1_554 S
C557 H550 0.950 . S
C557 C554 1.387 . S
C558 C559 1.387 . S
C558 H562 0.950 . S
C558 C567 1.390 . S
C559 C558 1.387 . S
C559 C561 1.387 . S
H560 C567 0.950 . S
C561 C559 1.387 . S
C561 C563 1.390 . S
C561 H565 0.950 . S
H562 C558 0.950 . S
C563 C561 1.390 . S
C563 C564 1.387 . S
C563 H566 0.950 . S
C564 C563 1.387 . S
C564 C567 1.387 . S
H565 C561 0.950 . S
H566 C563 0.950 . S
C567 C558 1.390 . S
C567 H560 0.950 . S
C567 C564 1.387 . S
C568 C569 1.387 . S
C568 H572 0.950 . S
C568 C577 1.390 1_556 S
C569 C568 1.387 . S
C569 C571 1.387 . S
H570 C577 0.950 . S
C571 C569 1.387 . S
C571 C573 1.390 1_556 S
C571 H575 0.950 . S
H572 C568 0.950 . S
C573 C571 1.390 1_554 S
C573 C574 1.387 . S
C573 H576 0.950 . S
C574 C573 1.387 . S
C574 C577 1.387 . S
H575 C571 0.950 . S
H576 C573 0.950 . S
C577 C568 1.390 1_554 S
C577 H570 0.950 . S
C577 C574 1.387 . S
C578 C579 1.387 . S
C578 H582 0.950 . S
C578 C587 1.390 . S
C579 C578 1.387 . S
C579 C581 1.387 . S
H580 C587 0.950 . S
C581 C579 1.387 . S
C581 C583 1.390 . S
C581 H585 0.950 . S
H582 C578 0.950 . S
C583 C581 1.390 . S
C583 C584 1.387 . S
C583 H586 0.950 . S
C584 C583 1.387 . S
C584 C587 1.387 . S
H585 C581 0.950 . S
H586 C583 0.950 . S
C587 C578 1.390 . S
C587 H580 0.950 . S
C587 C584 1.387 . S
C588 C589 1.387 . S
C588 H592 0.950 . S
C588 C597 1.390 1_556 S
C589 C588 1.387 . S
C589 C591 1.387 . S
H590 C597 0.950 . S
C591 C589 1.387 . S
C591 C593 1.390 1_556 S
C591 H595 0.950 . S
H592 C588 0.950 . S
C593 C591 1.390 1_554 S
C593 C594 1.387 . S
C593 H596 0.950 . S
C594 C593 1.387 . S
C594 C597 1.387 . S
H595 C591 0.950 . S
H596 C593 0.950 . S
C597 C588 1.390 1_554 S
C597 H590 0.950 . S
C597 C594 1.387 . S
C598 C599 1.387 . S
C598 H602 0.950 . S
C598 C607 1.390 . S
C599 C598 1.387 . S
C599 C601 1.387 . S
H600 C607 0.950 . S
C601 C599 1.387 . S
C601 C603 1.390 . S
C601 H605 0.950 . S
H602 C598 0.950 . S
C603 C601 1.390 . S
C603 C604 1.387 . S
C603 H606 0.950 . S
C604 C603 1.387 . S
C604 C607 1.387 . S
H605 C601 0.950 . S
H606 C603 0.950 . S
C607 C598 1.390 . S
C607 H600 0.950 . S
C607 C604 1.387 . S
C608 C609 1.387 . S
C608 H612 0.950 . S
C608 C617 1.390 1_554 S
C609 C608 1.387 . S
C609 C611 1.387 . S
H610 C617 0.950 . S
C611 C609 1.387 . S
C611 C613 1.390 1_554 S
C611 H615 0.950 . S
H612 C608 0.950 . S
C613 C611 1.390 1_556 S
C613 C614 1.387 . S
C613 H616 0.950 . S
C614 C613 1.387 . S
C614 C617 1.387 . S
H615 C611 0.950 . S
H616 C613 0.950 . S
C617 C608 1.390 1_556 S
C617 H610 0.950 . S
C617 C614 1.387 . S
C618 C619 1.387 . S
C618 H622 0.950 . S
C618 C627 1.390 . S
C619 C618 1.387 . S
C619 C621 1.387 . S
H620 C627 0.950 . S
C621 C619 1.387 . S
C621 C623 1.390 . S
C621 H625 0.950 . S
H622 C618 0.950 . S
C623 C621 1.390 . S
C623 C624 1.387 . S
C623 H626 0.950 . S
C624 C623 1.387 . S
C624 C627 1.387 . S
H625 C621 0.950 . S
H626 C623 0.950 . S
C627 C618 1.390 . S
C627 H620 0.950 . S
C627 C624 1.387 . S
C628 C629 1.387 . S
C628 H632 0.950 . S
C628 C637 1.390 1_556 S
C629 C628 1.387 . S
C629 C631 1.387 . S
H630 C637 0.950 . S
C631 C629 1.387 . S
C631 C633 1.390 1_556 S
C631 H635 0.950 . S
H632 C628 0.950 . S
C633 C631 1.390 1_554 S
C633 C634 1.387 . S
C633 H636 0.950 . S
C634 C633 1.387 . S
C634 C637 1.387 . S
H635 C631 0.950 . S
H636 C633 0.950 . S
C637 C628 1.390 1_554 S
C637 H630 0.950 . S
C637 C634 1.387 . S
C638 C639 1.387 . S
C638 H642 0.950 . S
C638 C647 1.390 . S
C639 C638 1.387 . S
C639 C641 1.387 . S
H640 C647 0.950 . S
C641 C639 1.387 . S
C641 C643 1.390 . S
C641 H645 0.950 . S
H642 C638 0.950 . S
C643 C641 1.390 . S
C643 C644 1.387 . S
C643 H646 0.950 . S
C644 C643 1.387 . S
C644 C647 1.387 . S
H645 C641 0.950 . S
H646 C643 0.950 . S
C647 C638 1.390 . S
C647 H640 0.950 . S
C647 C644 1.387 . S
C648 C649 1.387 . S
C648 H652 0.950 . S
C648 C657 1.390 . S
C649 C648 1.387 . S
C649 C651 1.387 . S
H650 C657 0.950 . S
C651 C649 1.387 . S
C651 C653 1.390 . S
C651 H655 0.950 . S
H652 C648 0.950 . S
C653 C651 1.390 . S
C653 C654 1.387 . S
C653 H656 0.950 . S
C654 C653 1.387 . S
C654 C657 1.387 . S
H655 C651 0.950 . S
H656 C653 0.950 . S
C657 C648 1.390 . S
C657 H650 0.950 . S
C657 C654 1.387 . S
C658 C659 1.387 . S
C658 H662 0.950 . S
C658 C667 1.390 . S
C659 C658 1.387 . S
C659 C661 1.387 . S
H660 C667 0.950 . S
C661 C659 1.387 . S
C661 C663 1.390 . S
C661 H665 0.950 . S
H662 C658 0.950 . S
C663 C661 1.390 . S
C663 C664 1.387 . S
C663 H666 0.950 . S
C664 C663 1.387 . S
C664 C667 1.387 . S
H665 C661 0.950 . S
H666 C663 0.950 . S
C667 C658 1.390 . S
C667 H660 0.950 . S
C667 C664 1.387 . S
C668 C669 1.387 . S
C668 H672 0.950 . S
C668 C677 1.390 . S
C669 C668 1.387 . S
C669 C671 1.387 . S
H670 C677 0.950 . S
C671 C669 1.387 . S
C671 C673 1.390 . S
C671 H675 0.950 . S
H672 C668 0.950 . S
C673 C671 1.390 . S
C673 C674 1.387 . S
C673 H676 0.950 . S
C674 C673 1.387 . S
C674 C677 1.387 . S
H675 C671 0.950 . S
H676 C673 0.950 . S
C677 C668 1.390 . S
C677 H670 0.950 . S
C677 C674 1.387 . S
C678 C679 1.387 . S
C678 H682 0.950 . S
C678 C687 1.390 . S
C679 C678 1.387 . S
C679 C681 1.387 . S
H680 C687 0.950 . S
C681 C679 1.387 . S
C681 C683 1.390 . S
C681 H685 0.950 . S
H682 C678 0.950 . S
C683 C681 1.390 . S
C683 C684 1.387 . S
C683 H686 0.950 . S
C684 C683 1.387 . S
C684 C687 1.387 . S
H685 C681 0.950 . S
H686 C683 0.950 . S
C687 C678 1.390 . S
C687 H680 0.950 . S
C687 C684 1.387 . S
C688 C689 1.387 . S
C688 H692 0.950 . S
C688 C697 1.390 . S
C689 C688 1.387 . S
C689 C691 1.387 . S
H690 C697 0.950 . S
C691 C689 1.387 . S
C691 C693 1.390 . S
C691 H695 0.950 . S
H692 C688 0.950 . S
C693 C691 1.390 . S
C693 C694 1.387 . S
C693 H696 0.950 . S
C694 C693 1.387 . S
C694 C697 1.387 . S
H695 C691 0.950 . S
H696 C693 0.950 . S
C697 C688 1.390 . S
C697 H690 0.950 . S
C697 C694 1.387 . S
C698 C699 1.387 . S
C698 H702 0.950 . S
C698 C707 1.390 . S
C699 C698 1.387 . S
C699 C701 1.387 . S
H700 C707 0.950 . S
C701 C699 1.387 . S
C701 C703 1.390 . S
C701 H705 0.950 . S
H702 C698 0.950 . S
C703 C701 1.390 . S
C703 C704 1.387 . S
C703 H706 0.950 . S
C704 C703 1.387 . S
C704 C707 1.387 . S
H705 C701 0.950 . S
H706 C703 0.950 . S
C707 C698 1.390 . S
C707 H700 0.950 . S
C707 C704 1.387 . S
C708 C709 1.387 . S
C708 H712 0.950 . S
C708 C717 1.390 . S
C709 C708 1.387 . S
C709 C711 1.387 . S
H710 C717 0.950 . S
C711 C709 1.387 . S
C711 C713 1.390 . S
C711 H715 0.950 . S
H712 C708 0.950 . S
C713 C711 1.390 . S
C713 C714 1.387 . S
C713 H716 0.950 . S
C714 C713 1.387 . S
C714 C717 1.387 . S
H715 C711 0.950 . S
H716 C713 0.950 . S
C717 C708 1.390 . S
C717 H710 0.950 . S
C717 C714 1.387 . S
C718 C719 1.387 . S
C718 H722 0.950 . S
C718 C727 1.390 . S
C719 C718 1.387 . S
C719 C721 1.387 . S
H720 C727 0.950 . S
C721 C719 1.387 . S
C721 C723 1.390 . S
C721 H725 0.950 . S
H722 C718 0.950 . S
C723 C721 1.390 . S
C723 C724 1.387 . S
C723 H726 0.950 . S
C724 C723 1.387 . S
C724 C727 1.387 . S
H725 C721 0.950 . S
H726 C723 0.950 . S
C727 C718 1.390 . S
C727 H720 0.950 . S
C727 C724 1.387 . S
C728 C729 1.387 . S
C728 H732 0.950 . S
C728 C737 1.390 . S
C729 C728 1.387 . S
C729 C731 1.387 . S
H730 C737 0.950 . S
C731 C729 1.387 . S
C731 C733 1.390 . S
C731 H735 0.950 . S
H732 C728 0.950 . S
C733 C731 1.390 . S
C733 C734 1.387 . S
C733 H736 0.950 . S
C734 C733 1.387 . S
C734 C737 1.387 . S
H735 C731 0.950 . S
H736 C733 0.950 . S
C737 C728 1.390 . S
C737 H730 0.950 . S
C737 C734 1.387 . S
C738 C739 1.387 . S
C738 H742 0.950 . S
C738 C747 1.390 . S
C739 C738 1.387 . S
C739 C741 1.387 . S
H740 C747 0.950 . S
C741 C739 1.387 . S
C741 C743 1.390 . S
C741 H745 0.950 . S
H742 C738 0.950 . S
C743 C741 1.390 . S
C743 C744 1.387 . S
C743 H746 0.950 . S
C744 C743 1.387 . S
C744 C747 1.387 . S
H745 C741 0.950 . S
H746 C743 0.950 . S
C747 C738 1.390 . S
C747 H740 0.950 . S
C747 C744 1.387 . S
C748 C749 1.387 . S
C748 H752 0.950 . S
C748 C757 1.390 . S
C749 C748 1.387 . S
C749 C751 1.387 . S
H750 C757 0.950 . S
C751 C749 1.387 . S
C751 C753 1.390 . S
C751 H755 0.950 . S
H752 C748 0.950 . S
C753 C751 1.390 . S
C753 C754 1.387 . S
C753 H756 0.950 . S
C754 C753 1.387 . S
C754 C757 1.387 . S
H755 C751 0.950 . S
H756 C753 0.950 . S
C757 C748 1.390 . S
C757 H750 0.950 . S
C757 C754 1.387 . S
C758 C759 1.387 . S
C758 H762 0.950 . S
C758 C767 1.390 . S
C759 C758 1.387 . S
C759 C761 1.387 . S
H760 C767 0.950 . S
C761 C759 1.387 . S
C761 C763 1.390 . S
C761 H765 0.950 . S
H762 C758 0.950 . S
C763 C761 1.390 . S
C763 C764 1.387 . S
C763 H766 0.950 . S
C764 C763 1.387 . S
C764 C767 1.387 . S
H765 C761 0.950 . S
H766 C763 0.950 . S
C767 C758 1.390 . S
C767 H760 0.950 . S
C767 C764 1.387 . S
C768 C769 1.387 . S
C768 H772 0.950 . S
C768 C777 1.390 . S
C769 C768 1.387 . S
C769 C771 1.387 . S
H770 C777 0.950 . S
C771 C769 1.387 . S
C771 C773 1.390 . S
C771 H775 0.950 . S
H772 C768 0.950 . S
C773 C771 1.390 . S
C773 C774 1.387 . S
C773 H776 0.950 . S
C774 C773 1.387 . S
C774 C777 1.387 . S
H775 C771 0.950 . S
H776 C773 0.950 . S
C777 C768 1.390 . S
C777 H770 0.950 . S
C777 C774 1.387 . S
C778 C779 1.387 . S
C778 H782 0.950 . S
C778 C787 1.390 . S
C779 C778 1.387 . S
C779 C781 1.387 . S
H780 C787 0.950 . S
C781 C779 1.387 . S
C781 C783 1.390 . S
C781 H785 0.950 . S
H782 C778 0.950 . S
C783 C781 1.390 . S
C783 C784 1.387 . S
C783 H786 0.950 . S
C784 C783 1.387 . S
C784 C787 1.387 . S
H785 C781 0.950 . S
H786 C783 0.950 . S
C787 C778 1.390 . S
C787 H780 0.950 . S
C787 C784 1.387 . S
C788 C789 1.387 . S
C788 H792 0.950 . S
C788 C797 1.390 . S
C789 C788 1.387 . S
C789 C791 1.387 . S
H790 C797 0.950 . S
C791 C789 1.387 . S
C791 C793 1.390 . S
C791 H795 0.950 . S
H792 C788 0.950 . S
C793 C791 1.390 . S
C793 C794 1.387 . S
C793 H796 0.950 . S
C794 C793 1.387 . S
C794 C797 1.387 . S
H795 C791 0.950 . S
H796 C793 0.950 . S
C797 C788 1.390 . S
C797 H790 0.950 . S
C797 C794 1.387 . S
C798 C799 1.387 . S
C798 H802 0.950 . S
C798 C807 1.390 . S
C799 C798 1.387 . S
C799 C801 1.387 . S
H800 C807 0.950 . S
C801 C799 1.387 . S
C801 C803 1.390 . S
C801 H805 0.950 . S
H802 C798 0.950 . S
C803 C801 1.390 . S
C803 C804 1.387 . S
C803 H806 0.950 . S
C804 C803 1.387 . S
C804 C807 1.387 . S
H805 C801 0.950 . S
H806 C803 0.950 . S
C807 C798 1.390 . S
C807 H800 0.950 . S
C807 C804 1.387 . S
C808 C809 1.387 . S
C808 H812 0.950 . S
C808 C817 1.390 . S
C809 C808 1.387 . S
C809 C811 1.387 . S
H810 C817 0.950 . S
C811 C809 1.387 . S
C811 C813 1.390 . S
C811 H815 0.950 . S
H812 C808 0.950 . S
C813 C811 1.390 . S
C813 C814 1.387 . S
C813 H816 0.950 . S
C814 C813 1.387 . S
C814 C817 1.387 . S
H815 C811 0.950 . S
H816 C813 0.950 . S
C817 C808 1.390 . S
C817 H810 0.950 . S
C817 C814 1.387 . S
C818 C819 1.387 . S
C818 H822 0.950 . S
C818 C827 1.390 . S
C819 C818 1.387 . S
C819 C821 1.387 . S
H820 C827 0.950 . S
C821 C819 1.387 . S
C821 C823 1.390 . S
C821 H825 0.950 . S
H822 C818 0.950 . S
C823 C821 1.390 . S
C823 C824 1.387 . S
C823 H826 0.950 . S
C824 C823 1.387 . S
C824 C827 1.387 . S
H825 C821 0.950 . S
H826 C823 0.950 . S
C827 C818 1.390 . S
C827 H820 0.950 . S
C827 C824 1.387 . S
C828 C829 1.387 . S
C828 H832 0.950 . S
C828 C837 1.390 . S
C829 C828 1.387 . S
C829 C831 1.387 . S
H830 C837 0.950 . S
C831 C829 1.387 . S
C831 C833 1.390 . S
C831 H835 0.950 . S
H832 C828 0.950 . S
C833 C831 1.390 . S
C833 C834 1.387 . S
C833 H836 0.950 . S
C834 C833 1.387 . S
C834 C837 1.387 . S
H835 C831 0.950 . S
H836 C833 0.950 . S
C837 C828 1.390 . S
C837 H830 0.950 . S
C837 C834 1.387 . S
C838 C839 1.387 . S
C838 H842 0.950 . S
C838 C847 1.390 . S
C839 C838 1.387 . S
C839 C841 1.387 . S
H840 C847 0.950 . S
C841 C839 1.387 . S
C841 C843 1.390 . S
C841 H845 0.950 . S
H842 C838 0.950 . S
C843 C841 1.390 . S
C843 C844 1.387 . S
C843 H846 0.950 . S
C844 C843 1.387 . S
C844 C847 1.387 . S
H845 C841 0.950 . S
H846 C843 0.950 . S
C847 C838 1.390 . S
C847 H840 0.950 . S
C847 C844 1.387 . S
C848 C849 1.387 . S
C848 H852 0.950 . S
C848 C857 1.390 . S
C849 C848 1.387 . S
C849 C851 1.387 . S
H850 C857 0.950 . S
C851 C849 1.387 . S
C851 C853 1.390 . S
C851 H855 0.950 . S
H852 C848 0.950 . S
C853 C851 1.390 . S
C853 C854 1.387 . S
C853 H856 0.950 . S
C854 C853 1.387 . S
C854 C857 1.387 . S
H855 C851 0.950 . S
H856 C853 0.950 . S
C857 C848 1.390 . S
C857 H850 0.950 . S
C857 C854 1.387 . S
C858 C859 1.387 . S
C858 H862 0.950 . S
C858 C867 1.390 . S
C859 C858 1.387 . S
C859 C861 1.387 . S
H860 C867 0.950 . S
C861 C859 1.387 . S
C861 C863 1.390 . S
C861 H865 0.950 . S
H862 C858 0.950 . S
C863 C861 1.390 . S
C863 C864 1.387 . S
C863 H866 0.950 . S
C864 C863 1.387 . S
C864 C867 1.387 . S
H865 C861 0.950 . S
H866 C863 0.950 . S
C867 C858 1.390 . S
C867 H860 0.950 . S
C867 C864 1.387 . S
C868 C869 1.387 . S
C868 H872 0.950 . S
C868 C877 1.390 . S
C869 C868 1.387 . S
C869 C871 1.387 . S
H870 C877 0.950 . S
C871 C869 1.387 . S
C871 C873 1.390 . S
C871 H875 0.950 . S
H872 C868 0.950 . S
C873 C871 1.390 . S
C873 C874 1.387 . S
C873 H876 0.950 . S
C874 C873 1.387 . S
C874 C877 1.387 . S
H875 C871 0.950 . S
H876 C873 0.950 . S
C877 C868 1.390 . S
C877 H870 0.950 . S
C877 C874 1.387 . S
C878 C879 1.387 . S
C878 H882 0.950 . S
C878 C887 1.390 . S
C879 C878 1.387 . S
C879 C881 1.387 . S
H880 C887 0.950 . S
C881 C879 1.387 . S
C881 C883 1.390 . S
C881 H885 0.950 . S
H882 C878 0.950 . S
C883 C881 1.390 . S
C883 C884 1.387 . S
C883 H886 0.950 . S
C884 C883 1.387 . S
C884 C887 1.387 . S
H885 C881 0.950 . S
H886 C883 0.950 . S
C887 C878 1.390 . S
C887 H880 0.950 . S
C887 C884 1.387 . S
C888 C889 1.387 . S
C888 H892 0.950 . S
C888 C897 1.390 . S
C889 C888 1.387 . S
C889 C891 1.387 . S
H890 C897 0.950 . S
C891 C889 1.387 . S
C891 C893 1.390 . S
C891 H895 0.950 . S
H892 C888 0.950 . S
C893 C891 1.390 . S
C893 C894 1.387 . S
C893 H896 0.950 . S
C894 C893 1.387 . S
C894 C897 1.387 . S
H895 C891 0.950 . S
H896 C893 0.950 . S
C897 C888 1.390 . S
C897 H890 0.950 . S
C897 C894 1.387 . S
C898 C899 1.387 . S
C898 H902 0.950 . S
C898 C907 1.390 . S
C899 C898 1.387 . S
C899 C901 1.387 . S
H900 C907 0.950 . S
C901 C899 1.387 . S
C901 C903 1.390 . S
C901 H905 0.950 . S
H902 C898 0.950 . S
C903 C901 1.390 . S
C903 C904 1.387 . S
C903 H906 0.950 . S
C904 C903 1.387 . S
C904 C907 1.387 . S
H905 C901 0.950 . S
H906 C903 0.950 . S
C907 C898 1.390 . S
C907 H900 0.950 . S
C907 C904 1.387 . S
C908 C909 1.387 . S
C908 H912 0.950 . S
C908 C917 1.390 . S
C909 C908 1.387 . S
C909 C911 1.387 . S
H910 C917 0.950 . S
C911 C909 1.387 . S
C911 C913 1.390 . S
C911 H915 0.950 . S
H912 C908 0.950 . S
C913 C911 1.390 . S
C913 C914 1.387 . S
C913 H916 0.950 . S
C914 C913 1.387 . S
C914 C917 1.387 . S
H915 C911 0.950 . S
H916 C913 0.950 . S
C917 C908 1.390 . S
C917 H910 0.950 . S
C917 C914 1.387 . S
C918 C919 1.387 . S
C918 H922 0.950 . S
C918 C927 1.390 . S
C919 C918 1.387 . S
C919 C921 1.387 . S
H920 C927 0.950 . S
C921 C919 1.387 . S
C921 C923 1.390 . S
C921 H925 0.950 . S
H922 C918 0.950 . S
C923 C921 1.390 . S
C923 C924 1.387 . S
C923 H926 0.950 . S
C924 C923 1.387 . S
C924 C927 1.387 . S
H925 C921 0.950 . S
H926 C923 0.950 . S
C927 C918 1.390 . S
C927 H920 0.950 . S
C927 C924 1.387 . S
C928 C929 1.387 . S
C928 H932 0.950 . S
C928 C937 1.390 . S
C929 C928 1.387 . S
C929 C931 1.387 . S
H930 C937 0.950 . S
C931 C929 1.387 . S
C931 C933 1.390 . S
C931 H935 0.950 . S
H932 C928 0.950 . S
C933 C931 1.390 . S
C933 C934 1.387 . S
C933 H936 0.950 . S
C934 C933 1.387 . S
C934 C937 1.387 . S
H935 C931 0.950 . S
H936 C933 0.950 . S
C937 C928 1.390 . S
C937 H930 0.950 . S
C937 C934 1.387 . S
C938 C939 1.387 . S
C938 H942 0.950 . S
C938 C947 1.390 . S
C939 C938 1.387 . S
C939 C941 1.387 . S
H940 C947 0.950 . S
C941 C939 1.387 . S
C941 C943 1.390 . S
C941 H945 0.950 . S
H942 C938 0.950 . S
C943 C941 1.390 . S
C943 C944 1.387 . S
C943 H946 0.950 . S
C944 C943 1.387 . S
C944 C947 1.387 . S
H945 C941 0.950 . S
H946 C943 0.950 . S
C947 C938 1.390 . S
C947 H940 0.950 . S
C947 C944 1.387 . S
C948 C949 1.387 . S
C948 H952 0.950 . S
C948 C957 1.390 . S
C949 C948 1.387 . S
C949 C951 1.387 . S
H950 C957 0.950 . S
C951 C949 1.387 . S
C951 C953 1.390 . S
C951 H955 0.950 . S
H952 C948 0.950 . S
C953 C951 1.390 . S
C953 C954 1.387 . S
C953 H956 0.950 . S
C954 C953 1.387 . S
C954 C957 1.387 . S
H955 C951 0.950 . S
H956 C953 0.950 . S
C957 C948 1.390 . S
C957 H950 0.950 . S
C957 C954 1.387 . S
C958 C959 1.387 . S
C958 H962 0.950 . S
C958 C967 1.390 . S
C959 C958 1.387 . S
C959 C961 1.387 . S
H960 C967 0.950 . S
C961 C959 1.387 . S
C961 C963 1.390 . S
C961 H965 0.950 . S
H962 C958 0.950 . S
C963 C961 1.390 . S
C963 C964 1.387 . S
C963 H966 0.950 . S
C964 C963 1.387 . S
C964 C967 1.387 . S
H965 C961 0.950 . S
H966 C963 0.950 . S
C967 C958 1.390 . S
C967 H960 0.950 . S
C967 C964 1.387 . S
C968 C969 1.387 . S
C968 H972 0.950 . S
C968 C977 1.390 . S
C969 C968 1.387 . S
C969 C971 1.387 . S
H970 C977 0.950 . S
C971 C969 1.387 . S
C971 C973 1.390 . S
C971 H975 0.950 . S
H972 C968 0.950 . S
C973 C971 1.390 . S
C973 C974 1.387 . S
C973 H976 0.950 . S
C974 C973 1.387 . S
C974 C977 1.387 . S
H975 C971 0.950 . S
H976 C973 0.950 . S
C977 C968 1.390 . S
C977 H970 0.950 . S
C977 C974 1.387 . S
C978 C979 1.387 . S
C978 H982 0.950 . S
C978 C987 1.390 . S
C979 C978 1.387 . S
C979 C981 1.387 . S
H980 C987 0.950 . S
C981 C979 1.387 . S
C981 C983 1.390 . S
C981 H985 0.950 . S
H982 C978 0.950 . S
C983 C981 1.390 . S
C983 C984 1.387 . S
C983 H986 0.950 . S
C984 C983 1.387 . S
C984 C987 1.387 . S
H985 C981 0.950 . S
H986 C983 0.950 . S
C987 C978 1.390 . S
C987 H980 0.950 . S
C987 C984 1.387 . S
C988 C989 1.387 . S
C988 H992 0.950 . S
C988 C997 1.390 . S
C989 C988 1.387 . S
C989 C991 1.387 . S
H990 C997 0.950 . S
C991 C989 1.387 . S
C991 C993 1.390 . S
C991 H995 0.950 . S
H992 C988 0.950 . S
C993 C991 1.390 . S
C993 C994 1.387 . S
C993 H996 0.950 . S
C994 C993 1.387 . S
C994 C997 1.387 . S
H995 C991 0.950 . S
H996 C993 0.950 . S
C997 C988 1.390 . S
C997 H990 0.950 . S
C997 C994 1.387 . S
C998 C999 1.387 . S
C998 H1002 0.950 . S
C998 C1007 1.390 . S
C999 C998 1.387 . S
C999 C1001 1.387 . S
H1000 C1007 0.950 . S
C1001 C999 1.387 . S
C1001 C1003 1.390 . S
C1001 H1005 0.950 . S
H1002 C998 0.950 . S
C1003 C1001 1.390 . S
C1003 C1004 1.387 . S
C1003 H1006 0.950 . S
C1004 C1003 1.387 . S
C1004 C1007 1.387 . S
H1005 C1001 0.950 . S
H1006 C1003 0.950 . S
C1007 C998 1.390 . S
C1007 H1000 0.950 . S
C1007 C1004 1.387 . S
C1008 C1009 1.387 . S
C1008 H1012 0.950 . S
C1008 C1017 1.390 1_655 S
C1009 C1008 1.387 . S
C1009 C1011 1.387 . S
H1010 C1017 0.950 . S
C1011 C1009 1.387 . S
C1011 C1013 1.390 1_655 S
C1011 H1015 0.950 . S
H1012 C1008 0.950 . S
C1013 C1011 1.390 1_455 S
C1013 C1014 1.387 . S
C1013 H1016 0.950 . S
C1014 C1013 1.387 . S
C1014 C1017 1.387 . S
H1015 C1011 0.950 . S
H1016 C1013 0.950 . S
C1017 C1008 1.390 1_455 S
C1017 H1010 0.950 . S
C1017 C1014 1.387 . S
C1018 C1019 1.387 . S
C1018 H1022 0.950 . S
C1018 C1027 1.390 1_565 S
C1019 C1018 1.387 . S
C1019 C1021 1.387 . S
H1020 C1027 0.950 . S
C1021 C1019 1.387 . S
C1021 C1023 1.390 1_565 S
C1021 H1025 0.950 . S
H1022 C1018 0.950 . S
C1023 C1021 1.390 1_545 S
C1023 C1024 1.387 . S
C1023 H1026 0.950 . S
C1024 C1023 1.387 . S
C1024 C1027 1.387 . S
H1025 C1021 0.950 . S
H1026 C1023 0.950 . S
C1027 C1018 1.390 1_545 S
C1027 H1020 0.950 . S
C1027 C1024 1.387 . S
C1028 C1029 1.387 . S
C1028 H1032 0.950 . S
C1028 C1037 1.390 . S
C1029 C1028 1.387 . S
C1029 C1031 1.387 . S
H1030 C1037 0.950 . S
C1031 C1029 1.387 . S
C1031 C1033 1.390 . S
C1031 H1035 0.950 . S
H1032 C1028 0.950 . S
C1033 C1031 1.390 . S
C1033 C1034 1.387 . S
C1033 H1036 0.950 . S
C1034 C1033 1.387 . S
C1034 C1037 1.387 . S
H1035 C1031 0.950 . S
H1036 C1033 0.950 . S
C1037 C1028 1.390 . S
C1037 H1030 0.950 . S
C1037 C1034 1.387 . S
C1038 C1039 1.387 . S
C1038 H1042 0.950 . S
C1038 C1047 1.390 1_455 S
C1039 C1038 1.387 . S
C1039 C1041 1.387 . S
H1040 C1047 0.950 . S
C1041 C1039 1.387 . S
C1041 C1043 1.390 1_455 S
C1041 H1045 0.950 . S
H1042 C1038 0.950 . S
C1043 C1041 1.390 1_655 S
C1043 C1044 1.387 . S
C1043 H1046 0.950 . S
C1044 C1043 1.387 . S
C1044 C1047 1.387 . S
H1045 C1041 0.950 . S
H1046 C1043 0.950 . S
C1047 C1038 1.390 1_655 S
C1047 H1040 0.950 . S
C1047 C1044 1.387 . S
C1048 C1049 1.387 . S
C1048 H1052 0.950 . S
C1048 C1057 1.390 1_545 S
C1049 C1048 1.387 . S
C1049 C1051 1.387 . S
H1050 C1057 0.950 . S
C1051 C1049 1.387 . S
C1051 C1053 1.390 1_545 S
C1051 H1055 0.950 . S
H1052 C1048 0.950 . S
C1053 C1051 1.390 1_565 S
C1053 C1054 1.387 . S
C1053 H1056 0.950 . S
C1054 C1053 1.387 . S
C1054 C1057 1.387 . S
H1055 C1051 0.950 . S
H1056 C1053 0.950 . S
C1057 C1048 1.390 1_565 S
C1057 H1050 0.950 . S
C1057 C1054 1.387 . S
C1058 C1059 1.387 . S
C1058 H1062 0.950 . S
C1058 C1067 1.390 . S
C1059 C1058 1.387 . S
C1059 C1061 1.387 . S
H1060 C1067 0.950 . S
C1061 C1059 1.387 . S
C1061 C1063 1.390 . S
C1061 H1065 0.950 . S
H1062 C1058 0.950 . S
C1063 C1061 1.390 . S
C1063 C1064 1.387 . S
C1063 H1066 0.950 . S
C1064 C1063 1.387 . S
C1064 C1067 1.387 . S
H1065 C1061 0.950 . S
H1066 C1063 0.950 . S
C1067 C1058 1.390 . S
C1067 H1060 0.950 . S
C1067 C1064 1.387 . S
C1068 C1069 1.387 . S
C1068 H1072 0.950 . S
C1068 C1077 1.390 1_565 S
C1069 C1068 1.387 . S
C1069 C1071 1.387 . S
H1070 C1077 0.950 . S
C1071 C1069 1.387 . S
C1071 C1073 1.390 1_565 S
C1071 H1075 0.950 . S
H1072 C1068 0.950 . S
C1073 C1071 1.390 1_545 S
C1073 C1074 1.387 . S
C1073 H1076 0.950 . S
C1074 C1073 1.387 . S
C1074 C1077 1.387 . S
H1075 C1071 0.950 . S
H1076 C1073 0.950 . S
C1077 C1068 1.390 1_545 S
C1077 H1070 0.950 . S
C1077 C1074 1.387 . S
C1078 C1079 1.387 . S
C1078 H1082 0.950 . S
C1078 C1087 1.390 . S
C1079 C1078 1.387 . S
C1079 C1081 1.387 . S
H1080 C1087 0.950 . S
C1081 C1079 1.387 . S
C1081 C1083 1.390 . S
C1081 H1085 0.950 . S
H1082 C1078 0.950 . S
C1083 C1081 1.390 . S
C1083 C1084 1.387 . S
C1083 H1086 0.950 . S
C1084 C1083 1.387 . S
C1084 C1087 1.387 . S
H1085 C1081 0.950 . S
H1086 C1083 0.950 . S
C1087 C1078 1.390 . S
C1087 H1080 0.950 . S
C1087 C1084 1.387 . S
C1088 C1089 1.387 . S
C1088 H1092 0.950 . S
C1088 C1097 1.390 1_655 S
C1089 C1088 1.387 . S
C1089 C1091 1.387 . S
H1090 C1097 0.950 . S
C1091 C1089 1.387 . S
C1091 C1093 1.390 1_655 S
C1091 H1095 0.950 . S
H1092 C1088 0.950 . S
C1093 C1091 1.390 1_455 S
C1093 C1094 1.387 . S
C1093 H1096 0.950 . S
C1094 C1093 1.387 . S
C1094 C1097 1.387 . S
H1095 C1091 0.950 . S
H1096 C1093 0.950 . S
C1097 C1088 1.390 1_455 S
C1097 H1090 0.950 . S
C1097 C1094 1.387 . S
C1098 C1099 1.387 . S
C1098 H1102 0.950 . S
C1098 C1107 1.390 1_565 S
C1099 C1098 1.387 . S
C1099 C1101 1.387 . S
H1100 C1107 0.950 . S
C1101 C1099 1.387 . S
C1101 C1103 1.390 1_565 S
C1101 H1105 0.950 . S
H1102 C1098 0.950 . S
C1103 C1101 1.390 1_545 S
C1103 C1104 1.387 . S
C1103 H1106 0.950 . S
C1104 C1103 1.387 . S
C1104 C1107 1.387 . S
H1105 C1101 0.950 . S
H1106 C1103 0.950 . S
C1107 C1098 1.390 1_545 S
C1107 H1100 0.950 . S
C1107 C1104 1.387 . S
C1108 C1109 1.387 . S
C1108 H1112 0.950 . S
C1108 C1117 1.390 . S
C1109 C1108 1.387 . S
C1109 C1111 1.387 . S
H1110 C1117 0.950 . S
C1111 C1109 1.387 . S
C1111 C1113 1.390 . S
C1111 H1115 0.950 . S
H1112 C1108 0.950 . S
C1113 C1111 1.390 . S
C1113 C1114 1.387 . S
C1113 H1116 0.950 . S
C1114 C1113 1.387 . S
C1114 C1117 1.387 . S
H1115 C1111 0.950 . S
H1116 C1113 0.950 . S
C1117 C1108 1.390 . S
C1117 H1110 0.950 . S
C1117 C1114 1.387 . S
C1118 C1119 1.387 . S
C1118 H1122 0.950 . S
C1118 C1127 1.390 1_655 S
C1119 C1118 1.387 . S
C1119 C1121 1.387 . S
H1120 C1127 0.950 . S
C1121 C1119 1.387 . S
C1121 C1123 1.390 1_655 S
C1121 H1125 0.950 . S
H1122 C1118 0.950 . S
C1123 C1121 1.390 1_455 S
C1123 C1124 1.387 . S
C1123 H1126 0.950 . S
C1124 C1123 1.387 . S
C1124 C1127 1.387 . S
H1125 C1121 0.950 . S
H1126 C1123 0.950 . S
C1127 C1118 1.390 1_455 S
C1127 H1120 0.950 . S
C1127 C1124 1.387 . S
C1128 C1129 1.387 . S
C1128 H1132 0.950 . S
C1128 C1137 1.390 1_556 S
C1129 C1128 1.387 . S
C1129 C1131 1.387 . S
H1130 C1137 0.950 . S
C1131 C1129 1.387 . S
C1131 C1133 1.390 1_556 S
C1131 H1135 0.950 . S
H1132 C1128 0.950 . S
C1133 C1131 1.390 1_554 S
C1133 C1134 1.387 . S
C1133 H1136 0.950 . S
C1134 C1133 1.387 . S
C1134 C1137 1.387 . S
H1135 C1131 0.950 . S
H1136 C1133 0.950 . S
C1137 C1128 1.390 1_554 S
C1137 H1130 0.950 . S
C1137 C1134 1.387 . S
C1138 C1139 1.387 . S
C1138 H1142 0.950 . S
C1138 C1147 1.390 . S
C1139 C1138 1.387 . S
C1139 C1141 1.387 . S
H1140 C1147 0.950 . S
C1141 C1139 1.387 . S
C1141 C1143 1.390 . S
C1141 H1145 0.950 . S
H1142 C1138 0.950 . S
C1143 C1141 1.390 . S
C1143 C1144 1.387 . S
C1143 H1146 0.950 . S
C1144 C1143 1.387 . S
C1144 C1147 1.387 . S
H1145 C1141 0.950 . S
H1146 C1143 0.950 . S
C1147 C1138 1.390 . S
C1147 H1140 0.950 . S
C1147 C1144 1.387 . S
C1148 C1149 1.387 . S
C1148 H1152 0.950 . S
C1148 C1157 1.390 1_554 S
C1149 C1148 1.387 . S
C1149 C1151 1.387 . S
H1150 C1157 0.950 . S
C1151 C1149 1.387 . S
C1151 C1153 1.390 1_554 S
C1151 H1155 0.950 . S
H1152 C1148 0.950 . S
C1153 C1151 1.390 1_556 S
C1153 C1154 1.387 . S
C1153 H1156 0.950 . S
C1154 C1153 1.387 . S
C1154 C1157 1.387 . S
H1155 C1151 0.950 . S
H1156 C1153 0.950 . S
C1157 C1148 1.390 1_556 S
C1157 H1150 0.950 . S
C1157 C1154 1.387 . S
C1158 C1159 1.387 . S
C1158 H1162 0.950 . S
C1158 C1167 1.390 . S
C1159 C1158 1.387 . S
C1159 C1161 1.387 . S
H1160 C1167 0.950 . S
C1161 C1159 1.387 . S
C1161 C1163 1.390 . S
C1161 H1165 0.950 . S
H1162 C1158 0.950 . S
C1163 C1161 1.390 . S
C1163 C1164 1.387 . S
C1163 H1166 0.950 . S
C1164 C1163 1.387 . S
C1164 C1167 1.387 . S
H1165 C1161 0.950 . S
H1166 C1163 0.950 . S
C1167 C1158 1.390 . S
C1167 H1160 0.950 . S
C1167 C1164 1.387 . S
C1168 C1169 1.387 . S
C1168 H1172 0.950 . S
C1168 C1177 1.390 1_556 S
C1169 C1168 1.387 . S
C1169 C1171 1.387 . S
H1170 C1177 0.950 . S
C1171 C1169 1.387 . S
C1171 C1173 1.390 1_556 S
C1171 H1175 0.950 . S
H1172 C1168 0.950 . S
C1173 C1171 1.390 1_554 S
C1173 C1174 1.387 . S
C1173 H1176 0.950 . S
C1174 C1173 1.387 . S
C1174 C1177 1.387 . S
H1175 C1171 0.950 . S
H1176 C1173 0.950 . S
C1177 C1168 1.390 1_554 S
C1177 H1170 0.950 . S
C1177 C1174 1.387 . S
C1178 C1179 1.387 . S
C1178 H1182 0.950 . S
C1178 C1187 1.390 . S
C1179 C1178 1.387 . S
C1179 C1181 1.387 . S
H1180 C1187 0.950 . S
C1181 C1179 1.387 . S
C1181 C1183 1.390 . S
C1181 H1185 0.950 . S
H1182 C1178 0.950 . S
C1183 C1181 1.390 . S
C1183 C1184 1.387 . S
C1183 H1186 0.950 . S
C1184 C1183 1.387 . S
C1184 C1187 1.387 . S
H1185 C1181 0.950 . S
H1186 C1183 0.950 . S
C1187 C1178 1.390 . S
C1187 H1180 0.950 . S
C1187 C1184 1.387 . S
C1188 C1189 1.387 . S
C1188 H1192 0.950 . S
C1188 C1197 1.390 1_554 S
C1189 C1188 1.387 . S
C1189 C1191 1.387 . S
H1190 C1197 0.950 . S
C1191 C1189 1.387 . S
C1191 C1193 1.390 1_554 S
C1191 H1195 0.950 . S
H1192 C1188 0.950 . S
C1193 C1191 1.390 1_556 S
C1193 C1194 1.387 . S
C1193 H1196 0.950 . S
C1194 C1193 1.387 . S
C1194 C1197 1.387 . S
H1195 C1191 0.950 . S
H1196 C1193 0.950 . S
C1197 C1188 1.390 1_556 S
C1197 H1190 0.950 . S
C1197 C1194 1.387 . S
C1198 C1199 1.387 . S
C1198 H1202 0.950 . S
C1198 C1207 1.390 . S
C1199 C1198 1.387 . S
C1199 C1201 1.387 . S
H1200 C1207 0.950 . S
C1201 C1199 1.387 . S
C1201 C1203 1.390 . S
C1201 H1205 0.950 . S
H1202 C1198 0.950 . S
C1203 C1201 1.390 . S
C1203 C1204 1.387 . S
C1203 H1206 0.950 . S
C1204 C1203 1.387 . S
C1204 C1207 1.387 . S
H1205 C1201 0.950 . S
H1206 C1203 0.950 . S
C1207 C1198 1.390 . S
C1207 H1200 0.950 . S
C1207 C1204 1.387 . S
C1208 C1209 1.391 . S
C1208 H1212 0.950 . S
C1208 C1217 1.387 1_554 S
C1209 C1208 1.391 . S
C1209 C1211 1.387 . S
H1210 C1217 0.950 . S
C1211 C1209 1.387 . S
C1211 C1213 1.387 1_554 S
C1211 H1215 0.950 . S
H1212 C1208 0.950 . S
C1213 C1211 1.387 1_556 S
C1213 C1214 1.391 . S
C1213 H1216 0.950 . S
C1214 C1213 1.391 . S
C1214 C1217 1.387 . S
H1215 C1211 0.950 . S
H1216 C1213 0.950 . S
C1217 C1208 1.387 1_556 S
C1217 H1210 0.950 . S
C1217 C1214 1.387 . S
C1218 C1219 1.387 . S
C1218 H1222 0.950 . S
C1218 C1227 1.390 . S
C1219 C1218 1.387 . S
C1219 C1221 1.387 . S
H1220 C1227 0.950 . S
C1221 C1219 1.387 . S
C1221 C1223 1.390 . S
C1221 H1225 0.950 . S
H1222 C1218 0.950 . S
C1223 C1221 1.390 . S
C1223 C1224 1.387 . S
C1223 H1226 0.950 . S
C1224 C1223 1.387 . S
C1224 C1227 1.387 . S
H1225 C1221 0.950 . S
H1226 C1223 0.950 . S
C1227 C1218 1.390 . S
C1227 H1220 0.950 . S
C1227 C1224 1.387 . S
C1228 C1229 1.387 . S
C1228 H1232 0.950 . S
C1228 C1237 1.390 1_554 S
C1229 C1228 1.387 . S
C1229 C1231 1.387 . S
H1230 C1237 0.950 . S
C1231 C1229 1.387 . S
C1231 C1233 1.390 1_554 S
C1231 H1235 0.950 . S
H1232 C1228 0.950 . S
C1233 C1231 1.390 1_556 S
C1233 C1234 1.387 . S
C1233 H1236 0.950 . S
C1234 C1233 1.387 . S
C1234 C1237 1.387 . S
H1235 C1231 0.950 . S
H1236 C1233 0.950 . S
C1237 C1228 1.390 1_556 S
C1237 H1230 0.950 . S
C1237 C1234 1.387 . S
C1238 C1239 1.387 . S
C1238 H1242 0.950 . S
C1238 C1247 1.390 . S
C1239 C1238 1.387 . S
C1239 C1241 1.387 . S
H1240 C1247 0.950 . S
C1241 C1239 1.387 . S
C1241 C1243 1.390 . S
C1241 H1245 0.950 . S
H1242 C1238 0.950 . S
C1243 C1241 1.390 . S
C1243 C1244 1.387 . S
C1243 H1246 0.950 . S
C1244 C1243 1.387 . S
C1244 C1247 1.387 . S
H1245 C1241 0.950 . S
H1246 C1243 0.950 . S
C1247 C1238 1.390 . S
C1247 H1240 0.950 . S
C1247 C1244 1.387 . S
C529 C194 1.161 . S
C534 C10 1.158 . S
C539 C30 1.160 . S
C544 C206 1.160 . S
C549 C230 1.159 . S
C554 C52 1.161 . S
C559 C74 1.158 . S
C564 C260 1.161 . S
C569 C142 1.160 . S
C574 C106 1.160 . S
C579 C164 1.158 . S
C584 C118 1.161 . S
C589 C272 1.159 . S
C594 C458 1.161 . S
C599 C472 1.160 . S
C604 C296 1.160 . S
C609 C494 1.159 . S
C614 C326 1.161 . S
C619 C340 1.158 . S
C624 C516 1.161 . S
C629 C362 1.160 . S
C634 C404 1.160 . S
C639 C428 1.161 . S
C644 C392 1.158 . S
C649 C21 1.290 . S
C654 C65 1.327 . S
C659 C87 1.328 . S
C664 C29 1.290 . S
C669 C51 1.290 . S
C674 C95 1.327 . S
C679 C73 1.290 . S
C684 C131 1.327 . S
C689 C15 1.327 . S
C694 C103 1.290 . S
C699 C43 1.325 . S
C704 C117 1.287 . S
C709 C235 1.327 . S
C714 C153 1.290 . S
C719 C175 1.287 . S
C724 C249 1.325 . S
C729 C191 1.290 . S
C734 C147 1.328 . S
C739 C169 1.327 . S
C744 C205 1.290 . S
C749 C183 1.328 . S
C754 C241 1.290 . S
C759 C219 1.325 . S
C764 C257 1.287 . S
C769 C315 1.325 . S
C774 C271 1.287 . S
C779 C307 1.290 . S
C784 C345 1.327 . S
C789 C323 1.287 . S
C794 C367 1.325 . S
C799 C351 1.290 . S
C804 C381 1.327 . S
C809 C285 1.325 . S
C814 C373 1.287 . S
C819 C301 1.328 . S
C824 C389 1.290 . S
C829 C403 1.290 . S
C834 C499 1.327 . S
C839 C439 1.290 . S
C844 C521 1.327 . S
C849 C455 1.290 . S
C854 C417 1.328 . S
C859 C483 1.290 . S
C864 C433 1.327 . S
C869 C447 1.325 . S
C874 C505 1.287 . S
C879 C477 1.325 . S
C884 C527 1.287 . S
C889 C7 1.505 . S
C894 C337 1.505 . S
C899 C359 1.505 . S
C904 C37 1.505 . S
C909 C59 1.505 . S
C914 C395 1.505 . S
C919 C81 1.505 . S
C924 C279 1.505 . S
C929 C293 1.505 . S
C934 C109 1.505 . S
C939 C125 1.505 . S
C944 C329 1.505 . S
C949 C139 1.505 . S
C954 C469 1.505 . S
C959 C491 1.505 . S
C964 C161 1.505 . S
C969 C197 1.505 . S
C974 C513 1.505 . S
C979 C213 1.505 . S
C984 C411 1.505 . S
C989 C425 1.505 . S
C994 C227 1.505 . S
C999 C461 1.505 . S
C1004 C263 1.505 . S
C1009 C448 1.375 . S
C1014 C18 1.377 . S
C1019 C480 1.375 . S
C1024 C32 1.377 . S
C1029 C502 1.377 . S
C1034 C54 1.375 . S
C1039 C524 1.375 . S
C1044 C76 1.377 . S
C1049 C406 1.377 . S
C1054 C96 1.375 . S
C1059 C120 1.375 . S
C1064 C436 1.377 . S
C1069 C150 1.377 . S
C1074 C370 1.375 . S
C1079 C382 1.377 . S
C1084 C172 1.375 . S
C1089 C274 1.375 . S
C1094 C184 1.377 . S
C1099 C304 1.377 . S
C1104 C208 1.375 . S
C1109 C238 1.375 . S
C1114 C316 1.377 . S
C1119 C250 1.377 . S
C1124 C348 1.375 . S
C1129 C228 1.267 . S
C1134 C8 1.267 . S
C1139 C252 1.266 . S
C1144 C40 1.268 . S
C1149 C62 1.268 . S
C1154 C140 1.265 . S
C1159 C84 1.267 . S
C1164 C162 1.267 . S
C1169 C186 1.267 . S
C1174 C98 1.266 . S
C1179 C128 1.265 . S
C1184 C216 1.268 . S
C1189 C492 1.267 . S
C1194 C282 1.267 . S
C1199 C514 1.265 . S
C1204 C294 1.269 . S
C1209 C414 1.265 . S
C1214 C318 1.268 . S
C1219 C338 1.267 . S
C1224 C426 1.267 . S
C1229 C450 1.268 . S
C1234 C360 1.267 . S
C1239 C384 1.265 . S
C1244 C470 1.268 . S
