# Generated by pormake.
# Topology wjk, (5)-cn, num edge types: 1
# Building blocks:
#     Node 0, Type 0, BuildingBlock: XOMCOT_clean_sbu_1, # of connection points: 5
#     Node 1, Type 0, BuildingBlock: XOMCOT_clean_sbu_1, # of connection points: 5
#     Node 2, Type 0, BuildingBlock: XOMCOT_clean_sbu_1, # of connection points: 5
#     Node 3, Type 0, BuildingBlock: XOMCOT_clean_sbu_1, # of connection points: 5
#     Node 4, Type 0, BuildingBlock: XOMCOT_clean_sbu_1, # of connection points: 5
#     Node 5, Type 0, BuildingBlock: XOMCOT_clean_sbu_1, # of connection points: 5
#     Node 6, Type 0, BuildingBlock: XOMCOT_clean_sbu_1, # of connection points: 5
#     Node 7, Type 0, BuildingBlock: XOMCOT_clean_sbu_1, # of connection points: 5
#     Node 8, Type 0, BuildingBlock: XOMCOT_clean_sbu_1, # of connection points: 5
#     Node 9, Type 0, BuildingBlock: XOMCOT_clean_sbu_1, # of connection points: 5
#     Node 10, Type 0, BuildingBlock: XOMCOT_clean_sbu_1, # of connection points: 5
#     Node 11, Type 0, BuildingBlock: XOMCOT_clean_sbu_1, # of connection points: 5
#     Edge 12, Type (0, 0), BuildingBlock: OJICUG_clean_linker_0, # of connection points: 2
#     Edge 13, Type (0, 0), BuildingBlock: OJICUG_clean_linker_0, # of connection points: 2
#     Edge 14, Type (0, 0), BuildingBlock: OJICUG_clean_linker_0, # of connection points: 2
#     Edge 15, Type (0, 0), BuildingBlock: OJICUG_clean_linker_0, # of connection points: 2
#     Edge 16, Type (0, 0), BuildingBlock: OJICUG_clean_linker_0, # of connection points: 2
#     Edge 17, Type (0, 0), BuildingBlock: OJICUG_clean_linker_0, # of connection points: 2
#     Edge 18, Type (0, 0), BuildingBlock: OJICUG_clean_linker_0, # of connection points: 2
#     Edge 19, Type (0, 0), BuildingBlock: OJICUG_clean_linker_0, # of connection points: 2
#     Edge 20, Type (0, 0), BuildingBlock: OJICUG_clean_linker_0, # of connection points: 2
#     Edge 21, Type (0, 0), BuildingBlock: OJICUG_clean_linker_0, # of connection points: 2
#     Edge 22, Type (0, 0), BuildingBlock: OJICUG_clean_linker_0, # of connection points: 2
#     Edge 23, Type (0, 0), BuildingBlock: OJICUG_clean_linker_0, # of connection points: 2
#     Edge 24, Type (0, 0), BuildingBlock: OJICUG_clean_linker_0, # of connection points: 2
#     Edge 25, Type (0, 0), BuildingBlock: OJICUG_clean_linker_0, # of connection points: 2
#     Edge 26, Type (0, 0), BuildingBlock: OJICUG_clean_linker_0, # of connection points: 2
#     Edge 27, Type (0, 0), BuildingBlock: OJICUG_clean_linker_0, # of connection points: 2
#     Edge 28, Type (0, 0), BuildingBlock: OJICUG_clean_linker_0, # of connection points: 2
#     Edge 29, Type (0, 0), BuildingBlock: OJICUG_clean_linker_0, # of connection points: 2
#     Edge 30, Type (0, 0), BuildingBlock: OJICUG_clean_linker_0, # of connection points: 2
#     Edge 31, Type (0, 0), BuildingBlock: OJICUG_clean_linker_0, # of connection points: 2
#     Edge 32, Type (0, 0), BuildingBlock: OJICUG_clean_linker_0, # of connection points: 2
#     Edge 33, Type (0, 0), BuildingBlock: OJICUG_clean_linker_0, # of connection points: 2
#     Edge 34, Type (0, 0), BuildingBlock: OJICUG_clean_linker_0, # of connection points: 2
#     Edge 35, Type (0, 0), BuildingBlock: OJICUG_clean_linker_0, # of connection points: 2
#     Edge 36, Type (0, 0), BuildingBlock: OJICUG_clean_linker_0, # of connection points: 2
#     Edge 37, Type (0, 0), BuildingBlock: OJICUG_clean_linker_0, # of connection points: 2
#     Edge 38, Type (0, 0), BuildingBlock: OJICUG_clean_linker_0, # of connection points: 2
#     Edge 39, Type (0, 0), BuildingBlock: OJICUG_clean_linker_0, # of connection points: 2
#     Edge 40, Type (0, 0), BuildingBlock: OJICUG_clean_linker_0, # of connection points: 2
#     Edge 41, Type (0, 0), BuildingBlock: OJICUG_clean_linker_0, # of connection points: 2
# Relax obj value: 0.535
# Max RMSD: 0.262
# Mean RMSD: 0.262
data_MOF--net-wjk--node1-XOMCOT_clean_sbu_1--edge1-OJICUG_clean_linker_0
_symmetry_space_group_name_H-M    P1
_symmetry_Int_Tables_number       1
_symmetry_cell_setting            triclinic
loop_
_symmetry_equiv_pos_as_xyz
'x, y, z'
_cell_length_a     26.127317
_cell_length_b     25.940796
_cell_length_c     53.190987
_cell_angle_alpha  90.188297
_cell_angle_beta   89.828943
_cell_angle_gamma 119.79576
loop_
_atom_site_label
_atom_site_type_symbol
_atom_site_fract_x
_atom_site_fract_y
_atom_site_fract_z
_atom_type_partial_charge
C0 C 0.0672 0.19416 0.26803 0.0
C1 C 0.0223 0.13796 0.2735 0.0
N2 N 0.03432 0.09854 0.26235 0.0
N3 N 0.10801 0.19054 0.25372 0.0
C4 C 0.08649 0.13142 0.25039 0.0
H5 H 0.07028 0.23527 0.27433 0.0
Co6 Co 0.17818 0.25803 0.2435 0.0
C7 C 0.21082 0.21688 0.19645 0.0
O8 O 0.21625 0.26421 0.18516 0.0
N9 N 0.24994 0.32777 0.23345 0.0
C10 C 0.31562 0.40966 0.21321 0.0
C11 C 0.25759 0.36673 0.21485 0.0
C12 C 0.30511 0.34935 0.24296 0.0
N13 N 0.34535 0.39892 0.23094 0.0
O14 O 0.21741 0.24589 0.27144 0.0
H15 H 0.22405 0.36364 0.20215 0.0
H16 H 0.31631 0.32831 0.2578 0.0
O17 O 0.19615 0.20835 0.21983 0.0
C18 C 0.20858 0.27402 0.28928 0.0
O19 O 0.18532 0.30719 0.28353 0.0
N20 N 0.13464 0.273 0.2202 0.0
C21 C 0.04407 0.28877 0.20205 0.0
C22 C 0.05267 0.24296 0.19257 0.0
C23 C 0.09771 0.2349 0.20238 0.0
C24 C 0.12818 0.3192 0.22864 0.0
C25 C 0.0838 0.32854 0.21952 0.0
H26 H 0.09897 0.19509 0.19752 0.0
H27 H 0.15538 0.34673 0.24389 0.0
H28 H 0.10922 0.11272 0.24008 0.0
H29 H 0.98377 0.12678 0.2849 0.0
H30 H 0.3349 0.44542 0.19964 0.0
H31 H 0.02097 0.20982 0.17986 0.0
H32 H 0.07732 0.36318 0.22771 0.0
C33 C 0.93861 0.10244 0.63411 0.0
C34 C 0.95275 0.05807 0.63406 0.0
N35 N 0.97826 0.05914 0.61189 0.0
N36 N 0.95538 0.13221 0.61214 0.0
C37 C 0.97898 0.10426 0.59881 0.0
H38 H 0.91707 0.11202 0.64929 0.0
Co39 Co 0.94528 0.19771 0.60429 0.0
C40 C 0.03487 0.26076 0.5612 0.0
O41 O 0.01666 0.29849 0.55615 0.0
N42 N 0.93454 0.26265 0.59741 0.0
C43 C 0.89438 0.31844 0.58845 0.0
C44 C 0.88376 0.26129 0.59135 0.0
C45 C 0.97453 0.32103 0.59942 0.0
N46 N 0.9518 0.35611 0.59329 0.0
O47 O -0.00527 0.24064 0.63237 0.0
H48 H 0.84167 0.22127 0.58892 0.0
H49 H 0.02 0.33729 0.60466 0.0
O50 O 0.01249 0.22449 0.57974 0.0
C51 C 0.9591 0.23417 0.6503 0.0
O52 O 0.90219 0.20456 0.64558 0.0
N53 N 0.89094 0.15295 0.57945 0.0
C54 C 0.80498 0.07376 0.54676 0.0
C55 C 0.84894 0.12952 0.53824 0.0
C56 C 0.89195 0.1683 0.55488 0.0
C57 C 0.84401 0.10274 0.58866 0.0
C58 C 0.80116 0.06186 0.57262 0.0
H59 H 0.92514 0.21039 0.54785 0.0
H60 H 0.84103 0.09313 0.60853 0.0
H61 H -0.0026 0.11738 0.58014 0.0
H62 H 0.94476 0.02722 0.64922 0.0
H63 H 0.86258 0.33099 0.58239 0.0
H64 H 0.85195 0.14192 0.51865 0.0
H65 H 0.76804 0.01981 0.58035 0.0
C66 C 0.81335 0.90594 0.94459 0.0
C67 C 0.87024 0.91679 0.94253 0.0
N68 N 0.90591 0.975 0.93754 0.0
N69 N 0.8125 0.95681 0.94089 0.0
C70 C 0.86958 -0.00165 0.93691 0.0
H71 H 0.77447 0.86305 0.94744 0.0
Co72 Co 0.74206 0.9589 0.93868 0.0
C73 C 0.7771 0.05253 0.8984 0.0
O74 O 0.7292 0.01738 0.8856 0.0
N75 N 0.66978 0.9583 0.93791 0.0
C76 C 0.57486 0.92338 0.94676 0.0
C77 C 0.62212 0.91476 0.94969 0.0
C78 C 0.65088 0.99493 0.92917 0.0
N79 N 0.59278 0.97376 0.93366 0.0
O80 O 0.7566 -0.00294 0.97077 0.0
H81 H 0.62147 0.87809 0.95957 0.0
H82 H 0.67906 0.03719 0.92039 0.0
O83 O 0.78478 0.03651 0.92032 0.0
C84 C 0.73912 0.95847 0.98835 0.0
O85 O 0.72176 0.90302 0.98234 0.0
N86 N 0.72498 0.91586 0.90833 0.0
C87 C 0.70261 0.844 0.86627 0.0
C88 C 0.75503 0.8984 0.86818 0.0
C89 C 0.76616 0.93265 0.88965 0.0
C90 C 0.67421 0.86218 0.90696 0.0
C91 C 0.66193 0.82554 0.88597 0.0
H92 H 0.80882 0.97207 0.89145 0.0
H93 H 0.64439 0.84555 0.92267 0.0
H94 H 0.88382 0.04432 0.93283 0.0
H95 H 0.88351 0.88344 0.94342 0.0
H96 H 0.5304 0.89368 0.9532 0.0
H97 H 0.78916 0.91242 0.85396 0.0
H98 H 0.62255 0.78218 0.88563 0.0
C99 C 0.85096 0.7561 0.28772 0.0
C100 C 0.89454 0.81418 0.29096 0.0
N101 N 0.88978 0.84697 0.27253 0.0
N102 N 0.81795 0.75207 0.26757 0.0
C103 C 0.84317 0.80832 0.25851 0.0
H104 H 0.84395 0.71913 0.29939 0.0
Co105 Co 0.75297 0.68101 0.25628 0.0
C106 C 0.68974 0.72052 0.22063 0.0
O107 O 0.67237 0.67278 0.2067 0.0
N108 N 0.68756 0.60826 0.24541 0.0
C109 C 0.63169 0.51792 0.22912 0.0
C110 C 0.6882 0.56278 0.2331 0.0
C111 C 0.62938 0.58853 0.24935 0.0
N112 N 0.59477 0.53403 0.23936 0.0
O113 O 0.71331 0.67522 0.2869 0.0
H114 H 0.72661 0.56081 0.22727 0.0
H115 H 0.61268 0.61428 0.25873 0.0
O116 O 0.72003 0.7273 0.24057 0.0
C117 C 0.72029 0.64074 0.3018 0.0
O118 O 0.74706 0.61259 0.29335 0.0
N119 N 0.79585 0.68445 0.22802 0.0
C120 C 0.86364 0.67685 0.18964 0.0
C121 C 0.8379 0.71291 0.18716 0.0
C122 C 0.80527 0.71719 0.2068 0.0
C123 C 0.82447 0.65318 0.23159 0.0
C124 C 0.85747 0.6474 0.21236 0.0
H125 H 0.7905 0.74893 0.20506 0.0
H126 H 0.81978 0.63088 0.24931 0.0
H127 H 0.82724 0.82102 0.24224 0.0
H128 H 0.92757 0.83104 0.30564 0.0
H129 H 0.61856 0.47638 0.21946 0.0
H130 H 0.84567 0.74043 0.17072 0.0
H131 H 0.87878 0.62125 0.2154 0.0
C132 C 0.152 0.89232 0.58762 0.0
C133 C 0.1402 0.93713 0.59294 0.0
N134 N 0.0841 0.91898 0.5864 0.0
N135 N 0.10363 0.84562 0.57774 0.0
C136 C 0.06256 0.86315 0.57726 0.0
H137 H 0.19261 0.89272 0.59187 0.0
Co138 Co 0.10125 0.77315 0.5716 0.0
C139 C 0.01151 0.70953 0.53155 0.0
O140 O 0.04062 0.68308 0.52409 0.0
N141 N 0.10067 0.70022 0.56655 0.0
C142 C 0.12422 0.63121 0.55628 0.0
C143 C 0.13977 0.68981 0.55396 0.0
C144 C 0.06159 0.64647 0.57626 0.0
N145 N 0.07517 0.60391 0.57044 0.0
O146 O 0.05299 0.74135 0.60032 0.0
H147 H 0.17717 0.72184 0.54329 0.0
H148 H 0.02414 0.63868 0.58768 0.0
O149 O 0.03106 0.74654 0.54992 0.0
C150 C 0.0841 0.75034 0.61998 0.0
O151 O 0.14174 0.77657 0.61761 0.0
N152 N 0.15374 0.80892 0.54519 0.0
C153 C 0.24566 0.89837 0.51824 0.0
C154 C 0.18773 0.87133 0.50899 0.0
C155 C 0.14195 0.82728 0.52306 0.0
C156 C 0.21041 0.83078 0.55313 0.0
C157 C 0.2573 0.87537 0.53981 0.0
H158 H 0.09743 0.81341 0.51739 0.0
H159 H 0.21864 0.81718 0.57117 0.0
H160 H 0.01706 0.83454 0.57182 0.0
H161 H 0.16978 0.97904 0.60195 0.0
H162 H 0.14702 0.61027 0.54781 0.0
H163 H 0.17683 0.8892 0.49278 0.0
H164 H 0.30131 0.89584 0.54768 0.0
C165 C 0.24416 0.14848 0.90407 0.0
C166 C 0.19009 0.1419 0.91035 0.0
N167 N 0.15059 0.08341 0.91127 0.0
N168 N 0.23868 0.0944 0.90059 0.0
C169 C 0.18123 0.05561 0.90536 0.0
H170 H 0.28505 0.1901 0.9024 0.0
Co171 Co 0.29976 0.07886 0.89262 0.0
C172 C 0.243 0.99063 0.85019 0.0
O173 O 0.28788 0.02289 0.83542 0.0
N174 N 0.36273 0.0639 0.88512 0.0
C175 C 0.44002 0.06405 0.86707 0.0
C176 C 0.39493 0.07591 0.86373 0.0
C177 C 0.39029 0.0453 0.90123 0.0
N178 N 0.43747 0.04514 0.89078 0.0
O179 O 0.28174 0.03314 0.9226 0.0
H180 H 0.38848 0.09496 0.84686 0.0
H181 H 0.37769 0.03434 0.92066 0.0
O182 O 0.24298 0.00762 0.87288 0.0
C183 C 0.30433 0.06892 0.94115 0.0
O184 O 0.33723 0.12596 0.93645 0.0
N185 N 0.3203 0.1308 0.86563 0.0
C186 C 0.34155 0.23626 0.8438 0.0
C187 C 0.29225 0.18229 0.8366 0.0
C188 C 0.28158 0.12983 0.84824 0.0
C189 C 0.3719 0.18184 0.87046 0.0
C190 C 0.38369 0.2353 0.85957 0.0
H191 H 0.23875 0.09085 0.8459 0.0
H192 H 0.40054 0.18252 0.88526 0.0
H193 H 0.16229 0.00786 0.9046 0.0
H194 H 0.18092 0.17735 0.9146 0.0
H195 H 0.4726 0.06986 0.85308 0.0
H196 H 0.25783 0.18171 0.82507 0.0
H197 H 0.42145 0.27628 0.8659 0.0
C198 C 0.77604 0.80747 0.41138 0.0
C199 C 0.82576 0.85922 0.40443 0.0
N200 N 0.86793 0.8708 0.42151 0.0
N201 N 0.78742 0.78594 0.43245 0.0
C202 C 0.84378 0.82609 0.43824 0.0
H203 H 0.73421 0.78765 0.40174 0.0
Co204 Co 0.73591 0.71771 0.45045 0.0
C205 C 0.8158 0.67655 0.46891 0.0
O206 O 0.78259 0.62503 0.45792 0.0
N207 N 0.68494 0.65055 0.46895 0.0
C208 C 0.6365 0.5915 0.50117 0.0
C209 C 0.68574 0.64356 0.49413 0.0
C210 C 0.63581 0.60167 0.4611 0.0
N211 N 0.60586 0.56543 0.48024 0.0
O212 O 0.73639 0.67046 0.42304 0.0
H213 H 0.71873 0.67545 0.50674 0.0
H214 H 0.61981 0.59374 0.44202 0.0
O215 O 0.80259 0.71751 0.46683 0.0
C216 C 0.69643 0.66547 0.40782 0.0
O217 O 0.66032 0.68409 0.41526 0.0
N218 N 0.73072 0.76506 0.47478 0.0
C219 C 0.72605 0.85737 0.49805 0.0
C220 C 0.77035 0.84428 0.50439 0.0
C221 C 0.77209 0.7976 0.49239 0.0
C222 C 0.6843 0.77376 0.47019 0.0
C223 C 0.68101 0.82023 0.48173 0.0
H224 H 0.80879 0.7908 0.49597 0.0
H225 H 0.6524 0.74748 0.45595 0.0
H226 H 0.86707 0.82291 0.4544 0.0
H227 H 0.83027 0.88685 0.38842 0.0
H228 H 0.62321 0.57501 0.52012 0.0
H229 H 0.80571 0.87269 0.51706 0.0
H230 H 0.64659 0.82983 0.47646 0.0
C231 C 0.97718 0.84883 0.72193 0.0
C232 C -0.00802 0.90767 0.72081 0.0
N233 N -0.00075 0.92893 0.74446 0.0
N234 N 0.97591 0.83323 0.74619 0.0
C235 C 0.98931 0.88296 0.75945 0.0
H236 H 0.96696 0.81921 0.70606 0.0
Co237 Co 0.95501 0.75825 0.75898 0.0
C238 C 0.03873 0.7903 0.80438 0.0
O239 O 0.00999 0.73906 0.81603 0.0
N240 N 0.93272 0.68229 0.77159 0.0
C241 C 0.87636 0.58971 0.78521 0.0
C242 C 0.87718 0.64077 0.77804 0.0
C243 C 0.96453 0.65438 0.77416 0.0
N244 N 0.93119 0.59827 0.78269 0.0
O245 O 0.00696 0.75208 0.7358 0.0
H246 H 0.83899 0.64644 0.77727 0.0
H247 H 0.01126 0.67498 0.77018 0.0
O248 O 0.01944 0.79841 0.78353 0.0
C249 C 0.97709 0.71994 0.71729 0.0
O250 O 0.91925 0.69382 0.71847 0.0
N251 N 0.89955 0.76223 0.7792 0.0
C252 C 0.80087 0.75504 0.80206 0.0
C253 C 0.84901 0.76256 0.81653 0.0
C254 C 0.89825 0.76614 0.8047 0.0
C255 C 0.85312 0.75472 0.76489 0.0
C256 C 0.80325 0.75121 0.77593 0.0
H257 H 0.93438 0.77154 0.8161 0.0
H258 H 0.85473 0.75053 0.7447 0.0
H259 H -0.00842 0.88532 0.77977 0.0
H260 H -0.00428 0.93249 0.70392 0.0
H261 H 0.83824 0.54898 0.79144 0.0
H262 H 0.84933 0.76736 0.83678 0.0
H263 H 0.76712 0.74591 0.7642 0.0
C264 C 0.11412 0.00086 0.05199 0.0
C265 C 0.0685 0.01299 0.05318 0.0
N266 N 0.05329 0.01189 0.07747 0.0
N267 N 0.12827 0.99285 0.07547 0.0
C268 C 0.09031 -0.00013 0.09057 0.0
H269 H 0.13428 -0.00342 0.03495 0.0
Co270 Co 0.18265 0.96933 0.08525 0.0
C271 C 0.23614 0.04634 0.13322 0.0
O272 O 0.25982 0.01607 0.14239 0.0
N273 N 0.23607 0.94361 0.09471 0.0
C274 C 0.2674 0.87932 0.10175 0.0
C275 C 0.22023 0.88541 0.09516 0.0
C276 C 0.29456 0.97229 0.10003 0.0
N277 N 0.31407 0.93379 0.10486 0.0
O278 O 0.23854 0.0225 0.06131 0.0
H279 H 0.17713 0.84898 0.09063 0.0
H280 H 0.32189 0.02015 0.10088 0.0
O281 O 0.20894 0.03115 0.11208 0.0
C282 C 0.23255 0.98829 0.04277 0.0
O283 O 0.19561 0.9311 0.04531 0.0
N284 N 0.12546 0.91144 0.10525 0.0
C285 C 0.04507 0.80379 0.12651 0.0
C286 C 0.08328 0.85215 0.14173 0.0
C287 C 0.12365 0.90564 0.13069 0.0
C288 C 0.08665 0.86617 0.09028 0.0
C289 C 0.04667 0.81154 0.10047 0.0
H290 H 0.15353 0.94106 0.14268 0.0
H291 H 0.08947 0.87152 0.07009 0.0
H292 H 0.08939 0.99551 0.11082 0.0
H293 H 0.04693 0.02014 0.03732 0.0
H294 H 0.26757 0.83795 0.10411 0.0
H295 H 0.08181 0.8491 0.16204 0.0
H296 H 0.01796 0.77569 0.08801 0.0
C297 C 0.20022 0.11275 0.41683 0.0
C298 C 0.15005 0.05989 0.4117 0.0
N299 N 0.10473 0.06 0.42371 0.0
N300 N 0.1863 0.14604 0.43181 0.0
C301 C 0.12772 0.11256 0.43583 0.0
H302 H 0.24397 0.12664 0.4097 0.0
Co303 Co 0.23931 0.22331 0.44103 0.0
C304 C 0.19299 0.2466 0.4882 0.0
O305 O 0.24677 0.2684 0.49702 0.0
N306 N 0.29278 0.3022 0.44957 0.0
C307 C 0.32693 0.39781 0.45834 0.0
C308 C 0.27861 0.34573 0.45074 0.0
C309 C 0.35045 0.32947 0.45573 0.0
N310 N 0.37179 0.38709 0.46138 0.0
O311 O 0.21317 0.2505 0.41291 0.0
H312 H 0.23543 0.33968 0.44664 0.0
H313 H 0.37696 0.30832 0.45637 0.0
O314 O 0.18135 0.22601 0.46554 0.0
C315 C 0.2474 0.2526 0.39511 0.0
O316 O 0.29183 0.24461 0.40088 0.0
N317 N 0.26942 0.19317 0.46503 0.0
C318 C 0.30922 0.12292 0.48739 0.0
C319 C 0.25873 0.12275 0.49651 0.0
C320 C 0.23828 0.15656 0.48446 0.0
C321 C 0.3189 0.19394 0.4562 0.0
C322 C 0.3401 0.15977 0.46729 0.0
H323 H 0.19485 0.14862 0.4893 0.0
H324 H 0.33925 0.21727 0.439 0.0
H325 H 0.10199 0.12701 0.44665 0.0
H326 H 0.14697 0.02416 0.40004 0.0
H327 H 0.32937 0.44039 0.46092 0.0
H328 H 0.23174 0.09188 0.51103 0.0
H329 H 0.37749 0.15864 0.45904 0.0
C330 C 0.12283 0.2624 0.78003 0.0
C331 C 0.122 0.21225 0.77125 0.0
N332 N 0.06773 0.16561 0.77513 0.0
N333 N 0.06941 0.24777 0.78954 0.0
C334 C 0.03656 0.18821 0.78637 0.0
H335 H 0.1597 0.30717 0.7789 0.0
Co336 Co 0.051 0.30535 0.80035 0.0
C337 C 0.97463 0.24684 0.84596 0.0
O338 O 0.01087 0.29238 0.85973 0.0
N339 N 0.03392 0.36581 0.81065 0.0
C340 C 0.03218 0.4392 0.83204 0.0
C341 C 0.05016 0.39788 0.83228 0.0
C342 C 0.00745 0.39051 0.79726 0.0
N343 N 0.00571 0.4347 0.80999 0.0
O344 O -0.00052 0.28521 0.77191 0.0
H345 H 0.07581 0.3939 0.84722 0.0
H346 H 0.99019 0.37715 0.77846 0.0
O347 O 0.98535 0.24579 0.82237 0.0
C348 C 0.03225 0.31184 0.75292 0.0
O349 O 0.08765 0.35177 0.7571 0.0
N350 N 0.10842 0.32776 0.82504 0.0
C351 C 0.21822 0.3524 0.84208 0.0
C352 C 0.1672 0.30135 0.85031 0.0
C353 C 0.11255 0.28886 0.84095 0.0
C354 C 0.15706 0.3806 0.81908 0.0
C355 C 0.21275 0.39386 0.82739 0.0
H356 H 0.07546 0.24487 0.84382 0.0
H357 H 0.15361 0.40918 0.80524 0.0
H358 H 0.9902 0.16246 0.79109 0.0
H359 H 0.15832 0.21031 0.76235 0.0
H360 H 0.04001 0.47175 0.84652 0.0
H361 H 0.17028 0.26734 0.86089 0.0
H362 H 0.25146 0.43269 0.82014 0.0
C363 C 0.82418 0.09981 0.12514 0.0
C364 C 0.87631 0.10591 0.11647 0.0
N365 N 0.8717 0.0519 0.11607 0.0
N366 N 0.78649 0.04222 0.13042 0.0
C367 C 0.81678 0.01382 0.12473 0.0
H368 H 0.81349 0.13497 0.12654 0.0
Co369 Co 0.70758 0.01611 0.13881 0.0
C370 C 0.68657 0.92671 0.18005 0.0
O371 O 0.67298 0.95648 0.19605 0.0
N372 N 0.62758 0.99242 0.14656 0.0
C373 C 0.54791 0.98296 0.16639 0.0
C374 C 0.60531 -0.00332 0.16904 0.0
C375 C 0.58236 0.97789 0.13033 0.0
N376 N 0.53363 0.97163 0.14205 0.0
O377 O 0.68533 0.97182 0.10813 0.0
H378 H 0.62998 0.01418 0.18615 0.0
H379 H 0.58533 0.97385 0.11022 0.0
O380 O 0.70136 0.94567 0.15738 0.0
C381 C 0.69486 0.00762 0.08995 0.0
O382 O 0.70602 0.06173 0.09535 0.0
N383 N 0.73358 0.06611 0.16662 0.0
C384 C 0.80851 0.17104 0.19106 0.0
C385 C 0.80999 0.11897 0.19656 0.0
C386 C 0.77352 0.06727 0.18338 0.0
C387 C 0.72668 0.11451 0.16346 0.0
C388 C 0.76427 0.16801 0.17543 0.0
H389 H 0.78311 0.03136 0.18418 0.0
H390 H 0.69725 0.11389 0.14905 0.0
H391 H 0.79793 0.96608 0.12552 0.0
H392 H 0.91428 0.14679 0.11028 0.0
H393 H 0.51996 0.98512 0.18095 0.0
H394 H 0.84527 0.12051 0.2078 0.0
H395 H 0.76333 0.20788 0.17025 0.0
C396 C 0.49591 0.49129 0.2589 0.0
C397 C 0.53163 0.50084 0.23766 0.0
H398 H 0.40715 0.44877 0.27348 0.0
C399 C 0.50516 0.475 0.21463 0.0
H400 H 0.5157 0.51048 0.27687 0.0
C401 C 0.44408 0.44087 0.21268 0.0
C402 C 0.40821 0.43073 0.23383 0.0
H403 H 0.53194 0.48191 0.19805 0.0
H404 H 0.42456 0.42217 0.19461 0.0
C405 C 0.43438 0.45568 0.25706 0.0
C406 C 0.07437 0.50981 0.57863 0.0
C407 C 0.04442 0.54223 0.57778 0.0
H408 H 0.06882 0.42582 0.58394 0.0
C409 C 0.98394 0.51301 0.58363 0.0
H410 H 0.12113 0.531 0.57471 0.0
C411 C 0.95388 0.4524 0.58944 0.0
C412 C 0.98356 0.41961 0.5895 0.0
H413 H 0.95941 0.53648 0.58309 0.0
H414 H 0.90723 0.43118 0.59361 0.0
C415 C 0.04438 0.44938 0.58435 0.0
C416 C 0.46169 0.99456 0.92427 0.0
C417 C 0.4781 0.03022 0.90262 0.0
H418 H 0.48565 0.9502 0.95154 0.0
C419 C 0.53471 0.05032 0.89246 0.0
H420 H 0.41858 0.97803 0.93264 0.0
C421 C 0.57294 0.03338 0.90307 0.0
C422 C 0.55583 -0.00378 0.92424 0.0
H423 H 0.54966 0.07888 0.87615 0.0
H424 H 0.61517 0.04807 0.89411 0.0
C425 C 0.50013 0.97801 0.935 0.0
C426 C 0.50147 0.51432 0.49212 0.0
C427 C 0.54786 0.51554 0.47833 0.0
H428 H 0.40766 0.47206 0.49698 0.0
C429 C 0.53593 0.47209 0.46004 0.0
H430 H 0.51017 0.5483 0.50602 0.0
C431 C 0.47802 0.42859 0.45508 0.0
C432 C 0.4313 0.42898 0.46796 0.0
H433 H 0.57147 0.4731 0.44912 0.0
H434 H 0.4695 0.39624 0.44043 0.0
C435 C 0.4433 0.47155 0.48676 0.0
C436 C 0.92869 0.52293 0.81118 0.0
C437 C 0.94958 0.55623 0.78901 0.0
H438 H 0.93089 0.45792 0.83521 0.0
C439 C 0.98717 0.54688 0.77307 0.0
H440 H 0.89984 0.52965 0.82375 0.0
C441 C 0.00354 0.50462 0.77931 0.0
C442 C 0.98366 0.47255 0.80183 0.0
H443 H 0.00329 0.57186 0.75579 0.0
H444 H 0.03317 0.49831 0.76706 0.0
C445 C 0.94619 0.48203 0.81768 0.0
C446 C 0.37233 0.91334 0.13493 0.0
C447 C 0.37033 0.94563 0.11422 0.0
H448 H 0.42637 0.89637 0.15983 0.0
C449 C 0.42303 0.98566 0.10205 0.0
H450 H 0.33213 0.88222 0.14454 0.0
C451 C 0.47703 0.99266 0.11046 0.0
C452 C 0.47869 0.9606 0.13141 0.0
H453 H 0.42214 0.01044 0.08588 0.0
H454 H 0.5175 0.02403 0.1011 0.0
C455 C 0.42593 0.92114 0.14357 0.0
C456 C 0.2644 0.24118 0.34957 0.0
C457 C 0.23626 0.25757 0.36812 0.0
H458 H 0.27744 0.23264 0.31018 0.0
C459 C 0.19837 0.27805 0.36043 0.0
H460 H 0.29356 0.22457 0.35484 0.0
C461 C 0.18984 0.28323 0.33479 0.0
C462 C 0.21824 0.26715 0.31624 0.0
H463 H 0.17595 0.29076 0.37417 0.0
H464 H 0.1605 0.29962 0.32951 0.0
C465 C 0.25513 0.24546 0.32392 0.0
C466 C 0.03759 0.2957 0.68203 0.0
C467 C 0.97854 0.25546 0.67636 0.0
H468 H 0.10047 0.34576 0.71056 0.0
C469 C 0.93672 0.23497 0.69606 0.0
H470 H 0.07074 0.3124 0.66735 0.0
C471 C 0.95359 0.25365 0.72088 0.0
C472 C 0.01262 0.29386 0.72658 0.0
H473 H 0.8907 0.20368 0.6924 0.0
H474 H 0.92048 0.23633 0.73558 0.0
C475 C 0.05436 0.31496 0.70684 0.0
C476 C 0.70081 0.93957 0.05781 0.0
C477 C 0.70376 0.99366 0.0638 0.0
H478 H 0.71065 0.88659 0.02942 0.0
C479 C 0.72011 0.03697 0.04485 0.0
H480 H 0.68907 0.9056 0.07198 0.0
C481 C 0.73328 0.0265 0.0205 0.0
C482 C 0.73013 0.97234 0.01449 0.0
H483 H 0.72326 0.07943 0.04883 0.0
H484 H 0.74509 0.06049 1.00633 0.0
C485 C 0.71373 0.929 0.03343 0.0
C486 C 0.66428 0.66421 0.36371 0.0
C487 C 0.69693 0.65106 0.38101 0.0
H488 H 0.64649 0.6718 0.32503 0.0
C489 C 0.73333 0.62962 0.37204 0.0
H490 H 0.63574 0.68088 0.36999 0.0
C491 C 0.73862 0.62358 0.34619 0.0
C492 C 0.70844 0.63993 0.32892 0.0
H493 H 0.75891 0.61915 0.38491 0.0
H494 H 0.76842 0.60859 0.33974 0.0
C495 C 0.67045 0.65927 0.33791 0.0
C496 C -0.00417 0.70248 0.64801 0.0
C497 C 0.05716 0.73663 0.6452 0.0
H498 H 0.92258 0.66924 0.67316 0.0
C499 C 0.09261 0.76035 0.66671 0.0
H500 H 0.96751 0.68316 0.63181 0.0
C501 C 0.06692 0.7528 0.69047 0.0
C502 C 0.00539 0.72089 0.69312 0.0
H503 H 0.14015 0.78674 0.66513 0.0
H504 H 0.09512 0.7736 0.70657 0.0
C505 C 0.97022 0.69438 0.67176 0.0
C506 C 0.26212 0.98803 0.97323 0.0
C507 C 0.29118 0.04864 0.96751 0.0
H508 H 0.22242 0.92183 1.00156 0.0
C509 C 0.30561 0.09017 0.9872 0.0
H510 H 0.25091 0.95508 0.95856 0.0
C511 C 0.28884 0.07122 1.012 0.0
C512 C 0.25779 0.01042 0.01754 0.0
H513 H 0.32822 0.13739 0.98337 0.0
H514 H 0.29853 0.10398 0.02661 0.0
C515 C 0.24595 0.96917 0.99797 0.0
C516 C 0.97806 0.00914 0.28827 0.0
C517 C -0.00033 0.03484 0.26463 0.0
H518 H 0.92659 0.92915 0.30925 0.0
C519 C 0.98434 -0.00228 0.24338 0.0
H520 H 0.98927 0.03684 0.3049 0.0
C521 C 0.94706 0.936 0.24578 0.0
C522 C 0.92601 0.91042 0.26955 0.0
H523 H 0.0001 0.01667 0.22495 0.0
H524 H 0.93544 0.90812 0.22919 0.0
C525 C 0.94232 0.94767 0.29075 0.0
C526 C 0.0296 0.00461 0.62358 0.0
C527 C 0.00319 0.02221 0.60504 0.0
H528 H 0.07576 0.9578 0.632 0.0
C529 C 0.00123 0.00258 0.58015 0.0
H530 H 0.0324 0.01935 0.64284 0.0
C531 C 0.02533 0.96612 0.57405 0.0
C532 C 0.05276 0.94991 0.59265 0.0
H533 H 0.98082 0.01513 0.56553 0.0
H534 H 0.02426 0.95212 0.55476 0.0
C535 C 0.05445 0.96942 0.61742 0.0
C536 C 0.05634 0.08446 0.91216 0.0
C537 C 0.08915 0.0566 0.91814 0.0
H538 H 0.97263 0.0804 0.91314 0.0
C539 C 0.06125 0.00258 0.93123 0.0
H540 H 0.07659 0.12595 0.90191 0.0
C541 C 0.00185 0.97679 0.93809 0.0
C542 C 0.96834 0.00385 0.93171 0.0
H543 H 0.08566 0.98066 0.93653 0.0
H544 H 0.98247 0.93562 0.9485 0.0
C545 C -0.00337 0.05831 0.91873 0.0
C546 C 0.96016 0.93895 0.39968 0.0
C547 C 0.92684 0.9203 0.42189 0.0
H548 H 0.04402 -0.00184 0.38303 0.0
C549 C 0.95221 0.9495 0.4446 0.0
H550 H 0.94138 0.91677 0.38202 0.0
C551 C 0.01026 -0.00343 0.4451 0.0
C552 C 0.04413 0.014 0.42301 0.0
H553 H 0.92695 0.93592 0.46189 0.0
H554 H 0.0293 0.01834 0.4628 0.0
C555 C 0.01864 0.98498 0.40029 0.0
C556 C -0.0067 -0.00113 0.77468 0.0
C557 C 0.01468 0.98836 0.75203 0.0
H558 H -0.00724 0.06408 0.79962 0.0
C559 C 0.05178 0.03695 0.73682 0.0
H560 H 0.96409 0.96219 0.78664 0.0
C561 C 0.0683 0.09477 0.74431 0.0
C562 C 0.04753 0.10548 0.76702 0.0
H563 H 0.06915 0.03034 0.71936 0.0
H564 H 0.09746 0.13133 0.73228 0.0
C565 C 0.00915 0.05694 0.782 0.0
C566 C 0.92799 -0.0018 0.11764 0.0
C567 C 0.91505 0.03871 0.10583 0.0
H568 H 0.98321 0.95848 0.11803 0.0
C569 C 0.94741 0.06905 0.08437 0.0
H570 H 0.90383 0.97453 0.13427 0.0
C571 C -0.00782 0.05976 0.07505 0.0
C572 C 0.00637 0.02048 0.08713 0.0
H573 H 0.93802 0.10015 0.07478 0.0
H574 H 0.0166 0.08432 0.05863 0.0
C575 C 0.97371 0.98959 0.10852 0.0
C576 C 0.88925 0.24334 0.21798 0.0
C577 C 0.86397 0.22711 0.19405 0.0
H578 H 0.96883 0.27798 0.23915 0.0
C579 C 0.90012 0.24895 0.17263 0.0
H580 H 0.86201 0.22639 0.23465 0.0
C581 C 0.96118 0.27659 0.1751 0.0
C582 C 0.98615 0.28435 0.19903 0.0
H583 H 0.88131 0.23642 0.15396 0.0
H584 H 0.98817 0.28574 0.15839 0.0
C585 C 0.95036 0.27242 0.22046 0.0
C586 C 0.71768 0.97504 0.53551 0.0
C587 C 0.77234 0.0244 0.52882 0.0
H588 H 0.65981 0.88116 0.53084 0.0
C589 C 0.8025 0.02018 0.50767 0.0
H590 H 0.69237 0.97743 0.55117 0.0
C591 C 0.78326 0.96585 0.49597 0.0
C592 C 0.73378 0.91511 0.50521 0.0
H593 H 0.8446 0.05679 0.50179 0.0
H594 H 0.81015 0.96237 0.48123 0.0
C595 C 0.69874 0.92018 0.52387 0.0
C596 C 0.73854 0.80198 0.80548 0.0
C597 C 0.75256 0.75947 0.81419 0.0
H598 H 0.70831 0.862 0.81588 0.0
C599 C 0.73007 0.73154 0.83737 0.0
H600 H 0.75504 0.82385 0.78757 0.0
C601 C 0.70282 0.75308 0.85345 0.0
C602 C 0.69868 0.80293 0.84641 0.0
H603 H 0.73936 0.6977 0.84416 0.0
H604 H 0.69294 0.73634 0.87252 0.0
C605 C 0.71155 0.82366 0.8216 0.0
C606 C 0.94119 0.72138 0.12911 0.0
C607 C -0.00074 0.7485 0.13824 0.0
H608 H 0.84997 0.67222 0.13879 0.0
C609 C 0.01015 0.7304 0.16152 0.0
H610 H 0.93107 0.73301 0.111 0.0
C611 C 0.9634 0.69695 0.17772 0.0
C612 C 0.90579 0.68067 0.17036 0.0
H613 H 0.05475 0.7482 0.16844 0.0
H614 H 0.97336 0.69156 0.19696 0.0
C615 C 0.89449 0.68657 0.14508 0.0
C616 C 0.29423 0.97335 0.48439 0.0
C617 C 0.28751 0.9593 0.51005 0.0
H618 H 0.3086 0.03914 0.45692 0.0
C619 C 0.30601 0.00521 0.52792 0.0
H620 H 0.28031 0.9386 0.47034 0.0
C621 C 0.32132 0.0624 0.5203 0.0
C622 C 0.31936 0.07423 0.49478 0.0
H623 H 0.30098 0.99551 0.54787 0.0
H624 H 0.32813 0.09542 0.53442 0.0
C625 C 0.3105 0.03085 0.47676 0.0
C626 C 0.3284 0.3137 0.86468 0.0
C627 C 0.33699 0.29043 0.84214 0.0
H628 H 0.28243 0.35313 0.88241 0.0
C629 C 0.32229 0.30615 0.81923 0.0
H630 H 0.33904 0.30177 0.88264 0.0
C631 C 0.29122 0.33696 0.81915 0.0
C632 C 0.27357 0.35082 0.84199 0.0
H633 H 0.32833 0.28841 0.8017 0.0
H634 H 0.27379 0.34211 0.80145 0.0
C635 C 0.29601 0.34312 0.86464 0.0
C636 C 0.23124 0.13137 0.19134 0.0
C637 C 0.21689 0.17219 0.18084 0.0
H638 H 0.25006 0.06075 0.18456 0.0
C639 C 0.20957 0.17147 0.15454 0.0
H640 H 0.23731 0.13073 0.21144 0.0
C641 C 0.21606 0.13107 0.13918 0.0
C642 C 0.23132 0.09082 0.14953 0.0
H643 H 0.19811 0.20195 0.14572 0.0
H644 H 0.20933 0.13156 0.11911 0.0
C645 C 0.23899 0.0916 0.17584 0.0
C646 C 0.11021 0.23113 0.54903 0.0
C647 C 0.07285 0.25319 0.54226 0.0
H648 H 0.17769 0.21217 0.53708 0.0
C649 C 0.0715 0.26792 0.51681 0.0
H650 H 0.11196 0.21889 0.56833 0.0
C651 C 0.10767 0.2622 0.49873 0.0
C652 C 0.14707 0.24299 0.5058 0.0
H653 H 0.04249 0.28417 0.51084 0.0
H654 H 0.10678 0.27538 0.4795 0.0
C655 C 0.14757 0.22704 0.53108 0.0
C656 C 0.92454 0.19123 0.88533 0.0
C657 C 0.92389 0.19626 0.85892 0.0
H658 H 0.87943 0.14257 0.91844 0.0
C659 C 0.87408 0.1541 0.84573 0.0
H660 H 0.96231 0.22268 0.89618 0.0
C661 C 0.8259 0.1086 0.85868 0.0
C662 C 0.82672 0.10354 0.88511 0.0
H663 H 0.87198 0.15667 0.82547 0.0
H664 H 0.78832 0.07674 0.84786 0.0
C665 C 0.8769 0.14531 0.89821 0.0
C666 C 0.67884 0.77627 0.18413 0.0
C667 C 0.68703 0.77223 0.21012 0.0
H668 H 0.67373 0.82879 0.15398 0.0
C669 C 0.6965 0.8199 0.22568 0.0
H670 H 0.6723 0.74066 0.17151 0.0
C671 C 0.69677 0.86981 0.21567 0.0
C672 C 0.68873 0.87409 0.18971 0.0
H673 H 0.70356 0.81861 0.24568 0.0
H674 H 0.70376 0.90547 0.22836 0.0
C675 C 0.68028 0.82696 0.17399 0.0
C676 C 0.89678 0.73691 0.50004 0.0
C677 C 0.86597 0.68552 0.4851 0.0
H678 H 0.96605 0.7844 0.52686 0.0
C679 C 0.88276 0.64183 0.4862 0.0
H680 H 0.88556 0.77175 0.49959 0.0
C681 C 0.92937 0.64952 0.50159 0.0
C682 C 0.95993 0.70067 0.51658 0.0
H683 H 0.86016 0.60169 0.47503 0.0
H684 H 0.94148 0.61518 0.50175 0.0
C685 C 0.94286 0.74414 0.5158 0.0
C686 C 0.1491 0.89132 0.85385 0.0
C687 C 0.19008 0.93892 0.83908 0.0
H688 H 0.06975 0.80624 0.85443 0.0
C689 C 0.18062 0.93699 0.81296 0.0
H690 H 0.1551 0.89149 0.87399 0.0
C691 C 0.1315 0.88904 0.80185 0.0
C692 C 0.09101 0.84088 0.81645 0.0
H693 H 0.21096 0.9731 0.80099 0.0
H694 H 0.12556 0.88948 0.78171 0.0
C695 C 0.10044 0.84242 0.84259 0.0
loop_
_geom_bond_atom_site_label_1
_geom_bond_atom_site_label_2
_geom_bond_distance
_geom_bond_site_symmetry_2
_ccdc_geom_bond_type
C0 C1 1.351 . S
C0 N3 1.368 . S
C0 H5 0.931 . S
C1 C0 1.351 . S
C1 N2 1.373 . S
C1 H29 0.930 . S
N2 C1 1.373 . S
N2 C4 1.340 . S
N3 C0 1.368 . S
N3 C4 1.321 . S
N3 Co6 2.135 . S
C4 N2 1.340 . S
C4 N3 1.321 . S
C4 H28 0.930 . S
H5 C0 0.931 . S
Co6 N3 2.135 . S
Co6 N9 2.121 . S
Co6 O14 2.055 . S
Co6 O17 2.039 . S
Co6 N20 2.140 . S
C7 O8 1.227 . S
C7 O17 1.265 . S
O8 C7 1.227 . S
N9 Co6 2.121 . S
N9 C11 1.375 . S
N9 C12 1.313 . S
C10 C11 1.338 . S
C10 N13 1.377 . S
C10 H30 0.930 . S
C11 N9 1.375 . S
C11 C10 1.338 . S
C11 H15 0.931 . S
C12 N9 1.313 . S
C12 N13 1.344 . S
C12 H16 0.930 . S
N13 C10 1.377 . S
N13 C12 1.344 . S
O14 Co6 2.055 . S
O14 C18 1.253 . S
H15 C11 0.931 . S
H16 C12 0.930 . S
O17 Co6 2.039 . S
O17 C7 1.265 . S
C18 O14 1.253 . S
C18 O19 1.227 . S
O19 C18 1.227 . S
N20 Co6 2.140 . S
N20 C23 1.346 . S
N20 C24 1.345 . S
C21 C22 1.387 . S
C21 C25 1.391 . S
C22 C21 1.387 . S
C22 C23 1.369 . S
C22 H31 0.929 . S
C23 N20 1.346 . S
C23 C22 1.369 . S
C23 H26 0.928 . S
C24 N20 1.345 . S
C24 C25 1.371 . S
C24 H27 0.931 . S
C25 C21 1.391 . S
C25 C24 1.371 . S
C25 H32 0.930 . S
H26 C23 0.928 . S
H27 C24 0.931 . S
H28 C4 0.930 . S
H29 C1 0.930 . S
H30 C10 0.930 . S
H31 C22 0.929 . S
H32 C25 0.930 . S
C33 C34 1.351 . S
C33 N36 1.368 . S
C33 H38 0.931 . S
C34 C33 1.351 . S
C34 N35 1.373 . S
C34 H62 0.930 . S
N35 C34 1.373 . S
N35 C37 1.340 . S
N36 C33 1.368 . S
N36 C37 1.321 . S
N36 Co39 2.135 . S
C37 N35 1.340 . S
C37 N36 1.321 . S
C37 H61 0.930 1_655 S
H38 C33 0.931 . S
Co39 N36 2.135 . S
Co39 N42 2.121 . S
Co39 O47 2.055 . S
Co39 O50 2.039 1_655 S
Co39 N53 2.140 . S
C40 O41 1.227 1_455 S
C40 O50 1.265 . S
O41 C40 1.227 1_655 S
N42 Co39 2.121 . S
N42 C44 1.375 . S
N42 C45 1.313 . S
C43 C44 1.338 . S
C43 N46 1.377 . S
C43 H63 0.930 . S
C44 N42 1.375 . S
C44 C43 1.338 . S
C44 H48 0.931 . S
C45 N42 1.313 . S
C45 N46 1.344 . S
C45 H49 0.930 . S
N46 C43 1.377 . S
N46 C45 1.344 . S
O47 Co39 2.055 . S
O47 C51 1.253 . S
H48 C44 0.931 . S
H49 C45 0.930 . S
O50 Co39 2.039 1_455 S
O50 C40 1.265 . S
C51 O47 1.253 . S
C51 O52 1.227 . S
O52 C51 1.227 . S
N53 Co39 2.140 . S
N53 C56 1.346 . S
N53 C57 1.345 . S
C54 C55 1.387 . S
C54 C58 1.391 . S
C55 C54 1.387 . S
C55 C56 1.369 . S
C55 H64 0.929 . S
C56 N53 1.346 . S
C56 C55 1.369 . S
C56 H59 0.928 . S
C57 N53 1.345 . S
C57 C58 1.371 . S
C57 H60 0.931 . S
C58 C54 1.391 . S
C58 C57 1.371 . S
C58 H65 0.930 . S
H59 C56 0.928 . S
H60 C57 0.931 . S
H61 C37 0.930 1_455 S
H62 C34 0.930 . S
H63 C43 0.930 . S
H64 C55 0.929 . S
H65 C58 0.930 . S
C66 C67 1.351 . S
C66 N69 1.368 . S
C66 H71 0.931 . S
C67 C66 1.351 . S
C67 N68 1.373 . S
C67 H95 0.930 . S
N68 C67 1.373 . S
N68 C70 1.340 . S
N69 C66 1.368 . S
N69 C70 1.321 . S
N69 Co72 2.135 . S
C70 N68 1.340 . S
C70 N69 1.321 . S
C70 H94 0.930 1_565 S
H71 C66 0.931 . S
Co72 N69 2.135 . S
Co72 N75 2.121 . S
Co72 O80 2.055 . S
Co72 O83 2.039 1_565 S
Co72 N86 2.140 . S
C73 O74 1.227 1_545 S
C73 O83 1.265 . S
O74 C73 1.227 1_565 S
N75 Co72 2.121 . S
N75 C77 1.375 . S
N75 C78 1.313 . S
C76 C77 1.338 . S
C76 N79 1.377 . S
C76 H96 0.930 . S
C77 N75 1.375 . S
C77 C76 1.338 . S
C77 H81 0.931 . S
C78 N75 1.313 . S
C78 N79 1.344 . S
C78 H82 0.930 . S
N79 C76 1.377 . S
N79 C78 1.344 . S
O80 Co72 2.055 . S
O80 C84 1.253 . S
H81 C77 0.931 . S
H82 C78 0.930 . S
O83 Co72 2.039 1_545 S
O83 C73 1.265 . S
C84 O80 1.253 . S
C84 O85 1.227 . S
O85 C84 1.227 . S
N86 Co72 2.140 . S
N86 C89 1.346 . S
N86 C90 1.345 . S
C87 C88 1.387 . S
C87 C91 1.391 . S
C88 C87 1.387 . S
C88 C89 1.369 . S
C88 H97 0.929 . S
C89 N86 1.346 . S
C89 C88 1.369 . S
C89 H92 0.928 . S
C90 N86 1.345 . S
C90 C91 1.371 . S
C90 H93 0.931 . S
C91 C87 1.391 . S
C91 C90 1.371 . S
C91 H98 0.930 . S
H92 C89 0.928 . S
H93 C90 0.931 . S
H94 C70 0.930 1_545 S
H95 C67 0.930 . S
H96 C76 0.930 . S
H97 C88 0.929 . S
H98 C91 0.930 . S
C99 C100 1.351 . S
C99 N102 1.368 . S
C99 H104 0.931 . S
C100 C99 1.351 . S
C100 N101 1.373 . S
C100 H128 0.930 . S
N101 C100 1.373 . S
N101 C103 1.340 . S
N102 C99 1.368 . S
N102 C103 1.321 . S
N102 Co105 2.135 . S
C103 N101 1.340 . S
C103 N102 1.321 . S
C103 H127 0.930 . S
H104 C99 0.931 . S
Co105 N102 2.135 . S
Co105 N108 2.121 . S
Co105 O113 2.055 . S
Co105 O116 2.039 . S
Co105 N119 2.140 . S
C106 O107 1.227 . S
C106 O116 1.265 . S
O107 C106 1.227 . S
N108 Co105 2.121 . S
N108 C110 1.375 . S
N108 C111 1.313 . S
C109 C110 1.338 . S
C109 N112 1.377 . S
C109 H129 0.930 . S
C110 N108 1.375 . S
C110 C109 1.338 . S
C110 H114 0.931 . S
C111 N108 1.313 . S
C111 N112 1.344 . S
C111 H115 0.930 . S
N112 C109 1.377 . S
N112 C111 1.344 . S
O113 Co105 2.055 . S
O113 C117 1.253 . S
H114 C110 0.931 . S
H115 C111 0.930 . S
O116 Co105 2.039 . S
O116 C106 1.265 . S
C117 O113 1.253 . S
C117 O118 1.227 . S
O118 C117 1.227 . S
N119 Co105 2.140 . S
N119 C122 1.346 . S
N119 C123 1.345 . S
C120 C121 1.387 . S
C120 C124 1.391 . S
C121 C120 1.387 . S
C121 C122 1.369 . S
C121 H130 0.929 . S
C122 N119 1.346 . S
C122 C121 1.369 . S
C122 H125 0.928 . S
C123 N119 1.345 . S
C123 C124 1.371 . S
C123 H126 0.931 . S
C124 C120 1.391 . S
C124 C123 1.371 . S
C124 H131 0.930 . S
H125 C122 0.928 . S
H126 C123 0.931 . S
H127 C103 0.930 . S
H128 C100 0.930 . S
H129 C109 0.930 . S
H130 C121 0.929 . S
H131 C124 0.930 . S
C132 C133 1.351 . S
C132 N135 1.368 . S
C132 H137 0.931 . S
C133 C132 1.351 . S
C133 N134 1.373 . S
C133 H161 0.930 . S
N134 C133 1.373 . S
N134 C136 1.340 . S
N135 C132 1.368 . S
N135 C136 1.321 . S
N135 Co138 2.135 . S
C136 N134 1.340 . S
C136 N135 1.321 . S
C136 H160 0.930 1_455 S
H137 C132 0.931 . S
Co138 N135 2.135 . S
Co138 N141 2.121 . S
Co138 O146 2.055 . S
Co138 O149 2.039 1_455 S
Co138 N152 2.140 . S
C139 O140 1.227 1_655 S
C139 O149 1.265 . S
O140 C139 1.227 1_455 S
N141 Co138 2.121 . S
N141 C143 1.375 . S
N141 C144 1.313 . S
C142 C143 1.338 . S
C142 N145 1.377 . S
C142 H162 0.930 . S
C143 N141 1.375 . S
C143 C142 1.338 . S
C143 H147 0.931 . S
C144 N141 1.313 . S
C144 N145 1.344 . S
C144 H148 0.930 . S
N145 C142 1.377 . S
N145 C144 1.344 . S
O146 Co138 2.055 . S
O146 C150 1.253 . S
H147 C143 0.931 . S
H148 C144 0.930 . S
O149 Co138 2.039 1_655 S
O149 C139 1.265 . S
C150 O146 1.253 . S
C150 O151 1.227 . S
O151 C150 1.227 . S
N152 Co138 2.140 . S
N152 C155 1.346 . S
N152 C156 1.345 . S
C153 C154 1.387 . S
C153 C157 1.391 . S
C154 C153 1.387 . S
C154 C155 1.369 . S
C154 H163 0.929 . S
C155 N152 1.346 . S
C155 C154 1.369 . S
C155 H158 0.928 . S
C156 N152 1.345 . S
C156 C157 1.371 . S
C156 H159 0.931 . S
C157 C153 1.391 . S
C157 C156 1.371 . S
C157 H164 0.930 . S
H158 C155 0.928 . S
H159 C156 0.931 . S
H160 C136 0.930 1_655 S
H161 C133 0.930 . S
H162 C142 0.930 . S
H163 C154 0.929 . S
H164 C157 0.930 . S
C165 C166 1.351 . S
C165 N168 1.368 . S
C165 H170 0.931 . S
C166 C165 1.351 . S
C166 N167 1.373 . S
C166 H194 0.930 . S
N167 C166 1.373 . S
N167 C169 1.340 . S
N168 C165 1.368 . S
N168 C169 1.321 . S
N168 Co171 2.135 . S
C169 N167 1.340 . S
C169 N168 1.321 . S
C169 H193 0.930 1_545 S
H170 C165 0.931 . S
Co171 N168 2.135 . S
Co171 N174 2.121 . S
Co171 O179 2.055 . S
Co171 O182 2.039 1_545 S
Co171 N185 2.140 . S
C172 O173 1.227 1_565 S
C172 O182 1.265 . S
O173 C172 1.227 1_545 S
N174 Co171 2.121 . S
N174 C176 1.375 . S
N174 C177 1.313 . S
C175 C176 1.338 . S
C175 N178 1.377 . S
C175 H195 0.930 . S
C176 N174 1.375 . S
C176 C175 1.338 . S
C176 H180 0.931 . S
C177 N174 1.313 . S
C177 N178 1.344 . S
C177 H181 0.930 . S
N178 C175 1.377 . S
N178 C177 1.344 . S
O179 Co171 2.055 . S
O179 C183 1.253 . S
H180 C176 0.931 . S
H181 C177 0.930 . S
O182 Co171 2.039 1_565 S
O182 C172 1.265 . S
C183 O179 1.253 . S
C183 O184 1.227 . S
O184 C183 1.227 . S
N185 Co171 2.140 . S
N185 C188 1.346 . S
N185 C189 1.345 . S
C186 C187 1.387 . S
C186 C190 1.391 . S
C187 C186 1.387 . S
C187 C188 1.369 . S
C187 H196 0.929 . S
C188 N185 1.346 . S
C188 C187 1.369 . S
C188 H191 0.928 . S
C189 N185 1.345 . S
C189 C190 1.371 . S
C189 H192 0.931 . S
C190 C186 1.391 . S
C190 C189 1.371 . S
C190 H197 0.930 . S
H191 C188 0.928 . S
H192 C189 0.931 . S
H193 C169 0.930 1_565 S
H194 C166 0.930 . S
H195 C175 0.930 . S
H196 C187 0.929 . S
H197 C190 0.930 . S
C198 C199 1.351 . S
C198 N201 1.368 . S
C198 H203 0.931 . S
C199 C198 1.351 . S
C199 N200 1.373 . S
C199 H227 0.930 . S
N200 C199 1.373 . S
N200 C202 1.340 . S
N201 C198 1.368 . S
N201 C202 1.321 . S
N201 Co204 2.135 . S
C202 N200 1.340 . S
C202 N201 1.321 . S
C202 H226 0.930 . S
H203 C198 0.931 . S
Co204 N201 2.135 . S
Co204 N207 2.121 . S
Co204 O212 2.055 . S
Co204 O215 2.039 . S
Co204 N218 2.140 . S
C205 O206 1.227 . S
C205 O215 1.265 . S
O206 C205 1.227 . S
N207 Co204 2.121 . S
N207 C209 1.375 . S
N207 C210 1.313 . S
C208 C209 1.338 . S
C208 N211 1.377 . S
C208 H228 0.930 . S
C209 N207 1.375 . S
C209 C208 1.338 . S
C209 H213 0.931 . S
C210 N207 1.313 . S
C210 N211 1.344 . S
C210 H214 0.930 . S
N211 C208 1.377 . S
N211 C210 1.344 . S
O212 Co204 2.055 . S
O212 C216 1.253 . S
H213 C209 0.931 . S
H214 C210 0.930 . S
O215 Co204 2.039 . S
O215 C205 1.265 . S
C216 O212 1.253 . S
C216 O217 1.227 . S
O217 C216 1.227 . S
N218 Co204 2.140 . S
N218 C221 1.346 . S
N218 C222 1.345 . S
C219 C220 1.387 . S
C219 C223 1.391 . S
C220 C219 1.387 . S
C220 C221 1.369 . S
C220 H229 0.929 . S
C221 N218 1.346 . S
C221 C220 1.369 . S
C221 H224 0.928 . S
C222 N218 1.345 . S
C222 C223 1.371 . S
C222 H225 0.931 . S
C223 C219 1.391 . S
C223 C222 1.371 . S
C223 H230 0.930 . S
H224 C221 0.928 . S
H225 C222 0.931 . S
H226 C202 0.930 . S
H227 C199 0.930 . S
H228 C208 0.930 . S
H229 C220 0.929 . S
H230 C223 0.930 . S
C231 C232 1.351 . S
C231 N234 1.368 . S
C231 H236 0.931 . S
C232 C231 1.351 . S
C232 N233 1.373 . S
C232 H260 0.930 . S
N233 C232 1.373 . S
N233 C235 1.340 . S
N234 C231 1.368 . S
N234 C235 1.321 . S
N234 Co237 2.135 . S
C235 N233 1.340 . S
C235 N234 1.321 . S
C235 H259 0.930 1_655 S
H236 C231 0.931 . S
Co237 N234 2.135 . S
Co237 N240 2.121 . S
Co237 O245 2.055 . S
Co237 O248 2.039 1_655 S
Co237 N251 2.140 . S
C238 O239 1.227 1_455 S
C238 O248 1.265 . S
O239 C238 1.227 1_655 S
N240 Co237 2.121 . S
N240 C242 1.375 . S
N240 C243 1.313 . S
C241 C242 1.338 . S
C241 N244 1.377 . S
C241 H261 0.930 . S
C242 N240 1.375 . S
C242 C241 1.338 . S
C242 H246 0.931 . S
C243 N240 1.313 . S
C243 N244 1.344 . S
C243 H247 0.930 . S
N244 C241 1.377 . S
N244 C243 1.344 . S
O245 Co237 2.055 . S
O245 C249 1.253 . S
H246 C242 0.931 . S
H247 C243 0.930 . S
O248 Co237 2.039 1_455 S
O248 C238 1.265 . S
C249 O245 1.253 . S
C249 O250 1.227 . S
O250 C249 1.227 . S
N251 Co237 2.140 . S
N251 C254 1.346 . S
N251 C255 1.345 . S
C252 C253 1.387 . S
C252 C256 1.391 . S
C253 C252 1.387 . S
C253 C254 1.369 . S
C253 H262 0.929 . S
C254 N251 1.346 . S
C254 C253 1.369 . S
C254 H257 0.928 . S
C255 N251 1.345 . S
C255 C256 1.371 . S
C255 H258 0.931 . S
C256 C252 1.391 . S
C256 C255 1.371 . S
C256 H263 0.930 . S
H257 C254 0.928 . S
H258 C255 0.931 . S
H259 C235 0.930 1_455 S
H260 C232 0.930 . S
H261 C241 0.930 . S
H262 C253 0.929 . S
H263 C256 0.930 . S
C264 C265 1.351 . S
C264 N267 1.368 . S
C264 H269 0.931 . S
C265 C264 1.351 . S
C265 N266 1.373 . S
C265 H293 0.930 . S
N266 C265 1.373 . S
N266 C268 1.340 . S
N267 C264 1.368 . S
N267 C268 1.321 . S
N267 Co270 2.135 . S
C268 N266 1.340 . S
C268 N267 1.321 . S
C268 H292 0.930 1_565 S
H269 C264 0.931 . S
Co270 N267 2.135 . S
Co270 N273 2.121 . S
Co270 O278 2.055 . S
Co270 O281 2.039 1_565 S
Co270 N284 2.140 . S
C271 O272 1.227 1_545 S
C271 O281 1.265 . S
O272 C271 1.227 1_565 S
N273 Co270 2.121 . S
N273 C275 1.375 . S
N273 C276 1.313 . S
C274 C275 1.338 . S
C274 N277 1.377 . S
C274 H294 0.930 . S
C275 N273 1.375 . S
C275 C274 1.338 . S
C275 H279 0.931 . S
C276 N273 1.313 . S
C276 N277 1.344 . S
C276 H280 0.930 . S
N277 C274 1.377 . S
N277 C276 1.344 . S
O278 Co270 2.055 . S
O278 C282 1.253 . S
H279 C275 0.931 . S
H280 C276 0.930 . S
O281 Co270 2.039 1_545 S
O281 C271 1.265 . S
C282 O278 1.253 . S
C282 O283 1.227 . S
O283 C282 1.227 . S
N284 Co270 2.140 . S
N284 C287 1.346 . S
N284 C288 1.345 . S
C285 C286 1.387 . S
C285 C289 1.391 . S
C286 C285 1.387 . S
C286 C287 1.369 . S
C286 H295 0.929 . S
C287 N284 1.346 . S
C287 C286 1.369 . S
C287 H290 0.928 . S
C288 N284 1.345 . S
C288 C289 1.371 . S
C288 H291 0.931 . S
C289 C285 1.391 . S
C289 C288 1.371 . S
C289 H296 0.930 . S
H290 C287 0.928 . S
H291 C288 0.931 . S
H292 C268 0.930 1_545 S
H293 C265 0.930 . S
H294 C274 0.930 . S
H295 C286 0.929 . S
H296 C289 0.930 . S
C297 C298 1.351 . S
C297 N300 1.368 . S
C297 H302 0.931 . S
C298 C297 1.351 . S
C298 N299 1.373 . S
C298 H326 0.930 . S
N299 C298 1.373 . S
N299 C301 1.340 . S
N300 C297 1.368 . S
N300 C301 1.321 . S
N300 Co303 2.135 . S
C301 N299 1.340 . S
C301 N300 1.321 . S
C301 H325 0.930 . S
H302 C297 0.931 . S
Co303 N300 2.135 . S
Co303 N306 2.121 . S
Co303 O311 2.055 . S
Co303 O314 2.039 . S
Co303 N317 2.140 . S
C304 O305 1.227 . S
C304 O314 1.265 . S
O305 C304 1.227 . S
N306 Co303 2.121 . S
N306 C308 1.375 . S
N306 C309 1.313 . S
C307 C308 1.338 . S
C307 N310 1.377 . S
C307 H327 0.930 . S
C308 N306 1.375 . S
C308 C307 1.338 . S
C308 H312 0.931 . S
C309 N306 1.313 . S
C309 N310 1.344 . S
C309 H313 0.930 . S
N310 C307 1.377 . S
N310 C309 1.344 . S
O311 Co303 2.055 . S
O311 C315 1.253 . S
H312 C308 0.931 . S
H313 C309 0.930 . S
O314 Co303 2.039 . S
O314 C304 1.265 . S
C315 O311 1.253 . S
C315 O316 1.227 . S
O316 C315 1.227 . S
N317 Co303 2.140 . S
N317 C320 1.346 . S
N317 C321 1.345 . S
C318 C319 1.387 . S
C318 C322 1.391 . S
C319 C318 1.387 . S
C319 C320 1.369 . S
C319 H328 0.929 . S
C320 N317 1.346 . S
C320 C319 1.369 . S
C320 H323 0.928 . S
C321 N317 1.345 . S
C321 C322 1.371 . S
C321 H324 0.931 . S
C322 C318 1.391 . S
C322 C321 1.371 . S
C322 H329 0.930 . S
H323 C320 0.928 . S
H324 C321 0.931 . S
H325 C301 0.930 . S
H326 C298 0.930 . S
H327 C307 0.930 . S
H328 C319 0.929 . S
H329 C322 0.930 . S
C330 C331 1.351 . S
C330 N333 1.368 . S
C330 H335 0.931 . S
C331 C330 1.351 . S
C331 N332 1.373 . S
C331 H359 0.930 . S
N332 C331 1.373 . S
N332 C334 1.340 . S
N333 C330 1.368 . S
N333 C334 1.321 . S
N333 Co336 2.135 . S
C334 N332 1.340 . S
C334 N333 1.321 . S
C334 H358 0.930 1_455 S
H335 C330 0.931 . S
Co336 N333 2.135 . S
Co336 N339 2.121 . S
Co336 O344 2.055 . S
Co336 O347 2.039 1_455 S
Co336 N350 2.140 . S
C337 O338 1.227 1_655 S
C337 O347 1.265 . S
O338 C337 1.227 1_455 S
N339 Co336 2.121 . S
N339 C341 1.375 . S
N339 C342 1.313 . S
C340 C341 1.338 . S
C340 N343 1.377 . S
C340 H360 0.930 . S
C341 N339 1.375 . S
C341 C340 1.338 . S
C341 H345 0.931 . S
C342 N339 1.313 . S
C342 N343 1.344 . S
C342 H346 0.930 . S
N343 C340 1.377 . S
N343 C342 1.344 . S
O344 Co336 2.055 . S
O344 C348 1.253 . S
H345 C341 0.931 . S
H346 C342 0.930 . S
O347 Co336 2.039 1_655 S
O347 C337 1.265 . S
C348 O344 1.253 . S
C348 O349 1.227 . S
O349 C348 1.227 . S
N350 Co336 2.140 . S
N350 C353 1.346 . S
N350 C354 1.345 . S
C351 C352 1.387 . S
C351 C355 1.391 . S
C352 C351 1.387 . S
C352 C353 1.369 . S
C352 H361 0.929 . S
C353 N350 1.346 . S
C353 C352 1.369 . S
C353 H356 0.928 . S
C354 N350 1.345 . S
C354 C355 1.371 . S
C354 H357 0.931 . S
C355 C351 1.391 . S
C355 C354 1.371 . S
C355 H362 0.930 . S
H356 C353 0.928 . S
H357 C354 0.931 . S
H358 C334 0.930 1_655 S
H359 C331 0.930 . S
H360 C340 0.930 . S
H361 C352 0.929 . S
H362 C355 0.930 . S
C363 C364 1.351 . S
C363 N366 1.368 . S
C363 H368 0.931 . S
C364 C363 1.351 . S
C364 N365 1.373 . S
C364 H392 0.930 . S
N365 C364 1.373 . S
N365 C367 1.340 . S
N366 C363 1.368 . S
N366 C367 1.321 . S
N366 Co369 2.135 . S
C367 N365 1.340 . S
C367 N366 1.321 . S
C367 H391 0.930 1_545 S
H368 C363 0.931 . S
Co369 N366 2.135 . S
Co369 N372 2.121 . S
Co369 O377 2.055 . S
Co369 O380 2.039 1_545 S
Co369 N383 2.140 . S
C370 O371 1.227 1_565 S
C370 O380 1.265 . S
O371 C370 1.227 1_545 S
N372 Co369 2.121 . S
N372 C374 1.375 . S
N372 C375 1.313 . S
C373 C374 1.338 . S
C373 N376 1.377 . S
C373 H393 0.930 . S
C374 N372 1.375 . S
C374 C373 1.338 . S
C374 H378 0.931 . S
C375 N372 1.313 . S
C375 N376 1.344 . S
C375 H379 0.930 . S
N376 C373 1.377 . S
N376 C375 1.344 . S
O377 Co369 2.055 . S
O377 C381 1.253 . S
H378 C374 0.931 . S
H379 C375 0.930 . S
O380 Co369 2.039 1_565 S
O380 C370 1.265 . S
C381 O377 1.253 . S
C381 O382 1.227 . S
O382 C381 1.227 . S
N383 Co369 2.140 . S
N383 C386 1.346 . S
N383 C387 1.345 . S
C384 C385 1.387 . S
C384 C388 1.391 . S
C385 C384 1.387 . S
C385 C386 1.369 . S
C385 H394 0.929 . S
C386 N383 1.346 . S
C386 C385 1.369 . S
C386 H389 0.928 . S
C387 N383 1.345 . S
C387 C388 1.371 . S
C387 H390 0.931 . S
C388 C384 1.391 . S
C388 C387 1.371 . S
C388 H395 0.930 . S
H389 C386 0.928 . S
H390 C387 0.931 . S
H391 C367 0.930 1_565 S
H392 C364 0.930 . S
H393 C373 0.930 . S
H394 C385 0.929 . S
H395 C388 0.930 . S
C396 C397 1.387 . S
C396 H400 0.950 . S
C396 C405 1.390 . S
C397 C396 1.387 . S
C397 C399 1.387 . S
H398 C405 0.950 . S
C399 C397 1.387 . S
C399 C401 1.390 . S
C399 H403 0.950 . S
H400 C396 0.950 . S
C401 C399 1.390 . S
C401 C402 1.387 . S
C401 H404 0.950 . S
C402 C401 1.387 . S
C402 C405 1.387 . S
H403 C399 0.950 . S
H404 C401 0.950 . S
C405 C396 1.390 . S
C405 H398 0.950 . S
C405 C402 1.387 . S
C406 C407 1.387 . S
C406 H410 0.950 . S
C406 C415 1.390 1_455 S
C407 C406 1.387 . S
C407 C409 1.387 . S
H408 C415 0.950 . S
C409 C407 1.387 . S
C409 C411 1.390 1_455 S
C409 H413 0.950 . S
H410 C406 0.950 . S
C411 C409 1.390 1_655 S
C411 C412 1.387 . S
C411 H414 0.950 . S
C412 C411 1.387 . S
C412 C415 1.387 . S
H413 C409 0.950 . S
H414 C411 0.950 . S
C415 C406 1.390 1_655 S
C415 H408 0.950 . S
C415 C412 1.387 . S
C416 C417 1.387 . S
C416 H420 0.950 . S
C416 C425 1.390 1_545 S
C417 C416 1.387 . S
C417 C419 1.387 . S
H418 C425 0.950 . S
C419 C417 1.387 . S
C419 C421 1.390 1_545 S
C419 H423 0.950 . S
H420 C416 0.950 . S
C421 C419 1.390 1_565 S
C421 C422 1.387 . S
C421 H424 0.950 . S
C422 C421 1.387 . S
C422 C425 1.387 . S
H423 C419 0.950 . S
H424 C421 0.950 . S
C425 C416 1.390 1_565 S
C425 H418 0.950 . S
C425 C422 1.387 . S
C426 C427 1.387 . S
C426 H430 0.950 . S
C426 C435 1.390 . S
C427 C426 1.387 . S
C427 C429 1.387 . S
H428 C435 0.950 . S
C429 C427 1.387 . S
C429 C431 1.390 . S
C429 H433 0.950 . S
H430 C426 0.950 . S
C431 C429 1.390 . S
C431 C432 1.387 . S
C431 H434 0.950 . S
C432 C431 1.387 . S
C432 C435 1.387 . S
H433 C429 0.950 . S
H434 C431 0.950 . S
C435 C426 1.390 . S
C435 H428 0.950 . S
C435 C432 1.387 . S
C436 C437 1.387 . S
C436 H440 0.950 . S
C436 C445 1.390 1_655 S
C437 C436 1.387 . S
C437 C439 1.387 . S
H438 C445 0.950 . S
C439 C437 1.387 . S
C439 C441 1.390 1_655 S
C439 H443 0.950 . S
H440 C436 0.950 . S
C441 C439 1.390 1_455 S
C441 C442 1.387 . S
C441 H444 0.950 . S
C442 C441 1.387 . S
C442 C445 1.387 . S
H443 C439 0.950 . S
H444 C441 0.950 . S
C445 C436 1.390 1_455 S
C445 H438 0.950 . S
C445 C442 1.387 . S
C446 C447 1.387 . S
C446 H450 0.950 . S
C446 C455 1.390 1_565 S
C447 C446 1.387 . S
C447 C449 1.387 . S
H448 C455 0.950 . S
C449 C447 1.387 . S
C449 C451 1.390 1_565 S
C449 H453 0.950 . S
H450 C446 0.950 . S
C451 C449 1.390 1_545 S
C451 C452 1.387 . S
C451 H454 0.950 . S
C452 C451 1.387 . S
C452 C455 1.387 . S
H453 C449 0.950 . S
H454 C451 0.950 . S
C455 C446 1.390 1_545 S
C455 H448 0.950 . S
C455 C452 1.387 . S
C456 C457 1.387 . S
C456 H460 0.950 . S
C456 C465 1.390 . S
C457 C456 1.387 . S
C457 C459 1.387 . S
H458 C465 0.950 . S
C459 C457 1.387 . S
C459 C461 1.390 . S
C459 H463 0.950 . S
H460 C456 0.950 . S
C461 C459 1.390 . S
C461 C462 1.387 . S
C461 H464 0.950 . S
C462 C461 1.387 . S
C462 C465 1.387 . S
H463 C459 0.950 . S
H464 C461 0.950 . S
C465 C456 1.390 . S
C465 H458 0.950 . S
C465 C462 1.387 . S
C466 C467 1.387 1_455 S
C466 H470 0.950 . S
C466 C475 1.390 . S
C467 C466 1.387 1_655 S
C467 C469 1.387 . S
H468 C475 0.950 . S
C469 C467 1.387 . S
C469 C471 1.390 . S
C469 H473 0.950 . S
H470 C466 0.950 . S
C471 C469 1.390 . S
C471 C472 1.387 1_655 S
C471 H474 0.950 . S
C472 C471 1.387 1_455 S
C472 C475 1.387 . S
H473 C469 0.950 . S
H474 C471 0.950 . S
C475 C466 1.390 . S
C475 H468 0.950 . S
C475 C472 1.387 . S
C476 C477 1.387 . S
C476 H480 0.950 . S
C476 C485 1.390 1_544 S
C477 C476 1.387 . S
C477 C479 1.387 . S
H478 C485 0.950 . S
C479 C477 1.387 . S
C479 C481 1.390 1_544 S
C479 H483 0.950 . S
H480 C476 0.950 . S
C481 C479 1.390 1_566 S
C481 C482 1.387 . S
C481 H484 0.950 . S
C482 C481 1.387 . S
C482 C485 1.387 . S
H483 C479 0.950 . S
H484 C481 0.950 . S
C485 C476 1.390 1_566 S
C485 H478 0.950 . S
C485 C482 1.387 . S
C486 C487 1.387 . S
C486 H490 0.950 . S
C486 C495 1.390 . S
C487 C486 1.387 . S
C487 C489 1.387 . S
H488 C495 0.950 . S
C489 C487 1.387 . S
C489 C491 1.390 . S
C489 H493 0.950 . S
H490 C486 0.950 . S
C491 C489 1.390 . S
C491 C492 1.387 . S
C491 H494 0.950 . S
C492 C491 1.387 . S
C492 C495 1.387 . S
H493 C489 0.950 . S
H494 C491 0.950 . S
C495 C486 1.390 . S
C495 H488 0.950 . S
C495 C492 1.387 . S
C496 C497 1.388 . S
C496 H500 0.949 . S
C496 C505 1.387 1_455 S
C497 C496 1.388 . S
C497 C499 1.387 . S
H498 C505 0.950 . S
C499 C497 1.387 . S
C499 C501 1.387 1_455 S
C499 H503 0.950 . S
H500 C496 0.949 . S
C501 C499 1.387 1_655 S
C501 C502 1.388 . S
C501 H504 0.949 . S
C502 C501 1.388 . S
C502 C505 1.387 . S
H503 C499 0.950 . S
H504 C501 0.949 . S
C505 C496 1.387 1_655 S
C505 H498 0.950 . S
C505 C502 1.387 . S
C506 C507 1.387 . S
C506 H510 0.950 . S
C506 C515 1.390 1_546 S
C507 C506 1.387 . S
C507 C509 1.387 . S
H508 C515 0.950 . S
C509 C507 1.387 . S
C509 C511 1.390 1_546 S
C509 H513 0.950 . S
H510 C506 0.950 . S
C511 C509 1.390 1_564 S
C511 C512 1.387 . S
C511 H514 0.950 . S
C512 C511 1.387 . S
C512 C515 1.387 . S
H513 C509 0.950 . S
H514 C511 0.950 . S
C515 C506 1.390 1_564 S
C515 H508 0.950 . S
C515 C512 1.387 . S
C516 C517 1.387 . S
C516 H520 0.950 . S
C516 C525 1.390 1_445 S
C517 C516 1.387 . S
C517 C519 1.387 . S
H518 C525 0.950 . S
C519 C517 1.387 . S
C519 C521 1.390 1_445 S
C519 H523 0.950 . S
H520 C516 0.950 . S
C521 C519 1.390 1_665 S
C521 C522 1.387 . S
C521 H524 0.950 . S
C522 C521 1.387 . S
C522 C525 1.387 . S
H523 C519 0.950 . S
H524 C521 0.950 . S
C525 C516 1.390 1_665 S
C525 H518 0.950 . S
C525 C522 1.387 . S
C526 C527 1.387 . S
C526 H530 0.950 . S
C526 C535 1.390 1_645 S
C527 C526 1.387 . S
C527 C529 1.387 . S
H528 C535 0.950 . S
C529 C527 1.387 . S
C529 C531 1.390 1_645 S
C529 H533 0.950 . S
H530 C526 0.950 . S
C531 C529 1.390 1_465 S
C531 C532 1.387 . S
C531 H534 0.950 . S
C532 C531 1.387 . S
C532 C535 1.387 . S
H533 C529 0.950 . S
H534 C531 0.950 . S
C535 C526 1.390 1_465 S
C535 H528 0.950 . S
C535 C532 1.387 . S
C536 C537 1.387 . S
C536 H540 0.950 . S
C536 C545 1.390 1_445 S
C537 C536 1.387 . S
C537 C539 1.387 . S
H538 C545 0.950 . S
C539 C537 1.387 . S
C539 C541 1.390 1_445 S
C539 H543 0.950 . S
H540 C536 0.950 . S
C541 C539 1.390 1_665 S
C541 C542 1.387 . S
C541 H544 0.950 . S
C542 C541 1.387 . S
C542 C545 1.387 . S
H543 C539 0.950 . S
H544 C541 0.950 . S
C545 C536 1.390 1_665 S
C545 H538 0.950 . S
C545 C542 1.387 . S
C546 C547 1.387 . S
C546 H550 0.950 . S
C546 C555 1.390 1_665 S
C547 C546 1.387 . S
C547 C549 1.387 . S
H548 C555 0.950 . S
C549 C547 1.387 . S
C549 C551 1.390 1_665 S
C549 H553 0.950 . S
H550 C546 0.950 . S
C551 C549 1.390 1_445 S
C551 C552 1.387 . S
C551 H554 0.950 . S
C552 C551 1.387 . S
C552 C555 1.387 . S
H553 C549 0.950 . S
H554 C551 0.950 . S
C555 C546 1.390 1_445 S
C555 H548 0.950 . S
C555 C552 1.387 . S
C556 C557 1.387 . S
C556 H560 0.950 . S
C556 C565 1.390 1_665 S
C557 C556 1.387 . S
C557 C559 1.387 . S
H558 C565 0.950 . S
C559 C557 1.387 . S
C559 C561 1.390 1_665 S
C559 H563 0.950 . S
H560 C556 0.950 . S
C561 C559 1.390 1_445 S
C561 C562 1.387 . S
C561 H564 0.950 . S
C562 C561 1.387 . S
C562 C565 1.387 . S
H563 C559 0.950 . S
H564 C561 0.950 . S
C565 C556 1.390 1_445 S
C565 H558 0.950 . S
C565 C562 1.387 . S
C566 C567 1.387 . S
C566 H570 0.950 . S
C566 C575 1.390 1_645 S
C567 C566 1.387 . S
C567 C569 1.387 . S
H568 C575 0.950 . S
C569 C567 1.387 . S
C569 C571 1.390 1_645 S
C569 H573 0.950 . S
H570 C566 0.950 . S
C571 C569 1.390 1_465 S
C571 C572 1.387 . S
C571 H574 0.950 . S
C572 C571 1.387 . S
C572 C575 1.387 . S
H573 C569 0.950 . S
H574 C571 0.950 . S
C575 C566 1.390 1_465 S
C575 H568 0.950 . S
C575 C572 1.387 . S
C576 C577 1.387 . S
C576 H580 0.950 . S
C576 C585 1.390 1_655 S
C577 C576 1.387 . S
C577 C579 1.387 . S
H578 C585 0.950 . S
C579 C577 1.387 . S
C579 C581 1.390 1_655 S
C579 H583 0.950 . S
H580 C576 0.950 . S
C581 C579 1.390 1_455 S
C581 C582 1.387 . S
C581 H584 0.950 . S
C582 C581 1.387 . S
C582 C585 1.387 . S
H583 C579 0.950 . S
H584 C581 0.950 . S
C585 C576 1.390 1_455 S
C585 H578 0.950 . S
C585 C582 1.387 . S
C586 C587 1.387 . S
C586 H590 0.950 . S
C586 C595 1.390 1_545 S
C587 C586 1.387 . S
C587 C589 1.387 . S
H588 C595 0.950 . S
C589 C587 1.387 . S
C589 C591 1.390 1_545 S
C589 H593 0.950 . S
H590 C586 0.950 . S
C591 C589 1.390 1_565 S
C591 C592 1.387 . S
C591 H594 0.950 . S
C592 C591 1.387 . S
C592 C595 1.387 . S
H593 C589 0.950 . S
H594 C591 0.950 . S
C595 C586 1.390 1_565 S
C595 H588 0.950 . S
C595 C592 1.387 . S
C596 C597 1.387 . S
C596 H600 0.950 . S
C596 C605 1.390 . S
C597 C596 1.387 . S
C597 C599 1.387 . S
H598 C605 0.950 . S
C599 C597 1.387 . S
C599 C601 1.390 . S
C599 H603 0.950 . S
H600 C596 0.950 . S
C601 C599 1.390 . S
C601 C602 1.387 . S
C601 H604 0.950 . S
C602 C601 1.387 . S
C602 C605 1.387 . S
H603 C599 0.950 . S
H604 C601 0.950 . S
C605 C596 1.390 . S
C605 H598 0.950 . S
C605 C602 1.387 . S
C606 C607 1.387 1_655 S
C606 H610 0.950 . S
C606 C615 1.390 . S
C607 C606 1.387 1_455 S
C607 C609 1.387 . S
H608 C615 0.950 . S
C609 C607 1.387 . S
C609 C611 1.390 . S
C609 H613 0.950 . S
H610 C606 0.950 . S
C611 C609 1.390 . S
C611 C612 1.387 1_455 S
C611 H614 0.950 . S
C612 C611 1.387 1_655 S
C612 C615 1.387 . S
H613 C609 0.950 . S
H614 C611 0.950 . S
C615 C606 1.390 . S
C615 H608 0.950 . S
C615 C612 1.387 . S
C616 C617 1.387 . S
C616 H620 0.950 . S
C616 C625 1.390 1_565 S
C617 C616 1.387 . S
C617 C619 1.387 . S
H618 C625 0.950 . S
C619 C617 1.387 . S
C619 C621 1.390 1_565 S
C619 H623 0.950 . S
H620 C616 0.950 . S
C621 C619 1.390 1_545 S
C621 C622 1.387 . S
C621 H624 0.950 . S
C622 C621 1.387 . S
C622 C625 1.387 . S
H623 C619 0.950 . S
H624 C621 0.950 . S
C625 C616 1.390 1_545 S
C625 H618 0.950 . S
C625 C622 1.387 . S
C626 C627 1.387 . S
C626 H630 0.950 . S
C626 C635 1.390 . S
C627 C626 1.387 . S
C627 C629 1.387 . S
H628 C635 0.950 . S
C629 C627 1.387 . S
C629 C631 1.390 . S
C629 H633 0.950 . S
H630 C626 0.950 . S
C631 C629 1.390 . S
C631 C632 1.387 . S
C631 H634 0.950 . S
C632 C631 1.387 . S
C632 C635 1.387 . S
H633 C629 0.950 . S
H634 C631 0.950 . S
C635 C626 1.390 . S
C635 H628 0.950 . S
C635 C632 1.387 . S
C636 C637 1.387 . S
C636 H640 0.950 . S
C636 C645 1.390 . S
C637 C636 1.387 . S
C637 C639 1.387 . S
H638 C645 0.950 . S
C639 C637 1.387 . S
C639 C641 1.390 . S
C639 H643 0.950 . S
H640 C636 0.950 . S
C641 C639 1.390 . S
C641 C642 1.387 . S
C641 H644 0.950 . S
C642 C641 1.387 . S
C642 C645 1.387 . S
H643 C639 0.950 . S
H644 C641 0.950 . S
C645 C636 1.390 . S
C645 H638 0.950 . S
C645 C642 1.387 . S
C646 C647 1.387 . S
C646 H650 0.950 . S
C646 C655 1.390 . S
C647 C646 1.387 . S
C647 C649 1.387 . S
H648 C655 0.950 . S
C649 C647 1.387 . S
C649 C651 1.390 . S
C649 H653 0.950 . S
H650 C646 0.950 . S
C651 C649 1.390 . S
C651 C652 1.387 . S
C651 H654 0.950 . S
C652 C651 1.387 . S
C652 C655 1.387 . S
H653 C649 0.950 . S
H654 C651 0.950 . S
C655 C646 1.390 . S
C655 H648 0.950 . S
C655 C652 1.387 . S
C656 C657 1.387 . S
C656 H660 0.950 . S
C656 C665 1.390 . S
C657 C656 1.387 . S
C657 C659 1.387 . S
H658 C665 0.950 . S
C659 C657 1.387 . S
C659 C661 1.390 . S
C659 H663 0.950 . S
H660 C656 0.950 . S
C661 C659 1.390 . S
C661 C662 1.387 . S
C661 H664 0.950 . S
C662 C661 1.387 . S
C662 C665 1.387 . S
H663 C659 0.950 . S
H664 C661 0.950 . S
C665 C656 1.390 . S
C665 H658 0.950 . S
C665 C662 1.387 . S
C666 C667 1.387 . S
C666 H670 0.950 . S
C666 C675 1.390 . S
C667 C666 1.387 . S
C667 C669 1.387 . S
H668 C675 0.950 . S
C669 C667 1.387 . S
C669 C671 1.390 . S
C669 H673 0.950 . S
H670 C666 0.950 . S
C671 C669 1.390 . S
C671 C672 1.387 . S
C671 H674 0.950 . S
C672 C671 1.387 . S
C672 C675 1.387 . S
H673 C669 0.950 . S
H674 C671 0.950 . S
C675 C666 1.390 . S
C675 H668 0.950 . S
C675 C672 1.387 . S
C676 C677 1.387 . S
C676 H680 0.950 . S
C676 C685 1.390 . S
C677 C676 1.387 . S
C677 C679 1.387 . S
H678 C685 0.950 . S
C679 C677 1.387 . S
C679 C681 1.390 . S
C679 H683 0.950 . S
H680 C676 0.950 . S
C681 C679 1.390 . S
C681 C682 1.387 . S
C681 H684 0.950 . S
C682 C681 1.387 . S
C682 C685 1.387 . S
H683 C679 0.950 . S
H684 C681 0.950 . S
C685 C676 1.390 . S
C685 H678 0.950 . S
C685 C682 1.387 . S
C686 C687 1.387 . S
C686 H690 0.950 . S
C686 C695 1.390 . S
C687 C686 1.387 . S
C687 C689 1.387 . S
H688 C695 0.950 . S
C689 C687 1.387 . S
C689 C691 1.390 . S
C689 H693 0.950 . S
H690 C686 0.950 . S
C691 C689 1.390 . S
C691 C692 1.387 . S
C691 H694 0.950 . S
C692 C691 1.387 . S
C692 C695 1.387 . S
H693 C689 0.950 . S
H694 C691 0.950 . S
C695 C686 1.390 . S
C695 H688 0.950 . S
C695 C692 1.387 . S
C397 N112 1.507 . S
C402 N13 1.507 . S
C407 N145 1.502 . S
C412 N46 1.502 . S
C417 N178 1.507 . S
C422 N79 1.507 . S
C427 N211 1.502 . S
C432 N310 1.502 . S
C437 N244 1.502 . S
C442 N343 1.502 . S
C447 N277 1.502 . S
C452 N376 1.502 . S
C457 C315 1.839 . S
C462 C18 1.839 . S
C467 C51 1.837 . S
C472 C348 1.837 . S
C477 C381 1.839 . S
C482 C84 1.839 . S
C487 C216 1.839 . S
C492 C117 1.838 . S
C497 C150 1.837 . S
C502 C249 1.837 . S
C507 C183 1.837 . S
C512 C282 1.837 . S
C517 N2 0.693 . S
C522 N101 0.693 . S
C527 N35 0.692 . S
C532 N134 0.692 . S
C537 N167 0.694 . S
C542 N68 0.694 . S
C547 N200 0.693 . S
C552 N299 0.693 . S
C557 N233 0.694 . S
C562 N332 0.694 . S
C567 N365 0.693 . S
C572 N266 0.693 . S
C577 C384 1.217 . S
C582 C21 1.213 . S
C587 C54 1.215 . S
C592 C219 1.215 . S
C597 C252 1.213 . S
C602 C87 1.217 . S
C607 C285 1.213 . S
C612 C120 1.218 . S
C617 C153 1.215 . S
C622 C318 1.215 . S
C627 C186 1.214 . S
C632 C351 1.215 . S
C637 C7 1.241 . S
C642 C271 1.238 . S
C647 C40 1.239 . S
C652 C304 1.239 . S
C657 C337 1.238 . S
C662 C73 1.241 . S
C667 C106 1.238 . S
C672 C370 1.241 . S
C677 C205 1.239 . S
C682 C139 1.239 . S
C687 C172 1.241 . S
C692 C238 1.239 . S
