# Generated by pormake.
# Topology yfz, (5)-cn, num edge types: 1
# Building blocks:
#     Node 0, Type 0, BuildingBlock: XOMCOT_clean_sbu_0, # of connection points: 5
#     Node 1, Type 0, BuildingBlock: XOMCOT_clean_sbu_0, # of connection points: 5
#     Node 2, Type 0, BuildingBlock: XOMCOT_clean_sbu_0, # of connection points: 5
#     Node 3, Type 0, BuildingBlock: XOMCOT_clean_sbu_0, # of connection points: 5
#     Node 4, Type 0, BuildingBlock: XOMCOT_clean_sbu_0, # of connection points: 5
#     Node 5, Type 0, BuildingBlock: XOMCOT_clean_sbu_0, # of connection points: 5
#     Node 6, Type 0, BuildingBlock: XOMCOT_clean_sbu_0, # of connection points: 5
#     Node 7, Type 0, BuildingBlock: XOMCOT_clean_sbu_0, # of connection points: 5
#     Edge 8, Type (0, 0), BuildingBlock: UVAHIK_clean_linker_0, # of connection points: 2
#     Edge 9, Type (0, 0), BuildingBlock: UVAHIK_clean_linker_0, # of connection points: 2
#     Edge 10, Type (0, 0), BuildingBlock: UVAHIK_clean_linker_0, # of connection points: 2
#     Edge 11, Type (0, 0), BuildingBlock: UVAHIK_clean_linker_0, # of connection points: 2
#     Edge 12, Type (0, 0), BuildingBlock: UVAHIK_clean_linker_0, # of connection points: 2
#     Edge 13, Type (0, 0), BuildingBlock: UVAHIK_clean_linker_0, # of connection points: 2
#     Edge 14, Type (0, 0), BuildingBlock: UVAHIK_clean_linker_0, # of connection points: 2
#     Edge 15, Type (0, 0), BuildingBlock: UVAHIK_clean_linker_0, # of connection points: 2
#     Edge 16, Type (0, 0), BuildingBlock: UVAHIK_clean_linker_0, # of connection points: 2
#     Edge 17, Type (0, 0), BuildingBlock: UVAHIK_clean_linker_0, # of connection points: 2
#     Edge 18, Type (0, 0), BuildingBlock: UVAHIK_clean_linker_0, # of connection points: 2
#     Edge 19, Type (0, 0), BuildingBlock: UVAHIK_clean_linker_0, # of connection points: 2
#     Edge 20, Type (0, 0), BuildingBlock: UVAHIK_clean_linker_0, # of connection points: 2
#     Edge 21, Type (0, 0), BuildingBlock: UVAHIK_clean_linker_0, # of connection points: 2
#     Edge 22, Type (0, 0), BuildingBlock: UVAHIK_clean_linker_0, # of connection points: 2
#     Edge 23, Type (0, 0), BuildingBlock: UVAHIK_clean_linker_0, # of connection points: 2
#     Edge 24, Type (0, 0), BuildingBlock: UVAHIK_clean_linker_0, # of connection points: 2
#     Edge 25, Type (0, 0), BuildingBlock: UVAHIK_clean_linker_0, # of connection points: 2
#     Edge 26, Type (0, 0), BuildingBlock: UVAHIK_clean_linker_0, # of connection points: 2
#     Edge 27, Type (0, 0), BuildingBlock: UVAHIK_clean_linker_0, # of connection points: 2
# Relax obj value: 0.170
# Max RMSD: 0.158
# Mean RMSD: 0.158
data_MOF--net-yfz--node1-XOMCOT_clean_sbu_0--edge1-UVAHIK_clean_linker_0
_symmetry_space_group_name_H-M    P1
_symmetry_Int_Tables_number       1
_symmetry_cell_setting            triclinic
loop_
_symmetry_equiv_pos_as_xyz
'x, y, z'
_cell_length_a     65.472722
_cell_length_b     65.518622
_cell_length_c     22.017088
_cell_angle_alpha  89.972944
_cell_angle_beta   89.965173
_cell_angle_gamma 89.979531
loop_
_atom_site_label
_atom_site_type_symbol
_atom_site_fract_x
_atom_site_fract_y
_atom_site_fract_z
_atom_type_partial_charge
Co0 Co 0.57215 0.09839 0.30332 0.0
C1 C 0.56736 0.09455 0.1683 0.0
C2 C 0.53949 0.08911 0.21642 0.0
C3 C 0.53555 0.08801 0.15509 0.0
N4 N 0.55955 0.09278 0.22493 0.0
N5 N 0.55313 0.09143 0.12483 0.0
H6 H 0.58272 0.09919 0.15829 0.0
H7 H 0.52835 0.08773 0.25249 0.0
C8 C 0.55231 0.05761 0.31987 0.0
O9 O 0.55926 0.05225 0.26621 0.0
N10 N 0.58398 0.10433 0.38151 0.0
C11 C 0.60304 0.11099 0.3929 0.0
C12 C 0.60556 0.11237 0.45491 0.0
C13 C 0.57508 0.10193 0.43626 0.0
N14 N 0.58797 0.10664 0.4821 0.0
C15 C 0.60963 0.08773 0.24435 0.0
C16 C 0.61887 0.05401 0.3144 0.0
C17 C 0.6328 0.06034 0.26985 0.0
C18 C 0.6279 0.07739 0.23451 0.0
C19 C 0.60046 0.06465 0.32204 0.0
N20 N 0.59568 0.08097 0.28586 0.0
H21 H 0.60743 0.10197 0.22093 0.0
H22 H 0.59069 0.06035 0.35937 0.0
H23 H 0.61437 0.11436 0.35857 0.0
H24 H 0.55966 0.09639 0.44238 0.0
O25 O 0.58266 0.12371 0.27199 0.0
O26 O 0.55239 0.12013 0.31567 0.0
O27 O 0.55633 0.07525 0.34145 0.0
C28 C 0.56565 0.13206 0.28942 0.0
H29 H 0.52082 0.0851 0.13457 0.0
H30 H 0.61928 0.11727 0.47809 0.0
H31 H 0.62238 0.0413 0.34409 0.0
H32 H 0.63868 0.08348 0.20185 0.0
Co33 Co 0.37988 0.57264 0.80237 0.0
C34 C 0.38334 0.56794 0.66708 0.0
C35 C 0.38638 0.53968 0.71503 0.0
C36 C 0.3873 0.53571 0.65377 0.0
N37 N 0.38427 0.55995 0.7236 0.0
N38 N 0.38539 0.55352 0.62362 0.0
H39 H 0.38024 0.5837 0.65716 0.0
H40 H 0.38692 0.52848 0.7511 0.0
C41 C 0.42007 0.55144 0.81304 0.0
O42 O 0.42468 0.55865 0.75905 0.0
N43 N 0.3751 0.58457 0.881 0.0
C44 C 0.36909 0.60382 0.89277 0.0
C45 C 0.36819 0.60638 0.9548 0.0
C46 C 0.37758 0.57559 0.93554 0.0
N47 N 0.37355 0.58862 0.98156 0.0
C48 C 0.39103 0.61007 0.74406 0.0
C49 C 0.42542 0.61809 0.81252 0.0
C50 C 0.41869 0.63281 0.77079 0.0
C51 C 0.40138 0.62844 0.7359 0.0
C52 C 0.41467 0.59973 0.81889 0.0
N53 N 0.3979 0.59562 0.78384 0.0
H54 H 0.37663 0.60824 0.72117 0.0
H55 H 0.41917 0.5895 0.85488 0.0
H56 H 0.36578 0.61523 0.85866 0.0
H57 H 0.38265 0.55999 0.94135 0.0
O58 O 0.35462 0.58415 0.77377 0.0
O59 O 0.35753 0.55362 0.81604 0.0
O60 O 0.40296 0.55591 0.83775 0.0
C61 C 0.34582 0.56741 0.7914 0.0
H62 H 0.38914 0.52082 0.63322 0.0
H63 H 0.3638 0.6202 0.9783 0.0
H64 H 0.43843 0.62102 0.84157 0.0
H65 H 0.39499 0.63971 0.7053 0.0
Co66 Co 0.90166 0.37876 0.31935 0.0
C67 C 0.90454 0.38308 0.18636 0.0
C68 C 0.9309 0.39549 0.23099 0.0
C69 C 0.93361 0.39716 0.16912 0.0
N70 N 0.91266 0.38673 0.24158 0.0
N71 N 0.91705 0.38927 0.14108 0.0
H72 H 0.88989 0.37578 0.17965 0.0
H73 H 0.94177 0.39978 0.26566 0.0
C74 C 0.91073 0.41436 0.40111 0.0
O75 O 0.89205 0.41306 0.42272 0.0
N76 N 0.89104 0.37032 0.39815 0.0
C77 C 0.87296 0.36152 0.4116 0.0
C78 C 0.87204 0.35797 0.47316 0.0
C79 C 0.90117 0.37109 0.45161 0.0
N80 N 0.88972 0.3642 0.49839 0.0
C81 C 0.85974 0.38505 0.28809 0.0
C82 C 0.86007 0.42719 0.28544 0.0
C83 C 0.84167 0.41685 0.27542 0.0
C84 C 0.84176 0.39554 0.2754 0.0
C85 C 0.87795 0.41599 0.29656 0.0
N86 N 0.87736 0.39517 0.30202 0.0
H87 H 0.8594 0.36864 0.28577 0.0
H88 H 0.8922 0.42415 0.29998 0.0
H89 H 0.86116 0.3576 0.37967 0.0
H90 H 0.91661 0.37676 0.45624 0.0
O91 O 0.89267 0.3534 0.28441 0.0
O92 O 0.92289 0.35812 0.32718 0.0
O93 O 0.91661 0.40232 0.35884 0.0
C94 C 0.91028 0.34588 0.29954 0.0
H95 H 0.94709 0.403 0.14662 0.0
H96 H 0.85911 0.35175 0.49756 0.0
H97 H 0.8607 0.4437 0.28334 0.0
H98 H 0.82794 0.387 0.26614 0.0
Co99 Co 0.0995 0.90263 0.82229 0.0
C100 C 0.094 0.90478 0.68923 0.0
C101 C 0.08262 0.93155 0.73425 0.0
C102 C 0.08077 0.93431 0.67258 0.0
N103 N 0.09086 0.91305 0.74453 0.0
N104 N 0.08802 0.91752 0.64433 0.0
H105 H 0.10136 0.89018 0.68208 0.0
H106 H 0.07886 0.94258 0.76903 0.0
C107 C 0.06205 0.91113 0.8969 0.0
O108 O 0.06213 0.89192 0.91419 0.0
N109 N 0.10888 0.8929 0.90166 0.0
C110 C 0.12393 0.87928 0.91318 0.0
C111 C 0.12707 0.87804 0.97482 0.0
C112 C 0.10412 0.90062 0.95687 0.0
N113 N 0.11445 0.89138 0.00221 0.0
C114 C 0.09199 0.85966 0.81482 0.0
C115 C 0.05174 0.8618 0.77754 0.0
C116 C 0.06066 0.84265 0.78759 0.0
C117 C 0.08107 0.84173 0.80575 0.0
C118 C 0.0632 0.87952 0.78851 0.0
N119 N 0.08289 0.87829 0.80921 0.0
H120 H 0.10797 0.85842 0.82461 0.0
H121 H 0.05623 0.89424 0.78046 0.0
H122 H 0.13277 0.87123 0.87939 0.0
H123 H 0.09411 0.91346 0.96415 0.0
O124 O 0.12428 0.89292 0.78574 0.0
O125 O 0.12031 0.92374 0.8257 0.0
O126 O 0.07603 0.91781 0.86149 0.0
C127 C 0.13217 0.91061 0.79841 0.0
H128 H 0.07487 0.94781 0.65029 0.0
H129 H 0.13787 0.86815 0.99757 0.0
H130 H 0.0361 0.86304 0.76197 0.0
H131 H 0.08873 0.82719 0.81136 0.0
Co132 Co 0.57315 0.38104 0.18327 0.0
C133 C 0.57203 0.38675 0.31599 0.0
C134 C 0.54618 0.40072 0.27266 0.0
C135 C 0.54428 0.40318 0.33451 0.0
N136 N 0.56362 0.39051 0.26125 0.0
N137 N 0.56048 0.39428 0.36162 0.0
H138 H 0.58614 0.3784 0.32225 0.0
H139 H 0.53526 0.40549 0.23869 0.0
C140 C 0.56406 0.4184 0.10766 0.0
O141 O 0.58323 0.41906 0.09012 0.0
N142 N 0.58213 0.37096 0.10395 0.0
C143 C 0.59555 0.35576 0.09243 0.0
C144 C 0.59658 0.3525 0.03085 0.0
C145 C 0.5743 0.37571 0.04889 0.0
N146 N 0.58328 0.36518 0.00339 0.0
C147 C 0.61625 0.3875 0.18825 0.0
C148 C 0.61564 0.42841 0.21858 0.0
C149 C 0.63446 0.41882 0.20781 0.0
C150 C 0.63457 0.39802 0.19383 0.0
C151 C 0.59747 0.41724 0.21164 0.0
N152 N 0.59795 0.39725 0.19346 0.0
H153 H 0.61695 0.37133 0.18114 0.0
H154 H 0.58303 0.42473 0.22005 0.0
H155 H 0.60365 0.34696 0.12618 0.0
H156 H 0.56157 0.38589 0.04199 0.0
O157 O 0.58267 0.35638 0.22111 0.0
O158 O 0.55167 0.36062 0.1824 0.0
O159 O 0.55785 0.40426 0.14321 0.0
C160 C 0.56473 0.34879 0.21001 0.0
H161 H 0.53151 0.41017 0.35783 0.0
H162 H 0.60639 0.34158 0.00829 0.0
H163 H 0.61498 0.44437 0.23118 0.0
H164 H 0.64882 0.38979 0.18826 0.0
Co165 Co 0.09531 0.57281 0.68866 0.0
C166 C 0.09191 0.5686 0.82396 0.0
C167 C 0.08622 0.54066 0.77662 0.0
C168 C 0.08521 0.53685 0.83793 0.0
N169 N 0.08998 0.56067 0.76764 0.0
N170 N 0.0888 0.55446 0.8677 0.0
H171 H 0.0966 0.58399 0.83346 0.0
H172 H 0.08471 0.52945 0.74083 0.0
C173 C 0.05441 0.55338 0.67597 0.0
O174 O 0.04945 0.56223 0.7275 0.0
N175 N 0.10102 0.58423 0.60989 0.0
C176 C 0.10817 0.60309 0.59823 0.0
C177 C 0.10942 0.60558 0.53628 0.0
C178 C 0.09819 0.57539 0.55533 0.0
N179 N 0.10312 0.58816 0.50943 0.0
C180 C 0.0842 0.61066 0.74505 0.0
C181 C 0.05108 0.61931 0.67178 0.0
C182 C 0.05728 0.63386 0.71468 0.0
C183 C 0.07403 0.62922 0.75175 0.0
C184 C 0.06169 0.60084 0.6667 0.0
N185 N 0.0777 0.59634 0.70443 0.0
H186 H 0.09823 0.60859 0.76971 0.0
H187 H 0.05765 0.59071 0.63 0.0
H188 H 0.11198 0.61431 0.63241 0.0
H189 H 0.09221 0.56013 0.54941 0.0
O190 O 0.12065 0.5839 0.71828 0.0
O191 O 0.11725 0.55318 0.6775 0.0
O192 O 0.07211 0.55635 0.65292 0.0
C193 C 0.12915 0.56688 0.70171 0.0
H194 H 0.08223 0.52219 0.8588 0.0
H195 H 0.11466 0.61913 0.51288 0.0
H196 H 0.03854 0.6224 0.6411 0.0
H197 H 0.0801 0.64035 0.7833 0.0
Co198 Co 0.90825 0.09532 0.20846 0.0
C199 C 0.91239 0.09192 0.34346 0.0
C200 C 0.93984 0.08383 0.29646 0.0
C201 C 0.94358 0.08296 0.3579 0.0
N202 N 0.92011 0.08893 0.28722 0.0
N203 N 0.9263 0.08813 0.38734 0.0
H204 H 0.89729 0.09751 0.35276 0.0
H205 H 0.95101 0.0816 0.26087 0.0
C206 C 0.92676 0.05417 0.19091 0.0
O207 O 0.91769 0.04865 0.24161 0.0
N208 N 0.89716 0.10209 0.13001 0.0
C209 C 0.87849 0.10973 0.11828 0.0
C210 C 0.8764 0.11181 0.05636 0.0
C211 C 0.90623 0.09971 0.07556 0.0
N212 N 0.89384 0.10547 0.02954 0.0
C213 C 0.87024 0.0842 0.26405 0.0
C214 C 0.86078 0.05239 0.18682 0.0
C215 C 0.84639 0.05833 0.23061 0.0
C216 C 0.85146 0.07438 0.26976 0.0
C217 C 0.8795 0.06263 0.18278 0.0
N218 N 0.88438 0.07799 0.22235 0.0
H219 H 0.87258 0.09783 0.29025 0.0
H220 H 0.88951 0.05889 0.14546 0.0
H221 H 0.86709 0.11322 0.15232 0.0
H222 H 0.9216 0.09396 0.0699 0.0
O223 O 0.89754 0.12039 0.24085 0.0
O224 O 0.92823 0.11708 0.19954 0.0
O225 O 0.92435 0.07228 0.17042 0.0
C226 C 0.91474 0.12882 0.22555 0.0
H227 H 0.95813 0.0797 0.37912 0.0
H228 H 0.86287 0.1171 0.03294 0.0
H229 H 0.85736 0.0404 0.15455 0.0
H230 H 0.84048 0.08029 0.3021 0.0
Co231 Co 0.38046 0.90657 0.6876 0.0
C232 C 0.38391 0.91132 0.82268 0.0
C233 C 0.38918 0.93924 0.77473 0.0
C234 C 0.39017 0.94317 0.83608 0.0
N235 N 0.38568 0.91916 0.76613 0.0
N236 N 0.38686 0.92555 0.86621 0.0
H237 H 0.37947 0.8959 0.83257 0.0
H238 H 0.39058 0.95038 0.73868 0.0
C239 C 0.42146 0.92637 0.67281 0.0
O240 O 0.42658 0.91982 0.72712 0.0
N241 N 0.37492 0.8947 0.60927 0.0
C242 C 0.3682 0.87566 0.5979 0.0
C243 C 0.36688 0.87312 0.53593 0.0
C244 C 0.3774 0.90356 0.55452 0.0
N245 N 0.37269 0.89066 0.50874 0.0
C246 C 0.3903 0.86898 0.74711 0.0
C247 C 0.42464 0.8596 0.67985 0.0
C248 C 0.41782 0.84571 0.72382 0.0
C249 C 0.40047 0.85067 0.75777 0.0
C250 C 0.41419 0.87806 0.67146 0.0
N251 N 0.39753 0.8829 0.70625 0.0
H252 H 0.37586 0.87129 0.76946 0.0
H253 H 0.41891 0.88782 0.63459 0.0
H254 H 0.36466 0.8644 0.63225 0.0
H255 H 0.38293 0.91898 0.54839 0.0
O256 O 0.35471 0.89632 0.71696 0.0
O257 O 0.3591 0.92659 0.67395 0.0
O258 O 0.40395 0.92211 0.6506 0.0
C259 C 0.34674 0.9134 0.69862 0.0
H260 H 0.39294 0.95789 0.8567 0.0
H261 H 0.36188 0.85944 0.51277 0.0
H262 H 0.43761 0.85602 0.65122 0.0
H263 H 0.39405 0.83991 0.78995 0.0
C264 C 0.43412 0.93948 0.57301 0.0
C265 C 0.43601 0.93857 0.63649 0.0
C266 C 0.44749 0.95141 0.53853 0.0
C267 C 0.49703 0.97976 0.54711 0.0
H268 H 0.47583 0.00644 0.40304 0.0
C269 C 0.53823 0.04546 0.4193 0.0
C270 C 0.53996 0.04312 0.35602 0.0
C271 C 0.52631 0.03196 0.45342 0.0
C272 C 0.48198 0.99896 0.44294 0.0
H273 H 0.45334 0.94945 0.71372 0.0
H274 H 0.47613 0.97097 0.65407 0.0
H275 H 0.45348 0.9847 0.46329 0.0
H276 H 0.53054 0.02486 0.27889 0.0
H277 H 0.50926 0.00156 0.33851 0.0
H278 H 0.52535 0.99487 0.52746 0.0
C279 C 0.46477 0.962 0.6304 0.0
C280 C 0.46922 0.98637 0.47742 0.0
C281 C 0.45161 0.94975 0.66479 0.0
C282 C 0.52954 0.02701 0.32758 0.0
C283 C 0.5173 0.01374 0.36157 0.0
C284 C 0.50968 0.99266 0.51315 0.0
C285 C 0.46286 0.96307 0.56672 0.0
C286 C 0.47656 0.9765 0.52994 0.0
C287 C 0.51558 0.0161 0.42479 0.0
C288 C 0.50228 0.00231 0.46066 0.0
H289 H 0.42239 0.93083 0.54982 0.0
H290 H 0.44578 0.95136 0.48963 0.0
H291 H 0.50342 0.97218 0.58645 0.0
H292 H 0.54616 0.05768 0.44255 0.0
H293 H 0.52513 0.03416 0.50206 0.0
C294 C 0.5555 0.45158 0.05688 0.0
C295 C 0.54909 0.43282 0.08126 0.0
C296 C 0.54134 0.46495 0.0306 0.0
C297 C 0.49327 0.46576 0.94984 0.0
H298 H 0.48865 0.52238 0.99966 0.0
C299 C 0.44967 0.52732 0.8127 0.0
C300 C 0.43484 0.53827 0.8454 0.0
C301 C 0.46344 0.51454 0.84284 0.0
C302 C 0.4898 0.50659 0.98546 0.0
H303 H 0.52286 0.41329 0.097 0.0
H304 H 0.49827 0.4364 0.04942 0.0
H305 H 0.51336 0.49987 0.05029 0.0
H306 H 0.42302 0.54472 0.9354 0.0
H307 H 0.44759 0.52276 0.98831 0.0
H308 H 0.4701 0.47256 0.88404 0.0
C309 C 0.5142 0.44083 0.05141 0.0
C310 C 0.50395 0.49379 0.01411 0.0
C311 C 0.52826 0.42768 0.07884 0.0
C312 C 0.43424 0.5364 0.909 0.0
C313 C 0.44832 0.52394 0.93928 0.0
C314 C 0.47945 0.47865 0.92034 0.0
C315 C 0.52061 0.45957 0.02703 0.0
C316 C 0.50574 0.47324 0.9967 0.0
C317 C 0.46293 0.51279 0.90638 0.0
C318 C 0.47754 0.49916 0.93801 0.0
H319 H 0.57144 0.45597 0.05826 0.0
H320 H 0.54665 0.47928 0.01183 0.0
H321 H 0.49444 0.44999 0.93543 0.0
H322 H 0.45045 0.52839 0.76365 0.0
H323 H 0.47463 0.50616 0.81653 0.0
C324 C 0.94472 0.43208 0.40135 0.0
C325 C 0.92515 0.42953 0.42662 0.0
C326 C 0.95854 0.44596 0.42664 0.0
C327 C 0.96996 0.47306 0.56947 0.0
H328 H 0.00359 0.50755 0.46697 0.0
C329 C 0.01982 0.53724 0.66936 0.0
C330 C 0.03947 0.53997 0.64497 0.0
C331 C 0.00583 0.52417 0.64139 0.0
C332 C 0.99449 0.49786 0.49624 0.0
H333 H 0.90474 0.43971 0.49815 0.0
H334 H 0.9288 0.46397 0.54195 0.0
H335 H 0.97924 0.48405 0.42063 0.0
H336 H 0.05976 0.53122 0.57151 0.0
H337 H 0.03542 0.50819 0.52311 0.0
H338 H 0.98525 0.4867 0.64504 0.0
C339 C 0.93352 0.4551 0.50289 0.0
C340 C 0.98051 0.48441 0.46966 0.0
C341 C 0.91968 0.44129 0.47749 0.0
C342 C 0.04474 0.52949 0.59148 0.0
C343 C 0.03073 0.51636 0.56353 0.0
C344 C 0.98395 0.48646 0.59601 0.0
C345 C 0.95315 0.45754 0.47796 0.0
C346 C 0.96804 0.47188 0.50598 0.0
C347 C 0.01114 0.51344 0.58838 0.0
C348 C 0.99636 0.49908 0.55978 0.0
H349 H 0.94946 0.42325 0.36223 0.0
H350 H 0.97361 0.44731 0.4067 0.0
H351 H 0.96086 0.46337 0.59875 0.0
H352 H 0.01519 0.54515 0.7103 0.0
H353 H 0.99077 0.52258 0.66121 0.0
C354 C 0.95074 0.04529 0.10575 0.0
C355 C 0.93971 0.03935 0.15766 0.0
C356 C 0.9634 0.03136 0.07561 0.0
C357 C 0.99078 0.98246 0.09993 0.0
H358 H 0.99492 0.98218 0.92424 0.0
C359 C 0.03401 0.91923 0.97065 0.0
C360 C 0.047 0.92551 0.92335 0.0
C361 C 0.02045 0.93302 0.99755 0.0
C362 C 0.99405 0.98219 0.97337 0.0
H363 H 0.933 0.01394 0.21767 0.0
H364 H 0.9547 0.98965 0.16466 0.0
H365 H 0.97206 0.0064 0.97416 0.0
H366 H 0.05563 0.95115 0.86645 0.0
H367 H 0.03193 0.9752 0.91343 0.0
H368 H 0.01267 0.95819 0.09913 0.0
C369 C 0.95396 0.00517 0.14789 0.0
C370 C 0.98098 0.99609 0.00202 0.0
C371 C 0.94139 0.0191 0.17813 0.0
C372 C 0.04585 0.94581 0.90283 0.0
C373 C 0.03219 0.95957 0.92951 0.0
C374 C 0.00375 0.96852 0.07131 0.0
C375 C 0.96527 0.01114 0.09655 0.0
C376 C 0.97916 0.99639 0.06571 0.0
C377 C 0.01947 0.95339 0.97758 0.0
C378 C 0.00554 0.9682 0.0077 0.0
H379 H 0.94981 0.06078 0.08877 0.0
H380 H 0.97204 0.03657 0.03663 0.0
H381 H 0.99011 0.9825 0.14908 0.0
H382 H 0.03447 0.90372 0.98757 0.0
H383 H 0.01067 0.92771 0.03397 0.0
C384 C 0.57548 0.16529 0.24316 0.0
C385 C 0.56205 0.15411 0.28009 0.0
C386 C 0.57321 0.18632 0.23658 0.0
C387 C 0.57472 0.2309 0.26629 0.0
H388 H 0.52284 0.25883 0.2487 0.0
C389 C 0.57192 0.31775 0.27115 0.0
C390 C 0.56013 0.32744 0.22645 0.0
C391 C 0.56964 0.29695 0.28251 0.0
C392 C 0.53744 0.25122 0.25334 0.0
H393 H 0.53523 0.15607 0.33756 0.0
H394 H 0.53145 0.19316 0.32694 0.0
H395 H 0.52365 0.22149 0.25588 0.0
H396 H 0.53596 0.32326 0.16051 0.0
H397 H 0.5323 0.28654 0.17914 0.0
H398 H 0.58868 0.26023 0.26196 0.0
C399 C 0.54363 0.18553 0.30257 0.0
C400 C 0.53788 0.22987 0.25803 0.0
C401 C 0.54584 0.16433 0.30889 0.0
C402 C 0.54525 0.31613 0.19526 0.0
C403 C 0.54312 0.29513 0.20611 0.0
C404 C 0.57429 0.25209 0.26153 0.0
C405 C 0.55756 0.1968 0.26721 0.0
C406 C 0.55659 0.21947 0.26403 0.0
C407 C 0.55573 0.28521 0.24872 0.0
C408 C 0.55568 0.26257 0.255 0.0
H409 H 0.58795 0.15783 0.21963 0.0
H410 H 0.5839 0.19443 0.20778 0.0
H411 H 0.58938 0.22345 0.27186 0.0
H412 H 0.58328 0.32618 0.29664 0.0
H413 H 0.57919 0.28996 0.31687 0.0
C414 C 0.16022 0.54428 0.70645 0.0
C415 C 0.15139 0.56384 0.70868 0.0
C416 C 0.18139 0.54186 0.71338 0.0
C417 C 0.22924 0.56892 0.68992 0.0
H418 H 0.25272 0.53569 0.81788 0.0
C419 C 0.31149 0.5813 0.76618 0.0
C420 C 0.32361 0.56452 0.7827 0.0
C421 C 0.29067 0.57893 0.75528 0.0
C422 C 0.24646 0.54474 0.7812 0.0
H423 H 0.15774 0.59612 0.7195 0.0
H424 H 0.19452 0.59191 0.72997 0.0
H425 H 0.21573 0.53516 0.80058 0.0
H426 H 0.32335 0.53207 0.80157 0.0
H427 H 0.28677 0.52777 0.78124 0.0
H428 H 0.25964 0.57852 0.66985 0.0
C429 C 0.18513 0.57847 0.72339 0.0
C430 C 0.22529 0.54445 0.77144 0.0
C431 C 0.16407 0.58086 0.71766 0.0
C432 C 0.31436 0.54528 0.78898 0.0
C433 C 0.29341 0.54285 0.77749 0.0
C434 C 0.25031 0.56903 0.69906 0.0
C435 C 0.19402 0.55899 0.72126 0.0
C436 C 0.21648 0.55698 0.72678 0.0
C437 C 0.28136 0.55965 0.75981 0.0
C438 C 0.25917 0.55745 0.74603 0.0
H439 H 0.15078 0.5309 0.69981 0.0
H440 H 0.18793 0.52668 0.71153 0.0
H441 H 0.22283 0.57849 0.65457 0.0
H442 H 0.31809 0.59639 0.76165 0.0
H443 H 0.28183 0.59235 0.74355 0.0
C444 C 0.93399 0.16154 0.20755 0.0
C445 C 0.9182 0.1508 0.23669 0.0
C446 C 0.93575 0.18275 0.21479 0.0
C447 C 0.94036 0.22724 0.25978 0.0
H448 H 0.88852 0.25584 0.25807 0.0
C449 C 0.93031 0.3137 0.31844 0.0
C450 C 0.91512 0.32432 0.28626 0.0
C451 C 0.93299 0.29266 0.30952 0.0
C452 C 0.90318 0.24819 0.25799 0.0
H453 H 0.89271 0.15356 0.29911 0.0
H454 H 0.896 0.19016 0.3126 0.0
H455 H 0.88905 0.21904 0.24896 0.0
H456 H 0.89193 0.32167 0.21647 0.0
H457 H 0.89692 0.28539 0.19987 0.0
H458 H 0.95442 0.25674 0.26771 0.0
C459 C 0.90668 0.18247 0.28277 0.0
C460 C 0.90346 0.22698 0.25365 0.0
C461 C 0.90484 0.16144 0.27523 0.0
C462 C 0.9035 0.31383 0.24278 0.0
C463 C 0.90631 0.29298 0.23344 0.0
C464 C 0.94008 0.24861 0.26412 0.0
C465 C 0.92179 0.1935 0.25148 0.0
C466 C 0.92201 0.21619 0.25492 0.0
C467 C 0.92063 0.28198 0.26796 0.0
C468 C 0.92144 0.25932 0.26313 0.0
H469 H 0.94453 0.1537 0.17764 0.0
H470 H 0.94753 0.19081 0.18993 0.0
H471 H 0.9549 0.21936 0.26114 0.0
H472 H 0.93949 0.32145 0.3522 0.0
H473 H 0.94412 0.28463 0.33697 0.0
C474 C 0.31643 0.93693 0.70283 0.0
C475 C 0.32458 0.91708 0.70405 0.0
C476 C 0.29531 0.94 0.70857 0.0
C477 C 0.24684 0.9156 0.67842 0.0
H478 H 0.22384 0.94432 0.81645 0.0
C479 C 0.16592 0.89931 0.75906 0.0
C480 C 0.15372 0.91498 0.78307 0.0
C481 C 0.18632 0.90282 0.74459 0.0
C482 C 0.22996 0.93664 0.77689 0.0
H483 H 0.31712 0.88492 0.71142 0.0
H484 H 0.28037 0.89027 0.71952 0.0
H485 H 0.26082 0.945 0.799 0.0
H486 H 0.15336 0.94672 0.81066 0.0
H487 H 0.18925 0.95302 0.78437 0.0
H488 H 0.2163 0.90707 0.65597 0.0
C489 C 0.29028 0.90343 0.71488 0.0
C490 C 0.25111 0.937 0.76708 0.0
C491 C 0.3113 0.9004 0.71052 0.0
C492 C 0.16241 0.93435 0.79223 0.0
C493 C 0.18296 0.93792 0.77738 0.0
C494 C 0.22577 0.91546 0.68763 0.0
C495 C 0.28209 0.92322 0.71403 0.0
C496 C 0.25973 0.92591 0.7189 0.0
C497 C 0.19513 0.92216 0.75316 0.0
C498 C 0.21711 0.92531 0.73828 0.0
H499 H 0.32638 0.95005 0.69812 0.0
H500 H 0.28928 0.9554 0.70784 0.0
H501 H 0.25315 0.90714 0.64052 0.0
H502 H 0.15979 0.88415 0.75191 0.0
H503 H 0.19529 0.89015 0.72763 0.0
C504 C 0.43072 0.81713 0.78882 0.0
C505 C 0.42714 0.82519 0.73068 0.0
C506 C 0.43609 0.79664 0.79614 0.0
C507 C 0.45148 0.74929 0.71307 0.0
H508 H 0.42016 0.7229 0.8403 0.0
C509 C 0.42986 0.66381 0.7124 0.0
C510 C 0.42788 0.65355 0.76822 0.0
C511 C 0.43504 0.6845 0.71064 0.0
C512 C 0.42938 0.72999 0.80532 0.0
H513 H 0.42734 0.81842 0.63441 0.0
H514 H 0.43636 0.78253 0.64702 0.0
H515 H 0.41977 0.75978 0.83202 0.0
H516 H 0.43101 0.65675 0.86582 0.0
H517 H 0.44042 0.69274 0.86268 0.0
H518 H 0.46038 0.71921 0.68512 0.0
C519 C 0.43539 0.79207 0.68706 0.0
C520 C 0.42917 0.75123 0.80055 0.0
C521 C 0.43019 0.81266 0.67974 0.0
C522 C 0.4325 0.66413 0.82202 0.0
C523 C 0.43766 0.68483 0.82027 0.0
C524 C 0.45163 0.72796 0.71775 0.0
C525 C 0.43776 0.78365 0.74549 0.0
C526 C 0.43995 0.76117 0.75382 0.0
C527 C 0.43834 0.69543 0.7647 0.0
C528 C 0.44031 0.71806 0.7634 0.0
H529 H 0.42869 0.82654 0.82883 0.0
H530 H 0.43829 0.79081 0.84171 0.0
H531 H 0.46017 0.75644 0.67703 0.0
H532 H 0.42663 0.65602 0.6701 0.0
H533 H 0.43532 0.69218 0.66707 0.0
C534 C 0.8138 0.44037 0.3096 0.0
C535 C 0.82226 0.42779 0.26451 0.0
C536 C 0.79372 0.44755 0.30395 0.0
C537 C 0.75078 0.45385 0.19547 0.0
H538 H 0.7165 0.43769 0.33084 0.0
C539 C 0.6686 0.42741 0.16505 0.0
C540 C 0.6542 0.4298 0.21178 0.0
C541 C 0.68855 0.43441 0.17217 0.0
C542 C 0.72579 0.44285 0.29313 0.0
H543 H 0.81707 0.41379 0.17689 0.0
H544 H 0.78225 0.42659 0.16627 0.0
H545 H 0.75351 0.43717 0.34189 0.0
H546 H 0.64898 0.44247 0.30121 0.0
H547 H 0.68408 0.45495 0.31384 0.0
H548 H 0.72311 0.45882 0.14593 0.0
C549 C 0.79097 0.43095 0.206 0.0
C550 C 0.74705 0.44251 0.29948 0.0
C551 C 0.81085 0.42354 0.21211 0.0
C552 C 0.6598 0.4405 0.26444 0.0
C553 C 0.67992 0.44746 0.2718 0.0
C554 C 0.72953 0.45434 0.18925 0.0
C555 C 0.78195 0.44252 0.25262 0.0
C556 C 0.75976 0.44721 0.24994 0.0
C557 C 0.69468 0.44397 0.22635 0.0
C558 C 0.71679 0.44799 0.23715 0.0
H559 H 0.82229 0.44368 0.35064 0.0
H560 H 0.78717 0.45648 0.34048 0.0
H561 H 0.7602 0.45786 0.15681 0.0
H562 H 0.66462 0.4193 0.12384 0.0
H563 H 0.69947 0.43119 0.13646 0.0
C564 C 0.04869 0.80876 0.82414 0.0
C565 C 0.04945 0.82336 0.77754 0.0
C566 C 0.04183 0.789 0.81234 0.0
C567 C 0.0422 0.75254 0.68891 0.0
H568 H 0.01365 0.71824 0.80469 0.0
C569 C 0.04312 0.66518 0.66356 0.0
C570 C 0.0479 0.65454 0.71721 0.0
C571 C 0.03713 0.68568 0.66574 0.0
C572 C 0.02167 0.72759 0.77186 0.0
H573 H 0.04274 0.82923 0.68292 0.0
H574 H 0.03082 0.7944 0.6618 0.0
H575 H 0.01372 0.75523 0.81826 0.0
H576 H 0.0487 0.65673 0.81543 0.0
H577 H 0.03889 0.69247 0.81924 0.0
H578 H 0.05119 0.725 0.64439 0.0
C579 C 0.03549 0.79831 0.70753 0.0
C580 C 0.02162 0.74878 0.77953 0.0
C581 C 0.04213 0.81823 0.71963 0.0
C582 C 0.04543 0.66455 0.7732 0.0
C583 C 0.03953 0.68503 0.77538 0.0
C584 C 0.04237 0.73135 0.68145 0.0
C585 C 0.03581 0.78334 0.75344 0.0
C586 C 0.03242 0.76144 0.73916 0.0
C587 C 0.03583 0.69603 0.7216 0.0
C588 C 0.03265 0.71855 0.72391 0.0
H589 H 0.05433 0.8124 0.86911 0.0
H590 H 0.0425 0.77782 0.84854 0.0
H591 H 0.05088 0.76183 0.65742 0.0
H592 H 0.04496 0.65802 0.61959 0.0
H593 H 0.03411 0.69358 0.62348 0.0
C594 C 0.81499 0.04688 0.28691 0.0
C595 C 0.82535 0.04971 0.23155 0.0
C596 C 0.7942 0.04203 0.28774 0.0
C597 C 0.74876 0.04929 0.19273 0.0
H598 H 0.7219 0.01742 0.3179 0.0
C599 C 0.66156 0.04722 0.20585 0.0
C600 C 0.65331 0.0509 0.26373 0.0
C601 C 0.6821 0.0419 0.19916 0.0
C602 C 0.72919 0.0264 0.2827 0.0
H603 H 0.82213 0.04845 0.13354 0.0
H604 H 0.78605 0.03944 0.13501 0.0
H605 H 0.75918 0.01718 0.31056 0.0
H606 H 0.65979 0.0508 0.36021 0.0
H607 H 0.69574 0.04172 0.34865 0.0
H608 H 0.719 0.05906 0.16593 0.0
C609 C 0.79393 0.04137 0.17787 0.0
C610 C 0.75054 0.02626 0.27849 0.0
C611 C 0.81471 0.04628 0.17704 0.0
C612 C 0.66569 0.04788 0.31506 0.0
C613 C 0.6863 0.04267 0.30837 0.0
C614 C 0.72749 0.04942 0.19691 0.0
C615 C 0.78327 0.03984 0.23318 0.0
C616 C 0.76059 0.03798 0.23401 0.0
C617 C 0.69491 0.04029 0.25019 0.0
C618 C 0.71742 0.03824 0.24249 0.0
H619 H 0.8228 0.04912 0.32974 0.0
H620 H 0.7865 0.04107 0.33119 0.0
H621 H 0.75594 0.05884 0.1587 0.0
H622 H 0.65229 0.04918 0.16554 0.0
H623 H 0.68811 0.03971 0.15379 0.0
C624 C 0.56404 0.10688 0.56935 0.0
C625 C 0.58403 0.10509 0.54647 0.0
C626 C 0.56024 0.10519 0.63171 0.0
C627 C 0.5822 0.08444 0.77331 0.0
H628 H 0.54523 0.12225 0.85254 0.0
C629 C 0.57552 0.08923 0.03432 0.0
C630 C 0.55608 0.09245 0.05981 0.0
C631 C 0.5785 0.09045 0.97155 0.0
C632 C 0.55539 0.11138 0.83104 0.0
H633 H 0.61564 0.09988 0.57146 0.0
H634 H 0.60905 0.09716 0.68008 0.0
H635 H 0.55114 0.12498 0.74344 0.0
H636 H 0.5245 0.09951 0.03851 0.0
H637 H 0.52959 0.10114 0.92907 0.0
H638 H 0.58641 0.07076 0.86065 0.0
C639 C 0.59629 0.09976 0.64975 0.0
C640 C 0.55879 0.11298 0.76847 0.0
C641 C 0.6001 0.10156 0.58749 0.0
C642 C 0.53965 0.09677 0.02068 0.0
C643 C 0.54263 0.09795 0.95782 0.0
C644 C 0.57874 0.08279 0.83579 0.0
C645 C 0.57632 0.10154 0.67262 0.0
C646 C 0.57233 0.0996 0.73892 0.0
C647 C 0.5621 0.09485 0.93244 0.0
C648 C 0.56538 0.09631 0.86557 0.0
H649 H 0.55134 0.10978 0.53915 0.0
H650 H 0.54466 0.10648 0.6478 0.0
H651 H 0.59246 0.07368 0.75177 0.0
H652 H 0.58849 0.0856 0.06277 0.0
H653 H 0.59376 0.08821 0.95378 0.0
C654 C 0.37929 0.54046 0.51956 0.0
C655 C 0.38479 0.55652 0.55865 0.0
C656 C 0.37853 0.54345 0.45673 0.0
C657 C 0.39681 0.57802 0.33487 0.0
H658 H 0.3527 0.55375 0.24224 0.0
C659 C 0.37965 0.60044 0.08658 0.0
C660 C 0.37511 0.58459 0.04577 0.0
C661 C 0.38124 0.59658 0.1488 0.0
C662 C 0.36524 0.56044 0.26739 0.0
H663 H 0.39419 0.58826 0.56166 0.0
H664 H 0.3923 0.59362 0.45256 0.0
H665 H 0.35469 0.54789 0.35147 0.0
H666 H 0.3685 0.55227 0.03849 0.0
H667 H 0.37139 0.54548 0.14722 0.0
H668 H 0.40716 0.59079 0.25078 0.0
C669 C 0.38881 0.57861 0.47041 0.0
C670 C 0.36641 0.55707 0.32999 0.0
C671 C 0.38962 0.57561 0.53319 0.0
C672 C 0.37218 0.56477 0.06865 0.0
C673 C 0.37364 0.56092 0.13097 0.0
C674 C 0.39558 0.58147 0.27234 0.0
C675 C 0.38323 0.56258 0.43137 0.0
C676 C 0.38218 0.56587 0.36456 0.0
C677 C 0.37822 0.57678 0.17171 0.0
C678 C 0.37974 0.57277 0.23795 0.0
H679 H 0.37528 0.52561 0.53739 0.0
H680 H 0.37441 0.53069 0.42799 0.0
H681 H 0.40937 0.58473 0.35984 0.0
H682 H 0.38221 0.61583 0.0704 0.0
H683 H 0.38461 0.60915 0.17909 0.0
C684 C 0.90172 0.37102 0.05367 0.0
C685 C 0.91414 0.38676 0.07646 0.0
C686 C 0.89948 0.36819 0.99104 0.0
C687 C 0.92427 0.38007 0.84381 0.0
H688 H 0.8713 0.36621 0.77706 0.0
C689 C 0.90738 0.38042 0.58534 0.0
C690 C 0.89438 0.36517 0.56241 0.0
C691 C 0.91052 0.38242 0.64793 0.0
C692 C 0.88627 0.36981 0.79498 0.0
H693 H 0.93352 0.41218 0.05087 0.0
H694 H 0.92956 0.40731 0.9418 0.0
H695 H 0.87496 0.37122 0.88612 0.0
H696 H 0.8752 0.33955 0.58733 0.0
H697 H 0.88075 0.34292 0.69632 0.0
H698 H 0.93555 0.37873 0.75253 0.0
C699 C 0.92185 0.3969 0.97237 0.0
C700 C 0.88836 0.3727 0.8576 0.0
C701 C 0.9241 0.39971 0.03498 0.0
C702 C 0.88504 0.35165 0.6035 0.0
C703 C 0.8882 0.35362 0.66602 0.0
C704 C 0.92218 0.37718 0.78114 0.0
C705 C 0.90959 0.38104 0.94957 0.0
C706 C 0.90739 0.3779 0.88284 0.0
C707 C 0.90074 0.36921 0.68913 0.0
C708 C 0.90314 0.37201 0.75592 0.0
H709 H 0.89409 0.36054 0.08414 0.0
H710 H 0.89015 0.35564 0.97512 0.0
H711 H 0.93922 0.38374 0.86177 0.0
H712 H 0.91457 0.39129 0.55511 0.0
H713 H 0.92009 0.39474 0.66412 0.0
C714 C 0.12822 0.89102 0.10683 0.0
C715 C 0.112 0.89469 0.06651 0.0
C716 C 0.12555 0.89351 0.16939 0.0
C717 C 0.09178 0.9181 0.28303 0.0
H718 H 0.11709 0.87956 0.39353 0.0
C719 C 0.09327 0.93153 0.54133 0.0
C720 C 0.09043 0.91465 0.57982 0.0
C721 C 0.09576 0.92886 0.47889 0.0
C722 C 0.10975 0.89034 0.36331 0.0
H723 H 0.08018 0.90364 0.06038 0.0
H724 H 0.07545 0.90783 0.16935 0.0
H725 H 0.12147 0.87532 0.28435 0.0
H726 H 0.08783 0.88171 0.58276 0.0
H727 H 0.09195 0.87698 0.47336 0.0
H728 H 0.07961 0.9328 0.3618 0.0
C729 C 0.09038 0.90342 0.15266 0.0
C730 C 0.1125 0.88808 0.30069 0.0
C731 C 0.09308 0.90103 0.09013 0.0
C732 C 0.09019 0.89499 0.55436 0.0
C733 C 0.09258 0.8923 0.4917 0.0
C734 C 0.08898 0.92031 0.34558 0.0
C735 C 0.10656 0.89963 0.19312 0.0
C736 C 0.10359 0.90197 0.25977 0.0
C737 C 0.09539 0.90923 0.4532 0.0
C738 C 0.098 0.90652 0.38654 0.0
H739 H 0.14304 0.88638 0.09001 0.0
H740 H 0.13845 0.89083 0.19911 0.0
H741 H 0.08486 0.9292 0.25294 0.0
H742 H 0.09396 0.94685 0.55957 0.0
H743 H 0.09832 0.9422 0.45085 0.0
C744 C 0.55624 0.40641 0.46705 0.0
C745 C 0.56367 0.3918 0.42592 0.0
C746 C 0.55848 0.40358 0.52959 0.0
C747 C 0.5876 0.37386 0.64412 0.0
H748 H 0.54279 0.3892 0.75 0.0
C749 C 0.58536 0.35196 0.89809 0.0
C750 C 0.57983 0.36751 0.93897 0.0
C751 C 0.58305 0.3547 0.83552 0.0
C752 C 0.55548 0.38499 0.72104 0.0
H753 H 0.57919 0.36269 0.4182 0.0
H754 H 0.58291 0.35759 0.52724 0.0
H755 H 0.5398 0.39458 0.64078 0.0
H756 H 0.56746 0.39821 0.94541 0.0
H757 H 0.56316 0.40279 0.83651 0.0
H758 H 0.60315 0.36406 0.72455 0.0
C759 C 0.57572 0.37147 0.51125 0.0
C760 C 0.55382 0.38813 0.65845 0.0
C761 C 0.57359 0.37438 0.44868 0.0
C762 C 0.57158 0.38574 0.91561 0.0
C763 C 0.56915 0.38842 0.85307 0.0
C764 C 0.5892 0.37061 0.70667 0.0
C765 C 0.56808 0.38598 0.55253 0.0
C766 C 0.56988 0.38265 0.61919 0.0
C767 C 0.57505 0.37301 0.81233 0.0
C768 C 0.57318 0.37617 0.74581 0.0
H769 H 0.54877 0.4201 0.4508 0.0
H770 H 0.55278 0.41527 0.55996 0.0
H771 H 0.6004 0.36976 0.61543 0.0
H772 H 0.59145 0.33761 0.91426 0.0
H773 H 0.58744 0.34243 0.80524 0.0
C774 C 0.09426 0.541 0.97159 0.0
C775 C 0.08992 0.55744 0.93255 0.0
C776 C 0.09536 0.54392 0.03436 0.0
C777 C 0.07964 0.57958 0.15612 0.0
H778 H 0.12197 0.55224 0.24871 0.0
C779 C 0.09797 0.60046 0.40447 0.0
C780 C 0.10142 0.5843 0.44521 0.0
C781 C 0.09623 0.59678 0.34224 0.0
C782 C 0.10993 0.5598 0.22356 0.0
H783 H 0.08305 0.58982 0.92945 0.0
H784 H 0.08552 0.59501 0.03856 0.0
H785 H 0.11965 0.54668 0.1394 0.0
H786 H 0.10594 0.55161 0.45237 0.0
H787 H 0.10276 0.54514 0.34356 0.0
H788 H 0.0701 0.59288 0.24025 0.0
C789 C 0.08782 0.57979 0.02068 0.0
C790 C 0.10858 0.55661 0.16094 0.0
C791 C 0.08667 0.57686 0.95794 0.0
C792 C 0.10311 0.56436 0.42225 0.0
C793 C 0.10149 0.56068 0.3599 0.0
C794 C 0.08105 0.58284 0.21866 0.0
C795 C 0.09218 0.56335 0.05967 0.0
C796 C 0.09345 0.56651 0.12643 0.0
C797 C 0.09799 0.57685 0.31925 0.0
C798 C 0.09625 0.57304 0.25302 0.0
H799 H 0.09705 0.52587 0.95375 0.0
H800 H 0.09852 0.53088 0.06311 0.0
H801 H 0.06758 0.58716 0.13113 0.0
H802 H 0.09635 0.61596 0.42071 0.0
H803 H 0.09372 0.60958 0.31201 0.0
C804 C 0.9093 0.10418 0.47564 0.0
C805 C 0.92357 0.09025 0.45203 0.0
C806 C 0.90654 0.10609 0.5383 0.0
C807 C 0.93141 0.0954 0.68588 0.0
H808 H 0.87643 0.10148 0.74892 0.0
C809 C 0.91236 0.09038 0.94225 0.0
C810 C 0.898 0.10437 0.96524 0.0
C811 C 0.91592 0.08894 0.87978 0.0
C812 C 0.8919 0.10002 0.73201 0.0
H813 H 0.94605 0.06732 0.47585 0.0
H814 H 0.94117 0.07054 0.58528 0.0
H815 H 0.88176 0.09831 0.63984 0.0
H816 H 0.87659 0.12822 0.94034 0.0
H817 H 0.88276 0.12565 0.83154 0.0
H818 H 0.9415 0.097 0.77828 0.0
C819 C 0.93232 0.08023 0.55533 0.0
C820 C 0.89496 0.09822 0.66946 0.0
C821 C 0.93512 0.07836 0.49261 0.0
C822 C 0.88748 0.11703 0.92424 0.0
C823 C 0.89102 0.11557 0.86181 0.0
C824 C 0.92833 0.09717 0.74852 0.0
C825 C 0.91796 0.09408 0.57893 0.0
C826 C 0.91475 0.09592 0.64559 0.0
C827 C 0.9052 0.10143 0.83881 0.0
C828 C 0.90854 0.09954 0.77228 0.0
H829 H 0.90045 0.11387 0.44579 0.0
H830 H 0.89563 0.11718 0.55494 0.0
H831 H 0.94688 0.09395 0.66897 0.0
H832 H 0.92052 0.08018 0.97231 0.0
H833 H 0.92676 0.07771 0.86346 0.0
C834 C 0.3775 0.87852 0.40335 0.0
C835 C 0.37408 0.89459 0.44437 0.0
C836 C 0.37889 0.88226 0.34101 0.0
C837 C 0.3882 0.92345 0.22884 0.0
H838 H 0.36392 0.88486 0.11661 0.0
C839 C 0.38124 0.93892 0.97034 0.0
C840 C 0.38577 0.92256 0.93117 0.0
C841 C 0.37988 0.93587 0.03312 0.0
C842 C 0.37095 0.89569 0.14733 0.0
H843 H 0.3692 0.92722 0.45171 0.0
H844 H 0.37143 0.93377 0.34286 0.0
H845 H 0.36119 0.87896 0.22555 0.0
H846 H 0.39303 0.89025 0.92811 0.0
H847 H 0.39045 0.88494 0.03721 0.0
H848 H 0.39781 0.94024 0.15031 0.0
C849 C 0.37341 0.91828 0.35903 0.0
C850 C 0.36941 0.89229 0.20983 0.0
C851 C 0.37211 0.91453 0.42148 0.0
C852 C 0.38909 0.90313 0.95654 0.0
C853 C 0.38764 0.90007 0.01921 0.0
C854 C 0.38965 0.92689 0.16626 0.0
C855 C 0.37679 0.90218 0.31798 0.0
C856 C 0.37811 0.90607 0.25142 0.0
C857 C 0.38295 0.91638 0.05822 0.0
C858 C 0.38114 0.91298 0.12479 0.0
H859 H 0.37947 0.86304 0.41947 0.0
H860 H 0.3819 0.86954 0.31091 0.0
H861 H 0.39533 0.93423 0.25948 0.0
H862 H 0.37834 0.95404 0.95254 0.0
H863 H 0.37602 0.94871 0.0619 0.0
loop_
_geom_bond_atom_site_label_1
_geom_bond_atom_site_label_2
_geom_bond_distance
_geom_bond_site_symmetry_2
_ccdc_geom_bond_type
Co0 N4 2.148 . S
Co0 N10 2.128 . S
Co0 N20 2.194 . S
Co0 O25 2.351 . S
Co0 O26 2.155 . S
Co0 O27 2.096 . S
C1 N4 1.301 . S
C1 N5 1.328 . S
C1 H6 0.930 . S
C2 C3 1.333 . S
C2 N4 1.317 . S
C2 H7 0.930 . S
C3 C2 1.333 . S
C3 N5 1.350 . S
C3 H29 0.931 . S
N4 Co0 2.148 . S
N4 C1 1.301 . S
N4 C2 1.317 . S
N5 C1 1.328 . S
N5 C3 1.350 . S
H6 C1 0.930 . S
H7 C2 0.930 . S
C8 O9 1.224 . S
C8 O27 1.247 . S
O9 C8 1.224 . S
N10 Co0 2.128 . S
N10 C11 1.355 . S
N10 C13 1.311 . S
C11 N10 1.355 . S
C11 C12 1.363 . S
C11 H23 0.929 . S
C12 C11 1.363 . S
C12 N14 1.375 . S
C12 H30 0.931 . S
C13 N10 1.311 . S
C13 N14 1.347 . S
C13 H24 0.929 . S
N14 C12 1.375 . S
N14 C13 1.347 . S
C15 C18 1.365 . S
C15 N20 1.328 . S
C15 H21 0.929 . S
C16 C17 1.362 . S
C16 C19 1.378 . S
C16 H31 0.929 . S
C17 C16 1.362 . S
C17 C18 1.366 . S
C18 C15 1.365 . S
C18 C17 1.366 . S
C18 H32 0.930 . S
C19 C16 1.378 . S
C19 N20 1.315 . S
C19 H22 0.930 . S
N20 Co0 2.194 . S
N20 C15 1.328 . S
N20 C19 1.315 . S
H21 C15 0.929 . S
H22 C19 0.930 . S
H23 C11 0.929 . S
H24 C13 0.929 . S
O25 Co0 2.351 . S
O25 C28 1.244 . S
O26 Co0 2.155 . S
O26 C28 1.240 . S
O27 Co0 2.096 . S
O27 C8 1.247 . S
C28 O25 1.244 . S
C28 O26 1.240 . S
H29 C3 0.931 . S
H30 C12 0.931 . S
H31 C16 0.929 . S
H32 C18 0.930 . S
Co33 N37 2.148 . S
Co33 N43 2.128 . S
Co33 N53 2.194 . S
Co33 O58 2.351 . S
Co33 O59 2.155 . S
Co33 O60 2.096 . S
C34 N37 1.301 . S
C34 N38 1.328 . S
C34 H39 0.930 . S
C35 C36 1.333 . S
C35 N37 1.317 . S
C35 H40 0.930 . S
C36 C35 1.333 . S
C36 N38 1.350 . S
C36 H62 0.931 . S
N37 Co33 2.148 . S
N37 C34 1.301 . S
N37 C35 1.317 . S
N38 C34 1.328 . S
N38 C36 1.350 . S
H39 C34 0.930 . S
H40 C35 0.930 . S
C41 O42 1.224 . S
C41 O60 1.247 . S
O42 C41 1.224 . S
N43 Co33 2.128 . S
N43 C44 1.355 . S
N43 C46 1.311 . S
C44 N43 1.355 . S
C44 C45 1.363 . S
C44 H56 0.929 . S
C45 C44 1.363 . S
C45 N47 1.375 1_556 S
C45 H63 0.931 1_556 S
C46 N43 1.311 . S
C46 N47 1.347 1_556 S
C46 H57 0.929 . S
N47 C45 1.375 1_554 S
N47 C46 1.347 1_554 S
C48 C51 1.365 . S
C48 N53 1.328 . S
C48 H54 0.929 . S
C49 C50 1.362 . S
C49 C52 1.378 . S
C49 H64 0.929 . S
C50 C49 1.362 . S
C50 C51 1.366 . S
C51 C48 1.365 . S
C51 C50 1.366 . S
C51 H65 0.930 . S
C52 C49 1.378 . S
C52 N53 1.315 . S
C52 H55 0.930 . S
N53 Co33 2.194 . S
N53 C48 1.328 . S
N53 C52 1.315 . S
H54 C48 0.929 . S
H55 C52 0.930 . S
H56 C44 0.929 . S
H57 C46 0.929 . S
O58 Co33 2.351 . S
O58 C61 1.244 . S
O59 Co33 2.155 . S
O59 C61 1.240 . S
O60 Co33 2.096 . S
O60 C41 1.247 . S
C61 O58 1.244 . S
C61 O59 1.240 . S
H62 C36 0.931 . S
H63 C45 0.931 1_554 S
H64 C49 0.929 . S
H65 C51 0.930 . S
Co66 N70 2.148 . S
Co66 N76 2.128 . S
Co66 N86 2.194 . S
Co66 O91 2.351 . S
Co66 O92 2.155 . S
Co66 O93 2.096 . S
C67 N70 1.301 . S
C67 N71 1.328 . S
C67 H72 0.930 . S
C68 C69 1.333 . S
C68 N70 1.317 . S
C68 H73 0.930 . S
C69 C68 1.333 . S
C69 N71 1.350 . S
C69 H95 0.931 . S
N70 Co66 2.148 . S
N70 C67 1.301 . S
N70 C68 1.317 . S
N71 C67 1.328 . S
N71 C69 1.350 . S
H72 C67 0.930 . S
H73 C68 0.930 . S
C74 O75 1.224 . S
C74 O93 1.247 . S
O75 C74 1.224 . S
N76 Co66 2.128 . S
N76 C77 1.355 . S
N76 C79 1.311 . S
C77 N76 1.355 . S
C77 C78 1.363 . S
C77 H89 0.929 . S
C78 C77 1.363 . S
C78 N80 1.375 . S
C78 H96 0.931 . S
C79 N76 1.311 . S
C79 N80 1.347 . S
C79 H90 0.929 . S
N80 C78 1.375 . S
N80 C79 1.347 . S
C81 C84 1.365 . S
C81 N86 1.328 . S
C81 H87 0.929 . S
C82 C83 1.362 . S
C82 C85 1.378 . S
C82 H97 0.929 . S
C83 C82 1.362 . S
C83 C84 1.366 . S
C84 C81 1.365 . S
C84 C83 1.366 . S
C84 H98 0.930 . S
C85 C82 1.378 . S
C85 N86 1.315 . S
C85 H88 0.930 . S
N86 Co66 2.194 . S
N86 C81 1.328 . S
N86 C85 1.315 . S
H87 C81 0.929 . S
H88 C85 0.930 . S
H89 C77 0.929 . S
H90 C79 0.929 . S
O91 Co66 2.351 . S
O91 C94 1.244 . S
O92 Co66 2.155 . S
O92 C94 1.240 . S
O93 Co66 2.096 . S
O93 C74 1.247 . S
C94 O91 1.244 . S
C94 O92 1.240 . S
H95 C69 0.931 . S
H96 C78 0.931 . S
H97 C82 0.929 . S
H98 C84 0.930 . S
Co99 N103 2.148 . S
Co99 N109 2.128 . S
Co99 N119 2.194 . S
Co99 O124 2.351 . S
Co99 O125 2.155 . S
Co99 O126 2.096 . S
C100 N103 1.301 . S
C100 N104 1.328 . S
C100 H105 0.930 . S
C101 C102 1.333 . S
C101 N103 1.317 . S
C101 H106 0.930 . S
C102 C101 1.333 . S
C102 N104 1.350 . S
C102 H128 0.931 . S
N103 Co99 2.148 . S
N103 C100 1.301 . S
N103 C101 1.317 . S
N104 C100 1.328 . S
N104 C102 1.350 . S
H105 C100 0.930 . S
H106 C101 0.930 . S
C107 O108 1.224 . S
C107 O126 1.247 . S
O108 C107 1.224 . S
N109 Co99 2.128 . S
N109 C110 1.355 . S
N109 C112 1.311 . S
C110 N109 1.355 . S
C110 C111 1.363 . S
C110 H122 0.929 . S
C111 C110 1.363 . S
C111 N113 1.375 1_556 S
C111 H129 0.931 1_556 S
C112 N109 1.311 . S
C112 N113 1.347 1_556 S
C112 H123 0.929 . S
N113 C111 1.375 1_554 S
N113 C112 1.347 1_554 S
C114 C117 1.365 . S
C114 N119 1.328 . S
C114 H120 0.929 . S
C115 C116 1.362 . S
C115 C118 1.378 . S
C115 H130 0.929 . S
C116 C115 1.362 . S
C116 C117 1.366 . S
C117 C114 1.365 . S
C117 C116 1.366 . S
C117 H131 0.930 . S
C118 C115 1.378 . S
C118 N119 1.315 . S
C118 H121 0.930 . S
N119 Co99 2.194 . S
N119 C114 1.328 . S
N119 C118 1.315 . S
H120 C114 0.929 . S
H121 C118 0.930 . S
H122 C110 0.929 . S
H123 C112 0.929 . S
O124 Co99 2.351 . S
O124 C127 1.244 . S
O125 Co99 2.155 . S
O125 C127 1.240 . S
O126 Co99 2.096 . S
O126 C107 1.247 . S
C127 O124 1.244 . S
C127 O125 1.240 . S
H128 C102 0.931 . S
H129 C111 0.931 1_554 S
H130 C115 0.929 . S
H131 C117 0.930 . S
Co132 N136 2.148 . S
Co132 N142 2.128 . S
Co132 N152 2.194 . S
Co132 O157 2.351 . S
Co132 O158 2.155 . S
Co132 O159 2.096 . S
C133 N136 1.301 . S
C133 N137 1.328 . S
C133 H138 0.930 . S
C134 C135 1.333 . S
C134 N136 1.317 . S
C134 H139 0.930 . S
C135 C134 1.333 . S
C135 N137 1.350 . S
C135 H161 0.931 . S
N136 Co132 2.148 . S
N136 C133 1.301 . S
N136 C134 1.317 . S
N137 C133 1.328 . S
N137 C135 1.350 . S
H138 C133 0.930 . S
H139 C134 0.930 . S
C140 O141 1.224 . S
C140 O159 1.247 . S
O141 C140 1.224 . S
N142 Co132 2.128 . S
N142 C143 1.355 . S
N142 C145 1.311 . S
C143 N142 1.355 . S
C143 C144 1.363 . S
C143 H155 0.929 . S
C144 C143 1.363 . S
C144 N146 1.375 1_554 S
C144 H162 0.931 1_554 S
C145 N142 1.311 . S
C145 N146 1.347 1_554 S
C145 H156 0.929 . S
N146 C144 1.375 1_556 S
N146 C145 1.347 1_556 S
C147 C150 1.365 . S
C147 N152 1.328 . S
C147 H153 0.929 . S
C148 C149 1.362 . S
C148 C151 1.378 . S
C148 H163 0.929 . S
C149 C148 1.362 . S
C149 C150 1.366 . S
C150 C147 1.365 . S
C150 C149 1.366 . S
C150 H164 0.930 . S
C151 C148 1.378 . S
C151 N152 1.315 . S
C151 H154 0.930 . S
N152 Co132 2.194 . S
N152 C147 1.328 . S
N152 C151 1.315 . S
H153 C147 0.929 . S
H154 C151 0.930 . S
H155 C143 0.929 . S
H156 C145 0.929 . S
O157 Co132 2.351 . S
O157 C160 1.244 . S
O158 Co132 2.155 . S
O158 C160 1.240 . S
O159 Co132 2.096 . S
O159 C140 1.247 . S
C160 O157 1.244 . S
C160 O158 1.240 . S
H161 C135 0.931 . S
H162 C144 0.931 1_556 S
H163 C148 0.929 . S
H164 C150 0.930 . S
Co165 N169 2.148 . S
Co165 N175 2.128 . S
Co165 N185 2.194 . S
Co165 O190 2.351 . S
Co165 O191 2.155 . S
Co165 O192 2.096 . S
C166 N169 1.301 . S
C166 N170 1.328 . S
C166 H171 0.930 . S
C167 C168 1.333 . S
C167 N169 1.317 . S
C167 H172 0.930 . S
C168 C167 1.333 . S
C168 N170 1.350 . S
C168 H194 0.931 . S
N169 Co165 2.148 . S
N169 C166 1.301 . S
N169 C167 1.317 . S
N170 C166 1.328 . S
N170 C168 1.350 . S
H171 C166 0.930 . S
H172 C167 0.930 . S
C173 O174 1.224 . S
C173 O192 1.247 . S
O174 C173 1.224 . S
N175 Co165 2.128 . S
N175 C176 1.355 . S
N175 C178 1.311 . S
C176 N175 1.355 . S
C176 C177 1.363 . S
C176 H188 0.929 . S
C177 C176 1.363 . S
C177 N179 1.375 . S
C177 H195 0.931 . S
C178 N175 1.311 . S
C178 N179 1.347 . S
C178 H189 0.929 . S
N179 C177 1.375 . S
N179 C178 1.347 . S
C180 C183 1.365 . S
C180 N185 1.328 . S
C180 H186 0.929 . S
C181 C182 1.362 . S
C181 C184 1.378 . S
C181 H196 0.929 . S
C182 C181 1.362 . S
C182 C183 1.366 . S
C183 C180 1.365 . S
C183 C182 1.366 . S
C183 H197 0.930 . S
C184 C181 1.378 . S
C184 N185 1.315 . S
C184 H187 0.930 . S
N185 Co165 2.194 . S
N185 C180 1.328 . S
N185 C184 1.315 . S
H186 C180 0.929 . S
H187 C184 0.930 . S
H188 C176 0.929 . S
H189 C178 0.929 . S
O190 Co165 2.351 . S
O190 C193 1.244 . S
O191 Co165 2.155 . S
O191 C193 1.240 . S
O192 Co165 2.096 . S
O192 C173 1.247 . S
C193 O190 1.244 . S
C193 O191 1.240 . S
H194 C168 0.931 . S
H195 C177 0.931 . S
H196 C181 0.929 . S
H197 C183 0.930 . S
Co198 N202 2.148 . S
Co198 N208 2.128 . S
Co198 N218 2.194 . S
Co198 O223 2.351 . S
Co198 O224 2.155 . S
Co198 O225 2.096 . S
C199 N202 1.301 . S
C199 N203 1.328 . S
C199 H204 0.930 . S
C200 C201 1.333 . S
C200 N202 1.317 . S
C200 H205 0.930 . S
C201 C200 1.333 . S
C201 N203 1.350 . S
C201 H227 0.931 . S
N202 Co198 2.148 . S
N202 C199 1.301 . S
N202 C200 1.317 . S
N203 C199 1.328 . S
N203 C201 1.350 . S
H204 C199 0.930 . S
H205 C200 0.930 . S
C206 O207 1.224 . S
C206 O225 1.247 . S
O207 C206 1.224 . S
N208 Co198 2.128 . S
N208 C209 1.355 . S
N208 C211 1.311 . S
C209 N208 1.355 . S
C209 C210 1.363 . S
C209 H221 0.929 . S
C210 C209 1.363 . S
C210 N212 1.375 1_554 S
C210 H228 0.931 1_554 S
C211 N208 1.311 . S
C211 N212 1.347 1_554 S
C211 H222 0.929 . S
N212 C210 1.375 1_556 S
N212 C211 1.347 1_556 S
C213 C216 1.365 . S
C213 N218 1.328 . S
C213 H219 0.929 . S
C214 C215 1.362 . S
C214 C217 1.378 . S
C214 H229 0.929 . S
C215 C214 1.362 . S
C215 C216 1.366 . S
C216 C213 1.365 . S
C216 C215 1.366 . S
C216 H230 0.930 . S
C217 C214 1.378 . S
C217 N218 1.315 . S
C217 H220 0.930 . S
N218 Co198 2.194 . S
N218 C213 1.328 . S
N218 C217 1.315 . S
H219 C213 0.929 . S
H220 C217 0.930 . S
H221 C209 0.929 . S
H222 C211 0.929 . S
O223 Co198 2.351 . S
O223 C226 1.244 . S
O224 Co198 2.155 . S
O224 C226 1.240 . S
O225 Co198 2.096 . S
O225 C206 1.247 . S
C226 O223 1.244 . S
C226 O224 1.240 . S
H227 C201 0.931 . S
H228 C210 0.931 1_556 S
H229 C214 0.929 . S
H230 C216 0.930 . S
Co231 N235 2.148 . S
Co231 N241 2.128 . S
Co231 N251 2.194 . S
Co231 O256 2.351 . S
Co231 O257 2.155 . S
Co231 O258 2.096 . S
C232 N235 1.301 . S
C232 N236 1.328 . S
C232 H237 0.930 . S
C233 C234 1.333 . S
C233 N235 1.317 . S
C233 H238 0.930 . S
C234 C233 1.333 . S
C234 N236 1.350 . S
C234 H260 0.931 . S
N235 Co231 2.148 . S
N235 C232 1.301 . S
N235 C233 1.317 . S
N236 C232 1.328 . S
N236 C234 1.350 . S
H237 C232 0.930 . S
H238 C233 0.930 . S
C239 O240 1.224 . S
C239 O258 1.247 . S
O240 C239 1.224 . S
N241 Co231 2.128 . S
N241 C242 1.355 . S
N241 C244 1.311 . S
C242 N241 1.355 . S
C242 C243 1.363 . S
C242 H254 0.929 . S
C243 C242 1.363 . S
C243 N245 1.375 . S
C243 H261 0.931 . S
C244 N241 1.311 . S
C244 N245 1.347 . S
C244 H255 0.929 . S
N245 C243 1.375 . S
N245 C244 1.347 . S
C246 C249 1.365 . S
C246 N251 1.328 . S
C246 H252 0.929 . S
C247 C248 1.362 . S
C247 C250 1.378 . S
C247 H262 0.929 . S
C248 C247 1.362 . S
C248 C249 1.366 . S
C249 C246 1.365 . S
C249 C248 1.366 . S
C249 H263 0.930 . S
C250 C247 1.378 . S
C250 N251 1.315 . S
C250 H253 0.930 . S
N251 Co231 2.194 . S
N251 C246 1.328 . S
N251 C250 1.315 . S
H252 C246 0.929 . S
H253 C250 0.930 . S
H254 C242 0.929 . S
H255 C244 0.929 . S
O256 Co231 2.351 . S
O256 C259 1.244 . S
O257 Co231 2.155 . S
O257 C259 1.240 . S
O258 Co231 2.096 . S
O258 C239 1.247 . S
C259 O256 1.244 . S
C259 O257 1.240 . S
H260 C234 0.931 . S
H261 C243 0.931 . S
H262 C247 0.929 . S
H263 C249 0.930 . S
C264 C265 1.349 . S
C264 C266 1.327 . S
C264 H289 0.950 . S
C265 C264 1.349 . S
C265 C281 1.349 . S
C266 C264 1.327 . S
C266 C285 1.429 . S
C266 H290 0.950 . S
C267 C284 1.574 1_565 S
C267 C286 1.368 . S
C267 H291 0.949 . S
H268 C272 0.949 . S
C269 C270 1.349 . S
C269 C271 1.327 . S
C269 H292 0.950 . S
C270 C269 1.349 . S
C270 C282 1.349 . S
C271 C269 1.327 . S
C271 C287 1.429 . S
C271 H293 0.950 . S
C272 H268 0.949 . S
C272 C280 1.574 1_545 S
C272 C288 1.368 . S
H273 C281 0.950 . S
H274 C279 0.950 . S
H275 C280 0.949 . S
H276 C282 0.950 . S
H277 C283 0.950 . S
H278 C284 0.949 . S
C279 H274 0.950 . S
C279 C281 1.327 . S
C279 C285 1.429 . S
C280 C272 1.574 1_565 S
C280 H275 0.949 . S
C280 C286 1.368 . S
C281 C265 1.349 . S
C281 H273 0.950 . S
C281 C279 1.327 . S
C282 C270 1.349 . S
C282 H276 0.950 . S
C282 C283 1.327 . S
C283 H277 0.950 . S
C283 C282 1.327 . S
C283 C287 1.429 . S
C284 C267 1.574 1_545 S
C284 H278 0.949 . S
C284 C288 1.368 . S
C285 C266 1.429 . S
C285 C279 1.429 . S
C285 C286 1.523 . S
C286 C267 1.368 . S
C286 C280 1.368 . S
C286 C285 1.523 . S
C287 C271 1.429 . S
C287 C283 1.429 . S
C287 C288 1.523 . S
C288 C272 1.368 . S
C288 C284 1.368 . S
C288 C287 1.523 . S
H289 C264 0.950 . S
H290 C266 0.950 . S
H291 C267 0.949 . S
H292 C269 0.950 . S
H293 C271 0.950 . S
C294 C295 1.349 . S
C294 C296 1.327 . S
C294 H319 0.950 . S
C295 C294 1.349 . S
C295 C311 1.349 . S
C296 C294 1.327 . S
C296 C315 1.429 . S
C296 H320 0.950 . S
C297 C314 1.574 . S
C297 C316 1.368 1_556 S
C297 H321 0.949 . S
H298 C302 0.949 . S
C299 C300 1.349 . S
C299 C301 1.327 . S
C299 H322 0.950 . S
C300 C299 1.349 . S
C300 C312 1.349 . S
C301 C299 1.327 . S
C301 C317 1.429 . S
C301 H323 0.950 . S
C302 H298 0.949 . S
C302 C310 1.574 . S
C302 C318 1.368 1_554 S
H303 C311 0.950 . S
H304 C309 0.950 . S
H305 C310 0.949 . S
H306 C312 0.950 . S
H307 C313 0.950 . S
H308 C314 0.949 . S
C309 H304 0.950 . S
C309 C311 1.327 . S
C309 C315 1.429 . S
C310 C302 1.574 . S
C310 H305 0.949 . S
C310 C316 1.368 . S
C311 C295 1.349 . S
C311 H303 0.950 . S
C311 C309 1.327 . S
C312 C300 1.349 . S
C312 H306 0.950 . S
C312 C313 1.327 . S
C313 H307 0.950 . S
C313 C312 1.327 . S
C313 C317 1.429 . S
C314 C297 1.574 . S
C314 H308 0.949 . S
C314 C318 1.368 . S
C315 C296 1.429 . S
C315 C309 1.429 . S
C315 C316 1.523 . S
C316 C297 1.368 1_554 S
C316 C310 1.368 . S
C316 C315 1.523 . S
C317 C301 1.429 . S
C317 C313 1.429 . S
C317 C318 1.523 . S
C318 C302 1.368 1_556 S
C318 C314 1.368 . S
C318 C317 1.523 . S
H319 C294 0.950 . S
H320 C296 0.950 . S
H321 C297 0.949 . S
H322 C299 0.950 . S
H323 C301 0.950 . S
C324 C325 1.349 . S
C324 C326 1.327 . S
C324 H349 0.950 . S
C325 C324 1.349 . S
C325 C341 1.349 . S
C326 C324 1.327 . S
C326 C345 1.429 . S
C326 H350 0.950 . S
C327 C344 1.574 . S
C327 C346 1.368 . S
C327 H351 0.949 . S
H328 C332 0.949 . S
C329 C330 1.349 . S
C329 C331 1.327 . S
C329 H352 0.950 . S
C330 C329 1.349 . S
C330 C342 1.349 . S
C331 C329 1.327 . S
C331 C347 1.429 . S
C331 H353 0.950 . S
C332 H328 0.949 . S
C332 C340 1.574 . S
C332 C348 1.368 . S
H333 C341 0.950 . S
H334 C339 0.950 . S
H335 C340 0.949 . S
H336 C342 0.950 . S
H337 C343 0.950 . S
H338 C344 0.949 . S
C339 H334 0.950 . S
C339 C341 1.327 . S
C339 C345 1.429 . S
C340 C332 1.574 . S
C340 H335 0.949 . S
C340 C346 1.368 1_455 S
C341 C325 1.349 . S
C341 H333 0.950 . S
C341 C339 1.327 . S
C342 C330 1.349 . S
C342 H336 0.950 . S
C342 C343 1.327 . S
C343 H337 0.950 . S
C343 C342 1.327 . S
C343 C347 1.429 . S
C344 C327 1.574 . S
C344 H338 0.949 . S
C344 C348 1.368 1_655 S
C345 C326 1.429 . S
C345 C339 1.429 . S
C345 C346 1.523 . S
C346 C327 1.368 . S
C346 C340 1.368 1_655 S
C346 C345 1.523 . S
C347 C331 1.429 . S
C347 C343 1.429 . S
C347 C348 1.523 . S
C348 C332 1.368 . S
C348 C344 1.368 1_455 S
C348 C347 1.523 . S
H349 C324 0.950 . S
H350 C326 0.950 . S
H351 C327 0.949 . S
H352 C329 0.950 . S
H353 C331 0.950 . S
C354 C355 1.349 . S
C354 C356 1.327 . S
C354 H379 0.950 . S
C355 C354 1.349 . S
C355 C371 1.349 . S
C356 C354 1.327 . S
C356 C375 1.429 . S
C356 H380 0.950 . S
C357 C374 1.574 1_554 S
C357 C376 1.368 1_565 S
C357 H381 0.949 . S
H358 C362 0.949 . S
C359 C360 1.349 . S
C359 C361 1.327 . S
C359 H382 0.950 . S
C360 C359 1.349 . S
C360 C372 1.349 . S
C361 C359 1.327 . S
C361 C377 1.429 . S
C361 H383 0.950 . S
C362 H358 0.949 . S
C362 C370 1.574 1_556 S
C362 C378 1.368 1_545 S
H363 C371 0.950 . S
H364 C369 0.950 . S
H365 C370 0.949 . S
H366 C372 0.950 . S
H367 C373 0.950 . S
H368 C374 0.949 . S
C369 H364 0.950 . S
C369 C371 1.327 . S
C369 C375 1.429 . S
C370 C362 1.574 1_554 S
C370 H365 0.949 . S
C370 C376 1.368 1_455 S
C371 C355 1.349 . S
C371 H363 0.950 . S
C371 C369 1.327 . S
C372 C360 1.349 . S
C372 H366 0.950 . S
C372 C373 1.327 . S
C373 H367 0.950 . S
C373 C372 1.327 . S
C373 C377 1.429 . S
C374 C357 1.574 1_556 S
C374 H368 0.949 . S
C374 C378 1.368 1_655 S
C375 C356 1.429 . S
C375 C369 1.429 . S
C375 C376 1.523 . S
C376 C357 1.368 1_545 S
C376 C370 1.368 1_655 S
C376 C375 1.523 . S
C377 C361 1.429 . S
C377 C373 1.429 . S
C377 C378 1.523 . S
C378 C362 1.368 1_565 S
C378 C374 1.368 1_455 S
C378 C377 1.523 . S
H379 C354 0.950 . S
H380 C356 0.950 . S
H381 C357 0.949 . S
H382 C359 0.950 . S
H383 C361 0.950 . S
C384 C385 1.349 . S
C384 C386 1.327 . S
C384 H409 0.950 . S
C385 C384 1.349 . S
C385 C401 1.349 . S
C386 C384 1.327 . S
C386 C405 1.429 . S
C386 H410 0.950 . S
C387 C404 1.574 . S
C387 C406 1.368 . S
C387 H411 0.949 . S
H388 C392 0.949 . S
C389 C390 1.349 . S
C389 C391 1.327 . S
C389 H412 0.950 . S
C390 C389 1.349 . S
C390 C402 1.349 . S
C391 C389 1.327 . S
C391 C407 1.429 . S
C391 H413 0.950 . S
C392 H388 0.949 . S
C392 C400 1.574 . S
C392 C408 1.368 . S
H393 C401 0.950 . S
H394 C399 0.950 . S
H395 C400 0.949 . S
H396 C402 0.950 . S
H397 C403 0.950 . S
H398 C404 0.949 . S
C399 H394 0.950 . S
C399 C401 1.327 . S
C399 C405 1.429 . S
C400 C392 1.574 . S
C400 H395 0.949 . S
C400 C406 1.368 . S
C401 C385 1.349 . S
C401 H393 0.950 . S
C401 C399 1.327 . S
C402 C390 1.349 . S
C402 H396 0.950 . S
C402 C403 1.327 . S
C403 H397 0.950 . S
C403 C402 1.327 . S
C403 C407 1.429 . S
C404 C387 1.574 . S
C404 H398 0.949 . S
C404 C408 1.368 . S
C405 C386 1.429 . S
C405 C399 1.429 . S
C405 C406 1.523 . S
C406 C387 1.368 . S
C406 C400 1.368 . S
C406 C405 1.523 . S
C407 C391 1.429 . S
C407 C403 1.429 . S
C407 C408 1.523 . S
C408 C392 1.368 . S
C408 C404 1.368 . S
C408 C407 1.523 . S
H409 C384 0.950 . S
H410 C386 0.950 . S
H411 C387 0.949 . S
H412 C389 0.950 . S
H413 C391 0.950 . S
C414 C415 1.349 . S
C414 C416 1.327 . S
C414 H439 0.950 . S
C415 C414 1.349 . S
C415 C431 1.349 . S
C416 C414 1.327 . S
C416 C435 1.429 . S
C416 H440 0.950 . S
C417 C434 1.574 . S
C417 C436 1.368 . S
C417 H441 0.949 . S
H418 C422 0.949 . S
C419 C420 1.349 . S
C419 C421 1.327 . S
C419 H442 0.950 . S
C420 C419 1.349 . S
C420 C432 1.349 . S
C421 C419 1.327 . S
C421 C437 1.429 . S
C421 H443 0.950 . S
C422 H418 0.949 . S
C422 C430 1.574 . S
C422 C438 1.368 . S
H423 C431 0.950 . S
H424 C429 0.950 . S
H425 C430 0.949 . S
H426 C432 0.950 . S
H427 C433 0.950 . S
H428 C434 0.949 . S
C429 H424 0.950 . S
C429 C431 1.327 . S
C429 C435 1.429 . S
C430 C422 1.574 . S
C430 H425 0.949 . S
C430 C436 1.368 . S
C431 C415 1.349 . S
C431 H423 0.950 . S
C431 C429 1.327 . S
C432 C420 1.349 . S
C432 H426 0.950 . S
C432 C433 1.327 . S
C433 H427 0.950 . S
C433 C432 1.327 . S
C433 C437 1.429 . S
C434 C417 1.574 . S
C434 H428 0.949 . S
C434 C438 1.368 . S
C435 C416 1.429 . S
C435 C429 1.429 . S
C435 C436 1.523 . S
C436 C417 1.368 . S
C436 C430 1.368 . S
C436 C435 1.523 . S
C437 C421 1.429 . S
C437 C433 1.429 . S
C437 C438 1.523 . S
C438 C422 1.368 . S
C438 C434 1.368 . S
C438 C437 1.523 . S
H439 C414 0.950 . S
H440 C416 0.950 . S
H441 C417 0.949 . S
H442 C419 0.950 . S
H443 C421 0.950 . S
C444 C445 1.349 . S
C444 C446 1.327 . S
C444 H469 0.950 . S
C445 C444 1.349 . S
C445 C461 1.349 . S
C446 C444 1.327 . S
C446 C465 1.429 . S
C446 H470 0.950 . S
C447 C464 1.574 . S
C447 C466 1.368 . S
C447 H471 0.949 . S
H448 C452 0.949 . S
C449 C450 1.349 . S
C449 C451 1.327 . S
C449 H472 0.950 . S
C450 C449 1.349 . S
C450 C462 1.349 . S
C451 C449 1.327 . S
C451 C467 1.429 . S
C451 H473 0.950 . S
C452 H448 0.949 . S
C452 C460 1.574 . S
C452 C468 1.368 . S
H453 C461 0.950 . S
H454 C459 0.950 . S
H455 C460 0.949 . S
H456 C462 0.950 . S
H457 C463 0.950 . S
H458 C464 0.949 . S
C459 H454 0.950 . S
C459 C461 1.327 . S
C459 C465 1.429 . S
C460 C452 1.574 . S
C460 H455 0.949 . S
C460 C466 1.368 . S
C461 C445 1.349 . S
C461 H453 0.950 . S
C461 C459 1.327 . S
C462 C450 1.349 . S
C462 H456 0.950 . S
C462 C463 1.327 . S
C463 H457 0.950 . S
C463 C462 1.327 . S
C463 C467 1.429 . S
C464 C447 1.574 . S
C464 H458 0.949 . S
C464 C468 1.368 . S
C465 C446 1.429 . S
C465 C459 1.429 . S
C465 C466 1.523 . S
C466 C447 1.368 . S
C466 C460 1.368 . S
C466 C465 1.523 . S
C467 C451 1.429 . S
C467 C463 1.429 . S
C467 C468 1.523 . S
C468 C452 1.368 . S
C468 C464 1.368 . S
C468 C467 1.523 . S
H469 C444 0.950 . S
H470 C446 0.950 . S
H471 C447 0.949 . S
H472 C449 0.950 . S
H473 C451 0.950 . S
C474 C475 1.349 . S
C474 C476 1.327 . S
C474 H499 0.950 . S
C475 C474 1.349 . S
C475 C491 1.349 . S
C476 C474 1.327 . S
C476 C495 1.429 . S
C476 H500 0.950 . S
C477 C494 1.574 . S
C477 C496 1.368 . S
C477 H501 0.949 . S
H478 C482 0.949 . S
C479 C480 1.349 . S
C479 C481 1.327 . S
C479 H502 0.950 . S
C480 C479 1.349 . S
C480 C492 1.349 . S
C481 C479 1.327 . S
C481 C497 1.429 . S
C481 H503 0.950 . S
C482 H478 0.949 . S
C482 C490 1.574 . S
C482 C498 1.368 . S
H483 C491 0.950 . S
H484 C489 0.950 . S
H485 C490 0.949 . S
H486 C492 0.950 . S
H487 C493 0.950 . S
H488 C494 0.949 . S
C489 H484 0.950 . S
C489 C491 1.327 . S
C489 C495 1.429 . S
C490 C482 1.574 . S
C490 H485 0.949 . S
C490 C496 1.368 . S
C491 C475 1.349 . S
C491 H483 0.950 . S
C491 C489 1.327 . S
C492 C480 1.349 . S
C492 H486 0.950 . S
C492 C493 1.327 . S
C493 H487 0.950 . S
C493 C492 1.327 . S
C493 C497 1.429 . S
C494 C477 1.574 . S
C494 H488 0.949 . S
C494 C498 1.368 . S
C495 C476 1.429 . S
C495 C489 1.429 . S
C495 C496 1.523 . S
C496 C477 1.368 . S
C496 C490 1.368 . S
C496 C495 1.523 . S
C497 C481 1.429 . S
C497 C493 1.429 . S
C497 C498 1.523 . S
C498 C482 1.368 . S
C498 C494 1.368 . S
C498 C497 1.523 . S
H499 C474 0.950 . S
H500 C476 0.950 . S
H501 C477 0.949 . S
H502 C479 0.950 . S
H503 C481 0.950 . S
C504 C505 1.349 . S
C504 C506 1.327 . S
C504 H529 0.950 . S
C505 C504 1.349 . S
C505 C521 1.349 . S
C506 C504 1.327 . S
C506 C525 1.429 . S
C506 H530 0.950 . S
C507 C524 1.574 . S
C507 C526 1.368 . S
C507 H531 0.949 . S
H508 C512 0.949 . S
C509 C510 1.349 . S
C509 C511 1.327 . S
C509 H532 0.950 . S
C510 C509 1.349 . S
C510 C522 1.349 . S
C511 C509 1.327 . S
C511 C527 1.429 . S
C511 H533 0.950 . S
C512 H508 0.949 . S
C512 C520 1.574 . S
C512 C528 1.368 . S
H513 C521 0.950 . S
H514 C519 0.950 . S
H515 C520 0.949 . S
H516 C522 0.950 . S
H517 C523 0.950 . S
H518 C524 0.949 . S
C519 H514 0.950 . S
C519 C521 1.327 . S
C519 C525 1.429 . S
C520 C512 1.574 . S
C520 H515 0.949 . S
C520 C526 1.368 . S
C521 C505 1.349 . S
C521 H513 0.950 . S
C521 C519 1.327 . S
C522 C510 1.349 . S
C522 H516 0.950 . S
C522 C523 1.327 . S
C523 H517 0.950 . S
C523 C522 1.327 . S
C523 C527 1.429 . S
C524 C507 1.574 . S
C524 H518 0.949 . S
C524 C528 1.368 . S
C525 C506 1.429 . S
C525 C519 1.429 . S
C525 C526 1.523 . S
C526 C507 1.368 . S
C526 C520 1.368 . S
C526 C525 1.523 . S
C527 C511 1.429 . S
C527 C523 1.429 . S
C527 C528 1.523 . S
C528 C512 1.368 . S
C528 C524 1.368 . S
C528 C527 1.523 . S
H529 C504 0.950 . S
H530 C506 0.950 . S
H531 C507 0.949 . S
H532 C509 0.950 . S
H533 C511 0.950 . S
C534 C535 1.349 . S
C534 C536 1.327 . S
C534 H559 0.950 . S
C535 C534 1.349 . S
C535 C551 1.349 . S
C536 C534 1.327 . S
C536 C555 1.429 . S
C536 H560 0.950 . S
C537 C554 1.574 . S
C537 C556 1.368 . S
C537 H561 0.949 . S
H538 C542 0.949 . S
C539 C540 1.349 . S
C539 C541 1.327 . S
C539 H562 0.950 . S
C540 C539 1.349 . S
C540 C552 1.349 . S
C541 C539 1.327 . S
C541 C557 1.429 . S
C541 H563 0.950 . S
C542 H538 0.949 . S
C542 C550 1.574 . S
C542 C558 1.368 . S
H543 C551 0.950 . S
H544 C549 0.950 . S
H545 C550 0.949 . S
H546 C552 0.950 . S
H547 C553 0.950 . S
H548 C554 0.949 . S
C549 H544 0.950 . S
C549 C551 1.327 . S
C549 C555 1.429 . S
C550 C542 1.574 . S
C550 H545 0.949 . S
C550 C556 1.368 . S
C551 C535 1.349 . S
C551 H543 0.950 . S
C551 C549 1.327 . S
C552 C540 1.349 . S
C552 H546 0.950 . S
C552 C553 1.327 . S
C553 H547 0.950 . S
C553 C552 1.327 . S
C553 C557 1.429 . S
C554 C537 1.574 . S
C554 H548 0.949 . S
C554 C558 1.368 . S
C555 C536 1.429 . S
C555 C549 1.429 . S
C555 C556 1.523 . S
C556 C537 1.368 . S
C556 C550 1.368 . S
C556 C555 1.523 . S
C557 C541 1.429 . S
C557 C553 1.429 . S
C557 C558 1.523 . S
C558 C542 1.368 . S
C558 C554 1.368 . S
C558 C557 1.523 . S
H559 C534 0.950 . S
H560 C536 0.950 . S
H561 C537 0.949 . S
H562 C539 0.950 . S
H563 C541 0.950 . S
C564 C565 1.349 . S
C564 C566 1.327 . S
C564 H589 0.950 . S
C565 C564 1.349 . S
C565 C581 1.349 . S
C566 C564 1.327 . S
C566 C585 1.429 . S
C566 H590 0.950 . S
C567 C584 1.574 . S
C567 C586 1.368 . S
C567 H591 0.949 . S
H568 C572 0.949 . S
C569 C570 1.349 . S
C569 C571 1.327 . S
C569 H592 0.950 . S
C570 C569 1.349 . S
C570 C582 1.349 . S
C571 C569 1.327 . S
C571 C587 1.429 . S
C571 H593 0.950 . S
C572 H568 0.949 . S
C572 C580 1.574 . S
C572 C588 1.368 . S
H573 C581 0.950 . S
H574 C579 0.950 . S
H575 C580 0.949 . S
H576 C582 0.950 . S
H577 C583 0.950 . S
H578 C584 0.949 . S
C579 H574 0.950 . S
C579 C581 1.327 . S
C579 C585 1.429 . S
C580 C572 1.574 . S
C580 H575 0.949 . S
C580 C586 1.368 . S
C581 C565 1.349 . S
C581 H573 0.950 . S
C581 C579 1.327 . S
C582 C570 1.349 . S
C582 H576 0.950 . S
C582 C583 1.327 . S
C583 H577 0.950 . S
C583 C582 1.327 . S
C583 C587 1.429 . S
C584 C567 1.574 . S
C584 H578 0.949 . S
C584 C588 1.368 . S
C585 C566 1.429 . S
C585 C579 1.429 . S
C585 C586 1.523 . S
C586 C567 1.368 . S
C586 C580 1.368 . S
C586 C585 1.523 . S
C587 C571 1.429 . S
C587 C583 1.429 . S
C587 C588 1.523 . S
C588 C572 1.368 . S
C588 C584 1.368 . S
C588 C587 1.523 . S
H589 C564 0.950 . S
H590 C566 0.950 . S
H591 C567 0.949 . S
H592 C569 0.950 . S
H593 C571 0.950 . S
C594 C595 1.349 . S
C594 C596 1.327 . S
C594 H619 0.950 . S
C595 C594 1.349 . S
C595 C611 1.349 . S
C596 C594 1.327 . S
C596 C615 1.429 . S
C596 H620 0.950 . S
C597 C614 1.574 . S
C597 C616 1.368 . S
C597 H621 0.949 . S
H598 C602 0.949 . S
C599 C600 1.349 . S
C599 C601 1.327 . S
C599 H622 0.950 . S
C600 C599 1.349 . S
C600 C612 1.349 . S
C601 C599 1.327 . S
C601 C617 1.429 . S
C601 H623 0.950 . S
C602 H598 0.949 . S
C602 C610 1.574 . S
C602 C618 1.368 . S
H603 C611 0.950 . S
H604 C609 0.950 . S
H605 C610 0.949 . S
H606 C612 0.950 . S
H607 C613 0.950 . S
H608 C614 0.949 . S
C609 H604 0.950 . S
C609 C611 1.327 . S
C609 C615 1.429 . S
C610 C602 1.574 . S
C610 H605 0.949 . S
C610 C616 1.368 . S
C611 C595 1.349 . S
C611 H603 0.950 . S
C611 C609 1.327 . S
C612 C600 1.349 . S
C612 H606 0.950 . S
C612 C613 1.327 . S
C613 H607 0.950 . S
C613 C612 1.327 . S
C613 C617 1.429 . S
C614 C597 1.574 . S
C614 H608 0.949 . S
C614 C618 1.368 . S
C615 C596 1.429 . S
C615 C609 1.429 . S
C615 C616 1.523 . S
C616 C597 1.368 . S
C616 C610 1.368 . S
C616 C615 1.523 . S
C617 C601 1.429 . S
C617 C613 1.429 . S
C617 C618 1.523 . S
C618 C602 1.368 . S
C618 C614 1.368 . S
C618 C617 1.523 . S
H619 C594 0.950 . S
H620 C596 0.950 . S
H621 C597 0.949 . S
H622 C599 0.950 . S
H623 C601 0.950 . S
C624 C625 1.349 . S
C624 C626 1.327 . S
C624 H649 0.950 . S
C625 C624 1.349 . S
C625 C641 1.349 . S
C626 C624 1.327 . S
C626 C645 1.429 . S
C626 H650 0.950 . S
C627 C644 1.574 . S
C627 C646 1.368 . S
C627 H651 0.949 . S
H628 C632 0.949 . S
C629 C630 1.349 . S
C629 C631 1.327 1_554 S
C629 H652 0.950 . S
C630 C629 1.349 . S
C630 C642 1.349 . S
C631 C629 1.327 1_556 S
C631 C647 1.429 . S
C631 H653 0.950 . S
C632 H628 0.949 . S
C632 C640 1.574 . S
C632 C648 1.368 . S
H633 C641 0.950 . S
H634 C639 0.950 . S
H635 C640 0.949 . S
H636 C642 0.950 . S
H637 C643 0.950 . S
H638 C644 0.949 . S
C639 H634 0.950 . S
C639 C641 1.327 . S
C639 C645 1.429 . S
C640 C632 1.574 . S
C640 H635 0.949 . S
C640 C646 1.368 . S
C641 C625 1.349 . S
C641 H633 0.950 . S
C641 C639 1.327 . S
C642 C630 1.349 . S
C642 H636 0.950 . S
C642 C643 1.327 1_554 S
C643 H637 0.950 . S
C643 C642 1.327 1_556 S
C643 C647 1.429 . S
C644 C627 1.574 . S
C644 H638 0.949 . S
C644 C648 1.368 . S
C645 C626 1.429 . S
C645 C639 1.429 . S
C645 C646 1.523 . S
C646 C627 1.368 . S
C646 C640 1.368 . S
C646 C645 1.523 . S
C647 C631 1.429 . S
C647 C643 1.429 . S
C647 C648 1.523 . S
C648 C632 1.368 . S
C648 C644 1.368 . S
C648 C647 1.523 . S
H649 C624 0.950 . S
H650 C626 0.950 . S
H651 C627 0.949 . S
H652 C629 0.950 . S
H653 C631 0.950 . S
C654 C655 1.349 . S
C654 C656 1.327 . S
C654 H679 0.950 . S
C655 C654 1.349 . S
C655 C671 1.349 . S
C656 C654 1.327 . S
C656 C675 1.429 . S
C656 H680 0.950 . S
C657 C674 1.574 . S
C657 C676 1.368 . S
C657 H681 0.949 . S
H658 C662 0.949 . S
C659 C660 1.349 . S
C659 C661 1.327 . S
C659 H682 0.950 . S
C660 C659 1.349 . S
C660 C672 1.349 . S
C661 C659 1.327 . S
C661 C677 1.429 . S
C661 H683 0.950 . S
C662 H658 0.949 . S
C662 C670 1.574 . S
C662 C678 1.368 . S
H663 C671 0.950 . S
H664 C669 0.950 . S
H665 C670 0.949 . S
H666 C672 0.950 . S
H667 C673 0.950 . S
H668 C674 0.949 . S
C669 H664 0.950 . S
C669 C671 1.327 . S
C669 C675 1.429 . S
C670 C662 1.574 . S
C670 H665 0.949 . S
C670 C676 1.368 . S
C671 C655 1.349 . S
C671 H663 0.950 . S
C671 C669 1.327 . S
C672 C660 1.349 . S
C672 H666 0.950 . S
C672 C673 1.327 . S
C673 H667 0.950 . S
C673 C672 1.327 . S
C673 C677 1.429 . S
C674 C657 1.574 . S
C674 H668 0.949 . S
C674 C678 1.368 . S
C675 C656 1.429 . S
C675 C669 1.429 . S
C675 C676 1.523 . S
C676 C657 1.368 . S
C676 C670 1.368 . S
C676 C675 1.523 . S
C677 C661 1.429 . S
C677 C673 1.429 . S
C677 C678 1.523 . S
C678 C662 1.368 . S
C678 C674 1.368 . S
C678 C677 1.523 . S
H679 C654 0.950 . S
H680 C656 0.950 . S
H681 C657 0.949 . S
H682 C659 0.950 . S
H683 C661 0.950 . S
C684 C685 1.349 . S
C684 C686 1.327 1_554 S
C684 H709 0.950 . S
C685 C684 1.349 . S
C685 C701 1.349 . S
C686 C684 1.327 1_556 S
C686 C705 1.429 . S
C686 H710 0.950 . S
C687 C704 1.574 . S
C687 C706 1.368 . S
C687 H711 0.949 . S
H688 C692 0.949 . S
C689 C690 1.349 . S
C689 C691 1.327 . S
C689 H712 0.950 . S
C690 C689 1.349 . S
C690 C702 1.349 . S
C691 C689 1.327 . S
C691 C707 1.429 . S
C691 H713 0.950 . S
C692 H688 0.949 . S
C692 C700 1.574 . S
C692 C708 1.368 . S
H693 C701 0.950 . S
H694 C699 0.950 . S
H695 C700 0.949 . S
H696 C702 0.950 . S
H697 C703 0.950 . S
H698 C704 0.949 . S
C699 H694 0.950 . S
C699 C701 1.327 1_556 S
C699 C705 1.429 . S
C700 C692 1.574 . S
C700 H695 0.949 . S
C700 C706 1.368 . S
C701 C685 1.349 . S
C701 H693 0.950 . S
C701 C699 1.327 1_554 S
C702 C690 1.349 . S
C702 H696 0.950 . S
C702 C703 1.327 . S
C703 H697 0.950 . S
C703 C702 1.327 . S
C703 C707 1.429 . S
C704 C687 1.574 . S
C704 H698 0.949 . S
C704 C708 1.368 . S
C705 C686 1.429 . S
C705 C699 1.429 . S
C705 C706 1.523 . S
C706 C687 1.368 . S
C706 C700 1.368 . S
C706 C705 1.523 . S
C707 C691 1.429 . S
C707 C703 1.429 . S
C707 C708 1.523 . S
C708 C692 1.368 . S
C708 C704 1.368 . S
C708 C707 1.523 . S
H709 C684 0.950 . S
H710 C686 0.950 . S
H711 C687 0.949 . S
H712 C689 0.950 . S
H713 C691 0.950 . S
C714 C715 1.349 . S
C714 C716 1.327 . S
C714 H739 0.950 . S
C715 C714 1.349 . S
C715 C731 1.349 . S
C716 C714 1.327 . S
C716 C735 1.429 . S
C716 H740 0.950 . S
C717 C734 1.574 . S
C717 C736 1.368 . S
C717 H741 0.949 . S
H718 C722 0.949 . S
C719 C720 1.349 . S
C719 C721 1.327 . S
C719 H742 0.950 . S
C720 C719 1.349 . S
C720 C732 1.349 . S
C721 C719 1.327 . S
C721 C737 1.429 . S
C721 H743 0.950 . S
C722 H718 0.949 . S
C722 C730 1.574 . S
C722 C738 1.368 . S
H723 C731 0.950 . S
H724 C729 0.950 . S
H725 C730 0.949 . S
H726 C732 0.950 . S
H727 C733 0.950 . S
H728 C734 0.949 . S
C729 H724 0.950 . S
C729 C731 1.327 . S
C729 C735 1.429 . S
C730 C722 1.574 . S
C730 H725 0.949 . S
C730 C736 1.368 . S
C731 C715 1.349 . S
C731 H723 0.950 . S
C731 C729 1.327 . S
C732 C720 1.349 . S
C732 H726 0.950 . S
C732 C733 1.327 . S
C733 H727 0.950 . S
C733 C732 1.327 . S
C733 C737 1.429 . S
C734 C717 1.574 . S
C734 H728 0.949 . S
C734 C738 1.368 . S
C735 C716 1.429 . S
C735 C729 1.429 . S
C735 C736 1.523 . S
C736 C717 1.368 . S
C736 C730 1.368 . S
C736 C735 1.523 . S
C737 C721 1.429 . S
C737 C733 1.429 . S
C737 C738 1.523 . S
C738 C722 1.368 . S
C738 C734 1.368 . S
C738 C737 1.523 . S
H739 C714 0.950 . S
H740 C716 0.950 . S
H741 C717 0.949 . S
H742 C719 0.950 . S
H743 C721 0.950 . S
C744 C745 1.349 . S
C744 C746 1.327 . S
C744 H769 0.950 . S
C745 C744 1.349 . S
C745 C761 1.349 . S
C746 C744 1.327 . S
C746 C765 1.429 . S
C746 H770 0.950 . S
C747 C764 1.574 . S
C747 C766 1.368 . S
C747 H771 0.949 . S
H748 C752 0.949 . S
C749 C750 1.349 . S
C749 C751 1.327 . S
C749 H772 0.950 . S
C750 C749 1.349 . S
C750 C762 1.349 . S
C751 C749 1.327 . S
C751 C767 1.429 . S
C751 H773 0.950 . S
C752 H748 0.949 . S
C752 C760 1.574 . S
C752 C768 1.368 . S
H753 C761 0.950 . S
H754 C759 0.950 . S
H755 C760 0.949 . S
H756 C762 0.950 . S
H757 C763 0.950 . S
H758 C764 0.949 . S
C759 H754 0.950 . S
C759 C761 1.327 . S
C759 C765 1.429 . S
C760 C752 1.574 . S
C760 H755 0.949 . S
C760 C766 1.368 . S
C761 C745 1.349 . S
C761 H753 0.950 . S
C761 C759 1.327 . S
C762 C750 1.349 . S
C762 H756 0.950 . S
C762 C763 1.327 . S
C763 H757 0.950 . S
C763 C762 1.327 . S
C763 C767 1.429 . S
C764 C747 1.574 . S
C764 H758 0.949 . S
C764 C768 1.368 . S
C765 C746 1.429 . S
C765 C759 1.429 . S
C765 C766 1.523 . S
C766 C747 1.368 . S
C766 C760 1.368 . S
C766 C765 1.523 . S
C767 C751 1.429 . S
C767 C763 1.429 . S
C767 C768 1.523 . S
C768 C752 1.368 . S
C768 C764 1.368 . S
C768 C767 1.523 . S
H769 C744 0.950 . S
H770 C746 0.950 . S
H771 C747 0.949 . S
H772 C749 0.950 . S
H773 C751 0.950 . S
C774 C775 1.349 . S
C774 C776 1.327 1_556 S
C774 H799 0.950 . S
C775 C774 1.349 . S
C775 C791 1.349 . S
C776 C774 1.327 1_554 S
C776 C795 1.429 . S
C776 H800 0.950 . S
C777 C794 1.574 . S
C777 C796 1.368 . S
C777 H801 0.949 . S
H778 C782 0.949 . S
C779 C780 1.349 . S
C779 C781 1.327 . S
C779 H802 0.950 . S
C780 C779 1.349 . S
C780 C792 1.349 . S
C781 C779 1.327 . S
C781 C797 1.429 . S
C781 H803 0.950 . S
C782 H778 0.949 . S
C782 C790 1.574 . S
C782 C798 1.368 . S
H783 C791 0.950 . S
H784 C789 0.950 . S
H785 C790 0.949 . S
H786 C792 0.950 . S
H787 C793 0.950 . S
H788 C794 0.949 . S
C789 H784 0.950 . S
C789 C791 1.327 1_554 S
C789 C795 1.429 . S
C790 C782 1.574 . S
C790 H785 0.949 . S
C790 C796 1.368 . S
C791 C775 1.349 . S
C791 H783 0.950 . S
C791 C789 1.327 1_556 S
C792 C780 1.349 . S
C792 H786 0.950 . S
C792 C793 1.327 . S
C793 H787 0.950 . S
C793 C792 1.327 . S
C793 C797 1.429 . S
C794 C777 1.574 . S
C794 H788 0.949 . S
C794 C798 1.368 . S
C795 C776 1.429 . S
C795 C789 1.429 . S
C795 C796 1.523 . S
C796 C777 1.368 . S
C796 C790 1.368 . S
C796 C795 1.523 . S
C797 C781 1.429 . S
C797 C793 1.429 . S
C797 C798 1.523 . S
C798 C782 1.368 . S
C798 C794 1.368 . S
C798 C797 1.523 . S
H799 C774 0.950 . S
H800 C776 0.950 . S
H801 C777 0.949 . S
H802 C779 0.950 . S
H803 C781 0.950 . S
C804 C805 1.349 . S
C804 C806 1.327 . S
C804 H829 0.950 . S
C805 C804 1.349 . S
C805 C821 1.349 . S
C806 C804 1.327 . S
C806 C825 1.429 . S
C806 H830 0.950 . S
C807 C824 1.574 . S
C807 C826 1.368 . S
C807 H831 0.949 . S
H808 C812 0.949 . S
C809 C810 1.349 . S
C809 C811 1.327 . S
C809 H832 0.950 . S
C810 C809 1.349 . S
C810 C822 1.349 . S
C811 C809 1.327 . S
C811 C827 1.429 . S
C811 H833 0.950 . S
C812 H808 0.949 . S
C812 C820 1.574 . S
C812 C828 1.368 . S
H813 C821 0.950 . S
H814 C819 0.950 . S
H815 C820 0.949 . S
H816 C822 0.950 . S
H817 C823 0.950 . S
H818 C824 0.949 . S
C819 H814 0.950 . S
C819 C821 1.327 . S
C819 C825 1.429 . S
C820 C812 1.574 . S
C820 H815 0.949 . S
C820 C826 1.368 . S
C821 C805 1.349 . S
C821 H813 0.950 . S
C821 C819 1.327 . S
C822 C810 1.349 . S
C822 H816 0.950 . S
C822 C823 1.327 . S
C823 H817 0.950 . S
C823 C822 1.327 . S
C823 C827 1.429 . S
C824 C807 1.574 . S
C824 H818 0.949 . S
C824 C828 1.368 . S
C825 C806 1.429 . S
C825 C819 1.429 . S
C825 C826 1.523 . S
C826 C807 1.368 . S
C826 C820 1.368 . S
C826 C825 1.523 . S
C827 C811 1.429 . S
C827 C823 1.429 . S
C827 C828 1.523 . S
C828 C812 1.368 . S
C828 C824 1.368 . S
C828 C827 1.523 . S
H829 C804 0.950 . S
H830 C806 0.950 . S
H831 C807 0.949 . S
H832 C809 0.950 . S
H833 C811 0.950 . S
C834 C835 1.349 . S
C834 C836 1.327 . S
C834 H859 0.950 . S
C835 C834 1.349 . S
C835 C851 1.349 . S
C836 C834 1.327 . S
C836 C855 1.429 . S
C836 H860 0.950 . S
C837 C854 1.574 . S
C837 C856 1.368 . S
C837 H861 0.949 . S
H838 C842 0.949 . S
C839 C840 1.349 . S
C839 C841 1.327 1_556 S
C839 H862 0.950 . S
C840 C839 1.349 . S
C840 C852 1.349 . S
C841 C839 1.327 1_554 S
C841 C857 1.429 . S
C841 H863 0.950 . S
C842 H838 0.949 . S
C842 C850 1.574 . S
C842 C858 1.368 . S
H843 C851 0.950 . S
H844 C849 0.950 . S
H845 C850 0.949 . S
H846 C852 0.950 . S
H847 C853 0.950 . S
H848 C854 0.949 . S
C849 H844 0.950 . S
C849 C851 1.327 . S
C849 C855 1.429 . S
C850 C842 1.574 . S
C850 H845 0.949 . S
C850 C856 1.368 . S
C851 C835 1.349 . S
C851 H843 0.950 . S
C851 C849 1.327 . S
C852 C840 1.349 . S
C852 H846 0.950 . S
C852 C853 1.327 1_556 S
C853 H847 0.950 . S
C853 C852 1.327 1_554 S
C853 C857 1.429 . S
C854 C837 1.574 . S
C854 H848 0.949 . S
C854 C858 1.368 . S
C855 C836 1.429 . S
C855 C849 1.429 . S
C855 C856 1.523 . S
C856 C837 1.368 . S
C856 C850 1.368 . S
C856 C855 1.523 . S
C857 C841 1.429 . S
C857 C853 1.429 . S
C857 C858 1.523 . S
C858 C842 1.368 . S
C858 C854 1.368 . S
C858 C857 1.523 . S
H859 C834 0.950 . S
H860 C836 0.950 . S
H861 C837 0.949 . S
H862 C839 0.950 . S
H863 C841 0.950 . S
C265 C239 0.917 . S
C270 C8 0.917 . S
C295 C140 0.917 . S
C300 C41 0.917 . S
C325 C74 0.917 . S
C330 C173 0.917 . S
C355 C206 0.917 . S
C360 C107 0.917 . S
C385 C28 1.418 . S
C390 C160 1.418 . S
C415 C193 1.418 . S
C420 C61 1.418 . S
C445 C226 1.418 . S
C450 C94 1.418 . S
C475 C259 1.418 . S
C480 C127 1.418 . S
C505 C248 1.515 . S
C510 C50 1.515 . S
C535 C83 1.515 . S
C540 C149 1.515 . S
C565 C116 1.515 . S
C570 C182 1.515 . S
C595 C215 1.514 . S
C600 C17 1.514 . S
C625 N14 1.211 . S
C630 N5 1.214 . S
C655 N38 1.214 . S
C660 N47 1.211 . S
C685 N71 1.214 . S
C690 N80 1.211 . S
C715 N113 1.211 . S
C720 N104 1.214 . S
C745 N137 1.214 . S
C750 N146 1.211 . S
C775 N170 1.214 . S
C780 N179 1.211 . S
C805 N203 1.214 . S
C810 N212 1.211 . S
C835 N245 1.211 . S
C840 N236 1.214 . S
