# Generated by pormake.
# Topology vbb, (4)-cn, num edge types: 1
# Building blocks:
#     Node 0, Type 0, BuildingBlock: ICAMEG_clean_sbu_1, # of connection points: 4
#     Node 1, Type 0, BuildingBlock: ICAMEG_clean_sbu_1, # of connection points: 4
#     Node 2, Type 0, BuildingBlock: ICAMEG_clean_sbu_1, # of connection points: 4
#     Node 3, Type 0, BuildingBlock: ICAMEG_clean_sbu_1, # of connection points: 4
#     Node 4, Type 0, BuildingBlock: ICAMEG_clean_sbu_1, # of connection points: 4
#     Node 5, Type 0, BuildingBlock: ICAMEG_clean_sbu_1, # of connection points: 4
#     Node 6, Type 0, BuildingBlock: ICAMEG_clean_sbu_1, # of connection points: 4
#     Node 7, Type 0, BuildingBlock: ICAMEG_clean_sbu_1, # of connection points: 4
#     Node 8, Type 0, BuildingBlock: ICAMEG_clean_sbu_1, # of connection points: 4
#     Node 9, Type 0, BuildingBlock: ICAMEG_clean_sbu_1, # of connection points: 4
#     Node 10, Type 0, BuildingBlock: ICAMEG_clean_sbu_1, # of connection points: 4
#     Node 11, Type 0, BuildingBlock: ICAMEG_clean_sbu_1, # of connection points: 4
#     Node 12, Type 0, BuildingBlock: ICAMEG_clean_sbu_1, # of connection points: 4
#     Node 13, Type 0, BuildingBlock: ICAMEG_clean_sbu_1, # of connection points: 4
#     Node 14, Type 0, BuildingBlock: ICAMEG_clean_sbu_1, # of connection points: 4
#     Node 15, Type 0, BuildingBlock: ICAMEG_clean_sbu_1, # of connection points: 4
#     Node 16, Type 0, BuildingBlock: ICAMEG_clean_sbu_1, # of connection points: 4
#     Node 17, Type 0, BuildingBlock: ICAMEG_clean_sbu_1, # of connection points: 4
#     Node 18, Type 0, BuildingBlock: ICAMEG_clean_sbu_1, # of connection points: 4
#     Node 19, Type 0, BuildingBlock: ICAMEG_clean_sbu_1, # of connection points: 4
#     Node 20, Type 0, BuildingBlock: ICAMEG_clean_sbu_1, # of connection points: 4
#     Node 21, Type 0, BuildingBlock: ICAMEG_clean_sbu_1, # of connection points: 4
#     Node 22, Type 0, BuildingBlock: ICAMEG_clean_sbu_1, # of connection points: 4
#     Node 23, Type 0, BuildingBlock: ICAMEG_clean_sbu_1, # of connection points: 4
#     Node 24, Type 0, BuildingBlock: ICAMEG_clean_sbu_1, # of connection points: 4
#     Node 25, Type 0, BuildingBlock: ICAMEG_clean_sbu_1, # of connection points: 4
#     Node 26, Type 0, BuildingBlock: ICAMEG_clean_sbu_1, # of connection points: 4
#     Node 27, Type 0, BuildingBlock: ICAMEG_clean_sbu_1, # of connection points: 4
#     Node 28, Type 0, BuildingBlock: ICAMEG_clean_sbu_1, # of connection points: 4
#     Node 29, Type 0, BuildingBlock: ICAMEG_clean_sbu_1, # of connection points: 4
#     Node 30, Type 0, BuildingBlock: ICAMEG_clean_sbu_1, # of connection points: 4
#     Node 31, Type 0, BuildingBlock: ICAMEG_clean_sbu_1, # of connection points: 4
#     Edge 32, Type (0, 0), BuildingBlock: KIFKEQ_clean_linker_1, # of connection points: 2
#     Edge 33, Type (0, 0), BuildingBlock: KIFKEQ_clean_linker_1, # of connection points: 2
#     Edge 34, Type (0, 0), BuildingBlock: KIFKEQ_clean_linker_1, # of connection points: 2
#     Edge 35, Type (0, 0), BuildingBlock: KIFKEQ_clean_linker_1, # of connection points: 2
#     Edge 36, Type (0, 0), BuildingBlock: KIFKEQ_clean_linker_1, # of connection points: 2
#     Edge 37, Type (0, 0), BuildingBlock: KIFKEQ_clean_linker_1, # of connection points: 2
#     Edge 38, Type (0, 0), BuildingBlock: KIFKEQ_clean_linker_1, # of connection points: 2
#     Edge 39, Type (0, 0), BuildingBlock: KIFKEQ_clean_linker_1, # of connection points: 2
#     Edge 40, Type (0, 0), BuildingBlock: KIFKEQ_clean_linker_1, # of connection points: 2
#     Edge 41, Type (0, 0), BuildingBlock: KIFKEQ_clean_linker_1, # of connection points: 2
#     Edge 42, Type (0, 0), BuildingBlock: KIFKEQ_clean_linker_1, # of connection points: 2
#     Edge 43, Type (0, 0), BuildingBlock: KIFKEQ_clean_linker_1, # of connection points: 2
#     Edge 44, Type (0, 0), BuildingBlock: KIFKEQ_clean_linker_1, # of connection points: 2
#     Edge 45, Type (0, 0), BuildingBlock: KIFKEQ_clean_linker_1, # of connection points: 2
#     Edge 46, Type (0, 0), BuildingBlock: KIFKEQ_clean_linker_1, # of connection points: 2
#     Edge 47, Type (0, 0), BuildingBlock: KIFKEQ_clean_linker_1, # of connection points: 2
#     Edge 48, Type (0, 0), BuildingBlock: KIFKEQ_clean_linker_1, # of connection points: 2
#     Edge 49, Type (0, 0), BuildingBlock: KIFKEQ_clean_linker_1, # of connection points: 2
#     Edge 50, Type (0, 0), BuildingBlock: KIFKEQ_clean_linker_1, # of connection points: 2
#     Edge 51, Type (0, 0), BuildingBlock: KIFKEQ_clean_linker_1, # of connection points: 2
#     Edge 52, Type (0, 0), BuildingBlock: KIFKEQ_clean_linker_1, # of connection points: 2
#     Edge 53, Type (0, 0), BuildingBlock: KIFKEQ_clean_linker_1, # of connection points: 2
#     Edge 54, Type (0, 0), BuildingBlock: KIFKEQ_clean_linker_1, # of connection points: 2
#     Edge 55, Type (0, 0), BuildingBlock: KIFKEQ_clean_linker_1, # of connection points: 2
#     Edge 56, Type (0, 0), BuildingBlock: KIFKEQ_clean_linker_1, # of connection points: 2
#     Edge 57, Type (0, 0), BuildingBlock: KIFKEQ_clean_linker_1, # of connection points: 2
#     Edge 58, Type (0, 0), BuildingBlock: KIFKEQ_clean_linker_1, # of connection points: 2
#     Edge 59, Type (0, 0), BuildingBlock: KIFKEQ_clean_linker_1, # of connection points: 2
#     Edge 60, Type (0, 0), BuildingBlock: KIFKEQ_clean_linker_1, # of connection points: 2
#     Edge 61, Type (0, 0), BuildingBlock: KIFKEQ_clean_linker_1, # of connection points: 2
#     Edge 62, Type (0, 0), BuildingBlock: KIFKEQ_clean_linker_1, # of connection points: 2
#     Edge 63, Type (0, 0), BuildingBlock: KIFKEQ_clean_linker_1, # of connection points: 2
#     Edge 64, Type (0, 0), BuildingBlock: KIFKEQ_clean_linker_1, # of connection points: 2
#     Edge 65, Type (0, 0), BuildingBlock: KIFKEQ_clean_linker_1, # of connection points: 2
#     Edge 66, Type (0, 0), BuildingBlock: KIFKEQ_clean_linker_1, # of connection points: 2
#     Edge 67, Type (0, 0), BuildingBlock: KIFKEQ_clean_linker_1, # of connection points: 2
#     Edge 68, Type (0, 0), BuildingBlock: KIFKEQ_clean_linker_1, # of connection points: 2
#     Edge 69, Type (0, 0), BuildingBlock: KIFKEQ_clean_linker_1, # of connection points: 2
#     Edge 70, Type (0, 0), BuildingBlock: KIFKEQ_clean_linker_1, # of connection points: 2
#     Edge 71, Type (0, 0), BuildingBlock: KIFKEQ_clean_linker_1, # of connection points: 2
#     Edge 72, Type (0, 0), BuildingBlock: KIFKEQ_clean_linker_1, # of connection points: 2
#     Edge 73, Type (0, 0), BuildingBlock: KIFKEQ_clean_linker_1, # of connection points: 2
#     Edge 74, Type (0, 0), BuildingBlock: KIFKEQ_clean_linker_1, # of connection points: 2
#     Edge 75, Type (0, 0), BuildingBlock: KIFKEQ_clean_linker_1, # of connection points: 2
#     Edge 76, Type (0, 0), BuildingBlock: KIFKEQ_clean_linker_1, # of connection points: 2
#     Edge 77, Type (0, 0), BuildingBlock: KIFKEQ_clean_linker_1, # of connection points: 2
#     Edge 78, Type (0, 0), BuildingBlock: KIFKEQ_clean_linker_1, # of connection points: 2
#     Edge 79, Type (0, 0), BuildingBlock: KIFKEQ_clean_linker_1, # of connection points: 2
#     Edge 80, Type (0, 0), BuildingBlock: KIFKEQ_clean_linker_1, # of connection points: 2
#     Edge 81, Type (0, 0), BuildingBlock: KIFKEQ_clean_linker_1, # of connection points: 2
#     Edge 82, Type (0, 0), BuildingBlock: KIFKEQ_clean_linker_1, # of connection points: 2
#     Edge 83, Type (0, 0), BuildingBlock: KIFKEQ_clean_linker_1, # of connection points: 2
#     Edge 84, Type (0, 0), BuildingBlock: KIFKEQ_clean_linker_1, # of connection points: 2
#     Edge 85, Type (0, 0), BuildingBlock: KIFKEQ_clean_linker_1, # of connection points: 2
#     Edge 86, Type (0, 0), BuildingBlock: KIFKEQ_clean_linker_1, # of connection points: 2
#     Edge 87, Type (0, 0), BuildingBlock: KIFKEQ_clean_linker_1, # of connection points: 2
#     Edge 88, Type (0, 0), BuildingBlock: KIFKEQ_clean_linker_1, # of connection points: 2
#     Edge 89, Type (0, 0), BuildingBlock: KIFKEQ_clean_linker_1, # of connection points: 2
#     Edge 90, Type (0, 0), BuildingBlock: KIFKEQ_clean_linker_1, # of connection points: 2
#     Edge 91, Type (0, 0), BuildingBlock: KIFKEQ_clean_linker_1, # of connection points: 2
#     Edge 92, Type (0, 0), BuildingBlock: KIFKEQ_clean_linker_1, # of connection points: 2
#     Edge 93, Type (0, 0), BuildingBlock: KIFKEQ_clean_linker_1, # of connection points: 2
#     Edge 94, Type (0, 0), BuildingBlock: KIFKEQ_clean_linker_1, # of connection points: 2
#     Edge 95, Type (0, 0), BuildingBlock: KIFKEQ_clean_linker_1, # of connection points: 2
# Relax obj value: 0.069
# Max RMSD: 0.277
# Mean RMSD: 0.252
data_MOF--net-vbb--node1-ICAMEG_clean_sbu_1--edge1-KIFKEQ_clean_linker_1
_symmetry_space_group_name_H-M    P1
_symmetry_Int_Tables_number       1
_symmetry_cell_setting            triclinic
loop_
_symmetry_equiv_pos_as_xyz
'x, y, z'
_cell_length_a     58.130924
_cell_length_b     23.115168
_cell_length_c     121.42437
_cell_angle_alpha  88.55127
_cell_angle_beta   90.394091
_cell_angle_gamma 89.983607
loop_
_atom_site_label
_atom_site_type_symbol
_atom_site_fract_x
_atom_site_fract_y
_atom_site_fract_z
_atom_type_partial_charge
Co0 Co 0.49427 0.11077 0.06038 0.0
Co1 Co 0.50312 0.97785 0.07315 0.0
O2 O 0.48996 0.02804 0.06182 0.0
C3 C 0.51192 0.05837 0.04037 0.0
O4 O 0.52437 0.02668 0.04725 0.0
C5 C 0.45315 0.9709 0.07539 0.0
O6 O 0.45422 0.0275 0.07507 0.0
O7 O 0.49528 0.0327 0.0847 0.0
O8 O 0.48953 0.12091 0.07675 0.0
H9 H 0.55096 0.92726 0.10665 0.0
H10 H 0.46025 0.05154 0.04614 0.0
O11 O 0.49936 0.09895 0.04408 0.0
H12 H 0.41568 0.19434 0.06666 0.0
H13 H 0.4853 0.30314 0.04055 0.0
H14 H 0.51852 0.20073 0.07304 0.0
H15 H 0.4577 0.18626 0.06925 0.0
H16 H 0.47968 0.19792 0.04332 0.0
O17 O 0.47166 0.94109 0.07483 0.0
H18 H 0.53505 0.99221 0.09207 0.0
H19 H 0.49736 0.85281 0.07872 0.0
H20 H 0.52444 0.30598 0.07065 0.0
H21 H 0.41831 0.05842 0.04325 0.0
H22 H 0.50775 0.35787 0.0543 0.0
H23 H 0.39571 0.13004 0.05359 0.0
O24 O 0.52765 0.10336 0.06327 0.0
H25 H 0.48797 0.86074 0.03954 0.0
H26 H 0.54567 0.91374 0.0675 0.0
H27 H 0.55649 0.84734 0.05279 0.0
H28 H 0.52751 0.82042 0.03869 0.0
H29 H 0.47794 0.92721 0.05435 0.0
H30 H 0.51271 0.78634 0.09322 0.0
H31 H 0.53979 0.82351 0.10729 0.0
O32 O 0.53418 0.01678 0.07167 0.0
C33 C 0.49065 0.08642 0.0852 0.0
C34 C 0.53925 0.9105 0.10054 0.0
C35 C 0.51776 0.83142 0.09301 0.0
N36 N 0.51551 0.9261 0.0845 0.0
C37 C 0.53026 0.94702 0.09224 0.0
C38 C 0.5091 0.86923 0.08484 0.0
C39 C 0.53295 0.85231 0.1009 0.0
C40 C 0.4506 0.08334 0.05057 0.0
N41 N 0.46144 0.11878 0.0578 0.0
C42 C 0.42682 0.08682 0.04894 0.0
C43 C 0.41415 0.12696 0.05476 0.0
C44 C 0.42534 0.16303 0.06209 0.0
C45 C 0.44913 0.15826 0.06353 0.0
C46 C 0.4926 0.28105 0.04772 0.0
C47 C 0.51106 0.22312 0.06596 0.0
C48 C 0.4895 0.22151 0.04932 0.0
N49 N 0.49856 0.19345 0.05839 0.0
C50 C 0.51454 0.28266 0.06462 0.0
C51 C 0.5052 0.31173 0.05544 0.0
C52 C 0.54099 0.06629 0.06793 0.0
C53 C 0.50071 0.87191 0.04567 0.0
C54 C 0.53298 0.90215 0.06139 0.0
C55 C 0.53919 0.86451 0.05309 0.0
C56 C 0.52291 0.84937 0.04519 0.0
N57 N 0.51116 0.92393 0.06182 0.0
C58 C 0.49511 0.90935 0.0541 0.0
Co59 Co 0.75425 0.14396 0.06168 0.0
Co60 Co 0.74537 0.27956 0.07204 0.0
O61 O 0.75807 0.22714 0.0615 0.0
C62 C 0.73463 0.1906 0.041 0.0
O63 O 0.72215 0.22286 0.04737 0.0
C64 C 0.79549 0.28836 0.07346 0.0
O65 O 0.79479 0.23173 0.07365 0.0
O66 O 0.75416 0.22766 0.08447 0.0
O67 O 0.76055 0.13824 0.07809 0.0
H68 H 0.6991 0.33609 0.10488 0.0
H69 H 0.78648 0.20009 0.04576 0.0
O70 O 0.74768 0.15147 0.04532 0.0
H71 H 0.83377 0.06329 0.06801 0.0
H72 H 0.76256 0.94731 0.04536 0.0
H73 H 0.73197 0.05652 0.07641 0.0
H74 H 0.79214 0.07233 0.07141 0.0
H75 H 0.7677 0.05317 0.04605 0.0
O76 O 0.77673 0.31747 0.07299 0.0
H77 H 0.71454 0.2685 0.09136 0.0
H78 H 0.75081 0.40575 0.07537 0.0
H79 H 0.72659 0.95071 0.07611 0.0
H80 H 0.82795 0.1919 0.04201 0.0
H81 H 0.74195 0.8954 0.06049 0.0
H82 H 0.85192 0.12324 0.0532 0.0
O83 O 0.72111 0.15082 0.06492 0.0
H84 H 0.75816 0.38844 0.03626 0.0
H85 H 0.70228 0.34153 0.06553 0.0
H86 H 0.69036 0.40378 0.04969 0.0
H87 H 0.71842 0.42759 0.03492 0.0
H88 H 0.7693 0.32618 0.05222 0.0
H89 H 0.73591 0.47484 0.08877 0.0
H90 H 0.70978 0.44009 0.10362 0.0
O91 O 0.71438 0.23972 0.07139 0.0
C92 C 0.75955 0.1746 0.08589 0.0
C93 C 0.71039 0.3518 0.09841 0.0
C94 C 0.73108 0.42967 0.08938 0.0
N95 N 0.73334 0.33337 0.08253 0.0
C96 C 0.71911 0.31378 0.09072 0.0
C97 C 0.73948 0.39038 0.08183 0.0
C98 C 0.71642 0.41014 0.09771 0.0
C99 C 0.79672 0.16958 0.05058 0.0
N100 N 0.78685 0.13633 0.05873 0.0
C101 C 0.82022 0.16533 0.04845 0.0
C102 C 0.83367 0.12686 0.05474 0.0
C103 C 0.8235 0.09326 0.06306 0.0
C104 C 0.79994 0.09864 0.06496 0.0
C105 C 0.75584 0.97091 0.05222 0.0
C106 C 0.73886 0.03266 0.06964 0.0
C107 C 0.75866 0.03082 0.05264 0.0
N108 N 0.75034 0.0608 0.06131 0.0
C109 C 0.73569 0.9728 0.06949 0.0
C110 C 0.74428 0.94181 0.06072 0.0
C111 C 0.70774 0.18879 0.06883 0.0
C112 C 0.74582 0.37863 0.04267 0.0
C113 C 0.71458 0.35183 0.05914 0.0
C114 C 0.70775 0.38712 0.0502 0.0
C115 C 0.72351 0.40051 0.04192 0.0
N116 N 0.73651 0.33067 0.05983 0.0
C117 C 0.75205 0.34358 0.05175 0.0
Co118 Co 0.49415 0.14958 0.18942 0.0
Co119 Co 0.50383 0.28814 0.17948 0.0
O120 O 0.4901 0.23244 0.18958 0.0
C121 C 0.51138 0.18872 0.2108 0.0
O122 O 0.52471 0.22319 0.20496 0.0
C123 C 0.45395 0.29647 0.17679 0.0
O124 O 0.4551 0.24015 0.17601 0.0
O125 O 0.49665 0.24002 0.16671 0.0
O126 O 0.49011 0.14864 0.17284 0.0
H127 H 0.55343 0.35597 0.14798 0.0
H128 H 0.4596 0.20085 0.20427 0.0
O129 O 0.49844 0.15226 0.20597 0.0
H130 H 0.41592 0.06927 0.18059 0.0
H131 H 0.48424 0.94794 0.20519 0.0
H132 H 0.51882 0.06697 0.17537 0.0
H133 H 0.4579 0.08012 0.17848 0.0
H134 H 0.47881 0.0539 0.20446 0.0
O135 O 0.47245 0.32587 0.17793 0.0
H136 H 0.5368 0.28381 0.16096 0.0
H137 H 0.49831 0.41524 0.17626 0.0
H138 H 0.52455 0.96117 0.17574 0.0
H139 H 0.41772 0.1908 0.20674 0.0
H140 H 0.50718 0.90092 0.19073 0.0
H141 H 0.39558 0.12469 0.19483 0.0
O142 O 0.52766 0.15798 0.18726 0.0
H143 H 0.48719 0.38384 0.21527 0.0
H144 H 0.54599 0.34853 0.18713 0.0
H145 H 0.55622 0.40474 0.20347 0.0
H146 H 0.5267 0.42256 0.21769 0.0
H147 H 0.47773 0.32778 0.19883 0.0
H148 H 0.51438 0.48886 0.1634 0.0
H149 H 0.54222 0.45933 0.14916 0.0
O150 O 0.53478 0.24847 0.18082 0.0
C151 C 0.49189 0.18712 0.16508 0.0
C152 C 0.54139 0.3694 0.15417 0.0
C153 C 0.51944 0.44398 0.16282 0.0
N154 N 0.5168 0.34549 0.16941 0.0
C155 C 0.53198 0.32878 0.16157 0.0
C156 C 0.51038 0.40215 0.17007 0.0
C157 C 0.53507 0.42739 0.15483 0.0
C158 C 0.45015 0.17148 0.19914 0.0
N159 N 0.46122 0.14064 0.19132 0.0
C160 C 0.42641 0.16615 0.20055 0.0
C161 C 0.41399 0.12912 0.19385 0.0
C162 C 0.42539 0.09807 0.18585 0.0
C163 C 0.44915 0.10446 0.18468 0.0
C164 C 0.49184 0.9737 0.1986 0.0
C165 C 0.51106 0.04096 0.18187 0.0
C166 C 0.48886 0.03368 0.19816 0.0
N167 N 0.49829 0.06639 0.18982 0.0
C168 C 0.51443 0.98112 0.18206 0.0
C169 C 0.50471 0.94735 0.19048 0.0
C170 C 0.54133 0.1972 0.18369 0.0
C171 C 0.50017 0.37655 0.20911 0.0
C172 C 0.53304 0.35636 0.19326 0.0
C173 C 0.53893 0.38818 0.20249 0.0
C174 C 0.52236 0.39819 0.21047 0.0
N175 N 0.51125 0.3353 0.19199 0.0
C176 C 0.49489 0.34507 0.19976 0.0
Co177 Co 0.7562 0.12294 0.19084 0.0
Co178 Co 0.74549 0.9851 0.18201 0.0
O179 O 0.7596 0.03983 0.19174 0.0
C180 C 0.73899 0.08362 0.21245 0.0
O181 O 0.72457 0.05185 0.20688 0.0
C182 C 0.79525 0.97375 0.17982 0.0
O183 O 0.79474 0.03027 0.17882 0.0
O184 O 0.75335 0.03303 0.16892 0.0
O185 O 0.76026 0.12419 0.17429 0.0
H186 H 0.69564 0.92127 0.15061 0.0
H187 H 0.79054 0.06895 0.20621 0.0
O188 O 0.75212 0.11962 0.20736 0.0
H189 H 0.8349 0.20076 0.18189 0.0
H190 H 0.76756 0.32349 0.20505 0.0
H191 H 0.7322 0.20727 0.17593 0.0
H192 H 0.79286 0.19151 0.17959 0.0
H193 H 0.77223 0.21731 0.2052 0.0
O194 O 0.77646 0.94545 0.18101 0.0
H195 H 0.71284 0.99202 0.16312 0.0
H196 H 0.7497 0.85771 0.17997 0.0
H197 H 0.72723 0.31332 0.1754 0.0
H198 H 0.83244 0.07758 0.20891 0.0
H199 H 0.74499 0.37215 0.19004 0.0
H200 H 0.85493 0.14376 0.19668 0.0
O201 O 0.72259 0.11636 0.18854 0.0
H202 H 0.76078 0.88878 0.21889 0.0
H203 H 0.7027 0.92697 0.18981 0.0
H204 H 0.69174 0.87166 0.20662 0.0
H205 H 0.72088 0.85246 0.22132 0.0
H206 H 0.77098 0.94385 0.20196 0.0
H207 H 0.73304 0.78547 0.16759 0.0
H208 H 0.70573 0.81716 0.15281 0.0
O209 O 0.71494 0.02653 0.18272 0.0
C210 C 0.75854 0.08573 0.16688 0.0
C211 C 0.70744 0.9069 0.15705 0.0
C212 C 0.72846 0.83068 0.16657 0.0
N213 N 0.73205 0.92883 0.17233 0.0
C214 C 0.71717 0.94672 0.16418 0.0
C215 C 0.73786 0.87174 0.17354 0.0
C216 C 0.71313 0.8485 0.15828 0.0
C217 C 0.80013 0.09847 0.20096 0.0
N218 N 0.78921 0.13027 0.19284 0.0
C219 C 0.82389 0.10295 0.20249 0.0
C220 C 0.8365 0.14001 0.19561 0.0
C221 C 0.82527 0.17195 0.1873 0.0
C222 C 0.80148 0.16645 0.18602 0.0
C223 C 0.75979 0.29834 0.19861 0.0
C224 C 0.74013 0.23266 0.18227 0.0
C225 C 0.76234 0.23825 0.19867 0.0
N226 N 0.7527 0.20632 0.19052 0.0
C227 C 0.73719 0.29265 0.18196 0.0
C228 C 0.74713 0.32562 0.19018 0.0
C229 C 0.70871 0.07791 0.18513 0.0
C230 C 0.74795 0.89665 0.21253 0.0
C231 C 0.71549 0.91844 0.19615 0.0
C232 C 0.70919 0.88715 0.20565 0.0
C233 C 0.72555 0.87637 0.21389 0.0
N234 N 0.73749 0.93818 0.19488 0.0
C235 C 0.75366 0.92758 0.2029 0.0
Co236 Co 0.51034 0.87991 0.94126 0.0
Co237 Co 0.49982 0.0165 0.93053 0.0
O238 O 0.51383 0.96285 0.94096 0.0
C239 C 0.49314 0.92177 0.96231 0.0
O240 O 0.47913 0.95361 0.95621 0.0
C241 C 0.54968 0.02748 0.92809 0.0
O242 O 0.54901 0.97109 0.92733 0.0
O243 O 0.5077 0.9672 0.91805 0.0
O244 O 0.51402 0.87649 0.9247 0.0
H245 H 0.45028 0.07807 0.89823 0.0
H246 H 0.54491 0.93577 0.9557 0.0
O247 O 0.50644 0.88533 0.95777 0.0
H248 H 0.58905 0.80372 0.93258 0.0
H249 H 0.52219 0.68134 0.95821 0.0
H250 H 0.48595 0.79385 0.92771 0.0
H251 H 0.54682 0.81019 0.93078 0.0
H252 H 0.52679 0.78746 0.95684 0.0
O253 O 0.53092 0.05579 0.92921 0.0
H254 H 0.4673 0.00826 0.91168 0.0
H255 H 0.50425 0.14353 0.92685 0.0
H256 H 0.48103 0.68783 0.9287 0.0
H257 H 0.58706 0.93037 0.95781 0.0
H258 H 0.49924 0.63086 0.94404 0.0
H259 H 0.60945 0.86418 0.94616 0.0
O260 O 0.47669 0.88643 0.93898 0.0
H261 H 0.51475 0.11692 0.9661 0.0
H262 H 0.45694 0.07537 0.93745 0.0
H263 H 0.44583 0.13267 0.95345 0.0
H264 H 0.47484 0.15362 0.96793 0.0
H265 H 0.52511 0.05975 0.94999 0.0
H266 H 0.48778 0.21485 0.91352 0.0
H267 H 0.46052 0.18219 0.89911 0.0
O268 O 0.46917 0.97517 0.93169 0.0
C269 C 0.51244 0.91399 0.91675 0.0
C270 C 0.46207 0.09286 0.9045 0.0
C271 C 0.48314 0.16962 0.91307 0.0
N272 N 0.48655 0.07199 0.92009 0.0
C273 C 0.47169 0.05357 0.91215 0.0
C274 C 0.49244 0.12908 0.92058 0.0
C275 C 0.46784 0.15127 0.90499 0.0
C276 C 0.55447 0.90624 0.95071 0.0
N277 N 0.54339 0.87292 0.9432 0.0
C278 C 0.57836 0.90362 0.9519 0.0
C279 C 0.59092 0.86655 0.94535 0.0
C280 C 0.57948 0.83263 0.93772 0.0
C281 C 0.55558 0.83647 0.93674 0.0
C282 C 0.51423 0.70567 0.95147 0.0
C283 C 0.49407 0.76927 0.93435 0.0
C284 C 0.51674 0.76571 0.95066 0.0
N285 N 0.50684 0.7966 0.94214 0.0
C286 C 0.49116 0.70929 0.9349 0.0
C287 C 0.50135 0.67737 0.94351 0.0
C288 C 0.46285 0.92431 0.93492 0.0
C289 C 0.50199 0.10828 0.95983 0.0
C290 C 0.46968 0.08457 0.9437 0.0
C291 C 0.46329 0.11701 0.95273 0.0
C292 C 0.47957 0.12877 0.96085 0.0
N293 N 0.49169 0.06463 0.94275 0.0
C294 C 0.50778 0.07615 0.95066 0.0
Co295 Co 0.24808 0.84887 0.93933 0.0
Co296 Co 0.25852 0.70921 0.93149 0.0
O297 O 0.24439 0.76596 0.94072 0.0
C298 C 0.26497 0.81322 0.96134 0.0
O299 O 0.27907 0.77936 0.95612 0.0
C300 C 0.20867 0.69911 0.92877 0.0
O301 O 0.20952 0.75546 0.92746 0.0
O302 O 0.2513 0.75527 0.91803 0.0
O303 O 0.24423 0.84725 0.92276 0.0
H304 H 0.30898 0.63868 0.90119 0.0
H305 H 0.21346 0.79895 0.9548 0.0
O306 O 0.25202 0.84856 0.95589 0.0
H307 H 0.16975 0.92709 0.92921 0.0
H308 H 0.23719 0.05234 0.95207 0.0
H309 H 0.27251 0.92994 0.92411 0.0
H310 H 0.21173 0.91593 0.92727 0.0
H311 H 0.23221 0.94627 0.9529 0.0
O312 O 0.22731 0.67032 0.93031 0.0
H313 H 0.29176 0.71202 0.91304 0.0
H314 H 0.25372 0.58162 0.93013 0.0
H315 H 0.27779 0.03581 0.92291 0.0
H316 H 0.17162 0.80975 0.95718 0.0
H317 H 0.26005 0.09775 0.93696 0.0
H318 H 0.14945 0.87408 0.9443 0.0
O319 O 0.28168 0.84107 0.9374 0.0
H320 H 0.2417 0.61872 0.96863 0.0
H321 H 0.30081 0.65104 0.94019 0.0
H322 H 0.31102 0.59779 0.95741 0.0
H323 H 0.28135 0.58151 0.97178 0.0
H324 H 0.23226 0.67175 0.9513 0.0
H325 H 0.27039 0.50681 0.91841 0.0
H326 H 0.2983 0.53523 0.90385 0.0
O327 O 0.28932 0.7499 0.93238 0.0
C328 C 0.24622 0.80768 0.9156 0.0
C329 C 0.29691 0.62573 0.90754 0.0
C330 C 0.27522 0.55172 0.91719 0.0
N331 N 0.27196 0.65093 0.92233 0.0
C332 C 0.28717 0.66703 0.9143 0.0
C333 C 0.26582 0.59422 0.92379 0.0
C334 C 0.29089 0.5677 0.90902 0.0
C335 C 0.20402 0.82768 0.94926 0.0
N336 N 0.21508 0.85737 0.94099 0.0
C337 C 0.18029 0.8334 0.95062 0.0
C338 C 0.16786 0.86941 0.94338 0.0
C339 C 0.17923 0.8991 0.9349 0.0
C340 C 0.20299 0.89249 0.93382 0.0
C341 C 0.24495 0.02583 0.94588 0.0
C342 C 0.26459 0.95668 0.9302 0.0
C343 C 0.24223 0.96578 0.94633 0.0
N344 N 0.25187 0.93212 0.9385 0.0
C345 C 0.26771 0.01656 0.9295 0.0
C346 C 0.25777 0.05128 0.9374 0.0
C347 C 0.2956 0.80174 0.93448 0.0
C348 C 0.25475 0.62533 0.96241 0.0
C349 C 0.28779 0.64383 0.94639 0.0
C350 C 0.29367 0.61369 0.95612 0.0
C351 C 0.27701 0.60455 0.96418 0.0
N352 N 0.26593 0.66406 0.94472 0.0
C353 C 0.24948 0.65509 0.95256 0.0
Co354 Co 0.51077 0.85023 0.81207 0.0
Co355 Co 0.50159 0.71299 0.82283 0.0
O356 O 0.51494 0.76728 0.81233 0.0
C357 C 0.49346 0.80826 0.79088 0.0
O358 O 0.48009 0.77449 0.79685 0.0
C359 C 0.55156 0.70399 0.82509 0.0
O360 O 0.55071 0.76049 0.82557 0.0
O361 O 0.5095 0.76273 0.83528 0.0
O362 O 0.51496 0.85364 0.82861 0.0
H363 H 0.45333 0.65016 0.85516 0.0
H364 H 0.54525 0.79722 0.7974 0.0
O365 O 0.50637 0.8453 0.79557 0.0
H366 H 0.58899 0.93232 0.82033 0.0
H367 H 0.52035 0.04982 0.79528 0.0
H368 H 0.48605 0.93463 0.8257 0.0
H369 H 0.54704 0.92145 0.82258 0.0
H370 H 0.52593 0.94398 0.79654 0.0
O371 O 0.5329 0.67495 0.82426 0.0
H372 H 0.46952 0.72033 0.84166 0.0
H373 H 0.50695 0.58617 0.82661 0.0
H374 H 0.48018 0.04036 0.82481 0.0
H375 H 0.58708 0.80734 0.79478 0.0
H376 H 0.4974 0.09868 0.80951 0.0
H377 H 0.60925 0.87518 0.80631 0.0
O378 O 0.47728 0.84187 0.81434 0.0
H379 H 0.51642 0.61195 0.78741 0.0
H380 H 0.45897 0.65207 0.81593 0.0
H381 H 0.44792 0.59354 0.80002 0.0
H382 H 0.47675 0.57326 0.78562 0.0
H383 H 0.5267 0.67038 0.80344 0.0
H384 H 0.49131 0.51452 0.84 0.0
H385 H 0.46422 0.54643 0.85437 0.0
O386 O 0.47066 0.75283 0.82162 0.0
C387 C 0.51391 0.81612 0.83657 0.0
C388 C 0.46504 0.6357 0.84891 0.0
C389 C 0.48639 0.55957 0.84041 0.0
N390 N 0.48896 0.65717 0.83331 0.0
C391 C 0.4742 0.67518 0.84122 0.0
C392 C 0.49521 0.6003 0.83287 0.0
C393 C 0.47118 0.57751 0.84847 0.0
C394 C 0.55471 0.82738 0.80236 0.0
N395 N 0.54367 0.85915 0.81006 0.0
C396 C 0.57842 0.83273 0.80087 0.0
C397 C 0.59086 0.87073 0.80736 0.0
C398 C 0.5795 0.90275 0.81523 0.0
C399 C 0.55577 0.89632 0.81649 0.0
C400 C 0.51281 0.0249 0.802 0.0
C401 C 0.49376 0.9598 0.81908 0.0
C402 C 0.51588 0.965 0.80275 0.0
N403 N 0.50653 0.93336 0.81125 0.0
C404 C 0.4903 0.01961 0.81859 0.0
C405 C 0.49994 0.05229 0.80999 0.0
C406 C 0.46387 0.80331 0.81838 0.0
C407 C 0.50373 0.62031 0.79366 0.0
C408 C 0.47162 0.64322 0.80971 0.0
C409 C 0.46527 0.61007 0.80073 0.0
C410 C 0.48146 0.59869 0.79265 0.0
N411 N 0.4935 0.66423 0.81064 0.0
C412 C 0.50948 0.65314 0.80277 0.0
Co413 Co 0.24974 0.87615 0.81018 0.0
Co414 Co 0.25835 0.00852 0.82201 0.0
O415 O 0.24557 0.9591 0.8109 0.0
C416 C 0.26833 0.92929 0.78997 0.0
O417 O 0.28098 0.9598 0.79665 0.0
C418 C 0.20826 0.01639 0.82344 0.0
O419 O 0.20901 0.95987 0.82301 0.0
O420 O 0.24987 0.95307 0.83385 0.0
O421 O 0.244 0.86542 0.82654 0.0
H422 H 0.30509 0.05566 0.85557 0.0
H423 H 0.21669 0.93601 0.79493 0.0
O424 O 0.25566 0.88858 0.79389 0.0
H425 H 0.17078 0.79177 0.81577 0.0
H426 H 0.24166 0.68467 0.79178 0.0
H427 H 0.27297 0.78529 0.82393 0.0
H428 H 0.2125 0.80081 0.81918 0.0
H429 H 0.23607 0.78985 0.79361 0.0
O430 O 0.22696 0.04566 0.82331 0.0
H431 H 0.28956 0.99213 0.84128 0.0
H432 H 0.25271 0.13331 0.82669 0.0
H433 H 0.27882 0.68005 0.82247 0.0
H434 H 0.17512 0.92792 0.79116 0.0
H435 H 0.2631 0.62906 0.80631 0.0
H436 H 0.15184 0.85552 0.80165 0.0
O437 O 0.283 0.88292 0.81344 0.0
H438 H 0.2445 0.12814 0.78747 0.0
H439 H 0.30118 0.07278 0.81625 0.0
H440 H 0.31256 0.14018 0.80117 0.0
H441 H 0.28409 0.16831 0.78665 0.0
H442 H 0.23391 0.06064 0.80266 0.0
H443 H 0.2677 0.19836 0.84087 0.0
H444 H 0.29416 0.15958 0.85541 0.0
O445 O 0.2894 0.96948 0.82101 0.0
C446 C 0.24482 0.89957 0.8347 0.0
C447 C 0.29366 0.07312 0.84925 0.0
C448 C 0.27264 0.1532 0.841 0.0
N449 N 0.27046 0.05922 0.8331 0.0
C450 C 0.28488 0.03741 0.84112 0.0
C451 C 0.26418 0.11619 0.83301 0.0
C452 C 0.28749 0.13141 0.84916 0.0
C453 C 0.20676 0.90389 0.79943 0.0
N454 N 0.21706 0.86856 0.8072 0.0
C455 C 0.18319 0.8997 0.7973 0.0
C456 C 0.17014 0.85913 0.8032 0.0
C457 C 0.18075 0.82339 0.81113 0.0
C458 C 0.20436 0.82878 0.81304 0.0
C459 C 0.24854 0.70637 0.79888 0.0
C460 C 0.26592 0.76329 0.81692 0.0
C461 C 0.24546 0.76589 0.79995 0.0
N462 N 0.25399 0.79346 0.80892 0.0
C463 C 0.26936 0.70375 0.81612 0.0
C464 C 0.26057 0.67519 0.80703 0.0
C465 C 0.29626 0.91989 0.81782 0.0
C466 C 0.25702 0.11647 0.79378 0.0
C467 C 0.28871 0.08488 0.80996 0.0
C468 C 0.29524 0.1231 0.80146 0.0
C469 C 0.27925 0.13892 0.79332 0.0
N470 N 0.26686 0.06322 0.81037 0.0
C471 C 0.2511 0.07843 0.80242 0.0
Co472 Co 0.49403 0.60409 0.56123 0.0
Co473 Co 0.50391 0.4684 0.57257 0.0
O474 O 0.48966 0.52134 0.56206 0.0
C475 C 0.51011 0.55597 0.54053 0.0
O476 O 0.52277 0.52264 0.54701 0.0
C477 C 0.45416 0.4626 0.57607 0.0
O478 O 0.4556 0.51906 0.57637 0.0
O479 O 0.49815 0.52099 0.58479 0.0
O480 O 0.49056 0.61027 0.57779 0.0
H481 H 0.55573 0.40834 0.60414 0.0
H482 H 0.45884 0.5484 0.54711 0.0
O483 O 0.4979 0.59594 0.54471 0.0
H484 H 0.41616 0.6864 0.5696 0.0
H485 H 0.48401 0.80063 0.54314 0.0
H486 H 0.51922 0.6909 0.57428 0.0
H487 H 0.45834 0.67754 0.57138 0.0
H488 H 0.47843 0.69501 0.54512 0.0
O489 O 0.47242 0.43245 0.57483 0.0
H490 H 0.53854 0.47706 0.59056 0.0
H491 H 0.49775 0.34273 0.57737 0.0
H492 H 0.52512 0.79648 0.57267 0.0
H493 H 0.41672 0.5561 0.54502 0.0
H494 H 0.50743 0.85204 0.55701 0.0
H495 H 0.39508 0.62532 0.55636 0.0
O496 O 0.52764 0.59594 0.56348 0.0
H497 H 0.48368 0.35963 0.53851 0.0
H498 H 0.54513 0.4041 0.56519 0.0
H499 H 0.55357 0.34066 0.54968 0.0
H500 H 0.5227 0.31803 0.53622 0.0
H501 H 0.47603 0.42307 0.5541 0.0
H502 H 0.51437 0.27253 0.59087 0.0
H503 H 0.54364 0.30524 0.60435 0.0
O504 O 0.53497 0.50658 0.57051 0.0
C505 C 0.49345 0.57433 0.58593 0.0
C506 C 0.54306 0.39351 0.59828 0.0
C507 C 0.51981 0.31731 0.59085 0.0
N508 N 0.51733 0.41373 0.58313 0.0
C509 C 0.53333 0.43217 0.59055 0.0
C510 C 0.51044 0.35722 0.58324 0.0
C511 C 0.53625 0.33569 0.5984 0.0
C512 C 0.44959 0.57915 0.55197 0.0
N513 N 0.46105 0.61283 0.55929 0.0
C514 C 0.42572 0.58311 0.55079 0.0
C515 C 0.41359 0.62189 0.55717 0.0
C516 C 0.42541 0.65616 0.5646 0.0
C517 C 0.44928 0.65096 0.56557 0.0
C518 C 0.49175 0.77692 0.55001 0.0
C519 C 0.51133 0.71489 0.56749 0.0
C520 C 0.48869 0.71715 0.55117 0.0
N521 N 0.49831 0.68704 0.55986 0.0
C522 C 0.5148 0.77461 0.5666 0.0
C523 C 0.50489 0.80574 0.5578 0.0
C524 C 0.54144 0.55731 0.56728 0.0
C525 C 0.49724 0.36891 0.54436 0.0
C526 C 0.53161 0.39435 0.55937 0.0
C527 C 0.53648 0.35838 0.55061 0.0
C528 C 0.51914 0.34565 0.54307 0.0
N529 N 0.51007 0.41683 0.5606 0.0
C530 C 0.49298 0.40463 0.55323 0.0
Co531 Co 0.75629 0.6335 0.56266 0.0
Co532 Co 0.74532 0.77321 0.57028 0.0
O533 O 0.75957 0.71645 0.56112 0.0
C534 C 0.73876 0.6679 0.54071 0.0
O535 O 0.72445 0.70091 0.54599 0.0
C536 C 0.79514 0.78525 0.57276 0.0
O537 O 0.79474 0.72888 0.57411 0.0
O538 O 0.75304 0.72807 0.5838 0.0
O539 O 0.76044 0.63598 0.57921 0.0
H540 H 0.69504 0.84371 0.60066 0.0
H541 H 0.79043 0.6841 0.54701 0.0
O542 O 0.75207 0.63318 0.54611 0.0
H543 H 0.83515 0.55809 0.57258 0.0
H544 H 0.76782 0.42987 0.55013 0.0
H545 H 0.73257 0.55226 0.57811 0.0
H546 H 0.79314 0.56785 0.57464 0.0
H547 H 0.77232 0.53607 0.54914 0.0
O548 O 0.77629 0.81319 0.57128 0.0
H549 H 0.71244 0.77028 0.58888 0.0
H550 H 0.74944 0.90105 0.57137 0.0
H551 H 0.72777 0.44628 0.57947 0.0
H552 H 0.8323 0.67475 0.54453 0.0
H553 H 0.74547 0.38434 0.56541 0.0
H554 H 0.85497 0.6115 0.55739 0.0
O555 O 0.72269 0.64029 0.56474 0.0
H556 H 0.76101 0.86167 0.53287 0.0
H557 H 0.70259 0.82963 0.56165 0.0
H558 H 0.69181 0.88127 0.54433 0.0
H559 H 0.72113 0.89737 0.52979 0.0
H560 H 0.77104 0.81029 0.5503 0.0
H561 H 0.73259 0.97595 0.58301 0.0
H562 H 0.7051 0.94739 0.59775 0.0
O563 O 0.71474 0.73153 0.56961 0.0
C564 C 0.75844 0.67593 0.58629 0.0
C565 C 0.70692 0.85672 0.59424 0.0
C566 C 0.72802 0.93094 0.58434 0.0
N567 N 0.73173 0.83154 0.57939 0.0
C568 C 0.71675 0.81537 0.58752 0.0
C569 C 0.73753 0.88839 0.57779 0.0
C570 C 0.71259 0.91488 0.5926 0.0
C571 C 0.8001 0.65582 0.55254 0.0
N572 N 0.7893 0.62594 0.56087 0.0
C573 C 0.82384 0.65093 0.55113 0.0
C574 C 0.83655 0.61553 0.55837 0.0
C575 C 0.82544 0.5856 0.5669 0.0
C576 C 0.80167 0.5914 0.56804 0.0
C577 C 0.76007 0.45638 0.55633 0.0
C578 C 0.74048 0.52553 0.57202 0.0
C579 C 0.76253 0.51649 0.5558 0.0
N580 N 0.75292 0.55016 0.56363 0.0
C581 C 0.73763 0.46558 0.57281 0.0
C582 C 0.74754 0.43086 0.5649 0.0
C583 C 0.70866 0.67938 0.56765 0.0
C584 C 0.74811 0.85515 0.53916 0.0
C585 C 0.71546 0.83682 0.55538 0.0
C586 C 0.70926 0.86603 0.54559 0.0
C587 C 0.72572 0.87507 0.53743 0.0
N588 N 0.73746 0.8174 0.55701 0.0
C589 C 0.75372 0.82631 0.54907 0.0
Co590 Co 0.4939 0.658 0.68998 0.0
Co591 Co 0.5037 0.79496 0.67921 0.0
O592 O 0.48983 0.74101 0.68961 0.0
C593 C 0.51097 0.7024 0.71094 0.0
O594 O 0.52345 0.73684 0.70467 0.0
C595 C 0.45379 0.80259 0.67636 0.0
O596 O 0.45495 0.74614 0.67587 0.0
O597 O 0.49691 0.74429 0.66678 0.0
O598 O 0.48957 0.65432 0.67342 0.0
H599 H 0.55387 0.85724 0.64752 0.0
H600 H 0.45969 0.71172 0.70469 0.0
O601 O 0.49861 0.66333 0.70651 0.0
H602 H 0.41546 0.57674 0.68194 0.0
H603 H 0.48421 0.45903 0.70703 0.0
H604 H 0.51811 0.57282 0.67631 0.0
H605 H 0.45741 0.587 0.67961 0.0
H606 H 0.47888 0.56494 0.70568 0.0
O607 O 0.4723 0.83219 0.6773 0.0
H608 H 0.53712 0.78743 0.66091 0.0
H609 H 0.49796 0.92139 0.67504 0.0
H610 H 0.52373 0.46702 0.67728 0.0
H611 H 0.41784 0.70234 0.70737 0.0
H612 H 0.50671 0.4094 0.69273 0.0
H613 H 0.39543 0.63451 0.69594 0.0
O614 O 0.52739 0.66584 0.68763 0.0
H615 H 0.48601 0.90003 0.71389 0.0
H616 H 0.54566 0.85707 0.68659 0.0
H617 H 0.55531 0.91833 0.70232 0.0
H618 H 0.52534 0.94023 0.71609 0.0
H619 H 0.47715 0.83871 0.69808 0.0
H620 H 0.51415 0.99268 0.66174 0.0
H621 H 0.54239 0.9607 0.64788 0.0
O622 O 0.5347 0.75569 0.6809 0.0
C623 C 0.49197 0.69125 0.66542 0.0
C624 C 0.54166 0.87175 0.65354 0.0
C625 C 0.51934 0.94775 0.66152 0.0
N626 N 0.51677 0.8505 0.6688 0.0
C627 C 0.53218 0.83246 0.66117 0.0
C628 C 0.5102 0.90722 0.66901 0.0
C629 C 0.53518 0.92978 0.65375 0.0
C630 C 0.45011 0.68164 0.69976 0.0
N631 N 0.46101 0.64952 0.69207 0.0
C632 C 0.4264 0.67668 0.70129 0.0
C633 C 0.41382 0.63868 0.69486 0.0
C634 C 0.42505 0.6063 0.687 0.0
C635 C 0.44879 0.61237 0.6857 0.0
C636 C 0.49167 0.48364 0.70024 0.0
C637 C 0.5105 0.54796 0.68301 0.0
C638 C 0.48874 0.54358 0.69945 0.0
N639 N 0.49799 0.57484 0.69087 0.0
C640 C 0.51382 0.48811 0.68354 0.0
C641 C 0.50429 0.45582 0.69222 0.0
C642 C 0.54114 0.70452 0.68392 0.0
C643 C 0.49917 0.89107 0.70791 0.0
C644 C 0.53254 0.86647 0.69255 0.0
C645 C 0.53809 0.90122 0.70143 0.0
C646 C 0.52126 0.91354 0.70915 0.0
N647 N 0.51082 0.84478 0.69138 0.0
C648 C 0.49424 0.85655 0.69892 0.0
Co649 Co 0.75496 0.62116 0.69188 0.0
Co650 Co 0.74481 0.48757 0.68082 0.0
O651 O 0.75828 0.53786 0.6916 0.0
C652 C 0.73629 0.57214 0.71242 0.0
O653 O 0.72314 0.54171 0.70594 0.0
C654 C 0.79476 0.47659 0.67924 0.0
O655 O 0.79442 0.53324 0.67922 0.0
O656 O 0.75358 0.54073 0.66865 0.0
O657 O 0.76044 0.6291 0.67546 0.0
H658 H 0.69694 0.43812 0.64775 0.0
H659 H 0.78775 0.5614 0.70727 0.0
O660 O 0.7493 0.61147 0.70825 0.0
H661 H 0.83458 0.69982 0.6855 0.0
H662 H 0.76532 0.81486 0.7092 0.0
H663 H 0.73232 0.71144 0.67777 0.0
H664 H 0.79272 0.69287 0.68232 0.0
H665 H 0.76984 0.70906 0.7079 0.0
O666 O 0.77584 0.44828 0.67964 0.0
H667 H 0.71337 0.5029 0.6616 0.0
H668 H 0.7492 0.36175 0.67681 0.0
H669 H 0.72752 0.81726 0.67868 0.0
H670 H 0.82948 0.56743 0.7108 0.0
H671 H 0.74409 0.86966 0.69449 0.0
H672 H 0.85321 0.63691 0.69985 0.0
O673 O 0.72158 0.61601 0.68881 0.0
H674 H 0.75818 0.37182 0.71587 0.0
H675 H 0.70147 0.42691 0.68708 0.0
H676 H 0.68975 0.36214 0.70251 0.0
H677 H 0.71825 0.33411 0.71703 0.0
H678 H 0.7691 0.43676 0.70034 0.0
H679 H 0.73331 0.29543 0.66307 0.0
H680 H 0.70691 0.33357 0.64844 0.0
O681 O 0.71416 0.52876 0.68171 0.0
C682 C 0.75911 0.5938 0.66749 0.0
C683 C 0.70835 0.42095 0.65411 0.0
C684 C 0.72879 0.34087 0.6627 0.0
N685 N 0.73201 0.43593 0.67006 0.0
C686 C 0.71763 0.45737 0.662 0.0
C687 C 0.73776 0.37859 0.67044 0.0
C688 C 0.71397 0.3623 0.65449 0.0
C689 C 0.79789 0.59226 0.70256 0.0
N690 N 0.78777 0.62713 0.69466 0.0
C691 C 0.82154 0.59529 0.70457 0.0
C692 C 0.83485 0.63422 0.69841 0.0
C693 C 0.82442 0.66948 0.69034 0.0
C694 C 0.80072 0.66528 0.68857 0.0
C695 C 0.75807 0.79254 0.70226 0.0
C696 C 0.73974 0.73403 0.68462 0.0
C697 C 0.76055 0.73267 0.70149 0.0
N698 N 0.75156 0.70431 0.69271 0.0
C699 C 0.73689 0.7939 0.68512 0.0
C700 C 0.74617 0.82326 0.694 0.0
C701 C 0.70786 0.57926 0.68467 0.0
C702 C 0.74565 0.38344 0.70956 0.0
C703 C 0.71394 0.41488 0.69337 0.0
C704 C 0.70723 0.37814 0.70208 0.0
C705 C 0.72323 0.36237 0.71021 0.0
N706 N 0.73599 0.43516 0.69277 0.0
C707 C 0.75176 0.42004 0.70073 0.0
Co708 Co 0.50699 0.38912 0.44045 0.0
Co709 Co 0.49673 0.52543 0.42949 0.0
O710 O 0.51112 0.47187 0.43987 0.0
C711 C 0.49082 0.43368 0.46153 0.0
O712 O 0.47738 0.46714 0.45545 0.0
C713 C 0.54649 0.53092 0.42606 0.0
O714 O 0.54482 0.47453 0.42568 0.0
O715 O 0.5022 0.47373 0.41709 0.0
O716 O 0.51028 0.38426 0.42388 0.0
H717 H 0.44404 0.588 0.39842 0.0
H718 H 0.54229 0.44391 0.45464 0.0
O719 O 0.50347 0.39585 0.45697 0.0
H720 H 0.58472 0.30586 0.43206 0.0
H721 H 0.5174 0.19126 0.45795 0.0
H722 H 0.48169 0.30325 0.42723 0.0
H723 H 0.54266 0.31658 0.43003 0.0
H724 H 0.52291 0.29699 0.45624 0.0
O725 O 0.52827 0.56146 0.42716 0.0
H726 H 0.46148 0.51829 0.41174 0.0
H727 H 0.50301 0.65123 0.42491 0.0
H728 H 0.47584 0.19759 0.42857 0.0
H729 H 0.58428 0.43411 0.45702 0.0
H730 H 0.49378 0.14089 0.44402 0.0
H731 H 0.60578 0.36472 0.44568 0.0
O732 O 0.47335 0.39722 0.43835 0.0
H733 H 0.51736 0.62989 0.46399 0.0
H734 H 0.45569 0.5893 0.43719 0.0
H735 H 0.44736 0.65031 0.45307 0.0
H736 H 0.47833 0.67082 0.46662 0.0
H737 H 0.52491 0.56903 0.44802 0.0
H738 H 0.48616 0.72241 0.41167 0.0
H739 H 0.45639 0.69089 0.39833 0.0
O740 O 0.46569 0.48704 0.43163 0.0
C741 C 0.50704 0.42055 0.41583 0.0
C742 C 0.45694 0.6023 0.40422 0.0
C743 C 0.48061 0.67772 0.41164 0.0
N744 N 0.48311 0.58084 0.41914 0.0
C745 C 0.46682 0.56307 0.4118 0.0
C746 C 0.49012 0.63725 0.4191 0.0
C747 C 0.4639 0.66001 0.40416 0.0
C748 C 0.55148 0.41315 0.44976 0.0
N749 N 0.54 0.3804 0.44229 0.0
C750 C 0.57527 0.40796 0.45111 0.0
C751 C 0.58733 0.36907 0.44473 0.0
C752 C 0.57553 0.33609 0.43708 0.0
C753 C 0.55173 0.34242 0.43595 0.0
C754 C 0.50954 0.21547 0.45117 0.0
C755 C 0.48969 0.27878 0.43393 0.0
C756 C 0.51258 0.27531 0.45017 0.0
N757 N 0.50282 0.30605 0.44159 0.0
C758 C 0.48625 0.21901 0.43466 0.0
C759 C 0.4963 0.18723 0.44334 0.0
C760 C 0.45938 0.436 0.43476 0.0
C761 C 0.50375 0.62145 0.45812 0.0
C762 C 0.46926 0.59827 0.44303 0.0
C763 C 0.46445 0.63281 0.452 0.0
C764 C 0.48184 0.64432 0.4596 0.0
N765 N 0.4908 0.57604 0.44164 0.0
C766 C 0.50795 0.58724 0.44903 0.0
Co767 Co 0.24443 0.35634 0.43983 0.0
Co768 Co 0.25582 0.21714 0.43204 0.0
O769 O 0.24117 0.27333 0.44119 0.0
C770 C 0.26141 0.32105 0.46181 0.0
O771 O 0.27566 0.28775 0.45656 0.0
C772 C 0.20606 0.20558 0.42898 0.0
O773 O 0.20666 0.26195 0.42765 0.0
O774 O 0.24892 0.26333 0.41855 0.0
O775 O 0.24081 0.35473 0.42327 0.0
H776 H 0.30755 0.14834 0.40207 0.0
H777 H 0.20994 0.30493 0.4552 0.0
O778 O 0.24823 0.35598 0.4564 0.0
H779 H 0.16575 0.43151 0.42951 0.0
H780 H 0.23227 0.55922 0.45264 0.0
H781 H 0.26846 0.43851 0.42466 0.0
H782 H 0.20783 0.42219 0.42771 0.0
H783 H 0.22791 0.45297 0.45342 0.0
O784 O 0.22481 0.17742 0.43063 0.0
H785 H 0.28965 0.22105 0.41383 0.0
H786 H 0.2516 0.08947 0.43057 0.0
H787 H 0.27313 0.54456 0.42351 0.0
H788 H 0.16798 0.31377 0.45742 0.0
H789 H 0.25495 0.60566 0.43757 0.0
H790 H 0.14558 0.37732 0.4445 0.0
O791 O 0.27812 0.34984 0.43795 0.0
H792 H 0.23825 0.12569 0.46901 0.0
H793 H 0.29808 0.15998 0.441 0.0
H794 H 0.308 0.10677 0.45826 0.0
H795 H 0.27797 0.08951 0.47242 0.0
H796 H 0.22911 0.1787 0.45164 0.0
H797 H 0.26895 0.01527 0.41893 0.0
H798 H 0.2972 0.04461 0.40459 0.0
O799 O 0.28639 0.25866 0.43314 0.0
C800 C 0.2436 0.31555 0.41609 0.0
C801 C 0.29533 0.13499 0.40832 0.0
C802 C 0.27364 0.06031 0.41777 0.0
N803 N 0.2698 0.15935 0.42294 0.0
C804 C 0.28521 0.17594 0.41503 0.0
C805 C 0.26385 0.10247 0.42432 0.0
C806 C 0.28949 0.0768 0.40973 0.0
C807 C 0.20038 0.3333 0.44963 0.0
N808 N 0.21137 0.3636 0.44142 0.0
C809 C 0.17659 0.33792 0.4509 0.0
C810 C 0.16403 0.3735 0.44364 0.0
C811 C 0.17533 0.40386 0.43522 0.0
C812 C 0.19915 0.39831 0.43422 0.0
C813 C 0.24023 0.53308 0.44645 0.0
C814 C 0.26036 0.46486 0.43076 0.0
C815 C 0.23785 0.47294 0.44686 0.0
N816 N 0.24774 0.43973 0.43903 0.0
C817 C 0.26313 0.52486 0.43009 0.0
C818 C 0.25295 0.55911 0.43799 0.0
C819 C 0.29233 0.31088 0.43514 0.0
C820 C 0.25146 0.13273 0.46288 0.0
C821 C 0.28491 0.15232 0.4471 0.0
C822 C 0.29062 0.12221 0.45686 0.0
C823 C 0.27376 0.11252 0.4648 0.0
N824 N 0.26301 0.17198 0.44529 0.0
C825 C 0.24636 0.16248 0.45301 0.0
Co826 Co 0.51104 0.34099 0.31153 0.0
Co827 Co 0.50212 0.20418 0.32257 0.0
O828 O 0.51573 0.25816 0.31208 0.0
C829 C 0.49433 0.29445 0.2907 0.0
O830 O 0.48224 0.25956 0.29705 0.0
C831 C 0.55212 0.19927 0.32562 0.0
O832 O 0.55053 0.25575 0.32576 0.0
O833 O 0.50831 0.25602 0.33486 0.0
O834 O 0.51528 0.3459 0.3281 0.0
H835 H 0.45206 0.1419 0.35429 0.0
H836 H 0.54569 0.28811 0.29695 0.0
O837 O 0.50639 0.33441 0.29503 0.0
H838 H 0.58883 0.42646 0.31943 0.0
H839 H 0.51925 0.53938 0.29405 0.0
H840 H 0.48613 0.42585 0.325 0.0
H841 H 0.54696 0.41432 0.32177 0.0
H842 H 0.52541 0.43382 0.29565 0.0
O843 O 0.53385 0.16866 0.32473 0.0
H844 H 0.46842 0.21149 0.34074 0.0
H845 H 0.50875 0.07831 0.32708 0.0
H846 H 0.47969 0.53132 0.32378 0.0
H847 H 0.58747 0.29935 0.29426 0.0
H848 H 0.49631 0.5888 0.30821 0.0
H849 H 0.60933 0.36886 0.30556 0.0
O850 O 0.47763 0.33172 0.31386 0.0
H851 H 0.52127 0.09793 0.2882 0.0
H852 H 0.46082 0.1393 0.3152 0.0
H853 H 0.45194 0.07668 0.29957 0.0
H854 H 0.4823 0.05562 0.28594 0.0
H855 H 0.52936 0.16053 0.30392 0.0
H856 H 0.49295 0.00726 0.34054 0.0
H857 H 0.46433 0.03895 0.35424 0.0
O858 O 0.47074 0.24176 0.32062 0.0
C859 C 0.51304 0.30921 0.33614 0.0
C860 C 0.46444 0.12751 0.34833 0.0
C861 C 0.48742 0.05195 0.34062 0.0
N862 N 0.48931 0.14876 0.33307 0.0
C863 C 0.47369 0.16666 0.34061 0.0
C864 C 0.49632 0.09234 0.33304 0.0
C865 C 0.47136 0.06977 0.34831 0.0
C866 C 0.55503 0.31892 0.30182 0.0
N867 N 0.54387 0.35093 0.30944 0.0
C868 C 0.5787 0.32493 0.30029 0.0
C869 C 0.59097 0.36388 0.30664 0.0
C870 C 0.57948 0.39616 0.31443 0.0
C871 C 0.55579 0.38903 0.31574 0.0
C872 C 0.51197 0.51483 0.30088 0.0
C873 C 0.49357 0.45066 0.31825 0.0
C874 C 0.51536 0.45508 0.30182 0.0
N875 N 0.50632 0.42391 0.31046 0.0
C876 C 0.48979 0.51032 0.31758 0.0
C877 C 0.4991 0.54254 0.30884 0.0
C878 C 0.46402 0.29259 0.31751 0.0
C879 C 0.50793 0.10654 0.29412 0.0
C880 C 0.47412 0.13024 0.30931 0.0
C881 C 0.469 0.09473 0.30048 0.0
C882 C 0.48605 0.08288 0.29284 0.0
N883 N 0.49564 0.15312 0.31051 0.0
C884 C 0.51244 0.14177 0.30305 0.0
Co885 Co 0.24843 0.37058 0.31084 0.0
Co886 Co 0.2603 0.50859 0.3191 0.0
O887 O 0.24523 0.45349 0.30986 0.0
C888 C 0.26431 0.40851 0.28894 0.0
O889 O 0.27931 0.43958 0.2943 0.0
C890 C 0.21079 0.51956 0.32268 0.0
O891 O 0.21173 0.46326 0.32405 0.0
O892 O 0.25415 0.46109 0.33249 0.0
O893 O 0.24575 0.37023 0.32744 0.0
H894 H 0.31363 0.57527 0.34896 0.0
H895 H 0.21303 0.4257 0.29618 0.0
O896 O 0.25116 0.37332 0.29423 0.0
H897 H 0.17014 0.29752 0.32179 0.0
H898 H 0.23498 0.16983 0.29715 0.0
H899 H 0.27317 0.28614 0.32544 0.0
H900 H 0.21248 0.30313 0.32283 0.0
H901 H 0.23083 0.27616 0.29692 0.0
O902 O 0.2293 0.548 0.3207 0.0
H903 H 0.29519 0.50342 0.33708 0.0
H904 H 0.25597 0.63595 0.321 0.0
H905 H 0.27766 0.17996 0.32604 0.0
H906 H 0.17075 0.42106 0.29479 0.0
H907 H 0.25848 0.12108 0.31182 0.0
H908 H 0.149 0.35683 0.3077 0.0
O909 O 0.2823 0.37643 0.31258 0.0
H910 H 0.24105 0.60252 0.28241 0.0
H911 H 0.30214 0.5663 0.31012 0.0
H912 H 0.3113 0.62048 0.29293 0.0
H913 H 0.28063 0.63865 0.27891 0.0
H914 H 0.23266 0.54863 0.29971 0.0
H915 H 0.27385 0.7093 0.33276 0.0
H916 H 0.30297 0.67905 0.34683 0.0
O917 O 0.29075 0.46702 0.31778 0.0
C918 C 0.24903 0.40854 0.33476 0.0
C919 C 0.30103 0.58902 0.34283 0.0
C920 C 0.27868 0.66423 0.33375 0.0
N921 N 0.27469 0.56564 0.32831 0.0
C922 C 0.2906 0.54856 0.33606 0.0
C923 C 0.26858 0.62255 0.32713 0.0
C924 C 0.29502 0.64723 0.34164 0.0
C925 C 0.20374 0.39693 0.30171 0.0
N926 N 0.21524 0.36419 0.30949 0.0
C927 C 0.17978 0.39478 0.30093 0.0
C928 C 0.16758 0.35881 0.30819 0.0
C929 C 0.17943 0.32553 0.3161 0.0
C930 C 0.2034 0.32887 0.31665 0.0
C931 C 0.24338 0.195 0.30341 0.0
C932 C 0.26464 0.26074 0.31928 0.0
C933 C 0.24113 0.25517 0.3033 0.0
N934 N 0.25158 0.28714 0.31122 0.0
C935 C 0.26731 0.20067 0.31963 0.0
C936 C 0.25656 0.16767 0.31164 0.0
C937 C 0.2966 0.41502 0.31557 0.0
C938 C 0.25453 0.5951 0.28847 0.0
C939 C 0.28869 0.57443 0.30409 0.0
C940 C 0.29397 0.60506 0.29437 0.0
C941 C 0.27675 0.61527 0.28651 0.0
N942 N 0.26686 0.55478 0.30595 0.0
C943 C 0.24986 0.56484 0.29831 0.0
Co944 Co 0.99254 0.11398 0.56258 0.0
Co945 Co 0.00292 0.97771 0.57356 0.0
O946 O 0.98909 0.03096 0.56295 0.0
C947 C 0.01036 0.07121 0.54166 0.0
O948 O 0.0242 0.03941 0.54786 0.0
C949 C 0.95302 0.96719 0.57555 0.0
O950 O 0.95369 0.02368 0.57607 0.0
O951 O 0.99483 0.02759 0.5859 0.0
O952 O 0.98824 0.11792 0.57912 0.0
H953 H 0.05189 0.91779 0.60616 0.0
H954 H 0.95857 0.05847 0.54775 0.0
O955 O 0.99706 0.10802 0.5461 0.0
H956 H 0.91367 0.19321 0.56998 0.0
H957 H 0.98147 0.31207 0.54527 0.0
H958 H 0.01627 0.2005 0.57628 0.0
H959 H 0.95563 0.1839 0.57267 0.0
H960 H 0.97684 0.20599 0.54671 0.0
O961 O 0.9718 0.93852 0.57487 0.0
H962 H 0.03512 0.98691 0.59251 0.0
H963 H 0.99842 0.85085 0.57746 0.0
H964 H 0.02119 0.3065 0.57523 0.0
H965 H 0.91675 0.0671 0.54467 0.0
H966 H 0.00371 0.363 0.55964 0.0
H967 H 0.89399 0.13479 0.55584 0.0
O968 O 0.02605 0.10756 0.56514 0.0
H969 H 0.9886 0.87571 0.5381 0.0
H970 H 0.04589 0.91834 0.56692 0.0
H971 H 0.05729 0.86031 0.55106 0.0
H972 H 0.02854 0.83882 0.5365 0.0
H973 H 0.97796 0.9336 0.55408 0.0
H974 H 0.01464 0.78021 0.59099 0.0
H975 H 0.04166 0.81361 0.60544 0.0
O976 O 0.03361 0.01891 0.57244 0.0
C977 C 0.98984 0.0807 0.58713 0.0
C978 C 0.04021 0.90267 0.59987 0.0
C979 C 0.01928 0.82546 0.59137 0.0
N980 N 0.01602 0.92274 0.58415 0.0
C981 C 0.03073 0.94157 0.59211 0.0
C982 C 0.01012 0.86562 0.58375 0.0
C983 C 0.03444 0.84423 0.59947 0.0
C984 C 0.94886 0.08856 0.55256 0.0
N985 N 0.95958 0.12115 0.5603 0.0
C986 C 0.92515 0.09308 0.5508 0.0
C987 C 0.91238 0.13099 0.55709 0.0
C988 C 0.92341 0.16372 0.56503 0.0
C989 C 0.94716 0.15816 0.56654 0.0
C990 C 0.98912 0.28795 0.55212 0.0
C991 C 0.00845 0.22487 0.56953 0.0
C992 C 0.98659 0.22792 0.55297 0.0
N993 N 0.99607 0.19728 0.56163 0.0
C994 C 0.01137 0.28484 0.56895 0.0
C995 C 1.00159 0.3165 0.56019 0.0
C996 C 0.03988 0.06987 0.56925 0.0
C997 C 1.00125 0.88458 0.54442 0.0
C998 C 0.03327 0.90888 0.56064 0.0
C999 C 0.03982 0.87604 0.55168 0.0
C1000 C 0.02367 0.86398 0.54351 0.0
N1001 N 0.01125 0.92893 0.56146 0.0
C1002 C 0.9953 0.91711 0.55351 0.0
Co1003 Co 0.25366 0.14954 0.56214 0.0
Co1004 Co 0.24407 0.28587 0.57196 0.0
O1005 O 0.25764 0.2326 0.56187 0.0
C1006 C 0.23598 0.19518 0.54102 0.0
O1007 O 0.22316 0.22807 0.54712 0.0
C1008 C 0.29398 0.2938 0.57478 0.0
O1009 O 0.2929 0.23723 0.57532 0.0
O1010 O 0.25156 0.23469 0.5847 0.0
O1011 O 0.25837 0.14476 0.57867 0.0
H1012 H 0.19494 0.34581 0.6036 0.0
H1013 H 0.28754 0.20496 0.54696 0.0
O1014 O 0.24866 0.15614 0.54564 0.0
H1015 H 0.33251 0.07002 0.57071 0.0
H1016 H 0.2634 0.95179 0.54648 0.0
H1017 H 0.22972 0.06326 0.57649 0.0
H1018 H 0.29045 0.07796 0.57283 0.0
H1019 H 0.26862 0.05767 0.54707 0.0
O1020 O 0.27548 0.32338 0.57339 0.0
H1021 H 0.21147 0.27685 0.59064 0.0
H1022 H 0.24951 0.41224 0.57505 0.0
H1023 H 0.2242 0.95746 0.57628 0.0
H1024 H 0.3295 0.19807 0.5445 0.0
H1025 H 0.24112 0.90102 0.56119 0.0
H1026 H 0.3523 0.13042 0.55647 0.0
O1027 O 0.22023 0.15696 0.56463 0.0
H1028 H 0.26036 0.39284 0.53632 0.0
H1029 H 0.20168 0.34767 0.56438 0.0
H1030 H 0.19135 0.40942 0.54822 0.0
H1031 H 0.22083 0.43241 0.53406 0.0
H1032 H 0.26989 0.33105 0.55257 0.0
H1033 H 0.23353 0.48269 0.5879 0.0
H1034 H 0.20596 0.44956 0.60227 0.0
O1035 O 0.21308 0.24625 0.57082 0.0
C1036 C 0.25667 0.18159 0.58636 0.0
C1037 C 0.20686 0.36081 0.59735 0.0
C1038 C 0.22855 0.43762 0.58854 0.0
N1039 N 0.23123 0.3407 0.58204 0.0
C1040 C 0.21621 0.322 0.58996 0.0
C1041 C 0.23756 0.39757 0.58131 0.0
C1042 C 0.21308 0.41901 0.5966 0.0
C1043 C 0.29728 0.17485 0.5521 0.0
N1044 N 0.28653 0.14154 0.55997 0.0
C1045 C 0.32106 0.17137 0.55071 0.0
C1046 C 0.33385 0.13347 0.55744 0.0
C1047 C 0.32275 0.09958 0.56543 0.0
C1048 C 0.29895 0.10427 0.5666 0.0
C1049 C 0.256 0.97589 0.55311 0.0
C1050 C 0.23728 0.0389 0.56995 0.0
C1051 C 0.25887 0.0358 0.55347 0.0
N1052 N 0.24968 0.0664 0.56186 0.0
C1053 C 0.23403 0.97905 0.56985 0.0
C1054 C 0.2435 0.94742 0.56137 0.0
C1055 C 0.20658 0.19526 0.56821 0.0
C1056 C 0.2474 0.3834 0.54246 0.0
C1057 C 0.21458 0.35755 0.55825 0.0
C1058 C 0.20865 0.39258 0.54913 0.0
C1059 C 0.22521 0.40551 0.54119 0.0
N1060 N 0.2364 0.3362 0.55945 0.0
C1061 C 0.25272 0.3486 0.5517 0.0
Co1062 Co 0.99403 0.15136 0.69187 0.0
Co1063 Co 0.00252 0.28708 0.68019 0.0
O1064 O 0.9894 0.23427 0.69106 0.0
C1065 C 0.0112 0.19928 0.71254 0.0
O1066 O 0.02327 0.2338 0.70609 0.0
C1067 C 0.95247 0.29389 0.67786 0.0
O1068 O 0.95357 0.23729 0.67788 0.0
O1069 O 0.99496 0.23463 0.66814 0.0
O1070 O 0.98935 0.1449 0.67536 0.0
H1071 H 0.05059 0.34515 0.64751 0.0
H1072 H 0.95977 0.20605 0.7064 0.0
O1073 O 0.99902 0.15923 0.70831 0.0
H1074 H 0.91591 0.06625 0.68457 0.0
H1075 H 0.98589 0.95448 0.71 0.0
H1076 H 0.01871 0.06521 0.67862 0.0
H1077 H 0.95779 0.07722 0.68208 0.0
H1078 H 0.97978 0.05996 0.70808 0.0
O1079 O 0.971 0.32364 0.67845 0.0
H1080 H 0.03475 0.27713 0.66149 0.0
H1081 H 0.99638 0.41295 0.67547 0.0
H1082 H 0.02511 0.95978 0.68015 0.0
H1083 H 0.91798 0.19608 0.70922 0.0
H1084 H 0.00863 0.90371 0.69594 0.0
H1085 H 0.89575 0.12588 0.69824 0.0
O1086 O 0.02739 0.16026 0.68935 0.0
H1087 H 0.98655 0.3965 0.71456 0.0
H1088 H 0.04473 0.35096 0.6867 0.0
H1089 H 0.05513 0.4143 0.70202 0.0
H1090 H 0.02591 0.43745 0.71608 0.0
H1091 H 0.97694 0.33311 0.69915 0.0
H1092 H 0.01166 0.48244 0.66158 0.0
H1093 H 0.03904 0.44863 0.6475 0.0
O1094 O 0.03371 0.24867 0.68172 0.0
C1095 C 0.99041 0.1811 0.66718 0.0
C1096 C 0.03875 0.36045 0.65363 0.0
C1097 C 0.01687 0.4375 0.66152 0.0
N1098 N 0.01487 0.34126 0.66934 0.0
C1099 C 0.0298 0.32219 0.66158 0.0
C1100 C 0.00825 0.39798 0.66934 0.0
C1101 C 0.03224 0.4185 0.65362 0.0
C1102 C 0.95027 0.17492 0.70168 0.0
N1103 N 0.96124 0.14189 0.69415 0.0
C1104 C 0.92659 0.16965 0.70328 0.0
C1105 C 0.91412 0.13031 0.6971 0.0
C1106 C 0.92542 0.09688 0.68943 0.0
C1107 C 0.94912 0.10334 0.68804 0.0
C1108 C 0.99311 0.97841 0.70307 0.0
C1109 C 0.01133 0.041 0.68545 0.0
C1110 C 0.98973 0.03811 0.70195 0.0
N1111 N 0.99868 0.06849 0.69319 0.0
C1112 C 0.01509 0.98137 0.6863 0.0
C1113 C 0.00586 0.94995 0.69517 0.0
C1114 C 0.04068 0.1987 0.68518 0.0
C1115 C 0.99939 0.38696 0.70846 0.0
C1116 C 0.03193 0.36092 0.69279 0.0
C1117 C 0.0379 0.39684 0.70143 0.0
C1118 C 0.02149 0.40985 0.70931 0.0
N1119 N 0.01021 0.33876 0.692 0.0
C1120 C 0.99403 0.35129 0.69969 0.0
Co1121 Co 0.25584 0.12866 0.69142 0.0
Co1122 Co 0.2456 0.99085 0.68245 0.0
O1123 O 0.25956 0.0456 0.69222 0.0
C1124 C 0.23871 0.08831 0.71297 0.0
O1125 O 0.22431 0.05682 0.70733 0.0
C1126 C 0.29544 0.98041 0.68021 0.0
O1127 O 0.29486 0.03699 0.67941 0.0
O1128 O 0.25327 0.03937 0.66941 0.0
O1129 O 0.25985 0.13052 0.67488 0.0
H1130 H 0.19587 0.92701 0.651 0.0
H1131 H 0.2904 0.07499 0.70673 0.0
O1132 O 0.25181 0.12465 0.70795 0.0
H1133 H 0.33423 0.20862 0.68254 0.0
H1134 H 0.2665 0.32893 0.70588 0.0
H1135 H 0.23155 0.21297 0.67662 0.0
H1136 H 0.29224 0.19838 0.68023 0.0
H1137 H 0.27153 0.22288 0.70591 0.0
O1138 O 0.27669 0.95184 0.68133 0.0
H1139 H 0.21289 0.9977 0.66358 0.0
H1140 H 0.25018 0.86363 0.68027 0.0
H1141 H 0.22622 0.31889 0.67622 0.0
H1142 H 0.33226 0.08468 0.70945 0.0
H1143 H 0.24377 0.3776 0.69093 0.0
H1144 H 0.35449 0.15175 0.69728 0.0
O1145 O 0.22224 0.12145 0.6891 0.0
H1146 H 0.26136 0.89405 0.71924 0.0
H1147 H 0.20304 0.93155 0.69023 0.0
H1148 H 0.19233 0.87571 0.70702 0.0
H1149 H 0.22159 0.85687 0.72168 0.0
H1150 H 0.27131 0.94961 0.70232 0.0
H1151 H 0.23371 0.79144 0.66782 0.0
H1152 H 0.20627 0.82305 0.65308 0.0
O1153 O 0.2149 0.03159 0.68322 0.0
C1154 C 0.25825 0.09225 0.66744 0.0
C1155 C 0.20773 0.91268 0.65742 0.0
C1156 C 0.22899 0.83659 0.66685 0.0
N1157 N 0.23231 0.93462 0.67271 0.0
C1158 C 0.21735 0.95247 0.66459 0.0
C1159 C 0.23829 0.87762 0.67386 0.0
C1160 C 0.2136 0.85436 0.65858 0.0
C1161 C 0.29987 0.10494 0.70151 0.0
N1162 N 0.28882 0.13669 0.69343 0.0
C1163 C 0.3236 0.11001 0.70305 0.0
C1164 C 0.33607 0.14755 0.6962 0.0
C1165 C 0.32472 0.17942 0.68792 0.0
C1166 C 0.30095 0.17336 0.68664 0.0
C1167 C 0.25882 0.30384 0.69941 0.0
C1168 C 0.2394 0.2383 0.68299 0.0
C1169 C 0.26158 0.24381 0.6994 0.0
N1170 N 0.25204 0.21195 0.69121 0.0
C1171 C 0.23624 0.29822 0.68275 0.0
C1172 C 0.24607 0.33112 0.69101 0.0
C1173 C 0.20849 0.08282 0.68565 0.0
C1174 C 0.24848 0.90175 0.71288 0.0
C1175 C 0.21589 0.92316 0.69655 0.0
C1176 C 0.20973 0.89157 0.70604 0.0
C1177 C 0.22616 0.88099 0.71426 0.0
N1178 N 0.23782 0.94338 0.69527 0.0
C1179 C 0.25405 0.93296 0.70327 0.0
Co1180 Co 0.00768 0.88658 0.44291 0.0
Co1181 Co 0.9973 0.02075 0.43095 0.0
O1182 O 0.01165 0.96944 0.44175 0.0
C1183 C 0.99103 0.93695 0.46333 0.0
O1184 O 0.97824 0.96905 0.45669 0.0
C1185 C 0.04718 0.02737 0.42783 0.0
O1186 O 0.046 0.97079 0.42792 0.0
O1187 O 0.00338 0.96675 0.41903 0.0
O1188 O 0.01161 0.87849 0.42638 0.0
H1189 H 0.94508 0.07596 0.39922 0.0
H1190 H 0.04222 0.94451 0.45707 0.0
O1191 O 0.00338 0.89666 0.45936 0.0
H1192 H 0.086 0.80357 0.43574 0.0
H1193 H 0.01798 0.69254 0.46196 0.0
H1194 H 0.98324 0.79742 0.43012 0.0
H1195 H 0.04398 0.813 0.43329 0.0
H1196 H 0.02321 0.79806 0.45951 0.0
O1197 O 0.0287 0.05727 0.42855 0.0
H1198 H 0.96243 0.00933 0.41311 0.0
H1199 H 0.00329 0.14579 0.42546 0.0
H1200 H 0.97769 0.69189 0.43219 0.0
H1201 H 0.08414 0.93605 0.45987 0.0
H1202 H 0.99515 0.63876 0.44821 0.0
H1203 H 0.10633 0.86523 0.44915 0.0
O1204 O 0.97409 0.89342 0.44044 0.0
H1205 H 0.01677 0.13468 0.46447 0.0
H1206 H 0.95576 0.08509 0.43792 0.0
H1207 H 0.94694 0.15062 0.45306 0.0
H1208 H 0.97759 0.17585 0.46646 0.0
H1209 H 0.0248 0.06914 0.44925 0.0
H1210 H 0.98653 0.2139 0.41162 0.0
H1211 H 0.95714 0.17907 0.3984 0.0
O1212 O 0.96635 0.98191 0.43311 0.0
C1213 C 0.00841 0.91347 0.4181 0.0
C1214 C 0.95782 0.0917 0.40495 0.0
C1215 C 0.98111 0.16909 0.4119 0.0
N1216 N 0.98374 0.07378 0.42012 0.0
C1217 C 0.96765 0.05421 0.41286 0.0
C1218 C 0.99058 0.13033 0.4197 0.0
C1219 C 0.96461 0.14953 0.40449 0.0
C1220 C 0.0517 0.91314 0.45246 0.0
N1221 N 0.04063 0.87888 0.4451 0.0
C1222 C 0.07546 0.9087 0.45405 0.0
C1223 C 0.08791 0.86901 0.44802 0.0
C1224 C 0.07651 0.83445 0.44049 0.0
C1225 C 0.05273 0.84006 0.43912 0.0
C1226 C 0.01035 0.71518 0.45493 0.0
C1227 C 0.99103 0.7745 0.43706 0.0
C1228 C 0.01322 0.77489 0.45352 0.0
N1229 N 0.00373 0.80365 0.44463 0.0
C1230 C 0.98776 0.7148 0.43821 0.0
C1231 C 0.99753 0.68503 0.44721 0.0
C1232 C 0.96013 0.93115 0.43646 0.0
C1233 C 0.00331 0.12427 0.45865 0.0
C1234 C 0.96918 0.09596 0.44371 0.0
C1235 C 0.9641 0.13311 0.45226 0.0
C1236 C 0.98131 0.14729 0.45977 0.0
N1237 N 0.99082 0.07377 0.44265 0.0
C1238 C 0.00777 0.08735 0.44999 0.0
Co1239 Co 0.74665 0.84343 0.44068 0.0
Co1240 Co 0.75705 0.70712 0.43103 0.0
O1241 O 0.74318 0.76021 0.44109 0.0
C1242 C 0.76494 0.79878 0.46179 0.0
O1243 O 0.77786 0.76623 0.45568 0.0
C1244 C 0.70706 0.69841 0.42851 0.0
O1245 O 0.70794 0.755 0.42805 0.0
O1246 O 0.74967 0.75809 0.41827 0.0
O1247 O 0.74151 0.84741 0.42415 0.0
H1248 H 0.80675 0.64813 0.39953 0.0
H1249 H 0.71353 0.78825 0.4563 0.0
O1250 O 0.7521 0.83752 0.45718 0.0
H1251 H 0.66737 0.92239 0.43292 0.0
H1252 H 0.73656 0.04141 0.45621 0.0
H1253 H 0.76943 0.93012 0.42597 0.0
H1254 H 0.70919 0.91316 0.4301 0.0
H1255 H 0.73189 0.93534 0.45581 0.0
O1256 O 0.72572 0.66906 0.42946 0.0
H1257 H 0.78992 0.71672 0.41247 0.0
H1258 H 0.75198 0.58068 0.4279 0.0
H1259 H 0.77436 0.03611 0.42599 0.0
H1260 H 0.67186 0.79683 0.45952 0.0
H1261 H 0.75786 0.09247 0.4412 0.0
H1262 H 0.64847 0.86419 0.44777 0.0
O1263 O 0.78004 0.83713 0.43801 0.0
H1264 H 0.74054 0.60017 0.46666 0.0
H1265 H 0.79946 0.64584 0.43873 0.0
H1266 H 0.80971 0.58431 0.45494 0.0
H1267 H 0.78011 0.56108 0.46903 0.0
H1268 H 0.73108 0.66173 0.45036 0.0
H1269 H 0.76826 0.51058 0.41507 0.0
H1270 H 0.79593 0.54422 0.40079 0.0
O1271 O 0.78797 0.74732 0.4323 0.0
C1272 C 0.74395 0.81066 0.41648 0.0
C1273 C 0.79479 0.6329 0.40575 0.0
C1274 C 0.77316 0.55571 0.41446 0.0
N1275 N 0.7702 0.65252 0.421 0.0
C1276 C 0.78528 0.67149 0.41312 0.0
C1277 C 0.76397 0.59556 0.42169 0.0
C1278 C 0.78869 0.57462 0.40645 0.0
C1279 C 0.70354 0.81818 0.45123 0.0
N1280 N 0.71382 0.85061 0.44309 0.0
C1281 C 0.67992 0.82268 0.45307 0.0
C1282 C 0.6668 0.86041 0.44646 0.0
C1283 C 0.67739 0.89303 0.43812 0.0
C1284 C 0.70106 0.88751 0.43654 0.0
C1285 C 0.74379 0.01735 0.44953 0.0
C1286 C 0.76204 0.95442 0.43256 0.0
C1287 C 0.74123 0.95731 0.44927 0.0
N1288 N 0.7502 0.92674 0.44082 0.0
C1289 C 0.76496 0.01439 0.43256 0.0
C1290 C 0.75573 0.04597 0.4411 0.0
C1291 C 0.79405 0.79904 0.43466 0.0
C1292 C 0.75355 0.60971 0.46054 0.0
C1293 C 0.7865 0.63583 0.44483 0.0
C1294 C 0.79239 0.60093 0.45398 0.0
C1295 C 0.77577 0.58786 0.46187 0.0
N1296 N 0.76465 0.6569 0.44356 0.0
C1297 C 0.74827 0.64437 0.45128 0.0
Co1298 Co 0.01483 0.85121 0.31378 0.0
Co1299 Co 0.00287 0.71278 0.323 0.0
O1300 O 0.01767 0.76832 0.31331 0.0
C1301 C 0.99786 0.81588 0.29211 0.0
O1302 O 0.98369 0.78283 0.29778 0.0
C1303 C 0.05256 0.69955 0.32616 0.0
O1304 O 0.05201 0.75548 0.32759 0.0
O1305 O 0.01023 0.75849 0.33609 0.0
O1306 O 0.01808 0.84991 0.33042 0.0
H1307 H 0.95147 0.64492 0.35382 0.0
H1308 H 0.04933 0.79754 0.29921 0.0
O1309 O 0.0113 0.85046 0.29714 0.0
H1310 H 0.09388 0.92038 0.3242 0.0
H1311 H 0.0286 0.05311 0.2989 0.0
H1312 H 0.99092 0.93476 0.32792 0.0
H1313 H 0.05156 0.91587 0.32539 0.0
H1314 H 0.03232 0.94667 0.29928 0.0
O1315 O 0.03375 0.67215 0.32446 0.0
H1316 H 0.96941 0.71735 0.34131 0.0
H1317 H 0.00657 0.585 0.32558 0.0
H1318 H 0.98689 0.04102 0.32791 0.0
H1319 H 0.09158 0.80104 0.29769 0.0
H1320 H 0.00582 0.10092 0.31332 0.0
H1321 H 0.11416 0.86258 0.31029 0.0
O1322 O 0.98106 0.84595 0.31558 0.0
H1323 H 0.01908 0.62108 0.28676 0.0
H1324 H 0.9601 0.6575 0.31476 0.0
H1325 H 0.94948 0.60487 0.29804 0.0
H1326 H 0.97908 0.58653 0.28388 0.0
H1327 H 0.02892 0.67359 0.30358 0.0
H1328 H 0.98917 0.51106 0.33796 0.0
H1329 H 0.96134 0.54093 0.35218 0.0
O1330 O 0.97249 0.75557 0.32167 0.0
C1331 C 0.01544 0.81084 0.33802 0.0
C1332 C 0.9635 0.63134 0.34763 0.0
C1333 C 0.98469 0.55621 0.33874 0.0
N1334 N 0.98882 0.65524 0.33267 0.0
C1335 C 0.97364 0.67212 0.3405 0.0
C1336 C 0.99451 0.59822 0.33176 0.0
C1337 C 0.96907 0.57301 0.34671 0.0
C1338 C 0.05899 0.82506 0.30462 0.0
N1339 N 0.04797 0.85688 0.31231 0.0
C1340 C 0.08293 0.82661 0.30376 0.0
C1341 C 0.09559 0.86108 0.31084 0.0
C1342 C 0.08423 0.8935 0.31865 0.0
C1343 C 0.06027 0.89079 0.31929 0.0
C1344 C 0.02032 0.02749 0.30531 0.0
C1345 C 0.99935 0.9606 0.3216 0.0
C1346 C 0.02233 0.96725 0.30556 0.0
N1347 N 0.01202 0.93471 0.31367 0.0
C1348 C 0.99694 0.02071 0.32161 0.0
C1349 C 0.00754 0.05429 0.31341 0.0
C1350 C 0.96674 0.8077 0.31894 0.0
C1351 C 0.00605 0.62861 0.29289 0.0
C1352 C 0.97308 0.64941 0.30865 0.0
C1353 C 0.96698 0.61962 0.29921 0.0
C1354 C 0.9836 0.60932 0.29127 0.0
N1355 N 0.99513 0.6682 0.31018 0.0
C1356 C 0.01155 0.65808 0.30245 0.0
Co1357 Co 0.75251 0.8912 0.31158 0.0
Co1358 Co 0.76276 0.02616 0.32194 0.0
O1359 O 0.74842 0.97412 0.31175 0.0
C1360 C 0.76893 0.94029 0.29058 0.0
O1361 O 0.78202 0.97234 0.29679 0.0
C1362 C 0.71292 0.0319 0.32516 0.0
O1363 O 0.7143 0.97535 0.3255 0.0
O1364 O 0.75702 0.97264 0.33449 0.0
O1365 O 0.74854 0.88424 0.32814 0.0
H1366 H 0.81521 0.08347 0.35289 0.0
H1367 H 0.71785 0.94797 0.29674 0.0
O1368 O 0.7567 0.9002 0.29505 0.0
H1369 H 0.67435 0.80767 0.31968 0.0
H1370 H 0.74257 0.69578 0.2949 0.0
H1371 H 0.77709 0.80321 0.32545 0.0
H1372 H 0.71633 0.81779 0.32205 0.0
H1373 H 0.73716 0.80138 0.29605 0.0
O1374 O 0.73126 0.06222 0.32409 0.0
H1375 H 0.79783 0.01598 0.3398 0.0
H1376 H 0.75656 0.15136 0.32601 0.0
H1377 H 0.78281 0.69762 0.32468 0.0
H1378 H 0.67597 0.93874 0.29401 0.0
H1379 H 0.76548 0.64321 0.30931 0.0
H1380 H 0.65392 0.86824 0.30553 0.0
O1381 O 0.7861 0.89854 0.31396 0.0
H1382 H 0.74235 0.13793 0.28719 0.0
H1383 H 0.80396 0.09087 0.31407 0.0
H1384 H 0.81233 0.15564 0.29813 0.0
H1385 H 0.78136 0.17958 0.28456 0.0
H1386 H 0.73478 0.07317 0.30321 0.0
H1387 H 0.77335 0.22033 0.33901 0.0
H1388 H 0.80296 0.18648 0.35255 0.0
O1389 O 0.7938 0.98781 0.32007 0.0
C1390 C 0.75184 0.91951 0.33601 0.0
C1391 C 0.80237 0.09879 0.34701 0.0
C1392 C 0.77885 0.17558 0.33923 0.0
N1393 N 0.77633 0.07986 0.33211 0.0
C1394 C 0.79253 0.06081 0.33955 0.0
C1395 C 0.76937 0.13634 0.33191 0.0
C1396 C 0.79547 0.15656 0.34682 0.0
C1397 C 0.70844 0.91673 0.30171 0.0
N1398 N 0.71956 0.88304 0.30947 0.0
C1399 C 0.6847 0.91186 0.30015 0.0
C1400 C 0.67233 0.87236 0.30663 0.0
C1401 C 0.68378 0.8384 0.31458 0.0
C1402 C 0.70754 0.84441 0.3159 0.0
C1403 C 0.75016 0.71898 0.30165 0.0
C1404 C 0.76935 0.77973 0.31879 0.0
C1405 C 0.74719 0.77875 0.30233 0.0
N1406 N 0.75661 0.80822 0.31087 0.0
C1407 C 0.77271 0.72 0.31837 0.0
C1408 C 0.76301 0.68951 0.30974 0.0
C1409 C 0.80007 0.93681 0.31737 0.0
C1410 C 0.75594 0.12809 0.29308 0.0
C1411 C 0.79041 0.1012 0.3082 0.0
C1412 C 0.79523 0.13792 0.2992 0.0
C1413 C 0.77785 0.15139 0.2916 0.0
N1414 N 0.76886 0.07873 0.30961 0.0
C1415 C 0.75174 0.09162 0.30219 0.0
Co1416 Co 0.99327 0.61337 0.06329 0.0
Co1417 Co 0.00386 0.47661 0.07398 0.0
O1418 O 0.98986 0.53034 0.06351 0.0
C1419 C 0.01097 0.5716 0.04228 0.0
O1420 O 0.02468 0.53913 0.04842 0.0
C1421 C 0.954 0.46652 0.07623 0.0
O1422 O 0.95482 0.52297 0.07679 0.0
O1423 O 0.99613 0.52606 0.08644 0.0
O1424 O 0.98904 0.61647 0.07984 0.0
H1425 H 0.05349 0.4151 0.10624 0.0
H1426 H 0.95926 0.55836 0.04842 0.0
O1427 O 0.99774 0.60831 0.04679 0.0
H1428 H 0.91439 0.69171 0.07096 0.0
H1429 H 0.98211 0.81224 0.04634 0.0
H1430 H 0.01704 0.69923 0.07713 0.0
H1431 H 0.9564 0.6828 0.07353 0.0
H1432 H 0.97747 0.70612 0.0476 0.0
O1433 O 0.97271 0.43765 0.0754 0.0
H1434 H 0.03653 0.48484 0.09277 0.0
H1435 H 0.99924 0.34968 0.07774 0.0
H1436 H 0.02197 0.80525 0.07625 0.0
H1437 H 0.91737 0.56647 0.0455 0.0
H1438 H 0.00442 0.86247 0.06076 0.0
H1439 H 0.89463 0.63347 0.05682 0.0
O1440 O 0.0268 0.60687 0.06579 0.0
H1441 H 0.98853 0.37589 0.03848 0.0
H1442 H 0.04658 0.41713 0.06703 0.0
H1443 H 0.05751 0.35952 0.05105 0.0
H1444 H 0.02837 0.33873 0.03661 0.0
H1445 H 0.97837 0.43337 0.05458 0.0
H1446 H 0.01565 0.27844 0.09111 0.0
H1447 H 0.04305 0.31108 0.10546 0.0
O1448 O 0.03457 0.51761 0.07274 0.0
C1449 C 0.99095 0.57897 0.08778 0.0
C1450 C 0.04164 0.40032 0.1 0.0
C1451 C 0.02037 0.32362 0.09152 0.0
N1452 N 0.01712 0.42115 0.08443 0.0
C1453 C 0.03206 0.43957 0.09233 0.0
C1454 C 0.01112 0.36412 0.08399 0.0
C1455 C 0.03576 0.34197 0.09956 0.0
C1456 C 0.94954 0.58812 0.0533 0.0
N1457 N 0.9603 0.62055 0.06106 0.0
C1458 C 0.9258 0.59235 0.05163 0.0
C1459 C 0.91305 0.62988 0.058 0.0
C1460 C 0.92412 0.66252 0.06595 0.0
C1461 C 0.9479 0.65721 0.06738 0.0
C1462 C 0.98978 0.7878 0.05314 0.0
C1463 C 0.0092 0.72391 0.07042 0.0
C1464 C 0.98725 0.72774 0.05388 0.0
N1465 N 0.99678 0.69671 0.06249 0.0
C1466 C 0.01212 0.78389 0.06994 0.0
C1467 C 0.0023 0.81596 0.06124 0.0
C1468 C 0.04074 0.56886 0.06969 0.0
C1469 C 1.00135 0.38446 0.04473 0.0
C1470 C 0.0338 0.40799 0.06081 0.0
C1471 C 0.04008 0.37538 0.05178 0.0
C1472 C 0.02372 0.36371 0.04368 0.0
N1473 N 0.01183 0.42819 0.06177 0.0
C1474 C 0.99567 0.41676 0.05389 0.0
Co1475 Co 0.25476 0.65007 0.06227 0.0
Co1476 Co 0.24431 0.78698 0.0716 0.0
O1477 O 0.25845 0.73321 0.06178 0.0
C1478 C 0.2378 0.69368 0.04085 0.0
O1479 O 0.22461 0.72681 0.04672 0.0
C1480 C 0.29406 0.79644 0.07477 0.0
O1481 O 0.29324 0.73989 0.07554 0.0
O1482 O 0.25158 0.73702 0.08455 0.0
O1483 O 0.25893 0.64676 0.07885 0.0
H1484 H 0.19397 0.84816 0.10272 0.0
H1485 H 0.289 0.70511 0.04723 0.0
O1486 O 0.25037 0.65519 0.0457 0.0
H1487 H 0.33357 0.57277 0.07168 0.0
H1488 H 0.26575 0.45121 0.04728 0.0
H1489 H 0.23065 0.56442 0.07668 0.0
H1490 H 0.29141 0.58007 0.07345 0.0
H1491 H 0.27059 0.55726 0.0476 0.0
O1492 O 0.27549 0.82537 0.07315 0.0
H1493 H 0.21116 0.77861 0.09006 0.0
H1494 H 0.24914 0.91376 0.07437 0.0
H1495 H 0.22551 0.45846 0.07674 0.0
H1496 H 0.33107 0.69885 0.04512 0.0
H1497 H 0.24314 0.40114 0.06196 0.0
H1498 H 0.35366 0.6325 0.05744 0.0
O1499 O 0.22119 0.65692 0.06445 0.0
H1500 H 0.2614 0.89197 0.03584 0.0
H1501 H 0.20192 0.84713 0.06354 0.0
H1502 H 0.19192 0.90767 0.04717 0.0
H1503 H 0.22181 0.93052 0.0332 0.0
H1504 H 0.2706 0.83132 0.05229 0.0
H1505 H 0.23251 0.98481 0.08691 0.0
H1506 H 0.20464 0.95209 0.10118 0.0
O1507 O 0.21357 0.74652 0.07036 0.0
C1508 C 0.25687 0.6842 0.08642 0.0
C1509 C 0.20602 0.86298 0.0965 0.0
C1510 C 0.22768 0.93967 0.08764 0.0
N1511 N 0.23092 0.8423 0.08142 0.0
C1512 C 0.21574 0.82384 0.08929 0.0
C1513 C 0.23706 0.89928 0.08058 0.0
C1514 C 0.21204 0.92128 0.09564 0.0
C1515 C 0.29866 0.67557 0.05253 0.0
N1516 N 0.28774 0.64263 0.0604 0.0
C1517 C 0.3225 0.67245 0.05133 0.0
C1518 C 0.33517 0.63527 0.05826 0.0
C1519 C 0.3239 0.60176 0.06625 0.0
C1520 C 0.30004 0.60609 0.06722 0.0
C1521 C 0.25803 0.47569 0.05378 0.0
C1522 C 0.23852 0.53968 0.07027 0.0
C1523 C 0.26068 0.53571 0.05399 0.0
N1524 N 0.2511 0.56679 0.06221 0.0
C1525 C 0.23548 0.47974 0.07033 0.0
C1526 C 0.24535 0.44762 0.06202 0.0
C1527 C 0.20731 0.69526 0.06782 0.0
C1528 C 0.24826 0.88259 0.04191 0.0
C1529 C 0.215 0.85691 0.05749 0.0
C1530 C 0.20925 0.89127 0.04825 0.0
C1531 C 0.22604 0.90413 0.04042 0.0
N1532 N 0.23686 0.83614 0.05891 0.0
C1533 C 0.25339 0.84844 0.05125 0.0
Co1534 Co 0.99497 0.65063 0.19246 0.0
Co1535 Co 0.00326 0.78515 0.18025 0.0
O1536 O 0.99067 0.73357 0.19146 0.0
C1537 C 0.01367 0.69991 0.21271 0.0
O1538 O 0.02566 0.73316 0.20599 0.0
C1539 C 0.95318 0.79265 0.17865 0.0
O1540 O 0.95417 0.73603 0.17884 0.0
O1541 O 0.99473 0.73191 0.16848 0.0
O1542 O 0.9893 0.64282 0.17605 0.0
H1543 H 0.04937 0.83955 0.1467 0.0
H1544 H 0.96187 0.70727 0.20733 0.0
O1545 O 1.00101 0.65992 0.20879 0.0
H1546 H 0.91614 0.5666 0.18658 0.0
H1547 H 0.98715 0.45554 0.21133 0.0
H1548 H 0.01848 0.56263 0.17916 0.0
H1549 H 0.95785 0.57667 0.18341 0.0
H1550 H 0.98137 0.56103 0.20916 0.0
O1551 O 0.97178 0.82227 0.17887 0.0
H1552 H 0.03418 0.77296 0.16109 0.0
H1553 H 0.99732 0.91082 0.17526 0.0
H1554 H 0.02451 0.45714 0.18095 0.0
H1555 H 0.92029 0.69815 0.21085 0.0
H1556 H 0.00878 0.4029 0.19713 0.0
H1557 H 0.89712 0.62751 0.20041 0.0
O1558 O 0.02816 0.65845 0.18942 0.0
H1559 H 0.99007 0.89741 0.21455 0.0
H1560 H 0.04613 0.84844 0.18594 0.0
H1561 H 0.05783 0.9125 0.20094 0.0
H1562 H 0.02968 0.93734 0.21538 0.0
H1563 H 0.97914 0.83332 0.19945 0.0
H1564 H 0.01195 0.9789 0.16097 0.0
H1565 H 0.03825 0.94334 0.14659 0.0
O1566 O 0.03435 0.74599 0.1814 0.0
C1567 C 0.99 0.67836 0.16775 0.0
C1568 C 0.038 0.85561 0.15295 0.0
C1569 C 0.01697 0.93381 0.16095 0.0
N1570 N 0.0151 0.83819 0.16906 0.0
C1571 C 0.02942 0.81816 0.16114 0.0
C1572 C 0.00872 0.89509 0.16901 0.0
C1573 C 0.03173 0.91383 0.15288 0.0
C1574 C 0.95197 0.67594 0.20285 0.0
N1575 N 0.96231 0.64216 0.19524 0.0
C1576 C 0.92841 0.67115 0.20484 0.0
C1577 C 0.91541 0.63156 0.19897 0.0
C1578 C 0.92607 0.59743 0.1912 0.0
C1579 C 0.94967 0.60339 0.18942 0.0
C1580 C 0.99403 0.47866 0.20423 0.0
C1581 C 0.01142 0.53921 0.18617 0.0
C1582 C 0.99084 0.53836 0.20297 0.0
N1583 N 0.99937 0.56773 0.19398 0.0
C1584 C 0.01497 0.47954 0.18716 0.0
C1585 C 0.00616 0.44915 0.19626 0.0
C1586 C 0.0413 0.69605 0.18489 0.0
C1587 C 0.00245 0.88713 0.20828 0.0
C1588 C 0.03379 0.85917 0.19219 0.0
C1589 C 0.0405 0.89548 0.20065 0.0
C1590 C 0.02469 0.90945 0.20875 0.0
N1591 N 0.01193 0.83756 0.19178 0.0
C1592 C 0.99633 0.85105 0.19968 0.0
Co1593 Co 0.25445 0.61566 0.19152 0.0
Co1594 Co 0.24517 0.48187 0.1804 0.0
O1595 O 0.2581 0.5325 0.19126 0.0
C1596 C 0.23501 0.56612 0.21187 0.0
O1597 O 0.22219 0.53561 0.20526 0.0
C1598 C 0.29521 0.47266 0.17915 0.0
O1599 O 0.29457 0.52927 0.1792 0.0
O1600 O 0.25394 0.53536 0.16828 0.0
O1601 O 0.26052 0.62375 0.17514 0.0
H1602 H 0.19847 0.43092 0.14705 0.0
H1603 H 0.28681 0.55678 0.20725 0.0
O1604 O 0.24812 0.60565 0.20783 0.0
H1605 H 0.33401 0.69635 0.18593 0.0
H1606 H 0.26333 0.80942 0.20898 0.0
H1607 H 0.23215 0.70559 0.17719 0.0
H1608 H 0.29233 0.68814 0.18231 0.0
H1609 H 0.26827 0.70372 0.20771 0.0
O1610 O 0.27644 0.44367 0.17939 0.0
H1611 H 0.21418 0.49621 0.161 0.0
H1612 H 0.2503 0.35621 0.17643 0.0
H1613 H 0.22697 0.8113 0.17807 0.0
H1614 H 0.32833 0.56412 0.21124 0.0
H1615 H 0.24262 0.86391 0.19406 0.0
H1616 H 0.35224 0.63419 0.20052 0.0
O1617 O 0.22126 0.60979 0.18812 0.0
H1618 H 0.25809 0.36764 0.21567 0.0
H1619 H 0.202 0.41976 0.18641 0.0
H1620 H 0.19012 0.35538 0.20186 0.0
H1621 H 0.21828 0.32893 0.21663 0.0
H1622 H 0.26919 0.43206 0.20009 0.0
H1623 H 0.23513 0.28939 0.1626 0.0
H1624 H 0.20894 0.32669 0.1478 0.0
O1625 O 0.2143 0.52209 0.18111 0.0
C1626 C 0.25938 0.58851 0.16715 0.0
C1627 C 0.20979 0.4141 0.15348 0.0
C1628 C 0.23039 0.33468 0.1622 0.0
N1629 N 0.23292 0.42984 0.16957 0.0
C1630 C 0.21866 0.45082 0.16142 0.0
C1631 C 0.23895 0.37269 0.16999 0.0
C1632 C 0.21569 0.35564 0.1539 0.0
C1633 C 0.29703 0.58788 0.20263 0.0
N1634 N 0.28711 0.62239 0.19462 0.0
C1635 C 0.32056 0.59166 0.2049 0.0
C1636 C 0.33397 0.63092 0.19887 0.0
C1637 C 0.32376 0.66576 0.19068 0.0
C1638 C 0.30017 0.66084 0.18864 0.0
C1639 C 0.25648 0.78701 0.20196 0.0
C1640 C 0.23918 0.72827 0.18412 0.0
C1641 C 0.25919 0.7272 0.20121 0.0
N1642 N 0.25071 0.69872 0.19233 0.0
C1643 C 0.23611 0.78808 0.1846 0.0
C1644 C 0.24487 0.81756 0.19358 0.0
C1645 C 0.20779 0.57267 0.18392 0.0
C1646 C 0.2457 0.37858 0.20925 0.0
C1647 C 0.21435 0.40832 0.19279 0.0
C1648 C 0.20753 0.37183 0.20152 0.0
C1649 C 0.22335 0.35696 0.20979 0.0
N1650 N 0.23631 0.42921 0.19231 0.0
C1651 C 0.25191 0.41487 0.20039 0.0
Co1652 Co 0.00777 0.3925 0.94305 0.0
Co1653 Co 0.99857 0.52698 0.93099 0.0
O1654 O 0.01267 0.47502 0.94176 0.0
C1655 C 0.99218 0.44456 0.9635 0.0
O1656 O 0.97986 0.47791 0.95687 0.0
C1657 C 0.04838 0.52978 0.92752 0.0
O1658 O 0.04655 0.47331 0.92767 0.0
O1659 O 0.00363 0.47208 0.9191 0.0
O1660 O 0.01117 0.38364 0.92652 0.0
H1661 H 0.94611 0.58465 0.89951 0.0
H1662 H 0.04331 0.44838 0.95695 0.0
O1663 O 0.00397 0.40326 0.95951 0.0
H1664 H 0.08494 0.30382 0.93552 0.0
H1665 H 0.01638 0.19826 0.96222 0.0
H1666 H 0.98197 0.30481 0.93049 0.0
H1667 H 0.04297 0.31602 0.93332 0.0
H1668 H 0.02273 0.30332 0.95965 0.0
O1669 O 0.03029 0.56104 0.92833 0.0
H1670 H 0.96313 0.51731 0.91338 0.0
H1671 H 0.00578 0.65139 0.9253 0.0
H1672 H 0.9753 0.19975 0.93269 0.0
H1673 H 0.08521 0.43721 0.95949 0.0
H1674 H 0.99258 0.14579 0.94865 0.0
H1675 H 0.10631 0.36456 0.94872 0.0
O1676 O 0.97424 0.40177 0.94077 0.0
H1677 H 0.02043 0.64036 0.96426 0.0
H1678 H 0.95806 0.5947 0.93815 0.0
H1679 H 0.95048 0.66118 0.9533 0.0
H1680 H 0.98182 0.68441 0.96647 0.0
H1681 H 0.02722 0.57394 0.94904 0.0
H1682 H 0.98936 0.72017 0.91149 0.0
H1683 H 0.95924 0.6869 0.8985 0.0
O1684 O 0.96726 0.49064 0.93344 0.0
C1685 C 0.0081 0.41845 0.91821 0.0
C1686 C 0.95917 0.59972 0.90514 0.0
C1687 C 0.98347 0.67575 0.91186 0.0
N1688 N 0.9853 0.58056 0.92018 0.0
C1689 C 0.96881 0.56183 0.91304 0.0
C1690 C 0.99274 0.63662 0.91964 0.0
C1691 C 0.96656 0.65706 0.90458 0.0
C1692 C 0.05232 0.41623 0.95232 0.0
N1693 N 0.04068 0.38249 0.94507 0.0
C1694 C 0.07606 0.41026 0.95376 0.0
C1695 C 0.0879 0.36954 0.9477 0.0
C1696 C 0.07592 0.3355 0.94029 0.0
C1697 C 0.05218 0.34266 0.93906 0.0
C1698 C 0.00881 0.22127 0.95522 0.0
C1699 C 0.98969 0.28151 0.93741 0.0
C1700 C 0.01231 0.28072 0.95373 0.0
N1701 N 0.00291 0.30993 0.94488 0.0
C1702 C 0.98578 0.22208 0.93863 0.0
C1703 C 0.99546 0.19185 0.9476 0.0
C1704 C 0.96057 0.44047 0.9369 0.0
C1705 C 0.00667 0.63082 0.95853 0.0
C1706 C 0.97178 0.60472 0.94385 0.0
C1707 C 0.96739 0.6424 0.9524 0.0
C1708 C 0.98499 0.65546 0.95978 0.0
N1709 N 0.99311 0.58091 0.94266 0.0
C1710 C 0.01044 0.59342 0.94987 0.0
Co1711 Co 0.74527 0.36242 0.94041 0.0
Co1712 Co 0.7571 0.22316 0.93291 0.0
O1713 O 0.74209 0.27957 0.94179 0.0
C1714 C 0.76114 0.32786 0.96259 0.0
O1715 O 0.776 0.29559 0.95749 0.0
C1716 C 0.70756 0.21043 0.92933 0.0
O1717 O 0.70823 0.26652 0.92758 0.0
O1718 O 0.75028 0.26827 0.91924 0.0
O1719 O 0.74274 0.36038 0.92381 0.0
H1720 H 0.80967 0.15275 0.90341 0.0
H1721 H 0.70984 0.30985 0.95513 0.0
O1722 O 0.74796 0.36222 0.95703 0.0
H1723 H 0.667 0.43358 0.92843 0.0
H1724 H 0.73161 0.56529 0.95286 0.0
H1725 H 0.77019 0.44468 0.9256 0.0
H1726 H 0.70935 0.42776 0.92773 0.0
H1727 H 0.72748 0.45896 0.95363 0.0
O1728 O 0.72623 0.18284 0.93155 0.0
H1729 H 0.79127 0.22618 0.91484 0.0
H1730 H 0.75329 0.09529 0.93181 0.0
H1731 H 0.77466 0.5508 0.92446 0.0
H1732 H 0.66756 0.31474 0.95618 0.0
H1733 H 0.75528 0.61184 0.93817 0.0
H1734 H 0.64584 0.37673 0.94272 0.0
O1735 O 0.77909 0.35629 0.93899 0.0
H1736 H 0.73918 0.13471 0.97009 0.0
H1737 H 0.7994 0.16761 0.94221 0.0
H1738 H 0.80919 0.1163 0.95969 0.0
H1739 H 0.77897 0.09978 0.97379 0.0
H1740 H 0.73016 0.18577 0.95251 0.0
H1741 H 0.77113 0.02037 0.92051 0.0
H1742 H 0.79961 0.049 0.90622 0.0
O1743 O 0.78751 0.26542 0.93401 0.0
C1744 C 0.74529 0.32066 0.91672 0.0
C1745 C 0.79735 0.13971 0.90964 0.0
C1746 C 0.7757 0.06542 0.91923 0.0
N1747 N 0.77142 0.16487 0.92405 0.0
C1748 C 0.78695 0.18107 0.91616 0.0
C1749 C 0.76563 0.10798 0.92559 0.0
C1750 C 0.79168 0.08151 0.91121 0.0
C1751 C 0.70057 0.33763 0.94935 0.0
N1752 N 0.71208 0.369 0.94145 0.0
C1753 C 0.6766 0.33993 0.94994 0.0
C1754 C 0.66442 0.37465 0.94238 0.0
C1755 C 0.67628 0.40654 0.93435 0.0
C1756 C 0.70025 0.40309 0.934 0.0
C1757 C 0.74009 0.53917 0.94683 0.0
C1758 C 0.76156 0.47102 0.93154 0.0
C1759 C 0.73785 0.479 0.94724 0.0
N1760 N 0.7484 0.44583 0.9396 0.0
C1761 C 0.76422 0.53105 0.93088 0.0
C1762 C 0.75337 0.56526 0.93858 0.0
C1763 C 0.79337 0.31752 0.93617 0.0
C1764 C 0.75247 0.14142 0.96399 0.0
C1765 C 0.78614 0.16023 0.94829 0.0
C1766 C 0.79178 0.13121 0.95817 0.0
C1767 C 0.77481 0.12193 0.96607 0.0
N1768 N 0.7642 0.17924 0.94632 0.0
C1769 C 0.74744 0.17007 0.954 0.0
Co1770 Co 0.01091 0.34204 0.81413 0.0
Co1771 Co 1.00019 0.20398 0.82407 0.0
O1772 O 0.01455 0.25907 0.81405 0.0
C1773 C 0.99425 0.30325 0.7926 0.0
O1774 O 0.98067 0.26899 0.79835 0.0
C1775 C 0.04992 0.19427 0.8272 0.0
O1776 O 0.04894 0.25057 0.82806 0.0
O1777 O 0.00698 0.25221 0.83689 0.0
O1778 O 0.0144 0.34304 0.83075 0.0
H1779 H 0.94909 0.13823 0.85516 0.0
H1780 H 0.04569 0.28944 0.79958 0.0
O1781 O 0.00717 0.33938 0.79754 0.0
H1782 H 0.08925 0.41984 0.82355 0.0
H1783 H 0.02239 0.54317 0.79837 0.0
H1784 H 0.98632 0.42568 0.82799 0.0
H1785 H 0.04715 0.4104 0.82533 0.0
H1786 H 0.0272 0.43702 0.79917 0.0
O1787 O 0.03134 0.16538 0.82591 0.0
H1788 H 0.96648 0.20962 0.84227 0.0
H1789 H 0.00505 0.0768 0.82743 0.0
H1790 H 0.9812 0.53167 0.82756 0.0
H1791 H 0.0877 0.29807 0.79744 0.0
H1792 H 0.99932 0.59114 0.81267 0.0
H1793 H 0.10978 0.3636 0.80948 0.0
O1794 O 0.97724 0.3348 0.81603 0.0
H1795 H 0.01779 0.10701 0.78851 0.0
H1796 H 0.95807 0.14465 0.81609 0.0
H1797 H 0.94822 0.08838 0.79971 0.0
H1798 H 0.9782 0.06937 0.78577 0.0
H1799 H 0.02686 0.16319 0.80499 0.0
H1800 H 0.98821 0.00393 0.84022 0.0
H1801 H 0.95995 0.03454 0.85418 0.0
O1802 O 0.96947 0.24453 0.82242 0.0
C1803 C 0.01192 0.305 0.83854 0.0
C1804 C 0.96131 0.12432 0.84909 0.0
C1805 C 0.98329 0.04895 0.84071 0.0
N1806 N 0.98657 0.14721 0.83405 0.0
C1807 C 0.97115 0.16451 0.84174 0.0
C1808 C 0.9928 0.09037 0.83351 0.0
C1809 C 0.96743 0.06616 0.84854 0.0
C1810 C 0.05512 0.31854 0.80477 0.0
N1811 N 0.04395 0.34984 0.8125 0.0
C1812 C 0.07893 0.32307 0.80355 0.0
C1813 C 0.09131 0.35978 0.81032 0.0
C1814 C 0.07981 0.3913 0.81823 0.0
C1815 C 0.05598 0.38569 0.81921 0.0
C1816 C 0.01445 0.51774 0.80491 0.0
C1817 C 0.99439 0.45134 0.82154 0.0
C1818 C 0.01708 0.45766 0.8054 0.0
N1819 N 0.00723 0.42537 0.81368 0.0
C1820 C 0.99137 0.5113 0.82131 0.0
C1821 C 1.00151 0.54463 0.81294 0.0
C1822 C 0.96326 0.29599 0.81949 0.0
C1823 C 0.0046 0.11481 0.79455 0.0
C1824 C 0.97122 0.13632 0.81008 0.0
C1825 C 0.96555 0.10445 0.80082 0.0
C1826 C 0.98238 0.09378 0.79301 0.0
N1827 N 0.99306 0.15678 0.81153 0.0
C1828 C 0.00967 0.14636 0.80392 0.0
Co1829 Co 0.74865 0.373 0.81112 0.0
Co1830 Co 0.75894 0.50906 0.82097 0.0
O1831 O 0.74502 0.45615 0.81082 0.0
C1832 C 0.76562 0.41645 0.78974 0.0
O1833 O 0.78004 0.44733 0.79549 0.0
C1834 C 0.7091 0.52017 0.82307 0.0
O1835 O 0.70952 0.46353 0.8237 0.0
O1836 O 0.75083 0.45871 0.8337 0.0
O1837 O 0.74476 0.36837 0.82766 0.0
H1838 H 0.80821 0.56696 0.85302 0.0
H1839 H 0.71404 0.42931 0.7962 0.0
O1840 O 0.75256 0.37953 0.79462 0.0
H1841 H 0.67023 0.29232 0.81971 0.0
H1842 H 0.73765 0.17533 0.79553 0.0
H1843 H 0.77308 0.28637 0.82536 0.0
H1844 H 0.71226 0.30173 0.82197 0.0
H1845 H 0.73267 0.28127 0.79614 0.0
O1846 O 0.72794 0.54847 0.82213 0.0
H1847 H 0.79125 0.49866 0.83995 0.0
H1848 H 0.75465 0.63588 0.82387 0.0
H1849 H 0.77836 0.1805 0.82513 0.0
H1850 H 0.67213 0.42056 0.79353 0.0
H1851 H 0.76056 0.12427 0.81013 0.0
H1852 H 0.64991 0.3518 0.80536 0.0
O1853 O 0.78226 0.37974 0.8134 0.0
H1854 H 0.74421 0.61238 0.78471 0.0
H1855 H 0.80184 0.56876 0.81375 0.0
H1856 H 0.81303 0.62741 0.79738 0.0
H1857 H 0.78411 0.64939 0.78271 0.0
H1858 H 0.73378 0.55393 0.8012 0.0
H1859 H 0.77106 0.7057 0.83682 0.0
H1860 H 0.79813 0.67131 0.85149 0.0
O1861 O 0.78956 0.46795 0.8201 0.0
C1862 C 0.74603 0.40544 0.83533 0.0
C1863 C 0.79652 0.5825 0.84663 0.0
C1864 C 0.77564 0.66037 0.83755 0.0
N1865 N 0.77218 0.56345 0.8311 0.0
C1866 C 0.78693 0.54408 0.83919 0.0
C1867 C 0.76637 0.62067 0.83025 0.0
C1868 C 0.79083 0.64104 0.84578 0.0
C1869 C 0.70457 0.39865 0.80127 0.0
N1870 N 0.71564 0.3655 0.80913 0.0
C1871 C 0.68081 0.39411 0.79976 0.0
C1872 C 0.66834 0.35561 0.80641 0.0
C1873 C 0.67973 0.32228 0.81447 0.0
C1874 C 0.70352 0.32787 0.81573 0.0
C1875 C 0.74543 0.19933 0.80212 0.0
C1876 C 0.76513 0.26211 0.81886 0.0
C1877 C 0.74271 0.25929 0.8025 0.0
N1878 N 0.75238 0.28977 0.81084 0.0
C1879 C 0.76825 0.20221 0.81875 0.0
C1880 C 0.75829 0.1707 0.81032 0.0
C1881 C 0.79599 0.41746 0.81721 0.0
C1882 C 0.75694 0.60331 0.79107 0.0
C1883 C 0.78914 0.57844 0.80742 0.0
C1884 C 0.79557 0.61163 0.79817 0.0
C1885 C 0.77934 0.62397 0.78994 0.0
N1886 N 0.76714 0.55836 0.80846 0.0
C1887 C 0.7511 0.57046 0.80045 0.0
H1888 H 0.50201 0.19086 0.09406 0.0
H1889 H 0.46874 0.02774 0.10152 0.0
H1890 H 0.50007 0.21534 0.11354 0.0
H1891 H 0.46612 0.05251 0.12079 0.0
H1892 H 0.49462 0.08013 0.15572 0.0
H1893 H 0.49167 0.05895 0.13614 0.0
H1894 H 0.47623 0.23873 0.12871 0.0
H1895 H 0.47983 0.25999 0.14809 0.0
C1896 C 0.49374 0.16106 0.09981 0.0
C1897 C 0.48573 0.10733 0.09632 0.0
C1898 C 0.49264 0.17485 0.11098 0.0
C1899 C 0.48326 0.13536 0.1188 0.0
C1900 C 0.47402 0.08321 0.1151 0.0
C1901 C 0.47533 0.0693 0.10402 0.0
C1902 C 0.49037 0.11485 0.1499 0.0
C1903 C 0.48771 0.1717 0.15347 0.0
C1904 C 0.48861 0.10284 0.13867 0.0
C1905 C 0.48389 0.14734 0.1308 0.0
C1906 C 0.48039 0.20368 0.13447 0.0
C1907 C 0.48233 0.21572 0.14563 0.0
H1908 H 0.75394 0.19101 0.15604 0.0
H1909 H 0.77414 0.01348 0.15137 0.0
H1910 H 0.75745 0.21009 0.13621 0.0
H1911 H 0.77828 0.0327 0.13175 0.0
H1912 H 0.75108 0.07012 0.09631 0.0
H1913 H 0.75372 0.04926 0.11614 0.0
H1914 H 0.78327 0.21841 0.12101 0.0
H1915 H 0.77999 0.23953 0.10135 0.0
C1916 C 0.75955 0.15649 0.15082 0.0
C1917 C 0.76346 0.10071 0.15523 0.0
C1918 C 0.76162 0.16728 0.13946 0.0
C1919 C 0.76791 0.12262 0.13235 0.0
C1920 C 0.77287 0.06767 0.13691 0.0
C1921 C 0.77061 0.05682 0.14819 0.0
C1922 C 0.75856 0.10216 0.10162 0.0
C1923 C 0.76509 0.15651 0.09733 0.0
C1924 C 0.76007 0.09042 0.11298 0.0
C1925 C 0.76838 0.13264 0.1202 0.0
C1926 C 0.77622 0.18556 0.11575 0.0
C1927 C 0.77452 0.19741 0.10447 0.0
H1928 H 0.5307 0.74891 0.8534 0.0
H1929 H 0.50628 0.92184 0.84574 0.0
H1930 H 0.53335 0.77157 0.87278 0.0
H1931 H 0.50813 0.94422 0.86529 0.0
H1932 H 0.52863 0.9825 0.90008 0.0
H1933 H 0.53209 0.96008 0.88075 0.0
H1934 H 0.5087 0.7857 0.88792 0.0
H1935 H 0.50603 0.8079 0.90746 0.0
C1936 C 0.52595 0.792 0.85587 0.0
C1937 C 0.51812 0.83357 0.84805 0.0
C1938 C 0.5273 0.8048 0.86702 0.0
C1939 C 0.52065 0.85939 0.87068 0.0
C1940 C 0.51362 0.9018 0.86279 0.0
C1941 C 0.51251 0.88911 0.85156 0.0
C1942 C 0.52441 0.93912 0.89756 0.0
C1943 C 0.51687 0.89699 0.90529 0.0
C1944 C 0.52624 0.92643 0.88643 0.0
C1945 C 0.52037 0.87138 0.88269 0.0
C1946 C 0.51359 0.82849 0.8905 0.0
C1947 C 0.512 0.84108 0.9017 0.0
H1948 H 0.25707 0.7967 0.84484 0.0
H1949 H 0.22077 0.95661 0.84991 0.0
H1950 H 0.25485 0.77375 0.86461 0.0
H1951 H 0.21789 0.93333 0.86949 0.0
H1952 H 0.23509 0.73155 0.89973 0.0
H1953 H 0.23099 0.74989 0.88007 0.0
H1954 H 0.24397 0.9317 0.88484 0.0
H1955 H 0.24748 0.91344 0.9047 0.0
C1956 C 0.24802 0.82593 0.85014 0.0
C1957 C 0.23926 0.87848 0.84591 0.0
C1958 C 0.24677 0.81306 0.86146 0.0
C1959 C 0.23654 0.85233 0.86869 0.0
C1960 C 0.22644 0.90294 0.86425 0.0
C1961 C 0.22787 0.91595 0.85301 0.0
C1962 C 0.23696 0.77564 0.89662 0.0
C1963 C 0.24184 0.82111 0.90379 0.0
C1964 C 0.23471 0.78599 0.88531 0.0
C1965 C 0.23736 0.84206 0.88083 0.0
C1966 C 0.24156 0.88796 0.88802 0.0
C1967 C 0.24366 0.87762 0.8994 0.0
H1968 H 0.47619 0.6775 0.59351 0.0
H1969 H 0.50437 0.51277 0.60462 0.0
H1970 H 0.47185 0.7049 0.61276 0.0
H1971 H 0.50074 0.5405 0.62351 0.0
H1972 H 0.47861 0.58516 0.65752 0.0
H1973 H 0.47525 0.55803 0.63822 0.0
H1974 H 0.49548 0.73083 0.6279 0.0
H1975 H 0.49801 0.75829 0.64688 0.0
C1976 C 0.4815 0.64729 0.60001 0.0
C1977 C 0.49064 0.59305 0.59746 0.0
C1978 C 0.47905 0.6629 0.61104 0.0
C1979 C 0.48583 0.62472 0.61973 0.0
C1980 C 0.49481 0.57053 0.61712 0.0
C1981 C 0.49712 0.55491 0.60618 0.0
C1982 C 0.48211 0.61737 0.65112 0.0
C1983 C 0.48873 0.6737 0.65382 0.0
C1984 C 0.48028 0.60187 0.64005 0.0
C1985 C 0.48518 0.64225 0.63146 0.0
C1986 C 0.49119 0.69881 0.63421 0.0
C1987 C 0.49288 0.71433 0.6452 0.0
H1988 H 0.78224 0.53253 0.65255 0.0
H1989 H 0.74819 0.69629 0.65683 0.0
H1990 H 0.78552 0.55306 0.63289 0.0
H1991 H 0.75079 0.7165 0.63698 0.0
H1992 H 0.77101 0.75277 0.60177 0.0
H1993 H 0.77503 0.73636 0.62149 0.0
H1994 H 0.75966 0.55511 0.61749 0.0
H1995 H 0.75624 0.57139 0.59757 0.0
C1996 C 0.7757 0.5734 0.64926 0.0
C1997 C 0.76483 0.6128 0.65617 0.0
C1998 C 0.77737 0.58486 0.63798 0.0
C1999 C 0.76802 0.63582 0.6333 0.0
C2000 C 0.7583 0.67687 0.64032 0.0
C2001 C 0.75682 0.66556 0.65169 0.0
C2002 C 0.76863 0.7092 0.60507 0.0
C2003 C 0.76307 0.66333 0.5981 0.0
C2004 C 0.77083 0.69996 0.61641 0.0
C2005 C 0.76742 0.64466 0.62112 0.0
C2006 C 0.76264 0.59826 0.61412 0.0
C2007 C 0.76061 0.60746 0.60271 0.0
H2008 H 0.49052 0.47577 0.39743 0.0
H2009 H 0.52998 0.3256 0.40797 0.0
H2010 H 0.49539 0.45079 0.37841 0.0
H2011 H 0.53556 0.30122 0.38865 0.0
H2012 H 0.5133 0.23925 0.35453 0.0
H2013 H 0.51423 0.26619 0.37355 0.0
H2014 H 0.52163 0.44593 0.36353 0.0
H2015 H 0.51978 0.41893 0.34417 0.0
C2016 C 0.50046 0.43749 0.39569 0.0
C2017 C 0.50984 0.40256 0.40427 0.0
C2018 C 0.50347 0.42354 0.38471 0.0
C2019 C 0.51609 0.37438 0.38192 0.0
C2020 C 0.52556 0.33926 0.39049 0.0
C2021 C 0.52236 0.35305 0.40157 0.0
C2022 C 0.51525 0.28471 0.35628 0.0
C2023 C 0.51614 0.3271 0.34773 0.0
C2024 C 0.51604 0.30003 0.36729 0.0
C2025 C 0.5179 0.35821 0.37015 0.0
C2026 C 0.51979 0.40065 0.36163 0.0
C2027 C 0.51888 0.38527 0.35052 0.0
H2028 H 0.26181 0.47286 0.35221 0.0
H2029 H 0.22906 0.31117 0.34418 0.0
H2030 H 0.25697 0.45118 0.3716 0.0
H2031 H 0.22357 0.29005 0.36384 0.0
H2032 H 0.24813 0.24211 0.39904 0.0
H2033 H 0.24663 0.26441 0.37954 0.0
H2034 H 0.22994 0.44223 0.38627 0.0
H2035 H 0.23224 0.42028 0.40607 0.0
C2036 C 0.25333 0.43275 0.35456 0.0
C2037 C 0.24588 0.39358 0.34659 0.0
C2038 C 0.25034 0.42067 0.36574 0.0
C2039 C 0.2397 0.36918 0.36931 0.0
C2040 C 0.23202 0.33 0.36136 0.0
C2041 C 0.23516 0.34199 0.3501 0.0
C2042 C 0.24398 0.28609 0.39645 0.0
C2043 C 0.24057 0.32966 0.40419 0.0
C2044 C 0.24288 0.29865 0.38519 0.0
C2045 C 0.23822 0.35507 0.3813 0.0
C2046 C 0.23393 0.39839 0.38901 0.0
C2047 C 0.23514 0.38585 0.40035 0.0
H2048 H 0.99539 0.18751 0.59631 0.0
H2049 H 0.97463 0.01173 0.60396 0.0
H2050 H 0.99314 0.20981 0.61587 0.0
H2051 H 0.9717 0.03415 0.62331 0.0
H2052 H 0.99876 0.07525 0.65812 0.0
H2053 H 0.99627 0.05199 0.63859 0.0
H2054 H 0.96856 0.22225 0.63118 0.0
H2055 H 0.97174 0.24572 0.6505 0.0
C2056 C 0.9899 0.15407 0.60213 0.0
C2057 C 0.98543 0.09785 0.5986 0.0
C2058 C 0.98857 0.16669 0.61334 0.0
C2059 C 0.98249 0.12349 0.62123 0.0
C2060 C 0.977 0.06808 0.61756 0.0
C2061 C 0.97852 0.0554 0.60642 0.0
C2062 C 0.99182 0.10717 0.65232 0.0
C2063 C 0.98568 0.16238 0.65582 0.0
C2064 C 0.99037 0.09402 0.64112 0.0
C2065 C 0.9825 0.13563 0.63324 0.0
C2066 C 0.97527 0.18971 0.63692 0.0
C2067 C 0.97693 0.20295 0.64803 0.0
H2068 H 0.2489 0.07697 0.5969 0.0
H2069 H 0.27579 0.24854 0.60188 0.0
H2070 H 0.25202 0.05631 0.61673 0.0
H2071 H 0.27957 0.22767 0.6215 0.0
H2072 H 0.2521 0.19733 0.65675 0.0
H2073 H 0.2545 0.21698 0.6369 0.0
H2074 H 0.27739 0.04147 0.63212 0.0
H2075 H 0.27434 0.02162 0.65178 0.0
C2076 C 0.25595 0.10965 0.6022 0.0
C2077 C 0.26182 0.16444 0.59789 0.0
C2078 C 0.25776 0.098 0.61355 0.0
C2079 C 0.26575 0.14076 0.62074 0.0
C2080 C 0.2728 0.19434 0.61627 0.0
C2081 C 0.27078 0.2061 0.605 0.0
C2082 C 0.25795 0.16339 0.65145 0.0
C2083 C 0.26276 0.1079 0.65579 0.0
C2084 C 0.25936 0.17449 0.64008 0.0
C2085 C 0.26588 0.13046 0.63288 0.0
C2086 C 0.27177 0.07589 0.63736 0.0
C2087 C 0.27016 0.06471 0.64865 0.0
H2088 H 0.01484 0.73631 0.35583 0.0
H2089 H 0.0233 0.91748 0.347 0.0
H2090 H 0.01575 0.75914 0.37518 0.0
H2091 H 0.02489 0.94009 0.36655 0.0
H2092 H 0.99117 0.966 0.39966 0.0
H2093 H 0.99643 0.94127 0.38072 0.0
H2094 H 0.03726 0.79305 0.391 0.0
H2095 H 0.03157 0.81773 0.41039 0.0
C2096 C 0.01721 0.78111 0.35799 0.0
C2097 C 0.01862 0.82529 0.34979 0.0
C2098 C 0.01796 0.79401 0.36916 0.0
C2099 C 0.02016 0.85142 0.37246 0.0
C2100 C 0.02274 0.89539 0.36428 0.0
C2101 C 0.02195 0.8825 0.35307 0.0
C2102 C 1.00138 0.92811 0.39799 0.0
C2103 C 0.01109 0.89404 0.40662 0.0
C2104 C 0.00458 0.91428 0.38704 0.0
C2105 C 0.01766 0.86591 0.38428 0.0
C2106 C 0.02709 0.83079 0.39286 0.0
C2107 C 0.02381 0.8447 0.40395 0.0
H2108 H 0.74126 0.73934 0.39902 0.0
H2109 H 0.73774 0.92009 0.40728 0.0
H2110 H 0.74035 0.76527 0.37966 0.0
H2111 H 0.73589 0.9461 0.38763 0.0
H2112 H 0.76965 0.97032 0.354 0.0
H2113 H 0.76349 0.94594 0.37318 0.0
H2114 H 0.72003 0.80316 0.36393 0.0
H2115 H 0.72676 0.82715 0.34442 0.0
C2116 C 0.73992 0.78482 0.39673 0.0
C2117 C 0.74004 0.82783 0.40477 0.0
C2118 C 0.73913 0.79956 0.38555 0.0
C2119 C 0.73828 0.85773 0.38204 0.0
C2120 C 0.73701 0.90079 0.39006 0.0
C2121 C 0.73791 0.88599 0.40132 0.0
C2122 C 0.75871 0.93367 0.35599 0.0
C2123 C 0.74866 0.90065 0.34764 0.0
C2124 C 0.75496 0.92013 0.36705 0.0
C2125 C 0.74095 0.87324 0.37015 0.0
C2126 C 0.73099 0.83959 0.36183 0.0
C2127 C 0.73488 0.85306 0.35065 0.0
H2128 H 0.96962 0.74059 0.15123 0.0
H2129 H 0.99946 0.57307 0.15877 0.0
H2130 H 0.96675 0.71695 0.1319 0.0
H2131 H 0.99725 0.54966 0.13924 0.0
H2132 H 0.97671 0.50811 0.10453 0.0
H2133 H 0.97309 0.52974 0.12388 0.0
H2134 H 0.99202 0.70746 0.11667 0.0
H2135 H 0.99501 0.6859 0.09711 0.0
C2136 C 0.97541 0.69834 0.14874 0.0
C2137 C 0.98491 0.65871 0.1565 0.0
C2138 C 0.97396 0.68504 0.13762 0.0
C2139 C 0.98213 0.63187 0.13393 0.0
C2140 C 0.99063 0.59097 0.14179 0.0
C2141 C 0.99189 0.60417 0.15299 0.0
C2142 C 0.97995 0.55204 0.10704 0.0
C2143 C 0.98636 0.5953 0.09928 0.0
C2144 C 0.978 0.56428 0.11818 0.0
C2145 C 0.98255 0.62008 0.12191 0.0
C2146 C 0.98817 0.66401 0.11409 0.0
C2147 C 0.98993 0.6518 0.10287 0.0
H2148 H 0.28015 0.52588 0.15159 0.0
H2149 H 0.25025 0.69364 0.15705 0.0
H2150 H 0.28294 0.54863 0.132 0.0
H2151 H 0.25245 0.71619 0.13728 0.0
H2152 H 0.27242 0.75533 0.10221 0.0
H2153 H 0.27687 0.73466 0.12178 0.0
H2154 H 0.25659 0.55731 0.11675 0.0
H2155 H 0.2527 0.57791 0.09694 0.0
C2156 C 0.2744 0.56803 0.14858 0.0
C2157 C 0.26482 0.60797 0.15581 0.0
C2158 C 0.27581 0.5808 0.13733 0.0
C2159 C 0.26754 0.63371 0.13301 0.0
C2160 C 0.25911 0.67505 0.14034 0.0
C2161 C 0.25787 0.66237 0.15167 0.0
C2162 C 0.26904 0.71169 0.10525 0.0
C2163 C 0.26193 0.66826 0.09805 0.0
C2164 C 0.2715 0.70002 0.1165 0.0
C2165 C 0.26679 0.64465 0.12089 0.0
C2166 C 0.26054 0.60044 0.11363 0.0
C2167 C 0.25826 0.61209 0.10229 0.0
H2168 H 0.00945 0.23375 0.85678 0.0
H2169 H 0.0215 0.41226 0.84692 0.0
H2170 H 0.01098 0.25944 0.87596 0.0
H2171 H 0.02376 0.43769 0.86632 0.0
H2172 H 0.99228 0.47293 0.89964 0.0
H2173 H 0.99643 0.44557 0.88077 0.0
H2174 H 0.03346 0.29173 0.8914 0.0
H2175 H 0.02881 0.31895 0.91069 0.0
C2176 C 0.01273 0.27855 0.85868 0.0
C2177 C 0.01503 0.32118 0.85023 0.0
C2178 C 0.01383 0.29308 0.86975 0.0
C2179 C 0.01733 0.35062 0.87273 0.0
C2180 C 0.02063 0.39299 0.86431 0.0
C2181 C 0.01944 0.37846 0.85318 0.0
C2182 C 1.00143 0.43323 0.89806 0.0
C2183 C 0.01032 0.39823 0.90676 0.0
C2184 C 0.004 0.41785 0.88714 0.0
C2185 C 0.01562 0.367 0.88449 0.0
C2186 C 0.02436 0.33127 0.89315 0.0
C2187 C 0.02168 0.3467 0.9042 0.0
H2188 H 0.7493 0.42539 0.90571 0.0
H2189 H 0.73296 0.24538 0.90092 0.0
H2190 H 0.747 0.4432 0.88581 0.0
H2191 H 0.72985 0.26337 0.8812 0.0
H2192 H 0.75629 0.30256 0.846 0.0
H2193 H 0.75395 0.28214 0.86583 0.0
H2194 H 0.72213 0.449 0.87028 0.0
H2195 H 0.72532 0.46986 0.85065 0.0
C2196 C 0.74483 0.38995 0.90043 0.0
C2197 C 0.74156 0.334 0.90487 0.0
C2198 C 0.74343 0.40004 0.88903 0.0
C2199 C 0.73841 0.35451 0.88186 0.0
C2200 C 0.73427 0.29911 0.88641 0.0
C2201 C 0.73593 0.28895 0.89774 0.0
C2202 C 0.74847 0.33423 0.85123 0.0
C2203 C 0.74122 0.38788 0.84683 0.0
C2204 C 0.7471 0.32272 0.86259 0.0
C2205 C 0.73815 0.36439 0.8697 0.0
C2206 C 0.72971 0.41662 0.86513 0.0
C2207 C 0.73135 0.42833 0.85386 0.0
H2208 H 0.30629 0.90745 0.0685 0.0
H2209 H 0.33356 0.74762 0.08245 0.0
H2210 H 0.34507 0.94878 0.06853 0.0
H2211 H 0.3718 0.78905 0.08282 0.0
H2212 H 0.44124 0.8583 0.07129 0.0
H2213 H 0.40244 0.8174 0.07098 0.0
H2214 H 0.37457 0.98201 0.08054 0.0
H2215 H 0.41293 0.02294 0.08048 0.0
C2216 C 0.32048 0.88151 0.0717 0.0
C2217 C 0.31687 0.82436 0.07544 0.0
C2218 C 0.34269 0.90508 0.07174 0.0
C2219 C 0.36164 0.87204 0.07561 0.0
C2220 C 0.35779 0.81532 0.07955 0.0
C2221 C 0.33575 0.79176 0.07942 0.0
C2222 C 0.4268 0.88545 0.07338 0.0
C2223 C 0.43016 0.94372 0.0759 0.0
C2224 C 0.40456 0.86213 0.07323 0.0
C2225 C 0.38531 0.89655 0.07569 0.0
C2226 C 0.38886 0.95455 0.07837 0.0
C2227 C 0.41096 0.97785 0.07844 0.0
H2228 H 0.80675 0.39762 0.08009 0.0
H2229 H 0.83581 0.24162 0.06717 0.0
H2230 H 0.84531 0.43926 0.08135 0.0
H2231 H 0.87392 0.28372 0.06782 0.0
H2232 H 0.94269 0.35179 0.07976 0.0
H2233 H 0.9041 0.30949 0.07952 0.0
H2234 H 0.8754 0.47749 0.07093 0.0
H2235 H 0.91336 0.51952 0.07181 0.0
C2236 C 0.82134 0.37267 0.07737 0.0
C2237 C 0.81829 0.31644 0.07357 0.0
C2238 C 0.84346 0.39643 0.07805 0.0
C2239 C 0.8629 0.36478 0.07473 0.0
C2240 C 0.85958 0.30895 0.07071 0.0
C2241 C 0.83762 0.28499 0.07023 0.0
C2242 C 0.92806 0.37941 0.07786 0.0
C2243 C 0.93109 0.4389 0.07584 0.0
C2244 C 0.90593 0.35529 0.07765 0.0
C2245 C 0.88647 0.39008 0.07524 0.0
C2246 C 0.88974 0.44943 0.07309 0.0
C2247 C 0.91167 0.4735 0.07348 0.0
H2248 H 0.41345 0.24203 0.18057 0.0
H2249 H 0.44228 0.41111 0.1736 0.0
H2250 H 0.37532 0.28334 0.18131 0.0
H2251 H 0.40359 0.45268 0.1737 0.0
H2252 H 0.33545 0.51828 0.18601 0.0
H2253 H 0.37355 0.47632 0.18543 0.0
H2254 H 0.34508 0.32285 0.17088 0.0
H2255 H 0.30648 0.36432 0.17206 0.0
C2256 C 0.41161 0.28817 0.17908 0.0
C2257 C 0.43092 0.3234 0.17705 0.0
C2258 C 0.3896 0.31183 0.17939 0.0
C2259 C 0.38619 0.37137 0.1775 0.0
C2260 C 0.40555 0.40672 0.17538 0.0
C2261 C 0.42773 0.38302 0.17525 0.0
C2262 C 0.33728 0.47539 0.18274 0.0
C2263 C 0.31798 0.44449 0.17908 0.0
C2264 C 0.35924 0.45153 0.1823 0.0
C2265 C 0.36259 0.39637 0.178 0.0
C2266 C 0.34318 0.36518 0.17439 0.0
C2267 C 0.32105 0.38883 0.17502 0.0
H2268 H 0.80563 0.86093 0.17515 0.0
H2269 H 0.8362 0.02264 0.18461 0.0
H2270 H 0.84399 0.81772 0.17427 0.0
H2271 H 0.87405 0.97935 0.18437 0.0
H2272 H 0.9415 0.90481 0.17301 0.0
H2273 H 0.90296 0.94718 0.17281 0.0
H2274 H 0.87501 0.78451 0.18499 0.0
H2275 H 0.913 0.74196 0.18457 0.0
C2276 C 0.8205 0.88689 0.17719 0.0
C2277 C 0.81793 0.94509 0.17991 0.0
C2278 C 0.8425 0.86225 0.17673 0.0
C2279 C 0.86227 0.89513 0.17919 0.0
C2280 C 0.85943 0.953 0.18214 0.0
C2281 C 0.83761 0.97771 0.1824 0.0
C2282 C 0.92705 0.87835 0.17561 0.0
C2283 C 0.93027 0.82016 0.17877 0.0
C2284 C 0.90496 0.90254 0.17556 0.0
C2285 C 0.88573 0.86927 0.17888 0.0
C2286 C 0.88918 0.81121 0.18214 0.0
C2287 C 0.9111 0.78692 0.182 0.0
H2288 H 0.66719 0.25773 0.92231 0.0
H2289 H 0.69622 0.09908 0.93593 0.0
H2290 H 0.62933 0.21439 0.92224 0.0
H2291 H 0.65778 0.05576 0.93617 0.0
H2292 H 0.56045 0.13993 0.93307 0.0
H2293 H 0.59886 0.18299 0.93396 0.0
H2294 H 0.6287 0.02135 0.924 0.0
H2295 H 0.59077 0.97827 0.92345 0.0
C2296 C 0.6655 0.21346 0.92534 0.0
C2297 C 0.68481 0.18172 0.9291 0.0
C2298 C 0.64364 0.1888 0.92539 0.0
C2299 C 0.64037 0.13172 0.92926 0.0
C2300 C 0.6597 0.09971 0.93301 0.0
C2301 C 0.68173 0.12443 0.9329 0.0
C2302 C 0.57524 0.11384 0.93104 0.0
C2303 C 0.57251 0.05584 0.92816 0.0
C2304 C 0.59726 0.13842 0.93153 0.0
C2305 C 0.61695 0.10555 0.92908 0.0
C2306 C 0.61407 0.04767 0.92615 0.0
C2307 C 0.59219 0.02315 0.92572 0.0
H2308 H 0.19704 0.58726 0.92373 0.0
H2309 H 0.16842 0.7495 0.93392 0.0
H2310 H 0.15821 0.54673 0.92265 0.0
H2311 H 0.13016 0.70883 0.93355 0.0
H2312 H 0.06128 0.64183 0.92245 0.0
H2313 H 0.10033 0.68093 0.92218 0.0
H2314 H 0.12695 0.51351 0.93272 0.0
H2315 H 0.08843 0.47429 0.93227 0.0
C2316 C 0.1825 0.61385 0.92591 0.0
C2317 C 0.18576 0.67149 0.92887 0.0
C2318 C 0.16021 0.59076 0.92533 0.0
C2319 C 0.14082 0.62459 0.92792 0.0
C2320 C 0.14439 0.68177 0.93117 0.0
C2321 C 0.16648 0.70498 0.93152 0.0
C2322 C 0.07555 0.61357 0.92464 0.0
C2323 C 0.07175 0.55509 0.92737 0.0
C2324 C 0.09797 0.63591 0.92457 0.0
C2325 C 0.117 0.60049 0.92747 0.0
C2326 C 0.11298 0.54202 0.93022 0.0
C2327 C 0.09074 0.51958 0.93007 0.0
H2328 H 0.59218 0.75548 0.82018 0.0
H2329 H 0.56269 0.59008 0.82949 0.0
H2330 H 0.63002 0.71228 0.81951 0.0
H2331 H 0.60106 0.54684 0.8295 0.0
H2332 H 0.6681 0.47337 0.81761 0.0
H2333 H 0.63036 0.51726 0.81803 0.0
H2334 H 0.66065 0.67522 0.82985 0.0
H2335 H 0.69888 0.63162 0.82876 0.0
C2336 C 0.59383 0.70978 0.8222 0.0
C2337 C 0.57441 0.67608 0.82486 0.0
C2338 C 0.61567 0.68504 0.82192 0.0
C2339 C 0.61882 0.626 0.8245 0.0
C2340 C 0.59934 0.59227 0.82727 0.0
C2341 C 0.57732 0.61696 0.82733 0.0
C2342 C 0.66675 0.51764 0.82024 0.0
C2343 C 0.68647 0.54915 0.82313 0.0
C2344 C 0.64499 0.54269 0.8206 0.0
C2345 C 0.64223 0.59973 0.82408 0.0
C2346 C 0.66205 0.63144 0.82696 0.0
C2347 C 0.68398 0.60655 0.82639 0.0
H2348 H 0.06118 0.07897 0.82982 0.0
H2349 H 0.09068 0.2483 0.82388 0.0
H2350 H 0.09973 0.03655 0.82947 0.0
H2351 H 0.12861 0.20629 0.82287 0.0
H2352 H 0.19723 0.12317 0.8313 0.0
H2353 H 0.15875 0.16463 0.83294 0.0
H2354 H 0.1297 0.01396 0.81763 0.0
H2355 H 0.16775 0.97183 0.8166 0.0
C2356 C 0.07585 0.10697 0.82835 0.0
C2357 C 0.07287 0.16688 0.82691 0.0
C2358 C 0.09795 0.08278 0.82808 0.0
C2359 C 0.11744 0.11797 0.82615 0.0
C2360 C 0.11424 0.17783 0.82463 0.0
C2361 C 0.09233 0.20193 0.8251 0.0
C2362 C 0.18256 0.09925 0.82828 0.0
C2363 C 0.18547 0.04434 0.82386 0.0
C2364 C 0.16049 0.12291 0.82918 0.0
C2365 C 0.14095 0.09257 0.82546 0.0
C2366 C 0.14412 0.03809 0.82084 0.0
C2367 C 0.16604 0.01414 0.82014 0.0
H2368 H 0.41429 0.51488 0.58172 0.0
H2369 H 0.44145 0.35162 0.57107 0.0
H2370 H 0.37566 0.47548 0.58152 0.0
H2371 H 0.40241 0.31237 0.57054 0.0
H2372 H 0.33345 0.24241 0.58183 0.0
H2373 H 0.37187 0.28253 0.58231 0.0
H2374 H 0.34566 0.44576 0.56938 0.0
H2375 H 0.30666 0.40562 0.56922 0.0
C2376 C 0.41202 0.47041 0.57932 0.0
C2377 C 0.431 0.4362 0.57646 0.0
C2378 C 0.38976 0.44802 0.5791 0.0
C2379 C 0.38581 0.39088 0.57595 0.0
C2380 C 0.40483 0.35641 0.57315 0.0
C2381 C 0.42722 0.37879 0.57344 0.0
C2382 C 0.33577 0.28702 0.57911 0.0
C2383 C 0.31696 0.32092 0.57548 0.0
C2384 C 0.35794 0.30985 0.5793 0.0
C2385 C 0.362 0.36718 0.57578 0.0
C2386 C 0.34313 0.40152 0.57225 0.0
C2387 C 0.32078 0.37864 0.57214 0.0
H2388 H 0.80561 0.89741 0.57791 0.0
H2389 H 0.8359 0.73737 0.56757 0.0
H2390 H 0.84396 0.94034 0.57908 0.0
H2391 H 0.87379 0.78054 0.56803 0.0
H2392 H 0.94173 0.85317 0.57985 0.0
H2393 H 0.90327 0.81037 0.5795 0.0
H2394 H 0.87476 0.97593 0.56904 0.0
H2395 H 0.91259 0.01865 0.57011 0.0
C2396 C 0.82043 0.87184 0.57571 0.0
C2397 C 0.81779 0.81412 0.57268 0.0
C2398 C 0.84245 0.89632 0.57634 0.0
C2399 C 0.86219 0.86388 0.57371 0.0
C2400 C 0.85925 0.80656 0.57041 0.0
C2401 C 0.8374 0.78193 0.57001 0.0
C2402 C 0.92717 0.88014 0.57751 0.0
C2403 C 0.9302 0.93919 0.57504 0.0
C2404 C 0.9051 0.85571 0.57724 0.0
C2405 C 0.8857 0.88965 0.57426 0.0
C2406 C 0.88901 0.94854 0.57163 0.0
C2407 C 0.91087 0.973 0.57213 0.0
H2408 H 0.44193 0.91676 0.67268 0.0
H2409 H 0.4135 0.74869 0.68091 0.0
H2410 H 0.40331 0.95851 0.67317 0.0
H2411 H 0.3755 0.79027 0.6821 0.0
H2412 H 0.30597 0.87023 0.6739 0.0
H2413 H 0.34437 0.82817 0.6723 0.0
H2414 H 0.37419 0.98464 0.68504 0.0
H2415 H 0.33622 0.02712 0.68596 0.0
C2416 C 0.42748 0.88893 0.67469 0.0
C2417 C 0.43077 0.82954 0.67673 0.0
C2418 C 0.40533 0.91276 0.67505 0.0
C2419 C 0.38611 0.87782 0.67769 0.0
C2420 C 0.38963 0.81848 0.6798 0.0
C2421 C 0.41158 0.79465 0.67922 0.0
C2422 C 0.3208 0.89525 0.67638 0.0
C2423 C 0.31813 0.95188 0.68003 0.0
C2424 C 0.34284 0.87126 0.6755 0.0
C2425 C 0.36258 0.90309 0.67847 0.0
C2426 C 0.35962 0.95924 0.68239 0.0
C2427 C 0.33775 0.98343 0.68305 0.0
H2428 H 0.80507 0.36586 0.67308 0.0
H2429 H 0.83566 0.52252 0.68512 0.0
H2430 H 0.84335 0.32225 0.67204 0.0
H2431 H 0.8734 0.47867 0.68464 0.0
H2432 H 0.94118 0.40734 0.67315 0.0
H2433 H 0.90272 0.45015 0.67288 0.0
H2434 H 0.87378 0.28457 0.68275 0.0
H2435 H 0.91176 0.24176 0.68244 0.0
C2436 C 0.81992 0.3906 0.67563 0.0
C2437 C 0.81738 0.44757 0.67913 0.0
C2438 C 0.84187 0.36572 0.67507 0.0
C2439 C 0.86161 0.39706 0.67818 0.0
C2440 C 0.85881 0.45363 0.6819 0.0
C2441 C 0.83704 0.47863 0.68228 0.0
C2442 C 0.92654 0.38029 0.67521 0.0
C2443 C 0.92951 0.32129 0.67779 0.0
C2444 C 0.90449 0.40474 0.67513 0.0
C2445 C 0.88501 0.37085 0.6778 0.0
C2446 C 0.88817 0.31186 0.68042 0.0
C2447 C 0.91007 0.28738 0.68033 0.0
H2448 H 0.55926 0.64471 0.4225 0.0
H2449 H 0.58667 0.47417 0.42973 0.0
H2450 H 0.59836 0.68379 0.42251 0.0
H2451 H 0.62518 0.51302 0.43043 0.0
H2452 H 0.69499 0.58934 0.42188 0.0
H2453 H 0.65602 0.54988 0.42049 0.0
H2454 H 0.62874 0.70683 0.43406 0.0
H2455 H 0.66713 0.7467 0.43477 0.0
C2456 C 0.57359 0.61575 0.42418 0.0
C2457 C 0.56983 0.55646 0.4261 0.0
C2458 C 0.59603 0.63803 0.42427 0.0
C2459 C 0.61513 0.60162 0.42649 0.0
C2460 C 0.61116 0.54238 0.42845 0.0
C2461 C 0.5889 0.52012 0.42816 0.0
C2462 C 0.68059 0.61501 0.42458 0.0
C2463 C 0.68409 0.67106 0.42839 0.0
C2464 C 0.65822 0.59253 0.42382 0.0
C2465 C 0.63901 0.62529 0.42709 0.0
C2466 C 0.64283 0.68078 0.43117 0.0
C2467 C 0.66499 0.70346 0.43171 0.0
H2468 H 0.05901 0.13994 0.42251 0.0
H2469 H 0.08765 0.97508 0.433 0.0
H2470 H 0.09768 0.18144 0.42221 0.0
H2471 H 0.12577 0.01669 0.43342 0.0
H2472 H 0.19526 0.09273 0.42432 0.0
H2473 H 0.15676 0.0503 0.4233 0.0
H2474 H 0.12733 0.21254 0.43333 0.0
H2475 H 0.16529 0.25505 0.43362 0.0
C2476 C 0.07353 0.11282 0.42485 0.0
C2477 C 0.07026 0.05434 0.42776 0.0
C2478 C 0.09573 0.13653 0.42476 0.0
C2479 C 0.11508 0.10254 0.42781 0.0
C2480 C 0.11157 0.04412 0.43078 0.0
C2481 C 0.08955 0.02031 0.43065 0.0
C2482 C 0.18048 0.11898 0.42631 0.0
C2483 C 0.18329 0.17716 0.42902 0.0
C2484 C 0.15838 0.09478 0.42577 0.0
C2485 C 0.1387 0.12799 0.42817 0.0
C2486 C 0.1418 0.18583 0.43112 0.0
C2487 C 0.16371 0.21013 0.43142 0.0
H2488 H 0.70063 0.14301 0.3304 0.0
H2489 H 0.67264 0.97947 0.32034 0.0
H2490 H 0.66163 0.18243 0.33129 0.0
H2491 H 0.6342 0.01909 0.32056 0.0
H2492 H 0.5649 0.08708 0.33086 0.0
H2493 H 0.60398 0.0478 0.33149 0.0
H2494 H 0.63062 0.21437 0.32067 0.0
H2495 H 0.59211 0.2537 0.32071 0.0
C2496 C 0.68619 0.1158 0.32826 0.0
C2497 C 0.68972 0.0582 0.32534 0.0
C2498 C 0.6638 0.13829 0.32871 0.0
C2499 C 0.64455 0.10394 0.32603 0.0
C2500 C 0.64834 0.0466 0.32296 0.0
C2501 C 0.67054 0.02399 0.32272 0.0
C2502 C 0.57919 0.11505 0.32865 0.0
C2503 C 0.57541 0.1734 0.32576 0.0
C2504 C 0.60162 0.09264 0.32895 0.0
C2505 C 0.62067 0.12787 0.32615 0.0
C2506 C 0.61664 0.18607 0.32315 0.0
C2507 C 0.5944 0.20856 0.32306 0.0
H2508 H 0.1705 0.46865 0.32855 0.0
H2509 H 0.19902 0.63296 0.31771 0.0
H2510 H 0.13254 0.51115 0.32915 0.0
H2511 H 0.16044 0.67558 0.318 0.0
H2512 H 0.09363 0.74596 0.33195 0.0
H2513 H 0.13159 0.70362 0.33075 0.0
H2514 H 0.10175 0.54769 0.31791 0.0
H2515 H 0.0633 0.58992 0.31941 0.0
C2516 C 0.16868 0.51401 0.32623 0.0
C2517 C 0.1879 0.54756 0.32312 0.0
C2518 C 0.14675 0.53822 0.32648 0.0
C2519 C 0.1433 0.5967 0.32357 0.0
C2520 C 0.16251 0.63046 0.32042 0.0
C2521 C 0.18461 0.60615 0.32023 0.0
C2522 C 0.09505 0.70245 0.32891 0.0
C2523 C 0.07536 0.67112 0.32583 0.0
C2524 C 0.11695 0.67842 0.32811 0.0
C2525 C 0.11985 0.6224 0.32416 0.0
C2526 C 0.10014 0.59079 0.32111 0.0
C2527 C 0.0781 0.61486 0.32196 0.0
H2528 H 0.48978 0.11351 0.02291 0.0
H2529 H 0.53031 0.96211 0.0315 0.0
H2530 H 0.48585 0.07945 0.0041 0.0
H2531 H 0.52538 0.92669 0.01308 0.0
H2532 H 0.53002 0.90119 0.97609 0.0
H2533 H 0.53561 0.93725 0.99463 0.0
H2534 H 0.467 0.00969 0.99367 0.0
H2535 H 0.46196 0.97602 0.97502 0.0
C2536 C 0.49784 0.07307 0.02079 0.0
C2537 C 0.51039 0.04075 0.02872 0.0
C2538 C 0.49541 0.05309 0.01003 0.0
C2539 C 0.50519 -7e-05 0.007 0.0
C2540 C 0.51792 0.96817 0.01496 0.0
C2541 C 0.52062 0.98848 0.02562 0.0
C2542 C 0.51606 0.92414 0.97992 0.0
C2543 C 0.49554 0.93556 0.97411 0.0
C2544 C 0.51923 0.94497 0.99057 0.0
C2545 C 0.50182 0.97701 0.9957 0.0
C2546 C 0.48104 0.9866 0.98995 0.0
C2547 C 0.47801 0.96653 0.97928 0.0
H2548 H 0.7148 0.28366 0.03057 0.0
H2549 H 0.75879 0.13699 0.02474 0.0
H2550 H 0.72134 0.31999 0.012 0.0
H2551 H 0.76435 0.1718 0.00579 0.0
H2552 H 0.79134 0.27918 0.9772 0.0
H2553 H 0.78392 0.24494 0.99591 0.0
H2554 H 0.71417 0.30915 0.99319 0.0
H2555 H 0.72208 0.34585 0.97458 0.0
C2556 C 0.72555 0.25842 0.02524 0.0
C2557 C 0.73639 0.20743 0.02918 0.0
C2558 C 0.7292 0.27926 0.01452 0.0
C2559 C 0.74351 0.24924 0.00734 0.0
C2560 C 0.75364 0.1969 0.01115 0.0
C2561 C 0.75025 0.17644 0.02197 0.0
C2562 C 0.77452 0.28686 0.98067 0.0
C2563 C 0.75732 0.31546 0.97443 0.0
C2564 C 0.77015 0.26641 0.99136 0.0
C2565 C 0.74831 0.27325 0.99606 0.0
C2566 C 0.73127 0.30344 0.98991 0.0
C2567 C 0.73578 0.32467 0.97924 0.0
H2568 H 0.47569 0.15996 0.22453 0.0
H2569 H 0.54222 0.24287 0.22393 0.0
H2570 H 0.47061 0.18877 0.24354 0.0
H2571 H 0.53776 0.2693 0.24304 0.0
H2572 H 0.51484 0.35841 0.27398 0.0
H2573 H 0.51844 0.33224 0.25467 0.0
H2574 H 0.48232 0.17209 0.26167 0.0
H2575 H 0.47767 0.19961 0.28058 0.0
C2576 C 0.48944 0.18318 0.22854 0.0
C2577 C 0.50937 0.1989 0.22274 0.0
C2578 C 0.48657 0.19983 0.23946 0.0
C2579 C 0.50373 0.23184 0.24489 0.0
C2580 C 0.52392 0.246 0.23912 0.0
C2581 C 0.52663 0.23011 0.22818 0.0
C2582 C 0.50748 0.31801 0.27132 0.0
C2583 C 0.49591 0.28136 0.27883 0.0
C2584 C 0.50971 0.30259 0.26028 0.0
C2585 C 0.50072 0.24977 0.25654 0.0
C2586 C 0.48908 0.21353 0.2641 0.0
C2587 C 0.48656 0.22928 0.27504 0.0
H2588 H 0.77713 0.10461 0.2251 0.0
H2589 H 0.70966 0.02672 0.22632 0.0
H2590 H 0.7854 0.06615 0.24353 0.0
H2591 H 0.71729 0.99102 0.24499 0.0
H2592 H 0.74443 0.88586 0.27429 0.0
H2593 H 0.73758 0.92146 0.25541 0.0
H2594 H 0.77802 0.07391 0.26204 0.0
H2595 H 0.78601 0.03675 0.2804 0.0
C2596 C 0.76384 0.08049 0.22942 0.0
C2597 C 0.74273 0.06887 0.22426 0.0
C2598 C 0.76855 0.05833 0.24003 0.0
C2599 C 0.75208 0.02493 0.24582 0.0
C2600 C 0.73065 0.01519 0.24075 0.0
C2601 C 0.72612 0.03647 0.23008 0.0
C2602 C 0.75211 0.92648 0.27161 0.0
C2603 C 0.76581 0.95823 0.27886 0.0
C2604 C 0.74797 0.94738 0.26083 0.0
C2605 C 0.75713 0.00095 0.25713 0.0
C2606 C 0.771 0.0321 0.26442 0.0
C2607 C 0.77546 0.01079 0.27505 0.0
H2608 H 0.29477 0.76088 0.97579 0.0
H2609 H 0.22717 0.83795 0.97372 0.0
H2610 H 0.28781 0.73122 0.99482 0.0
H2611 H 0.21956 0.8055 0.99257 0.0
H2612 H 0.22025 0.78718 0.02971 0.0
H2613 H 0.22752 0.8189 0.01096 0.0
H2614 H 0.26794 0.66473 0.00596 0.0
H2615 H 0.26181 0.63477 0.02516 0.0
C2616 C 0.27842 0.77172 0.97944 0.0
C2617 C 0.26158 0.80212 0.97327 0.0
C2618 C 0.27427 0.75391 0.99032 0.0
C2619 C 0.253 0.76517 0.99529 0.0
C2620 C 0.2363 0.79662 0.98914 0.0
C2621 C 0.24062 0.81533 0.9783 0.0
C2622 C 0.23065 0.75973 0.02463 0.0
C2623 C 0.24052 0.70838 0.02898 0.0
C2624 C 0.23469 0.77787 0.01378 0.0
C2625 C 0.24835 0.74463 0.00683 0.0
C2626 C 0.25771 0.69224 0.01109 0.0
C2627 C 0.25399 0.67456 0.02207 0.0
H2628 H 0.52768 0.7967 0.7212 0.0
H2629 H 0.49007 0.63834 0.72754 0.0
H2630 H 0.52281 0.82388 0.7401 0.0
H2631 H 0.48633 0.66398 0.74687 0.0
H2632 H 0.46286 0.75229 0.77786 0.0
H2633 H 0.46732 0.72571 0.75874 0.0
H2634 H 0.53425 0.80747 0.75816 0.0
H2635 H 0.5291 0.83661 0.77712 0.0
C2636 C 0.51865 0.76704 0.72669 0.0
C2637 C 0.50925 0.71521 0.72282 0.0
C2638 C 0.516 0.78257 0.73763 0.0
C2639 C 0.50423 0.74627 0.74515 0.0
C2640 C 0.49517 0.6937 0.74132 0.0
C2641 C 0.49749 0.67856 0.73026 0.0
C2642 C 0.4784 0.76526 0.77358 0.0
C2643 C 0.49554 0.79706 0.77897 0.0
C2644 C 0.48111 0.74929 0.76264 0.0
C2645 C 0.50122 0.76389 0.75682 0.0
C2646 C 0.51831 0.79616 0.76224 0.0
C2647 C 0.51541 0.81296 0.77315 0.0
H2648 H 0.20935 0.03086 0.72669 0.0
H2649 H 0.27706 0.10748 0.72562 0.0
H2650 H 0.21724 0.99185 0.74509 0.0
H2651 H 0.28555 0.06579 0.74381 0.0
H2652 H 0.28628 0.02732 0.78065 0.0
H2653 H 0.27857 0.06899 0.76255 0.0
H2654 H 0.23779 0.91912 0.75454 0.0
H2655 H 0.24438 0.87898 0.77309 0.0
C2656 C 0.22591 0.03967 0.73043 0.0
C2657 C 0.24255 0.07246 0.72471 0.0
C2658 C 0.23059 0.01648 0.74094 0.0
C2659 C 0.25219 0.02468 0.74595 0.0
C2660 C 0.26862 0.05892 0.74032 0.0
C2661 C 0.26378 0.08296 0.72986 0.0
C2662 C 0.27574 0.00292 0.77503 0.0
C2663 C 0.26585 0.94981 0.77836 0.0
C2664 C 0.27143 0.02683 0.76456 0.0
C2665 C 0.25744 0.99783 0.75701 0.0
C2666 C 0.24821 0.94352 0.7602 0.0
C2667 C 0.25222 0.92001 0.77079 0.0
H2668 H 0.46003 0.48879 0.47432 0.0
H2669 H 0.52734 0.40988 0.47532 0.0
H2670 H 0.46499 0.51954 0.49318 0.0
H2671 H 0.53294 0.44312 0.49405 0.0
H2672 H 0.52755 0.46093 0.53091 0.0
H2673 H 0.52237 0.42961 0.51227 0.0
H2674 H 0.48385 0.58556 0.50441 0.0
H2675 H 0.48796 0.61545 0.52352 0.0
C2676 C 0.47591 0.47785 0.47861 0.0
C2677 C 0.49322 0.44642 0.47337 0.0
C2678 C 0.4789 0.49623 0.4894 0.0
C2679 C 0.49945 0.48449 0.49521 0.0
C2680 C 0.51669 0.45235 0.48996 0.0
C2681 C 0.51353 0.43314 0.4792 0.0
C2682 C 0.51799 0.48889 0.52524 0.0
C2683 C 0.50813 0.54084 0.52876 0.0
C2684 C 0.51517 0.47095 0.51444 0.0
C2685 C 0.50273 0.50487 0.50671 0.0
C2686 C 0.49322 0.55762 0.51015 0.0
C2687 C 0.49574 0.5752 0.52108 0.0
H2688 H 0.70852 0.71934 0.52639 0.0
H2689 H 0.77684 0.64633 0.52829 0.0
H2690 H 0.7154 0.7519 0.50752 0.0
H2691 H 0.78433 0.68167 0.50959 0.0
H2692 H 0.7407 0.85449 0.47782 0.0
H2693 H 0.73488 0.82151 0.49689 0.0
H2694 H 0.77662 0.67049 0.49107 0.0
H2695 H 0.78355 0.70517 0.47248 0.0
C2696 C 0.72501 0.70996 0.52273 0.0
C2697 C 0.74209 0.67996 0.52881 0.0
C2698 C 0.7291 0.72946 0.51195 0.0
C2699 C 0.75055 0.72032 0.50699 0.0
C2700 C 0.76747 0.68903 0.51302 0.0
C2701 C 0.76322 0.66864 0.52377 0.0
C2702 C 0.74889 0.81479 0.48071 0.0
C2703 C 0.76261 0.78267 0.47362 0.0
C2704 C 0.74535 0.79536 0.4916 0.0
C2705 C 0.75513 0.74289 0.49558 0.0
C2706 C 0.7691 0.71148 0.48847 0.0
C2707 C 0.77295 0.73135 0.4777 0.0
H2708 H 0.72724 0.3984 0.7771 0.0
H2709 H 0.79504 0.47448 0.7761 0.0
H2710 H 0.71888 0.43987 0.7589 0.0
H2711 H 0.78735 0.51305 0.75763 0.0
H2712 H 0.76087 0.62316 0.72904 0.0
H2713 H 0.76742 0.58464 0.74772 0.0
H2714 H 0.72567 0.43546 0.74031 0.0
H2715 H 0.71793 0.47576 0.72214 0.0
C2716 C 0.74057 0.42277 0.77287 0.0
C2717 C 0.7618 0.43307 0.77803 0.0
C2718 C 0.73582 0.44665 0.76239 0.0
C2719 C 0.75236 0.48043 0.75673 0.0
C2720 C 0.77392 0.48872 0.76179 0.0
C2721 C 0.77849 0.46579 0.77233 0.0
C2722 C 0.75281 0.58267 0.73151 0.0
C2723 C 0.73888 0.55269 0.72409 0.0
C2724 C 0.75679 0.56005 0.74217 0.0
C2725 C 0.74726 0.50642 0.74558 0.0
C2726 C 0.73303 0.4772 0.73815 0.0
C2727 C 0.7287 0.5003 0.72763 0.0
H2728 H 0.22344 0.3434 0.47424 0.0
H2729 H 0.29171 0.2701 0.47615 0.0
H2730 H 0.21614 0.30945 0.49305 0.0
H2731 H 0.285 0.2388 0.49511 0.0
H2732 H 0.25972 0.13802 0.52503 0.0
H2733 H 0.26533 0.16978 0.50588 0.0
H2734 H 0.22436 0.32229 0.51154 0.0
H2735 H 0.21767 0.28892 0.53025 0.0
C2736 C 0.23708 0.32132 0.47878 0.0
C2737 C 0.25815 0.30953 0.47373 0.0
C2738 C 0.23293 0.30171 0.48959 0.0
C2739 C 0.24991 0.27074 0.49564 0.0
C2740 C 0.27128 0.26105 0.49066 0.0
C2741 C 0.27527 0.2798 0.47982 0.0
C2742 C 0.25167 0.17783 0.52209 0.0
C2743 C 0.23824 0.21076 0.52917 0.0
C2744 C 0.25508 0.19652 0.51115 0.0
C2745 C 0.24545 0.24901 0.50711 0.0
C2746 C 0.23177 0.28127 0.51421 0.0
C2747 C 0.22805 0.26215 0.52503 0.0
H2748 H 0.29415 0.45986 0.27468 0.0
H2749 H 0.22477 0.39418 0.27685 0.0
H2750 H 0.2861 0.49905 0.25631 0.0
H2751 H 0.21621 0.43597 0.25864 0.0
H2752 H 0.21497 0.47177 0.22159 0.0
H2753 H 0.22226 0.43043 0.23976 0.0
H2754 H 0.26661 0.57483 0.24711 0.0
H2755 H 0.26033 0.6146 0.2285 0.0
C2756 C 0.27717 0.45345 0.27118 0.0
C2757 C 0.26012 0.42369 0.27719 0.0
C2758 C 0.27243 0.47677 0.26069 0.0
C2759 C 0.25037 0.47174 0.25599 0.0
C2760 C 0.23348 0.44037 0.26191 0.0
C2761 C 0.23836 0.41622 0.27236 0.0
C2762 C 0.22618 0.49511 0.22708 0.0
C2763 C 0.23718 0.54647 0.22354 0.0
C2764 C 0.23026 0.47138 0.23759 0.0
C2765 C 0.24516 0.49883 0.24496 0.0
C2766 C 0.25544 0.55161 0.24158 0.0
C2767 C 0.25163 0.57494 0.23096 0.0
H2768 H 0.9734 0.03326 0.47245 0.0
H2769 H 0.01356 0.88067 0.48063 0.0
H2770 H 0.97872 0.0677 0.49089 0.0
H2771 H 0.0178 0.9137 0.49953 0.0
H2772 H 0.04134 0.01482 0.52912 0.0
H2773 H 0.03645 0.98146 0.51043 0.0
H2774 H 0.96838 0.0571 0.50917 0.0
H2775 H 0.97389 0.09295 0.5277 0.0
C2776 C 0.98311 0.00639 0.47826 0.0
C2777 C 0.99307 0.95402 0.47502 0.0
C2778 C 0.98601 0.02613 0.48893 0.0
C2779 C 0.99864 0.99369 0.49683 0.0
C2780 C 0.00828 0.94056 0.49366 0.0
C2781 C 0.00567 0.92116 0.48285 0.0
C2782 C 0.02545 0.02508 0.52477 0.0
C2783 C 0.00807 0.05701 0.52987 0.0
C2784 C 0.0225 0.00518 0.51408 0.0
C2785 C 0.00193 0.01589 0.50821 0.0
C2786 C 0.98464 0.0486 0.51329 0.0
C2787 C 0.98776 0.0693 0.52395 0.0
H2788 H 0.9909 0.1354 0.72929 0.0
H2789 H 0.02804 0.29418 0.72265 0.0
H2790 H 0.98743 0.1614 0.7486 0.0
H2791 H 0.02357 0.32151 0.74162 0.0
H2792 H 0.03005 0.33261 0.77893 0.0
H2793 H 0.03515 0.30477 0.75984 0.0
H2794 H 0.96802 0.22417 0.76019 0.0
H2795 H 0.96351 0.24972 0.77934 0.0
C2796 C 0.9983 0.17579 0.73194 0.0
C2797 C 0.0098 0.21248 0.72442 0.0
C2798 C 0.99613 0.19111 0.743 0.0
C2799 C 0.00512 0.24389 0.74674 0.0
C2800 C 0.01676 0.28015 0.73917 0.0
C2801 C 0.01919 0.2645 0.72821 0.0
C2802 C 0.01631 0.30956 0.77486 0.0
C2803 C 0.99637 0.29355 0.78064 0.0
C2804 C 0.0192 0.29348 0.7639 0.0
C2805 C 0.00207 0.26166 0.75841 0.0
C2806 C 0.98186 0.24729 0.76416 0.0
C2807 C 0.97913 0.26266 0.77513 0.0
H2808 H 0.99244 0.64082 0.22979 0.0
H2809 H 0.03262 0.79389 0.22234 0.0
H2810 H 0.98938 0.67028 0.24891 0.0
H2811 H 0.02866 0.82463 0.24115 0.0
H2812 H 0.0346 0.83953 0.27859 0.0
H2813 H 0.03959 0.8089 0.25964 0.0
H2814 H 0.9707 0.73835 0.25978 0.0
H2815 H 0.9662 0.76681 0.27875 0.0
C2816 C 1.00063 0.68064 0.23223 0.0
C2817 C 0.01279 0.7148 0.22452 0.0
C2818 C 0.9987 0.69797 0.24317 0.0
C2819 C 0.00863 0.75025 0.24663 0.0
C2820 C 0.02106 0.78378 0.23891 0.0
C2821 C 0.02321 0.76617 0.22805 0.0
C2822 C 0.02045 0.81821 0.27449 0.0
C2823 C 1.00001 0.80572 0.28016 0.0
C2824 C 0.02328 0.80047 0.26362 0.0
C2825 C 0.00563 0.7704 0.25814 0.0
C2826 C 0.98492 0.75991 0.26376 0.0
C2827 C 0.98222 0.77699 0.27462 0.0
H2828 H 0.01356 0.38539 0.98078 0.0
H2829 H 0.97574 0.54189 0.97272 0.0
H2830 H 0.01768 0.41675 0.9998 0.0
H2831 H 0.98088 0.57444 0.9913 0.0
H2832 H 0.97495 0.59624 0.02821 0.0
H2833 H 0.96961 0.56231 0.00951 0.0
H2834 H 0.03699 0.48296 0.01092 0.0
H2835 H 0.04174 0.51459 0.02973 0.0
C2836 C 0.00617 0.42638 0.98305 0.0
C2837 C 0.99425 0.46083 0.97522 0.0
C2838 C 0.0087 0.44477 0.99393 0.0
C2839 C 0.99964 0.4984 0.99717 0.0
C2840 C 0.9877 0.53248 0.98928 0.0
C2841 C 0.9849 0.5138 0.97852 0.0
C2842 C 0.98871 0.5722 0.02446 0.0
C2843 C 0.00879 0.55839 0.03044 0.0
C2844 C 0.98568 0.5526 0.01371 0.0
C2845 C 0.00282 0.51942 0.00863 0.0
C2846 C 0.02316 0.50712 0.01458 0.0
C2847 C 0.02603 0.52601 0.02534 0.0
H2848 H 0.56087 0.16687 0.0606 0.0
H2849 H 0.57687 0.00511 0.07767 0.0
H2850 H 0.60057 0.19677 0.06221 0.0
H2851 H 0.61698 0.03605 0.07942 0.0
H2852 H 0.68941 0.08132 0.06643 0.0
H2853 H 0.64955 0.05217 0.06735 0.0
H2854 H 0.63008 0.22668 0.07517 0.0
H2855 H 0.67043 0.25673 0.07404 0.0
C2856 C 0.57282 0.13755 0.06475 0.0
C2857 C 0.56557 0.08313 0.06894 0.0
C2858 C 0.59564 0.15522 0.06577 0.0
C2859 C 0.61197 0.11911 0.071 0.0
C2860 C 0.60482 0.06478 0.07527 0.0
C2861 C 0.58185 0.04699 0.07426 0.0
C2862 C 0.67676 0.11383 0.06839 0.0
C2863 C 0.68322 0.17178 0.07004 0.0
C2864 C 0.65382 0.09671 0.06903 0.0
C2865 C 0.63657 0.13694 0.07133 0.0
C2866 C 0.64297 0.19469 0.07326 0.0
C2867 C 0.66608 0.21193 0.07265 0.0
H2868 H 0.57813 0.26387 0.17672 0.0
H2869 H 0.56061 0.09309 0.18944 0.0
H2870 H 0.61858 0.23465 0.17597 0.0
H2871 H 0.60059 0.0649 0.18888 0.0
H2872 H 0.68969 0.1822 0.18995 0.0
H2873 H 0.64975 0.21135 0.18869 0.0
H2874 H 0.63167 0.04311 0.17657 0.0
H2875 H 0.67192 0.01301 0.17805 0.0
C2876 C 0.58284 0.22034 0.17937 0.0
C2877 C 0.56604 0.18113 0.18318 0.0
C2878 C 0.60601 0.20357 0.17896 0.0
C2879 C 0.61282 0.14727 0.18233 0.0
C2880 C 0.59597 0.10817 0.18604 0.0
C2881 C 0.57296 0.12478 0.18645 0.0
C2882 C 0.6773 0.15111 0.187 0.0
C2883 C 0.68411 0.09486 0.18418 0.0
C2884 C 0.65434 0.16825 0.18617 0.0
C2885 C 0.63747 0.12975 0.1825 0.0
C2886 C 0.64423 0.07368 0.17955 0.0
C2887 C 0.6673 0.0564 0.18038 0.0
H2888 H 0.4438 0.82115 0.94143 0.0
H2889 H 0.42602 0.98758 0.92666 0.0
H2890 H 0.40397 0.79134 0.94044 0.0
H2891 H 0.38583 0.95677 0.92546 0.0
H2892 H 0.31428 0.90755 0.93845 0.0
H2893 H 0.35417 0.93666 0.93771 0.0
H2894 H 0.37332 0.76483 0.92799 0.0
H2895 H 0.33298 0.73477 0.92894 0.0
C2896 C 0.43143 0.85152 0.93791 0.0
C2897 C 0.43823 0.90718 0.93419 0.0
C2898 C 0.40852 0.83396 0.93724 0.0
C2899 C 0.39164 0.87141 0.93284 0.0
C2900 C 0.39837 0.92697 0.92902 0.0
C2901 C 0.42141 0.94467 0.92968 0.0
C2902 C 0.32687 0.8756 0.93613 0.0
C2903 C 0.32028 0.81842 0.93382 0.0
C2904 C 0.34984 0.89271 0.93561 0.0
C2905 C 0.36702 0.85332 0.93275 0.0
C2906 C 0.36053 0.7962 0.93033 0.0
C2907 C 0.3374 0.77894 0.93085 0.0
H2908 H 0.4442 0.90736 0.81285 0.0
H2909 H 0.42752 0.73657 0.82583 0.0
H2910 H 0.40418 0.93523 0.81388 0.0
H2911 H 0.3871 0.76537 0.82703 0.0
H2912 H 0.31568 0.81604 0.81311 0.0
H2913 H 0.3557 0.7879 0.81432 0.0
H2914 H 0.37319 0.95625 0.82655 0.0
H2915 H 0.33275 0.98536 0.82516 0.0
C2916 C 0.43203 0.87561 0.81599 0.0
C2917 C 0.43918 0.81932 0.81918 0.0
C2918 C 0.40902 0.89203 0.81668 0.0
C2919 C 0.39241 0.85274 0.82057 0.0
C2920 C 0.39948 0.79657 0.82389 0.0
C2921 C 0.42263 0.78005 0.82322 0.0
C2922 C 0.32793 0.84739 0.81608 0.0
C2923 C 0.32089 0.9034 0.81894 0.0
C2924 C 0.35095 0.8308 0.81688 0.0
C2925 C 0.36769 0.86964 0.82055 0.0
C2926 C 0.36072 0.92543 0.82358 0.0
C2927 C 0.33755 0.94211 0.82281 0.0
H2928 H 0.67107 0.74653 0.57272 0.0
H2929 H 0.69037 0.57249 0.56428 0.0
H2930 H 0.63078 0.71618 0.57357 0.0
H2931 H 0.65048 0.54305 0.56491 0.0
H2932 H 0.57805 0.49428 0.57584 0.0
H2933 H 0.6183 0.5247 0.577 0.0
H2934 H 0.60079 0.68777 0.56091 0.0
H2935 H 0.56093 0.65836 0.55993 0.0
C2936 C 0.66679 0.702 0.57104 0.0
C2937 C 0.68405 0.66227 0.56837 0.0
C2938 C 0.64369 0.68458 0.57149 0.0
C2939 C 0.63737 0.62706 0.56931 0.0
C2940 C 0.65469 0.58736 0.5668 0.0
C2941 C 0.67765 0.60464 0.56634 0.0
C2942 C 0.58282 0.53653 0.57254 0.0
C2943 C 0.56616 0.57358 0.56777 0.0
C2944 C 0.60589 0.55402 0.5732 0.0
C2945 C 0.61278 0.60891 0.5691 0.0
C2946 C 0.59609 0.64574 0.56434 0.0
C2947 C 0.57316 0.6284 0.56368 0.0
H2948 H 0.5781 0.76987 0.67666 0.0
H2949 H 0.56009 0.59991 0.68961 0.0
H2950 H 0.61833 0.73917 0.67556 0.0
H2951 H 0.59987 0.57019 0.68868 0.0
H2952 H 0.6707 0.51582 0.67745 0.0
H2953 H 0.63055 0.54733 0.67607 0.0
H2954 H 0.64969 0.71486 0.68816 0.0
H2955 H 0.68944 0.68435 0.68935 0.0
C2956 C 0.58265 0.72622 0.67929 0.0
C2957 C 0.56577 0.68769 0.68327 0.0
C2958 C 0.6057 0.70858 0.67868 0.0
C2959 C 0.61232 0.65204 0.682 0.0
C2960 C 0.59539 0.61362 0.68587 0.0
C2961 C 0.5725 0.63112 0.68651 0.0
C2962 C 0.66633 0.55939 0.67977 0.0
C2963 C 0.68337 0.59717 0.68359 0.0
C2964 C 0.64332 0.57746 0.679 0.0
C2965 C 0.63689 0.63373 0.682 0.0
C2966 C 0.65402 0.67163 0.68562 0.0
C2967 C 0.67688 0.65367 0.68641 0.0
H2968 H 0.44037 0.3343 0.44207 0.0
H2969 H 0.42225 0.49904 0.42668 0.0
H2970 H 0.40056 0.30432 0.4414 0.0
H2971 H 0.382 0.46803 0.42585 0.0
H2972 H 0.31041 0.41767 0.43888 0.0
H2973 H 0.3502 0.44804 0.43813 0.0
H2974 H 0.37027 0.27605 0.42892 0.0
H2975 H 0.33009 0.24478 0.42988 0.0
C2976 C 0.42792 0.3643 0.43849 0.0
C2977 C 0.43465 0.41945 0.43446 0.0
C2978 C 0.40501 0.34663 0.43802 0.0
C2979 C 0.38804 0.38343 0.4335 0.0
C2980 C 0.39464 0.4387 0.42947 0.0
C2981 C 0.4177 0.45653 0.42993 0.0
C2982 C 0.3232 0.38596 0.43669 0.0
C2983 C 0.31692 0.32839 0.43452 0.0
C2984 C 0.3461 0.40378 0.43616 0.0
C2985 C 0.36349 0.36469 0.43344 0.0
C2986 C 0.3573 0.3072 0.43116 0.0
C2987 C 0.33427 0.28924 0.43168 0.0
H2988 H 0.42686 0.22642 0.32444 0.0
H2989 H 0.44479 0.39588 0.31121 0.0
H2990 H 0.38636 0.25604 0.32483 0.0
H2991 H 0.40488 0.42439 0.31143 0.0
H2992 H 0.33393 0.4794 0.32216 0.0
H2993 H 0.37401 0.44811 0.32363 0.0
H2994 H 0.35495 0.27934 0.31212 0.0
H2995 H 0.31509 0.30979 0.31085 0.0
C2996 C 0.42224 0.2697 0.3216 0.0
C2997 C 0.43921 0.30846 0.31778 0.0
C2998 C 0.39904 0.2867 0.3218 0.0
C2999 C 0.39236 0.34283 0.31822 0.0
C3000 C 0.40937 0.38132 0.31445 0.0
C3001 C 0.43237 0.36449 0.31423 0.0
C3002 C 0.33829 0.43567 0.31993 0.0
C3003 C 0.3212 0.39746 0.31631 0.0
C3004 C 0.36128 0.41767 0.32076 0.0
C3005 C 0.36774 0.36108 0.31799 0.0
C3006 C 0.35061 0.32285 0.31448 0.0
C3007 C 0.3277 0.34073 0.31365 0.0
H3008 H 0.05817 0.17562 0.564 0.0
H3009 H 0.0773 0.00511 0.57641 0.0
H3010 H 0.09792 0.20593 0.56478 0.0
H3011 H 0.1175 0.03641 0.57737 0.0
H3012 H 0.18753 0.09132 0.56316 0.0
H3013 H 0.14782 0.06131 0.56451 0.0
H3014 H 0.12964 0.22844 0.577 0.0
H3015 H 0.1698 0.25948 0.57546 0.0
C3016 C 0.07082 0.14444 0.56697 0.0
C3017 C 0.06442 0.08748 0.57005 0.0
C3018 C 0.0937 0.16227 0.56751 0.0
C3019 C 0.11095 0.1238 0.57116 0.0
C3020 C 0.10463 0.06702 0.57441 0.0
C3021 C 0.0816 0.04906 0.57389 0.0
C3022 C 0.1752 0.12206 0.56621 0.0
C3023 C 0.18198 0.17825 0.56913 0.0
C3024 C 0.15235 0.10437 0.5671 0.0
C3025 C 0.13551 0.14219 0.57092 0.0
C3026 C 0.14219 0.19832 0.57393 0.0
C3027 C 0.1652 0.21616 0.57306 0.0
H3028 H 0.1894 0.18807 0.68969 0.0
H3029 H 0.17159 0.0158 0.67942 0.0
H3030 H 0.14932 0.21624 0.68863 0.0
H3031 H 0.13117 0.04486 0.67816 0.0
H3032 H 0.06072 0.09657 0.69166 0.0
H3033 H 0.10076 0.06902 0.69078 0.0
H3034 H 0.11733 0.23583 0.67609 0.0
H3035 H 0.07684 0.2644 0.67713 0.0
C3036 C 0.17697 0.15607 0.68714 0.0
C3037 C 0.18382 0.09927 0.68474 0.0
C3038 C 0.15393 0.17263 0.68643 0.0
C3039 C 0.137 0.13298 0.6833 0.0
C3040 C 0.14378 0.07635 0.68072 0.0
C3041 C 0.16695 0.05968 0.68142 0.0
C3042 C 0.07277 0.12775 0.68822 0.0
C3043 C 0.06544 0.1831 0.68452 0.0
C3044 C 0.0958 0.11148 0.68762 0.0
C3045 C 0.11228 0.14995 0.68332 0.0
C3046 C 0.10506 0.20527 0.67954 0.0
C3047 C 0.08186 0.22166 0.68012 0.0
H3048 H 0.94105 0.83036 0.44423 0.0
H3049 H 0.92348 0.99039 0.42695 0.0
H3050 H 0.90162 0.79794 0.44271 0.0
H3051 H 0.88369 0.95695 0.42526 0.0
H3052 H 0.81134 0.90745 0.43726 0.0
H3053 H 0.85092 0.93889 0.43693 0.0
H3054 H 0.87263 0.76516 0.42979 0.0
H3055 H 0.83249 0.73274 0.43034 0.0
C3056 C 0.92881 0.85881 0.44007 0.0
C3057 C 0.93556 0.91341 0.43576 0.0
C3058 C 0.90614 0.83969 0.43909 0.0
C3059 C 0.88945 0.87447 0.4338 0.0
C3060 C 0.89609 0.92916 0.42948 0.0
C3061 C 0.91889 0.94843 0.43045 0.0
C3062 C 0.82441 0.87552 0.43559 0.0
C3063 C 0.81858 0.81713 0.43393 0.0
C3064 C 0.84722 0.89398 0.43529 0.0
C3065 C 0.86503 0.85477 0.43332 0.0
C3066 C 0.85932 0.79646 0.43145 0.0
C3067 C 0.83632 0.77784 0.43172 0.0
H3068 H 0.94909 0.91498 0.31414 0.0
H3069 H 0.92867 0.74276 0.32485 0.0
H3070 H 0.90939 0.94635 0.31446 0.0
H3071 H 0.8886 0.77503 0.32537 0.0
H3072 H 0.81895 0.83452 0.31124 0.0
H3073 H 0.85864 0.80368 0.31245 0.0
H3074 H 0.87737 0.96731 0.32638 0.0
H3075 H 0.83723 -0.00082 0.32501 0.0
C3076 C 0.93616 0.88363 0.31663 0.0
C3077 C 0.9422 0.82593 0.31939 0.0
C3078 C 0.91332 0.90203 0.31691 0.0
C3079 C 0.89574 0.86341 0.31996 0.0
C3080 C 0.9017 0.80583 0.32286 0.0
C3081 C 0.92468 0.78729 0.32259 0.0
C3082 C 0.8314 0.86433 0.31458 0.0
C3083 C 0.82475 0.91972 0.31799 0.0
C3084 C 0.85425 0.84616 0.31536 0.0
C3085 C 0.87124 0.88268 0.31958 0.0
C3086 C 0.86472 0.93817 0.32301 0.0
C3087 C 0.84172 0.95649 0.32223 0.0
H3088 H 0.18829 0.59189 0.06231 0.0
H3089 H 0.17061 0.75826 0.07544 0.0
H3090 H 0.14863 0.56125 0.0638 0.0
H3091 H 0.13059 0.72663 0.07712 0.0
H3092 H 0.05879 0.67511 0.06469 0.0
H3093 H 0.09855 0.70532 0.06511 0.0
H3094 H 0.11873 0.53458 0.07681 0.0
H3095 H 0.07848 0.50335 0.07619 0.0
C3096 C 0.17598 0.62209 0.06557 0.0
C3097 C 0.18275 0.67795 0.06869 0.0
C3098 C 0.15318 0.60404 0.06653 0.0
C3099 C 0.1364 0.64121 0.07063 0.0
C3100 C 0.14308 0.69703 0.07382 0.0
C3101 C 0.16601 0.71522 0.07287 0.0
C3102 C 0.07157 0.64362 0.06738 0.0
C3103 C 0.06531 0.58638 0.07032 0.0
C3104 C 0.09446 0.66139 0.06772 0.0
C3105 C 0.11188 0.62258 0.07101 0.0
C3106 C 0.10572 0.56547 0.07412 0.0
C3107 C 0.08266 0.54756 0.0738 0.0
H3108 H 0.07707 0.75918 0.17576 0.0
H3109 H 0.06116 0.59363 0.1913 0.0
H3110 H 0.11716 0.72848 0.1739 0.0
H3111 H 0.1008 0.56399 0.18961 0.0
H3112 H 0.17049 0.50658 0.17778 0.0
H3113 H 0.1302 0.53724 0.17654 0.0
H3114 H 0.14973 0.70925 0.18609 0.0
H3115 H 0.18956 0.67953 0.18713 0.0
C3116 C 0.08205 0.7165 0.17879 0.0
C3117 C 0.06582 0.67925 0.18374 0.0
C3118 C 0.10501 0.69885 0.17773 0.0
C3119 C 0.11216 0.64358 0.18157 0.0
C3120 C 0.09585 0.60634 0.18638 0.0
C3121 C 0.07307 0.62386 0.18746 0.0
C3122 C 0.16617 0.55097 0.17953 0.0
C3123 C 0.18331 0.59021 0.18267 0.0
C3124 C 0.1431 0.56856 0.17886 0.0
C3125 C 0.13674 0.62577 0.18124 0.0
C3126 C 0.15399 0.66518 0.18406 0.0
C3127 C 0.1769 0.64771 0.18476 0.0
H3128 H 0.81127 0.42484 0.93959 0.0
H3129 H 0.83131 0.25078 0.93154 0.0
H3130 H 0.85114 0.45498 0.93916 0.0
H3131 H 0.87154 0.28176 0.93092 0.0
H3132 H 0.94084 0.34085 0.94478 0.0
H3133 H 0.90099 0.31153 0.94384 0.0
H3134 H 0.88369 0.47285 0.92706 0.0
H3135 H 0.92401 0.50319 0.92813 0.0
C3136 C 0.82415 0.39283 0.93768 0.0
C3137 C 0.81797 0.33501 0.93569 0.0
C3138 C 0.84708 0.4105 0.93733 0.0
C3139 C 0.86458 0.37097 0.935 0.0
C3140 C 0.85848 0.31324 0.93287 0.0
C3141 C 0.83542 0.29545 0.9332 0.0
C3142 C 0.92867 0.37049 0.94088 0.0
C3143 C 0.93577 0.42472 0.93655 0.0
C3144 C 0.90574 0.35318 0.94026 0.0
C3145 C 0.88913 0.38946 0.93529 0.0
C3146 C 0.89607 0.44394 0.931 0.0
C3147 C 0.91917 0.46138 0.93161 0.0
H3148 H 0.92589 0.22933 0.82568 0.0
H3149 H 0.94462 0.40155 0.81421 0.0
H3150 H 0.88552 0.25927 0.82612 0.0
H3151 H 0.90466 0.43057 0.81447 0.0
H3152 H 0.83257 0.48108 0.82496 0.0
H3153 H 0.87281 0.4507 0.82656 0.0
H3154 H 0.85518 0.28517 0.81309 0.0
H3155 H 0.81529 0.31458 0.81169 0.0
C3156 C 0.92146 0.27336 0.82324 0.0
C3157 C 0.93859 0.31273 0.81985 0.0
C3158 C 0.89833 0.29054 0.82347 0.0
C3159 C 0.89184 0.34745 0.82035 0.0
C3160 C 0.90901 0.38676 0.81709 0.0
C3161 C 0.93201 0.36972 0.81685 0.0
C3162 C 0.8373 0.43824 0.82235 0.0
C3163 C 0.82062 0.40059 0.81815 0.0
C3164 C 0.86036 0.4208 0.82325 0.0
C3165 C 0.86722 0.36534 0.81998 0.0
C3166 C 0.85049 0.32773 0.81586 0.0
C3167 C 0.82756 0.34504 0.81496 0.0
loop_
_geom_bond_atom_site_label_1
_geom_bond_atom_site_label_2
_geom_bond_distance
_geom_bond_site_symmetry_2
_ccdc_geom_bond_type
Co0 O2 2.143 1_545 S
Co0 O8 2.074 . S
Co0 O11 2.093 . S
Co0 O24 2.097 . S
Co0 N41 2.151 . S
Co0 N49 2.214 . S
Co1 O2 2.160 . S
Co1 O7 2.058 1_565 S
Co1 O17 2.057 . S
Co1 O32 2.037 . S
Co1 N36 2.145 . S
Co1 N57 2.257 . S
O2 Co0 2.143 1_565 S
O2 Co1 2.160 . S
C3 O4 1.278 1_545 S
C3 O11 1.224 . S
O4 C3 1.278 1_565 S
C5 O6 1.245 . S
C5 O17 1.232 . S
O6 C5 1.245 . S
O7 Co1 2.058 1_545 S
O7 C33 1.269 . S
O8 Co0 2.074 . S
O8 C33 1.257 . S
H9 C34 0.930 . S
H10 C40 0.930 . S
O11 Co0 2.093 . S
O11 C3 1.224 . S
H12 C44 0.929 . S
H13 C46 0.930 . S
H14 C47 0.930 . S
H15 C45 0.929 . S
H16 C48 0.928 . S
O17 Co1 2.057 . S
O17 C5 1.232 . S
H18 C37 0.929 . S
H19 C38 0.929 . S
H20 C50 0.931 . S
H21 C42 0.929 . S
H22 C51 0.930 . S
H23 C43 0.931 . S
O24 Co0 2.097 . S
O24 C52 1.214 . S
H25 C53 0.929 . S
H26 C54 0.929 . S
H27 C55 0.930 . S
H28 C56 0.929 . S
H29 C58 0.930 . S
H30 C35 0.930 . S
H31 C39 0.930 . S
O32 Co1 2.037 . S
O32 C52 1.234 1_565 S
C33 O7 1.269 . S
C33 O8 1.257 . S
C34 H9 0.930 . S
C34 C37 1.388 . S
C34 C39 1.418 . S
C35 H30 0.930 . S
C35 C38 1.404 . S
C35 C39 1.353 . S
N36 Co1 2.145 . S
N36 C37 1.397 . S
N36 C38 1.334 . S
C37 H18 0.929 . S
C37 C34 1.388 . S
C37 N36 1.397 . S
C38 H19 0.929 . S
C38 C35 1.404 . S
C38 N36 1.334 . S
C39 H31 0.930 . S
C39 C34 1.418 . S
C39 C35 1.353 . S
C40 H10 0.930 . S
C40 N41 1.330 . S
C40 C42 1.446 . S
N41 Co0 2.151 . S
N41 C40 1.330 . S
N41 C45 1.418 . S
C42 H21 0.929 . S
C42 C40 1.446 . S
C42 C43 1.332 . S
C43 H23 0.931 . S
C43 C42 1.332 . S
C43 C44 1.267 . S
C44 H12 0.929 . S
C44 C43 1.267 . S
C44 C45 1.251 . S
C45 H15 0.929 . S
C45 N41 1.418 . S
C45 C44 1.251 . S
C46 H13 0.930 . S
C46 C48 1.406 . S
C46 C51 1.261 . S
C47 H14 0.930 . S
C47 N49 1.325 . S
C47 C50 1.357 . S
C48 H16 0.928 . S
C48 C46 1.406 . S
C48 N49 1.261 . S
N49 Co0 2.214 . S
N49 C47 1.325 . S
N49 C48 1.261 . S
C50 H20 0.931 . S
C50 C47 1.357 . S
C50 C51 1.312 . S
C51 H22 0.930 . S
C51 C46 1.261 . S
C51 C50 1.312 . S
C52 O24 1.214 . S
C52 O32 1.234 1_545 S
C53 H25 0.929 . S
C53 C56 1.391 . S
C53 C58 1.391 . S
C54 H26 0.929 . S
C54 C55 1.390 . S
C54 N57 1.391 . S
C55 H27 0.930 . S
C55 C54 1.390 . S
C55 C56 1.392 . S
C56 H28 0.929 . S
C56 C53 1.391 . S
C56 C55 1.392 . S
N57 Co1 2.257 . S
N57 C54 1.391 . S
N57 C58 1.388 . S
C58 H29 0.930 . S
C58 C53 1.391 . S
C58 N57 1.388 . S
Co59 O61 2.143 . S
Co59 O67 2.074 . S
Co59 O70 2.093 . S
Co59 O83 2.097 . S
Co59 N100 2.151 . S
Co59 N108 2.214 . S
Co60 O61 2.160 . S
Co60 O66 2.058 . S
Co60 O76 2.057 . S
Co60 O91 2.037 . S
Co60 N95 2.145 . S
Co60 N116 2.257 . S
O61 Co59 2.143 . S
O61 Co60 2.160 . S
C62 O63 1.278 . S
C62 O70 1.224 . S
O63 C62 1.278 . S
C64 O65 1.245 . S
C64 O76 1.232 . S
O65 C64 1.245 . S
O66 Co60 2.058 . S
O66 C92 1.269 . S
O67 Co59 2.074 . S
O67 C92 1.257 . S
H68 C93 0.930 . S
H69 C99 0.930 . S
O70 Co59 2.093 . S
O70 C62 1.224 . S
H71 C103 0.929 . S
H72 C105 0.930 1_565 S
H73 C106 0.930 . S
H74 C104 0.929 . S
H75 C107 0.928 . S
O76 Co60 2.057 . S
O76 C64 1.232 . S
H77 C96 0.929 . S
H78 C97 0.929 . S
H79 C109 0.931 . S
H80 C101 0.929 . S
H81 C110 0.930 1_565 S
H82 C102 0.931 . S
O83 Co59 2.097 . S
O83 C111 1.214 . S
H84 C112 0.929 . S
H85 C113 0.929 . S
H86 C114 0.930 . S
H87 C115 0.929 . S
H88 C117 0.930 . S
H89 C94 0.930 . S
H90 C98 0.930 . S
O91 Co60 2.037 . S
O91 C111 1.234 . S
C92 O66 1.269 . S
C92 O67 1.257 . S
C93 H68 0.930 . S
C93 C96 1.388 . S
C93 C98 1.418 . S
C94 H89 0.930 . S
C94 C97 1.404 . S
C94 C98 1.353 . S
N95 Co60 2.145 . S
N95 C96 1.397 . S
N95 C97 1.334 . S
C96 H77 0.929 . S
C96 C93 1.388 . S
C96 N95 1.397 . S
C97 H78 0.929 . S
C97 C94 1.404 . S
C97 N95 1.334 . S
C98 H90 0.930 . S
C98 C93 1.418 . S
C98 C94 1.353 . S
C99 H69 0.930 . S
C99 N100 1.330 . S
C99 C101 1.446 . S
N100 Co59 2.151 . S
N100 C99 1.330 . S
N100 C104 1.418 . S
C101 H80 0.929 . S
C101 C99 1.446 . S
C101 C102 1.332 . S
C102 H82 0.931 . S
C102 C101 1.332 . S
C102 C103 1.267 . S
C103 H71 0.929 . S
C103 C102 1.267 . S
C103 C104 1.251 . S
C104 H74 0.929 . S
C104 N100 1.418 . S
C104 C103 1.251 . S
C105 H72 0.930 1_545 S
C105 C107 1.406 . S
C105 C110 1.261 . S
C106 H73 0.930 . S
C106 N108 1.325 . S
C106 C109 1.357 . S
C107 H75 0.928 . S
C107 C105 1.406 . S
C107 N108 1.261 . S
N108 Co59 2.214 . S
N108 C106 1.325 . S
N108 C107 1.261 . S
C109 H79 0.931 . S
C109 C106 1.357 . S
C109 C110 1.312 . S
C110 H81 0.930 1_545 S
C110 C105 1.261 . S
C110 C109 1.312 . S
C111 O83 1.214 . S
C111 O91 1.234 . S
C112 H84 0.929 . S
C112 C115 1.391 . S
C112 C117 1.391 . S
C113 H85 0.929 . S
C113 C114 1.390 . S
C113 N116 1.391 . S
C114 H86 0.930 . S
C114 C113 1.390 . S
C114 C115 1.392 . S
C115 H87 0.929 . S
C115 C112 1.391 . S
C115 C114 1.392 . S
N116 Co60 2.257 . S
N116 C113 1.391 . S
N116 C117 1.388 . S
C117 H88 0.930 . S
C117 C112 1.391 . S
C117 N116 1.388 . S
Co118 O120 2.143 . S
Co118 O126 2.074 . S
Co118 O129 2.093 . S
Co118 O142 2.097 . S
Co118 N159 2.151 . S
Co118 N167 2.214 . S
Co119 O120 2.160 . S
Co119 O125 2.058 . S
Co119 O135 2.057 . S
Co119 O150 2.037 . S
Co119 N154 2.145 . S
Co119 N175 2.257 . S
O120 Co118 2.143 . S
O120 Co119 2.160 . S
C121 O122 1.278 . S
C121 O129 1.224 . S
O122 C121 1.278 . S
C123 O124 1.245 . S
C123 O135 1.232 . S
O124 C123 1.245 . S
O125 Co119 2.058 . S
O125 C151 1.269 . S
O126 Co118 2.074 . S
O126 C151 1.257 . S
H127 C152 0.930 . S
H128 C158 0.930 . S
O129 Co118 2.093 . S
O129 C121 1.224 . S
H130 C162 0.929 . S
H131 C164 0.930 1_565 S
H132 C165 0.930 . S
H133 C163 0.929 . S
H134 C166 0.928 . S
O135 Co119 2.057 . S
O135 C123 1.232 . S
H136 C155 0.929 . S
H137 C156 0.929 . S
H138 C168 0.931 . S
H139 C160 0.929 . S
H140 C169 0.930 1_565 S
H141 C161 0.931 . S
O142 Co118 2.097 . S
O142 C170 1.214 . S
H143 C171 0.929 . S
H144 C172 0.929 . S
H145 C173 0.930 . S
H146 C174 0.929 . S
H147 C176 0.930 . S
H148 C153 0.930 . S
H149 C157 0.930 . S
O150 Co119 2.037 . S
O150 C170 1.234 . S
C151 O125 1.269 . S
C151 O126 1.257 . S
C152 H127 0.930 . S
C152 C155 1.388 . S
C152 C157 1.418 . S
C153 H148 0.930 . S
C153 C156 1.404 . S
C153 C157 1.353 . S
N154 Co119 2.145 . S
N154 C155 1.397 . S
N154 C156 1.334 . S
C155 H136 0.929 . S
C155 C152 1.388 . S
C155 N154 1.397 . S
C156 H137 0.929 . S
C156 C153 1.404 . S
C156 N154 1.334 . S
C157 H149 0.930 . S
C157 C152 1.418 . S
C157 C153 1.353 . S
C158 H128 0.930 . S
C158 N159 1.330 . S
C158 C160 1.446 . S
N159 Co118 2.151 . S
N159 C158 1.330 . S
N159 C163 1.418 . S
C160 H139 0.929 . S
C160 C158 1.446 . S
C160 C161 1.332 . S
C161 H141 0.931 . S
C161 C160 1.332 . S
C161 C162 1.267 . S
C162 H130 0.929 . S
C162 C161 1.267 . S
C162 C163 1.251 . S
C163 H133 0.929 . S
C163 N159 1.418 . S
C163 C162 1.251 . S
C164 H131 0.930 1_545 S
C164 C166 1.406 . S
C164 C169 1.261 . S
C165 H132 0.930 . S
C165 N167 1.325 . S
C165 C168 1.357 . S
C166 H134 0.928 . S
C166 C164 1.406 . S
C166 N167 1.261 . S
N167 Co118 2.214 . S
N167 C165 1.325 . S
N167 C166 1.261 . S
C168 H138 0.931 . S
C168 C165 1.357 . S
C168 C169 1.312 . S
C169 H140 0.930 1_545 S
C169 C164 1.261 . S
C169 C168 1.312 . S
C170 O142 1.214 . S
C170 O150 1.234 . S
C171 H143 0.929 . S
C171 C174 1.391 . S
C171 C176 1.391 . S
C172 H144 0.929 . S
C172 C173 1.390 . S
C172 N175 1.391 . S
C173 H145 0.930 . S
C173 C172 1.390 . S
C173 C174 1.392 . S
C174 H146 0.929 . S
C174 C171 1.391 . S
C174 C173 1.392 . S
N175 Co119 2.257 . S
N175 C172 1.391 . S
N175 C176 1.388 . S
C176 H147 0.930 . S
C176 C171 1.391 . S
C176 N175 1.388 . S
Co177 O179 2.143 1_545 S
Co177 O185 2.074 . S
Co177 O188 2.093 . S
Co177 O201 2.097 . S
Co177 N218 2.151 . S
Co177 N226 2.214 . S
Co178 O179 2.160 . S
Co178 O184 2.058 1_565 S
Co178 O194 2.057 . S
Co178 O209 2.037 . S
Co178 N213 2.145 . S
Co178 N234 2.257 . S
O179 Co177 2.143 1_565 S
O179 Co178 2.160 . S
C180 O181 1.278 1_545 S
C180 O188 1.224 . S
O181 C180 1.278 1_565 S
C182 O183 1.245 . S
C182 O194 1.232 . S
O183 C182 1.245 . S
O184 Co178 2.058 1_545 S
O184 C210 1.269 . S
O185 Co177 2.074 . S
O185 C210 1.257 . S
H186 C211 0.930 . S
H187 C217 0.930 . S
O188 Co177 2.093 . S
O188 C180 1.224 . S
H189 C221 0.929 . S
H190 C223 0.930 . S
H191 C224 0.930 . S
H192 C222 0.929 . S
H193 C225 0.928 . S
O194 Co178 2.057 . S
O194 C182 1.232 . S
H195 C214 0.929 . S
H196 C215 0.929 . S
H197 C227 0.931 . S
H198 C219 0.929 . S
H199 C228 0.930 . S
H200 C220 0.931 . S
O201 Co177 2.097 . S
O201 C229 1.214 . S
H202 C230 0.929 . S
H203 C231 0.929 . S
H204 C232 0.930 . S
H205 C233 0.929 . S
H206 C235 0.930 . S
H207 C212 0.930 . S
H208 C216 0.930 . S
O209 Co178 2.037 . S
O209 C229 1.234 1_565 S
C210 O184 1.269 . S
C210 O185 1.257 . S
C211 H186 0.930 . S
C211 C214 1.388 . S
C211 C216 1.418 . S
C212 H207 0.930 . S
C212 C215 1.404 . S
C212 C216 1.353 . S
N213 Co178 2.145 . S
N213 C214 1.397 . S
N213 C215 1.334 . S
C214 H195 0.929 . S
C214 C211 1.388 . S
C214 N213 1.397 . S
C215 H196 0.929 . S
C215 C212 1.404 . S
C215 N213 1.334 . S
C216 H208 0.930 . S
C216 C211 1.418 . S
C216 C212 1.353 . S
C217 H187 0.930 . S
C217 N218 1.330 . S
C217 C219 1.446 . S
N218 Co177 2.151 . S
N218 C217 1.330 . S
N218 C222 1.418 . S
C219 H198 0.929 . S
C219 C217 1.446 . S
C219 C220 1.332 . S
C220 H200 0.931 . S
C220 C219 1.332 . S
C220 C221 1.267 . S
C221 H189 0.929 . S
C221 C220 1.267 . S
C221 C222 1.251 . S
C222 H192 0.929 . S
C222 N218 1.418 . S
C222 C221 1.251 . S
C223 H190 0.930 . S
C223 C225 1.406 . S
C223 C228 1.261 . S
C224 H191 0.930 . S
C224 N226 1.325 . S
C224 C227 1.357 . S
C225 H193 0.928 . S
C225 C223 1.406 . S
C225 N226 1.261 . S
N226 Co177 2.214 . S
N226 C224 1.325 . S
N226 C225 1.261 . S
C227 H197 0.931 . S
C227 C224 1.357 . S
C227 C228 1.312 . S
C228 H199 0.930 . S
C228 C223 1.261 . S
C228 C227 1.312 . S
C229 O201 1.214 . S
C229 O209 1.234 1_545 S
C230 H202 0.929 . S
C230 C233 1.391 . S
C230 C235 1.391 . S
C231 H203 0.929 . S
C231 C232 1.390 . S
C231 N234 1.391 . S
C232 H204 0.930 . S
C232 C231 1.390 . S
C232 C233 1.392 . S
C233 H205 0.929 . S
C233 C230 1.391 . S
C233 C232 1.392 . S
N234 Co178 2.257 . S
N234 C231 1.391 . S
N234 C235 1.388 . S
C235 H206 0.930 . S
C235 C230 1.391 . S
C235 N234 1.388 . S
Co236 O238 2.143 1_565 S
Co236 O244 2.074 . S
Co236 O247 2.093 . S
Co236 O260 2.097 . S
Co236 N277 2.151 . S
Co236 N285 2.214 . S
Co237 O238 2.160 . S
Co237 O243 2.058 1_545 S
Co237 O253 2.057 . S
Co237 O268 2.037 . S
Co237 N272 2.145 . S
Co237 N293 2.257 . S
O238 Co236 2.143 1_545 S
O238 Co237 2.160 . S
C239 O240 1.278 1_565 S
C239 O247 1.224 . S
O240 C239 1.278 1_545 S
C241 O242 1.245 . S
C241 O253 1.232 . S
O242 C241 1.245 . S
O243 Co237 2.058 1_565 S
O243 C269 1.269 . S
O244 Co236 2.074 . S
O244 C269 1.257 . S
H245 C270 0.930 . S
H246 C276 0.930 . S
O247 Co236 2.093 . S
O247 C239 1.224 . S
H248 C280 0.929 . S
H249 C282 0.930 . S
H250 C283 0.930 . S
H251 C281 0.929 . S
H252 C284 0.928 . S
O253 Co237 2.057 . S
O253 C241 1.232 . S
H254 C273 0.929 . S
H255 C274 0.929 . S
H256 C286 0.931 . S
H257 C278 0.929 . S
H258 C287 0.930 . S
H259 C279 0.931 . S
O260 Co236 2.097 . S
O260 C288 1.214 . S
H261 C289 0.929 . S
H262 C290 0.929 . S
H263 C291 0.930 . S
H264 C292 0.929 . S
H265 C294 0.930 . S
H266 C271 0.930 . S
H267 C275 0.930 . S
O268 Co237 2.037 . S
O268 C288 1.234 1_545 S
C269 O243 1.269 . S
C269 O244 1.257 . S
C270 H245 0.930 . S
C270 C273 1.388 . S
C270 C275 1.418 . S
C271 H266 0.930 . S
C271 C274 1.404 . S
C271 C275 1.353 . S
N272 Co237 2.145 . S
N272 C273 1.397 . S
N272 C274 1.334 . S
C273 H254 0.929 . S
C273 C270 1.388 . S
C273 N272 1.397 . S
C274 H255 0.929 . S
C274 C271 1.404 . S
C274 N272 1.334 . S
C275 H267 0.930 . S
C275 C270 1.418 . S
C275 C271 1.353 . S
C276 H246 0.930 . S
C276 N277 1.330 . S
C276 C278 1.446 . S
N277 Co236 2.151 . S
N277 C276 1.330 . S
N277 C281 1.418 . S
C278 H257 0.929 . S
C278 C276 1.446 . S
C278 C279 1.332 . S
C279 H259 0.931 . S
C279 C278 1.332 . S
C279 C280 1.267 . S
C280 H248 0.929 . S
C280 C279 1.267 . S
C280 C281 1.251 . S
C281 H251 0.929 . S
C281 N277 1.418 . S
C281 C280 1.251 . S
C282 H249 0.930 . S
C282 C284 1.406 . S
C282 C287 1.261 . S
C283 H250 0.930 . S
C283 N285 1.325 . S
C283 C286 1.357 . S
C284 H252 0.928 . S
C284 C282 1.406 . S
C284 N285 1.261 . S
N285 Co236 2.214 . S
N285 C283 1.325 . S
N285 C284 1.261 . S
C286 H256 0.931 . S
C286 C283 1.357 . S
C286 C287 1.312 . S
C287 H258 0.930 . S
C287 C282 1.261 . S
C287 C286 1.312 . S
C288 O260 1.214 . S
C288 O268 1.234 1_565 S
C289 H261 0.929 . S
C289 C292 1.391 . S
C289 C294 1.391 . S
C290 H262 0.929 . S
C290 C291 1.390 . S
C290 N293 1.391 . S
C291 H263 0.930 . S
C291 C290 1.390 . S
C291 C292 1.392 . S
C292 H264 0.929 . S
C292 C289 1.391 . S
C292 C291 1.392 . S
N293 Co237 2.257 . S
N293 C290 1.391 . S
N293 C294 1.388 . S
C294 H265 0.930 . S
C294 C289 1.391 . S
C294 N293 1.388 . S
Co295 O297 2.143 . S
Co295 O303 2.074 . S
Co295 O306 2.093 . S
Co295 O319 2.097 . S
Co295 N336 2.151 . S
Co295 N344 2.214 . S
Co296 O297 2.160 . S
Co296 O302 2.058 . S
Co296 O312 2.057 . S
Co296 O327 2.037 . S
Co296 N331 2.145 . S
Co296 N352 2.257 . S
O297 Co295 2.143 . S
O297 Co296 2.160 . S
C298 O299 1.278 . S
C298 O306 1.224 . S
O299 C298 1.278 . S
C300 O301 1.245 . S
C300 O312 1.232 . S
O301 C300 1.245 . S
O302 Co296 2.058 . S
O302 C328 1.269 . S
O303 Co295 2.074 . S
O303 C328 1.257 . S
H304 C329 0.930 . S
H305 C335 0.930 . S
O306 Co295 2.093 . S
O306 C298 1.224 . S
H307 C339 0.929 . S
H308 C341 0.930 1_545 S
H309 C342 0.930 . S
H310 C340 0.929 . S
H311 C343 0.928 . S
O312 Co296 2.057 . S
O312 C300 1.232 . S
H313 C332 0.929 . S
H314 C333 0.929 . S
H315 C345 0.931 . S
H316 C337 0.929 . S
H317 C346 0.930 1_545 S
H318 C338 0.931 . S
O319 Co295 2.097 . S
O319 C347 1.214 . S
H320 C348 0.929 . S
H321 C349 0.929 . S
H322 C350 0.930 . S
H323 C351 0.929 . S
H324 C353 0.930 . S
H325 C330 0.930 . S
H326 C334 0.930 . S
O327 Co296 2.037 . S
O327 C347 1.234 . S
C328 O302 1.269 . S
C328 O303 1.257 . S
C329 H304 0.930 . S
C329 C332 1.388 . S
C329 C334 1.418 . S
C330 H325 0.930 . S
C330 C333 1.404 . S
C330 C334 1.353 . S
N331 Co296 2.145 . S
N331 C332 1.397 . S
N331 C333 1.334 . S
C332 H313 0.929 . S
C332 C329 1.388 . S
C332 N331 1.397 . S
C333 H314 0.929 . S
C333 C330 1.404 . S
C333 N331 1.334 . S
C334 H326 0.930 . S
C334 C329 1.418 . S
C334 C330 1.353 . S
C335 H305 0.930 . S
C335 N336 1.330 . S
C335 C337 1.446 . S
N336 Co295 2.151 . S
N336 C335 1.330 . S
N336 C340 1.418 . S
C337 H316 0.929 . S
C337 C335 1.446 . S
C337 C338 1.332 . S
C338 H318 0.931 . S
C338 C337 1.332 . S
C338 C339 1.267 . S
C339 H307 0.929 . S
C339 C338 1.267 . S
C339 C340 1.251 . S
C340 H310 0.929 . S
C340 N336 1.418 . S
C340 C339 1.251 . S
C341 H308 0.930 1_565 S
C341 C343 1.406 . S
C341 C346 1.261 . S
C342 H309 0.930 . S
C342 N344 1.325 . S
C342 C345 1.357 . S
C343 H311 0.928 . S
C343 C341 1.406 . S
C343 N344 1.261 . S
N344 Co295 2.214 . S
N344 C342 1.325 . S
N344 C343 1.261 . S
C345 H315 0.931 . S
C345 C342 1.357 . S
C345 C346 1.312 . S
C346 H317 0.930 1_565 S
C346 C341 1.261 . S
C346 C345 1.312 . S
C347 O319 1.214 . S
C347 O327 1.234 . S
C348 H320 0.929 . S
C348 C351 1.391 . S
C348 C353 1.391 . S
C349 H321 0.929 . S
C349 C350 1.390 . S
C349 N352 1.391 . S
C350 H322 0.930 . S
C350 C349 1.390 . S
C350 C351 1.392 . S
C351 H323 0.929 . S
C351 C348 1.391 . S
C351 C350 1.392 . S
N352 Co296 2.257 . S
N352 C349 1.391 . S
N352 C353 1.388 . S
C353 H324 0.930 . S
C353 C348 1.391 . S
C353 N352 1.388 . S
Co354 O356 2.143 . S
Co354 O362 2.074 . S
Co354 O365 2.093 . S
Co354 O378 2.097 . S
Co354 N395 2.151 . S
Co354 N403 2.214 . S
Co355 O356 2.160 . S
Co355 O361 2.058 . S
Co355 O371 2.057 . S
Co355 O386 2.037 . S
Co355 N390 2.145 . S
Co355 N411 2.257 . S
O356 Co354 2.143 . S
O356 Co355 2.160 . S
C357 O358 1.278 . S
C357 O365 1.224 . S
O358 C357 1.278 . S
C359 O360 1.245 . S
C359 O371 1.232 . S
O360 C359 1.245 . S
O361 Co355 2.058 . S
O361 C387 1.269 . S
O362 Co354 2.074 . S
O362 C387 1.257 . S
H363 C388 0.930 . S
H364 C394 0.930 . S
O365 Co354 2.093 . S
O365 C357 1.224 . S
H366 C398 0.929 . S
H367 C400 0.930 1_545 S
H368 C401 0.930 . S
H369 C399 0.929 . S
H370 C402 0.928 . S
O371 Co355 2.057 . S
O371 C359 1.232 . S
H372 C391 0.929 . S
H373 C392 0.929 . S
H374 C404 0.931 . S
H375 C396 0.929 . S
H376 C405 0.930 1_545 S
H377 C397 0.931 . S
O378 Co354 2.097 . S
O378 C406 1.214 . S
H379 C407 0.929 . S
H380 C408 0.929 . S
H381 C409 0.930 . S
H382 C410 0.929 . S
H383 C412 0.930 . S
H384 C389 0.930 . S
H385 C393 0.930 . S
O386 Co355 2.037 . S
O386 C406 1.234 . S
C387 O361 1.269 . S
C387 O362 1.257 . S
C388 H363 0.930 . S
C388 C391 1.388 . S
C388 C393 1.418 . S
C389 H384 0.930 . S
C389 C392 1.404 . S
C389 C393 1.353 . S
N390 Co355 2.145 . S
N390 C391 1.397 . S
N390 C392 1.334 . S
C391 H372 0.929 . S
C391 C388 1.388 . S
C391 N390 1.397 . S
C392 H373 0.929 . S
C392 C389 1.404 . S
C392 N390 1.334 . S
C393 H385 0.930 . S
C393 C388 1.418 . S
C393 C389 1.353 . S
C394 H364 0.930 . S
C394 N395 1.330 . S
C394 C396 1.446 . S
N395 Co354 2.151 . S
N395 C394 1.330 . S
N395 C399 1.418 . S
C396 H375 0.929 . S
C396 C394 1.446 . S
C396 C397 1.332 . S
C397 H377 0.931 . S
C397 C396 1.332 . S
C397 C398 1.267 . S
C398 H366 0.929 . S
C398 C397 1.267 . S
C398 C399 1.251 . S
C399 H369 0.929 . S
C399 N395 1.418 . S
C399 C398 1.251 . S
C400 H367 0.930 1_565 S
C400 C402 1.406 . S
C400 C405 1.261 . S
C401 H368 0.930 . S
C401 N403 1.325 . S
C401 C404 1.357 . S
C402 H370 0.928 . S
C402 C400 1.406 . S
C402 N403 1.261 . S
N403 Co354 2.214 . S
N403 C401 1.325 . S
N403 C402 1.261 . S
C404 H374 0.931 . S
C404 C401 1.357 . S
C404 C405 1.312 . S
C405 H376 0.930 1_565 S
C405 C400 1.261 . S
C405 C404 1.312 . S
C406 O378 1.214 . S
C406 O386 1.234 . S
C407 H379 0.929 . S
C407 C410 1.391 . S
C407 C412 1.391 . S
C408 H380 0.929 . S
C408 C409 1.390 . S
C408 N411 1.391 . S
C409 H381 0.930 . S
C409 C408 1.390 . S
C409 C410 1.392 . S
C410 H382 0.929 . S
C410 C407 1.391 . S
C410 C409 1.392 . S
N411 Co355 2.257 . S
N411 C408 1.391 . S
N411 C412 1.388 . S
C412 H383 0.930 . S
C412 C407 1.391 . S
C412 N411 1.388 . S
Co413 O415 2.143 1_565 S
Co413 O421 2.074 . S
Co413 O424 2.093 . S
Co413 O437 2.097 . S
Co413 N454 2.151 . S
Co413 N462 2.214 . S
Co414 O415 2.160 . S
Co414 O420 2.058 1_545 S
Co414 O430 2.057 . S
Co414 O445 2.037 . S
Co414 N449 2.145 . S
Co414 N470 2.257 . S
O415 Co413 2.143 1_545 S
O415 Co414 2.160 . S
C416 O417 1.278 1_565 S
C416 O424 1.224 . S
O417 C416 1.278 1_545 S
C418 O419 1.245 . S
C418 O430 1.232 . S
O419 C418 1.245 . S
O420 Co414 2.058 1_565 S
O420 C446 1.269 . S
O421 Co413 2.074 . S
O421 C446 1.257 . S
H422 C447 0.930 . S
H423 C453 0.930 . S
O424 Co413 2.093 . S
O424 C416 1.224 . S
H425 C457 0.929 . S
H426 C459 0.930 . S
H427 C460 0.930 . S
H428 C458 0.929 . S
H429 C461 0.928 . S
O430 Co414 2.057 . S
O430 C418 1.232 . S
H431 C450 0.929 . S
H432 C451 0.929 . S
H433 C463 0.931 . S
H434 C455 0.929 . S
H435 C464 0.930 . S
H436 C456 0.931 . S
O437 Co413 2.097 . S
O437 C465 1.214 . S
H438 C466 0.929 . S
H439 C467 0.929 . S
H440 C468 0.930 . S
H441 C469 0.929 . S
H442 C471 0.930 . S
H443 C448 0.930 . S
H444 C452 0.930 . S
O445 Co414 2.037 . S
O445 C465 1.234 1_545 S
C446 O420 1.269 . S
C446 O421 1.257 . S
C447 H422 0.930 . S
C447 C450 1.388 . S
C447 C452 1.418 . S
C448 H443 0.930 . S
C448 C451 1.404 . S
C448 C452 1.353 . S
N449 Co414 2.145 . S
N449 C450 1.397 . S
N449 C451 1.334 . S
C450 H431 0.929 . S
C450 C447 1.388 . S
C450 N449 1.397 . S
C451 H432 0.929 . S
C451 C448 1.404 . S
C451 N449 1.334 . S
C452 H444 0.930 . S
C452 C447 1.418 . S
C452 C448 1.353 . S
C453 H423 0.930 . S
C453 N454 1.330 . S
C453 C455 1.446 . S
N454 Co413 2.151 . S
N454 C453 1.330 . S
N454 C458 1.418 . S
C455 H434 0.929 . S
C455 C453 1.446 . S
C455 C456 1.332 . S
C456 H436 0.931 . S
C456 C455 1.332 . S
C456 C457 1.267 . S
C457 H425 0.929 . S
C457 C456 1.267 . S
C457 C458 1.251 . S
C458 H428 0.929 . S
C458 N454 1.418 . S
C458 C457 1.251 . S
C459 H426 0.930 . S
C459 C461 1.406 . S
C459 C464 1.261 . S
C460 H427 0.930 . S
C460 N462 1.325 . S
C460 C463 1.357 . S
C461 H429 0.928 . S
C461 C459 1.406 . S
C461 N462 1.261 . S
N462 Co413 2.214 . S
N462 C460 1.325 . S
N462 C461 1.261 . S
C463 H433 0.931 . S
C463 C460 1.357 . S
C463 C464 1.312 . S
C464 H435 0.930 . S
C464 C459 1.261 . S
C464 C463 1.312 . S
C465 O437 1.214 . S
C465 O445 1.234 1_565 S
C466 H438 0.929 . S
C466 C469 1.391 . S
C466 C471 1.391 . S
C467 H439 0.929 . S
C467 C468 1.390 . S
C467 N470 1.391 . S
C468 H440 0.930 . S
C468 C467 1.390 . S
C468 C469 1.392 . S
C469 H441 0.929 . S
C469 C466 1.391 . S
C469 C468 1.392 . S
N470 Co414 2.257 . S
N470 C467 1.391 . S
N470 C471 1.388 . S
C471 H442 0.930 . S
C471 C466 1.391 . S
C471 N470 1.388 . S
Co472 O474 2.143 . S
Co472 O480 2.074 . S
Co472 O483 2.093 . S
Co472 O496 2.097 . S
Co472 N513 2.151 . S
Co472 N521 2.214 . S
Co473 O474 2.160 . S
Co473 O479 2.058 . S
Co473 O489 2.057 . S
Co473 O504 2.037 . S
Co473 N508 2.145 . S
Co473 N529 2.257 . S
O474 Co472 2.143 . S
O474 Co473 2.160 . S
C475 O476 1.278 . S
C475 O483 1.224 . S
O476 C475 1.278 . S
C477 O478 1.245 . S
C477 O489 1.232 . S
O478 C477 1.245 . S
O479 Co473 2.058 . S
O479 C505 1.269 . S
O480 Co472 2.074 . S
O480 C505 1.257 . S
H481 C506 0.930 . S
H482 C512 0.930 . S
O483 Co472 2.093 . S
O483 C475 1.224 . S
H484 C516 0.929 . S
H485 C518 0.930 . S
H486 C519 0.930 . S
H487 C517 0.929 . S
H488 C520 0.928 . S
O489 Co473 2.057 . S
O489 C477 1.232 . S
H490 C509 0.929 . S
H491 C510 0.929 . S
H492 C522 0.931 . S
H493 C514 0.929 . S
H494 C523 0.930 . S
H495 C515 0.931 . S
O496 Co472 2.097 . S
O496 C524 1.214 . S
H497 C525 0.929 . S
H498 C526 0.929 . S
H499 C527 0.930 . S
H500 C528 0.929 . S
H501 C530 0.930 . S
H502 C507 0.930 . S
H503 C511 0.930 . S
O504 Co473 2.037 . S
O504 C524 1.234 . S
C505 O479 1.269 . S
C505 O480 1.257 . S
C506 H481 0.930 . S
C506 C509 1.388 . S
C506 C511 1.418 . S
C507 H502 0.930 . S
C507 C510 1.404 . S
C507 C511 1.353 . S
N508 Co473 2.145 . S
N508 C509 1.397 . S
N508 C510 1.334 . S
C509 H490 0.929 . S
C509 C506 1.388 . S
C509 N508 1.397 . S
C510 H491 0.929 . S
C510 C507 1.404 . S
C510 N508 1.334 . S
C511 H503 0.930 . S
C511 C506 1.418 . S
C511 C507 1.353 . S
C512 H482 0.930 . S
C512 N513 1.330 . S
C512 C514 1.446 . S
N513 Co472 2.151 . S
N513 C512 1.330 . S
N513 C517 1.418 . S
C514 H493 0.929 . S
C514 C512 1.446 . S
C514 C515 1.332 . S
C515 H495 0.931 . S
C515 C514 1.332 . S
C515 C516 1.267 . S
C516 H484 0.929 . S
C516 C515 1.267 . S
C516 C517 1.251 . S
C517 H487 0.929 . S
C517 N513 1.418 . S
C517 C516 1.251 . S
C518 H485 0.930 . S
C518 C520 1.406 . S
C518 C523 1.261 . S
C519 H486 0.930 . S
C519 N521 1.325 . S
C519 C522 1.357 . S
C520 H488 0.928 . S
C520 C518 1.406 . S
C520 N521 1.261 . S
N521 Co472 2.214 . S
N521 C519 1.325 . S
N521 C520 1.261 . S
C522 H492 0.931 . S
C522 C519 1.357 . S
C522 C523 1.312 . S
C523 H494 0.930 . S
C523 C518 1.261 . S
C523 C522 1.312 . S
C524 O496 1.214 . S
C524 O504 1.234 . S
C525 H497 0.929 . S
C525 C528 1.391 . S
C525 C530 1.391 . S
C526 H498 0.929 . S
C526 C527 1.390 . S
C526 N529 1.391 . S
C527 H499 0.930 . S
C527 C526 1.390 . S
C527 C528 1.392 . S
C528 H500 0.929 . S
C528 C525 1.391 . S
C528 C527 1.392 . S
N529 Co473 2.257 . S
N529 C526 1.391 . S
N529 C530 1.388 . S
C530 H501 0.930 . S
C530 C525 1.391 . S
C530 N529 1.388 . S
Co531 O533 2.143 . S
Co531 O539 2.074 . S
Co531 O542 2.093 . S
Co531 O555 2.097 . S
Co531 N572 2.151 . S
Co531 N580 2.214 . S
Co532 O533 2.160 . S
Co532 O538 2.058 . S
Co532 O548 2.057 . S
Co532 O563 2.037 . S
Co532 N567 2.145 . S
Co532 N588 2.257 . S
O533 Co531 2.143 . S
O533 Co532 2.160 . S
C534 O535 1.278 . S
C534 O542 1.224 . S
O535 C534 1.278 . S
C536 O537 1.245 . S
C536 O548 1.232 . S
O537 C536 1.245 . S
O538 Co532 2.058 . S
O538 C564 1.269 . S
O539 Co531 2.074 . S
O539 C564 1.257 . S
H540 C565 0.930 . S
H541 C571 0.930 . S
O542 Co531 2.093 . S
O542 C534 1.224 . S
H543 C575 0.929 . S
H544 C577 0.930 . S
H545 C578 0.930 . S
H546 C576 0.929 . S
H547 C579 0.928 . S
O548 Co532 2.057 . S
O548 C536 1.232 . S
H549 C568 0.929 . S
H550 C569 0.929 . S
H551 C581 0.931 . S
H552 C573 0.929 . S
H553 C582 0.930 . S
H554 C574 0.931 . S
O555 Co531 2.097 . S
O555 C583 1.214 . S
H556 C584 0.929 . S
H557 C585 0.929 . S
H558 C586 0.930 . S
H559 C587 0.929 . S
H560 C589 0.930 . S
H561 C566 0.930 1_545 S
H562 C570 0.930 . S
O563 Co532 2.037 . S
O563 C583 1.234 . S
C564 O538 1.269 . S
C564 O539 1.257 . S
C565 H540 0.930 . S
C565 C568 1.388 . S
C565 C570 1.418 . S
C566 H561 0.930 1_565 S
C566 C569 1.404 . S
C566 C570 1.353 . S
N567 Co532 2.145 . S
N567 C568 1.397 . S
N567 C569 1.334 . S
C568 H549 0.929 . S
C568 C565 1.388 . S
C568 N567 1.397 . S
C569 H550 0.929 . S
C569 C566 1.404 . S
C569 N567 1.334 . S
C570 H562 0.930 . S
C570 C565 1.418 . S
C570 C566 1.353 . S
C571 H541 0.930 . S
C571 N572 1.330 . S
C571 C573 1.446 . S
N572 Co531 2.151 . S
N572 C571 1.330 . S
N572 C576 1.418 . S
C573 H552 0.929 . S
C573 C571 1.446 . S
C573 C574 1.332 . S
C574 H554 0.931 . S
C574 C573 1.332 . S
C574 C575 1.267 . S
C575 H543 0.929 . S
C575 C574 1.267 . S
C575 C576 1.251 . S
C576 H546 0.929 . S
C576 N572 1.418 . S
C576 C575 1.251 . S
C577 H544 0.930 . S
C577 C579 1.406 . S
C577 C582 1.261 . S
C578 H545 0.930 . S
C578 N580 1.325 . S
C578 C581 1.357 . S
C579 H547 0.928 . S
C579 C577 1.406 . S
C579 N580 1.261 . S
N580 Co531 2.214 . S
N580 C578 1.325 . S
N580 C579 1.261 . S
C581 H551 0.931 . S
C581 C578 1.357 . S
C581 C582 1.312 . S
C582 H553 0.930 . S
C582 C577 1.261 . S
C582 C581 1.312 . S
C583 O555 1.214 . S
C583 O563 1.234 . S
C584 H556 0.929 . S
C584 C587 1.391 . S
C584 C589 1.391 . S
C585 H557 0.929 . S
C585 C586 1.390 . S
C585 N588 1.391 . S
C586 H558 0.930 . S
C586 C585 1.390 . S
C586 C587 1.392 . S
C587 H559 0.929 . S
C587 C584 1.391 . S
C587 C586 1.392 . S
N588 Co532 2.257 . S
N588 C585 1.391 . S
N588 C589 1.388 . S
C589 H560 0.930 . S
C589 C584 1.391 . S
C589 N588 1.388 . S
Co590 O592 2.143 . S
Co590 O598 2.074 . S
Co590 O601 2.093 . S
Co590 O614 2.097 . S
Co590 N631 2.151 . S
Co590 N639 2.214 . S
Co591 O592 2.160 . S
Co591 O597 2.058 . S
Co591 O607 2.057 . S
Co591 O622 2.037 . S
Co591 N626 2.145 . S
Co591 N647 2.257 . S
O592 Co590 2.143 . S
O592 Co591 2.160 . S
C593 O594 1.278 . S
C593 O601 1.224 . S
O594 C593 1.278 . S
C595 O596 1.245 . S
C595 O607 1.232 . S
O596 C595 1.245 . S
O597 Co591 2.058 . S
O597 C623 1.269 . S
O598 Co590 2.074 . S
O598 C623 1.257 . S
H599 C624 0.930 . S
H600 C630 0.930 . S
O601 Co590 2.093 . S
O601 C593 1.224 . S
H602 C634 0.929 . S
H603 C636 0.930 . S
H604 C637 0.930 . S
H605 C635 0.929 . S
H606 C638 0.928 . S
O607 Co591 2.057 . S
O607 C595 1.232 . S
H608 C627 0.929 . S
H609 C628 0.929 . S
H610 C640 0.931 . S
H611 C632 0.929 . S
H612 C641 0.930 . S
H613 C633 0.931 . S
O614 Co590 2.097 . S
O614 C642 1.214 . S
H615 C643 0.929 . S
H616 C644 0.929 . S
H617 C645 0.930 . S
H618 C646 0.929 1_545 S
H619 C648 0.930 . S
H620 C625 0.930 1_545 S
H621 C629 0.933 . S
O622 Co591 2.037 . S
O622 C642 1.234 . S
C623 O597 1.269 . S
C623 O598 1.257 . S
C624 H599 0.930 . S
C624 C627 1.388 . S
C624 C629 1.418 . S
C625 H620 0.930 1_565 S
C625 C628 1.404 . S
C625 C629 1.353 . S
N626 Co591 2.145 . S
N626 C627 1.397 . S
N626 C628 1.334 . S
C627 H608 0.929 . S
C627 C624 1.388 . S
C627 N626 1.397 . S
C628 H609 0.929 . S
C628 C625 1.404 . S
C628 N626 1.334 . S
C629 H621 0.933 . S
C629 C624 1.418 . S
C629 C625 1.353 . S
C630 H600 0.930 . S
C630 N631 1.330 . S
C630 C632 1.446 . S
N631 Co590 2.151 . S
N631 C630 1.330 . S
N631 C635 1.418 . S
C632 H611 0.929 . S
C632 C630 1.446 . S
C632 C633 1.332 . S
C633 H613 0.931 . S
C633 C632 1.332 . S
C633 C634 1.267 . S
C634 H602 0.929 . S
C634 C633 1.267 . S
C634 C635 1.251 . S
C635 H605 0.929 . S
C635 N631 1.418 . S
C635 C634 1.251 . S
C636 H603 0.930 . S
C636 C638 1.406 . S
C636 C641 1.261 . S
C637 H604 0.930 . S
C637 N639 1.325 . S
C637 C640 1.357 . S
C638 H606 0.928 . S
C638 C636 1.406 . S
C638 N639 1.261 . S
N639 Co590 2.214 . S
N639 C637 1.325 . S
N639 C638 1.261 . S
C640 H610 0.931 . S
C640 C637 1.357 . S
C640 C641 1.312 . S
C641 H612 0.930 . S
C641 C636 1.261 . S
C641 C640 1.312 . S
C642 O614 1.214 . S
C642 O622 1.234 . S
C643 H615 0.929 . S
C643 C646 1.391 . S
C643 C648 1.391 . S
C644 H616 0.929 . S
C644 C645 1.390 . S
C644 N647 1.391 . S
C645 H617 0.930 . S
C645 C644 1.390 . S
C645 C646 1.392 . S
C646 H618 0.929 1_565 S
C646 C643 1.391 . S
C646 C645 1.392 . S
N647 Co591 2.257 . S
N647 C644 1.391 . S
N647 C648 1.388 . S
C648 H619 0.930 . S
C648 C643 1.391 . S
C648 N647 1.388 . S
Co649 O651 2.143 . S
Co649 O657 2.074 . S
Co649 O660 2.093 . S
Co649 O673 2.097 . S
Co649 N690 2.151 . S
Co649 N698 2.214 . S
Co650 O651 2.160 . S
Co650 O656 2.058 . S
Co650 O666 2.057 . S
Co650 O681 2.037 . S
Co650 N685 2.145 . S
Co650 N706 2.257 . S
O651 Co649 2.143 . S
O651 Co650 2.160 . S
C652 O653 1.278 . S
C652 O660 1.224 . S
O653 C652 1.278 . S
C654 O655 1.245 . S
C654 O666 1.232 . S
O655 C654 1.245 . S
O656 Co650 2.058 . S
O656 C682 1.269 . S
O657 Co649 2.074 . S
O657 C682 1.257 . S
H658 C683 0.930 . S
H659 C689 0.930 . S
O660 Co649 2.093 . S
O660 C652 1.224 . S
H661 C693 0.929 . S
H662 C695 0.930 . S
H663 C696 0.930 . S
H664 C694 0.929 . S
H665 C697 0.928 . S
O666 Co650 2.057 . S
O666 C654 1.232 . S
H667 C686 0.929 . S
H668 C687 0.929 . S
H669 C699 0.931 . S
H670 C691 0.929 . S
H671 C700 0.930 . S
H672 C692 0.931 . S
O673 Co649 2.097 . S
O673 C701 1.214 . S
H674 C702 0.929 . S
H675 C703 0.929 . S
H676 C704 0.930 . S
H677 C705 0.929 . S
H678 C707 0.930 . S
H679 C684 0.930 . S
H680 C688 0.930 . S
O681 Co650 2.037 . S
O681 C701 1.234 . S
C682 O656 1.269 . S
C682 O657 1.257 . S
C683 H658 0.930 . S
C683 C686 1.388 . S
C683 C688 1.418 . S
C684 H679 0.930 . S
C684 C687 1.404 . S
C684 C688 1.353 . S
N685 Co650 2.145 . S
N685 C686 1.397 . S
N685 C687 1.334 . S
C686 H667 0.929 . S
C686 C683 1.388 . S
C686 N685 1.397 . S
C687 H668 0.929 . S
C687 C684 1.404 . S
C687 N685 1.334 . S
C688 H680 0.930 . S
C688 C683 1.418 . S
C688 C684 1.353 . S
C689 H659 0.930 . S
C689 N690 1.330 . S
C689 C691 1.446 . S
N690 Co649 2.151 . S
N690 C689 1.330 . S
N690 C694 1.418 . S
C691 H670 0.929 . S
C691 C689 1.446 . S
C691 C692 1.332 . S
C692 H672 0.931 . S
C692 C691 1.332 . S
C692 C693 1.267 . S
C693 H661 0.929 . S
C693 C692 1.267 . S
C693 C694 1.251 . S
C694 H664 0.929 . S
C694 N690 1.418 . S
C694 C693 1.251 . S
C695 H662 0.930 . S
C695 C697 1.406 . S
C695 C700 1.261 . S
C696 H663 0.930 . S
C696 N698 1.325 . S
C696 C699 1.357 . S
C697 H665 0.928 . S
C697 C695 1.406 . S
C697 N698 1.261 . S
N698 Co649 2.214 . S
N698 C696 1.325 . S
N698 C697 1.261 . S
C699 H669 0.931 . S
C699 C696 1.357 . S
C699 C700 1.312 . S
C700 H671 0.930 . S
C700 C695 1.261 . S
C700 C699 1.312 . S
C701 O673 1.214 . S
C701 O681 1.234 . S
C702 H674 0.929 . S
C702 C705 1.391 . S
C702 C707 1.391 . S
C703 H675 0.929 . S
C703 C704 1.390 . S
C703 N706 1.391 . S
C704 H676 0.930 . S
C704 C703 1.390 . S
C704 C705 1.392 . S
C705 H677 0.929 . S
C705 C702 1.391 . S
C705 C704 1.392 . S
N706 Co650 2.257 . S
N706 C703 1.391 . S
N706 C707 1.388 . S
C707 H678 0.930 . S
C707 C702 1.391 . S
C707 N706 1.388 . S
Co708 O710 2.143 . S
Co708 O716 2.074 . S
Co708 O719 2.093 . S
Co708 O732 2.097 . S
Co708 N749 2.151 . S
Co708 N757 2.214 . S
Co709 O710 2.160 . S
Co709 O715 2.058 . S
Co709 O725 2.057 . S
Co709 O740 2.037 . S
Co709 N744 2.145 . S
Co709 N765 2.257 . S
O710 Co708 2.143 . S
O710 Co709 2.160 . S
C711 O712 1.278 . S
C711 O719 1.224 . S
O712 C711 1.278 . S
C713 O714 1.245 . S
C713 O725 1.232 . S
O714 C713 1.245 . S
O715 Co709 2.058 . S
O715 C741 1.269 . S
O716 Co708 2.074 . S
O716 C741 1.257 . S
H717 C742 0.930 . S
H718 C748 0.930 . S
O719 Co708 2.093 . S
O719 C711 1.224 . S
H720 C752 0.929 . S
H721 C754 0.930 . S
H722 C755 0.930 . S
H723 C753 0.929 . S
H724 C756 0.928 . S
O725 Co709 2.057 . S
O725 C713 1.232 . S
H726 C745 0.929 . S
H727 C746 0.929 . S
H728 C758 0.931 . S
H729 C750 0.929 . S
H730 C759 0.930 . S
H731 C751 0.931 . S
O732 Co708 2.097 . S
O732 C760 1.214 . S
H733 C761 0.929 . S
H734 C762 0.929 . S
H735 C763 0.930 . S
H736 C764 0.929 . S
H737 C766 0.930 . S
H738 C743 0.930 . S
H739 C747 0.930 . S
O740 Co709 2.037 . S
O740 C760 1.234 . S
C741 O715 1.269 . S
C741 O716 1.257 . S
C742 H717 0.930 . S
C742 C745 1.388 . S
C742 C747 1.418 . S
C743 H738 0.930 . S
C743 C746 1.404 . S
C743 C747 1.353 . S
N744 Co709 2.145 . S
N744 C745 1.397 . S
N744 C746 1.334 . S
C745 H726 0.929 . S
C745 C742 1.388 . S
C745 N744 1.397 . S
C746 H727 0.929 . S
C746 C743 1.404 . S
C746 N744 1.334 . S
C747 H739 0.930 . S
C747 C742 1.418 . S
C747 C743 1.353 . S
C748 H718 0.930 . S
C748 N749 1.330 . S
C748 C750 1.446 . S
N749 Co708 2.151 . S
N749 C748 1.330 . S
N749 C753 1.418 . S
C750 H729 0.929 . S
C750 C748 1.446 . S
C750 C751 1.332 . S
C751 H731 0.931 . S
C751 C750 1.332 . S
C751 C752 1.267 . S
C752 H720 0.929 . S
C752 C751 1.267 . S
C752 C753 1.251 . S
C753 H723 0.929 . S
C753 N749 1.418 . S
C753 C752 1.251 . S
C754 H721 0.930 . S
C754 C756 1.406 . S
C754 C759 1.261 . S
C755 H722 0.930 . S
C755 N757 1.325 . S
C755 C758 1.357 . S
C756 H724 0.928 . S
C756 C754 1.406 . S
C756 N757 1.261 . S
N757 Co708 2.214 . S
N757 C755 1.325 . S
N757 C756 1.261 . S
C758 H728 0.931 . S
C758 C755 1.357 . S
C758 C759 1.312 . S
C759 H730 0.930 . S
C759 C754 1.261 . S
C759 C758 1.312 . S
C760 O732 1.214 . S
C760 O740 1.234 . S
C761 H733 0.929 . S
C761 C764 1.391 . S
C761 C766 1.391 . S
C762 H734 0.929 . S
C762 C763 1.390 . S
C762 N765 1.391 . S
C763 H735 0.930 . S
C763 C762 1.390 . S
C763 C764 1.392 . S
C764 H736 0.929 . S
C764 C761 1.391 . S
C764 C763 1.392 . S
N765 Co709 2.257 . S
N765 C762 1.391 . S
N765 C766 1.388 . S
C766 H737 0.930 . S
C766 C761 1.391 . S
C766 N765 1.388 . S
Co767 O769 2.143 . S
Co767 O775 2.074 . S
Co767 O778 2.093 . S
Co767 O791 2.097 . S
Co767 N808 2.151 . S
Co767 N816 2.214 . S
Co768 O769 2.160 . S
Co768 O774 2.058 . S
Co768 O784 2.057 . S
Co768 O799 2.037 . S
Co768 N803 2.145 . S
Co768 N824 2.257 . S
O769 Co767 2.143 . S
O769 Co768 2.160 . S
C770 O771 1.278 . S
C770 O778 1.224 . S
O771 C770 1.278 . S
C772 O773 1.245 . S
C772 O784 1.232 . S
O773 C772 1.245 . S
O774 Co768 2.058 . S
O774 C800 1.269 . S
O775 Co767 2.074 . S
O775 C800 1.257 . S
H776 C801 0.930 . S
H777 C807 0.930 . S
O778 Co767 2.093 . S
O778 C770 1.224 . S
H779 C811 0.929 . S
H780 C813 0.930 . S
H781 C814 0.930 . S
H782 C812 0.929 . S
H783 C815 0.928 . S
O784 Co768 2.057 . S
O784 C772 1.232 . S
H785 C804 0.929 . S
H786 C805 0.929 . S
H787 C817 0.931 . S
H788 C809 0.929 . S
H789 C818 0.930 . S
H790 C810 0.931 . S
O791 Co767 2.097 . S
O791 C819 1.214 . S
H792 C820 0.929 . S
H793 C821 0.929 . S
H794 C822 0.930 . S
H795 C823 0.929 . S
H796 C825 0.930 . S
H797 C802 0.930 1_565 S
H798 C806 0.930 . S
O799 Co768 2.037 . S
O799 C819 1.234 . S
C800 O774 1.269 . S
C800 O775 1.257 . S
C801 H776 0.930 . S
C801 C804 1.388 . S
C801 C806 1.418 . S
C802 H797 0.930 1_545 S
C802 C805 1.404 . S
C802 C806 1.353 . S
N803 Co768 2.145 . S
N803 C804 1.397 . S
N803 C805 1.334 . S
C804 H785 0.929 . S
C804 C801 1.388 . S
C804 N803 1.397 . S
C805 H786 0.929 . S
C805 C802 1.404 . S
C805 N803 1.334 . S
C806 H798 0.930 . S
C806 C801 1.418 . S
C806 C802 1.353 . S
C807 H777 0.930 . S
C807 N808 1.330 . S
C807 C809 1.446 . S
N808 Co767 2.151 . S
N808 C807 1.330 . S
N808 C812 1.418 . S
C809 H788 0.929 . S
C809 C807 1.446 . S
C809 C810 1.332 . S
C810 H790 0.931 . S
C810 C809 1.332 . S
C810 C811 1.267 . S
C811 H779 0.929 . S
C811 C810 1.267 . S
C811 C812 1.251 . S
C812 H782 0.929 . S
C812 N808 1.418 . S
C812 C811 1.251 . S
C813 H780 0.930 . S
C813 C815 1.406 . S
C813 C818 1.261 . S
C814 H781 0.930 . S
C814 N816 1.325 . S
C814 C817 1.357 . S
C815 H783 0.928 . S
C815 C813 1.406 . S
C815 N816 1.261 . S
N816 Co767 2.214 . S
N816 C814 1.325 . S
N816 C815 1.261 . S
C817 H787 0.931 . S
C817 C814 1.357 . S
C817 C818 1.312 . S
C818 H789 0.930 . S
C818 C813 1.261 . S
C818 C817 1.312 . S
C819 O791 1.214 . S
C819 O799 1.234 . S
C820 H792 0.929 . S
C820 C823 1.391 . S
C820 C825 1.391 . S
C821 H793 0.929 . S
C821 C822 1.390 . S
C821 N824 1.391 . S
C822 H794 0.930 . S
C822 C821 1.390 . S
C822 C823 1.392 . S
C823 H795 0.929 . S
C823 C820 1.391 . S
C823 C822 1.392 . S
N824 Co768 2.257 . S
N824 C821 1.391 . S
N824 C825 1.388 . S
C825 H796 0.930 . S
C825 C820 1.391 . S
C825 N824 1.388 . S
Co826 O828 2.143 . S
Co826 O834 2.074 . S
Co826 O837 2.093 . S
Co826 O850 2.097 . S
Co826 N867 2.151 . S
Co826 N875 2.214 . S
Co827 O828 2.160 . S
Co827 O833 2.058 . S
Co827 O843 2.057 . S
Co827 O858 2.037 . S
Co827 N862 2.145 . S
Co827 N883 2.257 . S
O828 Co826 2.143 . S
O828 Co827 2.160 . S
C829 O830 1.278 . S
C829 O837 1.224 . S
O830 C829 1.278 . S
C831 O832 1.245 . S
C831 O843 1.232 . S
O832 C831 1.245 . S
O833 Co827 2.058 . S
O833 C859 1.269 . S
O834 Co826 2.074 . S
O834 C859 1.257 . S
H835 C860 0.930 . S
H836 C866 0.930 . S
O837 Co826 2.093 . S
O837 C829 1.224 . S
H838 C870 0.929 . S
H839 C872 0.930 . S
H840 C873 0.930 . S
H841 C871 0.929 . S
H842 C874 0.928 . S
O843 Co827 2.057 . S
O843 C831 1.232 . S
H844 C863 0.929 . S
H845 C864 0.929 . S
H846 C876 0.931 . S
H847 C868 0.929 . S
H848 C877 0.930 . S
H849 C869 0.931 . S
O850 Co826 2.097 . S
O850 C878 1.214 . S
H851 C879 0.929 . S
H852 C880 0.929 . S
H853 C881 0.930 . S
H854 C882 0.929 1_565 S
H855 C884 0.930 . S
H856 C861 0.930 1_565 S
H857 C865 0.933 . S
O858 Co827 2.037 . S
O858 C878 1.234 . S
C859 O833 1.269 . S
C859 O834 1.257 . S
C860 H835 0.930 . S
C860 C863 1.388 . S
C860 C865 1.418 . S
C861 H856 0.930 1_545 S
C861 C864 1.404 . S
C861 C865 1.353 . S
N862 Co827 2.145 . S
N862 C863 1.397 . S
N862 C864 1.334 . S
C863 H844 0.929 . S
C863 C860 1.388 . S
C863 N862 1.397 . S
C864 H845 0.929 . S
C864 C861 1.404 . S
C864 N862 1.334 . S
C865 H857 0.933 . S
C865 C860 1.418 . S
C865 C861 1.353 . S
C866 H836 0.930 . S
C866 N867 1.330 . S
C866 C868 1.446 . S
N867 Co826 2.151 . S
N867 C866 1.330 . S
N867 C871 1.418 . S
C868 H847 0.929 . S
C868 C866 1.446 . S
C868 C869 1.332 . S
C869 H849 0.931 . S
C869 C868 1.332 . S
C869 C870 1.267 . S
C870 H838 0.929 . S
C870 C869 1.267 . S
C870 C871 1.251 . S
C871 H841 0.929 . S
C871 N867 1.418 . S
C871 C870 1.251 . S
C872 H839 0.930 . S
C872 C874 1.406 . S
C872 C877 1.261 . S
C873 H840 0.930 . S
C873 N875 1.325 . S
C873 C876 1.357 . S
C874 H842 0.928 . S
C874 C872 1.406 . S
C874 N875 1.261 . S
N875 Co826 2.214 . S
N875 C873 1.325 . S
N875 C874 1.261 . S
C876 H846 0.931 . S
C876 C873 1.357 . S
C876 C877 1.312 . S
C877 H848 0.930 . S
C877 C872 1.261 . S
C877 C876 1.312 . S
C878 O850 1.214 . S
C878 O858 1.234 . S
C879 H851 0.929 . S
C879 C882 1.391 . S
C879 C884 1.391 . S
C880 H852 0.929 . S
C880 C881 1.390 . S
C880 N883 1.391 . S
C881 H853 0.930 . S
C881 C880 1.390 . S
C881 C882 1.392 . S
C882 H854 0.929 1_545 S
C882 C879 1.391 . S
C882 C881 1.392 . S
N883 Co827 2.257 . S
N883 C880 1.391 . S
N883 C884 1.388 . S
C884 H855 0.930 . S
C884 C879 1.391 . S
C884 N883 1.388 . S
Co885 O887 2.143 . S
Co885 O893 2.074 . S
Co885 O896 2.093 . S
Co885 O909 2.097 . S
Co885 N926 2.151 . S
Co885 N934 2.214 . S
Co886 O887 2.160 . S
Co886 O892 2.058 . S
Co886 O902 2.057 . S
Co886 O917 2.037 . S
Co886 N921 2.145 . S
Co886 N942 2.257 . S
O887 Co885 2.143 . S
O887 Co886 2.160 . S
C888 O889 1.278 . S
C888 O896 1.224 . S
O889 C888 1.278 . S
C890 O891 1.245 . S
C890 O902 1.232 . S
O891 C890 1.245 . S
O892 Co886 2.058 . S
O892 C918 1.269 . S
O893 Co885 2.074 . S
O893 C918 1.257 . S
H894 C919 0.930 . S
H895 C925 0.930 . S
O896 Co885 2.093 . S
O896 C888 1.224 . S
H897 C929 0.929 . S
H898 C931 0.930 . S
H899 C932 0.930 . S
H900 C930 0.929 . S
H901 C933 0.928 . S
O902 Co886 2.057 . S
O902 C890 1.232 . S
H903 C922 0.929 . S
H904 C923 0.929 . S
H905 C935 0.931 . S
H906 C927 0.929 . S
H907 C936 0.930 . S
H908 C928 0.931 . S
O909 Co885 2.097 . S
O909 C937 1.214 . S
H910 C938 0.929 . S
H911 C939 0.929 . S
H912 C940 0.930 . S
H913 C941 0.929 . S
H914 C943 0.930 . S
H915 C920 0.930 . S
H916 C924 0.930 . S
O917 Co886 2.037 . S
O917 C937 1.234 . S
C918 O892 1.269 . S
C918 O893 1.257 . S
C919 H894 0.930 . S
C919 C922 1.388 . S
C919 C924 1.418 . S
C920 H915 0.930 . S
C920 C923 1.404 . S
C920 C924 1.353 . S
N921 Co886 2.145 . S
N921 C922 1.397 . S
N921 C923 1.334 . S
C922 H903 0.929 . S
C922 C919 1.388 . S
C922 N921 1.397 . S
C923 H904 0.929 . S
C923 C920 1.404 . S
C923 N921 1.334 . S
C924 H916 0.930 . S
C924 C919 1.418 . S
C924 C920 1.353 . S
C925 H895 0.930 . S
C925 N926 1.330 . S
C925 C927 1.446 . S
N926 Co885 2.151 . S
N926 C925 1.330 . S
N926 C930 1.418 . S
C927 H906 0.929 . S
C927 C925 1.446 . S
C927 C928 1.332 . S
C928 H908 0.931 . S
C928 C927 1.332 . S
C928 C929 1.267 . S
C929 H897 0.929 . S
C929 C928 1.267 . S
C929 C930 1.251 . S
C930 H900 0.929 . S
C930 N926 1.418 . S
C930 C929 1.251 . S
C931 H898 0.930 . S
C931 C933 1.406 . S
C931 C936 1.261 . S
C932 H899 0.930 . S
C932 N934 1.325 . S
C932 C935 1.357 . S
C933 H901 0.928 . S
C933 C931 1.406 . S
C933 N934 1.261 . S
N934 Co885 2.214 . S
N934 C932 1.325 . S
N934 C933 1.261 . S
C935 H905 0.931 . S
C935 C932 1.357 . S
C935 C936 1.312 . S
C936 H907 0.930 . S
C936 C931 1.261 . S
C936 C935 1.312 . S
C937 O909 1.214 . S
C937 O917 1.234 . S
C938 H910 0.929 . S
C938 C941 1.391 . S
C938 C943 1.391 . S
C939 H911 0.929 . S
C939 C940 1.390 . S
C939 N942 1.391 . S
C940 H912 0.930 . S
C940 C939 1.390 . S
C940 C941 1.392 . S
C941 H913 0.929 . S
C941 C938 1.391 . S
C941 C940 1.392 . S
N942 Co886 2.257 . S
N942 C939 1.391 . S
N942 C943 1.388 . S
C943 H914 0.930 . S
C943 C938 1.391 . S
C943 N942 1.388 . S
Co944 O946 2.143 1_445 S
Co944 O952 2.074 . S
Co944 O955 2.093 . S
Co944 O968 2.097 . S
Co944 N985 2.151 1_455 S
Co944 N993 2.214 . S
Co945 O946 2.160 1_455 S
Co945 O951 2.058 1_465 S
Co945 O961 2.057 1_455 S
Co945 O976 2.037 . S
Co945 N980 2.145 . S
Co945 N1001 2.257 . S
O946 Co944 2.143 1_665 S
O946 Co945 2.160 1_655 S
C947 O948 1.279 1_545 S
C947 O955 1.224 . S
O948 C947 1.279 1_565 S
C949 O950 1.245 . S
C949 O961 1.232 . S
O950 C949 1.245 . S
O951 Co945 2.058 1_645 S
O951 C977 1.269 . S
O952 Co944 2.074 . S
O952 C977 1.257 1_455 S
H953 C978 0.930 . S
H954 C984 0.930 . S
O955 Co944 2.093 . S
O955 C947 1.224 . S
H956 C988 0.929 . S
H957 C990 0.930 . S
H958 C991 0.930 . S
H959 C989 0.929 . S
H960 C992 0.928 . S
O961 Co945 2.057 1_655 S
O961 C949 1.232 . S
H962 C981 0.929 . S
H963 C982 0.929 1_655 S
H964 C994 0.931 . S
H965 C986 0.929 . S
H966 C995 0.930 . S
H967 C987 0.931 . S
O968 Co944 2.097 . S
O968 C996 1.214 . S
H969 C997 0.929 . S
H970 C998 0.929 . S
H971 C999 0.930 . S
H972 C1000 0.929 . S
H973 C1002 0.930 1_655 S
H974 C979 0.934 . S
H975 C983 0.930 . S
O976 Co945 2.037 . S
O976 C996 1.234 1_565 S
C977 O951 1.269 . S
C977 O952 1.257 1_655 S
C978 H953 0.930 . S
C978 C981 1.388 . S
C978 C983 1.418 . S
C979 H974 0.934 . S
C979 C982 1.404 . S
C979 C983 1.353 . S
N980 Co945 2.145 . S
N980 C981 1.397 . S
N980 C982 1.334 . S
C981 H962 0.929 . S
C981 C978 1.388 . S
C981 N980 1.397 . S
C982 H963 0.929 1_455 S
C982 C979 1.404 . S
C982 N980 1.334 . S
C983 H975 0.930 . S
C983 C978 1.418 . S
C983 C979 1.353 . S
C984 H954 0.930 . S
C984 N985 1.330 . S
C984 C986 1.446 . S
N985 Co944 2.151 1_655 S
N985 C984 1.330 . S
N985 C989 1.418 . S
C986 H965 0.929 . S
C986 C984 1.446 . S
C986 C987 1.332 . S
C987 H967 0.931 . S
C987 C986 1.332 . S
C987 C988 1.267 . S
C988 H956 0.929 . S
C988 C987 1.267 . S
C988 C989 1.251 . S
C989 H959 0.929 . S
C989 N985 1.418 . S
C989 C988 1.251 . S
C990 H957 0.930 . S
C990 C992 1.406 . S
C990 C995 1.261 . S
C991 H958 0.930 . S
C991 N993 1.325 . S
C991 C994 1.357 . S
C992 H960 0.928 . S
C992 C990 1.406 . S
C992 N993 1.261 . S
N993 Co944 2.214 . S
N993 C991 1.325 . S
N993 C992 1.261 . S
C994 H964 0.931 . S
C994 C991 1.357 . S
C994 C995 1.312 . S
C995 H966 0.930 . S
C995 C990 1.261 . S
C995 C994 1.312 . S
C996 O968 1.214 . S
C996 O976 1.234 1_545 S
C997 H969 0.929 . S
C997 C1000 1.391 . S
C997 C1002 1.391 . S
C998 H970 0.929 . S
C998 C999 1.390 . S
C998 N1001 1.391 . S
C999 H971 0.930 . S
C999 C998 1.390 . S
C999 C1000 1.392 . S
C1000 H972 0.929 . S
C1000 C997 1.391 . S
C1000 C999 1.392 . S
N1001 Co945 2.257 . S
N1001 C998 1.391 . S
N1001 C1002 1.388 . S
C1002 H973 0.930 1_455 S
C1002 C997 1.391 . S
C1002 N1001 1.388 . S
Co1003 O1005 2.143 . S
Co1003 O1011 2.074 . S
Co1003 O1014 2.093 . S
Co1003 O1027 2.097 . S
Co1003 N1044 2.151 . S
Co1003 N1052 2.214 . S
Co1004 O1005 2.160 . S
Co1004 O1010 2.058 . S
Co1004 O1020 2.057 . S
Co1004 O1035 2.037 . S
Co1004 N1039 2.145 . S
Co1004 N1060 2.257 . S
O1005 Co1003 2.143 . S
O1005 Co1004 2.160 . S
C1006 O1007 1.278 . S
C1006 O1014 1.224 . S
O1007 C1006 1.278 . S
C1008 O1009 1.245 . S
C1008 O1020 1.232 . S
O1009 C1008 1.245 . S
O1010 Co1004 2.058 . S
O1010 C1036 1.269 . S
O1011 Co1003 2.074 . S
O1011 C1036 1.257 . S
H1012 C1037 0.930 . S
H1013 C1043 0.930 . S
O1014 Co1003 2.093 . S
O1014 C1006 1.224 . S
H1015 C1047 0.929 . S
H1016 C1049 0.930 . S
H1017 C1050 0.930 . S
H1018 C1048 0.929 . S
H1019 C1051 0.928 . S
O1020 Co1004 2.057 . S
O1020 C1008 1.232 . S
H1021 C1040 0.929 . S
H1022 C1041 0.929 . S
H1023 C1053 0.931 . S
H1024 C1045 0.929 . S
H1025 C1054 0.930 1_565 S
H1026 C1046 0.931 . S
O1027 Co1003 2.097 . S
O1027 C1055 1.214 . S
H1028 C1056 0.929 . S
H1029 C1057 0.929 . S
H1030 C1058 0.930 . S
H1031 C1059 0.929 . S
H1032 C1061 0.930 . S
H1033 C1038 0.930 . S
H1034 C1042 0.930 . S
O1035 Co1004 2.037 . S
O1035 C1055 1.234 . S
C1036 O1010 1.269 . S
C1036 O1011 1.257 . S
C1037 H1012 0.930 . S
C1037 C1040 1.388 . S
C1037 C1042 1.418 . S
C1038 H1033 0.930 . S
C1038 C1041 1.404 . S
C1038 C1042 1.353 . S
N1039 Co1004 2.145 . S
N1039 C1040 1.397 . S
N1039 C1041 1.334 . S
C1040 H1021 0.929 . S
C1040 C1037 1.388 . S
C1040 N1039 1.397 . S
C1041 H1022 0.929 . S
C1041 C1038 1.404 . S
C1041 N1039 1.334 . S
C1042 H1034 0.930 . S
C1042 C1037 1.418 . S
C1042 C1038 1.353 . S
C1043 H1013 0.930 . S
C1043 N1044 1.330 . S
C1043 C1045 1.446 . S
N1044 Co1003 2.151 . S
N1044 C1043 1.330 . S
N1044 C1048 1.418 . S
C1045 H1024 0.929 . S
C1045 C1043 1.446 . S
C1045 C1046 1.332 . S
C1046 H1026 0.931 . S
C1046 C1045 1.332 . S
C1046 C1047 1.267 . S
C1047 H1015 0.929 . S
C1047 C1046 1.267 . S
C1047 C1048 1.251 . S
C1048 H1018 0.929 . S
C1048 N1044 1.418 . S
C1048 C1047 1.251 . S
C1049 H1016 0.930 . S
C1049 C1051 1.406 . S
C1049 C1054 1.261 . S
C1050 H1017 0.930 . S
C1050 N1052 1.325 . S
C1050 C1053 1.357 . S
C1051 H1019 0.928 . S
C1051 C1049 1.406 . S
C1051 N1052 1.261 . S
N1052 Co1003 2.214 . S
N1052 C1050 1.325 . S
N1052 C1051 1.261 . S
C1053 H1023 0.931 . S
C1053 C1050 1.357 . S
C1053 C1054 1.312 . S
C1054 H1025 0.930 1_545 S
C1054 C1049 1.261 . S
C1054 C1053 1.312 . S
C1055 O1027 1.214 . S
C1055 O1035 1.234 . S
C1056 H1028 0.929 . S
C1056 C1059 1.391 . S
C1056 C1061 1.391 . S
C1057 H1029 0.929 . S
C1057 C1058 1.390 . S
C1057 N1060 1.391 . S
C1058 H1030 0.930 . S
C1058 C1057 1.390 . S
C1058 C1059 1.392 . S
C1059 H1031 0.929 . S
C1059 C1056 1.391 . S
C1059 C1058 1.392 . S
N1060 Co1004 2.257 . S
N1060 C1057 1.391 . S
N1060 C1061 1.388 . S
C1061 H1032 0.930 . S
C1061 C1056 1.391 . S
C1061 N1060 1.388 . S
Co1062 O1064 2.143 1_455 S
Co1062 O1070 2.074 . S
Co1062 O1073 2.093 . S
Co1062 O1086 2.097 . S
Co1062 N1103 2.151 1_455 S
Co1062 N1111 2.214 . S
Co1063 O1064 2.160 1_455 S
Co1063 O1069 2.058 1_455 S
Co1063 O1079 2.057 1_455 S
Co1063 O1094 2.037 . S
Co1063 N1098 2.145 . S
Co1063 N1119 2.257 . S
O1064 Co1062 2.143 1_655 S
O1064 Co1063 2.160 1_655 S
C1065 O1066 1.279 . S
C1065 O1073 1.224 . S
O1066 C1065 1.279 . S
C1067 O1068 1.245 . S
C1067 O1079 1.232 . S
O1068 C1067 1.245 . S
O1069 Co1063 2.058 1_655 S
O1069 C1095 1.269 . S
O1070 Co1062 2.074 . S
O1070 C1095 1.257 1_455 S
H1071 C1096 0.930 . S
H1072 C1102 0.930 . S
O1073 Co1062 2.093 . S
O1073 C1065 1.224 . S
H1074 C1106 0.929 . S
H1075 C1108 0.930 1_565 S
H1076 C1109 0.930 . S
H1077 C1107 0.929 . S
H1078 C1110 0.928 . S
O1079 Co1063 2.057 1_655 S
O1079 C1067 1.232 . S
H1080 C1099 0.929 . S
H1081 C1100 0.915 1_655 S
H1082 C1112 0.931 . S
H1083 C1104 0.929 . S
H1084 C1113 0.930 . S
H1085 C1105 0.931 . S
O1086 Co1062 2.097 . S
O1086 C1114 1.214 . S
H1087 C1115 0.929 1_655 S
H1088 C1116 0.929 . S
H1089 C1117 0.930 . S
H1090 C1118 0.929 . S
H1091 C1120 0.930 1_655 S
H1092 C1097 0.930 1_655 S
H1093 C1101 0.930 . S
O1094 Co1063 2.037 . S
O1094 C1114 1.234 . S
C1095 O1069 1.269 . S
C1095 O1070 1.257 1_655 S
C1096 H1071 0.930 . S
C1096 C1099 1.388 . S
C1096 C1101 1.418 . S
C1097 H1092 0.930 1_455 S
C1097 C1100 1.408 . S
C1097 C1101 1.353 . S
N1098 Co1063 2.145 . S
N1098 C1099 1.397 . S
N1098 C1100 1.344 . S
C1099 H1080 0.929 . S
C1099 C1096 1.388 . S
C1099 N1098 1.397 . S
C1100 H1081 0.915 1_455 S
C1100 C1097 1.408 . S
C1100 N1098 1.344 . S
C1101 H1093 0.930 . S
C1101 C1096 1.418 . S
C1101 C1097 1.353 . S
C1102 H1072 0.930 . S
C1102 N1103 1.330 . S
C1102 C1104 1.446 . S
N1103 Co1062 2.151 1_655 S
N1103 C1102 1.330 . S
N1103 C1107 1.418 . S
C1104 H1083 0.929 . S
C1104 C1102 1.446 . S
C1104 C1105 1.332 . S
C1105 H1085 0.931 . S
C1105 C1104 1.332 . S
C1105 C1106 1.267 . S
C1106 H1074 0.929 . S
C1106 C1105 1.267 . S
C1106 C1107 1.251 . S
C1107 H1077 0.929 . S
C1107 N1103 1.418 . S
C1107 C1106 1.251 . S
C1108 H1075 0.930 1_545 S
C1108 C1110 1.406 . S
C1108 C1113 1.261 1_545 S
C1109 H1076 0.930 . S
C1109 N1111 1.325 . S
C1109 C1112 1.357 . S
C1110 H1078 0.928 . S
C1110 C1108 1.406 . S
C1110 N1111 1.261 . S
N1111 Co1062 2.214 . S
N1111 C1109 1.325 . S
N1111 C1110 1.261 . S
C1112 H1082 0.931 . S
C1112 C1109 1.357 . S
C1112 C1113 1.312 1_545 S
C1113 H1084 0.930 . S
C1113 C1108 1.261 1_565 S
C1113 C1112 1.312 1_565 S
C1114 O1086 1.214 . S
C1114 O1094 1.234 . S
C1115 H1087 0.929 1_455 S
C1115 C1118 1.391 . S
C1115 C1120 1.391 . S
C1116 H1088 0.929 . S
C1116 C1117 1.390 . S
C1116 N1119 1.391 . S
C1117 H1089 0.930 . S
C1117 C1116 1.390 . S
C1117 C1118 1.392 . S
C1118 H1090 0.929 . S
C1118 C1115 1.391 . S
C1118 C1117 1.392 . S
N1119 Co1063 2.257 . S
N1119 C1116 1.391 . S
N1119 C1120 1.389 . S
C1120 H1091 0.930 1_455 S
C1120 C1115 1.391 . S
C1120 N1119 1.389 . S
Co1121 O1123 2.143 1_545 S
Co1121 O1129 2.074 . S
Co1121 O1132 2.093 . S
Co1121 O1145 2.097 . S
Co1121 N1162 2.151 . S
Co1121 N1170 2.214 . S
Co1122 O1123 2.160 . S
Co1122 O1128 2.058 1_565 S
Co1122 O1138 2.057 . S
Co1122 O1153 2.037 . S
Co1122 N1157 2.145 . S
Co1122 N1178 2.257 . S
O1123 Co1121 2.143 1_565 S
O1123 Co1122 2.160 . S
C1124 O1125 1.278 1_545 S
C1124 O1132 1.224 . S
O1125 C1124 1.278 1_565 S
C1126 O1127 1.245 . S
C1126 O1138 1.232 . S
O1127 C1126 1.245 . S
O1128 Co1122 2.058 1_545 S
O1128 C1154 1.269 . S
O1129 Co1121 2.074 . S
O1129 C1154 1.257 . S
H1130 C1155 0.930 . S
H1131 C1161 0.930 . S
O1132 Co1121 2.093 . S
O1132 C1124 1.224 . S
H1133 C1165 0.929 . S
H1134 C1167 0.930 . S
H1135 C1168 0.930 . S
H1136 C1166 0.929 . S
H1137 C1169 0.928 . S
O1138 Co1122 2.057 . S
O1138 C1126 1.232 . S
H1139 C1158 0.929 . S
H1140 C1159 0.929 . S
H1141 C1171 0.931 . S
H1142 C1163 0.929 . S
H1143 C1172 0.930 . S
H1144 C1164 0.931 . S
O1145 Co1121 2.097 . S
O1145 C1173 1.214 . S
H1146 C1174 0.929 . S
H1147 C1175 0.929 . S
H1148 C1176 0.930 . S
H1149 C1177 0.929 . S
H1150 C1179 0.930 . S
H1151 C1156 0.930 . S
H1152 C1160 0.930 . S
O1153 Co1122 2.037 . S
O1153 C1173 1.234 1_565 S
C1154 O1128 1.269 . S
C1154 O1129 1.257 . S
C1155 H1130 0.930 . S
C1155 C1158 1.388 . S
C1155 C1160 1.418 . S
C1156 H1151 0.930 . S
C1156 C1159 1.404 . S
C1156 C1160 1.353 . S
N1157 Co1122 2.145 . S
N1157 C1158 1.397 . S
N1157 C1159 1.334 . S
C1158 H1139 0.929 . S
C1158 C1155 1.388 . S
C1158 N1157 1.397 . S
C1159 H1140 0.929 . S
C1159 C1156 1.404 . S
C1159 N1157 1.334 . S
C1160 H1152 0.930 . S
C1160 C1155 1.418 . S
C1160 C1156 1.353 . S
C1161 H1131 0.930 . S
C1161 N1162 1.330 . S
C1161 C1163 1.446 . S
N1162 Co1121 2.151 . S
N1162 C1161 1.330 . S
N1162 C1166 1.418 . S
C1163 H1142 0.929 . S
C1163 C1161 1.446 . S
C1163 C1164 1.332 . S
C1164 H1144 0.931 . S
C1164 C1163 1.332 . S
C1164 C1165 1.267 . S
C1165 H1133 0.929 . S
C1165 C1164 1.267 . S
C1165 C1166 1.251 . S
C1166 H1136 0.929 . S
C1166 N1162 1.418 . S
C1166 C1165 1.251 . S
C1167 H1134 0.930 . S
C1167 C1169 1.406 . S
C1167 C1172 1.261 . S
C1168 H1135 0.930 . S
C1168 N1170 1.325 . S
C1168 C1171 1.357 . S
C1169 H1137 0.928 . S
C1169 C1167 1.406 . S
C1169 N1170 1.261 . S
N1170 Co1121 2.214 . S
N1170 C1168 1.325 . S
N1170 C1169 1.261 . S
C1171 H1141 0.931 . S
C1171 C1168 1.357 . S
C1171 C1172 1.312 . S
C1172 H1143 0.930 . S
C1172 C1167 1.261 . S
C1172 C1171 1.312 . S
C1173 O1145 1.214 . S
C1173 O1153 1.234 1_545 S
C1174 H1146 0.929 . S
C1174 C1177 1.391 . S
C1174 C1179 1.391 . S
C1175 H1147 0.929 . S
C1175 C1176 1.390 . S
C1175 N1178 1.391 . S
C1176 H1148 0.930 . S
C1176 C1175 1.390 . S
C1176 C1177 1.392 . S
C1177 H1149 0.929 . S
C1177 C1174 1.391 . S
C1177 C1176 1.392 . S
N1178 Co1122 2.257 . S
N1178 C1175 1.391 . S
N1178 C1179 1.388 . S
C1179 H1150 0.930 . S
C1179 C1174 1.391 . S
C1179 N1178 1.388 . S
Co1180 O1182 2.143 1_665 S
Co1180 O1188 2.074 . S
Co1180 O1191 2.093 . S
Co1180 O1204 2.097 . S
Co1180 N1221 2.151 1_655 S
Co1180 N1229 2.214 . S
Co1181 O1182 2.160 1_655 S
Co1181 O1187 2.058 1_645 S
Co1181 O1197 2.057 1_655 S
Co1181 O1212 2.037 . S
Co1181 N1216 2.145 . S
Co1181 N1237 2.257 . S
O1182 Co1180 2.143 1_445 S
O1182 Co1181 2.160 1_455 S
C1183 O1184 1.279 1_565 S
C1183 O1191 1.224 . S
O1184 C1183 1.279 1_545 S
C1185 O1186 1.245 . S
C1185 O1197 1.232 . S
O1186 C1185 1.245 . S
O1187 Co1181 2.058 1_465 S
O1187 C1213 1.269 . S
O1188 Co1180 2.074 . S
O1188 C1213 1.257 1_655 S
H1189 C1214 0.930 . S
H1190 C1220 0.930 . S
O1191 Co1180 2.093 . S
O1191 C1183 1.224 . S
H1192 C1224 0.929 . S
H1193 C1226 0.930 . S
H1194 C1227 0.930 . S
H1195 C1225 0.929 . S
H1196 C1228 0.928 . S
O1197 Co1181 2.057 1_455 S
O1197 C1185 1.232 . S
H1198 C1217 0.929 . S
H1199 C1218 0.929 1_455 S
H1200 C1230 0.931 . S
H1201 C1222 0.929 . S
H1202 C1231 0.930 . S
H1203 C1223 0.931 . S
O1204 Co1180 2.097 . S
O1204 C1232 1.214 . S
H1205 C1233 0.929 . S
H1206 C1234 0.929 . S
H1207 C1235 0.930 . S
H1208 C1236 0.929 . S
H1209 C1238 0.930 1_455 S
H1210 C1215 0.934 . S
H1211 C1219 0.930 . S
O1212 Co1181 2.037 . S
O1212 C1232 1.234 1_545 S
C1213 O1187 1.269 . S
C1213 O1188 1.257 1_455 S
C1214 H1189 0.930 . S
C1214 C1217 1.388 . S
C1214 C1219 1.418 . S
C1215 H1210 0.934 . S
C1215 C1218 1.404 . S
C1215 C1219 1.353 . S
N1216 Co1181 2.145 . S
N1216 C1217 1.397 . S
N1216 C1218 1.334 . S
C1217 H1198 0.929 . S
C1217 C1214 1.388 . S
C1217 N1216 1.397 . S
C1218 H1199 0.929 1_655 S
C1218 C1215 1.404 . S
C1218 N1216 1.334 . S
C1219 H1211 0.930 . S
C1219 C1214 1.418 . S
C1219 C1215 1.353 . S
C1220 H1190 0.930 . S
C1220 N1221 1.330 . S
C1220 C1222 1.446 . S
N1221 Co1180 2.151 1_455 S
N1221 C1220 1.330 . S
N1221 C1225 1.418 . S
C1222 H1201 0.929 . S
C1222 C1220 1.446 . S
C1222 C1223 1.332 . S
C1223 H1203 0.931 . S
C1223 C1222 1.332 . S
C1223 C1224 1.267 . S
C1224 H1192 0.929 . S
C1224 C1223 1.267 . S
C1224 C1225 1.251 . S
C1225 H1195 0.929 . S
C1225 N1221 1.418 . S
C1225 C1224 1.251 . S
C1226 H1193 0.930 . S
C1226 C1228 1.406 . S
C1226 C1231 1.261 . S
C1227 H1194 0.930 . S
C1227 N1229 1.325 . S
C1227 C1230 1.357 . S
C1228 H1196 0.928 . S
C1228 C1226 1.406 . S
C1228 N1229 1.261 . S
N1229 Co1180 2.214 . S
N1229 C1227 1.325 . S
N1229 C1228 1.261 . S
C1230 H1200 0.931 . S
C1230 C1227 1.357 . S
C1230 C1231 1.312 . S
C1231 H1202 0.930 . S
C1231 C1226 1.261 . S
C1231 C1230 1.312 . S
C1232 O1204 1.214 . S
C1232 O1212 1.234 1_565 S
C1233 H1205 0.929 . S
C1233 C1236 1.391 . S
C1233 C1238 1.391 . S
C1234 H1206 0.929 . S
C1234 C1235 1.390 . S
C1234 N1237 1.391 . S
C1235 H1207 0.930 . S
C1235 C1234 1.390 . S
C1235 C1236 1.392 . S
C1236 H1208 0.929 . S
C1236 C1233 1.391 . S
C1236 C1235 1.392 . S
N1237 Co1181 2.257 . S
N1237 C1234 1.391 . S
N1237 C1238 1.388 . S
C1238 H1209 0.930 1_655 S
C1238 C1233 1.391 . S
C1238 N1237 1.388 . S
Co1239 O1241 2.143 . S
Co1239 O1247 2.074 . S
Co1239 O1250 2.093 . S
Co1239 O1263 2.097 . S
Co1239 N1280 2.151 . S
Co1239 N1288 2.214 . S
Co1240 O1241 2.160 . S
Co1240 O1246 2.058 . S
Co1240 O1256 2.057 . S
Co1240 O1271 2.037 . S
Co1240 N1275 2.145 . S
Co1240 N1296 2.257 . S
O1241 Co1239 2.143 . S
O1241 Co1240 2.160 . S
C1242 O1243 1.278 . S
C1242 O1250 1.224 . S
O1243 C1242 1.278 . S
C1244 O1245 1.245 . S
C1244 O1256 1.232 . S
O1245 C1244 1.245 . S
O1246 Co1240 2.058 . S
O1246 C1272 1.269 . S
O1247 Co1239 2.074 . S
O1247 C1272 1.257 . S
H1248 C1273 0.930 . S
H1249 C1279 0.930 . S
O1250 Co1239 2.093 . S
O1250 C1242 1.224 . S
H1251 C1283 0.929 . S
H1252 C1285 0.930 . S
H1253 C1286 0.930 . S
H1254 C1284 0.929 . S
H1255 C1287 0.928 . S
O1256 Co1240 2.057 . S
O1256 C1244 1.232 . S
H1257 C1276 0.929 . S
H1258 C1277 0.929 . S
H1259 C1289 0.931 . S
H1260 C1281 0.929 . S
H1261 C1290 0.930 1_545 S
H1262 C1282 0.931 . S
O1263 Co1239 2.097 . S
O1263 C1291 1.214 . S
H1264 C1292 0.929 . S
H1265 C1293 0.929 . S
H1266 C1294 0.930 . S
H1267 C1295 0.929 . S
H1268 C1297 0.930 . S
H1269 C1274 0.930 . S
H1270 C1278 0.930 . S
O1271 Co1240 2.037 . S
O1271 C1291 1.234 . S
C1272 O1246 1.269 . S
C1272 O1247 1.257 . S
C1273 H1248 0.930 . S
C1273 C1276 1.388 . S
C1273 C1278 1.418 . S
C1274 H1269 0.930 . S
C1274 C1277 1.404 . S
C1274 C1278 1.353 . S
N1275 Co1240 2.145 . S
N1275 C1276 1.397 . S
N1275 C1277 1.334 . S
C1276 H1257 0.929 . S
C1276 C1273 1.388 . S
C1276 N1275 1.397 . S
C1277 H1258 0.929 . S
C1277 C1274 1.404 . S
C1277 N1275 1.334 . S
C1278 H1270 0.930 . S
C1278 C1273 1.418 . S
C1278 C1274 1.353 . S
C1279 H1249 0.930 . S
C1279 N1280 1.330 . S
C1279 C1281 1.446 . S
N1280 Co1239 2.151 . S
N1280 C1279 1.330 . S
N1280 C1284 1.418 . S
C1281 H1260 0.929 . S
C1281 C1279 1.446 . S
C1281 C1282 1.332 . S
C1282 H1262 0.931 . S
C1282 C1281 1.332 . S
C1282 C1283 1.267 . S
C1283 H1251 0.929 . S
C1283 C1282 1.267 . S
C1283 C1284 1.251 . S
C1284 H1254 0.929 . S
C1284 N1280 1.418 . S
C1284 C1283 1.251 . S
C1285 H1252 0.930 . S
C1285 C1287 1.406 . S
C1285 C1290 1.261 . S
C1286 H1253 0.930 . S
C1286 N1288 1.325 . S
C1286 C1289 1.357 . S
C1287 H1255 0.928 . S
C1287 C1285 1.406 . S
C1287 N1288 1.261 . S
N1288 Co1239 2.214 . S
N1288 C1286 1.325 . S
N1288 C1287 1.261 . S
C1289 H1259 0.931 . S
C1289 C1286 1.357 . S
C1289 C1290 1.312 . S
C1290 H1261 0.930 1_565 S
C1290 C1285 1.261 . S
C1290 C1289 1.312 . S
C1291 O1263 1.214 . S
C1291 O1271 1.234 . S
C1292 H1264 0.929 . S
C1292 C1295 1.391 . S
C1292 C1297 1.391 . S
C1293 H1265 0.929 . S
C1293 C1294 1.390 . S
C1293 N1296 1.391 . S
C1294 H1266 0.930 . S
C1294 C1293 1.390 . S
C1294 C1295 1.392 . S
C1295 H1267 0.929 . S
C1295 C1292 1.391 . S
C1295 C1294 1.392 . S
N1296 Co1240 2.257 . S
N1296 C1293 1.391 . S
N1296 C1297 1.388 . S
C1297 H1268 0.930 . S
C1297 C1292 1.391 . S
C1297 N1296 1.388 . S
Co1298 O1300 2.143 1_655 S
Co1298 O1306 2.074 . S
Co1298 O1309 2.093 . S
Co1298 O1322 2.097 . S
Co1298 N1339 2.151 1_655 S
Co1298 N1347 2.214 . S
Co1299 O1300 2.160 1_655 S
Co1299 O1305 2.058 1_655 S
Co1299 O1315 2.057 1_655 S
Co1299 O1330 2.037 . S
Co1299 N1334 2.145 . S
Co1299 N1355 2.257 . S
O1300 Co1298 2.143 1_455 S
O1300 Co1299 2.160 1_455 S
C1301 O1302 1.279 . S
C1301 O1309 1.224 . S
O1302 C1301 1.279 . S
C1303 O1304 1.245 . S
C1303 O1315 1.232 . S
O1304 C1303 1.245 . S
O1305 Co1299 2.058 1_455 S
O1305 C1331 1.269 . S
O1306 Co1298 2.074 . S
O1306 C1331 1.257 1_655 S
H1307 C1332 0.930 . S
H1308 C1338 0.930 . S
O1309 Co1298 2.093 . S
O1309 C1301 1.224 . S
H1310 C1342 0.929 . S
H1311 C1344 0.930 1_545 S
H1312 C1345 0.930 . S
H1313 C1343 0.929 . S
H1314 C1346 0.928 . S
O1315 Co1299 2.057 1_455 S
O1315 C1303 1.232 . S
H1316 C1335 0.929 . S
H1317 C1336 0.915 1_455 S
H1318 C1348 0.931 . S
H1319 C1340 0.929 . S
H1320 C1349 0.930 . S
H1321 C1341 0.931 . S
O1322 Co1298 2.097 . S
O1322 C1350 1.214 . S
H1323 C1351 0.929 1_455 S
H1324 C1352 0.929 . S
H1325 C1353 0.930 . S
H1326 C1354 0.929 . S
H1327 C1356 0.930 1_455 S
H1328 C1333 0.930 1_455 S
H1329 C1337 0.930 . S
O1330 Co1299 2.037 . S
O1330 C1350 1.234 . S
C1331 O1305 1.269 . S
C1331 O1306 1.257 1_455 S
C1332 H1307 0.930 . S
C1332 C1335 1.388 . S
C1332 C1337 1.418 . S
C1333 H1328 0.930 1_655 S
C1333 C1336 1.408 . S
C1333 C1337 1.353 . S
N1334 Co1299 2.145 . S
N1334 C1335 1.397 . S
N1334 C1336 1.344 . S
C1335 H1316 0.929 . S
C1335 C1332 1.388 . S
C1335 N1334 1.397 . S
C1336 H1317 0.915 1_655 S
C1336 C1333 1.408 . S
C1336 N1334 1.344 . S
C1337 H1329 0.930 . S
C1337 C1332 1.418 . S
C1337 C1333 1.353 . S
C1338 H1308 0.930 . S
C1338 N1339 1.330 . S
C1338 C1340 1.446 . S
N1339 Co1298 2.151 1_455 S
N1339 C1338 1.330 . S
N1339 C1343 1.418 . S
C1340 H1319 0.929 . S
C1340 C1338 1.446 . S
C1340 C1341 1.332 . S
C1341 H1321 0.931 . S
C1341 C1340 1.332 . S
C1341 C1342 1.267 . S
C1342 H1310 0.929 . S
C1342 C1341 1.267 . S
C1342 C1343 1.251 . S
C1343 H1313 0.929 . S
C1343 N1339 1.418 . S
C1343 C1342 1.251 . S
C1344 H1311 0.930 1_565 S
C1344 C1346 1.406 . S
C1344 C1349 1.261 1_565 S
C1345 H1312 0.930 . S
C1345 N1347 1.325 . S
C1345 C1348 1.357 . S
C1346 H1314 0.928 . S
C1346 C1344 1.406 . S
C1346 N1347 1.261 . S
N1347 Co1298 2.214 . S
N1347 C1345 1.325 . S
N1347 C1346 1.261 . S
C1348 H1318 0.931 . S
C1348 C1345 1.357 . S
C1348 C1349 1.312 1_565 S
C1349 H1320 0.930 . S
C1349 C1344 1.261 1_545 S
C1349 C1348 1.312 1_545 S
C1350 O1322 1.214 . S
C1350 O1330 1.234 . S
C1351 H1323 0.929 1_655 S
C1351 C1354 1.391 . S
C1351 C1356 1.391 . S
C1352 H1324 0.929 . S
C1352 C1353 1.390 . S
C1352 N1355 1.391 . S
C1353 H1325 0.930 . S
C1353 C1352 1.390 . S
C1353 C1354 1.392 . S
C1354 H1326 0.929 . S
C1354 C1351 1.391 . S
C1354 C1353 1.392 . S
N1355 Co1299 2.257 . S
N1355 C1352 1.391 . S
N1355 C1356 1.389 . S
C1356 H1327 0.930 1_655 S
C1356 C1351 1.391 . S
C1356 N1355 1.389 . S
Co1357 O1359 2.143 1_565 S
Co1357 O1365 2.074 . S
Co1357 O1368 2.093 . S
Co1357 O1381 2.097 . S
Co1357 N1398 2.151 . S
Co1357 N1406 2.214 . S
Co1358 O1359 2.160 . S
Co1358 O1364 2.058 1_545 S
Co1358 O1374 2.057 . S
Co1358 O1389 2.037 . S
Co1358 N1393 2.145 . S
Co1358 N1414 2.257 . S
O1359 Co1357 2.143 1_545 S
O1359 Co1358 2.160 . S
C1360 O1361 1.278 1_565 S
C1360 O1368 1.224 . S
O1361 C1360 1.278 1_545 S
C1362 O1363 1.245 . S
C1362 O1374 1.232 . S
O1363 C1362 1.245 . S
O1364 Co1358 2.058 1_565 S
O1364 C1390 1.269 . S
O1365 Co1357 2.074 . S
O1365 C1390 1.257 . S
H1366 C1391 0.930 . S
H1367 C1397 0.930 . S
O1368 Co1357 2.093 . S
O1368 C1360 1.224 . S
H1369 C1401 0.929 . S
H1370 C1403 0.930 . S
H1371 C1404 0.930 . S
H1372 C1402 0.929 . S
H1373 C1405 0.928 . S
O1374 Co1358 2.057 . S
O1374 C1362 1.232 . S
H1375 C1394 0.929 . S
H1376 C1395 0.929 . S
H1377 C1407 0.931 . S
H1378 C1399 0.929 . S
H1379 C1408 0.930 . S
H1380 C1400 0.931 . S
O1381 Co1357 2.097 . S
O1381 C1409 1.214 . S
H1382 C1410 0.929 . S
H1383 C1411 0.929 . S
H1384 C1412 0.930 . S
H1385 C1413 0.929 . S
H1386 C1415 0.930 . S
H1387 C1392 0.930 . S
H1388 C1396 0.930 . S
O1389 Co1358 2.037 . S
O1389 C1409 1.234 1_545 S
C1390 O1364 1.269 . S
C1390 O1365 1.257 . S
C1391 H1366 0.930 . S
C1391 C1394 1.388 . S
C1391 C1396 1.418 . S
C1392 H1387 0.930 . S
C1392 C1395 1.404 . S
C1392 C1396 1.353 . S
N1393 Co1358 2.145 . S
N1393 C1394 1.397 . S
N1393 C1395 1.334 . S
C1394 H1375 0.929 . S
C1394 C1391 1.388 . S
C1394 N1393 1.397 . S
C1395 H1376 0.929 . S
C1395 C1392 1.404 . S
C1395 N1393 1.334 . S
C1396 H1388 0.930 . S
C1396 C1391 1.418 . S
C1396 C1392 1.353 . S
C1397 H1367 0.930 . S
C1397 N1398 1.330 . S
C1397 C1399 1.446 . S
N1398 Co1357 2.151 . S
N1398 C1397 1.330 . S
N1398 C1402 1.418 . S
C1399 H1378 0.929 . S
C1399 C1397 1.446 . S
C1399 C1400 1.332 . S
C1400 H1380 0.931 . S
C1400 C1399 1.332 . S
C1400 C1401 1.267 . S
C1401 H1369 0.929 . S
C1401 C1400 1.267 . S
C1401 C1402 1.251 . S
C1402 H1372 0.929 . S
C1402 N1398 1.418 . S
C1402 C1401 1.251 . S
C1403 H1370 0.930 . S
C1403 C1405 1.406 . S
C1403 C1408 1.261 . S
C1404 H1371 0.930 . S
C1404 N1406 1.325 . S
C1404 C1407 1.357 . S
C1405 H1373 0.928 . S
C1405 C1403 1.406 . S
C1405 N1406 1.261 . S
N1406 Co1357 2.214 . S
N1406 C1404 1.325 . S
N1406 C1405 1.261 . S
C1407 H1377 0.931 . S
C1407 C1404 1.357 . S
C1407 C1408 1.312 . S
C1408 H1379 0.930 . S
C1408 C1403 1.261 . S
C1408 C1407 1.312 . S
C1409 O1381 1.214 . S
C1409 O1389 1.234 1_565 S
C1410 H1382 0.929 . S
C1410 C1413 1.391 . S
C1410 C1415 1.391 . S
C1411 H1383 0.929 . S
C1411 C1412 1.390 . S
C1411 N1414 1.391 . S
C1412 H1384 0.930 . S
C1412 C1411 1.390 . S
C1412 C1413 1.392 . S
C1413 H1385 0.929 . S
C1413 C1410 1.391 . S
C1413 C1412 1.392 . S
N1414 Co1358 2.257 . S
N1414 C1411 1.391 . S
N1414 C1415 1.388 . S
C1415 H1386 0.930 . S
C1415 C1410 1.391 . S
C1415 N1414 1.388 . S
Co1416 O1418 2.143 1_455 S
Co1416 O1424 2.074 . S
Co1416 O1427 2.093 . S
Co1416 O1440 2.097 . S
Co1416 N1457 2.151 1_455 S
Co1416 N1465 2.214 . S
Co1417 O1418 2.160 1_455 S
Co1417 O1423 2.058 1_455 S
Co1417 O1433 2.057 1_455 S
Co1417 O1448 2.037 . S
Co1417 N1452 2.145 . S
Co1417 N1473 2.257 . S
O1418 Co1416 2.143 1_655 S
O1418 Co1417 2.160 1_655 S
C1419 O1420 1.279 . S
C1419 O1427 1.224 . S
O1420 C1419 1.279 . S
C1421 O1422 1.245 . S
C1421 O1433 1.232 . S
O1422 C1421 1.245 . S
O1423 Co1417 2.058 1_655 S
O1423 C1449 1.269 . S
O1424 Co1416 2.074 . S
O1424 C1449 1.257 1_455 S
H1425 C1450 0.930 . S
H1426 C1456 0.930 . S
O1427 Co1416 2.093 . S
O1427 C1419 1.224 . S
H1428 C1460 0.929 . S
H1429 C1462 0.930 . S
H1430 C1463 0.930 . S
H1431 C1461 0.929 . S
H1432 C1464 0.928 . S
O1433 Co1417 2.057 1_655 S
O1433 C1421 1.232 . S
H1434 C1453 0.929 . S
H1435 C1454 0.929 1_655 S
H1436 C1466 0.931 . S
H1437 C1458 0.929 . S
H1438 C1467 0.930 . S
H1439 C1459 0.931 . S
O1440 Co1416 2.097 . S
O1440 C1468 1.214 . S
H1441 C1469 0.922 1_655 S
H1442 C1470 0.929 . S
H1443 C1471 0.930 . S
H1444 C1472 0.929 . S
H1445 C1474 0.890 1_655 S
H1446 C1451 0.930 1_655 S
H1447 C1455 0.930 . S
O1448 Co1417 2.037 . S
O1448 C1468 1.234 . S
C1449 O1423 1.269 . S
C1449 O1424 1.257 1_655 S
C1450 H1425 0.930 . S
C1450 C1453 1.388 . S
C1450 C1455 1.418 . S
C1451 H1446 0.930 1_455 S
C1451 C1454 1.404 . S
C1451 C1455 1.353 . S
N1452 Co1417 2.145 . S
N1452 C1453 1.397 . S
N1452 C1454 1.334 . S
C1453 H1434 0.929 . S
C1453 C1450 1.388 . S
C1453 N1452 1.397 . S
C1454 H1435 0.929 1_455 S
C1454 C1451 1.404 . S
C1454 N1452 1.334 . S
C1455 H1447 0.930 . S
C1455 C1450 1.418 . S
C1455 C1451 1.353 . S
C1456 H1426 0.930 . S
C1456 N1457 1.330 . S
C1456 C1458 1.446 . S
N1457 Co1416 2.151 1_655 S
N1457 C1456 1.330 . S
N1457 C1461 1.418 . S
C1458 H1437 0.929 . S
C1458 C1456 1.446 . S
C1458 C1459 1.332 . S
C1459 H1439 0.931 . S
C1459 C1458 1.332 . S
C1459 C1460 1.267 . S
C1460 H1428 0.929 . S
C1460 C1459 1.267 . S
C1460 C1461 1.251 . S
C1461 H1431 0.929 . S
C1461 N1457 1.418 . S
C1461 C1460 1.251 . S
C1462 H1429 0.930 . S
C1462 C1464 1.406 . S
C1462 C1467 1.261 . S
C1463 H1430 0.930 . S
C1463 N1465 1.325 . S
C1463 C1466 1.357 . S
C1464 H1432 0.928 . S
C1464 C1462 1.406 . S
C1464 N1465 1.261 . S
N1465 Co1416 2.214 . S
N1465 C1463 1.325 . S
N1465 C1464 1.261 . S
C1466 H1436 0.931 . S
C1466 C1463 1.357 . S
C1466 C1467 1.312 . S
C1467 H1438 0.930 . S
C1467 C1462 1.261 . S
C1467 C1466 1.312 . S
C1468 O1440 1.214 . S
C1468 O1448 1.234 . S
C1469 H1441 0.922 1_455 S
C1469 C1472 1.391 . S
C1469 C1474 1.407 . S
C1470 H1442 0.929 . S
C1470 C1471 1.390 . S
C1470 N1473 1.391 . S
C1471 H1443 0.930 . S
C1471 C1470 1.390 . S
C1471 C1472 1.392 . S
C1472 H1444 0.929 . S
C1472 C1469 1.391 . S
C1472 C1471 1.392 . S
N1473 Co1417 2.257 . S
N1473 C1470 1.391 . S
N1473 C1474 1.414 . S
C1474 H1445 0.890 1_455 S
C1474 C1469 1.407 . S
C1474 N1473 1.414 . S
Co1475 O1477 2.143 . S
Co1475 O1483 2.074 . S
Co1475 O1486 2.093 . S
Co1475 O1499 2.097 . S
Co1475 N1516 2.151 . S
Co1475 N1524 2.214 . S
Co1476 O1477 2.160 . S
Co1476 O1482 2.058 . S
Co1476 O1492 2.057 . S
Co1476 O1507 2.037 . S
Co1476 N1511 2.145 . S
Co1476 N1532 2.257 . S
O1477 Co1475 2.143 . S
O1477 Co1476 2.160 . S
C1478 O1479 1.278 . S
C1478 O1486 1.224 . S
O1479 C1478 1.278 . S
C1480 O1481 1.245 . S
C1480 O1492 1.232 . S
O1481 C1480 1.245 . S
O1482 Co1476 2.058 . S
O1482 C1508 1.269 . S
O1483 Co1475 2.074 . S
O1483 C1508 1.257 . S
H1484 C1509 0.930 . S
H1485 C1515 0.930 . S
O1486 Co1475 2.093 . S
O1486 C1478 1.224 . S
H1487 C1519 0.929 . S
H1488 C1521 0.930 . S
H1489 C1522 0.930 . S
H1490 C1520 0.929 . S
H1491 C1523 0.928 . S
O1492 Co1476 2.057 . S
O1492 C1480 1.232 . S
H1493 C1512 0.929 . S
H1494 C1513 0.929 . S
H1495 C1525 0.931 . S
H1496 C1517 0.929 . S
H1497 C1526 0.930 . S
H1498 C1518 0.931 . S
O1499 Co1475 2.097 . S
O1499 C1527 1.214 . S
H1500 C1528 0.929 . S
H1501 C1529 0.929 . S
H1502 C1530 0.930 . S
H1503 C1531 0.929 1_545 S
H1504 C1533 0.930 . S
H1505 C1510 0.930 1_545 S
H1506 C1514 0.930 1_545 S
O1507 Co1476 2.037 . S
O1507 C1527 1.234 . S
C1508 O1482 1.269 . S
C1508 O1483 1.257 . S
C1509 H1484 0.930 . S
C1509 C1512 1.388 . S
C1509 C1514 1.418 . S
C1510 H1505 0.930 1_565 S
C1510 C1513 1.404 . S
C1510 C1514 1.353 . S
N1511 Co1476 2.145 . S
N1511 C1512 1.397 . S
N1511 C1513 1.334 . S
C1512 H1493 0.929 . S
C1512 C1509 1.388 . S
C1512 N1511 1.397 . S
C1513 H1494 0.929 . S
C1513 C1510 1.404 . S
C1513 N1511 1.334 . S
C1514 H1506 0.930 1_565 S
C1514 C1509 1.418 . S
C1514 C1510 1.353 . S
C1515 H1485 0.930 . S
C1515 N1516 1.330 . S
C1515 C1517 1.446 . S
N1516 Co1475 2.151 . S
N1516 C1515 1.330 . S
N1516 C1520 1.418 . S
C1517 H1496 0.929 . S
C1517 C1515 1.446 . S
C1517 C1518 1.332 . S
C1518 H1498 0.931 . S
C1518 C1517 1.332 . S
C1518 C1519 1.267 . S
C1519 H1487 0.929 . S
C1519 C1518 1.267 . S
C1519 C1520 1.251 . S
C1520 H1490 0.929 . S
C1520 N1516 1.418 . S
C1520 C1519 1.251 . S
C1521 H1488 0.930 . S
C1521 C1523 1.406 . S
C1521 C1526 1.261 . S
C1522 H1489 0.930 . S
C1522 N1524 1.325 . S
C1522 C1525 1.357 . S
C1523 H1491 0.928 . S
C1523 C1521 1.406 . S
C1523 N1524 1.261 . S
N1524 Co1475 2.214 . S
N1524 C1522 1.325 . S
N1524 C1523 1.261 . S
C1525 H1495 0.931 . S
C1525 C1522 1.357 . S
C1525 C1526 1.312 . S
C1526 H1497 0.930 . S
C1526 C1521 1.261 . S
C1526 C1525 1.312 . S
C1527 O1499 1.214 . S
C1527 O1507 1.234 . S
C1528 H1500 0.929 . S
C1528 C1531 1.391 . S
C1528 C1533 1.391 . S
C1529 H1501 0.929 . S
C1529 C1530 1.390 . S
C1529 N1532 1.391 . S
C1530 H1502 0.930 . S
C1530 C1529 1.390 . S
C1530 C1531 1.392 . S
C1531 H1503 0.929 1_565 S
C1531 C1528 1.391 . S
C1531 C1530 1.392 . S
N1532 Co1476 2.257 . S
N1532 C1529 1.391 . S
N1532 C1533 1.388 . S
C1533 H1504 0.930 . S
C1533 C1528 1.391 . S
C1533 N1532 1.388 . S
Co1534 O1536 2.143 1_455 S
Co1534 O1542 2.074 . S
Co1534 O1545 2.093 . S
Co1534 O1558 2.097 . S
Co1534 N1575 2.151 1_455 S
Co1534 N1583 2.214 . S
Co1535 O1536 2.160 1_455 S
Co1535 O1541 2.058 1_455 S
Co1535 O1551 2.057 1_455 S
Co1535 O1566 2.037 . S
Co1535 N1570 2.145 . S
Co1535 N1591 2.257 . S
O1536 Co1534 2.143 1_655 S
O1536 Co1535 2.160 1_655 S
C1537 O1538 1.279 . S
C1537 O1545 1.224 . S
O1538 C1537 1.279 . S
C1539 O1540 1.245 . S
C1539 O1551 1.232 . S
O1540 C1539 1.245 . S
O1541 Co1535 2.058 1_655 S
O1541 C1567 1.269 . S
O1542 Co1534 2.074 . S
O1542 C1567 1.257 1_455 S
H1543 C1568 0.930 . S
H1544 C1574 0.930 . S
O1545 Co1534 2.093 . S
O1545 C1537 1.224 . S
H1546 C1578 0.929 . S
H1547 C1580 0.930 . S
H1548 C1581 0.930 . S
H1549 C1579 0.929 . S
H1550 C1582 0.928 . S
O1551 Co1535 2.057 1_655 S
O1551 C1539 1.232 . S
H1552 C1571 0.929 . S
H1553 C1572 0.929 1_655 S
H1554 C1584 0.931 . S
H1555 C1576 0.929 . S
H1556 C1585 0.930 . S
H1557 C1577 0.931 . S
O1558 Co1534 2.097 . S
O1558 C1586 1.214 . S
H1559 C1587 0.936 . S
H1560 C1588 0.929 . S
H1561 C1589 0.930 . S
H1562 C1590 0.929 . S
H1563 C1592 0.930 1_655 S
H1564 C1569 0.930 1_655 S
H1565 C1573 0.930 . S
O1566 Co1535 2.037 . S
O1566 C1586 1.234 . S
C1567 O1541 1.269 . S
C1567 O1542 1.257 1_655 S
C1568 H1543 0.930 . S
C1568 C1571 1.388 . S
C1568 C1573 1.418 . S
C1569 H1564 0.930 1_455 S
C1569 C1572 1.404 . S
C1569 C1573 1.353 . S
N1570 Co1535 2.145 . S
N1570 C1571 1.397 . S
N1570 C1572 1.334 . S
C1571 H1552 0.929 . S
C1571 C1568 1.388 . S
C1571 N1570 1.397 . S
C1572 H1553 0.929 1_455 S
C1572 C1569 1.404 . S
C1572 N1570 1.334 . S
C1573 H1565 0.930 . S
C1573 C1568 1.418 . S
C1573 C1569 1.353 . S
C1574 H1544 0.930 . S
C1574 N1575 1.330 . S
C1574 C1576 1.446 . S
N1575 Co1534 2.151 1_655 S
N1575 C1574 1.330 . S
N1575 C1579 1.418 . S
C1576 H1555 0.929 . S
C1576 C1574 1.446 . S
C1576 C1577 1.332 . S
C1577 H1557 0.931 . S
C1577 C1576 1.332 . S
C1577 C1578 1.267 . S
C1578 H1546 0.929 . S
C1578 C1577 1.267 . S
C1578 C1579 1.251 . S
C1579 H1549 0.929 . S
C1579 N1575 1.418 . S
C1579 C1578 1.251 . S
C1580 H1547 0.930 . S
C1580 C1582 1.406 . S
C1580 C1585 1.261 . S
C1581 H1548 0.930 . S
C1581 N1583 1.325 . S
C1581 C1584 1.357 . S
C1582 H1550 0.928 . S
C1582 C1580 1.406 . S
C1582 N1583 1.261 . S
N1583 Co1534 2.214 . S
N1583 C1581 1.325 . S
N1583 C1582 1.261 . S
C1584 H1554 0.931 . S
C1584 C1581 1.357 . S
C1584 C1585 1.312 . S
C1585 H1556 0.930 . S
C1585 C1580 1.261 . S
C1585 C1584 1.312 . S
C1586 O1558 1.214 . S
C1586 O1566 1.234 . S
C1587 H1559 0.936 . S
C1587 C1590 1.391 . S
C1587 C1592 1.391 . S
C1588 H1560 0.929 . S
C1588 C1589 1.390 . S
C1588 N1591 1.391 . S
C1589 H1561 0.930 . S
C1589 C1588 1.390 . S
C1589 C1590 1.392 . S
C1590 H1562 0.929 . S
C1590 C1587 1.391 . S
C1590 C1589 1.392 . S
N1591 Co1535 2.257 . S
N1591 C1588 1.391 . S
N1591 C1592 1.388 . S
C1592 H1563 0.930 1_455 S
C1592 C1587 1.391 . S
C1592 N1591 1.388 . S
Co1593 O1595 2.143 . S
Co1593 O1601 2.074 . S
Co1593 O1604 2.093 . S
Co1593 O1617 2.097 . S
Co1593 N1634 2.151 . S
Co1593 N1642 2.214 . S
Co1594 O1595 2.160 . S
Co1594 O1600 2.058 . S
Co1594 O1610 2.057 . S
Co1594 O1625 2.037 . S
Co1594 N1629 2.145 . S
Co1594 N1650 2.257 . S
O1595 Co1593 2.143 . S
O1595 Co1594 2.160 . S
C1596 O1597 1.278 . S
C1596 O1604 1.224 . S
O1597 C1596 1.278 . S
C1598 O1599 1.245 . S
C1598 O1610 1.232 . S
O1599 C1598 1.245 . S
O1600 Co1594 2.058 . S
O1600 C1626 1.269 . S
O1601 Co1593 2.074 . S
O1601 C1626 1.257 . S
H1602 C1627 0.930 . S
H1603 C1633 0.930 . S
O1604 Co1593 2.093 . S
O1604 C1596 1.224 . S
H1605 C1637 0.929 . S
H1606 C1639 0.930 . S
H1607 C1640 0.930 . S
H1608 C1638 0.929 . S
H1609 C1641 0.928 . S
O1610 Co1594 2.057 . S
O1610 C1598 1.232 . S
H1611 C1630 0.929 . S
H1612 C1631 0.929 . S
H1613 C1643 0.931 . S
H1614 C1635 0.929 . S
H1615 C1644 0.930 . S
H1616 C1636 0.931 . S
O1617 Co1593 2.097 . S
O1617 C1645 1.214 . S
H1618 C1646 0.929 . S
H1619 C1647 0.929 . S
H1620 C1648 0.930 . S
H1621 C1649 0.929 . S
H1622 C1651 0.930 . S
H1623 C1628 0.930 . S
H1624 C1632 0.930 . S
O1625 Co1594 2.037 . S
O1625 C1645 1.234 . S
C1626 O1600 1.269 . S
C1626 O1601 1.257 . S
C1627 H1602 0.930 . S
C1627 C1630 1.388 . S
C1627 C1632 1.418 . S
C1628 H1623 0.930 . S
C1628 C1631 1.404 . S
C1628 C1632 1.353 . S
N1629 Co1594 2.145 . S
N1629 C1630 1.397 . S
N1629 C1631 1.334 . S
C1630 H1611 0.929 . S
C1630 C1627 1.388 . S
C1630 N1629 1.397 . S
C1631 H1612 0.929 . S
C1631 C1628 1.404 . S
C1631 N1629 1.334 . S
C1632 H1624 0.930 . S
C1632 C1627 1.418 . S
C1632 C1628 1.353 . S
C1633 H1603 0.930 . S
C1633 N1634 1.330 . S
C1633 C1635 1.446 . S
N1634 Co1593 2.151 . S
N1634 C1633 1.330 . S
N1634 C1638 1.418 . S
C1635 H1614 0.929 . S
C1635 C1633 1.446 . S
C1635 C1636 1.332 . S
C1636 H1616 0.931 . S
C1636 C1635 1.332 . S
C1636 C1637 1.267 . S
C1637 H1605 0.929 . S
C1637 C1636 1.267 . S
C1637 C1638 1.251 . S
C1638 H1608 0.929 . S
C1638 N1634 1.418 . S
C1638 C1637 1.251 . S
C1639 H1606 0.930 . S
C1639 C1641 1.406 . S
C1639 C1644 1.261 . S
C1640 H1607 0.930 . S
C1640 N1642 1.325 . S
C1640 C1643 1.357 . S
C1641 H1609 0.928 . S
C1641 C1639 1.406 . S
C1641 N1642 1.261 . S
N1642 Co1593 2.214 . S
N1642 C1640 1.325 . S
N1642 C1641 1.261 . S
C1643 H1613 0.931 . S
C1643 C1640 1.357 . S
C1643 C1644 1.312 . S
C1644 H1615 0.930 . S
C1644 C1639 1.261 . S
C1644 C1643 1.312 . S
C1645 O1617 1.214 . S
C1645 O1625 1.234 . S
C1646 H1618 0.929 . S
C1646 C1649 1.391 . S
C1646 C1651 1.391 . S
C1647 H1619 0.929 . S
C1647 C1648 1.390 . S
C1647 N1650 1.391 . S
C1648 H1620 0.930 . S
C1648 C1647 1.390 . S
C1648 C1649 1.392 . S
C1649 H1621 0.929 . S
C1649 C1646 1.391 . S
C1649 C1648 1.392 . S
N1650 Co1594 2.257 . S
N1650 C1647 1.391 . S
N1650 C1651 1.388 . S
C1651 H1622 0.930 . S
C1651 C1646 1.391 . S
C1651 N1650 1.388 . S
Co1652 O1654 2.143 1_655 S
Co1652 O1660 2.074 . S
Co1652 O1663 2.093 . S
Co1652 O1676 2.097 . S
Co1652 N1693 2.151 1_655 S
Co1652 N1701 2.214 . S
Co1653 O1654 2.160 1_655 S
Co1653 O1659 2.058 1_655 S
Co1653 O1669 2.057 1_655 S
Co1653 O1684 2.037 . S
Co1653 N1688 2.145 . S
Co1653 N1709 2.257 . S
O1654 Co1652 2.143 1_455 S
O1654 Co1653 2.160 1_455 S
C1655 O1656 1.279 . S
C1655 O1663 1.224 . S
O1656 C1655 1.279 . S
C1657 O1658 1.245 . S
C1657 O1669 1.232 . S
O1658 C1657 1.245 . S
O1659 Co1653 2.058 1_455 S
O1659 C1685 1.269 . S
O1660 Co1652 2.074 . S
O1660 C1685 1.257 1_655 S
H1661 C1686 0.930 . S
H1662 C1692 0.930 . S
O1663 Co1652 2.093 . S
O1663 C1655 1.224 . S
H1664 C1696 0.929 . S
H1665 C1698 0.930 . S
H1666 C1699 0.930 . S
H1667 C1697 0.929 . S
H1668 C1700 0.928 . S
O1669 Co1653 2.057 1_455 S
O1669 C1657 1.232 . S
H1670 C1689 0.929 . S
H1671 C1690 0.929 1_455 S
H1672 C1702 0.931 . S
H1673 C1694 0.929 . S
H1674 C1703 0.930 . S
H1675 C1695 0.931 . S
O1676 Co1652 2.097 . S
O1676 C1704 1.214 . S
H1677 C1705 0.922 1_455 S
H1678 C1706 0.929 . S
H1679 C1707 0.930 . S
H1680 C1708 0.929 . S
H1681 C1710 0.890 1_455 S
H1682 C1687 0.930 1_455 S
H1683 C1691 0.930 . S
O1684 Co1653 2.037 . S
O1684 C1704 1.234 . S
C1685 O1659 1.269 . S
C1685 O1660 1.257 1_455 S
C1686 H1661 0.930 . S
C1686 C1689 1.388 . S
C1686 C1691 1.418 . S
C1687 H1682 0.930 1_655 S
C1687 C1690 1.404 . S
C1687 C1691 1.353 . S
N1688 Co1653 2.145 . S
N1688 C1689 1.397 . S
N1688 C1690 1.334 . S
C1689 H1670 0.929 . S
C1689 C1686 1.388 . S
C1689 N1688 1.397 . S
C1690 H1671 0.929 1_655 S
C1690 C1687 1.404 . S
C1690 N1688 1.334 . S
C1691 H1683 0.930 . S
C1691 C1686 1.418 . S
C1691 C1687 1.353 . S
C1692 H1662 0.930 . S
C1692 N1693 1.330 . S
C1692 C1694 1.446 . S
N1693 Co1652 2.151 1_455 S
N1693 C1692 1.330 . S
N1693 C1697 1.418 . S
C1694 H1673 0.929 . S
C1694 C1692 1.446 . S
C1694 C1695 1.332 . S
C1695 H1675 0.931 . S
C1695 C1694 1.332 . S
C1695 C1696 1.267 . S
C1696 H1664 0.929 . S
C1696 C1695 1.267 . S
C1696 C1697 1.251 . S
C1697 H1667 0.929 . S
C1697 N1693 1.418 . S
C1697 C1696 1.251 . S
C1698 H1665 0.930 . S
C1698 C1700 1.406 . S
C1698 C1703 1.261 . S
C1699 H1666 0.930 . S
C1699 N1701 1.325 . S
C1699 C1702 1.357 . S
C1700 H1668 0.928 . S
C1700 C1698 1.406 . S
C1700 N1701 1.261 . S
N1701 Co1652 2.214 . S
N1701 C1699 1.325 . S
N1701 C1700 1.261 . S
C1702 H1672 0.931 . S
C1702 C1699 1.357 . S
C1702 C1703 1.312 . S
C1703 H1674 0.930 . S
C1703 C1698 1.261 . S
C1703 C1702 1.312 . S
C1704 O1676 1.214 . S
C1704 O1684 1.234 . S
C1705 H1677 0.922 1_655 S
C1705 C1708 1.391 . S
C1705 C1710 1.407 . S
C1706 H1678 0.929 . S
C1706 C1707 1.390 . S
C1706 N1709 1.391 . S
C1707 H1679 0.930 . S
C1707 C1706 1.390 . S
C1707 C1708 1.392 . S
C1708 H1680 0.929 . S
C1708 C1705 1.391 . S
C1708 C1707 1.392 . S
N1709 Co1653 2.257 . S
N1709 C1706 1.391 . S
N1709 C1710 1.414 . S
C1710 H1681 0.890 1_655 S
C1710 C1705 1.407 . S
C1710 N1709 1.414 . S
Co1711 O1713 2.143 . S
Co1711 O1719 2.074 . S
Co1711 O1722 2.093 . S
Co1711 O1735 2.097 . S
Co1711 N1752 2.151 . S
Co1711 N1760 2.214 . S
Co1712 O1713 2.160 . S
Co1712 O1718 2.058 . S
Co1712 O1728 2.057 . S
Co1712 O1743 2.037 . S
Co1712 N1747 2.145 . S
Co1712 N1768 2.257 . S
O1713 Co1711 2.143 . S
O1713 Co1712 2.160 . S
C1714 O1715 1.278 . S
C1714 O1722 1.224 . S
O1715 C1714 1.278 . S
C1716 O1717 1.245 . S
C1716 O1728 1.232 . S
O1717 C1716 1.245 . S
O1718 Co1712 2.058 . S
O1718 C1744 1.269 . S
O1719 Co1711 2.074 . S
O1719 C1744 1.257 . S
H1720 C1745 0.930 . S
H1721 C1751 0.930 . S
O1722 Co1711 2.093 . S
O1722 C1714 1.224 . S
H1723 C1755 0.929 . S
H1724 C1757 0.930 . S
H1725 C1758 0.930 . S
H1726 C1756 0.929 . S
H1727 C1759 0.928 . S
O1728 Co1712 2.057 . S
O1728 C1716 1.232 . S
H1729 C1748 0.929 . S
H1730 C1749 0.929 . S
H1731 C1761 0.931 . S
H1732 C1753 0.929 . S
H1733 C1762 0.930 . S
H1734 C1754 0.931 . S
O1735 Co1711 2.097 . S
O1735 C1763 1.214 . S
H1736 C1764 0.929 . S
H1737 C1765 0.929 . S
H1738 C1766 0.930 . S
H1739 C1767 0.929 1_565 S
H1740 C1769 0.930 . S
H1741 C1746 0.930 1_565 S
H1742 C1750 0.930 1_565 S
O1743 Co1712 2.037 . S
O1743 C1763 1.234 . S
C1744 O1718 1.269 . S
C1744 O1719 1.257 . S
C1745 H1720 0.930 . S
C1745 C1748 1.388 . S
C1745 C1750 1.418 . S
C1746 H1741 0.930 1_545 S
C1746 C1749 1.404 . S
C1746 C1750 1.353 . S
N1747 Co1712 2.145 . S
N1747 C1748 1.397 . S
N1747 C1749 1.334 . S
C1748 H1729 0.929 . S
C1748 C1745 1.388 . S
C1748 N1747 1.397 . S
C1749 H1730 0.929 . S
C1749 C1746 1.404 . S
C1749 N1747 1.334 . S
C1750 H1742 0.930 1_545 S
C1750 C1745 1.418 . S
C1750 C1746 1.353 . S
C1751 H1721 0.930 . S
C1751 N1752 1.330 . S
C1751 C1753 1.446 . S
N1752 Co1711 2.151 . S
N1752 C1751 1.330 . S
N1752 C1756 1.418 . S
C1753 H1732 0.929 . S
C1753 C1751 1.446 . S
C1753 C1754 1.332 . S
C1754 H1734 0.931 . S
C1754 C1753 1.332 . S
C1754 C1755 1.267 . S
C1755 H1723 0.929 . S
C1755 C1754 1.267 . S
C1755 C1756 1.251 . S
C1756 H1726 0.929 . S
C1756 N1752 1.418 . S
C1756 C1755 1.251 . S
C1757 H1724 0.930 . S
C1757 C1759 1.406 . S
C1757 C1762 1.261 . S
C1758 H1725 0.930 . S
C1758 N1760 1.325 . S
C1758 C1761 1.357 . S
C1759 H1727 0.928 . S
C1759 C1757 1.406 . S
C1759 N1760 1.261 . S
N1760 Co1711 2.214 . S
N1760 C1758 1.325 . S
N1760 C1759 1.261 . S
C1761 H1731 0.931 . S
C1761 C1758 1.357 . S
C1761 C1762 1.312 . S
C1762 H1733 0.930 . S
C1762 C1757 1.261 . S
C1762 C1761 1.312 . S
C1763 O1735 1.214 . S
C1763 O1743 1.234 . S
C1764 H1736 0.929 . S
C1764 C1767 1.391 . S
C1764 C1769 1.391 . S
C1765 H1737 0.929 . S
C1765 C1766 1.390 . S
C1765 N1768 1.391 . S
C1766 H1738 0.930 . S
C1766 C1765 1.390 . S
C1766 C1767 1.392 . S
C1767 H1739 0.929 1_545 S
C1767 C1764 1.391 . S
C1767 C1766 1.392 . S
N1768 Co1712 2.257 . S
N1768 C1765 1.391 . S
N1768 C1769 1.388 . S
C1769 H1740 0.930 . S
C1769 C1764 1.391 . S
C1769 N1768 1.388 . S
Co1770 O1772 2.143 1_655 S
Co1770 O1778 2.074 . S
Co1770 O1781 2.093 . S
Co1770 O1794 2.097 . S
Co1770 N1811 2.151 1_655 S
Co1770 N1819 2.214 . S
Co1771 O1772 2.160 1_655 S
Co1771 O1777 2.058 1_655 S
Co1771 O1787 2.057 1_655 S
Co1771 O1802 2.037 . S
Co1771 N1806 2.145 . S
Co1771 N1827 2.257 . S
O1772 Co1770 2.143 1_455 S
O1772 Co1771 2.160 1_455 S
C1773 O1774 1.279 . S
C1773 O1781 1.224 . S
O1774 C1773 1.279 . S
C1775 O1776 1.245 . S
C1775 O1787 1.232 . S
O1776 C1775 1.245 . S
O1777 Co1771 2.058 1_455 S
O1777 C1803 1.269 . S
O1778 Co1770 2.074 . S
O1778 C1803 1.257 1_655 S
H1779 C1804 0.930 . S
H1780 C1810 0.930 . S
O1781 Co1770 2.093 . S
O1781 C1773 1.224 . S
H1782 C1814 0.929 . S
H1783 C1816 0.930 . S
H1784 C1817 0.930 . S
H1785 C1815 0.929 . S
H1786 C1818 0.928 . S
O1787 Co1771 2.057 1_455 S
O1787 C1775 1.232 . S
H1788 C1807 0.929 . S
H1789 C1808 0.929 1_455 S
H1790 C1820 0.931 . S
H1791 C1812 0.929 . S
H1792 C1821 0.930 . S
H1793 C1813 0.931 . S
O1794 Co1770 2.097 . S
O1794 C1822 1.214 . S
H1795 C1823 0.936 . S
H1796 C1824 0.929 . S
H1797 C1825 0.930 . S
H1798 C1826 0.929 . S
H1799 C1828 0.930 1_455 S
H1800 C1805 0.930 1_455 S
H1801 C1809 0.930 . S
O1802 Co1771 2.037 . S
O1802 C1822 1.234 . S
C1803 O1777 1.269 . S
C1803 O1778 1.257 1_455 S
C1804 H1779 0.930 . S
C1804 C1807 1.388 . S
C1804 C1809 1.418 . S
C1805 H1800 0.930 1_655 S
C1805 C1808 1.404 . S
C1805 C1809 1.353 . S
N1806 Co1771 2.145 . S
N1806 C1807 1.397 . S
N1806 C1808 1.334 . S
C1807 H1788 0.929 . S
C1807 C1804 1.388 . S
C1807 N1806 1.397 . S
C1808 H1789 0.929 1_655 S
C1808 C1805 1.404 . S
C1808 N1806 1.334 . S
C1809 H1801 0.930 . S
C1809 C1804 1.418 . S
C1809 C1805 1.353 . S
C1810 H1780 0.930 . S
C1810 N1811 1.330 . S
C1810 C1812 1.446 . S
N1811 Co1770 2.151 1_455 S
N1811 C1810 1.330 . S
N1811 C1815 1.418 . S
C1812 H1791 0.929 . S
C1812 C1810 1.446 . S
C1812 C1813 1.332 . S
C1813 H1793 0.931 . S
C1813 C1812 1.332 . S
C1813 C1814 1.267 . S
C1814 H1782 0.929 . S
C1814 C1813 1.267 . S
C1814 C1815 1.251 . S
C1815 H1785 0.929 . S
C1815 N1811 1.418 . S
C1815 C1814 1.251 . S
C1816 H1783 0.930 . S
C1816 C1818 1.406 . S
C1816 C1821 1.261 . S
C1817 H1784 0.930 . S
C1817 N1819 1.325 . S
C1817 C1820 1.357 . S
C1818 H1786 0.928 . S
C1818 C1816 1.406 . S
C1818 N1819 1.261 . S
N1819 Co1770 2.214 . S
N1819 C1817 1.325 . S
N1819 C1818 1.261 . S
C1820 H1790 0.931 . S
C1820 C1817 1.357 . S
C1820 C1821 1.312 . S
C1821 H1792 0.930 . S
C1821 C1816 1.261 . S
C1821 C1820 1.312 . S
C1822 O1794 1.214 . S
C1822 O1802 1.234 . S
C1823 H1795 0.936 . S
C1823 C1826 1.391 . S
C1823 C1828 1.391 . S
C1824 H1796 0.929 . S
C1824 C1825 1.390 . S
C1824 N1827 1.391 . S
C1825 H1797 0.930 . S
C1825 C1824 1.390 . S
C1825 C1826 1.392 . S
C1826 H1798 0.929 . S
C1826 C1823 1.391 . S
C1826 C1825 1.392 . S
N1827 Co1771 2.257 . S
N1827 C1824 1.391 . S
N1827 C1828 1.388 . S
C1828 H1799 0.930 1_655 S
C1828 C1823 1.391 . S
C1828 N1827 1.388 . S
Co1829 O1831 2.143 . S
Co1829 O1837 2.074 . S
Co1829 O1840 2.093 . S
Co1829 O1853 2.097 . S
Co1829 N1870 2.151 . S
Co1829 N1878 2.214 . S
Co1830 O1831 2.160 . S
Co1830 O1836 2.058 . S
Co1830 O1846 2.057 . S
Co1830 O1861 2.037 . S
Co1830 N1865 2.145 . S
Co1830 N1886 2.257 . S
O1831 Co1829 2.143 . S
O1831 Co1830 2.160 . S
C1832 O1833 1.278 . S
C1832 O1840 1.224 . S
O1833 C1832 1.278 . S
C1834 O1835 1.245 . S
C1834 O1846 1.232 . S
O1835 C1834 1.245 . S
O1836 Co1830 2.058 . S
O1836 C1862 1.269 . S
O1837 Co1829 2.074 . S
O1837 C1862 1.257 . S
H1838 C1863 0.930 . S
H1839 C1869 0.930 . S
O1840 Co1829 2.093 . S
O1840 C1832 1.224 . S
H1841 C1873 0.929 . S
H1842 C1875 0.930 . S
H1843 C1876 0.930 . S
H1844 C1874 0.929 . S
H1845 C1877 0.928 . S
O1846 Co1830 2.057 . S
O1846 C1834 1.232 . S
H1847 C1866 0.929 . S
H1848 C1867 0.929 . S
H1849 C1879 0.931 . S
H1850 C1871 0.929 . S
H1851 C1880 0.930 . S
H1852 C1872 0.931 . S
O1853 Co1829 2.097 . S
O1853 C1881 1.214 . S
H1854 C1882 0.929 . S
H1855 C1883 0.929 . S
H1856 C1884 0.930 . S
H1857 C1885 0.929 . S
H1858 C1887 0.930 . S
H1859 C1864 0.930 . S
H1860 C1868 0.930 . S
O1861 Co1830 2.037 . S
O1861 C1881 1.234 . S
C1862 O1836 1.269 . S
C1862 O1837 1.257 . S
C1863 H1838 0.930 . S
C1863 C1866 1.388 . S
C1863 C1868 1.418 . S
C1864 H1859 0.930 . S
C1864 C1867 1.404 . S
C1864 C1868 1.353 . S
N1865 Co1830 2.145 . S
N1865 C1866 1.397 . S
N1865 C1867 1.334 . S
C1866 H1847 0.929 . S
C1866 C1863 1.388 . S
C1866 N1865 1.397 . S
C1867 H1848 0.929 . S
C1867 C1864 1.404 . S
C1867 N1865 1.334 . S
C1868 H1860 0.930 . S
C1868 C1863 1.418 . S
C1868 C1864 1.353 . S
C1869 H1839 0.930 . S
C1869 N1870 1.330 . S
C1869 C1871 1.446 . S
N1870 Co1829 2.151 . S
N1870 C1869 1.330 . S
N1870 C1874 1.418 . S
C1871 H1850 0.929 . S
C1871 C1869 1.446 . S
C1871 C1872 1.332 . S
C1872 H1852 0.931 . S
C1872 C1871 1.332 . S
C1872 C1873 1.267 . S
C1873 H1841 0.929 . S
C1873 C1872 1.267 . S
C1873 C1874 1.251 . S
C1874 H1844 0.929 . S
C1874 N1870 1.418 . S
C1874 C1873 1.251 . S
C1875 H1842 0.930 . S
C1875 C1877 1.406 . S
C1875 C1880 1.261 . S
C1876 H1843 0.930 . S
C1876 N1878 1.325 . S
C1876 C1879 1.357 . S
C1877 H1845 0.928 . S
C1877 C1875 1.406 . S
C1877 N1878 1.261 . S
N1878 Co1829 2.214 . S
N1878 C1876 1.325 . S
N1878 C1877 1.261 . S
C1879 H1849 0.931 . S
C1879 C1876 1.357 . S
C1879 C1880 1.312 . S
C1880 H1851 0.930 . S
C1880 C1875 1.261 . S
C1880 C1879 1.312 . S
C1881 O1853 1.214 . S
C1881 O1861 1.234 . S
C1882 H1854 0.929 . S
C1882 C1885 1.391 . S
C1882 C1887 1.391 . S
C1883 H1855 0.929 . S
C1883 C1884 1.390 . S
C1883 N1886 1.391 . S
C1884 H1856 0.930 . S
C1884 C1883 1.390 . S
C1884 C1885 1.392 . S
C1885 H1857 0.929 . S
C1885 C1882 1.391 . S
C1885 C1884 1.392 . S
N1886 Co1830 2.257 . S
N1886 C1883 1.391 . S
N1886 C1887 1.388 . S
C1887 H1858 0.930 . S
C1887 C1882 1.391 . S
C1887 N1886 1.388 . S
H1888 C1896 0.950 . S
H1889 C1901 0.950 . S
H1890 C1898 0.950 . S
H1891 C1900 0.950 . S
H1892 C1902 0.950 . S
H1893 C1904 0.950 . S
H1894 C1906 0.950 . S
H1895 C1907 0.950 . S
C1896 H1888 0.950 . S
C1896 C1897 1.386 . S
C1896 C1898 1.391 . S
C1897 C1896 1.386 . S
C1897 C1901 1.393 . S
C1898 H1890 0.950 . S
C1898 C1896 1.391 . S
C1898 C1899 1.400 . S
C1899 C1898 1.400 . S
C1899 C1900 1.398 . S
C1899 C1905 1.491 . S
C1900 H1891 0.950 . S
C1900 C1899 1.398 . S
C1900 C1901 1.391 . S
C1901 H1889 0.950 . S
C1901 C1897 1.393 . S
C1901 C1900 1.391 . S
C1902 H1892 0.950 . S
C1902 C1903 1.386 . S
C1902 C1904 1.391 . S
C1903 C1902 1.386 . S
C1903 C1907 1.393 . S
C1904 H1893 0.950 . S
C1904 C1902 1.391 . S
C1904 C1905 1.400 . S
C1905 C1899 1.491 . S
C1905 C1904 1.400 . S
C1905 C1906 1.398 . S
C1906 H1894 0.950 . S
C1906 C1905 1.398 . S
C1906 C1907 1.391 . S
C1907 H1895 0.950 . S
C1907 C1903 1.393 . S
C1907 C1906 1.391 . S
H1908 C1916 0.950 . S
H1909 C1921 0.950 . S
H1910 C1918 0.950 . S
H1911 C1920 0.950 . S
H1912 C1922 0.950 . S
H1913 C1924 0.950 . S
H1914 C1926 0.950 . S
H1915 C1927 0.950 . S
C1916 H1908 0.950 . S
C1916 C1917 1.386 . S
C1916 C1918 1.391 . S
C1917 C1916 1.386 . S
C1917 C1921 1.393 . S
C1918 H1910 0.950 . S
C1918 C1916 1.391 . S
C1918 C1919 1.400 . S
C1919 C1918 1.400 . S
C1919 C1920 1.398 . S
C1919 C1925 1.491 . S
C1920 H1911 0.950 . S
C1920 C1919 1.398 . S
C1920 C1921 1.391 . S
C1921 H1909 0.950 . S
C1921 C1917 1.393 . S
C1921 C1920 1.391 . S
C1922 H1912 0.950 . S
C1922 C1923 1.386 . S
C1922 C1924 1.391 . S
C1923 C1922 1.386 . S
C1923 C1927 1.393 . S
C1924 H1913 0.950 . S
C1924 C1922 1.391 . S
C1924 C1925 1.400 . S
C1925 C1919 1.491 . S
C1925 C1924 1.400 . S
C1925 C1926 1.398 . S
C1926 H1914 0.950 . S
C1926 C1925 1.398 . S
C1926 C1927 1.391 . S
C1927 H1915 0.950 . S
C1927 C1923 1.393 . S
C1927 C1926 1.391 . S
H1928 C1936 0.950 . S
H1929 C1941 0.950 . S
H1930 C1938 0.950 . S
H1931 C1940 0.950 . S
H1932 C1942 0.950 . S
H1933 C1944 0.950 . S
H1934 C1946 0.950 . S
H1935 C1947 0.950 . S
C1936 H1928 0.950 . S
C1936 C1937 1.386 . S
C1936 C1938 1.391 . S
C1937 C1936 1.386 . S
C1937 C1941 1.393 . S
C1938 H1930 0.950 . S
C1938 C1936 1.391 . S
C1938 C1939 1.400 . S
C1939 C1938 1.400 . S
C1939 C1940 1.398 . S
C1939 C1945 1.491 . S
C1940 H1931 0.950 . S
C1940 C1939 1.398 . S
C1940 C1941 1.391 . S
C1941 H1929 0.950 . S
C1941 C1937 1.393 . S
C1941 C1940 1.391 . S
C1942 H1932 0.950 . S
C1942 C1943 1.386 . S
C1942 C1944 1.391 . S
C1943 C1942 1.386 . S
C1943 C1947 1.393 . S
C1944 H1933 0.950 . S
C1944 C1942 1.391 . S
C1944 C1945 1.400 . S
C1945 C1939 1.491 . S
C1945 C1944 1.400 . S
C1945 C1946 1.398 . S
C1946 H1934 0.950 . S
C1946 C1945 1.398 . S
C1946 C1947 1.391 . S
C1947 H1935 0.950 . S
C1947 C1943 1.393 . S
C1947 C1946 1.391 . S
H1948 C1956 0.950 . S
H1949 C1961 0.950 . S
H1950 C1958 0.950 . S
H1951 C1960 0.950 . S
H1952 C1962 0.950 . S
H1953 C1964 0.950 . S
H1954 C1966 0.950 . S
H1955 C1967 0.950 . S
C1956 H1948 0.950 . S
C1956 C1957 1.386 . S
C1956 C1958 1.391 . S
C1957 C1956 1.386 . S
C1957 C1961 1.393 . S
C1958 H1950 0.950 . S
C1958 C1956 1.391 . S
C1958 C1959 1.400 . S
C1959 C1958 1.400 . S
C1959 C1960 1.398 . S
C1959 C1965 1.491 . S
C1960 H1951 0.950 . S
C1960 C1959 1.398 . S
C1960 C1961 1.391 . S
C1961 H1949 0.950 . S
C1961 C1957 1.393 . S
C1961 C1960 1.391 . S
C1962 H1952 0.950 . S
C1962 C1963 1.386 . S
C1962 C1964 1.391 . S
C1963 C1962 1.386 . S
C1963 C1967 1.393 . S
C1964 H1953 0.950 . S
C1964 C1962 1.391 . S
C1964 C1965 1.400 . S
C1965 C1959 1.491 . S
C1965 C1964 1.400 . S
C1965 C1966 1.398 . S
C1966 H1954 0.950 . S
C1966 C1965 1.398 . S
C1966 C1967 1.391 . S
C1967 H1955 0.950 . S
C1967 C1963 1.393 . S
C1967 C1966 1.391 . S
H1968 C1976 0.950 . S
H1969 C1981 0.950 . S
H1970 C1978 0.950 . S
H1971 C1980 0.950 . S
H1972 C1982 0.950 . S
H1973 C1984 0.950 . S
H1974 C1986 0.950 . S
H1975 C1987 0.950 . S
C1976 H1968 0.950 . S
C1976 C1977 1.386 . S
C1976 C1978 1.391 . S
C1977 C1976 1.386 . S
C1977 C1981 1.393 . S
C1978 H1970 0.950 . S
C1978 C1976 1.391 . S
C1978 C1979 1.400 . S
C1979 C1978 1.400 . S
C1979 C1980 1.398 . S
C1979 C1985 1.491 . S
C1980 H1971 0.950 . S
C1980 C1979 1.398 . S
C1980 C1981 1.391 . S
C1981 H1969 0.950 . S
C1981 C1977 1.393 . S
C1981 C1980 1.391 . S
C1982 H1972 0.950 . S
C1982 C1983 1.386 . S
C1982 C1984 1.391 . S
C1983 C1982 1.386 . S
C1983 C1987 1.393 . S
C1984 H1973 0.950 . S
C1984 C1982 1.391 . S
C1984 C1985 1.400 . S
C1985 C1979 1.491 . S
C1985 C1984 1.400 . S
C1985 C1986 1.398 . S
C1986 H1974 0.950 . S
C1986 C1985 1.398 . S
C1986 C1987 1.391 . S
C1987 H1975 0.950 . S
C1987 C1983 1.393 . S
C1987 C1986 1.391 . S
H1988 C1996 0.950 . S
H1989 C2001 0.950 . S
H1990 C1998 0.950 . S
H1991 C2000 0.950 . S
H1992 C2002 0.950 . S
H1993 C2004 0.950 . S
H1994 C2006 0.950 . S
H1995 C2007 0.950 . S
C1996 H1988 0.950 . S
C1996 C1997 1.386 . S
C1996 C1998 1.391 . S
C1997 C1996 1.386 . S
C1997 C2001 1.393 . S
C1998 H1990 0.950 . S
C1998 C1996 1.391 . S
C1998 C1999 1.400 . S
C1999 C1998 1.400 . S
C1999 C2000 1.398 . S
C1999 C2005 1.491 . S
C2000 H1991 0.950 . S
C2000 C1999 1.398 . S
C2000 C2001 1.391 . S
C2001 H1989 0.950 . S
C2001 C1997 1.393 . S
C2001 C2000 1.391 . S
C2002 H1992 0.950 . S
C2002 C2003 1.386 . S
C2002 C2004 1.391 . S
C2003 C2002 1.386 . S
C2003 C2007 1.393 . S
C2004 H1993 0.950 . S
C2004 C2002 1.391 . S
C2004 C2005 1.400 . S
C2005 C1999 1.491 . S
C2005 C2004 1.400 . S
C2005 C2006 1.398 . S
C2006 H1994 0.950 . S
C2006 C2005 1.398 . S
C2006 C2007 1.391 . S
C2007 H1995 0.950 . S
C2007 C2003 1.393 . S
C2007 C2006 1.391 . S
H2008 C2016 0.950 . S
H2009 C2021 0.950 . S
H2010 C2018 0.950 . S
H2011 C2020 0.950 . S
H2012 C2022 0.950 . S
H2013 C2024 0.950 . S
H2014 C2026 0.950 . S
H2015 C2027 0.950 . S
C2016 H2008 0.950 . S
C2016 C2017 1.386 . S
C2016 C2018 1.391 . S
C2017 C2016 1.386 . S
C2017 C2021 1.393 . S
C2018 H2010 0.950 . S
C2018 C2016 1.391 . S
C2018 C2019 1.400 . S
C2019 C2018 1.400 . S
C2019 C2020 1.398 . S
C2019 C2025 1.491 . S
C2020 H2011 0.950 . S
C2020 C2019 1.398 . S
C2020 C2021 1.391 . S
C2021 H2009 0.950 . S
C2021 C2017 1.393 . S
C2021 C2020 1.391 . S
C2022 H2012 0.950 . S
C2022 C2023 1.386 . S
C2022 C2024 1.391 . S
C2023 C2022 1.386 . S
C2023 C2027 1.393 . S
C2024 H2013 0.950 . S
C2024 C2022 1.391 . S
C2024 C2025 1.400 . S
C2025 C2019 1.491 . S
C2025 C2024 1.400 . S
C2025 C2026 1.398 . S
C2026 H2014 0.950 . S
C2026 C2025 1.398 . S
C2026 C2027 1.391 . S
C2027 H2015 0.950 . S
C2027 C2023 1.393 . S
C2027 C2026 1.391 . S
H2028 C2036 0.950 . S
H2029 C2041 0.950 . S
H2030 C2038 0.950 . S
H2031 C2040 0.950 . S
H2032 C2042 0.950 . S
H2033 C2044 0.950 . S
H2034 C2046 0.950 . S
H2035 C2047 0.950 . S
C2036 H2028 0.950 . S
C2036 C2037 1.386 . S
C2036 C2038 1.391 . S
C2037 C2036 1.386 . S
C2037 C2041 1.393 . S
C2038 H2030 0.950 . S
C2038 C2036 1.391 . S
C2038 C2039 1.400 . S
C2039 C2038 1.400 . S
C2039 C2040 1.398 . S
C2039 C2045 1.491 . S
C2040 H2031 0.950 . S
C2040 C2039 1.398 . S
C2040 C2041 1.391 . S
C2041 H2029 0.950 . S
C2041 C2037 1.393 . S
C2041 C2040 1.391 . S
C2042 H2032 0.950 . S
C2042 C2043 1.386 . S
C2042 C2044 1.391 . S
C2043 C2042 1.386 . S
C2043 C2047 1.393 . S
C2044 H2033 0.950 . S
C2044 C2042 1.391 . S
C2044 C2045 1.400 . S
C2045 C2039 1.491 . S
C2045 C2044 1.400 . S
C2045 C2046 1.398 . S
C2046 H2034 0.950 . S
C2046 C2045 1.398 . S
C2046 C2047 1.391 . S
C2047 H2035 0.950 . S
C2047 C2043 1.393 . S
C2047 C2046 1.391 . S
H2048 C2056 0.950 . S
H2049 C2061 0.950 . S
H2050 C2058 0.950 . S
H2051 C2060 0.950 . S
H2052 C2062 0.950 . S
H2053 C2064 0.950 . S
H2054 C2066 0.950 . S
H2055 C2067 0.950 . S
C2056 H2048 0.950 . S
C2056 C2057 1.386 . S
C2056 C2058 1.391 . S
C2057 C2056 1.386 . S
C2057 C2061 1.393 1_655 S
C2058 H2050 0.950 . S
C2058 C2056 1.391 . S
C2058 C2059 1.400 . S
C2059 C2058 1.400 . S
C2059 C2060 1.398 1_655 S
C2059 C2065 1.491 . S
C2060 H2051 0.950 . S
C2060 C2059 1.398 1_455 S
C2060 C2061 1.391 . S
C2061 H2049 0.950 . S
C2061 C2057 1.393 1_455 S
C2061 C2060 1.391 . S
C2062 H2052 0.950 . S
C2062 C2063 1.386 1_455 S
C2062 C2064 1.391 . S
C2063 C2062 1.386 1_655 S
C2063 C2067 1.393 . S
C2064 H2053 0.950 . S
C2064 C2062 1.391 . S
C2064 C2065 1.400 1_455 S
C2065 C2059 1.491 . S
C2065 C2064 1.400 1_655 S
C2065 C2066 1.398 . S
C2066 H2054 0.950 . S
C2066 C2065 1.398 . S
C2066 C2067 1.391 . S
C2067 H2055 0.950 . S
C2067 C2063 1.393 . S
C2067 C2066 1.391 . S
H2068 C2076 0.950 . S
H2069 C2081 0.950 . S
H2070 C2078 0.950 . S
H2071 C2080 0.950 . S
H2072 C2082 0.950 . S
H2073 C2084 0.950 . S
H2074 C2086 0.950 . S
H2075 C2087 0.950 . S
C2076 H2068 0.950 . S
C2076 C2077 1.386 . S
C2076 C2078 1.391 . S
C2077 C2076 1.386 . S
C2077 C2081 1.393 . S
C2078 H2070 0.950 . S
C2078 C2076 1.391 . S
C2078 C2079 1.400 . S
C2079 C2078 1.400 . S
C2079 C2080 1.398 . S
C2079 C2085 1.491 . S
C2080 H2071 0.950 . S
C2080 C2079 1.398 . S
C2080 C2081 1.391 . S
C2081 H2069 0.950 . S
C2081 C2077 1.393 . S
C2081 C2080 1.391 . S
C2082 H2072 0.950 . S
C2082 C2083 1.386 . S
C2082 C2084 1.391 . S
C2083 C2082 1.386 . S
C2083 C2087 1.393 . S
C2084 H2073 0.950 . S
C2084 C2082 1.391 . S
C2084 C2085 1.400 . S
C2085 C2079 1.491 . S
C2085 C2084 1.400 . S
C2085 C2086 1.398 . S
C2086 H2074 0.950 . S
C2086 C2085 1.398 . S
C2086 C2087 1.391 . S
C2087 H2075 0.950 . S
C2087 C2083 1.393 . S
C2087 C2086 1.391 . S
H2088 C2096 0.950 . S
H2089 C2101 0.950 . S
H2090 C2098 0.950 . S
H2091 C2100 0.950 . S
H2092 C2102 0.950 . S
H2093 C2104 0.950 . S
H2094 C2106 0.950 . S
H2095 C2107 0.950 . S
C2096 H2088 0.950 . S
C2096 C2097 1.386 . S
C2096 C2098 1.391 . S
C2097 C2096 1.386 . S
C2097 C2101 1.393 1_455 S
C2098 H2090 0.950 . S
C2098 C2096 1.391 . S
C2098 C2099 1.400 . S
C2099 C2098 1.400 . S
C2099 C2100 1.398 1_455 S
C2099 C2105 1.491 . S
C2100 H2091 0.950 . S
C2100 C2099 1.398 1_655 S
C2100 C2101 1.391 . S
C2101 H2089 0.950 . S
C2101 C2097 1.393 1_655 S
C2101 C2100 1.391 . S
C2102 H2092 0.950 . S
C2102 C2103 1.386 1_655 S
C2102 C2104 1.391 . S
C2103 C2102 1.386 1_455 S
C2103 C2107 1.393 . S
C2104 H2093 0.950 . S
C2104 C2102 1.391 . S
C2104 C2105 1.400 1_655 S
C2105 C2099 1.491 . S
C2105 C2104 1.400 1_455 S
C2105 C2106 1.398 . S
C2106 H2094 0.950 . S
C2106 C2105 1.398 . S
C2106 C2107 1.391 . S
C2107 H2095 0.950 . S
C2107 C2103 1.393 . S
C2107 C2106 1.391 . S
H2108 C2116 0.950 . S
H2109 C2121 0.950 . S
H2110 C2118 0.950 . S
H2111 C2120 0.950 . S
H2112 C2122 0.950 . S
H2113 C2124 0.950 . S
H2114 C2126 0.950 . S
H2115 C2127 0.950 . S
C2116 H2108 0.950 . S
C2116 C2117 1.386 . S
C2116 C2118 1.391 . S
C2117 C2116 1.386 . S
C2117 C2121 1.393 . S
C2118 H2110 0.950 . S
C2118 C2116 1.391 . S
C2118 C2119 1.400 . S
C2119 C2118 1.400 . S
C2119 C2120 1.398 . S
C2119 C2125 1.491 . S
C2120 H2111 0.950 . S
C2120 C2119 1.398 . S
C2120 C2121 1.391 . S
C2121 H2109 0.950 . S
C2121 C2117 1.393 . S
C2121 C2120 1.391 . S
C2122 H2112 0.950 . S
C2122 C2123 1.386 . S
C2122 C2124 1.391 . S
C2123 C2122 1.386 . S
C2123 C2127 1.393 . S
C2124 H2113 0.950 . S
C2124 C2122 1.391 . S
C2124 C2125 1.400 . S
C2125 C2119 1.491 . S
C2125 C2124 1.400 . S
C2125 C2126 1.398 . S
C2126 H2114 0.950 . S
C2126 C2125 1.398 . S
C2126 C2127 1.391 . S
C2127 H2115 0.950 . S
C2127 C2123 1.393 . S
C2127 C2126 1.391 . S
H2128 C2136 0.950 . S
H2129 C2141 0.950 . S
H2130 C2138 0.950 . S
H2131 C2140 0.950 . S
H2132 C2142 0.950 . S
H2133 C2144 0.950 . S
H2134 C2146 0.950 . S
H2135 C2147 0.950 . S
C2136 H2128 0.950 . S
C2136 C2137 1.386 1_455 S
C2136 C2138 1.391 . S
C2137 C2136 1.386 1_655 S
C2137 C2141 1.393 . S
C2138 H2130 0.950 . S
C2138 C2136 1.391 . S
C2138 C2139 1.400 1_455 S
C2139 C2138 1.400 1_655 S
C2139 C2140 1.398 . S
C2139 C2145 1.491 . S
C2140 H2131 0.950 . S
C2140 C2139 1.398 . S
C2140 C2141 1.391 . S
C2141 H2129 0.950 . S
C2141 C2137 1.393 . S
C2141 C2140 1.391 . S
C2142 H2132 0.950 . S
C2142 C2143 1.386 . S
C2142 C2144 1.391 . S
C2143 C2142 1.386 . S
C2143 C2147 1.393 1_655 S
C2144 H2133 0.950 . S
C2144 C2142 1.391 . S
C2144 C2145 1.400 . S
C2145 C2139 1.491 . S
C2145 C2144 1.400 . S
C2145 C2146 1.398 1_655 S
C2146 H2134 0.950 . S
C2146 C2145 1.398 1_455 S
C2146 C2147 1.391 . S
C2147 H2135 0.950 . S
C2147 C2143 1.393 1_455 S
C2147 C2146 1.391 . S
H2148 C2156 0.950 . S
H2149 C2161 0.950 . S
H2150 C2158 0.950 . S
H2151 C2160 0.950 . S
H2152 C2162 0.950 . S
H2153 C2164 0.950 . S
H2154 C2166 0.950 . S
H2155 C2167 0.950 . S
C2156 H2148 0.950 . S
C2156 C2157 1.386 . S
C2156 C2158 1.391 . S
C2157 C2156 1.386 . S
C2157 C2161 1.393 . S
C2158 H2150 0.950 . S
C2158 C2156 1.391 . S
C2158 C2159 1.400 . S
C2159 C2158 1.400 . S
C2159 C2160 1.398 . S
C2159 C2165 1.491 . S
C2160 H2151 0.950 . S
C2160 C2159 1.398 . S
C2160 C2161 1.391 . S
C2161 H2149 0.950 . S
C2161 C2157 1.393 . S
C2161 C2160 1.391 . S
C2162 H2152 0.950 . S
C2162 C2163 1.386 . S
C2162 C2164 1.391 . S
C2163 C2162 1.386 . S
C2163 C2167 1.393 . S
C2164 H2153 0.950 . S
C2164 C2162 1.391 . S
C2164 C2165 1.400 . S
C2165 C2159 1.491 . S
C2165 C2164 1.400 . S
C2165 C2166 1.398 . S
C2166 H2154 0.950 . S
C2166 C2165 1.398 . S
C2166 C2167 1.391 . S
C2167 H2155 0.950 . S
C2167 C2163 1.393 . S
C2167 C2166 1.391 . S
H2168 C2176 0.950 . S
H2169 C2181 0.950 . S
H2170 C2178 0.950 . S
H2171 C2180 0.950 . S
H2172 C2182 0.950 . S
H2173 C2184 0.950 . S
H2174 C2186 0.950 . S
H2175 C2187 0.950 . S
C2176 H2168 0.950 . S
C2176 C2177 1.386 . S
C2176 C2178 1.391 . S
C2177 C2176 1.386 . S
C2177 C2181 1.393 1_455 S
C2178 H2170 0.950 . S
C2178 C2176 1.391 . S
C2178 C2179 1.400 . S
C2179 C2178 1.400 . S
C2179 C2180 1.398 1_455 S
C2179 C2185 1.491 . S
C2180 H2171 0.950 . S
C2180 C2179 1.398 1_655 S
C2180 C2181 1.391 . S
C2181 H2169 0.950 . S
C2181 C2177 1.393 1_655 S
C2181 C2180 1.391 . S
C2182 H2172 0.950 . S
C2182 C2183 1.386 1_655 S
C2182 C2184 1.391 . S
C2183 C2182 1.386 1_455 S
C2183 C2187 1.393 . S
C2184 H2173 0.950 . S
C2184 C2182 1.391 . S
C2184 C2185 1.400 1_655 S
C2185 C2179 1.491 . S
C2185 C2184 1.400 1_455 S
C2185 C2186 1.398 . S
C2186 H2174 0.950 . S
C2186 C2185 1.398 . S
C2186 C2187 1.391 . S
C2187 H2175 0.950 . S
C2187 C2183 1.393 . S
C2187 C2186 1.391 . S
H2188 C2196 0.950 . S
H2189 C2201 0.950 . S
H2190 C2198 0.950 . S
H2191 C2200 0.950 . S
H2192 C2202 0.950 . S
H2193 C2204 0.950 . S
H2194 C2206 0.950 . S
H2195 C2207 0.950 . S
C2196 H2188 0.950 . S
C2196 C2197 1.386 . S
C2196 C2198 1.391 . S
C2197 C2196 1.386 . S
C2197 C2201 1.393 . S
C2198 H2190 0.950 . S
C2198 C2196 1.391 . S
C2198 C2199 1.400 . S
C2199 C2198 1.400 . S
C2199 C2200 1.398 . S
C2199 C2205 1.491 . S
C2200 H2191 0.950 . S
C2200 C2199 1.398 . S
C2200 C2201 1.391 . S
C2201 H2189 0.950 . S
C2201 C2197 1.393 . S
C2201 C2200 1.391 . S
C2202 H2192 0.950 . S
C2202 C2203 1.386 . S
C2202 C2204 1.391 . S
C2203 C2202 1.386 . S
C2203 C2207 1.393 . S
C2204 H2193 0.950 . S
C2204 C2202 1.391 . S
C2204 C2205 1.400 . S
C2205 C2199 1.491 . S
C2205 C2204 1.400 . S
C2205 C2206 1.398 . S
C2206 H2194 0.950 . S
C2206 C2205 1.398 . S
C2206 C2207 1.391 . S
C2207 H2195 0.950 . S
C2207 C2203 1.393 . S
C2207 C2206 1.391 . S
H2208 C2216 0.950 . S
H2209 C2221 0.950 . S
H2210 C2218 0.950 . S
H2211 C2220 0.950 . S
H2212 C2222 0.950 . S
H2213 C2224 0.950 . S
H2214 C2226 0.950 . S
H2215 C2227 0.950 . S
C2216 H2208 0.950 . S
C2216 C2217 1.386 . S
C2216 C2218 1.391 . S
C2217 C2216 1.386 . S
C2217 C2221 1.393 . S
C2218 H2210 0.950 . S
C2218 C2216 1.391 . S
C2218 C2219 1.400 . S
C2219 C2218 1.400 . S
C2219 C2220 1.398 . S
C2219 C2225 1.491 . S
C2220 H2211 0.950 . S
C2220 C2219 1.398 . S
C2220 C2221 1.391 . S
C2221 H2209 0.950 . S
C2221 C2217 1.393 . S
C2221 C2220 1.391 . S
C2222 H2212 0.950 . S
C2222 C2223 1.386 . S
C2222 C2224 1.391 . S
C2223 C2222 1.386 . S
C2223 C2227 1.393 . S
C2224 H2213 0.950 . S
C2224 C2222 1.391 . S
C2224 C2225 1.400 . S
C2225 C2219 1.491 . S
C2225 C2224 1.400 . S
C2225 C2226 1.398 . S
C2226 H2214 0.950 . S
C2226 C2225 1.398 . S
C2226 C2227 1.391 . S
C2227 H2215 0.950 . S
C2227 C2223 1.393 . S
C2227 C2226 1.391 . S
H2228 C2236 0.950 . S
H2229 C2241 0.950 . S
H2230 C2238 0.950 . S
H2231 C2240 0.950 . S
H2232 C2242 0.950 . S
H2233 C2244 0.950 . S
H2234 C2246 0.950 . S
H2235 C2247 0.950 . S
C2236 H2228 0.950 . S
C2236 C2237 1.386 . S
C2236 C2238 1.391 . S
C2237 C2236 1.386 . S
C2237 C2241 1.393 . S
C2238 H2230 0.950 . S
C2238 C2236 1.391 . S
C2238 C2239 1.400 . S
C2239 C2238 1.400 . S
C2239 C2240 1.398 . S
C2239 C2245 1.491 . S
C2240 H2231 0.950 . S
C2240 C2239 1.398 . S
C2240 C2241 1.391 . S
C2241 H2229 0.950 . S
C2241 C2237 1.393 . S
C2241 C2240 1.391 . S
C2242 H2232 0.950 . S
C2242 C2243 1.386 . S
C2242 C2244 1.391 . S
C2243 C2242 1.386 . S
C2243 C2247 1.393 . S
C2244 H2233 0.950 . S
C2244 C2242 1.391 . S
C2244 C2245 1.400 . S
C2245 C2239 1.491 . S
C2245 C2244 1.400 . S
C2245 C2246 1.398 . S
C2246 H2234 0.950 . S
C2246 C2245 1.398 . S
C2246 C2247 1.391 . S
C2247 H2235 0.950 . S
C2247 C2243 1.393 . S
C2247 C2246 1.391 . S
H2248 C2256 0.950 . S
H2249 C2261 0.950 . S
H2250 C2258 0.950 . S
H2251 C2260 0.950 . S
H2252 C2262 0.950 . S
H2253 C2264 0.950 . S
H2254 C2266 0.950 . S
H2255 C2267 0.950 . S
C2256 H2248 0.950 . S
C2256 C2257 1.386 . S
C2256 C2258 1.391 . S
C2257 C2256 1.386 . S
C2257 C2261 1.393 . S
C2258 H2250 0.950 . S
C2258 C2256 1.391 . S
C2258 C2259 1.400 . S
C2259 C2258 1.400 . S
C2259 C2260 1.398 . S
C2259 C2265 1.491 . S
C2260 H2251 0.950 . S
C2260 C2259 1.398 . S
C2260 C2261 1.391 . S
C2261 H2249 0.950 . S
C2261 C2257 1.393 . S
C2261 C2260 1.391 . S
C2262 H2252 0.950 . S
C2262 C2263 1.386 . S
C2262 C2264 1.391 . S
C2263 C2262 1.386 . S
C2263 C2267 1.393 . S
C2264 H2253 0.950 . S
C2264 C2262 1.391 . S
C2264 C2265 1.400 . S
C2265 C2259 1.491 . S
C2265 C2264 1.400 . S
C2265 C2266 1.398 . S
C2266 H2254 0.950 . S
C2266 C2265 1.398 . S
C2266 C2267 1.391 . S
C2267 H2255 0.950 . S
C2267 C2263 1.393 . S
C2267 C2266 1.391 . S
H2268 C2276 0.950 . S
H2269 C2281 0.950 . S
H2270 C2278 0.950 . S
H2271 C2280 0.950 . S
H2272 C2282 0.950 . S
H2273 C2284 0.950 . S
H2274 C2286 0.950 . S
H2275 C2287 0.950 . S
C2276 H2268 0.950 . S
C2276 C2277 1.386 . S
C2276 C2278 1.391 . S
C2277 C2276 1.386 . S
C2277 C2281 1.393 . S
C2278 H2270 0.950 . S
C2278 C2276 1.391 . S
C2278 C2279 1.400 . S
C2279 C2278 1.400 . S
C2279 C2280 1.398 . S
C2279 C2285 1.491 . S
C2280 H2271 0.950 . S
C2280 C2279 1.398 . S
C2280 C2281 1.391 . S
C2281 H2269 0.950 . S
C2281 C2277 1.393 . S
C2281 C2280 1.391 . S
C2282 H2272 0.950 . S
C2282 C2283 1.386 . S
C2282 C2284 1.391 . S
C2283 C2282 1.386 . S
C2283 C2287 1.393 . S
C2284 H2273 0.950 . S
C2284 C2282 1.391 . S
C2284 C2285 1.400 . S
C2285 C2279 1.491 . S
C2285 C2284 1.400 . S
C2285 C2286 1.398 . S
C2286 H2274 0.950 . S
C2286 C2285 1.398 . S
C2286 C2287 1.391 . S
C2287 H2275 0.950 . S
C2287 C2283 1.393 . S
C2287 C2286 1.391 . S
H2288 C2296 0.950 . S
H2289 C2301 0.950 . S
H2290 C2298 0.950 . S
H2291 C2300 0.950 . S
H2292 C2302 0.950 . S
H2293 C2304 0.950 . S
H2294 C2306 0.950 . S
H2295 C2307 0.950 . S
C2296 H2288 0.950 . S
C2296 C2297 1.386 . S
C2296 C2298 1.391 . S
C2297 C2296 1.386 . S
C2297 C2301 1.393 . S
C2298 H2290 0.950 . S
C2298 C2296 1.391 . S
C2298 C2299 1.400 . S
C2299 C2298 1.400 . S
C2299 C2300 1.398 . S
C2299 C2305 1.491 . S
C2300 H2291 0.950 . S
C2300 C2299 1.398 . S
C2300 C2301 1.391 . S
C2301 H2289 0.950 . S
C2301 C2297 1.393 . S
C2301 C2300 1.391 . S
C2302 H2292 0.950 . S
C2302 C2303 1.386 . S
C2302 C2304 1.391 . S
C2303 C2302 1.386 . S
C2303 C2307 1.393 . S
C2304 H2293 0.950 . S
C2304 C2302 1.391 . S
C2304 C2305 1.400 . S
C2305 C2299 1.491 . S
C2305 C2304 1.400 . S
C2305 C2306 1.398 . S
C2306 H2294 0.950 . S
C2306 C2305 1.398 . S
C2306 C2307 1.391 . S
C2307 H2295 0.950 . S
C2307 C2303 1.393 . S
C2307 C2306 1.391 . S
H2308 C2316 0.950 . S
H2309 C2321 0.950 . S
H2310 C2318 0.950 . S
H2311 C2320 0.950 . S
H2312 C2322 0.950 . S
H2313 C2324 0.950 . S
H2314 C2326 0.950 . S
H2315 C2327 0.950 . S
C2316 H2308 0.950 . S
C2316 C2317 1.386 . S
C2316 C2318 1.391 . S
C2317 C2316 1.386 . S
C2317 C2321 1.393 . S
C2318 H2310 0.950 . S
C2318 C2316 1.391 . S
C2318 C2319 1.400 . S
C2319 C2318 1.400 . S
C2319 C2320 1.398 . S
C2319 C2325 1.491 . S
C2320 H2311 0.950 . S
C2320 C2319 1.398 . S
C2320 C2321 1.391 . S
C2321 H2309 0.950 . S
C2321 C2317 1.393 . S
C2321 C2320 1.391 . S
C2322 H2312 0.950 . S
C2322 C2323 1.386 . S
C2322 C2324 1.391 . S
C2323 C2322 1.386 . S
C2323 C2327 1.393 . S
C2324 H2313 0.950 . S
C2324 C2322 1.391 . S
C2324 C2325 1.400 . S
C2325 C2319 1.491 . S
C2325 C2324 1.400 . S
C2325 C2326 1.398 . S
C2326 H2314 0.950 . S
C2326 C2325 1.398 . S
C2326 C2327 1.391 . S
C2327 H2315 0.950 . S
C2327 C2323 1.393 . S
C2327 C2326 1.391 . S
H2328 C2336 0.950 . S
H2329 C2341 0.950 . S
H2330 C2338 0.950 . S
H2331 C2340 0.950 . S
H2332 C2342 0.950 . S
H2333 C2344 0.950 . S
H2334 C2346 0.950 . S
H2335 C2347 0.950 . S
C2336 H2328 0.950 . S
C2336 C2337 1.386 . S
C2336 C2338 1.391 . S
C2337 C2336 1.386 . S
C2337 C2341 1.393 . S
C2338 H2330 0.950 . S
C2338 C2336 1.391 . S
C2338 C2339 1.400 . S
C2339 C2338 1.400 . S
C2339 C2340 1.398 . S
C2339 C2345 1.491 . S
C2340 H2331 0.950 . S
C2340 C2339 1.398 . S
C2340 C2341 1.391 . S
C2341 H2329 0.950 . S
C2341 C2337 1.393 . S
C2341 C2340 1.391 . S
C2342 H2332 0.950 . S
C2342 C2343 1.386 . S
C2342 C2344 1.391 . S
C2343 C2342 1.386 . S
C2343 C2347 1.393 . S
C2344 H2333 0.950 . S
C2344 C2342 1.391 . S
C2344 C2345 1.400 . S
C2345 C2339 1.491 . S
C2345 C2344 1.400 . S
C2345 C2346 1.398 . S
C2346 H2334 0.950 . S
C2346 C2345 1.398 . S
C2346 C2347 1.391 . S
C2347 H2335 0.950 . S
C2347 C2343 1.393 . S
C2347 C2346 1.391 . S
H2348 C2356 0.950 . S
H2349 C2361 0.950 . S
H2350 C2358 0.950 . S
H2351 C2360 0.950 . S
H2352 C2362 0.950 . S
H2353 C2364 0.950 . S
H2354 C2366 0.950 . S
H2355 C2367 0.950 . S
C2356 H2348 0.950 . S
C2356 C2357 1.386 . S
C2356 C2358 1.391 . S
C2357 C2356 1.386 . S
C2357 C2361 1.393 . S
C2358 H2350 0.950 . S
C2358 C2356 1.391 . S
C2358 C2359 1.400 . S
C2359 C2358 1.400 . S
C2359 C2360 1.398 . S
C2359 C2365 1.491 . S
C2360 H2351 0.950 . S
C2360 C2359 1.398 . S
C2360 C2361 1.391 . S
C2361 H2349 0.950 . S
C2361 C2357 1.393 . S
C2361 C2360 1.391 . S
C2362 H2352 0.950 . S
C2362 C2363 1.386 . S
C2362 C2364 1.391 . S
C2363 C2362 1.386 . S
C2363 C2367 1.393 . S
C2364 H2353 0.950 . S
C2364 C2362 1.391 . S
C2364 C2365 1.400 . S
C2365 C2359 1.491 . S
C2365 C2364 1.400 . S
C2365 C2366 1.398 . S
C2366 H2354 0.950 . S
C2366 C2365 1.398 . S
C2366 C2367 1.391 . S
C2367 H2355 0.950 . S
C2367 C2363 1.393 . S
C2367 C2366 1.391 . S
H2368 C2376 0.950 . S
H2369 C2381 0.950 . S
H2370 C2378 0.950 . S
H2371 C2380 0.950 . S
H2372 C2382 0.950 . S
H2373 C2384 0.950 . S
H2374 C2386 0.950 . S
H2375 C2387 0.950 . S
C2376 H2368 0.950 . S
C2376 C2377 1.386 . S
C2376 C2378 1.391 . S
C2377 C2376 1.386 . S
C2377 C2381 1.393 . S
C2378 H2370 0.950 . S
C2378 C2376 1.391 . S
C2378 C2379 1.400 . S
C2379 C2378 1.400 . S
C2379 C2380 1.398 . S
C2379 C2385 1.491 . S
C2380 H2371 0.950 . S
C2380 C2379 1.398 . S
C2380 C2381 1.391 . S
C2381 H2369 0.950 . S
C2381 C2377 1.393 . S
C2381 C2380 1.391 . S
C2382 H2372 0.950 . S
C2382 C2383 1.386 . S
C2382 C2384 1.391 . S
C2383 C2382 1.386 . S
C2383 C2387 1.393 . S
C2384 H2373 0.950 . S
C2384 C2382 1.391 . S
C2384 C2385 1.400 . S
C2385 C2379 1.491 . S
C2385 C2384 1.400 . S
C2385 C2386 1.398 . S
C2386 H2374 0.950 . S
C2386 C2385 1.398 . S
C2386 C2387 1.391 . S
C2387 H2375 0.950 . S
C2387 C2383 1.393 . S
C2387 C2386 1.391 . S
H2388 C2396 0.950 . S
H2389 C2401 0.950 . S
H2390 C2398 0.950 . S
H2391 C2400 0.950 . S
H2392 C2402 0.950 . S
H2393 C2404 0.950 . S
H2394 C2406 0.950 . S
H2395 C2407 0.950 . S
C2396 H2388 0.950 . S
C2396 C2397 1.386 . S
C2396 C2398 1.391 . S
C2397 C2396 1.386 . S
C2397 C2401 1.393 . S
C2398 H2390 0.950 . S
C2398 C2396 1.391 . S
C2398 C2399 1.400 . S
C2399 C2398 1.400 . S
C2399 C2400 1.398 . S
C2399 C2405 1.491 . S
C2400 H2391 0.950 . S
C2400 C2399 1.398 . S
C2400 C2401 1.391 . S
C2401 H2389 0.950 . S
C2401 C2397 1.393 . S
C2401 C2400 1.391 . S
C2402 H2392 0.950 . S
C2402 C2403 1.386 . S
C2402 C2404 1.391 . S
C2403 C2402 1.386 . S
C2403 C2407 1.393 . S
C2404 H2393 0.950 . S
C2404 C2402 1.391 . S
C2404 C2405 1.400 . S
C2405 C2399 1.491 . S
C2405 C2404 1.400 . S
C2405 C2406 1.398 . S
C2406 H2394 0.950 . S
C2406 C2405 1.398 . S
C2406 C2407 1.391 . S
C2407 H2395 0.950 . S
C2407 C2403 1.393 . S
C2407 C2406 1.391 . S
H2408 C2416 0.950 . S
H2409 C2421 0.950 . S
H2410 C2418 0.950 . S
H2411 C2420 0.950 . S
H2412 C2422 0.950 . S
H2413 C2424 0.950 . S
H2414 C2426 0.950 . S
H2415 C2427 0.950 . S
C2416 H2408 0.950 . S
C2416 C2417 1.386 . S
C2416 C2418 1.391 . S
C2417 C2416 1.386 . S
C2417 C2421 1.393 . S
C2418 H2410 0.950 . S
C2418 C2416 1.391 . S
C2418 C2419 1.400 . S
C2419 C2418 1.400 . S
C2419 C2420 1.398 . S
C2419 C2425 1.491 . S
C2420 H2411 0.950 . S
C2420 C2419 1.398 . S
C2420 C2421 1.391 . S
C2421 H2409 0.950 . S
C2421 C2417 1.393 . S
C2421 C2420 1.391 . S
C2422 H2412 0.950 . S
C2422 C2423 1.386 . S
C2422 C2424 1.391 . S
C2423 C2422 1.386 . S
C2423 C2427 1.393 . S
C2424 H2413 0.950 . S
C2424 C2422 1.391 . S
C2424 C2425 1.400 . S
C2425 C2419 1.491 . S
C2425 C2424 1.400 . S
C2425 C2426 1.398 . S
C2426 H2414 0.950 . S
C2426 C2425 1.398 . S
C2426 C2427 1.391 . S
C2427 H2415 0.950 . S
C2427 C2423 1.393 . S
C2427 C2426 1.391 . S
H2428 C2436 0.950 . S
H2429 C2441 0.950 . S
H2430 C2438 0.950 . S
H2431 C2440 0.950 . S
H2432 C2442 0.950 . S
H2433 C2444 0.950 . S
H2434 C2446 0.950 . S
H2435 C2447 0.950 . S
C2436 H2428 0.950 . S
C2436 C2437 1.386 . S
C2436 C2438 1.391 . S
C2437 C2436 1.386 . S
C2437 C2441 1.393 . S
C2438 H2430 0.950 . S
C2438 C2436 1.391 . S
C2438 C2439 1.400 . S
C2439 C2438 1.400 . S
C2439 C2440 1.398 . S
C2439 C2445 1.491 . S
C2440 H2431 0.950 . S
C2440 C2439 1.398 . S
C2440 C2441 1.391 . S
C2441 H2429 0.950 . S
C2441 C2437 1.393 . S
C2441 C2440 1.391 . S
C2442 H2432 0.950 . S
C2442 C2443 1.386 . S
C2442 C2444 1.391 . S
C2443 C2442 1.386 . S
C2443 C2447 1.393 . S
C2444 H2433 0.950 . S
C2444 C2442 1.391 . S
C2444 C2445 1.400 . S
C2445 C2439 1.491 . S
C2445 C2444 1.400 . S
C2445 C2446 1.398 . S
C2446 H2434 0.950 . S
C2446 C2445 1.398 . S
C2446 C2447 1.391 . S
C2447 H2435 0.950 . S
C2447 C2443 1.393 . S
C2447 C2446 1.391 . S
H2448 C2456 0.950 . S
H2449 C2461 0.950 . S
H2450 C2458 0.950 . S
H2451 C2460 0.950 . S
H2452 C2462 0.950 . S
H2453 C2464 0.950 . S
H2454 C2466 0.950 . S
H2455 C2467 0.950 . S
C2456 H2448 0.950 . S
C2456 C2457 1.386 . S
C2456 C2458 1.391 . S
C2457 C2456 1.386 . S
C2457 C2461 1.393 . S
C2458 H2450 0.950 . S
C2458 C2456 1.391 . S
C2458 C2459 1.400 . S
C2459 C2458 1.400 . S
C2459 C2460 1.398 . S
C2459 C2465 1.491 . S
C2460 H2451 0.950 . S
C2460 C2459 1.398 . S
C2460 C2461 1.391 . S
C2461 H2449 0.950 . S
C2461 C2457 1.393 . S
C2461 C2460 1.391 . S
C2462 H2452 0.950 . S
C2462 C2463 1.386 . S
C2462 C2464 1.391 . S
C2463 C2462 1.386 . S
C2463 C2467 1.393 . S
C2464 H2453 0.950 . S
C2464 C2462 1.391 . S
C2464 C2465 1.400 . S
C2465 C2459 1.491 . S
C2465 C2464 1.400 . S
C2465 C2466 1.398 . S
C2466 H2454 0.950 . S
C2466 C2465 1.398 . S
C2466 C2467 1.391 . S
C2467 H2455 0.950 . S
C2467 C2463 1.393 . S
C2467 C2466 1.391 . S
H2468 C2476 0.950 . S
H2469 C2481 0.950 . S
H2470 C2478 0.950 . S
H2471 C2480 0.950 . S
H2472 C2482 0.950 . S
H2473 C2484 0.950 . S
H2474 C2486 0.950 . S
H2475 C2487 0.950 . S
C2476 H2468 0.950 . S
C2476 C2477 1.386 . S
C2476 C2478 1.391 . S
C2477 C2476 1.386 . S
C2477 C2481 1.393 . S
C2478 H2470 0.950 . S
C2478 C2476 1.391 . S
C2478 C2479 1.400 . S
C2479 C2478 1.400 . S
C2479 C2480 1.398 . S
C2479 C2485 1.491 . S
C2480 H2471 0.950 . S
C2480 C2479 1.398 . S
C2480 C2481 1.391 . S
C2481 H2469 0.950 . S
C2481 C2477 1.393 . S
C2481 C2480 1.391 . S
C2482 H2472 0.950 . S
C2482 C2483 1.386 . S
C2482 C2484 1.391 . S
C2483 C2482 1.386 . S
C2483 C2487 1.393 . S
C2484 H2473 0.950 . S
C2484 C2482 1.391 . S
C2484 C2485 1.400 . S
C2485 C2479 1.491 . S
C2485 C2484 1.400 . S
C2485 C2486 1.398 . S
C2486 H2474 0.950 . S
C2486 C2485 1.398 . S
C2486 C2487 1.391 . S
C2487 H2475 0.950 . S
C2487 C2483 1.393 . S
C2487 C2486 1.391 . S
H2488 C2496 0.950 . S
H2489 C2501 0.950 . S
H2490 C2498 0.950 . S
H2491 C2500 0.950 . S
H2492 C2502 0.950 . S
H2493 C2504 0.950 . S
H2494 C2506 0.950 . S
H2495 C2507 0.950 . S
C2496 H2488 0.950 . S
C2496 C2497 1.386 . S
C2496 C2498 1.391 . S
C2497 C2496 1.386 . S
C2497 C2501 1.393 . S
C2498 H2490 0.950 . S
C2498 C2496 1.391 . S
C2498 C2499 1.400 . S
C2499 C2498 1.400 . S
C2499 C2500 1.398 . S
C2499 C2505 1.491 . S
C2500 H2491 0.950 . S
C2500 C2499 1.398 . S
C2500 C2501 1.391 . S
C2501 H2489 0.950 . S
C2501 C2497 1.393 . S
C2501 C2500 1.391 . S
C2502 H2492 0.950 . S
C2502 C2503 1.386 . S
C2502 C2504 1.391 . S
C2503 C2502 1.386 . S
C2503 C2507 1.393 . S
C2504 H2493 0.950 . S
C2504 C2502 1.391 . S
C2504 C2505 1.400 . S
C2505 C2499 1.491 . S
C2505 C2504 1.400 . S
C2505 C2506 1.398 . S
C2506 H2494 0.950 . S
C2506 C2505 1.398 . S
C2506 C2507 1.391 . S
C2507 H2495 0.950 . S
C2507 C2503 1.393 . S
C2507 C2506 1.391 . S
H2508 C2516 0.950 . S
H2509 C2521 0.950 . S
H2510 C2518 0.950 . S
H2511 C2520 0.950 . S
H2512 C2522 0.950 . S
H2513 C2524 0.950 . S
H2514 C2526 0.950 . S
H2515 C2527 0.950 . S
C2516 H2508 0.950 . S
C2516 C2517 1.386 . S
C2516 C2518 1.391 . S
C2517 C2516 1.386 . S
C2517 C2521 1.393 . S
C2518 H2510 0.950 . S
C2518 C2516 1.391 . S
C2518 C2519 1.400 . S
C2519 C2518 1.400 . S
C2519 C2520 1.398 . S
C2519 C2525 1.491 . S
C2520 H2511 0.950 . S
C2520 C2519 1.398 . S
C2520 C2521 1.391 . S
C2521 H2509 0.950 . S
C2521 C2517 1.393 . S
C2521 C2520 1.391 . S
C2522 H2512 0.950 . S
C2522 C2523 1.386 . S
C2522 C2524 1.391 . S
C2523 C2522 1.386 . S
C2523 C2527 1.393 . S
C2524 H2513 0.950 . S
C2524 C2522 1.391 . S
C2524 C2525 1.400 . S
C2525 C2519 1.491 . S
C2525 C2524 1.400 . S
C2525 C2526 1.398 . S
C2526 H2514 0.950 . S
C2526 C2525 1.398 . S
C2526 C2527 1.391 . S
C2527 H2515 0.950 . S
C2527 C2523 1.393 . S
C2527 C2526 1.391 . S
H2528 C2536 0.950 . S
H2529 C2541 0.950 . S
H2530 C2538 0.950 . S
H2531 C2540 0.950 . S
H2532 C2542 0.950 . S
H2533 C2544 0.950 . S
H2534 C2546 0.950 . S
H2535 C2547 0.950 . S
C2536 H2528 0.950 . S
C2536 C2537 1.386 . S
C2536 C2538 1.391 . S
C2537 C2536 1.386 . S
C2537 C2541 1.393 1_545 S
C2538 H2530 0.950 . S
C2538 C2536 1.391 . S
C2538 C2539 1.400 . S
C2539 C2538 1.400 . S
C2539 C2540 1.398 1_545 S
C2539 C2545 1.491 1_544 S
C2540 H2531 0.950 . S
C2540 C2539 1.398 1_565 S
C2540 C2541 1.391 . S
C2541 H2529 0.950 . S
C2541 C2537 1.393 1_565 S
C2541 C2540 1.391 . S
C2542 H2532 0.950 . S
C2542 C2543 1.386 . S
C2542 C2544 1.391 . S
C2543 C2542 1.386 . S
C2543 C2547 1.393 1_565 S
C2544 H2533 0.950 . S
C2544 C2542 1.391 . S
C2544 C2545 1.400 . S
C2545 C2539 1.491 1_566 S
C2545 C2544 1.400 . S
C2545 C2546 1.398 1_565 S
C2546 H2534 0.950 . S
C2546 C2545 1.398 1_545 S
C2546 C2547 1.391 . S
C2547 H2535 0.950 . S
C2547 C2543 1.393 1_545 S
C2547 C2546 1.391 . S
H2548 C2556 0.950 . S
H2549 C2561 0.950 . S
H2550 C2558 0.950 . S
H2551 C2560 0.950 . S
H2552 C2562 0.950 . S
H2553 C2564 0.950 . S
H2554 C2566 0.950 . S
H2555 C2567 0.950 . S
C2556 H2548 0.950 . S
C2556 C2557 1.386 . S
C2556 C2558 1.391 . S
C2557 C2556 1.386 . S
C2557 C2561 1.393 . S
C2558 H2550 0.950 . S
C2558 C2556 1.391 . S
C2558 C2559 1.400 . S
C2559 C2558 1.400 . S
C2559 C2560 1.398 . S
C2559 C2565 1.491 1_554 S
C2560 H2551 0.950 . S
C2560 C2559 1.398 . S
C2560 C2561 1.391 . S
C2561 H2549 0.950 . S
C2561 C2557 1.393 . S
C2561 C2560 1.391 . S
C2562 H2552 0.950 . S
C2562 C2563 1.386 . S
C2562 C2564 1.391 . S
C2563 C2562 1.386 . S
C2563 C2567 1.393 . S
C2564 H2553 0.950 . S
C2564 C2562 1.391 . S
C2564 C2565 1.400 . S
C2565 C2559 1.491 1_556 S
C2565 C2564 1.400 . S
C2565 C2566 1.398 . S
C2566 H2554 0.950 . S
C2566 C2565 1.398 . S
C2566 C2567 1.391 . S
C2567 H2555 0.950 . S
C2567 C2563 1.393 . S
C2567 C2566 1.391 . S
H2568 C2576 0.950 . S
H2569 C2581 0.950 . S
H2570 C2578 0.950 . S
H2571 C2580 0.950 . S
H2572 C2582 0.950 . S
H2573 C2584 0.950 . S
H2574 C2586 0.950 . S
H2575 C2587 0.950 . S
C2576 H2568 0.950 . S
C2576 C2577 1.386 . S
C2576 C2578 1.391 . S
C2577 C2576 1.386 . S
C2577 C2581 1.393 . S
C2578 H2570 0.950 . S
C2578 C2576 1.391 . S
C2578 C2579 1.400 . S
C2579 C2578 1.400 . S
C2579 C2580 1.398 . S
C2579 C2585 1.491 . S
C2580 H2571 0.950 . S
C2580 C2579 1.398 . S
C2580 C2581 1.391 . S
C2581 H2569 0.950 . S
C2581 C2577 1.393 . S
C2581 C2580 1.391 . S
C2582 H2572 0.950 . S
C2582 C2583 1.386 . S
C2582 C2584 1.391 . S
C2583 C2582 1.386 . S
C2583 C2587 1.393 . S
C2584 H2573 0.950 . S
C2584 C2582 1.391 . S
C2584 C2585 1.400 . S
C2585 C2579 1.491 . S
C2585 C2584 1.400 . S
C2585 C2586 1.398 . S
C2586 H2574 0.950 . S
C2586 C2585 1.398 . S
C2586 C2587 1.391 . S
C2587 H2575 0.950 . S
C2587 C2583 1.393 . S
C2587 C2586 1.391 . S
H2588 C2596 0.950 . S
H2589 C2601 0.950 . S
H2590 C2598 0.950 . S
H2591 C2600 0.950 . S
H2592 C2602 0.950 . S
H2593 C2604 0.950 . S
H2594 C2606 0.950 . S
H2595 C2607 0.950 . S
C2596 H2588 0.950 . S
C2596 C2597 1.386 . S
C2596 C2598 1.391 . S
C2597 C2596 1.386 . S
C2597 C2601 1.393 1_545 S
C2598 H2590 0.950 . S
C2598 C2596 1.391 . S
C2598 C2599 1.400 . S
C2599 C2598 1.400 . S
C2599 C2600 1.398 1_545 S
C2599 C2605 1.491 1_545 S
C2600 H2591 0.950 . S
C2600 C2599 1.398 1_565 S
C2600 C2601 1.391 . S
C2601 H2589 0.950 . S
C2601 C2597 1.393 1_565 S
C2601 C2600 1.391 . S
C2602 H2592 0.950 . S
C2602 C2603 1.386 . S
C2602 C2604 1.391 . S
C2603 C2602 1.386 . S
C2603 C2607 1.393 1_565 S
C2604 H2593 0.950 . S
C2604 C2602 1.391 . S
C2604 C2605 1.400 . S
C2605 C2599 1.491 1_565 S
C2605 C2604 1.400 . S
C2605 C2606 1.398 1_565 S
C2606 H2594 0.950 . S
C2606 C2605 1.398 1_545 S
C2606 C2607 1.391 . S
C2607 H2595 0.950 . S
C2607 C2603 1.393 1_545 S
C2607 C2606 1.391 . S
H2608 C2616 0.950 . S
H2609 C2621 0.950 . S
H2610 C2618 0.950 . S
H2611 C2620 0.950 . S
H2612 C2622 0.950 . S
H2613 C2624 0.950 . S
H2614 C2626 0.950 . S
H2615 C2627 0.950 . S
C2616 H2608 0.950 . S
C2616 C2617 1.386 . S
C2616 C2618 1.391 . S
C2617 C2616 1.386 . S
C2617 C2621 1.393 . S
C2618 H2610 0.950 . S
C2618 C2616 1.391 . S
C2618 C2619 1.400 . S
C2619 C2618 1.400 . S
C2619 C2620 1.398 . S
C2619 C2625 1.491 1_556 S
C2620 H2611 0.950 . S
C2620 C2619 1.398 . S
C2620 C2621 1.391 . S
C2621 H2609 0.950 . S
C2621 C2617 1.393 . S
C2621 C2620 1.391 . S
C2622 H2612 0.950 . S
C2622 C2623 1.386 . S
C2622 C2624 1.391 . S
C2623 C2622 1.386 . S
C2623 C2627 1.393 . S
C2624 H2613 0.950 . S
C2624 C2622 1.391 . S
C2624 C2625 1.400 . S
C2625 C2619 1.491 1_554 S
C2625 C2624 1.400 . S
C2625 C2626 1.398 . S
C2626 H2614 0.950 . S
C2626 C2625 1.398 . S
C2626 C2627 1.391 . S
C2627 H2615 0.950 . S
C2627 C2623 1.393 . S
C2627 C2626 1.391 . S
H2628 C2636 0.950 . S
H2629 C2641 0.950 . S
H2630 C2638 0.950 . S
H2631 C2640 0.950 . S
H2632 C2642 0.950 . S
H2633 C2644 0.950 . S
H2634 C2646 0.950 . S
H2635 C2647 0.950 . S
C2636 H2628 0.950 . S
C2636 C2637 1.386 . S
C2636 C2638 1.391 . S
C2637 C2636 1.386 . S
C2637 C2641 1.393 . S
C2638 H2630 0.950 . S
C2638 C2636 1.391 . S
C2638 C2639 1.400 . S
C2639 C2638 1.400 . S
C2639 C2640 1.398 . S
C2639 C2645 1.491 . S
C2640 H2631 0.950 . S
C2640 C2639 1.398 . S
C2640 C2641 1.391 . S
C2641 H2629 0.950 . S
C2641 C2637 1.393 . S
C2641 C2640 1.391 . S
C2642 H2632 0.950 . S
C2642 C2643 1.386 . S
C2642 C2644 1.391 . S
C2643 C2642 1.386 . S
C2643 C2647 1.393 . S
C2644 H2633 0.950 . S
C2644 C2642 1.391 . S
C2644 C2645 1.400 . S
C2645 C2639 1.491 . S
C2645 C2644 1.400 . S
C2645 C2646 1.398 . S
C2646 H2634 0.950 . S
C2646 C2645 1.398 . S
C2646 C2647 1.391 . S
C2647 H2635 0.950 . S
C2647 C2643 1.393 . S
C2647 C2646 1.391 . S
H2648 C2656 0.950 . S
H2649 C2661 0.950 . S
H2650 C2658 0.950 . S
H2651 C2660 0.950 . S
H2652 C2662 0.950 . S
H2653 C2664 0.950 . S
H2654 C2666 0.950 . S
H2655 C2667 0.950 . S
C2656 H2648 0.950 . S
C2656 C2657 1.386 1_565 S
C2656 C2658 1.391 . S
C2657 C2656 1.386 1_545 S
C2657 C2661 1.393 . S
C2658 H2650 0.950 . S
C2658 C2656 1.391 . S
C2658 C2659 1.400 1_565 S
C2659 C2658 1.400 1_545 S
C2659 C2660 1.398 . S
C2659 C2665 1.491 1_545 S
C2660 H2651 0.950 . S
C2660 C2659 1.398 . S
C2660 C2661 1.391 . S
C2661 H2649 0.950 . S
C2661 C2657 1.393 . S
C2661 C2660 1.391 . S
C2662 H2652 0.950 . S
C2662 C2663 1.386 1_545 S
C2662 C2664 1.391 . S
C2663 C2662 1.386 1_565 S
C2663 C2667 1.393 . S
C2664 H2653 0.950 . S
C2664 C2662 1.391 . S
C2664 C2665 1.400 1_545 S
C2665 C2659 1.491 1_565 S
C2665 C2664 1.400 1_565 S
C2665 C2666 1.398 . S
C2666 H2654 0.950 . S
C2666 C2665 1.398 . S
C2666 C2667 1.391 . S
C2667 H2655 0.950 . S
C2667 C2663 1.393 . S
C2667 C2666 1.391 . S
H2668 C2676 0.950 . S
H2669 C2681 0.950 . S
H2670 C2678 0.950 . S
H2671 C2680 0.950 . S
H2672 C2682 0.950 . S
H2673 C2684 0.950 . S
H2674 C2686 0.950 . S
H2675 C2687 0.950 . S
C2676 H2668 0.950 . S
C2676 C2677 1.386 . S
C2676 C2678 1.391 . S
C2677 C2676 1.386 . S
C2677 C2681 1.393 . S
C2678 H2670 0.950 . S
C2678 C2676 1.391 . S
C2678 C2679 1.400 . S
C2679 C2678 1.400 . S
C2679 C2680 1.398 . S
C2679 C2685 1.491 . S
C2680 H2671 0.950 . S
C2680 C2679 1.398 . S
C2680 C2681 1.391 . S
C2681 H2669 0.950 . S
C2681 C2677 1.393 . S
C2681 C2680 1.391 . S
C2682 H2672 0.950 . S
C2682 C2683 1.386 . S
C2682 C2684 1.391 . S
C2683 C2682 1.386 . S
C2683 C2687 1.393 . S
C2684 H2673 0.950 . S
C2684 C2682 1.391 . S
C2684 C2685 1.400 . S
C2685 C2679 1.491 . S
C2685 C2684 1.400 . S
C2685 C2686 1.398 . S
C2686 H2674 0.950 . S
C2686 C2685 1.398 . S
C2686 C2687 1.391 . S
C2687 H2675 0.950 . S
C2687 C2683 1.393 . S
C2687 C2686 1.391 . S
H2688 C2696 0.950 . S
H2689 C2701 0.950 . S
H2690 C2698 0.950 . S
H2691 C2700 0.950 . S
H2692 C2702 0.950 . S
H2693 C2704 0.950 . S
H2694 C2706 0.950 . S
H2695 C2707 0.950 . S
C2696 H2688 0.950 . S
C2696 C2697 1.386 . S
C2696 C2698 1.391 . S
C2697 C2696 1.386 . S
C2697 C2701 1.393 . S
C2698 H2690 0.950 . S
C2698 C2696 1.391 . S
C2698 C2699 1.400 . S
C2699 C2698 1.400 . S
C2699 C2700 1.398 . S
C2699 C2705 1.491 . S
C2700 H2691 0.950 . S
C2700 C2699 1.398 . S
C2700 C2701 1.391 . S
C2701 H2689 0.950 . S
C2701 C2697 1.393 . S
C2701 C2700 1.391 . S
C2702 H2692 0.950 . S
C2702 C2703 1.386 . S
C2702 C2704 1.391 . S
C2703 C2702 1.386 . S
C2703 C2707 1.393 . S
C2704 H2693 0.950 . S
C2704 C2702 1.391 . S
C2704 C2705 1.400 . S
C2705 C2699 1.491 . S
C2705 C2704 1.400 . S
C2705 C2706 1.398 . S
C2706 H2694 0.950 . S
C2706 C2705 1.398 . S
C2706 C2707 1.391 . S
C2707 H2695 0.950 . S
C2707 C2703 1.393 . S
C2707 C2706 1.391 . S
H2708 C2716 0.950 . S
H2709 C2721 0.950 . S
H2710 C2718 0.950 . S
H2711 C2720 0.950 . S
H2712 C2722 0.950 . S
H2713 C2724 0.950 . S
H2714 C2726 0.950 . S
H2715 C2727 0.950 . S
C2716 H2708 0.950 . S
C2716 C2717 1.386 . S
C2716 C2718 1.391 . S
C2717 C2716 1.386 . S
C2717 C2721 1.393 . S
C2718 H2710 0.950 . S
C2718 C2716 1.391 . S
C2718 C2719 1.400 . S
C2719 C2718 1.400 . S
C2719 C2720 1.398 . S
C2719 C2725 1.491 . S
C2720 H2711 0.950 . S
C2720 C2719 1.398 . S
C2720 C2721 1.391 . S
C2721 H2709 0.950 . S
C2721 C2717 1.393 . S
C2721 C2720 1.391 . S
C2722 H2712 0.950 . S
C2722 C2723 1.386 . S
C2722 C2724 1.391 . S
C2723 C2722 1.386 . S
C2723 C2727 1.393 . S
C2724 H2713 0.950 . S
C2724 C2722 1.391 . S
C2724 C2725 1.400 . S
C2725 C2719 1.491 . S
C2725 C2724 1.400 . S
C2725 C2726 1.398 . S
C2726 H2714 0.950 . S
C2726 C2725 1.398 . S
C2726 C2727 1.391 . S
C2727 H2715 0.950 . S
C2727 C2723 1.393 . S
C2727 C2726 1.391 . S
H2728 C2736 0.950 . S
H2729 C2741 0.950 . S
H2730 C2738 0.950 . S
H2731 C2740 0.950 . S
H2732 C2742 0.950 . S
H2733 C2744 0.950 . S
H2734 C2746 0.950 . S
H2735 C2747 0.950 . S
C2736 H2728 0.950 . S
C2736 C2737 1.386 . S
C2736 C2738 1.391 . S
C2737 C2736 1.386 . S
C2737 C2741 1.393 . S
C2738 H2730 0.950 . S
C2738 C2736 1.391 . S
C2738 C2739 1.400 . S
C2739 C2738 1.400 . S
C2739 C2740 1.398 . S
C2739 C2745 1.491 . S
C2740 H2731 0.950 . S
C2740 C2739 1.398 . S
C2740 C2741 1.391 . S
C2741 H2729 0.950 . S
C2741 C2737 1.393 . S
C2741 C2740 1.391 . S
C2742 H2732 0.950 . S
C2742 C2743 1.386 . S
C2742 C2744 1.391 . S
C2743 C2742 1.386 . S
C2743 C2747 1.393 . S
C2744 H2733 0.950 . S
C2744 C2742 1.391 . S
C2744 C2745 1.400 . S
C2745 C2739 1.491 . S
C2745 C2744 1.400 . S
C2745 C2746 1.398 . S
C2746 H2734 0.950 . S
C2746 C2745 1.398 . S
C2746 C2747 1.391 . S
C2747 H2735 0.950 . S
C2747 C2743 1.393 . S
C2747 C2746 1.391 . S
H2748 C2756 0.950 . S
H2749 C2761 0.950 . S
H2750 C2758 0.950 . S
H2751 C2760 0.950 . S
H2752 C2762 0.950 . S
H2753 C2764 0.950 . S
H2754 C2766 0.950 . S
H2755 C2767 0.950 . S
C2756 H2748 0.950 . S
C2756 C2757 1.386 . S
C2756 C2758 1.391 . S
C2757 C2756 1.386 . S
C2757 C2761 1.393 . S
C2758 H2750 0.950 . S
C2758 C2756 1.391 . S
C2758 C2759 1.400 . S
C2759 C2758 1.400 . S
C2759 C2760 1.398 . S
C2759 C2765 1.491 . S
C2760 H2751 0.950 . S
C2760 C2759 1.398 . S
C2760 C2761 1.391 . S
C2761 H2749 0.950 . S
C2761 C2757 1.393 . S
C2761 C2760 1.391 . S
C2762 H2752 0.950 . S
C2762 C2763 1.386 . S
C2762 C2764 1.391 . S
C2763 C2762 1.386 . S
C2763 C2767 1.393 . S
C2764 H2753 0.950 . S
C2764 C2762 1.391 . S
C2764 C2765 1.400 . S
C2765 C2759 1.491 . S
C2765 C2764 1.400 . S
C2765 C2766 1.398 . S
C2766 H2754 0.950 . S
C2766 C2765 1.398 . S
C2766 C2767 1.391 . S
C2767 H2755 0.950 . S
C2767 C2763 1.393 . S
C2767 C2766 1.391 . S
H2768 C2776 0.950 . S
H2769 C2781 0.950 . S
H2770 C2778 0.950 . S
H2771 C2780 0.950 . S
H2772 C2782 0.950 . S
H2773 C2784 0.950 . S
H2774 C2786 0.950 . S
H2775 C2787 0.950 . S
C2776 H2768 0.950 . S
C2776 C2777 1.376 1_645 S
C2776 C2778 1.391 . S
C2777 C2776 1.376 1_465 S
C2777 C2781 1.402 . S
C2778 H2770 0.950 . S
C2778 C2776 1.391 . S
C2778 C2779 1.399 1_545 S
C2779 C2778 1.399 1_565 S
C2779 C2780 1.400 1_655 S
C2779 C2785 1.491 1_665 S
C2780 H2771 0.950 . S
C2780 C2779 1.400 1_455 S
C2780 C2781 1.391 . S
C2781 H2769 0.950 . S
C2781 C2777 1.402 . S
C2781 C2780 1.391 . S
C2782 H2772 0.950 . S
C2782 C2783 1.380 1_465 S
C2782 C2784 1.391 . S
C2783 C2782 1.380 1_645 S
C2783 C2787 1.398 . S
C2784 H2773 0.950 . S
C2784 C2782 1.391 . S
C2784 C2785 1.403 1_565 S
C2785 C2779 1.491 1_445 S
C2785 C2784 1.403 1_545 S
C2785 C2786 1.395 1_455 S
C2786 H2774 0.950 . S
C2786 C2785 1.395 1_655 S
C2786 C2787 1.391 . S
C2787 H2775 0.950 . S
C2787 C2783 1.398 . S
C2787 C2786 1.391 . S
H2788 C2796 0.950 . S
H2789 C2801 0.950 . S
H2790 C2798 0.950 . S
H2791 C2800 0.950 . S
H2792 C2802 0.950 . S
H2793 C2804 0.950 . S
H2794 C2806 0.950 . S
H2795 C2807 0.950 . S
C2796 H2788 0.950 . S
C2796 C2797 1.387 1_455 S
C2796 C2798 1.391 . S
C2797 C2796 1.387 1_655 S
C2797 C2801 1.392 . S
C2798 H2790 0.950 . S
C2798 C2796 1.391 . S
C2798 C2799 1.405 . S
C2799 C2798 1.405 . S
C2799 C2800 1.394 1_455 S
C2799 C2805 1.490 1_455 S
C2800 H2791 0.950 . S
C2800 C2799 1.394 1_655 S
C2800 C2801 1.391 . S
C2801 H2789 0.950 . S
C2801 C2797 1.392 . S
C2801 C2800 1.391 . S
C2802 H2792 0.950 . S
C2802 C2803 1.380 1_655 S
C2802 C2804 1.391 . S
C2803 C2802 1.380 1_455 S
C2803 C2807 1.398 . S
C2804 H2793 0.950 . S
C2804 C2802 1.391 . S
C2804 C2805 1.399 . S
C2805 C2799 1.490 1_655 S
C2805 C2804 1.399 . S
C2805 C2806 1.400 1_655 S
C2806 H2794 0.950 . S
C2806 C2805 1.400 1_455 S
C2806 C2807 1.391 . S
C2807 H2795 0.950 . S
C2807 C2803 1.398 . S
C2807 C2806 1.391 . S
H2808 C2816 0.950 . S
H2809 C2821 0.950 . S
H2810 C2818 0.950 . S
H2811 C2820 0.950 . S
H2812 C2822 0.950 . S
H2813 C2824 0.950 . S
H2814 C2826 0.950 . S
H2815 C2827 0.950 . S
C2816 H2808 0.950 . S
C2816 C2817 1.418 . S
C2816 C2818 1.391 . S
C2817 C2816 1.418 . S
C2817 C2821 1.360 1_655 S
C2818 H2810 0.950 . S
C2818 C2816 1.391 . S
C2818 C2819 1.411 . S
C2819 C2818 1.411 . S
C2819 C2820 1.387 1_655 S
C2819 C2825 1.491 . S
C2820 H2811 0.950 . S
C2820 C2819 1.387 1_455 S
C2820 C2821 1.391 . S
C2821 H2809 0.950 . S
C2821 C2817 1.360 1_455 S
C2821 C2820 1.391 . S
C2822 H2812 0.950 . S
C2822 C2823 1.389 . S
C2822 C2824 1.391 . S
C2823 C2822 1.389 . S
C2823 C2827 1.390 1_455 S
C2824 H2813 0.950 . S
C2824 C2822 1.391 . S
C2824 C2825 1.392 1_455 S
C2825 C2819 1.491 . S
C2825 C2824 1.392 1_655 S
C2825 C2826 1.407 . S
C2826 H2814 0.950 . S
C2826 C2825 1.407 . S
C2826 C2827 1.391 . S
C2827 H2815 0.950 . S
C2827 C2823 1.390 1_655 S
C2827 C2826 1.391 . S
H2828 C2836 0.950 . S
H2829 C2841 0.950 . S
H2830 C2838 0.950 . S
H2831 C2840 0.950 . S
H2832 C2842 0.950 . S
H2833 C2844 0.950 . S
H2834 C2846 0.950 . S
H2835 C2847 0.950 . S
C2836 H2828 0.950 . S
C2836 C2837 1.386 1_655 S
C2836 C2838 1.391 . S
C2837 C2836 1.386 1_455 S
C2837 C2841 1.393 . S
C2838 H2830 0.950 . S
C2838 C2836 1.391 . S
C2838 C2839 1.382 1_655 S
C2839 C2838 1.382 1_455 S
C2839 C2840 1.418 . S
C2839 C2845 1.489 1_456 S
C2840 H2831 0.950 . S
C2840 C2839 1.418 . S
C2840 C2841 1.391 . S
C2841 H2829 0.950 . S
C2841 C2837 1.393 . S
C2841 C2840 1.391 . S
C2842 H2832 0.950 . S
C2842 C2843 1.386 1_455 S
C2842 C2844 1.391 . S
C2843 C2842 1.386 1_655 S
C2843 C2847 1.393 . S
C2844 H2833 0.950 . S
C2844 C2842 1.391 . S
C2844 C2845 1.389 1_455 S
C2845 C2839 1.489 1_654 S
C2845 C2844 1.389 1_655 S
C2845 C2846 1.410 . S
C2846 H2834 0.950 . S
C2846 C2845 1.410 . S
C2846 C2847 1.391 . S
C2847 H2835 0.950 . S
C2847 C2843 1.393 . S
C2847 C2846 1.391 . S
H2848 C2856 0.950 . S
H2849 C2861 0.950 . S
H2850 C2858 0.950 . S
H2851 C2860 0.950 . S
H2852 C2862 0.950 . S
H2853 C2864 0.950 . S
H2854 C2866 0.950 . S
H2855 C2867 0.950 . S
C2856 H2848 0.950 . S
C2856 C2857 1.386 . S
C2856 C2858 1.391 . S
C2857 C2856 1.386 . S
C2857 C2861 1.393 . S
C2858 H2850 0.950 . S
C2858 C2856 1.391 . S
C2858 C2859 1.400 . S
C2859 C2858 1.400 . S
C2859 C2860 1.398 . S
C2859 C2865 1.491 . S
C2860 H2851 0.950 . S
C2860 C2859 1.398 . S
C2860 C2861 1.391 . S
C2861 H2849 0.950 . S
C2861 C2857 1.393 . S
C2861 C2860 1.391 . S
C2862 H2852 0.950 . S
C2862 C2863 1.386 . S
C2862 C2864 1.391 . S
C2863 C2862 1.386 . S
C2863 C2867 1.393 . S
C2864 H2853 0.950 . S
C2864 C2862 1.391 . S
C2864 C2865 1.400 . S
C2865 C2859 1.491 . S
C2865 C2864 1.400 . S
C2865 C2866 1.398 . S
C2866 H2854 0.950 . S
C2866 C2865 1.398 . S
C2866 C2867 1.391 . S
C2867 H2855 0.950 . S
C2867 C2863 1.393 . S
C2867 C2866 1.391 . S
H2868 C2876 0.950 . S
H2869 C2881 0.950 . S
H2870 C2878 0.950 . S
H2871 C2880 0.950 . S
H2872 C2882 0.950 1_565 S
H2873 C2884 0.950 . S
H2874 C2886 0.950 . S
H2875 C2887 0.950 . S
C2876 H2868 0.950 . S
C2876 C2877 1.386 . S
C2876 C2878 1.391 . S
C2877 C2876 1.386 . S
C2877 C2881 1.393 . S
C2878 H2870 0.950 . S
C2878 C2876 1.391 . S
C2878 C2879 1.400 . S
C2879 C2878 1.400 . S
C2879 C2880 1.398 . S
C2879 C2885 1.491 . S
C2880 H2871 0.950 . S
C2880 C2879 1.398 . S
C2880 C2881 1.391 . S
C2881 H2869 0.950 . S
C2881 C2877 1.393 . S
C2881 C2880 1.391 . S
C2882 H2872 0.950 1_545 S
C2882 C2883 1.386 . S
C2882 C2884 1.391 . S
C2883 C2882 1.386 . S
C2883 C2887 1.393 . S
C2884 H2873 0.950 . S
C2884 C2882 1.391 . S
C2884 C2885 1.400 . S
C2885 C2879 1.491 . S
C2885 C2884 1.400 . S
C2885 C2886 1.398 . S
C2886 H2874 0.950 . S
C2886 C2885 1.398 . S
C2886 C2887 1.391 . S
C2887 H2875 0.950 . S
C2887 C2883 1.393 . S
C2887 C2886 1.391 . S
H2888 C2896 0.950 . S
H2889 C2901 0.950 1_545 S
H2890 C2898 0.950 . S
H2891 C2900 0.950 . S
H2892 C2902 0.950 . S
H2893 C2904 0.950 . S
H2894 C2906 0.950 . S
H2895 C2907 0.950 . S
C2896 H2888 0.950 . S
C2896 C2897 1.386 . S
C2896 C2898 1.391 . S
C2897 C2896 1.386 . S
C2897 C2901 1.393 . S
C2898 H2890 0.950 . S
C2898 C2896 1.391 . S
C2898 C2899 1.400 . S
C2899 C2898 1.400 . S
C2899 C2900 1.398 . S
C2899 C2905 1.491 . S
C2900 H2891 0.950 . S
C2900 C2899 1.398 . S
C2900 C2901 1.391 . S
C2901 H2889 0.950 1_565 S
C2901 C2897 1.393 . S
C2901 C2900 1.391 . S
C2902 H2892 0.950 . S
C2902 C2903 1.386 . S
C2902 C2904 1.391 . S
C2903 C2902 1.386 . S
C2903 C2907 1.393 . S
C2904 H2893 0.950 . S
C2904 C2902 1.391 . S
C2904 C2905 1.400 . S
C2905 C2899 1.491 . S
C2905 C2904 1.400 . S
C2905 C2906 1.398 . S
C2906 H2894 0.950 . S
C2906 C2905 1.398 . S
C2906 C2907 1.391 . S
C2907 H2895 0.950 . S
C2907 C2903 1.393 . S
C2907 C2906 1.391 . S
H2908 C2916 0.950 . S
H2909 C2921 0.950 . S
H2910 C2918 0.950 . S
H2911 C2920 0.950 . S
H2912 C2922 0.950 . S
H2913 C2924 0.950 . S
H2914 C2926 0.950 . S
H2915 C2927 0.950 1_545 S
C2916 H2908 0.950 . S
C2916 C2917 1.386 . S
C2916 C2918 1.391 . S
C2917 C2916 1.386 . S
C2917 C2921 1.393 . S
C2918 H2910 0.950 . S
C2918 C2916 1.391 . S
C2918 C2919 1.400 . S
C2919 C2918 1.400 . S
C2919 C2920 1.398 . S
C2919 C2925 1.491 . S
C2920 H2911 0.950 . S
C2920 C2919 1.398 . S
C2920 C2921 1.391 . S
C2921 H2909 0.950 . S
C2921 C2917 1.393 . S
C2921 C2920 1.391 . S
C2922 H2912 0.950 . S
C2922 C2923 1.386 . S
C2922 C2924 1.391 . S
C2923 C2922 1.386 . S
C2923 C2927 1.393 . S
C2924 H2913 0.950 . S
C2924 C2922 1.391 . S
C2924 C2925 1.400 . S
C2925 C2919 1.491 . S
C2925 C2924 1.400 . S
C2925 C2926 1.398 . S
C2926 H2914 0.950 . S
C2926 C2925 1.398 . S
C2926 C2927 1.391 . S
C2927 H2915 0.950 1_565 S
C2927 C2923 1.393 . S
C2927 C2926 1.391 . S
H2928 C2936 0.950 . S
H2929 C2941 0.950 . S
H2930 C2938 0.950 . S
H2931 C2940 0.950 . S
H2932 C2942 0.950 . S
H2933 C2944 0.950 . S
H2934 C2946 0.950 . S
H2935 C2947 0.950 . S
C2936 H2928 0.950 . S
C2936 C2937 1.386 . S
C2936 C2938 1.391 . S
C2937 C2936 1.386 . S
C2937 C2941 1.393 . S
C2938 H2930 0.950 . S
C2938 C2936 1.391 . S
C2938 C2939 1.400 . S
C2939 C2938 1.400 . S
C2939 C2940 1.398 . S
C2939 C2945 1.491 . S
C2940 H2931 0.950 . S
C2940 C2939 1.398 . S
C2940 C2941 1.391 . S
C2941 H2929 0.950 . S
C2941 C2937 1.393 . S
C2941 C2940 1.391 . S
C2942 H2932 0.950 . S
C2942 C2943 1.386 . S
C2942 C2944 1.391 . S
C2943 C2942 1.386 . S
C2943 C2947 1.393 . S
C2944 H2933 0.950 . S
C2944 C2942 1.391 . S
C2944 C2945 1.400 . S
C2945 C2939 1.491 . S
C2945 C2944 1.400 . S
C2945 C2946 1.398 . S
C2946 H2934 0.950 . S
C2946 C2945 1.398 . S
C2946 C2947 1.391 . S
C2947 H2935 0.950 . S
C2947 C2943 1.393 . S
C2947 C2946 1.391 . S
H2948 C2956 0.950 . S
H2949 C2961 0.950 . S
H2950 C2958 0.950 . S
H2951 C2960 0.950 . S
H2952 C2962 0.950 . S
H2953 C2964 0.950 . S
H2954 C2966 0.950 . S
H2955 C2967 0.950 . S
C2956 H2948 0.950 . S
C2956 C2957 1.386 . S
C2956 C2958 1.391 . S
C2957 C2956 1.386 . S
C2957 C2961 1.393 . S
C2958 H2950 0.950 . S
C2958 C2956 1.391 . S
C2958 C2959 1.400 . S
C2959 C2958 1.400 . S
C2959 C2960 1.398 . S
C2959 C2965 1.491 . S
C2960 H2951 0.950 . S
C2960 C2959 1.398 . S
C2960 C2961 1.391 . S
C2961 H2949 0.950 . S
C2961 C2957 1.393 . S
C2961 C2960 1.391 . S
C2962 H2952 0.950 . S
C2962 C2963 1.386 . S
C2962 C2964 1.391 . S
C2963 C2962 1.386 . S
C2963 C2967 1.393 . S
C2964 H2953 0.950 . S
C2964 C2962 1.391 . S
C2964 C2965 1.400 . S
C2965 C2959 1.491 . S
C2965 C2964 1.400 . S
C2965 C2966 1.398 . S
C2966 H2954 0.950 . S
C2966 C2965 1.398 . S
C2966 C2967 1.391 . S
C2967 H2955 0.950 . S
C2967 C2963 1.393 . S
C2967 C2966 1.391 . S
H2968 C2976 0.950 . S
H2969 C2981 0.950 . S
H2970 C2978 0.950 . S
H2971 C2980 0.950 . S
H2972 C2982 0.950 . S
H2973 C2984 0.950 . S
H2974 C2986 0.950 . S
H2975 C2987 0.950 . S
C2976 H2968 0.950 . S
C2976 C2977 1.386 . S
C2976 C2978 1.391 . S
C2977 C2976 1.386 . S
C2977 C2981 1.393 . S
C2978 H2970 0.950 . S
C2978 C2976 1.391 . S
C2978 C2979 1.400 . S
C2979 C2978 1.400 . S
C2979 C2980 1.398 . S
C2979 C2985 1.491 . S
C2980 H2971 0.950 . S
C2980 C2979 1.398 . S
C2980 C2981 1.391 . S
C2981 H2969 0.950 . S
C2981 C2977 1.393 . S
C2981 C2980 1.391 . S
C2982 H2972 0.950 . S
C2982 C2983 1.386 . S
C2982 C2984 1.391 . S
C2983 C2982 1.386 . S
C2983 C2987 1.393 . S
C2984 H2973 0.950 . S
C2984 C2982 1.391 . S
C2984 C2985 1.400 . S
C2985 C2979 1.491 . S
C2985 C2984 1.400 . S
C2985 C2986 1.398 . S
C2986 H2974 0.950 . S
C2986 C2985 1.398 . S
C2986 C2987 1.391 . S
C2987 H2975 0.950 . S
C2987 C2983 1.393 . S
C2987 C2986 1.391 . S
H2988 C2996 0.950 . S
H2989 C3001 0.950 . S
H2990 C2998 0.950 . S
H2991 C3000 0.950 . S
H2992 C3002 0.950 . S
H2993 C3004 0.950 . S
H2994 C3006 0.950 . S
H2995 C3007 0.950 . S
C2996 H2988 0.950 . S
C2996 C2997 1.386 . S
C2996 C2998 1.391 . S
C2997 C2996 1.386 . S
C2997 C3001 1.393 . S
C2998 H2990 0.950 . S
C2998 C2996 1.391 . S
C2998 C2999 1.400 . S
C2999 C2998 1.400 . S
C2999 C3000 1.398 . S
C2999 C3005 1.491 . S
C3000 H2991 0.950 . S
C3000 C2999 1.398 . S
C3000 C3001 1.391 . S
C3001 H2989 0.950 . S
C3001 C2997 1.393 . S
C3001 C3000 1.391 . S
C3002 H2992 0.950 . S
C3002 C3003 1.386 . S
C3002 C3004 1.391 . S
C3003 C3002 1.386 . S
C3003 C3007 1.393 . S
C3004 H2993 0.950 . S
C3004 C3002 1.391 . S
C3004 C3005 1.400 . S
C3005 C2999 1.491 . S
C3005 C3004 1.400 . S
C3005 C3006 1.398 . S
C3006 H2994 0.950 . S
C3006 C3005 1.398 . S
C3006 C3007 1.391 . S
C3007 H2995 0.950 . S
C3007 C3003 1.393 . S
C3007 C3006 1.391 . S
H3008 C3016 0.950 . S
H3009 C3021 0.950 . S
H3010 C3018 0.950 . S
H3011 C3020 0.950 . S
H3012 C3022 0.950 . S
H3013 C3024 0.950 . S
H3014 C3026 0.950 . S
H3015 C3027 0.950 . S
C3016 H3008 0.950 . S
C3016 C3017 1.386 . S
C3016 C3018 1.391 . S
C3017 C3016 1.386 . S
C3017 C3021 1.393 . S
C3018 H3010 0.950 . S
C3018 C3016 1.391 . S
C3018 C3019 1.400 . S
C3019 C3018 1.400 . S
C3019 C3020 1.398 . S
C3019 C3025 1.491 . S
C3020 H3011 0.950 . S
C3020 C3019 1.398 . S
C3020 C3021 1.391 . S
C3021 H3009 0.950 . S
C3021 C3017 1.393 . S
C3021 C3020 1.391 . S
C3022 H3012 0.950 . S
C3022 C3023 1.386 . S
C3022 C3024 1.391 . S
C3023 C3022 1.386 . S
C3023 C3027 1.393 . S
C3024 H3013 0.950 . S
C3024 C3022 1.391 . S
C3024 C3025 1.400 . S
C3025 C3019 1.491 . S
C3025 C3024 1.400 . S
C3025 C3026 1.398 . S
C3026 H3014 0.950 . S
C3026 C3025 1.398 . S
C3026 C3027 1.391 . S
C3027 H3015 0.950 . S
C3027 C3023 1.393 . S
C3027 C3026 1.391 . S
H3028 C3036 0.950 . S
H3029 C3041 0.950 1_565 S
H3030 C3038 0.950 . S
H3031 C3040 0.950 . S
H3032 C3042 0.950 . S
H3033 C3044 0.950 . S
H3034 C3046 0.950 . S
H3035 C3047 0.950 . S
C3036 H3028 0.950 . S
C3036 C3037 1.386 . S
C3036 C3038 1.391 . S
C3037 C3036 1.386 . S
C3037 C3041 1.393 . S
C3038 H3030 0.950 . S
C3038 C3036 1.391 . S
C3038 C3039 1.400 . S
C3039 C3038 1.400 . S
C3039 C3040 1.398 . S
C3039 C3045 1.491 . S
C3040 H3031 0.950 . S
C3040 C3039 1.398 . S
C3040 C3041 1.391 . S
C3041 H3029 0.950 1_545 S
C3041 C3037 1.393 . S
C3041 C3040 1.391 . S
C3042 H3032 0.950 . S
C3042 C3043 1.386 . S
C3042 C3044 1.391 . S
C3043 C3042 1.386 . S
C3043 C3047 1.393 . S
C3044 H3033 0.950 . S
C3044 C3042 1.391 . S
C3044 C3045 1.400 . S
C3045 C3039 1.491 . S
C3045 C3044 1.400 . S
C3045 C3046 1.398 . S
C3046 H3034 0.950 . S
C3046 C3045 1.398 . S
C3046 C3047 1.391 . S
C3047 H3035 0.950 . S
C3047 C3043 1.393 . S
C3047 C3046 1.391 . S
H3048 C3056 0.950 . S
H3049 C3061 0.950 1_545 S
H3050 C3058 0.950 . S
H3051 C3060 0.950 . S
H3052 C3062 0.950 . S
H3053 C3064 0.950 . S
H3054 C3066 0.950 . S
H3055 C3067 0.950 . S
C3056 H3048 0.950 . S
C3056 C3057 1.386 . S
C3056 C3058 1.391 . S
C3057 C3056 1.386 . S
C3057 C3061 1.393 . S
C3058 H3050 0.950 . S
C3058 C3056 1.391 . S
C3058 C3059 1.400 . S
C3059 C3058 1.400 . S
C3059 C3060 1.398 . S
C3059 C3065 1.491 . S
C3060 H3051 0.950 . S
C3060 C3059 1.398 . S
C3060 C3061 1.391 . S
C3061 H3049 0.950 1_565 S
C3061 C3057 1.393 . S
C3061 C3060 1.391 . S
C3062 H3052 0.950 . S
C3062 C3063 1.386 . S
C3062 C3064 1.391 . S
C3063 C3062 1.386 . S
C3063 C3067 1.393 . S
C3064 H3053 0.950 . S
C3064 C3062 1.391 . S
C3064 C3065 1.400 . S
C3065 C3059 1.491 . S
C3065 C3064 1.400 . S
C3065 C3066 1.398 . S
C3066 H3054 0.950 . S
C3066 C3065 1.398 . S
C3066 C3067 1.391 . S
C3067 H3055 0.950 . S
C3067 C3063 1.393 . S
C3067 C3066 1.391 . S
H3068 C3076 0.950 . S
H3069 C3081 0.950 . S
H3070 C3078 0.950 . S
H3071 C3080 0.950 . S
H3072 C3082 0.950 . S
H3073 C3084 0.950 . S
H3074 C3086 0.950 . S
H3075 C3087 0.950 . S
C3076 H3068 0.950 . S
C3076 C3077 1.386 . S
C3076 C3078 1.391 . S
C3077 C3076 1.386 . S
C3077 C3081 1.393 . S
C3078 H3070 0.950 . S
C3078 C3076 1.391 . S
C3078 C3079 1.400 . S
C3079 C3078 1.400 . S
C3079 C3080 1.398 . S
C3079 C3085 1.491 . S
C3080 H3071 0.950 . S
C3080 C3079 1.398 . S
C3080 C3081 1.391 . S
C3081 H3069 0.950 . S
C3081 C3077 1.393 . S
C3081 C3080 1.391 . S
C3082 H3072 0.950 . S
C3082 C3083 1.386 . S
C3082 C3084 1.391 . S
C3083 C3082 1.386 . S
C3083 C3087 1.393 . S
C3084 H3073 0.950 . S
C3084 C3082 1.391 . S
C3084 C3085 1.400 . S
C3085 C3079 1.491 . S
C3085 C3084 1.400 . S
C3085 C3086 1.398 . S
C3086 H3074 0.950 . S
C3086 C3085 1.398 . S
C3086 C3087 1.391 . S
C3087 H3075 0.950 . S
C3087 C3083 1.393 . S
C3087 C3086 1.391 . S
H3088 C3096 0.950 . S
H3089 C3101 0.950 . S
H3090 C3098 0.950 . S
H3091 C3100 0.950 . S
H3092 C3102 0.950 . S
H3093 C3104 0.950 . S
H3094 C3106 0.950 . S
H3095 C3107 0.950 . S
C3096 H3088 0.950 . S
C3096 C3097 1.386 . S
C3096 C3098 1.391 . S
C3097 C3096 1.386 . S
C3097 C3101 1.393 . S
C3098 H3090 0.950 . S
C3098 C3096 1.391 . S
C3098 C3099 1.400 . S
C3099 C3098 1.400 . S
C3099 C3100 1.398 . S
C3099 C3105 1.491 . S
C3100 H3091 0.950 . S
C3100 C3099 1.398 . S
C3100 C3101 1.391 . S
C3101 H3089 0.950 . S
C3101 C3097 1.393 . S
C3101 C3100 1.391 . S
C3102 H3092 0.950 . S
C3102 C3103 1.386 . S
C3102 C3104 1.391 . S
C3103 C3102 1.386 . S
C3103 C3107 1.393 . S
C3104 H3093 0.950 . S
C3104 C3102 1.391 . S
C3104 C3105 1.400 . S
C3105 C3099 1.491 . S
C3105 C3104 1.400 . S
C3105 C3106 1.398 . S
C3106 H3094 0.950 . S
C3106 C3105 1.398 . S
C3106 C3107 1.391 . S
C3107 H3095 0.950 . S
C3107 C3103 1.393 . S
C3107 C3106 1.391 . S
H3108 C3116 0.950 . S
H3109 C3121 0.950 . S
H3110 C3118 0.950 . S
H3111 C3120 0.950 . S
H3112 C3122 0.950 . S
H3113 C3124 0.950 . S
H3114 C3126 0.950 . S
H3115 C3127 0.950 . S
C3116 H3108 0.950 . S
C3116 C3117 1.386 . S
C3116 C3118 1.391 . S
C3117 C3116 1.386 . S
C3117 C3121 1.393 . S
C3118 H3110 0.950 . S
C3118 C3116 1.391 . S
C3118 C3119 1.400 . S
C3119 C3118 1.400 . S
C3119 C3120 1.398 . S
C3119 C3125 1.491 . S
C3120 H3111 0.950 . S
C3120 C3119 1.398 . S
C3120 C3121 1.391 . S
C3121 H3109 0.950 . S
C3121 C3117 1.393 . S
C3121 C3120 1.391 . S
C3122 H3112 0.950 . S
C3122 C3123 1.386 . S
C3122 C3124 1.391 . S
C3123 C3122 1.386 . S
C3123 C3127 1.393 . S
C3124 H3113 0.950 . S
C3124 C3122 1.391 . S
C3124 C3125 1.400 . S
C3125 C3119 1.491 . S
C3125 C3124 1.400 . S
C3125 C3126 1.398 . S
C3126 H3114 0.950 . S
C3126 C3125 1.398 . S
C3126 C3127 1.391 . S
C3127 H3115 0.950 . S
C3127 C3123 1.393 . S
C3127 C3126 1.391 . S
H3128 C3136 0.950 . S
H3129 C3141 0.950 . S
H3130 C3138 0.950 . S
H3131 C3140 0.950 . S
H3132 C3142 0.950 . S
H3133 C3144 0.950 . S
H3134 C3146 0.950 . S
H3135 C3147 0.950 . S
C3136 H3128 0.950 . S
C3136 C3137 1.386 . S
C3136 C3138 1.391 . S
C3137 C3136 1.386 . S
C3137 C3141 1.393 . S
C3138 H3130 0.950 . S
C3138 C3136 1.391 . S
C3138 C3139 1.400 . S
C3139 C3138 1.400 . S
C3139 C3140 1.398 . S
C3139 C3145 1.491 . S
C3140 H3131 0.950 . S
C3140 C3139 1.398 . S
C3140 C3141 1.391 . S
C3141 H3129 0.950 . S
C3141 C3137 1.393 . S
C3141 C3140 1.391 . S
C3142 H3132 0.950 . S
C3142 C3143 1.386 . S
C3142 C3144 1.391 . S
C3143 C3142 1.386 . S
C3143 C3147 1.393 . S
C3144 H3133 0.950 . S
C3144 C3142 1.391 . S
C3144 C3145 1.400 . S
C3145 C3139 1.491 . S
C3145 C3144 1.400 . S
C3145 C3146 1.398 . S
C3146 H3134 0.950 . S
C3146 C3145 1.398 . S
C3146 C3147 1.391 . S
C3147 H3135 0.950 . S
C3147 C3143 1.393 . S
C3147 C3146 1.391 . S
H3148 C3156 0.950 . S
H3149 C3161 0.950 . S
H3150 C3158 0.950 . S
H3151 C3160 0.950 . S
H3152 C3162 0.950 . S
H3153 C3164 0.950 . S
H3154 C3166 0.950 . S
H3155 C3167 0.950 . S
C3156 H3148 0.950 . S
C3156 C3157 1.386 . S
C3156 C3158 1.391 . S
C3157 C3156 1.386 . S
C3157 C3161 1.393 . S
C3158 H3150 0.950 . S
C3158 C3156 1.391 . S
C3158 C3159 1.400 . S
C3159 C3158 1.400 . S
C3159 C3160 1.398 . S
C3159 C3165 1.491 . S
C3160 H3151 0.950 . S
C3160 C3159 1.398 . S
C3160 C3161 1.391 . S
C3161 H3149 0.950 . S
C3161 C3157 1.393 . S
C3161 C3160 1.391 . S
C3162 H3152 0.950 . S
C3162 C3163 1.386 . S
C3162 C3164 1.391 . S
C3163 C3162 1.386 . S
C3163 C3167 1.393 . S
C3164 H3153 0.950 . S
C3164 C3162 1.391 . S
C3164 C3165 1.400 . S
C3165 C3159 1.491 . S
C3165 C3164 1.400 . S
C3165 C3166 1.398 . S
C3166 H3154 0.950 . S
C3166 C3165 1.398 . S
C3166 C3167 1.391 . S
C3167 H3155 0.950 . S
C3167 C3163 1.393 . S
C3167 C3166 1.391 . S
C1897 C33 1.332 . S
C1903 C151 1.329 . S
C1917 C210 1.301 . S
C1923 C92 1.299 . S
C1937 C387 1.334 . S
C1943 C269 1.325 . S
C1957 C446 1.292 . S
C1963 C328 1.295 . S
C1977 C505 1.341 . S
C1983 C623 1.340 . S
C1997 C682 1.302 . S
C2003 C564 1.308 . S
C2017 C741 1.328 . S
C2023 C859 1.331 . S
C2037 C918 1.310 . S
C2043 C800 1.309 . S
C2057 C977 1.294 . S
C2063 C1095 1.291 . S
C2077 C1036 1.303 . S
C2083 C1154 1.294 . S
C2097 C1331 1.304 . S
C2103 C1213 1.304 . S
C2117 C1272 1.309 . S
C2123 C1390 1.304 . S
C2137 C1567 1.296 . S
C2143 C1449 1.299 . S
C2157 C1626 1.306 . S
C2163 C1508 1.312 . S
C2177 C1803 1.299 . S
C2183 C1685 1.300 . S
C2197 C1744 1.313 . S
C2203 C1862 1.316 . S
C2217 C1480 1.491 . S
C2223 C5 1.486 . S
C2237 C64 1.435 . S
C2243 C1421 1.432 . S
C2257 C123 1.477 . S
C2263 C1598 1.476 . S
C2277 C182 1.409 . S
C2283 C1539 1.400 . S
C2297 C1716 1.508 . S
C2303 C241 1.508 . S
C2317 C300 1.461 . S
C2323 C1657 1.462 . S
C2337 C359 1.477 . S
C2343 C1834 1.472 . S
C2357 C1775 1.410 . S
C2363 C418 1.409 . S
C2377 C477 1.509 . S
C2383 C1008 1.505 . S
C2397 C536 1.450 . S
C2403 C949 1.439 . S
C2417 C595 1.472 . S
C2423 C1126 1.481 . S
C2437 C654 1.444 . S
C2443 C1067 1.445 . S
C2457 C713 1.487 . S
C2463 C1244 1.481 . S
C2477 C1185 1.415 . S
C2483 C772 1.417 . S
C2497 C1362 1.508 . S
C2503 C831 1.504 . S
C2517 C890 1.423 . S
C2523 C1303 1.423 . S
C2537 C3 1.434 . S
C2543 C239 1.434 . S
C2557 C62 1.410 . S
C2563 C1714 1.411 . S
C2577 C121 1.429 . S
C2583 C829 1.430 . S
C2597 C180 1.394 . S
C2603 C1360 1.395 . S
C2617 C298 1.417 . S
C2623 C1478 1.418 . S
C2637 C593 1.437 . S
C2643 C357 1.436 . S
C2657 C1124 1.405 . S
C2663 C416 1.405 . S
C2677 C711 1.424 . S
C2683 C475 1.424 . S
C2697 C534 1.408 . S
C2703 C1242 1.409 . S
C2717 C1832 1.400 . S
C2723 C652 1.400 . S
C2737 C770 1.410 . S
C2743 C1006 1.411 . S
C2757 C888 1.400 . S
C2763 C1596 1.401 . S
C2777 C1183 1.430 1_455 S
C2783 C947 1.430 1_655 S
C2797 C1065 1.404 1_655 S
C2803 C1773 1.402 1_455 S
C2817 C1537 1.412 1_655 S
C2823 C1301 1.415 1_455 S
C2837 C1655 1.428 1_455 S
C2843 C1419 1.427 1_655 S
C2857 C52 1.720 . S
C2863 C111 1.718 . S
C2877 C170 1.657 . S
C2883 C229 1.669 . S
C2897 C288 1.734 . S
C2903 C347 1.742 . S
C2917 C406 1.671 . S
C2923 C465 1.680 . S
C2937 C583 1.688 . S
C2943 C524 1.687 . S
C2957 C642 1.732 . S
C2963 C701 1.741 . S
C2977 C760 1.687 . S
C2983 C819 1.699 . S
C2997 C878 1.736 . S
C3003 C937 1.736 . S
C3017 C996 1.785 . S
C3023 C1055 1.787 . S
C3037 C1173 1.706 . S
C3043 C1114 1.704 . S
C3057 C1232 1.777 . S
C3063 C1291 1.783 . S
C3077 C1350 1.690 . S
C3083 C1409 1.691 . S
C3097 C1527 1.729 . S
C3103 C1468 1.728 . S
C3117 C1586 1.721 . S
C3123 C1645 1.731 . S
C3137 C1763 1.725 . S
C3143 C1704 1.738 . S
C3157 C1822 1.736 . S
C3163 C1881 1.734 . S
