# Generated by pormake.
# Topology wiu, (6)-cn, num edge types: 1
# Building blocks:
#     Node 0, Type 0, BuildingBlock: BETDEL_clean_sbu_0, # of connection points: 6
#     Node 1, Type 0, BuildingBlock: BETDEL_clean_sbu_0, # of connection points: 6
#     Node 2, Type 0, BuildingBlock: BETDEL_clean_sbu_0, # of connection points: 6
#     Node 3, Type 0, BuildingBlock: BETDEL_clean_sbu_0, # of connection points: 6
#     Node 4, Type 0, BuildingBlock: BETDEL_clean_sbu_0, # of connection points: 6
#     Node 5, Type 0, BuildingBlock: BETDEL_clean_sbu_0, # of connection points: 6
#     Node 6, Type 0, BuildingBlock: BETDEL_clean_sbu_0, # of connection points: 6
#     Node 7, Type 0, BuildingBlock: BETDEL_clean_sbu_0, # of connection points: 6
#     Node 8, Type 0, BuildingBlock: BETDEL_clean_sbu_0, # of connection points: 6
#     Node 9, Type 0, BuildingBlock: BETDEL_clean_sbu_0, # of connection points: 6
#     Node 10, Type 0, BuildingBlock: BETDEL_clean_sbu_0, # of connection points: 6
#     Node 11, Type 0, BuildingBlock: BETDEL_clean_sbu_0, # of connection points: 6
#     Node 12, Type 0, BuildingBlock: BETDEL_clean_sbu_0, # of connection points: 6
#     Node 13, Type 0, BuildingBlock: BETDEL_clean_sbu_0, # of connection points: 6
#     Node 14, Type 0, BuildingBlock: BETDEL_clean_sbu_0, # of connection points: 6
#     Node 15, Type 0, BuildingBlock: BETDEL_clean_sbu_0, # of connection points: 6
#     Edge 16, Type (0, 0), BuildingBlock: CIFDUS_clean_linker_0, # of connection points: 2
#     Edge 17, Type (0, 0), BuildingBlock: CIFDUS_clean_linker_0, # of connection points: 2
#     Edge 18, Type (0, 0), BuildingBlock: CIFDUS_clean_linker_0, # of connection points: 2
#     Edge 19, Type (0, 0), BuildingBlock: CIFDUS_clean_linker_0, # of connection points: 2
#     Edge 20, Type (0, 0), BuildingBlock: CIFDUS_clean_linker_0, # of connection points: 2
#     Edge 21, Type (0, 0), BuildingBlock: CIFDUS_clean_linker_0, # of connection points: 2
#     Edge 22, Type (0, 0), BuildingBlock: CIFDUS_clean_linker_0, # of connection points: 2
#     Edge 23, Type (0, 0), BuildingBlock: CIFDUS_clean_linker_0, # of connection points: 2
#     Edge 24, Type (0, 0), BuildingBlock: CIFDUS_clean_linker_0, # of connection points: 2
#     Edge 25, Type (0, 0), BuildingBlock: CIFDUS_clean_linker_0, # of connection points: 2
#     Edge 26, Type (0, 0), BuildingBlock: CIFDUS_clean_linker_0, # of connection points: 2
#     Edge 27, Type (0, 0), BuildingBlock: CIFDUS_clean_linker_0, # of connection points: 2
#     Edge 28, Type (0, 0), BuildingBlock: CIFDUS_clean_linker_0, # of connection points: 2
#     Edge 29, Type (0, 0), BuildingBlock: CIFDUS_clean_linker_0, # of connection points: 2
#     Edge 30, Type (0, 0), BuildingBlock: CIFDUS_clean_linker_0, # of connection points: 2
#     Edge 31, Type (0, 0), BuildingBlock: CIFDUS_clean_linker_0, # of connection points: 2
#     Edge 32, Type (0, 0), BuildingBlock: CIFDUS_clean_linker_0, # of connection points: 2
#     Edge 33, Type (0, 0), BuildingBlock: CIFDUS_clean_linker_0, # of connection points: 2
#     Edge 34, Type (0, 0), BuildingBlock: CIFDUS_clean_linker_0, # of connection points: 2
#     Edge 35, Type (0, 0), BuildingBlock: CIFDUS_clean_linker_0, # of connection points: 2
#     Edge 36, Type (0, 0), BuildingBlock: CIFDUS_clean_linker_0, # of connection points: 2
#     Edge 37, Type (0, 0), BuildingBlock: CIFDUS_clean_linker_0, # of connection points: 2
#     Edge 38, Type (0, 0), BuildingBlock: CIFDUS_clean_linker_0, # of connection points: 2
#     Edge 39, Type (0, 0), BuildingBlock: CIFDUS_clean_linker_0, # of connection points: 2
#     Edge 40, Type (0, 0), BuildingBlock: CIFDUS_clean_linker_0, # of connection points: 2
#     Edge 41, Type (0, 0), BuildingBlock: CIFDUS_clean_linker_0, # of connection points: 2
#     Edge 42, Type (0, 0), BuildingBlock: CIFDUS_clean_linker_0, # of connection points: 2
#     Edge 43, Type (0, 0), BuildingBlock: CIFDUS_clean_linker_0, # of connection points: 2
#     Edge 44, Type (0, 0), BuildingBlock: CIFDUS_clean_linker_0, # of connection points: 2
#     Edge 45, Type (0, 0), BuildingBlock: CIFDUS_clean_linker_0, # of connection points: 2
#     Edge 46, Type (0, 0), BuildingBlock: CIFDUS_clean_linker_0, # of connection points: 2
#     Edge 47, Type (0, 0), BuildingBlock: CIFDUS_clean_linker_0, # of connection points: 2
#     Edge 48, Type (0, 0), BuildingBlock: CIFDUS_clean_linker_0, # of connection points: 2
#     Edge 49, Type (0, 0), BuildingBlock: CIFDUS_clean_linker_0, # of connection points: 2
#     Edge 50, Type (0, 0), BuildingBlock: CIFDUS_clean_linker_0, # of connection points: 2
#     Edge 51, Type (0, 0), BuildingBlock: CIFDUS_clean_linker_0, # of connection points: 2
#     Edge 52, Type (0, 0), BuildingBlock: CIFDUS_clean_linker_0, # of connection points: 2
#     Edge 53, Type (0, 0), BuildingBlock: CIFDUS_clean_linker_0, # of connection points: 2
#     Edge 54, Type (0, 0), BuildingBlock: CIFDUS_clean_linker_0, # of connection points: 2
#     Edge 55, Type (0, 0), BuildingBlock: CIFDUS_clean_linker_0, # of connection points: 2
#     Edge 56, Type (0, 0), BuildingBlock: CIFDUS_clean_linker_0, # of connection points: 2
#     Edge 57, Type (0, 0), BuildingBlock: CIFDUS_clean_linker_0, # of connection points: 2
#     Edge 58, Type (0, 0), BuildingBlock: CIFDUS_clean_linker_0, # of connection points: 2
#     Edge 59, Type (0, 0), BuildingBlock: CIFDUS_clean_linker_0, # of connection points: 2
#     Edge 60, Type (0, 0), BuildingBlock: CIFDUS_clean_linker_0, # of connection points: 2
#     Edge 61, Type (0, 0), BuildingBlock: CIFDUS_clean_linker_0, # of connection points: 2
#     Edge 62, Type (0, 0), BuildingBlock: CIFDUS_clean_linker_0, # of connection points: 2
#     Edge 63, Type (0, 0), BuildingBlock: CIFDUS_clean_linker_0, # of connection points: 2
# Relax obj value: 0.314
# Max RMSD: 0.280
# Mean RMSD: 0.280
data_MOF--net-wiu--node1-BETDEL_clean_sbu_0--edge1-CIFDUS_clean_linker_0
_symmetry_space_group_name_H-M    P1
_symmetry_Int_Tables_number       1
_symmetry_cell_setting            triclinic
loop_
_symmetry_equiv_pos_as_xyz
'x, y, z'
_cell_length_a     28.161141
_cell_length_b     50.067112
_cell_length_c     69.006142
_cell_angle_alpha  89.881673
_cell_angle_beta   89.894365
_cell_angle_gamma 28.239037
loop_
_atom_site_label
_atom_site_type_symbol
_atom_site_fract_x
_atom_site_fract_y
_atom_site_fract_z
_atom_type_partial_charge
Dy0 Dy -0.02028 0.18356 0.10395 0.0
C1 C 0.3444 0.03078 0.0735 0.0
C2 C -0.19962 0.25855 0.11968 0.0
Dy3 Dy 0.18473 0.08745 0.08967 0.0
O4 O -0.12802 0.23541 0.12869 0.0
O5 O -0.16985 0.23739 0.10237 0.0
O6 O -0.0888 0.25744 0.09902 0.0
O7 O 0.06187 0.17764 0.09163 0.0
C8 C -0.00925 0.22981 0.09277 0.0
C9 C 0.13274 0.0626 0.09624 0.0
O10 O 0.22203 0.07818 0.12041 0.0
O11 O 0.06364 0.14693 0.13241 0.0
O12 O 0.35083 0.00646 0.08443 0.0
O13 O 0.25357 0.08463 0.07223 0.0
O14 O 0.19442 0.03887 0.0825 0.0
O15 O 0.11012 0.09368 0.10652 0.0
O16 O -0.03314 0.16882 0.07481 0.0
O17 O 0.11106 0.11458 0.06148 0.0
C18 C 0.159 0.10667 0.13504 0.0
C19 C 0.0273 0.14229 0.0597 0.0
Dy20 Dy -0.39761 0.62049 0.28171 0.0
C21 C -0.49002 0.76326 0.2545 0.0
C22 C -0.38028 0.56217 0.29704 0.0
Dy23 Dy -0.40439 0.67842 0.27089 0.0
O24 O -0.43513 0.59604 0.2824 0.0
O25 O -0.32996 0.55775 0.30318 0.0
O26 O -0.54119 0.68408 0.26634 0.0
O27 O -0.52601 0.71204 0.28173 0.0
C28 C -0.58619 0.72805 0.27147 0.0
C29 C -0.21958 0.57076 0.28054 0.0
O30 O -0.4315 0.70083 0.30184 0.0
O31 O -0.39539 0.63994 0.31146 0.0
O32 O -0.40161 0.72035 0.26246 0.0
O33 O -0.5283 0.75855 0.25486 0.0
O34 O -0.25091 0.61049 0.28395 0.0
O35 O -0.28351 0.58983 0.27106 0.0
O36 O -0.3311 0.58302 0.25141 0.0
O37 O -0.37181 0.6455 0.24101 0.0
C38 C -0.41515 0.67518 0.3157 0.0
C39 C -0.33831 0.60453 0.23717 0.0
Dy40 Dy -1.32578 0.9766 0.46445 0.0
C41 C -1.69301 1.14211 0.43276 0.0
C42 C -1.14393 0.89234 0.4812 0.0
Dy43 Dy -1.53516 1.08166 0.45252 0.0
O44 O -1.17213 0.88601 0.47103 0.0
O45 O -1.21479 0.9451 0.48236 0.0
O46 O -1.30358 0.92727 0.44867 0.0
O47 O -1.43977 1.00146 0.46318 0.0
C48 C -1.39074 0.96059 0.45294 0.0
C49 C -1.46592 1.09494 0.46304 0.0
O50 O -1.57155 1.09167 0.48329 0.0
O51 O -1.40736 1.01572 0.49367 0.0
O52 O -1.69049 1.1643 0.4408 0.0
O53 O -1.61131 1.0883 0.43561 0.0
O54 O -1.5597 1.13471 0.4654 0.0
O55 O -1.41992 1.05452 0.45381 0.0
O56 O -1.3019 0.98162 0.43407 0.0
O57 O -1.4627 1.05292 0.4234 0.0
C58 C -1.50464 1.06018 0.49732 0.0
C59 C -1.36951 1.01452 0.41984 0.0
Dy60 Dy 0.05955 0.54051 0.6442 0.0
C61 C 0.13956 0.39992 0.61897 0.0
C62 C 0.0389 0.60077 0.65885 0.0
Dy63 Dy 0.06433 0.48179 0.63448 0.0
O64 O 0.07856 0.57515 0.64229 0.0
O65 O 0.00678 0.5952 0.66736 0.0
O66 O 0.2081 0.47248 0.62959 0.0
O67 O 0.18226 0.45052 0.64534 0.0
C68 C 0.24618 0.43111 0.63508 0.0
C69 C -0.11745 0.58934 0.64383 0.0
O70 O 0.0861 0.46342 0.66557 0.0
O71 O 0.05544 0.52247 0.67424 0.0
O72 O 0.04412 0.45114 0.62163 0.0
O73 O 0.19174 0.39411 0.6251 0.0
O74 O -0.09013 0.55122 0.64712 0.0
O75 O -0.05272 0.56938 0.63419 0.0
O76 O -0.01279 0.57792 0.61405 0.0
O77 O 0.05713 0.50351 0.60459 0.0
C78 C 0.07228 0.4886 0.67893 0.0
C79 C 0.01055 0.5491 0.60006 0.0
Dy80 Dy -1.0298 1.07986 0.70785 0.0
C81 C -0.64864 0.8923 0.68007 0.0
C82 C -1.18117 1.13546 0.72825 0.0
Dy83 Dy -0.82844 0.97807 0.69782 0.0
O84 O -1.19315 1.16019 0.71537 0.0
O85 O -1.08901 1.08202 0.72963 0.0
O86 O -1.05686 1.1342 0.69507 0.0
O87 O -0.91666 1.05479 0.70709 0.0
C88 C -0.96357 1.09505 0.69743 0.0
C89 C -0.89188 0.96035 0.70833 0.0
O90 O -0.8053 0.98455 0.72781 0.0
O91 O -0.96869 1.05945 0.7374 0.0
O92 O -0.66581 0.88848 0.6962 0.0
O93 O -0.72957 0.94365 0.67376 0.0
O94 O -0.80833 0.92975 0.71359 0.0
O95 O -0.93919 1.00038 0.69772 0.0
O96 O -1.06656 1.0891 0.67744 0.0
O97 O -0.90364 1.01586 0.66802 0.0
C98 C -0.87514 1.01954 0.74158 0.0
C99 C -0.99942 1.05892 0.66369 0.0
Dy100 Dy -0.43602 0.48006 0.52675 0.0
C101 C -0.45142 0.59202 0.49978 0.0
C102 C -0.36851 0.40229 0.54413 0.0
Dy103 Dy -0.43971 0.53679 0.5162 0.0
O104 O -0.46207 0.45259 0.53986 0.0
O105 O -0.31331 0.39491 0.53887 0.0
O106 O -0.57993 0.54126 0.5117 0.0
O107 O -0.55936 0.56931 0.52378 0.0
C108 C -0.61566 0.58305 0.51345 0.0
C109 C -0.2548 0.43029 0.52882 0.0
O110 O -0.51894 0.57975 0.54529 0.0
O111 O -0.47034 0.51427 0.55612 0.0
O112 O -0.41085 0.55117 0.49195 0.0
O113 O -0.48621 0.60289 0.51667 0.0
O114 O -0.2998 0.47449 0.53354 0.0
O115 O -0.31307 0.44619 0.51784 0.0
O116 O -0.4028 0.45584 0.49588 0.0
O117 O -0.45294 0.52301 0.48675 0.0
C118 C -0.51219 0.55845 0.55943 0.0
C119 C -0.42401 0.484 0.48231 0.0
Dy120 Dy 0.69062 0.08605 0.34658 0.0
C121 C 0.31092 0.26153 0.31882 0.0
C122 C 0.85973 0.01752 0.3647 0.0
Dy123 Dy 0.49622 0.17655 0.33486 0.0
O124 O 0.82491 0.01066 0.36494 0.0
O125 O 0.80302 0.06106 0.35445 0.0
O126 O 0.73678 0.02676 0.32957 0.0
O127 O 0.599 0.095 0.34432 0.0
C128 C 0.65569 0.05363 0.33351 0.0
C129 C 0.52696 0.21269 0.34663 0.0
O130 O 0.48759 0.15891 0.36364 0.0
O131 O 0.61147 0.12403 0.37531 0.0
O132 O 0.33026 0.2543 0.33708 0.0
O133 O 0.3948 0.2197 0.30936 0.0
O134 O 0.44882 0.23718 0.35047 0.0
O135 O 0.58653 0.16914 0.3366 0.0
O136 O 0.7239 0.08204 0.31654 0.0
O137 O 0.57862 0.13468 0.30572 0.0
C138 C 0.53807 0.1434 0.37861 0.0
C139 C 0.66691 0.10231 0.30216 0.0
Dy140 Dy -0.9049 0.67769 0.16623 0.0
C141 C -0.88859 0.56821 0.13688 0.0
C142 C -0.9755 0.75648 0.18361 0.0
Dy143 Dy -0.89793 0.62245 0.15297 0.0
O144 O -0.88094 0.70562 0.18023 0.0
O145 O -1.02941 0.76333 0.17782 0.0
O146 O -0.76005 0.61764 0.15154 0.0
O147 O -0.77685 0.58716 0.16282 0.0
C148 C -0.7214 0.57475 0.15304 0.0
C149 C -1.08394 0.72606 0.16646 0.0
O150 O -0.81375 0.57529 0.1814 0.0
O151 O -0.88206 0.64641 0.19504 0.0
O152 O -0.90048 0.57934 0.15502 0.0
O153 O -0.87773 0.58499 0.1274 0.0
O154 O -1.03438 0.68007 0.17018 0.0
O155 O -1.03063 0.71466 0.15578 0.0
O156 O -0.93733 0.70568 0.13634 0.0
O157 O -0.88806 0.6407 0.12423 0.0
C158 C -0.83172 0.59896 0.197 0.0
C159 C -0.91356 0.67879 0.12156 0.0
Dy160 Dy -0.44181 0.77808 0.46323 0.0
C161 C -0.06986 0.61254 0.43374 0.0
C162 C -0.62504 0.86249 0.47959 0.0
Dy163 Dy -0.23051 0.6742 0.45251 0.0
O164 O -0.57242 0.85807 0.47994 0.0
O165 O -0.57882 0.8211 0.46995 0.0
O166 O -0.46924 0.82953 0.44692 0.0
O167 O -0.33237 0.75677 0.46157 0.0
C168 C -0.38269 0.79727 0.45074 0.0
C169 C -0.29337 0.65708 0.46311 0.0
O170 O -0.20639 0.67359 0.48317 0.0
O171 O -0.36262 0.73601 0.49262 0.0
O172 O -0.06347 0.594 0.44888 0.0
O173 O -0.16161 0.66335 0.42914 0.0
O174 O -0.20084 0.61881 0.46554 0.0
O175 O -0.34062 0.69749 0.45352 0.0
O176 O -0.46138 0.77291 0.43223 0.0
O177 O -0.29673 0.6986 0.423 0.0
C178 C -0.2703 0.69858 0.49691 0.0
C179 C -0.39003 0.7379 0.41871 0.0
Dy180 Dy 0.02637 0.0324 0.64417 0.0
C181 C -0.02844 0.16091 0.61782 0.0
C182 C -1.82394 1.16719 0.66065 0.0
Dy183 Dy 0.02651 0.08722 0.63425 0.0
O184 O -0.01256 0.00856 0.64505 0.0
O185 O -1.77638 1.1644 0.66699 0.0
O186 O -0.11538 0.09614 0.6278 0.0
O187 O -0.09866 0.12322 0.64366 0.0
C188 C -0.15624 0.13883 0.63241 0.0
C189 C -1.65153 1.16757 0.64406 0.0
O190 O 0.00722 0.10598 0.6651 0.0
O191 O 0.03444 0.04874 0.67406 0.0
O192 O 0.06053 0.1065 0.61647 0.0
O193 O -0.08512 0.17436 0.62874 0.0
O194 O 0.17939 0.01743 0.64806 0.0
O195 O 0.14443 -0.00108 0.63401 0.0
O196 O 0.09972 -0.00672 0.61423 0.0
O197 O 0.02257 0.07012 0.60481 0.0
C198 C 0.02034 0.08133 0.67858 0.0
C199 C 0.0732 0.02327 0.60016 0.0
Dy200 Dy 0.11847 0.37874 0.10121 0.0
C201 C -0.26549 0.54691 0.07231 0.0
C202 C 0.29765 0.30516 0.11664 0.0
Dy203 Dy -0.09905 0.48122 0.09013 0.0
O204 O 0.28385 0.30363 0.09902 0.0
O205 O 0.21198 0.34845 0.12559 0.0
O206 O 0.17047 0.31049 0.10072 0.0
O207 O 0.02114 0.3922 0.09425 0.0
C208 C 0.0858 0.34168 0.09614 0.0
C209 C -0.04206 0.50271 0.0995 0.0
O210 O -0.10896 0.47255 0.1208 0.0
O211 O 0.02974 0.4285 0.12913 0.0
O212 O -0.26622 0.55845 0.08923 0.0
O213 O -0.17559 0.49995 0.0656 0.0
O214 O -0.13373 0.5399 0.10193 0.0
O215 O 0.00666 0.46117 0.09075 0.0
O216 O 0.1276 0.38937 0.06992 0.0
O217 O -0.03365 0.45701 0.06066 0.0
C218 C -0.05502 0.45822 0.13401 0.0
C219 C 0.05692 0.42139 0.05636 0.0
Dy220 Dy -1.38589 1.14206 0.2823 0.0
C221 C -1.28773 0.99566 0.25639 0.0
C222 C 0.44829 0.01618 0.29749 0.0
Dy223 Dy -1.35835 1.07536 0.27293 0.0
O224 O 0.4758 -0.00286 0.27997 0.0
O225 O 0.42919 0.00353 0.30656 0.0
O226 O -1.24741 1.0844 0.2659 0.0
O227 O -1.24437 1.04816 0.28234 0.0
C228 C -1.19277 1.03742 0.27123 0.0
C229 C 0.31219 -0.01034 0.28404 0.0
O230 O -1.32203 1.05002 0.30368 0.0
O231 O -1.39688 1.12673 0.31188 0.0
O232 O -1.38223 1.04811 0.25792 0.0
O233 O -1.23332 0.98704 0.26428 0.0
O234 O -1.49877 1.13247 0.28838 0.0
O235 O -1.49663 1.16807 0.27327 0.0
O236 O 0.39698 -0.00813 0.25281 0.0
O237 O -1.3674 1.098 0.2433 0.0
C238 C -1.35765 1.08385 0.31692 0.0
C239 C -1.42903 1.14814 0.23873 0.0
Dy240 Dy -0.59549 0.47736 0.34415 0.0
C241 C -0.21339 0.3069 0.31887 0.0
C242 C -0.75865 0.54012 0.36254 0.0
Dy243 Dy -0.39809 0.38815 0.33466 0.0
O244 O -0.76204 0.55313 0.34567 0.0
O245 O -0.66783 0.49299 0.36881 0.0
O246 O -0.65095 0.54322 0.33137 0.0
O247 O -0.50827 0.47154 0.34427 0.0
C248 C -0.56843 0.51522 0.33454 0.0
C249 C -0.42825 0.35072 0.34453 0.0
O250 O -0.39498 0.40651 0.36437 0.0
O251 O -0.53011 0.44903 0.37389 0.0
O252 O -0.23133 0.30996 0.33681 0.0
O253 O -0.29759 0.34981 0.30956 0.0
O254 O -0.35229 0.32748 0.34948 0.0
O255 O -0.48561 0.39324 0.33403 0.0
O256 O -0.61049 0.47135 0.31373 0.0
O257 O -0.4794 0.43355 0.30588 0.0
C258 C -0.45454 0.4273 0.37844 0.0
C259 C -0.55961 0.45947 0.30062 0.0
Dy260 Dy -0.8593 1.07371 0.16251 0.0
C261 C 0.95796 0.011 0.13769 0.0
C262 C -0.77138 0.98865 0.17969 0.0
Dy263 Dy -0.87885 1.13866 0.15361 0.0
O264 O -0.84084 1.02037 0.16662 0.0
O265 O -0.75157 1.00356 0.18337 0.0
O266 O -1.00839 1.1354 0.14987 0.0
O267 O -0.99027 1.16473 0.16179 0.0
C268 C 0.81218 -0.01021 0.15216 0.0
C269 C -0.68771 1.0312 0.16439 0.0
O270 O -0.9471 1.17415 0.18402 0.0
O271 O -0.89966 1.10795 0.19228 0.0
O272 O -0.85591 1.15707 0.12967 0.0
O273 O 0.92218 0.02131 0.15432 0.0
O274 O -0.73558 1.07619 0.16959 0.0
O275 O -0.74499 1.04635 0.15334 0.0
O276 O -0.81862 1.04989 0.13161 0.0
O277 O -0.90708 1.13182 0.12469 0.0
C278 C -0.93984 1.15103 0.19708 0.0
C279 C -0.86323 1.08759 0.11892 0.0
Dy280 Dy -0.74101 0.67978 0.70934 0.0
C281 C -1.11548 0.85596 0.67918 0.0
C282 C -0.58054 0.61767 0.72874 0.0
Dy283 Dy -0.93227 0.76929 0.69656 0.0
O284 O -0.57445 0.60113 0.71283 0.0
O285 O -0.67248 0.66708 0.73393 0.0
O286 O -0.68634 0.61603 0.69376 0.0
O287 O -0.83089 0.6879 0.70585 0.0
C288 C -0.77011 0.64475 0.69584 0.0
C289 C -0.90054 0.80372 0.7104 0.0
O290 O -0.94908 0.75287 0.7239 0.0
O291 O -0.81583 0.70755 0.73802 0.0
O292 O -1.0996 0.8511 0.6975 0.0
O293 O -1.03005 0.81183 0.67037 0.0
O294 O -0.97635 0.82642 0.71455 0.0
O295 O -0.84219 0.76194 0.69941 0.0
O296 O -0.71351 0.6831 0.68022 0.0
O297 O -0.84525 0.72504 0.66799 0.0
C298 C -0.89638 0.73227 0.73967 0.0
C299 C -0.76008 0.696 0.66519 0.0
Dy300 Dy 0.52396 0.08683 0.52651 0.0
C301 C -1.31315 1.16053 0.50133 0.0
C302 C 0.44987 0.16844 0.54198 0.0
Dy303 Dy 0.53419 0.02763 0.51697 0.0
O304 O 0.54516 0.11615 0.54061 0.0
O305 O 0.3971 0.17546 0.53468 0.0
O306 O 0.67077 0.02371 0.51193 0.0
O307 O 0.65115 -0.00369 0.52584 0.0
C308 C -1.15218 1.17049 0.51524 0.0
C309 C 0.34893 0.13297 0.52917 0.0
O310 O -1.24578 1.17447 0.54597 0.0
O311 O 0.53573 0.06266 0.55629 0.0
O312 O 0.50797 -0.00314 0.51794 0.0
O313 O -1.27586 1.1634 0.49354 0.0
O314 O 0.39663 0.0882 0.53454 0.0
O315 O 0.40262 0.11967 0.51742 0.0
O316 O 0.49777 0.10803 0.49557 0.0
O317 O 0.53324 0.04721 0.48683 0.0
C318 C 0.58773 0.01509 0.56028 0.0
C319 C 0.51317 0.08236 0.48211 0.0
H320 H 0.15305 0.18346 0.08579 0.0
H321 H -0.16835 0.34208 0.09305 0.0
H322 H -0.17206 0.39247 0.09317 0.0
H323 H -0.0826 0.39176 0.09448 0.0
H324 H 0.23862 0.23311 0.08701 0.0
H325 H 0.24001 0.18413 0.08334 0.0
C326 C 0.08217 0.22905 0.08709 0.0
C327 C -0.00686 0.25838 0.08969 0.0
C328 C 0.0801 0.2585 0.08728 0.0
C329 C -0.098 0.31779 0.09125 0.0
C330 C -0.10052 0.34703 0.09136 0.0
C331 C -0.01265 0.34667 0.09181 0.0
C332 C 0.07788 0.31637 0.09141 0.0
C333 C -0.01173 0.31789 0.08992 0.0
C334 C 0.16764 0.25778 0.08778 0.0
C335 C 0.16882 0.22938 0.08566 0.0
H336 H -0.72899 0.83638 0.2616 0.0
H337 H -0.69438 0.7409 0.28663 0.0
H338 H -0.87647 0.82607 0.28873 0.0
H339 H -1.04894 0.92925 0.28326 0.0
H340 H -1.08172 1.02286 0.25636 0.0
H341 H -0.90045 0.93835 0.25518 0.0
C342 C -0.76143 0.8345 0.26779 0.0
C343 C -0.69754 0.7823 0.27429 0.0
C344 C -0.86731 0.88383 0.26853 0.0
C345 C -0.74144 0.78056 0.28175 0.0
C346 C -0.84599 0.82937 0.28289 0.0
C347 C -1.01637 0.9311 0.27716 0.0
C348 C -1.0802 0.98307 0.27013 0.0
C349 C -0.91026 0.88148 0.27627 0.0
C350 C -1.03558 0.98398 0.26204 0.0
C351 C -0.93118 0.93542 0.26136 0.0
H352 H -1.26197 0.85776 0.44118 0.0
H353 H -1.55842 1.01619 0.46483 0.0
H354 H -0.58008 0.97973 0.46607 0.0
H355 H -0.51634 0.90221 0.46063 0.0
H356 H -0.21527 0.74173 0.43938 0.0
H357 H -1.19613 0.77944 0.43692 0.0
C358 C -1.3323 0.88456 0.44651 0.0
C359 C -1.40868 0.94 0.45277 0.0
C360 C -1.34472 0.86274 0.44762 0.0
C361 C -1.49875 0.97368 0.45979 0.0
C362 C -0.50977 0.9527 0.46056 0.0
C363 C -0.44594 0.87555 0.45545 0.0
C364 C -0.36764 0.81927 0.45004 0.0
C365 C -0.43322 0.89725 0.45455 0.0
C366 C -0.27644 0.785 0.44364 0.0
C367 C -1.2669 0.80669 0.44219 0.0
H368 H -0.29891 0.20426 0.66063 0.0
H369 H -0.25958 0.19957 0.59963 0.0
H370 H -0.44154 0.28806 0.59472 0.0
H371 H 0.38975 0.36735 0.60779 0.0
H372 H 0.35 0.36839 0.66825 0.0
H373 H 0.5318 0.28138 0.67343 0.0
C374 C -0.33079 0.22358 0.64639 0.0
C375 C -0.26637 0.1968 0.63062 0.0
C376 C -0.43573 0.27346 0.64356 0.0
C377 C -0.308 0.2206 0.61207 0.0
C378 C -0.41196 0.27082 0.60923 0.0
C379 C 0.42129 0.34796 0.62203 0.0
C380 C 0.35663 0.374 0.63757 0.0
C381 C -0.47666 0.29757 0.62483 0.0
C382 C 0.39829 0.34864 0.65598 0.0
C383 C 0.50224 0.29919 0.65898 0.0
H384 H -1.00123 0.97576 0.72687 0.0
H385 H -0.77489 0.87529 0.68317 0.0
H386 H -0.75144 0.8153 0.68042 0.0
H387 H -0.79415 0.7902 0.69075 0.0
H388 H -1.02125 0.89139 0.73451 0.0
H389 H -1.04478 0.95124 0.73698 0.0
C390 C -0.94846 0.94146 0.71647 0.0
C391 C -0.89168 0.93088 0.7049 0.0
C392 C -0.93436 0.90648 0.71515 0.0
C393 C -0.82123 0.88514 0.69191 0.0
C394 C -0.80708 0.85043 0.69047 0.0
C395 C -0.8482 0.82509 0.70091 0.0
C396 C -0.90572 0.83603 0.71244 0.0
C397 C -0.86268 0.86031 0.7021 0.0
C398 C -0.97584 0.8818 0.72544 0.0
C399 C -0.98978 0.91636 0.72683 0.0
H400 H 0.20013 0.22112 0.50308 0.0
H401 H 0.24924 0.17116 0.56196 0.0
H402 H 0.06846 0.25747 0.56725 0.0
H403 H -0.10557 0.34668 0.55501 0.0
H404 H -0.15666 0.39466 0.49564 0.0
H405 H 0.0244 0.31072 0.49064 0.0
C406 C 0.17093 0.22981 0.51714 0.0
C407 C 0.2384 0.19001 0.53222 0.0
C408 C 0.06581 0.27908 0.51991 0.0
C409 C 0.19913 0.2013 0.55019 0.0
C410 C 0.09554 0.25057 0.55321 0.0
C411 C -0.07669 0.33829 0.54095 0.0
C412 C -0.14426 0.37632 0.52564 0.0
C413 C 0.02793 0.28949 0.53813 0.0
C414 C -0.10593 0.36537 0.50755 0.0
C415 C -0.00233 0.31756 0.50473 0.0
H416 H -0.58247 0.38997 0.34215 0.0
H417 H -0.26105 0.23711 0.3476 0.0
H418 H -0.24565 0.18096 0.34806 0.0
H419 H 0.68021 0.17393 0.34703 0.0
H420 H 0.35801 0.327 0.34445 0.0
H421 H 0.34253 0.38321 0.34273 0.0
C422 C -0.50914 0.34439 0.34334 0.0
C423 C -0.42308 0.31813 0.34463 0.0
C424 C 0.50216 0.31183 0.34414 0.0
C425 C -0.32887 0.25887 0.34652 0.0
C426 C -0.31975 0.22643 0.34677 0.0
C427 C 0.60671 0.21955 0.34606 0.0
C428 C 0.52066 0.24579 0.34578 0.0
C429 C -0.40491 0.25223 0.34559 0.0
C430 C 0.42591 0.30524 0.34475 0.0
C431 C 0.4168 0.33769 0.34372 0.0
H432 H -1.22976 0.82691 0.14598 0.0
H433 H -0.18845 0.75055 0.19214 0.0
H434 H -0.36959 0.8355 0.19521 0.0
H435 H -0.54198 0.93225 0.18468 0.0
H436 H -1.5864 1.01008 0.13876 0.0
H437 H -1.40406 0.92507 0.13562 0.0
C438 C -1.26114 0.82921 0.15685 0.0
C439 C -1.19593 0.78198 0.16886 0.0
C440 C -1.3671 0.87871 0.15845 0.0
C441 C -1.23882 0.78593 0.1827 0.0
C442 C -0.34018 0.83464 0.18445 0.0
C443 C -0.51089 0.93028 0.17389 0.0
C444 C -0.57643 0.97724 0.1618 0.0
C445 C -0.40542 0.88123 0.17232 0.0
C446 C -0.53483 0.97427 0.14808 0.0
C447 C -1.43311 0.92568 0.14636 0.0
H448 H 0.31464 0.07112 0.04081 0.0
H449 H -1.31314 1.11779 0.07986 0.0
H450 H -1.18743 1.08017 0.06086 0.0
H451 H -1.14922 1.09214 0.7602 0.0
H452 H 0.47764 0.04611 0.72138 0.0
H453 H 0.35337 0.08175 0.7397 0.0
C454 C 0.39292 0.03191 0.04519 0.0
C455 C 0.42294 0.00297 0.06173 0.0
C456 C 0.46235 0.01215 0.7602 0.0
C457 C -1.33628 1.14033 0.06711 0.0
C458 C -1.26548 1.1194 0.05643 0.0
C459 C -1.22745 1.13117 0.75579 0.0
C460 C -1.25837 1.16144 0.73971 0.0
C461 C -1.29641 1.1501 0.04048 0.0
C462 C 0.50123 0.02312 0.73399 0.0
C463 C 0.43126 0.04285 0.74424 0.0
H464 H -0.44103 0.75961 0.22043 0.0
H465 H -0.6578 0.86997 0.26663 0.0
H466 H -0.77554 0.95249 0.24583 0.0
H467 H -0.81725 0.9919 0.21409 0.0
H468 H -0.60318 0.88165 0.1675 0.0
H469 H -0.48362 0.79913 0.18855 0.0
C470 C -0.5126 0.80204 0.226 0.0
C471 C -0.54081 0.81 0.24495 0.0
C472 C -0.58121 0.84837 0.21368 0.0
C473 C -0.63469 0.86417 0.25213 0.0
C474 C -0.70235 0.91086 0.24018 0.0
C475 C -0.74572 0.94945 0.20851 0.0
C476 C -0.71888 0.94151 0.18938 0.0
C477 C -0.67716 0.90319 0.22081 0.0
C478 C -0.62538 0.8874 0.18213 0.0
C479 C -0.55668 0.84075 0.19422 0.0
H480 H 0.02528 -0.01229 0.43847 0.0
H481 H -1.69427 1.15678 0.3955 0.0
H482 H -1.76739 1.16611 0.36951 0.0
H483 H 0.99459 -0.01105 0.35945 0.0
H484 H 0.85822 0.00575 0.40253 0.0
H485 H 0.92796 -0.00121 0.42842 0.0
C486 C 0.03571 -0.01199 0.42337 0.0
C487 C -1.76413 1.16867 0.41856 0.0
C488 C 1.00033 -0.00925 0.40877 0.0
C489 C -1.74543 1.16606 0.39918 0.0
C490 C -1.78477 1.16984 0.38445 0.0
C491 C 0.98319 -0.0107 0.37455 0.0
C492 C 0.92458 -0.00376 0.37937 0.0
C493 C -1.84182 1.17554 0.38914 0.0
C494 C 0.90699 -0.00186 0.39877 0.0
C495 C 0.9446 -0.00444 0.41347 0.0
H496 H 0.33281 0.29955 0.61052 0.0
H497 H 0.04038 0.41182 0.59754 0.0
H498 H 0.112 0.35122 0.57043 0.0
H499 H 0.25577 0.26914 0.55026 0.0
H500 H 0.54782 0.1573 0.56329 0.0
H501 H 0.47585 0.21815 0.59027 0.0
C502 C 0.28493 0.31037 0.60191 0.0
C503 C 0.18212 0.35944 0.60584 0.0
C504 C 0.3254 0.27712 0.58613 0.0
C505 C 0.12025 0.37352 0.59473 0.0
C506 C 0.16068 0.33959 0.57914 0.0
C507 C 0.3034 0.25855 0.55884 0.0
C508 C 0.40639 0.20936 0.55501 0.0
C509 C 0.26264 0.29205 0.57457 0.0
C510 C 0.46794 0.19556 0.56607 0.0
C511 C 0.42729 0.22966 0.58157 0.0
H512 H -0.19813 0.29156 0.54148 0.0
H513 H -0.45394 0.4319 0.57833 0.0
H514 H -0.36217 0.36824 0.60614 0.0
H515 H -0.206 0.27325 0.6198 0.0
H516 H 0.04973 0.13329 0.58263 0.0
H517 H -0.04417 0.19676 0.55489 0.0
C518 C -0.23438 0.3075 0.5555 0.0
C519 C -0.33202 0.36518 0.55808 0.0
C520 C -0.18013 0.27137 0.57131 0.0
C521 C -0.37937 0.38683 0.57616 0.0
C522 C -0.32625 0.35083 0.59205 0.0
C523 C -0.17045 0.25715 0.60569 0.0
C524 C -0.07166 0.19943 0.60312 0.0
C525 C -0.2258 0.29331 0.58981 0.0
C526 C -0.02567 0.17814 0.58489 0.0
C527 C -0.07985 0.21404 0.569 0.0
H528 H -1.09374 0.89078 0.25044 0.0
H529 H -1.38999 1.01393 0.23174 0.0
H530 H -1.31658 0.95169 0.20522 0.0
H531 H -1.16882 0.86308 0.18788 0.0
H532 H -0.87274 0.73989 0.20669 0.0
H533 H -0.94654 0.80367 0.23245 0.0
C534 C -1.1421 0.90363 0.24069 0.0
C535 C -1.24637 0.95598 0.24295 0.0
C536 C -1.09992 0.86887 0.22536 0.0
C537 C -1.30909 0.97298 0.23029 0.0
C538 C -1.26744 0.93801 0.21505 0.0
C539 C -1.12068 0.85065 0.19748 0.0
C540 C -1.01627 0.79741 0.19575 0.0
C541 C -1.16314 0.88621 0.21245 0.0
C542 C -0.95367 0.78123 0.20792 0.0
C543 C -0.9956 0.81712 0.22272 0.0
H544 H -0.79065 0.5583 0.40011 0.0
H545 H -0.90049 0.57856 0.3469 0.0
H546 H 0.00532 0.59355 0.36527 0.0
H547 H -0.03978 0.59598 0.39631 0.0
H548 H 0.06819 0.57681 0.44956 0.0
H549 H -0.83982 0.56351 0.43126 0.0
C550 C -0.83839 0.56767 0.39268 0.0
C551 C -0.84053 0.56804 0.37247 0.0
C552 C -0.88941 0.57367 0.40322 0.0
C553 C -0.90089 0.57966 0.36259 0.0
C554 C 0.04892 0.58676 0.37302 0.0
C555 C 0.00757 0.5869 0.40375 0.0
C556 C 0.01143 0.58519 0.42393 0.0
C557 C 0.05681 0.58214 0.39326 0.0
C558 C 0.06908 0.5755 0.43386 0.0
C559 C -0.88232 0.56956 0.42348 0.0
H560 H -0.31774 0.57779 0.76125 0.0
H561 H -0.38376 0.56844 0.08882 0.0
H562 H -0.47452 0.57899 0.07075 0.0
H563 H -0.53015 0.58835 0.03982 0.0
H564 H -0.46479 0.59796 0.71223 0.0
H565 H -0.37433 0.58774 0.73026 0.0
C566 C -0.35559 0.58009 0.04324 0.0
C567 C -0.34768 0.57392 0.06334 0.0
C568 C -0.40292 0.58383 0.75831 0.0
C569 C -0.39335 0.57546 0.07331 0.0
C570 C -0.44246 0.57991 0.06299 0.0
C571 C -0.49267 0.58629 0.75783 0.0
C572 C -0.5001 0.59209 0.73777 0.0
C573 C -0.44565 0.58278 0.04273 0.0
C574 C -0.45525 0.59107 0.72776 0.0
C575 C -0.4063 0.58678 0.73804 0.0
H576 H -0.27341 0.31429 0.15337 0.0
H577 H -0.36111 0.33043 0.09657 0.0
H578 H -0.52897 0.4319 0.10129 0.0
H579 H -0.64879 0.51669 0.12094 0.0
H580 H -0.56502 0.50138 0.17804 0.0
H581 H -0.39654 0.39883 0.17381 0.0
C582 C -0.33019 0.33993 0.14225 0.0
C583 C -0.30544 0.31511 0.12469 0.0
C584 C -0.42588 0.3984 0.1449 0.0
C585 C -0.37902 0.34857 0.11031 0.0
C586 C -0.47447 0.40669 0.11287 0.0
C587 C -0.5925 0.49077 0.13221 0.0
C588 C -0.61657 0.51598 0.14939 0.0
C589 C -0.4979 0.43214 0.1299 0.0
C590 C -0.54565 0.48248 0.16438 0.0
C591 C -0.45035 0.42401 0.16208 0.0
H592 H -0.55119 0.62044 0.29781 0.0
H593 H -0.24982 0.4692 0.32044 0.0
H594 H -0.28427 0.44258 0.33566 0.0
H595 H -0.39847 0.46023 0.33994 0.0
H596 H -0.69905 0.61297 0.31663 0.0
H597 H -0.66682 0.64177 0.30427 0.0
C598 C -0.49274 0.58147 0.30604 0.0
C599 C -0.39745 0.54581 0.30764 0.0
C600 C -0.51331 0.5671 0.31457 0.0
C601 C -0.32331 0.49662 0.31887 0.0
C602 C -0.34311 0.48159 0.3275 0.0
C603 C -0.45697 0.50005 0.33233 0.0
C604 C -0.55072 0.53434 0.32898 0.0
C605 C -0.43747 0.51608 0.32507 0.0
C606 C -0.62629 0.58588 0.31923 0.0
C607 C -0.60789 0.60229 0.31214 0.0
H608 H -1.08042 0.82349 0.50508 0.0
H609 H -0.99594 0.85653 0.47905 0.0
H610 H -0.8202 0.76195 0.48853 0.0
H611 H -0.68944 0.66578 0.5 0.0
H612 H -0.77612 0.63207 0.52311 0.0
H613 H -0.95352 0.73163 0.51937 0.0
C614 C -1.0235 0.81024 0.50203 0.0
C615 C -1.04897 0.84572 0.49148 0.0
C616 C -0.92365 0.75567 0.50668 0.0
C617 C -0.97661 0.82935 0.48743 0.0
C618 C -0.87652 0.77526 0.49259 0.0
C619 C -0.74773 0.68062 0.50413 0.0
C620 C -0.72137 0.64218 0.51112 0.0
C621 C -0.84884 0.73732 0.50144 0.0
C622 C -0.7959 0.6611 0.51697 0.0
C623 C -0.89675 0.71784 0.51505 0.0
H624 H -0.8602 0.59012 0.64431 0.0
H625 H -0.02707 0.65003 0.6946 0.0
H626 H -0.98337 0.66878 0.71103 0.0
H627 H -0.88979 0.66544 0.71085 0.0
H628 H -0.70733 0.59546 0.66134 0.0
H629 H -0.76246 0.58233 0.64473 0.0
C630 C -0.88807 0.6079 0.6588 0.0
C631 C -0.94918 0.61945 0.66819 0.0
C632 C -0.85736 0.61579 0.66829 0.0
C633 C -0.98372 0.64167 0.68704 0.0
C634 C -0.95642 0.65182 0.69645 0.0
C635 C -0.86171 0.64683 0.6965 0.0
C636 C -0.79448 0.63104 0.6872 0.0
C637 C -0.89228 0.63843 0.68723 0.0
C638 C -0.75788 0.60692 0.66873 0.0
C639 C -0.79013 0.60002 0.65921 0.0
H640 H -0.29772 0.65395 0.6457 0.0
H641 H -0.15322 0.65907 0.64992 0.0
H642 H -0.31134 0.75841 0.659 0.0
H643 H -0.48676 0.84048 0.66948 0.0
H644 H -0.6335 0.83704 0.66355 0.0
H645 H -0.4803 0.74137 0.65039 0.0
C646 C -0.30155 0.67711 0.64862 0.0
C647 C -0.21442 0.64938 0.64813 0.0
C648 C -0.39325 0.7346 0.6531 0.0
C649 C -0.21966 0.67969 0.65102 0.0
C650 C -0.30994 0.73648 0.65598 0.0
C651 C -0.48509 0.81901 0.66471 0.0
C652 C -0.56842 0.84403 0.66753 0.0
C653 C -0.39665 0.76394 0.65758 0.0
C654 C -0.56803 0.81715 0.66145 0.0
C655 C -0.48075 0.7626 0.65415 0.0
H656 H -0.52458 0.66284 0.47312 0.0
H657 H -0.29471 0.53788 0.51627 0.0
H658 H -0.22026 0.54412 0.50795 0.0
H659 H -0.2215 0.58565 0.48861 0.0
H660 H -0.45588 0.71431 0.44648 0.0
H661 H -0.52781 0.70627 0.45402 0.0
C662 C -0.45897 0.63772 0.48073 0.0
C663 C -0.41528 0.60072 0.49538 0.0
C664 C -0.4173 0.64194 0.47598 0.0
C665 C -0.32969 0.56737 0.50514 0.0
C666 C -0.28694 0.57062 0.50032 0.0
C667 C -0.28788 0.61155 0.48106 0.0
C668 C -0.33326 0.65019 0.46708 0.0
C669 C -0.33007 0.60772 0.48578 0.0
C670 C -0.41989 0.68419 0.4574 0.0
C671 C -0.46115 0.67974 0.46169 0.0
H672 H 0.17041 0.30953 0.29503 0.0
H673 H 0.25655 0.33887 0.32473 0.0
H674 H 0.10334 0.43708 0.31405 0.0
H675 H -0.06266 0.51695 0.29877 0.0
H676 H -0.15126 0.48826 0.26985 0.0
H677 H 0.00917 0.38823 0.27754 0.0
C678 C 0.15513 0.33768 0.29896 0.0
C679 C 0.22199 0.31832 0.31085 0.0
C680 C 0.06608 0.39435 0.29305 0.0
C681 C 0.2037 0.35411 0.31582 0.0
C682 C 0.1166 0.41001 0.30972 0.0
C683 C -0.04622 0.48861 0.29407 0.0
C684 C -0.11882 0.50995 0.28406 0.0
C685 C 0.04588 0.43106 0.29876 0.0
C686 C -0.09666 0.47285 0.2778 0.0
C687 C -0.0049 0.41554 0.28217 0.0
H688 H -0.1376 0.59164 0.11653 0.0
H689 H 0.14302 0.42943 0.09032 0.0
H690 H 0.21509 0.43724 0.09768 0.0
H691 H 0.20269 0.48706 0.11404 0.0
H692 H -0.07577 0.64721 0.14134 0.0
H693 H -0.15353 0.64405 0.13089 0.0
C694 C -0.06104 0.55834 0.11235 0.0
C695 C -0.00246 0.50997 0.10315 0.0
C696 C -0.01954 0.56272 0.11684 0.0
C697 C 0.0966 0.46704 0.09763 0.0
C698 C 0.13804 0.47139 0.10179 0.0
C699 C 0.12484 0.52127 0.1174 0.0
C700 C 0.06895 0.56689 0.12848 0.0
C701 C 0.08137 0.51852 0.11174 0.0
C702 C -0.03178 0.61139 0.13291 0.0
C703 C -0.07613 0.60963 0.12698 0.0
H704 H -0.69353 0.91637 0.51278 0.0
H705 H -0.78586 0.92181 0.46067 0.0
H706 H -0.96149 1.02025 0.46729 0.0
H707 H -1.08475 1.1073 0.48608 0.0
H708 H -0.9923 1.10147 0.53829 0.0
H709 H -0.81959 0.99998 0.5337 0.0
C710 C -0.7529 0.9389 0.50324 0.0
C711 C -0.72847 0.9129 0.48631 0.0
C712 C -0.85237 0.99533 0.50695 0.0
C713 C -0.80436 0.94145 0.47392 0.0
C714 C -0.90412 0.99776 0.47755 0.0
C715 C -1.02602 1.08358 0.49625 0.0
C716 C -1.04834 1.11127 0.51193 0.0
C717 C -0.92822 1.02562 0.49361 0.0
C718 C -0.9743 1.08068 0.52565 0.0
C719 C -0.87649 1.02287 0.52316 0.0
H720 H 0.79998 0.00176 0.69492 0.0
H721 H -0.7682 1.00904 0.69198 0.0
H722 H -0.69195 1.01382 0.68305 0.0
H723 H -0.71261 1.07061 0.67211 0.0
H724 H 0.85658 0.06305 0.67597 0.0
H725 H 0.78467 0.05772 0.68936 0.0
C726 C -0.97999 1.15227 0.69234 0.0
C727 C -0.92016 1.09975 0.69329 0.0
C728 C -0.93636 1.15529 0.68766 0.0
C729 C -0.81582 1.05008 0.69071 0.0
C730 C -0.77204 1.05269 0.68576 0.0
C731 C -0.7909 1.1085 0.6764 0.0
C732 C -0.85369 1.16137 0.67291 0.0
C733 C -0.83202 1.10512 0.68363 0.0
C734 C 0.90519 0.02193 0.67846 0.0
C735 C 0.86405 0.01895 0.68595 0.0
H736 H 0.73471 0.07779 0.14937 0.0
H737 H 0.65425 0.03432 0.14633 0.0
H738 H 0.48186 0.1319 0.13772 0.0
H739 H 0.36044 0.22617 0.12754 0.0
H740 H 0.44255 0.26864 0.12817 0.0
H741 H 0.60853 0.17477 0.14141 0.0
C742 C 0.67905 0.08992 0.14692 0.0
C743 C 0.70698 0.04902 0.14811 0.0
C744 C 0.58123 0.14556 0.14145 0.0
C745 C 0.6346 0.06499 0.1451 0.0
C746 C 0.53622 0.12069 0.14025 0.0
C747 C 0.4147 0.2148 0.13085 0.0
C748 C 0.39127 0.25317 0.12687 0.0
C749 C 0.50974 0.16074 0.13783 0.0
C750 C 0.46037 0.23909 0.13116 0.0
C751 C 0.55484 0.18559 0.13862 0.0
H752 H 0.54319 0.06973 0.34961 0.0
H753 H 0.70123 0.01401 0.29757 0.0
H754 H 0.63937 0.00471 0.28117 0.0
H755 H 0.54363 0.01076 0.28171 0.0
H756 H 0.40113 0.05508 0.33449 0.0
H757 H 0.45319 0.07073 0.35067 0.0
C758 C 0.56441 0.05516 0.33472 0.0
C759 C 0.62632 0.04265 0.32467 0.0
C760 C 0.53085 0.0483 0.32558 0.0
C761 C 0.6542 0.02346 0.30552 0.0
C762 C 0.61836 0.0185 0.29614 0.0
C763 C 0.5226 0.02466 0.29668 0.0
C764 C 0.46705 0.03286 0.30682 0.0
C765 C 0.55663 0.0309 0.30601 0.0
C766 C 0.44234 0.04956 0.32633 0.0
C767 C 0.47286 0.05799 0.33559 0.0
H768 H -0.0933 0.20732 0.32822 0.0
H769 H -0.12248 0.28738 0.28816 0.0
H770 H 0.03843 0.19525 0.27296 0.0
H771 H 0.19004 0.09095 0.27227 0.0
H772 H 0.2048 0.01566 0.31078 0.0
H773 H 0.04515 0.10748 0.32529 0.0
C774 C -0.06378 0.20446 0.31629 0.0
C775 C -0.11685 0.25312 0.30965 0.0
C776 C 0.0253 0.15245 0.30732 0.0
C777 C -0.08086 0.24979 0.29369 0.0
C778 C 0.01046 0.19735 0.28501 0.0
C779 C 0.15772 0.09491 0.28376 0.0
C780 C 0.21005 0.0465 0.29083 0.0
C781 C 0.06463 0.14824 0.29184 0.0
C782 C 0.16666 0.05216 0.30535 0.0
C783 C 0.07558 0.10457 0.31368 0.0
H784 H 0.02341 -0.00535 0.10296 0.0
H785 H -0.08931 0.07762 0.15813 0.0
H786 H -0.04636 0.10232 0.14973 0.0
H787 H 0.03397 0.09438 0.12785 0.0
H788 H 0.14962 0.01053 0.0728 0.0
H789 H 0.09366 -0.00741 0.07986 0.0
C790 C 0.00667 0.01905 0.11295 0.0
C791 C -0.03588 0.03437 0.13112 0.0
C792 C 0.03282 0.03242 0.10812 0.0
C793 C -0.05726 0.06583 0.144 0.0
C794 C -0.03202 0.07955 0.13927 0.0
C795 C 0.04655 0.07237 0.11737 0.0
C796 C 0.09699 0.053 0.1 0.0
C797 C 0.01489 0.06204 0.12157 0.0
C798 C 0.11234 0.02492 0.08644 0.0
C799 C 0.08006 0.0149 0.09043 0.0
H800 H -1.48135 1.10825 0.65593 0.0
H801 H -1.60301 1.09144 0.64098 0.0
H802 H -1.44381 0.99117 0.64872 0.0
H803 H -1.27299 0.90928 0.66219 0.0
H804 H -1.15066 0.92563 0.67682 0.0
H805 H -1.30553 1.02436 0.66646 0.0
C806 C -1.47251 1.08244 0.65437 0.0
C807 C -1.55356 1.10702 0.64826 0.0
C808 C -1.38044 1.02463 0.65869 0.0
C809 C -1.54136 1.07326 0.64588 0.0
C810 C -1.45045 1.01593 0.65026 0.0
C811 C -1.28046 0.93455 0.66273 0.0
C812 C -1.20252 0.91138 0.67019 0.0
C813 C -1.36995 0.99131 0.65699 0.0
C814 C -1.21126 0.94361 0.67103 0.0
C815 C -1.29953 0.99987 0.66524 0.0
H816 H -1.21043 1.06934 0.4842 0.0
H817 H 0.35396 0.05948 0.49334 0.0
H818 H 0.27742 0.0569 0.48043 0.0
H819 H 0.29517 0.00103 0.4714 0.0
H820 H -1.26988 1.01152 0.46078 0.0
H821 H -1.19331 1.01604 0.46966 0.0
C822 C -1.29131 1.10758 0.48294 0.0
C823 C -1.35327 1.15847 0.49002 0.0
C824 C -1.33475 1.1056 0.47583 0.0
C825 C 0.4022 0.01962 0.48824 0.0
C826 C 0.35854 0.0182 0.48094 0.0
C827 C -1.48405 1.15216 0.47096 0.0
C828 C -1.42271 1.10002 0.46644 0.0
C829 C -1.44077 1.15534 0.47558 0.0
C830 C -1.31822 1.05176 0.4651 0.0
C831 C -1.27435 1.05434 0.46996 0.0
H832 H 0.14468 0.0847 0.75283 0.0
H833 H -0.13056 0.18747 0.04969 0.0
H834 H -0.15459 0.17493 0.74491 0.0
H835 H -0.09821 0.13537 0.71133 0.0
H836 H 0.17666 0.03348 0.68978 0.0
H837 H 0.20185 0.04446 0.72036 0.0
C838 C 0.07892 0.10473 0.75117 0.0
C839 C 0.00843 0.1375 0.04088 0.0
C840 C 0.06605 0.09678 0.73378 0.0
C841 C -0.07553 0.16242 0.03825 0.0
C842 C -0.08899 0.15503 0.74644 0.0
C843 C -0.0319 0.11466 0.71358 0.0
C844 C 0.03863 0.08249 0.69846 0.0
C845 C -0.01866 0.12209 0.73128 0.0
C846 C 0.12252 0.05744 0.70133 0.0
C847 C 0.13654 0.0641 0.71877 0.0
H848 H -0.14873 0.46863 0.15806 0.0
H849 H -0.06618 0.5107 0.15335 0.0
H850 H -0.15145 0.56254 0.18397 0.0
H851 H -0.24956 0.59603 0.21233 0.0
H852 H -0.31773 0.54613 0.21894 0.0
H853 H -0.23797 0.49718 0.18767 0.0
C854 C -0.14866 0.48869 0.16388 0.0
C855 C -0.10012 0.48523 0.1535 0.0
C856 C -0.19578 0.51731 0.18188 0.0
C857 C -0.10116 0.51173 0.1612 0.0
C858 C -0.15066 0.5418 0.17867 0.0
C859 C -0.24776 0.57485 0.20686 0.0
C860 C -0.29164 0.57583 0.21787 0.0
C861 C -0.19839 0.54498 0.18916 0.0
C862 C -0.28579 0.5467 0.21073 0.0
C863 C -0.23989 0.51856 0.19283 0.0
H864 H -1.50503 1.10063 0.39366 0.0
H865 H -1.18636 0.93529 0.40331 0.0
H866 H -1.15361 0.94202 0.3725 0.0
H867 H -1.21652 0.99505 0.34234 0.0
H868 H -1.53466 1.16393 0.33501 0.0
H869 H -1.56693 1.15554 0.36514 0.0
C870 C -1.42816 1.06568 0.38902 0.0
C871 C -1.34815 1.01689 0.40073 0.0
C872 C -1.40999 1.07074 0.37165 0.0
C873 C -1.24936 0.97293 0.39455 0.0
C874 C -1.23064 0.97689 0.37693 0.0
C875 C -1.29262 1.03028 0.34761 0.0
C876 C -1.37324 1.08047 0.33664 0.0
C877 C -1.31036 1.02565 0.36535 0.0
C878 C -1.47156 1.12546 0.34341 0.0
C879 C -1.48995 1.12045 0.36057 0.0
H880 H -0.09642 0.59238 0.51088 0.0
H881 H -0.36214 0.76621 0.52873 0.0
H882 H -0.29584 0.73658 0.56195 0.0
H883 H -0.16179 0.65965 0.58636 0.0
H884 H 0.09637 0.48638 0.5679 0.0
H885 H 0.03288 0.51702 0.53485 0.0
C886 C -0.13994 0.62379 0.52208 0.0
C887 C -0.23421 0.68143 0.51736 0.0
C888 C -0.10221 0.6063 0.54117 0.0
C889 C -0.28995 0.72158 0.53205 0.0
C890 C -0.2516 0.70455 0.55102 0.0
C891 C -0.1187 0.6287 0.57501 0.0
C892 C -0.02664 0.57048 0.57968 0.0
C893 C -0.15758 0.64684 0.55583 0.0
C894 C 0.0263 0.53123 0.56481 0.0
C895 C -0.01026 0.54875 0.54584 0.0
H896 H -0.75003 0.99377 0.10048 0.0
H897 H -1.00059 1.17122 0.09175 0.0
H898 H -1.02672 1.16572 0.05934 0.0
H899 H -0.98127 1.11118 0.75926 0.0
H900 H -0.72408 0.9325 0.04133 0.0
H901 H -0.69766 0.9377 0.07395 0.0
C902 C -0.80989 1.03119 0.09143 0.0
C903 C -0.87321 1.08293 0.09859 0.0
C904 C -0.82354 1.02748 0.07264 0.0
C905 C -0.9502 1.13084 0.0866 0.0
C906 C -0.96554 1.12776 0.06809 0.0
C907 C -0.91926 1.07324 0.04253 0.0
C908 C -0.85468 1.02153 0.76077 0.0
C909 C -0.90317 1.07644 0.061 0.0
C910 C -0.7741 0.97268 0.04664 0.0
C911 C -0.75934 0.97579 0.06528 0.0
H912 H -0.80949 0.69514 0.63089 0.0
H913 H -0.59403 0.64265 0.65594 0.0
H914 H -0.50138 0.59816 0.62564 0.0
H915 H -0.47616 0.57057 0.59191 0.0
H916 H -0.68699 0.6199 0.56687 0.0
H917 H -0.78632 0.66929 0.59677 0.0
C918 C -0.74314 0.67469 0.62963 0.0
C919 C -0.71004 0.67305 0.6458 0.0
C920 C -0.68869 0.64834 0.61198 0.0
C921 C -0.62245 0.64524 0.64385 0.0
C922 C -0.56878 0.61949 0.62644 0.0
C923 C -0.54453 0.59278 0.59298 0.0
C924 C -0.57465 0.592 0.57718 0.0
C925 C -0.60058 0.6204 0.6104 0.0
C926 C -0.66261 0.62019 0.57885 0.0
C927 C -0.71935 0.64834 0.59597 0.0
H928 H 0.53196 0.12368 0.46853 0.0
H929 H 0.4905 0.06314 0.44918 0.0
H930 H 0.48496 0.08141 0.41541 0.0
H931 H 0.49678 0.11262 0.39113 0.0
H932 H 0.55068 0.16606 0.41138 0.0
H933 H 0.54525 0.15328 0.44491 0.0
C934 C 0.52105 0.11472 0.45697 0.0
C935 C 0.51088 0.0924 0.46147 0.0
C936 C 0.51966 0.12445 0.43765 0.0
C937 C 0.49856 0.08029 0.44618 0.0
C938 C 0.49508 0.09093 0.42685 0.0
C939 C 0.50544 0.12241 0.40293 0.0
C940 C 0.52244 0.14126 0.39875 0.0
C941 C 0.50572 0.11298 0.42236 0.0
C942 C 0.5365 0.15213 0.41419 0.0
C943 C 0.53386 0.14456 0.43339 0.0
H944 H -0.5912 0.43965 0.27122 0.0
H945 H -0.63971 0.54545 0.28807 0.0
H946 H -0.73433 0.60059 0.25825 0.0
H947 H -0.80199 0.61824 0.22724 0.0
H948 H -0.74316 0.50831 0.20881 0.0
H949 H -0.65327 0.45501 0.23914 0.0
C950 C -0.6215 0.47432 0.26814 0.0
C951 C -0.60741 0.48806 0.2816 0.0
C952 C -0.67419 0.50517 0.2507 0.0
C953 C -0.648 0.53349 0.27769 0.0
C954 C -0.70267 0.56524 0.26071 0.0
C955 C -0.77031 0.58291 0.22987 0.0
C956 C -0.78081 0.5679 0.21579 0.0
C957 C -0.71625 0.55148 0.2471 0.0
C958 C -0.73723 0.52121 0.21941 0.0
C959 C -0.68548 0.49058 0.23675 0.0
H960 H -0.40989 0.72416 0.32876 0.0
H961 H -0.42456 0.65009 0.34927 0.0
H962 H -0.42765 0.66759 0.38284 0.0
H963 H -0.42014 0.70126 0.4067 0.0
H964 H -0.39424 0.7692 0.38575 0.0
H965 H -0.40251 0.75742 0.35223 0.0
C966 C -0.41439 0.71205 0.34052 0.0
C967 C -0.41742 0.6859 0.33631 0.0
C968 C -0.41471 0.72157 0.35984 0.0
C969 C -0.42198 0.67011 0.35193 0.0
C970 C -0.424 0.68029 0.37119 0.0
C971 C -0.4186 0.71459 0.39475 0.0
C972 C -0.40959 0.73772 0.39871 0.0
C973 C -0.42007 0.70585 0.37538 0.0
C974 C -0.40368 0.7527 0.38309 0.0
C975 C -0.40759 0.7455 0.36391 0.0
H976 H -1.65204 1.16272 0.51303 0.0
H977 H -1.44327 0.99653 0.52682 0.0
H978 H -1.51572 1.0286 0.55957 0.0
H979 H -1.63885 1.10524 0.58474 0.0
H980 H 0.01861 0.0811 0.56973 0.0
H981 H 0.0897 0.04824 0.53753 0.0
C982 C -1.62209 1.13346 0.52327 0.0
C983 C -1.54208 1.07732 0.5176 0.0
C984 C -1.66323 1.15207 0.54203 0.0
C985 C -1.50386 1.03978 0.53098 0.0
C986 C -1.54587 1.05831 0.54966 0.0
C987 C -1.66844 1.13409 0.57432 0.0
C988 C 0.11314 0.0017 0.57986 0.0
C989 C -1.62588 1.11459 0.55544 0.0
C990 C 0.07778 0.03782 0.5661 0.0
C991 C 0.11876 0.01903 0.54754 0.0
H992 H 0.0359 0.45681 0.69253 0.0
H993 H 0.11827 0.49489 0.71171 0.0
H994 H 0.13223 0.47143 0.74519 0.0
H995 H 0.11588 0.44204 0.04377 0.0
H996 H 0.02182 0.41131 0.74936 0.0
H997 H 0.01866 0.42907 0.71597 0.0
C998 C 0.05718 0.45994 0.70399 0.0
C999 C 0.07614 0.4776 0.69955 0.0
C1000 C 0.06387 0.44702 0.72313 0.0
C1001 C 0.10244 0.48191 0.7147 0.0
C1002 C 0.11105 0.4681 0.73384 0.0
C1003 C 0.09738 0.43801 0.75754 0.0
C1004 C 0.07206 0.42374 0.76172 0.0
C1005 C 0.09193 0.45055 0.73828 0.0
C1006 C 0.04385 0.42086 0.74645 0.0
C1007 C 0.04116 0.43152 0.72737 0.0
H1008 H 0.29242 0.06289 0.22205 0.0
H1009 H -1.3816 1.09094 0.20943 0.0
H1010 H -1.44808 1.12191 0.17684 0.0
H1011 H 0.30085 0.00535 0.15139 0.0
H1012 H 0.10862 0.16765 0.16314 0.0
H1013 H 0.17852 0.13657 0.19605 0.0
C1014 C 0.31909 0.03452 0.2121 0.0
C1015 C -1.4684 1.16861 0.21839 0.0
C1016 C 0.27956 0.05283 0.19302 0.0
C1017 C -1.43617 1.13293 0.2052 0.0
C1018 C -1.47447 1.15063 0.18642 0.0
C1019 C 0.27436 0.03384 0.16121 0.0
C1020 C 0.19954 0.08872 0.15498 0.0
C1021 C 0.31353 0.01597 0.18014 0.0
C1022 C 0.16549 0.12538 0.16777 0.0
C1023 C 0.20573 0.10748 0.18655 0.0
H1024 H -0.51664 0.48727 0.46682 0.0
H1025 H -0.31812 0.45367 0.45231 0.0
H1026 H -0.30169 0.42828 0.41906 0.0
H1027 H -0.34827 0.41775 0.39371 0.0
H1028 H -0.55371 0.45626 0.40929 0.0
H1029 H -0.56398 0.47823 0.44207 0.0
C1030 C -0.47038 0.47477 0.4563 0.0
C1031 C -0.41954 0.47288 0.46186 0.0
C1032 C -0.46267 0.46113 0.43726 0.0
C1033 C -0.35949 0.45643 0.44818 0.0
C1034 C -0.34961 0.44154 0.42923 0.0
C1035 C -0.39403 0.43015 0.40436 0.0
C1036 C -0.44927 0.43464 0.39885 0.0
C1037 C -0.40118 0.44384 0.42352 0.0
C1038 C -0.5096 0.45187 0.41291 0.0
C1039 C -0.51601 0.46473 0.43179 0.0
H1040 H 0.66268 0.06801 0.27274 0.0
H1041 H 0.7671 0.09511 0.2872 0.0
H1042 H 0.84969 0.05808 0.25562 0.0
H1043 H 0.9 0.01307 0.22405 0.0
H1044 H -1.0512 1.16614 0.21168 0.0
H1045 H 0.71519 0.02173 0.24189 0.0
C1046 C 0.70229 0.06652 0.26883 0.0
C1047 C 0.70725 0.08518 0.28217 0.0
C1048 C 0.75353 0.04278 0.25094 0.0
C1049 C 0.76125 0.08156 0.27708 0.0
C1050 C 0.80895 0.06013 0.25903 0.0
C1051 C 0.85907 0.01542 0.22796 0.0
C1052 C 0.86198 -0.00831 0.21555 0.0
C1053 C 0.80682 0.03988 0.24585 0.0
C1054 C 0.80903 -0.00529 0.22098 0.0
C1055 C 0.75481 0.02035 0.23828 0.0
H1056 H -0.95307 0.67938 0.0846 0.0
H1057 H -0.85436 0.70022 0.1159 0.0
H1058 H -0.84359 0.72021 0.08594 0.0
H1059 H -0.85947 0.73084 0.05066 0.0
H1060 H -0.96876 0.71732 0.74436 0.0
H1061 H -0.97837 0.69567 0.04883 0.0
C1062 C -0.92862 0.68791 0.08476 0.0
C1063 C -0.90408 0.68791 0.10252 0.0
C1064 C -0.92493 0.70106 0.06732 0.0
C1065 C -0.87395 0.69997 0.1025 0.0
C1066 C -0.86768 0.71148 0.08533 0.0
C1067 C -0.88633 0.7237 0.05032 0.0
C1068 C -0.91347 0.72591 0.75808 0.0
C1069 C -0.89302 0.71223 0.06766 0.0
C1070 C -0.94838 0.71667 0.7579 0.0
C1071 C -0.9532 0.70376 0.04952 0.0
H1072 H -1.18589 1.16218 0.65015 0.0
H1073 H -0.89044 0.99267 0.63106 0.0
H1074 H -0.95003 1.02062 0.5974 0.0
H1075 H -1.087 1.09506 0.5731 0.0
H1076 H 0.48294 0.07672 0.59285 0.0
H1077 H 0.54065 0.04675 0.62639 0.0
C1078 C -1.13446 1.13114 0.63865 0.0
C1079 C -1.03387 1.07522 0.64316 0.0
C1080 C -1.16879 1.14784 0.61937 0.0
C1081 C -0.96812 1.03596 0.628 0.0
C1082 C -1.00239 1.05196 0.60875 0.0
C1083 C -1.13781 1.12524 0.58482 0.0
C1084 C 0.62307 -0.0064 0.58052 0.0
C1085 C -1.10272 1.10793 0.6042 0.0
C1086 C 0.55907 0.03254 0.5958 0.0
C1087 C 0.5922 0.01545 0.61499 0.0
loop_
_geom_bond_atom_site_label_1
_geom_bond_atom_site_label_2
_geom_bond_distance
_geom_bond_site_symmetry_2
_ccdc_geom_bond_type
Dy0 O4 2.398 . S
Dy0 O5 2.491 . S
Dy0 O6 2.403 . S
Dy0 O7 2.664 . S
Dy0 O11 2.326 . S
Dy0 O15 2.310 . S
Dy0 O16 2.351 . S
C1 O12 1.185 . S
C1 O13 1.355 . S
C2 O4 1.185 . S
C2 O5 1.355 . S
Dy3 O7 2.310 . S
Dy3 O10 2.351 . S
Dy3 O12 2.398 . S
Dy3 O13 2.491 . S
Dy3 O14 2.403 . S
Dy3 O15 2.664 . S
Dy3 O17 2.326 . S
O4 Dy0 2.398 . S
O4 C2 1.185 . S
O5 Dy0 2.491 . S
O5 C2 1.355 . S
O6 Dy0 2.403 . S
O6 C8 1.254 . S
O7 Dy0 2.664 . S
O7 Dy3 2.310 . S
O7 C8 1.268 . S
C8 O6 1.254 . S
C8 O7 1.268 . S
C9 O14 1.254 . S
C9 O15 1.268 . S
O10 Dy3 2.351 . S
O10 C18 1.249 . S
O11 Dy0 2.326 . S
O11 C18 1.267 . S
O12 C1 1.185 . S
O12 Dy3 2.398 . S
O13 C1 1.355 . S
O13 Dy3 2.491 . S
O14 Dy3 2.403 . S
O14 C9 1.254 . S
O15 Dy0 2.310 . S
O15 Dy3 2.664 . S
O15 C9 1.268 . S
O16 Dy0 2.351 . S
O16 C19 1.249 . S
O17 Dy3 2.326 . S
O17 C19 1.267 . S
C18 O10 1.249 . S
C18 O11 1.267 . S
C19 O16 1.249 . S
C19 O17 1.267 . S
Dy20 O24 2.398 . S
Dy20 O25 2.491 . S
Dy20 O26 2.403 . S
Dy20 O27 2.664 . S
Dy20 O31 2.326 . S
Dy20 O35 2.310 . S
Dy20 O36 2.351 . S
C21 O32 1.185 . S
C21 O33 1.355 . S
C22 O24 1.185 . S
C22 O25 1.355 . S
Dy23 O27 2.310 . S
Dy23 O30 2.351 . S
Dy23 O32 2.398 . S
Dy23 O33 2.491 . S
Dy23 O34 2.403 . S
Dy23 O35 2.664 . S
Dy23 O37 2.326 . S
O24 Dy20 2.398 . S
O24 C22 1.185 . S
O25 Dy20 2.491 . S
O25 C22 1.355 . S
O26 Dy20 2.403 . S
O26 C28 1.254 . S
O27 Dy20 2.664 . S
O27 Dy23 2.310 . S
O27 C28 1.268 . S
C28 O26 1.254 . S
C28 O27 1.268 . S
C29 O34 1.254 . S
C29 O35 1.268 . S
O30 Dy23 2.351 . S
O30 C38 1.249 . S
O31 Dy20 2.326 . S
O31 C38 1.267 . S
O32 C21 1.185 . S
O32 Dy23 2.398 . S
O33 C21 1.355 . S
O33 Dy23 2.491 . S
O34 Dy23 2.403 . S
O34 C29 1.254 . S
O35 Dy20 2.310 . S
O35 Dy23 2.664 . S
O35 C29 1.268 . S
O36 Dy20 2.351 . S
O36 C39 1.249 . S
O37 Dy23 2.326 . S
O37 C39 1.267 . S
C38 O30 1.249 . S
C38 O31 1.267 . S
C39 O36 1.249 . S
C39 O37 1.267 . S
Dy40 O44 2.398 . S
Dy40 O45 2.491 . S
Dy40 O46 2.403 . S
Dy40 O47 2.664 . S
Dy40 O51 2.326 . S
Dy40 O55 2.310 . S
Dy40 O56 2.351 . S
C41 O52 1.185 . S
C41 O53 1.355 . S
C42 O44 1.185 . S
C42 O45 1.355 . S
Dy43 O47 2.310 . S
Dy43 O50 2.351 . S
Dy43 O52 2.398 . S
Dy43 O53 2.491 . S
Dy43 O54 2.403 . S
Dy43 O55 2.664 . S
Dy43 O57 2.326 . S
O44 Dy40 2.398 . S
O44 C42 1.185 . S
O45 Dy40 2.491 . S
O45 C42 1.355 . S
O46 Dy40 2.403 . S
O46 C48 1.254 . S
O47 Dy40 2.664 . S
O47 Dy43 2.310 . S
O47 C48 1.268 . S
C48 O46 1.254 . S
C48 O47 1.268 . S
C49 O54 1.254 . S
C49 O55 1.268 . S
O50 Dy43 2.351 . S
O50 C58 1.249 . S
O51 Dy40 2.326 . S
O51 C58 1.267 . S
O52 C41 1.185 . S
O52 Dy43 2.398 . S
O53 C41 1.355 . S
O53 Dy43 2.491 . S
O54 Dy43 2.403 . S
O54 C49 1.254 . S
O55 Dy40 2.310 . S
O55 Dy43 2.664 . S
O55 C49 1.268 . S
O56 Dy40 2.351 . S
O56 C59 1.249 . S
O57 Dy43 2.326 . S
O57 C59 1.267 . S
C58 O50 1.249 . S
C58 O51 1.267 . S
C59 O56 1.249 . S
C59 O57 1.267 . S
Dy60 O64 2.398 1_655 S
Dy60 O65 2.491 . S
Dy60 O66 2.403 . S
Dy60 O67 2.664 . S
Dy60 O71 2.326 . S
Dy60 O75 2.310 . S
Dy60 O76 2.351 . S
C61 O72 1.185 . S
C61 O73 1.355 . S
C62 O64 1.193 . S
C62 O65 1.334 1_455 S
Dy63 O67 2.310 . S
Dy63 O70 2.351 . S
Dy63 O72 2.398 . S
Dy63 O73 2.491 . S
Dy63 O74 2.403 . S
Dy63 O75 2.664 . S
Dy63 O77 2.326 . S
O64 Dy60 2.398 1_455 S
O64 C62 1.193 . S
O65 Dy60 2.491 . S
O65 C62 1.334 1_655 S
O66 Dy60 2.403 . S
O66 C68 1.254 . S
O67 Dy60 2.664 . S
O67 Dy63 2.310 . S
O67 C68 1.268 . S
C68 O66 1.254 . S
C68 O67 1.268 . S
C69 O74 1.254 . S
C69 O75 1.268 . S
O70 Dy63 2.351 . S
O70 C78 1.249 . S
O71 Dy60 2.326 . S
O71 C78 1.267 . S
O72 C61 1.185 . S
O72 Dy63 2.398 . S
O73 C61 1.355 . S
O73 Dy63 2.491 . S
O74 Dy63 2.403 . S
O74 C69 1.254 . S
O75 Dy60 2.310 . S
O75 Dy63 2.664 . S
O75 C69 1.268 . S
O76 Dy60 2.351 . S
O76 C79 1.249 . S
O77 Dy63 2.326 . S
O77 C79 1.267 . S
C78 O70 1.249 . S
C78 O71 1.267 . S
C79 O76 1.249 . S
C79 O77 1.267 . S
Dy80 O84 2.398 . S
Dy80 O85 2.491 . S
Dy80 O86 2.403 . S
Dy80 O87 2.664 . S
Dy80 O91 2.326 . S
Dy80 O95 2.310 . S
Dy80 O96 2.351 . S
C81 O92 1.185 . S
C81 O93 1.355 . S
C82 O84 1.185 . S
C82 O85 1.355 . S
Dy83 O87 2.310 . S
Dy83 O90 2.351 . S
Dy83 O92 2.398 . S
Dy83 O93 2.491 . S
Dy83 O94 2.403 . S
Dy83 O95 2.664 . S
Dy83 O97 2.326 . S
O84 Dy80 2.398 . S
O84 C82 1.185 . S
O85 Dy80 2.491 . S
O85 C82 1.355 . S
O86 Dy80 2.403 . S
O86 C88 1.254 . S
O87 Dy80 2.664 . S
O87 Dy83 2.310 . S
O87 C88 1.268 . S
C88 O86 1.254 . S
C88 O87 1.268 . S
C89 O94 1.254 . S
C89 O95 1.268 . S
O90 Dy83 2.351 . S
O90 C98 1.249 . S
O91 Dy80 2.326 . S
O91 C98 1.267 . S
O92 C81 1.185 . S
O92 Dy83 2.398 . S
O93 C81 1.355 . S
O93 Dy83 2.491 . S
O94 Dy83 2.403 . S
O94 C89 1.254 . S
O95 Dy80 2.310 . S
O95 Dy83 2.664 . S
O95 C89 1.268 . S
O96 Dy80 2.351 . S
O96 C99 1.249 . S
O97 Dy83 2.326 . S
O97 C99 1.267 . S
C98 O90 1.249 . S
C98 O91 1.267 . S
C99 O96 1.249 . S
C99 O97 1.267 . S
Dy100 O104 2.398 . S
Dy100 O105 2.491 . S
Dy100 O106 2.403 . S
Dy100 O107 2.664 . S
Dy100 O111 2.326 . S
Dy100 O115 2.310 . S
Dy100 O116 2.351 . S
C101 O112 1.185 . S
C101 O113 1.355 . S
C102 O104 1.185 . S
C102 O105 1.355 . S
Dy103 O107 2.310 . S
Dy103 O110 2.351 . S
Dy103 O112 2.398 . S
Dy103 O113 2.491 . S
Dy103 O114 2.403 . S
Dy103 O115 2.664 . S
Dy103 O117 2.326 . S
O104 Dy100 2.398 . S
O104 C102 1.185 . S
O105 Dy100 2.491 . S
O105 C102 1.355 . S
O106 Dy100 2.403 . S
O106 C108 1.254 . S
O107 Dy100 2.664 . S
O107 Dy103 2.310 . S
O107 C108 1.268 . S
C108 O106 1.254 . S
C108 O107 1.268 . S
C109 O114 1.254 . S
C109 O115 1.268 . S
O110 Dy103 2.351 . S
O110 C118 1.249 . S
O111 Dy100 2.326 . S
O111 C118 1.267 . S
O112 C101 1.185 . S
O112 Dy103 2.398 . S
O113 C101 1.355 . S
O113 Dy103 2.491 . S
O114 Dy103 2.403 . S
O114 C109 1.254 . S
O115 Dy100 2.310 . S
O115 Dy103 2.664 . S
O115 C109 1.268 . S
O116 Dy100 2.351 . S
O116 C119 1.249 . S
O117 Dy103 2.326 . S
O117 C119 1.267 . S
C118 O110 1.249 . S
C118 O111 1.267 . S
C119 O116 1.249 . S
C119 O117 1.267 . S
Dy120 O124 2.398 . S
Dy120 O125 2.491 . S
Dy120 O126 2.403 . S
Dy120 O127 2.664 . S
Dy120 O131 2.326 . S
Dy120 O135 2.310 . S
Dy120 O136 2.351 . S
C121 O132 1.185 . S
C121 O133 1.355 . S
C122 O124 1.185 . S
C122 O125 1.355 . S
Dy123 O127 2.310 . S
Dy123 O130 2.351 . S
Dy123 O132 2.398 . S
Dy123 O133 2.491 . S
Dy123 O134 2.403 . S
Dy123 O135 2.664 . S
Dy123 O137 2.326 . S
O124 Dy120 2.398 . S
O124 C122 1.185 . S
O125 Dy120 2.491 . S
O125 C122 1.355 . S
O126 Dy120 2.403 . S
O126 C128 1.254 . S
O127 Dy120 2.664 . S
O127 Dy123 2.310 . S
O127 C128 1.268 . S
C128 O126 1.254 . S
C128 O127 1.268 . S
C129 O134 1.254 . S
C129 O135 1.268 . S
O130 Dy123 2.351 . S
O130 C138 1.249 . S
O131 Dy120 2.326 . S
O131 C138 1.267 . S
O132 C121 1.185 . S
O132 Dy123 2.398 . S
O133 C121 1.355 . S
O133 Dy123 2.491 . S
O134 Dy123 2.403 . S
O134 C129 1.254 . S
O135 Dy120 2.310 . S
O135 Dy123 2.664 . S
O135 C129 1.268 . S
O136 Dy120 2.351 . S
O136 C139 1.249 . S
O137 Dy123 2.326 . S
O137 C139 1.267 . S
C138 O130 1.249 . S
C138 O131 1.267 . S
C139 O136 1.249 . S
C139 O137 1.267 . S
Dy140 O144 2.398 . S
Dy140 O145 2.491 . S
Dy140 O146 2.403 . S
Dy140 O147 2.664 . S
Dy140 O151 2.326 . S
Dy140 O155 2.310 . S
Dy140 O156 2.351 . S
C141 O152 1.193 . S
C141 O153 1.334 1_655 S
C142 O144 1.185 . S
C142 O145 1.355 . S
Dy143 O147 2.310 . S
Dy143 O150 2.351 . S
Dy143 O152 2.398 1_455 S
Dy143 O153 2.491 . S
Dy143 O154 2.403 . S
Dy143 O155 2.664 . S
Dy143 O157 2.326 . S
O144 Dy140 2.398 . S
O144 C142 1.185 . S
O145 Dy140 2.491 . S
O145 C142 1.355 . S
O146 Dy140 2.403 . S
O146 C148 1.254 . S
O147 Dy140 2.664 . S
O147 Dy143 2.310 . S
O147 C148 1.268 . S
C148 O146 1.254 . S
C148 O147 1.268 . S
C149 O154 1.254 . S
C149 O155 1.268 . S
O150 Dy143 2.351 . S
O150 C158 1.249 . S
O151 Dy140 2.326 . S
O151 C158 1.267 . S
O152 C141 1.193 . S
O152 Dy143 2.398 1_655 S
O153 C141 1.334 1_455 S
O153 Dy143 2.491 . S
O154 Dy143 2.403 . S
O154 C149 1.254 . S
O155 Dy140 2.310 . S
O155 Dy143 2.664 . S
O155 C149 1.268 . S
O156 Dy140 2.351 . S
O156 C159 1.249 . S
O157 Dy143 2.326 . S
O157 C159 1.267 . S
C158 O150 1.249 . S
C158 O151 1.267 . S
C159 O156 1.249 . S
C159 O157 1.267 . S
Dy160 O164 2.398 . S
Dy160 O165 2.491 . S
Dy160 O166 2.403 . S
Dy160 O167 2.664 . S
Dy160 O171 2.326 . S
Dy160 O175 2.310 . S
Dy160 O176 2.351 . S
C161 O172 1.185 . S
C161 O173 1.355 . S
C162 O164 1.185 . S
C162 O165 1.355 . S
Dy163 O167 2.310 . S
Dy163 O170 2.351 . S
Dy163 O172 2.398 . S
Dy163 O173 2.491 . S
Dy163 O174 2.403 . S
Dy163 O175 2.664 . S
Dy163 O177 2.326 . S
O164 Dy160 2.398 . S
O164 C162 1.185 . S
O165 Dy160 2.491 . S
O165 C162 1.355 . S
O166 Dy160 2.403 . S
O166 C168 1.254 . S
O167 Dy160 2.664 . S
O167 Dy163 2.310 . S
O167 C168 1.268 . S
C168 O166 1.254 . S
C168 O167 1.268 . S
C169 O174 1.254 . S
C169 O175 1.268 . S
O170 Dy163 2.351 . S
O170 C178 1.249 . S
O171 Dy160 2.326 . S
O171 C178 1.267 . S
O172 C161 1.185 . S
O172 Dy163 2.398 . S
O173 C161 1.355 . S
O173 Dy163 2.491 . S
O174 Dy163 2.403 . S
O174 C169 1.254 . S
O175 Dy160 2.310 . S
O175 Dy163 2.664 . S
O175 C169 1.268 . S
O176 Dy160 2.351 . S
O176 C179 1.249 . S
O177 Dy163 2.326 . S
O177 C179 1.267 . S
C178 O170 1.249 . S
C178 O171 1.267 . S
C179 O176 1.249 . S
C179 O177 1.267 . S
Dy180 O184 2.398 1_455 S
Dy180 O185 2.491 1_545 S
Dy180 O186 2.403 . S
Dy180 O187 2.664 . S
Dy180 O191 2.326 . S
Dy180 O195 2.310 . S
Dy180 O196 2.351 . S
C181 O192 1.185 . S
C181 O193 1.355 . S
C182 O184 1.193 1_565 S
C182 O185 1.334 1_655 S
Dy183 O187 2.310 . S
Dy183 O190 2.351 . S
Dy183 O192 2.398 . S
Dy183 O193 2.491 . S
Dy183 O194 2.403 . S
Dy183 O195 2.664 . S
Dy183 O197 2.326 . S
O184 Dy180 2.398 1_655 S
O184 C182 1.193 1_545 S
O185 Dy180 2.491 1_565 S
O185 C182 1.334 1_455 S
O186 Dy180 2.403 . S
O186 C188 1.254 . S
O187 Dy180 2.664 . S
O187 Dy183 2.310 . S
O187 C188 1.268 . S
C188 O186 1.254 . S
C188 O187 1.268 . S
C189 O194 1.254 1_565 S
C189 O195 1.268 1_565 S
O190 Dy183 2.351 . S
O190 C198 1.249 . S
O191 Dy180 2.326 . S
O191 C198 1.267 . S
O192 C181 1.185 . S
O192 Dy183 2.398 . S
O193 C181 1.355 . S
O193 Dy183 2.491 . S
O194 Dy183 2.403 . S
O194 C189 1.254 1_545 S
O195 Dy180 2.310 . S
O195 Dy183 2.664 . S
O195 C189 1.268 1_545 S
O196 Dy180 2.351 . S
O196 C199 1.249 . S
O197 Dy183 2.326 . S
O197 C199 1.267 . S
C198 O190 1.249 . S
C198 O191 1.267 . S
C199 O196 1.249 . S
C199 O197 1.267 . S
Dy200 O204 2.398 . S
Dy200 O205 2.491 . S
Dy200 O206 2.403 . S
Dy200 O207 2.664 . S
Dy200 O211 2.326 . S
Dy200 O215 2.310 . S
Dy200 O216 2.351 . S
C201 O212 1.185 . S
C201 O213 1.355 . S
C202 O204 1.185 . S
C202 O205 1.355 . S
Dy203 O207 2.310 . S
Dy203 O210 2.351 . S
Dy203 O212 2.398 . S
Dy203 O213 2.491 . S
Dy203 O214 2.403 . S
Dy203 O215 2.664 . S
Dy203 O217 2.326 . S
O204 Dy200 2.398 . S
O204 C202 1.185 . S
O205 Dy200 2.491 . S
O205 C202 1.355 . S
O206 Dy200 2.403 . S
O206 C208 1.254 . S
O207 Dy200 2.664 . S
O207 Dy203 2.310 . S
O207 C208 1.268 . S
C208 O206 1.254 . S
C208 O207 1.268 . S
C209 O214 1.254 . S
C209 O215 1.268 . S
O210 Dy203 2.351 . S
O210 C218 1.249 . S
O211 Dy200 2.326 . S
O211 C218 1.267 . S
O212 C201 1.185 . S
O212 Dy203 2.398 . S
O213 C201 1.355 . S
O213 Dy203 2.491 . S
O214 Dy203 2.403 . S
O214 C209 1.254 . S
O215 Dy200 2.310 . S
O215 Dy203 2.664 . S
O215 C209 1.268 . S
O216 Dy200 2.351 . S
O216 C219 1.249 . S
O217 Dy203 2.326 . S
O217 C219 1.267 . S
C218 O210 1.249 . S
C218 O211 1.267 . S
C219 O216 1.249 . S
C219 O217 1.267 . S
Dy220 O224 2.398 . S
Dy220 O225 2.491 1_565 S
Dy220 O226 2.403 . S
Dy220 O227 2.664 . S
Dy220 O231 2.326 . S
Dy220 O235 2.310 . S
Dy220 O236 2.351 . S
C221 O232 1.185 . S
C221 O233 1.355 . S
C222 O224 1.185 1_545 S
C222 O225 1.355 . S
Dy223 O227 2.310 . S
Dy223 O230 2.351 . S
Dy223 O232 2.398 . S
Dy223 O233 2.491 . S
Dy223 O234 2.403 . S
Dy223 O235 2.664 . S
Dy223 O237 2.326 . S
O224 Dy220 2.398 . S
O224 C222 1.185 1_565 S
O225 Dy220 2.491 1_545 S
O225 C222 1.355 . S
O226 Dy220 2.403 . S
O226 C228 1.254 . S
O227 Dy220 2.664 . S
O227 Dy223 2.310 . S
O227 C228 1.268 . S
C228 O226 1.254 . S
C228 O227 1.268 . S
C229 O234 1.254 1_545 S
C229 O235 1.268 1_545 S
O230 Dy223 2.351 . S
O230 C238 1.249 . S
O231 Dy220 2.326 . S
O231 C238 1.267 . S
O232 C221 1.185 . S
O232 Dy223 2.398 . S
O233 C221 1.355 . S
O233 Dy223 2.491 . S
O234 Dy223 2.403 . S
O234 C229 1.254 1_565 S
O235 Dy220 2.310 . S
O235 Dy223 2.664 . S
O235 C229 1.268 1_565 S
O236 Dy220 2.351 . S
O236 C239 1.249 . S
O237 Dy223 2.326 . S
O237 C239 1.267 . S
C238 O230 1.249 . S
C238 O231 1.267 . S
C239 O236 1.249 . S
C239 O237 1.267 . S
Dy240 O244 2.398 . S
Dy240 O245 2.491 . S
Dy240 O246 2.403 . S
Dy240 O247 2.664 . S
Dy240 O251 2.326 . S
Dy240 O255 2.310 . S
Dy240 O256 2.351 . S
C241 O252 1.185 . S
C241 O253 1.355 . S
C242 O244 1.185 . S
C242 O245 1.355 . S
Dy243 O247 2.310 . S
Dy243 O250 2.351 . S
Dy243 O252 2.398 . S
Dy243 O253 2.491 . S
Dy243 O254 2.403 . S
Dy243 O255 2.664 . S
Dy243 O257 2.326 . S
O244 Dy240 2.398 . S
O244 C242 1.185 . S
O245 Dy240 2.491 . S
O245 C242 1.355 . S
O246 Dy240 2.403 . S
O246 C248 1.254 . S
O247 Dy240 2.664 . S
O247 Dy243 2.310 . S
O247 C248 1.268 . S
C248 O246 1.254 . S
C248 O247 1.268 . S
C249 O254 1.254 . S
C249 O255 1.268 . S
O250 Dy243 2.351 . S
O250 C258 1.249 . S
O251 Dy240 2.326 . S
O251 C258 1.267 . S
O252 C241 1.185 . S
O252 Dy243 2.398 . S
O253 C241 1.355 . S
O253 Dy243 2.491 . S
O254 Dy243 2.403 . S
O254 C249 1.254 . S
O255 Dy240 2.310 . S
O255 Dy243 2.664 . S
O255 C249 1.268 . S
O256 Dy240 2.351 . S
O256 C259 1.249 . S
O257 Dy243 2.326 . S
O257 C259 1.267 . S
C258 O250 1.249 . S
C258 O251 1.267 . S
C259 O256 1.249 . S
C259 O257 1.267 . S
Dy260 O264 2.398 . S
Dy260 O265 2.491 . S
Dy260 O266 2.403 . S
Dy260 O267 2.664 . S
Dy260 O271 2.326 . S
Dy260 O275 2.310 . S
Dy260 O276 2.351 . S
C261 O272 1.193 1_545 S
C261 O273 1.334 1_455 S
C262 O264 1.185 . S
C262 O265 1.355 . S
Dy263 O267 2.310 . S
Dy263 O270 2.351 . S
Dy263 O272 2.398 1_655 S
Dy263 O273 2.491 1_565 S
Dy263 O274 2.403 . S
Dy263 O275 2.664 . S
Dy263 O277 2.326 . S
O264 Dy260 2.398 . S
O264 C262 1.185 . S
O265 Dy260 2.491 . S
O265 C262 1.355 . S
O266 Dy260 2.403 . S
O266 C268 1.254 1_565 S
O267 Dy260 2.664 . S
O267 Dy263 2.310 . S
O267 C268 1.268 1_565 S
C268 O266 1.254 1_545 S
C268 O267 1.268 1_545 S
C269 O274 1.254 . S
C269 O275 1.268 . S
O270 Dy263 2.351 . S
O270 C278 1.249 . S
O271 Dy260 2.326 . S
O271 C278 1.267 . S
O272 C261 1.193 1_565 S
O272 Dy263 2.398 1_455 S
O273 C261 1.334 1_655 S
O273 Dy263 2.491 1_545 S
O274 Dy263 2.403 . S
O274 C269 1.254 . S
O275 Dy260 2.310 . S
O275 Dy263 2.664 . S
O275 C269 1.268 . S
O276 Dy260 2.351 . S
O276 C279 1.249 . S
O277 Dy263 2.326 . S
O277 C279 1.267 . S
C278 O270 1.249 . S
C278 O271 1.267 . S
C279 O276 1.249 . S
C279 O277 1.267 . S
Dy280 O284 2.398 . S
Dy280 O285 2.491 . S
Dy280 O286 2.403 . S
Dy280 O287 2.664 . S
Dy280 O291 2.326 . S
Dy280 O295 2.310 . S
Dy280 O296 2.351 . S
C281 O292 1.185 . S
C281 O293 1.355 . S
C282 O284 1.185 . S
C282 O285 1.355 . S
Dy283 O287 2.310 . S
Dy283 O290 2.351 . S
Dy283 O292 2.398 . S
Dy283 O293 2.491 . S
Dy283 O294 2.403 . S
Dy283 O295 2.664 . S
Dy283 O297 2.326 . S
O284 Dy280 2.398 . S
O284 C282 1.185 . S
O285 Dy280 2.491 . S
O285 C282 1.355 . S
O286 Dy280 2.403 . S
O286 C288 1.254 . S
O287 Dy280 2.664 . S
O287 Dy283 2.310 . S
O287 C288 1.268 . S
C288 O286 1.254 . S
C288 O287 1.268 . S
C289 O294 1.254 . S
C289 O295 1.268 . S
O290 Dy283 2.351 . S
O290 C298 1.249 . S
O291 Dy280 2.326 . S
O291 C298 1.267 . S
O292 C281 1.185 . S
O292 Dy283 2.398 . S
O293 C281 1.355 . S
O293 Dy283 2.491 . S
O294 Dy283 2.403 . S
O294 C289 1.254 . S
O295 Dy280 2.310 . S
O295 Dy283 2.664 . S
O295 C289 1.268 . S
O296 Dy280 2.351 . S
O296 C299 1.249 . S
O297 Dy283 2.326 . S
O297 C299 1.267 . S
C298 O290 1.249 . S
C298 O291 1.267 . S
C299 O296 1.249 . S
C299 O297 1.267 . S
Dy300 O304 2.398 . S
Dy300 O305 2.491 . S
Dy300 O306 2.403 . S
Dy300 O307 2.664 . S
Dy300 O311 2.326 . S
Dy300 O315 2.310 . S
Dy300 O316 2.351 . S
C301 O312 1.185 1_565 S
C301 O313 1.355 . S
C302 O304 1.185 . S
C302 O305 1.355 . S
Dy303 O307 2.310 . S
Dy303 O310 2.351 . S
Dy303 O312 2.398 . S
Dy303 O313 2.491 1_545 S
Dy303 O314 2.403 . S
Dy303 O315 2.664 . S
Dy303 O317 2.326 . S
O304 Dy300 2.398 . S
O304 C302 1.185 . S
O305 Dy300 2.491 . S
O305 C302 1.355 . S
O306 Dy300 2.403 . S
O306 C308 1.254 1_545 S
O307 Dy300 2.664 . S
O307 Dy303 2.310 . S
O307 C308 1.268 1_545 S
C308 O306 1.254 1_565 S
C308 O307 1.268 1_565 S
C309 O314 1.254 . S
C309 O315 1.268 . S
O310 Dy303 2.351 . S
O310 C318 1.249 . S
O311 Dy300 2.326 . S
O311 C318 1.267 . S
O312 C301 1.185 1_545 S
O312 Dy303 2.398 . S
O313 C301 1.355 . S
O313 Dy303 2.491 1_565 S
O314 Dy303 2.403 . S
O314 C309 1.254 . S
O315 Dy300 2.310 . S
O315 Dy303 2.664 . S
O315 C309 1.268 . S
O316 Dy300 2.351 . S
O316 C319 1.249 . S
O317 Dy303 2.326 . S
O317 C319 1.267 . S
C318 O310 1.249 . S
C318 O311 1.267 . S
C319 O316 1.249 . S
C319 O317 1.267 . S
H320 C326 0.930 . S
H321 C329 0.930 . S
H322 C330 0.930 . S
H323 C331 0.930 . S
H324 C334 0.930 . S
H325 C335 0.930 . S
C326 H320 0.930 . S
C326 C327 1.355 . S
C326 C328 1.415 . S
C327 C326 1.355 . S
C327 C329 1.419 . S
C328 C326 1.415 . S
C328 C333 1.425 . S
C328 C335 1.409 . S
C329 H321 0.930 . S
C329 C327 1.419 . S
C329 C330 1.362 . S
C330 H322 0.930 . S
C330 C329 1.362 . S
C330 C333 1.409 . S
C331 H323 0.930 . S
C331 C332 1.355 . S
C331 C333 1.415 . S
C332 C331 1.355 . S
C332 C334 1.419 . S
C333 C328 1.425 . S
C333 C330 1.409 . S
C333 C331 1.415 . S
C334 H324 0.930 . S
C334 C332 1.419 . S
C334 C335 1.362 . S
C335 H325 0.930 . S
C335 C328 1.409 . S
C335 C334 1.362 . S
H336 C342 0.930 . S
H337 C345 0.930 . S
H338 C346 0.930 . S
H339 C347 0.930 . S
H340 C350 0.930 . S
H341 C351 0.930 . S
C342 H336 0.930 . S
C342 C343 1.355 . S
C342 C344 1.415 . S
C343 C342 1.355 . S
C343 C345 1.419 . S
C344 C342 1.415 . S
C344 C349 1.425 . S
C344 C351 1.409 . S
C345 H337 0.930 . S
C345 C343 1.419 . S
C345 C346 1.362 . S
C346 H338 0.930 . S
C346 C345 1.362 . S
C346 C349 1.409 . S
C347 H339 0.930 . S
C347 C348 1.355 . S
C347 C349 1.415 . S
C348 C347 1.355 . S
C348 C350 1.419 . S
C349 C344 1.425 . S
C349 C346 1.409 . S
C349 C347 1.415 . S
C350 H340 0.930 . S
C350 C348 1.419 . S
C350 C351 1.362 . S
C351 H341 0.930 . S
C351 C344 1.409 . S
C351 C350 1.362 . S
H352 C358 0.930 . S
H353 C361 0.930 . S
H354 C362 0.930 . S
H355 C363 0.930 . S
H356 C366 0.930 . S
H357 C367 0.930 . S
C358 H352 0.930 . S
C358 C359 1.355 . S
C358 C360 1.415 . S
C359 C358 1.355 . S
C359 C361 1.419 . S
C360 C358 1.415 . S
C360 C365 1.425 1_455 S
C360 C367 1.409 . S
C361 H353 0.930 . S
C361 C359 1.419 . S
C361 C362 1.362 1_455 S
C362 H354 0.930 . S
C362 C361 1.362 1_655 S
C362 C365 1.409 . S
C363 H355 0.930 . S
C363 C364 1.355 . S
C363 C365 1.415 . S
C364 C363 1.355 . S
C364 C366 1.419 . S
C365 C360 1.425 1_655 S
C365 C362 1.409 . S
C365 C363 1.415 . S
C366 H356 0.930 . S
C366 C364 1.419 . S
C366 C367 1.362 1_655 S
C367 H357 0.930 . S
C367 C360 1.409 . S
C367 C366 1.362 1_455 S
H368 C374 0.930 . S
H369 C377 0.930 . S
H370 C378 0.930 . S
H371 C379 0.930 . S
H372 C382 0.930 . S
H373 C383 0.930 . S
C374 H368 0.930 . S
C374 C375 1.355 . S
C374 C376 1.415 . S
C375 C374 1.355 . S
C375 C377 1.419 . S
C376 C374 1.415 . S
C376 C381 1.425 1_455 S
C376 C383 1.409 1_455 S
C377 H369 0.930 . S
C377 C375 1.419 . S
C377 C378 1.362 . S
C378 H370 0.930 . S
C378 C377 1.362 . S
C378 C381 1.409 1_455 S
C379 H371 0.930 . S
C379 C380 1.355 . S
C379 C381 1.415 . S
C380 C379 1.355 . S
C380 C382 1.419 . S
C381 C376 1.425 1_655 S
C381 C378 1.409 1_655 S
C381 C379 1.415 . S
C382 H372 0.930 . S
C382 C380 1.419 . S
C382 C383 1.362 . S
C383 H373 0.930 . S
C383 C376 1.409 1_655 S
C383 C382 1.362 . S
H384 C390 0.930 . S
H385 C393 0.930 . S
H386 C394 0.930 . S
H387 C395 0.930 . S
H388 C398 0.930 . S
H389 C399 0.930 . S
C390 H384 0.930 . S
C390 C391 1.355 . S
C390 C392 1.415 . S
C391 C390 1.355 . S
C391 C393 1.419 . S
C392 C390 1.415 . S
C392 C397 1.425 . S
C392 C399 1.409 . S
C393 H385 0.930 . S
C393 C391 1.419 . S
C393 C394 1.362 . S
C394 H386 0.930 . S
C394 C393 1.362 . S
C394 C397 1.409 . S
C395 H387 0.930 . S
C395 C396 1.355 . S
C395 C397 1.415 . S
C396 C395 1.355 . S
C396 C398 1.419 . S
C397 C392 1.425 . S
C397 C394 1.409 . S
C397 C395 1.415 . S
C398 H388 0.930 . S
C398 C396 1.419 . S
C398 C399 1.362 . S
C399 H389 0.930 . S
C399 C392 1.409 . S
C399 C398 1.362 . S
H400 C406 0.930 . S
H401 C409 0.930 . S
H402 C410 0.930 . S
H403 C411 0.930 . S
H404 C414 0.930 . S
H405 C415 0.930 . S
C406 H400 0.930 . S
C406 C407 1.355 . S
C406 C408 1.415 . S
C407 C406 1.355 . S
C407 C409 1.419 . S
C408 C406 1.415 . S
C408 C413 1.425 . S
C408 C415 1.409 . S
C409 H401 0.930 . S
C409 C407 1.419 . S
C409 C410 1.362 . S
C410 H402 0.930 . S
C410 C409 1.362 . S
C410 C413 1.409 . S
C411 H403 0.930 . S
C411 C412 1.355 . S
C411 C413 1.415 . S
C412 C411 1.355 . S
C412 C414 1.419 . S
C413 C408 1.425 . S
C413 C410 1.409 . S
C413 C411 1.415 . S
C414 H404 0.930 . S
C414 C412 1.419 . S
C414 C415 1.362 . S
C415 H405 0.930 . S
C415 C408 1.409 . S
C415 C414 1.362 . S
H416 C422 0.930 . S
H417 C425 0.930 . S
H418 C426 0.930 . S
H419 C427 0.930 . S
H420 C430 0.930 . S
H421 C431 0.930 . S
C422 H416 0.930 . S
C422 C423 1.355 . S
C422 C424 1.415 1_455 S
C423 C422 1.355 . S
C423 C425 1.419 . S
C424 C422 1.415 1_655 S
C424 C429 1.425 1_655 S
C424 C431 1.409 . S
C425 H417 0.930 . S
C425 C423 1.419 . S
C425 C426 1.362 . S
C426 H418 0.930 . S
C426 C425 1.362 . S
C426 C429 1.409 . S
C427 H419 0.930 . S
C427 C428 1.355 . S
C427 C429 1.415 1_655 S
C428 C427 1.355 . S
C428 C430 1.419 . S
C429 C424 1.425 1_455 S
C429 C426 1.409 . S
C429 C427 1.415 1_455 S
C430 H420 0.930 . S
C430 C428 1.419 . S
C430 C431 1.362 . S
C431 H421 0.930 . S
C431 C424 1.409 . S
C431 C430 1.362 . S
H432 C438 0.930 . S
H433 C441 0.930 . S
H434 C442 0.930 . S
H435 C443 0.930 . S
H436 C446 0.930 . S
H437 C447 0.930 . S
C438 H432 0.930 . S
C438 C439 1.355 . S
C438 C440 1.415 . S
C439 C438 1.355 . S
C439 C441 1.419 . S
C440 C438 1.415 . S
C440 C445 1.425 1_455 S
C440 C447 1.409 . S
C441 H433 0.930 . S
C441 C439 1.419 . S
C441 C442 1.362 1_455 S
C442 H434 0.930 . S
C442 C441 1.362 1_655 S
C442 C445 1.409 . S
C443 H435 0.930 . S
C443 C444 1.355 . S
C443 C445 1.415 . S
C444 C443 1.355 . S
C444 C446 1.419 . S
C445 C440 1.425 1_655 S
C445 C442 1.409 . S
C445 C443 1.415 . S
C446 H436 0.930 . S
C446 C444 1.419 . S
C446 C447 1.362 1_655 S
C447 H437 0.930 . S
C447 C440 1.409 . S
C447 C446 1.362 1_455 S
H448 C454 0.930 1_556 S
H449 C457 0.930 . S
H450 C458 0.930 . S
H451 C459 0.930 1_554 S
H452 C462 0.930 . S
H453 C463 0.930 . S
C454 H448 0.930 1_554 S
C454 C455 1.355 1_545 S
C454 C456 1.415 1_554 S
C455 C454 1.355 1_565 S
C455 C457 1.419 . S
C456 C454 1.415 1_556 S
C456 C461 1.425 1_546 S
C456 C463 1.409 . S
C457 H449 0.930 . S
C457 C455 1.419 . S
C457 C458 1.362 . S
C458 H450 0.930 . S
C458 C457 1.362 . S
C458 C461 1.409 . S
C459 H451 0.930 1_556 S
C459 C460 1.355 1_565 S
C459 C461 1.415 1_556 S
C460 C459 1.355 1_545 S
C460 C462 1.419 . S
C461 C456 1.425 1_564 S
C461 C458 1.409 . S
C461 C459 1.415 1_554 S
C462 H452 0.930 . S
C462 C460 1.419 . S
C462 C463 1.362 . S
C463 H453 0.930 . S
C463 C456 1.409 . S
C463 C462 1.362 . S
H464 C470 0.930 . S
H465 C473 0.930 . S
H466 C474 0.930 . S
H467 C475 0.930 . S
H468 C478 0.930 . S
H469 C479 0.930 . S
C470 H464 0.930 . S
C470 C471 1.355 . S
C470 C472 1.415 . S
C471 C470 1.355 . S
C471 C473 1.419 . S
C472 C470 1.415 . S
C472 C477 1.425 . S
C472 C479 1.409 . S
C473 H465 0.930 . S
C473 C471 1.419 . S
C473 C474 1.362 . S
C474 H466 0.930 . S
C474 C473 1.362 . S
C474 C477 1.409 . S
C475 H467 0.930 . S
C475 C476 1.355 . S
C475 C477 1.415 . S
C476 C475 1.355 . S
C476 C478 1.419 . S
C477 C472 1.425 . S
C477 C474 1.409 . S
C477 C475 1.415 . S
C478 H468 0.930 . S
C478 C476 1.419 . S
C478 C479 1.362 . S
C479 H469 0.930 . S
C479 C472 1.409 . S
C479 C478 1.362 . S
H480 C486 0.930 . S
H481 C489 0.930 . S
H482 C490 0.930 . S
H483 C491 0.930 . S
H484 C494 0.930 . S
H485 C495 0.930 . S
C486 H480 0.930 . S
C486 C487 1.355 1_545 S
C486 C488 1.415 1_455 S
C487 C486 1.355 1_565 S
C487 C489 1.419 . S
C488 C486 1.415 1_655 S
C488 C493 1.425 1_645 S
C488 C495 1.409 . S
C489 H481 0.930 . S
C489 C487 1.419 . S
C489 C490 1.362 . S
C490 H482 0.930 . S
C490 C489 1.362 . S
C490 C493 1.409 . S
C491 H483 0.930 . S
C491 C492 1.355 1_565 S
C491 C493 1.415 1_655 S
C492 C491 1.355 1_545 S
C492 C494 1.419 . S
C493 C488 1.425 1_465 S
C493 C490 1.409 . S
C493 C491 1.415 1_455 S
C494 H484 0.930 . S
C494 C492 1.419 . S
C494 C495 1.362 . S
C495 H485 0.930 . S
C495 C488 1.409 . S
C495 C494 1.362 . S
H496 C502 0.930 . S
H497 C505 0.930 . S
H498 C506 0.930 . S
H499 C507 0.930 . S
H500 C510 0.930 . S
H501 C511 0.930 . S
C502 H496 0.930 . S
C502 C503 1.355 . S
C502 C504 1.415 . S
C503 C502 1.355 . S
C503 C505 1.419 . S
C504 C502 1.415 . S
C504 C509 1.425 . S
C504 C511 1.409 . S
C505 H497 0.930 . S
C505 C503 1.419 . S
C505 C506 1.362 . S
C506 H498 0.930 . S
C506 C505 1.362 . S
C506 C509 1.409 . S
C507 H499 0.930 . S
C507 C508 1.355 . S
C507 C509 1.415 . S
C508 C507 1.355 . S
C508 C510 1.419 . S
C509 C504 1.425 . S
C509 C506 1.409 . S
C509 C507 1.415 . S
C510 H500 0.930 . S
C510 C508 1.419 . S
C510 C511 1.362 . S
C511 H501 0.930 . S
C511 C504 1.409 . S
C511 C510 1.362 . S
H512 C518 0.930 . S
H513 C521 0.930 . S
H514 C522 0.930 . S
H515 C523 0.930 . S
H516 C526 0.930 . S
H517 C527 0.930 . S
C518 H512 0.930 . S
C518 C519 1.355 . S
C518 C520 1.415 . S
C519 C518 1.355 . S
C519 C521 1.419 . S
C520 C518 1.415 . S
C520 C525 1.425 . S
C520 C527 1.409 . S
C521 H513 0.930 . S
C521 C519 1.419 . S
C521 C522 1.362 . S
C522 H514 0.930 . S
C522 C521 1.362 . S
C522 C525 1.409 . S
C523 H515 0.930 . S
C523 C524 1.355 . S
C523 C525 1.415 . S
C524 C523 1.355 . S
C524 C526 1.419 . S
C525 C520 1.425 . S
C525 C522 1.409 . S
C525 C523 1.415 . S
C526 H516 0.930 . S
C526 C524 1.419 . S
C526 C527 1.362 . S
C527 H517 0.930 . S
C527 C520 1.409 . S
C527 C526 1.362 . S
H528 C534 0.930 . S
H529 C537 0.930 . S
H530 C538 0.930 . S
H531 C539 0.930 . S
H532 C542 0.930 . S
H533 C543 0.930 . S
C534 H528 0.930 . S
C534 C535 1.355 . S
C534 C536 1.415 . S
C535 C534 1.355 . S
C535 C537 1.419 . S
C536 C534 1.415 . S
C536 C541 1.425 . S
C536 C543 1.409 . S
C537 H529 0.930 . S
C537 C535 1.419 . S
C537 C538 1.362 . S
C538 H530 0.930 . S
C538 C537 1.362 . S
C538 C541 1.409 . S
C539 H531 0.930 . S
C539 C540 1.355 . S
C539 C541 1.415 . S
C540 C539 1.355 . S
C540 C542 1.419 . S
C541 C536 1.425 . S
C541 C538 1.409 . S
C541 C539 1.415 . S
C542 H532 0.930 . S
C542 C540 1.419 . S
C542 C543 1.362 . S
C543 H533 0.930 . S
C543 C536 1.409 . S
C543 C542 1.362 . S
H544 C550 0.930 . S
H545 C553 0.930 . S
H546 C554 0.930 . S
H547 C555 0.930 . S
H548 C558 0.930 . S
H549 C559 0.930 . S
C550 H544 0.930 . S
C550 C551 1.355 . S
C550 C552 1.415 . S
C551 C550 1.355 . S
C551 C553 1.419 . S
C552 C550 1.415 . S
C552 C557 1.425 1_455 S
C552 C559 1.409 . S
C553 H545 0.930 . S
C553 C551 1.419 . S
C553 C554 1.362 1_455 S
C554 H546 0.930 . S
C554 C553 1.362 1_655 S
C554 C557 1.409 . S
C555 H547 0.930 . S
C555 C556 1.355 . S
C555 C557 1.415 . S
C556 C555 1.355 . S
C556 C558 1.419 . S
C557 C552 1.425 1_655 S
C557 C554 1.409 . S
C557 C555 1.415 . S
C558 H548 0.930 . S
C558 C556 1.419 . S
C558 C559 1.362 1_655 S
C559 H549 0.930 . S
C559 C552 1.409 . S
C559 C558 1.362 1_455 S
H560 C566 0.942 . S
H561 C569 0.930 . S
H562 C570 0.930 . S
H563 C571 0.942 . S
H564 C574 0.930 . S
H565 C575 0.930 . S
C566 H560 0.942 . S
C566 C567 1.337 1_556 S
C566 C568 1.421 . S
C567 C566 1.337 1_554 S
C567 C569 1.419 . S
C568 C566 1.421 . S
C568 C573 1.425 1_556 S
C568 C575 1.409 . S
C569 H561 0.930 . S
C569 C567 1.419 . S
C569 C570 1.362 . S
C570 H562 0.930 . S
C570 C569 1.362 . S
C570 C573 1.409 . S
C571 H563 0.942 . S
C571 C572 1.337 1_554 S
C571 C573 1.421 . S
C572 C571 1.337 1_556 S
C572 C574 1.419 . S
C573 C568 1.425 1_554 S
C573 C570 1.409 . S
C573 C571 1.421 . S
C574 H564 0.930 . S
C574 C572 1.419 . S
C574 C575 1.362 . S
C575 H565 0.930 . S
C575 C568 1.409 . S
C575 C574 1.362 . S
H576 C582 0.930 . S
H577 C585 0.930 . S
H578 C586 0.930 . S
H579 C587 0.930 . S
H580 C590 0.930 . S
H581 C591 0.930 . S
C582 H576 0.930 . S
C582 C583 1.355 . S
C582 C584 1.415 . S
C583 C582 1.355 . S
C583 C585 1.419 . S
C584 C582 1.415 . S
C584 C589 1.425 . S
C584 C591 1.409 . S
C585 H577 0.930 . S
C585 C583 1.419 . S
C585 C586 1.362 . S
C586 H578 0.930 . S
C586 C585 1.362 . S
C586 C589 1.409 . S
C587 H579 0.930 . S
C587 C588 1.355 . S
C587 C589 1.415 . S
C588 C587 1.355 . S
C588 C590 1.419 . S
C589 C584 1.425 . S
C589 C586 1.409 . S
C589 C587 1.415 . S
C590 H580 0.930 . S
C590 C588 1.419 . S
C590 C591 1.362 . S
C591 H581 0.930 . S
C591 C584 1.409 . S
C591 C590 1.362 . S
H592 C598 0.930 . S
H593 C601 0.930 . S
H594 C602 0.930 . S
H595 C603 0.930 . S
H596 C606 0.930 . S
H597 C607 0.930 . S
C598 H592 0.930 . S
C598 C599 1.355 . S
C598 C600 1.415 . S
C599 C598 1.355 . S
C599 C601 1.419 . S
C600 C598 1.415 . S
C600 C605 1.425 . S
C600 C607 1.409 . S
C601 H593 0.930 . S
C601 C599 1.419 . S
C601 C602 1.362 . S
C602 H594 0.930 . S
C602 C601 1.362 . S
C602 C605 1.409 . S
C603 H595 0.930 . S
C603 C604 1.355 . S
C603 C605 1.415 . S
C604 C603 1.355 . S
C604 C606 1.419 . S
C605 C600 1.425 . S
C605 C602 1.409 . S
C605 C603 1.415 . S
C606 H596 0.930 . S
C606 C604 1.419 . S
C606 C607 1.362 . S
C607 H597 0.930 . S
C607 C600 1.409 . S
C607 C606 1.362 . S
H608 C614 0.930 . S
H609 C617 0.930 . S
H610 C618 0.930 . S
H611 C619 0.930 . S
H612 C622 0.930 . S
H613 C623 0.930 . S
C614 H608 0.930 . S
C614 C615 1.355 . S
C614 C616 1.415 . S
C615 C614 1.355 . S
C615 C617 1.419 . S
C616 C614 1.415 . S
C616 C621 1.425 . S
C616 C623 1.409 . S
C617 H609 0.930 . S
C617 C615 1.419 . S
C617 C618 1.362 . S
C618 H610 0.930 . S
C618 C617 1.362 . S
C618 C621 1.409 . S
C619 H611 0.930 . S
C619 C620 1.355 . S
C619 C621 1.415 . S
C620 C619 1.355 . S
C620 C622 1.419 . S
C621 C616 1.425 . S
C621 C618 1.409 . S
C621 C619 1.415 . S
C622 H612 0.930 . S
C622 C620 1.419 . S
C622 C623 1.362 . S
C623 H613 0.930 . S
C623 C616 1.409 . S
C623 C622 1.362 . S
H624 C630 0.930 . S
H625 C633 0.944 . S
H626 C634 0.930 . S
H627 C635 0.930 . S
H628 C638 0.930 . S
H629 C639 0.930 . S
C630 H624 0.930 . S
C630 C631 1.355 . S
C630 C632 1.415 . S
C631 C630 1.355 . S
C631 C633 1.419 . S
C632 C630 1.415 . S
C632 C637 1.425 . S
C632 C639 1.409 . S
C633 H625 0.944 . S
C633 C631 1.419 . S
C633 C634 1.362 . S
C634 H626 0.930 . S
C634 C633 1.362 . S
C634 C637 1.409 . S
C635 H627 0.930 . S
C635 C636 1.355 . S
C635 C637 1.415 . S
C636 C635 1.355 . S
C636 C638 1.419 . S
C637 C632 1.425 . S
C637 C634 1.409 . S
C637 C635 1.415 . S
C638 H628 0.930 . S
C638 C636 1.419 . S
C638 C639 1.362 . S
C639 H629 0.930 . S
C639 C632 1.409 . S
C639 C638 1.362 . S
H640 C646 0.930 . S
H641 C649 0.930 . S
H642 C650 0.930 . S
H643 C651 0.930 . S
H644 C654 0.930 . S
H645 C655 0.930 . S
C646 H640 0.930 . S
C646 C647 1.355 . S
C646 C648 1.415 . S
C647 C646 1.355 . S
C647 C649 1.419 . S
C648 C646 1.415 . S
C648 C653 1.425 . S
C648 C655 1.409 . S
C649 H641 0.930 . S
C649 C647 1.419 . S
C649 C650 1.362 . S
C650 H642 0.930 . S
C650 C649 1.362 . S
C650 C653 1.409 . S
C651 H643 0.930 . S
C651 C652 1.355 . S
C651 C653 1.415 . S
C652 C651 1.355 . S
C652 C654 1.419 . S
C653 C648 1.425 . S
C653 C650 1.409 . S
C653 C651 1.415 . S
C654 H644 0.930 . S
C654 C652 1.419 . S
C654 C655 1.362 . S
C655 H645 0.930 . S
C655 C648 1.409 . S
C655 C654 1.362 . S
H656 C662 0.930 . S
H657 C665 0.930 . S
H658 C666 0.930 . S
H659 C667 0.930 . S
H660 C670 0.930 . S
H661 C671 0.930 . S
C662 H656 0.930 . S
C662 C663 1.355 . S
C662 C664 1.415 . S
C663 C662 1.355 . S
C663 C665 1.419 . S
C664 C662 1.415 . S
C664 C669 1.425 . S
C664 C671 1.409 . S
C665 H657 0.930 . S
C665 C663 1.419 . S
C665 C666 1.362 . S
C666 H658 0.930 . S
C666 C665 1.362 . S
C666 C669 1.409 . S
C667 H659 0.930 . S
C667 C668 1.355 . S
C667 C669 1.415 . S
C668 C667 1.355 . S
C668 C670 1.419 . S
C669 C664 1.425 . S
C669 C666 1.409 . S
C669 C667 1.415 . S
C670 H660 0.930 . S
C670 C668 1.419 . S
C670 C671 1.362 . S
C671 H661 0.930 . S
C671 C664 1.409 . S
C671 C670 1.362 . S
H672 C678 0.930 . S
H673 C681 0.930 . S
H674 C682 0.930 . S
H675 C683 0.930 . S
H676 C686 0.930 . S
H677 C687 0.930 . S
C678 H672 0.930 . S
C678 C679 1.355 . S
C678 C680 1.415 . S
C679 C678 1.355 . S
C679 C681 1.419 . S
C680 C678 1.415 . S
C680 C685 1.425 . S
C680 C687 1.409 . S
C681 H673 0.930 . S
C681 C679 1.419 . S
C681 C682 1.362 . S
C682 H674 0.930 . S
C682 C681 1.362 . S
C682 C685 1.409 . S
C683 H675 0.930 . S
C683 C684 1.355 . S
C683 C685 1.415 . S
C684 C683 1.355 . S
C684 C686 1.419 . S
C685 C680 1.425 . S
C685 C682 1.409 . S
C685 C683 1.415 . S
C686 H676 0.930 . S
C686 C684 1.419 . S
C686 C687 1.362 . S
C687 H677 0.930 . S
C687 C680 1.409 . S
C687 C686 1.362 . S
H688 C694 0.930 . S
H689 C697 0.930 . S
H690 C698 0.930 . S
H691 C699 0.930 . S
H692 C702 0.930 . S
H693 C703 0.930 . S
C694 H688 0.930 . S
C694 C695 1.355 . S
C694 C696 1.415 . S
C695 C694 1.355 . S
C695 C697 1.419 . S
C696 C694 1.415 . S
C696 C701 1.425 . S
C696 C703 1.409 . S
C697 H689 0.930 . S
C697 C695 1.419 . S
C697 C698 1.362 . S
C698 H690 0.930 . S
C698 C697 1.362 . S
C698 C701 1.409 . S
C699 H691 0.930 . S
C699 C700 1.355 . S
C699 C701 1.415 . S
C700 C699 1.355 . S
C700 C702 1.419 . S
C701 C696 1.425 . S
C701 C698 1.409 . S
C701 C699 1.415 . S
C702 H692 0.930 . S
C702 C700 1.419 . S
C702 C703 1.362 . S
C703 H693 0.930 . S
C703 C696 1.409 . S
C703 C702 1.362 . S
H704 C710 0.930 . S
H705 C713 0.930 . S
H706 C714 0.930 . S
H707 C715 0.930 . S
H708 C718 0.930 . S
H709 C719 0.930 . S
C710 H704 0.930 . S
C710 C711 1.355 . S
C710 C712 1.415 . S
C711 C710 1.355 . S
C711 C713 1.419 . S
C712 C710 1.415 . S
C712 C717 1.425 . S
C712 C719 1.409 . S
C713 H705 0.930 . S
C713 C711 1.419 . S
C713 C714 1.362 . S
C714 H706 0.930 . S
C714 C713 1.362 . S
C714 C717 1.409 . S
C715 H707 0.930 . S
C715 C716 1.355 . S
C715 C717 1.415 . S
C716 C715 1.355 . S
C716 C718 1.419 . S
C717 C712 1.425 . S
C717 C714 1.409 . S
C717 C715 1.415 . S
C718 H708 0.930 . S
C718 C716 1.419 . S
C718 C719 1.362 . S
C719 H709 0.930 . S
C719 C712 1.409 . S
C719 C718 1.362 . S
H720 C726 0.930 . S
H721 C729 0.930 . S
H722 C730 0.930 . S
H723 C731 0.930 . S
H724 C734 0.930 . S
H725 C735 0.930 . S
C726 H720 0.930 . S
C726 C727 1.355 . S
C726 C728 1.415 . S
C727 C726 1.355 . S
C727 C729 1.419 . S
C728 C726 1.415 . S
C728 C733 1.425 . S
C728 C735 1.409 1_565 S
C729 H721 0.930 . S
C729 C727 1.419 . S
C729 C730 1.362 . S
C730 H722 0.930 . S
C730 C729 1.362 . S
C730 C733 1.409 . S
C731 H723 0.930 . S
C731 C732 1.355 . S
C731 C733 1.415 . S
C732 C731 1.355 . S
C732 C734 1.419 1_565 S
C733 C728 1.425 . S
C733 C730 1.409 . S
C733 C731 1.415 . S
C734 H724 0.930 . S
C734 C732 1.419 1_545 S
C734 C735 1.362 . S
C735 H725 0.930 . S
C735 C728 1.409 1_545 S
C735 C734 1.362 . S
H736 C742 0.930 . S
H737 C745 0.930 . S
H738 C746 0.930 . S
H739 C747 0.930 . S
H740 C750 0.930 . S
H741 C751 0.930 . S
C742 H736 0.930 . S
C742 C743 1.355 . S
C742 C744 1.415 . S
C743 C742 1.355 . S
C743 C745 1.419 . S
C744 C742 1.415 . S
C744 C749 1.425 . S
C744 C751 1.409 . S
C745 H737 0.930 . S
C745 C743 1.419 . S
C745 C746 1.362 . S
C746 H738 0.930 . S
C746 C745 1.362 . S
C746 C749 1.409 . S
C747 H739 0.930 . S
C747 C748 1.355 . S
C747 C749 1.415 . S
C748 C747 1.355 . S
C748 C750 1.419 . S
C749 C744 1.425 . S
C749 C746 1.409 . S
C749 C747 1.415 . S
C750 H740 0.930 . S
C750 C748 1.419 . S
C750 C751 1.362 . S
C751 H741 0.930 . S
C751 C744 1.409 . S
C751 C750 1.362 . S
H752 C758 0.930 . S
H753 C761 0.930 . S
H754 C762 0.930 . S
H755 C763 0.930 . S
H756 C766 0.930 . S
H757 C767 0.930 . S
C758 H752 0.930 . S
C758 C759 1.355 . S
C758 C760 1.415 . S
C759 C758 1.355 . S
C759 C761 1.419 . S
C760 C758 1.415 . S
C760 C765 1.425 . S
C760 C767 1.409 . S
C761 H753 0.930 . S
C761 C759 1.419 . S
C761 C762 1.362 . S
C762 H754 0.930 . S
C762 C761 1.362 . S
C762 C765 1.409 . S
C763 H755 0.930 . S
C763 C764 1.355 . S
C763 C765 1.415 . S
C764 C763 1.355 . S
C764 C766 1.419 . S
C765 C760 1.425 . S
C765 C762 1.409 . S
C765 C763 1.415 . S
C766 H756 0.930 . S
C766 C764 1.419 . S
C766 C767 1.362 . S
C767 H757 0.930 . S
C767 C760 1.409 . S
C767 C766 1.362 . S
H768 C774 0.930 . S
H769 C777 0.930 . S
H770 C778 0.930 . S
H771 C779 0.930 . S
H772 C782 0.930 . S
H773 C783 0.930 . S
C774 H768 0.930 . S
C774 C775 1.355 . S
C774 C776 1.415 . S
C775 C774 1.355 . S
C775 C777 1.419 . S
C776 C774 1.415 . S
C776 C781 1.425 . S
C776 C783 1.409 . S
C777 H769 0.930 . S
C777 C775 1.419 . S
C777 C778 1.362 . S
C778 H770 0.930 . S
C778 C777 1.362 . S
C778 C781 1.409 . S
C779 H771 0.930 . S
C779 C780 1.355 . S
C779 C781 1.415 . S
C780 C779 1.355 . S
C780 C782 1.419 . S
C781 C776 1.425 . S
C781 C778 1.409 . S
C781 C779 1.415 . S
C782 H772 0.930 . S
C782 C780 1.419 . S
C782 C783 1.362 . S
C783 H773 0.930 . S
C783 C776 1.409 . S
C783 C782 1.362 . S
H784 C790 0.930 . S
H785 C793 0.930 . S
H786 C794 0.930 . S
H787 C795 0.930 . S
H788 C798 0.930 . S
H789 C799 0.930 . S
C790 H784 0.930 . S
C790 C791 1.355 . S
C790 C792 1.415 . S
C791 C790 1.355 . S
C791 C793 1.419 . S
C792 C790 1.415 . S
C792 C797 1.425 . S
C792 C799 1.409 . S
C793 H785 0.930 . S
C793 C791 1.419 . S
C793 C794 1.362 . S
C794 H786 0.930 . S
C794 C793 1.362 . S
C794 C797 1.409 . S
C795 H787 0.930 . S
C795 C796 1.355 . S
C795 C797 1.415 . S
C796 C795 1.355 . S
C796 C798 1.419 . S
C797 C792 1.425 . S
C797 C794 1.409 . S
C797 C795 1.415 . S
C798 H788 0.930 . S
C798 C796 1.419 . S
C798 C799 1.362 . S
C799 H789 0.930 . S
C799 C792 1.409 . S
C799 C798 1.362 . S
H800 C806 0.930 . S
H801 C809 0.930 . S
H802 C810 0.930 . S
H803 C811 0.930 . S
H804 C814 0.930 . S
H805 C815 0.930 . S
C806 H800 0.930 . S
C806 C807 1.355 . S
C806 C808 1.415 . S
C807 C806 1.355 . S
C807 C809 1.419 . S
C808 C806 1.415 . S
C808 C813 1.425 . S
C808 C815 1.409 . S
C809 H801 0.930 . S
C809 C807 1.419 . S
C809 C810 1.362 . S
C810 H802 0.930 . S
C810 C809 1.362 . S
C810 C813 1.409 . S
C811 H803 0.930 . S
C811 C812 1.355 . S
C811 C813 1.415 . S
C812 C811 1.355 . S
C812 C814 1.419 . S
C813 C808 1.425 . S
C813 C810 1.409 . S
C813 C811 1.415 . S
C814 H804 0.930 . S
C814 C812 1.419 . S
C814 C815 1.362 . S
C815 H805 0.930 . S
C815 C808 1.409 . S
C815 C814 1.362 . S
H816 C822 0.930 . S
H817 C825 0.930 . S
H818 C826 0.930 . S
H819 C827 0.930 . S
H820 C830 0.930 . S
H821 C831 0.930 . S
C822 H816 0.930 . S
C822 C823 1.355 . S
C822 C824 1.415 . S
C823 C822 1.355 . S
C823 C825 1.419 1_565 S
C824 C822 1.415 . S
C824 C829 1.425 . S
C824 C831 1.409 . S
C825 H817 0.930 . S
C825 C823 1.419 1_545 S
C825 C826 1.362 . S
C826 H818 0.930 . S
C826 C825 1.362 . S
C826 C829 1.409 1_545 S
C827 H819 0.930 . S
C827 C828 1.355 . S
C827 C829 1.415 . S
C828 C827 1.355 . S
C828 C830 1.419 . S
C829 C824 1.425 . S
C829 C826 1.409 1_565 S
C829 C827 1.415 . S
C830 H820 0.930 . S
C830 C828 1.419 . S
C830 C831 1.362 . S
C831 H821 0.930 . S
C831 C824 1.409 . S
C831 C830 1.362 . S
H832 C838 0.930 . S
H833 C841 0.930 1_554 S
H834 C842 0.930 . S
H835 C843 0.930 . S
H836 C846 0.930 . S
H837 C847 0.930 . S
C838 H832 0.930 . S
C838 C839 1.355 . S
C838 C840 1.415 . S
C839 C838 1.355 . S
C839 C841 1.419 . S
C840 C838 1.415 . S
C840 C845 1.425 . S
C840 C847 1.409 . S
C841 H833 0.930 1_556 S
C841 C839 1.419 . S
C841 C842 1.362 . S
C842 H834 0.930 . S
C842 C841 1.362 . S
C842 C845 1.409 . S
C843 H835 0.930 . S
C843 C844 1.355 . S
C843 C845 1.415 . S
C844 C843 1.355 . S
C844 C846 1.419 . S
C845 C840 1.425 . S
C845 C842 1.409 . S
C845 C843 1.415 . S
C846 H836 0.930 . S
C846 C844 1.419 . S
C846 C847 1.362 . S
C847 H837 0.930 . S
C847 C840 1.409 . S
C847 C846 1.362 . S
H848 C854 0.930 . S
H849 C857 0.930 . S
H850 C858 0.930 . S
H851 C859 0.930 . S
H852 C862 0.930 . S
H853 C863 0.930 . S
C854 H848 0.930 . S
C854 C855 1.355 . S
C854 C856 1.415 . S
C855 C854 1.355 . S
C855 C857 1.419 . S
C856 C854 1.415 . S
C856 C861 1.425 . S
C856 C863 1.409 . S
C857 H849 0.930 . S
C857 C855 1.419 . S
C857 C858 1.362 . S
C858 H850 0.930 . S
C858 C857 1.362 . S
C858 C861 1.409 . S
C859 H851 0.930 . S
C859 C860 1.355 . S
C859 C861 1.415 . S
C860 C859 1.355 . S
C860 C862 1.419 . S
C861 C856 1.425 . S
C861 C858 1.409 . S
C861 C859 1.415 . S
C862 H852 0.930 . S
C862 C860 1.419 . S
C862 C863 1.362 . S
C863 H853 0.930 . S
C863 C856 1.409 . S
C863 C862 1.362 . S
H864 C870 0.930 . S
H865 C873 0.930 . S
H866 C874 0.930 . S
H867 C875 0.930 . S
H868 C878 0.930 . S
H869 C879 0.930 . S
C870 H864 0.930 . S
C870 C871 1.355 . S
C870 C872 1.415 . S
C871 C870 1.355 . S
C871 C873 1.419 . S
C872 C870 1.415 . S
C872 C877 1.425 . S
C872 C879 1.409 . S
C873 H865 0.930 . S
C873 C871 1.419 . S
C873 C874 1.362 . S
C874 H866 0.930 . S
C874 C873 1.362 . S
C874 C877 1.409 . S
C875 H867 0.930 . S
C875 C876 1.355 . S
C875 C877 1.415 . S
C876 C875 1.355 . S
C876 C878 1.419 . S
C877 C872 1.425 . S
C877 C874 1.409 . S
C877 C875 1.415 . S
C878 H868 0.930 . S
C878 C876 1.419 . S
C878 C879 1.362 . S
C879 H869 0.930 . S
C879 C872 1.409 . S
C879 C878 1.362 . S
H880 C886 0.930 . S
H881 C889 0.930 . S
H882 C890 0.930 . S
H883 C891 0.930 . S
H884 C894 0.930 . S
H885 C895 0.930 . S
C886 H880 0.930 . S
C886 C887 1.355 . S
C886 C888 1.415 . S
C887 C886 1.355 . S
C887 C889 1.419 . S
C888 C886 1.415 . S
C888 C893 1.425 . S
C888 C895 1.409 . S
C889 H881 0.930 . S
C889 C887 1.419 . S
C889 C890 1.362 . S
C890 H882 0.930 . S
C890 C889 1.362 . S
C890 C893 1.409 . S
C891 H883 0.930 . S
C891 C892 1.355 . S
C891 C893 1.415 . S
C892 C891 1.355 . S
C892 C894 1.419 . S
C893 C888 1.425 . S
C893 C890 1.409 . S
C893 C891 1.415 . S
C894 H884 0.930 . S
C894 C892 1.419 . S
C894 C895 1.362 . S
C895 H885 0.930 . S
C895 C888 1.409 . S
C895 C894 1.362 . S
H896 C902 0.930 . S
H897 C905 0.930 . S
H898 C906 0.930 . S
H899 C907 0.930 . S
H900 C910 0.930 . S
H901 C911 0.930 . S
C902 H896 0.930 . S
C902 C903 1.355 . S
C902 C904 1.415 . S
C903 C902 1.355 . S
C903 C905 1.419 . S
C904 C902 1.415 . S
C904 C909 1.425 . S
C904 C911 1.409 . S
C905 H897 0.930 . S
C905 C903 1.419 . S
C905 C906 1.362 . S
C906 H898 0.930 . S
C906 C905 1.362 . S
C906 C909 1.409 . S
C907 H899 0.930 . S
C907 C908 1.355 . S
C907 C909 1.415 . S
C908 C907 1.355 . S
C908 C910 1.419 . S
C909 C904 1.425 . S
C909 C906 1.409 . S
C909 C907 1.415 . S
C910 H900 0.930 . S
C910 C908 1.419 . S
C910 C911 1.362 . S
C911 H901 0.930 . S
C911 C904 1.409 . S
C911 C910 1.362 . S
H912 C918 0.930 . S
H913 C921 0.930 . S
H914 C922 0.930 . S
H915 C923 0.930 . S
H916 C926 0.930 . S
H917 C927 0.930 . S
C918 H912 0.930 . S
C918 C919 1.355 . S
C918 C920 1.415 . S
C919 C918 1.355 . S
C919 C921 1.419 . S
C920 C918 1.415 . S
C920 C925 1.425 . S
C920 C927 1.409 . S
C921 H913 0.930 . S
C921 C919 1.419 . S
C921 C922 1.362 . S
C922 H914 0.930 . S
C922 C921 1.362 . S
C922 C925 1.409 . S
C923 H915 0.930 . S
C923 C924 1.355 . S
C923 C925 1.415 . S
C924 C923 1.355 . S
C924 C926 1.419 . S
C925 C920 1.425 . S
C925 C922 1.409 . S
C925 C923 1.415 . S
C926 H916 0.930 . S
C926 C924 1.419 . S
C926 C927 1.362 . S
C927 H917 0.930 . S
C927 C920 1.409 . S
C927 C926 1.362 . S
H928 C934 0.930 . S
H929 C937 0.930 . S
H930 C938 0.930 . S
H931 C939 0.930 . S
H932 C942 0.930 . S
H933 C943 0.930 . S
C934 H928 0.930 . S
C934 C935 1.355 . S
C934 C936 1.415 . S
C935 C934 1.355 . S
C935 C937 1.419 . S
C936 C934 1.415 . S
C936 C941 1.425 . S
C936 C943 1.409 . S
C937 H929 0.930 . S
C937 C935 1.419 . S
C937 C938 1.362 . S
C938 H930 0.930 . S
C938 C937 1.362 . S
C938 C941 1.409 . S
C939 H931 0.930 . S
C939 C940 1.355 . S
C939 C941 1.415 . S
C940 C939 1.355 . S
C940 C942 1.419 . S
C941 C936 1.425 . S
C941 C938 1.409 . S
C941 C939 1.415 . S
C942 H932 0.930 . S
C942 C940 1.419 . S
C942 C943 1.362 . S
C943 H933 0.930 . S
C943 C936 1.409 . S
C943 C942 1.362 . S
H944 C950 0.930 . S
H945 C953 0.930 . S
H946 C954 0.930 . S
H947 C955 0.930 . S
H948 C958 0.930 . S
H949 C959 0.930 . S
C950 H944 0.930 . S
C950 C951 1.355 . S
C950 C952 1.415 . S
C951 C950 1.355 . S
C951 C953 1.419 . S
C952 C950 1.415 . S
C952 C957 1.425 . S
C952 C959 1.409 . S
C953 H945 0.930 . S
C953 C951 1.419 . S
C953 C954 1.362 . S
C954 H946 0.930 . S
C954 C953 1.362 . S
C954 C957 1.409 . S
C955 H947 0.930 . S
C955 C956 1.355 . S
C955 C957 1.415 . S
C956 C955 1.355 . S
C956 C958 1.419 . S
C957 C952 1.425 . S
C957 C954 1.409 . S
C957 C955 1.415 . S
C958 H948 0.930 . S
C958 C956 1.419 . S
C958 C959 1.362 . S
C959 H949 0.930 . S
C959 C952 1.409 . S
C959 C958 1.362 . S
H960 C966 0.930 . S
H961 C969 0.930 . S
H962 C970 0.930 . S
H963 C971 0.930 . S
H964 C974 0.930 . S
H965 C975 0.930 . S
C966 H960 0.930 . S
C966 C967 1.355 . S
C966 C968 1.415 . S
C967 C966 1.355 . S
C967 C969 1.419 . S
C968 C966 1.415 . S
C968 C973 1.425 . S
C968 C975 1.409 . S
C969 H961 0.930 . S
C969 C967 1.419 . S
C969 C970 1.362 . S
C970 H962 0.930 . S
C970 C969 1.362 . S
C970 C973 1.409 . S
C971 H963 0.930 . S
C971 C972 1.355 . S
C971 C973 1.415 . S
C972 C971 1.355 . S
C972 C974 1.419 . S
C973 C968 1.425 . S
C973 C970 1.409 . S
C973 C971 1.415 . S
C974 H964 0.930 . S
C974 C972 1.419 . S
C974 C975 1.362 . S
C975 H965 0.930 . S
C975 C968 1.409 . S
C975 C974 1.362 . S
H976 C982 0.930 . S
H977 C985 0.930 . S
H978 C986 0.930 . S
H979 C987 0.930 . S
H980 C990 0.930 . S
H981 C991 0.930 . S
C982 H976 0.930 . S
C982 C983 1.355 . S
C982 C984 1.415 . S
C983 C982 1.355 . S
C983 C985 1.419 . S
C984 C982 1.415 . S
C984 C989 1.425 . S
C984 C991 1.409 1_565 S
C985 H977 0.930 . S
C985 C983 1.419 . S
C985 C986 1.362 . S
C986 H978 0.930 . S
C986 C985 1.362 . S
C986 C989 1.409 . S
C987 H979 0.930 . S
C987 C988 1.355 1_565 S
C987 C989 1.415 . S
C988 C987 1.355 1_545 S
C988 C990 1.419 . S
C989 C984 1.425 . S
C989 C986 1.409 . S
C989 C987 1.415 . S
C990 H980 0.930 . S
C990 C988 1.419 . S
C990 C991 1.362 . S
C991 H981 0.930 . S
C991 C984 1.409 1_545 S
C991 C990 1.362 . S
H992 C998 0.930 . S
H993 C1001 0.930 . S
H994 C1002 0.930 . S
H995 C1003 0.930 1_554 S
H996 C1006 0.930 . S
H997 C1007 0.930 . S
C998 H992 0.930 . S
C998 C999 1.355 . S
C998 C1000 1.415 . S
C999 C998 1.355 . S
C999 C1001 1.419 . S
C1000 C998 1.415 . S
C1000 C1005 1.425 . S
C1000 C1007 1.409 . S
C1001 H993 0.930 . S
C1001 C999 1.419 . S
C1001 C1002 1.362 . S
C1002 H994 0.930 . S
C1002 C1001 1.362 . S
C1002 C1005 1.409 . S
C1003 H995 0.930 1_556 S
C1003 C1004 1.355 . S
C1003 C1005 1.415 . S
C1004 C1003 1.355 . S
C1004 C1006 1.419 . S
C1005 C1000 1.425 . S
C1005 C1002 1.409 . S
C1005 C1003 1.415 . S
C1006 H996 0.930 . S
C1006 C1004 1.419 . S
C1006 C1007 1.362 . S
C1007 H997 0.930 . S
C1007 C1000 1.409 . S
C1007 C1006 1.362 . S
H1008 C1014 0.930 . S
H1009 C1017 0.930 . S
H1010 C1018 0.930 . S
H1011 C1019 0.930 . S
H1012 C1022 0.930 . S
H1013 C1023 0.930 . S
C1014 H1008 0.930 . S
C1014 C1015 1.355 1_545 S
C1014 C1016 1.415 . S
C1015 C1014 1.355 1_565 S
C1015 C1017 1.419 . S
C1016 C1014 1.415 . S
C1016 C1021 1.425 . S
C1016 C1023 1.409 . S
C1017 H1009 0.930 . S
C1017 C1015 1.419 . S
C1017 C1018 1.362 . S
C1018 H1010 0.930 . S
C1018 C1017 1.362 . S
C1018 C1021 1.409 1_565 S
C1019 H1011 0.930 . S
C1019 C1020 1.355 . S
C1019 C1021 1.415 . S
C1020 C1019 1.355 . S
C1020 C1022 1.419 . S
C1021 C1016 1.425 . S
C1021 C1018 1.409 1_545 S
C1021 C1019 1.415 . S
C1022 H1012 0.930 . S
C1022 C1020 1.419 . S
C1022 C1023 1.362 . S
C1023 H1013 0.930 . S
C1023 C1016 1.409 . S
C1023 C1022 1.362 . S
H1024 C1030 0.930 . S
H1025 C1033 0.930 . S
H1026 C1034 0.930 . S
H1027 C1035 0.930 . S
H1028 C1038 0.930 . S
H1029 C1039 0.930 . S
C1030 H1024 0.930 . S
C1030 C1031 1.355 . S
C1030 C1032 1.415 . S
C1031 C1030 1.355 . S
C1031 C1033 1.419 . S
C1032 C1030 1.415 . S
C1032 C1037 1.425 . S
C1032 C1039 1.409 . S
C1033 H1025 0.930 . S
C1033 C1031 1.419 . S
C1033 C1034 1.362 . S
C1034 H1026 0.930 . S
C1034 C1033 1.362 . S
C1034 C1037 1.409 . S
C1035 H1027 0.930 . S
C1035 C1036 1.355 . S
C1035 C1037 1.415 . S
C1036 C1035 1.355 . S
C1036 C1038 1.419 . S
C1037 C1032 1.425 . S
C1037 C1034 1.409 . S
C1037 C1035 1.415 . S
C1038 H1028 0.930 . S
C1038 C1036 1.419 . S
C1038 C1039 1.362 . S
C1039 H1029 0.930 . S
C1039 C1032 1.409 . S
C1039 C1038 1.362 . S
H1040 C1046 0.930 . S
H1041 C1049 0.930 . S
H1042 C1050 0.930 . S
H1043 C1051 0.930 . S
H1044 C1054 0.930 . S
H1045 C1055 0.930 . S
C1046 H1040 0.930 . S
C1046 C1047 1.355 . S
C1046 C1048 1.415 . S
C1047 C1046 1.355 . S
C1047 C1049 1.419 . S
C1048 C1046 1.415 . S
C1048 C1053 1.425 . S
C1048 C1055 1.409 . S
C1049 H1041 0.930 . S
C1049 C1047 1.419 . S
C1049 C1050 1.362 . S
C1050 H1042 0.930 . S
C1050 C1049 1.362 . S
C1050 C1053 1.409 . S
C1051 H1043 0.930 . S
C1051 C1052 1.355 1_545 S
C1051 C1053 1.415 . S
C1052 C1051 1.355 1_565 S
C1052 C1054 1.419 . S
C1053 C1048 1.425 . S
C1053 C1050 1.409 . S
C1053 C1051 1.415 . S
C1054 H1044 0.930 . S
C1054 C1052 1.419 . S
C1054 C1055 1.362 1_565 S
C1055 H1045 0.930 . S
C1055 C1048 1.409 . S
C1055 C1054 1.362 1_545 S
H1056 C1062 0.930 . S
H1057 C1065 0.930 . S
H1058 C1066 0.930 . S
H1059 C1067 0.930 . S
H1060 C1070 0.930 . S
H1061 C1071 0.930 . S
C1062 H1056 0.930 . S
C1062 C1063 1.355 . S
C1062 C1064 1.415 . S
C1063 C1062 1.355 . S
C1063 C1065 1.419 . S
C1064 C1062 1.415 . S
C1064 C1069 1.425 . S
C1064 C1071 1.409 . S
C1065 H1057 0.930 . S
C1065 C1063 1.419 . S
C1065 C1066 1.362 . S
C1066 H1058 0.930 . S
C1066 C1065 1.362 . S
C1066 C1069 1.409 . S
C1067 H1059 0.930 . S
C1067 C1068 1.355 . S
C1067 C1069 1.415 . S
C1068 C1067 1.355 . S
C1068 C1070 1.419 1_554 S
C1069 C1064 1.425 . S
C1069 C1066 1.409 . S
C1069 C1067 1.415 . S
C1070 H1060 0.930 . S
C1070 C1068 1.419 1_556 S
C1070 C1071 1.362 1_556 S
C1071 H1061 0.930 . S
C1071 C1064 1.409 . S
C1071 C1070 1.362 1_554 S
H1072 C1078 0.930 . S
H1073 C1081 0.930 . S
H1074 C1082 0.930 . S
H1075 C1083 0.930 . S
H1076 C1086 0.930 . S
H1077 C1087 0.930 . S
C1078 H1072 0.930 . S
C1078 C1079 1.355 . S
C1078 C1080 1.415 . S
C1079 C1078 1.355 . S
C1079 C1081 1.419 . S
C1080 C1078 1.415 . S
C1080 C1085 1.425 . S
C1080 C1087 1.409 1_565 S
C1081 H1073 0.930 . S
C1081 C1079 1.419 . S
C1081 C1082 1.362 . S
C1082 H1074 0.930 . S
C1082 C1081 1.362 . S
C1082 C1085 1.409 . S
C1083 H1075 0.930 . S
C1083 C1084 1.355 1_565 S
C1083 C1085 1.415 . S
C1084 C1083 1.355 1_545 S
C1084 C1086 1.419 . S
C1085 C1080 1.425 . S
C1085 C1082 1.409 . S
C1085 C1083 1.415 . S
C1086 H1076 0.930 . S
C1086 C1084 1.419 . S
C1086 C1087 1.362 . S
C1087 H1077 0.930 . S
C1087 C1080 1.409 1_545 S
C1087 C1086 1.362 . S
C327 C8 1.128 . S
C332 C208 1.141 . S
C343 C28 1.130 . S
C348 C228 1.148 . S
C359 C48 1.200 . S
C364 C168 1.205 . S
C375 C188 1.171 . S
C380 C68 1.144 . S
C391 C89 1.128 . S
C396 C289 1.139 . S
C407 C309 1.180 . S
C412 C109 1.152 . S
C423 C249 1.139 . S
C428 C129 1.128 . S
C439 C149 1.165 . S
C444 C269 1.139 . S
C455 C1 1.471 1_565 S
C460 C82 1.471 1_545 S
C471 C21 1.414 . S
C476 C262 1.414 . S
C487 C41 1.476 . S
C492 C122 1.476 . S
C503 C61 1.511 . S
C508 C302 1.511 . S
C519 C102 1.510 . S
C524 C181 1.510 . S
C535 C221 1.509 . S
C540 C142 1.509 . S
C551 C242 1.409 . S
C556 C161 1.408 . S
C567 C201 1.418 . S
C572 C282 1.418 . S
C583 C2 1.041 . S
C588 C148 1.159 . S
C599 C22 1.145 . S
C604 C248 1.150 . S
C615 C42 1.086 . S
C620 C108 1.150 . S
C631 C62 1.166 . S
C636 C288 1.157 . S
C647 C69 1.178 . S
C652 C81 1.066 . S
C663 C101 1.040 . S
C668 C169 1.178 . S
C679 C121 1.052 . S
C684 C29 1.178 . S
C695 C209 1.175 . S
C700 C141 1.043 . S
C711 C162 1.048 . S
C716 C308 1.157 . S
C727 C88 1.174 . S
C732 C182 1.120 . S
C743 C268 1.151 . S
C748 C202 1.080 . S
C759 C128 1.151 . S
C764 C222 1.149 . S
C775 C241 1.133 . S
C780 C229 1.148 . S
C791 C261 1.039 . S
C796 C9 1.169 . S
C807 C189 1.177 . S
C812 C281 1.034 . S
C823 C301 1.083 . S
C828 C49 1.177 . S
C839 C19 2.428 1_556 S
C844 C198 2.476 . S
C855 C218 2.476 . S
C860 C39 2.428 . S
C871 C59 2.441 . S
C876 C238 2.487 . S
C887 C178 2.503 . S
C892 C79 2.463 . S
C903 C279 2.501 . S
C908 C98 2.459 1_554 S
C919 C299 2.460 . S
C924 C118 2.412 . S
C935 C319 2.501 . S
C940 C138 2.462 . S
C951 C259 2.480 . S
C956 C158 2.433 . S
C967 C38 2.504 . S
C972 C179 2.463 . S
C983 C58 2.499 . S
C988 C199 2.459 . S
C999 C78 2.504 . S
C1004 C219 2.464 1_556 S
C1015 C239 2.444 . S
C1020 C18 2.485 . S
C1031 C119 2.490 . S
C1036 C258 2.449 . S
C1047 C139 2.467 . S
C1052 C278 2.421 . S
C1063 C159 2.463 . S
C1068 C298 2.413 1_554 S
C1079 C99 2.499 . S
C1084 C318 2.460 . S
