# Generated by pormake.
# Topology unj, (4)-cn, num edge types: 1
# Building blocks:
#     Node 0, Type 0, BuildingBlock: TATPOV_clean_sbu_0, # of connection points: 4
#     Node 1, Type 0, BuildingBlock: TATPOV_clean_sbu_0, # of connection points: 4
#     Node 2, Type 0, BuildingBlock: TATPOV_clean_sbu_0, # of connection points: 4
#     Node 3, Type 0, BuildingBlock: TATPOV_clean_sbu_0, # of connection points: 4
#     Node 4, Type 0, BuildingBlock: TATPOV_clean_sbu_0, # of connection points: 4
#     Node 5, Type 0, BuildingBlock: TATPOV_clean_sbu_0, # of connection points: 4
#     Edge 6, Type (0, 0), BuildingBlock: CIFDUS_clean_linker_0, # of connection points: 2
#     Edge 7, Type (0, 0), BuildingBlock: CIFDUS_clean_linker_0, # of connection points: 2
#     Edge 8, Type (0, 0), BuildingBlock: CIFDUS_clean_linker_0, # of connection points: 2
#     Edge 9, Type (0, 0), BuildingBlock: CIFDUS_clean_linker_0, # of connection points: 2
#     Edge 10, Type (0, 0), BuildingBlock: CIFDUS_clean_linker_0, # of connection points: 2
#     Edge 11, Type (0, 0), BuildingBlock: CIFDUS_clean_linker_0, # of connection points: 2
#     Edge 12, Type (0, 0), BuildingBlock: CIFDUS_clean_linker_0, # of connection points: 2
#     Edge 13, Type (0, 0), BuildingBlock: CIFDUS_clean_linker_0, # of connection points: 2
#     Edge 14, Type (0, 0), BuildingBlock: CIFDUS_clean_linker_0, # of connection points: 2
#     Edge 15, Type (0, 0), BuildingBlock: CIFDUS_clean_linker_0, # of connection points: 2
#     Edge 16, Type (0, 0), BuildingBlock: CIFDUS_clean_linker_0, # of connection points: 2
#     Edge 17, Type (0, 0), BuildingBlock: CIFDUS_clean_linker_0, # of connection points: 2
# Relax obj value: 0.021
# Max RMSD: 0.060
# Mean RMSD: 0.060
data_MOF--net-unj--node1-TATPOV_clean_sbu_0--edge1-CIFDUS_clean_linker_0
_symmetry_space_group_name_H-M    P1
_symmetry_Int_Tables_number       1
_symmetry_cell_setting            triclinic
loop_
_symmetry_equiv_pos_as_xyz
'x, y, z'
_cell_length_a     30.23764
_cell_length_b     30.437714
_cell_length_c     30.2114
_cell_angle_alpha  89.7833
_cell_angle_beta   90.306279
_cell_angle_gamma 120.59478
loop_
_atom_site_label
_atom_site_type_symbol
_atom_site_fract_x
_atom_site_fract_y
_atom_site_fract_z
_atom_type_partial_charge
Zn0 Zn 0.39134 0.13441 0.68541 0.0
Zn1 Zn 0.45005 0.1773 0.61665 0.0
O2 O 0.41167 0.21703 0.62424 0.0
O3 O 0.35549 0.17381 0.67646 0.0
O4 O 0.49497 0.21419 0.56397 0.0
O5 O 0.36126 0.06612 0.65725 0.0
O6 O 0.40327 0.1022 0.59592 0.0
C7 C 0.37367 0.20925 0.64803 0.0
C8 C 0.49678 0.18128 0.70901 0.0
O9 O 0.50213 0.18873 0.66726 0.0
O10 O 0.45234 0.16005 0.72579 0.0
C11 C 0.53068 0.25968 0.57163 0.0
O12 O 0.5367 0.27719 0.61225 0.0
C13 C 0.37073 0.06248 0.61714 0.0
Zn14 Zn 0.29055 0.43629 0.79971 0.0
Zn15 Zn 0.25796 0.47506 0.73807 0.0
O16 O 0.19137 0.42617 0.77157 0.0
O17 O 0.21814 0.39238 0.82175 0.0
O18 O 0.23127 0.50239 0.69069 0.0
O19 O 0.31881 0.4097 0.75483 0.0
O20 O 0.28983 0.43946 0.70258 0.0
C21 C 0.18198 0.39585 0.80403 0.0
C22 C 0.33519 0.54397 0.8093 0.0
O23 O 0.30726 0.5388 0.77563 0.0
O24 O 0.33547 0.50564 0.8253 0.0
C25 C 0.24991 0.51638 0.65209 0.0
O26 O 0.2911 0.51491 0.64105 0.0
C27 C 0.313 0.41611 0.71437 0.0
Zn28 Zn 0.86077 0.26765 0.99973 0.0
Zn29 Zn 0.79767 0.26332 0.93613 0.0
O30 O 0.76484 0.18862 0.95738 0.0
O31 O 0.81386 0.19328 0.01332 0.0
O32 O 0.74684 0.25727 0.88923 0.0
O33 O 0.91595 0.28713 0.95493 0.0
O34 O 0.86688 0.29085 0.90263 0.0
C35 C 0.77514 0.1671 0.98875 0.0
C36 C 0.82067 0.33234 0.01805 0.0
O37 O 0.79498 0.31188 0.98283 0.0
O38 O 0.85382 0.32177 0.03165 0.0
C39 C 0.70119 0.24034 0.90265 0.0
O40 O 0.69137 0.23003 0.94497 0.0
C41 C 0.90969 0.29608 0.91517 0.0
Zn42 Zn 0.55037 0.82829 0.16209 0.0
Zn43 Zn 0.51749 0.78173 0.08835 0.0
O44 O 0.53772 0.73547 0.12297 0.0
O45 O 0.55374 0.77016 0.18915 0.0
O46 O 0.49609 0.74453 0.03029 0.0
O47 O 0.61222 0.88716 0.13516 0.0
O48 O 0.57598 0.85468 0.07088 0.0
C49 C 0.54804 0.73468 0.16381 0.0
C50 C 0.44672 0.80026 0.14678 0.0
O51 O 0.45165 0.77655 0.1142 0.0
O52 O 0.48552 0.82969 0.17011 0.0
C53 C 0.47181 0.74973 0.99815 0.0
O54 O 0.45695 0.78336 1.00079 0.0
C55 C 0.61166 0.89074 0.09351 0.0
Zn56 Zn 0.67647 0.53588 0.33008 0.0
Zn57 Zn 0.68715 0.48605 0.2687 0.0
O58 O 0.76257 0.53999 0.28572 0.0
O59 O 0.75031 0.59004 0.32973 0.0
O60 O 0.69475 0.44681 0.21795 0.0
O61 O 0.6265 0.54733 0.29712 0.0
O62 O 0.64725 0.51813 0.23937 0.0
C63 C 0.78063 0.58046 0.309 0.0
C64 C 0.64234 0.43612 0.35906 0.0
O65 O 0.64966 0.43063 0.31831 0.0
O66 O 0.65316 0.47943 0.37335 0.0
C67 C 0.73265 0.46842 0.19156 0.0
O68 O 0.76712 0.51684 0.19731 0.0
C69 C 0.62409 0.53946 0.25591 0.0
Zn70 Zn 0.11809 0.7127 0.46882 0.0
Zn71 Zn 0.18011 0.73059 0.40214 0.0
O72 O 0.21154 0.80007 0.4343 0.0
O73 O 0.16284 0.78285 0.49308 0.0
O74 O 0.22912 0.7509 0.35131 0.0
O75 O 0.06036 0.69785 0.42746 0.0
O76 O 0.10915 0.70225 0.37176 0.0
C77 C 0.2016 0.81402 0.47078 0.0
C78 C 0.16632 0.65234 0.4726 0.0
O79 O 0.18987 0.67836 0.43841 0.0
O80 O 0.13131 0.65771 0.48994 0.0
C81 C 0.22097 0.73228 0.3125 0.0
O82 O 0.17607 0.69256 0.30239 0.0
C83 C 0.06601 0.69337 0.3866 0.0
H84 H 0.36622 0.03944 0.5286 0.0
H85 H 0.30655 0.97211 0.65676 0.0
H86 H 0.24888 0.89072 0.62234 0.0
H87 H 0.21284 0.83902 0.55674 0.0
H88 H 0.27242 0.90179 0.42778 0.0
H89 H 0.3325 0.98463 0.46162 0.0
C90 C 0.34099 0.00679 0.54893 0.0
C91 C 0.34054 0.01223 0.5952 0.0
C92 C 0.30745 0.95944 0.52885 0.0
C93 C 0.3076 0.96941 0.62108 0.0
C94 C 0.27438 0.92268 0.60146 0.0
C95 C 0.23867 0.87087 0.53586 0.0
C96 C 0.23764 0.86461 0.48982 0.0
C97 C 0.27343 0.9175 0.55547 0.0
C98 C 0.27226 0.90589 0.46337 0.0
C99 C 0.30663 0.95314 0.48271 0.0
H100 H 0.42494 0.31208 0.63605 0.0
H101 H 0.27364 0.18106 0.65468 0.0
H102 H 0.23844 0.23662 0.66604 0.0
H103 H 0.25389 0.32121 0.6853 0.0
H104 H 0.4064 0.45192 0.67631 0.0
H105 H 0.43805 0.39857 0.64552 0.0
C106 C 0.38408 0.29594 0.64131 0.0
C107 C 0.35189 0.24278 0.64501 0.0
C108 C 0.36452 0.32825 0.64983 0.0
C109 C 0.29909 0.222 0.65222 0.0
C110 C 0.27899 0.25371 0.65876 0.0
C111 C 0.29352 0.33814 0.6747 0.0
C112 C 0.32776 0.39014 0.68218 0.0
C113 C 0.31173 0.30676 0.65969 0.0
C114 C 0.37939 0.41195 0.66985 0.0
C115 C 0.39751 0.38132 0.65288 0.0
H116 H -0.01436 0.27526 0.92186 0.0
H117 H 0.93122 0.35404 0.8394 0.0
H118 H 0.00977 0.38929 0.79478 0.0
H119 H 0.09738 0.4033 0.78393 0.0
H120 H 0.14941 0.32335 0.86819 0.0
H121 H 0.06805 0.28278 0.9072 0.0
C122 C -0.00927 0.29993 0.89394 0.0
C123 C 0.95316 0.31273 0.88432 0.0
C124 C 0.03569 0.32002 0.86891 0.0
C125 C 0.95978 0.34381 0.84752 0.0
C126 C 0.00475 0.36411 0.82219 0.0
C127 C 0.09063 0.37652 0.81045 0.0
C128 C 0.12987 0.36701 0.82344 0.0
C129 C 0.04353 0.35335 0.83324 0.0
C130 C 0.1203 0.33193 0.85774 0.0
C131 C 0.07371 0.30864 0.88017 0.0
H132 H 0.60165 0.93726 0.0199 0.0
H133 H 0.70942 0.95189 0.12125 0.0
H134 H 0.77115 0.0374 0.09515 0.0
H135 H 0.79128 0.11051 0.04868 0.0
H136 H 0.68306 0.09951 0.94925 0.0
H137 H 0.62484 0.01007 0.96928 0.0
C138 C 0.63908 0.95891 0.03557 0.0
C139 C 0.651 0.93852 0.0725 0.0
C140 C 0.67396 0.00888 0.02118 0.0
C141 C 0.69934 0.96701 0.09291 0.0
C142 C 0.73459 0.01592 0.07811 0.0
C143 C 0.75512 0.0886 0.03109 0.0
C144 C 0.74135 0.1119 0.99786 0.0
C145 C 0.72173 0.03771 0.04314 0.0
C146 C 0.69452 0.08262 0.97517 0.0
C147 C 0.66119 0.03147 0.98663 0.0
H148 H 0.56325 0.57458 0.28294 0.0
H149 H 0.63376 0.557 0.16583 0.0
H150 H 0.61114 0.61244 0.1245 0.0
H151 H 0.58157 0.67539 0.12518 0.0
H152 H 0.51912 0.69677 0.24592 0.0
H153 H 0.52866 0.63072 0.28232 0.0
C154 C 0.57313 0.58218 0.24816 0.0
C155 C 0.60082 0.56231 0.2277 0.0
C156 C 0.5622 0.61563 0.22546 0.0
C157 C 0.61251 0.57192 0.18244 0.0
C158 C 0.60004 0.60404 0.15893 0.0
C159 C 0.56959 0.66498 0.15926 0.0
C160 C 0.55043 0.69137 0.18309 0.0
C161 C 0.57657 0.62767 0.18061 0.0
C162 C 0.53487 0.67763 0.22718 0.0
C163 C 0.54007 0.63971 0.24799 0.0
H164 H -0.00104 0.72584 0.38744 0.0
H165 H 0.03237 0.62087 0.32162 0.0
H166 H 0.94714 0.57895 0.28632 0.0
H167 H 0.85885 0.56515 0.28363 0.0
H168 H 0.82828 0.67231 0.35025 0.0
H169 H 0.91686 0.72082 0.37514 0.0
C170 C -0.01212 0.69447 0.36456 0.0
C171 C 0.02111 0.67584 0.35742 0.0
C172 C 0.93916 0.67065 0.34495 0.0
C173 C 0.00706 0.63569 0.32744 0.0
C174 C 0.95827 0.61155 0.30762 0.0
C175 C 0.87189 0.59966 0.30283 0.0
C176 C 0.83656 0.61424 0.31597 0.0
C177 C 0.92325 0.62755 0.31751 0.0
C178 C 0.85426 0.65949 0.34038 0.0
C179 C 0.90501 0.6874 0.35471 0.0
H180 H 0.51891 0.24288 0.48178 0.0
H181 H 0.61251 0.3554 0.58007 0.0
H182 H 0.65782 0.41789 0.52224 0.0
H183 H 0.666 0.44329 0.44511 0.0
H184 H 0.5741 0.33359 0.34494 0.0
H185 H 0.53347 0.26697 0.40206 0.0
C186 C 0.54967 0.28087 0.49043 0.0
C187 C 0.56172 0.29456 0.53535 0.0
C188 C 0.57565 0.31716 0.45676 0.0
C189 C 0.60191 0.34388 0.54594 0.0
C190 C 0.62794 0.37977 0.51286 0.0
C191 C 0.63732 0.40466 0.43564 0.0
C192 C 0.62241 0.39343 0.39107 0.0
C193 C 0.61425 0.36721 0.4684 0.0
C194 C 0.58606 0.34309 0.37913 0.0
C195 C 0.56269 0.30519 0.41181 0.0
H196 H 0.1241 0.59468 0.54575 0.0
H197 H 0.24816 0.64005 0.45302 0.0
H198 H 0.28374 0.59922 0.4994 0.0
H199 H 0.28342 0.55718 0.5697 0.0
H200 H 0.16039 0.51589 0.66288 0.0
H201 H 0.12094 0.54902 0.61289 0.0
C202 C 0.15863 0.59524 0.53523 0.0
C203 C 0.18361 0.62081 0.49607 0.0
C204 C 0.17951 0.57301 0.56251 0.0
C205 C 0.22812 0.6207 0.483 0.0
C206 C 0.24868 0.59766 0.50968 0.0
C207 C 0.24783 0.55517 0.57893 0.0
C208 C 0.22525 0.53452 0.62025 0.0
C209 C 0.22538 0.57482 0.55009 0.0
C210 C 0.17896 0.532 0.63155 0.0
C211 C 0.15621 0.55082 0.60292 0.0
H212 H 0.70536 0.25058 0.81219 0.0
H213 H 0.60154 0.20639 0.92309 0.0
H214 H 0.53026 0.18528 0.87304 0.0
H215 H 0.49658 0.17727 0.79846 0.0
H216 H 0.59828 0.22086 0.68627 0.0
H217 H 0.67115 0.24439 0.73623 0.0
C218 C 0.66718 0.23656 0.82537 0.0
C219 C 0.65894 0.22997 0.87143 0.0
C220 C 0.62591 0.22421 0.79624 0.0
C221 C 0.60916 0.21175 0.88789 0.0
C222 C 0.56822 0.19959 0.85928 0.0
C223 C 0.53462 0.19192 0.78471 0.0
C224 C 0.54178 0.19697 0.73858 0.0
C225 C 0.57607 0.2053 0.81347 0.0
C226 C 0.59157 0.21643 0.72162 0.0
C227 C 0.63325 0.22987 0.75019 0.0
H228 H 0.41702 0.57354 0.86258 0.0
H229 H 0.31702 0.62377 0.81052 0.0
H230 H 0.35402 0.69574 0.86242 0.0
H231 H 0.40764 0.7378 0.92878 0.0
H232 H 0.50512 0.68396 0.98062 0.0
H233 H 0.47616 0.62006 0.92263 0.0
C234 C 0.40377 0.60065 0.8621 0.0
C235 C 0.36391 0.59301 0.83323 0.0
C236 C 0.4243 0.64092 0.89247 0.0
C237 C 0.34772 0.62886 0.83248 0.0
C238 C 0.36855 0.66972 0.86242 0.0
C239 C 0.42297 0.71249 0.92702 0.0
C240 C 0.45786 0.7152 0.95955 0.0
C241 C 0.40571 0.67514 0.89358 0.0
C242 C 0.47768 0.68235 0.95653 0.0
C243 C 0.46122 0.64574 0.92328 0.0
H244 H 0.72891 0.31627 0.04724 0.0
H245 H 0.8916 0.42457 0.05021 0.0
H246 H 0.87814 0.47832 0.10191 0.0
H247 H 0.82101 0.49151 0.15002 0.0
H248 H 0.65924 0.37923 0.15336 0.0
H249 H 0.6712 0.32986 0.09574 0.0
C250 C 0.76111 0.35213 0.05872 0.0
C251 C 0.81106 0.36702 0.04471 0.0
C252 C 0.75327 0.38165 0.09 0.0
C253 C 0.85281 0.41277 0.06047 0.0
C254 C 0.84515 0.44331 0.09011 0.0
C255 C 0.78827 0.45645 0.13789 0.0
C256 C 0.73931 0.43909 0.15587 0.0
C257 C 0.79569 0.42767 0.10572 0.0
C258 C 0.69738 0.39327 0.14017 0.0
C259 C 0.70418 0.36511 0.10716 0.0
H260 H 0.22865 0.6923 0.23379 0.0
H261 H 0.30693 0.8258 0.31703 0.0
H262 H 0.38022 0.86276 0.26747 0.0
H263 H 0.42618 0.85305 0.20633 0.0
H264 H 0.35234 0.71795 0.12496 0.0
H265 H 0.27265 0.68667 0.16687 0.0
C266 C 0.26152 0.72972 0.2407 0.0
C267 C 0.26267 0.75579 0.2795 0.0
C268 C 0.30429 0.75058 0.21233 0.0
C269 C 0.30538 0.80443 0.28788 0.0
C270 C 0.3473 0.82578 0.25945 0.0
C271 C 0.39241 0.81714 0.19714 0.0
C272 C 0.39546 0.78751 0.16307 0.0
C273 C 0.34777 0.79856 0.22241 0.0
C274 C 0.35109 0.74149 0.15115 0.0
C275 C 0.30568 0.72332 0.17544 0.0
loop_
_geom_bond_atom_site_label_1
_geom_bond_atom_site_label_2
_geom_bond_distance
_geom_bond_site_symmetry_2
_ccdc_geom_bond_type
Zn0 O3 2.031 . S
Zn0 O5 2.049 . S
Zn0 O10 2.067 . S
Zn1 O2 1.962 . S
Zn1 O4 1.986 . S
Zn1 O6 1.996 . S
Zn1 O9 1.943 . S
O2 Zn1 1.962 . S
O2 C7 1.254 . S
O3 Zn0 2.031 . S
O3 C7 1.269 . S
O4 Zn1 1.986 . S
O4 C11 1.262 . S
O5 Zn0 2.049 . S
O5 C13 1.260 . S
O6 Zn1 1.996 . S
O6 C13 1.257 . S
C7 O2 1.254 . S
C7 O3 1.269 . S
C8 O9 1.249 . S
C8 O10 1.270 . S
O9 Zn1 1.943 . S
O9 C8 1.249 . S
O10 Zn0 2.067 . S
O10 C8 1.270 . S
C11 O4 1.262 . S
C11 O12 1.232 . S
O12 C11 1.232 . S
C13 O5 1.260 . S
C13 O6 1.257 . S
Zn14 O17 2.031 . S
Zn14 O19 2.049 . S
Zn14 O24 2.067 . S
Zn15 O16 1.962 . S
Zn15 O18 1.986 . S
Zn15 O20 1.996 . S
Zn15 O23 1.943 . S
O16 Zn15 1.962 . S
O16 C21 1.254 . S
O17 Zn14 2.031 . S
O17 C21 1.269 . S
O18 Zn15 1.986 . S
O18 C25 1.262 . S
O19 Zn14 2.049 . S
O19 C27 1.260 . S
O20 Zn15 1.996 . S
O20 C27 1.257 . S
C21 O16 1.254 . S
C21 O17 1.269 . S
C22 O23 1.249 . S
C22 O24 1.270 . S
O23 Zn15 1.943 . S
O23 C22 1.249 . S
O24 Zn14 2.067 . S
O24 C22 1.270 . S
C25 O18 1.262 . S
C25 O26 1.232 . S
O26 C25 1.232 . S
C27 O19 1.260 . S
C27 O20 1.257 . S
Zn28 O31 2.031 . S
Zn28 O33 2.049 . S
Zn28 O38 2.067 . S
Zn29 O30 1.962 . S
Zn29 O32 1.986 . S
Zn29 O34 1.996 . S
Zn29 O37 1.943 . S
O30 Zn29 1.962 . S
O30 C35 1.254 . S
O31 Zn28 2.031 . S
O31 C35 1.269 . S
O32 Zn29 1.986 . S
O32 C39 1.262 . S
O33 Zn28 2.049 . S
O33 C41 1.260 . S
O34 Zn29 1.996 . S
O34 C41 1.257 . S
C35 O30 1.254 . S
C35 O31 1.269 . S
C36 O37 1.249 . S
C36 O38 1.270 . S
O37 Zn29 1.943 . S
O37 C36 1.249 . S
O38 Zn28 2.067 . S
O38 C36 1.270 . S
C39 O32 1.262 . S
C39 O40 1.232 . S
O40 C39 1.232 . S
C41 O33 1.260 . S
C41 O34 1.257 . S
Zn42 O45 2.031 . S
Zn42 O47 2.049 . S
Zn42 O52 2.067 . S
Zn43 O44 1.962 . S
Zn43 O46 1.986 . S
Zn43 O48 1.996 . S
Zn43 O51 1.943 . S
O44 Zn43 1.962 . S
O44 C49 1.254 . S
O45 Zn42 2.031 . S
O45 C49 1.269 . S
O46 Zn43 1.986 . S
O46 C53 1.262 . S
O47 Zn42 2.049 . S
O47 C55 1.260 . S
O48 Zn43 1.996 . S
O48 C55 1.257 . S
C49 O44 1.254 . S
C49 O45 1.269 . S
C50 O51 1.249 . S
C50 O52 1.270 . S
O51 Zn43 1.943 . S
O51 C50 1.249 . S
O52 Zn42 2.067 . S
O52 C50 1.270 . S
C53 O46 1.262 . S
C53 O54 1.232 . S
O54 C53 1.232 . S
C55 O47 1.260 . S
C55 O48 1.257 . S
Zn56 O59 2.031 . S
Zn56 O61 2.049 . S
Zn56 O66 2.067 . S
Zn57 O58 1.962 . S
Zn57 O60 1.986 . S
Zn57 O62 1.996 . S
Zn57 O65 1.943 . S
O58 Zn57 1.962 . S
O58 C63 1.254 . S
O59 Zn56 2.031 . S
O59 C63 1.269 . S
O60 Zn57 1.986 . S
O60 C67 1.262 . S
O61 Zn56 2.049 . S
O61 C69 1.260 . S
O62 Zn57 1.996 . S
O62 C69 1.257 . S
C63 O58 1.254 . S
C63 O59 1.269 . S
C64 O65 1.249 . S
C64 O66 1.270 . S
O65 Zn57 1.943 . S
O65 C64 1.249 . S
O66 Zn56 2.067 . S
O66 C64 1.270 . S
C67 O60 1.262 . S
C67 O68 1.232 . S
O68 C67 1.232 . S
C69 O61 1.260 . S
C69 O62 1.257 . S
Zn70 O73 2.031 . S
Zn70 O75 2.049 . S
Zn70 O80 2.067 . S
Zn71 O72 1.962 . S
Zn71 O74 1.986 . S
Zn71 O76 1.996 . S
Zn71 O79 1.943 . S
O72 Zn71 1.962 . S
O72 C77 1.254 . S
O73 Zn70 2.031 . S
O73 C77 1.269 . S
O74 Zn71 1.986 . S
O74 C81 1.262 . S
O75 Zn70 2.049 . S
O75 C83 1.260 . S
O76 Zn71 1.996 . S
O76 C83 1.257 . S
C77 O72 1.254 . S
C77 O73 1.269 . S
C78 O79 1.249 . S
C78 O80 1.270 . S
O79 Zn71 1.943 . S
O79 C78 1.249 . S
O80 Zn70 2.067 . S
O80 C78 1.270 . S
C81 O74 1.262 . S
C81 O82 1.232 . S
O82 C81 1.232 . S
C83 O75 1.260 . S
C83 O76 1.257 . S
H84 C90 0.930 . S
H85 C93 0.930 . S
H86 C94 0.930 . S
H87 C95 0.930 . S
H88 C98 0.930 . S
H89 C99 0.930 1_545 S
C90 H84 0.930 . S
C90 C91 1.355 . S
C90 C92 1.415 . S
C91 C90 1.355 . S
C91 C93 1.419 . S
C92 C90 1.415 . S
C92 C97 1.425 1_545 S
C92 C99 1.409 1_545 S
C93 H85 0.930 . S
C93 C91 1.419 . S
C93 C94 1.362 1_545 S
C94 H86 0.930 . S
C94 C93 1.362 1_565 S
C94 C97 1.409 . S
C95 H87 0.930 . S
C95 C96 1.355 . S
C95 C97 1.415 . S
C96 C95 1.355 . S
C96 C98 1.419 . S
C97 C92 1.425 1_565 S
C97 C94 1.409 . S
C97 C95 1.415 . S
C98 H88 0.930 . S
C98 C96 1.419 . S
C98 C99 1.362 . S
C99 H89 0.930 1_565 S
C99 C92 1.409 1_565 S
C99 C98 1.362 . S
H100 C106 0.930 . S
H101 C109 0.930 . S
H102 C110 0.930 . S
H103 C111 0.930 . S
H104 C114 0.930 . S
H105 C115 0.930 . S
C106 H100 0.930 . S
C106 C107 1.355 . S
C106 C108 1.415 . S
C107 C106 1.355 . S
C107 C109 1.419 . S
C108 C106 1.415 . S
C108 C113 1.425 . S
C108 C115 1.409 . S
C109 H101 0.930 . S
C109 C107 1.419 . S
C109 C110 1.362 . S
C110 H102 0.930 . S
C110 C109 1.362 . S
C110 C113 1.409 . S
C111 H103 0.930 . S
C111 C112 1.355 . S
C111 C113 1.415 . S
C112 C111 1.355 . S
C112 C114 1.419 . S
C113 C108 1.425 . S
C113 C110 1.409 . S
C113 C111 1.415 . S
C114 H104 0.930 . S
C114 C112 1.419 . S
C114 C115 1.362 . S
C115 H105 0.930 . S
C115 C108 1.409 . S
C115 C114 1.362 . S
H116 C122 0.930 . S
H117 C125 0.930 . S
H118 C126 0.930 . S
H119 C127 0.930 . S
H120 C130 0.930 . S
H121 C131 0.930 . S
C122 H116 0.930 . S
C122 C123 1.355 . S
C122 C124 1.415 1_655 S
C123 C122 1.355 . S
C123 C125 1.419 . S
C124 C122 1.415 1_455 S
C124 C129 1.425 . S
C124 C131 1.409 . S
C125 H117 0.930 . S
C125 C123 1.419 . S
C125 C126 1.362 . S
C126 H118 0.930 . S
C126 C125 1.362 . S
C126 C129 1.409 1_655 S
C127 H119 0.930 . S
C127 C128 1.355 . S
C127 C129 1.415 . S
C128 C127 1.355 . S
C128 C130 1.419 . S
C129 C124 1.425 . S
C129 C126 1.409 1_455 S
C129 C127 1.415 . S
C130 H120 0.930 . S
C130 C128 1.419 . S
C130 C131 1.362 . S
C131 H121 0.930 . S
C131 C124 1.409 . S
C131 C130 1.362 . S
H132 C138 0.930 1_556 S
H133 C141 0.930 . S
H134 C142 0.930 . S
H135 C143 0.930 . S
H136 C146 0.930 . S
H137 C147 0.930 1_565 S
C138 H132 0.930 1_554 S
C138 C139 1.355 . S
C138 C140 1.415 1_554 S
C139 C138 1.355 . S
C139 C141 1.419 . S
C140 C138 1.415 1_556 S
C140 C145 1.425 1_566 S
C140 C147 1.409 1_565 S
C141 H133 0.930 . S
C141 C139 1.419 . S
C141 C142 1.362 1_565 S
C142 H134 0.930 . S
C142 C141 1.362 1_545 S
C142 C145 1.409 . S
C143 H135 0.930 . S
C143 C144 1.355 1_554 S
C143 C145 1.415 . S
C144 C143 1.355 1_556 S
C144 C146 1.419 . S
C145 C140 1.425 1_544 S
C145 C142 1.409 . S
C145 C143 1.415 . S
C146 H136 0.930 . S
C146 C144 1.419 . S
C146 C147 1.362 . S
C147 H137 0.930 1_545 S
C147 C140 1.409 1_545 S
C147 C146 1.362 . S
H148 C154 0.930 . S
H149 C157 0.930 . S
H150 C158 0.930 . S
H151 C159 0.930 . S
H152 C162 0.930 . S
H153 C163 0.930 . S
C154 H148 0.930 . S
C154 C155 1.355 . S
C154 C156 1.415 . S
C155 C154 1.355 . S
C155 C157 1.419 . S
C156 C154 1.415 . S
C156 C161 1.425 . S
C156 C163 1.409 . S
C157 H149 0.930 . S
C157 C155 1.419 . S
C157 C158 1.362 . S
C158 H150 0.930 . S
C158 C157 1.362 . S
C158 C161 1.409 . S
C159 H151 0.930 . S
C159 C160 1.355 . S
C159 C161 1.415 . S
C160 C159 1.355 . S
C160 C162 1.419 . S
C161 C156 1.425 . S
C161 C158 1.409 . S
C161 C159 1.415 . S
C162 H152 0.930 . S
C162 C160 1.419 . S
C162 C163 1.362 . S
C163 H153 0.930 . S
C163 C156 1.409 . S
C163 C162 1.362 . S
H164 C170 0.930 . S
H165 C173 0.930 . S
H166 C174 0.930 . S
H167 C175 0.930 . S
H168 C178 0.930 . S
H169 C179 0.930 . S
C170 H164 0.930 . S
C170 C171 1.355 . S
C170 C172 1.409 1_455 S
C171 C170 1.355 . S
C171 C173 1.419 . S
C172 C170 1.409 1_655 S
C172 C177 1.422 . S
C172 C179 1.418 . S
C173 H165 0.930 . S
C173 C171 1.419 . S
C173 C174 1.362 . S
C174 H166 0.930 . S
C174 C173 1.362 . S
C174 C177 1.409 1_455 S
C175 H167 0.930 . S
C175 C176 1.355 . S
C175 C177 1.415 . S
C176 C175 1.355 . S
C176 C178 1.419 . S
C177 C172 1.422 . S
C177 C174 1.409 1_655 S
C177 C175 1.415 . S
C178 H168 0.930 . S
C178 C176 1.419 . S
C178 C179 1.362 . S
C179 H169 0.930 . S
C179 C172 1.418 . S
C179 C178 1.362 . S
H180 C186 0.930 . S
H181 C189 0.930 . S
H182 C190 0.930 . S
H183 C191 0.930 . S
H184 C194 0.930 . S
H185 C195 0.930 . S
C186 H180 0.930 . S
C186 C187 1.355 . S
C186 C188 1.415 . S
C187 C186 1.355 . S
C187 C189 1.419 . S
C188 C186 1.415 . S
C188 C193 1.425 . S
C188 C195 1.409 . S
C189 H181 0.930 . S
C189 C187 1.419 . S
C189 C190 1.362 . S
C190 H182 0.930 . S
C190 C189 1.362 . S
C190 C193 1.409 . S
C191 H183 0.930 . S
C191 C192 1.355 . S
C191 C193 1.415 . S
C192 C191 1.355 . S
C192 C194 1.419 . S
C193 C188 1.425 . S
C193 C190 1.409 . S
C193 C191 1.415 . S
C194 H184 0.930 . S
C194 C192 1.419 . S
C194 C195 1.362 . S
C195 H185 0.930 . S
C195 C188 1.409 . S
C195 C194 1.362 . S
H196 C202 0.930 . S
H197 C205 0.930 . S
H198 C206 0.930 . S
H199 C207 0.930 . S
H200 C210 0.930 . S
H201 C211 0.930 . S
C202 H196 0.930 . S
C202 C203 1.355 . S
C202 C204 1.415 . S
C203 C202 1.355 . S
C203 C205 1.419 . S
C204 C202 1.415 . S
C204 C209 1.425 . S
C204 C211 1.409 . S
C205 H197 0.930 . S
C205 C203 1.419 . S
C205 C206 1.362 . S
C206 H198 0.930 . S
C206 C205 1.362 . S
C206 C209 1.409 . S
C207 H199 0.930 . S
C207 C208 1.355 . S
C207 C209 1.415 . S
C208 C207 1.355 . S
C208 C210 1.419 . S
C209 C204 1.425 . S
C209 C206 1.409 . S
C209 C207 1.415 . S
C210 H200 0.930 . S
C210 C208 1.419 . S
C210 C211 1.362 . S
C211 H201 0.930 . S
C211 C204 1.409 . S
C211 C210 1.362 . S
H212 C218 0.930 . S
H213 C221 0.930 . S
H214 C222 0.930 . S
H215 C223 0.930 . S
H216 C226 0.930 . S
H217 C227 0.930 . S
C218 H212 0.930 . S
C218 C219 1.355 . S
C218 C220 1.415 . S
C219 C218 1.355 . S
C219 C221 1.419 . S
C220 C218 1.415 . S
C220 C225 1.425 . S
C220 C227 1.409 . S
C221 H213 0.930 . S
C221 C219 1.419 . S
C221 C222 1.362 . S
C222 H214 0.930 . S
C222 C221 1.362 . S
C222 C225 1.409 . S
C223 H215 0.930 . S
C223 C224 1.355 . S
C223 C225 1.415 . S
C224 C223 1.355 . S
C224 C226 1.419 . S
C225 C220 1.425 . S
C225 C222 1.409 . S
C225 C223 1.415 . S
C226 H216 0.930 . S
C226 C224 1.419 . S
C226 C227 1.362 . S
C227 H217 0.930 . S
C227 C220 1.409 . S
C227 C226 1.362 . S
H228 C234 0.930 . S
H229 C237 0.930 . S
H230 C238 0.930 . S
H231 C239 0.930 . S
H232 C242 0.930 . S
H233 C243 0.930 . S
C234 H228 0.930 . S
C234 C235 1.355 . S
C234 C236 1.415 . S
C235 C234 1.355 . S
C235 C237 1.419 . S
C236 C234 1.415 . S
C236 C241 1.425 . S
C236 C243 1.409 . S
C237 H229 0.930 . S
C237 C235 1.419 . S
C237 C238 1.362 . S
C238 H230 0.930 . S
C238 C237 1.362 . S
C238 C241 1.409 . S
C239 H231 0.930 . S
C239 C240 1.355 . S
C239 C241 1.415 . S
C240 C239 1.355 . S
C240 C242 1.419 . S
C241 C236 1.425 . S
C241 C238 1.409 . S
C241 C239 1.415 . S
C242 H232 0.930 . S
C242 C240 1.419 . S
C242 C243 1.362 . S
C243 H233 0.930 . S
C243 C236 1.409 . S
C243 C242 1.362 . S
H244 C250 0.930 1_556 S
H245 C253 0.930 . S
H246 C254 0.930 . S
H247 C255 0.930 . S
H248 C258 0.930 . S
H249 C259 0.930 . S
C250 H244 0.930 1_554 S
C250 C251 1.355 . S
C250 C252 1.415 . S
C251 C250 1.355 . S
C251 C253 1.419 . S
C252 C250 1.415 . S
C252 C257 1.425 . S
C252 C259 1.409 . S
C253 H245 0.930 . S
C253 C251 1.419 . S
C253 C254 1.362 . S
C254 H246 0.930 . S
C254 C253 1.362 . S
C254 C257 1.409 . S
C255 H247 0.930 . S
C255 C256 1.355 . S
C255 C257 1.415 . S
C256 C255 1.355 . S
C256 C258 1.419 . S
C257 C252 1.425 . S
C257 C254 1.409 . S
C257 C255 1.415 . S
C258 H248 0.930 . S
C258 C256 1.419 . S
C258 C259 1.362 . S
C259 H249 0.930 . S
C259 C252 1.409 . S
C259 C258 1.362 . S
H260 C266 0.930 . S
H261 C269 0.930 . S
H262 C270 0.930 . S
H263 C271 0.930 . S
H264 C274 0.930 . S
H265 C275 0.930 . S
C266 H260 0.930 . S
C266 C267 1.355 . S
C266 C268 1.415 . S
C267 C266 1.355 . S
C267 C269 1.419 . S
C268 C266 1.415 . S
C268 C273 1.425 . S
C268 C275 1.409 . S
C269 H261 0.930 . S
C269 C267 1.419 . S
C269 C270 1.362 . S
C270 H262 0.930 . S
C270 C269 1.362 . S
C270 C273 1.409 . S
C271 H263 0.930 . S
C271 C272 1.355 . S
C271 C273 1.415 . S
C272 C271 1.355 . S
C272 C274 1.419 . S
C273 C268 1.425 . S
C273 C270 1.409 . S
C273 C271 1.415 . S
C274 H264 0.930 . S
C274 C272 1.419 . S
C274 C275 1.362 . S
C275 H265 0.930 . S
C275 C268 1.409 . S
C275 C274 1.362 . S
C91 C13 1.327 . S
C96 C77 1.436 . S
C107 C7 1.426 . S
C112 C27 1.361 . S
C123 C41 1.408 . S
C128 C21 1.420 . S
C139 C55 1.328 . S
C144 C35 1.440 . S
C155 C69 1.335 . S
C160 C49 1.440 . S
C171 C83 1.395 . S
C176 C63 1.421 . S
C187 C11 1.520 . S
C192 C64 1.484 . S
C203 C78 1.507 . S
C208 C25 1.515 . S
C219 C39 1.518 . S
C224 C8 1.489 . S
C235 C22 1.489 . S
C240 C53 1.522 1_556 S
C251 C36 1.481 1_554 S
C256 C67 1.525 . S
C267 C81 1.514 . S
C272 C50 1.508 . S
